# Generated by pormake.
# Topology smu, (6)-cn, num edge types: 1
# Building blocks:
#     Node 0, Type 0, BuildingBlock: PAMTUU_clean_sbu_0, # of connection points: 6
#     Node 1, Type 0, BuildingBlock: PAMTUU_clean_sbu_0, # of connection points: 6
#     Node 2, Type 0, BuildingBlock: PAMTUU_clean_sbu_0, # of connection points: 6
#     Node 3, Type 0, BuildingBlock: PAMTUU_clean_sbu_0, # of connection points: 6
#     Node 4, Type 0, BuildingBlock: PAMTUU_clean_sbu_0, # of connection points: 6
#     Node 5, Type 0, BuildingBlock: PAMTUU_clean_sbu_0, # of connection points: 6
#     Edge 6, Type (0, 0), BuildingBlock: ZUJKAS_clean_linker_0, # of connection points: 2
#     Edge 7, Type (0, 0), BuildingBlock: ZUJKAS_clean_linker_0, # of connection points: 2
#     Edge 8, Type (0, 0), BuildingBlock: ZUJKAS_clean_linker_0, # of connection points: 2
#     Edge 9, Type (0, 0), BuildingBlock: ZUJKAS_clean_linker_0, # of connection points: 2
#     Edge 10, Type (0, 0), BuildingBlock: ZUJKAS_clean_linker_0, # of connection points: 2
#     Edge 11, Type (0, 0), BuildingBlock: ZUJKAS_clean_linker_0, # of connection points: 2
#     Edge 12, Type (0, 0), BuildingBlock: ZUJKAS_clean_linker_0, # of connection points: 2
#     Edge 13, Type (0, 0), BuildingBlock: ZUJKAS_clean_linker_0, # of connection points: 2
#     Edge 14, Type (0, 0), BuildingBlock: ZUJKAS_clean_linker_0, # of connection points: 2
#     Edge 15, Type (0, 0), BuildingBlock: ZUJKAS_clean_linker_0, # of connection points: 2
#     Edge 16, Type (0, 0), BuildingBlock: ZUJKAS_clean_linker_0, # of connection points: 2
#     Edge 17, Type (0, 0), BuildingBlock: ZUJKAS_clean_linker_0, # of connection points: 2
#     Edge 18, Type (0, 0), BuildingBlock: ZUJKAS_clean_linker_0, # of connection points: 2
#     Edge 19, Type (0, 0), BuildingBlock: ZUJKAS_clean_linker_0, # of connection points: 2
#     Edge 20, Type (0, 0), BuildingBlock: ZUJKAS_clean_linker_0, # of connection points: 2
#     Edge 21, Type (0, 0), BuildingBlock: ZUJKAS_clean_linker_0, # of connection points: 2
#     Edge 22, Type (0, 0), BuildingBlock: ZUJKAS_clean_linker_0, # of connection points: 2
#     Edge 23, Type (0, 0), BuildingBlock: ZUJKAS_clean_linker_0, # of connection points: 2
# Relax obj value: 0.209
# Max RMSD: 0.298
# Mean RMSD: 0.298
data_MOF--net-smu--node1-PAMTUU_clean_sbu_0--edge1-ZUJKAS_clean_linker_0
_symmetry_space_group_name_H-M    P1
_symmetry_Int_Tables_number       1
_symmetry_cell_setting            triclinic
loop_
_symmetry_equiv_pos_as_xyz
'x, y, z'
_cell_length_a     47.518221
_cell_length_b     47.514586
_cell_length_c     36.048607
_cell_angle_alpha  89.472317
_cell_angle_beta   89.995963
_cell_angle_gamma 119.97467
loop_
_atom_site_label
_atom_site_type_symbol
_atom_site_fract_x
_atom_site_fract_y
_atom_site_fract_z
_atom_type_partial_charge
Tb0 Tb 0.32863 0.11497 0.2816 0.0
Tb1 Tb 0.37806 0.08501 0.28694 0.0
C2 C 0.34917 0.0902 0.21166 0.0
C3 C 0.27098 0.15007 0.29062 0.0
C4 C 0.22729 0.17263 0.30642 0.0
C5 C 0.21795 0.14566 0.28339 0.0
C6 C 0.23959 0.1346 0.27548 0.0
C7 C 0.27967 0.17584 0.31534 0.0
C8 C 0.25803 0.18692 0.32321 0.0
C9 C 0.29604 0.14355 0.27513 0.0
O10 O 0.2975 0.06535 0.29934 0.0
O11 O 0.32885 0.043 0.28072 0.0
O12 O 0.35491 0.07506 0.34075 0.0
O13 O 0.33635 0.11169 0.34126 0.0
O14 O 0.40065 0.06157 0.26167 0.0
O15 O 0.41212 0.07883 0.31768 0.0
O16 O 0.40612 0.13691 0.29798 0.0
O17 O 0.37627 0.15027 0.26057 0.0
O18 O 0.32548 0.09143 0.22898 0.0
O19 O 0.37614 0.09697 0.22892 0.0
C20 C 0.30096 0.04028 0.2915 0.0
O21 O 0.3241 0.15593 0.29173 0.0
O22 O 0.28699 0.1149 0.2616 0.0
C23 C 0.34308 0.091 0.35829 0.0
C24 C 0.45482 0.08233 0.28173 0.0
C25 C 0.52297 0.11399 0.272 0.0
C26 C 0.50601 0.0831 0.28911 0.0
C27 C 0.47229 0.06747 0.2939 0.0
C28 C 0.4714 0.11291 0.2642 0.0
C29 C 0.50516 0.12857 0.25929 0.0
C30 C 0.4198 0.06675 0.28981 0.0
C31 C 0.4031 0.15865 0.27859 0.0
H32 H 0.19463 0.13426 0.26963 0.0
H33 H 0.23234 0.11509 0.25581 0.0
H34 H 0.30377 0.18857 0.32719 0.0
H35 H 0.26582 0.20744 0.3415 0.0
H36 H 0.51888 0.07134 0.29982 0.0
H37 H 0.45994 0.04405 0.30788 0.0
H38 H 0.4583 0.12486 0.25482 0.0
H39 H 0.5173 0.15212 0.24564 0.0
Tb40 Tb 0.81122 0.69685 0.23596 0.0
Tb41 Tb 0.73219 0.64927 0.2447 0.0
C42 C 0.7637 0.68377 0.17101 0.0
C43 C 0.90291 0.75713 0.23418 0.0
C44 C 0.96713 0.80545 0.2507 0.0
C45 C 0.95698 0.79776 0.21371 0.0
C46 C 0.92523 0.77388 0.2056 0.0
C47 C 0.91239 0.76555 0.2712 0.0
C48 C 0.94427 0.78956 0.27938 0.0
C49 C 0.87176 0.72848 0.22436 0.0
O50 O 0.79445 0.73119 0.24335 0.0
O51 O 0.73854 0.69797 0.25201 0.0
O52 O 0.75463 0.65426 0.29865 0.0
O53 O 0.8004 0.70427 0.29256 0.0
O54 O 0.68817 0.61617 0.21988 0.0
O55 O 0.69032 0.62591 0.2785 0.0
O56 O 0.75268 0.61974 0.22493 0.0
O57 O 0.80165 0.64914 0.25251 0.0
O58 O 0.78894 0.68128 0.18115 0.0
O59 O 0.74036 0.67743 0.19458 0.0
C60 C 0.76522 0.72684 0.24979 0.0
O61 O 0.85771 0.70538 0.24916 0.0
O62 O 0.85093 0.73308 0.20555 0.0
C63 C 0.77662 0.68196 0.313 0.0
C64 C 0.65505 0.57205 0.25923 0.0
C65 C 0.61979 0.50406 0.27064 0.0
C66 C 0.60615 0.5234 0.28012 0.0
C67 C 0.62362 0.5571 0.27433 0.0
C68 C 0.66907 0.55294 0.25068 0.0
C69 C 0.65156 0.51927 0.25615 0.0
C70 C 0.67272 0.60731 0.25154 0.0
C71 C 0.77957 0.62209 0.23783 0.0
H72 H 0.97395 0.80911 0.19093 0.0
H73 H 0.91849 0.76749 0.17688 0.0
H74 H 0.89556 0.75289 0.29376 0.0
H75 H 0.95117 0.79525 0.30815 0.0
H76 H 0.58164 0.51238 0.29108 0.0
H77 H 0.6124 0.57143 0.28115 0.0
H78 H 0.69343 0.56401 0.23931 0.0
H79 H 0.6629 0.50511 0.24903 0.0
Tb80 Tb 0.91243 0.21665 0.27513 0.0
Tb81 Tb 0.94176 0.2957 0.27442 0.0
C82 C 0.93563 0.25826 0.1998 0.0
C83 C 0.8737 0.12411 0.25975 0.0
C84 C 0.85233 0.05866 0.24187 0.0
C85 C 0.83044 0.07043 0.24221 0.0
C86 C 0.84102 0.10274 0.25108 0.0
C87 C 0.89605 0.11301 0.25732 0.0
C88 C 0.88548 0.08063 0.24829 0.0
C89 C 0.88221 0.15531 0.2774 0.0
O90 O 0.96281 0.2372 0.25894 0.0
O91 O 0.98363 0.28874 0.28334 0.0
O92 O 0.93613 0.28053 0.33247 0.0
O93 O 0.93522 0.23187 0.32907 0.0
O94 O 0.96747 0.34299 0.25138 0.0
O95 O 0.94165 0.33379 0.30313 0.0
O96 O 0.89094 0.27155 0.25836 0.0
O97 O 0.87807 0.22967 0.29733 0.0
O98 O 0.91709 0.22972 0.21598 0.0
O99 O 0.94917 0.28571 0.21808 0.0
C100 C 0.98734 0.26469 0.27075 0.0
O101 O 0.91145 0.1734 0.29044 0.0
O102 O 0.8703 0.17251 0.26323 0.0
C103 C 0.94007 0.25751 0.34771 0.0
C104 C 0.94194 0.37383 0.26478 0.0
C105 C 0.90847 0.40785 0.24928 0.0
C106 C 0.93695 0.42205 0.27079 0.0
C107 C 0.95346 0.40519 0.27844 0.0
C108 C 0.91392 0.35967 0.24275 0.0
C109 C 0.89738 0.37655 0.23499 0.0
C110 C 0.95731 0.35502 0.27701 0.0
C111 C 0.86911 0.24709 0.27787 0.0
H112 H 0.80472 0.05426 0.2379 0.0
H113 H 0.82318 0.11051 0.2533 0.0
H114 H 0.9214 0.12885 0.26402 0.0
H115 H 0.9031 0.07252 0.24763 0.0
H116 H 0.94596 0.44581 0.28282 0.0
H117 H 0.97474 0.41631 0.29598 0.0
H118 H 0.90444 0.33531 0.23224 0.0
H119 H 0.8758 0.36498 0.21799 0.0
Tb120 Tb 0.0912 0.37093 0.78219 0.0
Tb121 Tb 0.1221 0.32338 0.77156 0.0
C122 C 0.10056 0.33405 0.84948 0.0
C123 C 0.09344 0.44957 0.79139 0.0
C124 C 0.12767 0.51826 0.79212 0.0
C125 C 0.09614 0.50049 0.80729 0.0
C126 C 0.07916 0.46644 0.80682 0.0
C127 C 0.12518 0.46719 0.77704 0.0
C128 C 0.14208 0.50116 0.77728 0.0
C129 C 0.07484 0.41379 0.78914 0.0
O130 O 0.14135 0.40047 0.76258 0.0
O131 O 0.15973 0.37018 0.79081 0.0
O132 O 0.11693 0.34098 0.71702 0.0
O133 O 0.07279 0.3458 0.7306 0.0
O134 O 0.16191 0.31699 0.78154 0.0
O135 O 0.12421 0.28567 0.74353 0.0
O136 O 0.07052 0.28933 0.7775 0.0
O137 O 0.04846 0.32243 0.79007 0.0
O138 O 0.10589 0.36233 0.83656 0.0
O139 O 0.10286 0.31313 0.82785 0.0
C140 C 0.16539 0.3978 0.7764 0.0
O141 O 0.07676 0.40179 0.75754 0.0
O142 O 0.07765 0.3977 0.81699 0.0
C143 C 0.09022 0.34058 0.70655 0.0
C144 C 0.1559 0.26475 0.77147 0.0
C145 C 0.17724 0.21967 0.78436 0.0
C146 C 0.15796 0.21664 0.75338 0.0
C147 C 0.14754 0.23902 0.74694 0.0
C148 C 0.17348 0.26667 0.80366 0.0
C149 C 0.18398 0.24431 0.81007 0.0
C150 C 0.1513 0.29206 0.75971 0.0
C151 C 0.04579 0.29352 0.78575 0.0
H152 H 0.08424 0.51291 0.81864 0.0
H153 H 0.05469 0.45331 0.81799 0.0
H154 H 0.13676 0.45469 0.76513 0.0
H155 H 0.16646 0.51406 0.76585 0.0
H156 H 0.15179 0.19755 0.73341 0.0
H157 H 0.13428 0.23711 0.72175 0.0
H158 H 0.18062 0.28639 0.82298 0.0
H159 H 0.19892 0.24746 0.8341 0.0
Tb160 Tb 0.30543 0.93739 0.78139 0.0
Tb161 Tb 0.22612 0.90688 0.78702 0.0
C162 C 0.2713 0.93197 0.85699 0.0
C163 C 0.38497 0.93989 0.77917 0.0
C164 C 0.42407 0.91043 0.77883 0.0
C165 C 0.43509 0.94088 0.79548 0.0
C166 C 0.41577 0.95547 0.7955 0.0
C167 C 0.37344 0.90912 0.76342 0.0
C168 C 0.39283 0.89463 0.76309 0.0
C169 C 0.36553 0.95627 0.77791 0.0
O170 O 0.28245 0.88568 0.76933 0.0
O171 O 0.23914 0.87175 0.80675 0.0
O172 O 0.23653 0.91148 0.72716 0.0
O173 O 0.29183 0.94743 0.72785 0.0
O174 O 0.18475 0.90576 0.80951 0.0
O175 O 0.18058 0.86639 0.77559 0.0
O176 O 0.24437 0.95678 0.77069 0.0
O177 O 0.29785 0.979 0.78984 0.0
O178 O 0.29198 0.92596 0.8396 0.0
O179 O 0.2461 0.93015 0.83979 0.0
C180 C 0.25748 0.86358 0.78814 0.0
O181 O 0.34691 0.95022 0.74915 0.0
O182 O 0.35059 0.95582 0.80836 0.0
C183 C 0.26405 0.93205 0.71028 0.0
C184 C 0.13269 0.87091 0.78253 0.0
C185 C 0.06546 0.84592 0.77189 0.0
C186 C 0.08308 0.83701 0.74809 0.0
C187 C 0.11638 0.84924 0.75349 0.0
C188 C 0.11544 0.88136 0.80471 0.0
C189 C 0.08223 0.86905 0.79944 0.0
C190 C 0.16514 0.87764 0.79486 0.0
C191 C 0.27263 0.98185 0.77944 0.0
H192 H 0.45868 0.95351 0.80856 0.0
H193 H 0.42502 0.9791 0.80804 0.0
H194 H 0.34963 0.89648 0.7508 0.0
H195 H 0.38357 0.87139 0.74965 0.0
H196 H 0.07079 0.81915 0.72669 0.0
H197 H 0.12886 0.84036 0.73621 0.0
H198 H 0.12723 0.89771 0.82758 0.0
H199 H 0.0694 0.87679 0.81781 0.0
Tb200 Tb 0.66047 0.73057 0.74416 0.0
Tb201 Tb 0.71743 0.80798 0.73458 0.0
C202 C 0.69639 0.77252 0.81311 0.0
C203 C 0.5779 0.65497 0.75203 0.0
C204 C 0.50916 0.6197 0.75808 0.0
C205 C 0.52798 0.64543 0.7824 0.0
C206 C 0.56202 0.66294 0.77937 0.0
C207 C 0.55921 0.62957 0.72765 0.0
C208 C 0.52534 0.61226 0.7305 0.0
C209 C 0.61369 0.67258 0.74769 0.0
O210 O 0.63719 0.75892 0.73035 0.0
O211 O 0.67444 0.80671 0.75655 0.0
O212 O 0.70044 0.78841 0.67892 0.0
O213 O 0.6842 0.73516 0.69147 0.0
O214 O 0.72979 0.8537 0.71203 0.0
O215 O 0.7651 0.84654 0.74214 0.0
O216 O 0.74148 0.78026 0.72494 0.0
O217 O 0.70674 0.7323 0.75587 0.0
O218 O 0.66815 0.75126 0.79914 0.0
O219 O 0.71987 0.79495 0.79234 0.0
C220 C 0.64494 0.78715 0.7448 0.0
O221 O 0.62489 0.68912 0.71697 0.0
O222 O 0.63146 0.68831 0.77607 0.0
C223 C 0.69465 0.75963 0.66811 0.0
C224 C 0.77301 0.90009 0.74165 0.0
C225 C 0.803 0.96572 0.76431 0.0
C226 C 0.82139 0.95027 0.75919 0.0
C227 C 0.80658 0.91793 0.74798 0.0
C228 C 0.75429 0.91506 0.74764 0.0
C229 C 0.76916 0.94757 0.75887 0.0
C230 C 0.75924 0.86741 0.72522 0.0
C231 C 0.73548 0.75303 0.74151 0.0
H232 H 0.51648 0.65174 0.80416 0.0
H233 H 0.57584 0.68257 0.79843 0.0
H234 H 0.57088 0.62315 0.70616 0.0
H235 H 0.51183 0.59319 0.71073 0.0
H236 H 0.84753 0.96352 0.76243 0.0
H237 H 0.82163 0.90713 0.74307 0.0
H238 H 0.72833 0.90196 0.74286 0.0
H239 H 0.75421 0.95858 0.76292 0.0
H240 H 0.32455 0.94578 0.89953 0.0
H241 H 0.33842 0.97167 0.96037 0.0
H242 H 0.24857 0.97337 0.96207 0.0
H243 H 0.23432 0.94726 0.9016 0.0
H244 H 0.34632 0.03261 0.97764 0.0
H245 H 0.24914 0.9359 0.0644 0.0
H246 H 0.25919 0.92832 1.01865 0.0
H247 H 0.23436 0.94677 0.02406 0.0
C248 C 0.30743 0.95111 0.9131 0.0
C249 C 0.2782 0.94423 0.89564 0.0
C250 C 0.3155 0.96607 0.94783 0.0
C251 C 0.29441 0.97419 0.96599 0.0
C252 C 0.26497 0.9668 0.94897 0.0
H253 H 0.29645 0.07341 0.16724 0.0
H254 H 0.28502 0.04708 0.10686 0.0
C255 C 0.2569 0.95192 0.91425 0.0
C256 C 0.30388 0.99191 1.00176 0.0
H257 H 0.2797 0.98794 0.09185 0.0
C258 C 0.33192 0.02275 1.00272 0.0
C259 C 0.28501 0.9791 0.03441 0.0
C260 C 0.25541 0.94558 0.03557 0.0
C261 C 0.34112 0.04147 0.03516 0.0
C262 C 0.32208 0.02876 0.06775 0.0
C263 C 0.29422 0.99777 0.06684 0.0
C264 C 0.33046 0.04709 0.10313 0.0
C265 C 0.3706 0.07506 0.03391 0.0
C266 C 0.35999 0.05621 0.12109 0.0
C267 C 0.36673 0.07149 0.15563 0.0
C268 C 0.34393 0.07773 0.1731 0.0
C269 C 0.31466 0.06915 0.15464 0.0
C270 C 0.30799 0.05394 0.12012 0.0
H271 H 0.37718 0.08447 1.00501 0.0
H272 H 0.36648 0.0924 0.05022 0.0
H273 H 0.39158 0.07415 0.04609 0.0
H274 H 0.37745 0.05063 0.10895 0.0
H275 H 0.38937 0.07744 0.16913 0.0
H276 H 0.72792 0.72875 0.65424 0.0
H277 H 0.74646 0.71998 0.59487 0.0
H278 H 0.70398 0.77061 0.53918 0.0
H279 H 0.68746 0.78157 0.59959 0.0
H280 H 0.71463 0.68581 0.54186 0.0
H281 H 0.78708 0.81046 0.48467 0.0
H282 H 0.77264 0.80269 0.53197 0.0
H283 H 0.74622 0.80055 0.49487 0.0
C284 C 0.7229 0.73841 0.62936 0.0
C285 C 0.70621 0.7558 0.63144 0.0
C286 C 0.73348 0.73333 0.59532 0.0
C287 C 0.72697 0.74477 0.56219 0.0
C288 C 0.71023 0.76227 0.56421 0.0
H289 H 0.72072 0.65245 0.35351 0.0
H290 H 0.70994 0.66838 0.41331 0.0
C291 C 0.70048 0.76828 0.59867 0.0
C292 C 0.73601 0.73627 0.52594 0.0
H293 H 0.77335 0.76709 0.44231 0.0
C294 C 0.72777 0.70378 0.52033 0.0
C295 C 0.75362 0.75957 0.49777 0.0
C296 C 0.76571 0.7953 0.50275 0.0
C297 C 0.73641 0.69393 0.48774 0.0
C298 C 0.75227 0.71679 0.45866 0.0
C299 C 0.76088 0.74938 0.4643 0.0
C300 C 0.75932 0.70716 0.42201 0.0
C301 C 0.72913 0.65921 0.4855 0.0
C302 C 0.79049 0.72435 0.40585 0.0
C303 C 0.79659 0.71575 0.37085 0.0
C304 C 0.77173 0.68951 0.35154 0.0
C305 C 0.7407 0.67226 0.36793 0.0
C306 C 0.73447 0.6813 0.40237 0.0
H307 H 0.72859 0.649 0.51352 0.0
H308 H 0.70478 0.64406 0.47307 0.0
H309 H 0.74741 0.65715 0.46835 0.0
H310 H 0.81008 0.74455 0.42023 0.0
H311 H 0.82064 0.72979 0.35879 0.0
H312 H 0.95961 0.31105 0.1538 0.0
H313 H 0.98407 0.31754 0.09271 0.0
H314 H 0.95906 0.21693 0.0947 0.0
H315 H 0.93468 0.21026 0.15662 0.0
H316 H 0.02431 0.25969 0.07647 0.0
H317 H 0.94451 0.28742 0.99075 0.0
H318 H 0.95889 0.31238 0.03116 0.0
H319 H 0.93281 0.26914 0.03639 0.0
C320 C 0.95868 0.29004 0.14107 0.0
C321 C 0.94505 0.26007 0.16016 0.0
C322 C 0.9726 0.29379 0.10595 0.0
C323 C 0.97315 0.26767 0.08885 0.0
C324 C 0.95875 0.23739 0.10727 0.0
H325 H 0.07562 0.27384 0.88236 0.0
H326 H 0.04526 0.25536 0.94081 0.0
C327 C 0.94458 0.23354 0.14252 0.0
C328 C 0.99089 0.27306 0.05305 0.0
H329 H 0.99729 0.30381 0.96544 0.0
C330 C 0.01812 0.26883 0.05196 0.0
C331 C 0.98286 0.28503 0.02108 0.0
C332 C 0.95297 0.28846 0.01971 0.0
C333 C 0.03838 0.27774 0.0204 0.0
C334 C 0.03101 0.2909 0.98898 0.0
C335 C 1.00316 0.29406 0.98967 0.0
C336 C 0.05219 0.30248 0.95539 0.0
C337 C 0.06825 0.27429 0.02145 0.0
C338 C 0.06648 0.33517 0.94422 0.0
C339 C 0.08388 0.34585 0.91085 0.0
C340 C 0.08725 0.324 0.88771 0.0
C341 C 0.0739 0.29146 0.89964 0.0
C342 C 0.05647 0.2808 0.93309 0.0
H343 H 0.07417 0.27025 0.05012 0.0
H344 H 0.064 0.25317 1.00447 0.0
H345 H 0.08954 0.29626 1.00957 0.0
H346 H 0.0635 0.35233 0.96097 0.0
H347 H 0.09366 0.37102 0.9026 0.0
H348 H 0.29052 0.08621 0.39599 0.0
H349 H 0.27043 0.06096 0.45752 0.0
H350 H 0.35352 0.048 0.46959 0.0
H351 H 0.3734 0.07274 0.40855 0.0
H352 H 0.25734 0.99432 0.47771 0.0
H353 H 0.34807 0.08986 0.56892 0.0
H354 H 0.3399 0.09832 0.5224 0.0
H355 H 0.36537 0.08079 0.52967 0.0
C356 C 0.30488 0.07876 0.41228 0.0
C357 C 0.33369 0.08172 0.39763 0.0
C358 C 0.29323 0.06406 0.44721 0.0
C359 C 0.31058 0.05274 0.46821 0.0
C360 C 0.33992 0.05684 0.4541 0.0
H361 H 0.31305 0.95132 0.66047 0.0
H362 H 0.31924 0.97883 0.60108 0.0
C363 C 0.35127 0.07103 0.41919 0.0
C364 C 0.29768 0.03493 0.50394 0.0
H365 H 0.31821 0.03635 0.59491 0.0
C366 C 0.27019 1.00366 0.50357 0.0
C367 C 0.31453 0.04716 0.53757 0.0
C368 C 0.34345 0.081 0.53991 0.0
C369 C 0.26032 0.98356 0.53551 0.0
C370 C 0.27816 0.9953 0.56873 0.0
C371 C 0.30465 0.02719 0.56941 0.0
C372 C 0.2717 0.97445 0.60241 0.0
C373 C 0.23202 0.94939 0.53295 0.0
C374 C 0.24239 0.96172 0.62253 0.0
C375 C 0.23861 0.94547 0.65658 0.0
C376 C 0.26425 0.9421 0.67115 0.0
C377 C 0.29285 0.95352 0.65003 0.0
C378 C 0.29649 0.96942 0.61611 0.0
H379 H 0.22473 0.94207 0.50376 0.0
H380 H 0.23806 0.93186 0.54613 0.0
H381 H 0.21088 0.94778 0.54799 0.0
H382 H 0.22306 0.96569 0.61285 0.0
H383 H 0.21652 0.93743 0.67253 0.0
H384 H 0.66115 0.71976 0.858 0.0
H385 H 0.67573 0.70871 0.91882 0.0
H386 H 0.7617 0.80357 0.91853 0.0
H387 H 0.74796 0.81431 0.85641 0.0
H388 H 0.77656 0.7603 0.94187 0.0
H389 H 0.6664 0.73773 1.01812 0.0
H390 H 0.65578 0.7112 0.97924 0.0
H391 H 0.67509 0.75453 0.97176 0.0
C392 C 0.68288 0.73863 0.87103 0.0
C393 C 0.70319 0.76813 0.85234 0.0
C394 C 0.69115 0.73226 0.90605 0.0
C395 C 0.7195 0.75551 0.92384 0.0
C396 C 0.73961 0.78526 0.90555 0.0
H397 H 0.74525 0.7279 0.15703 0.0
H398 H 0.73871 0.74807 0.09716 0.0
C399 C 0.73161 0.79147 0.87011 0.0
C400 C 0.72867 0.748 0.96069 0.0
H401 H 0.69842 0.71761 0.04688 0.0
C402 C 0.75962 0.75134 0.96502 0.0
C403 C 0.70685 0.73673 0.9912 0.0
C404 C 0.67435 0.73519 0.98997 0.0
C405 C 0.76903 0.74312 0.9986 0.0
C406 C 0.74647 0.73003 0.02836 0.0
C407 C 0.71574 0.72724 0.02412 0.0
C408 C 0.7541 0.71996 0.06467 0.0
C409 C 0.8033 0.74929 1.00194 0.0
C410 C 0.76569 0.69786 0.06683 0.0
C411 C 0.77035 0.68694 0.10143 0.0
C412 C 0.76244 0.69713 0.13427 0.0
C413 C 0.75126 0.71943 0.13207 0.0
C414 C 0.74747 0.73094 0.09779 0.0
H415 H 0.81999 0.76859 0.98225 0.0
H416 H 0.81276 0.75662 0.03049 0.0
H417 H 0.80364 0.72674 0.9951 0.0
H418 H 0.77017 0.68823 0.04185 0.0
H419 H 0.77873 0.66952 0.10245 0.0
H420 H 0.95579 0.30887 0.39356 0.0
H421 H 0.98343 0.32007 0.45322 0.0
H422 H 0.98313 0.22933 0.44823 0.0
H423 H 0.95532 0.21773 0.38833 0.0
H424 H 0.96524 0.24294 0.51891 0.0
H425 H 0.08029 0.34643 0.46525 0.0
H426 H 0.04481 0.34923 0.45472 0.0
H427 H 0.04933 0.31703 0.4352 0.0
C428 C 0.96128 0.29106 0.40517 0.0
C429 C 0.95335 0.26239 0.38594 0.0
C430 C 0.97736 0.29768 0.4392 0.0
C431 C 0.98594 0.27587 0.45479 0.0
C432 C 0.97698 0.24664 0.4365 0.0
H433 H 0.11625 0.32407 0.64777 0.0
H434 H 0.09257 0.30656 0.58574 0.0
C435 C 0.96097 0.24001 0.40232 0.0
C436 C 1.0042 0.28373 0.49021 0.0
H437 H 0.0746 0.34046 0.53113 0.0
C438 C 0.98928 0.26406 0.52152 0.0
C439 C 0.0358 0.311 0.49344 0.0
C440 C 0.0537 0.33201 0.46031 0.0
C441 C 1.00448 0.27181 0.55633 0.0
C442 C 0.0353 0.3001 0.55998 0.0
C443 C 0.05088 0.31893 0.52835 0.0
C444 C 0.05056 0.31161 0.59683 0.0
C445 C 0.98728 0.24984 0.58908 0.0
C446 C 0.03528 0.32107 0.62313 0.0
C447 C 0.04874 0.33121 0.65824 0.0
C448 C 0.07794 0.33222 0.66798 0.0
C449 C 0.09377 0.32357 0.64122 0.0
C450 C 0.08024 0.3135 0.60582 0.0
H451 H 0.96866 0.22512 0.58014 0.0
H452 H 1.00479 0.24774 0.60769 0.0
H453 H 0.9748 0.26021 0.60526 0.0
H454 H 1.01273 0.32043 0.61655 0.0
H455 H 0.03586 0.33781 0.67793 0.0
H456 H 0.56169 0.08814 0.25503 0.0
H457 H 0.62101 0.11564 0.25419 0.0
H458 H 0.62571 0.20648 0.279 0.0
H459 H 0.56637 0.17896 0.28137 0.0
H460 H 0.66709 0.16722 0.21155 0.0
H461 H 0.68062 0.19858 0.36112 0.0
H462 H 0.64206 0.17004 0.34104 0.0
H463 H 0.65823 0.21297 0.33466 0.0
C464 C 0.57528 0.11393 0.2606 0.0
C465 C 0.55912 0.13121 0.26867 0.0
C466 C 0.60923 0.12967 0.2598 0.0
C467 C 0.62784 0.16302 0.26712 0.0
C468 C 0.61188 0.18061 0.27394 0.0
H469 H 0.84043 0.2744 0.23594 0.0
H470 H 0.78234 0.25674 0.23235 0.0
C471 C 0.57789 0.16487 0.27485 0.0
C472 C 0.66387 0.17904 0.26832 0.0
H473 H 0.72891 0.21735 0.32632 0.0
C474 C 0.68065 0.17838 0.23656 0.0
C475 C 0.6815 0.19331 0.3011 0.0
C476 C 0.66475 0.19361 0.33655 0.0
C477 C 0.71451 0.19135 0.23678 0.0
C478 C 0.7321 0.20567 0.26953 0.0
C479 C 0.71538 0.20662 0.30116 0.0
C480 C 0.76747 0.21758 0.2724 0.0
C481 C 0.73108 0.1886 0.20242 0.0
C482 C 0.77844 0.20197 0.29676 0.0
C483 C 0.81148 0.21198 0.29892 0.0
C484 C 0.83436 0.238 0.27691 0.0
C485 C 0.82343 0.2542 0.25317 0.0
C486 C 0.79025 0.24404 0.25094 0.0
H487 H 0.71339 0.17166 0.18195 0.0
H488 H 0.74516 0.21288 0.18901 0.0
H489 H 0.74831 0.18007 0.2097 0.0
H490 H 0.7613 0.18158 0.31367 0.0
H491 H 0.819 0.19899 0.31757 0.0
H492 H 0.58191 0.46831 0.32955 0.0
H493 H 0.54912 0.40905 0.33521 0.0
H494 H 0.58066 0.39944 0.22621 0.0
H495 H 0.6139 0.45851 0.22075 0.0
H496 H 0.49909 0.36802 0.29518 0.0
H497 H 0.59459 0.33448 0.28291 0.0
H498 H 0.60393 0.37577 0.29029 0.0
H499 H 0.59536 0.35897 0.24436 0.0
C500 C 0.58198 0.45351 0.3069 0.0
C501 C 0.60063 0.46808 0.27478 0.0
C502 C 0.56333 0.41966 0.31021 0.0
C503 C 0.56286 0.39965 0.28145 0.0
C504 C 0.58138 0.4142 0.24929 0.0
H505 H 0.40745 0.20721 0.2338 0.0
H506 H 0.44737 0.26497 0.23604 0.0
C507 C 0.60027 0.44802 0.24612 0.0
C508 C 0.54134 0.36377 0.28398 0.0
H509 H 0.53969 0.29148 0.27364 0.0
C510 C 0.50809 0.35133 0.29085 0.0
C511 C 0.55304 0.34184 0.27894 0.0
C512 C 0.58874 0.35344 0.27412 0.0
C513 C 0.48611 0.31777 0.29154 0.0
C514 C 0.49749 0.29593 0.28417 0.0
C515 C 0.53089 0.30823 0.27868 0.0
C516 C 0.47486 0.26037 0.28119 0.0
C517 C 0.45089 0.30606 0.30041 0.0
C518 C 0.47796 0.23824 0.30454 0.0
C519 C 0.45529 0.20492 0.303 0.0
C520 C 0.42915 0.19323 0.27806 0.0
C521 C 0.427 0.21538 0.2537 0.0
C522 C 0.44971 0.2485 0.25508 0.0
H523 H 0.44807 0.32439 0.31639 0.0
H524 H 0.43723 0.30178 0.27414 0.0
H525 H 0.43979 0.28297 0.31661 0.0
H526 H 0.49739 0.24683 0.32465 0.0
H527 H 0.45772 0.1885 0.32204 0.0
H528 H 0.93275 0.47295 0.23593 0.0
H529 H 0.9027 0.50204 0.23002 0.0
H530 H 0.81228 0.41165 0.24069 0.0
H531 H 0.84219 0.38243 0.24828 0.0
H532 H 0.85738 0.49725 0.17921 0.0
H533 H 0.80315 0.46622 0.32086 0.0
H534 H 0.83567 0.45937 0.30685 0.0
H535 H 0.79475 0.43215 0.2923 0.0
C536 C 0.90648 0.45921 0.23737 0.0
C537 C 0.88999 0.42531 0.24297 0.0
C538 C 0.8893 0.47588 0.23367 0.0
C539 C 0.85522 0.45914 0.23547 0.0
C540 C 0.83857 0.4252 0.23991 0.0
H541 H 0.74072 0.56023 0.21002 0.0
H542 H 0.75392 0.51627 0.20673 0.0
C543 C 0.85576 0.40847 0.24376 0.0
C544 C 0.83749 0.47756 0.23319 0.0
H545 H 0.79045 0.4993 0.28365 0.0
C546 C 0.84236 0.4973 0.20183 0.0
C547 C 0.81795 0.47776 0.2628 0.0
C548 C 0.81268 0.45798 0.29777 0.0
C549 C 0.82904 0.51785 0.19976 0.0
C550 C 0.81034 0.51867 0.22973 0.0
C551 C 0.80446 0.49819 0.26053 0.0
C552 C 0.8012 0.5442 0.23195 0.0
C553 C 0.83618 0.53976 0.16636 0.0
C554 C 0.82329 0.57413 0.24736 0.0
C555 C 0.81591 0.59901 0.24934 0.0
C556 C 0.78615 0.59464 0.23591 0.0
C557 C 0.7638 0.56442 0.22064 0.0
C558 C 0.77128 0.53932 0.21872 0.0
H559 H 0.84815 0.53386 0.14368 0.0
H560 H 0.81335 0.5378 0.15572 0.0
H561 H 0.85239 0.56538 0.1746 0.0
H562 H 0.84649 0.57833 0.25768 0.0
H563 H 0.83383 0.62185 0.26127 0.0
H564 H 0.13207 0.55997 0.84684 0.0
H565 H 0.15913 0.61944 0.84357 0.0
H566 H 0.1899 0.61788 0.73151 0.0
H567 H 0.16268 0.55845 0.73437 0.0
H568 H 0.22911 0.66711 0.82337 0.0
H569 H 0.13694 0.66798 0.7286 0.0
H570 H 0.12861 0.63292 0.75662 0.0
H571 H 0.15379 0.64282 0.71604 0.0
C572 C 0.14453 0.57228 0.82148 0.0
C573 C 0.1451 0.55444 0.79083 0.0
C574 C 0.16016 0.60624 0.81975 0.0
C575 C 0.17636 0.62299 0.78725 0.0
C576 C 0.17741 0.60537 0.7568 0.0
H577 H 0.29157 0.83628 0.7579 0.0
H578 H 0.27489 0.77822 0.75633 0.0
C579 C 0.162 0.57144 0.75858 0.0
C580 C 0.19118 0.65882 0.78486 0.0
H581 H 0.18045 0.7187 0.74624 0.0
C582 C 0.2187 0.67848 0.80628 0.0
C583 C 0.1774 0.67347 0.76265 0.0
C584 C 0.14743 0.65336 0.73976 0.0
C585 C 0.23262 0.71249 0.80633 0.0
C586 C 0.21857 0.72706 0.78446 0.0
C587 C 0.1913 0.70741 0.76273 0.0
C588 C 0.22989 0.7623 0.7863 0.0
C589 C 0.26155 0.73262 0.83061 0.0
C590 C 0.21014 0.77245 0.80363 0.0
C591 C 0.21958 0.80534 0.80473 0.0
C592 C 0.24892 0.82894 0.78817 0.0
C593 C 0.26887 0.81876 0.77095 0.0
C594 C 0.25943 0.78565 0.7701 0.0
H595 H 0.26768 0.71736 0.84862 0.0
H596 H 0.28295 0.74837 0.81291 0.0
H597 H 0.25674 0.74873 0.84841 0.0
H598 H 0.18724 0.75481 0.81624 0.0
H599 H 0.20348 0.81216 0.81812 0.0
H600 H 0.40637 0.8458 0.78509 0.0
H601 H 0.44135 0.82179 0.78001 0.0
H602 H 0.52485 0.91708 0.76456 0.0
H603 H 0.49013 0.94134 0.76811 0.0
H604 H 0.48993 0.83548 0.71419 0.0
H605 H 0.54337 0.86822 0.85539 0.0
H606 H 0.50409 0.86339 0.84438 0.0
H607 H 0.54041 0.89899 0.82896 0.0
C608 C 0.43211 0.86171 0.78024 0.0
C609 C 0.44533 0.89561 0.77707 0.0
C610 C 0.45207 0.84791 0.77757 0.0
C611 C 0.48563 0.86771 0.77215 0.0
C612 C 0.49899 0.90145 0.76913 0.0
H613 H 0.65525 0.84772 0.75996 0.0
H614 H 0.61498 0.86496 0.76588 0.0
C615 C 0.47908 0.91527 0.77145 0.0
C616 C 0.50684 0.85325 0.76905 0.0
H617 H 0.56599 0.84616 0.81456 0.0
C618 C 0.50642 0.83751 0.73617 0.0
C619 C 0.52831 0.85616 0.79775 0.0
C620 C 0.52914 0.87242 0.8338 0.0
C621 C 0.52778 0.82546 0.73072 0.0
C622 C 0.54951 0.82853 0.7594 0.0
C623 C 0.54937 0.84378 0.79258 0.0
C624 C 0.57364 0.81751 0.75508 0.0
C625 C 0.52773 0.81077 0.69377 0.0
C626 C 0.56387 0.78498 0.74721 0.0
C627 C 0.58697 0.77505 0.74341 0.0
C628 C 0.62023 0.79739 0.748 0.0
C629 C 0.62985 0.82983 0.7563 0.0
C630 C 0.60682 0.83976 0.75973 0.0
H631 H 0.51611 0.81804 0.67184 0.0
H632 H 0.55283 0.81811 0.68472 0.0
H633 H 0.51379 0.78389 0.69637 0.0
H634 H 0.53836 0.76716 0.74442 0.0
H635 H 0.57873 0.74982 0.73743 0.0
H636 H 0.18975 0.45753 0.74143 0.0
H637 H 0.24677 0.50139 0.7384 0.0
H638 H 0.27467 0.44418 0.80609 0.0
H639 H 0.21829 0.40067 0.80947 0.0
H640 H 0.30371 0.51073 0.82731 0.0
H641 H 0.318 0.49608 0.67658 0.0
H642 H 0.28493 0.5021 0.68998 0.0
H643 H 0.2845 0.46548 0.70363 0.0
C644 C 0.20802 0.4544 0.75583 0.0
C645 C 0.19938 0.42544 0.77551 0.0
C646 C 0.24061 0.47942 0.75393 0.0
C647 C 0.26504 0.47592 0.77172 0.0
C648 C 0.25629 0.44743 0.7921 0.0
H649 H 0.46929 0.55419 0.74821 0.0
H650 H 0.41009 0.52286 0.75104 0.0
C651 C 0.22394 0.42249 0.79388 0.0
C652 C 0.29997 0.50125 0.76873 0.0
H653 H 0.36441 0.53436 0.70848 0.0
C654 C 0.31694 0.51628 0.80126 0.0
C655 C 0.31723 0.50816 0.73477 0.0
C656 C 0.30044 0.49204 0.69919 0.0
C657 C 0.35076 0.53748 0.80086 0.0
C658 C 0.36808 0.54395 0.76701 0.0
C659 C 0.35104 0.52948 0.73436 0.0
C660 C 0.40415 0.56367 0.76536 0.0
C661 C 0.36799 0.55176 0.83685 0.0
C662 C 0.42059 0.59716 0.77241 0.0
C663 C 0.45463 0.61537 0.77041 0.0
C664 C 0.47291 0.60043 0.76131 0.0
C665 C 0.45618 0.56677 0.75459 0.0
C666 C 0.42226 0.5487 0.75639 0.0
H667 H 0.35185 0.5405 0.86133 0.0
H668 H 0.3895 0.54858 0.83975 0.0
H669 H 0.37671 0.57822 0.83686 0.0
H670 H 0.40708 0.60929 0.779 0.0
H671 H 0.46654 0.64126 0.77527 0.0
H672 H 0.24591 0.23722 0.30503 0.0
H673 H 0.21115 0.26157 0.305 0.0
H674 H 0.12632 0.16625 0.3136 0.0
H675 H 0.16095 0.14171 0.31474 0.0
H676 H 0.16526 0.25129 0.25236 0.0
H677 H 0.10792 0.21689 0.39152 0.0
H678 H 0.1439 0.21506 0.37966 0.0
H679 H 0.10441 0.18288 0.36633 0.0
C680 C 0.2199 0.22144 0.30792 0.0
C681 C 0.20624 0.18747 0.31006 0.0
C682 C 0.20006 0.23542 0.30761 0.0
C683 C 0.16616 0.2158 0.30972 0.0
C684 C 0.15244 0.18194 0.31265 0.0
H685 H 1.00936 0.23329 0.22747 0.0
H686 H 0.05715 0.22782 0.23748 0.0
C687 C 0.17227 0.16791 0.3129 0.0
C688 C 0.14501 0.23042 0.30589 0.0
H689 H 0.08148 0.2332 0.3464 0.0
C690 C 0.14726 0.24774 0.27318 0.0
C691 C 0.12186 0.22627 0.33326 0.0
C692 C 0.11954 0.20955 0.36984 0.0
C693 C 0.12585 0.25948 0.26627 0.0
C694 C 0.10132 0.25343 0.29257 0.0
C695 C 0.10017 0.23766 0.32614 0.0
C696 C 0.07473 0.2603 0.28425 0.0
C697 C 0.12931 0.27777 0.23056 0.0
C698 C 0.06877 0.2806 0.30709 0.0
C699 C 0.04137 0.28392 0.30128 0.0
C700 C 0.01928 0.26649 0.27297 0.0
C701 C 0.02597 0.24708 0.24947 0.0
C702 C 0.05339 0.24404 0.25504 0.0
H703 H 0.15447 0.28911 0.21937 0.0
H704 H 0.11272 0.26057 0.20954 0.0
H705 H 0.12285 0.297 0.23457 0.0
H706 H 0.08483 0.29316 0.32998 0.0
H707 H 0.03658 0.29867 0.32014 0.0
H708 H 1.00847 0.86232 0.2144 0.0
H709 H 0.06668 0.89735 0.22419 0.0
H710 H 0.06263 0.83684 0.31631 0.0
H711 H 1.00461 0.8007 0.30557 0.0
H712 H 0.09906 0.93285 0.2827 0.0
H713 H 0.1366 0.84154 0.25556 0.0
H714 H 0.09653 0.83455 0.24481 0.0
H715 H 0.10661 0.8297 0.29163 0.0
C716 C 0.01998 0.85625 0.23654 0.0
C717 C 1.00187 0.82851 0.25898 0.0
C718 C 0.05325 0.87639 0.24221 0.0
C719 C 0.06916 0.86933 0.27046 0.0
C720 C 0.05102 0.8423 0.29374 0.0
H721 H 0.25782 0.01688 0.348 0.0
H722 H 0.20211 0.97125 0.34554 0.0
C723 C 1.01772 0.82198 0.28795 0.0
C724 C 0.10457 0.8909 0.27596 0.0
H725 H 0.17739 0.89266 0.27832 0.0
C726 C 0.11616 0.92404 0.28174 0.0
C727 C 0.12692 0.87943 0.27413 0.0
C728 C 0.11615 0.84443 0.26583 0.0
C729 C 0.14939 0.94604 0.28591 0.0
C730 C 0.17166 0.93444 0.28542 0.0
C731 C 0.1602 0.90136 0.27927 0.0
C732 C 0.20696 0.95681 0.29023 0.0
C733 C 0.16037 0.98169 0.28982 0.0
C734 C 0.22884 0.96208 0.26116 0.0
C735 C 0.261 0.98769 0.26294 0.0
C736 C 0.27135 1.00831 0.29369 0.0
C737 C 0.25022 1.00127 0.32397 0.0
C738 C 0.21839 0.97544 0.32246 0.0
H739 H 0.1417 0.98744 0.27972 0.0
H740 H 0.16477 0.98833 0.31954 0.0
H741 H 0.18329 0.99704 0.27423 0.0
H742 H 0.2205 0.94781 0.23613 0.0
H743 H 0.27686 0.99296 0.23914 0.0
H744 H 0.8723 0.02195 0.2804 0.0
H745 H 0.84902 0.96316 0.27954 0.0
H746 H 0.77946 0.95538 0.19759 0.0
H747 H 0.80359 0.01452 0.19699 0.0
H748 H 0.78609 0.91737 0.2983 0.0
H749 H 0.81387 0.89993 0.15321 0.0
H750 H 0.83304 0.93927 0.17482 0.0
H751 H 0.79211 0.92159 0.15811 0.0
C752 C 0.85264 1.00794 0.26139 0.0
C753 C 0.84 0.02313 0.23858 0.0
C754 C 0.83909 0.97422 0.26128 0.0
C755 C 0.81261 0.95486 0.23838 0.0
C756 C 0.80017 0.96985 0.21511 0.0
H757 H 0.72098 0.74144 0.21979 0.0
H758 H 0.72537 0.79541 0.21826 0.0
C759 C 0.81383 1.00367 0.21507 0.0
C760 C 0.79751 0.91895 0.24019 0.0
H761 H 0.78478 0.85288 0.19023 0.0
C762 C 0.78556 0.90324 0.27457 0.0
C763 C 0.79651 0.90046 0.20913 0.0
C764 C 0.80977 0.9161 0.17177 0.0
C765 C 0.77371 0.8698 0.27902 0.0
C766 C 0.77399 0.85162 0.24839 0.0
C767 C 0.78443 0.86692 0.2136 0.0
C768 C 0.76807 0.81808 0.25298 0.0
C769 C 0.76171 0.85426 0.31669 0.0
C770 C 0.79031 0.81302 0.27336 0.0
C771 C 0.78803 0.78263 0.27391 0.0
C772 C 0.7633 0.75659 0.25438 0.0
C773 C 0.73997 0.76109 0.23547 0.0
C774 C 0.74259 0.79184 0.2344 0.0
H775 H 0.7543 0.86869 0.33407 0.0
H776 H 0.74079 0.82921 0.31414 0.0
H777 H 0.78154 0.85284 0.33125 0.0
H778 H 0.8104 0.83302 0.28742 0.0
H779 H 0.80636 0.77975 0.2886 0.0
H780 H 0.18482 0.19157 0.84778 0.0
H781 H 0.21094 0.15843 0.85365 0.0
H782 H 0.22903 0.16705 0.73571 0.0
H783 H 0.20413 0.20097 0.72979 0.0
H784 H 0.19225 0.1002 0.82174 0.0
H785 H 0.31718 0.18859 0.77588 0.0
H786 H 0.28803 0.20068 0.78874 0.0
H787 H 0.28745 0.18548 0.74301 0.0
C788 C 0.19474 0.18674 0.82318 0.0
C789 C 0.19226 0.19883 0.78829 0.0
C790 C 0.20962 0.16779 0.82658 0.0
C791 C 0.22255 0.16085 0.79523 0.0
C792 C 0.21998 0.17277 0.76042 0.0
H793 H 0.2404 1.00138 0.73391 0.0
H794 H 0.23343 0.04852 0.74128 0.0
C795 C 0.20517 0.19168 0.757 0.0
C796 C 0.23646 0.13907 0.79817 0.0
H797 H 0.30178 0.13179 0.7724 0.0
C798 C 0.21645 0.10735 0.81167 0.0
C799 C 0.26819 0.14847 0.78538 0.0
C800 C 0.29157 0.18279 0.77281 0.0
C801 C 0.22653 0.08423 0.81056 0.0
C802 C 0.25727 0.093 0.79527 0.0
C803 C 0.27811 0.12515 0.78379 0.0
C804 C 0.26625 0.06799 0.78768 0.0
C805 C 0.20374 0.05015 0.82441 0.0
C806 C 0.28824 0.06427 0.81033 0.0
C807 C 0.29245 0.03727 0.80606 0.0
C808 C 0.27451 0.01378 0.77923 0.0
C809 C 0.25427 0.01894 0.75507 0.0
C810 C 0.25026 0.04582 0.75921 0.0
H811 H 0.18437 0.0491 0.84262 0.0
H812 H 0.19197 0.03412 0.80034 0.0
H813 H 0.21725 0.04041 0.83998 0.0
H814 H 0.30081 0.08128 0.83242 0.0
H815 H 0.30802 0.03371 0.82517 0.0
H816 H 0.02242 0.82145 0.82949 0.0
H817 H 0.96319 0.79431 0.82715 0.0
H818 H 0.96775 0.80605 0.70809 0.0
H819 H 0.02716 0.8328 0.71024 0.0
H820 H 0.92632 0.81827 0.80444 0.0
H821 H 0.899 0.71188 0.71842 0.0
H822 H 0.93853 0.73742 0.73843 0.0
H823 H 0.92722 0.74941 0.69599 0.0
C824 C 1.01081 0.81828 0.80278 0.0
C825 C 0.02945 0.82942 0.77003 0.0
C826 C 0.97693 0.80255 0.80148 0.0
C827 C 0.96092 0.79759 0.76742 0.0
C828 C 0.97947 0.80873 0.73462 0.0
H829 H 0.78185 0.7671 0.68974 0.0
H830 H 0.83426 0.77039 0.69906 0.0
C831 C 1.01343 0.82424 0.73588 0.0
C832 C 0.92502 0.78286 0.76657 0.0
H833 H 0.85613 0.72465 0.72459 0.0
C834 C 0.91091 0.79741 0.78753 0.0
C835 C 0.90485 0.75551 0.74464 0.0
C836 C 0.91814 0.73744 0.72341 0.0
C837 C 0.87752 0.78648 0.7857 0.0
C838 C 0.85764 0.76009 0.76251 0.0
C839 C 0.87146 0.74478 0.74249 0.0
C840 C 0.82356 0.75121 0.75511 0.0
C841 C 0.864 0.80431 0.80707 0.0
C842 C 0.79958 0.73782 0.783 0.0
C843 C 0.76928 0.73555 0.77756 0.0
C844 C 0.76295 0.74701 0.74434 0.0
C845 C 0.78617 0.75815 0.71563 0.0
C846 C 0.81611 0.76003 0.72089 0.0
H847 H 0.88338 0.82665 0.82027 0.0
H848 H 0.84971 0.81114 0.78845 0.0
H849 H 0.84741 0.78812 0.82919 0.0
H850 H 0.80491 0.73075 0.80956 0.0
H851 H 0.75188 0.72718 0.8002 0.0
H852 H 0.0351 0.23555 0.8123 0.0
H853 H 0.98417 0.18391 0.81375 0.0
H854 H 0.93331 0.23129 0.77167 0.0
H855 H 0.98472 0.28368 0.77032 0.0
H856 H 0.91928 0.16581 0.84908 0.0
H857 H 0.91985 0.15738 0.69487 0.0
H858 H 0.95641 0.18371 0.72011 0.0
H859 H 0.92509 0.19404 0.71563 0.0
C860 C 1.01305 0.23514 0.80369 0.0
C861 C 1.01392 0.2636 0.79084 0.0
C862 C 0.98394 0.20561 0.80471 0.0
C863 C 0.95507 0.20373 0.79253 0.0
C864 C 0.95544 0.23227 0.78102 0.0
H865 H 0.79028 0.01232 0.73668 0.0
H866 H 0.82129 0.07102 0.74673 0.0
C867 C 0.98471 0.26214 0.78043 0.0
C868 C 0.92547 0.17128 0.78983 0.0
H869 H 0.88302 0.11066 0.72795 0.0
C870 C 0.91086 0.15388 0.82259 0.0
C871 C 0.9145 0.15584 0.75525 0.0
C872 C 0.92968 0.17347 0.71931 0.0
C873 C 0.88634 0.12104 0.82175 0.0
C874 C 0.87689 0.10492 0.78727 0.0
C875 C 0.8903 0.12289 0.75441 0.0
C876 C 0.85555 0.06902 0.78467 0.0
C877 C 0.87117 0.10391 0.8579 0.0
C878 C 0.86421 0.0482 0.80287 0.0
C879 C 0.84633 0.01464 0.79751 0.0
C880 C 0.81959 1.00102 0.77335 0.0
C881 C 0.81044 0.02184 0.75585 0.0
C882 C 0.8283 0.05548 0.76136 0.0
H883 H 0.87165 0.12123 0.87874 0.0
H884 H 0.84562 0.08429 0.85409 0.0
H885 H 0.88531 0.09303 0.86931 0.0
H886 H 0.88554 0.05798 0.82028 0.0
H887 H 0.85392 0.99939 0.81176 0.0
loop_
_geom_bond_atom_site_label_1
_geom_bond_atom_site_label_2
_geom_bond_distance
_geom_bond_site_symmetry_2
_ccdc_geom_bond_type
Tb0 C9 2.764 . S
Tb0 O10 2.325 . S
Tb0 O13 2.303 . S
Tb0 O17 2.322 . S
Tb0 O18 2.349 . S
Tb0 O21 2.415 . S
Tb0 O22 2.399 . S
Tb1 O11 2.322 . S
Tb1 O12 2.349 . S
Tb1 O14 2.415 . S
Tb1 O15 2.399 . S
Tb1 O16 2.325 . S
Tb1 O19 2.303 . S
Tb1 C30 2.764 . S
C2 O18 1.261 . S
C2 O19 1.257 . S
C3 C6 1.358 . S
C3 C7 1.332 . S
C3 C9 1.504 . S
C4 C5 1.373 . S
C4 C8 1.308 . S
C5 C4 1.373 . S
C5 C6 1.429 . S
C5 H32 0.932 . S
C6 C3 1.358 . S
C6 C5 1.429 . S
C6 H33 0.930 . S
C7 C3 1.332 . S
C7 C8 1.394 . S
C7 H34 0.932 . S
C8 C4 1.308 . S
C8 C7 1.394 . S
C8 H35 0.929 . S
C9 Tb0 2.764 . S
C9 C3 1.504 . S
C9 O21 1.239 . S
C9 O22 1.263 . S
O10 Tb0 2.325 . S
O10 C20 1.236 . S
O11 Tb1 2.322 . S
O11 C20 1.257 . S
O12 Tb1 2.349 . S
O12 C23 1.261 . S
O13 Tb0 2.303 . S
O13 C23 1.257 . S
O14 Tb1 2.415 . S
O14 C30 1.239 . S
O15 Tb1 2.399 . S
O15 C30 1.263 . S
O16 Tb1 2.325 . S
O16 C31 1.236 . S
O17 Tb0 2.322 . S
O17 C31 1.257 . S
O18 Tb0 2.349 . S
O18 C2 1.261 . S
O19 Tb1 2.303 . S
O19 C2 1.257 . S
C20 O10 1.236 . S
C20 O11 1.257 . S
O21 Tb0 2.415 . S
O21 C9 1.239 . S
O22 Tb0 2.399 . S
O22 C9 1.263 . S
C23 O12 1.261 . S
C23 O13 1.257 . S
C24 C27 1.358 . S
C24 C28 1.332 . S
C24 C30 1.504 . S
C25 C26 1.373 . S
C25 C29 1.308 . S
C26 C25 1.373 . S
C26 C27 1.429 . S
C26 H36 0.932 . S
C27 C24 1.358 . S
C27 C26 1.429 . S
C27 H37 0.930 . S
C28 C24 1.332 . S
C28 C29 1.394 . S
C28 H38 0.932 . S
C29 C25 1.308 . S
C29 C28 1.394 . S
C29 H39 0.929 . S
C30 Tb1 2.764 . S
C30 O14 1.239 . S
C30 O15 1.263 . S
C30 C24 1.504 . S
C31 O16 1.236 . S
C31 O17 1.257 . S
H32 C5 0.932 . S
H33 C6 0.930 . S
H34 C7 0.932 . S
H35 C8 0.929 . S
H36 C26 0.932 . S
H37 C27 0.930 . S
H38 C28 0.932 . S
H39 C29 0.929 . S
Tb40 C49 2.764 . S
Tb40 O50 2.325 . S
Tb40 O53 2.303 . S
Tb40 O57 2.322 . S
Tb40 O58 2.349 . S
Tb40 O61 2.415 . S
Tb40 O62 2.399 . S
Tb41 O51 2.322 . S
Tb41 O52 2.349 . S
Tb41 O54 2.415 . S
Tb41 O55 2.399 . S
Tb41 O56 2.325 . S
Tb41 O59 2.303 . S
Tb41 C70 2.764 . S
C42 O58 1.261 . S
C42 O59 1.257 . S
C43 C46 1.358 . S
C43 C47 1.332 . S
C43 C49 1.504 . S
C44 C45 1.373 . S
C44 C48 1.308 . S
C45 C44 1.373 . S
C45 C46 1.429 . S
C45 H72 0.932 . S
C46 C43 1.358 . S
C46 C45 1.429 . S
C46 H73 0.930 . S
C47 C43 1.332 . S
C47 C48 1.394 . S
C47 H74 0.932 . S
C48 C44 1.308 . S
C48 C47 1.394 . S
C48 H75 0.929 . S
C49 Tb40 2.764 . S
C49 C43 1.504 . S
C49 O61 1.239 . S
C49 O62 1.263 . S
O50 Tb40 2.325 . S
O50 C60 1.236 . S
O51 Tb41 2.322 . S
O51 C60 1.257 . S
O52 Tb41 2.349 . S
O52 C63 1.261 . S
O53 Tb40 2.303 . S
O53 C63 1.257 . S
O54 Tb41 2.415 . S
O54 C70 1.239 . S
O55 Tb41 2.399 . S
O55 C70 1.263 . S
O56 Tb41 2.325 . S
O56 C71 1.236 . S
O57 Tb40 2.322 . S
O57 C71 1.257 . S
O58 Tb40 2.349 . S
O58 C42 1.261 . S
O59 Tb41 2.303 . S
O59 C42 1.257 . S
C60 O50 1.236 . S
C60 O51 1.257 . S
O61 Tb40 2.415 . S
O61 C49 1.239 . S
O62 Tb40 2.399 . S
O62 C49 1.263 . S
C63 O52 1.261 . S
C63 O53 1.257 . S
C64 C67 1.358 . S
C64 C68 1.332 . S
C64 C70 1.504 . S
C65 C66 1.373 . S
C65 C69 1.308 . S
C66 C65 1.373 . S
C66 C67 1.429 . S
C66 H76 0.932 . S
C67 C64 1.358 . S
C67 C66 1.429 . S
C67 H77 0.930 . S
C68 C64 1.332 . S
C68 C69 1.394 . S
C68 H78 0.932 . S
C69 C65 1.308 . S
C69 C68 1.394 . S
C69 H79 0.929 . S
C70 Tb41 2.764 . S
C70 O54 1.239 . S
C70 O55 1.263 . S
C70 C64 1.504 . S
C71 O56 1.236 . S
C71 O57 1.257 . S
H72 C45 0.932 . S
H73 C46 0.930 . S
H74 C47 0.932 . S
H75 C48 0.929 . S
H76 C66 0.932 . S
H77 C67 0.930 . S
H78 C68 0.932 . S
H79 C69 0.929 . S
Tb80 C89 2.764 . S
Tb80 O90 2.325 . S
Tb80 O93 2.303 . S
Tb80 O97 2.322 . S
Tb80 O98 2.349 . S
Tb80 O101 2.415 . S
Tb80 O102 2.399 . S
Tb81 O91 2.322 . S
Tb81 O92 2.349 . S
Tb81 O94 2.415 . S
Tb81 O95 2.399 . S
Tb81 O96 2.325 . S
Tb81 O99 2.303 . S
Tb81 C110 2.764 . S
C82 O98 1.261 . S
C82 O99 1.257 . S
C83 C86 1.358 . S
C83 C87 1.332 . S
C83 C89 1.504 . S
C84 C85 1.373 . S
C84 C88 1.308 . S
C85 C84 1.373 . S
C85 C86 1.429 . S
C85 H112 0.932 . S
C86 C83 1.358 . S
C86 C85 1.429 . S
C86 H113 0.930 . S
C87 C83 1.332 . S
C87 C88 1.394 . S
C87 H114 0.932 . S
C88 C84 1.308 . S
C88 C87 1.394 . S
C88 H115 0.929 . S
C89 Tb80 2.764 . S
C89 C83 1.504 . S
C89 O101 1.239 . S
C89 O102 1.263 . S
O90 Tb80 2.325 . S
O90 C100 1.236 . S
O91 Tb81 2.322 . S
O91 C100 1.257 . S
O92 Tb81 2.349 . S
O92 C103 1.261 . S
O93 Tb80 2.303 . S
O93 C103 1.257 . S
O94 Tb81 2.415 . S
O94 C110 1.239 . S
O95 Tb81 2.399 . S
O95 C110 1.263 . S
O96 Tb81 2.325 . S
O96 C111 1.236 . S
O97 Tb80 2.322 . S
O97 C111 1.257 . S
O98 Tb80 2.349 . S
O98 C82 1.261 . S
O99 Tb81 2.303 . S
O99 C82 1.257 . S
C100 O90 1.236 . S
C100 O91 1.257 . S
O101 Tb80 2.415 . S
O101 C89 1.239 . S
O102 Tb80 2.399 . S
O102 C89 1.263 . S
C103 O92 1.261 . S
C103 O93 1.257 . S
C104 C107 1.358 . S
C104 C108 1.332 . S
C104 C110 1.504 . S
C105 C106 1.373 . S
C105 C109 1.308 . S
C106 C105 1.373 . S
C106 C107 1.429 . S
C106 H116 0.932 . S
C107 C104 1.358 . S
C107 C106 1.429 . S
C107 H117 0.930 . S
C108 C104 1.332 . S
C108 C109 1.394 . S
C108 H118 0.932 . S
C109 C105 1.308 . S
C109 C108 1.394 . S
C109 H119 0.929 . S
C110 Tb81 2.764 . S
C110 O94 1.239 . S
C110 O95 1.263 . S
C110 C104 1.504 . S
C111 O96 1.236 . S
C111 O97 1.257 . S
H112 C85 0.932 . S
H113 C86 0.930 . S
H114 C87 0.932 . S
H115 C88 0.929 . S
H116 C106 0.932 . S
H117 C107 0.930 . S
H118 C108 0.932 . S
H119 C109 0.929 . S
Tb120 C129 2.764 . S
Tb120 O130 2.325 . S
Tb120 O133 2.303 . S
Tb120 O137 2.322 . S
Tb120 O138 2.349 . S
Tb120 O141 2.415 . S
Tb120 O142 2.399 . S
Tb121 O131 2.322 . S
Tb121 O132 2.349 . S
Tb121 O134 2.415 . S
Tb121 O135 2.399 . S
Tb121 O136 2.325 . S
Tb121 O139 2.303 . S
Tb121 C150 2.764 . S
C122 O138 1.261 . S
C122 O139 1.257 . S
C123 C126 1.358 . S
C123 C127 1.332 . S
C123 C129 1.504 . S
C124 C125 1.373 . S
C124 C128 1.308 . S
C125 C124 1.373 . S
C125 C126 1.429 . S
C125 H152 0.932 . S
C126 C123 1.358 . S
C126 C125 1.429 . S
C126 H153 0.930 . S
C127 C123 1.332 . S
C127 C128 1.394 . S
C127 H154 0.932 . S
C128 C124 1.308 . S
C128 C127 1.394 . S
C128 H155 0.929 . S
C129 Tb120 2.764 . S
C129 C123 1.504 . S
C129 O141 1.239 . S
C129 O142 1.263 . S
O130 Tb120 2.325 . S
O130 C140 1.236 . S
O131 Tb121 2.322 . S
O131 C140 1.257 . S
O132 Tb121 2.349 . S
O132 C143 1.261 . S
O133 Tb120 2.303 . S
O133 C143 1.257 . S
O134 Tb121 2.415 . S
O134 C150 1.239 . S
O135 Tb121 2.399 . S
O135 C150 1.263 . S
O136 Tb121 2.325 . S
O136 C151 1.236 . S
O137 Tb120 2.322 . S
O137 C151 1.257 . S
O138 Tb120 2.349 . S
O138 C122 1.261 . S
O139 Tb121 2.303 . S
O139 C122 1.257 . S
C140 O130 1.236 . S
C140 O131 1.257 . S
O141 Tb120 2.415 . S
O141 C129 1.239 . S
O142 Tb120 2.399 . S
O142 C129 1.263 . S
C143 O132 1.261 . S
C143 O133 1.257 . S
C144 C147 1.358 . S
C144 C148 1.332 . S
C144 C150 1.504 . S
C145 C146 1.373 . S
C145 C149 1.308 . S
C146 C145 1.373 . S
C146 C147 1.429 . S
C146 H156 0.932 . S
C147 C144 1.358 . S
C147 C146 1.429 . S
C147 H157 0.930 . S
C148 C144 1.332 . S
C148 C149 1.394 . S
C148 H158 0.932 . S
C149 C145 1.308 . S
C149 C148 1.394 . S
C149 H159 0.929 . S
C150 Tb121 2.764 . S
C150 O134 1.239 . S
C150 O135 1.263 . S
C150 C144 1.504 . S
C151 O136 1.236 . S
C151 O137 1.257 . S
H152 C125 0.932 . S
H153 C126 0.930 . S
H154 C127 0.932 . S
H155 C128 0.929 . S
H156 C146 0.932 . S
H157 C147 0.930 . S
H158 C148 0.932 . S
H159 C149 0.929 . S
Tb160 C169 2.764 . S
Tb160 O170 2.325 . S
Tb160 O173 2.303 . S
Tb160 O177 2.322 . S
Tb160 O178 2.349 . S
Tb160 O181 2.415 . S
Tb160 O182 2.399 . S
Tb161 O171 2.322 . S
Tb161 O172 2.349 . S
Tb161 O174 2.415 . S
Tb161 O175 2.399 . S
Tb161 O176 2.325 . S
Tb161 O179 2.303 . S
Tb161 C190 2.764 . S
C162 O178 1.261 . S
C162 O179 1.257 . S
C163 C166 1.358 . S
C163 C167 1.332 . S
C163 C169 1.504 . S
C164 C165 1.373 . S
C164 C168 1.308 . S
C165 C164 1.373 . S
C165 C166 1.429 . S
C165 H192 0.932 . S
C166 C163 1.358 . S
C166 C165 1.429 . S
C166 H193 0.930 . S
C167 C163 1.332 . S
C167 C168 1.394 . S
C167 H194 0.932 . S
C168 C164 1.308 . S
C168 C167 1.394 . S
C168 H195 0.929 . S
C169 Tb160 2.764 . S
C169 C163 1.504 . S
C169 O181 1.239 . S
C169 O182 1.263 . S
O170 Tb160 2.325 . S
O170 C180 1.236 . S
O171 Tb161 2.322 . S
O171 C180 1.257 . S
O172 Tb161 2.349 . S
O172 C183 1.261 . S
O173 Tb160 2.303 . S
O173 C183 1.257 . S
O174 Tb161 2.415 . S
O174 C190 1.239 . S
O175 Tb161 2.399 . S
O175 C190 1.263 . S
O176 Tb161 2.325 . S
O176 C191 1.236 . S
O177 Tb160 2.322 . S
O177 C191 1.257 . S
O178 Tb160 2.349 . S
O178 C162 1.261 . S
O179 Tb161 2.303 . S
O179 C162 1.257 . S
C180 O170 1.236 . S
C180 O171 1.257 . S
O181 Tb160 2.415 . S
O181 C169 1.239 . S
O182 Tb160 2.399 . S
O182 C169 1.263 . S
C183 O172 1.261 . S
C183 O173 1.257 . S
C184 C187 1.358 . S
C184 C188 1.332 . S
C184 C190 1.504 . S
C185 C186 1.373 . S
C185 C189 1.308 . S
C186 C185 1.373 . S
C186 C187 1.429 . S
C186 H196 0.932 . S
C187 C184 1.358 . S
C187 C186 1.429 . S
C187 H197 0.930 . S
C188 C184 1.332 . S
C188 C189 1.394 . S
C188 H198 0.932 . S
C189 C185 1.308 . S
C189 C188 1.394 . S
C189 H199 0.929 . S
C190 Tb161 2.764 . S
C190 O174 1.239 . S
C190 O175 1.263 . S
C190 C184 1.504 . S
C191 O176 1.236 . S
C191 O177 1.257 . S
H192 C165 0.932 . S
H193 C166 0.930 . S
H194 C167 0.932 . S
H195 C168 0.929 . S
H196 C186 0.932 . S
H197 C187 0.930 . S
H198 C188 0.932 . S
H199 C189 0.929 . S
Tb200 C209 2.764 . S
Tb200 O210 2.325 . S
Tb200 O213 2.303 . S
Tb200 O217 2.322 . S
Tb200 O218 2.349 . S
Tb200 O221 2.415 . S
Tb200 O222 2.399 . S
Tb201 O211 2.322 . S
Tb201 O212 2.349 . S
Tb201 O214 2.415 . S
Tb201 O215 2.399 . S
Tb201 O216 2.325 . S
Tb201 O219 2.303 . S
Tb201 C230 2.764 . S
C202 O218 1.261 . S
C202 O219 1.257 . S
C203 C206 1.358 . S
C203 C207 1.332 . S
C203 C209 1.504 . S
C204 C205 1.373 . S
C204 C208 1.308 . S
C205 C204 1.373 . S
C205 C206 1.429 . S
C205 H232 0.932 . S
C206 C203 1.358 . S
C206 C205 1.429 . S
C206 H233 0.930 . S
C207 C203 1.332 . S
C207 C208 1.394 . S
C207 H234 0.932 . S
C208 C204 1.308 . S
C208 C207 1.394 . S
C208 H235 0.929 . S
C209 Tb200 2.764 . S
C209 C203 1.504 . S
C209 O221 1.239 . S
C209 O222 1.263 . S
O210 Tb200 2.325 . S
O210 C220 1.236 . S
O211 Tb201 2.322 . S
O211 C220 1.257 . S
O212 Tb201 2.349 . S
O212 C223 1.261 . S
O213 Tb200 2.303 . S
O213 C223 1.257 . S
O214 Tb201 2.415 . S
O214 C230 1.239 . S
O215 Tb201 2.399 . S
O215 C230 1.263 . S
O216 Tb201 2.325 . S
O216 C231 1.236 . S
O217 Tb200 2.322 . S
O217 C231 1.257 . S
O218 Tb200 2.349 . S
O218 C202 1.261 . S
O219 Tb201 2.303 . S
O219 C202 1.257 . S
C220 O210 1.236 . S
C220 O211 1.257 . S
O221 Tb200 2.415 . S
O221 C209 1.239 . S
O222 Tb200 2.399 . S
O222 C209 1.263 . S
C223 O212 1.261 . S
C223 O213 1.257 . S
C224 C227 1.358 . S
C224 C228 1.332 . S
C224 C230 1.504 . S
C225 C226 1.373 . S
C225 C229 1.308 . S
C226 C225 1.373 . S
C226 C227 1.429 . S
C226 H236 0.932 . S
C227 C224 1.358 . S
C227 C226 1.429 . S
C227 H237 0.930 . S
C228 C224 1.332 . S
C228 C229 1.394 . S
C228 H238 0.932 . S
C229 C225 1.308 . S
C229 C228 1.394 . S
C229 H239 0.929 . S
C230 Tb201 2.764 . S
C230 O214 1.239 . S
C230 O215 1.263 . S
C230 C224 1.504 . S
C231 O216 1.236 . S
C231 O217 1.257 . S
H232 C205 0.932 . S
H233 C206 0.930 . S
H234 C207 0.932 . S
H235 C208 0.929 . S
H236 C226 0.932 . S
H237 C227 0.930 . S
H238 C228 0.932 . S
H239 C229 0.929 . S
H240 C248 0.929 . S
H241 C250 0.930 . S
H242 C252 0.930 . S
H243 C255 0.929 . S
H244 C258 0.930 . S
H245 C260 0.960 1_545 S
H246 C260 0.960 . S
H247 C260 0.960 1_545 S
C248 H240 0.929 . S
C248 C249 1.377 . S
C248 C250 1.384 . S
C249 C248 1.377 . S
C249 C255 1.390 . S
C250 H241 0.930 . S
C250 C248 1.384 . S
C250 C251 1.372 . S
C251 C250 1.372 . S
C251 C252 1.400 . S
C251 C256 1.490 . S
C252 H242 0.930 . S
C252 C251 1.400 . S
C252 C255 1.386 . S
H253 C269 0.930 . S
H254 C270 0.931 . S
C255 H243 0.929 . S
C255 C249 1.390 . S
C255 C252 1.386 . S
C256 C251 1.490 . S
C256 C258 1.395 . S
C256 C259 1.412 . S
H257 C263 0.930 . S
C258 H244 0.930 . S
C258 C256 1.395 . S
C258 C261 1.403 1_566 S
C259 C256 1.412 . S
C259 C260 1.519 . S
C259 C263 1.395 1_566 S
C260 H245 0.960 1_565 S
C260 H246 0.960 . S
C260 H247 0.960 1_565 S
C260 C259 1.519 . S
C261 C258 1.403 1_544 S
C261 C262 1.392 . S
C261 C265 1.495 . S
C262 C261 1.392 . S
C262 C263 1.385 . S
C262 C264 1.478 . S
C263 H257 0.930 . S
C263 C259 1.395 1_544 S
C263 C262 1.385 . S
C264 C262 1.478 . S
C264 C266 1.381 . S
C264 C270 1.383 . S
C265 C261 1.495 . S
C265 H271 0.959 1_545 S
C265 H272 0.961 . S
C265 H273 0.960 1_545 S
C266 C264 1.381 . S
C266 C267 1.394 . S
C266 H274 0.930 . S
C267 C266 1.394 . S
C267 C268 1.383 . S
C267 H275 0.929 . S
C268 C267 1.383 . S
C268 C269 1.377 . S
C269 H253 0.930 . S
C269 C268 1.377 . S
C269 C270 1.379 . S
C270 H254 0.931 . S
C270 C264 1.383 . S
C270 C269 1.379 . S
H271 C265 0.959 1_565 S
H272 C265 0.961 . S
H273 C265 0.960 1_565 S
H274 C266 0.930 . S
H275 C267 0.929 . S
H276 C284 0.929 . S
H277 C286 0.930 . S
H278 C288 0.930 . S
H279 C291 0.929 . S
H280 C294 0.930 . S
H281 C296 0.960 . S
H282 C296 0.960 . S
H283 C296 0.960 . S
C284 H276 0.929 . S
C284 C285 1.377 . S
C284 C286 1.384 . S
C285 C284 1.377 . S
C285 C291 1.390 . S
C286 H277 0.930 . S
C286 C284 1.384 . S
C286 C287 1.372 . S
C287 C286 1.372 . S
C287 C288 1.400 . S
C287 C292 1.490 . S
C288 H278 0.930 . S
C288 C287 1.400 . S
C288 C291 1.386 . S
H289 C305 0.930 . S
H290 C306 0.931 . S
C291 H279 0.929 . S
C291 C285 1.390 . S
C291 C288 1.386 . S
C292 C287 1.490 . S
C292 C294 1.395 . S
C292 C295 1.403 . S
H293 C299 0.930 . S
C294 H280 0.930 . S
C294 C292 1.395 . S
C294 C297 1.403 . S
C295 C292 1.403 . S
C295 C296 1.524 . S
C295 C299 1.400 . S
C296 H281 0.960 . S
C296 H282 0.960 . S
C296 H283 0.960 . S
C296 C295 1.524 . S
C297 C294 1.403 . S
C297 C298 1.392 . S
C297 C301 1.495 . S
C298 C297 1.392 . S
C298 C299 1.385 . S
C298 C300 1.478 . S
C299 H293 0.930 . S
C299 C295 1.400 . S
C299 C298 1.385 . S
C300 C298 1.478 . S
C300 C302 1.381 . S
C300 C306 1.383 . S
C301 C297 1.495 . S
C301 H307 0.959 . S
C301 H308 0.961 . S
C301 H309 0.960 . S
C302 C300 1.381 . S
C302 C303 1.394 . S
C302 H310 0.930 . S
C303 C302 1.394 . S
C303 C304 1.383 . S
C303 H311 0.929 . S
C304 C303 1.383 . S
C304 C305 1.377 . S
C305 H289 0.930 . S
C305 C304 1.377 . S
C305 C306 1.379 . S
C306 H290 0.931 . S
C306 C300 1.383 . S
C306 C305 1.379 . S
H307 C301 0.959 . S
H308 C301 0.961 . S
H309 C301 0.960 . S
H310 C302 0.930 . S
H311 C303 0.929 . S
H312 C320 0.929 . S
H313 C322 0.930 . S
H314 C324 0.930 . S
H315 C327 0.929 . S
H316 C330 0.930 . S
H317 C332 0.960 . S
H318 C332 0.960 1_554 S
H319 C332 0.967 . S
C320 H312 0.929 . S
C320 C321 1.377 . S
C320 C322 1.384 . S
C321 C320 1.377 . S
C321 C327 1.390 . S
C322 H313 0.930 . S
C322 C320 1.384 . S
C322 C323 1.372 . S
C323 C322 1.372 . S
C323 C324 1.400 . S
C323 C328 1.490 . S
C324 H314 0.930 . S
C324 C323 1.400 . S
C324 C327 1.386 . S
H325 C341 0.930 . S
H326 C342 0.931 . S
C327 H315 0.929 . S
C327 C321 1.390 . S
C327 C324 1.386 . S
C328 C323 1.490 . S
C328 C330 1.395 1_655 S
C328 C331 1.403 1_554 S
H329 C335 0.930 . S
C330 H316 0.930 . S
C330 C328 1.395 1_455 S
C330 C333 1.403 . S
C331 C328 1.403 1_556 S
C331 C332 1.524 . S
C331 C335 1.400 . S
C332 H317 0.960 . S
C332 H318 0.960 1_556 S
C332 H319 0.967 . S
C332 C331 1.524 . S
C333 C330 1.403 . S
C333 C334 1.392 1_554 S
C333 C337 1.495 . S
C334 C333 1.392 1_556 S
C334 C335 1.385 1_455 S
C334 C336 1.478 . S
C335 H329 0.930 . S
C335 C331 1.400 . S
C335 C334 1.385 1_655 S
C336 C334 1.478 . S
C336 C338 1.381 . S
C336 C342 1.383 . S
C337 C333 1.495 . S
C337 H343 0.959 . S
C337 H344 0.961 1_554 S
C337 H345 0.960 . S
C338 C336 1.381 . S
C338 C339 1.394 . S
C338 H346 0.930 . S
C339 C338 1.394 . S
C339 C340 1.383 . S
C339 H347 0.929 . S
C340 C339 1.383 . S
C340 C341 1.377 . S
C341 H325 0.930 . S
C341 C340 1.377 . S
C341 C342 1.379 . S
C342 H326 0.931 . S
C342 C336 1.383 . S
C342 C341 1.379 . S
H343 C337 0.959 . S
H344 C337 0.961 1_556 S
H345 C337 0.960 . S
H346 C338 0.930 . S
H347 C339 0.929 . S
H348 C356 0.929 . S
H349 C358 0.930 . S
H350 C360 0.930 . S
H351 C363 0.929 . S
H352 C366 0.930 . S
H353 C368 0.960 . S
H354 C368 0.960 . S
H355 C368 0.960 . S
C356 H348 0.929 . S
C356 C357 1.377 . S
C356 C358 1.384 . S
C357 C356 1.377 . S
C357 C363 1.390 . S
C358 H349 0.930 . S
C358 C356 1.384 . S
C358 C359 1.372 . S
C359 C358 1.372 . S
C359 C360 1.400 . S
C359 C364 1.490 . S
C360 H350 0.930 . S
C360 C359 1.400 . S
C360 C363 1.386 . S
H361 C377 0.930 . S
H362 C378 0.931 . S
C363 H351 0.929 . S
C363 C357 1.390 . S
C363 C360 1.386 . S
C364 C359 1.490 . S
C364 C366 1.395 1_545 S
C364 C367 1.403 . S
H365 C371 0.930 . S
C366 H352 0.930 . S
C366 C364 1.395 1_565 S
C366 C369 1.403 . S
C367 C364 1.403 . S
C367 C368 1.524 . S
C367 C371 1.400 . S
C368 H353 0.960 . S
C368 H354 0.960 . S
C368 H355 0.960 . S
C368 C367 1.524 . S
C369 C366 1.403 . S
C369 C370 1.392 . S
C369 C373 1.495 . S
C370 C369 1.392 . S
C370 C371 1.385 1_565 S
C370 C372 1.478 . S
C371 H365 0.930 . S
C371 C367 1.400 . S
C371 C370 1.385 1_545 S
C372 C370 1.478 . S
C372 C374 1.381 . S
C372 C378 1.383 . S
C373 C369 1.495 . S
C373 H379 0.959 . S
C373 H380 0.961 . S
C373 H381 0.960 . S
C374 C372 1.381 . S
C374 C375 1.394 . S
C374 H382 0.930 . S
C375 C374 1.394 . S
C375 C376 1.383 . S
C375 H383 0.929 . S
C376 C375 1.383 . S
C376 C377 1.377 . S
C377 H361 0.930 . S
C377 C376 1.377 . S
C377 C378 1.379 . S
C378 H362 0.931 . S
C378 C372 1.383 . S
C378 C377 1.379 . S
H379 C373 0.959 . S
H380 C373 0.961 . S
H381 C373 0.960 . S
H382 C374 0.930 . S
H383 C375 0.929 . S
H384 C392 0.929 . S
H385 C394 0.930 . S
H386 C396 0.930 . S
H387 C399 0.929 . S
H388 C402 0.930 . S
H389 C404 0.960 1_554 S
H390 C404 0.960 . S
H391 C404 0.960 . S
C392 H384 0.929 . S
C392 C393 1.377 . S
C392 C394 1.384 . S
C393 C392 1.377 . S
C393 C399 1.390 . S
C394 H385 0.930 . S
C394 C392 1.384 . S
C394 C395 1.372 . S
C395 C394 1.372 . S
C395 C396 1.400 . S
C395 C400 1.490 . S
C396 H386 0.930 . S
C396 C395 1.400 . S
C396 C399 1.386 . S
H397 C413 0.930 . S
H398 C414 0.931 . S
C399 H387 0.929 . S
C399 C393 1.390 . S
C399 C396 1.386 . S
C400 C395 1.490 . S
C400 C402 1.395 . S
C400 C403 1.403 . S
H401 C407 0.930 . S
C402 H388 0.930 . S
C402 C400 1.395 . S
C402 C405 1.403 1_556 S
C403 C400 1.403 . S
C403 C404 1.524 . S
C403 C407 1.400 1_556 S
C404 H389 0.960 1_556 S
C404 H390 0.960 . S
C404 H391 0.960 . S
C404 C403 1.524 . S
C405 C402 1.403 1_554 S
C405 C406 1.392 . S
C405 C409 1.495 . S
C406 C405 1.392 . S
C406 C407 1.385 . S
C406 C408 1.478 . S
C407 H401 0.930 . S
C407 C403 1.400 1_554 S
C407 C406 1.385 . S
C408 C406 1.478 . S
C408 C410 1.381 . S
C408 C414 1.383 . S
C409 C405 1.495 . S
C409 H415 0.959 1_554 S
C409 H416 0.961 . S
C409 H417 0.960 . S
C410 C408 1.381 . S
C410 C411 1.394 . S
C410 H418 0.930 . S
C411 C410 1.394 . S
C411 C412 1.383 . S
C411 H419 0.929 . S
C412 C411 1.383 . S
C412 C413 1.377 . S
C413 H397 0.930 . S
C413 C412 1.377 . S
C413 C414 1.379 . S
C414 H398 0.931 . S
C414 C408 1.383 . S
C414 C413 1.379 . S
H415 C409 0.959 1_556 S
H416 C409 0.961 . S
H417 C409 0.960 . S
H418 C410 0.930 . S
H419 C411 0.929 . S
H420 C428 0.929 . S
H421 C430 0.930 . S
H422 C432 0.930 . S
H423 C435 0.929 . S
H424 C438 0.930 . S
H425 C440 0.960 . S
H426 C440 0.942 1_655 S
H427 C440 0.960 . S
C428 H420 0.929 . S
C428 C429 1.377 . S
C428 C430 1.384 . S
C429 C428 1.377 . S
C429 C435 1.390 . S
C430 H421 0.930 . S
C430 C428 1.384 . S
C430 C431 1.372 . S
C431 C430 1.372 . S
C431 C432 1.400 . S
C431 C436 1.490 . S
C432 H422 0.930 . S
C432 C431 1.400 . S
C432 C435 1.386 . S
H433 C449 0.930 . S
H434 C450 0.931 . S
C435 H423 0.929 . S
C435 C429 1.390 . S
C435 C432 1.386 . S
C436 C431 1.490 . S
C436 C438 1.395 . S
C436 C439 1.403 1_655 S
H437 C443 0.930 . S
C438 H424 0.930 . S
C438 C436 1.395 . S
C438 C441 1.403 . S
C439 C436 1.403 1_455 S
C439 C440 1.524 . S
C439 C443 1.400 . S
C440 H425 0.960 . S
C440 H426 0.942 1_455 S
C440 H427 0.960 . S
C440 C439 1.524 . S
C441 C438 1.403 . S
C441 C442 1.392 1_655 S
C441 C445 1.495 . S
C442 C441 1.392 1_455 S
C442 C443 1.385 . S
C442 C444 1.478 . S
C443 H437 0.930 . S
C443 C439 1.400 . S
C443 C442 1.385 . S
C444 C442 1.478 . S
C444 C446 1.381 . S
C444 C450 1.383 . S
C445 C441 1.495 . S
C445 H451 0.959 . S
C445 H452 0.926 1_655 S
C445 H453 0.960 . S
C446 C444 1.381 . S
C446 C447 1.394 . S
C446 H454 0.930 . S
C447 C446 1.394 . S
C447 C448 1.383 . S
C447 H455 0.929 . S
C448 C447 1.383 . S
C448 C449 1.377 . S
C449 H433 0.930 . S
C449 C448 1.377 . S
C449 C450 1.379 . S
C450 H434 0.931 . S
C450 C444 1.383 . S
C450 C449 1.379 . S
H451 C445 0.959 . S
H452 C445 0.926 1_455 S
H453 C445 0.960 . S
H454 C446 0.930 . S
H455 C447 0.929 . S
H456 C464 0.929 . S
H457 C466 0.930 . S
H458 C468 0.930 . S
H459 C471 0.929 . S
H460 C474 0.930 . S
H461 C476 0.960 . S
H462 C476 0.960 . S
H463 C476 0.960 . S
C464 H456 0.929 . S
C464 C465 1.377 . S
C464 C466 1.384 . S
C465 C464 1.377 . S
C465 C471 1.390 . S
C466 H457 0.930 . S
C466 C464 1.384 . S
C466 C467 1.372 . S
C467 C466 1.372 . S
C467 C468 1.400 . S
C467 C472 1.490 . S
C468 H458 0.930 . S
C468 C467 1.400 . S
C468 C471 1.386 . S
H469 C485 0.930 . S
H470 C486 0.931 . S
C471 H459 0.929 . S
C471 C465 1.390 . S
C471 C468 1.386 . S
C472 C467 1.490 . S
C472 C474 1.395 . S
C472 C475 1.403 . S
H473 C479 0.930 . S
C474 H460 0.930 . S
C474 C472 1.395 . S
C474 C477 1.403 . S
C475 C472 1.403 . S
C475 C476 1.524 . S
C475 C479 1.400 . S
C476 H461 0.960 . S
C476 H462 0.960 . S
C476 H463 0.960 . S
C476 C475 1.524 . S
C477 C474 1.403 . S
C477 C478 1.392 . S
C477 C481 1.495 . S
C478 C477 1.392 . S
C478 C479 1.385 . S
C478 C480 1.478 . S
C479 H473 0.930 . S
C479 C475 1.400 . S
C479 C478 1.385 . S
C480 C478 1.478 . S
C480 C482 1.381 . S
C480 C486 1.383 . S
C481 C477 1.495 . S
C481 H487 0.959 . S
C481 H488 0.961 . S
C481 H489 0.960 . S
C482 C480 1.381 . S
C482 C483 1.394 . S
C482 H490 0.930 . S
C483 C482 1.394 . S
C483 C484 1.383 . S
C483 H491 0.929 . S
C484 C483 1.383 . S
C484 C485 1.377 . S
C485 H469 0.930 . S
C485 C484 1.377 . S
C485 C486 1.379 . S
C486 H470 0.931 . S
C486 C480 1.383 . S
C486 C485 1.379 . S
H487 C481 0.959 . S
H488 C481 0.961 . S
H489 C481 0.960 . S
H490 C482 0.930 . S
H491 C483 0.929 . S
H492 C500 0.929 . S
H493 C502 0.930 . S
H494 C504 0.930 . S
H495 C507 0.929 . S
H496 C510 0.930 . S
H497 C512 0.960 . S
H498 C512 0.960 . S
H499 C512 0.960 . S
C500 H492 0.929 . S
C500 C501 1.377 . S
C500 C502 1.384 . S
C501 C500 1.377 . S
C501 C507 1.390 . S
C502 H493 0.930 . S
C502 C500 1.384 . S
C502 C503 1.372 . S
C503 C502 1.372 . S
C503 C504 1.400 . S
C503 C508 1.490 . S
C504 H494 0.930 . S
C504 C503 1.400 . S
C504 C507 1.386 . S
H505 C521 0.930 . S
H506 C522 0.931 . S
C507 H495 0.929 . S
C507 C501 1.390 . S
C507 C504 1.386 . S
C508 C503 1.490 . S
C508 C510 1.395 . S
C508 C511 1.403 . S
H509 C515 0.930 . S
C510 H496 0.930 . S
C510 C508 1.395 . S
C510 C513 1.403 . S
C511 C508 1.403 . S
C511 C512 1.524 . S
C511 C515 1.400 . S
C512 H497 0.960 . S
C512 H498 0.960 . S
C512 H499 0.960 . S
C512 C511 1.524 . S
C513 C510 1.403 . S
C513 C514 1.392 . S
C513 C517 1.495 . S
C514 C513 1.392 . S
C514 C515 1.385 . S
C514 C516 1.478 . S
C515 H509 0.930 . S
C515 C511 1.400 . S
C515 C514 1.385 . S
C516 C514 1.478 . S
C516 C518 1.381 . S
C516 C522 1.383 . S
C517 C513 1.495 . S
C517 H523 0.959 . S
C517 H524 0.961 . S
C517 H525 0.960 . S
C518 C516 1.381 . S
C518 C519 1.394 . S
C518 H526 0.930 . S
C519 C518 1.394 . S
C519 C520 1.383 . S
C519 H527 0.929 . S
C520 C519 1.383 . S
C520 C521 1.377 . S
C521 H505 0.930 . S
C521 C520 1.377 . S
C521 C522 1.379 . S
C522 H506 0.931 . S
C522 C516 1.383 . S
C522 C521 1.379 . S
H523 C517 0.959 . S
H524 C517 0.961 . S
H525 C517 0.960 . S
H526 C518 0.930 . S
H527 C519 0.929 . S
H528 C536 0.929 . S
H529 C538 0.930 . S
H530 C540 0.930 . S
H531 C543 0.929 . S
H532 C546 0.930 . S
H533 C548 0.960 . S
H534 C548 0.960 . S
H535 C548 0.960 . S
C536 H528 0.929 . S
C536 C537 1.377 . S
C536 C538 1.384 . S
C537 C536 1.377 . S
C537 C543 1.390 . S
C538 H529 0.930 . S
C538 C536 1.384 . S
C538 C539 1.372 . S
C539 C538 1.372 . S
C539 C540 1.400 . S
C539 C544 1.490 . S
C540 H530 0.930 . S
C540 C539 1.400 . S
C540 C543 1.386 . S
H541 C557 0.930 . S
H542 C558 0.931 . S
C543 H531 0.929 . S
C543 C537 1.390 . S
C543 C540 1.386 . S
C544 C539 1.490 . S
C544 C546 1.395 . S
C544 C547 1.403 . S
H545 C551 0.930 . S
C546 H532 0.930 . S
C546 C544 1.395 . S
C546 C549 1.403 . S
C547 C544 1.403 . S
C547 C548 1.524 . S
C547 C551 1.400 . S
C548 H533 0.960 . S
C548 H534 0.960 . S
C548 H535 0.960 . S
C548 C547 1.524 . S
C549 C546 1.403 . S
C549 C550 1.392 . S
C549 C553 1.495 . S
C550 C549 1.392 . S
C550 C551 1.385 . S
C550 C552 1.478 . S
C551 H545 0.930 . S
C551 C547 1.400 . S
C551 C550 1.385 . S
C552 C550 1.478 . S
C552 C554 1.381 . S
C552 C558 1.383 . S
C553 C549 1.495 . S
C553 H559 0.959 . S
C553 H560 0.961 . S
C553 H561 0.960 . S
C554 C552 1.381 . S
C554 C555 1.394 . S
C554 H562 0.930 . S
C555 C554 1.394 . S
C555 C556 1.383 . S
C555 H563 0.929 . S
C556 C555 1.383 . S
C556 C557 1.377 . S
C557 H541 0.930 . S
C557 C556 1.377 . S
C557 C558 1.379 . S
C558 H542 0.931 . S
C558 C552 1.383 . S
C558 C557 1.379 . S
H559 C553 0.959 . S
H560 C553 0.961 . S
H561 C553 0.960 . S
H562 C554 0.930 . S
H563 C555 0.929 . S
H564 C572 0.929 . S
H565 C574 0.930 . S
H566 C576 0.930 . S
H567 C579 0.929 . S
H568 C582 0.930 . S
H569 C584 0.960 . S
H570 C584 0.960 . S
H571 C584 0.960 . S
C572 H564 0.929 . S
C572 C573 1.377 . S
C572 C574 1.384 . S
C573 C572 1.377 . S
C573 C579 1.390 . S
C574 H565 0.930 . S
C574 C572 1.384 . S
C574 C575 1.372 . S
C575 C574 1.372 . S
C575 C576 1.400 . S
C575 C580 1.490 . S
C576 H566 0.930 . S
C576 C575 1.400 . S
C576 C579 1.386 . S
H577 C593 0.930 . S
H578 C594 0.931 . S
C579 H567 0.929 . S
C579 C573 1.390 . S
C579 C576 1.386 . S
C580 C575 1.490 . S
C580 C582 1.395 . S
C580 C583 1.403 . S
H581 C587 0.930 . S
C582 H568 0.930 . S
C582 C580 1.395 . S
C582 C585 1.403 . S
C583 C580 1.403 . S
C583 C584 1.524 . S
C583 C587 1.400 . S
C584 H569 0.960 . S
C584 H570 0.960 . S
C584 H571 0.960 . S
C584 C583 1.524 . S
C585 C582 1.403 . S
C585 C586 1.392 . S
C585 C589 1.495 . S
C586 C585 1.392 . S
C586 C587 1.385 . S
C586 C588 1.478 . S
C587 H581 0.930 . S
C587 C583 1.400 . S
C587 C586 1.385 . S
C588 C586 1.478 . S
C588 C590 1.381 . S
C588 C594 1.383 . S
C589 C585 1.495 . S
C589 H595 0.959 . S
C589 H596 0.961 . S
C589 H597 0.960 . S
C590 C588 1.381 . S
C590 C591 1.394 . S
C590 H598 0.930 . S
C591 C590 1.394 . S
C591 C592 1.383 . S
C591 H599 0.929 . S
C592 C591 1.383 . S
C592 C593 1.377 . S
C593 H577 0.930 . S
C593 C592 1.377 . S
C593 C594 1.379 . S
C594 H578 0.931 . S
C594 C588 1.383 . S
C594 C593 1.379 . S
H595 C589 0.959 . S
H596 C589 0.961 . S
H597 C589 0.960 . S
H598 C590 0.930 . S
H599 C591 0.929 . S
H600 C608 0.929 . S
H601 C610 0.930 . S
H602 C612 0.930 . S
H603 C615 0.929 . S
H604 C618 0.930 . S
H605 C620 0.960 . S
H606 C620 0.960 . S
H607 C620 0.960 . S
C608 H600 0.929 . S
C608 C609 1.377 . S
C608 C610 1.384 . S
C609 C608 1.377 . S
C609 C615 1.390 . S
C610 H601 0.930 . S
C610 C608 1.384 . S
C610 C611 1.372 . S
C611 C610 1.372 . S
C611 C612 1.400 . S
C611 C616 1.490 . S
C612 H602 0.930 . S
C612 C611 1.400 . S
C612 C615 1.386 . S
H613 C629 0.930 . S
H614 C630 0.931 . S
C615 H603 0.929 . S
C615 C609 1.390 . S
C615 C612 1.386 . S
C616 C611 1.490 . S
C616 C618 1.395 . S
C616 C619 1.403 . S
H617 C623 0.930 . S
C618 H604 0.930 . S
C618 C616 1.395 . S
C618 C621 1.403 . S
C619 C616 1.403 . S
C619 C620 1.524 . S
C619 C623 1.400 . S
C620 H605 0.960 . S
C620 H606 0.960 . S
C620 H607 0.960 . S
C620 C619 1.524 . S
C621 C618 1.403 . S
C621 C622 1.392 . S
C621 C625 1.495 . S
C622 C621 1.392 . S
C622 C623 1.385 . S
C622 C624 1.478 . S
C623 H617 0.930 . S
C623 C619 1.400 . S
C623 C622 1.385 . S
C624 C622 1.478 . S
C624 C626 1.381 . S
C624 C630 1.383 . S
C625 C621 1.495 . S
C625 H631 0.959 . S
C625 H632 0.961 . S
C625 H633 0.960 . S
C626 C624 1.381 . S
C626 C627 1.394 . S
C626 H634 0.930 . S
C627 C626 1.394 . S
C627 C628 1.383 . S
C627 H635 0.929 . S
C628 C627 1.383 . S
C628 C629 1.377 . S
C629 H613 0.930 . S
C629 C628 1.377 . S
C629 C630 1.379 . S
C630 H614 0.931 . S
C630 C624 1.383 . S
C630 C629 1.379 . S
H631 C625 0.959 . S
H632 C625 0.961 . S
H633 C625 0.960 . S
H634 C626 0.930 . S
H635 C627 0.929 . S
H636 C644 0.929 . S
H637 C646 0.930 . S
H638 C648 0.930 . S
H639 C651 0.929 . S
H640 C654 0.930 . S
H641 C656 0.960 . S
H642 C656 0.960 . S
H643 C656 0.960 . S
C644 H636 0.929 . S
C644 C645 1.377 . S
C644 C646 1.384 . S
C645 C644 1.377 . S
C645 C651 1.390 . S
C646 H637 0.930 . S
C646 C644 1.384 . S
C646 C647 1.372 . S
C647 C646 1.372 . S
C647 C648 1.400 . S
C647 C652 1.490 . S
C648 H638 0.930 . S
C648 C647 1.400 . S
C648 C651 1.386 . S
H649 C665 0.930 . S
H650 C666 0.931 . S
C651 H639 0.929 . S
C651 C645 1.390 . S
C651 C648 1.386 . S
C652 C647 1.490 . S
C652 C654 1.395 . S
C652 C655 1.403 . S
H653 C659 0.930 . S
C654 H640 0.930 . S
C654 C652 1.395 . S
C654 C657 1.403 . S
C655 C652 1.403 . S
C655 C656 1.524 . S
C655 C659 1.400 . S
C656 H641 0.960 . S
C656 H642 0.960 . S
C656 H643 0.960 . S
C656 C655 1.524 . S
C657 C654 1.403 . S
C657 C658 1.392 . S
C657 C661 1.495 . S
C658 C657 1.392 . S
C658 C659 1.385 . S
C658 C660 1.478 . S
C659 H653 0.930 . S
C659 C655 1.400 . S
C659 C658 1.385 . S
C660 C658 1.478 . S
C660 C662 1.381 . S
C660 C666 1.383 . S
C661 C657 1.495 . S
C661 H667 0.959 . S
C661 H668 0.961 . S
C661 H669 0.960 . S
C662 C660 1.381 . S
C662 C663 1.394 . S
C662 H670 0.930 . S
C663 C662 1.394 . S
C663 C664 1.383 . S
C663 H671 0.929 . S
C664 C663 1.383 . S
C664 C665 1.377 . S
C665 H649 0.930 . S
C665 C664 1.377 . S
C665 C666 1.379 . S
C666 H650 0.931 . S
C666 C660 1.383 . S
C666 C665 1.379 . S
H667 C661 0.959 . S
H668 C661 0.961 . S
H669 C661 0.960 . S
H670 C662 0.930 . S
H671 C663 0.929 . S
H672 C680 0.929 . S
H673 C682 0.930 . S
H674 C684 0.930 . S
H675 C687 0.929 . S
H676 C690 0.930 . S
H677 C692 0.960 . S
H678 C692 0.960 . S
H679 C692 0.960 . S
C680 H672 0.929 . S
C680 C681 1.377 . S
C680 C682 1.384 . S
C681 C680 1.377 . S
C681 C687 1.390 . S
C682 H673 0.930 . S
C682 C680 1.384 . S
C682 C683 1.372 . S
C683 C682 1.372 . S
C683 C684 1.400 . S
C683 C688 1.490 . S
C684 H674 0.930 . S
C684 C683 1.400 . S
C684 C687 1.386 . S
H685 C701 0.930 . S
H686 C702 0.931 . S
C687 H675 0.929 . S
C687 C681 1.390 . S
C687 C684 1.386 . S
C688 C683 1.490 . S
C688 C690 1.395 . S
C688 C691 1.403 . S
H689 C695 0.937 . S
C690 H676 0.930 . S
C690 C688 1.395 . S
C690 C693 1.403 . S
C691 C688 1.403 . S
C691 C692 1.524 . S
C691 C695 1.400 . S
C692 H677 0.960 . S
C692 H678 0.960 . S
C692 H679 0.960 . S
C692 C691 1.524 . S
C693 C690 1.403 . S
C693 C694 1.392 . S
C693 C697 1.495 . S
C694 C693 1.392 . S
C694 C695 1.385 . S
C694 C696 1.478 . S
C695 H689 0.937 . S
C695 C691 1.400 . S
C695 C694 1.385 . S
C696 C694 1.478 . S
C696 C698 1.381 . S
C696 C702 1.383 1_455 S
C697 C693 1.495 . S
C697 H703 0.959 . S
C697 H704 0.961 . S
C697 H705 0.960 . S
C698 C696 1.381 . S
C698 C699 1.394 1_455 S
C698 H706 0.930 . S
C699 C698 1.394 1_655 S
C699 C700 1.383 . S
C699 H707 0.929 1_655 S
C700 C699 1.383 . S
C700 C701 1.377 . S
C701 H685 0.930 . S
C701 C700 1.377 . S
C701 C702 1.379 . S
C702 H686 0.931 . S
C702 C696 1.383 1_655 S
C702 C701 1.379 . S
H703 C697 0.959 . S
H704 C697 0.961 . S
H705 C697 0.960 . S
H706 C698 0.930 . S
H707 C699 0.929 1_455 S
H708 C716 0.929 . S
H709 C718 0.930 . S
H710 C720 0.930 . S
H711 C723 0.935 . S
H712 C726 0.930 . S
H713 C728 0.960 . S
H714 C728 0.960 . S
H715 C728 0.960 . S
C716 H708 0.929 . S
C716 C717 1.377 . S
C716 C718 1.384 1_655 S
C717 C716 1.377 . S
C717 C723 1.418 . S
C718 H709 0.930 . S
C718 C716 1.384 1_455 S
C718 C719 1.372 . S
C719 C718 1.372 . S
C719 C720 1.400 . S
C719 C724 1.490 . S
C720 H710 0.930 . S
C720 C719 1.400 . S
C720 C723 1.353 1_455 S
H721 C737 0.930 . S
H722 C738 0.931 . S
C723 H711 0.935 . S
C723 C717 1.418 . S
C723 C720 1.353 1_655 S
C724 C719 1.490 . S
C724 C726 1.395 . S
C724 C727 1.403 . S
H725 C731 0.930 . S
C726 H712 0.930 . S
C726 C724 1.395 . S
C726 C729 1.403 . S
C727 C724 1.403 . S
C727 C728 1.524 . S
C727 C731 1.400 . S
C728 H713 0.960 . S
C728 H714 0.960 . S
C728 H715 0.960 . S
C728 C727 1.524 . S
C729 C726 1.403 . S
C729 C730 1.392 . S
C729 C733 1.495 1_565 S
C730 C729 1.392 . S
C730 C731 1.385 . S
C730 C732 1.478 . S
C731 H725 0.930 . S
C731 C727 1.400 . S
C731 C730 1.385 . S
C732 C730 1.478 . S
C732 C734 1.381 1_565 S
C732 C738 1.383 . S
C733 C729 1.495 1_545 S
C733 H739 0.959 . S
C733 H740 0.961 . S
C733 H741 0.960 . S
C734 C732 1.381 1_545 S
C734 C735 1.394 . S
C734 H742 0.930 . S
C735 C734 1.394 . S
C735 C736 1.383 . S
C735 H743 0.929 . S
C736 C735 1.383 . S
C736 C737 1.377 . S
C737 H721 0.930 . S
C737 C736 1.377 . S
C737 C738 1.379 1_545 S
C738 H722 0.931 . S
C738 C732 1.383 . S
C738 C737 1.379 1_565 S
H739 C733 0.959 . S
H740 C733 0.961 . S
H741 C733 0.960 . S
H742 C734 0.930 . S
H743 C735 0.929 . S
H744 C752 0.929 . S
H745 C754 0.930 . S
H746 C756 0.930 . S
H747 C759 0.929 . S
H748 C762 0.930 . S
H749 C764 0.960 . S
H750 C764 0.960 . S
H751 C764 0.960 . S
C752 H744 0.929 . S
C752 C753 1.377 . S
C752 C754 1.384 1_545 S
C753 C752 1.377 . S
C753 C759 1.390 . S
C754 H745 0.930 . S
C754 C752 1.384 1_565 S
C754 C755 1.372 . S
C755 C754 1.372 . S
C755 C756 1.400 . S
C755 C760 1.490 . S
C756 H746 0.930 . S
C756 C755 1.400 . S
C756 C759 1.386 1_565 S
H757 C773 0.930 . S
H758 C774 0.931 . S
C759 H747 0.929 . S
C759 C753 1.390 . S
C759 C756 1.386 1_545 S
C760 C755 1.490 . S
C760 C762 1.395 . S
C760 C763 1.403 . S
H761 C767 0.930 . S
C762 H748 0.930 . S
C762 C760 1.395 . S
C762 C765 1.403 . S
C763 C760 1.403 . S
C763 C764 1.524 . S
C763 C767 1.400 . S
C764 H749 0.960 . S
C764 H750 0.960 . S
C764 H751 0.960 . S
C764 C763 1.524 . S
C765 C762 1.403 . S
C765 C766 1.392 . S
C765 C769 1.495 . S
C766 C765 1.392 . S
C766 C767 1.385 . S
C766 C768 1.478 . S
C767 H761 0.930 . S
C767 C763 1.400 . S
C767 C766 1.385 . S
C768 C766 1.478 . S
C768 C770 1.381 . S
C768 C774 1.383 . S
C769 C765 1.495 . S
C769 H775 0.959 . S
C769 H776 0.961 . S
C769 H777 0.960 . S
C770 C768 1.381 . S
C770 C771 1.394 . S
C770 H778 0.930 . S
C771 C770 1.394 . S
C771 C772 1.383 . S
C771 H779 0.929 . S
C772 C771 1.383 . S
C772 C773 1.377 . S
C773 H757 0.930 . S
C773 C772 1.377 . S
C773 C774 1.379 . S
C774 H758 0.931 . S
C774 C768 1.383 . S
C774 C773 1.379 . S
H775 C769 0.959 . S
H776 C769 0.961 . S
H777 C769 0.960 . S
H778 C770 0.930 . S
H779 C771 0.929 . S
H780 C788 0.929 . S
H781 C790 0.930 . S
H782 C792 0.930 . S
H783 C795 0.929 . S
H784 C798 0.930 . S
H785 C800 0.960 . S
H786 C800 0.960 . S
H787 C800 0.960 . S
C788 H780 0.929 . S
C788 C789 1.377 . S
C788 C790 1.384 . S
C789 C788 1.377 . S
C789 C795 1.390 . S
C790 H781 0.930 . S
C790 C788 1.384 . S
C790 C791 1.372 . S
C791 C790 1.372 . S
C791 C792 1.400 . S
C791 C796 1.490 . S
C792 H782 0.930 . S
C792 C791 1.400 . S
C792 C795 1.386 . S
H793 C809 0.930 . S
H794 C810 0.931 . S
C795 H783 0.929 . S
C795 C789 1.390 . S
C795 C792 1.386 . S
C796 C791 1.490 . S
C796 C798 1.395 . S
C796 C799 1.403 . S
H797 C803 0.930 . S
C798 H784 0.930 . S
C798 C796 1.395 . S
C798 C801 1.403 . S
C799 C796 1.403 . S
C799 C800 1.524 . S
C799 C803 1.400 . S
C800 H785 0.960 . S
C800 H786 0.960 . S
C800 H787 0.960 . S
C800 C799 1.524 . S
C801 C798 1.403 . S
C801 C802 1.392 . S
C801 C805 1.495 1_545 S
C802 C801 1.392 . S
C802 C803 1.385 . S
C802 C804 1.478 . S
C803 H797 0.930 . S
C803 C799 1.400 . S
C803 C802 1.385 . S
C804 C802 1.478 . S
C804 C806 1.381 1_545 S
C804 C810 1.383 . S
C805 C801 1.495 1_565 S
C805 H811 0.959 . S
C805 H812 0.961 . S
C805 H813 0.960 . S
C806 C804 1.381 1_565 S
C806 C807 1.394 . S
C806 H814 0.930 . S
C807 C806 1.394 . S
C807 C808 1.383 . S
C807 H815 0.929 . S
C808 C807 1.383 . S
C808 C809 1.377 . S
C809 H793 0.930 . S
C809 C808 1.377 . S
C809 C810 1.379 1_565 S
C810 H794 0.931 . S
C810 C804 1.383 . S
C810 C809 1.379 1_545 S
H811 C805 0.959 . S
H812 C805 0.961 . S
H813 C805 0.960 . S
H814 C806 0.930 . S
H815 C807 0.929 . S
H816 C824 0.929 . S
H817 C826 0.930 . S
H818 C828 0.930 . S
H819 C831 0.929 . S
H820 C834 0.930 . S
H821 C836 0.960 . S
H822 C836 0.960 . S
H823 C836 0.960 . S
C824 H816 0.929 . S
C824 C825 1.377 . S
C824 C826 1.384 1_455 S
C825 C824 1.377 . S
C825 C831 1.390 . S
C826 H817 0.930 . S
C826 C824 1.384 1_655 S
C826 C827 1.372 . S
C827 C826 1.372 . S
C827 C828 1.400 . S
C827 C832 1.490 . S
C828 H818 0.930 . S
C828 C827 1.400 . S
C828 C831 1.386 1_655 S
H829 C845 0.930 . S
H830 C846 0.931 . S
C831 H819 0.929 . S
C831 C825 1.390 . S
C831 C828 1.386 1_455 S
C832 C827 1.490 . S
C832 C834 1.395 . S
C832 C835 1.403 . S
H833 C839 0.930 . S
C834 H820 0.930 . S
C834 C832 1.395 . S
C834 C837 1.403 . S
C835 C832 1.403 . S
C835 C836 1.524 . S
C835 C839 1.400 . S
C836 H821 0.960 . S
C836 H822 0.960 . S
C836 H823 0.960 . S
C836 C835 1.524 . S
C837 C834 1.403 . S
C837 C838 1.392 . S
C837 C841 1.495 . S
C838 C837 1.392 . S
C838 C839 1.385 . S
C838 C840 1.478 . S
C839 H833 0.930 . S
C839 C835 1.400 . S
C839 C838 1.385 . S
C840 C838 1.478 . S
C840 C842 1.381 . S
C840 C846 1.383 . S
C841 C837 1.495 . S
C841 H847 0.959 . S
C841 H848 0.961 . S
C841 H849 0.960 . S
C842 C840 1.381 . S
C842 C843 1.394 . S
C842 H850 0.930 . S
C843 C842 1.394 . S
C843 C844 1.383 . S
C843 H851 0.929 . S
C844 C843 1.383 . S
C844 C845 1.377 . S
C845 H829 0.930 . S
C845 C844 1.377 . S
C845 C846 1.379 . S
C846 H830 0.931 . S
C846 C840 1.383 . S
C846 C845 1.379 . S
H847 C841 0.959 . S
H848 C841 0.961 . S
H849 C841 0.960 . S
H850 C842 0.930 . S
H851 C843 0.929 . S
H852 C860 0.929 . S
H853 C862 0.930 . S
H854 C864 0.930 . S
H855 C867 0.929 . S
H856 C870 0.930 . S
H857 C872 0.960 . S
H858 C872 0.960 . S
H859 C872 0.960 . S
C860 H852 0.929 . S
C860 C861 1.377 . S
C860 C862 1.384 . S
C861 C860 1.377 . S
C861 C867 1.390 1_455 S
C862 H853 0.930 . S
C862 C860 1.384 . S
C862 C863 1.372 1_455 S
C863 C862 1.372 1_655 S
C863 C864 1.400 . S
C863 C868 1.490 . S
C864 H854 0.930 . S
C864 C863 1.400 . S
C864 C867 1.386 . S
H865 C881 0.928 . S
H866 C882 0.931 . S
C867 H855 0.929 . S
C867 C861 1.390 1_655 S
C867 C864 1.386 . S
C868 C863 1.490 . S
C868 C870 1.395 . S
C868 C871 1.403 . S
H869 C875 0.930 . S
C870 H856 0.930 . S
C870 C868 1.395 . S
C870 C873 1.403 . S
C871 C868 1.403 . S
C871 C872 1.524 . S
C871 C875 1.400 . S
C872 H857 0.960 . S
C872 H858 0.960 . S
C872 H859 0.960 . S
C872 C871 1.524 . S
C873 C870 1.403 . S
C873 C874 1.392 . S
C873 C877 1.495 . S
C874 C873 1.392 . S
C874 C875 1.385 . S
C874 C876 1.478 . S
C875 H869 0.930 . S
C875 C871 1.400 . S
C875 C874 1.385 . S
C876 C874 1.478 . S
C876 C878 1.381 . S
C876 C882 1.383 . S
C877 C873 1.495 . S
C877 H883 0.959 . S
C877 H884 0.961 . S
C877 H885 0.960 . S
C878 C876 1.381 . S
C878 C879 1.394 1_545 S
C878 H886 0.930 . S
C879 C878 1.394 1_565 S
C879 C880 1.383 . S
C879 H887 0.929 . S
C880 C879 1.383 . S
C880 C881 1.385 . S
C881 H865 0.928 . S
C881 C880 1.385 . S
C881 C882 1.372 1_565 S
C882 H866 0.931 . S
C882 C876 1.383 . S
C882 C881 1.372 1_545 S
H883 C877 0.959 . S
H884 C877 0.961 . S
H885 C877 0.960 . S
H886 C878 0.930 . S
H887 C879 0.929 . S
C249 C162 2.364 . S
C268 C2 2.418 . S
C285 C223 2.405 . S
C304 C63 2.343 . S
C321 C82 2.412 . S
C340 C122 2.378 . S
C357 C23 2.364 . S
C376 C183 2.412 . S
C393 C202 2.354 . S
C412 C42 2.396 . S
C429 C103 2.357 . S
C448 C143 2.384 . S
C465 C25 1.777 . S
C484 C111 1.774 . S
C501 C65 1.771 . S
C520 C31 1.757 . S
C537 C105 1.773 . S
C556 C71 1.758 . S
C573 C124 1.778 . S
C592 C180 1.783 . S
C609 C164 1.771 . S
C628 C220 1.779 . S
C645 C140 1.781 . S
C664 C204 1.775 . S
C681 C4 0.832 . S
C700 C100 0.853 . S
C717 C44 0.827 . S
C736 C20 0.796 . S
C753 C84 0.837 . S
C772 C60 0.865 . S
C789 C145 0.831 . S
C808 C191 0.793 . S
C825 C185 0.827 . S
C844 C231 0.801 . S
C861 C151 0.824 . S
C880 C225 0.847 . S
