# Generated by pormake.
# Topology soh, (5)-cn, num edge types: 1
# Building blocks:
#     Node 0, Type 0, BuildingBlock: XOMCOT_clean_sbu_1, # of connection points: 5
#     Node 1, Type 0, BuildingBlock: XOMCOT_clean_sbu_1, # of connection points: 5
#     Node 2, Type 0, BuildingBlock: XOMCOT_clean_sbu_1, # of connection points: 5
#     Node 3, Type 0, BuildingBlock: XOMCOT_clean_sbu_1, # of connection points: 5
#     Node 4, Type 0, BuildingBlock: XOMCOT_clean_sbu_1, # of connection points: 5
#     Node 5, Type 0, BuildingBlock: XOMCOT_clean_sbu_1, # of connection points: 5
#     Node 6, Type 0, BuildingBlock: XOMCOT_clean_sbu_1, # of connection points: 5
#     Node 7, Type 0, BuildingBlock: XOMCOT_clean_sbu_1, # of connection points: 5
#     Node 8, Type 0, BuildingBlock: XOMCOT_clean_sbu_1, # of connection points: 5
#     Node 9, Type 0, BuildingBlock: XOMCOT_clean_sbu_1, # of connection points: 5
#     Node 10, Type 0, BuildingBlock: XOMCOT_clean_sbu_1, # of connection points: 5
#     Node 11, Type 0, BuildingBlock: XOMCOT_clean_sbu_1, # of connection points: 5
#     Node 12, Type 0, BuildingBlock: XOMCOT_clean_sbu_1, # of connection points: 5
#     Node 13, Type 0, BuildingBlock: XOMCOT_clean_sbu_1, # of connection points: 5
#     Node 14, Type 0, BuildingBlock: XOMCOT_clean_sbu_1, # of connection points: 5
#     Node 15, Type 0, BuildingBlock: XOMCOT_clean_sbu_1, # of connection points: 5
#     Node 16, Type 0, BuildingBlock: XOMCOT_clean_sbu_1, # of connection points: 5
#     Node 17, Type 0, BuildingBlock: XOMCOT_clean_sbu_1, # of connection points: 5
#     Node 18, Type 0, BuildingBlock: XOMCOT_clean_sbu_1, # of connection points: 5
#     Node 19, Type 0, BuildingBlock: XOMCOT_clean_sbu_1, # of connection points: 5
#     Node 20, Type 0, BuildingBlock: XOMCOT_clean_sbu_1, # of connection points: 5
#     Node 21, Type 0, BuildingBlock: XOMCOT_clean_sbu_1, # of connection points: 5
#     Node 22, Type 0, BuildingBlock: XOMCOT_clean_sbu_1, # of connection points: 5
#     Node 23, Type 0, BuildingBlock: XOMCOT_clean_sbu_1, # of connection points: 5
#     Node 24, Type 0, BuildingBlock: XOMCOT_clean_sbu_1, # of connection points: 5
#     Node 25, Type 0, BuildingBlock: XOMCOT_clean_sbu_1, # of connection points: 5
#     Node 26, Type 0, BuildingBlock: XOMCOT_clean_sbu_1, # of connection points: 5
#     Node 27, Type 0, BuildingBlock: XOMCOT_clean_sbu_1, # of connection points: 5
#     Node 28, Type 0, BuildingBlock: XOMCOT_clean_sbu_1, # of connection points: 5
#     Node 29, Type 0, BuildingBlock: XOMCOT_clean_sbu_1, # of connection points: 5
#     Node 30, Type 0, BuildingBlock: XOMCOT_clean_sbu_1, # of connection points: 5
#     Node 31, Type 0, BuildingBlock: XOMCOT_clean_sbu_1, # of connection points: 5
#     Edge 32, Type (0, 0), BuildingBlock: OJICUG_clean_linker_0, # of connection points: 2
#     Edge 33, Type (0, 0), BuildingBlock: OJICUG_clean_linker_0, # of connection points: 2
#     Edge 34, Type (0, 0), BuildingBlock: OJICUG_clean_linker_0, # of connection points: 2
#     Edge 35, Type (0, 0), BuildingBlock: OJICUG_clean_linker_0, # of connection points: 2
#     Edge 36, Type (0, 0), BuildingBlock: OJICUG_clean_linker_0, # of connection points: 2
#     Edge 37, Type (0, 0), BuildingBlock: OJICUG_clean_linker_0, # of connection points: 2
#     Edge 38, Type (0, 0), BuildingBlock: OJICUG_clean_linker_0, # of connection points: 2
#     Edge 39, Type (0, 0), BuildingBlock: OJICUG_clean_linker_0, # of connection points: 2
#     Edge 40, Type (0, 0), BuildingBlock: OJICUG_clean_linker_0, # of connection points: 2
#     Edge 41, Type (0, 0), BuildingBlock: OJICUG_clean_linker_0, # of connection points: 2
#     Edge 42, Type (0, 0), BuildingBlock: OJICUG_clean_linker_0, # of connection points: 2
#     Edge 43, Type (0, 0), BuildingBlock: OJICUG_clean_linker_0, # of connection points: 2
#     Edge 44, Type (0, 0), BuildingBlock: OJICUG_clean_linker_0, # of connection points: 2
#     Edge 45, Type (0, 0), BuildingBlock: OJICUG_clean_linker_0, # of connection points: 2
#     Edge 46, Type (0, 0), BuildingBlock: OJICUG_clean_linker_0, # of connection points: 2
#     Edge 47, Type (0, 0), BuildingBlock: OJICUG_clean_linker_0, # of connection points: 2
#     Edge 48, Type (0, 0), BuildingBlock: OJICUG_clean_linker_0, # of connection points: 2
#     Edge 49, Type (0, 0), BuildingBlock: OJICUG_clean_linker_0, # of connection points: 2
#     Edge 50, Type (0, 0), BuildingBlock: OJICUG_clean_linker_0, # of connection points: 2
#     Edge 51, Type (0, 0), BuildingBlock: OJICUG_clean_linker_0, # of connection points: 2
#     Edge 52, Type (0, 0), BuildingBlock: OJICUG_clean_linker_0, # of connection points: 2
#     Edge 53, Type (0, 0), BuildingBlock: OJICUG_clean_linker_0, # of connection points: 2
#     Edge 54, Type (0, 0), BuildingBlock: OJICUG_clean_linker_0, # of connection points: 2
#     Edge 55, Type (0, 0), BuildingBlock: OJICUG_clean_linker_0, # of connection points: 2
#     Edge 56, Type (0, 0), BuildingBlock: OJICUG_clean_linker_0, # of connection points: 2
#     Edge 57, Type (0, 0), BuildingBlock: OJICUG_clean_linker_0, # of connection points: 2
#     Edge 58, Type (0, 0), BuildingBlock: OJICUG_clean_linker_0, # of connection points: 2
#     Edge 59, Type (0, 0), BuildingBlock: OJICUG_clean_linker_0, # of connection points: 2
#     Edge 60, Type (0, 0), BuildingBlock: OJICUG_clean_linker_0, # of connection points: 2
#     Edge 61, Type (0, 0), BuildingBlock: OJICUG_clean_linker_0, # of connection points: 2
#     Edge 62, Type (0, 0), BuildingBlock: OJICUG_clean_linker_0, # of connection points: 2
#     Edge 63, Type (0, 0), BuildingBlock: OJICUG_clean_linker_0, # of connection points: 2
#     Edge 64, Type (0, 0), BuildingBlock: OJICUG_clean_linker_0, # of connection points: 2
#     Edge 65, Type (0, 0), BuildingBlock: OJICUG_clean_linker_0, # of connection points: 2
#     Edge 66, Type (0, 0), BuildingBlock: OJICUG_clean_linker_0, # of connection points: 2
#     Edge 67, Type (0, 0), BuildingBlock: OJICUG_clean_linker_0, # of connection points: 2
#     Edge 68, Type (0, 0), BuildingBlock: OJICUG_clean_linker_0, # of connection points: 2
#     Edge 69, Type (0, 0), BuildingBlock: OJICUG_clean_linker_0, # of connection points: 2
#     Edge 70, Type (0, 0), BuildingBlock: OJICUG_clean_linker_0, # of connection points: 2
#     Edge 71, Type (0, 0), BuildingBlock: OJICUG_clean_linker_0, # of connection points: 2
#     Edge 72, Type (0, 0), BuildingBlock: OJICUG_clean_linker_0, # of connection points: 2
#     Edge 73, Type (0, 0), BuildingBlock: OJICUG_clean_linker_0, # of connection points: 2
#     Edge 74, Type (0, 0), BuildingBlock: OJICUG_clean_linker_0, # of connection points: 2
#     Edge 75, Type (0, 0), BuildingBlock: OJICUG_clean_linker_0, # of connection points: 2
#     Edge 76, Type (0, 0), BuildingBlock: OJICUG_clean_linker_0, # of connection points: 2
#     Edge 77, Type (0, 0), BuildingBlock: OJICUG_clean_linker_0, # of connection points: 2
#     Edge 78, Type (0, 0), BuildingBlock: OJICUG_clean_linker_0, # of connection points: 2
#     Edge 79, Type (0, 0), BuildingBlock: OJICUG_clean_linker_0, # of connection points: 2
#     Edge 80, Type (0, 0), BuildingBlock: OJICUG_clean_linker_0, # of connection points: 2
#     Edge 81, Type (0, 0), BuildingBlock: OJICUG_clean_linker_0, # of connection points: 2
#     Edge 82, Type (0, 0), BuildingBlock: OJICUG_clean_linker_0, # of connection points: 2
#     Edge 83, Type (0, 0), BuildingBlock: OJICUG_clean_linker_0, # of connection points: 2
#     Edge 84, Type (0, 0), BuildingBlock: OJICUG_clean_linker_0, # of connection points: 2
#     Edge 85, Type (0, 0), BuildingBlock: OJICUG_clean_linker_0, # of connection points: 2
#     Edge 86, Type (0, 0), BuildingBlock: OJICUG_clean_linker_0, # of connection points: 2
#     Edge 87, Type (0, 0), BuildingBlock: OJICUG_clean_linker_0, # of connection points: 2
#     Edge 88, Type (0, 0), BuildingBlock: OJICUG_clean_linker_0, # of connection points: 2
#     Edge 89, Type (0, 0), BuildingBlock: OJICUG_clean_linker_0, # of connection points: 2
#     Edge 90, Type (0, 0), BuildingBlock: OJICUG_clean_linker_0, # of connection points: 2
#     Edge 91, Type (0, 0), BuildingBlock: OJICUG_clean_linker_0, # of connection points: 2
#     Edge 92, Type (0, 0), BuildingBlock: OJICUG_clean_linker_0, # of connection points: 2
#     Edge 93, Type (0, 0), BuildingBlock: OJICUG_clean_linker_0, # of connection points: 2
#     Edge 94, Type (0, 0), BuildingBlock: OJICUG_clean_linker_0, # of connection points: 2
#     Edge 95, Type (0, 0), BuildingBlock: OJICUG_clean_linker_0, # of connection points: 2
#     Edge 96, Type (0, 0), BuildingBlock: OJICUG_clean_linker_0, # of connection points: 2
#     Edge 97, Type (0, 0), BuildingBlock: OJICUG_clean_linker_0, # of connection points: 2
#     Edge 98, Type (0, 0), BuildingBlock: OJICUG_clean_linker_0, # of connection points: 2
#     Edge 99, Type (0, 0), BuildingBlock: OJICUG_clean_linker_0, # of connection points: 2
#     Edge 100, Type (0, 0), BuildingBlock: OJICUG_clean_linker_0, # of connection points: 2
#     Edge 101, Type (0, 0), BuildingBlock: OJICUG_clean_linker_0, # of connection points: 2
#     Edge 102, Type (0, 0), BuildingBlock: OJICUG_clean_linker_0, # of connection points: 2
#     Edge 103, Type (0, 0), BuildingBlock: OJICUG_clean_linker_0, # of connection points: 2
#     Edge 104, Type (0, 0), BuildingBlock: OJICUG_clean_linker_0, # of connection points: 2
#     Edge 105, Type (0, 0), BuildingBlock: OJICUG_clean_linker_0, # of connection points: 2
#     Edge 106, Type (0, 0), BuildingBlock: OJICUG_clean_linker_0, # of connection points: 2
#     Edge 107, Type (0, 0), BuildingBlock: OJICUG_clean_linker_0, # of connection points: 2
#     Edge 108, Type (0, 0), BuildingBlock: OJICUG_clean_linker_0, # of connection points: 2
#     Edge 109, Type (0, 0), BuildingBlock: OJICUG_clean_linker_0, # of connection points: 2
#     Edge 110, Type (0, 0), BuildingBlock: OJICUG_clean_linker_0, # of connection points: 2
#     Edge 111, Type (0, 0), BuildingBlock: OJICUG_clean_linker_0, # of connection points: 2
# Relax obj value: 0.226
# Max RMSD: 0.179
# Mean RMSD: 0.179
data_MOF--net-soh--node1-XOMCOT_clean_sbu_1--edge1-OJICUG_clean_linker_0
_symmetry_space_group_name_H-M    P1
_symmetry_Int_Tables_number       1
_symmetry_cell_setting            triclinic
loop_
_symmetry_equiv_pos_as_xyz
'x, y, z'
_cell_length_a     59.975527
_cell_length_b     33.341623
_cell_length_c     35.022693
_cell_angle_alpha  89.978343
_cell_angle_beta   89.939854
_cell_angle_gamma 90.02471
loop_
_atom_site_label
_atom_site_type_symbol
_atom_site_fract_x
_atom_site_fract_y
_atom_site_fract_z
_atom_type_partial_charge
C0 C 0.30638 0.37517 0.23064 0.0
C1 C 0.30089 0.39137 0.26545 0.0
N2 N 0.31783 0.38446 0.28988 0.0
N3 N 0.32687 0.35871 0.23283 0.0
C4 C 0.33345 0.36495 0.26918 0.0
H5 H 0.29565 0.37354 0.20587 0.0
Co6 Co 0.33985 0.32428 0.19709 0.0
C7 C 0.38406 0.36886 0.19233 0.0
O8 O 0.37965 0.38274 0.15817 0.0
N9 N 0.35264 0.28766 0.1618 0.0
C10 C 0.3728 0.25717 0.1168 0.0
C11 C 0.36743 0.29346 0.13316 0.0
C12 C 0.3489 0.24756 0.16137 0.0
N13 N 0.3611 0.22833 0.13469 0.0
O14 O 0.34218 0.28471 0.23652 0.0
H15 H 0.3738 0.32201 0.12394 0.0
H16 H 0.33779 0.23228 0.18078 0.0
O17 O 0.37023 0.3457 0.20967 0.0
C18 C 0.32242 0.27123 0.24097 0.0
O19 O 0.30682 0.28313 0.21717 0.0
N20 N 0.33429 0.36233 0.15837 0.0
C21 C 0.31497 0.41618 0.10718 0.0
C22 C 0.32724 0.4301 0.13849 0.0
C23 C 0.33636 0.40275 0.16416 0.0
C24 C 0.32208 0.34839 0.12829 0.0
C25 C 0.31244 0.37478 0.10214 0.0
H26 H 0.3445 0.41408 0.18951 0.0
H27 H 0.31887 0.31663 0.1254 0.0
H28 H 0.34857 0.35232 0.28096 0.0
H29 H 0.28522 0.40561 0.2725 0.0
H30 H 0.38422 0.25243 0.09328 0.0
H31 H 0.32914 0.46193 0.14381 0.0
H32 H 0.30295 0.36291 0.07839 0.0
C33 C 1.04941 0.91571 0.23014 0.0
C34 C 0.05521 0.89939 0.26476 0.0
N35 N 1.03827 0.90539 0.28948 0.0
N36 N 1.02873 0.93133 0.23274 0.0
C37 C 1.02236 0.92449 0.26912 0.0
H38 H 0.06002 0.91798 0.20523 0.0
Co39 Co 1.01506 0.96561 0.19762 0.0
C40 C 0.97157 0.91844 0.19454 0.0
O41 O 0.97599 0.90422 0.16048 0.0
N42 N 1.00154 1.0021 0.16319 0.0
C43 C 0.97926 0.03387 0.12221 0.0
C44 C 0.98456 0.99738 0.13824 0.0
C45 C 1.00656 0.04166 0.16089 0.0
N46 N 0.99311 0.06172 0.13664 0.0
O47 O 1.01267 1.00479 0.23737 0.0
H48 H 0.97627 0.96961 0.13189 0.0
H49 H 1.01939 0.05601 0.17762 0.0
O50 O 0.98505 0.94291 0.21102 0.0
C51 C 1.03234 1.01885 0.2413 0.0
O52 O 1.04787 1.00749 0.21708 0.0
N53 N 1.02065 0.92812 0.1583 0.0
C54 C 1.03954 0.87568 0.10531 0.0
C55 C 1.02838 0.86088 0.13748 0.0
C56 C 1.01951 0.88756 0.16405 0.0
C57 C 1.0318 0.94291 0.12732 0.0
C58 C 1.04124 0.91721 0.10031 0.0
H59 H 1.01217 0.87558 0.18987 0.0
H60 H 1.03436 0.97484 0.12427 0.0
H61 H 1.00713 0.93643 0.28118 0.0
H62 H 0.07107 0.88567 0.27147 0.0
H63 H 0.96619 0.03947 0.10159 0.0
H64 H 1.02714 0.82893 0.14269 0.0
H65 H 1.04992 0.92969 0.0759 0.0
C66 C 0.30417 0.92328 0.01017 0.0
C67 C 0.29799 0.90749 0.97549 0.0
N68 N 0.3155 0.9101 0.95135 0.0
N69 N 0.32563 0.93509 0.00827 0.0
C70 C 0.33206 0.92674 0.97219 0.0
H71 H 0.29345 0.92755 0.03469 0.0
Co72 Co 0.34108 0.96657 0.04351 0.0
C73 C 0.38127 0.91207 0.04825 0.0
O74 O 0.37602 0.90151 0.08321 0.0
N75 N 0.35658 1.00087 0.07789 0.0
C76 C 0.3826 0.03508 0.10969 0.0
C77 C 0.3774 0.99908 0.09263 0.0
C78 C 0.34948 0.03822 0.08718 0.0
N79 N 0.36501 0.05976 0.10601 0.0
O80 O 0.34578 1.00497 0.00406 0.0
H81 H 0.38888 0.97454 0.08967 0.0
H82 H 0.33363 0.05046 0.07842 0.0
O83 O 0.36947 0.9382 0.03045 0.0
C84 C 0.32769 0.02508 0.00325 0.0
O85 O 0.31184 1.01609 0.02778 0.0
N86 N 0.33327 0.93042 0.08306 0.0
C87 C 0.31222 0.88271 0.13789 0.0
C88 C 0.32132 0.86542 0.10494 0.0
C89 C 0.33159 0.88983 0.07768 0.0
C90 C 0.32394 0.94759 0.11464 0.0
C91 C 0.31372 0.92429 0.14264 0.0
H92 H 0.33787 0.87617 0.05181 0.0
H93 H 0.32335 0.97976 0.11761 0.0
H94 H 0.34808 0.93563 0.96078 0.0
H95 H 0.28158 0.89628 0.96845 0.0
H96 H 0.39842 0.04297 0.12251 0.0
H97 H 0.3205 0.83334 0.10023 0.0
H98 H 0.30638 0.93889 0.16726 0.0
C99 C 1.05104 0.36777 0.01011 0.0
C100 C 0.05705 0.38295 0.97506 0.0
N101 N 1.03953 0.37935 0.95114 0.0
N102 N 1.02967 0.35538 0.00863 0.0
C103 C 1.02312 0.36281 0.97245 0.0
H104 H 0.06186 0.36413 0.03455 0.0
Co105 Co 1.01479 0.32349 0.04435 0.0
C106 C 0.97375 0.37677 0.04737 0.0
O107 O 0.9793 0.39123 0.08084 0.0
N108 N 0.99987 0.28896 0.07917 0.0
C109 C 0.97486 0.25676 0.11506 0.0
C110 C 0.98019 0.29262 0.09772 0.0
C111 C 1.0063 0.2508 0.08664 0.0
N112 N 0.99133 0.23045 0.10789 0.0
O113 O 1.0106 0.28459 0.00523 0.0
H114 H 0.96974 0.31884 0.09787 0.0
H115 H 1.02126 0.2373 0.0753 0.0
O116 O 0.98584 0.34983 0.03129 0.0
C117 C 1.02898 0.26542 0.00395 0.0
O118 O 1.0448 0.27491 0.02832 0.0
N119 N 1.02213 0.36034 0.08362 0.0
C120 C 1.04289 0.40875 0.13817 0.0
C121 C 1.03388 0.42565 0.10497 0.0
C122 C 1.02378 0.40089 0.07786 0.0
C123 C 1.03142 0.34357 0.11543 0.0
C124 C 1.04147 0.36722 0.1433 0.0
H125 H 1.01759 0.41426 0.0518 0.0
H126 H 1.03213 0.31143 0.1187 0.0
H127 H 1.0072 0.35312 0.96127 0.0
H128 H 0.07338 0.39428 0.96758 0.0
H129 H 0.95979 0.2503 0.13096 0.0
H130 H 1.03467 0.45768 0.09995 0.0
H131 H 1.04876 0.3529 0.16809 0.0
C132 C 0.80184 0.67029 0.7617 0.0
C133 C 0.80781 0.65431 0.72698 0.0
N134 N 0.79041 0.65804 0.70284 0.0
N135 N 0.78061 0.68336 0.7598 0.0
C136 C 0.7741 0.67545 0.7237 0.0
H137 H 0.81263 0.67405 0.78617 0.0
Co138 Co 0.76587 0.71642 0.79488 0.0
C139 C 0.72458 0.66384 0.79842 0.0
O140 O 0.72998 0.65003 0.83222 0.0
N141 N 0.75111 0.75175 0.82893 0.0
C142 C 0.72693 0.78323 0.86686 0.0
C143 C 0.7324 0.74722 0.85004 0.0
C144 C 0.75685 0.79066 0.83418 0.0
N145 N 0.74233 0.81056 0.85672 0.0
O146 O 0.76228 0.75497 0.75506 0.0
H147 H 0.72284 0.72006 0.85273 0.0
H148 H 0.77099 0.80477 0.82056 0.0
O149 O 0.73675 0.69042 0.78191 0.0
C150 C 0.78158 0.77092 0.7525 0.0
O151 O 0.79685 0.76087 0.77767 0.0
N152 N 0.77278 0.68007 0.8347 0.0
C153 C 0.79376 0.63202 0.8892 0.0
C154 C 0.78439 0.61487 0.85645 0.0
C155 C 0.77419 0.63944 0.82935 0.0
C156 C 0.78228 0.69708 0.8662 0.0
C157 C 0.79246 0.6736 0.89406 0.0
H158 H 0.76782 0.62584 0.80353 0.0
H159 H 0.7831 0.72927 0.86912 0.0
H160 H 0.75831 0.68544 0.7122 0.0
H161 H 0.82406 0.64238 0.71985 0.0
H162 H 0.71257 0.78894 0.88481 0.0
H163 H 0.78503 0.58279 0.8517 0.0
H164 H 0.8 0.68807 0.91856 0.0
C165 C 0.0554 0.12308 0.76282 0.0
C166 C 1.04947 0.13957 0.72833 0.0
N167 N 0.06675 0.13549 0.70393 0.0
N168 N 0.07649 0.10932 0.76054 0.0
C169 C 0.08297 0.11738 0.72442 0.0
H170 H 1.04462 0.11934 0.78736 0.0
Co171 Co 0.09083 0.07517 0.79511 0.0
C172 C 0.13273 0.12624 0.79935 0.0
O173 O 0.12745 0.14002 0.83322 0.0
N174 N 0.10511 0.03882 0.82862 0.0
C175 C 0.129 1.00568 0.86572 0.0
C176 C 0.12395 0.0422 0.84953 0.0
C177 C 0.09885 1.00009 0.83339 0.0
N178 N 0.11318 0.97922 0.85541 0.0
O179 O 0.0942 0.03721 0.75469 0.0
H180 H 0.13389 0.06888 0.85242 0.0
H181 H 0.0845 0.98683 0.81971 0.0
O182 O 0.12024 0.10036 0.78262 0.0
C183 C 0.07483 0.0218 0.75121 0.0
O184 O 0.05928 0.03188 0.77591 0.0
N185 N 0.08417 0.11101 0.83548 0.0
C186 C 0.0629 0.15861 0.89008 0.0
C187 C 0.07287 0.17611 0.85797 0.0
C188 C 0.08322 0.15178 0.83081 0.0
C189 C 0.07423 0.09369 0.86647 0.0
C190 C 0.06388 0.11692 0.89436 0.0
H191 H 0.08993 0.16566 0.80535 0.0
H192 H 0.07308 0.06148 0.86882 0.0
H193 H 0.09858 0.10691 0.71258 0.0
H194 H 1.03331 0.15199 0.72146 0.0
H195 H 0.14336 0.99898 0.88329 0.0
H196 H 0.0725 0.20828 0.85367 0.0
H197 H 0.0559 0.1022 0.91835 0.0
C198 C 0.80083 0.12113 0.98066 0.0
C199 C 0.80694 0.13782 0.01496 0.0
N200 N 0.78972 0.13421 0.03955 0.0
N201 N 0.77967 0.10774 0.98326 0.0
C202 C 0.77335 0.11616 0.01936 0.0
H203 H 0.81148 0.11712 0.95601 0.0
Co204 Co 0.765 0.07399 0.9488 0.0
C205 C 0.72328 0.1257 0.94526 0.0
O206 O 0.7285 0.13974 0.91145 0.0
N207 N 0.75042 0.03804 0.91532 0.0
C208 C 0.72657 1.00593 0.87734 0.0
C209 C 0.73187 0.04221 0.89381 0.0
C210 C 0.75625 0.9991 0.91071 0.0
N211 N 0.74193 0.97882 0.88814 0.0
O212 O 0.76153 0.03593 0.98922 0.0
H213 H 0.72238 0.06935 0.89049 0.0
H214 H 0.77033 0.98533 0.92474 0.0
O215 O 0.73574 0.09956 0.96169 0.0
C216 C 0.78078 1.02006 0.99284 0.0
O217 O 0.79647 0.02979 0.96827 0.0
N218 N 0.7717 0.10994 0.90845 0.0
C219 C 0.79295 0.15767 0.85383 0.0
C220 C 0.78316 0.17506 0.88612 0.0
C221 C 0.77282 0.15067 0.91328 0.0
C222 C 0.78147 0.0927 0.87728 0.0
C223 C 0.79181 0.116 0.84937 0.0
H224 H 0.76626 0.16448 0.93888 0.0
H225 H 0.78246 0.06049 0.87476 0.0
H226 H 0.75769 0.1061 0.03139 0.0
H227 H 0.82317 0.15014 0.02153 0.0
H228 H 0.71241 0.99992 0.85909 0.0
H229 H 0.78364 0.2072 0.89056 0.0
H230 H 0.79964 0.10134 0.82524 0.0
C231 C 0.05602 0.6662 0.98076 0.0
C232 C 1.05033 0.65 0.0155 0.0
N233 N 0.06734 0.65613 0.03998 0.0
N234 N 0.07671 0.68184 0.98302 0.0
C235 C 0.08318 0.67522 0.01937 0.0
H236 H 1.04536 0.66822 0.95594 0.0
Co237 Co 0.09029 0.71553 0.94718 0.0
C238 C 0.13381 0.66855 0.94464 0.0
O239 O 0.12923 0.65333 0.91106 0.0
N240 N 0.10369 0.75144 0.91198 0.0
C241 C 0.12616 0.78279 0.8709 0.0
C242 C 0.12107 0.74663 0.88779 0.0
C243 C 0.09824 0.79069 0.90833 0.0
N244 N 0.11178 0.8105 0.88399 0.0
O245 O 0.09253 0.75552 0.98612 0.0
H246 H 0.12985 0.71907 0.8827 0.0
H247 H 0.08507 0.80511 0.92427 0.0
O248 O 0.1204 0.69344 0.96072 0.0
C249 C 0.07277 0.76942 0.98916 0.0
O250 O 0.0576 0.75737 0.96461 0.0
N251 N 0.08474 0.67725 0.90862 0.0
C252 C 0.06543 0.62387 0.85704 0.0
C253 C 0.07666 0.60965 0.88932 0.0
C254 C 0.08576 0.63681 0.91517 0.0
C255 C 0.07358 0.69147 0.87746 0.0
C256 C 0.06394 0.66529 0.85113 0.0
H257 H 0.09314 0.62533 0.94113 0.0
H258 H 0.07109 0.72334 0.8738 0.0
H259 H 0.09848 0.68713 0.03116 0.0
H260 H 1.03452 0.63616 0.0224 0.0
H261 H 0.13952 0.78832 0.85077 0.0
H262 H 0.07776 0.57781 0.89521 0.0
H263 H 0.05524 0.67734 0.82659 0.0
C264 C 0.30516 0.86743 0.73114 0.0
C265 C 0.2988 0.88314 0.76577 0.0
N266 N 0.31611 0.88012 0.79021 0.0
N267 N 0.32655 0.85529 0.73335 0.0
C268 C 0.33275 0.86334 0.76959 0.0
H269 H 0.29458 0.8634 0.70644 0.0
Co270 Co 0.34183 0.82349 0.69811 0.0
C271 C 0.38263 0.87709 0.69439 0.0
O272 O 0.37738 0.88947 0.66001 0.0
N273 N 0.35709 0.78891 0.66371 0.0
C274 C 0.3826 0.75533 0.63013 0.0
C275 C 0.37744 0.79137 0.64718 0.0
C276 C 0.35017 0.7512 0.6554 0.0
N277 N 0.36543 0.73002 0.63554 0.0
O278 O 0.34607 0.7849 0.73752 0.0
H279 H 0.38854 0.81666 0.64853 0.0
H280 H 0.33466 0.73855 0.66537 0.0
O281 O 0.37054 0.85073 0.71138 0.0
C282 C 0.3278 0.76532 0.7386 0.0
O283 O 0.312 0.77454 0.71411 0.0
N284 N 0.33451 0.85999 0.65859 0.0
C285 C 0.31359 0.90826 0.60415 0.0
C286 C 0.32274 0.92524 0.63718 0.0
C287 C 0.33295 0.90056 0.66422 0.0
C288 C 0.32522 0.84314 0.62684 0.0
C289 C 0.31506 0.86673 0.59903 0.0
H290 H 0.33922 0.91399 0.69019 0.0
H291 H 0.32455 0.81099 0.62364 0.0
H292 H 0.34863 0.8541 0.78126 0.0
H293 H 0.2824 0.89455 0.77256 0.0
H294 H 0.39809 0.74796 0.61587 0.0
H295 H 0.32195 0.95727 0.64215 0.0
H296 H 0.3077 0.85237 0.57432 0.0
C297 C 1.05 0.41613 0.73017 0.0
C298 C 0.05592 0.39973 0.76472 0.0
N299 N 1.0388 0.40458 0.78933 0.0
N300 N 1.02906 0.4306 0.73262 0.0
C301 C 1.02268 0.42305 0.76889 0.0
H302 H 0.06071 0.41934 0.70547 0.0
Co303 Co 1.01494 0.4652 0.69809 0.0
C304 C 0.97248 0.41548 0.6948 0.0
O305 O 0.97752 0.4009 0.66114 0.0
N306 N 1.00087 0.50199 0.66469 0.0
C307 C 0.97724 0.5352 0.62716 0.0
C308 C 0.98221 0.49862 0.64334 0.0
C309 C 1.00712 0.54077 0.66021 0.0
N310 N 0.99294 0.56169 0.63793 0.0
O311 O 1.01219 0.50334 0.73843 0.0
H312 H 0.97239 0.47184 0.64002 0.0
H313 H 1.02138 0.55401 0.6742 0.0
O314 O 0.98531 0.44117 0.71105 0.0
C315 C 1.03177 0.51804 0.74144 0.0
O316 O 1.047 0.50733 0.7164 0.0
N317 N 1.02104 0.42906 0.65763 0.0
C318 C 1.04159 0.38096 0.6026 0.0
C319 C 1.03176 0.3637 0.63495 0.0
C320 C 1.02174 0.38828 0.6623 0.0
C321 C 1.03087 0.44612 0.62639 0.0
C322 C 1.04083 0.42264 0.59827 0.0
H323 H 1.01512 0.37457 0.68791 0.0
H324 H 1.03224 0.47829 0.62397 0.0
H325 H 1.00723 0.43414 0.78087 0.0
H326 H 0.07198 0.38684 0.77145 0.0
H327 H 0.96304 0.54188 0.60921 0.0
H328 H 1.03201 0.33153 0.63929 0.0
H329 H 1.04872 0.43716 0.57409 0.0
C330 C 0.30562 0.41713 0.51065 0.0
C331 C 0.30009 0.40108 0.4758 0.0
N332 N 0.31734 0.40688 0.45166 0.0
N333 N 0.32641 0.43238 0.50876 0.0
C334 C 0.33314 0.42559 0.47257 0.0
H335 H 0.29476 0.41946 0.53524 0.0
Co336 Co 0.33992 0.46613 0.54449 0.0
C337 C 0.38313 0.41844 0.54856 0.0
O338 O 0.37833 0.40429 0.5825 0.0
N339 N 0.35329 0.50215 0.57959 0.0
C340 C 0.37497 0.53284 0.62226 0.0
C341 C 0.36951 0.49662 0.60585 0.0
C342 C 0.34886 0.54196 0.58149 0.0
N343 N 0.36196 0.56136 0.60675 0.0
O344 O 0.3428 0.50563 0.50509 0.0
H345 H 0.37708 0.4684 0.613 0.0
H346 H 0.3367 0.55695 0.56385 0.0
O347 O 0.36993 0.44312 0.53172 0.0
C348 C 0.32319 0.5199 0.50103 0.0
O349 O 0.30756 0.50859 0.52509 0.0
N350 N 0.33382 0.42833 0.5833 0.0
C351 C 0.31441 0.37545 0.63538 0.0
C352 C 0.32571 0.36093 0.60325 0.0
C353 C 0.33485 0.38783 0.57716 0.0
C354 C 0.32248 0.44287 0.61416 0.0
C355 C 0.3128 0.41694 0.64075 0.0
H356 H 0.34238 0.37608 0.55141 0.0
H357 H 0.32001 0.47479 0.61746 0.0
H358 H 0.34857 0.43729 0.46102 0.0
H359 H 0.28422 0.38771 0.4685 0.0
H360 H 0.38752 0.53778 0.64394 0.0
H361 H 0.3269 0.32903 0.59775 0.0
H362 H 0.30404 0.42923 0.66515 0.0
C363 C 1.05106 0.87192 0.5102 0.0
C364 C 0.05665 0.88745 0.47512 0.0
N365 N 1.0393 0.88192 0.45121 0.0
N366 N 1.03013 0.85727 0.50868 0.0
C367 C 1.02339 0.86385 0.47247 0.0
H368 H 0.06194 0.8696 0.53472 0.0
Co369 Co 1.01634 0.82445 0.54497 0.0
C370 C 0.97359 0.87357 0.54811 0.0
O371 O 0.97853 0.88816 0.5818 0.0
N372 N 1.0027 0.78926 0.58057 0.0
C373 C 0.97976 0.75803 0.62094 0.0
C374 C 0.9849 0.79405 0.60382 0.0
C375 C 1.00833 0.75017 0.585 0.0
N376 N 0.9945 0.73042 0.60892 0.0
O377 O 1.01327 0.78432 0.50626 0.0
H378 H 0.97572 0.82138 0.60787 0.0
H379 H 1.02178 0.73579 0.56975 0.0
O380 O 0.98649 0.84798 0.53178 0.0
C381 C 1.0328 0.76954 0.50265 0.0
O382 O 1.04839 0.78098 0.52668 0.0
N383 N 1.02261 0.8628 0.58323 0.0
C384 C 1.04219 0.91614 0.63464 0.0
C385 C 1.03136 0.93033 0.60195 0.0
C386 C 1.02211 0.9032 0.57623 0.0
C387 C 1.03347 0.84855 0.61469 0.0
C388 C 1.04322 0.87472 0.64095 0.0
H389 H 1.01488 0.91468 0.55015 0.0
H390 H 1.03553 0.81665 0.61878 0.0
H391 H 1.00781 0.85254 0.46124 0.0
H392 H 0.0726 0.90039 0.46758 0.0
H393 H 0.96603 0.75249 0.64035 0.0
H394 H 1.0306 0.96213 0.59572 0.0
H395 H 1.05159 0.86265 0.66582 0.0
C396 C 0.802 0.17342 0.25981 0.0
C397 C 0.80796 0.15823 0.22479 0.0
N398 N 0.79051 0.16232 0.20079 0.0
N399 N 0.78072 0.18628 0.25825 0.0
C400 C 0.77418 0.1792 0.22202 0.0
H401 H 0.81275 0.17648 0.28442 0.0
Co402 Co 0.76603 0.21734 0.29469 0.0
C403 C 0.72446 0.16509 0.29746 0.0
O404 O 0.72968 0.15113 0.33129 0.0
N405 N 0.75143 0.25121 0.33057 0.0
C406 C 0.72689 0.28235 0.3682 0.0
C407 C 0.7324 0.24662 0.35085 0.0
C408 C 0.75733 0.28987 0.33709 0.0
N409 N 0.74256 0.30965 0.35925 0.0
O410 O 0.762 0.25736 0.25637 0.0
H411 H 0.72244 0.21988 0.35224 0.0
H412 H 0.77166 0.30413 0.32433 0.0
O413 O 0.73681 0.19159 0.28113 0.0
C414 C 0.7805 0.27618 0.25465 0.0
O415 O 0.79644 0.26634 0.27866 0.0
N416 N 0.7731 0.17904 0.3327 0.0
C417 C 0.79273 0.12623 0.38459 0.0
C418 C 0.78277 0.11183 0.35118 0.0
C419 C 0.7735 0.13873 0.32525 0.0
C420 C 0.78321 0.19354 0.36478 0.0
C421 C 0.79299 0.16762 0.39127 0.0
H422 H 0.76679 0.12714 0.29881 0.0
H423 H 0.78456 0.22549 0.36934 0.0
H424 H 0.75831 0.1891 0.21084 0.0
H425 H 0.82418 0.14636 0.21744 0.0
H426 H 0.71219 0.28798 0.38533 0.0
H427 H 0.78262 0.08006 0.3447 0.0
H428 H 0.8007 0.17986 0.41669 0.0
C429 C 0.05547 0.61911 0.26048 0.0
C430 C 1.04961 0.63487 0.22565 0.0
N431 N 0.06696 0.63037 0.20147 0.0
N432 N 0.07658 0.60543 0.25857 0.0
C433 C 0.08314 0.61269 0.22235 0.0
H434 H 1.04472 0.6161 0.28513 0.0
Co435 Co 0.0909 0.57314 0.2944 0.0
C436 C 0.13319 0.62356 0.29724 0.0
O437 O 0.1283 0.63753 0.33123 0.0
N438 N 0.10509 0.53808 0.32966 0.0
C439 C 0.12918 0.50572 0.36712 0.0
C440 C 0.12399 0.5419 0.35035 0.0
C441 C 0.09892 0.49941 0.33537 0.0
N442 N 0.11341 0.4789 0.35741 0.0
O443 O 0.09437 0.53361 0.25547 0.0
H444 H 0.13405 0.56848 0.35246 0.0
H445 H 0.08459 0.48569 0.32214 0.0
O446 O 0.12041 0.5978 0.28091 0.0
C447 C 0.07563 0.51562 0.25345 0.0
O448 O 0.0598 0.52568 0.27763 0.0
N449 N 0.08439 0.61105 0.33303 0.0
C450 C 0.06503 0.66365 0.38547 0.0
C451 C 0.07538 0.67827 0.35244 0.0
C452 C 0.08452 0.65149 0.32623 0.0
C453 C 0.07396 0.59637 0.36479 0.0
C454 C 0.06431 0.62217 0.39154 0.0
H455 H 0.09143 0.66329 0.29999 0.0
H456 H 0.0722 0.5644 0.36882 0.0
H457 H 0.09884 0.60221 0.21085 0.0
H458 H 1.03349 0.6473 0.21848 0.0
H459 H 0.14371 0.49946 0.38442 0.0
H460 H 0.07589 0.71013 0.34641 0.0
H461 H 0.0563 0.60977 0.41665 0.0
C462 C 0.8011 0.61859 0.48229 0.0
C463 C 0.8073 0.63443 0.51692 0.0
N464 N 0.78997 0.63104 0.54133 0.0
N465 N 0.77978 0.60601 0.48448 0.0
C466 C 0.77346 0.61398 0.52068 0.0
H467 H 0.81178 0.61459 0.45767 0.0
Co468 Co 0.76485 0.57328 0.44963 0.0
C469 C 0.72365 0.62625 0.44572 0.0
O470 O 0.7291 0.6397 0.41179 0.0
N471 N 0.74995 0.53786 0.41567 0.0
C472 C 0.72525 0.50514 0.37972 0.0
C473 C 0.73059 0.54141 0.39621 0.0
C474 C 0.75616 0.49929 0.40967 0.0
N475 N 0.74135 0.47859 0.38843 0.0
O476 O 0.76084 0.53513 0.48968 0.0
H477 H 0.72042 0.56794 0.39471 0.0
H478 H 0.77086 0.48589 0.42195 0.0
O479 O 0.73581 0.59985 0.46244 0.0
C480 C 0.77932 0.51627 0.49145 0.0
O481 O 0.79512 0.52544 0.46689 0.0
N482 N 0.77202 0.60939 0.40953 0.0
C483 C 0.79299 0.65713 0.35449 0.0
C484 C 0.78375 0.67445 0.38731 0.0
C485 C 0.77354 0.65005 0.41465 0.0
C486 C 0.78138 0.59221 0.37796 0.0
C487 C 0.79155 0.61551 0.34986 0.0
H488 H 0.76724 0.6638 0.44047 0.0
H489 H 0.78208 0.56001 0.37513 0.0
H490 H 0.75766 0.60428 0.53239 0.0
H491 H 0.82366 0.64602 0.5238 0.0
H492 H 0.71044 0.49868 0.36318 0.0
H493 H 0.78448 0.70654 0.39193 0.0
H494 H 0.79897 0.60087 0.32533 0.0
C495 C 0.05514 0.17074 0.48296 0.0
C496 C 1.04919 0.15571 0.51807 0.0
N497 N 0.06649 0.16066 0.54223 0.0
N498 N 0.07627 0.1844 0.48466 0.0
C499 C 0.08273 0.17787 0.52103 0.0
H500 H 1.04444 0.17329 0.45823 0.0
Co501 Co 0.09073 0.21611 0.44839 0.0
C502 C 0.13284 0.1653 0.44601 0.0
O503 O 0.12794 0.15118 0.4121 0.0
N504 N 0.10506 0.25062 0.41272 0.0
C505 C 0.12949 0.28287 0.37569 0.0
C506 C 0.12426 0.24685 0.39277 0.0
C507 C 0.09878 0.28909 0.40625 0.0
N508 N 0.11347 0.30954 0.38447 0.0
O509 O 0.09426 0.2561 0.4868 0.0
H510 H 0.13454 0.22049 0.39151 0.0
H511 H 0.08424 0.30277 0.41885 0.0
O512 O 0.12014 0.19133 0.46215 0.0
C513 C 0.07558 0.27429 0.48842 0.0
O514 O 0.05978 0.26399 0.46431 0.0
N515 N 0.08413 0.17778 0.4102 0.0
C516 C 0.06474 0.12481 0.35818 0.0
C517 C 0.07499 0.11043 0.39135 0.0
C518 C 0.08413 0.1374 0.41737 0.0
C519 C 0.0738 0.19221 0.37829 0.0
C520 C 0.06414 0.16623 0.35175 0.0
H521 H 0.09096 0.12582 0.44373 0.0
H522 H 0.07213 0.22415 0.37397 0.0
H523 H 0.09842 0.18853 0.53234 0.0
H524 H 1.03304 0.14344 0.52538 0.0
H525 H 0.14426 0.28918 0.35894 0.0
H526 H 0.07541 0.07862 0.39765 0.0
H527 H 0.05621 0.17845 0.32653 0.0
C528 C 0.80422 0.36733 0.73332 0.0
C529 C 0.79816 0.38302 0.7681 0.0
N530 N 0.81566 0.3799 0.79212 0.0
N531 N 0.82561 0.35512 0.73502 0.0
C532 C 0.83211 0.3631 0.77111 0.0
H533 H 0.79344 0.36336 0.70886 0.0
Co534 Co 0.84057 0.32335 0.69941 0.0
C535 C 0.88152 0.37697 0.69607 0.0
O536 O 0.87592 0.39114 0.6625 0.0
N537 N 0.85555 0.28892 0.66459 0.0
C538 C 0.88052 0.25711 0.62836 0.0
C539 C 0.87509 0.29292 0.64565 0.0
C540 C 0.84931 0.25059 0.6574 0.0
N541 N 0.86427 0.23047 0.63597 0.0
O542 O 0.84485 0.2845 0.73863 0.0
H543 H 0.88537 0.31936 0.64516 0.0
H544 H 0.8345 0.23684 0.66905 0.0
O545 O 0.8695 0.35003 0.71236 0.0
C546 C 0.82651 0.26515 0.73999 0.0
O547 O 0.81066 0.27449 0.71563 0.0
N548 N 0.83313 0.36012 0.66014 0.0
C549 C 0.81197 0.40853 0.60602 0.0
C550 C 0.82121 0.42542 0.63902 0.0
C551 C 0.8315 0.40066 0.66593 0.0
C552 C 0.82369 0.34335 0.62848 0.0
C553 C 0.8134 0.36699 0.60085 0.0
H554 H 0.83781 0.41403 0.6919 0.0
H555 H 0.82301 0.31119 0.62522 0.0
H556 H 0.84806 0.35378 0.78242 0.0
H557 H 0.78182 0.39446 0.77531 0.0
H558 H 0.89551 0.25095 0.61216 0.0
H559 H 0.82046 0.45743 0.64407 0.0
H560 H 0.80594 0.35265 0.57622 0.0
C561 C 0.5506 0.91841 0.73191 0.0
C562 C 0.55618 0.90206 0.76665 0.0
N563 N 0.53874 0.90662 0.79063 0.0
N564 N 0.52958 0.93259 0.73366 0.0
C565 C 0.52278 0.92484 0.76968 0.0
H566 H 0.56159 0.92188 0.70762 0.0
Co567 Co 0.51576 0.9672 0.69889 0.0
C568 C 0.47339 0.91719 0.69464 0.0
O569 O 0.47875 0.9022 0.66128 0.0
N570 N 0.50193 1.00394 0.66526 0.0
C571 C 0.47867 0.03652 0.62658 0.0
C572 C 0.48377 1.0 0.64275 0.0
C573 C 0.50777 0.043 0.66149 0.0
N574 N 0.4938 0.06354 0.63852 0.0
O575 O 0.5125 1.00519 0.73937 0.0
H576 H 0.47443 0.97279 0.63855 0.0
H577 H 0.52157 0.05665 0.67643 0.0
O578 O 0.48605 0.94305 0.71098 0.0
C579 C 0.53193 1.02014 0.74359 0.0
O580 O 0.54768 1.00988 0.71935 0.0
N581 N 0.5223 0.93118 0.65841 0.0
C582 C 0.54289 0.88328 0.60317 0.0
C583 C 0.53309 0.86591 0.63549 0.0
C584 C 0.52305 0.89038 0.66294 0.0
C585 C 0.5322 0.94837 0.6273 0.0
C586 C 0.54217 0.925 0.59907 0.0
H587 H 0.51638 0.87654 0.68845 0.0
H588 H 0.53356 0.98056 0.62499 0.0
H589 H 0.50717 0.93575 0.78119 0.0
H590 H 0.57224 0.88953 0.77404 0.0
H591 H 0.4648 0.04277 0.60776 0.0
H592 H 0.5333 0.83372 0.63969 0.0
H593 H 0.55005 0.93963 0.57494 0.0
C594 C 0.80618 0.91807 0.51298 0.0
C595 C 0.80014 0.90155 0.47859 0.0
N596 N 0.81712 0.90659 0.45375 0.0
N597 N 0.82706 0.93277 0.51017 0.0
C598 C 0.83329 0.92532 0.47384 0.0
H599 H 0.79565 0.92091 0.53793 0.0
Co600 Co 0.84121 0.96631 0.54536 0.0
C601 C 0.88404 0.91743 0.54861 0.0
O602 O 0.87938 0.90375 0.5828 0.0
N603 N 0.8551 1.00221 0.57989 0.0
C604 C 0.87802 0.03427 0.61961 0.0
C605 C 0.87282 0.99786 0.60336 0.0
C606 C 0.8496 0.04146 0.58331 0.0
N607 N 0.86341 0.06173 0.60679 0.0
O608 O 0.84409 1.00555 0.50577 0.0
H609 H 0.88183 0.97051 0.60828 0.0
H610 H 0.83618 0.0555 0.56773 0.0
O611 O 0.87095 0.94243 0.53193 0.0
C612 C 0.8246 1.02037 0.50187 0.0
O613 O 0.80892 1.00947 0.52602 0.0
N614 N 0.83521 0.9288 0.58448 0.0
C615 C 0.81551 0.87627 0.63656 0.0
C616 C 0.82649 0.86157 0.60421 0.0
C617 C 0.83581 0.88829 0.57817 0.0
C618 C 0.82431 0.94355 0.61571 0.0
C619 C 0.81447 0.91778 0.6423 0.0
H620 H 0.84305 0.8764 0.55224 0.0
H621 H 0.82223 0.97552 0.61927 0.0
H622 H 0.8487 0.9364 0.46168 0.0
H623 H 0.78413 0.88825 0.47217 0.0
H624 H 0.89163 0.04013 0.63912 0.0
H625 H 0.82725 0.82968 0.59843 0.0
H626 H 0.80599 0.93022 0.66691 0.0
C627 C 0.55031 0.37493 0.51173 0.0
C628 C 0.55612 0.39015 0.47663 0.0
N629 N 0.53908 0.38381 0.45224 0.0
N630 N 0.52951 0.35971 0.50979 0.0
C631 C 0.5231 0.36562 0.47329 0.0
H632 H 0.56097 0.37319 0.53657 0.0
Co633 Co 0.5156 0.32667 0.54589 0.0
C634 C 0.47269 0.37524 0.54823 0.0
O635 O 0.47734 0.38958 0.58215 0.0
N636 N 0.50184 0.29126 0.58124 0.0
C637 C 0.47855 0.25932 0.62055 0.0
C638 C 0.48351 0.29541 0.60341 0.0
C639 C 0.50792 0.25248 0.58635 0.0
N640 N 0.49391 0.2323 0.60962 0.0
O641 O 0.51309 0.28644 0.50727 0.0
H642 H 0.4738 0.32225 0.6066 0.0
H643 H 0.52184 0.23855 0.57196 0.0
O644 O 0.48576 0.34983 0.53204 0.0
C645 C 0.53278 0.27215 0.50482 0.0
O646 O 0.54783 0.28417 0.5296 0.0
N647 N 0.52143 0.36505 0.58424 0.0
C648 C 0.54032 0.41829 0.63637 0.0
C649 C 0.52968 0.43258 0.60355 0.0
C650 C 0.52081 0.40547 0.57742 0.0
C651 C 0.53213 0.35076 0.61585 0.0
C652 C 0.54155 0.37688 0.64245 0.0
H653 H 0.51374 0.41698 0.55121 0.0
H654 H 0.53434 0.31887 0.61978 0.0
H655 H 0.50774 0.35372 0.46176 0.0
H656 H 0.57204 0.40341 0.46944 0.0
H657 H 0.46451 0.25329 0.63912 0.0
H658 H 0.5288 0.46442 0.59757 0.0
H659 H 0.54984 0.36479 0.6674 0.0
C660 C 0.30085 0.67285 0.25967 0.0
C661 C 0.30696 0.65786 0.22464 0.0
N662 N 0.2897 0.66251 0.20034 0.0
N663 N 0.27967 0.68617 0.25779 0.0
C664 C 0.27333 0.6795 0.22139 0.0
H665 H 0.31149 0.67559 0.28446 0.0
Co666 Co 0.26505 0.71761 0.29405 0.0
C667 C 0.22316 0.66625 0.29685 0.0
O668 O 0.22812 0.65262 0.33093 0.0
N669 N 0.25062 0.75191 0.32972 0.0
C670 C 0.2261 0.78431 0.36639 0.0
C671 C 0.23127 0.7483 0.34927 0.0
C672 C 0.25703 0.79027 0.33644 0.0
N673 N 0.24229 0.81082 0.358 0.0
O674 O 0.26123 0.7575 0.2556 0.0
H675 H 0.22082 0.72214 0.35016 0.0
H676 H 0.2717 0.80382 0.32412 0.0
O677 O 0.23575 0.69229 0.28042 0.0
C678 C 0.27978 0.7761 0.25362 0.0
O679 O 0.29578 0.76615 0.27748 0.0
N680 N 0.27185 0.67936 0.33223 0.0
C681 C 0.29125 0.62636 0.3842 0.0
C682 C 0.28108 0.61203 0.35095 0.0
C683 C 0.27192 0.63901 0.32497 0.0
C684 C 0.28212 0.69378 0.36419 0.0
C685 C 0.29179 0.66777 0.39071 0.0
H686 H 0.2651 0.62745 0.2986 0.0
H687 H 0.28371 0.72572 0.36859 0.0
H688 H 0.2576 0.68988 0.20996 0.0
H689 H 0.32317 0.6458 0.21749 0.0
H690 H 0.21124 0.79072 0.38285 0.0
H691 H 0.28071 0.58023 0.34459 0.0
H692 H 0.29966 0.67995 0.41601 0.0
C693 C 0.55696 0.1287 0.26432 0.0
C694 C 0.55133 0.14579 0.22995 0.0
N695 N 0.56815 0.13942 0.20506 0.0
N696 N 0.57742 0.11223 0.26142 0.0
C697 C 0.58382 0.11933 0.22509 0.0
H698 H 0.54636 0.12654 0.28924 0.0
Co699 Co 0.59071 0.0769 0.29611 0.0
C700 C 0.6347 0.12241 0.29979 0.0
O701 O 0.6305 0.1361 0.33412 0.0
N702 N 0.60383 0.03935 0.33009 0.0
C703 C 0.62572 1.00642 0.37087 0.0
C704 C 0.62072 0.04328 0.35535 0.0
C705 C 0.59855 0.99984 0.33173 0.0
N706 N 0.61177 0.97909 0.35584 0.0
O707 O 0.59262 0.03829 0.25596 0.0
H708 H 0.62913 0.07077 0.36228 0.0
H709 H 0.58571 0.986 0.31463 0.0
O710 O 0.62094 0.09874 0.28295 0.0
C711 C 0.57275 0.02513 0.25223 0.0
O712 O 0.55753 0.03686 0.27688 0.0
N713 N 0.58554 0.11395 0.33589 0.0
C714 C 0.56669 0.16619 0.38905 0.0
C715 C 0.57829 0.1811 0.35738 0.0
C716 C 0.58715 0.15455 0.33071 0.0
C717 C 0.57405 0.09906 0.36644 0.0
C718 C 0.56461 0.12466 0.39354 0.0
H719 H 0.59475 0.16666 0.30517 0.0
H720 H 0.57115 0.06717 0.36899 0.0
H721 H 0.59888 0.10694 0.2128 0.0
H722 H 0.53565 0.16029 0.22352 0.0
H723 H 0.63867 1.0002 0.39156 0.0
H724 H 0.57982 0.21309 0.35256 0.0
H725 H 0.5556 0.11209 0.41755 0.0
C726 C 0.30072 0.11956 0.48368 0.0
C727 C 0.30667 0.13489 0.51864 0.0
N728 N 0.2894 0.12997 0.54295 0.0
N729 N 0.27963 0.10577 0.4856 0.0
C730 C 0.27318 0.11249 0.52197 0.0
H731 H 0.31142 0.11692 0.45892 0.0
Co732 Co 0.2653 0.07375 0.44947 0.0
C733 C 0.22304 0.12422 0.44681 0.0
O734 O 0.22802 0.13857 0.413 0.0
N735 N 0.25112 0.03897 0.41394 0.0
C736 C 0.22707 1.00704 0.37606 0.0
C737 C 0.23229 0.04307 0.39309 0.0
C738 C 0.2572 1.00029 0.40806 0.0
N739 N 0.24273 0.98004 0.38576 0.0
O740 O 0.26178 0.03392 0.48811 0.0
H741 H 0.22233 0.06976 0.39101 0.0
H742 H 0.27146 0.98637 0.42131 0.0
O743 O 0.23577 0.0983 0.46301 0.0
C744 C 0.2805 1.01588 0.48992 0.0
O745 O 0.29633 0.02617 0.46581 0.0
N746 N 0.27187 0.11195 0.41107 0.0
C747 C 0.29089 0.16483 0.35847 0.0
C748 C 0.28071 0.17929 0.3917 0.0
C749 C 0.27177 0.15236 0.41801 0.0
C750 C 0.2822 0.09744 0.37915 0.0
C751 C 0.29167 0.12338 0.35233 0.0
H752 H 0.26494 0.16402 0.44436 0.0
H753 H 0.28397 0.0655 0.37501 0.0
H754 H 0.25751 0.10181 0.53345 0.0
H755 H 0.32279 0.14734 0.52577 0.0
H756 H 0.21258 1.00102 0.35858 0.0
H757 H 0.28017 0.21113 0.39777 0.0
H758 H 0.29958 0.11112 0.32708 0.0
C759 C 0.55538 0.67328 0.48411 0.0
C760 C 0.54962 0.65853 0.5194 0.0
N761 N 0.56713 0.66328 0.54313 0.0
N762 N 0.57659 0.68657 0.48528 0.0
C763 C 0.58331 0.68011 0.52153 0.0
H764 H 0.54451 0.67587 0.4596 0.0
Co765 Co 0.59082 0.71762 0.44829 0.0
C766 C 0.63296 0.6668 0.44587 0.0
O767 O 0.62778 0.65192 0.41238 0.0
N768 N 0.60489 0.75149 0.41182 0.0
C769 C 0.62926 0.7836 0.37458 0.0
C770 C 0.62429 0.74787 0.39241 0.0
C771 C 0.59821 0.78952 0.40423 0.0
N772 N 0.61285 0.80986 0.38228 0.0
O773 O 0.59464 0.75826 0.48608 0.0
H774 H 0.63492 0.72193 0.39216 0.0
H775 H 0.58347 0.80307 0.41628 0.0
O776 O 0.62036 0.69312 0.46181 0.0
C777 C 0.57606 0.77677 0.488 0.0
O778 O 0.56 0.76642 0.46445 0.0
N779 N 0.58394 0.67862 0.41081 0.0
C780 C 0.56359 0.62482 0.36054 0.0
C781 C 0.57418 0.61102 0.39364 0.0
C782 C 0.58387 0.63839 0.41871 0.0
C783 C 0.57337 0.69251 0.37892 0.0
C784 C 0.56326 0.66612 0.35324 0.0
H785 H 0.59095 0.62727 0.44506 0.0
H786 H 0.57179 0.72436 0.374 0.0
H787 H 0.59915 0.69052 0.53248 0.0
H788 H 0.53347 0.64656 0.52717 0.0
H789 H 0.64415 0.79012 0.35823 0.0
H790 H 0.57444 0.57939 0.40069 0.0
H791 H 0.55516 0.67798 0.32802 0.0
C792 C 0.8042 0.86676 0.23388 0.0
C793 C 0.79829 0.88222 0.26882 0.0
N794 N 0.81584 0.87855 0.29266 0.0
N795 N 0.82552 0.85412 0.23539 0.0
C796 C 0.83215 0.86161 0.27147 0.0
H797 H 0.7934 0.86341 0.20936 0.0
Co798 Co 0.84028 0.82321 0.19905 0.0
C799 C 0.8818 0.87557 0.19649 0.0
O800 O 0.87661 0.88952 0.16263 0.0
N801 N 0.85495 0.78949 0.16321 0.0
C802 C 0.8796 0.75824 0.1259 0.0
C803 C 0.87407 0.79399 0.14318 0.0
C804 C 0.84901 0.75088 0.1566 0.0
N805 N 0.86384 0.73103 0.13465 0.0
O806 O 0.84427 0.78309 0.23739 0.0
H807 H 0.88411 0.82066 0.14198 0.0
H808 H 0.83461 0.7367 0.16921 0.0
O809 O 0.86947 0.84902 0.21276 0.0
C810 C 0.8258 0.76416 0.23922 0.0
O811 O 0.80982 0.77388 0.21526 0.0
N812 N 0.83324 0.8616 0.16109 0.0
C813 C 0.81326 0.91459 0.10974 0.0
C814 C 0.82329 0.92884 0.14314 0.0
C815 C 0.83277 0.90186 0.16876 0.0
C816 C 0.82312 0.84723 0.12897 0.0
C817 C 0.81317 0.87324 0.10274 0.0
H818 H 0.8395 0.91335 0.19523 0.0
H819 H 0.82185 0.8153 0.12422 0.0
H820 H 0.84809 0.85199 0.2826 0.0
H821 H 0.78206 0.894 0.27624 0.0
H822 H 0.89438 0.75252 0.109 0.0
H823 H 0.82333 0.96055 0.14989 0.0
H824 H 0.80544 0.86111 0.07731 0.0
C825 C 0.55082 0.41922 0.23145 0.0
C826 C 0.55676 0.40305 0.2661 0.0
N827 N 0.53933 0.40664 0.29026 0.0
N828 N 0.52958 0.43231 0.23346 0.0
C829 C 0.52303 0.4241 0.26949 0.0
H830 H 0.56167 0.42334 0.20707 0.0
Co831 Co 0.51502 0.46631 0.19907 0.0
C832 C 0.47372 0.41398 0.19333 0.0
O833 O 0.47912 0.40226 0.15881 0.0
N834 N 0.5005 0.50265 0.16579 0.0
C835 C 0.4762 0.5366 0.13017 0.0
C836 C 0.48116 0.49995 0.14616 0.0
C837 C 0.50708 0.54114 0.16053 0.0
N838 N 0.49252 0.56249 0.13936 0.0
O839 O 0.51115 0.50384 0.23989 0.0
H840 H 0.47071 0.47382 0.14424 0.0
H841 H 0.52183 0.55392 0.17338 0.0
O842 O 0.48585 0.43969 0.2111 0.0
C843 C 0.53035 0.51985 0.24391 0.0
O844 O 0.54617 0.51051 0.21946 0.0
N845 N 0.52214 0.43101 0.15836 0.0
C846 C 0.54332 0.3841 0.10304 0.0
C847 C 0.53371 0.36625 0.13529 0.0
C848 C 0.52338 0.39023 0.16278 0.0
C849 C 0.53178 0.44869 0.12727 0.0
C850 C 0.54207 0.4258 0.09901 0.0
H851 H 0.5168 0.37604 0.18819 0.0
H852 H 0.53265 0.48093 0.125 0.0
H853 H 0.50728 0.43418 0.28113 0.0
H854 H 0.57303 0.39129 0.27326 0.0
H855 H 0.46149 0.54381 0.11364 0.0
H856 H 0.53428 0.33406 0.13939 0.0
H857 H 0.54974 0.44079 0.07489 0.0
C858 C 0.80513 0.42181 0.01232 0.0
C859 C 0.79894 0.4056 0.97785 0.0
N860 N 0.81623 0.40896 0.95335 0.0
N861 N 0.8264 0.4346 0.00997 0.0
C862 C 0.8327 0.4264 0.97379 0.0
H863 H 0.79448 0.42581 0.03698 0.0
Co864 Co 0.84129 0.46742 0.04479 0.0
C865 C 0.88272 0.41503 0.04785 0.0
O866 O 0.87739 0.40063 0.08147 0.0
N867 N 0.85617 0.50286 0.07873 0.0
C868 C 0.8808 0.53533 0.11502 0.0
C869 C 0.87539 0.49907 0.09854 0.0
C870 C 0.85008 0.54151 0.08455 0.0
N871 N 0.86485 0.56206 0.10598 0.0
O872 O 0.84509 0.50562 0.0049 0.0
H873 H 0.88538 0.47235 0.10036 0.0
H874 H 0.83549 0.55508 0.07206 0.0
O875 O 0.87036 0.4415 0.0317 0.0
C876 C 0.82657 0.52434 0.00337 0.0
O877 O 0.81085 0.515 0.02803 0.0
N878 N 0.83437 0.43117 0.08482 0.0
C879 C 0.81348 0.38329 0.13977 0.0
C880 C 0.82277 0.36604 0.10695 0.0
C881 C 0.83294 0.39052 0.07965 0.0
C882 C 0.82498 0.44828 0.1164 0.0
C883 C 0.81485 0.4249 0.14446 0.0
H884 H 0.83923 0.37685 0.05379 0.0
H885 H 0.82419 0.48047 0.11924 0.0
H886 H 0.84848 0.43611 0.96197 0.0
H887 H 0.78263 0.3937 0.97115 0.0
H888 H 0.89553 0.54164 0.13182 0.0
H889 H 0.82208 0.33395 0.10229 0.0
H890 H 0.80738 0.43947 0.16898 0.0
C891 C 0.54917 0.87669 0.01228 0.0
C892 C 0.55476 0.89218 0.9772 0.0
N893 N 0.53793 0.88466 0.9527 0.0
N894 N 0.52871 0.86009 0.01023 0.0
C895 C 0.52227 0.8655 0.97366 0.0
H896 H 0.55981 0.87567 0.03719 0.0
Co897 Co 0.5156 0.82614 0.04648 0.0
C898 C 0.47147 0.87114 0.04878 0.0
O899 O 0.47582 0.88709 0.08214 0.0
N900 N 0.50263 0.79004 0.08207 0.0
C901 C 0.48095 0.7593 0.12479 0.0
C902 C 0.486 0.79535 0.10765 0.0
C903 C 0.50773 0.75057 0.08515 0.0
N904 N 0.49465 0.73115 0.11048 0.0
O905 O 0.51372 0.78586 0.00793 0.0
H906 H 0.47782 0.8233 0.11374 0.0
H907 H 0.52033 0.73574 0.06824 0.0
O908 O 0.48527 0.84683 0.03293 0.0
C909 C 0.53361 0.77261 0.00508 0.0
O910 O 0.54862 0.78534 0.02963 0.0
N911 N 0.52082 0.86483 0.08477 0.0
C912 C 0.53961 0.91877 0.1364 0.0
C913 C 0.52804 0.93267 0.10432 0.0
C914 C 0.51923 0.90523 0.07839 0.0
C915 C 0.53236 0.85096 0.11566 0.0
C916 C 0.54173 0.8774 0.14201 0.0
H917 H 0.51162 0.91647 0.05251 0.0
H918 H 0.53533 0.8192 0.11909 0.0
H919 H 0.5072 0.85256 0.96199 0.0
H920 H 0.57044 0.90642 0.97006 0.0
H921 H 0.46815 0.75418 0.14605 0.0
H922 H 0.52648 0.96448 0.09864 0.0
H923 H 0.55072 0.86558 0.16635 0.0
C924 C 0.30087 0.16887 0.76323 0.0
C925 C 0.30672 0.1523 0.72872 0.0
N926 N 0.28941 0.15638 0.70446 0.0
N927 N 0.27979 0.18268 0.76109 0.0
C928 C 0.27325 0.17459 0.72504 0.0
H929 H 0.31167 0.17254 0.7877 0.0
Co930 Co 0.2655 0.21664 0.79592 0.0
C931 C 0.22349 0.16564 0.79963 0.0
O932 O 0.22879 0.15089 0.8331 0.0
N933 N 0.25122 0.25275 0.82974 0.0
C934 C 0.22765 0.2845 0.86856 0.0
C935 C 0.23297 0.24828 0.85201 0.0
C936 C 0.25688 0.29183 0.83403 0.0
N937 N 0.24272 0.31189 0.8571 0.0
O938 O 0.26222 0.2549 0.75573 0.0
H939 H 0.22372 0.22092 0.85583 0.0
H940 H 0.2707 0.30587 0.81945 0.0
O941 O 0.23603 0.1918 0.78335 0.0
C942 C 0.28164 0.27022 0.75253 0.0
O943 O 0.29701 0.26002 0.77748 0.0
N944 N 0.27212 0.18047 0.83605 0.0
C945 C 0.29367 0.13258 0.8901 0.0
C946 C 0.28353 0.11525 0.8581 0.0
C947 C 0.27307 0.13973 0.8312 0.0
C948 C 0.28222 0.19762 0.86693 0.0
C949 C 0.29272 0.17425 0.89454 0.0
H950 H 0.26632 0.126 0.80573 0.0
H951 H 0.28338 0.22983 0.86936 0.0
H952 H 0.25761 0.18504 0.71332 0.0
H953 H 0.32285 0.13975 0.72177 0.0
H954 H 0.21367 0.29029 0.88734 0.0
H955 H 0.28387 0.08311 0.85365 0.0
H956 H 0.30083 0.18888 0.9184 0.0
C957 C 0.55701 0.62858 0.76411 0.0
C958 C 0.55142 0.64551 0.72966 0.0
N959 N 0.56824 0.63896 0.70482 0.0
N960 N 0.57745 0.61202 0.76133 0.0
C961 C 0.58389 0.61891 0.72497 0.0
H962 H 0.54639 0.62657 0.78903 0.0
Co963 Co 0.59066 0.57679 0.79622 0.0
C964 C 0.63467 0.62204 0.80005 0.0
O965 O 0.63044 0.63596 0.83428 0.0
N966 N 0.6037 0.5394 0.83042 0.0
C967 C 0.6253 0.50691 0.87195 0.0
C968 C 0.62022 0.54368 0.85632 0.0
C969 C 0.59869 0.49978 0.83179 0.0
N970 N 0.61174 0.4793 0.85635 0.0
O971 O 0.59268 0.53807 0.75626 0.0
H972 H 0.62828 0.57138 0.86371 0.0
H973 H 0.58615 0.48567 0.81424 0.0
O974 O 0.62089 0.59843 0.78322 0.0
C975 C 0.57284 0.52482 0.75242 0.0
O976 O 0.55751 0.53666 0.77681 0.0
N977 N 0.58542 0.61395 0.83581 0.0
C978 C 0.56692 0.66624 0.8892 0.0
C979 C 0.57848 0.68112 0.85748 0.0
C980 C 0.58714 0.65453 0.83067 0.0
C981 C 0.57389 0.59911 0.86635 0.0
C982 C 0.56463 0.62474 0.89357 0.0
H983 H 0.59475 0.66659 0.80511 0.0
H984 H 0.57087 0.56726 0.86883 0.0
H985 H 0.59893 0.6064 0.71275 0.0
H986 H 0.53576 0.66003 0.72314 0.0
H987 H 0.638 0.50095 0.89315 0.0
H988 H 0.58015 0.7131 0.85278 0.0
H989 H 0.55561 0.61224 0.9176 0.0
C990 C 0.30135 0.62312 0.9801 0.0
C991 C 0.30728 0.63977 0.01453 0.0
N992 N 0.28991 0.63614 0.03883 0.0
N993 N 0.28018 0.6097 0.98236 0.0
C994 C 0.27367 0.61811 0.01837 0.0
H995 H 0.31214 0.61912 0.95563 0.0
Co996 Co 0.26556 0.5758 0.94795 0.0
C997 C 0.22401 0.62777 0.94402 0.0
O998 O 0.22928 0.64115 0.90998 0.0
N999 N 0.25094 0.53967 0.91456 0.0
C1000 C 0.22687 0.50731 0.87716 0.0
C1001 C 0.23219 0.54363 0.8935 0.0
C1002 C 0.25684 0.50077 0.90979 0.0
N1003 N 0.2424 0.48035 0.88756 0.0
O1004 O 0.2622 0.53782 0.98845 0.0
H1005 H 0.22253 0.57061 0.89049 0.0
H1006 H 0.27105 0.48709 0.9235 0.0
O1007 O 0.23633 0.60161 0.96076 0.0
C1008 C 0.28158 0.52226 0.99131 0.0
O1009 O 0.29683 0.53217 0.96599 0.0
N1010 N 0.2723 0.61155 0.90751 0.0
C1011 C 0.29377 0.65882 0.85279 0.0
C1012 C 0.28397 0.67646 0.88496 0.0
C1013 C 0.27354 0.6523 0.91218 0.0
C1014 C 0.28207 0.59408 0.87645 0.0
C1015 C 0.29252 0.61715 0.8485 0.0
H1016 H 0.26698 0.66628 0.93769 0.0
H1017 H 0.283 0.56185 0.87408 0.0
H1018 H 0.25796 0.60799 0.03015 0.0
H1019 H 0.32348 0.65204 0.02141 0.0
H1020 H 0.21254 0.50113 0.85933 0.0
H1021 H 0.28454 0.70862 0.88927 0.0
H1022 H 0.30036 0.60229 0.82448 0.0
C1023 C 0.55537 0.17467 0.98443 0.0
C1024 C 0.54951 0.16 0.01972 0.0
N1025 N 0.56704 0.16448 0.04347 0.0
N1026 N 0.57663 0.18766 0.98565 0.0
C1027 C 0.58329 0.18111 0.0219 0.0
H1028 H 0.54453 0.17737 0.95988 0.0
Co1029 Co 0.59111 0.21832 0.94867 0.0
C1030 C 0.63288 0.1668 0.9462 0.0
O1031 O 0.62776 0.15274 0.91236 0.0
N1032 N 0.60546 0.25182 0.9122 0.0
C1033 C 0.6302 0.28427 0.87598 0.0
C1034 C 0.62524 0.24859 0.89387 0.0
C1035 C 0.59859 0.28957 0.90393 0.0
N1036 N 0.61345 0.31012 0.8826 0.0
O1037 O 0.59515 0.25898 0.98632 0.0
H1038 H 0.63618 0.2231 0.89459 0.0
H1039 H 0.58356 0.30284 0.91518 0.0
O1040 O 0.62042 0.19316 0.96238 0.0
C1041 C 0.5767 0.2779 0.98799 0.0
O1042 O 0.56059 0.26763 0.96448 0.0
N1043 N 0.58407 0.1794 0.9113 0.0
C1044 C 0.56415 0.12572 0.86057 0.0
C1045 C 0.57448 0.11184 0.89387 0.0
C1046 C 0.58392 0.13918 0.91922 0.0
C1047 C 0.57366 0.19336 0.8793 0.0
C1048 C 0.56375 0.16702 0.85338 0.0
H1049 H 0.59086 0.12802 0.94566 0.0
H1050 H 0.57212 0.22522 0.8744 0.0
H1051 H 0.59918 0.19125 0.03287 0.0
H1052 H 0.53332 0.14822 0.02744 0.0
H1053 H 0.64536 0.2911 0.86047 0.0
H1054 H 0.57476 0.08017 0.90076 0.0
H1055 H 0.55579 0.17887 0.82802 0.0
C1056 C 0.29759 0.39365 0.3508 0.0
C1057 C 0.3178 0.39069 0.33065 0.0
H1058 H 0.28154 0.40139 0.4046 0.0
C1059 C 0.33792 0.39261 0.35116 0.0
H1060 H 0.28174 0.39167 0.33622 0.0
C1061 C 0.33779 0.39739 0.39083 0.0
C1062 C 0.31754 0.40045 0.41092 0.0
H1063 H 0.35379 0.39067 0.33657 0.0
H1064 H 0.35356 0.39847 0.40576 0.0
C1065 C 0.29746 0.39854 0.39035 0.0
C1066 C 0.05899 0.89045 0.38961 0.0
C1067 C 1.03897 0.88837 0.41046 0.0
H1068 H 0.07453 0.89777 0.33533 0.0
C1069 C 1.01866 0.89147 0.39062 0.0
H1070 H 0.07496 0.88757 0.40364 0.0
C1071 C 1.01841 0.89649 0.35098 0.0
C1072 C 1.03845 0.89869 0.3302 0.0
H1073 H 1.00293 0.89029 0.40571 0.0
H1074 H 1.00248 0.89844 0.33664 0.0
C1075 C 0.05873 0.89562 0.35009 0.0
C1076 C 0.29579 0.89168 0.85093 0.0
C1077 C 0.316 0.88814 0.83081 0.0
H1078 H 0.27967 0.90173 0.90429 0.0
C1079 C 0.33608 0.89154 0.8513 0.0
H1080 H 0.27993 0.88875 0.83656 0.0
C1081 C 0.33593 0.89811 0.89074 0.0
C1082 C 0.31569 0.90186 0.9108 0.0
H1083 H 0.35201 0.88937 0.83695 0.0
H1084 H 0.35174 0.90004 0.90543 0.0
C1085 C 0.29563 0.89856 0.89026 0.0
C1086 C 1.01905 0.38985 0.89042 0.0
C1087 C 1.0393 0.38624 0.91037 0.0
H1088 H 1.00294 0.39748 0.83647 0.0
C1089 C 0.05934 0.38829 0.88956 0.0
H1090 H 1.00326 0.38878 0.90535 0.0
C1091 C 0.05916 0.39391 0.85005 0.0
C1092 C 1.03892 0.39744 0.83006 0.0
H1093 H 0.0753 0.3851 0.90355 0.0
H1094 H 0.07499 0.396 0.83542 0.0
C1095 C 1.01886 0.39523 0.8508 0.0
C1096 C 0.81034 0.64763 0.64162 0.0
C1097 C 0.79026 0.65055 0.66219 0.0
H1098 H 0.8261 0.63885 0.58776 0.0
C1099 C 0.77004 0.64733 0.64208 0.0
H1100 H 0.82628 0.6505 0.65574 0.0
C1101 C 0.76993 0.64156 0.60253 0.0
C1102 C 0.79004 0.63849 0.582 0.0
H1103 H 0.75422 0.64906 0.65684 0.0
H1104 H 0.75402 0.63971 0.58812 0.0
C1105 C 0.81024 0.64157 0.60218 0.0
C1106 C 0.08687 0.14605 0.64286 0.0
C1107 C 0.06674 0.14287 0.66327 0.0
H1108 H 0.10265 0.15321 0.58853 0.0
C1109 C 1.04656 0.14554 0.643 0.0
H1110 H 0.10274 0.1445 0.65743 0.0
C1111 C 1.0465 0.15116 0.60351 0.0
C1112 C 0.06661 0.15406 0.58301 0.0
H1113 H 1.03069 0.1427 0.65741 0.0
H1114 H 1.03058 0.15361 0.58927 0.0
C1115 C 0.08681 0.15143 0.60325 0.0
C1116 C 0.76998 0.15179 0.14016 0.0
C1117 C 0.79025 0.15499 0.16012 0.0
H1118 H 0.75387 0.14373 0.0863 0.0
C1119 C 0.81029 0.15186 0.13946 0.0
H1120 H 0.75419 0.1537 0.15499 0.0
C1121 C 0.8101 0.14546 0.10009 0.0
C1122 C 0.78986 0.14225 0.08009 0.0
H1123 H 0.82626 0.15472 0.15347 0.0
H1124 H 0.82593 0.14248 0.08559 0.0
C1125 C 0.76979 0.14566 0.10066 0.0
C1126 C 1.04704 0.63972 0.14025 0.0
C1127 C 0.06713 0.63754 0.1608 0.0
H1128 H 1.03129 0.64766 0.0863 0.0
C1129 C 0.08736 0.64127 0.14073 0.0
H1130 H 1.03112 0.63642 0.15442 0.0
C1131 C 0.08746 0.64691 0.10115 0.0
C1132 C 0.06734 0.64912 0.08067 0.0
H1133 H 0.10315 0.64008 0.15557 0.0
H1134 H 0.10333 0.64927 0.08662 0.0
C1135 C 1.04714 0.64551 0.10081 0.0
C1136 C 0.83624 0.39779 0.8922 0.0
C1137 C 0.81615 0.40095 0.91277 0.0
H1138 H 0.85191 0.38968 0.83793 0.0
C1139 C 0.79594 0.39735 0.89272 0.0
H1140 H 0.85216 0.40002 0.90653 0.0
C1141 C 0.7958 0.39072 0.85337 0.0
C1142 C 0.81586 0.38774 0.83273 0.0
H1143 H 0.78008 0.40012 0.90716 0.0
H1144 H 0.77984 0.38752 0.83937 0.0
C1145 C 0.8361 0.39144 0.85272 0.0
C1146 C 0.55829 0.89388 0.89178 0.0
C1147 C 0.53804 0.89039 0.91181 0.0
H1148 H 0.57444 0.90201 0.83811 0.0
C1149 C 0.51799 0.89153 0.89105 0.0
H1150 H 0.5741 0.8925 0.90652 0.0
C1151 C 0.51821 0.89619 0.85133 0.0
C1152 C 0.53848 0.89995 0.83139 0.0
H1153 H 0.50208 0.88916 0.90547 0.0
H1154 H 0.50247 0.89674 0.83627 0.0
C1155 C 0.5585 0.89866 0.8522 0.0
C1156 C 0.79657 0.89499 0.39351 0.0
C1157 C 0.81688 0.8989 0.41319 0.0
H1158 H 0.78025 0.88511 0.34037 0.0
C1159 C 0.83688 0.89635 0.39234 0.0
H1160 H 0.78079 0.89736 0.40826 0.0
C1161 C 0.83656 0.89021 0.35286 0.0
C1162 C 0.81622 0.88617 0.33324 0.0
H1163 H 0.85284 0.89889 0.40648 0.0
H1164 H 0.85228 0.88888 0.33777 0.0
C1165 C 0.79625 0.8886 0.35416 0.0
C1166 C 0.51906 0.39592 0.35113 0.0
C1167 C 0.53925 0.39974 0.33099 0.0
H1168 H 0.5031 0.38888 0.40532 0.0
C1169 C 0.55935 0.39832 0.35158 0.0
H1170 H 0.50325 0.39651 0.3363 0.0
C1171 C 0.55927 0.39334 0.39116 0.0
C1172 C 0.53909 0.38983 0.41138 0.0
H1173 H 0.57525 0.40169 0.33737 0.0
H1174 H 0.57514 0.39184 0.4057 0.0
C1175 C 0.51897 0.39118 0.39081 0.0
C1176 C 0.30987 0.6527 0.13928 0.0
C1177 C 0.2897 0.65573 0.15958 0.0
H1178 H 0.32585 0.64382 0.0856 0.0
C1179 C 0.26956 0.65299 0.13919 0.0
H1180 H 0.32575 0.65525 0.15364 0.0
C1181 C 0.26962 0.64733 0.09962 0.0
C1182 C 0.28982 0.64394 0.07942 0.0
H1183 H 0.25368 0.65487 0.15373 0.0
H1184 H 0.25379 0.64569 0.08494 0.0
C1185 C 0.30993 0.64678 0.09983 0.0
C1186 C 0.54741 0.1567 0.10524 0.0
C1187 C 0.56739 0.15793 0.08423 0.0
H1188 H 0.53191 0.14956 0.15957 0.0
C1189 C 0.58769 0.15363 0.10388 0.0
H1190 H 0.53145 0.16048 0.0914 0.0
C1191 C 0.58798 0.14818 0.14348 0.0
C1192 C 0.56797 0.14672 0.16441 0.0
H1193 H 0.6034 0.15413 0.08868 0.0
H1194 H 0.60391 0.14525 0.15766 0.0
C1195 C 0.5477 0.15108 0.14472 0.0
C1196 C 0.30947 0.13994 0.604 0.0
C1197 C 0.28932 0.13687 0.58368 0.0
H1198 H 0.32537 0.14884 0.65767 0.0
C1199 C 0.26916 0.13967 0.60406 0.0
H1200 H 0.32537 0.13735 0.58965 0.0
C1201 C 0.26916 0.14541 0.64363 0.0
C1202 C 0.28934 0.14875 0.66385 0.0
H1203 H 0.2533 0.13776 0.58948 0.0
H1204 H 0.25332 0.1471 0.65833 0.0
C1205 C 0.30948 0.14589 0.64343 0.0
C1206 C 0.5878 0.65277 0.60359 0.0
C1207 C 0.5675 0.65688 0.58391 0.0
H1208 H 0.60402 0.64467 0.65743 0.0
C1209 C 0.54752 0.65564 0.60492 0.0
H1210 H 0.60351 0.65329 0.58839 0.0
C1211 C 0.5478 0.6502 0.64441 0.0
C1212 C 0.56807 0.64603 0.66414 0.0
H1213 H 0.53155 0.65929 0.59105 0.0
H1214 H 0.53201 0.64868 0.65926 0.0
C1215 C 0.58809 0.64747 0.64322 0.0
C1216 C 0.41236 0.41855 0.21334 0.0
C1217 C 0.40632 0.37818 0.20784 0.0
H1218 H 0.439 0.46168 0.21469 0.0
C1219 C 0.42314 0.34908 0.20582 0.0
H1220 H 0.39964 0.44162 0.21399 0.0
C1221 C 0.44561 0.36067 0.20532 0.0
C1222 C 0.45161 0.4014 0.20761 0.0
H1223 H 0.41893 0.31797 0.20052 0.0
H1224 H 0.45822 0.3381 0.19995 0.0
C1225 C 0.43487 0.43006 0.21374 0.0
C1226 C 0.93288 0.93824 0.21152 0.0
C1227 C 0.94946 0.90864 0.21049 0.0
H1228 H 0.89782 0.95045 0.20823 0.0
C1229 C 0.94317 0.86811 0.21372 0.0
H1230 H 0.93728 0.96956 0.20809 0.0
C1231 C 0.9206 0.85714 0.21461 0.0
C1232 C 0.90402 0.88657 0.21127 0.0
H1233 H 0.95568 0.84473 0.21216 0.0
H1234 H 0.91622 0.82563 0.21357 0.0
C1235 C 0.91032 0.92724 0.21148 0.0
C1236 C 0.4196 0.92801 0.02486 0.0
C1237 C 0.40338 0.89927 0.03415 0.0
H1238 H 0.45462 0.94108 0.022 0.0
C1239 C 0.40998 0.85914 0.03928 0.0
H1240 H 0.415 0.95925 0.02158 0.0
C1241 C 0.43258 0.84856 0.03855 0.0
C1242 C 0.44893 0.87812 0.03345 0.0
H1243 H 0.39779 0.83655 0.04698 0.0
H1244 H 0.43732 0.81821 0.04607 0.0
C1245 C 0.44226 0.91759 0.02507 0.0
C1246 C 0.93504 0.35589 0.03112 0.0
C1247 C 0.95112 0.38634 0.03355 0.0
H1248 H 0.90018 0.34154 0.03377 0.0
C1249 C 0.94415 0.4266 0.0325 0.0
H1250 H 0.93997 0.32467 0.03277 0.0
C1251 C 0.92141 0.43628 0.03203 0.0
C1252 C 0.90533 0.40579 0.03372 0.0
H1253 H 0.95626 0.45057 0.03502 0.0
H1254 H 0.91648 0.46745 0.03439 0.0
C1255 C 0.9123 0.36556 0.03178 0.0
C1256 C 0.69591 0.6121 0.78461 0.0
C1257 C 0.70234 0.65269 0.7839 0.0
H1258 H 0.6688 0.5702 0.7885 0.0
C1259 C 0.68591 0.68221 0.77939 0.0
H1260 H 0.70831 0.58887 0.78869 0.0
C1261 C 0.6633 0.67152 0.78004 0.0
C1262 C 0.65686 0.63116 0.78418 0.0
H1263 H 0.6904 0.71369 0.77964 0.0
H1264 H 0.65085 0.69506 0.78073 0.0
C1265 C 0.67333 0.60137 0.78433 0.0
C1266 C 0.16206 0.17648 0.78415 0.0
C1267 C 0.15525 0.1361 0.78514 0.0
H1268 H 0.18957 0.21772 0.7862 0.0
C1269 C 0.17144 0.1059 0.7826 0.0
H1270 H 0.14985 0.20026 0.78681 0.0
C1271 C 0.19414 0.1159 0.78321 0.0
C1272 C 0.20096 0.15623 0.7853 0.0
H1273 H 0.16664 0.07461 0.78424 0.0
H1274 H 0.20636 0.09204 0.78513 0.0
C1275 C 0.18477 0.1865 0.7837 0.0
C1276 C 0.67173 0.18691 0.962 0.0
C1277 C 0.65533 0.15696 0.96065 0.0
H1278 H 0.7067 0.20001 0.95826 0.0
C1279 C 0.6619 0.1165 0.96261 0.0
H1280 H 0.66711 0.21822 0.95956 0.0
C1281 C 0.68455 0.10606 0.96279 0.0
C1282 C 0.70092 0.13595 0.95994 0.0
H1283 H 0.64953 0.09289 0.96083 0.0
H1284 H 0.68914 0.07468 0.96101 0.0
C1285 C 0.69436 0.17645 0.96113 0.0
C1286 C 0.16286 0.61996 0.96475 0.0
C1287 C 0.15623 0.66012 0.95988 0.0
H1288 H 0.1901 0.57809 0.96514 0.0
C1289 C 0.17261 0.69006 0.95825 0.0
H1290 H 0.15049 0.59627 0.96519 0.0
C1291 C 0.19523 0.67955 0.95728 0.0
C1292 C 0.2018 0.63906 0.95879 0.0
H1293 H 0.16794 0.72105 0.95347 0.0
H1294 H 0.2075 0.70281 0.95214 0.0
C1295 C 0.18552 0.60952 0.96473 0.0
C1296 C 0.44394 0.86836 0.71307 0.0
C1297 C 0.4507 0.9085 0.70871 0.0
H1298 H 0.41652 0.82687 0.71378 0.0
C1299 C 0.43444 0.93867 0.70769 0.0
H1300 H 0.45622 0.84454 0.71312 0.0
C1301 C 0.41176 0.92847 0.70706 0.0
C1302 C 0.40502 0.88807 0.70845 0.0
H1303 H 0.43923 0.96969 0.70338 0.0
H1304 H 0.39956 0.95193 0.70247 0.0
C1305 C 0.42124 0.85824 0.71353 0.0
C1306 C 0.9338 0.43711 0.71002 0.0
C1307 C 0.94991 0.40665 0.70935 0.0
H1308 H 0.89895 0.45116 0.70643 0.0
C1309 C 0.94296 0.36647 0.71247 0.0
H1310 H 0.93872 0.4682 0.7067 0.0
C1311 C 0.92022 0.35672 0.71327 0.0
C1312 C 0.90412 0.38701 0.70982 0.0
H1313 H 0.9551 0.34245 0.71123 0.0
H1314 H 0.91532 0.32544 0.7125 0.0
C1315 C 0.91107 0.42732 0.70974 0.0
C1316 C 0.42182 0.43724 0.53015 0.0
C1317 C 0.40521 0.4078 0.53294 0.0
H1318 H 0.45693 0.44941 0.53245 0.0
C1319 C 0.41142 0.36712 0.53155 0.0
H1320 H 0.4175 0.46872 0.53209 0.0
C1321 C 0.43395 0.35601 0.53095 0.0
C1322 C 0.45058 0.38549 0.53261 0.0
H1323 H 0.39887 0.3439 0.53439 0.0
H1324 H 0.43828 0.32458 0.53356 0.0
C1325 C 0.44436 0.42614 0.53043 0.0
C1326 C 0.92277 0.93596 0.5303 0.0
C1327 C 0.90609 0.90664 0.53295 0.0
H1328 H 0.9579 0.9479 0.53271 0.0
C1329 C 0.91222 0.86591 0.53155 0.0
H1330 H 0.91852 0.96747 0.53229 0.0
C1331 C 0.93474 0.85465 0.531 0.0
C1332 C 0.95143 0.88402 0.53275 0.0
H1333 H 0.89962 0.84278 0.53433 0.0
H1334 H 0.939 0.82319 0.53353 0.0
C1335 C 0.94529 0.92471 0.53065 0.0
C1336 C 0.67334 0.10252 0.28264 0.0
C1337 C 0.65678 0.13214 0.28368 0.0
H1338 H 0.70839 0.09025 0.28584 0.0
C1339 C 0.66308 0.17266 0.28037 0.0
H1340 H 0.66893 0.07121 0.28615 0.0
C1341 C 0.68566 0.18359 0.2794 0.0
C1342 C 0.70222 0.15413 0.28273 0.0
H1343 H 0.65058 0.19606 0.28195 0.0
H1344 H 0.69006 0.2151 0.2804 0.0
C1345 C 0.6959 0.11347 0.28259 0.0
C1346 C 0.18438 0.68525 0.2794 0.0
C1347 C 0.20092 0.65567 0.28193 0.0
H1348 H 0.14931 0.69774 0.28208 0.0
C1349 C 0.19458 0.61505 0.28075 0.0
H1350 H 0.1888 0.7167 0.28122 0.0
C1351 C 0.172 0.60415 0.28034 0.0
C1352 C 0.15545 0.63378 0.2821 0.0
H1353 H 0.20706 0.59173 0.28342 0.0
H1354 H 0.16757 0.57275 0.2829 0.0
C1355 C 0.16179 0.67436 0.27998 0.0
C1356 C 0.68489 0.60706 0.46393 0.0
C1357 C 0.7012 0.63692 0.45987 0.0
H1358 H 0.64989 0.59358 0.4628 0.0
C1359 C 0.69454 0.67739 0.45958 0.0
H1360 H 0.68954 0.57567 0.46331 0.0
C1361 C 0.67188 0.68772 0.46029 0.0
C1362 C 0.65553 0.65764 0.46026 0.0
H1363 H 0.70682 0.70092 0.45578 0.0
H1364 H 0.66719 0.71889 0.45677 0.0
C1365 C 0.66221 0.61734 0.46358 0.0
C1366 C 0.18426 0.10409 0.46317 0.0
C1367 C 0.20066 0.13401 0.4617 0.0
H1368 H 0.14928 0.09105 0.45954 0.0
C1369 C 0.19411 0.17448 0.46375 0.0
H1370 H 0.18886 0.07277 0.46065 0.0
C1371 C 0.17147 0.18496 0.46398 0.0
C1372 C 0.15509 0.1551 0.46115 0.0
H1373 H 0.20649 0.19808 0.46188 0.0
H1374 H 0.1669 0.21634 0.46213 0.0
C1375 C 0.16163 0.11459 0.46241 0.0
C1376 C 0.34398 0.12026 0.12545 0.0
C1377 C 0.36415 0.10204 0.11464 0.0
H1378 H 0.32723 0.17488 0.14054 0.0
C1379 C 0.38328 0.12607 0.11076 0.0
H1380 H 0.32899 0.10246 0.1287 0.0
C1381 C 0.38222 0.16745 0.11703 0.0
C1382 C 0.36208 0.18569 0.12791 0.0
H1383 H 0.39899 0.113 0.102 0.0
H1384 H 0.39722 0.18518 0.11374 0.0
C1385 C 0.343 0.16161 0.13237 0.0
C1386 C 0.9724 0.1242 0.1229 0.0
C1387 C 0.99269 0.10438 0.12975 0.0
H1388 H 0.95605 0.17995 0.11106 0.0
C1389 C 1.01248 0.12697 0.13027 0.0
H1390 H 0.95686 0.10769 0.12276 0.0
C1391 C 1.01203 0.16835 0.12342 0.0
C1392 C 0.99173 0.18815 0.11658 0.0
H1393 H 1.02836 0.1125 0.13532 0.0
H1394 H 1.02754 0.18495 0.12364 0.0
C1395 C 0.9719 0.16565 0.11668 0.0
C1396 C 0.76233 0.91539 0.87662 0.0
C1397 C 0.7421 0.93641 0.87992 0.0
H1398 H 0.77824 0.85876 0.86651 0.0
C1399 C 0.72198 0.9152 0.87583 0.0
H1400 H 0.77808 0.93097 0.87946 0.0
C1401 C 0.72208 0.8739 0.86881 0.0
C1402 C 0.74229 0.85292 0.86517 0.0
H1403 H 0.70614 0.93045 0.87864 0.0
H1404 H 0.70631 0.85848 0.86559 0.0
C1405 C 0.76242 0.87415 0.869 0.0
C1406 C 0.13272 0.91472 0.86476 0.0
C1407 C 0.11276 0.93672 0.86307 0.0
H1408 H 0.148 0.85719 0.87231 0.0
C1409 C 0.09242 0.91642 0.86809 0.0
H1410 H 0.14861 0.92947 0.86059 0.0
C1411 C 0.09207 0.87505 0.87507 0.0
C1412 C 0.11204 0.85301 0.8764 0.0
H1413 H 0.07681 0.93267 0.86705 0.0
H1414 H 0.07619 0.86016 0.87897 0.0
C1415 C 0.13235 0.87329 0.87103 0.0
C1416 C 0.34428 0.66888 0.61832 0.0
C1417 C 0.36463 0.68772 0.62695 0.0
H1418 H 0.32749 0.61382 0.605 0.0
C1419 C 0.38408 0.66425 0.62869 0.0
H1420 H 0.32905 0.68622 0.61669 0.0
C1421 C 0.38314 0.62284 0.62244 0.0
C1422 C 0.36281 0.60399 0.61375 0.0
H1423 H 0.39995 0.67778 0.63573 0.0
H1424 H 0.39841 0.6056 0.62399 0.0
C1425 C 0.3434 0.62752 0.61147 0.0
C1426 C 1.0138 0.6246 0.62599 0.0
C1427 C 0.99342 0.60421 0.63026 0.0
H1428 H 1.03009 0.68091 0.61557 0.0
C1429 C 0.97347 0.62613 0.62773 0.0
H1430 H 1.02941 0.60843 0.62766 0.0
C1431 C 0.97387 0.66754 0.62135 0.0
C1432 C 0.99421 0.68792 0.61672 0.0
H1433 H 0.95753 0.61134 0.63131 0.0
H1434 H 0.95821 0.68355 0.61937 0.0
C1435 C 1.01418 0.66597 0.61891 0.0
C1436 C 0.72167 0.41429 0.37744 0.0
C1437 C 0.74167 0.43607 0.38047 0.0
H1438 H 0.70626 0.3571 0.36863 0.0
C1439 C 0.762 0.41536 0.37688 0.0
H1440 H 0.70574 0.42918 0.38053 0.0
C1441 C 0.7623 0.37395 0.37018 0.0
C1442 C 0.74229 0.35215 0.36735 0.0
H1443 H 0.77769 0.43126 0.37888 0.0
H1444 H 0.77822 0.35892 0.36753 0.0
C1445 C 0.72198 0.37283 0.37116 0.0
C1446 C 0.13356 0.37354 0.37408 0.0
C1447 C 0.11341 0.35214 0.37683 0.0
H1448 H 0.14935 0.43053 0.36609 0.0
C1449 C 0.09323 0.37332 0.37348 0.0
H1450 H 0.14938 0.35828 0.37703 0.0
C1451 C 0.09321 0.41484 0.3673 0.0
C1452 C 0.11337 0.43626 0.36482 0.0
H1453 H 0.07743 0.35771 0.37534 0.0
H1454 H 0.0774 0.43027 0.36483 0.0
C1455 C 0.13354 0.41508 0.36836 0.0
C1456 C 0.8436 0.12637 0.61461 0.0
C1457 C 0.86358 0.10435 0.61401 0.0
H1458 H 0.82817 0.18388 0.62208 0.0
C1459 C 0.88381 0.12475 0.61988 0.0
H1460 H 0.82776 0.11148 0.61033 0.0
C1461 C 0.88406 0.16619 0.62621 0.0
C1462 C 0.86407 0.18813 0.62735 0.0
H1463 H 0.8995 0.10874 0.61912 0.0
H1464 H 0.8999 0.18091 0.63104 0.0
C1465 C 0.84382 0.16775 0.62151 0.0
C1466 C 0.51413 0.12729 0.62806 0.0
C1467 C 0.49393 0.1061 0.63106 0.0
H1468 H 0.52994 0.18424 0.6186 0.0
C1469 C 0.47378 0.12724 0.62733 0.0
H1470 H 0.52989 0.11174 0.63067 0.0
C1471 C 0.47381 0.16866 0.62096 0.0
C1472 C 0.49398 0.18983 0.61754 0.0
H1473 H 0.45797 0.11182 0.62992 0.0
H1474 H 0.45801 0.18403 0.61801 0.0
C1475 C 0.51416 0.16867 0.62099 0.0
C1476 C 0.26267 0.87438 0.36945 0.0
C1477 C 0.24244 0.85339 0.36575 0.0
H1478 H 0.27863 0.93116 0.37856 0.0
C1479 C 0.22235 0.87495 0.3683 0.0
H1480 H 0.27843 0.85865 0.36776 0.0
C1481 C 0.22247 0.91646 0.37419 0.0
C1482 C 0.24268 0.93745 0.37812 0.0
H1483 H 0.20649 0.85985 0.36506 0.0
H1484 H 0.20669 0.93202 0.37632 0.0
C1485 C 0.26279 0.91588 0.37581 0.0
C1486 C 0.59205 0.91404 0.36156 0.0
C1487 C 0.61197 0.9363 0.36205 0.0
H1488 H 0.57674 0.85617 0.36781 0.0
C1489 C 0.63219 0.91604 0.3683 0.0
H1490 H 0.57623 0.92887 0.35695 0.0
C1491 C 0.6325 0.8745 0.37395 0.0
C1492 C 0.61257 0.8523 0.37411 0.0
H1493 H 0.64781 0.93229 0.36842 0.0
H1494 H 0.64833 0.85989 0.37913 0.0
C1495 C 0.59233 0.87253 0.36791 0.0
C1496 C 0.88463 0.62622 0.11712 0.0
C1497 C 0.8646 0.60458 0.11387 0.0
H1498 H 0.90011 0.68335 0.12593 0.0
C1499 C 0.8443 0.62543 0.11709 0.0
H1500 H 0.90054 0.61119 0.11431 0.0
C1501 C 0.84405 0.66686 0.12361 0.0
C1502 C 0.86409 0.68853 0.12664 0.0
H1503 H 0.82858 0.60963 0.11493 0.0
H1504 H 0.82815 0.682 0.12596 0.0
C1505 C 0.88438 0.6677 0.12322 0.0
C1506 C 0.51351 0.62472 0.12522 0.0
C1507 C 0.49314 0.60499 0.13174 0.0
H1508 H 0.52992 0.68052 0.11302 0.0
C1509 C 0.47335 0.62755 0.13147 0.0
H1510 H 0.52899 0.60803 0.12516 0.0
C1511 C 0.47391 0.66895 0.1251 0.0
C1512 C 0.49423 0.68865 0.11818 0.0
H1513 H 0.45744 0.61326 0.13683 0.0
H1514 H 0.45838 0.68549 0.12493 0.0
C1515 C 0.51403 0.66607 0.11811 0.0
C1516 C 0.22251 0.37519 0.86958 0.0
C1517 C 0.24271 0.35433 0.86515 0.0
H1518 H 0.20659 0.43168 0.87981 0.0
C1519 C 0.26285 0.37574 0.86796 0.0
H1520 H 0.20673 0.35962 0.86717 0.0
C1521 C 0.26277 0.41703 0.87539 0.0
C1522 C 0.24255 0.43791 0.8795 0.0
H1523 H 0.27866 0.36044 0.86485 0.0
H1524 H 0.27852 0.43274 0.87749 0.0
C1525 C 0.22242 0.41653 0.87638 0.0
C1526 C 0.59279 0.37237 0.8673 0.0
C1527 C 0.61305 0.35254 0.8744 0.0
H1528 H 0.57651 0.4284 0.85577 0.0
C1529 C 0.63284 0.37514 0.87523 0.0
H1530 H 0.5773 0.3557 0.86646 0.0
C1531 C 0.63235 0.41667 0.86965 0.0
C1532 C 0.61211 0.43652 0.86252 0.0
H1533 H 0.64866 0.36084 0.88113 0.0
H1534 H 0.64787 0.43324 0.87052 0.0
C1535 C 0.59235 0.41387 0.86106 0.0
C1536 C 0.28687 0.22528 0.31754 0.0
C1537 C 0.30003 0.19313 0.32996 0.0
H1538 H 0.28389 0.27514 0.27969 0.0
C1539 C 0.32153 0.18804 0.31451 0.0
H1540 H 0.27024 0.22979 0.32887 0.0
C1541 C 0.32955 0.21454 0.28657 0.0
C1542 C 0.31592 0.24572 0.2733 0.0
H1543 H 0.33205 0.16357 0.32394 0.0
H1544 H 0.34595 0.20981 0.27439 0.0
C1545 C 0.29466 0.2511 0.28933 0.0
C1546 C 0.06817 0.06386 0.31777 0.0
C1547 C 0.0553 0.09647 0.33003 0.0
H1548 H 0.07071 1.01375 0.28013 0.0
C1549 C 1.03382 0.10202 0.3147 0.0
H1550 H 0.08478 0.05898 0.329 0.0
C1551 C 1.02557 0.0756 0.28694 0.0
C1552 C 1.03894 0.04402 0.27376 0.0
H1553 H 1.02352 0.12684 0.32403 0.0
H1554 H 1.00922 0.08075 0.27477 0.0
C1555 C 0.06014 0.03811 0.28975 0.0
C1556 C 0.32816 0.05012 0.93602 0.0
C1557 C 0.32304 0.05606 0.97466 0.0
H1558 H 0.32258 0.06982 0.87846 0.0
C1559 C 0.30983 0.08889 0.98543 0.0
H1560 H 0.33805 0.02457 0.92713 0.0
C1561 C 0.30098 0.11445 0.95795 0.0
C1562 C 0.30494 0.10741 0.91906 0.0
H1563 H 0.30559 0.09386 0.01515 0.0
H1564 H 0.29014 0.1386 0.9671 0.0
C1565 C 0.31903 0.07555 0.90829 0.0
C1566 C 0.05619 0.1768 0.95807 0.0
C1567 C 1.05178 0.18362 0.9193 0.0
H1568 H 1.05196 0.19744 0.01535 0.0
C1569 C 1.03737 0.21511 0.90886 0.0
H1570 H 0.06728 0.1529 0.96692 0.0
C1571 C 1.02829 0.24035 0.93679 0.0
C1572 C 1.03382 0.23463 0.97528 0.0
H1573 H 1.0335 0.22065 0.87912 0.0
H1574 H 1.01809 0.26559 0.92815 0.0
C1575 C 1.04742 0.20222 0.98575 0.0
C1576 C 0.77524 0.82714 0.70616 0.0
C1577 C 0.78847 0.7957 0.71999 0.0
H1578 H 0.77372 0.87825 0.66882 0.0
C1579 C 0.80992 0.78985 0.705 0.0
H1580 H 0.7587 0.83222 0.71762 0.0
C1581 C 0.81839 0.81562 0.67738 0.0
C1582 C 0.80567 0.84812 0.66447 0.0
H1583 H 0.82038 0.76559 0.71518 0.0
H1584 H 0.8352 0.81082 0.66698 0.0
C1585 C 0.78391 0.85355 0.67872 0.0
C1586 C 1.04707 1.00302 0.70269 0.0
C1587 C 0.06833 0.99713 0.71841 0.0
H1588 H 1.02224 0.98199 0.66392 0.0
C1589 C 0.08172 0.96569 0.70502 0.0
H1590 H 1.0365 0.02728 0.71253 0.0
C1591 C 0.07338 0.93927 0.67736 0.0
C1592 C 1.05179 0.94465 0.66242 0.0
H1593 H 0.09811 0.96058 0.71703 0.0
H1594 H 0.08367 0.9145 0.66788 0.0
C1595 C 1.03894 0.97723 0.67483 0.0
C1596 C 0.81601 0.97668 0.07071 0.0
C1597 C 0.80359 0.94305 0.08192 0.0
H1598 H 0.81816 0.0275 0.03381 0.0
C1599 C 0.78239 0.9366 0.06576 0.0
H1600 H 0.8324 0.98228 0.08255 0.0
C1601 C 0.77404 0.96301 0.03807 0.0
C1602 C 0.78704 0.99552 0.02587 0.0
H1603 H 0.77242 0.91101 0.07427 0.0
H1604 H 0.758 0.95705 0.02505 0.0
C1605 C 0.80788 1.00246 0.0428 0.0
C1606 C 0.0794 0.82535 0.03586 0.0
C1607 C 0.06566 0.79514 0.02095 0.0
H1608 H 0.08163 0.87548 0.07427 0.0
C1609 C 1.04384 0.79076 0.03492 0.0
H1610 H 0.09624 0.82928 0.02532 0.0
C1611 C 1.03563 0.81654 0.06276 0.0
C1612 C 1.04896 0.84767 0.07688 0.0
H1613 H 1.03297 0.76745 0.02404 0.0
H1614 H 1.01861 0.81277 0.07255 0.0
C1615 C 0.07099 0.85182 0.06345 0.0
C1616 C 0.32853 0.74033 0.80583 0.0
C1617 C 0.32298 0.73456 0.76736 0.0
H1618 H 0.32333 0.72073 0.86355 0.0
C1619 C 0.30936 0.70214 0.75699 0.0
H1620 H 0.33876 0.76556 0.81441 0.0
C1621 C 0.30055 0.67679 0.78473 0.0
C1622 C 0.30498 0.68367 0.82349 0.0
H1623 H 0.30481 0.6973 0.7274 0.0
H1624 H 0.28942 0.65293 0.77593 0.0
C1625 C 0.31944 0.71514 0.83382 0.0
C1626 C 1.03381 0.60022 0.81561 0.0
C1627 C 0.05571 0.59541 0.82938 0.0
H1628 H 1.00859 0.57842 0.77712 0.0
C1629 C 0.06869 0.56344 0.816 0.0
H1630 H 1.02343 0.62452 0.82588 0.0
C1631 C 0.06033 0.53765 0.78833 0.0
C1632 C 1.03872 0.54294 0.7738 0.0
H1633 H 0.0856 0.55913 0.82604 0.0
H1634 H 0.07097 0.51382 0.77778 0.0
C1635 C 1.02526 0.57379 0.78817 0.0
C1636 C 0.29563 0.53932 0.45231 0.0
C1637 C 0.31676 0.54521 0.46858 0.0
H1638 H 0.27114 0.56034 0.41288 0.0
C1639 C 0.33017 0.57693 0.45573 0.0
H1640 H 0.28504 0.51486 0.46167 0.0
C1641 C 0.32201 0.60349 0.428 0.0
C1642 C 0.3006 0.59795 0.41237 0.0
H1643 H 0.34645 0.58207 0.46815 0.0
H1644 H 0.33233 0.6284 0.41891 0.0
C1645 C 0.2877 0.56521 0.42433 0.0
C1646 C 0.06057 0.7501 0.4542 0.0
C1647 C 1.03935 0.74426 0.47022 0.0
H1648 H 0.08519 0.72921 0.41488 0.0
C1649 C 1.02593 0.71275 0.45705 0.0
H1650 H 0.07118 0.77442 0.46379 0.0
C1651 C 1.03415 0.68634 0.42923 0.0
C1652 C 0.05565 0.69183 0.41383 0.0
H1653 H 1.00956 0.70767 0.46924 0.0
H1654 H 1.02381 0.6616 0.41986 0.0
C1655 C 0.06857 0.72436 0.42614 0.0
C1656 C 0.8079 0.36437 0.20793 0.0
C1657 C 0.80272 0.35812 0.16934 0.0
H1658 H 0.80447 0.34329 0.26525 0.0
C1659 C 0.78788 0.32709 0.15942 0.0
H1660 H 0.81934 0.38789 0.2164 0.0
C1661 C 0.77906 0.30181 0.18762 0.0
C1662 C 0.78529 0.30699 0.22588 0.0
H1663 H 0.78344 0.32196 0.12985 0.0
H1664 H 0.76847 0.27698 0.1793 0.0
C1665 C 0.79938 0.33889 0.23586 0.0
C1666 C 0.07721 0.49005 0.18637 0.0
C1667 C 0.07061 0.48514 0.22452 0.0
H1668 H 0.07324 0.46971 0.12859 0.0
C1669 C 0.05615 0.45368 0.23428 0.0
H1670 H 0.0881 0.51455 0.17823 0.0
C1671 C 1.04772 0.42829 0.20627 0.0
C1672 C 0.05336 0.43417 0.16779 0.0
H1673 H 1.05077 0.44948 0.26357 0.0
H1674 H 1.03605 0.40505 0.21458 0.0
C1675 C 0.06847 0.46486 0.15807 0.0
C1676 C 0.80642 0.42782 0.53798 0.0
C1677 C 0.80131 0.43402 0.57662 0.0
H1678 H 0.80301 0.44897 0.48073 0.0
C1679 C 0.78664 0.46528 0.5867 0.0
H1680 H 0.81774 0.40417 0.52936 0.0
C1681 C 0.77793 0.49077 0.5586 0.0
C1682 C 0.78408 0.48555 0.52029 0.0
H1683 H 0.78225 0.47039 0.6163 0.0
H1684 H 0.76746 0.51573 0.56702 0.0
C1685 C 0.798 0.45345 0.51017 0.0
C1686 C 1.0477 0.36221 0.53456 0.0
C1687 C 1.05249 0.35576 0.57327 0.0
H1688 H 1.0517 0.34137 0.47728 0.0
C1689 C 0.06719 0.32467 0.58354 0.0
H1690 H 1.03639 0.38583 0.52586 0.0
C1691 C 0.07629 0.29955 0.55553 0.0
C1692 C 0.07048 0.30495 0.51711 0.0
H1693 H 0.07132 0.31942 0.61322 0.0
H1694 H 0.08679 0.27468 0.56406 0.0
C1695 C 0.05648 0.33686 0.50681 0.0
C1696 C 0.79951 0.17616 0.78581 0.0
C1697 C 0.80404 0.18279 0.82458 0.0
H1698 H 0.80356 0.1971 0.72858 0.0
C1699 C 0.81847 0.21428 0.83499 0.0
H1700 H 0.78841 0.15228 0.77696 0.0
C1701 C 0.82744 0.23972 0.80708 0.0
C1702 C 0.82179 0.23419 0.76861 0.0
H1703 H 0.82243 0.21969 0.86471 0.0
H1704 H 0.83765 0.26494 0.81573 0.0
C1705 C 0.80819 0.20176 0.75816 0.0
C1706 C 0.55905 0.03793 0.79353 0.0
C1707 C 0.53817 0.04464 0.77666 0.0
H1708 H 0.58352 0.05829 0.8333 0.0
C1709 C 0.52501 0.07681 0.78912 0.0
H1710 H 0.56944 1.01312 0.7844 0.0
C1711 C 0.53325 0.10316 0.81692 0.0
C1712 C 0.55451 0.09701 0.83296 0.0
H1713 H 0.50892 0.08256 0.77621 0.0
H1714 H 0.52317 0.12854 0.82558 0.0
C1715 C 0.56708 0.06366 0.82156 0.0
C1716 C 0.83157 0.07732 0.45653 0.0
C1717 C 0.81824 0.04542 0.46921 0.0
H1718 H 0.83366 0.12883 0.41975 0.0
C1719 C 0.79723 0.03919 0.45265 0.0
H1720 H 0.84777 0.08271 0.46919 0.0
C1721 C 0.78931 0.06496 0.42455 0.0
C1722 C 0.80211 0.0979 0.41279 0.0
H1723 H 0.7867 1.0146 0.46192 0.0
H1724 H 0.77282 0.05984 0.4129 0.0
C1725 C 0.82343 0.10375 0.42869 0.0
C1726 C 0.52638 0.21654 0.45769 0.0
C1727 C 0.54009 0.24646 0.47315 0.0
H1728 H 0.52432 0.1667 0.41892 0.0
C1729 C 0.56206 0.25066 0.45981 0.0
H1730 H 0.50942 0.21277 0.46772 0.0
C1731 C 0.57044 0.22493 0.43209 0.0
C1732 C 0.55712 0.19408 0.41741 0.0
H1733 H 0.57292 0.27378 0.47109 0.0
H1734 H 0.58756 0.22856 0.4228 0.0
C1735 C 0.53495 0.19013 0.43019 0.0
C1736 C 0.29883 0.83844 0.23428 0.0
C1737 C 0.28454 0.8067 0.22467 0.0
H1738 H 0.31877 0.88721 0.21432 0.0
C1739 C 0.27799 0.80154 0.18656 0.0
H1740 H 0.30417 0.84281 0.26355 0.0
C1741 C 0.28665 0.82671 0.15814 0.0
C1742 C 0.30165 0.85761 0.16769 0.0
H1743 H 0.26723 0.77683 0.17853 0.0
H1744 H 0.28195 0.82162 0.12868 0.0
C1745 C 0.30719 0.8638 0.20614 0.0
C1746 C 0.54396 1.00436 0.20602 0.0
C1747 C 0.56573 0.99987 0.2201 0.0
H1748 H 0.51877 0.98228 0.16843 0.0
C1749 C 0.5795 0.96976 0.20513 0.0
H1750 H 0.53308 0.02763 0.21696 0.0
C1751 C 0.57114 0.94333 0.17752 0.0
C1752 C 0.54911 0.94739 0.16415 0.0
H1753 H 0.59631 0.96575 0.21574 0.0
H1754 H 0.58178 0.91964 0.16679 0.0
C1755 C 0.53579 0.97859 0.17816 0.0
C1756 C 0.28784 0.96427 0.5848 0.0
C1757 C 0.30291 0.93365 0.57474 0.0
H1758 H 0.26821 1.01415 0.56518 0.0
C1759 C 0.30836 0.92798 0.53617 0.0
H1760 H 0.2832 0.96894 0.61436 0.0
C1761 C 0.29986 0.9536 0.5084 0.0
C1762 C 0.28549 0.98505 0.51853 0.0
H1763 H 0.31998 0.90479 0.52761 0.0
H1764 H 0.30512 0.94962 0.47903 0.0
C1765 C 0.27903 0.98968 0.55676 0.0
C1766 C 0.56826 0.82683 0.58349 0.0
C1767 C 0.55364 0.85817 0.57356 0.0
H1768 H 0.58761 0.7767 0.56353 0.0
C1769 C 0.54874 0.86488 0.53492 0.0
H1770 H 0.57248 0.82133 0.6131 0.0
C1771 C 0.55732 0.83956 0.50693 0.0
C1772 C 0.57125 0.80743 0.51689 0.0
H1773 H 0.53748 0.88867 0.52647 0.0
H1774 H 0.55242 0.84427 0.47748 0.0
C1775 C 0.57718 0.80176 0.55523 0.0
C1776 C 0.79856 0.67591 0.28623 0.0
C1777 C 0.80374 0.68226 0.32481 0.0
H1778 H 0.80192 0.69688 0.22886 0.0
C1779 C 0.81854 0.7134 0.33462 0.0
H1780 H 0.78714 0.65233 0.27782 0.0
C1781 C 0.82732 0.73866 0.30634 0.0
C1782 C 0.82108 0.73337 0.26809 0.0
H1783 H 0.82299 0.71863 0.36417 0.0
H1784 H 0.83788 0.76356 0.31459 0.0
C1785 C 0.80702 0.70137 0.25823 0.0
C1786 C 0.55717 0.53612 0.29473 0.0
C1787 C 0.53652 0.54379 0.2774 0.0
H1788 H 0.58184 0.55573 0.33447 0.0
C1789 C 0.52385 0.5768 0.28932 0.0
H1790 H 0.5672 0.5107 0.28595 0.0
C1791 C 0.5324 0.60305 0.31696 0.0
C1792 C 0.55351 0.59606 0.33332 0.0
H1793 H 0.50797 0.58334 0.27599 0.0
H1794 H 0.5227 0.62907 0.32514 0.0
C1795 C 0.56552 0.56181 0.32254 0.0
C1796 C 0.81925 0.57566 0.90841 0.0
C1797 C 0.80449 0.60671 0.91857 0.0
H1798 H 0.83854 0.52531 0.92796 0.0
C1799 C 0.79929 0.61277 0.95718 0.0
H1800 H 0.8237 0.5707 0.8788 0.0
C1801 C 0.80772 0.58708 0.98492 0.0
C1802 C 0.82172 0.55513 0.9747 0.0
H1803 H 0.78791 0.63631 0.96581 0.0
H1804 H 0.80266 0.59137 0.01436 0.0
C1805 C 0.82798 0.55014 0.93642 0.0
C1806 C 0.53537 0.69076 0.93031 0.0
C1807 C 0.5576 0.69411 0.91777 0.0
H1808 H 0.50993 0.71397 0.96765 0.0
C1809 C 0.57121 0.72432 0.93285 0.0
H1810 H 0.52453 0.6678 0.91873 0.0
C1811 C 0.56301 0.75008 0.9607 0.0
C1812 C 0.54094 0.74656 0.97371 0.0
H1813 H 0.58839 0.72744 0.92372 0.0
H1814 H 0.57407 0.77276 0.97223 0.0
C1815 C 0.52698 0.7172 0.95791 0.0
C1816 C 0.2747 0.3255 0.70537 0.0
C1817 C 0.28837 0.29502 0.71989 0.0
H1818 H 0.27249 0.37579 0.66714 0.0
C1819 C 0.30996 0.28999 0.70517 0.0
H1820 H 0.25803 0.32992 0.71655 0.0
C1821 C 0.3181 0.31563 0.67714 0.0
C1822 C 0.30491 0.3472 0.66354 0.0
H1823 H 0.32076 0.26646 0.71583 0.0
H1824 H 0.33501 0.3115 0.66695 0.0
C1825 C 0.28303 0.35179 0.67754 0.0
C1826 C 0.54444 0.50424 0.70553 0.0
C1827 C 0.566 0.49935 0.72038 0.0
H1828 H 0.51955 0.48243 0.66721 0.0
C1829 C 0.57969 0.46866 0.70628 0.0
H1830 H 0.53363 0.52793 0.71584 0.0
C1831 C 0.57145 0.44212 0.67868 0.0
C1832 C 0.54965 0.44668 0.66444 0.0
H1833 H 0.59633 0.46434 0.71755 0.0
H1834 H 0.58201 0.41801 0.66856 0.0
C1835 C 0.53641 0.47836 0.67765 0.0
C1836 C 0.28319 0.44086 0.06648 0.0
C1837 C 0.30528 0.44487 0.07959 0.0
H1838 H 0.2579 0.46326 0.02841 0.0
C1839 C 0.31853 0.47618 0.06549 0.0
H1840 H 0.27258 0.41712 0.07728 0.0
C1841 C 0.31023 0.50203 0.03781 0.0
C1842 C 0.28844 0.49748 0.02388 0.0
H1843 H 0.3356 0.4799 0.07495 0.0
H1844 H 0.32109 0.5253 0.02673 0.0
C1845 C 0.27472 0.46734 0.03896 0.0
C1846 C 0.558 0.34077 0.00678 0.0
C1847 C 0.57198 0.30871 0.01676 0.0
H1848 H 0.53802 0.38969 0.02631 0.0
C1849 C 0.57801 0.3032 0.05507 0.0
H1850 H 0.55305 0.34537 0.97735 0.0
C1851 C 0.56908 0.32826 0.08331 0.0
C1852 C 0.55432 0.3594 0.07339 0.0
H1853 H 0.58849 0.27822 0.06339 0.0
H1854 H 0.57333 0.32281 0.11291 0.0
C1855 C 0.54939 0.36606 0.03476 0.0
loop_
_geom_bond_atom_site_label_1
_geom_bond_atom_site_label_2
_geom_bond_distance
_geom_bond_site_symmetry_2
_ccdc_geom_bond_type
C0 C1 1.351 . S
C0 N3 1.368 . S
C0 H5 0.931 . S
C1 C0 1.351 . S
C1 N2 1.373 . S
C1 H29 0.930 . S
N2 C1 1.373 . S
N2 C4 1.340 . S
N3 C0 1.368 . S
N3 C4 1.321 . S
N3 Co6 2.135 . S
C4 N2 1.340 . S
C4 N3 1.321 . S
C4 H28 0.930 . S
H5 C0 0.931 . S
Co6 N3 2.135 . S
Co6 N9 2.121 . S
Co6 O14 2.055 . S
Co6 O17 2.039 . S
Co6 N20 2.140 . S
C7 O8 1.227 . S
C7 O17 1.265 . S
O8 C7 1.227 . S
N9 Co6 2.121 . S
N9 C11 1.375 . S
N9 C12 1.313 . S
C10 C11 1.338 . S
C10 N13 1.377 . S
C10 H30 0.930 . S
C11 N9 1.375 . S
C11 C10 1.338 . S
C11 H15 0.931 . S
C12 N9 1.313 . S
C12 N13 1.344 . S
C12 H16 0.930 . S
N13 C10 1.377 . S
N13 C12 1.344 . S
O14 Co6 2.055 . S
O14 C18 1.253 . S
H15 C11 0.931 . S
H16 C12 0.930 . S
O17 Co6 2.039 . S
O17 C7 1.265 . S
C18 O14 1.253 . S
C18 O19 1.227 . S
O19 C18 1.227 . S
N20 Co6 2.140 . S
N20 C23 1.346 . S
N20 C24 1.345 . S
C21 C22 1.387 . S
C21 C25 1.391 . S
C22 C21 1.387 . S
C22 C23 1.369 . S
C22 H31 0.929 . S
C23 N20 1.346 . S
C23 C22 1.369 . S
C23 H26 0.928 . S
C24 N20 1.345 . S
C24 C25 1.371 . S
C24 H27 0.931 . S
C25 C21 1.391 . S
C25 C24 1.371 . S
C25 H32 0.930 . S
H26 C23 0.928 . S
H27 C24 0.931 . S
H28 C4 0.930 . S
H29 C1 0.930 . S
H30 C10 0.930 . S
H31 C22 0.929 . S
H32 C25 0.930 . S
C33 C34 1.351 . S
C33 N36 1.368 . S
C33 H38 0.931 . S
C34 C33 1.351 . S
C34 N35 1.373 . S
C34 H62 0.930 . S
N35 C34 1.373 . S
N35 C37 1.340 . S
N36 C33 1.368 . S
N36 C37 1.321 . S
N36 Co39 2.135 . S
C37 N35 1.340 . S
C37 N36 1.321 . S
C37 H61 0.930 . S
H38 C33 0.931 . S
Co39 N36 2.135 . S
Co39 N42 2.121 1_565 S
Co39 O47 2.055 1_565 S
Co39 O50 2.039 . S
Co39 N53 2.140 . S
C40 O41 1.227 . S
C40 O50 1.265 . S
O41 C40 1.227 . S
N42 Co39 2.121 1_545 S
N42 C44 1.375 1_545 S
N42 C45 1.313 . S
C43 C44 1.336 1_545 S
C43 N46 1.377 . S
C43 H63 0.930 . S
C44 N42 1.375 1_565 S
C44 C43 1.336 1_565 S
C44 H48 0.933 . S
C45 N42 1.313 . S
C45 N46 1.344 . S
C45 H49 0.930 . S
N46 C43 1.377 . S
N46 C45 1.344 . S
O47 Co39 2.055 1_545 S
O47 C51 1.253 . S
H48 C44 0.933 . S
H49 C45 0.930 . S
O50 Co39 2.039 . S
O50 C40 1.265 . S
C51 O47 1.253 . S
C51 O52 1.227 . S
O52 C51 1.227 . S
N53 Co39 2.140 . S
N53 C56 1.346 . S
N53 C57 1.345 . S
C54 C55 1.387 . S
C54 C58 1.391 . S
C55 C54 1.387 . S
C55 C56 1.369 . S
C55 H64 0.929 . S
C56 N53 1.346 . S
C56 C55 1.369 . S
C56 H59 0.928 . S
C57 N53 1.345 . S
C57 C58 1.371 . S
C57 H60 0.931 . S
C58 C54 1.391 . S
C58 C57 1.371 . S
C58 H65 0.955 . S
H59 C56 0.928 . S
H60 C57 0.931 . S
H61 C37 0.930 . S
H62 C34 0.930 . S
H63 C43 0.930 . S
H64 C55 0.929 . S
H65 C58 0.955 . S
C66 C67 1.351 . S
C66 N69 1.368 . S
C66 H71 0.931 . S
C67 C66 1.351 . S
C67 N68 1.373 . S
C67 H95 0.930 . S
N68 C67 1.373 . S
N68 C70 1.340 . S
N69 C66 1.368 . S
N69 C70 1.321 . S
N69 Co72 2.135 1_556 S
C70 N68 1.340 . S
C70 N69 1.321 . S
C70 H94 0.930 . S
H71 C66 0.931 . S
Co72 N69 2.135 1_554 S
Co72 N75 2.121 1_565 S
Co72 O80 2.055 1_564 S
Co72 O83 2.039 . S
Co72 N86 2.140 . S
C73 O74 1.227 . S
C73 O83 1.265 . S
O74 C73 1.227 . S
N75 Co72 2.121 1_545 S
N75 C77 1.375 1_545 S
N75 C78 1.313 . S
C76 C77 1.336 1_545 S
C76 N79 1.377 . S
C76 H96 0.930 . S
C77 N75 1.375 1_565 S
C77 C76 1.336 1_565 S
C77 H81 0.933 . S
C78 N75 1.313 . S
C78 N79 1.344 . S
C78 H82 0.930 . S
N79 C76 1.377 . S
N79 C78 1.344 . S
O80 Co72 2.055 1_546 S
O80 C84 1.253 . S
H81 C77 0.933 . S
H82 C78 0.930 . S
O83 Co72 2.039 . S
O83 C73 1.265 . S
C84 O80 1.253 . S
C84 O85 1.227 1_556 S
O85 C84 1.227 1_554 S
N86 Co72 2.140 . S
N86 C89 1.346 . S
N86 C90 1.345 . S
C87 C88 1.387 . S
C87 C91 1.391 . S
C88 C87 1.387 . S
C88 C89 1.369 . S
C88 H97 0.929 . S
C89 N86 1.346 . S
C89 C88 1.369 . S
C89 H92 0.928 . S
C90 N86 1.345 . S
C90 C91 1.371 . S
C90 H93 0.931 . S
C91 C87 1.391 . S
C91 C90 1.371 . S
C91 H98 0.930 . S
H92 C89 0.928 . S
H93 C90 0.931 . S
H94 C70 0.930 . S
H95 C67 0.930 . S
H96 C76 0.930 . S
H97 C88 0.929 . S
H98 C91 0.930 . S
C99 C100 1.351 . S
C99 N102 1.368 . S
C99 H104 0.931 . S
C100 C99 1.351 . S
C100 N101 1.373 . S
C100 H128 0.930 . S
N101 C100 1.373 . S
N101 C103 1.340 . S
N102 C99 1.368 . S
N102 C103 1.321 . S
N102 Co105 2.135 1_556 S
C103 N101 1.340 . S
C103 N102 1.321 . S
C103 H127 0.930 . S
H104 C99 0.931 . S
Co105 N102 2.135 1_554 S
Co105 N108 2.121 . S
Co105 O113 2.055 1_554 S
Co105 O116 2.039 . S
Co105 N119 2.140 . S
C106 O107 1.227 . S
C106 O116 1.265 . S
O107 C106 1.227 . S
N108 Co105 2.121 . S
N108 C110 1.375 . S
N108 C111 1.313 . S
C109 C110 1.338 . S
C109 N112 1.377 . S
C109 H129 0.930 . S
C110 N108 1.375 . S
C110 C109 1.338 . S
C110 H114 0.931 . S
C111 N108 1.313 . S
C111 N112 1.344 . S
C111 H115 0.930 . S
N112 C109 1.377 . S
N112 C111 1.344 . S
O113 Co105 2.055 1_556 S
O113 C117 1.253 . S
H114 C110 0.931 . S
H115 C111 0.930 . S
O116 Co105 2.039 . S
O116 C106 1.265 . S
C117 O113 1.253 . S
C117 O118 1.227 1_556 S
O118 C117 1.227 1_554 S
N119 Co105 2.140 . S
N119 C122 1.346 . S
N119 C123 1.345 . S
C120 C121 1.387 . S
C120 C124 1.391 . S
C121 C120 1.387 . S
C121 C122 1.369 . S
C121 H130 0.929 . S
C122 N119 1.346 . S
C122 C121 1.369 . S
C122 H125 0.928 . S
C123 N119 1.345 . S
C123 C124 1.371 . S
C123 H126 0.931 . S
C124 C120 1.391 . S
C124 C123 1.371 . S
C124 H131 0.955 . S
H125 C122 0.928 . S
H126 C123 0.931 . S
H127 C103 0.930 . S
H128 C100 0.930 . S
H129 C109 0.930 . S
H130 C121 0.929 . S
H131 C124 0.955 . S
C132 C133 1.351 . S
C132 N135 1.368 . S
C132 H137 0.931 . S
C133 C132 1.351 . S
C133 N134 1.373 . S
C133 H161 0.930 . S
N134 C133 1.373 . S
N134 C136 1.340 . S
N135 C132 1.368 . S
N135 C136 1.321 . S
N135 Co138 2.135 . S
C136 N134 1.340 . S
C136 N135 1.321 . S
C136 H160 0.930 . S
H137 C132 0.931 . S
Co138 N135 2.135 . S
Co138 N141 2.121 . S
Co138 O146 2.055 . S
Co138 O149 2.039 . S
Co138 N152 2.140 . S
C139 O140 1.227 . S
C139 O149 1.265 . S
O140 C139 1.227 . S
N141 Co138 2.121 . S
N141 C143 1.375 . S
N141 C144 1.313 . S
C142 C143 1.338 . S
C142 N145 1.377 . S
C142 H162 0.930 . S
C143 N141 1.375 . S
C143 C142 1.338 . S
C143 H147 0.931 . S
C144 N141 1.313 . S
C144 N145 1.344 . S
C144 H148 0.930 . S
N145 C142 1.377 . S
N145 C144 1.344 . S
O146 Co138 2.055 . S
O146 C150 1.253 . S
H147 C143 0.931 . S
H148 C144 0.930 . S
O149 Co138 2.039 . S
O149 C139 1.265 . S
C150 O146 1.253 . S
C150 O151 1.227 . S
O151 C150 1.227 . S
N152 Co138 2.140 . S
N152 C155 1.346 . S
N152 C156 1.345 . S
C153 C154 1.387 . S
C153 C157 1.391 . S
C154 C153 1.387 . S
C154 C155 1.369 . S
C154 H163 0.929 . S
C155 N152 1.346 . S
C155 C154 1.369 . S
C155 H158 0.928 . S
C156 N152 1.345 . S
C156 C157 1.371 . S
C156 H159 0.931 . S
C157 C153 1.391 . S
C157 C156 1.371 . S
C157 H164 0.930 . S
H158 C155 0.928 . S
H159 C156 0.931 . S
H160 C136 0.930 . S
H161 C133 0.930 . S
H162 C142 0.930 . S
H163 C154 0.929 . S
H164 C157 0.930 . S
C165 C166 1.351 . S
C165 N168 1.368 . S
C165 H170 0.931 . S
C166 C165 1.351 . S
C166 N167 1.373 . S
C166 H194 0.930 . S
N167 C166 1.373 . S
N167 C169 1.340 . S
N168 C165 1.368 . S
N168 C169 1.321 . S
N168 Co171 2.135 . S
C169 N167 1.340 . S
C169 N168 1.321 . S
C169 H193 0.930 . S
H170 C165 0.931 . S
Co171 N168 2.135 . S
Co171 N174 2.121 1_545 S
Co171 O179 2.055 1_545 S
Co171 O182 2.039 . S
Co171 N185 2.140 . S
C172 O173 1.227 . S
C172 O182 1.265 . S
O173 C172 1.227 . S
N174 Co171 2.121 1_565 S
N174 C176 1.375 1_565 S
N174 C177 1.313 . S
C175 C176 1.336 1_565 S
C175 N178 1.377 . S
C175 H195 0.930 . S
C176 N174 1.375 1_545 S
C176 C175 1.336 1_545 S
C176 H180 0.933 . S
C177 N174 1.313 . S
C177 N178 1.344 . S
C177 H181 0.930 . S
N178 C175 1.377 . S
N178 C177 1.344 . S
O179 Co171 2.055 1_565 S
O179 C183 1.253 . S
H180 C176 0.933 . S
H181 C177 0.930 . S
O182 Co171 2.039 . S
O182 C172 1.265 . S
C183 O179 1.253 . S
C183 O184 1.227 . S
O184 C183 1.227 . S
N185 Co171 2.140 . S
N185 C188 1.346 . S
N185 C189 1.345 . S
C186 C187 1.387 . S
C186 C190 1.391 . S
C187 C186 1.387 . S
C187 C188 1.369 . S
C187 H196 0.929 . S
C188 N185 1.346 . S
C188 C187 1.369 . S
C188 H191 0.928 . S
C189 N185 1.345 . S
C189 C190 1.371 . S
C189 H192 0.931 . S
C190 C186 1.391 . S
C190 C189 1.371 . S
C190 H197 0.955 . S
H191 C188 0.928 . S
H192 C189 0.931 . S
H193 C169 0.930 . S
H194 C166 0.930 . S
H195 C175 0.930 . S
H196 C187 0.929 . S
H197 C190 0.955 . S
C198 C199 1.351 . S
C198 N201 1.368 . S
C198 H203 0.931 . S
C199 C198 1.351 . S
C199 N200 1.373 . S
C199 H227 0.930 . S
N200 C199 1.373 . S
N200 C202 1.340 . S
N201 C198 1.368 . S
N201 C202 1.321 . S
N201 Co204 2.135 1_554 S
C202 N200 1.340 . S
C202 N201 1.321 . S
C202 H226 0.930 . S
H203 C198 0.931 . S
Co204 N201 2.135 1_556 S
Co204 N207 2.121 1_545 S
Co204 O212 2.055 1_546 S
Co204 O215 2.039 . S
Co204 N218 2.140 . S
C205 O206 1.227 . S
C205 O215 1.265 . S
O206 C205 1.227 . S
N207 Co204 2.121 1_565 S
N207 C209 1.375 1_565 S
N207 C210 1.313 . S
C208 C209 1.336 1_565 S
C208 N211 1.377 . S
C208 H228 0.930 . S
C209 N207 1.375 1_545 S
C209 C208 1.336 1_545 S
C209 H213 0.933 . S
C210 N207 1.313 . S
C210 N211 1.344 . S
C210 H214 0.930 . S
N211 C208 1.377 . S
N211 C210 1.344 . S
O212 Co204 2.055 1_564 S
O212 C216 1.253 . S
H213 C209 0.933 . S
H214 C210 0.930 . S
O215 Co204 2.039 . S
O215 C205 1.265 . S
C216 O212 1.253 . S
C216 O217 1.227 1_554 S
O217 C216 1.227 1_556 S
N218 Co204 2.140 . S
N218 C221 1.346 . S
N218 C222 1.345 . S
C219 C220 1.387 . S
C219 C223 1.391 . S
C220 C219 1.387 . S
C220 C221 1.369 . S
C220 H229 0.929 . S
C221 N218 1.346 . S
C221 C220 1.369 . S
C221 H224 0.928 . S
C222 N218 1.345 . S
C222 C223 1.371 . S
C222 H225 0.931 . S
C223 C219 1.391 . S
C223 C222 1.371 . S
C223 H230 0.930 . S
H224 C221 0.928 . S
H225 C222 0.931 . S
H226 C202 0.930 . S
H227 C199 0.930 . S
H228 C208 0.930 . S
H229 C220 0.929 . S
H230 C223 0.930 . S
C231 C232 1.351 . S
C231 N234 1.368 . S
C231 H236 0.931 . S
C232 C231 1.351 . S
C232 N233 1.373 . S
C232 H260 0.930 . S
N233 C232 1.373 . S
N233 C235 1.340 . S
N234 C231 1.368 . S
N234 C235 1.321 . S
N234 Co237 2.135 1_554 S
C235 N233 1.340 . S
C235 N234 1.321 . S
C235 H259 0.930 . S
H236 C231 0.931 . S
Co237 N234 2.135 1_556 S
Co237 N240 2.121 . S
Co237 O245 2.055 1_556 S
Co237 O248 2.039 . S
Co237 N251 2.140 . S
C238 O239 1.227 . S
C238 O248 1.265 . S
O239 C238 1.227 . S
N240 Co237 2.121 . S
N240 C242 1.375 . S
N240 C243 1.313 . S
C241 C242 1.338 . S
C241 N244 1.377 . S
C241 H261 0.930 . S
C242 N240 1.375 . S
C242 C241 1.338 . S
C242 H246 0.931 . S
C243 N240 1.313 . S
C243 N244 1.344 . S
C243 H247 0.930 . S
N244 C241 1.377 . S
N244 C243 1.344 . S
O245 Co237 2.055 1_554 S
O245 C249 1.253 . S
H246 C242 0.931 . S
H247 C243 0.930 . S
O248 Co237 2.039 . S
O248 C238 1.265 . S
C249 O245 1.253 . S
C249 O250 1.227 1_554 S
O250 C249 1.227 1_556 S
N251 Co237 2.140 . S
N251 C254 1.346 . S
N251 C255 1.345 . S
C252 C253 1.387 . S
C252 C256 1.391 . S
C253 C252 1.387 . S
C253 C254 1.369 . S
C253 H262 0.929 . S
C254 N251 1.346 . S
C254 C253 1.369 . S
C254 H257 0.928 . S
C255 N251 1.345 . S
C255 C256 1.371 . S
C255 H258 0.931 . S
C256 C252 1.391 . S
C256 C255 1.371 . S
C256 H263 0.955 . S
H257 C254 0.928 . S
H258 C255 0.931 . S
H259 C235 0.930 . S
H260 C232 0.930 . S
H261 C241 0.930 . S
H262 C253 0.929 . S
H263 C256 0.955 . S
C264 C265 1.351 . S
C264 N267 1.368 . S
C264 H269 0.931 . S
C265 C264 1.351 . S
C265 N266 1.373 . S
C265 H293 0.930 . S
N266 C265 1.373 . S
N266 C268 1.340 . S
N267 C264 1.368 . S
N267 C268 1.321 . S
N267 Co270 2.135 . S
C268 N266 1.340 . S
C268 N267 1.321 . S
C268 H292 0.930 . S
H269 C264 0.931 . S
Co270 N267 2.135 . S
Co270 N273 2.121 . S
Co270 O278 2.055 . S
Co270 O281 2.039 . S
Co270 N284 2.140 . S
C271 O272 1.227 . S
C271 O281 1.265 . S
O272 C271 1.227 . S
N273 Co270 2.121 . S
N273 C275 1.375 . S
N273 C276 1.313 . S
C274 C275 1.338 . S
C274 N277 1.377 . S
C274 H294 0.930 . S
C275 N273 1.375 . S
C275 C274 1.338 . S
C275 H279 0.931 . S
C276 N273 1.313 . S
C276 N277 1.344 . S
C276 H280 0.930 . S
N277 C274 1.377 . S
N277 C276 1.344 . S
O278 Co270 2.055 . S
O278 C282 1.253 . S
H279 C275 0.931 . S
H280 C276 0.930 . S
O281 Co270 2.039 . S
O281 C271 1.265 . S
C282 O278 1.253 . S
C282 O283 1.227 . S
O283 C282 1.227 . S
N284 Co270 2.140 . S
N284 C287 1.346 . S
N284 C288 1.345 . S
C285 C286 1.387 . S
C285 C289 1.391 . S
C286 C285 1.387 . S
C286 C287 1.369 . S
C286 H295 0.929 . S
C287 N284 1.346 . S
C287 C286 1.369 . S
C287 H290 0.928 . S
C288 N284 1.345 . S
C288 C289 1.371 . S
C288 H291 0.931 . S
C289 C285 1.391 . S
C289 C288 1.371 . S
C289 H296 0.930 . S
H290 C287 0.928 . S
H291 C288 0.931 . S
H292 C268 0.930 . S
H293 C265 0.930 . S
H294 C274 0.930 . S
H295 C286 0.929 . S
H296 C289 0.930 . S
C297 C298 1.351 . S
C297 N300 1.368 . S
C297 H302 0.931 . S
C298 C297 1.351 . S
C298 N299 1.373 . S
C298 H326 0.930 . S
N299 C298 1.373 . S
N299 C301 1.340 . S
N300 C297 1.368 . S
N300 C301 1.321 . S
N300 Co303 2.135 . S
C301 N299 1.340 . S
C301 N300 1.321 . S
C301 H325 0.930 . S
H302 C297 0.931 . S
Co303 N300 2.135 . S
Co303 N306 2.121 . S
Co303 O311 2.055 . S
Co303 O314 2.039 . S
Co303 N317 2.140 . S
C304 O305 1.227 . S
C304 O314 1.265 . S
O305 C304 1.227 . S
N306 Co303 2.121 . S
N306 C308 1.375 . S
N306 C309 1.313 . S
C307 C308 1.338 . S
C307 N310 1.377 . S
C307 H327 0.930 . S
C308 N306 1.375 . S
C308 C307 1.338 . S
C308 H312 0.931 . S
C309 N306 1.313 . S
C309 N310 1.344 . S
C309 H313 0.930 . S
N310 C307 1.377 . S
N310 C309 1.344 . S
O311 Co303 2.055 . S
O311 C315 1.253 . S
H312 C308 0.931 . S
H313 C309 0.930 . S
O314 Co303 2.039 . S
O314 C304 1.265 . S
C315 O311 1.253 . S
C315 O316 1.227 . S
O316 C315 1.227 . S
N317 Co303 2.140 . S
N317 C320 1.346 . S
N317 C321 1.345 . S
C318 C319 1.387 . S
C318 C322 1.391 . S
C319 C318 1.387 . S
C319 C320 1.369 . S
C319 H328 0.929 . S
C320 N317 1.346 . S
C320 C319 1.369 . S
C320 H323 0.928 . S
C321 N317 1.345 . S
C321 C322 1.371 . S
C321 H324 0.931 . S
C322 C318 1.391 . S
C322 C321 1.371 . S
C322 H329 0.955 . S
H323 C320 0.928 . S
H324 C321 0.931 . S
H325 C301 0.930 . S
H326 C298 0.930 . S
H327 C307 0.930 . S
H328 C319 0.929 . S
H329 C322 0.955 . S
C330 C331 1.351 . S
C330 N333 1.368 . S
C330 H335 0.931 . S
C331 C330 1.351 . S
C331 N332 1.373 . S
C331 H359 0.930 . S
N332 C331 1.373 . S
N332 C334 1.340 . S
N333 C330 1.368 . S
N333 C334 1.321 . S
N333 Co336 2.135 . S
C334 N332 1.340 . S
C334 N333 1.321 . S
C334 H358 0.930 . S
H335 C330 0.931 . S
Co336 N333 2.135 . S
Co336 N339 2.121 . S
Co336 O344 2.055 . S
Co336 O347 2.039 . S
Co336 N350 2.140 . S
C337 O338 1.227 . S
C337 O347 1.265 . S
O338 C337 1.227 . S
N339 Co336 2.121 . S
N339 C341 1.375 . S
N339 C342 1.313 . S
C340 C341 1.338 . S
C340 N343 1.377 . S
C340 H360 0.930 . S
C341 N339 1.375 . S
C341 C340 1.338 . S
C341 H345 0.931 . S
C342 N339 1.313 . S
C342 N343 1.344 . S
C342 H346 0.930 . S
N343 C340 1.377 . S
N343 C342 1.344 . S
O344 Co336 2.055 . S
O344 C348 1.253 . S
H345 C341 0.931 . S
H346 C342 0.930 . S
O347 Co336 2.039 . S
O347 C337 1.265 . S
C348 O344 1.253 . S
C348 O349 1.227 . S
O349 C348 1.227 . S
N350 Co336 2.140 . S
N350 C353 1.346 . S
N350 C354 1.345 . S
C351 C352 1.387 . S
C351 C355 1.391 . S
C352 C351 1.387 . S
C352 C353 1.369 . S
C352 H361 0.929 . S
C353 N350 1.346 . S
C353 C352 1.369 . S
C353 H356 0.928 . S
C354 N350 1.345 . S
C354 C355 1.371 . S
C354 H357 0.931 . S
C355 C351 1.391 . S
C355 C354 1.371 . S
C355 H362 0.930 . S
H356 C353 0.928 . S
H357 C354 0.931 . S
H358 C334 0.930 . S
H359 C331 0.930 . S
H360 C340 0.930 . S
H361 C352 0.929 . S
H362 C355 0.930 . S
C363 C364 1.351 . S
C363 N366 1.368 . S
C363 H368 0.931 . S
C364 C363 1.351 . S
C364 N365 1.373 . S
C364 H392 0.930 . S
N365 C364 1.373 . S
N365 C367 1.340 . S
N366 C363 1.368 . S
N366 C367 1.321 . S
N366 Co369 2.135 . S
C367 N365 1.340 . S
C367 N366 1.321 . S
C367 H391 0.930 . S
H368 C363 0.931 . S
Co369 N366 2.135 . S
Co369 N372 2.121 . S
Co369 O377 2.055 . S
Co369 O380 2.039 . S
Co369 N383 2.140 . S
C370 O371 1.227 . S
C370 O380 1.265 . S
O371 C370 1.227 . S
N372 Co369 2.121 . S
N372 C374 1.375 . S
N372 C375 1.313 . S
C373 C374 1.338 . S
C373 N376 1.377 . S
C373 H393 0.930 . S
C374 N372 1.375 . S
C374 C373 1.338 . S
C374 H378 0.931 . S
C375 N372 1.313 . S
C375 N376 1.344 . S
C375 H379 0.930 . S
N376 C373 1.377 . S
N376 C375 1.344 . S
O377 Co369 2.055 . S
O377 C381 1.253 . S
H378 C374 0.931 . S
H379 C375 0.930 . S
O380 Co369 2.039 . S
O380 C370 1.265 . S
C381 O377 1.253 . S
C381 O382 1.227 . S
O382 C381 1.227 . S
N383 Co369 2.140 . S
N383 C386 1.346 . S
N383 C387 1.345 . S
C384 C385 1.387 . S
C384 C388 1.391 . S
C385 C384 1.387 . S
C385 C386 1.369 . S
C385 H394 0.929 . S
C386 N383 1.346 . S
C386 C385 1.369 . S
C386 H389 0.928 . S
C387 N383 1.345 . S
C387 C388 1.371 . S
C387 H390 0.931 . S
C388 C384 1.391 . S
C388 C387 1.371 . S
C388 H395 0.955 . S
H389 C386 0.928 . S
H390 C387 0.931 . S
H391 C367 0.930 . S
H392 C364 0.930 . S
H393 C373 0.930 . S
H394 C385 0.929 . S
H395 C388 0.955 . S
C396 C397 1.351 . S
C396 N399 1.368 . S
C396 H401 0.931 . S
C397 C396 1.351 . S
C397 N398 1.373 . S
C397 H425 0.930 . S
N398 C397 1.373 . S
N398 C400 1.340 . S
N399 C396 1.368 . S
N399 C400 1.321 . S
N399 Co402 2.135 . S
C400 N398 1.340 . S
C400 N399 1.321 . S
C400 H424 0.930 . S
H401 C396 0.931 . S
Co402 N399 2.135 . S
Co402 N405 2.121 . S
Co402 O410 2.055 . S
Co402 O413 2.039 . S
Co402 N416 2.140 . S
C403 O404 1.227 . S
C403 O413 1.265 . S
O404 C403 1.227 . S
N405 Co402 2.121 . S
N405 C407 1.375 . S
N405 C408 1.313 . S
C406 C407 1.338 . S
C406 N409 1.377 . S
C406 H426 0.930 . S
C407 N405 1.375 . S
C407 C406 1.338 . S
C407 H411 0.931 . S
C408 N405 1.313 . S
C408 N409 1.344 . S
C408 H412 0.930 . S
N409 C406 1.377 . S
N409 C408 1.344 . S
O410 Co402 2.055 . S
O410 C414 1.253 . S
H411 C407 0.931 . S
H412 C408 0.930 . S
O413 Co402 2.039 . S
O413 C403 1.265 . S
C414 O410 1.253 . S
C414 O415 1.227 . S
O415 C414 1.227 . S
N416 Co402 2.140 . S
N416 C419 1.346 . S
N416 C420 1.345 . S
C417 C418 1.387 . S
C417 C421 1.391 . S
C418 C417 1.387 . S
C418 C419 1.369 . S
C418 H427 0.929 . S
C419 N416 1.346 . S
C419 C418 1.369 . S
C419 H422 0.928 . S
C420 N416 1.345 . S
C420 C421 1.371 . S
C420 H423 0.931 . S
C421 C417 1.391 . S
C421 C420 1.371 . S
C421 H428 0.930 . S
H422 C419 0.928 . S
H423 C420 0.931 . S
H424 C400 0.930 . S
H425 C397 0.930 . S
H426 C406 0.930 . S
H427 C418 0.929 . S
H428 C421 0.930 . S
C429 C430 1.351 . S
C429 N432 1.368 . S
C429 H434 0.931 . S
C430 C429 1.351 . S
C430 N431 1.373 . S
C430 H458 0.930 . S
N431 C430 1.373 . S
N431 C433 1.340 . S
N432 C429 1.368 . S
N432 C433 1.321 . S
N432 Co435 2.135 . S
C433 N431 1.340 . S
C433 N432 1.321 . S
C433 H457 0.930 . S
H434 C429 0.931 . S
Co435 N432 2.135 . S
Co435 N438 2.121 . S
Co435 O443 2.055 . S
Co435 O446 2.039 . S
Co435 N449 2.140 . S
C436 O437 1.227 . S
C436 O446 1.265 . S
O437 C436 1.227 . S
N438 Co435 2.121 . S
N438 C440 1.375 . S
N438 C441 1.313 . S
C439 C440 1.338 . S
C439 N442 1.377 . S
C439 H459 0.930 . S
C440 N438 1.375 . S
C440 C439 1.338 . S
C440 H444 0.931 . S
C441 N438 1.313 . S
C441 N442 1.344 . S
C441 H445 0.930 . S
N442 C439 1.377 . S
N442 C441 1.344 . S
O443 Co435 2.055 . S
O443 C447 1.253 . S
H444 C440 0.931 . S
H445 C441 0.930 . S
O446 Co435 2.039 . S
O446 C436 1.265 . S
C447 O443 1.253 . S
C447 O448 1.227 . S
O448 C447 1.227 . S
N449 Co435 2.140 . S
N449 C452 1.346 . S
N449 C453 1.345 . S
C450 C451 1.387 . S
C450 C454 1.391 . S
C451 C450 1.387 . S
C451 C452 1.369 . S
C451 H460 0.929 . S
C452 N449 1.346 . S
C452 C451 1.369 . S
C452 H455 0.928 . S
C453 N449 1.345 . S
C453 C454 1.371 . S
C453 H456 0.931 . S
C454 C450 1.391 . S
C454 C453 1.371 . S
C454 H461 0.955 . S
H455 C452 0.928 . S
H456 C453 0.931 . S
H457 C433 0.930 . S
H458 C430 0.930 . S
H459 C439 0.930 . S
H460 C451 0.929 . S
H461 C454 0.955 . S
C462 C463 1.351 . S
C462 N465 1.368 . S
C462 H467 0.931 . S
C463 C462 1.351 . S
C463 N464 1.373 . S
C463 H491 0.930 . S
N464 C463 1.373 . S
N464 C466 1.340 . S
N465 C462 1.368 . S
N465 C466 1.321 . S
N465 Co468 2.135 . S
C466 N464 1.340 . S
C466 N465 1.321 . S
C466 H490 0.930 . S
H467 C462 0.931 . S
Co468 N465 2.135 . S
Co468 N471 2.121 . S
Co468 O476 2.055 . S
Co468 O479 2.039 . S
Co468 N482 2.140 . S
C469 O470 1.227 . S
C469 O479 1.265 . S
O470 C469 1.227 . S
N471 Co468 2.121 . S
N471 C473 1.375 . S
N471 C474 1.313 . S
C472 C473 1.338 . S
C472 N475 1.377 . S
C472 H492 0.930 . S
C473 N471 1.375 . S
C473 C472 1.338 . S
C473 H477 0.931 . S
C474 N471 1.313 . S
C474 N475 1.344 . S
C474 H478 0.930 . S
N475 C472 1.377 . S
N475 C474 1.344 . S
O476 Co468 2.055 . S
O476 C480 1.253 . S
H477 C473 0.931 . S
H478 C474 0.930 . S
O479 Co468 2.039 . S
O479 C469 1.265 . S
C480 O476 1.253 . S
C480 O481 1.227 . S
O481 C480 1.227 . S
N482 Co468 2.140 . S
N482 C485 1.346 . S
N482 C486 1.345 . S
C483 C484 1.387 . S
C483 C487 1.391 . S
C484 C483 1.387 . S
C484 C485 1.369 . S
C484 H493 0.929 . S
C485 N482 1.346 . S
C485 C484 1.369 . S
C485 H488 0.928 . S
C486 N482 1.345 . S
C486 C487 1.371 . S
C486 H489 0.931 . S
C487 C483 1.391 . S
C487 C486 1.371 . S
C487 H494 0.930 . S
H488 C485 0.928 . S
H489 C486 0.931 . S
H490 C466 0.930 . S
H491 C463 0.930 . S
H492 C472 0.930 . S
H493 C484 0.929 . S
H494 C487 0.930 . S
C495 C496 1.351 . S
C495 N498 1.368 . S
C495 H500 0.931 . S
C496 C495 1.351 . S
C496 N497 1.373 . S
C496 H524 0.930 . S
N497 C496 1.373 . S
N497 C499 1.340 . S
N498 C495 1.368 . S
N498 C499 1.321 . S
N498 Co501 2.135 . S
C499 N497 1.340 . S
C499 N498 1.321 . S
C499 H523 0.930 . S
H500 C495 0.931 . S
Co501 N498 2.135 . S
Co501 N504 2.121 . S
Co501 O509 2.055 . S
Co501 O512 2.039 . S
Co501 N515 2.140 . S
C502 O503 1.227 . S
C502 O512 1.265 . S
O503 C502 1.227 . S
N504 Co501 2.121 . S
N504 C506 1.375 . S
N504 C507 1.313 . S
C505 C506 1.338 . S
C505 N508 1.377 . S
C505 H525 0.930 . S
C506 N504 1.375 . S
C506 C505 1.338 . S
C506 H510 0.931 . S
C507 N504 1.313 . S
C507 N508 1.344 . S
C507 H511 0.930 . S
N508 C505 1.377 . S
N508 C507 1.344 . S
O509 Co501 2.055 . S
O509 C513 1.253 . S
H510 C506 0.931 . S
H511 C507 0.930 . S
O512 Co501 2.039 . S
O512 C502 1.265 . S
C513 O509 1.253 . S
C513 O514 1.227 . S
O514 C513 1.227 . S
N515 Co501 2.140 . S
N515 C518 1.346 . S
N515 C519 1.345 . S
C516 C517 1.387 . S
C516 C520 1.391 . S
C517 C516 1.387 . S
C517 C518 1.369 . S
C517 H526 0.929 . S
C518 N515 1.346 . S
C518 C517 1.369 . S
C518 H521 0.928 . S
C519 N515 1.345 . S
C519 C520 1.371 . S
C519 H522 0.931 . S
C520 C516 1.391 . S
C520 C519 1.371 . S
C520 H527 0.955 . S
H521 C518 0.928 . S
H522 C519 0.931 . S
H523 C499 0.930 . S
H524 C496 0.930 . S
H525 C505 0.930 . S
H526 C517 0.929 . S
H527 C520 0.955 . S
C528 C529 1.351 . S
C528 N531 1.368 . S
C528 H533 0.931 . S
C529 C528 1.351 . S
C529 N530 1.373 . S
C529 H557 0.930 . S
N530 C529 1.373 . S
N530 C532 1.340 . S
N531 C528 1.368 . S
N531 C532 1.321 . S
N531 Co534 2.135 . S
C532 N530 1.340 . S
C532 N531 1.321 . S
C532 H556 0.930 . S
H533 C528 0.931 . S
Co534 N531 2.135 . S
Co534 N537 2.121 . S
Co534 O542 2.055 . S
Co534 O545 2.039 . S
Co534 N548 2.140 . S
C535 O536 1.227 . S
C535 O545 1.265 . S
O536 C535 1.227 . S
N537 Co534 2.121 . S
N537 C539 1.375 . S
N537 C540 1.313 . S
C538 C539 1.338 . S
C538 N541 1.377 . S
C538 H558 0.930 . S
C539 N537 1.375 . S
C539 C538 1.338 . S
C539 H543 0.931 . S
C540 N537 1.313 . S
C540 N541 1.344 . S
C540 H544 0.930 . S
N541 C538 1.377 . S
N541 C540 1.344 . S
O542 Co534 2.055 . S
O542 C546 1.253 . S
H543 C539 0.931 . S
H544 C540 0.930 . S
O545 Co534 2.039 . S
O545 C535 1.265 . S
C546 O542 1.253 . S
C546 O547 1.227 . S
O547 C546 1.227 . S
N548 Co534 2.140 . S
N548 C551 1.346 . S
N548 C552 1.345 . S
C549 C550 1.387 . S
C549 C553 1.391 . S
C550 C549 1.387 . S
C550 C551 1.369 . S
C550 H559 0.929 . S
C551 N548 1.346 . S
C551 C550 1.369 . S
C551 H554 0.928 . S
C552 N548 1.345 . S
C552 C553 1.371 . S
C552 H555 0.931 . S
C553 C549 1.391 . S
C553 C552 1.371 . S
C553 H560 0.930 . S
H554 C551 0.928 . S
H555 C552 0.931 . S
H556 C532 0.930 . S
H557 C529 0.930 . S
H558 C538 0.930 . S
H559 C550 0.929 . S
H560 C553 0.930 . S
C561 C562 1.351 . S
C561 N564 1.368 . S
C561 H566 0.931 . S
C562 C561 1.351 . S
C562 N563 1.373 . S
C562 H590 0.930 . S
N563 C562 1.373 . S
N563 C565 1.340 . S
N564 C561 1.368 . S
N564 C565 1.321 . S
N564 Co567 2.135 . S
C565 N563 1.340 . S
C565 N564 1.321 . S
C565 H589 0.930 . S
H566 C561 0.931 . S
Co567 N564 2.135 . S
Co567 N570 2.121 1_565 S
Co567 O575 2.055 1_565 S
Co567 O578 2.039 . S
Co567 N581 2.140 . S
C568 O569 1.227 . S
C568 O578 1.265 . S
O569 C568 1.227 . S
N570 Co567 2.121 1_545 S
N570 C572 1.375 1_545 S
N570 C573 1.313 . S
C571 C572 1.336 1_545 S
C571 N574 1.377 . S
C571 H591 0.930 . S
C572 N570 1.375 1_565 S
C572 C571 1.336 1_565 S
C572 H576 0.933 . S
C573 N570 1.313 . S
C573 N574 1.344 . S
C573 H577 0.930 . S
N574 C571 1.377 . S
N574 C573 1.344 . S
O575 Co567 2.055 1_545 S
O575 C579 1.253 . S
H576 C572 0.933 . S
H577 C573 0.930 . S
O578 Co567 2.039 . S
O578 C568 1.265 . S
C579 O575 1.253 . S
C579 O580 1.227 . S
O580 C579 1.227 . S
N581 Co567 2.140 . S
N581 C584 1.346 . S
N581 C585 1.345 . S
C582 C583 1.387 . S
C582 C586 1.391 . S
C583 C582 1.387 . S
C583 C584 1.369 . S
C583 H592 0.929 . S
C584 N581 1.346 . S
C584 C583 1.369 . S
C584 H587 0.928 . S
C585 N581 1.345 . S
C585 C586 1.371 . S
C585 H588 0.931 . S
C586 C582 1.391 . S
C586 C585 1.371 . S
C586 H593 0.930 . S
H587 C584 0.928 . S
H588 C585 0.931 . S
H589 C565 0.930 . S
H590 C562 0.930 . S
H591 C571 0.930 . S
H592 C583 0.929 . S
H593 C586 0.930 . S
C594 C595 1.351 . S
C594 N597 1.368 . S
C594 H599 0.931 . S
C595 C594 1.351 . S
C595 N596 1.373 . S
C595 H623 0.930 . S
N596 C595 1.373 . S
N596 C598 1.340 . S
N597 C594 1.368 . S
N597 C598 1.321 . S
N597 Co600 2.135 . S
C598 N596 1.340 . S
C598 N597 1.321 . S
C598 H622 0.930 . S
H599 C594 0.931 . S
Co600 N597 2.135 . S
Co600 N603 2.121 1_565 S
Co600 O608 2.055 1_565 S
Co600 O611 2.039 . S
Co600 N614 2.140 . S
C601 O602 1.227 . S
C601 O611 1.265 . S
O602 C601 1.227 . S
N603 Co600 2.121 1_545 S
N603 C605 1.375 1_545 S
N603 C606 1.313 . S
C604 C605 1.336 1_545 S
C604 N607 1.377 . S
C604 H624 0.930 . S
C605 N603 1.375 1_565 S
C605 C604 1.336 1_565 S
C605 H609 0.933 . S
C606 N603 1.313 . S
C606 N607 1.344 . S
C606 H610 0.930 . S
N607 C604 1.377 . S
N607 C606 1.344 . S
O608 Co600 2.055 1_545 S
O608 C612 1.253 . S
H609 C605 0.933 . S
H610 C606 0.930 . S
O611 Co600 2.039 . S
O611 C601 1.265 . S
C612 O608 1.253 . S
C612 O613 1.227 . S
O613 C612 1.227 . S
N614 Co600 2.140 . S
N614 C617 1.346 . S
N614 C618 1.345 . S
C615 C616 1.387 . S
C615 C619 1.391 . S
C616 C615 1.387 . S
C616 C617 1.369 . S
C616 H625 0.929 . S
C617 N614 1.346 . S
C617 C616 1.369 . S
C617 H620 0.928 . S
C618 N614 1.345 . S
C618 C619 1.371 . S
C618 H621 0.931 . S
C619 C615 1.391 . S
C619 C618 1.371 . S
C619 H626 0.930 . S
H620 C617 0.928 . S
H621 C618 0.931 . S
H622 C598 0.930 . S
H623 C595 0.930 . S
H624 C604 0.930 . S
H625 C616 0.929 . S
H626 C619 0.930 . S
C627 C628 1.351 . S
C627 N630 1.368 . S
C627 H632 0.931 . S
C628 C627 1.351 . S
C628 N629 1.373 . S
C628 H656 0.930 . S
N629 C628 1.373 . S
N629 C631 1.340 . S
N630 C627 1.368 . S
N630 C631 1.321 . S
N630 Co633 2.135 . S
C631 N629 1.340 . S
C631 N630 1.321 . S
C631 H655 0.930 . S
H632 C627 0.931 . S
Co633 N630 2.135 . S
Co633 N636 2.121 . S
Co633 O641 2.055 . S
Co633 O644 2.039 . S
Co633 N647 2.140 . S
C634 O635 1.227 . S
C634 O644 1.265 . S
O635 C634 1.227 . S
N636 Co633 2.121 . S
N636 C638 1.375 . S
N636 C639 1.313 . S
C637 C638 1.338 . S
C637 N640 1.377 . S
C637 H657 0.930 . S
C638 N636 1.375 . S
C638 C637 1.338 . S
C638 H642 0.931 . S
C639 N636 1.313 . S
C639 N640 1.344 . S
C639 H643 0.930 . S
N640 C637 1.377 . S
N640 C639 1.344 . S
O641 Co633 2.055 . S
O641 C645 1.253 . S
H642 C638 0.931 . S
H643 C639 0.930 . S
O644 Co633 2.039 . S
O644 C634 1.265 . S
C645 O641 1.253 . S
C645 O646 1.227 . S
O646 C645 1.227 . S
N647 Co633 2.140 . S
N647 C650 1.346 . S
N647 C651 1.345 . S
C648 C649 1.387 . S
C648 C652 1.391 . S
C649 C648 1.387 . S
C649 C650 1.369 . S
C649 H658 0.929 . S
C650 N647 1.346 . S
C650 C649 1.369 . S
C650 H653 0.928 . S
C651 N647 1.345 . S
C651 C652 1.371 . S
C651 H654 0.931 . S
C652 C648 1.391 . S
C652 C651 1.371 . S
C652 H659 0.930 . S
H653 C650 0.928 . S
H654 C651 0.931 . S
H655 C631 0.930 . S
H656 C628 0.930 . S
H657 C637 0.930 . S
H658 C649 0.929 . S
H659 C652 0.930 . S
C660 C661 1.351 . S
C660 N663 1.368 . S
C660 H665 0.931 . S
C661 C660 1.351 . S
C661 N662 1.373 . S
C661 H689 0.930 . S
N662 C661 1.373 . S
N662 C664 1.340 . S
N663 C660 1.368 . S
N663 C664 1.321 . S
N663 Co666 2.135 . S
C664 N662 1.340 . S
C664 N663 1.321 . S
C664 H688 0.930 . S
H665 C660 0.931 . S
Co666 N663 2.135 . S
Co666 N669 2.121 . S
Co666 O674 2.055 . S
Co666 O677 2.039 . S
Co666 N680 2.140 . S
C667 O668 1.227 . S
C667 O677 1.265 . S
O668 C667 1.227 . S
N669 Co666 2.121 . S
N669 C671 1.375 . S
N669 C672 1.313 . S
C670 C671 1.338 . S
C670 N673 1.377 . S
C670 H690 0.930 . S
C671 N669 1.375 . S
C671 C670 1.338 . S
C671 H675 0.931 . S
C672 N669 1.313 . S
C672 N673 1.344 . S
C672 H676 0.930 . S
N673 C670 1.377 . S
N673 C672 1.344 . S
O674 Co666 2.055 . S
O674 C678 1.253 . S
H675 C671 0.931 . S
H676 C672 0.930 . S
O677 Co666 2.039 . S
O677 C667 1.265 . S
C678 O674 1.253 . S
C678 O679 1.227 . S
O679 C678 1.227 . S
N680 Co666 2.140 . S
N680 C683 1.346 . S
N680 C684 1.345 . S
C681 C682 1.387 . S
C681 C685 1.391 . S
C682 C681 1.387 . S
C682 C683 1.369 . S
C682 H691 0.929 . S
C683 N680 1.346 . S
C683 C682 1.369 . S
C683 H686 0.928 . S
C684 N680 1.345 . S
C684 C685 1.371 . S
C684 H687 0.931 . S
C685 C681 1.391 . S
C685 C684 1.371 . S
C685 H692 0.930 . S
H686 C683 0.928 . S
H687 C684 0.931 . S
H688 C664 0.930 . S
H689 C661 0.930 . S
H690 C670 0.930 . S
H691 C682 0.929 . S
H692 C685 0.930 . S
C693 C694 1.351 . S
C693 N696 1.368 . S
C693 H698 0.931 . S
C694 C693 1.351 . S
C694 N695 1.373 . S
C694 H722 0.930 . S
N695 C694 1.373 . S
N695 C697 1.340 . S
N696 C693 1.368 . S
N696 C697 1.321 . S
N696 Co699 2.135 . S
C697 N695 1.340 . S
C697 N696 1.321 . S
C697 H721 0.930 . S
H698 C693 0.931 . S
Co699 N696 2.135 . S
Co699 N702 2.121 1_545 S
Co699 O707 2.055 1_545 S
Co699 O710 2.039 . S
Co699 N713 2.140 . S
C700 O701 1.227 . S
C700 O710 1.265 . S
O701 C700 1.227 . S
N702 Co699 2.121 1_565 S
N702 C704 1.375 1_565 S
N702 C705 1.313 . S
C703 C704 1.336 1_565 S
C703 N706 1.377 . S
C703 H723 0.930 . S
C704 N702 1.375 1_545 S
C704 C703 1.336 1_545 S
C704 H708 0.933 . S
C705 N702 1.313 . S
C705 N706 1.344 . S
C705 H709 0.930 . S
N706 C703 1.377 . S
N706 C705 1.344 . S
O707 Co699 2.055 1_565 S
O707 C711 1.253 . S
H708 C704 0.933 . S
H709 C705 0.930 . S
O710 Co699 2.039 . S
O710 C700 1.265 . S
C711 O707 1.253 . S
C711 O712 1.227 . S
O712 C711 1.227 . S
N713 Co699 2.140 . S
N713 C716 1.346 . S
N713 C717 1.345 . S
C714 C715 1.387 . S
C714 C718 1.391 . S
C715 C714 1.387 . S
C715 C716 1.369 . S
C715 H724 0.929 . S
C716 N713 1.346 . S
C716 C715 1.369 . S
C716 H719 0.928 . S
C717 N713 1.345 . S
C717 C718 1.371 . S
C717 H720 0.931 . S
C718 C714 1.391 . S
C718 C717 1.371 . S
C718 H725 0.930 . S
H719 C716 0.928 . S
H720 C717 0.931 . S
H721 C697 0.930 . S
H722 C694 0.930 . S
H723 C703 0.930 . S
H724 C715 0.929 . S
H725 C718 0.930 . S
C726 C727 1.351 . S
C726 N729 1.368 . S
C726 H731 0.931 . S
C727 C726 1.351 . S
C727 N728 1.373 . S
C727 H755 0.930 . S
N728 C727 1.373 . S
N728 C730 1.340 . S
N729 C726 1.368 . S
N729 C730 1.321 . S
N729 Co732 2.135 . S
C730 N728 1.340 . S
C730 N729 1.321 . S
C730 H754 0.930 . S
H731 C726 0.931 . S
Co732 N729 2.135 . S
Co732 N735 2.121 1_545 S
Co732 O740 2.055 1_545 S
Co732 O743 2.039 . S
Co732 N746 2.140 . S
C733 O734 1.227 . S
C733 O743 1.265 . S
O734 C733 1.227 . S
N735 Co732 2.121 1_565 S
N735 C737 1.375 1_565 S
N735 C738 1.313 . S
C736 C737 1.336 1_565 S
C736 N739 1.377 . S
C736 H756 0.930 . S
C737 N735 1.375 1_545 S
C737 C736 1.336 1_545 S
C737 H741 0.933 . S
C738 N735 1.313 . S
C738 N739 1.344 . S
C738 H742 0.930 . S
N739 C736 1.377 . S
N739 C738 1.344 . S
O740 Co732 2.055 1_565 S
O740 C744 1.253 . S
H741 C737 0.933 . S
H742 C738 0.930 . S
O743 Co732 2.039 . S
O743 C733 1.265 . S
C744 O740 1.253 . S
C744 O745 1.227 . S
O745 C744 1.227 . S
N746 Co732 2.140 . S
N746 C749 1.346 . S
N746 C750 1.345 . S
C747 C748 1.387 . S
C747 C751 1.391 . S
C748 C747 1.387 . S
C748 C749 1.369 . S
C748 H757 0.929 . S
C749 N746 1.346 . S
C749 C748 1.369 . S
C749 H752 0.928 . S
C750 N746 1.345 . S
C750 C751 1.371 . S
C750 H753 0.931 . S
C751 C747 1.391 . S
C751 C750 1.371 . S
C751 H758 0.930 . S
H752 C749 0.928 . S
H753 C750 0.931 . S
H754 C730 0.930 . S
H755 C727 0.930 . S
H756 C736 0.930 . S
H757 C748 0.929 . S
H758 C751 0.930 . S
C759 C760 1.351 . S
C759 N762 1.368 . S
C759 H764 0.931 . S
C760 C759 1.351 . S
C760 N761 1.373 . S
C760 H788 0.930 . S
N761 C760 1.373 . S
N761 C763 1.340 . S
N762 C759 1.368 . S
N762 C763 1.321 . S
N762 Co765 2.135 . S
C763 N761 1.340 . S
C763 N762 1.321 . S
C763 H787 0.930 . S
H764 C759 0.931 . S
Co765 N762 2.135 . S
Co765 N768 2.121 . S
Co765 O773 2.055 . S
Co765 O776 2.039 . S
Co765 N779 2.140 . S
C766 O767 1.227 . S
C766 O776 1.265 . S
O767 C766 1.227 . S
N768 Co765 2.121 . S
N768 C770 1.375 . S
N768 C771 1.313 . S
C769 C770 1.338 . S
C769 N772 1.377 . S
C769 H789 0.930 . S
C770 N768 1.375 . S
C770 C769 1.338 . S
C770 H774 0.931 . S
C771 N768 1.313 . S
C771 N772 1.344 . S
C771 H775 0.930 . S
N772 C769 1.377 . S
N772 C771 1.344 . S
O773 Co765 2.055 . S
O773 C777 1.253 . S
H774 C770 0.931 . S
H775 C771 0.930 . S
O776 Co765 2.039 . S
O776 C766 1.265 . S
C777 O773 1.253 . S
C777 O778 1.227 . S
O778 C777 1.227 . S
N779 Co765 2.140 . S
N779 C782 1.346 . S
N779 C783 1.345 . S
C780 C781 1.387 . S
C780 C784 1.391 . S
C781 C780 1.387 . S
C781 C782 1.369 . S
C781 H790 0.929 . S
C782 N779 1.346 . S
C782 C781 1.369 . S
C782 H785 0.928 . S
C783 N779 1.345 . S
C783 C784 1.371 . S
C783 H786 0.931 . S
C784 C780 1.391 . S
C784 C783 1.371 . S
C784 H791 0.930 . S
H785 C782 0.928 . S
H786 C783 0.931 . S
H787 C763 0.930 . S
H788 C760 0.930 . S
H789 C769 0.930 . S
H790 C781 0.929 . S
H791 C784 0.930 . S
C792 C793 1.351 . S
C792 N795 1.368 . S
C792 H797 0.931 . S
C793 C792 1.351 . S
C793 N794 1.373 . S
C793 H821 0.930 . S
N794 C793 1.373 . S
N794 C796 1.340 . S
N795 C792 1.368 . S
N795 C796 1.321 . S
N795 Co798 2.135 . S
C796 N794 1.340 . S
C796 N795 1.321 . S
C796 H820 0.930 . S
H797 C792 0.931 . S
Co798 N795 2.135 . S
Co798 N801 2.121 . S
Co798 O806 2.055 . S
Co798 O809 2.039 . S
Co798 N812 2.140 . S
C799 O800 1.227 . S
C799 O809 1.265 . S
O800 C799 1.227 . S
N801 Co798 2.121 . S
N801 C803 1.375 . S
N801 C804 1.313 . S
C802 C803 1.338 . S
C802 N805 1.377 . S
C802 H822 0.930 . S
C803 N801 1.375 . S
C803 C802 1.338 . S
C803 H807 0.931 . S
C804 N801 1.313 . S
C804 N805 1.344 . S
C804 H808 0.930 . S
N805 C802 1.377 . S
N805 C804 1.344 . S
O806 Co798 2.055 . S
O806 C810 1.253 . S
H807 C803 0.931 . S
H808 C804 0.930 . S
O809 Co798 2.039 . S
O809 C799 1.265 . S
C810 O806 1.253 . S
C810 O811 1.227 . S
O811 C810 1.227 . S
N812 Co798 2.140 . S
N812 C815 1.346 . S
N812 C816 1.345 . S
C813 C814 1.387 . S
C813 C817 1.391 . S
C814 C813 1.387 . S
C814 C815 1.369 . S
C814 H823 0.929 . S
C815 N812 1.346 . S
C815 C814 1.369 . S
C815 H818 0.928 . S
C816 N812 1.345 . S
C816 C817 1.371 . S
C816 H819 0.931 . S
C817 C813 1.391 . S
C817 C816 1.371 . S
C817 H824 0.930 . S
H818 C815 0.928 . S
H819 C816 0.931 . S
H820 C796 0.930 . S
H821 C793 0.930 . S
H822 C802 0.930 . S
H823 C814 0.929 . S
H824 C817 0.930 . S
C825 C826 1.351 . S
C825 N828 1.368 . S
C825 H830 0.931 . S
C826 C825 1.351 . S
C826 N827 1.373 . S
C826 H854 0.930 . S
N827 C826 1.373 . S
N827 C829 1.340 . S
N828 C825 1.368 . S
N828 C829 1.321 . S
N828 Co831 2.135 . S
C829 N827 1.340 . S
C829 N828 1.321 . S
C829 H853 0.930 . S
H830 C825 0.931 . S
Co831 N828 2.135 . S
Co831 N834 2.121 . S
Co831 O839 2.055 . S
Co831 O842 2.039 . S
Co831 N845 2.140 . S
C832 O833 1.227 . S
C832 O842 1.265 . S
O833 C832 1.227 . S
N834 Co831 2.121 . S
N834 C836 1.375 . S
N834 C837 1.313 . S
C835 C836 1.338 . S
C835 N838 1.377 . S
C835 H855 0.930 . S
C836 N834 1.375 . S
C836 C835 1.338 . S
C836 H840 0.931 . S
C837 N834 1.313 . S
C837 N838 1.344 . S
C837 H841 0.930 . S
N838 C835 1.377 . S
N838 C837 1.344 . S
O839 Co831 2.055 . S
O839 C843 1.253 . S
H840 C836 0.931 . S
H841 C837 0.930 . S
O842 Co831 2.039 . S
O842 C832 1.265 . S
C843 O839 1.253 . S
C843 O844 1.227 . S
O844 C843 1.227 . S
N845 Co831 2.140 . S
N845 C848 1.346 . S
N845 C849 1.345 . S
C846 C847 1.387 . S
C846 C850 1.391 . S
C847 C846 1.387 . S
C847 C848 1.369 . S
C847 H856 0.929 . S
C848 N845 1.346 . S
C848 C847 1.369 . S
C848 H851 0.928 . S
C849 N845 1.345 . S
C849 C850 1.371 . S
C849 H852 0.931 . S
C850 C846 1.391 . S
C850 C849 1.371 . S
C850 H857 0.930 . S
H851 C848 0.928 . S
H852 C849 0.931 . S
H853 C829 0.930 . S
H854 C826 0.930 . S
H855 C835 0.930 . S
H856 C847 0.929 . S
H857 C850 0.930 . S
C858 C859 1.351 . S
C858 N861 1.368 . S
C858 H863 0.931 . S
C859 C858 1.351 . S
C859 N860 1.373 . S
C859 H887 0.930 . S
N860 C859 1.373 . S
N860 C862 1.340 . S
N861 C858 1.368 . S
N861 C862 1.321 . S
N861 Co864 2.135 1_556 S
C862 N860 1.340 . S
C862 N861 1.321 . S
C862 H886 0.930 . S
H863 C858 0.931 . S
Co864 N861 2.135 1_554 S
Co864 N867 2.121 . S
Co864 O872 2.055 1_554 S
Co864 O875 2.039 . S
Co864 N878 2.140 . S
C865 O866 1.227 . S
C865 O875 1.265 . S
O866 C865 1.227 . S
N867 Co864 2.121 . S
N867 C869 1.375 . S
N867 C870 1.313 . S
C868 C869 1.338 . S
C868 N871 1.377 . S
C868 H888 0.930 . S
C869 N867 1.375 . S
C869 C868 1.338 . S
C869 H873 0.931 . S
C870 N867 1.313 . S
C870 N871 1.344 . S
C870 H874 0.930 . S
N871 C868 1.377 . S
N871 C870 1.344 . S
O872 Co864 2.055 1_556 S
O872 C876 1.253 . S
H873 C869 0.931 . S
H874 C870 0.930 . S
O875 Co864 2.039 . S
O875 C865 1.265 . S
C876 O872 1.253 . S
C876 O877 1.227 1_556 S
O877 C876 1.227 1_554 S
N878 Co864 2.140 . S
N878 C881 1.346 . S
N878 C882 1.345 . S
C879 C880 1.387 . S
C879 C883 1.391 . S
C880 C879 1.387 . S
C880 C881 1.369 . S
C880 H889 0.929 . S
C881 N878 1.346 . S
C881 C880 1.369 . S
C881 H884 0.928 . S
C882 N878 1.345 . S
C882 C883 1.371 . S
C882 H885 0.931 . S
C883 C879 1.391 . S
C883 C882 1.371 . S
C883 H890 0.930 . S
H884 C881 0.928 . S
H885 C882 0.931 . S
H886 C862 0.930 . S
H887 C859 0.930 . S
H888 C868 0.930 . S
H889 C880 0.929 . S
H890 C883 0.930 . S
C891 C892 1.351 . S
C891 N894 1.368 . S
C891 H896 0.931 . S
C892 C891 1.351 . S
C892 N893 1.373 . S
C892 H920 0.930 . S
N893 C892 1.373 . S
N893 C895 1.340 . S
N894 C891 1.368 . S
N894 C895 1.321 . S
N894 Co897 2.135 1_556 S
C895 N893 1.340 . S
C895 N894 1.321 . S
C895 H919 0.930 . S
H896 C891 0.931 . S
Co897 N894 2.135 1_554 S
Co897 N900 2.121 . S
Co897 O905 2.055 1_554 S
Co897 O908 2.039 . S
Co897 N911 2.140 . S
C898 O899 1.227 . S
C898 O908 1.265 . S
O899 C898 1.227 . S
N900 Co897 2.121 . S
N900 C902 1.375 . S
N900 C903 1.313 . S
C901 C902 1.338 . S
C901 N904 1.377 . S
C901 H921 0.930 . S
C902 N900 1.375 . S
C902 C901 1.338 . S
C902 H906 0.931 . S
C903 N900 1.313 . S
C903 N904 1.344 . S
C903 H907 0.930 . S
N904 C901 1.377 . S
N904 C903 1.344 . S
O905 Co897 2.055 1_556 S
O905 C909 1.253 . S
H906 C902 0.931 . S
H907 C903 0.930 . S
O908 Co897 2.039 . S
O908 C898 1.265 . S
C909 O905 1.253 . S
C909 O910 1.227 1_556 S
O910 C909 1.227 1_554 S
N911 Co897 2.140 . S
N911 C914 1.346 . S
N911 C915 1.345 . S
C912 C913 1.387 . S
C912 C916 1.391 . S
C913 C912 1.387 . S
C913 C914 1.369 . S
C913 H922 0.929 . S
C914 N911 1.346 . S
C914 C913 1.369 . S
C914 H917 0.928 . S
C915 N911 1.345 . S
C915 C916 1.371 . S
C915 H918 0.931 . S
C916 C912 1.391 . S
C916 C915 1.371 . S
C916 H923 0.930 . S
H917 C914 0.928 . S
H918 C915 0.931 . S
H919 C895 0.930 . S
H920 C892 0.930 . S
H921 C901 0.930 . S
H922 C913 0.929 . S
H923 C916 0.930 . S
C924 C925 1.351 . S
C924 N927 1.368 . S
C924 H929 0.931 . S
C925 C924 1.351 . S
C925 N926 1.373 . S
C925 H953 0.930 . S
N926 C925 1.373 . S
N926 C928 1.340 . S
N927 C924 1.368 . S
N927 C928 1.321 . S
N927 Co930 2.135 . S
C928 N926 1.340 . S
C928 N927 1.321 . S
C928 H952 0.930 . S
H929 C924 0.931 . S
Co930 N927 2.135 . S
Co930 N933 2.121 . S
Co930 O938 2.055 . S
Co930 O941 2.039 . S
Co930 N944 2.140 . S
C931 O932 1.227 . S
C931 O941 1.265 . S
O932 C931 1.227 . S
N933 Co930 2.121 . S
N933 C935 1.375 . S
N933 C936 1.313 . S
C934 C935 1.338 . S
C934 N937 1.377 . S
C934 H954 0.930 . S
C935 N933 1.375 . S
C935 C934 1.338 . S
C935 H939 0.931 . S
C936 N933 1.313 . S
C936 N937 1.344 . S
C936 H940 0.930 . S
N937 C934 1.377 . S
N937 C936 1.344 . S
O938 Co930 2.055 . S
O938 C942 1.253 . S
H939 C935 0.931 . S
H940 C936 0.930 . S
O941 Co930 2.039 . S
O941 C931 1.265 . S
C942 O938 1.253 . S
C942 O943 1.227 . S
O943 C942 1.227 . S
N944 Co930 2.140 . S
N944 C947 1.346 . S
N944 C948 1.345 . S
C945 C946 1.387 . S
C945 C949 1.391 . S
C946 C945 1.387 . S
C946 C947 1.369 . S
C946 H955 0.929 . S
C947 N944 1.346 . S
C947 C946 1.369 . S
C947 H950 0.928 . S
C948 N944 1.345 . S
C948 C949 1.371 . S
C948 H951 0.931 . S
C949 C945 1.391 . S
C949 C948 1.371 . S
C949 H956 0.930 . S
H950 C947 0.928 . S
H951 C948 0.931 . S
H952 C928 0.930 . S
H953 C925 0.930 . S
H954 C934 0.930 . S
H955 C946 0.929 . S
H956 C949 0.930 . S
C957 C958 1.351 . S
C957 N960 1.368 . S
C957 H962 0.931 . S
C958 C957 1.351 . S
C958 N959 1.373 . S
C958 H986 0.930 . S
N959 C958 1.373 . S
N959 C961 1.340 . S
N960 C957 1.368 . S
N960 C961 1.321 . S
N960 Co963 2.135 . S
C961 N959 1.340 . S
C961 N960 1.321 . S
C961 H985 0.930 . S
H962 C957 0.931 . S
Co963 N960 2.135 . S
Co963 N966 2.121 . S
Co963 O971 2.055 . S
Co963 O974 2.039 . S
Co963 N977 2.140 . S
C964 O965 1.227 . S
C964 O974 1.265 . S
O965 C964 1.227 . S
N966 Co963 2.121 . S
N966 C968 1.375 . S
N966 C969 1.313 . S
C967 C968 1.338 . S
C967 N970 1.377 . S
C967 H987 0.930 . S
C968 N966 1.375 . S
C968 C967 1.338 . S
C968 H972 0.931 . S
C969 N966 1.313 . S
C969 N970 1.344 . S
C969 H973 0.930 . S
N970 C967 1.377 . S
N970 C969 1.344 . S
O971 Co963 2.055 . S
O971 C975 1.253 . S
H972 C968 0.931 . S
H973 C969 0.930 . S
O974 Co963 2.039 . S
O974 C964 1.265 . S
C975 O971 1.253 . S
C975 O976 1.227 . S
O976 C975 1.227 . S
N977 Co963 2.140 . S
N977 C980 1.346 . S
N977 C981 1.345 . S
C978 C979 1.387 . S
C978 C982 1.391 . S
C979 C978 1.387 . S
C979 C980 1.369 . S
C979 H988 0.929 . S
C980 N977 1.346 . S
C980 C979 1.369 . S
C980 H983 0.928 . S
C981 N977 1.345 . S
C981 C982 1.371 . S
C981 H984 0.931 . S
C982 C978 1.391 . S
C982 C981 1.371 . S
C982 H989 0.930 . S
H983 C980 0.928 . S
H984 C981 0.931 . S
H985 C961 0.930 . S
H986 C958 0.930 . S
H987 C967 0.930 . S
H988 C979 0.929 . S
H989 C982 0.930 . S
C990 C991 1.351 . S
C990 N993 1.368 . S
C990 H995 0.931 . S
C991 C990 1.351 . S
C991 N992 1.373 . S
C991 H1019 0.930 . S
N992 C991 1.373 . S
N992 C994 1.340 . S
N993 C990 1.368 . S
N993 C994 1.321 . S
N993 Co996 2.135 1_554 S
C994 N992 1.340 . S
C994 N993 1.321 . S
C994 H1018 0.930 . S
H995 C990 0.931 . S
Co996 N993 2.135 1_556 S
Co996 N999 2.121 . S
Co996 O1004 2.055 1_556 S
Co996 O1007 2.039 . S
Co996 N1010 2.140 . S
C997 O998 1.227 . S
C997 O1007 1.265 . S
O998 C997 1.227 . S
N999 Co996 2.121 . S
N999 C1001 1.375 . S
N999 C1002 1.313 . S
C1000 C1001 1.338 . S
C1000 N1003 1.377 . S
C1000 H1020 0.930 . S
C1001 N999 1.375 . S
C1001 C1000 1.338 . S
C1001 H1005 0.931 . S
C1002 N999 1.313 . S
C1002 N1003 1.344 . S
C1002 H1006 0.930 . S
N1003 C1000 1.377 . S
N1003 C1002 1.344 . S
O1004 Co996 2.055 1_554 S
O1004 C1008 1.253 . S
H1005 C1001 0.931 . S
H1006 C1002 0.930 . S
O1007 Co996 2.039 . S
O1007 C997 1.265 . S
C1008 O1004 1.253 . S
C1008 O1009 1.227 1_554 S
O1009 C1008 1.227 1_556 S
N1010 Co996 2.140 . S
N1010 C1013 1.346 . S
N1010 C1014 1.345 . S
C1011 C1012 1.387 . S
C1011 C1015 1.391 . S
C1012 C1011 1.387 . S
C1012 C1013 1.369 . S
C1012 H1021 0.929 . S
C1013 N1010 1.346 . S
C1013 C1012 1.369 . S
C1013 H1016 0.928 . S
C1014 N1010 1.345 . S
C1014 C1015 1.371 . S
C1014 H1017 0.931 . S
C1015 C1011 1.391 . S
C1015 C1014 1.371 . S
C1015 H1022 0.930 . S
H1016 C1013 0.928 . S
H1017 C1014 0.931 . S
H1018 C994 0.930 . S
H1019 C991 0.930 . S
H1020 C1000 0.930 . S
H1021 C1012 0.929 . S
H1022 C1015 0.930 . S
C1023 C1024 1.351 . S
C1023 N1026 1.368 . S
C1023 H1028 0.931 . S
C1024 C1023 1.351 . S
C1024 N1025 1.373 . S
C1024 H1052 0.930 . S
N1025 C1024 1.373 . S
N1025 C1027 1.340 . S
N1026 C1023 1.368 . S
N1026 C1027 1.321 . S
N1026 Co1029 2.135 1_554 S
C1027 N1025 1.340 . S
C1027 N1026 1.321 . S
C1027 H1051 0.930 . S
H1028 C1023 0.931 . S
Co1029 N1026 2.135 1_556 S
Co1029 N1032 2.121 . S
Co1029 O1037 2.055 1_556 S
Co1029 O1040 2.039 . S
Co1029 N1043 2.140 . S
C1030 O1031 1.227 . S
C1030 O1040 1.265 . S
O1031 C1030 1.227 . S
N1032 Co1029 2.121 . S
N1032 C1034 1.375 . S
N1032 C1035 1.313 . S
C1033 C1034 1.338 . S
C1033 N1036 1.377 . S
C1033 H1053 0.930 . S
C1034 N1032 1.375 . S
C1034 C1033 1.338 . S
C1034 H1038 0.931 . S
C1035 N1032 1.313 . S
C1035 N1036 1.344 . S
C1035 H1039 0.930 . S
N1036 C1033 1.377 . S
N1036 C1035 1.344 . S
O1037 Co1029 2.055 1_554 S
O1037 C1041 1.253 . S
H1038 C1034 0.931 . S
H1039 C1035 0.930 . S
O1040 Co1029 2.039 . S
O1040 C1030 1.265 . S
C1041 O1037 1.253 . S
C1041 O1042 1.227 1_554 S
O1042 C1041 1.227 1_556 S
N1043 Co1029 2.140 . S
N1043 C1046 1.346 . S
N1043 C1047 1.345 . S
C1044 C1045 1.387 . S
C1044 C1048 1.391 . S
C1045 C1044 1.387 . S
C1045 C1046 1.369 . S
C1045 H1054 0.929 . S
C1046 N1043 1.346 . S
C1046 C1045 1.369 . S
C1046 H1049 0.928 . S
C1047 N1043 1.345 . S
C1047 C1048 1.371 . S
C1047 H1050 0.931 . S
C1048 C1044 1.391 . S
C1048 C1047 1.371 . S
C1048 H1055 0.930 . S
H1049 C1046 0.928 . S
H1050 C1047 0.931 . S
H1051 C1027 0.930 . S
H1052 C1024 0.930 . S
H1053 C1033 0.930 . S
H1054 C1045 0.929 . S
H1055 C1048 0.930 . S
C1056 C1057 1.387 . S
C1056 H1060 0.950 . S
C1056 C1065 1.390 . S
C1057 C1056 1.387 . S
C1057 C1059 1.387 . S
H1058 C1065 0.950 . S
C1059 C1057 1.387 . S
C1059 C1061 1.390 . S
C1059 H1063 0.950 . S
H1060 C1056 0.950 . S
C1061 C1059 1.390 . S
C1061 C1062 1.387 . S
C1061 H1064 0.950 . S
C1062 C1061 1.387 . S
C1062 C1065 1.387 . S
H1063 C1059 0.950 . S
H1064 C1061 0.950 . S
C1065 C1056 1.390 . S
C1065 H1058 0.950 . S
C1065 C1062 1.387 . S
C1066 C1067 1.387 . S
C1066 H1070 0.950 . S
C1066 C1075 1.390 . S
C1067 C1066 1.387 . S
C1067 C1069 1.387 . S
H1068 C1075 0.950 . S
C1069 C1067 1.387 . S
C1069 C1071 1.390 . S
C1069 H1073 0.950 . S
H1070 C1066 0.950 . S
C1071 C1069 1.390 . S
C1071 C1072 1.387 . S
C1071 H1074 0.950 . S
C1072 C1071 1.387 . S
C1072 C1075 1.387 . S
H1073 C1069 0.950 . S
H1074 C1071 0.950 . S
C1075 C1066 1.390 . S
C1075 H1068 0.950 . S
C1075 C1072 1.387 . S
C1076 C1077 1.387 . S
C1076 H1080 0.950 . S
C1076 C1085 1.390 . S
C1077 C1076 1.387 . S
C1077 C1079 1.387 . S
H1078 C1085 0.950 . S
C1079 C1077 1.387 . S
C1079 C1081 1.390 . S
C1079 H1083 0.950 . S
H1080 C1076 0.950 . S
C1081 C1079 1.390 . S
C1081 C1082 1.387 . S
C1081 H1084 0.950 . S
C1082 C1081 1.387 . S
C1082 C1085 1.387 . S
H1083 C1079 0.950 . S
H1084 C1081 0.950 . S
C1085 C1076 1.390 . S
C1085 H1078 0.950 . S
C1085 C1082 1.387 . S
C1086 C1087 1.387 . S
C1086 H1090 0.950 . S
C1086 C1095 1.390 . S
C1087 C1086 1.387 . S
C1087 C1089 1.387 . S
H1088 C1095 0.950 . S
C1089 C1087 1.387 . S
C1089 C1091 1.390 . S
C1089 H1093 0.950 . S
H1090 C1086 0.950 . S
C1091 C1089 1.390 . S
C1091 C1092 1.387 . S
C1091 H1094 0.950 . S
C1092 C1091 1.387 . S
C1092 C1095 1.387 . S
H1093 C1089 0.950 . S
H1094 C1091 0.950 . S
C1095 C1086 1.390 . S
C1095 H1088 0.950 . S
C1095 C1092 1.387 . S
C1096 C1097 1.387 . S
C1096 H1100 0.950 . S
C1096 C1105 1.390 . S
C1097 C1096 1.387 . S
C1097 C1099 1.387 . S
H1098 C1105 0.950 . S
C1099 C1097 1.387 . S
C1099 C1101 1.390 . S
C1099 H1103 0.950 . S
H1100 C1096 0.950 . S
C1101 C1099 1.390 . S
C1101 C1102 1.387 . S
C1101 H1104 0.950 . S
C1102 C1101 1.387 . S
C1102 C1105 1.387 . S
H1103 C1099 0.950 . S
H1104 C1101 0.950 . S
C1105 C1096 1.390 . S
C1105 H1098 0.950 . S
C1105 C1102 1.387 . S
C1106 C1107 1.387 . S
C1106 H1110 0.950 . S
C1106 C1115 1.390 . S
C1107 C1106 1.387 . S
C1107 C1109 1.387 . S
H1108 C1115 0.950 . S
C1109 C1107 1.387 . S
C1109 C1111 1.390 . S
C1109 H1113 0.950 . S
H1110 C1106 0.950 . S
C1111 C1109 1.390 . S
C1111 C1112 1.387 . S
C1111 H1114 0.950 . S
C1112 C1111 1.387 . S
C1112 C1115 1.387 . S
H1113 C1109 0.950 . S
H1114 C1111 0.950 . S
C1115 C1106 1.390 . S
C1115 H1108 0.950 . S
C1115 C1112 1.387 . S
C1116 C1117 1.387 . S
C1116 H1120 0.950 . S
C1116 C1125 1.390 . S
C1117 C1116 1.387 . S
C1117 C1119 1.387 . S
H1118 C1125 0.950 . S
C1119 C1117 1.387 . S
C1119 C1121 1.390 . S
C1119 H1123 0.950 . S
H1120 C1116 0.950 . S
C1121 C1119 1.390 . S
C1121 C1122 1.387 . S
C1121 H1124 0.950 . S
C1122 C1121 1.387 . S
C1122 C1125 1.387 . S
H1123 C1119 0.950 . S
H1124 C1121 0.950 . S
C1125 C1116 1.390 . S
C1125 H1118 0.950 . S
C1125 C1122 1.387 . S
C1126 C1127 1.387 . S
C1126 H1130 0.950 . S
C1126 C1135 1.390 . S
C1127 C1126 1.387 . S
C1127 C1129 1.387 . S
H1128 C1135 0.950 . S
C1129 C1127 1.387 . S
C1129 C1131 1.390 . S
C1129 H1133 0.950 . S
H1130 C1126 0.950 . S
C1131 C1129 1.390 . S
C1131 C1132 1.387 . S
C1131 H1134 0.950 . S
C1132 C1131 1.387 . S
C1132 C1135 1.387 . S
H1133 C1129 0.950 . S
H1134 C1131 0.950 . S
C1135 C1126 1.390 . S
C1135 H1128 0.950 . S
C1135 C1132 1.387 . S
C1136 C1137 1.387 . S
C1136 H1140 0.950 . S
C1136 C1145 1.390 . S
C1137 C1136 1.387 . S
C1137 C1139 1.387 . S
H1138 C1145 0.950 . S
C1139 C1137 1.387 . S
C1139 C1141 1.390 . S
C1139 H1143 0.950 . S
H1140 C1136 0.950 . S
C1141 C1139 1.390 . S
C1141 C1142 1.387 . S
C1141 H1144 0.950 . S
C1142 C1141 1.387 . S
C1142 C1145 1.387 . S
H1143 C1139 0.950 . S
H1144 C1141 0.950 . S
C1145 C1136 1.390 . S
C1145 H1138 0.950 . S
C1145 C1142 1.387 . S
C1146 C1147 1.387 . S
C1146 H1150 0.950 . S
C1146 C1155 1.390 . S
C1147 C1146 1.387 . S
C1147 C1149 1.387 . S
H1148 C1155 0.950 . S
C1149 C1147 1.387 . S
C1149 C1151 1.390 . S
C1149 H1153 0.950 . S
H1150 C1146 0.950 . S
C1151 C1149 1.390 . S
C1151 C1152 1.387 . S
C1151 H1154 0.950 . S
C1152 C1151 1.387 . S
C1152 C1155 1.387 . S
H1153 C1149 0.950 . S
H1154 C1151 0.950 . S
C1155 C1146 1.390 . S
C1155 H1148 0.950 . S
C1155 C1152 1.387 . S
C1156 C1157 1.387 . S
C1156 H1160 0.950 . S
C1156 C1165 1.390 . S
C1157 C1156 1.387 . S
C1157 C1159 1.387 . S
H1158 C1165 0.950 . S
C1159 C1157 1.387 . S
C1159 C1161 1.390 . S
C1159 H1163 0.950 . S
H1160 C1156 0.950 . S
C1161 C1159 1.390 . S
C1161 C1162 1.387 . S
C1161 H1164 0.950 . S
C1162 C1161 1.387 . S
C1162 C1165 1.387 . S
H1163 C1159 0.950 . S
H1164 C1161 0.950 . S
C1165 C1156 1.390 . S
C1165 H1158 0.950 . S
C1165 C1162 1.387 . S
C1166 C1167 1.387 . S
C1166 H1170 0.950 . S
C1166 C1175 1.390 . S
C1167 C1166 1.387 . S
C1167 C1169 1.387 . S
H1168 C1175 0.950 . S
C1169 C1167 1.387 . S
C1169 C1171 1.390 . S
C1169 H1173 0.950 . S
H1170 C1166 0.950 . S
C1171 C1169 1.390 . S
C1171 C1172 1.387 . S
C1171 H1174 0.950 . S
C1172 C1171 1.387 . S
C1172 C1175 1.387 . S
H1173 C1169 0.950 . S
H1174 C1171 0.950 . S
C1175 C1166 1.390 . S
C1175 H1168 0.950 . S
C1175 C1172 1.387 . S
C1176 C1177 1.387 . S
C1176 H1180 0.950 . S
C1176 C1185 1.390 . S
C1177 C1176 1.387 . S
C1177 C1179 1.387 . S
H1178 C1185 0.950 . S
C1179 C1177 1.387 . S
C1179 C1181 1.390 . S
C1179 H1183 0.950 . S
H1180 C1176 0.950 . S
C1181 C1179 1.390 . S
C1181 C1182 1.387 . S
C1181 H1184 0.950 . S
C1182 C1181 1.387 . S
C1182 C1185 1.387 . S
H1183 C1179 0.950 . S
H1184 C1181 0.950 . S
C1185 C1176 1.390 . S
C1185 H1178 0.950 . S
C1185 C1182 1.387 . S
C1186 C1187 1.387 . S
C1186 H1190 0.950 . S
C1186 C1195 1.390 . S
C1187 C1186 1.387 . S
C1187 C1189 1.387 . S
H1188 C1195 0.950 . S
C1189 C1187 1.387 . S
C1189 C1191 1.390 . S
C1189 H1193 0.950 . S
H1190 C1186 0.950 . S
C1191 C1189 1.390 . S
C1191 C1192 1.387 . S
C1191 H1194 0.950 . S
C1192 C1191 1.387 . S
C1192 C1195 1.387 . S
H1193 C1189 0.950 . S
H1194 C1191 0.950 . S
C1195 C1186 1.390 . S
C1195 H1188 0.950 . S
C1195 C1192 1.387 . S
C1196 C1197 1.387 . S
C1196 H1200 0.950 . S
C1196 C1205 1.390 . S
C1197 C1196 1.387 . S
C1197 C1199 1.387 . S
H1198 C1205 0.950 . S
C1199 C1197 1.387 . S
C1199 C1201 1.390 . S
C1199 H1203 0.950 . S
H1200 C1196 0.950 . S
C1201 C1199 1.390 . S
C1201 C1202 1.387 . S
C1201 H1204 0.950 . S
C1202 C1201 1.387 . S
C1202 C1205 1.387 . S
H1203 C1199 0.950 . S
H1204 C1201 0.950 . S
C1205 C1196 1.390 . S
C1205 H1198 0.950 . S
C1205 C1202 1.387 . S
C1206 C1207 1.387 . S
C1206 H1210 0.950 . S
C1206 C1215 1.390 . S
C1207 C1206 1.387 . S
C1207 C1209 1.387 . S
H1208 C1215 0.950 . S
C1209 C1207 1.387 . S
C1209 C1211 1.390 . S
C1209 H1213 0.950 . S
H1210 C1206 0.950 . S
C1211 C1209 1.390 . S
C1211 C1212 1.387 . S
C1211 H1214 0.950 . S
C1212 C1211 1.387 . S
C1212 C1215 1.387 . S
H1213 C1209 0.950 . S
H1214 C1211 0.950 . S
C1215 C1206 1.390 . S
C1215 H1208 0.950 . S
C1215 C1212 1.387 . S
C1216 C1217 1.387 . S
C1216 H1220 0.950 . S
C1216 C1225 1.390 . S
C1217 C1216 1.387 . S
C1217 C1219 1.387 . S
H1218 C1225 0.950 . S
C1219 C1217 1.387 . S
C1219 C1221 1.390 . S
C1219 H1223 0.950 . S
H1220 C1216 0.950 . S
C1221 C1219 1.390 . S
C1221 C1222 1.387 . S
C1221 H1224 0.950 . S
C1222 C1221 1.387 . S
C1222 C1225 1.387 . S
H1223 C1219 0.950 . S
H1224 C1221 0.950 . S
C1225 C1216 1.390 . S
C1225 H1218 0.950 . S
C1225 C1222 1.387 . S
C1226 C1227 1.387 . S
C1226 H1230 0.950 . S
C1226 C1235 1.390 . S
C1227 C1226 1.387 . S
C1227 C1229 1.387 . S
H1228 C1235 0.950 . S
C1229 C1227 1.387 . S
C1229 C1231 1.390 . S
C1229 H1233 0.950 . S
H1230 C1226 0.950 . S
C1231 C1229 1.390 . S
C1231 C1232 1.387 . S
C1231 H1234 0.950 . S
C1232 C1231 1.387 . S
C1232 C1235 1.387 . S
H1233 C1229 0.950 . S
H1234 C1231 0.950 . S
C1235 C1226 1.390 . S
C1235 H1228 0.950 . S
C1235 C1232 1.387 . S
C1236 C1237 1.387 . S
C1236 H1240 0.950 . S
C1236 C1245 1.390 . S
C1237 C1236 1.387 . S
C1237 C1239 1.387 1_554 S
H1238 C1245 0.950 . S
C1239 C1237 1.387 1_556 S
C1239 C1241 1.390 . S
C1239 H1243 0.950 . S
H1240 C1236 0.950 . S
C1241 C1239 1.390 . S
C1241 C1242 1.387 1_556 S
C1241 H1244 0.950 . S
C1242 C1241 1.387 1_554 S
C1242 C1245 1.387 . S
H1243 C1239 0.950 . S
H1244 C1241 0.950 . S
C1245 C1236 1.390 . S
C1245 H1238 0.950 . S
C1245 C1242 1.387 . S
C1246 C1247 1.387 1_556 S
C1246 H1250 0.950 . S
C1246 C1255 1.390 . S
C1247 C1246 1.387 1_554 S
C1247 C1249 1.387 . S
H1248 C1255 0.950 . S
C1249 C1247 1.387 . S
C1249 C1251 1.390 . S
C1249 H1253 0.950 . S
H1250 C1246 0.950 . S
C1251 C1249 1.390 . S
C1251 C1252 1.387 . S
C1251 H1254 0.950 . S
C1252 C1251 1.387 . S
C1252 C1255 1.387 1_554 S
H1253 C1249 0.950 . S
H1254 C1251 0.950 . S
C1255 C1246 1.390 . S
C1255 H1248 0.950 . S
C1255 C1252 1.387 1_556 S
C1256 C1257 1.387 . S
C1256 H1260 0.950 . S
C1256 C1265 1.390 . S
C1257 C1256 1.387 . S
C1257 C1259 1.387 . S
H1258 C1265 0.950 . S
C1259 C1257 1.387 . S
C1259 C1261 1.390 . S
C1259 H1263 0.950 . S
H1260 C1256 0.950 . S
C1261 C1259 1.390 . S
C1261 C1262 1.387 . S
C1261 H1264 0.950 . S
C1262 C1261 1.387 . S
C1262 C1265 1.387 . S
H1263 C1259 0.950 . S
H1264 C1261 0.950 . S
C1265 C1256 1.390 . S
C1265 H1258 0.950 . S
C1265 C1262 1.387 . S
C1266 C1267 1.387 . S
C1266 H1270 0.950 . S
C1266 C1275 1.390 . S
C1267 C1266 1.387 . S
C1267 C1269 1.387 . S
H1268 C1275 0.950 . S
C1269 C1267 1.387 . S
C1269 C1271 1.390 . S
C1269 H1273 0.950 . S
H1270 C1266 0.950 . S
C1271 C1269 1.390 . S
C1271 C1272 1.387 . S
C1271 H1274 0.950 . S
C1272 C1271 1.387 . S
C1272 C1275 1.387 . S
H1273 C1269 0.950 . S
H1274 C1271 0.950 . S
C1275 C1266 1.390 . S
C1275 H1268 0.950 . S
C1275 C1272 1.387 . S
C1276 C1277 1.387 . S
C1276 H1280 0.950 . S
C1276 C1285 1.390 . S
C1277 C1276 1.387 . S
C1277 C1279 1.387 1_556 S
H1278 C1285 0.950 . S
C1279 C1277 1.387 1_554 S
C1279 C1281 1.390 . S
C1279 H1283 0.950 . S
H1280 C1276 0.950 . S
C1281 C1279 1.390 . S
C1281 C1282 1.387 1_554 S
C1281 H1284 0.950 . S
C1282 C1281 1.387 1_556 S
C1282 C1285 1.387 . S
H1283 C1279 0.950 . S
H1284 C1281 0.950 . S
C1285 C1276 1.390 . S
C1285 H1278 0.950 . S
C1285 C1282 1.387 . S
C1286 C1287 1.387 1_554 S
C1286 H1290 0.950 . S
C1286 C1295 1.390 . S
C1287 C1286 1.387 1_556 S
C1287 C1289 1.387 . S
H1288 C1295 0.950 . S
C1289 C1287 1.387 . S
C1289 C1291 1.390 . S
C1289 H1293 0.950 . S
H1290 C1286 0.950 . S
C1291 C1289 1.390 . S
C1291 C1292 1.387 . S
C1291 H1294 0.950 . S
C1292 C1291 1.387 . S
C1292 C1295 1.387 1_556 S
H1293 C1289 0.950 . S
H1294 C1291 0.950 . S
C1295 C1286 1.390 . S
C1295 H1288 0.950 . S
C1295 C1292 1.387 1_554 S
C1296 C1297 1.387 . S
C1296 H1300 0.950 . S
C1296 C1305 1.390 . S
C1297 C1296 1.387 . S
C1297 C1299 1.387 . S
H1298 C1305 0.950 . S
C1299 C1297 1.387 . S
C1299 C1301 1.390 . S
C1299 H1303 0.950 . S
H1300 C1296 0.950 . S
C1301 C1299 1.390 . S
C1301 C1302 1.387 . S
C1301 H1304 0.950 . S
C1302 C1301 1.387 . S
C1302 C1305 1.387 . S
H1303 C1299 0.950 . S
H1304 C1301 0.950 . S
C1305 C1296 1.390 . S
C1305 H1298 0.950 . S
C1305 C1302 1.387 . S
C1306 C1307 1.387 . S
C1306 H1310 0.950 . S
C1306 C1315 1.390 . S
C1307 C1306 1.387 . S
C1307 C1309 1.387 . S
H1308 C1315 0.950 . S
C1309 C1307 1.387 . S
C1309 C1311 1.390 . S
C1309 H1313 0.950 . S
H1310 C1306 0.950 . S
C1311 C1309 1.390 . S
C1311 C1312 1.387 . S
C1311 H1314 0.950 . S
C1312 C1311 1.387 . S
C1312 C1315 1.387 . S
H1313 C1309 0.950 . S
H1314 C1311 0.950 . S
C1315 C1306 1.390 . S
C1315 H1308 0.950 . S
C1315 C1312 1.387 . S
C1316 C1317 1.387 . S
C1316 H1320 0.950 . S
C1316 C1325 1.390 . S
C1317 C1316 1.387 . S
C1317 C1319 1.387 . S
H1318 C1325 0.950 . S
C1319 C1317 1.387 . S
C1319 C1321 1.390 . S
C1319 H1323 0.950 . S
H1320 C1316 0.950 . S
C1321 C1319 1.390 . S
C1321 C1322 1.387 . S
C1321 H1324 0.950 . S
C1322 C1321 1.387 . S
C1322 C1325 1.387 . S
H1323 C1319 0.950 . S
H1324 C1321 0.950 . S
C1325 C1316 1.390 . S
C1325 H1318 0.950 . S
C1325 C1322 1.387 . S
C1326 C1327 1.387 . S
C1326 H1330 0.950 . S
C1326 C1335 1.390 . S
C1327 C1326 1.387 . S
C1327 C1329 1.387 . S
H1328 C1335 0.950 . S
C1329 C1327 1.387 . S
C1329 C1331 1.390 . S
C1329 H1333 0.950 . S
H1330 C1326 0.950 . S
C1331 C1329 1.390 . S
C1331 C1332 1.387 . S
C1331 H1334 0.950 . S
C1332 C1331 1.387 . S
C1332 C1335 1.387 . S
H1333 C1329 0.950 . S
H1334 C1331 0.950 . S
C1335 C1326 1.390 . S
C1335 H1328 0.950 . S
C1335 C1332 1.387 . S
C1336 C1337 1.387 . S
C1336 H1340 0.950 . S
C1336 C1345 1.390 . S
C1337 C1336 1.387 . S
C1337 C1339 1.387 . S
H1338 C1345 0.950 . S
C1339 C1337 1.387 . S
C1339 C1341 1.390 . S
C1339 H1343 0.950 . S
H1340 C1336 0.950 . S
C1341 C1339 1.390 . S
C1341 C1342 1.387 . S
C1341 H1344 0.950 . S
C1342 C1341 1.387 . S
C1342 C1345 1.387 . S
H1343 C1339 0.950 . S
H1344 C1341 0.950 . S
C1345 C1336 1.390 . S
C1345 H1338 0.950 . S
C1345 C1342 1.387 . S
C1346 C1347 1.387 . S
C1346 H1350 0.950 . S
C1346 C1355 1.390 . S
C1347 C1346 1.387 . S
C1347 C1349 1.387 . S
H1348 C1355 0.950 . S
C1349 C1347 1.387 . S
C1349 C1351 1.390 . S
C1349 H1353 0.950 . S
H1350 C1346 0.950 . S
C1351 C1349 1.390 . S
C1351 C1352 1.387 . S
C1351 H1354 0.950 . S
C1352 C1351 1.387 . S
C1352 C1355 1.387 . S
H1353 C1349 0.950 . S
H1354 C1351 0.950 . S
C1355 C1346 1.390 . S
C1355 H1348 0.950 . S
C1355 C1352 1.387 . S
C1356 C1357 1.387 . S
C1356 H1360 0.950 . S
C1356 C1365 1.390 . S
C1357 C1356 1.387 . S
C1357 C1359 1.387 . S
H1358 C1365 0.950 . S
C1359 C1357 1.387 . S
C1359 C1361 1.390 . S
C1359 H1363 0.950 . S
H1360 C1356 0.950 . S
C1361 C1359 1.390 . S
C1361 C1362 1.387 . S
C1361 H1364 0.950 . S
C1362 C1361 1.387 . S
C1362 C1365 1.387 . S
H1363 C1359 0.950 . S
H1364 C1361 0.950 . S
C1365 C1356 1.390 . S
C1365 H1358 0.950 . S
C1365 C1362 1.387 . S
C1366 C1367 1.387 . S
C1366 H1370 0.950 . S
C1366 C1375 1.390 . S
C1367 C1366 1.387 . S
C1367 C1369 1.387 . S
H1368 C1375 0.950 . S
C1369 C1367 1.387 . S
C1369 C1371 1.390 . S
C1369 H1373 0.950 . S
H1370 C1366 0.950 . S
C1371 C1369 1.390 . S
C1371 C1372 1.387 . S
C1371 H1374 0.950 . S
C1372 C1371 1.387 . S
C1372 C1375 1.387 . S
H1373 C1369 0.950 . S
H1374 C1371 0.950 . S
C1375 C1366 1.390 . S
C1375 H1368 0.950 . S
C1375 C1372 1.387 . S
C1376 C1377 1.387 . S
C1376 H1380 0.950 . S
C1376 C1385 1.390 . S
C1377 C1376 1.387 . S
C1377 C1379 1.387 . S
H1378 C1385 0.950 . S
C1379 C1377 1.387 . S
C1379 C1381 1.390 . S
C1379 H1383 0.950 . S
H1380 C1376 0.950 . S
C1381 C1379 1.390 . S
C1381 C1382 1.387 . S
C1381 H1384 0.950 . S
C1382 C1381 1.387 . S
C1382 C1385 1.387 . S
H1383 C1379 0.950 . S
H1384 C1381 0.950 . S
C1385 C1376 1.390 . S
C1385 H1378 0.950 . S
C1385 C1382 1.387 . S
C1386 C1387 1.387 . S
C1386 H1390 0.950 . S
C1386 C1395 1.390 . S
C1387 C1386 1.387 . S
C1387 C1389 1.387 . S
H1388 C1395 0.950 . S
C1389 C1387 1.387 . S
C1389 C1391 1.390 . S
C1389 H1393 0.950 . S
H1390 C1386 0.950 . S
C1391 C1389 1.390 . S
C1391 C1392 1.387 . S
C1391 H1394 0.950 . S
C1392 C1391 1.387 . S
C1392 C1395 1.387 . S
H1393 C1389 0.950 . S
H1394 C1391 0.950 . S
C1395 C1386 1.390 . S
C1395 H1388 0.950 . S
C1395 C1392 1.387 . S
C1396 C1397 1.387 . S
C1396 H1400 0.950 . S
C1396 C1405 1.390 . S
C1397 C1396 1.387 . S
C1397 C1399 1.387 . S
H1398 C1405 0.950 . S
C1399 C1397 1.387 . S
C1399 C1401 1.390 . S
C1399 H1403 0.950 . S
H1400 C1396 0.950 . S
C1401 C1399 1.390 . S
C1401 C1402 1.387 . S
C1401 H1404 0.950 . S
C1402 C1401 1.387 . S
C1402 C1405 1.387 . S
H1403 C1399 0.950 . S
H1404 C1401 0.950 . S
C1405 C1396 1.390 . S
C1405 H1398 0.950 . S
C1405 C1402 1.387 . S
C1406 C1407 1.387 . S
C1406 H1410 0.950 . S
C1406 C1415 1.390 . S
C1407 C1406 1.387 . S
C1407 C1409 1.387 . S
H1408 C1415 0.950 . S
C1409 C1407 1.387 . S
C1409 C1411 1.390 . S
C1409 H1413 0.950 . S
H1410 C1406 0.950 . S
C1411 C1409 1.390 . S
C1411 C1412 1.387 . S
C1411 H1414 0.950 . S
C1412 C1411 1.387 . S
C1412 C1415 1.387 . S
H1413 C1409 0.950 . S
H1414 C1411 0.950 . S
C1415 C1406 1.390 . S
C1415 H1408 0.950 . S
C1415 C1412 1.387 . S
C1416 C1417 1.387 . S
C1416 H1420 0.950 . S
C1416 C1425 1.390 . S
C1417 C1416 1.387 . S
C1417 C1419 1.387 . S
H1418 C1425 0.950 . S
C1419 C1417 1.387 . S
C1419 C1421 1.390 . S
C1419 H1423 0.950 . S
H1420 C1416 0.950 . S
C1421 C1419 1.390 . S
C1421 C1422 1.387 . S
C1421 H1424 0.950 . S
C1422 C1421 1.387 . S
C1422 C1425 1.387 . S
H1423 C1419 0.950 . S
H1424 C1421 0.950 . S
C1425 C1416 1.390 . S
C1425 H1418 0.950 . S
C1425 C1422 1.387 . S
C1426 C1427 1.387 . S
C1426 H1430 0.950 . S
C1426 C1435 1.390 . S
C1427 C1426 1.387 . S
C1427 C1429 1.387 . S
H1428 C1435 0.950 . S
C1429 C1427 1.387 . S
C1429 C1431 1.390 . S
C1429 H1433 0.950 . S
H1430 C1426 0.950 . S
C1431 C1429 1.390 . S
C1431 C1432 1.387 . S
C1431 H1434 0.950 . S
C1432 C1431 1.387 . S
C1432 C1435 1.387 . S
H1433 C1429 0.950 . S
H1434 C1431 0.950 . S
C1435 C1426 1.390 . S
C1435 H1428 0.950 . S
C1435 C1432 1.387 . S
C1436 C1437 1.387 . S
C1436 H1440 0.950 . S
C1436 C1445 1.390 . S
C1437 C1436 1.387 . S
C1437 C1439 1.387 . S
H1438 C1445 0.950 . S
C1439 C1437 1.387 . S
C1439 C1441 1.390 . S
C1439 H1443 0.950 . S
H1440 C1436 0.950 . S
C1441 C1439 1.390 . S
C1441 C1442 1.387 . S
C1441 H1444 0.950 . S
C1442 C1441 1.387 . S
C1442 C1445 1.387 . S
H1443 C1439 0.950 . S
H1444 C1441 0.950 . S
C1445 C1436 1.390 . S
C1445 H1438 0.950 . S
C1445 C1442 1.387 . S
C1446 C1447 1.387 . S
C1446 H1450 0.950 . S
C1446 C1455 1.390 . S
C1447 C1446 1.387 . S
C1447 C1449 1.387 . S
H1448 C1455 0.950 . S
C1449 C1447 1.387 . S
C1449 C1451 1.390 . S
C1449 H1453 0.950 . S
H1450 C1446 0.950 . S
C1451 C1449 1.390 . S
C1451 C1452 1.387 . S
C1451 H1454 0.950 . S
C1452 C1451 1.387 . S
C1452 C1455 1.387 . S
H1453 C1449 0.950 . S
H1454 C1451 0.950 . S
C1455 C1446 1.390 . S
C1455 H1448 0.950 . S
C1455 C1452 1.387 . S
C1456 C1457 1.387 . S
C1456 H1460 0.950 . S
C1456 C1465 1.390 . S
C1457 C1456 1.387 . S
C1457 C1459 1.387 . S
H1458 C1465 0.950 . S
C1459 C1457 1.387 . S
C1459 C1461 1.390 . S
C1459 H1463 0.950 . S
H1460 C1456 0.950 . S
C1461 C1459 1.390 . S
C1461 C1462 1.387 . S
C1461 H1464 0.950 . S
C1462 C1461 1.387 . S
C1462 C1465 1.387 . S
H1463 C1459 0.950 . S
H1464 C1461 0.950 . S
C1465 C1456 1.390 . S
C1465 H1458 0.950 . S
C1465 C1462 1.387 . S
C1466 C1467 1.387 . S
C1466 H1470 0.950 . S
C1466 C1475 1.390 . S
C1467 C1466 1.387 . S
C1467 C1469 1.387 . S
H1468 C1475 0.950 . S
C1469 C1467 1.387 . S
C1469 C1471 1.390 . S
C1469 H1473 0.950 . S
H1470 C1466 0.950 . S
C1471 C1469 1.390 . S
C1471 C1472 1.387 . S
C1471 H1474 0.950 . S
C1472 C1471 1.387 . S
C1472 C1475 1.387 . S
H1473 C1469 0.950 . S
H1474 C1471 0.950 . S
C1475 C1466 1.390 . S
C1475 H1468 0.950 . S
C1475 C1472 1.387 . S
C1476 C1477 1.387 . S
C1476 H1480 0.950 . S
C1476 C1485 1.390 . S
C1477 C1476 1.387 . S
C1477 C1479 1.387 . S
H1478 C1485 0.950 . S
C1479 C1477 1.387 . S
C1479 C1481 1.390 . S
C1479 H1483 0.950 . S
H1480 C1476 0.950 . S
C1481 C1479 1.390 . S
C1481 C1482 1.387 . S
C1481 H1484 0.950 . S
C1482 C1481 1.387 . S
C1482 C1485 1.387 . S
H1483 C1479 0.950 . S
H1484 C1481 0.950 . S
C1485 C1476 1.390 . S
C1485 H1478 0.950 . S
C1485 C1482 1.387 . S
C1486 C1487 1.387 . S
C1486 H1490 0.950 . S
C1486 C1495 1.390 . S
C1487 C1486 1.387 . S
C1487 C1489 1.387 . S
H1488 C1495 0.950 . S
C1489 C1487 1.387 . S
C1489 C1491 1.390 . S
C1489 H1493 0.950 . S
H1490 C1486 0.950 . S
C1491 C1489 1.390 . S
C1491 C1492 1.387 . S
C1491 H1494 0.950 . S
C1492 C1491 1.387 . S
C1492 C1495 1.387 . S
H1493 C1489 0.950 . S
H1494 C1491 0.950 . S
C1495 C1486 1.390 . S
C1495 H1488 0.950 . S
C1495 C1492 1.387 . S
C1496 C1497 1.387 . S
C1496 H1500 0.950 . S
C1496 C1505 1.390 . S
C1497 C1496 1.387 . S
C1497 C1499 1.387 . S
H1498 C1505 0.950 . S
C1499 C1497 1.387 . S
C1499 C1501 1.390 . S
C1499 H1503 0.950 . S
H1500 C1496 0.950 . S
C1501 C1499 1.390 . S
C1501 C1502 1.387 . S
C1501 H1504 0.950 . S
C1502 C1501 1.387 . S
C1502 C1505 1.387 . S
H1503 C1499 0.950 . S
H1504 C1501 0.950 . S
C1505 C1496 1.390 . S
C1505 H1498 0.950 . S
C1505 C1502 1.387 . S
C1506 C1507 1.387 . S
C1506 H1510 0.950 . S
C1506 C1515 1.390 . S
C1507 C1506 1.387 . S
C1507 C1509 1.387 . S
H1508 C1515 0.950 . S
C1509 C1507 1.387 . S
C1509 C1511 1.390 . S
C1509 H1513 0.950 . S
H1510 C1506 0.950 . S
C1511 C1509 1.390 . S
C1511 C1512 1.387 . S
C1511 H1514 0.950 . S
C1512 C1511 1.387 . S
C1512 C1515 1.387 . S
H1513 C1509 0.950 . S
H1514 C1511 0.950 . S
C1515 C1506 1.390 . S
C1515 H1508 0.950 . S
C1515 C1512 1.387 . S
C1516 C1517 1.387 . S
C1516 H1520 0.950 . S
C1516 C1525 1.390 . S
C1517 C1516 1.387 . S
C1517 C1519 1.387 . S
H1518 C1525 0.950 . S
C1519 C1517 1.387 . S
C1519 C1521 1.390 . S
C1519 H1523 0.950 . S
H1520 C1516 0.950 . S
C1521 C1519 1.390 . S
C1521 C1522 1.387 . S
C1521 H1524 0.950 . S
C1522 C1521 1.387 . S
C1522 C1525 1.387 . S
H1523 C1519 0.950 . S
H1524 C1521 0.950 . S
C1525 C1516 1.390 . S
C1525 H1518 0.950 . S
C1525 C1522 1.387 . S
C1526 C1527 1.387 . S
C1526 H1530 0.950 . S
C1526 C1535 1.390 . S
C1527 C1526 1.387 . S
C1527 C1529 1.387 . S
H1528 C1535 0.950 . S
C1529 C1527 1.387 . S
C1529 C1531 1.390 . S
C1529 H1533 0.950 . S
H1530 C1526 0.950 . S
C1531 C1529 1.390 . S
C1531 C1532 1.387 . S
C1531 H1534 0.950 . S
C1532 C1531 1.387 . S
C1532 C1535 1.387 . S
H1533 C1529 0.950 . S
H1534 C1531 0.950 . S
C1535 C1526 1.390 . S
C1535 H1528 0.950 . S
C1535 C1532 1.387 . S
C1536 C1537 1.387 . S
C1536 H1540 0.950 . S
C1536 C1545 1.390 . S
C1537 C1536 1.387 . S
C1537 C1539 1.387 . S
H1538 C1545 0.950 . S
C1539 C1537 1.387 . S
C1539 C1541 1.390 . S
C1539 H1543 0.950 . S
H1540 C1536 0.950 . S
C1541 C1539 1.390 . S
C1541 C1542 1.387 . S
C1541 H1544 0.950 . S
C1542 C1541 1.387 . S
C1542 C1545 1.387 . S
H1543 C1539 0.950 . S
H1544 C1541 0.950 . S
C1545 C1536 1.390 . S
C1545 H1538 0.950 . S
C1545 C1542 1.387 . S
C1546 C1547 1.387 1_455 S
C1546 H1550 0.950 . S
C1546 C1555 1.377 1_455 S
C1547 C1546 1.387 1_655 S
C1547 C1549 1.387 . S
H1548 C1555 0.934 1_455 S
C1549 C1547 1.387 . S
C1549 C1551 1.390 . S
C1549 H1553 0.950 . S
H1550 C1546 0.950 . S
C1551 C1549 1.390 . S
C1551 C1552 1.387 . S
C1551 H1554 0.950 . S
C1552 C1551 1.387 . S
C1552 C1555 1.418 . S
H1553 C1549 0.950 . S
H1554 C1551 0.950 . S
C1555 C1546 1.377 1_655 S
C1555 H1548 0.934 1_655 S
C1555 C1552 1.418 . S
C1556 C1557 1.387 . S
C1556 H1560 0.950 . S
C1556 C1565 1.390 . S
C1557 C1556 1.387 . S
C1557 C1559 1.387 . S
H1558 C1565 0.950 . S
C1559 C1557 1.387 . S
C1559 C1561 1.390 . S
C1559 H1563 0.950 . S
H1560 C1556 0.950 . S
C1561 C1559 1.390 . S
C1561 C1562 1.387 . S
C1561 H1564 0.950 . S
C1562 C1561 1.387 . S
C1562 C1565 1.387 . S
H1563 C1559 0.950 . S
H1564 C1561 0.950 . S
C1565 C1556 1.390 . S
C1565 H1558 0.950 . S
C1565 C1562 1.387 . S
C1566 C1567 1.387 . S
C1566 H1570 0.934 1_655 S
C1566 C1575 1.390 . S
C1567 C1566 1.387 . S
C1567 C1569 1.387 . S
H1568 C1575 0.950 . S
C1569 C1567 1.387 . S
C1569 C1571 1.390 . S
C1569 H1573 0.950 . S
H1570 C1566 0.934 1_455 S
C1571 C1569 1.390 . S
C1571 C1572 1.387 . S
C1571 H1574 0.950 . S
C1572 C1571 1.387 . S
C1572 C1575 1.387 . S
H1573 C1569 0.950 . S
H1574 C1571 0.950 . S
C1575 C1566 1.390 . S
C1575 H1568 0.950 . S
C1575 C1572 1.387 . S
C1576 C1577 1.387 . S
C1576 H1580 0.950 . S
C1576 C1585 1.390 . S
C1577 C1576 1.387 . S
C1577 C1579 1.387 . S
H1578 C1585 0.950 . S
C1579 C1577 1.387 . S
C1579 C1581 1.390 . S
C1579 H1583 0.950 . S
H1580 C1576 0.950 . S
C1581 C1579 1.390 . S
C1581 C1582 1.387 . S
C1581 H1584 0.950 . S
C1582 C1581 1.387 . S
C1582 C1585 1.387 . S
H1583 C1579 0.950 . S
H1584 C1581 0.950 . S
C1585 C1576 1.390 . S
C1585 H1578 0.950 . S
C1585 C1582 1.387 . S
C1586 C1587 1.387 . S
C1586 H1590 0.950 . S
C1586 C1595 1.390 1_455 S
C1587 C1586 1.387 . S
C1587 C1589 1.387 . S
H1588 C1595 0.950 . S
C1589 C1587 1.387 . S
C1589 C1591 1.390 . S
C1589 H1593 0.950 . S
H1590 C1586 0.950 . S
C1591 C1589 1.390 . S
C1591 C1592 1.387 . S
C1591 H1594 0.950 . S
C1592 C1591 1.387 . S
C1592 C1595 1.387 1_455 S
H1593 C1589 0.950 . S
H1594 C1591 0.950 . S
C1595 C1586 1.390 1_655 S
C1595 H1588 0.950 . S
C1595 C1592 1.387 1_655 S
C1596 C1597 1.387 . S
C1596 H1600 0.950 . S
C1596 C1605 1.390 . S
C1597 C1596 1.387 . S
C1597 C1599 1.387 . S
H1598 C1605 0.950 . S
C1599 C1597 1.387 . S
C1599 C1601 1.390 . S
C1599 H1603 0.950 . S
H1600 C1596 0.950 . S
C1601 C1599 1.390 . S
C1601 C1602 1.387 . S
C1601 H1604 0.950 . S
C1602 C1601 1.387 . S
C1602 C1605 1.387 . S
H1603 C1599 0.950 . S
H1604 C1601 0.950 . S
C1605 C1596 1.390 . S
C1605 H1598 0.950 . S
C1605 C1602 1.387 . S
C1606 C1607 1.387 . S
C1606 H1610 0.950 . S
C1606 C1615 1.390 . S
C1607 C1606 1.387 . S
C1607 C1609 1.387 1_455 S
H1608 C1615 0.950 . S
C1609 C1607 1.387 1_655 S
C1609 C1611 1.390 . S
C1609 H1613 0.950 . S
H1610 C1606 0.950 . S
C1611 C1609 1.390 . S
C1611 C1612 1.387 1_655 S
C1611 H1614 0.950 . S
C1612 C1611 1.387 1_455 S
C1612 C1615 1.387 . S
H1613 C1609 0.950 . S
H1614 C1611 0.950 . S
C1615 C1606 1.390 . S
C1615 H1608 0.950 . S
C1615 C1612 1.387 . S
C1616 C1617 1.387 . S
C1616 H1620 0.950 . S
C1616 C1625 1.390 . S
C1617 C1616 1.387 . S
C1617 C1619 1.387 . S
H1618 C1625 0.950 . S
C1619 C1617 1.387 . S
C1619 C1621 1.390 . S
C1619 H1623 0.950 . S
H1620 C1616 0.950 . S
C1621 C1619 1.390 . S
C1621 C1622 1.387 . S
C1621 H1624 0.950 . S
C1622 C1621 1.387 . S
C1622 C1625 1.387 . S
H1623 C1619 0.950 . S
H1624 C1621 0.950 . S
C1625 C1616 1.390 . S
C1625 H1618 0.950 . S
C1625 C1622 1.387 . S
C1626 C1627 1.387 . S
C1626 H1630 0.950 . S
C1626 C1635 1.390 . S
C1627 C1626 1.387 . S
C1627 C1629 1.387 1_655 S
H1628 C1635 0.950 . S
C1629 C1627 1.387 1_455 S
C1629 C1631 1.378 1_455 S
C1629 H1633 0.950 . S
H1630 C1626 0.950 . S
C1631 C1629 1.378 1_655 S
C1631 C1632 1.415 . S
C1631 H1634 0.935 1_655 S
C1632 C1631 1.415 . S
C1632 C1635 1.387 . S
H1633 C1629 0.950 . S
H1634 C1631 0.935 1_455 S
C1635 C1626 1.390 . S
C1635 H1628 0.950 . S
C1635 C1632 1.387 . S
C1636 C1637 1.387 . S
C1636 H1640 0.950 . S
C1636 C1645 1.390 . S
C1637 C1636 1.387 . S
C1637 C1639 1.387 . S
H1638 C1645 0.950 . S
C1639 C1637 1.387 . S
C1639 C1641 1.390 . S
C1639 H1643 0.950 . S
H1640 C1636 0.950 . S
C1641 C1639 1.390 . S
C1641 C1642 1.387 . S
C1641 H1644 0.950 . S
C1642 C1641 1.387 . S
C1642 C1645 1.387 . S
H1643 C1639 0.950 . S
H1644 C1641 0.950 . S
C1645 C1636 1.390 . S
C1645 H1638 0.950 . S
C1645 C1642 1.387 . S
C1646 C1647 1.387 . S
C1646 H1650 0.950 1_655 S
C1646 C1655 1.390 1_655 S
C1647 C1646 1.387 . S
C1647 C1649 1.387 . S
H1648 C1655 0.950 . S
C1649 C1647 1.387 . S
C1649 C1651 1.390 . S
C1649 H1653 0.950 . S
H1650 C1646 0.950 1_455 S
C1651 C1649 1.390 . S
C1651 C1652 1.387 . S
C1651 H1654 0.950 . S
C1652 C1651 1.387 . S
C1652 C1655 1.387 1_655 S
H1653 C1649 0.950 . S
H1654 C1651 0.950 . S
C1655 C1646 1.390 1_455 S
C1655 H1648 0.950 . S
C1655 C1652 1.387 1_455 S
C1656 C1657 1.387 . S
C1656 H1660 0.950 . S
C1656 C1665 1.390 . S
C1657 C1656 1.387 . S
C1657 C1659 1.387 . S
H1658 C1665 0.950 . S
C1659 C1657 1.387 . S
C1659 C1661 1.390 . S
C1659 H1663 0.950 . S
H1660 C1656 0.950 . S
C1661 C1659 1.390 . S
C1661 C1662 1.387 . S
C1661 H1664 0.950 . S
C1662 C1661 1.387 . S
C1662 C1665 1.387 . S
H1663 C1659 0.950 . S
H1664 C1661 0.950 . S
C1665 C1656 1.390 . S
C1665 H1658 0.950 . S
C1665 C1662 1.387 . S
C1666 C1667 1.387 . S
C1666 H1670 0.950 . S
C1666 C1675 1.390 . S
C1667 C1666 1.387 . S
C1667 C1669 1.387 . S
H1668 C1675 0.950 . S
C1669 C1667 1.387 . S
C1669 C1671 1.390 1_455 S
C1669 H1673 0.950 1_455 S
H1670 C1666 0.950 . S
C1671 C1669 1.390 1_655 S
C1671 C1672 1.387 1_655 S
C1671 H1674 0.950 . S
C1672 C1671 1.387 1_455 S
C1672 C1675 1.387 . S
H1673 C1669 0.950 1_655 S
H1674 C1671 0.950 . S
C1675 C1666 1.390 . S
C1675 H1668 0.950 . S
C1675 C1672 1.387 . S
C1676 C1677 1.387 . S
C1676 H1680 0.950 . S
C1676 C1685 1.390 . S
C1677 C1676 1.387 . S
C1677 C1679 1.387 . S
H1678 C1685 0.950 . S
C1679 C1677 1.387 . S
C1679 C1681 1.390 . S
C1679 H1683 0.950 . S
H1680 C1676 0.950 . S
C1681 C1679 1.390 . S
C1681 C1682 1.387 . S
C1681 H1684 0.950 . S
C1682 C1681 1.387 . S
C1682 C1685 1.387 . S
H1683 C1679 0.950 . S
H1684 C1681 0.950 . S
C1685 C1676 1.390 . S
C1685 H1678 0.950 . S
C1685 C1682 1.387 . S
C1686 C1687 1.387 . S
C1686 H1690 0.950 1_455 S
C1686 C1695 1.390 . S
C1687 C1686 1.387 . S
C1687 C1689 1.387 . S
H1688 C1695 0.950 . S
C1689 C1687 1.387 . S
C1689 C1691 1.390 . S
C1689 H1693 0.950 . S
H1690 C1686 0.950 1_655 S
C1691 C1689 1.390 . S
C1691 C1692 1.387 . S
C1691 H1694 0.950 . S
C1692 C1691 1.387 . S
C1692 C1695 1.387 . S
H1693 C1689 0.950 . S
H1694 C1691 0.950 . S
C1695 C1686 1.390 . S
C1695 H1688 0.950 . S
C1695 C1692 1.387 . S
C1696 C1697 1.387 . S
C1696 H1700 0.950 . S
C1696 C1705 1.390 . S
C1697 C1696 1.387 . S
C1697 C1699 1.387 . S
H1698 C1705 0.950 . S
C1699 C1697 1.387 . S
C1699 C1701 1.390 . S
C1699 H1703 0.950 . S
H1700 C1696 0.950 . S
C1701 C1699 1.390 . S
C1701 C1702 1.387 . S
C1701 H1704 0.950 . S
C1702 C1701 1.387 . S
C1702 C1705 1.387 . S
H1703 C1699 0.950 . S
H1704 C1701 0.950 . S
C1705 C1696 1.390 . S
C1705 H1698 0.950 . S
C1705 C1702 1.387 . S
C1706 C1707 1.387 . S
C1706 H1710 0.950 . S
C1706 C1715 1.390 . S
C1707 C1706 1.387 . S
C1707 C1709 1.387 . S
H1708 C1715 0.950 . S
C1709 C1707 1.387 . S
C1709 C1711 1.390 . S
C1709 H1713 0.950 . S
H1710 C1706 0.950 . S
C1711 C1709 1.390 . S
C1711 C1712 1.387 . S
C1711 H1714 0.950 . S
C1712 C1711 1.387 . S
C1712 C1715 1.387 . S
H1713 C1709 0.950 . S
H1714 C1711 0.950 . S
C1715 C1706 1.390 . S
C1715 H1708 0.950 . S
C1715 C1712 1.387 . S
C1716 C1717 1.387 . S
C1716 H1720 0.950 . S
C1716 C1725 1.390 . S
C1717 C1716 1.387 . S
C1717 C1719 1.387 . S
H1718 C1725 0.950 . S
C1719 C1717 1.387 . S
C1719 C1721 1.390 . S
C1719 H1723 0.950 . S
H1720 C1716 0.950 . S
C1721 C1719 1.390 . S
C1721 C1722 1.387 . S
C1721 H1724 0.950 . S
C1722 C1721 1.387 . S
C1722 C1725 1.387 . S
H1723 C1719 0.950 . S
H1724 C1721 0.950 . S
C1725 C1716 1.390 . S
C1725 H1718 0.950 . S
C1725 C1722 1.387 . S
C1726 C1727 1.387 . S
C1726 H1730 0.950 . S
C1726 C1735 1.390 . S
C1727 C1726 1.387 . S
C1727 C1729 1.387 . S
H1728 C1735 0.950 . S
C1729 C1727 1.387 . S
C1729 C1731 1.390 . S
C1729 H1733 0.950 . S
H1730 C1726 0.950 . S
C1731 C1729 1.390 . S
C1731 C1732 1.387 . S
C1731 H1734 0.950 . S
C1732 C1731 1.387 . S
C1732 C1735 1.387 . S
H1733 C1729 0.950 . S
H1734 C1731 0.950 . S
C1735 C1726 1.390 . S
C1735 H1728 0.950 . S
C1735 C1732 1.387 . S
C1736 C1737 1.387 . S
C1736 H1740 0.950 . S
C1736 C1745 1.390 . S
C1737 C1736 1.387 . S
C1737 C1739 1.387 . S
H1738 C1745 0.950 . S
C1739 C1737 1.387 . S
C1739 C1741 1.390 . S
C1739 H1743 0.950 . S
H1740 C1736 0.950 . S
C1741 C1739 1.390 . S
C1741 C1742 1.387 . S
C1741 H1744 0.950 . S
C1742 C1741 1.387 . S
C1742 C1745 1.387 . S
H1743 C1739 0.950 . S
H1744 C1741 0.950 . S
C1745 C1736 1.390 . S
C1745 H1738 0.950 . S
C1745 C1742 1.387 . S
C1746 C1747 1.387 . S
C1746 H1750 0.950 . S
C1746 C1755 1.390 . S
C1747 C1746 1.387 . S
C1747 C1749 1.387 . S
H1748 C1755 0.950 . S
C1749 C1747 1.387 . S
C1749 C1751 1.390 . S
C1749 H1753 0.950 . S
H1750 C1746 0.950 . S
C1751 C1749 1.390 . S
C1751 C1752 1.387 . S
C1751 H1754 0.950 . S
C1752 C1751 1.387 . S
C1752 C1755 1.387 . S
H1753 C1749 0.950 . S
H1754 C1751 0.950 . S
C1755 C1746 1.390 . S
C1755 H1748 0.950 . S
C1755 C1752 1.387 . S
C1756 C1757 1.387 . S
C1756 H1760 0.950 . S
C1756 C1765 1.390 . S
C1757 C1756 1.387 . S
C1757 C1759 1.387 . S
H1758 C1765 0.950 . S
C1759 C1757 1.387 . S
C1759 C1761 1.390 . S
C1759 H1763 0.950 . S
H1760 C1756 0.950 . S
C1761 C1759 1.390 . S
C1761 C1762 1.387 . S
C1761 H1764 0.950 . S
C1762 C1761 1.387 . S
C1762 C1765 1.387 . S
H1763 C1759 0.950 . S
H1764 C1761 0.950 . S
C1765 C1756 1.390 . S
C1765 H1758 0.950 . S
C1765 C1762 1.387 . S
C1766 C1767 1.387 . S
C1766 H1770 0.950 . S
C1766 C1775 1.390 . S
C1767 C1766 1.387 . S
C1767 C1769 1.387 . S
H1768 C1775 0.950 . S
C1769 C1767 1.387 . S
C1769 C1771 1.390 . S
C1769 H1773 0.950 . S
H1770 C1766 0.950 . S
C1771 C1769 1.390 . S
C1771 C1772 1.387 . S
C1771 H1774 0.950 . S
C1772 C1771 1.387 . S
C1772 C1775 1.387 . S
H1773 C1769 0.950 . S
H1774 C1771 0.950 . S
C1775 C1766 1.390 . S
C1775 H1768 0.950 . S
C1775 C1772 1.387 . S
C1776 C1777 1.387 . S
C1776 H1780 0.950 . S
C1776 C1785 1.390 . S
C1777 C1776 1.387 . S
C1777 C1779 1.387 . S
H1778 C1785 0.950 . S
C1779 C1777 1.387 . S
C1779 C1781 1.390 . S
C1779 H1783 0.950 . S
H1780 C1776 0.950 . S
C1781 C1779 1.390 . S
C1781 C1782 1.387 . S
C1781 H1784 0.950 . S
C1782 C1781 1.387 . S
C1782 C1785 1.387 . S
H1783 C1779 0.950 . S
H1784 C1781 0.950 . S
C1785 C1776 1.390 . S
C1785 H1778 0.950 . S
C1785 C1782 1.387 . S
C1786 C1787 1.387 . S
C1786 H1790 0.950 . S
C1786 C1795 1.390 . S
C1787 C1786 1.387 . S
C1787 C1789 1.387 . S
H1788 C1795 0.950 . S
C1789 C1787 1.387 . S
C1789 C1791 1.390 . S
C1789 H1793 0.950 . S
H1790 C1786 0.950 . S
C1791 C1789 1.390 . S
C1791 C1792 1.387 . S
C1791 H1794 0.950 . S
C1792 C1791 1.387 . S
C1792 C1795 1.387 . S
H1793 C1789 0.950 . S
H1794 C1791 0.950 . S
C1795 C1786 1.390 . S
C1795 H1788 0.950 . S
C1795 C1792 1.387 . S
C1796 C1797 1.387 . S
C1796 H1800 0.950 . S
C1796 C1805 1.390 . S
C1797 C1796 1.387 . S
C1797 C1799 1.387 . S
H1798 C1805 0.950 . S
C1799 C1797 1.387 . S
C1799 C1801 1.390 . S
C1799 H1803 0.950 . S
H1800 C1796 0.950 . S
C1801 C1799 1.390 . S
C1801 C1802 1.387 . S
C1801 H1804 0.950 . S
C1802 C1801 1.387 . S
C1802 C1805 1.387 . S
H1803 C1799 0.950 . S
H1804 C1801 0.950 . S
C1805 C1796 1.390 . S
C1805 H1798 0.950 . S
C1805 C1802 1.387 . S
C1806 C1807 1.387 . S
C1806 H1810 0.950 . S
C1806 C1815 1.390 . S
C1807 C1806 1.387 . S
C1807 C1809 1.387 . S
H1808 C1815 0.950 . S
C1809 C1807 1.387 . S
C1809 C1811 1.390 . S
C1809 H1813 0.950 . S
H1810 C1806 0.950 . S
C1811 C1809 1.390 . S
C1811 C1812 1.387 . S
C1811 H1814 0.950 . S
C1812 C1811 1.387 . S
C1812 C1815 1.387 . S
H1813 C1809 0.950 . S
H1814 C1811 0.950 . S
C1815 C1806 1.390 . S
C1815 H1808 0.950 . S
C1815 C1812 1.387 . S
C1816 C1817 1.387 . S
C1816 H1820 0.950 . S
C1816 C1825 1.390 . S
C1817 C1816 1.387 . S
C1817 C1819 1.387 . S
H1818 C1825 0.950 . S
C1819 C1817 1.387 . S
C1819 C1821 1.390 . S
C1819 H1823 0.950 . S
H1820 C1816 0.950 . S
C1821 C1819 1.390 . S
C1821 C1822 1.387 . S
C1821 H1824 0.950 . S
C1822 C1821 1.387 . S
C1822 C1825 1.387 . S
H1823 C1819 0.950 . S
H1824 C1821 0.950 . S
C1825 C1816 1.390 . S
C1825 H1818 0.950 . S
C1825 C1822 1.387 . S
C1826 C1827 1.387 . S
C1826 H1830 0.950 . S
C1826 C1835 1.390 . S
C1827 C1826 1.387 . S
C1827 C1829 1.387 . S
H1828 C1835 0.950 . S
C1829 C1827 1.387 . S
C1829 C1831 1.390 . S
C1829 H1833 0.950 . S
H1830 C1826 0.950 . S
C1831 C1829 1.390 . S
C1831 C1832 1.387 . S
C1831 H1834 0.950 . S
C1832 C1831 1.387 . S
C1832 C1835 1.387 . S
H1833 C1829 0.950 . S
H1834 C1831 0.950 . S
C1835 C1826 1.390 . S
C1835 H1828 0.950 . S
C1835 C1832 1.387 . S
C1836 C1837 1.387 . S
C1836 H1840 0.950 . S
C1836 C1845 1.390 . S
C1837 C1836 1.387 . S
C1837 C1839 1.387 . S
H1838 C1845 0.950 . S
C1839 C1837 1.387 . S
C1839 C1841 1.390 . S
C1839 H1843 0.950 . S
H1840 C1836 0.950 . S
C1841 C1839 1.390 . S
C1841 C1842 1.387 . S
C1841 H1844 0.950 . S
C1842 C1841 1.387 . S
C1842 C1845 1.387 . S
H1843 C1839 0.950 . S
H1844 C1841 0.950 . S
C1845 C1836 1.390 . S
C1845 H1838 0.950 . S
C1845 C1842 1.387 . S
C1846 C1847 1.387 . S
C1846 H1850 0.950 . S
C1846 C1855 1.390 . S
C1847 C1846 1.387 . S
C1847 C1849 1.387 . S
H1848 C1855 0.950 . S
C1849 C1847 1.387 . S
C1849 C1851 1.390 . S
C1849 H1853 0.950 . S
H1850 C1846 0.950 . S
C1851 C1849 1.390 . S
C1851 C1852 1.387 . S
C1851 H1854 0.950 . S
C1852 C1851 1.387 . S
C1852 C1855 1.387 . S
H1853 C1849 0.950 . S
H1854 C1851 0.950 . S
C1855 C1846 1.390 . S
C1855 H1848 0.950 . S
C1855 C1852 1.387 . S
C1057 N2 0.782 . S
C1062 N332 0.782 . S
C1067 N365 0.782 . S
C1072 N35 0.782 . S
C1077 N266 0.782 . S
C1082 N68 0.782 . S
C1087 N101 0.771 . S
C1092 N299 0.771 . S
C1097 N134 0.771 . S
C1102 N464 0.771 . S
C1107 N167 0.782 . S
C1112 N497 0.782 . S
C1117 N398 0.782 . S
C1122 N200 0.782 . S
C1127 N431 0.771 . S
C1132 N233 0.771 . S
C1137 N860 0.771 . S
C1142 N530 0.771 . S
C1147 N893 0.782 . S
C1152 N563 0.782 . S
C1157 N596 0.782 . S
C1162 N794 0.782 . S
C1167 N827 0.771 . S
C1172 N629 0.771 . S
C1177 N662 0.771 . S
C1182 N992 0.771 . S
C1187 N1025 0.771 . S
C1192 N695 0.771 . S
C1197 N728 0.771 . S
C1202 N926 0.771 . S
C1207 N761 0.782 . S
C1212 N959 0.782 . S
C1217 C7 1.821 . S
C1222 C832 1.821 . S
C1227 C40 1.817 . S
C1232 C799 1.817 . S
C1237 C73 1.821 . S
C1242 C898 1.821 . S
C1247 C106 1.817 . S
C1252 C865 1.817 . S
C1257 C139 1.821 . S
C1262 C964 1.821 . S
C1267 C172 1.817 . S
C1272 C931 1.817 . S
C1277 C1030 1.817 . S
C1282 C205 1.817 . S
C1287 C238 1.821 . S
C1292 C997 1.821 . S
C1297 C568 1.817 . S
C1302 C271 1.817 . S
C1307 C304 1.817 . S
C1312 C535 1.817 . S
C1317 C337 1.817 . S
C1322 C634 1.817 . S
C1327 C601 1.817 . S
C1332 C370 1.817 . S
C1337 C700 1.821 . S
C1342 C403 1.821 . S
C1347 C667 1.821 . S
C1352 C436 1.821 . S
C1357 C469 1.817 . S
C1362 C766 1.817 . S
C1367 C733 1.817 . S
C1372 C502 1.817 . S
C1377 N79 1.142 . S
C1382 N13 1.142 . S
C1387 N46 1.144 . S
C1392 N112 1.144 . S
C1397 N211 1.143 . S
C1402 N145 1.143 . S
C1407 N178 1.142 . S
C1412 N244 1.142 . S
C1417 N277 1.142 . S
C1422 N343 1.142 . S
C1427 N310 1.142 . S
C1432 N376 1.142 . S
C1437 N475 1.142 . S
C1442 N409 1.142 . S
C1447 N508 1.142 . S
C1452 N442 1.142 . S
C1457 N607 1.142 . S
C1462 N541 1.142 . S
C1467 N574 1.142 . S
C1472 N640 1.142 . S
C1477 N673 1.143 . S
C1482 N739 1.143 . S
C1487 N706 1.143 . S
C1492 N772 1.143 . S
C1497 N871 1.143 . S
C1502 N805 1.143 . S
C1507 N838 1.142 . S
C1512 N904 1.142 . S
C1517 N937 1.142 . S
C1522 N1003 1.142 . S
C1527 N1036 1.143 . S
C1532 N970 1.144 . S
C1537 C747 1.923 . S
C1542 C18 1.925 . S
C1547 C516 1.922 1_655 S
C1552 C51 1.925 . S
C1557 C84 1.926 . S
C1562 C945 1.922 . S
C1567 C186 1.923 1_655 S
C1572 C117 1.926 . S
C1577 C150 1.925 . S
C1582 C615 1.923 . S
C1587 C183 1.926 . S
C1592 C384 1.923 1_455 S
C1597 C813 1.923 . S
C1602 C216 1.926 . S
C1607 C249 1.925 . S
C1612 C54 1.923 1_455 S
C1617 C282 1.926 . S
C1622 C1011 1.922 . S
C1627 C252 1.923 1_655 S
C1632 C315 1.926 . S
C1637 C348 1.925 . S
C1642 C681 1.923 . S
C1647 C381 1.925 . S
C1652 C450 1.922 1_655 S
C1657 C879 1.922 . S
C1662 C414 1.926 . S
C1667 C447 1.926 . S
C1672 C120 1.923 1_455 S
C1677 C549 1.923 . S
C1682 C480 1.926 . S
C1687 C318 1.922 1_455 S
C1692 C513 1.926 . S
C1697 C219 1.923 . S
C1702 C546 1.926 . S
C1707 C579 1.925 . S
C1712 C1044 1.923 . S
C1717 C612 1.926 . S
C1722 C417 1.923 . S
C1727 C645 1.926 . S
C1732 C714 1.923 . S
C1737 C678 1.926 . S
C1742 C87 1.922 . S
C1747 C711 1.926 . S
C1752 C912 1.923 . S
C1757 C285 1.923 . S
C1762 C744 1.926 . S
C1767 C582 1.923 . S
C1772 C777 1.926 . S
C1777 C483 1.923 . S
C1782 C810 1.926 . S
C1787 C843 1.925 . S
C1792 C780 1.923 . S
C1797 C153 1.923 . S
C1802 C876 1.926 . S
C1807 C978 1.923 . S
C1812 C909 1.926 . S
C1817 C942 1.925 . S
C1822 C351 1.923 . S
C1827 C975 1.926 . S
C1832 C648 1.923 . S
C1837 C21 1.923 . S
C1842 C1008 1.925 . S
C1847 C1041 1.926 . S
C1852 C846 1.922 . S
