# Generated by pormake.
# Topology mmt, (4)-cn, num edge types: 1
# Building blocks:
#     Node 0, Type 0, BuildingBlock: QUQFOY_clean_sbu_3, # of connection points: 4
#     Node 1, Type 0, BuildingBlock: QUQFOY_clean_sbu_3, # of connection points: 4
#     Node 2, Type 0, BuildingBlock: QUQFOY_clean_sbu_3, # of connection points: 4
#     Node 3, Type 0, BuildingBlock: QUQFOY_clean_sbu_3, # of connection points: 4
#     Node 4, Type 0, BuildingBlock: QUQFOY_clean_sbu_3, # of connection points: 4
#     Node 5, Type 0, BuildingBlock: QUQFOY_clean_sbu_3, # of connection points: 4
#     Node 6, Type 0, BuildingBlock: QUQFOY_clean_sbu_3, # of connection points: 4
#     Node 7, Type 0, BuildingBlock: QUQFOY_clean_sbu_3, # of connection points: 4
#     Edge 8, Type (0, 0), BuildingBlock: OJICUG_clean_linker_0, # of connection points: 2
#     Edge 9, Type (0, 0), BuildingBlock: OJICUG_clean_linker_0, # of connection points: 2
#     Edge 10, Type (0, 0), BuildingBlock: OJICUG_clean_linker_0, # of connection points: 2
#     Edge 11, Type (0, 0), BuildingBlock: OJICUG_clean_linker_0, # of connection points: 2
#     Edge 12, Type (0, 0), BuildingBlock: OJICUG_clean_linker_0, # of connection points: 2
#     Edge 13, Type (0, 0), BuildingBlock: OJICUG_clean_linker_0, # of connection points: 2
#     Edge 14, Type (0, 0), BuildingBlock: OJICUG_clean_linker_0, # of connection points: 2
#     Edge 15, Type (0, 0), BuildingBlock: OJICUG_clean_linker_0, # of connection points: 2
#     Edge 16, Type (0, 0), BuildingBlock: OJICUG_clean_linker_0, # of connection points: 2
#     Edge 17, Type (0, 0), BuildingBlock: OJICUG_clean_linker_0, # of connection points: 2
#     Edge 18, Type (0, 0), BuildingBlock: OJICUG_clean_linker_0, # of connection points: 2
#     Edge 19, Type (0, 0), BuildingBlock: OJICUG_clean_linker_0, # of connection points: 2
#     Edge 20, Type (0, 0), BuildingBlock: OJICUG_clean_linker_0, # of connection points: 2
#     Edge 21, Type (0, 0), BuildingBlock: OJICUG_clean_linker_0, # of connection points: 2
#     Edge 22, Type (0, 0), BuildingBlock: OJICUG_clean_linker_0, # of connection points: 2
#     Edge 23, Type (0, 0), BuildingBlock: OJICUG_clean_linker_0, # of connection points: 2
# Relax obj value: 0.025
# Max RMSD: 0.041
# Mean RMSD: 0.041
data_MOF--net-mmt--node1-QUQFOY_clean_sbu_3--edge1-OJICUG_clean_linker_0
_symmetry_space_group_name_H-M    P1
_symmetry_Int_Tables_number       1
_symmetry_cell_setting            triclinic
loop_
_symmetry_equiv_pos_as_xyz
'x, y, z'
_cell_length_a     17.456496
_cell_length_b     27.866946
_cell_length_c     34.980697
_cell_angle_alpha  89.924645
_cell_angle_beta   89.975167
_cell_angle_gamma 89.698358
loop_
_atom_site_label
_atom_site_type_symbol
_atom_site_fract_x
_atom_site_fract_y
_atom_site_fract_z
_atom_type_partial_charge
C0 C 0.09707 0.67923 0.31053 0.0
O1 O 0.04966 0.6886 0.28404 0.0
Cd2 Cd -0.02035 0.6253 0.2535 0.0
O3 O 0.0976 0.63821 0.32665 0.0
Cd4 Cd 0.01585 0.56502 0.32645 0.0
C5 C 0.11891 0.53646 0.24908 0.0
O6 O 0.89259 0.58791 0.29632 0.0
O7 O 0.92471 0.51256 0.29746 0.0
O8 O -0.02516 0.5746 0.39266 0.0
C9 C 0.87506 0.54446 0.28984 0.0
O10 O 0.07805 0.56841 0.23265 0.0
C11 C -4e-05 0.53411 0.40391 0.0
O12 O 0.11064 0.52743 0.28457 0.0
O13 O 0.03614 0.50892 0.3795 0.0
C14 C 0.34226 0.81429 0.31037 0.0
O15 O 0.38966 0.80498 0.28385 0.0
Cd16 Cd 0.46024 0.86821 0.25338 0.0
O17 O 0.34185 0.85524 0.32651 0.0
Cd18 Cd 0.42375 0.92834 0.32635 0.0
C19 C 0.3214 0.95731 0.24879 0.0
O20 O 0.54707 0.90521 0.29641 0.0
O21 O 0.51563 0.98067 0.29759 0.0
O22 O 0.46411 0.91835 0.39259 0.0
C23 C 0.56504 0.94863 0.29 0.0
O24 O 0.36228 0.92536 0.23241 0.0
C25 C 0.43914 0.95884 0.40385 0.0
O26 O 0.32941 0.96619 0.28429 0.0
O27 O 0.40335 0.98426 0.37941 0.0
C28 C 0.59668 0.31659 0.16856 0.0
O29 O 0.55476 0.31842 0.19823 0.0
Cd30 Cd 0.47037 0.38159 0.21846 0.0
O31 O 0.59284 0.34952 0.14325 0.0
Cd32 Cd 0.51783 0.42618 0.13665 0.0
C33 C 0.61136 0.46687 0.2153 0.0
O34 O 0.39348 0.40992 0.16732 0.0
O35 O 0.42452 0.48404 0.1577 0.0
O36 O 0.47989 0.41309 0.07027 0.0
C37 C 0.37493 0.45405 0.16872 0.0
O38 O 0.56455 0.44165 0.23461 0.0
C39 C 0.50894 0.45178 0.05777 0.0
O40 O 0.61013 0.46676 0.17881 0.0
O41 O 0.54688 0.47673 0.08148 0.0
C42 C 0.84255 0.17629 0.1684 0.0
O43 O 0.88439 0.1744 0.19808 0.0
Cd44 Cd -0.03047 0.11154 0.21825 0.0
O45 O 0.84665 0.14353 0.14302 0.0
Cd46 Cd 0.92198 0.06699 0.1365 0.0
C47 C 0.82909 0.02599 0.21543 0.0
O48 O 0.04636 0.08361 0.16696 0.0
O49 O 0.01591 0.00942 0.15745 0.0
O50 O 0.9593 0.07977 0.06993 0.0
C51 C 0.0653 0.03955 0.16837 0.0
O52 O 0.87593 0.05118 0.23467 0.0
C53 C 0.93026 0.04096 0.05774 0.0
O54 O 0.83012 0.02627 0.17894 0.0
O55 O 0.89261 0.01612 0.0817 0.0
C56 C 0.83904 0.3152 0.64775 0.0
O57 O 0.88844 0.30607 0.67338 0.0
Cd58 Cd 0.9534 0.37099 0.70478 0.0
O59 O 0.8356 0.35668 0.63248 0.0
Cd60 Cd 0.91429 0.43135 0.63267 0.0
C61 C 0.80778 0.45576 0.7094 0.0
O62 O 0.03849 0.41325 0.66381 0.0
O63 O -0.00185 0.48705 0.66309 0.0
O64 O 0.9581 0.42223 0.5669 0.0
C65 C 0.05083 0.45727 0.67113 0.0
O66 O 0.85021 0.42439 0.72555 0.0
C67 C 0.93094 0.46201 0.55523 0.0
O68 O 0.81621 0.46607 0.67415 0.0
O69 O 0.89248 0.48655 0.5792 0.0
C70 C 0.59859 0.17624 0.64793 0.0
O71 O 0.54913 0.18533 0.67354 0.0
Cd72 Cd 0.4839 0.12038 0.70494 0.0
O73 O 0.60205 0.13479 0.63269 0.0
Cd74 Cd 0.52335 0.06014 0.63289 0.0
C75 C 0.6294 0.03554 0.70977 0.0
O76 O 0.39901 0.07827 0.66389 0.0
O77 O 0.43909 0.00441 0.66318 0.0
O78 O 0.48 0.06964 0.5671 0.0
C79 C 0.38649 0.03424 0.67119 0.0
O80 O 0.58689 0.06689 0.72584 0.0
C81 C 0.50712 0.02989 0.55541 0.0
O82 O 0.62117 0.0253 0.67451 0.0
O83 O 0.54532 0.00516 0.5794 0.0
C84 C 0.33777 0.675 0.81788 0.0
O85 O 0.38612 0.68399 0.79178 0.0
Cd86 Cd 0.45026 0.61929 0.75926 0.0
O87 O 0.33459 0.63331 0.83281 0.0
Cd88 Cd 0.41344 0.55801 0.83073 0.0
C89 C 0.30594 0.53467 0.75426 0.0
O90 O 0.537 0.57658 0.79931 0.0
O91 O 0.49722 0.50292 0.7989 0.0
O92 O 0.4606 0.56521 0.89594 0.0
C93 C 0.54974 0.53269 0.79142 0.0
O94 O 0.34766 0.56628 0.73827 0.0
C95 C 0.43438 0.52527 0.90743 0.0
O96 O 0.31498 0.52388 0.78939 0.0
O97 O 0.39433 0.50157 0.88375 0.0
C98 C 0.09947 0.81647 0.81814 0.0
O99 O 0.05111 0.80758 0.79207 0.0
Cd100 Cd -0.0133 0.87228 0.7596 0.0
O101 O 0.10266 0.8581 0.8331 0.0
Cd102 Cd 0.02392 0.93348 0.83106 0.0
C103 C 0.13105 0.95688 0.75434 0.0
O104 O 0.90027 0.91482 0.79987 0.0
O105 O 0.9398 0.98852 0.7993 0.0
O106 O -0.0227 0.92655 0.89645 0.0
C107 C 0.88735 0.95869 0.79194 0.0
O108 O 0.08925 0.92533 0.73842 0.0
C109 C 0.00368 0.96652 0.90767 0.0
O110 O 0.12214 0.96758 0.78949 0.0
O111 O 0.04356 0.99008 0.88377 0.0
C112 C 0.20918 0.53453 0.194 0.0
C113 C 0.17985 0.51225 0.22691 0.0
H114 H 0.29429 0.53338 0.15005 0.0
C115 C 0.21148 0.46819 0.23887 0.0
H116 H 0.18621 0.56852 0.18407 0.0
C117 C 0.27258 0.44744 0.21868 0.0
C118 C 0.30389 0.47115 0.1869 0.0
H119 H 0.18969 0.45013 0.26403 0.0
H120 H 0.2975 0.41414 0.22891 0.0
C121 C 0.27108 0.51448 0.17451 0.0
C122 C 0.16739 0.04619 0.21839 0.0
C123 C 0.13651 0.02265 0.18649 0.0
H124 H 0.24994 0.04337 0.26387 0.0
C125 C 0.16983 0.97956 0.17397 0.0
H126 H 0.14206 0.0793 0.22871 0.0
C127 C 0.23177 0.95955 0.19348 0.0
C128 C 0.26061 0.98162 0.22653 0.0
H129 H 0.14695 0.9608 0.14942 0.0
H130 H 0.25508 0.92573 0.18346 0.0
C131 C 0.22853 0.02548 0.23859 0.0
C132 C 0.71234 0.53078 0.21984 0.0
C133 C 0.67324 0.49169 0.23599 0.0
H134 H 0.8067 0.57969 0.22533 0.0
C135 C 0.69712 0.47369 0.27163 0.0
H136 H 0.69498 0.54534 0.19244 0.0
C137 C 0.76127 0.49245 0.28972 0.0
C138 C 0.80146 0.53053 0.2732 0.0
H139 H 0.66853 0.44344 0.28475 0.0
H140 H 0.78071 0.47639 0.31626 0.0
C141 C 0.77562 0.55058 0.23867 0.0
C142 C 0.72776 0.96228 0.21993 0.0
C143 C 0.76729 0.00107 0.23619 0.0
H144 H 0.63291 0.91371 0.22532 0.0
C145 C 0.74376 0.01877 0.27195 0.0
H146 H 0.74484 0.94795 0.19243 0.0
C147 C 0.67948 8e-05 0.29005 0.0
C148 C 0.63882 0.96236 0.27339 0.0
H149 H 0.77267 0.04879 0.28516 0.0
H150 H 0.66028 0.01596 0.31667 0.0
C151 C 0.66436 0.94254 0.23876 0.0
C152 C 0.65469 0.54301 0.74332 0.0
C153 C 0.6204 0.51621 0.77265 0.0
H154 H 0.74064 0.54422 0.69932 0.0
C155 C 0.65018 0.47089 0.78203 0.0
H156 H 0.63202 0.57791 0.73545 0.0
C157 C 0.71259 0.45219 0.76212 0.0
C158 C 0.74521 0.47788 0.7317 0.0
H159 H 0.62453 0.44961 0.80456 0.0
H160 H 0.73361 0.4168 0.76975 0.0
C161 C 0.71615 0.52363 0.72255 0.0
C162 C 0.72114 0.96771 0.72301 0.0
C163 C 0.69187 0.01339 0.73214 0.0
H164 H 0.80544 0.91351 0.73594 0.0
C165 C 0.72423 0.039 0.76261 0.0
H166 H 0.69685 0.94718 0.69974 0.0
C167 C 0.78661 0.02032 0.78255 0.0
C168 C 0.81663 0.97509 0.77317 0.0
H169 H 0.70304 0.07433 0.77023 0.0
H170 H 0.81209 0.04156 0.8051 0.0
C171 C 0.78257 0.94834 0.74381 0.0
C172 C 0.21575 0.4667 0.74078 0.0
C173 C 0.2439 0.51256 0.73182 0.0
H174 H 0.13319 0.4122 0.72745 0.0
C175 C 0.2112 0.53821 0.70129 0.0
H176 H 0.24032 0.44611 0.76407 0.0
C177 C 0.14968 0.51934 0.68106 0.0
C178 C 0.12082 0.4739 0.69022 0.0
H179 H 0.23154 0.57366 0.69378 0.0
H180 H 0.12399 0.5406 0.65844 0.0
C181 C 0.15516 0.44718 0.71971 0.0
C182 C 0.22572 0.95343 0.70131 0.0
C183 C 0.19308 0.97902 0.73185 0.0
H184 H 0.31301 0.95106 0.65845 0.0
C185 C 0.22138 0.02481 0.7408 0.0
H186 H 0.20527 0.91803 0.69379 0.0
C187 C 0.28207 0.04432 0.71973 0.0
C188 C 0.31637 0.01764 0.69025 0.0
H189 H 0.19687 0.04534 0.7641 0.0
H190 H 0.30416 0.07923 0.72748 0.0
C191 C 0.28735 0.97228 0.68108 0.0
C192 C 0.93923 0.54342 0.46842 0.0
C193 C -0.01607 0.51611 0.44294 0.0
H194 H 0.88675 0.54759 0.52367 0.0
C195 C 0.01 0.47056 0.45449 0.0
H196 H 0.91787 0.57855 0.46032 0.0
C197 C -0.00819 0.45272 0.49074 0.0
C198 C 0.94706 0.48001 0.51621 0.0
H199 H 0.0442 0.44853 0.43546 0.0
H200 H 0.01316 0.41759 0.49884 0.0
C201 C 0.92097 0.52555 0.50465 0.0
C202 C 0.4992 0.94902 0.46846 0.0
C203 C 0.4549 0.97658 0.44293 0.0
H204 H 0.55112 0.9444 0.5238 0.0
C205 C 0.42896 0.02211 0.45451 0.0
H206 H 0.52044 0.91389 0.46034 0.0
C207 C 0.44689 0.03969 0.49083 0.0
C208 C 0.49125 0.01215 0.51634 0.0
H209 H 0.39506 0.04433 0.43546 0.0
H210 H 0.42565 0.07482 0.49895 0.0
C211 C 0.51721 0.96662 0.50476 0.0
C212 C 0.52106 0.51395 0.00638 0.0
C213 C 0.4935 0.46914 0.01846 0.0
H214 H 0.52335 0.567 0.96213 0.0
C215 C 0.44622 0.44285 -0.00632 0.0
H216 H 0.55722 0.53525 0.02485 0.0
C217 C 0.42633 0.46122 0.95776 0.0
C218 C 0.45322 0.50629 0.94588 0.0
H219 H 0.42363 0.40833 0.00222 0.0
H220 H 0.38979 0.44012 0.93934 0.0
C221 C 0.50114 0.53232 0.97052 0.0
C222 C 0.01214 0.03088 0.9576 0.0
C223 C -0.01484 0.98572 0.94606 0.0
H224 H 0.01515 0.08406 0.00172 0.0
C225 C 0.93744 0.95985 0.97097 0.0
H226 H 0.04853 0.05187 0.93897 0.0
C227 C 0.91779 0.97846 0.00677 0.0
C228 C 0.94542 0.02336 0.01851 0.0
H229 H 0.91517 0.92512 0.96285 0.0
H230 H 0.88177 0.95728 0.02545 0.0
C231 C -0.00749 0.04948 -0.00655 0.0
C232 C 0.14375 0.76315 0.31903 0.0
C233 C 0.15895 0.71365 0.31833 0.0
H234 H 0.19091 0.83404 0.31868 0.0
C235 C 0.23529 0.6975 0.31976 0.0
H236 H 0.08534 0.77638 0.31772 0.0
C237 C 0.29558 0.73037 0.31897 0.0
C238 C 0.28037 0.77986 0.31822 0.0
H239 H 0.24842 0.65947 0.31877 0.0
H240 H 0.35399 0.71713 0.31763 0.0
C241 C 0.20404 0.79602 0.31971 0.0
C242 C 0.74998 0.22982 0.13212 0.0
C243 C 0.78091 0.21302 0.16683 0.0
H244 H 0.66768 0.27684 0.10518 0.0
C245 C 0.74953 0.22976 0.20133 0.0
H246 H 0.77281 0.21727 0.10511 0.0
C247 C 0.68851 0.26209 0.20136 0.0
C248 C 0.65804 0.27968 0.1669 0.0
H249 H 0.77118 0.2171 0.22858 0.0
H250 H 0.66621 0.27412 0.22864 0.0
C251 C 0.68979 0.26364 0.13217 0.0
C252 C 0.73626 0.19671 0.63883 0.0
C253 C 0.6593 0.21169 0.64029 0.0
H254 H 0.8542 0.2181 0.64074 0.0
C255 C 0.6423 0.26097 0.63958 0.0
H256 H 0.75087 0.15889 0.63981 0.0
C257 C 0.70136 0.29475 0.6388 0.0
C258 C 0.77832 0.27977 0.64018 0.0
H259 H 0.58342 0.27336 0.64089 0.0
H260 H 0.68675 0.33256 0.63978 0.0
C261 C 0.79532 0.23048 0.63949 0.0
C262 C 0.29533 0.76008 0.8271 0.0
C263 C 0.27771 0.71098 0.8263 0.0
H264 H 0.25182 0.83219 0.82679 0.0
C265 C 0.20059 0.6969 0.82795 0.0
H266 H 0.35435 0.77178 0.82564 0.0
C267 C 0.14198 0.73137 0.82731 0.0
C268 C 0.15959 0.78047 0.82646 0.0
H269 H 0.18549 0.65926 0.8269 0.0
H270 H 0.08295 0.71967 0.82601 0.0
C271 C 0.23672 0.79455 0.8279 0.0
loop_
_geom_bond_atom_site_label_1
_geom_bond_atom_site_label_2
_geom_bond_distance
_geom_bond_site_symmetry_2
_ccdc_geom_bond_type
C0 O1 1.306 . S
C0 O3 1.160 . S
O1 C0 1.306 . S
O1 Cd2 2.228 . S
Cd2 O1 2.228 . S
Cd2 O6 2.273 . S
Cd2 O10 2.277 . S
O3 C0 1.160 . S
O3 Cd4 2.203 . S
Cd4 O3 2.203 . S
Cd4 O6 2.411 . S
Cd4 O7 2.333 . S
Cd4 O8 2.352 . S
Cd4 O12 2.277 . S
Cd4 O13 2.356 . S
C5 O10 1.209 . S
C5 O12 1.226 . S
O6 Cd2 2.273 . S
O6 Cd4 2.411 . S
O6 C9 1.320 . S
O7 Cd4 2.333 . S
O7 C9 1.214 . S
O8 Cd4 2.352 . S
O8 C11 1.258 . S
C9 O6 1.320 . S
C9 O7 1.214 . S
O10 Cd2 2.277 . S
O10 C5 1.209 . S
C11 O8 1.258 . S
C11 O13 1.282 . S
O12 Cd4 2.277 . S
O12 C5 1.226 . S
O13 Cd4 2.356 . S
O13 C11 1.282 . S
C14 O15 1.306 . S
C14 O17 1.160 . S
O15 C14 1.306 . S
O15 Cd16 2.228 . S
Cd16 O15 2.228 . S
Cd16 O20 2.273 . S
Cd16 O24 2.277 . S
O17 C14 1.160 . S
O17 Cd18 2.203 . S
Cd18 O17 2.203 . S
Cd18 O20 2.411 . S
Cd18 O21 2.333 1_565 S
Cd18 O22 2.352 . S
Cd18 O26 2.277 . S
Cd18 O27 2.356 . S
C19 O24 1.209 . S
C19 O26 1.226 . S
O20 Cd16 2.273 . S
O20 Cd18 2.411 . S
O20 C23 1.320 . S
O21 Cd18 2.333 1_545 S
O21 C23 1.214 1_545 S
O22 Cd18 2.352 . S
O22 C25 1.258 . S
C23 O20 1.320 . S
C23 O21 1.214 1_565 S
O24 Cd16 2.277 . S
O24 C19 1.209 . S
C25 O22 1.258 . S
C25 O27 1.282 . S
O26 Cd18 2.277 . S
O26 C19 1.226 . S
O27 Cd18 2.356 . S
O27 C25 1.282 . S
C28 O29 1.306 . S
C28 O31 1.160 . S
O29 C28 1.306 . S
O29 Cd30 2.228 . S
Cd30 O29 2.228 . S
Cd30 O34 2.273 . S
Cd30 O38 2.277 . S
O31 C28 1.160 . S
O31 Cd32 2.203 . S
Cd32 O31 2.203 . S
Cd32 O34 2.411 . S
Cd32 O35 2.333 . S
Cd32 O36 2.352 . S
Cd32 O40 2.277 . S
Cd32 O41 2.356 . S
C33 O38 1.209 . S
C33 O40 1.226 . S
O34 Cd30 2.273 . S
O34 Cd32 2.411 . S
O34 C37 1.320 . S
O35 Cd32 2.333 . S
O35 C37 1.214 . S
O36 Cd32 2.352 . S
O36 C39 1.258 . S
C37 O34 1.320 . S
C37 O35 1.214 . S
O38 Cd30 2.277 . S
O38 C33 1.209 . S
C39 O36 1.258 . S
C39 O41 1.282 . S
O40 Cd32 2.277 . S
O40 C33 1.226 . S
O41 Cd32 2.356 . S
O41 C39 1.282 . S
C42 O43 1.306 . S
C42 O45 1.160 . S
O43 C42 1.306 . S
O43 Cd44 2.228 . S
Cd44 O43 2.228 . S
Cd44 O48 2.273 . S
Cd44 O52 2.277 . S
O45 C42 1.160 . S
O45 Cd46 2.203 . S
Cd46 O45 2.203 . S
Cd46 O48 2.411 . S
Cd46 O49 2.333 1_545 S
Cd46 O50 2.352 . S
Cd46 O54 2.277 . S
Cd46 O55 2.356 . S
C47 O52 1.209 . S
C47 O54 1.226 . S
O48 Cd44 2.273 . S
O48 Cd46 2.411 . S
O48 C51 1.320 . S
O49 Cd46 2.333 1_565 S
O49 C51 1.214 1_565 S
O50 Cd46 2.352 . S
O50 C53 1.258 . S
C51 O48 1.320 . S
C51 O49 1.214 1_545 S
O52 Cd44 2.277 . S
O52 C47 1.209 . S
C53 O50 1.258 . S
C53 O55 1.282 . S
O54 Cd46 2.277 . S
O54 C47 1.226 . S
O55 Cd46 2.356 . S
O55 C53 1.282 . S
C56 O57 1.306 . S
C56 O59 1.160 . S
O57 C56 1.306 . S
O57 Cd58 2.228 . S
Cd58 O57 2.228 . S
Cd58 O62 2.273 . S
Cd58 O66 2.277 . S
O59 C56 1.160 . S
O59 Cd60 2.203 . S
Cd60 O59 2.203 . S
Cd60 O62 2.411 . S
Cd60 O63 2.333 . S
Cd60 O64 2.352 . S
Cd60 O68 2.277 . S
Cd60 O69 2.356 . S
C61 O66 1.209 . S
C61 O68 1.226 . S
O62 Cd58 2.273 . S
O62 Cd60 2.411 . S
O62 C65 1.320 . S
O63 Cd60 2.333 . S
O63 C65 1.214 . S
O64 Cd60 2.352 . S
O64 C67 1.258 . S
C65 O62 1.320 . S
C65 O63 1.214 . S
O66 Cd58 2.277 . S
O66 C61 1.209 . S
C67 O64 1.258 . S
C67 O69 1.282 . S
O68 Cd60 2.277 . S
O68 C61 1.226 . S
O69 Cd60 2.356 . S
O69 C67 1.282 . S
C70 O71 1.306 . S
C70 O73 1.160 . S
O71 C70 1.306 . S
O71 Cd72 2.228 . S
Cd72 O71 2.228 . S
Cd72 O76 2.273 . S
Cd72 O80 2.277 . S
O73 C70 1.160 . S
O73 Cd74 2.203 . S
Cd74 O73 2.203 . S
Cd74 O76 2.411 . S
Cd74 O77 2.333 1_545 S
Cd74 O78 2.352 . S
Cd74 O82 2.277 . S
Cd74 O83 2.356 . S
C75 O80 1.209 . S
C75 O82 1.226 . S
O76 Cd72 2.273 . S
O76 Cd74 2.411 . S
O76 C79 1.320 . S
O77 Cd74 2.333 1_565 S
O77 C79 1.214 1_565 S
O78 Cd74 2.352 . S
O78 C81 1.258 . S
C79 O76 1.320 . S
C79 O77 1.214 1_545 S
O80 Cd72 2.277 . S
O80 C75 1.209 . S
C81 O78 1.258 . S
C81 O83 1.282 . S
O82 Cd74 2.277 . S
O82 C75 1.226 . S
O83 Cd74 2.356 . S
O83 C81 1.282 . S
C84 O85 1.306 . S
C84 O87 1.160 . S
O85 C84 1.306 . S
O85 Cd86 2.228 . S
Cd86 O85 2.228 . S
Cd86 O90 2.273 . S
Cd86 O94 2.277 . S
O87 C84 1.160 . S
O87 Cd88 2.203 . S
Cd88 O87 2.203 . S
Cd88 O90 2.411 . S
Cd88 O91 2.333 . S
Cd88 O92 2.352 . S
Cd88 O96 2.277 . S
Cd88 O97 2.356 . S
C89 O94 1.209 . S
C89 O96 1.226 . S
O90 Cd86 2.273 . S
O90 Cd88 2.411 . S
O90 C93 1.320 . S
O91 Cd88 2.333 . S
O91 C93 1.214 . S
O92 Cd88 2.352 . S
O92 C95 1.258 . S
C93 O90 1.320 . S
C93 O91 1.214 . S
O94 Cd86 2.277 . S
O94 C89 1.209 . S
C95 O92 1.258 . S
C95 O97 1.282 . S
O96 Cd88 2.277 . S
O96 C89 1.226 . S
O97 Cd88 2.356 . S
O97 C95 1.282 . S
C98 O99 1.306 . S
C98 O101 1.160 . S
O99 C98 1.306 . S
O99 Cd100 2.228 . S
Cd100 O99 2.228 . S
Cd100 O104 2.273 . S
Cd100 O108 2.277 . S
O101 C98 1.160 . S
O101 Cd102 2.203 . S
Cd102 O101 2.203 . S
Cd102 O104 2.411 . S
Cd102 O105 2.333 1_565 S
Cd102 O106 2.352 . S
Cd102 O110 2.277 . S
Cd102 O111 2.356 . S
C103 O108 1.209 . S
C103 O110 1.226 . S
O104 Cd100 2.273 . S
O104 Cd102 2.411 . S
O104 C107 1.320 . S
O105 Cd102 2.333 1_545 S
O105 C107 1.214 1_545 S
O106 Cd102 2.352 . S
O106 C109 1.258 . S
C107 O104 1.320 . S
C107 O105 1.214 1_565 S
O108 Cd100 2.277 . S
O108 C103 1.209 . S
C109 O106 1.258 . S
C109 O111 1.282 . S
O110 Cd102 2.277 . S
O110 C103 1.226 . S
O111 Cd102 2.356 . S
O111 C109 1.282 . S
C112 C113 1.387 . S
C112 H116 0.950 . S
C112 C121 1.390 . S
C113 C112 1.387 . S
C113 C115 1.387 . S
H114 C121 0.950 . S
C115 C113 1.387 . S
C115 C117 1.390 . S
C115 H119 0.950 . S
H116 C112 0.950 . S
C117 C115 1.390 . S
C117 C118 1.387 . S
C117 H120 0.950 . S
C118 C117 1.387 . S
C118 C121 1.387 . S
H119 C115 0.950 . S
H120 C117 0.950 . S
C121 C112 1.390 . S
C121 H114 0.950 . S
C121 C118 1.387 . S
C122 C123 1.387 . S
C122 H126 0.950 . S
C122 C131 1.390 . S
C123 C122 1.387 . S
C123 C125 1.387 1_545 S
H124 C131 0.950 . S
C125 C123 1.387 1_565 S
C125 C127 1.390 . S
C125 H129 0.950 . S
H126 C122 0.950 . S
C127 C125 1.390 . S
C127 C128 1.387 . S
C127 H130 0.950 . S
C128 C127 1.387 . S
C128 C131 1.387 1_565 S
H129 C125 0.950 . S
H130 C127 0.950 . S
C131 C122 1.390 . S
C131 H124 0.950 . S
C131 C128 1.387 1_545 S
C132 C133 1.387 . S
C132 H136 0.950 . S
C132 C141 1.390 . S
C133 C132 1.387 . S
C133 C135 1.387 . S
H134 C141 0.950 . S
C135 C133 1.387 . S
C135 C137 1.390 . S
C135 H139 0.950 . S
H136 C132 0.950 . S
C137 C135 1.390 . S
C137 C138 1.387 . S
C137 H140 0.950 . S
C138 C137 1.387 . S
C138 C141 1.387 . S
H139 C135 0.950 . S
H140 C137 0.950 . S
C141 C132 1.390 . S
C141 H134 0.950 . S
C141 C138 1.387 . S
C142 C143 1.387 1_565 S
C142 H146 0.950 . S
C142 C151 1.390 . S
C143 C142 1.387 1_545 S
C143 C145 1.387 . S
H144 C151 0.950 . S
C145 C143 1.387 . S
C145 C147 1.390 . S
C145 H149 0.950 . S
H146 C142 0.950 . S
C147 C145 1.390 . S
C147 C148 1.387 1_545 S
C147 H150 0.950 . S
C148 C147 1.387 1_565 S
C148 C151 1.387 . S
H149 C145 0.950 . S
H150 C147 0.950 . S
C151 C142 1.390 . S
C151 H144 0.950 . S
C151 C148 1.387 . S
C152 C153 1.387 . S
C152 H156 0.950 . S
C152 C161 1.390 . S
C153 C152 1.387 . S
C153 C155 1.387 . S
H154 C161 0.950 . S
C155 C153 1.387 . S
C155 C157 1.390 . S
C155 H159 0.950 . S
H156 C152 0.950 . S
C157 C155 1.390 . S
C157 C158 1.387 . S
C157 H160 0.950 . S
C158 C157 1.387 . S
C158 C161 1.387 . S
H159 C155 0.950 . S
H160 C157 0.950 . S
C161 C152 1.390 . S
C161 H154 0.950 . S
C161 C158 1.387 . S
C162 C163 1.387 1_565 S
C162 H166 0.950 . S
C162 C171 1.390 . S
C163 C162 1.387 1_545 S
C163 C165 1.387 . S
H164 C171 0.950 . S
C165 C163 1.387 . S
C165 C167 1.390 . S
C165 H169 0.950 . S
H166 C162 0.950 . S
C167 C165 1.390 . S
C167 C168 1.387 1_545 S
C167 H170 0.950 . S
C168 C167 1.387 1_565 S
C168 C171 1.387 . S
H169 C165 0.950 . S
H170 C167 0.950 . S
C171 C162 1.390 . S
C171 H164 0.950 . S
C171 C168 1.387 . S
C172 C173 1.387 . S
C172 H176 0.950 . S
C172 C181 1.390 . S
C173 C172 1.387 . S
C173 C175 1.387 . S
H174 C181 0.950 . S
C175 C173 1.387 . S
C175 C177 1.390 . S
C175 H179 0.950 . S
H176 C172 0.950 . S
C177 C175 1.390 . S
C177 C178 1.387 . S
C177 H180 0.950 . S
C178 C177 1.387 . S
C178 C181 1.387 . S
H179 C175 0.950 . S
H180 C177 0.950 . S
C181 C172 1.390 . S
C181 H174 0.950 . S
C181 C178 1.387 . S
C182 C183 1.387 . S
C182 H186 0.950 . S
C182 C191 1.390 . S
C183 C182 1.387 . S
C183 C185 1.387 1_565 S
H184 C191 0.950 . S
C185 C183 1.387 1_545 S
C185 C187 1.390 . S
C185 H189 0.950 . S
H186 C182 0.950 . S
C187 C185 1.390 . S
C187 C188 1.387 . S
C187 H190 0.950 . S
C188 C187 1.387 . S
C188 C191 1.387 1_545 S
H189 C185 0.950 . S
H190 C187 0.950 . S
C191 C182 1.390 . S
C191 H184 0.950 . S
C191 C188 1.387 1_565 S
C192 C193 1.387 1_655 S
C192 H196 0.950 . S
C192 C201 1.390 . S
C193 C192 1.387 1_455 S
C193 C195 1.387 . S
H194 C201 0.950 . S
C195 C193 1.387 . S
C195 C197 1.390 . S
C195 H199 0.950 . S
H196 C192 0.950 . S
C197 C195 1.390 . S
C197 C198 1.387 1_455 S
C197 H200 0.950 . S
C198 C197 1.387 1_655 S
C198 C201 1.387 . S
H199 C195 0.950 . S
H200 C197 0.950 . S
C201 C192 1.390 . S
C201 H194 0.950 . S
C201 C198 1.387 . S
C202 C203 1.387 . S
C202 H206 0.950 . S
C202 C211 1.390 . S
C203 C202 1.387 . S
C203 C205 1.387 1_565 S
H204 C211 0.950 . S
C205 C203 1.387 1_545 S
C205 C207 1.390 . S
C205 H209 0.950 . S
H206 C202 0.950 . S
C207 C205 1.390 . S
C207 C208 1.387 . S
C207 H210 0.950 . S
C208 C207 1.387 . S
C208 C211 1.387 1_545 S
H209 C205 0.950 . S
H210 C207 0.950 . S
C211 C202 1.390 . S
C211 H204 0.950 . S
C211 C208 1.387 1_565 S
C212 C213 1.387 . S
C212 H216 0.950 . S
C212 C221 1.390 . S
C213 C212 1.387 . S
C213 C215 1.387 1_554 S
H214 C221 0.950 . S
C215 C213 1.387 1_556 S
C215 C217 1.390 . S
C215 H219 0.950 . S
H216 C212 0.950 . S
C217 C215 1.390 . S
C217 C218 1.387 . S
C217 H220 0.950 . S
C218 C217 1.387 . S
C218 C221 1.387 1_556 S
H219 C215 0.950 . S
H220 C217 0.950 . S
C221 C212 1.390 . S
C221 H214 0.950 . S
C221 C218 1.387 1_554 S
C222 C223 1.387 1_545 S
C222 H226 0.950 . S
C222 C231 1.390 1_456 S
C223 C222 1.387 1_565 S
C223 C225 1.387 . S
H224 C231 0.950 . S
C225 C223 1.387 . S
C225 C227 1.390 1_456 S
C225 H229 0.950 . S
H226 C222 0.950 . S
C227 C225 1.390 1_654 S
C227 C228 1.387 1_565 S
C227 H230 0.950 . S
C228 C227 1.387 1_545 S
C228 C231 1.387 . S
H229 C225 0.950 . S
H230 C227 0.950 . S
C231 C222 1.390 1_654 S
C231 H224 0.950 . S
C231 C228 1.387 . S
C232 C233 1.387 . S
C232 H236 0.950 . S
C232 C241 1.390 . S
C233 C232 1.387 . S
C233 C235 1.387 . S
H234 C241 0.950 . S
C235 C233 1.387 . S
C235 C237 1.390 . S
C235 H239 0.950 . S
H236 C232 0.950 . S
C237 C235 1.390 . S
C237 C238 1.387 . S
C237 H240 0.950 . S
C238 C237 1.387 . S
C238 C241 1.387 . S
H239 C235 0.950 . S
H240 C237 0.950 . S
C241 C232 1.390 . S
C241 H234 0.950 . S
C241 C238 1.387 . S
C242 C243 1.387 . S
C242 H246 0.950 . S
C242 C251 1.390 . S
C243 C242 1.387 . S
C243 C245 1.387 . S
H244 C251 0.950 . S
C245 C243 1.387 . S
C245 C247 1.390 . S
C245 H249 0.950 . S
H246 C242 0.950 . S
C247 C245 1.390 . S
C247 C248 1.387 . S
C247 H250 0.950 . S
C248 C247 1.387 . S
C248 C251 1.387 . S
H249 C245 0.950 . S
H250 C247 0.950 . S
C251 C242 1.390 . S
C251 H244 0.950 . S
C251 C248 1.387 . S
C252 C253 1.387 . S
C252 H256 0.950 . S
C252 C261 1.390 . S
C253 C252 1.387 . S
C253 C255 1.387 . S
H254 C261 0.950 . S
C255 C253 1.387 . S
C255 C257 1.390 . S
C255 H259 0.950 . S
H256 C252 0.950 . S
C257 C255 1.390 . S
C257 C258 1.387 . S
C257 H260 0.950 . S
C258 C257 1.387 . S
C258 C261 1.387 . S
H259 C255 0.950 . S
H260 C257 0.950 . S
C261 C252 1.390 . S
C261 H254 0.950 . S
C261 C258 1.387 . S
C262 C263 1.387 . S
C262 H266 0.950 . S
C262 C271 1.390 . S
C263 C262 1.387 . S
C263 C265 1.387 . S
H264 C271 0.950 . S
C265 C263 1.387 . S
C265 C267 1.390 . S
C265 H269 0.950 . S
H266 C262 0.950 . S
C267 C265 1.390 . S
C267 C268 1.387 . S
C267 H270 0.950 . S
C268 C267 1.387 . S
C268 C271 1.387 . S
H269 C265 0.950 . S
H270 C267 0.950 . S
C271 C262 1.390 . S
C271 H264 0.950 . S
C271 C268 1.387 . S
C113 C5 1.442 . S
C118 C37 1.447 . S
C123 C51 1.447 1_455 S
C128 C19 1.443 . S
C133 C33 1.443 . S
C138 C9 1.447 1_655 S
C143 C47 1.443 . S
C148 C23 1.447 . S
C153 C93 1.447 . S
C158 C61 1.442 . S
C163 C75 1.442 . S
C168 C107 1.447 1_655 S
C173 C89 1.442 . S
C178 C65 1.447 1_455 S
C183 C103 1.443 . S
C188 C79 1.447 . S
C193 C11 1.510 . S
C198 C67 1.510 . S
C203 C25 1.510 . S
C208 C81 1.510 . S
C213 C39 1.510 . S
C218 C95 1.510 . S
C223 C109 1.510 . S
C228 C53 1.510 . S
C233 C0 1.507 . S
C238 C14 1.507 . S
C243 C42 1.507 . S
C248 C28 1.507 . S
C253 C70 1.506 . S
C258 C56 1.506 . S
C263 C84 1.507 . S
C268 C98 1.507 . S
