# Generated by pormake.
# Topology snx, (6)-cn, num edge types: 1
# Building blocks:
#     Node 0, Type 0, BuildingBlock: IZENUY_clean_sbu_0, # of connection points: 6
#     Node 1, Type 0, BuildingBlock: IZENUY_clean_sbu_0, # of connection points: 6
#     Node 2, Type 0, BuildingBlock: IZENUY_clean_sbu_0, # of connection points: 6
#     Node 3, Type 0, BuildingBlock: IZENUY_clean_sbu_0, # of connection points: 6
#     Node 4, Type 0, BuildingBlock: IZENUY_clean_sbu_0, # of connection points: 6
#     Node 5, Type 0, BuildingBlock: IZENUY_clean_sbu_0, # of connection points: 6
#     Edge 6, Type (0, 0), BuildingBlock: AJUNOK_clean_linker_0, # of connection points: 2
#     Edge 7, Type (0, 0), BuildingBlock: AJUNOK_clean_linker_0, # of connection points: 2
#     Edge 8, Type (0, 0), BuildingBlock: AJUNOK_clean_linker_0, # of connection points: 2
#     Edge 9, Type (0, 0), BuildingBlock: AJUNOK_clean_linker_0, # of connection points: 2
#     Edge 10, Type (0, 0), BuildingBlock: AJUNOK_clean_linker_0, # of connection points: 2
#     Edge 11, Type (0, 0), BuildingBlock: AJUNOK_clean_linker_0, # of connection points: 2
#     Edge 12, Type (0, 0), BuildingBlock: AJUNOK_clean_linker_0, # of connection points: 2
#     Edge 13, Type (0, 0), BuildingBlock: AJUNOK_clean_linker_0, # of connection points: 2
#     Edge 14, Type (0, 0), BuildingBlock: AJUNOK_clean_linker_0, # of connection points: 2
#     Edge 15, Type (0, 0), BuildingBlock: AJUNOK_clean_linker_0, # of connection points: 2
#     Edge 16, Type (0, 0), BuildingBlock: AJUNOK_clean_linker_0, # of connection points: 2
#     Edge 17, Type (0, 0), BuildingBlock: AJUNOK_clean_linker_0, # of connection points: 2
#     Edge 18, Type (0, 0), BuildingBlock: AJUNOK_clean_linker_0, # of connection points: 2
#     Edge 19, Type (0, 0), BuildingBlock: AJUNOK_clean_linker_0, # of connection points: 2
#     Edge 20, Type (0, 0), BuildingBlock: AJUNOK_clean_linker_0, # of connection points: 2
#     Edge 21, Type (0, 0), BuildingBlock: AJUNOK_clean_linker_0, # of connection points: 2
#     Edge 22, Type (0, 0), BuildingBlock: AJUNOK_clean_linker_0, # of connection points: 2
#     Edge 23, Type (0, 0), BuildingBlock: AJUNOK_clean_linker_0, # of connection points: 2
# Relax obj value: 0.026
# Max RMSD: 0.069
# Mean RMSD: 0.067
data_MOF--net-snx--node1-IZENUY_clean_sbu_0--edge1-AJUNOK_clean_linker_0
_symmetry_space_group_name_H-M    P1
_symmetry_Int_Tables_number       1
_symmetry_cell_setting            triclinic
loop_
_symmetry_equiv_pos_as_xyz
'x, y, z'
_cell_length_a     26.774885
_cell_length_b     26.746172
_cell_length_c     15.828075
_cell_angle_alpha  89.997258
_cell_angle_beta   90.315252
_cell_angle_gamma 120.0047
loop_
_atom_site_label
_atom_site_type_symbol
_atom_site_fract_x
_atom_site_fract_y
_atom_site_fract_z
_atom_type_partial_charge
Fe0 Fe 0.18019 0.31871 0.28904 0.0
Fe1 Fe 0.23881 0.4327 0.38805 0.0
O2 O 0.21795 0.3951 0.29033 0.0
Fe3 Fe 0.23503 0.43384 0.19397 0.0
O4 O 0.15937 0.40076 0.16379 0.0
O5 O 0.1383 0.31207 0.19336 0.0
O6 O 0.12132 0.3155 0.34987 0.0
C7 C 0.12763 0.33813 0.42197 0.0
C8 C 0.25249 0.33992 0.15618 0.0
O9 O 0.17638 0.37821 0.44654 0.0
C10 C 0.3351 0.49856 0.28361 0.0
O11 O 0.21527 0.31123 0.38448 0.0
O12 O 0.28167 0.39986 0.4166 0.0
O13 O 0.24385 0.3803 0.13317 0.0
O14 O 0.23654 0.3169 0.22794 0.0
C15 C 0.20467 0.49919 0.30188 0.0
O16 O 0.30498 0.49374 0.34759 0.0
O17 O 0.31195 0.4698 0.21721 0.0
C18 C 0.26201 0.34618 0.42147 0.0
O19 O 0.1977 0.4687 0.36644 0.0
O20 O 0.22924 0.49423 0.23691 0.0
C21 C 0.12671 0.34695 0.15603 0.0
Fe22 Fe 0.82297 0.22533 0.68541 0.0
Fe23 Fe 0.82666 0.2298 0.87969 0.0
O24 O 0.84294 0.20768 0.78318 0.0
Fe25 Fe 0.87919 0.16767 0.78483 0.0
O26 O 0.93881 0.22282 0.72525 0.0
O27 O 0.88593 0.23327 0.62774 0.0
O28 O 0.86446 0.30242 0.70775 0.0
C29 C 0.85758 0.32595 0.77236 0.0
C30 C 0.79847 0.11514 0.65086 0.0
O31 O 0.83329 0.29642 0.83738 0.0
C32 C 0.8062 0.11739 0.91685 0.0
O33 O 0.75667 0.22037 0.72573 0.0
O34 O 0.74983 0.18982 0.85645 0.0
O35 O 0.84449 0.12593 0.68891 0.0
O36 O 0.77959 0.14978 0.6555 0.0
C37 C 0.93514 0.25008 0.91557 0.0
O38 O 0.81682 0.16701 0.94018 0.0
O39 O 0.82173 0.10992 0.84503 0.0
C40 C 0.72678 0.19638 0.79067 0.0
O41 O 0.90258 0.27147 0.90937 0.0
O42 O 0.92103 0.20218 0.88076 0.0
C43 C 0.93416 0.24117 0.65392 0.0
Fe44 Fe 0.73074 0.86959 0.28182 0.0
Fe45 Fe 0.61699 0.81238 0.18175 0.0
O46 O 0.65443 0.83145 0.27966 0.0
Fe47 Fe 0.61564 0.8122 0.37556 0.0
O48 O 0.64792 0.88727 0.40787 0.0
O49 O 0.73681 0.90933 0.37966 0.0
O50 O 0.73354 0.92964 0.2242 0.0
C51 C 0.71071 0.925 0.15247 0.0
C52 C 0.70875 0.79349 0.4103 0.0
O53 O 0.67138 0.87647 0.12554 0.0
C54 C 0.5509 0.71375 0.28328 0.0
O55 O 0.73878 0.83729 0.18422 0.0
O56 O 0.65038 0.77052 0.15099 0.0
O57 O 0.66944 0.803 0.43506 0.0
O58 O 0.73262 0.81165 0.33962 0.0
C59 C 0.55013 0.84425 0.27075 0.0
O60 O 0.5561 0.74498 0.22012 0.0
O61 O 0.58057 0.7358 0.34937 0.0
C62 C 0.70411 0.79106 0.14613 0.0
O63 O 0.58057 0.85268 0.20589 0.0
O64 O 0.55496 0.818 0.33397 0.0
C65 C 0.70154 0.92088 0.41545 0.0
Fe66 Fe 0.88052 0.72221 0.78443 0.0
Fe67 Fe 0.82382 0.60672 0.87885 0.0
O68 O 0.84209 0.64566 0.78249 0.0
Fe69 Fe 0.82254 0.60822 0.68437 0.0
O70 O 0.8866 0.66254 0.62779 0.0
O71 O 0.93986 0.7249 0.72612 0.0
O72 O 0.921 0.72859 0.88174 0.0
C73 C 0.93244 0.69341 0.91839 0.0
C74 C 0.80129 0.6957 0.64869 0.0
O75 O 0.89895 0.63978 0.91094 0.0
C76 C 0.72472 0.54141 0.7884 0.0
O77 O 0.8238 0.72456 0.84278 0.0
O78 O 0.81322 0.65984 0.93762 0.0
O79 O 0.7812 0.64192 0.65236 0.0
O80 O 0.84708 0.73038 0.68782 0.0
C81 C 0.85507 0.54105 0.77263 0.0
O82 O 0.7475 0.57062 0.85429 0.0
O83 O 0.75487 0.54731 0.72363 0.0
C84 C 0.80386 0.69929 0.91205 0.0
O85 O 0.8305 0.54636 0.83737 0.0
O86 O 0.86256 0.57157 0.70809 0.0
C87 C 0.93507 0.70221 0.65446 0.0
Fe88 Fe 0.1808 0.87222 0.28819 0.0
Fe89 Fe 0.23404 0.81098 0.19229 0.0
O90 O 0.21811 0.83313 0.28919 0.0
Fe91 Fe 0.23926 0.81607 0.38646 0.0
O92 O 0.17671 0.80754 0.44524 0.0
O93 O 0.12187 0.81682 0.34959 0.0
O94 O 0.13824 0.83693 0.19252 0.0
C95 C 0.12531 0.78937 0.15725 0.0
C96 C 0.26213 0.92546 0.42135 0.0
O97 O 0.15822 0.76856 0.1643 0.0
C98 C 0.33476 0.84531 0.2784 0.0
O99 O 0.23769 0.93024 0.22741 0.0
O100 O 0.2428 0.87344 0.13182 0.0
O101 O 0.2817 0.89138 0.41701 0.0
O102 O 0.21621 0.91478 0.38318 0.0
C103 C 0.2047 0.71537 0.30004 0.0
O104 O 0.31092 0.85165 0.21356 0.0
O105 O 0.30574 0.8219 0.34441 0.0
C106 C 0.25427 0.92313 0.15628 0.0
O107 O 0.22846 0.74465 0.23456 0.0
O108 O 0.19821 0.7391 0.36455 0.0
C109 C 0.12817 0.7998 0.42127 0.0
Fe110 Fe 0.4455 0.22699 0.69717 0.0
Fe111 Fe 0.4437 0.22757 0.89138 0.0
O112 O 0.40627 0.20738 0.79306 0.0
Fe113 Fe 0.32987 0.16783 0.78979 0.0
O114 O 0.32926 0.10886 0.7313 0.0
O115 O 0.39254 0.1641 0.63696 0.0
O116 O 0.48094 0.1863 0.72466 0.0
C117 C 0.50995 0.19414 0.79164 0.0
C118 C 0.35911 0.24892 0.65651 0.0
O119 O 0.50471 0.22087 0.85395 0.0
C120 C 0.3476 0.24301 0.9198 0.0
O121 O 0.50587 0.29363 0.73818 0.0
O122 O 0.47975 0.3042 0.8649 0.0
O123 O 0.32386 0.20213 0.69259 0.0
O124 O 0.41279 0.26916 0.66397 0.0
C125 C 0.35747 0.11757 0.92701 0.0
O126 O 0.38904 0.23715 0.94623 0.0
O127 O 0.32473 0.22354 0.84844 0.0
C128 C 0.50968 0.32561 0.79937 0.0
O129 O 0.41093 0.15306 0.92602 0.0
O130 O 0.32214 0.12659 0.88589 0.0
C131 C 0.3533 0.11508 0.6608 0.0
C132 C 0.19259 0.57489 0.22872 0.0
C133 C 0.19324 0.54807 0.3049 0.0
C134 C 0.19269 0.62717 0.22822 0.0
C135 C 0.19342 0.65512 0.30388 0.0
H136 H 0.19438 0.55657 0.16853 0.0
H137 H 0.19452 0.64693 0.16769 0.0
S138 S 0.18717 0.59915 0.52066 0.0
N139 N 0.18839 0.5503 0.45826 0.0
N140 N 0.18852 0.6489 0.45739 0.0
C141 C 0.18955 0.6267 0.38063 0.0
C142 C 0.18947 0.57311 0.38113 0.0
C143 C 0.63943 0.18584 0.71627 0.0
C144 C 0.66647 0.18482 0.79245 0.0
C145 C 0.58659 0.18477 0.71599 0.0
C146 C 0.55891 0.1831 0.79196 0.0
H147 H 0.6603 0.1898 0.65621 0.0
H148 H 0.56915 0.18866 0.65602 0.0
S149 S 0.60626 0.17014 1.00771 0.0
N150 N 0.65758 0.17467 0.94536 0.0
N151 N 0.5584 0.17298 0.9447 0.0
C152 C 0.58314 0.17766 0.86815 0.0
C153 C 0.63681 0.17834 0.86846 0.0
C154 C 0.41988 0.57603 0.20692 0.0
C155 C 0.39551 0.54656 0.28247 0.0
C156 C 0.47211 0.6285 0.20749 0.0
C157 C 0.50218 0.65331 0.2835 0.0
H158 H 0.39685 0.56042 0.14756 0.0
H159 H 0.48766 0.651 0.14806 0.0
S160 S 0.4615 0.58708 0.49639 0.0
N161 N 0.40882 0.54153 0.43371 0.0
N162 N 0.50724 0.63987 0.43485 0.0
C163 C 0.4807 0.62155 0.35849 0.0
C164 C 0.42725 0.56832 0.35794 0.0
C165 C 0.86663 0.46482 0.84545 0.0
C166 C 0.86675 0.4923 0.76962 0.0
C167 C 0.86754 0.41304 0.8453 0.0
C168 C 0.86848 0.38615 0.76933 0.0
H169 H 0.86359 0.48227 0.90575 0.0
H170 H 0.86506 0.39273 0.90557 0.0
S171 S 0.87729 0.4443 0.55352 0.0
N172 N 0.87421 0.49195 0.61637 0.0
N173 N 0.87574 0.39418 0.61618 0.0
C174 C 0.87306 0.41526 0.69309 0.0
C175 C 0.87221 0.46839 0.69323 0.0
C176 C 0.47444 0.85413 0.34681 0.0
C177 C 0.50147 0.85595 0.26993 0.0
C178 C 0.42231 0.85417 0.34878 0.0
C179 C 0.39479 0.85615 0.27396 0.0
H180 H 0.49246 0.85028 0.40628 0.0
H181 H 0.40236 0.85031 0.40962 0.0
S182 S 0.4519 0.87018 0.05649 0.0
N183 N 0.50017 0.86637 0.11735 0.0
N184 N 0.40195 0.86671 0.12088 0.0
C185 C 0.42355 0.86264 0.19683 0.0
C186 C 0.47694 0.86252 0.19486 0.0
C187 C 0.63985 0.46637 0.86957 0.0
C188 C 0.66456 0.49256 0.79175 0.0
C189 C 0.58721 0.41402 0.87266 0.0
C190 C 0.55752 0.38627 0.79804 0.0
H191 H 0.66284 0.48456 0.92828 0.0
H192 H 0.57165 0.39354 0.93337 0.0
S193 S 0.59771 0.44313 0.57993 0.0
N194 N 0.65084 0.49115 0.63966 0.0
N195 N 0.55222 0.39324 0.64534 0.0
C196 C 0.57932 0.41464 0.72061 0.0
C197 C 0.63276 0.46763 0.71748 0.0
C198 C 0.33308 0.26944 0.06557 0.0
C199 C 0.32245 0.268 0.97795 0.0
C200 C 0.30981 0.29217 0.12278 0.0
C201 C 0.27592 0.31544 0.09461 0.0
H202 H 0.35917 0.25227 0.0906 0.0
H203 H 0.3191 0.29223 0.18952 0.0
S204 S 0.23364 0.32093 0.87238 0.0
N205 N 0.27425 0.29069 0.86626 0.0
N206 N 0.23138 0.33442 0.97366 0.0
C207 C 0.26474 0.31428 1.00732 0.0
C208 C 0.2877 0.29026 0.94908 0.0
C209 C 0.97544 0.26534 0.50833 0.0
C210 C 0.98424 0.26679 0.59636 0.0
C211 C 1.02198 0.28795 0.45225 0.0
C212 C 0.07909 0.31381 0.48214 0.0
H213 H 0.93219 0.24586 0.48229 0.0
H214 H 1.01318 0.28573 0.38504 0.0
S215 S 0.12554 0.32846 0.7068 0.0
N216 N 0.05451 0.29591 0.71067 0.0
N217 N 0.14196 0.33896 0.60554 0.0
C218 C 0.08856 0.31581 0.57003 0.0
C219 C 0.04116 0.29212 0.62703 0.0
C220 C 0.75203 1.01186 0.94947 0.0
C221 C 0.78156 0.06928 0.97831 0.0
C222 C 0.72866 0.96563 1.00636 0.0
C223 C 0.73476 0.97499 0.09437 0.0
H224 H 0.74656 1.00247 0.88237 0.0
H225 H 0.70639 0.92216 0.98093 0.0
S226 S 0.80904 0.1172 0.20265 0.0
N227 N 0.81588 0.13305 0.10104 0.0
N228 N 0.77247 0.04604 0.20765 0.0
C229 C 0.7644 0.03218 0.12414 0.0
C230 C 0.78758 0.07933 0.06624 0.0
C231 C 0.73959 0.7221 0.44814 0.0
C232 C 0.73268 0.76905 0.47092 0.0
C233 C 0.76002 0.69709 0.50702 0.0
C234 C 0.77566 0.71941 0.58957 0.0
H235 H 0.72832 0.70412 0.38495 0.0
H236 H 0.76492 0.661 0.48728 0.0
S237 S 0.76665 0.84265 0.67926 0.0
N238 N 0.74276 0.83674 0.58126 0.0
N239 N 0.78321 0.79123 0.69065 0.0
C240 C 0.7695 0.76671 0.61254 0.0
C241 C 0.74742 0.79115 0.5535 0.0
C242 C 1.00702 0.77348 1.00739 0.0
C243 C 0.98181 0.71602 0.97872 0.0
C244 C 0.05261 0.79621 0.06574 0.0
C245 C 0.07566 0.76278 0.09747 0.0
H246 H 0.9911 0.80131 0.9853 0.0
H247 H 0.07033 0.84076 0.08526 0.0
S248 S 1.02591 0.60992 0.04226 0.0
N249 N 0.98362 0.62605 0.9864 0.0
N250 N 0.06982 0.66902 0.09572 0.0
C251 C 0.05122 0.70529 0.06913 0.0
C252 C 1.00422 0.68187 1.01003 0.0
C253 C 0.31927 1.01185 0.62405 0.0
C254 C 0.33012 0.06692 0.59966 0.0
C255 C 0.29935 0.96651 0.56502 0.0
C256 C 0.28822 0.9746 0.48059 0.0
H257 H 0.32697 1.00405 0.6887 0.0
H258 H 0.29111 0.9245 0.58602 0.0
S259 S 0.30768 0.1099 0.38617 0.0
N260 N 0.32793 0.12685 0.48575 0.0
N261 N 0.28846 0.0411 0.37605 0.0
C262 C 0.29815 0.02917 0.45595 0.0
C263 C 0.31968 0.07553 0.51521 0.0
C264 C 0.77523 0.80316 0.03596 0.0
C265 C 0.72733 0.76617 0.08546 0.0
C266 C 0.79869 0.78108 0.97806 0.0
C267 C 0.77605 0.72128 0.96943 0.0
H268 H 0.79447 0.84958 0.0415 0.0
H269 H 0.83573 0.81107 0.94139 0.0
S270 S 0.65045 0.60623 0.0834 0.0
N271 N 0.65704 0.66701 0.12049 0.0
N272 N 0.70262 0.62537 1.01374 0.0
C273 C 0.72813 0.68381 1.01837 0.0
C274 C 0.7033 0.7063 0.0758 0.0
C275 C 0.97614 0.71982 0.50859 0.0
C276 C 0.98513 0.72674 0.59666 0.0
C277 C 1.02252 0.74411 0.45219 0.0
C278 C 0.07972 0.7753 0.48173 0.0
H279 H 0.93283 0.69617 0.48273 0.0
H280 H 1.01353 0.73782 0.385 0.0
S281 S 0.12681 0.80612 0.70624 0.0
N282 N 0.05579 0.76751 0.71056 0.0
N283 N 0.14292 0.81252 0.60484 0.0
C284 C 0.08941 0.78233 0.56963 0.0
C285 C 0.04217 0.75827 0.62698 0.0
C286 C 0.3229 0.02731 0.12564 0.0
C287 C 0.28155 0.97198 0.09675 0.0
C288 C 0.34947 0.07406 0.06957 0.0
C289 C 0.33423 0.06718 0.98346 0.0
H290 H 0.33503 0.03437 0.19185 0.0
H291 H 0.38069 0.11618 0.09416 0.0
S292 S 0.22811 0.93162 0.87643 0.0
N293 N 0.22725 0.91303 0.97616 0.0
N294 N 0.27557 1.00134 0.87184 0.0
C295 C 0.29295 1.01225 0.95394 0.0
C296 C 0.26703 0.96448 1.01034 0.0
C297 C 0.27977 0.24252 0.5652 0.0
C298 C 0.33643 0.27562 0.59659 0.0
C299 C 0.25675 0.26559 0.50795 0.0
C300 C 0.28908 0.32308 0.48005 0.0
H301 H 0.2528 0.198 0.58437 0.0
H302 H 0.21279 0.23808 0.48631 0.0
S303 S 0.43982 0.42832 0.54279 0.0
N304 N 0.42463 0.36904 0.59523 0.0
N305 N 0.38119 0.41264 0.4877 0.0
C306 C 0.3459 0.35685 0.51078 0.0
C307 C 0.3696 0.33308 0.56883 0.0
C308 C 0.99966 0.32643 1.02087 0.0
C309 C 0.9863 0.27669 0.97307 0.0
C310 C 0.04585 0.34988 0.07898 0.0
C311 C 0.07974 0.32394 0.09226 0.0
H312 H 0.97387 0.34707 1.01429 0.0
H313 H 0.05418 0.38768 0.1152 0.0
S314 S 0.06757 0.19736 0.97721 0.0
N315 N 1.01477 0.20556 0.93859 0.0
N316 N 0.10009 0.24891 0.04845 0.0
C317 C 0.0681 0.27543 0.04325 0.0
C318 C 1.02183 0.25204 0.98351 0.0
C319 C 0.78007 0.99269 0.50887 0.0
C320 C 0.72406 0.97018 0.47548 0.0
C321 C 0.80302 0.0388 0.5661 0.0
C322 C 0.77133 0.0651 0.59193 0.0
H323 H 0.80653 0.97425 0.49134 0.0
H324 H 0.84646 0.05432 0.58939 0.0
S325 S 0.62236 0.0225 0.52339 0.0
N326 N 0.63702 0.9774 0.47279 0.0
N327 N 0.68047 0.06473 0.58005 0.0
C328 C 0.71514 0.0431 0.55915 0.0
C329 C 0.69144 0.9955 0.50121 0.0
loop_
_geom_bond_atom_site_label_1
_geom_bond_atom_site_label_2
_geom_bond_distance
_geom_bond_site_symmetry_2
_ccdc_geom_bond_type
Fe0 O2 1.918 . S
Fe0 O5 1.997 . S
Fe0 O6 2.002 . S
Fe0 O11 1.976 . S
Fe0 O14 1.996 . S
Fe1 O2 1.918 . S
Fe1 O9 1.997 . S
Fe1 O12 1.996 . S
Fe1 O16 1.976 . S
Fe1 O19 2.002 . S
O2 Fe0 1.918 . S
O2 Fe1 1.918 . S
O2 Fe3 1.918 . S
Fe3 O2 1.918 . S
Fe3 O4 2.002 . S
Fe3 O13 1.976 . S
Fe3 O17 1.996 . S
Fe3 O20 1.997 . S
O4 Fe3 2.002 . S
O4 C21 1.295 . S
O5 Fe0 1.997 . S
O5 C21 1.235 . S
O6 Fe0 2.002 . S
O6 C7 1.295 . S
C7 O6 1.295 . S
C7 O9 1.235 . S
C8 O13 1.287 . S
C8 O14 1.255 . S
O9 Fe1 1.997 . S
O9 C7 1.235 . S
C10 O16 1.287 . S
C10 O17 1.255 . S
O11 Fe0 1.976 . S
O11 C18 1.287 . S
O12 Fe1 1.996 . S
O12 C18 1.255 . S
O13 Fe3 1.976 . S
O13 C8 1.287 . S
O14 Fe0 1.996 . S
O14 C8 1.255 . S
C15 O19 1.295 . S
C15 O20 1.235 . S
O16 Fe1 1.976 . S
O16 C10 1.287 . S
O17 Fe3 1.996 . S
O17 C10 1.255 . S
C18 O11 1.287 . S
C18 O12 1.255 . S
O19 Fe1 2.002 . S
O19 C15 1.295 . S
O20 Fe3 1.997 . S
O20 C15 1.235 . S
C21 O4 1.295 . S
C21 O5 1.235 . S
Fe22 O24 1.918 . S
Fe22 O27 1.997 . S
Fe22 O28 2.002 . S
Fe22 O33 1.976 . S
Fe22 O36 1.996 . S
Fe23 O24 1.918 . S
Fe23 O31 1.997 . S
Fe23 O34 1.996 . S
Fe23 O38 1.976 . S
Fe23 O41 2.002 . S
O24 Fe22 1.918 . S
O24 Fe23 1.918 . S
O24 Fe25 1.918 . S
Fe25 O24 1.918 . S
Fe25 O26 2.002 . S
Fe25 O35 1.976 . S
Fe25 O39 1.996 . S
Fe25 O42 1.997 . S
O26 Fe25 2.002 . S
O26 C43 1.295 . S
O27 Fe22 1.997 . S
O27 C43 1.235 . S
O28 Fe22 2.002 . S
O28 C29 1.295 . S
C29 O28 1.295 . S
C29 O31 1.235 . S
C30 O35 1.287 . S
C30 O36 1.255 . S
O31 Fe23 1.997 . S
O31 C29 1.235 . S
C32 O38 1.287 . S
C32 O39 1.255 . S
O33 Fe22 1.976 . S
O33 C40 1.287 . S
O34 Fe23 1.996 . S
O34 C40 1.255 . S
O35 Fe25 1.976 . S
O35 C30 1.287 . S
O36 Fe22 1.996 . S
O36 C30 1.255 . S
C37 O41 1.295 . S
C37 O42 1.235 . S
O38 Fe23 1.976 . S
O38 C32 1.287 . S
O39 Fe25 1.996 . S
O39 C32 1.255 . S
C40 O33 1.287 . S
C40 O34 1.255 . S
O41 Fe23 2.002 . S
O41 C37 1.295 . S
O42 Fe25 1.997 . S
O42 C37 1.235 . S
C43 O26 1.295 . S
C43 O27 1.235 . S
Fe44 O46 1.918 . S
Fe44 O49 1.997 . S
Fe44 O50 2.002 . S
Fe44 O55 1.976 . S
Fe44 O58 1.996 . S
Fe45 O46 1.918 . S
Fe45 O53 1.997 . S
Fe45 O56 1.996 . S
Fe45 O60 1.976 . S
Fe45 O63 2.002 . S
O46 Fe44 1.918 . S
O46 Fe45 1.918 . S
O46 Fe47 1.918 . S
Fe47 O46 1.918 . S
Fe47 O48 2.002 . S
Fe47 O57 1.976 . S
Fe47 O61 1.996 . S
Fe47 O64 1.997 . S
O48 Fe47 2.002 . S
O48 C65 1.295 . S
O49 Fe44 1.997 . S
O49 C65 1.235 . S
O50 Fe44 2.002 . S
O50 C51 1.295 . S
C51 O50 1.295 . S
C51 O53 1.235 . S
C52 O57 1.287 . S
C52 O58 1.255 . S
O53 Fe45 1.997 . S
O53 C51 1.235 . S
C54 O60 1.287 . S
C54 O61 1.255 . S
O55 Fe44 1.976 . S
O55 C62 1.287 . S
O56 Fe45 1.996 . S
O56 C62 1.255 . S
O57 Fe47 1.976 . S
O57 C52 1.287 . S
O58 Fe44 1.996 . S
O58 C52 1.255 . S
C59 O63 1.295 . S
C59 O64 1.235 . S
O60 Fe45 1.976 . S
O60 C54 1.287 . S
O61 Fe47 1.996 . S
O61 C54 1.255 . S
C62 O55 1.287 . S
C62 O56 1.255 . S
O63 Fe45 2.002 . S
O63 C59 1.295 . S
O64 Fe47 1.997 . S
O64 C59 1.235 . S
C65 O48 1.295 . S
C65 O49 1.235 . S
Fe66 O68 1.918 . S
Fe66 O71 1.997 . S
Fe66 O72 2.002 . S
Fe66 O77 1.976 . S
Fe66 O80 1.996 . S
Fe67 O68 1.918 . S
Fe67 O75 1.997 . S
Fe67 O78 1.996 . S
Fe67 O82 1.976 . S
Fe67 O85 2.002 . S
O68 Fe66 1.918 . S
O68 Fe67 1.918 . S
O68 Fe69 1.918 . S
Fe69 O68 1.918 . S
Fe69 O70 2.002 . S
Fe69 O79 1.976 . S
Fe69 O83 1.996 . S
Fe69 O86 1.997 . S
O70 Fe69 2.002 . S
O70 C87 1.295 . S
O71 Fe66 1.997 . S
O71 C87 1.235 . S
O72 Fe66 2.002 . S
O72 C73 1.295 . S
C73 O72 1.295 . S
C73 O75 1.235 . S
C74 O79 1.287 . S
C74 O80 1.255 . S
O75 Fe67 1.997 . S
O75 C73 1.235 . S
C76 O82 1.287 . S
C76 O83 1.255 . S
O77 Fe66 1.976 . S
O77 C84 1.287 . S
O78 Fe67 1.996 . S
O78 C84 1.255 . S
O79 Fe69 1.976 . S
O79 C74 1.287 . S
O80 Fe66 1.996 . S
O80 C74 1.255 . S
C81 O85 1.295 . S
C81 O86 1.235 . S
O82 Fe67 1.976 . S
O82 C76 1.287 . S
O83 Fe69 1.996 . S
O83 C76 1.255 . S
C84 O77 1.287 . S
C84 O78 1.255 . S
O85 Fe67 2.002 . S
O85 C81 1.295 . S
O86 Fe69 1.997 . S
O86 C81 1.235 . S
C87 O70 1.295 . S
C87 O71 1.235 . S
Fe88 O90 1.918 . S
Fe88 O93 1.997 . S
Fe88 O94 2.002 . S
Fe88 O99 1.976 . S
Fe88 O102 1.996 . S
Fe89 O90 1.918 . S
Fe89 O97 1.997 . S
Fe89 O100 1.996 . S
Fe89 O104 1.976 . S
Fe89 O107 2.002 . S
O90 Fe88 1.918 . S
O90 Fe89 1.918 . S
O90 Fe91 1.918 . S
Fe91 O90 1.918 . S
Fe91 O92 2.002 . S
Fe91 O101 1.976 . S
Fe91 O105 1.996 . S
Fe91 O108 1.997 . S
O92 Fe91 2.002 . S
O92 C109 1.295 . S
O93 Fe88 1.997 . S
O93 C109 1.235 . S
O94 Fe88 2.002 . S
O94 C95 1.295 . S
C95 O94 1.295 . S
C95 O97 1.235 . S
C96 O101 1.287 . S
C96 O102 1.255 . S
O97 Fe89 1.997 . S
O97 C95 1.235 . S
C98 O104 1.287 . S
C98 O105 1.255 . S
O99 Fe88 1.976 . S
O99 C106 1.287 . S
O100 Fe89 1.996 . S
O100 C106 1.255 . S
O101 Fe91 1.976 . S
O101 C96 1.287 . S
O102 Fe88 1.996 . S
O102 C96 1.255 . S
C103 O107 1.295 . S
C103 O108 1.235 . S
O104 Fe89 1.976 . S
O104 C98 1.287 . S
O105 Fe91 1.996 . S
O105 C98 1.255 . S
C106 O99 1.287 . S
C106 O100 1.255 . S
O107 Fe89 2.002 . S
O107 C103 1.295 . S
O108 Fe91 1.997 . S
O108 C103 1.235 . S
C109 O92 1.295 . S
C109 O93 1.235 . S
Fe110 O112 1.918 . S
Fe110 O115 1.997 . S
Fe110 O116 2.002 . S
Fe110 O121 1.976 . S
Fe110 O124 1.996 . S
Fe111 O112 1.918 . S
Fe111 O119 1.997 . S
Fe111 O122 1.996 . S
Fe111 O126 1.976 . S
Fe111 O129 2.002 . S
O112 Fe110 1.918 . S
O112 Fe111 1.918 . S
O112 Fe113 1.918 . S
Fe113 O112 1.918 . S
Fe113 O114 2.002 . S
Fe113 O123 1.976 . S
Fe113 O127 1.996 . S
Fe113 O130 1.997 . S
O114 Fe113 2.002 . S
O114 C131 1.295 . S
O115 Fe110 1.997 . S
O115 C131 1.235 . S
O116 Fe110 2.002 . S
O116 C117 1.295 . S
C117 O116 1.295 . S
C117 O119 1.235 . S
C118 O123 1.287 . S
C118 O124 1.255 . S
O119 Fe111 1.997 . S
O119 C117 1.235 . S
C120 O126 1.287 . S
C120 O127 1.255 . S
O121 Fe110 1.976 . S
O121 C128 1.287 . S
O122 Fe111 1.996 . S
O122 C128 1.255 . S
O123 Fe113 1.976 . S
O123 C118 1.287 . S
O124 Fe110 1.996 . S
O124 C118 1.255 . S
C125 O129 1.295 . S
C125 O130 1.235 . S
O126 Fe111 1.976 . S
O126 C120 1.287 . S
O127 Fe113 1.996 . S
O127 C120 1.255 . S
C128 O121 1.287 . S
C128 O122 1.255 . S
O129 Fe111 2.002 . S
O129 C125 1.295 . S
O130 Fe113 1.997 . S
O130 C125 1.235 . S
C131 O114 1.295 . S
C131 O115 1.235 . S
C132 C133 1.369 . S
C132 C134 1.419 . S
C132 H136 0.930 . S
C133 C132 1.369 . S
C133 C142 1.429 . S
C134 C132 1.419 . S
C134 C135 1.363 . S
C134 H137 0.929 . S
C135 C134 1.363 . S
C135 C141 1.428 . S
H136 C132 0.930 . S
H137 C134 0.929 . S
S138 N139 1.613 . S
S138 N140 1.610 . S
N139 S138 1.613 . S
N139 C142 1.350 . S
N140 S138 1.610 . S
N140 C141 1.351 . S
C141 C135 1.428 . S
C141 N140 1.351 . S
C141 C142 1.434 . S
C142 C133 1.429 . S
C142 N139 1.350 . S
C142 C141 1.434 . S
C143 C144 1.369 . S
C143 C145 1.419 . S
C143 H147 0.930 . S
C144 C143 1.369 . S
C144 C153 1.429 . S
C145 C143 1.419 . S
C145 C146 1.363 . S
C145 H148 0.929 . S
C146 C145 1.363 . S
C146 C152 1.428 . S
H147 C143 0.930 . S
H148 C145 0.929 . S
S149 N150 1.613 . S
S149 N151 1.610 . S
N150 S149 1.613 . S
N150 C153 1.350 . S
N151 S149 1.610 . S
N151 C152 1.351 . S
C152 C146 1.428 . S
C152 N151 1.351 . S
C152 C153 1.434 . S
C153 C144 1.429 . S
C153 N150 1.350 . S
C153 C152 1.434 . S
C154 C155 1.369 . S
C154 C156 1.419 . S
C154 H158 0.930 . S
C155 C154 1.369 . S
C155 C164 1.429 . S
C156 C154 1.419 . S
C156 C157 1.363 . S
C156 H159 0.929 . S
C157 C156 1.363 . S
C157 C163 1.428 . S
H158 C154 0.930 . S
H159 C156 0.929 . S
S160 N161 1.613 . S
S160 N162 1.610 . S
N161 S160 1.613 . S
N161 C164 1.350 . S
N162 S160 1.610 . S
N162 C163 1.351 . S
C163 C157 1.428 . S
C163 N162 1.351 . S
C163 C164 1.434 . S
C164 C155 1.429 . S
C164 N161 1.350 . S
C164 C163 1.434 . S
C165 C166 1.369 . S
C165 C167 1.419 . S
C165 H169 0.930 . S
C166 C165 1.369 . S
C166 C175 1.429 . S
C167 C165 1.419 . S
C167 C168 1.363 . S
C167 H170 0.929 . S
C168 C167 1.363 . S
C168 C174 1.428 . S
H169 C165 0.930 . S
H170 C167 0.929 . S
S171 N172 1.613 . S
S171 N173 1.610 . S
N172 S171 1.613 . S
N172 C175 1.350 . S
N173 S171 1.610 . S
N173 C174 1.351 . S
C174 C168 1.428 . S
C174 N173 1.351 . S
C174 C175 1.434 . S
C175 C166 1.429 . S
C175 N172 1.350 . S
C175 C174 1.434 . S
C176 C177 1.369 . S
C176 C178 1.419 . S
C176 H180 0.930 . S
C177 C176 1.369 . S
C177 C186 1.429 . S
C178 C176 1.419 . S
C178 C179 1.363 . S
C178 H181 0.929 . S
C179 C178 1.363 . S
C179 C185 1.428 . S
H180 C176 0.930 . S
H181 C178 0.929 . S
S182 N183 1.613 . S
S182 N184 1.610 . S
N183 S182 1.613 . S
N183 C186 1.350 . S
N184 S182 1.610 . S
N184 C185 1.351 . S
C185 C179 1.428 . S
C185 N184 1.351 . S
C185 C186 1.434 . S
C186 C177 1.429 . S
C186 N183 1.350 . S
C186 C185 1.434 . S
C187 C188 1.369 . S
C187 C189 1.419 . S
C187 H191 0.930 . S
C188 C187 1.369 . S
C188 C197 1.429 . S
C189 C187 1.419 . S
C189 C190 1.363 . S
C189 H192 0.929 . S
C190 C189 1.363 . S
C190 C196 1.428 . S
H191 C187 0.930 . S
H192 C189 0.929 . S
S193 N194 1.613 . S
S193 N195 1.610 . S
N194 S193 1.613 . S
N194 C197 1.350 . S
N195 S193 1.610 . S
N195 C196 1.351 . S
C196 C190 1.428 . S
C196 N195 1.351 . S
C196 C197 1.434 . S
C197 C188 1.429 . S
C197 N194 1.350 . S
C197 C196 1.434 . S
C198 C199 1.369 1_554 S
C198 C200 1.419 . S
C198 H202 0.930 . S
C199 C198 1.369 1_556 S
C199 C208 1.429 . S
C200 C198 1.419 . S
C200 C201 1.363 . S
C200 H203 0.929 . S
C201 C200 1.363 . S
C201 C207 1.428 1_554 S
H202 C198 0.930 . S
H203 C200 0.929 . S
S204 N205 1.613 . S
S204 N206 1.610 . S
N205 S204 1.613 . S
N205 C208 1.350 . S
N206 S204 1.610 . S
N206 C207 1.351 . S
C207 C201 1.428 1_556 S
C207 N206 1.351 . S
C207 C208 1.434 . S
C208 C199 1.429 . S
C208 N205 1.350 . S
C208 C207 1.434 . S
C209 C210 1.369 . S
C209 C211 1.419 . S
C209 H213 0.930 . S
C210 C209 1.369 . S
C210 C219 1.429 1_655 S
C211 C209 1.419 . S
C211 C212 1.363 1_655 S
C211 H214 0.929 . S
C212 C211 1.363 1_455 S
C212 C218 1.428 . S
H213 C209 0.930 . S
H214 C211 0.929 . S
S215 N216 1.613 . S
S215 N217 1.610 . S
N216 S215 1.613 . S
N216 C219 1.350 . S
N217 S215 1.610 . S
N217 C218 1.351 . S
C218 C212 1.428 . S
C218 N217 1.351 . S
C218 C219 1.434 . S
C219 C210 1.429 1_455 S
C219 N216 1.350 . S
C219 C218 1.434 . S
C220 C221 1.369 1_565 S
C220 C222 1.419 . S
C220 H224 0.930 . S
C221 C220 1.369 1_545 S
C221 C230 1.429 1_556 S
C222 C220 1.419 . S
C222 C223 1.363 1_556 S
C222 H225 0.929 . S
C223 C222 1.363 1_554 S
C223 C229 1.428 1_565 S
H224 C220 0.930 . S
H225 C222 0.929 . S
S226 N227 1.613 . S
S226 N228 1.610 . S
N227 S226 1.613 . S
N227 C230 1.350 . S
N228 S226 1.610 . S
N228 C229 1.351 . S
C229 C223 1.428 1_545 S
C229 N228 1.351 . S
C229 C230 1.434 . S
C230 C221 1.429 1_554 S
C230 N227 1.350 . S
C230 C229 1.434 . S
C231 C232 1.369 . S
C231 C233 1.419 . S
C231 H235 0.930 . S
C232 C231 1.369 . S
C232 C241 1.429 . S
C233 C231 1.419 . S
C233 C234 1.363 . S
C233 H236 0.929 . S
C234 C233 1.363 . S
C234 C240 1.428 . S
H235 C231 0.930 . S
H236 C233 0.929 . S
S237 N238 1.613 . S
S237 N239 1.610 . S
N238 S237 1.613 . S
N238 C241 1.350 . S
N239 S237 1.610 . S
N239 C240 1.351 . S
C240 C234 1.428 . S
C240 N239 1.351 . S
C240 C241 1.434 . S
C241 C232 1.429 . S
C241 N238 1.350 . S
C241 C240 1.434 . S
C242 C243 1.369 1_455 S
C242 C244 1.419 . S
C242 H246 0.930 . S
C243 C242 1.369 1_655 S
C243 C252 1.429 1_556 S
C244 C242 1.419 . S
C244 C245 1.363 1_556 S
C244 H247 0.929 . S
C245 C244 1.363 1_554 S
C245 C251 1.428 1_455 S
H246 C242 0.930 . S
H247 C244 0.929 . S
S248 N249 1.613 . S
S248 N250 1.610 . S
N249 S248 1.613 . S
N249 C252 1.350 . S
N250 S248 1.610 . S
N250 C251 1.351 . S
C251 C245 1.428 1_655 S
C251 N250 1.351 . S
C251 C252 1.434 . S
C252 C243 1.429 1_554 S
C252 N249 1.350 . S
C252 C251 1.434 . S
C253 C254 1.369 1_565 S
C253 C255 1.419 . S
C253 H257 0.930 . S
C254 C253 1.369 1_545 S
C254 C263 1.429 . S
C255 C253 1.419 . S
C255 C256 1.363 . S
C255 H258 0.929 . S
C256 C255 1.363 . S
C256 C262 1.428 1_565 S
H257 C253 0.930 . S
H258 C255 0.929 . S
S259 N260 1.613 . S
S259 N261 1.610 . S
N260 S259 1.613 . S
N260 C263 1.350 . S
N261 S259 1.610 . S
N261 C262 1.351 . S
C262 C256 1.428 1_545 S
C262 N261 1.351 . S
C262 C263 1.434 . S
C263 C254 1.429 . S
C263 N260 1.350 . S
C263 C262 1.434 . S
C264 C265 1.374 . S
C264 C266 1.414 1_554 S
C264 H268 0.930 1_554 S
C265 C264 1.374 . S
C265 C274 1.429 . S
C266 C264 1.414 1_556 S
C266 C267 1.363 . S
C266 H269 0.929 . S
C267 C266 1.363 . S
C267 C273 1.428 1_556 S
H268 C264 0.930 1_556 S
H269 C266 0.929 . S
S270 N271 1.613 . S
S270 N272 1.610 . S
N271 S270 1.613 . S
N271 C274 1.350 . S
N272 S270 1.610 . S
N272 C273 1.351 . S
C273 C267 1.428 1_554 S
C273 N272 1.351 . S
C273 C274 1.434 . S
C274 C265 1.429 . S
C274 N271 1.350 . S
C274 C273 1.434 . S
C275 C276 1.369 . S
C275 C277 1.419 . S
C275 H279 0.930 . S
C276 C275 1.369 . S
C276 C285 1.429 1_655 S
C277 C275 1.419 . S
C277 C278 1.363 1_655 S
C277 H280 0.929 . S
C278 C277 1.363 1_455 S
C278 C284 1.428 . S
H279 C275 0.930 . S
H280 C277 0.929 . S
S281 N282 1.613 . S
S281 N283 1.610 . S
N282 S281 1.613 . S
N282 C285 1.350 . S
N283 S281 1.610 . S
N283 C284 1.351 . S
C284 C278 1.428 . S
C284 N283 1.351 . S
C284 C285 1.434 . S
C285 C276 1.429 1_455 S
C285 N282 1.350 . S
C285 C284 1.434 . S
C286 C287 1.369 1_545 S
C286 C288 1.419 . S
C286 H290 0.930 . S
C287 C286 1.369 1_565 S
C287 C296 1.429 1_554 S
C288 C286 1.419 . S
C288 C289 1.363 1_554 S
C288 H291 0.929 . S
C289 C288 1.363 1_556 S
C289 C295 1.428 1_545 S
H290 C286 0.930 . S
H291 C288 0.929 . S
S292 N293 1.613 . S
S292 N294 1.610 . S
N293 S292 1.613 . S
N293 C296 1.350 . S
N294 S292 1.610 . S
N294 C295 1.351 . S
C295 C289 1.428 1_565 S
C295 N294 1.351 . S
C295 C296 1.434 . S
C296 C287 1.429 1_556 S
C296 N293 1.350 . S
C296 C295 1.434 . S
C297 C298 1.369 . S
C297 C299 1.419 . S
C297 H301 0.930 . S
C298 C297 1.369 . S
C298 C307 1.429 . S
C299 C297 1.419 . S
C299 C300 1.363 . S
C299 H302 0.929 . S
C300 C299 1.363 . S
C300 C306 1.428 . S
H301 C297 0.930 . S
H302 C299 0.929 . S
S303 N304 1.613 . S
S303 N305 1.610 . S
N304 S303 1.613 . S
N304 C307 1.350 . S
N305 S303 1.610 . S
N305 C306 1.351 . S
C306 C300 1.428 . S
C306 N305 1.351 . S
C306 C307 1.434 . S
C307 C298 1.429 . S
C307 N304 1.350 . S
C307 C306 1.434 . S
C308 C309 1.369 . S
C308 C310 1.419 1_656 S
C308 H312 0.930 . S
C309 C308 1.369 . S
C309 C318 1.429 . S
C310 C308 1.419 1_454 S
C310 C311 1.363 . S
C310 H313 0.929 . S
C311 C310 1.363 . S
C311 C317 1.428 . S
H312 C308 0.930 . S
H313 C310 0.929 . S
S314 N315 1.613 1_554 S
S314 N316 1.610 1_655 S
N315 S314 1.613 1_556 S
N315 C318 1.350 . S
N316 S314 1.610 1_455 S
N316 C317 1.351 . S
C317 C311 1.428 . S
C317 N316 1.351 . S
C317 C318 1.434 1_454 S
C318 C309 1.429 . S
C318 N315 1.350 . S
C318 C317 1.434 1_656 S
C319 C320 1.369 . S
C319 C321 1.419 1_565 S
C319 H323 0.930 . S
C320 C319 1.369 . S
C320 C329 1.429 . S
C321 C319 1.419 1_545 S
C321 C322 1.363 . S
C321 H324 0.929 . S
C322 C321 1.363 . S
C322 C328 1.428 . S
H323 C319 0.930 . S
H324 C321 0.929 . S
S325 N326 1.613 . S
S325 N327 1.610 1_565 S
N326 S325 1.613 . S
N326 C329 1.350 . S
N327 S325 1.610 1_545 S
N327 C328 1.351 . S
C328 C322 1.428 . S
C328 N327 1.351 . S
C328 C329 1.434 1_545 S
C329 C320 1.429 . S
C329 N326 1.350 . S
C329 C328 1.434 1_565 S
C133 C15 1.473 . S
C135 C103 1.477 . S
C144 C40 1.462 . S
C146 C117 1.440 . S
C155 C10 1.429 . S
C157 C54 1.427 . S
C166 C81 1.476 . S
C168 C29 1.479 . S
C177 C59 1.444 . S
C179 C98 1.464 . S
C188 C76 1.426 . S
C190 C128 1.425 . S
C199 C120 1.485 . S
C201 C8 1.485 . S
C210 C43 1.543 . S
C212 C7 1.540 . S
C221 C32 1.517 . S
C223 C51 1.511 . S
C232 C52 1.485 . S
C234 C74 1.485 . S
C243 C73 1.541 . S
C245 C95 1.543 . S
C254 C131 1.508 . S
C256 C96 1.518 . S
C265 C62 1.485 . S
C267 C84 1.484 . S
C276 C87 1.542 . S
C278 C109 1.539 . S
C287 C106 1.516 . S
C289 C125 1.510 . S
C298 C118 1.485 . S
C300 C18 1.485 . S
C309 C37 1.539 . S
C311 C21 1.540 . S
C320 C65 1.510 . S
C322 C30 1.517 . S
