# Generated by pormake.
# Topology wjs, (5)-cn, num edge types: 1
# Building blocks:
#     Node 0, Type 0, BuildingBlock: BEQFEK_clean_sbu_0, # of connection points: 5
#     Node 1, Type 0, BuildingBlock: BEQFEK_clean_sbu_0, # of connection points: 5
#     Node 2, Type 0, BuildingBlock: BEQFEK_clean_sbu_0, # of connection points: 5
#     Node 3, Type 0, BuildingBlock: BEQFEK_clean_sbu_0, # of connection points: 5
#     Node 4, Type 0, BuildingBlock: BEQFEK_clean_sbu_0, # of connection points: 5
#     Node 5, Type 0, BuildingBlock: BEQFEK_clean_sbu_0, # of connection points: 5
#     Node 6, Type 0, BuildingBlock: BEQFEK_clean_sbu_0, # of connection points: 5
#     Node 7, Type 0, BuildingBlock: BEQFEK_clean_sbu_0, # of connection points: 5
#     Node 8, Type 0, BuildingBlock: BEQFEK_clean_sbu_0, # of connection points: 5
#     Node 9, Type 0, BuildingBlock: BEQFEK_clean_sbu_0, # of connection points: 5
#     Node 10, Type 0, BuildingBlock: BEQFEK_clean_sbu_0, # of connection points: 5
#     Node 11, Type 0, BuildingBlock: BEQFEK_clean_sbu_0, # of connection points: 5
#     Edge 12, Type (0, 0), BuildingBlock: UVAHIK_clean_linker_0, # of connection points: 2
#     Edge 13, Type (0, 0), BuildingBlock: UVAHIK_clean_linker_0, # of connection points: 2
#     Edge 14, Type (0, 0), BuildingBlock: UVAHIK_clean_linker_0, # of connection points: 2
#     Edge 15, Type (0, 0), BuildingBlock: UVAHIK_clean_linker_0, # of connection points: 2
#     Edge 16, Type (0, 0), BuildingBlock: UVAHIK_clean_linker_0, # of connection points: 2
#     Edge 17, Type (0, 0), BuildingBlock: UVAHIK_clean_linker_0, # of connection points: 2
#     Edge 18, Type (0, 0), BuildingBlock: UVAHIK_clean_linker_0, # of connection points: 2
#     Edge 19, Type (0, 0), BuildingBlock: UVAHIK_clean_linker_0, # of connection points: 2
#     Edge 20, Type (0, 0), BuildingBlock: UVAHIK_clean_linker_0, # of connection points: 2
#     Edge 21, Type (0, 0), BuildingBlock: UVAHIK_clean_linker_0, # of connection points: 2
#     Edge 22, Type (0, 0), BuildingBlock: UVAHIK_clean_linker_0, # of connection points: 2
#     Edge 23, Type (0, 0), BuildingBlock: UVAHIK_clean_linker_0, # of connection points: 2
#     Edge 24, Type (0, 0), BuildingBlock: UVAHIK_clean_linker_0, # of connection points: 2
#     Edge 25, Type (0, 0), BuildingBlock: UVAHIK_clean_linker_0, # of connection points: 2
#     Edge 26, Type (0, 0), BuildingBlock: UVAHIK_clean_linker_0, # of connection points: 2
#     Edge 27, Type (0, 0), BuildingBlock: UVAHIK_clean_linker_0, # of connection points: 2
#     Edge 28, Type (0, 0), BuildingBlock: UVAHIK_clean_linker_0, # of connection points: 2
#     Edge 29, Type (0, 0), BuildingBlock: UVAHIK_clean_linker_0, # of connection points: 2
#     Edge 30, Type (0, 0), BuildingBlock: UVAHIK_clean_linker_0, # of connection points: 2
#     Edge 31, Type (0, 0), BuildingBlock: UVAHIK_clean_linker_0, # of connection points: 2
#     Edge 32, Type (0, 0), BuildingBlock: UVAHIK_clean_linker_0, # of connection points: 2
#     Edge 33, Type (0, 0), BuildingBlock: UVAHIK_clean_linker_0, # of connection points: 2
#     Edge 34, Type (0, 0), BuildingBlock: UVAHIK_clean_linker_0, # of connection points: 2
#     Edge 35, Type (0, 0), BuildingBlock: UVAHIK_clean_linker_0, # of connection points: 2
#     Edge 36, Type (0, 0), BuildingBlock: UVAHIK_clean_linker_0, # of connection points: 2
#     Edge 37, Type (0, 0), BuildingBlock: UVAHIK_clean_linker_0, # of connection points: 2
#     Edge 38, Type (0, 0), BuildingBlock: UVAHIK_clean_linker_0, # of connection points: 2
#     Edge 39, Type (0, 0), BuildingBlock: UVAHIK_clean_linker_0, # of connection points: 2
#     Edge 40, Type (0, 0), BuildingBlock: UVAHIK_clean_linker_0, # of connection points: 2
#     Edge 41, Type (0, 0), BuildingBlock: UVAHIK_clean_linker_0, # of connection points: 2
# Relax obj value: 0.259
# Max RMSD: 0.219
# Mean RMSD: 0.219
data_MOF--net-wjs--node1-BEQFEK_clean_sbu_0--edge1-UVAHIK_clean_linker_0
_symmetry_space_group_name_H-M    P1
_symmetry_Int_Tables_number       1
_symmetry_cell_setting            triclinic
loop_
_symmetry_equiv_pos_as_xyz
'x, y, z'
_cell_length_a     37.557763
_cell_length_b     37.564748
_cell_length_c     97.074296
_cell_angle_alpha  90.001421
_cell_angle_beta   89.985451
_cell_angle_gamma 119.99473
loop_
_atom_site_label
_atom_site_type_symbol
_atom_site_fract_x
_atom_site_fract_y
_atom_site_fract_z
_atom_type_partial_charge
Co0 Co 0.21114 0.32828 0.02837 0.0
Co1 Co 0.201 0.39841 0.01472 0.0
C2 C 0.20151 0.33135 -0.00195 0.0
O3 O 0.20517 0.31374 0.00871 0.0
O4 O 0.19956 0.3641 -0.001 0.0
C5 C 0.18534 0.24591 0.03653 0.0
O6 O 0.15583 0.23689 0.02756 0.0
C7 C 0.1532 0.42597 -0.0007 0.0
C8 C 0.1813 0.49149 0.00498 0.0
C9 C 0.14933 0.4605 -0.00247 0.0
N10 N 0.18538 0.43585 0.00762 0.0
N11 N 0.20247 0.4752 0.01084 0.0
C12 C 0.12797 0.38439 0.99288 0.0
H13 H 0.11774 0.36025 0.00092 0.0
H14 H 0.10117 0.38144 0.98712 0.0
H15 H 0.14754 0.37918 0.98553 0.0
C16 C 0.13969 0.31779 0.0445 0.0
N17 N 0.16819 0.33649 0.0346 0.0
N18 N 0.16369 0.36597 0.02902 0.0
C19 C 0.1319 0.36677 0.03526 0.0
C20 C 0.1154 0.33582 0.04508 0.0
C21 C 0.13789 0.28577 0.05413 0.0
H22 H 0.16938 0.29258 0.05676 0.0
H23 H 0.12117 0.25526 0.04908 0.0
H24 H 0.1215 0.28447 0.06379 0.0
O25 O 0.26458 0.37841 0.03108 0.0
O26 O 0.25901 0.4291 0.02143 0.0
H27 H 0.144 0.42794 0.03124 0.0
H28 H 0.09529 0.3954 0.03963 0.0
C29 C 0.11738 0.3963 0.03188 0.0
H30 H 0.10165 0.38806 0.02176 0.0
H31 H 0.22781 0.4906 0.01735 0.0
O32 O 0.21233 0.28329 0.03853 0.0
C33 C 0.28001 0.41611 0.02781 0.0
Co34 Co 0.88142 0.21007 0.19378 0.0
Co35 Co 0.79849 0.19867 0.18222 0.0
C36 C 0.86498 0.19994 0.16402 0.0
O37 O 0.88795 0.20335 0.17414 0.0
O38 O 0.83047 0.19808 0.16584 0.0
C39 C 0.9502 0.19864 0.20015 0.0
O40 O 0.94207 0.17938 0.18826 0.0
C41 C 0.71894 0.14528 0.16963 0.0
C42 C 0.68884 0.18291 0.17022 0.0
C43 C 0.68319 0.14515 0.16603 0.0
N44 N 0.7444 0.18126 0.17577 0.0
N45 N 0.72627 0.20367 0.17611 0.0
C46 C 0.73022 0.11323 0.16632 0.0
H47 H 0.76346 0.12514 0.16809 0.0
H48 H 0.71257 0.08596 0.17297 0.0
H49 H 0.72222 0.10315 0.15545 0.0
C50 C 0.8249 0.13892 0.21042 0.0
N51 N 0.83182 0.16669 0.20055 0.0
N52 N 0.79667 0.16299 0.19655 0.0
C53 C 0.76613 0.13336 0.2042 0.0
C54 C 0.78314 0.11711 0.21319 0.0
C55 C 0.8578 0.13276 0.21674 0.0
H56 H 0.8776 0.13166 0.20848 0.0
H57 H 0.84484 0.10374 0.22269 0.0
H58 H 0.87712 0.15906 0.22361 0.0
O59 O 0.88369 0.26327 0.19638 0.0
O60 O 0.82495 0.25662 0.1887 0.0
H61 H 0.70823 0.11363 0.21439 0.0
H62 H 0.70458 0.09852 0.1967 0.0
C63 C 0.7224 0.12385 0.20406 0.0
H64 H 0.72057 0.15122 0.20088 0.0
H65 H 0.7396 0.23326 0.18022 0.0
O66 O 0.92829 0.21366 0.20419 0.0
C67 C 0.86046 0.27829 0.19406 0.0
Co68 Co 0.66377 0.88208 0.36125 0.0
Co69 Co 0.59075 0.79989 0.34989 0.0
C70 C 0.65572 0.86449 0.33139 0.0
O71 O 0.67542 0.88772 0.34145 0.0
O72 O 0.62295 0.8302 0.33329 0.0
C73 C 0.74508 0.95026 0.36669 0.0
O74 O 0.75447 0.9418 0.35455 0.0
C75 C 0.56212 0.72148 0.33648 0.0
C76 C 0.49543 0.68815 0.34073 0.0
C77 C 0.52633 0.68416 0.33432 0.0
N78 N 0.55265 0.74601 0.34376 0.0
N79 N 0.51272 0.72613 0.3462 0.0
C80 C 0.60529 0.73319 0.33274 0.0
H81 H 0.6276 0.75909 0.33923 0.0
H82 H 0.61022 0.7066 0.33399 0.0
H83 H 0.61104 0.74335 0.32183 0.0
C84 C 0.67809 0.82487 0.37755 0.0
N85 N 0.65688 0.83226 0.36795 0.0
N86 N 0.62511 0.79736 0.36395 0.0
C87 C 0.62465 0.76643 0.37122 0.0
C88 C 0.65824 0.78298 0.38006 0.0
C89 C 0.7175 0.85743 0.38378 0.0
H90 H 0.73828 0.8771 0.37548 0.0
H91 H 0.73347 0.84419 0.38963 0.0
H92 H 0.71102 0.87698 0.39072 0.0
O93 O 0.61389 0.88543 0.36461 0.0
O94 O 0.56085 0.82795 0.35657 0.0
H95 H 0.58964 0.70595 0.3802 0.0
H96 H 0.59762 0.70709 0.3619 0.0
C97 C 0.59121 0.72243 0.37052 0.0
H98 H 0.56116 0.72045 0.36866 0.0
H99 H 0.49743 0.73823 0.35177 0.0
O100 O 0.70867 0.92871 0.37125 0.0
C101 C 0.57553 0.863 0.36234 0.0
Co102 Co 0.78224 0.66547 0.52548 0.0
Co103 Co 0.79688 0.5956 0.51418 0.0
C104 C 0.79492 0.65993 0.4958 0.0
O105 O 0.78987 0.67871 0.50584 0.0
O106 O 0.79776 0.62789 0.4977 0.0
C107 C 0.79147 0.74494 0.53139 0.0
O108 O 0.81078 0.75569 0.51951 0.0
C109 C 0.8531 0.57253 0.50204 0.0
C110 C 0.8174 0.50468 0.50214 0.0
C111 C 0.85489 0.5379 0.4983 0.0
N112 N 0.81643 0.56044 0.50793 0.0
N113 N 0.79519 0.51983 0.508 0.0
C114 C 0.88419 0.61639 0.49899 0.0
H115 H 0.8926 0.61973 0.48791 0.0
H116 H 0.87211 0.63707 0.50167 0.0
H117 H 0.91257 0.62571 0.50501 0.0
C118 C 0.85321 0.68211 0.54258 0.0
N119 N 0.82612 0.6607 0.5326 0.0
N120 N 0.83121 0.63002 0.52869 0.0
C121 C 0.86115 0.63023 0.53648 0.0
C122 C 0.87608 0.66337 0.54549 0.0
C123 C 0.85783 0.72065 0.54884 0.0
H124 H 0.85887 0.74136 0.54053 0.0
H125 H 0.88638 0.73728 0.55501 0.0
H126 H 0.83088 0.71288 0.55549 0.0
O127 O 0.72987 0.61362 0.52796 0.0
O128 O 0.7386 0.56271 0.52033 0.0
H129 H 0.88292 0.59383 0.54673 0.0
H130 H 0.89797 0.60566 0.52904 0.0
C131 C 0.87238 0.59722 0.53638 0.0
H132 H 0.84572 0.56747 0.5332 0.0
H133 H 0.76536 0.5025 0.51185 0.0
O134 O 0.77701 0.70828 0.53565 0.0
C135 C 0.71598 0.57555 0.52562 0.0
Co136 Co 0.11844 0.78503 0.69315 0.0
Co137 Co 0.19782 0.79094 0.68048 0.0
C138 C 0.13326 0.7936 0.66295 0.0
O139 O 0.11156 0.79104 0.67337 0.0
O140 O 0.16707 0.79387 0.66432 0.0
C141 C 0.06268 0.81298 0.70055 0.0
O142 O 0.08354 0.84206 0.69148 0.0
C143 C 0.27466 0.83613 0.66571 0.0
C144 C 0.30726 0.80253 0.67073 0.0
C145 C 0.31147 0.83652 0.66361 0.0
N146 N 0.2503 0.80375 0.67368 0.0
N147 N 0.26966 0.78343 0.67653 0.0
C148 C 0.26357 0.86763 0.66137 0.0
H149 H 0.23838 0.86567 0.66789 0.0
H150 H 0.29063 0.89905 0.66209 0.0
H151 H 0.25274 0.86175 0.65054 0.0
C152 C 0.18015 0.85617 0.7092 0.0
N153 N 0.16992 0.82684 0.69958 0.0
N154 N 0.20364 0.82923 0.69455 0.0
C155 C 0.23648 0.86025 0.70097 0.0
C156 C 0.22251 0.8787 0.7102 0.0
C157 C 0.15006 0.86052 0.71815 0.0
H158 H 0.12446 0.8298 0.72106 0.0
H159 H 0.13756 0.87738 0.71242 0.0
H160 H 0.16486 0.8779 0.7277 0.0
O161 O 0.11254 0.73064 0.6964 0.0
O162 O 0.16814 0.73316 0.68736 0.0
H163 H 0.28288 0.84405 0.69709 0.0
H164 H 0.30062 0.89079 0.70692 0.0
C165 C 0.28031 0.87199 0.69839 0.0
H166 H 0.29114 0.89054 0.68884 0.0
H167 H 0.25763 0.75718 0.6827 0.0
O168 O 0.07265 0.78581 0.70284 0.0
C169 C 0.13369 0.71364 0.69358 0.0
Co170 Co 0.31636 0.10442 0.85809 0.0
Co171 Co 0.39221 0.1865 0.84807 0.0
C172 C 0.32695 0.1269 0.82859 0.0
O173 O 0.30572 0.10283 0.83828 0.0
O174 O 0.36063 0.15983 0.83102 0.0
C175 C 0.23209 0.04359 0.86419 0.0
O176 O 0.22223 0.0622 0.85474 0.0
C177 C 0.42654 0.26769 0.83607 0.0
C178 C 0.49242 0.29692 0.84137 0.0
C179 C 0.46378 0.30415 0.83481 0.0
N180 N 0.43305 0.24053 0.84299 0.0
N181 N 0.47252 0.25798 0.84605 0.0
C182 C 0.38467 0.25922 0.83186 0.0
H183 H 0.36058 0.23311 0.83785 0.0
H184 H 0.38163 0.28685 0.8334 0.0
H185 H 0.37988 0.25072 0.82079 0.0
C186 C 0.30662 0.16136 0.8765 0.0
N187 N 0.32582 0.15399 0.86614 0.0
N188 N 0.35831 0.18869 0.86235 0.0
C189 C 0.36094 0.21935 0.87036 0.0
C190 C 0.32823 0.20292 0.87954 0.0
C191 C 0.2679 0.12914 0.88321 0.0
H192 H 0.27285 0.10456 0.88747 0.0
H193 H 0.24328 0.11545 0.87536 0.0
H194 H 0.25721 0.14176 0.89152 0.0
O195 O 0.36431 0.09729 0.86097 0.0
O196 O 0.41923 0.15506 0.85407 0.0
H197 H 0.42528 0.2632 0.86851 0.0
H198 H 0.39741 0.27902 0.87982 0.0
C199 C 0.39582 0.26274 0.8701 0.0
H200 H 0.3913 0.27933 0.86145 0.0
H201 H 0.48569 0.24355 0.85153 0.0
O202 O 0.26967 0.05677 0.86698 0.0
C203 C 0.40292 0.11883 0.85902 0.0
Co204 Co 0.67787 0.78627 0.79875 0.0
Co205 Co 0.6033 0.79311 0.8099 0.0
C206 C 0.67083 0.79998 0.82843 0.0
O207 O 0.69064 0.79623 0.81845 0.0
O208 O 0.63696 0.79924 0.82649 0.0
C209 C 0.76167 0.81041 0.79235 0.0
O210 O 0.77067 0.83803 0.80205 0.0
C211 C 0.57111 0.84084 0.82251 0.0
C212 C 0.50406 0.80305 0.81923 0.0
C213 C 0.53419 0.83965 0.82493 0.0
N214 N 0.56324 0.80674 0.81559 0.0
N215 N 0.52313 0.78415 0.81366 0.0
C216 C 0.613 0.87168 0.82764 0.0
H217 H 0.61846 0.86065 0.83759 0.0
H218 H 0.63683 0.87443 0.82026 0.0
H219 H 0.61605 0.90219 0.8294 0.0
C220 C 0.68584 0.85264 0.78053 0.0
N221 N 0.66744 0.82605 0.79095 0.0
N222 N 0.6356 0.82867 0.79526 0.0
C223 C 0.63264 0.85709 0.78757 0.0
C224 C 0.66439 0.8731 0.77801 0.0
C225 C 0.72402 0.85907 0.77342 0.0
H226 H 0.71874 0.8295 0.76908 0.0
H227 H 0.74923 0.87002 0.78105 0.0
H228 H 0.73411 0.88231 0.76511 0.0
O229 O 0.62972 0.73104 0.79642 0.0
O230 O 0.57576 0.7343 0.80421 0.0
H231 H 0.56894 0.83811 0.79044 0.0
H232 H 0.59632 0.88194 0.77915 0.0
C233 C 0.5986 0.86671 0.78864 0.0
H234 H 0.6047 0.88773 0.79747 0.0
H235 H 0.50881 0.75587 0.80859 0.0
O236 O 0.72427 0.7857 0.78939 0.0
C237 C 0.5914 0.71409 0.79896 0.0
Co238 Co 0.88821 0.67888 0.96928 0.0
Co239 Co 0.80387 0.60422 0.97826 0.0
C240 C 0.86412 0.66735 -0.00155 0.0
O241 O 0.88929 0.68918 0.98909 0.0
O242 O 0.83105 0.63432 0.99554 0.0
C243 C 0.95258 0.76204 0.96414 0.0
O244 O 0.93573 0.77181 0.97423 0.0
C245 C 0.72196 0.57498 0.9891 0.0
C246 C 0.6931 0.50746 0.98768 0.0
C247 C 0.68611 0.53865 0.99196 0.0
N248 N 0.74882 0.5658 0.98328 0.0
N249 N 0.73143 0.52539 0.98242 0.0
C250 C 0.73199 0.61763 0.99292 0.0
H251 H 0.72408 0.61841 0.00389 0.0
H252 H 0.76499 0.63991 0.99114 0.0
H253 H 0.71346 0.62698 0.98661 0.0
C254 C 0.83426 0.69367 0.95098 0.0
N255 N 0.83987 0.67231 0.96103 0.0
N256 N 0.80435 0.63987 0.96416 0.0
C257 C 0.77503 0.63909 0.95588 0.0
C258 C 0.79309 0.67326 0.94733 0.0
C259 C 0.86764 0.73361 0.94532 0.0
H260 H 0.88216 0.7556 0.95391 0.0
H261 H 0.85594 0.74761 0.93785 0.0
H262 H 0.89136 0.7287 0.94029 0.0
O263 O 0.89276 0.62925 0.96637 0.0
O264 O 0.8329 0.575 0.9721 0.0
H265 H 0.73005 0.57492 0.95778 0.0
H266 H 0.71884 0.60202 0.94461 0.0
C267 C 0.73162 0.60435 0.9551 0.0
H268 H 0.7124 0.61 0.96245 0.0
H269 H 0.74594 0.51007 0.97846 0.0
O270 O 0.93722 0.72466 0.9606 0.0
C271 C 0.8697 0.59053 0.96772 0.0
Co272 Co 0.20795 0.88251 0.13357 0.0
Co273 Co 0.19734 0.79991 0.14528 0.0
C274 C 0.19936 0.86572 0.16357 0.0
O275 O 0.20239 0.88869 0.15348 0.0
O276 O 0.19746 0.83132 0.16167 0.0
C277 C 0.18493 0.9425 0.12685 0.0
O278 O 0.15618 0.92294 0.13615 0.0
C279 C 0.14788 0.72343 0.15981 0.0
C280 C 0.17498 0.68536 0.15378 0.0
C281 C 0.14315 0.6846 0.16126 0.0
N282 N 0.18047 0.74584 0.15166 0.0
N283 N 0.19692 0.72316 0.1482 0.0
C284 C 0.12321 0.74011 0.16644 0.0
H285 H 0.11587 0.75733 0.15874 0.0
H286 H 0.09464 0.71578 0.17128 0.0
H287 H 0.14212 0.7622 0.17459 0.0
C288 C 0.13478 0.82452 0.11742 0.0
N289 N 0.16423 0.83257 0.12682 0.0
N290 N 0.15974 0.79765 0.13151 0.0
C291 C 0.12711 0.76622 0.12515 0.0
C292 C 0.11 0.78239 0.11623 0.0
C293 C 0.13193 0.85635 0.10897 0.0
H294 H 0.16306 0.88084 0.1059 0.0
H295 H 0.11702 0.87008 0.11515 0.0
H296 H 0.11337 0.84276 0.09952 0.0
O297 O 0.26091 0.88507 0.13022 0.0
O298 O 0.25501 0.82691 0.13826 0.0
H299 H 0.1384 0.71618 0.12825 0.0
H300 H 0.09049 0.70188 0.11961 0.0
C301 C 0.11204 0.72163 0.12774 0.0
H302 H 0.09545 0.71261 0.1377 0.0
H303 H 0.22244 0.73312 0.14178 0.0
O304 O 0.21022 0.93031 0.12419 0.0
C305 C 0.27607 0.86195 0.13251 0.0
Co306 Co 0.33185 0.21577 0.29851 0.0
Co307 Co 0.40441 0.20636 0.31012 0.0
C308 C 0.33961 0.20651 0.32848 0.0
O309 O 0.31978 0.2098 0.3184 0.0
O310 O 0.37237 0.20502 0.32657 0.0
C311 C 0.24921 0.19654 0.29201 0.0
O312 O 0.23853 0.17138 0.30258 0.0
C313 C 0.43419 0.15866 0.32441 0.0
C314 C 0.49999 0.19004 0.31885 0.0
C315 C 0.46996 0.15679 0.32618 0.0
N316 N 0.44285 0.1912 0.31642 0.0
N317 N 0.48229 0.21015 0.31323 0.0
C318 C 0.39155 0.12854 0.32913 0.0
H319 H 0.36844 0.13131 0.32281 0.0
H320 H 0.38589 0.09662 0.32846 0.0
H321 H 0.38781 0.13521 0.34 0.0
C322 C 0.31731 0.14318 0.28241 0.0
N323 N 0.33876 0.17264 0.29177 0.0
N324 N 0.36984 0.16888 0.2962 0.0
C325 C 0.36929 0.13689 0.28961 0.0
C326 C 0.33555 0.11927 0.28086 0.0
C327 C 0.28146 0.13956 0.27446 0.0
H328 H 0.28874 0.17021 0.27057 0.0
H329 H 0.2544 0.12786 0.28138 0.0
H330 H 0.27357 0.11841 0.26556 0.0
O331 O 0.38165 0.26902 0.29517 0.0
O332 O 0.43435 0.26414 0.3033 0.0
H333 H 0.43118 0.14992 0.29289 0.0
H334 H 0.39961 0.10342 0.28322 0.0
C335 C 0.39988 0.12296 0.29181 0.0
H336 H 0.39203 0.1045 0.30138 0.0
H337 H 0.49689 0.23623 0.307 0.0
O338 O 0.2869 0.21783 0.28874 0.0
C339 C 0.41995 0.28472 0.2975 0.0
Co340 Co 0.11817 0.33647 0.46233 0.0
Co341 Co 0.19988 0.40282 0.4763 0.0
C342 C 0.12812 0.33997 0.49278 0.0
O343 O 0.10705 0.32334 0.482 0.0
O344 O 0.16445 0.37053 0.49199 0.0
C345 C 0.05385 0.25593 0.45532 0.0
O346 O 0.06684 0.24534 0.4663 0.0
C347 C 0.27363 0.42437 0.49187 0.0
C348 C 0.31463 0.48998 0.48695 0.0
C349 C 0.31294 0.4571 0.49403 0.0
N350 N 0.25332 0.43708 0.4837 0.0
N351 N 0.27774 0.47646 0.48092 0.0
C352 C 0.25458 0.38193 0.49781 0.0
H353 H 0.23841 0.35879 0.4896 0.0
H354 H 0.27738 0.37606 0.50302 0.0
H355 H 0.23111 0.37818 0.50551 0.0
C356 C 0.17555 0.31829 0.44745 0.0
N357 N 0.16774 0.3398 0.45685 0.0
N358 N 0.20255 0.36822 0.46229 0.0
C359 C 0.23385 0.36582 0.45632 0.0
C360 C 0.21755 0.33366 0.44692 0.0
C361 C 0.14365 0.28555 0.43842 0.0
H362 H 0.12268 0.2958 0.43436 0.0
H363 H 0.12542 0.25725 0.44459 0.0
H364 H 0.15764 0.27823 0.42959 0.0
O365 O 0.11981 0.38885 0.459 0.0
O366 O 0.17676 0.43703 0.46912 0.0
H367 H 0.2852 0.4256 0.46057 0.0
H368 H 0.29856 0.39175 0.45159 0.0
C369 C 0.2784 0.39341 0.45959 0.0
H370 H 0.28558 0.38376 0.46949 0.0
H371 H 0.26961 0.49378 0.47462 0.0
O372 O 0.07145 0.29352 0.4518 0.0
C373 C 0.14377 0.42619 0.46234 0.0
Co374 Co 0.78304 0.11538 0.63025 0.0
Co375 Co 0.79071 0.19558 0.64298 0.0
C376 C 0.79223 0.12966 0.66036 0.0
O377 O 0.78908 0.10775 0.64993 0.0
O378 O 0.79334 0.16394 0.65903 0.0
C379 C 0.79885 0.04967 0.62324 0.0
O380 O 0.81958 0.05896 0.63484 0.0
C381 C 0.8393 0.27366 0.65689 0.0
C382 C 0.80389 0.30525 0.65333 0.0
C383 C 0.83964 0.31028 0.65938 0.0
N384 N 0.80519 0.24857 0.64975 0.0
N385 N 0.7839 0.2674 0.64775 0.0
C386 C 0.87203 0.26329 0.66015 0.0
H387 H 0.86869 0.23769 0.65355 0.0
H388 H 0.90303 0.29053 0.65866 0.0
H389 H 0.86889 0.25326 0.67105 0.0
C390 C 0.85257 0.17541 0.61373 0.0
N391 N 0.82518 0.16631 0.62393 0.0
N392 N 0.82774 0.20036 0.62863 0.0
C393 C 0.85673 0.23241 0.62133 0.0
C394 C 0.87339 0.21752 0.6117 0.0
C395 C 0.85809 0.14409 0.60595 0.0
H396 H 0.86251 0.12418 0.61335 0.0
H397 H 0.88506 0.15857 0.59896 0.0
H398 H 0.82997 0.12448 0.59984 0.0
O399 O 0.72938 0.1113 0.62728 0.0
O400 O 0.73273 0.16724 0.63632 0.0
H401 H 0.83653 0.27606 0.6246 0.0
H402 H 0.87978 0.2934 0.61298 0.0
C403 C 0.86538 0.27573 0.62252 0.0
H404 H 0.88689 0.29102 0.6312 0.0
H405 H 0.7562 0.25474 0.64235 0.0
O406 O 0.78172 0.06997 0.61957 0.0
C407 C 0.71286 0.13289 0.63009 0.0
C408 C 0.22161 0.21976 0.05136 0.0
C409 C 0.18511 0.21353 0.04518 0.0
C410 C 0.22123 0.1898 0.05997 0.0
C411 C 0.15764 0.10957 0.08382 0.0
H412 H 0.22966 0.06532 0.07688 0.0
C413 C 0.14886 0.97646 0.11628 0.0
C414 C 0.18519 0.97525 0.11841 0.0
C415 C 0.14852 0.00558 0.1074 0.0
C416 C 0.20987 0.07784 0.07916 0.0
H417 H 0.1196 0.1714 0.04321 0.0
H418 H 0.11885 0.1194 0.05864 0.0
H419 H 0.23004 0.11612 0.06118 0.0
H420 H 0.24996 0.0043 0.11338 0.0
H421 H 0.25005 0.05644 0.0985 0.0
H422 H 0.13854 0.07289 0.10207 0.0
C423 C 0.14771 0.14726 0.05663 0.0
C424 C 0.20991 0.10667 0.07007 0.0
C425 C 0.14822 0.17683 0.04776 0.0
C426 C 0.22143 0.00438 0.11183 0.0
C427 C 0.22132 0.03402 0.10318 0.0
C428 C 0.15816 0.08134 0.09308 0.0
C429 C 0.18422 0.15355 0.06279 0.0
C430 C 0.18374 0.12266 0.07231 0.0
C431 C 0.18472 0.03465 0.10065 0.0
C432 C 0.18426 0.06501 0.09087 0.0
H433 H 0.25047 0.24777 0.04952 0.0
H434 H 0.24971 0.19532 0.06467 0.0
H435 H 0.13749 0.12188 0.0858 0.0
H436 H 0.12036 0.95403 0.12111 0.0
H437 H 0.11957 0.00451 0.10557 0.0
C438 C 0.22974 0.22765 0.27279 0.0
C439 C 0.21778 0.19801 0.28327 0.0
C440 C 0.20047 0.22824 0.2641 0.0
C441 C 0.09729 0.16234 0.25019 0.0
H442 H 0.10344 0.26564 0.24077 0.0
C443 C 0.00175 0.17739 0.20625 0.0
C444 C 0.98219 0.19999 0.20935 0.0
C445 C 0.03059 0.17733 0.21534 0.0
C446 C 0.10125 0.23655 0.24335 0.0
H447 H 0.16569 0.14593 0.29292 0.0
H448 H 0.11443 0.14697 0.27765 0.0
H449 H 0.15269 0.26508 0.25706 0.0
H450 H 0.97794 0.24069 0.2243 0.0
H451 H 0.02838 0.24072 0.24007 0.0
H452 H 0.04573 0.13382 0.23651 0.0
C453 C 0.14655 0.16959 0.27617 0.0
C454 C 0.12958 0.23627 0.25259 0.0
C455 C 0.17585 0.16918 0.28495 0.0
C456 C 0.9925 0.22299 0.2216 0.0
C457 C 0.02151 0.22316 0.23061 0.0
C458 C 0.06912 0.16267 0.24087 0.0
C459 C 0.15863 0.19907 0.26563 0.0
C460 C 0.1279 0.19917 0.2561 0.0
C461 C 0.04066 0.20014 0.22762 0.0
C462 C 0.07082 0.19978 0.23737 0.0
H463 H 0.26181 0.25029 0.27121 0.0
H464 H 0.21072 0.25105 0.25598 0.0
H465 H 0.09552 0.13335 0.25262 0.0
H466 H 0.99444 0.15933 0.19691 0.0
H467 H 0.04522 0.15964 0.21272 0.0
C468 C 0.00566 0.18234 0.44917 0.0
C469 C 0.02126 0.22434 0.44653 0.0
C470 C 0.97596 0.15259 0.44052 0.0
C471 C 0.93244 0.1389 0.40544 0.0
H472 H 0.84291 0.03894 0.42089 0.0
C473 C 0.81848 0.00308 0.37146 0.0
C474 C 0.77699 0.98259 0.37548 0.0
C475 C 0.84865 0.03256 0.38007 0.0
C476 C 0.86754 0.06683 0.41641 0.0
H477 H 0.01747 0.26807 0.43287 0.0
H478 H 0.96513 0.21623 0.41798 0.0
H479 H 0.89403 0.09065 0.43615 0.0
H480 H 0.73451 0.97743 0.39157 0.0
H481 H 0.7869 0.02933 0.4064 0.0
H482 H 0.90527 0.11561 0.38573 0.0
C483 C 0.97641 0.20623 0.42656 0.0
C484 C 0.89714 0.09624 0.42515 0.0
C485 C 0.00621 0.23595 0.43516 0.0
C486 C 0.76623 0.99252 0.38819 0.0
C487 C 0.79632 0.02208 0.39675 0.0
C488 C 0.90275 0.10955 0.3967 0.0
C489 C 0.96111 0.16421 0.42908 0.0
C490 C 0.92988 0.13268 0.41978 0.0
C491 C 0.83791 0.04227 0.39284 0.0
C492 C 0.86988 0.07323 0.40209 0.0
H493 H 0.01678 0.1724 0.4578 0.0
H494 H 0.96519 0.12049 0.44266 0.0
H495 H 0.95757 0.16638 0.40094 0.0
H496 H 0.82778 0.99597 0.36176 0.0
H497 H 0.88047 0.04722 0.37682 0.0
C498 C 0.81209 0.81784 0.53699 0.0
C499 C 0.78993 0.77589 0.54038 0.0
C500 C 0.81239 0.8472 0.54591 0.0
C501 C 0.79344 0.86189 0.58234 0.0
H502 H 0.79178 0.95722 0.56788 0.0
C503 C 0.82061 -0.00133 0.61684 0.0
C504 C 0.79694 0.01729 0.61409 0.0
C505 C 0.81951 0.96895 0.6079 0.0
C506 C 0.79188 0.9306 0.57211 0.0
H507 H 0.74988 0.73174 0.55564 0.0
H508 H 0.74962 0.78279 0.571 0.0
H509 H 0.78871 0.90548 0.55208 0.0
H510 H 0.75294 0.01878 0.59995 0.0
H511 H 0.75033 0.96645 0.58458 0.0
H512 H 0.79538 0.88641 0.60239 0.0
C513 C 0.76756 0.79316 0.56162 0.0
C514 C 0.79067 0.90118 0.56303 0.0
C515 C 0.76746 0.76385 0.55275 0.0
C516 C 0.77178 0.00522 0.60232 0.0
C517 C 0.77048 0.97539 0.59345 0.0
C518 C 0.79445 0.89121 0.59143 0.0
C519 C 0.79033 0.83522 0.55837 0.0
C520 C 0.79143 0.86646 0.56803 0.0
C521 C 0.79453 0.95707 0.59606 0.0
C522 C 0.79366 0.92592 0.58642 0.0
H523 H 0.82989 0.82814 0.52758 0.0
H524 H 0.83067 0.87937 0.54317 0.0
H525 H 0.79464 0.8358 0.58655 0.0
H526 H 0.84045 0.00744 0.62579 0.0
H527 H 0.83881 0.95583 0.61013 0.0
C528 C -0.00032 0.77747 0.71509 0.0
C529 C 0.03057 0.81382 0.70903 0.0
C530 C 0.97034 0.77834 0.72368 0.0
C531 C 0.95532 0.84172 0.74791 0.0
H532 H 0.8388 0.77132 0.74099 0.0
C533 C 0.83173 0.84768 0.78181 0.0
C534 C 0.79428 0.8111 0.78372 0.0
C535 C 0.86107 0.84903 0.77264 0.0
C536 C 0.87118 0.79066 0.74325 0.0
H537 H 0.05526 0.87957 0.7072 0.0
H538 H 0.00433 0.88116 0.72263 0.0
H539 H 0.88868 0.77164 0.72487 0.0
H540 H 0.75865 0.74685 0.77803 0.0
H541 H 0.81049 0.74844 0.76263 0.0
H542 H 0.93832 0.85951 0.76658 0.0
C543 C 0.00269 0.85206 0.72053 0.0
C544 C 0.89966 0.79106 0.73392 0.0
C545 C 0.03155 0.85107 0.71167 0.0
C546 C 0.78718 0.77557 0.77665 0.0
C547 C 0.8168 0.77666 0.76771 0.0
C548 C 0.92687 0.84075 0.75741 0.0
C549 C 0.97193 0.81568 0.7266 0.0
C550 C 0.9419 0.81654 0.73619 0.0
C551 C 0.85385 0.81358 0.76537 0.0
C552 C 0.88437 0.81509 0.75523 0.0
H553 H -0.00175 0.74835 0.71321 0.0
H554 H 0.94695 0.74996 0.72832 0.0
H555 H 0.98787 0.86131 0.74991 0.0
H556 H 0.83777 0.87565 0.78703 0.0
H557 H 0.88887 0.87817 0.77098 0.0
C558 C 0.16479 0.01329 0.8765 0.0
C559 C 0.20044 0.01199 0.87313 0.0
C560 C 0.13766 0.98672 0.88647 0.0
C561 C 0.13459 0.92035 0.91553 0.0
H562 H 0.01736 0.88012 0.91416 0.0
C563 C 0.01166 0.78577 0.94798 0.0
C564 C 0.98458 0.79412 0.95541 0.0
C565 C 0.03932 0.81442 0.93861 0.0
C566 C 0.05013 0.8915 0.91468 0.0
H567 H 0.23475 0.9807 0.87687 0.0
H568 H 0.18641 0.93274 0.89361 0.0
H569 H 0.06144 0.92363 0.89557 0.0
H570 H 0.96517 0.83885 0.95899 0.0
H571 H 0.01305 0.88868 0.94222 0.0
H572 H 0.12257 0.88641 0.93437 0.0
C573 C 0.18006 0.95534 0.88911 0.0
C574 C 0.07545 0.91652 0.90408 0.0
C575 C 0.20757 0.98248 0.87938 0.0
C576 C 0.98604 0.83189 0.95348 0.0
C577 C 0.01309 0.86017 0.94386 0.0
C578 C 0.10913 0.89468 0.92596 0.0
C579 C 0.14531 0.9578 0.89308 0.0
C580 C 0.11805 0.93119 0.90434 0.0
C581 C 0.03968 0.85145 0.93629 0.0
C582 C 0.06676 0.88008 0.92561 0.0
H583 H 0.1589 0.03615 0.87192 0.0
H584 H 0.11157 0.98996 0.88934 0.0
H585 H 0.16731 0.93187 0.91634 0.0
H586 H 0.01103 0.75681 0.94927 0.0
H587 H 0.05949 0.80706 0.93283 0.0
C588 C 0.63013 0.55594 0.99408 0.0
C589 C 0.6484 0.53329 -0.00143 0.0
C590 C 0.59344 0.54949 -1e-05 0.0
C591 C 0.50372 0.47031 0.01914 0.0
H592 H 0.47684 0.55702 0.02297 0.0
C593 C 0.34618 0.43125 0.0387 0.0
C594 C 0.3248 0.44316 0.02965 0.0
C595 C 0.38883 0.44954 0.0379 0.0
C596 C 0.48404 0.53258 0.02199 0.0
H597 H 0.64339 0.48672 0.01282 0.0
H598 H 0.57994 0.47611 0.02347 0.0
H599 H 0.54599 0.57404 0.01568 0.0
H600 H 0.3317 0.48654 0.01369 0.0
H601 H 0.40641 0.51837 0.01222 0.0
H602 H 0.44191 0.42881 0.02523 0.0
C603 C 0.59333 0.49832 0.0152 0.0
C604 C 0.52352 0.54223 0.01775 0.0
C605 C 0.62972 0.50443 0.00916 0.0
C606 C 0.34731 0.47666 0.02078 0.0
C607 C 0.39013 0.4949 0.01994 0.0
C608 C 0.46457 0.46078 0.02347 0.0
C609 C 0.57437 0.52035 0.01056 0.0
C610 C 0.53365 0.51108 0.0161 0.0
C611 C 0.41099 0.48002 0.02801 0.0
C612 C 0.45409 0.49167 0.02479 0.0
H613 H 0.64331 0.57752 0.98565 0.0
H614 H 0.57933 0.56633 0.99593 0.0
H615 H 0.50993 0.44534 0.01769 0.0
H616 H 0.32974 0.40595 0.04581 0.0
H617 H 0.40423 0.43814 0.04448 0.0
C618 C 0.86015 0.34398 0.18952 0.0
C619 C 0.878 0.32313 0.19592 0.0
C620 C 0.88177 0.38695 0.18869 0.0
C621 C 0.97735 0.48131 0.20054 0.0
H622 H 0.97858 0.51767 0.16308 0.0
C623 C 0.11639 0.62258 0.1763 0.0
C624 C 0.10873 0.64785 0.16763 0.0
C625 C 0.08373 0.58646 0.1817 0.0
C626 C 0.97816 0.50828 0.17366 0.0
H627 H 0.93071 0.33118 0.20767 0.0
H628 H 0.96836 0.40539 0.20604 0.0
H629 H 0.92716 0.44842 0.16983 0.0
H630 H 0.06134 0.65467 0.15731 0.0
H631 H 0.00421 0.59176 0.16681 0.0
H632 H 0.02987 0.5408 0.20409 0.0
C633 C 0.93775 0.38899 0.20168 0.0
C634 C 0.94849 0.46856 0.17757 0.0
C635 C 0.9162 0.34621 0.20252 0.0
C636 C 0.06797 0.63631 0.16432 0.0
C637 C 0.03534 0.6001 0.16963 0.0
C638 C 0.00724 0.52097 0.19659 0.0
C639 C 0.92158 0.40983 0.19427 0.0
C640 C 0.94835 0.45418 0.19096 0.0
C641 C 0.04286 0.57464 0.1783 0.0
C642 C 0.00852 0.53451 0.18302 0.0
H643 H 0.83064 0.32714 0.18441 0.0
H644 H 0.86806 0.40213 0.18315 0.0
H645 H 0.9777 0.47149 0.21101 0.0
H646 H 0.14764 0.63065 0.17882 0.0
H647 H 0.09052 0.56708 0.18815 0.0
C648 C 0.45167 0.10221 0.34438 0.0
C649 C 0.47564 0.12463 0.333 0.0
C650 C 0.45679 0.0711 0.3503 0.0
C651 C 0.53262 0.0387 0.3548 0.0
H652 H 0.44076 0.92756 0.35855 0.0
C653 C 0.5161 0.87223 0.35596 0.0
C654 C 0.54942 0.8815 0.36471 0.0
C655 C 0.4994 0.89822 0.35547 0.0
C656 C 0.46657 0.95854 0.35767 0.0
H657 H 0.52491 0.13297 0.31931 0.0
H658 H 0.53452 0.07958 0.32987 0.0
H659 H 0.4287 0.98269 0.35055 0.0
H660 H 0.58768 0.9217 0.38108 0.0
H661 H 0.55805 0.96639 0.38041 0.0
H662 H 0.57079 0.01495 0.36144 0.0
C663 C 0.51134 0.08568 0.33406 0.0
C664 C 0.45967 0.99002 0.35317 0.0
C665 C 0.50583 0.11627 0.32802 0.0
C666 C 0.56246 0.91423 0.37407 0.0
C667 C 0.54562 0.93991 0.37365 0.0
C668 C 0.53944 0.00753 0.35943 0.0
C669 C 0.48671 0.06263 0.34518 0.0
C670 C 0.49284 0.03014 0.35139 0.0
C671 C 0.51565 0.93358 0.36379 0.0
C672 C 0.50665 0.96695 0.36068 0.0
H673 H 0.42944 0.10896 0.34891 0.0
H674 H 0.43794 0.05419 0.35903 0.0
H675 H 0.55865 0.06945 0.35361 0.0
H676 H 0.50544 0.8472 0.34864 0.0
H677 H 0.47629 0.89254 0.34777 0.0
C678 C 0.35847 0.42684 0.49687 0.0
C679 C 0.34824 0.45678 0.50055 0.0
C680 C 0.39393 0.42855 0.50211 0.0
C681 C 0.47319 0.47532 0.52925 0.0
H682 H 0.54564 0.47103 0.50167 0.0
C683 C 0.64775 0.56082 0.53462 0.0
C684 C 0.67136 0.5472 0.52752 0.0
C685 C 0.60497 0.53875 0.53394 0.0
C686 C 0.52551 0.47123 0.50962 0.0
H687 H 0.36683 0.51205 0.51243 0.0
H688 H 0.42896 0.51513 0.52168 0.0
H689 H 0.47624 0.4537 0.4953 0.0
H690 H 0.6684 0.49756 0.51524 0.0
H691 H 0.59334 0.45849 0.51424 0.0
H692 H 0.52284 0.49387 0.5435 0.0
C693 C 0.40918 0.48987 0.51495 0.0
C694 C 0.48571 0.46146 0.50593 0.0
C695 C 0.37387 0.48832 0.50961 0.0
C696 C 0.65111 0.50905 0.52074 0.0
C697 C 0.6081 0.48685 0.52007 0.0
C698 C 0.51291 0.48475 0.53298 0.0
C699 C 0.41986 0.4603 0.51111 0.0
C700 C 0.45961 0.46469 0.5156 0.0
C701 C 0.58462 0.50236 0.52619 0.0
C702 C 0.54006 0.48422 0.52309 0.0
H703 H 0.33982 0.40289 0.48956 0.0
H704 H 0.40144 0.40544 0.49894 0.0
H705 H 0.45344 0.47738 0.53696 0.0
H706 H 0.66234 0.58988 0.54007 0.0
H707 H 0.58811 0.5519 0.53872 0.0
C708 C 0.87761 0.38668 0.66132 0.0
C709 C 0.87205 0.3487 0.66582 0.0
C710 C 0.90813 0.42333 0.66708 0.0
C711 C 0.00694 0.47021 0.68478 0.0
H712 H 0.98001 0.55469 0.69357 0.0
C713 C 0.0815 0.64936 0.70517 0.0
C714 C 0.11434 0.66886 0.69584 0.0
C715 C 0.05577 0.60683 0.70483 0.0
C716 C 0.98805 0.53128 0.69142 0.0
H717 H 0.89286 0.31962 0.6806 0.0
H718 H 0.94722 0.38387 0.69031 0.0
H719 H 0.92594 0.48726 0.68626 0.0
H720 H 0.14853 0.65877 0.67981 0.0
H721 H 0.10311 0.58438 0.67906 0.0
H722 H 0.06944 0.51491 0.68962 0.0
C723 C 0.92822 0.38503 0.68212 0.0
C724 C 0.95708 0.49279 0.68706 0.0
C725 C 0.8973 0.34824 0.67645 0.0
C726 C 0.12342 0.6446 0.68712 0.0
C727 C 0.09739 0.60193 0.6867 0.0
C728 C 0.03815 0.50901 0.68906 0.0
C729 C 0.93386 0.42291 0.6775 0.0
C730 C 0.96629 0.46215 0.68344 0.0
C731 C 0.06211 0.58293 0.69507 0.0
C732 C 0.02907 0.54015 0.69223 0.0
H733 H 0.8587 0.38819 0.65317 0.0
H734 H 0.91202 0.45213 0.66322 0.0
H735 H 0.01485 0.44709 0.682 0.0
H736 H 0.07414 0.66723 0.71217 0.0
H737 H 0.02942 0.59292 0.71166 0.0
C738 C 0.49742 0.85916 0.84199 0.0
C739 C 0.52728 0.8708 0.83167 0.0
C740 C 0.48934 0.88827 0.84794 0.0
C741 C 0.52955 0.00083 0.85124 0.0
H742 H 0.41428 0.96633 0.85593 0.0
C743 C 0.46367 0.11101 0.85325 0.0
C744 C 0.42778 0.09874 0.861 0.0
C745 C 0.48145 0.08599 0.85265 0.0
C746 C 0.44669 0.97638 0.85498 0.0
H747 H 0.57102 0.92125 0.819 0.0
H748 H 0.55682 0.97215 0.82927 0.0
H749 H 0.43373 0.91644 0.84897 0.0
H750 H 0.38508 0.05324 0.8754 0.0
H751 H 0.41658 0.01027 0.87461 0.0
H752 H 0.54214 0.06131 0.85682 0.0
C753 C 0.54064 0.94097 0.83318 0.0
C754 C 0.45786 0.94768 0.85096 0.0
C755 C 0.54882 0.91188 0.8273 0.0
C756 C 0.41235 0.06315 0.86915 0.0
C757 C 0.43026 0.03841 0.86864 0.0
C758 C 0.51832 0.02968 0.85524 0.0
C759 C 0.51054 0.92945 0.84349 0.0
C760 C 0.49935 0.9596 0.84888 0.0
C761 C 0.46376 0.04851 0.85988 0.0
C762 C 0.4767 0.01781 0.857 0.0
H763 H 0.48031 0.82754 0.84546 0.0
H764 H 0.46625 0.87843 0.85595 0.0
H765 H 0.56184 0.01089 0.84989 0.0
H766 H 0.47625 0.13827 0.84686 0.0
H767 H 0.50723 0.09462 0.84579 0.0
C768 C 0.44996 0.3459 0.81751 0.0
C769 C 0.47226 0.34394 0.82885 0.0
C770 C 0.45835 0.38388 0.81215 0.0
C771 C 0.54062 0.49107 0.80972 0.0
H772 H 0.45381 0.51654 0.80326 0.0
C773 C 0.53135 0.64595 0.80561 0.0
C774 C 0.56637 0.669 0.7974 0.0
C775 C 0.51399 0.60328 0.80665 0.0
C776 C 0.47829 0.50972 0.80495 0.0
H777 H 0.52157 0.38032 0.84318 0.0
H778 H 0.53657 0.44643 0.83369 0.0
H779 H 0.43638 0.44769 0.81121 0.0
H780 H 0.60763 0.6651 0.78262 0.0
H781 H 0.57695 0.59083 0.78427 0.0
H782 H 0.58266 0.55298 0.8039 0.0
C783 C 0.5124 0.4186 0.82903 0.0
C784 C 0.46833 0.47035 0.80941 0.0
C785 C 0.50378 0.38073 0.83446 0.0
C786 C 0.58109 0.64823 0.78922 0.0
C787 C 0.56364 0.60572 0.7902 0.0
C788 C 0.55052 0.53012 0.80517 0.0
C789 C 0.48974 0.42057 0.81784 0.0
C790 C 0.49953 0.46097 0.81208 0.0
C791 C 0.53126 0.58307 0.79944 0.0
C792 C 0.51956 0.54011 0.8029 0.0
H793 H 0.42666 0.31826 0.81255 0.0
H794 H 0.44092 0.38456 0.80336 0.0
H795 H 0.56525 0.48454 0.81155 0.0
H796 H 0.5193 0.6611 0.81202 0.0
H797 H 0.48904 0.58664 0.81387 0.0
C798 C 0.86944 0.52402 0.97089 0.0
C799 C 0.88817 0.56417 0.96556 0.0
C800 C 0.89093 0.50249 0.97121 0.0
C801 C 0.98707 0.50543 0.95927 0.0
H802 H 0.98505 0.46273 0.9958 0.0
C803 C 0.12364 0.49721 0.98275 0.0
C804 C 0.11534 0.46339 0.99106 0.0
C805 C 0.09143 0.50158 0.97745 0.0
C806 C 0.98552 0.47376 0.98545 0.0
H807 H 0.94261 0.61166 0.95527 0.0
H808 H 0.97998 0.57461 0.956 0.0
H809 H 0.93458 0.48246 0.98968 0.0
H810 H 0.06715 0.40843 0.00081 0.0
H811 H 0.01085 0.41558 0.99136 0.0
H812 H 0.03937 0.4984 0.95533 0.0
C813 C 0.94878 0.55949 0.9599 0.0
C814 C 0.95642 0.48495 0.98191 0.0
C815 C 0.92741 0.58095 0.95959 0.0
C816 C 0.07434 0.43408 0.99404 0.0
C817 C 0.04215 0.43847 0.98879 0.0
C818 C 0.01631 0.49438 0.96284 0.0
C819 C 0.93144 0.52065 0.96617 0.0
C820 C 0.95753 0.50197 0.96891 0.0
C821 C 0.05033 0.47249 0.98055 0.0
C822 C 0.01646 0.4794 0.97609 0.0
H823 H 0.83914 0.5101 0.97549 0.0
H824 H 0.87646 0.4723 0.97591 0.0
H825 H 0.98836 0.51784 0.9491 0.0
H826 H 0.15507 0.5205 0.98049 0.0
H827 H 0.09877 0.52854 0.97135 0.0
C828 C 0.34376 0.86821 0.13868 0.0
C829 C 0.32067 0.87956 0.13023 0.0
C830 C 0.38666 0.89262 0.13915 0.0
C831 C 0.46145 0.00126 0.13534 0.0
H832 H 0.54278 0.96865 0.14221 0.0
C833 C 0.62732 0.12233 0.1486 0.0
C834 C 0.64626 0.11236 0.15917 0.0
C835 C 0.59092 0.09191 0.14261 0.0
C836 C 0.52036 0.97822 0.14038 0.0
H837 H 0.32449 0.92219 0.11444 0.0
H838 H 0.39911 0.96408 0.11508 0.0
H839 H 0.47293 0.91681 0.13547 0.0
H840 H 0.64175 0.06309 0.17199 0.0
H841 H 0.57779 0.01007 0.16179 0.0
H842 H 0.5076 0.06201 0.14081 0.0
C843 C 0.38416 0.93719 0.12163 0.0
C844 C 0.48045 0.94854 0.13647 0.0
C845 C 0.34144 0.91306 0.12122 0.0
C846 C 0.62841 0.0714 0.16358 0.0
C847 C 0.59169 0.04101 0.15772 0.0
C848 C 0.50104 0.03072 0.13934 0.0
C849 C 0.40703 0.92853 0.13113 0.0
C850 C 0.45051 0.95976 0.134 0.0
C851 C 0.57216 0.05098 0.14728 0.0
C852 C 0.53097 0.01963 0.14204 0.0
H853 H 0.32859 0.84257 0.14574 0.0
H854 H 0.40345 0.88514 0.14658 0.0
H855 H 0.43888 0.01083 0.13386 0.0
H856 H 0.64062 0.15372 0.14499 0.0
H857 H 0.57721 0.10064 0.13443 0.0
C858 C 0.48969 0.60779 0.33228 0.0
C859 C 0.52104 0.64626 0.32768 0.0
C860 C 0.48421 0.57164 0.32629 0.0
C861 C 0.53674 0.52713 0.30769 0.0
H862 H 0.42579 0.44221 0.2986 0.0
C863 C 0.43357 0.34947 0.28596 0.0
C864 C 0.4463 0.32936 0.29525 0.0
C865 C 0.45061 0.39201 0.28653 0.0
C866 C 0.45711 0.46578 0.30084 0.0
H867 H 0.56957 0.67669 0.31249 0.0
H868 H 0.56097 0.61337 0.30242 0.0
H869 H 0.43818 0.50873 0.30662 0.0
H870 H 0.48994 0.33831 0.31137 0.0
H871 H 0.51939 0.41276 0.31251 0.0
H872 H 0.55537 0.4834 0.30227 0.0
C873 C 0.54117 0.61145 0.31085 0.0
C874 C 0.46406 0.50371 0.30559 0.0
C875 C 0.54633 0.64772 0.31674 0.0
C876 C 0.47951 0.353 0.30409 0.0
C877 C 0.49639 0.39568 0.30474 0.0
C878 C 0.52971 0.48884 0.30304 0.0
C879 C 0.51 0.57311 0.31556 0.0
C880 C 0.50376 0.53448 0.3093 0.0
C881 C 0.48045 0.41523 0.29648 0.0
C882 C 0.48967 0.45759 0.29974 0.0
H883 H 0.4696 0.60553 0.34066 0.0
H884 H 0.46008 0.54243 0.33018 0.0
H885 H 0.56765 0.5504 0.31053 0.0
H886 H 0.40844 0.33204 0.27888 0.0
H887 H 0.43845 0.40638 0.2798 0.0
C888 C 0.88071 0.50961 0.48015 0.0
C889 C 0.88883 0.53576 0.49146 0.0
C890 C 0.91235 0.50591 0.47401 0.0
C891 C 0.02677 0.55175 0.47312 0.0
H892 H 0.99741 0.44083 0.46267 0.0
C893 C 0.13796 0.48679 0.46991 0.0
C894 C 0.12843 0.45521 0.46033 0.0
C895 C 0.11369 0.5054 0.4707 0.0
C896 C 0.00611 0.4722 0.46527 0.0
H897 H 0.93595 0.5779 0.50546 0.0
H898 H 0.99109 0.5707 0.49506 0.0
H899 H 0.94428 0.45488 0.47022 0.0
H900 H 0.0898 0.42227 0.44291 0.0
H901 H 0.04813 0.45521 0.44414 0.0
H902 H 0.08926 0.56819 0.46879 0.0
C903 C 0.96073 0.55421 0.49052 0.0
C904 C 0.97551 0.48032 0.4696 0.0
C905 C 0.92913 0.55836 0.49651 0.0
C906 C 0.09748 0.44609 0.45054 0.0
C907 C 0.07346 0.46478 0.45128 0.0
C908 C 0.05759 0.54346 0.4689 0.0
C909 C 0.95267 0.52755 0.47928 0.0
C910 C 0.98537 0.5201 0.47371 0.0
C911 C 0.07976 0.4928 0.46188 0.0
C912 C 0.04754 0.50348 0.46502 0.0
H913 H 0.84983 0.49203 0.47605 0.0
H914 H 0.90504 0.4857 0.46522 0.0
H915 H 0.03547 0.58289 0.47603 0.0
H916 H 0.1616 0.49444 0.4776 0.0
H917 H 0.11934 0.52697 0.47896 0.0
C918 C 0.38792 0.87561 0.6618 0.0
C919 C 0.34967 0.86833 0.65688 0.0
C920 C 0.42436 0.90638 0.656 0.0
C921 C 0.46945 0.00405 0.63807 0.0
H922 H 0.55609 0.98001 0.6295 0.0
C923 C 0.64904 0.0823 0.61799 0.0
C924 C 0.66823 0.11411 0.62769 0.0
C925 C 0.60654 0.0564 0.61818 0.0
C926 C 0.53205 0.98721 0.6316 0.0
H927 H 0.32 0.8859 0.64124 0.0
H928 H 0.38388 0.94095 0.63153 0.0
H929 H 0.48899 0.92468 0.63665 0.0
H930 H 0.65772 0.14657 0.64422 0.0
H931 H 0.58324 0.10083 0.64468 0.0
H932 H 0.51331 0.06705 0.63348 0.0
C933 C 0.38533 0.92309 0.64005 0.0
C934 C 0.49379 0.95554 0.63583 0.0
C935 C 0.34876 0.89181 0.64573 0.0
C936 C 0.64374 0.12226 0.63663 0.0
C937 C 0.60107 0.09606 0.63688 0.0
C938 C 0.50808 0.03599 0.63397 0.0
C939 C 0.42342 0.93066 0.64517 0.0
C940 C 0.46238 0.96374 0.63934 0.0
C941 C 0.58242 0.06159 0.62815 0.0
C942 C 0.53992 0.0279 0.63086 0.0
H943 H 0.38978 0.85804 0.67033 0.0
H944 H 0.45339 0.91175 0.66018 0.0
H945 H 0.44568 0.01111 0.64078 0.0
H946 H 0.66713 0.07572 0.61082 0.0
H947 H 0.59285 0.03064 0.61112 0.0
C948 C 0.3108 0.255 0.88825 0.0
C949 C 0.31963 0.2235 0.89089 0.0
C950 C 0.29585 0.26937 0.89881 0.0
C951 C 0.23667 0.23194 0.9305 0.0
H952 H 0.27901 0.34611 0.94037 0.0
C953 C 0.20741 0.28038 0.98313 0.0
C954 C 0.2041 0.31588 0.9843 0.0
C955 C 0.21595 0.26892 0.97045 0.0
C956 C 0.26624 0.31412 0.93756 0.0
H957 H 0.32328 0.18457 0.90659 0.0
H958 H 0.29708 0.20943 0.92503 0.0
H959 H 0.30809 0.32897 0.92061 0.0
H960 H 0.2048 0.36591 0.97286 0.0
H961 H 0.21923 0.34546 0.95062 0.0
H962 H 0.19508 0.21679 0.9474 0.0
C963 C 0.30086 0.22251 0.91482 0.0
C964 C 0.28305 0.30439 0.9263 0.0
C965 C 0.31603 0.20849 0.90434 0.0
C966 C 0.20733 0.33846 0.97233 0.0
C967 C 0.21592 0.32696 0.95961 0.0
C968 C 0.21967 0.24162 0.94164 0.0
C969 C 0.28946 0.25215 0.91207 0.0
C970 C 0.26917 0.26317 0.92295 0.0
C971 C 0.22123 0.29259 0.9586 0.0
C972 C 0.23504 0.28274 0.94555 0.0
H973 H 0.31353 0.26696 0.87791 0.0
H974 H 0.28747 0.29243 0.89648 0.0
H975 H 0.22484 0.19991 0.92792 0.0
H976 H 0.20502 0.26221 0.99212 0.0
H977 H 0.22029 0.24253 0.97008 0.0
C978 C 0.04824 0.28348 0.05483 0.0
C979 C 0.08057 0.32432 0.0545 0.0
C980 C 0.01873 0.27026 0.06524 0.0
C981 C 0.95253 0.25239 0.0867 0.0
H982 H 0.00225 0.28728 0.12279 0.0
C983 C 0.86274 0.21193 0.1387 0.0
C984 C 0.88144 0.20396 0.14992 0.0
C985 C 0.88283 0.22392 0.12597 0.0
C986 C 0.98793 0.27706 0.11279 0.0
H987 H 0.10697 0.3839 0.0643 0.0
H988 H 0.05488 0.36107 0.08247 0.0
H989 H 0.04405 0.31671 0.10232 0.0
H990 H 0.93407 0.19866 0.15622 0.0
H991 H 0.96865 0.21901 0.13405 0.0
H992 H 0.8965 0.2119 0.09734 0.0
C993 C 0.05242 0.33917 0.07473 0.0
C994 C 0.01173 0.29443 0.10105 0.0
C995 C 0.08194 0.35237 0.06429 0.0
C996 C 0.91905 0.20514 0.14786 0.0
C997 C 0.93903 0.21706 0.13518 0.0
C998 C 0.92856 0.23509 0.0985 0.0
C999 C 0.02126 0.29767 0.07555 0.0
C1000 C 0.99447 0.28199 0.08788 0.0
C1001 C 0.92188 0.22807 0.12428 0.0
C1002 C 0.94628 0.24681 0.11165 0.0
H1003 H 0.04689 0.26138 0.04737 0.0
H1004 H 0.9954 0.23805 0.06566 0.0
H1005 H 0.93837 0.24236 0.07667 0.0
H1006 H 0.83372 0.2112 0.13993 0.0
H1007 H 0.86887 0.23214 0.11773 0.0
C1008 C 0.70664 0.91619 0.31507 0.0
C1009 C 0.66919 0.8797 0.31721 0.0
C1010 C 0.71705 0.93407 0.30205 0.0
C1011 C 0.66889 0.94158 0.27032 0.0
H1012 H 0.78235 0.00394 0.25826 0.0
C1013 C 0.72911 0.04735 0.22129 0.0
C1014 C 0.76278 0.08634 0.22418 0.0
C1015 C 0.71402 0.01663 0.23141 0.0
C1016 C 0.7505 0.98651 0.26148 0.0
H1017 H 0.61426 0.83214 0.30718 0.0
H1018 H 0.63273 0.86351 0.28431 0.0
H1019 H 0.76445 0.95708 0.27773 0.0
H1020 H 0.80487 0.12517 0.24002 0.0
H1021 H 0.77904 0.07162 0.25759 0.0
H1022 H 0.65537 0.97193 0.2541 0.0
C1023 C 0.65371 0.87842 0.2928 0.0
C1024 C 0.74025 0.95976 0.27262 0.0
C1025 C 0.64331 0.86035 0.30587 0.0
C1026 C 0.77948 0.095 0.23749 0.0
C1027 C 0.7648 0.06441 0.2475 0.0
C1028 C 0.67916 0.96821 0.25905 0.0
C1029 C 0.69032 0.91593 0.29082 0.0
C1030 C 0.69961 0.93813 0.27749 0.0
C1031 C 0.73272 0.02468 0.24445 0.0
C1032 C 0.72029 0.99193 0.25488 0.0
H1033 H 0.72737 0.93185 0.32356 0.0
H1034 H 0.74525 0.96323 0.30094 0.0
H1035 H 0.63733 0.92555 0.27387 0.0
H1036 H 0.71575 0.04015 0.21107 0.0
H1037 H 0.68903 0.98623 0.22889 0.0
C1038 C 0.67733 0.77779 0.40411 0.0
C1039 C 0.66942 0.76218 0.39066 0.0
C1040 C 0.69459 0.76339 0.41372 0.0
C1041 C 0.70975 0.6801 0.42425 0.0
H1042 H 0.80688 0.76713 0.44208 0.0
C1043 C 0.78662 0.64743 0.4703 0.0
C1044 C 0.79301 0.6733 0.48163 0.0
C1045 C 0.77815 0.65736 0.45727 0.0
C1046 C 0.77986 0.74245 0.43719 0.0
H1047 H 0.67016 0.71727 0.37687 0.0
H1048 H 0.69973 0.69094 0.394 0.0
H1049 H 0.77517 0.78367 0.42309 0.0
H1050 H 0.7982 0.7311 0.48799 0.0
H1051 H 0.78335 0.74819 0.46546 0.0
H1052 H 0.71307 0.63915 0.43887 0.0
C1053 C 0.69315 0.71488 0.39694 0.0
C1054 C 0.7618 0.75192 0.42633 0.0
C1055 C 0.67617 0.72972 0.38721 0.0
C1056 C 0.79324 0.71039 0.47951 0.0
C1057 C 0.78499 0.72034 0.46653 0.0
C1058 C 0.72766 0.67061 0.43525 0.0
C1059 C 0.70375 0.73269 0.41011 0.0
C1060 C 0.72587 0.72107 0.42008 0.0
C1061 C 0.77633 0.69349 0.45533 0.0
C1062 C 0.76209 0.70197 0.44213 0.0
H1063 H 0.67161 0.80233 0.40704 0.0
H1064 H 0.70166 0.77692 0.42392 0.0
H1065 H 0.68204 0.65585 0.41955 0.0
H1066 H 0.78631 0.61864 0.47159 0.0
H1067 H 0.77205 0.6363 0.4488 0.0
C1068 C 0.94649 0.68172 0.55367 0.0
C1069 C 0.90692 0.6749 0.55652 0.0
C1070 C 0.97704 0.69812 0.56383 0.0
C1071 C 0.00437 0.76315 0.59439 0.0
H1072 H 0.07062 0.71548 0.60552 0.0
C1073 C 0.07914 0.79116 0.6474 0.0
C1074 C 0.11663 0.79183 0.649 0.0
C1075 C 0.06011 0.78338 0.63456 0.0
C1076 C 0.05306 0.72976 0.60233 0.0
H1077 H 0.867 0.67646 0.57231 0.0
H1078 H 0.92022 0.7054 0.58997 0.0
H1079 H 0.02385 0.68643 0.58591 0.0
H1080 H 0.16484 0.78735 0.63817 0.0
H1081 H 0.13157 0.77405 0.61566 0.0
H1082 H 0.0328 0.80603 0.61084 0.0
C1083 C 0.92802 0.699 0.57987 0.0
C1084 C 0.0262 0.71298 0.59115 0.0
C1085 C 0.89761 0.68235 0.56981 0.0
C1086 C 0.13582 0.7868 0.63731 0.0
C1087 C 0.11667 0.77892 0.62442 0.0
C1088 C 0.03135 0.78008 0.60545 0.0
C1089 C 0.96825 0.70803 0.57688 0.0
C1090 C 0.00069 0.72874 0.58739 0.0
C1091 C 0.07815 0.77619 0.62299 0.0
C1092 C 0.055 0.76275 0.60984 0.0
H1093 H 0.95421 0.67605 0.54346 0.0
H1094 H 0.00783 0.7046 0.56133 0.0
H1095 H 0.98558 0.77637 0.59149 0.0
H1096 H 0.06355 0.79504 0.65617 0.0
H1097 H 0.03023 0.78104 0.63387 0.0
C1098 C 0.26977 0.91131 0.73012 0.0
C1099 C 0.24616 0.91393 0.71942 0.0
C1100 C 0.28519 0.94113 0.74047 0.0
C1101 C 0.27677 0.9831 0.76572 0.0
H1102 H 0.31707 0.09982 0.76139 0.0
C1103 C 0.27749 0.07746 0.81144 0.0
C1104 C 0.31536 0.11288 0.81421 0.0
C1105 C 0.27011 0.05831 0.79863 0.0
C1106 C 0.30595 0.0673 0.76272 0.0
H1107 H 0.22175 0.95016 0.71057 0.0
H1108 H 0.24842 0.00225 0.72869 0.0
H1109 H 0.30842 0.05747 0.74105 0.0
H1110 H 0.37362 0.15823 0.80527 0.0
H1111 H 0.36065 0.12448 0.78286 0.0
H1112 H 0.27417 0.99255 0.78728 0.0
C1113 C 0.25558 0.97769 0.72906 0.0
C1114 C 0.30092 0.0431 0.75111 0.0
C1115 C 0.24018 0.94787 0.71874 0.0
C1116 C 0.34419 0.13084 0.80349 0.0
C1117 C 0.3368 0.11155 0.79064 0.0
C1118 C 0.28154 0.00712 0.77725 0.0
C1119 C 0.27698 0.97382 0.74029 0.0
C1120 C 0.28607 0.00068 0.75251 0.0
C1121 C 0.30044 0.07412 0.78833 0.0
C1122 C 0.2957 0.04934 0.77587 0.0
H1123 H 0.27422 0.88503 0.73091 0.0
H1124 H 0.30199 0.93764 0.74893 0.0
H1125 H 0.26465 0.95043 0.76713 0.0
H1126 H 0.25435 0.06318 0.8194 0.0
H1127 H 0.24134 0.03003 0.79698 0.0
C1128 C 0.65942 0.79415 0.854 0.0
C1129 C 0.68511 0.80016 0.84264 0.0
C1130 C 0.66999 0.78702 0.86712 0.0
C1131 C 0.75597 0.79076 0.88733 0.0
H1132 H 0.6696 0.69431 0.90567 0.0
C1133 C 0.79197 0.69297 0.92298 0.0
C1134 C 0.77407 0.68448 0.93612 0.0
C1135 C 0.77844 0.70959 0.91283 0.0
C1136 C 0.69383 0.72163 0.90076 0.0
H1137 H 0.74342 0.80638 0.83634 0.0
H1138 H 0.76157 0.7937 0.85903 0.0
H1139 H 0.6527 0.72359 0.88593 0.0
H1140 H 0.72611 0.6835 0.94876 0.0
H1141 H 0.70143 0.71194 0.93071 0.0
H1142 H 0.79733 0.78751 0.90174 0.0
C1143 C 0.73336 0.79462 0.85791 0.0
C1144 C 0.68421 0.73856 0.88952 0.0
C1145 C 0.72279 0.80164 0.84484 0.0
C1146 C 0.7404 0.69006 0.93868 0.0
C1147 C 0.72647 0.70639 0.92842 0.0
C1148 C 0.76558 0.77365 0.89846 0.0
C1149 C 0.70657 0.78606 0.86912 0.0
C1150 C 0.71542 0.77258 0.88243 0.0
C1151 C 0.74631 0.71746 0.91556 0.0
C1152 C 0.73481 0.73825 0.90501 0.0
H1153 H 0.63024 0.79303 0.85267 0.0
H1154 H 0.64901 0.7811 0.8756 0.0
H1155 H 0.78056 0.81749 0.88229 0.0
H1156 H 0.81745 0.68805 0.92073 0.0
H1157 H 0.79356 0.71693 0.90289 0.0
C1158 C 0.85623 0.64912 0.02352 0.0
C1159 C 0.87591 0.67833 0.01302 0.0
C1160 C 0.87191 0.65717 0.03693 0.0
C1161 C 0.94411 0.73971 0.06027 0.0
H1162 H 0.96505 0.6559 0.07501 0.0
C1163 C 0.04122 0.76967 0.10895 0.0
C1164 C 0.07307 0.76068 0.10754 0.0
C1165 C 0.0089 0.75421 0.09951 0.0
C1166 C 0.95921 0.67947 0.07106 0.0
H1167 H 0.92561 0.73994 0.00855 0.0
H1168 H 0.95272 0.75398 0.03189 0.0
H1169 H 0.92244 0.64132 0.05446 0.0
H1170 H 0.09604 0.72791 0.09556 0.0
H1171 H 0.03947 0.70068 0.07896 0.0
H1172 H 0.98249 0.77859 0.07641 0.0
C1173 C 0.92527 0.72485 0.02979 0.0
C1174 C 0.93447 0.671 0.0594 0.0
C1175 C 0.90987 0.7167 0.01639 0.0
C1176 C 0.07135 0.7346 0.09693 0.0
C1177 C 0.03899 0.71908 0.08747 0.0
C1178 C 0.96867 0.74812 0.07196 0.0
C1179 C 0.9072 0.69474 0.0401 0.0
C1180 C 0.92762 0.70144 0.05367 0.0
C1181 C 0.008 0.72962 0.08846 0.0
C1182 C 0.97735 0.71845 0.07727 0.0
H1183 H 0.82994 0.61927 0.02127 0.0
H1184 H 0.85715 0.63359 0.04472 0.0
H1185 H 0.93906 0.76362 0.05614 0.0
H1186 H 0.0421 0.78979 0.11711 0.0
H1187 H 0.98523 0.76244 0.10064 0.0
C1188 C 0.21102 0.86234 0.1888 0.0
C1189 C 0.20255 0.88125 0.17777 0.0
C1190 C 0.22028 0.88052 0.20183 0.0
C1191 C 0.21426 0.95741 0.2237 0.0
H1192 H 0.31767 0.97588 0.23895 0.0
C1193 C 0.28032 0.05045 0.27326 0.0
C1194 C 0.32091 0.08288 0.27193 0.0
C1195 C 0.2637 0.01898 0.26352 0.0
C1196 C 0.28863 0.97071 0.23485 0.0
H1197 H 0.19453 0.93261 0.17198 0.0
H1198 H 0.21023 0.96402 0.19477 0.0
H1199 H 0.28917 0.93274 0.21849 0.0
H1200 H 0.37654 0.10757 0.25978 0.0
H1201 H 0.34774 0.05207 0.24275 0.0
H1202 H 0.21434 0.99643 0.23975 0.0
C1203 C 0.20991 0.93527 0.19331 0.0
C1204 C 0.27216 0.94579 0.22323 0.0
C1205 C 0.20111 0.91737 0.18024 0.0
C1206 C 0.34539 0.08241 0.26112 0.0
C1207 C 0.32885 0.05075 0.25139 0.0
C1208 C 0.23051 0.98197 0.23538 0.0
C1209 C 0.22066 0.9176 0.20412 0.0
C1210 C 0.23526 0.93964 0.21738 0.0
C1211 C 0.28749 0.01937 0.25229 0.0
C1212 C 0.26826 0.98953 0.2409 0.0
H1213 H 0.21229 0.83444 0.18725 0.0
H1214 H 0.22806 0.86609 0.21005 0.0
H1215 H 0.18568 0.95299 0.21942 0.0
H1216 H 0.26098 0.05035 0.28157 0.0
H1217 H 0.23189 0.99496 0.26453 0.0
C1218 C 0.22801 0.27704 0.43855 0.0
C1219 C 0.23903 0.31862 0.43802 0.0
C1220 C 0.24299 0.26071 0.42873 0.0
C1221 C 0.32032 0.2873 0.40116 0.0
H1222 H 0.23464 0.18865 0.38364 0.0
C1223 C 0.35302 0.21523 0.35388 0.0
C1224 C 0.32657 0.20855 0.34269 0.0
C1225 C 0.34332 0.22303 0.36702 0.0
C1226 C 0.25892 0.21604 0.38849 0.0
H1227 H 0.27502 0.37617 0.42723 0.0
H1228 H 0.30171 0.34783 0.41004 0.0
H1229 H 0.21875 0.21528 0.40423 0.0
H1230 H 0.26804 0.20233 0.33672 0.0
H1231 H 0.25107 0.21567 0.35964 0.0
H1232 H 0.36006 0.28888 0.38507 0.0
C1233 C 0.28191 0.32789 0.41813 0.0
C1234 C 0.24996 0.23111 0.40034 0.0
C1235 C 0.26675 0.34417 0.42794 0.0
C1236 C 0.28917 0.20753 0.34509 0.0
C1237 C 0.27933 0.21497 0.35824 0.0
C1238 C 0.32936 0.27206 0.38935 0.0
C1239 C 0.26927 0.28574 0.4182 0.0
C1240 C 0.28034 0.26737 0.40663 0.0
C1241 C 0.30677 0.22381 0.36926 0.0
C1242 C 0.2985 0.23679 0.38273 0.0
H1243 H 0.20655 0.25686 0.44627 0.0
H1244 H 0.2331 0.22826 0.42913 0.0
H1245 H 0.34438 0.31514 0.40586 0.0
H1246 H 0.38203 0.21609 0.3524 0.0
H1247 H 0.36479 0.22931 0.37537 0.0
C1248 C 0.94225 0.27094 0.6029 0.0
C1249 C 0.90176 0.23979 0.60031 0.0
C1250 C 0.97026 0.28813 0.59201 0.0
C1251 C 0.97597 0.29692 0.55391 0.0
H1252 H 0.08122 0.30211 0.55805 0.0
C1253 C 0.06645 0.29566 0.50716 0.0
C1254 C 0.10784 0.32689 0.50638 0.0
C1255 C 0.04474 0.28807 0.51947 0.0
C1256 C 0.05213 0.30123 0.55682 0.0
H1257 H 0.85777 0.20346 0.58456 0.0
H1258 H 0.90628 0.23304 0.56558 0.0
H1259 H 0.03627 0.28697 0.57811 0.0
H1260 H 0.15971 0.37259 0.5182 0.0
H1261 H 0.12152 0.35878 0.53983 0.0
H1262 H 0.99108 0.30976 0.53258 0.0
C1263 C 0.91673 0.24456 0.57589 0.0
C1264 C 0.02651 0.29281 0.56828 0.0
C1265 C 0.889 0.2274 0.58673 0.0
C1266 C 0.1278 0.34843 0.51844 0.0
C1267 C 0.10601 0.34059 0.53082 0.0
C1268 C 0.00134 0.30501 0.54249 0.0
C1269 C 0.95786 0.2746 0.57841 0.0
C1270 C 0.9877 0.28954 0.56685 0.0
C1271 C 0.06394 0.31131 0.53129 0.0
C1272 C 0.03916 0.30621 0.54376 0.0
H1273 H 0.95252 0.28083 0.61335 0.0
H1274 H 0.00166 0.31149 0.59423 0.0
H1275 H 0.94665 0.29549 0.55253 0.0
H1276 H 0.05018 0.27815 0.49813 0.0
H1277 H 0.01252 0.26466 0.51965 0.0
C1278 C 0.78797 0.07453 0.6758 0.0
C1279 C 0.78991 0.11265 0.67429 0.0
C1280 C 0.77945 0.05512 0.68859 0.0
C1281 C 0.72685 0.04939 0.72105 0.0
H1282 H 0.76967 0.97816 0.73127 0.0
C1283 C 0.68217 0.94346 0.77009 0.0
C1284 C 0.67278 0.9032 0.76698 0.0
C1285 C 0.69722 0.97363 0.75978 0.0
C1286 C 0.75754 0.99802 0.72854 0.0
H1287 H 0.78684 0.16146 0.68523 0.0
H1288 H 0.77244 0.12759 0.70768 0.0
H1289 H 0.80023 0.02545 0.71199 0.0
H1290 H 0.66806 0.86164 0.75073 0.0
H1291 H 0.69469 0.91424 0.73277 0.0
H1292 H 0.68393 0.02135 0.73769 0.0
C1293 C 0.77681 0.11248 0.69887 0.0
C1294 C 0.77494 0.02502 0.7175 0.0
C1295 C 0.78537 0.13199 0.68603 0.0
C1296 C 0.67578 0.89273 0.75334 0.0
C1297 C 0.69113 0.92276 0.74313 0.0
C1298 C 0.70969 0.02257 0.73223 0.0
C1299 C 0.77283 0.07339 0.70022 0.0
C1300 C 0.75894 0.05004 0.71333 0.0
C1301 C 0.70319 0.96369 0.74635 0.0
C1302 C 0.72409 0.99578 0.73576 0.0
H1303 H 0.79138 0.05876 0.667 0.0
H1304 H 0.77611 0.02481 0.68918 0.0
H1305 H 0.71359 0.06803 0.71804 0.0
H1306 H 0.67991 0.95199 0.78057 0.0
H1307 H 0.70612 0.005 0.76245 0.0
loop_
_geom_bond_atom_site_label_1
_geom_bond_atom_site_label_2
_geom_bond_distance
_geom_bond_site_symmetry_2
_ccdc_geom_bond_type
Co0 O3 1.970 . S
Co0 N17 1.989 . S
Co0 O25 1.967 . S
Co0 O32 1.920 . S
Co1 O4 1.966 . S
Co1 N10 2.022 . S
Co1 N18 1.993 . S
Co1 O26 1.941 . S
C2 O3 1.258 . S
C2 O4 1.263 . S
O3 Co0 1.970 . S
O3 C2 1.258 . S
O4 Co1 1.966 . S
O4 C2 1.263 . S
C5 O6 1.235 . S
C5 O32 1.289 . S
O6 C5 1.235 . S
C7 C9 1.400 . S
C7 N10 1.351 . S
C7 C12 1.501 1_554 S
C8 C9 1.387 . S
C8 N11 1.341 . S
C9 C7 1.400 . S
C9 C8 1.387 . S
N10 Co1 2.022 . S
N10 C7 1.351 . S
N10 N11 1.365 . S
N11 C8 1.341 . S
N11 N10 1.365 . S
N11 H31 0.862 . S
C12 C7 1.501 1_556 S
C12 H13 0.961 . S
C12 H14 0.961 . S
C12 H15 0.960 . S
H13 C12 0.961 . S
H14 C12 0.961 . S
H15 C12 0.960 . S
C16 N17 1.342 . S
C16 C20 1.401 . S
C16 C21 1.499 . S
N17 Co0 1.989 . S
N17 C16 1.342 . S
N17 N18 1.388 . S
N18 Co1 1.993 . S
N18 N17 1.388 . S
N18 C19 1.346 . S
C19 N18 1.346 . S
C19 C20 1.396 . S
C19 C29 1.510 . S
C20 C16 1.401 . S
C20 C19 1.396 . S
C21 C16 1.499 . S
C21 H22 0.959 . S
C21 H23 0.960 . S
C21 H24 0.961 . S
H22 C21 0.959 . S
H23 C21 0.960 . S
H24 C21 0.961 . S
O25 Co0 1.967 . S
O25 C33 1.258 . S
O26 Co1 1.941 . S
O26 C33 1.266 . S
H27 C29 0.959 . S
H28 C29 0.961 . S
C29 C19 1.510 . S
C29 H27 0.959 . S
C29 H28 0.961 . S
C29 H30 0.960 . S
H30 C29 0.960 . S
H31 N11 0.862 . S
O32 Co0 1.920 . S
O32 C5 1.289 . S
C33 O25 1.258 . S
C33 O26 1.266 . S
Co34 O37 1.970 . S
Co34 N51 1.989 . S
Co34 O59 1.967 . S
Co34 O66 1.920 . S
Co35 O38 1.966 . S
Co35 N44 2.022 . S
Co35 N52 1.993 . S
Co35 O60 1.941 . S
C36 O37 1.258 . S
C36 O38 1.263 . S
O37 Co34 1.970 . S
O37 C36 1.258 . S
O38 Co35 1.966 . S
O38 C36 1.263 . S
C39 O40 1.235 . S
C39 O66 1.289 . S
O40 C39 1.235 . S
C41 C43 1.400 . S
C41 N44 1.351 . S
C41 C46 1.501 . S
C42 C43 1.387 . S
C42 N45 1.341 . S
C43 C41 1.400 . S
C43 C42 1.387 . S
N44 Co35 2.022 . S
N44 C41 1.351 . S
N44 N45 1.365 . S
N45 C42 1.341 . S
N45 N44 1.365 . S
N45 H65 0.862 . S
C46 C41 1.501 . S
C46 H47 0.961 . S
C46 H48 0.961 . S
C46 H49 0.960 . S
H47 C46 0.961 . S
H48 C46 0.961 . S
H49 C46 0.960 . S
C50 N51 1.342 . S
C50 C54 1.401 . S
C50 C55 1.499 . S
N51 Co34 1.989 . S
N51 C50 1.342 . S
N51 N52 1.388 . S
N52 Co35 1.993 . S
N52 N51 1.388 . S
N52 C53 1.346 . S
C53 N52 1.346 . S
C53 C54 1.396 . S
C53 C63 1.510 . S
C54 C50 1.401 . S
C54 C53 1.396 . S
C55 C50 1.499 . S
C55 H56 0.959 . S
C55 H57 0.960 . S
C55 H58 0.961 . S
H56 C55 0.959 . S
H57 C55 0.960 . S
H58 C55 0.961 . S
O59 Co34 1.967 . S
O59 C67 1.258 . S
O60 Co35 1.941 . S
O60 C67 1.266 . S
H61 C63 0.959 . S
H62 C63 0.961 . S
C63 C53 1.510 . S
C63 H61 0.959 . S
C63 H62 0.961 . S
C63 H64 0.960 . S
H64 C63 0.960 . S
H65 N45 0.862 . S
O66 Co34 1.920 . S
O66 C39 1.289 . S
C67 O59 1.258 . S
C67 O60 1.266 . S
Co68 O71 1.970 . S
Co68 N85 1.989 . S
Co68 O93 1.967 . S
Co68 O100 1.920 . S
Co69 O72 1.966 . S
Co69 N78 2.022 . S
Co69 N86 1.993 . S
Co69 O94 1.941 . S
C70 O71 1.258 . S
C70 O72 1.263 . S
O71 Co68 1.970 . S
O71 C70 1.258 . S
O72 Co69 1.966 . S
O72 C70 1.263 . S
C73 O74 1.235 . S
C73 O100 1.289 . S
O74 C73 1.235 . S
C75 C77 1.400 . S
C75 N78 1.351 . S
C75 C80 1.501 . S
C76 C77 1.387 . S
C76 N79 1.341 . S
C77 C75 1.400 . S
C77 C76 1.387 . S
N78 Co69 2.022 . S
N78 C75 1.351 . S
N78 N79 1.365 . S
N79 C76 1.341 . S
N79 N78 1.365 . S
N79 H99 0.862 . S
C80 C75 1.501 . S
C80 H81 0.961 . S
C80 H82 0.961 . S
C80 H83 0.960 . S
H81 C80 0.961 . S
H82 C80 0.961 . S
H83 C80 0.960 . S
C84 N85 1.342 . S
C84 C88 1.401 . S
C84 C89 1.499 . S
N85 Co68 1.989 . S
N85 C84 1.342 . S
N85 N86 1.388 . S
N86 Co69 1.993 . S
N86 N85 1.388 . S
N86 C87 1.346 . S
C87 N86 1.346 . S
C87 C88 1.396 . S
C87 C97 1.510 . S
C88 C84 1.401 . S
C88 C87 1.396 . S
C89 C84 1.499 . S
C89 H90 0.959 . S
C89 H91 0.960 . S
C89 H92 0.961 . S
H90 C89 0.959 . S
H91 C89 0.960 . S
H92 C89 0.961 . S
O93 Co68 1.967 . S
O93 C101 1.258 . S
O94 Co69 1.941 . S
O94 C101 1.266 . S
H95 C97 0.959 . S
H96 C97 0.961 . S
C97 C87 1.510 . S
C97 H95 0.959 . S
C97 H96 0.961 . S
C97 H98 0.960 . S
H98 C97 0.960 . S
H99 N79 0.862 . S
O100 Co68 1.920 . S
O100 C73 1.289 . S
C101 O93 1.258 . S
C101 O94 1.266 . S
Co102 O105 1.970 . S
Co102 N119 1.989 . S
Co102 O127 1.967 . S
Co102 O134 1.920 . S
Co103 O106 1.966 . S
Co103 N112 2.022 . S
Co103 N120 1.993 . S
Co103 O128 1.941 . S
C104 O105 1.258 . S
C104 O106 1.263 . S
O105 Co102 1.970 . S
O105 C104 1.258 . S
O106 Co103 1.966 . S
O106 C104 1.263 . S
C107 O108 1.235 . S
C107 O134 1.289 . S
O108 C107 1.235 . S
C109 C111 1.400 . S
C109 N112 1.351 . S
C109 C114 1.501 . S
C110 C111 1.387 . S
C110 N113 1.341 . S
C111 C109 1.400 . S
C111 C110 1.387 . S
N112 Co103 2.022 . S
N112 C109 1.351 . S
N112 N113 1.365 . S
N113 C110 1.341 . S
N113 N112 1.365 . S
N113 H133 0.862 . S
C114 C109 1.501 . S
C114 H115 0.961 . S
C114 H116 0.961 . S
C114 H117 0.960 . S
H115 C114 0.961 . S
H116 C114 0.961 . S
H117 C114 0.960 . S
C118 N119 1.342 . S
C118 C122 1.401 . S
C118 C123 1.499 . S
N119 Co102 1.989 . S
N119 C118 1.342 . S
N119 N120 1.388 . S
N120 Co103 1.993 . S
N120 N119 1.388 . S
N120 C121 1.346 . S
C121 N120 1.346 . S
C121 C122 1.396 . S
C121 C131 1.510 . S
C122 C118 1.401 . S
C122 C121 1.396 . S
C123 C118 1.499 . S
C123 H124 0.959 . S
C123 H125 0.960 . S
C123 H126 0.961 . S
H124 C123 0.959 . S
H125 C123 0.960 . S
H126 C123 0.961 . S
O127 Co102 1.967 . S
O127 C135 1.258 . S
O128 Co103 1.941 . S
O128 C135 1.266 . S
H129 C131 0.959 . S
H130 C131 0.961 . S
C131 C121 1.510 . S
C131 H129 0.959 . S
C131 H130 0.961 . S
C131 H132 0.960 . S
H132 C131 0.960 . S
H133 N113 0.862 . S
O134 Co102 1.920 . S
O134 C107 1.289 . S
C135 O127 1.258 . S
C135 O128 1.266 . S
Co136 O139 1.970 . S
Co136 N153 1.989 . S
Co136 O161 1.967 . S
Co136 O168 1.920 . S
Co137 O140 1.966 . S
Co137 N146 2.022 . S
Co137 N154 1.993 . S
Co137 O162 1.941 . S
C138 O139 1.258 . S
C138 O140 1.263 . S
O139 Co136 1.970 . S
O139 C138 1.258 . S
O140 Co137 1.966 . S
O140 C138 1.263 . S
C141 O142 1.235 . S
C141 O168 1.289 . S
O142 C141 1.235 . S
C143 C145 1.400 . S
C143 N146 1.351 . S
C143 C148 1.501 . S
C144 C145 1.387 . S
C144 N147 1.341 . S
C145 C143 1.400 . S
C145 C144 1.387 . S
N146 Co137 2.022 . S
N146 C143 1.351 . S
N146 N147 1.365 . S
N147 C144 1.341 . S
N147 N146 1.365 . S
N147 H167 0.862 . S
C148 C143 1.501 . S
C148 H149 0.961 . S
C148 H150 0.961 . S
C148 H151 0.960 . S
H149 C148 0.961 . S
H150 C148 0.961 . S
H151 C148 0.960 . S
C152 N153 1.342 . S
C152 C156 1.401 . S
C152 C157 1.499 . S
N153 Co136 1.989 . S
N153 C152 1.342 . S
N153 N154 1.388 . S
N154 Co137 1.993 . S
N154 N153 1.388 . S
N154 C155 1.346 . S
C155 N154 1.346 . S
C155 C156 1.396 . S
C155 C165 1.510 . S
C156 C152 1.401 . S
C156 C155 1.396 . S
C157 C152 1.499 . S
C157 H158 0.959 . S
C157 H159 0.960 . S
C157 H160 0.961 . S
H158 C157 0.959 . S
H159 C157 0.960 . S
H160 C157 0.961 . S
O161 Co136 1.967 . S
O161 C169 1.258 . S
O162 Co137 1.941 . S
O162 C169 1.266 . S
H163 C165 0.959 . S
H164 C165 0.961 . S
C165 C155 1.510 . S
C165 H163 0.959 . S
C165 H164 0.961 . S
C165 H166 0.960 . S
H166 C165 0.960 . S
H167 N147 0.862 . S
O168 Co136 1.920 . S
O168 C141 1.289 . S
C169 O161 1.258 . S
C169 O162 1.266 . S
Co170 O173 1.970 . S
Co170 N187 1.989 . S
Co170 O195 1.967 . S
Co170 O202 1.920 . S
Co171 O174 1.966 . S
Co171 N180 2.022 . S
Co171 N188 1.993 . S
Co171 O196 1.941 . S
C172 O173 1.258 . S
C172 O174 1.263 . S
O173 Co170 1.970 . S
O173 C172 1.258 . S
O174 Co171 1.966 . S
O174 C172 1.263 . S
C175 O176 1.235 . S
C175 O202 1.289 . S
O176 C175 1.235 . S
C177 C179 1.400 . S
C177 N180 1.351 . S
C177 C182 1.501 . S
C178 C179 1.387 . S
C178 N181 1.341 . S
C179 C177 1.400 . S
C179 C178 1.387 . S
N180 Co171 2.022 . S
N180 C177 1.351 . S
N180 N181 1.365 . S
N181 C178 1.341 . S
N181 N180 1.365 . S
N181 H201 0.862 . S
C182 C177 1.501 . S
C182 H183 0.961 . S
C182 H184 0.961 . S
C182 H185 0.960 . S
H183 C182 0.961 . S
H184 C182 0.961 . S
H185 C182 0.960 . S
C186 N187 1.342 . S
C186 C190 1.401 . S
C186 C191 1.499 . S
N187 Co170 1.989 . S
N187 C186 1.342 . S
N187 N188 1.388 . S
N188 Co171 1.993 . S
N188 N187 1.388 . S
N188 C189 1.346 . S
C189 N188 1.346 . S
C189 C190 1.396 . S
C189 C199 1.510 . S
C190 C186 1.401 . S
C190 C189 1.396 . S
C191 C186 1.499 . S
C191 H192 0.959 . S
C191 H193 0.960 . S
C191 H194 0.961 . S
H192 C191 0.959 . S
H193 C191 0.960 . S
H194 C191 0.961 . S
O195 Co170 1.967 . S
O195 C203 1.258 . S
O196 Co171 1.941 . S
O196 C203 1.266 . S
H197 C199 0.959 . S
H198 C199 0.961 . S
C199 C189 1.510 . S
C199 H197 0.959 . S
C199 H198 0.961 . S
C199 H200 0.960 . S
H200 C199 0.960 . S
H201 N181 0.862 . S
O202 Co170 1.920 . S
O202 C175 1.289 . S
C203 O195 1.258 . S
C203 O196 1.266 . S
Co204 O207 1.970 . S
Co204 N221 1.989 . S
Co204 O229 1.967 . S
Co204 O236 1.920 . S
Co205 O208 1.966 . S
Co205 N214 2.022 . S
Co205 N222 1.993 . S
Co205 O230 1.941 . S
C206 O207 1.258 . S
C206 O208 1.263 . S
O207 Co204 1.970 . S
O207 C206 1.258 . S
O208 Co205 1.966 . S
O208 C206 1.263 . S
C209 O210 1.235 . S
C209 O236 1.289 . S
O210 C209 1.235 . S
C211 C213 1.400 . S
C211 N214 1.351 . S
C211 C216 1.501 . S
C212 C213 1.387 . S
C212 N215 1.341 . S
C213 C211 1.400 . S
C213 C212 1.387 . S
N214 Co205 2.022 . S
N214 C211 1.351 . S
N214 N215 1.365 . S
N215 C212 1.341 . S
N215 N214 1.365 . S
N215 H235 0.862 . S
C216 C211 1.501 . S
C216 H217 0.961 . S
C216 H218 0.961 . S
C216 H219 0.960 . S
H217 C216 0.961 . S
H218 C216 0.961 . S
H219 C216 0.960 . S
C220 N221 1.342 . S
C220 C224 1.401 . S
C220 C225 1.499 . S
N221 Co204 1.989 . S
N221 C220 1.342 . S
N221 N222 1.388 . S
N222 Co205 1.993 . S
N222 N221 1.388 . S
N222 C223 1.346 . S
C223 N222 1.346 . S
C223 C224 1.396 . S
C223 C233 1.510 . S
C224 C220 1.401 . S
C224 C223 1.396 . S
C225 C220 1.499 . S
C225 H226 0.959 . S
C225 H227 0.960 . S
C225 H228 0.961 . S
H226 C225 0.959 . S
H227 C225 0.960 . S
H228 C225 0.961 . S
O229 Co204 1.967 . S
O229 C237 1.258 . S
O230 Co205 1.941 . S
O230 C237 1.266 . S
H231 C233 0.959 . S
H232 C233 0.961 . S
C233 C223 1.510 . S
C233 H231 0.959 . S
C233 H232 0.961 . S
C233 H234 0.960 . S
H234 C233 0.960 . S
H235 N215 0.862 . S
O236 Co204 1.920 . S
O236 C209 1.289 . S
C237 O229 1.258 . S
C237 O230 1.266 . S
Co238 O241 1.970 . S
Co238 N255 1.989 . S
Co238 O263 1.967 . S
Co238 O270 1.920 . S
Co239 O242 1.966 . S
Co239 N248 2.022 . S
Co239 N256 1.993 . S
Co239 O264 1.941 . S
C240 O241 1.258 . S
C240 O242 1.263 . S
O241 Co238 1.970 . S
O241 C240 1.258 . S
O242 Co239 1.966 . S
O242 C240 1.263 . S
C243 O244 1.235 . S
C243 O270 1.289 . S
O244 C243 1.235 . S
C245 C247 1.400 . S
C245 N248 1.351 . S
C245 C250 1.501 1_556 S
C246 C247 1.387 . S
C246 N249 1.341 . S
C247 C245 1.400 . S
C247 C246 1.387 . S
N248 Co239 2.022 . S
N248 C245 1.351 . S
N248 N249 1.365 . S
N249 C246 1.341 . S
N249 N248 1.365 . S
N249 H269 0.862 . S
C250 C245 1.501 1_554 S
C250 H251 0.961 . S
C250 H252 0.961 . S
C250 H253 0.960 . S
H251 C250 0.961 . S
H252 C250 0.961 . S
H253 C250 0.960 . S
C254 N255 1.342 . S
C254 C258 1.401 . S
C254 C259 1.499 . S
N255 Co238 1.989 . S
N255 C254 1.342 . S
N255 N256 1.388 . S
N256 Co239 1.993 . S
N256 N255 1.388 . S
N256 C257 1.346 . S
C257 N256 1.346 . S
C257 C258 1.396 . S
C257 C267 1.510 . S
C258 C254 1.401 . S
C258 C257 1.396 . S
C259 C254 1.499 . S
C259 H260 0.959 . S
C259 H261 0.960 . S
C259 H262 0.961 . S
H260 C259 0.959 . S
H261 C259 0.960 . S
H262 C259 0.961 . S
O263 Co238 1.967 . S
O263 C271 1.258 . S
O264 Co239 1.941 . S
O264 C271 1.266 . S
H265 C267 0.959 . S
H266 C267 0.961 . S
C267 C257 1.510 . S
C267 H265 0.959 . S
C267 H266 0.961 . S
C267 H268 0.960 . S
H268 C267 0.960 . S
H269 N249 0.862 . S
O270 Co238 1.920 . S
O270 C243 1.289 . S
C271 O263 1.258 . S
C271 O264 1.266 . S
Co272 O275 1.970 . S
Co272 N289 1.989 . S
Co272 O297 1.967 . S
Co272 O304 1.920 . S
Co273 O276 1.966 . S
Co273 N282 2.022 . S
Co273 N290 1.993 . S
Co273 O298 1.941 . S
C274 O275 1.258 . S
C274 O276 1.263 . S
O275 Co272 1.970 . S
O275 C274 1.258 . S
O276 Co273 1.966 . S
O276 C274 1.263 . S
C277 O278 1.235 . S
C277 O304 1.289 . S
O278 C277 1.235 . S
C279 C281 1.400 . S
C279 N282 1.351 . S
C279 C284 1.501 . S
C280 C281 1.387 . S
C280 N283 1.341 . S
C281 C279 1.400 . S
C281 C280 1.387 . S
N282 Co273 2.022 . S
N282 C279 1.351 . S
N282 N283 1.365 . S
N283 C280 1.341 . S
N283 N282 1.365 . S
N283 H303 0.862 . S
C284 C279 1.501 . S
C284 H285 0.961 . S
C284 H286 0.961 . S
C284 H287 0.960 . S
H285 C284 0.961 . S
H286 C284 0.961 . S
H287 C284 0.960 . S
C288 N289 1.342 . S
C288 C292 1.401 . S
C288 C293 1.499 . S
N289 Co272 1.989 . S
N289 C288 1.342 . S
N289 N290 1.388 . S
N290 Co273 1.993 . S
N290 N289 1.388 . S
N290 C291 1.346 . S
C291 N290 1.346 . S
C291 C292 1.396 . S
C291 C301 1.510 . S
C292 C288 1.401 . S
C292 C291 1.396 . S
C293 C288 1.499 . S
C293 H294 0.959 . S
C293 H295 0.960 . S
C293 H296 0.961 . S
H294 C293 0.959 . S
H295 C293 0.960 . S
H296 C293 0.961 . S
O297 Co272 1.967 . S
O297 C305 1.258 . S
O298 Co273 1.941 . S
O298 C305 1.266 . S
H299 C301 0.959 . S
H300 C301 0.961 . S
C301 C291 1.510 . S
C301 H299 0.959 . S
C301 H300 0.961 . S
C301 H302 0.960 . S
H302 C301 0.960 . S
H303 N283 0.862 . S
O304 Co272 1.920 . S
O304 C277 1.289 . S
C305 O297 1.258 . S
C305 O298 1.266 . S
Co306 O309 1.970 . S
Co306 N323 1.989 . S
Co306 O331 1.967 . S
Co306 O338 1.920 . S
Co307 O310 1.966 . S
Co307 N316 2.022 . S
Co307 N324 1.993 . S
Co307 O332 1.941 . S
C308 O309 1.258 . S
C308 O310 1.263 . S
O309 Co306 1.970 . S
O309 C308 1.258 . S
O310 Co307 1.966 . S
O310 C308 1.263 . S
C311 O312 1.235 . S
C311 O338 1.289 . S
O312 C311 1.235 . S
C313 C315 1.400 . S
C313 N316 1.351 . S
C313 C318 1.501 . S
C314 C315 1.387 . S
C314 N317 1.341 . S
C315 C313 1.400 . S
C315 C314 1.387 . S
N316 Co307 2.022 . S
N316 C313 1.351 . S
N316 N317 1.365 . S
N317 C314 1.341 . S
N317 N316 1.365 . S
N317 H337 0.862 . S
C318 C313 1.501 . S
C318 H319 0.961 . S
C318 H320 0.961 . S
C318 H321 0.960 . S
H319 C318 0.961 . S
H320 C318 0.961 . S
H321 C318 0.960 . S
C322 N323 1.342 . S
C322 C326 1.401 . S
C322 C327 1.499 . S
N323 Co306 1.989 . S
N323 C322 1.342 . S
N323 N324 1.388 . S
N324 Co307 1.993 . S
N324 N323 1.388 . S
N324 C325 1.346 . S
C325 N324 1.346 . S
C325 C326 1.396 . S
C325 C335 1.510 . S
C326 C322 1.401 . S
C326 C325 1.396 . S
C327 C322 1.499 . S
C327 H328 0.959 . S
C327 H329 0.960 . S
C327 H330 0.961 . S
H328 C327 0.959 . S
H329 C327 0.960 . S
H330 C327 0.961 . S
O331 Co306 1.967 . S
O331 C339 1.258 . S
O332 Co307 1.941 . S
O332 C339 1.266 . S
H333 C335 0.959 . S
H334 C335 0.961 . S
C335 C325 1.510 . S
C335 H333 0.959 . S
C335 H334 0.961 . S
C335 H336 0.960 . S
H336 C335 0.960 . S
H337 N317 0.862 . S
O338 Co306 1.920 . S
O338 C311 1.289 . S
C339 O331 1.258 . S
C339 O332 1.266 . S
Co340 O343 1.970 . S
Co340 N357 1.989 . S
Co340 O365 1.967 . S
Co340 O372 1.920 . S
Co341 O344 1.966 . S
Co341 N350 2.022 . S
Co341 N358 1.993 . S
Co341 O366 1.941 . S
C342 O343 1.258 . S
C342 O344 1.263 . S
O343 Co340 1.970 . S
O343 C342 1.258 . S
O344 Co341 1.966 . S
O344 C342 1.263 . S
C345 O346 1.235 . S
C345 O372 1.289 . S
O346 C345 1.235 . S
C347 C349 1.400 . S
C347 N350 1.351 . S
C347 C352 1.501 . S
C348 C349 1.387 . S
C348 N351 1.341 . S
C349 C347 1.400 . S
C349 C348 1.387 . S
N350 Co341 2.022 . S
N350 C347 1.351 . S
N350 N351 1.365 . S
N351 C348 1.341 . S
N351 N350 1.365 . S
N351 H371 0.862 . S
C352 C347 1.501 . S
C352 H353 0.961 . S
C352 H354 0.961 . S
C352 H355 0.960 . S
H353 C352 0.961 . S
H354 C352 0.961 . S
H355 C352 0.960 . S
C356 N357 1.342 . S
C356 C360 1.401 . S
C356 C361 1.499 . S
N357 Co340 1.989 . S
N357 C356 1.342 . S
N357 N358 1.388 . S
N358 Co341 1.993 . S
N358 N357 1.388 . S
N358 C359 1.346 . S
C359 N358 1.346 . S
C359 C360 1.396 . S
C359 C369 1.510 . S
C360 C356 1.401 . S
C360 C359 1.396 . S
C361 C356 1.499 . S
C361 H362 0.959 . S
C361 H363 0.960 . S
C361 H364 0.961 . S
H362 C361 0.959 . S
H363 C361 0.960 . S
H364 C361 0.961 . S
O365 Co340 1.967 . S
O365 C373 1.258 . S
O366 Co341 1.941 . S
O366 C373 1.266 . S
H367 C369 0.959 . S
H368 C369 0.961 . S
C369 C359 1.510 . S
C369 H367 0.959 . S
C369 H368 0.961 . S
C369 H370 0.960 . S
H370 C369 0.960 . S
H371 N351 0.862 . S
O372 Co340 1.920 . S
O372 C345 1.289 . S
C373 O365 1.258 . S
C373 O366 1.266 . S
Co374 O377 1.970 . S
Co374 N391 1.989 . S
Co374 O399 1.967 . S
Co374 O406 1.920 . S
Co375 O378 1.966 . S
Co375 N384 2.022 . S
Co375 N392 1.993 . S
Co375 O400 1.941 . S
C376 O377 1.258 . S
C376 O378 1.263 . S
O377 Co374 1.970 . S
O377 C376 1.258 . S
O378 Co375 1.966 . S
O378 C376 1.263 . S
C379 O380 1.235 . S
C379 O406 1.289 . S
O380 C379 1.235 . S
C381 C383 1.400 . S
C381 N384 1.351 . S
C381 C386 1.501 . S
C382 C383 1.387 . S
C382 N385 1.341 . S
C383 C381 1.400 . S
C383 C382 1.387 . S
N384 Co375 2.022 . S
N384 C381 1.351 . S
N384 N385 1.365 . S
N385 C382 1.341 . S
N385 N384 1.365 . S
N385 H405 0.862 . S
C386 C381 1.501 . S
C386 H387 0.961 . S
C386 H388 0.961 . S
C386 H389 0.960 . S
H387 C386 0.961 . S
H388 C386 0.961 . S
H389 C386 0.960 . S
C390 N391 1.342 . S
C390 C394 1.401 . S
C390 C395 1.499 . S
N391 Co374 1.989 . S
N391 C390 1.342 . S
N391 N392 1.388 . S
N392 Co375 1.993 . S
N392 N391 1.388 . S
N392 C393 1.346 . S
C393 N392 1.346 . S
C393 C394 1.396 . S
C393 C403 1.510 . S
C394 C390 1.401 . S
C394 C393 1.396 . S
C395 C390 1.499 . S
C395 H396 0.959 . S
C395 H397 0.960 . S
C395 H398 0.961 . S
H396 C395 0.959 . S
H397 C395 0.960 . S
H398 C395 0.961 . S
O399 Co374 1.967 . S
O399 C407 1.258 . S
O400 Co375 1.941 . S
O400 C407 1.266 . S
H401 C403 0.959 . S
H402 C403 0.961 . S
C403 C393 1.510 . S
C403 H401 0.959 . S
C403 H402 0.961 . S
C403 H404 0.960 . S
H404 C403 0.960 . S
H405 N385 0.862 . S
O406 Co374 1.920 . S
O406 C379 1.289 . S
C407 O399 1.258 . S
C407 O400 1.266 . S
C408 C409 1.349 . S
C408 C410 1.327 . S
C408 H433 0.950 . S
C409 C408 1.349 . S
C409 C425 1.349 . S
C410 C408 1.327 . S
C410 C429 1.429 . S
C410 H434 0.950 . S
C411 C428 1.574 . S
C411 C430 1.368 . S
C411 H435 0.949 . S
H412 C416 0.949 . S
C413 C414 1.349 . S
C413 C415 1.327 1_565 S
C413 H436 0.950 . S
C414 C413 1.349 . S
C414 C426 1.349 1_565 S
C415 C413 1.327 1_545 S
C415 C431 1.429 . S
C415 H437 0.950 1_545 S
C416 H412 0.949 . S
C416 C424 1.574 . S
C416 C432 1.368 . S
H417 C425 0.950 . S
H418 C423 0.950 . S
H419 C424 0.949 . S
H420 C426 0.950 . S
H421 C427 0.950 . S
H422 C428 0.949 . S
C423 H418 0.950 . S
C423 C425 1.327 . S
C423 C429 1.429 . S
C424 C416 1.574 . S
C424 H419 0.949 . S
C424 C430 1.368 . S
C425 C409 1.349 . S
C425 H417 0.950 . S
C425 C423 1.327 . S
C426 C414 1.349 1_545 S
C426 H420 0.950 . S
C426 C427 1.327 . S
C427 H421 0.950 . S
C427 C426 1.327 . S
C427 C431 1.429 . S
C428 C411 1.574 . S
C428 H422 0.949 . S
C428 C432 1.368 . S
C429 C410 1.429 . S
C429 C423 1.429 . S
C429 C430 1.523 . S
C430 C411 1.368 . S
C430 C424 1.368 . S
C430 C429 1.523 . S
C431 C415 1.429 . S
C431 C427 1.429 . S
C431 C432 1.523 . S
C432 C416 1.368 . S
C432 C428 1.368 . S
C432 C431 1.523 . S
H433 C408 0.950 . S
H434 C410 0.950 . S
H435 C411 0.949 . S
H436 C413 0.950 . S
H437 C415 0.950 1_565 S
C438 C439 1.349 . S
C438 C440 1.327 . S
C438 H463 0.950 . S
C439 C438 1.349 . S
C439 C455 1.349 . S
C440 C438 1.327 . S
C440 C459 1.429 . S
C440 H464 0.950 . S
C441 C458 1.574 . S
C441 C460 1.368 . S
C441 H465 0.949 . S
H442 C446 0.949 . S
C443 C444 1.349 . S
C443 C445 1.327 1_655 S
C443 H466 0.950 . S
C444 C443 1.349 . S
C444 C456 1.349 1_655 S
C445 C443 1.327 1_455 S
C445 C461 1.429 . S
C445 H467 0.950 1_455 S
C446 H442 0.949 . S
C446 C454 1.574 . S
C446 C462 1.368 . S
H447 C455 0.950 . S
H448 C453 0.950 . S
H449 C454 0.949 . S
H450 C456 0.950 . S
H451 C457 0.950 . S
H452 C458 0.949 . S
C453 H448 0.950 . S
C453 C455 1.327 . S
C453 C459 1.429 . S
C454 C446 1.574 . S
C454 H449 0.949 . S
C454 C460 1.368 . S
C455 C439 1.349 . S
C455 H447 0.950 . S
C455 C453 1.327 . S
C456 C444 1.349 1_455 S
C456 H450 0.950 . S
C456 C457 1.327 . S
C457 H451 0.950 . S
C457 C456 1.327 . S
C457 C461 1.429 . S
C458 C441 1.574 . S
C458 H452 0.949 . S
C458 C462 1.368 . S
C459 C440 1.429 . S
C459 C453 1.429 . S
C459 C460 1.523 . S
C460 C441 1.368 . S
C460 C454 1.368 . S
C460 C459 1.523 . S
C461 C445 1.429 . S
C461 C457 1.429 . S
C461 C462 1.523 . S
C462 C446 1.368 . S
C462 C458 1.368 . S
C462 C461 1.523 . S
H463 C438 0.950 . S
H464 C440 0.950 . S
H465 C441 0.949 . S
H466 C443 0.950 . S
H467 C445 0.950 1_655 S
C468 C469 1.349 1_655 S
C468 C470 1.327 . S
C468 H493 0.950 . S
C469 C468 1.349 1_455 S
C469 C485 1.349 . S
C470 C468 1.327 . S
C470 C489 1.429 . S
C470 H494 0.950 . S
C471 C488 1.574 . S
C471 C490 1.368 . S
C471 H495 0.949 . S
H472 C476 0.949 . S
C473 C474 1.349 1_545 S
C473 C475 1.327 . S
C473 H496 0.950 . S
C474 C473 1.349 1_565 S
C474 C486 1.349 . S
C475 C473 1.327 . S
C475 C491 1.429 . S
C475 H497 0.950 . S
C476 H472 0.949 . S
C476 C484 1.574 . S
C476 C492 1.368 . S
H477 C485 0.950 . S
H478 C483 0.950 . S
H479 C484 0.949 . S
H480 C486 0.950 . S
H481 C487 0.950 . S
H482 C488 0.949 . S
C483 H478 0.950 . S
C483 C485 1.327 1_655 S
C483 C489 1.429 . S
C484 C476 1.574 . S
C484 H479 0.949 . S
C484 C490 1.368 . S
C485 C469 1.349 . S
C485 H477 0.950 . S
C485 C483 1.327 1_455 S
C486 C474 1.349 . S
C486 H480 0.950 . S
C486 C487 1.327 1_565 S
C487 H481 0.950 . S
C487 C486 1.327 1_545 S
C487 C491 1.429 . S
C488 C471 1.574 . S
C488 H482 0.949 . S
C488 C492 1.368 . S
C489 C470 1.429 . S
C489 C483 1.429 . S
C489 C490 1.523 . S
C490 C471 1.368 . S
C490 C484 1.368 . S
C490 C489 1.523 . S
C491 C475 1.429 . S
C491 C487 1.429 . S
C491 C492 1.523 . S
C492 C476 1.368 . S
C492 C488 1.368 . S
C492 C491 1.523 . S
H493 C468 0.950 . S
H494 C470 0.950 . S
H495 C471 0.949 . S
H496 C473 0.950 . S
H497 C475 0.950 . S
C498 C499 1.349 . S
C498 C500 1.327 . S
C498 H523 0.950 . S
C499 C498 1.349 . S
C499 C515 1.349 . S
C500 C498 1.327 . S
C500 C519 1.429 . S
C500 H524 0.950 . S
C501 C518 1.574 . S
C501 C520 1.368 . S
C501 H525 0.949 . S
H502 C506 0.949 . S
C503 C504 1.349 1_565 S
C503 C505 1.327 . S
C503 H526 0.950 . S
C504 C503 1.349 1_545 S
C504 C516 1.349 . S
C505 C503 1.327 . S
C505 C521 1.429 . S
C505 H527 0.950 . S
C506 H502 0.949 . S
C506 C514 1.574 . S
C506 C522 1.368 . S
H507 C515 0.950 . S
H508 C513 0.950 . S
H509 C514 0.949 . S
H510 C516 0.950 . S
H511 C517 0.950 1_545 S
H512 C518 0.949 . S
C513 H508 0.950 . S
C513 C515 1.327 . S
C513 C519 1.429 . S
C514 C506 1.574 . S
C514 H509 0.949 . S
C514 C520 1.368 . S
C515 C499 1.349 . S
C515 H507 0.950 . S
C515 C513 1.327 . S
C516 C504 1.349 . S
C516 H510 0.950 . S
C516 C517 1.327 1_545 S
C517 H511 0.950 1_565 S
C517 C516 1.327 1_565 S
C517 C521 1.429 . S
C518 C501 1.574 . S
C518 H512 0.949 . S
C518 C522 1.368 . S
C519 C500 1.429 . S
C519 C513 1.429 . S
C519 C520 1.523 . S
C520 C501 1.368 . S
C520 C514 1.368 . S
C520 C519 1.523 . S
C521 C505 1.429 . S
C521 C517 1.429 . S
C521 C522 1.523 . S
C522 C506 1.368 . S
C522 C518 1.368 . S
C522 C521 1.523 . S
H523 C498 0.950 . S
H524 C500 0.950 . S
H525 C501 0.949 . S
H526 C503 0.950 . S
H527 C505 0.950 . S
C528 C529 1.349 1_655 S
C528 C530 1.327 . S
C528 H553 0.955 . S
C529 C528 1.349 1_455 S
C529 C545 1.349 1_455 S
C530 C528 1.327 . S
C530 C549 1.429 . S
C530 H554 0.950 . S
C531 C548 1.574 . S
C531 C550 1.368 . S
C531 H555 0.949 . S
H532 C536 0.949 . S
C533 C534 1.349 . S
C533 C535 1.327 . S
C533 H556 0.950 . S
C534 C533 1.349 . S
C534 C546 1.349 . S
C535 C533 1.327 . S
C535 C551 1.429 . S
C535 H557 0.950 . S
C536 H532 0.949 . S
C536 C544 1.574 . S
C536 C552 1.368 . S
H537 C545 0.950 1_455 S
H538 C543 0.950 . S
H539 C544 0.949 . S
H540 C546 0.950 . S
H541 C547 0.950 . S
H542 C548 0.949 . S
C543 H538 0.950 . S
C543 C545 1.327 . S
C543 C549 1.429 . S
C544 C536 1.574 . S
C544 H539 0.949 . S
C544 C550 1.368 . S
C545 C529 1.349 1_655 S
C545 H537 0.950 1_655 S
C545 C543 1.327 . S
C546 C534 1.349 . S
C546 H540 0.950 . S
C546 C547 1.327 . S
C547 H541 0.950 . S
C547 C546 1.327 . S
C547 C551 1.429 . S
C548 C531 1.574 . S
C548 H542 0.949 . S
C548 C552 1.368 . S
C549 C530 1.429 . S
C549 C543 1.429 . S
C549 C550 1.523 . S
C550 C531 1.368 . S
C550 C544 1.368 . S
C550 C549 1.523 . S
C551 C535 1.429 . S
C551 C547 1.429 . S
C551 C552 1.523 . S
C552 C536 1.368 . S
C552 C548 1.368 . S
C552 C551 1.523 . S
H553 C528 0.955 . S
H554 C530 0.950 . S
H555 C531 0.949 . S
H556 C533 0.950 . S
H557 C535 0.950 . S
C558 C559 1.349 . S
C558 C560 1.327 1_545 S
C558 H583 0.950 . S
C559 C558 1.349 . S
C559 C575 1.349 1_545 S
C560 C558 1.327 1_565 S
C560 C579 1.429 . S
C560 H584 0.950 . S
C561 C578 1.574 . S
C561 C580 1.368 . S
C561 H585 0.949 . S
H562 C566 0.949 . S
C563 C564 1.349 1_455 S
C563 C565 1.327 . S
C563 H586 0.950 . S
C564 C563 1.349 1_655 S
C564 C576 1.349 . S
C565 C563 1.327 . S
C565 C581 1.429 . S
C565 H587 0.950 . S
C566 H562 0.949 . S
C566 C574 1.574 . S
C566 C582 1.368 . S
H567 C575 0.950 . S
H568 C573 0.950 . S
H569 C574 0.949 . S
H570 C576 0.950 . S
H571 C577 0.950 . S
H572 C578 0.949 . S
C573 H568 0.950 . S
C573 C575 1.327 . S
C573 C579 1.429 . S
C574 C566 1.574 . S
C574 H569 0.949 . S
C574 C580 1.368 . S
C575 C559 1.349 1_565 S
C575 H567 0.950 . S
C575 C573 1.327 . S
C576 C564 1.349 . S
C576 H570 0.950 . S
C576 C577 1.327 1_655 S
C577 H571 0.950 . S
C577 C576 1.327 1_455 S
C577 C581 1.429 . S
C578 C561 1.574 . S
C578 H572 0.949 . S
C578 C582 1.368 . S
C579 C560 1.429 . S
C579 C573 1.429 . S
C579 C580 1.523 . S
C580 C561 1.368 . S
C580 C574 1.368 . S
C580 C579 1.523 . S
C581 C565 1.429 . S
C581 C577 1.429 . S
C581 C582 1.523 . S
C582 C566 1.368 . S
C582 C578 1.368 . S
C582 C581 1.523 . S
H583 C558 0.950 . S
H584 C560 0.950 . S
H585 C561 0.949 . S
H586 C563 0.950 . S
H587 C565 0.950 . S
C588 C589 1.326 1_554 S
C588 C590 1.327 . S
C588 H613 0.950 . S
C589 C588 1.326 1_556 S
C589 C605 1.362 . S
C590 C588 1.327 . S
C590 C609 1.429 . S
C590 H614 0.950 . S
C591 C608 1.574 . S
C591 C610 1.368 . S
C591 H615 0.949 . S
H592 C596 0.949 . S
C593 C594 1.349 . S
C593 C595 1.327 . S
C593 H616 0.950 . S
C594 C593 1.349 . S
C594 C606 1.349 . S
C595 C593 1.327 . S
C595 C611 1.429 . S
C595 H617 0.950 . S
C596 H592 0.949 . S
C596 C604 1.574 . S
C596 C612 1.368 . S
H597 C605 0.950 . S
H598 C603 0.959 . S
H599 C604 0.949 . S
H600 C606 0.950 . S
H601 C607 0.950 . S
H602 C608 0.949 . S
C603 H598 0.959 . S
C603 C605 1.336 . S
C603 C609 1.412 1_556 S
C604 C596 1.574 . S
C604 H599 0.949 . S
C604 C610 1.368 . S
C605 C589 1.362 . S
C605 H597 0.950 . S
C605 C603 1.336 . S
C606 C594 1.349 . S
C606 H600 0.950 . S
C606 C607 1.327 . S
C607 H601 0.950 . S
C607 C606 1.327 . S
C607 C611 1.429 . S
C608 C591 1.574 . S
C608 H602 0.949 . S
C608 C612 1.368 . S
C609 C590 1.429 . S
C609 C603 1.412 1_554 S
C609 C610 1.523 . S
C610 C591 1.368 . S
C610 C604 1.368 . S
C610 C609 1.523 . S
C611 C595 1.429 . S
C611 C607 1.429 . S
C611 C612 1.523 . S
C612 C596 1.368 . S
C612 C608 1.368 . S
C612 C611 1.523 . S
H613 C588 0.950 . S
H614 C590 0.950 . S
H615 C591 0.949 . S
H616 C593 0.950 . S
H617 C595 0.950 . S
C618 C619 1.349 . S
C618 C620 1.327 . S
C618 H643 0.950 . S
C619 C618 1.349 . S
C619 C635 1.349 . S
C620 C618 1.327 . S
C620 C639 1.429 . S
C620 H644 0.950 . S
C621 C638 1.574 . S
C621 C640 1.368 1_455 S
C621 H645 0.949 . S
H622 C626 0.938 1_655 S
C623 C624 1.349 . S
C623 C625 1.327 . S
C623 H646 0.950 . S
C624 C623 1.349 . S
C624 C636 1.349 . S
C625 C623 1.327 . S
C625 C641 1.429 . S
C625 H647 0.950 . S
C626 H622 0.938 1_455 S
C626 C634 1.571 1_455 S
C626 C642 1.384 . S
H627 C635 0.950 . S
H628 C633 0.950 . S
H629 C634 0.949 . S
H630 C636 0.950 . S
H631 C637 0.950 . S
H632 C638 0.949 . S
C633 H628 0.950 . S
C633 C635 1.327 . S
C633 C639 1.429 . S
C634 C626 1.571 1_655 S
C634 H629 0.949 . S
C634 C640 1.368 . S
C635 C619 1.349 . S
C635 H627 0.950 . S
C635 C633 1.327 . S
C636 C624 1.349 . S
C636 H630 0.950 . S
C636 C637 1.327 . S
C637 H631 0.950 . S
C637 C636 1.327 . S
C637 C641 1.429 . S
C638 C621 1.574 . S
C638 H632 0.949 . S
C638 C642 1.368 . S
C639 C620 1.429 . S
C639 C633 1.429 . S
C639 C640 1.523 . S
C640 C621 1.368 1_655 S
C640 C634 1.368 . S
C640 C639 1.523 . S
C641 C625 1.429 . S
C641 C637 1.429 . S
C641 C642 1.523 . S
C642 C626 1.384 . S
C642 C638 1.368 . S
C642 C641 1.523 . S
H643 C618 0.950 . S
H644 C620 0.950 . S
H645 C621 0.949 . S
H646 C623 0.950 . S
H647 C625 0.950 . S
C648 C649 1.349 . S
C648 C650 1.327 . S
C648 H673 0.950 . S
C649 C648 1.349 . S
C649 C665 1.349 . S
C650 C648 1.327 . S
C650 C669 1.429 . S
C650 H674 0.950 . S
C651 C668 1.574 . S
C651 C670 1.368 . S
C651 H675 0.949 . S
H652 C656 0.949 . S
C653 C654 1.349 . S
C653 C655 1.327 . S
C653 H676 0.950 . S
C654 C653 1.349 . S
C654 C666 1.349 . S
C655 C653 1.327 . S
C655 C671 1.429 . S
C655 H677 0.950 . S
C656 H652 0.949 . S
C656 C664 1.574 1_565 S
C656 C672 1.368 . S
H657 C665 0.950 . S
H658 C663 0.950 . S
H659 C664 0.949 . S
H660 C666 0.950 . S
H661 C667 0.950 . S
H662 C668 0.949 1_565 S
C663 H658 0.950 . S
C663 C665 1.327 . S
C663 C669 1.429 . S
C664 C656 1.574 1_545 S
C664 H659 0.949 . S
C664 C670 1.368 . S
C665 C649 1.349 . S
C665 H657 0.950 . S
C665 C663 1.327 . S
C666 C654 1.349 . S
C666 H660 0.950 . S
C666 C667 1.327 . S
C667 H661 0.950 . S
C667 C666 1.327 . S
C667 C671 1.429 . S
C668 C651 1.574 . S
C668 H662 0.949 1_545 S
C668 C672 1.368 1_545 S
C669 C650 1.429 . S
C669 C663 1.429 . S
C669 C670 1.523 . S
C670 C651 1.368 . S
C670 C664 1.368 . S
C670 C669 1.523 . S
C671 C655 1.429 . S
C671 C667 1.429 . S
C671 C672 1.523 . S
C672 C656 1.368 . S
C672 C668 1.368 1_565 S
C672 C671 1.523 . S
H673 C648 0.950 . S
H674 C650 0.950 . S
H675 C651 0.949 . S
H676 C653 0.950 . S
H677 C655 0.950 . S
C678 C679 1.349 . S
C678 C680 1.327 . S
C678 H703 0.950 . S
C679 C678 1.349 . S
C679 C695 1.349 . S
C680 C678 1.327 . S
C680 C699 1.429 . S
C680 H704 0.950 . S
C681 C698 1.574 . S
C681 C700 1.368 . S
C681 H705 0.949 . S
H682 C686 0.949 . S
C683 C684 1.349 . S
C683 C685 1.327 . S
C683 H706 0.950 . S
C684 C683 1.349 . S
C684 C696 1.349 . S
C685 C683 1.327 . S
C685 C701 1.429 . S
C685 H707 0.950 . S
C686 H682 0.949 . S
C686 C694 1.574 . S
C686 C702 1.368 . S
H687 C695 0.950 . S
H688 C693 0.950 . S
H689 C694 0.949 . S
H690 C696 0.950 . S
H691 C697 0.950 . S
H692 C698 0.949 . S
C693 H688 0.950 . S
C693 C695 1.327 . S
C693 C699 1.429 . S
C694 C686 1.574 . S
C694 H689 0.949 . S
C694 C700 1.368 . S
C695 C679 1.349 . S
C695 H687 0.950 . S
C695 C693 1.327 . S
C696 C684 1.349 . S
C696 H690 0.950 . S
C696 C697 1.327 . S
C697 H691 0.950 . S
C697 C696 1.327 . S
C697 C701 1.429 . S
C698 C681 1.574 . S
C698 H692 0.949 . S
C698 C702 1.368 . S
C699 C680 1.429 . S
C699 C693 1.429 . S
C699 C700 1.523 . S
C700 C681 1.368 . S
C700 C694 1.368 . S
C700 C699 1.523 . S
C701 C685 1.429 . S
C701 C697 1.429 . S
C701 C702 1.523 . S
C702 C686 1.368 . S
C702 C698 1.368 . S
C702 C701 1.523 . S
H703 C678 0.950 . S
H704 C680 0.950 . S
H705 C681 0.949 . S
H706 C683 0.950 . S
H707 C685 0.950 . S
C708 C709 1.349 . S
C708 C710 1.327 . S
C708 H733 0.950 . S
C709 C708 1.349 . S
C709 C725 1.349 . S
C710 C708 1.327 . S
C710 C729 1.429 . S
C710 H734 0.950 . S
C711 C728 1.574 1_655 S
C711 C730 1.368 . S
C711 H735 0.949 . S
H712 C716 0.949 . S
C713 C714 1.349 . S
C713 C715 1.327 . S
C713 H736 0.950 . S
C714 C713 1.349 . S
C714 C726 1.349 . S
C715 C713 1.327 . S
C715 C731 1.429 . S
C715 H737 0.950 . S
C716 H712 0.949 . S
C716 C724 1.574 . S
C716 C732 1.368 1_655 S
H717 C725 0.950 . S
H718 C723 0.950 . S
H719 C724 0.949 . S
H720 C726 0.950 . S
H721 C727 0.950 . S
H722 C728 0.949 . S
C723 H718 0.950 . S
C723 C725 1.327 . S
C723 C729 1.429 . S
C724 C716 1.574 . S
C724 H719 0.949 . S
C724 C730 1.368 . S
C725 C709 1.349 . S
C725 H717 0.950 . S
C725 C723 1.327 . S
C726 C714 1.349 . S
C726 H720 0.950 . S
C726 C727 1.327 . S
C727 H721 0.950 . S
C727 C726 1.327 . S
C727 C731 1.429 . S
C728 C711 1.574 1_455 S
C728 H722 0.949 . S
C728 C732 1.368 . S
C729 C710 1.429 . S
C729 C723 1.429 . S
C729 C730 1.523 . S
C730 C711 1.368 . S
C730 C724 1.368 . S
C730 C729 1.523 . S
C731 C715 1.429 . S
C731 C727 1.429 . S
C731 C732 1.523 . S
C732 C716 1.368 1_455 S
C732 C728 1.368 . S
C732 C731 1.523 . S
H733 C708 0.950 . S
H734 C710 0.950 . S
H735 C711 0.949 . S
H736 C713 0.950 . S
H737 C715 0.950 . S
C738 C739 1.349 . S
C738 C740 1.327 . S
C738 H763 0.950 . S
C739 C738 1.349 . S
C739 C755 1.349 . S
C740 C738 1.327 . S
C740 C759 1.429 . S
C740 H764 0.950 . S
C741 C758 1.574 . S
C741 C760 1.368 1_545 S
C741 H765 0.949 . S
H742 C746 0.949 . S
C743 C744 1.349 . S
C743 C745 1.327 . S
C743 H766 0.950 . S
C744 C743 1.349 . S
C744 C756 1.349 . S
C745 C743 1.327 . S
C745 C761 1.429 . S
C745 H767 0.950 . S
C746 H742 0.949 . S
C746 C754 1.574 . S
C746 C762 1.368 1_565 S
H747 C755 0.950 . S
H748 C753 0.950 . S
H749 C754 0.949 . S
H750 C756 0.950 . S
H751 C757 0.950 . S
H752 C758 0.949 . S
C753 H748 0.950 . S
C753 C755 1.327 . S
C753 C759 1.429 . S
C754 C746 1.574 . S
C754 H749 0.949 . S
C754 C760 1.368 . S
C755 C739 1.349 . S
C755 H747 0.950 . S
C755 C753 1.327 . S
C756 C744 1.349 . S
C756 H750 0.950 . S
C756 C757 1.327 . S
C757 H751 0.950 . S
C757 C756 1.327 . S
C757 C761 1.429 . S
C758 C741 1.574 . S
C758 H752 0.949 . S
C758 C762 1.368 . S
C759 C740 1.429 . S
C759 C753 1.429 . S
C759 C760 1.523 . S
C760 C741 1.368 1_565 S
C760 C754 1.368 . S
C760 C759 1.523 . S
C761 C745 1.429 . S
C761 C757 1.429 . S
C761 C762 1.523 . S
C762 C746 1.368 1_545 S
C762 C758 1.368 . S
C762 C761 1.523 . S
H763 C738 0.950 . S
H764 C740 0.950 . S
H765 C741 0.949 . S
H766 C743 0.950 . S
H767 C745 0.950 . S
C768 C769 1.349 . S
C768 C770 1.327 . S
C768 H793 0.950 . S
C769 C768 1.349 . S
C769 C785 1.349 . S
C770 C768 1.327 . S
C770 C789 1.429 . S
C770 H794 0.950 . S
C771 C788 1.574 . S
C771 C790 1.368 . S
C771 H795 0.949 . S
H772 C776 0.949 . S
C773 C774 1.349 . S
C773 C775 1.327 . S
C773 H796 0.950 . S
C774 C773 1.349 . S
C774 C786 1.349 . S
C775 C773 1.327 . S
C775 C791 1.429 . S
C775 H797 0.950 . S
C776 H772 0.949 . S
C776 C784 1.574 . S
C776 C792 1.368 . S
H777 C785 0.950 . S
H778 C783 0.950 . S
H779 C784 0.949 . S
H780 C786 0.950 . S
H781 C787 0.950 . S
H782 C788 0.949 . S
C783 H778 0.950 . S
C783 C785 1.327 . S
C783 C789 1.429 . S
C784 C776 1.574 . S
C784 H779 0.949 . S
C784 C790 1.368 . S
C785 C769 1.349 . S
C785 H777 0.950 . S
C785 C783 1.327 . S
C786 C774 1.349 . S
C786 H780 0.950 . S
C786 C787 1.327 . S
C787 H781 0.950 . S
C787 C786 1.327 . S
C787 C791 1.429 . S
C788 C771 1.574 . S
C788 H782 0.949 . S
C788 C792 1.368 . S
C789 C770 1.429 . S
C789 C783 1.429 . S
C789 C790 1.523 . S
C790 C771 1.368 . S
C790 C784 1.368 . S
C790 C789 1.523 . S
C791 C775 1.429 . S
C791 C787 1.429 . S
C791 C792 1.523 . S
C792 C776 1.368 . S
C792 C788 1.368 . S
C792 C791 1.523 . S
H793 C768 0.950 . S
H794 C770 0.950 . S
H795 C771 0.949 . S
H796 C773 0.950 . S
H797 C775 0.950 . S
C798 C799 1.349 . S
C798 C800 1.327 . S
C798 H823 0.950 . S
C799 C798 1.349 . S
C799 C815 1.349 . S
C800 C798 1.327 . S
C800 C819 1.429 . S
C800 H824 0.950 . S
C801 C818 1.574 . S
C801 C820 1.368 1_455 S
C801 H825 0.949 . S
H802 C806 0.913 1_654 S
C803 C804 1.349 . S
C803 C805 1.327 . S
C803 H826 0.950 . S
C804 C803 1.349 . S
C804 C816 1.349 1_556 S
C805 C803 1.327 . S
C805 C821 1.429 . S
C805 H827 0.950 . S
C806 H802 0.913 1_456 S
C806 C814 1.582 1_455 S
C806 C822 1.402 . S
H807 C815 0.950 . S
H808 C813 0.950 . S
H809 C814 0.949 1_554 S
H810 C816 0.950 . S
H811 C817 0.950 . S
H812 C818 0.949 . S
C813 H808 0.950 . S
C813 C815 1.327 . S
C813 C819 1.429 . S
C814 C806 1.582 1_655 S
C814 H809 0.949 1_556 S
C814 C820 1.368 . S
C815 C799 1.349 . S
C815 H807 0.950 . S
C815 C813 1.327 . S
C816 C804 1.349 1_554 S
C816 H810 0.950 . S
C816 C817 1.327 . S
C817 H811 0.950 . S
C817 C816 1.327 . S
C817 C821 1.429 1_554 S
C818 C801 1.574 . S
C818 H812 0.949 . S
C818 C822 1.368 . S
C819 C800 1.429 . S
C819 C813 1.429 . S
C819 C820 1.523 . S
C820 C801 1.368 1_655 S
C820 C814 1.368 . S
C820 C819 1.523 . S
C821 C805 1.429 . S
C821 C817 1.429 1_556 S
C821 C822 1.523 . S
C822 C806 1.402 . S
C822 C818 1.368 . S
C822 C821 1.523 . S
H823 C798 0.950 . S
H824 C800 0.950 . S
H825 C801 0.949 . S
H826 C803 0.950 . S
H827 C805 0.950 . S
C828 C829 1.349 . S
C828 C830 1.327 . S
C828 H853 0.950 . S
C829 C828 1.349 . S
C829 C845 1.349 . S
C830 C828 1.327 . S
C830 C849 1.429 . S
C830 H854 0.950 . S
C831 C848 1.574 . S
C831 C850 1.368 1_545 S
C831 H855 0.949 . S
H832 C836 0.949 . S
C833 C834 1.349 . S
C833 C835 1.327 . S
C833 H856 0.950 . S
C834 C833 1.349 . S
C834 C846 1.349 . S
C835 C833 1.327 . S
C835 C851 1.429 . S
C835 H857 0.950 . S
C836 H832 0.949 . S
C836 C844 1.574 . S
C836 C852 1.368 1_565 S
H837 C845 0.950 . S
H838 C843 0.950 1_545 S
H839 C844 0.949 . S
H840 C846 0.950 . S
H841 C847 0.950 . S
H842 C848 0.949 . S
C843 H838 0.950 1_565 S
C843 C845 1.327 . S
C843 C849 1.429 . S
C844 C836 1.574 . S
C844 H839 0.949 . S
C844 C850 1.368 . S
C845 C829 1.349 . S
C845 H837 0.950 . S
C845 C843 1.327 . S
C846 C834 1.349 . S
C846 H840 0.950 . S
C846 C847 1.327 . S
C847 H841 0.950 . S
C847 C846 1.327 . S
C847 C851 1.429 . S
C848 C831 1.574 . S
C848 H842 0.949 . S
C848 C852 1.368 . S
C849 C830 1.429 . S
C849 C843 1.429 . S
C849 C850 1.523 . S
C850 C831 1.368 1_565 S
C850 C844 1.368 . S
C850 C849 1.523 . S
C851 C835 1.429 . S
C851 C847 1.429 . S
C851 C852 1.523 . S
C852 C836 1.368 1_545 S
C852 C848 1.368 . S
C852 C851 1.523 . S
H853 C828 0.950 . S
H854 C830 0.950 . S
H855 C831 0.949 . S
H856 C833 0.950 . S
H857 C835 0.950 . S
C858 C859 1.349 . S
C858 C860 1.327 . S
C858 H883 0.950 . S
C859 C858 1.349 . S
C859 C875 1.349 . S
C860 C858 1.327 . S
C860 C879 1.429 . S
C860 H884 0.950 . S
C861 C878 1.574 . S
C861 C880 1.368 . S
C861 H885 0.949 . S
H862 C866 0.949 . S
C863 C864 1.349 . S
C863 C865 1.327 . S
C863 H886 0.950 . S
C864 C863 1.349 . S
C864 C876 1.349 . S
C865 C863 1.327 . S
C865 C881 1.429 . S
C865 H887 0.950 . S
C866 H862 0.949 . S
C866 C874 1.574 . S
C866 C882 1.368 . S
H867 C875 0.950 . S
H868 C873 0.950 . S
H869 C874 0.949 . S
H870 C876 0.950 . S
H871 C877 0.950 . S
H872 C878 0.949 . S
C873 H868 0.950 . S
C873 C875 1.327 . S
C873 C879 1.429 . S
C874 C866 1.574 . S
C874 H869 0.949 . S
C874 C880 1.368 . S
C875 C859 1.349 . S
C875 H867 0.950 . S
C875 C873 1.327 . S
C876 C864 1.349 . S
C876 H870 0.950 . S
C876 C877 1.327 . S
C877 H871 0.950 . S
C877 C876 1.327 . S
C877 C881 1.429 . S
C878 C861 1.574 . S
C878 H872 0.949 . S
C878 C882 1.368 . S
C879 C860 1.429 . S
C879 C873 1.429 . S
C879 C880 1.523 . S
C880 C861 1.368 . S
C880 C874 1.368 . S
C880 C879 1.523 . S
C881 C865 1.429 . S
C881 C877 1.429 . S
C881 C882 1.523 . S
C882 C866 1.368 . S
C882 C878 1.368 . S
C882 C881 1.523 . S
H883 C858 0.950 . S
H884 C860 0.950 . S
H885 C861 0.949 . S
H886 C863 0.950 . S
H887 C865 0.950 . S
C888 C889 1.349 . S
C888 C890 1.327 . S
C888 H913 0.950 . S
C889 C888 1.349 . S
C889 C905 1.349 . S
C890 C888 1.327 . S
C890 C909 1.429 . S
C890 H914 0.950 . S
C891 C908 1.574 . S
C891 C910 1.368 1_455 S
C891 H915 0.949 . S
H892 C896 0.949 . S
C893 C894 1.349 . S
C893 C895 1.327 . S
C893 H916 0.950 . S
C894 C893 1.349 . S
C894 C906 1.349 . S
C895 C893 1.327 . S
C895 C911 1.429 . S
C895 H917 0.950 . S
C896 H892 0.949 . S
C896 C904 1.574 . S
C896 C912 1.368 1_655 S
H897 C905 0.950 . S
H898 C903 0.950 . S
H899 C904 0.949 . S
H900 C906 0.950 . S
H901 C907 0.950 . S
H902 C908 0.949 . S
C903 H898 0.950 . S
C903 C905 1.327 . S
C903 C909 1.429 . S
C904 C896 1.574 . S
C904 H899 0.949 . S
C904 C910 1.368 . S
C905 C889 1.349 . S
C905 H897 0.950 . S
C905 C903 1.327 . S
C906 C894 1.349 . S
C906 H900 0.950 . S
C906 C907 1.327 . S
C907 H901 0.950 . S
C907 C906 1.327 . S
C907 C911 1.429 . S
C908 C891 1.574 . S
C908 H902 0.949 . S
C908 C912 1.368 . S
C909 C890 1.429 . S
C909 C903 1.429 . S
C909 C910 1.523 . S
C910 C891 1.368 1_655 S
C910 C904 1.368 . S
C910 C909 1.523 . S
C911 C895 1.429 . S
C911 C907 1.429 . S
C911 C912 1.523 . S
C912 C896 1.368 1_455 S
C912 C908 1.368 . S
C912 C911 1.523 . S
H913 C888 0.950 . S
H914 C890 0.950 . S
H915 C891 0.949 . S
H916 C893 0.950 . S
H917 C895 0.950 . S
C918 C919 1.349 . S
C918 C920 1.327 . S
C918 H943 0.950 . S
C919 C918 1.349 . S
C919 C935 1.349 . S
C920 C918 1.327 . S
C920 C939 1.429 . S
C920 H944 0.950 . S
C921 C938 1.574 1_565 S
C921 C940 1.368 . S
C921 H945 0.949 1_565 S
H922 C926 0.949 . S
C923 C924 1.349 . S
C923 C925 1.327 . S
C923 H946 0.950 . S
C924 C923 1.349 . S
C924 C936 1.349 . S
C925 C923 1.327 . S
C925 C941 1.429 . S
C925 H947 0.950 . S
C926 H922 0.949 . S
C926 C934 1.574 . S
C926 C942 1.368 1_565 S
H927 C935 0.950 . S
H928 C933 0.950 . S
H929 C934 0.949 . S
H930 C936 0.950 . S
H931 C937 0.950 . S
H932 C938 0.949 . S
C933 H928 0.950 . S
C933 C935 1.327 . S
C933 C939 1.429 . S
C934 C926 1.574 . S
C934 H929 0.949 . S
C934 C940 1.368 . S
C935 C919 1.349 . S
C935 H927 0.950 . S
C935 C933 1.327 . S
C936 C924 1.349 . S
C936 H930 0.950 . S
C936 C937 1.327 . S
C937 H931 0.950 . S
C937 C936 1.327 . S
C937 C941 1.429 . S
C938 C921 1.574 1_545 S
C938 H932 0.949 . S
C938 C942 1.368 . S
C939 C920 1.429 . S
C939 C933 1.429 . S
C939 C940 1.523 . S
C940 C921 1.368 . S
C940 C934 1.368 . S
C940 C939 1.523 . S
C941 C925 1.429 . S
C941 C937 1.429 . S
C941 C942 1.523 . S
C942 C926 1.368 1_545 S
C942 C938 1.368 . S
C942 C941 1.523 . S
H943 C918 0.950 . S
H944 C920 0.950 . S
H945 C921 0.949 1_545 S
H946 C923 0.950 . S
H947 C925 0.950 . S
C948 C949 1.349 . S
C948 C950 1.327 . S
C948 H973 0.950 . S
C949 C948 1.349 . S
C949 C965 1.349 . S
C950 C948 1.327 . S
C950 C969 1.429 . S
C950 H974 0.950 . S
C951 C968 1.574 . S
C951 C970 1.368 . S
C951 H975 0.949 . S
H952 C956 0.949 . S
C953 C954 1.349 . S
C953 C955 1.327 . S
C953 H976 0.950 1_556 S
C954 C953 1.349 . S
C954 C966 1.349 . S
C955 C953 1.327 . S
C955 C971 1.429 . S
C955 H977 0.950 . S
C956 H952 0.949 . S
C956 C964 1.574 . S
C956 C972 1.368 . S
H957 C965 0.950 . S
H958 C963 0.950 . S
H959 C964 0.949 . S
H960 C966 0.950 . S
H961 C967 0.950 . S
H962 C968 0.949 . S
C963 H958 0.950 . S
C963 C965 1.327 . S
C963 C969 1.429 . S
C964 C956 1.574 . S
C964 H959 0.949 . S
C964 C970 1.368 . S
C965 C949 1.349 . S
C965 H957 0.950 . S
C965 C963 1.327 . S
C966 C954 1.349 . S
C966 H960 0.950 . S
C966 C967 1.327 . S
C967 H961 0.950 . S
C967 C966 1.327 . S
C967 C971 1.429 . S
C968 C951 1.574 . S
C968 H962 0.949 . S
C968 C972 1.368 . S
C969 C950 1.429 . S
C969 C963 1.429 . S
C969 C970 1.523 . S
C970 C951 1.368 . S
C970 C964 1.368 . S
C970 C969 1.523 . S
C971 C955 1.429 . S
C971 C967 1.429 . S
C971 C972 1.523 . S
C972 C956 1.368 . S
C972 C968 1.368 . S
C972 C971 1.523 . S
H973 C948 0.950 . S
H974 C950 0.950 . S
H975 C951 0.949 . S
H976 C953 0.950 1_554 S
H977 C955 0.950 . S
C978 C979 1.349 . S
C978 C980 1.327 . S
C978 H1003 0.950 . S
C979 C978 1.349 . S
C979 C995 1.349 . S
C980 C978 1.327 . S
C980 C999 1.429 . S
C980 H1004 0.950 . S
C981 C998 1.574 1_455 S
C981 C1000 1.368 . S
C981 H1005 0.949 . S
H982 C986 0.949 . S
C983 C984 1.349 . S
C983 C985 1.327 . S
C983 H1006 0.950 . S
C984 C983 1.349 . S
C984 C996 1.349 . S
C985 C983 1.327 . S
C985 C1001 1.429 . S
C985 H1007 0.950 . S
C986 H982 0.949 . S
C986 C994 1.574 1_655 S
C986 C1002 1.368 . S
H987 C995 0.950 . S
H988 C993 0.950 . S
H989 C994 0.949 . S
H990 C996 0.950 . S
H991 C997 0.950 . S
H992 C998 0.949 . S
C993 H988 0.950 . S
C993 C995 1.327 . S
C993 C999 1.429 . S
C994 C986 1.574 1_455 S
C994 H989 0.949 . S
C994 C1000 1.368 . S
C995 C979 1.349 . S
C995 H987 0.950 . S
C995 C993 1.327 . S
C996 C984 1.349 . S
C996 H990 0.950 . S
C996 C997 1.327 . S
C997 H991 0.950 . S
C997 C996 1.327 . S
C997 C1001 1.429 . S
C998 C981 1.574 1_655 S
C998 H992 0.949 . S
C998 C1002 1.368 . S
C999 C980 1.429 . S
C999 C993 1.429 . S
C999 C1000 1.523 . S
C1000 C981 1.368 . S
C1000 C994 1.368 . S
C1000 C999 1.523 . S
C1001 C985 1.429 . S
C1001 C997 1.429 . S
C1001 C1002 1.523 . S
C1002 C986 1.368 . S
C1002 C998 1.368 . S
C1002 C1001 1.523 . S
H1003 C978 0.950 . S
H1004 C980 0.950 . S
H1005 C981 0.949 . S
H1006 C983 0.950 . S
H1007 C985 0.950 . S
C1008 C1009 1.349 . S
C1008 C1010 1.327 . S
C1008 H1033 0.950 . S
C1009 C1008 1.349 . S
C1009 C1025 1.349 . S
C1010 C1008 1.327 . S
C1010 C1029 1.429 . S
C1010 H1034 0.950 . S
C1011 C1028 1.574 . S
C1011 C1030 1.368 . S
C1011 H1035 0.949 . S
H1012 C1016 0.949 . S
C1013 C1014 1.349 . S
C1013 C1015 1.327 . S
C1013 H1036 0.950 . S
C1014 C1013 1.349 . S
C1014 C1026 1.349 . S
C1015 C1013 1.327 . S
C1015 C1031 1.429 . S
C1015 H1037 0.950 . S
C1016 H1012 0.949 . S
C1016 C1024 1.574 . S
C1016 C1032 1.368 . S
H1017 C1025 0.950 . S
H1018 C1023 0.950 . S
H1019 C1024 0.949 . S
H1020 C1026 0.950 . S
H1021 C1027 0.950 . S
H1022 C1028 0.949 . S
C1023 H1018 0.950 . S
C1023 C1025 1.327 . S
C1023 C1029 1.429 . S
C1024 C1016 1.574 . S
C1024 H1019 0.949 . S
C1024 C1030 1.368 1_545 S
C1025 C1009 1.349 . S
C1025 H1017 0.950 . S
C1025 C1023 1.327 . S
C1026 C1014 1.349 . S
C1026 H1020 0.950 . S
C1026 C1027 1.327 . S
C1027 H1021 0.950 . S
C1027 C1026 1.327 . S
C1027 C1031 1.429 . S
C1028 C1011 1.574 . S
C1028 H1022 0.949 . S
C1028 C1032 1.368 1_565 S
C1029 C1010 1.429 . S
C1029 C1023 1.429 . S
C1029 C1030 1.523 . S
C1030 C1011 1.368 . S
C1030 C1024 1.368 1_565 S
C1030 C1029 1.523 . S
C1031 C1015 1.429 . S
C1031 C1027 1.429 . S
C1031 C1032 1.523 . S
C1032 C1016 1.368 . S
C1032 C1028 1.368 1_545 S
C1032 C1031 1.523 . S
H1033 C1008 0.950 . S
H1034 C1010 0.950 . S
H1035 C1011 0.949 . S
H1036 C1013 0.950 . S
H1037 C1015 0.950 . S
C1038 C1039 1.349 . S
C1038 C1040 1.327 . S
C1038 H1063 0.950 . S
C1039 C1038 1.349 . S
C1039 C1055 1.349 . S
C1040 C1038 1.327 . S
C1040 C1059 1.429 . S
C1040 H1064 0.950 . S
C1041 C1058 1.574 . S
C1041 C1060 1.368 . S
C1041 H1065 0.949 . S
H1042 C1046 0.949 . S
C1043 C1044 1.349 . S
C1043 C1045 1.327 . S
C1043 H1066 0.950 . S
C1044 C1043 1.349 . S
C1044 C1056 1.349 . S
C1045 C1043 1.327 . S
C1045 C1061 1.429 . S
C1045 H1067 0.950 . S
C1046 H1042 0.949 . S
C1046 C1054 1.574 . S
C1046 C1062 1.368 . S
H1047 C1055 0.950 . S
H1048 C1053 0.950 . S
H1049 C1054 0.949 . S
H1050 C1056 0.950 . S
H1051 C1057 0.950 . S
H1052 C1058 0.949 . S
C1053 H1048 0.950 . S
C1053 C1055 1.327 . S
C1053 C1059 1.429 . S
C1054 C1046 1.574 . S
C1054 H1049 0.949 . S
C1054 C1060 1.368 . S
C1055 C1039 1.349 . S
C1055 H1047 0.950 . S
C1055 C1053 1.327 . S
C1056 C1044 1.349 . S
C1056 H1050 0.950 . S
C1056 C1057 1.327 . S
C1057 H1051 0.950 . S
C1057 C1056 1.327 . S
C1057 C1061 1.429 . S
C1058 C1041 1.574 . S
C1058 H1052 0.949 . S
C1058 C1062 1.368 . S
C1059 C1040 1.429 . S
C1059 C1053 1.429 . S
C1059 C1060 1.523 . S
C1060 C1041 1.368 . S
C1060 C1054 1.368 . S
C1060 C1059 1.523 . S
C1061 C1045 1.429 . S
C1061 C1057 1.429 . S
C1061 C1062 1.523 . S
C1062 C1046 1.368 . S
C1062 C1058 1.368 . S
C1062 C1061 1.523 . S
H1063 C1038 0.950 . S
H1064 C1040 0.950 . S
H1065 C1041 0.949 . S
H1066 C1043 0.950 . S
H1067 C1045 0.950 . S
C1068 C1069 1.349 . S
C1068 C1070 1.327 . S
C1068 H1093 0.950 . S
C1069 C1068 1.349 . S
C1069 C1085 1.349 . S
C1070 C1068 1.327 . S
C1070 C1089 1.429 . S
C1070 H1094 0.950 . S
C1071 C1088 1.574 . S
C1071 C1090 1.368 . S
C1071 H1095 0.949 . S
H1072 C1076 0.949 . S
C1073 C1074 1.349 . S
C1073 C1075 1.327 . S
C1073 H1096 0.950 . S
C1074 C1073 1.349 . S
C1074 C1086 1.349 . S
C1075 C1073 1.327 . S
C1075 C1091 1.429 . S
C1075 H1097 0.950 . S
C1076 H1072 0.949 . S
C1076 C1084 1.574 1_455 S
C1076 C1092 1.368 . S
H1077 C1085 0.950 . S
H1078 C1083 0.950 . S
H1079 C1084 0.949 . S
H1080 C1086 0.950 . S
H1081 C1087 0.950 . S
H1082 C1088 0.949 . S
C1083 H1078 0.950 . S
C1083 C1085 1.327 . S
C1083 C1089 1.429 . S
C1084 C1076 1.574 1_655 S
C1084 H1079 0.949 . S
C1084 C1090 1.368 . S
C1085 C1069 1.349 . S
C1085 H1077 0.950 . S
C1085 C1083 1.327 . S
C1086 C1074 1.349 . S
C1086 H1080 0.950 . S
C1086 C1087 1.327 . S
C1087 H1081 0.950 . S
C1087 C1086 1.327 . S
C1087 C1091 1.429 . S
C1088 C1071 1.574 . S
C1088 H1082 0.949 . S
C1088 C1092 1.368 1_655 S
C1089 C1070 1.429 . S
C1089 C1083 1.429 . S
C1089 C1090 1.523 . S
C1090 C1071 1.368 . S
C1090 C1084 1.368 . S
C1090 C1089 1.523 . S
C1091 C1075 1.429 . S
C1091 C1087 1.429 . S
C1091 C1092 1.523 . S
C1092 C1076 1.368 . S
C1092 C1088 1.368 1_455 S
C1092 C1091 1.523 . S
H1093 C1068 0.950 . S
H1094 C1070 0.950 . S
H1095 C1071 0.949 . S
H1096 C1073 0.950 . S
H1097 C1075 0.950 . S
C1098 C1099 1.349 . S
C1098 C1100 1.327 . S
C1098 H1123 0.950 . S
C1099 C1098 1.349 . S
C1099 C1115 1.349 . S
C1100 C1098 1.327 . S
C1100 C1119 1.429 . S
C1100 H1124 0.950 . S
C1101 C1118 1.574 1_565 S
C1101 C1120 1.368 . S
C1101 H1125 0.949 . S
H1102 C1106 0.949 . S
C1103 C1104 1.349 . S
C1103 C1105 1.327 . S
C1103 H1126 0.950 . S
C1104 C1103 1.349 . S
C1104 C1116 1.349 . S
C1105 C1103 1.327 . S
C1105 C1121 1.429 . S
C1105 H1127 0.950 . S
C1106 H1102 0.949 . S
C1106 C1114 1.574 . S
C1106 C1122 1.368 1_565 S
H1107 C1115 0.950 . S
H1108 C1113 0.950 . S
H1109 C1114 0.949 . S
H1110 C1116 0.950 . S
H1111 C1117 0.950 . S
H1112 C1118 0.949 . S
C1113 H1108 0.950 . S
C1113 C1115 1.327 . S
C1113 C1119 1.429 . S
C1114 C1106 1.574 . S
C1114 H1109 0.949 . S
C1114 C1120 1.368 . S
C1115 C1099 1.349 . S
C1115 H1107 0.950 . S
C1115 C1113 1.327 . S
C1116 C1104 1.349 . S
C1116 H1110 0.950 . S
C1116 C1117 1.327 . S
C1117 H1111 0.950 . S
C1117 C1116 1.327 . S
C1117 C1121 1.429 . S
C1118 C1101 1.574 1_545 S
C1118 H1112 0.949 . S
C1118 C1122 1.368 . S
C1119 C1100 1.429 . S
C1119 C1113 1.429 . S
C1119 C1120 1.523 . S
C1120 C1101 1.368 . S
C1120 C1114 1.368 . S
C1120 C1119 1.523 . S
C1121 C1105 1.429 . S
C1121 C1117 1.429 . S
C1121 C1122 1.523 . S
C1122 C1106 1.368 1_545 S
C1122 C1118 1.368 . S
C1122 C1121 1.523 . S
H1123 C1098 0.950 . S
H1124 C1100 0.950 . S
H1125 C1101 0.949 . S
H1126 C1103 0.950 . S
H1127 C1105 0.950 . S
C1128 C1129 1.349 . S
C1128 C1130 1.327 . S
C1128 H1153 0.950 . S
C1129 C1128 1.349 . S
C1129 C1145 1.349 . S
C1130 C1128 1.327 . S
C1130 C1149 1.429 . S
C1130 H1154 0.950 . S
C1131 C1148 1.574 . S
C1131 C1150 1.368 . S
C1131 H1155 0.949 . S
H1132 C1136 0.949 . S
C1133 C1134 1.349 . S
C1133 C1135 1.327 . S
C1133 H1156 0.950 . S
C1134 C1133 1.349 . S
C1134 C1146 1.349 . S
C1135 C1133 1.327 . S
C1135 C1151 1.429 . S
C1135 H1157 0.950 . S
C1136 H1132 0.949 . S
C1136 C1144 1.574 . S
C1136 C1152 1.368 . S
H1137 C1145 0.950 . S
H1138 C1143 0.950 . S
H1139 C1144 0.949 . S
H1140 C1146 0.950 . S
H1141 C1147 0.950 . S
H1142 C1148 0.949 . S
C1143 H1138 0.950 . S
C1143 C1145 1.327 . S
C1143 C1149 1.429 . S
C1144 C1136 1.574 . S
C1144 H1139 0.949 . S
C1144 C1150 1.368 . S
C1145 C1129 1.349 . S
C1145 H1137 0.950 . S
C1145 C1143 1.327 . S
C1146 C1134 1.349 . S
C1146 H1140 0.950 . S
C1146 C1147 1.327 . S
C1147 H1141 0.950 . S
C1147 C1146 1.327 . S
C1147 C1151 1.429 . S
C1148 C1131 1.574 . S
C1148 H1142 0.949 . S
C1148 C1152 1.368 . S
C1149 C1130 1.429 . S
C1149 C1143 1.429 . S
C1149 C1150 1.523 . S
C1150 C1131 1.368 . S
C1150 C1144 1.368 . S
C1150 C1149 1.523 . S
C1151 C1135 1.429 . S
C1151 C1147 1.429 . S
C1151 C1152 1.523 . S
C1152 C1136 1.368 . S
C1152 C1148 1.368 . S
C1152 C1151 1.523 . S
H1153 C1128 0.950 . S
H1154 C1130 0.950 . S
H1155 C1131 0.949 . S
H1156 C1133 0.950 . S
H1157 C1135 0.950 . S
C1158 C1159 1.349 . S
C1158 C1160 1.327 . S
C1158 H1183 0.950 . S
C1159 C1158 1.349 . S
C1159 C1175 1.349 . S
C1160 C1158 1.327 . S
C1160 C1179 1.429 . S
C1160 H1184 0.950 . S
C1161 C1178 1.574 1_655 S
C1161 C1180 1.368 . S
C1161 H1185 0.949 . S
H1162 C1166 0.949 . S
C1163 C1164 1.349 . S
C1163 C1165 1.327 . S
C1163 H1186 0.950 . S
C1164 C1163 1.349 . S
C1164 C1176 1.349 . S
C1165 C1163 1.327 . S
C1165 C1181 1.429 . S
C1165 H1187 0.950 . S
C1166 H1162 0.949 . S
C1166 C1174 1.574 1_455 S
C1166 C1182 1.368 . S
H1167 C1175 0.950 . S
H1168 C1173 0.950 . S
H1169 C1174 0.949 . S
H1170 C1176 0.950 . S
H1171 C1177 0.950 . S
H1172 C1178 0.949 . S
C1173 H1168 0.950 . S
C1173 C1175 1.327 . S
C1173 C1179 1.429 . S
C1174 C1166 1.574 1_655 S
C1174 H1169 0.949 . S
C1174 C1180 1.368 . S
C1175 C1159 1.349 . S
C1175 H1167 0.950 . S
C1175 C1173 1.327 . S
C1176 C1164 1.349 . S
C1176 H1170 0.950 . S
C1176 C1177 1.327 . S
C1177 H1171 0.950 . S
C1177 C1176 1.327 . S
C1177 C1181 1.429 . S
C1178 C1161 1.574 1_455 S
C1178 H1172 0.949 . S
C1178 C1182 1.368 . S
C1179 C1160 1.429 . S
C1179 C1173 1.429 . S
C1179 C1180 1.523 . S
C1180 C1161 1.368 . S
C1180 C1174 1.368 . S
C1180 C1179 1.523 . S
C1181 C1165 1.429 . S
C1181 C1177 1.429 . S
C1181 C1182 1.523 . S
C1182 C1166 1.368 . S
C1182 C1178 1.368 . S
C1182 C1181 1.523 . S
H1183 C1158 0.950 . S
H1184 C1160 0.950 . S
H1185 C1161 0.949 . S
H1186 C1163 0.950 . S
H1187 C1165 0.950 . S
C1188 C1189 1.349 . S
C1188 C1190 1.327 . S
C1188 H1213 0.950 . S
C1189 C1188 1.349 . S
C1189 C1205 1.349 . S
C1190 C1188 1.327 . S
C1190 C1209 1.429 . S
C1190 H1214 0.950 . S
C1191 C1208 1.590 . S
C1191 C1210 1.342 1_545 S
C1191 H1215 0.959 1_545 S
H1192 C1196 0.949 . S
C1193 C1194 1.349 . S
C1193 C1195 1.327 . S
C1193 H1216 0.950 . S
C1194 C1193 1.349 . S
C1194 C1206 1.349 . S
C1195 C1193 1.327 . S
C1195 C1211 1.429 . S
C1195 H1217 0.950 . S
C1196 H1192 0.949 . S
C1196 C1204 1.574 1_545 S
C1196 C1212 1.368 . S
H1197 C1205 0.950 . S
H1198 C1203 0.950 . S
H1199 C1204 0.949 . S
H1200 C1206 0.950 . S
H1201 C1207 0.950 . S
H1202 C1208 0.949 . S
C1203 H1198 0.950 . S
C1203 C1205 1.327 . S
C1203 C1209 1.429 . S
C1204 C1196 1.574 1_565 S
C1204 H1199 0.949 . S
C1204 C1210 1.368 . S
C1205 C1189 1.349 . S
C1205 H1197 0.950 . S
C1205 C1203 1.327 . S
C1206 C1194 1.349 . S
C1206 H1200 0.950 . S
C1206 C1207 1.327 . S
C1207 H1201 0.950 . S
C1207 C1206 1.327 . S
C1207 C1211 1.429 . S
C1208 C1191 1.590 . S
C1208 H1202 0.949 . S
C1208 C1212 1.368 . S
C1209 C1190 1.429 . S
C1209 C1203 1.429 . S
C1209 C1210 1.523 . S
C1210 C1191 1.342 1_565 S
C1210 C1204 1.368 . S
C1210 C1209 1.523 . S
C1211 C1195 1.429 . S
C1211 C1207 1.429 . S
C1211 C1212 1.523 . S
C1212 C1196 1.368 . S
C1212 C1208 1.368 . S
C1212 C1211 1.523 . S
H1213 C1188 0.950 . S
H1214 C1190 0.950 . S
H1215 C1191 0.959 1_565 S
H1216 C1193 0.950 . S
H1217 C1195 0.950 . S
C1218 C1219 1.349 . S
C1218 C1220 1.327 . S
C1218 H1243 0.950 . S
C1219 C1218 1.349 . S
C1219 C1235 1.349 . S
C1220 C1218 1.327 . S
C1220 C1239 1.429 . S
C1220 H1244 0.950 . S
C1221 C1238 1.574 . S
C1221 C1240 1.368 . S
C1221 H1245 0.949 . S
H1222 C1226 0.949 . S
C1223 C1224 1.349 . S
C1223 C1225 1.327 . S
C1223 H1246 0.950 . S
C1224 C1223 1.349 . S
C1224 C1236 1.349 . S
C1225 C1223 1.327 . S
C1225 C1241 1.429 . S
C1225 H1247 0.950 . S
C1226 H1222 0.949 . S
C1226 C1234 1.574 . S
C1226 C1242 1.368 . S
H1227 C1235 0.950 . S
H1228 C1233 0.950 . S
H1229 C1234 0.949 . S
H1230 C1236 0.950 . S
H1231 C1237 0.950 . S
H1232 C1238 0.949 . S
C1233 H1228 0.950 . S
C1233 C1235 1.327 . S
C1233 C1239 1.429 . S
C1234 C1226 1.574 . S
C1234 H1229 0.949 . S
C1234 C1240 1.368 . S
C1235 C1219 1.349 . S
C1235 H1227 0.950 . S
C1235 C1233 1.327 . S
C1236 C1224 1.349 . S
C1236 H1230 0.950 . S
C1236 C1237 1.327 . S
C1237 H1231 0.950 . S
C1237 C1236 1.327 . S
C1237 C1241 1.429 . S
C1238 C1221 1.574 . S
C1238 H1232 0.949 . S
C1238 C1242 1.368 . S
C1239 C1220 1.429 . S
C1239 C1233 1.429 . S
C1239 C1240 1.523 . S
C1240 C1221 1.368 . S
C1240 C1234 1.368 . S
C1240 C1239 1.523 . S
C1241 C1225 1.429 . S
C1241 C1237 1.429 . S
C1241 C1242 1.523 . S
C1242 C1226 1.368 . S
C1242 C1238 1.368 . S
C1242 C1241 1.523 . S
H1243 C1218 0.950 . S
H1244 C1220 0.950 . S
H1245 C1221 0.949 . S
H1246 C1223 0.950 . S
H1247 C1225 0.950 . S
C1248 C1249 1.349 . S
C1248 C1250 1.327 . S
C1248 H1273 0.950 . S
C1249 C1248 1.349 . S
C1249 C1265 1.349 . S
C1250 C1248 1.327 . S
C1250 C1269 1.429 . S
C1250 H1274 0.950 . S
C1251 C1268 1.574 . S
C1251 C1270 1.368 . S
C1251 H1275 0.949 . S
H1252 C1256 0.949 . S
C1253 C1254 1.349 . S
C1253 C1255 1.327 . S
C1253 H1276 0.950 . S
C1254 C1253 1.349 . S
C1254 C1266 1.349 . S
C1255 C1253 1.327 . S
C1255 C1271 1.429 . S
C1255 H1277 0.950 . S
C1256 H1252 0.949 . S
C1256 C1264 1.574 . S
C1256 C1272 1.368 . S
H1257 C1265 0.950 . S
H1258 C1263 0.950 . S
H1259 C1264 0.949 . S
H1260 C1266 0.950 . S
H1261 C1267 0.950 . S
H1262 C1268 0.949 . S
C1263 H1258 0.950 . S
C1263 C1265 1.327 . S
C1263 C1269 1.429 . S
C1264 C1256 1.574 . S
C1264 H1259 0.949 . S
C1264 C1270 1.368 1_455 S
C1265 C1249 1.349 . S
C1265 H1257 0.950 . S
C1265 C1263 1.327 . S
C1266 C1254 1.349 . S
C1266 H1260 0.950 . S
C1266 C1267 1.327 . S
C1267 H1261 0.950 . S
C1267 C1266 1.327 . S
C1267 C1271 1.429 . S
C1268 C1251 1.574 . S
C1268 H1262 0.949 . S
C1268 C1272 1.368 1_655 S
C1269 C1250 1.429 . S
C1269 C1263 1.429 . S
C1269 C1270 1.523 . S
C1270 C1251 1.368 . S
C1270 C1264 1.368 1_655 S
C1270 C1269 1.523 . S
C1271 C1255 1.429 . S
C1271 C1267 1.429 . S
C1271 C1272 1.523 . S
C1272 C1256 1.368 . S
C1272 C1268 1.368 1_455 S
C1272 C1271 1.523 . S
H1273 C1248 0.950 . S
H1274 C1250 0.950 . S
H1275 C1251 0.949 . S
H1276 C1253 0.950 . S
H1277 C1255 0.950 . S
C1278 C1279 1.349 . S
C1278 C1280 1.327 . S
C1278 H1303 0.950 . S
C1279 C1278 1.349 . S
C1279 C1295 1.349 . S
C1280 C1278 1.327 . S
C1280 C1299 1.429 . S
C1280 H1304 0.950 . S
C1281 C1298 1.574 . S
C1281 C1300 1.368 . S
C1281 H1305 0.949 . S
H1282 C1286 0.949 . S
C1283 C1284 1.349 . S
C1283 C1285 1.327 . S
C1283 H1306 0.950 . S
C1284 C1283 1.349 . S
C1284 C1296 1.349 . S
C1285 C1283 1.327 . S
C1285 C1301 1.429 . S
C1285 H1307 0.950 . S
C1286 H1282 0.949 . S
C1286 C1294 1.574 . S
C1286 C1302 1.368 . S
H1287 C1295 0.950 . S
H1288 C1293 0.950 . S
H1289 C1294 0.949 . S
H1290 C1296 0.950 . S
H1291 C1297 0.950 . S
H1292 C1298 0.949 . S
C1293 H1288 0.950 . S
C1293 C1295 1.327 . S
C1293 C1299 1.429 . S
C1294 C1286 1.574 . S
C1294 H1289 0.949 . S
C1294 C1300 1.368 1_565 S
C1295 C1279 1.349 . S
C1295 H1287 0.950 . S
C1295 C1293 1.327 . S
C1296 C1284 1.349 . S
C1296 H1290 0.950 . S
C1296 C1297 1.327 . S
C1297 H1291 0.950 . S
C1297 C1296 1.327 . S
C1297 C1301 1.429 . S
C1298 C1281 1.574 . S
C1298 H1292 0.949 . S
C1298 C1302 1.368 1_545 S
C1299 C1280 1.429 . S
C1299 C1293 1.429 . S
C1299 C1300 1.523 . S
C1300 C1281 1.368 . S
C1300 C1294 1.368 1_545 S
C1300 C1299 1.523 . S
C1301 C1285 1.429 . S
C1301 C1297 1.429 . S
C1301 C1302 1.523 . S
C1302 C1286 1.368 . S
C1302 C1298 1.368 1_565 S
C1302 C1301 1.523 . S
H1303 C1278 0.950 . S
H1304 C1280 0.950 . S
H1305 C1281 0.949 . S
H1306 C1283 0.950 . S
H1307 C1285 0.950 . S
C409 C5 0.588 . S
C414 C277 0.588 . S
C439 C311 0.588 . S
C444 C39 0.588 . S
C469 C345 0.588 . S
C474 C73 0.588 . S
C499 C107 0.588 . S
C504 C379 0.588 . S
C529 C141 0.588 . S
C534 C209 0.588 . S
C559 C175 0.588 . S
C564 C243 0.588 . S
C589 C247 1.512 . S
C594 C33 1.517 . S
C619 C67 1.517 . S
C624 C281 1.488 . S
C649 C315 1.488 . S
C654 C101 1.517 . S
C679 C349 1.488 . S
C684 C135 1.517 . S
C709 C383 1.488 . S
C714 C169 1.517 . S
C739 C213 1.488 . S
C744 C203 1.517 . S
C769 C179 1.488 . S
C774 C237 1.517 . S
C799 C271 1.517 . S
C804 C9 1.488 1_556 S
C829 C305 1.517 . S
C834 C43 1.488 . S
C859 C77 1.488 . S
C864 C339 1.517 . S
C889 C111 1.488 . S
C894 C373 1.517 . S
C919 C145 1.488 . S
C924 C407 1.517 . S
C949 C190 1.156 . S
C954 C2 1.147 1_556 S
C979 C20 1.156 . S
C984 C36 1.147 . S
C1009 C70 1.147 . S
C1014 C54 1.156 . S
C1039 C88 1.157 . S
C1044 C104 1.147 . S
C1069 C122 1.157 . S
C1074 C138 1.147 . S
C1099 C156 1.157 . S
C1104 C172 1.147 . S
C1129 C206 1.147 . S
C1134 C258 1.157 . S
C1159 C240 1.147 1_554 S
C1164 C292 1.157 . S
C1189 C274 1.147 . S
C1194 C326 1.156 . S
C1219 C360 1.156 . S
C1224 C308 1.147 . S
C1249 C394 1.156 . S
C1254 C342 1.147 . S
C1279 C376 1.147 . S
C1284 C224 1.157 . S
