# Generated by pormake.
# Topology neb, (4)-cn, num edge types: 1
# Building blocks:
#     Node 0, Type 0, BuildingBlock: QUQFOY_clean_sbu_1, # of connection points: 4
#     Node 1, Type 0, BuildingBlock: QUQFOY_clean_sbu_1, # of connection points: 4
#     Node 2, Type 0, BuildingBlock: QUQFOY_clean_sbu_1, # of connection points: 4
#     Node 3, Type 0, BuildingBlock: QUQFOY_clean_sbu_1, # of connection points: 4
#     Node 4, Type 0, BuildingBlock: QUQFOY_clean_sbu_1, # of connection points: 4
#     Node 5, Type 0, BuildingBlock: QUQFOY_clean_sbu_1, # of connection points: 4
#     Node 6, Type 0, BuildingBlock: QUQFOY_clean_sbu_1, # of connection points: 4
#     Node 7, Type 0, BuildingBlock: QUQFOY_clean_sbu_1, # of connection points: 4
#     Node 8, Type 0, BuildingBlock: QUQFOY_clean_sbu_1, # of connection points: 4
#     Node 9, Type 0, BuildingBlock: QUQFOY_clean_sbu_1, # of connection points: 4
#     Node 10, Type 0, BuildingBlock: QUQFOY_clean_sbu_1, # of connection points: 4
#     Node 11, Type 0, BuildingBlock: QUQFOY_clean_sbu_1, # of connection points: 4
#     Node 12, Type 0, BuildingBlock: QUQFOY_clean_sbu_1, # of connection points: 4
#     Node 13, Type 0, BuildingBlock: QUQFOY_clean_sbu_1, # of connection points: 4
#     Node 14, Type 0, BuildingBlock: QUQFOY_clean_sbu_1, # of connection points: 4
#     Node 15, Type 0, BuildingBlock: QUQFOY_clean_sbu_1, # of connection points: 4
#     Edge 16, Type (0, 0), BuildingBlock: UVAHIK_clean_linker_0, # of connection points: 2
#     Edge 17, Type (0, 0), BuildingBlock: UVAHIK_clean_linker_0, # of connection points: 2
#     Edge 18, Type (0, 0), BuildingBlock: UVAHIK_clean_linker_0, # of connection points: 2
#     Edge 19, Type (0, 0), BuildingBlock: UVAHIK_clean_linker_0, # of connection points: 2
#     Edge 20, Type (0, 0), BuildingBlock: UVAHIK_clean_linker_0, # of connection points: 2
#     Edge 21, Type (0, 0), BuildingBlock: UVAHIK_clean_linker_0, # of connection points: 2
#     Edge 22, Type (0, 0), BuildingBlock: UVAHIK_clean_linker_0, # of connection points: 2
#     Edge 23, Type (0, 0), BuildingBlock: UVAHIK_clean_linker_0, # of connection points: 2
#     Edge 24, Type (0, 0), BuildingBlock: UVAHIK_clean_linker_0, # of connection points: 2
#     Edge 25, Type (0, 0), BuildingBlock: UVAHIK_clean_linker_0, # of connection points: 2
#     Edge 26, Type (0, 0), BuildingBlock: UVAHIK_clean_linker_0, # of connection points: 2
#     Edge 27, Type (0, 0), BuildingBlock: UVAHIK_clean_linker_0, # of connection points: 2
#     Edge 28, Type (0, 0), BuildingBlock: UVAHIK_clean_linker_0, # of connection points: 2
#     Edge 29, Type (0, 0), BuildingBlock: UVAHIK_clean_linker_0, # of connection points: 2
#     Edge 30, Type (0, 0), BuildingBlock: UVAHIK_clean_linker_0, # of connection points: 2
#     Edge 31, Type (0, 0), BuildingBlock: UVAHIK_clean_linker_0, # of connection points: 2
#     Edge 32, Type (0, 0), BuildingBlock: UVAHIK_clean_linker_0, # of connection points: 2
#     Edge 33, Type (0, 0), BuildingBlock: UVAHIK_clean_linker_0, # of connection points: 2
#     Edge 34, Type (0, 0), BuildingBlock: UVAHIK_clean_linker_0, # of connection points: 2
#     Edge 35, Type (0, 0), BuildingBlock: UVAHIK_clean_linker_0, # of connection points: 2
#     Edge 36, Type (0, 0), BuildingBlock: UVAHIK_clean_linker_0, # of connection points: 2
#     Edge 37, Type (0, 0), BuildingBlock: UVAHIK_clean_linker_0, # of connection points: 2
#     Edge 38, Type (0, 0), BuildingBlock: UVAHIK_clean_linker_0, # of connection points: 2
#     Edge 39, Type (0, 0), BuildingBlock: UVAHIK_clean_linker_0, # of connection points: 2
#     Edge 40, Type (0, 0), BuildingBlock: UVAHIK_clean_linker_0, # of connection points: 2
#     Edge 41, Type (0, 0), BuildingBlock: UVAHIK_clean_linker_0, # of connection points: 2
#     Edge 42, Type (0, 0), BuildingBlock: UVAHIK_clean_linker_0, # of connection points: 2
#     Edge 43, Type (0, 0), BuildingBlock: UVAHIK_clean_linker_0, # of connection points: 2
#     Edge 44, Type (0, 0), BuildingBlock: UVAHIK_clean_linker_0, # of connection points: 2
#     Edge 45, Type (0, 0), BuildingBlock: UVAHIK_clean_linker_0, # of connection points: 2
#     Edge 46, Type (0, 0), BuildingBlock: UVAHIK_clean_linker_0, # of connection points: 2
#     Edge 47, Type (0, 0), BuildingBlock: UVAHIK_clean_linker_0, # of connection points: 2
# Relax obj value: 0.018
# Max RMSD: 0.097
# Mean RMSD: 0.097
data_MOF--net-neb--node1-QUQFOY_clean_sbu_1--edge1-UVAHIK_clean_linker_0
_symmetry_space_group_name_H-M    P1
_symmetry_Int_Tables_number       1
_symmetry_cell_setting            triclinic
loop_
_symmetry_equiv_pos_as_xyz
'x, y, z'
_cell_length_a     63.414738
_cell_length_b     28.402501
_cell_length_c     101.32455
_cell_angle_alpha  89.989119
_cell_angle_beta   89.968509
_cell_angle_gamma 90.044713
loop_
_atom_site_label
_atom_site_type_symbol
_atom_site_fract_x
_atom_site_fract_y
_atom_site_fract_z
_atom_type_partial_charge
O0 O 0.11991 0.05629 0.43182 0.0
Cd1 Cd 0.11099 0.11249 0.44345 0.0
Cd2 Cd 0.15408 0.12541 0.44242 0.0
O3 O 0.15448 0.05967 0.43391 0.0
O4 O 0.08075 0.09818 0.447 0.0
O5 O 0.10467 0.10185 0.46278 0.0
C6 C 0.08539 0.0939 0.4593 0.0
C7 C 0.17933 0.14621 0.45822 0.0
C8 C 0.13809 0.03945 0.42946 0.0
C9 C 0.12608 0.19596 0.42856 0.0
O10 O 0.14443 0.17902 0.43018 0.0
O11 O 0.11024 0.17731 0.43421 0.0
O12 O 0.1842 0.14083 0.44597 0.0
O13 O 0.16002 0.13831 0.46166 0.0
O14 O 0.14373 0.05709 0.82359 0.0
Cd15 Cd 0.15272 0.11317 0.81192 0.0
Cd16 Cd 0.10954 0.12572 0.81283 0.0
O17 O 0.10919 0.05985 0.82127 0.0
O18 O 0.18302 0.09896 0.80856 0.0
O19 O 0.15932 0.10215 0.79264 0.0
C20 C 0.17854 0.09435 0.79624 0.0
C21 C 0.0841 0.14675 0.79719 0.0
C22 C 0.12556 0.03994 0.82584 0.0
C23 C 0.13744 0.19649 0.82674 0.0
O24 O 0.11913 0.17921 0.82513 0.0
O25 O 0.15332 0.17815 0.82108 0.0
O26 O 0.07936 0.14089 0.80944 0.0
O27 O 0.10337 0.13915 0.79365 0.0
O28 O 0.89453 0.93103 0.57451 0.0
Cd29 Cd 0.9043 0.87605 0.5628 0.0
Cd30 Cd 0.86072 0.86079 0.56276 0.0
O31 O 0.86 0.92433 0.57265 0.0
O32 O 0.93447 0.89161 0.55944 0.0
O33 O 0.91074 0.88764 0.54354 0.0
C34 C 0.92992 0.89609 0.54712 0.0
C35 C 0.83484 0.84329 0.54702 0.0
C36 C 0.87608 0.94571 0.57715 0.0
C37 C 0.88911 0.7884 0.57588 0.0
O38 O 0.87063 0.8035 0.57354 0.0
O39 O 0.90515 0.81077 0.57171 0.0
O40 O 0.83049 0.84572 0.55941 0.0
O41 O 0.85394 0.85257 0.54341 0.0
O42 O 0.86909 0.929 0.18145 0.0
Cd43 Cd 0.85912 0.87452 0.1933 0.0
Cd44 Cd 0.90271 0.85874 0.19339 0.0
O45 O 0.9036 0.9222 0.18346 0.0
O46 O 0.829 0.8906 0.19663 0.0
O47 O 0.85273 0.88669 0.21253 0.0
C48 C 0.83357 0.89529 0.20894 0.0
C49 C 0.92879 0.84086 0.20897 0.0
C50 C 0.88759 0.94352 0.17885 0.0
C51 C 0.87403 0.78644 0.18039 0.0
O52 O 0.89255 0.80147 0.18268 0.0
O53 O 0.85805 0.80899 0.18455 0.0
O54 O 0.93295 0.84331 0.19656 0.0
O55 O 0.90978 0.85038 0.2127 0.0
O56 O 0.1185 0.56007 0.9297 0.0
Cd57 Cd 0.10872 0.61271 0.94222 0.0
Cd58 Cd 0.152 0.62666 0.94315 0.0
O59 O 0.15278 0.56284 0.93336 0.0
O60 O 0.07865 0.59671 0.94574 0.0
O61 O 0.10287 0.59858 0.9614 0.0
C62 C 0.08356 0.59076 0.95796 0.0
C63 C 0.17793 0.64411 0.95889 0.0
C64 C 0.13693 0.54396 0.9278 0.0
C65 C 0.12433 0.70054 0.92994 0.0
O66 O 0.14263 0.68416 0.93218 0.0
O67 O 0.10806 0.67907 0.93411 0.0
O68 O 0.18228 0.64123 0.9465 0.0
O69 O 0.15879 0.63528 0.9625 0.0
O70 O 0.1441 0.55955 0.32559 0.0
Cd71 Cd 0.15391 0.61216 0.31306 0.0
Cd72 Cd 0.11061 0.62594 0.31216 0.0
O73 O 0.10983 0.56191 0.32185 0.0
O74 O 0.184 0.59616 0.30962 0.0
O75 O 0.15987 0.59784 0.2939 0.0
C76 C 0.17915 0.59003 0.29739 0.0
C77 C 0.08467 0.64382 0.29648 0.0
C78 C 0.12568 0.5432 0.32744 0.0
C79 C 0.13831 0.69977 0.32541 0.0
O80 O 0.12002 0.6832 0.32322 0.0
O81 O 0.15458 0.67856 0.32115 0.0
O82 O 0.08033 0.64054 0.30885 0.0
O83 O 0.1038 0.63512 0.29283 0.0
O84 O 0.89415 0.42941 0.07466 0.0
Cd85 Cd 0.90397 0.37468 0.06286 0.0
Cd86 Cd 0.86049 0.35873 0.06285 0.0
O87 O 0.85964 0.42209 0.07282 0.0
O88 O 0.93404 0.39062 0.05929 0.0
O89 O 0.91002 0.38624 0.04356 0.0
C90 C 0.92926 0.39486 0.047 0.0
C91 C 0.83451 0.34129 0.04717 0.0
C92 C 0.87565 0.4437 0.07733 0.0
C93 C 0.88913 0.28656 0.07585 0.0
O94 O 0.87059 0.30135 0.07353 0.0
O95 O 0.90509 0.30933 0.07172 0.0
O96 O 0.83027 0.34347 0.05958 0.0
O97 O 0.85357 0.35073 0.04351 0.0
O98 O 0.86907 0.43088 0.68176 0.0
Cd99 Cd 0.85963 0.37566 0.69352 0.0
Cd100 Cd 0.90307 0.36144 0.69359 0.0
O101 O 0.90361 0.42515 0.68378 0.0
O102 O 0.82948 0.39045 0.69715 0.0
O103 O 0.85359 0.38691 0.71284 0.0
C104 C 0.83428 0.39487 0.70943 0.0
C105 C 0.92883 0.34437 0.70942 0.0
C106 C 0.88748 0.44607 0.67921 0.0
C107 C 0.87508 0.28852 0.68037 0.0
O108 O 0.8935 0.30411 0.68269 0.0
O109 O 0.85897 0.31038 0.68461 0.0
O110 O 0.93332 0.34719 0.69706 0.0
O111 O 0.90963 0.35298 0.71295 0.0
O112 O 0.61938 0.05726 0.93239 0.0
Cd113 Cd 0.61063 0.11339 0.94409 0.0
Cd114 Cd 0.65376 0.12549 0.94318 0.0
O115 O 0.65394 0.05977 0.93465 0.0
O116 O 0.58035 0.09951 0.94763 0.0
O117 O 0.6043 0.10248 0.96341 0.0
C118 C 0.585 0.09489 0.95993 0.0
C119 C 0.67917 0.14603 0.9589 0.0
C120 C 0.63751 0.04001 0.9301 0.0
C121 C 0.62608 0.1967 0.92932 0.0
O122 O 0.64435 0.17928 0.93093 0.0
O123 O 0.61015 0.1784 0.93495 0.0
O124 O 0.68395 0.14039 0.94664 0.0
O125 O 0.65986 0.13846 0.96239 0.0
O126 O 0.64321 0.05551 0.32417 0.0
Cd127 Cd 0.65281 0.11151 0.31274 0.0
Cd128 Cd 0.60949 0.12605 0.3129 0.0
O129 O 0.60868 0.06127 0.32211 0.0
O130 O 0.68299 0.09643 0.30926 0.0
O131 O 0.65921 0.10142 0.29341 0.0
C132 C 0.67841 0.09282 0.29692 0.0
C133 C 0.58386 0.14538 0.29719 0.0
C134 C 0.62479 0.04003 0.32659 0.0
C135 C 0.63767 0.19695 0.3268 0.0
O136 O 0.61922 0.18156 0.32446 0.0
O137 O 0.65371 0.17593 0.32214 0.0
O138 O 0.57931 0.14135 0.30952 0.0
O139 O 0.60303 0.13682 0.29361 0.0
O140 O 0.39298 0.9302 0.07385 0.0
Cd141 Cd 0.40341 0.87452 0.06263 0.0
Cd142 Cd 0.35965 0.85721 0.06264 0.0
O143 O 0.3585 0.9213 0.07222 0.0
O144 O 0.43355 0.89099 0.05947 0.0
O145 O 0.41024 0.88511 0.04337 0.0
C146 C 0.42927 0.89454 0.04709 0.0
C147 C 0.33374 0.83816 0.04706 0.0
C148 C 0.37438 0.94409 0.07643 0.0
C149 C 0.38875 0.78675 0.07601 0.0
O150 O 0.37014 0.80078 0.07354 0.0
O151 O 0.40461 0.80983 0.07188 0.0
O152 O 0.32951 0.84083 0.05946 0.0
O153 O 0.35274 0.84797 0.04334 0.0
O154 O 0.37079 0.93266 0.68235 0.0
Cd155 Cd 0.36089 0.8767 0.69369 0.0
Cd156 Cd 0.40438 0.8615 0.69344 0.0
O157 O 0.40532 0.92642 0.6843 0.0
O158 O 0.33066 0.89224 0.69685 0.0
O159 O 0.35397 0.88701 0.71296 0.0
C160 C 0.33491 0.89591 0.70923 0.0
C161 C 0.43002 0.8413 0.70907 0.0
C162 C 0.38922 0.94795 0.67991 0.0
C163 C 0.37586 0.79122 0.67953 0.0
O164 O 0.39436 0.80636 0.68184 0.0
O165 O 0.35989 0.81237 0.68425 0.0
O166 O 0.43452 0.84554 0.69673 0.0
O167 O 0.4109 0.85019 0.7127 0.0
O168 O 0.62058 0.55334 0.43245 0.0
Cd169 Cd 0.61008 0.6097 0.44338 0.0
Cd170 Cd 0.65377 0.62726 0.44334 0.0
O171 O 0.65504 0.56281 0.43395 0.0
O172 O 0.57997 0.59322 0.44662 0.0
O173 O 0.60324 0.60053 0.46269 0.0
C174 C 0.58423 0.59067 0.45902 0.0
C175 C 0.6795 0.64692 0.45897 0.0
C176 C 0.63919 0.53957 0.42988 0.0
C177 C 0.62467 0.69686 0.42964 0.0
O178 O 0.64329 0.68318 0.43223 0.0
O179 O 0.60883 0.67379 0.4338 0.0
O180 O 0.68386 0.64387 0.44659 0.0
O181 O 0.66047 0.63719 0.46263 0.0
O182 O 0.64478 0.56078 0.82628 0.0
Cd183 Cd 0.6544 0.61332 0.81367 0.0
Cd184 Cd 0.61112 0.62634 0.8127 0.0
O185 O 0.61053 0.56246 0.82247 0.0
O186 O 0.68453 0.5978 0.81019 0.0
O187 O 0.66031 0.59874 0.79453 0.0
C188 C 0.67964 0.59135 0.79799 0.0
C189 C 0.58522 0.64342 0.79692 0.0
C190 C 0.62642 0.54414 0.82812 0.0
C191 C 0.63849 0.70087 0.82589 0.0
O192 O 0.62025 0.68397 0.82371 0.0
O193 O 0.65483 0.67985 0.82167 0.0
O194 O 0.5808 0.64026 0.80929 0.0
O195 O 0.60441 0.63507 0.79334 0.0
O196 O 0.39219 0.43472 0.57393 0.0
Cd197 Cd 0.40259 0.3782 0.56302 0.0
Cd198 Cd 0.35899 0.36083 0.56313 0.0
O199 O 0.35772 0.42533 0.57248 0.0
O200 O 0.43271 0.3945 0.55974 0.0
O201 O 0.40939 0.38719 0.5437 0.0
C202 C 0.42841 0.39697 0.54734 0.0
C203 C 0.33352 0.3415 0.54731 0.0
C204 C 0.37359 0.44857 0.57651 0.0
C205 C 0.38798 0.29121 0.57686 0.0
O206 O 0.36936 0.30493 0.5743 0.0
O207 O 0.40382 0.31418 0.57264 0.0
O208 O 0.32894 0.34444 0.55966 0.0
O209 O 0.35263 0.35106 0.54379 0.0
O210 O 0.36911 0.42902 0.18155 0.0
Cd211 Cd 0.35937 0.37352 0.19312 0.0
Cd212 Cd 0.40274 0.35879 0.1932 0.0
O213 O 0.40361 0.42312 0.18374 0.0
O214 O 0.3292 0.38884 0.19656 0.0
O215 O 0.35297 0.38426 0.21243 0.0
C216 C 0.33378 0.39281 0.20889 0.0
C217 C 0.4285 0.34012 0.2089 0.0
C218 C 0.38756 0.44426 0.17914 0.0
C219 C 0.37459 0.28736 0.17945 0.0
O220 O 0.39303 0.30272 0.18185 0.0
O221 O 0.35851 0.30875 0.18392 0.0
O222 O 0.43295 0.34363 0.19654 0.0
O223 O 0.40935 0.34883 0.21251 0.0
C224 C 0.29671 0.31635 0.54193 0.0
C225 C 0.31745 0.32537 0.5377 0.0
C226 C 0.28177 0.29793 0.53322 0.0
C227 C 0.27734 0.22966 0.50245 0.0
H228 H 0.2193 0.2725 0.50313 0.0
C229 C 0.21609 0.1717 0.46358 0.0
C230 C 0.19531 0.16307 0.46778 0.0
C231 C 0.231 0.19053 0.47224 0.0
C232 C 0.23537 0.25968 0.50294 0.0
H233 H 0.33863 0.32302 0.52091 0.0
H234 H 0.31241 0.29113 0.50563 0.0
H235 H 0.24525 0.30945 0.51755 0.0
H236 H 0.17401 0.16658 0.48449 0.0
H237 H 0.20016 0.19902 0.49971 0.0
H238 H 0.26747 0.17981 0.48786 0.0
C239 C 0.30782 0.29784 0.51576 0.0
C240 C 0.25027 0.28098 0.51118 0.0
C241 C 0.32279 0.31644 0.52448 0.0
C242 C 0.18988 0.17287 0.48094 0.0
C243 C 0.20482 0.19179 0.48963 0.0
C244 C 0.26244 0.20833 0.49422 0.0
C245 C 0.28718 0.28797 0.52007 0.0
C246 C 0.27144 0.26622 0.51104 0.0
C247 C 0.22552 0.20122 0.48534 0.0
C248 C 0.24127 0.22309 0.49435 0.0
H249 H 0.29206 0.32273 0.55206 0.0
H250 H 0.26611 0.29028 0.53692 0.0
H251 H 0.29342 0.21687 0.50226 0.0
H252 H 0.22082 0.16469 0.45349 0.0
H253 H 0.24669 0.19785 0.46855 0.0
C254 C 0.94087 0.92305 0.52449 0.0
C255 C 0.94611 0.91275 0.53765 0.0
C256 C 0.95597 0.94219 0.51594 0.0
C257 C 0.01362 0.95854 0.5116 0.0
H258 H 0.99687 0.06186 0.48891 0.0
C259 C 0.07454 0.06757 0.48201 0.0
C260 C 0.06923 0.07782 0.46886 0.0
C261 C 0.05945 0.04872 0.49063 0.0
C262 C 1.00177 0.03277 0.4951 0.0
H263 H 0.97143 0.91348 0.55206 0.0
H264 H 0.99758 0.94691 0.53721 0.0
H265 H 0.97071 0.02402 0.50302 0.0
H266 H 0.04378 0.07734 0.45454 0.0
H267 H 0.01766 0.0444 0.46949 0.0
H268 H 0.04467 0.96726 0.50367 0.0
C269 C 0.98192 0.93991 0.53343 0.0
C270 C 0.98675 0.01098 0.50316 0.0
C271 C 0.96686 0.92092 0.54197 0.0
C272 C 0.04841 0.06994 0.46462 0.0
C273 C 0.03337 0.05124 0.47322 0.0
C274 C 0.02863 0.98033 0.50353 0.0
C275 C 0.97662 0.95126 0.52035 0.0
C276 C 0.99249 0.97359 0.51151 0.0
C277 C 0.03874 0.03988 0.48629 0.0
C278 C 0.02289 0.01769 0.49517 0.0
H279 H 0.92503 0.91714 0.52086 0.0
H280 H 0.95145 0.94996 0.50586 0.0
H281 H 0.01851 0.92945 0.51779 0.0
H282 H 0.09043 0.07325 0.48558 0.0
H283 H 0.06403 0.04096 0.50069 0.0
C284 C 0.32355 0.92254 0.7318 0.0
C285 C 0.31856 0.91238 0.7186 0.0
C286 C 0.30833 0.94178 0.74025 0.0
C287 C 0.25827 0.00872 0.73946 0.0
H288 H 0.25374 0.96994 0.77602 0.0
C289 C 0.18971 0.06743 0.77365 0.0
C290 C 0.19483 0.07798 0.78681 0.0
C291 C 0.20488 0.04823 0.76516 0.0
C292 C 0.25495 0.98157 0.76587 0.0
H293 H 0.29347 0.91305 0.70403 0.0
H294 H 0.26699 0.94577 0.71877 0.0
H295 H 0.27996 0.93308 0.76178 0.0
H296 H 0.2201 0.07801 0.80126 0.0
H297 H 0.24648 0.04524 0.78647 0.0
H298 H 0.23324 0.05717 0.74355 0.0
C299 C 0.28273 0.93983 0.72255 0.0
C300 C 0.26999 0.9604 0.75771 0.0
C301 C 0.2979 0.92069 0.71413 0.0
C302 C 0.21556 0.07008 0.79119 0.0
C303 C 0.23068 0.05092 0.78274 0.0
C304 C 0.24322 0.02986 0.74762 0.0
C305 C 0.28781 0.95123 0.73567 0.0
C306 C 0.27183 0.97369 0.7444 0.0
C307 C 0.22547 0.03914 0.76968 0.0
C308 C 0.2414 0.0166 0.76093 0.0
H309 H 0.33934 0.91671 0.73554 0.0
H310 H 0.31282 0.95046 0.75027 0.0
H311 H 0.25949 0.02038 0.72931 0.0
H312 H 0.17386 0.07296 0.76998 0.0
H313 H 0.20031 0.03927 0.75517 0.0
C314 C 0.04718 0.17153 0.79203 0.0
C315 C 0.068 0.16392 0.78776 0.0
C316 C 0.03217 0.19082 0.78353 0.0
C317 C 0.02746 0.26323 0.75346 0.0
H318 H 0.96964 0.21861 0.7537 0.0
C319 C 0.9659 0.32145 0.7148 0.0
C320 C 0.94505 0.329 0.71902 0.0
C321 C 0.98096 0.3031 0.72343 0.0
C322 C 0.98565 0.23192 0.75365 0.0
H323 H 0.08926 0.16969 0.77107 0.0
H324 H 0.06293 0.20299 0.75613 0.0
H325 H 0.99576 0.18073 0.76779 0.0
H326 H 0.9238 0.32432 0.73574 0.0
H327 H 0.95022 0.29256 0.75089 0.0
H328 H 0.01734 0.31434 0.73928 0.0
C329 C 0.05832 0.19458 0.76615 0.0
C330 C 1.00065 0.21011 0.76169 0.0
C331 C 0.07336 0.17516 0.77467 0.0
C332 C 0.93972 0.3189 0.73218 0.0
C333 C 0.95482 0.30035 0.74083 0.0
C334 C 0.01246 0.28502 0.7454 0.0
C335 C 0.03759 0.20303 0.77052 0.0
C336 C 0.02174 0.22549 0.7617 0.0
C337 C 0.97556 0.29174 0.7365 0.0
C338 C 0.99137 0.26961 0.74539 0.0
H339 H 0.04251 0.16338 0.80206 0.0
H340 H 0.01645 0.19734 0.78728 0.0
H341 H 0.04347 0.27652 0.7534 0.0
H342 H 0.97054 0.32878 0.70472 0.0
H343 H 0.9967 0.29647 0.71972 0.0
C344 C 0.79795 0.81828 0.54185 0.0
C345 C 0.81858 0.82763 0.53748 0.0
C346 C 0.78289 0.7998 0.53323 0.0
C347 C 0.77819 0.73188 0.50239 0.0
H348 H 0.71984 0.77242 0.50378 0.0
C349 C 0.71626 0.67317 0.46402 0.0
C350 C 0.69569 0.66347 0.46844 0.0
C351 C 0.73129 0.69209 0.47258 0.0
C352 C 0.73601 0.76026 0.50339 0.0
H353 H 0.83942 0.82597 0.52052 0.0
H354 H 0.81299 0.79406 0.50539 0.0
H355 H 0.7459 0.81013 0.51797 0.0
H356 H 0.6749 0.66512 0.48542 0.0
H357 H 0.70127 0.69781 0.50046 0.0
H358 H 0.7683 0.682 0.48782 0.0
C359 C 0.80858 0.8005 0.51556 0.0
C360 C 0.75097 0.78198 0.5115 0.0
C361 C 0.82367 0.81913 0.5242 0.0
C362 C 0.69061 0.67221 0.48171 0.0
C363 C 0.70567 0.69128 0.49029 0.0
C364 C 0.76323 0.71017 0.49428 0.0
C365 C 0.78806 0.79013 0.52002 0.0
C366 C 0.77225 0.76804 0.5111 0.0
C367 C 0.72614 0.70186 0.48579 0.0
C368 C 0.74195 0.72409 0.49468 0.0
H369 H 0.79348 0.82432 0.55203 0.0
H370 H 0.76734 0.79177 0.53705 0.0
H371 H 0.79435 0.71968 0.50201 0.0
H372 H 0.72072 0.66697 0.45385 0.0
H373 H 0.7468 0.70028 0.46873 0.0
C374 C 0.68925 0.06703 0.27417 0.0
C375 C 0.69455 0.07682 0.28735 0.0
C376 C 0.70431 0.04833 0.26552 0.0
C377 C 0.76195 0.03216 0.26104 0.0
H378 H 0.74505 0.9294 0.23818 0.0
C379 C 0.82268 0.92251 0.23155 0.0
C380 C 0.81744 0.91226 0.21839 0.0
C381 C 0.80762 0.94176 0.2401 0.0
C382 C 0.75 0.95835 0.24441 0.0
H383 H 0.71997 0.07568 0.30169 0.0
H384 H 0.74605 0.04302 0.28669 0.0
H385 H 0.71895 0.96703 0.25235 0.0
H386 H 0.79214 0.9133 0.20397 0.0
H387 H 0.76605 0.94693 0.21881 0.0
H388 H 0.793 0.02344 0.25311 0.0
C389 C 0.73036 0.05009 0.28296 0.0
C390 C 0.73501 0.98002 0.25251 0.0
C391 C 0.71534 0.06863 0.29159 0.0
C392 C 0.79672 0.92068 0.21406 0.0
C393 C 0.78169 0.93978 0.22259 0.0
C394 C 0.77694 0.01049 0.25295 0.0
C395 C 0.72499 0.0392 0.26986 0.0
C396 C 0.7408 0.01717 0.26093 0.0
C397 C 0.78699 0.95101 0.23568 0.0
C398 C 0.77115 0.9733 0.24453 0.0
H399 H 0.67338 0.07296 0.2706 0.0
H400 H 0.69973 0.04091 0.25544 0.0
H401 H 0.76689 0.06108 0.26728 0.0
H402 H 0.8385 0.91642 0.23519 0.0
H403 H 0.81214 0.94943 0.25018 0.0
C404 C 0.9402 0.8158 0.23168 0.0
C405 C 0.94515 0.82487 0.2184 0.0
C406 C 0.95536 0.79674 0.24018 0.0
C407 C 1.00496 0.72811 0.23956 0.0
H408 H 0.01004 0.76902 0.27591 0.0
C409 C 0.07341 0.66926 0.27378 0.0
C410 C 0.06837 0.65988 0.28702 0.0
C411 C 0.05827 0.68835 0.26525 0.0
C412 C 0.00867 0.7568 0.26582 0.0
H413 H 0.97013 0.82252 0.20376 0.0
H414 H 0.99653 0.79011 0.21859 0.0
H415 H 0.98397 0.80589 0.26157 0.0
H416 H 0.04326 0.66173 0.30159 0.0
H417 H 0.01693 0.69429 0.28673 0.0
H418 H 0.02967 0.67905 0.24381 0.0
C419 C 0.98085 0.79676 0.22239 0.0
C420 C 0.99372 0.77797 0.25761 0.0
C421 C 0.96573 0.81572 0.21391 0.0
C422 C 0.04773 0.66876 0.29146 0.0
C423 C 0.03265 0.6878 0.28296 0.0
C424 C 0.01992 0.70695 0.24778 0.0
C425 C 0.97579 0.78637 0.23558 0.0
C426 C 0.99168 0.76392 0.24437 0.0
C427 C 0.0378 0.69848 0.26981 0.0
C428 C 0.02194 0.72099 0.26101 0.0
H429 H 0.92446 0.82229 0.23542 0.0
H430 H 0.95089 0.78887 0.25026 0.0
H431 H 1.00358 0.71586 0.22948 0.0
H432 H 0.08918 0.66297 0.27007 0.0
H433 H 0.0628 0.69645 0.2552 0.0
C434 C 0.29694 0.81194 0.0421 0.0
C435 C 0.31746 0.82185 0.03762 0.0
C436 C 0.28186 0.79308 0.03357 0.0
C437 C 0.26888 0.77654 0.9983 0.0
H438 H 0.23315 0.67624 0.01161 0.0
C439 C 0.21484 0.66918 0.96397 0.0
C440 C 0.19424 0.6598 0.96839 0.0
C441 C 0.22994 0.68779 0.97253 0.0
C442 C 0.24284 0.70453 0.00778 0.0
H443 H 0.33809 0.82064 0.02055 0.0
H444 H 0.31172 0.78741 0.00562 0.0
H445 H 0.25928 0.71228 0.02609 0.0
H446 H 0.17349 0.66156 0.98539 0.0
H447 H 0.19991 0.69427 1.00039 0.0
H448 H 0.25245 0.76877 0.97999 0.0
C449 C 0.30727 0.79461 0.01574 0.0
C450 C 0.25782 0.72524 0.01608 0.0
C451 C 0.3224 0.81354 0.0243 0.0
C452 C 0.18924 0.66826 0.98169 0.0
C453 C 0.20439 0.6869 0.99029 0.0
C454 C 0.25391 0.75582 0.99 0.0
C455 C 0.28689 0.78359 0.02033 0.0
C456 C 0.27101 0.76154 0.01145 0.0
C457 C 0.22484 0.69751 0.98575 0.0
C458 C 0.24072 0.71952 0.99463 0.0
H459 H 0.29255 0.81812 0.05229 0.0
H460 H 0.26622 0.78589 0.03737 0.0
H461 H 0.27855 0.80486 0.99447 0.0
H462 H 0.21928 0.66287 0.95379 0.0
H463 H 0.24563 0.69468 0.96877 0.0
C464 C 0.04677 0.56538 0.96332 0.0
C465 C 0.06759 0.57353 0.96749 0.0
C466 C 0.03184 0.54646 0.97196 0.0
C467 C 0.02733 0.47623 1.00245 0.0
H468 H 0.96952 0.5207 1.00216 0.0
C469 C 0.9661 0.41949 0.04153 0.0
C470 C 0.94527 0.41125 0.03738 0.0
C471 C 0.98104 0.43794 0.03282 0.0
C472 C 0.98553 0.50744 1.00224 0.0
H473 H 0.08896 0.569 0.98414 0.0
H474 H 0.06278 0.53634 0.99932 0.0
H475 H 0.99554 0.5576 0.98777 0.0
H476 H 0.9239 0.41508 0.02072 0.0
H477 H 0.95011 0.44702 0.00542 0.0
H478 H 0.01731 0.42612 0.01694 0.0
C479 C 0.0581 0.54406 0.98927 0.0
C480 C 1.00047 0.52868 0.99401 0.0
C481 C 0.07306 0.56309 0.98061 0.0
C482 C 0.93981 0.42105 0.02422 0.0
C483 C 0.95479 0.43967 0.01549 0.0
C484 C 0.01239 0.455 0.01068 0.0
C485 C 0.03734 0.53518 0.98501 0.0
C486 C 0.02156 0.51333 0.99401 0.0
C487 C 0.97554 0.44871 0.01973 0.0
C488 C 0.99131 0.47037 0.01069 0.0
H489 H 0.04201 0.57289 0.95327 0.0
H490 H 0.0161 0.53957 0.96829 0.0
H491 H 0.04334 0.46297 1.00253 0.0
H492 H 0.97085 0.41243 0.0516 0.0
H493 H 0.99679 0.44496 0.03646 0.0
C494 C 0.32292 0.41913 0.23159 0.0
C495 C 0.31763 0.40908 0.21842 0.0
C496 C 0.30785 0.43796 0.24021 0.0
C497 C 0.25756 0.50403 0.24001 0.0
H498 H 0.254 0.46438 0.27654 0.0
C499 C 0.18972 0.56181 0.27482 0.0
C500 C 0.19514 0.57252 0.28792 0.0
C501 C 0.20469 0.54243 0.26622 0.0
C502 C 0.25494 0.47623 0.2664 0.0
H503 H 0.29219 0.40958 0.2041 0.0
H504 H 0.26597 0.44163 0.21914 0.0
H505 H 0.28001 0.42827 0.262 0.0
H506 H 0.22069 0.57236 0.30218 0.0
H507 H 0.24672 0.53924 0.2872 0.0
H508 H 0.23248 0.55198 0.24441 0.0
C509 C 0.28182 0.43589 0.22276 0.0
C510 C 0.26986 0.4555 0.25806 0.0
C511 C 0.29685 0.41715 0.21416 0.0
C512 C 0.21593 0.56433 0.29216 0.0
C513 C 0.23085 0.54498 0.2836 0.0
C514 C 0.24263 0.52473 0.24834 0.0
C515 C 0.28719 0.44713 0.23584 0.0
C516 C 0.27135 0.46912 0.24476 0.0
C517 C 0.22537 0.53331 0.27057 0.0
C518 C 0.24115 0.51114 0.26164 0.0
H519 H 0.33881 0.41347 0.23516 0.0
H520 H 0.31256 0.44654 0.2502 0.0
H521 H 0.25851 0.51594 0.22987 0.0
H522 H 0.17383 0.56756 0.27126 0.0
H523 H 0.19991 0.53351 0.25627 0.0
C524 C 0.71601 0.17133 0.96411 0.0
C525 C 0.69524 0.16298 0.96838 0.0
C526 C 0.73096 0.19054 0.97267 0.0
C527 C 0.74301 0.21022 0.00789 0.0
H528 H 0.77991 0.30782 0.99426 0.0
C529 C 0.79748 0.3172 0.04205 0.0
C530 C 0.81818 0.32575 0.03767 0.0
C531 C 0.78235 0.29875 0.03348 0.0
C532 C 0.76989 0.28028 0.99818 0.0
H533 H 0.67402 0.1674 0.98512 0.0
H534 H 0.70019 0.20116 1.0001 0.0
H535 H 0.75386 0.27157 0.97976 0.0
H536 H 0.83907 0.32262 0.02075 0.0
H537 H 0.81262 0.29002 0.00577 0.0
H538 H 0.75908 0.21878 0.02629 0.0
C539 C 0.70491 0.19251 0.99012 0.0
C540 C 0.75495 0.25947 0.98988 0.0
C541 C 0.6899 0.17329 0.98153 0.0
C542 C 0.82325 0.31659 0.02442 0.0
C543 C 0.80807 0.29801 0.01583 0.0
C544 C 0.75797 0.23098 0.01619 0.0
C545 C 0.72555 0.20191 0.98573 0.0
C546 C 0.74135 0.22415 0.99462 0.0
C547 C 0.78751 0.28826 0.02032 0.0
C548 C 0.77159 0.2663 0.01145 0.0
H549 H 0.72071 0.16361 0.95406 0.0
H550 H 0.74681 0.19651 0.96903 0.0
H551 H 0.73299 0.18267 0.01181 0.0
H552 H 0.793 0.32411 0.05218 0.0
H553 H 0.76657 0.29258 0.03721 0.0
C554 C 0.69017 0.56261 0.77546 0.0
C555 C 0.69565 0.57399 0.78851 0.0
C556 C 0.70516 0.54335 0.76687 0.0
C557 C 0.76282 0.52892 0.76211 0.0
H558 H 0.74625 0.42456 0.73973 0.0
C559 C 0.82374 0.42137 0.73217 0.0
C560 C 0.81823 0.41086 0.71907 0.0
C561 C 0.80873 0.43987 0.74089 0.0
C562 C 0.75109 0.45393 0.74583 0.0
H563 H 0.72128 0.5748 0.8027 0.0
H564 H 0.74726 0.54109 0.7878 0.0
H565 H 0.72016 0.46169 0.75402 0.0
H566 H 0.79252 0.41052 0.70494 0.0
H567 H 0.76652 0.44282 0.72006 0.0
H568 H 0.79374 0.52118 0.75391 0.0
C569 C 0.73148 0.54741 0.78413 0.0
C570 C 0.73612 0.47531 0.754 0.0
C571 C 0.71652 0.56655 0.7927 0.0
C572 C 0.79731 0.41816 0.71497 0.0
C573 C 0.78233 0.43648 0.72367 0.0
C574 C 0.77779 0.50753 0.75394 0.0
C575 C 0.72596 0.53518 0.77114 0.0
C576 C 0.74179 0.51309 0.76223 0.0
C577 C 0.7879 0.44806 0.73669 0.0
C578 C 0.77211 0.46981 0.74569 0.0
H579 H 0.67423 0.56795 0.77193 0.0
H580 H 0.70047 0.53489 0.75687 0.0
H581 H 0.76766 0.55834 0.76819 0.0
H582 H 0.83972 0.41613 0.73563 0.0
H583 H 0.81346 0.44785 0.75091 0.0
C584 C 0.54798 0.0711 0.96521 0.0
C585 C 0.56881 0.07875 0.96946 0.0
C586 C 0.53293 0.05223 0.97377 0.0
C587 C 0.52819 0.98051 0.00396 0.0
H588 H 0.4702 0.02374 0.0034 0.0
C589 C 0.4662 0.91984 0.04213 0.0
C590 C 0.44553 0.91138 0.03771 0.0
C591 C 0.4813 0.93914 0.03367 0.0
C592 C 0.48626 0.01084 0.00355 0.0
H593 H 0.59001 0.07367 0.98618 0.0
H594 H 0.56359 0.04113 1.00123 0.0
H595 H 0.49637 0.06218 0.98943 0.0
H596 H 0.42464 0.9156 0.02082 0.0
H597 H 0.45114 0.94904 0.00597 0.0
H598 H 0.51807 0.92922 0.01809 0.0
C599 C 0.55901 0.04917 0.99118 0.0
C600 C 0.50129 0.03297 0.99557 0.0
C601 C 0.57411 0.06816 0.9826 0.0
C602 C 0.44042 0.92171 0.02453 0.0
C603 C 0.45555 0.9412 0.01606 0.0
C604 C 0.51316 0.95842 0.01195 0.0
C605 C 0.53829 0.0405 0.98682 0.0
C606 C 0.52244 0.01803 0.99565 0.0
C607 C 0.47612 0.95057 0.02058 0.0
C608 C 0.49201 0.97329 0.01183 0.0
H609 H 0.54335 0.07876 0.95515 0.0
H610 H 0.51722 0.04553 0.97003 0.0
H611 H 0.54424 0.96754 0.0041 0.0
H612 H 0.47067 0.91238 0.05223 0.0
H613 H 0.49691 0.94634 0.03752 0.0
C614 C 0.43958 0.31456 0.23162 0.0
C615 C 0.44473 0.32407 0.2184 0.0
C616 C 0.4547 0.29581 0.24021 0.0
C617 C 0.50473 0.2288 0.2399 0.0
H618 H 0.50899 0.26981 0.27628 0.0
C619 C 0.5729 0.17147 0.27449 0.0
C620 C 0.56769 0.16177 0.2877 0.0
C621 C 0.55783 0.19042 0.2659 0.0
C622 C 0.50785 0.25757 0.26618 0.0
H623 H 0.46999 0.32272 0.20394 0.0
H624 H 0.49631 0.29078 0.21891 0.0
H625 H 0.48291 0.30588 0.26179 0.0
H626 H 0.54237 0.16306 0.30212 0.0
H627 H 0.51616 0.19538 0.28714 0.0
H628 H 0.52967 0.18049 0.24429 0.0
C629 C 0.48051 0.2969 0.22261 0.0
C630 C 0.49289 0.27828 0.25788 0.0
C631 C 0.46544 0.31558 0.21405 0.0
C632 C 0.54697 0.17033 0.29203 0.0
C633 C 0.53195 0.18923 0.28346 0.0
C634 C 0.51968 0.2081 0.2482 0.0
C635 C 0.47528 0.28617 0.23575 0.0
C636 C 0.49116 0.26418 0.24463 0.0
C637 C 0.53725 0.20009 0.27034 0.0
C638 C 0.52141 0.22217 0.26145 0.0
H639 H 0.42375 0.32057 0.23527 0.0
H640 H 0.4501 0.28764 0.25025 0.0
H641 H 0.50358 0.21654 0.22981 0.0
H642 H 0.58874 0.16542 0.27086 0.0
H643 H 0.56248 0.19869 0.25588 0.0
C644 C 0.46683 0.81541 0.71412 0.0
C645 C 0.44616 0.82428 0.7185 0.0
C646 C 0.4818 0.79594 0.72262 0.0
C647 C 0.49405 0.7758 0.75784 0.0
H648 H 0.53064 0.67813 0.744 0.0
C649 C 0.54818 0.66718 0.79175 0.0
C650 C 0.56892 0.659 0.7874 0.0
C651 C 0.53309 0.68589 0.78321 0.0
C652 C 0.5207 0.70568 0.74798 0.0
H653 H 0.42515 0.82051 0.73535 0.0
H654 H 0.45132 0.78623 0.75022 0.0
H655 H 0.50462 0.71492 0.7296 0.0
H656 H 0.58991 0.66296 0.77054 0.0
H657 H 0.56351 0.6959 0.75559 0.0
H658 H 0.51014 0.76659 0.77621 0.0
C659 C 0.45597 0.79472 0.74021 0.0
C660 C 0.50578 0.72682 0.73973 0.0
C661 C 0.44095 0.81425 0.73168 0.0
C662 C 0.57406 0.66871 0.77419 0.0
C663 C 0.55891 0.68748 0.76561 0.0
C664 C 0.50896 0.75466 0.76609 0.0
C665 C 0.4765 0.78478 0.73572 0.0
C666 C 0.49229 0.7622 0.74455 0.0
C667 C 0.53833 0.69696 0.77009 0.0
C668 C 0.52247 0.71931 0.76126 0.0
H669 H 0.47142 0.82291 0.70404 0.0
H670 H 0.49756 0.78961 0.7189 0.0
H671 H 0.48413 0.80339 0.76182 0.0
H672 H 0.54364 0.65987 0.80185 0.0
H673 H 0.51729 0.69186 0.78691 0.0
C674 C 0.43969 0.42081 0.5245 0.0
C675 C 0.44467 0.41296 0.53783 0.0
C676 C 0.45481 0.43935 0.51586 0.0
C677 C 0.5124 0.4583 0.51194 0.0
H678 H 0.49517 0.55665 0.48771 0.0
C679 C 0.57292 0.56664 0.48184 0.0
C680 C 0.56797 0.57455 0.4685 0.0
C681 C 0.55779 0.548 0.49046 0.0
C682 C 0.50021 0.52893 0.49433 0.0
H683 H 0.46957 0.41749 0.55247 0.0
H684 H 0.49576 0.4499 0.53748 0.0
H685 H 0.46902 0.51961 0.50199 0.0
H686 H 0.5431 0.56999 0.45385 0.0
H687 H 0.5169 0.53741 0.4688 0.0
H688 H 0.5436 0.46763 0.50429 0.0
C689 C 0.48029 0.4414 0.53363 0.0
C690 C 0.4852 0.50759 0.50249 0.0
C691 C 0.4652 0.423 0.54225 0.0
C692 C 0.54745 0.56445 0.46406 0.0
C693 C 0.53236 0.54594 0.47266 0.0
C694 C 0.52741 0.47964 0.50378 0.0
C695 C 0.47524 0.45029 0.52036 0.0
C696 C 0.49111 0.47202 0.5114 0.0
C697 C 0.53739 0.53702 0.48593 0.0
C698 C 0.52151 0.51522 0.49487 0.0
H699 H 0.42402 0.41343 0.52079 0.0
H700 H 0.4505 0.4452 0.50565 0.0
H701 H 0.51745 0.43058 0.51856 0.0
H702 H 0.58858 0.57407 0.48557 0.0
H703 H 0.56209 0.54213 0.50067 0.0
C704 C 0.12249 0.7643 0.3389 0.0
C705 C 0.14055 0.74123 0.33415 0.0
C706 C 0.12416 0.79908 0.34855 0.0
C707 C 0.15895 0.83719 0.37551 0.0
H708 H 0.12091 0.94394 0.37642 0.0
C709 C 0.15997 0.98474 0.41559 0.0
C710 C 0.14008 -0.00041 0.42013 0.0
C711 C 0.16155 0.95245 0.4052 0.0
C712 C 0.13153 0.91409 0.37634 0.0
H713 H 0.1747 0.73834 0.33535 0.0
H714 H 0.17763 0.79982 0.35211 0.0
H715 H 0.12151 0.89304 0.35709 0.0
H716 H 0.1063 0.98974 0.41787 0.0
H717 H 0.10913 0.93355 0.39987 0.0
H718 H 0.16892 0.85861 0.39484 0.0
C719 C 0.16213 0.79026 0.34851 0.0
C720 C 0.13191 0.88498 0.36527 0.0
C721 C 0.16046 0.75535 0.33883 0.0
C722 C 0.12187 0.97947 0.41456 0.0
C723 C 0.12347 0.94751 0.40417 0.0
C724 C 0.15867 0.86661 0.38659 0.0
C725 C 0.14396 0.81184 0.35366 0.0
C726 C 0.14531 0.84564 0.36482 0.0
C727 C 0.14328 0.9347 0.39914 0.0
C728 C 0.14464 0.90477 0.3872 0.0
H729 H 0.1069 0.75437 0.33552 0.0
H730 H 0.10981 0.81455 0.35239 0.0
H731 H 0.1693 0.80688 0.37555 0.0
H732 H 0.1743 -0.0005 0.41967 0.0
H733 H 0.17703 0.94307 0.40152 0.0
C734 C 0.10465 0.26207 0.41895 0.0
C735 C 0.12304 0.2344 0.41892 0.0
C736 C 0.10148 0.29615 0.40915 0.0
C737 C 0.11236 0.32219 0.37523 0.0
H738 H 0.1141 0.45536 0.38364 0.0
C739 C 0.10413 0.47791 0.33745 0.0
C740 C 0.12264 0.50524 0.33724 0.0
C741 C 0.10104 0.44413 0.34734 0.0
C742 C 0.11326 0.41825 0.38122 0.0
H743 H 0.15243 0.22063 0.4086 0.0
H744 H 0.14653 0.27915 0.3914 0.0
H745 H 0.11389 0.39703 0.40155 0.0
H746 H 0.15232 0.51875 0.34724 0.0
H747 H 0.14659 0.46076 0.36461 0.0
H748 H 0.11211 0.34339 0.3549 0.0
C749 C 0.13477 0.27474 0.39907 0.0
C750 C 0.11308 0.3851 0.3914 0.0
C751 C 0.13817 0.24159 0.40897 0.0
C752 C 0.13796 0.49806 0.34706 0.0
C753 C 0.13465 0.46521 0.35706 0.0
C754 C 0.11208 0.35536 0.36505 0.0
C755 C 0.11638 0.30205 0.39904 0.0
C756 C 0.11319 0.33688 0.38846 0.0
C757 C 0.11616 0.43819 0.35732 0.0
C758 C 0.1131 0.40355 0.36798 0.0
H759 H 0.09273 0.25725 0.42649 0.0
H760 H 0.08724 0.31718 0.4093 0.0
H761 H 0.11251 0.28505 0.3728 0.0
H762 H 0.09207 0.48273 0.33001 0.0
H763 H 0.08672 0.42333 0.34737 0.0
C764 C 0.15862 0.26316 0.83629 0.0
C765 C 0.14036 0.23501 0.83636 0.0
C766 C 0.16167 0.29742 0.84605 0.0
C767 C 0.15114 0.32343 0.87993 0.0
H768 H 0.14761 0.45642 0.87151 0.0
C769 C 0.15858 0.47913 0.91771 0.0
C770 C 0.13998 0.50606 0.918 0.0
C771 C 0.1617 0.44547 0.90779 0.0
C772 C 0.14893 0.41939 0.87394 0.0
H773 H 0.11108 0.22054 0.84673 0.0
H774 H 0.11675 0.27938 0.86387 0.0
H775 H 0.14805 0.39809 0.85362 0.0
H776 H 0.11015 0.51895 0.90812 0.0
H777 H 0.11591 0.46116 0.89072 0.0
H778 H 0.15165 0.34467 0.90026 0.0
C779 C 0.12851 0.27521 0.8562 0.0
C780 C 0.14926 0.38624 0.86376 0.0
C781 C 0.12523 0.24187 0.84633 0.0
C782 C 0.12458 0.49858 0.90824 0.0
C783 C 0.12791 0.46584 0.89821 0.0
C784 C 0.15128 0.35663 0.8901 0.0
C785 C 0.14676 0.30302 0.85617 0.0
C786 C 0.14981 0.33805 0.86671 0.0
C787 C 0.1465 0.43924 0.89787 0.0
C788 C 0.14961 0.40474 0.88718 0.0
H789 H 0.17054 0.2586 0.82873 0.0
H790 H 0.17581 0.31885 0.84587 0.0
H791 H 0.15149 0.2863 0.88237 0.0
H792 H 0.17071 0.48419 0.92509 0.0
H793 H 0.17611 0.42501 0.9077 0.0
C794 C 0.10225 0.75574 0.91639 0.0
C795 C 0.12211 0.74208 0.92124 0.0
C796 C 0.10063 0.79067 0.90671 0.0
C797 C 0.13079 0.88618 0.89022 0.0
H798 H 0.09469 0.8586 0.86029 0.0
C799 C 0.14165 0.98056 0.84096 0.0
C800 C 0.12351 0.00013 0.83519 0.0
C801 C 0.13994 0.94866 0.85136 0.0
C802 C 0.10467 0.86695 0.86864 0.0
H803 H 0.15572 0.7561 0.92016 0.0
H804 H 0.15292 0.81634 0.9033 0.0
H805 H 0.09406 0.80697 0.8796 0.0
H806 H 0.08928 -0.00088 0.83529 0.0
H807 H 0.08634 0.94279 0.85346 0.0
H808 H 0.14178 0.9454 0.87914 0.0
C809 C 0.13856 0.80047 0.90701 0.0
C810 C 0.10425 0.83759 0.87972 0.0
C811 C 0.14018 0.76566 0.91665 0.0
C812 C 0.10357 0.98479 0.83953 0.0
C813 C 0.10187 0.95256 0.84993 0.0
C814 C 0.1313 0.91525 0.87913 0.0
C815 C 0.11882 0.81273 0.90172 0.0
C816 C 0.11758 0.84647 0.89055 0.0
C817 C 0.12006 0.93536 0.8562 0.0
C818 C 0.11853 0.90549 0.86814 0.0
H819 H 0.08801 0.73833 0.91973 0.0
H820 H 0.08518 0.79984 0.90297 0.0
H821 H 0.14093 0.89457 0.89849 0.0
H822 H 0.15727 0.99121 0.8378 0.0
H823 H 0.15423 0.93513 0.85582 0.0
C824 C 0.8526 0.23323 0.66705 0.0
C825 C 0.87259 0.24708 0.67165 0.0
C826 C 0.8507 0.19776 0.65752 0.0
C827 C 0.88055 0.10109 0.64135 0.0
H828 H 0.84354 0.12525 0.61163 0.0
C829 C 0.89148 0.00604 0.59226 0.0
C830 C 0.87354 0.98484 0.58667 0.0
C831 C 0.88948 0.03787 0.60265 0.0
C832 C 0.85376 0.11786 0.61994 0.0
H833 H 0.90617 0.23314 0.67023 0.0
H834 H 0.9029 0.17214 0.65364 0.0
H835 H 0.84317 0.17844 0.63063 0.0
H836 H 0.83932 0.9827 0.58714 0.0
H837 H 0.8359 0.03906 0.6053 0.0
H838 H 0.8916 0.04142 0.63051 0.0
C839 C 0.88863 0.18813 0.65744 0.0
C840 C 0.8535 0.14811 0.63084 0.0
C841 C 0.89052 0.22342 0.66692 0.0
C842 C 0.85347 -0.00169 0.59124 0.0
C843 C 0.85148 0.03054 0.60163 0.0
C844 C 0.88093 0.07118 0.63044 0.0
C845 C 0.86875 0.17537 0.65246 0.0
C846 C 0.8672 0.14055 0.64156 0.0
C847 C 0.86952 0.04952 0.60766 0.0
C848 C 0.86785 0.07976 0.61952 0.0
H849 H 0.83846 0.25071 0.67049 0.0
H850 H 0.83514 0.1883 0.65401 0.0
H851 H 0.89097 0.09362 0.64955 0.0
H852 H 0.90718 -0.00312 0.58893 0.0
H853 H 0.90364 0.05276 0.60695 0.0
C854 C 0.9101 0.49988 0.66544 0.0
C855 C 0.88999 0.48519 0.66966 0.0
C856 C 0.91218 0.53207 0.65505 0.0
C857 C 0.88368 0.57046 0.62564 0.0
H858 H 0.92006 0.68019 0.62608 0.0
C859 C 0.87389 0.72206 0.58897 0.0
C860 C 0.89173 0.74691 0.58458 0.0
C861 C 0.8758 0.6868 0.59846 0.0
C862 C 0.91013 0.64918 0.6257 0.0
H863 H 0.85633 0.49495 0.66675 0.0
H864 H 0.86005 0.55078 0.64872 0.0
H865 H 0.91942 0.62716 0.64512 0.0
H866 H 0.92575 0.75271 0.58631 0.0
H867 H 0.92909 0.69038 0.60282 0.0
H868 H 0.87431 0.59208 0.60632 0.0
C869 C 0.87417 0.53689 0.65331 0.0
C870 C 0.90971 0.61901 0.63662 0.0
C871 C 0.87207 0.50511 0.66371 0.0
C872 C 0.91168 0.73427 0.5895 0.0
C873 C 0.91358 0.69885 0.59904 0.0
C874 C 0.88422 0.60028 0.61472 0.0
C875 C 0.89421 0.54978 0.64866 0.0
C876 C 0.8961 0.58001 0.6368 0.0
C877 C 0.8956 0.67529 0.60379 0.0
C878 C 0.89707 0.64062 0.61473 0.0
H879 H 0.92422 0.48528 0.66983 0.0
H880 H 0.92782 0.54157 0.65167 0.0
H881 H 0.87339 0.54 0.6254 0.0
H882 H 0.85829 0.73081 0.5854 0.0
H883 H 0.86157 0.66985 0.602 0.0
C884 C 0.85278 0.4964 0.09124 0.0
C885 C 0.87295 0.48258 0.08692 0.0
C886 C 0.85057 0.52844 0.10166 0.0
C887 C 0.87905 0.56766 0.13096 0.0
H888 H 0.8424 0.67681 0.13057 0.0
C889 C 0.88908 0.71989 0.16735 0.0
C890 C 0.8713 0.74477 0.17178 0.0
C891 C 0.88707 0.6844 0.15794 0.0
C892 C 0.8524 0.64595 0.13095 0.0
H893 H 0.90655 0.49372 0.08969 0.0
H894 H 0.90262 0.54922 0.10777 0.0
H895 H 0.84298 0.62359 0.11158 0.0
H896 H 0.83726 0.75034 0.17021 0.0
H897 H 0.83372 0.68759 0.15385 0.0
H898 H 0.88856 0.58961 0.15023 0.0
C899 C 0.88856 0.53479 0.10324 0.0
C900 C 0.85279 0.61568 0.12005 0.0
C901 C 0.89078 0.5032 0.09281 0.0
C902 C 0.85129 0.7319 0.16699 0.0
C903 C 0.84927 0.69624 0.15753 0.0
C904 C 0.87854 0.59757 0.14187 0.0
C905 C 0.86848 0.54683 0.10798 0.0
C906 C 0.86652 0.57693 0.11984 0.0
C907 C 0.8672 0.67265 0.15274 0.0
C908 C 0.86562 0.63773 0.14187 0.0
H909 H 0.83872 0.48125 0.0869 0.0
H910 H 0.8349 0.53729 0.10512 0.0
H911 H 0.88944 0.5374 0.13118 0.0
H912 H 0.90474 0.72881 0.17081 0.0
H913 H 0.90126 0.66747 0.15435 0.0
C914 C 0.91048 -0.00343 0.16502 0.0
C915 C 0.8903 0.98238 0.16925 0.0
C916 C 0.91272 0.02863 0.15461 0.0
C917 C 0.88448 0.06729 0.12515 0.0
H918 H 0.92064 0.17737 0.12576 0.0
C919 C 0.87419 0.21961 0.08882 0.0
C920 C 0.89193 0.2449 0.08446 0.0
C921 C 0.87625 0.1841 0.09822 0.0
C922 C 0.91078 0.14626 0.12533 0.0
H923 H 0.8567 0.99284 0.1663 0.0
H924 H 0.86068 0.04834 0.14823 0.0
H925 H 0.92006 0.12402 0.14473 0.0
H926 H 0.92593 0.25121 0.08616 0.0
H927 H 0.92954 0.18844 0.10251 0.0
H928 H 0.87509 0.08914 0.10586 0.0
C929 C 0.87473 0.03421 0.15283 0.0
C930 C 0.9104 0.1159 0.13621 0.0
C931 C 0.87248 0.00261 0.16326 0.0
C932 C 0.91193 0.23245 0.08932 0.0
C933 C 0.91399 0.19677 0.09877 0.0
C934 C 0.88498 0.09729 0.11427 0.0
C935 C 0.89483 0.04664 0.14819 0.0
C936 C 0.89683 0.07681 0.13634 0.0
C937 C 0.89611 0.17275 0.10348 0.0
C938 C 0.89773 0.13778 0.11435 0.0
H939 H 0.92453 0.98173 0.16944 0.0
H940 H 0.9284 0.0378 0.15123 0.0
H941 H 0.87422 0.03678 0.12488 0.0
H942 H 0.85854 0.22821 0.08529 0.0
H943 H 0.86209 0.16681 0.10174 0.0
C944 C 0.62244 0.76541 0.83928 0.0
C945 C 0.64059 0.74243 0.8346 0.0
C946 C 0.62399 0.80019 0.84894 0.0
C947 C 0.65842 0.83807 0.87608 0.0
H948 H 0.62047 0.94497 0.87689 0.0
C949 C 0.65932 0.98501 0.91628 0.0
C950 C 0.63944 0.00026 0.92072 0.0
C951 C 0.6609 0.95282 0.90587 0.0
C952 C 0.63106 0.91507 0.87684 0.0
H953 H 0.67472 0.73973 0.83594 0.0
H954 H 0.67741 0.80118 0.85272 0.0
H955 H 0.62123 0.89418 0.85754 0.0
H956 H 0.60565 0.99125 0.91827 0.0
H957 H 0.60848 0.93518 0.90023 0.0
H958 H 0.66819 0.85926 0.89546 0.0
C959 C 0.66196 0.79156 0.84905 0.0
C960 C 0.63153 0.88603 0.86575 0.0
C961 C 0.66042 0.75666 0.83935 0.0
C962 C 0.62122 0.98066 0.91503 0.0
C963 C 0.62282 0.94877 0.90462 0.0
C964 C 0.65804 0.86739 0.88717 0.0
C965 C 0.64371 0.81301 0.85414 0.0
C966 C 0.64492 0.84667 0.86533 0.0
C967 C 0.64264 0.93554 0.89969 0.0
C968 C 0.64405 0.90563 0.88775 0.0
H969 H 0.60691 0.75539 0.83583 0.0
H970 H 0.60958 0.81559 0.85272 0.0
H971 H 0.66875 0.80772 0.87614 0.0
H972 H 0.67367 -0.00062 0.92046 0.0
H973 H 0.67639 0.94314 0.90227 0.0
C974 C 0.63849 0.24231 0.9098 0.0
C975 C 0.62326 0.23532 0.91971 0.0
C976 C 0.63529 0.27564 0.89992 0.0
C977 C 0.61412 0.38643 0.89222 0.0
H978 H 0.61279 0.34465 0.85573 0.0
C979 C 0.63873 0.49962 0.84784 0.0
C980 C 0.62346 0.5063 0.83796 0.0
C981 C 0.63547 0.46686 0.85788 0.0
C982 C 0.61287 0.35665 0.86587 0.0
H983 H 0.593 0.25871 0.92722 0.0
H984 H 0.58786 0.31892 0.91006 0.0
H985 H 0.61304 0.28635 0.87363 0.0
H986 H 0.59305 0.48301 0.83066 0.0
H987 H 0.58781 0.42379 0.84807 0.0
H988 H 0.61536 0.45665 0.88445 0.0
C989 C 0.60202 0.29762 0.90994 0.0
C990 C 0.61306 0.3235 0.87606 0.0
C991 C 0.60499 0.26337 0.91971 0.0
C992 C 0.60507 0.47858 0.83815 0.0
C993 C 0.60205 0.44489 0.84807 0.0
C994 C 0.61439 0.41956 0.88203 0.0
C995 C 0.61701 0.30331 0.89987 0.0
C996 C 0.614 0.3382 0.88928 0.0
C997 C 0.6171 0.43943 0.85811 0.0
C998 C 0.61409 0.40484 0.86879 0.0
H999 H 0.65266 0.22107 0.90945 0.0
H1000 H 0.64712 0.27988 0.89229 0.0
H1001 H 0.61501 0.39835 0.90236 0.0
H1002 H 0.65299 0.52063 0.84805 0.0
H1003 H 0.64737 0.46278 0.86547 0.0
C1004 C 0.6605 0.25142 0.3402 0.0
C1005 C 0.64032 0.23629 0.33625 0.0
C1006 C 0.66278 0.2837 0.35055 0.0
C1007 C 0.63519 0.32093 0.38037 0.0
H1008 H 0.67017 0.43286 0.37932 0.0
C1009 C 0.62454 0.47226 0.41695 0.0
C1010 C 0.64215 0.49839 0.42111 0.0
C1011 C 0.62666 0.43702 0.40748 0.0
C1012 C 0.66065 0.40124 0.37987 0.0
H1013 H 0.60673 0.24536 0.33961 0.0
H1014 H 0.61079 0.30125 0.35758 0.0
H1015 H 0.66948 0.37962 0.36033 0.0
H1016 H 0.676 0.50656 0.41895 0.0
H1017 H 0.67973 0.44428 0.40246 0.0
H1018 H 0.62627 0.34213 0.39981 0.0
C1019 C 0.62481 0.28769 0.3528 0.0
C1020 C 0.6602 0.37096 0.36897 0.0
C1021 C 0.62252 0.25588 0.34243 0.0
C1022 C 0.66211 0.48712 0.41595 0.0
C1023 C 0.66423 0.45172 0.40642 0.0
C1024 C 0.63577 0.35085 0.39127 0.0
C1025 C 0.64494 0.30099 0.35718 0.0
C1026 C 0.64704 0.33119 0.36902 0.0
C1027 C 0.64645 0.42681 0.40193 0.0
C1028 C 0.64808 0.39201 0.39103 0.0
H1029 H 0.67454 0.23709 0.33563 0.0
H1030 H 0.67848 0.29356 0.35373 0.0
H1031 H 0.62526 0.28989 0.38077 0.0
H1032 H 0.60892 0.47993 0.42071 0.0
H1033 H 0.61257 0.41904 0.40413 0.0
C1034 C 0.63932 0.76346 0.4164 0.0
C1035 C 0.6217 0.73776 0.42077 0.0
C1036 C 0.63713 0.79853 0.40688 0.0
C1037 C 0.60264 0.83484 0.37957 0.0
H1038 H 0.6384 0.94562 0.38013 0.0
C1039 C 0.60217 0.98535 0.34008 0.0
C1040 C 0.62228 0.00033 0.33594 0.0
C1041 C 0.60008 0.9528 0.35038 0.0
C1042 C 0.62837 0.91473 0.37983 0.0
H1043 H 0.58778 0.73014 0.41891 0.0
H1044 H 0.58393 0.79215 0.40234 0.0
H1045 H 0.63771 0.89331 0.39917 0.0
H1046 H 0.65594 0.99062 0.33887 0.0
H1047 H 0.65221 0.93426 0.35676 0.0
H1048 H 0.59338 0.85673 0.36013 0.0
C1049 C 0.59949 0.78449 0.40618 0.0
C1050 C 0.62797 0.88477 0.39072 0.0
C1051 C 0.60168 0.74925 0.41574 0.0
C1052 C 0.6402 0.98025 0.34185 0.0
C1053 C 0.6381 0.94816 0.35217 0.0
C1054 C 0.60291 0.86518 0.36868 0.0
C1055 C 0.61726 0.80903 0.4015 0.0
C1056 C 0.61552 0.84382 0.3906 0.0
C1057 C 0.61806 0.93506 0.35677 0.0
C1058 C 0.61619 0.90474 0.3686 0.0
H1059 H 0.65498 0.75561 0.42004 0.0
H1060 H 0.65121 0.81621 0.40339 0.0
H1061 H 0.593 0.80338 0.37911 0.0
H1062 H 0.58805 6e-05 0.33571 0.0
H1063 H 0.58445 0.94311 0.35373 0.0
C1064 C 0.38996 0.22703 0.16433 0.0
C1065 C 0.37204 0.2476 0.17013 0.0
C1066 C 0.38787 0.19489 0.15403 0.0
C1067 C 0.35254 0.1127 0.13735 0.0
H1068 H 0.38797 0.13988 0.10706 0.0
C1069 C 0.35145 -0.00315 0.09027 0.0
C1070 C 0.37149 0.98492 0.08533 0.0
C1071 C 0.3493 0.03208 0.09984 0.0
C1072 C 0.37806 0.13159 0.11545 0.0
H1073 H 0.33781 0.24813 0.17016 0.0
H1074 H 0.33423 0.19111 0.15217 0.0
H1075 H 0.38863 0.19219 0.12608 0.0
H1076 H 0.40484 0.00193 0.08624 0.0
H1077 H 0.40113 0.06247 0.10291 0.0
H1078 H 0.34248 0.05115 0.12687 0.0
C1079 C 0.34985 0.20045 0.1556 0.0
C1080 C 0.37844 0.16156 0.12634 0.0
C1081 C 0.35193 0.23305 0.16589 0.0
C1082 C 0.38917 0.01014 0.08981 0.0
C1083 C 0.38701 0.04518 0.09934 0.0
C1084 C 0.35228 0.08235 0.12647 0.0
C1085 C 0.36784 0.18224 0.14933 0.0
C1086 C 0.36603 0.15192 0.1375 0.0
C1087 C 0.36712 0.05615 0.10462 0.0
C1088 C 0.36539 0.09098 0.11551 0.0
H1089 H 0.40569 0.23705 0.1674 0.0
H1090 H 0.40199 0.18061 0.14953 0.0
H1091 H 0.34282 0.10452 0.14584 0.0
H1092 H 0.3375 0.97812 0.08702 0.0
H1093 H 0.33372 0.04011 0.1036 0.0
C1094 C 0.41039 0.49833 0.16559 0.0
C1095 C 0.39022 0.48353 0.16966 0.0
C1096 C 0.41263 0.53052 0.15521 0.0
C1097 C 0.38474 0.5681 0.12554 0.0
H1098 H 0.42015 0.67938 0.12632 0.0
C1099 C 0.37406 0.71961 0.08901 0.0
C1100 C 0.39169 0.74546 0.08474 0.0
C1101 C 0.37621 0.6843 0.09847 0.0
C1102 C 0.41051 0.64793 0.12584 0.0
H1103 H 0.35661 0.49314 0.16651 0.0
H1104 H 0.3606 0.54888 0.14848 0.0
H1105 H 0.41955 0.62621 0.14533 0.0
H1106 H 0.42561 0.75302 0.08667 0.0
H1107 H 0.42939 0.6906 0.10312 0.0
H1108 H 0.3756 0.5894 0.10615 0.0
C1109 C 0.37465 0.53511 0.15318 0.0
C1110 C 0.41011 0.61769 0.13675 0.0
C1111 C 0.37239 0.50339 0.16358 0.0
C1112 C 0.4117 0.7338 0.08976 0.0
C1113 C 0.41385 0.69833 0.09926 0.0
C1114 C 0.38526 0.59797 0.11463 0.0
C1115 C 0.39476 0.54806 0.14867 0.0
C1116 C 0.3968 0.57817 0.13681 0.0
C1117 C 0.39605 0.67372 0.10387 0.0
C1118 C 0.39773 0.6389 0.11477 0.0
H1119 H 0.42444 0.48379 0.17008 0.0
H1120 H 0.42832 0.5401 0.15192 0.0
H1121 H 0.37469 0.53724 0.12521 0.0
H1122 H 0.35842 0.72757 0.08537 0.0
H1123 H 0.36212 0.66655 0.1019 0.0
C1124 C 0.35283 0.73725 0.6661 0.0
C1125 C 0.37306 0.75202 0.67005 0.0
C1126 C 0.35043 0.70508 0.65573 0.0
C1127 C 0.37787 0.66754 0.62589 0.0
H1128 H 0.34267 0.55596 0.62697 0.0
C1129 C 0.38832 0.51588 0.58941 0.0
C1130 C 0.37068 0.48984 0.58525 0.0
C1131 C 0.38623 0.55123 0.59885 0.0
C1132 C 0.35224 0.58749 0.62641 0.0
H1133 H 0.40662 0.74242 0.66668 0.0
H1134 H 0.40236 0.68674 0.64867 0.0
H1135 H 0.34345 0.60926 0.64594 0.0
H1136 H 0.33681 0.48196 0.58738 0.0
H1137 H 0.33314 0.54444 0.60383 0.0
H1138 H 0.38676 0.64619 0.60646 0.0
C1139 C 0.38838 0.7005 0.65347 0.0
C1140 C 0.35275 0.6178 0.6373 0.0
C1141 C 0.39079 0.7322 0.66385 0.0
C1142 C 0.35073 0.50133 0.59039 0.0
C1143 C 0.34864 0.53683 0.59988 0.0
C1144 C 0.37723 0.63759 0.615 0.0
C1145 C 0.36821 0.68755 0.64909 0.0
C1146 C 0.366 0.65743 0.63724 0.0
C1147 C 0.36644 0.56166 0.60437 0.0
C1148 C 0.36485 0.59655 0.61525 0.0
H1149 H 0.33884 0.75178 0.67069 0.0
H1150 H 0.3347 0.69549 0.65256 0.0
H1151 H 0.38787 0.69846 0.62549 0.0
H1152 H 0.40393 0.50805 0.58567 0.0
H1153 H 0.40034 0.56913 0.60219 0.0
C1154 C 0.4111 0.2384 0.59055 0.0
C1155 C 0.39099 0.25042 0.58577 0.0
C1156 C 0.4134 0.20321 0.60012 0.0
C1157 C 0.38482 0.10392 0.61601 0.0
H1158 H 0.4208 0.13066 0.64605 0.0
C1159 C 0.37377 0.00879 0.665 0.0
C1160 C 0.39173 0.98779 0.6706 0.0
C1161 C 0.37573 0.04096 0.65469 0.0
C1162 C 0.41088 0.12258 0.63765 0.0
H1163 H 0.35763 0.23364 0.58697 0.0
H1164 H 0.3616 0.17316 0.60363 0.0
H1165 H 0.4208 0.18404 0.62708 0.0
H1166 H 0.42595 0.98656 0.67029 0.0
H1167 H 0.42933 0.04366 0.65228 0.0
H1168 H 0.37438 0.04342 0.62675 0.0
C1169 C 0.37566 0.19034 0.59993 0.0
C1170 C 0.41093 0.15294 0.62676 0.0
C1171 C 0.37337 0.22535 0.5904 0.0
C1172 C 0.4118 0.00198 0.66617 0.0
C1173 C 0.41376 0.03461 0.65587 0.0
C1174 C 0.38464 0.07395 0.6269 0.0
C1175 C 0.39565 0.17927 0.60505 0.0
C1176 C 0.39756 0.14443 0.61593 0.0
C1177 C 0.39569 0.05322 0.64979 0.0
C1178 C 0.39732 0.08349 0.63793 0.0
H1179 H 0.42501 0.25702 0.58717 0.0
H1180 H 0.42904 0.19509 0.60375 0.0
H1181 H 0.3747 0.09571 0.60771 0.0
H1182 H 0.35806 -0.00092 0.66823 0.0
H1183 H 0.36156 0.05554 0.65035 0.0
loop_
_geom_bond_atom_site_label_1
_geom_bond_atom_site_label_2
_geom_bond_distance
_geom_bond_site_symmetry_2
_ccdc_geom_bond_type
O0 Cd1 2.223 . S
O0 C8 1.315 . S
Cd1 O0 2.223 . S
Cd1 O4 2.297 . S
Cd1 O5 2.439 . S
Cd1 O11 2.240 . S
Cd2 O3 2.240 . S
Cd2 O10 2.223 . S
Cd2 O12 2.297 . S
Cd2 O13 2.439 . S
O3 Cd2 2.240 . S
O3 C8 1.279 . S
O4 Cd1 2.297 . S
O4 C6 1.247 . S
O5 Cd1 2.439 . S
O5 C6 1.208 . S
C6 O4 1.247 . S
C6 O5 1.208 . S
C7 O12 1.247 . S
C7 O13 1.208 . S
C8 O0 1.315 . S
C8 O3 1.279 . S
C9 O10 1.315 . S
C9 O11 1.279 . S
O10 Cd2 2.223 . S
O10 C9 1.315 . S
O11 Cd1 2.240 . S
O11 C9 1.279 . S
O12 Cd2 2.297 . S
O12 C7 1.247 . S
O13 Cd2 2.439 . S
O13 C7 1.208 . S
O14 Cd15 2.223 . S
O14 C22 1.315 . S
Cd15 O14 2.223 . S
Cd15 O18 2.297 . S
Cd15 O19 2.439 . S
Cd15 O25 2.240 . S
Cd16 O17 2.240 . S
Cd16 O24 2.223 . S
Cd16 O26 2.297 . S
Cd16 O27 2.439 . S
O17 Cd16 2.240 . S
O17 C22 1.279 . S
O18 Cd15 2.297 . S
O18 C20 1.247 . S
O19 Cd15 2.439 . S
O19 C20 1.208 . S
C20 O18 1.247 . S
C20 O19 1.208 . S
C21 O26 1.247 . S
C21 O27 1.208 . S
C22 O14 1.315 . S
C22 O17 1.279 . S
C23 O24 1.315 . S
C23 O25 1.279 . S
O24 Cd16 2.223 . S
O24 C23 1.315 . S
O25 Cd15 2.240 . S
O25 C23 1.279 . S
O26 Cd16 2.297 . S
O26 C21 1.247 . S
O27 Cd16 2.439 . S
O27 C21 1.208 . S
O28 Cd29 2.223 . S
O28 C36 1.315 . S
Cd29 O28 2.223 . S
Cd29 O32 2.297 . S
Cd29 O33 2.439 . S
Cd29 O39 2.240 . S
Cd30 O31 2.240 . S
Cd30 O38 2.223 . S
Cd30 O40 2.297 . S
Cd30 O41 2.439 . S
O31 Cd30 2.240 . S
O31 C36 1.279 . S
O32 Cd29 2.297 . S
O32 C34 1.247 . S
O33 Cd29 2.439 . S
O33 C34 1.208 . S
C34 O32 1.247 . S
C34 O33 1.208 . S
C35 O40 1.247 . S
C35 O41 1.208 . S
C36 O28 1.315 . S
C36 O31 1.279 . S
C37 O38 1.315 . S
C37 O39 1.279 . S
O38 Cd30 2.223 . S
O38 C37 1.315 . S
O39 Cd29 2.240 . S
O39 C37 1.279 . S
O40 Cd30 2.297 . S
O40 C35 1.247 . S
O41 Cd30 2.439 . S
O41 C35 1.208 . S
O42 Cd43 2.223 . S
O42 C50 1.315 . S
Cd43 O42 2.223 . S
Cd43 O46 2.297 . S
Cd43 O47 2.439 . S
Cd43 O53 2.240 . S
Cd44 O45 2.240 . S
Cd44 O52 2.223 . S
Cd44 O54 2.297 . S
Cd44 O55 2.439 . S
O45 Cd44 2.240 . S
O45 C50 1.279 . S
O46 Cd43 2.297 . S
O46 C48 1.247 . S
O47 Cd43 2.439 . S
O47 C48 1.208 . S
C48 O46 1.247 . S
C48 O47 1.208 . S
C49 O54 1.247 . S
C49 O55 1.208 . S
C50 O42 1.315 . S
C50 O45 1.279 . S
C51 O52 1.315 . S
C51 O53 1.279 . S
O52 Cd44 2.223 . S
O52 C51 1.315 . S
O53 Cd43 2.240 . S
O53 C51 1.279 . S
O54 Cd44 2.297 . S
O54 C49 1.247 . S
O55 Cd44 2.439 . S
O55 C49 1.208 . S
O56 Cd57 2.223 . S
O56 C64 1.315 . S
Cd57 O56 2.223 . S
Cd57 O60 2.297 . S
Cd57 O61 2.439 . S
Cd57 O67 2.240 . S
Cd58 O59 2.240 . S
Cd58 O66 2.223 . S
Cd58 O68 2.297 . S
Cd58 O69 2.439 . S
O59 Cd58 2.240 . S
O59 C64 1.279 . S
O60 Cd57 2.297 . S
O60 C62 1.247 . S
O61 Cd57 2.439 . S
O61 C62 1.208 . S
C62 O60 1.247 . S
C62 O61 1.208 . S
C63 O68 1.247 . S
C63 O69 1.208 . S
C64 O56 1.315 . S
C64 O59 1.279 . S
C65 O66 1.315 . S
C65 O67 1.279 . S
O66 Cd58 2.223 . S
O66 C65 1.315 . S
O67 Cd57 2.240 . S
O67 C65 1.279 . S
O68 Cd58 2.297 . S
O68 C63 1.247 . S
O69 Cd58 2.439 . S
O69 C63 1.208 . S
O70 Cd71 2.223 . S
O70 C78 1.315 . S
Cd71 O70 2.223 . S
Cd71 O74 2.297 . S
Cd71 O75 2.439 . S
Cd71 O81 2.240 . S
Cd72 O73 2.240 . S
Cd72 O80 2.223 . S
Cd72 O82 2.297 . S
Cd72 O83 2.439 . S
O73 Cd72 2.240 . S
O73 C78 1.279 . S
O74 Cd71 2.297 . S
O74 C76 1.247 . S
O75 Cd71 2.439 . S
O75 C76 1.208 . S
C76 O74 1.247 . S
C76 O75 1.208 . S
C77 O82 1.247 . S
C77 O83 1.208 . S
C78 O70 1.315 . S
C78 O73 1.279 . S
C79 O80 1.315 . S
C79 O81 1.279 . S
O80 Cd72 2.223 . S
O80 C79 1.315 . S
O81 Cd71 2.240 . S
O81 C79 1.279 . S
O82 Cd72 2.297 . S
O82 C77 1.247 . S
O83 Cd72 2.439 . S
O83 C77 1.208 . S
O84 Cd85 2.223 . S
O84 C92 1.315 . S
Cd85 O84 2.223 . S
Cd85 O88 2.297 . S
Cd85 O89 2.439 . S
Cd85 O95 2.240 . S
Cd86 O87 2.240 . S
Cd86 O94 2.223 . S
Cd86 O96 2.297 . S
Cd86 O97 2.439 . S
O87 Cd86 2.240 . S
O87 C92 1.279 . S
O88 Cd85 2.297 . S
O88 C90 1.247 . S
O89 Cd85 2.439 . S
O89 C90 1.208 . S
C90 O88 1.247 . S
C90 O89 1.208 . S
C91 O96 1.247 . S
C91 O97 1.208 . S
C92 O84 1.315 . S
C92 O87 1.279 . S
C93 O94 1.315 . S
C93 O95 1.279 . S
O94 Cd86 2.223 . S
O94 C93 1.315 . S
O95 Cd85 2.240 . S
O95 C93 1.279 . S
O96 Cd86 2.297 . S
O96 C91 1.247 . S
O97 Cd86 2.439 . S
O97 C91 1.208 . S
O98 Cd99 2.223 . S
O98 C106 1.315 . S
Cd99 O98 2.223 . S
Cd99 O102 2.297 . S
Cd99 O103 2.439 . S
Cd99 O109 2.240 . S
Cd100 O101 2.240 . S
Cd100 O108 2.223 . S
Cd100 O110 2.297 . S
Cd100 O111 2.439 . S
O101 Cd100 2.240 . S
O101 C106 1.279 . S
O102 Cd99 2.297 . S
O102 C104 1.247 . S
O103 Cd99 2.439 . S
O103 C104 1.208 . S
C104 O102 1.247 . S
C104 O103 1.208 . S
C105 O110 1.247 . S
C105 O111 1.208 . S
C106 O98 1.315 . S
C106 O101 1.279 . S
C107 O108 1.315 . S
C107 O109 1.279 . S
O108 Cd100 2.223 . S
O108 C107 1.315 . S
O109 Cd99 2.240 . S
O109 C107 1.279 . S
O110 Cd100 2.297 . S
O110 C105 1.247 . S
O111 Cd100 2.439 . S
O111 C105 1.208 . S
O112 Cd113 2.223 . S
O112 C120 1.315 . S
Cd113 O112 2.223 . S
Cd113 O116 2.297 . S
Cd113 O117 2.439 . S
Cd113 O123 2.240 . S
Cd114 O115 2.240 . S
Cd114 O122 2.223 . S
Cd114 O124 2.297 . S
Cd114 O125 2.439 . S
O115 Cd114 2.240 . S
O115 C120 1.279 . S
O116 Cd113 2.297 . S
O116 C118 1.247 . S
O117 Cd113 2.439 . S
O117 C118 1.208 . S
C118 O116 1.247 . S
C118 O117 1.208 . S
C119 O124 1.247 . S
C119 O125 1.208 . S
C120 O112 1.315 . S
C120 O115 1.279 . S
C121 O122 1.315 . S
C121 O123 1.279 . S
O122 Cd114 2.223 . S
O122 C121 1.315 . S
O123 Cd113 2.240 . S
O123 C121 1.279 . S
O124 Cd114 2.297 . S
O124 C119 1.247 . S
O125 Cd114 2.439 . S
O125 C119 1.208 . S
O126 Cd127 2.223 . S
O126 C134 1.315 . S
Cd127 O126 2.223 . S
Cd127 O130 2.297 . S
Cd127 O131 2.439 . S
Cd127 O137 2.240 . S
Cd128 O129 2.240 . S
Cd128 O136 2.223 . S
Cd128 O138 2.297 . S
Cd128 O139 2.439 . S
O129 Cd128 2.240 . S
O129 C134 1.279 . S
O130 Cd127 2.297 . S
O130 C132 1.247 . S
O131 Cd127 2.439 . S
O131 C132 1.208 . S
C132 O130 1.247 . S
C132 O131 1.208 . S
C133 O138 1.247 . S
C133 O139 1.208 . S
C134 O126 1.315 . S
C134 O129 1.279 . S
C135 O136 1.315 . S
C135 O137 1.279 . S
O136 Cd128 2.223 . S
O136 C135 1.315 . S
O137 Cd127 2.240 . S
O137 C135 1.279 . S
O138 Cd128 2.297 . S
O138 C133 1.247 . S
O139 Cd128 2.439 . S
O139 C133 1.208 . S
O140 Cd141 2.223 . S
O140 C148 1.315 . S
Cd141 O140 2.223 . S
Cd141 O144 2.297 . S
Cd141 O145 2.439 . S
Cd141 O151 2.240 . S
Cd142 O143 2.240 . S
Cd142 O150 2.223 . S
Cd142 O152 2.297 . S
Cd142 O153 2.439 . S
O143 Cd142 2.240 . S
O143 C148 1.279 . S
O144 Cd141 2.297 . S
O144 C146 1.247 . S
O145 Cd141 2.439 . S
O145 C146 1.208 . S
C146 O144 1.247 . S
C146 O145 1.208 . S
C147 O152 1.247 . S
C147 O153 1.208 . S
C148 O140 1.315 . S
C148 O143 1.279 . S
C149 O150 1.315 . S
C149 O151 1.279 . S
O150 Cd142 2.223 . S
O150 C149 1.315 . S
O151 Cd141 2.240 . S
O151 C149 1.279 . S
O152 Cd142 2.297 . S
O152 C147 1.247 . S
O153 Cd142 2.439 . S
O153 C147 1.208 . S
O154 Cd155 2.223 . S
O154 C162 1.315 . S
Cd155 O154 2.223 . S
Cd155 O158 2.297 . S
Cd155 O159 2.439 . S
Cd155 O165 2.240 . S
Cd156 O157 2.240 . S
Cd156 O164 2.223 . S
Cd156 O166 2.297 . S
Cd156 O167 2.439 . S
O157 Cd156 2.240 . S
O157 C162 1.279 . S
O158 Cd155 2.297 . S
O158 C160 1.247 . S
O159 Cd155 2.439 . S
O159 C160 1.208 . S
C160 O158 1.247 . S
C160 O159 1.208 . S
C161 O166 1.247 . S
C161 O167 1.208 . S
C162 O154 1.315 . S
C162 O157 1.279 . S
C163 O164 1.315 . S
C163 O165 1.279 . S
O164 Cd156 2.223 . S
O164 C163 1.315 . S
O165 Cd155 2.240 . S
O165 C163 1.279 . S
O166 Cd156 2.297 . S
O166 C161 1.247 . S
O167 Cd156 2.439 . S
O167 C161 1.208 . S
O168 Cd169 2.223 . S
O168 C176 1.315 . S
Cd169 O168 2.223 . S
Cd169 O172 2.297 . S
Cd169 O173 2.439 . S
Cd169 O179 2.240 . S
Cd170 O171 2.240 . S
Cd170 O178 2.223 . S
Cd170 O180 2.297 . S
Cd170 O181 2.439 . S
O171 Cd170 2.240 . S
O171 C176 1.279 . S
O172 Cd169 2.297 . S
O172 C174 1.247 . S
O173 Cd169 2.439 . S
O173 C174 1.208 . S
C174 O172 1.247 . S
C174 O173 1.208 . S
C175 O180 1.247 . S
C175 O181 1.208 . S
C176 O168 1.315 . S
C176 O171 1.279 . S
C177 O178 1.315 . S
C177 O179 1.279 . S
O178 Cd170 2.223 . S
O178 C177 1.315 . S
O179 Cd169 2.240 . S
O179 C177 1.279 . S
O180 Cd170 2.297 . S
O180 C175 1.247 . S
O181 Cd170 2.439 . S
O181 C175 1.208 . S
O182 Cd183 2.223 . S
O182 C190 1.315 . S
Cd183 O182 2.223 . S
Cd183 O186 2.297 . S
Cd183 O187 2.439 . S
Cd183 O193 2.240 . S
Cd184 O185 2.240 . S
Cd184 O192 2.223 . S
Cd184 O194 2.297 . S
Cd184 O195 2.439 . S
O185 Cd184 2.240 . S
O185 C190 1.279 . S
O186 Cd183 2.297 . S
O186 C188 1.247 . S
O187 Cd183 2.439 . S
O187 C188 1.208 . S
C188 O186 1.247 . S
C188 O187 1.208 . S
C189 O194 1.247 . S
C189 O195 1.208 . S
C190 O182 1.315 . S
C190 O185 1.279 . S
C191 O192 1.315 . S
C191 O193 1.279 . S
O192 Cd184 2.223 . S
O192 C191 1.315 . S
O193 Cd183 2.240 . S
O193 C191 1.279 . S
O194 Cd184 2.297 . S
O194 C189 1.247 . S
O195 Cd184 2.439 . S
O195 C189 1.208 . S
O196 Cd197 2.223 . S
O196 C204 1.315 . S
Cd197 O196 2.223 . S
Cd197 O200 2.297 . S
Cd197 O201 2.439 . S
Cd197 O207 2.240 . S
Cd198 O199 2.240 . S
Cd198 O206 2.223 . S
Cd198 O208 2.297 . S
Cd198 O209 2.439 . S
O199 Cd198 2.240 . S
O199 C204 1.279 . S
O200 Cd197 2.297 . S
O200 C202 1.247 . S
O201 Cd197 2.439 . S
O201 C202 1.208 . S
C202 O200 1.247 . S
C202 O201 1.208 . S
C203 O208 1.247 . S
C203 O209 1.208 . S
C204 O196 1.315 . S
C204 O199 1.279 . S
C205 O206 1.315 . S
C205 O207 1.279 . S
O206 Cd198 2.223 . S
O206 C205 1.315 . S
O207 Cd197 2.240 . S
O207 C205 1.279 . S
O208 Cd198 2.297 . S
O208 C203 1.247 . S
O209 Cd198 2.439 . S
O209 C203 1.208 . S
O210 Cd211 2.223 . S
O210 C218 1.315 . S
Cd211 O210 2.223 . S
Cd211 O214 2.297 . S
Cd211 O215 2.439 . S
Cd211 O221 2.240 . S
Cd212 O213 2.240 . S
Cd212 O220 2.223 . S
Cd212 O222 2.297 . S
Cd212 O223 2.439 . S
O213 Cd212 2.240 . S
O213 C218 1.279 . S
O214 Cd211 2.297 . S
O214 C216 1.247 . S
O215 Cd211 2.439 . S
O215 C216 1.208 . S
C216 O214 1.247 . S
C216 O215 1.208 . S
C217 O222 1.247 . S
C217 O223 1.208 . S
C218 O210 1.315 . S
C218 O213 1.279 . S
C219 O220 1.315 . S
C219 O221 1.279 . S
O220 Cd212 2.223 . S
O220 C219 1.315 . S
O221 Cd211 2.240 . S
O221 C219 1.279 . S
O222 Cd212 2.297 . S
O222 C217 1.247 . S
O223 Cd212 2.439 . S
O223 C217 1.208 . S
C224 C225 1.349 . S
C224 C226 1.327 . S
C224 H249 0.950 . S
C225 C224 1.349 . S
C225 C241 1.349 . S
C226 C224 1.327 . S
C226 C245 1.429 . S
C226 H250 0.950 . S
C227 C244 1.574 . S
C227 C246 1.368 . S
C227 H251 0.949 . S
H228 C232 0.949 . S
C229 C230 1.349 . S
C229 C231 1.327 . S
C229 H252 0.950 . S
C230 C229 1.349 . S
C230 C242 1.349 . S
C231 C229 1.327 . S
C231 C247 1.429 . S
C231 H253 0.950 . S
C232 H228 0.949 . S
C232 C240 1.574 . S
C232 C248 1.368 . S
H233 C241 0.950 . S
H234 C239 0.950 . S
H235 C240 0.949 . S
H236 C242 0.950 . S
H237 C243 0.950 . S
H238 C244 0.949 . S
C239 H234 0.950 . S
C239 C241 1.327 . S
C239 C245 1.429 . S
C240 C232 1.574 . S
C240 H235 0.949 . S
C240 C246 1.368 . S
C241 C225 1.349 . S
C241 H233 0.950 . S
C241 C239 1.327 . S
C242 C230 1.349 . S
C242 H236 0.950 . S
C242 C243 1.327 . S
C243 H237 0.950 . S
C243 C242 1.327 . S
C243 C247 1.429 . S
C244 C227 1.574 . S
C244 H238 0.949 . S
C244 C248 1.368 . S
C245 C226 1.429 . S
C245 C239 1.429 . S
C245 C246 1.523 . S
C246 C227 1.368 . S
C246 C240 1.368 . S
C246 C245 1.523 . S
C247 C231 1.429 . S
C247 C243 1.429 . S
C247 C248 1.523 . S
C248 C232 1.368 . S
C248 C244 1.368 . S
C248 C247 1.523 . S
H249 C224 0.950 . S
H250 C226 0.950 . S
H251 C227 0.949 . S
H252 C229 0.950 . S
H253 C231 0.950 . S
C254 C255 1.349 . S
C254 C256 1.327 . S
C254 H279 0.950 . S
C255 C254 1.349 . S
C255 C271 1.349 . S
C256 C254 1.327 . S
C256 C275 1.429 . S
C256 H280 0.950 . S
C257 C274 1.574 1_565 S
C257 C276 1.368 1_455 S
C257 H281 0.949 . S
H258 C262 0.949 . S
C259 C260 1.349 . S
C259 C261 1.327 . S
C259 H282 0.950 . S
C260 C259 1.349 . S
C260 C272 1.349 . S
C261 C259 1.327 . S
C261 C277 1.429 . S
C261 H283 0.950 . S
C262 H258 0.949 . S
C262 C270 1.574 1_545 S
C262 C278 1.368 1_655 S
H263 C271 0.950 . S
H264 C269 0.950 . S
H265 C270 0.949 . S
H266 C272 0.950 . S
H267 C273 0.950 . S
H268 C274 0.949 . S
C269 H264 0.950 . S
C269 C271 1.327 . S
C269 C275 1.429 . S
C270 C262 1.574 1_565 S
C270 H265 0.949 . S
C270 C276 1.368 . S
C271 C255 1.349 . S
C271 H263 0.950 . S
C271 C269 1.327 . S
C272 C260 1.349 . S
C272 H266 0.950 . S
C272 C273 1.327 . S
C273 H267 0.950 . S
C273 C272 1.327 . S
C273 C277 1.429 . S
C274 C257 1.574 1_545 S
C274 H268 0.949 . S
C274 C278 1.368 . S
C275 C256 1.429 . S
C275 C269 1.429 . S
C275 C276 1.523 . S
C276 C257 1.368 1_655 S
C276 C270 1.368 . S
C276 C275 1.523 . S
C277 C261 1.429 . S
C277 C273 1.429 . S
C277 C278 1.523 . S
C278 C262 1.368 1_455 S
C278 C274 1.368 . S
C278 C277 1.523 . S
H279 C254 0.950 . S
H280 C256 0.950 . S
H281 C257 0.949 . S
H282 C259 0.950 . S
H283 C261 0.950 . S
C284 C285 1.349 . S
C284 C286 1.327 . S
C284 H309 0.950 . S
C285 C284 1.349 . S
C285 C301 1.349 . S
C286 C284 1.327 . S
C286 C305 1.429 . S
C286 H310 0.950 . S
C287 C304 1.574 . S
C287 C306 1.368 1_545 S
C287 H311 0.949 . S
H288 C292 0.949 . S
C289 C290 1.349 . S
C289 C291 1.327 . S
C289 H312 0.950 . S
C290 C289 1.349 . S
C290 C302 1.349 . S
C291 C289 1.327 . S
C291 C307 1.429 . S
C291 H313 0.950 . S
C292 H288 0.949 . S
C292 C300 1.574 . S
C292 C308 1.368 1_565 S
H293 C301 0.950 . S
H294 C299 0.950 1_545 S
H295 C300 0.949 . S
H296 C302 0.950 . S
H297 C303 0.950 1_565 S
H298 C304 0.949 . S
C299 H294 0.950 1_565 S
C299 C301 1.327 . S
C299 C305 1.429 . S
C300 C292 1.574 . S
C300 H295 0.949 . S
C300 C306 1.368 . S
C301 C285 1.349 . S
C301 H293 0.950 . S
C301 C299 1.327 . S
C302 C290 1.349 . S
C302 H296 0.950 . S
C302 C303 1.327 . S
C303 H297 0.950 1_545 S
C303 C302 1.327 . S
C303 C307 1.429 . S
C304 C287 1.574 . S
C304 H298 0.949 . S
C304 C308 1.368 . S
C305 C286 1.429 . S
C305 C299 1.429 . S
C305 C306 1.523 . S
C306 C287 1.368 1_565 S
C306 C300 1.368 . S
C306 C305 1.523 . S
C307 C291 1.429 . S
C307 C303 1.429 . S
C307 C308 1.523 . S
C308 C292 1.368 1_545 S
C308 C304 1.368 . S
C308 C307 1.523 . S
H309 C284 0.950 . S
H310 C286 0.950 . S
H311 C287 0.949 . S
H312 C289 0.950 . S
H313 C291 0.950 . S
C314 C315 1.349 . S
C314 C316 1.327 . S
C314 H339 0.950 . S
C315 C314 1.349 . S
C315 C331 1.349 . S
C316 C314 1.327 . S
C316 C335 1.429 . S
C316 H340 0.950 . S
C317 C334 1.574 . S
C317 C336 1.368 . S
C317 H341 0.949 . S
H318 C322 0.949 . S
C319 C320 1.349 . S
C319 C321 1.327 . S
C319 H342 0.950 . S
C320 C319 1.349 . S
C320 C332 1.349 . S
C321 C319 1.327 . S
C321 C337 1.429 . S
C321 H343 0.950 . S
C322 H318 0.949 . S
C322 C330 1.574 . S
C322 C338 1.368 . S
H323 C331 0.950 . S
H324 C329 0.950 . S
H325 C330 0.949 . S
H326 C332 0.950 . S
H327 C333 0.950 . S
H328 C334 0.949 . S
C329 H324 0.950 . S
C329 C331 1.327 . S
C329 C335 1.429 . S
C330 C322 1.574 . S
C330 H325 0.949 . S
C330 C336 1.368 1_655 S
C331 C315 1.349 . S
C331 H323 0.950 . S
C331 C329 1.327 . S
C332 C320 1.349 . S
C332 H326 0.950 . S
C332 C333 1.327 . S
C333 H327 0.950 . S
C333 C332 1.327 . S
C333 C337 1.429 . S
C334 C317 1.574 . S
C334 H328 0.949 . S
C334 C338 1.368 1_455 S
C335 C316 1.429 . S
C335 C329 1.429 . S
C335 C336 1.523 . S
C336 C317 1.368 . S
C336 C330 1.368 1_455 S
C336 C335 1.523 . S
C337 C321 1.429 . S
C337 C333 1.429 . S
C337 C338 1.523 . S
C338 C322 1.368 . S
C338 C334 1.368 1_655 S
C338 C337 1.523 . S
H339 C314 0.950 . S
H340 C316 0.950 . S
H341 C317 0.949 . S
H342 C319 0.950 . S
H343 C321 0.950 . S
C344 C345 1.349 . S
C344 C346 1.327 . S
C344 H369 0.950 . S
C345 C344 1.349 . S
C345 C361 1.349 . S
C346 C344 1.327 . S
C346 C365 1.429 . S
C346 H370 0.950 . S
C347 C364 1.574 . S
C347 C366 1.368 . S
C347 H371 0.949 . S
H348 C352 0.949 . S
C349 C350 1.349 . S
C349 C351 1.327 . S
C349 H372 0.950 . S
C350 C349 1.349 . S
C350 C362 1.349 . S
C351 C349 1.327 . S
C351 C367 1.429 . S
C351 H373 0.950 . S
C352 H348 0.949 . S
C352 C360 1.574 . S
C352 C368 1.368 . S
H353 C361 0.950 . S
H354 C359 0.950 . S
H355 C360 0.949 . S
H356 C362 0.950 . S
H357 C363 0.950 . S
H358 C364 0.949 . S
C359 H354 0.950 . S
C359 C361 1.327 . S
C359 C365 1.429 . S
C360 C352 1.574 . S
C360 H355 0.949 . S
C360 C366 1.368 . S
C361 C345 1.349 . S
C361 H353 0.950 . S
C361 C359 1.327 . S
C362 C350 1.349 . S
C362 H356 0.950 . S
C362 C363 1.327 . S
C363 H357 0.950 . S
C363 C362 1.327 . S
C363 C367 1.429 . S
C364 C347 1.574 . S
C364 H358 0.949 . S
C364 C368 1.368 . S
C365 C346 1.429 . S
C365 C359 1.429 . S
C365 C366 1.523 . S
C366 C347 1.368 . S
C366 C360 1.368 . S
C366 C365 1.523 . S
C367 C351 1.429 . S
C367 C363 1.429 . S
C367 C368 1.523 . S
C368 C352 1.368 . S
C368 C364 1.368 . S
C368 C367 1.523 . S
H369 C344 0.950 . S
H370 C346 0.950 . S
H371 C347 0.949 . S
H372 C349 0.950 . S
H373 C351 0.950 . S
C374 C375 1.349 . S
C374 C376 1.327 . S
C374 H399 0.950 . S
C375 C374 1.349 . S
C375 C391 1.349 . S
C376 C374 1.327 . S
C376 C395 1.429 . S
C376 H400 0.950 . S
C377 C394 1.574 . S
C377 C396 1.368 . S
C377 H401 0.949 . S
H378 C382 0.949 . S
C379 C380 1.349 . S
C379 C381 1.327 . S
C379 H402 0.950 . S
C380 C379 1.349 . S
C380 C392 1.349 . S
C381 C379 1.327 . S
C381 C397 1.429 . S
C381 H403 0.950 . S
C382 H378 0.949 . S
C382 C390 1.574 . S
C382 C398 1.368 . S
H383 C391 0.950 . S
H384 C389 0.950 . S
H385 C390 0.949 . S
H386 C392 0.950 . S
H387 C393 0.950 . S
H388 C394 0.949 . S
C389 H384 0.950 . S
C389 C391 1.327 . S
C389 C395 1.429 . S
C390 C382 1.574 . S
C390 H385 0.949 . S
C390 C396 1.368 1_565 S
C391 C375 1.349 . S
C391 H383 0.950 . S
C391 C389 1.327 . S
C392 C380 1.349 . S
C392 H386 0.950 . S
C392 C393 1.327 . S
C393 H387 0.950 . S
C393 C392 1.327 . S
C393 C397 1.429 . S
C394 C377 1.574 . S
C394 H388 0.949 . S
C394 C398 1.368 1_545 S
C395 C376 1.429 . S
C395 C389 1.429 . S
C395 C396 1.523 . S
C396 C377 1.368 . S
C396 C390 1.368 1_545 S
C396 C395 1.523 . S
C397 C381 1.429 . S
C397 C393 1.429 . S
C397 C398 1.523 . S
C398 C382 1.368 . S
C398 C394 1.368 1_565 S
C398 C397 1.523 . S
H399 C374 0.950 . S
H400 C376 0.950 . S
H401 C377 0.949 . S
H402 C379 0.950 . S
H403 C381 0.950 . S
C404 C405 1.349 . S
C404 C406 1.327 . S
C404 H429 0.950 . S
C405 C404 1.349 . S
C405 C421 1.349 . S
C406 C404 1.327 . S
C406 C425 1.429 . S
C406 H430 0.950 . S
C407 C424 1.574 1_655 S
C407 C426 1.368 . S
C407 H431 0.949 . S
H408 C412 0.949 . S
C409 C410 1.349 . S
C409 C411 1.327 . S
C409 H432 0.950 . S
C410 C409 1.349 . S
C410 C422 1.349 . S
C411 C409 1.327 . S
C411 C427 1.429 . S
C411 H433 0.950 . S
C412 H408 0.949 . S
C412 C420 1.574 1_455 S
C412 C428 1.368 . S
H413 C421 0.950 . S
H414 C419 0.950 . S
H415 C420 0.949 . S
H416 C422 0.950 . S
H417 C423 0.950 . S
H418 C424 0.949 . S
C419 H414 0.950 . S
C419 C421 1.327 . S
C419 C425 1.429 . S
C420 C412 1.574 1_655 S
C420 H415 0.949 . S
C420 C426 1.368 . S
C421 C405 1.349 . S
C421 H413 0.950 . S
C421 C419 1.327 . S
C422 C410 1.349 . S
C422 H416 0.950 . S
C422 C423 1.327 . S
C423 H417 0.950 . S
C423 C422 1.327 . S
C423 C427 1.429 . S
C424 C407 1.574 1_455 S
C424 H418 0.949 . S
C424 C428 1.368 . S
C425 C406 1.429 . S
C425 C419 1.429 . S
C425 C426 1.523 . S
C426 C407 1.368 . S
C426 C420 1.368 . S
C426 C425 1.523 . S
C427 C411 1.429 . S
C427 C423 1.429 . S
C427 C428 1.523 . S
C428 C412 1.368 . S
C428 C424 1.368 . S
C428 C427 1.523 . S
H429 C404 0.950 . S
H430 C406 0.950 . S
H431 C407 0.949 . S
H432 C409 0.950 . S
H433 C411 0.950 . S
C434 C435 1.349 . S
C434 C436 1.327 . S
C434 H459 0.950 . S
C435 C434 1.349 . S
C435 C451 1.349 . S
C436 C434 1.327 . S
C436 C455 1.429 . S
C436 H460 0.950 . S
C437 C454 1.562 1_554 S
C437 C456 1.379 . S
C437 H461 0.948 . S
H438 C442 0.948 . S
C439 C440 1.349 . S
C439 C441 1.327 . S
C439 H462 0.950 . S
C440 C439 1.349 . S
C440 C452 1.349 . S
C441 C439 1.327 . S
C441 C457 1.429 . S
C441 H463 0.950 . S
C442 H438 0.948 . S
C442 C450 1.562 1_556 S
C442 C458 1.379 . S
H443 C451 0.950 . S
H444 C449 0.950 . S
H445 C450 0.949 . S
H446 C452 0.950 . S
H447 C453 0.950 . S
H448 C454 0.949 . S
C449 H444 0.950 . S
C449 C451 1.327 . S
C449 C455 1.429 . S
C450 C442 1.562 1_554 S
C450 H445 0.949 . S
C450 C456 1.368 . S
C451 C435 1.349 . S
C451 H443 0.950 . S
C451 C449 1.327 . S
C452 C440 1.349 . S
C452 H446 0.950 . S
C452 C453 1.327 . S
C453 H447 0.950 . S
C453 C452 1.327 . S
C453 C457 1.429 . S
C454 C437 1.562 1_556 S
C454 H448 0.949 . S
C454 C458 1.368 . S
C455 C436 1.429 . S
C455 C449 1.429 . S
C455 C456 1.523 . S
C456 C437 1.379 . S
C456 C450 1.368 . S
C456 C455 1.523 . S
C457 C441 1.429 . S
C457 C453 1.429 . S
C457 C458 1.523 . S
C458 C442 1.379 . S
C458 C454 1.368 . S
C458 C457 1.523 . S
H459 C434 0.950 . S
H460 C436 0.950 . S
H461 C437 0.948 . S
H462 C439 0.950 . S
H463 C441 0.950 . S
C464 C465 1.349 . S
C464 C466 1.327 . S
C464 H489 0.950 . S
C465 C464 1.349 . S
C465 C481 1.349 . S
C466 C464 1.327 . S
C466 C485 1.429 . S
C466 H490 0.950 . S
C467 C484 1.574 . S
C467 C486 1.368 1_554 S
C467 H491 0.949 . S
H468 C472 0.949 . S
C469 C470 1.349 . S
C469 C471 1.327 . S
C469 H492 0.950 . S
C470 C469 1.349 . S
C470 C482 1.349 . S
C471 C469 1.327 . S
C471 C487 1.429 . S
C471 H493 0.950 . S
C472 H468 0.949 . S
C472 C480 1.574 . S
C472 C488 1.368 1_556 S
H473 C481 0.950 . S
H474 C479 0.950 . S
H475 C480 0.949 . S
H476 C482 0.950 . S
H477 C483 0.950 . S
H478 C484 0.949 . S
C479 H474 0.950 . S
C479 C481 1.327 . S
C479 C485 1.429 . S
C480 C472 1.574 . S
C480 H475 0.949 . S
C480 C486 1.368 1_655 S
C481 C465 1.349 . S
C481 H473 0.950 . S
C481 C479 1.327 . S
C482 C470 1.349 . S
C482 H476 0.950 . S
C482 C483 1.327 . S
C483 H477 0.950 . S
C483 C482 1.327 . S
C483 C487 1.429 . S
C484 C467 1.574 . S
C484 H478 0.949 . S
C484 C488 1.368 1_455 S
C485 C466 1.429 . S
C485 C479 1.429 . S
C485 C486 1.523 . S
C486 C467 1.368 1_556 S
C486 C480 1.368 1_455 S
C486 C485 1.523 . S
C487 C471 1.429 . S
C487 C483 1.429 . S
C487 C488 1.523 . S
C488 C472 1.368 1_554 S
C488 C484 1.368 1_655 S
C488 C487 1.523 . S
H489 C464 0.950 . S
H490 C466 0.950 . S
H491 C467 0.949 . S
H492 C469 0.950 . S
H493 C471 0.950 . S
C494 C495 1.349 . S
C494 C496 1.327 . S
C494 H519 0.950 . S
C495 C494 1.349 . S
C495 C511 1.349 . S
C496 C494 1.327 . S
C496 C515 1.429 . S
C496 H520 0.950 . S
C497 C514 1.574 . S
C497 C516 1.368 . S
C497 H521 0.949 . S
H498 C502 0.949 . S
C499 C500 1.349 . S
C499 C501 1.327 . S
C499 H522 0.950 . S
C500 C499 1.349 . S
C500 C512 1.349 . S
C501 C499 1.327 . S
C501 C517 1.429 . S
C501 H523 0.950 . S
C502 H498 0.949 . S
C502 C510 1.574 . S
C502 C518 1.368 . S
H503 C511 0.950 . S
H504 C509 0.950 . S
H505 C510 0.949 . S
H506 C512 0.950 . S
H507 C513 0.950 . S
H508 C514 0.949 . S
C509 H504 0.950 . S
C509 C511 1.327 . S
C509 C515 1.429 . S
C510 C502 1.574 . S
C510 H505 0.949 . S
C510 C516 1.368 . S
C511 C495 1.349 . S
C511 H503 0.950 . S
C511 C509 1.327 . S
C512 C500 1.349 . S
C512 H506 0.950 . S
C512 C513 1.327 . S
C513 H507 0.950 . S
C513 C512 1.327 . S
C513 C517 1.429 . S
C514 C497 1.574 . S
C514 H508 0.949 . S
C514 C518 1.368 . S
C515 C496 1.429 . S
C515 C509 1.429 . S
C515 C516 1.523 . S
C516 C497 1.368 . S
C516 C510 1.368 . S
C516 C515 1.523 . S
C517 C501 1.429 . S
C517 C513 1.429 . S
C517 C518 1.523 . S
C518 C502 1.368 . S
C518 C514 1.368 . S
C518 C517 1.523 . S
H519 C494 0.950 . S
H520 C496 0.950 . S
H521 C497 0.949 . S
H522 C499 0.950 . S
H523 C501 0.950 . S
C524 C525 1.349 . S
C524 C526 1.327 . S
C524 H549 0.950 . S
C525 C524 1.349 . S
C525 C541 1.349 . S
C526 C524 1.327 . S
C526 C545 1.429 . S
C526 H550 0.950 . S
C527 C544 1.574 . S
C527 C546 1.368 1_554 S
C527 H551 0.949 . S
H528 C532 0.949 . S
C529 C530 1.349 . S
C529 C531 1.327 . S
C529 H552 0.950 . S
C530 C529 1.349 . S
C530 C542 1.349 . S
C531 C529 1.327 . S
C531 C547 1.429 . S
C531 H553 0.950 . S
C532 H528 0.949 . S
C532 C540 1.574 . S
C532 C548 1.368 1_556 S
H533 C541 0.950 . S
H534 C539 0.950 . S
H535 C540 0.949 . S
H536 C542 0.950 . S
H537 C543 0.950 . S
H538 C544 0.949 . S
C539 H534 0.950 . S
C539 C541 1.327 . S
C539 C545 1.429 . S
C540 C532 1.574 . S
C540 H535 0.949 . S
C540 C546 1.368 . S
C541 C525 1.349 . S
C541 H533 0.950 . S
C541 C539 1.327 . S
C542 C530 1.349 . S
C542 H536 0.950 . S
C542 C543 1.327 . S
C543 H537 0.950 . S
C543 C542 1.327 . S
C543 C547 1.429 . S
C544 C527 1.574 . S
C544 H538 0.949 . S
C544 C548 1.368 . S
C545 C526 1.429 . S
C545 C539 1.429 . S
C545 C546 1.523 . S
C546 C527 1.368 1_556 S
C546 C540 1.368 . S
C546 C545 1.523 . S
C547 C531 1.429 . S
C547 C543 1.429 . S
C547 C548 1.523 . S
C548 C532 1.368 1_554 S
C548 C544 1.368 . S
C548 C547 1.523 . S
H549 C524 0.950 . S
H550 C526 0.950 . S
H551 C527 0.949 . S
H552 C529 0.950 . S
H553 C531 0.950 . S
C554 C555 1.349 . S
C554 C556 1.327 . S
C554 H579 0.950 . S
C555 C554 1.349 . S
C555 C571 1.349 . S
C556 C554 1.327 . S
C556 C575 1.429 . S
C556 H580 0.950 . S
C557 C574 1.574 . S
C557 C576 1.368 . S
C557 H581 0.949 . S
H558 C562 0.949 . S
C559 C560 1.349 . S
C559 C561 1.327 . S
C559 H582 0.950 . S
C560 C559 1.349 . S
C560 C572 1.349 . S
C561 C559 1.327 . S
C561 C577 1.429 . S
C561 H583 0.950 . S
C562 H558 0.949 . S
C562 C570 1.574 . S
C562 C578 1.368 . S
H563 C571 0.950 . S
H564 C569 0.950 . S
H565 C570 0.949 . S
H566 C572 0.950 . S
H567 C573 0.950 . S
H568 C574 0.949 . S
C569 H564 0.950 . S
C569 C571 1.327 . S
C569 C575 1.429 . S
C570 C562 1.574 . S
C570 H565 0.949 . S
C570 C576 1.368 . S
C571 C555 1.349 . S
C571 H563 0.950 . S
C571 C569 1.327 . S
C572 C560 1.349 . S
C572 H566 0.950 . S
C572 C573 1.327 . S
C573 H567 0.950 . S
C573 C572 1.327 . S
C573 C577 1.429 . S
C574 C557 1.574 . S
C574 H568 0.949 . S
C574 C578 1.368 . S
C575 C556 1.429 . S
C575 C569 1.429 . S
C575 C576 1.523 . S
C576 C557 1.368 . S
C576 C570 1.368 . S
C576 C575 1.523 . S
C577 C561 1.429 . S
C577 C573 1.429 . S
C577 C578 1.523 . S
C578 C562 1.368 . S
C578 C574 1.368 . S
C578 C577 1.523 . S
H579 C554 0.950 . S
H580 C556 0.950 . S
H581 C557 0.949 . S
H582 C559 0.950 . S
H583 C561 0.950 . S
C584 C585 1.349 . S
C584 C586 1.327 . S
C584 H609 0.950 . S
C585 C584 1.349 . S
C585 C601 1.349 . S
C586 C584 1.327 . S
C586 C605 1.429 . S
C586 H610 0.950 . S
C587 C604 1.541 1_556 S
C587 C606 1.398 1_565 S
C587 H611 0.955 . S
H588 C592 0.955 . S
C589 C590 1.349 . S
C589 C591 1.327 . S
C589 H612 0.950 . S
C590 C589 1.349 . S
C590 C602 1.349 . S
C591 C589 1.327 . S
C591 C607 1.429 . S
C591 H613 0.950 . S
C592 H588 0.955 . S
C592 C600 1.541 1_554 S
C592 C608 1.398 1_545 S
H593 C601 0.950 1_565 S
H594 C599 0.950 1_565 S
H595 C600 0.949 . S
H596 C602 0.950 1_545 S
H597 C603 0.950 1_545 S
H598 C604 0.949 . S
C599 H594 0.950 1_545 S
C599 C601 1.327 . S
C599 C605 1.429 . S
C600 C592 1.541 1_556 S
C600 H595 0.949 . S
C600 C606 1.368 . S
C601 C585 1.349 . S
C601 H593 0.950 1_545 S
C601 C599 1.327 . S
C602 C590 1.349 . S
C602 H596 0.950 1_565 S
C602 C603 1.327 . S
C603 H597 0.950 1_565 S
C603 C602 1.327 . S
C603 C607 1.429 . S
C604 C587 1.541 1_554 S
C604 H598 0.949 . S
C604 C608 1.368 . S
C605 C586 1.429 . S
C605 C599 1.429 . S
C605 C606 1.523 . S
C606 C587 1.398 1_545 S
C606 C600 1.368 . S
C606 C605 1.523 . S
C607 C591 1.429 . S
C607 C603 1.429 . S
C607 C608 1.523 . S
C608 C592 1.398 1_565 S
C608 C604 1.368 . S
C608 C607 1.523 . S
H609 C584 0.950 . S
H610 C586 0.950 . S
H611 C587 0.955 . S
H612 C589 0.950 . S
H613 C591 0.950 . S
C614 C615 1.349 . S
C614 C616 1.327 . S
C614 H639 0.950 . S
C615 C614 1.349 . S
C615 C631 1.349 . S
C616 C614 1.327 . S
C616 C635 1.429 . S
C616 H640 0.950 . S
C617 C634 1.574 . S
C617 C636 1.368 . S
C617 H641 0.949 . S
H618 C622 0.949 . S
C619 C620 1.349 . S
C619 C621 1.327 . S
C619 H642 0.950 . S
C620 C619 1.349 . S
C620 C632 1.349 . S
C621 C619 1.327 . S
C621 C637 1.429 . S
C621 H643 0.950 . S
C622 H618 0.949 . S
C622 C630 1.574 . S
C622 C638 1.368 . S
H623 C631 0.950 . S
H624 C629 0.950 . S
H625 C630 0.949 . S
H626 C632 0.950 . S
H627 C633 0.950 . S
H628 C634 0.949 . S
C629 H624 0.950 . S
C629 C631 1.327 . S
C629 C635 1.429 . S
C630 C622 1.574 . S
C630 H625 0.949 . S
C630 C636 1.368 . S
C631 C615 1.349 . S
C631 H623 0.950 . S
C631 C629 1.327 . S
C632 C620 1.349 . S
C632 H626 0.950 . S
C632 C633 1.327 . S
C633 H627 0.950 . S
C633 C632 1.327 . S
C633 C637 1.429 . S
C634 C617 1.574 . S
C634 H628 0.949 . S
C634 C638 1.368 . S
C635 C616 1.429 . S
C635 C629 1.429 . S
C635 C636 1.523 . S
C636 C617 1.368 . S
C636 C630 1.368 . S
C636 C635 1.523 . S
C637 C621 1.429 . S
C637 C633 1.429 . S
C637 C638 1.523 . S
C638 C622 1.368 . S
C638 C634 1.368 . S
C638 C637 1.523 . S
H639 C614 0.950 . S
H640 C616 0.950 . S
H641 C617 0.949 . S
H642 C619 0.950 . S
H643 C621 0.950 . S
C644 C645 1.349 . S
C644 C646 1.327 . S
C644 H669 0.950 . S
C645 C644 1.349 . S
C645 C661 1.349 . S
C646 C644 1.327 . S
C646 C665 1.429 . S
C646 H670 0.950 . S
C647 C664 1.574 . S
C647 C666 1.368 . S
C647 H671 0.949 . S
H648 C652 0.949 . S
C649 C650 1.349 . S
C649 C651 1.327 . S
C649 H672 0.950 . S
C650 C649 1.349 . S
C650 C662 1.349 . S
C651 C649 1.327 . S
C651 C667 1.429 . S
C651 H673 0.950 . S
C652 H648 0.949 . S
C652 C660 1.574 . S
C652 C668 1.368 . S
H653 C661 0.950 . S
H654 C659 0.950 . S
H655 C660 0.949 . S
H656 C662 0.950 . S
H657 C663 0.950 . S
H658 C664 0.949 . S
C659 H654 0.950 . S
C659 C661 1.327 . S
C659 C665 1.429 . S
C660 C652 1.574 . S
C660 H655 0.949 . S
C660 C666 1.368 . S
C661 C645 1.349 . S
C661 H653 0.950 . S
C661 C659 1.327 . S
C662 C650 1.349 . S
C662 H656 0.950 . S
C662 C663 1.327 . S
C663 H657 0.950 . S
C663 C662 1.327 . S
C663 C667 1.429 . S
C664 C647 1.574 . S
C664 H658 0.949 . S
C664 C668 1.368 . S
C665 C646 1.429 . S
C665 C659 1.429 . S
C665 C666 1.523 . S
C666 C647 1.368 . S
C666 C660 1.368 . S
C666 C665 1.523 . S
C667 C651 1.429 . S
C667 C663 1.429 . S
C667 C668 1.523 . S
C668 C652 1.368 . S
C668 C664 1.368 . S
C668 C667 1.523 . S
H669 C644 0.950 . S
H670 C646 0.950 . S
H671 C647 0.949 . S
H672 C649 0.950 . S
H673 C651 0.950 . S
C674 C675 1.349 . S
C674 C676 1.327 . S
C674 H699 0.950 . S
C675 C674 1.349 . S
C675 C691 1.349 . S
C676 C674 1.327 . S
C676 C695 1.429 . S
C676 H700 0.950 . S
C677 C694 1.574 . S
C677 C696 1.368 . S
C677 H701 0.949 . S
H678 C682 0.949 . S
C679 C680 1.349 . S
C679 C681 1.327 . S
C679 H702 0.950 . S
C680 C679 1.349 . S
C680 C692 1.349 . S
C681 C679 1.327 . S
C681 C697 1.429 . S
C681 H703 0.950 . S
C682 H678 0.949 . S
C682 C690 1.574 . S
C682 C698 1.368 . S
H683 C691 0.950 . S
H684 C689 0.950 . S
H685 C690 0.949 . S
H686 C692 0.950 . S
H687 C693 0.950 . S
H688 C694 0.949 . S
C689 H684 0.950 . S
C689 C691 1.327 . S
C689 C695 1.429 . S
C690 C682 1.574 . S
C690 H685 0.949 . S
C690 C696 1.368 . S
C691 C675 1.349 . S
C691 H683 0.950 . S
C691 C689 1.327 . S
C692 C680 1.349 . S
C692 H686 0.950 . S
C692 C693 1.327 . S
C693 H687 0.950 . S
C693 C692 1.327 . S
C693 C697 1.429 . S
C694 C677 1.574 . S
C694 H688 0.949 . S
C694 C698 1.368 . S
C695 C676 1.429 . S
C695 C689 1.429 . S
C695 C696 1.523 . S
C696 C677 1.368 . S
C696 C690 1.368 . S
C696 C695 1.523 . S
C697 C681 1.429 . S
C697 C693 1.429 . S
C697 C698 1.523 . S
C698 C682 1.368 . S
C698 C694 1.368 . S
C698 C697 1.523 . S
H699 C674 0.950 . S
H700 C676 0.950 . S
H701 C677 0.949 . S
H702 C679 0.950 . S
H703 C681 0.950 . S
C704 C705 1.349 . S
C704 C706 1.327 . S
C704 H729 0.950 . S
C705 C704 1.349 . S
C705 C721 1.349 . S
C706 C704 1.327 . S
C706 C725 1.429 . S
C706 H730 0.950 . S
C707 C724 1.574 . S
C707 C726 1.368 . S
C707 H731 0.949 . S
H708 C712 0.949 . S
C709 C710 1.349 1_565 S
C709 C711 1.327 . S
C709 H732 0.950 . S
C710 C709 1.349 1_545 S
C710 C722 1.349 . S
C711 C709 1.327 . S
C711 C727 1.429 . S
C711 H733 0.950 . S
C712 H708 0.949 . S
C712 C720 1.574 . S
C712 C728 1.368 . S
H713 C721 0.950 . S
H714 C719 0.950 . S
H715 C720 0.949 . S
H716 C722 0.950 . S
H717 C723 0.950 . S
H718 C724 0.949 . S
C719 H714 0.950 . S
C719 C721 1.327 . S
C719 C725 1.429 . S
C720 C712 1.574 . S
C720 H715 0.949 . S
C720 C726 1.368 . S
C721 C705 1.349 . S
C721 H713 0.950 . S
C721 C719 1.327 . S
C722 C710 1.349 . S
C722 H716 0.950 . S
C722 C723 1.327 1_545 S
C723 H717 0.950 . S
C723 C722 1.327 1_565 S
C723 C727 1.429 . S
C724 C707 1.574 . S
C724 H718 0.949 . S
C724 C728 1.368 . S
C725 C706 1.429 . S
C725 C719 1.429 . S
C725 C726 1.523 . S
C726 C707 1.368 . S
C726 C720 1.368 . S
C726 C725 1.523 . S
C727 C711 1.429 . S
C727 C723 1.429 . S
C727 C728 1.523 . S
C728 C712 1.368 . S
C728 C724 1.368 . S
C728 C727 1.523 . S
H729 C704 0.950 . S
H730 C706 0.950 . S
H731 C707 0.949 . S
H732 C709 0.950 . S
H733 C711 0.950 . S
C734 C735 1.349 . S
C734 C736 1.327 . S
C734 H759 0.950 . S
C735 C734 1.349 . S
C735 C751 1.349 . S
C736 C734 1.327 . S
C736 C755 1.429 . S
C736 H760 0.950 . S
C737 C754 1.574 . S
C737 C756 1.368 . S
C737 H761 0.949 . S
H738 C742 0.949 . S
C739 C740 1.349 . S
C739 C741 1.327 . S
C739 H762 0.950 . S
C740 C739 1.349 . S
C740 C752 1.349 . S
C741 C739 1.327 . S
C741 C757 1.429 . S
C741 H763 0.950 . S
C742 H738 0.949 . S
C742 C750 1.574 . S
C742 C758 1.368 . S
H743 C751 0.950 . S
H744 C749 0.950 . S
H745 C750 0.949 . S
H746 C752 0.950 . S
H747 C753 0.950 . S
H748 C754 0.949 . S
C749 H744 0.950 . S
C749 C751 1.327 . S
C749 C755 1.429 . S
C750 C742 1.574 . S
C750 H745 0.949 . S
C750 C756 1.368 . S
C751 C735 1.349 . S
C751 H743 0.950 . S
C751 C749 1.327 . S
C752 C740 1.349 . S
C752 H746 0.950 . S
C752 C753 1.327 . S
C753 H747 0.950 . S
C753 C752 1.327 . S
C753 C757 1.429 . S
C754 C737 1.574 . S
C754 H748 0.949 . S
C754 C758 1.368 . S
C755 C736 1.429 . S
C755 C749 1.429 . S
C755 C756 1.523 . S
C756 C737 1.368 . S
C756 C750 1.368 . S
C756 C755 1.523 . S
C757 C741 1.429 . S
C757 C753 1.429 . S
C757 C758 1.523 . S
C758 C742 1.368 . S
C758 C754 1.368 . S
C758 C757 1.523 . S
H759 C734 0.950 . S
H760 C736 0.950 . S
H761 C737 0.949 . S
H762 C739 0.950 . S
H763 C741 0.950 . S
C764 C765 1.349 . S
C764 C766 1.327 . S
C764 H789 0.950 . S
C765 C764 1.349 . S
C765 C781 1.349 . S
C766 C764 1.327 . S
C766 C785 1.429 . S
C766 H790 0.950 . S
C767 C784 1.574 . S
C767 C786 1.368 . S
C767 H791 0.949 . S
H768 C772 0.949 . S
C769 C770 1.349 . S
C769 C771 1.327 . S
C769 H792 0.950 . S
C770 C769 1.349 . S
C770 C782 1.349 . S
C771 C769 1.327 . S
C771 C787 1.429 . S
C771 H793 0.950 . S
C772 H768 0.949 . S
C772 C780 1.574 . S
C772 C788 1.368 . S
H773 C781 0.950 . S
H774 C779 0.950 . S
H775 C780 0.949 . S
H776 C782 0.950 . S
H777 C783 0.950 . S
H778 C784 0.949 . S
C779 H774 0.950 . S
C779 C781 1.327 . S
C779 C785 1.429 . S
C780 C772 1.574 . S
C780 H775 0.949 . S
C780 C786 1.368 . S
C781 C765 1.349 . S
C781 H773 0.950 . S
C781 C779 1.327 . S
C782 C770 1.349 . S
C782 H776 0.950 . S
C782 C783 1.327 . S
C783 H777 0.950 . S
C783 C782 1.327 . S
C783 C787 1.429 . S
C784 C767 1.574 . S
C784 H778 0.949 . S
C784 C788 1.368 . S
C785 C766 1.429 . S
C785 C779 1.429 . S
C785 C786 1.523 . S
C786 C767 1.368 . S
C786 C780 1.368 . S
C786 C785 1.523 . S
C787 C771 1.429 . S
C787 C783 1.429 . S
C787 C788 1.523 . S
C788 C772 1.368 . S
C788 C784 1.368 . S
C788 C787 1.523 . S
H789 C764 0.950 . S
H790 C766 0.950 . S
H791 C767 0.949 . S
H792 C769 0.950 . S
H793 C771 0.950 . S
C794 C795 1.349 . S
C794 C796 1.327 . S
C794 H819 0.950 . S
C795 C794 1.349 . S
C795 C811 1.349 . S
C796 C794 1.327 . S
C796 C815 1.429 . S
C796 H820 0.950 . S
C797 C814 1.574 . S
C797 C816 1.368 . S
C797 H821 0.949 . S
H798 C802 0.949 . S
C799 C800 1.349 . S
C799 C801 1.327 1_545 S
C799 H822 0.950 . S
C800 C799 1.349 . S
C800 C812 1.349 1_545 S
C801 C799 1.327 1_565 S
C801 C817 1.429 . S
C801 H823 0.950 . S
C802 H798 0.949 . S
C802 C810 1.574 . S
C802 C818 1.368 . S
H803 C811 0.950 . S
H804 C809 0.950 . S
H805 C810 0.949 . S
H806 C812 0.950 . S
H807 C813 0.950 . S
H808 C814 0.949 . S
C809 H804 0.950 . S
C809 C811 1.327 . S
C809 C815 1.429 . S
C810 C802 1.574 . S
C810 H805 0.949 . S
C810 C816 1.368 . S
C811 C795 1.349 . S
C811 H803 0.950 . S
C811 C809 1.327 . S
C812 C800 1.349 1_565 S
C812 H806 0.950 . S
C812 C813 1.327 . S
C813 H807 0.950 . S
C813 C812 1.327 . S
C813 C817 1.429 . S
C814 C797 1.574 . S
C814 H808 0.949 . S
C814 C818 1.368 . S
C815 C796 1.429 . S
C815 C809 1.429 . S
C815 C816 1.523 . S
C816 C797 1.368 . S
C816 C810 1.368 . S
C816 C815 1.523 . S
C817 C801 1.429 . S
C817 C813 1.429 . S
C817 C818 1.523 . S
C818 C802 1.368 . S
C818 C814 1.368 . S
C818 C817 1.523 . S
H819 C794 0.950 . S
H820 C796 0.950 . S
H821 C797 0.949 . S
H822 C799 0.950 . S
H823 C801 0.950 . S
C824 C825 1.349 . S
C824 C826 1.327 . S
C824 H849 0.950 . S
C825 C824 1.349 . S
C825 C841 1.349 . S
C826 C824 1.327 . S
C826 C845 1.429 . S
C826 H850 0.950 . S
C827 C844 1.574 . S
C827 C846 1.368 . S
C827 H851 0.949 . S
H828 C832 0.949 . S
C829 C830 1.349 . S
C829 C831 1.327 1_565 S
C829 H852 0.950 . S
C830 C829 1.349 . S
C830 C842 1.349 1_565 S
C831 C829 1.327 1_545 S
C831 C847 1.429 . S
C831 H853 0.950 . S
C832 H828 0.949 . S
C832 C840 1.574 . S
C832 C848 1.368 . S
H833 C841 0.950 . S
H834 C839 0.950 . S
H835 C840 0.949 . S
H836 C842 0.950 . S
H837 C843 0.950 . S
H838 C844 0.949 . S
C839 H834 0.950 . S
C839 C841 1.327 . S
C839 C845 1.429 . S
C840 C832 1.574 . S
C840 H835 0.949 . S
C840 C846 1.368 . S
C841 C825 1.349 . S
C841 H833 0.950 . S
C841 C839 1.327 . S
C842 C830 1.349 1_545 S
C842 H836 0.950 . S
C842 C843 1.327 . S
C843 H837 0.950 . S
C843 C842 1.327 . S
C843 C847 1.429 . S
C844 C827 1.574 . S
C844 H838 0.949 . S
C844 C848 1.368 . S
C845 C826 1.429 . S
C845 C839 1.429 . S
C845 C846 1.523 . S
C846 C827 1.368 . S
C846 C840 1.368 . S
C846 C845 1.523 . S
C847 C831 1.429 . S
C847 C843 1.429 . S
C847 C848 1.523 . S
C848 C832 1.368 . S
C848 C844 1.368 . S
C848 C847 1.523 . S
H849 C824 0.950 . S
H850 C826 0.950 . S
H851 C827 0.949 . S
H852 C829 0.950 . S
H853 C831 0.950 . S
C854 C855 1.349 . S
C854 C856 1.327 . S
C854 H879 0.950 . S
C855 C854 1.349 . S
C855 C871 1.349 . S
C856 C854 1.327 . S
C856 C875 1.429 . S
C856 H880 0.950 . S
C857 C874 1.574 . S
C857 C876 1.368 . S
C857 H881 0.949 . S
H858 C862 0.949 . S
C859 C860 1.349 . S
C859 C861 1.327 . S
C859 H882 0.950 . S
C860 C859 1.349 . S
C860 C872 1.349 . S
C861 C859 1.327 . S
C861 C877 1.429 . S
C861 H883 0.950 . S
C862 H858 0.949 . S
C862 C870 1.574 . S
C862 C878 1.368 . S
H863 C871 0.950 . S
H864 C869 0.950 . S
H865 C870 0.949 . S
H866 C872 0.950 . S
H867 C873 0.950 . S
H868 C874 0.949 . S
C869 H864 0.950 . S
C869 C871 1.327 . S
C869 C875 1.429 . S
C870 C862 1.574 . S
C870 H865 0.949 . S
C870 C876 1.368 . S
C871 C855 1.349 . S
C871 H863 0.950 . S
C871 C869 1.327 . S
C872 C860 1.349 . S
C872 H866 0.950 . S
C872 C873 1.327 . S
C873 H867 0.950 . S
C873 C872 1.327 . S
C873 C877 1.429 . S
C874 C857 1.574 . S
C874 H868 0.949 . S
C874 C878 1.368 . S
C875 C856 1.429 . S
C875 C869 1.429 . S
C875 C876 1.523 . S
C876 C857 1.368 . S
C876 C870 1.368 . S
C876 C875 1.523 . S
C877 C861 1.429 . S
C877 C873 1.429 . S
C877 C878 1.523 . S
C878 C862 1.368 . S
C878 C874 1.368 . S
C878 C877 1.523 . S
H879 C854 0.950 . S
H880 C856 0.950 . S
H881 C857 0.949 . S
H882 C859 0.950 . S
H883 C861 0.950 . S
C884 C885 1.349 . S
C884 C886 1.327 . S
C884 H909 0.950 . S
C885 C884 1.349 . S
C885 C901 1.349 . S
C886 C884 1.327 . S
C886 C905 1.429 . S
C886 H910 0.950 . S
C887 C904 1.574 . S
C887 C906 1.368 . S
C887 H911 0.949 . S
H888 C892 0.949 . S
C889 C890 1.349 . S
C889 C891 1.327 . S
C889 H912 0.950 . S
C890 C889 1.349 . S
C890 C902 1.349 . S
C891 C889 1.327 . S
C891 C907 1.429 . S
C891 H913 0.950 . S
C892 H888 0.949 . S
C892 C900 1.574 . S
C892 C908 1.368 . S
H893 C901 0.950 . S
H894 C899 0.950 . S
H895 C900 0.949 . S
H896 C902 0.950 . S
H897 C903 0.950 . S
H898 C904 0.949 . S
C899 H894 0.950 . S
C899 C901 1.327 . S
C899 C905 1.429 . S
C900 C892 1.574 . S
C900 H895 0.949 . S
C900 C906 1.368 . S
C901 C885 1.349 . S
C901 H893 0.950 . S
C901 C899 1.327 . S
C902 C890 1.349 . S
C902 H896 0.950 . S
C902 C903 1.327 . S
C903 H897 0.950 . S
C903 C902 1.327 . S
C903 C907 1.429 . S
C904 C887 1.574 . S
C904 H898 0.949 . S
C904 C908 1.368 . S
C905 C886 1.429 . S
C905 C899 1.429 . S
C905 C906 1.523 . S
C906 C887 1.368 . S
C906 C900 1.368 . S
C906 C905 1.523 . S
C907 C891 1.429 . S
C907 C903 1.429 . S
C907 C908 1.523 . S
C908 C892 1.368 . S
C908 C904 1.368 . S
C908 C907 1.523 . S
H909 C884 0.950 . S
H910 C886 0.950 . S
H911 C887 0.949 . S
H912 C889 0.950 . S
H913 C891 0.950 . S
C914 C915 1.349 1_545 S
C914 C916 1.327 . S
C914 H939 0.950 . S
C915 C914 1.349 1_565 S
C915 C931 1.349 . S
C916 C914 1.327 . S
C916 C935 1.429 . S
C916 H940 0.950 . S
C917 C934 1.574 . S
C917 C936 1.368 . S
C917 H941 0.949 . S
H918 C922 0.949 . S
C919 C920 1.349 . S
C919 C921 1.327 . S
C919 H942 0.950 . S
C920 C919 1.349 . S
C920 C932 1.349 . S
C921 C919 1.327 . S
C921 C937 1.429 . S
C921 H943 0.950 . S
C922 H918 0.949 . S
C922 C930 1.574 . S
C922 C938 1.368 . S
H923 C931 0.950 . S
H924 C929 0.948 1_565 S
H925 C930 0.949 . S
H926 C932 0.950 . S
H927 C933 0.950 . S
H928 C934 0.949 . S
C929 H924 0.948 1_545 S
C929 C931 1.327 1_545 S
C929 C935 1.429 . S
C930 C922 1.574 . S
C930 H925 0.949 . S
C930 C936 1.368 . S
C931 C915 1.349 . S
C931 H923 0.950 . S
C931 C929 1.327 1_565 S
C932 C920 1.349 . S
C932 H926 0.950 . S
C932 C933 1.327 . S
C933 H927 0.950 . S
C933 C932 1.327 . S
C933 C937 1.429 . S
C934 C917 1.574 . S
C934 H928 0.949 . S
C934 C938 1.368 . S
C935 C916 1.429 . S
C935 C929 1.429 . S
C935 C936 1.523 . S
C936 C917 1.368 . S
C936 C930 1.368 . S
C936 C935 1.523 . S
C937 C921 1.429 . S
C937 C933 1.429 . S
C937 C938 1.523 . S
C938 C922 1.368 . S
C938 C934 1.368 . S
C938 C937 1.523 . S
H939 C914 0.950 . S
H940 C916 0.950 . S
H941 C917 0.949 . S
H942 C919 0.950 . S
H943 C921 0.950 . S
C944 C945 1.349 . S
C944 C946 1.327 . S
C944 H969 0.950 . S
C945 C944 1.349 . S
C945 C961 1.349 . S
C946 C944 1.327 . S
C946 C965 1.429 . S
C946 H970 0.950 . S
C947 C964 1.574 . S
C947 C966 1.368 . S
C947 H971 0.949 . S
H948 C952 0.949 . S
C949 C950 1.349 1_565 S
C949 C951 1.327 . S
C949 H972 0.950 . S
C950 C949 1.349 1_545 S
C950 C962 1.349 . S
C951 C949 1.327 . S
C951 C967 1.429 . S
C951 H973 0.950 . S
C952 H948 0.949 . S
C952 C960 1.574 . S
C952 C968 1.368 . S
H953 C961 0.950 . S
H954 C959 0.950 . S
H955 C960 0.949 . S
H956 C962 0.950 . S
H957 C963 0.950 . S
H958 C964 0.949 . S
C959 H954 0.950 . S
C959 C961 1.327 . S
C959 C965 1.429 . S
C960 C952 1.574 . S
C960 H955 0.949 . S
C960 C966 1.368 . S
C961 C945 1.349 . S
C961 H953 0.950 . S
C961 C959 1.327 . S
C962 C950 1.349 . S
C962 H956 0.950 . S
C962 C963 1.327 1_545 S
C963 H957 0.950 . S
C963 C962 1.327 1_565 S
C963 C967 1.429 . S
C964 C947 1.574 . S
C964 H958 0.949 . S
C964 C968 1.368 . S
C965 C946 1.429 . S
C965 C959 1.429 . S
C965 C966 1.523 . S
C966 C947 1.368 . S
C966 C960 1.368 . S
C966 C965 1.523 . S
C967 C951 1.429 . S
C967 C963 1.429 . S
C967 C968 1.523 . S
C968 C952 1.368 . S
C968 C964 1.368 . S
C968 C967 1.523 . S
H969 C944 0.950 . S
H970 C946 0.950 . S
H971 C947 0.949 . S
H972 C949 0.950 . S
H973 C951 0.950 . S
C974 C975 1.349 . S
C974 C976 1.327 . S
C974 H999 0.950 . S
C975 C974 1.349 . S
C975 C991 1.349 . S
C976 C974 1.327 . S
C976 C995 1.429 . S
C976 H1000 0.950 . S
C977 C994 1.574 . S
C977 C996 1.368 . S
C977 H1001 0.949 . S
H978 C982 0.949 . S
C979 C980 1.349 . S
C979 C981 1.327 . S
C979 H1002 0.950 . S
C980 C979 1.349 . S
C980 C992 1.349 . S
C981 C979 1.327 . S
C981 C997 1.429 . S
C981 H1003 0.950 . S
C982 H978 0.949 . S
C982 C990 1.574 . S
C982 C998 1.368 . S
H983 C991 0.950 . S
H984 C989 0.950 . S
H985 C990 0.949 . S
H986 C992 0.950 . S
H987 C993 0.950 . S
H988 C994 0.949 . S
C989 H984 0.950 . S
C989 C991 1.327 . S
C989 C995 1.429 . S
C990 C982 1.574 . S
C990 H985 0.949 . S
C990 C996 1.368 . S
C991 C975 1.349 . S
C991 H983 0.950 . S
C991 C989 1.327 . S
C992 C980 1.349 . S
C992 H986 0.950 . S
C992 C993 1.327 . S
C993 H987 0.950 . S
C993 C992 1.327 . S
C993 C997 1.429 . S
C994 C977 1.574 . S
C994 H988 0.949 . S
C994 C998 1.368 . S
C995 C976 1.429 . S
C995 C989 1.429 . S
C995 C996 1.523 . S
C996 C977 1.368 . S
C996 C990 1.368 . S
C996 C995 1.523 . S
C997 C981 1.429 . S
C997 C993 1.429 . S
C997 C998 1.523 . S
C998 C982 1.368 . S
C998 C994 1.368 . S
C998 C997 1.523 . S
H999 C974 0.950 . S
H1000 C976 0.950 . S
H1001 C977 0.949 . S
H1002 C979 0.950 . S
H1003 C981 0.950 . S
C1004 C1005 1.349 . S
C1004 C1006 1.327 . S
C1004 H1029 0.950 . S
C1005 C1004 1.349 . S
C1005 C1021 1.349 . S
C1006 C1004 1.327 . S
C1006 C1025 1.429 . S
C1006 H1030 0.950 . S
C1007 C1024 1.574 . S
C1007 C1026 1.368 . S
C1007 H1031 0.949 . S
H1008 C1012 0.949 . S
C1009 C1010 1.349 . S
C1009 C1011 1.327 . S
C1009 H1032 0.950 . S
C1010 C1009 1.349 . S
C1010 C1022 1.349 . S
C1011 C1009 1.327 . S
C1011 C1027 1.429 . S
C1011 H1033 0.950 . S
C1012 H1008 0.949 . S
C1012 C1020 1.574 . S
C1012 C1028 1.368 . S
H1013 C1021 0.950 . S
H1014 C1019 0.950 . S
H1015 C1020 0.949 . S
H1016 C1022 0.950 . S
H1017 C1023 0.950 . S
H1018 C1024 0.949 . S
C1019 H1014 0.950 . S
C1019 C1021 1.327 . S
C1019 C1025 1.429 . S
C1020 C1012 1.574 . S
C1020 H1015 0.949 . S
C1020 C1026 1.368 . S
C1021 C1005 1.349 . S
C1021 H1013 0.950 . S
C1021 C1019 1.327 . S
C1022 C1010 1.349 . S
C1022 H1016 0.950 . S
C1022 C1023 1.327 . S
C1023 H1017 0.950 . S
C1023 C1022 1.327 . S
C1023 C1027 1.429 . S
C1024 C1007 1.574 . S
C1024 H1018 0.949 . S
C1024 C1028 1.368 . S
C1025 C1006 1.429 . S
C1025 C1019 1.429 . S
C1025 C1026 1.523 . S
C1026 C1007 1.368 . S
C1026 C1020 1.368 . S
C1026 C1025 1.523 . S
C1027 C1011 1.429 . S
C1027 C1023 1.429 . S
C1027 C1028 1.523 . S
C1028 C1012 1.368 . S
C1028 C1024 1.368 . S
C1028 C1027 1.523 . S
H1029 C1004 0.950 . S
H1030 C1006 0.950 . S
H1031 C1007 0.949 . S
H1032 C1009 0.950 . S
H1033 C1011 0.950 . S
C1034 C1035 1.349 . S
C1034 C1036 1.327 . S
C1034 H1059 0.950 . S
C1035 C1034 1.349 . S
C1035 C1051 1.349 . S
C1036 C1034 1.327 . S
C1036 C1055 1.429 . S
C1036 H1060 0.950 . S
C1037 C1054 1.574 . S
C1037 C1056 1.368 . S
C1037 H1061 0.949 . S
H1038 C1042 0.949 . S
C1039 C1040 1.349 1_565 S
C1039 C1041 1.327 . S
C1039 H1062 0.950 . S
C1040 C1039 1.349 1_545 S
C1040 C1052 1.349 . S
C1041 C1039 1.327 . S
C1041 C1057 1.429 . S
C1041 H1063 0.950 . S
C1042 H1038 0.949 . S
C1042 C1050 1.574 . S
C1042 C1058 1.368 . S
H1043 C1051 0.950 . S
H1044 C1049 0.950 . S
H1045 C1050 0.949 . S
H1046 C1052 0.950 . S
H1047 C1053 0.950 . S
H1048 C1054 0.949 . S
C1049 H1044 0.950 . S
C1049 C1051 1.327 . S
C1049 C1055 1.429 . S
C1050 C1042 1.574 . S
C1050 H1045 0.949 . S
C1050 C1056 1.368 . S
C1051 C1035 1.349 . S
C1051 H1043 0.950 . S
C1051 C1049 1.327 . S
C1052 C1040 1.349 . S
C1052 H1046 0.950 . S
C1052 C1053 1.327 1_545 S
C1053 H1047 0.950 . S
C1053 C1052 1.327 1_565 S
C1053 C1057 1.429 . S
C1054 C1037 1.574 . S
C1054 H1048 0.949 . S
C1054 C1058 1.368 . S
C1055 C1036 1.429 . S
C1055 C1049 1.429 . S
C1055 C1056 1.523 . S
C1056 C1037 1.368 . S
C1056 C1050 1.368 . S
C1056 C1055 1.523 . S
C1057 C1041 1.429 . S
C1057 C1053 1.429 . S
C1057 C1058 1.523 . S
C1058 C1042 1.368 . S
C1058 C1054 1.368 . S
C1058 C1057 1.523 . S
H1059 C1034 0.950 . S
H1060 C1036 0.950 . S
H1061 C1037 0.949 . S
H1062 C1039 0.950 . S
H1063 C1041 0.950 . S
C1064 C1065 1.349 . S
C1064 C1066 1.327 . S
C1064 H1089 0.950 . S
C1065 C1064 1.349 . S
C1065 C1081 1.349 . S
C1066 C1064 1.327 . S
C1066 C1085 1.429 . S
C1066 H1090 0.950 . S
C1067 C1084 1.574 . S
C1067 C1086 1.368 . S
C1067 H1091 0.949 . S
H1068 C1072 0.949 . S
C1069 C1070 1.349 . S
C1069 C1071 1.327 1_565 S
C1069 H1092 0.950 . S
C1070 C1069 1.349 . S
C1070 C1082 1.349 1_565 S
C1071 C1069 1.327 1_545 S
C1071 C1087 1.429 . S
C1071 H1093 0.950 . S
C1072 H1068 0.949 . S
C1072 C1080 1.574 . S
C1072 C1088 1.368 . S
H1073 C1081 0.950 . S
H1074 C1079 0.950 . S
H1075 C1080 0.949 . S
H1076 C1082 0.950 . S
H1077 C1083 0.950 . S
H1078 C1084 0.949 . S
C1079 H1074 0.950 . S
C1079 C1081 1.327 . S
C1079 C1085 1.429 . S
C1080 C1072 1.574 . S
C1080 H1075 0.949 . S
C1080 C1086 1.368 . S
C1081 C1065 1.349 . S
C1081 H1073 0.950 . S
C1081 C1079 1.327 . S
C1082 C1070 1.349 1_545 S
C1082 H1076 0.950 . S
C1082 C1083 1.327 . S
C1083 H1077 0.950 . S
C1083 C1082 1.327 . S
C1083 C1087 1.429 . S
C1084 C1067 1.574 . S
C1084 H1078 0.949 . S
C1084 C1088 1.368 . S
C1085 C1066 1.429 . S
C1085 C1079 1.429 . S
C1085 C1086 1.523 . S
C1086 C1067 1.368 . S
C1086 C1080 1.368 . S
C1086 C1085 1.523 . S
C1087 C1071 1.429 . S
C1087 C1083 1.429 . S
C1087 C1088 1.523 . S
C1088 C1072 1.368 . S
C1088 C1084 1.368 . S
C1088 C1087 1.523 . S
H1089 C1064 0.950 . S
H1090 C1066 0.950 . S
H1091 C1067 0.949 . S
H1092 C1069 0.950 . S
H1093 C1071 0.950 . S
C1094 C1095 1.349 . S
C1094 C1096 1.327 . S
C1094 H1119 0.950 . S
C1095 C1094 1.349 . S
C1095 C1111 1.349 . S
C1096 C1094 1.327 . S
C1096 C1115 1.429 . S
C1096 H1120 0.950 . S
C1097 C1114 1.574 . S
C1097 C1116 1.368 . S
C1097 H1121 0.949 . S
H1098 C1102 0.949 . S
C1099 C1100 1.349 . S
C1099 C1101 1.327 . S
C1099 H1122 0.950 . S
C1100 C1099 1.349 . S
C1100 C1112 1.349 . S
C1101 C1099 1.327 . S
C1101 C1117 1.429 . S
C1101 H1123 0.950 . S
C1102 H1098 0.949 . S
C1102 C1110 1.574 . S
C1102 C1118 1.368 . S
H1103 C1111 0.950 . S
H1104 C1109 0.950 . S
H1105 C1110 0.949 . S
H1106 C1112 0.950 . S
H1107 C1113 0.950 . S
H1108 C1114 0.949 . S
C1109 H1104 0.950 . S
C1109 C1111 1.327 . S
C1109 C1115 1.429 . S
C1110 C1102 1.574 . S
C1110 H1105 0.949 . S
C1110 C1116 1.368 . S
C1111 C1095 1.349 . S
C1111 H1103 0.950 . S
C1111 C1109 1.327 . S
C1112 C1100 1.349 . S
C1112 H1106 0.950 . S
C1112 C1113 1.327 . S
C1113 H1107 0.950 . S
C1113 C1112 1.327 . S
C1113 C1117 1.429 . S
C1114 C1097 1.574 . S
C1114 H1108 0.949 . S
C1114 C1118 1.368 . S
C1115 C1096 1.429 . S
C1115 C1109 1.429 . S
C1115 C1116 1.523 . S
C1116 C1097 1.368 . S
C1116 C1110 1.368 . S
C1116 C1115 1.523 . S
C1117 C1101 1.429 . S
C1117 C1113 1.429 . S
C1117 C1118 1.523 . S
C1118 C1102 1.368 . S
C1118 C1114 1.368 . S
C1118 C1117 1.523 . S
H1119 C1094 0.950 . S
H1120 C1096 0.950 . S
H1121 C1097 0.949 . S
H1122 C1099 0.950 . S
H1123 C1101 0.950 . S
C1124 C1125 1.349 . S
C1124 C1126 1.327 . S
C1124 H1149 0.950 . S
C1125 C1124 1.349 . S
C1125 C1141 1.349 . S
C1126 C1124 1.327 . S
C1126 C1145 1.429 . S
C1126 H1150 0.950 . S
C1127 C1144 1.574 . S
C1127 C1146 1.368 . S
C1127 H1151 0.949 . S
H1128 C1132 0.949 . S
C1129 C1130 1.349 . S
C1129 C1131 1.327 . S
C1129 H1152 0.950 . S
C1130 C1129 1.349 . S
C1130 C1142 1.349 . S
C1131 C1129 1.327 . S
C1131 C1147 1.429 . S
C1131 H1153 0.950 . S
C1132 H1128 0.949 . S
C1132 C1140 1.574 . S
C1132 C1148 1.368 . S
H1133 C1141 0.950 . S
H1134 C1139 0.950 . S
H1135 C1140 0.949 . S
H1136 C1142 0.950 . S
H1137 C1143 0.950 . S
H1138 C1144 0.949 . S
C1139 H1134 0.950 . S
C1139 C1141 1.327 . S
C1139 C1145 1.429 . S
C1140 C1132 1.574 . S
C1140 H1135 0.949 . S
C1140 C1146 1.368 . S
C1141 C1125 1.349 . S
C1141 H1133 0.950 . S
C1141 C1139 1.327 . S
C1142 C1130 1.349 . S
C1142 H1136 0.950 . S
C1142 C1143 1.327 . S
C1143 H1137 0.950 . S
C1143 C1142 1.327 . S
C1143 C1147 1.429 . S
C1144 C1127 1.574 . S
C1144 H1138 0.949 . S
C1144 C1148 1.368 . S
C1145 C1126 1.429 . S
C1145 C1139 1.429 . S
C1145 C1146 1.523 . S
C1146 C1127 1.368 . S
C1146 C1140 1.368 . S
C1146 C1145 1.523 . S
C1147 C1131 1.429 . S
C1147 C1143 1.429 . S
C1147 C1148 1.523 . S
C1148 C1132 1.368 . S
C1148 C1144 1.368 . S
C1148 C1147 1.523 . S
H1149 C1124 0.950 . S
H1150 C1126 0.950 . S
H1151 C1127 0.949 . S
H1152 C1129 0.950 . S
H1153 C1131 0.950 . S
C1154 C1155 1.349 . S
C1154 C1156 1.327 . S
C1154 H1179 0.950 . S
C1155 C1154 1.349 . S
C1155 C1171 1.349 . S
C1156 C1154 1.327 . S
C1156 C1175 1.429 . S
C1156 H1180 0.950 . S
C1157 C1174 1.574 . S
C1157 C1176 1.368 . S
C1157 H1181 0.949 . S
H1158 C1162 0.949 . S
C1159 C1160 1.349 . S
C1159 C1161 1.327 1_565 S
C1159 H1182 0.950 . S
C1160 C1159 1.349 . S
C1160 C1172 1.349 . S
C1161 C1159 1.327 1_545 S
C1161 C1177 1.429 . S
C1161 H1183 0.950 . S
C1162 H1158 0.949 . S
C1162 C1170 1.574 . S
C1162 C1178 1.368 . S
H1163 C1171 0.950 . S
H1164 C1169 0.950 . S
H1165 C1170 0.949 . S
H1166 C1172 0.950 . S
H1167 C1173 0.950 . S
H1168 C1174 0.949 . S
C1169 H1164 0.950 . S
C1169 C1171 1.327 . S
C1169 C1175 1.429 . S
C1170 C1162 1.574 . S
C1170 H1165 0.949 . S
C1170 C1176 1.368 . S
C1171 C1155 1.349 . S
C1171 H1163 0.950 . S
C1171 C1169 1.327 . S
C1172 C1160 1.349 . S
C1172 H1166 0.950 . S
C1172 C1173 1.327 1_565 S
C1173 H1167 0.950 . S
C1173 C1172 1.327 1_545 S
C1173 C1177 1.429 . S
C1174 C1157 1.574 . S
C1174 H1168 0.949 . S
C1174 C1178 1.368 . S
C1175 C1156 1.429 . S
C1175 C1169 1.429 . S
C1175 C1176 1.523 . S
C1176 C1157 1.368 . S
C1176 C1170 1.368 . S
C1176 C1175 1.523 . S
C1177 C1161 1.429 . S
C1177 C1173 1.429 . S
C1177 C1178 1.523 . S
C1178 C1162 1.368 . S
C1178 C1174 1.368 . S
C1178 C1177 1.523 . S
H1179 C1154 0.950 . S
H1180 C1156 0.950 . S
H1181 C1157 0.949 . S
H1182 C1159 0.950 . S
H1183 C1161 0.950 . S
C225 C203 1.491 . S
C230 C7 1.491 . S
C255 C34 1.491 . S
C260 C6 1.491 . S
C285 C160 1.491 . S
C290 C20 1.491 . S
C315 C21 1.491 . S
C320 C105 1.491 . S
C345 C35 1.491 . S
C350 C175 1.491 . S
C375 C132 1.491 . S
C380 C48 1.491 . S
C405 C49 1.491 . S
C410 C77 1.491 . S
C435 C147 1.491 . S
C440 C63 1.491 . S
C465 C62 1.491 . S
C470 C90 1.491 . S
C495 C216 1.491 . S
C500 C76 1.491 . S
C525 C119 1.491 . S
C530 C91 1.491 . S
C555 C188 1.491 . S
C560 C104 1.491 . S
C585 C118 1.491 . S
C590 C146 1.491 . S
C615 C217 1.491 . S
C620 C133 1.491 . S
C645 C161 1.491 . S
C650 C189 1.491 . S
C675 C202 1.491 . S
C680 C174 1.491 . S
C705 C79 1.723 . S
C710 C8 1.723 . S
C735 C9 1.723 . S
C740 C78 1.723 . S
C765 C23 1.723 . S
C770 C64 1.723 . S
C795 C65 1.723 . S
C800 C22 1.723 . S
C825 C107 1.723 . S
C830 C36 1.723 . S
C855 C106 1.723 . S
C860 C37 1.723 . S
C885 C92 1.723 . S
C890 C51 1.723 . S
C915 C50 1.723 . S
C920 C93 1.723 . S
C945 C191 1.723 . S
C950 C120 1.723 . S
C975 C121 1.723 . S
C980 C190 1.723 . S
C1005 C135 1.723 . S
C1010 C176 1.723 . S
C1035 C177 1.723 . S
C1040 C134 1.723 . S
C1065 C219 1.723 . S
C1070 C148 1.723 . S
C1095 C218 1.723 . S
C1100 C149 1.723 . S
C1125 C163 1.723 . S
C1130 C204 1.723 . S
C1155 C205 1.723 . S
C1160 C162 1.723 . S
