# Generated by pormake.
# Topology wjy, (5)-cn, num edge types: 1
# Building blocks:
#     Node 0, Type 0, BuildingBlock: XOMCOT_clean_sbu_1, # of connection points: 5
#     Node 1, Type 0, BuildingBlock: XOMCOT_clean_sbu_1, # of connection points: 5
#     Node 2, Type 0, BuildingBlock: XOMCOT_clean_sbu_1, # of connection points: 5
#     Node 3, Type 0, BuildingBlock: XOMCOT_clean_sbu_1, # of connection points: 5
#     Node 4, Type 0, BuildingBlock: XOMCOT_clean_sbu_1, # of connection points: 5
#     Node 5, Type 0, BuildingBlock: XOMCOT_clean_sbu_1, # of connection points: 5
#     Node 6, Type 0, BuildingBlock: XOMCOT_clean_sbu_1, # of connection points: 5
#     Node 7, Type 0, BuildingBlock: XOMCOT_clean_sbu_1, # of connection points: 5
#     Node 8, Type 0, BuildingBlock: XOMCOT_clean_sbu_1, # of connection points: 5
#     Node 9, Type 0, BuildingBlock: XOMCOT_clean_sbu_1, # of connection points: 5
#     Node 10, Type 0, BuildingBlock: XOMCOT_clean_sbu_1, # of connection points: 5
#     Node 11, Type 0, BuildingBlock: XOMCOT_clean_sbu_1, # of connection points: 5
#     Edge 12, Type (0, 0), BuildingBlock: OJICUG_clean_linker_0, # of connection points: 2
#     Edge 13, Type (0, 0), BuildingBlock: OJICUG_clean_linker_0, # of connection points: 2
#     Edge 14, Type (0, 0), BuildingBlock: OJICUG_clean_linker_0, # of connection points: 2
#     Edge 15, Type (0, 0), BuildingBlock: OJICUG_clean_linker_0, # of connection points: 2
#     Edge 16, Type (0, 0), BuildingBlock: OJICUG_clean_linker_0, # of connection points: 2
#     Edge 17, Type (0, 0), BuildingBlock: OJICUG_clean_linker_0, # of connection points: 2
#     Edge 18, Type (0, 0), BuildingBlock: OJICUG_clean_linker_0, # of connection points: 2
#     Edge 19, Type (0, 0), BuildingBlock: OJICUG_clean_linker_0, # of connection points: 2
#     Edge 20, Type (0, 0), BuildingBlock: OJICUG_clean_linker_0, # of connection points: 2
#     Edge 21, Type (0, 0), BuildingBlock: OJICUG_clean_linker_0, # of connection points: 2
#     Edge 22, Type (0, 0), BuildingBlock: OJICUG_clean_linker_0, # of connection points: 2
#     Edge 23, Type (0, 0), BuildingBlock: OJICUG_clean_linker_0, # of connection points: 2
#     Edge 24, Type (0, 0), BuildingBlock: OJICUG_clean_linker_0, # of connection points: 2
#     Edge 25, Type (0, 0), BuildingBlock: OJICUG_clean_linker_0, # of connection points: 2
#     Edge 26, Type (0, 0), BuildingBlock: OJICUG_clean_linker_0, # of connection points: 2
#     Edge 27, Type (0, 0), BuildingBlock: OJICUG_clean_linker_0, # of connection points: 2
#     Edge 28, Type (0, 0), BuildingBlock: OJICUG_clean_linker_0, # of connection points: 2
#     Edge 29, Type (0, 0), BuildingBlock: OJICUG_clean_linker_0, # of connection points: 2
#     Edge 30, Type (0, 0), BuildingBlock: OJICUG_clean_linker_0, # of connection points: 2
#     Edge 31, Type (0, 0), BuildingBlock: OJICUG_clean_linker_0, # of connection points: 2
#     Edge 32, Type (0, 0), BuildingBlock: OJICUG_clean_linker_0, # of connection points: 2
#     Edge 33, Type (0, 0), BuildingBlock: OJICUG_clean_linker_0, # of connection points: 2
#     Edge 34, Type (0, 0), BuildingBlock: OJICUG_clean_linker_0, # of connection points: 2
#     Edge 35, Type (0, 0), BuildingBlock: OJICUG_clean_linker_0, # of connection points: 2
#     Edge 36, Type (0, 0), BuildingBlock: OJICUG_clean_linker_0, # of connection points: 2
#     Edge 37, Type (0, 0), BuildingBlock: OJICUG_clean_linker_0, # of connection points: 2
#     Edge 38, Type (0, 0), BuildingBlock: OJICUG_clean_linker_0, # of connection points: 2
#     Edge 39, Type (0, 0), BuildingBlock: OJICUG_clean_linker_0, # of connection points: 2
#     Edge 40, Type (0, 0), BuildingBlock: OJICUG_clean_linker_0, # of connection points: 2
#     Edge 41, Type (0, 0), BuildingBlock: OJICUG_clean_linker_0, # of connection points: 2
# Relax obj value: 0.190
# Max RMSD: 0.170
# Mean RMSD: 0.170
data_MOF--net-wjy--node1-XOMCOT_clean_sbu_1--edge1-OJICUG_clean_linker_0
_symmetry_space_group_name_H-M    P1
_symmetry_Int_Tables_number       1
_symmetry_cell_setting            triclinic
loop_
_symmetry_equiv_pos_as_xyz
'x, y, z'
_cell_length_a     53.057575
_cell_length_b     52.748847
_cell_length_c     13.525697
_cell_angle_alpha  90.228621
_cell_angle_beta   89.958923
_cell_angle_gamma 119.81219
loop_
_atom_site_label
_atom_site_type_symbol
_atom_site_fract_x
_atom_site_fract_y
_atom_site_fract_z
_atom_type_partial_charge
C0 C 0.44486 0.08637 0.21365 0.0
C1 C 0.44363 0.08447 0.31495 0.0
N2 N 0.44194 0.10741 0.35132 0.0
N3 N 0.44378 0.11028 0.18571 0.0
C4 C 0.44189 0.12262 0.27111 0.0
H5 H 0.44786 0.07202 0.16384 0.0
Co6 Co 0.44943 0.12392 0.05658 0.0
C7 C 0.42724 0.1653 0.05607 0.0
O8 O 0.40984 0.15055 0.98259 0.0
N9 N 0.45578 0.13781 0.92556 0.0
C10 C 0.47402 0.16748 0.79637 0.0
C11 C 0.47382 0.16567 0.89776 0.0
C12 C 0.44523 0.12318 0.83947 0.0
N13 N 0.45602 0.14064 0.75953 0.0
O14 O 0.40857 0.09774 0.03166 0.0
H15 H 0.48642 0.18356 0.94814 0.0
H16 H 0.42992 0.10013 0.83485 0.0
O17 O 0.44326 0.15623 0.09492 0.0
C18 C 0.40581 0.07344 1.00201 0.0
O19 O 0.42944 0.07202 0.98464 0.0
N20 N 0.4892 0.14586 0.08288 0.0
C21 C 0.54342 0.16003 0.15838 0.0
C22 C 0.52978 0.17574 0.18841 0.0
C23 C 0.50233 0.16812 0.15004 0.0
C24 C 0.50329 0.13213 0.0472 0.0
C25 C 0.53041 0.13881 0.08418 0.0
H26 H 0.49082 0.1784 0.18051 0.0
H27 H 0.49223 0.11407 0.99602 0.0
H28 H 0.44159 0.14294 0.27456 0.0
H29 H 0.44555 0.06831 0.35829 0.0
H30 H 0.48713 0.18697 0.75348 0.0
H31 H 0.53911 0.19202 0.24656 0.0
H32 H 0.5403 0.12619 0.05965 0.0
C33 C 0.37779 0.44677 0.41272 0.0
C34 C 0.37858 0.44532 0.51401 0.0
N35 N 0.35263 0.43977 0.55007 0.0
N36 N 0.35146 0.44204 0.38454 0.0
C37 C 0.33652 0.43767 0.4697 0.0
H38 H 0.39574 0.4523 0.363 0.0
Co39 Co 0.34208 0.44603 0.25508 0.0
C40 C 0.2791 0.42521 0.26547 0.0
O41 O 0.27424 0.40584 0.19591 0.0
N42 N 0.33315 0.45057 0.12406 0.0
C43 C 0.32003 0.46685 0.99358 0.0
C44 C 0.32178 0.46724 0.09496 0.0
C45 C 0.33826 0.44042 0.03877 0.0
N46 N 0.33047 0.44998 0.95801 0.0
O47 O 0.32612 0.40451 0.23665 0.0
H48 H 0.3158 0.47954 0.1444 0.0
H49 H 0.3478 0.42653 0.03553 0.0
O50 O 0.30495 0.44161 0.29718 0.0
C51 C 0.34721 0.40083 0.21045 0.0
O52 O 0.37254 0.42407 0.19344 0.0
N53 N 0.36081 0.48647 0.27442 0.0
C54 C 0.40267 0.54205 0.33712 0.0
C55 C 0.37482 0.52827 0.37916 0.0
C56 C 0.3541 0.50022 0.347 0.0
C57 C 0.38683 0.50061 0.22701 0.0
C58 C 0.40805 0.52849 0.25688 0.0
H59 H 0.33388 0.48868 0.38681 0.0
H60 H 0.39207 0.48916 0.17145 0.0
H61 H 0.3146 0.43399 0.47299 0.0
H62 H 0.3974 0.44968 0.55768 0.0
H63 H 0.31266 0.47902 0.94967 0.0
H64 H 0.36994 0.53789 0.44199 0.0
H65 H 0.42923 0.53848 0.2221 0.0
C66 C 0.93968 0.37519 0.59043 0.0
C67 C 0.94498 0.37649 0.69004 0.0
N68 N 0.93744 0.34946 0.72132 0.0
N69 N 0.92819 0.34735 0.55837 0.0
C70 C 0.92827 0.33239 0.63935 0.0
H71 H 0.94321 0.39339 0.54453 0.0
Co72 Co 0.91728 0.33748 0.4254 0.0
C73 C 0.86796 0.27907 0.51795 0.0
O74 O 0.87045 0.28627 0.61181 0.0
N75 N 0.90727 0.32877 0.29107 0.0
C76 C 0.88052 0.31373 0.15407 0.0
C77 C 0.87999 0.31656 0.25487 0.0
C78 C 0.92413 0.33379 0.21005 0.0
N79 N 0.90832 0.32461 0.12583 0.0
O80 O 0.94452 0.32358 0.41649 0.0
H81 H 0.86088 0.31081 0.2989 0.0
H82 H 0.94755 0.34425 0.21201 0.0
O83 O 0.88474 0.29771 0.45406 0.0
C84 C 0.96908 0.34588 0.39728 0.0
O85 O 0.97008 0.37088 0.3804 0.0
N86 N 0.89327 0.35429 0.43534 0.0
C87 C 0.87822 0.39588 0.49188 0.0
C88 C 0.8646 0.36813 0.53547 0.0
C89 C 0.87257 0.34755 0.50632 0.0
C90 C 0.90425 0.37993 0.38492 0.0
C91 C 0.89702 0.40106 0.41203 0.0
H92 H 0.86441 0.32775 0.54827 0.0
H93 H 0.92116 0.38536 0.33067 0.0
H94 H 0.92189 0.30949 0.63872 0.0
H95 H 0.9522 0.39557 0.73684 0.0
H96 H 0.862 0.30552 0.10485 0.0
H97 H 0.85015 0.36341 0.59788 0.0
H98 H 0.90788 0.42218 0.37619 0.0
C99 C 0.61866 0.949 0.73346 0.0
C100 C 0.62195 0.94957 0.83437 0.0
N101 N 0.61189 0.922 0.86583 0.0
N102 N 0.60702 0.92128 0.70059 0.0
C103 C 0.60303 0.90525 0.78308 0.0
H104 H 0.62277 0.96741 0.68774 0.0
Co105 Co 0.59452 0.90998 0.57061 0.0
C106 C 0.58892 0.85143 0.54084 0.0
O107 O 0.56632 0.84415 0.48378 0.0
N108 N 0.5816 0.89919 0.43642 0.0
C109 C 0.55435 0.88505 0.29972 0.0
C110 C 0.55425 0.88801 0.40054 0.0
C111 C 0.59783 0.90275 0.35437 0.0
N112 N 0.58179 0.89454 0.27041 0.0
O113 O 0.63403 0.93561 0.52674 0.0
H114 H 0.5351 0.88247 0.4436 0.0
H115 H 0.62112 0.9117 0.35555 0.0
O116 O 0.60166 0.87663 0.58268 0.0
C117 C 0.63624 0.95862 0.48747 0.0
O118 O 0.61237 0.95976 0.47192 0.0
N119 N 0.55636 0.88923 0.61825 0.0
C120 C 0.50493 0.87581 0.71652 0.0
C121 C 0.515 0.85568 0.7144 0.0
C122 C 0.54118 0.86299 0.66549 0.0
C123 C 0.54628 0.90845 0.61764 0.0
C124 C 0.52058 0.90208 0.66493 0.0
H125 H 0.54986 0.84841 0.67132 0.0
H126 H 0.55901 0.92946 0.58248 0.0
H127 H 0.59263 0.88166 0.78308 0.0
H128 H 0.62915 0.96855 0.88166 0.0
H129 H 0.53577 0.87778 0.25118 0.0
H130 H 0.5037 0.83535 0.75477 0.0
H131 H 0.51351 0.91814 0.66392 0.0
C132 C 0.66621 0.58348 0.86097 0.0
C133 C 0.66615 0.58652 0.96182 0.0
N134 N 0.69282 0.59416 0.99655 0.0
N135 N 0.69275 0.58913 0.83163 0.0
C136 C 0.70872 0.59616 0.91554 0.0
H137 H 0.64762 0.57599 0.81256 0.0
Co138 Co 0.70061 0.58333 0.70169 0.0
C139 C 0.75433 0.57888 0.75631 0.0
O140 O 0.74002 0.55057 0.76972 0.0
N141 N 0.70869 0.57811 0.56899 0.0
C142 C 0.72266 0.56319 0.43623 0.0
C143 C 0.7202 0.56172 0.53744 0.0
C144 C 0.70435 0.58929 0.4849 0.0
N145 N 0.71267 0.58059 0.40296 0.0
O146 O 0.71439 0.62427 0.67853 0.0
H147 H 0.72573 0.54873 0.58448 0.0
H148 H 0.69526 0.60356 0.48316 0.0
O149 O 0.74089 0.59261 0.73357 0.0
C150 C 0.69289 0.62735 0.65312 0.0
O151 O 0.66764 0.60377 0.63777 0.0
N152 N 0.68267 0.54211 0.72636 0.0
C153 C 0.63961 0.48508 0.77745 0.0
C154 C 0.6624 0.5022 0.84269 0.0
C155 C 0.6834 0.53062 0.81635 0.0
C156 C 0.6613 0.5251 0.66043 0.0
C157 C 0.64007 0.49651 0.68352 0.0
H158 H 0.69902 0.54389 0.8719 0.0
H159 H 0.659 0.53431 0.59215 0.0
H160 H 0.73102 0.60091 0.91779 0.0
H161 H 0.6473 0.58142 1.00653 0.0
H162 H 0.73032 0.55149 0.39075 0.0
H163 H 0.66277 0.49475 0.91687 0.0
H164 H 0.62303 0.48418 0.63021 0.0
C165 C 0.09413 0.6749 0.01382 0.0
C166 C 0.0928 0.67715 0.11485 0.0
N167 N 0.11932 0.69722 0.14783 0.0
N168 N 0.12127 0.69361 0.98271 0.0
C169 C 0.1361 0.70705 0.06601 0.0
H170 H 0.07673 0.65956 0.96656 0.0
Co171 Co 0.13409 0.69513 0.8532 0.0
C172 C 0.19347 0.74703 0.84759 0.0
O173 O 0.20233 0.73166 0.79701 0.0
N174 N 0.14668 0.69606 0.71837 0.0
C175 C 0.16501 0.68769 0.58115 0.0
C176 C 0.1626 0.68449 0.68179 0.0
C177 C 0.13991 0.70633 0.63638 0.0
N178 N 0.1505 0.7012 0.55228 0.0
O179 O 0.1093 0.71047 0.81352 0.0
H180 H 0.17219 0.6742 0.72446 0.0
H181 H 0.12706 0.71704 0.63723 0.0
O182 O 0.16704 0.73496 0.87683 0.0
C183 C 0.08608 0.68985 0.7752 0.0
O184 O 0.08477 0.66471 0.75753 0.0
N185 N 0.15397 0.67602 0.89647 0.0
C186 C 0.16417 0.63435 0.98691 0.0
C187 C 0.18205 0.66429 1.00781 0.0
C188 C 0.1765 0.68493 0.96186 0.0
C189 C 0.13726 0.64721 0.87309 0.0
C190 C 0.14247 0.62624 0.91491 0.0
H191 H 0.18887 0.7075 0.98469 0.0
H192 H 0.11889 0.64035 0.82401 0.0
H193 H 0.15903 0.72294 0.06727 0.0
H194 H 0.07424 0.66365 0.161 0.0
H195 H 0.17554 0.67947 0.53246 0.0
H196 H 0.19879 0.67152 0.06392 0.0
H197 H 0.12846 0.60356 0.89463 0.0
C198 C 0.93999 0.57648 0.58925 0.0
C199 C 0.94542 0.58062 0.4898 0.0
N200 N 0.93811 0.60029 0.45874 0.0
N201 N 0.92864 0.59293 0.62147 0.0
C202 C 0.92897 0.60819 0.54074 0.0
H203 H 0.94335 0.56165 0.6349 0.0
Co204 Co 0.91765 0.59164 0.75455 0.0
C205 C 0.86829 0.60069 0.66127 0.0
O206 O 0.87142 0.59665 0.56737 0.0
N207 N 0.90765 0.59009 0.88891 0.0
C208 C 0.88103 0.57802 0.02602 0.0
C209 C 0.88045 0.57458 0.92524 0.0
C210 C 0.92453 0.60227 0.96984 0.0
N211 N 0.90879 0.59544 0.05412 0.0
O212 O 0.94497 0.63283 0.76505 0.0
H213 H 0.86141 0.56077 0.88138 0.0
H214 H 0.94791 0.61561 0.96778 0.0
O215 O 0.88486 0.59869 0.72601 0.0
C216 C 0.96946 0.63472 0.78307 0.0
O217 O 0.97028 0.61049 0.79675 0.0
N218 N 0.89369 0.55082 0.74351 0.0
C219 C 0.87847 0.49414 0.68654 0.0
C220 C 0.86497 0.50837 0.64279 0.0
C221 C 0.87302 0.53694 0.67214 0.0
C222 C 0.90459 0.53607 0.79396 0.0
C223 C 0.89727 0.50769 0.76665 0.0
H224 H 0.86495 0.54866 0.63013 0.0
H225 H 0.92147 0.54746 0.84852 0.0
H226 H 0.92276 0.62484 0.54151 0.0
H227 H 0.95253 0.56871 0.44289 0.0
H228 H 0.86261 0.56742 0.07536 0.0
H229 H 0.85053 0.49871 0.58016 0.0
H230 H 0.90804 0.49734 0.80261 0.0
C231 C 0.38188 0.93949 0.8252 0.0
C232 C 0.38281 0.94182 0.72382 0.0
N233 N 0.3563 0.92285 0.6874 0.0
N234 N 0.35493 0.91919 0.85299 0.0
C235 C 0.33975 0.90967 0.76763 0.0
H236 H 0.40002 0.95089 0.8753 0.0
Co237 Co 0.34447 0.90585 0.98225 0.0
C238 C 0.28135 0.86443 0.96302 0.0
O239 O 0.27583 0.87919 0.02972 0.0
N240 N 0.33429 0.8925 0.11316 0.0
C241 C 0.31957 0.86323 0.244 0.0
C242 C 0.32128 0.86437 0.14257 0.0
C243 C 0.34044 0.90802 0.19836 0.0
N244 N 0.33172 0.89075 0.27932 0.0
O245 O 0.32887 0.93183 0.99689 0.0
H246 H 0.31435 0.84584 0.09343 0.0
H247 H 0.35156 0.93156 0.20144 0.0
O248 O 0.30757 0.87338 0.93672 0.0
C249 C 0.34964 0.95654 0.02548 0.0
O250 O 0.37492 0.95875 0.04493 0.0
N251 N 0.36284 0.88347 0.96704 0.0
C252 C 0.40506 0.86877 0.91627 0.0
C253 C 0.37917 0.85779 0.86146 0.0
C254 C 0.35817 0.86527 0.88853 0.0
C255 C 0.38656 0.89218 0.02598 0.0
C256 C 0.40759 0.88457 1.00319 0.0
H257 H 0.33965 0.8588 0.84068 0.0
H258 H 0.39037 0.90705 0.08678 0.0
H259 H 0.31723 0.89269 0.7641 0.0
H260 H 0.402 0.95531 0.68032 0.0
H261 H 0.31116 0.84362 0.28814 0.0
H262 H 0.37616 0.84567 0.79356 0.0
H263 H 0.42669 0.89286 0.04969 0.0
C264 C 0.41961 0.3472 0.94522 0.0
C265 C 0.41673 0.3445 0.84418 0.0
N266 N 0.42985 0.32977 0.8119 0.0
N267 N 0.43405 0.33383 0.97751 0.0
C268 C 0.4401 0.32346 0.89437 0.0
H269 H 0.4134 0.35995 0.99126 0.0
Co270 Co 0.44742 0.33661 0.10735 0.0
C271 C 0.45322 0.28387 0.14315 0.0
O272 O 0.47498 0.29921 0.20361 0.0
N273 N 0.46114 0.34036 0.24056 0.0
C274 C 0.48863 0.35619 0.37636 0.0
C275 C 0.48819 0.35864 0.27537 0.0
C276 C 0.4456 0.32712 0.3231 0.0
N277 N 0.46177 0.3365 0.40662 0.0
O278 O 0.40806 0.32245 0.1544 0.0
H279 H 0.5066 0.37349 0.2314 0.0
H280 H 0.42266 0.3112 0.32241 0.0
O281 O 0.441 0.29627 0.09803 0.0
C282 C 0.40601 0.34348 0.19326 0.0
O283 O 0.42974 0.36898 0.20297 0.0
N284 N 0.4854 0.35419 0.05753 0.0
C285 C 0.53709 0.3916 0.95981 0.0
C286 C 0.5284 0.3619 0.97181 0.0
C287 C 0.50206 0.34328 0.0201 0.0
C288 C 0.49409 0.38308 0.04837 0.0
C289 C 0.51977 0.40211 1.00048 0.0
H290 H 0.49466 0.32021 0.02253 0.0
H291 H 0.48034 0.3912 0.07657 0.0
H292 H 0.453 0.31276 0.89377 0.0
H293 H 0.40768 0.3546 0.79741 0.0
H294 H 0.50702 0.36905 0.42431 0.0
H295 H 0.5411 0.35296 0.94027 0.0
H296 H 0.52578 0.42489 0.99378 0.0
C297 C 0.09361 0.43122 0.19338 0.0
C298 C 0.09231 0.42759 0.09237 0.0
N299 N 0.11883 0.43402 0.05978 0.0
N300 N 0.12073 0.43963 0.22487 0.0
C301 C 0.13559 0.44101 0.14182 0.0
H302 H 0.07621 0.42917 0.24042 0.0
Co303 Co 0.13338 0.45088 0.35457 0.0
C304 C 0.19243 0.45779 0.36353 0.0
O305 O 0.20139 0.48209 0.41387 0.0
N306 N 0.14581 0.4625 0.48963 0.0
C307 C 0.16396 0.48918 0.62713 0.0
C308 C 0.16146 0.49001 0.52652 0.0
C309 C 0.1393 0.44543 0.57138 0.0
N310 N 0.14978 0.46114 0.65565 0.0
O311 O 0.10854 0.41076 0.39349 0.0
H312 H 0.17084 0.50991 0.48413 0.0
H313 H 0.12671 0.42185 0.57021 0.0
O314 O 0.16616 0.44377 0.33241 0.0
C315 C 0.0853 0.40769 0.43285 0.0
O316 O 0.08389 0.43129 0.45396 0.0
N317 N 0.15343 0.48983 0.31157 0.0
C318 C 0.16386 0.54163 0.2202 0.0
C319 C 0.18187 0.52963 0.20095 0.0
C320 C 0.1762 0.50347 0.24733 0.0
C321 C 0.13657 0.50186 0.33337 0.0
C322 C 0.14188 0.528 0.29106 0.0
H323 H 0.18868 0.49329 0.2257 0.0
H324 H 0.11801 0.4903 0.38149 0.0
H325 H 0.15853 0.44807 0.14091 0.0
H326 H 0.07376 0.4225 0.04594 0.0
H327 H 0.17433 0.50792 0.67606 0.0
H328 H 0.19883 0.53918 0.14573 0.0
H329 H 0.12773 0.53662 0.31001 0.0
C330 C 0.67022 0.09162 0.28708 0.0
C331 C 0.67077 0.08861 0.18642 0.0
N332 N 0.69703 0.109 0.15293 0.0
N333 N 0.69602 0.11371 0.31761 0.0
C334 C 0.71212 0.12367 0.23443 0.0
H335 H 0.65164 0.07949 0.33453 0.0
Co336 Co 0.70233 0.1271 0.44782 0.0
C337 C 0.7558 0.1864 0.40975 0.0
O338 O 0.74119 0.20038 0.40669 0.0
N339 N 0.70864 0.14023 0.5815 0.0
C340 C 0.71832 0.16838 0.71546 0.0
C341 C 0.71541 0.16712 0.61446 0.0
C342 C 0.70762 0.12561 0.66496 0.0
N343 N 0.7134 0.14219 0.74741 0.0
O344 O 0.7165 0.10043 0.47427 0.0
H345 H 0.71717 0.18464 0.56887 0.0
H346 H 0.70279 0.1032 0.6661 0.0
O347 O 0.74266 0.15861 0.42103 0.0
C348 C 0.69488 0.07576 0.49783 0.0
O349 O 0.66969 0.07416 0.51331 0.0
N350 N 0.68412 0.14952 0.41828 0.0
C351 C 0.64136 0.16222 0.3543 0.0
C352 C 0.66666 0.17104 0.29883 0.0
C353 C 0.68747 0.16398 0.33103 0.0
C354 C 0.6601 0.14193 0.47489 0.0
C355 C 0.63871 0.14836 0.44503 0.0
H356 H 0.70526 0.16848 0.28203 0.0
H357 H 0.65619 0.12864 0.53997 0.0
H358 H 0.73382 0.14237 0.23298 0.0
H359 H 0.65249 0.07393 0.14081 0.0
H360 H 0.72262 0.18686 0.76189 0.0
H361 H 0.66925 0.18112 0.22713 0.0
H362 H 0.61937 0.1409 0.48975 0.0
C363 C 0.5944 0.66129 0.47361 0.0
C364 C 0.59571 0.66049 0.37226 0.0
N365 N 0.60028 0.68628 0.33657 0.0
N366 N 0.59825 0.68746 0.50218 0.0
C367 C 0.60195 0.7023 0.41719 0.0
H368 H 0.58952 0.64338 0.52309 0.0
Co369 Co 0.59391 0.69655 0.63177 0.0
C370 C 0.61666 0.76029 0.62792 0.0
O371 O 0.63486 0.76365 0.6993 0.0
N372 N 0.58895 0.70522 0.76319 0.0
C373 C 0.57233 0.71822 0.89363 0.0
C374 C 0.57218 0.71649 0.79221 0.0
C375 C 0.59902 0.70028 0.84859 0.0
N376 N 0.58922 0.70793 0.92928 0.0
O377 O 0.63483 0.71091 0.65245 0.0
H378 H 0.56005 0.72252 0.74265 0.0
H379 H 0.61314 0.69108 0.85213 0.0
O380 O 0.60009 0.73481 0.59211 0.0
C381 C 0.63736 0.68917 0.68044 0.0
O382 O 0.6136 0.66433 0.69855 0.0
N383 N 0.55394 0.67908 0.60978 0.0
C384 C 0.49909 0.63825 0.54041 0.0
C385 C 0.51332 0.66679 0.5028 0.0
C386 C 0.54103 0.68701 0.53833 0.0
C387 C 0.53928 0.65237 0.65317 0.0
C388 C 0.51177 0.63162 0.6198 0.0
H389 H 0.55299 0.70786 0.50192 0.0
H390 H 0.55011 0.64621 0.70783 0.0
H391 H 0.60478 0.72404 0.41425 0.0
H392 H 0.59192 0.64173 0.32835 0.0
H393 H 0.56007 0.72553 0.93745 0.0
H394 H 0.50431 0.67259 0.4408 0.0
H395 H 0.5014 0.60986 0.65099 0.0
C396 C 0.42499 0.23642 0.04836 0.0
C397 C 0.44456 0.25275 0.12417 0.0
H398 H 0.404 0.19598 0.96763 0.0
C399 C 0.45675 0.23926 0.1813 0.0
H400 H 0.41515 0.24607 1.00308 0.0
C401 C 0.45031 0.21061 0.16144 0.0
C402 C 0.43153 0.19457 0.0836 0.0
H403 H 0.47169 0.25098 0.24105 0.0
H404 H 0.4605 0.20126 0.20625 0.0
C405 C 0.41856 0.20766 0.02827 0.0
C406 C 0.2404 0.46067 0.39087 0.0
C407 C 0.21344 0.44761 0.34182 0.0
H408 H 0.28172 0.46342 0.4074 0.0
C409 C 0.2074 0.42553 0.27175 0.0
H410 H 0.24572 0.47748 0.44623 0.0
C411 C 0.22833 0.4175 0.24899 0.0
C412 C 0.25566 0.43127 0.29618 0.0
H413 H 0.18683 0.41498 0.23283 0.0
H414 H 0.22334 0.40101 0.19267 0.0
C415 C 0.26114 0.45255 0.36868 0.0
C416 C 0.79701 0.20702 0.5278 0.0
C417 C 0.78715 0.20422 0.42996 0.0
H418 H 0.83028 0.23299 0.63258 0.0
C419 C 0.80579 0.22371 0.35847 0.0
H420 H 0.78277 0.19254 0.58461 0.0
C421 C 0.8333 0.24659 0.38539 0.0
C422 C 0.84211 0.25126 0.48513 0.0
H423 H 0.79848 0.22215 0.28276 0.0
H424 H 0.84681 0.26152 0.3288 0.0
C425 C 0.82412 0.23042 0.5553 0.0
C426 C 0.59235 0.78134 0.52432 0.0
C427 C 0.61199 0.78494 0.6 0.0
H428 H 0.56987 0.79929 0.44654 0.0
C429 C 0.62539 0.81152 0.65307 0.0
H430 H 0.58179 0.76137 0.48125 0.0
C431 C 0.61853 0.83352 0.633 0.0
C432 C 0.59808 0.82938 0.55954 0.0
H433 H 0.64062 0.81507 0.71202 0.0
H434 H 0.62871 0.85342 0.67659 0.0
C435 C 0.58547 0.80319 0.50452 0.0
C436 C 0.79755 0.60219 0.64617 0.0
C437 C 0.78596 0.59247 0.74081 0.0
H438 H 0.83266 0.61219 0.54645 0.0
C439 C 0.80338 0.58972 0.81311 0.0
H440 H 0.78438 0.60407 0.58865 0.0
C441 C 0.83134 0.59506 0.78978 0.0
C442 C 0.84191 0.60187 0.69242 0.0
H443 H 0.79482 0.58204 0.88646 0.0
H444 H 0.84382 0.59208 0.84673 0.0
C445 C 0.82513 0.60656 0.6219 0.0
C446 C 0.26398 0.81946 0.85819 0.0
C447 C 0.25787 0.83539 0.92823 0.0
H448 H 0.24867 0.7795 0.77814 0.0
C449 C 0.22968 0.82248 0.96858 0.0
H450 H 0.2853 0.82866 0.82496 0.0
C451 C 0.20842 0.794 0.94146 0.0
C452 C 0.21494 0.77781 0.87358 0.0
H453 H 0.22419 0.8341 0.02284 0.0
H454 H 0.18714 0.78445 0.97523 0.0
C455 C 0.24287 0.79111 0.83142 0.0
C456 C 0.4397 0.10267 0.62844 0.0
C457 C 0.4508 0.13204 0.65655 0.0
H458 H 0.42749 0.07176 0.51042 0.0
C459 C 0.45746 0.15295 0.58192 0.0
H460 H 0.43446 0.08583 0.68291 0.0
C461 C 0.45396 0.14486 0.48211 0.0
C462 C 0.44354 0.11559 0.45418 0.0
H463 H 0.46562 0.17569 0.60024 0.0
H464 H 0.46022 0.16177 0.42713 0.0
C465 C 0.43601 0.09456 0.5288 0.0
C466 C 0.36048 0.43462 0.72764 0.0
C467 C 0.3453 0.43995 0.65291 0.0
H468 H 0.36807 0.4339 0.88227 0.0
C469 C 0.32395 0.44699 0.68075 0.0
H470 H 0.37675 0.42871 0.7092 0.0
C471 C 0.3186 0.44951 0.78052 0.0
C472 C 0.33452 0.44521 0.85526 0.0
H473 H 0.31192 0.45146 0.62573 0.0
H474 H 0.30214 0.45514 0.79882 0.0
C475 C 0.35522 0.43727 0.8274 0.0
C476 C 0.90905 0.31407 0.85187 0.0
C477 C 0.9335 0.3404 0.82333 0.0
H478 H 0.88187 0.28843 0.97124 0.0
C479 C 0.95158 0.35969 0.89736 0.0
H480 H 0.89461 0.29882 0.79691 0.0
C481 C 0.9443 0.3537 0.99739 0.0
C482 C 0.91859 0.32846 0.02527 0.0
H483 H 0.97069 0.38004 0.87755 0.0
H484 H 0.95783 0.36967 0.05233 0.0
C485 C 0.90157 0.30826 0.95169 0.0
C486 C 0.58128 0.8868 0.99428 0.0
C487 C 0.60662 0.91261 0.96761 0.0
H488 H 0.55363 0.86074 0.11222 0.0
C489 C 0.62523 0.93069 0.04297 0.0
H490 H 0.56636 0.87255 0.9382 0.0
C491 C 0.61798 0.92388 0.14271 0.0
C492 C 0.59175 0.89901 0.16923 0.0
H493 H 0.645 0.95061 0.02459 0.0
H494 H 0.6321 0.93893 0.19881 0.0
C495 C 0.57386 0.88018 0.09395 0.0
C496 C 0.68495 0.59915 0.17424 0.0
C497 C 0.70041 0.59424 0.09918 0.0
H498 H 0.67629 0.59833 0.32862 0.0
C499 C 0.72157 0.58693 0.12652 0.0
H500 H 0.66881 0.60523 0.15605 0.0
C501 C 0.72618 0.58333 0.22607 0.0
C502 C 0.70971 0.58686 0.30094 0.0
H503 H 0.7338 0.58279 0.07108 0.0
H504 H 0.74237 0.57731 0.24401 0.0
C505 C 0.68948 0.59544 0.2737 0.0
C506 C 0.15663 0.70845 0.27642 0.0
C507 C 0.12861 0.70258 0.24986 0.0
H508 H 0.18561 0.71291 0.39396 0.0
C509 C 0.109 0.69943 0.32535 0.0
H510 H 0.1722 0.71076 0.22042 0.0
C511 C 0.11673 0.70069 0.42502 0.0
C512 C 0.14415 0.70482 0.45128 0.0
H513 H 0.08736 0.69517 0.30721 0.0
H514 H 0.10071 0.69687 0.48127 0.0
C515 C 0.16424 0.70944 0.3759 0.0
C516 C 0.945 0.60294 0.18281 0.0
C517 C 0.91914 0.60214 0.15465 0.0
H518 H 0.97154 0.60333 0.303 0.0
C519 C 0.90203 0.60519 0.228 0.0
H520 H 0.9586 0.60061 0.12802 0.0
C521 C 0.90957 0.60705 0.32789 0.0
C522 C 0.93417 0.60545 0.35673 0.0
H523 H 0.88219 0.60505 0.2082 0.0
H524 H 0.89506 0.60772 0.38269 0.0
C525 C 0.95234 0.60439 0.28291 0.0
C526 C 0.32569 0.88794 0.55673 0.0
C527 C 0.3486 0.9156 0.58447 0.0
H528 H 0.30206 0.85859 0.43884 0.0
C529 C 0.3648 0.93552 0.50954 0.0
H530 H 0.31282 0.87186 0.61182 0.0
C531 C 0.35891 0.92768 0.40975 0.0
C532 C 0.33657 0.89969 0.38206 0.0
H533 H 0.38232 0.95715 0.52784 0.0
H534 H 0.3725 0.94335 0.3547 0.0
C535 C 0.31974 0.88014 0.457 0.0
C536 C 0.42441 0.32561 0.53479 0.0
C537 C 0.45207 0.33048 0.50807 0.0
H538 H 0.39563 0.3214 0.65298 0.0
C539 C 0.47113 0.33208 0.58331 0.0
H540 H 0.40931 0.3245 0.47886 0.0
C541 C 0.46326 0.3302 0.68304 0.0
C542 C 0.43624 0.32701 0.70987 0.0
H543 H 0.49249 0.33557 0.56502 0.0
H544 H 0.47893 0.3328 0.73912 0.0
C545 C 0.41667 0.32406 0.63453 0.0
C546 C 0.16366 0.46668 0.832 0.0
C547 C 0.14356 0.45112 0.75654 0.0
H548 H 0.17166 0.47341 0.98753 0.0
C549 C 0.1162 0.42775 0.78265 0.0
H550 H 0.18498 0.48464 0.81402 0.0
C551 C 0.10851 0.42131 0.88229 0.0
C552 C 0.12812 0.43788 0.95786 0.0
H553 H 0.10017 0.4155 0.7263 0.0
H554 H 0.08691 0.40389 0.90032 0.0
C555 C 0.15609 0.46007 0.93145 0.0
C556 C 0.69473 0.10382 0.87614 0.0
C557 C 0.71208 0.13327 0.84904 0.0
H558 H 0.67687 0.07296 0.99408 0.0
C559 C 0.72683 0.15413 0.9238 0.0
H560 H 0.68297 0.08713 0.82102 0.0
C561 C 0.72308 0.146 0.02337 0.0
C562 C 0.7045 0.11679 0.05061 0.0
H563 H 0.74081 0.17691 0.90562 0.0
H564 H 0.7337 0.16286 0.07894 0.0
C565 C 0.69101 0.0957 0.97564 0.0
C566 C 0.6055 0.67857 0.15878 0.0
C567 C 0.59969 0.69345 0.23392 0.0
H568 H 0.60638 0.67103 1.00417 0.0
C569 C 0.59186 0.71433 0.2067 0.0
H570 H 0.612 0.66268 0.17671 0.0
C571 C 0.58912 0.71955 0.1071 0.0
C572 C 0.59397 0.70395 0.03195 0.0
H573 H 0.58699 0.7261 0.26209 0.0
H574 H 0.58292 0.73567 0.08928 0.0
C575 C 0.6026 0.68367 0.05925 0.0
C576 C 0.59562 0.18781 0.21487 0.0
C577 C 0.56845 0.16213 0.2137 0.0
H578 H 0.64038 0.20804 0.26015 0.0
C579 C 0.56513 0.13737 0.26353 0.0
H580 H 0.59861 0.20715 0.17682 0.0
C581 C 0.5886 0.13796 0.31199 0.0
C582 C 0.61612 0.16325 0.31093 0.0
H583 H 0.54432 0.11735 0.26392 0.0
H584 H 0.58541 0.11818 0.34733 0.0
C585 C 0.61941 0.18827 0.26223 0.0
C586 C 0.4255 0.59238 0.41527 0.0
C587 C 0.42725 0.56765 0.3862 0.0
H588 H 0.44725 0.63466 0.48596 0.0
C589 C 0.45257 0.56659 0.40831 0.0
H590 H 0.40618 0.59369 0.39935 0.0
C591 C 0.47554 0.5895 0.45862 0.0
C592 C 0.47397 0.61426 0.48775 0.0
H593 H 0.45443 0.54767 0.38835 0.0
H594 H 0.49474 0.58793 0.47426 0.0
C595 C 0.4489 0.61574 0.46456 0.0
C596 C 0.85089 0.41946 0.5652 0.0
C597 C 0.87723 0.42074 0.53999 0.0
H598 H 0.83047 0.44204 0.63052 0.0
C599 C 0.90348 0.44586 0.565 0.0
H600 H 0.83036 0.40026 0.54717 0.0
C601 C 0.90354 0.4692 0.61387 0.0
C602 C 0.87735 0.46822 0.63844 0.0
H603 H 0.92412 0.44731 0.54799 0.0
H604 H 0.92422 0.48831 0.63122 0.0
C605 C 0.85095 0.44325 0.61282 0.0
C606 C 0.45869 0.89267 0.88652 0.0
C607 C 0.4309 0.86799 0.87556 0.0
H608 H 0.50355 0.91397 0.84721 0.0
C609 C 0.42817 0.84433 0.81828 0.0
H610 H 0.46188 0.91164 0.92799 0.0
C611 C 0.45245 0.84596 0.7701 0.0
C612 C 0.47977 0.87136 0.77776 0.0
H613 H 0.40721 0.82486 0.8088 0.0
H614 H 0.44961 0.82798 0.7235 0.0
C615 C 0.4827 0.89424 0.83888 0.0
C616 C 0.59082 0.41595 0.92417 0.0
C617 C 0.5632 0.41194 0.90196 0.0
H618 H 0.63685 0.44209 0.90137 0.0
C619 C 0.56084 0.42987 0.8304 0.0
H620 H 0.59324 0.40244 0.97914 0.0
C621 C 0.58555 0.45249 0.78649 0.0
C622 C 0.61346 0.45787 0.81264 0.0
H623 H 0.53979 0.4271 0.81119 0.0
H624 H 0.58271 0.46679 0.73615 0.0
C625 C 0.61575 0.43881 0.88021 0.0
C626 C 0.19153 0.5905 0.13205 0.0
C627 C 0.16512 0.56587 0.15984 0.0
H628 H 0.21217 0.63174 0.05578 0.0
C629 C 0.139 0.56419 0.12946 0.0
H630 H 0.21203 0.59248 0.15431 0.0
C631 C 0.13907 0.58651 0.07496 0.0
C632 C 0.16527 0.61117 0.0467 0.0
H633 H 0.11821 0.54538 0.1473 0.0
H634 H 0.11831 0.58443 0.05566 0.0
C635 C 0.1916 0.61306 0.0764 0.0
C636 C 0.36901 0.02821 0.91967 0.0
C637 C 0.37826 0.04549 1.00577 0.0
H638 H 0.3506 0.98499 0.85891 0.0
C639 C 0.36905 0.03176 0.0979 0.0
H640 H 0.37649 0.03825 0.8479 0.0
C641 C 0.35476 1.0012 0.1043 0.0
C642 C 0.34887 0.98401 0.01857 0.0
H643 H 0.37658 0.04451 0.16544 0.0
H644 H 0.35161 0.99127 0.17657 0.0
C645 C 0.35414 0.99765 0.926 0.0
C646 C 0.3742 0.35334 0.30026 0.0
C647 C 0.37811 0.34267 0.20963 0.0
H648 H 0.35896 0.37935 0.37253 0.0
C649 C 0.3622 0.34297 0.12706 0.0
H650 H 0.38654 0.35374 0.36469 0.0
C651 C 0.34699 0.35842 0.13088 0.0
C652 C 0.34671 0.37277 0.21823 0.0
H653 H 0.3649 0.33504 0.05614 0.0
H654 H 0.33873 0.36226 0.06268 0.0
C655 C 0.35834 0.36801 0.30474 0.0
C656 C 0.03995 0.37255 0.51702 0.0
C657 C 0.05778 0.37964 0.43311 0.0
H658 H 0.99642 0.35399 0.57134 0.0
C659 C 0.04514 0.36653 0.34219 0.0
H660 H 0.04915 0.38275 0.58762 0.0
C661 C 1.01481 0.35062 0.33238 0.0
C662 C 0.99693 0.34687 0.41404 0.0
H663 H 0.05835 0.37199 0.27611 0.0
H664 H 1.00546 0.34442 0.25901 0.0
C665 C 1.00972 0.35598 0.50771 0.0
C666 C 0.67778 1.00111 0.56822 0.0
C667 C 0.66396 0.98641 0.48048 0.0
H668 H 0.69928 0.04258 0.64308 0.0
C669 C 0.66964 1.00265 0.39311 0.0
H670 H 0.67367 0.98917 0.63676 0.0
C671 C 0.68528 0.03321 0.3961 0.0
C672 C 0.69484 0.04796 0.48688 0.0
H673 H 0.65893 0.99189 0.32478 0.0
H674 H 0.68622 0.04514 0.32986 0.0
C675 C 0.69263 0.03176 0.57185 0.0
C676 C 0.67215 0.68214 0.57992 0.0
C677 C 0.66456 0.6882 0.67296 0.0
H678 H 0.68808 0.65772 0.50037 0.0
C679 C 0.67493 0.68117 0.75814 0.0
H680 H 0.66367 0.68653 0.51324 0.0
C681 C 0.68947 0.66515 0.7507 0.0
C682 C 0.69327 0.65545 0.65803 0.0
H683 H 0.66864 0.68484 0.8307 0.0
H684 H 0.69403 0.65696 0.81777 0.0
C685 C 0.6861 0.66556 0.57253 0.0
C686 C 0.04252 0.6808 0.68102 0.0
C687 C 0.05865 0.69047 0.76906 0.0
H688 H 1.00019 0.65635 0.61627 0.0
C689 C 0.04417 0.68955 0.85713 0.0
H690 H 0.05313 0.68077 0.61254 0.0
C691 C 1.0137 0.67496 0.85962 0.0
C692 C 0.99749 0.6619 0.77359 0.0
H693 H 0.05602 0.69633 0.92632 0.0
H694 H 1.00291 0.67077 0.93064 0.0
C695 C 1.01216 0.66685 0.68315 0.0
loop_
_geom_bond_atom_site_label_1
_geom_bond_atom_site_label_2
_geom_bond_distance
_geom_bond_site_symmetry_2
_ccdc_geom_bond_type
C0 C1 1.351 . S
C0 N3 1.368 . S
C0 H5 0.931 . S
C1 C0 1.351 . S
C1 N2 1.373 . S
C1 H29 0.930 . S
N2 C1 1.373 . S
N2 C4 1.340 . S
N3 C0 1.368 . S
N3 C4 1.321 . S
N3 Co6 2.135 . S
C4 N2 1.340 . S
C4 N3 1.321 . S
C4 H28 0.930 . S
H5 C0 0.931 . S
Co6 N3 2.135 . S
Co6 N9 2.121 1_554 S
Co6 O14 2.055 . S
Co6 O17 2.039 . S
Co6 N20 2.140 . S
C7 O8 1.227 . S
C7 O17 1.265 . S
O8 C7 1.227 . S
N9 Co6 2.121 1_556 S
N9 C11 1.375 . S
N9 C12 1.313 . S
C10 C11 1.338 . S
C10 N13 1.377 . S
C10 H30 0.930 . S
C11 N9 1.375 . S
C11 C10 1.338 . S
C11 H15 0.931 . S
C12 N9 1.313 . S
C12 N13 1.344 . S
C12 H16 0.930 . S
N13 C10 1.377 . S
N13 C12 1.344 . S
O14 Co6 2.055 . S
O14 C18 1.253 . S
H15 C11 0.931 . S
H16 C12 0.930 . S
O17 Co6 2.039 . S
O17 C7 1.265 . S
C18 O14 1.253 . S
C18 O19 1.227 . S
O19 C18 1.227 . S
N20 Co6 2.140 . S
N20 C23 1.346 . S
N20 C24 1.345 . S
C21 C22 1.387 . S
C21 C25 1.391 . S
C22 C21 1.387 . S
C22 C23 1.369 . S
C22 H31 0.929 . S
C23 N20 1.346 . S
C23 C22 1.369 . S
C23 H26 0.928 . S
C24 N20 1.345 . S
C24 C25 1.371 . S
C24 H27 0.931 . S
C25 C21 1.391 . S
C25 C24 1.371 . S
C25 H32 0.930 . S
H26 C23 0.928 . S
H27 C24 0.931 . S
H28 C4 0.930 . S
H29 C1 0.930 . S
H30 C10 0.930 . S
H31 C22 0.929 . S
H32 C25 0.930 . S
C33 C34 1.351 . S
C33 N36 1.368 . S
C33 H38 0.931 . S
C34 C33 1.351 . S
C34 N35 1.373 . S
C34 H62 0.930 . S
N35 C34 1.373 . S
N35 C37 1.340 . S
N36 C33 1.368 . S
N36 C37 1.321 . S
N36 Co39 2.135 . S
C37 N35 1.340 . S
C37 N36 1.321 . S
C37 H61 0.930 . S
H38 C33 0.931 . S
Co39 N36 2.135 . S
Co39 N42 2.121 . S
Co39 O47 2.055 . S
Co39 O50 2.039 . S
Co39 N53 2.140 . S
C40 O41 1.227 . S
C40 O50 1.265 . S
O41 C40 1.227 . S
N42 Co39 2.121 . S
N42 C44 1.375 . S
N42 C45 1.313 . S
C43 C44 1.338 1_556 S
C43 N46 1.377 . S
C43 H63 0.930 . S
C44 N42 1.375 . S
C44 C43 1.338 1_554 S
C44 H48 0.931 . S
C45 N42 1.313 . S
C45 N46 1.344 1_554 S
C45 H49 0.930 . S
N46 C43 1.377 . S
N46 C45 1.344 1_556 S
O47 Co39 2.055 . S
O47 C51 1.253 . S
H48 C44 0.931 . S
H49 C45 0.930 . S
O50 Co39 2.039 . S
O50 C40 1.265 . S
C51 O47 1.253 . S
C51 O52 1.227 . S
O52 C51 1.227 . S
N53 Co39 2.140 . S
N53 C56 1.346 . S
N53 C57 1.345 . S
C54 C55 1.387 . S
C54 C58 1.391 . S
C55 C54 1.387 . S
C55 C56 1.369 . S
C55 H64 0.929 . S
C56 N53 1.346 . S
C56 C55 1.369 . S
C56 H59 0.928 . S
C57 N53 1.345 . S
C57 C58 1.371 . S
C57 H60 0.931 . S
C58 C54 1.391 . S
C58 C57 1.371 . S
C58 H65 0.930 . S
H59 C56 0.928 . S
H60 C57 0.931 . S
H61 C37 0.930 . S
H62 C34 0.930 . S
H63 C43 0.930 . S
H64 C55 0.929 . S
H65 C58 0.930 . S
C66 C67 1.351 . S
C66 N69 1.368 . S
C66 H71 0.931 . S
C67 C66 1.351 . S
C67 N68 1.373 . S
C67 H95 0.930 . S
N68 C67 1.373 . S
N68 C70 1.340 . S
N69 C66 1.368 . S
N69 C70 1.321 . S
N69 Co72 2.135 . S
C70 N68 1.340 . S
C70 N69 1.321 . S
C70 H94 0.930 . S
H71 C66 0.931 . S
Co72 N69 2.135 . S
Co72 N75 2.121 . S
Co72 O80 2.055 . S
Co72 O83 2.039 . S
Co72 N86 2.140 . S
C73 O74 1.227 . S
C73 O83 1.265 . S
O74 C73 1.227 . S
N75 Co72 2.121 . S
N75 C77 1.375 . S
N75 C78 1.313 . S
C76 C77 1.338 . S
C76 N79 1.377 . S
C76 H96 0.930 . S
C77 N75 1.375 . S
C77 C76 1.338 . S
C77 H81 0.931 . S
C78 N75 1.313 . S
C78 N79 1.344 . S
C78 H82 0.930 . S
N79 C76 1.377 . S
N79 C78 1.344 . S
O80 Co72 2.055 . S
O80 C84 1.253 . S
H81 C77 0.931 . S
H82 C78 0.930 . S
O83 Co72 2.039 . S
O83 C73 1.265 . S
C84 O80 1.253 . S
C84 O85 1.227 . S
O85 C84 1.227 . S
N86 Co72 2.140 . S
N86 C89 1.346 . S
N86 C90 1.345 . S
C87 C88 1.387 . S
C87 C91 1.391 . S
C88 C87 1.387 . S
C88 C89 1.369 . S
C88 H97 0.929 . S
C89 N86 1.346 . S
C89 C88 1.369 . S
C89 H92 0.928 . S
C90 N86 1.345 . S
C90 C91 1.371 . S
C90 H93 0.931 . S
C91 C87 1.391 . S
C91 C90 1.371 . S
C91 H98 0.930 . S
H92 C89 0.928 . S
H93 C90 0.931 . S
H94 C70 0.930 . S
H95 C67 0.930 . S
H96 C76 0.930 . S
H97 C88 0.929 . S
H98 C91 0.930 . S
C99 C100 1.351 . S
C99 N102 1.368 . S
C99 H104 0.931 . S
C100 C99 1.351 . S
C100 N101 1.373 . S
C100 H128 0.930 . S
N101 C100 1.373 . S
N101 C103 1.340 . S
N102 C99 1.368 . S
N102 C103 1.321 . S
N102 Co105 2.135 . S
C103 N101 1.340 . S
C103 N102 1.321 . S
C103 H127 0.930 . S
H104 C99 0.931 . S
Co105 N102 2.135 . S
Co105 N108 2.121 . S
Co105 O113 2.055 . S
Co105 O116 2.039 . S
Co105 N119 2.140 . S
C106 O107 1.227 . S
C106 O116 1.265 . S
O107 C106 1.227 . S
N108 Co105 2.121 . S
N108 C110 1.375 . S
N108 C111 1.313 . S
C109 C110 1.338 . S
C109 N112 1.377 . S
C109 H129 0.930 . S
C110 N108 1.375 . S
C110 C109 1.338 . S
C110 H114 0.931 . S
C111 N108 1.313 . S
C111 N112 1.344 . S
C111 H115 0.930 . S
N112 C109 1.377 . S
N112 C111 1.344 . S
O113 Co105 2.055 . S
O113 C117 1.253 . S
H114 C110 0.931 . S
H115 C111 0.930 . S
O116 Co105 2.039 . S
O116 C106 1.265 . S
C117 O113 1.253 . S
C117 O118 1.227 . S
O118 C117 1.227 . S
N119 Co105 2.140 . S
N119 C122 1.346 . S
N119 C123 1.345 . S
C120 C121 1.387 . S
C120 C124 1.391 . S
C121 C120 1.387 . S
C121 C122 1.369 . S
C121 H130 0.929 . S
C122 N119 1.346 . S
C122 C121 1.369 . S
C122 H125 0.928 . S
C123 N119 1.345 . S
C123 C124 1.371 . S
C123 H126 0.931 . S
C124 C120 1.391 . S
C124 C123 1.371 . S
C124 H131 0.930 . S
H125 C122 0.928 . S
H126 C123 0.931 . S
H127 C103 0.930 . S
H128 C100 0.930 . S
H129 C109 0.930 . S
H130 C121 0.929 . S
H131 C124 0.930 . S
C132 C133 1.351 1_556 S
C132 N135 1.368 . S
C132 H137 0.931 . S
C133 C132 1.351 1_554 S
C133 N134 1.373 . S
C133 H161 0.930 . S
N134 C133 1.373 . S
N134 C136 1.340 1_554 S
N135 C132 1.368 . S
N135 C136 1.321 . S
N135 Co138 2.135 . S
C136 N134 1.340 1_556 S
C136 N135 1.321 . S
C136 H160 0.930 . S
H137 C132 0.931 . S
Co138 N135 2.135 . S
Co138 N141 2.121 . S
Co138 O146 2.055 . S
Co138 O149 2.039 . S
Co138 N152 2.140 . S
C139 O140 1.227 . S
C139 O149 1.265 . S
O140 C139 1.227 . S
N141 Co138 2.121 . S
N141 C143 1.375 . S
N141 C144 1.313 . S
C142 C143 1.338 . S
C142 N145 1.377 . S
C142 H162 0.930 . S
C143 N141 1.375 . S
C143 C142 1.338 . S
C143 H147 0.931 . S
C144 N141 1.313 . S
C144 N145 1.344 . S
C144 H148 0.930 . S
N145 C142 1.377 . S
N145 C144 1.344 . S
O146 Co138 2.055 . S
O146 C150 1.253 . S
H147 C143 0.931 . S
H148 C144 0.930 . S
O149 Co138 2.039 . S
O149 C139 1.265 . S
C150 O146 1.253 . S
C150 O151 1.227 . S
O151 C150 1.227 . S
N152 Co138 2.140 . S
N152 C155 1.346 . S
N152 C156 1.345 . S
C153 C154 1.387 . S
C153 C157 1.391 . S
C154 C153 1.387 . S
C154 C155 1.369 . S
C154 H163 0.929 . S
C155 N152 1.346 . S
C155 C154 1.369 . S
C155 H158 0.928 . S
C156 N152 1.345 . S
C156 C157 1.371 . S
C156 H159 0.931 . S
C157 C153 1.391 . S
C157 C156 1.371 . S
C157 H164 0.930 . S
H158 C155 0.928 . S
H159 C156 0.931 . S
H160 C136 0.930 . S
H161 C133 0.930 . S
H162 C142 0.930 . S
H163 C154 0.929 . S
H164 C157 0.930 . S
C165 C166 1.351 . S
C165 N168 1.368 . S
C165 H170 0.931 . S
C166 C165 1.351 . S
C166 N167 1.373 . S
C166 H194 0.930 . S
N167 C166 1.373 . S
N167 C169 1.340 . S
N168 C165 1.368 . S
N168 C169 1.321 . S
N168 Co171 2.135 1_554 S
C169 N167 1.340 . S
C169 N168 1.321 . S
C169 H193 0.930 . S
H170 C165 0.931 . S
Co171 N168 2.135 1_556 S
Co171 N174 2.121 . S
Co171 O179 2.055 . S
Co171 O182 2.039 . S
Co171 N185 2.140 . S
C172 O173 1.227 1_556 S
C172 O182 1.265 . S
O173 C172 1.227 1_554 S
N174 Co171 2.121 . S
N174 C176 1.375 . S
N174 C177 1.313 . S
C175 C176 1.338 . S
C175 N178 1.377 . S
C175 H195 0.930 . S
C176 N174 1.375 . S
C176 C175 1.338 . S
C176 H180 0.931 . S
C177 N174 1.313 . S
C177 N178 1.344 . S
C177 H181 0.930 . S
N178 C175 1.377 . S
N178 C177 1.344 . S
O179 Co171 2.055 . S
O179 C183 1.253 . S
H180 C176 0.931 . S
H181 C177 0.930 . S
O182 Co171 2.039 . S
O182 C172 1.265 . S
C183 O179 1.253 . S
C183 O184 1.227 . S
O184 C183 1.227 . S
N185 Co171 2.140 . S
N185 C188 1.346 1_556 S
N185 C189 1.345 . S
C186 C187 1.387 . S
C186 C190 1.391 1_554 S
C187 C186 1.387 . S
C187 C188 1.369 . S
C187 H196 0.929 . S
C188 N185 1.346 1_554 S
C188 C187 1.369 . S
C188 H191 0.928 . S
C189 N185 1.345 . S
C189 C190 1.371 . S
C189 H192 0.931 . S
C190 C186 1.391 1_556 S
C190 C189 1.371 . S
C190 H197 0.930 . S
H191 C188 0.928 . S
H192 C189 0.931 . S
H193 C169 0.930 . S
H194 C166 0.930 . S
H195 C175 0.930 . S
H196 C187 0.929 . S
H197 C190 0.930 . S
C198 C199 1.351 . S
C198 N201 1.368 . S
C198 H203 0.931 . S
C199 C198 1.351 . S
C199 N200 1.373 . S
C199 H227 0.930 . S
N200 C199 1.373 . S
N200 C202 1.340 . S
N201 C198 1.368 . S
N201 C202 1.321 . S
N201 Co204 2.135 . S
C202 N200 1.340 . S
C202 N201 1.321 . S
C202 H226 0.930 . S
H203 C198 0.931 . S
Co204 N201 2.135 . S
Co204 N207 2.121 . S
Co204 O212 2.055 . S
Co204 O215 2.039 . S
Co204 N218 2.140 . S
C205 O206 1.227 . S
C205 O215 1.265 . S
O206 C205 1.227 . S
N207 Co204 2.121 . S
N207 C209 1.375 . S
N207 C210 1.313 . S
C208 C209 1.338 1_554 S
C208 N211 1.377 . S
C208 H228 0.930 . S
C209 N207 1.375 . S
C209 C208 1.338 1_556 S
C209 H213 0.931 . S
C210 N207 1.313 . S
C210 N211 1.344 1_556 S
C210 H214 0.930 . S
N211 C208 1.377 . S
N211 C210 1.344 1_554 S
O212 Co204 2.055 . S
O212 C216 1.253 . S
H213 C209 0.931 . S
H214 C210 0.930 . S
O215 Co204 2.039 . S
O215 C205 1.265 . S
C216 O212 1.253 . S
C216 O217 1.227 . S
O217 C216 1.227 . S
N218 Co204 2.140 . S
N218 C221 1.346 . S
N218 C222 1.345 . S
C219 C220 1.387 . S
C219 C223 1.391 . S
C220 C219 1.387 . S
C220 C221 1.369 . S
C220 H229 0.929 . S
C221 N218 1.346 . S
C221 C220 1.369 . S
C221 H224 0.928 . S
C222 N218 1.345 . S
C222 C223 1.371 . S
C222 H225 0.931 . S
C223 C219 1.391 . S
C223 C222 1.371 . S
C223 H230 0.930 . S
H224 C221 0.928 . S
H225 C222 0.931 . S
H226 C202 0.930 . S
H227 C199 0.930 . S
H228 C208 0.930 . S
H229 C220 0.929 . S
H230 C223 0.930 . S
C231 C232 1.351 . S
C231 N234 1.368 . S
C231 H236 0.931 . S
C232 C231 1.351 . S
C232 N233 1.373 . S
C232 H260 0.930 . S
N233 C232 1.373 . S
N233 C235 1.340 . S
N234 C231 1.368 . S
N234 C235 1.321 . S
N234 Co237 2.135 . S
C235 N233 1.340 . S
C235 N234 1.321 . S
C235 H259 0.930 . S
H236 C231 0.931 . S
Co237 N234 2.135 . S
Co237 N240 2.121 1_556 S
Co237 O245 2.055 . S
Co237 O248 2.039 . S
Co237 N251 2.140 . S
C238 O239 1.227 . S
C238 O248 1.265 . S
O239 C238 1.227 . S
N240 Co237 2.121 1_554 S
N240 C242 1.375 . S
N240 C243 1.313 . S
C241 C242 1.338 . S
C241 N244 1.377 . S
C241 H261 0.930 . S
C242 N240 1.375 . S
C242 C241 1.338 . S
C242 H246 0.931 . S
C243 N240 1.313 . S
C243 N244 1.344 . S
C243 H247 0.930 . S
N244 C241 1.377 . S
N244 C243 1.344 . S
O245 Co237 2.055 . S
O245 C249 1.253 . S
H246 C242 0.931 . S
H247 C243 0.930 . S
O248 Co237 2.039 . S
O248 C238 1.265 . S
C249 O245 1.253 . S
C249 O250 1.227 . S
O250 C249 1.227 . S
N251 Co237 2.140 . S
N251 C254 1.346 . S
N251 C255 1.345 . S
C252 C253 1.387 . S
C252 C256 1.391 . S
C253 C252 1.387 . S
C253 C254 1.369 . S
C253 H262 0.929 . S
C254 N251 1.346 . S
C254 C253 1.369 . S
C254 H257 0.928 . S
C255 N251 1.345 . S
C255 C256 1.371 . S
C255 H258 0.931 . S
C256 C252 1.391 . S
C256 C255 1.371 . S
C256 H263 0.930 . S
H257 C254 0.928 . S
H258 C255 0.931 . S
H259 C235 0.930 . S
H260 C232 0.930 . S
H261 C241 0.930 . S
H262 C253 0.929 . S
H263 C256 0.930 . S
C264 C265 1.351 . S
C264 N267 1.368 . S
C264 H269 0.931 . S
C265 C264 1.351 . S
C265 N266 1.373 . S
C265 H293 0.930 . S
N266 C265 1.373 . S
N266 C268 1.340 . S
N267 C264 1.368 . S
N267 C268 1.321 . S
N267 Co270 2.135 1_556 S
C268 N266 1.340 . S
C268 N267 1.321 . S
C268 H292 0.930 . S
H269 C264 0.931 . S
Co270 N267 2.135 1_554 S
Co270 N273 2.121 . S
Co270 O278 2.055 . S
Co270 O281 2.039 . S
Co270 N284 2.140 . S
C271 O272 1.227 1_554 S
C271 O281 1.265 . S
O272 C271 1.227 1_556 S
N273 Co270 2.121 . S
N273 C275 1.375 . S
N273 C276 1.313 . S
C274 C275 1.338 . S
C274 N277 1.377 . S
C274 H294 0.930 . S
C275 N273 1.375 . S
C275 C274 1.338 . S
C275 H279 0.931 . S
C276 N273 1.313 . S
C276 N277 1.344 . S
C276 H280 0.930 . S
N277 C274 1.377 . S
N277 C276 1.344 . S
O278 Co270 2.055 . S
O278 C282 1.253 . S
H279 C275 0.931 . S
H280 C276 0.930 . S
O281 Co270 2.039 . S
O281 C271 1.265 . S
C282 O278 1.253 . S
C282 O283 1.227 . S
O283 C282 1.227 . S
N284 Co270 2.140 . S
N284 C287 1.346 1_554 S
N284 C288 1.345 . S
C285 C286 1.387 . S
C285 C289 1.391 1_556 S
C286 C285 1.387 . S
C286 C287 1.369 . S
C286 H295 0.929 . S
C287 N284 1.346 1_556 S
C287 C286 1.369 . S
C287 H290 0.928 . S
C288 N284 1.345 . S
C288 C289 1.371 . S
C288 H291 0.931 . S
C289 C285 1.391 1_554 S
C289 C288 1.371 . S
C289 H296 0.930 . S
H290 C287 0.928 . S
H291 C288 0.931 . S
H292 C268 0.930 . S
H293 C265 0.930 . S
H294 C274 0.930 . S
H295 C286 0.929 . S
H296 C289 0.930 . S
C297 C298 1.351 1_554 S
C297 N300 1.368 . S
C297 H302 0.931 . S
C298 C297 1.351 1_556 S
C298 N299 1.373 . S
C298 H326 0.930 . S
N299 C298 1.373 . S
N299 C301 1.340 1_556 S
N300 C297 1.368 . S
N300 C301 1.321 . S
N300 Co303 2.135 . S
C301 N299 1.340 1_554 S
C301 N300 1.321 . S
C301 H325 0.930 . S
H302 C297 0.931 . S
Co303 N300 2.135 . S
Co303 N306 2.121 . S
Co303 O311 2.055 . S
Co303 O314 2.039 . S
Co303 N317 2.140 . S
C304 O305 1.227 . S
C304 O314 1.265 . S
O305 C304 1.227 . S
N306 Co303 2.121 . S
N306 C308 1.375 . S
N306 C309 1.313 . S
C307 C308 1.338 . S
C307 N310 1.377 . S
C307 H327 0.930 . S
C308 N306 1.375 . S
C308 C307 1.338 . S
C308 H312 0.931 . S
C309 N306 1.313 . S
C309 N310 1.344 . S
C309 H313 0.930 . S
N310 C307 1.377 . S
N310 C309 1.344 . S
O311 Co303 2.055 . S
O311 C315 1.253 . S
H312 C308 0.931 . S
H313 C309 0.930 . S
O314 Co303 2.039 . S
O314 C304 1.265 . S
C315 O311 1.253 . S
C315 O316 1.227 . S
O316 C315 1.227 . S
N317 Co303 2.140 . S
N317 C320 1.346 . S
N317 C321 1.345 . S
C318 C319 1.387 . S
C318 C322 1.391 . S
C319 C318 1.387 . S
C319 C320 1.369 . S
C319 H328 0.929 . S
C320 N317 1.346 . S
C320 C319 1.369 . S
C320 H323 0.928 . S
C321 N317 1.345 . S
C321 C322 1.371 . S
C321 H324 0.931 . S
C322 C318 1.391 . S
C322 C321 1.371 . S
C322 H329 0.930 . S
H323 C320 0.928 . S
H324 C321 0.931 . S
H325 C301 0.930 . S
H326 C298 0.930 . S
H327 C307 0.930 . S
H328 C319 0.929 . S
H329 C322 0.930 . S
C330 C331 1.351 . S
C330 N333 1.368 . S
C330 H335 0.931 . S
C331 C330 1.351 . S
C331 N332 1.373 . S
C331 H359 0.930 . S
N332 C331 1.373 . S
N332 C334 1.340 . S
N333 C330 1.368 . S
N333 C334 1.321 . S
N333 Co336 2.135 . S
C334 N332 1.340 . S
C334 N333 1.321 . S
C334 H358 0.930 . S
H335 C330 0.931 . S
Co336 N333 2.135 . S
Co336 N339 2.121 . S
Co336 O344 2.055 . S
Co336 O347 2.039 . S
Co336 N350 2.140 . S
C337 O338 1.227 . S
C337 O347 1.265 . S
O338 C337 1.227 . S
N339 Co336 2.121 . S
N339 C341 1.375 . S
N339 C342 1.313 . S
C340 C341 1.338 . S
C340 N343 1.377 . S
C340 H360 0.930 . S
C341 N339 1.375 . S
C341 C340 1.338 . S
C341 H345 0.931 . S
C342 N339 1.313 . S
C342 N343 1.344 . S
C342 H346 0.930 . S
N343 C340 1.377 . S
N343 C342 1.344 . S
O344 Co336 2.055 . S
O344 C348 1.253 . S
H345 C341 0.931 . S
H346 C342 0.930 . S
O347 Co336 2.039 . S
O347 C337 1.265 . S
C348 O344 1.253 . S
C348 O349 1.227 . S
O349 C348 1.227 . S
N350 Co336 2.140 . S
N350 C353 1.346 . S
N350 C354 1.345 . S
C351 C352 1.387 . S
C351 C355 1.391 . S
C352 C351 1.387 . S
C352 C353 1.369 . S
C352 H361 0.929 . S
C353 N350 1.346 . S
C353 C352 1.369 . S
C353 H356 0.928 . S
C354 N350 1.345 . S
C354 C355 1.371 . S
C354 H357 0.931 . S
C355 C351 1.391 . S
C355 C354 1.371 . S
C355 H362 0.930 . S
H356 C353 0.928 . S
H357 C354 0.931 . S
H358 C334 0.930 . S
H359 C331 0.930 . S
H360 C340 0.930 . S
H361 C352 0.929 . S
H362 C355 0.930 . S
C363 C364 1.351 . S
C363 N366 1.368 . S
C363 H368 0.931 . S
C364 C363 1.351 . S
C364 N365 1.373 . S
C364 H392 0.930 . S
N365 C364 1.373 . S
N365 C367 1.340 . S
N366 C363 1.368 . S
N366 C367 1.321 . S
N366 Co369 2.135 . S
C367 N365 1.340 . S
C367 N366 1.321 . S
C367 H391 0.930 . S
H368 C363 0.931 . S
Co369 N366 2.135 . S
Co369 N372 2.121 . S
Co369 O377 2.055 . S
Co369 O380 2.039 . S
Co369 N383 2.140 . S
C370 O371 1.227 . S
C370 O380 1.265 . S
O371 C370 1.227 . S
N372 Co369 2.121 . S
N372 C374 1.375 . S
N372 C375 1.313 . S
C373 C374 1.338 . S
C373 N376 1.377 . S
C373 H393 0.930 . S
C374 N372 1.375 . S
C374 C373 1.338 . S
C374 H378 0.931 . S
C375 N372 1.313 . S
C375 N376 1.344 . S
C375 H379 0.930 . S
N376 C373 1.377 . S
N376 C375 1.344 . S
O377 Co369 2.055 . S
O377 C381 1.253 . S
H378 C374 0.931 . S
H379 C375 0.930 . S
O380 Co369 2.039 . S
O380 C370 1.265 . S
C381 O377 1.253 . S
C381 O382 1.227 . S
O382 C381 1.227 . S
N383 Co369 2.140 . S
N383 C386 1.346 . S
N383 C387 1.345 . S
C384 C385 1.387 . S
C384 C388 1.391 . S
C385 C384 1.387 . S
C385 C386 1.369 . S
C385 H394 0.929 . S
C386 N383 1.346 . S
C386 C385 1.369 . S
C386 H389 0.928 . S
C387 N383 1.345 . S
C387 C388 1.371 . S
C387 H390 0.931 . S
C388 C384 1.391 . S
C388 C387 1.371 . S
C388 H395 0.930 . S
H389 C386 0.928 . S
H390 C387 0.931 . S
H391 C367 0.930 . S
H392 C364 0.930 . S
H393 C373 0.930 . S
H394 C385 0.929 . S
H395 C388 0.930 . S
C396 C397 1.387 . S
C396 H400 0.950 1_554 S
C396 C405 1.390 . S
C397 C396 1.387 . S
C397 C399 1.387 . S
H398 C405 0.950 . S
C399 C397 1.387 . S
C399 C401 1.390 . S
C399 H403 0.950 . S
H400 C396 0.950 1_556 S
C401 C399 1.390 . S
C401 C402 1.387 . S
C401 H404 0.950 . S
C402 C401 1.387 . S
C402 C405 1.387 . S
H403 C399 0.950 . S
H404 C401 0.950 . S
C405 C396 1.390 . S
C405 H398 0.950 . S
C405 C402 1.387 . S
C406 C407 1.387 . S
C406 H410 0.950 . S
C406 C415 1.390 . S
C407 C406 1.387 . S
C407 C409 1.387 . S
H408 C415 0.950 . S
C409 C407 1.387 . S
C409 C411 1.390 . S
C409 H413 0.950 . S
H410 C406 0.950 . S
C411 C409 1.390 . S
C411 C412 1.387 . S
C411 H414 0.950 . S
C412 C411 1.387 . S
C412 C415 1.387 . S
H413 C409 0.950 . S
H414 C411 0.950 . S
C415 C406 1.390 . S
C415 H408 0.950 . S
C415 C412 1.387 . S
C416 C417 1.387 . S
C416 H420 0.950 . S
C416 C425 1.390 . S
C417 C416 1.387 . S
C417 C419 1.387 . S
H418 C425 0.950 . S
C419 C417 1.387 . S
C419 C421 1.390 . S
C419 H423 0.950 . S
H420 C416 0.950 . S
C421 C419 1.390 . S
C421 C422 1.387 . S
C421 H424 0.950 . S
C422 C421 1.387 . S
C422 C425 1.387 . S
H423 C419 0.950 . S
H424 C421 0.950 . S
C425 C416 1.390 . S
C425 H418 0.950 . S
C425 C422 1.387 . S
C426 C427 1.387 . S
C426 H430 0.950 . S
C426 C435 1.390 . S
C427 C426 1.387 . S
C427 C429 1.387 . S
H428 C435 0.950 . S
C429 C427 1.387 . S
C429 C431 1.390 . S
C429 H433 0.950 . S
H430 C426 0.950 . S
C431 C429 1.390 . S
C431 C432 1.387 . S
C431 H434 0.950 . S
C432 C431 1.387 . S
C432 C435 1.387 . S
H433 C429 0.950 . S
H434 C431 0.950 . S
C435 C426 1.390 . S
C435 H428 0.950 . S
C435 C432 1.387 . S
C436 C437 1.387 . S
C436 H440 0.950 . S
C436 C445 1.390 . S
C437 C436 1.387 . S
C437 C439 1.387 . S
H438 C445 0.950 . S
C439 C437 1.387 . S
C439 C441 1.390 . S
C439 H443 0.950 . S
H440 C436 0.950 . S
C441 C439 1.390 . S
C441 C442 1.387 . S
C441 H444 0.950 . S
C442 C441 1.387 . S
C442 C445 1.387 . S
H443 C439 0.950 . S
H444 C441 0.950 . S
C445 C436 1.390 . S
C445 H438 0.950 . S
C445 C442 1.387 . S
C446 C447 1.387 . S
C446 H450 0.950 . S
C446 C455 1.390 . S
C447 C446 1.387 . S
C447 C449 1.387 . S
H448 C455 0.950 . S
C449 C447 1.387 . S
C449 C451 1.390 . S
C449 H453 0.950 . S
H450 C446 0.950 . S
C451 C449 1.390 . S
C451 C452 1.387 . S
C451 H454 0.950 1_556 S
C452 C451 1.387 . S
C452 C455 1.387 . S
H453 C449 0.950 . S
H454 C451 0.950 1_554 S
C455 C446 1.390 . S
C455 H448 0.950 . S
C455 C452 1.387 . S
C456 C457 1.387 . S
C456 H460 0.950 . S
C456 C465 1.390 . S
C457 C456 1.387 . S
C457 C459 1.387 . S
H458 C465 0.950 . S
C459 C457 1.387 . S
C459 C461 1.390 . S
C459 H463 0.950 . S
H460 C456 0.950 . S
C461 C459 1.390 . S
C461 C462 1.387 . S
C461 H464 0.950 . S
C462 C461 1.387 . S
C462 C465 1.387 . S
H463 C459 0.950 . S
H464 C461 0.950 . S
C465 C456 1.390 . S
C465 H458 0.950 . S
C465 C462 1.387 . S
C466 C467 1.387 . S
C466 H470 0.950 . S
C466 C475 1.390 . S
C467 C466 1.387 . S
C467 C469 1.387 . S
H468 C475 0.950 . S
C469 C467 1.387 . S
C469 C471 1.390 . S
C469 H473 0.950 . S
H470 C466 0.950 . S
C471 C469 1.390 . S
C471 C472 1.387 . S
C471 H474 0.950 . S
C472 C471 1.387 . S
C472 C475 1.387 . S
H473 C469 0.950 . S
H474 C471 0.950 . S
C475 C466 1.390 . S
C475 H468 0.950 . S
C475 C472 1.387 . S
C476 C477 1.387 . S
C476 H480 0.950 . S
C476 C485 1.390 . S
C477 C476 1.387 . S
C477 C479 1.387 . S
H478 C485 0.950 . S
C479 C477 1.387 . S
C479 C481 1.390 1_556 S
C479 H483 0.950 . S
H480 C476 0.950 . S
C481 C479 1.390 1_554 S
C481 C482 1.387 . S
C481 H484 0.950 . S
C482 C481 1.387 . S
C482 C485 1.387 1_554 S
H483 C479 0.950 . S
H484 C481 0.950 . S
C485 C476 1.390 . S
C485 H478 0.950 . S
C485 C482 1.387 1_556 S
C486 C487 1.387 . S
C486 H490 0.950 . S
C486 C495 1.390 . S
C487 C486 1.387 . S
C487 C489 1.387 . S
H488 C495 0.950 . S
C489 C487 1.387 . S
C489 C491 1.390 . S
C489 H493 0.950 . S
H490 C486 0.950 . S
C491 C489 1.390 . S
C491 C492 1.387 . S
C491 H494 0.950 . S
C492 C491 1.387 . S
C492 C495 1.387 . S
H493 C489 0.950 . S
H494 C491 0.950 . S
C495 C486 1.390 . S
C495 H488 0.950 . S
C495 C492 1.387 . S
C496 C497 1.387 . S
C496 H500 0.950 . S
C496 C505 1.390 . S
C497 C496 1.387 . S
C497 C499 1.387 . S
H498 C505 0.950 . S
C499 C497 1.387 . S
C499 C501 1.390 . S
C499 H503 0.950 . S
H500 C496 0.950 . S
C501 C499 1.390 . S
C501 C502 1.387 . S
C501 H504 0.950 . S
C502 C501 1.387 . S
C502 C505 1.387 . S
H503 C499 0.950 . S
H504 C501 0.950 . S
C505 C496 1.390 . S
C505 H498 0.950 . S
C505 C502 1.387 . S
C506 C507 1.387 . S
C506 H510 0.950 . S
C506 C515 1.390 . S
C507 C506 1.387 . S
C507 C509 1.387 . S
H508 C515 0.950 . S
C509 C507 1.387 . S
C509 C511 1.390 . S
C509 H513 0.950 . S
H510 C506 0.950 . S
C511 C509 1.390 . S
C511 C512 1.387 . S
C511 H514 0.950 . S
C512 C511 1.387 . S
C512 C515 1.387 . S
H513 C509 0.950 . S
H514 C511 0.950 . S
C515 C506 1.390 . S
C515 H508 0.950 . S
C515 C512 1.387 . S
C516 C517 1.387 . S
C516 H520 0.950 . S
C516 C525 1.390 . S
C517 C516 1.387 . S
C517 C519 1.387 . S
H518 C525 0.950 . S
C519 C517 1.387 . S
C519 C521 1.390 . S
C519 H523 0.950 . S
H520 C516 0.950 . S
C521 C519 1.390 . S
C521 C522 1.387 . S
C521 H524 0.950 . S
C522 C521 1.387 . S
C522 C525 1.387 . S
H523 C519 0.950 . S
H524 C521 0.950 . S
C525 C516 1.390 . S
C525 H518 0.950 . S
C525 C522 1.387 . S
C526 C527 1.387 . S
C526 H530 0.950 . S
C526 C535 1.390 . S
C527 C526 1.387 . S
C527 C529 1.387 . S
H528 C535 0.950 . S
C529 C527 1.387 . S
C529 C531 1.390 . S
C529 H533 0.950 . S
H530 C526 0.950 . S
C531 C529 1.390 . S
C531 C532 1.387 . S
C531 H534 0.950 . S
C532 C531 1.387 . S
C532 C535 1.387 . S
H533 C529 0.950 . S
H534 C531 0.950 . S
C535 C526 1.390 . S
C535 H528 0.950 . S
C535 C532 1.387 . S
C536 C537 1.387 . S
C536 H540 0.950 . S
C536 C545 1.390 . S
C537 C536 1.387 . S
C537 C539 1.387 . S
H538 C545 0.950 . S
C539 C537 1.387 . S
C539 C541 1.390 . S
C539 H543 0.950 . S
H540 C536 0.950 . S
C541 C539 1.390 . S
C541 C542 1.387 . S
C541 H544 0.950 . S
C542 C541 1.387 . S
C542 C545 1.387 . S
H543 C539 0.950 . S
H544 C541 0.950 . S
C545 C536 1.390 . S
C545 H538 0.950 . S
C545 C542 1.387 . S
C546 C547 1.387 . S
C546 H550 0.950 . S
C546 C555 1.390 . S
C547 C546 1.387 . S
C547 C549 1.387 . S
H548 C555 0.950 . S
C549 C547 1.387 . S
C549 C551 1.390 . S
C549 H553 0.950 . S
H550 C546 0.950 . S
C551 C549 1.390 . S
C551 C552 1.387 . S
C551 H554 0.950 . S
C552 C551 1.387 . S
C552 C555 1.387 . S
H553 C549 0.950 . S
H554 C551 0.950 . S
C555 C546 1.390 . S
C555 H548 0.950 . S
C555 C552 1.387 . S
C556 C557 1.387 . S
C556 H560 0.950 . S
C556 C565 1.390 . S
C557 C556 1.387 . S
C557 C559 1.387 . S
H558 C565 0.950 . S
C559 C557 1.387 . S
C559 C561 1.390 . S
C559 H563 0.950 . S
H560 C556 0.950 . S
C561 C559 1.390 . S
C561 C562 1.387 . S
C561 H564 0.950 . S
C562 C561 1.387 . S
C562 C565 1.387 . S
H563 C559 0.950 . S
H564 C561 0.950 . S
C565 C556 1.390 . S
C565 H558 0.950 . S
C565 C562 1.387 . S
C566 C567 1.387 . S
C566 H570 0.950 . S
C566 C575 1.390 1_554 S
C567 C566 1.387 . S
C567 C569 1.387 . S
H568 C575 0.950 . S
C569 C567 1.387 . S
C569 C571 1.390 . S
C569 H573 0.950 . S
H570 C566 0.950 . S
C571 C569 1.390 . S
C571 C572 1.387 1_554 S
C571 H574 0.950 . S
C572 C571 1.387 1_556 S
C572 C575 1.387 . S
H573 C569 0.950 . S
H574 C571 0.950 . S
C575 C566 1.390 1_556 S
C575 H568 0.950 . S
C575 C572 1.387 . S
C576 C577 1.387 . S
C576 H580 0.950 . S
C576 C585 1.390 . S
C577 C576 1.387 . S
C577 C579 1.387 . S
H578 C585 0.950 . S
C579 C577 1.387 . S
C579 C581 1.390 . S
C579 H583 0.950 . S
H580 C576 0.950 . S
C581 C579 1.390 . S
C581 C582 1.387 . S
C581 H584 0.950 . S
C582 C581 1.387 . S
C582 C585 1.387 . S
H583 C579 0.950 . S
H584 C581 0.950 . S
C585 C576 1.390 . S
C585 H578 0.950 . S
C585 C582 1.387 . S
C586 C587 1.387 . S
C586 H590 0.950 . S
C586 C595 1.390 . S
C587 C586 1.387 . S
C587 C589 1.387 . S
H588 C595 0.950 . S
C589 C587 1.387 . S
C589 C591 1.390 . S
C589 H593 0.950 . S
H590 C586 0.950 . S
C591 C589 1.390 . S
C591 C592 1.387 . S
C591 H594 0.950 . S
C592 C591 1.387 . S
C592 C595 1.387 . S
H593 C589 0.950 . S
H594 C591 0.950 . S
C595 C586 1.390 . S
C595 H588 0.950 . S
C595 C592 1.387 . S
C596 C597 1.387 . S
C596 H600 0.950 . S
C596 C605 1.390 . S
C597 C596 1.387 . S
C597 C599 1.387 . S
H598 C605 0.950 . S
C599 C597 1.387 . S
C599 C601 1.390 . S
C599 H603 0.950 . S
H600 C596 0.950 . S
C601 C599 1.390 . S
C601 C602 1.387 . S
C601 H604 0.950 . S
C602 C601 1.387 . S
C602 C605 1.387 . S
H603 C599 0.950 . S
H604 C601 0.950 . S
C605 C596 1.390 . S
C605 H598 0.950 . S
C605 C602 1.387 . S
C606 C607 1.387 . S
C606 H610 0.950 . S
C606 C615 1.390 . S
C607 C606 1.387 . S
C607 C609 1.387 . S
H608 C615 0.950 . S
C609 C607 1.387 . S
C609 C611 1.390 . S
C609 H613 0.950 . S
H610 C606 0.950 . S
C611 C609 1.390 . S
C611 C612 1.387 . S
C611 H614 0.950 . S
C612 C611 1.387 . S
C612 C615 1.387 . S
H613 C609 0.950 . S
H614 C611 0.950 . S
C615 C606 1.390 . S
C615 H608 0.950 . S
C615 C612 1.387 . S
C616 C617 1.387 . S
C616 H620 0.953 . S
C616 C625 1.390 . S
C617 C616 1.387 . S
C617 C619 1.387 . S
H618 C625 0.950 . S
C619 C617 1.387 . S
C619 C621 1.390 . S
C619 H623 0.950 . S
H620 C616 0.953 . S
C621 C619 1.390 . S
C621 C622 1.387 . S
C621 H624 0.950 . S
C622 C621 1.387 . S
C622 C625 1.387 . S
H623 C619 0.950 . S
H624 C621 0.950 . S
C625 C616 1.390 . S
C625 H618 0.950 . S
C625 C622 1.387 . S
C626 C627 1.387 . S
C626 H630 0.950 . S
C626 C635 1.390 . S
C627 C626 1.387 . S
C627 C629 1.387 . S
H628 C635 0.950 . S
C629 C627 1.387 . S
C629 C631 1.390 . S
C629 H633 0.950 . S
H630 C626 0.950 . S
C631 C629 1.390 . S
C631 C632 1.387 . S
C631 H634 0.950 1_554 S
C632 C631 1.387 . S
C632 C635 1.387 . S
H633 C629 0.950 . S
H634 C631 0.950 1_556 S
C635 C626 1.390 . S
C635 H628 0.950 . S
C635 C632 1.387 . S
C636 C637 1.387 . S
C636 H640 0.950 . S
C636 C645 1.390 1_544 S
C637 C636 1.387 . S
C637 C639 1.387 . S
H638 C645 0.950 . S
C639 C637 1.387 . S
C639 C641 1.390 1_544 S
C639 H643 0.950 . S
H640 C636 0.950 . S
C641 C639 1.390 1_566 S
C641 C642 1.387 . S
C641 H644 0.950 . S
C642 C641 1.387 . S
C642 C645 1.387 . S
H643 C639 0.950 . S
H644 C641 0.950 . S
C645 C636 1.390 1_566 S
C645 H638 0.950 . S
C645 C642 1.387 . S
C646 C647 1.387 . S
C646 H650 0.950 . S
C646 C655 1.390 . S
C647 C646 1.387 . S
C647 C649 1.387 . S
H648 C655 0.950 . S
C649 C647 1.387 . S
C649 C651 1.390 . S
C649 H653 0.950 . S
H650 C646 0.950 . S
C651 C649 1.390 . S
C651 C652 1.387 . S
C651 H654 0.950 . S
C652 C651 1.387 . S
C652 C655 1.387 . S
H653 C649 0.950 . S
H654 C651 0.950 . S
C655 C646 1.390 . S
C655 H648 0.950 . S
C655 C652 1.387 . S
C656 C657 1.387 . S
C656 H660 0.950 . S
C656 C665 1.390 1_455 S
C657 C656 1.387 . S
C657 C659 1.387 . S
H658 C665 0.950 . S
C659 C657 1.387 . S
C659 C661 1.390 1_455 S
C659 H663 0.950 . S
H660 C656 0.950 . S
C661 C659 1.390 1_655 S
C661 C662 1.387 . S
C661 H664 0.950 . S
C662 C661 1.387 . S
C662 C665 1.387 . S
H663 C659 0.950 . S
H664 C661 0.950 . S
C665 C656 1.390 1_655 S
C665 H658 0.950 . S
C665 C662 1.387 . S
C666 C667 1.387 . S
C666 H670 0.950 . S
C666 C675 1.390 1_565 S
C667 C666 1.387 . S
C667 C669 1.387 . S
H668 C675 0.950 . S
C669 C667 1.387 . S
C669 C671 1.390 1_565 S
C669 H673 0.950 . S
H670 C666 0.950 . S
C671 C669 1.390 1_545 S
C671 C672 1.387 . S
C671 H674 0.950 . S
C672 C671 1.387 . S
C672 C675 1.387 . S
H673 C669 0.950 . S
H674 C671 0.950 . S
C675 C666 1.390 1_545 S
C675 H668 0.950 . S
C675 C672 1.387 . S
C676 C677 1.387 . S
C676 H680 0.950 . S
C676 C685 1.390 . S
C677 C676 1.387 . S
C677 C679 1.387 . S
H678 C685 0.950 . S
C679 C677 1.387 . S
C679 C681 1.390 . S
C679 H683 0.950 . S
H680 C676 0.950 . S
C681 C679 1.390 . S
C681 C682 1.387 . S
C681 H684 0.950 . S
C682 C681 1.387 . S
C682 C685 1.387 . S
H683 C679 0.950 . S
H684 C681 0.950 . S
C685 C676 1.390 . S
C685 H678 0.950 . S
C685 C682 1.387 . S
C686 C687 1.387 . S
C686 H690 0.950 . S
C686 C695 1.390 1_455 S
C687 C686 1.387 . S
C687 C689 1.387 . S
H688 C695 0.950 . S
C689 C687 1.387 . S
C689 C691 1.390 1_455 S
C689 H693 0.950 . S
H690 C686 0.950 . S
C691 C689 1.390 1_655 S
C691 C692 1.387 . S
C691 H694 0.950 . S
C692 C691 1.387 . S
C692 C695 1.387 . S
H693 C689 0.950 . S
H694 C691 0.950 . S
C695 C686 1.390 1_655 S
C695 H688 0.950 . S
C695 C692 1.387 . S
C397 C271 1.323 . S
C402 C7 1.322 . S
C407 C304 1.324 . S
C412 C40 1.324 . S
C417 C337 1.322 . S
C422 C73 1.323 . S
C427 C370 1.324 . S
C432 C106 1.323 . S
C437 C139 1.322 . S
C442 C205 1.322 . S
C447 C238 1.324 . S
C452 C172 1.323 . S
C457 N13 1.410 . S
C462 N2 1.409 . S
C467 N35 1.408 . S
C472 N46 1.409 . S
C477 N68 1.406 . S
C482 N79 1.407 . S
C487 N101 1.406 1_554 S
C492 N112 1.408 . S
C497 N134 1.409 . S
C502 N145 1.411 . S
C507 N167 1.407 . S
C512 N178 1.408 . S
C517 N211 1.411 . S
C522 N200 1.409 . S
C527 N233 1.406 . S
C532 N244 1.408 . S
C537 N277 1.411 . S
C542 N266 1.409 . S
C547 N310 1.408 . S
C552 N299 1.406 . S
C557 N343 1.410 . S
C562 N332 1.409 1_556 S
C567 N365 1.409 . S
C572 N376 1.411 . S
C577 C21 1.600 . S
C582 C351 1.600 . S
C587 C54 1.599 . S
C592 C384 1.600 . S
C597 C87 1.600 . S
C602 C219 1.599 . S
C607 C252 1.598 . S
C612 C120 1.598 . S
C617 C285 1.599 . S
C622 C153 1.600 . S
C627 C318 1.599 . S
C632 C186 1.600 . S
C637 C18 1.454 . S
C642 C249 1.454 . S
C647 C282 1.455 . S
C652 C51 1.453 . S
C657 C315 1.453 . S
C662 C84 1.452 . S
C667 C117 1.453 . S
C672 C348 1.453 . S
C677 C381 1.452 . S
C682 C150 1.454 . S
C687 C183 1.454 . S
C692 C216 1.452 . S
