# Generated by pormake.
# Topology ums, (4)-cn, num edge types: 1
# Building blocks:
#     Node 0, Type 0, BuildingBlock: NAHDIM_clean_sbu_0, # of connection points: 4
#     Node 1, Type 0, BuildingBlock: NAHDIM_clean_sbu_0, # of connection points: 4
#     Node 2, Type 0, BuildingBlock: NAHDIM_clean_sbu_0, # of connection points: 4
#     Node 3, Type 0, BuildingBlock: NAHDIM_clean_sbu_0, # of connection points: 4
#     Node 4, Type 0, BuildingBlock: NAHDIM_clean_sbu_0, # of connection points: 4
#     Node 5, Type 0, BuildingBlock: NAHDIM_clean_sbu_0, # of connection points: 4
#     Node 6, Type 0, BuildingBlock: NAHDIM_clean_sbu_0, # of connection points: 4
#     Node 7, Type 0, BuildingBlock: NAHDIM_clean_sbu_0, # of connection points: 4
#     Node 8, Type 0, BuildingBlock: NAHDIM_clean_sbu_0, # of connection points: 4
#     Node 9, Type 0, BuildingBlock: NAHDIM_clean_sbu_0, # of connection points: 4
#     Node 10, Type 0, BuildingBlock: NAHDIM_clean_sbu_0, # of connection points: 4
#     Node 11, Type 0, BuildingBlock: NAHDIM_clean_sbu_0, # of connection points: 4
#     Node 12, Type 0, BuildingBlock: NAHDIM_clean_sbu_0, # of connection points: 4
#     Node 13, Type 0, BuildingBlock: NAHDIM_clean_sbu_0, # of connection points: 4
#     Node 14, Type 0, BuildingBlock: NAHDIM_clean_sbu_0, # of connection points: 4
#     Node 15, Type 0, BuildingBlock: NAHDIM_clean_sbu_0, # of connection points: 4
#     Node 16, Type 0, BuildingBlock: NAHDIM_clean_sbu_0, # of connection points: 4
#     Node 17, Type 0, BuildingBlock: NAHDIM_clean_sbu_0, # of connection points: 4
#     Node 18, Type 0, BuildingBlock: NAHDIM_clean_sbu_0, # of connection points: 4
#     Node 19, Type 0, BuildingBlock: NAHDIM_clean_sbu_0, # of connection points: 4
#     Node 20, Type 0, BuildingBlock: NAHDIM_clean_sbu_0, # of connection points: 4
#     Node 21, Type 0, BuildingBlock: NAHDIM_clean_sbu_0, # of connection points: 4
#     Node 22, Type 0, BuildingBlock: NAHDIM_clean_sbu_0, # of connection points: 4
#     Node 23, Type 0, BuildingBlock: NAHDIM_clean_sbu_0, # of connection points: 4
#     Node 24, Type 0, BuildingBlock: NAHDIM_clean_sbu_0, # of connection points: 4
#     Node 25, Type 0, BuildingBlock: NAHDIM_clean_sbu_0, # of connection points: 4
#     Node 26, Type 0, BuildingBlock: NAHDIM_clean_sbu_0, # of connection points: 4
#     Node 27, Type 0, BuildingBlock: NAHDIM_clean_sbu_0, # of connection points: 4
#     Node 28, Type 0, BuildingBlock: NAHDIM_clean_sbu_0, # of connection points: 4
#     Node 29, Type 0, BuildingBlock: NAHDIM_clean_sbu_0, # of connection points: 4
#     Node 30, Type 0, BuildingBlock: NAHDIM_clean_sbu_0, # of connection points: 4
#     Node 31, Type 0, BuildingBlock: NAHDIM_clean_sbu_0, # of connection points: 4
#     Node 32, Type 0, BuildingBlock: NAHDIM_clean_sbu_0, # of connection points: 4
#     Node 33, Type 0, BuildingBlock: NAHDIM_clean_sbu_0, # of connection points: 4
#     Node 34, Type 0, BuildingBlock: NAHDIM_clean_sbu_0, # of connection points: 4
#     Node 35, Type 0, BuildingBlock: NAHDIM_clean_sbu_0, # of connection points: 4
#     Edge 36, Type (0, 0), BuildingBlock: XUDNAN_clean_linker_2, # of connection points: 2
#     Edge 37, Type (0, 0), BuildingBlock: XUDNAN_clean_linker_2, # of connection points: 2
#     Edge 38, Type (0, 0), BuildingBlock: XUDNAN_clean_linker_2, # of connection points: 2
#     Edge 39, Type (0, 0), BuildingBlock: XUDNAN_clean_linker_2, # of connection points: 2
#     Edge 40, Type (0, 0), BuildingBlock: XUDNAN_clean_linker_2, # of connection points: 2
#     Edge 41, Type (0, 0), BuildingBlock: XUDNAN_clean_linker_2, # of connection points: 2
#     Edge 42, Type (0, 0), BuildingBlock: XUDNAN_clean_linker_2, # of connection points: 2
#     Edge 43, Type (0, 0), BuildingBlock: XUDNAN_clean_linker_2, # of connection points: 2
#     Edge 44, Type (0, 0), BuildingBlock: XUDNAN_clean_linker_2, # of connection points: 2
#     Edge 45, Type (0, 0), BuildingBlock: XUDNAN_clean_linker_2, # of connection points: 2
#     Edge 46, Type (0, 0), BuildingBlock: XUDNAN_clean_linker_2, # of connection points: 2
#     Edge 47, Type (0, 0), BuildingBlock: XUDNAN_clean_linker_2, # of connection points: 2
#     Edge 48, Type (0, 0), BuildingBlock: XUDNAN_clean_linker_2, # of connection points: 2
#     Edge 49, Type (0, 0), BuildingBlock: XUDNAN_clean_linker_2, # of connection points: 2
#     Edge 50, Type (0, 0), BuildingBlock: XUDNAN_clean_linker_2, # of connection points: 2
#     Edge 51, Type (0, 0), BuildingBlock: XUDNAN_clean_linker_2, # of connection points: 2
#     Edge 52, Type (0, 0), BuildingBlock: XUDNAN_clean_linker_2, # of connection points: 2
#     Edge 53, Type (0, 0), BuildingBlock: XUDNAN_clean_linker_2, # of connection points: 2
#     Edge 54, Type (0, 0), BuildingBlock: XUDNAN_clean_linker_2, # of connection points: 2
#     Edge 55, Type (0, 0), BuildingBlock: XUDNAN_clean_linker_2, # of connection points: 2
#     Edge 56, Type (0, 0), BuildingBlock: XUDNAN_clean_linker_2, # of connection points: 2
#     Edge 57, Type (0, 0), BuildingBlock: XUDNAN_clean_linker_2, # of connection points: 2
#     Edge 58, Type (0, 0), BuildingBlock: XUDNAN_clean_linker_2, # of connection points: 2
#     Edge 59, Type (0, 0), BuildingBlock: XUDNAN_clean_linker_2, # of connection points: 2
#     Edge 60, Type (0, 0), BuildingBlock: XUDNAN_clean_linker_2, # of connection points: 2
#     Edge 61, Type (0, 0), BuildingBlock: XUDNAN_clean_linker_2, # of connection points: 2
#     Edge 62, Type (0, 0), BuildingBlock: XUDNAN_clean_linker_2, # of connection points: 2
#     Edge 63, Type (0, 0), BuildingBlock: XUDNAN_clean_linker_2, # of connection points: 2
#     Edge 64, Type (0, 0), BuildingBlock: XUDNAN_clean_linker_2, # of connection points: 2
#     Edge 65, Type (0, 0), BuildingBlock: XUDNAN_clean_linker_2, # of connection points: 2
#     Edge 66, Type (0, 0), BuildingBlock: XUDNAN_clean_linker_2, # of connection points: 2
#     Edge 67, Type (0, 0), BuildingBlock: XUDNAN_clean_linker_2, # of connection points: 2
#     Edge 68, Type (0, 0), BuildingBlock: XUDNAN_clean_linker_2, # of connection points: 2
#     Edge 69, Type (0, 0), BuildingBlock: XUDNAN_clean_linker_2, # of connection points: 2
#     Edge 70, Type (0, 0), BuildingBlock: XUDNAN_clean_linker_2, # of connection points: 2
#     Edge 71, Type (0, 0), BuildingBlock: XUDNAN_clean_linker_2, # of connection points: 2
#     Edge 72, Type (0, 0), BuildingBlock: XUDNAN_clean_linker_2, # of connection points: 2
#     Edge 73, Type (0, 0), BuildingBlock: XUDNAN_clean_linker_2, # of connection points: 2
#     Edge 74, Type (0, 0), BuildingBlock: XUDNAN_clean_linker_2, # of connection points: 2
#     Edge 75, Type (0, 0), BuildingBlock: XUDNAN_clean_linker_2, # of connection points: 2
#     Edge 76, Type (0, 0), BuildingBlock: XUDNAN_clean_linker_2, # of connection points: 2
#     Edge 77, Type (0, 0), BuildingBlock: XUDNAN_clean_linker_2, # of connection points: 2
#     Edge 78, Type (0, 0), BuildingBlock: XUDNAN_clean_linker_2, # of connection points: 2
#     Edge 79, Type (0, 0), BuildingBlock: XUDNAN_clean_linker_2, # of connection points: 2
#     Edge 80, Type (0, 0), BuildingBlock: XUDNAN_clean_linker_2, # of connection points: 2
#     Edge 81, Type (0, 0), BuildingBlock: XUDNAN_clean_linker_2, # of connection points: 2
#     Edge 82, Type (0, 0), BuildingBlock: XUDNAN_clean_linker_2, # of connection points: 2
#     Edge 83, Type (0, 0), BuildingBlock: XUDNAN_clean_linker_2, # of connection points: 2
#     Edge 84, Type (0, 0), BuildingBlock: XUDNAN_clean_linker_2, # of connection points: 2
#     Edge 85, Type (0, 0), BuildingBlock: XUDNAN_clean_linker_2, # of connection points: 2
#     Edge 86, Type (0, 0), BuildingBlock: XUDNAN_clean_linker_2, # of connection points: 2
#     Edge 87, Type (0, 0), BuildingBlock: XUDNAN_clean_linker_2, # of connection points: 2
#     Edge 88, Type (0, 0), BuildingBlock: XUDNAN_clean_linker_2, # of connection points: 2
#     Edge 89, Type (0, 0), BuildingBlock: XUDNAN_clean_linker_2, # of connection points: 2
#     Edge 90, Type (0, 0), BuildingBlock: XUDNAN_clean_linker_2, # of connection points: 2
#     Edge 91, Type (0, 0), BuildingBlock: XUDNAN_clean_linker_2, # of connection points: 2
#     Edge 92, Type (0, 0), BuildingBlock: XUDNAN_clean_linker_2, # of connection points: 2
#     Edge 93, Type (0, 0), BuildingBlock: XUDNAN_clean_linker_2, # of connection points: 2
#     Edge 94, Type (0, 0), BuildingBlock: XUDNAN_clean_linker_2, # of connection points: 2
#     Edge 95, Type (0, 0), BuildingBlock: XUDNAN_clean_linker_2, # of connection points: 2
#     Edge 96, Type (0, 0), BuildingBlock: XUDNAN_clean_linker_2, # of connection points: 2
#     Edge 97, Type (0, 0), BuildingBlock: XUDNAN_clean_linker_2, # of connection points: 2
#     Edge 98, Type (0, 0), BuildingBlock: XUDNAN_clean_linker_2, # of connection points: 2
#     Edge 99, Type (0, 0), BuildingBlock: XUDNAN_clean_linker_2, # of connection points: 2
#     Edge 100, Type (0, 0), BuildingBlock: XUDNAN_clean_linker_2, # of connection points: 2
#     Edge 101, Type (0, 0), BuildingBlock: XUDNAN_clean_linker_2, # of connection points: 2
#     Edge 102, Type (0, 0), BuildingBlock: XUDNAN_clean_linker_2, # of connection points: 2
#     Edge 103, Type (0, 0), BuildingBlock: XUDNAN_clean_linker_2, # of connection points: 2
#     Edge 104, Type (0, 0), BuildingBlock: XUDNAN_clean_linker_2, # of connection points: 2
#     Edge 105, Type (0, 0), BuildingBlock: XUDNAN_clean_linker_2, # of connection points: 2
#     Edge 106, Type (0, 0), BuildingBlock: XUDNAN_clean_linker_2, # of connection points: 2
#     Edge 107, Type (0, 0), BuildingBlock: XUDNAN_clean_linker_2, # of connection points: 2
# Relax obj value: 0.131
# Max RMSD: 0.119
# Mean RMSD: 0.114
data_MOF--net-ums--node1-NAHDIM_clean_sbu_0--edge1-XUDNAN_clean_linker_2
_symmetry_space_group_name_H-M    P1
_symmetry_Int_Tables_number       1
_symmetry_cell_setting            triclinic
loop_
_symmetry_equiv_pos_as_xyz
'x, y, z'
_cell_length_a     101.09218
_cell_length_b     101.07361
_cell_length_c     23.718225
_cell_angle_alpha  90.007009
_cell_angle_beta   89.962984
_cell_angle_gamma 119.99962
loop_
_atom_site_label
_atom_site_type_symbol
_atom_site_fract_x
_atom_site_fract_y
_atom_site_fract_z
_atom_type_partial_charge
C0 C 0.17259 0.22335 0.16926 0.0
O1 O 0.17846 0.23674 0.19397 0.0
O2 O 0.1756 0.25708 0.10988 0.0
Zn3 Zn 0.15748 0.23578 0.1051 0.0
O4 O 0.141 0.23463 0.15604 0.0
C5 C 0.15803 0.23768 0.98351 0.0
O6 O 0.17289 0.2457 0.99098 0.0
O7 O 0.16334 0.22031 0.12857 0.0
C8 C 0.13424 0.22439 0.19339 0.0
O9 O 0.138 0.21379 0.20014 0.0
C10 C 0.17377 0.26817 0.09548 0.0
O11 O 0.16025 0.26529 0.07806 0.0
O12 O 0.14936 0.23193 0.02606 0.0
C13 C 0.76538 0.94755 0.18177 0.0
O14 O 0.75548 0.93484 0.20713 0.0
O15 O 0.73522 0.91783 0.09039 0.0
Zn16 Zn 0.75797 0.92648 0.0922 0.0
O17 O 0.76159 0.91133 0.13466 0.0
C18 C 0.75688 0.91468 0.98628 0.0
O19 O 0.7451 0.90354 0.01236 0.0
O20 O 0.76849 0.94705 0.13016 0.0
C21 C 0.77232 0.91451 0.16944 0.0
O22 O 0.78236 0.92885 0.18016 0.0
C23 C 0.72795 0.92504 0.09361 0.0
O24 O 0.73548 0.93995 0.10002 0.0
O25 O 0.76512 0.9271 0.01265 0.0
C26 C 0.0526 0.8234 0.15932 0.0
O27 O 0.06122 0.818 0.17785 0.0
O28 O 0.0797 0.8205 0.07152 0.0
Zn29 Zn 0.07852 0.83932 0.09076 0.0
O30 O 0.09338 0.85172 0.15186 0.0
C31 C 0.09677 0.85611 -0.00054 0.0
O32 O 0.10558 0.85185 0.02484 0.0
O33 O 0.0575 0.83305 0.11929 0.0
C34 C 0.09601 0.86527 0.15963 0.0
O35 O 0.08924 0.87059 0.12699 0.0
C36 C 0.08977 0.81786 0.09192 0.0
O37 O 0.09963 0.82748 0.12856 0.0
O38 O 0.08373 0.85211 0.02048 0.0
C39 C 0.21298 0.16294 0.34469 0.0
O40 O 0.20926 0.14858 0.33815 0.0
O41 O 0.26057 0.18296 0.40543 0.0
Zn42 Zn 0.23929 0.16468 0.39846 0.0
O43 O 0.23949 0.15019 0.34056 0.0
C44 C 0.24195 0.15119 0.49889 0.0
O45 O 0.25511 0.15514 0.47478 0.0
O46 O 0.22514 0.17192 0.37119 0.0
C47 C 0.23203 0.1357 0.34434 0.0
O48 O 0.2234 0.12924 0.38874 0.0
C49 C 0.27216 0.18233 0.38822 0.0
O50 O 0.27019 0.16963 0.36535 0.0
O51 O 0.23262 0.15415 0.47379 0.0
C52 C 0.8236 0.05254 0.32639 0.0
O53 O 0.82837 0.06235 0.28449 0.0
O54 O 0.82183 0.08557 0.42092 0.0
Zn55 Zn 0.83731 0.07969 0.39747 0.0
O56 O 0.85046 0.09326 0.33439 0.0
C57 C 0.84606 0.08207 0.51401 0.0
O58 O 0.83151 0.07737 0.52197 0.0
O59 O 0.82637 0.05745 0.37678 0.0
C60 C 0.85918 0.10724 0.34697 0.0
O61 O 0.85861 0.11182 0.39831 0.0
C62 C 0.81476 0.08988 0.38823 0.0
O63 O 0.81742 0.09075 0.33375 0.0
O64 O 0.85106 0.08333 0.46398 0.0
C65 C 0.95169 0.76906 0.33533 0.0
O66 O 0.94948 0.75584 0.35362 0.0
O67 O 0.91628 0.7344 0.36522 0.0
Zn68 Zn 0.91846 0.75416 0.33706 0.0
O69 O 0.90902 0.75058 0.2601 0.0
C70 C 0.8923 0.75022 0.3915 0.0
O71 O 0.88664 0.73884 0.35539 0.0
O72 O 0.94028 0.77096 0.32871 0.0
C73 C 0.90483 0.7595 0.23944 0.0
O74 O 0.90641 0.77111 0.26956 0.0
C75 C 0.91779 0.72498 0.33432 0.0
O76 O 0.92215 0.72859 0.28166 0.0
O77 O 0.9066 0.75953 0.39128 0.0
C78 C 0.811 0.76644 0.78989 0.0
O79 O 0.80977 0.75752 0.74753 0.0
O80 O 0.80935 0.73006 0.86352 0.0
Zn81 Zn 0.82519 0.75093 0.8373 0.0
O82 O 0.83185 0.74899 0.75938 0.0
C83 C 0.84846 0.74879 0.89097 0.0
O84 O 0.84337 0.73757 0.85419 0.0
O85 O 0.81715 0.76559 0.83546 0.0
C86 C 0.84484 0.75849 0.7392 0.0
O87 O 0.85457 0.77001 0.77038 0.0
C88 C 0.79488 0.72348 0.86166 0.0
O89 O 0.78826 0.73063 0.83967 0.0
O90 O 0.84267 0.75743 0.89133 0.0
C91 C 0.24277 0.05858 0.81138 0.0
O92 O 0.25197 0.0715 0.78566 0.0
O93 O 0.27353 0.08755 0.90339 0.0
Zn94 Zn 0.25089 0.07992 0.89766 0.0
O95 O 0.24746 0.09344 0.84469 0.0
C96 C 0.24847 0.09425 0.99422 0.0
O97 O 0.25841 0.10582 0.96368 0.0
O98 O 0.24032 0.05884 0.86386 0.0
C99 C 0.23475 0.09297 0.83868 0.0
O100 O 0.22305 0.08355 0.86985 0.0
C101 C 0.28325 0.10087 0.88639 0.0
O102 O 0.27842 0.10961 0.86426 0.0
O103 O 0.24291 0.08082 0.97448 0.0
C104 C 0.95532 0.18015 0.84835 0.0
O105 O 0.94572 0.17618 0.80593 0.0
O106 O 0.91974 0.17945 0.89035 0.0
Zn107 Zn 0.92714 0.16457 0.90482 0.0
O108 O 0.91846 0.14818 0.8455 0.0
C109 C 0.92391 0.16404 0.02476 0.0
O110 O 0.9331 0.17879 0.01801 0.0
O111 O 0.95004 0.17617 0.89795 0.0
C112 C 0.90427 0.13857 0.84288 0.0
O113 O 0.89507 0.139 0.88108 0.0
C114 C 0.90761 0.17781 0.913 0.0
O115 O 0.89957 0.166 0.94596 0.0
O116 O 0.92017 0.15535 0.98193 0.0
C117 C 0.76964 0.83155 0.6713 0.0
O118 O 0.76352 0.83794 0.70187 0.0
O119 O 0.73512 0.82517 0.56983 0.0
Zn120 Zn 0.75718 0.84112 0.58248 0.0
O121 O 0.75773 0.85695 0.63492 0.0
C122 C 0.76263 0.84367 0.46284 0.0
O123 O 0.75383 0.82875 0.46485 0.0
O124 O 0.76861 0.83161 0.61784 0.0
C125 C 0.76916 0.87036 0.63876 0.0
O126 O 0.78106 0.87437 0.60605 0.0
C127 C 0.72963 0.81098 0.57908 0.0
O128 O 0.7386 0.80608 0.59821 0.0
O129 O 0.7662 0.85124 0.5085 0.0
C130 C 0.18908 0.95411 0.66043 0.0
O131 O 0.18511 0.94423 0.70191 0.0
O132 O 0.19307 0.92163 0.58104 0.0
Zn133 Zn 0.17651 0.92691 0.59226 0.0
O134 O 0.16226 0.91471 0.65524 0.0
C135 C 0.15872 0.9092 0.49861 0.0
O136 O 0.16062 0.89873 0.52408 0.0
O137 O 0.18639 0.94929 0.6099 0.0
C138 C 0.14976 0.9147 0.66105 0.0
O139 O 0.14641 0.92253 0.62535 0.0
C140 C 0.19275 0.90991 0.60202 0.0
O141 O 0.18116 0.90062 0.63394 0.0
O142 O 0.16455 0.92245 0.52025 0.0
C143 C 0.05948 0.2428 0.70149 0.0
O144 O 0.07222 0.25267 0.72666 0.0
O145 O 0.0874 0.27382 0.60266 0.0
Zn146 Zn 0.07992 0.25131 0.60818 0.0
O147 O 0.09591 0.249 0.65062 0.0
C148 C 0.08047 0.23227 0.51833 0.0
O149 O 0.08178 0.2245 0.56021 0.0
O150 O 0.05976 0.24029 0.64907 0.0
C151 C 0.09285 0.23771 0.68249 0.0
O152 O 0.07862 0.22672 0.68827 0.0
C153 C 0.07959 0.28028 0.61195 0.0
O154 O 0.06522 0.272 0.62717 0.0
O155 O 0.07869 0.24359 0.52917 0.0
C156 C 0.85443 0.57853 0.56731 0.0
O157 O 0.85655 0.59042 0.59698 0.0
O158 O 0.85674 0.61031 0.47813 0.0
Zn159 Zn 0.8393 0.58998 0.50337 0.0
O160 O 0.82932 0.5916 0.5744 0.0
C161 C 0.82673 0.58558 0.3912 0.0
O162 O 0.84118 0.59369 0.3768 0.0
O163 O 0.84719 0.5757 0.52097 0.0
C164 C 0.81842 0.59443 0.57578 0.0
O165 O 0.81375 0.5976 0.52866 0.0
C166 C 0.85984 0.62314 0.49869 0.0
O167 O 0.85167 0.62359 0.54096 0.0
O168 O 0.82329 0.58193 0.4426 0.0
C169 C 0.41765 0.27421 0.52723 0.0
O170 O 0.40746 0.26125 0.5503 0.0
O171 O 0.38885 0.24574 0.42653 0.0
Zn172 Zn 0.41143 0.25393 0.43608 0.0
O173 O 0.41391 0.23867 0.48269 0.0
C174 C 0.41482 0.24156 0.33737 0.0
O175 O 0.40379 0.22982 0.36407 0.0
O176 O 0.42138 0.27425 0.47599 0.0
C177 C 0.42509 0.24219 0.51561 0.0
O178 O 0.4358 0.25656 0.52093 0.0
C179 C 0.38203 0.25335 0.43222 0.0
O180 O 0.38995 0.26794 0.44486 0.0
O181 O 0.42063 0.25468 0.36012 0.0
C182 C 0.71204 0.13535 0.50839 0.0
O183 O 0.71937 0.1286 0.52743 0.0
O184 O 0.74647 0.13826 0.44187 0.0
Zn185 Zn 0.74028 0.15438 0.44741 0.0
O186 O 0.75387 0.1697 0.50485 0.0
C187 C 0.75665 0.16924 0.34935 0.0
O188 O 0.76667 0.16672 0.37525 0.0
O189 O 0.71852 0.14608 0.47259 0.0
C190 C 0.75697 0.18352 0.50716 0.0
O191 O 0.75114 0.18866 0.46944 0.0
C192 C 0.75174 0.13505 0.48518 0.0
O193 O 0.75201 0.14149 0.5336 0.0
O194 O 0.74377 0.1648 0.37248 0.0
C195 C 0.88955 0.50555 0.64109 0.0
O196 O 0.88868 0.49821 0.59427 0.0
O197 O 0.92998 0.50658 0.69079 0.0
Zn198 Zn 0.90747 0.49211 0.67957 0.0
O199 O 0.90446 0.4824 0.60317 0.0
C200 C 0.90946 0.47286 0.76312 0.0
O201 O 0.92364 0.47984 0.74504 0.0
O202 O 0.89652 0.50417 0.68333 0.0
C203 C 0.90457 0.47008 0.59371 0.0
O204 O 0.90659 0.46283 0.63579 0.0
C205 C 0.93632 0.52098 0.68511 0.0
O206 O 0.92801 0.52707 0.67035 0.0
O207 O 0.89999 0.47611 0.74085 0.0
C208 C 0.47658 0.37727 0.68782 0.0
O209 O 0.48215 0.38734 0.64683 0.0
O210 O 0.47815 0.41322 0.75596 0.0
Zn211 Zn 0.49218 0.40437 0.75421 0.0
O212 O 0.50836 0.41401 0.69411 0.0
C213 C 0.50459 0.41913 0.85972 0.0
O214 O 0.49958 0.42808 0.84129 0.0
O215 O 0.47945 0.38186 0.7386 0.0
C216 C 0.51949 0.42762 0.69704 0.0
O217 O 0.52054 0.43617 0.74041 0.0
C218 C 0.47938 0.42421 0.72602 0.0
O219 O 0.49033 0.43049 0.6883 0.0
O220 O 0.50256 0.40784 0.82969 0.0
C221 C 0.61547 0.09715 0.71461 0.0
O222 O 0.61284 0.08524 0.74519 0.0
O223 O 0.57831 0.06574 0.74653 0.0
Zn224 Zn 0.58376 0.0877 0.73925 0.0
O225 O 0.56948 0.08894 0.68373 0.0
C226 C 0.58299 0.08904 0.85948 0.0
O227 O 0.58832 0.0796 0.85481 0.0
O228 O 0.60501 0.10052 0.70892 0.0
C229 C 0.56875 0.10107 0.67827 0.0
O230 O 0.5772 0.11284 0.71085 0.0
C231 C 0.57969 0.05789 0.70758 0.0
O232 O 0.58512 0.06423 0.65829 0.0
O233 O 0.58087 0.09478 0.81509 0.0
C234 C 0.48782 0.10272 0.14255 0.0
O235 O 0.48869 0.09149 0.11826 0.0
O236 O 0.47931 0.07138 0.24678 0.0
Zn237 Zn 0.4978 0.09215 0.23427 0.0
O238 O 0.51354 0.09024 0.18815 0.0
C239 C 0.51036 0.0913 0.33641 0.0
O240 O 0.507 0.07823 0.31269 0.0
O241 O 0.4913 0.10552 0.19438 0.0
C242 C 0.52318 0.10095 0.15691 0.0
O243 O 0.52295 0.11381 0.1535 0.0
C244 C 0.47701 0.05962 0.21933 0.0
O245 O 0.48671 0.061 0.17971 0.0
O246 O 0.50726 0.10035 0.30999 0.0
C247 C 0.90363 0.37475 0.13144 0.0
O248 O 0.9114 0.38268 0.08729 0.0
O249 O 0.93929 0.41041 0.1876 0.0
Zn250 Zn 0.91728 0.40459 0.17748 0.0
O251 O 0.91447 0.41276 0.10379 0.0
C252 C 0.91047 0.42569 0.23439 0.0
O253 O 0.91353 0.43215 0.18444 0.0
O254 O 0.90435 0.38173 0.17691 0.0
C255 C 0.90108 0.40906 0.08753 0.0
O256 O 0.88934 0.39969 0.11871 0.0
C257 C 0.94928 0.42434 0.19543 0.0
O258 O 0.94502 0.43467 0.19519 0.0
O259 O 0.91118 0.41359 0.24173 0.0
C260 C 0.60489 0.50582 0.17332 0.0
O261 O 0.59242 0.50103 0.1432 0.0
O262 O 0.57672 0.50927 0.28088 0.0
Zn263 Zn 0.58265 0.49359 0.26049 0.0
O264 O 0.56783 0.47882 0.204 0.0
C265 C 0.58134 0.48651 0.37915 0.0
O266 O 0.58448 0.50071 0.38531 0.0
O267 O 0.60376 0.50396 0.22651 0.0
C268 C 0.56755 0.46633 0.19403 0.0
O269 O 0.5768 0.4631 0.222 0.0
C270 C 0.56782 0.51183 0.25095 0.0
O271 O 0.56251 0.50434 0.20342 0.0
O272 O 0.58097 0.48142 0.32984 0.0
C273 C 0.44327 0.1624 0.99576 0.0
O274 O 0.43807 0.16681 0.03826 0.0
O275 O 0.40487 0.15682 0.93067 0.0
Zn276 Zn 0.42683 0.1736 0.93212 0.0
O277 O 0.42881 0.18787 0.99465 0.0
C278 C 0.42697 0.17651 0.8129 0.0
O279 O 0.42015 0.16155 0.81674 0.0
O280 O 0.44016 0.16443 0.94575 0.0
C281 C 0.43739 0.2023 0.99428 0.0
O282 O 0.44626 0.20897 0.9506 0.0
C283 C 0.39496 0.1604 0.91633 0.0
O284 O 0.3995 0.17468 0.90335 0.0
O285 O 0.43157 0.18445 0.85763 0.0
C286 C 0.84569 0.26616 0.03011 0.0
O287 O 0.84056 0.25394 0.06199 0.0
O288 O 0.84815 0.23558 0.9386 0.0
Zn289 Zn 0.8333 0.24314 0.94645 0.0
O290 O 0.81738 0.22941 0.00198 0.0
C291 C 0.81757 0.22835 0.84892 0.0
O292 O 0.81868 0.21753 0.87544 0.0
O293 O 0.84399 0.26457 0.97696 0.0
C294 C 0.80426 0.22811 0.00655 0.0
O295 O 0.80039 0.23581 0.97228 0.0
C296 C 0.85924 0.24119 0.90406 0.0
O297 O 0.86157 0.25284 0.87248 0.0
O298 O 0.82334 0.24147 0.87155 0.0
C299 C 0.71186 0.56844 0.0565 0.0
O300 O 0.71991 0.57623 0.10039 0.0
O301 O 0.7433 0.60708 0.99471 0.0
Zn302 Zn 0.74082 0.58619 0.00519 0.0
O303 O 0.75088 0.58502 0.0771 0.0
C304 C 0.75227 0.58752 0.8914 0.0
O305 O 0.74549 0.59541 0.87998 0.0
O306 O 0.71843 0.57066 0.0089 0.0
C307 C 0.76433 0.587 0.07762 0.0
O308 O 0.77221 0.59051 0.03051 0.0
C309 C 0.75661 0.61873 0.99345 0.0
O310 O 0.76846 0.61693 0.00162 0.0
O311 O 0.75109 0.58204 0.94055 0.0
C312 C 0.5192 0.90106 0.87223 0.0
O313 O 0.52066 0.90925 0.91727 0.0
O314 O 0.52486 0.93945 0.80471 0.0
Zn315 Zn 0.50722 0.91918 0.82952 0.0
O316 O 0.50071 0.92089 0.9082 0.0
C317 C 0.48513 0.92371 0.77623 0.0
O318 O 0.49041 0.93455 0.81454 0.0
O319 O 0.51349 0.90318 0.82777 0.0
C320 C 0.48722 0.91273 0.927 0.0
O321 O 0.47661 0.90246 0.89404 0.0
C322 C 0.52898 0.95164 0.83262 0.0
O323 O 0.5223 0.95085 0.88102 0.0
O324 O 0.49028 0.91454 0.77484 0.0
C325 C 0.08413 0.60735 0.8743 0.0
O326 O 0.0734 0.59447 0.89615 0.0
O327 O 0.05617 0.58094 0.77303 0.0
Zn328 Zn 0.07805 0.58677 0.78656 0.0
O329 O 0.07897 0.57177 0.83932 0.0
C330 C 0.08336 0.58952 0.66697 0.0
O331 O 0.07375 0.59468 0.66871 0.0
O332 O 0.08862 0.60728 0.82423 0.0
C333 C 0.09092 0.57069 0.84302 0.0
O334 O 0.10264 0.57916 0.81022 0.0
C335 C 0.04576 0.56706 0.768 0.0
O336 O 0.04934 0.55628 0.77266 0.0
O337 O 0.08751 0.58621 0.71284 0.0
C338 C 0.3823 0.47558 0.86665 0.0
O339 O 0.39481 0.47873 0.89425 0.0
O340 O 0.41512 0.48073 0.79208 0.0
Zn341 Zn 0.40525 0.49387 0.7911 0.0
O342 O 0.41544 0.51129 0.84647 0.0
C343 C 0.40644 0.49564 0.66873 0.0
O344 O 0.40387 0.48158 0.67193 0.0
O345 O 0.38351 0.48088 0.81711 0.0
C346 C 0.42899 0.51675 0.86476 0.0
O347 O 0.43738 0.51105 0.8467 0.0
C348 C 0.42706 0.48359 0.76454 0.0
O349 O 0.434 0.49608 0.73395 0.0
O350 O 0.40677 0.50266 0.71366 0.0
C351 C 0.57039 0.84242 0.94655 0.0
O352 O 0.57755 0.83834 0.91043 0.0
O353 O 0.60741 0.85234 0.03847 0.0
Zn354 Zn 0.58658 0.83418 0.02475 0.0
O355 O 0.58766 0.82073 0.9646 0.0
C356 C 0.58441 0.82549 0.14353 0.0
O357 O 0.59526 0.8397 0.15147 0.0
O358 O 0.57236 0.84156 0.99911 0.0
C359 C 0.5758 0.80779 0.95677 0.0
O360 O 0.56368 0.80388 0.98816 0.0
C361 C 0.61916 0.85084 0.03875 0.0
O362 O 0.61752 0.83727 0.02983 0.0
O363 O 0.57885 0.82119 0.0945 0.0
C364 C 0.13237 0.7121 0.01946 0.0
O365 O 0.13024 0.71787 0.06593 0.0
O366 O 0.13618 0.75102 0.99607 0.0
Zn367 Zn 0.15117 0.74379 0.9842 0.0
O368 O 0.16264 0.75228 0.91204 0.0
C369 C 0.17234 0.76722 0.04929 0.0
O370 O 0.16916 0.7741 0.00896 0.0
O371 O 0.14082 0.72102 0.98084 0.0
C372 C 0.1737 0.7501 0.90083 0.0
O373 O 0.17703 0.74221 0.93631 0.0
C374 C 0.12359 0.7469 0.97124 0.0
O375 O 0.11884 0.73633 0.93198 0.0
O376 O 0.16599 0.75273 0.04829 0.0
C377 C 0.27529 0.42185 0.99174 0.0
O378 O 0.26624 0.42016 0.94926 0.0
O379 O 0.23725 0.38544 0.06352 0.0
Zn380 Zn 0.24704 0.40825 0.05555 0.0
O381 O 0.23697 0.41268 0.99096 0.0
C382 C 0.23012 0.41119 0.14591 0.0
O383 O 0.2189 0.39982 0.11855 0.0
O384 O 0.2696 0.41757 0.04071 0.0
C385 C 0.23661 0.42504 0.98746 0.0
O386 O 0.24294 0.43534 0.02743 0.0
C387 C 0.24406 0.37906 0.08579 0.0
O388 O 0.25811 0.38756 0.10418 0.0
O389 O 0.24364 0.4169 0.12692 0.0
C390 C 0.15145 0.44084 0.49747 0.0
O391 O 0.15566 0.4363 0.45246 0.0
O392 O 0.14529 0.40168 0.56734 0.0
Zn393 Zn 0.16258 0.42327 0.55662 0.0
O394 O 0.17518 0.42418 0.48929 0.0
C395 C 0.18171 0.42187 0.64207 0.0
O396 O 0.17961 0.41016 0.61138 0.0
O397 O 0.15357 0.43687 0.54592 0.0
C398 C 0.18919 0.43423 0.48418 0.0
O399 O 0.19575 0.44471 0.52343 0.0
C400 C 0.14601 0.39029 0.54853 0.0
O401 O 0.15822 0.39262 0.52056 0.0
O402 O 0.1756 0.42961 0.62656 0.0
C403 C 0.57105 0.71103 0.47032 0.0
O404 O 0.57768 0.71911 0.42495 0.0
O405 O 0.60876 0.74619 0.52697 0.0
Zn406 Zn 0.58652 0.74053 0.52483 0.0
O407 O 0.58196 0.75041 0.45948 0.0
C408 C 0.59056 0.75809 0.62671 0.0
O409 O 0.60477 0.76601 0.60929 0.0
O410 O 0.57336 0.71777 0.51756 0.0
C411 C 0.58391 0.76384 0.46165 0.0
O412 O 0.58944 0.77198 0.50773 0.0
C413 C 0.6194 0.75862 0.50664 0.0
O414 O 0.61594 0.76803 0.48126 0.0
O415 O 0.58092 0.74682 0.59754 0.0
C416 C 0.2814 0.84796 0.49539 0.0
O417 O 0.27922 0.85344 0.54253 0.0
O418 O 0.2454 0.84781 0.51896 0.0
Zn419 Zn 0.24818 0.83075 0.48924 0.0
O420 O 0.23583 0.82332 0.41861 0.0
C421 C 0.22718 0.81 0.56668 0.0
O422 O 0.21958 0.81632 0.54617 0.0
O423 O 0.26993 0.83809 0.46784 0.0
C424 C 0.23002 0.80984 0.39931 0.0
O425 O 0.23163 0.79954 0.42746 0.0
C426 C 0.25122 0.8608 0.49529 0.0
O427 O 0.26023 0.86366 0.45153 0.0
O428 O 0.24043 0.81416 0.54749 0.0
C429 C 0.09505 0.49195 0.38151 0.0
O430 O 0.08453 0.49341 0.40876 0.0
O431 O 0.06363 0.48864 0.28977 0.0
Zn432 Zn 0.08575 0.50487 0.29474 0.0
O433 O 0.08702 0.52235 0.33984 0.0
C434 C 0.08374 0.51581 0.19049 0.0
O435 O 0.0714 0.51376 0.21677 0.0
O436 O 0.09788 0.49627 0.33042 0.0
C437 C 0.09738 0.53041 0.37525 0.0
O438 O 0.10843 0.52747 0.38527 0.0
C439 C 0.05899 0.47473 0.27815 0.0
O440 O 0.06899 0.47016 0.27161 0.0
O441 O 0.09279 0.51258 0.21619 0.0
C442 C 0.50535 0.60275 0.37187 0.0
O443 O 0.49695 0.59101 0.40464 0.0
O444 O 0.50826 0.56936 0.29346 0.0
Zn445 Zn 0.49463 0.57859 0.29199 0.0
O446 O 0.47634 0.56653 0.34193 0.0
C447 C 0.47545 0.5779 0.20053 0.0
O448 O 0.46885 0.58162 0.24033 0.0
O449 O 0.5062 0.60046 0.31957 0.0
C450 C 0.47048 0.55233 0.35162 0.0
O451 O 0.47637 0.54473 0.32755 0.0
C452 C 0.51751 0.57133 0.33311 0.0
O453 O 0.51847 0.57982 0.37654 0.0
O454 O 0.4871 0.57681 0.21265 0.0
C455 C 0.38891 0.90818 0.38311 0.0
O456 O 0.3968 0.91702 0.42532 0.0
O457 O 0.4214 0.94547 0.30603 0.0
Zn458 Zn 0.418 0.92496 0.33055 0.0
O459 O 0.42755 0.92738 0.4069 0.0
C460 C 0.44328 0.92683 0.27421 0.0
O461 O 0.44995 0.93777 0.31178 0.0
O462 O 0.39556 0.90945 0.33623 0.0
C463 C 0.43084 0.91773 0.42694 0.0
O464 O 0.42838 0.90588 0.39636 0.0
C465 C 0.41614 0.95291 0.33156 0.0
O466 O 0.4073 0.94681 0.37572 0.0
O467 O 0.42878 0.91882 0.27403 0.0
H468 H 0.21719 0.19188 0.35164 0.0
H469 H 0.18846 0.14756 0.27432 0.0
H470 H 0.17464 0.15807 0.22223 0.0
H471 H 0.18749 0.20212 0.36652 0.0
H472 H 0.20036 0.22199 0.35086 0.0
H473 H 0.20746 0.21073 0.384 0.0
H474 H 0.22738 0.21802 0.30389 0.0
H475 H 0.22027 0.22919 0.27029 0.0
H476 H 0.22099 0.2142 0.23169 0.0
H477 H 0.16498 0.17379 0.17435 0.0
H478 H 0.15925 0.19327 0.138 0.0
H479 H 0.19406 0.22715 0.24786 0.0
C480 C 0.20789 0.18433 0.32424 0.0
C481 C 0.20391 0.1689 0.31705 0.0
C482 C 0.19169 0.15941 0.28064 0.0
C483 C 0.18378 0.16528 0.25078 0.0
C484 C 0.18817 0.1806 0.25812 0.0
C485 C 0.19984 0.18996 0.29434 0.0
C486 C 0.20249 0.20609 0.29394 0.0
C487 C 0.19925 0.21048 0.3523 0.0
C488 C 0.21875 0.21755 0.27374 0.0
C489 C 0.19063 0.20439 0.25124 0.0
C490 C 0.18249 0.18961 0.23105 0.0
C491 C 0.17119 0.18537 0.19015 0.0
C492 C 0.16807 0.19654 0.16962 0.0
C493 C 0.17619 0.21173 0.19017 0.0
C494 C 0.1876 0.21563 0.23151 0.0
H495 H 0.81716 0.03779 0.2241 0.0
H496 H 0.80952 0.02967 0.40416 0.0
H497 H 0.79384 0.00201 0.38647 0.0
H498 H 0.77976 0.00915 0.17991 0.0
H499 H 0.78639 0.0036 0.11866 0.0
H500 H 0.79718 0.02282 0.14527 0.0
H501 H 0.82121 0.02001 0.15352 0.0
H502 H 0.81052 0.00079 0.12679 0.0
H503 H 0.82021 0.00437 0.19359 0.0
H504 H 0.77845 0.97538 0.34951 0.0
H505 H 0.76517 0.95131 0.29572 0.0
H506 H 0.78323 0.97657 0.13979 0.0
C507 C 0.81222 0.0302 0.25983 0.0
C508 C 0.81456 0.03592 0.31552 0.0
C509 C 0.80792 0.02558 0.36111 0.0
C510 C 0.79897 0.00984 0.35153 0.0
C511 C 0.79682 0.0046 0.29616 0.0
C512 C 0.80332 0.01443 0.25107 0.0
C513 C 0.79926 0.00579 0.19573 0.0
C514 C 0.7901 0.01063 0.15767 0.0
C515 C 0.81366 0.00786 0.16565 0.0
C516 C 0.78943 0.98958 0.21682 0.0
C517 C 0.78812 0.98917 0.27486 0.0
C518 C 0.77942 0.97553 0.30405 0.0
C519 C 0.77189 0.96193 0.27309 0.0
C520 C 0.77319 0.96205 0.21359 0.0
C521 C 0.78209 0.97609 0.18526 0.0
H522 H 0.97827 0.76799 0.33618 0.0
H523 H 0.95935 0.7964 0.2853 0.0
H524 H 0.9837 0.81425 0.23891 0.0
H525 H 0.01767 0.79964 0.36111 0.0
H526 H 0.02599 0.78879 0.33396 0.0
H527 H 0.0076 0.77913 0.36804 0.0
H528 H 0.996 0.76225 0.2793 0.0
H529 H 0.01428 0.77195 0.24472 0.0
H530 H 0.99787 0.77124 0.21181 0.0
H531 H 0.00905 0.82745 0.1893 0.0
H532 H 0.03431 0.83604 0.14593 0.0
H533 H 0.03678 0.7993 0.2309 0.0
C534 C 0.97933 0.77813 0.31635 0.0
C535 C 0.96689 0.78078 0.31442 0.0
C536 C 0.96873 0.79413 0.28752 0.0
C537 C 0.98252 0.80434 0.26096 0.0
C538 C 0.9944 0.80113 0.26219 0.0
C539 C 0.99303 0.78846 0.28984 0.0
C540 C 0.00727 0.78725 0.28274 0.0
C541 C 0.01509 0.7888 0.33986 0.0
C542 C 0.00363 0.77229 0.25285 0.0
C543 C 0.0167 0.80099 0.24558 0.0
C544 C 0.0091 0.80888 0.2343 0.0
C545 C 0.01521 0.8215 0.19849 0.0
C546 C 0.02951 0.82625 0.17382 0.0
C547 C 0.03753 0.81839 0.18526 0.0
C548 C 0.03101 0.80565 0.22181 0.0
H549 H 0.80119 0.77362 0.69347 0.0
H550 H 0.80857 0.78425 0.87206 0.0
H551 H 0.79937 0.80264 0.86072 0.0
H552 H 0.81339 0.81193 0.64613 0.0
H553 H 0.79927 0.80577 0.591 0.0
H554 H 0.8065 0.79355 0.61329 0.0
H555 H 0.7789 0.77178 0.63367 0.0
H556 H 0.77158 0.78391 0.61134 0.0
H557 H 0.76691 0.7753 0.68035 0.0
H558 H 0.78863 0.81926 0.83006 0.0
H559 H 0.77753 0.83318 0.78237 0.0
H560 H 0.77789 0.81202 0.62347 0.0
C561 C 0.80088 0.7798 0.73029 0.0
C562 C 0.80555 0.77748 0.78372 0.0
C563 C 0.80504 0.78585 0.83072 0.0
C564 C 0.79984 0.79632 0.82469 0.0
C565 C 0.79532 0.79832 0.77135 0.0
C566 C 0.79584 0.79033 0.72496 0.0
C567 C 0.79032 0.79453 0.67228 0.0
C568 C 0.80314 0.80189 0.62808 0.0
C569 C 0.77608 0.78055 0.64801 0.0
C570 C 0.78646 0.80604 0.69634 0.0
C571 C 0.78941 0.80807 0.75354 0.0
C572 C 0.78636 0.81783 0.78523 0.0
C573 C 0.78004 0.82567 0.75776 0.0
C574 C 0.77691 0.82373 0.69917 0.0
C575 C 0.78029 0.81386 0.66817 0.0
H576 H 0.2262 0.0292 0.85207 0.0
H577 H 0.24228 0.05544 0.69713 0.0
H578 H 0.22973 0.03162 0.64191 0.0
H579 H 0.23164 0.99835 0.8073 0.0
H580 H 0.2148 0.98379 0.84235 0.0
H581 H 0.22465 0.00295 0.86995 0.0
H582 H 0.1996 0.00402 0.86511 0.0
H583 H 0.18966 0.98487 0.8374 0.0
H584 H 0.18947 0.00018 0.79915 0.0
H585 H 0.21557 0.00514 0.60329 0.0
H586 H 0.20144 0.97747 0.58382 0.0
H587 H 0.19494 0.96827 0.76364 0.0
C588 C 0.22703 0.02993 0.80653 0.0
C589 C 0.2352 0.04418 0.77892 0.0
C590 C 0.23611 0.04465 0.71926 0.0
C591 C 0.22898 0.03119 0.68746 0.0
C592 C 0.22104 0.01734 0.71591 0.0
C593 C 0.22006 0.01657 0.77407 0.0
C594 C 0.21113 0.00016 0.7941 0.0
C595 C 0.22116 0.99608 0.83057 0.0
C596 C 0.1966 0.99713 0.82581 0.0
C597 C 0.20729 0.99185 0.7381 0.0
C598 C 0.21304 0.00199 0.69357 0.0
C599 C 0.211 0.99707 0.63777 0.0
C600 C 0.20295 0.98132 0.62717 0.0
C601 C 0.1971 0.9707 0.67218 0.0
C602 C 0.19928 0.97609 0.72831 0.0
H603 H 0.03052 0.22435 0.66092 0.0
H604 H 0.05617 0.24201 0.81617 0.0
H605 H 0.0324 0.22743 0.87111 0.0
H606 H 0.9974 0.22589 0.70567 0.0
H607 H 0.98416 0.20856 0.6696 0.0
H608 H 0.00326 0.22017 0.64277 0.0
H609 H 0.00732 0.19681 0.64641 0.0
H610 H 0.98824 0.18514 0.67343 0.0
H611 H 0.00431 0.18661 0.71184 0.0
H612 H 0.00577 0.21067 0.90916 0.0
H613 H 0.97814 0.19397 0.92703 0.0
H614 H 0.97005 0.18782 0.74665 0.0
C615 C 0.03115 0.22514 0.70647 0.0
C616 C 0.0452 0.23429 0.73426 0.0
C617 C 0.04552 0.23509 0.79394 0.0
C618 C 0.0321 0.22682 0.82554 0.0
C619 C 0.01844 0.21787 0.79681 0.0
C620 C 0.01787 0.21705 0.73862 0.0
C621 C 0.0017 0.20685 0.71794 0.0
C622 C 0.99632 0.21591 0.68188 0.0
C623 C 0.00032 0.19303 0.6855 0.0
C624 C 0.99328 0.20206 0.77359 0.0
C625 C 0.00313 0.20845 0.81863 0.0
C626 C 0.99794 0.20562 0.87421 0.0
C627 C 0.98224 0.19609 0.88394 0.0
C628 C 0.97194 0.18962 0.83827 0.0
C629 C 0.97761 0.19263 0.7825 0.0
H630 H 0.85457 0.5545 0.51323 0.0
H631 H 0.86676 0.57977 0.6708 0.0
H632 H 0.87582 0.56298 0.70837 0.0
H633 H 0.84162 0.51706 0.57409 0.0
H634 H 0.84949 0.51101 0.51815 0.0
H635 H 0.84339 0.52467 0.50399 0.0
H636 H 0.87026 0.54371 0.46468 0.0
H637 H 0.8764 0.5301 0.47848 0.0
H638 H 0.88685 0.54906 0.50785 0.0
H639 H 0.88396 0.54385 0.72858 0.0
H640 H 0.89175 0.52429 0.72833 0.0
H641 H 0.87459 0.5116 0.55741 0.0
C642 C 0.85909 0.55646 0.5557 0.0
C643 C 0.85993 0.56844 0.58909 0.0
C644 C 0.86601 0.57069 0.64435 0.0
C645 C 0.87114 0.56118 0.66621 0.0
C646 C 0.87014 0.54948 0.63229 0.0
C647 C 0.86434 0.54711 0.57815 0.0
C648 C 0.86503 0.53403 0.54991 0.0
C649 C 0.84892 0.52092 0.53572 0.0
C650 C 0.87525 0.53956 0.49712 0.0
C651 C 0.87226 0.52953 0.59648 0.0
C652 C 0.875 0.53851 0.64378 0.0
C653 C 0.88184 0.5367 0.69187 0.0
C654 C 0.8862 0.52555 0.69134 0.0
C655 C 0.88378 0.5164 0.6429 0.0
C656 C 0.87656 0.51836 0.59518 0.0
H657 H 0.43695 0.30349 0.4906 0.0
H658 H 0.41516 0.27688 0.64088 0.0
H659 H 0.42797 0.30032 0.69845 0.0
H660 H 0.47294 0.32937 0.55428 0.0
H661 H 0.47554 0.34571 0.51464 0.0
H662 H 0.46462 0.32684 0.48511 0.0
H663 H 0.44156 0.33102 0.4707 0.0
H664 H 0.45241 0.34992 0.50006 0.0
H665 H 0.43415 0.33647 0.52998 0.0
H666 H 0.44356 0.32654 0.74001 0.0
H667 H 0.46007 0.35392 0.76203 0.0
H668 H 0.47121 0.36345 0.58437 0.0
C669 C 0.43486 0.30259 0.53561 0.0
C670 C 0.42507 0.28835 0.56126 0.0
C671 C 0.42259 0.28767 0.62025 0.0
C672 C 0.42983 0.30091 0.65336 0.0
C673 C 0.43946 0.31475 0.62679 0.0
C674 C 0.44192 0.3157 0.56924 0.0
C675 C 0.45269 0.332 0.55109 0.0
C676 C 0.46731 0.33357 0.52474 0.0
C677 C 0.44472 0.33769 0.51057 0.0
C678 C 0.45594 0.34005 0.60747 0.0
C679 C 0.44824 0.32989 0.65063 0.0
C680 C 0.4496 0.33462 0.70655 0.0
C681 C 0.45903 0.35019 0.71864 0.0
C682 C 0.46689 0.36083 0.67493 0.0
C683 C 0.4653 0.35562 0.61871 0.0
H684 H 0.69493 0.11289 0.58513 0.0
H685 H 0.6952 0.14914 0.48581 0.0
H686 H 0.67086 0.14371 0.52973 0.0
H687 H 0.65419 0.08691 0.57798 0.0
H688 H 0.653 0.08008 0.64904 0.0
H689 H 0.67036 0.08675 0.60921 0.0
H690 H 0.68551 0.106 0.68881 0.0
H691 H 0.66817 0.09949 0.72866 0.0
H692 H 0.67982 0.11946 0.71146 0.0
H693 H 0.64685 0.13475 0.5857 0.0
H694 H 0.62396 0.12187 0.64596 0.0
H695 H 0.63926 0.09137 0.70853 0.0
C696 C 0.68984 0.11964 0.57233 0.0
C697 C 0.69699 0.13145 0.53204 0.0
C698 C 0.68994 0.14001 0.5165 0.0
C699 C 0.67614 0.13705 0.54134 0.0
C700 C 0.66952 0.12547 0.58147 0.0
C701 C 0.67606 0.11682 0.59658 0.0
C702 C 0.66654 0.10497 0.64053 0.0
C703 C 0.66067 0.08872 0.61781 0.0
C704 C 0.67555 0.10765 0.69562 0.0
C705 C 0.65364 0.10835 0.64789 0.0
C706 C 0.65562 0.12025 0.61357 0.0
C707 C 0.64516 0.1254 0.61271 0.0
C708 C 0.63221 0.11802 0.64722 0.0
C709 C 0.6298 0.10561 0.68203 0.0
C710 C 0.64079 0.10086 0.68262 0.0
H711 H 0.47864 0.12226 0.18315 0.0
H712 H 0.48548 0.10363 0.02809 0.0
H713 H 0.47633 0.11821 0.97317 0.0
H714 H 0.44401 0.12014 0.14192 0.0
H715 H 0.44793 0.13762 0.17644 0.0
H716 H 0.45614 0.12668 0.20329 0.0
H717 H 0.48321 0.15044 0.19533 0.0
H718 H 0.47507 0.16147 0.16842 0.0
H719 H 0.48957 0.16017 0.12862 0.0
H720 H 0.46557 0.13402 0.93537 0.0
H721 H 0.45296 0.14914 0.91751 0.0
H722 H 0.45257 0.15697 0.09743 0.0
C723 C 0.47839 0.1214 0.1376 0.0
C724 C 0.48283 0.11187 0.10983 0.0
C725 C 0.48212 0.11086 0.05024 0.0
C726 C 0.477 0.11914 0.01865 0.0
C727 C 0.47258 0.12833 0.04734 0.0
C728 C 0.47318 0.12947 0.10547 0.0
C729 C 0.46698 0.1395 0.12611 0.0
C730 C 0.45293 0.13044 0.16417 0.0
C731 C 0.47946 0.15374 0.1564 0.0
C732 C 0.46264 0.14365 0.07055 0.0
C733 C 0.46611 0.13722 0.0256 0.0
C734 C 0.46285 0.13917 0.97019 0.0
C735 C 0.45569 0.14779 0.9605 0.0
C736 C 0.45177 0.15423 0.00606 0.0
C737 C 0.45545 0.15222 0.06168 0.0
H738 H 0.86207 0.29387 0.9771 0.0
H739 H 0.84657 0.27307 0.14191 0.0
H740 H 0.8594 0.29862 0.18582 0.0
H741 H 0.89905 0.32324 0.02184 0.0
H742 H 0.89951 0.33748 0.97482 0.0
H743 H 0.88872 0.31757 0.95615 0.0
H744 H 0.86439 0.31975 0.94422 0.0
H745 H 0.87512 0.33968 0.96282 0.0
H746 H 0.85811 0.32694 0.00171 0.0
H747 H 0.87381 0.32643 0.21177 0.0
H748 H 0.88954 0.35455 0.21809 0.0
H749 H 0.89615 0.35702 0.03665 0.0
C750 C 0.86131 0.29469 0.02239 0.0
C751 C 0.85329 0.28149 0.05608 0.0
C752 C 0.85268 0.28303 0.11526 0.0
C753 C 0.85989 0.29749 0.1406 0.0
C754 C 0.86774 0.31027 0.10621 0.0
C755 C 0.86855 0.30902 0.04843 0.0
C756 C 0.87802 0.32453 0.0212 0.0
C757 C 0.89216 0.32577 0.99178 0.0
C758 C 0.86833 0.32792 0.98007 0.0
C759 C 0.88241 0.33469 0.0727 0.0
C760 C 0.8763 0.32626 0.12129 0.0
C761 C 0.87869 0.33316 0.17403 0.0
C762 C 0.88762 0.34913 0.17718 0.0
C763 C 0.89411 0.35796 0.12791 0.0
C764 C 0.89142 0.35058 0.07512 0.0
H765 H 0.63308 0.52243 0.22279 0.0
H766 H 0.61075 0.50675 0.06052 0.0
H767 H 0.63582 0.52019 0.01303 0.0
H768 H 0.66075 0.55964 0.17718 0.0
H769 H 0.67584 0.56077 0.221 0.0
H770 H 0.65623 0.54914 0.24252 0.0
H771 H 0.65991 0.5256 0.25025 0.0
H772 H 0.67955 0.53717 0.2288 0.0
H773 H 0.66698 0.52003 0.1903 0.0
H774 H 0.66326 0.53583 0.98297 0.0
H775 H 0.69105 0.55323 0.97251 0.0
H776 H 0.69527 0.55915 0.15421 0.0
C777 C 0.63347 0.52169 0.17732 0.0
C778 C 0.61998 0.5135 0.14536 0.0
C779 C 0.62095 0.51297 0.08588 0.0
C780 C 0.63514 0.52053 0.0585 0.0
C781 C 0.64822 0.52861 0.0912 0.0
C782 C 0.64752 0.52927 0.14927 0.0
C783 C 0.66321 0.53928 0.17437 0.0
C784 C 0.66405 0.55302 0.20559 0.0
C785 C 0.66767 0.52996 0.21322 0.0
C786 C 0.67282 0.54422 0.1213 0.0
C787 C 0.66398 0.53784 0.0738 0.0
C788 C 0.67031 0.54087 0.01987 0.0
C789 C 0.6861 0.55076 0.01436 0.0
C790 C 0.69532 0.55757 0.0625 0.0
C791 C 0.68854 0.55415 0.11656 0.0
H792 H 0.52993 0.89252 0.96283 0.0
H793 H 0.52119 0.88481 0.78319 0.0
H794 H 0.53191 0.86757 0.78394 0.0
H795 H 0.56534 0.89398 0.96323 0.0
H796 H 0.56239 0.88424 0.02969 0.0
H797 H 0.55301 0.89505 0.01578 0.0
H798 H 0.52674 0.87111 0.03643 0.0
H799 H 0.53605 0.86022 0.05054 0.0
H800 H 0.52115 0.85367 0.99829 0.0
H801 H 0.54538 0.85283 0.80295 0.0
H802 H 0.56004 0.84112 0.83918 0.0
H803 H 0.55941 0.85804 0.00683 0.0
C804 C 0.53011 0.88709 0.9237 0.0
C805 C 0.52474 0.89002 0.87292 0.0
C806 C 0.52521 0.88271 0.82263 0.0
C807 C 0.53127 0.87289 0.82264 0.0
C808 C 0.53665 0.87041 0.87335 0.0
C809 C 0.53602 0.87721 0.92303 0.0
C810 C 0.54304 0.8731 0.97143 0.0
C811 C 0.55676 0.88745 0.99647 0.0
C812 C 0.53103 0.86398 0.01684 0.0
C813 C 0.54805 0.86319 0.94095 0.0
C814 C 0.5442 0.86173 0.88448 0.0
C815 C 0.54831 0.85375 0.84721 0.0
C816 C 0.55667 0.84718 0.86817 0.0
C817 C 0.5608 0.84861 0.92586 0.0
C818 C 0.55626 0.85659 0.96269 0.0
H819 H 0.1055 0.63626 0.84044 0.0
H820 H 0.07714 0.61076 0.98278 0.0
H821 H 0.08716 0.63467 0.03721 0.0
H822 H 0.13823 0.66366 0.92221 0.0
H823 H 0.14237 0.6793 0.8753 0.0
H824 H 0.13345 0.66006 0.84847 0.0
H825 H 0.11114 0.66295 0.80864 0.0
H826 H 0.11998 0.68217 0.83536 0.0
H827 H 0.10066 0.66849 0.85525 0.0
H828 H 0.09952 0.66155 0.07488 0.0
H829 H 0.11334 0.6894 0.09247 0.0
H830 H 0.13355 0.69705 0.92553 0.0
C831 C 0.10148 0.63567 0.88319 0.0
C832 C 0.09055 0.62164 0.90733 0.0
C833 C 0.08552 0.62138 0.96334 0.0
C834 C 0.09115 0.6349 0.99469 0.0
C835 C 0.10183 0.64856 0.96948 0.0
C836 C 0.10697 0.64904 0.91506 0.0
C837 C 0.11817 0.66523 0.8972 0.0
C838 C 0.13399 0.66717 0.8851 0.0
C839 C 0.11212 0.66998 0.8461 0.0
C840 C 0.11838 0.67379 0.94982 0.0
C841 C 0.10895 0.66399 0.99116 0.0
C842 C 0.10702 0.66935 0.04294 0.0
C843 C 0.1149 0.68517 0.05255 0.0
C844 C 0.12454 0.6954 0.01048 0.0
C845 C 0.12633 0.68955 0.95872 0.0
H846 H 0.29156 0.43544 0.89557 0.0
H847 H 0.29667 0.42409 0.06778 0.0
H848 H 0.32449 0.43598 0.0533 0.0
H849 H 0.32048 0.42888 0.83329 0.0
H850 H 0.32708 0.44472 0.78504 0.0
H851 H 0.30748 0.43491 0.80832 0.0
H852 H 0.31046 0.46053 0.84353 0.0
H853 H 0.33005 0.47042 0.82037 0.0
H854 H 0.32549 0.47202 0.89263 0.0
H855 H 0.35167 0.44934 0.02082 0.0
H856 H 0.37659 0.46382 0.97326 0.0
H857 H 0.35391 0.46682 0.82232 0.0
C858 C 0.29851 0.43537 0.93017 0.0
C859 C 0.29193 0.4288 0.9828 0.0
C860 C 0.30145 0.42906 0.02711 0.0
C861 C 0.31726 0.43575 0.01927 0.0
C862 C 0.32337 0.44217 0.96695 0.0
C863 C 0.31431 0.44207 0.92317 0.0
C864 C 0.32381 0.45009 0.87159 0.0
C865 C 0.31945 0.43898 0.82161 0.0
C866 C 0.32236 0.4641 0.85615 0.0
C867 C 0.33964 0.45478 0.89333 0.0
C868 C 0.3391 0.45003 0.94834 0.0
C869 C 0.35225 0.45311 0.97772 0.0
C870 C 0.36635 0.46135 0.95027 0.0
C871 C 0.36722 0.46647 0.89404 0.0
C872 C 0.35363 0.46306 0.86526 0.0
H873 H 0.11314 0.48199 0.33297 0.0
H874 H 0.09579 0.48694 0.49438 0.0
H875 H 0.10939 0.47552 0.5421 0.0
H876 H 0.10925 0.4457 0.36162 0.0
H877 H 0.12638 0.44956 0.32452 0.0
H878 H 0.11604 0.45895 0.30343 0.0
H879 H 0.14054 0.48531 0.31568 0.0
H880 H 0.15097 0.47599 0.33685 0.0
H881 H 0.1505 0.49007 0.38217 0.0
H882 H 0.12437 0.46308 0.57198 0.0
H883 H 0.13884 0.4495 0.58172 0.0
H884 H 0.14594 0.45212 0.40049 0.0
C885 C 0.11232 0.48081 0.37841 0.0
C886 C 0.10346 0.48541 0.41002 0.0
C887 C 0.10251 0.48348 0.46932 0.0
C888 C 0.11023 0.47706 0.49683 0.0
C889 C 0.1188 0.47257 0.46439 0.0
C890 C 0.11985 0.4743 0.40648 0.0
C891 C 0.12927 0.46793 0.38124 0.0
C892 C 0.11966 0.45475 0.3403 0.0
C893 C 0.14367 0.48058 0.35228 0.0
C894 C 0.13325 0.46223 0.43398 0.0
C895 C 0.12721 0.46514 0.48152 0.0
C896 C 0.12919 0.46076 0.53509 0.0
C897 C 0.13744 0.45306 0.54016 0.0
C898 C 0.14352 0.44973 0.49187 0.0
C899 C 0.14146 0.45451 0.43822 0.0
H900 H 0.52469 0.62981 0.31776 0.0
H901 H 0.50575 0.61069 0.48204 0.0
H902 H 0.52055 0.63623 0.52464 0.0
H903 H 0.5624 0.6568 0.36623 0.0
H904 H 0.56495 0.67156 0.31736 0.0
H905 H 0.55272 0.65176 0.29915 0.0
H906 H 0.5303 0.65678 0.28157 0.0
H907 H 0.54247 0.67659 0.29957 0.0
H908 H 0.52469 0.6653 0.33654 0.0
H909 H 0.53748 0.6636 0.55 0.0
H910 H 0.55523 0.69134 0.55619 0.0
H911 H 0.56325 0.69292 0.3757 0.0
C912 C 0.52362 0.63101 0.36264 0.0
C913 C 0.51405 0.61823 0.39652 0.0
C914 C 0.51299 0.62029 0.45514 0.0
C915 C 0.52137 0.63475 0.47982 0.0
C916 C 0.53074 0.64707 0.44537 0.0
C917 C 0.53191 0.64539 0.38806 0.0
C918 C 0.54286 0.66056 0.36074 0.0
C919 C 0.55654 0.66014 0.33432 0.0
C920 C 0.53458 0.66507 0.31703 0.0
C921 C 0.54766 0.67098 0.41171 0.0
C922 C 0.54053 0.66295 0.46006 0.0
C923 C 0.54313 0.67004 0.51244 0.0
C924 C 0.55325 0.68581 0.51551 0.0
C925 C 0.56064 0.69433 0.46646 0.0
C926 C 0.55779 0.68674 0.41398 0.0
H927 H 0.37099 0.90529 0.47386 0.0
H928 H 0.36973 0.88594 0.30913 0.0
H929 H 0.34224 0.86745 0.32224 0.0
H930 H 0.34465 0.86989 0.54377 0.0
H931 H 0.33594 0.87851 0.58481 0.0
H932 H 0.35562 0.88974 0.56341 0.0
H933 H 0.34983 0.9094 0.51602 0.0
H934 H 0.33015 0.89827 0.53739 0.0
H935 H 0.33485 0.90296 0.46406 0.0
H936 H 0.31485 0.85152 0.35263 0.0
H937 H 0.28928 0.83996 0.39597 0.0
H938 H 0.30856 0.87009 0.54035 0.0
C939 C 0.36499 0.89711 0.44062 0.0
C940 C 0.37251 0.89701 0.39052 0.0
C941 C 0.36419 0.88621 0.34787 0.0
C942 C 0.3486 0.87564 0.35501 0.0
C943 C 0.34155 0.87607 0.40496 0.0
C944 C 0.34946 0.88656 0.44693 0.0
C945 C 0.33912 0.88503 0.49567 0.0
C946 C 0.34413 0.88052 0.55013 0.0
C947 C 0.33845 0.89979 0.50372 0.0
C948 C 0.32408 0.87211 0.47436 0.0
C949 C 0.32575 0.86703 0.42218 0.0
C950 C 0.31341 0.85537 0.39355 0.0
C951 C 0.29893 0.84888 0.41858 0.0
C952 C 0.29691 0.85412 0.47161 0.0
C953 C 0.30972 0.86579 0.49994 0.0
H954 H 0.08979 0.22115 0.77753 0.0
H955 H 0.12361 0.25419 0.66275 0.0
H956 H 0.14422 0.25535 0.72224 0.0
H957 H 0.10906 0.23908 0.90012 0.0
H958 H 0.10354 0.22178 0.93916 0.0
H959 H 0.09153 0.22182 0.88339 0.0
H960 H 0.09271 0.19951 0.83434 0.0
H961 H 0.10476 0.1994 0.89012 0.0
H962 H 0.11102 0.20147 0.81785 0.0
H963 H 0.16107 0.2546 0.79834 0.0
H964 H 0.17284 0.25313 0.88758 0.0
H965 H 0.1279 0.22113 0.95364 0.0
C966 C 0.10152 0.22834 0.76418 0.0
C967 C 0.10512 0.23748 0.71535 0.0
C968 C 0.12062 0.24706 0.7 0.0
C969 C 0.13239 0.24773 0.73332 0.0
C970 C 0.12846 0.23877 0.78184 0.0
C971 C 0.11339 0.22928 0.79728 0.0
C972 C 0.11222 0.222 0.85418 0.0
C973 C 0.10358 0.22644 0.8967 0.0
C974 C 0.10474 0.20456 0.84877 0.0
C975 C 0.12896 0.22921 0.86906 0.0
C976 C 0.13816 0.23863 0.82638 0.0
C977 C 0.154 0.24713 0.8318 0.0
C978 C 0.16058 0.24621 0.88265 0.0
C979 C 0.1513 0.23702 0.92757 0.0
C980 C 0.13532 0.2282 0.92 0.0
H981 H 0.74002 0.89019 0.91854 0.0
H982 H 0.78264 0.93339 0.92434 0.0
H983 H 0.78973 0.92778 0.83104 0.0
H984 H 0.75481 0.86868 0.86123 0.0
H985 H 0.73842 0.85693 0.81782 0.0
H986 H 0.73615 0.86516 0.88174 0.0
H987 H 0.72351 0.87792 0.82548 0.0
H988 H 0.72571 0.86968 0.76126 0.0
H989 H 0.73346 0.89003 0.76626 0.0
H990 H 0.79298 0.91612 0.74076 0.0
H991 H 0.79198 0.89968 0.66162 0.0
H992 H 0.74705 0.86446 0.71683 0.0
C993 C 0.75076 0.89861 0.89997 0.0
C994 C 0.76079 0.91223 0.92866 0.0
C995 C 0.77476 0.9229 0.90293 0.0
C996 C 0.77886 0.91982 0.84998 0.0
C997 C 0.7688 0.9061 0.82335 0.0
C998 C 0.75498 0.89574 0.84743 0.0
C999 C 0.74651 0.88147 0.8121 0.0
C1000 C 0.74383 0.86723 0.8452 0.0
C1001 C 0.73141 0.87968 0.78996 0.0
C1002 C 0.75788 0.88519 0.76496 0.0
C1003 C 0.77062 0.89948 0.77174 0.0
C1004 C 0.78297 0.90499 0.73469 0.0
C1005 C 0.78231 0.89557 0.68994 0.0
C1006 C 0.76942 0.88081 0.68294 0.0
C1007 C 0.75702 0.87573 0.72065 0.0
H1008 H 0.12344 0.86506 0.9425 0.0
H1009 H 0.08192 0.86776 0.93778 0.0
H1010 H 0.09083 0.88292 0.84993 0.0
H1011 H 0.14878 0.90297 0.89262 0.0
H1012 H 0.16026 0.89744 0.8517 0.0
H1013 H 0.15053 0.88678 0.91388 0.0
H1014 H 0.13721 0.86187 0.85489 0.0
H1015 H 0.14689 0.87246 0.7925 0.0
H1016 H 0.12635 0.86103 0.79337 0.0
H1017 H 0.1045 0.89797 0.76277 0.0
H1018 H 0.12176 0.91167 0.68321 0.0
H1019 H 0.15413 0.89879 0.7456 0.0
C1020 C 0.1162 0.86883 0.92313 0.0
C1021 C 0.10198 0.86523 0.94704 0.0
C1022 C 0.09285 0.87038 0.9202 0.0
C1023 C 0.09782 0.87899 0.87032 0.0
C1024 C 0.1119 0.88231 0.84788 0.0
C1025 C 0.12094 0.87738 0.87343 0.0
C1026 C 0.1356 0.88246 0.84094 0.0
C1027 C 0.14962 0.89304 0.87694 0.0
C1028 C 0.13656 0.86863 0.81913 0.0
C1029 C 0.13343 0.89107 0.7931 0.0
C1030 C 0.1197 0.89087 0.79779 0.0
C1031 C 0.11527 0.89818 0.75864 0.0
C1032 C 0.12515 0.90593 0.71361 0.0
C1033 C 0.13929 0.90629 0.70812 0.0
C1034 C 0.14339 0.89871 0.74846 0.0
H1035 H 0.25622 0.11142 0.76193 0.0
H1036 H 0.20935 0.09515 0.81349 0.0
H1037 H 0.20631 0.1094 0.73451 0.0
H1038 H 0.26491 0.14933 0.71633 0.0
H1039 H 0.27636 0.14946 0.65778 0.0
H1040 H 0.27502 0.13887 0.72069 0.0
H1041 H 0.26582 0.11432 0.66097 0.0
H1042 H 0.26707 0.1248 0.59797 0.0
H1043 H 0.24934 0.10792 0.61613 0.0
H1044 H 0.20818 0.12453 0.64631 0.0
H1045 H 0.21475 0.13903 0.55673 0.0
H1046 H 0.26025 0.1448 0.5642 0.0
C1047 C 0.24535 0.11098 0.75721 0.0
C1048 C 0.23303 0.1022 0.794 0.0
C1049 C 0.21897 0.10183 0.78589 0.0
C1050 C 0.21714 0.1099 0.7412 0.0
C1051 C 0.22949 0.11827 0.70523 0.0
C1052 C 0.24333 0.11887 0.71295 0.0
C1053 C 0.25463 0.12809 0.66722 0.0
C1054 C 0.26855 0.14228 0.692 0.0
C1055 C 0.25949 0.11819 0.63359 0.0
C1056 C 0.24494 0.13243 0.63197 0.0
C1057 C 0.23051 0.12678 0.65463 0.0
C1058 C 0.21948 0.12909 0.6284 0.0
C1059 C 0.22331 0.13732 0.57756 0.0
C1060 C 0.23801 0.14305 0.55348 0.0
C1061 C 0.24893 0.1406 0.58147 0.0
H1062 H 0.84013 0.0867 0.6226 0.0
H1063 H 0.87646 0.09084 0.51323 0.0
H1064 H 0.89504 0.10328 0.59031 0.0
H1065 H 0.86056 0.1224 0.6827 0.0
H1066 H 0.85251 0.11681 0.75235 0.0
H1067 H 0.8417 0.10613 0.69197 0.0
H1068 H 0.83871 0.08126 0.73553 0.0
H1069 H 0.84946 0.09187 0.79638 0.0
H1070 H 0.85548 0.08057 0.75677 0.0
H1071 H 0.91003 0.11793 0.67479 0.0
H1072 H 0.92032 0.13362 0.76058 0.0
H1073 H 0.8742 0.11999 0.81469 0.0
C1074 C 0.85191 0.08984 0.61527 0.0
C1075 C 0.85683 0.08771 0.56199 0.0
C1076 C 0.87242 0.09229 0.55379 0.0
C1077 C 0.88305 0.09933 0.59737 0.0
C1078 C 0.87789 0.10163 0.64891 0.0
C1079 C 0.86267 0.09693 0.65819 0.0
C1080 C 0.86029 0.10196 0.7156 0.0
C1081 C 0.85336 0.11245 0.7103 0.0
C1082 C 0.8504 0.08809 0.7533 0.0
C1083 C 0.87661 0.11065 0.73643 0.0
C1084 C 0.88657 0.11016 0.69767 0.0
C1085 C 0.90232 0.1182 0.70587 0.0
C1086 C 0.90806 0.12712 0.75466 0.0
C1087 C 0.89806 0.12798 0.79447 0.0
C1088 C 0.88213 0.11941 0.78547 0.0
H1089 H 0.87309 0.7733 0.68893 0.0
H1090 H 0.82579 0.7388 0.659 0.0
H1091 H 0.83258 0.73455 0.56353 0.0
H1092 H 0.88175 0.7887 0.54506 0.0
H1093 H 0.90077 0.7914 0.54624 0.0
H1094 H 0.89202 0.79267 0.61072 0.0
H1095 H 0.89651 0.77189 0.65591 0.0
H1096 H 0.90528 0.77058 0.59171 0.0
H1097 H 0.88929 0.75371 0.62108 0.0
H1098 H 0.84459 0.73289 0.47411 0.0
H1099 H 0.86121 0.73336 0.39717 0.0
H1100 H 0.90082 0.76883 0.48483 0.0
C1101 C 0.86413 0.765 0.66202 0.0
C1102 C 0.8489 0.75641 0.68134 0.0
C1103 C 0.83754 0.7455 0.64513 0.0
C1104 C 0.84126 0.74305 0.59073 0.0
C1105 C 0.8564 0.7516 0.57316 0.0
C1106 C 0.86766 0.76234 0.60764 0.0
C1107 C 0.88319 0.76934 0.57961 0.0
C1108 C 0.88982 0.78655 0.56982 0.0
C1109 C 0.89421 0.76619 0.61413 0.0
C1110 C 0.87892 0.76064 0.52443 0.0
C1111 C 0.86338 0.75058 0.5214 0.0
C1112 C 0.85676 0.74081 0.4757 0.0
C1113 C 0.86631 0.74116 0.43225 0.0
C1114 C 0.88231 0.75116 0.4349 0.0
C1115 C 0.88862 0.76118 0.48127 0.0
H1116 H 0.85796 0.7675 0.98414 0.0
H1117 H 0.86346 0.73269 0.89753 0.0
H1118 H 0.87963 0.73269 0.9752 0.0
H1119 H 0.89676 0.78823 0.04489 0.0
H1120 H 0.89011 0.79209 0.11 0.0
H1121 H 0.88009 0.79038 0.04514 0.0
H1122 H 0.85499 0.7693 0.09031 0.0
H1123 H 0.86493 0.77085 0.15507 0.0
H1124 H 0.85444 0.75263 0.12019 0.0
H1125 H 0.8932 0.73471 0.06528 0.0
H1126 H 0.90439 0.73954 0.16064 0.0
H1127 H 0.89041 0.77326 0.18874 0.0
C1128 C 0.86281 0.7601 0.98099 0.0
C1129 C 0.85947 0.75012 0.93469 0.0
C1130 C 0.86587 0.74046 0.93252 0.0
C1131 C 0.87509 0.74037 0.97642 0.0
C1132 C 0.87786 0.75008 0.02205 0.0
C1133 C 0.87204 0.75987 0.0245 0.0
C1134 C 0.87618 0.76861 0.07962 0.0
C1135 C 0.88639 0.78585 0.06928 0.0
C1136 C 0.86178 0.76513 0.11327 0.0
C1137 C 0.88497 0.76196 0.10814 0.0
C1138 C 0.88583 0.75133 0.07409 0.0
C1139 C 0.89276 0.74315 0.09213 0.0
C1140 C 0.89902 0.74593 0.14644 0.0
C1141 C 0.89833 0.75682 0.18203 0.0
C1142 C 0.89126 0.76497 0.16234 0.0
H1143 H 0.25875 0.12176 0.04604 0.0
H1144 H 0.22812 0.07311 0.06947 0.0
H1145 H 0.22085 0.07823 0.16324 0.0
H1146 H 0.27183 0.13037 0.18949 0.0
H1147 H 0.27261 0.14858 0.18911 0.0
H1148 H 0.27548 0.14094 0.12462 0.0
H1149 H 0.25359 0.14322 0.07726 0.0
H1150 H 0.25066 0.15087 0.14154 0.0
H1151 H 0.23498 0.1342 0.10981 0.0
H1152 H 0.21679 0.08899 0.25451 0.0
H1153 H 0.21607 0.10441 0.33426 0.0
H1154 H 0.24944 0.14578 0.24889 0.0
C1155 C 0.25053 0.11214 0.07079 0.0
C1156 C 0.24401 0.09703 0.05044 0.0
C1157 C 0.23327 0.08479 0.08426 0.0
C1158 C 0.22909 0.08758 0.13755 0.0
C1159 C 0.23576 0.10266 0.15625 0.0
C1160 C 0.24625 0.11471 0.12378 0.0
C1161 C 0.25166 0.12987 0.15283 0.0
C1162 C 0.26891 0.1379 0.16472 0.0
C1163 C 0.24746 0.14014 0.11831 0.0
C1164 C 0.24249 0.12451 0.2067 0.0
C1165 C 0.23342 0.10879 0.20817 0.0
C1166 C 0.22387 0.10131 0.2538 0.0
C1167 C 0.22355 0.11016 0.2989 0.0
C1168 C 0.23268 0.1263 0.29782 0.0
C1169 C 0.2423 0.13347 0.2511 0.0
H1170 H 0.86343 0.10171 0.23668 0.0
H1171 H 0.88005 0.13738 0.36386 0.0
H1172 H 0.89899 0.15549 0.2963 0.0
H1173 H 0.90002 0.11263 0.17444 0.0
H1174 H 0.89274 0.10831 0.10343 0.0
H1175 H 0.8805 0.09801 0.16187 0.0
H1176 H 0.86087 0.10579 0.12928 0.0
H1177 H 0.87301 0.11603 0.07059 0.0
H1178 H 0.867 0.12572 0.11916 0.0
H1179 H 0.91602 0.16981 0.21507 0.0
H1180 H 0.92941 0.17958 0.12441 0.0
H1181 H 0.90177 0.13464 0.05004 0.0
C1182 C 0.87104 0.11332 0.25034 0.0
C1183 C 0.87025 0.11811 0.30564 0.0
C1184 C 0.88042 0.13343 0.32175 0.0
C1185 C 0.89125 0.14381 0.28373 0.0
C1186 C 0.89179 0.13871 0.22971 0.0
C1187 C 0.88193 0.12386 0.21289 0.0
C1188 C 0.88476 0.12138 0.15208 0.0
C1189 C 0.88981 0.10937 0.14773 0.0
C1190 C 0.87057 0.11698 0.11564 0.0
C1191 C 0.89771 0.13718 0.13736 0.0
C1192 C 0.90162 0.14698 0.18279 0.0
C1193 C 0.91309 0.16224 0.1792 0.0
C1194 C 0.92065 0.16767 0.12753 0.0
C1195 C 0.91668 0.15788 0.08014 0.0
C1196 C 0.90515 0.1424 0.08553 0.0
H1197 H 0.78522 0.91617 0.27242 0.0
H1198 H 0.75953 0.88464 0.13789 0.0
H1199 H 0.75766 0.86324 0.19431 0.0
H1200 H 0.80544 0.89598 0.32399 0.0
H1201 H 0.80355 0.90006 0.39658 0.0
H1202 H 0.80525 0.91322 0.3419 0.0
H1203 H 0.78005 0.91151 0.3757 0.0
H1204 H 0.77827 0.89838 0.43026 0.0
H1205 H 0.76296 0.89307 0.38047 0.0
H1206 H 0.75601 0.84503 0.26882 0.0
H1207 H 0.75342 0.83123 0.35763 0.0
H1208 H 0.77955 0.87454 0.4448 0.0
C1209 C 0.77961 0.90483 0.25422 0.0
C1210 C 0.77266 0.90205 0.20064 0.0
C1211 C 0.76499 0.88699 0.17884 0.0
C1212 C 0.76395 0.87479 0.21041 0.0
C1213 C 0.77062 0.87784 0.26371 0.0
C1214 C 0.77829 0.89249 0.28552 0.0
C1215 C 0.78284 0.89245 0.34631 0.0
C1216 C 0.80031 0.90093 0.35254 0.0
C1217 C 0.77559 0.89925 0.38546 0.0
C1218 C 0.77603 0.87547 0.35587 0.0
C1219 C 0.76933 0.86726 0.30739 0.0
C1220 C 0.76142 0.85133 0.30687 0.0
C1221 C 0.76 0.84359 0.35756 0.0
C1222 C 0.76629 0.85179 0.40818 0.0
C1223 C 0.77473 0.86793 0.40675 0.0
H1224 H 0.10941 0.85674 0.24175 0.0
H1225 H 0.10519 0.89515 0.18281 0.0
H1226 H 0.1212 0.91073 0.26207 0.0
H1227 H 0.10708 0.86292 0.38839 0.0
H1228 H 0.12078 0.85738 0.40904 0.0
H1229 H 0.1095 0.84941 0.34637 0.0
H1230 H 0.13419 0.85881 0.2873 0.0
H1231 H 0.14555 0.86678 0.34984 0.0
H1232 H 0.14868 0.87873 0.28916 0.0
H1233 H 0.13716 0.92196 0.3489 0.0
H1234 H 0.15197 0.92804 0.43725 0.0
H1235 H 0.14556 0.88223 0.43981 0.0
C1236 C 0.11194 0.86846 0.24522 0.0
C1237 C 0.10606 0.87473 0.206 0.0
C1238 C 0.10956 0.89009 0.21232 0.0
C1239 C 0.11866 0.89905 0.25717 0.0
C1240 C 0.12415 0.89248 0.29534 0.0
C1241 C 0.12095 0.87755 0.28982 0.0
C1242 C 0.12799 0.87313 0.33732 0.0
C1243 C 0.1156 0.85993 0.37235 0.0
C1244 C 0.1398 0.86913 0.31453 0.0
C1245 C 0.13557 0.88789 0.37058 0.0
C1246 C 0.13327 0.89892 0.34556 0.0
C1247 C 0.13907 0.91343 0.36882 0.0
C1248 C 0.14747 0.91677 0.41903 0.0
C1249 C 0.14994 0.90562 0.44548 0.0
C1250 C 0.14389 0.89101 0.42068 0.0
H1251 H 0.09095 0.21336 0.48315 0.0
H1252 H 0.07822 0.24593 0.42197 0.0
H1253 H 0.08795 0.24498 0.32758 0.0
H1254 H 0.12537 0.22896 0.41625 0.0
H1255 H 0.12473 0.21126 0.39932 0.0
H1256 H 0.11429 0.21222 0.45904 0.0
H1257 H 0.08921 0.18984 0.41897 0.0
H1258 H 0.09962 0.18868 0.35923 0.0
H1259 H 0.0833 0.1911 0.34841 0.0
H1260 H 0.10259 0.24368 0.24513 0.0
H1261 H 0.12007 0.24118 0.17895 0.0
H1262 H 0.12308 0.20925 0.29326 0.0
C1263 C 0.08974 0.21991 0.44949 0.0
C1264 C 0.08378 0.22968 0.45991 0.0
C1265 C 0.0827 0.23832 0.41495 0.0
C1266 C 0.08817 0.23784 0.36113 0.0
C1267 C 0.09455 0.22855 0.35285 0.0
C1268 C 0.09518 0.21958 0.39559 0.0
C1269 C 0.1039 0.21173 0.37726 0.0
C1270 C 0.1179 0.21632 0.41522 0.0
C1271 C 0.09338 0.1943 0.37587 0.0
C1272 C 0.10861 0.21818 0.3184 0.0
C1273 C 0.10295 0.22772 0.30488 0.0
C1274 C 0.10683 0.236 0.25472 0.0
C1275 C 0.11683 0.23457 0.21756 0.0
C1276 C 0.12285 0.22495 0.23082 0.0
C1277 C 0.11846 0.21649 0.28152 0.0
H1278 H 0.83013 0.59261 0.27849 0.0
H1279 H 0.79593 0.57196 0.41035 0.0
H1280 H 0.77607 0.56936 0.34355 0.0
H1281 H 0.81581 0.61455 0.2175 0.0
H1282 H 0.81992 0.61191 0.14576 0.0
H1283 H 0.83131 0.6111 0.20249 0.0
H1284 H 0.82526 0.58414 0.17014 0.0
H1285 H 0.81397 0.58494 0.11291 0.0
H1286 H 0.80564 0.56925 0.16211 0.0
H1287 H 0.76032 0.57091 0.26471 0.0
H1288 H 0.74949 0.57495 0.17742 0.0
H1289 H 0.79391 0.59419 0.09681 0.0
C1290 C 0.81843 0.58732 0.29315 0.0
C1291 C 0.8146 0.58248 0.34967 0.0
C1292 C 0.79915 0.5757 0.3672 0.0
C1293 C 0.78778 0.5742 0.32961 0.0
C1294 C 0.79202 0.57942 0.27456 0.0
C1295 C 0.80694 0.58568 0.25617 0.0
C1296 C 0.80856 0.59081 0.19533 0.0
C1297 C 0.81955 0.60812 0.19 0.0
C1298 C 0.81366 0.58174 0.15792 0.0
C1299 C 0.79226 0.58668 0.18269 0.0
C1300 C 0.7829 0.58013 0.22893 0.0
C1301 C 0.7675 0.57588 0.22803 0.0
C1302 C 0.76148 0.57829 0.17835 0.0
C1303 C 0.77084 0.58483 0.13024 0.0
C1304 C 0.78643 0.58906 0.1327 0.0
H1305 H 0.41879 0.19172 0.08645 0.0
H1306 H 0.45448 0.23342 0.01007 0.0
H1307 H 0.45275 0.24835 0.08964 0.0
H1308 H 0.39609 0.2072 0.13651 0.0
H1309 H 0.3906 0.19607 0.20047 0.0
H1310 H 0.39498 0.18883 0.13811 0.0
H1311 H 0.41535 0.18571 0.19361 0.0
H1312 H 0.411 0.19289 0.25619 0.0
H1313 H 0.43033 0.20192 0.23015 0.0
H1314 H 0.44679 0.25862 0.17876 0.0
H1315 H 0.43721 0.26317 0.26871 0.0
H1316 H 0.40537 0.2145 0.28344 0.0
C1317 C 0.42631 0.20399 0.08634 0.0
C1318 C 0.4368 0.2114 0.04205 0.0
C1319 C 0.44637 0.22749 0.04361 0.0
C1320 C 0.44546 0.23606 0.08859 0.0
C1321 C 0.43491 0.22836 0.13145 0.0
C1322 C 0.42552 0.21267 0.13053 0.0
C1323 C 0.41503 0.20704 0.18109 0.0
C1324 C 0.39818 0.19934 0.16294 0.0
C1325 C 0.41812 0.19626 0.2174 0.0
C1326 C 0.41996 0.222 0.21083 0.0
C1327 C 0.43143 0.2342 0.1818 0.0
C1328 C 0.43779 0.24914 0.20177 0.0
C1329 C 0.43228 0.25162 0.25282 0.0
C1330 C 0.42053 0.23921 0.28305 0.0
C1331 C 0.41433 0.22426 0.26139 0.0
H1332 H 0.8102 0.21285 0.08859 0.0
H1333 H 0.7751 0.22218 0.02868 0.0
H1334 H 0.7585 0.20727 0.10835 0.0
H1335 H 0.78485 0.17421 0.1373 0.0
H1336 H 0.79657 0.1763 0.19766 0.0
H1337 H 0.80521 0.18702 0.13433 0.0
H1338 H 0.81725 0.21221 0.19175 0.0
H1339 H 0.80863 0.2016 0.25518 0.0
H1340 H 0.80511 0.21667 0.23369 0.0
H1341 H 0.74618 0.19202 0.1971 0.0
H1342 H 0.73925 0.17786 0.28736 0.0
H1343 H 0.78278 0.17902 0.28792 0.0
C1344 C 0.79896 0.21166 0.09173 0.0
C1345 C 0.79392 0.21865 0.0523 0.0
C1346 C 0.77918 0.2169 0.05835 0.0
C1347 C 0.76968 0.20844 0.10341 0.0
C1348 C 0.7751 0.20184 0.14184 0.0
C1349 C 0.7894 0.20335 0.1363 0.0
C1350 C 0.79281 0.19561 0.18407 0.0
C1351 C 0.79498 0.18251 0.16201 0.0
C1352 C 0.80677 0.20722 0.21818 0.0
C1353 C 0.77825 0.18961 0.21783 0.0
C1354 C 0.76812 0.19323 0.19276 0.0
C1355 C 0.754 0.18907 0.21696 0.0
C1356 C 0.75018 0.18104 0.26821 0.0
C1357 C 0.76048 0.17734 0.29468 0.0
C1358 C 0.77464 0.18166 0.2688 0.0
H1359 H 0.92777 0.46584 0.82582 0.0
H1360 H 0.88054 0.45435 0.8047 0.0
H1361 H 0.87297 0.43575 0.88288 0.0
H1362 H 0.92029 0.42779 0.8604 0.0
H1363 H 0.93547 0.43458 0.91159 0.0
H1364 H 0.93698 0.44642 0.85236 0.0
H1365 H 0.94115 0.46823 0.92052 0.0
H1366 H 0.93968 0.45648 0.97989 0.0
H1367 H 0.9273 0.4645 0.97515 0.0
H1368 H 0.87078 0.41889 0.96521 0.0
H1369 H 0.8742 0.40572 0.04684 0.0
H1370 H 0.92296 0.42869 0.01377 0.0
C1371 C 0.9158 0.45934 0.83723 0.0
C1372 C 0.90473 0.4615 0.80904 0.0
C1373 C 0.88922 0.45286 0.8257 0.0
C1374 C 0.88481 0.44225 0.86994 0.0
C1375 C 0.89605 0.44046 0.89697 0.0
C1376 C 0.91123 0.44879 0.88128 0.0
C1377 C 0.92119 0.44516 0.91827 0.0
C1378 C 0.92893 0.43806 0.88358 0.0
C1379 C 0.93302 0.45944 0.95036 0.0
C1380 C 0.90926 0.43357 0.95767 0.0
C1381 C 0.89482 0.43092 0.94451 0.0
C1382 C 0.88203 0.42084 0.97577 0.0
C1383 C 0.88409 0.41341 0.02203 0.0
C1384 C 0.89884 0.41617 0.03669 0.0
C1385 C 0.91153 0.4263 0.00362 0.0
H1386 H 0.54875 0.47087 0.12366 0.0
H1387 H 0.56405 0.43867 0.16221 0.0
H1388 H 0.54843 0.42223 0.08363 0.0
H1389 H 0.50985 0.44275 0.08297 0.0
H1390 H 0.50929 0.45461 0.02734 0.0
H1391 H 0.52088 0.46326 0.08888 0.0
H1392 H 0.54466 0.47842 0.02521 0.0
H1393 H 0.53317 0.46981 0.96354 0.0
H1394 H 0.54993 0.46825 0.97598 0.0
H1395 H 0.53223 0.41005 0.99735 0.0
H1396 H 0.5167 0.40312 0.91039 0.0
H1397 H 0.5122 0.44342 0.92943 0.0
C1398 C 0.54869 0.46028 0.1161 0.0
C1399 C 0.55759 0.45603 0.14916 0.0
C1400 C 0.55729 0.44214 0.13749 0.0
C1401 C 0.54845 0.43271 0.09301 0.0
C1402 C 0.53995 0.43734 0.06084 0.0
C1403 C 0.53997 0.45077 0.07198 0.0
C1404 C 0.53036 0.45349 0.02983 0.0
C1405 C 0.51679 0.45352 0.05901 0.0
C1406 C 0.54012 0.46837 0.99668 0.0
C1407 C 0.5251 0.43959 0.99266 0.0
C1408 C 0.53066 0.43036 0.01134 0.0
C1409 C 0.5277 0.41713 0.98258 0.0
C1410 C 0.51889 0.4133 0.93323 0.0
C1411 C 0.5132 0.42271 0.91318 0.0
C1412 C 0.51629 0.43594 0.94375 0.0
H1413 H 0.57238 0.10857 0.88488 0.0
H1414 H 0.58034 0.07376 0.95779 0.0
H1415 H 0.56758 0.07451 0.04538 0.0
H1416 H 0.57742 0.13011 0.01799 0.0
H1417 H 0.56258 0.13426 -0.00058 0.0
H1418 H 0.57388 0.13222 0.94496 0.0
H1419 H 0.54914 0.11136 0.89714 0.0
H1420 H 0.53779 0.11322 0.95161 0.0
H1421 H 0.53589 0.09483 0.93726 0.0
H1422 H 0.55093 0.07642 0.11931 0.0
H1423 H 0.53342 0.08105 0.17795 0.0
H1424 H 0.53728 0.11542 0.05902 0.0
C1425 C 0.57175 0.10135 0.91972 0.0
C1426 C 0.57736 0.09111 0.91447 0.0
C1427 C 0.5762 0.08176 0.96088 0.0
C1428 C 0.56895 0.08209 0.01083 0.0
C1429 C 0.56314 0.09199 0.01398 0.0
C1430 C 0.56468 0.10164 0.97005 0.0
C1431 C 0.55676 0.11064 0.98311 0.0
C1432 C 0.56835 0.12783 0.98659 0.0
C1433 C 0.54415 0.1073 0.93971 0.0
C1434 C 0.55009 0.10416 0.04046 0.0
C1435 C 0.55393 0.09344 0.05756 0.0
C1436 C 0.54811 0.08502 0.10697 0.0
C1437 C 0.53812 0.08766 0.1398 0.0
C1438 C 0.53416 0.0987 0.12324 0.0
C1439 C 0.54037 0.10714 0.07324 0.0
H1440 H 0.51779 0.0738 0.40178 0.0
H1441 H 0.52067 0.1181 0.39572 0.0
H1442 H 0.53479 0.12506 0.48615 0.0
H1443 H 0.51294 0.06839 0.55365 0.0
H1444 H 0.5244 0.05933 0.55747 0.0
H1445 H 0.51374 0.05763 0.49441 0.0
H1446 H 0.5386 0.06847 0.43529 0.0
H1447 H 0.54932 0.07022 0.49809 0.0
H1448 H 0.55477 0.08668 0.45402 0.0
H1449 H 0.54992 0.12754 0.5749 0.0
H1450 H 0.56467 0.12536 0.65392 0.0
H1451 H 0.55149 0.07933 0.60019 0.0
C1452 C 0.52124 0.08493 0.41959 0.0
C1453 C 0.51812 0.09541 0.39173 0.0
C1454 C 0.52291 0.10987 0.41645 0.0
C1455 C 0.53091 0.11392 0.46778 0.0
C1456 C 0.53394 0.10333 0.49379 0.0
C1457 C 0.52918 0.08912 0.47054 0.0
C1458 C 0.53431 0.07999 0.50542 0.0
C1459 C 0.52053 0.06548 0.52915 0.0
C1460 C 0.54488 0.07612 0.47116 0.0
C1461 C 0.54294 0.09137 0.5516 0.0
C1462 C 0.54255 0.10474 0.54449 0.0
C1463 C 0.55019 0.11708 0.58109 0.0
C1464 C 0.55855 0.11573 0.6258 0.0
C1465 C 0.55921 0.10217 0.63332 0.0
C1466 C 0.55115 0.08982 0.59589 0.0
H1467 H 0.90936 0.41902 0.34718 0.0
H1468 H 0.90442 0.44912 0.22919 0.0
H1469 H 0.9006 0.4626 0.30858 0.0
H1470 H 0.88142 0.41696 0.45155 0.0
H1471 H 0.89274 0.4171 0.51048 0.0
H1472 H 0.89371 0.40889 0.44423 0.0
H1473 H 0.92307 0.42684 0.44218 0.0
H1474 H 0.92219 0.43512 0.50824 0.0
H1475 H 0.93085 0.44719 0.44767 0.0
H1476 H 0.89898 0.47385 0.40008 0.0
H1477 H 0.89993 0.48235 0.49814 0.0
H1478 H 0.90618 0.44515 0.55704 0.0
C1479 C 0.90722 0.42828 0.33801 0.0
C1480 C 0.90713 0.43299 0.28199 0.0
C1481 C 0.90453 0.44531 0.27177 0.0
C1482 C 0.90229 0.45301 0.31656 0.0
C1483 C 0.90268 0.44824 0.37128 0.0
C1484 C 0.90504 0.43615 0.38225 0.0
C1485 C 0.90581 0.43391 0.44506 0.0
C1486 C 0.89263 0.41829 0.46393 0.0
C1487 C 0.92141 0.43589 0.46174 0.0
C1488 C 0.90382 0.44683 0.46758 0.0
C1489 C 0.90189 0.45485 0.42431 0.0
C1490 C 0.90036 0.46759 0.4344 0.0
C1491 C 0.90095 0.47234 0.49027 0.0
C1492 C 0.90312 0.46441 0.53531 0.0
C1493 C 0.90442 0.4514 0.52362 0.0
H1494 H 0.53896 0.45774 0.67228 0.0
H1495 H 0.52487 0.41172 0.61583 0.0
H1496 H 0.54233 0.42222 0.5344 0.0
H1497 H 0.53925 0.47227 0.53965 0.0
H1498 H 0.55554 0.49093 0.552 0.0
H1499 H 0.5438 0.4799 0.61018 0.0
H1500 H 0.56761 0.48212 0.66028 0.0
H1501 H 0.57944 0.49314 0.60199 0.0
H1502 H 0.57934 0.47603 0.6241 0.0
H1503 H 0.55926 0.43747 0.45489 0.0
H1504 H 0.57308 0.45625 0.37975 0.0
H1505 H 0.57579 0.49239 0.48676 0.0
C1506 C 0.53983 0.44988 0.6435 0.0
C1507 C 0.53068 0.43392 0.65055 0.0
C1508 C 0.53182 0.42399 0.61125 0.0
C1509 C 0.54178 0.42985 0.5651 0.0
C1510 C 0.55048 0.44565 0.55886 0.0
C1511 C 0.54958 0.45554 0.59688 0.0
C1512 C 0.55892 0.47196 0.57735 0.0
C1513 C 0.54877 0.47918 0.5693 0.0
C1514 C 0.57211 0.48136 0.61838 0.0
C1515 C 0.56481 0.46971 0.52155 0.0
C1516 C 0.56006 0.45448 0.51222 0.0
C1517 C 0.56322 0.44946 0.46199 0.0
C1518 C 0.57108 0.46022 0.41954 0.0
C1519 C 0.57554 0.47581 0.42737 0.0
C1520 C 0.57271 0.48061 0.4797 0.0
H1521 H 0.43992 0.2456 0.61562 0.0
H1522 H 0.41109 0.21171 0.49216 0.0
H1523 H 0.41075 0.19137 0.55097 0.0
H1524 H 0.46186 0.22722 0.66017 0.0
H1525 H 0.46198 0.2323 0.73311 0.0
H1526 H 0.46153 0.24439 0.67818 0.0
H1527 H 0.43706 0.2423 0.72206 0.0
H1528 H 0.43745 0.23024 0.77702 0.0
H1529 H 0.42064 0.22368 0.73388 0.0
H1530 H 0.4122 0.17464 0.62548 0.0
H1531 H 0.41387 0.16246 0.71322 0.0
H1532 H 0.44093 0.20718 0.78988 0.0
C1533 C 0.43381 0.23393 0.60047 0.0
C1534 C 0.42565 0.23021 0.54919 0.0
C1535 C 0.41745 0.21478 0.53134 0.0
C1536 C 0.41726 0.20318 0.56426 0.0
C1537 C 0.42525 0.2072 0.61501 0.0
C1538 C 0.43331 0.22219 0.63322 0.0
C1539 C 0.43978 0.22329 0.69171 0.0
C1540 C 0.45733 0.23233 0.6907 0.0
C1541 C 0.43334 0.23028 0.73362 0.0
C1542 C 0.43383 0.20655 0.70398 0.0
C1543 C 0.42571 0.19749 0.65883 0.0
C1544 C 0.41864 0.18162 0.66097 0.0
C1545 C 0.41966 0.17481 0.71101 0.0
C1546 C 0.42753 0.18386 0.7584 0.0
C1547 C 0.4349 0.19995 0.7543 0.0
H1548 H 0.77004 0.17574 0.59191 0.0
H1549 H 0.76594 0.21369 0.52689 0.0
H1550 H 0.78174 0.2298 0.60604 0.0
H1551 H 0.76707 0.1825 0.73654 0.0
H1552 H 0.78065 0.17699 0.75916 0.0
H1553 H 0.76962 0.16882 0.69617 0.0
H1554 H 0.79454 0.17797 0.63876 0.0
H1555 H 0.80567 0.18616 0.70161 0.0
H1556 H 0.80904 0.19788 0.64003 0.0
H1557 H 0.79752 0.24146 0.69471 0.0
H1558 H 0.81173 0.24755 0.78482 0.0
H1559 H 0.80502 0.20165 0.78983 0.0
C1560 C 0.77251 0.18747 0.59393 0.0
C1561 C 0.76676 0.19346 0.55316 0.0
C1562 C 0.77024 0.20885 0.55763 0.0
C1563 C 0.7792 0.21809 0.6024 0.0
C1564 C 0.7846 0.21174 0.64209 0.0
C1565 C 0.78138 0.19678 0.6381 0.0
C1566 C 0.78818 0.1925 0.68662 0.0
C1567 C 0.77563 0.17944 0.72169 0.0
C1568 C 0.80006 0.18839 0.66547 0.0
C1569 C 0.79564 0.20735 0.719 0.0
C1570 C 0.79354 0.21836 0.69269 0.0
C1571 C 0.79928 0.23294 0.71553 0.0
C1572 C 0.80732 0.23629 0.76669 0.0
C1573 C 0.80948 0.22508 0.79436 0.0
C1574 C 0.80359 0.21048 0.76981 0.0
H1575 H 0.75684 0.5969 0.78067 0.0
H1576 H 0.77123 0.5759 0.90829 0.0
H1577 H 0.78987 0.57577 0.84167 0.0
H1578 H 0.75999 0.57591 0.66176 0.0
H1579 H 0.76689 0.59195 0.61433 0.0
H1580 H 0.75444 0.59015 0.67181 0.0
H1581 H 0.77447 0.61714 0.707 0.0
H1582 H 0.78704 0.61897 0.64992 0.0
H1583 H 0.79367 0.62129 0.72173 0.0
H1584 H 0.80768 0.57893 0.76349 0.0
H1585 H 0.82227 0.5833 0.67556 0.0
H1586 H 0.79599 0.60163 0.59718 0.0
C1587 C 0.76382 0.59216 0.79447 0.0
C1588 C 0.76257 0.58642 0.84975 0.0
C1589 C 0.77193 0.58033 0.86614 0.0
C1590 C 0.7826 0.58025 0.82867 0.0
C1591 C 0.78371 0.5862 0.77485 0.0
C1592 C 0.77448 0.59189 0.75745 0.0
C1593 C 0.77797 0.59754 0.69709 0.0
C1594 C 0.76399 0.58833 0.659 0.0
C1595 C 0.78363 0.61475 0.69377 0.0
C1596 C 0.79066 0.5942 0.6835 0.0
C1597 C 0.79384 0.58776 0.72913 0.0
C1598 C 0.80525 0.58389 0.72731 0.0
C1599 C 0.81351 0.58648 0.67719 0.0
C1600 C 0.81026 0.59277 0.62938 0.0
C1601 C 0.79872 0.59676 0.6329 0.0
H1602 H 0.44384 0.90245 0.47674 0.0
H1603 H 0.43226 0.93784 0.50694 0.0
H1604 H 0.44318 0.94173 0.6025 0.0
H1605 H 0.43646 0.88682 0.6197 0.0
H1606 H 0.45244 0.88357 0.61901 0.0
H1607 H 0.44277 0.88277 0.55418 0.0
H1608 H 0.46842 0.90319 0.51021 0.0
H1609 H 0.47816 0.90401 0.57474 0.0
H1610 H 0.47966 0.9212 0.5458 0.0
H1611 H 0.45623 0.94263 0.69266 0.0
H1612 H 0.47167 0.9413 0.77042 0.0
H1613 H 0.4751 0.90553 0.68176 0.0
C1614 C 0.44346 0.9109 0.50367 0.0
C1615 C 0.43716 0.91981 0.48447 0.0
C1616 C 0.43705 0.93089 0.52072 0.0
C1617 C 0.44315 0.93314 0.57518 0.0
C1618 C 0.44933 0.92423 0.59272 0.0
C1619 C 0.44959 0.91337 0.55809 0.0
C1620 C 0.45766 0.90592 0.58624 0.0
C1621 C 0.44667 0.88875 0.59532 0.0
C1622 C 0.47182 0.90876 0.55222 0.0
C1623 C 0.4621 0.91447 0.64174 0.0
C1624 C 0.45703 0.92486 0.64478 0.0
C1625 C 0.46018 0.93447 0.69099 0.0
C1626 C 0.46897 0.93363 0.73494 0.0
C1627 C 0.47458 0.9233 0.73224 0.0
C1628 C 0.47087 0.91344 0.68532 0.0
H1629 H 0.10172 0.57712 0.64947 0.0
H1630 H 0.07326 0.59142 0.56182 0.0
H1631 H 0.07632 0.58026 0.47373 0.0
H1632 H 0.1277 0.58254 0.52777 0.0
H1633 H 0.1288 0.56587 0.54712 0.0
H1634 H 0.12638 0.57711 0.60085 0.0
H1635 H 0.10217 0.55289 0.63669 0.0
H1636 H 0.10439 0.54162 0.5829 0.0
H1637 H 0.08675 0.54192 0.58826 0.0
H1638 H 0.07893 0.56406 0.40009 0.0
H1639 H 0.08236 0.54539 0.34413 0.0
H1640 H 0.10976 0.54222 0.47844 0.0
C1641 C 0.09648 0.5783 0.61142 0.0
C1642 C 0.08726 0.58516 0.61255 0.0
C1643 C 0.08044 0.58629 0.56197 0.0
C1644 C 0.08212 0.57998 0.51168 0.0
C1645 C 0.09083 0.5728 0.51252 0.0
C1646 C 0.0981 0.57213 0.56086 0.0
C1647 C 0.10576 0.5627 0.55169 0.0
C1648 C 0.1232 0.57265 0.55717 0.0
C1649 C 0.09938 0.54897 0.59228 0.0
C1650 C 0.10112 0.55763 0.49137 0.0
C1651 C 0.09261 0.56368 0.4694 0.0
C1652 C 0.08587 0.55953 0.41632 0.0
C1653 C 0.0878 0.54885 0.38501 0.0
C1654 C 0.09644 0.5425 0.40681 0.0
C1655 C 0.10338 0.54715 0.46027 0.0
H1656 H 0.41962 0.48965 0.57908 0.0
H1657 H 0.40601 0.52157 0.63989 0.0
H1658 H 0.41847 0.53818 0.55758 0.0
H1659 H 0.45585 0.51682 0.53984 0.0
H1660 H 0.45703 0.50708 0.47805 0.0
H1661 H 0.4447 0.49629 0.53539 0.0
H1662 H 0.42158 0.48379 0.46735 0.0
H1663 H 0.43389 0.49446 0.40949 0.0
H1664 H 0.41709 0.49574 0.42447 0.0
H1665 H 0.43503 0.55277 0.47652 0.0
H1666 H 0.45459 0.56443 0.40217 0.0
H1667 H 0.45801 0.52331 0.39489 0.0
C1668 C 0.41879 0.49986 0.57398 0.0
C1669 C 0.41169 0.50425 0.61538 0.0
C1670 C 0.4113 0.51796 0.60835 0.0
C1671 C 0.41831 0.52743 0.5617 0.0
C1672 C 0.42566 0.52304 0.52257 0.0
C1673 C 0.4259 0.50954 0.52802 0.0
C1674 C 0.436 0.50828 0.48362 0.0
C1675 C 0.44917 0.50705 0.51087 0.0
C1676 C 0.42657 0.49477 0.44387 0.0
C1677 C 0.44179 0.5234 0.4535 0.0
C1678 C 0.43551 0.53163 0.47611 0.0
C1679 C 0.43985 0.54634 0.45785 0.0
C1680 C 0.45102 0.55289 0.41573 0.0
C1681 C 0.45781 0.54477 0.39255 0.0
C1682 C 0.45292 0.52974 0.41124 0.0
H1683 H 0.59503 0.83023 0.25251 0.0
H1684 H 0.56438 0.79476 0.13694 0.0
H1685 H 0.55956 0.77522 0.20865 0.0
H1686 H 0.61217 0.81061 0.30778 0.0
H1687 H 0.61358 0.81733 0.37914 0.0
H1688 H 0.61343 0.82876 0.3213 0.0
H1689 H 0.59026 0.82935 0.36532 0.0
H1690 H 0.59042 0.81801 0.42366 0.0
H1691 H 0.57327 0.81164 0.38275 0.0
H1692 H 0.56042 0.75938 0.28787 0.0
H1693 H 0.56551 0.74841 0.37255 0.0
H1694 H 0.59484 0.79408 0.43813 0.0
C1695 C 0.58706 0.81839 0.24267 0.0
C1696 C 0.58009 0.81405 0.18906 0.0
C1697 C 0.56983 0.79839 0.17773 0.0
C1698 C 0.56701 0.78719 0.21819 0.0
C1699 C 0.57438 0.79181 0.27002 0.0
C1700 C 0.58404 0.80704 0.28272 0.0
C1701 C 0.59107 0.80889 0.34063 0.0
C1702 C 0.6086 0.81686 0.33695 0.0
C1703 C 0.58594 0.81748 0.38044 0.0
C1704 C 0.5842 0.79231 0.35774 0.0
C1705 C 0.57458 0.78264 0.31646 0.0
C1706 C 0.56771 0.76682 0.32096 0.0
C1707 C 0.57073 0.7607 0.36902 0.0
C1708 C 0.58046 0.77039 0.41202 0.0
C1709 C 0.58715 0.78639 0.40636 0.0
H1710 H 0.21444 0.78177 0.34723 0.0
H1711 H 0.22769 0.82956 0.32703 0.0
H1712 H 0.21502 0.8238 0.23451 0.0
H1713 H 0.21938 0.77471 0.20171 0.0
H1714 H 0.20296 0.75574 0.20074 0.0
H1715 H 0.21325 0.76353 0.26553 0.0
H1716 H 0.18827 0.75867 0.31444 0.0
H1717 H 0.1779 0.75081 0.2499 0.0
H1718 H 0.17729 0.76645 0.28387 0.0
H1719 H 0.2012 0.81317 0.14483 0.0
H1720 H 0.18587 0.79799 0.06408 0.0
H1721 H 0.18104 0.75687 0.14179 0.0
C1722 C 0.21468 0.79102 0.32331 0.0
C1723 C 0.22209 0.80613 0.34436 0.0
C1724 C 0.22209 0.8179 0.31187 0.0
C1725 C 0.21496 0.81476 0.25916 0.0
C1726 C 0.20784 0.79979 0.23955 0.0
C1727 C 0.20755 0.78808 0.27058 0.0
C1728 C 0.19879 0.77295 0.23991 0.0
C1729 C 0.20922 0.76635 0.22616 0.0
C1730 C 0.18473 0.76155 0.27407 0.0
C1731 C 0.1942 0.77802 0.18693 0.0
C1732 C 0.19964 0.79357 0.18761 0.0
C1733 C 0.19687 0.80098 0.14371 0.0
C1734 C 0.18816 0.79224 0.09798 0.0
C1735 C 0.18225 0.77624 0.09658 0.0
C1736 C 0.18543 0.76908 0.14158 0.0
H1737 H 0.20271 0.40045 0.20021 0.0
H1738 H 0.25047 0.43571 0.20917 0.0
H1739 H 0.24516 0.44581 0.29587 0.0
H1740 H 0.18708 0.42357 0.24859 0.0
H1741 H 0.17197 0.40831 0.28845 0.0
H1742 H 0.17953 0.40401 0.22678 0.0
H1743 H 0.18549 0.38608 0.28615 0.0
H1744 H 0.17793 0.39032 0.34797 0.0
H1745 H 0.1971 0.3934 0.34858 0.0
H1746 H 0.23457 0.45193 0.38218 0.0
H1747 H 0.21963 0.45332 0.46215 0.0
H1748 H 0.17891 0.41393 0.39623 0.0
C1749 C 0.21206 0.41032 0.22025 0.0
C1750 C 0.22701 0.4173 0.19784 0.0
C1751 C 0.23893 0.43016 0.22556 0.0
C1752 C 0.23602 0.436 0.27478 0.0
C1753 C 0.22115 0.42883 0.29572 0.0
C1754 C 0.20938 0.41626 0.26937 0.0
C1755 C 0.19446 0.41052 0.3008 0.0
C1756 C 0.18256 0.41168 0.26395 0.0
C1757 C 0.1884 0.39411 0.32214 0.0
C1758 C 0.19968 0.42181 0.34906 0.0
C1759 C 0.21509 0.43231 0.34536 0.0
C1760 C 0.22249 0.44378 0.38547 0.0
C1761 C 0.2139 0.44448 0.43072 0.0
C1762 C 0.1981 0.43375 0.43549 0.0
C1763 C 0.19096 0.42233 0.39383 0.0
H1764 H 0.22477 0.40711 0.89375 0.0
H1765 H 0.23156 0.44902 0.97087 0.0
H1766 H 0.21874 0.45319 0.88971 0.0
H1767 H 0.23132 0.42075 0.75017 0.0
H1768 H 0.21695 0.40269 0.72168 0.0
H1769 H 0.22686 0.4032 0.78546 0.0
H1770 H 0.20097 0.38782 0.83753 0.0
H1771 H 0.19098 0.38726 0.77395 0.0
H1772 H 0.18773 0.39487 0.83785 0.0
H1773 H 0.20446 0.4523 0.80097 0.0
H1774 H 0.19018 0.4466 0.71128 0.0
H1775 H 0.19326 0.40548 0.69266 0.0
C1776 C 0.2236 0.41719 0.89365 0.0
C1777 C 0.22915 0.42773 0.93872 0.0
C1778 C 0.22741 0.4408 0.93678 0.0
C1779 C 0.22015 0.44326 0.89088 0.0
C1780 C 0.21477 0.4326 0.84724 0.0
C1781 C 0.21646 0.41986 0.84821 0.0
C1782 C 0.2096 0.41006 0.79635 0.0
C1783 C 0.22192 0.40913 0.76135 0.0
C1784 C 0.19654 0.39406 0.8124 0.0
C1785 C 0.20365 0.41921 0.76619 0.0
C1786 C 0.20674 0.43218 0.79612 0.0
C1787 C 0.20204 0.44222 0.77704 0.0
C1788 C 0.19393 0.43888 0.72611 0.0
C1789 C 0.19063 0.42562 0.69489 0.0
C1790 C 0.19566 0.41576 0.71529 0.0
H1791 H 0.59881 0.81254 0.88363 0.0
H1792 H 0.55175 0.77995 0.92702 0.0
H1793 H 0.55067 0.76327 0.84909 0.0
H1794 H 0.5942 0.80871 0.73512 0.0
H1795 H 0.61255 0.81039 0.72218 0.0
H1796 H 0.60985 0.81947 0.7829 0.0
H1797 H 0.61909 0.80513 0.84808 0.0
H1798 H 0.62185 0.79602 0.78752 0.0
H1799 H 0.60981 0.78459 0.84471 0.0
H1800 H 0.55434 0.75067 0.76411 0.0
H1801 H 0.56267 0.74283 0.67881 0.0
H1802 H 0.6074 0.78353 0.6917 0.0
C1803 C 0.58831 0.80185 0.87704 0.0
C1804 C 0.57537 0.79755 0.91144 0.0
C1805 C 0.56182 0.78349 0.90126 0.0
C1806 C 0.56109 0.77392 0.85712 0.0
C1807 C 0.57401 0.77856 0.82374 0.0
C1808 C 0.58738 0.79216 0.83328 0.0
C1809 C 0.59954 0.79463 0.79055 0.0
C1810 C 0.60431 0.80916 0.75563 0.0
C1811 C 0.61339 0.79512 0.81945 0.0
C1812 C 0.59085 0.78037 0.7551 0.0
C1813 C 0.57616 0.77124 0.775 0.0
C1814 C 0.56585 0.75767 0.74831 0.0
C1815 C 0.57068 0.75333 0.69984 0.0
C1816 C 0.58569 0.76254 0.67866 0.0
C1817 C 0.59588 0.77619 0.70701 0.0
H1818 H 0.16989 0.76718 0.81968 0.0
H1819 H 0.19878 0.7485 0.86675 0.0
H1820 H 0.21502 0.76077 0.7834 0.0
H1821 H 0.17206 0.76329 0.66787 0.0
H1822 H 0.17242 0.78096 0.65305 0.0
H1823 H 0.16267 0.77004 0.7148 0.0
H1824 H 0.17898 0.79371 0.77766 0.0
H1825 H 0.18878 0.80469 0.71618 0.0
H1826 H 0.19952 0.80311 0.77379 0.0
H1827 H 0.22887 0.77626 0.69751 0.0
H1828 H 0.2391 0.7936 0.61545 0.0
H1829 H 0.20085 0.80173 0.62495 0.0
C1830 C 0.17954 0.76553 0.81227 0.0
C1831 C 0.18305 0.75686 0.8497 0.0
C1832 C 0.19584 0.75507 0.83858 0.0
C1833 C 0.20513 0.76198 0.79133 0.0
C1834 C 0.20141 0.77057 0.75556 0.0
C1835 C 0.18889 0.77231 0.76538 0.0
C1836 C 0.18763 0.78249 0.72158 0.0
C1837 C 0.17282 0.77367 0.68729 0.0
C1838 C 0.1888 0.79685 0.74895 0.0
C1839 C 0.20152 0.78639 0.68599 0.0
C1840 C 0.20931 0.77937 0.70607 0.0
C1841 C 0.2228 0.78172 0.68112 0.0
C1842 C 0.22853 0.7916 0.63461 0.0
C1843 C 0.22075 0.79897 0.61368 0.0
C1844 C 0.20701 0.79618 0.63958 0.0
H1845 H 0.06954 0.55376 0.92251 0.0
H1846 H 0.11495 0.56595 0.86417 0.0
H1847 H 0.11744 0.5514 0.94328 0.0
H1848 H 0.07811 0.55829 0.06564 0.0
H1849 H 0.06003 0.54253 0.08805 0.0
H1850 H 0.06122 0.55243 0.02357 0.0
H1851 H 0.0496 0.52689 0.96839 0.0
H1852 H 0.0483 0.51688 0.03287 0.0
H1853 H 0.05844 0.51523 0.9732 0.0
H1854 H 0.11561 0.53714 0.0336 0.0
H1855 H 0.10963 0.52454 0.12708 0.0
H1856 H 0.06556 0.52218 0.12472 0.0
C1857 C 0.07992 0.55318 0.92566 0.0
C1858 C 0.09203 0.56096 0.88709 0.0
C1859 C 0.10549 0.56003 0.89318 0.0
C1860 C 0.107 0.55178 0.9379 0.0
C1861 C 0.09492 0.54448 0.97585 0.0
C1862 C 0.08162 0.54506 0.96992 0.0
C1863 C 0.07069 0.5371 0.01807 0.0
C1864 C 0.06732 0.54825 0.05075 0.0
C1865 C 0.05588 0.5232 0.99685 0.0
C1866 C 0.08005 0.53224 0.05281 0.0
C1867 C 0.09393 0.53644 0.02765 0.0
C1868 C 0.10471 0.53366 0.0534 0.0
C1869 C 0.10123 0.52652 0.10646 0.0
C1870 C 0.08714 0.52239 0.13316 0.0
C1871 C 0.07642 0.52516 0.10543 0.0
H1872 H 0.45626 0.52883 0.92103 0.0
H1873 H 0.41485 0.53158 0.90869 0.0
H1874 H 0.4238 0.55013 0.987 0.0
H1875 H 0.45789 0.52894 0.06705 0.0
H1876 H 0.47841 0.54026 0.07178 0.0
H1877 H 0.46968 0.52878 0.01026 0.0
H1878 H 0.48409 0.55274 0.94683 0.0
H1879 H 0.49287 0.56433 0.00834 0.0
H1880 H 0.48221 0.56928 0.96034 0.0
H1881 H 0.43596 0.56626 0.07282 0.0
H1882 H 0.4502 0.57828 0.16025 0.0
H1883 H 0.48368 0.5651 0.11571 0.0
C1884 C 0.4492 0.53355 0.934 0.0
C1885 C 0.43488 0.52878 0.90858 0.0
C1886 C 0.42589 0.53508 0.92741 0.0
C1887 C 0.4309 0.54568 0.97173 0.0
C1888 C 0.44496 0.54994 0.99652 0.0
C1889 C 0.45401 0.54412 0.97817 0.0
C1890 C 0.46807 0.54961 0.01466 0.0
C1891 C 0.46853 0.53609 0.04259 0.0
C1892 C 0.48267 0.55959 0.98049 0.0
C1893 C 0.46526 0.55903 0.05753 0.0
C1894 C 0.45198 0.55925 0.04596 0.0
C1895 C 0.44651 0.56636 0.08186 0.0
C1896 C 0.45466 0.57315 0.13146 0.0
C1897 C 0.46809 0.5727 0.14476 0.0
C1898 C 0.47358 0.56583 0.10649 0.0
H1899 H 0.45885 0.90093 0.9756 0.0
H1900 H 0.50724 0.93037 0.00908 0.0
H1901 H 0.50119 0.93556 0.10435 0.0
H1902 H 0.44666 0.92401 0.04351 0.0
H1903 H 0.42932 0.90833 0.07159 0.0
H1904 H 0.43745 0.90584 0.00772 0.0
H1905 H 0.4382 0.88281 0.05225 0.0
H1906 H 0.43006 0.88523 0.11637 0.0
H1907 H 0.44788 0.88521 0.11851 0.0
H1908 H 0.49 0.93885 0.19322 0.0
H1909 H 0.47434 0.94042 0.26974 0.0
H1910 H 0.43313 0.90893 0.17902 0.0
C1911 C 0.46818 0.9083 0.00324 0.0
C1912 C 0.48352 0.9152 0.98496 0.0
C1913 C 0.4954 0.92494 0.02215 0.0
C1914 C 0.49209 0.92792 0.07644 0.0
C1915 C 0.47685 0.92107 0.09294 0.0
C1916 C 0.46508 0.91145 0.05756 0.0
C1917 C 0.44966 0.90624 0.08465 0.0
C1918 C 0.44023 0.91142 0.04979 0.0
C1919 C 0.44094 0.88884 0.09347 0.0
C1920 C 0.45463 0.91465 0.14037 0.0
C1921 C 0.47036 0.92303 0.14441 0.0
C1922 C 0.47767 0.93224 0.19082 0.0
C1923 C 0.46867 0.93307 0.23402 0.0
C1924 C 0.45252 0.92477 0.23046 0.0
C1925 C 0.44545 0.91529 0.18326 0.0
H1926 H 0.21448 0.35846 0.05741 0.0
H1927 H 0.25567 0.36155 0.12678 0.0
H1928 H 0.24228 0.33344 0.13627 0.0
H1929 H 0.18805 0.32821 0.14681 0.0
H1930 H 0.17385 0.31918 0.09244 0.0
H1931 H 0.18678 0.33949 0.09043 0.0
H1932 H 0.19531 0.33706 0.98971 0.0
H1933 H 0.1824 0.31674 0.99139 0.0
H1934 H 0.2024 0.32411 0.97724 0.0
H1935 H 0.22423 0.30488 0.13826 0.0
H1936 H 0.20292 0.27821 0.13348 0.0
H1937 H 0.17368 0.29414 0.06341 0.0
C1938 C 0.22073 0.35326 0.07449 0.0
C1939 C 0.23614 0.36222 0.09128 0.0
C1940 C 0.24386 0.35493 0.11361 0.0
C1941 C 0.23636 0.33897 0.11914 0.0
C1942 C 0.22115 0.33049 0.10221 0.0
C1943 C 0.21343 0.33739 0.08039 0.0
C1944 C 0.19709 0.32574 0.06579 0.0
C1945 C 0.18578 0.32831 0.10098 0.0
C1946 C 0.19414 0.32593 0.00226 0.0
C1947 C 0.1968 0.31118 0.08285 0.0
C1948 C 0.21078 0.31413 0.10366 0.0
C1949 C 0.21323 0.30243 0.12205 0.0
C1950 C 0.20106 0.28733 0.11914 0.0
C1951 C 0.18662 0.28408 0.09812 0.0
C1952 C 0.18455 0.29622 0.07976 0.0
H1953 H 0.7097 0.89482 0.0682 0.0
H1954 H 0.7081 0.93598 0.10703 0.0
H1955 H 0.67995 0.92149 0.09744 0.0
H1956 H 0.6802 0.88042 0.96363 0.0
H1957 H 0.67272 0.86075 0.98368 0.0
H1958 H 0.69264 0.87438 0.99424 0.0
H1959 H 0.68999 0.8673 0.10031 0.0
H1960 H 0.67006 0.85364 0.0901 0.0
H1961 H 0.67573 0.86849 0.14219 0.0
H1962 H 0.65187 0.90229 0.08318 0.0
H1963 H 0.62626 0.88009 0.06544 0.0
H1964 H 0.6467 0.85178 0.03585 0.0
C1965 C 0.70347 0.90082 0.07493 0.0
C1966 C 0.7111 0.91654 0.08853 0.0
C1967 C 0.70249 0.92395 0.09658 0.0
C1968 C 0.68651 0.91581 0.09125 0.0
C1969 C 0.67937 0.90032 0.07769 0.0
C1970 C 0.68759 0.89293 0.06959 0.0
C1971 C 0.67729 0.87628 0.05482 0.0
C1972 C 0.68093 0.87276 0.99557 0.0
C1973 C 0.67833 0.86581 0.09954 0.0
C1974 C 0.66191 0.87538 0.05625 0.0
C1975 C 0.66332 0.88936 0.06938 0.0
C1976 C 0.65064 0.8913 0.07288 0.0
C1977 C 0.63614 0.87862 0.0627 0.0
C1978 C 0.63447 0.86419 0.04929 0.0
C1979 C 0.64757 0.86263 0.0461 0.0
H1980 H 0.1308 0.769 0.05073 0.0
H1981 H 0.09689 0.74258 0.92345 0.0
H1982 H 0.08344 0.75681 0.94472 0.0
H1983 H 0.10488 0.77181 0.15068 0.0
H1984 H 0.11878 0.79105 0.1707 0.0
H1985 H 0.12498 0.778 0.14803 0.0
H1986 H 0.14195 0.79727 0.07113 0.0
H1987 H 0.1358 0.81036 0.09342 0.0
H1988 H 0.13343 0.80419 0.02098 0.0
H1989 H 0.07468 0.77516 0.97643 0.0
H1990 H 0.07139 0.79602 0.01525 0.0
H1991 H 0.11123 0.81015 0.12137 0.0
C1992 C 0.12045 0.76604 0.02762 0.0
C1993 C 0.11488 0.75465 0.98541 0.0
C1994 C 0.10134 0.75123 0.95606 0.0
C1995 C 0.09362 0.75924 0.96791 0.0
C1996 C 0.09956 0.77054 0.00937 0.0
C1997 C 0.11265 0.77388 0.03887 0.0
C1998 C 0.11711 0.78695 0.07964 0.0
C1999 C 0.11639 0.78163 0.14089 0.0
C2000 C 0.13301 0.80049 0.06541 0.0
C2001 C 0.10466 0.79069 0.06779 0.0
C2002 C 0.09457 0.78104 0.02748 0.0
C2003 C 0.08244 0.78269 0.00834 0.0
C2004 C 0.08068 0.79458 0.03063 0.0
C2005 C 0.09104 0.80471 0.07146 0.0
C2006 C 0.10306 0.80256 0.09053 0.0
H2007 H 0.2992 0.18303 0.36993 0.0
H2008 H 0.28039 0.21128 0.42415 0.0
H2009 H 0.30656 0.23297 0.4384 0.0
H2010 H 0.32949 0.19714 0.46942 0.0
H2011 H 0.34288 0.19627 0.42151 0.0
H2012 H 0.32272 0.18329 0.41318 0.0
H2013 H 0.32419 0.19239 0.30999 0.0
H2014 H 0.34437 0.2054 0.31799 0.0
H2015 H 0.33199 0.21246 0.29569 0.0
H2016 H 0.33497 0.25146 0.44806 0.0
H2017 H 0.36315 0.26494 0.45502 0.0
H2018 H 0.3629 0.22415 0.39605 0.0
C2019 C 0.30055 0.1938 0.38439 0.0
C2020 C 0.28775 0.19548 0.39572 0.0
C2021 C 0.29004 0.20973 0.41514 0.0
C2022 C 0.30485 0.22212 0.42325 0.0
C2023 C 0.31721 0.22003 0.4119 0.0
C2024 C 0.31519 0.2062 0.39301 0.0
C2025 C 0.33031 0.20672 0.38561 0.0
C2026 C 0.33141 0.19517 0.42477 0.0
C2027 C 0.33286 0.20409 0.32363 0.0
C2028 C 0.34117 0.22299 0.40358 0.0
C2029 C 0.33345 0.23053 0.41825 0.0
C2030 C 0.34113 0.24566 0.43659 0.0
C2031 C 0.35714 0.25323 0.44035 0.0
C2032 C 0.36523 0.2456 0.42618 0.0
C2033 C 0.35707 0.23031 0.40732 0.0
H2034 H 0.76154 0.12742 0.38907 0.0
H2035 H 0.75856 0.12145 0.57077 0.0
H2036 H 0.77282 0.10757 0.56445 0.0
H2037 H 0.75876 0.09052 0.35301 0.0
H2038 H 0.77245 0.09877 0.29655 0.0
H2039 H 0.76053 0.10672 0.31457 0.0
H2040 H 0.78464 0.13329 0.32824 0.0
H2041 H 0.79663 0.12543 0.31067 0.0
H2042 H 0.79928 0.1353 0.37664 0.0
H2043 H 0.789 0.09624 0.53977 0.0
H2044 H 0.80611 0.08807 0.49842 0.0
H2045 H 0.79908 0.10172 0.33253 0.0
C2046 C 0.76358 0.12288 0.42736 0.0
C2047 C 0.75884 0.1254 0.48041 0.0
C2048 C 0.76204 0.1196 0.5297 0.0
C2049 C 0.7701 0.11168 0.52652 0.0
C2050 C 0.7749 0.10968 0.47376 0.0
C2051 C 0.77174 0.11506 0.425 0.0
C2052 C 0.77914 0.11231 0.37414 0.0
C2053 C 0.76699 0.10143 0.33209 0.0
C2054 C 0.7906 0.12748 0.34578 0.0
C2055 C 0.78719 0.10481 0.40213 0.0
C2056 C 0.78446 0.10328 0.45952 0.0
C2057 C 0.79111 0.09723 0.4948 0.0
C2058 C 0.80085 0.09266 0.47086 0.0
C2059 C 0.80393 0.09421 0.41217 0.0
C2060 C 0.79688 0.10027 0.37744 0.0
H2061 H 0.90239 0.71205 0.43218 0.0
H2062 H 0.92151 0.70262 0.28392 0.0
H2063 H 0.91079 0.67586 0.31529 0.0
H2064 H 0.90713 0.68629 0.53056 0.0
H2065 H 0.88921 0.68069 0.56511 0.0
H2066 H 0.9001 0.69951 0.53484 0.0
H2067 H 0.87663 0.69467 0.47519 0.0
H2068 H 0.8657 0.67586 0.50496 0.0
H2069 H 0.86772 0.67823 0.42954 0.0
H2070 H 0.89595 0.64966 0.35814 0.0
H2071 H 0.87794 0.626 0.40817 0.0
H2072 H 0.86818 0.6526 0.52748 0.0
C2073 C 0.90465 0.70447 0.40692 0.0
C2074 C 0.91289 0.70945 0.35575 0.0
C2075 C 0.9153 0.69907 0.32339 0.0
C2076 C 0.90929 0.68387 0.34094 0.0
C2077 C 0.90092 0.67925 0.39096 0.0
C2078 C 0.89865 0.68927 0.42358 0.0
C2079 C 0.8882 0.68121 0.473 0.0
C2080 C 0.89667 0.68729 0.52921 0.0
C2081 C 0.87371 0.68257 0.47047 0.0
C2082 C 0.8846 0.66498 0.4623 0.0
C2083 C 0.8922 0.66412 0.41523 0.0
C2084 C 0.89008 0.65022 0.39544 0.0
C2085 C 0.8798 0.63684 0.42414 0.0
C2086 C 0.87166 0.63743 0.47188 0.0
C2087 C 0.87431 0.65175 0.49146 0.0
H2088 H 0.80564 0.7064 0.9115 0.0
H2089 H 0.7636 0.70479 0.86065 0.0
H2090 H 0.74885 0.67805 0.89436 0.0
H2091 H 0.79551 0.66927 0.86838 0.0
H2092 H 0.80482 0.66578 0.92656 0.0
H2093 H 0.81178 0.68498 0.90195 0.0
H2094 H 0.8089 0.69325 0.00257 0.0
H2095 H 0.80192 0.67405 0.02757 0.0
H2096 H 0.79069 0.68319 0.03784 0.0
H2097 H 0.73894 0.65096 0.92989 0.0
H2098 H 0.73477 0.62591 0.9623 0.0
H2099 H 0.78355 0.64582 0.98891 0.0
C2100 C 0.79332 0.70052 0.90777 0.0
C2101 C 0.78577 0.7077 0.88344 0.0
C2102 C 0.76963 0.69953 0.87925 0.0
C2103 C 0.76116 0.68436 0.89836 0.0
C2104 C 0.76903 0.67761 0.92173 0.0
C2105 C 0.78475 0.68547 0.92654 0.0
C2106 C 0.7906 0.67557 0.95114 0.0
C2107 C 0.8013 0.6738 0.90951 0.0
C2108 C 0.79849 0.68189 0.00817 0.0
C2109 C 0.77573 0.66074 0.95848 0.0
C2110 C 0.76338 0.66214 0.94182 0.0
C2111 C 0.74852 0.64978 0.94339 0.0
C2112 C 0.74627 0.6356 0.9619 0.0
C2113 C 0.75883 0.6339 0.97821 0.0
C2114 C 0.7737 0.64673 0.97695 0.0
H2115 H 0.37136 0.16426 0.8811 0.0
H2116 H 0.38145 0.13022 0.94725 0.0
H2117 H 0.35393 0.11099 0.94522 0.0
H2118 H 0.33694 0.15225 0.95817 0.0
H2119 H 0.32743 0.15598 0.9013 0.0
H2120 H 0.34792 0.16688 0.90697 0.0
H2121 H 0.35047 0.15906 0.80517 0.0
H2122 H 0.32998 0.14813 0.79918 0.0
H2123 H 0.34122 0.13909 0.78679 0.0
H2124 H 0.3251 0.09567 0.9381 0.0
H2125 H 0.29738 0.08546 0.92535 0.0
H2126 H 0.30659 0.12965 0.86287 0.0
C2127 C 0.36782 0.15276 0.89507 0.0
C2128 C 0.37856 0.14875 0.91441 0.0
C2129 C 0.37343 0.13355 0.93223 0.0
C2130 C 0.35782 0.12255 0.93123 0.0
C2131 C 0.34754 0.12693 0.91208 0.0
C2132 C 0.35235 0.14166 0.89417 0.0
C2133 C 0.33903 0.14351 0.87592 0.0
C2134 C 0.33776 0.15535 0.9128 0.0
C2135 C 0.34025 0.14769 0.81303 0.0
C2136 C 0.32594 0.12754 0.88673 0.0
C2137 C 0.33105 0.11812 0.90755 0.0
C2138 C 0.32097 0.10292 0.92159 0.0
C2139 C 0.30526 0.09723 0.91425 0.0
C2140 C 0.29981 0.10674 0.893 0.0
C2141 C 0.31036 0.12206 0.87894 0.0
H2142 H 0.8833 0.17847 0.96062 0.0
H2143 H 0.92101 0.203 0.84411 0.0
H2144 H 0.91295 0.22215 0.8294 0.0
H2145 H 0.85592 0.18445 0.88573 0.0
H2146 H 0.84732 0.18669 0.94891 0.0
H2147 H 0.85611 0.17499 0.94991 0.0
H2148 H 0.87347 0.19104 0.03268 0.0
H2149 H 0.86476 0.20281 0.03184 0.0
H2150 H 0.88518 0.21146 0.02499 0.0
H2151 H 0.90053 0.23857 0.82721 0.0
H2152 H 0.88478 0.25086 0.83794 0.0
H2153 H 0.85558 0.21551 0.95672 0.0
C2154 C 0.88987 0.18784 0.9319 0.0
C2155 C 0.90278 0.18923 0.90346 0.0
C2156 C 0.91108 0.2017 0.86637 0.0
C2157 C 0.90659 0.21264 0.85775 0.0
C2158 C 0.89382 0.21094 0.88661 0.0
C2159 C 0.8856 0.19885 0.92295 0.0
C2160 C 0.87234 0.19962 0.949 0.0
C2161 C 0.85702 0.1856 0.93236 0.0
C2162 C 0.87405 0.20134 0.01345 0.0
C2163 C 0.87436 0.21402 0.9216 0.0
C2164 C 0.8868 0.2204 0.88571 0.0
C2165 C 0.89078 0.23368 0.8553 0.0
C2166 C 0.88177 0.24058 0.86167 0.0
C2167 C 0.86897 0.23418 0.89825 0.0
C2168 C 0.86533 0.22075 0.9286 0.0
H2169 H 0.70856 0.81721 0.53234 0.0
H2170 H 0.71358 0.78033 0.60294 0.0
H2171 H 0.68604 0.76251 0.58808 0.0
H2172 H 0.67253 0.80635 0.59328 0.0
H2173 H 0.66546 0.81169 0.53277 0.0
H2174 H 0.68565 0.82132 0.54689 0.0
H2175 H 0.69057 0.81434 0.44686 0.0
H2176 H 0.67038 0.80467 0.43245 0.0
H2177 H 0.68082 0.79463 0.42489 0.0
H2178 H 0.65764 0.74903 0.56969 0.0
H2179 H 0.63072 0.74092 0.54824 0.0
H2180 H 0.64463 0.78662 0.48802 0.0
C2181 C 0.70392 0.80538 0.54445 0.0
C2182 C 0.71324 0.80017 0.56887 0.0
C2183 C 0.70667 0.78458 0.58408 0.0
C2184 C 0.69104 0.77437 0.57577 0.0
C2185 C 0.68218 0.77991 0.55187 0.0
C2186 C 0.68839 0.79504 0.53623 0.0
C2187 C 0.67636 0.79821 0.5125 0.0
C2188 C 0.67492 0.81009 0.54852 0.0
C2189 C 0.67974 0.80326 0.45049 0.0
C2190 C 0.66235 0.78254 0.51789 0.0
C2191 C 0.66592 0.77213 0.54058 0.0
C2192 C 0.65473 0.75706 0.55144 0.0
C2193 C 0.63947 0.75257 0.53917 0.0
C2194 C 0.63557 0.76311 0.51617 0.0
C2195 C 0.64724 0.77823 0.50497 0.0
H2196 H 0.19428 0.88447 0.63164 0.0
H2197 H 0.21837 0.92702 0.53825 0.0
H2198 H 0.23749 0.92013 0.5079 0.0
H2199 H 0.22844 0.88282 0.67629 0.0
H2200 H 0.219 0.86238 0.66786 0.0
H2201 H 0.2081 0.87138 0.68697 0.0
H2202 H 0.19035 0.85873 0.60103 0.0
H2203 H 0.20118 0.84973 0.5817 0.0
H2204 H 0.19857 0.86161 0.5315 0.0
H2205 H 0.25259 0.90757 0.48052 0.0
H2206 H 0.2625 0.89022 0.45836 0.0
H2207 H 0.22872 0.85608 0.57052 0.0
C2208 C 0.20372 0.89247 0.60562 0.0
C2209 C 0.20483 0.9063 0.58744 0.0
C2210 C 0.21727 0.91637 0.55283 0.0
C2211 C 0.22823 0.91258 0.53548 0.0
C2212 C 0.22665 0.89874 0.55339 0.0
C2213 C 0.21475 0.88887 0.58793 0.0
C2214 C 0.21513 0.87429 0.59837 0.0
C2215 C 0.21783 0.87263 0.6611 0.0
C2216 C 0.20044 0.86027 0.57684 0.0
C2217 C 0.22883 0.87732 0.56303 0.0
C2218 C 0.23542 0.89154 0.53785 0.0
C2219 C 0.24767 0.89649 0.50061 0.0
C2220 C 0.2532 0.88655 0.4882 0.0
C2221 C 0.24645 0.87183 0.51288 0.0
C2222 C 0.23428 0.86733 0.5515 0.0
H2223 H 0.14616 0.36366 0.52983 0.0
H2224 H 0.11779 0.38134 0.59384 0.0
H2225 H 0.09731 0.35502 0.61517 0.0
H2226 H 0.11593 0.32942 0.46565 0.0
H2227 H 0.12424 0.31793 0.48524 0.0
H2228 H 0.13634 0.33811 0.47315 0.0
H2229 H 0.14805 0.34118 0.57283 0.0
H2230 H 0.13596 0.32102 0.58528 0.0
H2231 H 0.13562 0.33464 0.63348 0.0
H2232 H 0.08003 0.32661 0.63049 0.0
H2233 H 0.06765 0.29854 0.64053 0.0
H2234 H 0.1078 0.29991 0.56834 0.0
C2235 C 0.13561 0.36202 0.54792 0.0
C2236 C 0.13355 0.37455 0.55996 0.0
C2237 C 0.11961 0.3719 0.5842 0.0
C2238 C 0.10791 0.357 0.59639 0.0
C2239 C 0.11036 0.3449 0.58428 0.0
C2240 C 0.12388 0.34727 0.56068 0.0
C2241 C 0.12387 0.3324 0.55326 0.0
C2242 C 0.12517 0.32929 0.4906 0.0
C2243 C 0.13663 0.33231 0.58832 0.0
C2244 C 0.10825 0.32129 0.57657 0.0
C2245 C 0.10058 0.32867 0.59395 0.0
C2246 C 0.08594 0.3207 0.61698 0.0
C2247 C 0.079 0.30477 0.62249 0.0
C2248 C 0.08676 0.29703 0.60537 0.0
C2249 C 0.10156 0.30547 0.58204 0.0
H2250 H 0.02037 0.53853 0.76179 0.0
H2251 H 0.03523 0.58679 0.74605 0.0
H2252 H 0.00883 0.58029 0.72343 0.0
H2253 H 0.9935 0.52552 0.64849 0.0
H2254 H 0.97981 0.50827 0.68401 0.0
H2255 H -0.00015 0.51673 0.69976 0.0
H2256 H 0.99422 0.5179 0.80573 0.0
H2257 H 0.97416 0.50942 0.7903 0.0
H2258 H 0.98398 0.52744 0.82686 0.0
H2259 H 0.98087 0.56849 0.70071 0.0
H2260 H 0.95328 0.55225 0.68166 0.0
H2261 H 0.95678 0.51178 0.71326 0.0
C2262 C 0.01809 0.54775 0.7537 0.0
C2263 C 0.02988 0.56317 0.75564 0.0
C2264 C 0.02639 0.57488 0.74489 0.0
C2265 C 0.01143 0.57131 0.73194 0.0
C2266 C 9e-05 0.55598 0.73013 0.0
C2267 C 0.00323 0.54439 0.74094 0.0
C2268 C 0.98898 0.52885 0.73632 0.0
C2269 C 0.99064 0.51928 0.68934 0.0
C2270 C 0.98511 0.52041 0.79319 0.0
C2271 C 0.97737 0.53352 0.72082 0.0
C2272 C 0.98399 0.54921 0.71746 0.0
C2273 C 0.97554 0.55619 0.70335 0.0
C2274 C 0.95989 0.54686 0.69254 0.0
C2275 C 0.95286 0.53075 0.69597 0.0
C2276 C 0.96179 0.52406 0.71032 0.0
H2277 H 0.45107 0.48503 0.70493 0.0
H2278 H 0.41592 0.4574 0.82696 0.0
H2279 H 0.42511 0.43894 0.82835 0.0
H2280 H 0.44939 0.4537 0.62643 0.0
H2281 H 0.4697 0.46316 0.61431 0.0
H2282 H 0.46036 0.47425 0.62264 0.0
H2283 H 0.47884 0.48944 0.70412 0.0
H2284 H 0.48827 0.47844 0.69591 0.0
H2285 H 0.48055 0.47926 0.7635 0.0
H2286 H 0.43821 0.42366 0.81758 0.0
H2287 H 0.45459 0.41266 0.79615 0.0
H2288 H 0.48112 0.45005 0.68039 0.0
C2289 C 0.44531 0.47512 0.73202 0.0
C2290 C 0.43277 0.47268 0.76588 0.0
C2291 C 0.42554 0.45952 0.80063 0.0
C2292 C 0.43067 0.44895 0.80169 0.0
C2293 C 0.44301 0.45168 0.76767 0.0
C2294 C 0.45025 0.46442 0.73351 0.0
C2295 C 0.46333 0.46467 0.70134 0.0
C2296 C 0.46052 0.4639 0.63739 0.0
C2297 C 0.47865 0.47879 0.71719 0.0
C2298 C 0.46234 0.45011 0.723 0.0
C2299 C 0.45052 0.44278 0.76116 0.0
C2300 C 0.44748 0.42926 0.78764 0.0
C2301 C 0.45686 0.4231 0.77516 0.0
C2302 C 0.46913 0.43046 0.73648 0.0
C2303 C 0.47178 0.44409 0.70985 0.0
H2304 H 0.53826 0.97984 0.87776 0.0
H2305 H 0.54344 0.95746 0.73004 0.0
H2306 H 0.5588 0.98258 0.68407 0.0
H2307 H 0.53275 0.00656 0.80581 0.0
H2308 H 0.54314 0.02195 0.85496 0.0
H2309 H 0.53418 0.00247 0.87882 0.0
H2310 H 0.56011 0.00704 0.91758 0.0
H2311 H 0.56914 0.02661 0.89418 0.0
H2312 H 0.57645 0.01447 0.87137 0.0
H2313 H 0.57147 0.01 0.65081 0.0
H2314 H 0.58087 0.03745 0.63421 0.0
H2315 H 0.56724 0.04152 0.80404 0.0
C2316 C 0.54288 0.98021 0.83621 0.0
C2317 C 0.53968 0.96668 0.80759 0.0
C2318 C 0.5458 0.96768 0.75294 0.0
C2319 C 0.55454 0.9819 0.72646 0.0
C2320 C 0.55715 0.99499 0.75537 0.0
C2321 C 0.5516 0.99427 0.80925 0.0
C2322 C 0.55517 0.00986 0.82993 0.0
C2323 C 0.54043 0.01022 0.84312 0.0
C2324 C 0.56586 0.01478 0.8813 0.0
C2325 C 0.56322 0.01943 0.77871 0.0
C2326 C 0.56439 0.0107 0.73627 0.0
C2327 C 0.57078 0.01698 0.68402 0.0
C2328 C 0.57605 0.03256 0.67491 0.0
C2329 C 0.57482 0.04164 0.71781 0.0
C2330 C 0.56844 0.03494 0.77044 0.0
H2331 H 0.47184 0.03178 0.18216 0.0
H2332 H 0.45396 0.05296 0.29477 0.0
H2333 H 0.43445 0.02748 0.3288 0.0
H2334 H 0.43481 0.99718 0.14927 0.0
H2335 H 0.44323 0.98512 0.14904 0.0
H2336 H 0.45446 0.00487 0.12834 0.0
H2337 H 0.47475 0.00899 0.20362 0.0
H2338 H 0.46359 0.98931 0.22463 0.0
H2339 H 0.46898 0.00425 0.27618 0.0
H2340 H 0.41863 -7e-05 0.35741 0.0
H2341 H 0.40794 0.97254 0.37892 0.0
H2342 H 0.43631 0.96951 0.2478 0.0
C2343 C 0.46361 0.03106 0.21305 0.0
C2344 C 0.46439 0.04436 0.23562 0.0
C2345 C 0.45356 0.04293 0.27674 0.0
C2346 C 0.4424 0.0285 0.29621 0.0
C2347 C 0.44217 0.01563 0.27396 0.0
C2348 C 0.45245 0.01677 0.23308 0.0
C2349 C 0.45058 0.00131 0.2193 0.0
C2350 C 0.44546 0.99686 0.15784 0.0
C2351 C 0.46535 0.00095 0.2317 0.0
C2352 C 0.43796 0.99135 0.26006 0.0
C2353 C 0.43312 -0.00023 0.29069 0.0
C2354 C 0.42218 0.99318 0.33316 0.0
C2355 C 0.41619 0.97761 0.34513 0.0
C2356 C 0.42125 0.96886 0.31498 0.0
C2357 C 0.43209 0.97583 0.27129 0.0
H2358 H 0.03643 0.48202 0.26941 0.0
H2359 H 0.04444 0.44366 0.26237 0.0
H2360 H 0.01709 0.42639 0.2409 0.0
H2361 H -0.00085 0.46214 0.33366 0.0
H2362 H 0.99192 0.4722 0.29288 0.0
H2363 H 0.01196 0.4813 0.30941 0.0
H2364 H 0.01853 0.48614 0.20301 0.0
H2365 H 0.99851 0.47699 0.18611 0.0
H2366 H 0.0103 0.47027 0.15461 0.0
H2367 H 0.98882 0.41344 0.21873 0.0
H2368 H 0.96198 0.40585 0.19811 0.0
H2369 H 0.973 0.45298 0.21839 0.0
C2370 C 0.03245 0.46997 0.26391 0.0
C2371 C 0.04256 0.46417 0.26784 0.0
C2372 C 0.03688 0.44835 0.25965 0.0
C2373 C 0.02138 0.43846 0.24744 0.0
C2374 C 0.01176 0.4446 0.24335 0.0
C2375 C 0.0171 0.46 0.25136 0.0
C2376 C 0.00455 0.46384 0.24342 0.0
C2377 C 0.00173 0.47024 0.2981 0.0
C2378 C 0.00819 0.47497 0.19384 0.0
C2379 C 0.99128 0.44819 0.22984 0.0
C2380 C 0.99563 0.43723 0.23001 0.0
C2381 C 0.98528 0.42193 0.21853 0.0
C2382 C 0.97007 0.41774 0.20681 0.0
C2383 C 0.96538 0.42882 0.20659 0.0
C2384 C 0.9762 0.44423 0.21814 0.0
H2385 H 0.54731 0.51842 0.2011 0.0
H2386 H 0.57691 0.52923 0.34697 0.0
H2387 H 0.56772 0.54613 0.38291 0.0
H2388 H 0.55168 0.5561 0.18394 0.0
H2389 H 0.53203 0.54869 0.1637 0.0
H2390 H 0.54143 0.53794 0.14843 0.0
H2391 H 0.52008 0.51462 0.20167 0.0
H2392 H 0.51066 0.52531 0.21727 0.0
H2393 H 0.51581 0.51682 0.27372 0.0
H2394 H 0.55464 0.56119 0.40457 0.0
H2395 H 0.53883 0.5735 0.40964 0.0
H2396 H 0.5178 0.55269 0.24974 0.0
C2397 C 0.55197 0.52443 0.24036 0.0
C2398 C 0.56286 0.52252 0.27114 0.0
C2399 C 0.56858 0.53053 0.32255 0.0
C2400 C 0.56344 0.54016 0.34335 0.0
C2401 C 0.55258 0.54166 0.31222 0.0
C2402 C 0.54695 0.53406 0.26176 0.0
C2403 C 0.53509 0.53736 0.23713 0.0
C2404 C 0.54038 0.54551 0.17992 0.0
C2405 C 0.51949 0.52265 0.23219 0.0
C2406 C 0.53485 0.54791 0.28185 0.0
C2407 C 0.54504 0.5503 0.32474 0.0
C2408 C 0.54666 0.55946 0.3711 0.0
C2409 C 0.53762 0.56638 0.37364 0.0
C2410 C 0.52709 0.56408 0.3301 0.0
C2411 C 0.52576 0.55472 0.28367 0.0
loop_
_geom_bond_atom_site_label_1
_geom_bond_atom_site_label_2
_geom_bond_distance
_geom_bond_site_symmetry_2
_ccdc_geom_bond_type
C0 O1 1.160 . S
C0 O7 1.185 . S
O1 C0 1.160 . S
O2 Zn3 1.899 . S
O2 C10 1.284 . S
Zn3 O2 1.899 . S
Zn3 O4 2.032 . S
Zn3 O7 2.086 . S
Zn3 O12 1.977 . S
O4 Zn3 2.032 . S
O4 C8 1.278 . S
C5 O6 1.203 . S
C5 O12 1.267 . S
O6 C5 1.203 . S
O7 C0 1.185 . S
O7 Zn3 2.086 . S
C8 O4 1.278 . S
C8 O9 1.211 . S
O9 C8 1.211 . S
C10 O2 1.284 . S
C10 O11 1.273 . S
O11 C10 1.273 . S
O12 Zn3 1.977 . S
O12 C5 1.267 . S
C13 O14 1.160 . S
C13 O20 1.185 . S
O14 C13 1.160 . S
O15 Zn16 1.899 . S
O15 C23 1.284 . S
Zn16 O15 1.899 . S
Zn16 O17 2.032 . S
Zn16 O20 2.086 . S
Zn16 O25 1.977 . S
O17 Zn16 2.032 . S
O17 C21 1.278 . S
C18 O19 1.203 . S
C18 O25 1.267 . S
O19 C18 1.203 . S
O20 C13 1.185 . S
O20 Zn16 2.086 . S
C21 O17 1.278 . S
C21 O22 1.211 . S
O22 C21 1.211 . S
C23 O15 1.284 . S
C23 O24 1.273 . S
O24 C23 1.273 . S
O25 Zn16 1.977 . S
O25 C18 1.267 . S
C26 O27 1.160 . S
C26 O33 1.185 . S
O27 C26 1.160 . S
O28 Zn29 1.899 . S
O28 C36 1.284 . S
Zn29 O28 1.899 . S
Zn29 O30 2.032 . S
Zn29 O33 2.086 . S
Zn29 O38 1.977 . S
O30 Zn29 2.032 . S
O30 C34 1.278 . S
C31 O32 1.203 . S
C31 O38 1.267 . S
O32 C31 1.203 . S
O33 C26 1.185 . S
O33 Zn29 2.086 . S
C34 O30 1.278 . S
C34 O35 1.211 . S
O35 C34 1.211 . S
C36 O28 1.284 . S
C36 O37 1.273 . S
O37 C36 1.273 . S
O38 Zn29 1.977 . S
O38 C31 1.267 . S
C39 O40 1.160 . S
C39 O46 1.185 . S
O40 C39 1.160 . S
O41 Zn42 1.899 . S
O41 C49 1.284 . S
Zn42 O41 1.899 . S
Zn42 O43 2.032 . S
Zn42 O46 2.086 . S
Zn42 O51 1.977 . S
O43 Zn42 2.032 . S
O43 C47 1.278 . S
C44 O45 1.203 . S
C44 O51 1.267 . S
O45 C44 1.203 . S
O46 C39 1.185 . S
O46 Zn42 2.086 . S
C47 O43 1.278 . S
C47 O48 1.211 . S
O48 C47 1.211 . S
C49 O41 1.284 . S
C49 O50 1.273 . S
O50 C49 1.273 . S
O51 Zn42 1.977 . S
O51 C44 1.267 . S
C52 O53 1.160 . S
C52 O59 1.185 . S
O53 C52 1.160 . S
O54 Zn55 1.899 . S
O54 C62 1.284 . S
Zn55 O54 1.899 . S
Zn55 O56 2.032 . S
Zn55 O59 2.086 . S
Zn55 O64 1.977 . S
O56 Zn55 2.032 . S
O56 C60 1.278 . S
C57 O58 1.203 . S
C57 O64 1.267 . S
O58 C57 1.203 . S
O59 C52 1.185 . S
O59 Zn55 2.086 . S
C60 O56 1.278 . S
C60 O61 1.211 . S
O61 C60 1.211 . S
C62 O54 1.284 . S
C62 O63 1.273 . S
O63 C62 1.273 . S
O64 Zn55 1.977 . S
O64 C57 1.267 . S
C65 O66 1.160 . S
C65 O72 1.185 . S
O66 C65 1.160 . S
O67 Zn68 1.899 . S
O67 C75 1.284 . S
Zn68 O67 1.899 . S
Zn68 O69 2.032 . S
Zn68 O72 2.086 . S
Zn68 O77 1.977 . S
O69 Zn68 2.032 . S
O69 C73 1.278 . S
C70 O71 1.203 . S
C70 O77 1.267 . S
O71 C70 1.203 . S
O72 C65 1.185 . S
O72 Zn68 2.086 . S
C73 O69 1.278 . S
C73 O74 1.211 . S
O74 C73 1.211 . S
C75 O67 1.284 . S
C75 O76 1.273 . S
O76 C75 1.273 . S
O77 Zn68 1.977 . S
O77 C70 1.267 . S
C78 O79 1.160 . S
C78 O85 1.185 . S
O79 C78 1.160 . S
O80 Zn81 1.899 . S
O80 C88 1.284 . S
Zn81 O80 1.899 . S
Zn81 O82 2.032 . S
Zn81 O85 2.086 . S
Zn81 O90 1.977 . S
O82 Zn81 2.032 . S
O82 C86 1.278 . S
C83 O84 1.203 . S
C83 O90 1.267 . S
O84 C83 1.203 . S
O85 C78 1.185 . S
O85 Zn81 2.086 . S
C86 O82 1.278 . S
C86 O87 1.211 . S
O87 C86 1.211 . S
C88 O80 1.284 . S
C88 O89 1.273 . S
O89 C88 1.273 . S
O90 Zn81 1.977 . S
O90 C83 1.267 . S
C91 O92 1.160 . S
C91 O98 1.185 . S
O92 C91 1.160 . S
O93 Zn94 1.899 . S
O93 C101 1.284 . S
Zn94 O93 1.899 . S
Zn94 O95 2.032 . S
Zn94 O98 2.086 . S
Zn94 O103 1.977 . S
O95 Zn94 2.032 . S
O95 C99 1.278 . S
C96 O97 1.203 . S
C96 O103 1.267 . S
O97 C96 1.203 . S
O98 C91 1.185 . S
O98 Zn94 2.086 . S
C99 O95 1.278 . S
C99 O100 1.211 . S
O100 C99 1.211 . S
C101 O93 1.284 . S
C101 O102 1.273 . S
O102 C101 1.273 . S
O103 Zn94 1.977 . S
O103 C96 1.267 . S
C104 O105 1.160 . S
C104 O111 1.185 . S
O105 C104 1.160 . S
O106 Zn107 1.899 . S
O106 C114 1.284 . S
Zn107 O106 1.899 . S
Zn107 O108 2.032 . S
Zn107 O111 2.086 . S
Zn107 O116 1.977 . S
O108 Zn107 2.032 . S
O108 C112 1.278 . S
C109 O110 1.203 . S
C109 O116 1.267 . S
O110 C109 1.203 . S
O111 C104 1.185 . S
O111 Zn107 2.086 . S
C112 O108 1.278 . S
C112 O113 1.211 . S
O113 C112 1.211 . S
C114 O106 1.284 . S
C114 O115 1.273 . S
O115 C114 1.273 . S
O116 Zn107 1.977 . S
O116 C109 1.267 . S
C117 O118 1.160 . S
C117 O124 1.185 . S
O118 C117 1.160 . S
O119 Zn120 1.899 . S
O119 C127 1.284 . S
Zn120 O119 1.899 . S
Zn120 O121 2.032 . S
Zn120 O124 2.086 . S
Zn120 O129 1.977 . S
O121 Zn120 2.032 . S
O121 C125 1.278 . S
C122 O123 1.203 . S
C122 O129 1.267 . S
O123 C122 1.203 . S
O124 C117 1.185 . S
O124 Zn120 2.086 . S
C125 O121 1.278 . S
C125 O126 1.211 . S
O126 C125 1.211 . S
C127 O119 1.284 . S
C127 O128 1.273 . S
O128 C127 1.273 . S
O129 Zn120 1.977 . S
O129 C122 1.267 . S
C130 O131 1.160 . S
C130 O137 1.185 . S
O131 C130 1.160 . S
O132 Zn133 1.899 . S
O132 C140 1.284 . S
Zn133 O132 1.899 . S
Zn133 O134 2.032 . S
Zn133 O137 2.086 . S
Zn133 O142 1.977 . S
O134 Zn133 2.032 . S
O134 C138 1.278 . S
C135 O136 1.203 . S
C135 O142 1.267 . S
O136 C135 1.203 . S
O137 C130 1.185 . S
O137 Zn133 2.086 . S
C138 O134 1.278 . S
C138 O139 1.211 . S
O139 C138 1.211 . S
C140 O132 1.284 . S
C140 O141 1.273 . S
O141 C140 1.273 . S
O142 Zn133 1.977 . S
O142 C135 1.267 . S
C143 O144 1.160 . S
C143 O150 1.185 . S
O144 C143 1.160 . S
O145 Zn146 1.899 . S
O145 C153 1.284 . S
Zn146 O145 1.899 . S
Zn146 O147 2.032 . S
Zn146 O150 2.086 . S
Zn146 O155 1.977 . S
O147 Zn146 2.032 . S
O147 C151 1.278 . S
C148 O149 1.203 . S
C148 O155 1.267 . S
O149 C148 1.203 . S
O150 C143 1.185 . S
O150 Zn146 2.086 . S
C151 O147 1.278 . S
C151 O152 1.211 . S
O152 C151 1.211 . S
C153 O145 1.284 . S
C153 O154 1.273 . S
O154 C153 1.273 . S
O155 Zn146 1.977 . S
O155 C148 1.267 . S
C156 O157 1.160 . S
C156 O163 1.185 . S
O157 C156 1.160 . S
O158 Zn159 1.899 . S
O158 C166 1.284 . S
Zn159 O158 1.899 . S
Zn159 O160 2.032 . S
Zn159 O163 2.086 . S
Zn159 O168 1.977 . S
O160 Zn159 2.032 . S
O160 C164 1.278 . S
C161 O162 1.203 . S
C161 O168 1.267 . S
O162 C161 1.203 . S
O163 C156 1.185 . S
O163 Zn159 2.086 . S
C164 O160 1.278 . S
C164 O165 1.211 . S
O165 C164 1.211 . S
C166 O158 1.284 . S
C166 O167 1.273 . S
O167 C166 1.273 . S
O168 Zn159 1.977 . S
O168 C161 1.267 . S
C169 O170 1.160 . S
C169 O176 1.185 . S
O170 C169 1.160 . S
O171 Zn172 1.899 . S
O171 C179 1.284 . S
Zn172 O171 1.899 . S
Zn172 O173 2.032 . S
Zn172 O176 2.086 . S
Zn172 O181 1.977 . S
O173 Zn172 2.032 . S
O173 C177 1.278 . S
C174 O175 1.203 . S
C174 O181 1.267 . S
O175 C174 1.203 . S
O176 C169 1.185 . S
O176 Zn172 2.086 . S
C177 O173 1.278 . S
C177 O178 1.211 . S
O178 C177 1.211 . S
C179 O171 1.284 . S
C179 O180 1.273 . S
O180 C179 1.273 . S
O181 Zn172 1.977 . S
O181 C174 1.267 . S
C182 O183 1.160 . S
C182 O189 1.185 . S
O183 C182 1.160 . S
O184 Zn185 1.899 . S
O184 C192 1.284 . S
Zn185 O184 1.899 . S
Zn185 O186 2.032 . S
Zn185 O189 2.086 . S
Zn185 O194 1.977 . S
O186 Zn185 2.032 . S
O186 C190 1.278 . S
C187 O188 1.203 . S
C187 O194 1.267 . S
O188 C187 1.203 . S
O189 C182 1.185 . S
O189 Zn185 2.086 . S
C190 O186 1.278 . S
C190 O191 1.211 . S
O191 C190 1.211 . S
C192 O184 1.284 . S
C192 O193 1.273 . S
O193 C192 1.273 . S
O194 Zn185 1.977 . S
O194 C187 1.267 . S
C195 O196 1.160 . S
C195 O202 1.185 . S
O196 C195 1.160 . S
O197 Zn198 1.899 . S
O197 C205 1.284 . S
Zn198 O197 1.899 . S
Zn198 O199 2.032 . S
Zn198 O202 2.086 . S
Zn198 O207 1.977 . S
O199 Zn198 2.032 . S
O199 C203 1.278 . S
C200 O201 1.203 . S
C200 O207 1.267 . S
O201 C200 1.203 . S
O202 C195 1.185 . S
O202 Zn198 2.086 . S
C203 O199 1.278 . S
C203 O204 1.211 . S
O204 C203 1.211 . S
C205 O197 1.284 . S
C205 O206 1.273 . S
O206 C205 1.273 . S
O207 Zn198 1.977 . S
O207 C200 1.267 . S
C208 O209 1.160 . S
C208 O215 1.185 . S
O209 C208 1.160 . S
O210 Zn211 1.899 . S
O210 C218 1.284 . S
Zn211 O210 1.899 . S
Zn211 O212 2.032 . S
Zn211 O215 2.086 . S
Zn211 O220 1.977 . S
O212 Zn211 2.032 . S
O212 C216 1.278 . S
C213 O214 1.203 . S
C213 O220 1.267 . S
O214 C213 1.203 . S
O215 C208 1.185 . S
O215 Zn211 2.086 . S
C216 O212 1.278 . S
C216 O217 1.211 . S
O217 C216 1.211 . S
C218 O210 1.284 . S
C218 O219 1.273 . S
O219 C218 1.273 . S
O220 Zn211 1.977 . S
O220 C213 1.267 . S
C221 O222 1.160 . S
C221 O228 1.185 . S
O222 C221 1.160 . S
O223 Zn224 1.899 . S
O223 C231 1.284 . S
Zn224 O223 1.899 . S
Zn224 O225 2.032 . S
Zn224 O228 2.086 . S
Zn224 O233 1.977 . S
O225 Zn224 2.032 . S
O225 C229 1.278 . S
C226 O227 1.203 . S
C226 O233 1.267 . S
O227 C226 1.203 . S
O228 C221 1.185 . S
O228 Zn224 2.086 . S
C229 O225 1.278 . S
C229 O230 1.211 . S
O230 C229 1.211 . S
C231 O223 1.284 . S
C231 O232 1.273 . S
O232 C231 1.273 . S
O233 Zn224 1.977 . S
O233 C226 1.267 . S
C234 O235 1.160 . S
C234 O241 1.185 . S
O235 C234 1.160 . S
O236 Zn237 1.899 . S
O236 C244 1.284 . S
Zn237 O236 1.899 . S
Zn237 O238 2.032 . S
Zn237 O241 2.086 . S
Zn237 O246 1.977 . S
O238 Zn237 2.032 . S
O238 C242 1.278 . S
C239 O240 1.203 . S
C239 O246 1.267 . S
O240 C239 1.203 . S
O241 C234 1.185 . S
O241 Zn237 2.086 . S
C242 O238 1.278 . S
C242 O243 1.211 . S
O243 C242 1.211 . S
C244 O236 1.284 . S
C244 O245 1.273 . S
O245 C244 1.273 . S
O246 Zn237 1.977 . S
O246 C239 1.267 . S
C247 O248 1.160 . S
C247 O254 1.185 . S
O248 C247 1.160 . S
O249 Zn250 1.899 . S
O249 C257 1.284 . S
Zn250 O249 1.899 . S
Zn250 O251 2.032 . S
Zn250 O254 2.086 . S
Zn250 O259 1.977 . S
O251 Zn250 2.032 . S
O251 C255 1.278 . S
C252 O253 1.203 . S
C252 O259 1.267 . S
O253 C252 1.203 . S
O254 C247 1.185 . S
O254 Zn250 2.086 . S
C255 O251 1.278 . S
C255 O256 1.211 . S
O256 C255 1.211 . S
C257 O249 1.284 . S
C257 O258 1.273 . S
O258 C257 1.273 . S
O259 Zn250 1.977 . S
O259 C252 1.267 . S
C260 O261 1.160 . S
C260 O267 1.185 . S
O261 C260 1.160 . S
O262 Zn263 1.899 . S
O262 C270 1.284 . S
Zn263 O262 1.899 . S
Zn263 O264 2.032 . S
Zn263 O267 2.086 . S
Zn263 O272 1.977 . S
O264 Zn263 2.032 . S
O264 C268 1.278 . S
C265 O266 1.203 . S
C265 O272 1.267 . S
O266 C265 1.203 . S
O267 C260 1.185 . S
O267 Zn263 2.086 . S
C268 O264 1.278 . S
C268 O269 1.211 . S
O269 C268 1.211 . S
C270 O262 1.284 . S
C270 O271 1.273 . S
O271 C270 1.273 . S
O272 Zn263 1.977 . S
O272 C265 1.267 . S
C273 O274 1.160 . S
C273 O280 1.185 1_554 S
O274 C273 1.160 . S
O275 Zn276 1.899 . S
O275 C283 1.284 . S
Zn276 O275 1.899 . S
Zn276 O277 2.032 1_556 S
Zn276 O280 2.086 . S
Zn276 O285 1.977 . S
O277 Zn276 2.032 1_554 S
O277 C281 1.278 . S
C278 O279 1.203 . S
C278 O285 1.267 . S
O279 C278 1.203 . S
O280 C273 1.185 1_556 S
O280 Zn276 2.086 . S
C281 O277 1.278 . S
C281 O282 1.211 . S
O282 C281 1.211 . S
C283 O275 1.284 . S
C283 O284 1.273 1_556 S
O284 C283 1.273 1_554 S
O285 Zn276 1.977 . S
O285 C278 1.267 . S
C286 O287 1.160 . S
C286 O293 1.185 1_554 S
O287 C286 1.160 . S
O288 Zn289 1.899 . S
O288 C296 1.284 . S
Zn289 O288 1.899 . S
Zn289 O290 2.032 1_556 S
Zn289 O293 2.086 . S
Zn289 O298 1.977 . S
O290 Zn289 2.032 1_554 S
O290 C294 1.278 . S
C291 O292 1.203 . S
C291 O298 1.267 . S
O292 C291 1.203 . S
O293 C286 1.185 1_556 S
O293 Zn289 2.086 . S
C294 O290 1.278 . S
C294 O295 1.211 . S
O295 C294 1.211 . S
C296 O288 1.284 . S
C296 O297 1.273 1_556 S
O297 C296 1.273 1_554 S
O298 Zn289 1.977 . S
O298 C291 1.267 . S
C299 O300 1.160 . S
C299 O306 1.185 1_554 S
O300 C299 1.160 . S
O301 Zn302 1.899 . S
O301 C309 1.284 . S
Zn302 O301 1.899 . S
Zn302 O303 2.032 1_556 S
Zn302 O306 2.086 . S
Zn302 O311 1.977 . S
O303 Zn302 2.032 1_554 S
O303 C307 1.278 . S
C304 O305 1.203 . S
C304 O311 1.267 . S
O305 C304 1.203 . S
O306 C299 1.185 1_556 S
O306 Zn302 2.086 . S
C307 O303 1.278 . S
C307 O308 1.211 . S
O308 C307 1.211 . S
C309 O301 1.284 . S
C309 O310 1.273 1_556 S
O310 C309 1.273 1_554 S
O311 Zn302 1.977 . S
O311 C304 1.267 . S
C312 O313 1.160 . S
C312 O319 1.185 . S
O313 C312 1.160 . S
O314 Zn315 1.899 . S
O314 C322 1.284 . S
Zn315 O314 1.899 . S
Zn315 O316 2.032 . S
Zn315 O319 2.086 . S
Zn315 O324 1.977 . S
O316 Zn315 2.032 . S
O316 C320 1.278 . S
C317 O318 1.203 . S
C317 O324 1.267 . S
O318 C317 1.203 . S
O319 C312 1.185 . S
O319 Zn315 2.086 . S
C320 O316 1.278 . S
C320 O321 1.211 . S
O321 C320 1.211 . S
C322 O314 1.284 . S
C322 O323 1.273 . S
O323 C322 1.273 . S
O324 Zn315 1.977 . S
O324 C317 1.267 . S
C325 O326 1.160 . S
C325 O332 1.185 . S
O326 C325 1.160 . S
O327 Zn328 1.899 . S
O327 C335 1.284 . S
Zn328 O327 1.899 . S
Zn328 O329 2.032 . S
Zn328 O332 2.086 . S
Zn328 O337 1.977 . S
O329 Zn328 2.032 . S
O329 C333 1.278 . S
C330 O331 1.203 . S
C330 O337 1.267 . S
O331 C330 1.203 . S
O332 C325 1.185 . S
O332 Zn328 2.086 . S
C333 O329 1.278 . S
C333 O334 1.211 . S
O334 C333 1.211 . S
C335 O327 1.284 . S
C335 O336 1.273 . S
O336 C335 1.273 . S
O337 Zn328 1.977 . S
O337 C330 1.267 . S
C338 O339 1.160 . S
C338 O345 1.185 . S
O339 C338 1.160 . S
O340 Zn341 1.899 . S
O340 C348 1.284 . S
Zn341 O340 1.899 . S
Zn341 O342 2.032 . S
Zn341 O345 2.086 . S
Zn341 O350 1.977 . S
O342 Zn341 2.032 . S
O342 C346 1.278 . S
C343 O344 1.203 . S
C343 O350 1.267 . S
O344 C343 1.203 . S
O345 C338 1.185 . S
O345 Zn341 2.086 . S
C346 O342 1.278 . S
C346 O347 1.211 . S
O347 C346 1.211 . S
C348 O340 1.284 . S
C348 O349 1.273 . S
O349 C348 1.273 . S
O350 Zn341 1.977 . S
O350 C343 1.267 . S
C351 O352 1.160 . S
C351 O358 1.185 1_556 S
O352 C351 1.160 . S
O353 Zn354 1.899 . S
O353 C361 1.284 . S
Zn354 O353 1.899 . S
Zn354 O355 2.032 1_554 S
Zn354 O358 2.086 . S
Zn354 O363 1.977 . S
O355 Zn354 2.032 1_556 S
O355 C359 1.278 . S
C356 O357 1.203 . S
C356 O363 1.267 . S
O357 C356 1.203 . S
O358 C351 1.185 1_554 S
O358 Zn354 2.086 . S
C359 O355 1.278 . S
C359 O360 1.211 . S
O360 C359 1.211 . S
C361 O353 1.284 . S
C361 O362 1.273 1_554 S
O362 C361 1.273 1_556 S
O363 Zn354 1.977 . S
O363 C356 1.267 . S
C364 O365 1.160 . S
C364 O371 1.185 1_556 S
O365 C364 1.160 . S
O366 Zn367 1.899 . S
O366 C374 1.284 . S
Zn367 O366 1.899 . S
Zn367 O368 2.032 1_554 S
Zn367 O371 2.086 . S
Zn367 O376 1.977 . S
O368 Zn367 2.032 1_556 S
O368 C372 1.278 . S
C369 O370 1.203 . S
C369 O376 1.267 . S
O370 C369 1.203 . S
O371 C364 1.185 1_554 S
O371 Zn367 2.086 . S
C372 O368 1.278 . S
C372 O373 1.211 . S
O373 C372 1.211 . S
C374 O366 1.284 . S
C374 O375 1.273 1_554 S
O375 C374 1.273 1_556 S
O376 Zn367 1.977 . S
O376 C369 1.267 . S
C377 O378 1.160 . S
C377 O384 1.185 1_556 S
O378 C377 1.160 . S
O379 Zn380 1.899 . S
O379 C387 1.284 . S
Zn380 O379 1.899 . S
Zn380 O381 2.032 1_554 S
Zn380 O384 2.086 . S
Zn380 O389 1.977 . S
O381 Zn380 2.032 1_556 S
O381 C385 1.278 . S
C382 O383 1.203 . S
C382 O389 1.267 . S
O383 C382 1.203 . S
O384 C377 1.185 1_554 S
O384 Zn380 2.086 . S
C385 O381 1.278 . S
C385 O386 1.211 . S
O386 C385 1.211 . S
C387 O379 1.284 . S
C387 O388 1.273 1_554 S
O388 C387 1.273 1_556 S
O389 Zn380 1.977 . S
O389 C382 1.267 . S
C390 O391 1.160 . S
C390 O397 1.185 . S
O391 C390 1.160 . S
O392 Zn393 1.899 . S
O392 C400 1.284 . S
Zn393 O392 1.899 . S
Zn393 O394 2.032 . S
Zn393 O397 2.086 . S
Zn393 O402 1.977 . S
O394 Zn393 2.032 . S
O394 C398 1.278 . S
C395 O396 1.203 . S
C395 O402 1.267 . S
O396 C395 1.203 . S
O397 C390 1.185 . S
O397 Zn393 2.086 . S
C398 O394 1.278 . S
C398 O399 1.211 . S
O399 C398 1.211 . S
C400 O392 1.284 . S
C400 O401 1.273 . S
O401 C400 1.273 . S
O402 Zn393 1.977 . S
O402 C395 1.267 . S
C403 O404 1.160 . S
C403 O410 1.185 . S
O404 C403 1.160 . S
O405 Zn406 1.899 . S
O405 C413 1.284 . S
Zn406 O405 1.899 . S
Zn406 O407 2.032 . S
Zn406 O410 2.086 . S
Zn406 O415 1.977 . S
O407 Zn406 2.032 . S
O407 C411 1.278 . S
C408 O409 1.203 . S
C408 O415 1.267 . S
O409 C408 1.203 . S
O410 C403 1.185 . S
O410 Zn406 2.086 . S
C411 O407 1.278 . S
C411 O412 1.211 . S
O412 C411 1.211 . S
C413 O405 1.284 . S
C413 O414 1.273 . S
O414 C413 1.273 . S
O415 Zn406 1.977 . S
O415 C408 1.267 . S
C416 O417 1.160 . S
C416 O423 1.185 . S
O417 C416 1.160 . S
O418 Zn419 1.899 . S
O418 C426 1.284 . S
Zn419 O418 1.899 . S
Zn419 O420 2.032 . S
Zn419 O423 2.086 . S
Zn419 O428 1.977 . S
O420 Zn419 2.032 . S
O420 C424 1.278 . S
C421 O422 1.203 . S
C421 O428 1.267 . S
O422 C421 1.203 . S
O423 C416 1.185 . S
O423 Zn419 2.086 . S
C424 O420 1.278 . S
C424 O425 1.211 . S
O425 C424 1.211 . S
C426 O418 1.284 . S
C426 O427 1.273 . S
O427 C426 1.273 . S
O428 Zn419 1.977 . S
O428 C421 1.267 . S
C429 O430 1.160 . S
C429 O436 1.185 . S
O430 C429 1.160 . S
O431 Zn432 1.899 . S
O431 C439 1.284 . S
Zn432 O431 1.899 . S
Zn432 O433 2.032 . S
Zn432 O436 2.086 . S
Zn432 O441 1.977 . S
O433 Zn432 2.032 . S
O433 C437 1.278 . S
C434 O435 1.203 . S
C434 O441 1.267 . S
O435 C434 1.203 . S
O436 C429 1.185 . S
O436 Zn432 2.086 . S
C437 O433 1.278 . S
C437 O438 1.211 . S
O438 C437 1.211 . S
C439 O431 1.284 . S
C439 O440 1.273 . S
O440 C439 1.273 . S
O441 Zn432 1.977 . S
O441 C434 1.267 . S
C442 O443 1.160 . S
C442 O449 1.185 . S
O443 C442 1.160 . S
O444 Zn445 1.899 . S
O444 C452 1.284 . S
Zn445 O444 1.899 . S
Zn445 O446 2.032 . S
Zn445 O449 2.086 . S
Zn445 O454 1.977 . S
O446 Zn445 2.032 . S
O446 C450 1.278 . S
C447 O448 1.203 . S
C447 O454 1.267 . S
O448 C447 1.203 . S
O449 C442 1.185 . S
O449 Zn445 2.086 . S
C450 O446 1.278 . S
C450 O451 1.211 . S
O451 C450 1.211 . S
C452 O444 1.284 . S
C452 O453 1.273 . S
O453 C452 1.273 . S
O454 Zn445 1.977 . S
O454 C447 1.267 . S
C455 O456 1.160 . S
C455 O462 1.185 . S
O456 C455 1.160 . S
O457 Zn458 1.899 . S
O457 C465 1.284 . S
Zn458 O457 1.899 . S
Zn458 O459 2.032 . S
Zn458 O462 2.086 . S
Zn458 O467 1.977 . S
O459 Zn458 2.032 . S
O459 C463 1.278 . S
C460 O461 1.203 . S
C460 O467 1.267 . S
O461 C460 1.203 . S
O462 C455 1.185 . S
O462 Zn458 2.086 . S
C463 O459 1.278 . S
C463 O464 1.211 . S
O464 C463 1.211 . S
C465 O457 1.284 . S
C465 O466 1.273 . S
O466 C465 1.273 . S
O467 Zn458 1.977 . S
O467 C460 1.267 . S
H468 C480 0.930 . S
H469 C482 0.930 . S
H470 C483 0.930 . S
H471 C487 0.959 . S
H472 C487 0.959 . S
H473 C487 0.961 . S
H474 C488 0.960 . S
H475 C488 0.961 . S
H476 C488 0.959 . S
H477 C491 0.929 . S
H478 C492 0.931 . S
H479 C494 0.930 . S
C480 H468 0.930 . S
C480 C481 1.399 . S
C480 C485 1.399 . S
C481 C480 1.399 . S
C481 C482 1.376 . S
C482 H469 0.930 . S
C482 C481 1.376 . S
C482 C483 1.388 . S
C483 H470 0.930 . S
C483 C482 1.388 . S
C483 C484 1.390 . S
C484 C483 1.390 . S
C484 C485 1.394 . S
C484 C490 1.465 . S
C485 C480 1.399 . S
C485 C484 1.394 . S
C485 C486 1.516 . S
C486 C485 1.516 . S
C486 C487 1.502 . S
C486 C488 1.561 . S
C486 C489 1.526 . S
C487 H471 0.959 . S
C487 H472 0.959 . S
C487 H473 0.961 . S
C487 C486 1.502 . S
C488 H474 0.960 . S
C488 H475 0.961 . S
C488 H476 0.959 . S
C488 C486 1.561 . S
C489 C486 1.526 . S
C489 C490 1.396 . S
C489 C494 1.390 . S
C490 C484 1.465 . S
C490 C489 1.396 . S
C490 C491 1.399 . S
C491 H477 0.929 . S
C491 C490 1.399 . S
C491 C492 1.385 . S
C492 H478 0.931 . S
C492 C491 1.385 . S
C492 C493 1.389 . S
C493 C492 1.389 . S
C493 C494 1.387 . S
C494 H479 0.930 . S
C494 C489 1.390 . S
C494 C493 1.387 . S
H495 C507 0.930 . S
H496 C509 0.930 . S
H497 C510 0.930 . S
H498 C514 0.959 . S
H499 C514 0.959 . S
H500 C514 0.961 . S
H501 C515 0.960 . S
H502 C515 0.961 . S
H503 C515 0.959 . S
H504 C518 0.929 . S
H505 C519 0.931 . S
H506 C521 0.930 . S
C507 H495 0.930 . S
C507 C508 1.399 . S
C507 C512 1.399 . S
C508 C507 1.399 . S
C508 C509 1.376 . S
C509 H496 0.930 . S
C509 C508 1.376 . S
C509 C510 1.388 . S
C510 H497 0.930 . S
C510 C509 1.388 . S
C510 C511 1.390 . S
C511 C510 1.390 . S
C511 C512 1.394 . S
C511 C517 1.465 1_545 S
C512 C507 1.399 . S
C512 C511 1.394 . S
C512 C513 1.516 . S
C513 C512 1.516 . S
C513 C514 1.502 . S
C513 C515 1.561 . S
C513 C516 1.526 1_545 S
C514 H498 0.959 . S
C514 H499 0.959 . S
C514 H500 0.961 . S
C514 C513 1.502 . S
C515 H501 0.960 . S
C515 H502 0.961 . S
C515 H503 0.959 . S
C515 C513 1.561 . S
C516 C513 1.526 1_565 S
C516 C517 1.396 . S
C516 C521 1.390 . S
C517 C511 1.465 1_565 S
C517 C516 1.396 . S
C517 C518 1.399 . S
C518 H504 0.929 . S
C518 C517 1.399 . S
C518 C519 1.385 . S
C519 H505 0.931 . S
C519 C518 1.385 . S
C519 C520 1.389 . S
C520 C519 1.389 . S
C520 C521 1.387 . S
C521 H506 0.930 . S
C521 C516 1.390 . S
C521 C520 1.387 . S
H522 C534 0.930 . S
H523 C536 0.930 . S
H524 C537 0.930 . S
H525 C541 0.941 1_455 S
H526 C541 0.920 1_455 S
H527 C541 0.989 . S
H528 C542 0.960 . S
H529 C542 0.961 . S
H530 C542 0.959 . S
H531 C545 0.929 . S
H532 C546 0.931 . S
H533 C548 0.930 . S
C534 H522 0.930 . S
C534 C535 1.399 . S
C534 C539 1.399 . S
C535 C534 1.399 . S
C535 C536 1.376 . S
C536 H523 0.930 . S
C536 C535 1.376 . S
C536 C537 1.388 . S
C537 H524 0.930 . S
C537 C536 1.388 . S
C537 C538 1.390 . S
C538 C537 1.390 . S
C538 C539 1.394 . S
C538 C544 1.465 1_655 S
C539 C534 1.399 . S
C539 C538 1.394 . S
C539 C540 1.516 . S
C540 C539 1.516 . S
C540 C541 1.535 . S
C540 C542 1.561 . S
C540 C543 1.526 1_655 S
C541 H525 0.941 1_655 S
C541 H526 0.920 1_655 S
C541 H527 0.989 . S
C541 C540 1.535 . S
C542 H528 0.960 . S
C542 H529 0.961 . S
C542 H530 0.959 . S
C542 C540 1.561 . S
C543 C540 1.526 1_455 S
C543 C544 1.396 . S
C543 C548 1.390 . S
C544 C538 1.465 1_455 S
C544 C543 1.396 . S
C544 C545 1.399 . S
C545 H531 0.929 . S
C545 C544 1.399 . S
C545 C546 1.385 . S
C546 H532 0.931 . S
C546 C545 1.385 . S
C546 C547 1.389 . S
C547 C546 1.389 . S
C547 C548 1.387 . S
C548 H533 0.930 . S
C548 C543 1.390 . S
C548 C547 1.387 . S
H549 C561 0.930 . S
H550 C563 0.930 . S
H551 C564 0.930 . S
H552 C568 0.959 . S
H553 C568 0.959 . S
H554 C568 0.961 . S
H555 C569 0.960 . S
H556 C569 0.961 . S
H557 C569 0.959 . S
H558 C572 0.929 . S
H559 C573 0.931 . S
H560 C575 0.930 . S
C561 H549 0.930 . S
C561 C562 1.399 . S
C561 C566 1.399 . S
C562 C561 1.399 . S
C562 C563 1.376 . S
C563 H550 0.930 . S
C563 C562 1.376 . S
C563 C564 1.388 . S
C564 H551 0.930 . S
C564 C563 1.388 . S
C564 C565 1.390 . S
C565 C564 1.390 . S
C565 C566 1.394 . S
C565 C571 1.465 . S
C566 C561 1.399 . S
C566 C565 1.394 . S
C566 C567 1.516 . S
C567 C566 1.516 . S
C567 C568 1.502 . S
C567 C569 1.561 . S
C567 C570 1.526 . S
C568 H552 0.959 . S
C568 H553 0.959 . S
C568 H554 0.961 . S
C568 C567 1.502 . S
C569 H555 0.960 . S
C569 H556 0.961 . S
C569 H557 0.959 . S
C569 C567 1.561 . S
C570 C567 1.526 . S
C570 C571 1.396 . S
C570 C575 1.390 . S
C571 C565 1.465 . S
C571 C570 1.396 . S
C571 C572 1.399 . S
C572 H558 0.929 . S
C572 C571 1.399 . S
C572 C573 1.385 . S
C573 H559 0.931 . S
C573 C572 1.385 . S
C573 C574 1.389 . S
C574 C573 1.389 . S
C574 C575 1.387 . S
C575 H560 0.930 . S
C575 C570 1.390 . S
C575 C574 1.387 . S
H576 C588 0.930 . S
H577 C590 0.930 . S
H578 C591 0.930 . S
H579 C595 0.959 . S
H580 C595 0.959 . S
H581 C595 0.961 . S
H582 C596 0.960 . S
H583 C596 0.961 . S
H584 C596 0.959 . S
H585 C599 0.929 . S
H586 C600 0.931 . S
H587 C602 0.930 . S
C588 H576 0.930 . S
C588 C589 1.399 . S
C588 C593 1.399 . S
C589 C588 1.399 . S
C589 C590 1.376 . S
C590 H577 0.930 . S
C590 C589 1.376 . S
C590 C591 1.388 . S
C591 H578 0.930 . S
C591 C590 1.388 . S
C591 C592 1.390 . S
C592 C591 1.390 . S
C592 C593 1.394 . S
C592 C598 1.465 1_545 S
C593 C588 1.399 . S
C593 C592 1.394 . S
C593 C594 1.516 1_545 S
C594 C593 1.516 1_565 S
C594 C595 1.502 . S
C594 C596 1.561 . S
C594 C597 1.526 . S
C595 H579 0.959 . S
C595 H580 0.959 . S
C595 H581 0.961 . S
C595 C594 1.502 . S
C596 H582 0.960 . S
C596 H583 0.961 . S
C596 H584 0.959 . S
C596 C594 1.561 . S
C597 C594 1.526 . S
C597 C598 1.396 . S
C597 C602 1.390 . S
C598 C592 1.465 1_565 S
C598 C597 1.396 . S
C598 C599 1.399 . S
C599 H585 0.929 . S
C599 C598 1.399 . S
C599 C600 1.385 . S
C600 H586 0.931 . S
C600 C599 1.385 . S
C600 C601 1.389 . S
C601 C600 1.389 . S
C601 C602 1.387 . S
C602 H587 0.930 . S
C602 C597 1.390 . S
C602 C601 1.387 . S
H603 C615 0.930 . S
H604 C617 0.930 . S
H605 C618 0.930 . S
H606 C622 0.959 . S
H607 C622 0.959 . S
H608 C622 0.961 . S
H609 C623 0.960 . S
H610 C623 0.961 . S
H611 C623 0.959 . S
H612 C626 0.929 . S
H613 C627 0.931 . S
H614 C629 0.930 . S
C615 H603 0.930 . S
C615 C616 1.399 . S
C615 C620 1.399 . S
C616 C615 1.399 . S
C616 C617 1.376 . S
C617 H604 0.930 . S
C617 C616 1.376 . S
C617 C618 1.388 . S
C618 H605 0.930 . S
C618 C617 1.388 . S
C618 C619 1.390 . S
C619 C618 1.390 . S
C619 C620 1.394 . S
C619 C625 1.465 1_455 S
C620 C615 1.399 . S
C620 C619 1.394 . S
C620 C621 1.516 1_455 S
C621 C620 1.516 1_655 S
C621 C622 1.502 . S
C621 C623 1.561 . S
C621 C624 1.526 . S
C622 H606 0.959 . S
C622 H607 0.959 . S
C622 H608 0.961 . S
C622 C621 1.502 . S
C623 H609 0.960 . S
C623 H610 0.961 . S
C623 H611 0.959 . S
C623 C621 1.561 . S
C624 C621 1.526 . S
C624 C625 1.396 . S
C624 C629 1.390 . S
C625 C619 1.465 1_655 S
C625 C624 1.396 . S
C625 C626 1.399 . S
C626 H612 0.929 . S
C626 C625 1.399 . S
C626 C627 1.385 . S
C627 H613 0.931 . S
C627 C626 1.385 . S
C627 C628 1.389 . S
C628 C627 1.389 . S
C628 C629 1.387 . S
C629 H614 0.930 . S
C629 C624 1.390 . S
C629 C628 1.387 . S
H630 C642 0.930 . S
H631 C644 0.930 . S
H632 C645 0.930 . S
H633 C649 0.959 . S
H634 C649 0.959 . S
H635 C649 0.961 . S
H636 C650 0.960 . S
H637 C650 0.961 . S
H638 C650 0.959 . S
H639 C653 0.929 . S
H640 C654 0.931 . S
H641 C656 0.930 . S
C642 H630 0.930 . S
C642 C643 1.399 . S
C642 C647 1.399 . S
C643 C642 1.399 . S
C643 C644 1.376 . S
C644 H631 0.930 . S
C644 C643 1.376 . S
C644 C645 1.388 . S
C645 H632 0.930 . S
C645 C644 1.388 . S
C645 C646 1.390 . S
C646 C645 1.390 . S
C646 C647 1.394 . S
C646 C652 1.465 . S
C647 C642 1.399 . S
C647 C646 1.394 . S
C647 C648 1.516 . S
C648 C647 1.516 . S
C648 C649 1.502 . S
C648 C650 1.561 . S
C648 C651 1.526 . S
C649 H633 0.959 . S
C649 H634 0.959 . S
C649 H635 0.961 . S
C649 C648 1.502 . S
C650 H636 0.960 . S
C650 H637 0.961 . S
C650 H638 0.959 . S
C650 C648 1.561 . S
C651 C648 1.526 . S
C651 C652 1.396 . S
C651 C656 1.390 . S
C652 C646 1.465 . S
C652 C651 1.396 . S
C652 C653 1.399 . S
C653 H639 0.929 . S
C653 C652 1.399 . S
C653 C654 1.385 . S
C654 H640 0.931 . S
C654 C653 1.385 . S
C654 C655 1.389 . S
C655 C654 1.389 . S
C655 C656 1.387 . S
C656 H641 0.930 . S
C656 C651 1.390 . S
C656 C655 1.387 . S
H657 C669 0.930 . S
H658 C671 0.930 . S
H659 C672 0.930 . S
H660 C676 0.959 . S
H661 C676 0.959 . S
H662 C676 0.961 . S
H663 C677 0.960 . S
H664 C677 0.961 . S
H665 C677 0.959 . S
H666 C680 0.929 . S
H667 C681 0.931 . S
H668 C683 0.930 . S
C669 H657 0.930 . S
C669 C670 1.399 . S
C669 C674 1.399 . S
C670 C669 1.399 . S
C670 C671 1.376 . S
C671 H658 0.930 . S
C671 C670 1.376 . S
C671 C672 1.388 . S
C672 H659 0.930 . S
C672 C671 1.388 . S
C672 C673 1.390 . S
C673 C672 1.390 . S
C673 C674 1.394 . S
C673 C679 1.465 . S
C674 C669 1.399 . S
C674 C673 1.394 . S
C674 C675 1.516 . S
C675 C674 1.516 . S
C675 C676 1.502 . S
C675 C677 1.561 . S
C675 C678 1.526 . S
C676 H660 0.959 . S
C676 H661 0.959 . S
C676 H662 0.961 . S
C676 C675 1.502 . S
C677 H663 0.960 . S
C677 H664 0.961 . S
C677 H665 0.959 . S
C677 C675 1.561 . S
C678 C675 1.526 . S
C678 C679 1.396 . S
C678 C683 1.390 . S
C679 C673 1.465 . S
C679 C678 1.396 . S
C679 C680 1.399 . S
C680 H666 0.929 . S
C680 C679 1.399 . S
C680 C681 1.385 . S
C681 H667 0.931 . S
C681 C680 1.385 . S
C681 C682 1.389 . S
C682 C681 1.389 . S
C682 C683 1.387 . S
C683 H668 0.930 . S
C683 C678 1.390 . S
C683 C682 1.387 . S
H684 C696 0.930 . S
H685 C698 0.930 . S
H686 C699 0.930 . S
H687 C703 0.959 . S
H688 C703 0.959 . S
H689 C703 0.961 . S
H690 C704 0.960 . S
H691 C704 0.961 . S
H692 C704 0.959 . S
H693 C707 0.929 . S
H694 C708 0.931 . S
H695 C710 0.930 . S
C696 H684 0.930 . S
C696 C697 1.399 . S
C696 C701 1.399 . S
C697 C696 1.399 . S
C697 C698 1.376 . S
C698 H685 0.930 . S
C698 C697 1.376 . S
C698 C699 1.388 . S
C699 H686 0.930 . S
C699 C698 1.388 . S
C699 C700 1.390 . S
C700 C699 1.390 . S
C700 C701 1.394 . S
C700 C706 1.465 . S
C701 C696 1.399 . S
C701 C700 1.394 . S
C701 C702 1.516 . S
C702 C701 1.516 . S
C702 C703 1.502 . S
C702 C704 1.561 . S
C702 C705 1.526 . S
C703 H687 0.959 . S
C703 H688 0.959 . S
C703 H689 0.961 . S
C703 C702 1.502 . S
C704 H690 0.960 . S
C704 H691 0.961 . S
C704 H692 0.959 . S
C704 C702 1.561 . S
C705 C702 1.526 . S
C705 C706 1.396 . S
C705 C710 1.390 . S
C706 C700 1.465 . S
C706 C705 1.396 . S
C706 C707 1.399 . S
C707 H693 0.929 . S
C707 C706 1.399 . S
C707 C708 1.385 . S
C708 H694 0.931 . S
C708 C707 1.385 . S
C708 C709 1.389 . S
C709 C708 1.389 . S
C709 C710 1.387 . S
C710 H695 0.930 . S
C710 C705 1.390 . S
C710 C709 1.387 . S
H711 C723 0.930 . S
H712 C725 0.930 . S
H713 C726 0.930 . S
H714 C730 0.959 . S
H715 C730 0.959 . S
H716 C730 0.961 . S
H717 C731 0.960 . S
H718 C731 0.961 . S
H719 C731 0.959 . S
H720 C734 0.938 . S
H721 C735 0.931 . S
H722 C737 0.930 . S
C723 H711 0.930 . S
C723 C724 1.399 . S
C723 C728 1.399 . S
C724 C723 1.399 . S
C724 C725 1.376 . S
C725 H712 0.930 . S
C725 C724 1.376 . S
C725 C726 1.388 . S
C726 H713 0.930 . S
C726 C725 1.388 . S
C726 C727 1.390 . S
C727 C726 1.390 . S
C727 C728 1.394 . S
C727 C733 1.465 . S
C728 C723 1.399 . S
C728 C727 1.394 . S
C728 C729 1.516 . S
C729 C728 1.516 . S
C729 C730 1.502 . S
C729 C731 1.561 . S
C729 C732 1.526 . S
C730 H714 0.959 . S
C730 H715 0.959 . S
C730 H716 0.961 . S
C730 C729 1.502 . S
C731 H717 0.960 . S
C731 H718 0.961 . S
C731 H719 0.959 . S
C731 C729 1.561 . S
C732 C729 1.526 . S
C732 C733 1.396 . S
C732 C737 1.390 . S
C733 C727 1.465 . S
C733 C732 1.396 . S
C733 C734 1.388 1_554 S
C734 H720 0.938 . S
C734 C733 1.388 1_556 S
C734 C735 1.387 . S
C735 H721 0.931 . S
C735 C734 1.387 . S
C735 C736 1.389 1_556 S
C736 C735 1.389 1_554 S
C736 C737 1.387 . S
C737 H722 0.930 . S
C737 C732 1.390 . S
C737 C736 1.387 . S
H738 C750 0.930 1_556 S
H739 C752 0.930 . S
H740 C753 0.930 . S
H741 C757 0.961 . S
H742 C757 0.958 1_556 S
H743 C757 0.959 1_556 S
H744 C758 0.960 . S
H745 C758 0.961 . S
H746 C758 0.959 1_554 S
H747 C761 0.929 . S
H748 C762 0.931 . S
H749 C764 0.930 . S
C750 H738 0.930 1_554 S
C750 C751 1.399 . S
C750 C755 1.399 . S
C751 C750 1.399 . S
C751 C752 1.376 . S
C752 H739 0.930 . S
C752 C751 1.376 . S
C752 C753 1.388 . S
C753 H740 0.930 . S
C753 C752 1.388 . S
C753 C754 1.390 . S
C754 C753 1.390 . S
C754 C755 1.394 . S
C754 C760 1.465 . S
C755 C750 1.399 . S
C755 C754 1.394 . S
C755 C756 1.516 . S
C756 C755 1.516 . S
C756 C757 1.503 . S
C756 C758 1.561 1_554 S
C756 C759 1.526 . S
C757 H741 0.961 . S
C757 H742 0.958 1_554 S
C757 H743 0.959 1_554 S
C757 C756 1.503 . S
C758 H744 0.960 . S
C758 H745 0.961 . S
C758 H746 0.959 1_556 S
C758 C756 1.561 1_556 S
C759 C756 1.526 . S
C759 C760 1.396 . S
C759 C764 1.390 . S
C760 C754 1.465 . S
C760 C759 1.396 . S
C760 C761 1.399 . S
C761 H747 0.929 . S
C761 C760 1.399 . S
C761 C762 1.385 . S
C762 H748 0.931 . S
C762 C761 1.385 . S
C762 C763 1.389 . S
C763 C762 1.389 . S
C763 C764 1.387 . S
C764 H749 0.930 . S
C764 C759 1.390 . S
C764 C763 1.387 . S
H765 C777 0.930 . S
H766 C779 0.930 . S
H767 C780 0.930 . S
H768 C784 0.959 . S
H769 C784 0.959 . S
H770 C784 0.961 . S
H771 C785 0.960 . S
H772 C785 0.961 . S
H773 C785 0.959 . S
H774 C788 0.929 1_556 S
H775 C789 0.931 . S
H776 C791 0.930 . S
C777 H765 0.930 . S
C777 C778 1.399 . S
C777 C782 1.399 . S
C778 C777 1.399 . S
C778 C779 1.376 . S
C779 H766 0.930 . S
C779 C778 1.376 . S
C779 C780 1.388 . S
C780 H767 0.930 . S
C780 C779 1.388 . S
C780 C781 1.390 . S
C781 C780 1.390 . S
C781 C782 1.394 . S
C781 C787 1.465 . S
C782 C777 1.399 . S
C782 C781 1.394 . S
C782 C783 1.516 . S
C783 C782 1.516 . S
C783 C784 1.502 . S
C783 C785 1.561 . S
C783 C786 1.526 . S
C784 H768 0.959 . S
C784 H769 0.959 . S
C784 H770 0.961 . S
C784 C783 1.502 . S
C785 H771 0.960 . S
C785 H772 0.961 . S
C785 H773 0.959 . S
C785 C783 1.561 . S
C786 C783 1.526 . S
C786 C787 1.396 . S
C786 C791 1.390 . S
C787 C781 1.465 . S
C787 C786 1.396 . S
C787 C788 1.399 . S
C788 H774 0.929 1_554 S
C788 C787 1.399 . S
C788 C789 1.385 1_554 S
C789 H775 0.931 . S
C789 C788 1.385 1_556 S
C789 C790 1.389 1_556 S
C790 C789 1.389 1_554 S
C790 C791 1.387 . S
C791 H776 0.930 . S
C791 C786 1.390 . S
C791 C790 1.387 . S
H792 C804 0.930 . S
H793 C806 0.930 . S
H794 C807 0.930 . S
H795 C811 0.959 . S
H796 C811 0.959 . S
H797 C811 0.961 . S
H798 C812 0.960 . S
H799 C812 0.961 . S
H800 C812 0.959 . S
H801 C815 0.929 . S
H802 C816 0.931 . S
H803 C818 0.930 1_554 S
C804 H792 0.930 . S
C804 C805 1.399 . S
C804 C809 1.399 . S
C805 C804 1.399 . S
C805 C806 1.376 . S
C806 H793 0.930 . S
C806 C805 1.376 . S
C806 C807 1.388 . S
C807 H794 0.930 . S
C807 C806 1.388 . S
C807 C808 1.390 . S
C808 C807 1.390 . S
C808 C809 1.394 . S
C808 C814 1.465 . S
C809 C804 1.399 . S
C809 C808 1.394 . S
C809 C810 1.516 . S
C810 C809 1.516 . S
C810 C811 1.502 1_556 S
C810 C812 1.561 . S
C810 C813 1.526 . S
C811 H795 0.959 . S
C811 H796 0.959 . S
C811 H797 0.961 . S
C811 C810 1.502 1_554 S
C812 H798 0.960 . S
C812 H799 0.961 . S
C812 H800 0.959 . S
C812 C810 1.561 . S
C813 C810 1.526 . S
C813 C814 1.396 . S
C813 C818 1.390 . S
C814 C808 1.465 . S
C814 C813 1.396 . S
C814 C815 1.399 . S
C815 H801 0.929 . S
C815 C814 1.399 . S
C815 C816 1.385 . S
C816 H802 0.931 . S
C816 C815 1.385 . S
C816 C817 1.389 . S
C817 C816 1.389 . S
C817 C818 1.387 . S
C818 H803 0.930 1_556 S
C818 C813 1.390 . S
C818 C817 1.387 . S
H819 C831 0.930 . S
H820 C833 0.930 . S
H821 C834 0.930 . S
H822 C838 0.959 . S
H823 C838 0.959 . S
H824 C838 0.961 . S
H825 C839 0.960 . S
H826 C839 0.961 . S
H827 C839 0.959 . S
H828 C842 0.929 . S
H829 C843 0.931 . S
H830 C845 0.930 . S
C831 H819 0.930 . S
C831 C832 1.399 . S
C831 C836 1.399 . S
C832 C831 1.399 . S
C832 C833 1.376 . S
C833 H820 0.930 . S
C833 C832 1.376 . S
C833 C834 1.388 . S
C834 H821 0.930 . S
C834 C833 1.388 . S
C834 C835 1.390 . S
C835 C834 1.390 . S
C835 C836 1.394 . S
C835 C841 1.465 . S
C836 C831 1.399 . S
C836 C835 1.394 . S
C836 C837 1.516 . S
C837 C836 1.516 . S
C837 C838 1.502 . S
C837 C839 1.561 . S
C837 C840 1.526 . S
C838 H822 0.959 . S
C838 H823 0.959 . S
C838 H824 0.961 . S
C838 C837 1.502 . S
C839 H825 0.960 . S
C839 H826 0.961 . S
C839 H827 0.959 . S
C839 C837 1.561 . S
C840 C837 1.526 . S
C840 C841 1.396 . S
C840 C845 1.390 . S
C841 C835 1.465 . S
C841 C840 1.396 . S
C841 C842 1.399 . S
C842 H828 0.929 . S
C842 C841 1.399 . S
C842 C843 1.385 . S
C843 H829 0.931 . S
C843 C842 1.385 . S
C843 C844 1.389 . S
C844 C843 1.389 . S
C844 C845 1.387 . S
C845 H830 0.930 . S
C845 C840 1.390 . S
C845 C844 1.387 . S
H846 C858 0.930 . S
H847 C860 0.930 1_554 S
H848 C861 0.930 1_554 S
H849 C865 0.959 . S
H850 C865 0.959 . S
H851 C865 0.961 . S
H852 C866 0.960 . S
H853 C866 0.961 . S
H854 C866 0.959 . S
H855 C869 0.929 . S
H856 C870 0.931 . S
H857 C872 0.930 . S
C858 H846 0.930 . S
C858 C859 1.399 . S
C858 C863 1.399 . S
C859 C858 1.399 . S
C859 C860 1.376 . S
C860 H847 0.930 1_556 S
C860 C859 1.376 . S
C860 C861 1.388 . S
C861 H848 0.930 1_556 S
C861 C860 1.388 . S
C861 C862 1.390 . S
C862 C861 1.390 . S
C862 C863 1.394 . S
C862 C868 1.465 . S
C863 C858 1.399 . S
C863 C862 1.394 . S
C863 C864 1.516 . S
C864 C863 1.516 . S
C864 C865 1.502 . S
C864 C866 1.561 . S
C864 C867 1.526 . S
C865 H849 0.959 . S
C865 H850 0.959 . S
C865 H851 0.961 . S
C865 C864 1.502 . S
C866 H852 0.960 . S
C866 H853 0.961 . S
C866 H854 0.959 . S
C866 C864 1.561 . S
C867 C864 1.526 . S
C867 C868 1.396 . S
C867 C872 1.390 . S
C868 C862 1.465 . S
C868 C867 1.396 . S
C868 C869 1.399 . S
C869 H855 0.929 . S
C869 C868 1.399 . S
C869 C870 1.385 . S
C870 H856 0.931 . S
C870 C869 1.385 . S
C870 C871 1.389 . S
C871 C870 1.389 . S
C871 C872 1.387 . S
C872 H857 0.930 . S
C872 C867 1.390 . S
C872 C871 1.387 . S
H873 C885 0.930 . S
H874 C887 0.930 . S
H875 C888 0.930 . S
H876 C892 0.959 . S
H877 C892 0.959 . S
H878 C892 0.961 . S
H879 C893 0.960 . S
H880 C893 0.961 . S
H881 C893 0.959 . S
H882 C896 0.929 . S
H883 C897 0.931 . S
H884 C899 0.930 . S
C885 H873 0.930 . S
C885 C886 1.399 . S
C885 C890 1.399 . S
C886 C885 1.399 . S
C886 C887 1.376 . S
C887 H874 0.930 . S
C887 C886 1.376 . S
C887 C888 1.388 . S
C888 H875 0.930 . S
C888 C887 1.388 . S
C888 C889 1.390 . S
C889 C888 1.390 . S
C889 C890 1.394 . S
C889 C895 1.465 . S
C890 C885 1.399 . S
C890 C889 1.394 . S
C890 C891 1.516 . S
C891 C890 1.516 . S
C891 C892 1.502 . S
C891 C893 1.561 . S
C891 C894 1.526 . S
C892 H876 0.959 . S
C892 H877 0.959 . S
C892 H878 0.961 . S
C892 C891 1.502 . S
C893 H879 0.960 . S
C893 H880 0.961 . S
C893 H881 0.959 . S
C893 C891 1.561 . S
C894 C891 1.526 . S
C894 C895 1.396 . S
C894 C899 1.390 . S
C895 C889 1.465 . S
C895 C894 1.396 . S
C895 C896 1.399 . S
C896 H882 0.929 . S
C896 C895 1.399 . S
C896 C897 1.385 . S
C897 H883 0.931 . S
C897 C896 1.385 . S
C897 C898 1.389 . S
C898 C897 1.389 . S
C898 C899 1.387 . S
C899 H884 0.930 . S
C899 C894 1.390 . S
C899 C898 1.387 . S
H900 C912 0.930 . S
H901 C914 0.930 . S
H902 C915 0.930 . S
H903 C919 0.959 . S
H904 C919 0.959 . S
H905 C919 0.961 . S
H906 C920 0.960 . S
H907 C920 0.961 . S
H908 C920 0.959 . S
H909 C923 0.929 . S
H910 C924 0.931 . S
H911 C926 0.930 . S
C912 H900 0.930 . S
C912 C913 1.399 . S
C912 C917 1.399 . S
C913 C912 1.399 . S
C913 C914 1.376 . S
C914 H901 0.930 . S
C914 C913 1.376 . S
C914 C915 1.388 . S
C915 H902 0.930 . S
C915 C914 1.388 . S
C915 C916 1.390 . S
C916 C915 1.390 . S
C916 C917 1.394 . S
C916 C922 1.465 . S
C917 C912 1.399 . S
C917 C916 1.394 . S
C917 C918 1.516 . S
C918 C917 1.516 . S
C918 C919 1.502 . S
C918 C920 1.561 . S
C918 C921 1.526 . S
C919 H903 0.959 . S
C919 H904 0.959 . S
C919 H905 0.961 . S
C919 C918 1.502 . S
C920 H906 0.960 . S
C920 H907 0.961 . S
C920 H908 0.959 . S
C920 C918 1.561 . S
C921 C918 1.526 . S
C921 C922 1.396 . S
C921 C926 1.390 . S
C922 C916 1.465 . S
C922 C921 1.396 . S
C922 C923 1.399 . S
C923 H909 0.929 . S
C923 C922 1.399 . S
C923 C924 1.385 . S
C924 H910 0.931 . S
C924 C923 1.385 . S
C924 C925 1.389 . S
C925 C924 1.389 . S
C925 C926 1.387 . S
C926 H911 0.930 . S
C926 C921 1.390 . S
C926 C925 1.387 . S
H927 C939 0.930 . S
H928 C941 0.930 . S
H929 C942 0.930 . S
H930 C946 0.959 . S
H931 C946 0.959 . S
H932 C946 0.961 . S
H933 C947 0.960 . S
H934 C947 0.961 . S
H935 C947 0.959 . S
H936 C950 0.929 . S
H937 C951 0.931 . S
H938 C953 0.930 . S
C939 H927 0.930 . S
C939 C940 1.399 . S
C939 C944 1.399 . S
C940 C939 1.399 . S
C940 C941 1.376 . S
C941 H928 0.930 . S
C941 C940 1.376 . S
C941 C942 1.388 . S
C942 H929 0.930 . S
C942 C941 1.388 . S
C942 C943 1.390 . S
C943 C942 1.390 . S
C943 C944 1.394 . S
C943 C949 1.465 . S
C944 C939 1.399 . S
C944 C943 1.394 . S
C944 C945 1.516 . S
C945 C944 1.516 . S
C945 C946 1.502 . S
C945 C947 1.561 . S
C945 C948 1.526 . S
C946 H930 0.959 . S
C946 H931 0.959 . S
C946 H932 0.961 . S
C946 C945 1.502 . S
C947 H933 0.960 . S
C947 H934 0.961 . S
C947 H935 0.959 . S
C947 C945 1.561 . S
C948 C945 1.526 . S
C948 C949 1.396 . S
C948 C953 1.390 . S
C949 C943 1.465 . S
C949 C948 1.396 . S
C949 C950 1.399 . S
C950 H936 0.929 . S
C950 C949 1.399 . S
C950 C951 1.385 . S
C951 H937 0.931 . S
C951 C950 1.385 . S
C951 C952 1.389 . S
C952 C951 1.389 . S
C952 C953 1.387 . S
C953 H938 0.930 . S
C953 C948 1.390 . S
C953 C952 1.387 . S
H954 C966 0.930 . S
H955 C968 0.930 . S
H956 C969 0.930 . S
H957 C973 0.959 . S
H958 C973 0.959 . S
H959 C973 0.961 . S
H960 C974 0.960 . S
H961 C974 0.961 . S
H962 C974 0.959 . S
H963 C977 0.929 . S
H964 C978 0.931 1_554 S
H965 C980 0.930 . S
C966 H954 0.930 . S
C966 C967 1.399 . S
C966 C971 1.399 . S
C967 C966 1.399 . S
C967 C968 1.376 . S
C968 H955 0.930 . S
C968 C967 1.376 . S
C968 C969 1.388 . S
C969 H956 0.930 . S
C969 C968 1.388 . S
C969 C970 1.390 . S
C970 C969 1.390 . S
C970 C971 1.394 . S
C970 C976 1.465 . S
C971 C966 1.399 . S
C971 C970 1.394 . S
C971 C972 1.516 . S
C972 C971 1.516 . S
C972 C973 1.502 . S
C972 C974 1.561 . S
C972 C975 1.526 . S
C973 H957 0.959 . S
C973 H958 0.959 . S
C973 H959 0.961 . S
C973 C972 1.502 . S
C974 H960 0.960 . S
C974 H961 0.961 . S
C974 H962 0.959 . S
C974 C972 1.561 . S
C975 C972 1.526 . S
C975 C976 1.396 . S
C975 C980 1.390 . S
C976 C970 1.465 . S
C976 C975 1.396 . S
C976 C977 1.399 . S
C977 H963 0.929 . S
C977 C976 1.399 . S
C977 C978 1.385 . S
C978 H964 0.931 1_556 S
C978 C977 1.385 . S
C978 C979 1.389 1_556 S
C979 C978 1.389 1_554 S
C979 C980 1.387 1_554 S
C980 H965 0.930 . S
C980 C975 1.390 . S
C980 C979 1.387 1_556 S
H981 C993 0.930 1_554 S
H982 C995 0.930 . S
H983 C996 0.930 . S
H984 C1000 0.959 . S
H985 C1000 0.959 . S
H986 C1000 0.961 . S
H987 C1001 0.960 . S
H988 C1001 0.961 . S
H989 C1001 0.959 . S
H990 C1004 0.929 . S
H991 C1005 0.931 . S
H992 C1007 0.930 . S
C993 H981 0.930 1_556 S
C993 C994 1.399 1_556 S
C993 C998 1.399 . S
C994 C993 1.399 1_554 S
C994 C995 1.376 1_554 S
C995 H982 0.930 . S
C995 C994 1.376 1_556 S
C995 C996 1.388 . S
C996 H983 0.930 . S
C996 C995 1.388 . S
C996 C997 1.390 . S
C997 C996 1.390 . S
C997 C998 1.394 . S
C997 C1003 1.465 . S
C998 C993 1.399 . S
C998 C997 1.394 . S
C998 C999 1.516 . S
C999 C998 1.516 . S
C999 C1000 1.502 . S
C999 C1001 1.561 . S
C999 C1002 1.526 . S
C1000 H984 0.959 . S
C1000 H985 0.959 . S
C1000 H986 0.961 . S
C1000 C999 1.502 . S
C1001 H987 0.960 . S
C1001 H988 0.961 . S
C1001 H989 0.959 . S
C1001 C999 1.561 . S
C1002 C999 1.526 . S
C1002 C1003 1.396 . S
C1002 C1007 1.390 . S
C1003 C997 1.465 . S
C1003 C1002 1.396 . S
C1003 C1004 1.399 . S
C1004 H990 0.929 . S
C1004 C1003 1.399 . S
C1004 C1005 1.385 . S
C1005 H991 0.931 . S
C1005 C1004 1.385 . S
C1005 C1006 1.389 . S
C1006 C1005 1.389 . S
C1006 C1007 1.387 . S
C1007 H992 0.930 . S
C1007 C1002 1.390 . S
C1007 C1006 1.387 . S
H1008 C1020 0.930 1_554 S
H1009 C1022 0.930 . S
H1010 C1023 0.930 . S
H1011 C1027 0.959 . S
H1012 C1027 0.959 . S
H1013 C1027 0.961 . S
H1014 C1028 0.960 1_554 S
H1015 C1028 0.961 . S
H1016 C1028 0.959 . S
H1017 C1031 0.929 . S
H1018 C1032 0.931 . S
H1019 C1034 0.930 . S
C1020 H1008 0.930 1_556 S
C1020 C1021 1.399 1_556 S
C1020 C1025 1.399 . S
C1021 C1020 1.399 1_554 S
C1021 C1022 1.376 1_554 S
C1022 H1009 0.930 . S
C1022 C1021 1.376 1_556 S
C1022 C1023 1.388 . S
C1023 H1010 0.930 . S
C1023 C1022 1.388 . S
C1023 C1024 1.390 . S
C1024 C1023 1.390 . S
C1024 C1025 1.394 . S
C1024 C1030 1.465 . S
C1025 C1020 1.399 . S
C1025 C1024 1.394 . S
C1025 C1026 1.516 . S
C1026 C1025 1.516 . S
C1026 C1027 1.502 . S
C1026 C1028 1.561 . S
C1026 C1029 1.526 . S
C1027 H1011 0.959 . S
C1027 H1012 0.959 . S
C1027 H1013 0.961 . S
C1027 C1026 1.502 . S
C1028 H1014 0.960 1_556 S
C1028 H1015 0.961 . S
C1028 H1016 0.959 . S
C1028 C1026 1.561 . S
C1029 C1026 1.526 . S
C1029 C1030 1.396 . S
C1029 C1034 1.390 . S
C1030 C1024 1.465 . S
C1030 C1029 1.396 . S
C1030 C1031 1.399 . S
C1031 H1017 0.929 . S
C1031 C1030 1.399 . S
C1031 C1032 1.385 . S
C1032 H1018 0.931 . S
C1032 C1031 1.385 . S
C1032 C1033 1.389 . S
C1033 C1032 1.389 . S
C1033 C1034 1.387 . S
C1034 H1019 0.930 . S
C1034 C1029 1.390 . S
C1034 C1033 1.387 . S
H1035 C1047 0.930 . S
H1036 C1049 0.930 . S
H1037 C1050 0.930 . S
H1038 C1054 0.959 . S
H1039 C1054 0.959 . S
H1040 C1054 0.961 . S
H1041 C1055 0.960 . S
H1042 C1055 0.961 . S
H1043 C1055 0.959 . S
H1044 C1058 0.929 . S
H1045 C1059 0.931 . S
H1046 C1061 0.930 . S
C1047 H1035 0.930 . S
C1047 C1048 1.399 . S
C1047 C1052 1.399 . S
C1048 C1047 1.399 . S
C1048 C1049 1.376 . S
C1049 H1036 0.930 . S
C1049 C1048 1.376 . S
C1049 C1050 1.388 . S
C1050 H1037 0.930 . S
C1050 C1049 1.388 . S
C1050 C1051 1.390 . S
C1051 C1050 1.390 . S
C1051 C1052 1.394 . S
C1051 C1057 1.465 . S
C1052 C1047 1.399 . S
C1052 C1051 1.394 . S
C1052 C1053 1.516 . S
C1053 C1052 1.516 . S
C1053 C1054 1.502 . S
C1053 C1055 1.561 . S
C1053 C1056 1.526 . S
C1054 H1038 0.959 . S
C1054 H1039 0.959 . S
C1054 H1040 0.961 . S
C1054 C1053 1.502 . S
C1055 H1041 0.960 . S
C1055 H1042 0.961 . S
C1055 H1043 0.959 . S
C1055 C1053 1.561 . S
C1056 C1053 1.526 . S
C1056 C1057 1.396 . S
C1056 C1061 1.390 . S
C1057 C1051 1.465 . S
C1057 C1056 1.396 . S
C1057 C1058 1.399 . S
C1058 H1044 0.929 . S
C1058 C1057 1.399 . S
C1058 C1059 1.385 . S
C1059 H1045 0.931 . S
C1059 C1058 1.385 . S
C1059 C1060 1.389 . S
C1060 C1059 1.389 . S
C1060 C1061 1.387 . S
C1061 H1046 0.930 . S
C1061 C1056 1.390 . S
C1061 C1060 1.387 . S
H1062 C1074 0.930 . S
H1063 C1076 0.930 . S
H1064 C1077 0.930 . S
H1065 C1081 0.959 . S
H1066 C1081 0.959 . S
H1067 C1081 0.961 . S
H1068 C1082 0.960 . S
H1069 C1082 0.961 . S
H1070 C1082 0.959 . S
H1071 C1085 0.929 . S
H1072 C1086 0.931 . S
H1073 C1088 0.930 . S
C1074 H1062 0.930 . S
C1074 C1075 1.399 . S
C1074 C1079 1.399 . S
C1075 C1074 1.399 . S
C1075 C1076 1.376 . S
C1076 H1063 0.930 . S
C1076 C1075 1.376 . S
C1076 C1077 1.388 . S
C1077 H1064 0.930 . S
C1077 C1076 1.388 . S
C1077 C1078 1.390 . S
C1078 C1077 1.390 . S
C1078 C1079 1.394 . S
C1078 C1084 1.465 . S
C1079 C1074 1.399 . S
C1079 C1078 1.394 . S
C1079 C1080 1.516 . S
C1080 C1079 1.516 . S
C1080 C1081 1.502 . S
C1080 C1082 1.561 . S
C1080 C1083 1.526 . S
C1081 H1065 0.959 . S
C1081 H1066 0.959 . S
C1081 H1067 0.961 . S
C1081 C1080 1.502 . S
C1082 H1068 0.960 . S
C1082 H1069 0.961 . S
C1082 H1070 0.959 . S
C1082 C1080 1.561 . S
C1083 C1080 1.526 . S
C1083 C1084 1.396 . S
C1083 C1088 1.390 . S
C1084 C1078 1.465 . S
C1084 C1083 1.396 . S
C1084 C1085 1.399 . S
C1085 H1071 0.929 . S
C1085 C1084 1.399 . S
C1085 C1086 1.385 . S
C1086 H1072 0.931 . S
C1086 C1085 1.385 . S
C1086 C1087 1.389 . S
C1087 C1086 1.389 . S
C1087 C1088 1.387 . S
C1088 H1073 0.930 . S
C1088 C1083 1.390 . S
C1088 C1087 1.387 . S
H1089 C1101 0.930 . S
H1090 C1103 0.930 . S
H1091 C1104 0.930 . S
H1092 C1108 0.959 . S
H1093 C1108 0.959 . S
H1094 C1108 0.961 . S
H1095 C1109 0.960 . S
H1096 C1109 0.961 . S
H1097 C1109 0.959 . S
H1098 C1112 0.929 . S
H1099 C1113 0.931 . S
H1100 C1115 0.930 . S
C1101 H1089 0.930 . S
C1101 C1102 1.399 . S
C1101 C1106 1.399 . S
C1102 C1101 1.399 . S
C1102 C1103 1.376 . S
C1103 H1090 0.930 . S
C1103 C1102 1.376 . S
C1103 C1104 1.388 . S
C1104 H1091 0.930 . S
C1104 C1103 1.388 . S
C1104 C1105 1.390 . S
C1105 C1104 1.390 . S
C1105 C1106 1.394 . S
C1105 C1111 1.465 . S
C1106 C1101 1.399 . S
C1106 C1105 1.394 . S
C1106 C1107 1.516 . S
C1107 C1106 1.516 . S
C1107 C1108 1.502 . S
C1107 C1109 1.561 . S
C1107 C1110 1.526 . S
C1108 H1092 0.959 . S
C1108 H1093 0.959 . S
C1108 H1094 0.961 . S
C1108 C1107 1.502 . S
C1109 H1095 0.960 . S
C1109 H1096 0.961 . S
C1109 H1097 0.959 . S
C1109 C1107 1.561 . S
C1110 C1107 1.526 . S
C1110 C1111 1.396 . S
C1110 C1115 1.390 . S
C1111 C1105 1.465 . S
C1111 C1110 1.396 . S
C1111 C1112 1.399 . S
C1112 H1098 0.929 . S
C1112 C1111 1.399 . S
C1112 C1113 1.385 . S
C1113 H1099 0.931 . S
C1113 C1112 1.385 . S
C1113 C1114 1.389 . S
C1114 C1113 1.389 . S
C1114 C1115 1.387 . S
C1115 H1100 0.930 . S
C1115 C1110 1.390 . S
C1115 C1114 1.387 . S
H1116 C1128 0.930 1_556 S
H1117 C1130 0.930 . S
H1118 C1131 0.930 . S
H1119 C1135 0.959 . S
H1120 C1135 0.959 . S
H1121 C1135 0.961 . S
H1122 C1136 0.960 . S
H1123 C1136 0.961 . S
H1124 C1136 0.959 . S
H1125 C1139 0.929 . S
H1126 C1140 0.931 . S
H1127 C1142 0.930 . S
C1128 H1116 0.930 1_554 S
C1128 C1129 1.399 1_554 S
C1128 C1133 1.399 . S
C1129 C1128 1.399 1_556 S
C1129 C1130 1.376 1_556 S
C1130 H1117 0.930 . S
C1130 C1129 1.376 1_554 S
C1130 C1131 1.388 . S
C1131 H1118 0.930 . S
C1131 C1130 1.388 . S
C1131 C1132 1.390 . S
C1132 C1131 1.390 . S
C1132 C1133 1.394 . S
C1132 C1138 1.465 . S
C1133 C1128 1.399 . S
C1133 C1132 1.394 . S
C1133 C1134 1.516 . S
C1134 C1133 1.516 . S
C1134 C1135 1.502 . S
C1134 C1136 1.561 . S
C1134 C1137 1.526 . S
C1135 H1119 0.959 . S
C1135 H1120 0.959 . S
C1135 H1121 0.961 . S
C1135 C1134 1.502 . S
C1136 H1122 0.960 . S
C1136 H1123 0.961 . S
C1136 H1124 0.959 . S
C1136 C1134 1.561 . S
C1137 C1134 1.526 . S
C1137 C1138 1.396 . S
C1137 C1142 1.390 . S
C1138 C1132 1.465 . S
C1138 C1137 1.396 . S
C1138 C1139 1.399 . S
C1139 H1125 0.929 . S
C1139 C1138 1.399 . S
C1139 C1140 1.385 . S
C1140 H1126 0.931 . S
C1140 C1139 1.385 . S
C1140 C1141 1.389 . S
C1141 C1140 1.389 . S
C1141 C1142 1.387 . S
C1142 H1127 0.930 . S
C1142 C1137 1.390 . S
C1142 C1141 1.387 . S
H1143 C1155 0.930 1_556 S
H1144 C1157 0.930 . S
H1145 C1158 0.930 . S
H1146 C1162 0.959 . S
H1147 C1162 0.959 . S
H1148 C1162 0.961 . S
H1149 C1163 0.960 . S
H1150 C1163 0.961 . S
H1151 C1163 0.959 . S
H1152 C1166 0.929 . S
H1153 C1167 0.931 . S
H1154 C1169 0.930 . S
C1155 H1143 0.930 1_554 S
C1155 C1156 1.399 1_554 S
C1155 C1160 1.399 . S
C1156 C1155 1.399 1_556 S
C1156 C1157 1.376 1_556 S
C1157 H1144 0.930 . S
C1157 C1156 1.376 1_554 S
C1157 C1158 1.388 . S
C1158 H1145 0.930 . S
C1158 C1157 1.388 . S
C1158 C1159 1.390 . S
C1159 C1158 1.390 . S
C1159 C1160 1.394 . S
C1159 C1165 1.465 . S
C1160 C1155 1.399 . S
C1160 C1159 1.394 . S
C1160 C1161 1.516 . S
C1161 C1160 1.516 . S
C1161 C1162 1.502 . S
C1161 C1163 1.561 . S
C1161 C1164 1.526 . S
C1162 H1146 0.959 . S
C1162 H1147 0.959 . S
C1162 H1148 0.961 . S
C1162 C1161 1.502 . S
C1163 H1149 0.960 . S
C1163 H1150 0.961 . S
C1163 H1151 0.959 . S
C1163 C1161 1.561 . S
C1164 C1161 1.526 . S
C1164 C1165 1.396 . S
C1164 C1169 1.390 . S
C1165 C1159 1.465 . S
C1165 C1164 1.396 . S
C1165 C1166 1.399 . S
C1166 H1152 0.929 . S
C1166 C1165 1.399 . S
C1166 C1167 1.385 . S
C1167 H1153 0.931 . S
C1167 C1166 1.385 . S
C1167 C1168 1.389 . S
C1168 C1167 1.389 . S
C1168 C1169 1.387 . S
C1169 H1154 0.930 . S
C1169 C1164 1.390 . S
C1169 C1168 1.387 . S
H1170 C1182 0.930 . S
H1171 C1184 0.930 . S
H1172 C1185 0.930 . S
H1173 C1189 0.959 . S
H1174 C1189 0.959 . S
H1175 C1189 0.961 . S
H1176 C1190 0.960 . S
H1177 C1190 0.961 . S
H1178 C1190 0.959 . S
H1179 C1193 0.929 . S
H1180 C1194 0.931 . S
H1181 C1196 0.930 1_556 S
C1182 H1170 0.930 . S
C1182 C1183 1.399 . S
C1182 C1187 1.399 . S
C1183 C1182 1.399 . S
C1183 C1184 1.376 . S
C1184 H1171 0.930 . S
C1184 C1183 1.376 . S
C1184 C1185 1.388 . S
C1185 H1172 0.930 . S
C1185 C1184 1.388 . S
C1185 C1186 1.390 . S
C1186 C1185 1.390 . S
C1186 C1187 1.394 . S
C1186 C1192 1.465 . S
C1187 C1182 1.399 . S
C1187 C1186 1.394 . S
C1187 C1188 1.516 . S
C1188 C1187 1.516 . S
C1188 C1189 1.502 . S
C1188 C1190 1.561 . S
C1188 C1191 1.526 . S
C1189 H1173 0.959 . S
C1189 H1174 0.959 . S
C1189 H1175 0.961 . S
C1189 C1188 1.502 . S
C1190 H1176 0.960 . S
C1190 H1177 0.961 . S
C1190 H1178 0.959 . S
C1190 C1188 1.561 . S
C1191 C1188 1.526 . S
C1191 C1192 1.396 . S
C1191 C1196 1.390 . S
C1192 C1186 1.465 . S
C1192 C1191 1.396 . S
C1192 C1193 1.399 . S
C1193 H1179 0.929 . S
C1193 C1192 1.399 . S
C1193 C1194 1.385 . S
C1194 H1180 0.931 . S
C1194 C1193 1.385 . S
C1194 C1195 1.389 1_554 S
C1195 C1194 1.389 1_556 S
C1195 C1196 1.387 1_556 S
C1196 H1181 0.930 1_554 S
C1196 C1191 1.390 . S
C1196 C1195 1.387 1_554 S
H1197 C1209 0.930 . S
H1198 C1211 0.930 . S
H1199 C1212 0.930 . S
H1200 C1216 0.959 . S
H1201 C1216 0.959 . S
H1202 C1216 0.961 . S
H1203 C1217 0.960 . S
H1204 C1217 0.961 . S
H1205 C1217 0.959 . S
H1206 C1220 0.929 . S
H1207 C1221 0.931 . S
H1208 C1223 0.930 . S
C1209 H1197 0.930 . S
C1209 C1210 1.399 . S
C1209 C1214 1.399 . S
C1210 C1209 1.399 . S
C1210 C1211 1.376 . S
C1211 H1198 0.930 . S
C1211 C1210 1.376 . S
C1211 C1212 1.388 . S
C1212 H1199 0.930 . S
C1212 C1211 1.388 . S
C1212 C1213 1.390 . S
C1213 C1212 1.390 . S
C1213 C1214 1.394 . S
C1213 C1219 1.465 . S
C1214 C1209 1.399 . S
C1214 C1213 1.394 . S
C1214 C1215 1.516 . S
C1215 C1214 1.516 . S
C1215 C1216 1.502 . S
C1215 C1217 1.561 . S
C1215 C1218 1.526 . S
C1216 H1200 0.959 . S
C1216 H1201 0.959 . S
C1216 H1202 0.961 . S
C1216 C1215 1.502 . S
C1217 H1203 0.960 . S
C1217 H1204 0.961 . S
C1217 H1205 0.959 . S
C1217 C1215 1.561 . S
C1218 C1215 1.526 . S
C1218 C1219 1.396 . S
C1218 C1223 1.390 . S
C1219 C1213 1.465 . S
C1219 C1218 1.396 . S
C1219 C1220 1.399 . S
C1220 H1206 0.929 . S
C1220 C1219 1.399 . S
C1220 C1221 1.385 . S
C1221 H1207 0.931 . S
C1221 C1220 1.385 . S
C1221 C1222 1.389 . S
C1222 C1221 1.389 . S
C1222 C1223 1.387 . S
C1223 H1208 0.930 . S
C1223 C1218 1.390 . S
C1223 C1222 1.387 . S
H1224 C1236 0.930 . S
H1225 C1238 0.930 . S
H1226 C1239 0.930 . S
H1227 C1243 0.959 . S
H1228 C1243 0.959 . S
H1229 C1243 0.961 . S
H1230 C1244 0.960 . S
H1231 C1244 0.961 . S
H1232 C1244 0.959 . S
H1233 C1247 0.929 . S
H1234 C1248 0.931 . S
H1235 C1250 0.930 . S
C1236 H1224 0.930 . S
C1236 C1237 1.399 . S
C1236 C1241 1.399 . S
C1237 C1236 1.399 . S
C1237 C1238 1.376 . S
C1238 H1225 0.930 . S
C1238 C1237 1.376 . S
C1238 C1239 1.388 . S
C1239 H1226 0.930 . S
C1239 C1238 1.388 . S
C1239 C1240 1.390 . S
C1240 C1239 1.390 . S
C1240 C1241 1.394 . S
C1240 C1246 1.465 . S
C1241 C1236 1.399 . S
C1241 C1240 1.394 . S
C1241 C1242 1.516 . S
C1242 C1241 1.516 . S
C1242 C1243 1.502 . S
C1242 C1244 1.561 . S
C1242 C1245 1.526 . S
C1243 H1227 0.959 . S
C1243 H1228 0.959 . S
C1243 H1229 0.961 . S
C1243 C1242 1.502 . S
C1244 H1230 0.960 . S
C1244 H1231 0.961 . S
C1244 H1232 0.959 . S
C1244 C1242 1.561 . S
C1245 C1242 1.526 . S
C1245 C1246 1.396 . S
C1245 C1250 1.390 . S
C1246 C1240 1.465 . S
C1246 C1245 1.396 . S
C1246 C1247 1.399 . S
C1247 H1233 0.929 . S
C1247 C1246 1.399 . S
C1247 C1248 1.385 . S
C1248 H1234 0.931 . S
C1248 C1247 1.385 . S
C1248 C1249 1.389 . S
C1249 C1248 1.389 . S
C1249 C1250 1.387 . S
C1250 H1235 0.930 . S
C1250 C1245 1.390 . S
C1250 C1249 1.387 . S
H1251 C1263 0.930 . S
H1252 C1265 0.930 . S
H1253 C1266 0.930 . S
H1254 C1270 0.959 . S
H1255 C1270 0.959 . S
H1256 C1270 0.961 . S
H1257 C1271 0.960 . S
H1258 C1271 0.961 . S
H1259 C1271 0.959 . S
H1260 C1274 0.929 . S
H1261 C1275 0.931 . S
H1262 C1277 0.930 . S
C1263 H1251 0.930 . S
C1263 C1264 1.399 . S
C1263 C1268 1.399 . S
C1264 C1263 1.399 . S
C1264 C1265 1.376 . S
C1265 H1252 0.930 . S
C1265 C1264 1.376 . S
C1265 C1266 1.388 . S
C1266 H1253 0.930 . S
C1266 C1265 1.388 . S
C1266 C1267 1.390 . S
C1267 C1266 1.390 . S
C1267 C1268 1.394 . S
C1267 C1273 1.465 . S
C1268 C1263 1.399 . S
C1268 C1267 1.394 . S
C1268 C1269 1.516 . S
C1269 C1268 1.516 . S
C1269 C1270 1.502 . S
C1269 C1271 1.561 . S
C1269 C1272 1.526 . S
C1270 H1254 0.959 . S
C1270 H1255 0.959 . S
C1270 H1256 0.961 . S
C1270 C1269 1.502 . S
C1271 H1257 0.960 . S
C1271 H1258 0.961 . S
C1271 H1259 0.959 . S
C1271 C1269 1.561 . S
C1272 C1269 1.526 . S
C1272 C1273 1.396 . S
C1272 C1277 1.390 . S
C1273 C1267 1.465 . S
C1273 C1272 1.396 . S
C1273 C1274 1.399 . S
C1274 H1260 0.929 . S
C1274 C1273 1.399 . S
C1274 C1275 1.385 . S
C1275 H1261 0.931 . S
C1275 C1274 1.385 . S
C1275 C1276 1.389 . S
C1276 C1275 1.389 . S
C1276 C1277 1.387 . S
C1277 H1262 0.930 . S
C1277 C1272 1.390 . S
C1277 C1276 1.387 . S
H1278 C1290 0.930 . S
H1279 C1292 0.930 . S
H1280 C1293 0.930 . S
H1281 C1297 0.959 . S
H1282 C1297 0.959 . S
H1283 C1297 0.961 . S
H1284 C1298 0.960 . S
H1285 C1298 0.961 . S
H1286 C1298 0.959 . S
H1287 C1301 0.929 . S
H1288 C1302 0.931 . S
H1289 C1304 0.930 . S
C1290 H1278 0.930 . S
C1290 C1291 1.399 . S
C1290 C1295 1.399 . S
C1291 C1290 1.399 . S
C1291 C1292 1.376 . S
C1292 H1279 0.930 . S
C1292 C1291 1.376 . S
C1292 C1293 1.388 . S
C1293 H1280 0.930 . S
C1293 C1292 1.388 . S
C1293 C1294 1.390 . S
C1294 C1293 1.390 . S
C1294 C1295 1.394 . S
C1294 C1300 1.465 . S
C1295 C1290 1.399 . S
C1295 C1294 1.394 . S
C1295 C1296 1.516 . S
C1296 C1295 1.516 . S
C1296 C1297 1.502 . S
C1296 C1298 1.561 . S
C1296 C1299 1.526 . S
C1297 H1281 0.959 . S
C1297 H1282 0.959 . S
C1297 H1283 0.961 . S
C1297 C1296 1.502 . S
C1298 H1284 0.960 . S
C1298 H1285 0.961 . S
C1298 H1286 0.959 . S
C1298 C1296 1.561 . S
C1299 C1296 1.526 . S
C1299 C1300 1.396 . S
C1299 C1304 1.390 . S
C1300 C1294 1.465 . S
C1300 C1299 1.396 . S
C1300 C1301 1.399 . S
C1301 H1287 0.929 . S
C1301 C1300 1.399 . S
C1301 C1302 1.385 . S
C1302 H1288 0.931 . S
C1302 C1301 1.385 . S
C1302 C1303 1.389 . S
C1303 C1302 1.389 . S
C1303 C1304 1.387 . S
C1304 H1289 0.930 . S
C1304 C1299 1.390 . S
C1304 C1303 1.387 . S
H1305 C1317 0.930 . S
H1306 C1319 0.930 . S
H1307 C1320 0.930 . S
H1308 C1324 0.959 . S
H1309 C1324 0.959 . S
H1310 C1324 0.961 . S
H1311 C1325 0.960 . S
H1312 C1325 0.961 . S
H1313 C1325 0.959 . S
H1314 C1328 0.929 . S
H1315 C1329 0.931 . S
H1316 C1331 0.930 . S
C1317 H1305 0.930 . S
C1317 C1318 1.399 . S
C1317 C1322 1.399 . S
C1318 C1317 1.399 . S
C1318 C1319 1.376 . S
C1319 H1306 0.930 . S
C1319 C1318 1.376 . S
C1319 C1320 1.388 . S
C1320 H1307 0.930 . S
C1320 C1319 1.388 . S
C1320 C1321 1.390 . S
C1321 C1320 1.390 . S
C1321 C1322 1.394 . S
C1321 C1327 1.465 . S
C1322 C1317 1.399 . S
C1322 C1321 1.394 . S
C1322 C1323 1.516 . S
C1323 C1322 1.516 . S
C1323 C1324 1.502 . S
C1323 C1325 1.561 . S
C1323 C1326 1.526 . S
C1324 H1308 0.959 . S
C1324 H1309 0.959 . S
C1324 H1310 0.961 . S
C1324 C1323 1.502 . S
C1325 H1311 0.960 . S
C1325 H1312 0.961 . S
C1325 H1313 0.959 . S
C1325 C1323 1.561 . S
C1326 C1323 1.526 . S
C1326 C1327 1.396 . S
C1326 C1331 1.390 . S
C1327 C1321 1.465 . S
C1327 C1326 1.396 . S
C1327 C1328 1.399 . S
C1328 H1314 0.929 . S
C1328 C1327 1.399 . S
C1328 C1329 1.385 . S
C1329 H1315 0.931 . S
C1329 C1328 1.385 . S
C1329 C1330 1.389 . S
C1330 C1329 1.389 . S
C1330 C1331 1.387 . S
C1331 H1316 0.930 . S
C1331 C1326 1.390 . S
C1331 C1330 1.387 . S
H1332 C1344 0.930 . S
H1333 C1346 0.930 . S
H1334 C1347 0.930 . S
H1335 C1351 0.959 . S
H1336 C1351 0.959 . S
H1337 C1351 0.961 . S
H1338 C1352 0.960 . S
H1339 C1352 0.961 . S
H1340 C1352 0.959 . S
H1341 C1355 0.929 . S
H1342 C1356 0.931 . S
H1343 C1358 0.930 . S
C1344 H1332 0.930 . S
C1344 C1345 1.399 . S
C1344 C1349 1.399 . S
C1345 C1344 1.399 . S
C1345 C1346 1.376 . S
C1346 H1333 0.930 . S
C1346 C1345 1.376 . S
C1346 C1347 1.388 . S
C1347 H1334 0.930 . S
C1347 C1346 1.388 . S
C1347 C1348 1.390 . S
C1348 C1347 1.390 . S
C1348 C1349 1.394 . S
C1348 C1354 1.465 . S
C1349 C1344 1.399 . S
C1349 C1348 1.394 . S
C1349 C1350 1.516 . S
C1350 C1349 1.516 . S
C1350 C1351 1.502 . S
C1350 C1352 1.561 . S
C1350 C1353 1.526 . S
C1351 H1335 0.959 . S
C1351 H1336 0.959 . S
C1351 H1337 0.961 . S
C1351 C1350 1.502 . S
C1352 H1338 0.960 . S
C1352 H1339 0.961 . S
C1352 H1340 0.959 . S
C1352 C1350 1.561 . S
C1353 C1350 1.526 . S
C1353 C1354 1.396 . S
C1353 C1358 1.390 . S
C1354 C1348 1.465 . S
C1354 C1353 1.396 . S
C1354 C1355 1.399 . S
C1355 H1341 0.929 . S
C1355 C1354 1.399 . S
C1355 C1356 1.385 . S
C1356 H1342 0.931 . S
C1356 C1355 1.385 . S
C1356 C1357 1.389 . S
C1357 C1356 1.389 . S
C1357 C1358 1.387 . S
C1358 H1343 0.930 . S
C1358 C1353 1.390 . S
C1358 C1357 1.387 . S
H1359 C1371 0.930 . S
H1360 C1373 0.930 . S
H1361 C1374 0.930 . S
H1362 C1378 0.959 . S
H1363 C1378 0.959 . S
H1364 C1378 0.961 . S
H1365 C1379 0.960 . S
H1366 C1379 0.961 . S
H1367 C1379 0.959 . S
H1368 C1382 0.929 . S
H1369 C1383 0.931 . S
H1370 C1385 0.930 . S
C1371 H1359 0.930 . S
C1371 C1372 1.399 . S
C1371 C1376 1.399 . S
C1372 C1371 1.399 . S
C1372 C1373 1.376 . S
C1373 H1360 0.930 . S
C1373 C1372 1.376 . S
C1373 C1374 1.388 . S
C1374 H1361 0.930 . S
C1374 C1373 1.388 . S
C1374 C1375 1.390 . S
C1375 C1374 1.390 . S
C1375 C1376 1.394 . S
C1375 C1381 1.465 . S
C1376 C1371 1.399 . S
C1376 C1375 1.394 . S
C1376 C1377 1.516 . S
C1377 C1376 1.516 . S
C1377 C1378 1.502 . S
C1377 C1379 1.561 . S
C1377 C1380 1.526 . S
C1378 H1362 0.959 . S
C1378 H1363 0.959 . S
C1378 H1364 0.961 . S
C1378 C1377 1.502 . S
C1379 H1365 0.960 . S
C1379 H1366 0.961 . S
C1379 H1367 0.959 . S
C1379 C1377 1.561 . S
C1380 C1377 1.526 . S
C1380 C1381 1.396 . S
C1380 C1385 1.390 1_556 S
C1381 C1375 1.465 . S
C1381 C1380 1.396 . S
C1381 C1382 1.399 1_556 S
C1382 H1368 0.929 . S
C1382 C1381 1.399 1_554 S
C1382 C1383 1.385 . S
C1383 H1369 0.931 . S
C1383 C1382 1.385 . S
C1383 C1384 1.389 . S
C1384 C1383 1.389 . S
C1384 C1385 1.387 . S
C1385 H1370 0.930 . S
C1385 C1380 1.390 1_554 S
C1385 C1384 1.387 . S
H1386 C1398 0.929 . S
H1387 C1400 0.930 . S
H1388 C1401 0.930 . S
H1389 C1405 0.959 . S
H1390 C1405 0.959 . S
H1391 C1405 0.961 . S
H1392 C1406 0.960 . S
H1393 C1406 0.961 . S
H1394 C1406 0.959 . S
H1395 C1409 0.929 . S
H1396 C1410 0.931 . S
H1397 C1412 0.930 . S
C1398 H1386 0.929 . S
C1398 C1399 1.399 . S
C1398 C1403 1.399 1_554 S
C1399 C1398 1.399 . S
C1399 C1400 1.376 . S
C1400 H1387 0.930 . S
C1400 C1399 1.376 . S
C1400 C1401 1.388 . S
C1401 H1388 0.930 . S
C1401 C1400 1.388 . S
C1401 C1402 1.390 1_554 S
C1402 C1401 1.390 1_556 S
C1402 C1403 1.394 . S
C1402 C1408 1.465 . S
C1403 C1398 1.399 1_556 S
C1403 C1402 1.394 . S
C1403 C1404 1.516 . S
C1404 C1403 1.516 . S
C1404 C1405 1.502 . S
C1404 C1406 1.561 . S
C1404 C1407 1.526 . S
C1405 H1389 0.959 . S
C1405 H1390 0.959 . S
C1405 H1391 0.961 . S
C1405 C1404 1.502 . S
C1406 H1392 0.960 . S
C1406 H1393 0.961 . S
C1406 H1394 0.959 . S
C1406 C1404 1.561 . S
C1407 C1404 1.526 . S
C1407 C1408 1.396 . S
C1407 C1412 1.390 . S
C1408 C1402 1.465 . S
C1408 C1407 1.396 . S
C1408 C1409 1.399 . S
C1409 H1395 0.929 . S
C1409 C1408 1.399 . S
C1409 C1410 1.385 . S
C1410 H1396 0.931 . S
C1410 C1409 1.385 . S
C1410 C1411 1.389 . S
C1411 C1410 1.389 . S
C1411 C1412 1.387 . S
C1412 H1397 0.930 . S
C1412 C1407 1.390 . S
C1412 C1411 1.387 . S
H1413 C1425 0.930 . S
H1414 C1427 0.930 . S
H1415 C1428 0.930 . S
H1416 C1432 0.959 1_554 S
H1417 C1432 0.959 1_554 S
H1418 C1432 0.961 . S
H1419 C1433 0.960 . S
H1420 C1433 0.961 . S
H1421 C1433 0.959 . S
H1422 C1436 0.929 . S
H1423 C1437 0.931 . S
H1424 C1439 0.930 . S
C1425 H1413 0.930 . S
C1425 C1426 1.399 . S
C1425 C1430 1.399 . S
C1426 C1425 1.399 . S
C1426 C1427 1.376 . S
C1427 H1414 0.930 . S
C1427 C1426 1.376 . S
C1427 C1428 1.388 . S
C1428 H1415 0.930 . S
C1428 C1427 1.388 . S
C1428 C1429 1.390 . S
C1429 C1428 1.390 . S
C1429 C1430 1.394 . S
C1429 C1435 1.465 . S
C1430 C1425 1.399 . S
C1430 C1429 1.394 . S
C1430 C1431 1.516 . S
C1431 C1430 1.516 . S
C1431 C1432 1.502 . S
C1431 C1433 1.561 . S
C1431 C1434 1.526 . S
C1432 H1416 0.959 1_556 S
C1432 H1417 0.959 1_556 S
C1432 H1418 0.961 . S
C1432 C1431 1.502 . S
C1433 H1419 0.960 . S
C1433 H1420 0.961 . S
C1433 H1421 0.959 . S
C1433 C1431 1.561 . S
C1434 C1431 1.526 . S
C1434 C1435 1.396 . S
C1434 C1439 1.390 1_556 S
C1435 C1429 1.465 . S
C1435 C1434 1.396 . S
C1435 C1436 1.399 . S
C1436 H1422 0.929 . S
C1436 C1435 1.399 . S
C1436 C1437 1.385 1_556 S
C1437 H1423 0.931 . S
C1437 C1436 1.385 1_554 S
C1437 C1438 1.389 . S
C1438 C1437 1.389 . S
C1438 C1439 1.387 . S
C1439 H1424 0.930 . S
C1439 C1434 1.390 1_554 S
C1439 C1438 1.387 . S
H1440 C1452 0.930 . S
H1441 C1454 0.930 . S
H1442 C1455 0.930 . S
H1443 C1459 0.959 . S
H1444 C1459 0.959 . S
H1445 C1459 0.961 . S
H1446 C1460 0.960 . S
H1447 C1460 0.961 . S
H1448 C1460 0.959 . S
H1449 C1463 0.929 . S
H1450 C1464 0.931 . S
H1451 C1466 0.930 . S
C1452 H1440 0.930 . S
C1452 C1453 1.399 . S
C1452 C1457 1.399 . S
C1453 C1452 1.399 . S
C1453 C1454 1.376 . S
C1454 H1441 0.930 . S
C1454 C1453 1.376 . S
C1454 C1455 1.388 . S
C1455 H1442 0.930 . S
C1455 C1454 1.388 . S
C1455 C1456 1.390 . S
C1456 C1455 1.390 . S
C1456 C1457 1.394 . S
C1456 C1462 1.465 . S
C1457 C1452 1.399 . S
C1457 C1456 1.394 . S
C1457 C1458 1.516 . S
C1458 C1457 1.516 . S
C1458 C1459 1.502 . S
C1458 C1460 1.561 . S
C1458 C1461 1.526 . S
C1459 H1443 0.959 . S
C1459 H1444 0.959 . S
C1459 H1445 0.961 . S
C1459 C1458 1.502 . S
C1460 H1446 0.960 . S
C1460 H1447 0.961 . S
C1460 H1448 0.959 . S
C1460 C1458 1.561 . S
C1461 C1458 1.526 . S
C1461 C1462 1.396 . S
C1461 C1466 1.390 . S
C1462 C1456 1.465 . S
C1462 C1461 1.396 . S
C1462 C1463 1.399 . S
C1463 H1449 0.929 . S
C1463 C1462 1.399 . S
C1463 C1464 1.385 . S
C1464 H1450 0.931 . S
C1464 C1463 1.385 . S
C1464 C1465 1.389 . S
C1465 C1464 1.389 . S
C1465 C1466 1.387 . S
C1466 H1451 0.930 . S
C1466 C1461 1.390 . S
C1466 C1465 1.387 . S
H1467 C1479 0.930 . S
H1468 C1481 0.930 . S
H1469 C1482 0.930 . S
H1470 C1486 0.959 . S
H1471 C1486 0.959 . S
H1472 C1486 0.961 . S
H1473 C1487 0.960 . S
H1474 C1487 0.961 . S
H1475 C1487 0.959 . S
H1476 C1490 0.929 . S
H1477 C1491 0.931 . S
H1478 C1493 0.930 . S
C1479 H1467 0.930 . S
C1479 C1480 1.399 . S
C1479 C1484 1.399 . S
C1480 C1479 1.399 . S
C1480 C1481 1.376 . S
C1481 H1468 0.930 . S
C1481 C1480 1.376 . S
C1481 C1482 1.388 . S
C1482 H1469 0.930 . S
C1482 C1481 1.388 . S
C1482 C1483 1.390 . S
C1483 C1482 1.390 . S
C1483 C1484 1.394 . S
C1483 C1489 1.465 . S
C1484 C1479 1.399 . S
C1484 C1483 1.394 . S
C1484 C1485 1.516 . S
C1485 C1484 1.516 . S
C1485 C1486 1.502 . S
C1485 C1487 1.561 . S
C1485 C1488 1.526 . S
C1486 H1470 0.959 . S
C1486 H1471 0.959 . S
C1486 H1472 0.961 . S
C1486 C1485 1.502 . S
C1487 H1473 0.960 . S
C1487 H1474 0.961 . S
C1487 H1475 0.959 . S
C1487 C1485 1.561 . S
C1488 C1485 1.526 . S
C1488 C1489 1.396 . S
C1488 C1493 1.390 . S
C1489 C1483 1.465 . S
C1489 C1488 1.396 . S
C1489 C1490 1.399 . S
C1490 H1476 0.929 . S
C1490 C1489 1.399 . S
C1490 C1491 1.385 . S
C1491 H1477 0.931 . S
C1491 C1490 1.385 . S
C1491 C1492 1.389 . S
C1492 C1491 1.389 . S
C1492 C1493 1.387 . S
C1493 H1478 0.930 . S
C1493 C1488 1.390 . S
C1493 C1492 1.387 . S
H1494 C1506 0.930 . S
H1495 C1508 0.930 . S
H1496 C1509 0.930 . S
H1497 C1513 0.959 . S
H1498 C1513 0.959 . S
H1499 C1513 0.961 . S
H1500 C1514 0.960 . S
H1501 C1514 0.961 . S
H1502 C1514 0.959 . S
H1503 C1517 0.929 . S
H1504 C1518 0.931 . S
H1505 C1520 0.930 . S
C1506 H1494 0.930 . S
C1506 C1507 1.399 . S
C1506 C1511 1.399 . S
C1507 C1506 1.399 . S
C1507 C1508 1.376 . S
C1508 H1495 0.930 . S
C1508 C1507 1.376 . S
C1508 C1509 1.388 . S
C1509 H1496 0.930 . S
C1509 C1508 1.388 . S
C1509 C1510 1.390 . S
C1510 C1509 1.390 . S
C1510 C1511 1.394 . S
C1510 C1516 1.465 . S
C1511 C1506 1.399 . S
C1511 C1510 1.394 . S
C1511 C1512 1.516 . S
C1512 C1511 1.516 . S
C1512 C1513 1.502 . S
C1512 C1514 1.561 . S
C1512 C1515 1.526 . S
C1513 H1497 0.959 . S
C1513 H1498 0.959 . S
C1513 H1499 0.961 . S
C1513 C1512 1.502 . S
C1514 H1500 0.960 . S
C1514 H1501 0.961 . S
C1514 H1502 0.959 . S
C1514 C1512 1.561 . S
C1515 C1512 1.526 . S
C1515 C1516 1.396 . S
C1515 C1520 1.390 . S
C1516 C1510 1.465 . S
C1516 C1515 1.396 . S
C1516 C1517 1.399 . S
C1517 H1503 0.929 . S
C1517 C1516 1.399 . S
C1517 C1518 1.385 . S
C1518 H1504 0.931 . S
C1518 C1517 1.385 . S
C1518 C1519 1.389 . S
C1519 C1518 1.389 . S
C1519 C1520 1.387 . S
C1520 H1505 0.930 . S
C1520 C1515 1.390 . S
C1520 C1519 1.387 . S
H1521 C1533 0.930 . S
H1522 C1535 0.930 . S
H1523 C1536 0.930 . S
H1524 C1540 0.959 . S
H1525 C1540 0.959 . S
H1526 C1540 0.961 . S
H1527 C1541 0.960 . S
H1528 C1541 0.961 . S
H1529 C1541 0.959 . S
H1530 C1544 0.929 . S
H1531 C1545 0.931 . S
H1532 C1547 0.930 . S
C1533 H1521 0.930 . S
C1533 C1534 1.399 . S
C1533 C1538 1.399 . S
C1534 C1533 1.399 . S
C1534 C1535 1.376 . S
C1535 H1522 0.930 . S
C1535 C1534 1.376 . S
C1535 C1536 1.388 . S
C1536 H1523 0.930 . S
C1536 C1535 1.388 . S
C1536 C1537 1.390 . S
C1537 C1536 1.390 . S
C1537 C1538 1.394 . S
C1537 C1543 1.465 . S
C1538 C1533 1.399 . S
C1538 C1537 1.394 . S
C1538 C1539 1.516 . S
C1539 C1538 1.516 . S
C1539 C1540 1.502 . S
C1539 C1541 1.561 . S
C1539 C1542 1.526 . S
C1540 H1524 0.959 . S
C1540 H1525 0.959 . S
C1540 H1526 0.961 . S
C1540 C1539 1.502 . S
C1541 H1527 0.960 . S
C1541 H1528 0.961 . S
C1541 H1529 0.959 . S
C1541 C1539 1.561 . S
C1542 C1539 1.526 . S
C1542 C1543 1.396 . S
C1542 C1547 1.390 . S
C1543 C1537 1.465 . S
C1543 C1542 1.396 . S
C1543 C1544 1.399 . S
C1544 H1530 0.929 . S
C1544 C1543 1.399 . S
C1544 C1545 1.385 . S
C1545 H1531 0.931 . S
C1545 C1544 1.385 . S
C1545 C1546 1.389 . S
C1546 C1545 1.389 . S
C1546 C1547 1.387 . S
C1547 H1532 0.930 . S
C1547 C1542 1.390 . S
C1547 C1546 1.387 . S
H1548 C1560 0.930 . S
H1549 C1562 0.930 . S
H1550 C1563 0.930 . S
H1551 C1567 0.959 . S
H1552 C1567 0.959 . S
H1553 C1567 0.961 . S
H1554 C1568 0.960 . S
H1555 C1568 0.961 . S
H1556 C1568 0.959 . S
H1557 C1571 0.929 . S
H1558 C1572 0.931 . S
H1559 C1574 0.930 . S
C1560 H1548 0.930 . S
C1560 C1561 1.399 . S
C1560 C1565 1.399 . S
C1561 C1560 1.399 . S
C1561 C1562 1.376 . S
C1562 H1549 0.930 . S
C1562 C1561 1.376 . S
C1562 C1563 1.388 . S
C1563 H1550 0.930 . S
C1563 C1562 1.388 . S
C1563 C1564 1.390 . S
C1564 C1563 1.390 . S
C1564 C1565 1.394 . S
C1564 C1570 1.465 . S
C1565 C1560 1.399 . S
C1565 C1564 1.394 . S
C1565 C1566 1.516 . S
C1566 C1565 1.516 . S
C1566 C1567 1.502 . S
C1566 C1568 1.561 . S
C1566 C1569 1.526 . S
C1567 H1551 0.959 . S
C1567 H1552 0.959 . S
C1567 H1553 0.961 . S
C1567 C1566 1.502 . S
C1568 H1554 0.960 . S
C1568 H1555 0.961 . S
C1568 H1556 0.959 . S
C1568 C1566 1.561 . S
C1569 C1566 1.526 . S
C1569 C1570 1.396 . S
C1569 C1574 1.390 . S
C1570 C1564 1.465 . S
C1570 C1569 1.396 . S
C1570 C1571 1.399 . S
C1571 H1557 0.929 . S
C1571 C1570 1.399 . S
C1571 C1572 1.385 . S
C1572 H1558 0.931 . S
C1572 C1571 1.385 . S
C1572 C1573 1.389 . S
C1573 C1572 1.389 . S
C1573 C1574 1.387 . S
C1574 H1559 0.930 . S
C1574 C1569 1.390 . S
C1574 C1573 1.387 . S
H1575 C1587 0.930 . S
H1576 C1589 0.930 . S
H1577 C1590 0.930 . S
H1578 C1594 0.959 . S
H1579 C1594 0.959 . S
H1580 C1594 0.961 . S
H1581 C1595 0.960 . S
H1582 C1595 0.961 . S
H1583 C1595 0.959 . S
H1584 C1598 0.929 . S
H1585 C1599 0.931 . S
H1586 C1601 0.930 . S
C1587 H1575 0.930 . S
C1587 C1588 1.399 . S
C1587 C1592 1.399 . S
C1588 C1587 1.399 . S
C1588 C1589 1.376 . S
C1589 H1576 0.930 . S
C1589 C1588 1.376 . S
C1589 C1590 1.388 . S
C1590 H1577 0.930 . S
C1590 C1589 1.388 . S
C1590 C1591 1.390 . S
C1591 C1590 1.390 . S
C1591 C1592 1.394 . S
C1591 C1597 1.465 . S
C1592 C1587 1.399 . S
C1592 C1591 1.394 . S
C1592 C1593 1.516 . S
C1593 C1592 1.516 . S
C1593 C1594 1.502 . S
C1593 C1595 1.561 . S
C1593 C1596 1.526 . S
C1594 H1578 0.959 . S
C1594 H1579 0.959 . S
C1594 H1580 0.961 . S
C1594 C1593 1.502 . S
C1595 H1581 0.960 . S
C1595 H1582 0.961 . S
C1595 H1583 0.959 . S
C1595 C1593 1.561 . S
C1596 C1593 1.526 . S
C1596 C1597 1.396 . S
C1596 C1601 1.390 . S
C1597 C1591 1.465 . S
C1597 C1596 1.396 . S
C1597 C1598 1.399 . S
C1598 H1584 0.929 . S
C1598 C1597 1.399 . S
C1598 C1599 1.385 . S
C1599 H1585 0.931 . S
C1599 C1598 1.385 . S
C1599 C1600 1.389 . S
C1600 C1599 1.389 . S
C1600 C1601 1.387 . S
C1601 H1586 0.930 . S
C1601 C1596 1.390 . S
C1601 C1600 1.387 . S
H1602 C1614 0.930 . S
H1603 C1616 0.930 . S
H1604 C1617 0.930 . S
H1605 C1621 0.959 . S
H1606 C1621 0.959 . S
H1607 C1621 0.961 . S
H1608 C1622 0.960 . S
H1609 C1622 0.961 . S
H1610 C1622 0.959 . S
H1611 C1625 0.929 . S
H1612 C1626 0.931 . S
H1613 C1628 0.930 . S
C1614 H1602 0.930 . S
C1614 C1615 1.399 . S
C1614 C1619 1.399 . S
C1615 C1614 1.399 . S
C1615 C1616 1.376 . S
C1616 H1603 0.930 . S
C1616 C1615 1.376 . S
C1616 C1617 1.388 . S
C1617 H1604 0.930 . S
C1617 C1616 1.388 . S
C1617 C1618 1.390 . S
C1618 C1617 1.390 . S
C1618 C1619 1.394 . S
C1618 C1624 1.465 . S
C1619 C1614 1.399 . S
C1619 C1618 1.394 . S
C1619 C1620 1.516 . S
C1620 C1619 1.516 . S
C1620 C1621 1.502 . S
C1620 C1622 1.561 . S
C1620 C1623 1.526 . S
C1621 H1605 0.959 . S
C1621 H1606 0.959 . S
C1621 H1607 0.961 . S
C1621 C1620 1.502 . S
C1622 H1608 0.960 . S
C1622 H1609 0.961 . S
C1622 H1610 0.959 . S
C1622 C1620 1.561 . S
C1623 C1620 1.526 . S
C1623 C1624 1.396 . S
C1623 C1628 1.390 . S
C1624 C1618 1.465 . S
C1624 C1623 1.396 . S
C1624 C1625 1.399 . S
C1625 H1611 0.929 . S
C1625 C1624 1.399 . S
C1625 C1626 1.385 . S
C1626 H1612 0.931 . S
C1626 C1625 1.385 . S
C1626 C1627 1.389 . S
C1627 C1626 1.389 . S
C1627 C1628 1.387 . S
C1628 H1613 0.930 . S
C1628 C1623 1.390 . S
C1628 C1627 1.387 . S
H1629 C1641 0.930 . S
H1630 C1643 0.930 . S
H1631 C1644 0.930 . S
H1632 C1648 0.959 . S
H1633 C1648 0.959 . S
H1634 C1648 0.961 . S
H1635 C1649 0.960 . S
H1636 C1649 0.961 . S
H1637 C1649 0.959 . S
H1638 C1652 0.929 . S
H1639 C1653 0.931 . S
H1640 C1655 0.930 . S
C1641 H1629 0.930 . S
C1641 C1642 1.399 . S
C1641 C1646 1.399 . S
C1642 C1641 1.399 . S
C1642 C1643 1.376 . S
C1643 H1630 0.930 . S
C1643 C1642 1.376 . S
C1643 C1644 1.388 . S
C1644 H1631 0.930 . S
C1644 C1643 1.388 . S
C1644 C1645 1.390 . S
C1645 C1644 1.390 . S
C1645 C1646 1.394 . S
C1645 C1651 1.465 . S
C1646 C1641 1.399 . S
C1646 C1645 1.394 . S
C1646 C1647 1.516 . S
C1647 C1646 1.516 . S
C1647 C1648 1.502 . S
C1647 C1649 1.561 . S
C1647 C1650 1.526 . S
C1648 H1632 0.959 . S
C1648 H1633 0.959 . S
C1648 H1634 0.961 . S
C1648 C1647 1.502 . S
C1649 H1635 0.960 . S
C1649 H1636 0.961 . S
C1649 H1637 0.959 . S
C1649 C1647 1.561 . S
C1650 C1647 1.526 . S
C1650 C1651 1.396 . S
C1650 C1655 1.390 . S
C1651 C1645 1.465 . S
C1651 C1650 1.396 . S
C1651 C1652 1.399 . S
C1652 H1638 0.929 . S
C1652 C1651 1.399 . S
C1652 C1653 1.385 . S
C1653 H1639 0.931 . S
C1653 C1652 1.385 . S
C1653 C1654 1.389 . S
C1654 C1653 1.389 . S
C1654 C1655 1.387 . S
C1655 H1640 0.930 . S
C1655 C1650 1.390 . S
C1655 C1654 1.387 . S
H1656 C1668 0.930 . S
H1657 C1670 0.930 . S
H1658 C1671 0.930 . S
H1659 C1675 0.959 . S
H1660 C1675 0.959 . S
H1661 C1675 0.961 . S
H1662 C1676 0.960 . S
H1663 C1676 0.961 . S
H1664 C1676 0.959 . S
H1665 C1679 0.929 . S
H1666 C1680 0.931 . S
H1667 C1682 0.930 . S
C1668 H1656 0.930 . S
C1668 C1669 1.399 . S
C1668 C1673 1.399 . S
C1669 C1668 1.399 . S
C1669 C1670 1.376 . S
C1670 H1657 0.930 . S
C1670 C1669 1.376 . S
C1670 C1671 1.388 . S
C1671 H1658 0.930 . S
C1671 C1670 1.388 . S
C1671 C1672 1.390 . S
C1672 C1671 1.390 . S
C1672 C1673 1.394 . S
C1672 C1678 1.465 . S
C1673 C1668 1.399 . S
C1673 C1672 1.394 . S
C1673 C1674 1.516 . S
C1674 C1673 1.516 . S
C1674 C1675 1.502 . S
C1674 C1676 1.561 . S
C1674 C1677 1.526 . S
C1675 H1659 0.959 . S
C1675 H1660 0.959 . S
C1675 H1661 0.961 . S
C1675 C1674 1.502 . S
C1676 H1662 0.960 . S
C1676 H1663 0.961 . S
C1676 H1664 0.959 . S
C1676 C1674 1.561 . S
C1677 C1674 1.526 . S
C1677 C1678 1.396 . S
C1677 C1682 1.390 . S
C1678 C1672 1.465 . S
C1678 C1677 1.396 . S
C1678 C1679 1.399 . S
C1679 H1665 0.929 . S
C1679 C1678 1.399 . S
C1679 C1680 1.385 . S
C1680 H1666 0.931 . S
C1680 C1679 1.385 . S
C1680 C1681 1.389 . S
C1681 C1680 1.389 . S
C1681 C1682 1.387 . S
C1682 H1667 0.930 . S
C1682 C1677 1.390 . S
C1682 C1681 1.387 . S
H1683 C1695 0.930 . S
H1684 C1697 0.930 . S
H1685 C1698 0.930 . S
H1686 C1702 0.959 . S
H1687 C1702 0.959 . S
H1688 C1702 0.961 . S
H1689 C1703 0.960 . S
H1690 C1703 0.961 . S
H1691 C1703 0.959 . S
H1692 C1706 0.929 . S
H1693 C1707 0.931 . S
H1694 C1709 0.930 . S
C1695 H1683 0.930 . S
C1695 C1696 1.399 . S
C1695 C1700 1.399 . S
C1696 C1695 1.399 . S
C1696 C1697 1.376 . S
C1697 H1684 0.930 . S
C1697 C1696 1.376 . S
C1697 C1698 1.388 . S
C1698 H1685 0.930 . S
C1698 C1697 1.388 . S
C1698 C1699 1.390 . S
C1699 C1698 1.390 . S
C1699 C1700 1.394 . S
C1699 C1705 1.465 . S
C1700 C1695 1.399 . S
C1700 C1699 1.394 . S
C1700 C1701 1.516 . S
C1701 C1700 1.516 . S
C1701 C1702 1.502 . S
C1701 C1703 1.561 . S
C1701 C1704 1.526 . S
C1702 H1686 0.959 . S
C1702 H1687 0.959 . S
C1702 H1688 0.961 . S
C1702 C1701 1.502 . S
C1703 H1689 0.960 . S
C1703 H1690 0.961 . S
C1703 H1691 0.959 . S
C1703 C1701 1.561 . S
C1704 C1701 1.526 . S
C1704 C1705 1.396 . S
C1704 C1709 1.390 . S
C1705 C1699 1.465 . S
C1705 C1704 1.396 . S
C1705 C1706 1.399 . S
C1706 H1692 0.929 . S
C1706 C1705 1.399 . S
C1706 C1707 1.385 . S
C1707 H1693 0.931 . S
C1707 C1706 1.385 . S
C1707 C1708 1.389 . S
C1708 C1707 1.389 . S
C1708 C1709 1.387 . S
C1709 H1694 0.930 . S
C1709 C1704 1.390 . S
C1709 C1708 1.387 . S
H1710 C1722 0.930 . S
H1711 C1724 0.930 . S
H1712 C1725 0.930 . S
H1713 C1729 0.959 . S
H1714 C1729 0.959 . S
H1715 C1729 0.961 . S
H1716 C1730 0.960 . S
H1717 C1730 0.961 . S
H1718 C1730 0.959 . S
H1719 C1733 0.929 . S
H1720 C1734 0.931 . S
H1721 C1736 0.930 . S
C1722 H1710 0.930 . S
C1722 C1723 1.399 . S
C1722 C1727 1.399 . S
C1723 C1722 1.399 . S
C1723 C1724 1.376 . S
C1724 H1711 0.930 . S
C1724 C1723 1.376 . S
C1724 C1725 1.388 . S
C1725 H1712 0.930 . S
C1725 C1724 1.388 . S
C1725 C1726 1.390 . S
C1726 C1725 1.390 . S
C1726 C1727 1.394 . S
C1726 C1732 1.465 . S
C1727 C1722 1.399 . S
C1727 C1726 1.394 . S
C1727 C1728 1.516 . S
C1728 C1727 1.516 . S
C1728 C1729 1.502 . S
C1728 C1730 1.561 . S
C1728 C1731 1.526 . S
C1729 H1713 0.959 . S
C1729 H1714 0.959 . S
C1729 H1715 0.961 . S
C1729 C1728 1.502 . S
C1730 H1716 0.960 . S
C1730 H1717 0.961 . S
C1730 H1718 0.959 . S
C1730 C1728 1.561 . S
C1731 C1728 1.526 . S
C1731 C1732 1.396 . S
C1731 C1736 1.390 . S
C1732 C1726 1.465 . S
C1732 C1731 1.396 . S
C1732 C1733 1.399 . S
C1733 H1719 0.929 . S
C1733 C1732 1.399 . S
C1733 C1734 1.385 . S
C1734 H1720 0.931 . S
C1734 C1733 1.385 . S
C1734 C1735 1.389 . S
C1735 C1734 1.389 . S
C1735 C1736 1.387 . S
C1736 H1721 0.930 . S
C1736 C1731 1.390 . S
C1736 C1735 1.387 . S
H1737 C1749 0.930 . S
H1738 C1751 0.930 . S
H1739 C1752 0.930 . S
H1740 C1756 0.959 . S
H1741 C1756 0.959 . S
H1742 C1756 0.961 . S
H1743 C1757 0.960 . S
H1744 C1757 0.961 . S
H1745 C1757 0.959 . S
H1746 C1760 0.929 . S
H1747 C1761 0.931 . S
H1748 C1763 0.930 . S
C1749 H1737 0.930 . S
C1749 C1750 1.399 . S
C1749 C1754 1.399 . S
C1750 C1749 1.399 . S
C1750 C1751 1.376 . S
C1751 H1738 0.930 . S
C1751 C1750 1.376 . S
C1751 C1752 1.388 . S
C1752 H1739 0.930 . S
C1752 C1751 1.388 . S
C1752 C1753 1.390 . S
C1753 C1752 1.390 . S
C1753 C1754 1.394 . S
C1753 C1759 1.465 . S
C1754 C1749 1.399 . S
C1754 C1753 1.394 . S
C1754 C1755 1.516 . S
C1755 C1754 1.516 . S
C1755 C1756 1.502 . S
C1755 C1757 1.561 . S
C1755 C1758 1.526 . S
C1756 H1740 0.959 . S
C1756 H1741 0.959 . S
C1756 H1742 0.961 . S
C1756 C1755 1.502 . S
C1757 H1743 0.960 . S
C1757 H1744 0.961 . S
C1757 H1745 0.959 . S
C1757 C1755 1.561 . S
C1758 C1755 1.526 . S
C1758 C1759 1.396 . S
C1758 C1763 1.390 . S
C1759 C1753 1.465 . S
C1759 C1758 1.396 . S
C1759 C1760 1.399 . S
C1760 H1746 0.929 . S
C1760 C1759 1.399 . S
C1760 C1761 1.385 . S
C1761 H1747 0.931 . S
C1761 C1760 1.385 . S
C1761 C1762 1.389 . S
C1762 C1761 1.389 . S
C1762 C1763 1.387 . S
C1763 H1748 0.930 . S
C1763 C1758 1.390 . S
C1763 C1762 1.387 . S
H1764 C1776 0.930 . S
H1765 C1778 0.930 . S
H1766 C1779 0.930 . S
H1767 C1783 0.959 . S
H1768 C1783 0.959 . S
H1769 C1783 0.961 . S
H1770 C1784 0.960 . S
H1771 C1784 0.961 . S
H1772 C1784 0.959 . S
H1773 C1787 0.929 . S
H1774 C1788 0.931 . S
H1775 C1790 0.930 . S
C1776 H1764 0.930 . S
C1776 C1777 1.399 . S
C1776 C1781 1.399 . S
C1777 C1776 1.399 . S
C1777 C1778 1.376 . S
C1778 H1765 0.930 . S
C1778 C1777 1.376 . S
C1778 C1779 1.388 . S
C1779 H1766 0.930 . S
C1779 C1778 1.388 . S
C1779 C1780 1.390 . S
C1780 C1779 1.390 . S
C1780 C1781 1.394 . S
C1780 C1786 1.465 . S
C1781 C1776 1.399 . S
C1781 C1780 1.394 . S
C1781 C1782 1.516 . S
C1782 C1781 1.516 . S
C1782 C1783 1.502 . S
C1782 C1784 1.561 . S
C1782 C1785 1.526 . S
C1783 H1767 0.959 . S
C1783 H1768 0.959 . S
C1783 H1769 0.961 . S
C1783 C1782 1.502 . S
C1784 H1770 0.960 . S
C1784 H1771 0.961 . S
C1784 H1772 0.959 . S
C1784 C1782 1.561 . S
C1785 C1782 1.526 . S
C1785 C1786 1.396 . S
C1785 C1790 1.390 . S
C1786 C1780 1.465 . S
C1786 C1785 1.396 . S
C1786 C1787 1.399 . S
C1787 H1773 0.929 . S
C1787 C1786 1.399 . S
C1787 C1788 1.385 . S
C1788 H1774 0.931 . S
C1788 C1787 1.385 . S
C1788 C1789 1.389 . S
C1789 C1788 1.389 . S
C1789 C1790 1.387 . S
C1790 H1775 0.930 . S
C1790 C1785 1.390 . S
C1790 C1789 1.387 . S
H1791 C1803 0.930 . S
H1792 C1805 0.930 . S
H1793 C1806 0.930 . S
H1794 C1810 0.959 . S
H1795 C1810 0.959 . S
H1796 C1810 0.961 . S
H1797 C1811 0.960 . S
H1798 C1811 0.961 . S
H1799 C1811 0.959 . S
H1800 C1814 0.929 . S
H1801 C1815 0.931 . S
H1802 C1817 0.930 . S
C1803 H1791 0.930 . S
C1803 C1804 1.399 . S
C1803 C1808 1.399 . S
C1804 C1803 1.399 . S
C1804 C1805 1.376 . S
C1805 H1792 0.930 . S
C1805 C1804 1.376 . S
C1805 C1806 1.388 . S
C1806 H1793 0.930 . S
C1806 C1805 1.388 . S
C1806 C1807 1.390 . S
C1807 C1806 1.390 . S
C1807 C1808 1.394 . S
C1807 C1813 1.465 . S
C1808 C1803 1.399 . S
C1808 C1807 1.394 . S
C1808 C1809 1.516 . S
C1809 C1808 1.516 . S
C1809 C1810 1.502 . S
C1809 C1811 1.561 . S
C1809 C1812 1.526 . S
C1810 H1794 0.959 . S
C1810 H1795 0.959 . S
C1810 H1796 0.961 . S
C1810 C1809 1.502 . S
C1811 H1797 0.960 . S
C1811 H1798 0.961 . S
C1811 H1799 0.959 . S
C1811 C1809 1.561 . S
C1812 C1809 1.526 . S
C1812 C1813 1.396 . S
C1812 C1817 1.390 . S
C1813 C1807 1.465 . S
C1813 C1812 1.396 . S
C1813 C1814 1.399 . S
C1814 H1800 0.929 . S
C1814 C1813 1.399 . S
C1814 C1815 1.385 . S
C1815 H1801 0.931 . S
C1815 C1814 1.385 . S
C1815 C1816 1.389 . S
C1816 C1815 1.389 . S
C1816 C1817 1.387 . S
C1817 H1802 0.930 . S
C1817 C1812 1.390 . S
C1817 C1816 1.387 . S
H1818 C1830 0.930 . S
H1819 C1832 0.930 . S
H1820 C1833 0.930 . S
H1821 C1837 0.959 . S
H1822 C1837 0.959 . S
H1823 C1837 0.961 . S
H1824 C1838 0.960 . S
H1825 C1838 0.961 . S
H1826 C1838 0.959 . S
H1827 C1841 0.929 . S
H1828 C1842 0.931 . S
H1829 C1844 0.930 . S
C1830 H1818 0.930 . S
C1830 C1831 1.399 . S
C1830 C1835 1.399 . S
C1831 C1830 1.399 . S
C1831 C1832 1.376 . S
C1832 H1819 0.930 . S
C1832 C1831 1.376 . S
C1832 C1833 1.388 . S
C1833 H1820 0.930 . S
C1833 C1832 1.388 . S
C1833 C1834 1.390 . S
C1834 C1833 1.390 . S
C1834 C1835 1.394 . S
C1834 C1840 1.465 . S
C1835 C1830 1.399 . S
C1835 C1834 1.394 . S
C1835 C1836 1.516 . S
C1836 C1835 1.516 . S
C1836 C1837 1.502 . S
C1836 C1838 1.561 . S
C1836 C1839 1.526 . S
C1837 H1821 0.959 . S
C1837 H1822 0.959 . S
C1837 H1823 0.961 . S
C1837 C1836 1.502 . S
C1838 H1824 0.960 . S
C1838 H1825 0.961 . S
C1838 H1826 0.959 . S
C1838 C1836 1.561 . S
C1839 C1836 1.526 . S
C1839 C1840 1.396 . S
C1839 C1844 1.390 . S
C1840 C1834 1.465 . S
C1840 C1839 1.396 . S
C1840 C1841 1.399 . S
C1841 H1827 0.929 . S
C1841 C1840 1.399 . S
C1841 C1842 1.385 . S
C1842 H1828 0.931 . S
C1842 C1841 1.385 . S
C1842 C1843 1.389 . S
C1843 C1842 1.389 . S
C1843 C1844 1.387 . S
C1844 H1829 0.930 . S
C1844 C1839 1.390 . S
C1844 C1843 1.387 . S
H1845 C1857 0.930 1_554 S
H1846 C1859 0.930 . S
H1847 C1860 0.930 . S
H1848 C1864 0.959 . S
H1849 C1864 0.959 . S
H1850 C1864 0.961 . S
H1851 C1865 0.960 . S
H1852 C1865 0.961 . S
H1853 C1865 0.959 . S
H1854 C1868 0.929 . S
H1855 C1869 0.931 . S
H1856 C1871 0.930 . S
C1857 H1845 0.930 1_556 S
C1857 C1858 1.399 . S
C1857 C1862 1.399 1_556 S
C1858 C1857 1.399 . S
C1858 C1859 1.376 . S
C1859 H1846 0.930 . S
C1859 C1858 1.376 . S
C1859 C1860 1.388 . S
C1860 H1847 0.930 . S
C1860 C1859 1.388 . S
C1860 C1861 1.390 1_556 S
C1861 C1860 1.390 1_554 S
C1861 C1862 1.394 . S
C1861 C1867 1.465 . S
C1862 C1857 1.399 1_554 S
C1862 C1861 1.394 . S
C1862 C1863 1.516 . S
C1863 C1862 1.516 . S
C1863 C1864 1.502 . S
C1863 C1865 1.561 . S
C1863 C1866 1.526 . S
C1864 H1848 0.959 . S
C1864 H1849 0.959 . S
C1864 H1850 0.961 . S
C1864 C1863 1.502 . S
C1865 H1851 0.960 . S
C1865 H1852 0.961 . S
C1865 H1853 0.959 . S
C1865 C1863 1.561 . S
C1866 C1863 1.526 . S
C1866 C1867 1.396 . S
C1866 C1871 1.390 . S
C1867 C1861 1.465 . S
C1867 C1866 1.396 . S
C1867 C1868 1.399 . S
C1868 H1854 0.929 . S
C1868 C1867 1.399 . S
C1868 C1869 1.385 . S
C1869 H1855 0.931 . S
C1869 C1868 1.385 . S
C1869 C1870 1.389 . S
C1870 C1869 1.389 . S
C1870 C1871 1.387 . S
C1871 H1856 0.930 . S
C1871 C1866 1.390 . S
C1871 C1870 1.387 . S
H1872 C1884 0.930 . S
H1873 C1886 0.930 . S
H1874 C1887 0.930 . S
H1875 C1891 0.959 . S
H1876 C1891 0.963 . S
H1877 C1891 0.961 . S
H1878 C1892 0.960 1_556 S
H1879 C1892 0.961 . S
H1880 C1892 0.959 . S
H1881 C1895 0.929 . S
H1882 C1896 0.931 . S
H1883 C1898 0.930 . S
C1884 H1872 0.930 . S
C1884 C1885 1.399 . S
C1884 C1889 1.399 1_556 S
C1885 C1884 1.399 . S
C1885 C1886 1.376 . S
C1886 H1873 0.930 . S
C1886 C1885 1.376 . S
C1886 C1887 1.388 1_556 S
C1887 H1874 0.930 . S
C1887 C1886 1.388 1_554 S
C1887 C1888 1.390 . S
C1888 C1887 1.390 . S
C1888 C1889 1.394 . S
C1888 C1894 1.465 . S
C1889 C1884 1.399 1_554 S
C1889 C1888 1.394 . S
C1889 C1890 1.516 . S
C1890 C1889 1.516 . S
C1890 C1891 1.502 1_554 S
C1890 C1892 1.561 . S
C1890 C1893 1.526 . S
C1891 H1875 0.959 . S
C1891 H1876 0.963 . S
C1891 H1877 0.961 . S
C1891 C1890 1.502 1_556 S
C1892 H1878 0.960 1_554 S
C1892 H1879 0.961 . S
C1892 H1880 0.959 . S
C1892 C1890 1.561 . S
C1893 C1890 1.526 . S
C1893 C1894 1.396 . S
C1893 C1898 1.390 . S
C1894 C1888 1.465 . S
C1894 C1893 1.396 . S
C1894 C1895 1.399 . S
C1895 H1881 0.929 . S
C1895 C1894 1.399 . S
C1895 C1896 1.385 . S
C1896 H1882 0.931 . S
C1896 C1895 1.385 . S
C1896 C1897 1.389 . S
C1897 C1896 1.389 . S
C1897 C1898 1.387 . S
C1898 H1883 0.930 . S
C1898 C1893 1.390 . S
C1898 C1897 1.387 . S
H1899 C1911 0.930 . S
H1900 C1913 0.930 . S
H1901 C1914 0.930 . S
H1902 C1918 0.959 . S
H1903 C1918 0.959 1_554 S
H1904 C1918 0.961 . S
H1905 C1919 0.960 . S
H1906 C1919 0.961 . S
H1907 C1919 0.959 . S
H1908 C1922 0.929 . S
H1909 C1923 0.931 . S
H1910 C1925 0.930 . S
C1911 H1899 0.930 . S
C1911 C1912 1.399 . S
C1911 C1916 1.399 1_556 S
C1912 C1911 1.399 . S
C1912 C1913 1.376 . S
C1913 H1900 0.930 . S
C1913 C1912 1.376 . S
C1913 C1914 1.388 1_556 S
C1914 H1901 0.930 . S
C1914 C1913 1.388 1_554 S
C1914 C1915 1.390 . S
C1915 C1914 1.390 . S
C1915 C1916 1.394 . S
C1915 C1921 1.465 . S
C1916 C1911 1.399 1_554 S
C1916 C1915 1.394 . S
C1916 C1917 1.516 . S
C1917 C1916 1.516 . S
C1917 C1918 1.502 1_554 S
C1917 C1919 1.561 . S
C1917 C1920 1.526 . S
C1918 H1902 0.959 . S
C1918 H1903 0.959 1_556 S
C1918 H1904 0.961 . S
C1918 C1917 1.502 1_556 S
C1919 H1905 0.960 . S
C1919 H1906 0.961 . S
C1919 H1907 0.959 . S
C1919 C1917 1.561 . S
C1920 C1917 1.526 . S
C1920 C1921 1.396 . S
C1920 C1925 1.390 . S
C1921 C1915 1.465 . S
C1921 C1920 1.396 . S
C1921 C1922 1.399 . S
C1922 H1908 0.929 . S
C1922 C1921 1.399 . S
C1922 C1923 1.385 . S
C1923 H1909 0.931 . S
C1923 C1922 1.385 . S
C1923 C1924 1.389 . S
C1924 C1923 1.389 . S
C1924 C1925 1.387 . S
C1925 H1910 0.930 . S
C1925 C1920 1.390 . S
C1925 C1924 1.387 . S
H1926 C1938 0.930 . S
H1927 C1940 0.930 . S
H1928 C1941 0.930 . S
H1929 C1945 0.959 . S
H1930 C1945 0.959 . S
H1931 C1945 0.961 . S
H1932 C1946 0.960 . S
H1933 C1946 0.961 . S
H1934 C1946 0.959 . S
H1935 C1949 0.929 . S
H1936 C1950 0.931 . S
H1937 C1952 0.930 . S
C1938 H1926 0.930 . S
C1938 C1939 1.399 . S
C1938 C1943 1.399 . S
C1939 C1938 1.399 . S
C1939 C1940 1.376 1_554 S
C1940 H1927 0.930 . S
C1940 C1939 1.376 1_556 S
C1940 C1941 1.388 . S
C1941 H1928 0.930 . S
C1941 C1940 1.388 . S
C1941 C1942 1.390 1_556 S
C1942 C1941 1.390 1_554 S
C1942 C1943 1.394 . S
C1942 C1948 1.465 . S
C1943 C1938 1.399 . S
C1943 C1942 1.394 . S
C1943 C1944 1.516 . S
C1944 C1943 1.516 . S
C1944 C1945 1.502 . S
C1944 C1946 1.561 . S
C1944 C1947 1.526 . S
C1945 H1929 0.959 . S
C1945 H1930 0.959 . S
C1945 H1931 0.961 . S
C1945 C1944 1.502 . S
C1946 H1932 0.960 . S
C1946 H1933 0.961 . S
C1946 H1934 0.959 . S
C1946 C1944 1.561 . S
C1947 C1944 1.526 . S
C1947 C1948 1.396 . S
C1947 C1952 1.390 . S
C1948 C1942 1.465 . S
C1948 C1947 1.396 . S
C1948 C1949 1.399 . S
C1949 H1935 0.929 . S
C1949 C1948 1.399 . S
C1949 C1950 1.385 . S
C1950 H1936 0.931 . S
C1950 C1949 1.385 . S
C1950 C1951 1.389 . S
C1951 C1950 1.389 . S
C1951 C1952 1.387 . S
C1952 H1937 0.930 . S
C1952 C1947 1.390 . S
C1952 C1951 1.387 . S
H1953 C1965 0.930 . S
H1954 C1967 0.930 . S
H1955 C1968 0.930 . S
H1956 C1972 0.959 . S
H1957 C1972 0.959 . S
H1958 C1972 0.961 . S
H1959 C1973 0.960 . S
H1960 C1973 0.961 . S
H1961 C1973 0.959 . S
H1962 C1976 0.929 . S
H1963 C1977 0.931 . S
H1964 C1979 0.930 . S
C1965 H1953 0.930 . S
C1965 C1966 1.399 . S
C1965 C1970 1.399 . S
C1966 C1965 1.399 . S
C1966 C1967 1.376 . S
C1967 H1954 0.930 . S
C1967 C1966 1.376 . S
C1967 C1968 1.388 . S
C1968 H1955 0.930 . S
C1968 C1967 1.388 . S
C1968 C1969 1.390 . S
C1969 C1968 1.390 . S
C1969 C1970 1.394 . S
C1969 C1975 1.465 . S
C1970 C1965 1.399 . S
C1970 C1969 1.394 . S
C1970 C1971 1.516 . S
C1971 C1970 1.516 . S
C1971 C1972 1.502 . S
C1971 C1973 1.561 1_554 S
C1971 C1974 1.526 . S
C1972 H1956 0.959 . S
C1972 H1957 0.959 . S
C1972 H1958 0.961 . S
C1972 C1971 1.502 . S
C1973 H1959 0.960 . S
C1973 H1960 0.961 . S
C1973 H1961 0.959 . S
C1973 C1971 1.561 1_556 S
C1974 C1971 1.526 . S
C1974 C1975 1.396 . S
C1974 C1979 1.390 . S
C1975 C1969 1.465 . S
C1975 C1974 1.396 . S
C1975 C1976 1.399 . S
C1976 H1962 0.929 . S
C1976 C1975 1.399 . S
C1976 C1977 1.385 . S
C1977 H1963 0.931 . S
C1977 C1976 1.385 . S
C1977 C1978 1.389 . S
C1978 C1977 1.389 . S
C1978 C1979 1.387 . S
C1979 H1964 0.930 . S
C1979 C1974 1.390 . S
C1979 C1978 1.387 . S
H1980 C1992 0.930 . S
H1981 C1994 0.930 . S
H1982 C1995 0.930 1_556 S
H1983 C1999 0.959 . S
H1984 C1999 0.959 . S
H1985 C1999 0.961 . S
H1986 C2000 0.960 . S
H1987 C2000 0.961 . S
H1988 C2000 0.959 . S
H1989 C2003 0.929 . S
H1990 C2004 0.931 . S
H1991 C2006 0.930 . S
C1992 H1980 0.930 . S
C1992 C1993 1.399 . S
C1992 C1997 1.399 . S
C1993 C1992 1.399 . S
C1993 C1994 1.376 1_554 S
C1994 H1981 0.930 . S
C1994 C1993 1.376 1_556 S
C1994 C1995 1.388 1_556 S
C1995 H1982 0.930 1_554 S
C1995 C1994 1.388 1_554 S
C1995 C1996 1.390 . S
C1996 C1995 1.390 . S
C1996 C1997 1.394 . S
C1996 C2002 1.465 . S
C1997 C1992 1.399 . S
C1997 C1996 1.394 . S
C1997 C1998 1.516 . S
C1998 C1997 1.516 . S
C1998 C1999 1.502 . S
C1998 C2000 1.561 . S
C1998 C2001 1.526 . S
C1999 H1983 0.959 . S
C1999 H1984 0.959 . S
C1999 H1985 0.961 . S
C1999 C1998 1.502 . S
C2000 H1986 0.960 . S
C2000 H1987 0.961 . S
C2000 H1988 0.959 . S
C2000 C1998 1.561 . S
C2001 C1998 1.526 . S
C2001 C2002 1.396 . S
C2001 C2006 1.390 . S
C2002 C1996 1.465 . S
C2002 C2001 1.396 . S
C2002 C2003 1.399 . S
C2003 H1989 0.929 . S
C2003 C2002 1.399 . S
C2003 C2004 1.385 . S
C2004 H1990 0.931 . S
C2004 C2003 1.385 . S
C2004 C2005 1.389 . S
C2005 C2004 1.389 . S
C2005 C2006 1.387 . S
C2006 H1991 0.930 . S
C2006 C2001 1.390 . S
C2006 C2005 1.387 . S
H2007 C2019 0.930 . S
H2008 C2021 0.930 . S
H2009 C2022 0.930 . S
H2010 C2026 0.959 . S
H2011 C2026 0.959 . S
H2012 C2026 0.961 . S
H2013 C2027 0.960 . S
H2014 C2027 0.961 . S
H2015 C2027 0.959 . S
H2016 C2030 0.929 . S
H2017 C2031 0.931 . S
H2018 C2033 0.930 . S
C2019 H2007 0.930 . S
C2019 C2020 1.399 . S
C2019 C2024 1.399 . S
C2020 C2019 1.399 . S
C2020 C2021 1.376 . S
C2021 H2008 0.930 . S
C2021 C2020 1.376 . S
C2021 C2022 1.388 . S
C2022 H2009 0.930 . S
C2022 C2021 1.388 . S
C2022 C2023 1.390 . S
C2023 C2022 1.390 . S
C2023 C2024 1.394 . S
C2023 C2029 1.465 . S
C2024 C2019 1.399 . S
C2024 C2023 1.394 . S
C2024 C2025 1.516 . S
C2025 C2024 1.516 . S
C2025 C2026 1.502 . S
C2025 C2027 1.561 . S
C2025 C2028 1.526 . S
C2026 H2010 0.959 . S
C2026 H2011 0.959 . S
C2026 H2012 0.961 . S
C2026 C2025 1.502 . S
C2027 H2013 0.960 . S
C2027 H2014 0.961 . S
C2027 H2015 0.959 . S
C2027 C2025 1.561 . S
C2028 C2025 1.526 . S
C2028 C2029 1.396 . S
C2028 C2033 1.390 . S
C2029 C2023 1.465 . S
C2029 C2028 1.396 . S
C2029 C2030 1.399 . S
C2030 H2016 0.929 . S
C2030 C2029 1.399 . S
C2030 C2031 1.385 . S
C2031 H2017 0.931 . S
C2031 C2030 1.385 . S
C2031 C2032 1.389 . S
C2032 C2031 1.389 . S
C2032 C2033 1.387 . S
C2033 H2018 0.930 . S
C2033 C2028 1.390 . S
C2033 C2032 1.387 . S
H2034 C2046 0.930 . S
H2035 C2048 0.930 . S
H2036 C2049 0.930 . S
H2037 C2053 0.959 . S
H2038 C2053 0.959 . S
H2039 C2053 0.961 . S
H2040 C2054 0.960 . S
H2041 C2054 0.961 . S
H2042 C2054 0.959 . S
H2043 C2057 0.929 . S
H2044 C2058 0.931 . S
H2045 C2060 0.930 . S
C2046 H2034 0.930 . S
C2046 C2047 1.399 . S
C2046 C2051 1.399 . S
C2047 C2046 1.399 . S
C2047 C2048 1.376 . S
C2048 H2035 0.930 . S
C2048 C2047 1.376 . S
C2048 C2049 1.388 . S
C2049 H2036 0.930 . S
C2049 C2048 1.388 . S
C2049 C2050 1.390 . S
C2050 C2049 1.390 . S
C2050 C2051 1.394 . S
C2050 C2056 1.465 . S
C2051 C2046 1.399 . S
C2051 C2050 1.394 . S
C2051 C2052 1.516 . S
C2052 C2051 1.516 . S
C2052 C2053 1.502 . S
C2052 C2054 1.561 . S
C2052 C2055 1.526 . S
C2053 H2037 0.959 . S
C2053 H2038 0.959 . S
C2053 H2039 0.961 . S
C2053 C2052 1.502 . S
C2054 H2040 0.960 . S
C2054 H2041 0.961 . S
C2054 H2042 0.959 . S
C2054 C2052 1.561 . S
C2055 C2052 1.526 . S
C2055 C2056 1.396 . S
C2055 C2060 1.390 . S
C2056 C2050 1.465 . S
C2056 C2055 1.396 . S
C2056 C2057 1.399 . S
C2057 H2043 0.929 . S
C2057 C2056 1.399 . S
C2057 C2058 1.385 . S
C2058 H2044 0.931 . S
C2058 C2057 1.385 . S
C2058 C2059 1.389 . S
C2059 C2058 1.389 . S
C2059 C2060 1.387 . S
C2060 H2045 0.930 . S
C2060 C2055 1.390 . S
C2060 C2059 1.387 . S
H2061 C2073 0.930 . S
H2062 C2075 0.930 . S
H2063 C2076 0.930 . S
H2064 C2080 0.959 . S
H2065 C2080 0.959 . S
H2066 C2080 0.961 . S
H2067 C2081 0.960 . S
H2068 C2081 0.961 . S
H2069 C2081 0.959 . S
H2070 C2084 0.929 . S
H2071 C2085 0.931 . S
H2072 C2087 0.930 . S
C2073 H2061 0.930 . S
C2073 C2074 1.399 . S
C2073 C2078 1.399 . S
C2074 C2073 1.399 . S
C2074 C2075 1.376 . S
C2075 H2062 0.930 . S
C2075 C2074 1.376 . S
C2075 C2076 1.388 . S
C2076 H2063 0.930 . S
C2076 C2075 1.388 . S
C2076 C2077 1.390 . S
C2077 C2076 1.390 . S
C2077 C2078 1.394 . S
C2077 C2083 1.465 . S
C2078 C2073 1.399 . S
C2078 C2077 1.394 . S
C2078 C2079 1.516 . S
C2079 C2078 1.516 . S
C2079 C2080 1.502 . S
C2079 C2081 1.561 . S
C2079 C2082 1.526 . S
C2080 H2064 0.959 . S
C2080 H2065 0.959 . S
C2080 H2066 0.961 . S
C2080 C2079 1.502 . S
C2081 H2067 0.960 . S
C2081 H2068 0.961 . S
C2081 H2069 0.959 . S
C2081 C2079 1.561 . S
C2082 C2079 1.526 . S
C2082 C2083 1.396 . S
C2082 C2087 1.390 . S
C2083 C2077 1.465 . S
C2083 C2082 1.396 . S
C2083 C2084 1.399 . S
C2084 H2070 0.929 . S
C2084 C2083 1.399 . S
C2084 C2085 1.385 . S
C2085 H2071 0.931 . S
C2085 C2084 1.385 . S
C2085 C2086 1.389 . S
C2086 C2085 1.389 . S
C2086 C2087 1.387 . S
C2087 H2072 0.930 . S
C2087 C2082 1.390 . S
C2087 C2086 1.387 . S
H2088 C2100 0.930 . S
H2089 C2102 0.930 . S
H2090 C2103 0.930 . S
H2091 C2107 0.959 . S
H2092 C2107 0.959 . S
H2093 C2107 0.961 . S
H2094 C2108 0.960 . S
H2095 C2108 0.961 . S
H2096 C2108 0.959 . S
H2097 C2111 0.929 . S
H2098 C2112 0.931 . S
H2099 C2114 0.930 1_554 S
C2100 H2088 0.930 . S
C2100 C2101 1.399 . S
C2100 C2105 1.399 . S
C2101 C2100 1.399 . S
C2101 C2102 1.376 . S
C2102 H2089 0.930 . S
C2102 C2101 1.376 . S
C2102 C2103 1.388 . S
C2103 H2090 0.930 . S
C2103 C2102 1.388 . S
C2103 C2104 1.390 . S
C2104 C2103 1.390 . S
C2104 C2105 1.394 . S
C2104 C2110 1.465 . S
C2105 C2100 1.399 . S
C2105 C2104 1.394 . S
C2105 C2106 1.516 . S
C2106 C2105 1.516 . S
C2106 C2107 1.502 1_556 S
C2106 C2108 1.561 1_556 S
C2106 C2109 1.526 . S
C2107 H2091 0.959 . S
C2107 H2092 0.959 . S
C2107 H2093 0.961 . S
C2107 C2106 1.502 1_554 S
C2108 H2094 0.960 . S
C2108 H2095 0.961 . S
C2108 H2096 0.959 . S
C2108 C2106 1.561 1_554 S
C2109 C2106 1.526 . S
C2109 C2110 1.396 . S
C2109 C2114 1.390 . S
C2110 C2104 1.465 . S
C2110 C2109 1.396 . S
C2110 C2111 1.399 . S
C2111 H2097 0.929 . S
C2111 C2110 1.399 . S
C2111 C2112 1.385 . S
C2112 H2098 0.931 . S
C2112 C2111 1.385 . S
C2112 C2113 1.389 . S
C2113 C2112 1.389 . S
C2113 C2114 1.387 . S
C2114 H2099 0.930 1_556 S
C2114 C2109 1.390 . S
C2114 C2113 1.387 . S
H2115 C2127 0.930 . S
H2116 C2129 0.930 1_554 S
H2117 C2130 0.930 . S
H2118 C2134 0.959 . S
H2119 C2134 0.959 . S
H2120 C2134 0.961 . S
H2121 C2135 0.960 . S
H2122 C2135 0.961 . S
H2123 C2135 0.959 . S
H2124 C2138 0.929 . S
H2125 C2139 0.931 . S
H2126 C2141 0.930 . S
C2127 H2115 0.930 . S
C2127 C2128 1.399 . S
C2127 C2132 1.399 . S
C2128 C2127 1.399 . S
C2128 C2129 1.376 . S
C2129 H2116 0.930 1_556 S
C2129 C2128 1.376 . S
C2129 C2130 1.388 . S
C2130 H2117 0.930 . S
C2130 C2129 1.388 . S
C2130 C2131 1.390 . S
C2131 C2130 1.390 . S
C2131 C2132 1.394 . S
C2131 C2137 1.465 . S
C2132 C2127 1.399 . S
C2132 C2131 1.394 . S
C2132 C2133 1.516 . S
C2133 C2132 1.516 . S
C2133 C2134 1.502 . S
C2133 C2135 1.561 . S
C2133 C2136 1.526 . S
C2134 H2118 0.959 . S
C2134 H2119 0.959 . S
C2134 H2120 0.961 . S
C2134 C2133 1.502 . S
C2135 H2121 0.960 . S
C2135 H2122 0.961 . S
C2135 H2123 0.959 . S
C2135 C2133 1.561 . S
C2136 C2133 1.526 . S
C2136 C2137 1.396 . S
C2136 C2141 1.390 . S
C2137 C2131 1.465 . S
C2137 C2136 1.396 . S
C2137 C2138 1.399 . S
C2138 H2124 0.929 . S
C2138 C2137 1.399 . S
C2138 C2139 1.385 . S
C2139 H2125 0.931 . S
C2139 C2138 1.385 . S
C2139 C2140 1.389 . S
C2140 C2139 1.389 . S
C2140 C2141 1.387 . S
C2141 H2126 0.930 . S
C2141 C2136 1.390 . S
C2141 C2140 1.387 . S
H2142 C2154 0.930 . S
H2143 C2156 0.930 . S
H2144 C2157 0.930 1_554 S
H2145 C2161 0.959 . S
H2146 C2161 0.959 . S
H2147 C2161 0.961 . S
H2148 C2162 0.960 . S
H2149 C2162 0.961 . S
H2150 C2162 0.959 . S
H2151 C2165 0.929 . S
H2152 C2166 0.931 . S
H2153 C2168 0.930 . S
C2154 H2142 0.930 . S
C2154 C2155 1.399 . S
C2154 C2159 1.399 . S
C2155 C2154 1.399 . S
C2155 C2156 1.376 . S
C2156 H2143 0.930 . S
C2156 C2155 1.376 . S
C2156 C2157 1.388 . S
C2157 H2144 0.930 1_556 S
C2157 C2156 1.388 . S
C2157 C2158 1.390 . S
C2158 C2157 1.390 . S
C2158 C2159 1.394 . S
C2158 C2164 1.465 . S
C2159 C2154 1.399 . S
C2159 C2158 1.394 . S
C2159 C2160 1.516 . S
C2160 C2159 1.516 . S
C2160 C2161 1.502 . S
C2160 C2162 1.561 . S
C2160 C2163 1.526 . S
C2161 H2145 0.959 . S
C2161 H2146 0.959 . S
C2161 H2147 0.961 . S
C2161 C2160 1.502 . S
C2162 H2148 0.960 . S
C2162 H2149 0.961 . S
C2162 H2150 0.959 . S
C2162 C2160 1.561 . S
C2163 C2160 1.526 . S
C2163 C2164 1.396 . S
C2163 C2168 1.390 . S
C2164 C2158 1.465 . S
C2164 C2163 1.396 . S
C2164 C2165 1.399 1_556 S
C2165 H2151 0.929 . S
C2165 C2164 1.399 1_554 S
C2165 C2166 1.385 . S
C2166 H2152 0.931 . S
C2166 C2165 1.385 . S
C2166 C2167 1.389 1_554 S
C2167 C2166 1.389 1_556 S
C2167 C2168 1.387 . S
C2168 H2153 0.930 . S
C2168 C2163 1.390 . S
C2168 C2167 1.387 . S
H2169 C2181 0.930 . S
H2170 C2183 0.930 . S
H2171 C2184 0.930 . S
H2172 C2188 0.959 . S
H2173 C2188 0.959 . S
H2174 C2188 0.961 . S
H2175 C2189 0.960 . S
H2176 C2189 0.961 . S
H2177 C2189 0.959 . S
H2178 C2192 0.929 . S
H2179 C2193 0.931 . S
H2180 C2195 0.930 . S
C2181 H2169 0.930 . S
C2181 C2182 1.399 . S
C2181 C2186 1.399 . S
C2182 C2181 1.399 . S
C2182 C2183 1.376 . S
C2183 H2170 0.930 . S
C2183 C2182 1.376 . S
C2183 C2184 1.388 . S
C2184 H2171 0.930 . S
C2184 C2183 1.388 . S
C2184 C2185 1.390 . S
C2185 C2184 1.390 . S
C2185 C2186 1.394 . S
C2185 C2191 1.465 . S
C2186 C2181 1.399 . S
C2186 C2185 1.394 . S
C2186 C2187 1.516 . S
C2187 C2186 1.516 . S
C2187 C2188 1.502 . S
C2187 C2189 1.561 . S
C2187 C2190 1.526 . S
C2188 H2172 0.959 . S
C2188 H2173 0.959 . S
C2188 H2174 0.961 . S
C2188 C2187 1.502 . S
C2189 H2175 0.960 . S
C2189 H2176 0.961 . S
C2189 H2177 0.959 . S
C2189 C2187 1.561 . S
C2190 C2187 1.526 . S
C2190 C2191 1.396 . S
C2190 C2195 1.390 . S
C2191 C2185 1.465 . S
C2191 C2190 1.396 . S
C2191 C2192 1.399 . S
C2192 H2178 0.929 . S
C2192 C2191 1.399 . S
C2192 C2193 1.385 . S
C2193 H2179 0.931 . S
C2193 C2192 1.385 . S
C2193 C2194 1.389 . S
C2194 C2193 1.389 . S
C2194 C2195 1.387 . S
C2195 H2180 0.930 . S
C2195 C2190 1.390 . S
C2195 C2194 1.387 . S
H2196 C2208 0.930 . S
H2197 C2210 0.930 . S
H2198 C2211 0.930 . S
H2199 C2215 0.959 . S
H2200 C2215 0.959 . S
H2201 C2215 0.961 . S
H2202 C2216 0.960 . S
H2203 C2216 0.961 . S
H2204 C2216 0.959 . S
H2205 C2219 0.929 . S
H2206 C2220 0.931 . S
H2207 C2222 0.930 . S
C2208 H2196 0.930 . S
C2208 C2209 1.399 . S
C2208 C2213 1.399 . S
C2209 C2208 1.399 . S
C2209 C2210 1.376 . S
C2210 H2197 0.930 . S
C2210 C2209 1.376 . S
C2210 C2211 1.388 . S
C2211 H2198 0.930 . S
C2211 C2210 1.388 . S
C2211 C2212 1.390 . S
C2212 C2211 1.390 . S
C2212 C2213 1.394 . S
C2212 C2218 1.465 . S
C2213 C2208 1.399 . S
C2213 C2212 1.394 . S
C2213 C2214 1.516 . S
C2214 C2213 1.516 . S
C2214 C2215 1.502 . S
C2214 C2216 1.561 . S
C2214 C2217 1.526 . S
C2215 H2199 0.959 . S
C2215 H2200 0.959 . S
C2215 H2201 0.961 . S
C2215 C2214 1.502 . S
C2216 H2202 0.960 . S
C2216 H2203 0.961 . S
C2216 H2204 0.959 . S
C2216 C2214 1.561 . S
C2217 C2214 1.526 . S
C2217 C2218 1.396 . S
C2217 C2222 1.390 . S
C2218 C2212 1.465 . S
C2218 C2217 1.396 . S
C2218 C2219 1.399 . S
C2219 H2205 0.929 . S
C2219 C2218 1.399 . S
C2219 C2220 1.385 . S
C2220 H2206 0.931 . S
C2220 C2219 1.385 . S
C2220 C2221 1.389 . S
C2221 C2220 1.389 . S
C2221 C2222 1.387 . S
C2222 H2207 0.930 . S
C2222 C2217 1.390 . S
C2222 C2221 1.387 . S
H2223 C2235 0.930 . S
H2224 C2237 0.930 . S
H2225 C2238 0.930 . S
H2226 C2242 0.959 . S
H2227 C2242 0.959 . S
H2228 C2242 0.961 . S
H2229 C2243 0.960 . S
H2230 C2243 0.961 . S
H2231 C2243 0.959 . S
H2232 C2246 0.929 . S
H2233 C2247 0.931 . S
H2234 C2249 0.930 . S
C2235 H2223 0.930 . S
C2235 C2236 1.399 . S
C2235 C2240 1.399 . S
C2236 C2235 1.399 . S
C2236 C2237 1.376 . S
C2237 H2224 0.930 . S
C2237 C2236 1.376 . S
C2237 C2238 1.388 . S
C2238 H2225 0.930 . S
C2238 C2237 1.388 . S
C2238 C2239 1.390 . S
C2239 C2238 1.390 . S
C2239 C2240 1.394 . S
C2239 C2245 1.465 . S
C2240 C2235 1.399 . S
C2240 C2239 1.394 . S
C2240 C2241 1.516 . S
C2241 C2240 1.516 . S
C2241 C2242 1.502 . S
C2241 C2243 1.561 . S
C2241 C2244 1.526 . S
C2242 H2226 0.959 . S
C2242 H2227 0.959 . S
C2242 H2228 0.961 . S
C2242 C2241 1.502 . S
C2243 H2229 0.960 . S
C2243 H2230 0.961 . S
C2243 H2231 0.959 . S
C2243 C2241 1.561 . S
C2244 C2241 1.526 . S
C2244 C2245 1.396 . S
C2244 C2249 1.390 . S
C2245 C2239 1.465 . S
C2245 C2244 1.396 . S
C2245 C2246 1.399 . S
C2246 H2232 0.929 . S
C2246 C2245 1.399 . S
C2246 C2247 1.385 . S
C2247 H2233 0.931 . S
C2247 C2246 1.385 . S
C2247 C2248 1.389 . S
C2248 C2247 1.389 . S
C2248 C2249 1.387 . S
C2249 H2234 0.930 . S
C2249 C2244 1.390 . S
C2249 C2248 1.387 . S
H2250 C2262 0.930 . S
H2251 C2264 0.930 . S
H2252 C2265 0.930 . S
H2253 C2269 0.961 . S
H2254 C2269 0.959 . S
H2255 C2269 0.961 1_455 S
H2256 C2270 0.960 1_455 S
H2257 C2270 0.961 . S
H2258 C2270 0.959 . S
H2259 C2273 0.929 . S
H2260 C2274 0.931 . S
H2261 C2276 0.930 . S
C2262 H2250 0.930 . S
C2262 C2263 1.399 . S
C2262 C2267 1.399 . S
C2263 C2262 1.399 . S
C2263 C2264 1.376 . S
C2264 H2251 0.930 . S
C2264 C2263 1.376 . S
C2264 C2265 1.388 . S
C2265 H2252 0.930 . S
C2265 C2264 1.388 . S
C2265 C2266 1.390 . S
C2266 C2265 1.390 . S
C2266 C2267 1.394 . S
C2266 C2272 1.465 1_455 S
C2267 C2262 1.399 . S
C2267 C2266 1.394 . S
C2267 C2268 1.516 1_455 S
C2268 C2267 1.516 1_655 S
C2268 C2269 1.502 . S
C2268 C2270 1.561 . S
C2268 C2271 1.526 . S
C2269 H2253 0.961 . S
C2269 H2254 0.959 . S
C2269 H2255 0.961 1_655 S
C2269 C2268 1.502 . S
C2270 H2256 0.960 1_655 S
C2270 H2257 0.961 . S
C2270 H2258 0.959 . S
C2270 C2268 1.561 . S
C2271 C2268 1.526 . S
C2271 C2272 1.396 . S
C2271 C2276 1.390 . S
C2272 C2266 1.465 1_655 S
C2272 C2271 1.396 . S
C2272 C2273 1.399 . S
C2273 H2259 0.929 . S
C2273 C2272 1.399 . S
C2273 C2274 1.385 . S
C2274 H2260 0.931 . S
C2274 C2273 1.385 . S
C2274 C2275 1.389 . S
C2275 C2274 1.389 . S
C2275 C2276 1.387 . S
C2276 H2261 0.930 . S
C2276 C2271 1.390 . S
C2276 C2275 1.387 . S
H2277 C2289 0.930 . S
H2278 C2291 0.930 . S
H2279 C2292 0.930 . S
H2280 C2296 0.959 . S
H2281 C2296 0.959 . S
H2282 C2296 0.961 . S
H2283 C2297 0.960 . S
H2284 C2297 0.961 . S
H2285 C2297 0.959 . S
H2286 C2300 0.929 . S
H2287 C2301 0.931 . S
H2288 C2303 0.930 . S
C2289 H2277 0.930 . S
C2289 C2290 1.399 . S
C2289 C2294 1.399 . S
C2290 C2289 1.399 . S
C2290 C2291 1.376 . S
C2291 H2278 0.930 . S
C2291 C2290 1.376 . S
C2291 C2292 1.388 . S
C2292 H2279 0.930 . S
C2292 C2291 1.388 . S
C2292 C2293 1.390 . S
C2293 C2292 1.390 . S
C2293 C2294 1.394 . S
C2293 C2299 1.465 . S
C2294 C2289 1.399 . S
C2294 C2293 1.394 . S
C2294 C2295 1.516 . S
C2295 C2294 1.516 . S
C2295 C2296 1.502 . S
C2295 C2297 1.561 . S
C2295 C2298 1.526 . S
C2296 H2280 0.959 . S
C2296 H2281 0.959 . S
C2296 H2282 0.961 . S
C2296 C2295 1.502 . S
C2297 H2283 0.960 . S
C2297 H2284 0.961 . S
C2297 H2285 0.959 . S
C2297 C2295 1.561 . S
C2298 C2295 1.526 . S
C2298 C2299 1.396 . S
C2298 C2303 1.390 . S
C2299 C2293 1.465 . S
C2299 C2298 1.396 . S
C2299 C2300 1.399 . S
C2300 H2286 0.929 . S
C2300 C2299 1.399 . S
C2300 C2301 1.385 . S
C2301 H2287 0.931 . S
C2301 C2300 1.385 . S
C2301 C2302 1.389 . S
C2302 C2301 1.389 . S
C2302 C2303 1.387 . S
C2303 H2288 0.930 . S
C2303 C2298 1.390 . S
C2303 C2302 1.387 . S
H2304 C2316 0.930 . S
H2305 C2318 0.930 . S
H2306 C2319 0.930 . S
H2307 C2323 0.959 . S
H2308 C2323 0.959 . S
H2309 C2323 0.961 1_565 S
H2310 C2324 0.962 1_565 S
H2311 C2324 0.961 . S
H2312 C2324 0.959 . S
H2313 C2327 0.929 . S
H2314 C2328 0.931 . S
H2315 C2330 0.930 . S
C2316 H2304 0.930 . S
C2316 C2317 1.399 . S
C2316 C2321 1.399 . S
C2317 C2316 1.399 . S
C2317 C2318 1.376 . S
C2318 H2305 0.930 . S
C2318 C2317 1.376 . S
C2318 C2319 1.388 . S
C2319 H2306 0.930 . S
C2319 C2318 1.388 . S
C2319 C2320 1.390 . S
C2320 C2319 1.390 . S
C2320 C2321 1.394 . S
C2320 C2326 1.465 1_565 S
C2321 C2316 1.399 . S
C2321 C2320 1.394 . S
C2321 C2322 1.516 1_565 S
C2322 C2321 1.516 1_545 S
C2322 C2323 1.502 . S
C2322 C2324 1.561 . S
C2322 C2325 1.526 . S
C2323 H2307 0.959 . S
C2323 H2308 0.959 . S
C2323 H2309 0.961 1_545 S
C2323 C2322 1.502 . S
C2324 H2310 0.962 1_545 S
C2324 H2311 0.961 . S
C2324 H2312 0.959 . S
C2324 C2322 1.561 . S
C2325 C2322 1.526 . S
C2325 C2326 1.396 . S
C2325 C2330 1.390 . S
C2326 C2320 1.465 1_545 S
C2326 C2325 1.396 . S
C2326 C2327 1.399 . S
C2327 H2313 0.929 . S
C2327 C2326 1.399 . S
C2327 C2328 1.385 . S
C2328 H2314 0.931 . S
C2328 C2327 1.385 . S
C2328 C2329 1.389 . S
C2329 C2328 1.389 . S
C2329 C2330 1.387 . S
C2330 H2315 0.930 . S
C2330 C2325 1.390 . S
C2330 C2329 1.387 . S
H2331 C2343 0.930 . S
H2332 C2345 0.930 . S
H2333 C2346 0.930 . S
H2334 C2350 0.959 . S
H2335 C2350 0.959 . S
H2336 C2350 0.961 1_545 S
H2337 C2351 0.959 1_545 S
H2338 C2351 0.961 . S
H2339 C2351 0.959 . S
H2340 C2354 0.929 . S
H2341 C2355 0.931 . S
H2342 C2357 0.930 . S
C2343 H2331 0.930 . S
C2343 C2344 1.399 . S
C2343 C2348 1.399 . S
C2344 C2343 1.399 . S
C2344 C2345 1.376 . S
C2345 H2332 0.930 . S
C2345 C2344 1.376 . S
C2345 C2346 1.388 . S
C2346 H2333 0.930 . S
C2346 C2345 1.388 . S
C2346 C2347 1.390 . S
C2347 C2346 1.390 . S
C2347 C2348 1.394 . S
C2347 C2353 1.465 1_545 S
C2348 C2343 1.399 . S
C2348 C2347 1.394 . S
C2348 C2349 1.516 1_545 S
C2349 C2348 1.516 1_565 S
C2349 C2350 1.502 . S
C2349 C2351 1.561 . S
C2349 C2352 1.526 . S
C2350 H2334 0.959 . S
C2350 H2335 0.959 . S
C2350 H2336 0.961 1_565 S
C2350 C2349 1.502 . S
C2351 H2337 0.959 1_565 S
C2351 H2338 0.961 . S
C2351 H2339 0.959 . S
C2351 C2349 1.561 . S
C2352 C2349 1.526 . S
C2352 C2353 1.396 . S
C2352 C2357 1.390 . S
C2353 C2347 1.465 1_565 S
C2353 C2352 1.396 . S
C2353 C2354 1.399 . S
C2354 H2340 0.929 . S
C2354 C2353 1.399 . S
C2354 C2355 1.385 . S
C2355 H2341 0.931 . S
C2355 C2354 1.385 . S
C2355 C2356 1.389 . S
C2356 C2355 1.389 . S
C2356 C2357 1.387 . S
C2357 H2342 0.930 . S
C2357 C2352 1.390 . S
C2357 C2356 1.387 . S
H2358 C2370 0.930 . S
H2359 C2372 0.930 . S
H2360 C2373 0.930 . S
H2361 C2377 0.959 1_655 S
H2362 C2377 0.959 1_655 S
H2363 C2377 0.961 . S
H2364 C2378 0.960 . S
H2365 C2378 0.991 . S
H2366 C2378 0.959 . S
H2367 C2381 0.929 . S
H2368 C2382 0.931 . S
H2369 C2384 0.930 . S
C2370 H2358 0.930 . S
C2370 C2371 1.399 . S
C2370 C2375 1.399 . S
C2371 C2370 1.399 . S
C2371 C2372 1.376 . S
C2372 H2359 0.930 . S
C2372 C2371 1.376 . S
C2372 C2373 1.388 . S
C2373 H2360 0.930 . S
C2373 C2372 1.388 . S
C2373 C2374 1.390 . S
C2374 C2373 1.390 . S
C2374 C2375 1.394 . S
C2374 C2380 1.465 1_455 S
C2375 C2370 1.399 . S
C2375 C2374 1.394 . S
C2375 C2376 1.516 . S
C2376 C2375 1.516 . S
C2376 C2377 1.502 . S
C2376 C2378 1.561 . S
C2376 C2379 1.526 1_455 S
C2377 H2361 0.959 1_455 S
C2377 H2362 0.959 1_455 S
C2377 H2363 0.961 . S
C2377 C2376 1.502 . S
C2378 H2364 0.960 . S
C2378 H2365 0.991 . S
C2378 H2366 0.959 . S
C2378 C2376 1.561 . S
C2379 C2376 1.526 1_655 S
C2379 C2380 1.396 . S
C2379 C2384 1.390 . S
C2380 C2374 1.465 1_655 S
C2380 C2379 1.396 . S
C2380 C2381 1.399 . S
C2381 H2367 0.929 . S
C2381 C2380 1.399 . S
C2381 C2382 1.385 . S
C2382 H2368 0.931 . S
C2382 C2381 1.385 . S
C2382 C2383 1.389 . S
C2383 C2382 1.389 . S
C2383 C2384 1.387 . S
C2384 H2369 0.930 . S
C2384 C2379 1.390 . S
C2384 C2383 1.387 . S
H2385 C2397 0.930 . S
H2386 C2399 0.930 . S
H2387 C2400 0.930 . S
H2388 C2404 0.959 . S
H2389 C2404 0.959 . S
H2390 C2404 0.961 . S
H2391 C2405 0.960 . S
H2392 C2405 0.961 . S
H2393 C2405 0.959 . S
H2394 C2408 0.929 . S
H2395 C2409 0.931 . S
H2396 C2411 0.930 . S
C2397 H2385 0.930 . S
C2397 C2398 1.399 . S
C2397 C2402 1.399 . S
C2398 C2397 1.399 . S
C2398 C2399 1.376 . S
C2399 H2386 0.930 . S
C2399 C2398 1.376 . S
C2399 C2400 1.388 . S
C2400 H2387 0.930 . S
C2400 C2399 1.388 . S
C2400 C2401 1.390 . S
C2401 C2400 1.390 . S
C2401 C2402 1.394 . S
C2401 C2407 1.465 . S
C2402 C2397 1.399 . S
C2402 C2401 1.394 . S
C2402 C2403 1.516 . S
C2403 C2402 1.516 . S
C2403 C2404 1.502 . S
C2403 C2405 1.561 . S
C2403 C2406 1.526 . S
C2404 H2388 0.959 . S
C2404 H2389 0.959 . S
C2404 H2390 0.961 . S
C2404 C2403 1.502 . S
C2405 H2391 0.960 . S
C2405 H2392 0.961 . S
C2405 H2393 0.959 . S
C2405 C2403 1.561 . S
C2406 C2403 1.526 . S
C2406 C2407 1.396 . S
C2406 C2411 1.390 . S
C2407 C2401 1.465 . S
C2407 C2406 1.396 . S
C2407 C2408 1.399 . S
C2408 H2394 0.929 . S
C2408 C2407 1.399 . S
C2408 C2409 1.385 . S
C2409 H2395 0.931 . S
C2409 C2408 1.385 . S
C2409 C2410 1.389 . S
C2410 C2409 1.389 . S
C2410 C2411 1.387 . S
C2411 H2396 0.930 . S
C2411 C2406 1.390 . S
C2411 C2410 1.387 . S
C481 C39 1.196 . S
C493 C0 1.212 . S
C508 C52 1.264 . S
C520 C13 1.229 . S
C535 C65 1.267 . S
C547 C26 1.262 . S
C562 C78 1.243 . S
C574 C117 1.227 . S
C589 C91 1.230 . S
C601 C130 1.248 . S
C616 C143 1.221 . S
C628 C104 1.238 . S
C643 C156 1.175 . S
C655 C195 1.188 . S
C670 C169 1.177 . S
C682 C208 1.200 . S
C697 C182 1.243 . S
C709 C221 1.244 . S
C724 C234 1.206 . S
C736 C273 1.219 . S
C751 C286 1.218 . S
C763 C247 1.226 . S
C778 C260 1.226 . S
C790 C299 1.234 . S
C805 C312 1.215 . S
C817 C351 1.185 . S
C832 C325 1.174 . S
C844 C364 1.171 . S
C859 C377 1.241 . S
C871 C338 1.218 . S
C886 C429 1.213 . S
C898 C390 1.227 . S
C913 C442 1.220 . S
C925 C403 1.233 . S
C940 C455 1.235 . S
C952 C416 1.226 . S
C967 C151 1.275 . S
C979 C5 1.183 . S
C994 C18 1.263 . S
C1006 C125 1.264 . S
C1021 C31 1.200 . S
C1033 C138 1.265 . S
C1048 C99 1.279 . S
C1060 C44 1.281 . S
C1075 C57 1.285 . S
C1087 C112 1.331 . S
C1102 C86 1.283 . S
C1114 C70 1.205 . S
C1129 C83 1.213 . S
C1141 C73 1.274 . S
C1156 C96 1.292 . S
C1168 C47 1.280 . S
C1183 C60 1.288 . S
C1195 C109 1.190 . S
C1210 C21 1.304 . S
C1222 C122 1.202 . S
C1237 C34 1.328 . S
C1249 C135 1.262 . S
C1264 C148 1.247 . S
C1276 C8 1.279 . S
C1291 C161 1.152 . S
C1303 C307 1.266 . S
C1318 C281 1.226 . S
C1330 C174 1.239 . S
C1345 C294 1.215 . S
C1357 C187 1.220 . S
C1372 C200 1.276 . S
C1384 C255 1.265 . S
C1399 C268 1.269 . S
C1411 C213 1.280 . S
C1426 C226 1.182 . S
C1438 C242 1.297 . S
C1453 C239 1.227 . S
C1465 C229 1.248 . S
C1480 C252 1.168 . S
C1492 C203 1.288 . S
C1507 C216 1.286 . S
C1519 C265 1.265 . S
C1534 C177 1.322 . S
C1546 C278 1.220 . S
C1561 C190 1.291 . S
C1573 C291 1.275 . S
C1588 C304 1.284 . S
C1600 C164 1.344 . S
C1615 C463 1.251 . S
C1627 C317 1.185 . S
C1642 C330 1.209 . S
C1654 C437 1.307 . S
C1669 C343 1.281 . S
C1681 C450 1.288 . S
C1696 C356 1.306 . S
C1708 C411 1.347 . S
C1723 C424 1.328 . S
C1735 C369 1.215 . S
C1750 C382 1.309 . S
C1762 C398 1.305 . S
C1777 C385 1.216 . S
C1789 C395 1.246 . S
C1804 C359 1.210 . S
C1816 C408 1.215 . S
C1831 C372 1.238 . S
C1843 C421 1.150 . S
C1858 C333 1.249 . S
C1870 C434 1.267 . S
C1885 C346 1.316 . S
C1897 C447 1.210 . S
C1912 C320 1.311 . S
C1924 C460 1.182 . S
C1939 C387 1.373 . S
C1951 C10 1.389 . S
C1966 C23 1.373 . S
C1978 C361 1.377 . S
C1993 C374 1.372 . S
C2005 C36 1.387 . S
C2020 C49 1.419 . S
C2032 C179 1.396 . S
C2047 C192 1.386 . S
C2059 C62 1.410 . S
C2074 C75 1.373 . S
C2086 C166 1.394 . S
C2101 C88 1.406 . S
C2113 C309 1.414 . S
C2128 C283 1.426 . S
C2140 C101 1.428 . S
C2155 C114 1.408 . S
C2167 C296 1.403 . S
C2182 C127 1.417 . S
C2194 C413 1.422 . S
C2209 C140 1.383 . S
C2221 C426 1.378 . S
C2236 C400 1.415 . S
C2248 C153 1.408 . S
C2263 C335 1.415 . S
C2275 C205 1.408 . S
C2290 C348 1.404 . S
C2302 C218 1.416 . S
C2317 C322 1.415 . S
C2329 C231 1.394 . S
C2344 C244 1.374 . S
C2356 C465 1.366 . S
C2371 C439 1.409 . S
C2383 C257 1.414 . S
C2398 C270 1.372 . S
C2410 C452 1.364 . S
