# Generated by pormake.
# Topology unx, (4)-cn, num edge types: 1
# Building blocks:
#     Node 0, Type 0, BuildingBlock: GALJAG_clean_sbu_0, # of connection points: 4
#     Node 1, Type 0, BuildingBlock: GALJAG_clean_sbu_0, # of connection points: 4
#     Node 2, Type 0, BuildingBlock: GALJAG_clean_sbu_0, # of connection points: 4
#     Node 3, Type 0, BuildingBlock: GALJAG_clean_sbu_0, # of connection points: 4
#     Node 4, Type 0, BuildingBlock: GALJAG_clean_sbu_0, # of connection points: 4
#     Node 5, Type 0, BuildingBlock: GALJAG_clean_sbu_0, # of connection points: 4
#     Node 6, Type 0, BuildingBlock: GALJAG_clean_sbu_0, # of connection points: 4
#     Node 7, Type 0, BuildingBlock: GALJAG_clean_sbu_0, # of connection points: 4
#     Node 8, Type 0, BuildingBlock: GALJAG_clean_sbu_0, # of connection points: 4
#     Node 9, Type 0, BuildingBlock: GALJAG_clean_sbu_0, # of connection points: 4
#     Node 10, Type 0, BuildingBlock: GALJAG_clean_sbu_0, # of connection points: 4
#     Node 11, Type 0, BuildingBlock: GALJAG_clean_sbu_0, # of connection points: 4
#     Node 12, Type 0, BuildingBlock: GALJAG_clean_sbu_0, # of connection points: 4
#     Node 13, Type 0, BuildingBlock: GALJAG_clean_sbu_0, # of connection points: 4
#     Node 14, Type 0, BuildingBlock: GALJAG_clean_sbu_0, # of connection points: 4
#     Node 15, Type 0, BuildingBlock: GALJAG_clean_sbu_0, # of connection points: 4
#     Node 16, Type 0, BuildingBlock: GALJAG_clean_sbu_0, # of connection points: 4
#     Node 17, Type 0, BuildingBlock: GALJAG_clean_sbu_0, # of connection points: 4
#     Node 18, Type 0, BuildingBlock: GALJAG_clean_sbu_0, # of connection points: 4
#     Node 19, Type 0, BuildingBlock: GALJAG_clean_sbu_0, # of connection points: 4
#     Node 20, Type 0, BuildingBlock: GALJAG_clean_sbu_0, # of connection points: 4
#     Node 21, Type 0, BuildingBlock: GALJAG_clean_sbu_0, # of connection points: 4
#     Node 22, Type 0, BuildingBlock: GALJAG_clean_sbu_0, # of connection points: 4
#     Node 23, Type 0, BuildingBlock: GALJAG_clean_sbu_0, # of connection points: 4
#     Node 24, Type 0, BuildingBlock: GALJAG_clean_sbu_0, # of connection points: 4
#     Node 25, Type 0, BuildingBlock: GALJAG_clean_sbu_0, # of connection points: 4
#     Node 26, Type 0, BuildingBlock: GALJAG_clean_sbu_0, # of connection points: 4
#     Node 27, Type 0, BuildingBlock: GALJAG_clean_sbu_0, # of connection points: 4
#     Node 28, Type 0, BuildingBlock: GALJAG_clean_sbu_0, # of connection points: 4
#     Node 29, Type 0, BuildingBlock: GALJAG_clean_sbu_0, # of connection points: 4
#     Node 30, Type 0, BuildingBlock: GALJAG_clean_sbu_0, # of connection points: 4
#     Node 31, Type 0, BuildingBlock: GALJAG_clean_sbu_0, # of connection points: 4
#     Node 32, Type 0, BuildingBlock: GALJAG_clean_sbu_0, # of connection points: 4
#     Node 33, Type 0, BuildingBlock: GALJAG_clean_sbu_0, # of connection points: 4
#     Node 34, Type 0, BuildingBlock: GALJAG_clean_sbu_0, # of connection points: 4
#     Node 35, Type 0, BuildingBlock: GALJAG_clean_sbu_0, # of connection points: 4
#     Node 36, Type 0, BuildingBlock: GALJAG_clean_sbu_0, # of connection points: 4
#     Node 37, Type 0, BuildingBlock: GALJAG_clean_sbu_0, # of connection points: 4
#     Node 38, Type 0, BuildingBlock: GALJAG_clean_sbu_0, # of connection points: 4
#     Node 39, Type 0, BuildingBlock: GALJAG_clean_sbu_0, # of connection points: 4
#     Node 40, Type 0, BuildingBlock: GALJAG_clean_sbu_0, # of connection points: 4
#     Node 41, Type 0, BuildingBlock: GALJAG_clean_sbu_0, # of connection points: 4
#     Node 42, Type 0, BuildingBlock: GALJAG_clean_sbu_0, # of connection points: 4
#     Node 43, Type 0, BuildingBlock: GALJAG_clean_sbu_0, # of connection points: 4
#     Node 44, Type 0, BuildingBlock: GALJAG_clean_sbu_0, # of connection points: 4
#     Node 45, Type 0, BuildingBlock: GALJAG_clean_sbu_0, # of connection points: 4
#     Node 46, Type 0, BuildingBlock: GALJAG_clean_sbu_0, # of connection points: 4
#     Node 47, Type 0, BuildingBlock: GALJAG_clean_sbu_0, # of connection points: 4
#     Edge 48, Type (0, 0), BuildingBlock: ZUJKAS_clean_linker_0, # of connection points: 2
#     Edge 49, Type (0, 0), BuildingBlock: ZUJKAS_clean_linker_0, # of connection points: 2
#     Edge 50, Type (0, 0), BuildingBlock: ZUJKAS_clean_linker_0, # of connection points: 2
#     Edge 51, Type (0, 0), BuildingBlock: ZUJKAS_clean_linker_0, # of connection points: 2
#     Edge 52, Type (0, 0), BuildingBlock: ZUJKAS_clean_linker_0, # of connection points: 2
#     Edge 53, Type (0, 0), BuildingBlock: ZUJKAS_clean_linker_0, # of connection points: 2
#     Edge 54, Type (0, 0), BuildingBlock: ZUJKAS_clean_linker_0, # of connection points: 2
#     Edge 55, Type (0, 0), BuildingBlock: ZUJKAS_clean_linker_0, # of connection points: 2
#     Edge 56, Type (0, 0), BuildingBlock: ZUJKAS_clean_linker_0, # of connection points: 2
#     Edge 57, Type (0, 0), BuildingBlock: ZUJKAS_clean_linker_0, # of connection points: 2
#     Edge 58, Type (0, 0), BuildingBlock: ZUJKAS_clean_linker_0, # of connection points: 2
#     Edge 59, Type (0, 0), BuildingBlock: ZUJKAS_clean_linker_0, # of connection points: 2
#     Edge 60, Type (0, 0), BuildingBlock: ZUJKAS_clean_linker_0, # of connection points: 2
#     Edge 61, Type (0, 0), BuildingBlock: ZUJKAS_clean_linker_0, # of connection points: 2
#     Edge 62, Type (0, 0), BuildingBlock: ZUJKAS_clean_linker_0, # of connection points: 2
#     Edge 63, Type (0, 0), BuildingBlock: ZUJKAS_clean_linker_0, # of connection points: 2
#     Edge 64, Type (0, 0), BuildingBlock: ZUJKAS_clean_linker_0, # of connection points: 2
#     Edge 65, Type (0, 0), BuildingBlock: ZUJKAS_clean_linker_0, # of connection points: 2
#     Edge 66, Type (0, 0), BuildingBlock: ZUJKAS_clean_linker_0, # of connection points: 2
#     Edge 67, Type (0, 0), BuildingBlock: ZUJKAS_clean_linker_0, # of connection points: 2
#     Edge 68, Type (0, 0), BuildingBlock: ZUJKAS_clean_linker_0, # of connection points: 2
#     Edge 69, Type (0, 0), BuildingBlock: ZUJKAS_clean_linker_0, # of connection points: 2
#     Edge 70, Type (0, 0), BuildingBlock: ZUJKAS_clean_linker_0, # of connection points: 2
#     Edge 71, Type (0, 0), BuildingBlock: ZUJKAS_clean_linker_0, # of connection points: 2
#     Edge 72, Type (0, 0), BuildingBlock: ZUJKAS_clean_linker_0, # of connection points: 2
#     Edge 73, Type (0, 0), BuildingBlock: ZUJKAS_clean_linker_0, # of connection points: 2
#     Edge 74, Type (0, 0), BuildingBlock: ZUJKAS_clean_linker_0, # of connection points: 2
#     Edge 75, Type (0, 0), BuildingBlock: ZUJKAS_clean_linker_0, # of connection points: 2
#     Edge 76, Type (0, 0), BuildingBlock: ZUJKAS_clean_linker_0, # of connection points: 2
#     Edge 77, Type (0, 0), BuildingBlock: ZUJKAS_clean_linker_0, # of connection points: 2
#     Edge 78, Type (0, 0), BuildingBlock: ZUJKAS_clean_linker_0, # of connection points: 2
#     Edge 79, Type (0, 0), BuildingBlock: ZUJKAS_clean_linker_0, # of connection points: 2
#     Edge 80, Type (0, 0), BuildingBlock: ZUJKAS_clean_linker_0, # of connection points: 2
#     Edge 81, Type (0, 0), BuildingBlock: ZUJKAS_clean_linker_0, # of connection points: 2
#     Edge 82, Type (0, 0), BuildingBlock: ZUJKAS_clean_linker_0, # of connection points: 2
#     Edge 83, Type (0, 0), BuildingBlock: ZUJKAS_clean_linker_0, # of connection points: 2
#     Edge 84, Type (0, 0), BuildingBlock: ZUJKAS_clean_linker_0, # of connection points: 2
#     Edge 85, Type (0, 0), BuildingBlock: ZUJKAS_clean_linker_0, # of connection points: 2
#     Edge 86, Type (0, 0), BuildingBlock: ZUJKAS_clean_linker_0, # of connection points: 2
#     Edge 87, Type (0, 0), BuildingBlock: ZUJKAS_clean_linker_0, # of connection points: 2
#     Edge 88, Type (0, 0), BuildingBlock: ZUJKAS_clean_linker_0, # of connection points: 2
#     Edge 89, Type (0, 0), BuildingBlock: ZUJKAS_clean_linker_0, # of connection points: 2
#     Edge 90, Type (0, 0), BuildingBlock: ZUJKAS_clean_linker_0, # of connection points: 2
#     Edge 91, Type (0, 0), BuildingBlock: ZUJKAS_clean_linker_0, # of connection points: 2
#     Edge 92, Type (0, 0), BuildingBlock: ZUJKAS_clean_linker_0, # of connection points: 2
#     Edge 93, Type (0, 0), BuildingBlock: ZUJKAS_clean_linker_0, # of connection points: 2
#     Edge 94, Type (0, 0), BuildingBlock: ZUJKAS_clean_linker_0, # of connection points: 2
#     Edge 95, Type (0, 0), BuildingBlock: ZUJKAS_clean_linker_0, # of connection points: 2
#     Edge 96, Type (0, 0), BuildingBlock: ZUJKAS_clean_linker_0, # of connection points: 2
#     Edge 97, Type (0, 0), BuildingBlock: ZUJKAS_clean_linker_0, # of connection points: 2
#     Edge 98, Type (0, 0), BuildingBlock: ZUJKAS_clean_linker_0, # of connection points: 2
#     Edge 99, Type (0, 0), BuildingBlock: ZUJKAS_clean_linker_0, # of connection points: 2
#     Edge 100, Type (0, 0), BuildingBlock: ZUJKAS_clean_linker_0, # of connection points: 2
#     Edge 101, Type (0, 0), BuildingBlock: ZUJKAS_clean_linker_0, # of connection points: 2
#     Edge 102, Type (0, 0), BuildingBlock: ZUJKAS_clean_linker_0, # of connection points: 2
#     Edge 103, Type (0, 0), BuildingBlock: ZUJKAS_clean_linker_0, # of connection points: 2
#     Edge 104, Type (0, 0), BuildingBlock: ZUJKAS_clean_linker_0, # of connection points: 2
#     Edge 105, Type (0, 0), BuildingBlock: ZUJKAS_clean_linker_0, # of connection points: 2
#     Edge 106, Type (0, 0), BuildingBlock: ZUJKAS_clean_linker_0, # of connection points: 2
#     Edge 107, Type (0, 0), BuildingBlock: ZUJKAS_clean_linker_0, # of connection points: 2
#     Edge 108, Type (0, 0), BuildingBlock: ZUJKAS_clean_linker_0, # of connection points: 2
#     Edge 109, Type (0, 0), BuildingBlock: ZUJKAS_clean_linker_0, # of connection points: 2
#     Edge 110, Type (0, 0), BuildingBlock: ZUJKAS_clean_linker_0, # of connection points: 2
#     Edge 111, Type (0, 0), BuildingBlock: ZUJKAS_clean_linker_0, # of connection points: 2
#     Edge 112, Type (0, 0), BuildingBlock: ZUJKAS_clean_linker_0, # of connection points: 2
#     Edge 113, Type (0, 0), BuildingBlock: ZUJKAS_clean_linker_0, # of connection points: 2
#     Edge 114, Type (0, 0), BuildingBlock: ZUJKAS_clean_linker_0, # of connection points: 2
#     Edge 115, Type (0, 0), BuildingBlock: ZUJKAS_clean_linker_0, # of connection points: 2
#     Edge 116, Type (0, 0), BuildingBlock: ZUJKAS_clean_linker_0, # of connection points: 2
#     Edge 117, Type (0, 0), BuildingBlock: ZUJKAS_clean_linker_0, # of connection points: 2
#     Edge 118, Type (0, 0), BuildingBlock: ZUJKAS_clean_linker_0, # of connection points: 2
#     Edge 119, Type (0, 0), BuildingBlock: ZUJKAS_clean_linker_0, # of connection points: 2
#     Edge 120, Type (0, 0), BuildingBlock: ZUJKAS_clean_linker_0, # of connection points: 2
#     Edge 121, Type (0, 0), BuildingBlock: ZUJKAS_clean_linker_0, # of connection points: 2
#     Edge 122, Type (0, 0), BuildingBlock: ZUJKAS_clean_linker_0, # of connection points: 2
#     Edge 123, Type (0, 0), BuildingBlock: ZUJKAS_clean_linker_0, # of connection points: 2
#     Edge 124, Type (0, 0), BuildingBlock: ZUJKAS_clean_linker_0, # of connection points: 2
#     Edge 125, Type (0, 0), BuildingBlock: ZUJKAS_clean_linker_0, # of connection points: 2
#     Edge 126, Type (0, 0), BuildingBlock: ZUJKAS_clean_linker_0, # of connection points: 2
#     Edge 127, Type (0, 0), BuildingBlock: ZUJKAS_clean_linker_0, # of connection points: 2
#     Edge 128, Type (0, 0), BuildingBlock: ZUJKAS_clean_linker_0, # of connection points: 2
#     Edge 129, Type (0, 0), BuildingBlock: ZUJKAS_clean_linker_0, # of connection points: 2
#     Edge 130, Type (0, 0), BuildingBlock: ZUJKAS_clean_linker_0, # of connection points: 2
#     Edge 131, Type (0, 0), BuildingBlock: ZUJKAS_clean_linker_0, # of connection points: 2
#     Edge 132, Type (0, 0), BuildingBlock: ZUJKAS_clean_linker_0, # of connection points: 2
#     Edge 133, Type (0, 0), BuildingBlock: ZUJKAS_clean_linker_0, # of connection points: 2
#     Edge 134, Type (0, 0), BuildingBlock: ZUJKAS_clean_linker_0, # of connection points: 2
#     Edge 135, Type (0, 0), BuildingBlock: ZUJKAS_clean_linker_0, # of connection points: 2
#     Edge 136, Type (0, 0), BuildingBlock: ZUJKAS_clean_linker_0, # of connection points: 2
#     Edge 137, Type (0, 0), BuildingBlock: ZUJKAS_clean_linker_0, # of connection points: 2
#     Edge 138, Type (0, 0), BuildingBlock: ZUJKAS_clean_linker_0, # of connection points: 2
#     Edge 139, Type (0, 0), BuildingBlock: ZUJKAS_clean_linker_0, # of connection points: 2
#     Edge 140, Type (0, 0), BuildingBlock: ZUJKAS_clean_linker_0, # of connection points: 2
#     Edge 141, Type (0, 0), BuildingBlock: ZUJKAS_clean_linker_0, # of connection points: 2
#     Edge 142, Type (0, 0), BuildingBlock: ZUJKAS_clean_linker_0, # of connection points: 2
#     Edge 143, Type (0, 0), BuildingBlock: ZUJKAS_clean_linker_0, # of connection points: 2
# Relax obj value: 0.526
# Max RMSD: 0.259
# Mean RMSD: 0.214
data_MOF--net-unx--node1-GALJAG_clean_sbu_0--edge1-ZUJKAS_clean_linker_0
_symmetry_space_group_name_H-M    P1
_symmetry_Int_Tables_number       1
_symmetry_cell_setting            triclinic
loop_
_symmetry_equiv_pos_as_xyz
'x, y, z'
_cell_length_a     70.78544
_cell_length_b     71.03405
_cell_length_c     70.166759
_cell_angle_alpha  89.882544
_cell_angle_beta   90.083549
_cell_angle_gamma 90.423706
loop_
_atom_site_label
_atom_site_type_symbol
_atom_site_fract_x
_atom_site_fract_y
_atom_site_fract_z
_atom_type_partial_charge
In0 In 0.18894 0.54676 0.21967 0.0
O1 O 0.20982 0.56875 0.23043 0.0
O2 O 0.21279 0.54052 0.24036 0.0
C3 C 0.16792 0.56645 0.19465 0.0
C4 C 0.20913 0.52663 0.19472 0.0
C5 C 0.16215 0.53827 0.24551 0.0
O6 O 0.17941 0.57438 0.20592 0.0
O7 O 0.16712 0.54878 0.19608 0.0
O8 O 0.16915 0.52591 0.2347 0.0
O9 O 0.16941 0.55446 0.24386 0.0
C10 C 0.21941 0.55711 0.24002 0.0
O11 O 0.19565 0.51913 0.20392 0.0
O12 O 0.21196 0.54383 0.19805 0.0
In13 In 0.65367 0.32255 0.4818 0.0
O14 O 0.62531 0.31902 0.46649 0.0
O15 O 0.64987 0.30748 0.45366 0.0
C16 C 0.64709 0.34862 0.50862 0.0
C17 C 0.65734 0.28941 0.49996 0.0
C18 C 0.67709 0.34518 0.462 0.0
O19 O 0.63478 0.34384 0.49644 0.0
O20 O 0.66213 0.33914 0.50816 0.0
O21 O 0.68286 0.32978 0.46898 0.0
O22 O 0.65987 0.34858 0.46477 0.0
C23 C 0.63227 0.30997 0.45271 0.0
O24 O 0.67132 0.29776 0.49241 0.0
O25 O 0.64202 0.29835 0.49925 0.0
In26 In 0.93503 0.91342 0.68578 0.0
O27 O 0.92062 0.90222 0.71257 0.0
O28 O 0.91883 0.93158 0.70659 0.0
C29 C 0.9495 0.88288 0.66869 0.0
C30 C 0.90618 0.91853 0.66145 0.0
C31 C 0.96773 0.93187 0.69206 0.0
O32 O 0.94245 0.88199 0.68524 0.0
O33 O 0.94928 0.89899 0.66115 0.0
O34 O 0.95566 0.93755 0.68009 0.0
O35 O 0.96273 0.91759 0.70161 0.0
C36 C 0.91366 0.91797 0.71704 0.0
O37 O 0.92019 0.92972 0.66168 0.0
O38 O 0.90704 0.90514 0.67321 0.0
In39 In 0.32547 0.06793 0.91654 0.0
O40 O 0.35464 0.08251 0.91771 0.0
O41 O 0.3353 0.09018 0.89586 0.0
C42 C 0.32861 0.0379 0.93969 0.0
C43 C 0.30238 0.09255 0.93375 0.0
C44 C 0.32255 0.0484 0.88395 0.0
O45 O 0.34214 0.04929 0.93684 0.0
O46 O 0.31321 0.04239 0.9318 0.0
O47 O 0.30972 0.05958 0.88917 0.0
O48 O 0.33627 0.04695 0.89532 0.0
C49 C 0.35139 0.09256 0.90317 0.0
O50 O 0.29722 0.08308 0.91939 0.0
O51 O 0.31863 0.08868 0.93998 0.0
In52 In 0.06728 0.39739 0.80564 0.0
O53 O 0.07309 0.36669 0.81301 0.0
O54 O 0.0448 0.37424 0.80689 0.0
C55 C 0.08958 0.40116 0.77466 0.0
C56 C 0.03555 0.4181 0.80399 0.0
C57 C 0.08927 0.40525 0.83623 0.0
O58 O 0.08374 0.38535 0.78052 0.0
O59 O 0.08315 0.41506 0.78368 0.0
O60 O 0.09309 0.41107 0.8197 0.0
O61 O 0.07383 0.39641 0.8375 0.0
C62 C 0.05602 0.36156 0.81217 0.0
O63 O 0.04703 0.41913 0.81774 0.0
O64 O 0.04068 0.40747 0.79059 0.0
In65 In 0.81117 0.42977 0.08161 0.0
O66 O 0.79903 0.43816 0.11073 0.0
O67 O 0.8255 0.44971 0.10198 0.0
C68 C 0.7864 0.40434 0.06773 0.0
C69 C 0.81007 0.45996 0.05848 0.0
C70 C 0.83913 0.4057 0.09022 0.0
O71 O 0.78356 0.41305 0.08315 0.0
O72 O 0.80103 0.40947 0.05878 0.0
O73 O 0.84091 0.41773 0.07701 0.0
O74 O 0.82341 0.40585 0.0986 0.0
C75 C 0.813 0.44867 0.11472 0.0
O76 O 0.82376 0.44863 0.05857 0.0
O77 O 0.79644 0.45534 0.06918 0.0
In78 In 0.81112 0.05143 0.28186 0.0
O79 O 0.82189 0.07855 0.29569 0.0
O80 O 0.83562 0.05286 0.30268 0.0
C81 C 0.77869 0.06921 0.27302 0.0
C82 C 0.83535 0.04537 0.25284 0.0
C83 C 0.79485 0.02323 0.30206 0.0
O84 O 0.78741 0.07199 0.28848 0.0
O85 O 0.78681 0.05814 0.26165 0.0
O86 O 0.80773 0.0337 0.30857 0.0
O87 O 0.79098 0.02606 0.28474 0.0
C88 C 0.83481 0.07045 0.30501 0.0
O89 O 0.82913 0.03214 0.26317 0.0
O90 O 0.8285 0.06127 0.2565 0.0
In91 In 0.17903 0.18183 0.52539 0.0
O92 O 0.20768 0.16893 0.51841 0.0
O93 O 0.20174 0.17541 0.54725 0.0
C94 C 0.17712 0.21236 0.50242 0.0
C95 C 0.16703 0.14756 0.51379 0.0
C96 C 0.15862 0.1948 0.55485 0.0
O97 O 0.19127 0.20893 0.51278 0.0
O98 O 0.16441 0.19983 0.50284 0.0
O99 O 0.15142 0.18497 0.54167 0.0
O100 O 0.1761 0.19802 0.55315 0.0
C101 C 0.21283 0.16777 0.53559 0.0
O102 O 0.16526 0.15323 0.53072 0.0
O103 O 0.1737 0.15967 0.50237 0.0
In104 In 0.1748 0.92815 0.42613 0.0
O105 O 0.20281 0.91232 0.42587 0.0
O106 O 0.18308 0.9062 0.44796 0.0
C107 C 0.17437 0.94942 0.39443 0.0
C108 C 0.14845 0.9036 0.41368 0.0
C109 C 0.17467 0.95644 0.45153 0.0
O110 O 0.18816 0.93879 0.39826 0.0
O111 O 0.1614 0.94949 0.40672 0.0
O112 O 0.16066 0.94548 0.44933 0.0
O113 O 0.18902 0.95242 0.44166 0.0
C114 C 0.19861 0.90222 0.44015 0.0
O115 O 0.14534 0.91422 0.42779 0.0
O116 O 0.16455 0.9055 0.40628 0.0
In117 In 0.31006 0.45421 0.70943 0.0
O118 O 0.29147 0.48045 0.71154 0.0
O119 O 0.30449 0.47455 0.68512 0.0
C120 C 0.33597 0.45492 0.7377 0.0
C121 C 0.27734 0.43653 0.71785 0.0
C122 C 0.33096 0.43689 0.68287 0.0
O123 O 0.33165 0.46953 0.72842 0.0
O124 O 0.32652 0.44046 0.73336 0.0
O125 O 0.31787 0.42859 0.69188 0.0
O126 O 0.33344 0.45397 0.68722 0.0
C127 C 0.29297 0.4846 0.69412 0.0
O128 O 0.2857 0.43435 0.70214 0.0
O129 O 0.28596 0.44693 0.72963 0.0
In130 In 0.82957 0.67836 0.9723 0.0
O131 O 0.85711 0.67725 0.9554 0.0
O132 O 0.83438 0.69315 0.94399 0.0
C133 C 0.83388 0.65071 0.99809 0.0
C134 C 0.83196 0.71079 0.99192 0.0
C135 C 0.80186 0.66023 0.95355 0.0
O136 O 0.84633 0.65462 0.98575 0.0
O137 O 0.81993 0.66174 0.9983 0.0
O138 O 0.79973 0.6771 0.95889 0.0
O139 O 0.81763 0.6531 0.95746 0.0
C140 C 0.85115 0.68763 0.94206 0.0
O141 O 0.81641 0.70473 0.98533 0.0
O142 O 0.84579 0.69998 0.98945 0.0
In143 In 0.56621 0.09816 0.19003 0.0
O144 O 0.58298 0.11301 0.21342 0.0
O145 O 0.5823 0.08304 0.2135 0.0
C146 C 0.55323 0.12706 0.16905 0.0
C147 C 0.59301 0.0878 0.16513 0.0
C148 C 0.53292 0.0826 0.20024 0.0
O149 O 0.558 0.12918 0.18631 0.0
O150 O 0.55505 0.11059 0.16269 0.0
O151 O 0.54539 0.07327 0.19156 0.0
O152 O 0.53774 0.0992 0.20449 0.0
C153 C 0.589 0.09793 0.22078 0.0
O154 O 0.57743 0.07896 0.16621 0.0
O155 O 0.59482 0.10134 0.17658 0.0
In156 In 0.53402 0.29494 0.00295 0.0
O157 O 0.56431 0.30455 0.99619 0.0
O158 O 0.55524 0.27709 0.98768 0.0
C159 C 0.52304 0.32013 0.02916 0.0
C160 C 0.51744 0.30036 0.96898 0.0
C161 C 0.53014 0.26563 0.02706 0.0
O162 O 0.54025 0.31744 0.02531 0.0
O163 O 0.51158 0.31146 0.0185 0.0
O164 O 0.5166 0.27109 0.0167 0.0
O165 O 0.54545 0.27446 0.02464 0.0
C166 C 0.56839 0.2892 0.98803 0.0
O167 O 0.51508 0.28546 0.9786 0.0
O168 O 0.52719 0.31297 0.97712 0.0
In169 In 0.00905 0.77713 0.26636 0.0
O170 O 0.98749 0.76066 0.28416 0.0
O171 O 0.01393 0.74792 0.27855 0.0
C172 C 0.98591 0.80378 0.25212 0.0
C173 C 0.02976 0.79353 0.29394 0.0
C174 C 0.02565 0.76879 0.23296 0.0
O175 O 0.9841 0.78667 0.24761 0.0
O176 O 0.99847 0.807 0.2644 0.0
O177 O 0.03275 0.78052 0.24451 0.0
O178 O 0.01075 0.76075 0.23872 0.0
C179 C 0.99835 0.74693 0.28716 0.0
O180 O 0.03735 0.78574 0.27968 0.0
O181 O 0.01194 0.79306 0.29406 0.0
In182 In 0.41894 0.29507 0.51603 0.0
O183 O 0.38856 0.28485 0.51073 0.0
O184 O 0.39689 0.31181 0.50029 0.0
C185 C 0.43369 0.26766 0.53782 0.0
C186 C 0.43884 0.29541 0.48343 0.0
C187 C 0.41543 0.32117 0.54355 0.0
O188 O 0.41758 0.26611 0.53015 0.0
O189 O 0.44275 0.28238 0.53331 0.0
O190 O 0.426 0.32391 0.52927 0.0
O191 O 0.40712 0.30544 0.54383 0.0
C192 C 0.38382 0.29983 0.50224 0.0
O193 O 0.44113 0.30768 0.49626 0.0
O194 O 0.42717 0.28247 0.48749 0.0
In195 In 0.99907 0.66499 0.76576 0.0
O196 O 0.99214 0.63351 0.76443 0.0
O197 O 0.97414 0.65267 0.74982 0.0
C198 C 0.02654 0.66884 0.79187 0.0
C199 C 0.01494 0.67296 0.732 0.0
C200 C 0.97386 0.68131 0.7888 0.0
O201 O 0.01954 0.65295 0.78757 0.0
O202 O 0.02082 0.68241 0.78175 0.0
O203 O 0.97889 0.68921 0.77339 0.0
O204 O 0.98102 0.6654 0.79185 0.0
C205 C 0.97761 0.63581 0.75417 0.0
O206 O 0.00247 0.68335 0.73935 0.0
O207 O 0.02006 0.65925 0.74222 0.0
In208 In 0.08949 0.70557 0.01875 0.0
O209 O 0.08116 0.67806 0.03414 0.0
O210 O 0.10397 0.69456 0.04498 0.0
C211 C 0.06942 0.70602 0.98633 0.0
C212 C 0.07503 0.73242 0.04121 0.0
C213 C 0.1229 0.69994 0.00177 0.0
O214 O 0.06824 0.69267 0.99827 0.0
O215 O 0.07974 0.71973 0.99146 0.0
O216 O 0.12005 0.71442 0.01185 0.0
O217 O 0.10905 0.68878 0.00037 0.0
C218 C 0.09375 0.6801 0.04682 0.0
O219 O 0.09136 0.73395 0.03399 0.0
O220 O 0.06567 0.71822 0.03574 0.0
In221 In 0.48984 0.82584 0.23929 0.0
O222 O 0.47894 0.85595 0.23898 0.0
O223 O 0.4659 0.83615 0.25782 0.0
C224 C 0.51101 0.83291 0.20822 0.0
C225 C 0.5095 0.82104 0.27185 0.0
C226 C 0.46781 0.79989 0.22162 0.0
O227 O 0.49765 0.84348 0.21326 0.0
O228 O 0.51449 0.81961 0.21963 0.0
O229 O 0.4851 0.79714 0.22484 0.0
O230 O 0.46152 0.81486 0.22866 0.0
C231 C 0.46643 0.8528 0.25149 0.0
O232 O 0.49713 0.80939 0.26624 0.0
O233 O 0.51271 0.83441 0.26043 0.0
In234 In 0.49982 0.21454 0.75976 0.0
O235 O 0.52286 0.20634 0.73866 0.0
O236 O 0.5167 0.18737 0.76115 0.0
C237 C 0.51465 0.24174 0.78209 0.0
C238 C 0.48186 0.22412 0.7272 0.0
C239 C 0.4746 0.19855 0.78383 0.0
O240 O 0.52138 0.22532 0.78152 0.0
O241 O 0.50126 0.24461 0.7706 0.0
O242 O 0.47844 0.2159 0.78406 0.0
O243 O 0.48291 0.18938 0.77098 0.0
C244 C 0.52564 0.19034 0.74589 0.0
O245 O 0.47526 0.21203 0.73863 0.0
O246 O 0.49689 0.23202 0.73273 0.0
In247 In 0.51755 0.32113 0.25989 0.0
O248 O 0.50976 0.33753 0.28657 0.0
O249 O 0.49169 0.31498 0.27816 0.0
C250 C 0.5401 0.34975 0.249 0.0
C251 C 0.53894 0.29603 0.27895 0.0
C252 C 0.50121 0.31401 0.22589 0.0
O253 O 0.52443 0.35254 0.25716 0.0
O254 O 0.54418 0.33267 0.24645 0.0
O255 O 0.5138 0.30359 0.23292 0.0
O256 O 0.49599 0.3272 0.23661 0.0
C257 C 0.49561 0.32733 0.29051 0.0
O258 O 0.52167 0.29303 0.27554 0.0
O259 O 0.54552 0.31077 0.27141 0.0
In260 In 0.19683 0.99413 0.67534 0.0
O261 O 0.20096 0.00098 0.64371 0.0
O262 O 0.21506 0.01803 0.66434 0.0
C263 C 0.16439 0.97426 0.67208 0.0
C264 C 0.22782 0.97322 0.68183 0.0
C265 C 0.18169 0.01978 0.69896 0.0
O266 O 0.17022 0.98529 0.6592 0.0
O267 O 0.17557 0.97228 0.68595 0.0
O268 O 0.18904 0.00483 0.70524 0.0
O269 O 0.18272 0.02187 0.68116 0.0
C270 C 0.21187 0.01481 0.64694 0.0
O271 O 0.22349 0.98713 0.69207 0.0
O272 O 0.2159 0.96918 0.66906 0.0
In273 In 0.81973 0.93611 0.99242 0.0
O274 O 0.84152 0.91428 0.98361 0.0
O275 O 0.83486 0.9167 0.01302 0.0
C276 C 0.81111 0.9533 0.95933 0.0
C277 C 0.78855 0.91485 0.99762 0.0
C278 C 0.83029 0.96776 0.01069 0.0
O279 O 0.82642 0.94445 0.96152 0.0
O280 O 0.80027 0.953 0.97358 0.0
O281 O 0.81585 0.95829 0.01538 0.0
O282 O 0.84013 0.96048 0.99769 0.0
C283 C 0.84352 0.90775 0.00026 0.0
O284 O 0.79349 0.92744 0.00937 0.0
O285 O 0.79904 0.91343 0.98318 0.0
In286 In 0.93598 0.50518 0.30903 0.0
O287 O 0.91489 0.51122 0.33277 0.0
O288 O 0.92297 0.53381 0.31466 0.0
C289 C 0.94915 0.47174 0.32143 0.0
C290 C 0.91137 0.49822 0.28064 0.0
C291 C 0.97007 0.52001 0.30078 0.0
O292 O 0.95065 0.48649 0.33135 0.0
O293 O 0.94035 0.47381 0.30598 0.0
O294 O 0.95933 0.51308 0.28819 0.0
O295 O 0.96318 0.52031 0.31737 0.0
C296 C 0.9123 0.52812 0.32787 0.0
O297 O 0.92584 0.50853 0.2783 0.0
O298 O 0.90966 0.49119 0.2971 0.0
In299 In 0.26155 0.67977 0.49192 0.0
O300 O 0.26619 0.70384 0.47072 0.0
O301 O 0.2407 0.70342 0.48676 0.0
C302 C 0.2852 0.65768 0.47216 0.0
C303 C 0.28039 0.69748 0.52026 0.0
C304 C 0.23425 0.65368 0.498 0.0
O305 O 0.27444 0.66938 0.46404 0.0
O306 O 0.28413 0.65739 0.4901 0.0
O307 O 0.24602 0.65828 0.51073 0.0
O308 O 0.23563 0.663 0.48277 0.0
C309 C 0.25096 0.71204 0.47484 0.0
O310 O 0.26273 0.69883 0.51833 0.0
O311 O 0.2881 0.68627 0.50884 0.0
In312 In 0.05626 0.00517 0.19659 0.0
O313 O 0.03518 0.02554 0.20938 0.0
O314 O 0.0308 0.01661 0.18072 0.0
C315 C 0.07928 0.99916 0.22652 0.0
C316 C 0.03795 0.97196 0.19403 0.0
C317 C 0.08354 0.02139 0.17543 0.0
O318 O 0.06607 0.01105 0.22715 0.0
O319 O 0.0804 0.99014 0.21111 0.0
O320 O 0.07849 0.00444 0.17314 0.0
O321 O 0.07351 0.03051 0.18699 0.0
C322 C 0.02466 0.02577 0.1948 0.0
O323 O 0.04607 0.97929 0.17972 0.0
O324 O 0.03971 0.9811 0.20933 0.0
In325 In 0.75241 0.81845 0.5196 0.0
O326 O 0.73758 0.83789 0.49844 0.0
O327 O 0.72421 0.83215 0.52504 0.0
C328 C 0.78063 0.80083 0.50167 0.0
C329 C 0.77202 0.84416 0.53977 0.0
C330 C 0.73683 0.78551 0.52998 0.0
O331 O 0.76784 0.80916 0.49227 0.0
O332 O 0.77931 0.80224 0.51951 0.0
O333 O 0.74479 0.7964 0.54185 0.0
O334 O 0.73558 0.79194 0.51321 0.0
C335 C 0.72392 0.84121 0.50955 0.0
O336 O 0.76223 0.83142 0.54773 0.0
O337 O 0.77187 0.8438 0.52179 0.0
In338 In 0.81279 0.49038 0.81256 0.0
O339 O 0.82109 0.5016 0.78282 0.0
O340 O 0.83693 0.5101 0.80729 0.0
C341 C 0.7818 0.46866 0.80915 0.0
C342 C 0.84116 0.46671 0.82027 0.0
C343 C 0.79695 0.51833 0.8326 0.0
O344 O 0.78858 0.47765 0.79509 0.0
O345 O 0.7912 0.47003 0.82439 0.0
O346 O 0.80708 0.50586 0.84036 0.0
O347 O 0.79492 0.51667 0.81481 0.0
C348 C 0.83505 0.51079 0.78944 0.0
O349 O 0.83517 0.47838 0.8324 0.0
O350 O 0.83181 0.46604 0.80492 0.0
In351 In 0.31169 0.563 0.99435 0.0
O352 O 0.31433 0.5555 0.02602 0.0
O353 O 0.29099 0.54448 0.01025 0.0
C354 C 0.3375 0.59031 0.98875 0.0
C355 C 0.32276 0.53112 0.97736 0.0
C356 C 0.28266 0.58635 0.98803 0.0
O357 O 0.33417 0.58346 0.00507 0.0
O358 O 0.3291 0.58209 0.97518 0.0
O359 O 0.28757 0.5743 0.97575 0.0
O360 O 0.29194 0.58601 0.00336 0.0
C361 C 0.29956 0.54533 0.02599 0.0
O362 O 0.30802 0.53983 0.97237 0.0
O363 O 0.33272 0.53945 0.98975 0.0
In364 In 0.24741 0.31567 0.98953 0.0
O365 O 0.24602 0.29624 0.01551 0.0
O366 O 0.22396 0.3159 0.01168 0.0
C367 C 0.27345 0.34288 0.99651 0.0
C368 C 0.25633 0.28213 0.97407 0.0
C369 C 0.22435 0.33304 0.9645 0.0
O370 O 0.25823 0.3415 0.00572 0.0
O371 O 0.27601 0.32993 0.98457 0.0
O372 O 0.24188 0.33157 0.96169 0.0
O373 O 0.21847 0.32534 0.97959 0.0
C374 C 0.2302 0.30212 0.02108 0.0
O375 O 0.24184 0.29119 0.96919 0.0
O376 O 0.26676 0.29041 0.98606 0.0
In377 In 0.30712 0.00054 0.20116 0.0
O378 O 0.2793 0.00723 0.21592 0.0
O379 O 0.28871 0.02584 0.19416 0.0
C380 C 0.32054 0.97295 0.22366 0.0
C381 C 0.29545 0.97999 0.17113 0.0
C382 C 0.3388 0.02182 0.20202 0.0
O383 O 0.31244 0.98721 0.23056 0.0
O384 O 0.32123 0.97254 0.20572 0.0
O385 O 0.33132 0.01654 0.18655 0.0
O386 O 0.32972 0.0173 0.2168 0.0
C387 C 0.27577 0.02142 0.2057 0.0
O388 O 0.30929 0.99133 0.17008 0.0
O389 O 0.28757 0.97919 0.18724 0.0
In390 In 0.69251 0.06149 0.49854 0.0
O391 O 0.67208 0.08402 0.48807 0.0
O392 O 0.67651 0.08129 0.51791 0.0
C393 C 0.69995 0.04538 0.46478 0.0
C394 C 0.72343 0.0826 0.50563 0.0
C395 C 0.68251 0.02904 0.51582 0.0
O396 O 0.68475 0.0542 0.46769 0.0
O397 O 0.71126 0.04509 0.47871 0.0
O398 O 0.69838 0.03686 0.51838 0.0
O399 O 0.67116 0.03835 0.50568 0.0
C400 C 0.66903 0.0905 0.50453 0.0
O401 O 0.71477 0.07393 0.51876 0.0
O402 O 0.71693 0.07997 0.48911 0.0
In403 In 0.55837 0.46703 0.78791 0.0
O404 O 0.57224 0.45892 0.7595 0.0
O405 O 0.58061 0.48445 0.77308 0.0
C406 C 0.5266 0.44658 0.79123 0.0
C407 C 0.58515 0.4527 0.81068 0.0
C408 C 0.53976 0.49975 0.78732 0.0
O409 O 0.53633 0.44675 0.77611 0.0
O410 O 0.53379 0.45552 0.80505 0.0
O411 O 0.55004 0.4951 0.80134 0.0
O412 O 0.53928 0.4881 0.77376 0.0
C413 C 0.583 0.47324 0.75941 0.0
O414 O 0.57823 0.46884 0.81347 0.0
O415 O 0.5771 0.44328 0.79774 0.0
In416 In 0.51368 0.71863 0.73559 0.0
O417 O 0.53326 0.72989 0.75852 0.0
O418 O 0.50356 0.7331 0.76251 0.0
C419 C 0.53776 0.70407 0.70994 0.0
C420 C 0.50064 0.68638 0.75083 0.0
C421 C 0.49887 0.74534 0.71299 0.0
O422 O 0.54332 0.71499 0.72303 0.0
O423 O 0.52029 0.70057 0.70999 0.0
O424 O 0.48989 0.73042 0.71712 0.0
O425 O 0.51464 0.74714 0.7212 0.0
C426 C 0.52002 0.73523 0.76927 0.0
O427 O 0.49029 0.6964 0.74019 0.0
O428 O 0.51709 0.69272 0.75356 0.0
In429 In 0.03272 0.20657 0.988 0.0
O430 O 0.01383 0.21873 0.01099 0.0
O431 O 0.02404 0.19083 0.01486 0.0
C432 C 0.031 0.2336 0.9612 0.0
C433 C 0.06688 0.21266 0.00359 0.0
C434 C 0.02074 0.18022 0.9632 0.0
O435 O 0.01755 0.23079 0.97276 0.0
O436 O 0.04526 0.22338 0.9638 0.0
O437 O 0.03797 0.18212 0.96764 0.0
O438 O 0.0096 0.19025 0.97277 0.0
C439 C 0.01499 0.20448 0.02176 0.0
O440 O 0.06197 0.19649 0.99769 0.0
O441 O 0.05474 0.22537 0.00125 0.0
In442 In 0.91707 0.20627 0.47852 0.0
O443 O 0.92785 0.18064 0.46185 0.0
O444 O 0.90433 0.19604 0.45113 0.0
C445 C 0.93625 0.20731 0.51157 0.0
C446 C 0.92908 0.23506 0.45672 0.0
C447 C 0.88399 0.1955 0.49382 0.0
O448 O 0.93885 0.19459 0.49926 0.0
O449 O 0.92491 0.22008 0.5066 0.0
O450 O 0.88679 0.21239 0.4886 0.0
O451 O 0.89777 0.18463 0.49136 0.0
C452 C 0.91551 0.18249 0.44887 0.0
O453 O 0.9124 0.23425 0.46319 0.0
O454 O 0.93991 0.22226 0.46269 0.0
In455 In 0.01442 0.17085 0.73032 0.0
O456 O 0.034 0.19617 0.72361 0.0
O457 O 0.03122 0.17388 0.70347 0.0
C458 C 0.00038 0.17681 0.76535 0.0
C459 C 0.98569 0.17407 0.70547 0.0
C460 C 0.037 0.14175 0.739 0.0
O461 O 0.0118 0.18818 0.75748 0.0
O462 O 0.99519 0.16316 0.75503 0.0
O463 O 0.02231 0.13968 0.72892 0.0
O464 O 0.04008 0.15832 0.74466 0.0
C465 C 0.03843 0.18965 0.70744 0.0
O466 O 0.99311 0.15839 0.70947 0.0
O467 O 0.99162 0.18775 0.71536 0.0
In468 In 0.47348 0.80029 0.48703 0.0
O469 O 0.4862 0.77287 0.47596 0.0
O470 O 0.46464 0.78614 0.45961 0.0
C471 C 0.48868 0.80262 0.52201 0.0
C472 C 0.48979 0.82595 0.46405 0.0
C473 C 0.4379 0.79471 0.49934 0.0
O474 O 0.49135 0.7887 0.51117 0.0
O475 O 0.47932 0.81589 0.51469 0.0
O476 O 0.44355 0.81083 0.49398 0.0
O477 O 0.45 0.78186 0.49801 0.0
C478 C 0.47608 0.77267 0.46107 0.0
O479 O 0.47213 0.82539 0.46678 0.0
O480 O 0.49916 0.81473 0.47427 0.0
In481 In 0.58243 0.8093 0.9806 0.0
O482 O 0.5618 0.82329 0.0008 0.0
O483 O 0.57288 0.79644 0.00856 0.0
C484 C 0.58801 0.83371 0.95177 0.0
C485 C 0.61705 0.81317 0.99585 0.0
C486 C 0.56488 0.78281 0.95974 0.0
O487 O 0.57696 0.83754 0.96537 0.0
O488 O 0.59588 0.81791 0.95296 0.0
O489 O 0.5814 0.78051 0.96624 0.0
O490 O 0.55694 0.79781 0.96494 0.0
C491 C 0.56269 0.81028 0.01312 0.0
O492 O 0.61241 0.79858 0.98656 0.0
O493 O 0.6042 0.82522 0.99764 0.0
In494 In 0.69846 0.50218 0.29644 0.0
O495 O 0.69124 0.49282 0.26598 0.0
O496 O 0.68958 0.47261 0.28828 0.0
C497 C 0.7284 0.52583 0.293 0.0
C498 C 0.66497 0.51997 0.29728 0.0
C499 C 0.70858 0.48064 0.32634 0.0
O500 O 0.7266 0.51108 0.28317 0.0
O501 O 0.71462 0.52916 0.30378 0.0
O502 O 0.69458 0.4916 0.32689 0.0
O503 O 0.71752 0.48074 0.31078 0.0
C504 C 0.68697 0.4762 0.27089 0.0
O505 O 0.67357 0.51539 0.31237 0.0
O506 O 0.67372 0.51652 0.28208 0.0
In507 In 0.18701 0.42751 0.51477 0.0
O508 O 0.20164 0.45228 0.50027 0.0
O509 O 0.17184 0.4536 0.50377 0.0
C510 C 0.21592 0.40388 0.50898 0.0
C511 C 0.18942 0.43973 0.55111 0.0
C512 C 0.16126 0.40231 0.50214 0.0
O513 O 0.21323 0.41807 0.4984 0.0
O514 O 0.2044 0.40208 0.52258 0.0
O515 O 0.16327 0.40621 0.51957 0.0
O516 O 0.17094 0.41249 0.49102 0.0
C517 C 0.18679 0.46184 0.4984 0.0
O518 O 0.1741 0.44024 0.5419 0.0
O519 O 0.20305 0.43261 0.54224 0.0
In520 In 0.4431 0.00137 0.68915 0.0
O521 O 0.45814 0.02122 0.66802 0.0
O522 O 0.44907 0.03222 0.69457 0.0
C523 C 0.41872 0.98036 0.6685 0.0
C524 C 0.47676 0.98564 0.69679 0.0
C525 C 0.41816 0.00714 0.71733 0.0
O526 O 0.42223 0.9974 0.66466 0.0
O527 O 0.42884 0.97355 0.68157 0.0
O528 O 0.43195 0.99604 0.71921 0.0
O529 O 0.41736 0.01557 0.70149 0.0
C530 C 0.45759 0.03518 0.6791 0.0
O531 O 0.46609 0.9919 0.70968 0.0
O532 O 0.46995 0.98633 0.68017 0.0
In533 In 0.74454 0.17762 0.01496 0.0
O534 O 0.73173 0.16679 0.04272 0.0
O535 O 0.7231 0.15362 0.0169 0.0
C536 C 0.74944 0.21135 0.03186 0.0
C537 C 0.77449 0.15458 0.01108 0.0
C538 C 0.72768 0.19262 0.98403 0.0
O539 O 0.73414 0.20216 0.03284 0.0
O540 O 0.76261 0.20305 0.0232 0.0
O541 O 0.74469 0.19612 0.98821 0.0
O542 O 0.71985 0.18047 0.99454 0.0
C543 C 0.72171 0.15424 0.03481 0.0
O544 O 0.76339 0.15812 0.99747 0.0
O545 O 0.77102 0.16342 0.02621 0.0
In546 In 0.99181 0.29278 0.23257 0.0
O547 O 0.01697 0.30377 0.25031 0.0
O548 O 0.99865 0.32355 0.23738 0.0
C549 C 0.0046 0.26451 0.21055 0.0
C550 C 0.97646 0.28142 0.26582 0.0
C551 C 0.96982 0.30803 0.20547 0.0
O552 O 0.01422 0.27925 0.21359 0.0
O553 O 0.98927 0.26359 0.21963 0.0
O554 O 0.963 0.29863 0.21921 0.0
O555 O 0.98758 0.30987 0.20567 0.0
C556 C 0.01259 0.32084 0.24816 0.0
O557 O 0.96795 0.29234 0.25452 0.0
O558 O 0.9922 0.27561 0.25988 0.0
In559 In 0.98299 0.70583 0.51144 0.0
O560 O 0.99344 0.73435 0.52304 0.0
O561 O 0.97081 0.72015 0.53714 0.0
C562 C 0.00032 0.69995 0.47814 0.0
C563 C 0.99886 0.68173 0.53604 0.0
C564 C 0.94875 0.71029 0.49566 0.0
O565 O 0.00237 0.7151 0.48745 0.0
O566 O 0.99053 0.68736 0.48634 0.0
O567 O 0.95223 0.69651 0.50659 0.0
O568 O 0.96238 0.72152 0.493 0.0
C569 C 0.9818 0.73418 0.53674 0.0
O570 O 0.98171 0.68022 0.53103 0.0
O571 O 0.00813 0.69441 0.52745 0.0
In572 In 0.69345 0.96741 0.78276 0.0
O573 O 0.67353 0.98713 0.76658 0.0
O574 O 0.67599 0.959 0.75688 0.0
C575 C 0.71133 0.99467 0.8028 0.0
C576 C 0.67148 0.94712 0.80653 0.0
C577 C 0.72554 0.94974 0.77284 0.0
O578 O 0.71456 0.99199 0.78535 0.0
O579 O 0.69806 0.98478 0.80945 0.0
O580 O 0.71704 0.94648 0.78832 0.0
O581 O 0.71732 0.96125 0.76191 0.0
C582 C 0.6679 0.97464 0.75508 0.0
O583 O 0.68337 0.93954 0.79558 0.0
O584 O 0.6707 0.96482 0.80537 0.0
In585 In 0.34936 0.81844 0.02166 0.0
O586 O 0.36694 0.84114 0.00675 0.0
O587 O 0.3384 0.83706 0.99791 0.0
C588 C 0.3725 0.80428 0.04842 0.0
C589 C 0.32765 0.83928 0.04465 0.0
C590 C 0.34443 0.78641 0.0019 0.0
O591 O 0.37856 0.81494 0.03525 0.0
O592 O 0.35501 0.80075 0.04781 0.0
O593 O 0.33189 0.79274 0.01297 0.0
O594 O 0.35888 0.79679 0.00011 0.0
C595 C 0.35338 0.84673 0.99646 0.0
O596 O 0.32045 0.82655 0.03422 0.0
O597 O 0.34537 0.84079 0.04367 0.0
In598 In 0.43709 0.58862 0.31638 0.0
O599 O 0.44202 0.62053 0.31728 0.0
O600 O 0.4534 0.60352 0.33952 0.0
C601 C 0.4128 0.58333 0.28744 0.0
C602 C 0.46957 0.57286 0.30519 0.0
C603 C 0.41173 0.58169 0.34402 0.0
O604 O 0.41966 0.59937 0.29137 0.0
O605 O 0.41949 0.56989 0.29711 0.0
O606 O 0.42705 0.57261 0.34323 0.0
O607 O 0.40955 0.59377 0.33106 0.0
C608 C 0.45129 0.61981 0.33272 0.0
O609 O 0.45819 0.56438 0.31621 0.0
O610 O 0.46402 0.58865 0.29918 0.0
In611 In 0.68784 0.56784 0.58906 0.0
O612 O 0.6652 0.54844 0.57655 0.0
O613 O 0.694 0.54248 0.57047 0.0
C614 C 0.66259 0.59446 0.59787 0.0
C615 C 0.69518 0.55042 0.62261 0.0
C616 C 0.71133 0.59101 0.56983 0.0
O617 O 0.65783 0.57983 0.5887 0.0
O618 O 0.67984 0.59547 0.60232 0.0
O619 O 0.71524 0.58478 0.58623 0.0
O620 O 0.69645 0.58421 0.56261 0.0
C621 C 0.67691 0.5375 0.56883 0.0
O622 O 0.70422 0.5466 0.60766 0.0
O623 O 0.68348 0.5635 0.62073 0.0
H624 H 0.27299 0.51755 0.02715 0.0
H625 H 0.25877 0.50304 0.05537 0.0
H626 H 0.29515 0.53652 0.09144 0.0
H627 H 0.30986 0.55072 0.06318 0.0
H628 H 0.28976 0.4993 0.10475 0.0
H629 H 0.22148 0.53353 0.0865 0.0
H630 H 0.23097 0.51813 0.06871 0.0
H631 H 0.24324 0.53959 0.07459 0.0
C632 C 0.27808 0.52169 0.0411 0.0
C633 C 0.29232 0.53548 0.04303 0.0
C634 C 0.26993 0.5134 0.05719 0.0
C635 C 0.27565 0.51899 0.07547 0.0
C636 C 0.29051 0.53206 0.07743 0.0
H637 H 0.24558 0.53329 0.18618 0.0
H638 H 0.26213 0.52381 0.15746 0.0
C639 C 0.29884 0.54022 0.06131 0.0
C640 C 0.26522 0.51246 0.09255 0.0
H641 H 0.22304 0.51732 0.11538 0.0
C642 C 0.27508 0.50297 0.10698 0.0
C643 C 0.24599 0.51708 0.09534 0.0
C644 C 0.23478 0.52775 0.08057 0.0
C645 C 0.26649 0.49883 0.12453 0.0
C646 C 0.24768 0.50456 0.12774 0.0
C647 C 0.23743 0.51283 0.11284 0.0
C648 C 0.23959 0.50573 0.14714 0.0
C649 C 0.27783 0.48898 0.13972 0.0
C650 C 0.22152 0.49837 0.15118 0.0
C651 C 0.212 0.50379 0.16777 0.0
C652 C 0.22033 0.51691 0.18018 0.0
C653 C 0.23887 0.52316 0.17677 0.0
C654 C 0.24843 0.51759 0.16044 0.0
H655 H 0.28837 0.47939 0.13326 0.0
H656 H 0.28569 0.49963 0.14821 0.0
H657 H 0.26861 0.48074 0.14949 0.0
H658 H 0.21438 0.48938 0.14097 0.0
H659 H 0.19764 0.49893 0.17007 0.0
H660 H 0.70971 0.33817 0.44198 0.0
H661 H 0.72655 0.36043 0.42086 0.0
H662 H 0.68773 0.40419 0.4368 0.0
H663 H 0.67106 0.38231 0.45757 0.0
H664 H 0.70854 0.37818 0.39008 0.0
H665 H 0.73844 0.43175 0.43847 0.0
H666 H 0.73195 0.40838 0.44647 0.0
H667 H 0.71436 0.42649 0.44448 0.0
C668 C 0.70513 0.35267 0.44124 0.0
C669 C 0.68906 0.35853 0.45127 0.0
C670 C 0.71471 0.36533 0.42922 0.0
C671 C 0.70857 0.38404 0.42752 0.0
C672 C 0.69302 0.38998 0.43821 0.0
H673 H 0.69068 0.47706 0.36053 0.0
H674 H 0.69603 0.45308 0.38495 0.0
C675 C 0.68337 0.37738 0.44993 0.0
C676 C 0.71637 0.39693 0.41286 0.0
H677 H 0.7291 0.44298 0.40688 0.0
C678 C 0.71366 0.39217 0.39365 0.0
C679 C 0.72305 0.41514 0.41759 0.0
C680 C 0.7273 0.42066 0.43789 0.0
C681 C 0.71566 0.40572 0.37918 0.0
C682 C 0.72078 0.42438 0.38412 0.0
C683 C 0.72501 0.42871 0.40316 0.0
C684 C 0.71931 0.43998 0.37021 0.0
C685 C 0.7108 0.40036 0.35894 0.0
C686 C 0.73096 0.44083 0.35408 0.0
C687 C 0.7279 0.4545 0.34006 0.0
C688 C 0.71316 0.46754 0.34202 0.0
C689 C 0.70209 0.46716 0.3586 0.0
C690 C 0.70516 0.45351 0.37258 0.0
H691 H 0.70467 0.38595 0.35795 0.0
H692 H 0.70057 0.41048 0.35279 0.0
H693 H 0.72378 0.40086 0.3501 0.0
H694 H 0.74211 0.43066 0.35213 0.0
H695 H 0.73673 0.45453 0.32747 0.0
H696 H 0.90511 0.93643 0.62673 0.0
H697 H 0.87987 0.93371 0.60269 0.0
H698 H 0.84658 0.90062 0.64205 0.0
H699 H 0.87145 0.90329 0.66584 0.0
H700 H 0.86897 0.89883 0.58874 0.0
H701 H 0.80681 0.93455 0.61868 0.0
H702 H 0.83059 0.93939 0.62683 0.0
H703 H 0.81756 0.91948 0.63605 0.0
C704 C 0.89216 0.92905 0.63035 0.0
C705 C 0.89023 0.91997 0.64804 0.0
C706 C 0.87779 0.9275 0.61665 0.0
C707 C 0.86124 0.91719 0.6207 0.0
C708 C 0.85899 0.90902 0.63876 0.0
H709 H 0.77708 0.84624 0.5783 0.0
H710 H 0.79812 0.8677 0.59567 0.0
C711 C 0.87333 0.91039 0.65228 0.0
C712 C 0.84754 0.91228 0.60552 0.0
H713 H 0.80013 0.90807 0.59754 0.0
C714 C 0.85394 0.9013 0.59028 0.0
C715 C 0.82796 0.91549 0.60764 0.0
C716 C 0.82036 0.92805 0.6231 0.0
C717 C 0.8412 0.89211 0.57806 0.0
C718 C 0.82156 0.89427 0.58101 0.0
C719 C 0.81519 0.9063 0.59543 0.0
C720 C 0.80755 0.88272 0.57051 0.0
C721 C 0.84882 0.8791 0.56296 0.0
C722 C 0.8056 0.88438 0.5507 0.0
C723 C 0.7937 0.87207 0.54075 0.0
C724 C 0.78347 0.85799 0.55049 0.0
C725 C 0.78485 0.85688 0.57042 0.0
C726 C 0.79681 0.86916 0.58035 0.0
H727 H 0.86419 0.87653 0.56473 0.0
H728 H 0.84128 0.86534 0.56332 0.0
H729 H 0.84656 0.88546 0.5487 0.0
H730 H 0.81356 0.89495 0.5429 0.0
H731 H 0.79277 0.87337 0.5254 0.0
H732 H 0.38606 0.02796 0.71492 0.0
H733 H 0.3623 0.0328 0.73968 0.0
H734 H 0.39396 0.99757 0.77814 0.0
H735 H 0.41765 0.99237 0.75331 0.0
H736 H 0.35429 0.9905 0.77826 0.0
H737 H 0.37144 0.06677 0.78599 0.0
H738 H 0.3653 0.05902 0.76241 0.0
H739 H 0.38665 0.05079 0.77339 0.0
C740 C 0.38797 0.02124 0.72866 0.0
C741 C 0.40381 0.00993 0.73228 0.0
C742 C 0.37439 0.02404 0.74277 0.0
C743 C 0.37652 0.01573 0.76078 0.0
C744 C 0.3921 0.00412 0.76431 0.0
H745 H 0.34319 0.01822 0.87365 0.0
H746 H 0.35081 0.00845 0.84136 0.0
C747 C 0.40566 0.00124 0.75017 0.0
C748 C 0.3629 0.01959 0.77624 0.0
H749 H 0.34834 0.05422 0.8063 0.0
C750 C 0.35279 0.00447 0.78427 0.0
C751 C 0.36083 0.03786 0.7839 0.0
C752 C 0.3717 0.05456 0.77612 0.0
C753 C 0.34121 0.00702 0.80026 0.0
C754 C 0.33996 0.0251 0.80853 0.0
C755 C 0.34923 0.04039 0.79985 0.0
C756 C 0.3318 0.02806 0.82769 0.0
C757 C 0.33076 0.99028 0.80842 0.0
C758 C 0.31825 0.04208 0.8308 0.0
C759 C 0.31384 0.04771 0.84938 0.0
C760 C 0.32321 0.03959 0.86499 0.0
C761 C 0.33577 0.02471 0.86186 0.0
C762 C 0.34003 0.019 0.84339 0.0
H763 H 0.32752 0.97974 0.79718 0.0
H764 H 0.3398 0.98335 0.81925 0.0
H765 H 0.31737 0.99455 0.81535 0.0
H766 H 0.31188 0.04935 0.81886 0.0
H767 H 0.30421 0.05931 0.85143 0.0
H768 H 0.18602 0.33531 0.96638 0.0
H769 H 0.16496 0.35274 0.9452 0.0
H770 H 0.21296 0.37231 0.91272 0.0
H771 H 0.23411 0.35452 0.93363 0.0
H772 H 0.1633 0.39077 0.93703 0.0
H773 H 0.17926 0.34937 0.8719 0.0
H774 H 0.18635 0.34181 0.89539 0.0
H775 H 0.19949 0.35992 0.8832 0.0
C776 C 0.19209 0.34325 0.95466 0.0
C777 C 0.21169 0.34341 0.95152 0.0
C778 C 0.18005 0.35326 0.94264 0.0
C779 C 0.18738 0.36364 0.92727 0.0
C780 C 0.20698 0.36409 0.92428 0.0
H781 H 0.12567 0.41811 0.83496 0.0
H782 H 0.15052 0.41202 0.85842 0.0
C783 C 0.21904 0.35396 0.93624 0.0
C784 C 0.17435 0.37373 0.91431 0.0
H785 H 0.15834 0.37473 0.86844 0.0
C786 C 0.16228 0.38736 0.922 0.0
C787 C 0.17308 0.36926 0.89471 0.0
C788 C 0.1851 0.35419 0.88579 0.0
C789 C 0.14877 0.39646 0.91064 0.0
C790 C 0.14723 0.39166 0.89117 0.0
C791 C 0.15967 0.37846 0.88337 0.0
C792 C 0.13183 0.39879 0.87889 0.0
C793 C 0.13619 0.41103 0.91957 0.0
C794 C 0.11302 0.39385 0.8829 0.0
C795 C 0.09881 0.39727 0.86953 0.0
C796 C 0.10321 0.40562 0.8519 0.0
C797 C 0.12184 0.4117 0.84845 0.0
C798 C 0.13606 0.4082 0.8618 0.0
H799 H 0.14263 0.41703 0.93268 0.0
H800 H 0.13321 0.42265 0.90942 0.0
H801 H 0.12255 0.40432 0.92357 0.0
H802 H 0.1095 0.38627 0.89585 0.0
H803 H 0.0846 0.39237 0.87256 0.0
H804 H 0.7957 0.44017 0.14862 0.0
H805 H 0.80522 0.45144 0.18034 0.0
H806 H 0.84671 0.48814 0.15443 0.0
H807 H 0.83729 0.47708 0.12298 0.0
H808 H 0.84183 0.44598 0.19342 0.0
H809 H 0.82475 0.52172 0.19567 0.0
H810 H 0.81372 0.50567 0.179 0.0
H811 H 0.83673 0.51551 0.17409 0.0
C812 C 0.80644 0.45105 0.14973 0.0
C813 C 0.81583 0.45771 0.1334 0.0
C814 C 0.81189 0.45744 0.16782 0.0
C815 C 0.82652 0.47078 0.16972 0.0
C816 C 0.83511 0.47816 0.15331 0.0
H817 H 0.91267 0.51003 0.24357 0.0
H818 H 0.88959 0.50343 0.21835 0.0
C819 C 0.82982 0.4717 0.13534 0.0
C820 C 0.83488 0.47506 0.18858 0.0
H821 H 0.85031 0.51158 0.21618 0.0
C822 C 0.84331 0.46027 0.19869 0.0
C823 C 0.83688 0.49371 0.19531 0.0
C824 C 0.82737 0.51003 0.18553 0.0
C825 C 0.85473 0.46375 0.21466 0.0
C826 C 0.85748 0.48252 0.22085 0.0
C827 C 0.84829 0.49723 0.2113 0.0
C828 C 0.87079 0.48722 0.23644 0.0
C829 C 0.86464 0.44744 0.2241 0.0
C830 C 0.8677 0.4805 0.25498 0.0
C831 C 0.88091 0.48412 0.26935 0.0
C832 C 0.89736 0.49466 0.26544 0.0
C833 C 0.90018 0.50178 0.24697 0.0
C834 C 0.88699 0.49809 0.23259 0.0
H835 H 0.86409 0.43451 0.21523 0.0
H836 H 0.87967 0.45101 0.22701 0.0
H837 H 0.85769 0.44425 0.2379 0.0
H838 H 0.85513 0.47236 0.25831 0.0
H839 H 0.87825 0.47862 0.28351 0.0
H840 H 0.67806 0.04274 0.43257 0.0
H841 H 0.68687 0.02868 0.40193 0.0
H842 H 0.74124 0.01391 0.42522 0.0
H843 H 0.73242 0.0274 0.45574 0.0
H844 H 0.71469 0.04051 0.37979 0.0
H845 H 0.72878 0.96637 0.39729 0.0
H846 H 0.71584 0.98157 0.41313 0.0
H847 H 0.74132 0.98139 0.4135 0.0
C848 C 0.69175 0.03622 0.43118 0.0
C849 C 0.70456 0.03621 0.44651 0.0
C850 C 0.69675 0.02812 0.41373 0.0
C851 C 0.71456 0.01982 0.41139 0.0
C852 C 0.72719 0.01961 0.42682 0.0
H853 H 0.80235 0.01245 0.33842 0.0
H854 H 0.77876 0.00556 0.36278 0.0
C855 C 0.7222 0.02758 0.44421 0.0
C856 C 0.72113 0.01364 0.39235 0.0
H857 H 0.74721 0.97956 0.37069 0.0
C858 C 0.72125 0.02694 0.37755 0.0
C859 C 0.72962 0.99589 0.3894 0.0
C860 C 0.72869 0.98045 0.40416 0.0
C861 C 0.73117 0.02371 0.3606 0.0
C862 C 0.74101 0.00658 0.35833 0.0
C863 C 0.73969 0.99268 0.3725 0.0
C864 C 0.75524 0.00453 0.34307 0.0
C865 C 0.73234 0.0393 0.34596 0.0
C866 C 0.75 0.00482 0.32377 0.0
C867 C 0.76353 0.00874 0.30976 0.0
C868 C 0.78238 0.01246 0.31498 0.0
C869 C 0.7879 0.0098 0.33402 0.0
C870 C 0.77442 0.00584 0.34797 0.0
H871 H 0.72558 0.05247 0.35093 0.0
H872 H 0.74731 0.04246 0.34241 0.0
H873 H 0.72512 0.03474 0.33268 0.0
H874 H 0.73527 0.00361 0.31973 0.0
H875 H 0.75888 0.01066 0.29517 0.0
H876 H 0.2281 0.13918 0.51494 0.0
H877 H 0.23858 0.10932 0.52855 0.0
H878 H 0.23797 0.13378 0.5847 0.0
H879 H 0.2274 0.16363 0.57127 0.0
H880 H 0.26703 0.10101 0.575 0.0
H881 H 0.19022 0.08902 0.56075 0.0
H882 H 0.20499 0.0987 0.54223 0.0
H883 H 0.1999 0.11248 0.56289 0.0
C884 C 0.23116 0.13853 0.53006 0.0
C885 C 0.22655 0.1536 0.54212 0.0
C886 C 0.2371 0.12141 0.53781 0.0
C887 C 0.2387 0.11934 0.55762 0.0
C888 C 0.23676 0.13515 0.56936 0.0
H889 H 0.23233 0.04701 0.65143 0.0
H890 H 0.24193 0.06935 0.62689 0.0
C891 C 0.23072 0.15221 0.56166 0.0
C892 C 0.23785 0.10046 0.56641 0.0
H893 H 0.2056 0.06725 0.58011 0.0
C894 C 0.25374 0.09336 0.57585 0.0
C895 C 0.22045 0.09058 0.5674 0.0
C896 C 0.20283 0.09798 0.55787 0.0
C897 C 0.25249 0.07687 0.58689 0.0
C898 C 0.23478 0.06765 0.5889 0.0
C899 C 0.21918 0.07425 0.57856 0.0
C900 C 0.23136 0.05268 0.6033 0.0
C901 C 0.27009 0.06971 0.59654 0.0
C902 C 0.22191 0.03592 0.59833 0.0
C903 C 0.21602 0.02323 0.61244 0.0
C904 C 0.21949 0.02713 0.63176 0.0
C905 C 0.22951 0.04357 0.63664 0.0
C906 C 0.23524 0.05628 0.62258 0.0
H907 H 0.28288 0.07328 0.58808 0.0
H908 H 0.27162 0.07659 0.61065 0.0
H909 H 0.2695 0.05422 0.59868 0.0
H910 H 0.21858 0.03294 0.58355 0.0
H911 H 0.20835 0.01066 0.60827 0.0
H912 H 0.06756 0.21463 0.71436 0.0
H913 H 0.09034 0.22682 0.69067 0.0
H914 H 0.05947 0.19834 0.64604 0.0
H915 H 0.03713 0.18615 0.66935 0.0
H916 H 0.1119 0.20185 0.66762 0.0
H917 H 0.07062 0.25014 0.62241 0.0
H918 H 0.0638 0.24425 0.64655 0.0
H919 H 0.05784 0.22874 0.62714 0.0
C920 C 0.0655 0.2114 0.69942 0.0
C921 C 0.05073 0.19938 0.69363 0.0
C922 C 0.07845 0.21834 0.68595 0.0
C923 C 0.07639 0.21371 0.66658 0.0
C924 C 0.0611 0.20244 0.66083 0.0
H925 H 0.12147 0.18795 0.56245 0.0
H926 H 0.10373 0.19726 0.5907 0.0
C927 C 0.04845 0.19531 0.6742 0.0
C928 C 0.09125 0.21816 0.65245 0.0
H929 H 0.09594 0.23316 0.60649 0.0
C930 C 0.10876 0.20924 0.65446 0.0
C931 C 0.08704 0.22779 0.63534 0.0
C932 C 0.06885 0.23843 0.6328 0.0
C933 C 0.12137 0.20806 0.6391 0.0
C934 C 0.1164 0.21635 0.62144 0.0
C935 C 0.09963 0.22667 0.61998 0.0
C936 C 0.12705 0.2123 0.6038 0.0
C937 C 0.13913 0.19664 0.6414 0.0
C938 C 0.14596 0.21797 0.60166 0.0
C939 C 0.15618 0.21254 0.58556 0.0
C940 C 0.1476 0.20148 0.57132 0.0
C941 C 0.12849 0.1964 0.57321 0.0
C942 C 0.11832 0.20177 0.58931 0.0
H943 H 0.13945 0.18885 0.65515 0.0
H944 H 0.14046 0.18635 0.62959 0.0
H945 H 0.15161 0.20616 0.64092 0.0
H946 H 0.15286 0.22634 0.61255 0.0
H947 H 0.17086 0.21679 0.58439 0.0
H948 H 0.05964 0.24427 0.9379 0.0
H949 H 0.05782 0.26347 0.90914 0.0
H950 H 0.99802 0.27077 0.91795 0.0
H951 H -0.00018 0.25172 0.94716 0.0
H952 H 0.03624 0.25643 0.87654 0.0
H953 H 0.01736 0.32471 0.91023 0.0
H954 H 0.02617 0.3051 0.9239 0.0
H955 H 0.0022 0.30497 0.91548 0.0
C956 C 0.04612 0.25013 0.93387 0.0
C957 C 0.02988 0.24661 0.94483 0.0
C958 C 0.04509 0.26101 0.91736 0.0
C959 C 0.02782 0.26858 0.91144 0.0
C960 C 0.01155 0.26526 0.92242 0.0
H961 H 0.0196 0.35057 0.81878 0.0
H962 H 0.00922 0.32493 0.83972 0.0
C963 C 0.01259 0.25441 0.93909 0.0
C964 C 0.02718 0.27983 0.89368 0.0
H965 H 0.02235 0.32474 0.87723 0.0
C966 C 0.03296 0.27133 0.87661 0.0
C967 C 0.02276 0.2992 0.89381 0.0
C968 C 0.01689 0.30915 0.91182 0.0
C969 C 0.03523 0.28188 0.85984 0.0
C970 C 0.03178 0.30142 0.86023 0.0
C971 C 0.02495 0.30971 0.87699 0.0
C972 C 0.0373 0.31402 0.84434 0.0
C973 C 0.04172 0.27212 0.84197 0.0
C974 C 0.05646 0.31596 0.83952 0.0
C975 C 0.06244 0.33061 0.82763 0.0
C976 C 0.04935 0.34359 0.82044 0.0
C977 C 0.03001 0.34075 0.82409 0.0
C978 C 0.02405 0.32615 0.83608 0.0
H979 H 0.0379 0.25692 0.84218 0.0
H980 H 0.03551 0.2787 0.82905 0.0
H981 H 0.05733 0.27326 0.84096 0.0
H982 H 0.06696 0.30696 0.846 0.0
H983 H 0.07743 0.33248 0.82511 0.0
H984 H 0.83638 0.37719 0.11577 0.0
H985 H 0.86192 0.3589 0.12965 0.0
H986 H 0.90206 0.38727 0.09316 0.0
H987 H 0.87638 0.40599 0.07925 0.0
H988 H 0.88942 0.33482 0.114 0.0
H989 H 0.92099 0.39879 0.14757 0.0
H990 H 0.89763 0.39876 0.13725 0.0
H991 H 0.91805 0.39924 0.12212 0.0
C992 C 0.85061 0.37944 0.11053 0.0
C993 C 0.85444 0.39317 0.09658 0.0
C994 C 0.86518 0.36892 0.11843 0.0
C995 C 0.88388 0.37193 0.11263 0.0
C996 C 0.88772 0.38496 0.09802 0.0
H997 H 0.98178 0.32903 0.1752 0.0
H998 H 0.96239 0.34336 0.15026 0.0
C999 C 0.87306 0.39555 0.09004 0.0
C1000 C 0.89922 0.36218 0.12295 0.0
H1001 H 0.93413 0.36969 0.15572 0.0
C1002 C 0.89938 0.34242 0.12293 0.0
C1003 C 0.91216 0.37218 0.13459 0.0
C1004 C 0.91223 0.3934 0.13558 0.0
C1005 C 0.91181 0.33236 0.13468 0.0
C1006 C 0.92414 0.34236 0.14695 0.0
C1007 C 0.92458 0.3621 0.14633 0.0
C1008 C 0.9359 0.3327 0.16137 0.0
C1009 C 0.91149 0.31114 0.13401 0.0
C1010 C 0.92738 0.3221 0.17596 0.0
C1011 C 0.93839 0.31394 0.19027 0.0
C1012 C 0.9581 0.31635 0.19026 0.0
C1013 C 0.96659 0.32692 0.17559 0.0
C1014 C 0.95558 0.33509 0.16131 0.0
H1015 H 0.90563 0.30589 0.1203 0.0
H1016 H 0.92588 0.30532 0.13599 0.0
H1017 H 0.90236 0.3057 0.14567 0.0
H1018 H 0.91216 0.32045 0.17649 0.0
H1019 H 0.93147 0.30592 0.20141 0.0
H1020 H 0.89375 0.18787 0.41766 0.0
H1021 H 0.88737 0.16588 0.39186 0.0
H1022 H 0.92601 0.1261 0.41679 0.0
H1023 H 0.93244 0.14821 0.44304 0.0
H1024 H 0.91168 0.14788 0.3651 0.0
H1025 H 0.8747 0.09746 0.41364 0.0
H1026 H 0.88016 0.12129 0.42076 0.0
H1027 H 0.89859 0.10414 0.41947 0.0
C1028 C 0.90104 0.1745 0.41764 0.0
C1029 C 0.91344 0.16965 0.43248 0.0
C1030 C 0.89743 0.162 0.40282 0.0
C1031 C 0.90605 0.14432 0.40254 0.0
C1032 C 0.91905 0.13963 0.41691 0.0
H1033 H 0.86296 0.05559 0.32681 0.0
H1034 H 0.88367 0.07217 0.34926 0.0
C1035 C 0.92276 0.15226 0.43181 0.0
C1036 C 0.90025 0.13069 0.38769 0.0
H1037 H 0.87216 0.09204 0.38085 0.0
C1038 C 0.90332 0.13546 0.36851 0.0
C1039 C 0.88938 0.11452 0.39222 0.0
C1040 C 0.88535 0.10899 0.41261 0.0
C1041 C 0.89513 0.12492 0.35373 0.0
C1042 C 0.88331 0.10943 0.3583 0.0
C1043 C 0.88115 0.104 0.37743 0.0
C1044 C 0.87182 0.09962 0.34368 0.0
C1045 C 0.89889 0.13068 0.33338 0.0
C1046 C 0.85822 0.10956 0.33319 0.0
C1047 C 0.84635 0.10014 0.3204 0.0
C1048 C 0.84779 0.08059 0.31798 0.0
C1049 C 0.86153 0.07068 0.32837 0.0
C1050 C 0.87339 0.08011 0.34117 0.0
H1051 H 0.91247 0.13852 0.33208 0.0
H1052 H 0.89927 0.11825 0.32382 0.0
H1053 H 0.88743 0.14011 0.32845 0.0
H1054 H 0.85647 0.12455 0.33525 0.0
H1055 H 0.83585 0.10812 0.31264 0.0
H1056 H 0.1543 0.87818 0.38565 0.0
H1057 H 0.13118 0.85775 0.37026 0.0
H1058 H 0.08782 0.87807 0.40795 0.0
H1059 H 0.11106 0.89895 0.42346 0.0
H1060 H 0.10751 0.8291 0.38507 0.0
H1061 H 0.067 0.88876 0.35397 0.0
H1062 H 0.09024 0.89192 0.36413 0.0
H1063 H 0.07015 0.88867 0.3794 0.0
C1064 C 0.13987 0.87829 0.39079 0.0
C1065 C 0.13443 0.8903 0.40566 0.0
C1066 C 0.12669 0.86653 0.38199 0.0
C1067 C 0.10778 0.86656 0.38781 0.0
C1068 C 0.10233 0.87806 0.40309 0.0
H1069 H 0.01591 0.81132 0.32522 0.0
H1070 H 0.03372 0.82767 0.35015 0.0
C1071 C 0.1156 0.88989 0.41198 0.0
C1072 C 0.09391 0.85499 0.37712 0.0
H1073 H 0.05796 0.85825 0.34485 0.0
C1074 C 0.0965 0.83543 0.37645 0.0
C1075 C 0.0796 0.86331 0.3659 0.0
C1076 C 0.07656 0.88432 0.36569 0.0
C1077 C 0.08548 0.824 0.36444 0.0
C1078 C 0.07175 0.83243 0.35262 0.0
C1079 C 0.06859 0.85187 0.35389 0.0
C1080 C 0.0611 0.82154 0.33813 0.0
C1081 C 0.08875 0.80304 0.36439 0.0
C1082 C 0.07063 0.81276 0.32306 0.0
C1083 C 0.0605 0.80343 0.30875 0.0
C1084 C 0.04067 0.80283 0.30925 0.0
C1085 C 0.03119 0.81153 0.32444 0.0
C1086 C 0.04132 0.82087 0.33871 0.0
H1087 H 0.0956 0.79828 0.3778 0.0
H1088 H 0.07527 0.79516 0.3625 0.0
H1089 H 0.09824 0.79944 0.35238 0.0
H1090 H 0.08589 0.81346 0.32215 0.0
H1091 H 0.06817 0.79691 0.29719 0.0
H1092 H 0.39655 0.316 0.57668 0.0
H1093 H 0.38654 0.33998 0.59926 0.0
H1094 H 0.41532 0.3827 0.56638 0.0
H1095 H 0.42554 0.35861 0.54347 0.0
H1096 H 0.41656 0.37899 0.6147 0.0
H1097 H 0.34812 0.38462 0.57591 0.0
H1098 H 0.35806 0.3615 0.57874 0.0
H1099 H 0.36989 0.37856 0.56404 0.0
C1100 C 0.40101 0.33045 0.57434 0.0
C1101 C 0.41171 0.33548 0.55824 0.0
C1102 C 0.39531 0.34409 0.58728 0.0
C1103 C 0.40015 0.36301 0.58436 0.0
C1104 C 0.41153 0.36809 0.5688 0.0
H1105 H 0.36036 0.45151 0.66223 0.0
H1106 H 0.37878 0.43566 0.63749 0.0
C1107 C 0.41733 0.35436 0.55578 0.0
C1108 C 0.39185 0.37733 0.59691 0.0
H1109 H 0.34962 0.39785 0.60682 0.0
C1110 C 0.40207 0.38352 0.61286 0.0
C1111 C 0.37293 0.38297 0.59438 0.0
C1112 C 0.36154 0.37671 0.57731 0.0
C1113 C 0.39346 0.39458 0.62692 0.0
C1114 C 0.37426 0.39954 0.62477 0.0
C1115 C 0.36433 0.39398 0.60839 0.0
C1116 C 0.36369 0.40918 0.64 0.0
C1117 C 0.40458 0.40005 0.64443 0.0
C1118 C 0.34903 0.39956 0.64939 0.0
C1119 C 0.3385 0.40855 0.66343 0.0
C1120 C 0.34237 0.42736 0.66824 0.0
C1121 C 0.35709 0.43699 0.65883 0.0
C1122 C 0.36767 0.42795 0.64478 0.0
H1123 H 0.41844 0.39283 0.64516 0.0
H1124 H 0.40719 0.41547 0.64429 0.0
H1125 H 0.39643 0.39662 0.65752 0.0
H1126 H 0.34574 0.38507 0.64583 0.0
H1127 H 0.32724 0.40077 0.67043 0.0
H1128 H 0.94604 0.70775 0.78327 0.0
H1129 H 0.92333 0.71887 0.80737 0.0
H1130 H 0.95091 0.68491 0.85001 0.0
H1131 H 0.97316 0.67376 0.82633 0.0
H1132 H 0.89941 0.69293 0.82891 0.0
H1133 H 0.94404 0.73635 0.87652 0.0
H1134 H 0.95019 0.73176 0.85197 0.0
H1135 H 0.9552 0.71464 0.8702 0.0
C1136 C 0.94735 0.70298 0.79788 0.0
C1137 C 0.96121 0.68983 0.80296 0.0
C1138 C 0.93444 0.70931 0.81157 0.0
C1139 C 0.93567 0.7029 0.8305 0.0
C1140 C 0.94994 0.6903 0.83559 0.0
H1141 H 0.88716 0.6767 0.93418 0.0
H1142 H 0.90593 0.68456 0.90597 0.0
C1143 C 0.96253 0.68381 0.82198 0.0
C1144 C 0.92109 0.70735 0.84481 0.0
H1145 H 0.91725 0.72053 0.89134 0.0
C1146 C 0.90301 0.69951 0.84238 0.0
C1147 C 0.92593 0.7159 0.86234 0.0
C1148 C 0.94486 0.72531 0.86537 0.0
C1149 C 0.89024 0.69841 0.85764 0.0
C1150 C 0.8957 0.70564 0.87562 0.0
C1151 C 0.9132 0.71483 0.87759 0.0
C1152 C 0.88443 0.70191 0.89298 0.0
C1153 C 0.87165 0.68823 0.85482 0.0
C1154 C 0.86623 0.70927 0.89509 0.0
C1155 C 0.85545 0.70472 0.91114 0.0
C1156 C 0.86275 0.69283 0.92538 0.0
C1157 C 0.88114 0.68584 0.92342 0.0
C1158 C 0.89189 0.69037 0.90736 0.0
H1159 H 0.87087 0.68097 0.84083 0.0
H1160 H 0.86939 0.67766 0.86629 0.0
H1161 H 0.85995 0.69851 0.85552 0.0
H1162 H 0.86034 0.71843 0.88428 0.0
H1163 H 0.84135 0.71042 0.91235 0.0
H1164 H 0.4978 0.25318 0.04465 0.0
H1165 H 0.49575 0.23205 0.0724 0.0
H1166 H 0.55614 0.2244 0.07058 0.0
H1167 H 0.55831 0.24582 0.04349 0.0
H1168 H 0.50465 0.196 0.07824 0.0
H1169 H 0.54925 0.23979 0.12509 0.0
H1170 H 0.54002 0.24844 0.10276 0.0
H1171 H 0.56159 0.23508 0.10337 0.0
C1172 C 0.51058 0.24683 0.05014 0.0
C1173 C 0.52823 0.25119 0.04205 0.0
C1174 C 0.50941 0.23488 0.06602 0.0
C1175 C 0.52588 0.22713 0.07393 0.0
C1176 C 0.54334 0.23077 0.06519 0.0
H1177 H 0.54974 0.12671 0.13064 0.0
H1178 H 0.53941 0.15207 0.10987 0.0
C1179 C 0.54454 0.24284 0.04956 0.0
C1180 C 0.52508 0.21479 0.09098 0.0
H1181 H 0.54808 0.20639 0.13284 0.0
C1182 C 0.51385 0.19844 0.09037 0.0
C1183 C 0.53653 0.21826 0.10717 0.0
C1184 C 0.54733 0.23648 0.10974 0.0
C1185 C 0.51504 0.18473 0.10475 0.0
C1186 C 0.52829 0.18717 0.11972 0.0
C1187 C 0.53825 0.20425 0.12116 0.0
C1188 C 0.53348 0.17155 0.13277 0.0
C1189 C 0.50231 0.16765 0.1035 0.0
C1190 C 0.53438 0.17424 0.15261 0.0
C1191 C 0.5408 0.15982 0.16457 0.0
C1192 C 0.54633 0.14248 0.15684 0.0
C1193 C 0.54536 0.13984 0.13703 0.0
C1194 C 0.53923 0.15428 0.12513 0.0
H1195 H 0.48861 0.17128 0.09673 0.0
H1196 H 0.50911 0.15686 0.09444 0.0
H1197 H 0.49949 0.16146 0.11777 0.0
H1198 H 0.53024 0.18754 0.15881 0.0
H1199 H 0.54142 0.16221 0.17979 0.0
H1200 H 0.97429 0.80342 0.21496 0.0
H1201 H 0.97218 0.83132 0.19438 0.0
H1202 H 0.97819 0.86707 0.24366 0.0
H1203 H 0.98022 0.83942 0.26414 0.0
H1204 H 0.95525 0.88268 0.21318 0.0
H1205 H 0.02531 0.85596 0.18922 0.0
H1206 H 0.00472 0.84134 0.18594 0.0
H1207 H 0.01342 0.84585 0.20954 0.0
C1208 C 0.97425 0.81724 0.22145 0.0
C1209 C 0.97769 0.81934 0.24107 0.0
C1210 C 0.97321 0.83315 0.20967 0.0
C1211 C 0.97548 0.85121 0.21748 0.0
C1212 C 0.9765 0.85325 0.23734 0.0
H1213 H 0.01791 0.95617 0.22282 0.0
H1214 H 0.99931 0.92732 0.22233 0.0
C1215 C 0.97767 0.83744 0.24904 0.0
C1216 C 0.98042 0.86768 0.20549 0.0
H1217 H 0.01935 0.88788 0.18507 0.0
C1218 C 0.96901 0.8837 0.20646 0.0
C1219 C 0.99835 0.86896 0.1966 0.0
C1220 C 0.01127 0.85219 0.19523 0.0
C1221 C 0.97572 0.90131 0.20026 0.0
C1222 C 0.99443 0.90293 0.19335 0.0
C1223 C 0.00506 0.88661 0.19052 0.0
C1224 C 0.00441 0.92133 0.19254 0.0
C1225 C 0.96309 0.9182 0.20219 0.0
C1226 C 0.01401 0.92733 0.17607 0.0
C1227 C 0.02492 0.94389 0.17635 0.0
C1228 C 0.02656 0.95448 0.1932 0.0
C1229 C 0.01692 0.94837 0.20959 0.0
C1230 C 0.00604 0.93198 0.20928 0.0
H1231 H 0.94802 0.91413 0.20028 0.0
H1232 H 0.96465 0.92414 0.21673 0.0
H1233 H 0.96676 0.92931 0.19164 0.0
H1234 H 0.01319 0.91911 0.1631 0.0
H1235 H 0.03219 0.94829 0.16351 0.0
H1236 H 0.37171 0.32847 0.47983 0.0
H1237 H 0.33962 0.34065 0.47767 0.0
H1238 H 0.31927 0.29436 0.51198 0.0
H1239 H 0.35151 0.28203 0.51427 0.0
H1240 H 0.30218 0.32501 0.46703 0.0
H1241 H 0.31054 0.34367 0.54373 0.0
H1242 H 0.33035 0.33719 0.52904 0.0
H1243 H 0.31412 0.31946 0.53729 0.0
C1244 C 0.36034 0.32061 0.48652 0.0
C1245 C 0.36411 0.30445 0.49743 0.0
C1246 C 0.34202 0.32756 0.48523 0.0
C1247 C 0.3272 0.31854 0.49489 0.0
C1248 C 0.33062 0.30158 0.50456 0.0
H1249 H 0.221 0.37049 0.52718 0.0
H1250 H 0.24627 0.34779 0.5224 0.0
C1251 C 0.34899 0.29452 0.50579 0.0
C1252 C 0.30893 0.32828 0.49676 0.0
H1253 H 0.2832 0.354 0.52829 0.0
C1254 C 0.29784 0.33117 0.48044 0.0
C1255 C 0.30347 0.33638 0.51428 0.0
C1256 C 0.31524 0.33419 0.53211 0.0
C1257 C 0.28142 0.34213 0.48117 0.0
C1258 C 0.2763 0.35074 0.49857 0.0
C1259 C 0.28716 0.3474 0.51496 0.0
C1260 C 0.26015 0.3638 0.50013 0.0
C1261 C 0.26971 0.34435 0.46334 0.0
C1262 C 0.25958 0.3804 0.48922 0.0
C1263 C 0.24508 0.3934 0.49188 0.0
C1264 C 0.23109 0.39013 0.50568 0.0
C1265 C 0.23164 0.37346 0.5165 0.0
C1266 C 0.24603 0.36043 0.51374 0.0
H1267 H 0.27204 0.33255 0.45326 0.0
H1268 H 0.25441 0.34505 0.46673 0.0
H1269 H 0.27387 0.35761 0.45602 0.0
H1270 H 0.2706 0.38353 0.47898 0.0
H1271 H 0.24502 0.40616 0.48338 0.0
H1272 H 0.87039 0.52046 0.79989 0.0
H1273 H 0.89349 0.53891 0.78217 0.0
H1274 H 0.85492 0.54283 0.73472 0.0
H1275 H 0.83143 0.5239 0.75255 0.0
H1276 H 0.90888 0.53281 0.7415 0.0
H1277 H 0.86871 0.59875 0.75502 0.0
H1278 H 0.86505 0.5783 0.7699 0.0
H1279 H 0.85693 0.57813 0.7457 0.0
C1280 C 0.86678 0.52511 0.78564 0.0
C1281 C 0.84902 0.52097 0.77766 0.0
C1282 C 0.88008 0.53553 0.77548 0.0
C1283 C 0.87587 0.5422 0.7572 0.0
C1284 C 0.85836 0.53772 0.74884 0.0
H1285 H 0.94936 0.63676 0.72785 0.0
H1286 H 0.9252 0.61269 0.72199 0.0
C1287 C 0.845 0.52698 0.759 0.0
C1288 C 0.88956 0.55513 0.74809 0.0
H1289 H 0.90078 0.60182 0.74746 0.0
C1290 C 0.907 0.54794 0.7422 0.0
C1291 C 0.88698 0.5748 0.74897 0.0
C1292 C 0.86845 0.58311 0.75522 0.0
C1293 C 0.92238 0.55995 0.73841 0.0
C1294 C 0.92034 0.57956 0.74116 0.0
C1295 C 0.90242 0.58678 0.74549 0.0
C1296 C 0.93679 0.59261 0.74199 0.0
C1297 C 0.9408 0.55143 0.73215 0.0
C1298 C 0.95158 0.58921 0.75492 0.0
C1299 C 0.96552 0.60288 0.75815 0.0
C1300 C 0.96468 0.62032 0.74879 0.0
C1301 C 0.9503 0.62345 0.73533 0.0
C1302 C 0.93651 0.6097 0.73194 0.0
H1303 H 0.93827 0.53848 0.72362 0.0
H1304 H 0.94933 0.56148 0.72353 0.0
H1305 H 0.94909 0.54733 0.74491 0.0
H1306 H 0.95183 0.57639 0.7633 0.0
H1307 H 0.97636 0.60015 0.7687 0.0
H1308 H 0.25699 0.58789 0.95871 0.0
H1309 H 0.23162 0.61102 0.95451 0.0
H1310 H 0.24947 0.63936 0.00583 0.0
H1311 H 0.2746 0.61646 0.01016 0.0
H1312 H 0.20298 0.61718 0.98297 0.0
H1313 H 0.24292 0.6827 0.9666 0.0
H1314 H 0.25274 0.65951 0.96334 0.0
H1315 H 0.25174 0.66975 0.98671 0.0
C1316 C 0.25556 0.59916 0.96897 0.0
C1317 C 0.26767 0.60033 0.98481 0.0
C1318 C 0.24116 0.61237 0.96652 0.0
C1319 C 0.23894 0.62706 0.97968 0.0
C1320 C 0.25122 0.62838 0.9953 0.0
H1321 H 0.15777 0.70692 0.01694 0.0
H1322 H 0.18708 0.69079 0.00824 0.0
C1323 C 0.26544 0.61515 0.99785 0.0
C1324 C 0.22268 0.63991 0.9784 0.0
H1325 H 0.21083 0.68641 0.97664 0.0
C1326 C 0.2046 0.63228 0.98122 0.0
C1327 C 0.22499 0.65961 0.97641 0.0
C1328 C 0.24413 0.66841 0.97293 0.0
C1329 C 0.18879 0.64388 0.98296 0.0
C1330 C 0.19107 0.66365 0.9812 0.0
C1331 C 0.20912 0.67127 0.97788 0.0
C1332 C 0.17491 0.67649 0.98386 0.0
C1333 C 0.16996 0.63487 0.98769 0.0
C1334 C 0.15878 0.67466 0.97236 0.0
C1335 C 0.14206 0.68355 0.9775 0.0
C1336 C 0.14138 0.69484 0.99388 0.0
C1337 C 0.15802 0.69833 0.00421 0.0
C1338 C 0.17471 0.68909 0.99927 0.0
H1339 H 0.1716 0.6203 0.99323 0.0
H1340 H 0.16225 0.64324 0.99848 0.0
H1341 H 0.16118 0.63412 0.9746 0.0
H1342 H 0.1588 0.6654 0.96012 0.0
H1343 H 0.1294 0.68081 0.96923 0.0
H1344 H 0.45939 0.88655 0.23449 0.0
H1345 H 0.43322 0.90772 0.24103 0.0
H1346 H 0.41563 0.87234 0.28793 0.0
H1347 H 0.44147 0.85072 0.28098 0.0
H1348 H 0.38713 0.87866 0.26568 0.0
H1349 H 0.4212 0.94716 0.27926 0.0
H1350 H 0.43014 0.93778 0.25743 0.0
H1351 H 0.43433 0.92546 0.27954 0.0
C1352 C 0.45019 0.8835 0.24644 0.0
C1353 C 0.45239 0.86696 0.25716 0.0
C1354 C 0.43531 0.89571 0.2503 0.0
C1355 C 0.4226 0.89182 0.2652 0.0
C1356 C 0.42531 0.8757 0.27645 0.0
H1357 H 0.33212 0.97583 0.26087 0.0
H1358 H 0.35427 0.95484 0.27738 0.0
C1359 C 0.44006 0.86336 0.27245 0.0
C1360 C 0.40523 0.9032 0.26722 0.0
H1361 H 0.38964 0.94843 0.26464 0.0
C1362 C 0.38767 0.89392 0.266 0.0
C1363 C 0.40576 0.92309 0.26817 0.0
C1364 C 0.4239 0.93389 0.27141 0.0
C1365 C 0.37088 0.90402 0.26377 0.0
C1366 C 0.37173 0.92385 0.26226 0.0
C1367 C 0.389 0.93319 0.26544 0.0
C1368 C 0.35584 0.9348 0.25424 0.0
C1369 C 0.35248 0.89328 0.26222 0.0
C1370 C 0.34916 0.93031 0.23597 0.0
C1371 C 0.33663 0.94219 0.2266 0.0
C1372 C 0.3306 0.95889 0.23525 0.0
C1373 C 0.33645 0.96294 0.25396 0.0
C1374 C 0.34913 0.95103 0.26335 0.0
H1375 H 0.35286 0.88025 0.271 0.0
H1376 H 0.34032 0.90194 0.26682 0.0
H1377 H 0.35023 0.88898 0.24718 0.0
H1378 H 0.35448 0.91816 0.22843 0.0
H1379 H 0.3324 0.93874 0.21217 0.0
H1380 H 0.46173 0.21366 0.81703 0.0
H1381 H 0.44347 0.19779 0.84203 0.0
H1382 H 0.44146 0.14727 0.80802 0.0
H1383 H 0.46029 0.16283 0.78334 0.0
H1384 H 0.40931 0.18356 0.84234 0.0
H1385 H 0.45899 0.12599 0.85772 0.0
H1386 H 0.46549 0.14605 0.84327 0.0
H1387 H 0.45303 0.12634 0.8329 0.0
C1388 C 0.45738 0.19916 0.81491 0.0
C1389 C 0.46248 0.18943 0.79829 0.0
C1390 C 0.44702 0.19009 0.82923 0.0
C1391 C 0.44151 0.17118 0.82714 0.0
C1392 C 0.44611 0.16165 0.81026 0.0
H1393 H 0.3475 0.11215 0.87029 0.0
H1394 H 0.37036 0.13284 0.85498 0.0
C1395 C 0.45667 0.17062 0.79606 0.0
C1396 C 0.43019 0.16162 0.84214 0.0
H1397 H 0.42658 0.12062 0.86739 0.0
C1398 C 0.41326 0.16994 0.84804 0.0
C1399 C 0.43555 0.1441 0.85008 0.0
C1400 C 0.45438 0.13523 0.84582 0.0
C1401 C 0.40097 0.16065 0.86066 0.0
C1402 C 0.40546 0.14231 0.86707 0.0
C1403 C 0.42297 0.13454 0.86221 0.0
C1404 C 0.39147 0.1303 0.87718 0.0
C1405 C 0.38318 0.17052 0.86677 0.0
C1406 C 0.39593 0.12143 0.89453 0.0
C1407 C 0.38289 0.10923 0.90325 0.0
C1408 C 0.36525 0.10574 0.89469 0.0
C1409 C 0.36089 0.11468 0.87737 0.0
C1410 C 0.3739 0.12668 0.86865 0.0
H1411 H 0.38524 0.18605 0.86684 0.0
H1412 H 0.3717 0.16727 0.85648 0.0
H1413 H 0.3786 0.16595 0.8812 0.0
H1414 H 0.40952 0.12387 0.90124 0.0
H1415 H 0.38663 0.10247 0.91657 0.0
H1416 H 0.57675 0.29663 0.28535 0.0
H1417 H 0.59203 0.29122 0.31607 0.0
H1418 H 0.53955 0.27003 0.33901 0.0
H1419 H 0.52414 0.27526 0.30819 0.0
H1420 H 0.5728 0.31289 0.34683 0.0
H1421 H 0.58402 0.23716 0.36401 0.0
H1422 H 0.58413 0.24581 0.33975 0.0
H1423 H 0.56231 0.24405 0.35255 0.0
C1424 C 0.56867 0.29002 0.29666 0.0
C1425 C 0.54924 0.28652 0.29445 0.0
C1426 C 0.57741 0.28697 0.31421 0.0
C1427 C 0.56687 0.28032 0.32977 0.0
C1428 C 0.54794 0.27498 0.32709 0.0
H1429 H 0.59445 0.3147 0.44627 0.0
H1430 H 0.57656 0.30553 0.41775 0.0
C1431 C 0.53918 0.27793 0.30944 0.0
C1432 C 0.57456 0.28274 0.34919 0.0
H1433 H 0.5923 0.25938 0.38772 0.0
C1434 C 0.57699 0.3012 0.35584 0.0
C1435 C 0.57988 0.26743 0.3608 0.0
C1436 C 0.57757 0.24743 0.35402 0.0
C1437 C 0.58503 0.30484 0.3737 0.0
C1438 C 0.59054 0.28956 0.38533 0.0
C1439 C 0.58788 0.27103 0.3788 0.0
C1440 C 0.60042 0.2928 0.40363 0.0
C1441 C 0.58819 0.32503 0.37968 0.0
C1442 C 0.61954 0.28812 0.40532 0.0
C1443 C 0.62975 0.29332 0.42153 0.0
C1444 C 0.62098 0.30325 0.43635 0.0
C1445 C 0.60159 0.30719 0.43501 0.0
C1446 C 0.59138 0.30197 0.41875 0.0
H1447 H 0.58649 0.335 0.36758 0.0
H1448 H 0.57776 0.32877 0.39081 0.0
H1449 H 0.60255 0.32696 0.3858 0.0
H1450 H 0.62675 0.28107 0.39377 0.0
H1451 H 0.64464 0.28997 0.42221 0.0
H1452 H 0.74788 0.00471 0.79501 0.0
H1453 H 0.77297 0.00779 0.8189 0.0
H1454 H 0.73121 0.00711 0.86357 0.0
H1455 H 0.70615 0.00426 0.83987 0.0
H1456 H 0.76498 0.02881 0.87224 0.0
H1457 H 0.77943 0.95625 0.84584 0.0
H1458 H 0.78112 0.97532 0.82905 0.0
H1459 H 0.75855 0.96888 0.83881 0.0
C1460 C 0.744 0.00613 0.80986 0.0
C1461 C 0.7251 0.00386 0.81564 0.0
C1462 C 0.75837 0.00773 0.8235 0.0
C1463 C 0.75393 0.00713 0.84298 0.0
C1464 C 0.73493 0.00745 0.84859 0.0
H1465 H 0.77896 0.97274 0.95244 0.0
H1466 H 0.76972 0.98877 0.92325 0.0
C1467 C 0.7206 0.00582 0.83502 0.0
C1468 C 0.76844 0.00255 0.85745 0.0
H1469 H 0.79258 0.96485 0.87498 0.0
C1470 C 0.77142 0.01501 0.87266 0.0
C1471 C 0.77686 0.98451 0.85792 0.0
C1472 C 0.77383 0.97036 0.84214 0.0
C1473 C 0.78174 0.00952 0.88882 0.0
C1474 C 0.78883 0.99096 0.88994 0.0
C1475 C 0.78708 0.97904 0.87412 0.0
C1476 C 0.7956 0.98271 0.90812 0.0
C1477 C 0.78441 0.02345 0.9048 0.0
C1478 C 0.81305 0.97344 0.9092 0.0
C1479 C 0.8183 0.96396 0.9259 0.0
C1480 C 0.80608 0.96348 0.94168 0.0
C1481 C 0.78872 0.97289 0.94055 0.0
C1482 C 0.78351 0.98229 0.92393 0.0
H1483 H 0.78493 0.03811 0.89924 0.0
H1484 H 0.77222 0.02241 0.91469 0.0
H1485 H 0.79756 0.02069 0.91295 0.0
H1486 H 0.82247 0.97334 0.89705 0.0
H1487 H 0.83176 0.95684 0.92638 0.0
H1488 H 0.41726 0.56945 0.38076 0.0
H1489 H 0.39514 0.5733 0.40749 0.0
H1490 H 0.35316 0.59468 0.36856 0.0
H1491 H 0.37489 0.59073 0.34214 0.0
H1492 H 0.38244 0.60799 0.41738 0.0
H1493 H 0.32077 0.56248 0.40281 0.0
H1494 H 0.3434 0.55878 0.39161 0.0
H1495 H 0.32701 0.57558 0.38187 0.0
C1496 C 0.40307 0.57433 0.37792 0.0
C1497 C 0.39777 0.57988 0.35946 0.0
C1498 C 0.39049 0.57658 0.39315 0.0
C1499 C 0.37241 0.58406 0.38999 0.0
C1500 C 0.36682 0.58845 0.37133 0.0
H1501 H 0.28882 0.6542 0.43358 0.0
H1502 H 0.3104 0.63356 0.41626 0.0
C1503 C 0.37934 0.58636 0.35624 0.0
C1504 C 0.36037 0.59023 0.40603 0.0
H1505 H 0.31421 0.59175 0.41992 0.0
C1506 C 0.36765 0.60404 0.41837 0.0
C1507 C 0.34106 0.58509 0.40725 0.0
C1508 C 0.33269 0.56951 0.39528 0.0
C1509 C 0.35581 0.61392 0.4308 0.0
C1510 C 0.33626 0.60972 0.43095 0.0
C1511 C 0.32919 0.59507 0.41956 0.0
C1512 C 0.32277 0.62145 0.44164 0.0
C1513 C 0.36403 0.6296 0.44276 0.0
C1514 C 0.32255 0.62129 0.46161 0.0
C1515 C 0.31026 0.63305 0.47152 0.0
C1516 C 0.29803 0.64516 0.4616 0.0
C1517 C 0.29814 0.64509 0.44159 0.0
C1518 C 0.31038 0.63327 0.4317 0.0
H1519 H 0.37904 0.6326 0.43921 0.0
H1520 H 0.35576 0.64269 0.44078 0.0
H1521 H 0.36322 0.62563 0.45804 0.0
H1522 H 0.33192 0.61213 0.4695 0.0
H1523 H 0.31043 0.63274 0.48695 0.0
H1524 H 0.11141 0.97843 0.22581 0.0
H1525 H 0.13351 0.97276 0.25195 0.0
H1526 H 0.09966 0.0071 0.28906 0.0
H1527 H 0.07767 0.01324 0.26276 0.0
H1528 H 0.13855 0.01372 0.29297 0.0
H1529 H 0.1218 0.93714 0.29586 0.0
H1530 H 0.12974 0.94552 0.27307 0.0
H1531 H 0.10764 0.95358 0.28253 0.0
C1532 C 0.10866 0.98478 0.23954 0.0
C1533 C 0.09268 0.99609 0.24234 0.0
C1534 C 0.12129 0.98149 0.25446 0.0
C1535 C 0.11804 0.98923 0.27251 0.0
C1536 C 0.10237 0.00094 0.27523 0.0
H1537 H 0.15094 0.97846 0.38691 0.0
H1538 H 0.14163 0.99022 0.35565 0.0
C1539 C 0.08979 0.00437 0.26025 0.0
C1540 C 0.13063 0.98468 0.28874 0.0
H1541 H 0.14509 0.94834 0.31696 0.0
C1542 C 0.14009 0.99941 0.29816 0.0
C1543 C 0.13271 0.96598 0.29539 0.0
C1544 C 0.12233 0.94964 0.28632 0.0
C1545 C 0.15128 0.99598 0.31432 0.0
C1546 C 0.15286 0.97737 0.32129 0.0
C1547 C 0.14399 0.96258 0.31146 0.0
C1548 C 0.16145 0.9731 0.34003 0.0
C1549 C 0.16112 0.01229 0.32394 0.0
C1550 C 0.17595 0.95978 0.34167 0.0
C1551 C 0.18136 0.95304 0.35963 0.0
C1552 C 0.17206 0.95929 0.37608 0.0
C1553 C 0.15834 0.97339 0.37444 0.0
C1554 C 0.15309 0.98023 0.35659 0.0
H1555 H 0.16363 0.0241 0.31382 0.0
H1556 H 0.15205 0.01759 0.33562 0.0
H1557 H 0.17485 0.00795 0.33017 0.0
H1558 H 0.18244 0.95398 0.32903 0.0
H1559 H 0.19188 0.94207 0.3605 0.0
H1560 H 0.77561 0.54715 0.81867 0.0
H1561 H 0.76372 0.57442 0.8362 0.0
H1562 H 0.78765 0.55236 0.88812 0.0
H1563 H 0.79944 0.52502 0.87078 0.0
H1564 H 0.74946 0.56844 0.89134 0.0
H1565 H 0.80165 0.6155 0.85494 0.0
H1566 H 0.78603 0.60139 0.84051 0.0
H1567 H 0.80396 0.59023 0.85453 0.0
C1568 C 0.77818 0.54804 0.83386 0.0
C1569 C 0.78862 0.53407 0.84335 0.0
C1570 C 0.77138 0.56361 0.84382 0.0
C1571 C 0.77495 0.56543 0.86339 0.0
C1572 C 0.78472 0.55115 0.87301 0.0
H1573 H 0.79375 0.62357 0.95792 0.0
H1574 H 0.77864 0.60312 0.9347 0.0
C1575 C 0.79153 0.53561 0.86308 0.0
C1576 C 0.76997 0.58277 0.8738 0.0
H1577 H 0.7864 0.62727 0.88174 0.0
C1578 C 0.75717 0.58149 0.889 0.0
C1579 C 0.77978 0.59987 0.87047 0.0
C1580 C 0.7937 0.60197 0.8543 0.0
C1581 C 0.75506 0.59641 0.90188 0.0
C1582 C 0.76637 0.61277 0.89971 0.0
C1583 C 0.77774 0.61472 0.88343 0.0
C1584 C 0.77013 0.62572 0.91583 0.0
C1585 C 0.74146 0.59411 0.91825 0.0
C1586 C 0.76997 0.64538 0.91332 0.0
C1587 C 0.77867 0.6572 0.92678 0.0
C1588 C 0.78787 0.64935 0.94261 0.0
C1589 C 0.78666 0.6299 0.94582 0.0
C1590 C 0.77785 0.6182 0.9326 0.0
H1591 H 0.72883 0.58585 0.91377 0.0
H1592 H 0.74844 0.58618 0.92991 0.0
H1593 H 0.73681 0.60792 0.92387 0.0
H1594 H 0.7643 0.65146 0.90037 0.0
H1595 H 0.77966 0.67217 0.92394 0.0
H1596 H 0.80143 0.7746 0.51959 0.0
H1597 H 0.82742 0.75631 0.50696 0.0
H1598 H 0.82015 0.78237 0.4519 0.0
H1599 H 0.79356 0.80087 0.46455 0.0
H1600 H 0.82871 0.73129 0.47074 0.0
H1601 H 0.87648 0.79408 0.47337 0.0
H1602 H 0.85534 0.79326 0.4877 0.0
H1603 H 0.85351 0.79555 0.46233 0.0
C1604 C 0.80521 0.77642 0.50474 0.0
C1605 C 0.79563 0.78933 0.49308 0.0
C1606 C 0.81998 0.76583 0.49752 0.0
C1607 C 0.82563 0.768 0.47855 0.0
C1608 C 0.81587 0.78051 0.4666 0.0
H1609 H 0.94103 0.73033 0.46374 0.0
H1610 H 0.91021 0.74154 0.4531 0.0
C1611 C 0.80079 0.79106 0.47381 0.0
C1612 C 0.84285 0.75818 0.47235 0.0
H1613 H 0.89056 0.76441 0.47291 0.0
C1614 C 0.84227 0.73851 0.4706 0.0
C1615 C 0.86042 0.76768 0.47213 0.0
C1616 C 0.86168 0.78882 0.47397 0.0
C1617 C 0.85895 0.72796 0.46987 0.0
C1618 C 0.87658 0.73735 0.47154 0.0
C1619 C 0.87708 0.75714 0.47175 0.0
C1620 C 0.89448 0.72722 0.47532 0.0
C1621 C 0.85745 0.70687 0.46788 0.0
C1622 C 0.89589 0.71489 0.49098 0.0
C1623 C 0.9135 0.70819 0.49688 0.0
C1624 C 0.92998 0.71412 0.4875 0.0
C1625 C 0.92849 0.72566 0.47129 0.0
C1626 C 0.9109 0.73205 0.46518 0.0
H1627 H 0.84486 0.70288 0.45927 0.0
H1628 H 0.87022 0.70089 0.46108 0.0
H1629 H 0.8557 0.70046 0.4822 0.0
H1630 H 0.88356 0.71137 0.49941 0.0
H1631 H 0.91432 0.69944 0.50952 0.0
H1632 H 0.07988 0.24675 0.01506 0.0
H1633 H 0.1106 0.25455 0.02855 0.0
H1634 H 0.12638 0.19604 0.02658 0.0
H1635 H 0.09549 0.1881 0.0125 0.0
H1636 H 0.12944 0.24305 0.06131 0.0
H1637 H 0.16773 0.22167 0.99544 0.0
H1638 H 0.14238 0.22385 0.99593 0.0
H1639 H 0.15352 0.20408 0.00715 0.0
C1640 C 0.08983 0.23547 0.01751 0.0
C1641 C 0.08536 0.21683 0.0125 0.0
C1642 C 0.10736 0.23996 0.02536 0.0
C1643 C 0.12084 0.22592 0.02844 0.0
C1644 C 0.11626 0.20713 0.02406 0.0
H1645 H 0.23636 0.26662 0.03463 0.0
H1646 H 0.2117 0.2443 0.04424 0.0
C1647 C 0.09864 0.20261 0.01605 0.0
C1648 C 0.13996 0.23164 0.03496 0.0
H1649 H 0.18443 0.23917 0.01788 0.0
C1650 C 0.14163 0.24183 0.05204 0.0
C1651 C 0.15589 0.22989 0.02296 0.0
C1652 C 0.15491 0.21939 0.00429 0.0
C1653 C 0.15836 0.25152 0.0567 0.0
C1654 C 0.17371 0.25109 0.04387 0.0
C1655 C 0.17263 0.23949 0.02771 0.0
C1656 C 0.18943 0.26498 0.04471 0.0
C1657 C 0.15914 0.2628 0.07486 0.0
C1658 C 0.18532 0.28422 0.04289 0.0
C1659 C 0.19937 0.297 0.03738 0.0
C1660 C 0.21772 0.29071 0.03347 0.0
C1661 C 0.22233 0.27189 0.03751 0.0
C1662 C 0.20823 0.25908 0.04296 0.0
H1663 H 0.15024 0.25617 0.08609 0.0
H1664 H 0.17384 0.26423 0.08026 0.0
H1665 H 0.15349 0.27708 0.0721 0.0
H1666 H 0.1709 0.2891 0.04384 0.0
H1667 H 0.19541 0.31142 0.03442 0.0
H1668 H 0.85117 0.21493 0.50091 0.0
H1669 H 0.82071 0.20146 0.51119 0.0
H1670 H 0.84568 0.14623 0.5128 0.0
H1671 H 0.87583 0.15949 0.50335 0.0
H1672 H 0.79936 0.17769 0.4929 0.0
H1673 H 0.81666 0.14375 0.5609 0.0
H1674 H 0.83225 0.16091 0.55004 0.0
H1675 H 0.8337 0.13632 0.54374 0.0
C1676 C 0.85016 0.19999 0.50387 0.0
C1677 C 0.86587 0.18827 0.50136 0.0
C1678 C 0.8328 0.19231 0.50976 0.0
C1679 C 0.83099 0.17287 0.51325 0.0
C1680 C 0.8468 0.16133 0.51094 0.0
H1681 H 0.74929 0.09526 0.48015 0.0
H1682 H 0.77324 0.11965 0.48483 0.0
C1683 C 0.86405 0.16895 0.50527 0.0
C1684 C 0.81233 0.16394 0.51697 0.0
H1685 H 0.79268 0.12711 0.54133 0.0
C1686 C 0.7977 0.16699 0.50384 0.0
C1687 C 0.80977 0.15037 0.53157 0.0
C1688 C 0.8239 0.14786 0.54746 0.0
C1689 C 0.78148 0.15555 0.50374 0.0
C1690 C 0.78022 0.14023 0.51664 0.0
C1691 C 0.79389 0.13844 0.53101 0.0
C1692 C 0.76592 0.12503 0.51428 0.0
C1693 C 0.76612 0.15972 0.48943 0.0
C1694 C 0.75461 0.11904 0.52962 0.0
C1695 C 0.74123 0.10463 0.5271 0.0
C1696 C 0.73893 0.09612 0.50918 0.0
C1697 C 0.75065 0.10172 0.49406 0.0
C1698 C 0.76417 0.11585 0.49666 0.0
H1699 H 0.76541 0.17506 0.4864 0.0
H1700 H 0.76937 0.15252 0.47581 0.0
H1701 H 0.75207 0.15483 0.49452 0.0
H1702 H 0.75591 0.12572 0.54343 0.0
H1703 H 0.73229 0.1006 0.53896 0.0
H1704 H 0.47473 0.66146 0.73618 0.0
H1705 H 0.4714 0.62808 0.74504 0.0
H1706 H 0.51129 0.63626 0.79088 0.0
H1707 H 0.51467 0.66929 0.78211 0.0
H1708 H 0.5037 0.6058 0.74304 0.0
H1709 H 0.47256 0.60056 0.81507 0.0
H1710 H 0.46952 0.62096 0.79996 0.0
H1711 H 0.49082 0.61817 0.81369 0.0
C1712 C 0.48223 0.65622 0.74855 0.0
C1713 C 0.49505 0.66782 0.7584 0.0
C1714 C 0.48035 0.63719 0.75358 0.0
C1715 C 0.49095 0.62975 0.76874 0.0
C1716 C 0.50267 0.64175 0.77941 0.0
H1717 H 0.54527 0.53151 0.80869 0.0
H1718 H 0.52997 0.56211 0.80429 0.0
C1719 C 0.50472 0.6606 0.77426 0.0
C1720 C 0.49271 0.60917 0.77139 0.0
H1721 H 0.49291 0.57495 0.80561 0.0
C1722 C 0.50089 0.59888 0.75655 0.0
C1723 C 0.48927 0.60031 0.78912 0.0
C1724 C 0.47989 0.61055 0.80531 0.0
C1725 C 0.50689 0.58031 0.75931 0.0
C1726 C 0.50411 0.57164 0.77729 0.0
C1727 C 0.49509 0.58164 0.79188 0.0
C1728 C 0.51161 0.55265 0.78147 0.0
C1729 C 0.51724 0.57064 0.74331 0.0
C1730 C 0.50593 0.53711 0.77053 0.0
C1731 C 0.51485 0.51981 0.77279 0.0
C1732 C 0.52934 0.51763 0.78632 0.0
C1733 C 0.53421 0.53286 0.79811 0.0
C1734 C 0.52545 0.55029 0.79563 0.0
H1735 H 0.52214 0.58076 0.73225 0.0
H1736 H 0.52968 0.56288 0.7488 0.0
H1737 H 0.50759 0.56037 0.73634 0.0
H1738 H 0.49495 0.53851 0.75986 0.0
H1739 H 0.51059 0.50819 0.76373 0.0
H1740 H 0.42984 0.79981 0.21609 0.0
H1741 H 0.41373 0.79265 0.18616 0.0
H1742 H 0.46568 0.77134 0.16288 0.0
H1743 H 0.48183 0.77816 0.19297 0.0
H1744 H 0.42794 0.81285 0.15499 0.0
H1745 H 0.42478 0.7362 0.13937 0.0
H1746 H 0.42723 0.74532 0.16329 0.0
H1747 H 0.44721 0.74513 0.14757 0.0
C1748 C 0.43763 0.79282 0.2049 0.0
C1749 C 0.45711 0.78968 0.20678 0.0
C1750 C 0.42842 0.78879 0.18778 0.0
C1751 C 0.43853 0.78157 0.17227 0.0
C1752 C 0.45756 0.77667 0.17474 0.0
H1753 H 0.40967 0.81273 0.05553 0.0
H1754 H 0.42768 0.8051 0.08439 0.0
C1755 C 0.46677 0.78057 0.19197 0.0
C1756 C 0.43023 0.78271 0.15293 0.0
H1757 H 0.4167 0.75701 0.11409 0.0
C1758 C 0.42545 0.80063 0.14606 0.0
C1759 C 0.42713 0.76676 0.14132 0.0
C1760 C 0.4317 0.74721 0.14824 0.0
C1761 C 0.41746 0.80305 0.12798 0.0
C1762 C 0.41447 0.78715 0.11625 0.0
C1763 C 0.41926 0.76918 0.12305 0.0
C1764 C 0.40508 0.78901 0.0975 0.0
C1765 C 0.41179 0.82259 0.12179 0.0
C1766 C 0.38676 0.78181 0.09503 0.0
C1767 C 0.37649 0.78612 0.07862 0.0
C1768 C 0.3844 0.79767 0.06436 0.0
C1769 C 0.40318 0.80391 0.06633 0.0
C1770 C 0.41346 0.79958 0.08279 0.0
H1771 H 0.41157 0.83263 0.13391 0.0
H1772 H 0.42207 0.82796 0.11112 0.0
H1773 H 0.39759 0.82237 0.11504 0.0
H1774 H 0.38006 0.77364 0.10622 0.0
H1775 H 0.36208 0.78099 0.07745 0.0
H1776 H 0.42409 0.76084 0.51039 0.0
H1777 H 0.39312 0.75346 0.52335 0.0
H1778 H 0.37757 0.81195 0.5195 0.0
H1779 H 0.4089 0.81953 0.50612 0.0
H1780 H 0.37495 0.76755 0.55656 0.0
H1781 H 0.33567 0.78389 0.48955 0.0
H1782 H 0.36099 0.78118 0.48958 0.0
H1783 H 0.35063 0.80175 0.49989 0.0
C1784 C 0.41415 0.77221 0.51226 0.0
C1785 C 0.41889 0.79077 0.5071 0.0
C1786 C 0.39646 0.76796 0.5198 0.0
C1787 C 0.38305 0.78213 0.52238 0.0
C1788 C 0.3877 0.80079 0.51748 0.0
H1789 H 0.27064 0.73297 0.53108 0.0
H1790 H 0.29292 0.75841 0.53883 0.0
C1791 C 0.40555 0.80509 0.50984 0.0
C1792 C 0.36407 0.7766 0.52937 0.0
H1793 H 0.32035 0.76533 0.51229 0.0
C1794 C 0.36278 0.76754 0.54713 0.0
C1795 C 0.34816 0.77681 0.51717 0.0
C1796 C 0.34878 0.78635 0.49794 0.0
C1797 C 0.34663 0.75713 0.55222 0.0
C1798 C 0.33153 0.75564 0.53911 0.0
C1799 C 0.332 0.76642 0.5223 0.0
C1800 C 0.3173 0.74028 0.54036 0.0
C1801 C 0.34636 0.74688 0.57105 0.0
C1802 C 0.32348 0.72157 0.5395 0.0
C1803 C 0.31086 0.70709 0.53496 0.0
C1804 C 0.29182 0.71107 0.53125 0.0
C1805 C 0.28523 0.72948 0.53406 0.0
C1806 C 0.29795 0.74405 0.53839 0.0
H1807 H 0.35452 0.7548 0.58199 0.0
H1808 H 0.3317 0.74466 0.57626 0.0
H1809 H 0.35313 0.73295 0.56932 0.0
H1810 H 0.33838 0.71833 0.54056 0.0
H1811 H 0.31631 0.69304 0.5328 0.0
H1812 H 0.77711 0.88563 0.97526 0.0
H1813 H 0.74947 0.86522 0.97964 0.0
H1814 H 0.7352 0.89512 0.031 0.0
H1815 H 0.76285 0.91572 0.0267 0.0
H1816 H 0.73836 0.84171 0.01244 0.0
H1817 H 0.68805 0.89921 0.99532 0.0
H1818 H 0.71284 0.90068 0.98949 0.0
H1819 H 0.70519 0.9042 0.01359 0.0
C1820 C 0.7681 0.88787 0.98751 0.0
C1821 C 0.77201 0.9024 0.00055 0.0
C1822 C 0.75241 0.87612 0.99004 0.0
C1823 C 0.7403 0.87877 0.00556 0.0
C1824 C 0.74435 0.89299 0.01884 0.0
H1825 H 0.62767 0.83581 0.02494 0.0
H1826 H 0.65911 0.84904 0.03056 0.0
C1827 C 0.7601 0.90474 0.01636 0.0
C1828 C 0.72292 0.86722 0.00725 0.0
H1829 H 0.67505 0.86979 0.00336 0.0
C1830 C 0.72447 0.84779 0.01058 0.0
C1831 C 0.70491 0.87526 0.00472 0.0
C1832 C 0.70252 0.89595 0.00043 0.0
C1833 C 0.70834 0.83617 0.0116 0.0
C1834 C 0.69032 0.84419 0.00884 0.0
C1835 C 0.68886 0.86366 0.00564 0.0
C1836 C 0.67265 0.83286 0.0084 0.0
C1837 C 0.71075 0.81549 0.0158 0.0
C1838 C 0.66997 0.81871 0.99465 0.0
C1839 C 0.652 0.81087 0.99165 0.0
C1840 C 0.63648 0.8174 0.00209 0.0
C1841 C 0.63943 0.8306 0.01667 0.0
C1842 C 0.65737 0.83818 0.01987 0.0
H1843 H 0.72428 0.81276 0.02333 0.0
H1844 H 0.69893 0.80995 0.02461 0.0
H1845 H 0.71096 0.8076 0.00218 0.0
H1846 H 0.68143 0.81465 0.98536 0.0
H1847 H 0.65002 0.80086 0.98018 0.0
H1848 H 0.70348 0.51298 0.62487 0.0
H1849 H 0.69245 0.49143 0.64997 0.0
H1850 H 0.67396 0.53882 0.68323 0.0
H1851 H 0.68481 0.56029 0.6583 0.0
H1852 H 0.68887 0.50562 0.70498 0.0
H1853 H 0.63279 0.48956 0.65125 0.0
H1854 H 0.65716 0.48639 0.64478 0.0
H1855 H 0.64829 0.50967 0.64863 0.0
C1856 C 0.69782 0.5188 0.63791 0.0
C1857 C 0.6948 0.53826 0.63962 0.0
C1858 C 0.69141 0.50648 0.65215 0.0
C1859 C 0.68213 0.51357 0.66826 0.0
C1860 C 0.68106 0.53309 0.67088 0.0
H1861 H 0.60519 0.50428 0.75588 0.0
H1862 H 0.63143 0.5094 0.73412 0.0
C1863 C 0.68726 0.54535 0.65663 0.0
C1864 C 0.67069 0.50121 0.68076 0.0
H1865 H 0.62677 0.48116 0.68284 0.0
C1866 C 0.6755 0.49981 0.7001 0.0
C1867 C 0.6533 0.49357 0.6743 0.0
C1868 C 0.64741 0.49485 0.65364 0.0
C1869 C 0.66286 0.49195 0.71335 0.0
C1870 C 0.64477 0.4859 0.70713 0.0
C1871 C 0.64059 0.48593 0.68759 0.0
C1872 C 0.62918 0.48204 0.72071 0.0
C1873 C 0.66876 0.49082 0.73399 0.0
C1874 C 0.61857 0.46526 0.71985 0.0
C1875 C 0.60323 0.46239 0.73216 0.0
C1876 C 0.59825 0.47634 0.74538 0.0
C1877 C 0.60872 0.49321 0.74593 0.0
C1878 C 0.62392 0.49607 0.73366 0.0
H1879 H 0.68428 0.48892 0.73528 0.0
H1880 H 0.66515 0.50419 0.74123 0.0
H1881 H 0.66152 0.47904 0.74151 0.0
H1882 H 0.62221 0.45438 0.70973 0.0
H1883 H 0.59543 0.44924 0.73148 0.0
H1884 H 0.31267 0.97611 0.13663 0.0
H1885 H 0.3063 0.95205 0.11266 0.0
H1886 H 0.25951 0.93108 0.14605 0.0
H1887 H 0.26607 0.95494 0.17033 0.0
H1888 H 0.28345 0.90376 0.13753 0.0
H1889 H 0.26796 0.94262 0.0714 0.0
H1890 H 0.28908 0.95179 0.08212 0.0
H1891 H 0.2669 0.95361 0.09457 0.0
C1892 C 0.30077 0.96665 0.13867 0.0
C1893 C 0.28994 0.96733 0.15539 0.0
C1894 C 0.29701 0.953 0.12485 0.0
C1895 C 0.28221 0.93993 0.12739 0.0
C1896 C 0.27088 0.94111 0.14372 0.0
H1897 H 0.28908 0.84001 0.05065 0.0
H1898 H 0.27163 0.86299 0.07015 0.0
C1899 C 0.27467 0.95473 0.15759 0.0
C1900 C 0.28054 0.92357 0.11439 0.0
H1901 H 0.28371 0.91205 0.06733 0.0
C1902 C 0.28278 0.90549 0.12218 0.0
C1903 C 0.27946 0.92573 0.09437 0.0
C1904 C 0.2755 0.9445 0.08518 0.0
C1905 C 0.286 0.88989 0.11046 0.0
C1906 C 0.28703 0.89249 0.09056 0.0
C1907 C 0.28296 0.91015 0.08266 0.0
C1908 C 0.29666 0.87855 0.07855 0.0
C1909 C 0.29001 0.87102 0.11941 0.0
C1910 C 0.31632 0.87981 0.07703 0.0
C1911 C 0.32619 0.86684 0.06619 0.0
C1912 C 0.3166 0.85233 0.05653 0.0
C1913 C 0.29681 0.85103 0.058 0.0
C1914 C 0.28685 0.86412 0.06903 0.0
H1915 H 0.28579 0.87054 0.13465 0.0
H1916 H 0.28242 0.85968 0.11158 0.0
H1917 H 0.30537 0.86813 0.11845 0.0
H1918 H 0.32407 0.89086 0.08435 0.0
H1919 H 0.34141 0.86832 0.06532 0.0
H1920 H 0.2939 0.49625 0.65724 0.0
H1921 H 0.26618 0.50048 0.63737 0.0
H1922 H 0.23081 0.50074 0.68741 0.0
H1923 H 0.25866 0.49608 0.70742 0.0
H1924 H 0.22268 0.47182 0.66596 0.0
H1925 H 0.2248 0.53311 0.61827 0.0
H1926 H 0.24763 0.52245 0.61807 0.0
H1927 H 0.23863 0.53226 0.63994 0.0
C1928 C 0.28035 0.49818 0.66411 0.0
C1929 C 0.2784 0.49541 0.68383 0.0
C1930 C 0.26442 0.50074 0.6527 0.0
C1931 C 0.2463 0.50081 0.66084 0.0
C1932 C 0.24463 0.5007 0.68079 0.0
H1933 H 0.16856 0.46754 0.56784 0.0
H1934 H 0.17633 0.48457 0.59742 0.0
C1935 C 0.26061 0.49812 0.69225 0.0
C1936 C 0.2298 0.49601 0.64862 0.0
H1937 H 0.21325 0.50315 0.60351 0.0
C1938 C 0.22009 0.47912 0.65262 0.0
C1939 C 0.22608 0.50551 0.63129 0.0
C1940 C 0.23474 0.52445 0.6268 0.0
C1941 C 0.20866 0.47039 0.63887 0.0
C1942 C 0.20702 0.47868 0.62065 0.0
C1943 C 0.21481 0.49664 0.61741 0.0
C1944 C 0.20066 0.4675 0.60406 0.0
C1945 C 0.19958 0.45166 0.64346 0.0
C1946 C 0.2117 0.45228 0.59816 0.0
C1947 C 0.20747 0.44277 0.58133 0.0
C1948 C 0.192 0.44819 0.57012 0.0
C1949 C 0.18045 0.46297 0.57637 0.0
C1950 C 0.1849 0.47273 0.59316 0.0
H1951 H 0.19679 0.45028 0.65898 0.0
H1952 H 0.18609 0.44976 0.63556 0.0
H1953 H 0.2093 0.44019 0.63929 0.0
H1954 H 0.22409 0.44821 0.60623 0.0
H1955 H 0.21664 0.43148 0.57682 0.0
H1956 H 0.58865 0.07075 0.13032 0.0
H1957 H 0.61149 0.07156 0.10392 0.0
H1958 H 0.65229 0.09869 0.14066 0.0
H1959 H 0.62982 0.09778 0.1668 0.0
H1960 H 0.62421 0.105 0.08977 0.0
H1961 H 0.68577 0.0632 0.11169 0.0
H1962 H 0.66286 0.06031 0.1227 0.0
H1963 H 0.67886 0.07856 0.13062 0.0
C1964 C 0.60274 0.07626 0.13286 0.0
C1965 C 0.60749 0.08428 0.15052 0.0
C1966 C 0.61573 0.07676 0.11779 0.0
C1967 C 0.63369 0.08498 0.12037 0.0
C1968 C 0.63874 0.09186 0.13841 0.0
H1969 H 0.71732 0.15233 0.07335 0.0
H1970 H 0.69583 0.13183 0.09127 0.0
C1971 C 0.6258 0.0915 0.15332 0.0
C1972 C 0.64609 0.08935 0.10392 0.0
H1973 H 0.69263 0.09051 0.0913 0.0
C1974 C 0.63906 0.10135 0.0897 0.0
C1975 C 0.66546 0.08458 0.10386 0.0
C1976 C 0.6736 0.07078 0.11796 0.0
C1977 C 0.65118 0.11006 0.0765 0.0
C1978 C 0.67078 0.10647 0.07747 0.0
C1979 C 0.67761 0.09338 0.09075 0.0
C1980 C 0.68454 0.11777 0.06637 0.0
C1981 C 0.64317 0.12409 0.06253 0.0
C1982 C 0.68543 0.11646 0.04645 0.0
C1983 C 0.69768 0.12819 0.03616 0.0
C1984 C 0.7092 0.1414 0.04566 0.0
C1985 C 0.70855 0.14236 0.06563 0.0
C1986 C 0.69635 0.13062 0.07589 0.0
H1987 H 0.628 0.12698 0.06522 0.0
H1988 H 0.65117 0.13757 0.06326 0.0
H1989 H 0.64455 0.11852 0.04784 0.0
H1990 H 0.67653 0.1065 0.03888 0.0
H1991 H 0.69796 0.12707 0.02077 0.0
H1992 H 0.60012 0.31177 0.98763 0.0
H1993 H 0.63177 0.30323 0.97631 0.0
H1994 H 0.6105 0.24854 0.95982 0.0
H1995 H 0.57913 0.25707 0.97051 0.0
H1996 H 0.65268 0.27619 0.99069 0.0
H1997 H 0.6429 0.25989 0.9148 0.0
H1998 H 0.62569 0.27308 0.92814 0.0
H1999 H 0.62518 0.24767 0.92826 0.0
C2000 C 0.60219 0.29809 0.98123 0.0
C2001 C 0.58718 0.28508 0.98 0.0
C2002 C 0.62023 0.29324 0.97472 0.0
C2003 C 0.62345 0.27539 0.96679 0.0
C2004 C 0.60831 0.26262 0.96522 0.0
H2005 H 0.69215 0.18628 0.97069 0.0
H2006 H 0.66999 0.21048 0.96058 0.0
C2007 C 0.59038 0.26745 0.97162 0.0
C2008 C 0.64286 0.26881 0.96261 0.0
H2009 H 0.66687 0.24082 0.93158 0.0
C2010 C 0.6561 0.26904 0.97751 0.0
C2011 C 0.6474 0.25961 0.94534 0.0
C2012 C 0.63456 0.26026 0.92819 0.0
C2013 C 0.67282 0.25863 0.97639 0.0
C2014 C 0.6764 0.24785 0.95985 0.0
C2015 C 0.66401 0.24898 0.94429 0.0
C2016 C 0.69084 0.23291 0.96009 0.0
C2017 C 0.68569 0.25792 0.99357 0.0
C2018 C 0.71012 0.23728 0.96184 0.0
C2019 C 0.72287 0.2234 0.96756 0.0
C2020 C 0.71639 0.20507 0.97168 0.0
C2021 C 0.6975 0.20031 0.96774 0.0
C2022 C 0.68483 0.21414 0.96194 0.0
H2023 H 0.67992 0.26579 0.0059 0.0
H2024 H 0.68803 0.2431 0.998 0.0
H2025 H 0.69963 0.26416 0.98986 0.0
H2026 H 0.71503 0.25168 0.96027 0.0
H2027 H 0.73737 0.22747 0.97048 0.0
H2028 H 0.53468 0.38779 0.25177 0.0
H2029 H 0.55818 0.41274 0.24628 0.0
H2030 H 0.59906 0.37096 0.23008 0.0
H2031 H 0.57561 0.34619 0.23493 0.0
H2032 H 0.58906 0.41641 0.26629 0.0
H2033 H 0.61051 0.41038 0.19107 0.0
H2034 H 0.5893 0.39929 0.20014 0.0
H2035 H 0.61186 0.38789 0.20256 0.0
C2036 C 0.54856 0.38401 0.24663 0.0
C2037 C 0.55335 0.36506 0.24387 0.0
C2038 C 0.56195 0.39826 0.24344 0.0
C2039 C 0.58032 0.39377 0.23745 0.0
C2040 C 0.58486 0.37487 0.23411 0.0
H2041 H 0.68316 0.43843 0.27499 0.0
H2042 H 0.6573 0.41916 0.26242 0.0
C2043 C 0.57148 0.36068 0.23713 0.0
C2044 C 0.5955 0.40828 0.23745 0.0
H2045 H 0.63421 0.42376 0.21268 0.0
C2046 C 0.59863 0.41832 0.25437 0.0
C2047 C 0.60798 0.41092 0.22188 0.0
C2048 C 0.6046 0.40168 0.20284 0.0
C2049 C 0.6145 0.42997 0.25657 0.0
C2050 C 0.62777 0.43135 0.2416 0.0
C2051 C 0.62414 0.42232 0.22423 0.0
C2052 C 0.64593 0.44124 0.24462 0.0
C2053 C 0.61735 0.44021 0.27521 0.0
C2054 C 0.64868 0.45961 0.23777 0.0
C2055 C 0.66362 0.47062 0.2448 0.0
C2056 C 0.67574 0.46336 0.25887 0.0
C2057 C 0.67399 0.44437 0.2642 0.0
C2058 C 0.65922 0.43337 0.25706 0.0
H2059 H 0.60406 0.44098 0.28357 0.0
H2060 H 0.62798 0.43262 0.2839 0.0
H2061 H 0.62273 0.45473 0.27271 0.0
H2062 H 0.63848 0.46589 0.2282 0.0
H2063 H 0.66457 0.48528 0.24057 0.0
H2064 H 0.52882 0.15363 0.75653 0.0
H2065 H 0.52898 0.12712 0.73477 0.0
H2066 H 0.53971 0.16477 0.68761 0.0
H2067 H 0.53909 0.19154 0.70939 0.0
H2068 H 0.50739 0.14757 0.68305 0.0
H2069 H 0.55865 0.09291 0.70164 0.0
H2070 H 0.54733 0.10041 0.72309 0.0
H2071 H 0.56148 0.11695 0.7096 0.0
C2072 C 0.53212 0.15623 0.74168 0.0
C2073 C 0.53351 0.1747 0.73462 0.0
C2074 C 0.53234 0.14097 0.72918 0.0
C2075 C 0.53426 0.14389 0.70946 0.0
C2076 C 0.53815 0.16215 0.70275 0.0
H2077 H 0.48886 0.0406 0.6568 0.0
H2078 H 0.51009 0.06819 0.65726 0.0
C2079 C 0.53785 0.17746 0.71525 0.0
C2080 C 0.52765 0.12899 0.69616 0.0
H2081 H 0.5269 0.0812 0.69153 0.0
C2082 C 0.51214 0.13315 0.68438 0.0
C2083 C 0.5339 0.11016 0.69751 0.0
C2084 C 0.55141 0.10494 0.70851 0.0
C2085 C 0.50145 0.1188 0.6758 0.0
C2086 C 0.50625 0.09985 0.67929 0.0
C2087 C 0.52301 0.09576 0.68915 0.0
C2088 C 0.49243 0.08442 0.67614 0.0
C2089 C 0.48435 0.12402 0.66413 0.0
C2090 C 0.47539 0.08459 0.68634 0.0
C2091 C 0.46343 0.06893 0.68623 0.0
C2092 C 0.46822 0.05281 0.67584 0.0
C2093 C 0.48475 0.05298 0.66473 0.0
C2094 C 0.49691 0.06864 0.66506 0.0
H2095 H 0.48636 0.13794 0.65716 0.0
H2096 H 0.4813 0.1133 0.65303 0.0
H2097 H 0.4719 0.12502 0.67366 0.0
H2098 H 0.47183 0.09646 0.69528 0.0
H2099 H 0.45084 0.06912 0.69499 0.0
H2100 H 0.94051 0.43686 0.30864 0.0
H2101 H 0.9611 0.40957 0.3085 0.0
H2102 H 0.00213 0.43985 0.34236 0.0
H2103 H 0.98132 0.46741 0.3426 0.0
H2104 H 0.01664 0.42677 0.30851 0.0
H2105 H 0.97914 0.36871 0.34454 0.0
H2106 H 0.96322 0.38078 0.32893 0.0
H2107 H 0.97355 0.39313 0.34887 0.0
C2108 C 0.95361 0.43748 0.31664 0.0
C2109 C 0.95934 0.4542 0.32563 0.0
C2110 C 0.96535 0.42183 0.31666 0.0
C2111 C 0.98309 0.42258 0.3256 0.0
C2112 C 0.98841 0.43892 0.33556 0.0
H2113 H 0.02843 0.31792 0.28357 0.0
H2114 H 0.02997 0.34325 0.30724 0.0
C2115 C 0.97649 0.45459 0.33576 0.0
C2116 C 0.99684 0.40747 0.32158 0.0
H2117 H 0.99766 0.35988 0.31621 0.0
C2118 C 0.01291 0.4121 0.31077 0.0
C2119 C 0.99236 0.38833 0.32488 0.0
C2120 C 0.97622 0.38248 0.33764 0.0
C2121 C 0.02309 0.39814 0.30116 0.0
C2122 C 0.01682 0.37922 0.30222 0.0
C2123 C 0.00234 0.37441 0.31506 0.0
C2124 C 0.02187 0.36519 0.28747 0.0
C2125 C 0.03966 0.40395 0.28898 0.0
C2126 C 0.01768 0.36924 0.26833 0.0
C2127 C 0.01675 0.35485 0.25488 0.0
C2128 C 0.01994 0.33613 0.26031 0.0
C2129 C 0.02606 0.33228 0.27898 0.0
C2130 C 0.02685 0.34672 0.29253 0.0
H2131 H 0.04747 0.41587 0.29564 0.0
H2132 H 0.04957 0.39212 0.28671 0.0
H2133 H 0.03444 0.40887 0.27492 0.0
H2134 H 0.01336 0.38323 0.26409 0.0
H2135 H 0.01195 0.35818 0.2406 0.0
H2136 H 0.16912 0.0542 0.68865 0.0
H2137 H 0.14658 0.07374 0.70541 0.0
H2138 H 0.14639 0.03474 0.75263 0.0
H2139 H 0.16896 0.01473 0.73558 0.0
H2140 H 0.11095 0.04253 0.74043 0.0
H2141 H 0.14965 0.10938 0.74969 0.0
H2142 H 0.15152 0.1018 0.72544 0.0
H2143 H 0.16153 0.08764 0.74423 0.0
C2144 C 0.16464 0.04995 0.70278 0.0
C2145 C 0.17079 0.03294 0.71081 0.0
C2146 C 0.15184 0.06123 0.71243 0.0
C2147 C 0.145 0.05587 0.73041 0.0
C2148 C 0.15163 0.03921 0.73884 0.0
H2149 H 0.06399 0.14058 0.76657 0.0
H2150 H 0.08915 0.11744 0.77012 0.0
C2151 C 0.16456 0.02786 0.72914 0.0
C2152 C 0.12944 0.06676 0.73905 0.0
H2153 H 0.11544 0.112 0.74588 0.0
C2154 C 0.11202 0.05768 0.74213 0.0
C2155 C 0.13087 0.08643 0.74172 0.0
C2156 C 0.14949 0.09681 0.7403 0.0
C2157 C 0.09565 0.06798 0.74618 0.0
C2158 C 0.09671 0.08788 0.74662 0.0
C2159 C 0.11446 0.09677 0.74519 0.0
C2160 C 0.07963 0.09991 0.74674 0.0
C2161 C 0.07739 0.05742 0.74949 0.0
C2162 C 0.06561 0.09757 0.7327 0.0
C2163 C 0.05102 0.11061 0.73087 0.0
C2164 C 0.0505 0.12647 0.74273 0.0
C2165 C 0.06412 0.12849 0.75718 0.0
C2166 C 0.07849 0.11528 0.75923 0.0
H2167 H 0.08007 0.0435 0.75619 0.0
H2168 H 0.06763 0.06545 0.75875 0.0
H2169 H 0.07036 0.0548 0.73559 0.0
H2170 H 0.06644 0.0862 0.7225 0.0
H2171 H 0.0408 0.10883 0.7195 0.0
H2172 H 0.64526 0.9607 0.8313 0.0
H2173 H 0.62795 0.94312 0.85584 0.0
H2174 H 0.65427 0.89174 0.83737 0.0
H2175 H 0.67174 0.90921 0.81288 0.0
H2176 H 0.6029 0.9106 0.85319 0.0
H2177 H 0.66825 0.89692 0.89469 0.0
H2178 H 0.66709 0.91459 0.87619 0.0
H2179 H 0.66953 0.89017 0.87007 0.0
C2180 C 0.64727 0.94562 0.83239 0.0
C2181 C 0.65999 0.93632 0.82031 0.0
C2182 C 0.63734 0.93563 0.84636 0.0
C2183 C 0.64006 0.91623 0.84853 0.0
C2184 C 0.65221 0.90679 0.83605 0.0
H2185 H 0.60766 0.82559 0.91985 0.0
H2186 H 0.61805 0.84716 0.89493 0.0
C2187 C 0.66213 0.91675 0.82206 0.0
C2188 C 0.63084 0.90592 0.86433 0.0
H2189 H 0.64065 0.88015 0.90412 0.0
C2190 C 0.61107 0.90407 0.86446 0.0
C2191 C 0.6416 0.89765 0.87907 0.0
C2192 C 0.66278 0.90004 0.88018 0.0
C2193 C 0.60185 0.89334 0.87855 0.0
C2194 C 0.61272 0.88451 0.89285 0.0
C2195 C 0.6324 0.88692 0.89305 0.0
C2196 C 0.60432 0.87148 0.90696 0.0
C2197 C 0.58069 0.89087 0.87769 0.0
C2198 C 0.59286 0.87801 0.92184 0.0
C2199 C 0.58684 0.86564 0.93623 0.0
C2200 C 0.59236 0.84667 0.9359 0.0
C2201 C 0.60328 0.84015 0.92059 0.0
C2202 C 0.60921 0.85243 0.9063 0.0
H2203 H 0.57459 0.89674 0.86436 0.0
H2204 H 0.57686 0.87571 0.8787 0.0
H2205 H 0.57418 0.89814 0.89 0.0
H2206 H 0.58914 0.89275 0.92266 0.0
H2207 H 0.57847 0.87101 0.94789 0.0
H2208 H 0.47664 0.62089 0.36171 0.0
H2209 H 0.48501 0.64783 0.38164 0.0
H2210 H 0.44937 0.68351 0.34742 0.0
H2211 H 0.44124 0.65656 0.32704 0.0
H2212 H 0.4838 0.70087 0.35897 0.0
H2213 H 0.44616 0.66734 0.41976 0.0
H2214 H 0.46434 0.65305 0.40958 0.0
H2215 H 0.44387 0.65892 0.39563 0.0
C2216 C 0.47077 0.63452 0.35827 0.0
C2217 C 0.4581 0.63662 0.34299 0.0
C2218 C 0.47551 0.64987 0.36971 0.0
C2219 C 0.46745 0.66752 0.36626 0.0
C2220 C 0.45563 0.66993 0.35037 0.0
H2221 H 0.45839 0.772 0.42669 0.0
H2222 H 0.45864 0.74687 0.40301 0.0
C2223 C 0.451 0.65457 0.33876 0.0
C2224 C 0.47046 0.68307 0.37995 0.0
H2225 H 0.46293 0.69547 0.42628 0.0
C2226 C 0.47925 0.69973 0.37369 0.0
C2227 C 0.46444 0.6815 0.39913 0.0
C2228 C 0.45402 0.66432 0.40643 0.0
C2229 C 0.48236 0.71484 0.38621 0.0
C2230 C 0.47634 0.71324 0.40535 0.0
C2231 C 0.4677 0.69654 0.41162 0.0
C2232 C 0.47772 0.72909 0.41891 0.0
C2233 C 0.49215 0.73236 0.37892 0.0
C2234 C 0.48824 0.7273 0.43579 0.0
C2235 C 0.48808 0.74165 0.44942 0.0
C2236 C 0.4772 0.75784 0.44644 0.0
C2237 C 0.46689 0.75966 0.4294 0.0
C2238 C 0.46715 0.7454 0.41577 0.0
H2239 H 0.50019 0.72958 0.36564 0.0
H2240 H 0.48141 0.74322 0.37571 0.0
H2241 H 0.50198 0.73818 0.38981 0.0
H2242 H 0.49634 0.7147 0.43852 0.0
H2243 H 0.49614 0.73988 0.46243 0.0
H2244 H 0.67083 0.6285 0.61334 0.0
H2245 H 0.64908 0.65005 0.62896 0.0
H2246 H 0.60213 0.61411 0.61365 0.0
H2247 H 0.6239 0.5924 0.59777 0.0
H2248 H 0.59652 0.65614 0.61057 0.0
H2249 H 0.62459 0.63131 0.68026 0.0
H2250 H 0.64195 0.63907 0.66325 0.0
H2251 H 0.62798 0.61843 0.65839 0.0
C2252 C 0.65584 0.6253 0.61303 0.0
C2253 C 0.64905 0.60865 0.60457 0.0
C2254 C 0.64347 0.63762 0.62195 0.0
C2255 C 0.62411 0.63346 0.62268 0.0
C2256 C 0.61708 0.61747 0.61326 0.0
H2257 H 0.52837 0.67936 0.68189 0.0
H2258 H 0.54949 0.66386 0.65951 0.0
C2259 C 0.62949 0.60511 0.60422 0.0
C2260 C 0.61159 0.64498 0.63467 0.0
H2261 H 0.60273 0.65613 0.68104 0.0
C2262 C 0.5978 0.65617 0.62598 0.0
C2263 C 0.61343 0.64496 0.65474 0.0
C2264 C 0.62767 0.63271 0.6648 0.0
C2265 C 0.58588 0.6676 0.6369 0.0
C2266 C 0.58764 0.66747 0.65701 0.0
C2267 C 0.60151 0.6563 0.66563 0.0
C2268 C 0.57474 0.67807 0.66955 0.0
C2269 C 0.57173 0.67991 0.62682 0.0
C2270 C 0.58198 0.69097 0.68289 0.0
C2271 C 0.56996 0.69972 0.6959 0.0
C2272 C 0.55052 0.6956 0.6958 0.0
C2273 C 0.5433 0.68287 0.68226 0.0
C2274 C 0.55531 0.67412 0.66933 0.0
H2275 H 0.57597 0.68274 0.61184 0.0
H2276 H 0.55782 0.67262 0.62655 0.0
H2277 H 0.57002 0.69356 0.6343 0.0
H2278 H 0.59699 0.69407 0.68338 0.0
H2279 H 0.5759 0.70946 0.70616 0.0
H2280 H -0.00033 0.76865 0.53733 0.0
H2281 H 0.99703 0.79299 0.56199 0.0
H2282 H 0.96004 0.75662 0.59447 0.0
H2283 H 0.96218 0.73265 0.56982 0.0
H2284 H 0.94572 0.79112 0.59074 0.0
H2285 H 0.02029 0.79658 0.61465 0.0
H2286 H 0.01729 0.79995 0.58947 0.0
H2287 H 0.01176 0.77746 0.59997 0.0
C2288 C 0.99109 0.76587 0.5498 0.0
C2289 C 0.98107 0.74882 0.55162 0.0
C2290 C 0.98971 0.77969 0.56395 0.0
C2291 C 0.97854 0.77651 0.58021 0.0
C2292 C 0.96877 0.75937 0.58209 0.0
H2293 H 0.9444 0.84553 0.67731 0.0
H2294 H 0.9528 0.81851 0.65726 0.0
C2295 C 0.96999 0.7457 0.56794 0.0
C2296 C 0.9759 0.79136 0.59476 0.0
H2297 H 0.99926 0.82018 0.62597 0.0
C2298 C 0.95742 0.79733 0.59857 0.0
C2299 C 0.99119 0.79943 0.60498 0.0
C2300 C 0.01123 0.79292 0.60223 0.0
C2301 C 0.95383 0.81141 0.61201 0.0
C2302 C 0.96911 0.81966 0.62199 0.0
C2303 C 0.98759 0.81369 0.61832 0.0
C2304 C 0.9661 0.83542 0.63531 0.0
C2305 C 0.93376 0.81775 0.61511 0.0
C2306 C 0.9713 0.85368 0.62977 0.0
C2307 C 0.96644 0.86904 0.64106 0.0
C2308 C 0.95645 0.86637 0.65817 0.0
C2309 C 0.95209 0.84797 0.66419 0.0
C2310 C 0.95683 0.83258 0.65277 0.0
H2311 H 0.92388 0.8118 0.60434 0.0
H2312 H 0.92897 0.81315 0.62945 0.0
H2313 H 0.93296 0.83335 0.61458 0.0
H2314 H 0.97845 0.85612 0.61634 0.0
H2315 H 0.97009 0.88305 0.63611 0.0
H2316 H 0.07891 0.64449 0.05159 0.0
H2317 H 0.08558 0.62251 0.07792 0.0
H2318 H 0.1217 0.66423 0.10413 0.0
H2319 H 0.11524 0.68601 0.07816 0.0
H2320 H 0.12317 0.61025 0.08845 0.0
H2321 H 0.0872 0.64606 0.14814 0.0
H2322 H 0.08139 0.65048 0.12345 0.0
H2323 H 0.10169 0.66162 0.13412 0.0
C2324 C 0.08809 0.64897 0.06311 0.0
C2325 C 0.09659 0.66692 0.06283 0.0
C2326 C 0.09187 0.63646 0.07809 0.0
C2327 C 0.10389 0.64191 0.09307 0.0
C2328 C 0.1121 0.6599 0.09289 0.0
H2329 H 0.16895 0.60413 0.18677 0.0
H2330 H 0.15108 0.62088 0.16217 0.0
C2331 C 0.1085 0.67227 0.07794 0.0
C2332 C 0.10927 0.62856 0.10829 0.0
H2333 H 0.11182 0.62445 0.15668 0.0
C2334 C 0.12037 0.61304 0.10337 0.0
C2335 C 0.10564 0.63239 0.12769 0.0
C2336 C 0.09318 0.64845 0.13369 0.0
C2337 C 0.12895 0.60191 0.11743 0.0
C2338 C 0.12599 0.60625 0.13687 0.0
C2339 C 0.11415 0.62124 0.14176 0.0
C2340 C 0.13598 0.59614 0.1523 0.0
C2341 C 0.14194 0.58628 0.11134 0.0
C2342 C 0.13312 0.57678 0.1551 0.0
C2343 C 0.14338 0.56719 0.16904 0.0
C2344 C 0.15654 0.57684 0.18053 0.0
C2345 C 0.15896 0.59634 0.17809 0.0
C2346 C 0.14874 0.6059 0.16408 0.0
H2347 H 0.14583 0.58739 0.09604 0.0
H2348 H 0.1551 0.58638 0.11999 0.0
H2349 H 0.13475 0.57252 0.11357 0.0
H2350 H 0.12307 0.56907 0.14641 0.0
H2351 H 0.1411 0.55218 0.17071 0.0
H2352 H 0.24464 0.53323 0.25651 0.0
H2353 H 0.2781 0.53941 0.26288 0.0
H2354 H 0.27118 0.59714 0.24527 0.0
H2355 H 0.23766 0.59111 0.23892 0.0
H2356 H 0.30372 0.55243 0.23364 0.0
H2357 H 0.30138 0.6007 0.29592 0.0
H2358 H 0.28177 0.58557 0.28948 0.0
H2359 H 0.28636 0.60671 0.27616 0.0
C2360 C 0.25012 0.54736 0.25443 0.0
C2361 C 0.23851 0.5617 0.24724 0.0
C2362 C 0.26926 0.55083 0.25796 0.0
C2363 C 0.27708 0.56872 0.25456 0.0
C2364 C 0.26536 0.58329 0.24819 0.0
H2365 H 0.39198 0.61077 0.27014 0.0
H2366 H 0.35946 0.60768 0.25858 0.0
C2367 C 0.24622 0.57982 0.24458 0.0
C2368 C 0.29771 0.57175 0.25642 0.0
H2369 H 0.3312 0.59548 0.28202 0.0
C2370 C 0.30976 0.56185 0.24421 0.0
C2371 C 0.30548 0.58419 0.27006 0.0
C2372 C 0.29314 0.59483 0.28378 0.0
C2373 C 0.32947 0.564 0.24532 0.0
C2374 C 0.33729 0.57611 0.25927 0.0
C2375 C 0.32518 0.58628 0.27125 0.0
C2376 C 0.35793 0.57751 0.26272 0.0
C2377 C 0.34168 0.5534 0.23146 0.0
C2378 C 0.36808 0.56149 0.26823 0.0
C2379 C 0.38669 0.5632 0.27469 0.0
C2380 C 0.39542 0.58099 0.27597 0.0
C2381 C 0.38567 0.59686 0.26925 0.0
C2382 C 0.36705 0.59513 0.26275 0.0
H2383 H 0.33383 0.54994 0.21818 0.0
H2384 H 0.35454 0.56162 0.22765 0.0
H2385 H 0.34615 0.53996 0.23809 0.0
H2386 H 0.36126 0.5478 0.26867 0.0
H2387 H 0.39377 0.55072 0.27987 0.0
H2388 H 0.61932 0.37501 0.50663 0.0
H2389 H 0.62113 0.4074 0.51841 0.0
H2390 H 0.67395 0.39513 0.54625 0.0
H2391 H 0.67236 0.36273 0.53444 0.0
H2392 H 0.64238 0.42069 0.56648 0.0
H2393 H 0.66814 0.4407 0.4941 0.0
H2394 H 0.64802 0.4251 0.496 0.0
H2395 H 0.67083 0.41717 0.5035 0.0
C2396 C 0.63105 0.37903 0.51572 0.0
C2397 C 0.64577 0.36636 0.51951 0.0
C2398 C 0.63208 0.39755 0.52237 0.0
C2399 C 0.64775 0.4036 0.53301 0.0
C2400 C 0.66175 0.39065 0.53803 0.0
H2401 H 0.6999 0.51121 0.55299 0.0
H2402 H 0.69148 0.47903 0.5438 0.0
C2403 C 0.6608 0.37215 0.5313 0.0
C2404 C 0.65056 0.42381 0.53714 0.0
H2405 H 0.66562 0.46491 0.51673 0.0
C2406 C 0.64731 0.43044 0.55563 0.0
C2407 C 0.65723 0.43631 0.52294 0.0
C2408 C 0.66138 0.42958 0.503 0.0
C2409 C 0.65064 0.44941 0.56032 0.0
C2410 C 0.65719 0.46198 0.54605 0.0
C2411 C 0.66042 0.45527 0.52756 0.0
C2412 C 0.66178 0.48192 0.5503 0.0
C2413 C 0.64768 0.45572 0.58061 0.0
C2414 C 0.64774 0.49438 0.55639 0.0
C2415 C 0.65249 0.51281 0.5616 0.0
C2416 C 0.67137 0.51907 0.56074 0.0
C2417 C 0.68523 0.5068 0.55381 0.0
C2418 C 0.68047 0.4884 0.5486 0.0
H2419 H 0.64651 0.4436 0.5906 0.0
H2420 H 0.65946 0.46498 0.58537 0.0
H2421 H 0.6344 0.46388 0.58148 0.0
H2422 H 0.63316 0.48974 0.55743 0.0
H2423 H 0.6415 0.52195 0.56687 0.0
H2424 H 0.89568 0.95003 0.72785 0.0
H2425 H 0.86474 0.95207 0.74296 0.0
H2426 H 0.86385 0.89185 0.75088 0.0
H2427 H 0.89482 0.88967 0.73559 0.0
H2428 H 0.83327 0.90502 0.73059 0.0
H2429 H 0.84277 0.94681 0.79647 0.0
H2430 H 0.85358 0.95765 0.77605 0.0
H2431 H 0.8622 0.9354 0.78459 0.0
C2432 C 0.8892 0.93728 0.73337 0.0
C2433 C 0.89766 0.91968 0.73045 0.0
C2434 C 0.87151 0.93848 0.74207 0.0
C2435 C 0.862 0.92212 0.74812 0.0
C2436 C 0.87098 0.90465 0.74636 0.0
H2437 H 0.74807 0.92927 0.79659 0.0
H2438 H 0.78098 0.92021 0.79134 0.0
C2439 C 0.88872 0.90344 0.73771 0.0
C2440 C 0.84184 0.92307 0.75374 0.0
H2441 H 0.81127 0.94541 0.78357 0.0
C2442 C 0.82847 0.91361 0.74237 0.0
C2443 C 0.83559 0.93419 0.76916 0.0
C2444 C 0.8493 0.94394 0.78239 0.0
C2445 C 0.80902 0.91564 0.74548 0.0
C2446 C 0.80277 0.92761 0.76021 0.0
C2447 C 0.81611 0.93638 0.77215 0.0
C2448 C 0.78249 0.9319 0.76289 0.0
C2449 C 0.79531 0.90513 0.73283 0.0
C2450 C 0.77243 0.94138 0.74859 0.0
C2451 C 0.75365 0.94658 0.75153 0.0
C2452 C 0.74461 0.9424 0.76886 0.0
C2453 C 0.7546 0.93254 0.78302 0.0
C2454 C 0.77342 0.92744 0.7801 0.0
H2455 H 0.80205 0.89281 0.72595 0.0
H2456 H 0.78282 0.90018 0.74103 0.0
H2457 H 0.79031 0.9147 0.72139 0.0
H2458 H 0.77927 0.94524 0.73533 0.0
H2459 H 0.74638 0.95429 0.74043 0.0
H2460 H 0.30268 0.00956 0.94356 0.0
H2461 H 0.30865 0.97708 0.95338 0.0
H2462 H 0.36677 0.99139 0.96527 0.0
H2463 H 0.36093 0.02396 0.95553 0.0
H2464 H 0.33624 0.95405 0.93475 0.0
H2465 H 0.34966 0.96055 0.01258 0.0
H2466 H 0.33731 0.97833 0.99909 0.0
H2467 H 0.36256 0.97665 0.99755 0.0
C2468 C 0.31663 0.00591 0.94868 0.0
C2469 C 0.33134 0.01932 0.94878 0.0
C2470 C 0.32003 0.98733 0.95419 0.0
C2471 C 0.33812 0.98186 0.96008 0.0
C2472 C 0.35265 0.99538 0.96099 0.0
H2473 H 0.38207 0.87274 0.9953 0.0
H2474 H 0.37999 0.90539 0.98423 0.0
C2475 C 0.34928 0.01398 0.95542 0.0
C2476 C 0.3421 0.96175 0.96384 0.0
H2477 H 0.35497 0.9308 0.99868 0.0
C2478 C 0.34032 0.94893 0.94873 0.0
C2479 C 0.34761 0.95519 0.98202 0.0
C2480 C 0.34929 0.96832 0.99882 0.0
C2481 C 0.34392 0.92969 0.9513 0.0
C2482 C 0.34907 0.92304 0.96959 0.0
C2483 C 0.35111 0.93592 0.98464 0.0
C2484 C 0.35132 0.90269 0.97377 0.0
C2485 C 0.34237 0.91671 0.93436 0.0
C2486 C 0.33608 0.89022 0.97115 0.0
C2487 C 0.33729 0.87156 0.97731 0.0
C2488 C 0.3537 0.86504 0.98641 0.0
C2489 C 0.36929 0.8773 0.98823 0.0
C2490 C 0.36807 0.89599 0.98202 0.0
H2491 H 0.34437 0.92449 0.92075 0.0
H2492 H 0.35293 0.90526 0.93516 0.0
H2493 H 0.32806 0.91024 0.93409 0.0
H2494 H 0.32288 0.89514 0.96518 0.0
H2495 H 0.32498 0.86252 0.97583 0.0
H2496 H 0.10831 0.37313 0.75607 0.0
H2497 H 0.13913 0.37585 0.74044 0.0
H2498 H 0.13818 0.43606 0.74808 0.0
H2499 H 0.10728 0.43351 0.76338 0.0
H2500 H 0.15531 0.42475 0.71357 0.0
H2501 H 0.18365 0.3866 0.77668 0.0
H2502 H 0.16577 0.3743 0.76333 0.0
H2503 H 0.15987 0.3955 0.77584 0.0
C2504 C 0.11442 0.387 0.75392 0.0
C2505 C 0.10552 0.40309 0.76119 0.0
C2506 C 0.13207 0.38851 0.7451 0.0
C2507 C 0.14111 0.4061 0.74355 0.0
C2508 C 0.13149 0.42233 0.74926 0.0
H2509 H 0.25593 0.44126 0.74968 0.0
H2510 H 0.22289 0.43216 0.75424 0.0
C2511 C 0.11382 0.42085 0.758 0.0
C2512 C 0.16128 0.40754 0.73809 0.0
H2513 H 0.20561 0.39707 0.75396 0.0
C2514 C 0.16634 0.41852 0.72223 0.0
C2515 C 0.1756 0.39963 0.74965 0.0
C2516 C 0.17106 0.38847 0.76742 0.0
C2517 C 0.18539 0.42209 0.71779 0.0
C2518 C 0.19968 0.41424 0.72942 0.0
C2519 C 0.1946 0.40294 0.74502 0.0
C2520 C 0.21994 0.41884 0.72666 0.0
C2521 C 0.19005 0.43489 0.70122 0.0
C2522 C 0.22937 0.41395 0.70983 0.0
C2523 C 0.24829 0.41914 0.70718 0.0
C2524 C 0.25808 0.4292 0.7214 0.0
C2525 C 0.24877 0.43349 0.73849 0.0
C2526 C 0.22989 0.42833 0.7411 0.0
H2527 H 0.1775 0.44278 0.69617 0.0
H2528 H 0.2013 0.44515 0.70517 0.0
H2529 H 0.19534 0.42631 0.68918 0.0
H2530 H 0.22206 0.40629 0.69868 0.0
H2531 H 0.25512 0.41563 0.69387 0.0
H2532 H 0.78386 0.48794 0.05917 0.0
H2533 H 0.78809 0.52053 0.04855 0.0
H2534 H 0.8434 0.50707 0.02706 0.0
H2535 H 0.83922 0.47442 0.03746 0.0
H2536 H 0.81697 0.5442 0.06216 0.0
H2537 H 0.82015 0.53758 0.98341 0.0
H2538 H 0.81063 0.51924 0.99853 0.0
H2539 H 0.83576 0.52213 0.99606 0.0
C2540 C 0.79674 0.4918 0.05177 0.0
C2541 C 0.81121 0.47861 0.04913 0.0
C2542 C 0.79917 0.51045 0.0458 0.0
C2543 C 0.81602 0.5162 0.03695 0.0
C2544 C 0.83017 0.50287 0.03359 0.0
H2545 H 0.86082 0.62342 0.99767 0.0
H2546 H 0.85745 0.59102 0.00914 0.0
C2547 C 0.82776 0.48422 0.03957 0.0
C2548 C 0.81938 0.53638 0.03262 0.0
H2549 H 0.82907 0.56714 0.99647 0.0
C2550 C 0.81952 0.54926 0.04778 0.0
C2551 C 0.82283 0.54288 0.01389 0.0
C2552 C 0.82219 0.52979 0.99699 0.0
C2553 C 0.82328 0.56847 0.04475 0.0
C2554 C 0.8267 0.57499 0.02601 0.0
C2555 C 0.82657 0.56209 0.01085 0.0
C2556 C 0.82986 0.5952 0.0216 0.0
C2557 C 0.82391 0.58154 0.06166 0.0
C2558 C 0.81569 0.60843 0.02526 0.0
C2559 C 0.81764 0.62699 0.01885 0.0
C2560 C 0.83372 0.63259 0.00849 0.0
C2561 C 0.8483 0.61956 0.00568 0.0
C2562 C 0.84635 0.60101 0.01213 0.0
H2563 H 0.82638 0.57375 0.07518 0.0
H2564 H 0.83518 0.59237 0.05997 0.0
H2565 H 0.81016 0.58884 0.06289 0.0
H2566 H 0.8027 0.60419 0.03225 0.0
H2567 H 0.80608 0.63664 0.02108 0.0
H2568 H 0.7569 0.06415 0.24133 0.0
H2569 H 0.72398 0.07332 0.23682 0.0
H2570 H 0.72402 0.09971 0.29212 0.0
H2571 H 0.75697 0.09038 0.29684 0.0
H2572 H 0.69337 0.07583 0.28657 0.0
H2573 H 0.70121 0.12468 0.22548 0.0
H2574 H 0.71213 0.10235 0.2213 0.0
H2575 H 0.721 0.11742 0.23992 0.0
C2576 C 0.75001 0.07218 0.25241 0.0
C2577 C 0.75955 0.07664 0.2694 0.0
C2578 C 0.73121 0.07747 0.24978 0.0
C2579 C 0.72162 0.08741 0.26404 0.0
C2580 C 0.7312 0.09214 0.2809 0.0
H2581 H 0.60893 0.12794 0.23488 0.0
H2582 H 0.6403 0.12712 0.24956 0.0
C2583 C 0.75003 0.08687 0.28354 0.0
C2584 C 0.70129 0.09183 0.26168 0.0
H2585 H 0.67006 0.11242 0.23117 0.0
C2586 C 0.68826 0.08407 0.27462 0.0
C2587 C 0.69466 0.10282 0.24627 0.0
C2588 C 0.708 0.11246 0.23256 0.0
C2589 C 0.6687 0.08621 0.272 0.0
C2590 C 0.66204 0.09614 0.25587 0.0
C2591 C 0.67513 0.10469 0.24348 0.0
C2592 C 0.64171 0.09672 0.25062 0.0
C2593 C 0.65539 0.07765 0.28643 0.0
C2594 C 0.63181 0.07991 0.24692 0.0
C2595 C 0.61384 0.08035 0.23866 0.0
C2596 C 0.60551 0.0976 0.23374 0.0
C2597 C 0.61493 0.11443 0.23856 0.0
C2598 C 0.6329 0.11398 0.24687 0.0
H2599 H 0.66223 0.0764 0.30064 0.0
H2600 H 0.64236 0.08613 0.28791 0.0
H2601 H 0.65131 0.06327 0.28174 0.0
H2602 H 0.63843 0.06642 0.24931 0.0
H2603 H 0.60702 0.06713 0.23501 0.0
H2604 H 0.15653 0.11839 0.53697 0.0
H2605 H 0.15582 0.08484 0.52914 0.0
H2606 H 0.17116 0.0979 0.47111 0.0
H2607 H 0.17167 0.13151 0.47877 0.0
H2608 H 0.14301 0.07053 0.47382 0.0
H2609 H 0.20364 0.05379 0.5212 0.0
H2610 H 0.18428 0.06541 0.53263 0.0
H2611 H 0.19765 0.07757 0.51457 0.0
C2612 C 0.15947 0.11414 0.52247 0.0
C2613 C 0.16415 0.1276 0.50847 0.0
C2614 C 0.15925 0.09495 0.51807 0.0
C2615 C 0.16379 0.08886 0.49964 0.0
C2616 C 0.16771 0.1023 0.48546 0.0
H2617 H 0.20216 0.98315 0.45614 0.0
H2618 H 0.19867 0.01459 0.4697 0.0
C2619 C 0.16795 0.1215 0.48984 0.0
C2620 C 0.16481 0.06849 0.49511 0.0
H2621 H 0.18893 0.02823 0.50547 0.0
C2622 C 0.15296 0.06124 0.4808 0.0
C2623 C 0.178 0.05647 0.50409 0.0
C2624 C 0.19175 0.06367 0.51887 0.0
C2625 C 0.15401 0.04233 0.47514 0.0
C2626 C 0.16702 0.03025 0.48429 0.0
C2627 C 0.17881 0.03747 0.49867 0.0
C2628 C 0.16954 0.01045 0.47814 0.0
C2629 C 0.14166 0.03563 0.45892 0.0
C2630 C 0.15455 0.99743 0.47906 0.0
C2631 C 0.1565 0.97942 0.47129 0.0
C2632 C 0.17352 0.97411 0.46258 0.0
C2633 C 0.18885 0.98681 0.46271 0.0
C2634 C 0.18688 0.0048 0.47044 0.0
H2635 H 0.13563 0.04756 0.45071 0.0
H2636 H 0.14975 0.02658 0.449 0.0
H2637 H 0.12975 0.02716 0.46474 0.0
H2638 H 0.14117 0.00137 0.48531 0.0
H2639 H 0.14446 0.96992 0.47147 0.0
H2640 H 0.14803 0.22301 0.47917 0.0
H2641 H 0.14042 0.25507 0.46898 0.0
H2642 H 0.19133 0.27559 0.49601 0.0
H2643 H 0.19929 0.24366 0.50558 0.0
H2644 H 0.13224 0.28267 0.49169 0.0
H2645 H 0.19285 0.30615 0.44864 0.0
H2646 H 0.18894 0.28164 0.45434 0.0
H2647 H 0.20137 0.29687 0.47075 0.0
C2648 C 0.15788 0.23431 0.48241 0.0
C2649 C 0.17427 0.23083 0.49317 0.0
C2650 C 0.15348 0.25263 0.47663 0.0
C2651 C 0.16538 0.26779 0.48152 0.0
C2652 C 0.18216 0.26415 0.49156 0.0
H2653 H 0.14709 0.37416 0.52439 0.0
H2654 H 0.14322 0.34141 0.51515 0.0
C2655 C 0.18665 0.24585 0.49715 0.0
C2656 C 0.15931 0.28754 0.47839 0.0
H2657 H 0.1766 0.33087 0.4664 0.0
C2658 C 0.14175 0.29315 0.48571 0.0
C2659 C 0.17139 0.30125 0.47015 0.0
C2660 C 0.18957 0.29608 0.46034 0.0
C2661 C 0.13672 0.31222 0.48649 0.0
C2662 C 0.1498 0.32607 0.48031 0.0
C2663 C 0.16662 0.32034 0.47148 0.0
C2664 C 0.14766 0.34636 0.48499 0.0
C2665 C 0.11761 0.31727 0.49437 0.0
C2666 C 0.15102 0.36028 0.47113 0.0
C2667 C 0.15355 0.3791 0.47647 0.0
C2668 C 0.15278 0.38429 0.49579 0.0
C2669 C 0.14767 0.37065 0.50939 0.0
C2670 C 0.14534 0.35184 0.50407 0.0
H2671 H 0.10695 0.30626 0.49079 0.0
H2672 H 0.11848 0.31804 0.51014 0.0
H2673 H 0.11263 0.33101 0.4888 0.0
H2674 H 0.15286 0.35642 0.45632 0.0
H2675 H 0.15748 0.3893 0.46566 0.0
H2676 H 0.02019 0.43884 0.83273 0.0
H2677 H 0.98683 0.44683 0.83682 0.0
H2678 H 0.97405 0.42279 0.78188 0.0
H2679 H 0.00731 0.41466 0.77771 0.0
H2680 H 0.96081 0.46811 0.81352 0.0
H2681 H 0.94068 0.39262 0.82014 0.0
H2682 H 0.96482 0.40078 0.82215 0.0
H2683 H 0.95392 0.39858 0.79912 0.0
C2684 C 0.01033 0.43556 0.82137 0.0
C2685 C 0.01633 0.426 0.80496 0.0
C2686 C 0.99129 0.44008 0.82376 0.0
C2687 C 0.97797 0.435 0.80984 0.0
C2688 C 0.98409 0.42647 0.79295 0.0
H2689 H 0.858 0.44322 0.79487 0.0
H2690 H 0.89131 0.43448 0.79413 0.0
C2691 C 0.00311 0.42198 0.79053 0.0
C2692 C 0.95759 0.43798 0.81326 0.0
H2693 H 0.91563 0.41457 0.81882 0.0
C2694 C 0.95092 0.45644 0.81481 0.0
C2695 C 0.9448 0.42267 0.81499 0.0
C2696 C 0.95137 0.40252 0.81419 0.0
C2697 C 0.93163 0.46004 0.81746 0.0
C2698 C 0.9188 0.44472 0.81903 0.0
C2699 C 0.92552 0.42625 0.8177 0.0
C2700 C 0.89821 0.44769 0.82103 0.0
C2701 C 0.92505 0.4802 0.8179 0.0
C2702 C 0.89088 0.45716 0.83689 0.0
C2703 C 0.87181 0.46214 0.83739 0.0
C2704 C 0.8598 0.45765 0.82205 0.0
C2705 C 0.8669 0.44691 0.80689 0.0
C2706 C 0.88595 0.44195 0.80641 0.0
H2707 H 0.93596 0.49008 0.81231 0.0
H2708 H 0.91193 0.48192 0.8094 0.0
H2709 H 0.92193 0.48423 0.83283 0.0
H2710 H 0.90006 0.46134 0.84852 0.0
H2711 H 0.86675 0.47039 0.84927 0.0
H2712 H 0.75988 0.38548 0.08884 0.0
H2713 H 0.74845 0.35327 0.0835 0.0
H2714 H 0.77816 0.35164 0.02996 0.0
H2715 H 0.78965 0.38378 0.03515 0.0
H2716 H 0.74011 0.33285 0.03122 0.0
H2717 H 0.79047 0.31136 0.08822 0.0
H2718 H 0.77394 0.3296 0.09401 0.0
H2719 H 0.79194 0.334 0.07656 0.0
C2720 C 0.76353 0.37847 0.07567 0.0
C2721 C 0.77582 0.38708 0.06249 0.0
C2722 C 0.75707 0.36005 0.0727 0.0
C2723 C 0.76272 0.35004 0.05649 0.0
C2724 C 0.7737 0.35914 0.04259 0.0
H2725 H 0.78083 0.23386 0.03142 0.0
H2726 H 0.78261 0.26756 0.03851 0.0
C2727 C 0.78025 0.3775 0.04558 0.0
C2728 C 0.75909 0.32956 0.05495 0.0
H2729 H 0.77336 0.28727 0.07294 0.0
C2730 C 0.74718 0.32285 0.04045 0.0
C2731 C 0.7686 0.31662 0.06686 0.0
C2732 C 0.78207 0.32314 0.08223 0.0
C2733 C 0.74462 0.30343 0.03746 0.0
C2734 C 0.7542 0.29051 0.04936 0.0
C2735 C 0.76596 0.29725 0.06395 0.0
C2736 C 0.75312 0.26994 0.04615 0.0
C2737 C 0.73225 0.29686 0.02122 0.0
C2738 C 0.73607 0.26006 0.04862 0.0
C2739 C 0.73505 0.24078 0.04471 0.0
C2740 C 0.75107 0.2311 0.03826 0.0
C2741 C 0.76827 0.24093 0.0364 0.0
C2742 C 0.76929 0.26017 0.04039 0.0
H2743 H 0.72867 0.30853 0.01131 0.0
H2744 H 0.73931 0.28555 0.01303 0.0
H2745 H 0.71887 0.29098 0.02702 0.0
H2746 H 0.72351 0.2673 0.05335 0.0
H2747 H 0.72159 0.23359 0.04623 0.0
H2748 H 0.85351 0.0129 0.24303 0.0
H2749 H 0.8844 0.01053 0.22752 0.0
H2750 H 0.88559 0.07072 0.21931 0.0
H2751 H 0.85455 0.07311 0.23414 0.0
H2752 H 0.9023 0.05246 0.18969 0.0
H2753 H 0.92975 0.02643 0.259 0.0
H2754 H 0.91157 0.01178 0.24894 0.0
H2755 H 0.90614 0.03538 0.2563 0.0
C2756 C 0.86015 0.02555 0.23748 0.0
C2757 C 0.85175 0.04322 0.24004 0.0
C2758 C 0.87785 0.0242 0.22876 0.0
C2759 C 0.88752 0.04052 0.22279 0.0
C2760 C 0.87846 0.05797 0.22396 0.0
H2761 H 0.00924 0.04883 0.22153 0.0
H2762 H 0.97564 0.05506 0.22628 0.0
C2763 C 0.8607 0.0593 0.23246 0.0
C2764 C 0.90766 0.03978 0.21706 0.0
H2765 H 0.95134 0.02785 0.23351 0.0
C2766 C 0.91306 0.04707 0.19924 0.0
C2767 C 0.92172 0.03317 0.22974 0.0
C2768 C 0.91709 0.02642 0.24963 0.0
C2769 C 0.93213 0.04773 0.19367 0.0
C2770 C 0.94609 0.04056 0.20613 0.0
C2771 C 0.94065 0.03336 0.22396 0.0
C2772 C 0.96644 0.03996 0.2011 0.0
C2773 C 0.93713 0.05651 0.17473 0.0
C2774 C 0.97251 0.03003 0.18499 0.0
C2775 C 0.99174 0.02676 0.18207 0.0
C2776 C 0.00518 0.03303 0.19545 0.0
C2777 C 0.99919 0.04384 0.211 0.0
C2778 C 0.98 0.04734 0.21376 0.0
H2779 H 0.9261 0.06651 0.16992 0.0
H2780 H 0.95088 0.0641 0.17544 0.0
H2781 H 0.93821 0.04527 0.16383 0.0
H2782 H 0.96236 0.02382 0.17526 0.0
H2783 H 0.99592 0.01821 0.17005 0.0
H2784 H 0.22884 0.88672 0.42173 0.0
H2785 H 0.24131 0.85486 0.42636 0.0
H2786 H 0.20392 0.84664 0.47412 0.0
H2787 H 0.19144 0.87834 0.46969 0.0
H2788 H 0.25484 0.83382 0.46546 0.0
H2789 H 0.19096 0.80716 0.42741 0.0
H2790 H 0.2002 0.83068 0.42378 0.0
H2791 H 0.18762 0.82505 0.44523 0.0
C2792 C 0.22366 0.87832 0.43354 0.0
C2793 C 0.20907 0.88498 0.44528 0.0
C2794 C 0.23076 0.86013 0.43612 0.0
C2795 C 0.22336 0.84843 0.45045 0.0
C2796 C 0.20972 0.85549 0.46294 0.0
H2797 H 0.22013 0.73297 0.48372 0.0
H2798 H 0.21466 0.76606 0.47614 0.0
C2799 C 0.20265 0.87362 0.4604 0.0
C2800 C 0.22841 0.8283 0.45134 0.0
H2801 H 0.21066 0.78453 0.44178 0.0
C2802 C 0.24535 0.82299 0.46012 0.0
C2803 C 0.21591 0.81433 0.44436 0.0
C2804 C 0.19767 0.81946 0.43455 0.0
C2805 C 0.24981 0.80389 0.46274 0.0
C2806 C 0.2371 0.78987 0.45605 0.0
C2807 C 0.22039 0.79529 0.44685 0.0
C2808 C 0.24022 0.76953 0.45958 0.0
C2809 C 0.26765 0.79891 0.47336 0.0
C2810 C 0.25614 0.76032 0.45231 0.0
C2811 C 0.25931 0.74136 0.45662 0.0
C2812 C 0.24653 0.73127 0.46818 0.0
C2813 C 0.23023 0.74034 0.47477 0.0
C2814 C 0.2271 0.75927 0.47049 0.0
H2815 H 0.27365 0.81118 0.48114 0.0
H2816 H 0.26496 0.78736 0.48372 0.0
H2817 H 0.2784 0.794 0.46305 0.0
H2818 H 0.26622 0.76787 0.44349 0.0
H2819 H 0.27199 0.73474 0.45132 0.0
H2820 H 0.35998 0.48348 0.74826 0.0
H2821 H 0.39116 0.48006 0.76306 0.0
H2822 H 0.38155 0.42029 0.76889 0.0
H2823 H 0.35025 0.42368 0.75478 0.0
H2824 H 0.40199 0.43421 0.79874 0.0
H2825 H 0.43219 0.45816 0.72978 0.0
H2826 H 0.41718 0.4752 0.74081 0.0
H2827 H 0.40738 0.45315 0.73277 0.0
C2828 C 0.36434 0.4697 0.75314 0.0
C2829 C 0.35281 0.45381 0.7501 0.0
C2830 C 0.3822 0.46774 0.76146 0.0
C2831 C 0.38887 0.44983 0.76654 0.0
C2832 C 0.37676 0.43421 0.76492 0.0
H2833 H 0.50818 0.42528 0.76461 0.0
H2834 H 0.47395 0.42247 0.76063 0.0
C2835 C 0.35886 0.43619 0.75682 0.0
C2836 C 0.40895 0.44699 0.77176 0.0
H2837 H 0.45375 0.45256 0.75476 0.0
C2838 C 0.41334 0.4382 0.78915 0.0
C2839 C 0.42371 0.45173 0.75899 0.0
C2840 C 0.41992 0.4599 0.73947 0.0
C2841 C 0.43214 0.43433 0.79425 0.0
C2842 C 0.44691 0.43976 0.78178 0.0
C2843 C 0.44245 0.44836 0.76433 0.0
C2844 C 0.46721 0.43746 0.78657 0.0
C2845 C 0.43591 0.42416 0.81274 0.0
C2846 C 0.4748 0.446 0.80292 0.0
C2847 C 0.49436 0.44726 0.8054 0.0
C2848 C 0.50664 0.44041 0.79134 0.0
C2849 C 0.49905 0.43069 0.77567 0.0
C2850 C 0.47949 0.42917 0.77335 0.0
H2851 H 0.42354 0.41549 0.81716 0.0
H2852 H 0.44842 0.41489 0.81162 0.0
H2853 H 0.43862 0.43466 0.82413 0.0
H2854 H 0.46571 0.45286 0.81312 0.0
H2855 H 0.49978 0.45497 0.81756 0.0
H2856 H 0.80495 0.7375 0.99821 0.0
H2857 H 0.81038 0.77108 0.00427 0.0
H2858 H 0.87045 0.76153 0.00676 0.0
H2859 H 0.8651 0.72799 0.00144 0.0
H2860 H 0.86017 0.78824 0.03191 0.0
H2861 H 0.82945 0.80326 0.96078 0.0
H2862 H 0.8132 0.79156 0.97651 0.0
H2863 H 0.83423 0.77966 0.96884 0.0
C2864 C 0.81926 0.74251 0.00048 0.0
C2865 C 0.83461 0.73017 0.9991 0.0
C2866 C 0.82237 0.76171 0.00378 0.0
C2867 C 0.84087 0.76888 0.00538 0.0
C2868 C 0.85608 0.75635 0.00539 0.0
H2869 H 0.86298 0.88535 0.97561 0.0
H2870 H 0.86674 0.85124 0.97829 0.0
C2871 C 0.85298 0.73716 0.00233 0.0
C2872 C 0.84456 0.78946 0.00556 0.0
H2873 H 0.8371 0.82958 0.97996 0.0
C2874 C 0.85519 0.7973 0.02054 0.0
C2875 C 0.83854 0.80119 0.99043 0.0
C2876 C 0.8284 0.79349 0.97313 0.0
C2877 C 0.85953 0.81665 0.02102 0.0
C2878 C 0.85268 0.8285 0.00636 0.0
C2879 C 0.84238 0.82054 0.99123 0.0
C2880 C 0.85493 0.84931 0.00669 0.0
C2881 C 0.87165 0.82407 0.03707 0.0
C2882 C 0.848 0.85971 0.02213 0.0
C2883 C 0.84623 0.87924 0.02077 0.0
C2884 C 0.85093 0.88866 0.00376 0.0
C2885 C 0.85924 0.87847 0.98888 0.0
C2886 C 0.86129 0.85896 0.99037 0.0
H2887 H 0.88113 0.81297 0.04272 0.0
H2888 H 0.88041 0.83627 0.03243 0.0
H2889 H 0.8624 0.82864 0.04893 0.0
H2890 H 0.84261 0.85265 0.03471 0.0
H2891 H 0.83966 0.88667 0.03244 0.0
H2892 H 0.36275 0.02164 0.23222 0.0
H2893 H 0.39561 0.0321 0.23303 0.0
H2894 H 0.39082 0.05198 0.17506 0.0
H2895 H 0.35812 0.04039 0.17384 0.0
H2896 H 0.42179 0.03391 0.17858 0.0
H2897 H 0.41831 0.08232 0.23994 0.0
H2898 H 0.41062 0.05918 0.24664 0.0
H2899 H 0.39738 0.07236 0.22921 0.0
C2900 C 0.36861 0.02853 0.21974 0.0
C2901 C 0.35785 0.03037 0.20301 0.0
C2902 C 0.3874 0.03462 0.22026 0.0
C2903 C 0.39567 0.04325 0.20427 0.0
C2904 C 0.38477 0.04544 0.18763 0.0
H2905 H 0.50199 0.10366 0.2074 0.0
H2906 H 0.46914 0.09335 0.20841 0.0
C2907 C 0.36607 0.03892 0.18696 0.0
C2908 C 0.41595 0.04895 0.20453 0.0
H2909 H 0.44923 0.07278 0.23042 0.0
C2910 C 0.42774 0.04258 0.18983 0.0
C2911 C 0.42377 0.0604 0.21909 0.0
C2912 C 0.41179 0.06912 0.23447 0.0
C2913 C 0.44703 0.04728 0.18927 0.0
C2914 C 0.45503 0.05796 0.20433 0.0
C2915 C 0.44323 0.06435 0.21902 0.0
C2916 C 0.47528 0.06377 0.20455 0.0
C2917 C 0.45841 0.04126 0.17218 0.0
C2918 C 0.48987 0.05057 0.20249 0.0
C2919 C 0.50876 0.05653 0.20146 0.0
C2920 C 0.51339 0.07572 0.2031 0.0
C2921 C 0.49888 0.08875 0.20616 0.0
C2922 C 0.48005 0.08286 0.20673 0.0
H2923 H 0.44921 0.03839 0.15965 0.0
H2924 H 0.46896 0.05218 0.1681 0.0
H2925 H 0.46599 0.02807 0.17563 0.0
H2926 H 0.48666 0.03569 0.20145 0.0
H2927 H 0.5197 0.04618 0.19923 0.0
H2928 H 0.54524 0.33159 0.05884 0.0
H2929 H 0.53514 0.33442 0.09198 0.0
H2930 H 0.47694 0.32882 0.07454 0.0
H2931 H 0.48693 0.32569 0.04134 0.0
H2932 H 0.50978 0.35615 0.11385 0.0
H2933 H 0.48683 0.28134 0.107 0.0
H2934 H 0.50088 0.29309 0.0891 0.0
H2935 H 0.476 0.29761 0.09074 0.0
C2936 C 0.53025 0.33162 0.06195 0.0
C2937 C 0.5169 0.3281 0.04754 0.0
C2938 C 0.5245 0.33316 0.08092 0.0
C2939 C 0.50534 0.33128 0.08571 0.0
C2940 C 0.49183 0.32988 0.07113 0.0
H2941 H 0.47561 0.33596 0.2072 0.0
H2942 H 0.47266 0.33987 0.17264 0.0
C2943 C 0.49757 0.32826 0.05217 0.0
C2944 C 0.49991 0.32857 0.1059 0.0
H2945 H 0.48423 0.2951 0.13726 0.0
C2946 C 0.50394 0.34293 0.11899 0.0
C2947 C 0.49261 0.31112 0.11251 0.0
C2948 C 0.48895 0.29481 0.09919 0.0
C2949 C 0.50126 0.34018 0.13862 0.0
C2950 C 0.49401 0.32272 0.14525 0.0
C2951 C 0.48956 0.30853 0.13209 0.0
C2952 C 0.49293 0.31825 0.16585 0.0
C2953 C 0.50718 0.35565 0.15215 0.0
C2954 C 0.50426 0.3039 0.17338 0.0
C2955 C 0.50575 0.30144 0.19307 0.0
C2956 C 0.49597 0.31334 0.20554 0.0
C2957 C 0.48343 0.32667 0.19793 0.0
C2958 C 0.48186 0.32904 0.17821 0.0
H2959 H 0.51602 0.36655 0.14502 0.0
H2960 H 0.4944 0.36262 0.15784 0.0
H2961 H 0.51525 0.34983 0.16437 0.0
H2962 H 0.5128 0.2953 0.16406 0.0
H2963 H 0.51549 0.29102 0.1985 0.0
H2964 H 0.01138 0.74568 0.20555 0.0
H2965 H 0.02168 0.74294 0.17252 0.0
H2966 H 0.06667 0.78287 0.18305 0.0
H2967 H 0.05619 0.78596 0.21622 0.0
H2968 H 0.04644 0.79055 0.14983 0.0
H2969 H 0.06758 0.71568 0.15202 0.0
H2970 H 0.04401 0.71913 0.16059 0.0
H2971 H 0.06367 0.72926 0.17335 0.0
C2972 C 0.02363 0.75371 0.20093 0.0
C2973 C 0.03308 0.76593 0.21352 0.0
C2974 C 0.02952 0.75209 0.18205 0.0
C2975 C 0.0451 0.7625 0.17539 0.0
C2976 C 0.05467 0.77464 0.18794 0.0
H2977 H 0.09595 0.75763 0.06206 0.0
H2978 H 0.08875 0.76846 0.0944 0.0
C2979 C 0.04874 0.77631 0.20689 0.0
C2980 C 0.05089 0.76102 0.15516 0.0
H2981 H 0.06277 0.72906 0.12106 0.0
C2982 C 0.05027 0.77717 0.14356 0.0
C2983 C 0.05599 0.74357 0.14705 0.0
C2984 C 0.05805 0.72597 0.15894 0.0
C2985 C 0.05382 0.77611 0.12388 0.0
C2986 C 0.05805 0.75851 0.11573 0.0
C2987 C 0.05928 0.74251 0.1274 0.0
C2988 C 0.0608 0.756 0.09501 0.0
C2989 C 0.05244 0.79358 0.11175 0.0
C2990 C 0.04716 0.74608 0.08449 0.0
C2991 C 0.05117 0.73996 0.06606 0.0
C2992 C 0.06899 0.7435 0.05791 0.0
C2993 C 0.08207 0.75477 0.06791 0.0
C2994 C 0.07801 0.76093 0.0864 0.0
H2995 H 0.04776 0.80599 0.12005 0.0
H2996 H 0.06644 0.79679 0.10537 0.0
H2997 H 0.04236 0.79114 0.09984 0.0
H2998 H 0.03381 0.74213 0.09096 0.0
H2999 H 0.04079 0.73133 0.05873 0.0
H3000 H 0.50374 0.35048 0.3205 0.0
H3001 H 0.49393 0.34615 0.35367 0.0
H3002 H 0.45876 0.29912 0.3371 0.0
H3003 H 0.46825 0.30352 0.30388 0.0
H3004 H 0.44207 0.32226 0.36431 0.0
H3005 H 0.515 0.30252 0.3854 0.0
H3006 H 0.51315 0.32515 0.37412 0.0
H3007 H 0.50765 0.30421 0.36082 0.0
C3008 C 0.4936 0.33947 0.32386 0.0
C3009 C 0.48685 0.32726 0.30961 0.0
C3010 C 0.48818 0.33689 0.34284 0.0
C3011 C 0.47602 0.322 0.34788 0.0
C3012 C 0.46831 0.31058 0.33352 0.0
H3013 H 0.4329 0.2729 0.45249 0.0
H3014 H 0.44283 0.27897 0.41963 0.0
C3015 C 0.47368 0.31316 0.31453 0.0
C3016 C 0.47188 0.31784 0.36815 0.0
H3017 H 0.49245 0.30478 0.4102 0.0
C3018 C 0.45306 0.31842 0.37435 0.0
C3019 C 0.48628 0.31272 0.38116 0.0
C3020 C 0.50664 0.31092 0.37506 0.0
C3021 C 0.44827 0.31428 0.3933 0.0
C3022 C 0.46267 0.30919 0.40629 0.0
C3023 C 0.48149 0.30869 0.40015 0.0
C3024 C 0.45834 0.30446 0.42637 0.0
C3025 C 0.42789 0.31562 0.39937 0.0
C3026 C 0.46449 0.31635 0.44109 0.0
C3027 C 0.4589 0.3129 0.45988 0.0
C3028 C 0.44717 0.29742 0.46423 0.0
C3029 C 0.4419 0.28497 0.44958 0.0
C3030 C 0.44745 0.28847 0.43079 0.0
H3031 H 0.41926 0.32354 0.38887 0.0
H3032 H 0.42182 0.30123 0.40071 0.0
H3033 H 0.42674 0.32259 0.41347 0.0
H3034 H 0.47302 0.32869 0.43793 0.0
H3035 H 0.4632 0.32272 0.47087 0.0
H3036 H 0.03531 0.68162 0.54858 0.0
H3037 H 0.04585 0.67531 0.58114 0.0
H3038 H 0.9895 0.65704 0.59602 0.0
H3039 H 0.97904 0.66283 0.56343 0.0
H3040 H 0.03247 0.69539 0.60968 0.0
H3041 H 0.02016 0.62036 0.62628 0.0
H3042 H 0.02077 0.62911 0.6021 0.0
H3043 H 0.99943 0.63057 0.61599 0.0
C3044 C 0.02536 0.67555 0.55861 0.0
C3045 C 0.00632 0.67282 0.5535 0.0
C3046 C 0.03138 0.67203 0.57724 0.0
C3047 C 0.01849 0.6657 0.59106 0.0
C3048 C -0.00017 0.66156 0.58557 0.0
H3049 H 0.00158 0.69747 0.70531 0.0
H3050 H 0.00664 0.69613 0.67094 0.0
C3051 C 0.99383 0.66492 0.56689 0.0
C3052 C 0.02359 0.66632 0.61157 0.0
H3053 H 0.0194 0.64182 0.65321 0.0
C3054 C 0.03 0.68353 0.61915 0.0
C3055 C 0.02063 0.65084 0.62394 0.0
C3056 C 0.01507 0.63164 0.6166 0.0
C3057 C 0.0324 0.68599 0.63883 0.0
C3058 C 0.02788 0.67099 0.6513 0.0
C3059 C 0.02263 0.65343 0.64367 0.0
C3060 C 0.02699 0.67353 0.67224 0.0
C3061 C 0.03944 0.70477 0.64605 0.0
C3062 C 0.03682 0.66137 0.68445 0.0
C3063 C 0.03382 0.66202 0.70412 0.0
C3064 C 0.02086 0.67479 0.7119 0.0
C3065 C 0.01176 0.68759 0.69976 0.0
C3066 C 0.01471 0.68688 0.68009 0.0
H3067 H 0.04835 0.71201 0.63522 0.0
H3068 H 0.02718 0.71393 0.64905 0.0
H3069 H 0.04779 0.70318 0.65937 0.0
H3070 H 0.04631 0.65093 0.6787 0.0
H3071 H 0.04101 0.65194 0.71313 0.0
H3072 H 0.04226 0.70172 0.80447 0.0
H3073 H 0.05219 0.70887 0.83706 0.0
H3074 H 0.04272 0.6509 0.85302 0.0
H3075 H 0.03319 0.64357 0.8204 0.0
H3076 H 0.02837 0.70561 0.86699 0.0
H3077 H 0.09162 0.66212 0.88041 0.0
H3078 H 0.0828 0.66664 0.85669 0.0
H3079 H 0.07215 0.64858 0.87125 0.0
C3080 C 0.04291 0.69036 0.81476 0.0
C3081 C 0.03694 0.67208 0.80987 0.0
C3082 C 0.04848 0.6945 0.83342 0.0
C3083 C 0.04825 0.68043 0.84749 0.0
C3084 C 0.04336 0.66192 0.84235 0.0
H3085 H 0.052 0.67556 0.97027 0.0
H3086 H 0.04569 0.67042 0.93637 0.0
C3087 C 0.03789 0.65775 0.82367 0.0
C3088 C 0.05099 0.68547 0.86783 0.0
H3089 H 0.07581 0.67413 0.90795 0.0
C3090 C 0.0389 0.6989 0.8759 0.0
C3091 C 0.06466 0.67663 0.87945 0.0
C3092 C 0.07867 0.66283 0.87147 0.0
C3093 C 0.03981 0.70336 0.89536 0.0
C3094 C 0.0532 0.69422 0.90701 0.0
C3095 C 0.06544 0.68098 0.89895 0.0
C3096 C 0.05487 0.69823 0.92764 0.0
C3097 C 0.02614 0.71743 0.90345 0.0
C3098 C 0.0617 0.71573 0.93395 0.0
C3099 C 0.06532 0.71872 0.95331 0.0
C3100 C 0.06219 0.70423 0.96664 0.0
C3101 C 0.05447 0.68703 0.96036 0.0
C3102 C 0.05096 0.68403 0.941 0.0
H3103 H 0.01438 0.72047 0.89343 0.0
H3104 H 0.02011 0.7122 0.9171 0.0
H3105 H 0.03376 0.73081 0.90643 0.0
H3106 H 0.06498 0.7268 0.92381 0.0
H3107 H 0.07137 0.73208 0.9577 0.0
H3108 H 0.52715 0.82844 0.45478 0.0
H3109 H 0.53992 0.83365 0.42284 0.0
H3110 H 0.48409 0.84705 0.40239 0.0
H3111 H 0.4714 0.84239 0.43429 0.0
H3112 H 0.53003 0.81087 0.39505 0.0
H3113 H 0.51482 0.88314 0.37139 0.0
H3114 H 0.5141 0.87641 0.39622 0.0
H3115 H 0.49385 0.87259 0.38104 0.0
C3116 C 0.51775 0.83329 0.44364 0.0
C3117 C 0.49824 0.83486 0.447 0.0
C3118 C 0.52505 0.83617 0.42536 0.0
C3119 C 0.51299 0.84073 0.41017 0.0
C3120 C 0.49379 0.84392 0.4139 0.0
H3121 H 0.49973 0.79743 0.3009 0.0
H3122 H 0.50598 0.80217 0.33471 0.0
C3123 C 0.4865 0.84119 0.4322 0.0
C3124 C 0.51956 0.83893 0.39017 0.0
H3125 H 0.51546 0.85926 0.34633 0.0
C3126 C 0.52729 0.82166 0.38447 0.0
C3127 C 0.51633 0.85304 0.37633 0.0
C3128 C 0.50951 0.8724 0.38163 0.0
C3129 C 0.53048 0.81762 0.36519 0.0
C3130 C 0.5254 0.83102 0.35121 0.0
C3131 C 0.51909 0.84883 0.357 0.0
C3132 C 0.52449 0.82627 0.33064 0.0
C3133 C 0.5388 0.79882 0.36001 0.0
C3134 C 0.53295 0.83809 0.31701 0.0
C3135 C 0.52922 0.83551 0.29761 0.0
C3136 C 0.51688 0.82111 0.29154 0.0
C3137 C 0.5094 0.80856 0.30511 0.0
C3138 C 0.51305 0.81122 0.32448 0.0
H3139 H 0.54833 0.79367 0.37146 0.0
H3140 H 0.52723 0.78832 0.35837 0.0
H3141 H 0.54686 0.79959 0.34646 0.0
H3142 H 0.54178 0.84982 0.32143 0.0
H3143 H 0.53517 0.84542 0.28747 0.0
H3144 H 0.52553 0.32884 0.94404 0.0
H3145 H 0.52358 0.32744 0.90923 0.0
H3146 H 0.49712 0.27267 0.91307 0.0
H3147 H 0.49879 0.27407 0.94775 0.0
H3148 H 0.54241 0.3009 0.88898 0.0
H3149 H 0.46644 0.29721 0.87122 0.0
H3150 H 0.47492 0.30536 0.89408 0.0
H3151 H 0.47242 0.28053 0.88943 0.0
C3152 C 0.51875 0.31677 0.93747 0.0
C3153 C 0.51237 0.30152 0.9486 0.0
C3154 C 0.51772 0.31597 0.91759 0.0
C3155 C 0.51012 0.30001 0.90856 0.0
C3156 C 0.5027 0.28529 0.91971 0.0
H3157 H 0.53752 0.23606 0.81286 0.0
H3158 H 0.53843 0.25483 0.84193 0.0
C3159 C 0.50373 0.28607 0.93956 0.0
C3160 C 0.51213 0.29748 0.88772 0.0
H3161 H 0.48777 0.28328 0.84831 0.0
C3162 C 0.53042 0.29745 0.87996 0.0
C3163 C 0.49651 0.29327 0.87588 0.0
C3164 C 0.47646 0.29429 0.88305 0.0
C3165 C 0.53359 0.29204 0.86102 0.0
C3166 C 0.51809 0.28623 0.84969 0.0
C3167 C 0.4997 0.28754 0.85706 0.0
C3168 C 0.5206 0.27701 0.83093 0.0
C3169 C 0.55354 0.2922 0.85349 0.0
C3170 C 0.51057 0.28338 0.81494 0.0
C3171 C 0.50992 0.27258 0.79833 0.0
C3172 C 0.5192 0.25517 0.7975 0.0
C3173 C 0.53033 0.24947 0.81303 0.0
C3174 C 0.53091 0.26024 0.82966 0.0
H3175 H 0.56233 0.30296 0.86089 0.0
H3176 H 0.56002 0.27826 0.85616 0.0
H3177 H 0.55388 0.29506 0.83793 0.0
H3178 H 0.50248 0.29625 0.81563 0.0
H3179 H 0.50122 0.27733 0.78658 0.0
H3180 H 0.40744 0.94414 0.67558 0.0
H3181 H 0.37505 0.93204 0.67377 0.0
H3182 H 0.35744 0.9839 0.64726 0.0
H3183 H 0.38974 0.9957 0.64837 0.0
H3184 H 0.34834 0.94683 0.69364 0.0
H3185 H 0.32442 0.9483 0.61912 0.0
H3186 H 0.34916 0.94961 0.62534 0.0
H3187 H 0.33494 0.9706 0.62473 0.0
C3188 C 0.39679 0.95262 0.66861 0.0
C3189 C 0.40111 0.97092 0.66221 0.0
C3190 C 0.37825 0.94572 0.66769 0.0
C3191 C 0.36373 0.95701 0.66036 0.0
C3192 C 0.36837 0.97469 0.65257 0.0
H3193 H 0.25808 0.98445 0.70303 0.0
H3194 H 0.29082 0.97514 0.69873 0.0
C3195 C 0.38691 0.98149 0.65329 0.0
C3196 C 0.34358 0.95193 0.66368 0.0
H3197 H 0.30002 0.95462 0.6431 0.0
C3198 C 0.33782 0.94803 0.68246 0.0
C3199 C 0.32976 0.95307 0.64915 0.0
C3200 C 0.33497 0.95541 0.62844 0.0
C3201 C 0.31863 0.94682 0.68732 0.0
C3202 C 0.30481 0.95015 0.67315 0.0
C3203 C 0.31056 0.95243 0.65411 0.0
C3204 C 0.28466 0.95342 0.67794 0.0
C3205 C 0.31343 0.94245 0.70771 0.0
C3206 C 0.27015 0.94432 0.66775 0.0
C3207 C 0.25136 0.94987 0.66997 0.0
C3208 C 0.24676 0.96462 0.68243 0.0
C3209 C 0.26114 0.97292 0.69345 0.0
C3210 C 0.27991 0.96751 0.69108 0.0
H3211 H 0.32407 0.93309 0.71439 0.0
H3212 H 0.31324 0.95572 0.71602 0.0
H3213 H 0.29933 0.93558 0.70875 0.0
H3214 H 0.27346 0.93347 0.65748 0.0
H3215 H 0.24058 0.94324 0.66126 0.0
H3216 H 0.78265 0.13157 0.98107 0.0
H3217 H 0.7993 0.10151 0.98262 0.0
H3218 H 0.81301 0.11174 0.04161 0.0
H3219 H 0.7967 0.14192 0.04011 0.0
H3220 H 0.84193 0.09201 0.02057 0.0
H3221 H 0.77016 0.06058 0.01314 0.0
H3222 H 0.77693 0.07616 0.9941 0.0
H3223 H 0.77395 0.08528 0.01778 0.0
C3224 C 0.78968 0.12767 0.99421 0.0
C3225 C 0.78812 0.13894 0.01055 0.0
C3226 C 0.79913 0.11048 0.99509 0.0
C3227 C 0.80701 0.10428 0.01235 0.0
C3228 C 0.80693 0.11626 0.02819 0.0
H3229 H 0.8122 0.98606 0.0394 0.0
H3230 H 0.80985 0.02015 0.04319 0.0
C3231 C 0.79757 0.13348 0.0273 0.0
C3232 C 0.81301 0.08448 0.0146 0.0
H3233 H 0.79573 0.03958 0.01389 0.0
C3234 C 0.83189 0.08049 0.01914 0.0
C3235 C 0.79973 0.06957 0.01318 0.0
C3236 C 0.77902 0.07304 0.00946 0.0
C3237 C 0.83793 0.06184 0.02184 0.0
C3238 C 0.82475 0.04691 0.01976 0.0
C3239 C 0.80583 0.05102 0.01554 0.0
C3240 C 0.83006 0.02679 0.021 0.0
C3241 C 0.85826 0.05832 0.02709 0.0
C3242 C 0.84292 0.0192 0.00795 0.0
C3243 C 0.84446 -0.00031 0.00595 0.0
C3244 C 0.83291 0.98751 0.01672 0.0
C3245 C 0.82123 0.9951 0.03087 0.0
C3246 C 0.81985 0.01458 0.03301 0.0
H3247 H 0.86484 0.07089 0.03386 0.0
H3248 H 0.85952 0.04616 0.03697 0.0
H3249 H 0.86636 0.05512 0.01398 0.0
H3250 H 0.85069 0.02828 0.99829 0.0
H3251 H 0.85352 0.99425 0.99485 0.0
H3252 H 0.90325 0.56443 0.31901 0.0
H3253 H 0.87127 0.57715 0.31757 0.0
H3254 H 0.84986 0.52678 0.34472 0.0
H3255 H 0.88167 0.51448 0.34692 0.0
H3256 H 0.84686 0.56191 0.29568 0.0
H3257 H 0.814 0.56305 0.36635 0.0
H3258 H 0.8393 0.56159 0.36354 0.0
H3259 H 0.8248 0.54055 0.36351 0.0
C3260 C 0.89181 0.55649 0.3255 0.0
C3261 C 0.89493 0.53837 0.3329 0.0
C3262 C 0.87351 0.56374 0.32457 0.0
C3263 C 0.85805 0.55296 0.33098 0.0
C3264 C 0.86147 0.53564 0.34005 0.0
H3265 H 0.76192 0.51696 0.27652 0.0
H3266 H 0.79287 0.52976 0.28453 0.0
C3267 C 0.87976 0.52853 0.34122 0.0
C3268 C 0.83849 0.55771 0.32499 0.0
H3269 H 0.79281 0.55361 0.33978 0.0
C3270 C 0.83507 0.56067 0.30546 0.0
C3271 C 0.82298 0.55662 0.33763 0.0
C3272 C 0.82554 0.5555 0.35894 0.0
C3273 C 0.81665 0.56065 0.29807 0.0
C3274 C 0.80129 0.55697 0.31042 0.0
C3275 C 0.80457 0.55597 0.33016 0.0
C3276 C 0.78229 0.55161 0.30312 0.0
C3277 C 0.81397 0.56393 0.277 0.0
C3278 C 0.76589 0.5596 0.31081 0.0
C3279 C 0.7481 0.55203 0.30647 0.0
C3280 C 0.74643 0.53634 0.29436 0.0
C3281 C 0.76273 0.52914 0.28576 0.0
C3282 C 0.78048 0.53657 0.29025 0.0
H3283 H 0.82476 0.57398 0.27148 0.0
H3284 H 0.81585 0.55044 0.26929 0.0
H3285 H 0.79971 0.56951 0.27372 0.0
H3286 H 0.76692 0.57115 0.32082 0.0
H3287 H 0.73577 0.55785 0.31333 0.0
H3288 H 0.15726 0.48641 0.49699 0.0
H3289 H 0.15914 0.52072 0.49376 0.0
H3290 H 0.21945 0.51716 0.48604 0.0
H3291 H 0.21764 0.48297 0.4889 0.0
H3292 H 0.17827 0.54371 0.51796 0.0
H3293 H 0.20529 0.55427 0.44485 0.0
H3294 H 0.19535 0.53211 0.45277 0.0
H3295 H 0.2196 0.53804 0.45798 0.0
C3296 C 0.17084 0.49292 0.4941 0.0
C3297 C 0.18731 0.482 0.49317 0.0
C3298 C 0.1719 0.51252 0.49234 0.0
C3299 C 0.1894 0.5215 0.48949 0.0
C3300 C 0.20574 0.51054 0.48781 0.0
H3301 H 0.23514 0.62623 0.52525 0.0
H3302 H 0.2203 0.59515 0.5235 0.0
C3303 C 0.20469 0.49097 0.48953 0.0
C3304 C 0.19101 0.54232 0.49012 0.0
H3305 H 0.21063 0.57982 0.46686 0.0
C3306 C 0.18504 0.55168 0.50664 0.0
C3307 C 0.19957 0.55278 0.47526 0.0
C3308 C 0.20513 0.5438 0.45664 0.0
C3309 C 0.18835 0.57104 0.50913 0.0
C3310 C 0.19821 0.5812 0.49487 0.0
C3311 C 0.20324 0.57203 0.47791 0.0
C3312 C 0.20465 0.60095 0.49762 0.0
C3313 C 0.1814 0.58034 0.52708 0.0
C3314 C 0.20069 0.61466 0.48378 0.0
C3315 C 0.20935 0.63237 0.48464 0.0
C3316 C 0.22214 0.6367 0.49936 0.0
C3317 C 0.22522 0.62338 0.51384 0.0
C3318 C 0.21666 0.6056 0.51289 0.0
H3319 H 0.16888 0.57281 0.53296 0.0
H3320 H 0.19272 0.57989 0.53803 0.0
H3321 H 0.17761 0.59527 0.52452 0.0
H3322 H 0.1915 0.61138 0.47186 0.0
H3323 H 0.20672 0.64236 0.47326 0.0
H3324 H 0.11251 0.0009 0.16087 0.0
H3325 H 0.1459 0.00935 0.16267 0.0
H3326 H 0.13125 0.06574 0.17954 0.0
H3327 H 0.09771 0.05716 0.17841 0.0
H3328 H 0.1712 0.03517 0.14926 0.0
H3329 H 0.15802 0.04615 0.22659 0.0
H3330 H 0.14036 0.03644 0.21084 0.0
H3331 H 0.14511 0.06135 0.21088 0.0
C3332 C 0.11633 0.01528 0.16433 0.0
C3333 C 0.1025 0.02826 0.16987 0.0
C3334 C 0.13547 0.02009 0.16544 0.0
C3335 C 0.14106 0.03798 0.17189 0.0
C3336 C 0.12723 0.05167 0.1751 0.0
H3337 H 0.26444 0.0517 0.18452 0.0
H3338 H 0.23184 0.06034 0.17693 0.0
C3339 C 0.10807 0.04681 0.17424 0.0
C3340 C 0.16105 0.04128 0.17742 0.0
H3341 H 0.18941 0.04796 0.21632 0.0
C3342 C 0.17523 0.03825 0.16385 0.0
C3343 C 0.16623 0.045 0.19658 0.0
C3344 C 0.15169 0.04727 0.21213 0.0
C3345 C 0.19441 0.03811 0.16901 0.0
C3346 C 0.19956 0.04165 0.18821 0.0
C3347 C 0.18542 0.04545 0.20161 0.0
C3348 C 0.21921 0.03908 0.19512 0.0
C3349 C 0.20883 0.03297 0.15409 0.0
C3350 C 0.2229 0.02526 0.20895 0.0
C3351 C 0.24146 0.02059 0.21362 0.0
C3352 C 0.25667 0.02958 0.20444 0.0
C3353 C 0.25298 0.04443 0.19171 0.0
C3354 C 0.23437 0.04925 0.1872 0.0
H3355 H 0.20215 0.02681 0.14117 0.0
H3356 H 0.21671 0.04582 0.14969 0.0
H3357 H 0.21914 0.02271 0.15986 0.0
H3358 H 0.21142 0.01734 0.21538 0.0
H3359 H 0.24383 0.00911 0.22349 0.0
H3360 H 0.65096 0.00781 0.50842 0.0
H3361 H 0.64848 0.97343 0.5097 0.0
H3362 H 0.70437 0.97076 0.53414 0.0
H3363 H 0.70672 0.00496 0.53337 0.0
H3364 H 0.67034 0.95097 0.48946 0.0
H3365 H 0.67803 0.93124 0.565 0.0
H3366 H 0.67247 0.95495 0.55771 0.0
H3367 H 0.69665 0.94713 0.55833 0.0
C3368 C 0.66244 -9e-05 0.51469 0.0
C3369 C 0.67906 0.00908 0.52077 0.0
C3370 C 0.66104 0.98026 0.51532 0.0
C3371 C 0.67618 0.96948 0.52212 0.0
C3372 C 0.69231 0.97873 0.52924 0.0
H3373 H 0.72788 0.87076 0.48504 0.0
H3374 H 0.71118 0.90061 0.48662 0.0
C3375 C 0.69368 0.99833 0.52871 0.0
C3376 C 0.67636 0.94875 0.51953 0.0
H3377 H 0.68916 0.90821 0.54196 0.0
C3378 C 0.67401 0.94153 0.50103 0.0
C3379 C 0.68076 0.93632 0.53462 0.0
C3380 C 0.6819 0.94282 0.55504 0.0
C3381 C 0.67734 0.92248 0.49701 0.0
C3382 C 0.68364 0.91048 0.51177 0.0
C3383 C 0.6846 0.91741 0.53051 0.0
C3384 C 0.6911 0.89134 0.50803 0.0
C3385 C 0.67439 0.91558 0.4769 0.0
C3386 C 0.68529 0.87601 0.51931 0.0
C3387 C 0.69508 0.85902 0.51867 0.0
C3388 C 0.7108 0.85701 0.50665 0.0
C3389 C 0.71569 0.87182 0.49428 0.0
C3390 C 0.70606 0.88891 0.49513 0.0
H3391 H 0.66297 0.92357 0.4697 0.0
H3392 H 0.68755 0.91788 0.46862 0.0
H3393 H 0.67072 0.90036 0.47655 0.0
H3394 H 0.6738 0.87752 0.52937 0.0
H3395 H 0.69101 0.84782 0.52836 0.0
H3396 H 0.76248 0.45412 0.83924 0.0
H3397 H 0.72932 0.44502 0.8402 0.0
H3398 H 0.72513 0.45338 0.77941 0.0
H3399 H 0.75833 0.46335 0.7785 0.0
H3400 H 0.69904 0.47211 0.79659 0.0
H3401 H 0.69778 0.40047 0.82707 0.0
H3402 H 0.71108 0.41604 0.8421 0.0
H3403 H 0.71922 0.41127 0.81827 0.0
C3404 C 0.75465 0.45359 0.82597 0.0
C3405 C 0.76298 0.45956 0.80879 0.0
C3406 C 0.73567 0.4482 0.82653 0.0
C3407 C 0.72471 0.44826 0.80986 0.0
C3408 C 0.73331 0.45316 0.79246 0.0
H3409 H 0.60522 0.42127 0.80198 0.0
H3410 H 0.63952 0.41841 0.80369 0.0
C3411 C 0.75229 0.45881 0.79194 0.0
C3412 C 0.7039 0.44579 0.81108 0.0
H3413 H 0.66896 0.41838 0.8305 0.0
C3414 C 0.6925 0.46021 0.80379 0.0
C3415 C 0.69526 0.43021 0.82032 0.0
C3416 C 0.7065 0.41355 0.82718 0.0
C3417 C 0.67284 0.45979 0.80597 0.0
C3418 C 0.66435 0.44489 0.81637 0.0
C3419 C 0.67559 0.43008 0.82305 0.0
C3420 C 0.64368 0.44422 0.8195 0.0
C3421 C 0.66134 0.47525 0.79689 0.0
C3422 C 0.63459 0.45895 0.82904 0.0
C3423 C 0.61495 0.46068 0.82804 0.0
C3424 C 0.60418 0.44761 0.81757 0.0
C3425 C 0.61314 0.43165 0.81004 0.0
C3426 C 0.63278 0.43001 0.81095 0.0
H3427 H 0.66932 0.48263 0.78544 0.0
H3428 H 0.64803 0.46956 0.79071 0.0
H3429 H 0.65762 0.48579 0.80789 0.0
H3430 H 0.64278 0.46982 0.83612 0.0
H3431 H 0.60845 0.47305 0.83411 0.0
H3432 H 0.266 0.37607 0.01419 0.0
H3433 H 0.28237 0.40606 0.00945 0.0
H3434 H 0.32468 0.37834 0.97559 0.0
H3435 H 0.30788 0.34832 0.97968 0.0
H3436 H 0.31667 0.42049 0.01629 0.0
H3437 H 0.30476 0.41625 0.93806 0.0
H3438 H 0.29418 0.3998 0.95453 0.0
H3439 H 0.3186 0.39753 0.94792 0.0
C3440 C 0.27897 0.37628 0.00602 0.0
C3441 C 0.28553 0.35991 0.99709 0.0
C3442 C 0.28832 0.39345 0.00329 0.0
C3443 C 0.30447 0.39455 0.99172 0.0
C3444 C 0.31192 0.37793 0.98408 0.0
H3445 H 0.35285 0.50895 0.98668 0.0
H3446 H 0.35292 0.47448 0.98757 0.0
C3447 C 0.30242 0.36077 0.98659 0.0
C3448 C 0.31254 0.41329 0.98682 0.0
H3449 H 0.31911 0.4438 0.94965 0.0
C3450 C 0.31745 0.42554 0.00171 0.0
C3451 C 0.31334 0.41989 0.96776 0.0
C3452 C 0.3073 0.40778 0.95113 0.0
C3453 C 0.32232 0.44441 0.99819 0.0
C3454 C 0.32294 0.45107 0.97914 0.0
C3455 C 0.31883 0.43861 0.96419 0.0
C3456 C 0.32526 0.4714 0.9747 0.0
C3457 C 0.32551 0.4573 0.01501 0.0
C3458 C 0.31048 0.48099 0.96563 0.0
C3459 C 0.31061 0.50062 0.96468 0.0
C3460 C 0.32546 0.511 0.97296 0.0
C3461 C 0.34113 0.50132 0.98034 0.0
C3462 C 0.34109 0.48164 0.98105 0.0
H3463 H 0.3206 0.45086 0.02859 0.0
H3464 H 0.34084 0.46036 0.01645 0.0
H3465 H 0.31803 0.47084 0.01298 0.0
H3466 H 0.2982 0.47338 0.96044 0.0
H3467 H 0.29836 0.50765 0.95885 0.0
H3468 H 0.34357 0.60925 0.95541 0.0
H3469 H 0.34966 0.64301 0.95198 0.0
H3470 H 0.35603 0.64786 0.01292 0.0
H3471 H 0.35031 0.61413 0.01642 0.0
H3472 H 0.32561 0.66831 0.96693 0.0
H3473 H 0.3975 0.68264 0.99438 0.0
H3474 H 0.38967 0.6593 0.98773 0.0
H3475 H 0.38387 0.66874 0.01078 0.0
C3476 C 0.34698 0.61738 0.96802 0.0
C3477 C 0.34638 0.60904 0.9862 0.0
C3478 C 0.35035 0.6367 0.96604 0.0
C3479 C 0.35332 0.64798 0.98218 0.0
C3480 C 0.35412 0.63942 0.00022 0.0
H3481 H 0.31806 0.75901 0.00888 0.0
H3482 H 0.32018 0.7257 0.0006 0.0
C3483 C 0.35081 0.6201 0.00221 0.0
C3484 C 0.35294 0.6688 0.98055 0.0
H3485 H 0.37591 0.70879 0.99465 0.0
C3486 C 0.33677 0.67718 0.97268 0.0
C3487 C 0.36754 0.68038 0.98787 0.0
C3488 C 0.3857 0.6723 0.99548 0.0
C3489 C 0.33442 0.69677 0.97277 0.0
C3490 C 0.34846 0.70827 0.98128 0.0
C3491 C 0.36504 0.69996 0.98829 0.0
C3492 C 0.34585 0.72878 0.9841 0.0
C3493 C 0.31684 0.70493 0.96392 0.0
C3494 C 0.35951 0.74163 0.97752 0.0
C3495 C 0.35841 0.76066 0.98236 0.0
C3496 C 0.34365 0.76717 0.99395 0.0
C3497 C 0.32951 0.75445 -0.00021 0.0
C3498 C 0.33066 0.7354 0.99501 0.0
H3499 H 0.31094 0.69546 0.95278 0.0
H3500 H 0.30592 0.70659 0.9751 0.0
H3501 H 0.31971 0.71894 0.95746 0.0
H3502 H 0.37137 0.73682 0.96912 0.0
H3503 H 0.36954 0.77012 0.97767 0.0
H3504 H 0.73589 0.61496 0.58771 0.0
H3505 H 0.74227 0.64766 0.5787 0.0
H3506 H 0.71283 0.63908 0.52555 0.0
H3507 H 0.70601 0.60648 0.53464 0.0
H3508 H 0.75828 0.66774 0.54801 0.0
H3509 H 0.68075 0.67846 0.55294 0.0
H3510 H 0.692 0.65722 0.56111 0.0
H3511 H 0.68771 0.66083 0.5361 0.0
C3512 C 0.73129 0.61985 0.57384 0.0
C3513 C 0.72019 0.60825 0.562 0.0
C3514 C 0.73487 0.63858 0.56875 0.0
C3515 C 0.72751 0.64591 0.55174 0.0
C3516 C 0.7182 0.6338 0.53898 0.0
H3517 H 0.71982 0.75955 0.50691 0.0
H3518 H 0.71732 0.72557 0.51237 0.0
C3519 C 0.71447 0.61513 0.54412 0.0
C3520 C 0.7279 0.6665 0.54829 0.0
H3521 H 0.69918 0.70468 0.54344 0.0
C3522 C 0.74539 0.67583 0.54699 0.0
C3523 C 0.711 0.67703 0.54718 0.0
C3524 C 0.69179 0.66795 0.54957 0.0
C3525 C 0.74642 0.69541 0.5443 0.0
C3526 C 0.72953 0.70587 0.54312 0.0
C3527 C 0.71207 0.69656 0.54434 0.0
C3528 C 0.72972 0.72654 0.54054 0.0
C3529 C 0.76554 0.70476 0.54249 0.0
C3530 C 0.73682 0.73835 0.5549 0.0
C3531 C 0.73809 0.75777 0.55192 0.0
C3532 C 0.73231 0.76567 0.53449 0.0
C3533 C 0.72437 0.75388 0.52049 0.0
C3534 C 0.72301 0.73447 0.52354 0.0
H3535 H 0.7769 0.69439 0.53979 0.0
H3536 H 0.76552 0.71528 0.53075 0.0
H3537 H 0.76891 0.71228 0.55593 0.0
H3538 H 0.74175 0.73247 0.56826 0.0
H3539 H 0.74431 0.76649 0.56295 0.0
H3540 H 0.28448 0.25878 0.98571 0.0
H3541 H 0.28789 0.22528 0.97852 0.0
H3542 H 0.23869 0.2274 0.9423 0.0
H3543 H 0.23518 0.26097 0.94937 0.0
H3544 H 0.25865 0.19673 0.98563 0.0
H3545 H 0.2803 0.20152 0.90947 0.0
H3546 H 0.2825 0.22119 0.92562 0.0
H3547 H 0.25974 0.21453 0.91647 0.0
C3548 C 0.27455 0.25219 0.97599 0.0
C3549 C 0.25961 0.26251 0.96803 0.0
C3550 C 0.27646 0.23305 0.97198 0.0
C3551 C 0.26358 0.22393 0.95985 0.0
C3552 C 0.24888 0.23426 0.95155 0.0
H3553 H 0.27023 0.10792 0.9188 0.0
H3554 H 0.25698 0.13878 0.92642 0.0
C3555 C 0.24691 0.25341 0.9556 0.0
C3556 C 0.26528 0.20347 0.95645 0.0
H3557 H 0.27727 0.17123 0.9227 0.0
C3558 C 0.2626 0.1911 0.97185 0.0
C3559 C 0.2702 0.19622 0.93841 0.0
C3560 C 0.27349 0.20899 0.92151 0.0
C3561 C 0.2651 0.17163 0.96978 0.0
C3562 C 0.27083 0.16443 0.95193 0.0
C3563 C 0.27284 0.17676 0.93637 0.0
C3564 C 0.27655 0.14454 0.94944 0.0
C3565 C 0.26164 0.15898 0.98673 0.0
C3566 C 0.29163 0.13735 0.96015 0.0
C3567 C 0.29914 0.11975 0.9559 0.0
C3568 C 0.29185 0.10905 0.94071 0.0
C3569 C 0.27609 0.1158 0.93064 0.0
C3570 C 0.26856 0.13345 0.93492 0.0
H3571 H 0.25136 0.16532 0.99676 0.0
H3572 H 0.25625 0.14494 0.98228 0.0
H3573 H 0.27511 0.15702 0.99457 0.0
H3574 H 0.2983 0.14579 0.97114 0.0
H3575 H 0.31134 0.11499 0.96386 0.0
H3576 H 0.68838 0.26696 0.50442 0.0
H3577 H 0.68841 0.23279 0.50939 0.0
H3578 H 0.62758 0.23281 0.51328 0.0
H3579 H 0.62753 0.26689 0.50923 0.0
H3580 H 0.6416 0.20769 0.53708 0.0
H3581 H 0.67472 0.19859 0.46616 0.0
H3582 H 0.68916 0.21202 0.48224 0.0
H3583 H 0.66672 0.22112 0.47453 0.0
C3584 C 0.67507 0.2597 0.50674 0.0
C3585 C 0.65795 0.26956 0.50623 0.0
C3586 C 0.67507 0.24016 0.50938 0.0
C3587 C 0.65794 0.23015 0.51108 0.0
C3588 C 0.64096 0.24017 0.51182 0.0
H3589 H 0.64995 0.11247 0.47903 0.0
H3590 H 0.64398 0.14625 0.48184 0.0
C3591 C 0.64096 0.25969 0.5095 0.0
C3592 C 0.65746 0.20924 0.51093 0.0
H3593 H 0.67066 0.1711 0.4848 0.0
C3594 C 0.64791 0.19967 0.52563 0.0
C3595 C 0.66526 0.19879 0.49573 0.0
C3596 C 0.67436 0.20815 0.47867 0.0
C3597 C 0.64618 0.17995 0.52567 0.0
C3598 C 0.65473 0.16947 0.51091 0.0
C3599 C 0.66411 0.17908 0.49615 0.0
C3600 C 0.65484 0.14854 0.51063 0.0
C3601 C 0.63484 0.17065 0.54131 0.0
C3602 C 0.66222 0.13842 0.52611 0.0
C3603 C 0.66519 0.11906 0.52468 0.0
C3604 C 0.66131 0.10952 0.50755 0.0
C3605 C 0.65301 0.11944 0.49241 0.0
C3606 C 0.64971 0.13876 0.49398 0.0
H3607 H 0.624 0.18033 0.54706 0.0
H3608 H 0.62766 0.15765 0.5362 0.0
H3609 H 0.64442 0.16686 0.55322 0.0
H3610 H 0.66676 0.14562 0.53892 0.0
H3611 H 0.67184 0.11186 0.53652 0.0
H3612 H 0.52869 0.78243 0.94661 0.0
H3613 H 0.5179 0.77043 0.91581 0.0
H3614 H 0.57298 0.74682 0.90584 0.0
H3615 H 0.58364 0.75827 0.93685 0.0
H3616 H 0.53309 0.7837 0.88381 0.0
H3617 H 0.53984 0.70616 0.88397 0.0
H3618 H 0.54003 0.71981 0.90565 0.0
H3619 H 0.56118 0.71763 0.89161 0.0
C3620 C 0.53827 0.77406 0.93816 0.0
C3621 C 0.55702 0.77133 0.94408 0.0
C3622 C 0.53211 0.76728 0.92053 0.0
C3623 C 0.54461 0.75772 0.90849 0.0
C3624 C 0.56295 0.75382 0.915 0.0
H3625 H 0.5536 0.73625 0.78831 0.0
H3626 H 0.55861 0.74216 0.8223 0.0
C3627 C 0.56905 0.76042 0.93274 0.0
C3628 C 0.53942 0.75437 0.88828 0.0
H3629 H 0.53865 0.72114 0.85318 0.0
C3630 C 0.53402 0.76995 0.8772 0.0
C3631 C 0.54078 0.73647 0.87961 0.0
C3632 C 0.54559 0.71904 0.89088 0.0
C3633 C 0.53046 0.76822 0.85762 0.0
C3634 C 0.53229 0.75044 0.84891 0.0
C3635 C 0.53739 0.73479 0.85996 0.0
C3636 C 0.52925 0.74788 0.82824 0.0
C3637 C 0.52536 0.7855 0.84624 0.0
C3638 C 0.5111 0.74943 0.82037 0.0
C3639 C 0.50818 0.74608 0.80096 0.0
C3640 C 0.52339 0.74116 0.78915 0.0
C3641 C 0.54163 0.74013 0.79702 0.0
C3642 C 0.54451 0.74338 0.81643 0.0
H3643 H 0.52767 0.79868 0.85444 0.0
H3644 H 0.5338 0.78623 0.83292 0.0
H3645 H 0.51022 0.78469 0.84216 0.0
H3646 H 0.49914 0.75277 0.82933 0.0
H3647 H 0.49395 0.74685 0.79532 0.0
H3648 H 0.97739 0.15311 0.78557 0.0
H3649 H 0.97471 0.15081 0.82026 0.0
H3650 H 0.01152 0.19909 0.82635 0.0
H3651 H 0.014 0.20167 0.79172 0.0
H3652 H 0.00424 0.14374 0.84388 0.0
H3653 H 0.97067 0.21066 0.86473 0.0
H3654 H 0.97048 0.20221 0.84048 0.0
H3655 H 0.99086 0.21445 0.84976 0.0
C3656 C 0.98451 0.16354 0.79429 0.0
C3657 C 0.99591 0.17758 0.78592 0.0
C3658 C 0.98302 0.16215 0.81411 0.0
C3659 C 0.99281 0.17484 0.82591 0.0
C3660 C 0.00353 0.18937 0.81755 0.0
H3661 H 0.04301 0.16578 0.93513 0.0
H3662 H 0.03372 0.16077 0.90202 0.0
C3663 C 0.00499 0.1908 0.79773 0.0
C3664 C 0.99335 0.17185 0.84685 0.0
H3665 H 0.98781 0.19438 0.88931 0.0
C3666 C 0.00036 0.1547 0.85384 0.0
C3667 C 0.98807 0.18603 0.85986 0.0
C3668 C 0.97942 0.20429 0.85333 0.0
C3669 C 0.00308 0.15172 0.87344 0.0
C3670 C 0.99895 0.16637 0.88635 0.0
C3671 C 0.99109 0.18316 0.87942 0.0
C3672 C 0.0039 0.16531 0.90689 0.0
C3673 C 0.01052 0.13298 0.88011 0.0
C3674 C 0.99018 0.16897 0.9208 0.0
C3675 C 0.99548 0.17191 0.93976 0.0
C3676 C 0.01463 0.17138 0.94512 0.0
C3677 C 0.02813 0.16615 0.9315 0.0
C3678 C 0.02283 0.16326 0.91252 0.0
H3679 H 0.00696 0.12161 0.86984 0.0
H3680 H 0.02615 0.13383 0.88121 0.0
H3681 H 0.00477 0.12912 0.89431 0.0
H3682 H 0.9755 0.17059 0.91678 0.0
H3683 H 0.98474 0.17594 0.94991 0.0
H3684 H 0.53611 0.80857 0.1925 0.0
H3685 H 0.54498 0.8064 0.1589 0.0
H3686 H 0.5131 0.85647 0.1466 0.0
H3687 H 0.50414 0.85877 0.18022 0.0
H3688 H 0.51597 0.80311 0.1295 0.0
H3689 H 0.5645 0.86407 0.11809 0.0
H3690 H 0.56024 0.85403 0.14139 0.0
H3691 H 0.54281 0.86878 0.13049 0.0
C3692 C 0.53139 0.81941 0.18275 0.0
C3693 C 0.51942 0.83385 0.18899 0.0
C3694 C 0.53639 0.81808 0.16356 0.0
C3695 C 0.5297 0.83128 0.15033 0.0
C3696 C 0.51857 0.84627 0.15666 0.0
H3697 H 0.54171 0.83931 0.02702 0.0
H3698 H 0.53165 0.84408 0.06003 0.0
C3699 C 0.51347 0.84756 0.17585 0.0
C3700 C 0.53297 0.82837 0.12974 0.0
H3701 H 0.55539 0.84673 0.09086 0.0
C3702 C 0.52461 0.81261 0.12103 0.0
C3703 C 0.54405 0.84093 0.11876 0.0
C3704 C 0.55356 0.85786 0.1276 0.0
C3705 C 0.52704 0.80905 0.10153 0.0
C3706 C 0.53847 0.82139 0.09059 0.0
C3707 C 0.54661 0.83731 0.09928 0.0
C3708 C 0.54284 0.81766 0.07031 0.0
C3709 C 0.51711 0.79229 0.09279 0.0
C3710 C 0.55225 0.80113 0.06511 0.0
C3711 C 0.55788 0.79831 0.04627 0.0
C3712 C 0.55439 0.81209 0.03232 0.0
C3713 C 0.54452 0.82841 0.03744 0.0
C3714 C 0.53884 0.83119 0.05629 0.0
H3715 H 0.50462 0.78789 0.10133 0.0
H3716 H 0.51241 0.79536 0.07801 0.0
H3717 H 0.527 0.78025 0.09234 0.0
H3718 H 0.55584 0.79068 0.07575 0.0
H3719 H 0.56559 0.78566 0.0428 0.0
H3720 H 0.96363 0.23814 0.43999 0.0
H3721 H 0.97023 0.25015 0.40803 0.0
H3722 H 0.91299 0.26993 0.40338 0.0
H3723 H 0.90619 0.25788 0.43543 0.0
H3724 H 0.94509 0.23436 0.37705 0.0
H3725 H 0.94875 0.31273 0.37917 0.0
H3726 H 0.9547 0.29844 0.39964 0.0
H3727 H 0.93051 0.30079 0.39255 0.0
C3728 C 0.9526 0.2456 0.43246 0.0
C3729 C 0.93434 0.24693 0.44018 0.0
C3730 C 0.95639 0.25241 0.41417 0.0
C3731 C 0.94208 0.26085 0.40337 0.0
C3732 C 0.92426 0.26359 0.41158 0.0
H3733 H 0.94374 0.29327 0.28265 0.0
H3734 H 0.93375 0.28799 0.31574 0.0
C3735 C 0.92042 0.25673 0.42991 0.0
C3736 C 0.94508 0.26412 0.38276 0.0
H3737 H 0.95215 0.29824 0.34915 0.0
C3738 C 0.9466 0.24833 0.37092 0.0
C3739 C 0.94671 0.28234 0.37484 0.0
C3740 C 0.94517 0.29964 0.38712 0.0
C3741 C 0.95 0.25023 0.35133 0.0
C3742 C 0.95242 0.26844 0.34346 0.0
C3743 C 0.95037 0.28429 0.35523 0.0
C3744 C 0.95804 0.2712 0.32328 0.0
C3745 C 0.95082 0.2327 0.33925 0.0
C3746 C 0.97499 0.26354 0.31657 0.0
C3747 C 0.98062 0.26638 0.29772 0.0
C3748 C 0.96951 0.27713 0.28523 0.0
C3749 C 0.95251 0.28478 0.29192 0.0
C3750 C 0.94684 0.28188 0.31082 0.0
H3751 H 0.9429 0.22084 0.34592 0.0
H3752 H 0.94495 0.23524 0.32479 0.0
H3753 H 0.96575 0.22832 0.33774 0.0
H3754 H 0.98406 0.25561 0.32604 0.0
H3755 H 0.9939 0.26048 0.29308 0.0
H3756 H 0.96971 0.20668 0.69283 0.0
H3757 H 0.95835 0.2132 0.66056 0.0
H3758 H 0.96677 0.15503 0.64545 0.0
H3759 H 0.97766 0.14834 0.67775 0.0
H3760 H 0.98038 0.20994 0.62963 0.0
H3761 H 0.91695 0.16495 0.61999 0.0
H3762 H 0.92688 0.16986 0.64318 0.0
H3763 H 0.93682 0.15179 0.62837 0.0
C3764 C 0.96852 0.19515 0.68282 0.0
C3765 C 0.97457 0.17699 0.68785 0.0
C3766 C 0.96214 0.19892 0.66434 0.0
C3767 C 0.96163 0.18461 0.65056 0.0
C3768 C 0.96665 0.16624 0.65589 0.0
H3769 H 0.95468 0.17772 0.52789 0.0
H3770 H 0.96171 0.17325 0.56179 0.0
C3771 C 0.97292 0.16243 0.67439 0.0
C3772 C 0.95795 0.18924 0.63024 0.0
H3773 H 0.93169 0.17647 0.59142 0.0
C3774 C 0.96956 0.20279 0.62134 0.0
C3775 C 0.9439 0.17986 0.61939 0.0
C3776 C 0.93031 0.16595 0.62827 0.0
C3777 C 0.96783 0.20682 0.60182 0.0
C3778 C 0.95411 0.1971 0.59094 0.0
C3779 C 0.94233 0.18376 0.59982 0.0
C3780 C 0.95163 0.20064 0.57029 0.0
C3781 C 0.98096 0.22109 0.59282 0.0
C3782 C 0.94397 0.21767 0.56386 0.0
C3783 C 0.93991 0.22026 0.54452 0.0
C3784 C 0.94348 0.20586 0.53131 0.0
C3785 C 0.95189 0.18912 0.5377 0.0
C3786 C 0.95582 0.1865 0.55706 0.0
H3787 H 0.99287 0.22496 0.60241 0.0
H3788 H 0.98678 0.21557 0.57927 0.0
H3789 H 0.97295 0.23406 0.58945 0.0
H3790 H 0.9405 0.22868 0.57389 0.0
H3791 H 0.93334 0.23326 0.54004 0.0
H3792 H 0.46718 0.26911 0.55685 0.0
H3793 H 0.47408 0.25514 0.58779 0.0
H3794 H 0.42078 0.22532 0.58643 0.0
H3795 H 0.41362 0.23957 0.55546 0.0
H3796 H 0.42468 0.24683 0.61805 0.0
H3797 H 0.48922 0.20462 0.60891 0.0
H3798 H 0.49214 0.22774 0.59902 0.0
H3799 H 0.47482 0.2119 0.58897 0.0
C3800 C 0.45718 0.25911 0.56283 0.0
C3801 C 0.43982 0.25551 0.55376 0.0
C3802 C 0.46119 0.25104 0.58052 0.0
C3803 C 0.448 0.23907 0.5894 0.0
C3804 C 0.43118 0.23446 0.57979 0.0
H3805 H 0.45123 0.20677 0.71087 0.0
H3806 H 0.44119 0.20874 0.67745 0.0
C3807 C 0.42716 0.24255 0.56205 0.0
C3808 C 0.45071 0.23369 0.60965 0.0
H3809 H 0.48338 0.21635 0.64077 0.0
C3810 C 0.43731 0.23978 0.62301 0.0
C3811 C 0.4672 0.22452 0.6161 0.0
C3812 C 0.48155 0.21665 0.60245 0.0
C3813 C 0.44049 0.23794 0.64267 0.0
C3814 C 0.45745 0.22971 0.64908 0.0
C3815 C 0.47045 0.22283 0.63576 0.0
C3816 C 0.46258 0.22919 0.66951 0.0
C3817 C 0.42621 0.24566 0.65648 0.0
C3818 C 0.47777 0.24017 0.67606 0.0
C3819 C 0.48346 0.23916 0.69508 0.0
C3820 C 0.47413 0.22701 0.70786 0.0
C3821 C 0.45859 0.21635 0.70138 0.0
C3822 C 0.45286 0.21743 0.68231 0.0
H3823 H 0.41501 0.25387 0.64919 0.0
H3824 H 0.41938 0.23384 0.66428 0.0
H3825 H 0.43329 0.25484 0.66716 0.0
H3826 H 0.48541 0.24935 0.66637 0.0
H3827 H 0.49554 0.24748 0.69963 0.0
H3828 H 0.47329 0.7381 0.68479 0.0
H3829 H 0.47122 0.7544 0.65414 0.0
H3830 H 0.51038 0.79676 0.67422 0.0
H3831 H 0.513 0.78018 0.7047 0.0
H3832 H 0.46293 0.78958 0.64016 0.0
H3833 H 0.53899 0.77326 0.63029 0.0
H3834 H 0.52529 0.76368 0.64969 0.0
H3835 H 0.53389 0.78755 0.65068 0.0
C3836 C 0.48105 0.75117 0.68287 0.0
C3837 C 0.49353 0.75773 0.69699 0.0
C3838 C 0.4799 0.76045 0.66532 0.0
C3839 C 0.49109 0.77647 0.66173 0.0
C3840 C 0.50205 0.78411 0.67652 0.0
H3841 H 0.48277 0.82998 0.54867 0.0
H3842 H 0.48488 0.8265 0.58335 0.0
C3843 C 0.5034 0.77472 0.69397 0.0
C3844 C 0.49268 0.78389 0.64203 0.0
H3845 H 0.52377 0.78889 0.60514 0.0
C3846 C 0.47625 0.78964 0.63253 0.0
C3847 C 0.51007 0.78364 0.63204 0.0
C3848 C 0.52805 0.77655 0.64109 0.0
C3849 C 0.47663 0.79477 0.61319 0.0
C3850 C 0.49403 0.79455 0.60325 0.0
C3851 C 0.51052 0.78924 0.61287 0.0
C3852 C 0.49509 0.79788 0.58242 0.0
C3853 C 0.45826 0.79945 0.60337 0.0
C3854 C 0.50124 0.78337 0.57043 0.0
C3855 C 0.50035 0.78542 0.55067 0.0
C3856 C 0.49324 0.80201 0.54254 0.0
C3857 C 0.48822 0.81699 0.55454 0.0
C3858 C 0.48923 0.81496 0.57435 0.0
H3859 H 0.4458 0.79504 0.61193 0.0
H3860 H 0.45748 0.8149 0.60115 0.0
H3861 H 0.45738 0.79254 0.58921 0.0
H3862 H 0.50596 0.77011 0.57637 0.0
H3863 H 0.50434 0.77364 0.5418 0.0
H3864 H 0.4834 0.53705 0.30875 0.0
H3865 H 0.51641 0.52727 0.30556 0.0
H3866 H 0.5325 0.58451 0.29208 0.0
H3867 H 0.49958 0.59397 0.29399 0.0
H3868 H 0.55165 0.56281 0.27125 0.0
H3869 H 0.55584 0.53454 0.34474 0.0
H3870 H 0.53853 0.52235 0.33067 0.0
H3871 H 0.53542 0.54693 0.33612 0.0
C3872 C 0.49401 0.54743 0.30487 0.0
C3873 C 0.48897 0.56625 0.30166 0.0
C3874 C 0.51289 0.5419 0.30328 0.0
C3875 C 0.5271 0.55525 0.29914 0.0
C3876 C 0.52189 0.57393 0.29538 0.0
H3877 H 0.64622 0.53873 0.32546 0.0
H3878 H 0.61299 0.54836 0.3253 0.0
C3879 C 0.50303 0.57933 0.29646 0.0
C3880 C 0.54743 0.55005 0.29882 0.0
H3881 H 0.58235 0.52923 0.32485 0.0
C3882 C 0.55836 0.55554 0.28304 0.0
C3883 C 0.55636 0.54091 0.31435 0.0
C3884 C 0.54597 0.53603 0.3325 0.0
C3885 C 0.57787 0.55224 0.28233 0.0
C3886 C 0.5866 0.54225 0.29742 0.0
C3887 C 0.57568 0.53675 0.3132 0.0
C3888 C 0.60699 0.5373 0.29714 0.0
C3889 C 0.5889 0.56012 0.26569 0.0
C3890 C 0.61472 0.52788 0.28144 0.0
C3891 C 0.63377 0.52296 0.28129 0.0
C3892 C 0.64533 0.52673 0.29713 0.0
C3893 C 0.6376 0.53581 0.31302 0.0
C3894 C 0.61862 0.54121 0.31295 0.0
H3895 H 0.58183 0.57263 0.25947 0.0
H3896 H 0.60346 0.56426 0.26993 0.0
H3897 H 0.58974 0.54931 0.25434 0.0
H3898 H 0.60597 0.52399 0.26939 0.0
H3899 H 0.63928 0.51557 0.26902 0.0
H3900 H 0.50391 0.97684 0.67075 0.0
H3901 H 0.53776 0.97281 0.67668 0.0
H3902 H 0.52839 0.97955 0.73699 0.0
H3903 H 0.49458 0.9835 0.73121 0.0
H3904 H 0.56127 0.00016 0.6941 0.0
H3905 H 0.56202 0.93265 0.73391 0.0
H3906 H 0.54211 0.93998 0.71965 0.0
H3907 H 0.54557 0.94945 0.74314 0.0
C3908 C 0.50901 0.97707 0.68531 0.0
C3909 C 0.49659 0.98042 0.70054 0.0
C3910 C 0.52835 0.97486 0.68865 0.0
C3911 C 0.53554 0.97576 0.70727 0.0
C3912 C 0.52309 0.97851 0.72254 0.0
H3913 H 0.64374 0.00446 0.75381 0.0
H3914 H 0.61248 0.00505 0.73895 0.0
C3915 C 0.50377 0.98079 0.71921 0.0
C3916 C 0.55617 0.9751 0.7107 0.0
H3917 H 0.59 0.95155 0.73561 0.0
C3918 C 0.56763 0.98942 0.70298 0.0
C3919 C 0.56442 0.96097 0.72213 0.0
C3920 C 0.55294 0.94478 0.73005 0.0
C3921 C 0.58706 0.99036 0.70699 0.0
C3922 C 0.59513 0.97675 0.7192 0.0
C3923 C 0.58378 0.96205 0.72633 0.0
C3924 C 0.61511 0.97778 0.72551 0.0
C3925 C 0.59874 0.00594 0.69819 0.0
C3926 C 0.62709 0.9624 0.72268 0.0
C3927 C 0.64491 0.96199 0.73124 0.0
C3928 C 0.65103 0.97692 0.74288 0.0
C3929 C 0.63947 0.99281 0.74481 0.0
C3930 C 0.62161 0.99318 0.73627 0.0
H3931 H 0.59198 0.01156 0.68508 0.0
H3932 H 0.60009 0.01769 0.70852 0.0
H3933 H 0.61314 0.001 0.69459 0.0
H3934 H 0.62234 0.95037 0.71445 0.0
H3935 H 0.65349 0.94955 0.7295 0.0
H3936 H 0.14577 0.5625 0.27038 0.0
H3937 H 0.11423 0.5599 0.28426 0.0
H3938 H 0.10753 0.50471 0.25954 0.0
H3939 H 0.13922 0.5071 0.24579 0.0
H3940 H 0.08263 0.55658 0.26156 0.0
H3941 H 0.08591 0.49741 0.31314 0.0
H3942 H 0.1068 0.50932 0.30435 0.0
H3943 H 0.0951 0.4918 0.29001 0.0
C3944 C 0.13779 0.54959 0.26832 0.0
C3945 C 0.14493 0.53502 0.25694 0.0
C3946 C 0.11975 0.54816 0.27622 0.0
C3947 C 0.10856 0.53211 0.27298 0.0
C3948 C 0.11605 0.51709 0.26249 0.0
H3949 H 0.98793 0.52057 0.26637 0.0
H3950 H 0.0217 0.52515 0.26046 0.0
C3951 C 0.13414 0.51849 0.2546 0.0
C3952 C 0.08841 0.53203 0.27864 0.0
H3953 H 0.05509 0.50749 0.30376 0.0
C3954 C 0.07664 0.54596 0.27095 0.0
C3955 C 0.08067 0.51824 0.29097 0.0
C3956 C 0.09279 0.50344 0.30025 0.0
C3957 C 0.05722 0.54616 0.27484 0.0
C3958 C 0.04935 0.53193 0.28653 0.0
C3959 C 0.06118 0.51832 0.29469 0.0
C3960 C 0.02878 0.53056 0.28997 0.0
C3961 C 0.04527 0.56157 0.26638 0.0
C3962 C 0.0216 0.53214 0.30851 0.0
C3963 C 0.0023 0.52959 0.31192 0.0
C3964 C 0.98992 0.5252 0.29685 0.0
C3965 C 0.9971 0.52405 0.27824 0.0
C3966 C 0.01638 0.52669 0.27484 0.0
H3967 H 0.05398 0.5739 0.26196 0.0
H3968 H 0.03786 0.5561 0.25356 0.0
H3969 H 0.03443 0.56633 0.27669 0.0
H3970 H 0.03098 0.53507 0.32037 0.0
H3971 H 0.99719 0.53044 0.32643 0.0
H3972 H 0.14828 0.95146 0.69899 0.0
H3973 H 0.11473 0.94362 0.70241 0.0
H3974 H 0.10258 0.97346 0.65026 0.0
H3975 H 0.13611 0.98102 0.64656 0.0
H3976 H 0.08655 0.96938 0.70673 0.0
H3977 H 0.07241 0.92538 0.64306 0.0
H3978 H 0.09604 0.93049 0.65137 0.0
H3979 H 0.08338 0.94755 0.63741 0.0
C3980 C 0.13852 0.95595 0.688 0.0
C3981 C 0.14484 0.96679 0.67246 0.0
C3982 C 0.11935 0.95154 0.69004 0.0
C3983 C 0.10616 0.95784 0.67653 0.0
C3984 C 0.11253 0.96813 0.66066 0.0
H3985 H 0.98392 0.95785 0.66832 0.0
H3986 H 0.01758 0.9657 0.66578 0.0
C3987 C 0.13171 0.97247 0.65857 0.0
C3988 C 0.08564 0.95489 0.67978 0.0
H3989 H 0.0455 0.93677 0.6597 0.0
C3990 C 0.07759 0.96213 0.69651 0.0
C3991 C 0.07397 0.94549 0.66641 0.0
C3992 C 0.0819 0.93662 0.64864 0.0
C3993 C 0.05813 0.96049 0.70007 0.0
C3994 C 0.04647 0.95127 0.68661 0.0
C3995 C 0.0545 0.94399 0.66991 0.0
C3996 C 0.02597 0.94846 0.68974 0.0
C3997 C 0.05011 0.9689 0.71802 0.0
C3998 C 0.01954 0.9365 0.70431 0.0
C3999 C 0.00035 0.93197 0.7058 0.0
C4000 C 0.98727 0.93934 0.6927 0.0
C4001 C 0.99364 0.95204 0.67868 0.0
C4002 C 0.01286 0.95646 0.67715 0.0
H4003 H 0.06007 0.97909 0.72471 0.0
H4004 H 0.03658 0.97615 0.71499 0.0
H4005 H 0.0472 0.95748 0.72844 0.0
H4006 H 0.02947 0.92999 0.71402 0.0
H4007 H 0.99588 0.92208 0.71669 0.0
H4008 H 0.01914 0.17691 0.04862 0.0
H4009 H 0.01546 0.18021 0.08314 0.0
H4010 H 0.99547 0.23691 0.07521 0.0
H4011 H 0.99878 0.23361 0.04078 0.0
H4012 H 0.03523 0.20535 0.10441 0.0
H4013 H 0.95885 0.21708 0.11464 0.0
H4014 H 0.96833 0.20759 0.09283 0.0
H4015 H 0.96846 0.23262 0.09691 0.0
C4016 C 0.01343 0.18989 0.05421 0.0
C4017 C 0.00923 0.20501 0.04199 0.0
C4018 C 0.01143 0.19177 0.07394 0.0
C4019 C 0.00507 0.20874 0.08176 0.0
C4020 C 3e-05 0.22354 0.06951 0.0
H4021 H 0.03115 0.26847 0.18264 0.0
H4022 H 0.03253 0.25096 0.15279 0.0
C4023 C 0.00199 0.22166 0.0498 0.0
C4024 C 0.00557 0.21182 0.10266 0.0
H4025 H 0.9794 0.22862 0.13956 0.0
C4026 C 0.02294 0.2101 0.1122 0.0
C4027 C 0.98951 0.21775 0.1129 0.0
C4028 C 0.9702 0.21867 0.10382 0.0
C4029 C 0.0249 0.21517 0.13144 0.0
C4030 C 0.00916 0.22249 0.14127 0.0
C4031 C 0.99155 0.22319 0.13201 0.0
C4032 C 0.01075 0.23081 0.1606 0.0
C4033 C 0.04387 0.21284 0.14094 0.0
C4034 C 0.99826 0.22518 0.17509 0.0
C4035 C 0.99731 0.23532 0.1921 0.0
C4036 C 0.00882 0.25129 0.19492 0.0
C4037 C 0.02222 0.25613 0.18096 0.0
C4038 C 0.02307 0.24607 0.16388 0.0
H4039 H 0.05204 0.20134 0.13421 0.0
H4040 H 0.05217 0.22605 0.1393 0.0
H4041 H 0.04235 0.20974 0.15638 0.0
H4042 H 0.98862 0.21347 0.17287 0.0
H4043 H 0.98683 0.23127 0.20259 0.0
H4044 H 0.9729 0.74935 0.31608 0.0
H4045 H 0.97457 0.73275 0.34651 0.0
H4046 H 0.01849 0.69721 0.32431 0.0
H4047 H 0.01743 0.71435 0.29402 0.0
H4048 H 0.9721 0.6977 0.3611 0.0
H4049 H 0.04602 0.72435 0.36652 0.0
H4050 H 0.0303 0.73153 0.3477 0.0
H4051 H 0.04151 0.7089 0.34681 0.0
C4052 C 0.98254 0.73765 0.31747 0.0
C4053 C 0.99528 0.73336 0.30282 0.0
C4054 C 0.98352 0.72819 0.33491 0.0
C4055 C 0.9971 0.71417 0.33788 0.0
C4056 C 0.00833 0.7084 0.32252 0.0
H4057 H 0.99773 0.66902 0.45512 0.0
H4058 H -0.00033 0.66867 0.42026 0.0
C4059 C 0.00758 0.71807 0.30516 0.0
C4060 C 0.00076 0.7073 0.35752 0.0
H4061 H 0.03375 0.70857 0.3931 0.0
C4062 C 0.98564 0.6998 0.36806 0.0
C4063 C 0.01842 0.71033 0.36661 0.0
C4064 C 0.03496 0.71936 0.35643 0.0
C4065 C 0.98742 0.696 0.38762 0.0
C4066 C 0.00502 0.69925 0.39675 0.0
C4067 C 0.02036 0.70594 0.38601 0.0
C4068 C 0.0071 0.69818 0.41776 0.0
C4069 C 0.97011 0.6897 0.39853 0.0
C4070 C 0.01202 0.7145 0.42794 0.0
C4071 C 0.01134 0.71463 0.44781 0.0
C4072 C 0.00558 0.69847 0.45785 0.0
C4073 C 0.00207 0.68173 0.44773 0.0
C4074 C 0.00297 0.68156 0.42782 0.0
H4075 H 0.95693 0.69168 0.39018 0.0
H4076 H 0.97131 0.67451 0.40199 0.0
H4077 H 0.96883 0.69759 0.41211 0.0
H4078 H 0.0154 0.72746 0.42048 0.0
H4079 H 0.01414 0.72774 0.4552 0.0
loop_
_geom_bond_atom_site_label_1
_geom_bond_atom_site_label_2
_geom_bond_distance
_geom_bond_site_symmetry_2
_ccdc_geom_bond_type
In0 O1 2.294 . S
In0 O2 2.326 . S
In0 O6 2.266 . S
In0 O7 2.326 . S
In0 O8 2.266 . S
In0 O9 2.326 . S
In0 O11 2.294 . S
In0 O12 2.326 . S
O1 In0 2.294 . S
O1 C10 1.240 . S
O2 In0 2.326 . S
O2 C10 1.252 . S
C3 O6 1.252 . S
C3 O7 1.260 . S
C4 O11 1.240 . S
C4 O12 1.252 . S
C5 O8 1.252 . S
C5 O9 1.260 . S
O6 In0 2.266 . S
O6 C3 1.252 . S
O7 In0 2.326 . S
O7 C3 1.260 . S
O8 In0 2.266 . S
O8 C5 1.252 . S
O9 In0 2.326 . S
O9 C5 1.260 . S
C10 O1 1.240 . S
C10 O2 1.252 . S
O11 In0 2.294 . S
O11 C4 1.240 . S
O12 In0 2.326 . S
O12 C4 1.252 . S
In13 O14 2.294 . S
In13 O15 2.326 . S
In13 O19 2.266 . S
In13 O20 2.326 . S
In13 O21 2.266 . S
In13 O22 2.326 . S
In13 O24 2.294 . S
In13 O25 2.326 . S
O14 In13 2.294 . S
O14 C23 1.240 . S
O15 In13 2.326 . S
O15 C23 1.252 . S
C16 O19 1.252 . S
C16 O20 1.260 . S
C17 O24 1.240 . S
C17 O25 1.252 . S
C18 O21 1.252 . S
C18 O22 1.260 . S
O19 In13 2.266 . S
O19 C16 1.252 . S
O20 In13 2.326 . S
O20 C16 1.260 . S
O21 In13 2.266 . S
O21 C18 1.252 . S
O22 In13 2.326 . S
O22 C18 1.260 . S
C23 O14 1.240 . S
C23 O15 1.252 . S
O24 In13 2.294 . S
O24 C17 1.240 . S
O25 In13 2.326 . S
O25 C17 1.252 . S
In26 O27 2.294 . S
In26 O28 2.326 . S
In26 O32 2.266 . S
In26 O33 2.326 . S
In26 O34 2.266 . S
In26 O35 2.326 . S
In26 O37 2.294 . S
In26 O38 2.326 . S
O27 In26 2.294 . S
O27 C36 1.240 . S
O28 In26 2.326 . S
O28 C36 1.252 . S
C29 O32 1.252 . S
C29 O33 1.260 . S
C30 O37 1.240 . S
C30 O38 1.252 . S
C31 O34 1.252 . S
C31 O35 1.260 . S
O32 In26 2.266 . S
O32 C29 1.252 . S
O33 In26 2.326 . S
O33 C29 1.260 . S
O34 In26 2.266 . S
O34 C31 1.252 . S
O35 In26 2.326 . S
O35 C31 1.260 . S
C36 O27 1.240 . S
C36 O28 1.252 . S
O37 In26 2.294 . S
O37 C30 1.240 . S
O38 In26 2.326 . S
O38 C30 1.252 . S
In39 O40 2.294 . S
In39 O41 2.326 . S
In39 O45 2.266 . S
In39 O46 2.326 . S
In39 O47 2.266 . S
In39 O48 2.326 . S
In39 O50 2.294 . S
In39 O51 2.326 . S
O40 In39 2.294 . S
O40 C49 1.240 . S
O41 In39 2.326 . S
O41 C49 1.252 . S
C42 O45 1.252 . S
C42 O46 1.260 . S
C43 O50 1.240 . S
C43 O51 1.252 . S
C44 O47 1.252 . S
C44 O48 1.260 . S
O45 In39 2.266 . S
O45 C42 1.252 . S
O46 In39 2.326 . S
O46 C42 1.260 . S
O47 In39 2.266 . S
O47 C44 1.252 . S
O48 In39 2.326 . S
O48 C44 1.260 . S
C49 O40 1.240 . S
C49 O41 1.252 . S
O50 In39 2.294 . S
O50 C43 1.240 . S
O51 In39 2.326 . S
O51 C43 1.252 . S
In52 O53 2.294 . S
In52 O54 2.326 . S
In52 O58 2.266 . S
In52 O59 2.326 . S
In52 O60 2.266 . S
In52 O61 2.326 . S
In52 O63 2.294 . S
In52 O64 2.326 . S
O53 In52 2.294 . S
O53 C62 1.240 . S
O54 In52 2.326 . S
O54 C62 1.252 . S
C55 O58 1.252 . S
C55 O59 1.260 . S
C56 O63 1.240 . S
C56 O64 1.252 . S
C57 O60 1.252 . S
C57 O61 1.260 . S
O58 In52 2.266 . S
O58 C55 1.252 . S
O59 In52 2.326 . S
O59 C55 1.260 . S
O60 In52 2.266 . S
O60 C57 1.252 . S
O61 In52 2.326 . S
O61 C57 1.260 . S
C62 O53 1.240 . S
C62 O54 1.252 . S
O63 In52 2.294 . S
O63 C56 1.240 . S
O64 In52 2.326 . S
O64 C56 1.252 . S
In65 O66 2.294 . S
In65 O67 2.326 . S
In65 O71 2.266 . S
In65 O72 2.326 . S
In65 O73 2.266 . S
In65 O74 2.326 . S
In65 O76 2.294 . S
In65 O77 2.326 . S
O66 In65 2.294 . S
O66 C75 1.240 . S
O67 In65 2.326 . S
O67 C75 1.252 . S
C68 O71 1.252 . S
C68 O72 1.260 . S
C69 O76 1.240 . S
C69 O77 1.252 . S
C70 O73 1.252 . S
C70 O74 1.260 . S
O71 In65 2.266 . S
O71 C68 1.252 . S
O72 In65 2.326 . S
O72 C68 1.260 . S
O73 In65 2.266 . S
O73 C70 1.252 . S
O74 In65 2.326 . S
O74 C70 1.260 . S
C75 O66 1.240 . S
C75 O67 1.252 . S
O76 In65 2.294 . S
O76 C69 1.240 . S
O77 In65 2.326 . S
O77 C69 1.252 . S
In78 O79 2.294 . S
In78 O80 2.326 . S
In78 O84 2.266 . S
In78 O85 2.326 . S
In78 O86 2.266 . S
In78 O87 2.326 . S
In78 O89 2.294 . S
In78 O90 2.326 . S
O79 In78 2.294 . S
O79 C88 1.240 . S
O80 In78 2.326 . S
O80 C88 1.252 . S
C81 O84 1.252 . S
C81 O85 1.260 . S
C82 O89 1.240 . S
C82 O90 1.252 . S
C83 O86 1.252 . S
C83 O87 1.260 . S
O84 In78 2.266 . S
O84 C81 1.252 . S
O85 In78 2.326 . S
O85 C81 1.260 . S
O86 In78 2.266 . S
O86 C83 1.252 . S
O87 In78 2.326 . S
O87 C83 1.260 . S
C88 O79 1.240 . S
C88 O80 1.252 . S
O89 In78 2.294 . S
O89 C82 1.240 . S
O90 In78 2.326 . S
O90 C82 1.252 . S
In91 O92 2.294 . S
In91 O93 2.326 . S
In91 O97 2.266 . S
In91 O98 2.326 . S
In91 O99 2.266 . S
In91 O100 2.326 . S
In91 O102 2.294 . S
In91 O103 2.326 . S
O92 In91 2.294 . S
O92 C101 1.240 . S
O93 In91 2.326 . S
O93 C101 1.252 . S
C94 O97 1.252 . S
C94 O98 1.260 . S
C95 O102 1.240 . S
C95 O103 1.252 . S
C96 O99 1.252 . S
C96 O100 1.260 . S
O97 In91 2.266 . S
O97 C94 1.252 . S
O98 In91 2.326 . S
O98 C94 1.260 . S
O99 In91 2.266 . S
O99 C96 1.252 . S
O100 In91 2.326 . S
O100 C96 1.260 . S
C101 O92 1.240 . S
C101 O93 1.252 . S
O102 In91 2.294 . S
O102 C95 1.240 . S
O103 In91 2.326 . S
O103 C95 1.252 . S
In104 O105 2.294 . S
In104 O106 2.326 . S
In104 O110 2.266 . S
In104 O111 2.326 . S
In104 O112 2.266 . S
In104 O113 2.326 . S
In104 O115 2.294 . S
In104 O116 2.326 . S
O105 In104 2.294 . S
O105 C114 1.240 . S
O106 In104 2.326 . S
O106 C114 1.252 . S
C107 O110 1.252 . S
C107 O111 1.260 . S
C108 O115 1.240 . S
C108 O116 1.252 . S
C109 O112 1.252 . S
C109 O113 1.260 . S
O110 In104 2.266 . S
O110 C107 1.252 . S
O111 In104 2.326 . S
O111 C107 1.260 . S
O112 In104 2.266 . S
O112 C109 1.252 . S
O113 In104 2.326 . S
O113 C109 1.260 . S
C114 O105 1.240 . S
C114 O106 1.252 . S
O115 In104 2.294 . S
O115 C108 1.240 . S
O116 In104 2.326 . S
O116 C108 1.252 . S
In117 O118 2.294 . S
In117 O119 2.326 . S
In117 O123 2.266 . S
In117 O124 2.326 . S
In117 O125 2.266 . S
In117 O126 2.326 . S
In117 O128 2.294 . S
In117 O129 2.326 . S
O118 In117 2.294 . S
O118 C127 1.240 . S
O119 In117 2.326 . S
O119 C127 1.252 . S
C120 O123 1.252 . S
C120 O124 1.260 . S
C121 O128 1.240 . S
C121 O129 1.252 . S
C122 O125 1.252 . S
C122 O126 1.260 . S
O123 In117 2.266 . S
O123 C120 1.252 . S
O124 In117 2.326 . S
O124 C120 1.260 . S
O125 In117 2.266 . S
O125 C122 1.252 . S
O126 In117 2.326 . S
O126 C122 1.260 . S
C127 O118 1.240 . S
C127 O119 1.252 . S
O128 In117 2.294 . S
O128 C121 1.240 . S
O129 In117 2.326 . S
O129 C121 1.252 . S
In130 O131 2.294 . S
In130 O132 2.326 . S
In130 O136 2.266 . S
In130 O137 2.326 . S
In130 O138 2.266 . S
In130 O139 2.326 . S
In130 O141 2.294 . S
In130 O142 2.326 . S
O131 In130 2.294 . S
O131 C140 1.240 . S
O132 In130 2.326 . S
O132 C140 1.252 . S
C133 O136 1.252 . S
C133 O137 1.260 . S
C134 O141 1.240 . S
C134 O142 1.252 . S
C135 O138 1.252 . S
C135 O139 1.260 . S
O136 In130 2.266 . S
O136 C133 1.252 . S
O137 In130 2.326 . S
O137 C133 1.260 . S
O138 In130 2.266 . S
O138 C135 1.252 . S
O139 In130 2.326 . S
O139 C135 1.260 . S
C140 O131 1.240 . S
C140 O132 1.252 . S
O141 In130 2.294 . S
O141 C134 1.240 . S
O142 In130 2.326 . S
O142 C134 1.252 . S
In143 O144 2.294 . S
In143 O145 2.326 . S
In143 O149 2.266 . S
In143 O150 2.326 . S
In143 O151 2.266 . S
In143 O152 2.326 . S
In143 O154 2.294 . S
In143 O155 2.326 . S
O144 In143 2.294 . S
O144 C153 1.240 . S
O145 In143 2.326 . S
O145 C153 1.252 . S
C146 O149 1.252 . S
C146 O150 1.260 . S
C147 O154 1.240 . S
C147 O155 1.252 . S
C148 O151 1.252 . S
C148 O152 1.260 . S
O149 In143 2.266 . S
O149 C146 1.252 . S
O150 In143 2.326 . S
O150 C146 1.260 . S
O151 In143 2.266 . S
O151 C148 1.252 . S
O152 In143 2.326 . S
O152 C148 1.260 . S
C153 O144 1.240 . S
C153 O145 1.252 . S
O154 In143 2.294 . S
O154 C147 1.240 . S
O155 In143 2.326 . S
O155 C147 1.252 . S
In156 O157 2.294 . S
In156 O158 2.326 . S
In156 O162 2.266 . S
In156 O163 2.326 . S
In156 O164 2.266 . S
In156 O165 2.326 . S
In156 O167 2.294 . S
In156 O168 2.326 . S
O157 In156 2.294 . S
O157 C166 1.240 . S
O158 In156 2.326 . S
O158 C166 1.252 . S
C159 O162 1.252 . S
C159 O163 1.260 . S
C160 O167 1.240 . S
C160 O168 1.252 . S
C161 O164 1.252 . S
C161 O165 1.260 . S
O162 In156 2.266 . S
O162 C159 1.252 . S
O163 In156 2.326 . S
O163 C159 1.260 . S
O164 In156 2.266 . S
O164 C161 1.252 . S
O165 In156 2.326 . S
O165 C161 1.260 . S
C166 O157 1.240 . S
C166 O158 1.252 . S
O167 In156 2.294 . S
O167 C160 1.240 . S
O168 In156 2.326 . S
O168 C160 1.252 . S
In169 O170 2.293 1_455 S
In169 O171 2.326 1_455 S
In169 O175 2.266 1_455 S
In169 O176 2.326 . S
In169 O177 2.267 . S
In169 O178 2.325 1_455 S
In169 O180 2.295 . S
In169 O181 2.326 . S
O170 In169 2.293 1_655 S
O170 C179 1.240 . S
O171 In169 2.326 1_655 S
O171 C179 1.257 . S
C172 O175 1.252 . S
C172 O176 1.260 1_655 S
C173 O180 1.240 . S
C173 O181 1.252 . S
C174 O177 1.252 . S
C174 O178 1.260 1_455 S
O175 In169 2.266 1_655 S
O175 C172 1.252 . S
O176 In169 2.326 . S
O176 C172 1.260 1_455 S
O177 In169 2.267 . S
O177 C174 1.252 . S
O178 In169 2.325 1_655 S
O178 C174 1.260 1_655 S
C179 O170 1.240 . S
C179 O171 1.257 . S
O180 In169 2.295 . S
O180 C173 1.240 . S
O181 In169 2.326 . S
O181 C173 1.252 . S
In182 O183 2.294 . S
In182 O184 2.326 . S
In182 O188 2.266 . S
In182 O189 2.326 . S
In182 O190 2.266 . S
In182 O191 2.326 . S
In182 O193 2.294 . S
In182 O194 2.326 . S
O183 In182 2.294 . S
O183 C192 1.240 . S
O184 In182 2.326 . S
O184 C192 1.252 . S
C185 O188 1.252 . S
C185 O189 1.260 . S
C186 O193 1.240 . S
C186 O194 1.252 . S
C187 O190 1.252 . S
C187 O191 1.260 . S
O188 In182 2.266 . S
O188 C185 1.252 . S
O189 In182 2.326 . S
O189 C185 1.260 . S
O190 In182 2.266 . S
O190 C187 1.252 . S
O191 In182 2.326 . S
O191 C187 1.260 . S
C192 O183 1.240 . S
C192 O184 1.252 . S
O193 In182 2.294 . S
O193 C186 1.240 . S
O194 In182 2.326 . S
O194 C186 1.252 . S
In195 O196 2.294 . S
In195 O197 2.326 . S
In195 O201 2.266 1_655 S
In195 O202 2.326 1_655 S
In195 O203 2.266 . S
In195 O204 2.326 . S
In195 O206 2.294 . S
In195 O207 2.326 1_655 S
O196 In195 2.294 . S
O196 C205 1.240 . S
O197 In195 2.326 . S
O197 C205 1.252 . S
C198 O201 1.252 . S
C198 O202 1.260 . S
C199 O206 1.240 1_455 S
C199 O207 1.252 . S
C200 O203 1.252 . S
C200 O204 1.260 . S
O201 In195 2.266 1_455 S
O201 C198 1.252 . S
O202 In195 2.326 1_455 S
O202 C198 1.260 . S
O203 In195 2.266 . S
O203 C200 1.252 . S
O204 In195 2.326 . S
O204 C200 1.260 . S
C205 O196 1.240 . S
C205 O197 1.252 . S
O206 In195 2.294 . S
O206 C199 1.240 1_655 S
O207 In195 2.326 1_455 S
O207 C199 1.252 . S
In208 O209 2.294 . S
In208 O210 2.326 . S
In208 O214 2.266 . S
In208 O215 2.326 . S
In208 O216 2.266 . S
In208 O217 2.326 . S
In208 O219 2.294 . S
In208 O220 2.326 . S
O209 In208 2.294 . S
O209 C218 1.240 . S
O210 In208 2.326 . S
O210 C218 1.252 . S
C211 O214 1.252 . S
C211 O215 1.260 . S
C212 O219 1.240 . S
C212 O220 1.252 . S
C213 O216 1.252 . S
C213 O217 1.260 . S
O214 In208 2.266 . S
O214 C211 1.252 . S
O215 In208 2.326 . S
O215 C211 1.260 . S
O216 In208 2.266 . S
O216 C213 1.252 . S
O217 In208 2.326 . S
O217 C213 1.260 . S
C218 O209 1.240 . S
C218 O210 1.252 . S
O219 In208 2.294 . S
O219 C212 1.240 . S
O220 In208 2.326 . S
O220 C212 1.252 . S
In221 O222 2.294 . S
In221 O223 2.326 . S
In221 O227 2.266 . S
In221 O228 2.326 . S
In221 O229 2.266 . S
In221 O230 2.326 . S
In221 O232 2.294 . S
In221 O233 2.326 . S
O222 In221 2.294 . S
O222 C231 1.240 . S
O223 In221 2.326 . S
O223 C231 1.252 . S
C224 O227 1.252 . S
C224 O228 1.260 . S
C225 O232 1.240 . S
C225 O233 1.252 . S
C226 O229 1.252 . S
C226 O230 1.260 . S
O227 In221 2.266 . S
O227 C224 1.252 . S
O228 In221 2.326 . S
O228 C224 1.260 . S
O229 In221 2.266 . S
O229 C226 1.252 . S
O230 In221 2.326 . S
O230 C226 1.260 . S
C231 O222 1.240 . S
C231 O223 1.252 . S
O232 In221 2.294 . S
O232 C225 1.240 . S
O233 In221 2.326 . S
O233 C225 1.252 . S
In234 O235 2.294 . S
In234 O236 2.326 . S
In234 O240 2.266 . S
In234 O241 2.326 . S
In234 O242 2.266 . S
In234 O243 2.326 . S
In234 O245 2.294 . S
In234 O246 2.326 . S
O235 In234 2.294 . S
O235 C244 1.240 . S
O236 In234 2.326 . S
O236 C244 1.252 . S
C237 O240 1.252 . S
C237 O241 1.260 . S
C238 O245 1.240 . S
C238 O246 1.252 . S
C239 O242 1.252 . S
C239 O243 1.260 . S
O240 In234 2.266 . S
O240 C237 1.252 . S
O241 In234 2.326 . S
O241 C237 1.260 . S
O242 In234 2.266 . S
O242 C239 1.252 . S
O243 In234 2.326 . S
O243 C239 1.260 . S
C244 O235 1.240 . S
C244 O236 1.252 . S
O245 In234 2.294 . S
O245 C238 1.240 . S
O246 In234 2.326 . S
O246 C238 1.252 . S
In247 O248 2.294 . S
In247 O249 2.326 . S
In247 O253 2.266 . S
In247 O254 2.326 . S
In247 O255 2.266 . S
In247 O256 2.326 . S
In247 O258 2.294 . S
In247 O259 2.326 . S
O248 In247 2.294 . S
O248 C257 1.240 . S
O249 In247 2.326 . S
O249 C257 1.252 . S
C250 O253 1.252 . S
C250 O254 1.260 . S
C251 O258 1.240 . S
C251 O259 1.252 . S
C252 O255 1.252 . S
C252 O256 1.260 . S
O253 In247 2.266 . S
O253 C250 1.252 . S
O254 In247 2.326 . S
O254 C250 1.260 . S
O255 In247 2.266 . S
O255 C252 1.252 . S
O256 In247 2.326 . S
O256 C252 1.260 . S
C257 O248 1.240 . S
C257 O249 1.252 . S
O258 In247 2.294 . S
O258 C251 1.240 . S
O259 In247 2.326 . S
O259 C251 1.252 . S
In260 O261 2.294 . S
In260 O262 2.327 . S
In260 O266 2.266 1_545 S
In260 O267 2.325 1_545 S
In260 O268 2.266 . S
In260 O269 2.326 . S
In260 O271 2.294 1_545 S
In260 O272 2.326 1_545 S
O261 In260 2.294 . S
O261 C270 1.240 . S
O262 In260 2.327 . S
O262 C270 1.252 . S
C263 O266 1.252 . S
C263 O267 1.260 . S
C264 O271 1.238 . S
C264 O272 1.252 . S
C265 O268 1.252 . S
C265 O269 1.260 . S
O266 In260 2.266 1_565 S
O266 C263 1.252 . S
O267 In260 2.325 1_565 S
O267 C263 1.260 . S
O268 In260 2.266 . S
O268 C265 1.252 . S
O269 In260 2.326 . S
O269 C265 1.260 . S
C270 O261 1.240 . S
C270 O262 1.252 . S
O271 In260 2.294 1_565 S
O271 C264 1.238 . S
O272 In260 2.326 1_565 S
O272 C264 1.252 . S
In273 O274 2.294 . S
In273 O275 2.327 1_556 S
In273 O279 2.265 . S
In273 O280 2.325 . S
In273 O281 2.267 1_556 S
In273 O282 2.326 1_556 S
In273 O284 2.295 1_556 S
In273 O285 2.326 . S
O274 In273 2.294 . S
O274 C283 1.240 1_556 S
O275 In273 2.327 1_554 S
O275 C283 1.252 . S
C276 O279 1.252 . S
C276 O280 1.260 . S
C277 O284 1.240 . S
C277 O285 1.252 1_554 S
C278 O281 1.252 . S
C278 O282 1.260 . S
O279 In273 2.265 . S
O279 C276 1.252 . S
O280 In273 2.325 . S
O280 C276 1.260 . S
O281 In273 2.267 1_554 S
O281 C278 1.252 . S
O282 In273 2.326 1_554 S
O282 C278 1.260 . S
C283 O274 1.240 1_554 S
C283 O275 1.252 . S
O284 In273 2.295 1_554 S
O284 C277 1.240 . S
O285 In273 2.326 . S
O285 C277 1.252 1_556 S
In286 O287 2.294 . S
In286 O288 2.326 . S
In286 O292 2.266 . S
In286 O293 2.326 . S
In286 O294 2.266 . S
In286 O295 2.326 . S
In286 O297 2.294 . S
In286 O298 2.326 . S
O287 In286 2.294 . S
O287 C296 1.240 . S
O288 In286 2.326 . S
O288 C296 1.252 . S
C289 O292 1.252 . S
C289 O293 1.260 . S
C290 O297 1.240 . S
C290 O298 1.252 . S
C291 O294 1.252 . S
C291 O295 1.260 . S
O292 In286 2.266 . S
O292 C289 1.252 . S
O293 In286 2.326 . S
O293 C289 1.260 . S
O294 In286 2.266 . S
O294 C291 1.252 . S
O295 In286 2.326 . S
O295 C291 1.260 . S
C296 O287 1.240 . S
C296 O288 1.252 . S
O297 In286 2.294 . S
O297 C290 1.240 . S
O298 In286 2.326 . S
O298 C290 1.252 . S
In299 O300 2.294 . S
In299 O301 2.326 . S
In299 O305 2.266 . S
In299 O306 2.326 . S
In299 O307 2.266 . S
In299 O308 2.326 . S
In299 O310 2.294 . S
In299 O311 2.326 . S
O300 In299 2.294 . S
O300 C309 1.240 . S
O301 In299 2.326 . S
O301 C309 1.252 . S
C302 O305 1.252 . S
C302 O306 1.260 . S
C303 O310 1.240 . S
C303 O311 1.252 . S
C304 O307 1.252 . S
C304 O308 1.260 . S
O305 In299 2.266 . S
O305 C302 1.252 . S
O306 In299 2.326 . S
O306 C302 1.260 . S
O307 In299 2.266 . S
O307 C304 1.252 . S
O308 In299 2.326 . S
O308 C304 1.260 . S
C309 O300 1.240 . S
C309 O301 1.252 . S
O310 In299 2.294 . S
O310 C303 1.240 . S
O311 In299 2.326 . S
O311 C303 1.252 . S
In312 O313 2.293 1_565 S
In312 O314 2.326 1_565 S
In312 O318 2.266 1_565 S
In312 O319 2.326 . S
In312 O320 2.266 1_565 S
In312 O321 2.325 1_565 S
In312 O323 2.295 . S
In312 O324 2.327 . S
O313 In312 2.293 1_545 S
O313 C322 1.240 . S
O314 In312 2.326 1_545 S
O314 C322 1.252 . S
C315 O318 1.252 1_565 S
C315 O319 1.260 . S
C316 O323 1.240 . S
C316 O324 1.252 . S
C317 O320 1.252 . S
C317 O321 1.260 . S
O318 In312 2.266 1_545 S
O318 C315 1.252 1_545 S
O319 In312 2.326 . S
O319 C315 1.260 . S
O320 In312 2.266 1_545 S
O320 C317 1.252 . S
O321 In312 2.325 1_545 S
O321 C317 1.260 . S
C322 O313 1.240 . S
C322 O314 1.252 . S
O323 In312 2.295 . S
O323 C316 1.240 . S
O324 In312 2.327 . S
O324 C316 1.252 . S
In325 O326 2.294 . S
In325 O327 2.326 . S
In325 O331 2.266 . S
In325 O332 2.326 . S
In325 O333 2.266 . S
In325 O334 2.326 . S
In325 O336 2.294 . S
In325 O337 2.326 . S
O326 In325 2.294 . S
O326 C335 1.240 . S
O327 In325 2.326 . S
O327 C335 1.252 . S
C328 O331 1.252 . S
C328 O332 1.260 . S
C329 O336 1.240 . S
C329 O337 1.252 . S
C330 O333 1.252 . S
C330 O334 1.260 . S
O331 In325 2.266 . S
O331 C328 1.252 . S
O332 In325 2.326 . S
O332 C328 1.260 . S
O333 In325 2.266 . S
O333 C330 1.252 . S
O334 In325 2.326 . S
O334 C330 1.260 . S
C335 O326 1.240 . S
C335 O327 1.252 . S
O336 In325 2.294 . S
O336 C329 1.240 . S
O337 In325 2.326 . S
O337 C329 1.252 . S
In338 O339 2.294 . S
In338 O340 2.326 . S
In338 O344 2.266 . S
In338 O345 2.326 . S
In338 O346 2.266 . S
In338 O347 2.326 . S
In338 O349 2.294 . S
In338 O350 2.326 . S
O339 In338 2.294 . S
O339 C348 1.240 . S
O340 In338 2.326 . S
O340 C348 1.252 . S
C341 O344 1.252 . S
C341 O345 1.260 . S
C342 O349 1.240 . S
C342 O350 1.252 . S
C343 O346 1.252 . S
C343 O347 1.260 . S
O344 In338 2.266 . S
O344 C341 1.252 . S
O345 In338 2.326 . S
O345 C341 1.260 . S
O346 In338 2.266 . S
O346 C343 1.252 . S
O347 In338 2.326 . S
O347 C343 1.260 . S
C348 O339 1.240 . S
C348 O340 1.252 . S
O349 In338 2.294 . S
O349 C342 1.240 . S
O350 In338 2.326 . S
O350 C342 1.252 . S
In351 O352 2.295 . S
In351 O353 2.327 . S
In351 O357 2.266 . S
In351 O358 2.324 1_554 S
In351 O359 2.265 1_554 S
In351 O360 2.326 . S
In351 O362 2.293 1_554 S
In351 O363 2.326 1_554 S
O352 In351 2.295 . S
O352 C361 1.240 . S
O353 In351 2.327 . S
O353 C361 1.252 . S
C354 O357 1.252 1_556 S
C354 O358 1.260 . S
C355 O362 1.240 . S
C355 O363 1.252 . S
C356 O359 1.252 . S
C356 O360 1.260 1_556 S
O357 In351 2.266 . S
O357 C354 1.252 1_554 S
O358 In351 2.324 1_556 S
O358 C354 1.260 . S
O359 In351 2.265 1_556 S
O359 C356 1.252 . S
O360 In351 2.326 . S
O360 C356 1.260 1_554 S
C361 O352 1.240 . S
C361 O353 1.252 . S
O362 In351 2.293 1_556 S
O362 C355 1.240 . S
O363 In351 2.326 1_556 S
O363 C355 1.252 . S
In364 O365 2.295 1_556 S
In364 O366 2.326 . S
In364 O370 2.267 1_556 S
In364 O371 2.325 . S
In364 O372 2.265 . S
In364 O373 2.325 . S
In364 O375 2.293 . S
In364 O376 2.327 1_556 S
O365 In364 2.295 1_554 S
O365 C374 1.240 . S
O366 In364 2.326 . S
O366 C374 1.252 1_556 S
C367 O370 1.252 . S
C367 O371 1.260 1_554 S
C368 O375 1.274 . S
C368 O376 1.217 1_556 S
C369 O372 1.252 . S
C369 O373 1.260 . S
O370 In364 2.267 1_554 S
O370 C367 1.252 . S
O371 In364 2.325 . S
O371 C367 1.260 1_556 S
O372 In364 2.265 . S
O372 C369 1.252 . S
O373 In364 2.325 . S
O373 C369 1.260 . S
C374 O365 1.240 . S
C374 O366 1.252 1_554 S
O375 In364 2.293 . S
O375 C368 1.274 . S
O376 In364 2.327 1_554 S
O376 C368 1.217 1_554 S
In377 O378 2.294 . S
In377 O379 2.326 1_565 S
In377 O383 2.266 . S
In377 O384 2.326 . S
In377 O385 2.266 1_565 S
In377 O386 2.325 1_565 S
In377 O388 2.294 . S
In377 O389 2.327 . S
O378 In377 2.294 . S
O378 C387 1.238 1_565 S
O379 In377 2.326 1_545 S
O379 C387 1.252 . S
C380 O383 1.252 . S
C380 O384 1.260 . S
C381 O388 1.240 . S
C381 O389 1.252 . S
C382 O385 1.252 . S
C382 O386 1.260 . S
O383 In377 2.266 . S
O383 C380 1.252 . S
O384 In377 2.326 . S
O384 C380 1.260 . S
O385 In377 2.266 1_545 S
O385 C382 1.252 . S
O386 In377 2.325 1_545 S
O386 C382 1.260 . S
C387 O378 1.238 1_545 S
C387 O379 1.252 . S
O388 In377 2.294 . S
O388 C381 1.240 . S
O389 In377 2.327 . S
O389 C381 1.252 . S
In390 O391 2.294 . S
In390 O392 2.326 . S
In390 O396 2.266 . S
In390 O397 2.326 . S
In390 O398 2.266 . S
In390 O399 2.326 . S
In390 O401 2.294 . S
In390 O402 2.326 . S
O391 In390 2.294 . S
O391 C400 1.240 . S
O392 In390 2.326 . S
O392 C400 1.252 . S
C393 O396 1.252 . S
C393 O397 1.260 . S
C394 O401 1.240 . S
C394 O402 1.252 . S
C395 O398 1.252 . S
C395 O399 1.260 . S
O396 In390 2.266 . S
O396 C393 1.252 . S
O397 In390 2.326 . S
O397 C393 1.260 . S
O398 In390 2.266 . S
O398 C395 1.252 . S
O399 In390 2.326 . S
O399 C395 1.260 . S
C400 O391 1.240 . S
C400 O392 1.252 . S
O401 In390 2.294 . S
O401 C394 1.240 . S
O402 In390 2.326 . S
O402 C394 1.252 . S
In403 O404 2.294 . S
In403 O405 2.326 . S
In403 O409 2.266 . S
In403 O410 2.326 . S
In403 O411 2.266 . S
In403 O412 2.326 . S
In403 O414 2.294 . S
In403 O415 2.326 . S
O404 In403 2.294 . S
O404 C413 1.240 . S
O405 In403 2.326 . S
O405 C413 1.252 . S
C406 O409 1.252 . S
C406 O410 1.260 . S
C407 O414 1.240 . S
C407 O415 1.252 . S
C408 O411 1.252 . S
C408 O412 1.260 . S
O409 In403 2.266 . S
O409 C406 1.252 . S
O410 In403 2.326 . S
O410 C406 1.260 . S
O411 In403 2.266 . S
O411 C408 1.252 . S
O412 In403 2.326 . S
O412 C408 1.260 . S
C413 O404 1.240 . S
C413 O405 1.252 . S
O414 In403 2.294 . S
O414 C407 1.240 . S
O415 In403 2.326 . S
O415 C407 1.252 . S
In416 O417 2.294 . S
In416 O418 2.326 . S
In416 O422 2.266 . S
In416 O423 2.326 . S
In416 O424 2.266 . S
In416 O425 2.326 . S
In416 O427 2.294 . S
In416 O428 2.326 . S
O417 In416 2.294 . S
O417 C426 1.240 . S
O418 In416 2.326 . S
O418 C426 1.252 . S
C419 O422 1.252 . S
C419 O423 1.260 . S
C420 O427 1.240 . S
C420 O428 1.252 . S
C421 O424 1.252 . S
C421 O425 1.260 . S
O422 In416 2.266 . S
O422 C419 1.252 . S
O423 In416 2.326 . S
O423 C419 1.260 . S
O424 In416 2.266 . S
O424 C421 1.252 . S
O425 In416 2.326 . S
O425 C421 1.260 . S
C426 O417 1.240 . S
C426 O418 1.252 . S
O427 In416 2.294 . S
O427 C420 1.240 . S
O428 In416 2.326 . S
O428 C420 1.252 . S
In429 O430 2.328 . S
In429 O431 2.326 . S
In429 O435 2.266 . S
In429 O436 2.326 . S
In429 O437 2.266 . S
In429 O438 2.326 1_455 S
In429 O440 2.294 . S
In429 O441 2.326 . S
O430 In429 2.328 . S
O430 C439 1.250 . S
O431 In429 2.326 . S
O431 C439 1.252 . S
C432 O435 1.252 . S
C432 O436 1.260 . S
C433 O440 1.240 . S
C433 O441 1.252 . S
C434 O437 1.252 . S
C434 O438 1.260 1_455 S
O435 In429 2.266 . S
O435 C432 1.252 . S
O436 In429 2.326 . S
O436 C432 1.260 . S
O437 In429 2.266 . S
O437 C434 1.252 . S
O438 In429 2.326 1_655 S
O438 C434 1.260 1_655 S
C439 O430 1.250 . S
C439 O431 1.252 . S
O440 In429 2.294 . S
O440 C433 1.240 . S
O441 In429 2.326 . S
O441 C433 1.252 . S
In442 O443 2.294 . S
In442 O444 2.326 . S
In442 O448 2.266 . S
In442 O449 2.326 . S
In442 O450 2.266 . S
In442 O451 2.326 . S
In442 O453 2.294 . S
In442 O454 2.326 . S
O443 In442 2.294 . S
O443 C452 1.240 . S
O444 In442 2.326 . S
O444 C452 1.252 . S
C445 O448 1.252 . S
C445 O449 1.260 . S
C446 O453 1.240 . S
C446 O454 1.252 . S
C447 O450 1.252 . S
C447 O451 1.260 . S
O448 In442 2.266 . S
O448 C445 1.252 . S
O449 In442 2.326 . S
O449 C445 1.260 . S
O450 In442 2.266 . S
O450 C447 1.252 . S
O451 In442 2.326 . S
O451 C447 1.260 . S
C452 O443 1.240 . S
C452 O444 1.252 . S
O453 In442 2.294 . S
O453 C446 1.240 . S
O454 In442 2.326 . S
O454 C446 1.252 . S
In455 O456 2.294 . S
In455 O457 2.326 . S
In455 O461 2.266 . S
In455 O462 2.326 1_455 S
In455 O463 2.266 . S
In455 O464 2.326 . S
In455 O466 2.294 1_455 S
In455 O467 2.326 1_455 S
O456 In455 2.294 . S
O456 C465 1.240 . S
O457 In455 2.326 . S
O457 C465 1.252 . S
C458 O461 1.252 . S
C458 O462 1.260 1_455 S
C459 O466 1.240 . S
C459 O467 1.252 . S
C460 O463 1.252 . S
C460 O464 1.260 . S
O461 In455 2.266 . S
O461 C458 1.252 . S
O462 In455 2.326 1_655 S
O462 C458 1.260 1_655 S
O463 In455 2.266 . S
O463 C460 1.252 . S
O464 In455 2.326 . S
O464 C460 1.260 . S
C465 O456 1.240 . S
C465 O457 1.252 . S
O466 In455 2.294 1_655 S
O466 C459 1.240 . S
O467 In455 2.326 1_655 S
O467 C459 1.252 . S
In468 O469 2.294 . S
In468 O470 2.326 . S
In468 O474 2.266 . S
In468 O475 2.326 . S
In468 O476 2.266 . S
In468 O477 2.326 . S
In468 O479 2.294 . S
In468 O480 2.326 . S
O469 In468 2.294 . S
O469 C478 1.240 . S
O470 In468 2.326 . S
O470 C478 1.252 . S
C471 O474 1.252 . S
C471 O475 1.260 . S
C472 O479 1.240 . S
C472 O480 1.252 . S
C473 O476 1.252 . S
C473 O477 1.260 . S
O474 In468 2.266 . S
O474 C471 1.252 . S
O475 In468 2.326 . S
O475 C471 1.260 . S
O476 In468 2.266 . S
O476 C473 1.252 . S
O477 In468 2.326 . S
O477 C473 1.260 . S
C478 O469 1.240 . S
C478 O470 1.252 . S
O479 In468 2.294 . S
O479 C472 1.240 . S
O480 In468 2.326 . S
O480 C472 1.252 . S
In481 O482 2.294 . S
In481 O483 2.326 . S
In481 O487 2.266 . S
In481 O488 2.326 . S
In481 O489 2.266 . S
In481 O490 2.326 . S
In481 O492 2.294 . S
In481 O493 2.326 . S
O482 In481 2.294 . S
O482 C491 1.240 . S
O483 In481 2.326 . S
O483 C491 1.252 . S
C484 O487 1.252 . S
C484 O488 1.260 . S
C485 O492 1.240 . S
C485 O493 1.252 . S
C486 O489 1.252 . S
C486 O490 1.260 . S
O487 In481 2.266 . S
O487 C484 1.252 . S
O488 In481 2.326 . S
O488 C484 1.260 . S
O489 In481 2.266 . S
O489 C486 1.252 . S
O490 In481 2.326 . S
O490 C486 1.260 . S
C491 O482 1.240 . S
C491 O483 1.252 . S
O492 In481 2.294 . S
O492 C485 1.240 . S
O493 In481 2.326 . S
O493 C485 1.252 . S
In494 O495 2.294 . S
In494 O496 2.326 . S
In494 O500 2.266 . S
In494 O501 2.326 . S
In494 O502 2.266 . S
In494 O503 2.326 . S
In494 O505 2.294 . S
In494 O506 2.326 . S
O495 In494 2.294 . S
O495 C504 1.240 . S
O496 In494 2.326 . S
O496 C504 1.252 . S
C497 O500 1.252 . S
C497 O501 1.260 . S
C498 O505 1.240 . S
C498 O506 1.252 . S
C499 O502 1.252 . S
C499 O503 1.260 . S
O500 In494 2.266 . S
O500 C497 1.252 . S
O501 In494 2.326 . S
O501 C497 1.260 . S
O502 In494 2.266 . S
O502 C499 1.252 . S
O503 In494 2.326 . S
O503 C499 1.260 . S
C504 O495 1.240 . S
C504 O496 1.252 . S
O505 In494 2.294 . S
O505 C498 1.240 . S
O506 In494 2.326 . S
O506 C498 1.252 . S
In507 O508 2.294 . S
In507 O509 2.326 . S
In507 O513 2.266 . S
In507 O514 2.326 . S
In507 O515 2.266 . S
In507 O516 2.326 . S
In507 O518 2.294 . S
In507 O519 2.326 . S
O508 In507 2.294 . S
O508 C517 1.240 . S
O509 In507 2.326 . S
O509 C517 1.252 . S
C510 O513 1.252 . S
C510 O514 1.260 . S
C511 O518 1.240 . S
C511 O519 1.252 . S
C512 O515 1.252 . S
C512 O516 1.260 . S
O513 In507 2.266 . S
O513 C510 1.252 . S
O514 In507 2.326 . S
O514 C510 1.260 . S
O515 In507 2.266 . S
O515 C512 1.252 . S
O516 In507 2.326 . S
O516 C512 1.260 . S
C517 O508 1.240 . S
C517 O509 1.252 . S
O518 In507 2.294 . S
O518 C511 1.240 . S
O519 In507 2.326 . S
O519 C511 1.252 . S
In520 O521 2.295 . S
In520 O522 2.327 . S
In520 O526 2.266 1_545 S
In520 O527 2.325 1_545 S
In520 O528 2.266 1_545 S
In520 O529 2.326 . S
In520 O531 2.293 1_545 S
In520 O532 2.326 1_545 S
O521 In520 2.295 . S
O521 C530 1.240 . S
O522 In520 2.327 . S
O522 C530 1.252 . S
C523 O526 1.252 . S
C523 O527 1.260 . S
C524 O531 1.240 . S
C524 O532 1.252 . S
C525 O528 1.252 1_545 S
C525 O529 1.260 . S
O526 In520 2.266 1_565 S
O526 C523 1.252 . S
O527 In520 2.325 1_565 S
O527 C523 1.260 . S
O528 In520 2.266 1_565 S
O528 C525 1.252 1_565 S
O529 In520 2.326 . S
O529 C525 1.260 . S
C530 O521 1.240 . S
C530 O522 1.252 . S
O531 In520 2.293 1_565 S
O531 C524 1.240 . S
O532 In520 2.326 1_565 S
O532 C524 1.252 . S
In533 O534 2.295 . S
In533 O535 2.327 . S
In533 O539 2.267 . S
In533 O540 2.325 1_554 S
In533 O541 2.265 1_554 S
In533 O542 2.326 . S
In533 O544 2.293 1_554 S
In533 O545 2.326 . S
O534 In533 2.295 . S
O534 C543 1.240 . S
O535 In533 2.327 . S
O535 C543 1.252 . S
C536 O539 1.292 . S
C536 O540 1.218 1_554 S
C537 O544 1.240 . S
C537 O545 1.252 1_556 S
C538 O541 1.252 . S
C538 O542 1.260 1_556 S
O539 In533 2.267 . S
O539 C536 1.292 . S
O540 In533 2.325 1_556 S
O540 C536 1.218 1_556 S
O541 In533 2.265 1_556 S
O541 C538 1.252 . S
O542 In533 2.326 . S
O542 C538 1.260 1_554 S
C543 O534 1.240 . S
C543 O535 1.252 . S
O544 In533 2.293 1_556 S
O544 C537 1.240 . S
O545 In533 2.326 . S
O545 C537 1.252 1_554 S
In546 O547 2.294 1_655 S
In546 O548 2.326 . S
In546 O552 2.267 1_655 S
In546 O553 2.325 1_655 S
In546 O554 2.266 . S
In546 O555 2.325 . S
In546 O557 2.294 . S
In546 O558 2.327 1_655 S
O547 In546 2.294 1_455 S
O547 C556 1.240 . S
O548 In546 2.326 . S
O548 C556 1.252 1_655 S
C549 O552 1.252 . S
C549 O553 1.265 . S
C550 O557 1.240 . S
C550 O558 1.252 1_655 S
C551 O554 1.252 . S
C551 O555 1.260 . S
O552 In546 2.267 1_455 S
O552 C549 1.252 . S
O553 In546 2.325 1_455 S
O553 C549 1.265 . S
O554 In546 2.266 . S
O554 C551 1.252 . S
O555 In546 2.325 . S
O555 C551 1.260 . S
C556 O547 1.240 . S
C556 O548 1.252 1_455 S
O557 In546 2.294 . S
O557 C550 1.240 . S
O558 In546 2.327 1_455 S
O558 C550 1.252 1_455 S
In559 O560 2.284 1_655 S
In559 O561 2.326 . S
In559 O565 2.266 1_655 S
In559 O566 2.326 . S
In559 O567 2.266 . S
In559 O568 2.326 . S
In559 O570 2.294 . S
In559 O571 2.326 1_655 S
O560 In559 2.284 1_455 S
O560 C569 1.224 1_455 S
O561 In559 2.326 . S
O561 C569 1.252 . S
C562 O565 1.252 . S
C562 O566 1.260 1_455 S
C563 O570 1.240 1_455 S
C563 O571 1.252 . S
C564 O567 1.252 . S
C564 O568 1.260 . S
O565 In559 2.266 1_455 S
O565 C562 1.252 . S
O566 In559 2.326 . S
O566 C562 1.260 1_655 S
O567 In559 2.266 . S
O567 C564 1.252 . S
O568 In559 2.326 . S
O568 C564 1.260 . S
C569 O560 1.224 1_655 S
C569 O561 1.252 . S
O570 In559 2.294 . S
O570 C563 1.240 1_655 S
O571 In559 2.326 1_455 S
O571 C563 1.252 . S
In572 O573 2.294 . S
In572 O574 2.326 . S
In572 O578 2.266 . S
In572 O579 2.326 . S
In572 O580 2.266 . S
In572 O581 2.326 . S
In572 O583 2.294 . S
In572 O584 2.326 . S
O573 In572 2.294 . S
O573 C582 1.240 . S
O574 In572 2.326 . S
O574 C582 1.252 . S
C575 O578 1.252 . S
C575 O579 1.260 . S
C576 O583 1.240 . S
C576 O584 1.252 . S
C577 O580 1.252 . S
C577 O581 1.260 . S
O578 In572 2.266 . S
O578 C575 1.252 . S
O579 In572 2.326 . S
O579 C575 1.260 . S
O580 In572 2.266 . S
O580 C577 1.252 . S
O581 In572 2.326 . S
O581 C577 1.260 . S
C582 O573 1.240 . S
C582 O574 1.252 . S
O583 In572 2.294 . S
O583 C576 1.240 . S
O584 In572 2.326 . S
O584 C576 1.252 . S
In585 O586 2.294 . S
In585 O587 2.326 . S
In585 O591 2.266 . S
In585 O592 2.326 . S
In585 O593 2.266 . S
In585 O594 2.326 . S
In585 O596 2.294 . S
In585 O597 2.326 . S
O586 In585 2.294 . S
O586 C595 1.240 . S
O587 In585 2.326 . S
O587 C595 1.252 . S
C588 O591 1.252 . S
C588 O592 1.260 . S
C589 O596 1.240 . S
C589 O597 1.252 . S
C590 O593 1.252 . S
C590 O594 1.260 . S
O591 In585 2.266 . S
O591 C588 1.252 . S
O592 In585 2.326 . S
O592 C588 1.260 . S
O593 In585 2.266 . S
O593 C590 1.252 . S
O594 In585 2.326 . S
O594 C590 1.260 . S
C595 O586 1.240 . S
C595 O587 1.252 . S
O596 In585 2.294 . S
O596 C589 1.240 . S
O597 In585 2.326 . S
O597 C589 1.252 . S
In598 O599 2.294 . S
In598 O600 2.326 . S
In598 O604 2.266 . S
In598 O605 2.326 . S
In598 O606 2.266 . S
In598 O607 2.326 . S
In598 O609 2.294 . S
In598 O610 2.326 . S
O599 In598 2.294 . S
O599 C608 1.240 . S
O600 In598 2.326 . S
O600 C608 1.252 . S
C601 O604 1.252 . S
C601 O605 1.260 . S
C602 O609 1.240 . S
C602 O610 1.252 . S
C603 O606 1.252 . S
C603 O607 1.260 . S
O604 In598 2.266 . S
O604 C601 1.252 . S
O605 In598 2.326 . S
O605 C601 1.260 . S
O606 In598 2.266 . S
O606 C603 1.252 . S
O607 In598 2.326 . S
O607 C603 1.260 . S
C608 O599 1.240 . S
C608 O600 1.252 . S
O609 In598 2.294 . S
O609 C602 1.240 . S
O610 In598 2.326 . S
O610 C602 1.252 . S
In611 O612 2.294 . S
In611 O613 2.326 . S
In611 O617 2.266 . S
In611 O618 2.326 . S
In611 O619 2.266 . S
In611 O620 2.326 . S
In611 O622 2.294 . S
In611 O623 2.326 . S
O612 In611 2.294 . S
O612 C621 1.240 . S
O613 In611 2.326 . S
O613 C621 1.252 . S
C614 O617 1.252 . S
C614 O618 1.260 . S
C615 O622 1.240 . S
C615 O623 1.252 . S
C616 O619 1.252 . S
C616 O620 1.260 . S
O617 In611 2.266 . S
O617 C614 1.252 . S
O618 In611 2.326 . S
O618 C614 1.260 . S
O619 In611 2.266 . S
O619 C616 1.252 . S
O620 In611 2.326 . S
O620 C616 1.260 . S
C621 O612 1.240 . S
C621 O613 1.252 . S
O622 In611 2.294 . S
O622 C615 1.240 . S
O623 In611 2.326 . S
O623 C615 1.252 . S
H624 C632 0.929 . S
H625 C634 0.930 . S
H626 C636 0.930 . S
H627 C639 0.929 . S
H628 C642 0.930 . S
H629 C644 0.960 . S
H630 C644 0.960 . S
H631 C644 0.960 . S
C632 H624 0.929 . S
C632 C633 1.377 . S
C632 C634 1.384 . S
C633 C632 1.377 . S
C633 C639 1.390 . S
C634 H625 0.930 . S
C634 C632 1.384 . S
C634 C635 1.372 . S
C635 C634 1.372 . S
C635 C636 1.400 . S
C635 C640 1.490 . S
C636 H626 0.930 . S
C636 C635 1.400 . S
C636 C639 1.386 . S
H637 C653 0.930 . S
H638 C654 0.931 . S
C639 H627 0.929 . S
C639 C633 1.390 . S
C639 C636 1.386 . S
C640 C635 1.490 . S
C640 C642 1.395 . S
C640 C643 1.403 . S
H641 C647 0.930 . S
C642 H628 0.930 . S
C642 C640 1.395 . S
C642 C645 1.403 . S
C643 C640 1.403 . S
C643 C644 1.524 . S
C643 C647 1.400 . S
C644 H629 0.960 . S
C644 H630 0.960 . S
C644 H631 0.960 . S
C644 C643 1.524 . S
C645 C642 1.403 . S
C645 C646 1.392 . S
C645 C649 1.495 . S
C646 C645 1.392 . S
C646 C647 1.385 . S
C646 C648 1.478 . S
C647 H641 0.930 . S
C647 C643 1.400 . S
C647 C646 1.385 . S
C648 C646 1.478 . S
C648 C650 1.381 . S
C648 C654 1.383 . S
C649 C645 1.495 . S
C649 H655 0.959 . S
C649 H656 0.961 . S
C649 H657 0.960 . S
C650 C648 1.381 . S
C650 C651 1.394 . S
C650 H658 0.930 . S
C651 C650 1.394 . S
C651 C652 1.383 . S
C651 H659 0.929 . S
C652 C651 1.383 . S
C652 C653 1.377 . S
C653 H637 0.930 . S
C653 C652 1.377 . S
C653 C654 1.379 . S
C654 H638 0.931 . S
C654 C648 1.383 . S
C654 C653 1.379 . S
H655 C649 0.959 . S
H656 C649 0.961 . S
H657 C649 0.960 . S
H658 C650 0.930 . S
H659 C651 0.929 . S
H660 C668 0.929 . S
H661 C670 0.930 . S
H662 C672 0.930 . S
H663 C675 0.929 . S
H664 C678 0.930 . S
H665 C680 0.960 . S
H666 C680 0.960 . S
H667 C680 0.960 . S
C668 H660 0.929 . S
C668 C669 1.377 . S
C668 C670 1.384 . S
C669 C668 1.377 . S
C669 C675 1.390 . S
C670 H661 0.930 . S
C670 C668 1.384 . S
C670 C671 1.372 . S
C671 C670 1.372 . S
C671 C672 1.400 . S
C671 C676 1.490 . S
C672 H662 0.930 . S
C672 C671 1.400 . S
C672 C675 1.386 . S
H673 C689 0.930 . S
H674 C690 0.931 . S
C675 H663 0.929 . S
C675 C669 1.390 . S
C675 C672 1.386 . S
C676 C671 1.490 . S
C676 C678 1.395 . S
C676 C679 1.403 . S
H677 C683 0.930 . S
C678 H664 0.930 . S
C678 C676 1.395 . S
C678 C681 1.403 . S
C679 C676 1.403 . S
C679 C680 1.524 . S
C679 C683 1.400 . S
C680 H665 0.960 . S
C680 H666 0.960 . S
C680 H667 0.960 . S
C680 C679 1.524 . S
C681 C678 1.403 . S
C681 C682 1.392 . S
C681 C685 1.495 . S
C682 C681 1.392 . S
C682 C683 1.385 . S
C682 C684 1.478 . S
C683 H677 0.930 . S
C683 C679 1.400 . S
C683 C682 1.385 . S
C684 C682 1.478 . S
C684 C686 1.381 . S
C684 C690 1.383 . S
C685 C681 1.495 . S
C685 H691 0.959 . S
C685 H692 0.961 . S
C685 H693 0.960 . S
C686 C684 1.381 . S
C686 C687 1.394 . S
C686 H694 0.930 . S
C687 C686 1.394 . S
C687 C688 1.383 . S
C687 H695 0.929 . S
C688 C687 1.383 . S
C688 C689 1.377 . S
C689 H673 0.930 . S
C689 C688 1.377 . S
C689 C690 1.379 . S
C690 H674 0.931 . S
C690 C684 1.383 . S
C690 C689 1.379 . S
H691 C685 0.959 . S
H692 C685 0.961 . S
H693 C685 0.960 . S
H694 C686 0.930 . S
H695 C687 0.929 . S
H696 C704 0.929 . S
H697 C706 0.930 . S
H698 C708 0.930 . S
H699 C711 0.929 . S
H700 C714 0.930 . S
H701 C716 0.960 . S
H702 C716 0.960 . S
H703 C716 0.960 . S
C704 H696 0.929 . S
C704 C705 1.377 . S
C704 C706 1.384 . S
C705 C704 1.377 . S
C705 C711 1.390 . S
C706 H697 0.930 . S
C706 C704 1.384 . S
C706 C707 1.372 . S
C707 C706 1.372 . S
C707 C708 1.400 . S
C707 C712 1.490 . S
C708 H698 0.930 . S
C708 C707 1.400 . S
C708 C711 1.386 . S
H709 C725 0.930 . S
H710 C726 0.931 . S
C711 H699 0.929 . S
C711 C705 1.390 . S
C711 C708 1.386 . S
C712 C707 1.490 . S
C712 C714 1.395 . S
C712 C715 1.403 . S
H713 C719 0.930 . S
C714 H700 0.930 . S
C714 C712 1.395 . S
C714 C717 1.403 . S
C715 C712 1.403 . S
C715 C716 1.524 . S
C715 C719 1.400 . S
C716 H701 0.960 . S
C716 H702 0.960 . S
C716 H703 0.960 . S
C716 C715 1.524 . S
C717 C714 1.403 . S
C717 C718 1.392 . S
C717 C721 1.495 . S
C718 C717 1.392 . S
C718 C719 1.385 . S
C718 C720 1.478 . S
C719 H713 0.930 . S
C719 C715 1.400 . S
C719 C718 1.385 . S
C720 C718 1.478 . S
C720 C722 1.381 . S
C720 C726 1.383 . S
C721 C717 1.495 . S
C721 H727 0.959 . S
C721 H728 0.961 . S
C721 H729 0.960 . S
C722 C720 1.381 . S
C722 C723 1.394 . S
C722 H730 0.930 . S
C723 C722 1.394 . S
C723 C724 1.383 . S
C723 H731 0.929 . S
C724 C723 1.383 . S
C724 C725 1.377 . S
C725 H709 0.930 . S
C725 C724 1.377 . S
C725 C726 1.379 . S
C726 H710 0.931 . S
C726 C720 1.383 . S
C726 C725 1.379 . S
H727 C721 0.959 . S
H728 C721 0.961 . S
H729 C721 0.960 . S
H730 C722 0.930 . S
H731 C723 0.929 . S
H732 C740 0.929 . S
H733 C742 0.930 . S
H734 C744 0.930 . S
H735 C747 0.929 . S
H736 C750 0.956 . S
H737 C752 0.960 . S
H738 C752 0.960 . S
H739 C752 0.960 . S
C740 H732 0.929 . S
C740 C741 1.377 . S
C740 C742 1.384 . S
C741 C740 1.377 . S
C741 C747 1.390 . S
C742 H733 0.930 . S
C742 C740 1.384 . S
C742 C743 1.372 . S
C743 C742 1.372 . S
C743 C744 1.400 . S
C743 C748 1.490 . S
C744 H734 0.930 . S
C744 C743 1.400 . S
C744 C747 1.386 . S
H745 C761 0.930 . S
H746 C762 0.931 . S
C747 H735 0.929 . S
C747 C741 1.390 . S
C747 C744 1.386 . S
C748 C743 1.490 . S
C748 C750 1.395 . S
C748 C751 1.403 . S
H749 C755 0.930 . S
C750 H736 0.956 . S
C750 C748 1.395 . S
C750 C753 1.403 . S
C751 C748 1.403 . S
C751 C752 1.524 . S
C751 C755 1.400 . S
C752 H737 0.960 . S
C752 H738 0.960 . S
C752 H739 0.960 . S
C752 C751 1.524 . S
C753 C750 1.403 . S
C753 C754 1.392 . S
C753 C757 1.495 . S
C754 C753 1.392 . S
C754 C755 1.385 . S
C754 C756 1.478 . S
C755 H749 0.930 . S
C755 C751 1.400 . S
C755 C754 1.385 . S
C756 C754 1.478 . S
C756 C758 1.381 . S
C756 C762 1.383 . S
C757 C753 1.495 . S
C757 H763 0.959 1_545 S
C757 H764 0.967 . S
C757 H765 0.960 . S
C758 C756 1.381 . S
C758 C759 1.394 . S
C758 H766 0.930 . S
C759 C758 1.394 . S
C759 C760 1.383 . S
C759 H767 0.929 . S
C760 C759 1.383 . S
C760 C761 1.377 . S
C761 H745 0.930 . S
C761 C760 1.377 . S
C761 C762 1.379 . S
C762 H746 0.931 . S
C762 C756 1.383 . S
C762 C761 1.379 . S
H763 C757 0.959 1_565 S
H764 C757 0.967 . S
H765 C757 0.960 . S
H766 C758 0.930 . S
H767 C759 0.929 . S
H768 C776 0.929 . S
H769 C778 0.930 . S
H770 C780 0.930 . S
H771 C783 0.929 . S
H772 C786 0.930 . S
H773 C788 0.960 . S
H774 C788 0.960 . S
H775 C788 0.960 . S
C776 H768 0.929 . S
C776 C777 1.377 . S
C776 C778 1.384 . S
C777 C776 1.377 . S
C777 C783 1.390 . S
C778 H769 0.930 . S
C778 C776 1.384 . S
C778 C779 1.372 . S
C779 C778 1.372 . S
C779 C780 1.400 . S
C779 C784 1.490 . S
C780 H770 0.930 . S
C780 C779 1.400 . S
C780 C783 1.386 . S
H781 C797 0.930 . S
H782 C798 0.931 . S
C783 H771 0.929 . S
C783 C777 1.390 . S
C783 C780 1.386 . S
C784 C779 1.490 . S
C784 C786 1.395 . S
C784 C787 1.403 . S
H785 C791 0.930 . S
C786 H772 0.930 . S
C786 C784 1.395 . S
C786 C789 1.403 . S
C787 C784 1.403 . S
C787 C788 1.524 . S
C787 C791 1.400 . S
C788 H773 0.960 . S
C788 H774 0.960 . S
C788 H775 0.960 . S
C788 C787 1.524 . S
C789 C786 1.403 . S
C789 C790 1.392 . S
C789 C793 1.495 . S
C790 C789 1.392 . S
C790 C791 1.385 . S
C790 C792 1.478 . S
C791 H785 0.930 . S
C791 C787 1.400 . S
C791 C790 1.385 . S
C792 C790 1.478 . S
C792 C794 1.381 . S
C792 C798 1.383 . S
C793 C789 1.495 . S
C793 H799 0.959 . S
C793 H800 0.961 . S
C793 H801 0.960 . S
C794 C792 1.381 . S
C794 C795 1.394 . S
C794 H802 0.930 . S
C795 C794 1.394 . S
C795 C796 1.383 . S
C795 H803 0.929 . S
C796 C795 1.383 . S
C796 C797 1.377 . S
C797 H781 0.930 . S
C797 C796 1.377 . S
C797 C798 1.379 . S
C798 H782 0.931 . S
C798 C792 1.383 . S
C798 C797 1.379 . S
H799 C793 0.959 . S
H800 C793 0.961 . S
H801 C793 0.960 . S
H802 C794 0.930 . S
H803 C795 0.929 . S
H804 C812 0.929 . S
H805 C814 0.930 . S
H806 C816 0.930 . S
H807 C819 0.929 . S
H808 C822 0.930 . S
H809 C824 0.960 . S
H810 C824 0.960 . S
H811 C824 0.960 . S
C812 H804 0.929 . S
C812 C813 1.377 . S
C812 C814 1.384 . S
C813 C812 1.377 . S
C813 C819 1.390 . S
C814 H805 0.930 . S
C814 C812 1.384 . S
C814 C815 1.372 . S
C815 C814 1.372 . S
C815 C816 1.400 . S
C815 C820 1.490 . S
C816 H806 0.930 . S
C816 C815 1.400 . S
C816 C819 1.386 . S
H817 C833 0.930 . S
H818 C834 0.931 . S
C819 H807 0.929 . S
C819 C813 1.390 . S
C819 C816 1.386 . S
C820 C815 1.490 . S
C820 C822 1.395 . S
C820 C823 1.403 . S
H821 C827 0.930 . S
C822 H808 0.930 . S
C822 C820 1.395 . S
C822 C825 1.403 . S
C823 C820 1.403 . S
C823 C824 1.524 . S
C823 C827 1.400 . S
C824 H809 0.960 . S
C824 H810 0.960 . S
C824 H811 0.960 . S
C824 C823 1.524 . S
C825 C822 1.403 . S
C825 C826 1.392 . S
C825 C829 1.495 . S
C826 C825 1.392 . S
C826 C827 1.385 . S
C826 C828 1.478 . S
C827 H821 0.930 . S
C827 C823 1.400 . S
C827 C826 1.385 . S
C828 C826 1.478 . S
C828 C830 1.381 . S
C828 C834 1.383 . S
C829 C825 1.495 . S
C829 H835 0.959 . S
C829 H836 0.961 . S
C829 H837 0.960 . S
C830 C828 1.381 . S
C830 C831 1.394 . S
C830 H838 0.930 . S
C831 C830 1.394 . S
C831 C832 1.383 . S
C831 H839 0.929 . S
C832 C831 1.383 . S
C832 C833 1.377 . S
C833 H817 0.930 . S
C833 C832 1.377 . S
C833 C834 1.379 . S
C834 H818 0.931 . S
C834 C828 1.383 . S
C834 C833 1.379 . S
H835 C829 0.959 . S
H836 C829 0.961 . S
H837 C829 0.960 . S
H838 C830 0.930 . S
H839 C831 0.929 . S
H840 C848 0.929 . S
H841 C850 0.930 . S
H842 C852 0.930 . S
H843 C855 0.929 . S
H844 C858 0.930 . S
H845 C860 0.960 1_565 S
H846 C860 0.960 . S
H847 C860 0.960 . S
C848 H840 0.929 . S
C848 C849 1.377 . S
C848 C850 1.384 . S
C849 C848 1.377 . S
C849 C855 1.390 . S
C850 H841 0.930 . S
C850 C848 1.384 . S
C850 C851 1.372 . S
C851 C850 1.372 . S
C851 C852 1.400 . S
C851 C856 1.490 . S
C852 H842 0.930 . S
C852 C851 1.400 . S
C852 C855 1.386 . S
H853 C869 0.930 . S
H854 C870 0.931 . S
C855 H843 0.929 . S
C855 C849 1.390 . S
C855 C852 1.386 . S
C856 C851 1.490 . S
C856 C858 1.395 . S
C856 C859 1.403 . S
H857 C863 0.930 . S
C858 H844 0.930 . S
C858 C856 1.395 . S
C858 C861 1.403 . S
C859 C856 1.403 . S
C859 C860 1.524 . S
C859 C863 1.400 . S
C860 H845 0.960 1_545 S
C860 H846 0.960 . S
C860 H847 0.960 . S
C860 C859 1.524 . S
C861 C858 1.403 . S
C861 C862 1.392 . S
C861 C865 1.495 . S
C862 C861 1.392 . S
C862 C863 1.385 . S
C862 C864 1.478 . S
C863 H857 0.930 . S
C863 C859 1.400 . S
C863 C862 1.385 . S
C864 C862 1.478 . S
C864 C866 1.381 . S
C864 C870 1.383 . S
C865 C861 1.495 . S
C865 H871 0.959 . S
C865 H872 0.961 . S
C865 H873 0.960 . S
C866 C864 1.381 . S
C866 C867 1.394 . S
C866 H874 0.930 . S
C867 C866 1.394 . S
C867 C868 1.383 . S
C867 H875 0.929 . S
C868 C867 1.383 . S
C868 C869 1.377 . S
C869 H853 0.930 . S
C869 C868 1.377 . S
C869 C870 1.379 . S
C870 H854 0.931 . S
C870 C864 1.383 . S
C870 C869 1.379 . S
H871 C865 0.959 . S
H872 C865 0.961 . S
H873 C865 0.960 . S
H874 C866 0.930 . S
H875 C867 0.929 . S
H876 C884 0.929 . S
H877 C886 0.930 . S
H878 C888 0.930 . S
H879 C891 0.929 . S
H880 C894 0.930 . S
H881 C896 0.960 . S
H882 C896 0.960 . S
H883 C896 0.960 . S
C884 H876 0.929 . S
C884 C885 1.377 . S
C884 C886 1.384 . S
C885 C884 1.377 . S
C885 C891 1.390 . S
C886 H877 0.930 . S
C886 C884 1.384 . S
C886 C887 1.372 . S
C887 C886 1.372 . S
C887 C888 1.400 . S
C887 C892 1.490 . S
C888 H878 0.930 . S
C888 C887 1.400 . S
C888 C891 1.386 . S
H889 C905 0.930 . S
H890 C906 0.931 . S
C891 H879 0.929 . S
C891 C885 1.390 . S
C891 C888 1.386 . S
C892 C887 1.490 . S
C892 C894 1.395 . S
C892 C895 1.403 . S
H893 C899 0.930 . S
C894 H880 0.930 . S
C894 C892 1.395 . S
C894 C897 1.403 . S
C895 C892 1.403 . S
C895 C896 1.524 . S
C895 C899 1.400 . S
C896 H881 0.960 . S
C896 H882 0.960 . S
C896 H883 0.960 . S
C896 C895 1.524 . S
C897 C894 1.403 . S
C897 C898 1.392 . S
C897 C901 1.495 . S
C898 C897 1.392 . S
C898 C899 1.385 . S
C898 C900 1.478 . S
C899 H893 0.930 . S
C899 C895 1.400 . S
C899 C898 1.385 . S
C900 C898 1.478 . S
C900 C902 1.381 . S
C900 C906 1.383 . S
C901 C897 1.495 . S
C901 H907 0.959 . S
C901 H908 0.961 . S
C901 H909 0.960 . S
C902 C900 1.381 . S
C902 C903 1.394 . S
C902 H910 0.930 . S
C903 C902 1.394 . S
C903 C904 1.383 . S
C903 H911 0.929 . S
C904 C903 1.383 . S
C904 C905 1.377 . S
C905 H889 0.930 . S
C905 C904 1.377 . S
C905 C906 1.379 . S
C906 H890 0.931 . S
C906 C900 1.383 . S
C906 C905 1.379 . S
H907 C901 0.959 . S
H908 C901 0.961 . S
H909 C901 0.960 . S
H910 C902 0.930 . S
H911 C903 0.929 . S
H912 C920 0.929 . S
H913 C922 0.930 . S
H914 C924 0.930 . S
H915 C927 0.929 . S
H916 C930 0.930 . S
H917 C932 0.960 . S
H918 C932 0.960 . S
H919 C932 0.960 . S
C920 H912 0.929 . S
C920 C921 1.377 . S
C920 C922 1.384 . S
C921 C920 1.377 . S
C921 C927 1.390 . S
C922 H913 0.930 . S
C922 C920 1.384 . S
C922 C923 1.372 . S
C923 C922 1.372 . S
C923 C924 1.400 . S
C923 C928 1.490 . S
C924 H914 0.930 . S
C924 C923 1.400 . S
C924 C927 1.386 . S
H925 C941 0.930 . S
H926 C942 0.931 . S
C927 H915 0.929 . S
C927 C921 1.390 . S
C927 C924 1.386 . S
C928 C923 1.490 . S
C928 C930 1.395 . S
C928 C931 1.403 . S
H929 C935 0.930 . S
C930 H916 0.930 . S
C930 C928 1.395 . S
C930 C933 1.403 . S
C931 C928 1.403 . S
C931 C932 1.524 . S
C931 C935 1.400 . S
C932 H917 0.960 . S
C932 H918 0.960 . S
C932 H919 0.960 . S
C932 C931 1.524 . S
C933 C930 1.403 . S
C933 C934 1.392 . S
C933 C937 1.495 . S
C934 C933 1.392 . S
C934 C935 1.385 . S
C934 C936 1.478 . S
C935 H929 0.930 . S
C935 C931 1.400 . S
C935 C934 1.385 . S
C936 C934 1.478 . S
C936 C938 1.381 . S
C936 C942 1.383 . S
C937 C933 1.495 . S
C937 H943 0.959 . S
C937 H944 0.961 . S
C937 H945 0.960 . S
C938 C936 1.381 . S
C938 C939 1.394 . S
C938 H946 0.930 . S
C939 C938 1.394 . S
C939 C940 1.383 . S
C939 H947 0.929 . S
C940 C939 1.383 . S
C940 C941 1.377 . S
C941 H925 0.930 . S
C941 C940 1.377 . S
C941 C942 1.379 . S
C942 H926 0.931 . S
C942 C936 1.383 . S
C942 C941 1.379 . S
H943 C937 0.959 . S
H944 C937 0.961 . S
H945 C937 0.960 . S
H946 C938 0.930 . S
H947 C939 0.929 . S
H948 C956 0.929 . S
H949 C958 0.930 . S
H950 C960 0.930 . S
H951 C963 0.929 1_655 S
H952 C966 0.930 . S
H953 C968 0.960 . S
H954 C968 0.960 . S
H955 C968 0.960 1_655 S
C956 H948 0.929 . S
C956 C957 1.377 . S
C956 C958 1.384 . S
C957 C956 1.377 . S
C957 C963 1.390 . S
C958 H949 0.930 . S
C958 C956 1.384 . S
C958 C959 1.372 . S
C959 C958 1.372 . S
C959 C960 1.400 . S
C959 C964 1.490 . S
C960 H950 0.930 . S
C960 C959 1.400 . S
C960 C963 1.386 . S
H961 C977 0.930 . S
H962 C978 0.931 . S
C963 H951 0.929 1_455 S
C963 C957 1.390 . S
C963 C960 1.386 . S
C964 C959 1.490 . S
C964 C966 1.395 . S
C964 C967 1.403 . S
H965 C971 0.930 . S
C966 H952 0.930 . S
C966 C964 1.395 . S
C966 C969 1.403 . S
C967 C964 1.403 . S
C967 C968 1.524 . S
C967 C971 1.400 . S
C968 H953 0.960 . S
C968 H954 0.960 . S
C968 H955 0.960 1_455 S
C968 C967 1.524 . S
C969 C966 1.403 . S
C969 C970 1.392 . S
C969 C973 1.495 . S
C970 C969 1.392 . S
C970 C971 1.385 . S
C970 C972 1.478 . S
C971 H965 0.930 . S
C971 C967 1.400 . S
C971 C970 1.385 . S
C972 C970 1.478 . S
C972 C974 1.381 . S
C972 C978 1.383 . S
C973 C969 1.495 . S
C973 H979 0.959 . S
C973 H980 0.961 . S
C973 H981 0.960 . S
C974 C972 1.381 . S
C974 C975 1.394 . S
C974 H982 0.930 . S
C975 C974 1.394 . S
C975 C976 1.383 . S
C975 H983 0.929 . S
C976 C975 1.383 . S
C976 C977 1.377 . S
C977 H961 0.930 . S
C977 C976 1.377 . S
C977 C978 1.379 . S
C978 H962 0.931 . S
C978 C972 1.383 . S
C978 C977 1.379 . S
H979 C973 0.959 . S
H980 C973 0.961 . S
H981 C973 0.960 . S
H982 C974 0.930 . S
H983 C975 0.929 . S
H984 C992 0.929 . S
H985 C994 0.930 . S
H986 C996 0.930 . S
H987 C999 0.929 . S
H988 C1002 0.930 . S
H989 C1004 0.960 . S
H990 C1004 0.960 . S
H991 C1004 0.960 . S
C992 H984 0.929 . S
C992 C993 1.377 . S
C992 C994 1.384 . S
C993 C992 1.377 . S
C993 C999 1.390 . S
C994 H985 0.930 . S
C994 C992 1.384 . S
C994 C995 1.372 . S
C995 C994 1.372 . S
C995 C996 1.400 . S
C995 C1000 1.490 . S
C996 H986 0.930 . S
C996 C995 1.400 . S
C996 C999 1.386 . S
H997 C1013 0.930 . S
H998 C1014 0.931 . S
C999 H987 0.929 . S
C999 C993 1.390 . S
C999 C996 1.386 . S
C1000 C995 1.490 . S
C1000 C1002 1.395 . S
C1000 C1003 1.403 . S
H1001 C1007 0.930 . S
C1002 H988 0.930 . S
C1002 C1000 1.395 . S
C1002 C1005 1.403 . S
C1003 C1000 1.403 . S
C1003 C1004 1.524 . S
C1003 C1007 1.400 . S
C1004 H989 0.960 . S
C1004 H990 0.960 . S
C1004 H991 0.960 . S
C1004 C1003 1.524 . S
C1005 C1002 1.403 . S
C1005 C1006 1.392 . S
C1005 C1009 1.495 . S
C1006 C1005 1.392 . S
C1006 C1007 1.385 . S
C1006 C1008 1.478 . S
C1007 H1001 0.930 . S
C1007 C1003 1.400 . S
C1007 C1006 1.385 . S
C1008 C1006 1.478 . S
C1008 C1010 1.381 . S
C1008 C1014 1.383 . S
C1009 C1005 1.495 . S
C1009 H1015 0.959 . S
C1009 H1016 0.961 . S
C1009 H1017 0.960 . S
C1010 C1008 1.381 . S
C1010 C1011 1.394 . S
C1010 H1018 0.930 . S
C1011 C1010 1.394 . S
C1011 C1012 1.383 . S
C1011 H1019 0.929 . S
C1012 C1011 1.383 . S
C1012 C1013 1.377 . S
C1013 H997 0.930 . S
C1013 C1012 1.377 . S
C1013 C1014 1.379 . S
C1014 H998 0.931 . S
C1014 C1008 1.383 . S
C1014 C1013 1.379 . S
H1015 C1009 0.959 . S
H1016 C1009 0.961 . S
H1017 C1009 0.960 . S
H1018 C1010 0.930 . S
H1019 C1011 0.929 . S
H1020 C1028 0.929 . S
H1021 C1030 0.930 . S
H1022 C1032 0.930 . S
H1023 C1035 0.929 . S
H1024 C1038 0.930 . S
H1025 C1040 0.960 . S
H1026 C1040 0.960 . S
H1027 C1040 0.960 . S
C1028 H1020 0.929 . S
C1028 C1029 1.377 . S
C1028 C1030 1.384 . S
C1029 C1028 1.377 . S
C1029 C1035 1.390 . S
C1030 H1021 0.930 . S
C1030 C1028 1.384 . S
C1030 C1031 1.372 . S
C1031 C1030 1.372 . S
C1031 C1032 1.400 . S
C1031 C1036 1.490 . S
C1032 H1022 0.930 . S
C1032 C1031 1.400 . S
C1032 C1035 1.386 . S
H1033 C1049 0.930 . S
H1034 C1050 0.931 . S
C1035 H1023 0.929 . S
C1035 C1029 1.390 . S
C1035 C1032 1.386 . S
C1036 C1031 1.490 . S
C1036 C1038 1.395 . S
C1036 C1039 1.403 . S
H1037 C1043 0.930 . S
C1038 H1024 0.930 . S
C1038 C1036 1.395 . S
C1038 C1041 1.403 . S
C1039 C1036 1.403 . S
C1039 C1040 1.524 . S
C1039 C1043 1.400 . S
C1040 H1025 0.960 . S
C1040 H1026 0.960 . S
C1040 H1027 0.960 . S
C1040 C1039 1.524 . S
C1041 C1038 1.403 . S
C1041 C1042 1.392 . S
C1041 C1045 1.495 . S
C1042 C1041 1.392 . S
C1042 C1043 1.385 . S
C1042 C1044 1.478 . S
C1043 H1037 0.930 . S
C1043 C1039 1.400 . S
C1043 C1042 1.385 . S
C1044 C1042 1.478 . S
C1044 C1046 1.381 . S
C1044 C1050 1.383 . S
C1045 C1041 1.495 . S
C1045 H1051 0.959 . S
C1045 H1052 0.961 . S
C1045 H1053 0.960 . S
C1046 C1044 1.381 . S
C1046 C1047 1.394 . S
C1046 H1054 0.930 . S
C1047 C1046 1.394 . S
C1047 C1048 1.383 . S
C1047 H1055 0.929 . S
C1048 C1047 1.383 . S
C1048 C1049 1.377 . S
C1049 H1033 0.930 . S
C1049 C1048 1.377 . S
C1049 C1050 1.379 . S
C1050 H1034 0.931 . S
C1050 C1044 1.383 . S
C1050 C1049 1.379 . S
H1051 C1045 0.959 . S
H1052 C1045 0.961 . S
H1053 C1045 0.960 . S
H1054 C1046 0.930 . S
H1055 C1047 0.929 . S
H1056 C1064 0.929 . S
H1057 C1066 0.930 . S
H1058 C1068 0.930 . S
H1059 C1071 0.929 . S
H1060 C1074 0.930 . S
H1061 C1076 0.960 . S
H1062 C1076 0.960 . S
H1063 C1076 0.960 . S
C1064 H1056 0.929 . S
C1064 C1065 1.377 . S
C1064 C1066 1.384 . S
C1065 C1064 1.377 . S
C1065 C1071 1.390 . S
C1066 H1057 0.930 . S
C1066 C1064 1.384 . S
C1066 C1067 1.372 . S
C1067 C1066 1.372 . S
C1067 C1068 1.400 . S
C1067 C1072 1.490 . S
C1068 H1058 0.930 . S
C1068 C1067 1.400 . S
C1068 C1071 1.386 . S
H1069 C1085 0.930 . S
H1070 C1086 0.931 . S
C1071 H1059 0.929 . S
C1071 C1065 1.390 . S
C1071 C1068 1.386 . S
C1072 C1067 1.490 . S
C1072 C1074 1.395 . S
C1072 C1075 1.403 . S
H1073 C1079 0.930 . S
C1074 H1060 0.930 . S
C1074 C1072 1.395 . S
C1074 C1077 1.403 . S
C1075 C1072 1.403 . S
C1075 C1076 1.524 . S
C1075 C1079 1.400 . S
C1076 H1061 0.960 . S
C1076 H1062 0.960 . S
C1076 H1063 0.960 . S
C1076 C1075 1.524 . S
C1077 C1074 1.403 . S
C1077 C1078 1.392 . S
C1077 C1081 1.495 . S
C1078 C1077 1.392 . S
C1078 C1079 1.385 . S
C1078 C1080 1.478 . S
C1079 H1073 0.930 . S
C1079 C1075 1.400 . S
C1079 C1078 1.385 . S
C1080 C1078 1.478 . S
C1080 C1082 1.381 . S
C1080 C1086 1.383 . S
C1081 C1077 1.495 . S
C1081 H1087 0.959 . S
C1081 H1088 0.961 . S
C1081 H1089 0.960 . S
C1082 C1080 1.381 . S
C1082 C1083 1.394 . S
C1082 H1090 0.930 . S
C1083 C1082 1.394 . S
C1083 C1084 1.383 . S
C1083 H1091 0.929 . S
C1084 C1083 1.383 . S
C1084 C1085 1.377 . S
C1085 H1069 0.930 . S
C1085 C1084 1.377 . S
C1085 C1086 1.379 . S
C1086 H1070 0.931 . S
C1086 C1080 1.383 . S
C1086 C1085 1.379 . S
H1087 C1081 0.959 . S
H1088 C1081 0.961 . S
H1089 C1081 0.960 . S
H1090 C1082 0.930 . S
H1091 C1083 0.929 . S
H1092 C1100 0.929 . S
H1093 C1102 0.930 . S
H1094 C1104 0.930 . S
H1095 C1107 0.929 . S
H1096 C1110 0.930 . S
H1097 C1112 0.960 . S
H1098 C1112 0.960 . S
H1099 C1112 0.960 . S
C1100 H1092 0.929 . S
C1100 C1101 1.377 . S
C1100 C1102 1.384 . S
C1101 C1100 1.377 . S
C1101 C1107 1.390 . S
C1102 H1093 0.930 . S
C1102 C1100 1.384 . S
C1102 C1103 1.372 . S
C1103 C1102 1.372 . S
C1103 C1104 1.400 . S
C1103 C1108 1.490 . S
C1104 H1094 0.930 . S
C1104 C1103 1.400 . S
C1104 C1107 1.386 . S
H1105 C1121 0.930 . S
H1106 C1122 0.931 . S
C1107 H1095 0.929 . S
C1107 C1101 1.390 . S
C1107 C1104 1.386 . S
C1108 C1103 1.490 . S
C1108 C1110 1.395 . S
C1108 C1111 1.403 . S
H1109 C1115 0.930 . S
C1110 H1096 0.930 . S
C1110 C1108 1.395 . S
C1110 C1113 1.403 . S
C1111 C1108 1.403 . S
C1111 C1112 1.524 . S
C1111 C1115 1.400 . S
C1112 H1097 0.960 . S
C1112 H1098 0.960 . S
C1112 H1099 0.960 . S
C1112 C1111 1.524 . S
C1113 C1110 1.403 . S
C1113 C1114 1.392 . S
C1113 C1117 1.495 . S
C1114 C1113 1.392 . S
C1114 C1115 1.385 . S
C1114 C1116 1.478 . S
C1115 H1109 0.930 . S
C1115 C1111 1.400 . S
C1115 C1114 1.385 . S
C1116 C1114 1.478 . S
C1116 C1118 1.381 . S
C1116 C1122 1.383 . S
C1117 C1113 1.495 . S
C1117 H1123 0.959 . S
C1117 H1124 0.961 . S
C1117 H1125 0.960 . S
C1118 C1116 1.381 . S
C1118 C1119 1.394 . S
C1118 H1126 0.930 . S
C1119 C1118 1.394 . S
C1119 C1120 1.383 . S
C1119 H1127 0.929 . S
C1120 C1119 1.383 . S
C1120 C1121 1.377 . S
C1121 H1105 0.930 . S
C1121 C1120 1.377 . S
C1121 C1122 1.379 . S
C1122 H1106 0.931 . S
C1122 C1116 1.383 . S
C1122 C1121 1.379 . S
H1123 C1117 0.959 . S
H1124 C1117 0.961 . S
H1125 C1117 0.960 . S
H1126 C1118 0.930 . S
H1127 C1119 0.929 . S
H1128 C1136 0.929 . S
H1129 C1138 0.930 . S
H1130 C1140 0.930 . S
H1131 C1143 0.929 . S
H1132 C1146 0.930 . S
H1133 C1148 0.960 . S
H1134 C1148 0.960 . S
H1135 C1148 0.960 . S
C1136 H1128 0.929 . S
C1136 C1137 1.377 . S
C1136 C1138 1.384 . S
C1137 C1136 1.377 . S
C1137 C1143 1.390 . S
C1138 H1129 0.930 . S
C1138 C1136 1.384 . S
C1138 C1139 1.372 . S
C1139 C1138 1.372 . S
C1139 C1140 1.400 . S
C1139 C1144 1.490 . S
C1140 H1130 0.930 . S
C1140 C1139 1.400 . S
C1140 C1143 1.386 . S
H1141 C1157 0.930 . S
H1142 C1158 0.931 . S
C1143 H1131 0.929 . S
C1143 C1137 1.390 . S
C1143 C1140 1.386 . S
C1144 C1139 1.490 . S
C1144 C1146 1.395 . S
C1144 C1147 1.403 . S
H1145 C1151 0.930 . S
C1146 H1132 0.930 . S
C1146 C1144 1.395 . S
C1146 C1149 1.403 . S
C1147 C1144 1.403 . S
C1147 C1148 1.524 . S
C1147 C1151 1.400 . S
C1148 H1133 0.960 . S
C1148 H1134 0.960 . S
C1148 H1135 0.960 . S
C1148 C1147 1.524 . S
C1149 C1146 1.403 . S
C1149 C1150 1.392 . S
C1149 C1153 1.495 . S
C1150 C1149 1.392 . S
C1150 C1151 1.385 . S
C1150 C1152 1.478 . S
C1151 H1145 0.930 . S
C1151 C1147 1.400 . S
C1151 C1150 1.385 . S
C1152 C1150 1.478 . S
C1152 C1154 1.381 . S
C1152 C1158 1.383 . S
C1153 C1149 1.495 . S
C1153 H1159 0.959 . S
C1153 H1160 0.961 . S
C1153 H1161 0.960 . S
C1154 C1152 1.381 . S
C1154 C1155 1.394 . S
C1154 H1162 0.930 . S
C1155 C1154 1.394 . S
C1155 C1156 1.383 . S
C1155 H1163 0.929 . S
C1156 C1155 1.383 . S
C1156 C1157 1.377 . S
C1157 H1141 0.930 . S
C1157 C1156 1.377 . S
C1157 C1158 1.379 . S
C1158 H1142 0.931 . S
C1158 C1152 1.383 . S
C1158 C1157 1.379 . S
H1159 C1153 0.959 . S
H1160 C1153 0.961 . S
H1161 C1153 0.960 . S
H1162 C1154 0.930 . S
H1163 C1155 0.929 . S
H1164 C1172 0.929 . S
H1165 C1174 0.930 . S
H1166 C1176 0.930 . S
H1167 C1179 0.929 . S
H1168 C1182 0.930 . S
H1169 C1184 0.960 . S
H1170 C1184 0.960 . S
H1171 C1184 0.960 . S
C1172 H1164 0.929 . S
C1172 C1173 1.377 . S
C1172 C1174 1.384 . S
C1173 C1172 1.377 . S
C1173 C1179 1.390 . S
C1174 H1165 0.930 . S
C1174 C1172 1.384 . S
C1174 C1175 1.372 . S
C1175 C1174 1.372 . S
C1175 C1176 1.400 . S
C1175 C1180 1.490 . S
C1176 H1166 0.930 . S
C1176 C1175 1.400 . S
C1176 C1179 1.386 . S
H1177 C1193 0.930 . S
H1178 C1194 0.931 . S
C1179 H1167 0.929 . S
C1179 C1173 1.390 . S
C1179 C1176 1.386 . S
C1180 C1175 1.490 . S
C1180 C1182 1.395 . S
C1180 C1183 1.403 . S
H1181 C1187 0.930 . S
C1182 H1168 0.930 . S
C1182 C1180 1.395 . S
C1182 C1185 1.403 . S
C1183 C1180 1.403 . S
C1183 C1184 1.524 . S
C1183 C1187 1.400 . S
C1184 H1169 0.960 . S
C1184 H1170 0.960 . S
C1184 H1171 0.960 . S
C1184 C1183 1.524 . S
C1185 C1182 1.403 . S
C1185 C1186 1.392 . S
C1185 C1189 1.495 . S
C1186 C1185 1.392 . S
C1186 C1187 1.385 . S
C1186 C1188 1.478 . S
C1187 H1181 0.930 . S
C1187 C1183 1.400 . S
C1187 C1186 1.385 . S
C1188 C1186 1.478 . S
C1188 C1190 1.381 . S
C1188 C1194 1.383 . S
C1189 C1185 1.495 . S
C1189 H1195 0.959 . S
C1189 H1196 0.961 . S
C1189 H1197 0.960 . S
C1190 C1188 1.381 . S
C1190 C1191 1.394 . S
C1190 H1198 0.930 . S
C1191 C1190 1.394 . S
C1191 C1192 1.383 . S
C1191 H1199 0.929 . S
C1192 C1191 1.383 . S
C1192 C1193 1.377 . S
C1193 H1177 0.930 . S
C1193 C1192 1.377 . S
C1193 C1194 1.379 . S
C1194 H1178 0.931 . S
C1194 C1188 1.383 . S
C1194 C1193 1.379 . S
H1195 C1189 0.959 . S
H1196 C1189 0.961 . S
H1197 C1189 0.960 . S
H1198 C1190 0.930 . S
H1199 C1191 0.929 . S
H1200 C1208 0.929 . S
H1201 C1210 0.930 . S
H1202 C1212 0.930 . S
H1203 C1215 0.929 . S
H1204 C1218 0.930 . S
H1205 C1220 0.960 . S
H1206 C1220 0.960 . S
H1207 C1220 0.960 . S
C1208 H1200 0.929 . S
C1208 C1209 1.377 . S
C1208 C1210 1.384 . S
C1209 C1208 1.377 . S
C1209 C1215 1.390 . S
C1210 H1201 0.930 . S
C1210 C1208 1.384 . S
C1210 C1211 1.372 1_655 S
C1211 C1210 1.372 1_455 S
C1211 C1212 1.400 . S
C1211 C1216 1.490 . S
C1212 H1202 0.930 . S
C1212 C1211 1.400 . S
C1212 C1215 1.386 1_455 S
H1213 C1229 0.930 . S
H1214 C1230 0.931 . S
C1215 H1203 0.929 . S
C1215 C1209 1.390 . S
C1215 C1212 1.386 1_655 S
C1216 C1211 1.490 . S
C1216 C1218 1.395 1_455 S
C1216 C1219 1.403 . S
H1217 C1223 0.930 . S
C1218 H1204 0.930 . S
C1218 C1216 1.395 1_655 S
C1218 C1221 1.403 1_655 S
C1219 C1216 1.403 . S
C1219 C1220 1.524 . S
C1219 C1223 1.400 . S
C1220 H1205 0.960 . S
C1220 H1206 0.960 . S
C1220 H1207 0.960 . S
C1220 C1219 1.524 . S
C1221 C1218 1.403 1_455 S
C1221 C1222 1.392 . S
C1221 C1225 1.495 1_455 S
C1222 C1221 1.392 . S
C1222 C1223 1.385 . S
C1222 C1224 1.478 . S
C1223 H1217 0.930 . S
C1223 C1219 1.400 . S
C1223 C1222 1.385 . S
C1224 C1222 1.478 . S
C1224 C1226 1.381 . S
C1224 C1230 1.383 . S
C1225 C1221 1.495 1_655 S
C1225 H1231 0.959 . S
C1225 H1232 0.961 . S
C1225 H1233 0.960 . S
C1226 C1224 1.381 . S
C1226 C1227 1.394 . S
C1226 H1234 0.930 . S
C1227 C1226 1.394 . S
C1227 C1228 1.383 . S
C1227 H1235 0.929 . S
C1228 C1227 1.383 . S
C1228 C1229 1.377 . S
C1229 H1213 0.930 . S
C1229 C1228 1.377 . S
C1229 C1230 1.379 . S
C1230 H1214 0.931 . S
C1230 C1224 1.383 . S
C1230 C1229 1.379 . S
H1231 C1225 0.959 . S
H1232 C1225 0.961 . S
H1233 C1225 0.960 . S
H1234 C1226 0.930 . S
H1235 C1227 0.929 . S
H1236 C1244 0.929 . S
H1237 C1246 0.930 . S
H1238 C1248 0.930 . S
H1239 C1251 0.929 . S
H1240 C1254 0.930 . S
H1241 C1256 0.960 . S
H1242 C1256 0.960 . S
H1243 C1256 0.960 . S
C1244 H1236 0.929 . S
C1244 C1245 1.377 . S
C1244 C1246 1.384 . S
C1245 C1244 1.377 . S
C1245 C1251 1.390 . S
C1246 H1237 0.930 . S
C1246 C1244 1.384 . S
C1246 C1247 1.372 . S
C1247 C1246 1.372 . S
C1247 C1248 1.400 . S
C1247 C1252 1.490 . S
C1248 H1238 0.930 . S
C1248 C1247 1.400 . S
C1248 C1251 1.386 . S
H1249 C1265 0.930 . S
H1250 C1266 0.931 . S
C1251 H1239 0.929 . S
C1251 C1245 1.390 . S
C1251 C1248 1.386 . S
C1252 C1247 1.490 . S
C1252 C1254 1.395 . S
C1252 C1255 1.403 . S
H1253 C1259 0.930 . S
C1254 H1240 0.930 . S
C1254 C1252 1.395 . S
C1254 C1257 1.403 . S
C1255 C1252 1.403 . S
C1255 C1256 1.524 . S
C1255 C1259 1.400 . S
C1256 H1241 0.960 . S
C1256 H1242 0.960 . S
C1256 H1243 0.960 . S
C1256 C1255 1.524 . S
C1257 C1254 1.403 . S
C1257 C1258 1.392 . S
C1257 C1261 1.495 . S
C1258 C1257 1.392 . S
C1258 C1259 1.385 . S
C1258 C1260 1.478 . S
C1259 H1253 0.930 . S
C1259 C1255 1.400 . S
C1259 C1258 1.385 . S
C1260 C1258 1.478 . S
C1260 C1262 1.381 . S
C1260 C1266 1.383 . S
C1261 C1257 1.495 . S
C1261 H1267 0.959 . S
C1261 H1268 0.961 . S
C1261 H1269 0.960 . S
C1262 C1260 1.381 . S
C1262 C1263 1.394 . S
C1262 H1270 0.930 . S
C1263 C1262 1.394 . S
C1263 C1264 1.383 . S
C1263 H1271 0.929 . S
C1264 C1263 1.383 . S
C1264 C1265 1.377 . S
C1265 H1249 0.930 . S
C1265 C1264 1.377 . S
C1265 C1266 1.379 . S
C1266 H1250 0.931 . S
C1266 C1260 1.383 . S
C1266 C1265 1.379 . S
H1267 C1261 0.959 . S
H1268 C1261 0.961 . S
H1269 C1261 0.960 . S
H1270 C1262 0.930 . S
H1271 C1263 0.929 . S
H1272 C1280 0.929 . S
H1273 C1282 0.930 . S
H1274 C1284 0.930 . S
H1275 C1287 0.929 . S
H1276 C1290 0.930 . S
H1277 C1292 0.960 . S
H1278 C1292 0.960 . S
H1279 C1292 0.960 . S
C1280 H1272 0.929 . S
C1280 C1281 1.377 . S
C1280 C1282 1.384 . S
C1281 C1280 1.377 . S
C1281 C1287 1.390 . S
C1282 H1273 0.930 . S
C1282 C1280 1.384 . S
C1282 C1283 1.372 . S
C1283 C1282 1.372 . S
C1283 C1284 1.400 . S
C1283 C1288 1.490 . S
C1284 H1274 0.930 . S
C1284 C1283 1.400 . S
C1284 C1287 1.386 . S
H1285 C1301 0.930 . S
H1286 C1302 0.931 . S
C1287 H1275 0.929 . S
C1287 C1281 1.390 . S
C1287 C1284 1.386 . S
C1288 C1283 1.490 . S
C1288 C1290 1.395 . S
C1288 C1291 1.403 . S
H1289 C1295 0.930 . S
C1290 H1276 0.930 . S
C1290 C1288 1.395 . S
C1290 C1293 1.403 . S
C1291 C1288 1.403 . S
C1291 C1292 1.524 . S
C1291 C1295 1.400 . S
C1292 H1277 0.960 . S
C1292 H1278 0.960 . S
C1292 H1279 0.960 . S
C1292 C1291 1.524 . S
C1293 C1290 1.403 . S
C1293 C1294 1.392 . S
C1293 C1297 1.495 . S
C1294 C1293 1.392 . S
C1294 C1295 1.385 . S
C1294 C1296 1.478 . S
C1295 H1289 0.930 . S
C1295 C1291 1.400 . S
C1295 C1294 1.385 . S
C1296 C1294 1.478 . S
C1296 C1298 1.381 . S
C1296 C1302 1.383 . S
C1297 C1293 1.495 . S
C1297 H1303 0.959 . S
C1297 H1304 0.961 . S
C1297 H1305 0.960 . S
C1298 C1296 1.381 . S
C1298 C1299 1.394 . S
C1298 H1306 0.930 . S
C1299 C1298 1.394 . S
C1299 C1300 1.383 . S
C1299 H1307 0.929 . S
C1300 C1299 1.383 . S
C1300 C1301 1.377 . S
C1301 H1285 0.930 . S
C1301 C1300 1.377 . S
C1301 C1302 1.379 . S
C1302 H1286 0.931 . S
C1302 C1296 1.383 . S
C1302 C1301 1.379 . S
H1303 C1297 0.959 . S
H1304 C1297 0.961 . S
H1305 C1297 0.960 . S
H1306 C1298 0.930 . S
H1307 C1299 0.929 . S
H1308 C1316 0.929 . S
H1309 C1318 0.930 . S
H1310 C1320 0.930 . S
H1311 C1323 0.929 . S
H1312 C1326 0.930 . S
H1313 C1328 0.960 . S
H1314 C1328 0.960 . S
H1315 C1328 0.960 . S
C1316 H1308 0.929 . S
C1316 C1317 1.377 . S
C1316 C1318 1.384 . S
C1317 C1316 1.377 . S
C1317 C1323 1.390 1_556 S
C1318 H1309 0.930 . S
C1318 C1316 1.384 . S
C1318 C1319 1.416 . S
C1319 C1318 1.416 . S
C1319 C1320 1.365 1_556 S
C1319 C1324 1.482 1_556 S
C1320 H1310 0.930 . S
C1320 C1319 1.365 1_554 S
C1320 C1323 1.386 . S
H1321 C1337 0.930 . S
H1322 C1338 0.931 . S
C1323 H1311 0.929 . S
C1323 C1317 1.390 1_554 S
C1323 C1320 1.386 . S
C1324 C1319 1.482 1_554 S
C1324 C1326 1.395 1_554 S
C1324 C1327 1.403 . S
H1325 C1331 0.930 . S
C1326 H1312 0.930 . S
C1326 C1324 1.395 1_556 S
C1326 C1329 1.403 . S
C1327 C1324 1.403 . S
C1327 C1328 1.524 . S
C1327 C1331 1.400 . S
C1328 H1313 0.960 . S
C1328 H1314 0.960 . S
C1328 H1315 0.960 . S
C1328 C1327 1.524 . S
C1329 C1326 1.403 . S
C1329 C1330 1.392 1_556 S
C1329 C1333 1.495 . S
C1330 C1329 1.392 1_554 S
C1330 C1331 1.385 . S
C1330 C1332 1.478 . S
C1331 H1325 0.930 . S
C1331 C1327 1.400 . S
C1331 C1330 1.385 . S
C1332 C1330 1.478 . S
C1332 C1334 1.411 . S
C1332 C1338 1.383 . S
C1333 C1329 1.495 . S
C1333 H1339 0.959 . S
C1333 H1340 0.961 . S
C1333 H1341 0.960 . S
C1334 C1332 1.411 . S
C1334 C1335 1.405 . S
C1334 H1342 0.890 1_554 S
C1335 C1334 1.405 . S
C1335 C1336 1.383 . S
C1335 H1343 0.929 1_554 S
C1336 C1335 1.383 . S
C1336 C1337 1.377 . S
C1337 H1321 0.930 . S
C1337 C1336 1.377 . S
C1337 C1338 1.379 . S
C1338 H1322 0.931 . S
C1338 C1332 1.383 . S
C1338 C1337 1.379 . S
H1339 C1333 0.959 . S
H1340 C1333 0.961 . S
H1341 C1333 0.960 . S
H1342 C1334 0.890 1_556 S
H1343 C1335 0.929 1_556 S
H1344 C1352 0.929 . S
H1345 C1354 0.930 . S
H1346 C1356 0.930 . S
H1347 C1359 0.929 . S
H1348 C1362 0.930 . S
H1349 C1364 0.960 . S
H1350 C1364 0.960 . S
H1351 C1364 0.960 . S
C1352 H1344 0.929 . S
C1352 C1353 1.377 . S
C1352 C1354 1.384 . S
C1353 C1352 1.377 . S
C1353 C1359 1.390 . S
C1354 H1345 0.930 . S
C1354 C1352 1.384 . S
C1354 C1355 1.372 . S
C1355 C1354 1.372 . S
C1355 C1356 1.400 . S
C1355 C1360 1.490 . S
C1356 H1346 0.930 . S
C1356 C1355 1.400 . S
C1356 C1359 1.386 . S
H1357 C1373 0.930 . S
H1358 C1374 0.931 . S
C1359 H1347 0.929 . S
C1359 C1353 1.390 . S
C1359 C1356 1.386 . S
C1360 C1355 1.490 . S
C1360 C1362 1.395 . S
C1360 C1363 1.403 . S
H1361 C1367 0.930 . S
C1362 H1348 0.930 . S
C1362 C1360 1.395 . S
C1362 C1365 1.403 . S
C1363 C1360 1.403 . S
C1363 C1364 1.524 . S
C1363 C1367 1.400 . S
C1364 H1349 0.960 . S
C1364 H1350 0.960 . S
C1364 H1351 0.960 . S
C1364 C1363 1.524 . S
C1365 C1362 1.403 . S
C1365 C1366 1.392 . S
C1365 C1369 1.495 . S
C1366 C1365 1.392 . S
C1366 C1367 1.385 . S
C1366 C1368 1.478 . S
C1367 H1361 0.930 . S
C1367 C1363 1.400 . S
C1367 C1366 1.385 . S
C1368 C1366 1.478 . S
C1368 C1370 1.381 . S
C1368 C1374 1.383 . S
C1369 C1365 1.495 . S
C1369 H1375 0.959 . S
C1369 H1376 0.961 . S
C1369 H1377 0.960 . S
C1370 C1368 1.381 . S
C1370 C1371 1.394 . S
C1370 H1378 0.930 . S
C1371 C1370 1.394 . S
C1371 C1372 1.383 . S
C1371 H1379 0.929 . S
C1372 C1371 1.383 . S
C1372 C1373 1.377 . S
C1373 H1357 0.930 . S
C1373 C1372 1.377 . S
C1373 C1374 1.379 . S
C1374 H1358 0.931 . S
C1374 C1368 1.383 . S
C1374 C1373 1.379 . S
H1375 C1369 0.959 . S
H1376 C1369 0.961 . S
H1377 C1369 0.960 . S
H1378 C1370 0.930 . S
H1379 C1371 0.929 . S
H1380 C1388 0.929 . S
H1381 C1390 0.930 . S
H1382 C1392 0.930 . S
H1383 C1395 0.929 . S
H1384 C1398 0.930 . S
H1385 C1400 0.960 . S
H1386 C1400 0.960 . S
H1387 C1400 0.960 . S
C1388 H1380 0.929 . S
C1388 C1389 1.377 . S
C1388 C1390 1.384 . S
C1389 C1388 1.377 . S
C1389 C1395 1.390 . S
C1390 H1381 0.930 . S
C1390 C1388 1.384 . S
C1390 C1391 1.372 . S
C1391 C1390 1.372 . S
C1391 C1392 1.400 . S
C1391 C1396 1.490 . S
C1392 H1382 0.930 . S
C1392 C1391 1.400 . S
C1392 C1395 1.386 . S
H1393 C1409 0.930 . S
H1394 C1410 0.931 . S
C1395 H1383 0.929 . S
C1395 C1389 1.390 . S
C1395 C1392 1.386 . S
C1396 C1391 1.490 . S
C1396 C1398 1.395 . S
C1396 C1399 1.403 . S
H1397 C1403 0.930 . S
C1398 H1384 0.930 . S
C1398 C1396 1.395 . S
C1398 C1401 1.403 . S
C1399 C1396 1.403 . S
C1399 C1400 1.524 . S
C1399 C1403 1.400 . S
C1400 H1385 0.960 . S
C1400 H1386 0.960 . S
C1400 H1387 0.960 . S
C1400 C1399 1.524 . S
C1401 C1398 1.403 . S
C1401 C1402 1.392 . S
C1401 C1405 1.495 . S
C1402 C1401 1.392 . S
C1402 C1403 1.385 . S
C1402 C1404 1.478 . S
C1403 H1397 0.930 . S
C1403 C1399 1.400 . S
C1403 C1402 1.385 . S
C1404 C1402 1.478 . S
C1404 C1406 1.381 . S
C1404 C1410 1.383 . S
C1405 C1401 1.495 . S
C1405 H1411 0.959 . S
C1405 H1412 0.961 . S
C1405 H1413 0.960 . S
C1406 C1404 1.381 . S
C1406 C1407 1.394 . S
C1406 H1414 0.930 . S
C1407 C1406 1.394 . S
C1407 C1408 1.383 . S
C1407 H1415 0.929 . S
C1408 C1407 1.383 . S
C1408 C1409 1.377 . S
C1409 H1393 0.930 . S
C1409 C1408 1.377 . S
C1409 C1410 1.379 . S
C1410 H1394 0.931 . S
C1410 C1404 1.383 . S
C1410 C1409 1.379 . S
H1411 C1405 0.959 . S
H1412 C1405 0.961 . S
H1413 C1405 0.960 . S
H1414 C1406 0.930 . S
H1415 C1407 0.929 . S
H1416 C1424 0.929 . S
H1417 C1426 0.930 . S
H1418 C1428 0.930 . S
H1419 C1431 0.929 . S
H1420 C1434 0.930 . S
H1421 C1436 0.960 . S
H1422 C1436 0.960 . S
H1423 C1436 0.960 . S
C1424 H1416 0.929 . S
C1424 C1425 1.377 . S
C1424 C1426 1.384 . S
C1425 C1424 1.377 . S
C1425 C1431 1.390 . S
C1426 H1417 0.930 . S
C1426 C1424 1.384 . S
C1426 C1427 1.372 . S
C1427 C1426 1.372 . S
C1427 C1428 1.400 . S
C1427 C1432 1.490 . S
C1428 H1418 0.930 . S
C1428 C1427 1.400 . S
C1428 C1431 1.386 . S
H1429 C1445 0.930 . S
H1430 C1446 0.931 . S
C1431 H1419 0.929 . S
C1431 C1425 1.390 . S
C1431 C1428 1.386 . S
C1432 C1427 1.490 . S
C1432 C1434 1.395 . S
C1432 C1435 1.403 . S
H1433 C1439 0.930 . S
C1434 H1420 0.930 . S
C1434 C1432 1.395 . S
C1434 C1437 1.403 . S
C1435 C1432 1.403 . S
C1435 C1436 1.524 . S
C1435 C1439 1.400 . S
C1436 H1421 0.960 . S
C1436 H1422 0.960 . S
C1436 H1423 0.960 . S
C1436 C1435 1.524 . S
C1437 C1434 1.403 . S
C1437 C1438 1.392 . S
C1437 C1441 1.495 . S
C1438 C1437 1.392 . S
C1438 C1439 1.385 . S
C1438 C1440 1.478 . S
C1439 H1433 0.930 . S
C1439 C1435 1.400 . S
C1439 C1438 1.385 . S
C1440 C1438 1.478 . S
C1440 C1442 1.381 . S
C1440 C1446 1.383 . S
C1441 C1437 1.495 . S
C1441 H1447 0.959 . S
C1441 H1448 0.961 . S
C1441 H1449 0.960 . S
C1442 C1440 1.381 . S
C1442 C1443 1.394 . S
C1442 H1450 0.930 . S
C1443 C1442 1.394 . S
C1443 C1444 1.383 . S
C1443 H1451 0.929 . S
C1444 C1443 1.383 . S
C1444 C1445 1.377 . S
C1445 H1429 0.930 . S
C1445 C1444 1.377 . S
C1445 C1446 1.379 . S
C1446 H1430 0.931 . S
C1446 C1440 1.383 . S
C1446 C1445 1.379 . S
H1447 C1441 0.959 . S
H1448 C1441 0.961 . S
H1449 C1441 0.960 . S
H1450 C1442 0.930 . S
H1451 C1443 0.929 . S
H1452 C1460 0.929 1_545 S
H1453 C1462 0.930 . S
H1454 C1464 0.930 . S
H1455 C1467 0.929 . S
H1456 C1470 0.930 . S
H1457 C1472 0.960 . S
H1458 C1472 0.960 . S
H1459 C1472 0.960 . S
C1460 H1452 0.929 1_565 S
C1460 C1461 1.377 . S
C1460 C1462 1.384 . S
C1461 C1460 1.377 . S
C1461 C1467 1.390 . S
C1462 H1453 0.930 . S
C1462 C1460 1.384 . S
C1462 C1463 1.372 . S
C1463 C1462 1.372 . S
C1463 C1464 1.400 . S
C1463 C1468 1.490 . S
C1464 H1454 0.930 . S
C1464 C1463 1.400 . S
C1464 C1467 1.386 . S
H1465 C1481 0.930 . S
H1466 C1482 0.931 . S
C1467 H1455 0.929 . S
C1467 C1461 1.390 . S
C1467 C1464 1.386 . S
C1468 C1463 1.490 . S
C1468 C1470 1.395 . S
C1468 C1471 1.403 . S
H1469 C1475 0.930 . S
C1470 H1456 0.930 . S
C1470 C1468 1.395 . S
C1470 C1473 1.403 . S
C1471 C1468 1.403 . S
C1471 C1472 1.524 . S
C1471 C1475 1.400 . S
C1472 H1457 0.960 . S
C1472 H1458 0.960 . S
C1472 H1459 0.960 . S
C1472 C1471 1.524 . S
C1473 C1470 1.403 . S
C1473 C1474 1.392 . S
C1473 C1477 1.495 . S
C1474 C1473 1.392 . S
C1474 C1475 1.385 . S
C1474 C1476 1.478 . S
C1475 H1469 0.930 . S
C1475 C1471 1.400 . S
C1475 C1474 1.385 . S
C1476 C1474 1.478 . S
C1476 C1478 1.381 . S
C1476 C1482 1.383 . S
C1477 C1473 1.495 . S
C1477 H1483 0.959 1_565 S
C1477 H1484 0.961 . S
C1477 H1485 0.960 . S
C1478 C1476 1.381 . S
C1478 C1479 1.394 . S
C1478 H1486 0.930 . S
C1479 C1478 1.394 . S
C1479 C1480 1.383 . S
C1479 H1487 0.929 . S
C1480 C1479 1.383 . S
C1480 C1481 1.377 . S
C1481 H1465 0.930 . S
C1481 C1480 1.377 . S
C1481 C1482 1.379 . S
C1482 H1466 0.931 . S
C1482 C1476 1.383 . S
C1482 C1481 1.379 . S
H1483 C1477 0.959 1_545 S
H1484 C1477 0.961 . S
H1485 C1477 0.960 . S
H1486 C1478 0.930 . S
H1487 C1479 0.929 . S
H1488 C1496 0.929 . S
H1489 C1498 0.930 . S
H1490 C1500 0.930 . S
H1491 C1503 0.929 . S
H1492 C1506 0.930 . S
H1493 C1508 0.960 . S
H1494 C1508 0.960 . S
H1495 C1508 0.960 . S
C1496 H1488 0.929 . S
C1496 C1497 1.377 . S
C1496 C1498 1.384 . S
C1497 C1496 1.377 . S
C1497 C1503 1.390 . S
C1498 H1489 0.930 . S
C1498 C1496 1.384 . S
C1498 C1499 1.372 . S
C1499 C1498 1.372 . S
C1499 C1500 1.400 . S
C1499 C1504 1.490 . S
C1500 H1490 0.930 . S
C1500 C1499 1.400 . S
C1500 C1503 1.386 . S
H1501 C1517 0.930 . S
H1502 C1518 0.931 . S
C1503 H1491 0.929 . S
C1503 C1497 1.390 . S
C1503 C1500 1.386 . S
C1504 C1499 1.490 . S
C1504 C1506 1.395 . S
C1504 C1507 1.403 . S
H1505 C1511 0.930 . S
C1506 H1492 0.930 . S
C1506 C1504 1.395 . S
C1506 C1509 1.403 . S
C1507 C1504 1.403 . S
C1507 C1508 1.524 . S
C1507 C1511 1.400 . S
C1508 H1493 0.960 . S
C1508 H1494 0.960 . S
C1508 H1495 0.960 . S
C1508 C1507 1.524 . S
C1509 C1506 1.403 . S
C1509 C1510 1.392 . S
C1509 C1513 1.495 . S
C1510 C1509 1.392 . S
C1510 C1511 1.385 . S
C1510 C1512 1.478 . S
C1511 H1505 0.930 . S
C1511 C1507 1.400 . S
C1511 C1510 1.385 . S
C1512 C1510 1.478 . S
C1512 C1514 1.381 . S
C1512 C1518 1.383 . S
C1513 C1509 1.495 . S
C1513 H1519 0.959 . S
C1513 H1520 0.961 . S
C1513 H1521 0.960 . S
C1514 C1512 1.381 . S
C1514 C1515 1.394 . S
C1514 H1522 0.930 . S
C1515 C1514 1.394 . S
C1515 C1516 1.383 . S
C1515 H1523 0.929 . S
C1516 C1515 1.383 . S
C1516 C1517 1.377 . S
C1517 H1501 0.930 . S
C1517 C1516 1.377 . S
C1517 C1518 1.379 . S
C1518 H1502 0.931 . S
C1518 C1512 1.383 . S
C1518 C1517 1.379 . S
H1519 C1513 0.959 . S
H1520 C1513 0.961 . S
H1521 C1513 0.960 . S
H1522 C1514 0.930 . S
H1523 C1515 0.929 . S
H1524 C1532 0.929 . S
H1525 C1534 0.930 . S
H1526 C1536 0.930 . S
H1527 C1539 0.929 1_545 S
H1528 C1542 0.930 . S
H1529 C1544 0.960 . S
H1530 C1544 0.960 . S
H1531 C1544 0.960 . S
C1532 H1524 0.929 . S
C1532 C1533 1.377 . S
C1532 C1534 1.384 . S
C1533 C1532 1.377 . S
C1533 C1539 1.390 . S
C1534 H1525 0.930 . S
C1534 C1532 1.384 . S
C1534 C1535 1.372 . S
C1535 C1534 1.372 . S
C1535 C1536 1.400 . S
C1535 C1540 1.490 . S
C1536 H1526 0.930 . S
C1536 C1535 1.400 . S
C1536 C1539 1.386 . S
H1537 C1553 0.930 . S
H1538 C1554 0.931 . S
C1539 H1527 0.929 1_565 S
C1539 C1533 1.390 . S
C1539 C1536 1.386 . S
C1540 C1535 1.490 . S
C1540 C1542 1.395 . S
C1540 C1543 1.403 . S
H1541 C1547 0.930 . S
C1542 H1528 0.930 . S
C1542 C1540 1.395 . S
C1542 C1545 1.403 . S
C1543 C1540 1.403 . S
C1543 C1544 1.524 . S
C1543 C1547 1.400 . S
C1544 H1529 0.960 . S
C1544 H1530 0.960 . S
C1544 H1531 0.960 . S
C1544 C1543 1.524 . S
C1545 C1542 1.403 . S
C1545 C1546 1.392 . S
C1545 C1549 1.495 . S
C1546 C1545 1.392 . S
C1546 C1547 1.385 . S
C1546 C1548 1.478 . S
C1547 H1541 0.930 . S
C1547 C1543 1.400 . S
C1547 C1546 1.385 . S
C1548 C1546 1.478 . S
C1548 C1550 1.381 . S
C1548 C1554 1.383 . S
C1549 C1545 1.495 . S
C1549 H1555 0.959 . S
C1549 H1556 0.961 . S
C1549 H1557 0.960 . S
C1550 C1548 1.381 . S
C1550 C1551 1.394 . S
C1550 H1558 0.930 . S
C1551 C1550 1.394 . S
C1551 C1552 1.383 . S
C1551 H1559 0.929 . S
C1552 C1551 1.383 . S
C1552 C1553 1.377 . S
C1553 H1537 0.930 . S
C1553 C1552 1.377 . S
C1553 C1554 1.379 . S
C1554 H1538 0.931 . S
C1554 C1548 1.383 . S
C1554 C1553 1.379 . S
H1555 C1549 0.959 . S
H1556 C1549 0.961 . S
H1557 C1549 0.960 . S
H1558 C1550 0.930 . S
H1559 C1551 0.929 . S
H1560 C1568 0.929 . S
H1561 C1570 0.930 . S
H1562 C1572 0.930 . S
H1563 C1575 0.929 . S
H1564 C1578 0.930 . S
H1565 C1580 0.960 . S
H1566 C1580 0.960 . S
H1567 C1580 0.960 . S
C1568 H1560 0.929 . S
C1568 C1569 1.377 . S
C1568 C1570 1.384 . S
C1569 C1568 1.377 . S
C1569 C1575 1.390 . S
C1570 H1561 0.930 . S
C1570 C1568 1.384 . S
C1570 C1571 1.372 . S
C1571 C1570 1.372 . S
C1571 C1572 1.400 . S
C1571 C1576 1.490 . S
C1572 H1562 0.930 . S
C1572 C1571 1.400 . S
C1572 C1575 1.386 . S
H1573 C1589 0.930 . S
H1574 C1590 0.931 . S
C1575 H1563 0.929 . S
C1575 C1569 1.390 . S
C1575 C1572 1.386 . S
C1576 C1571 1.490 . S
C1576 C1578 1.395 . S
C1576 C1579 1.403 . S
H1577 C1583 0.930 . S
C1578 H1564 0.930 . S
C1578 C1576 1.395 . S
C1578 C1581 1.403 . S
C1579 C1576 1.403 . S
C1579 C1580 1.524 . S
C1579 C1583 1.400 . S
C1580 H1565 0.960 . S
C1580 H1566 0.960 . S
C1580 H1567 0.960 . S
C1580 C1579 1.524 . S
C1581 C1578 1.403 . S
C1581 C1582 1.392 . S
C1581 C1585 1.495 . S
C1582 C1581 1.392 . S
C1582 C1583 1.385 . S
C1582 C1584 1.478 . S
C1583 H1577 0.930 . S
C1583 C1579 1.400 . S
C1583 C1582 1.385 . S
C1584 C1582 1.478 . S
C1584 C1586 1.381 . S
C1584 C1590 1.383 . S
C1585 C1581 1.495 . S
C1585 H1591 0.959 . S
C1585 H1592 0.961 . S
C1585 H1593 0.960 . S
C1586 C1584 1.381 . S
C1586 C1587 1.394 . S
C1586 H1594 0.930 . S
C1587 C1586 1.394 . S
C1587 C1588 1.383 . S
C1587 H1595 0.929 . S
C1588 C1587 1.383 . S
C1588 C1589 1.377 . S
C1589 H1573 0.930 . S
C1589 C1588 1.377 . S
C1589 C1590 1.379 . S
C1590 H1574 0.931 . S
C1590 C1584 1.383 . S
C1590 C1589 1.379 . S
H1591 C1585 0.959 . S
H1592 C1585 0.961 . S
H1593 C1585 0.960 . S
H1594 C1586 0.930 . S
H1595 C1587 0.929 . S
H1596 C1604 0.929 . S
H1597 C1606 0.930 . S
H1598 C1608 0.930 . S
H1599 C1611 0.929 . S
H1600 C1614 0.930 . S
H1601 C1616 0.960 . S
H1602 C1616 0.960 . S
H1603 C1616 0.960 . S
C1604 H1596 0.929 . S
C1604 C1605 1.377 . S
C1604 C1606 1.384 . S
C1605 C1604 1.377 . S
C1605 C1611 1.390 . S
C1606 H1597 0.930 . S
C1606 C1604 1.384 . S
C1606 C1607 1.372 . S
C1607 C1606 1.372 . S
C1607 C1608 1.400 . S
C1607 C1612 1.490 . S
C1608 H1598 0.930 . S
C1608 C1607 1.400 . S
C1608 C1611 1.386 . S
H1609 C1625 0.930 . S
H1610 C1626 0.931 . S
C1611 H1599 0.929 . S
C1611 C1605 1.390 . S
C1611 C1608 1.386 . S
C1612 C1607 1.490 . S
C1612 C1614 1.395 . S
C1612 C1615 1.403 . S
H1613 C1619 0.930 . S
C1614 H1600 0.930 . S
C1614 C1612 1.395 . S
C1614 C1617 1.403 . S
C1615 C1612 1.403 . S
C1615 C1616 1.524 . S
C1615 C1619 1.400 . S
C1616 H1601 0.960 . S
C1616 H1602 0.960 . S
C1616 H1603 0.960 . S
C1616 C1615 1.524 . S
C1617 C1614 1.403 . S
C1617 C1618 1.392 . S
C1617 C1621 1.495 . S
C1618 C1617 1.392 . S
C1618 C1619 1.385 . S
C1618 C1620 1.478 . S
C1619 H1613 0.930 . S
C1619 C1615 1.400 . S
C1619 C1618 1.385 . S
C1620 C1618 1.478 . S
C1620 C1622 1.381 . S
C1620 C1626 1.383 . S
C1621 C1617 1.495 . S
C1621 H1627 0.959 . S
C1621 H1628 0.961 . S
C1621 H1629 0.960 . S
C1622 C1620 1.381 . S
C1622 C1623 1.394 . S
C1622 H1630 0.930 . S
C1623 C1622 1.394 . S
C1623 C1624 1.383 . S
C1623 H1631 0.929 . S
C1624 C1623 1.383 . S
C1624 C1625 1.377 . S
C1625 H1609 0.930 . S
C1625 C1624 1.377 . S
C1625 C1626 1.379 . S
C1626 H1610 0.931 . S
C1626 C1620 1.383 . S
C1626 C1625 1.379 . S
H1627 C1621 0.959 . S
H1628 C1621 0.961 . S
H1629 C1621 0.960 . S
H1630 C1622 0.930 . S
H1631 C1623 0.929 . S
H1632 C1640 0.929 . S
H1633 C1642 0.930 . S
H1634 C1644 0.926 1_554 S
H1635 C1647 0.929 1_554 S
H1636 C1650 0.930 . S
H1637 C1652 0.960 . S
H1638 C1652 0.960 . S
H1639 C1652 0.960 . S
C1640 H1632 0.929 . S
C1640 C1641 1.377 . S
C1640 C1642 1.384 . S
C1641 C1640 1.377 . S
C1641 C1647 1.390 . S
C1642 H1633 0.930 . S
C1642 C1640 1.384 . S
C1642 C1643 1.372 . S
C1643 C1642 1.372 . S
C1643 C1644 1.402 . S
C1643 C1648 1.490 . S
C1644 H1634 0.926 1_556 S
C1644 C1643 1.402 . S
C1644 C1647 1.387 . S
H1645 C1661 0.930 . S
H1646 C1662 0.931 . S
C1647 H1635 0.929 1_556 S
C1647 C1641 1.390 . S
C1647 C1644 1.387 . S
C1648 C1643 1.490 . S
C1648 C1650 1.395 . S
C1648 C1651 1.403 . S
H1649 C1655 0.930 . S
C1650 H1636 0.930 . S
C1650 C1648 1.395 . S
C1650 C1653 1.403 1_556 S
C1651 C1648 1.403 . S
C1651 C1652 1.524 . S
C1651 C1655 1.400 . S
C1652 H1637 0.960 . S
C1652 H1638 0.960 . S
C1652 H1639 0.960 . S
C1652 C1651 1.524 . S
C1653 C1650 1.403 1_554 S
C1653 C1654 1.392 . S
C1653 C1657 1.495 . S
C1654 C1653 1.392 . S
C1654 C1655 1.385 1_554 S
C1654 C1656 1.478 . S
C1655 H1649 0.930 . S
C1655 C1651 1.400 . S
C1655 C1654 1.385 1_556 S
C1656 C1654 1.478 . S
C1656 C1658 1.381 1_554 S
C1656 C1662 1.383 . S
C1657 C1653 1.495 . S
C1657 H1663 0.959 . S
C1657 H1664 0.961 . S
C1657 H1665 0.995 . S
C1658 C1656 1.381 1_556 S
C1658 C1659 1.394 1_556 S
C1658 H1666 0.930 . S
C1659 C1658 1.394 1_554 S
C1659 C1660 1.383 . S
C1659 H1667 0.929 1_554 S
C1660 C1659 1.383 . S
C1660 C1661 1.377 . S
C1661 H1645 0.930 . S
C1661 C1660 1.377 . S
C1661 C1662 1.379 . S
C1662 H1646 0.931 . S
C1662 C1656 1.383 . S
C1662 C1661 1.379 . S
H1663 C1657 0.959 . S
H1664 C1657 0.961 . S
H1665 C1657 0.995 . S
H1666 C1658 0.930 . S
H1667 C1659 0.929 1_556 S
H1668 C1676 0.929 . S
H1669 C1678 0.930 . S
H1670 C1680 0.930 . S
H1671 C1683 0.929 . S
H1672 C1686 0.930 . S
H1673 C1688 0.960 . S
H1674 C1688 0.960 . S
H1675 C1688 0.960 . S
C1676 H1668 0.929 . S
C1676 C1677 1.377 . S
C1676 C1678 1.384 . S
C1677 C1676 1.377 . S
C1677 C1683 1.390 . S
C1678 H1669 0.930 . S
C1678 C1676 1.384 . S
C1678 C1679 1.372 . S
C1679 C1678 1.372 . S
C1679 C1680 1.400 . S
C1679 C1684 1.490 . S
C1680 H1670 0.930 . S
C1680 C1679 1.400 . S
C1680 C1683 1.386 . S
H1681 C1697 0.930 . S
H1682 C1698 0.931 . S
C1683 H1671 0.929 . S
C1683 C1677 1.390 . S
C1683 C1680 1.386 . S
C1684 C1679 1.490 . S
C1684 C1686 1.395 . S
C1684 C1687 1.403 . S
H1685 C1691 0.930 . S
C1686 H1672 0.930 . S
C1686 C1684 1.395 . S
C1686 C1689 1.403 . S
C1687 C1684 1.403 . S
C1687 C1688 1.524 . S
C1687 C1691 1.400 . S
C1688 H1673 0.960 . S
C1688 H1674 0.960 . S
C1688 H1675 0.960 . S
C1688 C1687 1.524 . S
C1689 C1686 1.403 . S
C1689 C1690 1.392 . S
C1689 C1693 1.495 . S
C1690 C1689 1.392 . S
C1690 C1691 1.385 . S
C1690 C1692 1.478 . S
C1691 H1685 0.930 . S
C1691 C1687 1.400 . S
C1691 C1690 1.385 . S
C1692 C1690 1.478 . S
C1692 C1694 1.381 . S
C1692 C1698 1.383 . S
C1693 C1689 1.495 . S
C1693 H1699 0.959 . S
C1693 H1700 0.961 . S
C1693 H1701 0.960 . S
C1694 C1692 1.381 . S
C1694 C1695 1.394 . S
C1694 H1702 0.930 . S
C1695 C1694 1.394 . S
C1695 C1696 1.383 . S
C1695 H1703 0.929 . S
C1696 C1695 1.383 . S
C1696 C1697 1.377 . S
C1697 H1681 0.930 . S
C1697 C1696 1.377 . S
C1697 C1698 1.379 . S
C1698 H1682 0.931 . S
C1698 C1692 1.383 . S
C1698 C1697 1.379 . S
H1699 C1693 0.959 . S
H1700 C1693 0.961 . S
H1701 C1693 0.960 . S
H1702 C1694 0.930 . S
H1703 C1695 0.929 . S
H1704 C1712 0.929 . S
H1705 C1714 0.930 . S
H1706 C1716 0.930 . S
H1707 C1719 0.929 . S
H1708 C1722 0.930 . S
H1709 C1724 0.960 . S
H1710 C1724 0.960 . S
H1711 C1724 0.960 . S
C1712 H1704 0.929 . S
C1712 C1713 1.377 . S
C1712 C1714 1.384 . S
C1713 C1712 1.377 . S
C1713 C1719 1.390 . S
C1714 H1705 0.930 . S
C1714 C1712 1.384 . S
C1714 C1715 1.372 . S
C1715 C1714 1.372 . S
C1715 C1716 1.400 . S
C1715 C1720 1.490 . S
C1716 H1706 0.930 . S
C1716 C1715 1.400 . S
C1716 C1719 1.386 . S
H1717 C1733 0.930 . S
H1718 C1734 0.931 . S
C1719 H1707 0.929 . S
C1719 C1713 1.390 . S
C1719 C1716 1.386 . S
C1720 C1715 1.490 . S
C1720 C1722 1.395 . S
C1720 C1723 1.403 . S
H1721 C1727 0.930 . S
C1722 H1708 0.930 . S
C1722 C1720 1.395 . S
C1722 C1725 1.403 . S
C1723 C1720 1.403 . S
C1723 C1724 1.524 . S
C1723 C1727 1.400 . S
C1724 H1709 0.960 . S
C1724 H1710 0.960 . S
C1724 H1711 0.960 . S
C1724 C1723 1.524 . S
C1725 C1722 1.403 . S
C1725 C1726 1.392 . S
C1725 C1729 1.495 . S
C1726 C1725 1.392 . S
C1726 C1727 1.385 . S
C1726 C1728 1.478 . S
C1727 H1721 0.930 . S
C1727 C1723 1.400 . S
C1727 C1726 1.385 . S
C1728 C1726 1.478 . S
C1728 C1730 1.381 . S
C1728 C1734 1.383 . S
C1729 C1725 1.495 . S
C1729 H1735 0.959 . S
C1729 H1736 0.961 . S
C1729 H1737 0.960 . S
C1730 C1728 1.381 . S
C1730 C1731 1.394 . S
C1730 H1738 0.930 . S
C1731 C1730 1.394 . S
C1731 C1732 1.383 . S
C1731 H1739 0.929 . S
C1732 C1731 1.383 . S
C1732 C1733 1.377 . S
C1733 H1717 0.930 . S
C1733 C1732 1.377 . S
C1733 C1734 1.379 . S
C1734 H1718 0.931 . S
C1734 C1728 1.383 . S
C1734 C1733 1.379 . S
H1735 C1729 0.959 . S
H1736 C1729 0.961 . S
H1737 C1729 0.960 . S
H1738 C1730 0.930 . S
H1739 C1731 0.929 . S
H1740 C1748 0.929 . S
H1741 C1750 0.930 . S
H1742 C1752 0.930 . S
H1743 C1755 0.929 . S
H1744 C1758 0.930 . S
H1745 C1760 0.960 . S
H1746 C1760 0.960 . S
H1747 C1760 0.960 . S
C1748 H1740 0.929 . S
C1748 C1749 1.377 . S
C1748 C1750 1.384 . S
C1749 C1748 1.377 . S
C1749 C1755 1.390 . S
C1750 H1741 0.930 . S
C1750 C1748 1.384 . S
C1750 C1751 1.372 . S
C1751 C1750 1.372 . S
C1751 C1752 1.400 . S
C1751 C1756 1.490 . S
C1752 H1742 0.930 . S
C1752 C1751 1.400 . S
C1752 C1755 1.386 . S
H1753 C1769 0.930 . S
H1754 C1770 0.931 . S
C1755 H1743 0.929 . S
C1755 C1749 1.390 . S
C1755 C1752 1.386 . S
C1756 C1751 1.490 . S
C1756 C1758 1.395 . S
C1756 C1759 1.403 . S
H1757 C1763 0.930 . S
C1758 H1744 0.930 . S
C1758 C1756 1.395 . S
C1758 C1761 1.403 . S
C1759 C1756 1.403 . S
C1759 C1760 1.524 . S
C1759 C1763 1.400 . S
C1760 H1745 0.960 . S
C1760 H1746 0.960 . S
C1760 H1747 0.960 . S
C1760 C1759 1.524 . S
C1761 C1758 1.403 . S
C1761 C1762 1.392 . S
C1761 C1765 1.495 . S
C1762 C1761 1.392 . S
C1762 C1763 1.385 . S
C1762 C1764 1.478 . S
C1763 H1757 0.930 . S
C1763 C1759 1.400 . S
C1763 C1762 1.385 . S
C1764 C1762 1.478 . S
C1764 C1766 1.381 . S
C1764 C1770 1.383 . S
C1765 C1761 1.495 . S
C1765 H1771 0.959 . S
C1765 H1772 0.961 . S
C1765 H1773 0.960 . S
C1766 C1764 1.381 . S
C1766 C1767 1.394 . S
C1766 H1774 0.930 . S
C1767 C1766 1.394 . S
C1767 C1768 1.383 . S
C1767 H1775 0.929 . S
C1768 C1767 1.383 . S
C1768 C1769 1.377 . S
C1769 H1753 0.930 . S
C1769 C1768 1.377 . S
C1769 C1770 1.379 . S
C1770 H1754 0.931 . S
C1770 C1764 1.383 . S
C1770 C1769 1.379 . S
H1771 C1765 0.959 . S
H1772 C1765 0.961 . S
H1773 C1765 0.960 . S
H1774 C1766 0.930 . S
H1775 C1767 0.929 . S
H1776 C1784 0.929 . S
H1777 C1786 0.930 . S
H1778 C1788 0.930 . S
H1779 C1791 0.929 . S
H1780 C1794 0.930 . S
H1781 C1796 0.960 . S
H1782 C1796 0.960 . S
H1783 C1796 0.960 . S
C1784 H1776 0.929 . S
C1784 C1785 1.377 . S
C1784 C1786 1.384 . S
C1785 C1784 1.377 . S
C1785 C1791 1.390 . S
C1786 H1777 0.930 . S
C1786 C1784 1.384 . S
C1786 C1787 1.372 . S
C1787 C1786 1.372 . S
C1787 C1788 1.400 . S
C1787 C1792 1.490 . S
C1788 H1778 0.930 . S
C1788 C1787 1.400 . S
C1788 C1791 1.386 . S
H1789 C1805 0.930 . S
H1790 C1806 0.931 . S
C1791 H1779 0.929 . S
C1791 C1785 1.390 . S
C1791 C1788 1.386 . S
C1792 C1787 1.490 . S
C1792 C1794 1.395 . S
C1792 C1795 1.403 . S
H1793 C1799 0.930 . S
C1794 H1780 0.930 . S
C1794 C1792 1.395 . S
C1794 C1797 1.403 . S
C1795 C1792 1.403 . S
C1795 C1796 1.524 . S
C1795 C1799 1.400 . S
C1796 H1781 0.960 . S
C1796 H1782 0.960 . S
C1796 H1783 0.960 . S
C1796 C1795 1.524 . S
C1797 C1794 1.403 . S
C1797 C1798 1.392 . S
C1797 C1801 1.495 . S
C1798 C1797 1.392 . S
C1798 C1799 1.385 . S
C1798 C1800 1.478 . S
C1799 H1793 0.930 . S
C1799 C1795 1.400 . S
C1799 C1798 1.385 . S
C1800 C1798 1.478 . S
C1800 C1802 1.381 . S
C1800 C1806 1.383 . S
C1801 C1797 1.495 . S
C1801 H1807 0.959 . S
C1801 H1808 0.961 . S
C1801 H1809 0.960 . S
C1802 C1800 1.381 . S
C1802 C1803 1.394 . S
C1802 H1810 0.930 . S
C1803 C1802 1.394 . S
C1803 C1804 1.383 . S
C1803 H1811 0.929 . S
C1804 C1803 1.383 . S
C1804 C1805 1.377 . S
C1805 H1789 0.930 . S
C1805 C1804 1.377 . S
C1805 C1806 1.379 . S
C1806 H1790 0.931 . S
C1806 C1800 1.383 . S
C1806 C1805 1.379 . S
H1807 C1801 0.959 . S
H1808 C1801 0.961 . S
H1809 C1801 0.960 . S
H1810 C1802 0.930 . S
H1811 C1803 0.929 . S
H1812 C1820 0.929 . S
H1813 C1822 0.930 . S
H1814 C1824 0.930 . S
H1815 C1827 0.929 . S
H1816 C1830 0.930 . S
H1817 C1832 0.960 . S
H1818 C1832 0.931 1_556 S
H1819 C1832 0.999 . S
C1820 H1812 0.929 . S
C1820 C1821 1.377 1_556 S
C1820 C1822 1.384 . S
C1821 C1820 1.377 1_554 S
C1821 C1827 1.390 . S
C1822 H1813 0.930 . S
C1822 C1820 1.384 . S
C1822 C1823 1.414 . S
C1823 C1822 1.414 . S
C1823 C1824 1.346 1_556 S
C1823 C1828 1.503 . S
C1824 H1814 0.930 . S
C1824 C1823 1.346 1_554 S
C1824 C1827 1.386 . S
H1825 C1841 0.930 1_554 S
H1826 C1842 0.931 1_554 S
C1827 H1815 0.929 . S
C1827 C1821 1.390 . S
C1827 C1824 1.386 . S
C1828 C1823 1.503 . S
C1828 C1830 1.395 . S
C1828 C1831 1.403 . S
H1829 C1835 0.930 . S
C1830 H1816 0.930 . S
C1830 C1828 1.395 . S
C1830 C1833 1.403 . S
C1831 C1828 1.403 . S
C1831 C1832 1.515 1_556 S
C1831 C1835 1.400 . S
C1832 H1817 0.960 . S
C1832 H1818 0.931 1_554 S
C1832 H1819 0.999 . S
C1832 C1831 1.515 1_554 S
C1833 C1830 1.403 . S
C1833 C1834 1.392 . S
C1833 C1837 1.495 . S
C1834 C1833 1.392 . S
C1834 C1835 1.385 . S
C1834 C1836 1.478 . S
C1835 H1829 0.930 . S
C1835 C1831 1.400 . S
C1835 C1834 1.385 . S
C1836 C1834 1.478 . S
C1836 C1838 1.381 . S
C1836 C1842 1.383 . S
C1837 C1833 1.495 . S
C1837 H1843 0.959 . S
C1837 H1844 0.961 . S
C1837 H1845 0.960 . S
C1838 C1836 1.381 . S
C1838 C1839 1.394 . S
C1838 H1846 0.930 . S
C1839 C1838 1.394 . S
C1839 C1840 1.383 . S
C1839 H1847 0.929 . S
C1840 C1839 1.383 . S
C1840 C1841 1.377 . S
C1841 H1825 0.930 1_556 S
C1841 C1840 1.377 . S
C1841 C1842 1.379 . S
C1842 H1826 0.931 1_556 S
C1842 C1836 1.383 . S
C1842 C1841 1.379 . S
H1843 C1837 0.959 . S
H1844 C1837 0.961 . S
H1845 C1837 0.960 . S
H1846 C1838 0.930 . S
H1847 C1839 0.929 . S
H1848 C1856 0.929 . S
H1849 C1858 0.930 . S
H1850 C1860 0.930 . S
H1851 C1863 0.929 . S
H1852 C1866 0.930 . S
H1853 C1868 0.960 . S
H1854 C1868 0.960 . S
H1855 C1868 0.960 . S
C1856 H1848 0.929 . S
C1856 C1857 1.377 . S
C1856 C1858 1.384 . S
C1857 C1856 1.377 . S
C1857 C1863 1.390 . S
C1858 H1849 0.930 . S
C1858 C1856 1.384 . S
C1858 C1859 1.372 . S
C1859 C1858 1.372 . S
C1859 C1860 1.400 . S
C1859 C1864 1.490 . S
C1860 H1850 0.930 . S
C1860 C1859 1.400 . S
C1860 C1863 1.386 . S
H1861 C1877 0.930 . S
H1862 C1878 0.931 . S
C1863 H1851 0.929 . S
C1863 C1857 1.390 . S
C1863 C1860 1.386 . S
C1864 C1859 1.490 . S
C1864 C1866 1.395 . S
C1864 C1867 1.403 . S
H1865 C1871 0.930 . S
C1866 H1852 0.930 . S
C1866 C1864 1.395 . S
C1866 C1869 1.403 . S
C1867 C1864 1.403 . S
C1867 C1868 1.524 . S
C1867 C1871 1.400 . S
C1868 H1853 0.960 . S
C1868 H1854 0.960 . S
C1868 H1855 0.960 . S
C1868 C1867 1.524 . S
C1869 C1866 1.403 . S
C1869 C1870 1.392 . S
C1869 C1873 1.495 . S
C1870 C1869 1.392 . S
C1870 C1871 1.385 . S
C1870 C1872 1.478 . S
C1871 H1865 0.930 . S
C1871 C1867 1.400 . S
C1871 C1870 1.385 . S
C1872 C1870 1.478 . S
C1872 C1874 1.381 . S
C1872 C1878 1.383 . S
C1873 C1869 1.495 . S
C1873 H1879 0.959 . S
C1873 H1880 0.961 . S
C1873 H1881 0.960 . S
C1874 C1872 1.381 . S
C1874 C1875 1.394 . S
C1874 H1882 0.930 . S
C1875 C1874 1.394 . S
C1875 C1876 1.383 . S
C1875 H1883 0.929 . S
C1876 C1875 1.383 . S
C1876 C1877 1.377 . S
C1877 H1861 0.930 . S
C1877 C1876 1.377 . S
C1877 C1878 1.379 . S
C1878 H1862 0.931 . S
C1878 C1872 1.383 . S
C1878 C1877 1.379 . S
H1879 C1873 0.959 . S
H1880 C1873 0.961 . S
H1881 C1873 0.960 . S
H1882 C1874 0.930 . S
H1883 C1875 0.929 . S
H1884 C1892 0.929 . S
H1885 C1894 0.930 . S
H1886 C1896 0.930 . S
H1887 C1899 0.929 . S
H1888 C1902 0.930 . S
H1889 C1904 0.960 . S
H1890 C1904 0.960 . S
H1891 C1904 0.960 . S
C1892 H1884 0.929 . S
C1892 C1893 1.377 . S
C1892 C1894 1.384 . S
C1893 C1892 1.377 . S
C1893 C1899 1.390 . S
C1894 H1885 0.930 . S
C1894 C1892 1.384 . S
C1894 C1895 1.372 . S
C1895 C1894 1.372 . S
C1895 C1896 1.400 . S
C1895 C1900 1.490 . S
C1896 H1886 0.930 . S
C1896 C1895 1.400 . S
C1896 C1899 1.386 . S
H1897 C1913 0.930 . S
H1898 C1914 0.931 . S
C1899 H1887 0.929 . S
C1899 C1893 1.390 . S
C1899 C1896 1.386 . S
C1900 C1895 1.490 . S
C1900 C1902 1.395 . S
C1900 C1903 1.403 . S
H1901 C1907 0.930 . S
C1902 H1888 0.930 . S
C1902 C1900 1.395 . S
C1902 C1905 1.403 . S
C1903 C1900 1.403 . S
C1903 C1904 1.524 . S
C1903 C1907 1.400 . S
C1904 H1889 0.960 . S
C1904 H1890 0.960 . S
C1904 H1891 0.960 . S
C1904 C1903 1.524 . S
C1905 C1902 1.403 . S
C1905 C1906 1.392 . S
C1905 C1909 1.495 . S
C1906 C1905 1.392 . S
C1906 C1907 1.385 . S
C1906 C1908 1.478 . S
C1907 H1901 0.930 . S
C1907 C1903 1.400 . S
C1907 C1906 1.385 . S
C1908 C1906 1.478 . S
C1908 C1910 1.381 . S
C1908 C1914 1.383 . S
C1909 C1905 1.495 . S
C1909 H1915 0.959 . S
C1909 H1916 0.961 . S
C1909 H1917 0.960 . S
C1910 C1908 1.381 . S
C1910 C1911 1.394 . S
C1910 H1918 0.930 . S
C1911 C1910 1.394 . S
C1911 C1912 1.383 . S
C1911 H1919 0.929 . S
C1912 C1911 1.383 . S
C1912 C1913 1.377 . S
C1913 H1897 0.930 . S
C1913 C1912 1.377 . S
C1913 C1914 1.379 . S
C1914 H1898 0.931 . S
C1914 C1908 1.383 . S
C1914 C1913 1.379 . S
H1915 C1909 0.959 . S
H1916 C1909 0.961 . S
H1917 C1909 0.960 . S
H1918 C1910 0.930 . S
H1919 C1911 0.929 . S
H1920 C1928 0.929 . S
H1921 C1930 0.930 . S
H1922 C1932 0.930 . S
H1923 C1935 0.929 . S
H1924 C1938 0.930 . S
H1925 C1940 0.960 . S
H1926 C1940 0.960 . S
H1927 C1940 0.960 . S
C1928 H1920 0.929 . S
C1928 C1929 1.377 . S
C1928 C1930 1.384 . S
C1929 C1928 1.377 . S
C1929 C1935 1.390 . S
C1930 H1921 0.930 . S
C1930 C1928 1.384 . S
C1930 C1931 1.372 . S
C1931 C1930 1.372 . S
C1931 C1932 1.400 . S
C1931 C1936 1.490 . S
C1932 H1922 0.930 . S
C1932 C1931 1.400 . S
C1932 C1935 1.386 . S
H1933 C1949 0.930 . S
H1934 C1950 0.931 . S
C1935 H1923 0.929 . S
C1935 C1929 1.390 . S
C1935 C1932 1.386 . S
C1936 C1931 1.490 . S
C1936 C1938 1.395 . S
C1936 C1939 1.403 . S
H1937 C1943 0.930 . S
C1938 H1924 0.930 . S
C1938 C1936 1.395 . S
C1938 C1941 1.403 . S
C1939 C1936 1.403 . S
C1939 C1940 1.524 . S
C1939 C1943 1.400 . S
C1940 H1925 0.960 . S
C1940 H1926 0.960 . S
C1940 H1927 0.960 . S
C1940 C1939 1.524 . S
C1941 C1938 1.403 . S
C1941 C1942 1.392 . S
C1941 C1945 1.495 . S
C1942 C1941 1.392 . S
C1942 C1943 1.385 . S
C1942 C1944 1.478 . S
C1943 H1937 0.930 . S
C1943 C1939 1.400 . S
C1943 C1942 1.385 . S
C1944 C1942 1.478 . S
C1944 C1946 1.381 . S
C1944 C1950 1.383 . S
C1945 C1941 1.495 . S
C1945 H1951 0.959 . S
C1945 H1952 0.961 . S
C1945 H1953 0.960 . S
C1946 C1944 1.381 . S
C1946 C1947 1.394 . S
C1946 H1954 0.930 . S
C1947 C1946 1.394 . S
C1947 C1948 1.383 . S
C1947 H1955 0.929 . S
C1948 C1947 1.383 . S
C1948 C1949 1.377 . S
C1949 H1933 0.930 . S
C1949 C1948 1.377 . S
C1949 C1950 1.379 . S
C1950 H1934 0.931 . S
C1950 C1944 1.383 . S
C1950 C1949 1.379 . S
H1951 C1945 0.959 . S
H1952 C1945 0.961 . S
H1953 C1945 0.960 . S
H1954 C1946 0.930 . S
H1955 C1947 0.929 . S
H1956 C1964 0.929 . S
H1957 C1966 0.930 . S
H1958 C1968 0.930 . S
H1959 C1971 0.929 . S
H1960 C1974 0.930 . S
H1961 C1976 0.960 . S
H1962 C1976 0.960 . S
H1963 C1976 0.960 . S
C1964 H1956 0.929 . S
C1964 C1965 1.377 . S
C1964 C1966 1.384 . S
C1965 C1964 1.377 . S
C1965 C1971 1.390 . S
C1966 H1957 0.930 . S
C1966 C1964 1.384 . S
C1966 C1967 1.372 . S
C1967 C1966 1.372 . S
C1967 C1968 1.400 . S
C1967 C1972 1.490 . S
C1968 H1958 0.930 . S
C1968 C1967 1.400 . S
C1968 C1971 1.386 . S
H1969 C1985 0.930 . S
H1970 C1986 0.931 . S
C1971 H1959 0.929 . S
C1971 C1965 1.390 . S
C1971 C1968 1.386 . S
C1972 C1967 1.490 . S
C1972 C1974 1.395 . S
C1972 C1975 1.403 . S
H1973 C1979 0.930 . S
C1974 H1960 0.930 . S
C1974 C1972 1.395 . S
C1974 C1977 1.403 . S
C1975 C1972 1.403 . S
C1975 C1976 1.524 . S
C1975 C1979 1.400 . S
C1976 H1961 0.960 . S
C1976 H1962 0.960 . S
C1976 H1963 0.960 . S
C1976 C1975 1.524 . S
C1977 C1974 1.403 . S
C1977 C1978 1.392 . S
C1977 C1981 1.495 . S
C1978 C1977 1.392 . S
C1978 C1979 1.385 . S
C1978 C1980 1.478 . S
C1979 H1973 0.930 . S
C1979 C1975 1.400 . S
C1979 C1978 1.385 . S
C1980 C1978 1.478 . S
C1980 C1982 1.381 . S
C1980 C1986 1.383 . S
C1981 C1977 1.495 . S
C1981 H1987 0.959 . S
C1981 H1988 0.961 . S
C1981 H1989 0.960 . S
C1982 C1980 1.381 . S
C1982 C1983 1.394 . S
C1982 H1990 0.930 . S
C1983 C1982 1.394 . S
C1983 C1984 1.383 . S
C1983 H1991 0.929 . S
C1984 C1983 1.383 . S
C1984 C1985 1.377 . S
C1985 H1969 0.930 . S
C1985 C1984 1.377 . S
C1985 C1986 1.379 . S
C1986 H1970 0.931 . S
C1986 C1980 1.383 . S
C1986 C1985 1.379 . S
H1987 C1981 0.959 . S
H1988 C1981 0.961 . S
H1989 C1981 0.960 . S
H1990 C1982 0.930 . S
H1991 C1983 0.929 . S
H1992 C2000 0.929 . S
H1993 C2002 0.930 . S
H1994 C2004 0.930 1_556 S
H1995 C2007 0.919 1_556 S
H1996 C2010 0.930 . S
H1997 C2012 0.960 . S
H1998 C2012 0.960 . S
H1999 C2012 0.960 . S
C2000 H1992 0.929 . S
C2000 C2001 1.377 . S
C2000 C2002 1.384 . S
C2001 C2000 1.377 . S
C2001 C2007 1.390 . S
C2002 H1993 0.930 . S
C2002 C2000 1.384 . S
C2002 C2003 1.372 . S
C2003 C2002 1.372 . S
C2003 C2004 1.400 . S
C2003 C2008 1.490 . S
C2004 H1994 0.930 1_554 S
C2004 C2003 1.400 . S
C2004 C2007 1.386 . S
H2005 C2021 0.930 . S
H2006 C2022 0.931 . S
C2007 H1995 0.919 1_554 S
C2007 C2001 1.390 . S
C2007 C2004 1.386 . S
C2008 C2003 1.490 . S
C2008 C2010 1.395 . S
C2008 C2011 1.403 1_554 S
H2009 C2015 0.930 . S
C2010 H1996 0.930 . S
C2010 C2008 1.395 . S
C2010 C2013 1.403 . S
C2011 C2008 1.403 1_556 S
C2011 C2012 1.524 . S
C2011 C2015 1.400 . S
C2012 H1997 0.960 . S
C2012 H1998 0.960 . S
C2012 H1999 0.960 . S
C2012 C2011 1.524 . S
C2013 C2010 1.403 . S
C2013 C2014 1.423 . S
C2013 C2017 1.495 . S
C2014 C2013 1.423 . S
C2014 C2015 1.361 1_554 S
C2014 C2016 1.470 1_554 S
C2015 H2009 0.930 . S
C2015 C2011 1.400 . S
C2015 C2014 1.361 1_556 S
C2016 C2014 1.470 1_556 S
C2016 C2018 1.381 1_556 S
C2016 C2022 1.383 . S
C2017 C2013 1.495 . S
C2017 H2023 0.959 . S
C2017 H2024 0.961 . S
C2017 H2025 0.960 . S
C2018 C2016 1.381 1_554 S
C2018 C2019 1.394 1_554 S
C2018 H2026 0.930 . S
C2019 C2018 1.394 1_556 S
C2019 C2020 1.383 . S
C2019 H2027 0.929 1_556 S
C2020 C2019 1.383 . S
C2020 C2021 1.377 . S
C2021 H2005 0.930 . S
C2021 C2020 1.377 . S
C2021 C2022 1.379 . S
C2022 H2006 0.931 . S
C2022 C2016 1.383 . S
C2022 C2021 1.379 . S
H2023 C2017 0.959 . S
H2024 C2017 0.961 . S
H2025 C2017 0.960 . S
H2026 C2018 0.930 . S
H2027 C2019 0.929 1_554 S
H2028 C2036 0.929 . S
H2029 C2038 0.930 . S
H2030 C2040 0.930 . S
H2031 C2043 0.929 . S
H2032 C2046 0.930 . S
H2033 C2048 0.960 . S
H2034 C2048 0.960 . S
H2035 C2048 0.960 . S
C2036 H2028 0.929 . S
C2036 C2037 1.377 . S
C2036 C2038 1.384 . S
C2037 C2036 1.377 . S
C2037 C2043 1.390 . S
C2038 H2029 0.930 . S
C2038 C2036 1.384 . S
C2038 C2039 1.372 . S
C2039 C2038 1.372 . S
C2039 C2040 1.400 . S
C2039 C2044 1.490 . S
C2040 H2030 0.930 . S
C2040 C2039 1.400 . S
C2040 C2043 1.386 . S
H2041 C2057 0.930 . S
H2042 C2058 0.931 . S
C2043 H2031 0.929 . S
C2043 C2037 1.390 . S
C2043 C2040 1.386 . S
C2044 C2039 1.490 . S
C2044 C2046 1.395 . S
C2044 C2047 1.403 . S
H2045 C2051 0.930 . S
C2046 H2032 0.930 . S
C2046 C2044 1.395 . S
C2046 C2049 1.403 . S
C2047 C2044 1.403 . S
C2047 C2048 1.524 . S
C2047 C2051 1.400 . S
C2048 H2033 0.960 . S
C2048 H2034 0.960 . S
C2048 H2035 0.960 . S
C2048 C2047 1.524 . S
C2049 C2046 1.403 . S
C2049 C2050 1.392 . S
C2049 C2053 1.495 . S
C2050 C2049 1.392 . S
C2050 C2051 1.385 . S
C2050 C2052 1.478 . S
C2051 H2045 0.930 . S
C2051 C2047 1.400 . S
C2051 C2050 1.385 . S
C2052 C2050 1.478 . S
C2052 C2054 1.381 . S
C2052 C2058 1.383 . S
C2053 C2049 1.495 . S
C2053 H2059 0.959 . S
C2053 H2060 0.961 . S
C2053 H2061 0.960 . S
C2054 C2052 1.381 . S
C2054 C2055 1.394 . S
C2054 H2062 0.930 . S
C2055 C2054 1.394 . S
C2055 C2056 1.383 . S
C2055 H2063 0.929 . S
C2056 C2055 1.383 . S
C2056 C2057 1.377 . S
C2057 H2041 0.930 . S
C2057 C2056 1.377 . S
C2057 C2058 1.379 . S
C2058 H2042 0.931 . S
C2058 C2052 1.383 . S
C2058 C2057 1.379 . S
H2059 C2053 0.959 . S
H2060 C2053 0.961 . S
H2061 C2053 0.960 . S
H2062 C2054 0.930 . S
H2063 C2055 0.929 . S
H2064 C2072 0.929 . S
H2065 C2074 0.930 . S
H2066 C2076 0.930 . S
H2067 C2079 0.929 . S
H2068 C2082 0.930 . S
H2069 C2084 0.960 . S
H2070 C2084 0.960 . S
H2071 C2084 0.960 . S
C2072 H2064 0.929 . S
C2072 C2073 1.377 . S
C2072 C2074 1.384 . S
C2073 C2072 1.377 . S
C2073 C2079 1.390 . S
C2074 H2065 0.930 . S
C2074 C2072 1.384 . S
C2074 C2075 1.372 . S
C2075 C2074 1.372 . S
C2075 C2076 1.400 . S
C2075 C2080 1.490 . S
C2076 H2066 0.930 . S
C2076 C2075 1.400 . S
C2076 C2079 1.386 . S
H2077 C2093 0.930 . S
H2078 C2094 0.931 . S
C2079 H2067 0.929 . S
C2079 C2073 1.390 . S
C2079 C2076 1.386 . S
C2080 C2075 1.490 . S
C2080 C2082 1.395 . S
C2080 C2083 1.403 . S
H2081 C2087 0.930 . S
C2082 H2068 0.930 . S
C2082 C2080 1.395 . S
C2082 C2085 1.403 . S
C2083 C2080 1.403 . S
C2083 C2084 1.524 . S
C2083 C2087 1.400 . S
C2084 H2069 0.960 . S
C2084 H2070 0.960 . S
C2084 H2071 0.960 . S
C2084 C2083 1.524 . S
C2085 C2082 1.403 . S
C2085 C2086 1.392 . S
C2085 C2089 1.495 . S
C2086 C2085 1.392 . S
C2086 C2087 1.385 . S
C2086 C2088 1.478 . S
C2087 H2081 0.930 . S
C2087 C2083 1.400 . S
C2087 C2086 1.385 . S
C2088 C2086 1.478 . S
C2088 C2090 1.381 . S
C2088 C2094 1.383 . S
C2089 C2085 1.495 . S
C2089 H2095 0.959 . S
C2089 H2096 0.961 . S
C2089 H2097 0.960 . S
C2090 C2088 1.381 . S
C2090 C2091 1.394 . S
C2090 H2098 0.930 . S
C2091 C2090 1.394 . S
C2091 C2092 1.383 . S
C2091 H2099 0.929 . S
C2092 C2091 1.383 . S
C2092 C2093 1.377 . S
C2093 H2077 0.930 . S
C2093 C2092 1.377 . S
C2093 C2094 1.379 . S
C2094 H2078 0.931 . S
C2094 C2088 1.383 . S
C2094 C2093 1.379 . S
H2095 C2089 0.959 . S
H2096 C2089 0.961 . S
H2097 C2089 0.960 . S
H2098 C2090 0.930 . S
H2099 C2091 0.929 . S
H2100 C2108 0.929 . S
H2101 C2110 0.930 . S
H2102 C2112 0.930 . S
H2103 C2115 0.929 . S
H2104 C2118 0.930 . S
H2105 C2120 0.960 . S
H2106 C2120 0.960 . S
H2107 C2120 0.960 . S
C2108 H2100 0.929 . S
C2108 C2109 1.377 . S
C2108 C2110 1.384 . S
C2109 C2108 1.377 . S
C2109 C2115 1.390 . S
C2110 H2101 0.930 . S
C2110 C2108 1.384 . S
C2110 C2111 1.372 . S
C2111 C2110 1.372 . S
C2111 C2112 1.400 . S
C2111 C2116 1.490 . S
C2112 H2102 0.930 . S
C2112 C2111 1.400 . S
C2112 C2115 1.386 . S
H2113 C2129 0.930 . S
H2114 C2130 0.931 . S
C2115 H2103 0.929 . S
C2115 C2109 1.390 . S
C2115 C2112 1.386 . S
C2116 C2111 1.490 . S
C2116 C2118 1.395 . S
C2116 C2119 1.403 . S
H2117 C2123 0.930 . S
C2118 H2104 0.930 . S
C2118 C2116 1.395 . S
C2118 C2121 1.403 . S
C2119 C2116 1.403 . S
C2119 C2120 1.524 . S
C2119 C2123 1.400 . S
C2120 H2105 0.960 . S
C2120 H2106 0.960 . S
C2120 H2107 0.960 . S
C2120 C2119 1.524 . S
C2121 C2118 1.403 . S
C2121 C2122 1.392 . S
C2121 C2125 1.495 1_655 S
C2122 C2121 1.392 . S
C2122 C2123 1.385 . S
C2122 C2124 1.478 . S
C2123 H2117 0.930 . S
C2123 C2119 1.400 . S
C2123 C2122 1.385 . S
C2124 C2122 1.478 . S
C2124 C2126 1.381 . S
C2124 C2130 1.383 1_655 S
C2125 C2121 1.495 1_455 S
C2125 H2131 0.959 . S
C2125 H2132 0.961 . S
C2125 H2133 0.981 . S
C2126 C2124 1.381 . S
C2126 C2127 1.411 . S
C2126 H2134 0.930 . S
C2127 C2126 1.411 . S
C2127 C2128 1.353 1_655 S
C2127 H2135 0.946 . S
C2128 C2127 1.353 1_455 S
C2128 C2129 1.377 . S
C2129 H2113 0.930 . S
C2129 C2128 1.377 . S
C2129 C2130 1.379 . S
C2130 H2114 0.931 . S
C2130 C2124 1.383 1_455 S
C2130 C2129 1.379 . S
H2131 C2125 0.959 . S
H2132 C2125 0.961 . S
H2133 C2125 0.981 . S
H2134 C2126 0.930 . S
H2135 C2127 0.946 . S
H2136 C2144 0.929 . S
H2137 C2146 0.930 . S
H2138 C2148 0.930 . S
H2139 C2151 0.929 . S
H2140 C2154 0.930 . S
H2141 C2156 0.960 . S
H2142 C2156 0.960 . S
H2143 C2156 0.960 . S
C2144 H2136 0.929 . S
C2144 C2145 1.377 . S
C2144 C2146 1.384 . S
C2145 C2144 1.377 . S
C2145 C2151 1.390 . S
C2146 H2137 0.930 . S
C2146 C2144 1.384 . S
C2146 C2147 1.372 . S
C2147 C2146 1.372 . S
C2147 C2148 1.400 . S
C2147 C2152 1.490 . S
C2148 H2138 0.930 . S
C2148 C2147 1.400 . S
C2148 C2151 1.386 . S
H2149 C2165 0.930 . S
H2150 C2166 0.931 . S
C2151 H2139 0.929 . S
C2151 C2145 1.390 . S
C2151 C2148 1.386 . S
C2152 C2147 1.490 . S
C2152 C2154 1.395 . S
C2152 C2155 1.403 . S
H2153 C2159 0.930 . S
C2154 H2140 0.930 . S
C2154 C2152 1.395 . S
C2154 C2157 1.403 . S
C2155 C2152 1.403 . S
C2155 C2156 1.524 . S
C2155 C2159 1.400 . S
C2156 H2141 0.960 . S
C2156 H2142 0.960 . S
C2156 H2143 0.960 . S
C2156 C2155 1.524 . S
C2157 C2154 1.403 . S
C2157 C2158 1.392 . S
C2157 C2161 1.495 . S
C2158 C2157 1.392 . S
C2158 C2159 1.385 . S
C2158 C2160 1.478 . S
C2159 H2153 0.930 . S
C2159 C2155 1.400 . S
C2159 C2158 1.385 . S
C2160 C2158 1.478 . S
C2160 C2162 1.381 . S
C2160 C2166 1.383 . S
C2161 C2157 1.495 . S
C2161 H2167 0.959 . S
C2161 H2168 0.961 . S
C2161 H2169 0.960 . S
C2162 C2160 1.381 . S
C2162 C2163 1.394 . S
C2162 H2170 0.930 . S
C2163 C2162 1.394 . S
C2163 C2164 1.383 . S
C2163 H2171 0.929 . S
C2164 C2163 1.383 . S
C2164 C2165 1.377 . S
C2165 H2149 0.930 . S
C2165 C2164 1.377 . S
C2165 C2166 1.379 . S
C2166 H2150 0.931 . S
C2166 C2160 1.383 . S
C2166 C2165 1.379 . S
H2167 C2161 0.959 . S
H2168 C2161 0.961 . S
H2169 C2161 0.960 . S
H2170 C2162 0.930 . S
H2171 C2163 0.929 . S
H2172 C2180 0.929 . S
H2173 C2182 0.930 . S
H2174 C2184 0.930 . S
H2175 C2187 0.929 . S
H2176 C2190 0.930 . S
H2177 C2192 0.960 . S
H2178 C2192 0.960 . S
H2179 C2192 0.960 . S
C2180 H2172 0.929 . S
C2180 C2181 1.377 . S
C2180 C2182 1.384 . S
C2181 C2180 1.377 . S
C2181 C2187 1.390 . S
C2182 H2173 0.930 . S
C2182 C2180 1.384 . S
C2182 C2183 1.372 . S
C2183 C2182 1.372 . S
C2183 C2184 1.400 . S
C2183 C2188 1.490 . S
C2184 H2174 0.930 . S
C2184 C2183 1.400 . S
C2184 C2187 1.386 . S
H2185 C2201 0.930 . S
H2186 C2202 0.931 . S
C2187 H2175 0.929 . S
C2187 C2181 1.390 . S
C2187 C2184 1.386 . S
C2188 C2183 1.490 . S
C2188 C2190 1.395 . S
C2188 C2191 1.403 . S
H2189 C2195 0.930 . S
C2190 H2176 0.930 . S
C2190 C2188 1.395 . S
C2190 C2193 1.403 . S
C2191 C2188 1.403 . S
C2191 C2192 1.524 . S
C2191 C2195 1.400 . S
C2192 H2177 0.960 . S
C2192 H2178 0.960 . S
C2192 H2179 0.960 . S
C2192 C2191 1.524 . S
C2193 C2190 1.403 . S
C2193 C2194 1.392 . S
C2193 C2197 1.495 . S
C2194 C2193 1.392 . S
C2194 C2195 1.385 . S
C2194 C2196 1.478 . S
C2195 H2189 0.930 . S
C2195 C2191 1.400 . S
C2195 C2194 1.385 . S
C2196 C2194 1.478 . S
C2196 C2198 1.381 . S
C2196 C2202 1.383 . S
C2197 C2193 1.495 . S
C2197 H2203 0.959 . S
C2197 H2204 0.961 . S
C2197 H2205 0.960 . S
C2198 C2196 1.381 . S
C2198 C2199 1.394 . S
C2198 H2206 0.930 . S
C2199 C2198 1.394 . S
C2199 C2200 1.383 . S
C2199 H2207 0.929 . S
C2200 C2199 1.383 . S
C2200 C2201 1.377 . S
C2201 H2185 0.930 . S
C2201 C2200 1.377 . S
C2201 C2202 1.379 . S
C2202 H2186 0.931 . S
C2202 C2196 1.383 . S
C2202 C2201 1.379 . S
H2203 C2197 0.959 . S
H2204 C2197 0.961 . S
H2205 C2197 0.960 . S
H2206 C2198 0.930 . S
H2207 C2199 0.929 . S
H2208 C2216 0.929 . S
H2209 C2218 0.930 . S
H2210 C2220 0.930 . S
H2211 C2223 0.929 . S
H2212 C2226 0.930 . S
H2213 C2228 0.960 . S
H2214 C2228 0.960 . S
H2215 C2228 0.960 . S
C2216 H2208 0.929 . S
C2216 C2217 1.377 . S
C2216 C2218 1.384 . S
C2217 C2216 1.377 . S
C2217 C2223 1.390 . S
C2218 H2209 0.930 . S
C2218 C2216 1.384 . S
C2218 C2219 1.372 . S
C2219 C2218 1.372 . S
C2219 C2220 1.400 . S
C2219 C2224 1.490 . S
C2220 H2210 0.930 . S
C2220 C2219 1.400 . S
C2220 C2223 1.386 . S
H2221 C2237 0.930 . S
H2222 C2238 0.931 . S
C2223 H2211 0.929 . S
C2223 C2217 1.390 . S
C2223 C2220 1.386 . S
C2224 C2219 1.490 . S
C2224 C2226 1.395 . S
C2224 C2227 1.403 . S
H2225 C2231 0.930 . S
C2226 H2212 0.930 . S
C2226 C2224 1.395 . S
C2226 C2229 1.403 . S
C2227 C2224 1.403 . S
C2227 C2228 1.524 . S
C2227 C2231 1.400 . S
C2228 H2213 0.960 . S
C2228 H2214 0.960 . S
C2228 H2215 0.960 . S
C2228 C2227 1.524 . S
C2229 C2226 1.403 . S
C2229 C2230 1.392 . S
C2229 C2233 1.495 . S
C2230 C2229 1.392 . S
C2230 C2231 1.385 . S
C2230 C2232 1.478 . S
C2231 H2225 0.930 . S
C2231 C2227 1.400 . S
C2231 C2230 1.385 . S
C2232 C2230 1.478 . S
C2232 C2234 1.381 . S
C2232 C2238 1.383 . S
C2233 C2229 1.495 . S
C2233 H2239 0.959 . S
C2233 H2240 0.961 . S
C2233 H2241 0.960 . S
C2234 C2232 1.381 . S
C2234 C2235 1.394 . S
C2234 H2242 0.930 . S
C2235 C2234 1.394 . S
C2235 C2236 1.383 . S
C2235 H2243 0.929 . S
C2236 C2235 1.383 . S
C2236 C2237 1.377 . S
C2237 H2221 0.930 . S
C2237 C2236 1.377 . S
C2237 C2238 1.379 . S
C2238 H2222 0.931 . S
C2238 C2232 1.383 . S
C2238 C2237 1.379 . S
H2239 C2233 0.959 . S
H2240 C2233 0.961 . S
H2241 C2233 0.960 . S
H2242 C2234 0.930 . S
H2243 C2235 0.929 . S
H2244 C2252 0.929 . S
H2245 C2254 0.930 . S
H2246 C2256 0.930 . S
H2247 C2259 0.929 . S
H2248 C2262 0.930 . S
H2249 C2264 0.960 . S
H2250 C2264 0.960 . S
H2251 C2264 0.960 . S
C2252 H2244 0.929 . S
C2252 C2253 1.377 . S
C2252 C2254 1.384 . S
C2253 C2252 1.377 . S
C2253 C2259 1.390 . S
C2254 H2245 0.930 . S
C2254 C2252 1.384 . S
C2254 C2255 1.372 . S
C2255 C2254 1.372 . S
C2255 C2256 1.400 . S
C2255 C2260 1.490 . S
C2256 H2246 0.930 . S
C2256 C2255 1.400 . S
C2256 C2259 1.386 . S
H2257 C2273 0.930 . S
H2258 C2274 0.931 . S
C2259 H2247 0.929 . S
C2259 C2253 1.390 . S
C2259 C2256 1.386 . S
C2260 C2255 1.490 . S
C2260 C2262 1.395 . S
C2260 C2263 1.403 . S
H2261 C2267 0.930 . S
C2262 H2248 0.930 . S
C2262 C2260 1.395 . S
C2262 C2265 1.403 . S
C2263 C2260 1.403 . S
C2263 C2264 1.524 . S
C2263 C2267 1.400 . S
C2264 H2249 0.960 . S
C2264 H2250 0.960 . S
C2264 H2251 0.960 . S
C2264 C2263 1.524 . S
C2265 C2262 1.403 . S
C2265 C2266 1.392 . S
C2265 C2269 1.495 . S
C2266 C2265 1.392 . S
C2266 C2267 1.385 . S
C2266 C2268 1.478 . S
C2267 H2261 0.930 . S
C2267 C2263 1.400 . S
C2267 C2266 1.385 . S
C2268 C2266 1.478 . S
C2268 C2270 1.381 . S
C2268 C2274 1.383 . S
C2269 C2265 1.495 . S
C2269 H2275 0.959 . S
C2269 H2276 0.961 . S
C2269 H2277 0.960 . S
C2270 C2268 1.381 . S
C2270 C2271 1.394 . S
C2270 H2278 0.930 . S
C2271 C2270 1.394 . S
C2271 C2272 1.383 . S
C2271 H2279 0.929 . S
C2272 C2271 1.383 . S
C2272 C2273 1.377 . S
C2273 H2257 0.930 . S
C2273 C2272 1.377 . S
C2273 C2274 1.379 . S
C2274 H2258 0.931 . S
C2274 C2268 1.383 . S
C2274 C2273 1.379 . S
H2275 C2269 0.959 . S
H2276 C2269 0.961 . S
H2277 C2269 0.960 . S
H2278 C2270 0.930 . S
H2279 C2271 0.929 . S
H2280 C2288 0.929 . S
H2281 C2290 0.930 . S
H2282 C2292 0.930 . S
H2283 C2295 0.929 . S
H2284 C2298 0.930 . S
H2285 C2300 0.960 . S
H2286 C2300 0.960 . S
H2287 C2300 0.960 . S
C2288 H2280 0.929 . S
C2288 C2289 1.377 . S
C2288 C2290 1.384 . S
C2289 C2288 1.377 . S
C2289 C2295 1.390 . S
C2290 H2281 0.930 . S
C2290 C2288 1.384 . S
C2290 C2291 1.372 . S
C2291 C2290 1.372 . S
C2291 C2292 1.400 . S
C2291 C2296 1.490 . S
C2292 H2282 0.930 . S
C2292 C2291 1.400 . S
C2292 C2295 1.386 . S
H2293 C2309 0.930 . S
H2294 C2310 0.931 . S
C2295 H2283 0.929 . S
C2295 C2289 1.390 . S
C2295 C2292 1.386 . S
C2296 C2291 1.490 . S
C2296 C2298 1.395 . S
C2296 C2299 1.403 . S
H2297 C2303 0.930 . S
C2298 H2284 0.930 . S
C2298 C2296 1.395 . S
C2298 C2301 1.403 . S
C2299 C2296 1.403 . S
C2299 C2300 1.524 1_655 S
C2299 C2303 1.400 . S
C2300 H2285 0.960 . S
C2300 H2286 0.960 . S
C2300 H2287 0.960 . S
C2300 C2299 1.524 1_455 S
C2301 C2298 1.403 . S
C2301 C2302 1.392 . S
C2301 C2305 1.495 . S
C2302 C2301 1.392 . S
C2302 C2303 1.385 . S
C2302 C2304 1.478 . S
C2303 H2297 0.930 . S
C2303 C2299 1.400 . S
C2303 C2302 1.385 . S
C2304 C2302 1.478 . S
C2304 C2306 1.381 . S
C2304 C2310 1.383 . S
C2305 C2301 1.495 . S
C2305 H2311 0.959 . S
C2305 H2312 0.961 . S
C2305 H2313 0.960 . S
C2306 C2304 1.381 . S
C2306 C2307 1.394 . S
C2306 H2314 0.930 . S
C2307 C2306 1.394 . S
C2307 C2308 1.383 . S
C2307 H2315 0.929 . S
C2308 C2307 1.383 . S
C2308 C2309 1.377 . S
C2309 H2293 0.930 . S
C2309 C2308 1.377 . S
C2309 C2310 1.379 . S
C2310 H2294 0.931 . S
C2310 C2304 1.383 . S
C2310 C2309 1.379 . S
H2311 C2305 0.959 . S
H2312 C2305 0.961 . S
H2313 C2305 0.960 . S
H2314 C2306 0.930 . S
H2315 C2307 0.929 . S
H2316 C2324 0.929 . S
H2317 C2326 0.930 . S
H2318 C2328 0.930 . S
H2319 C2331 0.929 . S
H2320 C2334 0.930 . S
H2321 C2336 0.960 . S
H2322 C2336 0.960 . S
H2323 C2336 0.960 . S
C2324 H2316 0.929 . S
C2324 C2325 1.377 . S
C2324 C2326 1.384 . S
C2325 C2324 1.377 . S
C2325 C2331 1.390 . S
C2326 H2317 0.930 . S
C2326 C2324 1.384 . S
C2326 C2327 1.372 . S
C2327 C2326 1.372 . S
C2327 C2328 1.400 . S
C2327 C2332 1.490 . S
C2328 H2318 0.930 . S
C2328 C2327 1.400 . S
C2328 C2331 1.386 . S
H2329 C2345 0.930 . S
H2330 C2346 0.931 . S
C2331 H2319 0.929 . S
C2331 C2325 1.390 . S
C2331 C2328 1.386 . S
C2332 C2327 1.490 . S
C2332 C2334 1.395 . S
C2332 C2335 1.403 . S
H2333 C2339 0.930 . S
C2334 H2320 0.930 . S
C2334 C2332 1.395 . S
C2334 C2337 1.403 . S
C2335 C2332 1.403 . S
C2335 C2336 1.524 . S
C2335 C2339 1.400 . S
C2336 H2321 0.960 . S
C2336 H2322 0.960 . S
C2336 H2323 0.960 . S
C2336 C2335 1.524 . S
C2337 C2334 1.403 . S
C2337 C2338 1.392 . S
C2337 C2341 1.495 . S
C2338 C2337 1.392 . S
C2338 C2339 1.385 . S
C2338 C2340 1.478 . S
C2339 H2333 0.930 . S
C2339 C2335 1.400 . S
C2339 C2338 1.385 . S
C2340 C2338 1.478 . S
C2340 C2342 1.381 . S
C2340 C2346 1.383 . S
C2341 C2337 1.495 . S
C2341 H2347 0.959 . S
C2341 H2348 0.961 . S
C2341 H2349 0.960 . S
C2342 C2340 1.381 . S
C2342 C2343 1.394 . S
C2342 H2350 0.930 . S
C2343 C2342 1.394 . S
C2343 C2344 1.383 . S
C2343 H2351 0.929 . S
C2344 C2343 1.383 . S
C2344 C2345 1.377 . S
C2345 H2329 0.930 . S
C2345 C2344 1.377 . S
C2345 C2346 1.379 . S
C2346 H2330 0.931 . S
C2346 C2340 1.383 . S
C2346 C2345 1.379 . S
H2347 C2341 0.959 . S
H2348 C2341 0.961 . S
H2349 C2341 0.960 . S
H2350 C2342 0.930 . S
H2351 C2343 0.929 . S
H2352 C2360 0.929 . S
H2353 C2362 0.930 . S
H2354 C2364 0.930 . S
H2355 C2367 0.929 . S
H2356 C2370 0.930 . S
H2357 C2372 0.960 . S
H2358 C2372 0.960 . S
H2359 C2372 0.960 . S
C2360 H2352 0.929 . S
C2360 C2361 1.377 . S
C2360 C2362 1.384 . S
C2361 C2360 1.377 . S
C2361 C2367 1.390 . S
C2362 H2353 0.930 . S
C2362 C2360 1.384 . S
C2362 C2363 1.372 . S
C2363 C2362 1.372 . S
C2363 C2364 1.400 . S
C2363 C2368 1.490 . S
C2364 H2354 0.930 . S
C2364 C2363 1.400 . S
C2364 C2367 1.386 . S
H2365 C2381 0.930 . S
H2366 C2382 0.931 . S
C2367 H2355 0.929 . S
C2367 C2361 1.390 . S
C2367 C2364 1.386 . S
C2368 C2363 1.490 . S
C2368 C2370 1.395 . S
C2368 C2371 1.403 . S
H2369 C2375 0.930 . S
C2370 H2356 0.930 . S
C2370 C2368 1.395 . S
C2370 C2373 1.403 . S
C2371 C2368 1.403 . S
C2371 C2372 1.524 . S
C2371 C2375 1.400 . S
C2372 H2357 0.960 . S
C2372 H2358 0.960 . S
C2372 H2359 0.960 . S
C2372 C2371 1.524 . S
C2373 C2370 1.403 . S
C2373 C2374 1.392 . S
C2373 C2377 1.495 . S
C2374 C2373 1.392 . S
C2374 C2375 1.385 . S
C2374 C2376 1.478 . S
C2375 H2369 0.930 . S
C2375 C2371 1.400 . S
C2375 C2374 1.385 . S
C2376 C2374 1.478 . S
C2376 C2378 1.381 . S
C2376 C2382 1.383 . S
C2377 C2373 1.495 . S
C2377 H2383 0.959 . S
C2377 H2384 0.961 . S
C2377 H2385 0.960 . S
C2378 C2376 1.381 . S
C2378 C2379 1.394 . S
C2378 H2386 0.930 . S
C2379 C2378 1.394 . S
C2379 C2380 1.383 . S
C2379 H2387 0.929 . S
C2380 C2379 1.383 . S
C2380 C2381 1.377 . S
C2381 H2365 0.930 . S
C2381 C2380 1.377 . S
C2381 C2382 1.379 . S
C2382 H2366 0.931 . S
C2382 C2376 1.383 . S
C2382 C2381 1.379 . S
H2383 C2377 0.959 . S
H2384 C2377 0.961 . S
H2385 C2377 0.960 . S
H2386 C2378 0.930 . S
H2387 C2379 0.929 . S
H2388 C2396 0.929 . S
H2389 C2398 0.930 . S
H2390 C2400 0.930 . S
H2391 C2403 0.929 . S
H2392 C2406 0.930 . S
H2393 C2408 0.960 . S
H2394 C2408 0.960 . S
H2395 C2408 0.960 . S
C2396 H2388 0.929 . S
C2396 C2397 1.377 . S
C2396 C2398 1.384 . S
C2397 C2396 1.377 . S
C2397 C2403 1.390 . S
C2398 H2389 0.930 . S
C2398 C2396 1.384 . S
C2398 C2399 1.372 . S
C2399 C2398 1.372 . S
C2399 C2400 1.400 . S
C2399 C2404 1.490 . S
C2400 H2390 0.930 . S
C2400 C2399 1.400 . S
C2400 C2403 1.386 . S
H2401 C2417 0.930 . S
H2402 C2418 0.931 . S
C2403 H2391 0.929 . S
C2403 C2397 1.390 . S
C2403 C2400 1.386 . S
C2404 C2399 1.490 . S
C2404 C2406 1.395 . S
C2404 C2407 1.403 . S
H2405 C2411 0.930 . S
C2406 H2392 0.930 . S
C2406 C2404 1.395 . S
C2406 C2409 1.403 . S
C2407 C2404 1.403 . S
C2407 C2408 1.524 . S
C2407 C2411 1.400 . S
C2408 H2393 0.960 . S
C2408 H2394 0.960 . S
C2408 H2395 0.960 . S
C2408 C2407 1.524 . S
C2409 C2406 1.403 . S
C2409 C2410 1.392 . S
C2409 C2413 1.495 . S
C2410 C2409 1.392 . S
C2410 C2411 1.385 . S
C2410 C2412 1.478 . S
C2411 H2405 0.930 . S
C2411 C2407 1.400 . S
C2411 C2410 1.385 . S
C2412 C2410 1.478 . S
C2412 C2414 1.381 . S
C2412 C2418 1.383 . S
C2413 C2409 1.495 . S
C2413 H2419 0.959 . S
C2413 H2420 0.961 . S
C2413 H2421 0.960 . S
C2414 C2412 1.381 . S
C2414 C2415 1.394 . S
C2414 H2422 0.930 . S
C2415 C2414 1.394 . S
C2415 C2416 1.383 . S
C2415 H2423 0.929 . S
C2416 C2415 1.383 . S
C2416 C2417 1.377 . S
C2417 H2401 0.930 . S
C2417 C2416 1.377 . S
C2417 C2418 1.379 . S
C2418 H2402 0.931 . S
C2418 C2412 1.383 . S
C2418 C2417 1.379 . S
H2419 C2413 0.959 . S
H2420 C2413 0.961 . S
H2421 C2413 0.960 . S
H2422 C2414 0.930 . S
H2423 C2415 0.929 . S
H2424 C2432 0.929 . S
H2425 C2434 0.930 . S
H2426 C2436 0.930 . S
H2427 C2439 0.929 . S
H2428 C2442 0.930 . S
H2429 C2444 0.960 . S
H2430 C2444 0.960 . S
H2431 C2444 0.960 . S
C2432 H2424 0.929 . S
C2432 C2433 1.377 . S
C2432 C2434 1.384 . S
C2433 C2432 1.377 . S
C2433 C2439 1.390 . S
C2434 H2425 0.930 . S
C2434 C2432 1.384 . S
C2434 C2435 1.372 . S
C2435 C2434 1.372 . S
C2435 C2436 1.400 . S
C2435 C2440 1.490 . S
C2436 H2426 0.930 . S
C2436 C2435 1.400 . S
C2436 C2439 1.386 . S
H2437 C2453 0.930 . S
H2438 C2454 0.931 . S
C2439 H2427 0.929 . S
C2439 C2433 1.390 . S
C2439 C2436 1.386 . S
C2440 C2435 1.490 . S
C2440 C2442 1.395 . S
C2440 C2443 1.403 . S
H2441 C2447 0.930 . S
C2442 H2428 0.930 . S
C2442 C2440 1.395 . S
C2442 C2445 1.403 . S
C2443 C2440 1.403 . S
C2443 C2444 1.524 . S
C2443 C2447 1.400 . S
C2444 H2429 0.960 . S
C2444 H2430 0.960 . S
C2444 H2431 0.960 . S
C2444 C2443 1.524 . S
C2445 C2442 1.403 . S
C2445 C2446 1.392 . S
C2445 C2449 1.495 . S
C2446 C2445 1.392 . S
C2446 C2447 1.385 . S
C2446 C2448 1.478 . S
C2447 H2441 0.930 . S
C2447 C2443 1.400 . S
C2447 C2446 1.385 . S
C2448 C2446 1.478 . S
C2448 C2450 1.381 . S
C2448 C2454 1.383 . S
C2449 C2445 1.495 . S
C2449 H2455 0.959 . S
C2449 H2456 0.961 . S
C2449 H2457 0.960 . S
C2450 C2448 1.381 . S
C2450 C2451 1.394 . S
C2450 H2458 0.930 . S
C2451 C2450 1.394 . S
C2451 C2452 1.383 . S
C2451 H2459 0.929 . S
C2452 C2451 1.383 . S
C2452 C2453 1.377 . S
C2453 H2437 0.930 . S
C2453 C2452 1.377 . S
C2453 C2454 1.379 . S
C2454 H2438 0.931 . S
C2454 C2448 1.383 . S
C2454 C2453 1.379 . S
H2455 C2449 0.959 . S
H2456 C2449 0.961 . S
H2457 C2449 0.960 . S
H2458 C2450 0.930 . S
H2459 C2451 0.929 . S
H2460 C2468 0.929 . S
H2461 C2470 0.930 . S
H2462 C2472 0.930 1_565 S
H2463 C2475 0.929 . S
H2464 C2478 0.930 . S
H2465 C2480 0.960 . S
H2466 C2480 0.960 . S
H2467 C2480 0.960 . S
C2468 H2460 0.929 . S
C2468 C2469 1.377 . S
C2468 C2470 1.384 . S
C2469 C2468 1.377 . S
C2469 C2475 1.390 . S
C2470 H2461 0.930 . S
C2470 C2468 1.384 . S
C2470 C2471 1.355 1_545 S
C2471 C2470 1.355 1_565 S
C2471 C2472 1.397 1_565 S
C2471 C2476 1.510 . S
C2472 H2462 0.930 1_545 S
C2472 C2471 1.397 1_545 S
C2472 C2475 1.386 . S
H2473 C2489 0.930 . S
H2474 C2490 0.931 . S
C2475 H2463 0.929 . S
C2475 C2469 1.390 . S
C2475 C2472 1.386 . S
C2476 C2471 1.510 . S
C2476 C2478 1.395 . S
C2476 C2479 1.403 . S
H2477 C2483 0.930 . S
C2478 H2464 0.930 . S
C2478 C2476 1.395 . S
C2478 C2481 1.403 . S
C2479 C2476 1.403 . S
C2479 C2480 1.524 . S
C2479 C2483 1.400 . S
C2480 H2465 0.960 . S
C2480 H2466 0.960 . S
C2480 H2467 0.960 . S
C2480 C2479 1.524 . S
C2481 C2478 1.403 . S
C2481 C2482 1.392 . S
C2481 C2485 1.495 . S
C2482 C2481 1.392 . S
C2482 C2483 1.385 . S
C2482 C2484 1.478 . S
C2483 H2477 0.930 . S
C2483 C2479 1.400 . S
C2483 C2482 1.385 . S
C2484 C2482 1.478 . S
C2484 C2486 1.381 . S
C2484 C2490 1.383 . S
C2485 C2481 1.495 . S
C2485 H2491 0.959 . S
C2485 H2492 0.961 . S
C2485 H2493 0.960 . S
C2486 C2484 1.381 . S
C2486 C2487 1.394 1_556 S
C2486 H2494 0.930 1_556 S
C2487 C2486 1.394 1_554 S
C2487 C2488 1.383 1_554 S
C2487 H2495 0.929 . S
C2488 C2487 1.383 1_556 S
C2488 C2489 1.377 . S
C2489 H2473 0.930 . S
C2489 C2488 1.377 . S
C2489 C2490 1.379 . S
C2490 H2474 0.931 . S
C2490 C2484 1.383 . S
C2490 C2489 1.379 . S
H2491 C2485 0.959 . S
H2492 C2485 0.961 . S
H2493 C2485 0.960 . S
H2494 C2486 0.930 1_554 S
H2495 C2487 0.929 . S
H2496 C2504 0.929 . S
H2497 C2506 0.930 . S
H2498 C2508 0.930 . S
H2499 C2511 0.929 . S
H2500 C2514 0.930 . S
H2501 C2516 0.960 . S
H2502 C2516 0.960 . S
H2503 C2516 0.960 . S
C2504 H2496 0.929 . S
C2504 C2505 1.377 . S
C2504 C2506 1.384 . S
C2505 C2504 1.377 . S
C2505 C2511 1.390 . S
C2506 H2497 0.930 . S
C2506 C2504 1.384 . S
C2506 C2507 1.372 . S
C2507 C2506 1.372 . S
C2507 C2508 1.400 . S
C2507 C2512 1.490 . S
C2508 H2498 0.930 . S
C2508 C2507 1.400 . S
C2508 C2511 1.386 . S
H2509 C2525 0.930 . S
H2510 C2526 0.931 . S
C2511 H2499 0.929 . S
C2511 C2505 1.390 . S
C2511 C2508 1.386 . S
C2512 C2507 1.490 . S
C2512 C2514 1.395 . S
C2512 C2515 1.403 . S
H2513 C2519 0.930 . S
C2514 H2500 0.930 . S
C2514 C2512 1.395 . S
C2514 C2517 1.403 . S
C2515 C2512 1.403 . S
C2515 C2516 1.524 . S
C2515 C2519 1.400 . S
C2516 H2501 0.960 . S
C2516 H2502 0.960 . S
C2516 H2503 0.960 . S
C2516 C2515 1.524 . S
C2517 C2514 1.403 . S
C2517 C2518 1.392 . S
C2517 C2521 1.495 . S
C2518 C2517 1.392 . S
C2518 C2519 1.385 . S
C2518 C2520 1.478 . S
C2519 H2513 0.930 . S
C2519 C2515 1.400 . S
C2519 C2518 1.385 . S
C2520 C2518 1.478 . S
C2520 C2522 1.381 . S
C2520 C2526 1.383 . S
C2521 C2517 1.495 . S
C2521 H2527 0.959 . S
C2521 H2528 0.961 . S
C2521 H2529 0.960 . S
C2522 C2520 1.381 . S
C2522 C2523 1.394 . S
C2522 H2530 0.930 . S
C2523 C2522 1.394 . S
C2523 C2524 1.383 . S
C2523 H2531 0.929 . S
C2524 C2523 1.383 . S
C2524 C2525 1.377 . S
C2525 H2509 0.930 . S
C2525 C2524 1.377 . S
C2525 C2526 1.379 . S
C2526 H2510 0.931 . S
C2526 C2520 1.383 . S
C2526 C2525 1.379 . S
H2527 C2521 0.959 . S
H2528 C2521 0.961 . S
H2529 C2521 0.960 . S
H2530 C2522 0.930 . S
H2531 C2523 0.929 . S
H2532 C2540 0.929 . S
H2533 C2542 0.930 . S
H2534 C2544 0.930 . S
H2535 C2547 0.929 . S
H2536 C2550 0.930 . S
H2537 C2552 0.960 1_556 S
H2538 C2552 0.960 . S
H2539 C2552 0.960 . S
C2540 H2532 0.929 . S
C2540 C2541 1.377 . S
C2540 C2542 1.384 . S
C2541 C2540 1.377 . S
C2541 C2547 1.390 . S
C2542 H2533 0.930 . S
C2542 C2540 1.384 . S
C2542 C2543 1.372 . S
C2543 C2542 1.372 . S
C2543 C2544 1.400 . S
C2543 C2548 1.490 . S
C2544 H2534 0.930 . S
C2544 C2543 1.400 . S
C2544 C2547 1.386 . S
H2545 C2561 0.930 . S
H2546 C2562 0.931 . S
C2547 H2535 0.929 . S
C2547 C2541 1.390 . S
C2547 C2544 1.386 . S
C2548 C2543 1.490 . S
C2548 C2550 1.395 . S
C2548 C2551 1.403 . S
H2549 C2555 0.930 . S
C2550 H2536 0.930 . S
C2550 C2548 1.395 . S
C2550 C2553 1.403 . S
C2551 C2548 1.403 . S
C2551 C2552 1.524 . S
C2551 C2555 1.400 . S
C2552 H2537 0.960 1_554 S
C2552 H2538 0.960 . S
C2552 H2539 0.960 . S
C2552 C2551 1.524 . S
C2553 C2550 1.403 . S
C2553 C2554 1.392 . S
C2553 C2557 1.495 . S
C2554 C2553 1.392 . S
C2554 C2555 1.385 . S
C2554 C2556 1.478 . S
C2555 H2549 0.930 . S
C2555 C2551 1.400 . S
C2555 C2554 1.385 . S
C2556 C2554 1.478 . S
C2556 C2558 1.381 . S
C2556 C2562 1.383 . S
C2557 C2553 1.495 . S
C2557 H2563 0.959 . S
C2557 H2564 0.961 . S
C2557 H2565 0.960 . S
C2558 C2556 1.381 . S
C2558 C2559 1.394 . S
C2558 H2566 0.930 . S
C2559 C2558 1.394 . S
C2559 C2560 1.383 . S
C2559 H2567 0.929 . S
C2560 C2559 1.383 . S
C2560 C2561 1.377 . S
C2561 H2545 0.930 . S
C2561 C2560 1.377 . S
C2561 C2562 1.379 . S
C2562 H2546 0.931 . S
C2562 C2556 1.383 . S
C2562 C2561 1.379 . S
H2563 C2557 0.959 . S
H2564 C2557 0.961 . S
H2565 C2557 0.960 . S
H2566 C2558 0.930 . S
H2567 C2559 0.929 . S
H2568 C2576 0.929 . S
H2569 C2578 0.930 . S
H2570 C2580 0.930 . S
H2571 C2583 0.929 . S
H2572 C2586 0.930 . S
H2573 C2588 0.960 . S
H2574 C2588 0.960 . S
H2575 C2588 0.960 . S
C2576 H2568 0.929 . S
C2576 C2577 1.377 . S
C2576 C2578 1.384 . S
C2577 C2576 1.377 . S
C2577 C2583 1.390 . S
C2578 H2569 0.930 . S
C2578 C2576 1.384 . S
C2578 C2579 1.372 . S
C2579 C2578 1.372 . S
C2579 C2580 1.400 . S
C2579 C2584 1.490 . S
C2580 H2570 0.930 . S
C2580 C2579 1.400 . S
C2580 C2583 1.386 . S
H2581 C2597 0.930 . S
H2582 C2598 0.931 . S
C2583 H2571 0.929 . S
C2583 C2577 1.390 . S
C2583 C2580 1.386 . S
C2584 C2579 1.490 . S
C2584 C2586 1.395 . S
C2584 C2587 1.403 . S
H2585 C2591 0.930 . S
C2586 H2572 0.930 . S
C2586 C2584 1.395 . S
C2586 C2589 1.403 . S
C2587 C2584 1.403 . S
C2587 C2588 1.524 . S
C2587 C2591 1.400 . S
C2588 H2573 0.960 . S
C2588 H2574 0.960 . S
C2588 H2575 0.960 . S
C2588 C2587 1.524 . S
C2589 C2586 1.403 . S
C2589 C2590 1.392 . S
C2589 C2593 1.495 . S
C2590 C2589 1.392 . S
C2590 C2591 1.385 . S
C2590 C2592 1.478 . S
C2591 H2585 0.930 . S
C2591 C2587 1.400 . S
C2591 C2590 1.385 . S
C2592 C2590 1.478 . S
C2592 C2594 1.381 . S
C2592 C2598 1.383 . S
C2593 C2589 1.495 . S
C2593 H2599 0.959 . S
C2593 H2600 0.961 . S
C2593 H2601 0.960 . S
C2594 C2592 1.381 . S
C2594 C2595 1.394 . S
C2594 H2602 0.930 . S
C2595 C2594 1.394 . S
C2595 C2596 1.383 . S
C2595 H2603 0.929 . S
C2596 C2595 1.383 . S
C2596 C2597 1.377 . S
C2597 H2581 0.930 . S
C2597 C2596 1.377 . S
C2597 C2598 1.379 . S
C2598 H2582 0.931 . S
C2598 C2592 1.383 . S
C2598 C2597 1.379 . S
H2599 C2593 0.959 . S
H2600 C2593 0.961 . S
H2601 C2593 0.960 . S
H2602 C2594 0.930 . S
H2603 C2595 0.929 . S
H2604 C2612 0.929 . S
H2605 C2614 0.930 . S
H2606 C2616 0.930 . S
H2607 C2619 0.929 . S
H2608 C2622 0.930 . S
H2609 C2624 0.960 . S
H2610 C2624 0.960 . S
H2611 C2624 0.960 . S
C2612 H2604 0.929 . S
C2612 C2613 1.377 . S
C2612 C2614 1.384 . S
C2613 C2612 1.377 . S
C2613 C2619 1.390 . S
C2614 H2605 0.930 . S
C2614 C2612 1.384 . S
C2614 C2615 1.372 . S
C2615 C2614 1.372 . S
C2615 C2616 1.400 . S
C2615 C2620 1.490 . S
C2616 H2606 0.930 . S
C2616 C2615 1.400 . S
C2616 C2619 1.386 . S
H2617 C2633 0.930 . S
H2618 C2634 0.931 1_545 S
C2619 H2607 0.929 . S
C2619 C2613 1.390 . S
C2619 C2616 1.386 . S
C2620 C2615 1.490 . S
C2620 C2622 1.395 . S
C2620 C2623 1.403 . S
H2621 C2627 0.930 . S
C2622 H2608 0.930 . S
C2622 C2620 1.395 . S
C2622 C2625 1.403 . S
C2623 C2620 1.403 . S
C2623 C2624 1.524 . S
C2623 C2627 1.400 . S
C2624 H2609 0.960 . S
C2624 H2610 0.960 . S
C2624 H2611 0.960 . S
C2624 C2623 1.524 . S
C2625 C2622 1.403 . S
C2625 C2626 1.392 . S
C2625 C2629 1.495 . S
C2626 C2625 1.392 . S
C2626 C2627 1.385 . S
C2626 C2628 1.461 1_545 S
C2627 H2621 0.930 . S
C2627 C2623 1.400 . S
C2627 C2626 1.385 . S
C2628 C2626 1.461 1_565 S
C2628 C2630 1.395 . S
C2628 C2634 1.386 . S
C2629 C2625 1.495 . S
C2629 H2635 0.959 . S
C2629 H2636 0.961 . S
C2629 H2637 0.960 . S
C2630 C2628 1.395 . S
C2630 C2631 1.394 . S
C2630 H2638 0.930 . S
C2631 C2630 1.394 . S
C2631 C2632 1.383 . S
C2631 H2639 0.929 . S
C2632 C2631 1.383 . S
C2632 C2633 1.377 . S
C2633 H2617 0.930 . S
C2633 C2632 1.377 . S
C2633 C2634 1.379 . S
C2634 H2618 0.931 1_565 S
C2634 C2628 1.386 . S
C2634 C2633 1.379 . S
H2635 C2629 0.959 . S
H2636 C2629 0.961 . S
H2637 C2629 0.960 . S
H2638 C2630 0.930 . S
H2639 C2631 0.929 . S
H2640 C2648 0.929 . S
H2641 C2650 0.930 . S
H2642 C2652 0.930 . S
H2643 C2655 0.929 . S
H2644 C2658 0.930 . S
H2645 C2660 0.960 . S
H2646 C2660 0.960 . S
H2647 C2660 0.960 . S
C2648 H2640 0.929 . S
C2648 C2649 1.377 . S
C2648 C2650 1.384 . S
C2649 C2648 1.377 . S
C2649 C2655 1.390 . S
C2650 H2641 0.930 . S
C2650 C2648 1.384 . S
C2650 C2651 1.372 . S
C2651 C2650 1.372 . S
C2651 C2652 1.400 . S
C2651 C2656 1.490 . S
C2652 H2642 0.930 . S
C2652 C2651 1.400 . S
C2652 C2655 1.386 . S
H2653 C2669 0.930 . S
H2654 C2670 0.931 . S
C2655 H2643 0.929 . S
C2655 C2649 1.390 . S
C2655 C2652 1.386 . S
C2656 C2651 1.490 . S
C2656 C2658 1.395 . S
C2656 C2659 1.403 . S
H2657 C2663 0.930 . S
C2658 H2644 0.930 . S
C2658 C2656 1.395 . S
C2658 C2661 1.403 . S
C2659 C2656 1.403 . S
C2659 C2660 1.524 . S
C2659 C2663 1.400 . S
C2660 H2645 0.960 . S
C2660 H2646 0.960 . S
C2660 H2647 0.960 . S
C2660 C2659 1.524 . S
C2661 C2658 1.403 . S
C2661 C2662 1.392 . S
C2661 C2665 1.495 . S
C2662 C2661 1.392 . S
C2662 C2663 1.385 . S
C2662 C2664 1.478 . S
C2663 H2657 0.930 . S
C2663 C2659 1.400 . S
C2663 C2662 1.385 . S
C2664 C2662 1.478 . S
C2664 C2666 1.381 . S
C2664 C2670 1.383 . S
C2665 C2661 1.495 . S
C2665 H2671 0.959 . S
C2665 H2672 0.961 . S
C2665 H2673 0.960 . S
C2666 C2664 1.381 . S
C2666 C2667 1.394 . S
C2666 H2674 0.930 . S
C2667 C2666 1.394 . S
C2667 C2668 1.383 . S
C2667 H2675 0.929 . S
C2668 C2667 1.383 . S
C2668 C2669 1.377 . S
C2669 H2653 0.930 . S
C2669 C2668 1.377 . S
C2669 C2670 1.379 . S
C2670 H2654 0.931 . S
C2670 C2664 1.383 . S
C2670 C2669 1.379 . S
H2671 C2665 0.959 . S
H2672 C2665 0.961 . S
H2673 C2665 0.960 . S
H2674 C2666 0.930 . S
H2675 C2667 0.929 . S
H2676 C2684 0.929 . S
H2677 C2686 0.930 1_655 S
H2678 C2688 0.930 . S
H2679 C2691 0.929 . S
H2680 C2694 0.930 . S
H2681 C2696 0.960 . S
H2682 C2696 0.960 . S
H2683 C2696 0.960 . S
C2684 H2676 0.929 . S
C2684 C2685 1.377 . S
C2684 C2686 1.384 . S
C2685 C2684 1.377 . S
C2685 C2691 1.390 . S
C2686 H2677 0.930 1_455 S
C2686 C2684 1.384 . S
C2686 C2687 1.372 1_455 S
C2687 C2686 1.372 1_655 S
C2687 C2688 1.400 1_655 S
C2687 C2692 1.490 . S
C2688 H2678 0.930 . S
C2688 C2687 1.400 1_455 S
C2688 C2691 1.386 . S
H2689 C2705 0.930 . S
H2690 C2706 0.931 . S
C2691 H2679 0.929 . S
C2691 C2685 1.390 . S
C2691 C2688 1.386 . S
C2692 C2687 1.490 . S
C2692 C2694 1.395 . S
C2692 C2695 1.403 . S
H2693 C2699 0.930 . S
C2694 H2680 0.930 . S
C2694 C2692 1.395 . S
C2694 C2697 1.403 . S
C2695 C2692 1.403 . S
C2695 C2696 1.524 . S
C2695 C2699 1.400 . S
C2696 H2681 0.960 . S
C2696 H2682 0.960 . S
C2696 H2683 0.960 . S
C2696 C2695 1.524 . S
C2697 C2694 1.403 . S
C2697 C2698 1.392 . S
C2697 C2701 1.495 . S
C2698 C2697 1.392 . S
C2698 C2699 1.385 . S
C2698 C2700 1.478 . S
C2699 H2693 0.930 . S
C2699 C2695 1.400 . S
C2699 C2698 1.385 . S
C2700 C2698 1.478 . S
C2700 C2702 1.381 . S
C2700 C2706 1.383 . S
C2701 C2697 1.495 . S
C2701 H2707 0.959 . S
C2701 H2708 0.961 . S
C2701 H2709 0.960 . S
C2702 C2700 1.381 . S
C2702 C2703 1.394 . S
C2702 H2710 0.930 . S
C2703 C2702 1.394 . S
C2703 C2704 1.383 . S
C2703 H2711 0.929 . S
C2704 C2703 1.383 . S
C2704 C2705 1.377 . S
C2705 H2689 0.930 . S
C2705 C2704 1.377 . S
C2705 C2706 1.379 . S
C2706 H2690 0.931 . S
C2706 C2700 1.383 . S
C2706 C2705 1.379 . S
H2707 C2701 0.959 . S
H2708 C2701 0.961 . S
H2709 C2701 0.960 . S
H2710 C2702 0.930 . S
H2711 C2703 0.929 . S
H2712 C2720 0.929 . S
H2713 C2722 0.930 . S
H2714 C2724 0.930 . S
H2715 C2727 0.929 . S
H2716 C2730 0.930 . S
H2717 C2732 0.960 . S
H2718 C2732 0.960 . S
H2719 C2732 0.960 . S
C2720 H2712 0.929 . S
C2720 C2721 1.377 . S
C2720 C2722 1.384 . S
C2721 C2720 1.377 . S
C2721 C2727 1.390 . S
C2722 H2713 0.930 . S
C2722 C2720 1.384 . S
C2722 C2723 1.372 . S
C2723 C2722 1.372 . S
C2723 C2724 1.400 . S
C2723 C2728 1.490 . S
C2724 H2714 0.930 . S
C2724 C2723 1.400 . S
C2724 C2727 1.386 . S
H2725 C2741 0.925 . S
H2726 C2742 0.931 . S
C2727 H2715 0.929 . S
C2727 C2721 1.390 . S
C2727 C2724 1.386 . S
C2728 C2723 1.490 . S
C2728 C2730 1.395 . S
C2728 C2731 1.403 . S
H2729 C2735 0.930 . S
C2730 H2716 0.930 . S
C2730 C2728 1.395 . S
C2730 C2733 1.403 . S
C2731 C2728 1.403 . S
C2731 C2732 1.524 . S
C2731 C2735 1.400 . S
C2732 H2717 0.960 . S
C2732 H2718 0.960 . S
C2732 H2719 0.960 . S
C2732 C2731 1.524 . S
C2733 C2730 1.403 . S
C2733 C2734 1.392 . S
C2733 C2737 1.495 . S
C2734 C2733 1.392 . S
C2734 C2735 1.385 . S
C2734 C2736 1.478 . S
C2735 H2729 0.930 . S
C2735 C2731 1.400 . S
C2735 C2734 1.385 . S
C2736 C2734 1.478 . S
C2736 C2738 1.381 . S
C2736 C2742 1.383 . S
C2737 C2733 1.495 . S
C2737 H2743 0.959 . S
C2737 H2744 0.961 . S
C2737 H2745 0.960 . S
C2738 C2736 1.381 . S
C2738 C2739 1.394 . S
C2738 H2746 0.930 . S
C2739 C2738 1.394 . S
C2739 C2740 1.383 . S
C2739 H2747 0.929 . S
C2740 C2739 1.383 . S
C2740 C2741 1.379 1_554 S
C2741 H2725 0.925 . S
C2741 C2740 1.379 1_556 S
C2741 C2742 1.382 1_556 S
C2742 H2726 0.931 . S
C2742 C2736 1.383 . S
C2742 C2741 1.382 1_554 S
H2743 C2737 0.959 . S
H2744 C2737 0.961 . S
H2745 C2737 0.960 . S
H2746 C2738 0.930 . S
H2747 C2739 0.929 . S
H2748 C2756 0.929 . S
H2749 C2758 0.930 . S
H2750 C2760 0.930 . S
H2751 C2763 0.929 . S
H2752 C2766 0.930 . S
H2753 C2768 0.960 . S
H2754 C2768 0.960 . S
H2755 C2768 0.960 . S
C2756 H2748 0.929 . S
C2756 C2757 1.377 1_565 S
C2756 C2758 1.384 . S
C2757 C2756 1.377 1_545 S
C2757 C2763 1.390 . S
C2758 H2749 0.930 . S
C2758 C2756 1.384 . S
C2758 C2759 1.372 1_565 S
C2759 C2758 1.372 1_545 S
C2759 C2760 1.400 . S
C2759 C2764 1.490 . S
C2760 H2750 0.930 . S
C2760 C2759 1.400 . S
C2760 C2763 1.386 . S
H2761 C2777 0.930 . S
H2762 C2778 0.931 . S
C2763 H2751 0.929 . S
C2763 C2757 1.390 . S
C2763 C2760 1.386 . S
C2764 C2759 1.490 . S
C2764 C2766 1.395 . S
C2764 C2767 1.403 . S
H2765 C2771 0.930 . S
C2766 H2752 0.930 . S
C2766 C2764 1.395 . S
C2766 C2769 1.403 . S
C2767 C2764 1.403 . S
C2767 C2768 1.524 . S
C2767 C2771 1.400 . S
C2768 H2753 0.960 . S
C2768 H2754 0.960 . S
C2768 H2755 0.960 . S
C2768 C2767 1.524 . S
C2769 C2766 1.403 . S
C2769 C2770 1.392 . S
C2769 C2773 1.495 . S
C2770 C2769 1.392 . S
C2770 C2771 1.385 . S
C2770 C2772 1.478 . S
C2771 H2765 0.930 . S
C2771 C2767 1.400 . S
C2771 C2770 1.385 . S
C2772 C2770 1.478 . S
C2772 C2774 1.381 . S
C2772 C2778 1.383 . S
C2773 C2769 1.495 . S
C2773 H2779 0.959 . S
C2773 H2780 0.961 . S
C2773 H2781 0.980 . S
C2774 C2772 1.381 . S
C2774 C2775 1.394 1_655 S
C2774 H2782 0.930 1_545 S
C2775 C2774 1.394 1_455 S
C2775 C2776 1.383 . S
C2775 H2783 0.929 1_545 S
C2776 C2775 1.383 . S
C2776 C2777 1.377 . S
C2777 H2761 0.930 . S
C2777 C2776 1.377 . S
C2777 C2778 1.379 1_455 S
C2778 H2762 0.931 . S
C2778 C2772 1.383 . S
C2778 C2777 1.379 1_655 S
H2779 C2773 0.959 . S
H2780 C2773 0.961 . S
H2781 C2773 0.980 . S
H2782 C2774 0.930 1_565 S
H2783 C2775 0.929 1_565 S
H2784 C2792 0.929 . S
H2785 C2794 0.930 . S
H2786 C2796 0.930 . S
H2787 C2799 0.929 . S
H2788 C2802 0.930 . S
H2789 C2804 0.960 . S
H2790 C2804 0.960 . S
H2791 C2804 0.960 . S
C2792 H2784 0.929 . S
C2792 C2793 1.377 . S
C2792 C2794 1.384 . S
C2793 C2792 1.377 . S
C2793 C2799 1.390 . S
C2794 H2785 0.930 . S
C2794 C2792 1.384 . S
C2794 C2795 1.372 . S
C2795 C2794 1.372 . S
C2795 C2796 1.400 . S
C2795 C2800 1.490 . S
C2796 H2786 0.930 . S
C2796 C2795 1.400 . S
C2796 C2799 1.386 . S
H2797 C2813 0.930 . S
H2798 C2814 0.931 . S
C2799 H2787 0.929 . S
C2799 C2793 1.390 . S
C2799 C2796 1.386 . S
C2800 C2795 1.490 . S
C2800 C2802 1.395 . S
C2800 C2803 1.403 . S
H2801 C2807 0.930 . S
C2802 H2788 0.930 . S
C2802 C2800 1.395 . S
C2802 C2805 1.403 . S
C2803 C2800 1.403 . S
C2803 C2804 1.524 . S
C2803 C2807 1.400 . S
C2804 H2789 0.960 . S
C2804 H2790 0.960 . S
C2804 H2791 0.960 . S
C2804 C2803 1.524 . S
C2805 C2802 1.403 . S
C2805 C2806 1.392 . S
C2805 C2809 1.495 . S
C2806 C2805 1.392 . S
C2806 C2807 1.385 . S
C2806 C2808 1.478 . S
C2807 H2801 0.930 . S
C2807 C2803 1.400 . S
C2807 C2806 1.385 . S
C2808 C2806 1.478 . S
C2808 C2810 1.381 . S
C2808 C2814 1.383 . S
C2809 C2805 1.495 . S
C2809 H2815 0.959 . S
C2809 H2816 0.961 . S
C2809 H2817 0.960 . S
C2810 C2808 1.381 . S
C2810 C2811 1.394 . S
C2810 H2818 0.930 . S
C2811 C2810 1.394 . S
C2811 C2812 1.383 . S
C2811 H2819 0.929 . S
C2812 C2811 1.383 . S
C2812 C2813 1.377 . S
C2813 H2797 0.930 . S
C2813 C2812 1.377 . S
C2813 C2814 1.379 . S
C2814 H2798 0.931 . S
C2814 C2808 1.383 . S
C2814 C2813 1.379 . S
H2815 C2809 0.959 . S
H2816 C2809 0.961 . S
H2817 C2809 0.960 . S
H2818 C2810 0.930 . S
H2819 C2811 0.929 . S
H2820 C2828 0.929 . S
H2821 C2830 0.930 . S
H2822 C2832 0.930 . S
H2823 C2835 0.929 . S
H2824 C2838 0.930 . S
H2825 C2840 0.960 . S
H2826 C2840 0.960 . S
H2827 C2840 0.960 . S
C2828 H2820 0.929 . S
C2828 C2829 1.377 . S
C2828 C2830 1.384 . S
C2829 C2828 1.377 . S
C2829 C2835 1.390 . S
C2830 H2821 0.930 . S
C2830 C2828 1.384 . S
C2830 C2831 1.372 . S
C2831 C2830 1.372 . S
C2831 C2832 1.400 . S
C2831 C2836 1.490 . S
C2832 H2822 0.930 . S
C2832 C2831 1.400 . S
C2832 C2835 1.386 . S
H2833 C2849 0.930 . S
H2834 C2850 0.931 . S
C2835 H2823 0.929 . S
C2835 C2829 1.390 . S
C2835 C2832 1.386 . S
C2836 C2831 1.490 . S
C2836 C2838 1.395 . S
C2836 C2839 1.403 . S
H2837 C2843 0.930 . S
C2838 H2824 0.930 . S
C2838 C2836 1.395 . S
C2838 C2841 1.403 . S
C2839 C2836 1.403 . S
C2839 C2840 1.524 . S
C2839 C2843 1.400 . S
C2840 H2825 0.960 . S
C2840 H2826 0.960 . S
C2840 H2827 0.960 . S
C2840 C2839 1.524 . S
C2841 C2838 1.403 . S
C2841 C2842 1.392 . S
C2841 C2845 1.495 . S
C2842 C2841 1.392 . S
C2842 C2843 1.385 . S
C2842 C2844 1.478 . S
C2843 H2837 0.930 . S
C2843 C2839 1.400 . S
C2843 C2842 1.385 . S
C2844 C2842 1.478 . S
C2844 C2846 1.381 . S
C2844 C2850 1.383 . S
C2845 C2841 1.495 . S
C2845 H2851 0.959 . S
C2845 H2852 0.961 . S
C2845 H2853 0.960 . S
C2846 C2844 1.381 . S
C2846 C2847 1.394 . S
C2846 H2854 0.930 . S
C2847 C2846 1.394 . S
C2847 C2848 1.383 . S
C2847 H2855 0.929 . S
C2848 C2847 1.383 . S
C2848 C2849 1.377 . S
C2849 H2833 0.930 . S
C2849 C2848 1.377 . S
C2849 C2850 1.379 . S
C2850 H2834 0.931 . S
C2850 C2844 1.383 . S
C2850 C2849 1.379 . S
H2851 C2845 0.959 . S
H2852 C2845 0.961 . S
H2853 C2845 0.960 . S
H2854 C2846 0.930 . S
H2855 C2847 0.929 . S
H2856 C2864 0.929 . S
H2857 C2866 0.930 1_554 S
H2858 C2868 0.930 . S
H2859 C2871 0.929 . S
H2860 C2874 0.930 . S
H2861 C2876 0.960 . S
H2862 C2876 0.960 . S
H2863 C2876 0.960 . S
C2864 H2856 0.929 . S
C2864 C2865 1.377 . S
C2864 C2866 1.384 . S
C2865 C2864 1.377 . S
C2865 C2871 1.390 . S
C2866 H2857 0.930 1_556 S
C2866 C2864 1.384 . S
C2866 C2867 1.372 . S
C2867 C2866 1.372 . S
C2867 C2868 1.400 . S
C2867 C2872 1.490 . S
C2868 H2858 0.930 . S
C2868 C2867 1.400 . S
C2868 C2871 1.386 . S
H2869 C2885 0.930 . S
H2870 C2886 0.931 1_556 S
C2871 H2859 0.929 . S
C2871 C2865 1.390 . S
C2871 C2868 1.386 . S
C2872 C2867 1.490 . S
C2872 C2874 1.395 1_556 S
C2872 C2875 1.403 . S
H2873 C2879 0.930 . S
C2874 H2860 0.930 . S
C2874 C2872 1.395 1_554 S
C2874 C2877 1.403 . S
C2875 C2872 1.403 . S
C2875 C2876 1.524 . S
C2875 C2879 1.400 . S
C2876 H2861 0.960 . S
C2876 H2862 0.960 . S
C2876 H2863 0.960 . S
C2876 C2875 1.524 . S
C2877 C2874 1.403 . S
C2877 C2878 1.392 . S
C2877 C2881 1.495 . S
C2878 C2877 1.392 . S
C2878 C2879 1.385 1_554 S
C2878 C2880 1.478 . S
C2879 H2873 0.930 . S
C2879 C2875 1.400 . S
C2879 C2878 1.385 1_556 S
C2880 C2878 1.478 . S
C2880 C2882 1.381 . S
C2880 C2886 1.383 . S
C2881 C2877 1.495 . S
C2881 H2887 0.959 . S
C2881 H2888 0.961 . S
C2881 H2889 0.960 . S
C2882 C2880 1.381 . S
C2882 C2883 1.394 . S
C2882 H2890 0.930 . S
C2883 C2882 1.394 . S
C2883 C2884 1.383 . S
C2883 H2891 0.929 . S
C2884 C2883 1.383 . S
C2884 C2885 1.377 . S
C2885 H2869 0.930 . S
C2885 C2884 1.377 . S
C2885 C2886 1.379 . S
C2886 H2870 0.931 1_554 S
C2886 C2880 1.383 . S
C2886 C2885 1.379 . S
H2887 C2881 0.959 . S
H2888 C2881 0.961 . S
H2889 C2881 0.960 . S
H2890 C2882 0.930 . S
H2891 C2883 0.929 . S
H2892 C2900 0.929 . S
H2893 C2902 0.930 . S
H2894 C2904 0.930 . S
H2895 C2907 0.929 . S
H2896 C2910 0.930 . S
H2897 C2912 0.960 . S
H2898 C2912 0.960 . S
H2899 C2912 0.960 . S
C2900 H2892 0.929 . S
C2900 C2901 1.377 . S
C2900 C2902 1.384 . S
C2901 C2900 1.377 . S
C2901 C2907 1.390 . S
C2902 H2893 0.930 . S
C2902 C2900 1.384 . S
C2902 C2903 1.372 . S
C2903 C2902 1.372 . S
C2903 C2904 1.400 . S
C2903 C2908 1.490 . S
C2904 H2894 0.930 . S
C2904 C2903 1.400 . S
C2904 C2907 1.386 . S
H2905 C2921 0.930 . S
H2906 C2922 0.931 . S
C2907 H2895 0.929 . S
C2907 C2901 1.390 . S
C2907 C2904 1.386 . S
C2908 C2903 1.490 . S
C2908 C2910 1.395 . S
C2908 C2911 1.403 . S
H2909 C2915 0.930 . S
C2910 H2896 0.930 . S
C2910 C2908 1.395 . S
C2910 C2913 1.403 . S
C2911 C2908 1.403 . S
C2911 C2912 1.524 . S
C2911 C2915 1.400 . S
C2912 H2897 0.960 . S
C2912 H2898 0.960 . S
C2912 H2899 0.960 . S
C2912 C2911 1.524 . S
C2913 C2910 1.403 . S
C2913 C2914 1.392 . S
C2913 C2917 1.495 . S
C2914 C2913 1.392 . S
C2914 C2915 1.385 . S
C2914 C2916 1.478 . S
C2915 H2909 0.930 . S
C2915 C2911 1.400 . S
C2915 C2914 1.385 . S
C2916 C2914 1.478 . S
C2916 C2918 1.381 . S
C2916 C2922 1.383 . S
C2917 C2913 1.495 . S
C2917 H2923 0.959 . S
C2917 H2924 0.961 . S
C2917 H2925 0.960 . S
C2918 C2916 1.381 . S
C2918 C2919 1.394 . S
C2918 H2926 0.930 . S
C2919 C2918 1.394 . S
C2919 C2920 1.383 . S
C2919 H2927 0.929 . S
C2920 C2919 1.383 . S
C2920 C2921 1.377 . S
C2921 H2905 0.930 . S
C2921 C2920 1.377 . S
C2921 C2922 1.379 . S
C2922 H2906 0.931 . S
C2922 C2916 1.383 . S
C2922 C2921 1.379 . S
H2923 C2917 0.959 . S
H2924 C2917 0.961 . S
H2925 C2917 0.960 . S
H2926 C2918 0.930 . S
H2927 C2919 0.929 . S
H2928 C2936 0.929 . S
H2929 C2938 0.930 . S
H2930 C2940 0.930 . S
H2931 C2943 0.929 . S
H2932 C2946 0.930 . S
H2933 C2948 0.960 . S
H2934 C2948 0.960 . S
H2935 C2948 0.960 . S
C2936 H2928 0.929 . S
C2936 C2937 1.377 . S
C2936 C2938 1.384 . S
C2937 C2936 1.377 . S
C2937 C2943 1.390 . S
C2938 H2929 0.930 . S
C2938 C2936 1.384 . S
C2938 C2939 1.372 . S
C2939 C2938 1.372 . S
C2939 C2940 1.400 . S
C2939 C2944 1.490 . S
C2940 H2930 0.930 . S
C2940 C2939 1.400 . S
C2940 C2943 1.386 . S
H2941 C2957 0.930 . S
H2942 C2958 0.931 . S
C2943 H2931 0.929 . S
C2943 C2937 1.390 . S
C2943 C2940 1.386 . S
C2944 C2939 1.490 . S
C2944 C2946 1.395 . S
C2944 C2947 1.403 . S
H2945 C2951 0.930 . S
C2946 H2932 0.930 . S
C2946 C2944 1.395 . S
C2946 C2949 1.403 . S
C2947 C2944 1.403 . S
C2947 C2948 1.524 . S
C2947 C2951 1.400 . S
C2948 H2933 0.960 . S
C2948 H2934 0.960 . S
C2948 H2935 0.960 . S
C2948 C2947 1.524 . S
C2949 C2946 1.403 . S
C2949 C2950 1.392 . S
C2949 C2953 1.495 . S
C2950 C2949 1.392 . S
C2950 C2951 1.385 . S
C2950 C2952 1.478 . S
C2951 H2945 0.930 . S
C2951 C2947 1.400 . S
C2951 C2950 1.385 . S
C2952 C2950 1.478 . S
C2952 C2954 1.381 . S
C2952 C2958 1.383 . S
C2953 C2949 1.495 . S
C2953 H2959 0.959 . S
C2953 H2960 0.961 . S
C2953 H2961 0.960 . S
C2954 C2952 1.381 . S
C2954 C2955 1.394 . S
C2954 H2962 0.930 . S
C2955 C2954 1.394 . S
C2955 C2956 1.383 . S
C2955 H2963 0.929 . S
C2956 C2955 1.383 . S
C2956 C2957 1.377 . S
C2957 H2941 0.930 . S
C2957 C2956 1.377 . S
C2957 C2958 1.379 . S
C2958 H2942 0.931 . S
C2958 C2952 1.383 . S
C2958 C2957 1.379 . S
H2959 C2953 0.959 . S
H2960 C2953 0.961 . S
H2961 C2953 0.960 . S
H2962 C2954 0.930 . S
H2963 C2955 0.929 . S
H2964 C2972 0.941 . S
H2965 C2974 0.930 . S
H2966 C2976 0.930 . S
H2967 C2979 0.929 . S
H2968 C2982 0.930 . S
H2969 C2984 0.960 . S
H2970 C2984 0.960 1_655 S
H2971 C2984 0.960 . S
C2972 H2964 0.941 . S
C2972 C2973 1.377 . S
C2972 C2974 1.384 . S
C2973 C2972 1.377 . S
C2973 C2979 1.390 . S
C2974 H2965 0.930 . S
C2974 C2972 1.384 . S
C2974 C2975 1.372 . S
C2975 C2974 1.372 . S
C2975 C2976 1.400 . S
C2975 C2980 1.490 . S
C2976 H2966 0.930 . S
C2976 C2975 1.400 . S
C2976 C2979 1.386 . S
H2977 C2993 0.930 . S
H2978 C2994 0.931 . S
C2979 H2967 0.929 . S
C2979 C2973 1.390 . S
C2979 C2976 1.386 . S
C2980 C2975 1.490 . S
C2980 C2982 1.395 . S
C2980 C2983 1.403 . S
H2981 C2987 0.930 . S
C2982 H2968 0.930 . S
C2982 C2980 1.395 . S
C2982 C2985 1.403 . S
C2983 C2980 1.403 . S
C2983 C2984 1.524 . S
C2983 C2987 1.400 . S
C2984 H2969 0.960 . S
C2984 H2970 0.960 1_455 S
C2984 H2971 0.960 . S
C2984 C2983 1.524 . S
C2985 C2982 1.403 . S
C2985 C2986 1.392 . S
C2985 C2989 1.495 . S
C2986 C2985 1.392 . S
C2986 C2987 1.385 . S
C2986 C2988 1.478 . S
C2987 H2981 0.930 . S
C2987 C2983 1.400 . S
C2987 C2986 1.385 . S
C2988 C2986 1.478 . S
C2988 C2990 1.381 . S
C2988 C2994 1.383 . S
C2989 C2985 1.495 . S
C2989 H2995 0.959 . S
C2989 H2996 0.961 . S
C2989 H2997 0.960 . S
C2990 C2988 1.381 . S
C2990 C2991 1.394 . S
C2990 H2998 0.930 . S
C2991 C2990 1.394 . S
C2991 C2992 1.383 . S
C2991 H2999 0.929 . S
C2992 C2991 1.383 . S
C2992 C2993 1.377 . S
C2993 H2977 0.930 . S
C2993 C2992 1.377 . S
C2993 C2994 1.379 . S
C2994 H2978 0.931 . S
C2994 C2988 1.383 . S
C2994 C2993 1.379 . S
H2995 C2989 0.959 . S
H2996 C2989 0.961 . S
H2997 C2989 0.960 . S
H2998 C2990 0.930 . S
H2999 C2991 0.929 . S
H3000 C3008 0.929 . S
H3001 C3010 0.930 . S
H3002 C3012 0.930 . S
H3003 C3015 0.929 . S
H3004 C3018 0.930 . S
H3005 C3020 0.960 . S
H3006 C3020 0.960 . S
H3007 C3020 0.960 . S
C3008 H3000 0.929 . S
C3008 C3009 1.377 . S
C3008 C3010 1.384 . S
C3009 C3008 1.377 . S
C3009 C3015 1.390 . S
C3010 H3001 0.930 . S
C3010 C3008 1.384 . S
C3010 C3011 1.372 . S
C3011 C3010 1.372 . S
C3011 C3012 1.400 . S
C3011 C3016 1.490 . S
C3012 H3002 0.930 . S
C3012 C3011 1.400 . S
C3012 C3015 1.386 . S
H3013 C3029 0.930 . S
H3014 C3030 0.931 . S
C3015 H3003 0.929 . S
C3015 C3009 1.390 . S
C3015 C3012 1.386 . S
C3016 C3011 1.490 . S
C3016 C3018 1.395 . S
C3016 C3019 1.403 . S
H3017 C3023 0.930 . S
C3018 H3004 0.930 . S
C3018 C3016 1.395 . S
C3018 C3021 1.403 . S
C3019 C3016 1.403 . S
C3019 C3020 1.524 . S
C3019 C3023 1.400 . S
C3020 H3005 0.960 . S
C3020 H3006 0.960 . S
C3020 H3007 0.960 . S
C3020 C3019 1.524 . S
C3021 C3018 1.403 . S
C3021 C3022 1.392 . S
C3021 C3025 1.495 . S
C3022 C3021 1.392 . S
C3022 C3023 1.385 . S
C3022 C3024 1.478 . S
C3023 H3017 0.930 . S
C3023 C3019 1.400 . S
C3023 C3022 1.385 . S
C3024 C3022 1.478 . S
C3024 C3026 1.381 . S
C3024 C3030 1.383 . S
C3025 C3021 1.495 . S
C3025 H3031 0.959 . S
C3025 H3032 0.961 . S
C3025 H3033 0.960 . S
C3026 C3024 1.381 . S
C3026 C3027 1.394 . S
C3026 H3034 0.930 . S
C3027 C3026 1.394 . S
C3027 C3028 1.383 . S
C3027 H3035 0.929 . S
C3028 C3027 1.383 . S
C3028 C3029 1.377 . S
C3029 H3013 0.930 . S
C3029 C3028 1.377 . S
C3029 C3030 1.379 . S
C3030 H3014 0.931 . S
C3030 C3024 1.383 . S
C3030 C3029 1.379 . S
H3031 C3025 0.959 . S
H3032 C3025 0.961 . S
H3033 C3025 0.960 . S
H3034 C3026 0.930 . S
H3035 C3027 0.929 . S
H3036 C3044 0.929 . S
H3037 C3046 0.930 . S
H3038 C3048 0.930 . S
H3039 C3051 0.929 . S
H3040 C3054 0.930 . S
H3041 C3056 0.960 . S
H3042 C3056 0.960 . S
H3043 C3056 0.960 . S
C3044 H3036 0.929 . S
C3044 C3045 1.377 . S
C3044 C3046 1.384 . S
C3045 C3044 1.377 . S
C3045 C3051 1.390 1_455 S
C3046 H3037 0.930 . S
C3046 C3044 1.384 . S
C3046 C3047 1.372 . S
C3047 C3046 1.372 . S
C3047 C3048 1.400 1_455 S
C3047 C3052 1.490 . S
C3048 H3038 0.930 . S
C3048 C3047 1.400 1_655 S
C3048 C3051 1.386 . S
H3049 C3065 0.930 . S
H3050 C3066 0.931 . S
C3051 H3039 0.929 . S
C3051 C3045 1.390 1_655 S
C3051 C3048 1.386 . S
C3052 C3047 1.490 . S
C3052 C3054 1.395 . S
C3052 C3055 1.403 . S
H3053 C3059 0.930 . S
C3054 H3040 0.930 . S
C3054 C3052 1.395 . S
C3054 C3057 1.403 . S
C3055 C3052 1.403 . S
C3055 C3056 1.524 . S
C3055 C3059 1.400 . S
C3056 H3041 0.960 . S
C3056 H3042 0.960 . S
C3056 H3043 0.960 . S
C3056 C3055 1.524 . S
C3057 C3054 1.403 . S
C3057 C3058 1.392 . S
C3057 C3061 1.509 . S
C3058 C3057 1.392 . S
C3058 C3059 1.385 . S
C3058 C3060 1.478 . S
C3059 H3053 0.930 . S
C3059 C3055 1.400 . S
C3059 C3058 1.385 . S
C3060 C3058 1.478 . S
C3060 C3062 1.381 . S
C3060 C3066 1.383 1_455 S
C3061 C3057 1.509 . S
C3061 H3067 0.951 1_455 S
C3061 H3068 0.912 1_455 S
C3061 H3069 1.005 . S
C3062 C3060 1.381 . S
C3062 C3063 1.394 . S
C3062 H3070 0.930 . S
C3063 C3062 1.394 . S
C3063 C3064 1.383 . S
C3063 H3071 0.929 . S
C3064 C3063 1.383 . S
C3064 C3065 1.377 1_455 S
C3065 H3049 0.930 . S
C3065 C3064 1.377 1_655 S
C3065 C3066 1.379 . S
C3066 H3050 0.931 . S
C3066 C3060 1.383 1_655 S
C3066 C3065 1.379 . S
H3067 C3061 0.951 1_655 S
H3068 C3061 0.912 1_655 S
H3069 C3061 1.005 . S
H3070 C3062 0.930 . S
H3071 C3063 0.929 . S
H3072 C3080 0.929 . S
H3073 C3082 0.930 . S
H3074 C3084 0.930 . S
H3075 C3087 0.929 . S
H3076 C3090 0.930 . S
H3077 C3092 0.960 . S
H3078 C3092 0.960 . S
H3079 C3092 0.960 . S
C3080 H3072 0.929 . S
C3080 C3081 1.377 . S
C3080 C3082 1.384 . S
C3081 C3080 1.377 . S
C3081 C3087 1.390 . S
C3082 H3073 0.930 . S
C3082 C3080 1.384 . S
C3082 C3083 1.372 . S
C3083 C3082 1.372 . S
C3083 C3084 1.400 . S
C3083 C3088 1.490 . S
C3084 H3074 0.930 . S
C3084 C3083 1.400 . S
C3084 C3087 1.386 . S
H3085 C3101 0.902 1_554 S
H3086 C3102 0.931 . S
C3087 H3075 0.929 . S
C3087 C3081 1.390 . S
C3087 C3084 1.386 . S
C3088 C3083 1.490 . S
C3088 C3090 1.395 . S
C3088 C3091 1.403 . S
H3089 C3095 0.930 . S
C3090 H3076 0.930 . S
C3090 C3088 1.395 . S
C3090 C3093 1.403 . S
C3091 C3088 1.403 . S
C3091 C3092 1.524 . S
C3091 C3095 1.400 . S
C3092 H3077 0.960 . S
C3092 H3078 0.960 . S
C3092 H3079 0.960 . S
C3092 C3091 1.524 . S
C3093 C3090 1.403 . S
C3093 C3094 1.392 . S
C3093 C3097 1.495 . S
C3094 C3093 1.392 . S
C3094 C3095 1.385 . S
C3094 C3096 1.478 . S
C3095 H3089 0.930 . S
C3095 C3091 1.400 . S
C3095 C3094 1.385 . S
C3096 C3094 1.478 . S
C3096 C3098 1.381 . S
C3096 C3102 1.383 . S
C3097 C3093 1.495 . S
C3097 H3103 0.959 . S
C3097 H3104 0.961 . S
C3097 H3105 0.960 . S
C3098 C3096 1.381 . S
C3098 C3099 1.394 . S
C3098 H3106 0.930 . S
C3099 C3098 1.394 . S
C3099 C3100 1.395 . S
C3099 H3107 0.929 . S
C3100 C3099 1.395 . S
C3100 C3101 1.384 . S
C3101 H3085 0.902 1_556 S
C3101 C3100 1.384 . S
C3101 C3102 1.379 . S
C3102 H3086 0.931 . S
C3102 C3096 1.383 . S
C3102 C3101 1.379 . S
H3103 C3097 0.959 . S
H3104 C3097 0.961 . S
H3105 C3097 0.960 . S
H3106 C3098 0.930 . S
H3107 C3099 0.929 . S
H3108 C3116 0.929 . S
H3109 C3118 0.930 . S
H3110 C3120 0.930 . S
H3111 C3123 0.929 . S
H3112 C3126 0.930 . S
H3113 C3128 0.960 . S
H3114 C3128 0.960 . S
H3115 C3128 0.960 . S
C3116 H3108 0.929 . S
C3116 C3117 1.377 . S
C3116 C3118 1.384 . S
C3117 C3116 1.377 . S
C3117 C3123 1.390 . S
C3118 H3109 0.930 . S
C3118 C3116 1.384 . S
C3118 C3119 1.372 . S
C3119 C3118 1.372 . S
C3119 C3120 1.400 . S
C3119 C3124 1.490 . S
C3120 H3110 0.930 . S
C3120 C3119 1.400 . S
C3120 C3123 1.386 . S
H3121 C3137 0.930 . S
H3122 C3138 0.931 . S
C3123 H3111 0.929 . S
C3123 C3117 1.390 . S
C3123 C3120 1.386 . S
C3124 C3119 1.490 . S
C3124 C3126 1.395 . S
C3124 C3127 1.403 . S
H3125 C3131 0.930 . S
C3126 H3112 0.930 . S
C3126 C3124 1.395 . S
C3126 C3129 1.403 . S
C3127 C3124 1.403 . S
C3127 C3128 1.524 . S
C3127 C3131 1.400 . S
C3128 H3113 0.960 . S
C3128 H3114 0.960 . S
C3128 H3115 0.960 . S
C3128 C3127 1.524 . S
C3129 C3126 1.403 . S
C3129 C3130 1.392 . S
C3129 C3133 1.495 . S
C3130 C3129 1.392 . S
C3130 C3131 1.385 . S
C3130 C3132 1.478 . S
C3131 H3125 0.930 . S
C3131 C3127 1.400 . S
C3131 C3130 1.385 . S
C3132 C3130 1.478 . S
C3132 C3134 1.381 . S
C3132 C3138 1.383 . S
C3133 C3129 1.495 . S
C3133 H3139 0.959 . S
C3133 H3140 0.961 . S
C3133 H3141 0.960 . S
C3134 C3132 1.381 . S
C3134 C3135 1.394 . S
C3134 H3142 0.930 . S
C3135 C3134 1.394 . S
C3135 C3136 1.383 . S
C3135 H3143 0.929 . S
C3136 C3135 1.383 . S
C3136 C3137 1.377 . S
C3137 H3121 0.930 . S
C3137 C3136 1.377 . S
C3137 C3138 1.379 . S
C3138 H3122 0.931 . S
C3138 C3132 1.383 . S
C3138 C3137 1.379 . S
H3139 C3133 0.959 . S
H3140 C3133 0.961 . S
H3141 C3133 0.960 . S
H3142 C3134 0.930 . S
H3143 C3135 0.929 . S
H3144 C3152 0.929 . S
H3145 C3154 0.930 . S
H3146 C3156 0.930 . S
H3147 C3159 0.929 . S
H3148 C3162 0.930 . S
H3149 C3164 0.960 . S
H3150 C3164 0.960 . S
H3151 C3164 0.960 . S
C3152 H3144 0.929 . S
C3152 C3153 1.377 . S
C3152 C3154 1.384 . S
C3153 C3152 1.377 . S
C3153 C3159 1.390 . S
C3154 H3145 0.930 . S
C3154 C3152 1.384 . S
C3154 C3155 1.372 . S
C3155 C3154 1.372 . S
C3155 C3156 1.400 . S
C3155 C3160 1.490 . S
C3156 H3146 0.930 . S
C3156 C3155 1.400 . S
C3156 C3159 1.386 . S
H3157 C3173 0.930 . S
H3158 C3174 0.931 . S
C3159 H3147 0.929 . S
C3159 C3153 1.390 . S
C3159 C3156 1.386 . S
C3160 C3155 1.490 . S
C3160 C3162 1.395 . S
C3160 C3163 1.403 . S
H3161 C3167 0.930 . S
C3162 H3148 0.930 . S
C3162 C3160 1.395 . S
C3162 C3165 1.403 . S
C3163 C3160 1.403 . S
C3163 C3164 1.524 . S
C3163 C3167 1.400 . S
C3164 H3149 0.960 . S
C3164 H3150 0.960 . S
C3164 H3151 0.960 . S
C3164 C3163 1.524 . S
C3165 C3162 1.403 . S
C3165 C3166 1.392 . S
C3165 C3169 1.495 . S
C3166 C3165 1.392 . S
C3166 C3167 1.385 . S
C3166 C3168 1.478 . S
C3167 H3161 0.930 . S
C3167 C3163 1.400 . S
C3167 C3166 1.385 . S
C3168 C3166 1.478 . S
C3168 C3170 1.381 . S
C3168 C3174 1.383 . S
C3169 C3165 1.495 . S
C3169 H3175 0.959 . S
C3169 H3176 0.961 . S
C3169 H3177 0.960 . S
C3170 C3168 1.381 . S
C3170 C3171 1.394 . S
C3170 H3178 0.930 . S
C3171 C3170 1.394 . S
C3171 C3172 1.383 . S
C3171 H3179 0.929 . S
C3172 C3171 1.383 . S
C3172 C3173 1.377 . S
C3173 H3157 0.930 . S
C3173 C3172 1.377 . S
C3173 C3174 1.379 . S
C3174 H3158 0.931 . S
C3174 C3168 1.383 . S
C3174 C3173 1.379 . S
H3175 C3169 0.959 . S
H3176 C3169 0.961 . S
H3177 C3169 0.960 . S
H3178 C3170 0.930 . S
H3179 C3171 0.929 . S
H3180 C3188 0.929 . S
H3181 C3190 0.930 . S
H3182 C3192 0.930 1_545 S
H3183 C3195 0.929 1_545 S
H3184 C3198 0.930 . S
H3185 C3200 0.960 . S
H3186 C3200 0.960 . S
H3187 C3200 0.960 . S
C3188 H3180 0.929 . S
C3188 C3189 1.377 . S
C3188 C3190 1.384 . S
C3189 C3188 1.377 . S
C3189 C3195 1.390 . S
C3190 H3181 0.930 . S
C3190 C3188 1.384 . S
C3190 C3191 1.372 . S
C3191 C3190 1.372 . S
C3191 C3192 1.400 . S
C3191 C3196 1.490 . S
C3192 H3182 0.930 1_565 S
C3192 C3191 1.400 . S
C3192 C3195 1.386 . S
H3193 C3209 0.930 1_545 S
H3194 C3210 0.931 1_545 S
C3195 H3183 0.929 1_565 S
C3195 C3189 1.390 . S
C3195 C3192 1.386 . S
C3196 C3191 1.490 . S
C3196 C3198 1.395 . S
C3196 C3199 1.403 . S
H3197 C3203 0.930 . S
C3198 H3184 0.930 . S
C3198 C3196 1.395 . S
C3198 C3201 1.403 . S
C3199 C3196 1.403 . S
C3199 C3200 1.524 . S
C3199 C3203 1.400 . S
C3200 H3185 0.960 . S
C3200 H3186 0.960 . S
C3200 H3187 0.960 . S
C3200 C3199 1.524 . S
C3201 C3198 1.403 . S
C3201 C3202 1.392 . S
C3201 C3205 1.495 . S
C3202 C3201 1.392 . S
C3202 C3203 1.385 . S
C3202 C3204 1.478 . S
C3203 H3197 0.930 . S
C3203 C3199 1.400 . S
C3203 C3202 1.385 . S
C3204 C3202 1.478 . S
C3204 C3206 1.381 . S
C3204 C3210 1.383 . S
C3205 C3201 1.495 . S
C3205 H3211 0.959 . S
C3205 H3212 0.961 . S
C3205 H3213 0.960 . S
C3206 C3204 1.381 . S
C3206 C3207 1.394 . S
C3206 H3214 0.930 . S
C3207 C3206 1.394 . S
C3207 C3208 1.383 . S
C3207 H3215 0.929 . S
C3208 C3207 1.383 . S
C3208 C3209 1.377 . S
C3209 H3193 0.930 1_565 S
C3209 C3208 1.377 . S
C3209 C3210 1.379 . S
C3210 H3194 0.931 1_565 S
C3210 C3204 1.383 . S
C3210 C3209 1.379 . S
H3211 C3205 0.959 . S
H3212 C3205 0.961 . S
H3213 C3205 0.960 . S
H3214 C3206 0.930 . S
H3215 C3207 0.929 . S
H3216 C3224 0.929 . S
H3217 C3226 0.930 . S
H3218 C3228 0.930 . S
H3219 C3231 0.929 . S
H3220 C3234 0.930 . S
H3221 C3236 0.960 . S
H3222 C3236 0.960 . S
H3223 C3236 0.960 1_554 S
C3224 H3216 0.929 . S
C3224 C3225 1.377 . S
C3224 C3226 1.384 . S
C3225 C3224 1.377 . S
C3225 C3231 1.390 1_556 S
C3226 H3217 0.930 . S
C3226 C3224 1.384 . S
C3226 C3227 1.372 . S
C3227 C3226 1.372 . S
C3227 C3228 1.400 1_556 S
C3227 C3232 1.490 . S
C3228 H3218 0.930 . S
C3228 C3227 1.400 1_554 S
C3228 C3231 1.386 . S
H3229 C3245 0.930 . S
H3230 C3246 0.931 . S
C3231 H3219 0.929 . S
C3231 C3225 1.390 1_554 S
C3231 C3228 1.386 . S
C3232 C3227 1.490 . S
C3232 C3234 1.395 . S
C3232 C3235 1.403 . S
H3233 C3239 0.930 . S
C3234 H3220 0.930 . S
C3234 C3232 1.395 . S
C3234 C3237 1.403 1_556 S
C3235 C3232 1.403 . S
C3235 C3236 1.524 . S
C3235 C3239 1.400 1_556 S
C3236 H3221 0.960 . S
C3236 H3222 0.960 . S
C3236 H3223 0.960 1_556 S
C3236 C3235 1.524 . S
C3237 C3234 1.403 1_554 S
C3237 C3238 1.392 . S
C3237 C3241 1.495 . S
C3238 C3237 1.392 . S
C3238 C3239 1.385 . S
C3238 C3240 1.478 . S
C3239 H3233 0.930 . S
C3239 C3235 1.400 1_554 S
C3239 C3238 1.385 . S
C3240 C3238 1.478 . S
C3240 C3242 1.381 1_554 S
C3240 C3246 1.383 . S
C3241 C3237 1.495 . S
C3241 H3247 0.959 . S
C3241 H3248 0.961 . S
C3241 H3249 0.960 1_554 S
C3242 C3240 1.381 1_556 S
C3242 C3243 1.394 1_545 S
C3242 H3250 0.930 . S
C3243 C3242 1.394 1_565 S
C3243 C3244 1.383 1_556 S
C3243 H3251 0.929 . S
C3244 C3243 1.383 1_554 S
C3244 C3245 1.377 . S
C3245 H3229 0.930 . S
C3245 C3244 1.377 . S
C3245 C3246 1.379 1_565 S
C3246 H3230 0.931 . S
C3246 C3240 1.383 . S
C3246 C3245 1.379 1_545 S
H3247 C3241 0.959 . S
H3248 C3241 0.961 . S
H3249 C3241 0.960 1_556 S
H3250 C3242 0.930 . S
H3251 C3243 0.929 . S
H3252 C3260 0.929 . S
H3253 C3262 0.930 . S
H3254 C3264 0.930 . S
H3255 C3267 0.929 . S
H3256 C3270 0.930 . S
H3257 C3272 0.960 . S
H3258 C3272 0.960 . S
H3259 C3272 0.960 . S
C3260 H3252 0.929 . S
C3260 C3261 1.377 . S
C3260 C3262 1.384 . S
C3261 C3260 1.377 . S
C3261 C3267 1.390 . S
C3262 H3253 0.930 . S
C3262 C3260 1.384 . S
C3262 C3263 1.372 . S
C3263 C3262 1.372 . S
C3263 C3264 1.400 . S
C3263 C3268 1.490 . S
C3264 H3254 0.930 . S
C3264 C3263 1.400 . S
C3264 C3267 1.386 . S
H3265 C3281 0.930 . S
H3266 C3282 0.931 . S
C3267 H3255 0.929 . S
C3267 C3261 1.390 . S
C3267 C3264 1.386 . S
C3268 C3263 1.490 . S
C3268 C3270 1.395 . S
C3268 C3271 1.403 . S
H3269 C3275 0.930 . S
C3270 H3256 0.930 . S
C3270 C3268 1.395 . S
C3270 C3273 1.403 . S
C3271 C3268 1.403 . S
C3271 C3272 1.524 . S
C3271 C3275 1.400 . S
C3272 H3257 0.960 . S
C3272 H3258 0.960 . S
C3272 H3259 0.960 . S
C3272 C3271 1.524 . S
C3273 C3270 1.403 . S
C3273 C3274 1.392 . S
C3273 C3277 1.495 . S
C3274 C3273 1.392 . S
C3274 C3275 1.385 . S
C3274 C3276 1.478 . S
C3275 H3269 0.930 . S
C3275 C3271 1.400 . S
C3275 C3274 1.385 . S
C3276 C3274 1.478 . S
C3276 C3278 1.381 . S
C3276 C3282 1.383 . S
C3277 C3273 1.495 . S
C3277 H3283 0.959 . S
C3277 H3284 0.961 . S
C3277 H3285 0.960 . S
C3278 C3276 1.381 . S
C3278 C3279 1.394 . S
C3278 H3286 0.930 . S
C3279 C3278 1.394 . S
C3279 C3280 1.383 . S
C3279 H3287 0.929 . S
C3280 C3279 1.383 . S
C3280 C3281 1.377 . S
C3281 H3265 0.930 . S
C3281 C3280 1.377 . S
C3281 C3282 1.379 . S
C3282 H3266 0.931 . S
C3282 C3276 1.383 . S
C3282 C3281 1.379 . S
H3283 C3277 0.959 . S
H3284 C3277 0.961 . S
H3285 C3277 0.960 . S
H3286 C3278 0.930 . S
H3287 C3279 0.929 . S
H3288 C3296 0.929 . S
H3289 C3298 0.930 . S
H3290 C3300 0.930 . S
H3291 C3303 0.929 . S
H3292 C3306 0.930 . S
H3293 C3308 0.960 . S
H3294 C3308 0.960 . S
H3295 C3308 0.960 . S
C3296 H3288 0.929 . S
C3296 C3297 1.377 . S
C3296 C3298 1.384 . S
C3297 C3296 1.377 . S
C3297 C3303 1.390 . S
C3298 H3289 0.930 . S
C3298 C3296 1.384 . S
C3298 C3299 1.372 . S
C3299 C3298 1.372 . S
C3299 C3300 1.400 . S
C3299 C3304 1.490 . S
C3300 H3290 0.930 . S
C3300 C3299 1.400 . S
C3300 C3303 1.386 . S
H3301 C3317 0.930 . S
H3302 C3318 0.931 . S
C3303 H3291 0.929 . S
C3303 C3297 1.390 . S
C3303 C3300 1.386 . S
C3304 C3299 1.490 . S
C3304 C3306 1.395 . S
C3304 C3307 1.403 . S
H3305 C3311 0.930 . S
C3306 H3292 0.930 . S
C3306 C3304 1.395 . S
C3306 C3309 1.403 . S
C3307 C3304 1.403 . S
C3307 C3308 1.524 . S
C3307 C3311 1.400 . S
C3308 H3293 0.960 . S
C3308 H3294 0.960 . S
C3308 H3295 0.960 . S
C3308 C3307 1.524 . S
C3309 C3306 1.403 . S
C3309 C3310 1.392 . S
C3309 C3313 1.495 . S
C3310 C3309 1.392 . S
C3310 C3311 1.385 . S
C3310 C3312 1.478 . S
C3311 H3305 0.930 . S
C3311 C3307 1.400 . S
C3311 C3310 1.385 . S
C3312 C3310 1.478 . S
C3312 C3314 1.381 . S
C3312 C3318 1.383 . S
C3313 C3309 1.495 . S
C3313 H3319 0.959 . S
C3313 H3320 0.961 . S
C3313 H3321 0.960 . S
C3314 C3312 1.381 . S
C3314 C3315 1.394 . S
C3314 H3322 0.930 . S
C3315 C3314 1.394 . S
C3315 C3316 1.383 . S
C3315 H3323 0.929 . S
C3316 C3315 1.383 . S
C3316 C3317 1.377 . S
C3317 H3301 0.930 . S
C3317 C3316 1.377 . S
C3317 C3318 1.379 . S
C3318 H3302 0.931 . S
C3318 C3312 1.383 . S
C3318 C3317 1.379 . S
H3319 C3313 0.959 . S
H3320 C3313 0.961 . S
H3321 C3313 0.960 . S
H3322 C3314 0.930 . S
H3323 C3315 0.929 . S
H3324 C3332 0.929 1_565 S
H3325 C3334 0.930 1_565 S
H3326 C3336 0.930 . S
H3327 C3339 0.929 . S
H3328 C3342 0.930 . S
H3329 C3344 0.960 . S
H3330 C3344 0.960 . S
H3331 C3344 0.960 . S
C3332 H3324 0.929 1_545 S
C3332 C3333 1.377 . S
C3332 C3334 1.384 . S
C3333 C3332 1.377 . S
C3333 C3339 1.390 . S
C3334 H3325 0.930 1_545 S
C3334 C3332 1.384 . S
C3334 C3335 1.372 . S
C3335 C3334 1.372 . S
C3335 C3336 1.400 . S
C3335 C3340 1.490 . S
C3336 H3326 0.930 . S
C3336 C3335 1.400 . S
C3336 C3339 1.386 . S
H3337 C3353 0.930 . S
H3338 C3354 0.931 . S
C3339 H3327 0.929 . S
C3339 C3333 1.390 . S
C3339 C3336 1.386 . S
C3340 C3335 1.490 . S
C3340 C3342 1.395 . S
C3340 C3343 1.403 . S
H3341 C3347 0.930 . S
C3342 H3328 0.930 . S
C3342 C3340 1.395 . S
C3342 C3345 1.403 . S
C3343 C3340 1.403 . S
C3343 C3344 1.524 . S
C3343 C3347 1.400 . S
C3344 H3329 0.960 . S
C3344 H3330 0.960 . S
C3344 H3331 0.960 . S
C3344 C3343 1.524 . S
C3345 C3342 1.403 . S
C3345 C3346 1.392 . S
C3345 C3349 1.497 . S
C3346 C3345 1.392 . S
C3346 C3347 1.385 . S
C3346 C3348 1.478 . S
C3347 H3341 0.930 . S
C3347 C3343 1.400 . S
C3347 C3346 1.385 . S
C3348 C3346 1.478 . S
C3348 C3350 1.344 1_545 S
C3348 C3354 1.383 . S
C3349 C3345 1.497 . S
C3349 H3355 0.958 1_545 S
C3349 H3356 0.963 . S
C3349 H3357 0.957 1_545 S
C3350 C3348 1.344 1_565 S
C3350 C3351 1.394 . S
C3350 H3358 0.968 . S
C3351 C3350 1.394 . S
C3351 C3352 1.340 1_565 S
C3351 H3359 0.974 . S
C3352 C3351 1.340 1_545 S
C3352 C3353 1.377 . S
C3353 H3337 0.930 . S
C3353 C3352 1.377 . S
C3353 C3354 1.379 . S
C3354 H3338 0.931 . S
C3354 C3348 1.383 . S
C3354 C3353 1.379 . S
H3355 C3349 0.958 1_565 S
H3356 C3349 0.963 . S
H3357 C3349 0.957 1_565 S
H3358 C3350 0.968 . S
H3359 C3351 0.974 . S
H3360 C3368 0.929 . S
H3361 C3370 0.930 . S
H3362 C3372 0.930 . S
H3363 C3375 0.929 . S
H3364 C3378 0.930 . S
H3365 C3380 0.960 . S
H3366 C3380 0.960 . S
H3367 C3380 0.960 . S
C3368 H3360 0.929 . S
C3368 C3369 1.377 . S
C3368 C3370 1.384 1_545 S
C3369 C3368 1.377 . S
C3369 C3375 1.390 . S
C3370 H3361 0.930 . S
C3370 C3368 1.384 1_565 S
C3370 C3371 1.372 . S
C3371 C3370 1.372 . S
C3371 C3372 1.400 1_565 S
C3371 C3376 1.490 . S
C3372 H3362 0.930 . S
C3372 C3371 1.400 1_545 S
C3372 C3375 1.386 . S
H3373 C3389 0.930 . S
H3374 C3390 0.931 . S
C3375 H3363 0.929 . S
C3375 C3369 1.390 . S
C3375 C3372 1.386 . S
C3376 C3371 1.490 . S
C3376 C3378 1.395 . S
C3376 C3379 1.403 . S
H3377 C3383 0.930 . S
C3378 H3364 0.930 . S
C3378 C3376 1.395 . S
C3378 C3381 1.403 . S
C3379 C3376 1.403 . S
C3379 C3380 1.524 . S
C3379 C3383 1.400 . S
C3380 H3365 0.960 . S
C3380 H3366 0.960 . S
C3380 H3367 0.960 . S
C3380 C3379 1.524 . S
C3381 C3378 1.403 . S
C3381 C3382 1.392 . S
C3381 C3385 1.495 . S
C3382 C3381 1.392 . S
C3382 C3383 1.385 . S
C3382 C3384 1.478 . S
C3383 H3377 0.930 . S
C3383 C3379 1.400 . S
C3383 C3382 1.385 . S
C3384 C3382 1.478 . S
C3384 C3386 1.381 . S
C3384 C3390 1.383 . S
C3385 C3381 1.495 . S
C3385 H3391 0.959 . S
C3385 H3392 0.961 . S
C3385 H3393 0.960 . S
C3386 C3384 1.381 . S
C3386 C3387 1.394 . S
C3386 H3394 0.930 . S
C3387 C3386 1.394 . S
C3387 C3388 1.383 . S
C3387 H3395 0.929 . S
C3388 C3387 1.383 . S
C3388 C3389 1.377 . S
C3389 H3373 0.930 . S
C3389 C3388 1.377 . S
C3389 C3390 1.379 . S
C3390 H3374 0.931 . S
C3390 C3384 1.383 . S
C3390 C3389 1.379 . S
H3391 C3385 0.959 . S
H3392 C3385 0.961 . S
H3393 C3385 0.960 . S
H3394 C3386 0.930 . S
H3395 C3387 0.929 . S
H3396 C3404 0.929 . S
H3397 C3406 0.930 . S
H3398 C3408 0.930 . S
H3399 C3411 0.929 . S
H3400 C3414 0.930 . S
H3401 C3416 0.960 . S
H3402 C3416 0.960 . S
H3403 C3416 0.960 . S
C3404 H3396 0.929 . S
C3404 C3405 1.377 . S
C3404 C3406 1.384 . S
C3405 C3404 1.377 . S
C3405 C3411 1.390 . S
C3406 H3397 0.930 . S
C3406 C3404 1.384 . S
C3406 C3407 1.372 . S
C3407 C3406 1.372 . S
C3407 C3408 1.400 . S
C3407 C3412 1.490 . S
C3408 H3398 0.930 . S
C3408 C3407 1.400 . S
C3408 C3411 1.386 . S
H3409 C3425 0.930 . S
H3410 C3426 0.931 . S
C3411 H3399 0.929 . S
C3411 C3405 1.390 . S
C3411 C3408 1.386 . S
C3412 C3407 1.490 . S
C3412 C3414 1.395 . S
C3412 C3415 1.403 . S
H3413 C3419 0.930 . S
C3414 H3400 0.930 . S
C3414 C3412 1.395 . S
C3414 C3417 1.403 . S
C3415 C3412 1.403 . S
C3415 C3416 1.524 . S
C3415 C3419 1.400 . S
C3416 H3401 0.960 . S
C3416 H3402 0.960 . S
C3416 H3403 0.960 . S
C3416 C3415 1.524 . S
C3417 C3414 1.403 . S
C3417 C3418 1.392 . S
C3417 C3421 1.495 . S
C3418 C3417 1.392 . S
C3418 C3419 1.385 . S
C3418 C3420 1.478 . S
C3419 H3413 0.930 . S
C3419 C3415 1.400 . S
C3419 C3418 1.385 . S
C3420 C3418 1.478 . S
C3420 C3422 1.381 . S
C3420 C3426 1.383 . S
C3421 C3417 1.495 . S
C3421 H3427 0.959 . S
C3421 H3428 0.961 . S
C3421 H3429 0.960 . S
C3422 C3420 1.381 . S
C3422 C3423 1.394 . S
C3422 H3430 0.930 . S
C3423 C3422 1.394 . S
C3423 C3424 1.383 . S
C3423 H3431 0.929 . S
C3424 C3423 1.383 . S
C3424 C3425 1.377 . S
C3425 H3409 0.930 . S
C3425 C3424 1.377 . S
C3425 C3426 1.379 . S
C3426 H3410 0.931 . S
C3426 C3420 1.383 . S
C3426 C3425 1.379 . S
H3427 C3421 0.959 . S
H3428 C3421 0.961 . S
H3429 C3421 0.960 . S
H3430 C3422 0.930 . S
H3431 C3423 0.929 . S
H3432 C3440 0.929 1_556 S
H3433 C3442 0.930 . S
H3434 C3444 0.930 . S
H3435 C3447 0.929 . S
H3436 C3450 0.930 . S
H3437 C3452 0.960 . S
H3438 C3452 0.960 . S
H3439 C3452 0.960 . S
C3440 H3432 0.929 1_554 S
C3440 C3441 1.377 . S
C3440 C3442 1.384 1_554 S
C3441 C3440 1.377 . S
C3441 C3447 1.390 . S
C3442 H3433 0.930 . S
C3442 C3440 1.384 1_556 S
C3442 C3443 1.372 1_556 S
C3443 C3442 1.372 1_554 S
C3443 C3444 1.400 . S
C3443 C3448 1.490 . S
C3444 H3434 0.930 . S
C3444 C3443 1.400 . S
C3444 C3447 1.386 . S
H3445 C3461 0.930 1_554 S
H3446 C3462 0.964 . S
C3447 H3435 0.929 . S
C3447 C3441 1.390 . S
C3447 C3444 1.386 . S
C3448 C3443 1.490 . S
C3448 C3450 1.395 . S
C3448 C3451 1.403 1_554 S
H3449 C3455 0.930 . S
C3450 H3436 0.930 . S
C3450 C3448 1.395 . S
C3450 C3453 1.403 . S
C3451 C3448 1.403 1_556 S
C3451 C3452 1.524 . S
C3451 C3455 1.400 . S
C3452 H3437 0.960 . S
C3452 H3438 0.960 . S
C3452 H3439 0.960 . S
C3452 C3451 1.524 . S
C3453 C3450 1.403 . S
C3453 C3454 1.392 1_554 S
C3453 C3457 1.495 . S
C3454 C3453 1.392 1_556 S
C3454 C3455 1.385 . S
C3454 C3456 1.478 . S
C3455 H3449 0.930 . S
C3455 C3451 1.400 . S
C3455 C3454 1.385 . S
C3456 C3454 1.478 . S
C3456 C3458 1.381 . S
C3456 C3462 1.362 1_556 S
C3457 C3453 1.495 . S
C3457 H3463 0.959 . S
C3457 H3464 0.961 . S
C3457 H3465 0.960 . S
C3458 C3456 1.381 . S
C3458 C3459 1.394 . S
C3458 H3466 0.930 . S
C3459 C3458 1.394 . S
C3459 C3460 1.383 . S
C3459 H3467 0.929 . S
C3460 C3459 1.383 . S
C3460 C3461 1.377 . S
C3461 H3445 0.930 1_556 S
C3461 C3460 1.377 . S
C3461 C3462 1.370 1_556 S
C3462 H3446 0.964 . S
C3462 C3456 1.362 1_554 S
C3462 C3461 1.370 1_554 S
H3463 C3457 0.959 . S
H3464 C3457 0.961 . S
H3465 C3457 0.960 . S
H3466 C3458 0.930 . S
H3467 C3459 0.929 . S
H3468 C3476 0.929 . S
H3469 C3478 0.930 . S
H3470 C3480 0.930 . S
H3471 C3483 0.929 . S
H3472 C3486 0.930 . S
H3473 C3488 0.960 . S
H3474 C3488 0.960 1_556 S
H3475 C3488 0.960 . S
C3476 H3468 0.929 . S
C3476 C3477 1.377 . S
C3476 C3478 1.384 . S
C3477 C3476 1.377 . S
C3477 C3483 1.390 1_556 S
C3478 H3469 0.930 . S
C3478 C3476 1.384 . S
C3478 C3479 1.372 . S
C3479 C3478 1.372 . S
C3479 C3480 1.400 1_556 S
C3479 C3484 1.490 . S
C3480 H3470 0.930 . S
C3480 C3479 1.400 1_554 S
C3480 C3483 1.386 . S
H3481 C3497 0.930 . S
H3482 C3498 0.931 . S
C3483 H3471 0.929 . S
C3483 C3477 1.390 1_554 S
C3483 C3480 1.386 . S
C3484 C3479 1.490 . S
C3484 C3486 1.395 . S
C3484 C3487 1.403 1_556 S
H3485 C3491 0.930 . S
C3486 H3472 0.930 . S
C3486 C3484 1.395 . S
C3486 C3489 1.403 . S
C3487 C3484 1.403 1_554 S
C3487 C3488 1.524 . S
C3487 C3491 1.400 . S
C3488 H3473 0.960 . S
C3488 H3474 0.960 1_554 S
C3488 H3475 0.960 . S
C3488 C3487 1.524 . S
C3489 C3486 1.403 . S
C3489 C3490 1.378 1_556 S
C3489 C3493 1.495 . S
C3490 C3489 1.378 1_554 S
C3490 C3491 1.395 . S
C3490 C3492 1.484 . S
C3491 H3485 0.930 . S
C3491 C3487 1.400 . S
C3491 C3490 1.395 . S
C3492 C3490 1.484 . S
C3492 C3494 1.381 1_554 S
C3492 C3498 1.383 . S
C3493 C3489 1.495 . S
C3493 H3499 0.959 . S
C3493 H3500 0.961 . S
C3493 H3501 0.960 . S
C3494 C3492 1.381 1_556 S
C3494 C3495 1.394 . S
C3494 H3502 0.930 . S
C3495 C3494 1.394 . S
C3495 C3496 1.383 1_556 S
C3495 H3503 0.929 . S
C3496 C3495 1.383 1_554 S
C3496 C3497 1.377 . S
C3497 H3481 0.930 . S
C3497 C3496 1.377 . S
C3497 C3498 1.379 . S
C3498 H3482 0.931 . S
C3498 C3492 1.383 . S
C3498 C3497 1.379 . S
H3499 C3493 0.959 . S
H3500 C3493 0.961 . S
H3501 C3493 0.960 . S
H3502 C3494 0.930 . S
H3503 C3495 0.929 . S
H3504 C3512 0.929 . S
H3505 C3514 0.930 . S
H3506 C3516 0.930 . S
H3507 C3519 0.929 . S
H3508 C3522 0.930 . S
H3509 C3524 0.960 . S
H3510 C3524 0.960 . S
H3511 C3524 0.960 . S
C3512 H3504 0.929 . S
C3512 C3513 1.377 . S
C3512 C3514 1.384 . S
C3513 C3512 1.377 . S
C3513 C3519 1.390 . S
C3514 H3505 0.930 . S
C3514 C3512 1.384 . S
C3514 C3515 1.372 . S
C3515 C3514 1.372 . S
C3515 C3516 1.400 . S
C3515 C3520 1.490 . S
C3516 H3506 0.930 . S
C3516 C3515 1.400 . S
C3516 C3519 1.386 . S
H3517 C3533 0.930 . S
H3518 C3534 0.931 . S
C3519 H3507 0.929 . S
C3519 C3513 1.390 . S
C3519 C3516 1.386 . S
C3520 C3515 1.490 . S
C3520 C3522 1.395 . S
C3520 C3523 1.403 . S
H3521 C3527 0.930 . S
C3522 H3508 0.930 . S
C3522 C3520 1.395 . S
C3522 C3525 1.403 . S
C3523 C3520 1.403 . S
C3523 C3524 1.524 . S
C3523 C3527 1.400 . S
C3524 H3509 0.960 . S
C3524 H3510 0.960 . S
C3524 H3511 0.960 . S
C3524 C3523 1.524 . S
C3525 C3522 1.403 . S
C3525 C3526 1.392 . S
C3525 C3529 1.495 . S
C3526 C3525 1.392 . S
C3526 C3527 1.385 . S
C3526 C3528 1.478 . S
C3527 H3521 0.930 . S
C3527 C3523 1.400 . S
C3527 C3526 1.385 . S
C3528 C3526 1.478 . S
C3528 C3530 1.381 . S
C3528 C3534 1.383 . S
C3529 C3525 1.495 . S
C3529 H3535 0.959 . S
C3529 H3536 0.961 . S
C3529 H3537 0.960 . S
C3530 C3528 1.381 . S
C3530 C3531 1.394 . S
C3530 H3538 0.930 . S
C3531 C3530 1.394 . S
C3531 C3532 1.383 . S
C3531 H3539 0.929 . S
C3532 C3531 1.383 . S
C3532 C3533 1.377 . S
C3533 H3517 0.930 . S
C3533 C3532 1.377 . S
C3533 C3534 1.379 . S
C3534 H3518 0.931 . S
C3534 C3528 1.383 . S
C3534 C3533 1.379 . S
H3535 C3529 0.959 . S
H3536 C3529 0.961 . S
H3537 C3529 0.960 . S
H3538 C3530 0.930 . S
H3539 C3531 0.929 . S
H3540 C3548 0.929 . S
H3541 C3550 0.930 1_554 S
H3542 C3552 0.930 . S
H3543 C3555 0.929 . S
H3544 C3558 0.930 . S
H3545 C3560 0.960 . S
H3546 C3560 0.960 . S
H3547 C3560 0.960 . S
C3548 H3540 0.929 . S
C3548 C3549 1.377 1_554 S
C3548 C3550 1.384 1_554 S
C3549 C3548 1.377 1_556 S
C3549 C3555 1.390 . S
C3550 H3541 0.930 1_556 S
C3550 C3548 1.384 1_556 S
C3550 C3551 1.372 . S
C3551 C3550 1.372 . S
C3551 C3552 1.400 . S
C3551 C3556 1.490 . S
C3552 H3542 0.930 . S
C3552 C3551 1.400 . S
C3552 C3555 1.386 . S
H3553 C3569 0.930 . S
H3554 C3570 0.931 . S
C3555 H3543 0.929 . S
C3555 C3549 1.390 . S
C3555 C3552 1.386 . S
C3556 C3551 1.490 . S
C3556 C3558 1.395 . S
C3556 C3559 1.403 . S
H3557 C3563 0.930 . S
C3558 H3544 0.930 . S
C3558 C3556 1.395 . S
C3558 C3561 1.403 . S
C3559 C3556 1.403 . S
C3559 C3560 1.524 . S
C3559 C3563 1.400 . S
C3560 H3545 0.960 . S
C3560 H3546 0.960 . S
C3560 H3547 0.960 . S
C3560 C3559 1.524 . S
C3561 C3558 1.403 . S
C3561 C3562 1.392 . S
C3561 C3565 1.495 . S
C3562 C3561 1.392 . S
C3562 C3563 1.385 . S
C3562 C3564 1.478 . S
C3563 H3557 0.930 . S
C3563 C3559 1.400 . S
C3563 C3562 1.385 . S
C3564 C3562 1.478 . S
C3564 C3566 1.381 . S
C3564 C3570 1.383 . S
C3565 C3561 1.495 . S
C3565 H3571 0.959 . S
C3565 H3572 0.961 . S
C3565 H3573 0.960 . S
C3566 C3564 1.381 . S
C3566 C3567 1.394 . S
C3566 H3574 0.930 . S
C3567 C3566 1.394 . S
C3567 C3568 1.383 . S
C3567 H3575 0.929 . S
C3568 C3567 1.383 . S
C3568 C3569 1.377 . S
C3569 H3553 0.930 . S
C3569 C3568 1.377 . S
C3569 C3570 1.379 . S
C3570 H3554 0.931 . S
C3570 C3564 1.383 . S
C3570 C3569 1.379 . S
H3571 C3565 0.959 . S
H3572 C3565 0.961 . S
H3573 C3565 0.960 . S
H3574 C3566 0.930 . S
H3575 C3567 0.929 . S
H3576 C3584 0.929 . S
H3577 C3586 0.930 . S
H3578 C3588 0.930 . S
H3579 C3591 0.929 . S
H3580 C3594 0.930 . S
H3581 C3596 0.960 . S
H3582 C3596 0.960 . S
H3583 C3596 0.960 . S
C3584 H3576 0.929 . S
C3584 C3585 1.377 . S
C3584 C3586 1.384 . S
C3585 C3584 1.377 . S
C3585 C3591 1.390 . S
C3586 H3577 0.930 . S
C3586 C3584 1.384 . S
C3586 C3587 1.372 . S
C3587 C3586 1.372 . S
C3587 C3588 1.400 . S
C3587 C3592 1.490 . S
C3588 H3578 0.930 . S
C3588 C3587 1.400 . S
C3588 C3591 1.386 . S
H3589 C3605 0.930 . S
H3590 C3606 0.931 . S
C3591 H3579 0.929 . S
C3591 C3585 1.390 . S
C3591 C3588 1.386 . S
C3592 C3587 1.490 . S
C3592 C3594 1.395 . S
C3592 C3595 1.403 . S
H3593 C3599 0.930 . S
C3594 H3580 0.930 . S
C3594 C3592 1.395 . S
C3594 C3597 1.403 . S
C3595 C3592 1.403 . S
C3595 C3596 1.524 . S
C3595 C3599 1.400 . S
C3596 H3581 0.960 . S
C3596 H3582 0.960 . S
C3596 H3583 0.960 . S
C3596 C3595 1.524 . S
C3597 C3594 1.403 . S
C3597 C3598 1.392 . S
C3597 C3601 1.495 . S
C3598 C3597 1.392 . S
C3598 C3599 1.385 . S
C3598 C3600 1.478 . S
C3599 H3593 0.930 . S
C3599 C3595 1.400 . S
C3599 C3598 1.385 . S
C3600 C3598 1.478 . S
C3600 C3602 1.381 . S
C3600 C3606 1.383 . S
C3601 C3597 1.495 . S
C3601 H3607 0.959 . S
C3601 H3608 0.961 . S
C3601 H3609 0.960 . S
C3602 C3600 1.381 . S
C3602 C3603 1.394 . S
C3602 H3610 0.930 . S
C3603 C3602 1.394 . S
C3603 C3604 1.383 . S
C3603 H3611 0.929 . S
C3604 C3603 1.383 . S
C3604 C3605 1.377 . S
C3605 H3589 0.930 . S
C3605 C3604 1.377 . S
C3605 C3606 1.379 . S
C3606 H3590 0.931 . S
C3606 C3600 1.383 . S
C3606 C3605 1.379 . S
H3607 C3601 0.959 . S
H3608 C3601 0.961 . S
H3609 C3601 0.960 . S
H3610 C3602 0.930 . S
H3611 C3603 0.929 . S
H3612 C3620 0.929 . S
H3613 C3622 0.930 . S
H3614 C3624 0.930 . S
H3615 C3627 0.929 . S
H3616 C3630 0.930 . S
H3617 C3632 0.960 . S
H3618 C3632 0.960 . S
H3619 C3632 0.960 . S
C3620 H3612 0.929 . S
C3620 C3621 1.377 . S
C3620 C3622 1.384 . S
C3621 C3620 1.377 . S
C3621 C3627 1.390 . S
C3622 H3613 0.930 . S
C3622 C3620 1.384 . S
C3622 C3623 1.372 . S
C3623 C3622 1.372 . S
C3623 C3624 1.400 . S
C3623 C3628 1.490 . S
C3624 H3614 0.930 . S
C3624 C3623 1.400 . S
C3624 C3627 1.386 . S
H3625 C3641 0.930 . S
H3626 C3642 0.931 . S
C3627 H3615 0.929 . S
C3627 C3621 1.390 . S
C3627 C3624 1.386 . S
C3628 C3623 1.490 . S
C3628 C3630 1.395 . S
C3628 C3631 1.403 . S
H3629 C3635 0.930 . S
C3630 H3616 0.930 . S
C3630 C3628 1.395 . S
C3630 C3633 1.403 . S
C3631 C3628 1.403 . S
C3631 C3632 1.524 . S
C3631 C3635 1.400 . S
C3632 H3617 0.960 . S
C3632 H3618 0.960 . S
C3632 H3619 0.960 . S
C3632 C3631 1.524 . S
C3633 C3630 1.403 . S
C3633 C3634 1.392 . S
C3633 C3637 1.495 . S
C3634 C3633 1.392 . S
C3634 C3635 1.385 . S
C3634 C3636 1.478 . S
C3635 H3629 0.930 . S
C3635 C3631 1.400 . S
C3635 C3634 1.385 . S
C3636 C3634 1.478 . S
C3636 C3638 1.381 . S
C3636 C3642 1.383 . S
C3637 C3633 1.495 . S
C3637 H3643 0.959 . S
C3637 H3644 0.961 . S
C3637 H3645 0.960 . S
C3638 C3636 1.381 . S
C3638 C3639 1.394 . S
C3638 H3646 0.930 . S
C3639 C3638 1.394 . S
C3639 C3640 1.383 . S
C3639 H3647 0.929 . S
C3640 C3639 1.383 . S
C3640 C3641 1.377 . S
C3641 H3625 0.930 . S
C3641 C3640 1.377 . S
C3641 C3642 1.379 . S
C3642 H3626 0.931 . S
C3642 C3636 1.383 . S
C3642 C3641 1.379 . S
H3643 C3637 0.959 . S
H3644 C3637 0.961 . S
H3645 C3637 0.960 . S
H3646 C3638 0.930 . S
H3647 C3639 0.929 . S
H3648 C3656 0.929 . S
H3649 C3658 0.930 . S
H3650 C3660 0.930 . S
H3651 C3663 0.929 . S
H3652 C3666 0.930 . S
H3653 C3668 0.960 . S
H3654 C3668 0.960 . S
H3655 C3668 0.960 . S
C3656 H3648 0.929 . S
C3656 C3657 1.387 . S
C3656 C3658 1.384 . S
C3657 C3656 1.387 . S
C3657 C3663 1.381 1_655 S
C3658 H3649 0.930 . S
C3658 C3656 1.384 . S
C3658 C3659 1.372 . S
C3659 C3658 1.372 . S
C3659 C3660 1.400 1_655 S
C3659 C3664 1.490 . S
C3660 H3650 0.930 . S
C3660 C3659 1.400 1_455 S
C3660 C3663 1.386 . S
H3661 C3677 0.930 . S
H3662 C3678 0.931 . S
C3663 H3651 0.929 . S
C3663 C3657 1.381 1_455 S
C3663 C3660 1.386 . S
C3664 C3659 1.490 . S
C3664 C3666 1.395 . S
C3664 C3667 1.403 1_655 S
H3665 C3671 0.930 . S
C3666 H3652 0.930 . S
C3666 C3664 1.395 . S
C3666 C3669 1.403 . S
C3667 C3664 1.403 1_455 S
C3667 C3668 1.524 . S
C3667 C3671 1.400 . S
C3668 H3653 0.960 . S
C3668 H3654 0.960 . S
C3668 H3655 0.960 . S
C3668 C3667 1.524 . S
C3669 C3666 1.403 . S
C3669 C3670 1.392 . S
C3669 C3673 1.495 . S
C3670 C3669 1.392 . S
C3670 C3671 1.385 1_655 S
C3670 C3672 1.478 . S
C3671 H3665 0.930 . S
C3671 C3667 1.400 . S
C3671 C3670 1.385 1_455 S
C3672 C3670 1.478 . S
C3672 C3674 1.381 . S
C3672 C3678 1.383 1_655 S
C3673 C3669 1.495 . S
C3673 H3679 0.959 . S
C3673 H3680 0.961 . S
C3673 H3681 0.960 . S
C3674 C3672 1.381 . S
C3674 C3675 1.394 . S
C3674 H3682 0.930 . S
C3675 C3674 1.394 . S
C3675 C3676 1.383 . S
C3675 H3683 0.929 . S
C3676 C3675 1.383 . S
C3676 C3677 1.377 1_655 S
C3677 H3661 0.930 . S
C3677 C3676 1.377 1_455 S
C3677 C3678 1.379 . S
C3678 H3662 0.931 . S
C3678 C3672 1.383 1_455 S
C3678 C3677 1.379 . S
H3679 C3673 0.959 . S
H3680 C3673 0.961 . S
H3681 C3673 0.960 . S
H3682 C3674 0.930 . S
H3683 C3675 0.929 . S
H3684 C3692 0.929 . S
H3685 C3694 0.930 . S
H3686 C3696 0.930 . S
H3687 C3699 0.929 . S
H3688 C3702 0.930 . S
H3689 C3704 0.960 . S
H3690 C3704 0.960 . S
H3691 C3704 0.960 . S
C3692 H3684 0.929 . S
C3692 C3693 1.377 . S
C3692 C3694 1.384 . S
C3693 C3692 1.377 . S
C3693 C3699 1.390 . S
C3694 H3685 0.930 . S
C3694 C3692 1.384 . S
C3694 C3695 1.372 . S
C3695 C3694 1.372 . S
C3695 C3696 1.400 . S
C3695 C3700 1.490 . S
C3696 H3686 0.930 . S
C3696 C3695 1.400 . S
C3696 C3699 1.386 . S
H3697 C3713 0.966 . S
H3698 C3714 0.931 . S
C3699 H3687 0.929 . S
C3699 C3693 1.390 . S
C3699 C3696 1.386 . S
C3700 C3695 1.490 . S
C3700 C3702 1.395 . S
C3700 C3703 1.403 . S
H3701 C3707 0.930 . S
C3702 H3688 0.930 . S
C3702 C3700 1.395 . S
C3702 C3705 1.403 . S
C3703 C3700 1.403 . S
C3703 C3704 1.524 . S
C3703 C3707 1.400 . S
C3704 H3689 0.960 . S
C3704 H3690 0.960 . S
C3704 H3691 0.960 . S
C3704 C3703 1.524 . S
C3705 C3702 1.403 . S
C3705 C3706 1.392 . S
C3705 C3709 1.495 . S
C3706 C3705 1.392 . S
C3706 C3707 1.385 . S
C3706 C3708 1.478 . S
C3707 H3701 0.930 . S
C3707 C3703 1.400 . S
C3707 C3706 1.385 . S
C3708 C3706 1.478 . S
C3708 C3710 1.381 . S
C3708 C3714 1.383 . S
C3709 C3705 1.495 . S
C3709 H3715 0.959 . S
C3709 H3716 0.961 . S
C3709 H3717 0.960 . S
C3710 C3708 1.381 . S
C3710 C3711 1.394 . S
C3710 H3718 0.930 . S
C3711 C3710 1.394 . S
C3711 C3712 1.383 . S
C3711 H3719 0.929 . S
C3712 C3711 1.383 . S
C3712 C3713 1.377 . S
C3713 H3697 0.966 . S
C3713 C3712 1.377 . S
C3713 C3714 1.379 . S
C3714 H3698 0.931 . S
C3714 C3708 1.383 . S
C3714 C3713 1.379 . S
H3715 C3709 0.959 . S
H3716 C3709 0.961 . S
H3717 C3709 0.960 . S
H3718 C3710 0.930 . S
H3719 C3711 0.929 . S
H3720 C3728 0.929 . S
H3721 C3730 0.930 . S
H3722 C3732 0.930 . S
H3723 C3735 0.929 . S
H3724 C3738 0.930 . S
H3725 C3740 0.960 . S
H3726 C3740 0.960 . S
H3727 C3740 0.960 . S
C3728 H3720 0.929 . S
C3728 C3729 1.377 . S
C3728 C3730 1.384 . S
C3729 C3728 1.377 . S
C3729 C3735 1.390 . S
C3730 H3721 0.930 . S
C3730 C3728 1.384 . S
C3730 C3731 1.372 . S
C3731 C3730 1.372 . S
C3731 C3732 1.400 . S
C3731 C3736 1.490 . S
C3732 H3722 0.930 . S
C3732 C3731 1.400 . S
C3732 C3735 1.386 . S
H3733 C3749 0.930 . S
H3734 C3750 0.931 . S
C3735 H3723 0.929 . S
C3735 C3729 1.390 . S
C3735 C3732 1.386 . S
C3736 C3731 1.490 . S
C3736 C3738 1.395 . S
C3736 C3739 1.403 . S
H3737 C3743 0.930 . S
C3738 H3724 0.930 . S
C3738 C3736 1.395 . S
C3738 C3741 1.403 . S
C3739 C3736 1.403 . S
C3739 C3740 1.524 . S
C3739 C3743 1.400 . S
C3740 H3725 0.960 . S
C3740 H3726 0.960 . S
C3740 H3727 0.960 . S
C3740 C3739 1.524 . S
C3741 C3738 1.403 . S
C3741 C3742 1.392 . S
C3741 C3745 1.495 . S
C3742 C3741 1.392 . S
C3742 C3743 1.385 . S
C3742 C3744 1.478 . S
C3743 H3737 0.930 . S
C3743 C3739 1.400 . S
C3743 C3742 1.385 . S
C3744 C3742 1.478 . S
C3744 C3746 1.381 . S
C3744 C3750 1.383 . S
C3745 C3741 1.495 . S
C3745 H3751 0.959 . S
C3745 H3752 0.961 . S
C3745 H3753 0.960 . S
C3746 C3744 1.381 . S
C3746 C3747 1.394 1_655 S
C3746 H3754 0.930 1_655 S
C3747 C3746 1.394 1_455 S
C3747 C3748 1.383 1_455 S
C3747 H3755 0.929 . S
C3748 C3747 1.383 1_655 S
C3748 C3749 1.377 . S
C3749 H3733 0.930 . S
C3749 C3748 1.377 . S
C3749 C3750 1.379 . S
C3750 H3734 0.931 . S
C3750 C3744 1.383 . S
C3750 C3749 1.379 . S
H3751 C3745 0.959 . S
H3752 C3745 0.961 . S
H3753 C3745 0.960 . S
H3754 C3746 0.930 1_455 S
H3755 C3747 0.929 . S
H3756 C3764 0.929 . S
H3757 C3766 0.930 . S
H3758 C3768 0.930 . S
H3759 C3771 0.929 . S
H3760 C3774 0.930 . S
H3761 C3776 0.960 . S
H3762 C3776 0.960 . S
H3763 C3776 0.960 . S
C3764 H3756 0.929 . S
C3764 C3765 1.377 . S
C3764 C3766 1.384 . S
C3765 C3764 1.377 . S
C3765 C3771 1.390 . S
C3766 H3757 0.930 . S
C3766 C3764 1.384 . S
C3766 C3767 1.372 . S
C3767 C3766 1.372 . S
C3767 C3768 1.400 . S
C3767 C3772 1.490 . S
C3768 H3758 0.930 . S
C3768 C3767 1.400 . S
C3768 C3771 1.386 . S
H3769 C3785 0.930 . S
H3770 C3786 0.931 . S
C3771 H3759 0.929 . S
C3771 C3765 1.390 . S
C3771 C3768 1.386 . S
C3772 C3767 1.490 . S
C3772 C3774 1.395 . S
C3772 C3775 1.403 . S
H3773 C3779 0.930 . S
C3774 H3760 0.930 . S
C3774 C3772 1.395 . S
C3774 C3777 1.403 . S
C3775 C3772 1.403 . S
C3775 C3776 1.524 . S
C3775 C3779 1.400 . S
C3776 H3761 0.960 . S
C3776 H3762 0.960 . S
C3776 H3763 0.960 . S
C3776 C3775 1.524 . S
C3777 C3774 1.403 . S
C3777 C3778 1.392 . S
C3777 C3781 1.495 . S
C3778 C3777 1.392 . S
C3778 C3779 1.385 . S
C3778 C3780 1.478 . S
C3779 H3773 0.930 . S
C3779 C3775 1.400 . S
C3779 C3778 1.385 . S
C3780 C3778 1.478 . S
C3780 C3782 1.381 . S
C3780 C3786 1.383 . S
C3781 C3777 1.495 . S
C3781 H3787 0.959 . S
C3781 H3788 0.961 . S
C3781 H3789 0.960 . S
C3782 C3780 1.381 . S
C3782 C3783 1.394 . S
C3782 H3790 0.930 . S
C3783 C3782 1.394 . S
C3783 C3784 1.383 . S
C3783 H3791 0.929 . S
C3784 C3783 1.383 . S
C3784 C3785 1.377 . S
C3785 H3769 0.930 . S
C3785 C3784 1.377 . S
C3785 C3786 1.379 . S
C3786 H3770 0.931 . S
C3786 C3780 1.383 . S
C3786 C3785 1.379 . S
H3787 C3781 0.959 . S
H3788 C3781 0.961 . S
H3789 C3781 0.960 . S
H3790 C3782 0.930 . S
H3791 C3783 0.929 . S
H3792 C3800 0.929 . S
H3793 C3802 0.930 . S
H3794 C3804 0.930 . S
H3795 C3807 0.929 . S
H3796 C3810 0.930 . S
H3797 C3812 0.960 . S
H3798 C3812 0.960 . S
H3799 C3812 0.960 . S
C3800 H3792 0.929 . S
C3800 C3801 1.377 . S
C3800 C3802 1.384 . S
C3801 C3800 1.377 . S
C3801 C3807 1.390 . S
C3802 H3793 0.930 . S
C3802 C3800 1.384 . S
C3802 C3803 1.372 . S
C3803 C3802 1.372 . S
C3803 C3804 1.400 . S
C3803 C3808 1.490 . S
C3804 H3794 0.930 . S
C3804 C3803 1.400 . S
C3804 C3807 1.386 . S
H3805 C3821 0.930 . S
H3806 C3822 0.931 . S
C3807 H3795 0.929 . S
C3807 C3801 1.390 . S
C3807 C3804 1.386 . S
C3808 C3803 1.490 . S
C3808 C3810 1.395 . S
C3808 C3811 1.403 . S
H3809 C3815 0.930 . S
C3810 H3796 0.930 . S
C3810 C3808 1.395 . S
C3810 C3813 1.403 . S
C3811 C3808 1.403 . S
C3811 C3812 1.524 . S
C3811 C3815 1.400 . S
C3812 H3797 0.960 . S
C3812 H3798 0.960 . S
C3812 H3799 0.960 . S
C3812 C3811 1.524 . S
C3813 C3810 1.403 . S
C3813 C3814 1.392 . S
C3813 C3817 1.495 . S
C3814 C3813 1.392 . S
C3814 C3815 1.385 . S
C3814 C3816 1.478 . S
C3815 H3809 0.930 . S
C3815 C3811 1.400 . S
C3815 C3814 1.385 . S
C3816 C3814 1.478 . S
C3816 C3818 1.381 . S
C3816 C3822 1.383 . S
C3817 C3813 1.495 . S
C3817 H3823 0.959 . S
C3817 H3824 0.961 . S
C3817 H3825 0.960 . S
C3818 C3816 1.381 . S
C3818 C3819 1.394 . S
C3818 H3826 0.930 . S
C3819 C3818 1.394 . S
C3819 C3820 1.383 . S
C3819 H3827 0.929 . S
C3820 C3819 1.383 . S
C3820 C3821 1.377 . S
C3821 H3805 0.930 . S
C3821 C3820 1.377 . S
C3821 C3822 1.379 . S
C3822 H3806 0.931 . S
C3822 C3816 1.383 . S
C3822 C3821 1.379 . S
H3823 C3817 0.959 . S
H3824 C3817 0.961 . S
H3825 C3817 0.960 . S
H3826 C3818 0.930 . S
H3827 C3819 0.929 . S
H3828 C3836 0.929 . S
H3829 C3838 0.930 . S
H3830 C3840 0.930 . S
H3831 C3843 0.929 . S
H3832 C3846 0.930 . S
H3833 C3848 0.960 . S
H3834 C3848 0.960 . S
H3835 C3848 0.960 . S
C3836 H3828 0.929 . S
C3836 C3837 1.377 . S
C3836 C3838 1.384 . S
C3837 C3836 1.377 . S
C3837 C3843 1.390 . S
C3838 H3829 0.930 . S
C3838 C3836 1.384 . S
C3838 C3839 1.372 . S
C3839 C3838 1.372 . S
C3839 C3840 1.400 . S
C3839 C3844 1.490 . S
C3840 H3830 0.930 . S
C3840 C3839 1.400 . S
C3840 C3843 1.386 . S
H3841 C3857 0.930 . S
H3842 C3858 0.931 . S
C3843 H3831 0.929 . S
C3843 C3837 1.390 . S
C3843 C3840 1.386 . S
C3844 C3839 1.490 . S
C3844 C3846 1.395 . S
C3844 C3847 1.403 . S
H3845 C3851 0.930 . S
C3846 H3832 0.930 . S
C3846 C3844 1.395 . S
C3846 C3849 1.403 . S
C3847 C3844 1.403 . S
C3847 C3848 1.524 . S
C3847 C3851 1.400 . S
C3848 H3833 0.960 . S
C3848 H3834 0.960 . S
C3848 H3835 0.960 . S
C3848 C3847 1.524 . S
C3849 C3846 1.403 . S
C3849 C3850 1.392 . S
C3849 C3853 1.495 . S
C3850 C3849 1.392 . S
C3850 C3851 1.385 . S
C3850 C3852 1.478 . S
C3851 H3845 0.930 . S
C3851 C3847 1.400 . S
C3851 C3850 1.385 . S
C3852 C3850 1.478 . S
C3852 C3854 1.381 . S
C3852 C3858 1.383 . S
C3853 C3849 1.495 . S
C3853 H3859 0.959 . S
C3853 H3860 0.961 . S
C3853 H3861 0.960 . S
C3854 C3852 1.381 . S
C3854 C3855 1.394 . S
C3854 H3862 0.930 . S
C3855 C3854 1.394 . S
C3855 C3856 1.383 . S
C3855 H3863 0.929 . S
C3856 C3855 1.383 . S
C3856 C3857 1.377 . S
C3857 H3841 0.930 . S
C3857 C3856 1.377 . S
C3857 C3858 1.379 . S
C3858 H3842 0.931 . S
C3858 C3852 1.383 . S
C3858 C3857 1.379 . S
H3859 C3853 0.959 . S
H3860 C3853 0.961 . S
H3861 C3853 0.960 . S
H3862 C3854 0.930 . S
H3863 C3855 0.929 . S
H3864 C3872 0.929 . S
H3865 C3874 0.930 . S
H3866 C3876 0.930 . S
H3867 C3879 0.929 . S
H3868 C3882 0.930 . S
H3869 C3884 0.960 . S
H3870 C3884 0.960 . S
H3871 C3884 0.960 . S
C3872 H3864 0.929 . S
C3872 C3873 1.377 . S
C3872 C3874 1.384 . S
C3873 C3872 1.377 . S
C3873 C3879 1.390 . S
C3874 H3865 0.930 . S
C3874 C3872 1.384 . S
C3874 C3875 1.372 . S
C3875 C3874 1.372 . S
C3875 C3876 1.400 . S
C3875 C3880 1.490 . S
C3876 H3866 0.930 . S
C3876 C3875 1.400 . S
C3876 C3879 1.386 . S
H3877 C3893 0.930 . S
H3878 C3894 0.931 . S
C3879 H3867 0.929 . S
C3879 C3873 1.390 . S
C3879 C3876 1.386 . S
C3880 C3875 1.490 . S
C3880 C3882 1.395 . S
C3880 C3883 1.403 . S
H3881 C3887 0.930 . S
C3882 H3868 0.930 . S
C3882 C3880 1.395 . S
C3882 C3885 1.403 . S
C3883 C3880 1.403 . S
C3883 C3884 1.524 . S
C3883 C3887 1.400 . S
C3884 H3869 0.960 . S
C3884 H3870 0.960 . S
C3884 H3871 0.960 . S
C3884 C3883 1.524 . S
C3885 C3882 1.403 . S
C3885 C3886 1.392 . S
C3885 C3889 1.495 . S
C3886 C3885 1.392 . S
C3886 C3887 1.385 . S
C3886 C3888 1.478 . S
C3887 H3881 0.930 . S
C3887 C3883 1.400 . S
C3887 C3886 1.385 . S
C3888 C3886 1.478 . S
C3888 C3890 1.381 . S
C3888 C3894 1.383 . S
C3889 C3885 1.495 . S
C3889 H3895 0.959 . S
C3889 H3896 0.961 . S
C3889 H3897 0.960 . S
C3890 C3888 1.381 . S
C3890 C3891 1.394 . S
C3890 H3898 0.930 . S
C3891 C3890 1.394 . S
C3891 C3892 1.383 . S
C3891 H3899 0.929 . S
C3892 C3891 1.383 . S
C3892 C3893 1.377 . S
C3893 H3877 0.930 . S
C3893 C3892 1.377 . S
C3893 C3894 1.379 . S
C3894 H3878 0.931 . S
C3894 C3888 1.383 . S
C3894 C3893 1.379 . S
H3895 C3889 0.959 . S
H3896 C3889 0.961 . S
H3897 C3889 0.960 . S
H3898 C3890 0.930 . S
H3899 C3891 0.929 . S
H3900 C3908 0.929 . S
H3901 C3910 0.930 . S
H3902 C3912 0.930 . S
H3903 C3915 0.929 . S
H3904 C3918 0.930 1_545 S
H3905 C3920 0.960 . S
H3906 C3920 0.960 . S
H3907 C3920 0.960 . S
C3908 H3900 0.929 . S
C3908 C3909 1.377 . S
C3908 C3910 1.384 . S
C3909 C3908 1.377 . S
C3909 C3915 1.390 . S
C3910 H3901 0.930 . S
C3910 C3908 1.384 . S
C3910 C3911 1.372 . S
C3911 C3910 1.372 . S
C3911 C3912 1.400 . S
C3911 C3916 1.490 . S
C3912 H3902 0.930 . S
C3912 C3911 1.400 . S
C3912 C3915 1.386 . S
H3913 C3929 0.930 . S
H3914 C3930 0.931 . S
C3915 H3903 0.929 . S
C3915 C3909 1.390 . S
C3915 C3912 1.386 . S
C3916 C3911 1.490 . S
C3916 C3918 1.395 . S
C3916 C3919 1.403 . S
H3917 C3923 0.930 . S
C3918 H3904 0.930 1_565 S
C3918 C3916 1.395 . S
C3918 C3921 1.403 1_565 S
C3919 C3916 1.403 . S
C3919 C3920 1.524 . S
C3919 C3923 1.400 . S
C3920 H3905 0.960 . S
C3920 H3906 0.960 . S
C3920 H3907 0.960 . S
C3920 C3919 1.524 . S
C3921 C3918 1.403 1_545 S
C3921 C3922 1.392 1_545 S
C3921 C3925 1.495 . S
C3922 C3921 1.392 1_565 S
C3922 C3923 1.385 . S
C3922 C3924 1.478 . S
C3923 H3917 0.930 . S
C3923 C3919 1.400 . S
C3923 C3922 1.385 . S
C3924 C3922 1.478 . S
C3924 C3926 1.381 . S
C3924 C3930 1.383 . S
C3925 C3921 1.495 . S
C3925 H3931 0.959 . S
C3925 H3932 0.961 . S
C3925 H3933 0.960 . S
C3926 C3924 1.381 . S
C3926 C3927 1.394 . S
C3926 H3934 0.930 . S
C3927 C3926 1.394 . S
C3927 C3928 1.383 . S
C3927 H3935 0.929 . S
C3928 C3927 1.383 . S
C3928 C3929 1.377 . S
C3929 H3913 0.930 . S
C3929 C3928 1.377 . S
C3929 C3930 1.379 . S
C3930 H3914 0.931 . S
C3930 C3924 1.383 . S
C3930 C3929 1.379 . S
H3931 C3925 0.959 . S
H3932 C3925 0.961 . S
H3933 C3925 0.960 . S
H3934 C3926 0.930 . S
H3935 C3927 0.929 . S
H3936 C3944 0.929 . S
H3937 C3946 0.930 . S
H3938 C3948 0.930 . S
H3939 C3951 0.929 . S
H3940 C3954 0.930 . S
H3941 C3956 0.960 . S
H3942 C3956 0.960 . S
H3943 C3956 0.960 . S
C3944 H3936 0.929 . S
C3944 C3945 1.377 . S
C3944 C3946 1.384 . S
C3945 C3944 1.377 . S
C3945 C3951 1.390 . S
C3946 H3937 0.930 . S
C3946 C3944 1.384 . S
C3946 C3947 1.372 . S
C3947 C3946 1.372 . S
C3947 C3948 1.400 . S
C3947 C3952 1.490 . S
C3948 H3938 0.930 . S
C3948 C3947 1.400 . S
C3948 C3951 1.386 . S
H3949 C3965 0.930 . S
H3950 C3966 0.931 . S
C3951 H3939 0.929 . S
C3951 C3945 1.390 . S
C3951 C3948 1.386 . S
C3952 C3947 1.490 . S
C3952 C3954 1.395 . S
C3952 C3955 1.403 . S
H3953 C3959 0.930 . S
C3954 H3940 0.930 . S
C3954 C3952 1.395 . S
C3954 C3957 1.403 . S
C3955 C3952 1.403 . S
C3955 C3956 1.524 . S
C3955 C3959 1.400 . S
C3956 H3941 0.960 . S
C3956 H3942 0.960 . S
C3956 H3943 0.960 . S
C3956 C3955 1.524 . S
C3957 C3954 1.403 . S
C3957 C3958 1.392 . S
C3957 C3961 1.495 . S
C3958 C3957 1.392 . S
C3958 C3959 1.385 . S
C3958 C3960 1.478 . S
C3959 H3953 0.930 . S
C3959 C3955 1.400 . S
C3959 C3958 1.385 . S
C3960 C3958 1.478 . S
C3960 C3962 1.381 . S
C3960 C3966 1.383 . S
C3961 C3957 1.495 . S
C3961 H3967 0.959 . S
C3961 H3968 0.961 . S
C3961 H3969 0.960 . S
C3962 C3960 1.381 . S
C3962 C3963 1.394 1_455 S
C3962 H3970 0.930 . S
C3963 C3962 1.394 1_655 S
C3963 C3964 1.383 . S
C3963 H3971 0.929 . S
C3964 C3963 1.383 . S
C3964 C3965 1.377 . S
C3965 H3949 0.930 . S
C3965 C3964 1.377 . S
C3965 C3966 1.379 1_655 S
C3966 H3950 0.931 . S
C3966 C3960 1.383 . S
C3966 C3965 1.379 1_455 S
H3967 C3961 0.959 . S
H3968 C3961 0.961 . S
H3969 C3961 0.960 . S
H3970 C3962 0.930 . S
H3971 C3963 0.929 . S
H3972 C3980 0.929 . S
H3973 C3982 0.930 . S
H3974 C3984 0.930 . S
H3975 C3987 0.929 . S
H3976 C3990 0.930 . S
H3977 C3992 0.960 . S
H3978 C3992 0.960 . S
H3979 C3992 0.960 . S
C3980 H3972 0.929 . S
C3980 C3981 1.377 . S
C3980 C3982 1.384 . S
C3981 C3980 1.377 . S
C3981 C3987 1.390 . S
C3982 H3973 0.930 . S
C3982 C3980 1.384 . S
C3982 C3983 1.372 . S
C3983 C3982 1.372 . S
C3983 C3984 1.400 . S
C3983 C3988 1.490 . S
C3984 H3974 0.930 . S
C3984 C3983 1.400 . S
C3984 C3987 1.386 . S
H3985 C4001 0.930 . S
H3986 C4002 0.931 . S
C3987 H3975 0.929 . S
C3987 C3981 1.390 . S
C3987 C3984 1.386 . S
C3988 C3983 1.490 . S
C3988 C3990 1.395 . S
C3988 C3991 1.403 . S
H3989 C3995 0.930 . S
C3990 H3976 0.930 . S
C3990 C3988 1.395 . S
C3990 C3993 1.403 . S
C3991 C3988 1.403 . S
C3991 C3992 1.524 . S
C3991 C3995 1.400 . S
C3992 H3977 0.960 . S
C3992 H3978 0.960 . S
C3992 H3979 0.960 . S
C3992 C3991 1.524 . S
C3993 C3990 1.403 . S
C3993 C3994 1.392 . S
C3993 C3997 1.495 . S
C3994 C3993 1.392 . S
C3994 C3995 1.385 . S
C3994 C3996 1.478 . S
C3995 H3989 0.930 . S
C3995 C3991 1.400 . S
C3995 C3994 1.385 . S
C3996 C3994 1.478 . S
C3996 C3998 1.381 1_455 S
C3996 C4002 1.383 . S
C3997 C3993 1.495 . S
C3997 H4003 0.959 . S
C3997 H4004 0.961 . S
C3997 H4005 0.960 . S
C3998 C3996 1.381 1_655 S
C3998 C3999 1.394 . S
C3998 H4006 0.930 . S
C3999 C3998 1.394 . S
C3999 C4000 1.383 . S
C3999 H4007 0.929 . S
C4000 C3999 1.383 . S
C4000 C4001 1.377 . S
C4001 H3985 0.930 . S
C4001 C4000 1.377 . S
C4001 C4002 1.379 1_655 S
C4002 H3986 0.931 . S
C4002 C3996 1.383 . S
C4002 C4001 1.379 1_455 S
H4003 C3997 0.959 . S
H4004 C3997 0.961 . S
H4005 C3997 0.960 . S
H4006 C3998 0.930 . S
H4007 C3999 0.929 . S
H4008 C4016 0.929 . S
H4009 C4018 0.930 . S
H4010 C4020 0.930 . S
H4011 C4023 0.929 . S
H4012 C4026 0.930 . S
H4013 C4028 0.960 . S
H4014 C4028 0.960 . S
H4015 C4028 0.960 . S
C4016 H4008 0.929 . S
C4016 C4017 1.379 1_455 S
C4016 C4018 1.384 . S
C4017 C4016 1.379 1_655 S
C4017 C4023 1.389 . S
C4018 H4009 0.930 . S
C4018 C4016 1.384 . S
C4018 C4019 1.372 . S
C4019 C4018 1.372 . S
C4019 C4020 1.400 1_455 S
C4019 C4024 1.490 . S
C4020 H4010 0.930 . S
C4020 C4019 1.400 1_655 S
C4020 C4023 1.386 . S
H4021 C4037 0.930 . S
H4022 C4038 0.931 . S
C4023 H4011 0.929 . S
C4023 C4017 1.389 . S
C4023 C4020 1.386 . S
C4024 C4019 1.490 . S
C4024 C4026 1.395 . S
C4024 C4027 1.403 1_455 S
H4025 C4031 0.930 . S
C4026 H4012 0.930 . S
C4026 C4024 1.395 . S
C4026 C4029 1.403 . S
C4027 C4024 1.403 1_655 S
C4027 C4028 1.524 . S
C4027 C4031 1.400 . S
C4028 H4013 0.960 . S
C4028 H4014 0.960 . S
C4028 H4015 0.960 . S
C4028 C4027 1.524 . S
C4029 C4026 1.403 . S
C4029 C4030 1.392 . S
C4029 C4033 1.495 . S
C4030 C4029 1.392 . S
C4030 C4031 1.385 1_455 S
C4030 C4032 1.478 . S
C4031 H4025 0.930 . S
C4031 C4027 1.400 . S
C4031 C4030 1.385 1_655 S
C4032 C4030 1.478 . S
C4032 C4034 1.381 . S
C4032 C4038 1.383 . S
C4033 C4029 1.495 . S
C4033 H4039 0.959 . S
C4033 H4040 0.961 . S
C4033 H4041 0.960 . S
C4034 C4032 1.381 . S
C4034 C4035 1.394 . S
C4034 H4042 0.930 . S
C4035 C4034 1.394 . S
C4035 C4036 1.383 . S
C4035 H4043 0.929 . S
C4036 C4035 1.383 . S
C4036 C4037 1.377 . S
C4037 H4021 0.930 . S
C4037 C4036 1.377 . S
C4037 C4038 1.379 . S
C4038 H4022 0.931 . S
C4038 C4032 1.383 . S
C4038 C4037 1.379 . S
H4039 C4033 0.959 . S
H4040 C4033 0.961 . S
H4041 C4033 0.960 . S
H4042 C4034 0.930 . S
H4043 C4035 0.929 . S
H4044 C4052 0.929 . S
H4045 C4054 0.930 . S
H4046 C4056 0.930 1_455 S
H4047 C4059 0.929 1_455 S
H4048 C4062 0.930 . S
H4049 C4064 0.960 . S
H4050 C4064 0.960 . S
H4051 C4064 0.960 . S
C4052 H4044 0.929 . S
C4052 C4053 1.377 . S
C4052 C4054 1.384 . S
C4053 C4052 1.377 . S
C4053 C4059 1.390 . S
C4054 H4045 0.930 . S
C4054 C4052 1.384 . S
C4054 C4055 1.372 . S
C4055 C4054 1.372 . S
C4055 C4056 1.400 . S
C4055 C4060 1.490 . S
C4056 H4046 0.930 1_655 S
C4056 C4055 1.400 . S
C4056 C4059 1.386 . S
H4057 C4073 0.930 . S
H4058 C4074 0.931 . S
C4059 H4047 0.929 1_655 S
C4059 C4053 1.390 . S
C4059 C4056 1.386 . S
C4060 C4055 1.490 . S
C4060 C4062 1.395 . S
C4060 C4063 1.403 1_655 S
H4061 C4067 0.930 . S
C4062 H4048 0.930 . S
C4062 C4060 1.395 . S
C4062 C4065 1.403 . S
C4063 C4060 1.403 1_455 S
C4063 C4064 1.524 . S
C4063 C4067 1.400 . S
C4064 H4049 0.960 . S
C4064 H4050 0.960 . S
C4064 H4051 0.960 . S
C4064 C4063 1.524 . S
C4065 C4062 1.403 . S
C4065 C4066 1.392 . S
C4065 C4069 1.495 . S
C4066 C4065 1.392 . S
C4066 C4067 1.385 1_655 S
C4066 C4068 1.478 . S
C4067 H4061 0.930 . S
C4067 C4063 1.400 . S
C4067 C4066 1.385 1_455 S
C4068 C4066 1.478 . S
C4068 C4070 1.381 . S
C4068 C4074 1.383 1_655 S
C4069 C4065 1.495 . S
C4069 H4075 0.959 . S
C4069 H4076 0.961 . S
C4069 H4077 0.960 . S
C4070 C4068 1.381 . S
C4070 C4071 1.394 . S
C4070 H4078 0.930 . S
C4071 C4070 1.394 . S
C4071 C4072 1.383 1_655 S
C4071 H4079 0.929 . S
C4072 C4071 1.383 1_455 S
C4072 C4073 1.377 . S
C4073 H4057 0.930 . S
C4073 C4072 1.377 . S
C4073 C4074 1.379 . S
C4074 H4058 0.931 . S
C4074 C4068 1.383 1_455 S
C4074 C4073 1.379 . S
H4075 C4069 0.959 . S
H4076 C4069 0.961 . S
H4077 C4069 0.960 . S
H4078 C4070 0.930 . S
H4079 C4071 0.929 . S
C633 C361 0.624 . S
C652 C4 0.694 . S
C669 C18 0.767 . S
C688 C499 0.740 . S
C705 C30 0.543 . S
C724 C329 0.498 . S
C741 C525 0.319 . S
C760 C44 0.520 . S
C777 C369 0.566 . S
C796 C57 0.591 . S
C813 C75 0.486 . S
C832 C290 0.348 . S
C849 C393 0.659 . S
C868 C83 0.610 . S
C885 C101 0.686 . S
C904 C270 0.698 . S
C921 C465 0.738 . S
C940 C96 0.695 . S
C957 C432 0.409 . S
C976 C62 0.464 . S
C993 C70 0.554 . S
C1012 C551 0.575 . S
C1029 C452 0.667 . S
C1048 C88 0.667 . S
C1065 C108 0.550 . S
C1084 C173 0.551 . S
C1101 C187 0.603 . S
C1120 C122 0.640 . S
C1137 C200 0.679 . S
C1156 C140 0.633 . S
C1173 C161 0.509 . S
C1192 C146 0.554 . S
C1209 C172 0.748 . S
C1228 C316 0.770 . S
C1245 C192 0.567 . S
C1264 C510 0.610 . S
C1281 C348 0.785 . S
C1300 C205 0.833 . S
C1317 C356 0.535 . S
C1336 C213 0.548 . S
C1353 C231 0.794 . S
C1372 C380 0.785 . S
C1389 C239 0.574 . S
C1408 C49 0.581 . S
C1425 C251 0.689 . S
C1444 C23 0.681 . S
C1461 C575 0.627 . S
C1480 C276 0.595 . S
C1497 C603 0.548 . S
C1516 C302 0.483 . S
C1533 C315 0.311 . S
C1552 C107 0.536 . S
C1569 C343 0.770 . S
C1588 C135 0.819 . S
C1605 C328 0.896 . S
C1624 C564 0.961 . S
C1641 C433 0.893 . S
C1660 C374 0.882 . S
C1677 C447 0.555 . S
C1696 C394 0.471 . S
C1713 C420 0.856 . S
C1732 C408 0.811 . S
C1749 C226 0.717 . S
C1768 C588 0.705 . S
C1785 C473 0.938 . S
C1804 C303 0.974 . S
C1821 C277 0.466 . S
C1840 C485 0.588 . S
C1857 C615 0.456 . S
C1876 C413 0.348 . S
C1893 C381 0.688 . S
C1912 C589 0.639 . S
C1929 C127 0.662 . S
C1948 C511 0.659 . S
C1965 C147 0.597 . S
C1984 C543 0.552 . S
C2001 C166 0.884 . S
C2020 C538 0.807 . S
C2037 C250 0.794 . S
C2056 C504 0.774 . S
C2073 C244 0.735 . S
C2092 C530 0.714 . S
C2109 C289 0.833 . S
C2128 C556 0.843 . S
C2145 C265 0.800 . S
C2164 C460 0.826 . S
C2181 C576 0.700 . S
C2200 C484 0.740 . S
C2217 C608 0.440 . S
C2236 C478 0.403 . S
C2253 C614 0.578 . S
C2272 C419 0.591 . S
C2289 C569 0.495 . S
C2308 C29 0.461 . S
C2325 C218 0.622 . S
C2344 C3 0.613 . S
C2361 C10 1.453 . S
C2380 C601 1.469 . S
C2397 C16 1.364 . S
C2416 C621 1.391 . S
C2433 C36 1.463 . S
C2452 C577 1.473 . S
C2469 C42 1.458 . S
C2488 C595 1.412 1_556 S
C2505 C55 1.486 . S
C2524 C121 1.467 . S
C2541 C69 1.357 . S
C2560 C133 1.352 1_554 S
C2577 C81 1.492 . S
C2596 C153 1.487 . S
C2613 C95 1.418 . S
C2632 C109 1.461 . S
C2649 C94 1.725 . S
C2668 C512 1.594 . S
C2685 C56 1.367 . S
C2704 C342 1.271 . S
C2721 C68 1.627 . S
C2740 C536 1.588 . S
C2757 C82 1.877 . S
C2776 C322 1.784 . S
C2793 C114 1.596 . S
C2812 C309 1.536 . S
C2829 C120 1.883 . S
C2848 C406 1.785 . S
C2865 C134 1.771 . S
C2884 C283 1.616 . S
C2901 C382 1.311 . S
C2920 C148 1.389 . S
C2937 C159 1.330 . S
C2956 C252 1.425 . S
C2973 C174 1.477 . S
C2992 C212 1.482 . S
C3009 C257 1.189 . S
C3028 C186 1.225 . S
C3045 C563 1.323 . S
C3064 C199 1.438 . S
C3081 C198 1.267 . S
C3100 C211 1.303 1_556 S
C3117 C472 1.429 . S
C3136 C225 1.565 . S
C3153 C160 1.629 1_556 S
C3172 C237 1.676 . S
C3189 C523 1.741 . S
C3208 C264 1.850 . S
C3225 C537 1.928 . S
C3244 C278 1.871 . S
C3261 C296 1.665 . S
C3280 C497 1.816 . S
C3297 C517 1.885 . S
C3316 C304 1.989 . S
C3333 C317 1.740 . S
C3352 C387 1.826 . S
C3369 C395 1.893 . S
C3388 C335 1.981 . S
C3405 C341 1.836 . S
C3424 C407 1.680 . S
C3441 C367 1.889 . S
C3460 C355 1.764 . S
C3477 C354 1.555 . S
C3496 C590 1.708 . S
C3513 C616 1.638 . S
C3532 C330 1.583 . S
C3549 C368 1.530 . S
C3568 C43 1.566 . S
C3585 C17 1.794 . S
C3604 C400 1.622 . S
C3621 C486 1.491 . S
C3640 C426 1.498 . S
C3657 C458 1.550 1_655 S
C3676 C434 1.459 1_655 S
C3693 C224 1.254 . S
C3712 C491 1.309 1_554 S
C3729 C446 1.495 . S
C3748 C550 1.507 . S
C3765 C459 1.198 . S
C3784 C445 1.251 . S
C3801 C185 1.523 . S
C3820 C238 1.513 . S
C3837 C421 1.686 . S
C3856 C471 1.629 . S
C3873 C602 1.392 . S
C3892 C498 1.326 . S
C3909 C524 1.720 . S
C3928 C582 1.837 . S
C3945 C5 1.841 . S
C3964 C291 1.763 . S
C3981 C263 1.317 . S
C4000 C31 1.394 . S
C4017 C439 1.691 1_654 S
C4036 C549 1.753 . S
C4053 C179 1.605 . S
C4072 C562 1.584 . S
