# Generated by pormake.
# Topology rob, (6)-cn, num edge types: 1
# Building blocks:
#     Node 0, Type 0, BuildingBlock: PAMTOO_clean_sbu_0, # of connection points: 6
#     Node 1, Type 0, BuildingBlock: PAMTOO_clean_sbu_0, # of connection points: 6
#     Node 2, Type 0, BuildingBlock: PAMTOO_clean_sbu_0, # of connection points: 6
#     Node 3, Type 0, BuildingBlock: PAMTOO_clean_sbu_0, # of connection points: 6
#     Edge 4, Type (0, 0), BuildingBlock: AJUNOK_clean_linker_0, # of connection points: 2
#     Edge 5, Type (0, 0), BuildingBlock: AJUNOK_clean_linker_0, # of connection points: 2
#     Edge 6, Type (0, 0), BuildingBlock: AJUNOK_clean_linker_0, # of connection points: 2
#     Edge 7, Type (0, 0), BuildingBlock: AJUNOK_clean_linker_0, # of connection points: 2
#     Edge 8, Type (0, 0), BuildingBlock: AJUNOK_clean_linker_0, # of connection points: 2
#     Edge 9, Type (0, 0), BuildingBlock: AJUNOK_clean_linker_0, # of connection points: 2
#     Edge 10, Type (0, 0), BuildingBlock: AJUNOK_clean_linker_0, # of connection points: 2
#     Edge 11, Type (0, 0), BuildingBlock: AJUNOK_clean_linker_0, # of connection points: 2
#     Edge 12, Type (0, 0), BuildingBlock: AJUNOK_clean_linker_0, # of connection points: 2
#     Edge 13, Type (0, 0), BuildingBlock: AJUNOK_clean_linker_0, # of connection points: 2
#     Edge 14, Type (0, 0), BuildingBlock: AJUNOK_clean_linker_0, # of connection points: 2
#     Edge 15, Type (0, 0), BuildingBlock: AJUNOK_clean_linker_0, # of connection points: 2
# Relax obj value: 0.085
# Max RMSD: 0.215
# Mean RMSD: 0.215
data_MOF--net-rob--node1-PAMTOO_clean_sbu_0--edge1-AJUNOK_clean_linker_0
_symmetry_space_group_name_H-M    P1
_symmetry_Int_Tables_number       1
_symmetry_cell_setting            triclinic
loop_
_symmetry_equiv_pos_as_xyz
'x, y, z'
_cell_length_a     13.179302
_cell_length_b     18.149686
_cell_length_c     28.304306
_cell_angle_alpha  103.04874
_cell_angle_beta   90.414229
_cell_angle_gamma 90.027631
loop_
_atom_site_label
_atom_site_type_symbol
_atom_site_fract_x
_atom_site_fract_y
_atom_site_fract_z
_atom_type_partial_charge
Dy0 Dy 0.34705 0.175 0.99876 0.0
Dy1 Dy 0.18283 0.28598 0.06745 0.0
C2 C 0.38954 0.34917 0.03971 0.0
O3 O 0.39865 0.17754 0.07507 0.0
O4 O 0.24576 0.21063 0.11231 0.0
O5 O 0.50009 0.15082 0.97273 0.0
O6 O 0.37582 0.07867 0.94001 0.0
O7 O 0.10339 0.17813 1.0338 0.0
O8 O 0.23834 0.0968 1.02274 0.0
O9 O 0.17119 0.31831 0.99561 0.0
O10 O 0.22429 0.20376 0.95124 0.0
O11 O 0.03025 0.31181 0.09416 0.0
O12 O 0.15496 0.38526 0.12413 0.0
C13 C 0.33771 0.18306 0.11242 0.0
O14 O 0.38858 0.29495 1.00032 0.0
O15 O 0.33307 0.34366 0.07652 0.0
C16 C 0.49602 0.11117 0.88782 0.0
C17 C 0.54586 0.14061 0.79727 0.0
C18 C 0.47436 0.18562 0.82711 0.0
C19 C 0.44992 0.17116 0.87201 0.0
C20 C 0.56594 0.06499 0.85776 0.0
C21 C 0.5907 0.07965 0.81264 0.0
C22 C 0.46992 0.09828 0.93573 0.0
C23 C 0.1408 0.10981 1.0289 0.0
C24 C 0.18173 0.26988 0.95367 0.0
C25 C 0.03313 0.3597 0.17868 0.0
C26 C 0.97632 0.34206 0.27155 0.0
C27 C 0.07151 0.31683 0.25235 0.0
C28 C 0.09974 0.32581 0.20647 0.0
C29 C 0.93787 0.38406 0.19733 0.0
C30 C 0.90964 0.37547 0.24335 0.0
C31 C 0.06109 0.36647 0.12953 0.0
H32 H 0.43828 0.23259 0.81588 0.0
H33 H 0.39564 0.20739 0.8947 0.0
H34 H 0.60235 0.01857 0.86942 0.0
H35 H 0.64702 0.04499 0.79039 0.0
H36 H 0.12332 0.28849 0.27222 0.0
H37 H 0.17326 0.30543 0.19248 0.0
H38 H 0.88521 0.40919 0.17608 0.0
H39 H 0.83573 0.3955 0.25702 0.0
Dy40 Dy 0.8193 0.6827 0.99894 0.0
Dy41 Dy 0.66384 0.79884 0.0712 0.0
C42 C 0.86958 0.85959 0.03607 0.0
O43 O 0.8351 0.65294 0.07116 0.0
O44 O 0.79218 0.77035 0.11609 0.0
O45 O 0.96637 0.63801 0.97318 0.0
O46 O 0.8293 0.59141 0.93545 0.0
O47 O 0.62204 0.68119 0.07497 0.0
O48 O 0.66935 0.62552 0.9983 0.0
O49 O 0.6043 0.79153 0.99527 0.0
O50 O 0.75561 0.7608 0.95667 0.0
O51 O 0.51341 0.82688 0.09987 0.0
O52 O 0.64144 0.89765 0.12905 0.0
C53 C 0.83218 0.70316 0.11261 0.0
O54 O 0.90607 0.79029 1.02637 0.0
O55 O 0.77266 0.87326 0.04425 0.0
C56 C 0.96898 0.60335 0.88641 0.0
C57 C 0.03486 0.62419 0.7954 0.0
C58 C 0.07474 0.66877 0.83876 0.0
C59 C 0.04223 0.65853 0.88375 0.0
C60 C 0.92954 0.55842 0.84303 0.0
C61 C 0.96149 0.56917 0.79799 0.0
C62 C 0.92781 0.59539 0.93363 0.0
C63 C 0.61756 0.62407 0.03736 0.0
C64 C 0.66133 0.78326 0.95632 0.0
C65 C 0.52211 0.87228 0.18443 0.0
C66 C 0.4697 0.84834 0.27629 0.0
C67 C 0.54949 0.80764 0.24981 0.0
C68 C 0.57499 0.81917 0.20427 0.0
C69 C 0.44463 0.91499 0.21129 0.0
C70 C 0.41879 0.90333 0.25707 0.0
C71 C 0.54705 0.88067 0.13527 0.0
H72 H 0.12982 0.71275 0.8379 0.0
H73 H 0.07328 0.69483 0.91636 0.0
H74 H 0.87264 0.51568 0.84396 0.0
H75 H 0.92885 0.53445 0.76521 0.0
H76 H 0.59133 0.76596 0.26407 0.0
H77 H 0.63523 0.7857 0.18416 0.0
H78 H 0.40314 0.95627 0.19653 0.0
H79 H 0.35717 0.93562 0.27679 0.0
Dy80 Dy 0.32345 0.80222 0.57169 0.0
Dy81 Dy 0.15851 0.69023 0.50185 0.0
C82 C 0.36307 0.62408 0.53504 0.0
O83 O 0.34278 0.82854 0.49862 0.0
O84 O 0.2828 0.71492 0.45435 0.0
O85 O 0.47439 0.83172 0.60098 0.0
O86 O 0.34695 0.90363 0.62748 0.0
O87 O 0.12388 0.80875 0.49862 0.0
O88 O 0.17432 0.86149 0.5754 0.0
O89 O 0.10745 0.69485 0.5783 0.0
O90 O 0.25936 0.72908 0.61719 0.0
O91 O 0.00334 0.66483 0.47876 0.0
O92 O 0.12584 0.59549 0.44207 0.0
C93 C 0.332 0.77881 0.45712 0.0
O94 O 0.40282 0.69232 0.54232 0.0
O95 O 0.26543 0.61258 0.52728 0.0
C96 C 0.46695 0.88288 0.68525 0.0
C97 C 0.52282 0.86186 0.77773 0.0
C98 C 0.42235 0.84924 0.76115 0.0
C99 C 0.39473 0.85922 0.71518 0.0
C100 C 0.56634 0.89812 0.70252 0.0
C101 C 0.59395 0.88801 0.74841 0.0
C102 C 0.4408 0.88684 0.63509 0.0
C103 C 0.12167 0.86498 0.53662 0.0
C104 C 0.16779 0.70068 0.61634 0.0
C105 C 0.99295 0.62385 0.39303 0.0
C106 C 0.93883 0.6444 0.30004 0.0
C107 C 0.93715 0.70565 0.34055 0.0
C108 C 0.96414 0.69555 0.38655 0.0
C109 C 0.99371 0.56258 0.35269 0.0
C110 C 0.96747 0.5728 0.3066 0.0
C111 C 0.03029 0.61372 0.44055 0.0
H112 H 0.36636 0.8284 0.7828 0.0
H113 H 0.31759 0.84629 0.70253 0.0
H114 H 0.62314 0.91637 0.6801 0.0
H115 H 0.67174 0.89898 0.7606 0.0
H116 H 0.91537 0.76151 0.33661 0.0
H117 H 0.96391 0.74413 0.41686 0.0
H118 H 0.01708 0.50722 0.35664 0.0
H119 H 0.97238 0.52528 0.27585 0.0
Dy120 Dy 0.84051 0.30855 0.57208 0.0
Dy121 Dy 0.67676 0.19425 0.50287 0.0
C122 C 0.88405 0.13497 0.53499 0.0
O123 O 0.89404 0.29888 0.49569 0.0
O124 O 0.74156 0.26656 0.45681 0.0
O125 O 0.99425 0.33474 0.59789 0.0
O126 O 0.87026 0.40599 0.63033 0.0
O127 O 0.59639 0.30236 0.53382 0.0
O128 O 0.73128 0.38423 0.54532 0.0
O129 O 0.66512 0.1658 0.57569 0.0
O130 O 0.71689 0.28192 0.61897 0.0
O131 O 0.52467 0.16191 0.47672 0.0
O132 O 0.65259 0.09392 0.44612 0.0
C133 C 0.83577 0.2901 0.45675 0.0
O134 O 0.88142 0.18983 0.57394 0.0
O135 O 0.82757 0.13827 0.49739 0.0
C136 C 0.99462 0.37647 0.68276 0.0
C137 C 0.05204 0.34926 0.77353 0.0
C138 C 0.97606 0.3054 0.74539 0.0
C139 C 0.94803 0.31864 0.70042 0.0
C140 C 0.06912 0.42163 0.71108 0.0
C141 C 0.0974 0.40833 0.75639 0.0
C142 C 0.96504 0.38767 0.63457 0.0
C143 C 0.63329 0.37111 0.53978 0.0
C144 C 0.67407 0.21603 0.61706 0.0
C145 C 0.52176 0.11004 0.39142 0.0
C146 C 0.46154 0.11962 0.29679 0.0
C147 C 0.40771 0.15844 0.33759 0.0
C148 C 0.43705 0.1534 0.38429 0.0
C149 C 0.57484 0.07032 0.3505 0.0
C150 C 0.5454 0.07545 0.30371 0.0
C151 C 0.55679 0.1083 0.44118 0.0
H152 H 0.93921 0.26004 0.75795 0.0
H153 H 0.89061 0.28299 0.67906 0.0
H154 H 0.1058 0.46658 0.69805 0.0
H155 H 0.15619 0.44289 0.77746 0.0
H156 H 0.34386 0.19411 0.33349 0.0
H157 H 0.39423 0.1846 0.41485 0.0
H158 H 0.63984 0.03575 0.35462 0.0
H159 H 0.58786 0.04457 0.27292 0.0
C160 C 0.55503 0.49407 0.99876 0.0
C161 C 0.55804 0.5553 0.03942 0.0
C162 C 0.50176 0.42761 0.99958 0.0
C163 C 0.44904 0.41925 0.04111 0.0
H164 H 0.59414 0.49717 0.96573 0.0
H165 H 0.50153 0.38266 0.96706 0.0
S166 S 0.43413 0.56225 0.15789 0.0
N167 N 0.50415 0.60292 0.12286 0.0
N168 N 0.40446 0.478 0.12453 0.0
C169 C 0.45188 0.47983 0.0823 0.0
C170 C 0.5061 0.54776 0.08141 0.0
C171 C 0.53614 0.56761 0.53741 0.0
C172 C 0.42995 0.55873 0.53647 0.0
C173 C 0.60106 0.50696 0.53885 0.0
C174 C 0.56261 0.43482 0.53948 0.0
H175 H 0.56986 0.62178 0.53669 0.0
H176 H 0.68214 0.51682 0.53906 0.0
S177 S 0.28983 0.38219 0.53997 0.0
N178 N 0.28913 0.4723 0.53795 0.0
N179 N 0.41063 0.35867 0.54062 0.0
C180 C 0.45638 0.42528 0.53914 0.0
C181 C 0.39028 0.48705 0.53764 0.0
C182 C 0.09801 0.97175 1.01009 0.0
C183 C 0.07143 0.0468 1.03164 0.0
C184 C 0.03284 0.91142 1.0121 0.0
C185 C 0.93882 0.92389 0.03588 0.0
H186 H 0.16905 0.95952 0.99092 0.0
H187 H 0.05581 0.85474 0.9942 0.0
S188 S 0.83896 0.10926 0.10287 0.0
N189 N 0.94812 0.12976 0.08064 0.0
N190 N 0.82599 0.01675 0.0845 0.0
C191 C 0.91266 -0.00142 0.05871 0.0
C192 C 0.97884 0.05991 0.05657 0.0
C193 C 0.99073 0.0551 0.5773 0.0
C194 C 0.94723 0.06708 0.53409 0.0
C195 C 0.04701 0.98973 0.57779 0.0
C196 C 0.06209 0.93374 0.5351 0.0
H197 H 0.9802 0.09597 0.61126 0.0
H198 H 0.07811 0.9829 0.61207 0.0
S199 S 0.9699 0.94012 0.41164 0.0
N200 N 0.92697 0.01876 0.44698 0.0
N201 N 0.03281 0.89651 0.44787 0.0
C202 C 0.0206 0.94569 0.49144 0.0
C203 C 0.96323 0.01216 0.49094 0.0
C204 C 0.50305 0.14608 0.2155 0.0
C205 C 0.43101 0.12703 0.24736 0.0
C206 C 0.47346 0.16103 0.17071 0.0
C207 C 0.37078 0.15762 0.1564 0.0
H208 H 0.5823 0.15242 0.22607 0.0
H209 H 0.53074 0.17842 0.14819 0.0
S210 S 0.15533 0.09759 0.22309 0.0
N211 N 0.25476 0.09637 0.25869 0.0
N212 N 0.19882 0.12479 0.17519 0.0
C213 C 0.29906 0.13427 0.18676 0.0
C214 C 0.3292 0.11897 0.23206 0.0
C215 C 0.42524 0.88731 0.36487 0.0
C216 C 0.43656 0.83007 0.32249 0.0
C217 C 0.39442 0.87021 0.40869 0.0
C218 C 0.37224 0.79533 0.41155 0.0
H219 H 0.44065 0.94565 0.3642 0.0
H220 H 0.38585 0.91627 0.44024 0.0
S221 S 0.38792 0.62516 0.31003 0.0
N222 N 0.42156 0.69595 0.28576 0.0
N223 N 0.36444 0.66346 0.36752 0.0
C224 C 0.38343 0.73767 0.36919 0.0
C225 C 0.41529 0.75511 0.32487 0.0
C226 C 0.53781 0.84837 0.91041 0.0
C227 C 0.62237 0.80099 0.91067 0.0
C228 C 0.50499 0.86783 0.86731 0.0
C229 C 0.55604 0.84091 0.82321 0.0
H230 H 0.4979 0.87164 0.94375 0.0
H231 H 0.44062 0.90532 0.86865 0.0
S232 S 0.77325 0.70826 0.803 0.0
N233 N 0.7507 0.72276 0.86158 0.0
N234 N 0.68899 0.75964 0.78159 0.0
C235 C 0.63826 0.79177 0.82277 0.0
C236 C 0.67141 0.77177 0.8662 0.0
C237 C 0.59714 0.12677 0.66339 0.0
C238 C 0.63821 0.19844 0.66312 0.0
C239 C 0.56745 0.10817 0.70688 0.0
C240 C 0.5776 0.16044 0.75158 0.0
H241 H 0.58834 0.08443 0.62988 0.0
H242 H 0.53527 0.05291 0.70552 0.0
S243 S 0.68161 0.35488 0.77181 0.0
N244 N 0.68697 0.32201 0.71257 0.0
N245 N 0.63248 0.28583 0.79356 0.0
C246 C 0.61804 0.23205 0.75202 0.0
C247 C 0.64806 0.25131 0.70801 0.0
C248 C 0.93369 0.73002 0.18913 0.0
C249 C 0.86572 0.68278 0.15772 0.0
C250 C 0.95814 0.71641 0.23473 0.0
C251 C 0.91382 0.65596 0.25089 0.0
H252 H 0.96761 0.77815 0.17849 0.0
H253 H 0.0117 0.75382 0.25764 0.0
S254 S 0.72099 0.5221 0.18423 0.0
N255 N 0.74974 0.57634 0.14658 0.0
N256 N 0.79259 0.55207 0.23297 0.0
C257 C 0.84441 0.60901 0.21991 0.0
C258 C 0.82097 0.62219 0.17316 0.0
C259 C 0.8124 0.29068 0.36911 0.0
C260 C 0.87516 0.30573 0.41078 0.0
C261 C 0.84596 0.30273 0.32471 0.0
C262 C 0.94395 0.33033 0.31966 0.0
H263 H 0.73631 0.26865 0.37037 0.0
H264 H 0.79482 0.28909 0.29382 0.0
S265 S 0.13838 0.3809 0.41736 0.0
N266 N 0.04042 0.35116 0.44407 0.0
N267 N 0.10359 0.37367 0.36033 0.0
C268 C 0.00802 0.34572 0.36085 0.0
C269 C 0.97356 0.3337 0.4064 0.0
C270 C 0.08486 0.38291 0.86371 0.0
C271 C 0.08724 0.32958 0.81914 0.0
C272 C 0.11375 0.36308 0.90721 0.0
C273 C 0.1472 0.28938 0.90763 0.0
H274 H 0.05928 0.43998 0.86504 0.0
H275 H 0.1105 0.40608 0.94063 0.0
S276 S 0.17319 0.13054 0.79914 0.0
N277 N 0.12956 0.2015 0.77741 0.0
N278 N 0.18352 0.16361 0.85826 0.0
C279 C 0.15122 0.23601 0.86279 0.0
C280 C 0.12144 0.25627 0.81883 0.0
C281 C 0.03065 0.66617 0.66924 0.0
C282 C 0.13435 0.67417 0.65984 0.0
C283 C -0.00127 0.64746 0.71243 0.0
C284 C 0.06932 0.63637 0.74779 0.0
H285 H 0.9736 0.67666 0.64383 0.0
H286 H 0.91816 0.64409 0.71883 0.0
S287 S 0.34954 0.63795 0.73738 0.0
N288 N 0.3077 0.66035 0.68736 0.0
N289 N 0.24717 0.6257 0.76797 0.0
C290 C 0.17302 0.64007 0.73763 0.0
C291 C 0.20563 0.65883 0.69385 0.0
loop_
_geom_bond_atom_site_label_1
_geom_bond_atom_site_label_2
_geom_bond_distance
_geom_bond_site_symmetry_2
_ccdc_geom_bond_type
Dy0 O3 2.307 1_556 S
Dy0 O5 2.395 . S
Dy0 O6 2.379 . S
Dy0 O8 2.339 . S
Dy0 O10 2.298 . S
Dy0 O14 2.275 . S
Dy0 C22 2.738 . S
Dy1 O4 2.298 . S
Dy1 O7 2.275 . S
Dy1 O9 2.307 1_554 S
Dy1 O11 2.395 . S
Dy1 O12 2.379 . S
Dy1 O15 2.339 . S
Dy1 C31 2.738 . S
C2 O14 1.254 1_554 S
C2 O15 1.257 . S
O3 Dy0 2.307 1_554 S
O3 C13 1.266 . S
O4 Dy1 2.298 . S
O4 C13 1.236 . S
O5 Dy0 2.395 . S
O5 C22 1.255 . S
O6 Dy0 2.379 . S
O6 C22 1.249 . S
O7 Dy1 2.275 . S
O7 C23 1.254 1_554 S
O8 Dy0 2.339 . S
O8 C23 1.257 . S
O9 Dy1 2.307 1_556 S
O9 C24 1.266 . S
O10 Dy0 2.298 . S
O10 C24 1.236 . S
O11 Dy1 2.395 . S
O11 C31 1.255 . S
O12 Dy1 2.379 . S
O12 C31 1.249 . S
C13 O3 1.266 . S
C13 O4 1.236 . S
O14 Dy0 2.275 . S
O14 C2 1.254 1_556 S
O15 Dy1 2.339 . S
O15 C2 1.257 . S
C16 C19 1.344 . S
C16 C20 1.328 . S
C16 C22 1.516 . S
C17 C18 1.304 . S
C17 C21 1.323 . S
C18 C17 1.304 . S
C18 C19 1.371 . S
C18 H32 0.930 . S
C19 C16 1.344 . S
C19 C18 1.371 . S
C19 H33 0.931 . S
C20 C16 1.328 . S
C20 C21 1.433 . S
C20 H34 0.931 . S
C21 C17 1.323 . S
C21 C20 1.433 . S
C21 H35 0.933 . S
C22 Dy0 2.738 . S
C22 O5 1.255 . S
C22 O6 1.249 . S
C22 C16 1.516 . S
C23 O7 1.254 1_556 S
C23 O8 1.257 . S
C24 O9 1.266 . S
C24 O10 1.236 . S
C25 C28 1.344 . S
C25 C29 1.328 . S
C25 C31 1.516 . S
C26 C27 1.304 . S
C26 C30 1.323 . S
C27 C26 1.304 . S
C27 C28 1.371 1_655 S
C27 H36 0.930 . S
C28 C25 1.344 . S
C28 C27 1.371 1_455 S
C28 H37 0.931 . S
C29 C25 1.328 . S
C29 C30 1.433 1_455 S
C29 H38 0.931 . S
C30 C26 1.323 . S
C30 C29 1.433 1_655 S
C30 H39 0.933 . S
C31 Dy1 2.738 . S
C31 O11 1.255 . S
C31 O12 1.249 . S
C31 C25 1.516 . S
H32 C18 0.930 . S
H33 C19 0.931 . S
H34 C20 0.931 . S
H35 C21 0.933 . S
H36 C27 0.930 . S
H37 C28 0.931 . S
H38 C29 0.931 . S
H39 C30 0.933 . S
Dy40 O43 2.307 1_556 S
Dy40 O45 2.395 . S
Dy40 O46 2.379 . S
Dy40 O48 2.339 . S
Dy40 O50 2.298 . S
Dy40 O54 2.275 . S
Dy40 C62 2.738 . S
Dy41 O44 2.298 . S
Dy41 O47 2.275 . S
Dy41 O49 2.307 1_554 S
Dy41 O51 2.395 . S
Dy41 O52 2.379 . S
Dy41 O55 2.339 . S
Dy41 C71 2.738 . S
C42 O54 1.254 1_554 S
C42 O55 1.257 . S
O43 Dy40 2.307 1_554 S
O43 C53 1.266 . S
O44 Dy41 2.298 . S
O44 C53 1.236 . S
O45 Dy40 2.395 . S
O45 C62 1.255 . S
O46 Dy40 2.379 . S
O46 C62 1.249 . S
O47 Dy41 2.275 . S
O47 C63 1.254 1_554 S
O48 Dy40 2.339 . S
O48 C63 1.257 . S
O49 Dy41 2.307 1_556 S
O49 C64 1.266 . S
O50 Dy40 2.298 . S
O50 C64 1.236 . S
O51 Dy41 2.395 . S
O51 C71 1.255 . S
O52 Dy41 2.379 . S
O52 C71 1.249 . S
C53 O43 1.266 . S
C53 O44 1.236 . S
O54 Dy40 2.275 . S
O54 C42 1.254 1_556 S
O55 Dy41 2.339 . S
O55 C42 1.257 . S
C56 C59 1.344 . S
C56 C60 1.328 . S
C56 C62 1.516 . S
C57 C58 1.304 . S
C57 C61 1.323 . S
C58 C57 1.304 . S
C58 C59 1.371 1_455 S
C58 H72 0.930 . S
C59 C56 1.344 . S
C59 C58 1.371 1_655 S
C59 H73 0.931 . S
C60 C56 1.328 . S
C60 C61 1.433 1_655 S
C60 H74 0.931 . S
C61 C57 1.323 . S
C61 C60 1.433 1_455 S
C61 H75 0.933 . S
C62 Dy40 2.738 . S
C62 O45 1.255 . S
C62 O46 1.249 . S
C62 C56 1.516 . S
C63 O47 1.254 1_556 S
C63 O48 1.257 . S
C64 O49 1.266 . S
C64 O50 1.236 . S
C65 C68 1.344 . S
C65 C69 1.328 . S
C65 C71 1.516 . S
C66 C67 1.304 . S
C66 C70 1.323 . S
C67 C66 1.304 . S
C67 C68 1.371 . S
C67 H76 0.930 . S
C68 C65 1.344 . S
C68 C67 1.371 . S
C68 H77 0.931 . S
C69 C65 1.328 . S
C69 C70 1.433 . S
C69 H78 0.931 . S
C70 C66 1.323 . S
C70 C69 1.433 . S
C70 H79 0.933 . S
C71 Dy41 2.738 . S
C71 O51 1.255 . S
C71 O52 1.249 . S
C71 C65 1.516 . S
H72 C58 0.930 . S
H73 C59 0.931 . S
H74 C60 0.931 . S
H75 C61 0.933 . S
H76 C67 0.930 . S
H77 C68 0.931 . S
H78 C69 0.931 . S
H79 C70 0.933 . S
Dy80 O83 2.307 . S
Dy80 O85 2.395 . S
Dy80 O86 2.379 . S
Dy80 O88 2.339 . S
Dy80 O90 2.298 . S
Dy80 O94 2.275 . S
Dy80 C102 2.738 . S
Dy81 O84 2.298 . S
Dy81 O87 2.275 . S
Dy81 O89 2.307 . S
Dy81 O91 2.395 . S
Dy81 O92 2.379 . S
Dy81 O95 2.339 . S
Dy81 C111 2.738 . S
C82 O94 1.254 . S
C82 O95 1.257 . S
O83 Dy80 2.307 . S
O83 C93 1.266 . S
O84 Dy81 2.298 . S
O84 C93 1.236 . S
O85 Dy80 2.395 . S
O85 C102 1.255 . S
O86 Dy80 2.379 . S
O86 C102 1.249 . S
O87 Dy81 2.275 . S
O87 C103 1.254 . S
O88 Dy80 2.339 . S
O88 C103 1.257 . S
O89 Dy81 2.307 . S
O89 C104 1.266 . S
O90 Dy80 2.298 . S
O90 C104 1.236 . S
O91 Dy81 2.395 . S
O91 C111 1.255 . S
O92 Dy81 2.379 . S
O92 C111 1.249 . S
C93 O83 1.266 . S
C93 O84 1.236 . S
O94 Dy80 2.275 . S
O94 C82 1.254 . S
O95 Dy81 2.339 . S
O95 C82 1.257 . S
C96 C99 1.344 . S
C96 C100 1.328 . S
C96 C102 1.516 . S
C97 C98 1.304 . S
C97 C101 1.323 . S
C98 C97 1.304 . S
C98 C99 1.371 . S
C98 H112 0.930 . S
C99 C96 1.344 . S
C99 C98 1.371 . S
C99 H113 0.931 . S
C100 C96 1.328 . S
C100 C101 1.433 . S
C100 H114 0.931 . S
C101 C97 1.323 . S
C101 C100 1.433 . S
C101 H115 0.933 . S
C102 Dy80 2.738 . S
C102 O85 1.255 . S
C102 O86 1.249 . S
C102 C96 1.516 . S
C103 O87 1.254 . S
C103 O88 1.257 . S
C104 O89 1.266 . S
C104 O90 1.236 . S
C105 C108 1.344 . S
C105 C109 1.328 . S
C105 C111 1.516 . S
C106 C107 1.304 . S
C106 C110 1.323 . S
C107 C106 1.304 . S
C107 C108 1.371 1_655 S
C107 H116 0.930 . S
C108 C105 1.344 . S
C108 C107 1.371 1_455 S
C108 H117 0.931 . S
C109 C105 1.328 . S
C109 C110 1.433 1_455 S
C109 H118 0.931 . S
C110 C106 1.323 . S
C110 C109 1.433 1_655 S
C110 H119 0.933 . S
C111 Dy81 2.738 . S
C111 O91 1.255 . S
C111 O92 1.249 . S
C111 C105 1.516 . S
H112 C98 0.930 . S
H113 C99 0.931 . S
H114 C100 0.931 . S
H115 C101 0.933 . S
H116 C107 0.930 . S
H117 C108 0.931 . S
H118 C109 0.931 . S
H119 C110 0.933 . S
Dy120 O123 2.307 . S
Dy120 O125 2.395 . S
Dy120 O126 2.379 . S
Dy120 O128 2.339 . S
Dy120 O130 2.298 . S
Dy120 O134 2.275 . S
Dy120 C142 2.738 . S
Dy121 O124 2.298 . S
Dy121 O127 2.275 . S
Dy121 O129 2.307 . S
Dy121 O131 2.395 . S
Dy121 O132 2.379 . S
Dy121 O135 2.339 . S
Dy121 C151 2.738 . S
C122 O134 1.254 . S
C122 O135 1.257 . S
O123 Dy120 2.307 . S
O123 C133 1.266 . S
O124 Dy121 2.298 . S
O124 C133 1.236 . S
O125 Dy120 2.395 . S
O125 C142 1.255 . S
O126 Dy120 2.379 . S
O126 C142 1.249 . S
O127 Dy121 2.275 . S
O127 C143 1.254 . S
O128 Dy120 2.339 . S
O128 C143 1.257 . S
O129 Dy121 2.307 . S
O129 C144 1.266 . S
O130 Dy120 2.298 . S
O130 C144 1.236 . S
O131 Dy121 2.395 . S
O131 C151 1.255 . S
O132 Dy121 2.379 . S
O132 C151 1.249 . S
C133 O123 1.266 . S
C133 O124 1.236 . S
O134 Dy120 2.275 . S
O134 C122 1.254 . S
O135 Dy121 2.339 . S
O135 C122 1.257 . S
C136 C139 1.344 . S
C136 C140 1.328 . S
C136 C142 1.516 . S
C137 C138 1.304 . S
C137 C141 1.323 . S
C138 C137 1.304 . S
C138 C139 1.371 1_455 S
C138 H152 0.930 . S
C139 C136 1.344 . S
C139 C138 1.371 1_655 S
C139 H153 0.931 . S
C140 C136 1.328 . S
C140 C141 1.433 1_655 S
C140 H154 0.931 . S
C141 C137 1.323 . S
C141 C140 1.433 1_455 S
C141 H155 0.933 . S
C142 Dy120 2.738 . S
C142 O125 1.255 . S
C142 O126 1.249 . S
C142 C136 1.516 . S
C143 O127 1.254 . S
C143 O128 1.257 . S
C144 O129 1.266 . S
C144 O130 1.236 . S
C145 C148 1.344 . S
C145 C149 1.328 . S
C145 C151 1.516 . S
C146 C147 1.304 . S
C146 C150 1.323 . S
C147 C146 1.304 . S
C147 C148 1.371 . S
C147 H156 0.930 . S
C148 C145 1.344 . S
C148 C147 1.371 . S
C148 H157 0.931 . S
C149 C145 1.328 . S
C149 C150 1.433 . S
C149 H158 0.931 . S
C150 C146 1.323 . S
C150 C149 1.433 . S
C150 H159 0.933 . S
C151 Dy121 2.738 . S
C151 O131 1.255 . S
C151 O132 1.249 . S
C151 C145 1.516 . S
H152 C138 0.930 . S
H153 C139 0.931 . S
H154 C140 0.931 . S
H155 C141 0.933 . S
H156 C147 0.930 . S
H157 C148 0.931 . S
H158 C149 0.931 . S
H159 C150 0.933 . S
C160 C161 1.375 . S
C160 C162 1.419 . S
C160 H164 0.930 . S
C161 C160 1.375 . S
C161 C170 1.421 1_556 S
C162 C160 1.419 . S
C162 C163 1.363 1_556 S
C162 H165 0.929 . S
C163 C162 1.363 1_554 S
C163 C169 1.428 . S
H164 C160 0.930 . S
H165 C162 0.929 . S
S166 N167 1.613 . S
S166 N168 1.610 . S
N167 S166 1.613 . S
N167 C170 1.350 . S
N168 S166 1.610 . S
N168 C169 1.351 . S
C169 C163 1.428 . S
C169 N168 1.351 . S
C169 C170 1.434 . S
C170 C161 1.421 1_554 S
C170 N167 1.350 . S
C170 C169 1.434 . S
C171 C172 1.369 . S
C171 C173 1.419 . S
C171 H175 0.930 . S
C172 C171 1.369 . S
C172 C181 1.429 . S
C173 C171 1.419 . S
C173 C174 1.363 . S
C173 H176 0.929 . S
C174 C173 1.363 . S
C174 C180 1.428 . S
H175 C171 0.930 . S
H176 C173 0.929 . S
S177 N178 1.613 . S
S177 N179 1.610 . S
N178 S177 1.613 . S
N178 C181 1.350 . S
N179 S177 1.610 . S
N179 C180 1.351 . S
C180 C174 1.428 . S
C180 N179 1.351 . S
C180 C181 1.434 . S
C181 C172 1.429 . S
C181 N178 1.350 . S
C181 C180 1.434 . S
C182 C183 1.374 1_565 S
C182 C184 1.419 1_455 S
C182 H186 0.930 . S
C183 C182 1.374 1_545 S
C183 C192 1.422 1_556 S
C184 C182 1.419 1_655 S
C184 C185 1.363 1_556 S
C184 H187 0.929 . S
C185 C184 1.363 1_554 S
C185 C191 1.428 1_565 S
H186 C182 0.930 . S
H187 C184 0.929 . S
S188 N189 1.613 1_655 S
S188 N190 1.610 . S
N189 S188 1.613 1_455 S
N189 C192 1.350 . S
N190 S188 1.610 . S
N190 C191 1.351 . S
C191 C185 1.428 1_545 S
C191 N190 1.351 . S
C191 C192 1.434 1_655 S
C192 C183 1.422 1_554 S
C192 N189 1.350 . S
C192 C191 1.434 1_455 S
C193 C194 1.369 1_565 S
C193 C195 1.419 . S
C193 H197 0.930 . S
C194 C193 1.369 1_545 S
C194 C203 1.429 1_655 S
C195 C193 1.419 . S
C195 C196 1.363 1_655 S
C195 H198 0.929 . S
C196 C195 1.363 1_455 S
C196 C202 1.428 1_565 S
H197 C193 0.930 . S
H198 C195 0.929 . S
S199 N200 1.613 . S
S199 N201 1.610 . S
N200 S199 1.613 . S
N200 C203 1.350 . S
N201 S199 1.610 . S
N201 C202 1.351 . S
C202 C196 1.428 1_545 S
C202 N201 1.351 . S
C202 C203 1.434 . S
C203 C194 1.429 1_455 S
C203 N200 1.350 . S
C203 C202 1.434 . S
C204 C205 1.369 . S
C204 C206 1.419 . S
C204 H208 0.930 . S
C205 C204 1.369 . S
C205 C214 1.429 . S
C206 C204 1.419 . S
C206 C207 1.363 . S
C206 H209 0.929 . S
C207 C206 1.363 . S
C207 C213 1.428 . S
H208 C204 0.930 . S
H209 C206 0.929 . S
S210 N211 1.613 1_565 S
S210 N212 1.610 1_565 S
N211 S210 1.613 1_545 S
N211 C214 1.350 . S
N212 S210 1.610 1_545 S
N212 C213 1.351 . S
C213 C207 1.428 . S
C213 N212 1.351 . S
C213 C214 1.434 . S
C214 C205 1.429 . S
C214 N211 1.350 . S
C214 C213 1.434 . S
C215 C216 1.369 . S
C215 C217 1.419 . S
C215 H219 0.930 . S
C216 C215 1.369 . S
C216 C225 1.429 . S
C217 C215 1.419 . S
C217 C218 1.363 . S
C217 H220 0.929 . S
C218 C217 1.363 . S
C218 C224 1.428 . S
H219 C215 0.930 . S
H220 C217 0.929 . S
S221 N222 1.613 . S
S221 N223 1.610 . S
N222 S221 1.613 . S
N222 C225 1.350 . S
N223 S221 1.610 . S
N223 C224 1.351 . S
C224 C218 1.428 . S
C224 N223 1.351 . S
C224 C225 1.434 . S
C225 C216 1.429 . S
C225 N222 1.350 . S
C225 C224 1.434 . S
C226 C227 1.369 . S
C226 C228 1.419 . S
C226 H230 0.930 . S
C227 C226 1.369 . S
C227 C236 1.429 . S
C228 C226 1.419 . S
C228 C229 1.363 . S
C228 H231 0.929 . S
C229 C228 1.363 . S
C229 C235 1.428 . S
H230 C226 0.930 . S
H231 C228 0.929 . S
S232 N233 1.613 . S
S232 N234 1.610 . S
N233 S232 1.613 . S
N233 C236 1.350 . S
N234 S232 1.610 . S
N234 C235 1.351 . S
C235 C229 1.428 . S
C235 N234 1.351 . S
C235 C236 1.434 . S
C236 C227 1.429 . S
C236 N233 1.350 . S
C236 C235 1.434 . S
C237 C238 1.369 . S
C237 C239 1.419 . S
C237 H241 0.930 . S
C238 C237 1.369 . S
C238 C247 1.429 . S
C239 C237 1.419 . S
C239 C240 1.363 . S
C239 H242 0.929 . S
C240 C239 1.363 . S
C240 C246 1.428 . S
H241 C237 0.930 . S
H242 C239 0.929 . S
S243 N244 1.613 . S
S243 N245 1.610 . S
N244 S243 1.613 . S
N244 C247 1.350 . S
N245 S243 1.610 . S
N245 C246 1.351 . S
C246 C240 1.428 . S
C246 N245 1.351 . S
C246 C247 1.434 . S
C247 C238 1.429 . S
C247 N244 1.350 . S
C247 C246 1.434 . S
C248 C249 1.369 . S
C248 C250 1.419 . S
C248 H252 0.930 . S
C249 C248 1.369 . S
C249 C258 1.429 . S
C250 C248 1.419 . S
C250 C251 1.363 . S
C250 H253 0.929 1_655 S
C251 C250 1.363 . S
C251 C257 1.428 . S
H252 C248 0.930 . S
H253 C250 0.929 1_455 S
S254 N255 1.613 . S
S254 N256 1.610 . S
N255 S254 1.613 . S
N255 C258 1.350 . S
N256 S254 1.610 . S
N256 C257 1.351 . S
C257 C251 1.428 . S
C257 N256 1.351 . S
C257 C258 1.434 . S
C258 C249 1.429 . S
C258 N255 1.350 . S
C258 C257 1.434 . S
C259 C260 1.369 . S
C259 C261 1.419 . S
C259 H263 0.930 . S
C260 C259 1.369 . S
C260 C269 1.429 . S
C261 C259 1.419 . S
C261 C262 1.363 . S
C261 H264 0.929 . S
C262 C261 1.363 . S
C262 C268 1.428 . S
H263 C259 0.930 . S
H264 C261 0.929 . S
S265 N266 1.613 . S
S265 N267 1.610 . S
N266 S265 1.613 . S
N266 C269 1.350 1_455 S
N267 S265 1.610 . S
N267 C268 1.351 1_455 S
C268 C262 1.428 . S
C268 N267 1.351 1_655 S
C268 C269 1.434 . S
C269 C260 1.429 . S
C269 N266 1.350 1_655 S
C269 C268 1.434 . S
C270 C271 1.369 . S
C270 C272 1.419 . S
C270 H274 0.930 . S
C271 C270 1.369 . S
C271 C280 1.429 . S
C272 C270 1.419 . S
C272 C273 1.363 . S
C272 H275 0.929 . S
C273 C272 1.363 . S
C273 C279 1.428 . S
H274 C270 0.930 . S
H275 C272 0.929 . S
S276 N277 1.613 . S
S276 N278 1.610 . S
N277 S276 1.613 . S
N277 C280 1.350 . S
N278 S276 1.610 . S
N278 C279 1.351 . S
C279 C273 1.428 . S
C279 N278 1.351 . S
C279 C280 1.434 . S
C280 C271 1.429 . S
C280 N277 1.350 . S
C280 C279 1.434 . S
C281 C282 1.369 . S
C281 C283 1.419 . S
C281 H285 0.930 . S
C282 C281 1.369 . S
C282 C291 1.429 . S
C283 C281 1.419 . S
C283 C284 1.363 . S
C283 H286 0.929 1_455 S
C284 C283 1.363 . S
C284 C290 1.428 . S
H285 C281 0.930 . S
H286 C283 0.929 1_655 S
S287 N288 1.613 . S
S287 N289 1.610 . S
N288 S287 1.613 . S
N288 C291 1.350 . S
N289 S287 1.610 . S
N289 C290 1.351 . S
C290 C284 1.428 . S
C290 N289 1.351 . S
C290 C291 1.434 . S
C291 C282 1.429 . S
C291 N288 1.350 . S
C291 C290 1.434 . S
C161 C63 1.606 . S
C163 C2 1.599 . S
C172 C82 1.603 . S
C174 C143 1.599 . S
C183 C23 1.606 . S
C185 C42 1.599 . S
C194 C122 1.598 . S
C196 C103 1.602 . S
C205 C146 1.374 . S
C207 C13 1.459 . S
C216 C66 1.365 . S
C218 C93 1.459 . S
C227 C64 1.457 . S
C229 C97 1.373 . S
C238 C144 1.457 . S
C240 C17 1.371 . S
C249 C53 1.457 . S
C251 C106 1.373 . S
C260 C133 1.461 . S
C262 C26 1.365 . S
C271 C137 1.363 . S
C273 C24 1.459 . S
C282 C104 1.458 . S
C284 C57 1.374 . S
