# Generated by pormake.
# Topology umm, (4)-cn, num edge types: 1
# Building blocks:
#     Node 0, Type 0, BuildingBlock: GALJAG_clean_sbu_0, # of connection points: 4
#     Node 1, Type 0, BuildingBlock: GALJAG_clean_sbu_0, # of connection points: 4
#     Node 2, Type 0, BuildingBlock: GALJAG_clean_sbu_0, # of connection points: 4
#     Node 3, Type 0, BuildingBlock: GALJAG_clean_sbu_0, # of connection points: 4
#     Node 4, Type 0, BuildingBlock: GALJAG_clean_sbu_0, # of connection points: 4
#     Node 5, Type 0, BuildingBlock: GALJAG_clean_sbu_0, # of connection points: 4
#     Node 6, Type 0, BuildingBlock: GALJAG_clean_sbu_0, # of connection points: 4
#     Node 7, Type 0, BuildingBlock: GALJAG_clean_sbu_0, # of connection points: 4
#     Node 8, Type 0, BuildingBlock: GALJAG_clean_sbu_0, # of connection points: 4
#     Node 9, Type 0, BuildingBlock: GALJAG_clean_sbu_0, # of connection points: 4
#     Node 10, Type 0, BuildingBlock: GALJAG_clean_sbu_0, # of connection points: 4
#     Node 11, Type 0, BuildingBlock: GALJAG_clean_sbu_0, # of connection points: 4
#     Edge 12, Type (0, 0), BuildingBlock: AJUNOK_clean_linker_0, # of connection points: 2
#     Edge 13, Type (0, 0), BuildingBlock: AJUNOK_clean_linker_0, # of connection points: 2
#     Edge 14, Type (0, 0), BuildingBlock: AJUNOK_clean_linker_0, # of connection points: 2
#     Edge 15, Type (0, 0), BuildingBlock: AJUNOK_clean_linker_0, # of connection points: 2
#     Edge 16, Type (0, 0), BuildingBlock: AJUNOK_clean_linker_0, # of connection points: 2
#     Edge 17, Type (0, 0), BuildingBlock: AJUNOK_clean_linker_0, # of connection points: 2
#     Edge 18, Type (0, 0), BuildingBlock: AJUNOK_clean_linker_0, # of connection points: 2
#     Edge 19, Type (0, 0), BuildingBlock: AJUNOK_clean_linker_0, # of connection points: 2
#     Edge 20, Type (0, 0), BuildingBlock: AJUNOK_clean_linker_0, # of connection points: 2
#     Edge 21, Type (0, 0), BuildingBlock: AJUNOK_clean_linker_0, # of connection points: 2
#     Edge 22, Type (0, 0), BuildingBlock: AJUNOK_clean_linker_0, # of connection points: 2
#     Edge 23, Type (0, 0), BuildingBlock: AJUNOK_clean_linker_0, # of connection points: 2
#     Edge 24, Type (0, 0), BuildingBlock: AJUNOK_clean_linker_0, # of connection points: 2
#     Edge 25, Type (0, 0), BuildingBlock: AJUNOK_clean_linker_0, # of connection points: 2
#     Edge 26, Type (0, 0), BuildingBlock: AJUNOK_clean_linker_0, # of connection points: 2
#     Edge 27, Type (0, 0), BuildingBlock: AJUNOK_clean_linker_0, # of connection points: 2
#     Edge 28, Type (0, 0), BuildingBlock: AJUNOK_clean_linker_0, # of connection points: 2
#     Edge 29, Type (0, 0), BuildingBlock: AJUNOK_clean_linker_0, # of connection points: 2
#     Edge 30, Type (0, 0), BuildingBlock: AJUNOK_clean_linker_0, # of connection points: 2
#     Edge 31, Type (0, 0), BuildingBlock: AJUNOK_clean_linker_0, # of connection points: 2
#     Edge 32, Type (0, 0), BuildingBlock: AJUNOK_clean_linker_0, # of connection points: 2
#     Edge 33, Type (0, 0), BuildingBlock: AJUNOK_clean_linker_0, # of connection points: 2
#     Edge 34, Type (0, 0), BuildingBlock: AJUNOK_clean_linker_0, # of connection points: 2
#     Edge 35, Type (0, 0), BuildingBlock: AJUNOK_clean_linker_0, # of connection points: 2
# Relax obj value: 0.093
# Max RMSD: 0.221
# Mean RMSD: 0.220
data_MOF--net-umm--node1-GALJAG_clean_sbu_0--edge1-AJUNOK_clean_linker_0
_symmetry_space_group_name_H-M    P1
_symmetry_Int_Tables_number       1
_symmetry_cell_setting            triclinic
loop_
_symmetry_equiv_pos_as_xyz
'x, y, z'
_cell_length_a     41.330604
_cell_length_b     41.369467
_cell_length_c     21.037234
_cell_angle_alpha  89.960856
_cell_angle_beta   90.021745
_cell_angle_gamma 120.0153
loop_
_atom_site_label
_atom_site_type_symbol
_atom_site_fract_x
_atom_site_fract_y
_atom_site_fract_z
_atom_type_partial_charge
In0 In 0.38738 0.53445 0.08074 0.0
O1 O 0.40962 0.58324 0.14928 0.0
O2 O 0.37931 0.52769 0.18693 0.0
C3 C 0.39936 0.55867 0.96115 0.0
C4 C 0.44167 0.51694 0.08764 0.0
C5 C 0.31393 0.50721 0.06796 0.0
O6 O 0.40981 0.58126 0.00758 0.0
O7 O 0.38349 0.52452 0.97576 0.0
O8 O 0.32782 0.48604 0.06197 0.0
O9 O 0.33677 0.54058 0.08313 0.0
C10 C 0.39735 0.56245 0.19797 0.0
O11 O 0.40742 0.49191 0.09215 0.0
O12 O 0.44751 0.54962 0.07933 0.0
In13 In 0.84644 0.38492 0.42192 0.0
O14 O 0.81655 0.40501 0.48848 0.0
O15 O 0.83585 0.36972 0.52615 0.0
C16 C 0.84499 0.40538 0.30188 0.0
C17 C 0.91765 0.4374 0.44413 0.0
C18 C 0.80732 0.31281 0.38944 0.0
O19 O 0.8217 0.40419 0.34252 0.0
O20 O 0.86853 0.39707 0.32261 0.0
O21 O 0.84209 0.32837 0.40054 0.0
O22 O 0.79279 0.33296 0.39834 0.0
C23 C 0.82036 0.38892 0.53686 0.0
O24 O 0.90719 0.40282 0.44442 0.0
O25 O 0.89196 0.44486 0.43386 0.0
In26 In 0.46166 0.85262 0.75837 0.0
O27 O 0.4136 0.82993 0.82867 0.0
O28 O 0.46903 0.85118 0.86476 0.0
C29 C 0.43525 0.84095 0.63981 0.0
C30 C 0.48553 0.92595 0.7629 0.0
C31 C 0.48429 0.80293 0.74165 0.0
O32 O 0.41346 0.8303 0.68741 0.0
O33 O 0.46968 0.85765 0.65278 0.0
O34 O 0.50736 0.83773 0.73803 0.0
O35 O 0.45154 0.7944 0.75798 0.0
C36 C 0.43458 0.83727 0.87685 0.0
O37 O 0.50827 0.91381 0.76748 0.0
O38 O 0.45175 0.9011 0.75616 0.0
In39 In 0.61699 0.46535 0.08492 0.0
O40 O 0.59607 0.41801 0.15745 0.0
O41 O 0.62716 0.47431 0.19075 0.0
C42 C 0.60545 0.43723 0.96698 0.0
C43 C 0.5637 0.48458 0.08953 0.0
C44 C 0.69096 0.49808 0.06884 0.0
O45 O 0.59524 0.41609 0.01542 0.0
O46 O 0.6205 0.47163 0.97879 0.0
O47 O 0.67383 0.51603 0.0605 0.0
O48 O 0.67109 0.46503 0.08883 0.0
C49 C 0.6096 0.43993 0.20453 0.0
O50 O 0.59814 0.50864 0.09443 0.0
O51 O 0.55676 0.45145 0.08232 0.0
In52 In 0.14437 0.60912 0.42359 0.0
O53 O 0.17428 0.58945 0.4906 0.0
O54 O 0.15347 0.62353 0.52829 0.0
C55 C 0.14571 0.59081 0.30262 0.0
C56 C 0.07277 0.55694 0.44288 0.0
C57 C 0.19128 0.67987 0.39146 0.0
O58 O 0.16035 0.58106 0.34627 0.0
O59 O 0.12952 0.60824 0.32079 0.0
O60 O 0.15799 0.66978 0.40834 0.0
O61 O 0.20067 0.65518 0.39582 0.0
C62 C 0.16944 0.60474 0.5391 0.0
O63 O 0.0828 0.59145 0.44098 0.0
O64 O 0.0988 0.54977 0.43512 0.0
In65 In 0.54092 0.15351 0.74705 0.0
O66 O 0.58924 0.18179 0.81692 0.0
O67 O 0.53362 0.15816 0.85281 0.0
C68 C 0.56795 0.16733 0.62851 0.0
C69 C 0.52339 0.08174 0.75686 0.0
C70 C 0.50701 0.19282 0.72265 0.0
O71 O 0.58942 0.18109 0.67615 0.0
O72 O 0.53391 0.14604 0.64148 0.0
O73 O 0.48866 0.15743 0.72449 0.0
O74 O 0.54108 0.2075 0.73764 0.0
C75 C 0.56823 0.17456 0.86495 0.0
O76 O 0.49869 0.09134 0.76051 0.0
O77 O 0.55619 0.10827 0.74793 0.0
In78 In 0.46206 0.61064 0.5791 0.0
O79 O 0.41593 0.59036 0.50563 0.0
O80 O 0.47246 0.62502 0.47464 0.0
C81 C 0.43706 0.59381 0.69728 0.0
C82 C 0.4815 0.55795 0.57156 0.0
C83 C 0.48301 0.68064 0.611 0.0
O84 O 0.41451 0.58351 0.65061 0.0
O85 O 0.47141 0.61063 0.68341 0.0
O86 O 0.50747 0.67105 0.60155 0.0
O87 O 0.44972 0.65616 0.59802 0.0
C88 C 0.43823 0.60605 0.45966 0.0
O89 O 0.5061 0.59248 0.57088 0.0
O90 O 0.44817 0.55107 0.57533 0.0
In91 In 0.8468 0.45863 0.91396 0.0
O92 O 0.81645 0.40956 0.84569 0.0
O93 O 0.83597 0.46472 0.8105 0.0
C94 C 0.84495 0.43624 0.03365 0.0
C95 C 0.91737 0.47508 0.89223 0.0
C96 C 0.80847 0.49215 0.94734 0.0
O97 O 0.82139 0.41454 0.99295 0.0
O98 O 0.869 0.46798 0.01319 0.0
O99 O 0.84279 0.5113 0.93266 0.0
O100 O 0.79398 0.45725 0.94173 0.0
C101 C 0.82009 0.43018 0.79846 0.0
O102 O 0.90836 0.50029 0.89442 0.0
O103 O 0.89061 0.44217 0.89974 0.0
In104 In 0.38454 0.85622 0.25849 0.0
O105 O 0.40666 0.83159 0.18546 0.0
O106 O 0.37457 0.85608 0.15309 0.0
C107 C 0.39727 0.84274 0.37691 0.0
C108 C 0.43649 0.92888 0.25303 0.0
C109 C 0.31184 0.80769 0.27422 0.0
O110 O 0.40951 0.83301 0.32959 0.0
O111 O 0.38006 0.85993 0.3638 0.0
O112 O 0.3245 0.84256 0.28047 0.0
O113 O 0.33539 0.79855 0.25647 0.0
C114 C 0.39289 0.84007 0.13875 0.0
O115 O 0.40184 0.9181 0.24927 0.0
O116 O 0.44402 0.90304 0.26002 0.0
In117 In 0.54003 0.38781 0.58539 0.0
O118 O 0.58875 0.41009 0.51543 0.0
O119 O 0.53315 0.37932 0.47891 0.0
C120 C 0.56745 0.3987 0.70397 0.0
C121 C 0.51861 0.4394 0.57941 0.0
C122 C 0.50753 0.31369 0.59906 0.0
O123 O 0.58899 0.41059 0.65611 0.0
O124 O 0.53306 0.38268 0.69143 0.0
O125 O 0.4893 0.3305 0.60747 0.0
O126 O 0.54078 0.33401 0.58016 0.0
C127 C 0.56778 0.39755 0.46701 0.0
O128 O 0.49546 0.40481 0.5737 0.0
O129 O 0.55192 0.44735 0.58867 0.0
In130 In 0.14507 0.53391 0.9166 0.0
O131 O 0.08432 0.48825 0.89876 0.0
O132 O 0.09772 0.54519 0.90382 0.0
C133 C 0.19165 0.50995 0.95119 0.0
C134 C 0.17012 0.5624 0.80044 0.0
C135 C 0.14593 0.55593 0.03617 0.0
O136 O 0.15815 0.48683 0.93558 0.0
O137 O 0.20145 0.54402 0.94475 0.0
O138 O 0.16148 0.57943 0.99151 0.0
O139 O 0.12953 0.52204 0.01961 0.0
C140 C 0.07274 0.5115 0.89655 0.0
O141 O 0.17353 0.58289 0.8477 0.0
O142 O 0.15533 0.52794 0.81274 0.0
In143 In 0.61507 0.15426 0.24673 0.0
O144 O 0.59292 0.09122 0.23911 0.0
O145 O 0.55407 0.11041 0.25022 0.0
C146 C 0.68927 0.19352 0.26132 0.0
C147 C 0.60868 0.17299 0.12739 0.0
C148 C 0.60569 0.17198 0.36474 0.0
O149 O 0.67122 0.15846 0.26994 0.0
O150 O 0.6701 0.20768 0.24209 0.0
O151 O 0.59402 0.18202 0.31705 0.0
O152 O 0.62088 0.15285 0.3523 0.0
C153 C 0.55899 0.08288 0.24401 0.0
O154 O 0.5965 0.18285 0.17452 0.0
O155 O 0.62432 0.15425 0.14098 0.0
C156 C 0.38273 0.55519 0.31374 0.0
C157 C 0.40569 0.57711 0.26355 0.0
C158 C 0.39238 0.56603 0.37716 0.0
C159 C 0.42578 0.5988 0.3927 0.0
H160 H 0.35753 0.52894 0.30404 0.0
H161 H 0.37445 0.54761 0.41424 0.0
S162 S 0.49426 0.66731 0.27872 0.0
N163 N 0.46199 0.63438 0.23338 0.0
N164 N 0.48063 0.65434 0.35275 0.0
C165 C 0.44823 0.62175 0.34293 0.0
C166 C 0.43805 0.61103 0.27826 0.0
C167 C 0.81297 0.37352 0.65274 0.0
C168 C 0.81223 0.39572 0.60262 0.0
C169 C 0.81255 0.38331 0.71644 0.0
C170 C 0.81194 0.416 0.73236 0.0
H171 H 0.81559 0.34923 0.64279 0.0
H172 H 0.81513 0.36641 0.75323 0.0
S173 S 0.80461 0.48097 0.61944 0.0
N174 N 0.80657 0.44962 0.57357 0.0
N175 N 0.80645 0.46835 0.69323 0.0
C176 C 0.80861 0.43705 0.6829 0.0
C177 C 0.80853 0.42681 0.61802 0.0
C178 C 0.44186 0.83104 0.99333 0.0
C179 C 0.42065 0.8331 0.94281 0.0
C180 C 0.43158 0.83137 0.05675 0.0
C181 C 0.40017 0.83459 0.0719 0.0
H182 H 0.46706 0.82994 0.98385 0.0
H183 H 0.44931 0.83073 0.09408 0.0
S184 S 0.33417 0.8388 0.9571 0.0
N185 N 0.36565 0.83642 0.91215 0.0
N186 N 0.34678 0.83785 0.03125 0.0
C187 C 0.37804 0.83544 0.02183 0.0
C188 C 0.38814 0.83445 0.95728 0.0
C189 C 0.56942 0.39375 0.28699 0.0
C190 C 0.60244 0.42683 0.27126 0.0
C191 C 0.55914 0.38375 0.35064 0.0
C192 C 0.5819 0.406 0.40086 0.0
H193 H 0.55043 0.37643 0.24997 0.0
H194 H 0.53265 0.35887 0.36055 0.0
S195 S 0.67324 0.49325 0.38467 0.0
N196 N 0.65918 0.48046 0.31078 0.0
N197 N 0.64035 0.46115 0.43034 0.0
C198 C 0.61608 0.43796 0.38569 0.0
C199 C 0.6262 0.44852 0.32089 0.0
C200 C 0.17607 0.61924 0.65533 0.0
C201 C 0.17716 0.59748 0.60485 0.0
C202 C 0.17659 0.60918 0.71886 0.0
C203 C 0.17759 0.57661 0.73428 0.0
H204 H 0.17326 0.64347 0.64576 0.0
H205 H 0.17391 0.62584 0.75596 0.0
S206 S 0.18533 0.51245 0.6202 0.0
N207 N 0.18316 0.54392 0.57489 0.0
N208 N 0.18341 0.52465 0.69421 0.0
C209 C 0.18102 0.55588 0.68444 0.0
C210 C 0.18103 0.56641 0.61973 0.0
C211 C 0.56974 0.18084 0.04478 0.0
C212 C 0.60212 0.17959 0.06078 0.0
C213 C 0.55978 0.18089 0.98102 0.0
C214 C 0.5823 0.18058 0.9311 0.0
H215 H 0.55091 0.17971 0.08164 0.0
H216 H 0.53366 0.18001 0.97079 0.0
S217 S 0.67218 0.18164 0.94826 0.0
N218 N 0.65812 0.18086 0.02199 0.0
N219 N 0.63998 0.18198 0.90225 0.0
C220 C 0.61598 0.18177 0.94661 0.0
C221 C 0.62572 0.18097 0.01148 0.0
C222 C 0.26107 0.47836 0.99021 0.0
C223 C 0.2757 0.49695 0.04835 0.0
C224 C 0.23127 0.47972 0.96011 0.0
C225 C 0.21557 0.49966 0.98767 0.0
H226 H 0.27478 0.46563 0.96522 0.0
H227 H 0.22251 0.46767 0.9132 0.0
S228 S 0.23962 0.54729 0.14401 0.0
N229 N 0.2689 0.53137 0.13576 0.0
N230 N 0.21339 0.53402 0.07946 0.0
C231 C 0.22779 0.5153 0.0482 0.0
C232 C 0.25774 0.51386 0.07861 0.0
C233 C 0.7641 0.244 0.38311 0.0
C234 C 0.78674 0.27826 0.3525 0.0
C235 C 0.73498 0.21397 0.35008 0.0
C236 C 0.72719 0.21795 0.28627 0.0
H237 H 0.7669 0.24141 0.43379 0.0
H238 H 0.71611 0.18905 0.37645 0.0
S239 S 0.78128 0.30075 0.1838 0.0
N240 N 0.80227 0.3131 0.25363 0.0
N241 N 0.74678 0.25733 0.1924 0.0
C242 C 0.75159 0.25105 0.25418 0.0
C243 C 0.78156 0.28114 0.28726 0.0
C244 C 0.46553 0.73629 0.73296 0.0
C245 C 0.4917 0.77353 0.71809 0.0
C246 C 0.4644 0.70677 0.69922 0.0
C247 C 0.48977 0.71307 0.64986 0.0
H248 H 0.44417 0.72982 0.76853 0.0
H249 H 0.44249 0.67865 0.71057 0.0
S250 S 0.56718 0.80479 0.59774 0.0
N251 N 0.54608 0.81505 0.65443 0.0
N252 N 0.54442 0.75876 0.59196 0.0
C253 C 0.5182 0.74979 0.63785 0.0
C254 C 0.5191 0.78026 0.6719 0.0
C255 C 0.75144 0.49976 0.07713 0.0
C256 C 0.72872 0.51042 0.04415 0.0
C257 C 0.78072 0.49834 0.04639 0.0
C258 C 0.78804 0.50726 0.98161 0.0
H259 H 0.74458 0.48945 0.12546 0.0
H260 H 0.79558 0.48699 0.072 0.0
S261 S 0.73884 0.53983 0.8754 0.0
N262 N 0.71756 0.53321 0.94467 0.0
N263 N 0.7724 0.52975 0.88662 0.0
C264 C 0.76762 0.52085 0.94937 0.0
C265 C 0.73799 0.52275 0.98091 0.0
C266 C 0.23094 0.71143 0.29884 0.0
C267 C 0.21555 0.71458 0.35642 0.0
C268 C 0.25966 0.74274 0.26885 0.0
C269 C 0.27444 0.77848 0.29556 0.0
H270 H 0.222 0.68419 0.27839 0.0
H271 H 0.27211 0.73856 0.22658 0.0
S272 S 0.24126 0.80208 0.44271 0.0
N273 N 0.21452 0.75629 0.43638 0.0
N274 N 0.26941 0.8157 0.38039 0.0
C275 C 0.25738 0.78249 0.35066 0.0
C276 C 0.2277 0.75031 0.38116 0.0
C277 C 0.51003 0.22554 0.62384 0.0
C278 C 0.49489 0.21475 0.68508 0.0
C279 C 0.51012 0.2554 0.59262 0.0
C280 C 0.49489 0.27539 0.6215 0.0
H281 H 0.52477 0.21286 0.60215 0.0
H282 H 0.52491 0.26478 0.54782 0.0
S283 S 0.44655 0.25408 0.77736 0.0
N284 N 0.46053 0.22314 0.77066 0.0
N285 N 0.45991 0.2792 0.71143 0.0
C286 C 0.4762 0.26239 0.67999 0.0
C287 C 0.47654 0.23209 0.71219 0.0
C288 C 0.46617 0.47238 0.08897 0.0
C289 C 0.47308 0.50923 0.09065 0.0
C290 C 0.4957 0.46481 0.08907 0.0
C291 C 0.5333 0.49377 0.09124 0.0
H292 H 0.43779 0.44918 0.08664 0.0
H293 H 0.48888 0.43591 0.08707 0.0
S294 S 0.56646 0.59518 0.09887 0.0
N295 N 0.52049 0.57514 0.09643 0.0
N296 N 0.57569 0.56073 0.0968 0.0
C297 C 0.54059 0.53072 0.09407 0.0
C298 C 0.51057 0.53848 0.09371 0.0
C299 C 0.96662 0.50509 0.44385 0.0
C300 C 0.95722 0.46744 0.45038 0.0
C301 C 0.00398 0.53408 0.44367 0.0
C302 C 0.03341 0.52655 0.44987 0.0
H303 H 0.945 0.51229 0.43718 0.0
H304 H 0.00981 0.56244 0.43672 0.0
S305 S 0.0238 0.43309 0.47436 0.0
N306 N 0.98043 0.42454 0.46753 0.0
N307 N 0.05052 0.47877 0.46739 0.0
C308 C 0.02435 0.48914 0.45904 0.0
C309 C 0.98632 0.45967 0.45925 0.0
C310 C 0.47744 0.01335 0.76147 0.0
C311 C 0.51476 0.04243 0.76113 0.0
C312 C 0.46854 0.97595 0.76277 0.0
C313 C 0.49658 0.96602 0.76411 0.0
H314 H 0.45483 0.01944 0.75979 0.0
H315 H 0.43928 0.95464 0.76224 0.0
S316 S 0.59879 0.03163 0.76686 0.0
N317 N 0.58019 0.05884 0.76436 0.0
N318 N 0.56326 0.98843 0.76702 0.0
C319 C 0.53404 0.99479 0.76511 0.0
C320 C 0.54317 0.03299 0.76353 0.0
C321 C 0.52767 0.53545 0.57412 0.0
C322 C 0.49042 0.52737 0.57069 0.0
C323 C 0.5364 0.50677 0.5766 0.0
C324 C 0.50823 0.46886 0.5755 0.0
H325 H 0.5503 0.56414 0.57575 0.0
H326 H 0.56555 0.51448 0.57969 0.0
S327 S 0.4062 0.43262 0.56511 0.0
N328 N 0.425 0.47844 0.56504 0.0
N329 N 0.44159 0.42483 0.5696 0.0
C330 C 0.4709 0.46036 0.57115 0.0
C331 C 0.46195 0.48952 0.56877 0.0
C332 C 0.0233 0.52919 0.88885 0.0
C333 C 0.03292 0.50094 0.88951 0.0
C334 C 0.98594 0.5206 0.8875 0.0
C335 C 0.9566 0.48341 0.88679 0.0
H336 H 0.04478 0.55833 0.8908 0.0
H337 H 0.98009 0.54337 0.88873 0.0
S338 S 0.96666 0.399 0.8831 0.0
N339 N 0.01001 0.43425 0.88571 0.0
N340 N 0.93972 0.41794 0.88303 0.0
C341 C 0.96579 0.45484 0.88506 0.0
C342 C 0.00394 0.46364 0.88644 0.0
C343 C 0.50434 0.97699 0.25089 0.0
C344 C 0.46676 0.96847 0.24935 0.0
C345 C 0.53393 0.01393 0.2482 0.0
C346 C 0.52721 0.04394 0.24419 0.0
H347 H 0.51113 0.95493 0.25442 0.0
H348 H 0.56227 0.01895 0.25007 0.0
S349 S 0.43399 0.03688 0.23667 0.0
N350 N 0.42453 0.99319 0.24201 0.0
N351 N 0.48001 0.06267 0.23721 0.0
C352 C 0.48976 0.03587 0.24194 0.0
C353 C 0.45959 0.99816 0.24443 0.0
C354 C 0.39355 0.55354 0.78197 0.0
C355 C 0.42488 0.5873 0.76383 0.0
C356 C 0.38475 0.54509 0.8463 0.0
C357 C 0.4065 0.57052 0.89422 0.0
H358 H 0.37687 0.53285 0.74653 0.0
H359 H 0.36124 0.51807 0.85865 0.0
S360 S 0.48859 0.66475 0.87006 0.0
N361 N 0.47594 0.64757 0.79769 0.0
N362 N 0.45868 0.6321 0.91869 0.0
C363 C 0.43646 0.60535 0.8763 0.0
C364 C 0.44587 0.61361 0.81094 0.0
C365 C 0.81104 0.40201 0.20114 0.0
C366 C 0.84482 0.41451 0.23425 0.0
C367 C 0.81094 0.4076 0.13518 0.0
C368 C 0.84465 0.42658 0.10107 0.0
H369 H 0.78461 0.38709 0.22602 0.0
H370 H 0.78449 0.39786 0.1111 0.0
S371 S 0.94035 0.4651 0.16607 0.0
N372 N 0.91261 0.44643 0.22806 0.0
N373 N 0.91243 0.45782 0.105 0.0
C374 C 0.87847 0.43939 0.13388 0.0
C375 C 0.87855 0.43313 0.20032 0.0
C376 C 0.44669 0.8382 0.52442 0.0
C377 C 0.42237 0.83597 0.57334 0.0
C378 C 0.43743 0.83812 0.46039 0.0
C379 C 0.40388 0.83654 0.44332 0.0
H380 H 0.47355 0.84097 0.53569 0.0
H381 H 0.45748 0.84123 0.42428 0.0
S382 S 0.3289 0.82638 0.55263 0.0
N383 N 0.36189 0.82877 0.60006 0.0
N384 N 0.34475 0.82939 0.47955 0.0
C385 C 0.3785 0.83246 0.49151 0.0
C386 C 0.38766 0.83192 0.55667 0.0
C387 C 0.61257 0.43847 0.78767 0.0
C388 C 0.58063 0.40494 0.77036 0.0
C389 C 0.62133 0.44787 0.85185 0.0
C390 C 0.5989 0.42372 0.90072 0.0
H391 H 0.6296 0.45852 0.75163 0.0
H392 H 0.64518 0.47484 0.86329 0.0
S393 S 0.51528 0.33031 0.87969 0.0
N394 N 0.52853 0.34594 0.80658 0.0
N395 N 0.54562 0.36333 0.92724 0.0
C396 C 0.56853 0.38893 0.88389 0.0
C397 C 0.55921 0.37964 0.8186 0.0
C398 C 0.14418 0.54096 0.1512 0.0
C399 C 0.14759 0.56645 0.10358 0.0
C400 C 0.14486 0.54948 0.21578 0.0
C401 C 0.14774 0.5833 0.23481 0.0
H402 H 0.1411 0.51417 0.13851 0.0
H403 H 0.14201 0.52906 0.25091 0.0
S404 S 0.15827 0.6599 0.12934 0.0
N405 N 0.15538 0.62746 0.08012 0.0
N406 N 0.15503 0.64291 0.2016 0.0
C407 C 0.15138 0.60914 0.18786 0.0
C408 C 0.15174 0.60089 0.12214 0.0
C409 C 0.55508 0.17078 0.51398 0.0
C410 C 0.5807 0.17484 0.5619 0.0
C411 C 0.56443 0.17302 0.44953 0.0
C412 C 0.59941 0.17857 0.43104 0.0
H413 H 0.52712 0.16465 0.5263 0.0
H414 H 0.54335 0.16798 0.41415 0.0
S415 S 0.67774 0.19478 0.53732 0.0
N416 N 0.6437 0.18823 0.58623 0.0
N417 N 0.66093 0.19129 0.46483 0.0
C418 C 0.62596 0.18465 0.47826 0.0
C419 C 0.61671 0.18313 0.54389 0.0
loop_
_geom_bond_atom_site_label_1
_geom_bond_atom_site_label_2
_geom_bond_distance
_geom_bond_site_symmetry_2
_ccdc_geom_bond_type
In0 O1 2.294 . S
In0 O2 2.326 . S
In0 O6 2.266 . S
In0 O7 2.326 1_554 S
In0 O8 2.266 . S
In0 O9 2.326 . S
In0 O11 2.294 . S
In0 O12 2.326 . S
O1 In0 2.294 . S
O1 C10 1.240 . S
O2 In0 2.326 . S
O2 C10 1.252 . S
C3 O6 1.252 1_556 S
C3 O7 1.260 . S
C4 O11 1.240 . S
C4 O12 1.252 . S
C5 O8 1.252 . S
C5 O9 1.260 . S
O6 In0 2.266 . S
O6 C3 1.252 1_554 S
O7 In0 2.326 1_556 S
O7 C3 1.260 . S
O8 In0 2.266 . S
O8 C5 1.252 . S
O9 In0 2.326 . S
O9 C5 1.260 . S
C10 O1 1.240 . S
C10 O2 1.252 . S
O11 In0 2.294 . S
O11 C4 1.240 . S
O12 In0 2.326 . S
O12 C4 1.252 . S
In13 O14 2.294 . S
In13 O15 2.326 . S
In13 O19 2.266 . S
In13 O20 2.326 . S
In13 O21 2.266 . S
In13 O22 2.326 . S
In13 O24 2.294 . S
In13 O25 2.326 . S
O14 In13 2.294 . S
O14 C23 1.240 . S
O15 In13 2.326 . S
O15 C23 1.252 . S
C16 O19 1.252 . S
C16 O20 1.260 . S
C17 O24 1.240 . S
C17 O25 1.252 . S
C18 O21 1.252 . S
C18 O22 1.260 . S
O19 In13 2.266 . S
O19 C16 1.252 . S
O20 In13 2.326 . S
O20 C16 1.260 . S
O21 In13 2.266 . S
O21 C18 1.252 . S
O22 In13 2.326 . S
O22 C18 1.260 . S
C23 O14 1.240 . S
C23 O15 1.252 . S
O24 In13 2.294 . S
O24 C17 1.240 . S
O25 In13 2.326 . S
O25 C17 1.252 . S
In26 O27 2.294 . S
In26 O28 2.326 . S
In26 O32 2.266 . S
In26 O33 2.326 . S
In26 O34 2.266 . S
In26 O35 2.326 . S
In26 O37 2.294 . S
In26 O38 2.326 . S
O27 In26 2.294 . S
O27 C36 1.240 . S
O28 In26 2.326 . S
O28 C36 1.252 . S
C29 O32 1.252 . S
C29 O33 1.260 . S
C30 O37 1.240 . S
C30 O38 1.252 . S
C31 O34 1.252 . S
C31 O35 1.260 . S
O32 In26 2.266 . S
O32 C29 1.252 . S
O33 In26 2.326 . S
O33 C29 1.260 . S
O34 In26 2.266 . S
O34 C31 1.252 . S
O35 In26 2.326 . S
O35 C31 1.260 . S
C36 O27 1.240 . S
C36 O28 1.252 . S
O37 In26 2.294 . S
O37 C30 1.240 . S
O38 In26 2.326 . S
O38 C30 1.252 . S
In39 O40 2.294 . S
In39 O41 2.326 . S
In39 O45 2.266 . S
In39 O46 2.326 1_554 S
In39 O47 2.266 . S
In39 O48 2.326 . S
In39 O50 2.294 . S
In39 O51 2.326 . S
O40 In39 2.294 . S
O40 C49 1.240 . S
O41 In39 2.326 . S
O41 C49 1.252 . S
C42 O45 1.252 1_556 S
C42 O46 1.260 . S
C43 O50 1.240 . S
C43 O51 1.252 . S
C44 O47 1.252 . S
C44 O48 1.260 . S
O45 In39 2.266 . S
O45 C42 1.252 1_554 S
O46 In39 2.326 1_556 S
O46 C42 1.260 . S
O47 In39 2.266 . S
O47 C44 1.252 . S
O48 In39 2.326 . S
O48 C44 1.260 . S
C49 O40 1.240 . S
C49 O41 1.252 . S
O50 In39 2.294 . S
O50 C43 1.240 . S
O51 In39 2.326 . S
O51 C43 1.252 . S
In52 O53 2.294 . S
In52 O54 2.326 . S
In52 O58 2.266 . S
In52 O59 2.326 . S
In52 O60 2.266 . S
In52 O61 2.326 . S
In52 O63 2.294 . S
In52 O64 2.326 . S
O53 In52 2.294 . S
O53 C62 1.240 . S
O54 In52 2.326 . S
O54 C62 1.252 . S
C55 O58 1.252 . S
C55 O59 1.260 . S
C56 O63 1.240 . S
C56 O64 1.252 . S
C57 O60 1.252 . S
C57 O61 1.260 . S
O58 In52 2.266 . S
O58 C55 1.252 . S
O59 In52 2.326 . S
O59 C55 1.260 . S
O60 In52 2.266 . S
O60 C57 1.252 . S
O61 In52 2.326 . S
O61 C57 1.260 . S
C62 O53 1.240 . S
C62 O54 1.252 . S
O63 In52 2.294 . S
O63 C56 1.240 . S
O64 In52 2.326 . S
O64 C56 1.252 . S
In65 O66 2.294 . S
In65 O67 2.326 . S
In65 O71 2.266 . S
In65 O72 2.326 . S
In65 O73 2.266 . S
In65 O74 2.326 . S
In65 O76 2.294 . S
In65 O77 2.326 . S
O66 In65 2.294 . S
O66 C75 1.240 . S
O67 In65 2.326 . S
O67 C75 1.252 . S
C68 O71 1.252 . S
C68 O72 1.260 . S
C69 O76 1.240 . S
C69 O77 1.252 . S
C70 O73 1.252 . S
C70 O74 1.260 . S
O71 In65 2.266 . S
O71 C68 1.252 . S
O72 In65 2.326 . S
O72 C68 1.260 . S
O73 In65 2.266 . S
O73 C70 1.252 . S
O74 In65 2.326 . S
O74 C70 1.260 . S
C75 O66 1.240 . S
C75 O67 1.252 . S
O76 In65 2.294 . S
O76 C69 1.240 . S
O77 In65 2.326 . S
O77 C69 1.252 . S
In78 O79 2.294 . S
In78 O80 2.326 . S
In78 O84 2.266 . S
In78 O85 2.326 . S
In78 O86 2.266 . S
In78 O87 2.326 . S
In78 O89 2.294 . S
In78 O90 2.326 . S
O79 In78 2.294 . S
O79 C88 1.240 . S
O80 In78 2.326 . S
O80 C88 1.252 . S
C81 O84 1.252 . S
C81 O85 1.260 . S
C82 O89 1.240 . S
C82 O90 1.252 . S
C83 O86 1.252 . S
C83 O87 1.260 . S
O84 In78 2.266 . S
O84 C81 1.252 . S
O85 In78 2.326 . S
O85 C81 1.260 . S
O86 In78 2.266 . S
O86 C83 1.252 . S
O87 In78 2.326 . S
O87 C83 1.260 . S
C88 O79 1.240 . S
C88 O80 1.252 . S
O89 In78 2.294 . S
O89 C82 1.240 . S
O90 In78 2.326 . S
O90 C82 1.252 . S
In91 O92 2.294 . S
In91 O93 2.326 . S
In91 O97 2.266 . S
In91 O98 2.326 1_556 S
In91 O99 2.266 . S
In91 O100 2.326 . S
In91 O102 2.294 . S
In91 O103 2.326 . S
O92 In91 2.294 . S
O92 C101 1.240 . S
O93 In91 2.326 . S
O93 C101 1.252 . S
C94 O97 1.252 1_554 S
C94 O98 1.260 . S
C95 O102 1.240 . S
C95 O103 1.252 . S
C96 O99 1.252 . S
C96 O100 1.260 . S
O97 In91 2.266 . S
O97 C94 1.252 1_556 S
O98 In91 2.326 1_554 S
O98 C94 1.260 . S
O99 In91 2.266 . S
O99 C96 1.252 . S
O100 In91 2.326 . S
O100 C96 1.260 . S
C101 O92 1.240 . S
C101 O93 1.252 . S
O102 In91 2.294 . S
O102 C95 1.240 . S
O103 In91 2.326 . S
O103 C95 1.252 . S
In104 O105 2.294 . S
In104 O106 2.326 . S
In104 O110 2.266 . S
In104 O111 2.326 . S
In104 O112 2.266 . S
In104 O113 2.326 . S
In104 O115 2.294 . S
In104 O116 2.326 . S
O105 In104 2.294 . S
O105 C114 1.240 . S
O106 In104 2.326 . S
O106 C114 1.252 . S
C107 O110 1.252 . S
C107 O111 1.260 . S
C108 O115 1.240 . S
C108 O116 1.252 . S
C109 O112 1.252 . S
C109 O113 1.260 . S
O110 In104 2.266 . S
O110 C107 1.252 . S
O111 In104 2.326 . S
O111 C107 1.260 . S
O112 In104 2.266 . S
O112 C109 1.252 . S
O113 In104 2.326 . S
O113 C109 1.260 . S
C114 O105 1.240 . S
C114 O106 1.252 . S
O115 In104 2.294 . S
O115 C108 1.240 . S
O116 In104 2.326 . S
O116 C108 1.252 . S
In117 O118 2.294 . S
In117 O119 2.326 . S
In117 O123 2.266 . S
In117 O124 2.326 . S
In117 O125 2.266 . S
In117 O126 2.326 . S
In117 O128 2.294 . S
In117 O129 2.326 . S
O118 In117 2.294 . S
O118 C127 1.240 . S
O119 In117 2.326 . S
O119 C127 1.252 . S
C120 O123 1.252 . S
C120 O124 1.260 . S
C121 O128 1.240 . S
C121 O129 1.252 . S
C122 O125 1.252 . S
C122 O126 1.260 . S
O123 In117 2.266 . S
O123 C120 1.252 . S
O124 In117 2.326 . S
O124 C120 1.260 . S
O125 In117 2.266 . S
O125 C122 1.252 . S
O126 In117 2.326 . S
O126 C122 1.260 . S
C127 O118 1.240 . S
C127 O119 1.252 . S
O128 In117 2.294 . S
O128 C121 1.240 . S
O129 In117 2.326 . S
O129 C121 1.252 . S
In130 O131 2.294 . S
In130 O132 2.326 . S
In130 O136 2.266 . S
In130 O137 2.326 . S
In130 O138 2.266 . S
In130 O139 2.326 1_556 S
In130 O141 2.294 . S
In130 O142 2.326 . S
O131 In130 2.294 . S
O131 C140 1.240 . S
O132 In130 2.326 . S
O132 C140 1.252 . S
C133 O136 1.252 . S
C133 O137 1.260 . S
C134 O141 1.240 . S
C134 O142 1.252 . S
C135 O138 1.252 1_554 S
C135 O139 1.260 . S
O136 In130 2.266 . S
O136 C133 1.252 . S
O137 In130 2.326 . S
O137 C133 1.260 . S
O138 In130 2.266 . S
O138 C135 1.252 1_556 S
O139 In130 2.326 1_554 S
O139 C135 1.260 . S
C140 O131 1.240 . S
C140 O132 1.252 . S
O141 In130 2.294 . S
O141 C134 1.240 . S
O142 In130 2.326 . S
O142 C134 1.252 . S
In143 O144 2.294 . S
In143 O145 2.326 . S
In143 O149 2.266 . S
In143 O150 2.326 . S
In143 O151 2.266 . S
In143 O152 2.326 . S
In143 O154 2.294 . S
In143 O155 2.326 . S
O144 In143 2.294 . S
O144 C153 1.240 . S
O145 In143 2.326 . S
O145 C153 1.252 . S
C146 O149 1.252 . S
C146 O150 1.260 . S
C147 O154 1.240 . S
C147 O155 1.252 . S
C148 O151 1.252 . S
C148 O152 1.260 . S
O149 In143 2.266 . S
O149 C146 1.252 . S
O150 In143 2.326 . S
O150 C146 1.260 . S
O151 In143 2.266 . S
O151 C148 1.252 . S
O152 In143 2.326 . S
O152 C148 1.260 . S
C153 O144 1.240 . S
C153 O145 1.252 . S
O154 In143 2.294 . S
O154 C147 1.240 . S
O155 In143 2.326 . S
O155 C147 1.252 . S
C156 C157 1.369 . S
C156 C158 1.419 . S
C156 H160 0.930 . S
C157 C156 1.369 . S
C157 C166 1.429 . S
C158 C156 1.419 . S
C158 C159 1.363 . S
C158 H161 0.929 . S
C159 C158 1.363 . S
C159 C165 1.428 . S
H160 C156 0.930 . S
H161 C158 0.929 . S
S162 N163 1.613 . S
S162 N164 1.610 . S
N163 S162 1.613 . S
N163 C166 1.350 . S
N164 S162 1.610 . S
N164 C165 1.351 . S
C165 C159 1.428 . S
C165 N164 1.351 . S
C165 C166 1.434 . S
C166 C157 1.429 . S
C166 N163 1.350 . S
C166 C165 1.434 . S
C167 C168 1.369 . S
C167 C169 1.419 . S
C167 H171 0.930 . S
C168 C167 1.369 . S
C168 C177 1.429 . S
C169 C167 1.419 . S
C169 C170 1.363 . S
C169 H172 0.929 . S
C170 C169 1.363 . S
C170 C176 1.428 . S
H171 C167 0.930 . S
H172 C169 0.929 . S
S173 N174 1.613 . S
S173 N175 1.610 . S
N174 S173 1.613 . S
N174 C177 1.350 . S
N175 S173 1.610 . S
N175 C176 1.351 . S
C176 C170 1.428 . S
C176 N175 1.351 . S
C176 C177 1.434 . S
C177 C168 1.429 . S
C177 N174 1.350 . S
C177 C176 1.434 . S
C178 C179 1.369 . S
C178 C180 1.419 1_556 S
C178 H182 0.930 . S
C179 C178 1.369 . S
C179 C188 1.429 . S
C180 C178 1.419 1_554 S
C180 C181 1.363 . S
C180 H183 0.929 . S
C181 C180 1.363 . S
C181 C187 1.428 . S
H182 C178 0.930 . S
H183 C180 0.929 . S
S184 N185 1.613 1_554 S
S184 N186 1.610 . S
N185 S184 1.613 1_556 S
N185 C188 1.350 . S
N186 S184 1.610 . S
N186 C187 1.351 . S
C187 C181 1.428 . S
C187 N186 1.351 . S
C187 C188 1.434 1_554 S
C188 C179 1.429 . S
C188 N185 1.350 . S
C188 C187 1.434 1_556 S
C189 C190 1.369 . S
C189 C191 1.419 . S
C189 H193 0.930 . S
C190 C189 1.369 . S
C190 C199 1.429 . S
C191 C189 1.419 . S
C191 C192 1.363 . S
C191 H194 0.929 . S
C192 C191 1.363 . S
C192 C198 1.428 . S
H193 C189 0.930 . S
H194 C191 0.929 . S
S195 N196 1.613 . S
S195 N197 1.610 . S
N196 S195 1.613 . S
N196 C199 1.350 . S
N197 S195 1.610 . S
N197 C198 1.351 . S
C198 C192 1.428 . S
C198 N197 1.351 . S
C198 C199 1.434 . S
C199 C190 1.429 . S
C199 N196 1.350 . S
C199 C198 1.434 . S
C200 C201 1.369 . S
C200 C202 1.419 . S
C200 H204 0.930 . S
C201 C200 1.369 . S
C201 C210 1.429 . S
C202 C200 1.419 . S
C202 C203 1.363 . S
C202 H205 0.929 . S
C203 C202 1.363 . S
C203 C209 1.428 . S
H204 C200 0.930 . S
H205 C202 0.929 . S
S206 N207 1.613 . S
S206 N208 1.610 . S
N207 S206 1.613 . S
N207 C210 1.350 . S
N208 S206 1.610 . S
N208 C209 1.351 . S
C209 C203 1.428 . S
C209 N208 1.351 . S
C209 C210 1.434 . S
C210 C201 1.429 . S
C210 N207 1.350 . S
C210 C209 1.434 . S
C211 C212 1.369 . S
C211 C213 1.419 1_554 S
C211 H215 0.930 . S
C212 C211 1.369 . S
C212 C221 1.429 . S
C213 C211 1.419 1_556 S
C213 C214 1.363 . S
C213 H216 0.929 . S
C214 C213 1.363 . S
C214 C220 1.428 . S
H215 C211 0.930 . S
H216 C213 0.929 . S
S217 N218 1.613 . S
S217 N219 1.610 1_554 S
N218 S217 1.613 . S
N218 C221 1.350 . S
N219 S217 1.610 1_556 S
N219 C220 1.351 . S
C220 C214 1.428 . S
C220 N219 1.351 . S
C220 C221 1.434 1_556 S
C221 C212 1.429 . S
C221 N218 1.350 . S
C221 C220 1.434 1_554 S
C222 C223 1.369 1_556 S
C222 C224 1.419 . S
C222 H226 0.930 . S
C223 C222 1.369 1_554 S
C223 C232 1.429 . S
C224 C222 1.419 . S
C224 C225 1.363 . S
C224 H227 0.929 . S
C225 C224 1.363 . S
C225 C231 1.428 1_556 S
H226 C222 0.930 . S
H227 C224 0.929 . S
S228 N229 1.613 . S
S228 N230 1.610 . S
N229 S228 1.613 . S
N229 C232 1.350 . S
N230 S228 1.610 . S
N230 C231 1.351 . S
C231 C225 1.428 1_554 S
C231 N230 1.351 . S
C231 C232 1.434 . S
C232 C223 1.429 . S
C232 N229 1.350 . S
C232 C231 1.434 . S
C233 C234 1.369 . S
C233 C235 1.419 . S
C233 H237 0.930 . S
C234 C233 1.369 . S
C234 C243 1.429 . S
C235 C233 1.419 . S
C235 C236 1.363 . S
C235 H238 0.929 . S
C236 C235 1.363 . S
C236 C242 1.428 . S
H237 C233 0.930 . S
H238 C235 0.929 . S
S239 N240 1.613 . S
S239 N241 1.610 . S
N240 S239 1.613 . S
N240 C243 1.350 . S
N241 S239 1.610 . S
N241 C242 1.351 . S
C242 C236 1.428 . S
C242 N241 1.351 . S
C242 C243 1.434 . S
C243 C234 1.429 . S
C243 N240 1.350 . S
C243 C242 1.434 . S
C244 C245 1.369 . S
C244 C246 1.419 . S
C244 H248 0.930 . S
C245 C244 1.369 . S
C245 C254 1.429 . S
C246 C244 1.419 . S
C246 C247 1.363 . S
C246 H249 0.929 . S
C247 C246 1.363 . S
C247 C253 1.428 . S
H248 C244 0.930 . S
H249 C246 0.929 . S
S250 N251 1.613 . S
S250 N252 1.610 . S
N251 S250 1.613 . S
N251 C254 1.350 . S
N252 S250 1.610 . S
N252 C253 1.351 . S
C253 C247 1.428 . S
C253 N252 1.351 . S
C253 C254 1.434 . S
C254 C245 1.429 . S
C254 N251 1.350 . S
C254 C253 1.434 . S
C255 C256 1.369 . S
C255 C257 1.419 . S
C255 H259 0.930 . S
C256 C255 1.369 . S
C256 C265 1.429 1_554 S
C257 C255 1.419 . S
C257 C258 1.363 1_554 S
C257 H260 0.929 . S
C258 C257 1.363 1_556 S
C258 C264 1.428 . S
H259 C255 0.930 . S
H260 C257 0.929 . S
S261 N262 1.613 . S
S261 N263 1.610 . S
N262 S261 1.613 . S
N262 C265 1.350 . S
N263 S261 1.610 . S
N263 C264 1.351 . S
C264 C258 1.428 . S
C264 N263 1.351 . S
C264 C265 1.434 . S
C265 C256 1.429 1_556 S
C265 N262 1.350 . S
C265 C264 1.434 . S
C266 C267 1.369 . S
C266 C268 1.419 . S
C266 H270 0.930 . S
C267 C266 1.369 . S
C267 C276 1.429 . S
C268 C266 1.419 . S
C268 C269 1.363 . S
C268 H271 0.929 . S
C269 C268 1.363 . S
C269 C275 1.428 . S
H270 C266 0.930 . S
H271 C268 0.929 . S
S272 N273 1.613 . S
S272 N274 1.610 . S
N273 S272 1.613 . S
N273 C276 1.350 . S
N274 S272 1.610 . S
N274 C275 1.351 . S
C275 C269 1.428 . S
C275 N274 1.351 . S
C275 C276 1.434 . S
C276 C267 1.429 . S
C276 N273 1.350 . S
C276 C275 1.434 . S
C277 C278 1.369 . S
C277 C279 1.419 . S
C277 H281 0.930 . S
C278 C277 1.369 . S
C278 C287 1.429 . S
C279 C277 1.419 . S
C279 C280 1.363 . S
C279 H282 0.929 . S
C280 C279 1.363 . S
C280 C286 1.428 . S
H281 C277 0.930 . S
H282 C279 0.929 . S
S283 N284 1.613 . S
S283 N285 1.610 . S
N284 S283 1.613 . S
N284 C287 1.350 . S
N285 S283 1.610 . S
N285 C286 1.351 . S
C286 C280 1.428 . S
C286 N285 1.351 . S
C286 C287 1.434 . S
C287 C278 1.429 . S
C287 N284 1.350 . S
C287 C286 1.434 . S
C288 C289 1.369 . S
C288 C290 1.419 . S
C288 H292 0.930 . S
C289 C288 1.369 . S
C289 C298 1.429 . S
C290 C288 1.419 . S
C290 C291 1.363 . S
C290 H293 0.929 . S
C291 C290 1.363 . S
C291 C297 1.428 . S
H292 C288 0.930 . S
H293 C290 0.929 . S
S294 N295 1.613 1_556 S
S294 N296 1.610 1_556 S
N295 S294 1.613 1_554 S
N295 C298 1.350 . S
N296 S294 1.610 1_554 S
N296 C297 1.351 . S
C297 C291 1.428 . S
C297 N296 1.351 . S
C297 C298 1.434 . S
C298 C289 1.429 . S
C298 N295 1.350 . S
C298 C297 1.434 . S
C299 C300 1.369 . S
C299 C301 1.419 1_655 S
C299 H303 0.930 . S
C300 C299 1.369 . S
C300 C309 1.461 . S
C301 C299 1.419 1_455 S
C301 C302 1.363 . S
C301 H304 0.929 . S
C302 C301 1.363 . S
C302 C308 1.428 . S
H303 C299 0.930 . S
H304 C301 0.929 . S
S305 N306 1.613 . S
S305 N307 1.610 . S
N306 S305 1.613 . S
N306 C309 1.331 1_455 S
N307 S305 1.610 . S
N307 C308 1.351 . S
C308 C302 1.428 . S
C308 N307 1.351 . S
C308 C309 1.417 1_455 S
C309 C300 1.461 . S
C309 N306 1.331 1_655 S
C309 C308 1.417 1_655 S
C310 C311 1.369 . S
C310 C312 1.419 1_545 S
C310 H314 0.930 . S
C311 C310 1.369 . S
C311 C320 1.429 . S
C312 C310 1.419 1_565 S
C312 C313 1.363 . S
C312 H315 0.929 . S
C313 C312 1.363 . S
C313 C319 1.428 . S
H314 C310 0.930 . S
H315 C312 0.929 . S
S316 N317 1.613 . S
S316 N318 1.610 1_545 S
N317 S316 1.613 . S
N317 C320 1.350 . S
N318 S316 1.610 1_565 S
N318 C319 1.351 . S
C319 C313 1.428 . S
C319 N318 1.351 . S
C319 C320 1.434 1_565 S
C320 C311 1.429 . S
C320 N317 1.350 . S
C320 C319 1.434 1_545 S
C321 C322 1.369 . S
C321 C323 1.419 . S
C321 H325 0.930 . S
C322 C321 1.369 . S
C322 C331 1.429 . S
C323 C321 1.419 . S
C323 C324 1.363 . S
C323 H326 0.929 . S
C324 C323 1.363 . S
C324 C330 1.428 . S
H325 C321 0.930 . S
H326 C323 0.929 . S
S327 N328 1.613 . S
S327 N329 1.610 . S
N328 S327 1.613 . S
N328 C331 1.350 . S
N329 S327 1.610 . S
N329 C330 1.351 . S
C330 C324 1.428 . S
C330 N329 1.351 . S
C330 C331 1.434 . S
C331 C322 1.429 . S
C331 N328 1.350 . S
C331 C330 1.434 . S
C332 C333 1.369 . S
C332 C334 1.419 1_455 S
C332 H336 0.930 . S
C333 C332 1.369 . S
C333 C342 1.429 . S
C334 C332 1.419 1_655 S
C334 C335 1.363 . S
C334 H337 0.929 . S
C335 C334 1.363 . S
C335 C341 1.428 . S
H336 C332 0.930 . S
H337 C334 0.929 . S
S338 N339 1.613 1_655 S
S338 N340 1.610 . S
N339 S338 1.613 1_455 S
N339 C342 1.350 . S
N340 S338 1.610 . S
N340 C341 1.351 . S
C341 C335 1.428 . S
C341 N340 1.351 . S
C341 C342 1.434 1_655 S
C342 C333 1.429 . S
C342 N339 1.350 . S
C342 C341 1.434 1_455 S
C343 C344 1.369 . S
C343 C345 1.419 1_565 S
C343 H347 0.930 . S
C344 C343 1.369 . S
C344 C353 1.429 . S
C345 C343 1.419 1_545 S
C345 C346 1.363 . S
C345 H348 0.929 . S
C346 C345 1.363 . S
C346 C352 1.428 . S
H347 C343 0.930 . S
H348 C345 0.929 . S
S349 N350 1.613 1_545 S
S349 N351 1.610 . S
N350 S349 1.613 1_565 S
N350 C353 1.350 . S
N351 S349 1.610 . S
N351 C352 1.351 . S
C352 C346 1.428 . S
C352 N351 1.351 . S
C352 C353 1.434 1_545 S
C353 C344 1.429 . S
C353 N350 1.350 . S
C353 C352 1.434 1_565 S
C354 C355 1.369 . S
C354 C356 1.419 . S
C354 H358 0.930 . S
C355 C354 1.369 . S
C355 C364 1.429 . S
C356 C354 1.419 . S
C356 C357 1.363 . S
C356 H359 0.929 . S
C357 C356 1.363 . S
C357 C363 1.428 . S
H358 C354 0.930 . S
H359 C356 0.929 . S
S360 N361 1.613 . S
S360 N362 1.610 . S
N361 S360 1.613 . S
N361 C364 1.350 . S
N362 S360 1.610 . S
N362 C363 1.351 . S
C363 C357 1.428 . S
C363 N362 1.351 . S
C363 C364 1.434 . S
C364 C355 1.429 . S
C364 N361 1.350 . S
C364 C363 1.434 . S
C365 C366 1.369 . S
C365 C367 1.419 . S
C365 H369 0.930 . S
C366 C365 1.369 . S
C366 C375 1.429 . S
C367 C365 1.419 . S
C367 C368 1.363 . S
C367 H370 0.929 . S
C368 C367 1.363 . S
C368 C374 1.428 . S
H369 C365 0.930 . S
H370 C367 0.929 . S
S371 N372 1.613 . S
S371 N373 1.610 . S
N372 S371 1.613 . S
N372 C375 1.350 . S
N373 S371 1.610 . S
N373 C374 1.351 . S
C374 C368 1.428 . S
C374 N373 1.351 . S
C374 C375 1.434 . S
C375 C366 1.429 . S
C375 N372 1.350 . S
C375 C374 1.434 . S
C376 C377 1.369 . S
C376 C378 1.419 . S
C376 H380 0.930 . S
C377 C376 1.369 . S
C377 C386 1.429 . S
C378 C376 1.419 . S
C378 C379 1.363 . S
C378 H381 0.929 . S
C379 C378 1.363 . S
C379 C385 1.428 . S
H380 C376 0.930 . S
H381 C378 0.929 . S
S382 N383 1.613 . S
S382 N384 1.610 . S
N383 S382 1.613 . S
N383 C386 1.350 . S
N384 S382 1.610 . S
N384 C385 1.351 . S
C385 C379 1.428 . S
C385 N384 1.351 . S
C385 C386 1.434 . S
C386 C377 1.429 . S
C386 N383 1.350 . S
C386 C385 1.434 . S
C387 C388 1.369 . S
C387 C389 1.419 . S
C387 H391 0.930 . S
C388 C387 1.369 . S
C388 C397 1.429 . S
C389 C387 1.419 . S
C389 C390 1.363 . S
C389 H392 0.929 . S
C390 C389 1.363 . S
C390 C396 1.428 . S
H391 C387 0.930 . S
H392 C389 0.929 . S
S393 N394 1.613 . S
S393 N395 1.610 . S
N394 S393 1.613 . S
N394 C397 1.350 . S
N395 S393 1.610 . S
N395 C396 1.351 . S
C396 C390 1.428 . S
C396 N395 1.351 . S
C396 C397 1.434 . S
C397 C388 1.429 . S
C397 N394 1.350 . S
C397 C396 1.434 . S
C398 C399 1.369 . S
C398 C400 1.419 . S
C398 H402 0.930 . S
C399 C398 1.369 . S
C399 C408 1.429 . S
C400 C398 1.419 . S
C400 C401 1.363 . S
C400 H403 0.929 . S
C401 C400 1.363 . S
C401 C407 1.428 . S
H402 C398 0.930 . S
H403 C400 0.929 . S
S404 N405 1.613 . S
S404 N406 1.610 . S
N405 S404 1.613 . S
N405 C408 1.350 . S
N406 S404 1.610 . S
N406 C407 1.351 . S
C407 C401 1.428 . S
C407 N406 1.351 . S
C407 C408 1.434 . S
C408 C399 1.429 . S
C408 N405 1.350 . S
C408 C407 1.434 . S
C409 C410 1.369 . S
C409 C411 1.419 . S
C409 H413 0.930 . S
C410 C409 1.369 . S
C410 C419 1.429 . S
C411 C409 1.419 . S
C411 C412 1.363 . S
C411 H414 0.929 . S
C412 C411 1.363 . S
C412 C418 1.428 . S
H413 C409 0.930 . S
H414 C411 0.929 . S
S415 N416 1.613 . S
S415 N417 1.610 . S
N416 S415 1.613 . S
N416 C419 1.350 . S
N417 S415 1.610 . S
N417 C418 1.351 . S
C418 C412 1.428 . S
C418 N417 1.351 . S
C418 C419 1.434 . S
C419 C410 1.429 . S
C419 N416 1.350 . S
C419 C418 1.434 . S
C157 C10 1.466 . S
C159 C88 1.460 . S
C168 C23 1.466 . S
C170 C101 1.463 . S
C179 C36 1.460 . S
C181 C114 1.462 . S
C190 C49 1.462 . S
C192 C127 1.465 . S
C201 C62 1.466 . S
C203 C134 1.460 . S
C212 C147 1.459 . S
C214 C75 1.465 . S
C223 C5 1.430 . S
C225 C133 1.425 . S
C234 C18 1.424 . S
C236 C146 1.426 . S
C245 C31 1.428 . S
C247 C83 1.429 . S
C256 C44 1.423 . S
C258 C96 1.428 . S
C267 C57 1.430 . S
C269 C109 1.426 . S
C278 C70 1.430 . S
C280 C122 1.426 . S
C289 C4 1.525 . S
C291 C43 1.529 . S
C300 C17 1.534 . S
C302 C56 1.526 . S
C311 C69 1.529 . S
C313 C30 1.532 . S
C322 C82 1.532 . S
C324 C121 1.529 . S
C333 C140 1.531 . S
C335 C95 1.527 . S
C344 C108 1.531 . S
C346 C153 1.527 . S
C355 C81 1.279 . S
C357 C3 1.286 . S
C366 C16 1.281 . S
C368 C94 1.280 . S
C377 C29 1.288 . S
C379 C107 1.278 . S
C388 C120 1.278 . S
C390 C42 1.283 . S
C399 C135 1.287 . S
C401 C55 1.277 . S
C410 C68 1.284 . S
C412 C148 1.282 . S
