# Generated by pormake.
# Topology why, (6)-cn, num edge types: 1
# Building blocks:
#     Node 0, Type 0, BuildingBlock: BETFEN_clean_sbu_0, # of connection points: 6
#     Node 1, Type 0, BuildingBlock: BETFEN_clean_sbu_0, # of connection points: 6
#     Node 2, Type 0, BuildingBlock: BETFEN_clean_sbu_0, # of connection points: 6
#     Node 3, Type 0, BuildingBlock: BETFEN_clean_sbu_0, # of connection points: 6
#     Node 4, Type 0, BuildingBlock: BETFEN_clean_sbu_0, # of connection points: 6
#     Node 5, Type 0, BuildingBlock: BETFEN_clean_sbu_0, # of connection points: 6
#     Node 6, Type 0, BuildingBlock: BETFEN_clean_sbu_0, # of connection points: 6
#     Node 7, Type 0, BuildingBlock: BETFEN_clean_sbu_0, # of connection points: 6
#     Node 8, Type 0, BuildingBlock: BETFEN_clean_sbu_0, # of connection points: 6
#     Node 9, Type 0, BuildingBlock: BETFEN_clean_sbu_0, # of connection points: 6
#     Node 10, Type 0, BuildingBlock: BETFEN_clean_sbu_0, # of connection points: 6
#     Node 11, Type 0, BuildingBlock: BETFEN_clean_sbu_0, # of connection points: 6
#     Node 12, Type 0, BuildingBlock: BETFEN_clean_sbu_0, # of connection points: 6
#     Node 13, Type 0, BuildingBlock: BETFEN_clean_sbu_0, # of connection points: 6
#     Node 14, Type 0, BuildingBlock: BETFEN_clean_sbu_0, # of connection points: 6
#     Node 15, Type 0, BuildingBlock: BETFEN_clean_sbu_0, # of connection points: 6
#     Edge 16, Type (0, 0), BuildingBlock: CIFDUS_clean_linker_0, # of connection points: 2
#     Edge 17, Type (0, 0), BuildingBlock: CIFDUS_clean_linker_0, # of connection points: 2
#     Edge 18, Type (0, 0), BuildingBlock: CIFDUS_clean_linker_0, # of connection points: 2
#     Edge 19, Type (0, 0), BuildingBlock: CIFDUS_clean_linker_0, # of connection points: 2
#     Edge 20, Type (0, 0), BuildingBlock: CIFDUS_clean_linker_0, # of connection points: 2
#     Edge 21, Type (0, 0), BuildingBlock: CIFDUS_clean_linker_0, # of connection points: 2
#     Edge 22, Type (0, 0), BuildingBlock: CIFDUS_clean_linker_0, # of connection points: 2
#     Edge 23, Type (0, 0), BuildingBlock: CIFDUS_clean_linker_0, # of connection points: 2
#     Edge 24, Type (0, 0), BuildingBlock: CIFDUS_clean_linker_0, # of connection points: 2
#     Edge 25, Type (0, 0), BuildingBlock: CIFDUS_clean_linker_0, # of connection points: 2
#     Edge 26, Type (0, 0), BuildingBlock: CIFDUS_clean_linker_0, # of connection points: 2
#     Edge 27, Type (0, 0), BuildingBlock: CIFDUS_clean_linker_0, # of connection points: 2
#     Edge 28, Type (0, 0), BuildingBlock: CIFDUS_clean_linker_0, # of connection points: 2
#     Edge 29, Type (0, 0), BuildingBlock: CIFDUS_clean_linker_0, # of connection points: 2
#     Edge 30, Type (0, 0), BuildingBlock: CIFDUS_clean_linker_0, # of connection points: 2
#     Edge 31, Type (0, 0), BuildingBlock: CIFDUS_clean_linker_0, # of connection points: 2
#     Edge 32, Type (0, 0), BuildingBlock: CIFDUS_clean_linker_0, # of connection points: 2
#     Edge 33, Type (0, 0), BuildingBlock: CIFDUS_clean_linker_0, # of connection points: 2
#     Edge 34, Type (0, 0), BuildingBlock: CIFDUS_clean_linker_0, # of connection points: 2
#     Edge 35, Type (0, 0), BuildingBlock: CIFDUS_clean_linker_0, # of connection points: 2
#     Edge 36, Type (0, 0), BuildingBlock: CIFDUS_clean_linker_0, # of connection points: 2
#     Edge 37, Type (0, 0), BuildingBlock: CIFDUS_clean_linker_0, # of connection points: 2
#     Edge 38, Type (0, 0), BuildingBlock: CIFDUS_clean_linker_0, # of connection points: 2
#     Edge 39, Type (0, 0), BuildingBlock: CIFDUS_clean_linker_0, # of connection points: 2
#     Edge 40, Type (0, 0), BuildingBlock: CIFDUS_clean_linker_0, # of connection points: 2
#     Edge 41, Type (0, 0), BuildingBlock: CIFDUS_clean_linker_0, # of connection points: 2
#     Edge 42, Type (0, 0), BuildingBlock: CIFDUS_clean_linker_0, # of connection points: 2
#     Edge 43, Type (0, 0), BuildingBlock: CIFDUS_clean_linker_0, # of connection points: 2
#     Edge 44, Type (0, 0), BuildingBlock: CIFDUS_clean_linker_0, # of connection points: 2
#     Edge 45, Type (0, 0), BuildingBlock: CIFDUS_clean_linker_0, # of connection points: 2
#     Edge 46, Type (0, 0), BuildingBlock: CIFDUS_clean_linker_0, # of connection points: 2
#     Edge 47, Type (0, 0), BuildingBlock: CIFDUS_clean_linker_0, # of connection points: 2
#     Edge 48, Type (0, 0), BuildingBlock: CIFDUS_clean_linker_0, # of connection points: 2
#     Edge 49, Type (0, 0), BuildingBlock: CIFDUS_clean_linker_0, # of connection points: 2
#     Edge 50, Type (0, 0), BuildingBlock: CIFDUS_clean_linker_0, # of connection points: 2
#     Edge 51, Type (0, 0), BuildingBlock: CIFDUS_clean_linker_0, # of connection points: 2
#     Edge 52, Type (0, 0), BuildingBlock: CIFDUS_clean_linker_0, # of connection points: 2
#     Edge 53, Type (0, 0), BuildingBlock: CIFDUS_clean_linker_0, # of connection points: 2
#     Edge 54, Type (0, 0), BuildingBlock: CIFDUS_clean_linker_0, # of connection points: 2
#     Edge 55, Type (0, 0), BuildingBlock: CIFDUS_clean_linker_0, # of connection points: 2
#     Edge 56, Type (0, 0), BuildingBlock: CIFDUS_clean_linker_0, # of connection points: 2
#     Edge 57, Type (0, 0), BuildingBlock: CIFDUS_clean_linker_0, # of connection points: 2
#     Edge 58, Type (0, 0), BuildingBlock: CIFDUS_clean_linker_0, # of connection points: 2
#     Edge 59, Type (0, 0), BuildingBlock: CIFDUS_clean_linker_0, # of connection points: 2
#     Edge 60, Type (0, 0), BuildingBlock: CIFDUS_clean_linker_0, # of connection points: 2
#     Edge 61, Type (0, 0), BuildingBlock: CIFDUS_clean_linker_0, # of connection points: 2
#     Edge 62, Type (0, 0), BuildingBlock: CIFDUS_clean_linker_0, # of connection points: 2
#     Edge 63, Type (0, 0), BuildingBlock: CIFDUS_clean_linker_0, # of connection points: 2
# Relax obj value: 0.473
# Max RMSD: 0.239
# Mean RMSD: 0.239
data_MOF--net-why--node1-BETFEN_clean_sbu_0--edge1-CIFDUS_clean_linker_0
_symmetry_space_group_name_H-M    P1
_symmetry_Int_Tables_number       1
_symmetry_cell_setting            triclinic
loop_
_symmetry_equiv_pos_as_xyz
'x, y, z'
_cell_length_a     44.612482
_cell_length_b     44.417051
_cell_length_c     35.602522
_cell_angle_alpha  89.734437
_cell_angle_beta   90.517426
_cell_angle_gamma 89.713782
loop_
_atom_site_label
_atom_site_type_symbol
_atom_site_fract_x
_atom_site_fract_y
_atom_site_fract_z
_atom_type_partial_charge
Pr0 Pr 0.49562 0.21656 0.05604 0.0
Pr1 Pr 0.47035 0.2477 0.09734 0.0
C2 C 0.53166 0.18548 0.01098 0.0
C3 C 0.54795 0.19488 0.97748 0.0
C4 C 0.53426 0.19186 0.9421 0.0
C5 C 0.54845 0.20243 0.91031 0.0
C6 C 0.57697 0.2154 0.91316 0.0
C7 C 0.59047 0.21917 0.94849 0.0
C8 C 0.576 0.20899 0.98056 0.0
C9 C 0.48256 0.17792 0.12095 0.0
C10 C 0.53749 0.27929 0.08236 0.0
C11 C 0.4456 0.26295 0.16239 0.0
C12 C 0.41444 0.26501 0.17408 0.0
C13 C 0.39701 0.2904 0.16521 0.0
C14 C 0.36688 0.291 0.17455 0.0
C15 C 0.35375 0.26611 0.19256 0.0
C16 C 0.37105 0.24046 0.20038 0.0
C17 C 0.40124 0.24006 0.1917 0.0
C18 C 0.46249 0.28 0.03339 0.0
C19 C 0.42502 0.22373 0.02418 0.0
O20 O 0.50252 0.18544 0.00743 0.0
O21 O 0.5409 0.19655 0.04294 0.0
O22 O 0.49559 0.20358 0.12021 0.0
O23 O 0.47138 0.17441 0.08754 0.0
O24 O 0.51243 0.28338 0.10156 0.0
O25 O 0.53762 0.25354 0.0628 0.0
O26 O 0.45426 0.23565 0.15445 0.0
O27 O 0.45536 0.28319 0.13871 0.0
O28 O 0.48703 0.26665 0.04132 0.0
O29 O 0.44125 0.2763 0.05783 0.0
O30 O 0.45264 0.21733 0.01335 0.0
O31 O 0.42394 0.23243 0.06037 0.0
H32 H 0.51249 0.18142 0.9389 0.0
H33 H 0.53746 0.19972 0.88328 0.0
H34 H 0.61259 0.22893 0.95118 0.0
H35 H 0.58686 0.212 0.00761 0.0
H36 H 0.40661 0.30983 0.1514 0.0
H37 H 0.35425 0.31148 0.1691 0.0
H38 H 0.36143 0.22107 0.21425 0.0
H39 H 0.41424 0.22009 0.19866 0.0
Pr40 Pr 0.73735 0.74042 0.30464 0.0
Pr41 Pr 0.70622 0.71639 0.34504 0.0
C42 C 0.76714 0.77785 0.25959 0.0
C43 C 0.75725 0.7943 0.2266 0.0
C44 C 0.7777 0.81184 0.20706 0.0
C45 C 0.76819 0.82788 0.17562 0.0
C46 C 0.73819 0.82627 0.16338 0.0
C47 C 0.71757 0.80891 0.18334 0.0
C48 C 0.72713 0.79282 0.2149 0.0
C49 C 0.77822 0.72537 0.36729 0.0
C50 C 0.67565 0.78457 0.33239 0.0
C51 C 0.68858 0.68479 0.40475 0.0
C52 C 0.66108 0.6866 0.42562 0.0
C53 C 0.63659 0.70277 0.4107 0.0
C54 C 0.61106 0.70701 0.43208 0.0
C55 C 0.61003 0.69526 0.46858 0.0
C56 C 0.63482 0.67928 0.48341 0.0
C57 C 0.66031 0.67511 0.46201 0.0
C58 C 0.66777 0.72563 0.28464 0.0
C59 C 0.72766 0.66894 0.27509 0.0
O60 O 0.76807 0.7487 0.25578 0.0
O61 O 0.75468 0.78655 0.2907 0.0
O62 O 0.75216 0.73802 0.36926 0.0
O63 O 0.78041 0.71633 0.33285 0.0
O64 O 0.67272 0.76019 0.35377 0.0
O65 O 0.69973 0.78295 0.31016 0.0
O66 O 0.68617 0.67457 0.3706 0.0
O67 O 0.70492 0.70892 0.40739 0.0
O68 O 0.69505 0.71851 0.28128 0.0
O69 O 0.65941 0.72814 0.31934 0.0
O70 O 0.73756 0.69557 0.26337 0.0
O71 O 0.71652 0.66983 0.30967 0.0
H72 H 0.80092 0.81309 0.21609 0.0
H73 H 0.78435 0.84146 0.16069 0.0
H74 H 0.69443 0.80726 0.17406 0.0
H75 H 0.71118 0.77913 0.23004 0.0
H76 H 0.63728 0.71223 0.3827 0.0
H77 H 0.5921 0.71913 0.42011 0.0
H78 H 0.63422 0.66923 0.51117 0.0
H79 H 0.67937 0.66305 0.47385 0.0
Pr80 Pr 0.2132 0.98454 0.55419 0.0
Pr81 Pr 0.2357 0.95373 0.59661 0.0
C82 C 0.17758 1.01605 0.5075 0.0
C83 C 0.16372 1.00859 0.47156 0.0
C84 C 0.16668 1.02856 0.44134 0.0
C85 C 0.15502 1.02111 0.40625 0.0
C86 C 0.14015 0.99367 0.40124 0.0
C87 C 0.13779 0.97335 0.4313 0.0
C88 C 0.14969 0.98067 0.46626 0.0
C89 C 0.22774 1.02489 0.61709 0.0
C90 C 0.16905 0.92262 0.58032 0.0
C91 C 0.26961 0.93279 0.65266 0.0
C92 C 0.28176 0.90229 0.65444 0.0
C93 C 0.31284 0.89805 0.65537 0.0
C94 C 0.32484 0.86939 0.65058 0.0
C95 C 0.30582 0.84465 0.64494 0.0
C96 C 0.27474 0.84894 0.64371 0.0
C97 C 0.26277 0.87756 0.64829 0.0
C98 C 0.22988 0.91482 0.53604 0.0
C99 C 0.28447 0.97435 0.52646 0.0
O100 O 0.20669 1.01792 0.5069 0.0
O101 O 0.16749 1.00183 0.53696 0.0
O102 O 0.21375 0.99964 0.61883 0.0
O103 O 0.23829 1.02624 0.58333 0.0
O104 O 0.19104 0.92183 0.60569 0.0
O105 O 0.17274 0.94493 0.55528 0.0
O106 O 0.28063 0.9493 0.62579 0.0
O107 O 0.24054 0.93515 0.65543 0.0
O108 O 0.23607 0.94229 0.53276 0.0
O109 O 0.22725 0.90621 0.57066 0.0
O110 O 0.25807 0.98428 0.51373 0.0
O111 O 0.28285 0.96306 0.56126 0.0
H112 H 0.17802 1.04989 0.44492 0.0
H113 H 0.15679 1.03715 0.38337 0.0
H114 H 0.12651 0.95198 0.42779 0.0
H115 H 0.14784 0.96452 0.48899 0.0
H116 H 0.32779 0.91699 0.65909 0.0
H117 H 0.34892 0.8664 0.65254 0.0
H118 H 0.25977 0.83005 0.6398 0.0
H119 H 0.23866 0.88029 0.64634 0.0
Pr120 Pr 0.96648 0.45765 0.80936 0.0
Pr121 Pr 1.00071 0.48223 0.84622 0.0
C122 C 0.93273 0.41967 0.76926 0.0
C123 C 0.93589 0.40478 0.73351 0.0
C124 C 0.91244 0.38707 0.72026 0.0
C125 C 0.9146 0.3735 0.68539 0.0
C126 C 0.94016 0.37782 0.6633 0.0
C127 C 0.96396 0.39534 0.67699 0.0
C128 C 0.96182 0.40878 0.71211 0.0
C129 C 0.93133 0.47105 0.87628 0.0
C130 C 1.03077 0.41526 0.83249 0.0
C131 C 1.01956 0.52053 0.89851 0.0
C132 C 1.0375 0.54727 0.89406 0.0
C133 C 1.05526 0.55073 0.86197 0.0
C134 C 1.07082 0.57736 0.85617 0.0
C135 C 1.06835 0.60081 0.88216 0.0
C136 C 1.05005 0.59729 0.91389 0.0
C137 C 1.03466 0.57063 0.91974 0.0
C138 C 1.03315 0.47465 0.7809 0.0
C139 C 0.97546 0.52892 0.77515 0.0
O140 O 0.95125 0.41069 0.79562 0.0
O141 O 0.9297 0.44882 0.76729 0.0
O142 O 0.95785 0.45916 0.87516 0.0
O143 O 0.9253 0.48036 0.84252 0.0
O144 O 1.03184 0.43722 0.85758 0.0
O145 O 1.00768 0.41856 0.80839 0.0
O146 O 0.99302 0.52254 0.88293 0.0
O147 O 1.03336 0.49514 0.89186 0.0
O148 O 1.00555 0.4804 0.78125 0.0
O149 O 1.04537 0.47401 0.8141 0.0
O150 O 0.9626 0.50244 0.76807 0.0
O151 O 0.99188 0.52846 0.80673 0.0
H152 H 0.89242 0.38387 0.73681 0.0
H153 H 0.89627 0.35954 0.67573 0.0
H154 H 0.98386 0.399 0.66037 0.0
H155 H 0.98013 0.42243 0.72248 0.0
H156 H 1.05701 0.53289 0.84143 0.0
H157 H 1.08501 0.57952 0.83179 0.0
H158 H 1.04844 0.61477 0.9349 0.0
H159 H 1.02058 0.56822 0.94422 0.0
Pr160 Pr 0.73131 0.95333 0.91369 0.0
Pr161 Pr 0.70386 0.98299 0.9498 0.0
C162 C 0.7446 0.93384 0.8451 0.0
C163 C 0.76014 0.94442 0.81168 0.0
C164 C 0.7915 0.94521 0.81106 0.0
C165 C 0.80618 0.94986 0.77743 0.0
C166 C 0.78978 0.95403 0.74378 0.0
C167 C 0.75842 0.95654 0.74532 0.0
C168 C 0.74367 0.95142 0.77903 0.0
C169 C 0.73405 0.91697 0.97429 0.0
C170 C 0.77606 0.97442 0.98296 0.0
C171 C 0.67829 1.01857 1.001 0.0
C172 C 0.66631 1.01106 0.03778 0.0
C173 C 0.66868 1.03165 0.06725 0.0
C174 C 0.65798 1.02406 0.10271 0.0
C175 C 0.64477 0.99587 0.10876 0.0
C176 C 0.64333 0.97491 0.07948 0.0
C177 C 0.65428 0.98237 0.04426 0.0
C178 C 0.71426 1.02 0.88211 0.0
C179 C 0.66201 0.92156 0.92804 0.0
O180 O 0.71918 0.94718 0.85273 0.0
O181 O 0.76109 0.92766 0.87474 0.0
O182 O 0.71085 0.93304 0.96742 0.0
O183 O 0.75594 0.91982 0.95072 0.0
O184 O 0.74829 0.98292 0.99153 0.0
O185 O 0.77829 0.96357 0.9483 0.0
O186 O 0.70725 1.01545 0.99829 0.0
O187 O 0.66359 1.00772 0.97226 0.0
O188 O 0.73354 1.00635 0.90309 0.0
O189 O 0.68833 1.00979 0.89253 0.0
O190 O 0.68708 0.91885 0.9083 0.0
O191 O 0.66216 0.94631 0.94894 0.0
H192 H 0.8048 0.94027 0.83597 0.0
H193 H 0.83033 0.94727 0.77761 0.0
H194 H 0.74521 0.96017 0.72002 0.0
H195 H 0.71938 0.95128 0.77909 0.0
H196 H 0.67858 1.05358 0.06275 0.0
H197 H 0.65908 1.04054 0.12501 0.0
H198 H 0.63339 0.95296 0.08378 0.0
H199 H 0.65314 0.96581 0.02205 0.0
Pr200 Pr 0.49441 0.48398 0.6644 0.0
Pr201 Pr 0.46498 0.45957 0.70304 0.0
C202 C 0.50194 0.52372 0.60939 0.0
C203 C 0.50793 0.55585 0.60963 0.0
C204 C 0.53586 0.56699 0.6211 0.0
C205 C 0.54105 0.59777 0.62017 0.0
C206 C 0.51828 0.61768 0.60807 0.0
C207 C 0.48954 0.60658 0.60036 0.0
C208 C 0.48458 0.57582 0.60033 0.0
C209 C 0.53431 0.4792 0.72326 0.0
C210 C 0.4718 0.5299 0.73714 0.0
C211 C 0.43599 0.42064 0.7467 0.0
C212 C 0.44528 0.40509 0.78104 0.0
C213 C 0.43115 0.41238 0.81472 0.0
C214 C 0.44038 0.39871 0.84794 0.0
C215 C 0.46338 0.377 0.84773 0.0
C216 C 0.47837 0.37056 0.81431 0.0
C217 C 0.46947 0.38466 0.78111 0.0
C218 C 0.4261 0.47033 0.63718 0.0
C219 C 0.52663 0.418 0.67386 0.0
O220 O 0.47565 0.51659 0.62243 0.0
O221 O 0.52352 0.50562 0.62051 0.0
O222 O 0.50638 0.48279 0.72796 0.0
O223 O 0.54237 0.47777 0.68828 0.0
O224 O 0.45899 0.50356 0.74421 0.0
O225 O 0.48741 0.52953 0.70527 0.0
O226 O 0.43278 0.44971 0.74981 0.0
O227 O 0.44948 0.41256 0.71595 0.0
O228 O 0.45235 0.45814 0.63826 0.0
O229 O 0.42198 0.48149 0.67035 0.0
O230 O 0.5233 0.43928 0.64792 0.0
O231 O 0.50728 0.42143 0.70203 0.0
H232 H 0.55401 0.552 0.62939 0.0
H233 H 0.56359 0.60561 0.62587 0.0
H234 H 0.47162 0.62152 0.5912 0.0
H235 H 0.46264 0.56762 0.59214 0.0
H236 H 0.41296 0.42864 0.81533 0.0
H237 H 0.42898 0.40451 0.87368 0.0
H238 H 0.49611 0.35384 0.81354 0.0
H239 H 0.48129 0.37921 0.75558 0.0
Pr240 Pr 0.96094 0.24628 0.41742 0.0
Pr241 Pr 0.99145 0.2163 0.4521 0.0
C242 C 0.93633 0.26955 0.35523 0.0
C243 C 0.91952 0.29736 0.35227 0.0
C244 C 0.92393 0.31971 0.37956 0.0
C245 C 0.90255 0.34222 0.38425 0.0
C246 C 0.87652 0.34219 0.36205 0.0
C247 C 0.87283 0.32053 0.33375 0.0
C248 C 0.89428 0.2982 0.32888 0.0
C249 C 0.96438 0.28022 0.48154 0.0
C250 C 0.9185 0.22511 0.48783 0.0
C251 C 1.02065 0.18175 0.50231 0.0
C252 C 1.03885 0.18943 0.53489 0.0
C253 C 1.03827 0.17105 0.56682 0.0
C254 C 1.05604 0.17815 0.59781 0.0
C255 C 1.07454 0.20361 0.59684 0.0
C256 C 1.07422 0.22261 0.56536 0.0
C257 C 1.05621 0.21571 0.53462 0.0
C258 C 0.98023 0.1796 0.38487 0.0
C259 C 1.02967 0.28058 0.42448 0.0
O260 O 0.92293 0.24955 0.37592 0.0
O261 O 0.96493 0.27198 0.36269 0.0
O262 O 0.98649 0.26543 0.46939 0.0
O263 O 0.94031 0.27828 0.46085 0.0
O264 O 0.94562 0.21233 0.49293 0.0
O265 O 0.91641 0.24099 0.45633 0.0
O266 O 0.99223 0.18811 0.50513 0.0
O267 O 1.03189 0.18917 0.46989 0.0
O268 O 0.96126 0.19324 0.4057 0.0
O269 O 1.00636 0.18929 0.39555 0.0
O270 O 1.00298 0.28205 0.40735 0.0
O271 O 1.03224 0.25555 0.44554 0.0
H272 H 0.94305 0.31883 0.39855 0.0
H273 H 0.90586 0.35906 0.4058 0.0
H274 H 0.85319 0.32076 0.31561 0.0
H275 H 0.89038 0.28065 0.30838 0.0
H276 H 1.02439 0.15111 0.56759 0.0
H277 H 1.05601 0.16333 0.62206 0.0
H278 H 1.08798 0.24264 0.56451 0.0
H279 H 1.05617 0.23067 0.51051 0.0
Pr280 Pr 0.19739 0.71565 0.16014 0.0
Pr281 Pr 0.23045 0.74033 0.20144 0.0
C282 C 0.17483 0.69194 0.09728 0.0
C283 C 0.18161 0.69146 0.0572 0.0
C284 C 0.19134 0.66439 0.04144 0.0
C285 C 0.19294 0.66147 0.00275 0.0
C286 C 0.18451 0.68558 0.97907 0.0
C287 C 0.1784 0.71381 0.99512 0.0
C288 C 0.17663 0.71668 0.03403 0.0
C289 C 0.16681 0.70987 0.22607 0.0
C290 C 0.22223 0.66849 0.22929 0.0
C291 C 0.263 0.7754 0.24714 0.0
C292 C 0.25661 0.79492 0.27908 0.0
C293 C 0.27121 0.78927 0.31339 0.0
C294 C 0.2651 0.80707 0.34444 0.0
C295 C 0.24441 0.83088 0.34148 0.0
C296 C 0.22945 0.83631 0.30728 0.0
C297 C 0.23537 0.81831 0.27627 0.0
C298 C 0.26816 0.72637 0.1358 0.0
C299 C 0.16645 0.78304 0.1768 0.0
O300 O 0.16475 0.71709 0.11144 0.0
O301 O 0.19386 0.67768 0.11911 0.0
O302 O 0.18106 0.73349 0.21769 0.0
O303 O 0.1682 0.68895 0.201 0.0
O304 O 0.22952 0.69541 0.24234 0.0
O305 O 0.21306 0.66911 0.1935 0.0
O306 O 0.25923 0.74669 0.25316 0.0
O307 O 0.2533 0.78434 0.21419 0.0
O308 O 0.2419 0.73854 0.13603 0.0
O309 O 0.27285 0.71693 0.1699 0.0
O310 O 0.16107 0.75742 0.15908 0.0
O311 O 0.19342 0.78335 0.19414 0.0
H312 H 0.19571 0.64476 0.05891 0.0
H313 H 0.19759 0.63927 0.99173 0.0
H314 H 0.17232 0.73293 0.97761 0.0
H315 H 0.1697 0.73808 0.04566 0.0
H316 H 0.28738 0.77108 0.31613 0.0
H317 H 0.27702 0.80263 0.37054 0.0
H318 H 0.21315 0.85437 0.3046 0.0
H319 H 0.22335 0.82274 0.25024 0.0
Pr320 Pr 0.9938 0.71815 0.55966 0.0
Pr321 Pr 0.9698 0.74943 0.60074 0.0
C322 C 1.0317 0.68842 0.51543 0.0
C323 C 1.04722 0.69726 0.48112 0.0
C324 C 1.03724 0.68595 0.4466 0.0
C325 C 1.05103 0.69483 0.41363 0.0
C326 C 1.07547 0.71462 0.41476 0.0
C327 C 1.08492 0.72671 0.44911 0.0
C328 C 1.07082 0.71815 0.48214 0.0
C329 C 0.98164 0.67921 0.62507 0.0
C330 C 1.03637 0.78089 0.58661 0.0
C331 C 0.93569 0.76975 0.65605 0.0
C332 C 0.92135 0.79908 0.65665 0.0
C333 C 0.91117 0.81212 0.6228 0.0
C334 C 0.90201 0.84203 0.62189 0.0
C335 C 0.90338 0.85928 0.65466 0.0
C336 C 0.91414 0.84634 0.6883 0.0
C337 C 0.92308 0.81633 0.68926 0.0
C338 C 0.97553 0.78749 0.5393 0.0
C339 C 0.9221 0.72728 0.52919 0.0
O340 O 1.00264 0.68582 0.51239 0.0
O341 O 1.04026 0.70173 0.54629 0.0
O342 O 0.99368 0.70543 0.62492 0.0
O343 O 0.97185 0.67488 0.59111 0.0
O344 O 1.01451 0.78022 0.61161 0.0
O345 O 1.03331 0.75927 0.56066 0.0
O346 O 0.92552 0.75089 0.631 0.0
O347 O 0.96483 0.77118 0.65725 0.0
O348 O 0.96993 0.75984 0.53685 0.0
O349 O 0.9777 0.79674 0.57367 0.0
O350 O 0.9486 0.71657 0.51829 0.0
O351 O 0.92332 0.73973 0.56331 0.0
H352 H 1.01879 0.67021 0.44508 0.0
H353 H 1.04301 0.68565 0.38727 0.0
H354 H 0.10384 0.74186 0.45063 0.0
H355 H 1.07868 0.72765 0.50839 0.0
H356 H 0.91079 0.79939 0.5969 0.0
H357 H 0.8935 0.85161 0.59583 0.0
H358 H 0.91472 0.85915 0.71411 0.0
H359 H 0.93185 0.80674 0.71519 0.0
Pr360 Pr 0.23587 0.24128 0.80414 0.0
Pr361 Pr 0.20648 0.21804 0.84429 0.0
C362 C 0.26558 0.27684 0.75654 0.0
C363 C 0.2575 0.2881 0.71926 0.0
C364 C 0.27819 0.28569 0.69009 0.0
C365 C 0.27032 0.29521 0.65401 0.0
C366 C 0.24172 0.30733 0.64696 0.0
C367 C 0.22068 0.30876 0.6759 0.0
C368 C 0.22844 0.29901 0.71182 0.0
C369 C 0.27502 0.2312 0.87101 0.0
C370 C 0.17465 0.28429 0.83374 0.0
C371 C 0.19574 0.18162 0.90112 0.0
C372 C 0.18983 0.16173 0.93216 0.0
C373 C 0.16014 0.15696 0.94258 0.0
C374 C 0.15419 0.1449 0.97755 0.0
C375 C 0.17794 0.13774 0.00216 0.0
C376 C 0.20764 0.13995 0.99043 0.0
C377 C 0.21363 0.15202 0.95523 0.0
C378 C 0.16625 0.22273 0.78562 0.0
C379 C 0.22648 0.16961 0.77447 0.0
O380 O 0.26995 0.24787 0.75843 0.0
O381 O 0.25004 0.28738 0.78452 0.0
O382 O 0.24892 0.2437 0.86939 0.0
O383 O 0.27901 0.21982 0.83789 0.0
O384 O 0.1777 0.26305 0.85974 0.0
O385 O 0.19429 0.28065 0.80578 0.0
O386 O 0.22021 0.17922 0.88144 0.0
O387 O 0.17681 0.20275 0.89108 0.0
O388 O 0.19397 0.21825 0.78079 0.0
O389 O 0.15852 0.22462 0.82053 0.0
O390 O 0.2379 0.19584 0.76365 0.0
O391 O 0.21345 0.17127 0.80784 0.0
H392 H 0.30044 0.27661 0.6953 0.0
H393 H 0.2869 0.29421 0.63199 0.0
H394 H 0.19844 0.31794 0.67083 0.0
H395 H 0.21177 0.3002 0.73371 0.0
H396 H 0.14162 0.16427 0.92478 0.0
H397 H 0.13107 0.14264 0.98619 0.0
H398 H 0.22602 0.1342 0.00926 0.0
H399 H 0.2367 0.15588 0.94733 0.0
Pr400 Pr 0.70957 0.4829 0.05815 0.0
Pr401 Pr 0.73819 0.45315 0.09289 0.0
C402 C 0.6808 0.51805 0.00789 0.0
C403 C 0.66189 0.51116 0.97542 0.0
C404 C 0.64097 0.48766 0.97718 0.0
C405 C 0.62251 0.48168 0.94649 0.0
C406 C 0.62507 0.49879 0.91354 0.0
C407 C 0.64684 0.52145 0.91127 0.0
C408 C 0.66513 0.52764 0.94216 0.0
C409 C 0.72166 0.51994 0.12489 0.0
C410 C 0.6688 0.42102 0.08131 0.0
C411 C 0.7499 0.43409 0.16249 0.0
C412 C 0.76251 0.44649 0.19709 0.0
C413 C 0.7931 0.45307 0.20003 0.0
C414 C 0.80569 0.45939 0.23492 0.0
C415 C 0.7878 0.45923 0.26731 0.0
C416 C 0.75655 0.45689 0.26325 0.0
C417 C 0.74403 0.45002 0.22841 0.0
C418 C 0.74008 0.41912 0.03064 0.0
C419 C 0.78253 0.47574 0.02557 0.0
O420 O 0.70904 0.51099 0.00483 0.0
O421 O 0.66974 0.51102 0.04048 0.0
O422 O 0.74045 0.50646 0.10354 0.0
O423 O 0.69558 0.50955 0.11526 0.0
O424 O 0.69625 0.41589 0.09485 0.0
O425 O 0.66647 0.44819 0.06564 0.0
O426 O 0.72374 0.44496 0.15226 0.0
O427 O 0.76828 0.42945 0.13457 0.0
O428 O 0.71631 0.43337 0.03962 0.0
O429 O 0.76259 0.42148 0.05396 0.0
O430 O 0.75461 0.48489 0.01732 0.0
O431 O 0.78502 0.46344 0.05958 0.0
H432 H 0.63864 0.4741 0.00234 0.0
H433 H 0.6062 0.46376 0.94851 0.0
H434 H 0.64914 0.53487 0.88599 0.0
H435 H 0.68157 0.54545 0.94024 0.0
H436 H 0.80774 0.45128 0.17602 0.0
H437 H 0.82986 0.46101 0.23679 0.0
H438 H 0.74216 0.45723 0.28759 0.0
H439 H 0.72019 0.44562 0.22648 0.0
Pr440 Pr 0.46744 0.95691 0.30677 0.0
Pr441 Pr 0.49982 0.98304 0.34234 0.0
C442 C 0.43634 0.91763 0.26554 0.0
C443 C 0.44506 0.90179 0.23194 0.0
C444 C 0.4241 0.88428 0.21299 0.0
C445 C 0.43237 0.86942 0.18048 0.0
C446 C 0.46161 0.87229 0.16647 0.0
C447 C 0.48275 0.88969 0.18582 0.0
C448 C 0.47445 0.90445 0.21854 0.0
C449 C 0.42862 0.9744 0.3688 0.0
C450 C 0.5319 0.91569 0.33246 0.0
C451 C 0.52243 1.01912 0.39483 0.0
C452 C 0.55186 1.03281 0.39575 0.0
C453 C 0.5761 1.01835 0.37831 0.0
C454 C 0.60351 1.03281 0.3753 0.0
C455 C 0.60686 1.06186 0.38964 0.0
C456 C 0.58252 1.07619 0.40722 0.0
C457 C 0.5551 1.06175 0.41008 0.0
C458 C 0.53405 0.97303 0.27824 0.0
C459 C 0.47607 1.02785 0.2707 0.0
O460 O 0.43348 0.94666 0.26142 0.0
O461 O 0.45127 0.90984 0.29571 0.0
O462 O 0.45509 0.96241 0.37148 0.0
O463 O 0.42524 0.98168 0.33375 0.0
O464 O 0.53568 0.94113 0.3512 0.0
O465 O 0.50607 0.91547 0.31298 0.0
O466 O 0.50495 1.02909 0.36789 0.0
O467 O 0.52218 0.98987 0.39858 0.0
O468 O 0.50644 0.97852 0.27737 0.0
O469 O 0.54515 0.97333 0.31195 0.0
O470 O 0.46529 1.00051 0.26312 0.0
O471 O 0.49005 1.02896 0.30383 0.0
H472 H 0.40141 0.88217 0.22325 0.0
H473 H 0.41584 0.85572 0.16618 0.0
H474 H 0.5053 0.89234 0.17529 0.0
H475 H 0.49081 0.91806 0.23328 0.0
H476 H 0.57386 0.99597 0.36685 0.0
H477 H 0.62205 1.02136 0.36195 0.0
H478 H 0.58486 1.09836 0.41944 0.0
H479 H 0.53642 1.07321 0.42314 0.0
Pr480 Pr 0.23352 0.45377 0.41399 0.0
Pr481 Pr 0.20432 0.48535 0.45216 0.0
C482 C 0.26616 0.43626 0.3555 0.0
C483 C 0.26004 0.4124 0.32902 0.0
C484 C 0.24173 0.38826 0.33957 0.0
C485 C 0.23457 0.36606 0.31369 0.0
C486 C 0.24581 0.36775 0.27708 0.0
C487 C 0.26265 0.393 0.26614 0.0
C488 C 0.26966 0.41525 0.29204 0.0
C489 C 0.22217 0.41811 0.4759 0.0
C490 C 0.27606 0.47782 0.48686 0.0
C491 C 0.16699 0.51613 0.4961 0.0
C492 C 0.15529 0.50866 0.53301 0.0
C493 C 0.15841 0.52946 0.56219 0.0
C494 C 0.14973 0.52174 0.59838 0.0
C495 C 0.1377 0.49323 0.6055 0.0
C496 C 0.1352 0.47215 0.5765 0.0
C497 C 0.14421 0.47972 0.54045 0.0
C498 C 0.22112 0.52501 0.39003 0.0
C499 C 0.16529 0.42096 0.42272 0.0
O500 O 0.27246 0.42783 0.38984 0.0
O501 O 0.24691 0.45835 0.35352 0.0
O502 O 0.2284 0.44563 0.47785 0.0
O503 O 0.22246 0.40757 0.44185 0.0
O504 O 0.24792 0.48517 0.49588 0.0
O505 O 0.27835 0.46739 0.45199 0.0
O506 O 0.15754 0.49975 0.46804 0.0
O507 O 0.19575 0.52087 0.49571 0.0
O508 O 0.20968 0.4984 0.38757 0.0
O509 O 0.228 0.52833 0.42511 0.0
O510 O 0.19064 0.41955 0.4031 0.0
O511 O 0.16439 0.44516 0.44514 0.0
H512 H 0.23345 0.38627 0.36797 0.0
H513 H 0.22177 0.34674 0.3228 0.0
H514 H 0.27218 0.3946 0.23833 0.0
H515 H 0.28307 0.43432 0.28344 0.0
H516 H 0.16768 0.55158 0.55697 0.0
H517 H 0.15147 0.53832 0.62051 0.0
H518 H 0.12592 0.45003 0.58169 0.0
H519 H 0.14254 0.46293 0.51857 0.0
Pr520 Pr 0.99347 0.98071 0.1667 0.0
Pr521 Pr 0.95954 0.95807 0.20352 0.0
C522 C 1.00898 1.02152 0.11615 0.0
C523 C 1.02795 1.04702 0.12393 0.0
C524 C 1.04643 1.04635 0.15606 0.0
C525 C 1.06566 1.07003 0.16343 0.0
C526 C 1.0665 1.09453 0.13867 0.0
C527 C 1.04593 1.09631 0.10845 0.0
C528 C 1.02671 1.0725 0.10107 0.0
C529 C 1.0276 0.97242 0.2314 0.0
C530 C 0.97253 1.02963 0.23539 0.0
C531 C 0.92705 0.92106 0.24644 0.0
C532 C 0.9342 0.90297 0.27986 0.0
C533 C 0.95211 0.87696 0.27705 0.0
C534 C 0.95896 0.86003 0.30888 0.0
C535 C 0.94808 0.86884 0.34396 0.0
C536 C 0.93088 0.89523 0.34703 0.0
C537 C 0.9239 0.91215 0.31513 0.0
C538 C 0.92419 0.97063 0.13578 0.0
C539 C 1.02323 0.91425 0.17801 0.0
O540 O 0.98328 1.02269 0.13336 0.0
O541 O 1.02242 0.99531 0.11859 0.0
O542 O 0.99999 0.97838 0.23194 0.0
O543 O 1.03874 0.97164 0.19786 0.0
O544 O 0.95655 1.00492 0.24274 0.0
O545 O 0.9895 1.02646 0.20521 0.0
O546 O 0.93966 0.91265 0.2153 0.0
O547 O 0.92699 0.95017 0.25086 0.0
O548 O 0.95027 0.958 0.13794 0.0
O549 O 0.91858 0.98112 0.16893 0.0
O550 O 1.02623 0.93786 0.15564 0.0
O551 O 0.9989 0.91637 0.20013 0.0
H552 H 1.04689 1.02698 0.17461 0.0
H553 H 1.08161 1.0681 0.18648 0.0
H554 H 1.04663 0.11478 0.0885 0.0
H555 H 1.01186 1.07343 0.07682 0.0
H556 H 0.96082 0.86954 0.25032 0.0
H557 H 0.97265 0.83996 0.30606 0.0
H558 H 0.92218 0.90232 0.37391 0.0
H559 H 0.91033 0.93229 0.31798 0.0
Pr560 Pr 0.46202 0.74565 0.91712 0.0
Pr561 Pr 0.49068 0.71861 0.95343 0.0
C562 C 0.44681 0.7654 0.84869 0.0
C563 C 0.43234 0.7535 0.81555 0.0
C564 C 0.41303 0.7288 0.81806 0.0
C565 C 0.39494 0.72135 0.78744 0.0
C566 C 0.3961 0.73868 0.75438 0.0
C567 C 0.41813 0.76121 0.75107 0.0
C568 C 0.43609 0.76856 0.78159 0.0
C569 C 0.46032 0.78363 0.97661 0.0
C570 C 0.4183 0.72479 0.98678 0.0
C571 C 0.51985 0.68253 0.00237 0.0
C572 C 0.53674 0.68738 0.03682 0.0
C573 C 0.55586 0.66465 0.04999 0.0
C574 C 0.57495 0.67015 0.08022 0.0
C575 C 0.5751 0.69851 0.0975 0.0
C576 C 0.55521 0.72106 0.0849 0.0
C577 C 0.53617 0.71555 0.05448 0.0
C578 C 0.48348 0.68155 0.88502 0.0
C579 C 0.5308 0.77969 0.92778 0.0
O580 O 0.47319 0.75405 0.85649 0.0
O581 O 0.42965 0.76887 0.87792 0.0
O582 O 0.48369 0.76837 0.96927 0.0
O583 O 0.43775 0.77941 0.95404 0.0
O584 O 0.44648 0.71706 0.99548 0.0
O585 O 0.41553 0.73512 0.9518 0.0
O586 O 0.49107 0.68756 0.00391 0.0
O587 O 0.53219 0.69365 0.97239 0.0
O588 O 0.46286 0.69251 0.90594 0.0
O589 O 0.50775 0.69538 0.89558 0.0
O590 O 0.50588 0.77944 0.90697 0.0
O591 O 0.53134 0.757 0.95228 0.0
H592 H 0.41056 0.71664 0.84431 0.0
H593 H 0.37841 0.70377 0.79064 0.0
H594 H 0.41954 0.77538 0.72633 0.0
H595 H 0.45137 0.78739 0.77944 0.0
H596 H 0.55658 0.64293 0.03628 0.0
H597 H 0.58983 0.65233 0.08988 0.0
H598 H 0.5551 0.74313 0.09775 0.0
H599 H 0.52165 0.73344 0.04408 0.0
Pr600 Pr 0.70089 0.21743 0.66203 0.0
Pr601 Pr 0.72961 0.2419 0.70229 0.0
C602 C 0.68191 0.20616 0.59233 0.0
C603 C 0.69316 0.19296 0.5577 0.0
C604 C 0.69409 0.16167 0.55347 0.0
C605 C 0.69904 0.14935 0.51837 0.0
C606 C 0.70326 0.16815 0.48687 0.0
C607 C 0.70576 0.19933 0.49216 0.0
C608 C 0.70039 0.2117 0.52732 0.0
C609 C 0.66376 0.21366 0.72186 0.0
C610 C 0.71968 0.16826 0.72887 0.0
C611 C 0.76257 0.26674 0.75679 0.0
C612 C 0.75281 0.2807 0.79154 0.0
C613 C 0.77079 0.27839 0.82367 0.0
C614 C 0.76197 0.2926 0.85648 0.0
C615 C 0.73536 0.30978 0.85717 0.0
C616 C 0.71641 0.31037 0.82563 0.0
C617 C 0.72501 0.29568 0.79303 0.0
C618 C 0.76752 0.23668 0.63485 0.0
C619 C 0.66885 0.28608 0.67876 0.0
O620 O 0.69345 0.23199 0.60214 0.0
O621 O 0.67719 0.18787 0.62053 0.0
O622 O 0.67963 0.23676 0.71579 0.0
O623 O 0.66656 0.19229 0.69737 0.0
O624 O 0.72991 0.19477 0.74046 0.0
O625 O 0.70855 0.1691 0.69406 0.0
O626 O 0.75825 0.23779 0.75481 0.0
O627 O 0.75503 0.28117 0.72611 0.0
O628 O 0.75418 0.21548 0.65273 0.0
O629 O 0.7561 0.26142 0.64806 0.0
O630 O 0.66734 0.26248 0.65606 0.0
O631 O 0.69207 0.28376 0.70246 0.0
H632 H 0.68895 0.14664 0.57657 0.0
H633 H 0.69653 0.12523 0.51562 0.0
H634 H 0.7094 0.21432 0.46857 0.0
H635 H 0.70012 0.23598 0.53015 0.0
H636 H 0.79184 0.26614 0.82317 0.0
H637 H 0.77656 0.29117 0.88091 0.0
H638 H 0.6958 0.32338 0.82546 0.0
H639 H 0.71036 0.29688 0.76872 0.0
H640 H 0.54044 0.34509 0.08924 0.0
H641 H 0.59883 0.26889 0.07307 0.0
H642 H 0.64227 0.30253 0.07287 0.0
H643 H 0.6662 0.35489 0.07754 0.0
H644 H 0.60723 0.4315 0.08619 0.0
H645 H 0.56398 0.39772 0.08885 0.0
C646 C 0.56256 0.33539 0.08583 0.0
C647 C 0.56486 0.30286 0.08195 0.0
C648 C 0.58857 0.35578 0.08439 0.0
C649 C 0.59481 0.29276 0.07663 0.0
C650 C 0.62029 0.3125 0.07649 0.0
C651 C 0.64403 0.36462 0.08024 0.0
C652 C 0.6416 0.39725 0.0824 0.0
C653 C 0.61793 0.34429 0.08048 0.0
C654 C 0.61143 0.4075 0.08482 0.0
C655 C 0.58605 0.38769 0.08636 0.0
H656 H 0.60997 0.78704 0.33673 0.0
H657 H 0.68496 0.84677 0.3245 0.0
H658 H 0.65058 0.89013 0.32489 0.0
H659 H 0.59783 0.91361 0.32977 0.0
H660 H 0.52257 0.85342 0.33323 0.0
H661 H 0.55707 0.81022 0.33493 0.0
C662 C 0.61927 0.80943 0.3343 0.0
C663 C 0.65173 0.81207 0.33155 0.0
C664 C 0.59843 0.83541 0.33305 0.0
C665 C 0.66123 0.84241 0.32728 0.0
C666 C 0.64104 0.86786 0.3275 0.0
C667 C 0.58853 0.89116 0.33112 0.0
C668 C 0.556 0.88838 0.33234 0.0
C669 C 0.60934 0.86512 0.33065 0.0
C670 C 0.5464 0.85791 0.33281 0.0
C671 C 0.56665 0.83255 0.3338 0.0
H672 H 0.1441 0.87807 0.63311 0.0
H673 H 0.13376 0.90644 0.51793 0.0
H674 H 1.09593 0.86728 0.50809 0.0
H675 H 1.0633 0.8231 0.53134 0.0
H676 H 1.07067 0.79834 0.64812 0.0
H677 H 0.10995 0.83603 0.65696 0.0
C678 C 0.13374 0.87616 0.60561 0.0
C679 C 0.14339 0.89701 0.57646 0.0
C680 C 0.11041 0.85301 0.59995 0.0
C681 C 0.12813 0.89226 0.54164 0.0
C682 C 0.10594 0.86917 0.53579 0.0
C683 C 1.07347 0.82539 0.5589 0.0
C684 C 1.0629 0.80565 0.58885 0.0
C685 C 1.09649 0.84898 0.56455 0.0
C686 C 1.07722 0.81151 0.6239 0.0
C687 C 0.10023 0.83372 0.62915 0.0
H688 H 1.07485 0.38814 0.88461 0.0
H689 H 1.04849 0.3839 0.76818 0.0
H690 H 1.08861 0.34714 0.75676 0.0
H691 H 0.133 0.31374 0.77904 0.0
H692 H 0.15559 0.31486 0.89686 0.0
H693 H 0.11702 0.35319 0.90727 0.0
C694 C 1.07742 0.37933 0.85652 0.0
C695 C 1.05687 0.39024 0.82754 0.0
C696 C 0.10106 0.35662 0.8499 0.0
C697 C 1.06241 0.37706 0.79183 0.0
C698 C 1.08605 0.35555 0.78506 0.0
C699 C 0.13002 0.32235 0.80717 0.0
C700 C 0.1494 0.31036 0.83695 0.0
C701 C 0.10592 0.34475 0.8137 0.0
C702 C 0.14271 0.32262 0.87275 0.0
C703 C 0.12 0.34507 0.87892 0.0
H704 H 0.63723 0.87597 0.8763 0.0
H705 H 0.62787 0.90644 0.99025 0.0
H706 H 0.59037 0.86741 1.00151 0.0
H707 H 0.55797 0.82294 0.98011 0.0
H708 H 0.56323 0.79609 0.86436 0.0
H709 H 0.6025 0.83361 0.85383 0.0
C710 C 0.62717 0.87446 0.9038 0.0
C711 C 0.63694 0.89575 0.93226 0.0
C712 C 0.60385 0.85154 0.91021 0.0
C713 C 0.62204 0.89178 0.96712 0.0
C714 C 0.60008 0.86882 0.97379 0.0
C715 C 0.5676 0.82486 0.95239 0.0
C716 C 0.55656 0.80473 0.92332 0.0
C717 C 0.59042 0.84822 0.94576 0.0
C718 C 0.57019 0.80979 0.88792 0.0
C719 C 0.59318 0.83183 0.88173 0.0
H720 H 0.56571 0.38696 0.7295 0.0
H721 H 0.54824 0.38964 0.61038 0.0
H722 H 0.58685 0.35118 0.60076 0.0
H723 H 0.62743 0.31489 0.62474 0.0
H724 H 0.64898 0.31589 0.74283 0.0
H725 H 0.6088 0.35277 0.75315 0.0
C726 C 0.56987 0.37918 0.70123 0.0
C727 C 0.55198 0.3922 0.67079 0.0
C728 C 0.59395 0.35677 0.69529 0.0
C729 C 0.56002 0.38102 0.63491 0.0
C730 C 0.58272 0.35851 0.62923 0.0
C731 C 0.62373 0.32299 0.65297 0.0
C732 C 0.64282 0.3111 0.68284 0.0
C733 C 0.60019 0.34586 0.65896 0.0
C734 C 0.63608 0.32348 0.71863 0.0
C735 C 0.61245 0.34505 0.72474 0.0
H736 H 1.09629 0.28716 0.43021 0.0
H737 H 1.01674 0.34193 0.41974 0.0
H738 H 1.04758 0.38737 0.42044 0.0
H739 H 1.09849 0.41464 0.42283 0.0
H740 H 0.17819 0.35962 0.42677 0.0
H741 H 0.14725 0.31432 0.42977 0.0
C742 C 1.0852 0.30883 0.42797 0.0
C743 C 1.05253 0.30912 0.42488 0.0
C744 C 0.10396 0.33639 0.42709 0.0
C745 C 1.04081 0.339 0.42193 0.0
C746 C 1.05894 0.36582 0.42239 0.0
C747 C 0.1096 0.39294 0.4243 0.0
C748 C 0.14235 0.39253 0.42453 0.0
C749 C 1.09083 0.36537 0.42474 0.0
C750 C 0.15408 0.36261 0.42624 0.0
C751 C 0.13588 0.33589 0.42804 0.0
H752 H 0.10085 0.78545 0.17983 0.0
H753 H 0.17626 0.84547 0.17703 0.0
H754 H 0.1418 0.88878 0.17583 0.0
H755 H 1.0888 0.91196 0.17426 0.0
H756 H 1.01381 0.85212 0.18577 0.0
H757 H 1.04823 0.8088 0.18499 0.0
C758 C 0.11019 0.80789 0.17885 0.0
C759 C 0.14271 0.8106 0.17769 0.0
C760 C 1.08945 0.8339 0.17961 0.0
C761 C 0.15242 0.84105 0.1775 0.0
C762 C 0.13219 0.86645 0.17679 0.0
C763 C 1.07954 0.88954 0.17653 0.0
C764 C 1.04708 0.88681 0.17926 0.0
C765 C 0.10039 0.8636 0.17754 0.0
C766 C 1.03756 0.85649 0.18318 0.0
C767 C 1.05776 0.8311 0.18269 0.0
H768 H 0.33665 0.21135 0.87427 0.0
H769 H 0.27118 0.2535 0.94501 0.0
H770 H 0.30821 0.25508 0.99662 0.0
H771 H 0.36111 0.24448 0.02435 0.0
H772 H 0.4258 0.20309 0.95133 0.0
H773 H 0.38866 0.20174 0.90091 0.0
C774 C 0.33003 0.22095 0.90087 0.0
C775 C 0.29963 0.2322 0.90407 0.0
C776 C 0.35223 0.22197 0.93154 0.0
C777 C 0.29336 0.24448 0.93997 0.0
C778 C 0.31507 0.24537 0.97019 0.0
C779 C 0.36741 0.2348 0.9977 0.0
C780 C 0.39789 0.22336 0.99388 0.0
C781 C 0.34492 0.23412 0.9669 0.0
C782 C 0.40368 0.21184 0.95738 0.0
C783 C 0.38192 0.21106 0.92762 0.0
H784 H 0.68648 0.54639 0.18385 0.0
H785 H 0.76943 0.56058 0.12573 0.0
H786 H 0.77826 0.60623 0.16281 0.0
H787 H 0.76315 0.64407 0.21349 0.0
H788 H 0.68235 0.62671 0.27512 0.0
H789 H 0.67267 0.58249 0.23621 0.0
C790 C 0.70673 0.55916 0.17911 0.0
C791 C 0.72718 0.54856 0.15074 0.0
C792 C 0.71233 0.58591 0.20199 0.0
C793 C 0.75301 0.56675 0.14658 0.0
C794 C 0.75812 0.59346 0.16818 0.0
C795 C 0.74338 0.63074 0.21888 0.0
C796 C 0.72372 0.64016 0.24884 0.0
C797 C 0.7381 0.60363 0.19631 0.0
C798 C 0.69848 0.62121 0.25362 0.0
C799 C 0.69274 0.59538 0.23083 0.0
H800 H 0.41846 0.95506 0.44841 0.0
H801 H 0.3725 0.99604 0.35396 0.0
H802 H 0.32685 0.99958 0.3902 0.0
H803 H 0.29709 0.99212 0.44956 0.0
H804 H 0.34147 0.95152 0.54505 0.0
H805 H 0.38786 0.94723 0.50889 0.0
C806 C 0.39868 0.96495 0.4354 0.0
C807 C 0.40074 0.97539 0.39683 0.0
C808 C 0.37086 0.96727 0.45741 0.0
C809 C 0.37339 0.98771 0.38258 0.0
C810 C 0.34648 0.98984 0.40377 0.0
C811 C 0.31676 0.98244 0.46306 0.0
C812 C 0.31423 0.97261 0.50166 0.0
C813 C 0.34449 0.97991 0.44142 0.0
C814 C 0.34123 0.95984 0.51642 0.0
C815 C 0.36843 0.95726 0.49524 0.0
H816 H 0.95982 0.61859 0.62759 0.0
H817 H 1.00687 0.68169 0.69764 0.0
H818 H 1.00982 0.64376 0.74811 0.0
H819 H 0.99902 0.59094 0.77474 0.0
H820 H 0.95123 0.52893 0.7035 0.0
H821 H 0.94915 0.56673 0.65365 0.0
C822 C 0.97075 0.62444 0.65383 0.0
C823 C 0.983 0.65434 0.65735 0.0
C824 C 0.97234 0.60185 0.68382 0.0
C825 C 0.99698 0.65984 0.69262 0.0
C826 C 0.99871 0.63766 0.72208 0.0
C827 C 0.98787 0.5854 0.74854 0.0
C828 C 0.9749 0.55563 0.74479 0.0
C829 C 0.98643 0.60828 0.71852 0.0
C830 C 0.9612 0.55062 0.70919 0.0
C831 C 0.96002 0.5727 0.67989 0.0
H832 H 0.8394 0.95503 0.9831 0.0
H833 H 0.77372 0.99538 0.05565 0.0
H834 H 0.81079 0.99769 0.10623 0.0
H835 H 0.86284 0.98915 0.13262 0.0
H836 H 0.92929 0.94833 0.06206 0.0
H837 H 0.8923 0.94575 0.01046 0.0
C838 C 0.83291 0.96459 0.00976 0.0
C839 C 0.80235 0.97539 0.01368 0.0
C840 C 0.85525 0.96593 0.04033 0.0
C841 C 0.79605 0.98705 0.04987 0.0
C842 C 0.8177 0.98839 0.07958 0.0
C843 C 0.86963 0.97966 0.10603 0.0
C844 C 0.90015 0.96911 0.10266 0.0
C845 C 0.84757 0.97807 0.07556 0.0
C846 C 0.9069 0.95686 0.06697 0.0
C847 C 0.88528 0.95537 0.03687 0.0
H848 H 0.44365 0.62958 0.87148 0.0
H849 H 0.52324 0.67104 0.82797 0.0
H850 H 0.52711 0.63171 0.78047 0.0
H851 H 0.50873 0.58372 0.74868 0.0
H852 H 0.43142 0.53991 0.79494 0.0
H853 H 0.42655 0.58012 0.84134 0.0
C854 C 0.4618 0.63051 0.85154 0.0
C855 C 0.48284 0.65519 0.85448 0.0
C856 C 0.46457 0.60638 0.82347 0.0
C857 C 0.50622 0.65375 0.82766 0.0
C858 C 0.50857 0.63067 0.79984 0.0
C859 C 0.49048 0.58273 0.7685 0.0
C860 C 0.47009 0.55747 0.76612 0.0
C861 C 0.48796 0.60656 0.79693 0.0
C862 C 0.44753 0.55804 0.79411 0.0
C863 C 0.44466 0.58158 0.82138 0.0
H864 H 0.81887 0.19552 0.62145 0.0
H865 H 0.77889 0.27735 0.57863 0.0
H866 H 0.8184 0.2813 0.53184 0.0
H867 H 0.86588 0.26246 0.5005 0.0
H868 H 0.90893 0.1832 0.54591 0.0
H869 H 0.86847 0.178 0.59181 0.0
C870 C 0.81828 0.21417 0.60177 0.0
C871 C 0.7939 0.23582 0.60462 0.0
C872 C 0.84265 0.21703 0.57421 0.0
C873 C 0.79588 0.25985 0.5783 0.0
C874 C 0.81906 0.26224 0.55092 0.0
C875 C 0.86671 0.24375 0.5201 0.0
C876 C 0.89176 0.22294 0.51764 0.0
C877 C 0.84284 0.24109 0.5481 0.0
C878 C 0.891 0.19971 0.54525 0.0
C879 C 0.86729 0.19665 0.57215 0.0
H880 H 0.20463 0.53426 0.30927 0.0
H881 H 0.23965 0.58199 0.40521 0.0
H882 H 0.24302 0.62775 0.36808 0.0
H883 H 0.23706 0.65702 0.30751 0.0
H884 H 0.20262 0.61075 0.21049 0.0
H885 H 0.19835 0.56432 0.24758 0.0
C886 C 0.21312 0.55447 0.32242 0.0
C887 C 0.22194 0.55294 0.36166 0.0
C888 C 0.21539 0.58229 0.29991 0.0
C889 C 0.23259 0.58077 0.37608 0.0
C890 C 0.23463 0.60771 0.3544 0.0
C891 C 0.22879 0.6369 0.29391 0.0
C892 C 0.22073 0.63881 0.25462 0.0
C893 C 0.22631 0.60918 0.31607 0.0
C894 C 0.20965 0.61135 0.23966 0.0
C895 C 0.20705 0.58417 0.26137 0.0
H896 H 0.7887 0.74615 0.44602 0.0
H897 H 0.83457 0.70361 0.35419 0.0
H898 H 0.88021 0.70038 0.39185 0.0
H899 H 0.90985 0.70837 0.45209 0.0
H900 H 0.86522 0.75082 0.54467 0.0
H901 H 0.81912 0.75489 0.50691 0.0
C902 C 0.80847 0.73602 0.43386 0.0
C903 C 0.80639 0.72496 0.39561 0.0
C904 C 0.83621 0.7339 0.45671 0.0
C905 C 0.83372 0.71235 0.3825 0.0
C906 C 0.8606 0.7104 0.40454 0.0
C907 C 0.89018 0.7184 0.46463 0.0
C908 C 0.89258 0.72876 0.50304 0.0
C909 C 0.86256 0.72084 0.44197 0.0
C910 C 0.86558 0.74202 0.51638 0.0
C911 C 0.83854 0.74448 0.49424 0.0
H912 H 0.24699 0.15635 0.69894 0.0
H913 H 0.20121 0.11375 0.79071 0.0
H914 H 0.19665 1.06744 0.75402 0.0
H915 H 0.20563 1.03644 0.69427 0.0
H916 H 0.25187 1.08013 0.60341 0.0
H917 H 0.2557 0.126 0.64006 0.0
C918 C 0.2361 0.13708 0.71147 0.0
C919 C 0.22485 0.14004 0.74918 0.0
C920 C 0.23339 0.10937 0.68952 0.0
C921 C 0.2106 0.11359 0.76278 0.0
C922 C 0.20785 1.08645 0.74131 0.0
C923 C 0.21666 1.0558 0.68214 0.0
C924 C 0.2285 1.05316 0.64455 0.0
C925 C 0.21918 1.08358 0.70436 0.0
C926 C 0.24241 1.07986 0.63131 0.0
C927 C 0.24471 0.10682 0.65272 0.0
H928 H 0.84581 0.45669 0.0271 0.0
H929 H 0.78015 0.49618 0.95195 0.0
H930 H 0.81741 0.49808 0.90219 0.0
H931 H 0.86972 0.48934 0.87733 0.0
H932 H 0.93611 0.44975 0.95104 0.0
H933 H 0.89886 0.44752 1.00156 0.0
C934 C 0.83935 0.466 1.00005 0.0
C935 C 0.80874 0.47671 0.99515 0.0
C936 C 0.86181 0.46714 0.97006 0.0
C937 C 0.8025 0.48801 0.95849 0.0
C938 C 0.82428 0.48907 0.92927 0.0
C939 C 0.87647 0.48019 0.90439 0.0
C940 C 0.90711 0.46984 0.9089 0.0
C941 C 0.85422 0.47888 0.9343 0.0
C942 C 0.91371 0.45809 0.94518 0.0
C943 C 0.89191 0.4568 0.97467 0.0
H944 H 0.49926 1.08971 0.27045 0.0
H945 H 0.45218 1.02748 0.19881 0.0
H946 H 0.45011 1.06536 0.14897 0.0
H947 H 0.46061 0.11736 0.12317 0.0
H948 H 0.50778 0.18027 0.19339 0.0
H949 H 0.51046 0.14234 0.24386 0.0
C950 C 0.48827 1.08416 0.24416 0.0
C951 C 0.47545 1.05436 0.24024 0.0
C952 C 0.48701 0.10698 0.21414 0.0
C953 C 0.46202 1.04922 0.20454 0.0
C954 C 0.46084 1.07135 0.17529 0.0
C955 C 0.47149 0.12316 0.14946 0.0
C956 C 0.48382 0.15301 0.15309 0.0
C957 C 0.47304 1.10054 0.17937 0.0
C958 C 0.49783 0.15846 0.18834 0.0
C959 C 0.49938 0.1363 0.2178 0.0
H960 H 0.33911 0.45772 0.48576 0.0
H961 H 0.27471 0.49791 0.56014 0.0
H962 H 0.31241 0.49914 0.61017 0.0
H963 H 0.36474 0.48966 0.63554 0.0
H964 H 0.42975 0.44869 0.56304 0.0
H965 H 0.39215 0.44724 0.51208 0.0
C966 C 0.33303 0.46703 0.5127 0.0
C967 C 0.30263 0.4782 0.51732 0.0
C968 C 0.35573 0.46763 0.54294 0.0
C969 C 0.29688 0.48942 0.55385 0.0
C970 C 0.31891 0.49009 0.58322 0.0
C971 C 0.37109 0.48036 0.60867 0.0
C972 C 0.40144 0.4694 0.6046 0.0
C973 C 0.34862 0.47943 0.57853 0.0
C974 C 0.40754 0.45747 0.56854 0.0
C975 C 0.38556 0.45665 0.53878 0.0
H976 H 1.01791 0.14801 0.33233 0.0
H977 H 0.92857 0.14467 0.37667 0.0
H978 H 0.91813 1.09989 0.33863 0.0
H979 H 0.93362 1.05966 0.29081 0.0
H980 H 1.02206 1.06597 0.24375 0.0
H981 H 1.03268 0.10939 0.2834 0.0
C982 C 0.99596 0.13779 0.33388 0.0
C983 C 0.97423 0.15119 0.35871 0.0
C984 C 0.9896 0.11143 0.31058 0.0
C985 C 0.94618 0.13622 0.35876 0.0
C986 C 0.94009 0.11 0.33656 0.0
C987 C 0.95533 1.0703 0.28884 0.0
C988 C 0.97681 1.05791 0.26266 0.0
C989 C 0.96147 1.097 0.312 0.0
C990 C 1.00449 1.07367 0.26223 0.0
C991 C 1.01079 1.0991 0.28546 0.0
H992 H 0.33079 0.70921 0.13524 0.0
H993 H 0.26399 0.74805 0.06147 0.0
H994 H 0.30128 0.75123 0.0112 0.0
H995 H 0.35443 0.74285 0.98546 0.0
H996 H 0.42078 0.70454 0.06058 0.0
H997 H 0.38352 0.70177 0.11029 0.0
C998 C 0.32394 0.71837 0.10823 0.0
C999 C 0.29305 0.72813 0.10371 0.0
C1000 C 0.3463 0.7203 0.0783 0.0
C1001 C 0.2865 0.74004 0.06743 0.0
C1002 C 0.30835 0.74189 0.03801 0.0
C1003 C 0.36109 0.73362 0.01249 0.0
C1004 C 0.39195 0.72351 0.01728 0.0
C1005 C 0.3386 0.73203 0.04256 0.0
C1006 C 0.39829 0.71232 0.05401 0.0
C1007 C 0.37648 0.71072 0.08325 0.0
H1008 H 0.75595 0.14312 0.79078 0.0
H1009 H 0.67386 0.12662 0.72982 0.0
H1010 H 0.6642 1.08279 0.76969 0.0
H1011 H 0.67834 1.04676 0.82273 0.0
H1012 H 0.76253 1.05994 0.88014 0.0
H1013 H 0.77142 0.10525 0.84213 0.0
C1014 C 0.73591 0.13004 0.78571 0.0
C1015 C 0.71588 0.13958 0.7556 0.0
C1016 C 0.73063 0.10313 0.80887 0.0
C1017 C 0.69029 0.12098 0.75133 0.0
C1018 C 0.68456 1.09538 0.77471 0.0
C1019 C 0.69885 1.05925 0.82714 0.0
C1020 C 0.7196 1.04847 0.85566 0.0
C1021 C 0.70449 1.08577 0.80367 0.0
C1022 C 0.74581 1.06627 0.85928 0.0
C1023 C 0.75098 1.09279 0.83712 0.0
H1024 H 0.58165 0.17844 0.85488 0.0
H1025 H 0.61066 0.26493 0.89578 0.0
H1026 H 0.63957 0.27281 0.83827 0.0
H1027 H 0.6567 0.25421 0.77719 0.0
H1028 H 0.62671 0.16748 0.73759 0.0
H1029 H 0.59683 0.16094 0.79387 0.0
C1030 C 0.59375 0.19934 0.85086 0.0
C1031 C 0.59379 0.22133 0.87886 0.0
C1032 C 0.60977 0.20368 0.81812 0.0
C1033 C 0.61041 0.2478 0.87422 0.0
C1034 C 0.62672 0.25232 0.84146 0.0
C1035 C 0.6433 0.23409 0.78078 0.0
C1036 C 0.64367 0.21135 0.7536 0.0
C1037 C 0.62653 0.23033 0.8133 0.0
C1038 C 0.62654 0.18526 0.75832 0.0
C1039 C 0.60962 0.18145 0.79043 0.0
H1040 H 0.76676 0.82328 0.09836 0.0
H1041 H 0.6898 0.86331 0.15128 0.0
H1042 H 0.67968 0.89361 0.09466 0.0
H1043 H 0.69615 0.91176 0.03269 0.0
H1044 H 0.77586 0.87353 0.98344 0.0
H1045 H 0.78187 0.83956 0.03663 0.0
C1046 C 0.74774 0.83863 0.09738 0.0
C1047 C 0.72932 0.84168 0.12865 0.0
C1048 C 0.7428 0.85633 0.06573 0.0
C1049 C 0.70425 0.86087 0.12718 0.0
C1050 C 0.69863 0.87823 0.09508 0.0
C1051 C 0.71452 0.89565 0.03353 0.0
C1052 C 0.73555 0.89498 0.00457 0.0
C1053 C 0.71823 0.87661 0.06456 0.0
C1054 C 0.75945 0.87435 0.00568 0.0
C1055 C 0.76293 0.85495 0.03597 0.0
H1056 H 1.08744 0.98106 0.23803 0.0
H1057 H 1.00725 0.96491 0.30185 0.0
H1058 H 1.03573 0.96832 0.36038 0.0
H1059 H 1.08271 0.97818 0.39322 0.0
H1060 H 0.16276 0.99679 0.3305 0.0
H1061 H 0.13504 0.99023 0.27135 0.0
C1062 C 1.0764 0.97799 0.26478 0.0
C1063 C 1.04552 0.97273 0.2659 0.0
C1064 C 1.09278 0.98052 0.2983 0.0
C1065 C 1.03114 0.96908 0.30055 0.0
C1066 C 1.04733 0.971 0.33395 0.0
C1067 C 1.09413 0.98024 0.36654 0.0
C1068 C 0.12457 0.9876 0.36576 0.0
C1069 C 1.07805 0.97698 0.3331 0.0
C1070 C 0.1392 0.99104 0.33133 0.0
C1071 C 0.12343 0.9873 0.29771 0.0
H1072 H 0.9209 0.31558 0.50808 0.0
H1073 H 1.01205 0.28681 0.52928 0.0
H1074 H 1.01331 0.31612 0.58733 0.0
H1075 H 0.98715 0.34774 0.63335 0.0
H1076 H 0.89621 0.37663 0.61048 0.0
H1077 H 0.89611 0.3491 0.55153 0.0
C1078 C 0.94114 0.316 0.5252 0.0
C1079 C 0.96629 0.29931 0.51469 0.0
C1080 C 0.94165 0.33267 0.5582 0.0
C1081 C 0.99242 0.29975 0.53702 0.0
C1082 C 0.99313 0.31638 0.57013 0.0
C1083 C 0.96758 0.34841 0.61504 0.0
C1084 C 0.94163 0.36382 0.62615 0.0
C1085 C 0.96773 0.3327 0.58113 0.0
C1086 C 0.91624 0.3644 0.60258 0.0
C1087 C 0.91619 0.34883 0.56891 0.0
H1088 H 0.58794 0.97858 0.11675 0.0
H1089 H 0.66791 0.99999 0.1797 0.0
H1090 H 0.64101 0.99254 0.23881 0.0
H1091 H 0.5939 0.98222 0.27202 0.0
H1092 H 0.51343 0.96482 0.20766 0.0
H1093 H 0.54144 0.96791 0.14943 0.0
C1094 C 0.59952 0.9811 0.14349 0.0
C1095 C 0.62972 0.98948 0.14432 0.0
C1096 C 0.58384 0.97751 0.17689 0.0
C1097 C 0.64456 0.99345 0.17882 0.0
C1098 C 0.62923 0.9892 0.21242 0.0
C1099 C 0.5827 0.9788 0.24522 0.0
C1100 C 0.55185 0.97312 0.24393 0.0
C1101 C 0.59877 0.98155 0.21176 0.0
C1102 C 0.53729 0.96907 0.20918 0.0
C1103 C 0.55322 0.97092 0.17591 0.0
H1104 H 0.42195 0.35309 0.89222 0.0
H1105 H 0.51765 0.35943 0.87742 0.0
H1106 H 0.52593 0.32842 0.93371 0.0
H1107 H 0.5055 0.30118 0.9879 0.0
H1108 H 0.40964 0.298 0.00343 0.0
H1109 H 0.40175 0.32701 0.94594 0.0
C1110 C 0.44466 0.34822 0.90172 0.0
C1111 C 0.46918 0.35888 0.88147 0.0
C1112 C 0.44913 0.33123 0.93407 0.0
C1113 C 0.49848 0.35144 0.89297 0.0
C1114 C 0.50319 0.33389 0.92505 0.0
C1115 C 0.48296 0.307 0.97862 0.0
C1116 C 0.45818 0.29794 0.99961 0.0
C1117 C 0.47863 0.32394 0.94594 0.0
C1118 C 0.429 0.30526 0.98767 0.0
C1119 C 0.42447 0.32165 0.95486 0.0
H1120 H 0.17888 0.2235 0.71231 0.0
H1121 H 0.10557 0.21703 0.79018 0.0
H1122 H 1.0702 0.21109 0.73781 0.0
H1123 H 1.06069 0.20662 0.67008 0.0
H1124 H 0.13418 0.21362 0.5927 0.0
H1125 H 0.16927 0.22078 0.64498 0.0
C1126 C 0.15514 0.22083 0.71778 0.0
C1127 C 0.14467 0.22045 0.75474 0.0
C1128 C 0.13517 0.21763 0.6878 0.0
C1129 C 0.11396 0.21732 0.76173 0.0
C1130 C 1.09382 0.2139 0.73192 0.0
C1131 C 1.0844 0.20976 0.6649 0.0
C1132 C 1.0951 0.20959 0.62807 0.0
C1133 C 0.10426 0.21384 0.69491 0.0
C1134 C 0.12567 0.21396 0.62111 0.0
C1135 C 0.14565 0.21788 0.65085 0.0
H1136 H 0.23523 0.93114 0.4639 0.0
H1137 H 0.22505 0.85346 0.53587 0.0
H1138 H 0.22723 0.82037 0.481 0.0
H1139 H 0.23364 0.81389 0.41301 0.0
H1140 H 0.24444 0.89195 0.34191 0.0
H1141 H 0.24002 0.9249 0.39634 0.0
C1142 C 0.23348 0.90695 0.46763 0.0
C1143 C 0.23031 0.89457 0.50371 0.0
C1144 C 0.23473 0.88833 0.43626 0.0
C1145 C 0.22771 0.86332 0.50822 0.0
C1146 C 0.22893 0.8445 0.47697 0.0
C1147 C 0.23497 0.83813 0.40959 0.0
C1148 C 0.23941 0.85063 0.37382 0.0
C1149 C 0.2327 0.85679 0.44094 0.0
C1150 C 0.24073 0.88199 0.3693 0.0
C1151 C 0.23842 0.90075 0.40034 0.0
H1152 H 1.09232 0.67274 0.36572 0.0
H1153 H 1.09847 0.76784 0.38855 0.0
H1154 H 0.12828 0.77494 0.33166 0.0
H1155 H 0.15161 0.75366 0.27507 0.0
H1156 H 0.143 0.65857 0.25263 0.0
H1157 H 0.11426 0.65194 0.30978 0.0
C1158 C 1.09967 0.69514 0.35789 0.0
C1159 C 1.0929 0.71981 0.38064 0.0
C1160 C 0.11613 0.699 0.32535 0.0
C1161 C 0.10347 0.74856 0.37113 0.0
C1162 C 0.12034 0.75261 0.33869 0.0
C1163 C 0.1433 0.73158 0.28279 0.0
C1164 C 0.14905 0.70666 0.2599 0.0
C1165 C 0.12666 0.72795 0.31554 0.0
C1166 C 0.13843 0.67809 0.26986 0.0
C1167 C 0.12216 0.67424 0.30249 0.0
H1168 H 0.22158 0.3634 0.63716 0.0
H1169 H 0.24853 0.28401 0.57676 0.0
H1170 H 0.24196 0.31092 0.5169 0.0
H1171 H 0.23172 0.35817 0.48265 0.0
H1172 H 0.20801 0.43796 0.54468 0.0
H1173 H 0.20959 0.40959 0.60335 0.0
C1174 C 0.22535 0.35186 0.61079 0.0
C1175 C 0.23516 0.3219 0.61088 0.0
C1176 C 0.2222 0.36753 0.57705 0.0
C1177 C 0.24086 0.30718 0.5769 0.0
C1178 C 0.23712 0.3225 0.54289 0.0
C1179 C 0.22649 0.36905 0.50902 0.0
C1180 C 0.21994 0.39985 0.50976 0.0
C1181 C 0.22823 0.35281 0.54271 0.0
C1182 C 0.21334 0.41413 0.54383 0.0
C1183 C 0.21424 0.39801 0.57728 0.0
H1184 H 0.52076 0.48325 0.79638 0.0
H1185 H 0.59541 0.48012 0.72017 0.0
H1186 H 0.63044 0.48541 0.77303 0.0
H1187 H 0.63946 0.49173 0.84067 0.0
H1188 H 0.56453 0.49478 0.91633 0.0
H1189 H 0.52969 0.48843 0.86365 0.0
C1190 C 0.54471 0.48367 0.79133 0.0
C1191 C 0.55563 0.48148 0.75461 0.0
C1192 C 0.5645 0.48663 0.82161 0.0
C1193 C 0.58662 0.48187 0.74834 0.0
C1194 C 0.60658 0.4849 0.77845 0.0
C1195 C 0.61548 0.49104 0.84543 0.0
C1196 C 0.60439 0.49373 0.88197 0.0
C1197 C 0.59572 0.48745 0.81513 0.0
C1198 C 0.57341 0.49245 0.88826 0.0
C1199 C 0.55356 0.48899 0.85824 0.0
H1200 H 0.50106 0.79104 0.03224 0.0
H1201 H 0.41631 0.8242 0.98886 0.0
H1202 H 0.41122 0.85725 0.04273 0.0
H1203 H 0.42897 0.87402 0.10344 0.0
H1204 H 0.51127 0.83841 0.15052 0.0
H1205 H 0.51987 0.80946 0.09307 0.0
C1206 C 0.48175 0.80586 0.03445 0.0
C1207 C 0.45909 0.80539 0.00694 0.0
C1208 C 0.47864 0.82426 0.06586 0.0
C1209 C 0.434 0.82434 0.0099 0.0
C1210 C 0.43106 0.84318 0.04059 0.0
C1211 C 0.44879 0.85991 0.10105 0.0
C1212 C 0.46921 0.85777 0.13096 0.0
C1213 C 0.45295 0.84286 0.06893 0.0
C1214 C 0.49527 0.84021 0.12753 0.0
C1215 C 0.50006 0.82359 0.09495 0.0
H1216 H 1.08116 0.47737 0.61675 0.0
H1217 H 0.16401 0.49653 0.67475 0.0
H1218 H 0.13914 0.4903 0.73552 0.0
H1219 H 1.09294 0.48191 0.77145 0.0
H1220 H 1.00965 0.46743 0.71173 0.0
H1221 H 1.03561 0.46891 0.65201 0.0
C1222 C 1.09379 0.47959 0.6428 0.0
C1223 C 0.12419 0.48693 0.64187 0.0
C1224 C 1.07927 0.4769 0.67705 0.0
C1225 C 0.14048 0.49065 0.67536 0.0
C1226 C 0.12631 0.48716 0.70986 0.0
C1227 C 1.08069 0.4788 0.74532 0.0
C1228 C 1.04966 0.47434 0.74573 0.0
C1229 C 1.0956 0.48065 0.71099 0.0
C1230 C 1.03369 0.4707 0.71189 0.0
C1231 C 1.04843 0.47161 0.67778 0.0
H1232 H 0.96689 0.88646 0.41284 0.0
H1233 H 0.94081 0.80852 0.34857 0.0
H1234 H 0.94811 0.7764 0.40363 0.0
H1235 H 0.96058 0.77083 0.4696 0.0
H1236 H 0.98535 0.84823 0.53563 0.0
H1237 H 0.97985 0.88059 0.47989 0.0
C1238 C 0.96278 0.86245 0.4111 0.0
C1239 C 0.95347 0.8497 0.37699 0.0
C1240 C 0.96674 0.84423 0.44289 0.0
C1241 C 0.94841 0.81861 0.3746 0.0
C1242 C 0.95241 0.80033 0.40601 0.0
C1243 C 0.96483 0.79479 0.4719 0.0
C1244 C 0.97313 0.80733 0.50651 0.0
C1245 C 0.96142 0.81296 0.44021 0.0
C1246 C 0.9787 0.83829 0.50913 0.0
C1247 C 0.9756 0.85668 0.47739 0.0
H1248 H 0.56349 0.72419 0.16468 0.0
H1249 H 0.63456 0.68599 0.09837 0.0
H1250 H 0.66982 0.69223 0.15046 0.0
H1251 H 0.67981 0.70647 0.21511 0.0
H1252 H 0.60911 0.74355 0.28295 0.0
H1253 H 0.57417 0.74032 0.22956 0.0
C1254 C 0.5868 0.71764 0.16164 0.0
C1255 C 0.59652 0.70446 0.12812 0.0
C1256 C 0.60684 0.72105 0.19178 0.0
C1257 C 0.62663 0.69579 0.12428 0.0
C1258 C 0.64676 0.69944 0.1539 0.0
C1259 C 0.65679 0.71399 0.21819 0.0
C1260 C 0.64683 0.725 0.25275 0.0
C1261 C 0.63699 0.71166 0.18785 0.0
C1262 C 0.61704 0.73472 0.25651 0.0
C1263 C 0.59716 0.73291 0.22608 0.0
H1264 H 0.6955 0.39033 0.99332 0.0
H1265 H 0.79058 0.40815 0.99331 0.0
H1266 H 0.7968 0.37717 0.93786 0.0
H1267 H 0.77591 0.34423 0.89122 0.0
H1268 H 0.68194 0.32172 0.89247 0.0
H1269 H 0.67425 0.35606 0.94538 0.0
C1270 C 0.71743 0.38735 0.98089 0.0
C1271 C 0.7426 0.40101 0.99707 0.0
C1272 C 0.721 0.36883 0.94958 0.0
C1273 C 0.77103 0.39733 0.98126 0.0
C1274 C 0.7746 0.37977 0.94962 0.0
C1275 C 0.75382 0.3463 0.90351 0.0
C1276 C 0.72972 0.32998 0.88887 0.0
C1277 C 0.74986 0.36512 0.93402 0.0
C1278 C 0.70091 0.33395 0.90376 0.0
C1279 C 0.69654 0.35345 0.93393 0.0
H1280 H 0.30448 0.29102 0.15996 0.0
H1281 H 0.33677 0.24923 0.26242 0.0
H1282 H 0.29533 0.27068 0.29681 0.0
H1283 H 0.26145 0.31286 0.30099 0.0
H1284 H 0.23554 0.36246 0.2014 0.0
H1285 H 0.26221 0.3262 0.16241 0.0
C1286 C 0.30171 0.28589 0.18955 0.0
C1287 C 0.32384 0.2693 0.20884 0.0
C1288 C 0.27914 0.30018 0.20975 0.0
C1289 C 0.31996 0.26199 0.24691 0.0
C1290 C 0.29643 0.27457 0.26676 0.0
C1291 C 0.26017 0.31483 0.27061 0.0
C1292 C 0.24736 0.34054 0.25394 0.0
C1293 C 0.27738 0.29542 0.24899 0.0
C1294 C 0.2458 0.34292 0.21464 0.0
C1295 C 0.26133 0.32243 0.19248 0.0
H1296 H 0.60358 0.7089 0.5416 0.0
H1297 H 0.55452 0.68138 0.44272 0.0
H1298 H 0.51425 0.66231 0.48158 0.0
H1299 H 0.50194 0.64034 0.54135 0.0
H1300 H 0.55537 0.65963 0.63995 0.0
H1301 H 0.58512 0.69529 0.60372 0.0
C1302 C 0.58346 0.69973 0.52877 0.0
C1303 C 0.5821 0.69572 0.48978 0.0
C1304 C 0.56162 0.68678 0.55131 0.0
C1305 C 0.55596 0.68451 0.47285 0.0
C1306 C 0.53314 0.67325 0.49507 0.0
C1307 C 0.51895 0.65356 0.55559 0.0
C1308 C 0.52686 0.64718 0.59305 0.0
C1309 C 0.53691 0.67232 0.53417 0.0
C1310 C 0.54923 0.66412 0.61094 0.0
C1311 C 0.56633 0.68425 0.59018 0.0
H1312 H 0.28789 0.8014 0.69144 0.0
H1313 H 0.35246 0.82098 0.60552 0.0
H1314 H 0.38315 0.7781 0.62611 0.0
H1315 H 0.39735 0.74549 0.67867 0.0
H1316 H 0.33686 0.73536 0.77177 0.0
H1317 H 0.29793 0.76195 0.73716 0.0
C1318 C 0.30795 0.79532 0.67612 0.0
C1319 C 0.31831 0.81418 0.64747 0.0
C1320 C 0.32623 0.77213 0.6897 0.0
C1321 C 0.34444 0.80664 0.62795 0.0
C1322 C 0.36194 0.78228 0.63982 0.0
C1323 C 0.37521 0.74815 0.69065 0.0
C1324 C 0.37038 0.7395 0.72807 0.0
C1325 C 0.35401 0.76629 0.67226 0.0
C1326 C 0.34141 0.74201 0.74308 0.0
C1327 C 0.3192 0.75782 0.72357 0.0
H1328 H 0.13445 0.70719 0.94508 0.0
H1329 H 0.20927 0.64704 0.9274 0.0
H1330 H 0.17876 0.61708 0.8846 0.0
H1331 H 0.12775 0.6005 0.86978 0.0
H1332 H 1.05286 0.65956 0.89111 0.0
H1333 H 1.08687 0.6982 0.91421 0.0
C1334 C 0.14483 0.68861 0.93034 0.0
C1335 C 0.17367 0.67851 0.94072 0.0
C1336 C 0.12686 0.67094 0.90707 0.0
C1337 C 0.1867 0.6546 0.92078 0.0
C1338 C 0.1692 0.63733 0.89655 0.0
C1339 C 0.11905 0.62244 0.87759 0.0
C1340 C 1.088 0.62711 0.88 0.0
C1341 C 0.13864 0.644 0.89205 0.0
C1342 C 1.07681 0.6555 0.88997 0.0
C1343 C 1.09621 0.67746 0.90331 0.0
H1344 H 0.84574 0.97097 0.723 0.0
H1345 H 0.7679 0.9224 0.68396 0.0
H1346 H 0.79865 0.89369 0.6414 0.0
H1347 H 0.84773 0.87157 0.63174 0.0
H1348 H 0.92587 0.91172 0.68243 0.0
H1349 H 0.89546 0.9539 0.7046 0.0
C1350 C 0.83547 0.95467 0.70435 0.0
C1351 C 0.80485 0.94811 0.70776 0.0
C1352 C 0.85369 0.9359 0.68293 0.0
C1353 C 0.79147 0.92791 0.68236 0.0
C1354 C 0.80917 0.91095 0.65837 0.0
C1355 C 0.85827 0.89034 0.64605 0.0
C1356 C 0.88868 0.88875 0.6559 0.0
C1357 C 0.8404 0.91311 0.66082 0.0
C1358 C 0.9023 0.91272 0.6749 0.0
C1359 C 0.88491 0.93664 0.68768 0.0
H1360 H 0.76913 0.41808 0.31757 0.0
H1361 H 0.83971 0.48222 0.29776 0.0
H1362 H 0.87387 0.45232 0.33687 0.0
H1363 H 0.8865 0.40149 0.35896 0.0
H1364 H 0.81671 0.3356 0.37163 0.0
H1365 H 0.7789 0.37305 0.35389 0.0
C1366 C 0.79143 0.4266 0.32337 0.0
C1367 C 0.80225 0.45176 0.3037 0.0
C1368 C 0.81122 0.40848 0.34397 0.0
C1369 C 0.83117 0.46243 0.31189 0.0
C1370 C 0.85077 0.44519 0.33394 0.0
C1371 C 0.86285 0.39589 0.35953 0.0
C1372 C 0.85411 0.36606 0.36558 0.0
C1373 C 0.8416 0.41707 0.34748 0.0
C1374 C 0.82363 0.35858 0.36634 0.0
C1375 C 0.80214 0.3799 0.35607 0.0
H1376 H 0.14818 0.17237 0.04981 0.0
H1377 H 0.19161 1.08605 0.03911 0.0
H1378 H 0.16601 1.06779 0.09521 0.0
H1379 H 0.1216 1.0724 0.13348 0.0
H1380 H 1.07153 0.15562 0.13495 0.0
H1381 H 0.11015 0.18004 0.09756 0.0
C1382 C 0.15274 0.14996 0.06088 0.0
C1383 C 0.17098 0.13015 0.04078 0.0
C1384 C 0.13665 0.13933 0.09138 0.0
C1385 C 0.17736 1.10132 0.05463 0.0
C1386 C 0.16262 1.09095 0.08639 0.0
C1387 C 0.12009 1.09636 0.1275 0.0
C1388 C 1.09384 0.11231 0.13615 0.0
C1389 C 0.1408 0.10916 0.1033 0.0
C1390 C 1.09172 0.14317 0.12825 0.0
C1391 C 0.11349 0.15686 0.10638 0.0
H1392 H 0.72012 0.11375 0.45928 0.0
H1393 H 0.67101 0.19469 0.43007 0.0
H1394 H 0.64149 0.16719 0.38462 0.0
H1395 H 0.61904 0.11886 0.36994 0.0
H1396 H 0.65991 1.03717 0.41207 0.0
H1397 H 0.70282 1.06551 0.43533 0.0
C1398 C 0.70359 0.12547 0.44203 0.0
C1399 C 0.69707 0.15586 0.44913 0.0
C1400 C 0.68442 0.10892 0.41891 0.0
C1401 C 0.67649 0.17121 0.42561 0.0
C1402 C 0.65908 0.15534 0.39995 0.0
C1403 C 0.63794 0.10731 0.38307 0.0
C1404 C 0.63626 1.07637 0.39029 0.0
C1405 C 0.66118 0.12394 0.39891 0.0
C1406 C 0.66083 1.06114 0.40648 0.0
C1407 C 0.6852 1.07738 0.42012 0.0
loop_
_geom_bond_atom_site_label_1
_geom_bond_atom_site_label_2
_geom_bond_distance
_geom_bond_site_symmetry_2
_ccdc_geom_bond_type
Pr0 C2 2.880 . S
Pr0 O20 2.562 . S
Pr0 O21 2.490 . S
Pr0 O22 2.695 1_556 S
Pr0 O23 2.512 1_556 S
Pr0 O25 2.437 1_556 S
Pr0 O28 2.436 . S
Pr0 O30 2.438 . S
Pr1 C11 2.880 . S
Pr1 O22 2.436 . S
Pr1 O24 2.438 . S
Pr1 O26 2.562 . S
Pr1 O27 2.490 . S
Pr1 O28 2.695 1_554 S
Pr1 O29 2.512 . S
Pr1 O31 2.437 . S
C2 Pr0 2.880 . S
C2 C3 1.491 . S
C2 O20 1.254 . S
C2 O21 1.225 . S
C3 C2 1.491 . S
C3 C4 1.392 . S
C3 C8 1.356 . S
C4 C3 1.392 . S
C4 C5 1.368 . S
C4 H32 0.929 . S
C5 C4 1.368 . S
C5 C6 1.386 . S
C5 H33 0.929 . S
C6 C5 1.386 . S
C6 C7 1.373 . S
C7 C6 1.373 . S
C7 C8 1.409 . S
C7 H34 0.931 . S
C8 C3 1.356 . S
C8 C7 1.409 . S
C8 H35 0.930 . S
C9 O22 1.270 . S
C9 O23 1.248 . S
C10 O24 1.267 . S
C10 O25 1.278 . S
C11 Pr1 2.880 . S
C11 C12 1.491 . S
C11 O26 1.254 . S
C11 O27 1.225 . S
C12 C11 1.491 . S
C12 C13 1.392 . S
C12 C17 1.356 . S
C13 C12 1.392 . S
C13 C14 1.368 . S
C13 H36 0.929 . S
C14 C13 1.368 . S
C14 C15 1.386 . S
C14 H37 0.929 . S
C15 C14 1.386 . S
C15 C16 1.373 . S
C16 C15 1.373 . S
C16 C17 1.409 . S
C16 H38 0.931 . S
C17 C12 1.356 . S
C17 C16 1.409 . S
C17 H39 0.930 . S
C18 O28 1.270 . S
C18 O29 1.248 1_556 S
C19 O30 1.267 1_554 S
C19 O31 1.278 . S
O20 Pr0 2.562 . S
O20 C2 1.254 . S
O21 Pr0 2.490 . S
O21 C2 1.225 . S
O22 Pr0 2.695 1_554 S
O22 Pr1 2.436 . S
O22 C9 1.270 . S
O23 Pr0 2.512 1_554 S
O23 C9 1.248 . S
O24 Pr1 2.438 . S
O24 C10 1.267 . S
O25 Pr0 2.437 1_554 S
O25 C10 1.278 . S
O26 Pr1 2.562 . S
O26 C11 1.254 . S
O27 Pr1 2.490 . S
O27 C11 1.225 . S
O28 Pr0 2.436 . S
O28 Pr1 2.695 1_556 S
O28 C18 1.270 . S
O29 Pr1 2.512 . S
O29 C18 1.248 1_554 S
O30 Pr0 2.438 . S
O30 C19 1.267 1_556 S
O31 Pr1 2.437 . S
O31 C19 1.278 . S
H32 C4 0.929 . S
H33 C5 0.929 . S
H34 C7 0.931 . S
H35 C8 0.930 . S
H36 C13 0.929 . S
H37 C14 0.929 . S
H38 C16 0.931 . S
H39 C17 0.930 . S
Pr40 C42 2.880 . S
Pr40 O60 2.562 . S
Pr40 O61 2.490 . S
Pr40 O62 2.695 . S
Pr40 O63 2.512 . S
Pr40 O65 2.437 . S
Pr40 O68 2.436 . S
Pr40 O70 2.438 . S
Pr41 C51 2.880 . S
Pr41 O62 2.436 . S
Pr41 O64 2.438 . S
Pr41 O66 2.562 . S
Pr41 O67 2.490 . S
Pr41 O68 2.695 . S
Pr41 O69 2.512 . S
Pr41 O71 2.437 . S
C42 Pr40 2.880 . S
C42 C43 1.491 . S
C42 O60 1.254 . S
C42 O61 1.225 . S
C43 C42 1.491 . S
C43 C44 1.392 . S
C43 C48 1.356 . S
C44 C43 1.392 . S
C44 C45 1.368 . S
C44 H72 0.929 . S
C45 C44 1.368 . S
C45 C46 1.386 . S
C45 H73 0.929 . S
C46 C45 1.386 . S
C46 C47 1.373 . S
C47 C46 1.373 . S
C47 C48 1.409 . S
C47 H74 0.931 . S
C48 C43 1.356 . S
C48 C47 1.409 . S
C48 H75 0.930 . S
C49 O62 1.270 . S
C49 O63 1.248 . S
C50 O64 1.267 . S
C50 O65 1.278 . S
C51 Pr41 2.880 . S
C51 C52 1.491 . S
C51 O66 1.254 . S
C51 O67 1.225 . S
C52 C51 1.491 . S
C52 C53 1.392 . S
C52 C57 1.356 . S
C53 C52 1.392 . S
C53 C54 1.368 . S
C53 H76 0.929 . S
C54 C53 1.368 . S
C54 C55 1.386 . S
C54 H77 0.929 . S
C55 C54 1.386 . S
C55 C56 1.373 . S
C56 C55 1.373 . S
C56 C57 1.409 . S
C56 H78 0.931 . S
C57 C52 1.356 . S
C57 C56 1.409 . S
C57 H79 0.930 . S
C58 O68 1.270 . S
C58 O69 1.248 . S
C59 O70 1.267 . S
C59 O71 1.278 . S
O60 Pr40 2.562 . S
O60 C42 1.254 . S
O61 Pr40 2.490 . S
O61 C42 1.225 . S
O62 Pr40 2.695 . S
O62 Pr41 2.436 . S
O62 C49 1.270 . S
O63 Pr40 2.512 . S
O63 C49 1.248 . S
O64 Pr41 2.438 . S
O64 C50 1.267 . S
O65 Pr40 2.437 . S
O65 C50 1.278 . S
O66 Pr41 2.562 . S
O66 C51 1.254 . S
O67 Pr41 2.490 . S
O67 C51 1.225 . S
O68 Pr40 2.436 . S
O68 Pr41 2.695 . S
O68 C58 1.270 . S
O69 Pr41 2.512 . S
O69 C58 1.248 . S
O70 Pr40 2.438 . S
O70 C59 1.267 . S
O71 Pr41 2.437 . S
O71 C59 1.278 . S
H72 C44 0.929 . S
H73 C45 0.929 . S
H74 C47 0.931 . S
H75 C48 0.930 . S
H76 C53 0.929 . S
H77 C54 0.929 . S
H78 C56 0.931 . S
H79 C57 0.930 . S
Pr80 C82 2.880 . S
Pr80 O100 2.562 . S
Pr80 O101 2.490 . S
Pr80 O102 2.695 . S
Pr80 O103 2.512 . S
Pr80 O105 2.437 . S
Pr80 O108 2.436 . S
Pr80 O110 2.438 . S
Pr81 C91 2.880 . S
Pr81 O102 2.436 . S
Pr81 O104 2.438 . S
Pr81 O106 2.562 . S
Pr81 O107 2.490 . S
Pr81 O108 2.695 . S
Pr81 O109 2.512 . S
Pr81 O111 2.437 . S
C82 Pr80 2.880 . S
C82 C83 1.491 . S
C82 O100 1.254 . S
C82 O101 1.225 . S
C83 C82 1.491 . S
C83 C84 1.392 . S
C83 C88 1.356 . S
C84 C83 1.392 . S
C84 C85 1.368 . S
C84 H112 0.929 . S
C85 C84 1.368 . S
C85 C86 1.386 1_455 S
C85 H113 0.921 1_455 S
C86 C85 1.386 1_655 S
C86 C87 1.373 1_655 S
C87 C86 1.373 1_455 S
C87 C88 1.409 . S
C87 H114 0.931 1_455 S
C88 C83 1.356 . S
C88 C87 1.409 . S
C88 H115 0.930 . S
C89 O102 1.270 . S
C89 O103 1.248 . S
C90 O104 1.267 . S
C90 O105 1.278 . S
C91 Pr81 2.880 . S
C91 C92 1.491 . S
C91 O106 1.254 . S
C91 O107 1.225 . S
C92 C91 1.491 . S
C92 C93 1.392 . S
C92 C97 1.356 . S
C93 C92 1.392 . S
C93 C94 1.368 . S
C93 H116 0.929 . S
C94 C93 1.368 . S
C94 C95 1.386 . S
C94 H117 0.929 . S
C95 C94 1.386 . S
C95 C96 1.373 . S
C96 C95 1.373 . S
C96 C97 1.409 . S
C96 H118 0.931 . S
C97 C92 1.356 . S
C97 C96 1.409 . S
C97 H119 0.930 . S
C98 O108 1.270 . S
C98 O109 1.248 . S
C99 O110 1.267 . S
C99 O111 1.278 . S
O100 Pr80 2.562 . S
O100 C82 1.254 . S
O101 Pr80 2.490 . S
O101 C82 1.225 . S
O102 Pr80 2.695 . S
O102 Pr81 2.436 . S
O102 C89 1.270 . S
O103 Pr80 2.512 . S
O103 C89 1.248 . S
O104 Pr81 2.438 . S
O104 C90 1.267 . S
O105 Pr80 2.437 . S
O105 C90 1.278 . S
O106 Pr81 2.562 . S
O106 C91 1.254 . S
O107 Pr81 2.490 . S
O107 C91 1.225 . S
O108 Pr80 2.436 . S
O108 Pr81 2.695 . S
O108 C98 1.270 . S
O109 Pr81 2.512 . S
O109 C98 1.248 . S
O110 Pr80 2.438 . S
O110 C99 1.267 . S
O111 Pr81 2.437 . S
O111 C99 1.278 . S
H112 C84 0.929 . S
H113 C85 0.921 1_655 S
H114 C87 0.931 1_655 S
H115 C88 0.930 . S
H116 C93 0.929 . S
H117 C94 0.929 . S
H118 C96 0.931 . S
H119 C97 0.930 . S
Pr120 C122 2.880 . S
Pr120 O140 2.562 . S
Pr120 O141 2.490 . S
Pr120 O142 2.695 . S
Pr120 O143 2.512 . S
Pr120 O145 2.437 . S
Pr120 O148 2.436 . S
Pr120 O150 2.438 . S
Pr121 C131 2.880 . S
Pr121 O142 2.436 . S
Pr121 O144 2.438 . S
Pr121 O146 2.562 . S
Pr121 O147 2.490 . S
Pr121 O148 2.695 . S
Pr121 O149 2.512 . S
Pr121 O151 2.437 . S
C122 Pr120 2.880 . S
C122 C123 1.491 . S
C122 O140 1.254 . S
C122 O141 1.225 . S
C123 C122 1.491 . S
C123 C124 1.392 . S
C123 C128 1.356 . S
C124 C123 1.392 . S
C124 C125 1.368 . S
C124 H152 0.929 . S
C125 C124 1.368 . S
C125 C126 1.386 . S
C125 H153 0.929 . S
C126 C125 1.386 . S
C126 C127 1.373 . S
C127 C126 1.373 . S
C127 C128 1.409 . S
C127 H154 0.931 . S
C128 C123 1.356 . S
C128 C127 1.409 . S
C128 H155 0.930 . S
C129 O142 1.270 . S
C129 O143 1.248 . S
C130 O144 1.267 . S
C130 O145 1.278 . S
C131 Pr121 2.880 . S
C131 C132 1.491 . S
C131 O146 1.254 . S
C131 O147 1.225 . S
C132 C131 1.491 . S
C132 C133 1.392 . S
C132 C137 1.356 . S
C133 C132 1.392 . S
C133 C134 1.368 . S
C133 H156 0.929 . S
C134 C133 1.368 . S
C134 C135 1.386 . S
C134 H157 0.929 . S
C135 C134 1.386 . S
C135 C136 1.373 . S
C136 C135 1.373 . S
C136 C137 1.409 . S
C136 H158 0.931 . S
C137 C132 1.356 . S
C137 C136 1.409 . S
C137 H159 0.930 . S
C138 O148 1.270 . S
C138 O149 1.248 . S
C139 O150 1.267 . S
C139 O151 1.278 . S
O140 Pr120 2.562 . S
O140 C122 1.254 . S
O141 Pr120 2.490 . S
O141 C122 1.225 . S
O142 Pr120 2.695 . S
O142 Pr121 2.436 . S
O142 C129 1.270 . S
O143 Pr120 2.512 . S
O143 C129 1.248 . S
O144 Pr121 2.438 . S
O144 C130 1.267 . S
O145 Pr120 2.437 . S
O145 C130 1.278 . S
O146 Pr121 2.562 . S
O146 C131 1.254 . S
O147 Pr121 2.490 . S
O147 C131 1.225 . S
O148 Pr120 2.436 . S
O148 Pr121 2.695 . S
O148 C138 1.270 . S
O149 Pr121 2.512 . S
O149 C138 1.248 . S
O150 Pr120 2.438 . S
O150 C139 1.267 . S
O151 Pr121 2.437 . S
O151 C139 1.278 . S
H152 C124 0.929 . S
H153 C125 0.929 . S
H154 C127 0.931 . S
H155 C128 0.930 . S
H156 C133 0.929 . S
H157 C134 0.929 . S
H158 C136 0.931 . S
H159 C137 0.930 . S
Pr160 C162 2.880 . S
Pr160 O180 2.562 . S
Pr160 O181 2.490 . S
Pr160 O182 2.695 1_556 S
Pr160 O183 2.512 . S
Pr160 O185 2.437 . S
Pr160 O188 2.436 . S
Pr160 O190 2.438 . S
Pr161 C171 2.880 . S
Pr161 O182 2.436 . S
Pr161 O184 2.438 . S
Pr161 O186 2.562 . S
Pr161 O187 2.490 . S
Pr161 O188 2.695 1_554 S
Pr161 O189 2.512 1_554 S
Pr161 O191 2.437 1_554 S
C162 Pr160 2.880 . S
C162 C163 1.491 . S
C162 O180 1.254 . S
C162 O181 1.225 . S
C163 C162 1.491 . S
C163 C164 1.392 . S
C163 C168 1.356 . S
C164 C163 1.392 . S
C164 C165 1.368 . S
C164 H192 0.929 . S
C165 C164 1.368 . S
C165 C166 1.386 . S
C165 H193 0.929 . S
C166 C165 1.386 . S
C166 C167 1.373 . S
C167 C166 1.373 . S
C167 C168 1.409 . S
C167 H194 0.931 . S
C168 C163 1.356 . S
C168 C167 1.409 . S
C168 H195 0.930 . S
C169 O182 1.270 . S
C169 O183 1.248 1_554 S
C170 O184 1.267 1_556 S
C170 O185 1.278 . S
C171 Pr161 2.880 . S
C171 C172 1.491 . S
C171 O186 1.254 . S
C171 O187 1.225 . S
C172 C171 1.491 . S
C172 C173 1.392 . S
C172 C177 1.356 . S
C173 C172 1.392 . S
C173 C174 1.368 . S
C173 H196 0.929 . S
C174 C173 1.368 . S
C174 C175 1.386 . S
C174 H197 0.929 . S
C175 C174 1.386 . S
C175 C176 1.373 . S
C176 C175 1.373 . S
C176 C177 1.409 . S
C176 H198 0.931 . S
C177 C172 1.356 . S
C177 C176 1.409 . S
C177 H199 0.930 . S
C178 O188 1.270 . S
C178 O189 1.248 . S
C179 O190 1.267 . S
C179 O191 1.278 . S
O180 Pr160 2.562 . S
O180 C162 1.254 . S
O181 Pr160 2.490 . S
O181 C162 1.225 . S
O182 Pr160 2.695 1_554 S
O182 Pr161 2.436 . S
O182 C169 1.270 . S
O183 Pr160 2.512 . S
O183 C169 1.248 1_556 S
O184 Pr161 2.438 . S
O184 C170 1.267 1_554 S
O185 Pr160 2.437 . S
O185 C170 1.278 . S
O186 Pr161 2.562 . S
O186 C171 1.254 . S
O187 Pr161 2.490 . S
O187 C171 1.225 . S
O188 Pr160 2.436 . S
O188 Pr161 2.695 1_556 S
O188 C178 1.270 . S
O189 Pr161 2.512 1_556 S
O189 C178 1.248 . S
O190 Pr160 2.438 . S
O190 C179 1.267 . S
O191 Pr161 2.437 1_556 S
O191 C179 1.278 . S
H192 C164 0.929 . S
H193 C165 0.929 . S
H194 C167 0.931 . S
H195 C168 0.930 . S
H196 C173 0.929 . S
H197 C174 0.929 . S
H198 C176 0.931 . S
H199 C177 0.930 . S
Pr200 C202 2.880 . S
Pr200 O220 2.562 . S
Pr200 O221 2.490 . S
Pr200 O222 2.695 . S
Pr200 O223 2.512 . S
Pr200 O225 2.437 . S
Pr200 O228 2.436 . S
Pr200 O230 2.438 . S
Pr201 C211 2.880 . S
Pr201 O222 2.436 . S
Pr201 O224 2.438 . S
Pr201 O226 2.562 . S
Pr201 O227 2.490 . S
Pr201 O228 2.695 . S
Pr201 O229 2.512 . S
Pr201 O231 2.437 . S
C202 Pr200 2.880 . S
C202 C203 1.491 . S
C202 O220 1.254 . S
C202 O221 1.225 . S
C203 C202 1.491 . S
C203 C204 1.392 . S
C203 C208 1.356 . S
C204 C203 1.392 . S
C204 C205 1.368 . S
C204 H232 0.929 . S
C205 C204 1.368 . S
C205 C206 1.386 . S
C205 H233 0.929 . S
C206 C205 1.386 . S
C206 C207 1.373 . S
C207 C206 1.373 . S
C207 C208 1.409 . S
C207 H234 0.931 . S
C208 C203 1.356 . S
C208 C207 1.409 . S
C208 H235 0.930 . S
C209 O222 1.270 . S
C209 O223 1.248 . S
C210 O224 1.267 . S
C210 O225 1.278 . S
C211 Pr201 2.880 . S
C211 C212 1.491 . S
C211 O226 1.254 . S
C211 O227 1.225 . S
C212 C211 1.491 . S
C212 C213 1.392 . S
C212 C217 1.356 . S
C213 C212 1.392 . S
C213 C214 1.368 . S
C213 H236 0.929 . S
C214 C213 1.368 . S
C214 C215 1.386 . S
C214 H237 0.929 . S
C215 C214 1.386 . S
C215 C216 1.373 . S
C216 C215 1.373 . S
C216 C217 1.409 . S
C216 H238 0.931 . S
C217 C212 1.356 . S
C217 C216 1.409 . S
C217 H239 0.930 . S
C218 O228 1.270 . S
C218 O229 1.248 . S
C219 O230 1.267 . S
C219 O231 1.278 . S
O220 Pr200 2.562 . S
O220 C202 1.254 . S
O221 Pr200 2.490 . S
O221 C202 1.225 . S
O222 Pr200 2.695 . S
O222 Pr201 2.436 . S
O222 C209 1.270 . S
O223 Pr200 2.512 . S
O223 C209 1.248 . S
O224 Pr201 2.438 . S
O224 C210 1.267 . S
O225 Pr200 2.437 . S
O225 C210 1.278 . S
O226 Pr201 2.562 . S
O226 C211 1.254 . S
O227 Pr201 2.490 . S
O227 C211 1.225 . S
O228 Pr200 2.436 . S
O228 Pr201 2.695 . S
O228 C218 1.270 . S
O229 Pr201 2.512 . S
O229 C218 1.248 . S
O230 Pr200 2.438 . S
O230 C219 1.267 . S
O231 Pr201 2.437 . S
O231 C219 1.278 . S
H232 C204 0.929 . S
H233 C205 0.929 . S
H234 C207 0.931 . S
H235 C208 0.930 . S
H236 C213 0.929 . S
H237 C214 0.929 . S
H238 C216 0.931 . S
H239 C217 0.930 . S
Pr240 C242 2.880 . S
Pr240 O260 2.562 . S
Pr240 O261 2.490 . S
Pr240 O262 2.695 . S
Pr240 O263 2.512 . S
Pr240 O265 2.437 . S
Pr240 O268 2.436 . S
Pr240 O270 2.438 . S
Pr241 C251 2.880 . S
Pr241 O262 2.436 . S
Pr241 O264 2.438 . S
Pr241 O266 2.562 . S
Pr241 O267 2.490 . S
Pr241 O268 2.695 . S
Pr241 O269 2.512 . S
Pr241 O271 2.437 . S
C242 Pr240 2.880 . S
C242 C243 1.491 . S
C242 O260 1.254 . S
C242 O261 1.225 . S
C243 C242 1.491 . S
C243 C244 1.392 . S
C243 C248 1.356 . S
C244 C243 1.392 . S
C244 C245 1.368 . S
C244 H272 0.929 . S
C245 C244 1.368 . S
C245 C246 1.386 . S
C245 H273 0.929 . S
C246 C245 1.386 . S
C246 C247 1.373 . S
C247 C246 1.373 . S
C247 C248 1.409 . S
C247 H274 0.931 . S
C248 C243 1.356 . S
C248 C247 1.409 . S
C248 H275 0.930 . S
C249 O262 1.270 . S
C249 O263 1.248 . S
C250 O264 1.267 . S
C250 O265 1.278 . S
C251 Pr241 2.880 . S
C251 C252 1.491 . S
C251 O266 1.254 . S
C251 O267 1.225 . S
C252 C251 1.491 . S
C252 C253 1.392 . S
C252 C257 1.356 . S
C253 C252 1.392 . S
C253 C254 1.368 . S
C253 H276 0.929 . S
C254 C253 1.368 . S
C254 C255 1.386 1_655 S
C254 H277 0.921 1_655 S
C255 C254 1.386 1_455 S
C255 C256 1.373 1_455 S
C256 C255 1.373 1_655 S
C256 C257 1.409 . S
C256 H278 0.931 1_655 S
C257 C252 1.356 . S
C257 C256 1.409 . S
C257 H279 0.930 . S
C258 O268 1.270 . S
C258 O269 1.248 . S
C259 O270 1.267 . S
C259 O271 1.278 . S
O260 Pr240 2.562 . S
O260 C242 1.254 . S
O261 Pr240 2.490 . S
O261 C242 1.225 . S
O262 Pr240 2.695 . S
O262 Pr241 2.436 . S
O262 C249 1.270 . S
O263 Pr240 2.512 . S
O263 C249 1.248 . S
O264 Pr241 2.438 . S
O264 C250 1.267 . S
O265 Pr240 2.437 . S
O265 C250 1.278 . S
O266 Pr241 2.562 . S
O266 C251 1.254 . S
O267 Pr241 2.490 . S
O267 C251 1.225 . S
O268 Pr240 2.436 . S
O268 Pr241 2.695 . S
O268 C258 1.270 . S
O269 Pr241 2.512 . S
O269 C258 1.248 . S
O270 Pr240 2.438 . S
O270 C259 1.267 . S
O271 Pr241 2.437 . S
O271 C259 1.278 . S
H272 C244 0.929 . S
H273 C245 0.929 . S
H274 C247 0.931 . S
H275 C248 0.930 . S
H276 C253 0.929 . S
H277 C254 0.921 1_455 S
H278 C256 0.931 1_455 S
H279 C257 0.930 . S
Pr280 C282 2.880 . S
Pr280 O300 2.562 . S
Pr280 O301 2.490 . S
Pr280 O302 2.695 . S
Pr280 O303 2.512 . S
Pr280 O305 2.437 . S
Pr280 O308 2.436 . S
Pr280 O310 2.438 . S
Pr281 C291 2.880 . S
Pr281 O302 2.436 . S
Pr281 O304 2.438 . S
Pr281 O306 2.562 . S
Pr281 O307 2.490 . S
Pr281 O308 2.695 . S
Pr281 O309 2.512 . S
Pr281 O311 2.437 . S
C282 Pr280 2.880 . S
C282 C283 1.491 . S
C282 O300 1.254 . S
C282 O301 1.225 . S
C283 C282 1.491 . S
C283 C284 1.392 . S
C283 C288 1.356 . S
C284 C283 1.392 . S
C284 C285 1.368 . S
C284 H312 0.929 . S
C285 C284 1.368 . S
C285 C286 1.386 . S
C285 H313 0.929 . S
C286 C285 1.386 . S
C286 C287 1.373 . S
C287 C286 1.373 . S
C287 C288 1.409 . S
C287 H314 0.931 . S
C288 C283 1.356 . S
C288 C287 1.409 . S
C288 H315 0.930 . S
C289 O302 1.270 . S
C289 O303 1.248 . S
C290 O304 1.267 . S
C290 O305 1.278 . S
C291 Pr281 2.880 . S
C291 C292 1.491 . S
C291 O306 1.254 . S
C291 O307 1.225 . S
C292 C291 1.491 . S
C292 C293 1.392 . S
C292 C297 1.356 . S
C293 C292 1.392 . S
C293 C294 1.368 . S
C293 H316 0.929 . S
C294 C293 1.368 . S
C294 C295 1.386 . S
C294 H317 0.929 . S
C295 C294 1.386 . S
C295 C296 1.373 . S
C296 C295 1.373 . S
C296 C297 1.409 . S
C296 H318 0.931 . S
C297 C292 1.356 . S
C297 C296 1.409 . S
C297 H319 0.930 . S
C298 O308 1.270 . S
C298 O309 1.248 . S
C299 O310 1.267 . S
C299 O311 1.278 . S
O300 Pr280 2.562 . S
O300 C282 1.254 . S
O301 Pr280 2.490 . S
O301 C282 1.225 . S
O302 Pr280 2.695 . S
O302 Pr281 2.436 . S
O302 C289 1.270 . S
O303 Pr280 2.512 . S
O303 C289 1.248 . S
O304 Pr281 2.438 . S
O304 C290 1.267 . S
O305 Pr280 2.437 . S
O305 C290 1.278 . S
O306 Pr281 2.562 . S
O306 C291 1.254 . S
O307 Pr281 2.490 . S
O307 C291 1.225 . S
O308 Pr280 2.436 . S
O308 Pr281 2.695 . S
O308 C298 1.270 . S
O309 Pr281 2.512 . S
O309 C298 1.248 . S
O310 Pr280 2.438 . S
O310 C299 1.267 . S
O311 Pr281 2.437 . S
O311 C299 1.278 . S
H312 C284 0.929 . S
H313 C285 0.929 . S
H314 C287 0.931 . S
H315 C288 0.930 . S
H316 C293 0.929 . S
H317 C294 0.929 . S
H318 C296 0.931 . S
H319 C297 0.930 . S
Pr320 C322 2.880 . S
Pr320 O340 2.562 . S
Pr320 O341 2.490 . S
Pr320 O342 2.695 . S
Pr320 O343 2.512 . S
Pr320 O345 2.437 . S
Pr320 O348 2.436 . S
Pr320 O350 2.438 . S
Pr321 C331 2.880 . S
Pr321 O342 2.436 . S
Pr321 O344 2.438 . S
Pr321 O346 2.562 . S
Pr321 O347 2.490 . S
Pr321 O348 2.695 . S
Pr321 O349 2.512 . S
Pr321 O351 2.437 . S
C322 Pr320 2.880 . S
C322 C323 1.491 . S
C322 O340 1.254 . S
C322 O341 1.225 . S
C323 C322 1.491 . S
C323 C324 1.392 . S
C323 C328 1.356 . S
C324 C323 1.392 . S
C324 C325 1.368 . S
C324 H352 0.929 . S
C325 C324 1.368 . S
C325 C326 1.386 1_655 S
C325 H353 0.921 1_655 S
C326 C325 1.386 1_455 S
C326 C327 1.373 1_455 S
C327 C326 1.373 1_655 S
C327 C328 1.409 . S
C327 H354 0.931 1_655 S
C328 C323 1.356 . S
C328 C327 1.409 . S
C328 H355 0.930 . S
C329 O342 1.270 . S
C329 O343 1.248 . S
C330 O344 1.267 . S
C330 O345 1.278 . S
C331 Pr321 2.880 . S
C331 C332 1.491 . S
C331 O346 1.254 . S
C331 O347 1.225 . S
C332 C331 1.491 . S
C332 C333 1.392 . S
C332 C337 1.356 . S
C333 C332 1.392 . S
C333 C334 1.368 . S
C333 H356 0.929 . S
C334 C333 1.368 . S
C334 C335 1.386 . S
C334 H357 0.929 . S
C335 C334 1.386 . S
C335 C336 1.373 . S
C336 C335 1.373 . S
C336 C337 1.409 . S
C336 H358 0.931 . S
C337 C332 1.356 . S
C337 C336 1.409 . S
C337 H359 0.930 . S
C338 O348 1.270 . S
C338 O349 1.248 . S
C339 O350 1.267 . S
C339 O351 1.278 . S
O340 Pr320 2.562 . S
O340 C322 1.254 . S
O341 Pr320 2.490 . S
O341 C322 1.225 . S
O342 Pr320 2.695 . S
O342 Pr321 2.436 . S
O342 C329 1.270 . S
O343 Pr320 2.512 . S
O343 C329 1.248 . S
O344 Pr321 2.438 . S
O344 C330 1.267 . S
O345 Pr320 2.437 . S
O345 C330 1.278 . S
O346 Pr321 2.562 . S
O346 C331 1.254 . S
O347 Pr321 2.490 . S
O347 C331 1.225 . S
O348 Pr320 2.436 . S
O348 Pr321 2.695 . S
O348 C338 1.270 . S
O349 Pr321 2.512 . S
O349 C338 1.248 . S
O350 Pr320 2.438 . S
O350 C339 1.267 . S
O351 Pr321 2.437 . S
O351 C339 1.278 . S
H352 C324 0.929 . S
H353 C325 0.921 1_455 S
H354 C327 0.931 1_455 S
H355 C328 0.930 . S
H356 C333 0.929 . S
H357 C334 0.929 . S
H358 C336 0.931 . S
H359 C337 0.930 . S
Pr360 C362 2.880 . S
Pr360 O380 2.562 . S
Pr360 O381 2.490 . S
Pr360 O382 2.695 . S
Pr360 O383 2.512 . S
Pr360 O385 2.437 . S
Pr360 O388 2.436 . S
Pr360 O390 2.438 . S
Pr361 C371 2.880 . S
Pr361 O382 2.436 . S
Pr361 O384 2.438 . S
Pr361 O386 2.562 . S
Pr361 O387 2.490 . S
Pr361 O388 2.695 . S
Pr361 O389 2.512 . S
Pr361 O391 2.437 . S
C362 Pr360 2.880 . S
C362 C363 1.491 . S
C362 O380 1.254 . S
C362 O381 1.225 . S
C363 C362 1.491 . S
C363 C364 1.392 . S
C363 C368 1.356 . S
C364 C363 1.392 . S
C364 C365 1.368 . S
C364 H392 0.929 . S
C365 C364 1.368 . S
C365 C366 1.386 . S
C365 H393 0.929 . S
C366 C365 1.386 . S
C366 C367 1.373 . S
C367 C366 1.373 . S
C367 C368 1.409 . S
C367 H394 0.931 . S
C368 C363 1.356 . S
C368 C367 1.409 . S
C368 H395 0.930 . S
C369 O382 1.270 . S
C369 O383 1.248 . S
C370 O384 1.267 . S
C370 O385 1.278 . S
C371 Pr361 2.880 . S
C371 C372 1.491 . S
C371 O386 1.254 . S
C371 O387 1.225 . S
C372 C371 1.491 . S
C372 C373 1.392 . S
C372 C377 1.356 . S
C373 C372 1.392 . S
C373 C374 1.368 . S
C373 H396 0.929 . S
C374 C373 1.368 . S
C374 C375 1.386 . S
C374 H397 0.929 . S
C375 C374 1.386 . S
C375 C376 1.373 . S
C376 C375 1.373 . S
C376 C377 1.409 . S
C376 H398 0.931 . S
C377 C372 1.356 . S
C377 C376 1.409 . S
C377 H399 0.930 . S
C378 O388 1.270 . S
C378 O389 1.248 . S
C379 O390 1.267 . S
C379 O391 1.278 . S
O380 Pr360 2.562 . S
O380 C362 1.254 . S
O381 Pr360 2.490 . S
O381 C362 1.225 . S
O382 Pr360 2.695 . S
O382 Pr361 2.436 . S
O382 C369 1.270 . S
O383 Pr360 2.512 . S
O383 C369 1.248 . S
O384 Pr361 2.438 . S
O384 C370 1.267 . S
O385 Pr360 2.437 . S
O385 C370 1.278 . S
O386 Pr361 2.562 . S
O386 C371 1.254 . S
O387 Pr361 2.490 . S
O387 C371 1.225 . S
O388 Pr360 2.436 . S
O388 Pr361 2.695 . S
O388 C378 1.270 . S
O389 Pr361 2.512 . S
O389 C378 1.248 . S
O390 Pr360 2.438 . S
O390 C379 1.267 . S
O391 Pr361 2.437 . S
O391 C379 1.278 . S
H392 C364 0.929 . S
H393 C365 0.929 . S
H394 C367 0.931 . S
H395 C368 0.930 . S
H396 C373 0.929 . S
H397 C374 0.929 . S
H398 C376 0.931 . S
H399 C377 0.930 . S
Pr400 C402 2.880 . S
Pr400 O420 2.562 . S
Pr400 O421 2.490 . S
Pr400 O422 2.695 1_556 S
Pr400 O423 2.512 1_556 S
Pr400 O425 2.437 1_556 S
Pr400 O428 2.436 . S
Pr400 O430 2.438 . S
Pr401 C411 2.880 . S
Pr401 O422 2.436 . S
Pr401 O424 2.438 . S
Pr401 O426 2.562 . S
Pr401 O427 2.490 . S
Pr401 O428 2.695 1_554 S
Pr401 O429 2.512 . S
Pr401 O431 2.437 . S
C402 Pr400 2.880 . S
C402 C403 1.491 . S
C402 O420 1.254 . S
C402 O421 1.225 . S
C403 C402 1.491 . S
C403 C404 1.392 . S
C403 C408 1.356 . S
C404 C403 1.392 . S
C404 C405 1.368 . S
C404 H432 0.929 . S
C405 C404 1.368 . S
C405 C406 1.386 . S
C405 H433 0.929 . S
C406 C405 1.386 . S
C406 C407 1.373 . S
C407 C406 1.373 . S
C407 C408 1.409 . S
C407 H434 0.931 . S
C408 C403 1.356 . S
C408 C407 1.409 . S
C408 H435 0.930 . S
C409 O422 1.270 . S
C409 O423 1.248 . S
C410 O424 1.267 . S
C410 O425 1.278 . S
C411 Pr401 2.880 . S
C411 C412 1.491 . S
C411 O426 1.254 . S
C411 O427 1.225 . S
C412 C411 1.491 . S
C412 C413 1.392 . S
C412 C417 1.356 . S
C413 C412 1.392 . S
C413 C414 1.368 . S
C413 H436 0.929 . S
C414 C413 1.368 . S
C414 C415 1.386 . S
C414 H437 0.929 . S
C415 C414 1.386 . S
C415 C416 1.373 . S
C416 C415 1.373 . S
C416 C417 1.409 . S
C416 H438 0.931 . S
C417 C412 1.356 . S
C417 C416 1.409 . S
C417 H439 0.930 . S
C418 O428 1.270 . S
C418 O429 1.248 1_556 S
C419 O430 1.267 1_554 S
C419 O431 1.278 . S
O420 Pr400 2.562 . S
O420 C402 1.254 . S
O421 Pr400 2.490 . S
O421 C402 1.225 . S
O422 Pr400 2.695 1_554 S
O422 Pr401 2.436 . S
O422 C409 1.270 . S
O423 Pr400 2.512 1_554 S
O423 C409 1.248 . S
O424 Pr401 2.438 . S
O424 C410 1.267 . S
O425 Pr400 2.437 1_554 S
O425 C410 1.278 . S
O426 Pr401 2.562 . S
O426 C411 1.254 . S
O427 Pr401 2.490 . S
O427 C411 1.225 . S
O428 Pr400 2.436 . S
O428 Pr401 2.695 1_556 S
O428 C418 1.270 . S
O429 Pr401 2.512 . S
O429 C418 1.248 1_554 S
O430 Pr400 2.438 . S
O430 C419 1.267 1_556 S
O431 Pr401 2.437 . S
O431 C419 1.278 . S
H432 C404 0.929 . S
H433 C405 0.929 . S
H434 C407 0.931 . S
H435 C408 0.930 . S
H436 C413 0.929 . S
H437 C414 0.929 . S
H438 C416 0.931 . S
H439 C417 0.930 . S
Pr440 C442 2.880 . S
Pr440 O460 2.562 . S
Pr440 O461 2.490 . S
Pr440 O462 2.695 . S
Pr440 O463 2.512 . S
Pr440 O465 2.437 . S
Pr440 O468 2.436 . S
Pr440 O470 2.438 . S
Pr441 C451 2.880 . S
Pr441 O462 2.436 . S
Pr441 O464 2.438 . S
Pr441 O466 2.562 . S
Pr441 O467 2.490 . S
Pr441 O468 2.695 . S
Pr441 O469 2.512 . S
Pr441 O471 2.437 . S
C442 Pr440 2.880 . S
C442 C443 1.491 . S
C442 O460 1.254 . S
C442 O461 1.225 . S
C443 C442 1.491 . S
C443 C444 1.392 . S
C443 C448 1.356 . S
C444 C443 1.392 . S
C444 C445 1.368 . S
C444 H472 0.929 . S
C445 C444 1.368 . S
C445 C446 1.386 . S
C445 H473 0.929 . S
C446 C445 1.386 . S
C446 C447 1.373 . S
C447 C446 1.373 . S
C447 C448 1.409 . S
C447 H474 0.931 . S
C448 C443 1.356 . S
C448 C447 1.409 . S
C448 H475 0.930 . S
C449 O462 1.270 . S
C449 O463 1.248 . S
C450 O464 1.267 . S
C450 O465 1.278 . S
C451 Pr441 2.880 . S
C451 C452 1.491 . S
C451 O466 1.254 . S
C451 O467 1.225 . S
C452 C451 1.491 . S
C452 C453 1.392 . S
C452 C457 1.356 . S
C453 C452 1.392 . S
C453 C454 1.368 . S
C453 H476 0.929 . S
C454 C453 1.368 . S
C454 C455 1.386 . S
C454 H477 0.929 . S
C455 C454 1.386 . S
C455 C456 1.373 . S
C456 C455 1.373 . S
C456 C457 1.409 . S
C456 H478 0.931 . S
C457 C452 1.356 . S
C457 C456 1.409 . S
C457 H479 0.930 . S
C458 O468 1.270 . S
C458 O469 1.248 . S
C459 O470 1.267 . S
C459 O471 1.278 . S
O460 Pr440 2.562 . S
O460 C442 1.254 . S
O461 Pr440 2.490 . S
O461 C442 1.225 . S
O462 Pr440 2.695 . S
O462 Pr441 2.436 . S
O462 C449 1.270 . S
O463 Pr440 2.512 . S
O463 C449 1.248 . S
O464 Pr441 2.438 . S
O464 C450 1.267 . S
O465 Pr440 2.437 . S
O465 C450 1.278 . S
O466 Pr441 2.562 . S
O466 C451 1.254 . S
O467 Pr441 2.490 . S
O467 C451 1.225 . S
O468 Pr440 2.436 . S
O468 Pr441 2.695 . S
O468 C458 1.270 . S
O469 Pr441 2.512 . S
O469 C458 1.248 . S
O470 Pr440 2.438 . S
O470 C459 1.267 . S
O471 Pr441 2.437 . S
O471 C459 1.278 . S
H472 C444 0.929 . S
H473 C445 0.929 . S
H474 C447 0.931 . S
H475 C448 0.930 . S
H476 C453 0.929 . S
H477 C454 0.929 . S
H478 C456 0.931 . S
H479 C457 0.930 . S
Pr480 C482 2.880 . S
Pr480 O500 2.562 . S
Pr480 O501 2.490 . S
Pr480 O502 2.695 . S
Pr480 O503 2.512 . S
Pr480 O505 2.437 . S
Pr480 O508 2.436 . S
Pr480 O510 2.438 . S
Pr481 C491 2.880 . S
Pr481 O502 2.436 . S
Pr481 O504 2.438 . S
Pr481 O506 2.562 . S
Pr481 O507 2.490 . S
Pr481 O508 2.695 . S
Pr481 O509 2.512 . S
Pr481 O511 2.437 . S
C482 Pr480 2.880 . S
C482 C483 1.491 . S
C482 O500 1.254 . S
C482 O501 1.225 . S
C483 C482 1.491 . S
C483 C484 1.392 . S
C483 C488 1.356 . S
C484 C483 1.392 . S
C484 C485 1.368 . S
C484 H512 0.929 . S
C485 C484 1.368 . S
C485 C486 1.386 . S
C485 H513 0.929 . S
C486 C485 1.386 . S
C486 C487 1.373 . S
C487 C486 1.373 . S
C487 C488 1.409 . S
C487 H514 0.931 . S
C488 C483 1.356 . S
C488 C487 1.409 . S
C488 H515 0.930 . S
C489 O502 1.270 . S
C489 O503 1.248 . S
C490 O504 1.267 . S
C490 O505 1.278 . S
C491 Pr481 2.880 . S
C491 C492 1.491 . S
C491 O506 1.254 . S
C491 O507 1.225 . S
C492 C491 1.491 . S
C492 C493 1.392 . S
C492 C497 1.356 . S
C493 C492 1.392 . S
C493 C494 1.368 . S
C493 H516 0.929 . S
C494 C493 1.368 . S
C494 C495 1.386 1_455 S
C494 H517 0.921 1_455 S
C495 C494 1.386 1_655 S
C495 C496 1.373 1_655 S
C496 C495 1.373 1_455 S
C496 C497 1.409 . S
C496 H518 0.931 1_455 S
C497 C492 1.356 . S
C497 C496 1.409 . S
C497 H519 0.930 . S
C498 O508 1.270 . S
C498 O509 1.248 . S
C499 O510 1.267 . S
C499 O511 1.278 . S
O500 Pr480 2.562 . S
O500 C482 1.254 . S
O501 Pr480 2.490 . S
O501 C482 1.225 . S
O502 Pr480 2.695 . S
O502 Pr481 2.436 . S
O502 C489 1.270 . S
O503 Pr480 2.512 . S
O503 C489 1.248 . S
O504 Pr481 2.438 . S
O504 C490 1.267 . S
O505 Pr480 2.437 . S
O505 C490 1.278 . S
O506 Pr481 2.562 . S
O506 C491 1.254 . S
O507 Pr481 2.490 . S
O507 C491 1.225 . S
O508 Pr480 2.436 . S
O508 Pr481 2.695 . S
O508 C498 1.270 . S
O509 Pr481 2.512 . S
O509 C498 1.248 . S
O510 Pr480 2.438 . S
O510 C499 1.267 . S
O511 Pr481 2.437 . S
O511 C499 1.278 . S
H512 C484 0.929 . S
H513 C485 0.929 . S
H514 C487 0.931 . S
H515 C488 0.930 . S
H516 C493 0.929 . S
H517 C494 0.921 1_655 S
H518 C496 0.931 1_655 S
H519 C497 0.930 . S
Pr520 C522 2.880 . S
Pr520 O540 2.562 . S
Pr520 O541 2.490 . S
Pr520 O542 2.695 . S
Pr520 O543 2.512 . S
Pr520 O545 2.437 . S
Pr520 O548 2.436 . S
Pr520 O550 2.438 . S
Pr521 C531 2.880 . S
Pr521 O542 2.436 . S
Pr521 O544 2.438 . S
Pr521 O546 2.562 . S
Pr521 O547 2.490 . S
Pr521 O548 2.695 . S
Pr521 O549 2.512 . S
Pr521 O551 2.437 . S
C522 Pr520 2.880 . S
C522 C523 1.491 . S
C522 O540 1.254 . S
C522 O541 1.225 . S
C523 C522 1.491 . S
C523 C524 1.392 . S
C523 C528 1.356 . S
C524 C523 1.392 . S
C524 C525 1.368 . S
C524 H552 0.929 . S
C525 C524 1.368 . S
C525 C526 1.386 . S
C525 H553 0.929 . S
C526 C525 1.386 . S
C526 C527 1.373 . S
C527 C526 1.373 . S
C527 C528 1.409 . S
C527 H554 0.931 . S
C528 C523 1.356 . S
C528 C527 1.409 . S
C528 H555 0.930 . S
C529 O542 1.270 . S
C529 O543 1.248 . S
C530 O544 1.267 . S
C530 O545 1.278 . S
C531 Pr521 2.880 . S
C531 C532 1.491 . S
C531 O546 1.254 . S
C531 O547 1.225 . S
C532 C531 1.491 . S
C532 C533 1.392 . S
C532 C537 1.356 . S
C533 C532 1.392 . S
C533 C534 1.368 . S
C533 H556 0.929 . S
C534 C533 1.368 . S
C534 C535 1.386 . S
C534 H557 0.929 . S
C535 C534 1.386 . S
C535 C536 1.373 . S
C536 C535 1.373 . S
C536 C537 1.409 . S
C536 H558 0.931 . S
C537 C532 1.356 . S
C537 C536 1.409 . S
C537 H559 0.930 . S
C538 O548 1.270 . S
C538 O549 1.248 . S
C539 O550 1.267 . S
C539 O551 1.278 . S
O540 Pr520 2.562 . S
O540 C522 1.254 . S
O541 Pr520 2.490 . S
O541 C522 1.225 . S
O542 Pr520 2.695 . S
O542 Pr521 2.436 . S
O542 C529 1.270 . S
O543 Pr520 2.512 . S
O543 C529 1.248 . S
O544 Pr521 2.438 . S
O544 C530 1.267 . S
O545 Pr520 2.437 . S
O545 C530 1.278 . S
O546 Pr521 2.562 . S
O546 C531 1.254 . S
O547 Pr521 2.490 . S
O547 C531 1.225 . S
O548 Pr520 2.436 . S
O548 Pr521 2.695 . S
O548 C538 1.270 . S
O549 Pr521 2.512 . S
O549 C538 1.248 . S
O550 Pr520 2.438 . S
O550 C539 1.267 . S
O551 Pr521 2.437 . S
O551 C539 1.278 . S
H552 C524 0.929 . S
H553 C525 0.929 . S
H554 C527 0.931 . S
H555 C528 0.930 . S
H556 C533 0.929 . S
H557 C534 0.929 . S
H558 C536 0.931 . S
H559 C537 0.930 . S
Pr560 C562 2.880 . S
Pr560 O580 2.562 . S
Pr560 O581 2.490 . S
Pr560 O582 2.695 1_556 S
Pr560 O583 2.512 . S
Pr560 O585 2.437 . S
Pr560 O588 2.436 . S
Pr560 O590 2.438 . S
Pr561 C571 2.880 . S
Pr561 O582 2.436 . S
Pr561 O584 2.438 . S
Pr561 O586 2.562 . S
Pr561 O587 2.490 . S
Pr561 O588 2.695 1_554 S
Pr561 O589 2.512 1_554 S
Pr561 O591 2.437 1_554 S
C562 Pr560 2.880 . S
C562 C563 1.491 . S
C562 O580 1.254 . S
C562 O581 1.225 . S
C563 C562 1.491 . S
C563 C564 1.392 . S
C563 C568 1.356 . S
C564 C563 1.392 . S
C564 C565 1.368 . S
C564 H592 0.929 . S
C565 C564 1.368 . S
C565 C566 1.386 . S
C565 H593 0.929 . S
C566 C565 1.386 . S
C566 C567 1.373 . S
C567 C566 1.373 . S
C567 C568 1.409 . S
C567 H594 0.931 . S
C568 C563 1.356 . S
C568 C567 1.409 . S
C568 H595 0.930 . S
C569 O582 1.270 . S
C569 O583 1.248 1_554 S
C570 O584 1.267 1_556 S
C570 O585 1.278 . S
C571 Pr561 2.880 . S
C571 C572 1.491 . S
C571 O586 1.254 . S
C571 O587 1.225 . S
C572 C571 1.491 . S
C572 C573 1.392 . S
C572 C577 1.356 . S
C573 C572 1.392 . S
C573 C574 1.368 . S
C573 H596 0.929 . S
C574 C573 1.368 . S
C574 C575 1.386 . S
C574 H597 0.929 . S
C575 C574 1.386 . S
C575 C576 1.373 . S
C576 C575 1.373 . S
C576 C577 1.409 . S
C576 H598 0.931 . S
C577 C572 1.356 . S
C577 C576 1.409 . S
C577 H599 0.930 . S
C578 O588 1.270 . S
C578 O589 1.248 . S
C579 O590 1.267 . S
C579 O591 1.278 . S
O580 Pr560 2.562 . S
O580 C562 1.254 . S
O581 Pr560 2.490 . S
O581 C562 1.225 . S
O582 Pr560 2.695 1_554 S
O582 Pr561 2.436 . S
O582 C569 1.270 . S
O583 Pr560 2.512 . S
O583 C569 1.248 1_556 S
O584 Pr561 2.438 . S
O584 C570 1.267 1_554 S
O585 Pr560 2.437 . S
O585 C570 1.278 . S
O586 Pr561 2.562 . S
O586 C571 1.254 . S
O587 Pr561 2.490 . S
O587 C571 1.225 . S
O588 Pr560 2.436 . S
O588 Pr561 2.695 1_556 S
O588 C578 1.270 . S
O589 Pr561 2.512 1_556 S
O589 C578 1.248 . S
O590 Pr560 2.438 . S
O590 C579 1.267 . S
O591 Pr561 2.437 1_556 S
O591 C579 1.278 . S
H592 C564 0.929 . S
H593 C565 0.929 . S
H594 C567 0.931 . S
H595 C568 0.930 . S
H596 C573 0.929 . S
H597 C574 0.929 . S
H598 C576 0.931 . S
H599 C577 0.930 . S
Pr600 C602 2.880 . S
Pr600 O620 2.562 . S
Pr600 O621 2.490 . S
Pr600 O622 2.695 . S
Pr600 O623 2.512 . S
Pr600 O625 2.437 . S
Pr600 O628 2.436 . S
Pr600 O630 2.438 . S
Pr601 C611 2.880 . S
Pr601 O622 2.436 . S
Pr601 O624 2.438 . S
Pr601 O626 2.562 . S
Pr601 O627 2.490 . S
Pr601 O628 2.695 . S
Pr601 O629 2.512 . S
Pr601 O631 2.437 . S
C602 Pr600 2.880 . S
C602 C603 1.491 . S
C602 O620 1.254 . S
C602 O621 1.225 . S
C603 C602 1.491 . S
C603 C604 1.392 . S
C603 C608 1.356 . S
C604 C603 1.392 . S
C604 C605 1.368 . S
C604 H632 0.929 . S
C605 C604 1.368 . S
C605 C606 1.386 . S
C605 H633 0.929 . S
C606 C605 1.386 . S
C606 C607 1.373 . S
C607 C606 1.373 . S
C607 C608 1.409 . S
C607 H634 0.931 . S
C608 C603 1.356 . S
C608 C607 1.409 . S
C608 H635 0.930 . S
C609 O622 1.270 . S
C609 O623 1.248 . S
C610 O624 1.267 . S
C610 O625 1.278 . S
C611 Pr601 2.880 . S
C611 C612 1.491 . S
C611 O626 1.254 . S
C611 O627 1.225 . S
C612 C611 1.491 . S
C612 C613 1.392 . S
C612 C617 1.356 . S
C613 C612 1.392 . S
C613 C614 1.368 . S
C613 H636 0.929 . S
C614 C613 1.368 . S
C614 C615 1.386 . S
C614 H637 0.929 . S
C615 C614 1.386 . S
C615 C616 1.373 . S
C616 C615 1.373 . S
C616 C617 1.409 . S
C616 H638 0.931 . S
C617 C612 1.356 . S
C617 C616 1.409 . S
C617 H639 0.930 . S
C618 O628 1.270 . S
C618 O629 1.248 . S
C619 O630 1.267 . S
C619 O631 1.278 . S
O620 Pr600 2.562 . S
O620 C602 1.254 . S
O621 Pr600 2.490 . S
O621 C602 1.225 . S
O622 Pr600 2.695 . S
O622 Pr601 2.436 . S
O622 C609 1.270 . S
O623 Pr600 2.512 . S
O623 C609 1.248 . S
O624 Pr601 2.438 . S
O624 C610 1.267 . S
O625 Pr600 2.437 . S
O625 C610 1.278 . S
O626 Pr601 2.562 . S
O626 C611 1.254 . S
O627 Pr601 2.490 . S
O627 C611 1.225 . S
O628 Pr600 2.436 . S
O628 Pr601 2.695 . S
O628 C618 1.270 . S
O629 Pr601 2.512 . S
O629 C618 1.248 . S
O630 Pr600 2.438 . S
O630 C619 1.267 . S
O631 Pr601 2.437 . S
O631 C619 1.278 . S
H632 C604 0.929 . S
H633 C605 0.929 . S
H634 C607 0.931 . S
H635 C608 0.930 . S
H636 C613 0.929 . S
H637 C614 0.929 . S
H638 C616 0.931 . S
H639 C617 0.930 . S
H640 C646 0.930 . S
H641 C649 0.930 . S
H642 C650 0.930 . S
H643 C651 0.930 . S
H644 C654 0.930 . S
H645 C655 0.930 . S
C646 H640 0.930 . S
C646 C647 1.355 . S
C646 C648 1.415 . S
C647 C646 1.355 . S
C647 C649 1.419 . S
C648 C646 1.415 . S
C648 C653 1.425 . S
C648 C655 1.409 . S
C649 H641 0.930 . S
C649 C647 1.419 . S
C649 C650 1.362 . S
C650 H642 0.930 . S
C650 C649 1.362 . S
C650 C653 1.409 . S
C651 H643 0.930 . S
C651 C652 1.355 . S
C651 C653 1.415 . S
C652 C651 1.355 . S
C652 C654 1.419 . S
C653 C648 1.425 . S
C653 C650 1.409 . S
C653 C651 1.415 . S
C654 H644 0.930 . S
C654 C652 1.419 . S
C654 C655 1.362 . S
C655 H645 0.930 . S
C655 C648 1.409 . S
C655 C654 1.362 . S
H656 C662 0.930 . S
H657 C665 0.930 . S
H658 C666 0.930 . S
H659 C667 0.930 . S
H660 C670 0.930 . S
H661 C671 0.930 . S
C662 H656 0.930 . S
C662 C663 1.355 . S
C662 C664 1.415 . S
C663 C662 1.355 . S
C663 C665 1.419 . S
C664 C662 1.415 . S
C664 C669 1.425 . S
C664 C671 1.409 . S
C665 H657 0.930 . S
C665 C663 1.419 . S
C665 C666 1.362 . S
C666 H658 0.930 . S
C666 C665 1.362 . S
C666 C669 1.409 . S
C667 H659 0.930 . S
C667 C668 1.355 . S
C667 C669 1.415 . S
C668 C667 1.355 . S
C668 C670 1.419 . S
C669 C664 1.425 . S
C669 C666 1.409 . S
C669 C667 1.415 . S
C670 H660 0.930 . S
C670 C668 1.419 . S
C670 C671 1.362 . S
C671 H661 0.930 . S
C671 C664 1.409 . S
C671 C670 1.362 . S
H672 C678 0.930 . S
H673 C681 0.930 . S
H674 C682 0.930 . S
H675 C683 0.930 . S
H676 C686 0.930 . S
H677 C687 0.930 . S
C678 H672 0.930 . S
C678 C679 1.355 . S
C678 C680 1.415 . S
C679 C678 1.355 . S
C679 C681 1.419 . S
C680 C678 1.415 . S
C680 C685 1.425 1_455 S
C680 C687 1.409 1_455 S
C681 H673 0.930 . S
C681 C679 1.419 . S
C681 C682 1.362 . S
C682 H674 0.930 . S
C682 C681 1.362 . S
C682 C685 1.409 1_455 S
C683 H675 0.930 . S
C683 C684 1.355 . S
C683 C685 1.415 . S
C684 C683 1.355 . S
C684 C686 1.419 . S
C685 C680 1.425 1_655 S
C685 C682 1.409 1_655 S
C685 C683 1.415 . S
C686 H676 0.930 . S
C686 C684 1.419 . S
C686 C687 1.362 . S
C687 H677 0.930 . S
C687 C680 1.409 1_655 S
C687 C686 1.362 . S
H688 C694 0.930 . S
H689 C697 0.930 . S
H690 C698 0.930 . S
H691 C699 0.930 . S
H692 C702 0.930 . S
H693 C703 0.930 . S
C694 H688 0.930 . S
C694 C695 1.355 . S
C694 C696 1.415 . S
C695 C694 1.355 . S
C695 C697 1.419 . S
C696 C694 1.415 . S
C696 C701 1.425 1_655 S
C696 C703 1.409 . S
C697 H689 0.930 . S
C697 C695 1.419 . S
C697 C698 1.362 1_655 S
C698 H690 0.930 . S
C698 C697 1.362 1_455 S
C698 C701 1.409 . S
C699 H691 0.930 . S
C699 C700 1.355 . S
C699 C701 1.415 . S
C700 C699 1.355 . S
C700 C702 1.419 . S
C701 C696 1.425 1_455 S
C701 C698 1.409 . S
C701 C699 1.415 . S
C702 H692 0.930 . S
C702 C700 1.419 . S
C702 C703 1.362 1_455 S
C703 H693 0.930 . S
C703 C696 1.409 . S
C703 C702 1.362 1_655 S
H704 C710 0.930 . S
H705 C713 0.930 1_554 S
H706 C714 0.930 . S
H707 C715 0.930 1_554 S
H708 C718 0.930 . S
H709 C719 0.930 . S
C710 H704 0.930 . S
C710 C711 1.355 . S
C710 C712 1.415 . S
C711 C710 1.355 . S
C711 C713 1.419 . S
C712 C710 1.415 . S
C712 C717 1.425 . S
C712 C719 1.409 . S
C713 H705 0.930 1_556 S
C713 C711 1.419 . S
C713 C714 1.362 1_556 S
C714 H706 0.930 . S
C714 C713 1.362 1_554 S
C714 C717 1.409 1_554 S
C715 H707 0.930 1_556 S
C715 C716 1.355 . S
C715 C717 1.415 . S
C716 C715 1.355 . S
C716 C718 1.419 . S
C717 C712 1.425 . S
C717 C714 1.409 1_556 S
C717 C715 1.415 . S
C718 H708 0.930 . S
C718 C716 1.419 . S
C718 C719 1.362 . S
C719 H709 0.930 . S
C719 C712 1.409 . S
C719 C718 1.362 . S
H720 C726 0.930 . S
H721 C729 0.930 . S
H722 C730 0.930 . S
H723 C731 0.930 . S
H724 C734 0.930 . S
H725 C735 0.930 . S
C726 H720 0.930 . S
C726 C727 1.355 . S
C726 C728 1.415 . S
C727 C726 1.355 . S
C727 C729 1.419 . S
C728 C726 1.415 . S
C728 C733 1.425 . S
C728 C735 1.409 . S
C729 H721 0.930 . S
C729 C727 1.419 . S
C729 C730 1.362 . S
C730 H722 0.930 . S
C730 C729 1.362 . S
C730 C733 1.409 . S
C731 H723 0.930 . S
C731 C732 1.355 . S
C731 C733 1.415 . S
C732 C731 1.355 . S
C732 C734 1.419 . S
C733 C728 1.425 . S
C733 C730 1.409 . S
C733 C731 1.415 . S
C734 H724 0.930 . S
C734 C732 1.419 . S
C734 C735 1.362 . S
C735 H725 0.930 . S
C735 C728 1.409 . S
C735 C734 1.362 . S
H736 C742 0.930 1_455 S
H737 C745 0.930 . S
H738 C746 0.930 . S
H739 C747 0.930 1_655 S
H740 C750 0.930 . S
H741 C751 0.930 . S
C742 H736 0.930 1_655 S
C742 C743 1.355 . S
C742 C744 1.415 1_655 S
C743 C742 1.355 . S
C743 C745 1.419 . S
C744 C742 1.415 1_455 S
C744 C749 1.425 1_455 S
C744 C751 1.409 . S
C745 H737 0.930 . S
C745 C743 1.419 . S
C745 C746 1.362 . S
C746 H738 0.930 . S
C746 C745 1.362 . S
C746 C749 1.409 . S
C747 H739 0.930 1_455 S
C747 C748 1.355 . S
C747 C749 1.415 1_455 S
C748 C747 1.355 . S
C748 C750 1.419 . S
C749 C744 1.425 1_655 S
C749 C746 1.409 . S
C749 C747 1.415 1_655 S
C750 H740 0.930 . S
C750 C748 1.419 . S
C750 C751 1.362 . S
C751 H741 0.930 . S
C751 C744 1.409 . S
C751 C750 1.362 . S
H752 C758 0.930 . S
H753 C761 0.930 . S
H754 C762 0.930 1_655 S
H755 C763 0.930 . S
H756 C766 0.930 . S
H757 C767 0.930 1_455 S
C758 H752 0.930 . S
C758 C759 1.355 . S
C758 C760 1.415 . S
C759 C758 1.355 . S
C759 C761 1.419 . S
C760 C758 1.415 . S
C760 C765 1.425 1_455 S
C760 C767 1.409 1_455 S
C761 H753 0.930 . S
C761 C759 1.419 . S
C761 C762 1.362 . S
C762 H754 0.930 1_455 S
C762 C761 1.362 . S
C762 C765 1.409 1_455 S
C763 H755 0.930 . S
C763 C764 1.355 . S
C763 C765 1.415 . S
C764 C763 1.355 . S
C764 C766 1.419 . S
C765 C760 1.425 1_655 S
C765 C762 1.409 1_655 S
C765 C763 1.415 . S
C766 H756 0.930 . S
C766 C764 1.419 . S
C766 C767 1.362 . S
C767 H757 0.930 1_655 S
C767 C760 1.409 1_655 S
C767 C766 1.362 . S
H768 C774 0.930 . S
H769 C777 0.930 . S
H770 C778 0.930 . S
H771 C779 0.930 . S
H772 C782 0.930 . S
H773 C783 0.930 . S
C774 H768 0.930 . S
C774 C775 1.355 . S
C774 C776 1.415 . S
C775 C774 1.355 . S
C775 C777 1.419 . S
C776 C774 1.415 . S
C776 C781 1.425 . S
C776 C783 1.409 . S
C777 H769 0.930 . S
C777 C775 1.419 . S
C777 C778 1.362 . S
C778 H770 0.930 . S
C778 C777 1.362 . S
C778 C781 1.409 . S
C779 H771 0.930 . S
C779 C780 1.355 . S
C779 C781 1.415 . S
C780 C779 1.355 . S
C780 C782 1.419 . S
C781 C776 1.425 . S
C781 C778 1.409 . S
C781 C779 1.415 . S
C782 H772 0.930 . S
C782 C780 1.419 . S
C782 C783 1.362 . S
C783 H773 0.930 . S
C783 C776 1.409 . S
C783 C782 1.362 . S
H784 C790 0.930 . S
H785 C793 0.930 . S
H786 C794 0.930 . S
H787 C795 0.930 . S
H788 C798 0.930 . S
H789 C799 0.930 . S
C790 H784 0.930 . S
C790 C791 1.355 . S
C790 C792 1.415 . S
C791 C790 1.355 . S
C791 C793 1.419 . S
C792 C790 1.415 . S
C792 C797 1.425 . S
C792 C799 1.409 . S
C793 H785 0.930 . S
C793 C791 1.419 . S
C793 C794 1.362 . S
C794 H786 0.930 . S
C794 C793 1.362 . S
C794 C797 1.409 . S
C795 H787 0.930 . S
C795 C796 1.355 . S
C795 C797 1.415 . S
C796 C795 1.355 . S
C796 C798 1.419 . S
C797 C792 1.425 . S
C797 C794 1.409 . S
C797 C795 1.415 . S
C798 H788 0.930 . S
C798 C796 1.419 . S
C798 C799 1.362 . S
C799 H789 0.930 . S
C799 C792 1.409 . S
C799 C798 1.362 . S
H800 C806 0.930 . S
H801 C809 0.930 . S
H802 C810 0.930 . S
H803 C811 0.930 . S
H804 C814 0.930 . S
H805 C815 0.930 . S
C806 H800 0.930 . S
C806 C807 1.355 . S
C806 C808 1.415 . S
C807 C806 1.355 . S
C807 C809 1.419 . S
C808 C806 1.415 . S
C808 C813 1.425 . S
C808 C815 1.409 . S
C809 H801 0.930 . S
C809 C807 1.419 . S
C809 C810 1.362 . S
C810 H802 0.930 . S
C810 C809 1.362 . S
C810 C813 1.409 . S
C811 H803 0.930 . S
C811 C812 1.355 . S
C811 C813 1.415 . S
C812 C811 1.355 . S
C812 C814 1.419 . S
C813 C808 1.425 . S
C813 C810 1.409 . S
C813 C811 1.415 . S
C814 H804 0.930 . S
C814 C812 1.419 . S
C814 C815 1.362 . S
C815 H805 0.930 . S
C815 C808 1.409 . S
C815 C814 1.362 . S
H816 C822 0.930 . S
H817 C825 0.930 . S
H818 C826 0.930 . S
H819 C827 0.930 . S
H820 C830 0.930 . S
H821 C831 0.930 . S
C822 H816 0.930 . S
C822 C823 1.355 . S
C822 C824 1.415 . S
C823 C822 1.355 . S
C823 C825 1.419 . S
C824 C822 1.415 . S
C824 C829 1.425 . S
C824 C831 1.409 . S
C825 H817 0.930 . S
C825 C823 1.419 . S
C825 C826 1.362 . S
C826 H818 0.930 . S
C826 C825 1.362 . S
C826 C829 1.409 . S
C827 H819 0.930 . S
C827 C828 1.355 . S
C827 C829 1.415 . S
C828 C827 1.355 . S
C828 C830 1.419 . S
C829 C824 1.425 . S
C829 C826 1.409 . S
C829 C827 1.415 . S
C830 H820 0.930 . S
C830 C828 1.419 . S
C830 C831 1.362 . S
C831 H821 0.930 . S
C831 C824 1.409 . S
C831 C830 1.362 . S
H832 C838 0.930 . S
H833 C841 0.930 . S
H834 C842 0.930 . S
H835 C843 0.930 . S
H836 C846 0.930 . S
H837 C847 0.930 . S
C838 H832 0.930 . S
C838 C839 1.355 . S
C838 C840 1.415 . S
C839 C838 1.355 . S
C839 C841 1.419 . S
C840 C838 1.415 . S
C840 C845 1.425 . S
C840 C847 1.409 . S
C841 H833 0.930 . S
C841 C839 1.419 . S
C841 C842 1.362 . S
C842 H834 0.930 . S
C842 C841 1.362 . S
C842 C845 1.409 . S
C843 H835 0.930 . S
C843 C844 1.355 . S
C843 C845 1.415 . S
C844 C843 1.355 . S
C844 C846 1.419 . S
C845 C840 1.425 . S
C845 C842 1.409 . S
C845 C843 1.415 . S
C846 H836 0.930 . S
C846 C844 1.419 . S
C846 C847 1.362 . S
C847 H837 0.930 . S
C847 C840 1.409 . S
C847 C846 1.362 . S
H848 C854 0.930 . S
H849 C857 0.930 . S
H850 C858 0.930 . S
H851 C859 0.930 . S
H852 C862 0.930 . S
H853 C863 0.930 . S
C854 H848 0.930 . S
C854 C855 1.355 . S
C854 C856 1.415 . S
C855 C854 1.355 . S
C855 C857 1.419 . S
C856 C854 1.415 . S
C856 C861 1.425 . S
C856 C863 1.409 . S
C857 H849 0.930 . S
C857 C855 1.419 . S
C857 C858 1.362 . S
C858 H850 0.930 . S
C858 C857 1.362 . S
C858 C861 1.409 . S
C859 H851 0.930 . S
C859 C860 1.355 . S
C859 C861 1.415 . S
C860 C859 1.355 . S
C860 C862 1.419 . S
C861 C856 1.425 . S
C861 C858 1.409 . S
C861 C859 1.415 . S
C862 H852 0.930 . S
C862 C860 1.419 . S
C862 C863 1.362 . S
C863 H853 0.930 . S
C863 C856 1.409 . S
C863 C862 1.362 . S
H864 C870 0.930 . S
H865 C873 0.930 . S
H866 C874 0.930 . S
H867 C875 0.930 . S
H868 C878 0.930 . S
H869 C879 0.930 . S
C870 H864 0.930 . S
C870 C871 1.355 . S
C870 C872 1.415 . S
C871 C870 1.355 . S
C871 C873 1.419 . S
C872 C870 1.415 . S
C872 C877 1.425 . S
C872 C879 1.409 . S
C873 H865 0.930 . S
C873 C871 1.419 . S
C873 C874 1.362 . S
C874 H866 0.930 . S
C874 C873 1.362 . S
C874 C877 1.409 . S
C875 H867 0.930 . S
C875 C876 1.355 . S
C875 C877 1.415 . S
C876 C875 1.355 . S
C876 C878 1.419 . S
C877 C872 1.425 . S
C877 C874 1.409 . S
C877 C875 1.415 . S
C878 H868 0.930 . S
C878 C876 1.419 . S
C878 C879 1.362 . S
C879 H869 0.930 . S
C879 C872 1.409 . S
C879 C878 1.362 . S
H880 C886 0.930 . S
H881 C889 0.930 . S
H882 C890 0.930 . S
H883 C891 0.930 . S
H884 C894 0.930 . S
H885 C895 0.930 . S
C886 H880 0.930 . S
C886 C887 1.355 . S
C886 C888 1.415 . S
C887 C886 1.355 . S
C887 C889 1.419 . S
C888 C886 1.415 . S
C888 C893 1.425 . S
C888 C895 1.409 . S
C889 H881 0.930 . S
C889 C887 1.419 . S
C889 C890 1.362 . S
C890 H882 0.930 . S
C890 C889 1.362 . S
C890 C893 1.409 . S
C891 H883 0.930 . S
C891 C892 1.355 . S
C891 C893 1.415 . S
C892 C891 1.355 . S
C892 C894 1.419 . S
C893 C888 1.425 . S
C893 C890 1.409 . S
C893 C891 1.415 . S
C894 H884 0.930 . S
C894 C892 1.419 . S
C894 C895 1.362 . S
C895 H885 0.930 . S
C895 C888 1.409 . S
C895 C894 1.362 . S
H896 C902 0.930 . S
H897 C905 0.930 . S
H898 C906 0.930 . S
H899 C907 0.930 . S
H900 C910 0.930 . S
H901 C911 0.930 . S
C902 H896 0.930 . S
C902 C903 1.355 . S
C902 C904 1.415 . S
C903 C902 1.355 . S
C903 C905 1.419 . S
C904 C902 1.415 . S
C904 C909 1.425 . S
C904 C911 1.409 . S
C905 H897 0.930 . S
C905 C903 1.419 . S
C905 C906 1.362 . S
C906 H898 0.930 . S
C906 C905 1.362 . S
C906 C909 1.409 . S
C907 H899 0.930 . S
C907 C908 1.355 . S
C907 C909 1.415 . S
C908 C907 1.355 . S
C908 C910 1.419 . S
C909 C904 1.425 . S
C909 C906 1.409 . S
C909 C907 1.415 . S
C910 H900 0.930 . S
C910 C908 1.419 . S
C910 C911 1.362 . S
C911 H901 0.930 . S
C911 C904 1.409 . S
C911 C910 1.362 . S
H912 C918 0.930 . S
H913 C921 0.930 . S
H914 C922 0.930 . S
H915 C923 0.930 . S
H916 C926 0.930 . S
H917 C927 0.930 . S
C918 H912 0.930 . S
C918 C919 1.355 . S
C918 C920 1.415 1_545 S
C919 C918 1.355 . S
C919 C921 1.419 . S
C920 C918 1.415 1_565 S
C920 C925 1.425 . S
C920 C927 1.409 . S
C921 H913 0.930 . S
C921 C919 1.419 . S
C921 C922 1.362 1_545 S
C922 H914 0.930 . S
C922 C921 1.362 1_565 S
C922 C925 1.409 . S
C923 H915 0.930 . S
C923 C924 1.355 . S
C923 C925 1.415 . S
C924 C923 1.355 . S
C924 C926 1.419 . S
C925 C920 1.425 . S
C925 C922 1.409 . S
C925 C923 1.415 . S
C926 H916 0.930 . S
C926 C924 1.419 . S
C926 C927 1.362 . S
C927 H917 0.930 . S
C927 C920 1.409 . S
C927 C926 1.362 . S
H928 C934 0.930 . S
H929 C937 0.930 . S
H930 C938 0.930 . S
H931 C939 0.930 . S
H932 C942 0.930 . S
H933 C943 0.930 . S
C934 H928 0.930 . S
C934 C935 1.355 . S
C934 C936 1.415 . S
C935 C934 1.355 . S
C935 C937 1.419 . S
C936 C934 1.415 . S
C936 C941 1.425 . S
C936 C943 1.409 . S
C937 H929 0.930 . S
C937 C935 1.419 . S
C937 C938 1.362 . S
C938 H930 0.930 . S
C938 C937 1.362 . S
C938 C941 1.409 . S
C939 H931 0.930 . S
C939 C940 1.355 . S
C939 C941 1.415 . S
C940 C939 1.355 . S
C940 C942 1.419 . S
C941 C936 1.425 . S
C941 C938 1.409 . S
C941 C939 1.415 . S
C942 H932 0.930 . S
C942 C940 1.419 . S
C942 C943 1.362 . S
C943 H933 0.930 . S
C943 C936 1.409 . S
C943 C942 1.362 . S
H944 C950 0.937 . S
H945 C953 0.930 . S
H946 C954 0.930 . S
H947 C955 0.930 . S
H948 C958 0.930 . S
H949 C959 0.930 . S
C950 H944 0.937 . S
C950 C951 1.316 1_545 S
C950 C952 1.447 . S
C951 C950 1.316 1_565 S
C951 C953 1.419 . S
C952 C950 1.447 . S
C952 C957 1.425 . S
C952 C959 1.409 . S
C953 H945 0.930 . S
C953 C951 1.419 . S
C953 C954 1.362 . S
C954 H946 0.930 . S
C954 C953 1.362 . S
C954 C957 1.409 1_565 S
C955 H947 0.930 . S
C955 C956 1.355 . S
C955 C957 1.415 . S
C956 C955 1.355 . S
C956 C958 1.419 . S
C957 C952 1.425 . S
C957 C954 1.409 1_545 S
C957 C955 1.415 . S
C958 H948 0.930 . S
C958 C956 1.419 . S
C958 C959 1.362 . S
C959 H949 0.930 . S
C959 C952 1.409 . S
C959 C958 1.362 . S
H960 C966 0.930 . S
H961 C969 0.930 . S
H962 C970 0.930 . S
H963 C971 0.930 . S
H964 C974 0.930 . S
H965 C975 0.930 . S
C966 H960 0.930 . S
C966 C967 1.355 . S
C966 C968 1.415 . S
C967 C966 1.355 . S
C967 C969 1.419 . S
C968 C966 1.415 . S
C968 C973 1.425 . S
C968 C975 1.409 . S
C969 H961 0.930 . S
C969 C967 1.419 . S
C969 C970 1.362 . S
C970 H962 0.930 . S
C970 C969 1.362 . S
C970 C973 1.409 . S
C971 H963 0.930 . S
C971 C972 1.355 . S
C971 C973 1.415 . S
C972 C971 1.355 . S
C972 C974 1.419 . S
C973 C968 1.425 . S
C973 C970 1.409 . S
C973 C971 1.415 . S
C974 H964 0.930 . S
C974 C972 1.419 . S
C974 C975 1.362 . S
C975 H965 0.930 . S
C975 C968 1.409 . S
C975 C974 1.362 . S
H976 C982 0.930 . S
H977 C985 0.930 . S
H978 C986 0.930 . S
H979 C987 0.930 . S
H980 C990 0.930 . S
H981 C991 0.930 . S
C982 H976 0.930 . S
C982 C983 1.355 . S
C982 C984 1.415 . S
C983 C982 1.355 . S
C983 C985 1.419 . S
C984 C982 1.415 . S
C984 C989 1.425 . S
C984 C991 1.409 . S
C985 H977 0.930 . S
C985 C983 1.419 . S
C985 C986 1.362 . S
C986 H978 0.930 . S
C986 C985 1.362 . S
C986 C989 1.409 . S
C987 H979 0.930 . S
C987 C988 1.355 . S
C987 C989 1.415 1_565 S
C988 C987 1.355 . S
C988 C990 1.419 . S
C989 C984 1.425 . S
C989 C986 1.409 . S
C989 C987 1.415 1_545 S
C990 H980 0.930 . S
C990 C988 1.419 . S
C990 C991 1.362 1_565 S
C991 H981 0.930 . S
C991 C984 1.409 . S
C991 C990 1.362 1_545 S
H992 C998 0.930 . S
H993 C1001 0.930 . S
H994 C1002 0.930 . S
H995 C1003 0.930 . S
H996 C1006 0.930 . S
H997 C1007 0.930 . S
C998 H992 0.930 . S
C998 C999 1.355 . S
C998 C1000 1.415 . S
C999 C998 1.355 . S
C999 C1001 1.419 . S
C1000 C998 1.415 . S
C1000 C1005 1.425 . S
C1000 C1007 1.409 . S
C1001 H993 0.930 . S
C1001 C999 1.419 . S
C1001 C1002 1.362 . S
C1002 H994 0.930 . S
C1002 C1001 1.362 . S
C1002 C1005 1.409 . S
C1003 H995 0.930 . S
C1003 C1004 1.355 . S
C1003 C1005 1.415 . S
C1004 C1003 1.355 . S
C1004 C1006 1.419 . S
C1005 C1000 1.425 . S
C1005 C1002 1.409 . S
C1005 C1003 1.415 . S
C1006 H996 0.930 . S
C1006 C1004 1.419 . S
C1006 C1007 1.362 . S
C1007 H997 0.930 . S
C1007 C1000 1.409 . S
C1007 C1006 1.362 . S
H1008 C1014 0.930 . S
H1009 C1017 0.930 . S
H1010 C1018 0.930 . S
H1011 C1019 0.930 . S
H1012 C1022 0.930 . S
H1013 C1023 0.930 1_545 S
C1014 H1008 0.930 . S
C1014 C1015 1.355 . S
C1014 C1016 1.415 1_545 S
C1015 C1014 1.355 . S
C1015 C1017 1.419 1_545 S
C1016 C1014 1.415 1_565 S
C1016 C1021 1.425 . S
C1016 C1023 1.409 . S
C1017 H1009 0.930 . S
C1017 C1015 1.419 1_565 S
C1017 C1018 1.362 . S
C1018 H1010 0.930 . S
C1018 C1017 1.362 . S
C1018 C1021 1.409 . S
C1019 H1011 0.930 . S
C1019 C1020 1.355 . S
C1019 C1021 1.415 . S
C1020 C1019 1.355 . S
C1020 C1022 1.419 . S
C1021 C1016 1.425 . S
C1021 C1018 1.409 . S
C1021 C1019 1.415 . S
C1022 H1012 0.930 . S
C1022 C1020 1.419 . S
C1022 C1023 1.362 . S
C1023 H1013 0.930 1_565 S
C1023 C1016 1.409 . S
C1023 C1022 1.362 . S
H1024 C1030 0.930 . S
H1025 C1033 0.930 . S
H1026 C1034 0.930 . S
H1027 C1035 0.930 . S
H1028 C1038 0.930 . S
H1029 C1039 0.930 . S
C1030 H1024 0.930 . S
C1030 C1031 1.355 . S
C1030 C1032 1.415 . S
C1031 C1030 1.355 . S
C1031 C1033 1.419 . S
C1032 C1030 1.415 . S
C1032 C1037 1.425 . S
C1032 C1039 1.409 . S
C1033 H1025 0.930 . S
C1033 C1031 1.419 . S
C1033 C1034 1.362 . S
C1034 H1026 0.930 . S
C1034 C1033 1.362 . S
C1034 C1037 1.409 . S
C1035 H1027 0.930 . S
C1035 C1036 1.355 . S
C1035 C1037 1.415 . S
C1036 C1035 1.355 . S
C1036 C1038 1.419 . S
C1037 C1032 1.425 . S
C1037 C1034 1.409 . S
C1037 C1035 1.415 . S
C1038 H1028 0.930 . S
C1038 C1036 1.419 . S
C1038 C1039 1.362 . S
C1039 H1029 0.930 . S
C1039 C1032 1.409 . S
C1039 C1038 1.362 . S
H1040 C1046 0.930 . S
H1041 C1049 0.930 . S
H1042 C1050 0.930 . S
H1043 C1051 0.930 . S
H1044 C1054 0.930 1_556 S
H1045 C1055 0.930 . S
C1046 H1040 0.930 . S
C1046 C1047 1.355 . S
C1046 C1048 1.415 . S
C1047 C1046 1.355 . S
C1047 C1049 1.419 . S
C1048 C1046 1.415 . S
C1048 C1053 1.425 . S
C1048 C1055 1.409 . S
C1049 H1041 0.930 . S
C1049 C1047 1.419 . S
C1049 C1050 1.362 . S
C1050 H1042 0.930 . S
C1050 C1049 1.362 . S
C1050 C1053 1.409 . S
C1051 H1043 0.930 . S
C1051 C1052 1.355 . S
C1051 C1053 1.415 . S
C1052 C1051 1.355 . S
C1052 C1054 1.419 . S
C1053 C1048 1.425 . S
C1053 C1050 1.409 . S
C1053 C1051 1.415 . S
C1054 H1044 0.930 1_554 S
C1054 C1052 1.419 . S
C1054 C1055 1.362 . S
C1055 H1045 0.930 . S
C1055 C1048 1.409 . S
C1055 C1054 1.362 . S
H1056 C1062 0.930 . S
H1057 C1065 0.930 . S
H1058 C1066 0.930 . S
H1059 C1067 0.930 . S
H1060 C1070 0.929 . S
H1061 C1071 0.930 1_455 S
C1062 H1056 0.930 . S
C1062 C1063 1.355 . S
C1062 C1064 1.415 . S
C1063 C1062 1.355 . S
C1063 C1065 1.419 . S
C1064 C1062 1.415 . S
C1064 C1069 1.425 . S
C1064 C1071 1.409 . S
C1065 H1057 0.930 . S
C1065 C1063 1.419 . S
C1065 C1066 1.362 . S
C1066 H1058 0.930 . S
C1066 C1065 1.362 . S
C1066 C1069 1.409 . S
C1067 H1059 0.930 . S
C1067 C1068 1.355 . S
C1067 C1069 1.415 . S
C1068 C1067 1.355 . S
C1068 C1070 1.420 1_655 S
C1069 C1064 1.425 . S
C1069 C1066 1.409 . S
C1069 C1067 1.415 . S
C1070 H1060 0.929 . S
C1070 C1068 1.420 1_455 S
C1070 C1071 1.363 1_455 S
C1071 H1061 0.930 1_655 S
C1071 C1064 1.409 . S
C1071 C1070 1.363 1_655 S
H1072 C1078 0.930 . S
H1073 C1081 0.930 . S
H1074 C1082 0.930 . S
H1075 C1083 0.930 . S
H1076 C1086 0.930 . S
H1077 C1087 0.930 . S
C1078 H1072 0.930 . S
C1078 C1079 1.355 . S
C1078 C1080 1.415 . S
C1079 C1078 1.355 . S
C1079 C1081 1.419 . S
C1080 C1078 1.415 . S
C1080 C1085 1.425 . S
C1080 C1087 1.409 . S
C1081 H1073 0.930 . S
C1081 C1079 1.419 . S
C1081 C1082 1.362 . S
C1082 H1074 0.930 . S
C1082 C1081 1.362 . S
C1082 C1085 1.409 . S
C1083 H1075 0.930 . S
C1083 C1084 1.355 . S
C1083 C1085 1.415 . S
C1084 C1083 1.355 . S
C1084 C1086 1.419 . S
C1085 C1080 1.425 . S
C1085 C1082 1.409 . S
C1085 C1083 1.415 . S
C1086 H1076 0.930 . S
C1086 C1084 1.419 . S
C1086 C1087 1.362 . S
C1087 H1077 0.930 . S
C1087 C1080 1.409 . S
C1087 C1086 1.362 . S
H1088 C1094 0.930 . S
H1089 C1097 0.930 . S
H1090 C1098 0.930 . S
H1091 C1099 0.930 . S
H1092 C1102 0.930 . S
H1093 C1103 0.930 . S
C1094 H1088 0.930 . S
C1094 C1095 1.355 . S
C1094 C1096 1.415 . S
C1095 C1094 1.355 . S
C1095 C1097 1.419 . S
C1096 C1094 1.415 . S
C1096 C1101 1.425 . S
C1096 C1103 1.409 . S
C1097 H1089 0.930 . S
C1097 C1095 1.419 . S
C1097 C1098 1.362 . S
C1098 H1090 0.930 . S
C1098 C1097 1.362 . S
C1098 C1101 1.409 . S
C1099 H1091 0.930 . S
C1099 C1100 1.355 . S
C1099 C1101 1.415 . S
C1100 C1099 1.355 . S
C1100 C1102 1.419 . S
C1101 C1096 1.425 . S
C1101 C1098 1.409 . S
C1101 C1099 1.415 . S
C1102 H1092 0.930 . S
C1102 C1100 1.419 . S
C1102 C1103 1.362 . S
C1103 H1093 0.930 . S
C1103 C1096 1.409 . S
C1103 C1102 1.362 . S
H1104 C1110 0.930 . S
H1105 C1113 0.930 . S
H1106 C1114 0.930 . S
H1107 C1115 0.930 . S
H1108 C1118 0.930 . S
H1109 C1119 0.930 . S
C1110 H1104 0.930 . S
C1110 C1111 1.355 . S
C1110 C1112 1.415 . S
C1111 C1110 1.355 . S
C1111 C1113 1.419 . S
C1112 C1110 1.415 . S
C1112 C1117 1.425 . S
C1112 C1119 1.409 . S
C1113 H1105 0.930 . S
C1113 C1111 1.419 . S
C1113 C1114 1.362 . S
C1114 H1106 0.930 . S
C1114 C1113 1.362 . S
C1114 C1117 1.409 . S
C1115 H1107 0.930 . S
C1115 C1116 1.355 . S
C1115 C1117 1.415 . S
C1116 C1115 1.355 . S
C1116 C1118 1.419 . S
C1117 C1112 1.425 . S
C1117 C1114 1.409 . S
C1117 C1115 1.415 . S
C1118 H1108 0.930 . S
C1118 C1116 1.419 . S
C1118 C1119 1.362 . S
C1119 H1109 0.930 . S
C1119 C1112 1.409 . S
C1119 C1118 1.362 . S
H1120 C1126 0.930 . S
H1121 C1129 0.930 . S
H1122 C1130 0.930 . S
H1123 C1131 0.930 . S
H1124 C1134 0.930 . S
H1125 C1135 0.930 . S
C1126 H1120 0.930 . S
C1126 C1127 1.355 . S
C1126 C1128 1.415 . S
C1127 C1126 1.355 . S
C1127 C1129 1.419 . S
C1128 C1126 1.415 . S
C1128 C1133 1.425 . S
C1128 C1135 1.409 . S
C1129 H1121 0.930 . S
C1129 C1127 1.419 . S
C1129 C1130 1.362 . S
C1130 H1122 0.930 . S
C1130 C1129 1.362 . S
C1130 C1133 1.409 . S
C1131 H1123 0.930 . S
C1131 C1132 1.355 . S
C1131 C1133 1.415 . S
C1132 C1131 1.355 . S
C1132 C1134 1.419 . S
C1133 C1128 1.425 . S
C1133 C1130 1.409 . S
C1133 C1131 1.415 . S
C1134 H1124 0.930 . S
C1134 C1132 1.419 . S
C1134 C1135 1.362 . S
C1135 H1125 0.930 . S
C1135 C1128 1.409 . S
C1135 C1134 1.362 . S
H1136 C1142 0.930 . S
H1137 C1145 0.930 . S
H1138 C1146 0.930 . S
H1139 C1147 0.930 . S
H1140 C1150 0.930 . S
H1141 C1151 0.930 . S
C1142 H1136 0.930 . S
C1142 C1143 1.355 . S
C1142 C1144 1.415 . S
C1143 C1142 1.355 . S
C1143 C1145 1.419 . S
C1144 C1142 1.415 . S
C1144 C1149 1.425 . S
C1144 C1151 1.409 . S
C1145 H1137 0.930 . S
C1145 C1143 1.419 . S
C1145 C1146 1.362 . S
C1146 H1138 0.930 . S
C1146 C1145 1.362 . S
C1146 C1149 1.409 . S
C1147 H1139 0.930 . S
C1147 C1148 1.355 . S
C1147 C1149 1.415 . S
C1148 C1147 1.355 . S
C1148 C1150 1.419 . S
C1149 C1144 1.425 . S
C1149 C1146 1.409 . S
C1149 C1147 1.415 . S
C1150 H1140 0.930 . S
C1150 C1148 1.419 . S
C1150 C1151 1.362 . S
C1151 H1141 0.930 . S
C1151 C1144 1.409 . S
C1151 C1150 1.362 . S
H1152 C1158 0.930 . S
H1153 C1161 0.930 1_655 S
H1154 C1162 0.930 . S
H1155 C1163 0.930 . S
H1156 C1166 0.930 . S
H1157 C1167 0.930 . S
C1158 H1152 0.930 . S
C1158 C1159 1.355 . S
C1158 C1160 1.415 . S
C1159 C1158 1.355 . S
C1159 C1161 1.419 . S
C1160 C1158 1.415 . S
C1160 C1165 1.425 . S
C1160 C1167 1.409 . S
C1161 H1153 0.930 1_455 S
C1161 C1159 1.419 . S
C1161 C1162 1.362 . S
C1162 H1154 0.930 . S
C1162 C1161 1.362 . S
C1162 C1165 1.409 . S
C1163 H1155 0.930 . S
C1163 C1164 1.355 . S
C1163 C1165 1.415 . S
C1164 C1163 1.355 . S
C1164 C1166 1.419 . S
C1165 C1160 1.425 . S
C1165 C1162 1.409 . S
C1165 C1163 1.415 . S
C1166 H1156 0.930 . S
C1166 C1164 1.419 . S
C1166 C1167 1.362 . S
C1167 H1157 0.930 . S
C1167 C1160 1.409 . S
C1167 C1166 1.362 . S
H1168 C1174 0.930 . S
H1169 C1177 0.930 . S
H1170 C1178 0.930 . S
H1171 C1179 0.930 . S
H1172 C1182 0.930 . S
H1173 C1183 0.930 . S
C1174 H1168 0.930 . S
C1174 C1175 1.355 . S
C1174 C1176 1.415 . S
C1175 C1174 1.355 . S
C1175 C1177 1.419 . S
C1176 C1174 1.415 . S
C1176 C1181 1.425 . S
C1176 C1183 1.409 . S
C1177 H1169 0.930 . S
C1177 C1175 1.419 . S
C1177 C1178 1.362 . S
C1178 H1170 0.930 . S
C1178 C1177 1.362 . S
C1178 C1181 1.409 . S
C1179 H1171 0.930 . S
C1179 C1180 1.355 . S
C1179 C1181 1.415 . S
C1180 C1179 1.355 . S
C1180 C1182 1.419 . S
C1181 C1176 1.425 . S
C1181 C1178 1.409 . S
C1181 C1179 1.415 . S
C1182 H1172 0.930 . S
C1182 C1180 1.419 . S
C1182 C1183 1.362 . S
C1183 H1173 0.930 . S
C1183 C1176 1.409 . S
C1183 C1182 1.362 . S
H1184 C1190 0.930 . S
H1185 C1193 0.930 . S
H1186 C1194 0.930 . S
H1187 C1195 0.930 . S
H1188 C1198 0.930 . S
H1189 C1199 0.930 . S
C1190 H1184 0.930 . S
C1190 C1191 1.355 . S
C1190 C1192 1.415 . S
C1191 C1190 1.355 . S
C1191 C1193 1.419 . S
C1192 C1190 1.415 . S
C1192 C1197 1.425 . S
C1192 C1199 1.409 . S
C1193 H1185 0.930 . S
C1193 C1191 1.419 . S
C1193 C1194 1.362 . S
C1194 H1186 0.930 . S
C1194 C1193 1.362 . S
C1194 C1197 1.409 . S
C1195 H1187 0.930 . S
C1195 C1196 1.355 . S
C1195 C1197 1.415 . S
C1196 C1195 1.355 . S
C1196 C1198 1.419 . S
C1197 C1192 1.425 . S
C1197 C1194 1.409 . S
C1197 C1195 1.415 . S
C1198 H1188 0.930 . S
C1198 C1196 1.419 . S
C1198 C1199 1.362 . S
C1199 H1189 0.930 . S
C1199 C1192 1.409 . S
C1199 C1198 1.362 . S
H1200 C1206 0.930 . S
H1201 C1209 0.930 1_556 S
H1202 C1210 0.930 . S
H1203 C1211 0.930 . S
H1204 C1214 0.930 . S
H1205 C1215 0.930 . S
C1206 H1200 0.930 . S
C1206 C1207 1.355 . S
C1206 C1208 1.415 . S
C1207 C1206 1.355 . S
C1207 C1209 1.419 . S
C1208 C1206 1.415 . S
C1208 C1213 1.425 . S
C1208 C1215 1.409 . S
C1209 H1201 0.930 1_554 S
C1209 C1207 1.419 . S
C1209 C1210 1.362 . S
C1210 H1202 0.930 . S
C1210 C1209 1.362 . S
C1210 C1213 1.409 . S
C1211 H1203 0.930 . S
C1211 C1212 1.355 . S
C1211 C1213 1.415 . S
C1212 C1211 1.355 . S
C1212 C1214 1.419 . S
C1213 C1208 1.425 . S
C1213 C1210 1.409 . S
C1213 C1211 1.415 . S
C1214 H1204 0.930 . S
C1214 C1212 1.419 . S
C1214 C1215 1.362 . S
C1215 H1205 0.930 . S
C1215 C1208 1.409 . S
C1215 C1214 1.362 . S
H1216 C1222 0.930 . S
H1217 C1225 0.932 1_455 S
H1218 C1226 0.930 1_455 S
H1219 C1227 0.930 . S
H1220 C1230 0.930 . S
H1221 C1231 0.930 . S
C1222 H1216 0.930 . S
C1222 C1223 1.355 . S
C1222 C1224 1.415 . S
C1223 C1222 1.355 . S
C1223 C1225 1.417 . S
C1224 C1222 1.415 . S
C1224 C1229 1.425 . S
C1224 C1231 1.409 . S
C1225 H1217 0.932 1_655 S
C1225 C1223 1.417 . S
C1225 C1226 1.361 . S
C1226 H1218 0.930 1_655 S
C1226 C1225 1.361 . S
C1226 C1229 1.409 . S
C1227 H1219 0.930 . S
C1227 C1228 1.355 . S
C1227 C1229 1.415 . S
C1228 C1227 1.355 . S
C1228 C1230 1.419 . S
C1229 C1224 1.425 . S
C1229 C1226 1.409 . S
C1229 C1227 1.415 . S
C1230 H1220 0.930 . S
C1230 C1228 1.419 . S
C1230 C1231 1.362 . S
C1231 H1221 0.930 . S
C1231 C1224 1.409 . S
C1231 C1230 1.362 . S
H1232 C1238 0.930 . S
H1233 C1241 0.930 . S
H1234 C1242 0.930 . S
H1235 C1243 0.930 . S
H1236 C1246 0.930 . S
H1237 C1247 0.930 . S
C1238 H1232 0.930 . S
C1238 C1239 1.355 . S
C1238 C1240 1.415 . S
C1239 C1238 1.355 . S
C1239 C1241 1.419 . S
C1240 C1238 1.415 . S
C1240 C1245 1.425 . S
C1240 C1247 1.409 . S
C1241 H1233 0.930 . S
C1241 C1239 1.419 . S
C1241 C1242 1.362 . S
C1242 H1234 0.930 . S
C1242 C1241 1.362 . S
C1242 C1245 1.409 . S
C1243 H1235 0.930 . S
C1243 C1244 1.355 . S
C1243 C1245 1.415 . S
C1244 C1243 1.355 . S
C1244 C1246 1.419 . S
C1245 C1240 1.425 . S
C1245 C1242 1.409 . S
C1245 C1243 1.415 . S
C1246 H1236 0.930 . S
C1246 C1244 1.419 . S
C1246 C1247 1.362 . S
C1247 H1237 0.930 . S
C1247 C1240 1.409 . S
C1247 C1246 1.362 . S
H1248 C1254 0.930 . S
H1249 C1257 0.930 . S
H1250 C1258 0.930 . S
H1251 C1259 0.930 . S
H1252 C1262 0.930 . S
H1253 C1263 0.930 . S
C1254 H1248 0.930 . S
C1254 C1255 1.355 . S
C1254 C1256 1.415 . S
C1255 C1254 1.355 . S
C1255 C1257 1.419 . S
C1256 C1254 1.415 . S
C1256 C1261 1.425 . S
C1256 C1263 1.409 . S
C1257 H1249 0.930 . S
C1257 C1255 1.419 . S
C1257 C1258 1.362 . S
C1258 H1250 0.930 . S
C1258 C1257 1.362 . S
C1258 C1261 1.409 . S
C1259 H1251 0.930 . S
C1259 C1260 1.355 . S
C1259 C1261 1.415 . S
C1260 C1259 1.355 . S
C1260 C1262 1.419 . S
C1261 C1256 1.425 . S
C1261 C1258 1.409 . S
C1261 C1259 1.415 . S
C1262 H1252 0.930 . S
C1262 C1260 1.419 . S
C1262 C1263 1.362 . S
C1263 H1253 0.930 . S
C1263 C1256 1.409 . S
C1263 C1262 1.362 . S
H1264 C1270 0.930 . S
H1265 C1273 0.930 . S
H1266 C1274 0.930 . S
H1267 C1275 0.930 . S
H1268 C1278 0.930 . S
H1269 C1279 0.930 . S
C1270 H1264 0.930 . S
C1270 C1271 1.355 . S
C1270 C1272 1.415 . S
C1271 C1270 1.355 . S
C1271 C1273 1.419 . S
C1272 C1270 1.415 . S
C1272 C1277 1.425 . S
C1272 C1279 1.409 . S
C1273 H1265 0.930 . S
C1273 C1271 1.419 . S
C1273 C1274 1.362 . S
C1274 H1266 0.930 . S
C1274 C1273 1.362 . S
C1274 C1277 1.409 . S
C1275 H1267 0.930 . S
C1275 C1276 1.355 . S
C1275 C1277 1.415 . S
C1276 C1275 1.355 . S
C1276 C1278 1.419 . S
C1277 C1272 1.425 . S
C1277 C1274 1.409 . S
C1277 C1275 1.415 . S
C1278 H1268 0.930 . S
C1278 C1276 1.419 . S
C1278 C1279 1.362 . S
C1279 H1269 0.930 . S
C1279 C1272 1.409 . S
C1279 C1278 1.362 . S
H1280 C1286 0.930 . S
H1281 C1289 0.930 . S
H1282 C1290 0.930 . S
H1283 C1291 0.930 . S
H1284 C1294 0.930 . S
H1285 C1295 0.930 . S
C1286 H1280 0.930 . S
C1286 C1287 1.355 . S
C1286 C1288 1.415 . S
C1287 C1286 1.355 . S
C1287 C1289 1.419 . S
C1288 C1286 1.415 . S
C1288 C1293 1.425 . S
C1288 C1295 1.409 . S
C1289 H1281 0.930 . S
C1289 C1287 1.419 . S
C1289 C1290 1.362 . S
C1290 H1282 0.930 . S
C1290 C1289 1.362 . S
C1290 C1293 1.409 . S
C1291 H1283 0.930 . S
C1291 C1292 1.355 . S
C1291 C1293 1.415 . S
C1292 C1291 1.355 . S
C1292 C1294 1.419 . S
C1293 C1288 1.425 . S
C1293 C1290 1.409 . S
C1293 C1291 1.415 . S
C1294 H1284 0.930 . S
C1294 C1292 1.419 . S
C1294 C1295 1.362 . S
C1295 H1285 0.930 . S
C1295 C1288 1.409 . S
C1295 C1294 1.362 . S
H1296 C1302 0.930 . S
H1297 C1305 0.930 . S
H1298 C1306 0.930 . S
H1299 C1307 0.930 . S
H1300 C1310 0.930 . S
H1301 C1311 0.930 . S
C1302 H1296 0.930 . S
C1302 C1303 1.355 . S
C1302 C1304 1.415 . S
C1303 C1302 1.355 . S
C1303 C1305 1.419 . S
C1304 C1302 1.415 . S
C1304 C1309 1.425 . S
C1304 C1311 1.409 . S
C1305 H1297 0.930 . S
C1305 C1303 1.419 . S
C1305 C1306 1.362 . S
C1306 H1298 0.930 . S
C1306 C1305 1.362 . S
C1306 C1309 1.409 . S
C1307 H1299 0.930 . S
C1307 C1308 1.355 . S
C1307 C1309 1.415 . S
C1308 C1307 1.355 . S
C1308 C1310 1.419 . S
C1309 C1304 1.425 . S
C1309 C1306 1.409 . S
C1309 C1307 1.415 . S
C1310 H1300 0.930 . S
C1310 C1308 1.419 . S
C1310 C1311 1.362 . S
C1311 H1301 0.930 . S
C1311 C1304 1.409 . S
C1311 C1310 1.362 . S
H1312 C1318 0.930 . S
H1313 C1321 0.930 . S
H1314 C1322 0.930 . S
H1315 C1323 0.930 . S
H1316 C1326 0.930 . S
H1317 C1327 0.930 . S
C1318 H1312 0.930 . S
C1318 C1319 1.355 . S
C1318 C1320 1.415 . S
C1319 C1318 1.355 . S
C1319 C1321 1.419 . S
C1320 C1318 1.415 . S
C1320 C1325 1.425 . S
C1320 C1327 1.409 . S
C1321 H1313 0.930 . S
C1321 C1319 1.419 . S
C1321 C1322 1.362 . S
C1322 H1314 0.930 . S
C1322 C1321 1.362 . S
C1322 C1325 1.409 . S
C1323 H1315 0.930 . S
C1323 C1324 1.355 . S
C1323 C1325 1.415 . S
C1324 C1323 1.355 . S
C1324 C1326 1.419 . S
C1325 C1320 1.425 . S
C1325 C1322 1.409 . S
C1325 C1323 1.415 . S
C1326 H1316 0.930 . S
C1326 C1324 1.419 . S
C1326 C1327 1.362 . S
C1327 H1317 0.930 . S
C1327 C1320 1.409 . S
C1327 C1326 1.362 . S
H1328 C1334 0.930 . S
H1329 C1337 0.930 . S
H1330 C1338 0.930 . S
H1331 C1339 0.930 . S
H1332 C1342 0.930 . S
H1333 C1343 0.930 . S
C1334 H1328 0.930 . S
C1334 C1335 1.355 . S
C1334 C1336 1.415 1_554 S
C1335 C1334 1.355 . S
C1335 C1337 1.419 . S
C1336 C1334 1.415 1_556 S
C1336 C1341 1.425 1_456 S
C1336 C1343 1.409 . S
C1337 H1329 0.930 . S
C1337 C1335 1.419 . S
C1337 C1338 1.362 1_455 S
C1338 H1330 0.930 . S
C1338 C1337 1.362 1_655 S
C1338 C1341 1.409 . S
C1339 H1331 0.930 . S
C1339 C1340 1.355 . S
C1339 C1341 1.415 1_556 S
C1340 C1339 1.355 . S
C1340 C1342 1.419 . S
C1341 C1336 1.425 1_654 S
C1341 C1338 1.409 . S
C1341 C1339 1.415 1_554 S
C1342 H1332 0.930 . S
C1342 C1340 1.419 . S
C1342 C1343 1.362 1_655 S
C1343 H1333 0.930 . S
C1343 C1336 1.409 . S
C1343 C1342 1.362 1_455 S
H1344 C1350 0.930 . S
H1345 C1353 0.930 . S
H1346 C1354 0.930 . S
H1347 C1355 0.930 . S
H1348 C1358 0.930 . S
H1349 C1359 0.930 . S
C1350 H1344 0.930 . S
C1350 C1351 1.355 . S
C1350 C1352 1.415 . S
C1351 C1350 1.355 . S
C1351 C1353 1.419 . S
C1352 C1350 1.415 . S
C1352 C1357 1.425 . S
C1352 C1359 1.409 . S
C1353 H1345 0.930 . S
C1353 C1351 1.419 . S
C1353 C1354 1.362 . S
C1354 H1346 0.930 . S
C1354 C1353 1.362 . S
C1354 C1357 1.409 . S
C1355 H1347 0.930 . S
C1355 C1356 1.355 . S
C1355 C1357 1.415 . S
C1356 C1355 1.355 . S
C1356 C1358 1.419 . S
C1357 C1352 1.425 . S
C1357 C1354 1.409 . S
C1357 C1355 1.415 . S
C1358 H1348 0.930 . S
C1358 C1356 1.419 . S
C1358 C1359 1.362 . S
C1359 H1349 0.930 . S
C1359 C1352 1.409 . S
C1359 C1358 1.362 . S
H1360 C1366 0.930 . S
H1361 C1369 0.930 . S
H1362 C1370 0.930 . S
H1363 C1371 0.930 . S
H1364 C1374 0.930 . S
H1365 C1375 0.930 . S
C1366 H1360 0.930 . S
C1366 C1367 1.355 . S
C1366 C1368 1.415 . S
C1367 C1366 1.355 . S
C1367 C1369 1.419 . S
C1368 C1366 1.415 . S
C1368 C1373 1.425 . S
C1368 C1375 1.409 . S
C1369 H1361 0.930 . S
C1369 C1367 1.419 . S
C1369 C1370 1.362 . S
C1370 H1362 0.930 . S
C1370 C1369 1.362 . S
C1370 C1373 1.409 . S
C1371 H1363 0.930 . S
C1371 C1372 1.355 . S
C1371 C1373 1.415 . S
C1372 C1371 1.355 . S
C1372 C1374 1.419 . S
C1373 C1368 1.425 . S
C1373 C1370 1.409 . S
C1373 C1371 1.415 . S
C1374 H1364 0.930 . S
C1374 C1372 1.419 . S
C1374 C1375 1.362 . S
C1375 H1365 0.930 . S
C1375 C1368 1.409 . S
C1375 C1374 1.362 . S
H1376 C1382 0.930 . S
H1377 C1385 0.930 . S
H1378 C1386 0.930 . S
H1379 C1387 0.930 . S
H1380 C1390 0.930 . S
H1381 C1391 0.930 . S
C1382 H1376 0.930 . S
C1382 C1383 1.355 1_545 S
C1382 C1384 1.415 1_455 S
C1383 C1382 1.355 1_565 S
C1383 C1385 1.419 . S
C1384 C1382 1.415 1_655 S
C1384 C1389 1.425 1_646 S
C1384 C1391 1.409 . S
C1385 H1377 0.930 . S
C1385 C1383 1.419 . S
C1385 C1386 1.362 1_556 S
C1386 H1378 0.930 . S
C1386 C1385 1.362 1_554 S
C1386 C1389 1.409 . S
C1387 H1379 0.930 . S
C1387 C1388 1.355 1_565 S
C1387 C1389 1.415 1_655 S
C1388 C1387 1.355 1_545 S
C1388 C1390 1.419 . S
C1389 C1384 1.425 1_464 S
C1389 C1386 1.409 . S
C1389 C1387 1.415 1_455 S
C1390 H1380 0.930 . S
C1390 C1388 1.419 . S
C1390 C1391 1.362 1_554 S
C1391 H1381 0.930 . S
C1391 C1384 1.409 . S
C1391 C1390 1.362 1_556 S
H1392 C1398 0.930 . S
H1393 C1401 0.930 . S
H1394 C1402 0.930 . S
H1395 C1403 0.930 . S
H1396 C1406 0.930 . S
H1397 C1407 0.930 . S
C1398 H1392 0.930 . S
C1398 C1399 1.355 . S
C1398 C1400 1.415 . S
C1399 C1398 1.355 . S
C1399 C1401 1.419 1_565 S
C1400 C1398 1.415 . S
C1400 C1405 1.425 1_565 S
C1400 C1407 1.409 . S
C1401 H1393 0.930 . S
C1401 C1399 1.419 1_545 S
C1401 C1402 1.362 . S
C1402 H1394 0.930 . S
C1402 C1401 1.362 . S
C1402 C1405 1.409 . S
C1403 H1395 0.930 . S
C1403 C1404 1.355 . S
C1403 C1405 1.415 . S
C1404 C1403 1.355 . S
C1404 C1406 1.419 1_545 S
C1405 C1400 1.425 1_545 S
C1405 C1402 1.409 . S
C1405 C1403 1.415 . S
C1406 H1396 0.930 . S
C1406 C1404 1.419 1_565 S
C1406 C1407 1.362 . S
C1407 H1397 0.930 . S
C1407 C1400 1.409 . S
C1407 C1406 1.362 . S
C647 C10 3.407 . S
C652 C410 3.405 . S
C663 C50 3.409 . S
C668 C450 3.408 . S
C679 C90 3.388 . S
C684 C330 3.386 . S
C695 C130 3.378 . S
C700 C370 3.378 . S
C711 C179 3.395 . S
C716 C579 3.392 . S
C727 C219 3.378 . S
C732 C619 3.378 . S
C743 C259 3.381 . S
C748 C499 3.380 . S
C759 C299 3.394 . S
C764 C539 3.392 . S
C775 C369 3.758 . S
C780 C19 3.700 1_556 S
C791 C409 3.751 . S
C796 C59 3.698 . S
C807 C449 3.750 . S
C812 C99 3.699 . S
C823 C329 3.773 . S
C828 C139 3.672 . S
C839 C170 3.675 1_554 S
C844 C538 3.774 . S
C855 C578 3.775 . S
C860 C210 3.674 . S
C871 C618 3.749 . S
C876 C250 3.709 . S
C887 C498 3.753 . S
C892 C290 3.696 . S
C903 C49 3.747 . S
C908 C339 3.707 . S
C919 C379 3.686 . S
C924 C89 3.759 . S
C935 C419 3.679 1_556 S
C940 C129 3.773 . S
C951 C459 3.691 . S
C956 C9 3.766 . S
C967 C490 3.688 . S
C972 C218 3.768 . S
C983 C258 3.765 . S
C988 C530 3.679 . S
C999 C298 3.768 . S
C1004 C570 3.687 1_554 S
C1015 C610 3.707 . S
C1020 C178 3.747 . S
C1031 C6 0.390 . S
C1036 C609 0.218 . S
C1047 C46 0.623 . S
C1052 C169 0.367 . S
C1063 C529 0.413 . S
C1068 C86 0.517 . S
C1079 C249 0.352 . S
C1084 C126 0.416 . S
C1095 C175 0.546 . S
C1100 C458 0.424 . S
C1111 C215 0.363 . S
C1116 C18 0.254 . S
C1127 C378 0.274 . S
C1132 C255 0.550 . S
C1143 C98 0.310 . S
C1148 C295 0.585 . S
C1159 C326 0.400 . S
C1164 C289 0.213 . S
C1175 C366 0.433 . S
C1180 C489 0.366 . S
C1191 C209 0.424 . S
C1196 C406 0.622 . S
C1207 C569 0.268 . S
C1212 C446 0.543 . S
C1223 C495 0.518 . S
C1228 C138 0.413 . S
C1239 C535 0.610 . S
C1244 C338 0.430 . S
C1255 C575 0.607 . S
C1260 C58 0.339 . S
C1271 C418 0.228 . S
C1276 C615 0.376 . S
C1287 C15 1.849 . S
C1292 C486 1.849 . S
C1303 C55 1.868 . S
C1308 C206 1.868 . S
C1319 C95 1.833 . S
C1324 C566 1.833 . S
C1335 C286 1.839 . S
C1340 C135 1.839 . S
C1351 C166 1.880 . S
C1356 C335 1.880 . S
C1367 C415 1.875 . S
C1372 C246 1.875 . S
C1383 C375 1.878 1_565 S
C1388 C526 1.878 1_545 S
C1399 C606 1.807 1_565 S
C1404 C455 1.807 1_545 S
