# Generated by pormake.
# Topology usf, (4)-cn, num edge types: 1
# Building blocks:
#     Node 0, Type 0, BuildingBlock: MUDLON_clean_sbu_0, # of connection points: 4
#     Node 1, Type 0, BuildingBlock: MUDLON_clean_sbu_0, # of connection points: 4
#     Node 2, Type 0, BuildingBlock: MUDLON_clean_sbu_0, # of connection points: 4
#     Node 3, Type 0, BuildingBlock: MUDLON_clean_sbu_0, # of connection points: 4
#     Node 4, Type 0, BuildingBlock: MUDLON_clean_sbu_0, # of connection points: 4
#     Node 5, Type 0, BuildingBlock: MUDLON_clean_sbu_0, # of connection points: 4
#     Node 6, Type 0, BuildingBlock: MUDLON_clean_sbu_0, # of connection points: 4
#     Node 7, Type 0, BuildingBlock: MUDLON_clean_sbu_0, # of connection points: 4
#     Node 8, Type 0, BuildingBlock: MUDLON_clean_sbu_0, # of connection points: 4
#     Node 9, Type 0, BuildingBlock: MUDLON_clean_sbu_0, # of connection points: 4
#     Node 10, Type 0, BuildingBlock: MUDLON_clean_sbu_0, # of connection points: 4
#     Node 11, Type 0, BuildingBlock: MUDLON_clean_sbu_0, # of connection points: 4
#     Node 12, Type 0, BuildingBlock: MUDLON_clean_sbu_0, # of connection points: 4
#     Node 13, Type 0, BuildingBlock: MUDLON_clean_sbu_0, # of connection points: 4
#     Node 14, Type 0, BuildingBlock: MUDLON_clean_sbu_0, # of connection points: 4
#     Node 15, Type 0, BuildingBlock: MUDLON_clean_sbu_0, # of connection points: 4
#     Node 16, Type 0, BuildingBlock: MUDLON_clean_sbu_0, # of connection points: 4
#     Node 17, Type 0, BuildingBlock: MUDLON_clean_sbu_0, # of connection points: 4
#     Edge 18, Type (0, 0), BuildingBlock: UVAHIK_clean_linker_0, # of connection points: 2
#     Edge 19, Type (0, 0), BuildingBlock: UVAHIK_clean_linker_0, # of connection points: 2
#     Edge 20, Type (0, 0), BuildingBlock: UVAHIK_clean_linker_0, # of connection points: 2
#     Edge 21, Type (0, 0), BuildingBlock: UVAHIK_clean_linker_0, # of connection points: 2
#     Edge 22, Type (0, 0), BuildingBlock: UVAHIK_clean_linker_0, # of connection points: 2
#     Edge 23, Type (0, 0), BuildingBlock: UVAHIK_clean_linker_0, # of connection points: 2
#     Edge 24, Type (0, 0), BuildingBlock: UVAHIK_clean_linker_0, # of connection points: 2
#     Edge 25, Type (0, 0), BuildingBlock: UVAHIK_clean_linker_0, # of connection points: 2
#     Edge 26, Type (0, 0), BuildingBlock: UVAHIK_clean_linker_0, # of connection points: 2
#     Edge 27, Type (0, 0), BuildingBlock: UVAHIK_clean_linker_0, # of connection points: 2
#     Edge 28, Type (0, 0), BuildingBlock: UVAHIK_clean_linker_0, # of connection points: 2
#     Edge 29, Type (0, 0), BuildingBlock: UVAHIK_clean_linker_0, # of connection points: 2
#     Edge 30, Type (0, 0), BuildingBlock: UVAHIK_clean_linker_0, # of connection points: 2
#     Edge 31, Type (0, 0), BuildingBlock: UVAHIK_clean_linker_0, # of connection points: 2
#     Edge 32, Type (0, 0), BuildingBlock: UVAHIK_clean_linker_0, # of connection points: 2
#     Edge 33, Type (0, 0), BuildingBlock: UVAHIK_clean_linker_0, # of connection points: 2
#     Edge 34, Type (0, 0), BuildingBlock: UVAHIK_clean_linker_0, # of connection points: 2
#     Edge 35, Type (0, 0), BuildingBlock: UVAHIK_clean_linker_0, # of connection points: 2
#     Edge 36, Type (0, 0), BuildingBlock: UVAHIK_clean_linker_0, # of connection points: 2
#     Edge 37, Type (0, 0), BuildingBlock: UVAHIK_clean_linker_0, # of connection points: 2
#     Edge 38, Type (0, 0), BuildingBlock: UVAHIK_clean_linker_0, # of connection points: 2
#     Edge 39, Type (0, 0), BuildingBlock: UVAHIK_clean_linker_0, # of connection points: 2
#     Edge 40, Type (0, 0), BuildingBlock: UVAHIK_clean_linker_0, # of connection points: 2
#     Edge 41, Type (0, 0), BuildingBlock: UVAHIK_clean_linker_0, # of connection points: 2
#     Edge 42, Type (0, 0), BuildingBlock: UVAHIK_clean_linker_0, # of connection points: 2
#     Edge 43, Type (0, 0), BuildingBlock: UVAHIK_clean_linker_0, # of connection points: 2
#     Edge 44, Type (0, 0), BuildingBlock: UVAHIK_clean_linker_0, # of connection points: 2
#     Edge 45, Type (0, 0), BuildingBlock: UVAHIK_clean_linker_0, # of connection points: 2
#     Edge 46, Type (0, 0), BuildingBlock: UVAHIK_clean_linker_0, # of connection points: 2
#     Edge 47, Type (0, 0), BuildingBlock: UVAHIK_clean_linker_0, # of connection points: 2
#     Edge 48, Type (0, 0), BuildingBlock: UVAHIK_clean_linker_0, # of connection points: 2
#     Edge 49, Type (0, 0), BuildingBlock: UVAHIK_clean_linker_0, # of connection points: 2
#     Edge 50, Type (0, 0), BuildingBlock: UVAHIK_clean_linker_0, # of connection points: 2
#     Edge 51, Type (0, 0), BuildingBlock: UVAHIK_clean_linker_0, # of connection points: 2
#     Edge 52, Type (0, 0), BuildingBlock: UVAHIK_clean_linker_0, # of connection points: 2
#     Edge 53, Type (0, 0), BuildingBlock: UVAHIK_clean_linker_0, # of connection points: 2
# Relax obj value: 0.161
# Max RMSD: 0.154
# Mean RMSD: 0.149
data_MOF--net-usf--node1-MUDLON_clean_sbu_0--edge1-UVAHIK_clean_linker_0
_symmetry_space_group_name_H-M    P1
_symmetry_Int_Tables_number       1
_symmetry_cell_setting            triclinic
loop_
_symmetry_equiv_pos_as_xyz
'x, y, z'
_cell_length_a     63.866944
_cell_length_b     63.664327
_cell_length_c     37.634672
_cell_angle_alpha  89.710803
_cell_angle_beta   90.089183
_cell_angle_gamma 119.94133
loop_
_atom_site_label
_atom_site_type_symbol
_atom_site_fract_x
_atom_site_fract_y
_atom_site_fract_z
_atom_type_partial_charge
Mg0 Mg 1.01434 0.51105 0.0385 0.0
C1 C 0.04737 0.49098 0.0396 0.0
O2 O 0.02825 0.47462 0.05686 0.0
C3 C 1.00861 0.55554 0.02919 0.0
O4 O 1.0043 0.54761 0.99634 0.0
C5 C 0.99537 0.48026 0.97241 0.0
O6 O 0.99941 0.4653 0.99144 0.0
O7 O 0.99721 0.49905 0.98709 0.0
O8 O 0.04824 0.51076 0.03072 0.0
O9 O 0.99634 0.48758 0.08363 0.0
C10 C 0.98242 0.49149 0.1031 0.0
O11 O 0.97561 0.50672 0.09177 0.0
O12 O 1.01548 0.54516 0.0516 0.0
Mg13 Mg 0.52517 0.53253 0.03785 0.0
C14 C 0.54825 0.5824 0.00817 0.0
O15 O 0.52512 0.57352 0.00175 0.0
C16 C 0.53572 0.49713 0.07707 0.0
O17 O 0.54061 0.51284 0.10268 0.0
C18 C 0.48914 0.49889 0.9839 0.0
O19 O 0.49127 0.48285 0.00329 0.0
O20 O 0.49968 0.52086 0.99397 0.0
O21 O 0.5549 0.56879 0.02355 0.0
O22 O 0.51037 0.53401 0.08907 0.0
C23 C 0.52481 0.55006 0.1106 0.0
O24 O 0.54551 0.56748 0.09829 0.0
O25 O 0.53257 0.50271 0.04575 0.0
Mg26 Mg 0.50655 0.98583 0.04514 0.0
C27 C 0.52946 0.0181 0.98282 0.0
O28 O 0.54562 1.01176 0.99054 0.0
C29 C 0.48315 0.97232 0.11451 0.0
O30 O 0.48128 0.95221 0.10204 0.0
C31 C 0.47144 0.9508 0.99084 0.0
O32 O 0.4887 0.96526 0.96894 0.0
O33 O 0.47549 0.95318 0.02413 0.0
O34 O 0.51216 1.0124 0.00446 0.0
O35 O 0.54084 0.98642 0.0548 0.0
C36 C 0.55229 0.99695 0.083 0.0
O37 O 0.54215 1.00491 0.10545 0.0
O38 O 0.49346 0.99137 0.09539 0.0
Mg39 Mg 0.5134 1.01117 0.5423 0.0
C40 C 0.53776 0.98276 0.53042 0.0
O41 O 0.51658 0.96694 0.54353 0.0
C42 C 0.51337 0.0583 0.53245 0.0
O43 O 0.50525 0.04881 0.50103 0.0
C44 C 0.47668 0.97795 0.48498 0.0
O45 O 0.47824 0.96011 0.49994 0.0
O46 O 0.48785 0.99896 0.49859 0.0
O47 O 0.54302 1.00482 0.52767 0.0
O48 O 0.49944 0.99402 0.59322 0.0
C49 C 0.48632 1.00012 0.61072 0.0
O50 O 0.47781 1.01265 0.59457 0.0
O51 O 0.52145 0.04811 0.55314 0.0
Mg52 Mg 1.02203 0.52794 0.54234 0.0
C53 C 0.05609 0.58271 0.54399 0.0
O54 O 0.06512 0.57676 0.57106 0.0
C55 C 0.96988 0.48905 0.55053 0.0
O56 O 0.97363 0.48414 0.51809 0.0
C57 C 0.03684 0.52164 0.46925 0.0
O58 O 0.05407 0.54391 0.47581 0.0
O59 O 1.02181 0.50972 0.4937 0.0
O60 O 0.03715 0.56629 0.52885 0.0
O61 O 0.04144 0.52323 0.58584 0.0
C62 C 0.03255 0.50176 0.59789 0.0
O63 O 1.01636 0.48375 0.57871 0.0
O64 O 0.98576 0.50867 0.56484 0.0
Mg65 Mg 0.51416 0.51557 0.54033 0.0
C66 C 0.46438 0.49355 0.52077 0.0
O67 O 0.46811 0.47674 0.53476 0.0
C68 C 0.56208 0.54677 0.57064 0.0
O69 O 0.55495 0.52495 0.58332 0.0
C70 C 0.53932 0.50935 0.47807 0.0
O71 O 0.55677 0.5298 0.49082 0.0
O72 O 0.52052 0.49708 0.49693 0.0
O73 O 0.48198 0.51528 0.51998 0.0
O74 O 0.50292 0.49744 0.59159 0.0
C75 C 0.49589 0.50876 0.61163 0.0
O76 O 0.49624 0.5282 0.59891 0.0
O77 O 0.54766 0.54971 0.55051 0.0
Mg78 Mg 0.71989 0.8663 0.39666 0.0
C79 C 0.69246 0.89345 0.40173 0.0
O80 O 0.71247 0.90985 0.38634 0.0
C81 C 0.71697 0.817 0.38437 0.0
O82 O 0.72553 0.82026 0.41683 0.0
C83 C 0.72442 0.85451 0.47036 0.0
O84 O 0.70196 0.83883 0.4619 0.0
O85 O 0.73796 0.8698 0.44707 0.0
O86 O 0.68977 0.8726 0.4085 0.0
O87 O 0.74215 0.8916 0.35549 0.0
C88 C 0.72979 0.88898 0.32764 0.0
O89 O 0.70646 0.87342 0.32848 0.0
O90 O 0.7112 0.83192 0.3713 0.0
Mg91 Mg 0.19608 0.86268 0.36809 0.0
C92 C 0.18023 0.86629 0.29357 0.0
O93 O 0.19645 0.88919 0.29831 0.0
C94 C 0.15996 0.84253 0.42648 0.0
O95 O 0.15092 0.82409 0.40453 0.0
C96 C 0.22755 0.91699 0.37261 0.0
O97 O 0.20977 0.91314 0.39409 0.0
O98 O 0.22765 0.89878 0.35887 0.0
O99 O 0.17473 0.85165 0.31958 0.0
O100 O 0.20199 0.83274 0.38293 0.0
C101 C 0.19008 0.81281 0.3663 0.0
O102 O 0.17979 0.81284 0.3361 0.0
O103 O 0.17716 0.86282 0.41572 0.0
Mg104 Mg 0.18914 0.37986 0.31172 0.0
C105 C 0.2123 0.39393 0.24224 0.0
O106 O 0.21698 0.37727 0.25417 0.0
C107 C 0.17361 0.38359 0.38312 0.0
O108 O 0.16776 0.36074 0.38025 0.0
C109 C 0.13671 0.34215 0.30879 0.0
O110 O 0.1361 0.36089 0.32198 0.0
O111 O 0.15715 0.34414 0.30184 0.0
O112 O 0.19955 0.39967 0.26143 0.0
O113 O 0.2223 0.38194 0.33152 0.0
C114 C 0.2391 0.40405 0.33229 0.0
O115 O 0.23436 0.42061 0.32007 0.0
O116 O 0.18217 0.39736 0.35605 0.0
Mg117 Mg 0.22473 0.39986 0.82254 0.0
C118 C 0.18396 0.40776 0.84061 0.0
O119 O 0.19388 0.4223 0.81328 0.0
C120 C 0.23822 0.36461 0.79039 0.0
O121 O 0.23905 0.37719 0.76215 0.0
C122 C 0.26077 0.42046 0.88113 0.0
O123 O 0.26039 0.39988 0.87609 0.0
O124 O 0.25047 0.42712 0.85842 0.0
O125 O 0.19185 0.39367 0.84974 0.0
O126 O 0.2239 0.41234 0.76867 0.0
C127 C 0.205 0.39823 0.75115 0.0
O128 O 0.18839 0.37829 0.76667 0.0
O129 O 0.23173 0.3693 0.81994 0.0
Mg130 Mg 0.73767 0.88532 0.89866 0.0
C131 C 0.75111 0.86044 0.84156 0.0
O132 O 0.73488 0.84092 0.85828 0.0
C133 C 0.76028 0.91569 0.96438 0.0
O134 O 0.75044 0.92772 0.95069 0.0
C135 C 0.75147 0.93358 0.87218 0.0
O136 O 0.77169 0.93328 0.87726 0.0
O137 O 0.73156 0.91442 0.87931 0.0
O138 O 0.7572 0.88111 0.85452 0.0
O139 O 0.70639 0.84949 0.91089 0.0
C140 C 0.71133 0.83645 0.93122 0.0
O141 O 0.7335 0.8458 0.94331 0.0
O142 O 0.75867 0.89761 0.94766 0.0
Mg143 Mg 0.17554 0.82369 0.86376 0.0
C144 C 0.15636 0.79347 0.79786 0.0
O145 O 0.13582 0.78626 0.81454 0.0
C146 C 0.18024 0.80275 0.93318 0.0
O147 O 0.20261 0.81224 0.92182 0.0
C148 C 0.12737 0.82054 0.866 0.0
O149 O 0.12485 0.80456 0.89029 0.0
O150 O 0.14819 0.83386 0.85233 0.0
O151 O 0.17604 0.80644 0.81445 0.0
O152 O 0.21238 0.85256 0.87525 0.0
C153 C 0.22983 0.85559 0.85544 0.0
O154 O 0.22498 0.84382 0.82523 0.0
O155 O 0.16434 0.80204 0.91211 0.0
Mg156 Mg 0.41045 0.2306 0.72404 0.0
C157 C 0.37275 0.23967 0.75895 0.0
O158 O 0.38556 0.24083 0.78699 0.0
C159 C 0.40646 0.19389 0.66908 0.0
O160 O 0.40547 0.2096 0.64739 0.0
C161 C 0.41993 0.21383 0.79232 0.0
O162 O 0.40479 0.19365 0.77608 0.0
O163 O 0.42658 0.2339 0.77645 0.0
O164 O 0.37815 0.23431 0.72905 0.0
O165 O 0.43451 0.25628 0.68431 0.0
C166 C 0.42536 0.2642 0.66153 0.0
O167 O 0.40356 0.26068 0.6674 0.0
O168 O 0.40561 0.19664 0.70242 0.0
Mg169 Mg 0.85899 0.21136 0.68738 0.0
C170 C 0.86403 0.21874 0.60934 0.0
O171 O 0.88045 0.23996 0.62159 0.0
C172 C 0.91099 0.22973 0.72142 0.0
O173 O 0.93446 0.23981 0.71707 0.0
C174 C 0.86684 0.26065 0.71147 0.0
O175 O 0.88143 0.25893 0.73439 0.0
O176 O 0.85373 0.24261 0.69174 0.0
O177 O 0.85157 0.20186 0.63145 0.0
O178 O 0.83657 0.17953 0.72057 0.0
C179 C 0.8174 0.16118 0.7092 0.0
O180 O 0.80953 0.16201 0.67725 0.0
O181 O 0.89762 0.2245 0.69398 0.0
Mg182 Mg 0.86235 0.75431 0.65586 0.0
C183 C 0.88333 0.76071 0.58546 0.0
O184 O 0.88319 0.74164 0.59926 0.0
C185 C 0.84115 0.76385 0.71983 0.0
O186 O 0.82363 0.74242 0.71022 0.0
C187 C 0.81298 0.72616 0.62708 0.0
O188 O 0.82114 0.74811 0.61417 0.0
O189 O 0.82701 0.72217 0.6465 0.0
O190 O 0.87512 0.77165 0.60406 0.0
O191 O 0.89135 0.74917 0.6771 0.0
C192 C 0.91195 0.76819 0.67354 0.0
O193 O 0.91323 0.78681 0.65632 0.0
O194 O 0.85903 0.77523 0.69891 0.0
Mg195 Mg 0.87998 0.72834 0.15667 0.0
C196 C 0.82803 0.71771 0.17109 0.0
O197 O 0.82895 0.72434 0.13779 0.0
C198 C 0.90496 0.70461 0.12106 0.0
O199 O 0.91087 0.72336 0.1002 0.0
C200 C 0.91094 0.74654 0.22102 0.0
O201 O 0.90787 0.7246 0.21843 0.0
O202 O 0.90332 0.75444 0.19597 0.0
O203 O 0.84535 0.71553 0.18382 0.0
O204 O 0.87999 0.74532 0.10611 0.0
C205 C 0.86617 0.73159 0.08175 0.0
O206 O 0.85298 0.70821 0.08815 0.0
O207 O 0.8914 0.70136 0.14776 0.0
Mg208 Mg 0.42279 0.20965 0.2301 0.0
C209 C 0.43585 0.19045 0.16572 0.0
O210 O 0.41695 0.17022 0.17654 0.0
C211 C 0.45259 0.23959 0.29291 0.0
O212 O 0.45705 0.25756 0.27117 0.0
C213 C 0.41864 0.24611 0.18364 0.0
O214 O 0.41643 0.23034 0.15944 0.0
O215 O 0.41845 0.24065 0.21629 0.0
O216 O 0.44409 0.20901 0.18552 0.0
O217 O 0.39044 0.17379 0.23616 0.0
C218 C 0.38015 0.16712 0.26635 0.0
O219 O 0.38745 0.18302 0.29221 0.0
O220 O 0.44059 0.21794 0.28159 0.0
Mg221 Mg 0.85406 0.16573 0.16736 0.0
C222 C 0.85705 0.16942 0.09008 0.0
O223 O 0.85055 0.14678 0.0975 0.0
C224 C 0.83273 0.17064 0.23515 0.0
O225 O 0.81921 0.14741 0.22849 0.0
C226 C 0.80408 0.13543 0.14566 0.0
O227 O 0.80988 0.15804 0.13953 0.0
O228 O 0.82007 0.13143 0.15929 0.0
O229 O 0.86074 0.18385 0.11572 0.0
O230 O 0.88786 0.1664 0.18086 0.0
C231 C 0.894 0.16815 0.21341 0.0
O232 O 0.87786 0.16459 0.23781 0.0
O233 O 0.84832 0.18409 0.21208 0.0
C234 C 1.01172 0.49002 0.42418 0.0
C235 C 0.0321 0.51252 0.4323 0.0
C236 C 1.00491 0.48339 0.38882 0.0
C237 C 1.00887 0.51258 0.3037 0.0
H238 H 0.98574 0.44911 0.26222 0.0
C239 C 0.99138 0.47256 0.15522 0.0
C240 C 0.97968 0.48451 0.14115 0.0
C241 C 0.99392 0.4713 0.19197 0.0
C242 C 0.99208 0.46688 0.27356 0.0
H243 H 0.06228 0.54485 0.40958 0.0
H244 H 0.05041 0.53324 0.34809 0.0
H245 H 1.00045 0.4566 0.32376 0.0
H246 H 0.95922 0.50218 0.15475 0.0
H247 H 0.96351 0.49979 0.21875 0.0
H248 H 1.0009 0.5231 0.25383 0.0
C249 C 0.0395 0.52092 0.36907 0.0
C250 C 1.00043 0.47113 0.30871 0.0
C251 C 0.04637 0.52749 0.40432 0.0
C252 C 0.96861 0.49312 0.16464 0.0
C253 C 0.97118 0.49189 0.20133 0.0
C254 C 1.00035 0.50829 0.26888 0.0
C255 C 1.01829 0.49918 0.36099 0.0
C256 C 1.00918 0.49415 0.32394 0.0
C257 C 0.9848 0.48196 0.2153 0.0
C258 C 0.99198 0.48546 0.2533 0.0
H259 H 1.00038 0.47801 0.44512 0.0
H260 H 0.98848 0.46652 0.38336 0.0
H261 H 1.01515 0.53039 0.31488 0.0
H262 H 0.99999 0.46558 0.13788 0.0
H263 H 1.00449 0.46351 0.20192 0.0
C264 C 0.51659 0.4882 0.42284 0.0
C265 C 0.53831 0.50514 0.43925 0.0
C266 C 0.5139 0.48858 0.38595 0.0
C267 C 0.54775 0.51655 0.30175 0.0
H268 H 0.48786 0.51337 0.27301 0.0
C269 C 0.54076 0.56018 0.17251 0.0
C270 C 0.52195 0.54515 0.14936 0.0
C271 C 0.54091 0.55307 0.20759 0.0
C272 C 0.50456 0.51408 0.28062 0.0
H273 H 0.57491 0.53424 0.42942 0.0
H274 H 0.57017 0.53515 0.36568 0.0
H275 H 0.49236 0.50269 0.33387 0.0
H276 H 0.48759 0.51164 0.14579 0.0
H277 H 0.48764 0.49954 0.20763 0.0
H278 H 0.56025 0.52896 0.24886 0.0
C279 C 0.55517 0.52146 0.38097 0.0
C280 C 0.50713 0.50779 0.3154 0.0
C281 C 0.55788 0.52101 0.41772 0.0
C282 C 0.50237 0.52365 0.1629 0.0
C283 C 0.5024 0.51666 0.19825 0.0
C284 C 0.54528 0.52311 0.26721 0.0
C285 C 0.53286 0.50589 0.36473 0.0
C286 C 0.52895 0.5094 0.32661 0.0
C287 C 0.52211 0.53093 0.2205 0.0
C288 C 0.52385 0.52239 0.25651 0.0
H289 H 0.50117 0.47561 0.4386 0.0
H290 H 0.49665 0.47593 0.37424 0.0
H291 H 0.5646 0.51751 0.30913 0.0
H292 H 0.55607 0.57691 0.1631 0.0
H293 H 0.55609 0.56463 0.22444 0.0
C294 C 0.47708 0.99413 0.16545 0.0
C295 C 0.47494 0.97282 0.15107 0.0
C296 C 0.47086 0.99472 0.20094 0.0
C297 C 0.43996 0.9551 0.27963 0.0
H298 H 0.48651 1.01112 0.33268 0.0
C299 C 0.45951 0.9541 0.42913 0.0
C300 C 0.46632 0.97519 0.44894 0.0
C301 C 0.45439 0.95347 0.39287 0.0
C302 C 0.47303 0.99553 0.31823 0.0
H303 H 0.4638 0.9352 0.16231 0.0
H304 H 0.45363 0.93639 0.22399 0.0
H305 H 0.4894 1.01122 0.26837 0.0
H306 H 0.47085 1.01134 0.44698 0.0
H307 H 0.46185 1.01013 0.38388 0.0
H308 H 0.42439 0.93901 0.32999 0.0
C309 C 0.45963 0.95256 0.20792 0.0
C310 C 0.47466 0.99559 0.28126 0.0
C311 C 0.46571 0.95195 0.17252 0.0
C312 C 0.466 0.9949 0.4324 0.0
C313 C 0.46093 0.99428 0.39621 0.0
C314 C 0.43844 0.95497 0.3167 0.0
C315 C 0.46247 0.97403 0.22279 0.0
C316 C 0.45851 0.97516 0.26152 0.0
C317 C 0.45597 0.97391 0.37578 0.0
C318 C 0.45528 0.975 0.33643 0.0
H319 H 0.48397 1.01048 0.14952 0.0
H320 H 0.47295 1.01147 0.2114 0.0
H321 H 0.42692 0.93923 0.2652 0.0
H322 H 0.4595 0.93858 0.44106 0.0
H323 H 0.45072 0.93753 0.37781 0.0
C324 C 1.02386 0.47415 0.65021 0.0
C325 C 0.03474 0.4978 0.6362 0.0
C326 C 1.02133 0.47024 0.68694 0.0
C327 C 0.03952 0.50224 0.77451 0.0
H328 H 0.97758 0.44904 0.80529 0.0
C329 C 1.00011 0.4992 0.91245 0.0
C330 C 0.99497 0.47871 0.93315 0.0
C331 C 1.00451 0.49959 0.87607 0.0
C332 C 0.99499 0.46385 0.797 0.0
H333 H 0.05277 0.53593 0.6499 0.0
H334 H 0.04783 0.52919 0.71348 0.0
H335 H 0.98839 0.45357 0.74239 0.0
H336 H 0.98878 0.44199 0.93139 0.0
H337 H 0.9957 0.44248 0.86726 0.0
H338 H 0.04542 0.5131 0.82909 0.0
C339 C 0.04158 0.51356 0.69641 0.0
C340 C 1.00135 0.46638 0.76102 0.0
C341 C 0.04438 0.51747 0.65975 0.0
C342 C 0.99272 0.45804 0.91618 0.0
C343 C 0.9967 0.45831 0.87956 0.0
C344 C 0.03295 0.49994 0.8103 0.0
C345 C 0.02938 0.48987 0.71051 0.0
C346 C 1.0236 0.48581 0.7492 0.0
C347 C 1.0034 0.47937 0.85948 0.0
C348 C 1.01053 0.48091 0.82177 0.0
H349 H 1.01636 0.45859 0.63277 0.0
H350 H 1.01241 0.45176 0.69677 0.0
H351 H 0.05702 0.51708 0.7667 0.0
H352 H 1.00202 0.51546 0.9246 0.0
H353 H 1.00935 0.51593 0.86098 0.0
C354 C 0.48248 0.51552 0.67048 0.0
C355 C 0.48837 0.50127 0.64888 0.0
C356 C 0.47647 0.5096 0.70612 0.0
C357 C 0.48519 0.47681 0.78014 0.0
H358 H 0.44123 0.49292 0.82779 0.0
C359 C 0.47463 0.47063 0.93208 0.0
C360 C 0.47923 0.49263 0.94744 0.0
C361 C 0.46982 0.46659 0.89575 0.0
C362 C 0.45346 0.48823 0.8148 0.0
H363 H 0.49185 0.46912 0.64757 0.0
H364 H 0.48095 0.45847 0.71008 0.0
H365 H 0.44376 0.49447 0.76303 0.0
H366 H 0.48048 0.52681 0.93729 0.0
H367 H 0.47177 0.5196 0.87397 0.0
H368 H 0.49511 0.47094 0.83203 0.0
C369 C 0.48137 0.4745 0.69941 0.0
C370 C 0.45502 0.4892 0.77774 0.0
C371 C 0.48753 0.48053 0.66359 0.0
C372 C 0.47712 0.50972 0.92624 0.0
C373 C 0.47204 0.50555 0.88999 0.0
C374 C 0.48343 0.47558 0.81719 0.0
C375 C 0.476 0.48913 0.7212 0.0
C376 C 0.47148 0.48428 0.76 0.0
C377 C 0.46916 0.48431 0.87417 0.0
C378 C 0.46806 0.48196 0.83493 0.0
H379 H 0.48298 0.53167 0.66009 0.0
H380 H 0.47297 0.52161 0.72211 0.0
H381 H 0.49825 0.47315 0.76751 0.0
H382 H 0.47603 0.45703 0.94766 0.0
H383 H 0.4674 0.44995 0.88429 0.0
C384 C 0.50715 0.02635 0.93478 0.0
C385 C 0.52737 0.02473 0.94573 0.0
C386 C 0.50242 0.02708 0.89861 0.0
C387 C 0.52888 0.03322 0.80783 0.0
H388 H 0.46201 0.99112 0.78063 0.0
C389 C 0.50239 0.99377 0.66792 0.0
C390 C 0.4861 0.99891 0.65002 0.0
C391 C 0.50591 0.99746 0.70447 0.0
C392 C 0.4807 1.00305 0.78792 0.0
H393 H 0.55942 0.02451 0.9273 0.0
H394 H 0.551 0.02524 0.86475 0.0
H395 H 0.47245 0.99959 0.84342 0.0
H396 H 0.45948 1.01025 0.65693 0.0
H397 H 0.46522 1.01599 0.72125 0.0
H398 H 0.53713 0.03565 0.75232 0.0
C399 C 0.53883 0.02621 0.8838 0.0
C400 C 0.48672 1.00812 0.82384 0.0
C401 C 0.54365 0.02568 0.91986 0.0
C402 C 0.47219 1.00616 0.66993 0.0
C403 C 0.47547 1.00949 0.70668 0.0
C404 C 0.52289 0.02782 0.77207 0.0
C405 C 0.51774 0.02611 0.87264 0.0
C406 C 0.51097 0.02298 0.83432 0.0
C407 C 0.49296 1.00596 0.72399 0.0
C408 C 0.49882 1.01241 0.76185 0.0
H409 H 0.4943 0.02579 0.95404 0.0
H410 H 0.48632 0.02759 0.89103 0.0
H411 H 0.54763 0.04518 0.81472 0.0
H412 H 0.5134 0.98814 0.65347 0.0
H413 H 0.51926 0.99428 0.71739 0.0
C414 C 0.77127 0.87961 0.78372 0.0
C415 C 0.75776 0.85862 0.80446 0.0
C416 C 0.77294 0.87792 0.74689 0.0
C417 C 0.73527 0.83881 0.67631 0.0
H418 H 0.78949 0.87834 0.61432 0.0
C419 C 0.72219 0.83221 0.52593 0.0
C420 C 0.73334 0.8539 0.50632 0.0
C421 C 0.72884 0.83165 0.56107 0.0
C422 C 0.77413 0.86732 0.63128 0.0
H423 H 0.7375 0.8193 0.80322 0.0
H424 H 0.74049 0.81642 0.7391 0.0
H425 H 0.79565 0.87939 0.67871 0.0
H426 H 0.76081 0.89185 0.50752 0.0
H427 H 0.7718 0.89122 0.56966 0.0
H428 H 0.71341 0.82757 0.62981 0.0
C429 C 0.7494 0.83418 0.75125 0.0
C430 C 0.77772 0.86783 0.6681 0.0
C431 C 0.74778 0.83585 0.78802 0.0
C432 C 0.75194 0.87489 0.52211 0.0
C433 C 0.75831 0.87445 0.55766 0.0
C434 C 0.73164 0.8385 0.63976 0.0
C435 C 0.76112 0.85523 0.73016 0.0
C436 C 0.75827 0.8536 0.69096 0.0
C437 C 0.74643 0.8529 0.57782 0.0
C438 C 0.75097 0.85276 0.61667 0.0
H439 H 0.77931 0.89744 0.79557 0.0
H440 H 0.78207 0.89446 0.73132 0.0
H441 H 0.7198 0.8281 0.69326 0.0
H442 H 0.70809 0.81564 0.51421 0.0
H443 H 0.71981 0.81455 0.5753 0.0
C444 C 0.17756 0.80824 0.7395 0.0
C445 C 0.15657 0.79238 0.75855 0.0
C446 C 0.17666 0.81107 0.7028 0.0
C447 C 0.13245 0.8022 0.63171 0.0
H448 H 0.18855 0.82301 0.57124 0.0
C449 C 0.13593 0.8158 0.47734 0.0
C450 C 0.15521 0.83795 0.46507 0.0
C451 C 0.1342 0.80938 0.5133 0.0
C452 C 0.17279 0.8173 0.58792 0.0
H453 H 0.11858 0.76566 0.75355 0.0
H454 H 0.11724 0.76969 0.68926 0.0
H455 H 0.18957 0.81059 0.63224 0.0
H456 H 0.18711 0.87123 0.48132 0.0
H457 H 0.18423 0.85977 0.54385 0.0
H458 H 0.11557 0.80835 0.58652 0.0
C459 C 0.13422 0.78071 0.70282 0.0
C460 C 0.17336 0.81025 0.62295 0.0
C461 C 0.13504 0.77815 0.73968 0.0
C462 C 0.17199 0.85407 0.48983 0.0
C463 C 0.17049 0.84746 0.52558 0.0
C464 C 0.13174 0.80882 0.59638 0.0
C465 C 0.15483 0.79782 0.68402 0.0
C466 C 0.15337 0.80303 0.64562 0.0
C467 C 0.15193 0.82483 0.53745 0.0
C468 C 0.15207 0.81684 0.57442 0.0
H469 H 0.19443 0.81962 0.75317 0.0
H470 H 0.19289 0.82465 0.68959 0.0
H471 H 0.11682 0.79718 0.64833 0.0
H472 H 0.12274 0.80298 0.45893 0.0
H473 H 0.11971 0.79184 0.52188 0.0
C474 C 0.19181 0.41663 0.42854 0.0
C475 C 0.17366 0.39328 0.41868 0.0
C476 C 0.19476 0.42366 0.46428 0.0
C477 C 0.20754 0.42111 0.54255 0.0
H478 H 0.15394 0.40353 0.607 0.0
C479 C 0.18041 0.38742 0.69563 0.0
C480 C 0.20165 0.40349 0.71382 0.0
C481 C 0.17721 0.39148 0.66011 0.0
C482 C 0.16912 0.40851 0.58939 0.0
H483 H 0.1434 0.35966 0.43776 0.0
H484 H 0.14811 0.37207 0.49971 0.0
H485 H 0.1472 0.40164 0.54298 0.0
H486 H 0.23604 0.4368 0.70904 0.0
H487 H 0.23037 0.44402 0.6467 0.0
H488 H 0.22921 0.4267 0.58883 0.0
C489 C 0.16018 0.38493 0.48011 0.0
C490 C 0.16526 0.40755 0.55274 0.0
C491 C 0.15752 0.37777 0.44465 0.0
C492 C 0.21949 0.42403 0.69574 0.0
C493 C 0.21628 0.42811 0.66001 0.0
C494 C 0.21138 0.42191 0.57927 0.0
C495 C 0.17929 0.40763 0.49052 0.0
C496 C 0.18426 0.41312 0.52893 0.0
C497 C 0.19512 0.41178 0.64171 0.0
C498 C 0.19203 0.41483 0.60312 0.0
H499 H 0.20464 0.42884 0.40906 0.0
H500 H 0.20958 0.44129 0.47156 0.0
H501 H 0.22249 0.42529 0.52484 0.0
H502 H 0.16628 0.37138 0.70866 0.0
H503 H 0.16091 0.37823 0.64678 0.0
C504 C 0.72642 0.9022 0.26672 0.0
C505 C 0.74108 0.90141 0.2939 0.0
C506 C 0.73592 0.91096 0.23309 0.0
C507 C 0.78294 0.91615 0.1731 0.0
H508 H 0.75789 0.94884 0.11448 0.0
C509 C 0.77533 0.94309 0.01691 0.0
C510 C 0.76952 0.92087 0.0012 0.0
C511 C 0.77986 0.94657 0.05334 0.0
C512 C 0.76561 0.94018 0.1304 0.0
H513 H 0.7775 0.91009 0.30764 0.0
H514 H 0.79426 0.92545 0.24831 0.0
H515 H 0.75113 0.94597 0.17813 0.0
H516 H 0.76551 0.88545 0.01081 0.0
H517 H 0.77258 0.89114 0.0745 0.0
H518 H 0.79711 0.91003 0.12515 0.0
C519 C 0.77533 0.91917 0.25321 0.0
C520 C 0.76145 0.93829 0.16695 0.0
C521 C 0.76579 0.91055 0.28717 0.0
C522 C 0.76996 0.90279 0.02217 0.0
C523 C 0.77415 0.90614 0.05875 0.0
C524 C 0.78723 0.91814 0.13643 0.0
C525 C 0.76036 0.91909 0.22567 0.0
C526 C 0.76922 0.92544 0.18852 0.0
C527 C 0.77829 0.92776 0.075 0.0
C528 C 0.77786 0.92943 0.11445 0.0
H529 H 0.70732 0.89536 0.2711 0.0
H530 H 0.72378 0.9103 0.21243 0.0
H531 H 0.78914 0.90609 0.18898 0.0
H532 H 0.77548 0.9575 0.00128 0.0
H533 H 0.78362 0.96369 0.06475 0.0
C534 C 0.15321 0.79624 0.98537 0.0
C535 C 0.17521 0.79956 0.97188 0.0
C536 C 0.15061 0.7991 0.02164 0.0
C537 C 0.14795 0.80077 0.10294 0.0
H538 H 0.20419 0.85778 0.13995 0.0
C539 C 0.16024 0.83171 0.25065 0.0
C540 C 0.17271 0.85683 0.25707 0.0
C541 C 0.15734 0.82287 0.21594 0.0
C542 C 0.18824 0.84195 0.12996 0.0
H543 H 0.21081 0.806 0.98648 0.0
H544 H 0.20609 0.81054 0.0497 0.0
H545 H 0.2055 0.84367 0.08065 0.0
H546 H 0.1901 0.89227 0.23186 0.0
H547 H 0.18472 0.87686 0.17147 0.0
H548 H 0.13062 0.79947 0.1524 0.0
C549 C 0.1911 0.80641 0.03211 0.0
C550 C 0.18913 0.83359 0.09614 0.0
C551 C 0.19373 0.80362 0.99588 0.0
C552 C 0.18065 0.87284 0.22792 0.0
C553 C 0.17773 0.86401 0.1933 0.0
C554 C 0.1471 0.80911 0.13702 0.0
C555 C 0.16992 0.80525 0.04517 0.0
C556 C 0.16901 0.81294 0.08213 0.0
C557 C 0.16682 0.83897 0.18699 0.0
C558 C 0.1672 0.82993 0.15077 0.0
H559 H 0.13853 0.79301 0.96766 0.0
H560 H 0.13406 0.79807 0.03081 0.0
H561 H 0.13216 0.78478 0.09292 0.0
H562 H 0.15383 0.81886 0.27249 0.0
H563 H 0.14886 0.80349 0.212 0.0
C564 C 0.2561 0.44545 0.92843 0.0
C565 C 0.26591 0.4311 0.91722 0.0
C566 C 0.25533 0.45011 0.96458 0.0
C567 C 0.27686 0.44452 0.05441 0.0
H568 H 0.21158 0.42573 0.08363 0.0
C569 C 0.23832 0.40057 0.18925 0.0
C570 C 0.22189 0.40539 0.20716 0.0
C571 C 0.24688 0.41024 0.15556 0.0
C572 C 0.23004 0.43156 0.07606 0.0
H573 H 0.28467 0.41243 0.93479 0.0
H574 H 0.28348 0.42063 0.99757 0.0
H575 H 0.22235 0.43247 0.02091 0.0
H576 H 0.202 0.42471 0.20399 0.0
H577 H 0.21695 0.44163 0.14463 0.0
H578 H 0.28425 0.44265 0.10948 0.0
C579 C 0.27628 0.42824 0.97861 0.0
C580 C 0.23626 0.43546 0.04003 0.0
C581 C 0.2769 0.42345 0.94255 0.0
C582 C 0.21459 0.4206 0.19083 0.0
C583 C 0.22309 0.43022 0.15683 0.0
C584 C 0.27066 0.44066 0.09042 0.0
C585 C 0.26457 0.44073 0.99018 0.0
C586 C 0.25952 0.4412 0.02868 0.0
C587 C 0.23923 0.42499 0.13873 0.0
C588 C 0.24694 0.43331 0.10154 0.0
H589 H 0.24748 0.45167 0.90964 0.0
H590 H 0.24653 0.46011 0.97262 0.0
H591 H 0.29504 0.44933 0.0466 0.0
H592 H 0.24441 0.38899 0.20103 0.0
H593 H 0.25892 0.40546 0.14223 0.0
C594 C 0.43447 0.17274 0.10599 0.0
C595 C 0.44305 0.19324 0.12779 0.0
C596 C 0.4367 0.17527 0.06905 0.0
C597 C 0.46463 0.21982 0.99451 0.0
H598 H 0.40531 0.1748 0.94647 0.0
C599 C 0.43972 0.2336 0.85024 0.0
C600 C 0.42758 0.21272 0.82916 0.0
C601 C 0.44484 0.23172 0.88601 0.0
C602 C 0.42216 0.18733 0.9593 0.0
H603 H 0.46224 0.23258 0.12798 0.0
H604 H 0.4657 0.23697 0.06362 0.0
H605 H 0.40929 0.17022 0.00969 0.0
H606 H 0.41251 0.17369 0.82861 0.0
H607 H 0.4216 0.17052 0.89039 0.0
H608 H 0.47712 0.23725 0.94377 0.0
C609 C 0.45748 0.21891 0.07497 0.0
C610 C 0.4245 0.18466 0.99565 0.0
C611 C 0.45545 0.21638 0.11197 0.0
C612 C 0.42159 0.19013 0.84416 0.0
C613 C 0.42672 0.18828 0.87968 0.0
C614 C 0.46224 0.22256 0.95797 0.0
C615 C 0.44733 0.19836 0.053 0.0
C616 C 0.44575 0.20082 0.01381 0.0
C617 C 0.43792 0.20894 0.90129 0.0
C618 C 0.44096 0.20629 0.93997 0.0
H619 H 0.42504 0.15467 0.11734 0.0
H620 H 0.42927 0.15905 0.053 0.0
H621 H 0.4813 0.23253 0.00758 0.0
H622 H 0.44459 0.25126 0.83945 0.0
H623 H 0.4534 0.24798 0.902 0.0
C624 C 0.91176 0.2433 0.78357 0.0
C625 C 0.90114 0.22507 0.75779 0.0
C626 C 0.90469 0.23827 0.81919 0.0
C627 C 0.88042 0.18756 0.88211 0.0
H628 H 0.87083 0.23044 0.94431 0.0
C629 C 0.84927 0.15969 0.02574 0.0
C630 C 0.85978 0.17728 0.05244 0.0
C631 C 0.85277 0.16631 0.98995 0.0
C632 C 0.87372 0.21841 0.92739 0.0
H633 H 0.87579 0.18719 0.74896 0.0
H634 H 0.86301 0.17829 0.81126 0.0
H635 H 0.87922 0.24047 0.88114 0.0
H636 H 0.88169 0.21577 0.06254 0.0
H637 H 0.88845 0.22743 -0.00038 0.0
H638 H 0.87563 0.16581 0.92802 0.0
C639 C 0.87642 0.1966 0.8038 0.0
C640 C 0.87842 0.22412 0.89118 0.0
C641 C 0.88333 0.20174 0.76812 0.0
C642 C 0.87337 0.20182 0.04253 0.0
C643 C 0.87714 0.20847 0.00648 0.0
C644 C 0.87592 0.18197 0.91819 0.0
C645 C 0.88726 0.21473 0.82982 0.0
C646 C 0.8817 0.20866 0.86813 0.0
C647 C 0.86719 0.19071 0.97973 0.0
C648 C 0.87234 0.1972 0.94134 0.0
H649 H 0.92588 0.26136 0.77623 0.0
H650 H 0.91363 0.25253 0.83862 0.0
H651 H 0.88342 0.17557 0.86526 0.0
H652 H 0.83835 0.14065 0.03246 0.0
H653 H 0.84424 0.15218 0.97024 0.0
C654 C 0.88257 0.76434 0.03498 0.0
C655 C 0.8643 0.74154 0.04702 0.0
C656 C 0.88092 0.77304 0.0014 0.0
C657 C 0.83766 0.7662 0.93139 0.0
H658 H 0.89031 0.7832 0.86537 0.0
C659 C 0.82364 0.75707 0.78086 0.0
C660 C 0.84289 0.77109 0.75761 0.0
C661 C 0.82678 0.75981 0.8176 0.0
C662 C 0.87563 0.77916 0.88354 0.0
H663 H 0.82967 0.71035 0.03379 0.0
H664 H 0.82662 0.7257 0.97571 0.0
H665 H 0.89515 0.77598 0.92771 0.0
H666 H 0.87997 0.80057 0.75474 0.0
H667 H 0.88528 0.80583 0.81899 0.0
H668 H 0.81796 0.76906 0.88741 0.0
C669 C 0.84225 0.7368 0.99208 0.0
C670 C 0.87841 0.77491 0.9193 0.0
C671 C 0.84411 0.72793 0.02524 0.0
C672 C 0.86479 0.78937 0.7719 0.0
C673 C 0.86791 0.7922 0.80879 0.0
C674 C 0.83497 0.77076 0.89578 0.0
C675 C 0.86071 0.75932 0.97965 0.0
C676 C 0.85917 0.76762 0.9433 0.0
C677 C 0.84922 0.7768 0.83214 0.0
C678 C 0.85361 0.77646 0.87107 0.0
H679 H 0.89837 0.7752 0.05118 0.0
H680 H 0.8954 0.79046 0.99243 0.0
H681 H 0.82265 0.76096 0.94949 0.0
H682 H 0.80649 0.74289 0.77081 0.0
H683 H 0.81198 0.74745 0.8345 0.0
C684 C 0.44648 0.22483 0.35594 0.0
C685 C 0.45723 0.24416 0.33152 0.0
C686 C 0.44725 0.2293 0.39237 0.0
C687 C 0.47689 0.27426 0.46326 0.0
H688 H 0.41324 0.24158 0.50652 0.0
C689 C 0.45567 0.26823 0.61544 0.0
C690 C 0.43559 0.27048 0.6251 0.0
C691 C 0.46179 0.26868 0.57959 0.0
C692 C 0.43112 0.25094 0.49479 0.0
H693 H 0.47869 0.28329 0.32648 0.0
H694 H 0.48028 0.29102 0.39031 0.0
H695 H 0.41794 0.23379 0.44457 0.0
H696 H 0.40757 0.2771 0.60475 0.0
H697 H 0.41821 0.27776 0.54249 0.0
H698 H 0.49 0.29122 0.51399 0.0
C699 C 0.47113 0.27244 0.38111 0.0
C700 C 0.43385 0.24627 0.45944 0.0
C701 C 0.47014 0.26799 0.34456 0.0
C702 C 0.423 0.27508 0.59833 0.0
C703 C 0.429 0.27534 0.56261 0.0
C704 C 0.47421 0.27866 0.49899 0.0
C705 C 0.45902 0.25317 0.40525 0.0
C706 C 0.45672 0.25788 0.44324 0.0
C707 C 0.44787 0.27126 0.55282 0.0
C708 C 0.45123 0.26716 0.51497 0.0
H709 H 0.43644 0.20625 0.34689 0.0
H710 H 0.438 0.21409 0.41045 0.0
H711 H 0.49473 0.28343 0.45138 0.0
H712 H 0.46578 0.26467 0.63537 0.0
H713 H 0.47644 0.26549 0.57277 0.0
C714 C 0.81599 0.16401 0.29677 0.0
C715 C 0.83298 0.17956 0.27158 0.0
C716 C 0.81823 0.17051 0.33256 0.0
C717 C 0.86474 0.20937 0.39738 0.0
H718 H 0.80957 0.18922 0.45968 0.0
C719 C 0.87509 0.23352 0.54663 0.0
C720 C 0.86 0.21504 0.57048 0.0
C721 C 0.87133 0.23041 0.50999 0.0
C722 C 0.82514 0.19479 0.44265 0.0
H723 H 0.86495 0.21477 0.26403 0.0
H724 H 0.86861 0.22635 0.32652 0.0
H725 H 0.80335 0.18305 0.39572 0.0
H726 H 0.82904 0.17878 0.57441 0.0
H727 H 0.82251 0.17332 0.51027 0.0
H728 H 0.8865 0.22103 0.44435 0.0
C729 C 0.8538 0.20888 0.31864 0.0
C730 C 0.82159 0.19129 0.40597 0.0
C731 C 0.85156 0.20235 0.28274 0.0
C732 C 0.841 0.19336 0.55678 0.0
C733 C 0.83716 0.19031 0.52005 0.0
C734 C 0.86828 0.21297 0.43402 0.0
C735 C 0.8375 0.19277 0.34414 0.0
C736 C 0.84133 0.1983 0.38286 0.0
C737 C 0.85232 0.2088 0.49622 0.0
C738 C 0.84851 0.20552 0.45714 0.0
H739 H 0.80142 0.14632 0.28914 0.0
H740 H 0.80546 0.15752 0.35135 0.0
H741 H 0.88034 0.21459 0.38057 0.0
H742 H 0.88987 0.25048 0.55623 0.0
H743 H 0.88318 0.24511 0.49242 0.0
C744 C 0.90502 0.75838 0.53198 0.0
C745 C 0.89236 0.76838 0.54874 0.0
C746 C 0.9122 0.76382 0.49659 0.0
C747 C 0.89527 0.78143 0.41362 0.0
H748 H 0.95428 0.78493 0.37974 0.0
C749 C 0.91182 0.777 0.26404 0.0
C750 C 0.91774 0.75906 0.25576 0.0
C751 C 0.91359 0.78512 0.29903 0.0
C752 C 0.93776 0.78406 0.38875 0.0
H753 H 0.87795 0.79256 0.5417 0.0
H754 H 0.89049 0.80204 0.47932 0.0
H755 H 0.94808 0.7866 0.44339 0.0
H756 H 0.9319 0.73698 0.27717 0.0
H757 H 0.93512 0.75117 0.33789 0.0
H758 H 0.88455 0.77796 0.35906 0.0
C759 C 0.89474 0.78989 0.49378 0.0
C760 C 0.93419 0.785 0.42522 0.0
C761 C 0.88766 0.78456 0.5295 0.0
C762 C 0.92712 0.75075 0.28266 0.0
C763 C 0.92908 0.759 0.31751 0.0
C764 C 0.89887 0.78053 0.3771 0.0
C765 C 0.90689 0.77935 0.47684 0.0
C766 C 0.91254 0.78285 0.43816 0.0
C767 C 0.92157 0.77566 0.32635 0.0
C768 C 0.91981 0.78103 0.36433 0.0
H769 H 0.90904 0.74592 0.54602 0.0
H770 H 0.92116 0.75505 0.48434 0.0
H771 H 0.87831 0.77952 0.42265 0.0
H772 H 0.9045 0.78378 0.24394 0.0
H773 H 0.90795 0.79819 0.30492 0.0
C774 C 0.06025 0.4603 0.02969 0.0
C775 C 0.0649 0.48422 0.0254 0.0
C776 C 0.07453 0.45246 0.01273 0.0
C777 C 0.11691 0.46817 0.93658 0.0
H778 H 0.12383 0.41531 0.97483 0.0
C779 C 0.15234 0.41936 0.8483 0.0
C780 C 0.16731 0.41148 0.86353 0.0
C781 C 0.13978 0.42726 0.86966 0.0
C782 C 0.12238 0.43026 0.96378 0.0
H783 H 0.08912 0.51902 0.00124 0.0
H784 H 0.1148 0.50566 0.97271 0.0
H785 H 0.1052 0.4331 0.01074 0.0
H786 H 0.18055 0.4052 0.91314 0.0
H787 H 0.1593 0.41974 0.95062 0.0
H788 H 0.13512 0.46618 0.89034 0.0
C789 C 0.09954 0.49266 0.98832 0.0
C790 C 0.11132 0.44031 0.98429 0.0
C791 C 0.08497 0.50046 0.00499 0.0
C792 C 0.1688 0.41081 0.90071 0.0
C793 C 0.15661 0.41922 0.92217 0.0
C794 C 0.12831 0.45841 0.91631 0.0
C795 C 0.0942 0.46837 0.99131 0.0
C796 C 0.10802 0.45915 0.97078 0.0
C797 C 0.14234 0.42811 0.9069 0.0
C798 C 0.13086 0.439 0.9293 0.0
H799 H 0.0449 0.44719 0.04507 0.0
H800 H 0.06943 0.43356 0.01536 0.0
H801 H 0.11456 0.48243 0.92489 0.0
H802 H 0.15082 0.42 0.81968 0.0
H803 H 0.12839 0.43313 0.85679 0.0
C804 C 0.67009 0.79901 0.92478 0.0
C805 C 0.69349 0.81065 0.93935 0.0
C806 C 0.6541 0.7743 0.9316 0.0
C807 C 0.65359 0.71801 0.95981 0.0
H808 H 0.58603 0.69421 0.9807 0.0
C809 C 0.58969 0.61979 0.01049 0.0
C810 C 0.56562 0.60805 0.99861 0.0
C811 C 0.60536 0.64438 0.00261 0.0
C812 C 0.60478 0.70044 0.97445 0.0
H813 H 0.71812 0.8054 0.97313 0.0
H814 H 0.69042 0.76279 0.985 0.0
H815 H 0.6126 0.73712 0.96765 0.0
H816 H 0.53942 0.61292 0.96824 0.0
H817 H 0.56666 0.65528 0.95398 0.0
H818 H 0.64583 0.68137 0.9664 0.0
C819 C 0.68446 0.77252 0.96789 0.0
C820 C 0.62003 0.72511 0.96698 0.0
C821 C 0.70032 0.79709 0.96123 0.0
C822 C 0.55778 0.62137 0.97813 0.0
C823 C 0.5734 0.64581 0.97013 0.0
C824 C 0.63834 0.69333 0.96714 0.0
C825 C 0.66121 0.76069 0.95296 0.0
C826 C 0.64468 0.73426 0.95974 0.0
C827 C 0.59735 0.6578 0.98252 0.0
C828 C 0.61371 0.68417 0.97467 0.0
H829 H 0.66425 0.80887 0.90776 0.0
H830 H 0.63636 0.76573 0.91951 0.0
H831 H 0.6724 0.72432 0.95379 0.0
H832 H 0.5963 0.61011 0.02645 0.0
H833 H 0.6236 0.653 0.01294 0.0
C834 C 0.2598 0.87312 0.90536 0.0
C835 C 0.25504 0.86843 0.8689 0.0
C836 C 0.2832 0.88189 0.91868 0.0
C837 C 0.34158 0.88558 0.89494 0.0
H838 H 0.36584 0.92899 0.97548 0.0
C839 C 0.44169 0.93416 0.94069 0.0
C840 C 0.44629 0.93633 0.97745 0.0
C841 C 0.41806 0.92424 0.92783 0.0
C842 C 0.3592 0.91662 0.95322 0.0
H843 H 0.27139 0.8705 0.81762 0.0
H844 H 0.31222 0.8866 0.84054 0.0
H845 H 0.32589 0.91699 0.95177 0.0
H846 H 0.42941 0.92872 0.0295 0.0
H847 H 0.38821 0.91141 0.00698 0.0
H848 H 0.37521 0.8857 0.89605 0.0
C849 C 0.29781 0.88277 0.85913 0.0
C850 C 0.33626 0.90972 0.93959 0.0
C851 C 0.2744 0.87377 0.84589 0.0
C852 C 0.42656 0.9273 0.00103 0.0
C853 C 0.40295 0.9176 0.98814 0.0
C854 C 0.36461 0.89266 0.90838 0.0
C855 C 0.30247 0.88641 0.89582 0.0
C856 C 0.3271 0.8941 0.91021 0.0
C857 C 0.39848 0.91644 0.9514 0.0
C858 C 0.37369 0.90825 0.93771 0.0
H859 H 0.24528 0.869 0.9239 0.0
H860 H 0.28593 0.88422 0.9471 0.0
H861 H 0.33503 0.87311 0.87282 0.0
H862 H 0.45643 0.94097 0.92176 0.0
H863 H 0.41525 0.92369 0.89938 0.0
C864 C 0.49851 0.0877 0.52369 0.0
C865 C 0.50745 0.07646 0.54654 0.0
C866 C 0.48874 0.10136 0.53737 0.0
C867 C 0.45886 0.10622 0.61782 0.0
H868 H 0.46796 0.16532 0.57363 0.0
C869 C 0.42131 0.16442 0.67855 0.0
C870 C 0.41382 0.17672 0.65523 0.0
C871 C 0.43205 0.15148 0.66544 0.0
C872 C 0.4649 0.14863 0.586 0.0
H873 H 0.51413 0.07177 0.60177 0.0
H874 H 0.49724 0.09576 0.62558 0.0
H875 H 0.48994 0.14602 0.55101 0.0
H876 H 0.41051 0.18386 0.59969 0.0
H877 H 0.42857 0.16079 0.57686 0.0
H878 H 0.43359 0.1086 0.65252 0.0
C879 C 0.49754 0.09375 0.59706 0.0
C880 C 0.47764 0.13764 0.57311 0.0
C881 C 0.50749 0.08023 0.58336 0.0
C882 C 0.41618 0.17472 0.61845 0.0
C883 C 0.4268 0.16169 0.60535 0.0
C884 C 0.44602 0.11713 0.63061 0.0
C885 C 0.48754 0.104 0.57426 0.0
C886 C 0.47476 0.11629 0.58883 0.0
C887 C 0.43546 0.15041 0.62869 0.0
C888 C 0.44882 0.13847 0.61483 0.0
H889 H 0.49816 0.08515 0.49521 0.0
H890 H 0.4811 0.1089 0.51906 0.0
H891 H 0.45589 0.08954 0.63016 0.0
H892 H 0.41989 0.16565 0.70705 0.0
H893 H 0.43861 0.14319 0.68428 0.0
C894 C 0.86062 0.2887 0.67142 0.0
C895 C 0.86954 0.28473 0.70343 0.0
C896 C 0.86693 0.3122 0.66063 0.0
C897 C 0.91585 0.37544 0.67426 0.0
H898 H 0.87631 0.3902 0.61226 0.0
C899 C 0.95435 0.46973 0.61018 0.0
C900 C 0.95159 0.46915 0.57303 0.0
C901 C 0.94059 0.44886 0.63069 0.0
C902 C 0.88755 0.38636 0.62962 0.0
H903 H 0.89057 0.30223 0.75048 0.0
H904 H 0.90091 0.34309 0.73228 0.0
H905 H 0.85876 0.35042 0.64082 0.0
H906 H 0.93093 0.4467 0.52873 0.0
H907 H 0.90676 0.41044 0.5645 0.0
H908 H 0.94472 0.41119 0.6626 0.0
C909 C 0.88967 0.32814 0.71489 0.0
C910 C 0.87753 0.36352 0.6459 0.0
C911 C 0.88356 0.30466 0.7255 0.0
C912 C 0.93351 0.44776 0.55726 0.0
C913 C 0.91959 0.42697 0.57781 0.0
C914 C 0.92578 0.39829 0.65823 0.0
C915 C 0.88213 0.33234 0.68174 0.0
C916 C 0.8917 0.35754 0.66784 0.0
C917 C 0.92358 0.42703 0.61458 0.0
C918 C 0.91191 0.40387 0.63511 0.0
H919 H 0.84985 0.27379 0.65366 0.0
H920 H 0.86092 0.3146 0.6348 0.0
H921 H 0.92754 0.37149 0.69037 0.0
H922 H 0.96819 0.48585 0.62323 0.0
H923 H 0.9439 0.44957 0.65902 0.0
C924 C 0.7771 0.68444 0.63727 0.0
C925 C 0.78751 0.7072 0.62039 0.0
C926 C 0.75269 0.66724 0.63182 0.0
C927 C 0.69474 0.66198 0.6016 0.0
H928 H 0.67432 0.59382 0.59267 0.0
C929 C 0.59717 0.58904 0.56017 0.0
C930 C 0.58715 0.56653 0.57775 0.0
C931 C 0.62147 0.60669 0.56551 0.0
C932 C 0.67966 0.61276 0.59547 0.0
H933 H 0.78045 0.72948 0.58394 0.0
H934 H 0.73829 0.69955 0.57413 0.0
H935 H 0.71692 0.62313 0.60175 0.0
H936 H 0.59469 0.54532 0.61563 0.0
H937 H 0.63659 0.57595 0.62511 0.0
H938 H 0.65743 0.65156 0.59521 0.0
C939 C 0.74874 0.69506 0.59212 0.0
C940 C 0.70413 0.62958 0.60073 0.0
C941 C 0.77305 0.7122 0.59759 0.0
C942 C 0.60179 0.56235 0.60137 0.0
C943 C 0.62595 0.57989 0.60666 0.0
C944 C 0.67026 0.64515 0.59628 0.0
C945 C 0.73814 0.67242 0.60936 0.0
C946 C 0.71202 0.65443 0.60393 0.0
C947 C 0.63625 0.60217 0.58848 0.0
C948 C 0.66238 0.6203 0.59329 0.0
H949 H 0.78769 0.68003 0.65511 0.0
H950 H 0.74509 0.65008 0.64581 0.0
H951 H 0.70007 0.68092 0.60446 0.0
H952 H 0.58642 0.59282 0.54172 0.0
H953 H 0.62886 0.62362 0.55093 0.0
C954 C 0.92467 0.6889 0.07993 0.0
C955 C 0.91462 0.68814 0.11347 0.0
C956 C 0.93464 0.67422 0.07249 0.0
C957 C 0.96253 0.64185 0.11378 0.0
H958 H 0.94768 0.60792 0.02392 0.0
C959 C 0.99674 0.57522 0.07693 0.0
C960 C 1.00157 0.57342 0.04095 0.0
C961 C 0.98677 0.58954 0.08717 0.0
C962 C 0.95242 0.61756 0.0489 0.0
H963 H 0.90726 0.67129 0.16559 0.0
H964 H 0.92507 0.64573 0.15265 0.0
H965 H 0.92842 0.63134 0.03926 0.0
H966 H 1.00091 0.58635 0.98782 0.0
H967 H 0.98455 0.61196 0.00567 0.0
H968 H 0.98698 0.62855 0.12311 0.0
C969 C 0.9251 0.65774 0.13212 0.0
C970 C 0.94119 0.63089 0.05778 0.0
C971 C 0.91476 0.67223 0.13945 0.0
C972 C 0.99725 0.58716 0.01573 0.0
C973 C 0.98758 0.60168 0.02598 0.0
C974 C 0.974 0.62869 0.10472 0.0
C975 C 0.93512 0.65855 0.09849 0.0
C976 C 0.94621 0.64334 0.0902 0.0
C977 C 0.98159 0.60262 0.06173 0.0
C978 C 0.96926 0.6165 0.07197 0.0
H979 H 0.92489 0.70091 0.05926 0.0
H980 H 0.94241 0.67548 0.04645 0.0
H981 H 0.96695 0.65143 0.13883 0.0
H982 H 0.99966 0.56472 0.09704 0.0
H983 H 0.98229 0.58958 0.11489 0.0
C984 C 0.42785 0.27763 0.13663 0.0
C985 C 0.42662 0.2715 0.17283 0.0
C986 C 0.43899 0.30191 0.12577 0.0
C987 C 0.46196 0.3649 0.15834 0.0
H988 H 0.50314 0.38232 0.07505 0.0
C989 C 0.52757 0.46474 0.12202 0.0
C990 C 0.52784 0.4715 0.08629 0.0
C991 C 0.51614 0.4403 0.13198 0.0
C992 C 0.49157 0.37775 0.09818 0.0
H993 H 0.43533 0.28624 0.22611 0.0
H994 H 0.45489 0.32851 0.20722 0.0
H995 H 0.47986 0.33998 0.09357 0.0
H996 H 0.51733 0.45766 0.03278 0.0
H997 H 0.49751 0.41499 0.05018 0.0
H998 H 0.47387 0.40272 0.16309 0.0
C999 C 0.44705 0.31456 0.18714 0.0
C1000 C 0.47811 0.35342 0.10877 0.0
C1001 C 0.43582 0.29025 0.19802 0.0
C1002 C 0.51755 0.45315 0.06052 0.0
C1003 C 0.50615 0.42865 0.07051 0.0
C1004 C 0.47549 0.38922 0.14783 0.0
C1005 C 0.44929 0.32074 0.15081 0.0
C1006 C 0.46312 0.34664 0.13903 0.0
C1007 C 0.50473 0.42193 0.1065 0.0
C1008 C 0.49053 0.39598 0.11768 0.0
H1009 H 0.42088 0.26368 0.11649 0.0
H1010 H 0.43985 0.30591 0.09764 0.0
H1011 H 0.45036 0.36039 0.18141 0.0
H1012 H 0.53536 0.47833 0.14263 0.0
H1013 H 0.51583 0.43578 0.15983 0.0
C1014 C 0.76458 0.12118 0.11522 0.0
C1015 C 0.77941 0.1157 0.1364 0.0
C1016 C 0.74091 0.1035 0.1073 0.0
C1017 C 0.69024 0.04665 0.14081 0.0
H1018 H 0.66257 0.04753 0.04937 0.0
C1019 C 0.58897 1.013 0.12163 0.0
C1020 C 0.5777 1.00295 0.08903 0.0
C1021 C 0.61364 0.02166 0.12647 0.0
C1022 C 0.66996 0.04664 0.07488 0.0
H1023 H 0.78097 0.08704 0.1654 0.0
H1024 H 0.73917 0.05587 0.15165 0.0
H1025 H 0.70602 0.07193 0.05821 0.0
H1026 H 0.58347 0.99312 0.03639 0.0
H1027 H 0.62667 1.00811 0.04491 0.0
H1028 H 0.65409 0.02157 0.15761 0.0
C1029 C 0.74607 0.07405 0.14127 0.0
C1030 C 0.69491 0.06089 0.08008 0.0
C1031 C 0.77001 0.09184 0.14901 0.0
C1032 C 0.59156 1.00077 0.06183 0.0
C1033 C 0.61638 1.00954 0.06665 0.0
C1034 C 0.66524 0.03237 0.13561 0.0
C1035 C 0.7312 0.07973 0.12038 0.0
C1036 C 0.7053 0.06166 0.11341 0.0
C1037 C 0.62784 0.02055 0.09883 0.0
C1038 C 0.65468 0.03271 0.10286 0.0
H1039 H 0.77116 0.13933 0.10492 0.0
H1040 H 0.72996 0.10872 0.09169 0.0
H1041 H 0.69758 0.04681 0.16683 0.0
H1042 H 0.57887 1.01493 0.14324 0.0
H1043 H 0.62177 0.03026 0.15144 0.0
C1044 C 0.54432 0.94982 0.50742 0.0
C1045 C 0.55408 0.97421 0.51717 0.0
C1046 C 0.55916 0.94114 0.49497 0.0
C1047 C 0.6214 0.96145 0.46041 0.0
H1048 H 0.60173 0.89402 0.4776 0.0
C1049 C 0.67256 0.91848 0.39492 0.0
C1050 C 0.67447 0.90025 0.41326 0.0
C1051 C 0.65739 0.92681 0.40733 0.0
C1052 C 0.60781 0.91299 0.47288 0.0
H1053 H 0.58717 1.00867 0.52167 0.0
H1054 H 0.61343 0.99334 0.50156 0.0
H1055 H 0.57787 0.91051 0.50158 0.0
H1056 H 0.66188 0.87632 0.45897 0.0
H1057 H 0.63624 0.89151 0.48175 0.0
H1058 H 0.65218 0.96434 0.43366 0.0
C1059 C 0.59413 0.98096 0.50242 0.0
C1060 C 0.59376 0.92243 0.48616 0.0
C1061 C 0.57913 0.98979 0.5142 0.0
C1062 C 0.66056 0.8902 0.44405 0.0
C1063 C 0.64577 0.89894 0.45702 0.0
C1064 C 0.63573 0.95215 0.44776 0.0
C1065 C 0.58436 0.95644 0.49261 0.0
C1066 C 0.60011 0.94674 0.47976 0.0
C1067 C 0.64413 0.91759 0.43904 0.0
C1068 C 0.62904 0.92766 0.45339 0.0
H1069 H 0.52503 0.93739 0.50889 0.0
H1070 H 0.55067 0.92239 0.48676 0.0
H1071 H 0.62693 0.98016 0.45446 0.0
H1072 H 0.68294 0.92643 0.37091 0.0
H1073 H 0.65619 0.94058 0.39196 0.0
C1074 C 0.06524 0.61177 0.4932 0.0
C1075 C 0.06977 0.6074 0.52826 0.0
C1076 C 0.07993 0.63428 0.47695 0.0
C1077 C 0.12221 0.69873 0.49408 0.0
H1078 H 0.14633 0.6983 0.39977 0.0
C1079 C 0.18701 0.78831 0.42091 0.0
C1080 C 0.18239 0.7893 0.38456 0.0
C1081 C 0.17582 0.76615 0.43934 0.0
C1082 C 0.13958 0.69884 0.42592 0.0
H1083 H 0.09279 0.62363 0.57414 0.0
H1084 H 0.11811 0.66314 0.54593 0.0
H1085 H 0.12029 0.66009 0.43019 0.0
H1086 H 0.16326 0.76751 0.33882 0.0
H1087 H 0.1436 0.7293 0.37073 0.0
H1088 H 0.14076 0.73741 0.48948 0.0
C1089 C 0.10328 0.64903 0.53099 0.0
C1090 C 0.12466 0.67688 0.44337 0.0
C1091 C 0.0888 0.62639 0.5471 0.0
C1092 C 0.16732 0.76748 0.36678 0.0
C1093 C 0.15607 0.74543 0.38517 0.0
C1094 C 0.13689 0.72074 0.47643 0.0
C1095 C 0.09929 0.65308 0.49551 0.0
C1096 C 0.11562 0.67655 0.4775 0.0
C1097 C 0.15969 0.74445 0.4219 0.0
C1098 C 0.14562 0.72112 0.44192 0.0
H1099 H 0.05081 0.59754 0.47785 0.0
H1100 H 0.07624 0.63695 0.4497 0.0
H1101 H 0.11542 0.69905 0.52031 0.0
H1102 H 0.19846 0.80476 0.43551 0.0
H1103 H 0.17946 0.76611 0.46745 0.0
C1104 C 0.28173 0.43595 0.34389 0.0
C1105 C 0.26298 0.41191 0.34875 0.0
C1106 C 0.30363 0.44471 0.36183 0.0
C1107 C 0.34175 0.426 0.4116 0.0
H1108 H 0.37038 0.49099 0.45015 0.0
C1109 C 0.42152 0.4624 0.50894 0.0
C1110 C 0.44075 0.48617 0.50376 0.0
C1111 C 0.39988 0.45393 0.49042 0.0
C1112 C 0.36278 0.47294 0.43923 0.0
H1113 H 0.25283 0.37798 0.3756 0.0
H1114 H 0.29121 0.39335 0.4074 0.0
H1115 H 0.33271 0.47435 0.41678 0.0
H1116 H 0.45196 0.51998 0.4758 0.0
H1117 H 0.41389 0.50511 0.44318 0.0
H1118 H 0.37177 0.42456 0.43423 0.0
C1119 C 0.28896 0.40538 0.38936 0.0
C1120 C 0.34117 0.46335 0.42006 0.0
C1121 C 0.26696 0.39654 0.37118 0.0
C1122 C 0.43747 0.50161 0.48047 0.0
C1123 C 0.41567 0.49307 0.4618 0.0
C1124 C 0.36334 0.43557 0.43082 0.0
C1125 C 0.30742 0.42972 0.38534 0.0
C1126 C 0.33037 0.43976 0.40596 0.0
C1127 C 0.39679 0.46895 0.4661 0.0
C1128 C 0.37409 0.45912 0.44498 0.0
H1129 H 0.2794 0.44824 0.3265 0.0
H1130 H 0.3176 0.46334 0.35737 0.0
H1131 H 0.33419 0.40795 0.40069 0.0
H1132 H 0.42328 0.45005 0.52696 0.0
H1133 H 0.38555 0.43547 0.49504 0.0
C1134 C 0.78786 0.71459 0.18196 0.0
C1135 C 0.81004 0.71837 0.19518 0.0
C1136 C 0.7726 0.71918 0.20319 0.0
C1137 C 0.76522 0.73653 0.29631 0.0
H1138 H 0.73043 0.76316 0.24683 0.0
C1139 C 0.71846 0.77879 0.37573 0.0
C1140 C 0.71908 0.79943 0.36115 0.0
C1141 C 0.72443 0.76432 0.355 0.0
C1142 C 0.74024 0.75607 0.26129 0.0
H1143 H 0.83337 0.72936 0.24136 0.0
H1144 H 0.80768 0.73855 0.27761 0.0
H1145 H 0.75129 0.74701 0.21307 0.0
H1146 H 0.72584 0.82078 0.31315 0.0
H1147 H 0.73746 0.7966 0.27758 0.0
H1148 H 0.75605 0.74758 0.34441 0.0
C1149 C 0.80131 0.73116 0.25143 0.0
C1150 C 0.7519 0.74623 0.24175 0.0
C1151 C 0.81623 0.72595 0.23051 0.0
C1152 C 0.72489 0.8048 0.32505 0.0
C1153 C 0.7315 0.79074 0.30455 0.0
C1154 C 0.7541 0.74694 0.31581 0.0
C1155 C 0.77946 0.72837 0.23789 0.0
C1156 C 0.76495 0.73664 0.25889 0.0
C1157 C 0.73191 0.77055 0.31938 0.0
C1158 C 0.74173 0.75727 0.29863 0.0
H1159 H 0.78256 0.70863 0.15486 0.0
H1160 H 0.75567 0.71601 0.19194 0.0
H1161 H 0.77444 0.72882 0.3108 0.0
H1162 H 0.71391 0.77415 0.40347 0.0
H1163 H 0.72369 0.74857 0.36731 0.0
C1164 C 0.34992 0.13444 0.30636 0.0
C1165 C 0.3626 0.14117 0.27398 0.0
C1166 C 0.33544 0.11 0.31566 0.0
C1167 C 0.30564 0.04695 0.27986 0.0
H1168 H 0.30638 0.03044 0.37901 0.0
C1169 C 0.2598 0.94717 0.33136 0.0
C1170 C 0.24554 0.94224 0.36209 0.0
C1171 C 0.27498 0.97116 0.31995 0.0
C1172 C 0.30584 0.03474 0.35125 0.0
H1173 H 0.3694 0.12729 0.2255 0.0
H1174 H 0.34447 0.08463 0.24194 0.0
H1175 H 0.33013 0.07248 0.35975 0.0
H1176 H 0.23658 0.95876 0.40535 0.0
H1177 H 0.26313 1.00033 0.3858 0.0
H1178 H 0.28145 1.00896 0.27154 0.0
C1179 C 0.34543 0.09825 0.26003 0.0
C1180 C 0.3194 0.05892 0.34016 0.0
C1181 C 0.3598 0.12277 0.25058 0.0
C1182 C 0.24732 0.96185 0.3816 0.0
C1183 C 0.26264 0.98575 0.37045 0.0
C1184 C 0.29219 0.02267 0.29095 0.0
C1185 C 0.33338 0.09151 0.29302 0.0
C1186 C 0.31929 0.06547 0.30439 0.0
C1187 C 0.27647 0.99074 0.33928 0.0
C1188 C 0.29192 1.0163 0.32688 0.0
H1189 H 0.35148 0.14809 0.32493 0.0
H1190 H 0.32599 0.10562 0.34085 0.0
H1191 H 0.30486 0.05122 0.25218 0.0
H1192 H 0.25876 0.93249 0.31559 0.0
H1193 H 0.28555 0.97438 0.29598 0.0
C1194 C 0.1107 0.30546 0.27131 0.0
C1195 C 0.11361 0.31969 0.30133 0.0
C1196 C 0.08772 0.28634 0.26202 0.0
C1197 C 1.02246 0.26525 0.27969 0.0
H1198 H 1.01115 0.20761 0.2291 0.0
C1199 C 0.92669 0.18587 0.25927 0.0
C1200 C 0.91991 0.17935 0.22366 0.0
C1201 C 0.95098 0.20037 0.26856 0.0
C1202 C 1.01412 0.22368 0.24316 0.0
H1203 H 0.09525 0.32405 0.34654 0.0
H1204 H 0.05581 0.29015 0.33188 0.0
H1205 H 0.05236 0.23772 0.24677 0.0
H1206 H 0.93369 0.18163 0.17028 0.0
H1207 H 0.97637 0.20667 0.18685 0.0
H1208 H 0.98424 0.25093 0.27688 0.0
C1209 C 0.07075 0.29426 0.31422 0.0
C1210 C 0.03774 0.24103 0.25317 0.0
C1211 C 0.09348 0.3136 0.32295 0.0
C1212 C 0.93824 0.18633 0.19794 0.0
C1213 C 0.96268 0.20065 0.20739 0.0
C1214 C 0.99897 0.2478 0.2703 0.0
C1215 C 0.06727 0.28082 0.28296 0.0
C1216 C 0.04225 0.26205 0.27182 0.0
C1217 C 0.9692 0.20848 0.24262 0.0
C1218 C 0.99447 0.22678 0.25208 0.0
H1219 H 0.12592 0.30987 0.25405 0.0
H1220 H 0.0859 0.2766 0.23768 0.0
H1221 H 1.02502 0.28145 0.29283 0.0
H1222 H 0.91317 0.18079 0.27989 0.0
H1223 H 0.9555 0.2059 0.29599 0.0
C1224 C 0.34368 0.2509 0.73127 0.0
C1225 C 0.35422 0.24723 0.76179 0.0
C1226 C 0.32819 0.2605 0.73405 0.0
C1227 C 0.29106 0.27284 0.79787 0.0
H1228 H 0.30235 0.32398 0.73108 0.0
C1229 C 0.25338 0.33854 0.81825 0.0
C1230 C 0.24695 0.34695 0.78783 0.0
C1231 C 0.26411 0.32403 0.815 0.0
C1232 C 0.2986 0.30947 0.74966 0.0
H1233 H 0.3559 0.24994 0.81929 0.0
H1234 H 0.32905 0.26665 0.82405 0.0
H1235 H 0.32467 0.30249 0.72499 0.0
H1236 H 0.24558 0.34558 0.73026 0.0
H1237 H 0.26358 0.31996 0.72467 0.0
H1238 H 0.26507 0.28 0.8227 0.0
C1239 C 0.33261 0.26202 0.79797 0.0
C1240 C 0.31146 0.29711 0.74613 0.0
C1241 C 0.34815 0.25254 0.79519 0.0
C1242 C 0.25055 0.33967 0.75426 0.0
C1243 C 0.26107 0.32508 0.75103 0.0
C1244 C 0.27809 0.28517 0.80134 0.0
C1245 C 0.32277 0.26656 0.76741 0.0
C1246 C 0.30798 0.27872 0.77027 0.0
C1247 C 0.26853 0.31748 0.78127 0.0
C1248 C 0.28176 0.30374 0.77735 0.0
H1249 H 0.3479 0.24699 0.70513 0.0
H1250 H 0.32066 0.26342 0.70998 0.0
H1251 H 0.28772 0.2586 0.81674 0.0
H1252 H 0.25095 0.34389 0.8445 0.0
H1253 H 0.26974 0.31869 0.83891 0.0
C1254 C 0.8171 0.13529 0.75999 0.0
C1255 C 0.80561 0.13822 0.73007 0.0
C1256 C 0.80717 0.113 0.7778 0.0
C1257 C 0.76467 0.04725 0.76407 0.0
H1258 H 0.77512 0.04413 0.86499 0.0
C1259 C 0.73383 0.95633 0.84062 0.0
C1260 C 0.7527 0.95634 0.8599 0.0
C1261 C 0.73655 0.9781 0.82671 0.0
C1262 C 0.77199 0.0447 0.83679 0.0
H1263 H 0.77408 0.1201 0.69617 0.0
H1264 H 0.75639 0.08139 0.72773 0.0
H1265 H 0.78647 0.08309 0.83735 0.0
H1266 H 0.78874 0.9792 0.88095 0.0
H1267 H 0.7932 1.01688 0.85755 0.0
H1268 H 0.75027 1.00873 0.76377 0.0
C1269 C 0.77343 0.09618 0.73702 0.0
C1270 C 0.77864 0.06708 0.82084 0.0
C1271 C 0.7835 0.11846 0.71904 0.0
C1272 C 0.77389 0.97854 0.86607 0.0
C1273 C 0.77641 1.0002 0.85285 0.0
C1274 C 0.75777 0.02481 0.78016 0.0
C1275 C 0.7853 0.09301 0.76637 0.0
C1276 C 0.77568 0.0688 0.78406 0.0
C1277 C 0.75796 1.00026 0.8326 0.0
C1278 C 0.76192 0.02338 0.81652 0.0
H1279 H 0.83424 0.14999 0.76901 0.0
H1280 H 0.81715 0.11129 0.79982 0.0
H1281 H 0.7623 0.04777 0.73565 0.0
H1282 H 0.71734 0.93948 0.83535 0.0
H1283 H 0.72201 0.97763 0.81125 0.0
C1284 C 0.1068 0.83119 0.81784 0.0
C1285 C 0.10545 0.81892 0.84968 0.0
C1286 C 0.0857 0.82633 0.79962 0.0
C1287 C 1.02276 0.77751 0.78828 0.0
H1288 H 1.01361 0.82726 0.7435 0.0
C1289 C 0.93247 0.75699 0.72105 0.0
C1290 C 0.93392 0.77092 0.69112 0.0
C1291 C 0.95337 0.76229 0.74028 0.0
C1292 C 1.01599 0.81307 0.75537 0.0
H1293 H 0.08077 0.79292 0.88829 0.0
H1294 H 0.04418 0.78463 0.85667 0.0
H1295 H 0.05009 0.83882 0.77793 0.0
H1296 H 0.95849 0.80033 0.65663 0.0
H1297 H 0.99478 0.80898 0.68917 0.0
H1298 H 0.98889 0.75171 0.76533 0.0
C1299 C 0.06152 0.79768 0.84547 0.0
C1300 C 0.0369 0.81975 0.77524 0.0
C1301 C 0.08253 0.80261 0.86373 0.0
C1302 C 0.95673 0.78942 0.67983 0.0
C1303 C 0.97756 0.79454 0.69873 0.0
C1304 C 1.00192 0.7708 0.76818 0.0
C1305 C 0.06285 0.80904 0.8128 0.0
C1306 C 0.04052 0.80206 0.79196 0.0
C1307 C 0.97614 0.78149 0.72974 0.0
C1308 C 0.99826 0.78849 0.75137 0.0
H1309 H 0.12415 0.84377 0.80618 0.0
H1310 H 0.08733 0.83535 0.77445 0.0
H1311 H 0.02519 0.76341 0.8004 0.0
H1312 H 0.91512 0.74273 0.73053 0.0
H1313 H 0.95153 0.75192 0.76413 0.0
loop_
_geom_bond_atom_site_label_1
_geom_bond_atom_site_label_2
_geom_bond_distance
_geom_bond_site_symmetry_2
_ccdc_geom_bond_type
Mg0 O7 2.141 1_554 S
Mg0 O8 2.048 . S
Mg0 O9 2.048 . S
Mg0 O12 2.141 . S
C1 O2 1.313 . S
C1 O8 1.195 . S
O2 C1 1.313 . S
C3 O4 1.245 . S
C3 O12 1.289 1_655 S
O4 C3 1.245 . S
C5 O6 1.245 1_455 S
C5 O7 1.289 . S
O6 C5 1.245 1_655 S
O7 Mg0 2.141 1_556 S
O7 C5 1.289 . S
O8 Mg0 2.048 . S
O8 C1 1.195 . S
O9 Mg0 2.048 . S
O9 C10 1.195 . S
C10 O9 1.195 . S
C10 O11 1.313 . S
O11 C10 1.313 . S
O12 Mg0 2.141 . S
O12 C3 1.289 1_455 S
Mg13 O20 2.141 1_554 S
Mg13 O21 2.048 . S
Mg13 O22 2.048 . S
Mg13 O25 2.141 . S
C14 O15 1.313 . S
C14 O21 1.195 . S
O15 C14 1.313 . S
C16 O17 1.245 . S
C16 O25 1.289 . S
O17 C16 1.245 . S
C18 O19 1.245 . S
C18 O20 1.289 . S
O19 C18 1.245 . S
O20 Mg13 2.141 1_556 S
O20 C18 1.289 . S
O21 Mg13 2.048 . S
O21 C14 1.195 . S
O22 Mg13 2.048 . S
O22 C23 1.195 . S
C23 O22 1.195 . S
C23 O24 1.313 . S
O24 C23 1.313 . S
O25 Mg13 2.141 . S
O25 C16 1.289 . S
Mg26 O33 2.141 1_545 S
Mg26 O34 2.048 1_554 S
Mg26 O35 2.048 . S
Mg26 O38 2.141 . S
C27 O28 1.313 1_545 S
C27 O34 1.195 . S
O28 C27 1.313 1_565 S
C29 O30 1.245 . S
C29 O38 1.289 1_565 S
O30 C29 1.245 . S
C31 O32 1.245 . S
C31 O33 1.289 . S
O32 C31 1.245 . S
O33 Mg26 2.141 1_565 S
O33 C31 1.289 . S
O34 Mg26 2.048 1_556 S
O34 C27 1.195 . S
O35 Mg26 2.048 . S
O35 C36 1.195 . S
C36 O35 1.195 . S
C36 O37 1.313 . S
O37 C36 1.313 . S
O38 Mg26 2.141 . S
O38 C29 1.289 1_545 S
Mg39 O46 2.141 . S
Mg39 O47 2.048 . S
Mg39 O48 2.048 . S
Mg39 O51 2.141 . S
C40 O41 1.313 . S
C40 O47 1.195 1_565 S
O41 C40 1.313 . S
C42 O43 1.245 . S
C42 O51 1.289 . S
O43 C42 1.245 . S
C44 O45 1.236 1_545 S
C44 O46 1.289 . S
O45 C44 1.236 1_565 S
O46 Mg39 2.141 . S
O46 C44 1.289 . S
O47 Mg39 2.048 . S
O47 C40 1.195 1_545 S
O48 Mg39 2.048 . S
O48 C49 1.195 . S
C49 O48 1.195 . S
C49 O50 1.313 1_545 S
O50 C49 1.313 1_565 S
O51 Mg39 2.141 . S
O51 C42 1.289 . S
Mg52 O59 2.141 . S
Mg52 O60 2.048 . S
Mg52 O61 2.048 . S
Mg52 O64 2.141 1_455 S
C53 O54 1.313 . S
C53 O60 1.195 . S
O54 C53 1.313 . S
C55 O56 1.245 1_655 S
C55 O64 1.289 . S
O56 C55 1.245 1_455 S
C57 O58 1.245 . S
C57 O59 1.289 . S
O58 C57 1.245 . S
O59 Mg52 2.141 . S
O59 C57 1.289 . S
O60 Mg52 2.048 . S
O60 C53 1.195 . S
O61 Mg52 2.048 . S
O61 C62 1.195 . S
C62 O61 1.195 . S
C62 O63 1.313 . S
O63 C62 1.313 . S
O64 Mg52 2.141 1_655 S
O64 C55 1.289 . S
Mg65 O72 2.141 . S
Mg65 O73 2.048 . S
Mg65 O74 2.048 . S
Mg65 O77 2.141 . S
C66 O67 1.313 . S
C66 O73 1.195 . S
O67 C66 1.313 . S
C68 O69 1.245 . S
C68 O77 1.289 . S
O69 C68 1.245 . S
C70 O71 1.245 . S
C70 O72 1.289 . S
O71 C70 1.245 . S
O72 Mg65 2.141 . S
O72 C70 1.289 . S
O73 Mg65 2.048 . S
O73 C66 1.195 . S
O74 Mg65 2.048 . S
O74 C75 1.195 . S
C75 O74 1.195 . S
C75 O76 1.313 . S
O76 C75 1.313 . S
O77 Mg65 2.141 . S
O77 C68 1.289 . S
Mg78 O85 2.141 . S
Mg78 O86 2.048 . S
Mg78 O87 2.048 . S
Mg78 O90 2.141 . S
C79 O80 1.313 . S
C79 O86 1.195 . S
O80 C79 1.313 . S
C81 O82 1.245 . S
C81 O90 1.289 . S
O82 C81 1.245 . S
C83 O84 1.245 . S
C83 O85 1.289 . S
O84 C83 1.245 . S
O85 Mg78 2.141 . S
O85 C83 1.289 . S
O86 Mg78 2.048 . S
O86 C79 1.195 . S
O87 Mg78 2.048 . S
O87 C88 1.195 . S
C88 O87 1.195 . S
C88 O89 1.313 . S
O89 C88 1.313 . S
O90 Mg78 2.141 . S
O90 C81 1.289 . S
Mg91 O98 2.141 . S
Mg91 O99 2.048 . S
Mg91 O100 2.048 . S
Mg91 O103 2.141 . S
C92 O93 1.313 . S
C92 O99 1.195 . S
O93 C92 1.313 . S
C94 O95 1.245 . S
C94 O103 1.289 . S
O95 C94 1.245 . S
C96 O97 1.245 . S
C96 O98 1.289 . S
O97 C96 1.245 . S
O98 Mg91 2.141 . S
O98 C96 1.289 . S
O99 Mg91 2.048 . S
O99 C92 1.195 . S
O100 Mg91 2.048 . S
O100 C101 1.195 . S
C101 O100 1.195 . S
C101 O102 1.313 . S
O102 C101 1.313 . S
O103 Mg91 2.141 . S
O103 C94 1.289 . S
Mg104 O111 2.141 . S
Mg104 O112 2.048 . S
Mg104 O113 2.048 . S
Mg104 O116 2.141 . S
C105 O106 1.313 . S
C105 O112 1.195 . S
O106 C105 1.313 . S
C107 O108 1.245 . S
C107 O116 1.289 . S
O108 C107 1.245 . S
C109 O110 1.245 . S
C109 O111 1.289 . S
O110 C109 1.245 . S
O111 Mg104 2.141 . S
O111 C109 1.289 . S
O112 Mg104 2.048 . S
O112 C105 1.195 . S
O113 Mg104 2.048 . S
O113 C114 1.195 . S
C114 O113 1.195 . S
C114 O115 1.313 . S
O115 C114 1.313 . S
O116 Mg104 2.141 . S
O116 C107 1.289 . S
Mg117 O124 2.141 . S
Mg117 O125 2.048 . S
Mg117 O126 2.048 . S
Mg117 O129 2.141 . S
C118 O119 1.313 . S
C118 O125 1.195 . S
O119 C118 1.313 . S
C120 O121 1.245 . S
C120 O129 1.289 . S
O121 C120 1.245 . S
C122 O123 1.245 . S
C122 O124 1.289 . S
O123 C122 1.245 . S
O124 Mg117 2.141 . S
O124 C122 1.289 . S
O125 Mg117 2.048 . S
O125 C118 1.195 . S
O126 Mg117 2.048 . S
O126 C127 1.195 . S
C127 O126 1.195 . S
C127 O128 1.313 . S
O128 C127 1.313 . S
O129 Mg117 2.141 . S
O129 C120 1.289 . S
Mg130 O137 2.141 . S
Mg130 O138 2.048 . S
Mg130 O139 2.048 . S
Mg130 O142 2.141 . S
C131 O132 1.313 . S
C131 O138 1.195 . S
O132 C131 1.313 . S
C133 O134 1.245 . S
C133 O142 1.289 . S
O134 C133 1.245 . S
C135 O136 1.245 . S
C135 O137 1.289 . S
O136 C135 1.245 . S
O137 Mg130 2.141 . S
O137 C135 1.289 . S
O138 Mg130 2.048 . S
O138 C131 1.195 . S
O139 Mg130 2.048 . S
O139 C140 1.195 . S
C140 O139 1.195 . S
C140 O141 1.313 . S
O141 C140 1.313 . S
O142 Mg130 2.141 . S
O142 C133 1.289 . S
Mg143 O150 2.141 . S
Mg143 O151 2.048 . S
Mg143 O152 2.048 . S
Mg143 O155 2.141 . S
C144 O145 1.313 . S
C144 O151 1.195 . S
O145 C144 1.313 . S
C146 O147 1.245 . S
C146 O155 1.289 . S
O147 C146 1.245 . S
C148 O149 1.245 . S
C148 O150 1.289 . S
O149 C148 1.245 . S
O150 Mg143 2.141 . S
O150 C148 1.289 . S
O151 Mg143 2.048 . S
O151 C144 1.195 . S
O152 Mg143 2.048 . S
O152 C153 1.195 . S
C153 O152 1.195 . S
C153 O154 1.313 . S
O154 C153 1.313 . S
O155 Mg143 2.141 . S
O155 C146 1.289 . S
Mg156 O163 2.141 . S
Mg156 O164 2.048 . S
Mg156 O165 2.048 . S
Mg156 O168 2.141 . S
C157 O158 1.313 . S
C157 O164 1.195 . S
O158 C157 1.313 . S
C159 O160 1.245 . S
C159 O168 1.289 . S
O160 C159 1.245 . S
C161 O162 1.245 . S
C161 O163 1.289 . S
O162 C161 1.245 . S
O163 Mg156 2.141 . S
O163 C161 1.289 . S
O164 Mg156 2.048 . S
O164 C157 1.195 . S
O165 Mg156 2.048 . S
O165 C166 1.195 . S
C166 O165 1.195 . S
C166 O167 1.313 . S
O167 C166 1.313 . S
O168 Mg156 2.141 . S
O168 C159 1.289 . S
Mg169 O176 2.141 . S
Mg169 O177 2.048 . S
Mg169 O178 2.048 . S
Mg169 O181 2.141 . S
C170 O171 1.313 . S
C170 O177 1.195 . S
O171 C170 1.313 . S
C172 O173 1.245 . S
C172 O181 1.289 . S
O173 C172 1.245 . S
C174 O175 1.245 . S
C174 O176 1.289 . S
O175 C174 1.245 . S
O176 Mg169 2.141 . S
O176 C174 1.289 . S
O177 Mg169 2.048 . S
O177 C170 1.195 . S
O178 Mg169 2.048 . S
O178 C179 1.195 . S
C179 O178 1.195 . S
C179 O180 1.313 . S
O180 C179 1.313 . S
O181 Mg169 2.141 . S
O181 C172 1.289 . S
Mg182 O189 2.141 . S
Mg182 O190 2.048 . S
Mg182 O191 2.048 . S
Mg182 O194 2.141 . S
C183 O184 1.313 . S
C183 O190 1.195 . S
O184 C183 1.313 . S
C185 O186 1.245 . S
C185 O194 1.289 . S
O186 C185 1.245 . S
C187 O188 1.245 . S
C187 O189 1.289 . S
O188 C187 1.245 . S
O189 Mg182 2.141 . S
O189 C187 1.289 . S
O190 Mg182 2.048 . S
O190 C183 1.195 . S
O191 Mg182 2.048 . S
O191 C192 1.195 . S
C192 O191 1.195 . S
C192 O193 1.313 . S
O193 C192 1.313 . S
O194 Mg182 2.141 . S
O194 C185 1.289 . S
Mg195 O202 2.141 . S
Mg195 O203 2.048 . S
Mg195 O204 2.048 . S
Mg195 O207 2.141 . S
C196 O197 1.313 . S
C196 O203 1.195 . S
O197 C196 1.313 . S
C198 O199 1.245 . S
C198 O207 1.289 . S
O199 C198 1.245 . S
C200 O201 1.245 . S
C200 O202 1.289 . S
O201 C200 1.245 . S
O202 Mg195 2.141 . S
O202 C200 1.289 . S
O203 Mg195 2.048 . S
O203 C196 1.195 . S
O204 Mg195 2.048 . S
O204 C205 1.195 . S
C205 O204 1.195 . S
C205 O206 1.313 . S
O206 C205 1.313 . S
O207 Mg195 2.141 . S
O207 C198 1.289 . S
Mg208 O215 2.141 . S
Mg208 O216 2.048 . S
Mg208 O217 2.048 . S
Mg208 O220 2.141 . S
C209 O210 1.313 . S
C209 O216 1.195 . S
O210 C209 1.313 . S
C211 O212 1.245 . S
C211 O220 1.289 . S
O212 C211 1.245 . S
C213 O214 1.245 . S
C213 O215 1.289 . S
O214 C213 1.245 . S
O215 Mg208 2.141 . S
O215 C213 1.289 . S
O216 Mg208 2.048 . S
O216 C209 1.195 . S
O217 Mg208 2.048 . S
O217 C218 1.195 . S
C218 O217 1.195 . S
C218 O219 1.313 . S
O219 C218 1.313 . S
O220 Mg208 2.141 . S
O220 C211 1.289 . S
Mg221 O228 2.141 . S
Mg221 O229 2.048 . S
Mg221 O230 2.048 . S
Mg221 O233 2.141 . S
C222 O223 1.313 . S
C222 O229 1.195 . S
O223 C222 1.313 . S
C224 O225 1.245 . S
C224 O233 1.289 . S
O225 C224 1.245 . S
C226 O227 1.245 . S
C226 O228 1.289 . S
O227 C226 1.245 . S
O228 Mg221 2.141 . S
O228 C226 1.289 . S
O229 Mg221 2.048 . S
O229 C222 1.195 . S
O230 Mg221 2.048 . S
O230 C231 1.195 . S
C231 O230 1.195 . S
C231 O232 1.313 . S
O232 C231 1.313 . S
O233 Mg221 2.141 . S
O233 C224 1.289 . S
C234 C235 1.349 1_655 S
C234 C236 1.327 . S
C234 H259 0.950 . S
C235 C234 1.349 1_455 S
C235 C251 1.349 . S
C236 C234 1.327 . S
C236 C255 1.429 1_655 S
C236 H260 0.950 . S
C237 C254 1.574 . S
C237 C256 1.368 . S
C237 H261 0.949 . S
H238 C242 0.949 . S
C239 C240 1.349 . S
C239 C241 1.327 . S
C239 H262 0.950 . S
C240 C239 1.349 . S
C240 C252 1.349 . S
C241 C239 1.327 . S
C241 C257 1.429 . S
C241 H263 0.950 . S
C242 H238 0.949 . S
C242 C250 1.574 . S
C242 C258 1.368 1_655 S
H243 C251 0.950 . S
H244 C249 0.950 . S
H245 C250 0.949 . S
H246 C252 0.950 1_655 S
H247 C253 0.950 1_655 S
H248 C254 0.949 . S
C249 H244 0.950 . S
C249 C251 1.327 . S
C249 C255 1.429 . S
C250 C242 1.574 . S
C250 H245 0.949 . S
C250 C256 1.368 1_655 S
C251 C235 1.349 . S
C251 H243 0.950 . S
C251 C249 1.327 . S
C252 C240 1.349 . S
C252 H246 0.950 1_455 S
C252 C253 1.327 . S
C253 H247 0.950 1_455 S
C253 C252 1.327 . S
C253 C257 1.429 . S
C254 C237 1.574 . S
C254 H248 0.949 . S
C254 C258 1.368 . S
C255 C236 1.429 1_455 S
C255 C249 1.429 . S
C255 C256 1.523 . S
C256 C237 1.368 . S
C256 C250 1.368 1_455 S
C256 C255 1.523 . S
C257 C241 1.429 . S
C257 C253 1.429 . S
C257 C258 1.523 . S
C258 C242 1.368 1_455 S
C258 C254 1.368 . S
C258 C257 1.523 . S
H259 C234 0.950 . S
H260 C236 0.950 . S
H261 C237 0.949 . S
H262 C239 0.950 . S
H263 C241 0.950 . S
C264 C265 1.349 . S
C264 C266 1.327 . S
C264 H289 0.950 . S
C265 C264 1.349 . S
C265 C281 1.349 . S
C266 C264 1.327 . S
C266 C285 1.429 . S
C266 H290 0.950 . S
C267 C284 1.574 . S
C267 C286 1.368 . S
C267 H291 0.949 . S
H268 C272 0.949 . S
C269 C270 1.349 . S
C269 C271 1.327 . S
C269 H292 0.950 . S
C270 C269 1.349 . S
C270 C282 1.349 . S
C271 C269 1.327 . S
C271 C287 1.429 . S
C271 H293 0.950 . S
C272 H268 0.949 . S
C272 C280 1.574 . S
C272 C288 1.368 . S
H273 C281 0.950 . S
H274 C279 0.950 . S
H275 C280 0.949 . S
H276 C282 0.950 . S
H277 C283 0.950 . S
H278 C284 0.949 . S
C279 H274 0.950 . S
C279 C281 1.327 . S
C279 C285 1.429 . S
C280 C272 1.574 . S
C280 H275 0.949 . S
C280 C286 1.368 . S
C281 C265 1.349 . S
C281 H273 0.950 . S
C281 C279 1.327 . S
C282 C270 1.349 . S
C282 H276 0.950 . S
C282 C283 1.327 . S
C283 H277 0.950 . S
C283 C282 1.327 . S
C283 C287 1.429 . S
C284 C267 1.574 . S
C284 H278 0.949 . S
C284 C288 1.368 . S
C285 C266 1.429 . S
C285 C279 1.429 . S
C285 C286 1.523 . S
C286 C267 1.368 . S
C286 C280 1.368 . S
C286 C285 1.523 . S
C287 C271 1.429 . S
C287 C283 1.429 . S
C287 C288 1.523 . S
C288 C272 1.368 . S
C288 C284 1.368 . S
C288 C287 1.523 . S
H289 C264 0.950 . S
H290 C266 0.950 . S
H291 C267 0.949 . S
H292 C269 0.950 . S
H293 C271 0.950 . S
C294 C295 1.349 1_545 S
C294 C296 1.327 . S
C294 H319 0.950 . S
C295 C294 1.349 1_565 S
C295 C311 1.349 . S
C296 C294 1.327 . S
C296 C315 1.429 . S
C296 H320 0.950 . S
C297 C314 1.574 . S
C297 C316 1.368 1_565 S
C297 H321 0.949 . S
H298 C302 0.949 . S
C299 C300 1.349 . S
C299 C301 1.327 . S
C299 H322 0.950 1_545 S
C300 C299 1.349 . S
C300 C312 1.349 . S
C301 C299 1.327 . S
C301 C317 1.429 . S
C301 H323 0.950 1_545 S
C302 H298 0.949 . S
C302 C310 1.574 . S
C302 C318 1.368 . S
H303 C311 0.950 . S
H304 C309 0.950 . S
H305 C310 0.949 . S
H306 C312 0.950 . S
H307 C313 0.950 . S
H308 C314 0.949 . S
C309 H304 0.950 . S
C309 C311 1.327 . S
C309 C315 1.429 1_565 S
C310 C302 1.574 . S
C310 H305 0.949 . S
C310 C316 1.368 . S
C311 C295 1.349 . S
C311 H303 0.950 . S
C311 C309 1.327 . S
C312 C300 1.349 . S
C312 H306 0.950 . S
C312 C313 1.327 . S
C313 H307 0.950 . S
C313 C312 1.327 . S
C313 C317 1.429 . S
C314 C297 1.574 . S
C314 H308 0.949 . S
C314 C318 1.368 1_565 S
C315 C296 1.429 . S
C315 C309 1.429 1_545 S
C315 C316 1.523 . S
C316 C297 1.368 1_545 S
C316 C310 1.368 . S
C316 C315 1.523 . S
C317 C301 1.429 . S
C317 C313 1.429 . S
C317 C318 1.523 . S
C318 C302 1.368 . S
C318 C314 1.368 1_545 S
C318 C317 1.523 . S
H319 C294 0.950 . S
H320 C296 0.950 . S
H321 C297 0.949 . S
H322 C299 0.950 1_565 S
H323 C301 0.950 1_565 S
C324 C325 1.349 . S
C324 C326 1.327 . S
C324 H349 0.950 . S
C325 C324 1.349 . S
C325 C341 1.349 . S
C326 C324 1.327 . S
C326 C345 1.429 . S
C326 H350 0.950 . S
C327 C344 1.574 . S
C327 C346 1.368 . S
C327 H351 0.949 . S
H328 C332 0.949 . S
C329 C330 1.349 . S
C329 C331 1.327 . S
C329 H352 0.950 . S
C330 C329 1.349 . S
C330 C342 1.349 . S
C331 C329 1.327 . S
C331 C347 1.429 . S
C331 H353 0.950 . S
C332 H328 0.949 . S
C332 C340 1.574 . S
C332 C348 1.368 . S
H333 C341 0.950 . S
H334 C339 0.950 . S
H335 C340 0.949 . S
H336 C342 0.950 . S
H337 C343 0.950 . S
H338 C344 0.949 . S
C339 H334 0.950 . S
C339 C341 1.327 . S
C339 C345 1.429 . S
C340 C332 1.574 . S
C340 H335 0.949 . S
C340 C346 1.368 . S
C341 C325 1.349 . S
C341 H333 0.950 . S
C341 C339 1.327 . S
C342 C330 1.349 . S
C342 H336 0.950 . S
C342 C343 1.327 . S
C343 H337 0.950 . S
C343 C342 1.327 . S
C343 C347 1.429 . S
C344 C327 1.574 . S
C344 H338 0.949 . S
C344 C348 1.368 . S
C345 C326 1.429 . S
C345 C339 1.429 . S
C345 C346 1.523 . S
C346 C327 1.368 . S
C346 C340 1.368 . S
C346 C345 1.523 . S
C347 C331 1.429 . S
C347 C343 1.429 . S
C347 C348 1.523 . S
C348 C332 1.368 . S
C348 C344 1.368 . S
C348 C347 1.523 . S
H349 C324 0.950 . S
H350 C326 0.950 . S
H351 C327 0.949 . S
H352 C329 0.950 . S
H353 C331 0.950 . S
C354 C355 1.349 . S
C354 C356 1.327 . S
C354 H379 0.950 . S
C355 C354 1.349 . S
C355 C371 1.349 . S
C356 C354 1.327 . S
C356 C375 1.429 . S
C356 H380 0.950 . S
C357 C374 1.574 . S
C357 C376 1.368 . S
C357 H381 0.949 . S
H358 C362 0.949 . S
C359 C360 1.349 . S
C359 C361 1.327 . S
C359 H382 0.950 . S
C360 C359 1.349 . S
C360 C372 1.349 . S
C361 C359 1.327 . S
C361 C377 1.429 . S
C361 H383 0.950 . S
C362 H358 0.949 . S
C362 C370 1.574 . S
C362 C378 1.368 . S
H363 C371 0.950 . S
H364 C369 0.950 . S
H365 C370 0.949 . S
H366 C372 0.950 . S
H367 C373 0.950 . S
H368 C374 0.949 . S
C369 H364 0.950 . S
C369 C371 1.327 . S
C369 C375 1.429 . S
C370 C362 1.574 . S
C370 H365 0.949 . S
C370 C376 1.368 . S
C371 C355 1.349 . S
C371 H363 0.950 . S
C371 C369 1.327 . S
C372 C360 1.349 . S
C372 H366 0.950 . S
C372 C373 1.327 . S
C373 H367 0.950 . S
C373 C372 1.327 . S
C373 C377 1.429 . S
C374 C357 1.574 . S
C374 H368 0.949 . S
C374 C378 1.368 . S
C375 C356 1.429 . S
C375 C369 1.429 . S
C375 C376 1.523 . S
C376 C357 1.368 . S
C376 C370 1.368 . S
C376 C375 1.523 . S
C377 C361 1.429 . S
C377 C373 1.429 . S
C377 C378 1.523 . S
C378 C362 1.368 . S
C378 C374 1.368 . S
C378 C377 1.523 . S
H379 C354 0.950 . S
H380 C356 0.950 . S
H381 C357 0.949 . S
H382 C359 0.950 . S
H383 C361 0.950 . S
C384 C385 1.349 1_565 S
C384 C386 1.327 . S
C384 H409 0.950 . S
C385 C384 1.349 1_545 S
C385 C401 1.349 . S
C386 C384 1.327 . S
C386 C405 1.429 1_565 S
C386 H410 0.950 . S
C387 C404 1.574 . S
C387 C406 1.368 . S
C387 H411 0.949 . S
H388 C392 0.949 . S
C389 C390 1.349 . S
C389 C391 1.327 . S
C389 H412 0.950 . S
C390 C389 1.349 . S
C390 C402 1.349 1_545 S
C391 C389 1.327 . S
C391 C407 1.429 . S
C391 H413 0.950 . S
C392 H388 0.949 . S
C392 C400 1.574 . S
C392 C408 1.368 1_565 S
H393 C401 0.950 . S
H394 C399 0.950 . S
H395 C400 0.949 . S
H396 C402 0.950 . S
H397 C403 0.950 . S
H398 C404 0.949 . S
C399 H394 0.950 . S
C399 C401 1.327 . S
C399 C405 1.429 . S
C400 C392 1.574 . S
C400 H395 0.949 . S
C400 C406 1.368 1_565 S
C401 C385 1.349 . S
C401 H393 0.950 . S
C401 C399 1.327 . S
C402 C390 1.349 1_565 S
C402 H396 0.950 . S
C402 C403 1.327 . S
C403 H397 0.950 . S
C403 C402 1.327 . S
C403 C407 1.429 1_565 S
C404 C387 1.574 . S
C404 H398 0.949 . S
C404 C408 1.368 . S
C405 C386 1.429 1_545 S
C405 C399 1.429 . S
C405 C406 1.523 . S
C406 C387 1.368 . S
C406 C400 1.368 1_545 S
C406 C405 1.523 . S
C407 C391 1.429 . S
C407 C403 1.429 1_545 S
C407 C408 1.523 . S
C408 C392 1.368 1_545 S
C408 C404 1.368 . S
C408 C407 1.523 . S
H409 C384 0.950 . S
H410 C386 0.950 . S
H411 C387 0.949 . S
H412 C389 0.950 . S
H413 C391 0.950 . S
C414 C415 1.349 . S
C414 C416 1.327 . S
C414 H439 0.950 . S
C415 C414 1.349 . S
C415 C431 1.349 . S
C416 C414 1.327 . S
C416 C435 1.429 . S
C416 H440 0.950 . S
C417 C434 1.574 . S
C417 C436 1.368 . S
C417 H441 0.949 . S
H418 C422 0.949 . S
C419 C420 1.349 . S
C419 C421 1.327 . S
C419 H442 0.950 . S
C420 C419 1.349 . S
C420 C432 1.349 . S
C421 C419 1.327 . S
C421 C437 1.429 . S
C421 H443 0.950 . S
C422 H418 0.949 . S
C422 C430 1.574 . S
C422 C438 1.368 . S
H423 C431 0.950 . S
H424 C429 0.950 . S
H425 C430 0.949 . S
H426 C432 0.950 . S
H427 C433 0.950 . S
H428 C434 0.949 . S
C429 H424 0.950 . S
C429 C431 1.327 . S
C429 C435 1.429 . S
C430 C422 1.574 . S
C430 H425 0.949 . S
C430 C436 1.368 . S
C431 C415 1.349 . S
C431 H423 0.950 . S
C431 C429 1.327 . S
C432 C420 1.349 . S
C432 H426 0.950 . S
C432 C433 1.327 . S
C433 H427 0.950 . S
C433 C432 1.327 . S
C433 C437 1.429 . S
C434 C417 1.574 . S
C434 H428 0.949 . S
C434 C438 1.368 . S
C435 C416 1.429 . S
C435 C429 1.429 . S
C435 C436 1.523 . S
C436 C417 1.368 . S
C436 C430 1.368 . S
C436 C435 1.523 . S
C437 C421 1.429 . S
C437 C433 1.429 . S
C437 C438 1.523 . S
C438 C422 1.368 . S
C438 C434 1.368 . S
C438 C437 1.523 . S
H439 C414 0.950 . S
H440 C416 0.950 . S
H441 C417 0.949 . S
H442 C419 0.950 . S
H443 C421 0.950 . S
C444 C445 1.349 . S
C444 C446 1.327 . S
C444 H469 0.950 . S
C445 C444 1.349 . S
C445 C461 1.349 . S
C446 C444 1.327 . S
C446 C465 1.429 . S
C446 H470 0.950 . S
C447 C464 1.574 . S
C447 C466 1.368 . S
C447 H471 0.949 . S
H448 C452 0.949 . S
C449 C450 1.349 . S
C449 C451 1.327 . S
C449 H472 0.950 . S
C450 C449 1.349 . S
C450 C462 1.349 . S
C451 C449 1.327 . S
C451 C467 1.429 . S
C451 H473 0.950 . S
C452 H448 0.949 . S
C452 C460 1.574 . S
C452 C468 1.368 . S
H453 C461 0.950 . S
H454 C459 0.950 . S
H455 C460 0.949 . S
H456 C462 0.950 . S
H457 C463 0.950 . S
H458 C464 0.949 . S
C459 H454 0.950 . S
C459 C461 1.327 . S
C459 C465 1.429 . S
C460 C452 1.574 . S
C460 H455 0.949 . S
C460 C466 1.368 . S
C461 C445 1.349 . S
C461 H453 0.950 . S
C461 C459 1.327 . S
C462 C450 1.349 . S
C462 H456 0.950 . S
C462 C463 1.327 . S
C463 H457 0.950 . S
C463 C462 1.327 . S
C463 C467 1.429 . S
C464 C447 1.574 . S
C464 H458 0.949 . S
C464 C468 1.368 . S
C465 C446 1.429 . S
C465 C459 1.429 . S
C465 C466 1.523 . S
C466 C447 1.368 . S
C466 C460 1.368 . S
C466 C465 1.523 . S
C467 C451 1.429 . S
C467 C463 1.429 . S
C467 C468 1.523 . S
C468 C452 1.368 . S
C468 C464 1.368 . S
C468 C467 1.523 . S
H469 C444 0.950 . S
H470 C446 0.950 . S
H471 C447 0.949 . S
H472 C449 0.950 . S
H473 C451 0.950 . S
C474 C475 1.349 . S
C474 C476 1.327 . S
C474 H499 0.950 . S
C475 C474 1.349 . S
C475 C491 1.349 . S
C476 C474 1.327 . S
C476 C495 1.429 . S
C476 H500 0.950 . S
C477 C494 1.574 . S
C477 C496 1.368 . S
C477 H501 0.949 . S
H478 C482 0.949 . S
C479 C480 1.349 . S
C479 C481 1.327 . S
C479 H502 0.950 . S
C480 C479 1.349 . S
C480 C492 1.349 . S
C481 C479 1.327 . S
C481 C497 1.429 . S
C481 H503 0.950 . S
C482 H478 0.949 . S
C482 C490 1.574 . S
C482 C498 1.368 . S
H483 C491 0.950 . S
H484 C489 0.950 . S
H485 C490 0.949 . S
H486 C492 0.950 . S
H487 C493 0.950 . S
H488 C494 0.949 . S
C489 H484 0.950 . S
C489 C491 1.327 . S
C489 C495 1.429 . S
C490 C482 1.574 . S
C490 H485 0.949 . S
C490 C496 1.368 . S
C491 C475 1.349 . S
C491 H483 0.950 . S
C491 C489 1.327 . S
C492 C480 1.349 . S
C492 H486 0.950 . S
C492 C493 1.327 . S
C493 H487 0.950 . S
C493 C492 1.327 . S
C493 C497 1.429 . S
C494 C477 1.574 . S
C494 H488 0.949 . S
C494 C498 1.368 . S
C495 C476 1.429 . S
C495 C489 1.429 . S
C495 C496 1.523 . S
C496 C477 1.368 . S
C496 C490 1.368 . S
C496 C495 1.523 . S
C497 C481 1.429 . S
C497 C493 1.429 . S
C497 C498 1.523 . S
C498 C482 1.368 . S
C498 C494 1.368 . S
C498 C497 1.523 . S
H499 C474 0.950 . S
H500 C476 0.950 . S
H501 C477 0.949 . S
H502 C479 0.950 . S
H503 C481 0.950 . S
C504 C505 1.349 . S
C504 C506 1.327 . S
C504 H529 0.950 . S
C505 C504 1.349 . S
C505 C521 1.349 . S
C506 C504 1.327 . S
C506 C525 1.429 . S
C506 H530 0.950 . S
C507 C524 1.574 . S
C507 C526 1.368 . S
C507 H531 0.949 . S
H508 C512 0.949 . S
C509 C510 1.349 . S
C509 C511 1.327 1_556 S
C509 H532 0.950 . S
C510 C509 1.349 . S
C510 C522 1.349 . S
C511 C509 1.327 1_554 S
C511 C527 1.429 . S
C511 H533 0.950 . S
C512 H508 0.949 . S
C512 C520 1.574 . S
C512 C528 1.368 . S
H513 C521 0.950 . S
H514 C519 0.950 . S
H515 C520 0.949 . S
H516 C522 0.950 . S
H517 C523 0.950 . S
H518 C524 0.949 . S
C519 H514 0.950 . S
C519 C521 1.327 . S
C519 C525 1.429 . S
C520 C512 1.574 . S
C520 H515 0.949 . S
C520 C526 1.368 . S
C521 C505 1.349 . S
C521 H513 0.950 . S
C521 C519 1.327 . S
C522 C510 1.349 . S
C522 H516 0.950 . S
C522 C523 1.327 1_556 S
C523 H517 0.950 . S
C523 C522 1.327 1_554 S
C523 C527 1.429 . S
C524 C507 1.574 . S
C524 H518 0.949 . S
C524 C528 1.368 . S
C525 C506 1.429 . S
C525 C519 1.429 . S
C525 C526 1.523 . S
C526 C507 1.368 . S
C526 C520 1.368 . S
C526 C525 1.523 . S
C527 C511 1.429 . S
C527 C523 1.429 . S
C527 C528 1.523 . S
C528 C512 1.368 . S
C528 C524 1.368 . S
C528 C527 1.523 . S
H529 C504 0.950 . S
H530 C506 0.950 . S
H531 C507 0.949 . S
H532 C509 0.950 . S
H533 C511 0.950 . S
C534 C535 1.349 . S
C534 C536 1.327 1_556 S
C534 H559 0.950 . S
C535 C534 1.349 . S
C535 C551 1.349 . S
C536 C534 1.327 1_554 S
C536 C555 1.429 . S
C536 H560 0.950 . S
C537 C554 1.574 . S
C537 C556 1.368 . S
C537 H561 0.949 . S
H538 C542 0.949 . S
C539 C540 1.349 . S
C539 C541 1.327 . S
C539 H562 0.950 . S
C540 C539 1.349 . S
C540 C552 1.349 . S
C541 C539 1.327 . S
C541 C557 1.429 . S
C541 H563 0.950 . S
C542 H538 0.949 . S
C542 C550 1.574 . S
C542 C558 1.368 . S
H543 C551 0.950 . S
H544 C549 0.950 . S
H545 C550 0.949 . S
H546 C552 0.950 . S
H547 C553 0.950 . S
H548 C554 0.949 . S
C549 H544 0.950 . S
C549 C551 1.327 1_554 S
C549 C555 1.429 . S
C550 C542 1.574 . S
C550 H545 0.949 . S
C550 C556 1.368 . S
C551 C535 1.349 . S
C551 H543 0.950 . S
C551 C549 1.327 1_556 S
C552 C540 1.349 . S
C552 H546 0.950 . S
C552 C553 1.327 . S
C553 H547 0.950 . S
C553 C552 1.327 . S
C553 C557 1.429 . S
C554 C537 1.574 . S
C554 H548 0.949 . S
C554 C558 1.368 . S
C555 C536 1.429 . S
C555 C549 1.429 . S
C555 C556 1.523 . S
C556 C537 1.368 . S
C556 C550 1.368 . S
C556 C555 1.523 . S
C557 C541 1.429 . S
C557 C553 1.429 . S
C557 C558 1.523 . S
C558 C542 1.368 . S
C558 C554 1.368 . S
C558 C557 1.523 . S
H559 C534 0.950 . S
H560 C536 0.950 . S
H561 C537 0.949 . S
H562 C539 0.950 . S
H563 C541 0.950 . S
C564 C565 1.349 . S
C564 C566 1.327 1_556 S
C564 H589 0.950 . S
C565 C564 1.349 . S
C565 C581 1.349 . S
C566 C564 1.327 1_554 S
C566 C585 1.429 . S
C566 H590 0.950 . S
C567 C584 1.574 . S
C567 C586 1.368 . S
C567 H591 0.949 . S
H568 C572 0.949 . S
C569 C570 1.349 . S
C569 C571 1.327 . S
C569 H592 0.950 . S
C570 C569 1.349 . S
C570 C582 1.349 . S
C571 C569 1.327 . S
C571 C587 1.429 . S
C571 H593 0.950 . S
C572 H568 0.949 . S
C572 C580 1.574 . S
C572 C588 1.368 . S
H573 C581 0.950 . S
H574 C579 0.950 . S
H575 C580 0.949 . S
H576 C582 0.950 . S
H577 C583 0.950 . S
H578 C584 0.949 . S
C579 H574 0.950 . S
C579 C581 1.327 1_554 S
C579 C585 1.429 . S
C580 C572 1.574 . S
C580 H575 0.949 . S
C580 C586 1.368 . S
C581 C565 1.349 . S
C581 H573 0.950 . S
C581 C579 1.327 1_556 S
C582 C570 1.349 . S
C582 H576 0.950 . S
C582 C583 1.327 . S
C583 H577 0.950 . S
C583 C582 1.327 . S
C583 C587 1.429 . S
C584 C567 1.574 . S
C584 H578 0.949 . S
C584 C588 1.368 . S
C585 C566 1.429 . S
C585 C579 1.429 . S
C585 C586 1.523 . S
C586 C567 1.368 . S
C586 C580 1.368 . S
C586 C585 1.523 . S
C587 C571 1.429 . S
C587 C583 1.429 . S
C587 C588 1.523 . S
C588 C572 1.368 . S
C588 C584 1.368 . S
C588 C587 1.523 . S
H589 C564 0.950 . S
H590 C566 0.950 . S
H591 C567 0.949 . S
H592 C569 0.950 . S
H593 C571 0.950 . S
C594 C595 1.349 . S
C594 C596 1.327 . S
C594 H619 0.950 . S
C595 C594 1.349 . S
C595 C611 1.349 . S
C596 C594 1.327 . S
C596 C615 1.429 . S
C596 H620 0.950 . S
C597 C614 1.574 . S
C597 C616 1.368 . S
C597 H621 0.949 . S
H598 C602 0.949 . S
C599 C600 1.349 . S
C599 C601 1.327 . S
C599 H622 0.950 . S
C600 C599 1.349 . S
C600 C612 1.349 . S
C601 C599 1.327 . S
C601 C617 1.429 . S
C601 H623 0.950 . S
C602 H598 0.949 . S
C602 C610 1.574 . S
C602 C618 1.368 . S
H603 C611 0.950 . S
H604 C609 0.950 . S
H605 C610 0.949 . S
H606 C612 0.950 . S
H607 C613 0.950 . S
H608 C614 0.949 . S
C609 H604 0.950 . S
C609 C611 1.327 . S
C609 C615 1.429 . S
C610 C602 1.574 . S
C610 H605 0.949 . S
C610 C616 1.368 . S
C611 C595 1.349 . S
C611 H603 0.950 . S
C611 C609 1.327 . S
C612 C600 1.349 . S
C612 H606 0.950 . S
C612 C613 1.327 . S
C613 H607 0.950 . S
C613 C612 1.327 . S
C613 C617 1.429 . S
C614 C597 1.574 . S
C614 H608 0.949 . S
C614 C618 1.368 . S
C615 C596 1.429 . S
C615 C609 1.429 . S
C615 C616 1.523 1_554 S
C616 C597 1.368 . S
C616 C610 1.368 . S
C616 C615 1.523 1_556 S
C617 C601 1.429 . S
C617 C613 1.429 . S
C617 C618 1.523 . S
C618 C602 1.368 . S
C618 C614 1.368 . S
C618 C617 1.523 . S
H619 C594 0.950 . S
H620 C596 0.950 . S
H621 C597 0.949 . S
H622 C599 0.950 . S
H623 C601 0.950 . S
C624 C625 1.349 . S
C624 C626 1.327 . S
C624 H649 0.950 . S
C625 C624 1.349 . S
C625 C641 1.349 . S
C626 C624 1.327 . S
C626 C645 1.429 . S
C626 H650 0.950 . S
C627 C644 1.574 . S
C627 C646 1.368 . S
C627 H651 0.949 . S
H628 C632 0.949 . S
C629 C630 1.349 . S
C629 C631 1.327 . S
C629 H652 0.950 . S
C630 C629 1.349 . S
C630 C642 1.349 . S
C631 C629 1.327 . S
C631 C647 1.429 . S
C631 H653 0.950 . S
C632 H628 0.949 . S
C632 C640 1.574 . S
C632 C648 1.368 . S
H633 C641 0.950 . S
H634 C639 0.950 . S
H635 C640 0.949 . S
H636 C642 0.950 . S
H637 C643 0.950 . S
H638 C644 0.949 . S
C639 H634 0.950 . S
C639 C641 1.327 . S
C639 C645 1.429 . S
C640 C632 1.574 . S
C640 H635 0.949 . S
C640 C646 1.368 . S
C641 C625 1.349 . S
C641 H633 0.950 . S
C641 C639 1.327 . S
C642 C630 1.349 . S
C642 H636 0.950 . S
C642 C643 1.327 . S
C643 H637 0.950 . S
C643 C642 1.327 . S
C643 C647 1.429 . S
C644 C627 1.574 . S
C644 H638 0.949 . S
C644 C648 1.368 . S
C645 C626 1.429 . S
C645 C639 1.429 . S
C645 C646 1.523 . S
C646 C627 1.368 . S
C646 C640 1.368 . S
C646 C645 1.523 . S
C647 C631 1.429 . S
C647 C643 1.429 . S
C647 C648 1.523 1_554 S
C648 C632 1.368 . S
C648 C644 1.368 . S
C648 C647 1.523 1_556 S
H649 C624 0.950 . S
H650 C626 0.950 . S
H651 C627 0.949 . S
H652 C629 0.950 . S
H653 C631 0.950 . S
C654 C655 1.349 . S
C654 C656 1.327 . S
C654 H679 0.950 . S
C655 C654 1.349 . S
C655 C671 1.349 . S
C656 C654 1.327 . S
C656 C675 1.429 . S
C656 H680 0.950 . S
C657 C674 1.574 . S
C657 C676 1.368 . S
C657 H681 0.949 . S
H658 C662 0.949 . S
C659 C660 1.349 . S
C659 C661 1.327 . S
C659 H682 0.950 . S
C660 C659 1.349 . S
C660 C672 1.349 . S
C661 C659 1.327 . S
C661 C677 1.429 . S
C661 H683 0.950 . S
C662 H658 0.949 . S
C662 C670 1.574 . S
C662 C678 1.368 . S
H663 C671 0.950 . S
H664 C669 0.950 . S
H665 C670 0.949 . S
H666 C672 0.950 . S
H667 C673 0.950 . S
H668 C674 0.949 . S
C669 H664 0.950 . S
C669 C671 1.327 . S
C669 C675 1.429 . S
C670 C662 1.574 . S
C670 H665 0.949 . S
C670 C676 1.368 . S
C671 C655 1.349 . S
C671 H663 0.950 . S
C671 C669 1.327 . S
C672 C660 1.349 . S
C672 H666 0.950 . S
C672 C673 1.327 . S
C673 H667 0.950 . S
C673 C672 1.327 . S
C673 C677 1.429 . S
C674 C657 1.574 . S
C674 H668 0.949 . S
C674 C678 1.368 . S
C675 C656 1.429 . S
C675 C669 1.429 . S
C675 C676 1.523 1_554 S
C676 C657 1.368 . S
C676 C670 1.368 . S
C676 C675 1.523 1_556 S
C677 C661 1.429 . S
C677 C673 1.429 . S
C677 C678 1.523 . S
C678 C662 1.368 . S
C678 C674 1.368 . S
C678 C677 1.523 . S
H679 C654 0.950 . S
H680 C656 0.950 . S
H681 C657 0.949 . S
H682 C659 0.950 . S
H683 C661 0.950 . S
C684 C685 1.349 . S
C684 C686 1.327 . S
C684 H709 0.950 . S
C685 C684 1.349 . S
C685 C701 1.349 . S
C686 C684 1.327 . S
C686 C705 1.429 . S
C686 H710 0.950 . S
C687 C704 1.574 . S
C687 C706 1.368 . S
C687 H711 0.949 . S
H688 C692 0.949 . S
C689 C690 1.349 . S
C689 C691 1.327 . S
C689 H712 0.950 . S
C690 C689 1.349 . S
C690 C702 1.349 . S
C691 C689 1.327 . S
C691 C707 1.429 . S
C691 H713 0.950 . S
C692 H688 0.949 . S
C692 C700 1.574 . S
C692 C708 1.368 . S
H693 C701 0.950 . S
H694 C699 0.950 . S
H695 C700 0.949 . S
H696 C702 0.950 . S
H697 C703 0.950 . S
H698 C704 0.949 . S
C699 H694 0.950 . S
C699 C701 1.327 . S
C699 C705 1.429 . S
C700 C692 1.574 . S
C700 H695 0.949 . S
C700 C706 1.368 . S
C701 C685 1.349 . S
C701 H693 0.950 . S
C701 C699 1.327 . S
C702 C690 1.349 . S
C702 H696 0.950 . S
C702 C703 1.327 . S
C703 H697 0.950 . S
C703 C702 1.327 . S
C703 C707 1.429 . S
C704 C687 1.574 . S
C704 H698 0.949 . S
C704 C708 1.368 . S
C705 C686 1.429 . S
C705 C699 1.429 . S
C705 C706 1.523 . S
C706 C687 1.368 . S
C706 C700 1.368 . S
C706 C705 1.523 . S
C707 C691 1.429 . S
C707 C703 1.429 . S
C707 C708 1.523 . S
C708 C692 1.368 . S
C708 C704 1.368 . S
C708 C707 1.523 . S
H709 C684 0.950 . S
H710 C686 0.950 . S
H711 C687 0.949 . S
H712 C689 0.950 . S
H713 C691 0.950 . S
C714 C715 1.349 . S
C714 C716 1.327 . S
C714 H739 0.950 . S
C715 C714 1.349 . S
C715 C731 1.349 . S
C716 C714 1.327 . S
C716 C735 1.429 . S
C716 H740 0.950 . S
C717 C734 1.574 . S
C717 C736 1.368 . S
C717 H741 0.949 . S
H718 C722 0.949 . S
C719 C720 1.349 . S
C719 C721 1.327 . S
C719 H742 0.950 . S
C720 C719 1.349 . S
C720 C732 1.349 . S
C721 C719 1.327 . S
C721 C737 1.429 . S
C721 H743 0.950 . S
C722 H718 0.949 . S
C722 C730 1.574 . S
C722 C738 1.368 . S
H723 C731 0.950 . S
H724 C729 0.950 . S
H725 C730 0.949 . S
H726 C732 0.950 . S
H727 C733 0.950 . S
H728 C734 0.949 . S
C729 H724 0.950 . S
C729 C731 1.327 . S
C729 C735 1.429 . S
C730 C722 1.574 . S
C730 H725 0.949 . S
C730 C736 1.368 . S
C731 C715 1.349 . S
C731 H723 0.950 . S
C731 C729 1.327 . S
C732 C720 1.349 . S
C732 H726 0.950 . S
C732 C733 1.327 . S
C733 H727 0.950 . S
C733 C732 1.327 . S
C733 C737 1.429 . S
C734 C717 1.574 . S
C734 H728 0.949 . S
C734 C738 1.368 . S
C735 C716 1.429 . S
C735 C729 1.429 . S
C735 C736 1.523 . S
C736 C717 1.368 . S
C736 C730 1.368 . S
C736 C735 1.523 . S
C737 C721 1.429 . S
C737 C733 1.429 . S
C737 C738 1.523 . S
C738 C722 1.368 . S
C738 C734 1.368 . S
C738 C737 1.523 . S
H739 C714 0.950 . S
H740 C716 0.950 . S
H741 C717 0.949 . S
H742 C719 0.950 . S
H743 C721 0.950 . S
C744 C745 1.349 . S
C744 C746 1.327 . S
C744 H769 0.950 . S
C745 C744 1.349 . S
C745 C761 1.349 . S
C746 C744 1.327 . S
C746 C765 1.429 . S
C746 H770 0.950 . S
C747 C764 1.574 . S
C747 C766 1.368 . S
C747 H771 0.949 . S
H748 C752 0.949 . S
C749 C750 1.349 . S
C749 C751 1.327 . S
C749 H772 0.950 . S
C750 C749 1.349 . S
C750 C762 1.349 . S
C751 C749 1.327 . S
C751 C767 1.429 . S
C751 H773 0.950 . S
C752 H748 0.949 . S
C752 C760 1.574 . S
C752 C768 1.368 . S
H753 C761 0.950 . S
H754 C759 0.950 . S
H755 C760 0.949 . S
H756 C762 0.950 . S
H757 C763 0.950 . S
H758 C764 0.949 . S
C759 H754 0.950 . S
C759 C761 1.327 . S
C759 C765 1.429 . S
C760 C752 1.574 . S
C760 H755 0.949 . S
C760 C766 1.368 . S
C761 C745 1.349 . S
C761 H753 0.950 . S
C761 C759 1.327 . S
C762 C750 1.349 . S
C762 H756 0.950 . S
C762 C763 1.327 . S
C763 H757 0.950 . S
C763 C762 1.327 . S
C763 C767 1.429 . S
C764 C747 1.574 . S
C764 H758 0.949 . S
C764 C768 1.368 . S
C765 C746 1.429 . S
C765 C759 1.429 . S
C765 C766 1.523 . S
C766 C747 1.368 . S
C766 C760 1.368 . S
C766 C765 1.523 . S
C767 C751 1.429 . S
C767 C763 1.429 . S
C767 C768 1.523 . S
C768 C752 1.368 . S
C768 C764 1.368 . S
C768 C767 1.523 . S
H769 C744 0.950 . S
H770 C746 0.950 . S
H771 C747 0.949 . S
H772 C749 0.950 . S
H773 C751 0.950 . S
C774 C775 1.350 1_554 S
C774 C776 1.327 . S
C774 H799 0.950 . S
C775 C774 1.350 1_556 S
C775 C791 1.348 . S
C776 C774 1.327 . S
C776 C795 1.429 1_554 S
C776 H800 0.950 . S
C777 C794 1.574 . S
C777 C796 1.368 . S
C777 H801 0.949 . S
H778 C782 0.949 . S
C779 C780 1.349 . S
C779 C781 1.327 . S
C779 H802 0.950 . S
C780 C779 1.349 . S
C780 C792 1.349 . S
C781 C779 1.327 . S
C781 C797 1.429 . S
C781 H803 0.950 . S
C782 H778 0.949 . S
C782 C790 1.574 . S
C782 C798 1.368 . S
H783 C791 0.950 . S
H784 C789 0.950 . S
H785 C790 0.949 1_554 S
H786 C792 0.950 . S
H787 C793 0.950 . S
H788 C794 0.949 . S
C789 H784 0.950 . S
C789 C791 1.327 . S
C789 C795 1.429 . S
C790 C782 1.574 . S
C790 H785 0.949 1_556 S
C790 C796 1.368 . S
C791 C775 1.348 . S
C791 H783 0.950 . S
C791 C789 1.327 . S
C792 C780 1.349 . S
C792 H786 0.950 . S
C792 C793 1.327 . S
C793 H787 0.950 . S
C793 C792 1.327 . S
C793 C797 1.429 . S
C794 C777 1.574 . S
C794 H788 0.949 . S
C794 C798 1.368 . S
C795 C776 1.429 1_556 S
C795 C789 1.429 . S
C795 C796 1.523 . S
C796 C777 1.368 . S
C796 C790 1.368 . S
C796 C795 1.523 . S
C797 C781 1.429 . S
C797 C793 1.429 . S
C797 C798 1.523 . S
C798 C782 1.368 . S
C798 C794 1.368 . S
C798 C797 1.523 . S
H799 C774 0.950 . S
H800 C776 0.950 . S
H801 C777 0.949 . S
H802 C779 0.950 . S
H803 C781 0.950 . S
C804 C805 1.349 . S
C804 C806 1.327 . S
C804 H829 0.950 . S
C805 C804 1.349 . S
C805 C821 1.349 . S
C806 C804 1.327 . S
C806 C825 1.429 . S
C806 H830 0.950 . S
C807 C824 1.574 . S
C807 C826 1.368 . S
C807 H831 0.949 . S
H808 C812 0.949 . S
C809 C810 1.362 . S
C809 C811 1.327 . S
C809 H832 0.950 . S
C810 C809 1.362 . S
C810 C822 1.326 1_554 S
C811 C809 1.327 . S
C811 C827 1.429 1_554 S
C811 H833 0.950 . S
C812 H808 0.949 . S
C812 C820 1.574 . S
C812 C828 1.368 . S
H813 C821 0.950 . S
H814 C819 0.950 . S
H815 C820 0.949 . S
H816 C822 0.950 . S
H817 C823 0.950 . S
H818 C824 0.923 1_554 S
C819 H814 0.950 . S
C819 C821 1.327 . S
C819 C825 1.429 . S
C820 C812 1.574 . S
C820 H815 0.949 . S
C820 C826 1.368 . S
C821 C805 1.349 . S
C821 H813 0.950 . S
C821 C819 1.327 . S
C822 C810 1.326 1_556 S
C822 H816 0.950 . S
C822 C823 1.327 . S
C823 H817 0.950 . S
C823 C822 1.327 . S
C823 C827 1.429 . S
C824 C807 1.574 . S
C824 H818 0.923 1_556 S
C824 C828 1.368 . S
C825 C806 1.429 . S
C825 C819 1.429 . S
C825 C826 1.523 . S
C826 C807 1.368 . S
C826 C820 1.368 . S
C826 C825 1.523 . S
C827 C811 1.429 1_556 S
C827 C823 1.429 . S
C827 C828 1.523 . S
C828 C812 1.368 . S
C828 C824 1.368 . S
C828 C827 1.523 . S
H829 C804 0.950 . S
H830 C806 0.950 . S
H831 C807 0.949 . S
H832 C809 0.950 . S
H833 C811 0.950 . S
C834 C835 1.349 . S
C834 C836 1.327 . S
C834 H859 0.950 . S
C835 C834 1.349 . S
C835 C851 1.349 . S
C836 C834 1.327 . S
C836 C855 1.429 . S
C836 H860 0.950 . S
C837 C854 1.574 . S
C837 C856 1.368 . S
C837 H861 0.949 . S
H838 C842 0.949 . S
C839 C840 1.347 1_556 S
C839 C841 1.327 . S
C839 H862 0.950 1_556 S
C840 C839 1.347 1_554 S
C840 C852 1.343 1_554 S
C841 C839 1.327 . S
C841 C857 1.429 . S
C841 H863 0.950 . S
C842 H838 0.949 . S
C842 C850 1.574 . S
C842 C858 1.368 . S
H843 C851 0.950 . S
H844 C849 0.950 . S
H845 C850 0.949 . S
H846 C852 0.950 . S
H847 C853 0.950 . S
H848 C854 0.949 . S
C849 H844 0.950 . S
C849 C851 1.327 . S
C849 C855 1.429 . S
C850 C842 1.574 . S
C850 H845 0.949 . S
C850 C856 1.368 . S
C851 C835 1.349 . S
C851 H843 0.950 . S
C851 C849 1.327 . S
C852 C840 1.343 1_556 S
C852 H846 0.950 . S
C852 C853 1.327 . S
C853 H847 0.950 . S
C853 C852 1.327 . S
C853 C857 1.429 . S
C854 C837 1.574 . S
C854 H848 0.949 . S
C854 C858 1.368 . S
C855 C836 1.429 . S
C855 C849 1.429 . S
C855 C856 1.523 . S
C856 C837 1.368 . S
C856 C850 1.368 . S
C856 C855 1.523 . S
C857 C841 1.429 . S
C857 C853 1.429 . S
C857 C858 1.523 . S
C858 C842 1.368 . S
C858 C854 1.368 . S
C858 C857 1.523 . S
H859 C834 0.950 . S
H860 C836 0.950 . S
H861 C837 0.949 . S
H862 C839 0.950 1_554 S
H863 C841 0.950 . S
C864 C865 1.349 . S
C864 C866 1.327 . S
C864 H889 0.950 . S
C865 C864 1.349 . S
C865 C881 1.349 . S
C866 C864 1.327 . S
C866 C885 1.429 . S
C866 H890 0.950 . S
C867 C884 1.574 . S
C867 C886 1.368 . S
C867 H891 0.949 . S
H868 C872 0.949 . S
C869 C870 1.349 . S
C869 C871 1.327 . S
C869 H892 0.950 . S
C870 C869 1.349 . S
C870 C882 1.349 . S
C871 C869 1.327 . S
C871 C887 1.429 . S
C871 H893 0.950 . S
C872 H868 0.949 . S
C872 C880 1.574 . S
C872 C888 1.368 . S
H873 C881 0.950 . S
H874 C879 0.950 . S
H875 C880 0.949 . S
H876 C882 0.950 . S
H877 C883 0.950 . S
H878 C884 0.949 . S
C879 H874 0.950 . S
C879 C881 1.327 . S
C879 C885 1.429 . S
C880 C872 1.574 . S
C880 H875 0.949 . S
C880 C886 1.368 . S
C881 C865 1.349 . S
C881 H873 0.950 . S
C881 C879 1.327 . S
C882 C870 1.349 . S
C882 H876 0.950 . S
C882 C883 1.327 . S
C883 H877 0.950 . S
C883 C882 1.327 . S
C883 C887 1.429 . S
C884 C867 1.574 . S
C884 H878 0.949 . S
C884 C888 1.368 . S
C885 C866 1.429 . S
C885 C879 1.429 . S
C885 C886 1.523 . S
C886 C867 1.368 . S
C886 C880 1.368 . S
C886 C885 1.523 . S
C887 C871 1.429 . S
C887 C883 1.429 . S
C887 C888 1.523 . S
C888 C872 1.368 . S
C888 C884 1.368 . S
C888 C887 1.523 . S
H889 C864 0.950 . S
H890 C866 0.950 . S
H891 C867 0.949 . S
H892 C869 0.950 . S
H893 C871 0.950 . S
C894 C895 1.349 . S
C894 C896 1.327 . S
C894 H919 0.950 . S
C895 C894 1.349 . S
C895 C911 1.349 . S
C896 C894 1.327 . S
C896 C915 1.429 . S
C896 H920 0.950 . S
C897 C914 1.574 . S
C897 C916 1.368 . S
C897 H921 0.949 . S
H898 C902 0.949 . S
C899 C900 1.349 . S
C899 C901 1.327 . S
C899 H922 0.950 . S
C900 C899 1.349 . S
C900 C912 1.349 . S
C901 C899 1.327 . S
C901 C917 1.429 . S
C901 H923 0.950 . S
C902 H898 0.949 . S
C902 C910 1.574 . S
C902 C918 1.368 . S
H903 C911 0.950 . S
H904 C909 0.950 . S
H905 C910 0.949 . S
H906 C912 0.950 . S
H907 C913 0.950 . S
H908 C914 0.949 . S
C909 H904 0.950 . S
C909 C911 1.327 . S
C909 C915 1.429 . S
C910 C902 1.574 . S
C910 H905 0.949 . S
C910 C916 1.368 . S
C911 C895 1.349 . S
C911 H903 0.950 . S
C911 C909 1.327 . S
C912 C900 1.349 . S
C912 H906 0.950 . S
C912 C913 1.327 . S
C913 H907 0.950 . S
C913 C912 1.327 . S
C913 C917 1.429 . S
C914 C897 1.574 . S
C914 H908 0.949 . S
C914 C918 1.368 . S
C915 C896 1.429 . S
C915 C909 1.429 . S
C915 C916 1.523 . S
C916 C897 1.368 . S
C916 C910 1.368 . S
C916 C915 1.523 . S
C917 C901 1.429 . S
C917 C913 1.429 . S
C917 C918 1.523 . S
C918 C902 1.368 . S
C918 C914 1.368 . S
C918 C917 1.523 . S
H919 C894 0.950 . S
H920 C896 0.950 . S
H921 C897 0.949 . S
H922 C899 0.950 . S
H923 C901 0.950 . S
C924 C925 1.349 . S
C924 C926 1.327 . S
C924 H949 0.950 . S
C925 C924 1.349 . S
C925 C941 1.349 . S
C926 C924 1.327 . S
C926 C945 1.429 . S
C926 H950 0.950 . S
C927 C944 1.574 . S
C927 C946 1.368 . S
C927 H951 0.949 . S
H928 C932 0.949 . S
C929 C930 1.349 . S
C929 C931 1.327 . S
C929 H952 0.950 . S
C930 C929 1.349 . S
C930 C942 1.349 . S
C931 C929 1.327 . S
C931 C947 1.429 . S
C931 H953 0.950 . S
C932 H928 0.949 . S
C932 C940 1.574 . S
C932 C948 1.368 . S
H933 C941 0.950 . S
H934 C939 0.950 . S
H935 C940 0.949 . S
H936 C942 0.950 . S
H937 C943 0.950 . S
H938 C944 0.949 . S
C939 H934 0.950 . S
C939 C941 1.327 . S
C939 C945 1.429 . S
C940 C932 1.574 . S
C940 H935 0.949 . S
C940 C946 1.368 . S
C941 C925 1.349 . S
C941 H933 0.950 . S
C941 C939 1.327 . S
C942 C930 1.349 . S
C942 H936 0.950 . S
C942 C943 1.327 . S
C943 H937 0.950 . S
C943 C942 1.327 . S
C943 C947 1.429 . S
C944 C927 1.574 . S
C944 H938 0.949 . S
C944 C948 1.368 . S
C945 C926 1.429 . S
C945 C939 1.429 . S
C945 C946 1.523 . S
C946 C927 1.368 . S
C946 C940 1.368 . S
C946 C945 1.523 . S
C947 C931 1.429 . S
C947 C943 1.429 . S
C947 C948 1.523 . S
C948 C932 1.368 . S
C948 C944 1.368 . S
C948 C947 1.523 . S
H949 C924 0.950 . S
H950 C926 0.950 . S
H951 C927 0.949 . S
H952 C929 0.950 . S
H953 C931 0.950 . S
C954 C955 1.349 . S
C954 C956 1.327 . S
C954 H979 0.950 . S
C955 C954 1.349 . S
C955 C971 1.349 . S
C956 C954 1.327 . S
C956 C975 1.429 . S
C956 H980 0.950 . S
C957 C974 1.574 . S
C957 C976 1.368 . S
C957 H981 0.949 . S
H958 C962 0.949 . S
C959 C960 1.349 . S
C959 C961 1.327 . S
C959 H982 0.950 1_655 S
C960 C959 1.349 . S
C960 C972 1.349 . S
C961 C959 1.327 . S
C961 C977 1.429 . S
C961 H983 0.950 . S
C962 H958 0.949 . S
C962 C970 1.574 . S
C962 C978 1.368 . S
H963 C971 0.950 . S
H964 C969 0.950 . S
H965 C970 0.949 . S
H966 C972 0.950 . S
H967 C973 0.950 . S
H968 C974 0.949 . S
C969 H964 0.950 . S
C969 C971 1.327 . S
C969 C975 1.429 . S
C970 C962 1.574 . S
C970 H965 0.949 . S
C970 C976 1.368 . S
C971 C955 1.349 . S
C971 H963 0.950 . S
C971 C969 1.327 . S
C972 C960 1.349 . S
C972 H966 0.950 . S
C972 C973 1.327 . S
C973 H967 0.950 . S
C973 C972 1.327 . S
C973 C977 1.429 . S
C974 C957 1.574 . S
C974 H968 0.949 . S
C974 C978 1.368 . S
C975 C956 1.429 . S
C975 C969 1.429 . S
C975 C976 1.523 . S
C976 C957 1.368 . S
C976 C970 1.368 . S
C976 C975 1.523 . S
C977 C961 1.429 . S
C977 C973 1.429 . S
C977 C978 1.523 . S
C978 C962 1.368 . S
C978 C974 1.368 . S
C978 C977 1.523 . S
H979 C954 0.950 . S
H980 C956 0.950 . S
H981 C957 0.949 . S
H982 C959 0.950 1_455 S
H983 C961 0.950 . S
C984 C985 1.349 . S
C984 C986 1.327 . S
C984 H1009 0.950 . S
C985 C984 1.349 . S
C985 C1001 1.349 . S
C986 C984 1.327 . S
C986 C1005 1.429 . S
C986 H1010 0.950 . S
C987 C1004 1.574 . S
C987 C1006 1.368 . S
C987 H1011 0.949 . S
H988 C992 0.949 . S
C989 C990 1.349 . S
C989 C991 1.327 . S
C989 H1012 0.950 . S
C990 C989 1.349 . S
C990 C1002 1.349 . S
C991 C989 1.327 . S
C991 C1007 1.429 . S
C991 H1013 0.950 . S
C992 H988 0.949 . S
C992 C1000 1.574 . S
C992 C1008 1.368 . S
H993 C1001 0.950 . S
H994 C999 0.950 . S
H995 C1000 0.949 . S
H996 C1002 0.950 . S
H997 C1003 0.950 . S
H998 C1004 0.949 . S
C999 H994 0.950 . S
C999 C1001 1.327 . S
C999 C1005 1.429 . S
C1000 C992 1.574 . S
C1000 H995 0.949 . S
C1000 C1006 1.368 . S
C1001 C985 1.349 . S
C1001 H993 0.950 . S
C1001 C999 1.327 . S
C1002 C990 1.349 . S
C1002 H996 0.950 . S
C1002 C1003 1.327 . S
C1003 H997 0.950 . S
C1003 C1002 1.327 . S
C1003 C1007 1.429 . S
C1004 C987 1.574 . S
C1004 H998 0.949 . S
C1004 C1008 1.368 . S
C1005 C986 1.429 . S
C1005 C999 1.429 . S
C1005 C1006 1.523 . S
C1006 C987 1.368 . S
C1006 C1000 1.368 . S
C1006 C1005 1.523 . S
C1007 C991 1.429 . S
C1007 C1003 1.429 . S
C1007 C1008 1.523 . S
C1008 C992 1.368 . S
C1008 C1004 1.368 . S
C1008 C1007 1.523 . S
H1009 C984 0.950 . S
H1010 C986 0.950 . S
H1011 C987 0.949 . S
H1012 C989 0.950 . S
H1013 C991 0.950 . S
C1014 C1015 1.349 . S
C1014 C1016 1.327 . S
C1014 H1039 0.950 . S
C1015 C1014 1.349 . S
C1015 C1031 1.349 . S
C1016 C1014 1.327 . S
C1016 C1035 1.429 . S
C1016 H1040 0.950 . S
C1017 C1034 1.574 . S
C1017 C1036 1.368 . S
C1017 H1041 0.949 . S
H1018 C1022 0.949 . S
C1019 C1020 1.349 . S
C1019 C1021 1.327 . S
C1019 H1042 0.950 . S
C1020 C1019 1.349 . S
C1020 C1032 1.349 . S
C1021 C1019 1.327 . S
C1021 C1037 1.429 . S
C1021 H1043 0.950 . S
C1022 H1018 0.949 . S
C1022 C1030 1.574 . S
C1022 C1038 1.368 . S
H1023 C1031 0.950 . S
H1024 C1029 0.950 . S
H1025 C1030 0.949 . S
H1026 C1032 0.950 . S
H1027 C1033 0.950 . S
H1028 C1034 0.949 . S
C1029 H1024 0.950 . S
C1029 C1031 1.327 . S
C1029 C1035 1.429 . S
C1030 C1022 1.574 . S
C1030 H1025 0.949 . S
C1030 C1036 1.368 . S
C1031 C1015 1.349 . S
C1031 H1023 0.950 . S
C1031 C1029 1.327 . S
C1032 C1020 1.349 . S
C1032 H1026 0.950 . S
C1032 C1033 1.327 . S
C1033 H1027 0.950 . S
C1033 C1032 1.327 . S
C1033 C1037 1.429 . S
C1034 C1017 1.574 . S
C1034 H1028 0.949 . S
C1034 C1038 1.368 . S
C1035 C1016 1.429 . S
C1035 C1029 1.429 . S
C1035 C1036 1.523 . S
C1036 C1017 1.368 . S
C1036 C1030 1.368 . S
C1036 C1035 1.523 . S
C1037 C1021 1.429 . S
C1037 C1033 1.429 . S
C1037 C1038 1.523 . S
C1038 C1022 1.368 . S
C1038 C1034 1.368 . S
C1038 C1037 1.523 . S
H1039 C1014 0.950 . S
H1040 C1016 0.950 . S
H1041 C1017 0.949 . S
H1042 C1019 0.950 . S
H1043 C1021 0.950 . S
C1044 C1045 1.349 . S
C1044 C1046 1.327 . S
C1044 H1069 0.950 . S
C1045 C1044 1.349 . S
C1045 C1061 1.349 . S
C1046 C1044 1.327 . S
C1046 C1065 1.429 . S
C1046 H1070 0.950 . S
C1047 C1064 1.574 . S
C1047 C1066 1.368 . S
C1047 H1071 0.949 . S
H1048 C1052 0.949 . S
C1049 C1050 1.349 . S
C1049 C1051 1.327 . S
C1049 H1072 0.950 . S
C1050 C1049 1.349 . S
C1050 C1062 1.349 . S
C1051 C1049 1.327 . S
C1051 C1067 1.429 . S
C1051 H1073 0.950 . S
C1052 H1048 0.949 . S
C1052 C1060 1.574 . S
C1052 C1068 1.368 . S
H1053 C1061 0.950 . S
H1054 C1059 0.950 . S
H1055 C1060 0.949 . S
H1056 C1062 0.950 . S
H1057 C1063 0.950 . S
H1058 C1064 0.949 . S
C1059 H1054 0.950 . S
C1059 C1061 1.327 . S
C1059 C1065 1.429 . S
C1060 C1052 1.574 . S
C1060 H1055 0.949 . S
C1060 C1066 1.368 . S
C1061 C1045 1.349 . S
C1061 H1053 0.950 . S
C1061 C1059 1.327 . S
C1062 C1050 1.349 . S
C1062 H1056 0.950 . S
C1062 C1063 1.327 . S
C1063 H1057 0.950 . S
C1063 C1062 1.327 . S
C1063 C1067 1.429 . S
C1064 C1047 1.574 . S
C1064 H1058 0.949 . S
C1064 C1068 1.368 . S
C1065 C1046 1.429 . S
C1065 C1059 1.429 . S
C1065 C1066 1.523 . S
C1066 C1047 1.368 . S
C1066 C1060 1.368 . S
C1066 C1065 1.523 . S
C1067 C1051 1.429 . S
C1067 C1063 1.429 . S
C1067 C1068 1.523 . S
C1068 C1052 1.368 . S
C1068 C1064 1.368 . S
C1068 C1067 1.523 . S
H1069 C1044 0.950 . S
H1070 C1046 0.950 . S
H1071 C1047 0.949 . S
H1072 C1049 0.950 . S
H1073 C1051 0.950 . S
C1074 C1075 1.349 . S
C1074 C1076 1.327 . S
C1074 H1099 0.950 . S
C1075 C1074 1.349 . S
C1075 C1091 1.349 . S
C1076 C1074 1.327 . S
C1076 C1095 1.429 . S
C1076 H1100 0.950 . S
C1077 C1094 1.574 . S
C1077 C1096 1.368 . S
C1077 H1101 0.949 . S
H1078 C1082 0.949 . S
C1079 C1080 1.349 . S
C1079 C1081 1.327 . S
C1079 H1102 0.950 . S
C1080 C1079 1.349 . S
C1080 C1092 1.349 . S
C1081 C1079 1.327 . S
C1081 C1097 1.429 . S
C1081 H1103 0.950 . S
C1082 H1078 0.949 . S
C1082 C1090 1.574 . S
C1082 C1098 1.368 . S
H1083 C1091 0.950 . S
H1084 C1089 0.950 . S
H1085 C1090 0.949 . S
H1086 C1092 0.950 . S
H1087 C1093 0.950 . S
H1088 C1094 0.949 . S
C1089 H1084 0.950 . S
C1089 C1091 1.327 . S
C1089 C1095 1.429 . S
C1090 C1082 1.574 . S
C1090 H1085 0.949 . S
C1090 C1096 1.368 . S
C1091 C1075 1.349 . S
C1091 H1083 0.950 . S
C1091 C1089 1.327 . S
C1092 C1080 1.349 . S
C1092 H1086 0.950 . S
C1092 C1093 1.327 . S
C1093 H1087 0.950 . S
C1093 C1092 1.327 . S
C1093 C1097 1.429 . S
C1094 C1077 1.574 . S
C1094 H1088 0.949 . S
C1094 C1098 1.368 . S
C1095 C1076 1.429 . S
C1095 C1089 1.429 . S
C1095 C1096 1.523 . S
C1096 C1077 1.368 . S
C1096 C1090 1.368 . S
C1096 C1095 1.523 . S
C1097 C1081 1.429 . S
C1097 C1093 1.429 . S
C1097 C1098 1.523 . S
C1098 C1082 1.368 . S
C1098 C1094 1.368 . S
C1098 C1097 1.523 . S
H1099 C1074 0.950 . S
H1100 C1076 0.950 . S
H1101 C1077 0.949 . S
H1102 C1079 0.950 . S
H1103 C1081 0.950 . S
C1104 C1105 1.349 . S
C1104 C1106 1.327 . S
C1104 H1129 0.950 . S
C1105 C1104 1.349 . S
C1105 C1121 1.349 . S
C1106 C1104 1.327 . S
C1106 C1125 1.429 . S
C1106 H1130 0.950 . S
C1107 C1124 1.574 . S
C1107 C1126 1.368 . S
C1107 H1131 0.949 . S
H1108 C1112 0.949 . S
C1109 C1110 1.349 . S
C1109 C1111 1.327 . S
C1109 H1132 0.950 . S
C1110 C1109 1.349 . S
C1110 C1122 1.349 . S
C1111 C1109 1.327 . S
C1111 C1127 1.429 . S
C1111 H1133 0.950 . S
C1112 H1108 0.949 . S
C1112 C1120 1.574 . S
C1112 C1128 1.368 . S
H1113 C1121 0.950 . S
H1114 C1119 0.950 . S
H1115 C1120 0.949 . S
H1116 C1122 0.950 . S
H1117 C1123 0.950 . S
H1118 C1124 0.949 . S
C1119 H1114 0.950 . S
C1119 C1121 1.327 . S
C1119 C1125 1.429 . S
C1120 C1112 1.574 . S
C1120 H1115 0.949 . S
C1120 C1126 1.368 . S
C1121 C1105 1.349 . S
C1121 H1113 0.950 . S
C1121 C1119 1.327 . S
C1122 C1110 1.349 . S
C1122 H1116 0.950 . S
C1122 C1123 1.327 . S
C1123 H1117 0.950 . S
C1123 C1122 1.327 . S
C1123 C1127 1.429 . S
C1124 C1107 1.574 . S
C1124 H1118 0.949 . S
C1124 C1128 1.368 . S
C1125 C1106 1.429 . S
C1125 C1119 1.429 . S
C1125 C1126 1.523 . S
C1126 C1107 1.368 . S
C1126 C1120 1.368 . S
C1126 C1125 1.523 . S
C1127 C1111 1.429 . S
C1127 C1123 1.429 . S
C1127 C1128 1.523 . S
C1128 C1112 1.368 . S
C1128 C1124 1.368 . S
C1128 C1127 1.523 . S
H1129 C1104 0.950 . S
H1130 C1106 0.950 . S
H1131 C1107 0.949 . S
H1132 C1109 0.950 . S
H1133 C1111 0.950 . S
C1134 C1135 1.349 . S
C1134 C1136 1.327 . S
C1134 H1159 0.950 . S
C1135 C1134 1.349 . S
C1135 C1151 1.349 . S
C1136 C1134 1.327 . S
C1136 C1155 1.429 . S
C1136 H1160 0.950 . S
C1137 C1154 1.574 . S
C1137 C1156 1.368 . S
C1137 H1161 0.949 . S
H1138 C1142 0.949 . S
C1139 C1140 1.349 . S
C1139 C1141 1.327 . S
C1139 H1162 0.950 . S
C1140 C1139 1.349 . S
C1140 C1152 1.349 . S
C1141 C1139 1.327 . S
C1141 C1157 1.429 . S
C1141 H1163 0.950 . S
C1142 H1138 0.949 . S
C1142 C1150 1.574 . S
C1142 C1158 1.368 . S
H1143 C1151 0.950 . S
H1144 C1149 0.950 . S
H1145 C1150 0.949 . S
H1146 C1152 0.950 . S
H1147 C1153 0.950 . S
H1148 C1154 0.949 . S
C1149 H1144 0.950 . S
C1149 C1151 1.327 . S
C1149 C1155 1.429 . S
C1150 C1142 1.574 . S
C1150 H1145 0.949 . S
C1150 C1156 1.368 . S
C1151 C1135 1.349 . S
C1151 H1143 0.950 . S
C1151 C1149 1.327 . S
C1152 C1140 1.349 . S
C1152 H1146 0.950 . S
C1152 C1153 1.327 . S
C1153 H1147 0.950 . S
C1153 C1152 1.327 . S
C1153 C1157 1.429 . S
C1154 C1137 1.574 . S
C1154 H1148 0.949 . S
C1154 C1158 1.368 . S
C1155 C1136 1.429 . S
C1155 C1149 1.429 . S
C1155 C1156 1.523 . S
C1156 C1137 1.368 . S
C1156 C1150 1.368 . S
C1156 C1155 1.523 . S
C1157 C1141 1.429 . S
C1157 C1153 1.429 . S
C1157 C1158 1.523 . S
C1158 C1142 1.368 . S
C1158 C1154 1.368 . S
C1158 C1157 1.523 . S
H1159 C1134 0.950 . S
H1160 C1136 0.950 . S
H1161 C1137 0.949 . S
H1162 C1139 0.950 . S
H1163 C1141 0.950 . S
C1164 C1165 1.349 . S
C1164 C1166 1.327 . S
C1164 H1189 0.950 . S
C1165 C1164 1.349 . S
C1165 C1181 1.349 . S
C1166 C1164 1.327 . S
C1166 C1185 1.429 . S
C1166 H1190 0.950 . S
C1167 C1184 1.574 1_545 S
C1167 C1186 1.368 . S
C1167 H1191 0.949 . S
H1168 C1172 0.949 . S
C1169 C1170 1.349 . S
C1169 C1171 1.327 . S
C1169 H1192 0.950 . S
C1170 C1169 1.349 . S
C1170 C1182 1.349 . S
C1171 C1169 1.327 . S
C1171 C1187 1.429 . S
C1171 H1193 0.950 . S
C1172 H1168 0.949 . S
C1172 C1180 1.574 . S
C1172 C1188 1.368 1_545 S
H1173 C1181 0.950 . S
H1174 C1179 0.950 . S
H1175 C1180 0.949 . S
H1176 C1182 0.950 . S
H1177 C1183 0.950 . S
H1178 C1184 0.949 . S
C1179 H1174 0.950 . S
C1179 C1181 1.327 . S
C1179 C1185 1.429 . S
C1180 C1172 1.574 . S
C1180 H1175 0.949 . S
C1180 C1186 1.368 . S
C1181 C1165 1.349 . S
C1181 H1173 0.950 . S
C1181 C1179 1.327 . S
C1182 C1170 1.349 . S
C1182 H1176 0.950 . S
C1182 C1183 1.327 . S
C1183 H1177 0.950 . S
C1183 C1182 1.327 . S
C1183 C1187 1.429 . S
C1184 C1167 1.574 1_565 S
C1184 H1178 0.949 . S
C1184 C1188 1.368 . S
C1185 C1166 1.429 . S
C1185 C1179 1.429 . S
C1185 C1186 1.523 . S
C1186 C1167 1.368 . S
C1186 C1180 1.368 . S
C1186 C1185 1.523 . S
C1187 C1171 1.429 . S
C1187 C1183 1.429 . S
C1187 C1188 1.523 . S
C1188 C1172 1.368 1_565 S
C1188 C1184 1.368 . S
C1188 C1187 1.523 . S
H1189 C1164 0.950 . S
H1190 C1166 0.950 . S
H1191 C1167 0.949 . S
H1192 C1169 0.950 . S
H1193 C1171 0.950 . S
C1194 C1195 1.349 . S
C1194 C1196 1.327 . S
C1194 H1219 0.950 . S
C1195 C1194 1.349 . S
C1195 C1211 1.349 . S
C1196 C1194 1.327 . S
C1196 C1215 1.429 . S
C1196 H1220 0.950 . S
C1197 C1214 1.574 1_455 S
C1197 C1216 1.368 . S
C1197 H1221 0.949 . S
H1198 C1202 0.972 . S
C1199 C1200 1.349 . S
C1199 C1201 1.327 . S
C1199 H1222 0.950 . S
C1200 C1199 1.349 . S
C1200 C1212 1.349 . S
C1201 C1199 1.327 . S
C1201 C1217 1.429 . S
C1201 H1223 0.950 . S
C1202 H1198 0.972 . S
C1202 C1210 1.531 1_655 S
C1202 C1218 1.388 . S
H1203 C1211 0.950 . S
H1204 C1209 0.950 . S
H1205 C1210 0.949 . S
H1206 C1212 0.950 . S
H1207 C1213 0.950 . S
H1208 C1214 0.949 . S
C1209 H1204 0.950 . S
C1209 C1211 1.327 . S
C1209 C1215 1.429 . S
C1210 C1202 1.531 1_455 S
C1210 H1205 0.949 . S
C1210 C1216 1.368 . S
C1211 C1195 1.349 . S
C1211 H1203 0.950 . S
C1211 C1209 1.327 . S
C1212 C1200 1.349 . S
C1212 H1206 0.950 . S
C1212 C1213 1.327 . S
C1213 H1207 0.950 . S
C1213 C1212 1.327 . S
C1213 C1217 1.429 . S
C1214 C1197 1.574 1_655 S
C1214 H1208 0.949 . S
C1214 C1218 1.368 . S
C1215 C1196 1.429 . S
C1215 C1209 1.429 . S
C1215 C1216 1.523 . S
C1216 C1197 1.368 . S
C1216 C1210 1.368 . S
C1216 C1215 1.523 . S
C1217 C1201 1.429 . S
C1217 C1213 1.429 . S
C1217 C1218 1.523 . S
C1218 C1202 1.388 . S
C1218 C1214 1.368 . S
C1218 C1217 1.523 . S
H1219 C1194 0.950 . S
H1220 C1196 0.950 . S
H1221 C1197 0.949 . S
H1222 C1199 0.950 . S
H1223 C1201 0.950 . S
C1224 C1225 1.349 . S
C1224 C1226 1.327 . S
C1224 H1249 0.950 . S
C1225 C1224 1.349 . S
C1225 C1241 1.349 . S
C1226 C1224 1.327 . S
C1226 C1245 1.429 . S
C1226 H1250 0.950 . S
C1227 C1244 1.574 . S
C1227 C1246 1.368 . S
C1227 H1251 0.949 . S
H1228 C1232 0.949 . S
C1229 C1230 1.349 . S
C1229 C1231 1.327 . S
C1229 H1252 0.950 . S
C1230 C1229 1.349 . S
C1230 C1242 1.349 . S
C1231 C1229 1.327 . S
C1231 C1247 1.429 . S
C1231 H1253 0.950 . S
C1232 H1228 0.949 . S
C1232 C1240 1.574 . S
C1232 C1248 1.368 . S
H1233 C1241 0.950 . S
H1234 C1239 0.950 . S
H1235 C1240 0.949 . S
H1236 C1242 0.950 . S
H1237 C1243 0.950 . S
H1238 C1244 0.949 . S
C1239 H1234 0.950 . S
C1239 C1241 1.327 . S
C1239 C1245 1.429 . S
C1240 C1232 1.574 . S
C1240 H1235 0.949 . S
C1240 C1246 1.368 . S
C1241 C1225 1.349 . S
C1241 H1233 0.950 . S
C1241 C1239 1.327 . S
C1242 C1230 1.349 . S
C1242 H1236 0.950 . S
C1242 C1243 1.327 . S
C1243 H1237 0.950 . S
C1243 C1242 1.327 . S
C1243 C1247 1.429 . S
C1244 C1227 1.574 . S
C1244 H1238 0.949 . S
C1244 C1248 1.368 . S
C1245 C1226 1.429 . S
C1245 C1239 1.429 . S
C1245 C1246 1.523 . S
C1246 C1227 1.368 . S
C1246 C1240 1.368 . S
C1246 C1245 1.523 . S
C1247 C1231 1.429 . S
C1247 C1243 1.429 . S
C1247 C1248 1.523 . S
C1248 C1232 1.368 . S
C1248 C1244 1.368 . S
C1248 C1247 1.523 . S
H1249 C1224 0.950 . S
H1250 C1226 0.950 . S
H1251 C1227 0.949 . S
H1252 C1229 0.950 . S
H1253 C1231 0.950 . S
C1254 C1255 1.349 . S
C1254 C1256 1.327 . S
C1254 H1279 0.950 . S
C1255 C1254 1.349 . S
C1255 C1271 1.349 . S
C1256 C1254 1.327 . S
C1256 C1275 1.429 . S
C1256 H1280 0.950 . S
C1257 C1274 1.574 1_545 S
C1257 C1276 1.368 . S
C1257 H1281 0.949 . S
H1258 C1262 0.949 . S
C1259 C1260 1.349 . S
C1259 C1261 1.327 . S
C1259 H1282 0.950 . S
C1260 C1259 1.349 . S
C1260 C1272 1.349 . S
C1261 C1259 1.327 . S
C1261 C1277 1.429 . S
C1261 H1283 0.950 . S
C1262 H1258 0.949 . S
C1262 C1270 1.574 . S
C1262 C1278 1.368 1_545 S
H1263 C1271 0.950 . S
H1264 C1269 0.950 . S
H1265 C1270 0.949 . S
H1266 C1272 0.950 . S
H1267 C1273 0.950 . S
H1268 C1274 0.949 . S
C1269 H1264 0.950 . S
C1269 C1271 1.327 . S
C1269 C1275 1.429 . S
C1270 C1262 1.574 . S
C1270 H1265 0.949 . S
C1270 C1276 1.368 . S
C1271 C1255 1.349 . S
C1271 H1263 0.950 . S
C1271 C1269 1.327 . S
C1272 C1260 1.349 . S
C1272 H1266 0.950 . S
C1272 C1273 1.327 . S
C1273 H1267 0.950 . S
C1273 C1272 1.327 . S
C1273 C1277 1.429 . S
C1274 C1257 1.574 1_565 S
C1274 H1268 0.949 . S
C1274 C1278 1.368 . S
C1275 C1256 1.429 . S
C1275 C1269 1.429 . S
C1275 C1276 1.523 . S
C1276 C1257 1.368 . S
C1276 C1270 1.368 . S
C1276 C1275 1.523 . S
C1277 C1261 1.429 . S
C1277 C1273 1.429 . S
C1277 C1278 1.523 . S
C1278 C1262 1.368 1_565 S
C1278 C1274 1.368 . S
C1278 C1277 1.523 . S
H1279 C1254 0.950 . S
H1280 C1256 0.950 . S
H1281 C1257 0.949 . S
H1282 C1259 0.950 . S
H1283 C1261 0.950 . S
C1284 C1285 1.349 . S
C1284 C1286 1.327 . S
C1284 H1309 0.950 . S
C1285 C1284 1.349 . S
C1285 C1301 1.349 . S
C1286 C1284 1.327 . S
C1286 C1305 1.429 . S
C1286 H1310 0.950 . S
C1287 C1304 1.574 1_455 S
C1287 C1306 1.368 . S
C1287 H1311 0.949 . S
H1288 C1292 0.949 1_655 S
C1289 C1290 1.349 . S
C1289 C1291 1.327 . S
C1289 H1312 0.950 . S
C1290 C1289 1.349 . S
C1290 C1302 1.349 . S
C1291 C1289 1.327 . S
C1291 C1307 1.429 . S
C1291 H1313 0.950 . S
C1292 H1288 0.949 1_455 S
C1292 C1300 1.576 . S
C1292 C1308 1.367 1_455 S
H1293 C1301 0.950 . S
H1294 C1299 0.950 . S
H1295 C1300 0.949 . S
H1296 C1302 0.950 . S
H1297 C1303 0.950 . S
H1298 C1304 0.949 . S
C1299 H1294 0.950 . S
C1299 C1301 1.327 . S
C1299 C1305 1.429 . S
C1300 C1292 1.576 . S
C1300 H1295 0.949 . S
C1300 C1306 1.368 . S
C1301 C1285 1.349 . S
C1301 H1293 0.950 . S
C1301 C1299 1.327 . S
C1302 C1290 1.349 . S
C1302 H1296 0.950 . S
C1302 C1303 1.327 . S
C1303 H1297 0.950 . S
C1303 C1302 1.327 . S
C1303 C1307 1.429 . S
C1304 C1287 1.574 1_655 S
C1304 H1298 0.949 . S
C1304 C1308 1.368 . S
C1305 C1286 1.429 . S
C1305 C1299 1.429 . S
C1305 C1306 1.523 . S
C1306 C1287 1.368 . S
C1306 C1300 1.368 . S
C1306 C1305 1.523 . S
C1307 C1291 1.429 . S
C1307 C1303 1.429 . S
C1307 C1308 1.523 . S
C1308 C1292 1.367 1_655 S
C1308 C1304 1.368 . S
C1308 C1307 1.523 . S
H1309 C1284 0.950 . S
H1310 C1286 0.950 . S
H1311 C1287 0.949 . S
H1312 C1289 0.950 . S
H1313 C1291 0.950 . S
C235 C57 0.912 . S
C240 C10 0.914 . S
C265 C70 0.912 . S
C270 C23 0.914 . S
C295 C29 0.904 . S
C300 C44 0.897 . S
C325 C62 0.925 . S
C330 C5 0.921 . S
C355 C75 0.925 . S
C360 C18 0.922 . S
C385 C27 0.964 . S
C390 C49 0.962 . S
C415 C131 0.908 . S
C420 C83 0.903 . S
C445 C144 0.907 . S
C450 C94 0.904 . S
C475 C107 0.920 . S
C480 C127 0.921 . S
C505 C88 0.931 . S
C510 C133 0.926 . S
C535 C146 0.925 . S
C540 C92 0.927 . S
C565 C122 0.910 . S
C570 C105 0.911 . S
C595 C209 0.910 . S
C600 C161 0.906 . S
C625 C172 0.908 . S
C630 C222 0.911 . S
C655 C205 0.925 . S
C660 C185 0.924 . S
C685 C211 0.928 . S
C690 C166 0.933 . S
C715 C224 0.929 . S
C720 C170 0.931 . S
C745 C183 0.915 . S
C750 C200 0.915 . S
C775 C1 1.551 1_556 S
C780 C118 1.552 . S
C805 C140 1.552 . S
C810 C14 1.559 . S
C835 C153 1.547 . S
C840 C31 1.550 . S
C865 C42 1.540 . S
C870 C159 1.549 . S
C895 C174 1.544 . S
C900 C55 1.545 . S
C925 C187 1.545 . S
C930 C68 1.546 . S
C955 C198 1.545 . S
C960 C3 1.542 . S
C985 C213 1.546 . S
C990 C16 1.543 . S
C1015 C226 1.552 . S
C1020 C36 1.559 . S
C1045 C40 1.558 . S
C1050 C79 1.565 . S
C1075 C53 1.555 . S
C1080 C101 1.553 . S
C1105 C114 1.553 . S
C1110 C66 1.555 . S
C1135 C196 1.553 . S
C1140 C81 1.551 . S
C1165 C218 1.548 . S
C1170 C96 1.541 . S
C1195 C109 1.546 . S
C1200 C231 1.554 . S
C1225 C157 1.554 . S
C1230 C120 1.545 . S
C1255 C179 1.552 . S
C1260 C135 1.547 . S
C1285 C148 1.543 . S
C1290 C192 1.548 . S
