# Generated by pormake.
# Topology unv, (4)-cn, num edge types: 1
# Building blocks:
#     Node 0, Type 0, BuildingBlock: CEKHIL_clean_sbu_0, # of connection points: 4
#     Node 1, Type 0, BuildingBlock: CEKHIL_clean_sbu_0, # of connection points: 4
#     Node 2, Type 0, BuildingBlock: CEKHIL_clean_sbu_0, # of connection points: 4
#     Node 3, Type 0, BuildingBlock: CEKHIL_clean_sbu_0, # of connection points: 4
#     Node 4, Type 0, BuildingBlock: CEKHIL_clean_sbu_0, # of connection points: 4
#     Node 5, Type 0, BuildingBlock: CEKHIL_clean_sbu_0, # of connection points: 4
#     Node 6, Type 0, BuildingBlock: CEKHIL_clean_sbu_0, # of connection points: 4
#     Node 7, Type 0, BuildingBlock: CEKHIL_clean_sbu_0, # of connection points: 4
#     Node 8, Type 0, BuildingBlock: CEKHIL_clean_sbu_0, # of connection points: 4
#     Node 9, Type 0, BuildingBlock: CEKHIL_clean_sbu_0, # of connection points: 4
#     Node 10, Type 0, BuildingBlock: CEKHIL_clean_sbu_0, # of connection points: 4
#     Node 11, Type 0, BuildingBlock: CEKHIL_clean_sbu_0, # of connection points: 4
#     Node 12, Type 0, BuildingBlock: CEKHIL_clean_sbu_0, # of connection points: 4
#     Node 13, Type 0, BuildingBlock: CEKHIL_clean_sbu_0, # of connection points: 4
#     Node 14, Type 0, BuildingBlock: CEKHIL_clean_sbu_0, # of connection points: 4
#     Node 15, Type 0, BuildingBlock: CEKHIL_clean_sbu_0, # of connection points: 4
#     Node 16, Type 0, BuildingBlock: CEKHIL_clean_sbu_0, # of connection points: 4
#     Node 17, Type 0, BuildingBlock: CEKHIL_clean_sbu_0, # of connection points: 4
#     Node 18, Type 0, BuildingBlock: CEKHIL_clean_sbu_0, # of connection points: 4
#     Node 19, Type 0, BuildingBlock: CEKHIL_clean_sbu_0, # of connection points: 4
#     Node 20, Type 0, BuildingBlock: CEKHIL_clean_sbu_0, # of connection points: 4
#     Node 21, Type 0, BuildingBlock: CEKHIL_clean_sbu_0, # of connection points: 4
#     Node 22, Type 0, BuildingBlock: CEKHIL_clean_sbu_0, # of connection points: 4
#     Node 23, Type 0, BuildingBlock: CEKHIL_clean_sbu_0, # of connection points: 4
#     Edge 24, Type (0, 0), None
#     Edge 25, Type (0, 0), None
#     Edge 26, Type (0, 0), None
#     Edge 27, Type (0, 0), None
#     Edge 28, Type (0, 0), None
#     Edge 29, Type (0, 0), None
#     Edge 30, Type (0, 0), None
#     Edge 31, Type (0, 0), None
#     Edge 32, Type (0, 0), None
#     Edge 33, Type (0, 0), None
#     Edge 34, Type (0, 0), None
#     Edge 35, Type (0, 0), None
#     Edge 36, Type (0, 0), None
#     Edge 37, Type (0, 0), None
#     Edge 38, Type (0, 0), None
#     Edge 39, Type (0, 0), None
#     Edge 40, Type (0, 0), None
#     Edge 41, Type (0, 0), None
#     Edge 42, Type (0, 0), None
#     Edge 43, Type (0, 0), None
#     Edge 44, Type (0, 0), None
#     Edge 45, Type (0, 0), None
#     Edge 46, Type (0, 0), None
#     Edge 47, Type (0, 0), None
#     Edge 48, Type (0, 0), None
#     Edge 49, Type (0, 0), None
#     Edge 50, Type (0, 0), None
#     Edge 51, Type (0, 0), None
#     Edge 52, Type (0, 0), None
#     Edge 53, Type (0, 0), None
#     Edge 54, Type (0, 0), None
#     Edge 55, Type (0, 0), None
#     Edge 56, Type (0, 0), None
#     Edge 57, Type (0, 0), None
#     Edge 58, Type (0, 0), None
#     Edge 59, Type (0, 0), None
#     Edge 60, Type (0, 0), None
#     Edge 61, Type (0, 0), None
#     Edge 62, Type (0, 0), None
#     Edge 63, Type (0, 0), None
#     Edge 64, Type (0, 0), None
#     Edge 65, Type (0, 0), None
#     Edge 66, Type (0, 0), None
#     Edge 67, Type (0, 0), None
#     Edge 68, Type (0, 0), None
#     Edge 69, Type (0, 0), None
#     Edge 70, Type (0, 0), None
#     Edge 71, Type (0, 0), None
# Relax obj value: 0.311
# Max RMSD: 0.236
# Mean RMSD: 0.215
data_MOF--net-unv--node1-CEKHIL_clean_sbu_0--edge1-none
_symmetry_space_group_name_H-M    P1
_symmetry_Int_Tables_number       1
_symmetry_cell_setting            triclinic
loop_
_symmetry_equiv_pos_as_xyz
'x, y, z'
_cell_length_a     21.660091
_cell_length_b     21.660064
_cell_length_c     21.660372
_cell_angle_alpha  89.947133
_cell_angle_beta   89.947857
_cell_angle_gamma 89.947186
loop_
_atom_site_label
_atom_site_type_symbol
_atom_site_fract_x
_atom_site_fract_y
_atom_site_fract_z
_atom_type_partial_charge
Co0 Co 0.01381 0.10052 0.3631 0.0
O1 O 0.05728 0.17192 0.33045 0.0
O2 O 0.95901 0.17296 0.35447 0.0
C3 C 0.08447 0.07426 0.4363 0.0
O4 O 0.95562 0.03634 0.39924 0.0
Co5 Co 0.09448 0.9786 0.35097 0.0
O6 O 0.01327 0.95149 0.38416 0.0
C7 C 0.99536 0.00107 0.26473 0.0
C8 C 0.00775 0.2042 0.33768 0.0
C9 C 0.96324 0.97776 0.40079 0.0
O10 O 0.99493 0.06031 0.27848 0.0
O11 O 0.02981 0.96176 0.29114 0.0
O12 O 0.04392 0.11659 0.4492 0.0
O13 O 0.08765 0.06068 0.37936 0.0
Co14 Co 0.02534 0.36727 0.39125 0.0
O15 O 0.96603 0.30741 0.3578 0.0
O16 O 0.06689 0.29806 0.3518 0.0
C17 C 0.9754 0.37699 0.48273 0.0
O18 O 0.09981 0.41274 0.43046 0.0
Co19 Co 0.00151 0.49945 0.4286 0.0
O20 O 0.08192 0.4949 0.38102 0.0
C21 C 0.99426 0.47921 0.30141 0.0
C22 C 0.01299 0.27274 0.34421 0.0
C23 C 0.11339 0.46922 0.42125 0.0
O24 O 0.01676 0.42319 0.31133 0.0
O25 O 0.98097 0.51694 0.34394 0.0
O26 O 0.01062 0.32918 0.47379 0.0
O27 O 0.972 0.4142 0.43639 0.0
Co28 Co 0.97898 0.86827 0.11434 0.0
O29 O 0.02361 0.79943 0.15085 0.0
O30 O 0.92304 0.80109 0.13835 0.0
C31 C 0.04458 0.88296 0.03288 0.0
O32 O 0.91825 0.92953 0.07539 0.0
Co33 Co 0.06197 0.98664 0.11018 0.0
O34 O 0.98072 0.01098 0.07583 0.0
C35 C 0.97641 0.97812 0.20503 0.0
C36 C 0.97206 0.77004 0.15469 0.0
C37 C 0.92912 0.98622 0.06318 0.0
O38 O 0.97377 0.918 0.19603 0.0
O39 O 0.99462 0.01494 0.16385 0.0
O40 O 0.00081 0.84212 0.02758 0.0
O41 O 0.05218 0.90219 0.08783 0.0
Co42 Co 0.96629 0.59926 0.13792 0.0
O43 O 0.92078 0.67144 0.16639 0.0
O44 O 0.02133 0.66906 0.15132 0.0
C45 C 0.90221 0.57481 0.0591 0.0
O46 O 0.02808 0.53652 0.10507 0.0
Co47 Co 0.88986 0.47544 0.14195 0.0
O48 O 0.97425 0.44927 0.11765 0.0
C49 C 0.97503 0.50008 0.24064 0.0
C50 C 0.97198 0.7018 0.16242 0.0
C51 C 0.02376 0.47771 0.10355 0.0
O52 O 0.9782 0.55861 0.2242 0.0
O53 O 0.94335 0.45975 0.21257 0.0
O54 O 0.94349 0.6174 0.05035 0.0
O55 O 0.89486 0.55884 0.11529 0.0
Co56 Co 0.3631 0.01381 0.10052 0.0
O57 O 0.33045 0.05727 0.17192 0.0
O58 O 0.35448 0.95901 0.17295 0.0
C59 C 0.4363 0.08447 0.07426 0.0
O60 O 0.39925 0.95563 0.03633 0.0
Co61 Co 0.35097 0.09451 0.97861 0.0
O62 O 0.38416 0.0133 0.95149 0.0
C63 C 0.26474 0.99537 0.00106 0.0
C64 C 0.33769 0.00775 0.20419 0.0
C65 C 0.40079 0.96326 0.97775 0.0
O66 O 0.27849 0.99492 0.0603 0.0
O67 O 0.29111 0.02987 0.96177 0.0
O68 O 0.4492 0.04392 0.1166 0.0
O69 O 0.37937 0.08766 0.06068 0.0
Co70 Co 0.60108 0.52759 0.12375 0.0
O71 O 0.63752 0.47064 0.1845 0.0
O72 O 0.63997 0.57169 0.19181 0.0
C73 C 0.51123 0.47467 0.11537 0.0
O74 O 0.55896 0.60005 0.07704 0.0
Co75 Co 0.56263 0.50272 0.99294 0.0
O76 O 0.6096 0.58362 0.9954 0.0
C77 C 0.68997 0.49773 0.01121 0.0
C78 C 0.65036 0.51862 0.21797 0.0
C79 C 0.56879 0.61443 0.0208 0.0
O80 O 0.68056 0.5205 0.06714 0.0
O81 O 0.64715 0.48337 0.97432 0.0
O82 O 0.51921 0.51068 0.16273 0.0
O83 O 0.55742 0.47199 0.07802 0.0
Co84 Co 0.39127 0.02535 0.36726 0.0
O85 O 0.35782 0.96603 0.3074 0.0
O86 O 0.35181 0.06689 0.29805 0.0
C87 C 0.48275 0.97541 0.37699 0.0
O88 O 0.43047 0.09983 0.41272 0.0
Co89 Co 0.42861 0.00154 0.49943 0.0
O90 O 0.38102 0.08195 0.49487 0.0
C91 C 0.30143 0.99426 0.47918 0.0
C92 C 0.34422 0.01299 0.27272 0.0
C93 C 0.42125 0.11342 0.46919 0.0
O94 O 0.31135 0.01677 0.42317 0.0
O95 O 0.34396 0.98097 0.51692 0.0
O96 O 0.47381 0.01063 0.32917 0.0
O97 O 0.4364 0.97202 0.41419 0.0
Co98 Co 0.63536 0.51991 0.39051 0.0
O99 O 0.66394 0.56494 0.31814 0.0
O100 O 0.64708 0.4652 0.31859 0.0
C101 C 0.55714 0.58488 0.41653 0.0
O102 O 0.60332 0.45948 0.45506 0.0
Co103 Co 0.64188 0.59981 0.51298 0.0
O104 O 0.61514 0.51657 0.54065 0.0
C105 C 0.73814 0.51139 0.48874 0.0
C106 C 0.65935 0.5147 0.28645 0.0
C107 C 0.6013 0.46613 0.51376 0.0
O108 O 0.72189 0.50776 0.4302 0.0
O109 O 0.71066 0.54418 0.52864 0.0
O110 O 0.54736 0.54351 0.37428 0.0
O111 O 0.6137 0.59214 0.43057 0.0
Co112 Co 0.1005 0.3631 0.01382 0.0
O113 O 0.17191 0.33046 0.05729 0.0
O114 O 0.17294 0.35449 0.95902 0.0
C115 C 0.0742 0.43626 0.08443 0.0
O116 O 0.03631 0.39924 0.95564 0.0
Co117 Co 0.97856 0.35092 0.0945 0.0
O118 O 0.95145 0.38411 0.01328 0.0
C119 C 0.00107 0.26471 0.99534 0.0
C120 C 0.20419 0.3377 0.00776 0.0
C121 C 0.97772 0.40075 0.96325 0.0
O122 O 0.06031 0.27848 0.9949 0.0
O123 O 0.96177 0.29105 0.02986 0.0
O124 O 0.11657 0.44921 0.04393 0.0
O125 O 0.06063 0.37932 0.08766 0.0
Co126 Co 0.12376 0.60112 0.52759 0.0
O127 O 0.18452 0.63759 0.47067 0.0
O128 O 0.19181 0.64 0.57172 0.0
C129 C 0.11542 0.51134 0.47463 0.0
O130 O 0.07702 0.55897 0.60001 0.0
Co131 Co 0.99295 0.56266 0.50266 0.0
O132 O 0.99538 0.6096 0.58357 0.0
C133 C 0.01122 0.69002 0.49775 0.0
C134 C 0.21798 0.65041 0.51866 0.0
C135 C 0.02078 0.5688 0.61438 0.0
O136 O 0.06715 0.6806 0.52052 0.0
O137 O 0.97434 0.6472 0.48336 0.0
O138 O 0.16275 0.51926 0.51068 0.0
O139 O 0.07804 0.55751 0.47194 0.0
Co140 Co 0.89001 0.85243 0.4763 0.0
O141 O 0.81809 0.82458 0.43078 0.0
O142 O 0.8182 0.83801 0.53095 0.0
C143 C 0.91412 0.93348 0.4153 0.0
O144 O 0.95585 0.8829 0.53592 0.0
Co145 Co 0.01002 0.84863 0.39234 0.0
O146 O 0.0397 0.87402 0.47521 0.0
C147 C 0.98923 0.75054 0.4797 0.0
C148 C 0.78626 0.82714 0.48101 0.0
C149 C 0.01427 0.88622 0.52688 0.0
O150 O 0.93062 0.76605 0.48464 0.0
O151 O 0.02805 0.77869 0.44613 0.0
O152 O 0.87206 0.94106 0.45732 0.0
O153 O 0.92818 0.87741 0.40444 0.0
Co154 Co 0.39052 0.63541 0.51994 0.0
O155 O 0.31815 0.66398 0.56498 0.0
O156 O 0.31859 0.64715 0.46524 0.0
C157 C 0.41655 0.55717 0.58488 0.0
O158 O 0.45506 0.60338 0.4595 0.0
Co159 Co 0.51301 0.6419 0.59981 0.0
O160 O 0.54067 0.61517 0.51655 0.0
C161 C 0.48875 0.73818 0.51143 0.0
C162 C 0.28646 0.6594 0.51474 0.0
C163 C 0.51376 0.60133 0.46612 0.0
O164 O 0.43021 0.72194 0.50781 0.0
O165 O 0.52866 0.71069 0.54419 0.0
O166 O 0.37429 0.54741 0.54352 0.0
O167 O 0.43059 0.61373 0.59216 0.0
Co168 Co 0.46525 0.62468 0.88683 0.0
O169 O 0.52372 0.68385 0.85012 0.0
O170 O 0.42279 0.69279 0.84646 0.0
C171 C 0.51617 0.61639 0.97779 0.0
O172 O 0.39166 0.5804 0.92902 0.0
Co173 Co 0.48923 0.49339 0.9262 0.0
O174 O 0.40761 0.49746 0.88056 0.0
C175 C 0.49254 0.51022 0.79862 0.0
C176 C 0.47636 0.71795 0.83633 0.0
C177 C 0.37751 0.52391 0.92126 0.0
O178 O 0.47176 0.56697 0.80806 0.0
O179 O 0.50587 0.47286 0.84147 0.0
O180 O 0.48141 0.66446 0.96826 0.0
O181 O 0.51951 0.57855 0.93199 0.0
Co182 Co 0.47627 0.89003 0.85241 0.0
O183 O 0.43073 0.81812 0.82456 0.0
O184 O 0.53092 0.81823 0.83798 0.0
C185 C 0.41529 0.91415 0.93347 0.0
O186 O 0.53591 0.95585 0.88288 0.0
Co187 Co 0.39234 0.01006 0.84863 0.0
O188 O 0.47522 0.03972 0.874 0.0
C189 C 0.47963 0.98925 0.75049 0.0
C190 C 0.48096 0.7863 0.82714 0.0
C191 C 0.52688 0.01427 0.8862 0.0
O192 O 0.4846 0.93064 0.76604 0.0
O193 O 0.44611 0.02807 0.77868 0.0
O194 O 0.45731 0.87207 0.94104 0.0
O195 O 0.40442 0.92821 0.8774 0.0
Co196 Co 0.51995 0.39055 0.6354 0.0
O197 O 0.56497 0.31816 0.66396 0.0
O198 O 0.46524 0.31863 0.64715 0.0
C199 C 0.58483 0.41657 0.55717 0.0
O200 O 0.4595 0.45509 0.60338 0.0
Co201 Co 0.59984 0.51304 0.64187 0.0
O202 O 0.51658 0.54069 0.61512 0.0
C203 C 0.51142 0.4888 0.73813 0.0
C204 C 0.51472 0.28647 0.65943 0.0
C205 C 0.46614 0.51378 0.60131 0.0
O206 O 0.50784 0.43024 0.72193 0.0
O207 O 0.54422 0.52869 0.71065 0.0
O208 O 0.54349 0.37429 0.54739 0.0
O209 O 0.59216 0.43062 0.61372 0.0
Co210 Co 0.52757 0.1238 0.60111 0.0
O211 O 0.47064 0.18455 0.63757 0.0
O212 O 0.57171 0.19183 0.63999 0.0
C213 C 0.47463 0.11545 0.51132 0.0
O214 O 0.60001 0.07706 0.55897 0.0
Co215 Co 0.50269 0.99299 0.56264 0.0
O216 O 0.58359 0.99542 0.6096 0.0
C217 C 0.49773 0.01124 0.68999 0.0
C218 C 0.51864 0.21801 0.65037 0.0
C219 C 0.61439 0.02082 0.5688 0.0
O220 O 0.52048 0.06718 0.68059 0.0
O221 O 0.48336 0.97436 0.64716 0.0
O222 O 0.51067 0.16279 0.51925 0.0
O223 O 0.47193 0.07807 0.55749 0.0
Co224 Co 0.88683 0.46523 0.62464 0.0
O225 O 0.85011 0.5237 0.68381 0.0
O226 O 0.84647 0.42277 0.69275 0.0
C227 C 0.97778 0.51617 0.61634 0.0
O228 O 0.92904 0.39166 0.58036 0.0
Co229 Co 0.92617 0.48911 0.49338 0.0
O230 O 0.88053 0.40746 0.49731 0.0
C231 C 0.79861 0.49243 0.51016 0.0
C232 C 0.83633 0.47634 0.71791 0.0
C233 C 0.92121 0.37745 0.5239 0.0
O234 O 0.80806 0.47171 0.56693 0.0
O235 O 0.84146 0.50575 0.47279 0.0
O236 O 0.96825 0.48142 0.66441 0.0
O237 O 0.93199 0.51949 0.57849 0.0
Co238 Co 0.13795 0.96628 0.59925 0.0
O239 O 0.16643 0.92076 0.67141 0.0
O240 O 0.15138 0.0213 0.66905 0.0
C241 C 0.05914 0.90227 0.57479 0.0
O242 O 0.1051 0.0281 0.53654 0.0
Co243 Co 0.14196 0.88988 0.4754 0.0
O244 O 0.11765 0.97428 0.44927 0.0
C245 C 0.24065 0.97503 0.50006 0.0
C246 C 0.1625 0.97195 0.70178 0.0
C247 C 0.10357 0.02379 0.47773 0.0
O248 O 0.22423 0.97819 0.55859 0.0
O249 O 0.21259 0.94337 0.45972 0.0
O250 O 0.05038 0.94351 0.61741 0.0
O251 O 0.11533 0.89487 0.5588 0.0
Co252 Co 0.85239 0.47626 0.89001 0.0
O253 O 0.82455 0.43072 0.81809 0.0
O254 O 0.83797 0.53091 0.81819 0.0
C255 C 0.93344 0.41527 0.91414 0.0
O256 O 0.88284 0.5359 0.95583 0.0
Co257 Co 0.8486 0.39234 0.01005 0.0
O258 O 0.874 0.47521 0.0397 0.0
C259 C 0.75049 0.47967 0.98922 0.0
C260 C 0.82714 0.48095 0.78627 0.0
C261 C 0.88619 0.52687 0.01425 0.0
O262 O 0.76601 0.4846 0.9306 0.0
O263 O 0.77865 0.44612 0.02805 0.0
O264 O 0.94102 0.45729 0.87207 0.0
O265 O 0.87737 0.40441 0.9282 0.0
Co266 Co 0.11441 0.97887 0.86823 0.0
O267 O 0.15089 0.02355 0.79942 0.0
O268 O 0.13844 0.92296 0.80105 0.0
C269 C 0.03294 0.04446 0.88297 0.0
O270 O 0.07551 0.91809 0.92947 0.0
Co271 Co 0.11022 0.06181 0.98666 0.0
O272 O 0.07572 0.98059 0.01088 0.0
C273 C 0.20508 0.9763 0.97808 0.0
C274 C 0.15473 0.97201 0.77002 0.0
C275 C 0.06316 0.92898 0.98611 0.0
O276 O 0.19611 0.97368 0.91796 0.0
O277 O 0.16385 0.99439 0.0149 0.0
O278 O 0.02763 0.0007 0.84212 0.0
O279 O 0.08789 0.05204 0.9022 0.0
Co280 Co 0.62465 0.88687 0.46526 0.0
O281 O 0.68381 0.85016 0.52374 0.0
O282 O 0.69277 0.8465 0.4228 0.0
C283 C 0.61635 0.97783 0.51617 0.0
O284 O 0.58039 0.92906 0.39167 0.0
Co285 Co 0.49339 0.92621 0.4891 0.0
O286 O 0.49733 0.88055 0.40747 0.0
C287 C 0.51017 0.79865 0.49247 0.0
C288 C 0.71791 0.8364 0.47638 0.0
C289 C 0.52393 0.92123 0.37746 0.0
O290 O 0.56694 0.8081 0.47175 0.0
O291 O 0.4728 0.84151 0.50579 0.0
O292 O 0.66442 0.96829 0.48143 0.0
O293 O 0.5785 0.93203 0.5195 0.0
Co294 Co 0.59928 0.1379 0.9663 0.0
O295 O 0.67145 0.16638 0.92079 0.0
O296 O 0.66909 0.15129 0.02132 0.0
C297 C 0.5748 0.05913 0.90226 0.0
O298 O 0.53655 0.10506 0.02811 0.0
Co299 Co 0.47544 0.14196 0.8899 0.0
O300 O 0.44929 0.11767 0.9743 0.0
C301 C 0.50011 0.24065 0.97505 0.0
C302 C 0.70183 0.16242 0.97198 0.0
C303 C 0.47774 0.10356 0.0238 0.0
O304 O 0.55864 0.22419 0.97823 0.0
O305 O 0.45977 0.21257 0.94341 0.0
O306 O 0.61742 0.05034 0.9435 0.0
O307 O 0.55883 0.11532 0.89488 0.0
Co308 Co 0.36728 0.39125 0.02532 0.0
O309 O 0.30741 0.35778 0.96602 0.0
O310 O 0.29806 0.35182 0.06689 0.0
C311 C 0.37698 0.48266 0.97537 0.0
O312 O 0.41274 0.43049 0.09977 0.0
Co313 Co 0.49942 0.42858 0.00161 0.0
O314 O 0.49501 0.38099 0.08204 0.0
C315 C 0.47924 0.30141 0.99434 0.0
C316 C 0.27273 0.34422 0.013 0.0
C317 C 0.46919 0.4212 0.11342 0.0
O318 O 0.4232 0.31133 0.01678 0.0
O319 O 0.51697 0.34395 0.98107 0.0
O320 O 0.32917 0.47378 0.01061 0.0
O321 O 0.41422 0.43634 0.97195 0.0
Co322 Co 0.86831 0.11437 0.97888 0.0
O323 O 0.79949 0.15085 0.02357 0.0
O324 O 0.80109 0.13832 0.92299 0.0
C325 C 0.88316 0.03299 0.04447 0.0
O326 O 0.92953 0.07545 0.91809 0.0
Co327 Co 0.98683 0.11028 0.06177 0.0
O328 O 0.01095 0.07567 0.98058 0.0
C329 C 0.97812 0.20506 0.9762 0.0
C330 C 0.77007 0.15464 0.97204 0.0
C331 C 0.98617 0.06308 0.92898 0.0
O332 O 0.918 0.19607 0.97361 0.0
O333 O 0.01495 0.16383 0.99423 0.0
O334 O 0.84223 0.02758 0.00079 0.0
O335 O 0.90237 0.08794 0.05204 0.0
loop_
_geom_bond_atom_site_label_1
_geom_bond_atom_site_label_2
_geom_bond_distance
_geom_bond_site_symmetry_2
_ccdc_geom_bond_type
Co0 O1 2.216 1_655 S
Co0 O2 2.091 . S
Co0 O4 2.004 . S
Co0 O10 2.021 . S
Co0 O12 2.137 1_655 S
Co0 O13 2.244 1_655 S
O1 Co0 2.216 1_455 S
O1 C8 1.247 1_455 S
O2 Co0 2.091 . S
O2 C8 1.261 . S
C3 O12 1.247 . S
C3 O13 1.272 . S
O4 Co0 2.004 . S
O4 C9 1.259 1_545 S
Co5 O6 2.061 1_455 S
Co5 O11 2.052 . S
Co5 O13 2.135 1_565 S
O6 Co5 2.061 1_655 S
O6 C9 1.235 . S
C7 O10 1.238 1_455 S
C7 O11 1.241 1_545 S
C8 O1 1.247 1_655 S
C8 O2 1.261 . S
C9 O4 1.259 1_565 S
C9 O6 1.235 . S
O10 Co0 2.021 . S
O10 C7 1.238 1_655 S
O11 Co5 2.052 . S
O11 C7 1.241 1_565 S
O12 Co0 2.137 1_455 S
O12 C3 1.247 . S
O13 Co0 2.244 1_455 S
O13 C3 1.272 . S
O13 Co5 2.135 1_545 S
Co14 O15 2.216 1_455 S
Co14 O16 2.091 . S
Co14 O18 2.004 . S
Co14 O24 2.021 . S
Co14 O26 2.137 1_455 S
Co14 O27 2.244 1_455 S
O15 Co14 2.216 1_655 S
O15 C22 1.247 1_655 S
O16 Co14 2.091 . S
O16 C22 1.261 . S
C17 O26 1.247 . S
C17 O27 1.272 . S
O18 Co14 2.004 . S
O18 C23 1.259 . S
Co19 O20 2.061 1_655 S
Co19 O25 2.052 . S
Co19 O27 2.135 . S
O20 Co19 2.061 1_455 S
O20 C23 1.235 . S
C21 O24 1.238 1_655 S
C21 O25 1.241 . S
C22 O15 1.247 1_455 S
C22 O16 1.261 . S
C23 O18 1.259 . S
C23 O20 1.235 . S
O24 Co14 2.021 . S
O24 C21 1.238 1_455 S
O25 Co19 2.052 . S
O25 C21 1.241 . S
O26 Co14 2.137 1_655 S
O26 C17 1.247 . S
O27 Co14 2.244 1_655 S
O27 C17 1.272 . S
O27 Co19 2.135 . S
Co28 O29 2.216 1_655 S
Co28 O30 2.091 . S
Co28 O32 2.004 . S
Co28 O38 2.021 . S
Co28 O40 2.137 1_655 S
Co28 O41 2.244 1_655 S
O29 Co28 2.216 1_455 S
O29 C36 1.247 1_455 S
O30 Co28 2.091 . S
O30 C36 1.261 . S
C31 O40 1.247 . S
C31 O41 1.272 . S
O32 Co28 2.004 . S
O32 C37 1.259 1_565 S
Co33 O34 2.061 1_455 S
Co33 O39 2.052 . S
Co33 O41 2.135 1_545 S
O34 Co33 2.061 1_655 S
O34 C37 1.235 . S
C35 O38 1.238 1_455 S
C35 O39 1.241 1_565 S
C36 O29 1.247 1_655 S
C36 O30 1.261 . S
C37 O32 1.259 1_545 S
C37 O34 1.235 . S
O38 Co28 2.021 . S
O38 C35 1.238 1_655 S
O39 Co33 2.052 . S
O39 C35 1.241 1_545 S
O40 Co28 2.137 1_455 S
O40 C31 1.247 . S
O41 Co28 2.244 1_455 S
O41 C31 1.272 . S
O41 Co33 2.135 1_565 S
Co42 O43 2.216 1_455 S
Co42 O44 2.091 . S
Co42 O46 2.004 . S
Co42 O52 2.021 . S
Co42 O54 2.137 1_455 S
Co42 O55 2.244 1_455 S
O43 Co42 2.216 1_655 S
O43 C50 1.247 1_655 S
O44 Co42 2.091 . S
O44 C50 1.261 . S
C45 O54 1.247 . S
C45 O55 1.272 . S
O46 Co42 2.004 . S
O46 C51 1.259 . S
Co47 O48 2.061 1_655 S
Co47 O53 2.052 . S
Co47 O55 2.135 . S
O48 Co47 2.061 1_455 S
O48 C51 1.235 . S
C49 O52 1.238 1_655 S
C49 O53 1.241 . S
C50 O43 1.247 1_455 S
C50 O44 1.261 . S
C51 O46 1.259 . S
C51 O48 1.235 . S
O52 Co42 2.021 . S
O52 C49 1.238 1_455 S
O53 Co47 2.052 . S
O53 C49 1.241 . S
O54 Co42 2.137 1_655 S
O54 C45 1.247 . S
O55 Co42 2.244 1_655 S
O55 C45 1.272 . S
O55 Co47 2.135 . S
Co56 O57 2.216 1_565 S
Co56 O58 2.091 . S
Co56 O60 2.004 . S
Co56 O66 2.021 . S
Co56 O68 2.137 1_565 S
Co56 O69 2.244 1_565 S
O57 Co56 2.216 1_545 S
O57 C64 1.247 1_545 S
O58 Co56 2.091 . S
O58 C64 1.261 . S
C59 O68 1.247 . S
C59 O69 1.272 . S
O60 Co56 2.004 . S
O60 C65 1.259 1_554 S
Co61 O62 2.061 1_545 S
Co61 O67 2.052 . S
Co61 O69 2.135 1_556 S
O62 Co61 2.061 1_565 S
O62 C65 1.235 . S
C63 O66 1.238 1_545 S
C63 O67 1.241 1_554 S
C64 O57 1.247 1_565 S
C64 O58 1.261 . S
C65 O60 1.259 1_556 S
C65 O62 1.235 . S
O66 Co56 2.021 . S
O66 C63 1.238 1_565 S
O67 Co61 2.052 . S
O67 C63 1.241 1_556 S
O68 Co56 2.137 1_545 S
O68 C59 1.247 . S
O69 Co56 2.244 1_545 S
O69 C59 1.272 . S
O69 Co61 2.135 1_554 S
Co70 O71 2.216 . S
Co70 O72 2.091 . S
Co70 O74 2.004 . S
Co70 O80 2.021 . S
Co70 O82 2.137 . S
Co70 O83 2.244 . S
O71 Co70 2.216 . S
O71 C78 1.247 . S
O72 Co70 2.091 . S
O72 C78 1.261 . S
C73 O82 1.247 . S
C73 O83 1.272 . S
O74 Co70 2.004 . S
O74 C79 1.259 1_554 S
Co75 O76 2.061 . S
Co75 O81 2.052 . S
Co75 O83 2.135 1_556 S
O76 Co75 2.061 . S
O76 C79 1.235 . S
C77 O80 1.238 . S
C77 O81 1.241 1_554 S
C78 O71 1.247 . S
C78 O72 1.261 . S
C79 O74 1.259 1_556 S
C79 O76 1.235 . S
O80 Co70 2.021 . S
O80 C77 1.238 . S
O81 Co75 2.052 . S
O81 C77 1.241 1_556 S
O82 Co70 2.137 . S
O82 C73 1.247 . S
O83 Co70 2.244 . S
O83 C73 1.272 . S
O83 Co75 2.135 1_554 S
Co84 O85 2.216 1_545 S
Co84 O86 2.091 . S
Co84 O88 2.004 . S
Co84 O94 2.021 . S
Co84 O96 2.137 1_545 S
Co84 O97 2.244 1_545 S
O85 Co84 2.216 1_565 S
O85 C92 1.247 1_565 S
O86 Co84 2.091 . S
O86 C92 1.261 . S
C87 O96 1.247 . S
C87 O97 1.272 . S
O88 Co84 2.004 . S
O88 C93 1.259 . S
Co89 O90 2.061 1_565 S
Co89 O95 2.052 . S
Co89 O97 2.135 . S
O90 Co89 2.061 1_545 S
O90 C93 1.235 . S
C91 O94 1.238 1_565 S
C91 O95 1.241 . S
C92 O85 1.247 1_545 S
C92 O86 1.261 . S
C93 O88 1.259 . S
C93 O90 1.235 . S
O94 Co84 2.021 . S
O94 C91 1.238 1_545 S
O95 Co89 2.052 . S
O95 C91 1.241 . S
O96 Co84 2.137 1_565 S
O96 C87 1.247 . S
O97 Co84 2.244 1_565 S
O97 C87 1.272 . S
O97 Co89 2.135 . S
Co98 O99 2.216 . S
Co98 O100 2.091 . S
Co98 O102 2.004 . S
Co98 O108 2.021 . S
Co98 O110 2.137 . S
Co98 O111 2.244 . S
O99 Co98 2.216 . S
O99 C106 1.247 . S
O100 Co98 2.091 . S
O100 C106 1.261 . S
C101 O110 1.247 . S
C101 O111 1.272 . S
O102 Co98 2.004 . S
O102 C107 1.259 . S
Co103 O104 2.061 . S
Co103 O109 2.052 . S
Co103 O111 2.135 . S
O104 Co103 2.061 . S
O104 C107 1.235 . S
C105 O108 1.238 . S
C105 O109 1.241 . S
C106 O99 1.247 . S
C106 O100 1.261 . S
C107 O102 1.259 . S
C107 O104 1.235 . S
O108 Co98 2.021 . S
O108 C105 1.238 . S
O109 Co103 2.052 . S
O109 C105 1.241 . S
O110 Co98 2.137 . S
O110 C101 1.247 . S
O111 Co98 2.244 . S
O111 C101 1.272 . S
O111 Co103 2.135 . S
Co112 O113 2.216 1_556 S
Co112 O114 2.091 . S
Co112 O116 2.004 . S
Co112 O122 2.021 . S
Co112 O124 2.137 1_556 S
Co112 O125 2.244 1_556 S
O113 Co112 2.216 1_554 S
O113 C120 1.247 1_554 S
O114 Co112 2.091 . S
O114 C120 1.261 . S
C115 O124 1.247 . S
C115 O125 1.272 . S
O116 Co112 2.004 . S
O116 C121 1.259 1_455 S
Co117 O118 2.061 1_554 S
Co117 O123 2.052 . S
Co117 O125 2.135 1_655 S
O118 Co117 2.061 1_556 S
O118 C121 1.235 . S
C119 O122 1.238 1_554 S
C119 O123 1.241 1_455 S
C120 O113 1.247 1_556 S
C120 O114 1.261 . S
C121 O116 1.259 1_655 S
C121 O118 1.235 . S
O122 Co112 2.021 . S
O122 C119 1.238 1_556 S
O123 Co117 2.052 . S
O123 C119 1.241 1_655 S
O124 Co112 2.137 1_554 S
O124 C115 1.247 . S
O125 Co112 2.244 1_554 S
O125 C115 1.272 . S
O125 Co117 2.135 1_455 S
Co126 O127 2.216 . S
Co126 O128 2.091 . S
Co126 O130 2.004 . S
Co126 O136 2.021 . S
Co126 O138 2.137 . S
Co126 O139 2.244 . S
O127 Co126 2.216 . S
O127 C134 1.247 . S
O128 Co126 2.091 . S
O128 C134 1.261 . S
C129 O138 1.247 . S
C129 O139 1.272 . S
O130 Co126 2.004 . S
O130 C135 1.259 1_455 S
Co131 O132 2.061 . S
Co131 O137 2.052 . S
Co131 O139 2.135 1_655 S
O132 Co131 2.061 . S
O132 C135 1.235 . S
C133 O136 1.238 . S
C133 O137 1.241 1_455 S
C134 O127 1.247 . S
C134 O128 1.261 . S
C135 O130 1.259 1_655 S
C135 O132 1.235 . S
O136 Co126 2.021 . S
O136 C133 1.238 . S
O137 Co131 2.052 . S
O137 C133 1.241 1_655 S
O138 Co126 2.137 . S
O138 C129 1.247 . S
O139 Co126 2.244 . S
O139 C129 1.272 . S
O139 Co131 2.135 1_455 S
Co140 O141 2.216 . S
Co140 O142 2.091 . S
Co140 O144 2.004 . S
Co140 O150 2.021 . S
Co140 O152 2.137 . S
Co140 O153 2.244 . S
O141 Co140 2.216 . S
O141 C148 1.247 . S
O142 Co140 2.091 . S
O142 C148 1.261 . S
C143 O152 1.247 . S
C143 O153 1.272 . S
O144 Co140 2.004 . S
O144 C149 1.259 1_655 S
Co145 O146 2.061 . S
Co145 O151 2.052 . S
Co145 O153 2.135 1_455 S
O146 Co145 2.061 . S
O146 C149 1.235 . S
C147 O150 1.238 . S
C147 O151 1.241 1_655 S
C148 O141 1.247 . S
C148 O142 1.261 . S
C149 O144 1.259 1_455 S
C149 O146 1.235 . S
O150 Co140 2.021 . S
O150 C147 1.238 . S
O151 Co145 2.052 . S
O151 C147 1.241 1_455 S
O152 Co140 2.137 . S
O152 C143 1.247 . S
O153 Co140 2.244 . S
O153 C143 1.272 . S
O153 Co145 2.135 1_655 S
Co154 O155 2.216 . S
Co154 O156 2.091 . S
Co154 O158 2.004 . S
Co154 O164 2.021 . S
Co154 O166 2.137 . S
Co154 O167 2.244 . S
O155 Co154 2.216 . S
O155 C162 1.247 . S
O156 Co154 2.091 . S
O156 C162 1.261 . S
C157 O166 1.247 . S
C157 O167 1.272 . S
O158 Co154 2.004 . S
O158 C163 1.259 . S
Co159 O160 2.061 . S
Co159 O165 2.052 . S
Co159 O167 2.135 . S
O160 Co159 2.061 . S
O160 C163 1.235 . S
C161 O164 1.238 . S
C161 O165 1.241 . S
C162 O155 1.247 . S
C162 O156 1.261 . S
C163 O158 1.259 . S
C163 O160 1.235 . S
O164 Co154 2.021 . S
O164 C161 1.238 . S
O165 Co159 2.052 . S
O165 C161 1.241 . S
O166 Co154 2.137 . S
O166 C157 1.247 . S
O167 Co154 2.244 . S
O167 C157 1.272 . S
O167 Co159 2.135 . S
Co168 O169 2.216 . S
Co168 O170 2.091 . S
Co168 O172 2.004 . S
Co168 O178 2.021 . S
Co168 O180 2.137 . S
Co168 O181 2.244 . S
O169 Co168 2.216 . S
O169 C176 1.247 . S
O170 Co168 2.091 . S
O170 C176 1.261 . S
C171 O180 1.247 . S
C171 O181 1.272 . S
O172 Co168 2.004 . S
O172 C177 1.259 . S
Co173 O174 2.061 . S
Co173 O179 2.052 . S
Co173 O181 2.135 . S
O174 Co173 2.061 . S
O174 C177 1.235 . S
C175 O178 1.238 . S
C175 O179 1.241 . S
C176 O169 1.247 . S
C176 O170 1.261 . S
C177 O172 1.259 . S
C177 O174 1.235 . S
O178 Co168 2.021 . S
O178 C175 1.238 . S
O179 Co173 2.052 . S
O179 C175 1.241 . S
O180 Co168 2.137 . S
O180 C171 1.247 . S
O181 Co168 2.244 . S
O181 C171 1.272 . S
O181 Co173 2.135 . S
Co182 O183 2.216 . S
Co182 O184 2.091 . S
Co182 O186 2.004 . S
Co182 O192 2.021 . S
Co182 O194 2.137 . S
Co182 O195 2.244 . S
O183 Co182 2.216 . S
O183 C190 1.247 . S
O184 Co182 2.091 . S
O184 C190 1.261 . S
C185 O194 1.247 . S
C185 O195 1.272 . S
O186 Co182 2.004 . S
O186 C191 1.259 1_565 S
Co187 O188 2.061 . S
Co187 O193 2.052 . S
Co187 O195 2.135 1_545 S
O188 Co187 2.061 . S
O188 C191 1.235 . S
C189 O192 1.238 . S
C189 O193 1.241 1_565 S
C190 O183 1.247 . S
C190 O184 1.261 . S
C191 O186 1.259 1_545 S
C191 O188 1.235 . S
O192 Co182 2.021 . S
O192 C189 1.238 . S
O193 Co187 2.052 . S
O193 C189 1.241 1_545 S
O194 Co182 2.137 . S
O194 C185 1.247 . S
O195 Co182 2.244 . S
O195 C185 1.272 . S
O195 Co187 2.135 1_565 S
Co196 O197 2.216 . S
Co196 O198 2.091 . S
Co196 O200 2.004 . S
Co196 O206 2.021 . S
Co196 O208 2.137 . S
Co196 O209 2.244 . S
O197 Co196 2.216 . S
O197 C204 1.247 . S
O198 Co196 2.091 . S
O198 C204 1.261 . S
C199 O208 1.247 . S
C199 O209 1.272 . S
O200 Co196 2.004 . S
O200 C205 1.259 . S
Co201 O202 2.061 . S
Co201 O207 2.052 . S
Co201 O209 2.135 . S
O202 Co201 2.061 . S
O202 C205 1.235 . S
C203 O206 1.238 . S
C203 O207 1.241 . S
C204 O197 1.247 . S
C204 O198 1.261 . S
C205 O200 1.259 . S
C205 O202 1.235 . S
O206 Co196 2.021 . S
O206 C203 1.238 . S
O207 Co201 2.052 . S
O207 C203 1.241 . S
O208 Co196 2.137 . S
O208 C199 1.247 . S
O209 Co196 2.244 . S
O209 C199 1.272 . S
O209 Co201 2.135 . S
Co210 O211 2.216 . S
Co210 O212 2.091 . S
Co210 O214 2.004 . S
Co210 O220 2.021 . S
Co210 O222 2.137 . S
Co210 O223 2.244 . S
O211 Co210 2.216 . S
O211 C218 1.247 . S
O212 Co210 2.091 . S
O212 C218 1.261 . S
C213 O222 1.247 . S
C213 O223 1.272 . S
O214 Co210 2.004 . S
O214 C219 1.259 1_545 S
Co215 O216 2.061 . S
Co215 O221 2.052 . S
Co215 O223 2.135 1_565 S
O216 Co215 2.061 . S
O216 C219 1.235 . S
C217 O220 1.238 . S
C217 O221 1.241 1_545 S
C218 O211 1.247 . S
C218 O212 1.261 . S
C219 O214 1.259 1_565 S
C219 O216 1.235 . S
O220 Co210 2.021 . S
O220 C217 1.238 . S
O221 Co215 2.052 . S
O221 C217 1.241 1_565 S
O222 Co210 2.137 . S
O222 C213 1.247 . S
O223 Co210 2.244 . S
O223 C213 1.272 . S
O223 Co215 2.135 1_545 S
Co224 O225 2.216 . S
Co224 O226 2.091 . S
Co224 O228 2.004 . S
Co224 O234 2.021 . S
Co224 O236 2.137 . S
Co224 O237 2.244 . S
O225 Co224 2.216 . S
O225 C232 1.247 . S
O226 Co224 2.091 . S
O226 C232 1.261 . S
C227 O236 1.247 . S
C227 O237 1.272 . S
O228 Co224 2.004 . S
O228 C233 1.259 . S
Co229 O230 2.061 . S
Co229 O235 2.052 . S
Co229 O237 2.135 . S
O230 Co229 2.061 . S
O230 C233 1.235 . S
C231 O234 1.238 . S
C231 O235 1.241 . S
C232 O225 1.247 . S
C232 O226 1.261 . S
C233 O228 1.259 . S
C233 O230 1.235 . S
O234 Co224 2.021 . S
O234 C231 1.238 . S
O235 Co229 2.052 . S
O235 C231 1.241 . S
O236 Co224 2.137 . S
O236 C227 1.247 . S
O237 Co224 2.244 . S
O237 C227 1.272 . S
O237 Co229 2.135 . S
Co238 O239 2.216 1_545 S
Co238 O240 2.091 . S
Co238 O242 2.004 . S
Co238 O248 2.021 . S
Co238 O250 2.137 1_545 S
Co238 O251 2.244 1_545 S
O239 Co238 2.216 1_565 S
O239 C246 1.247 1_565 S
O240 Co238 2.091 . S
O240 C246 1.261 . S
C241 O250 1.247 . S
C241 O251 1.272 . S
O242 Co238 2.004 . S
O242 C247 1.259 . S
Co243 O244 2.061 1_565 S
Co243 O249 2.052 . S
Co243 O251 2.135 . S
O244 Co243 2.061 1_545 S
O244 C247 1.235 . S
C245 O248 1.238 1_565 S
C245 O249 1.241 . S
C246 O239 1.247 1_545 S
C246 O240 1.261 . S
C247 O242 1.259 . S
C247 O244 1.235 . S
O248 Co238 2.021 . S
O248 C245 1.238 1_545 S
O249 Co243 2.052 . S
O249 C245 1.241 . S
O250 Co238 2.137 1_565 S
O250 C241 1.247 . S
O251 Co238 2.244 1_565 S
O251 C241 1.272 . S
O251 Co243 2.135 . S
Co252 O253 2.216 . S
Co252 O254 2.091 . S
Co252 O256 2.004 . S
Co252 O262 2.021 . S
Co252 O264 2.137 . S
Co252 O265 2.244 . S
O253 Co252 2.216 . S
O253 C260 1.247 . S
O254 Co252 2.091 . S
O254 C260 1.261 . S
C255 O264 1.247 . S
C255 O265 1.272 . S
O256 Co252 2.004 . S
O256 C261 1.259 1_556 S
Co257 O258 2.061 . S
Co257 O263 2.052 . S
Co257 O265 2.135 1_554 S
O258 Co257 2.061 . S
O258 C261 1.235 . S
C259 O262 1.238 . S
C259 O263 1.241 1_556 S
C260 O253 1.247 . S
C260 O254 1.261 . S
C261 O256 1.259 1_554 S
C261 O258 1.235 . S
O262 Co252 2.021 . S
O262 C259 1.238 . S
O263 Co257 2.052 . S
O263 C259 1.241 1_554 S
O264 Co252 2.137 . S
O264 C255 1.247 . S
O265 Co252 2.244 . S
O265 C255 1.272 . S
O265 Co257 2.135 1_556 S
Co266 O267 2.216 1_565 S
Co266 O268 2.091 . S
Co266 O270 2.004 . S
Co266 O276 2.021 . S
Co266 O278 2.137 1_565 S
Co266 O279 2.244 1_565 S
O267 Co266 2.216 1_545 S
O267 C274 1.247 1_545 S
O268 Co266 2.091 . S
O268 C274 1.261 . S
C269 O278 1.247 . S
C269 O279 1.272 . S
O270 Co266 2.004 . S
O270 C275 1.259 1_556 S
Co271 O272 2.061 1_545 S
Co271 O277 2.052 . S
Co271 O279 2.135 1_554 S
O272 Co271 2.061 1_565 S
O272 C275 1.235 . S
C273 O276 1.238 1_545 S
C273 O277 1.241 1_556 S
C274 O267 1.247 1_565 S
C274 O268 1.261 . S
C275 O270 1.259 1_554 S
C275 O272 1.235 . S
O276 Co266 2.021 . S
O276 C273 1.238 1_565 S
O277 Co271 2.052 . S
O277 C273 1.241 1_554 S
O278 Co266 2.137 1_545 S
O278 C269 1.247 . S
O279 Co266 2.244 1_545 S
O279 C269 1.272 . S
O279 Co271 2.135 1_556 S
Co280 O281 2.216 . S
Co280 O282 2.091 . S
Co280 O284 2.004 . S
Co280 O290 2.021 . S
Co280 O292 2.137 . S
Co280 O293 2.244 . S
O281 Co280 2.216 . S
O281 C288 1.247 . S
O282 Co280 2.091 . S
O282 C288 1.261 . S
C283 O292 1.247 . S
C283 O293 1.272 . S
O284 Co280 2.004 . S
O284 C289 1.259 . S
Co285 O286 2.061 . S
Co285 O291 2.052 . S
Co285 O293 2.135 . S
O286 Co285 2.061 . S
O286 C289 1.235 . S
C287 O290 1.238 . S
C287 O291 1.241 . S
C288 O281 1.247 . S
C288 O282 1.261 . S
C289 O284 1.259 . S
C289 O286 1.235 . S
O290 Co280 2.021 . S
O290 C287 1.238 . S
O291 Co285 2.052 . S
O291 C287 1.241 . S
O292 Co280 2.137 . S
O292 C283 1.247 . S
O293 Co280 2.244 . S
O293 C283 1.272 . S
O293 Co285 2.135 . S
Co294 O295 2.216 1_554 S
Co294 O296 2.091 . S
Co294 O298 2.004 . S
Co294 O304 2.021 . S
Co294 O306 2.137 1_554 S
Co294 O307 2.244 1_554 S
O295 Co294 2.216 1_556 S
O295 C302 1.247 1_556 S
O296 Co294 2.091 . S
O296 C302 1.261 . S
C297 O306 1.247 . S
C297 O307 1.272 . S
O298 Co294 2.004 . S
O298 C303 1.259 . S
Co299 O300 2.061 1_556 S
Co299 O305 2.052 . S
Co299 O307 2.135 . S
O300 Co299 2.061 1_554 S
O300 C303 1.235 . S
C301 O304 1.238 1_556 S
C301 O305 1.241 . S
C302 O295 1.247 1_554 S
C302 O296 1.261 . S
C303 O298 1.259 . S
C303 O300 1.235 . S
O304 Co294 2.021 . S
O304 C301 1.238 1_554 S
O305 Co299 2.052 . S
O305 C301 1.241 . S
O306 Co294 2.137 1_556 S
O306 C297 1.247 . S
O307 Co294 2.244 1_556 S
O307 C297 1.272 . S
O307 Co299 2.135 . S
Co308 O309 2.216 1_554 S
Co308 O310 2.091 . S
Co308 O312 2.004 . S
Co308 O318 2.021 . S
Co308 O320 2.137 1_554 S
Co308 O321 2.244 1_554 S
O309 Co308 2.216 1_556 S
O309 C316 1.247 1_556 S
O310 Co308 2.091 . S
O310 C316 1.261 . S
C311 O320 1.247 . S
C311 O321 1.272 . S
O312 Co308 2.004 . S
O312 C317 1.259 . S
Co313 O314 2.061 1_556 S
Co313 O319 2.052 . S
Co313 O321 2.135 . S
O314 Co313 2.061 1_554 S
O314 C317 1.235 . S
C315 O318 1.238 1_556 S
C315 O319 1.241 . S
C316 O309 1.247 1_554 S
C316 O310 1.261 . S
C317 O312 1.259 . S
C317 O314 1.235 . S
O318 Co308 2.021 . S
O318 C315 1.238 1_554 S
O319 Co313 2.052 . S
O319 C315 1.241 . S
O320 Co308 2.137 1_556 S
O320 C311 1.247 . S
O321 Co308 2.244 1_556 S
O321 C311 1.272 . S
O321 Co313 2.135 . S
Co322 O323 2.216 1_556 S
Co322 O324 2.091 . S
Co322 O326 2.004 . S
Co322 O332 2.021 . S
Co322 O334 2.137 1_556 S
Co322 O335 2.244 1_556 S
O323 Co322 2.216 1_554 S
O323 C330 1.247 1_554 S
O324 Co322 2.091 . S
O324 C330 1.261 . S
C325 O334 1.247 . S
C325 O335 1.272 . S
O326 Co322 2.004 . S
O326 C331 1.259 1_655 S
Co327 O328 2.061 1_554 S
Co327 O333 2.052 . S
Co327 O335 2.135 1_455 S
O328 Co327 2.061 1_556 S
O328 C331 1.235 . S
C329 O332 1.238 1_554 S
C329 O333 1.241 1_655 S
C330 O323 1.247 1_556 S
C330 O324 1.261 . S
C331 O326 1.259 1_455 S
C331 O328 1.235 . S
O332 Co322 2.021 . S
O332 C329 1.238 1_556 S
O333 Co327 2.052 . S
O333 C329 1.241 1_455 S
O334 Co322 2.137 1_554 S
O334 C325 1.247 . S
O335 Co322 2.244 1_554 S
O335 C325 1.272 . S
O335 Co327 2.135 1_655 S
C247 C3 0.776 . S
C17 C233 1.054 . S
C31 C275 0.915 . S
C45 C261 1.169 . S
C59 C303 0.776 . S
C73 C317 0.864 . S
C289 C87 1.054 . S
C163 C101 1.119 . S
C115 C51 0.776 . S
C23 C129 0.864 . S
C143 C9 1.013 . S
C157 C205 1.119 . S
C79 C171 1.247 . S
C65 C185 1.013 . S
C199 C107 1.119 . S
C213 C93 0.864 . S
C135 C227 1.247 . S
C149 C241 1.170 . S
C121 C255 1.013 . S
C269 C331 0.915 . S
C219 C283 1.246 . S
C297 C191 1.169 . S
C177 C311 1.054 . S
C325 C37 0.915 . S
C8 C22 1.860 1_655 S
C50 C36 1.804 1_455 S
C64 C92 1.860 1_565 S
C78 C106 2.358 . S
C316 C120 1.860 1_554 S
C134 C162 2.358 . S
C288 C148 2.345 . S
C190 C176 2.346 . S
C204 C218 2.358 . S
C260 C232 2.346 . S
C246 C274 1.804 1_545 S
C330 C302 1.804 1_556 S
C35 C7 1.331 1_565 S
C21 C49 1.559 . S
C273 C63 1.331 1_556 S
C77 C259 1.444 1_554 S
C91 C245 1.558 . S
C231 C105 1.665 . S
C119 C329 1.331 1_455 S
C133 C147 1.445 1_455 S
C287 C161 1.666 . S
C175 C203 1.665 . S
C189 C217 1.444 1_565 S
C315 C301 1.559 . S
