# Generated by pormake.
# Topology zfh, (5)-cn, num edge types: 1
# Building blocks:
#     Node 0, Type 0, BuildingBlock: BEQFEK_clean_sbu_0, # of connection points: 5
#     Node 1, Type 0, BuildingBlock: BEQFEK_clean_sbu_0, # of connection points: 5
#     Node 2, Type 0, BuildingBlock: BEQFEK_clean_sbu_0, # of connection points: 5
#     Node 3, Type 0, BuildingBlock: BEQFEK_clean_sbu_0, # of connection points: 5
#     Node 4, Type 0, BuildingBlock: BEQFEK_clean_sbu_0, # of connection points: 5
#     Node 5, Type 0, BuildingBlock: BEQFEK_clean_sbu_0, # of connection points: 5
#     Node 6, Type 0, BuildingBlock: BEQFEK_clean_sbu_0, # of connection points: 5
#     Node 7, Type 0, BuildingBlock: BEQFEK_clean_sbu_0, # of connection points: 5
#     Node 8, Type 0, BuildingBlock: BEQFEK_clean_sbu_0, # of connection points: 5
#     Node 9, Type 0, BuildingBlock: BEQFEK_clean_sbu_0, # of connection points: 5
#     Node 10, Type 0, BuildingBlock: BEQFEK_clean_sbu_0, # of connection points: 5
#     Node 11, Type 0, BuildingBlock: BEQFEK_clean_sbu_0, # of connection points: 5
#     Node 12, Type 0, BuildingBlock: BEQFEK_clean_sbu_0, # of connection points: 5
#     Node 13, Type 0, BuildingBlock: BEQFEK_clean_sbu_0, # of connection points: 5
#     Node 14, Type 0, BuildingBlock: BEQFEK_clean_sbu_0, # of connection points: 5
#     Node 15, Type 0, BuildingBlock: BEQFEK_clean_sbu_0, # of connection points: 5
#     Edge 16, Type (0, 0), BuildingBlock: XIVTED_clean_linker_0, # of connection points: 2
#     Edge 17, Type (0, 0), BuildingBlock: XIVTED_clean_linker_0, # of connection points: 2
#     Edge 18, Type (0, 0), BuildingBlock: XIVTED_clean_linker_0, # of connection points: 2
#     Edge 19, Type (0, 0), BuildingBlock: XIVTED_clean_linker_0, # of connection points: 2
#     Edge 20, Type (0, 0), BuildingBlock: XIVTED_clean_linker_0, # of connection points: 2
#     Edge 21, Type (0, 0), BuildingBlock: XIVTED_clean_linker_0, # of connection points: 2
#     Edge 22, Type (0, 0), BuildingBlock: XIVTED_clean_linker_0, # of connection points: 2
#     Edge 23, Type (0, 0), BuildingBlock: XIVTED_clean_linker_0, # of connection points: 2
#     Edge 24, Type (0, 0), BuildingBlock: XIVTED_clean_linker_0, # of connection points: 2
#     Edge 25, Type (0, 0), BuildingBlock: XIVTED_clean_linker_0, # of connection points: 2
#     Edge 26, Type (0, 0), BuildingBlock: XIVTED_clean_linker_0, # of connection points: 2
#     Edge 27, Type (0, 0), BuildingBlock: XIVTED_clean_linker_0, # of connection points: 2
#     Edge 28, Type (0, 0), BuildingBlock: XIVTED_clean_linker_0, # of connection points: 2
#     Edge 29, Type (0, 0), BuildingBlock: XIVTED_clean_linker_0, # of connection points: 2
#     Edge 30, Type (0, 0), BuildingBlock: XIVTED_clean_linker_0, # of connection points: 2
#     Edge 31, Type (0, 0), BuildingBlock: XIVTED_clean_linker_0, # of connection points: 2
#     Edge 32, Type (0, 0), BuildingBlock: XIVTED_clean_linker_0, # of connection points: 2
#     Edge 33, Type (0, 0), BuildingBlock: XIVTED_clean_linker_0, # of connection points: 2
#     Edge 34, Type (0, 0), BuildingBlock: XIVTED_clean_linker_0, # of connection points: 2
#     Edge 35, Type (0, 0), BuildingBlock: XIVTED_clean_linker_0, # of connection points: 2
#     Edge 36, Type (0, 0), BuildingBlock: XIVTED_clean_linker_0, # of connection points: 2
#     Edge 37, Type (0, 0), BuildingBlock: XIVTED_clean_linker_0, # of connection points: 2
#     Edge 38, Type (0, 0), BuildingBlock: XIVTED_clean_linker_0, # of connection points: 2
#     Edge 39, Type (0, 0), BuildingBlock: XIVTED_clean_linker_0, # of connection points: 2
#     Edge 40, Type (0, 0), BuildingBlock: XIVTED_clean_linker_0, # of connection points: 2
#     Edge 41, Type (0, 0), BuildingBlock: XIVTED_clean_linker_0, # of connection points: 2
#     Edge 42, Type (0, 0), BuildingBlock: XIVTED_clean_linker_0, # of connection points: 2
#     Edge 43, Type (0, 0), BuildingBlock: XIVTED_clean_linker_0, # of connection points: 2
#     Edge 44, Type (0, 0), BuildingBlock: XIVTED_clean_linker_0, # of connection points: 2
#     Edge 45, Type (0, 0), BuildingBlock: XIVTED_clean_linker_0, # of connection points: 2
#     Edge 46, Type (0, 0), BuildingBlock: XIVTED_clean_linker_0, # of connection points: 2
#     Edge 47, Type (0, 0), BuildingBlock: XIVTED_clean_linker_0, # of connection points: 2
#     Edge 48, Type (0, 0), BuildingBlock: XIVTED_clean_linker_0, # of connection points: 2
#     Edge 49, Type (0, 0), BuildingBlock: XIVTED_clean_linker_0, # of connection points: 2
#     Edge 50, Type (0, 0), BuildingBlock: XIVTED_clean_linker_0, # of connection points: 2
#     Edge 51, Type (0, 0), BuildingBlock: XIVTED_clean_linker_0, # of connection points: 2
#     Edge 52, Type (0, 0), BuildingBlock: XIVTED_clean_linker_0, # of connection points: 2
#     Edge 53, Type (0, 0), BuildingBlock: XIVTED_clean_linker_0, # of connection points: 2
#     Edge 54, Type (0, 0), BuildingBlock: XIVTED_clean_linker_0, # of connection points: 2
#     Edge 55, Type (0, 0), BuildingBlock: XIVTED_clean_linker_0, # of connection points: 2
# Relax obj value: 0.213
# Max RMSD: 0.165
# Mean RMSD: 0.165
data_MOF--net-zfh--node1-BEQFEK_clean_sbu_0--edge1-XIVTED_clean_linker_0
_symmetry_space_group_name_H-M    P1
_symmetry_Int_Tables_number       1
_symmetry_cell_setting            triclinic
loop_
_symmetry_equiv_pos_as_xyz
'x, y, z'
_cell_length_a     43.363534
_cell_length_b     43.308746
_cell_length_c     43.338456
_cell_angle_alpha  89.964822
_cell_angle_beta   90.047423
_cell_angle_gamma 90.054422
loop_
_atom_site_label
_atom_site_type_symbol
_atom_site_fract_x
_atom_site_fract_y
_atom_site_fract_z
_atom_type_partial_charge
Co0 Co 0.54984 0.18393 0.38666 0.0
Co1 Co 0.52119 0.23183 0.3407 0.0
C2 C 0.48662 0.17486 0.3641 0.0
O3 O 0.50769 0.16625 0.38267 0.0
O4 O 0.49012 0.19873 0.34733 0.0
C5 C 0.56662 0.15004 0.44258 0.0
O6 O 0.53925 0.15743 0.45324 0.0
C7 C 0.47585 0.28046 0.33717 0.0
C8 C 0.48533 0.30369 0.29285 0.0
C9 C 0.4671 0.30532 0.31908 0.0
N10 N 0.49871 0.26528 0.32279 0.0
N11 N 0.50406 0.27901 0.29607 0.0
C12 C 0.4625 0.27099 0.36764 0.0
H13 H 0.47454 0.28328 0.38657 0.0
H14 H 0.43763 0.27695 0.36877 0.0
H15 H 0.46555 0.24591 0.3715 0.0
C16 C 0.56329 0.2416 0.42189 0.0
N17 N 0.54996 0.22623 0.39829 0.0
N18 N 0.53979 0.24635 0.37791 0.0
C19 C 0.54718 0.27511 0.38745 0.0
C20 C 0.56182 0.27305 0.41587 0.0
C21 C 0.58043 0.22648 0.4478 0.0
H22 H 0.59719 0.20967 0.43832 0.0
H23 H 0.56384 0.21387 0.46264 0.0
H24 H 0.59308 0.24353 0.46211 0.0
O25 O 0.57157 0.18011 0.34654 0.0
O26 O 0.55364 0.21476 0.31308 0.0
H27 H 0.54428 0.29881 0.34392 0.0
H28 H 0.55827 0.32248 0.37503 0.0
C29 C 0.54194 0.30386 0.36886 0.0
H30 H 0.51847 0.31276 0.37341 0.0
H31 H 0.52101 0.27207 0.28048 0.0
O32 O 0.57459 0.15886 0.41579 0.0
C33 C 0.57207 0.1928 0.31997 0.0
Co34 Co 0.31575 0.54358 0.39412 0.0
Co35 Co 0.2696 0.51834 0.34432 0.0
C36 C 0.32535 0.48195 0.36664 0.0
O37 O 0.33361 0.50197 0.38656 0.0
O38 O 0.30179 0.48624 0.34963 0.0
C39 C 0.36642 0.57039 0.42868 0.0
O40 O 0.38413 0.55914 0.40684 0.0
C41 C 0.22326 0.47281 0.32936 0.0
C42 C 0.19491 0.49587 0.29388 0.0
C43 C 0.19632 0.46975 0.31239 0.0
N44 N 0.23688 0.49957 0.32156 0.0
N45 N 0.22029 0.51291 0.29972 0.0
C46 C 0.23319 0.45344 0.35624 0.0
H47 H 0.24864 0.4667 0.37175 0.0
H48 H 0.21291 0.44517 0.3695 0.0
H49 H 0.24589 0.43299 0.34754 0.0
C50 C 0.25761 0.55311 0.42826 0.0
N51 N 0.27329 0.54196 0.40386 0.0
N52 N 0.25364 0.53242 0.38279 0.0
C53 C 0.22468 0.53745 0.39308 0.0
C54 C 0.22626 0.55066 0.42224 0.0
C55 C 0.27254 0.56951 0.45474 0.0
H56 H 0.28434 0.59046 0.44592 0.0
H57 H 0.2902 0.55431 0.46533 0.0
H58 H 0.25566 0.5766 0.47255 0.0
O59 O 0.32178 0.56939 0.3569 0.0
O60 O 0.28841 0.55345 0.32127 0.0
H61 H 0.19798 0.54035 0.35156 0.0
H62 H 0.17498 0.53958 0.3863 0.0
C63 C 0.19601 0.53049 0.37507 0.0
H64 H 0.19323 0.50517 0.37324 0.0
H65 H 0.22513 0.5346 0.29039 0.0
O66 O 0.33761 0.56515 0.42792 0.0
C67 C 0.30993 0.57158 0.33007 0.0
Co68 Co 0.95582 0.32169 0.388 0.0
Co69 Co 0.98495 0.27401 0.34218 0.0
C70 C 0.01899 0.33121 0.36531 0.0
O71 O 0.99731 0.34002 0.383 0.0
O72 O 0.01636 0.30686 0.3491 0.0
C73 C 0.94012 0.35645 0.44344 0.0
O74 O 0.96804 0.35012 0.45338 0.0
C75 C 0.03005 0.22502 0.33778 0.0
C76 C 0.01905 0.2018 0.29381 0.0
C77 C 0.03797 0.19997 0.31958 0.0
N78 N 0.00699 0.24047 0.32392 0.0
N79 N 1.00076 0.22674 0.2974 0.0
C80 C 0.04434 0.23438 0.36787 0.0
H81 H 0.04239 0.25961 0.37133 0.0
H82 H 0.03215 0.22289 0.38719 0.0
H83 H 0.06898 0.22747 0.36869 0.0
C84 C 0.94343 0.26426 0.42361 0.0
N85 N 0.95645 0.27954 0.3998 0.0
N86 N 0.96657 0.25939 0.37948 0.0
C87 C 0.95943 0.23064 0.38928 0.0
C88 C 0.94502 0.23279 0.4178 0.0
C89 C 0.92646 0.27952 0.4495 0.0
H90 H 0.90914 0.29574 0.43996 0.0
H91 H 0.94303 0.29287 0.46371 0.0
H92 H 0.91448 0.26252 0.46442 0.0
O93 O 0.93361 0.32528 0.34843 0.0
O94 O 0.95228 0.29153 0.31458 0.0
H95 H 0.96196 0.20666 0.34592 0.0
H96 H 0.94862 0.18307 0.37738 0.0
C97 C 0.96468 0.20181 0.37087 0.0
H98 H 0.98829 0.19315 0.37522 0.0
H99 H 0.98345 0.23382 0.28223 0.0
O100 O 0.93143 0.34658 0.41726 0.0
C101 C 0.93338 0.313 0.32173 0.0
Co102 Co 0.18374 0.95638 0.39094 0.0
Co103 Co 0.23124 0.98446 0.34392 0.0
C104 C 0.17468 0.01932 0.36755 0.0
O105 O 0.16614 0.99852 0.3865 0.0
O106 O 0.19835 0.01554 0.35066 0.0
C107 C 0.15005 0.93931 0.44726 0.0
O108 O 0.15701 0.9668 0.45804 0.0
C109 C 0.28011 0.02986 0.33869 0.0
C110 C 0.30267 0.01885 0.29443 0.0
C111 C 0.30484 0.03788 0.32009 0.0
N112 N 0.26454 0.00665 0.32516 0.0
N113 N 0.27787 1.00042 0.29847 0.0
C114 C 0.27113 0.04423 0.36883 0.0
H115 H 0.24603 0.04181 0.3728 0.0
H116 H 0.2832 0.03242 0.38803 0.0
H117 H 0.27764 0.06902 0.36927 0.0
C118 C 0.24179 0.94368 0.42563 0.0
N119 N 0.22616 0.9565 0.40194 0.0
N120 N 0.24602 0.96641 0.38121 0.0
C121 C 0.27485 0.95932 0.39059 0.0
C122 C 0.27312 0.94517 0.41927 0.0
C123 C 0.22699 0.92713 0.45209 0.0
H124 H 0.21029 0.90992 0.44317 0.0
H125 H 0.21432 0.94402 0.46649 0.0
H126 H 0.2442 0.91504 0.46667 0.0
O127 O 0.1793 0.93426 0.35111 0.0
O128 O 0.21365 0.95153 0.31707 0.0
H129 H 0.29812 0.9617 0.34685 0.0
H130 H 0.32217 0.94851 0.37794 0.0
C131 C 0.30337 0.96453 0.3717 0.0
H132 H 0.31212 0.98818 0.3758 0.0
H133 H 0.27062 0.98302 0.28346 0.0
O134 O 0.15905 0.93156 0.42047 0.0
C135 C 0.19164 0.93333 0.32443 0.0
Co136 Co 0.04819 0.82672 0.10204 0.0
Co137 Co 0.01934 0.77777 0.14697 0.0
C138 C 0.98493 0.83529 0.12651 0.0
O139 O 0.00684 0.84472 0.10932 0.0
O140 O 0.98711 0.81017 0.1417 0.0
C141 C 0.0633 0.86382 0.04724 0.0
O142 O 0.03492 0.85934 0.03758 0.0
C143 C 0.97449 0.72899 0.15661 0.0
C144 C 0.99566 0.70083 0.19343 0.0
C145 C 0.97113 0.70162 0.17288 0.0
N146 N 0.99995 0.74348 0.16679 0.0
N147 N 0.01214 0.72692 0.18932 0.0
C148 C 0.95652 0.73911 0.12887 0.0
H149 H 0.9698 0.7562 0.11519 0.0
H150 H 0.95058 0.71899 0.11417 0.0
H151 H 0.93472 0.75004 0.1366 0.0
C152 C 0.058 0.77062 0.06388 0.0
N153 N 0.0465 0.78503 0.08893 0.0
N154 N 0.03543 0.76425 0.10816 0.0
C155 C 0.03972 0.7359 0.09588 0.0
C156 C 0.05383 0.73908 0.06738 0.0
C157 C 0.07341 0.78671 0.0375 0.0
H158 H 0.05671 0.80262 0.0265 0.0
H159 H 0.0817 0.77024 0.01978 0.0
H160 H 0.09312 0.80052 0.04622 0.0
O161 O 0.07205 0.82927 0.14053 0.0
O162 O 0.05316 0.79487 0.17351 0.0
H163 H 0.04777 0.68698 0.10229 0.0
H164 H 0.00937 0.6999 0.11062 0.0
C165 C 0.0341 0.70608 0.11245 0.0
H166 H 0.04041 0.70843 0.13709 0.0
H167 H 0.03272 0.73244 0.20053 0.0
O168 O 0.07203 0.85219 0.07268 0.0
C169 C 0.07244 0.81611 0.16677 0.0
Co170 Co 0.68315 0.04536 0.10021 0.0
Co171 Co 0.73147 0.02101 0.14842 0.0
C172 C 0.67484 0.98412 0.12865 0.0
O173 O 0.66568 0.00394 0.1089 0.0
O174 O 0.69909 0.98864 0.14466 0.0
C175 C 0.63164 0.07394 0.06872 0.0
O176 O 0.61518 0.06414 0.0922 0.0
C177 C 0.77969 0.97659 0.16051 0.0
C178 C 0.80752 0.99861 0.19705 0.0
C179 C 0.80669 0.97339 0.17733 0.0
N180 N 0.76535 1.0025 0.16966 0.0
N181 N 0.78172 0.01526 0.19201 0.0
C182 C 0.76989 0.95792 0.13313 0.0
H183 H 0.75281 0.97071 0.119 0.0
H184 H 0.79014 0.95188 0.1187 0.0
H185 H 0.75912 0.93614 0.14126 0.0
C186 C 0.73952 0.05259 0.06277 0.0
N187 N 0.725 0.04315 0.08855 0.0
N188 N 0.74561 0.03464 0.10912 0.0
C189 C 0.77405 0.03902 0.09719 0.0
C190 C 0.77109 0.05033 0.06737 0.0
C191 C 0.72339 0.06432 0.03459 0.0
H192 H 0.70285 0.04984 0.02968 0.0
H193 H 0.73888 0.06416 0.01421 0.0
H194 H 0.71554 0.08832 0.03885 0.0
O195 O 0.67876 0.07138 0.13757 0.0
O196 O 0.71356 0.0561 0.17206 0.0
H197 H 0.82196 0.05079 0.10499 0.0
H198 H 0.81122 0.01198 0.11501 0.0
C199 C 0.80343 0.03635 0.11518 0.0
H200 H 0.79966 0.04372 0.13934 0.0
H201 H 0.7763 0.03626 0.20246 0.0
O202 O 0.66009 0.06714 0.06733 0.0
C203 C 0.69157 0.07394 0.16393 0.0
Co204 Co 0.45582 0.68308 0.11148 0.0
Co205 Co 0.48254 0.73196 0.15758 0.0
C206 C 0.51845 0.67537 0.1358 0.0
O207 O 0.49802 0.66622 0.11677 0.0
O208 O 0.51415 0.6993 0.15223 0.0
C209 C 0.44098 0.64764 0.05592 0.0
O210 O 0.46847 0.6552 0.04566 0.0
C211 C 0.52732 0.78107 0.16157 0.0
C212 C 0.51621 0.80515 0.20501 0.0
C213 C 0.53524 0.80643 0.17933 0.0
N214 N 0.50418 0.76592 0.17557 0.0
N215 N 0.49786 0.78014 0.20179 0.0
C216 C 0.54161 0.77123 0.13165 0.0
H217 H 0.52939 0.78235 0.11213 0.0
H218 H 0.56624 0.77819 0.13073 0.0
H219 H 0.53967 0.74595 0.1286 0.0
C220 C 0.44255 0.73999 0.07513 0.0
N221 N 0.45546 0.72515 0.09929 0.0
N222 N 0.4648 0.74567 0.11965 0.0
C223 C 0.45729 0.77419 0.10952 0.0
C224 C 0.44342 0.77153 0.08076 0.0
C225 C 0.42634 0.72423 0.04902 0.0
H226 H 0.4095 0.70736 0.05831 0.0
H227 H 0.44348 0.71155 0.03493 0.0
H228 H 0.41395 0.74087 0.03402 0.0
O229 O 0.43312 0.67952 0.15102 0.0
O230 O 0.44959 0.71481 0.18455 0.0
H231 H 0.45864 0.79852 0.15274 0.0
H232 H 0.4456 0.82169 0.12083 0.0
C233 C 0.46177 0.80324 0.12781 0.0
H234 H 0.48534 0.81223 0.12392 0.0
H235 H 0.48048 0.77334 0.21699 0.0
O236 O 0.43223 0.6571 0.08223 0.0
C237 C 0.43167 0.69251 0.17738 0.0
Co238 Co 0.8206 0.46071 0.10153 0.0
Co239 Co 0.7759 0.4893 0.15065 0.0
C240 C 0.83195 0.52338 0.12459 0.0
O241 O 0.83995 0.5019 0.10623 0.0
O242 O 0.80848 0.52053 0.142 0.0
C243 C 0.86994 0.4359 0.06342 0.0
O244 O 0.88853 0.45404 0.07908 0.0
C245 C 0.72751 0.53438 0.15799 0.0
C246 C 0.70582 0.52257 0.20249 0.0
C247 C 0.70298 0.5418 0.17703 0.0
N248 N 0.74361 0.5113 0.17105 0.0
N249 N 0.73085 0.50462 0.19793 0.0
C250 C 0.73554 0.54886 0.1276 0.0
H251 H 0.7248 0.53554 0.10858 0.0
H252 H 0.72703 0.573 0.12645 0.0
H253 H 0.76079 0.54859 0.12395 0.0
C254 C 0.76162 0.45099 0.06868 0.0
N255 N 0.77804 0.46276 0.09233 0.0
N256 N 0.75905 0.47194 0.11407 0.0
C257 C 0.72988 0.46512 0.10551 0.0
C258 C 0.73054 0.45209 0.07626 0.0
C259 C 0.77576 0.43554 0.04126 0.0
H260 H 0.78627 0.41342 0.04873 0.0
H261 H 0.79432 0.45035 0.03168 0.0
H262 H 0.75848 0.43057 0.02306 0.0
O263 O 0.82633 0.43725 0.14036 0.0
O264 O 0.79455 0.45574 0.17618 0.0
H265 H 0.70847 0.46651 0.15025 0.0
H266 H 0.68348 0.45294 0.12 0.0
C267 C 0.70212 0.46943 0.12566 0.0
H268 H 0.69267 0.49289 0.12214 0.0
H269 H 0.73847 0.48706 0.21256 0.0
O270 O 0.84122 0.43632 0.06907 0.0
C271 C 0.81537 0.43669 0.16765 0.0
Co272 Co 0.45942 0.8216 0.60201 0.0
Co273 Co 0.48546 0.77236 0.64802 0.0
C274 C 0.52152 0.82951 0.62741 0.0
O275 O 0.50125 0.83876 0.60826 0.0
O276 O 0.51728 0.80524 0.64348 0.0
C277 C 0.44427 0.85911 0.54758 0.0
O278 O 0.47265 0.8548 0.53793 0.0
C279 C 0.529 0.72224 0.65258 0.0
C280 C 0.51804 0.69971 0.69693 0.0
C281 C 0.53677 0.69738 0.6711 0.0
N282 N 0.5063 0.73817 0.66637 0.0
N283 N 0.5 0.72481 0.69306 0.0
C284 C 0.54343 0.73132 0.62249 0.0
H285 H 0.53978 0.7562 0.61781 0.0
H286 H 0.53271 0.71808 0.60342 0.0
H287 H 0.56848 0.72607 0.62271 0.0
C288 C 0.44856 0.76534 0.56419 0.0
N289 N 0.45998 0.77982 0.58927 0.0
N290 N 0.46899 0.75901 0.60948 0.0
C291 C 0.4628 0.73062 0.59821 0.0
C292 C 0.45022 0.7337 0.56899 0.0
C293 C 0.43564 0.78154 0.53657 0.0
H294 H 0.45317 0.7977 0.52736 0.0
H295 H 0.42912 0.76513 0.51804 0.0
H296 H 0.41511 0.79512 0.5435 0.0
O297 O 0.43616 0.82486 0.64116 0.0
O298 O 0.45193 0.78913 0.67446 0.0
H299 H 0.44543 0.68531 0.60946 0.0
H300 H 0.48635 0.6896 0.61257 0.0
C301 C 0.46406 0.70137 0.61666 0.0
H302 H 0.46154 0.70633 0.6416 0.0
H303 H 0.48297 0.73238 0.70828 0.0
O304 O 0.43549 0.84717 0.57285 0.0
C305 C 0.43426 0.81161 0.66735 0.0
Co306 Co 0.68457 0.45449 0.60669 0.0
Co307 Co 0.73291 0.48222 0.65321 0.0
C308 C 0.6771 0.51806 0.63071 0.0
O309 O 0.66804 0.49693 0.61234 0.0
O310 O 0.70107 0.51452 0.6473 0.0
C311 C 0.65105 0.43926 0.54961 0.0
O312 O 0.66002 0.46608 0.53862 0.0
C313 C 0.78028 0.52822 0.66517 0.0
C314 C 0.80939 0.50587 0.7005 0.0
C315 C 0.80772 0.53152 0.68136 0.0
N316 N 0.76672 0.50169 0.67395 0.0
N317 N 0.7838 0.48883 0.6957 0.0
C318 C 0.76953 0.54719 0.63833 0.0
H319 H 0.75393 0.53353 0.62331 0.0
H320 H 0.7894 0.55562 0.62456 0.0
H321 H 0.7567 0.56753 0.64711 0.0
C322 C 0.74189 0.44138 0.57126 0.0
N323 N 0.72683 0.45421 0.59527 0.0
N324 N 0.74713 0.46561 0.61482 0.0
C325 C 0.77577 0.4605 0.60368 0.0
C326 C 0.77334 0.44511 0.57573 0.0
C327 C 0.72676 0.42275 0.5464 0.0
H328 H 0.7091 0.40734 0.55662 0.0
H329 H 0.71533 0.43857 0.52985 0.0
H330 H 0.74368 0.40843 0.53366 0.0
O331 O 0.6799 0.43138 0.64557 0.0
O332 O 0.71458 0.44868 0.67917 0.0
H333 H 0.80494 0.4616 0.64359 0.0
H334 H 0.82586 0.46156 0.60761 0.0
C335 C 0.80497 0.47012 0.61949 0.0
H336 H 0.80641 0.4956 0.61964 0.0
H337 H 0.77904 0.46746 0.70577 0.0
O338 O 0.65891 0.43132 0.57671 0.0
C339 C 0.6926 0.43037 0.67204 0.0
Co340 Co 0.04701 0.6825 0.60815 0.0
Co341 Co 0.01732 0.73103 0.65271 0.0
C342 C 0.9834 0.67348 0.63056 0.0
O343 O 0.0054 0.66431 0.61347 0.0
O344 O 0.98571 0.69823 0.64622 0.0
C345 C 0.06275 0.64698 0.55316 0.0
O346 O 0.03537 0.65446 0.54252 0.0
C347 C 0.97238 0.78035 0.65678 0.0
C348 C 0.98423 0.80426 0.70016 0.0
C349 C 0.96494 0.80577 0.67466 0.0
N350 N 0.99554 0.76497 0.67056 0.0
N351 N 1.00226 0.77911 0.69674 0.0
C352 C 0.95759 0.7706 0.62706 0.0
H353 H 0.95875 0.74522 0.62434 0.0
H354 H 0.97 0.78113 0.60734 0.0
H355 H 0.93317 0.77821 0.62619 0.0
C356 C 0.06013 0.73936 0.57171 0.0
N357 N 0.04655 0.72447 0.59547 0.0
N358 N 0.03599 0.74498 0.61522 0.0
C359 C 0.04334 0.77356 0.60506 0.0
C360 C 0.05842 0.77093 0.57693 0.0
C361 C 0.07781 0.72367 0.54656 0.0
H362 H 0.09439 0.70711 0.5568 0.0
H363 H 0.06154 0.71066 0.5317 0.0
H364 H 0.0907 0.74041 0.53209 0.0
O365 O 0.06928 0.67988 0.64779 0.0
O366 O 0.04993 0.7141 0.68077 0.0
H367 H 0.04066 0.79844 0.64788 0.0
H368 H 0.05326 0.82164 0.61583 0.0
C369 C 0.03767 0.8027 0.62286 0.0
H370 H 0.01386 0.81078 0.61853 0.0
H371 H 0.01976 0.77218 0.71176 0.0
O372 O 0.07123 0.65662 0.5795 0.0
C373 C 0.06919 0.69277 0.6742 0.0
Co374 Co 0.82142 0.05143 0.60833 0.0
Co375 Co 0.77282 0.02374 0.65411 0.0
C376 C 0.82931 0.98826 0.63132 0.0
O377 O 0.8384 0.00903 0.61261 0.0
O378 O 0.80546 0.99232 0.64788 0.0
C379 C 0.85597 0.06752 0.55264 0.0
O380 O 0.84835 0.04013 0.54205 0.0
C381 C 0.72392 0.97862 0.65774 0.0
C382 C 0.70054 0.98868 0.7018 0.0
C383 C 0.69897 0.97013 0.67575 0.0
N384 N 0.73912 1.00163 0.67196 0.0
N385 N 0.7253 0.00732 0.69853 0.0
C386 C 0.73346 0.96487 0.62747 0.0
H387 H 0.75855 0.96769 0.62378 0.0
H388 H 0.72144 0.97683 0.60832 0.0
H389 H 0.72729 0.94001 0.62654 0.0
C390 C 0.76422 0.06522 0.57251 0.0
N391 N 0.77924 0.05202 0.59641 0.0
N392 N 0.75886 0.04222 0.61667 0.0
C393 C 0.73029 0.04969 0.60675 0.0
C394 C 0.73275 0.06402 0.57821 0.0
C395 C 0.77972 0.08188 0.54652 0.0
H396 H 0.79668 0.09857 0.55593 0.0
H397 H 0.79218 0.06495 0.53198 0.0
H398 H 0.76296 0.09458 0.53193 0.0
O399 O 0.82541 0.07325 0.64843 0.0
O400 O 0.79018 0.05613 0.68164 0.0
H401 H 0.70616 0.04718 0.65002 0.0
H402 H 0.68289 0.061 0.61854 0.0
C403 C 0.70136 0.04466 0.62504 0.0
H404 H 0.69242 0.02115 0.62056 0.0
H405 H 0.73224 0.02443 0.714 0.0
O406 O 0.84699 0.07575 0.57928 0.0
C407 C 0.81255 0.0741 0.67487 0.0
Co408 Co 0.96246 0.18323 0.89346 0.0
Co409 Co 0.98808 0.23163 0.8462 0.0
C410 C 0.0239 0.17434 0.86709 0.0
O411 O 0.00385 0.1653 0.88659 0.0
O412 O 0.0196 0.19852 0.85089 0.0
C413 C 0.93776 0.13146 0.9292 0.0
O414 O 0.95474 0.11328 0.91192 0.0
C415 C 0.03153 0.28166 0.84099 0.0
C416 C 0.02013 0.30424 0.79678 0.0
C417 C 0.03899 0.30666 0.82255 0.0
N418 N 0.00887 0.26556 0.82725 0.0
N419 N 1.00231 0.27894 0.80062 0.0
C420 C 0.04603 0.27275 0.8711 0.0
H421 H 0.04301 0.24774 0.87555 0.0
H422 H 0.03484 0.28552 0.8902 0.0
H423 H 0.07094 0.27869 0.87112 0.0
C424 C 0.9542 0.2396 0.9308 0.0
N425 N 0.96455 0.22501 0.90541 0.0
N426 N 0.97261 0.24561 0.88467 0.0
C427 C 0.96652 0.27407 0.89578 0.0
C428 C 0.95513 0.2712 0.92555 0.0
C429 C 0.94282 0.22346 0.95911 0.0
H430 H 0.9571 0.20272 0.96374 0.0
H431 H 0.94353 0.23897 0.97948 0.0
H432 H 0.91867 0.2159 0.95527 0.0
O433 O 0.93788 0.17956 0.85485 0.0
O434 O 0.95382 0.21469 0.82089 0.0
H435 H 0.94772 0.31864 0.88401 0.0
H436 H 0.9887 0.31544 0.88024 0.0
C437 C 0.96664 0.30299 0.87678 0.0
H438 H 0.96381 0.29748 0.85197 0.0
H439 H 0.98517 0.27132 0.78551 0.0
O440 O 0.93895 0.16049 0.92523 0.0
C441 C 0.93584 0.1926 0.82852 0.0
Co442 Co 0.32464 0.95475 0.88841 0.0
Co443 Co 0.27816 0.98604 0.84253 0.0
C444 C 0.33503 0.01879 0.86764 0.0
O445 O 0.34351 0.99633 0.8846 0.0
O446 O 0.31092 0.01696 0.85101 0.0
C447 C 0.35724 0.93736 0.94478 0.0
O448 O 0.34992 0.9648 0.9554 0.0
C449 C 0.23097 0.03284 0.83581 0.0
C450 C 0.20648 0.01959 0.79316 0.0
C451 C 0.20569 0.04017 0.81766 0.0
N452 N 0.2455 0.00853 0.8232 0.0
N453 N 0.23111 1.00103 0.79737 0.0
C454 C 0.24127 0.04849 0.86491 0.0
H455 H 0.26638 0.05298 0.86387 0.0
H456 H 0.2371 0.03312 0.88495 0.0
H457 H 0.22914 0.07073 0.86849 0.0
C458 C 0.2663 0.94282 0.92283 0.0
N459 N 0.28223 0.95581 0.89943 0.0
N460 N 0.26261 0.96738 0.87931 0.0
C461 C 0.23358 0.96149 0.88896 0.0
C462 C 0.23501 0.94615 0.91705 0.0
C463 C 0.28059 0.92455 0.94844 0.0
H464 H 0.29733 0.90783 0.93877 0.0
H465 H 0.29306 0.94044 0.96413 0.0
H466 H 0.26305 0.91168 0.96192 0.0
O467 O 0.32856 0.93308 0.84859 0.0
O468 O 0.29556 0.95346 0.81496 0.0
H469 H 0.20889 0.96563 0.84617 0.0
H470 H 0.18477 0.95592 0.87853 0.0
C471 C 0.20504 0.96951 0.87113 0.0
H472 H 0.19936 0.99409 0.87498 0.0
H473 H 0.23733 0.98251 0.78331 0.0
O474 O 0.34878 0.92952 0.91784 0.0
C475 C 0.31644 0.93382 0.82182 0.0
Co476 Co 0.54567 0.32703 0.89312 0.0
Co477 Co 0.51789 0.27731 0.8484 0.0
C478 C 0.48295 0.3351 0.86687 0.0
O479 O 0.50445 0.34475 0.88446 0.0
O480 O 0.48545 0.30974 0.85219 0.0
C481 C 0.56005 0.36492 0.94776 0.0
O482 O 0.53204 0.35951 0.95797 0.0
C483 C 0.47352 0.22812 0.83844 0.0
C484 C 0.49561 0.19968 0.80245 0.0
C485 C 0.47065 0.20055 0.82243 0.0
N486 N 0.49912 0.24264 0.82867 0.0
N487 N 0.51186 0.2259 0.80661 0.0
C488 C 0.45492 0.23846 0.86562 0.0
H489 H 0.46777 0.25585 0.87934 0.0
H490 H 0.44884 0.21848 0.88049 0.0
H491 H 0.43319 0.2491 0.85727 0.0
C492 C 0.55524 0.27147 0.9323 0.0
N493 N 0.54389 0.28554 0.90695 0.0
N494 N 0.53319 0.26445 0.88783 0.0
C495 C 0.53758 0.23627 0.90049 0.0
C496 C 0.55134 0.23985 0.92913 0.0
C497 C 0.57047 0.28794 0.95856 0.0
H498 H 0.55354 0.30362 0.96949 0.0
H499 H 0.57906 0.27171 0.97639 0.0
H500 H 0.58993 0.30203 0.94974 0.0
O501 O 0.57039 0.32895 0.85518 0.0
O502 O 0.55228 0.29396 0.8224 0.0
H503 H 0.54623 0.18737 0.8947 0.0
H504 H 0.5079 0.19987 0.88535 0.0
C505 C 0.53261 0.20626 0.88407 0.0
H506 H 0.53945 0.20849 0.85957 0.0
H507 H 0.53263 0.23143 0.79579 0.0
O508 O 0.56877 0.3534 0.9223 0.0
C509 C 0.5714 0.31533 0.82922 0.0
Co510 Co 0.18751 0.54821 0.89352 0.0
Co511 Co 0.23368 0.52322 0.84369 0.0
C512 C 0.1785 0.48626 0.86655 0.0
O513 O 0.17018 0.50631 0.88637 0.0
O514 O 0.20187 0.49075 0.84935 0.0
C515 C 0.13706 0.5766 0.92624 0.0
O516 O 0.12046 0.56788 0.90241 0.0
C517 C 0.28 0.47767 0.82878 0.0
C518 C 0.30822 0.50053 0.7931 0.0
C519 C 0.30679 0.47444 0.81165 0.0
N520 N 0.26645 0.50447 0.82099 0.0
N521 N 0.28299 0.51771 0.79906 0.0
C522 C 0.27008 0.45833 0.85569 0.0
H523 H 0.25515 0.47181 0.87147 0.0
H524 H 0.29038 0.44962 0.86865 0.0
H525 H 0.25682 0.43818 0.84706 0.0
C526 C 0.24571 0.55837 0.92754 0.0
N527 N 0.23004 0.54726 0.90309 0.0
N528 N 0.24968 0.53773 0.88206 0.0
C529 C 0.27865 0.54272 0.89245 0.0
C530 C 0.27708 0.55589 0.92163 0.0
C531 C 0.23076 0.57448 0.95414 0.0
H532 H 0.21365 0.55882 0.96501 0.0
H533 H 0.24771 0.58213 0.9717 0.0
H534 H 0.21824 0.59504 0.94541 0.0
O535 O 0.1808 0.5736 0.85611 0.0
O536 O 0.21419 0.55795 0.82044 0.0
H537 H 0.3055 0.54507 0.85103 0.0
H538 H 0.32839 0.54446 0.88589 0.0
C539 C 0.30731 0.53541 0.87464 0.0
H540 H 0.30988 0.51005 0.87302 0.0
H541 H 0.27819 0.53937 0.78968 0.0
O542 O 0.16542 0.56937 0.92738 0.0
C543 C 0.19241 0.57577 0.82918 0.0
H544 H 0.33236 0.07922 0.28137 0.0
H545 H 0.46628 0.12579 0.39918 0.0
H546 H 0.33648 0.04428 0.37445 0.0
H547 H 0.44262 0.18046 0.31924 0.0
H548 H 0.4211 0.09313 0.38926 0.0
H549 H 0.37569 0.11377 0.29314 0.0
C550 C 0.34228 0.07901 0.30433 0.0
C551 C 0.33043 0.0594 0.32715 0.0
C552 C 0.42577 0.11241 0.37404 0.0
C553 C 0.3802 0.09833 0.34068 0.0
C554 C 0.45155 0.13105 0.37968 0.0
C555 C 0.45835 0.15592 0.36002 0.0
C556 C 0.40691 0.11842 0.34833 0.0
C557 C 0.43836 0.1616 0.33508 0.0
C558 C 0.3669 0.09875 0.31107 0.0
C559 C 0.3443 0.05971 0.35644 0.0
N560 N 0.41377 0.14288 0.32983 0.0
N561 N 0.36854 0.07875 0.36234 0.0
H562 H 0.31907 0.43894 0.32085 0.0
H563 H 0.46253 0.33635 0.37383 0.0
H564 H 0.37551 0.46147 0.39987 0.0
H565 H 0.42362 0.33233 0.28234 0.0
H566 H 0.42681 0.37797 0.38676 0.0
H567 H 0.35288 0.39539 0.30975 0.0
C568 C 0.33844 0.43465 0.33605 0.0
C569 C 0.34448 0.45408 0.36132 0.0
C570 C 0.42595 0.36789 0.36391 0.0
C571 C 0.38334 0.40406 0.34859 0.0
C572 C 0.44611 0.3439 0.3566 0.0
C573 C 0.44552 0.33046 0.32716 0.0
C574 C 0.40494 0.37845 0.34165 0.0
C575 C 0.4246 0.34198 0.30537 0.0
C576 C 0.35782 0.40982 0.32955 0.0
C577 C 0.36998 0.44722 0.38011 0.0
N578 N 0.40496 0.3652 0.31311 0.0
N579 N 0.38847 0.42277 0.37336 0.0
H580 H 0.02555 0.3926 0.37902 0.0
H581 H 0.19887 0.4069 0.31875 0.0
H582 H 0.075 0.31492 0.34114 0.0
H583 H 0.13583 0.48376 0.321 0.0
H584 H 0.15647 0.37233 0.33373 0.0
H585 H 0.06918 0.42604 0.36594 0.0
C586 C 0.04573 0.38249 0.36835 0.0
C587 C 0.04657 0.35093 0.36105 0.0
C588 C 0.15193 0.39674 0.33079 0.0
C589 C 0.09646 0.38909 0.34595 0.0
C590 C 0.17605 0.4164 0.32227 0.0
C591 C 0.17071 0.44811 0.31863 0.0
C592 C 0.12247 0.40905 0.3362 0.0
C593 C 0.14077 0.45936 0.32332 0.0
C594 C 0.07049 0.40164 0.36065 0.0
C595 C 0.0733 0.33916 0.34702 0.0
N596 N 0.11781 0.4399 0.33215 0.0
N597 N 0.0972 0.35823 0.33995 0.0
H598 H 0.12539 0.03995 0.40199 0.0
H599 H 0.07949 0.17188 0.28165 0.0
H600 H 0.18061 0.06284 0.32228 0.0
H601 H 0.04375 0.16906 0.3744 0.0
H602 H 0.11397 0.12883 0.29444 0.0
H603 H 0.09267 0.08483 0.39107 0.0
C604 C 0.13076 0.05445 0.38234 0.0
C605 C 0.15579 0.04752 0.36303 0.0
C606 C 0.09877 0.13784 0.31208 0.0
C607 C 0.11823 0.09857 0.35019 0.0
C608 C 0.07908 0.1623 0.30474 0.0
C609 C 0.05929 0.17443 0.32718 0.0
C610 C 0.09813 0.12501 0.34189 0.0
C611 C 0.05932 0.161 0.35668 0.0
C612 C 0.11209 0.08006 0.37614 0.0
C613 C 0.16162 0.06721 0.33787 0.0
N614 N 0.07834 0.13692 0.36316 0.0
N615 N 0.14286 0.09162 0.33206 0.0
H616 H 0.80404 0.91074 0.16898 0.0
H617 H 0.97907 0.89705 0.11439 0.0
H618 H 0.86753 0.98737 0.17097 0.0
H619 H 0.92843 0.81879 0.14972 0.0
H620 H 0.9353 0.93033 0.12695 0.0
H621 H 0.8468 0.87636 0.15491 0.0
C622 C 0.82699 0.92027 0.16646 0.0
C623 C 0.83236 0.95187 0.17104 0.0
C624 C 0.93377 0.90585 0.13184 0.0
C625 C 0.88107 0.91296 0.15466 0.0
C626 C 0.95862 0.88678 0.12444 0.0
C627 C 0.95747 0.85508 0.13111 0.0
C628 C 0.90735 0.8931 0.14556 0.0
C629 C 0.93039 0.84313 0.14434 0.0
C630 C 0.85133 0.90069 0.15853 0.0
C631 C 0.86253 0.96307 0.16782 0.0
N632 N 0.90636 0.86214 0.15108 0.0
N633 N 0.88572 0.94369 0.15954 0.0
H634 H 0.54005 0.83636 0.12405 0.0
H635 H 0.68146 0.94252 0.17576 0.0
H636 H 0.5777 0.83506 0.21614 0.0
H637 H 0.62503 0.96222 0.09599 0.0
H638 H 0.64811 0.89872 0.18788 0.0
H639 H 0.57525 0.87829 0.11064 0.0
C640 C 0.55608 0.8446 0.14133 0.0
C641 C 0.55647 0.83182 0.17108 0.0
C642 C 0.64308 0.9126 0.1677 0.0
C643 C 0.59647 0.88018 0.15603 0.0
C644 C 0.6622 0.93754 0.16062 0.0
C645 C 0.656 0.95622 0.13482 0.0
C646 C 0.61773 0.906 0.14869 0.0
C647 C 0.63065 0.94857 0.11615 0.0
C648 C 0.57594 0.86877 0.13374 0.0
C649 C 0.57689 0.84419 0.1929 0.0
N650 N 0.61246 0.92403 0.12344 0.0
N651 N 0.59628 0.86758 0.18488 0.0
H652 H 0.56176 0.68268 0.1811 0.0
H653 H 0.6707 0.54632 0.12296 0.0
H654 H 0.5402 0.62634 0.10175 0.0
H655 H 0.67438 0.58271 0.21547 0.0
H656 H 0.62679 0.57978 0.11188 0.0
H657 H 0.60708 0.65079 0.19083 0.0
C658 C 0.56662 0.66372 0.16556 0.0
C659 C 0.547 0.65715 0.14057 0.0
C660 C 0.63727 0.58058 0.13456 0.0
C661 C 0.59904 0.62054 0.1517 0.0
C662 C 0.66256 0.56172 0.14082 0.0
C663 C 0.6766 0.56226 0.17001 0.0
C664 C 0.62597 0.60027 0.1576 0.0
C665 C 0.66433 0.58183 0.19261 0.0
C666 C 0.59245 0.64543 0.17127 0.0
C667 C 0.55457 0.63221 0.12133 0.0
N668 N 0.63983 0.60026 0.18587 0.0
N669 N 0.58003 0.61484 0.12727 0.0
H670 H 0.98619 0.64098 0.1669 0.0
H671 H 0.81476 0.58017 0.14596 0.0
H672 H 0.90884 0.70327 0.16213 0.0
H673 H 0.89343 0.52991 0.11154 0.0
H674 H 0.84836 0.62437 0.15666 0.0
H675 H 0.95206 0.59825 0.15234 0.0
C676 C 0.96195 0.64558 0.16297 0.0
C677 C 0.95025 0.67563 0.16558 0.0
C678 C 0.85818 0.60376 0.1465 0.0
C679 C 0.91117 0.62701 0.14903 0.0
C680 C 0.83907 0.57854 0.14041 0.0
C681 C 0.85135 0.55131 0.12785 0.0
C682 C 0.88992 0.60153 0.14064 0.0
C683 C 0.88298 0.5505 0.12107 0.0
C684 C 0.94258 0.62129 0.15439 0.0
C685 C 0.91876 0.68045 0.16003 0.0
N686 N 0.90127 0.57511 0.12792 0.0
N687 N 0.90021 0.65633 0.1522 0.0
H688 H 0.56418 0.82266 0.67348 0.0
H689 H 0.66821 0.96549 0.6209 0.0
H690 H 0.54271 0.87945 0.59439 0.0
H691 H 0.67159 0.92683 0.71253 0.0
H692 H 0.6265 0.92987 0.60784 0.0
H693 H 0.60807 0.85612 0.68486 0.0
C694 C 0.5688 0.84201 0.65832 0.0
C695 C 0.54958 0.84829 0.63295 0.0
C696 C 0.63645 0.92904 0.63076 0.0
C697 C 0.5999 0.88671 0.64599 0.0
C698 C 0.66049 0.94914 0.63814 0.0
C699 C 0.67377 0.9486 0.66766 0.0
C700 C 0.62566 0.90814 0.65303 0.0
C701 C 0.66205 0.92777 0.68946 0.0
C702 C 0.59379 0.86119 0.66498 0.0
C703 C 0.55678 0.87377 0.61423 0.0
N704 N 0.63876 0.90818 0.68165 0.0
N705 N 0.58138 0.89203 0.62112 0.0
H706 H 0.68396 0.56293 0.67458 0.0
H707 H 0.54214 0.66528 0.61708 0.0
H708 H 0.6273 0.53772 0.59654 0.0
H709 H 0.57926 0.67081 0.70922 0.0
H710 H 0.57771 0.62302 0.60573 0.0
H711 H 0.65059 0.60728 0.68382 0.0
C712 C 0.66465 0.56681 0.65919 0.0
C713 C 0.65837 0.54638 0.63478 0.0
C714 C 0.5782 0.63358 0.62838 0.0
C715 C 0.62006 0.59729 0.64536 0.0
C716 C 0.55815 0.65792 0.63477 0.0
C717 C 0.55826 0.67193 0.66395 0.0
C718 C 0.59865 0.6233 0.65128 0.0
C719 C 0.57865 0.66069 0.68639 0.0
C720 C 0.64552 0.59208 0.66464 0.0
C721 C 0.63296 0.55272 0.61569 0.0
N722 N 0.59821 0.63715 0.67953 0.0
N723 N 0.61474 0.57763 0.62138 0.0
H724 H 0.86838 0.51746 0.67429 0.0
H725 H 0.92667 0.69034 0.65272 0.0
H726 H 0.80524 0.59428 0.6725 0.0
H727 H 0.97728 0.61166 0.61867 0.0
H728 H 0.88313 0.65626 0.66465 0.0
H729 H 0.91035 0.55239 0.6597 0.0
C730 C 0.86344 0.54177 0.67106 0.0
C731 C 0.83334 0.55304 0.67447 0.0
C732 C 0.90368 0.64655 0.65433 0.0
C733 C 0.88117 0.59309 0.65778 0.0
C734 C 0.92854 0.66595 0.64751 0.0
C735 C 0.9557 0.65383 0.63469 0.0
C736 C 0.90621 0.61471 0.64887 0.0
C737 C 0.95679 0.62205 0.6284 0.0
C738 C 0.88731 0.56161 0.66245 0.0
C739 C 0.82811 0.58467 0.66979 0.0
N740 N 0.93255 0.60354 0.63588 0.0
N741 N 0.85184 0.60367 0.66182 0.0
H742 H 0.82201 0.94455 0.67619 0.0
H743 H 0.95903 0.83586 0.61941 0.0
H744 H 0.87848 0.96681 0.59718 0.0
H745 H 0.92412 0.83499 0.71252 0.0
H746 H 0.92485 0.87916 0.60737 0.0
H747 H 0.85416 0.89948 0.68598 0.0
C748 C 0.84104 0.93988 0.6607 0.0
C749 C 0.84759 0.95968 0.63583 0.0
C750 C 0.92455 0.86938 0.63038 0.0
C751 C 0.88453 0.90785 0.64706 0.0
C752 C 0.94379 0.84446 0.63719 0.0
C753 C 0.9439 0.83147 0.66687 0.0
C754 C 0.90512 0.88125 0.65335 0.0
C755 C 0.92451 0.84425 0.68931 0.0
C756 C 0.85948 0.91418 0.66647 0.0
C757 C 0.87263 0.95231 0.61667 0.0
N758 N 0.90572 0.86831 0.68205 0.0
N759 N 0.89019 0.92694 0.62267 0.0
H760 H 0.17643 0.08057 0.77918 0.0
H761 H 0.04624 0.12576 0.90131 0.0
H762 H 0.17572 0.04656 0.87268 0.0
H763 H 0.06537 0.18006 0.81992 0.0
H764 H 0.09128 0.09374 0.88969 0.0
H765 H 0.1328 0.11441 0.79184 0.0
C766 C 0.1672 0.08043 0.8024 0.0
C767 C 0.18005 0.06134 0.82509 0.0
C768 C 0.08566 0.11278 0.8745 0.0
C769 C 0.13002 0.09931 0.83962 0.0
C770 C 0.05995 0.13104 0.8811 0.0
C771 C 0.05197 0.15566 0.86159 0.0
C772 C 0.10327 0.11889 0.84797 0.0
C773 C 0.07064 0.1614 0.83569 0.0
C774 C 0.14241 0.09973 0.80965 0.0
C775 C 0.16702 0.06158 0.85473 0.0
N776 N 0.09525 0.14303 0.82953 0.0
N777 N 0.14266 0.08019 0.86112 0.0
H778 H 0.3963 0.02508 0.88211 0.0
H779 H 0.40819 0.20217 0.83177 0.0
H780 H 0.31841 0.07601 0.84666 0.0
H781 H 0.48572 0.13999 0.82934 0.0
H782 H 0.37459 0.15865 0.84565 0.0
H783 H 0.42924 0.07002 0.87213 0.0
C784 C 0.38604 0.04582 0.87265 0.0
C785 C 0.35457 0.04674 0.86509 0.0
C786 C 0.39896 0.15459 0.84207 0.0
C787 C 0.39208 0.09811 0.85366 0.0
C788 C 0.4181 0.17937 0.83426 0.0
C789 C 0.4497 0.17457 0.82947 0.0
C790 C 0.41167 0.12497 0.84558 0.0
C791 C 0.4614 0.14455 0.83263 0.0
C792 C 0.40489 0.07134 0.86674 0.0
C793 C 0.34257 0.07421 0.85268 0.0
N794 N 0.44243 0.12089 0.84072 0.0
N795 N 0.36133 0.0988 0.84738 0.0
H796 H 0.47679 0.39685 0.8787 0.0
H797 H 0.30373 0.41155 0.81823 0.0
H798 H 0.42725 0.31878 0.84144 0.0
H799 H 0.36756 0.48791 0.81932 0.0
H800 H 0.34602 0.37671 0.8329 0.0
H801 H 0.43366 0.43027 0.86447 0.0
C802 C 0.45671 0.38665 0.86785 0.0
C803 C 0.45571 0.35495 0.86117 0.0
C804 C 0.35075 0.40107 0.82974 0.0
C805 C 0.40628 0.39317 0.84476 0.0
C806 C 0.32669 0.42089 0.82143 0.0
C807 C 0.33227 0.45257 0.81761 0.0
C808 C 0.38039 0.41318 0.83478 0.0
C809 C 0.3624 0.46357 0.82183 0.0
C810 C 0.43222 0.4058 0.8595 0.0
C811 C 0.42909 0.34311 0.84688 0.0
N812 N 0.38528 0.44396 0.8305 0.0
N813 N 0.40539 0.36222 0.83921 0.0
H814 H 0.1847 0.44309 0.82091 0.0
H815 H 0.04379 0.33845 0.8768 0.0
H816 H 0.12911 0.46528 0.90051 0.0
H817 H 0.08113 0.33432 0.78474 0.0
H818 H 0.07893 0.38091 0.88876 0.0
H819 H 0.1513 0.39895 0.81053 0.0
C820 C 0.1656 0.43861 0.83638 0.0
C821 C 0.15966 0.4581 0.86161 0.0
C822 C 0.07956 0.37064 0.86599 0.0
C823 C 0.1213 0.40742 0.84971 0.0
C824 C 0.05974 0.34618 0.85924 0.0
C825 C 0.06007 0.33246 0.82993 0.0
C826 C 0.09999 0.38139 0.8433 0.0
C827 C 0.08037 0.34419 0.80768 0.0
C828 C 0.14646 0.41344 0.83029 0.0
C829 C 0.13453 0.45099 0.88076 0.0
N830 N 0.09972 0.36787 0.81488 0.0
N831 N 0.11629 0.42621 0.87442 0.0
H832 H 0.62175 0.15562 0.33029 0.0
H833 H 0.64951 0.11958 0.15231 0.0
H834 H 0.57244 0.20168 0.25696 0.0
H835 H 0.70407 0.08023 0.22585 0.0
H836 H 0.62401 0.1529 0.18973 0.0
H837 H 0.65473 0.13109 0.29214 0.0
C838 C 0.61795 0.16076 0.30612 0.0
C839 C 0.59399 0.18053 0.29682 0.0
C840 C 0.64177 0.13722 0.19767 0.0
C841 C 0.63182 0.1522 0.25282 0.0
C842 C 0.65638 0.11812 0.17631 0.0
C843 C 0.6788 0.09676 0.18597 0.0
C844 C 0.6494 0.13488 0.22905 0.0
C845 C 0.68685 0.09619 0.21733 0.0
C846 C 0.63691 0.14674 0.28432 0.0
C847 C 0.59051 0.18653 0.26518 0.0
N848 N 0.67192 0.11471 0.23778 0.0
N849 N 0.609 0.17214 0.24428 0.0
H850 H 0.3513 0.61759 0.34285 0.0
H851 H 0.38223 0.6554 0.16576 0.0
H852 H 0.29889 0.57797 0.26789 0.0
H853 H 0.42991 0.70112 0.24037 0.0
H854 H 0.3486 0.63036 0.20307 0.0
H855 H 0.37715 0.65158 0.30621 0.0
C856 C 0.34499 0.61619 0.3187 0.0
C857 C 0.32307 0.59457 0.30841 0.0
C858 C 0.3662 0.64605 0.21135 0.0
C859 C 0.35285 0.63348 0.26625 0.0
C860 C 0.38552 0.66036 0.19004 0.0
C861 C 0.40923 0.68015 0.19997 0.0
C862 C 0.37069 0.65124 0.24298 0.0
C863 C 0.41204 0.68596 0.23169 0.0
C864 C 0.35979 0.63568 0.29778 0.0
C865 C 0.31573 0.5941 0.27688 0.0
N866 N 0.39323 0.67126 0.25212 0.0
N867 N 0.33082 0.61302 0.25689 0.0
H868 H 0.85568 0.38975 0.15541 0.0
H869 H 0.88304 0.34892 0.33276 0.0
H870 H 0.80521 0.43182 0.23024 0.0
H871 H 0.93374 0.3064 0.25839 0.0
H872 H 0.85072 0.37522 0.29517 0.0
H873 H 0.8807 0.35541 0.1922 0.0
C874 C 0.84966 0.39169 0.17959 0.0
C875 C 0.82846 0.41404 0.18975 0.0
C876 C 0.86871 0.35997 0.28698 0.0
C877 C 0.85728 0.37456 0.23211 0.0
C878 C 0.88726 0.34488 0.30846 0.0
C879 C 0.91146 0.32564 0.29873 0.0
C880 C 0.87439 0.35606 0.25539 0.0
C881 C 0.91546 0.32108 0.26694 0.0
C882 C 0.864 0.37197 0.20058 0.0
C883 C 0.82148 0.41512 0.22134 0.0
N884 N 0.89732 0.33647 0.24638 0.0
N885 N 0.83606 0.39585 0.24141 0.0
H886 H 0.15095 0.88633 0.33508 0.0
H887 H 0.12306 0.85212 0.1566 0.0
H888 H 0.20277 0.92983 0.26192 0.0
H889 H 0.07287 0.80666 0.22969 0.0
H890 H 0.15607 0.87652 0.19494 0.0
H891 H 0.12594 0.85324 0.29719 0.0
C892 C 0.15727 0.88883 0.31103 0.0
C893 C 0.17881 0.91124 0.30166 0.0
C894 C 0.13805 0.86101 0.20266 0.0
C895 C 0.14998 0.87323 0.258 0.0
C896 C 0.11911 0.84702 0.18076 0.0
C897 C 0.09484 0.82755 0.18994 0.0
C898 C 0.13266 0.85576 0.23412 0.0
C899 C 0.09118 0.82158 0.22155 0.0
C900 C 0.14294 0.86982 0.28939 0.0
C901 C 0.18622 0.91304 0.2702 0.0
N902 N 0.10966 0.83593 0.24253 0.0
N903 N 0.1716 0.8945 0.24947 0.0
H904 H 0.30656 0.93372 0.75897 0.0
H905 H 0.42934 0.79862 0.72938 0.0
H906 H 0.35331 0.88371 0.83142 0.0
H907 H 0.38853 0.85367 0.65698 0.0
H908 H 0.39604 0.82463 0.76684 0.0
H909 H 0.3309 0.89973 0.72092 0.0
C910 C 0.32164 0.91544 0.7669 0.0
C911 C 0.32818 0.91186 0.79841 0.0
C912 C 0.39422 0.8308 0.74269 0.0
C913 C 0.35615 0.87297 0.7551 0.0
C914 C 0.41317 0.81588 0.7213 0.0
C915 C 0.41205 0.82422 0.69004 0.0
C916 C 0.374 0.85419 0.73273 0.0
C917 C 0.39053 0.84673 0.6809 0.0
C918 C 0.33561 0.89608 0.74519 0.0
C919 C 0.34788 0.88767 0.80736 0.0
N920 N 0.37258 0.86107 0.70214 0.0
N921 N 0.36129 0.86934 0.78584 0.0
H922 H 0.62155 0.35189 0.83986 0.0
H923 H 0.65325 0.3823 0.66144 0.0
H924 H 0.57357 0.30429 0.76662 0.0
H925 H 0.70304 0.42792 0.73474 0.0
H926 H 0.62801 0.34955 0.69946 0.0
H927 H 0.65545 0.3755 0.80183 0.0
C928 C 0.61828 0.34616 0.81575 0.0
C929 C 0.59434 0.32633 0.8064 0.0
C930 C 0.64464 0.3665 0.70727 0.0
C931 C 0.6332 0.35361 0.76258 0.0
C932 C 0.65909 0.38531 0.68556 0.0
C933 C 0.68007 0.40824 0.69492 0.0
C934 C 0.65097 0.37066 0.73873 0.0
C935 C 0.68692 0.4107 0.72647 0.0
C936 C 0.63773 0.35968 0.79403 0.0
C937 C 0.59158 0.31953 0.77488 0.0
N938 N 0.67214 0.39237 0.74727 0.0
N939 N 0.61054 0.33344 0.75405 0.0
H940 H 0.12111 0.65905 0.66385 0.0
H941 H 0.14893 0.61992 0.8414 0.0
H942 H 0.06814 0.70001 0.73749 0.0
H943 H 0.20403 0.58292 0.76717 0.0
H944 H 0.12233 0.65302 0.80447 0.0
H945 H 0.15466 0.63502 0.70186 0.0
C946 C 0.11663 0.6632 0.68808 0.0
C947 C 0.09148 0.68133 0.69748 0.0
C948 C 0.14042 0.63789 0.79628 0.0
C949 C 0.12996 0.65352 0.74134 0.0
C950 C 0.15568 0.61891 0.81736 0.0
C951 C 0.17862 0.59828 0.80736 0.0
C952 C 0.14798 0.63622 0.76486 0.0
C953 C 0.18643 0.59828 0.77595 0.0
C954 C 0.13589 0.64944 0.70981 0.0
C955 C 0.08716 0.68614 0.7292 0.0
N956 N 0.17094 0.61672 0.75581 0.0
N957 N 0.10601 0.672 0.75003 0.0
H958 H 0.9299 0.20626 0.76679 0.0
H959 H 0.80232 0.07529 0.7376 0.0
H960 H 0.8899 0.15061 0.83918 0.0
H961 H 0.85193 0.12229 0.66508 0.0
H962 H 0.82826 0.10827 0.77557 0.0
H963 H 0.89547 0.18128 0.72963 0.0
C964 C 0.91369 0.18906 0.77495 0.0
C965 C 0.91309 0.1803 0.80612 0.0
C966 C 0.83324 0.11149 0.7513 0.0
C967 C 0.87368 0.15153 0.76371 0.0
C968 C 0.81836 0.09273 0.72963 0.0
C969 C 0.82522 0.09574 0.69814 0.0
C970 C 0.85499 0.13347 0.74137 0.0
C971 C 0.8462 0.11882 0.68914 0.0
C972 C 0.89408 0.17473 0.75371 0.0
C973 C 0.89147 0.15789 0.81534 0.0
N974 N 0.86044 0.13662 0.71062 0.0
N975 N 0.87281 0.14415 0.79422 0.0
H976 H 0.61815 0.11879 0.42467 0.0
H977 H 0.69 0.10803 0.59301 0.0
H978 H 0.56776 0.14688 0.50575 0.0
H979 H 0.71956 0.04895 0.51877 0.0
H980 H 0.64773 0.1269 0.56047 0.0
H981 H 0.6582 0.09692 0.45785 0.0
C982 C 0.61543 0.12018 0.44948 0.0
C983 C 0.58959 0.13464 0.46251 0.0
C984 C 0.6633 0.10961 0.55139 0.0
C985 C 0.63555 0.11011 0.50053 0.0
C986 C 0.68727 0.09876 0.56997 0.0
C987 C 0.70768 0.07639 0.55869 0.0
C988 C 0.66025 0.09852 0.52111 0.0
C989 C 0.70404 0.06604 0.52829 0.0
C990 C 0.63827 0.10766 0.46837 0.0
C991 C 0.58722 0.13577 0.49478 0.0
N992 N 0.68078 0.07724 0.51047 0.0
N993 N 0.6101 0.12394 0.51272 0.0
H994 H 0.33434 0.60643 0.4692 0.0
H995 H 0.48188 0.684 0.54748 0.0
H996 H 0.42713 0.58391 0.4411 0.0
H997 H 0.39204 0.72638 0.54625 0.0
H998 H 0.46197 0.64212 0.51471 0.0
H999 H 0.35495 0.64518 0.50438 0.0
C1000 C 0.35908 0.60941 0.47058 0.0
C1001 C 0.37903 0.59198 0.45197 0.0
C1002 C 0.44668 0.66065 0.52154 0.0
C1003 C 0.40275 0.63641 0.49236 0.0
C1004 C 0.45798 0.68441 0.54019 0.0
C1005 C 0.43858 0.70868 0.54904 0.0
C1006 C 0.41563 0.66099 0.51231 0.0
C1007 C 0.40776 0.70824 0.53939 0.0
C1008 C 0.37081 0.63169 0.49059 0.0
C1009 C 0.41091 0.59694 0.45487 0.0
N1010 N 0.39718 0.68469 0.52159 0.0
N1011 N 0.42182 0.61873 0.47471 0.0
H1012 H 0.9423 0.36454 0.50619 0.0
H1013 H 0.78192 0.45527 0.51438 0.0
H1014 H 0.88646 0.38414 0.42605 0.0
H1015 H 0.82132 0.4078 0.59241 0.0
H1016 H 0.82393 0.43568 0.48196 0.0
H1017 H 0.90226 0.3875 0.53884 0.0
C1018 C 0.9218 0.37395 0.49545 0.0
C1019 C 0.91761 0.37234 0.46341 0.0
C1020 C 0.82345 0.42967 0.50621 0.0
C1021 C 0.87191 0.39854 0.50047 0.0
C1022 C 0.79953 0.44078 0.52461 0.0
C1023 C 0.79854 0.4334 0.55605 0.0
C1024 C 0.84656 0.41119 0.51946 0.0
C1025 C 0.82174 0.4145 0.56834 0.0
C1026 C 0.8989 0.38685 0.51408 0.0
C1027 C 0.89052 0.38473 0.45069 0.0
N1028 N 0.84494 0.40413 0.55004 0.0
N1029 N 0.86871 0.39733 0.46925 0.0
H1030 H 0.14502 0.93857 0.51035 0.0
H1031 H 0.04546 0.78336 0.51682 0.0
H1032 H 0.12004 0.88706 0.42884 0.0
H1033 H 0.10156 0.81434 0.59286 0.0
H1034 H 0.06645 0.82536 0.48501 0.0
H1035 H 0.12214 0.89773 0.54225 0.0
C1036 C 0.13446 0.91885 0.49917 0.0
C1037 C 0.13448 0.91615 0.46692 0.0
C1038 C 0.07403 0.82305 0.50872 0.0
C1039 C 0.1083 0.86954 0.50317 0.0
C1040 C 0.0621 0.79916 0.52678 0.0
C1041 C 0.07136 0.79592 0.55758 0.0
C1042 C 0.09519 0.84393 0.52169 0.0
C1043 C 0.09315 0.81671 0.56946 0.0
C1044 C 0.12163 0.89548 0.51737 0.0
C1045 C 0.12066 0.88999 0.45364 0.0
N1046 N 0.10419 0.84001 0.55156 0.0
N1047 N 0.10806 0.86774 0.47181 0.0
H1048 H 0.22374 0.96002 0.97708 0.0
H1049 H 0.06233 0.8712 0.98438 0.0
H1050 H 0.18832 0.90671 0.90096 0.0
H1051 H 0.11703 0.89092 0.06525 0.0
H1052 H 0.10371 0.89253 0.9521 0.0
H1053 H 0.18042 0.94221 0.00891 0.0
C1054 C 0.2067 0.94467 0.96711 0.0
C1055 C 0.20913 0.93521 0.93632 0.0
C1056 C 0.10648 0.89229 0.97693 0.0
C1057 C 0.15962 0.91507 0.9722 0.0
C1058 C 0.08284 0.88038 0.99534 0.0
C1059 C 0.08635 0.87923 0.02748 0.0
C1060 C 0.1335 0.90355 0.99089 0.0
C1061 C 0.11349 0.8912 0.04052 0.0
C1062 C 0.18205 0.93458 0.98517 0.0
C1063 C 0.18668 0.91518 0.92439 0.0
N1064 N 0.13601 0.90291 0.02218 0.0
N1065 N 0.16269 0.9059 0.94231 0.0
H1066 H 0.57097 0.0905 0.06089 0.0
H1067 H 0.61069 0.22931 0.94654 0.0
H1068 H 0.6623 0.10774 0.02519 0.0
H1069 H 0.51836 0.194 0.95683 0.0
H1070 H 0.62984 0.18727 0.9792 0.0
H1071 H 0.5507 0.13023 0.026 0.0
C1072 C 0.58672 0.10245 0.04561 0.0
C1073 C 0.6184 0.09583 0.04606 0.0
C1074 C 0.60538 0.18867 0.97435 0.0
C1075 C 0.59547 0.1415 0.00652 0.0
C1076 C 0.59449 0.21274 0.95596 0.0
C1077 C 0.56297 0.21512 0.94946 0.0
C1078 C 0.58451 0.16698 0.98648 0.0
C1079 C 0.54285 0.1929 0.96163 0.0
C1080 C 0.57514 0.1251 0.02572 0.0
C1081 C 0.63773 0.11203 0.02569 0.0
N1082 N 0.55392 0.16979 0.97979 0.0
N1083 N 0.62601 0.13427 0.00699 0.0
H1084 H 0.32155 0.59731 0.90506 0.0
H1085 H 0.38983 0.61583 0.074 0.0
H1086 H 0.29036 0.54182 0.98149 0.0
H1087 H 0.44147 0.6417 0.99291 0.0
H1088 H 0.3511 0.59154 0.04098 0.0
H1089 H 0.36372 0.61708 0.93722 0.0
C1090 C 0.32385 0.58909 0.92856 0.0
C1091 C 0.30278 0.56774 0.94068 0.0
C1092 C 0.37103 0.6023 0.03042 0.0
C1093 C 0.35028 0.59069 0.9777 0.0
C1094 C 0.3931 0.61623 0.04923 0.0
C1095 C 0.41888 0.63083 0.03615 0.0
C1096 C 0.37443 0.60344 -0.00175 0.0
C1097 C 0.42201 0.63057 0.00393 0.0
C1098 C 0.3478 0.60039 0.94688 0.0
C1099 C 0.3062 0.55832 0.97141 0.0
N1100 N 0.39984 0.61738 0.98602 0.0
N1101 N 0.32943 0.57 0.98898 0.0
H1102 H 0.8384 0.39018 0.03364 0.0
H1103 H 0.98405 0.32471 0.94171 0.0
H1104 H 0.92949 0.42958 0.04256 0.0
H1105 H 0.89903 0.27452 0.95373 0.0
H1106 H 0.96347 0.36641 0.97409 0.0
H1107 H 0.85918 0.35088 -0.00064 0.0
C1108 C 0.86278 0.39072 0.02826 0.0
C1109 C 0.88226 0.41319 0.04114 0.0
C1110 C 0.94939 0.34621 0.96973 0.0
C1111 C 0.90624 0.36802 0.00182 0.0
C1112 C 0.96107 0.32254 0.95126 0.0
C1113 C 0.94326 0.29615 0.94544 0.0
C1114 C 0.91955 0.34354 0.98205 0.0
C1115 C 0.91365 0.2943 0.95817 0.0
C1116 C 0.87465 0.36813 0.00876 0.0
C1117 C 0.91366 0.41262 0.03327 0.0
N1118 N 0.90268 0.31772 0.97583 0.0
N1119 N 0.92471 0.39036 0.01409 0.0
H1120 H 0.28708 0.96112 0.47823 0.0
H1121 H 0.44419 0.86559 0.48468 0.0
H1122 H 0.31644 0.9019 0.40401 0.0
H1123 H 0.39186 0.88802 0.56629 0.0
H1124 H 0.4028 0.8877 0.45288 0.0
H1125 H 0.33034 0.94227 0.50964 0.0
C1126 C 0.30279 0.94425 0.46858 0.0
C1127 C 0.29873 0.93345 0.43841 0.0
C1128 C 0.40056 0.88789 0.47777 0.0
C1129 C 0.34815 0.91219 0.47373 0.0
C1130 C 0.42421 0.87554 0.49588 0.0
C1131 C 0.42132 0.87493 0.52809 0.0
C1132 C 0.37424 0.90017 0.49209 0.0
C1133 C 0.39487 0.88788 0.54148 0.0
C1134 C 0.32739 0.93358 0.48639 0.0
C1135 C 0.31944 0.91147 0.42688 0.0
N1136 N 0.37236 0.90005 0.52343 0.0
N1137 N 0.34347 0.9017 0.44449 0.0
H1138 H 0.60574 0.31567 0.40009 0.0
H1139 H 0.61758 0.38914 0.56781 0.0
H1140 H 0.54731 0.28704 0.47522 0.0
H1141 H 0.64855 0.43739 0.48636 0.0
H1142 H 0.59479 0.34933 0.53501 0.0
H1143 H 0.62526 0.35816 0.43203 0.0
C1144 C 0.59673 0.31867 0.4232 0.0
C1145 C 0.5744 0.29842 0.43492 0.0
C1146 C 0.60636 0.36874 0.5243 0.0
C1147 C 0.59723 0.34614 0.47181 0.0
C1148 C 0.61941 0.39146 0.54299 0.0
C1149 C 0.63498 0.41662 0.52977 0.0
C1150 C 0.60933 0.37086 0.49213 0.0
C1151 C 0.6366 0.41846 0.49749 0.0
C1152 C 0.60796 0.34276 0.44143 0.0
C1153 C 0.56437 0.30242 0.46537 0.0
N1154 N 0.6242 0.3957 0.47974 0.0
N1155 N 0.57591 0.3258 0.48284 0.0
H1156 H 0.183 0.59283 0.40464 0.0
H1157 H 0.11336 0.61503 0.57234 0.0
H1158 H 0.21197 0.53749 0.48206 0.0
H1159 H 0.06283 0.64014 0.49026 0.0
H1160 H 0.15201 0.58967 0.54016 0.0
H1161 H 0.14096 0.61387 0.43602 0.0
C1162 C 0.18024 0.58492 0.42819 0.0
C1163 C 0.20064 0.56323 0.44082 0.0
C1164 C 0.13234 0.60051 0.5292 0.0
C1165 C 0.1533 0.58762 0.47694 0.0
C1166 C 0.11032 0.61506 0.54752 0.0
C1167 C 0.08488 0.62974 0.53391 0.0
C1168 C 0.12922 0.60111 0.49699 0.0
C1169 C 0.08203 0.62898 0.50167 0.0
C1170 C 0.15636 0.59694 0.44606 0.0
C1171 C 0.19664 0.55422 0.4716 0.0
N1172 N 0.10415 0.61518 0.48424 0.0
N1173 N 0.17351 0.5666 0.48873 0.0
H1174 H 0.90122 0.18998 0.40234 0.0
H1175 H 0.88773 0.11878 0.5707 0.0
H1176 H 0.95969 0.21926 0.47726 0.0
H1177 H 0.85993 0.06824 0.4895 0.0
H1178 H 0.91059 0.1584 0.53763 0.0
H1179 H 0.88174 0.14775 0.43466 0.0
C1180 C 0.91025 0.18717 0.42548 0.0
C1181 C 0.93258 0.20752 0.43703 0.0
C1182 C 0.8997 0.13852 0.52706 0.0
C1183 C 0.90976 0.16016 0.47435 0.0
C1184 C 0.88661 0.11594 0.54589 0.0
C1185 C 0.87193 0.09019 0.53279 0.0
C1186 C 0.89762 0.13565 0.49488 0.0
C1187 C 0.87118 0.08765 0.50053 0.0
C1188 C 0.89904 0.16324 0.44393 0.0
C1189 C 0.94263 0.20378 0.46753 0.0
N1190 N 0.88357 0.11029 0.48263 0.0
N1191 N 0.93108 0.18058 0.48523 0.0
H1192 H 0.77593 0.10733 0.04154 0.0
H1193 H 0.92973 0.07089 0.94684 0.0
H1194 H 0.82266 0.01979 0.04795 0.0
H1195 H 0.89387 0.16267 0.96167 0.0
H1196 H 0.88964 0.05042 0.9812 0.0
H1197 H 0.8175 0.12676 0.0088 0.0
C1198 C 0.79491 0.09216 0.03577 0.0
C1199 C 0.7959 0.06191 0.04711 0.0
C1200 C 0.89074 0.07504 0.977 0.0
C1201 C 0.84369 0.08393 0.00999 0.0
C1202 C 0.91358 0.08673 0.95741 0.0
C1203 C 0.91515 0.11854 0.95129 0.0
C1204 C 0.86918 0.09529 0.99023 0.0
C1205 C 0.89363 0.138 0.96566 0.0
C1206 C 0.81875 0.10328 0.01732 0.0
C1207 C 0.8212 0.04328 0.03951 0.0
N1208 N 0.87148 0.12605 0.98425 0.0
N1209 N 0.84412 0.05454 0.02125 0.0
H1210 H 0.38861 0.88585 0.92698 0.0
H1211 H 0.39872 0.81364 0.09519 0.0
H1212 H 0.35983 0.93605 0.00797 0.0
H1213 H 0.45885 0.78499 0.02148 0.0
H1214 H 0.37962 0.85577 0.06254 0.0
H1215 H 0.41041 0.84578 0.96023 0.0
C1216 C 0.38703 0.88851 0.95179 0.0
C1217 C 0.37242 0.91431 0.96478 0.0
C1218 C 0.39718 0.84042 0.05361 0.0
C1219 C 0.39688 0.86835 0.00285 0.0
C1220 C 0.40816 0.81654 0.07223 0.0
C1221 C 0.43089 0.79645 0.06115 0.0
C1222 C 0.40853 0.84369 0.02346 0.0
C1223 C 0.44148 0.80028 0.03086 0.0
C1224 C 0.39952 0.86567 0.97071 0.0
C1225 C 0.37106 0.91661 0.99703 0.0
N1226 N 0.43015 0.82344 0.01298 0.0
N1227 N 0.38287 0.89374 0.01501 0.0
H1228 H 0.68953 0.4068 0.0921 0.0
H1229 H 0.61028 0.39692 0.92806 0.0
H1230 H 0.71278 0.46988 0.01878 0.0
H1231 H 0.56215 0.36964 0.0108 0.0
H1232 H 0.65089 0.41988 0.95983 0.0
H1233 H 0.64547 0.38841 0.06166 0.0
C1234 C 0.68505 0.41701 0.06972 0.0
C1235 C 0.7043 0.44024 0.05804 0.0
C1236 C 0.63129 0.40914 0.97102 0.0
C1237 C 0.65483 0.41875 0.02285 0.0
C1238 C 0.60817 0.396 0.95295 0.0
C1239 C 0.58285 0.38142 0.96689 0.0
C1240 C 0.62945 0.40706 0.00326 0.0
C1241 C 0.5812 0.38088 -0.0008 0.0
C1242 C 0.66006 0.40647 0.05237 0.0
C1243 C 0.6983 0.45198 0.02853 0.0
N1244 N 0.60445 0.39318 0.01636 0.0
N1245 N 0.67415 0.44099 0.01181 0.0
H1246 H 0.02015 0.69392 0.03951 0.0
H1247 H 0.16784 0.60706 0.97216 0.0
H1248 H 0.1131 0.72731 0.0506 0.0
H1249 H 0.07678 0.59455 0.93374 0.0
H1250 H 0.14711 0.64546 0.00761 0.0
H1251 H 0.03962 0.65199 0.00657 0.0
C1252 C 0.04464 0.69235 0.03486 0.0
C1253 C 0.06512 0.7141 0.04725 0.0
C1254 C 0.13165 0.63423 0.99149 0.0
C1255 C 0.0875 0.66632 0.0104 0.0
C1256 C 0.14342 0.61217 0.97131 0.0
C1257 C 0.12406 0.5977 0.94972 0.0
C1258 C 0.1002 0.64171 0.9904 0.0
C1259 C 0.09258 0.60526 0.94986 0.0
C1260 C 0.05571 0.66856 0.01615 0.0
C1261 C 0.09664 0.71113 0.041 0.0
N1262 N 0.0816 0.6268 0.96988 0.0
N1263 N 0.10691 0.68761 0.02305 0.0
loop_
_geom_bond_atom_site_label_1
_geom_bond_atom_site_label_2
_geom_bond_distance
_geom_bond_site_symmetry_2
_ccdc_geom_bond_type
Co0 O3 1.970 . S
Co0 N17 1.989 . S
Co0 O25 1.967 . S
Co0 O32 1.920 . S
Co1 O4 1.966 . S
Co1 N10 2.022 . S
Co1 N18 1.993 . S
Co1 O26 1.941 . S
C2 O3 1.258 . S
C2 O4 1.263 . S
O3 Co0 1.970 . S
O3 C2 1.258 . S
O4 Co1 1.966 . S
O4 C2 1.263 . S
C5 O6 1.235 . S
C5 O32 1.289 . S
O6 C5 1.235 . S
C7 C9 1.400 . S
C7 N10 1.351 . S
C7 C12 1.501 . S
C8 C9 1.387 . S
C8 N11 1.341 . S
C9 C7 1.400 . S
C9 C8 1.387 . S
N10 Co1 2.022 . S
N10 C7 1.351 . S
N10 N11 1.365 . S
N11 C8 1.341 . S
N11 N10 1.365 . S
N11 H31 0.862 . S
C12 C7 1.501 . S
C12 H13 0.961 . S
C12 H14 0.961 . S
C12 H15 0.960 . S
H13 C12 0.961 . S
H14 C12 0.961 . S
H15 C12 0.960 . S
C16 N17 1.342 . S
C16 C20 1.401 . S
C16 C21 1.499 . S
N17 Co0 1.989 . S
N17 C16 1.342 . S
N17 N18 1.388 . S
N18 Co1 1.993 . S
N18 N17 1.388 . S
N18 C19 1.346 . S
C19 N18 1.346 . S
C19 C20 1.396 . S
C19 C29 1.510 . S
C20 C16 1.401 . S
C20 C19 1.396 . S
C21 C16 1.499 . S
C21 H22 0.959 . S
C21 H23 0.960 . S
C21 H24 0.961 . S
H22 C21 0.959 . S
H23 C21 0.960 . S
H24 C21 0.961 . S
O25 Co0 1.967 . S
O25 C33 1.258 . S
O26 Co1 1.941 . S
O26 C33 1.266 . S
H27 C29 0.959 . S
H28 C29 0.961 . S
C29 C19 1.510 . S
C29 H27 0.959 . S
C29 H28 0.961 . S
C29 H30 0.960 . S
H30 C29 0.960 . S
H31 N11 0.862 . S
O32 Co0 1.920 . S
O32 C5 1.289 . S
C33 O25 1.258 . S
C33 O26 1.266 . S
Co34 O37 1.970 . S
Co34 N51 1.989 . S
Co34 O59 1.967 . S
Co34 O66 1.920 . S
Co35 O38 1.966 . S
Co35 N44 2.022 . S
Co35 N52 1.993 . S
Co35 O60 1.941 . S
C36 O37 1.258 . S
C36 O38 1.263 . S
O37 Co34 1.970 . S
O37 C36 1.258 . S
O38 Co35 1.966 . S
O38 C36 1.263 . S
C39 O40 1.235 . S
C39 O66 1.289 . S
O40 C39 1.235 . S
C41 C43 1.400 . S
C41 N44 1.351 . S
C41 C46 1.501 . S
C42 C43 1.387 . S
C42 N45 1.341 . S
C43 C41 1.400 . S
C43 C42 1.387 . S
N44 Co35 2.022 . S
N44 C41 1.351 . S
N44 N45 1.365 . S
N45 C42 1.341 . S
N45 N44 1.365 . S
N45 H65 0.862 . S
C46 C41 1.501 . S
C46 H47 0.961 . S
C46 H48 0.961 . S
C46 H49 0.960 . S
H47 C46 0.961 . S
H48 C46 0.961 . S
H49 C46 0.960 . S
C50 N51 1.342 . S
C50 C54 1.401 . S
C50 C55 1.499 . S
N51 Co34 1.989 . S
N51 C50 1.342 . S
N51 N52 1.388 . S
N52 Co35 1.993 . S
N52 N51 1.388 . S
N52 C53 1.346 . S
C53 N52 1.346 . S
C53 C54 1.396 . S
C53 C63 1.510 . S
C54 C50 1.401 . S
C54 C53 1.396 . S
C55 C50 1.499 . S
C55 H56 0.959 . S
C55 H57 0.960 . S
C55 H58 0.961 . S
H56 C55 0.959 . S
H57 C55 0.960 . S
H58 C55 0.961 . S
O59 Co34 1.967 . S
O59 C67 1.258 . S
O60 Co35 1.941 . S
O60 C67 1.266 . S
H61 C63 0.959 . S
H62 C63 0.961 . S
C63 C53 1.510 . S
C63 H61 0.959 . S
C63 H62 0.961 . S
C63 H64 0.960 . S
H64 C63 0.960 . S
H65 N45 0.862 . S
O66 Co34 1.920 . S
O66 C39 1.289 . S
C67 O59 1.258 . S
C67 O60 1.266 . S
Co68 O71 1.970 . S
Co68 N85 1.989 . S
Co68 O93 1.967 . S
Co68 O100 1.920 . S
Co69 O72 1.966 1_655 S
Co69 N78 2.022 1_655 S
Co69 N86 1.993 . S
Co69 O94 1.941 . S
C70 O71 1.258 1_455 S
C70 O72 1.263 . S
O71 Co68 1.970 . S
O71 C70 1.258 1_655 S
O72 Co69 1.966 1_455 S
O72 C70 1.263 . S
C73 O74 1.235 . S
C73 O100 1.289 . S
O74 C73 1.235 . S
C75 C77 1.400 . S
C75 N78 1.351 . S
C75 C80 1.501 . S
C76 C77 1.387 . S
C76 N79 1.341 1_455 S
C77 C75 1.400 . S
C77 C76 1.387 . S
N78 Co69 2.022 1_455 S
N78 C75 1.351 . S
N78 N79 1.365 1_455 S
N79 C76 1.341 1_655 S
N79 N78 1.365 1_655 S
N79 H99 0.862 . S
C80 C75 1.501 . S
C80 H81 0.961 . S
C80 H82 0.961 . S
C80 H83 0.960 . S
H81 C80 0.961 . S
H82 C80 0.961 . S
H83 C80 0.960 . S
C84 N85 1.342 . S
C84 C88 1.401 . S
C84 C89 1.499 . S
N85 Co68 1.989 . S
N85 C84 1.342 . S
N85 N86 1.388 . S
N86 Co69 1.993 . S
N86 N85 1.388 . S
N86 C87 1.346 . S
C87 N86 1.346 . S
C87 C88 1.396 . S
C87 C97 1.510 . S
C88 C84 1.401 . S
C88 C87 1.396 . S
C89 C84 1.499 . S
C89 H90 0.959 . S
C89 H91 0.960 . S
C89 H92 0.961 . S
H90 C89 0.959 . S
H91 C89 0.960 . S
H92 C89 0.961 . S
O93 Co68 1.967 . S
O93 C101 1.258 . S
O94 Co69 1.941 . S
O94 C101 1.266 . S
H95 C97 0.959 . S
H96 C97 0.961 . S
C97 C87 1.510 . S
C97 H95 0.959 . S
C97 H96 0.961 . S
C97 H98 0.960 . S
H98 C97 0.960 . S
H99 N79 0.862 . S
O100 Co68 1.920 . S
O100 C73 1.289 . S
C101 O93 1.258 . S
C101 O94 1.266 . S
Co102 O105 1.970 . S
Co102 N119 1.989 . S
Co102 O127 1.967 . S
Co102 O134 1.920 . S
Co103 O106 1.966 1_565 S
Co103 N112 2.022 1_565 S
Co103 N120 1.993 . S
Co103 O128 1.941 . S
C104 O105 1.258 1_545 S
C104 O106 1.263 . S
O105 Co102 1.970 . S
O105 C104 1.258 1_565 S
O106 Co103 1.966 1_545 S
O106 C104 1.263 . S
C107 O108 1.235 . S
C107 O134 1.289 . S
O108 C107 1.235 . S
C109 C111 1.400 . S
C109 N112 1.351 . S
C109 C114 1.501 . S
C110 C111 1.387 . S
C110 N113 1.341 1_545 S
C111 C109 1.400 . S
C111 C110 1.387 . S
N112 Co103 2.022 1_545 S
N112 C109 1.351 . S
N112 N113 1.365 1_545 S
N113 C110 1.341 1_565 S
N113 N112 1.365 1_565 S
N113 H133 0.862 . S
C114 C109 1.501 . S
C114 H115 0.961 . S
C114 H116 0.961 . S
C114 H117 0.960 . S
H115 C114 0.961 . S
H116 C114 0.961 . S
H117 C114 0.960 . S
C118 N119 1.342 . S
C118 C122 1.401 . S
C118 C123 1.499 . S
N119 Co102 1.989 . S
N119 C118 1.342 . S
N119 N120 1.388 . S
N120 Co103 1.993 . S
N120 N119 1.388 . S
N120 C121 1.346 . S
C121 N120 1.346 . S
C121 C122 1.396 . S
C121 C131 1.510 . S
C122 C118 1.401 . S
C122 C121 1.396 . S
C123 C118 1.499 . S
C123 H124 0.959 . S
C123 H125 0.960 . S
C123 H126 0.961 . S
H124 C123 0.959 . S
H125 C123 0.960 . S
H126 C123 0.961 . S
O127 Co102 1.967 . S
O127 C135 1.258 . S
O128 Co103 1.941 . S
O128 C135 1.266 . S
H129 C131 0.959 . S
H130 C131 0.961 . S
C131 C121 1.510 . S
C131 H129 0.959 . S
C131 H130 0.961 . S
C131 H132 0.960 . S
H132 C131 0.960 . S
H133 N113 0.862 . S
O134 Co102 1.920 . S
O134 C107 1.289 . S
C135 O127 1.258 . S
C135 O128 1.266 . S
Co136 O139 1.970 . S
Co136 N153 1.989 . S
Co136 O161 1.967 . S
Co136 O168 1.920 . S
Co137 O140 1.966 1_455 S
Co137 N146 2.022 1_455 S
Co137 N154 1.993 . S
Co137 O162 1.941 . S
C138 O139 1.258 1_655 S
C138 O140 1.263 . S
O139 Co136 1.970 . S
O139 C138 1.258 1_455 S
O140 Co137 1.966 1_655 S
O140 C138 1.263 . S
C141 O142 1.235 . S
C141 O168 1.289 . S
O142 C141 1.235 . S
C143 C145 1.400 . S
C143 N146 1.351 . S
C143 C148 1.501 . S
C144 C145 1.387 . S
C144 N147 1.341 1_655 S
C145 C143 1.400 . S
C145 C144 1.387 . S
N146 Co137 2.022 1_655 S
N146 C143 1.351 . S
N146 N147 1.365 1_655 S
N147 C144 1.341 1_455 S
N147 N146 1.365 1_455 S
N147 H167 0.862 . S
C148 C143 1.501 . S
C148 H149 0.961 . S
C148 H150 0.961 . S
C148 H151 0.960 . S
H149 C148 0.961 . S
H150 C148 0.961 . S
H151 C148 0.960 . S
C152 N153 1.342 . S
C152 C156 1.401 . S
C152 C157 1.499 . S
N153 Co136 1.989 . S
N153 C152 1.342 . S
N153 N154 1.388 . S
N154 Co137 1.993 . S
N154 N153 1.388 . S
N154 C155 1.346 . S
C155 N154 1.346 . S
C155 C156 1.396 . S
C155 C165 1.510 . S
C156 C152 1.401 . S
C156 C155 1.396 . S
C157 C152 1.499 . S
C157 H158 0.959 . S
C157 H159 0.960 . S
C157 H160 0.961 . S
H158 C157 0.959 . S
H159 C157 0.960 . S
H160 C157 0.961 . S
O161 Co136 1.967 . S
O161 C169 1.258 . S
O162 Co137 1.941 . S
O162 C169 1.266 . S
H163 C165 0.959 . S
H164 C165 0.961 . S
C165 C155 1.510 . S
C165 H163 0.959 . S
C165 H164 0.961 . S
C165 H166 0.960 . S
H166 C165 0.960 . S
H167 N147 0.862 . S
O168 Co136 1.920 . S
O168 C141 1.289 . S
C169 O161 1.258 . S
C169 O162 1.266 . S
Co170 O173 1.970 . S
Co170 N187 1.989 . S
Co170 O195 1.967 . S
Co170 O202 1.920 . S
Co171 O174 1.966 1_545 S
Co171 N180 2.022 1_545 S
Co171 N188 1.993 . S
Co171 O196 1.941 . S
C172 O173 1.258 1_565 S
C172 O174 1.263 . S
O173 Co170 1.970 . S
O173 C172 1.258 1_545 S
O174 Co171 1.966 1_565 S
O174 C172 1.263 . S
C175 O176 1.235 . S
C175 O202 1.289 . S
O176 C175 1.235 . S
C177 C179 1.400 . S
C177 N180 1.351 . S
C177 C182 1.501 . S
C178 C179 1.387 . S
C178 N181 1.341 1_565 S
C179 C177 1.400 . S
C179 C178 1.387 . S
N180 Co171 2.022 1_565 S
N180 C177 1.351 . S
N180 N181 1.365 1_565 S
N181 C178 1.341 1_545 S
N181 N180 1.365 1_545 S
N181 H201 0.862 . S
C182 C177 1.501 . S
C182 H183 0.961 . S
C182 H184 0.961 . S
C182 H185 0.960 . S
H183 C182 0.961 . S
H184 C182 0.961 . S
H185 C182 0.960 . S
C186 N187 1.342 . S
C186 C190 1.401 . S
C186 C191 1.499 . S
N187 Co170 1.989 . S
N187 C186 1.342 . S
N187 N188 1.388 . S
N188 Co171 1.993 . S
N188 N187 1.388 . S
N188 C189 1.346 . S
C189 N188 1.346 . S
C189 C190 1.396 . S
C189 C199 1.510 . S
C190 C186 1.401 . S
C190 C189 1.396 . S
C191 C186 1.499 . S
C191 H192 0.959 . S
C191 H193 0.960 . S
C191 H194 0.961 . S
H192 C191 0.959 . S
H193 C191 0.960 . S
H194 C191 0.961 . S
O195 Co170 1.967 . S
O195 C203 1.258 . S
O196 Co171 1.941 . S
O196 C203 1.266 . S
H197 C199 0.959 . S
H198 C199 0.961 . S
C199 C189 1.510 . S
C199 H197 0.959 . S
C199 H198 0.961 . S
C199 H200 0.960 . S
H200 C199 0.960 . S
H201 N181 0.862 . S
O202 Co170 1.920 . S
O202 C175 1.289 . S
C203 O195 1.258 . S
C203 O196 1.266 . S
Co204 O207 1.970 . S
Co204 N221 1.989 . S
Co204 O229 1.967 . S
Co204 O236 1.920 . S
Co205 O208 1.966 . S
Co205 N214 2.022 . S
Co205 N222 1.993 . S
Co205 O230 1.941 . S
C206 O207 1.258 . S
C206 O208 1.263 . S
O207 Co204 1.970 . S
O207 C206 1.258 . S
O208 Co205 1.966 . S
O208 C206 1.263 . S
C209 O210 1.235 . S
C209 O236 1.289 . S
O210 C209 1.235 . S
C211 C213 1.400 . S
C211 N214 1.351 . S
C211 C216 1.501 . S
C212 C213 1.387 . S
C212 N215 1.341 . S
C213 C211 1.400 . S
C213 C212 1.387 . S
N214 Co205 2.022 . S
N214 C211 1.351 . S
N214 N215 1.365 . S
N215 C212 1.341 . S
N215 N214 1.365 . S
N215 H235 0.862 . S
C216 C211 1.501 . S
C216 H217 0.961 . S
C216 H218 0.961 . S
C216 H219 0.960 . S
H217 C216 0.961 . S
H218 C216 0.961 . S
H219 C216 0.960 . S
C220 N221 1.342 . S
C220 C224 1.401 . S
C220 C225 1.499 . S
N221 Co204 1.989 . S
N221 C220 1.342 . S
N221 N222 1.388 . S
N222 Co205 1.993 . S
N222 N221 1.388 . S
N222 C223 1.346 . S
C223 N222 1.346 . S
C223 C224 1.396 . S
C223 C233 1.510 . S
C224 C220 1.401 . S
C224 C223 1.396 . S
C225 C220 1.499 . S
C225 H226 0.959 . S
C225 H227 0.960 . S
C225 H228 0.961 . S
H226 C225 0.959 . S
H227 C225 0.960 . S
H228 C225 0.961 . S
O229 Co204 1.967 . S
O229 C237 1.258 . S
O230 Co205 1.941 . S
O230 C237 1.266 . S
H231 C233 0.959 . S
H232 C233 0.961 . S
C233 C223 1.510 . S
C233 H231 0.959 . S
C233 H232 0.961 . S
C233 H234 0.960 . S
H234 C233 0.960 . S
H235 N215 0.862 . S
O236 Co204 1.920 . S
O236 C209 1.289 . S
C237 O229 1.258 . S
C237 O230 1.266 . S
Co238 O241 1.970 . S
Co238 N255 1.989 . S
Co238 O263 1.967 . S
Co238 O270 1.920 . S
Co239 O242 1.966 . S
Co239 N248 2.022 . S
Co239 N256 1.993 . S
Co239 O264 1.941 . S
C240 O241 1.258 . S
C240 O242 1.263 . S
O241 Co238 1.970 . S
O241 C240 1.258 . S
O242 Co239 1.966 . S
O242 C240 1.263 . S
C243 O244 1.235 . S
C243 O270 1.289 . S
O244 C243 1.235 . S
C245 C247 1.400 . S
C245 N248 1.351 . S
C245 C250 1.501 . S
C246 C247 1.387 . S
C246 N249 1.341 . S
C247 C245 1.400 . S
C247 C246 1.387 . S
N248 Co239 2.022 . S
N248 C245 1.351 . S
N248 N249 1.365 . S
N249 C246 1.341 . S
N249 N248 1.365 . S
N249 H269 0.862 . S
C250 C245 1.501 . S
C250 H251 0.961 . S
C250 H252 0.961 . S
C250 H253 0.960 . S
H251 C250 0.961 . S
H252 C250 0.961 . S
H253 C250 0.960 . S
C254 N255 1.342 . S
C254 C258 1.401 . S
C254 C259 1.499 . S
N255 Co238 1.989 . S
N255 C254 1.342 . S
N255 N256 1.388 . S
N256 Co239 1.993 . S
N256 N255 1.388 . S
N256 C257 1.346 . S
C257 N256 1.346 . S
C257 C258 1.396 . S
C257 C267 1.510 . S
C258 C254 1.401 . S
C258 C257 1.396 . S
C259 C254 1.499 . S
C259 H260 0.959 . S
C259 H261 0.960 . S
C259 H262 0.961 . S
H260 C259 0.959 . S
H261 C259 0.960 . S
H262 C259 0.961 . S
O263 Co238 1.967 . S
O263 C271 1.258 . S
O264 Co239 1.941 . S
O264 C271 1.266 . S
H265 C267 0.959 . S
H266 C267 0.961 . S
C267 C257 1.510 . S
C267 H265 0.959 . S
C267 H266 0.961 . S
C267 H268 0.960 . S
H268 C267 0.960 . S
H269 N249 0.862 . S
O270 Co238 1.920 . S
O270 C243 1.289 . S
C271 O263 1.258 . S
C271 O264 1.266 . S
Co272 O275 1.970 . S
Co272 N289 1.989 . S
Co272 O297 1.967 . S
Co272 O304 1.920 . S
Co273 O276 1.966 . S
Co273 N282 2.022 . S
Co273 N290 1.993 . S
Co273 O298 1.941 . S
C274 O275 1.258 . S
C274 O276 1.263 . S
O275 Co272 1.970 . S
O275 C274 1.258 . S
O276 Co273 1.966 . S
O276 C274 1.263 . S
C277 O278 1.235 . S
C277 O304 1.289 . S
O278 C277 1.235 . S
C279 C281 1.400 . S
C279 N282 1.351 . S
C279 C284 1.501 . S
C280 C281 1.387 . S
C280 N283 1.341 . S
C281 C279 1.400 . S
C281 C280 1.387 . S
N282 Co273 2.022 . S
N282 C279 1.351 . S
N282 N283 1.365 . S
N283 C280 1.341 . S
N283 N282 1.365 . S
N283 H303 0.862 . S
C284 C279 1.501 . S
C284 H285 0.961 . S
C284 H286 0.961 . S
C284 H287 0.960 . S
H285 C284 0.961 . S
H286 C284 0.961 . S
H287 C284 0.960 . S
C288 N289 1.342 . S
C288 C292 1.401 . S
C288 C293 1.499 . S
N289 Co272 1.989 . S
N289 C288 1.342 . S
N289 N290 1.388 . S
N290 Co273 1.993 . S
N290 N289 1.388 . S
N290 C291 1.346 . S
C291 N290 1.346 . S
C291 C292 1.396 . S
C291 C301 1.510 . S
C292 C288 1.401 . S
C292 C291 1.396 . S
C293 C288 1.499 . S
C293 H294 0.959 . S
C293 H295 0.960 . S
C293 H296 0.961 . S
H294 C293 0.959 . S
H295 C293 0.960 . S
H296 C293 0.961 . S
O297 Co272 1.967 . S
O297 C305 1.258 . S
O298 Co273 1.941 . S
O298 C305 1.266 . S
H299 C301 0.959 . S
H300 C301 0.961 . S
C301 C291 1.510 . S
C301 H299 0.959 . S
C301 H300 0.961 . S
C301 H302 0.960 . S
H302 C301 0.960 . S
H303 N283 0.862 . S
O304 Co272 1.920 . S
O304 C277 1.289 . S
C305 O297 1.258 . S
C305 O298 1.266 . S
Co306 O309 1.970 . S
Co306 N323 1.989 . S
Co306 O331 1.967 . S
Co306 O338 1.920 . S
Co307 O310 1.966 . S
Co307 N316 2.022 . S
Co307 N324 1.993 . S
Co307 O332 1.941 . S
C308 O309 1.258 . S
C308 O310 1.263 . S
O309 Co306 1.970 . S
O309 C308 1.258 . S
O310 Co307 1.966 . S
O310 C308 1.263 . S
C311 O312 1.235 . S
C311 O338 1.289 . S
O312 C311 1.235 . S
C313 C315 1.400 . S
C313 N316 1.351 . S
C313 C318 1.501 . S
C314 C315 1.387 . S
C314 N317 1.341 . S
C315 C313 1.400 . S
C315 C314 1.387 . S
N316 Co307 2.022 . S
N316 C313 1.351 . S
N316 N317 1.365 . S
N317 C314 1.341 . S
N317 N316 1.365 . S
N317 H337 0.862 . S
C318 C313 1.501 . S
C318 H319 0.961 . S
C318 H320 0.961 . S
C318 H321 0.960 . S
H319 C318 0.961 . S
H320 C318 0.961 . S
H321 C318 0.960 . S
C322 N323 1.342 . S
C322 C326 1.401 . S
C322 C327 1.499 . S
N323 Co306 1.989 . S
N323 C322 1.342 . S
N323 N324 1.388 . S
N324 Co307 1.993 . S
N324 N323 1.388 . S
N324 C325 1.346 . S
C325 N324 1.346 . S
C325 C326 1.396 . S
C325 C335 1.510 . S
C326 C322 1.401 . S
C326 C325 1.396 . S
C327 C322 1.499 . S
C327 H328 0.959 . S
C327 H329 0.960 . S
C327 H330 0.961 . S
H328 C327 0.959 . S
H329 C327 0.960 . S
H330 C327 0.961 . S
O331 Co306 1.967 . S
O331 C339 1.258 . S
O332 Co307 1.941 . S
O332 C339 1.266 . S
H333 C335 0.959 . S
H334 C335 0.961 . S
C335 C325 1.510 . S
C335 H333 0.959 . S
C335 H334 0.961 . S
C335 H336 0.960 . S
H336 C335 0.960 . S
H337 N317 0.862 . S
O338 Co306 1.920 . S
O338 C311 1.289 . S
C339 O331 1.258 . S
C339 O332 1.266 . S
Co340 O343 1.970 . S
Co340 N357 1.989 . S
Co340 O365 1.967 . S
Co340 O372 1.920 . S
Co341 O344 1.966 1_455 S
Co341 N350 2.022 1_455 S
Co341 N358 1.993 . S
Co341 O366 1.941 . S
C342 O343 1.258 1_655 S
C342 O344 1.263 . S
O343 Co340 1.970 . S
O343 C342 1.258 1_455 S
O344 Co341 1.966 1_655 S
O344 C342 1.263 . S
C345 O346 1.235 . S
C345 O372 1.289 . S
O346 C345 1.235 . S
C347 C349 1.400 . S
C347 N350 1.351 . S
C347 C352 1.501 . S
C348 C349 1.387 . S
C348 N351 1.341 1_655 S
C349 C347 1.400 . S
C349 C348 1.387 . S
N350 Co341 2.022 1_655 S
N350 C347 1.351 . S
N350 N351 1.365 1_655 S
N351 C348 1.341 1_455 S
N351 N350 1.365 1_455 S
N351 H371 0.862 . S
C352 C347 1.501 . S
C352 H353 0.961 . S
C352 H354 0.961 . S
C352 H355 0.960 . S
H353 C352 0.961 . S
H354 C352 0.961 . S
H355 C352 0.960 . S
C356 N357 1.342 . S
C356 C360 1.401 . S
C356 C361 1.499 . S
N357 Co340 1.989 . S
N357 C356 1.342 . S
N357 N358 1.388 . S
N358 Co341 1.993 . S
N358 N357 1.388 . S
N358 C359 1.346 . S
C359 N358 1.346 . S
C359 C360 1.396 . S
C359 C369 1.510 . S
C360 C356 1.401 . S
C360 C359 1.396 . S
C361 C356 1.499 . S
C361 H362 0.959 . S
C361 H363 0.960 . S
C361 H364 0.961 . S
H362 C361 0.959 . S
H363 C361 0.960 . S
H364 C361 0.961 . S
O365 Co340 1.967 . S
O365 C373 1.258 . S
O366 Co341 1.941 . S
O366 C373 1.266 . S
H367 C369 0.959 . S
H368 C369 0.961 . S
C369 C359 1.510 . S
C369 H367 0.959 . S
C369 H368 0.961 . S
C369 H370 0.960 . S
H370 C369 0.960 . S
H371 N351 0.862 . S
O372 Co340 1.920 . S
O372 C345 1.289 . S
C373 O365 1.258 . S
C373 O366 1.266 . S
Co374 O377 1.970 . S
Co374 N391 1.989 . S
Co374 O399 1.967 . S
Co374 O406 1.920 . S
Co375 O378 1.966 1_545 S
Co375 N384 2.022 1_545 S
Co375 N392 1.993 . S
Co375 O400 1.941 . S
C376 O377 1.258 1_565 S
C376 O378 1.263 . S
O377 Co374 1.970 . S
O377 C376 1.258 1_545 S
O378 Co375 1.966 1_565 S
O378 C376 1.263 . S
C379 O380 1.235 . S
C379 O406 1.289 . S
O380 C379 1.235 . S
C381 C383 1.400 . S
C381 N384 1.351 . S
C381 C386 1.501 . S
C382 C383 1.387 . S
C382 N385 1.341 1_565 S
C383 C381 1.400 . S
C383 C382 1.387 . S
N384 Co375 2.022 1_565 S
N384 C381 1.351 . S
N384 N385 1.365 1_565 S
N385 C382 1.341 1_545 S
N385 N384 1.365 1_545 S
N385 H405 0.862 . S
C386 C381 1.501 . S
C386 H387 0.961 . S
C386 H388 0.961 . S
C386 H389 0.960 . S
H387 C386 0.961 . S
H388 C386 0.961 . S
H389 C386 0.960 . S
C390 N391 1.342 . S
C390 C394 1.401 . S
C390 C395 1.499 . S
N391 Co374 1.989 . S
N391 C390 1.342 . S
N391 N392 1.388 . S
N392 Co375 1.993 . S
N392 N391 1.388 . S
N392 C393 1.346 . S
C393 N392 1.346 . S
C393 C394 1.396 . S
C393 C403 1.510 . S
C394 C390 1.401 . S
C394 C393 1.396 . S
C395 C390 1.499 . S
C395 H396 0.959 . S
C395 H397 0.960 . S
C395 H398 0.961 . S
H396 C395 0.959 . S
H397 C395 0.960 . S
H398 C395 0.961 . S
O399 Co374 1.967 . S
O399 C407 1.258 . S
O400 Co375 1.941 . S
O400 C407 1.266 . S
H401 C403 0.959 . S
H402 C403 0.961 . S
C403 C393 1.510 . S
C403 H401 0.959 . S
C403 H402 0.961 . S
C403 H404 0.960 . S
H404 C403 0.960 . S
H405 N385 0.862 . S
O406 Co374 1.920 . S
O406 C379 1.289 . S
C407 O399 1.258 . S
C407 O400 1.266 . S
Co408 O411 1.970 . S
Co408 N425 1.989 . S
Co408 O433 1.967 . S
Co408 O440 1.920 . S
Co409 O412 1.966 1_655 S
Co409 N418 2.022 1_655 S
Co409 N426 1.993 . S
Co409 O434 1.941 . S
C410 O411 1.258 1_455 S
C410 O412 1.263 . S
O411 Co408 1.970 . S
O411 C410 1.258 1_655 S
O412 Co409 1.966 1_455 S
O412 C410 1.263 . S
C413 O414 1.235 . S
C413 O440 1.289 . S
O414 C413 1.235 . S
C415 C417 1.400 . S
C415 N418 1.351 . S
C415 C420 1.501 . S
C416 C417 1.387 . S
C416 N419 1.341 1_455 S
C417 C415 1.400 . S
C417 C416 1.387 . S
N418 Co409 2.022 1_455 S
N418 C415 1.351 . S
N418 N419 1.365 1_455 S
N419 C416 1.341 1_655 S
N419 N418 1.365 1_655 S
N419 H439 0.862 . S
C420 C415 1.501 . S
C420 H421 0.961 . S
C420 H422 0.961 . S
C420 H423 0.960 . S
H421 C420 0.961 . S
H422 C420 0.961 . S
H423 C420 0.960 . S
C424 N425 1.342 . S
C424 C428 1.401 . S
C424 C429 1.499 . S
N425 Co408 1.989 . S
N425 C424 1.342 . S
N425 N426 1.388 . S
N426 Co409 1.993 . S
N426 N425 1.388 . S
N426 C427 1.346 . S
C427 N426 1.346 . S
C427 C428 1.396 . S
C427 C437 1.510 . S
C428 C424 1.401 . S
C428 C427 1.396 . S
C429 C424 1.499 . S
C429 H430 0.959 . S
C429 H431 0.960 . S
C429 H432 0.961 . S
H430 C429 0.959 . S
H431 C429 0.960 . S
H432 C429 0.961 . S
O433 Co408 1.967 . S
O433 C441 1.258 . S
O434 Co409 1.941 . S
O434 C441 1.266 . S
H435 C437 0.959 . S
H436 C437 0.961 . S
C437 C427 1.510 . S
C437 H435 0.959 . S
C437 H436 0.961 . S
C437 H438 0.960 . S
H438 C437 0.960 . S
H439 N419 0.862 . S
O440 Co408 1.920 . S
O440 C413 1.289 . S
C441 O433 1.258 . S
C441 O434 1.266 . S
Co442 O445 1.970 . S
Co442 N459 1.989 . S
Co442 O467 1.967 . S
Co442 O474 1.920 . S
Co443 O446 1.966 1_565 S
Co443 N452 2.022 1_565 S
Co443 N460 1.993 . S
Co443 O468 1.941 . S
C444 O445 1.258 1_545 S
C444 O446 1.263 . S
O445 Co442 1.970 . S
O445 C444 1.258 1_565 S
O446 Co443 1.966 1_545 S
O446 C444 1.263 . S
C447 O448 1.235 . S
C447 O474 1.289 . S
O448 C447 1.235 . S
C449 C451 1.400 . S
C449 N452 1.351 . S
C449 C454 1.501 . S
C450 C451 1.387 . S
C450 N453 1.341 1_545 S
C451 C449 1.400 . S
C451 C450 1.387 . S
N452 Co443 2.022 1_545 S
N452 C449 1.351 . S
N452 N453 1.365 1_545 S
N453 C450 1.341 1_565 S
N453 N452 1.365 1_565 S
N453 H473 0.862 . S
C454 C449 1.501 . S
C454 H455 0.961 . S
C454 H456 0.961 . S
C454 H457 0.960 . S
H455 C454 0.961 . S
H456 C454 0.961 . S
H457 C454 0.960 . S
C458 N459 1.342 . S
C458 C462 1.401 . S
C458 C463 1.499 . S
N459 Co442 1.989 . S
N459 C458 1.342 . S
N459 N460 1.388 . S
N460 Co443 1.993 . S
N460 N459 1.388 . S
N460 C461 1.346 . S
C461 N460 1.346 . S
C461 C462 1.396 . S
C461 C471 1.510 . S
C462 C458 1.401 . S
C462 C461 1.396 . S
C463 C458 1.499 . S
C463 H464 0.959 . S
C463 H465 0.960 . S
C463 H466 0.961 . S
H464 C463 0.959 . S
H465 C463 0.960 . S
H466 C463 0.961 . S
O467 Co442 1.967 . S
O467 C475 1.258 . S
O468 Co443 1.941 . S
O468 C475 1.266 . S
H469 C471 0.959 . S
H470 C471 0.961 . S
C471 C461 1.510 . S
C471 H469 0.959 . S
C471 H470 0.961 . S
C471 H472 0.960 . S
H472 C471 0.960 . S
H473 N453 0.862 . S
O474 Co442 1.920 . S
O474 C447 1.289 . S
C475 O467 1.258 . S
C475 O468 1.266 . S
Co476 O479 1.970 . S
Co476 N493 1.989 . S
Co476 O501 1.967 . S
Co476 O508 1.920 . S
Co477 O480 1.966 . S
Co477 N486 2.022 . S
Co477 N494 1.993 . S
Co477 O502 1.941 . S
C478 O479 1.258 . S
C478 O480 1.263 . S
O479 Co476 1.970 . S
O479 C478 1.258 . S
O480 Co477 1.966 . S
O480 C478 1.263 . S
C481 O482 1.235 . S
C481 O508 1.289 . S
O482 C481 1.235 . S
C483 C485 1.400 . S
C483 N486 1.351 . S
C483 C488 1.501 . S
C484 C485 1.387 . S
C484 N487 1.341 . S
C485 C483 1.400 . S
C485 C484 1.387 . S
N486 Co477 2.022 . S
N486 C483 1.351 . S
N486 N487 1.365 . S
N487 C484 1.341 . S
N487 N486 1.365 . S
N487 H507 0.862 . S
C488 C483 1.501 . S
C488 H489 0.961 . S
C488 H490 0.961 . S
C488 H491 0.960 . S
H489 C488 0.961 . S
H490 C488 0.961 . S
H491 C488 0.960 . S
C492 N493 1.342 . S
C492 C496 1.401 . S
C492 C497 1.499 . S
N493 Co476 1.989 . S
N493 C492 1.342 . S
N493 N494 1.388 . S
N494 Co477 1.993 . S
N494 N493 1.388 . S
N494 C495 1.346 . S
C495 N494 1.346 . S
C495 C496 1.396 . S
C495 C505 1.510 . S
C496 C492 1.401 . S
C496 C495 1.396 . S
C497 C492 1.499 . S
C497 H498 0.959 . S
C497 H499 0.960 . S
C497 H500 0.961 . S
H498 C497 0.959 . S
H499 C497 0.960 . S
H500 C497 0.961 . S
O501 Co476 1.967 . S
O501 C509 1.258 . S
O502 Co477 1.941 . S
O502 C509 1.266 . S
H503 C505 0.959 . S
H504 C505 0.961 . S
C505 C495 1.510 . S
C505 H503 0.959 . S
C505 H504 0.961 . S
C505 H506 0.960 . S
H506 C505 0.960 . S
H507 N487 0.862 . S
O508 Co476 1.920 . S
O508 C481 1.289 . S
C509 O501 1.258 . S
C509 O502 1.266 . S
Co510 O513 1.970 . S
Co510 N527 1.989 . S
Co510 O535 1.967 . S
Co510 O542 1.920 . S
Co511 O514 1.966 . S
Co511 N520 2.022 . S
Co511 N528 1.993 . S
Co511 O536 1.941 . S
C512 O513 1.258 . S
C512 O514 1.263 . S
O513 Co510 1.970 . S
O513 C512 1.258 . S
O514 Co511 1.966 . S
O514 C512 1.263 . S
C515 O516 1.235 . S
C515 O542 1.289 . S
O516 C515 1.235 . S
C517 C519 1.400 . S
C517 N520 1.351 . S
C517 C522 1.501 . S
C518 C519 1.387 . S
C518 N521 1.341 . S
C519 C517 1.400 . S
C519 C518 1.387 . S
N520 Co511 2.022 . S
N520 C517 1.351 . S
N520 N521 1.365 . S
N521 C518 1.341 . S
N521 N520 1.365 . S
N521 H541 0.862 . S
C522 C517 1.501 . S
C522 H523 0.961 . S
C522 H524 0.961 . S
C522 H525 0.960 . S
H523 C522 0.961 . S
H524 C522 0.961 . S
H525 C522 0.960 . S
C526 N527 1.342 . S
C526 C530 1.401 . S
C526 C531 1.499 . S
N527 Co510 1.989 . S
N527 C526 1.342 . S
N527 N528 1.388 . S
N528 Co511 1.993 . S
N528 N527 1.388 . S
N528 C529 1.346 . S
C529 N528 1.346 . S
C529 C530 1.396 . S
C529 C539 1.510 . S
C530 C526 1.401 . S
C530 C529 1.396 . S
C531 C526 1.499 . S
C531 H532 0.959 . S
C531 H533 0.960 . S
C531 H534 0.961 . S
H532 C531 0.959 . S
H533 C531 0.960 . S
H534 C531 0.961 . S
O535 Co510 1.967 . S
O535 C543 1.258 . S
O536 Co511 1.941 . S
O536 C543 1.266 . S
H537 C539 0.959 . S
H538 C539 0.961 . S
C539 C529 1.510 . S
C539 H537 0.959 . S
C539 H538 0.961 . S
C539 H540 0.960 . S
H540 C539 0.960 . S
H541 N521 0.862 . S
O542 Co510 1.920 . S
O542 C515 1.289 . S
C543 O535 1.258 . S
C543 O536 1.266 . S
H544 C550 0.930 . S
H545 C554 0.930 . S
H546 C559 0.929 . S
H547 C557 0.929 . S
H548 C552 0.929 . S
H549 C558 0.929 . S
C550 H544 0.930 . S
C550 C551 1.367 . S
C550 C558 1.378 . S
C551 C550 1.367 . S
C551 C559 1.433 . S
C552 H548 0.929 . S
C552 C554 1.378 . S
C552 C556 1.350 . S
C553 C556 1.463 . S
C553 C558 1.350 . S
C553 N561 1.427 . S
C554 H545 0.930 . S
C554 C552 1.378 . S
C554 C555 1.367 . S
C555 C554 1.367 . S
C555 C557 1.433 . S
C556 C552 1.350 . S
C556 C553 1.463 . S
C556 N560 1.427 . S
C557 H547 0.929 . S
C557 C555 1.433 . S
C557 N560 1.384 . S
C558 H549 0.929 . S
C558 C550 1.378 . S
C558 C553 1.350 . S
C559 H546 0.929 . S
C559 C551 1.433 . S
C559 N561 1.384 . S
N560 C556 1.427 . S
N560 C557 1.384 . S
N561 C553 1.427 . S
N561 C559 1.384 . S
H562 C568 0.930 . S
H563 C572 0.930 . S
H564 C577 0.929 . S
H565 C575 0.929 . S
H566 C570 0.929 . S
H567 C576 0.929 . S
C568 H562 0.930 . S
C568 C569 1.367 . S
C568 C576 1.378 . S
C569 C568 1.367 . S
C569 C577 1.433 . S
C570 H566 0.929 . S
C570 C572 1.378 . S
C570 C574 1.350 . S
C571 C574 1.463 . S
C571 C576 1.350 . S
C571 N579 1.427 . S
C572 H563 0.930 . S
C572 C570 1.378 . S
C572 C573 1.367 . S
C573 C572 1.367 . S
C573 C575 1.433 . S
C574 C570 1.350 . S
C574 C571 1.463 . S
C574 N578 1.427 . S
C575 H565 0.929 . S
C575 C573 1.433 . S
C575 N578 1.384 . S
C576 H567 0.929 . S
C576 C568 1.378 . S
C576 C571 1.350 . S
C577 H564 0.929 . S
C577 C569 1.433 . S
C577 N579 1.384 . S
N578 C574 1.427 . S
N578 C575 1.384 . S
N579 C571 1.427 . S
N579 C577 1.384 . S
H580 C586 0.930 . S
H581 C590 0.930 . S
H582 C595 0.929 . S
H583 C593 0.929 . S
H584 C588 0.929 . S
H585 C594 0.929 . S
C586 H580 0.930 . S
C586 C587 1.367 . S
C586 C594 1.378 . S
C587 C586 1.367 . S
C587 C595 1.433 . S
C588 H584 0.929 . S
C588 C590 1.378 . S
C588 C592 1.350 . S
C589 C592 1.463 . S
C589 C594 1.350 . S
C589 N597 1.427 . S
C590 H581 0.930 . S
C590 C588 1.378 . S
C590 C591 1.367 . S
C591 C590 1.367 . S
C591 C593 1.433 . S
C592 C588 1.350 . S
C592 C589 1.463 . S
C592 N596 1.427 . S
C593 H583 0.929 . S
C593 C591 1.433 . S
C593 N596 1.384 . S
C594 H585 0.929 . S
C594 C586 1.378 . S
C594 C589 1.350 . S
C595 H582 0.929 . S
C595 C587 1.433 . S
C595 N597 1.384 . S
N596 C592 1.427 . S
N596 C593 1.384 . S
N597 C589 1.427 . S
N597 C595 1.384 . S
H598 C604 0.930 . S
H599 C608 0.930 . S
H600 C613 0.929 . S
H601 C611 0.929 . S
H602 C606 0.929 . S
H603 C612 0.929 . S
C604 H598 0.930 . S
C604 C605 1.367 . S
C604 C612 1.378 . S
C605 C604 1.367 . S
C605 C613 1.433 . S
C606 H602 0.929 . S
C606 C608 1.378 . S
C606 C610 1.350 . S
C607 C610 1.463 . S
C607 C612 1.350 . S
C607 N615 1.427 . S
C608 H599 0.930 . S
C608 C606 1.378 . S
C608 C609 1.367 . S
C609 C608 1.367 . S
C609 C611 1.433 . S
C610 C606 1.350 . S
C610 C607 1.463 . S
C610 N614 1.427 . S
C611 H601 0.929 . S
C611 C609 1.433 . S
C611 N614 1.384 . S
C612 H603 0.929 . S
C612 C604 1.378 . S
C612 C607 1.350 . S
C613 H600 0.929 . S
C613 C605 1.433 . S
C613 N615 1.384 . S
N614 C610 1.427 . S
N614 C611 1.384 . S
N615 C607 1.427 . S
N615 C613 1.384 . S
H616 C622 0.930 . S
H617 C626 0.930 . S
H618 C631 0.929 . S
H619 C629 0.929 . S
H620 C624 0.929 . S
H621 C630 0.929 . S
C622 H616 0.930 . S
C622 C623 1.367 . S
C622 C630 1.378 . S
C623 C622 1.367 . S
C623 C631 1.433 . S
C624 H620 0.929 . S
C624 C626 1.378 . S
C624 C628 1.350 . S
C625 C628 1.463 . S
C625 C630 1.350 . S
C625 N633 1.427 . S
C626 H617 0.930 . S
C626 C624 1.378 . S
C626 C627 1.367 . S
C627 C626 1.367 . S
C627 C629 1.433 . S
C628 C624 1.350 . S
C628 C625 1.463 . S
C628 N632 1.427 . S
C629 H619 0.929 . S
C629 C627 1.433 . S
C629 N632 1.384 . S
C630 H621 0.929 . S
C630 C622 1.378 . S
C630 C625 1.350 . S
C631 H618 0.929 . S
C631 C623 1.433 . S
C631 N633 1.384 . S
N632 C628 1.427 . S
N632 C629 1.384 . S
N633 C625 1.427 . S
N633 C631 1.384 . S
H634 C640 0.930 . S
H635 C644 0.930 . S
H636 C649 0.929 . S
H637 C647 0.929 . S
H638 C642 0.929 . S
H639 C648 0.929 . S
C640 H634 0.930 . S
C640 C641 1.367 . S
C640 C648 1.378 . S
C641 C640 1.367 . S
C641 C649 1.433 . S
C642 H638 0.929 . S
C642 C644 1.378 . S
C642 C646 1.350 . S
C643 C646 1.463 . S
C643 C648 1.350 . S
C643 N651 1.427 . S
C644 H635 0.930 . S
C644 C642 1.378 . S
C644 C645 1.367 . S
C645 C644 1.367 . S
C645 C647 1.433 . S
C646 C642 1.350 . S
C646 C643 1.463 . S
C646 N650 1.427 . S
C647 H637 0.929 . S
C647 C645 1.433 . S
C647 N650 1.384 . S
C648 H639 0.929 . S
C648 C640 1.378 . S
C648 C643 1.350 . S
C649 H636 0.929 . S
C649 C641 1.433 . S
C649 N651 1.384 . S
N650 C646 1.427 . S
N650 C647 1.384 . S
N651 C643 1.427 . S
N651 C649 1.384 . S
H652 C658 0.930 . S
H653 C662 0.930 . S
H654 C667 0.929 . S
H655 C665 0.929 . S
H656 C660 0.929 . S
H657 C666 0.929 . S
C658 H652 0.930 . S
C658 C659 1.367 . S
C658 C666 1.378 . S
C659 C658 1.367 . S
C659 C667 1.433 . S
C660 H656 0.929 . S
C660 C662 1.378 . S
C660 C664 1.350 . S
C661 C664 1.463 . S
C661 C666 1.350 . S
C661 N669 1.427 . S
C662 H653 0.930 . S
C662 C660 1.378 . S
C662 C663 1.367 . S
C663 C662 1.367 . S
C663 C665 1.433 . S
C664 C660 1.350 . S
C664 C661 1.463 . S
C664 N668 1.427 . S
C665 H655 0.929 . S
C665 C663 1.433 . S
C665 N668 1.384 . S
C666 H657 0.929 . S
C666 C658 1.378 . S
C666 C661 1.350 . S
C667 H654 0.929 . S
C667 C659 1.433 . S
C667 N669 1.384 . S
N668 C664 1.427 . S
N668 C665 1.384 . S
N669 C661 1.427 . S
N669 C667 1.384 . S
H670 C676 0.930 . S
H671 C680 0.930 . S
H672 C685 0.929 . S
H673 C683 0.929 . S
H674 C678 0.929 . S
H675 C684 0.929 . S
C676 H670 0.930 . S
C676 C677 1.367 . S
C676 C684 1.378 . S
C677 C676 1.367 . S
C677 C685 1.433 . S
C678 H674 0.929 . S
C678 C680 1.378 . S
C678 C682 1.350 . S
C679 C682 1.463 . S
C679 C684 1.350 . S
C679 N687 1.427 . S
C680 H671 0.930 . S
C680 C678 1.378 . S
C680 C681 1.367 . S
C681 C680 1.367 . S
C681 C683 1.433 . S
C682 C678 1.350 . S
C682 C679 1.463 . S
C682 N686 1.427 . S
C683 H673 0.929 . S
C683 C681 1.433 . S
C683 N686 1.384 . S
C684 H675 0.929 . S
C684 C676 1.378 . S
C684 C679 1.350 . S
C685 H672 0.929 . S
C685 C677 1.433 . S
C685 N687 1.384 . S
N686 C682 1.427 . S
N686 C683 1.384 . S
N687 C679 1.427 . S
N687 C685 1.384 . S
H688 C694 0.930 . S
H689 C698 0.930 . S
H690 C703 0.929 . S
H691 C701 0.929 . S
H692 C696 0.929 . S
H693 C702 0.929 . S
C694 H688 0.930 . S
C694 C695 1.367 . S
C694 C702 1.378 . S
C695 C694 1.367 . S
C695 C703 1.433 . S
C696 H692 0.929 . S
C696 C698 1.378 . S
C696 C700 1.350 . S
C697 C700 1.463 . S
C697 C702 1.350 . S
C697 N705 1.427 . S
C698 H689 0.930 . S
C698 C696 1.378 . S
C698 C699 1.367 . S
C699 C698 1.367 . S
C699 C701 1.433 . S
C700 C696 1.350 . S
C700 C697 1.463 . S
C700 N704 1.427 . S
C701 H691 0.929 . S
C701 C699 1.433 . S
C701 N704 1.384 . S
C702 H693 0.929 . S
C702 C694 1.378 . S
C702 C697 1.350 . S
C703 H690 0.929 . S
C703 C695 1.433 . S
C703 N705 1.384 . S
N704 C700 1.427 . S
N704 C701 1.384 . S
N705 C697 1.427 . S
N705 C703 1.384 . S
H706 C712 0.930 . S
H707 C716 0.930 . S
H708 C721 0.929 . S
H709 C719 0.929 . S
H710 C714 0.929 . S
H711 C720 0.929 . S
C712 H706 0.930 . S
C712 C713 1.367 . S
C712 C720 1.378 . S
C713 C712 1.367 . S
C713 C721 1.433 . S
C714 H710 0.929 . S
C714 C716 1.378 . S
C714 C718 1.350 . S
C715 C718 1.463 . S
C715 C720 1.350 . S
C715 N723 1.427 . S
C716 H707 0.930 . S
C716 C714 1.378 . S
C716 C717 1.367 . S
C717 C716 1.367 . S
C717 C719 1.433 . S
C718 C714 1.350 . S
C718 C715 1.463 . S
C718 N722 1.427 . S
C719 H709 0.929 . S
C719 C717 1.433 . S
C719 N722 1.384 . S
C720 H711 0.929 . S
C720 C712 1.378 . S
C720 C715 1.350 . S
C721 H708 0.929 . S
C721 C713 1.433 . S
C721 N723 1.384 . S
N722 C718 1.427 . S
N722 C719 1.384 . S
N723 C715 1.427 . S
N723 C721 1.384 . S
H724 C730 0.930 . S
H725 C734 0.930 . S
H726 C739 0.929 . S
H727 C737 0.929 . S
H728 C732 0.929 . S
H729 C738 0.929 . S
C730 H724 0.930 . S
C730 C731 1.367 . S
C730 C738 1.378 . S
C731 C730 1.367 . S
C731 C739 1.433 . S
C732 H728 0.929 . S
C732 C734 1.378 . S
C732 C736 1.350 . S
C733 C736 1.463 . S
C733 C738 1.350 . S
C733 N741 1.427 . S
C734 H725 0.930 . S
C734 C732 1.378 . S
C734 C735 1.367 . S
C735 C734 1.367 . S
C735 C737 1.433 . S
C736 C732 1.350 . S
C736 C733 1.463 . S
C736 N740 1.427 . S
C737 H727 0.929 . S
C737 C735 1.433 . S
C737 N740 1.384 . S
C738 H729 0.929 . S
C738 C730 1.378 . S
C738 C733 1.350 . S
C739 H726 0.929 . S
C739 C731 1.433 . S
C739 N741 1.384 . S
N740 C736 1.427 . S
N740 C737 1.384 . S
N741 C733 1.427 . S
N741 C739 1.384 . S
H742 C748 0.930 . S
H743 C752 0.930 . S
H744 C757 0.929 . S
H745 C755 0.929 . S
H746 C750 0.929 . S
H747 C756 0.929 . S
C748 H742 0.930 . S
C748 C749 1.367 . S
C748 C756 1.378 . S
C749 C748 1.367 . S
C749 C757 1.433 . S
C750 H746 0.929 . S
C750 C752 1.378 . S
C750 C754 1.350 . S
C751 C754 1.463 . S
C751 C756 1.350 . S
C751 N759 1.427 . S
C752 H743 0.930 . S
C752 C750 1.378 . S
C752 C753 1.367 . S
C753 C752 1.367 . S
C753 C755 1.433 . S
C754 C750 1.350 . S
C754 C751 1.463 . S
C754 N758 1.427 . S
C755 H745 0.929 . S
C755 C753 1.433 . S
C755 N758 1.384 . S
C756 H747 0.929 . S
C756 C748 1.378 . S
C756 C751 1.350 . S
C757 H744 0.929 . S
C757 C749 1.433 . S
C757 N759 1.384 . S
N758 C754 1.427 . S
N758 C755 1.384 . S
N759 C751 1.427 . S
N759 C757 1.384 . S
H760 C766 0.930 . S
H761 C770 0.930 . S
H762 C775 0.929 . S
H763 C773 0.929 . S
H764 C768 0.929 . S
H765 C774 0.929 . S
C766 H760 0.930 . S
C766 C767 1.367 . S
C766 C774 1.378 . S
C767 C766 1.367 . S
C767 C775 1.433 . S
C768 H764 0.929 . S
C768 C770 1.378 . S
C768 C772 1.350 . S
C769 C772 1.463 . S
C769 C774 1.350 . S
C769 N777 1.427 . S
C770 H761 0.930 . S
C770 C768 1.378 . S
C770 C771 1.367 . S
C771 C770 1.367 . S
C771 C773 1.433 . S
C772 C768 1.350 . S
C772 C769 1.463 . S
C772 N776 1.427 . S
C773 H763 0.929 . S
C773 C771 1.433 . S
C773 N776 1.384 . S
C774 H765 0.929 . S
C774 C766 1.378 . S
C774 C769 1.350 . S
C775 H762 0.929 . S
C775 C767 1.433 . S
C775 N777 1.384 . S
N776 C772 1.427 . S
N776 C773 1.384 . S
N777 C769 1.427 . S
N777 C775 1.384 . S
H778 C784 0.930 . S
H779 C788 0.930 . S
H780 C793 0.929 . S
H781 C791 0.929 . S
H782 C786 0.929 . S
H783 C792 0.929 . S
C784 H778 0.930 . S
C784 C785 1.367 . S
C784 C792 1.378 . S
C785 C784 1.367 . S
C785 C793 1.433 . S
C786 H782 0.929 . S
C786 C788 1.378 . S
C786 C790 1.350 . S
C787 C790 1.463 . S
C787 C792 1.350 . S
C787 N795 1.427 . S
C788 H779 0.930 . S
C788 C786 1.378 . S
C788 C789 1.367 . S
C789 C788 1.367 . S
C789 C791 1.433 . S
C790 C786 1.350 . S
C790 C787 1.463 . S
C790 N794 1.427 . S
C791 H781 0.929 . S
C791 C789 1.433 . S
C791 N794 1.384 . S
C792 H783 0.929 . S
C792 C784 1.378 . S
C792 C787 1.350 . S
C793 H780 0.929 . S
C793 C785 1.433 . S
C793 N795 1.384 . S
N794 C790 1.427 . S
N794 C791 1.384 . S
N795 C787 1.427 . S
N795 C793 1.384 . S
H796 C802 0.930 . S
H797 C806 0.930 . S
H798 C811 0.929 . S
H799 C809 0.929 . S
H800 C804 0.929 . S
H801 C810 0.929 . S
C802 H796 0.930 . S
C802 C803 1.367 . S
C802 C810 1.378 . S
C803 C802 1.367 . S
C803 C811 1.433 . S
C804 H800 0.929 . S
C804 C806 1.378 . S
C804 C808 1.350 . S
C805 C808 1.463 . S
C805 C810 1.350 . S
C805 N813 1.427 . S
C806 H797 0.930 . S
C806 C804 1.378 . S
C806 C807 1.367 . S
C807 C806 1.367 . S
C807 C809 1.433 . S
C808 C804 1.350 . S
C808 C805 1.463 . S
C808 N812 1.427 . S
C809 H799 0.929 . S
C809 C807 1.433 . S
C809 N812 1.384 . S
C810 H801 0.929 . S
C810 C802 1.378 . S
C810 C805 1.350 . S
C811 H798 0.929 . S
C811 C803 1.433 . S
C811 N813 1.384 . S
N812 C808 1.427 . S
N812 C809 1.384 . S
N813 C805 1.427 . S
N813 C811 1.384 . S
H814 C820 0.930 . S
H815 C824 0.930 . S
H816 C829 0.929 . S
H817 C827 0.929 . S
H818 C822 0.929 . S
H819 C828 0.929 . S
C820 H814 0.930 . S
C820 C821 1.367 . S
C820 C828 1.378 . S
C821 C820 1.367 . S
C821 C829 1.433 . S
C822 H818 0.929 . S
C822 C824 1.378 . S
C822 C826 1.350 . S
C823 C826 1.463 . S
C823 C828 1.350 . S
C823 N831 1.427 . S
C824 H815 0.930 . S
C824 C822 1.378 . S
C824 C825 1.367 . S
C825 C824 1.367 . S
C825 C827 1.433 . S
C826 C822 1.350 . S
C826 C823 1.463 . S
C826 N830 1.427 . S
C827 H817 0.929 . S
C827 C825 1.433 . S
C827 N830 1.384 . S
C828 H819 0.929 . S
C828 C820 1.378 . S
C828 C823 1.350 . S
C829 H816 0.929 . S
C829 C821 1.433 . S
C829 N831 1.384 . S
N830 C826 1.427 . S
N830 C827 1.384 . S
N831 C823 1.427 . S
N831 C829 1.384 . S
H832 C838 0.930 . S
H833 C842 0.930 . S
H834 C847 0.929 . S
H835 C845 0.929 . S
H836 C840 0.929 . S
H837 C846 0.929 . S
C838 H832 0.930 . S
C838 C839 1.367 . S
C838 C846 1.378 . S
C839 C838 1.367 . S
C839 C847 1.433 . S
C840 H836 0.929 . S
C840 C842 1.378 . S
C840 C844 1.350 . S
C841 C844 1.463 . S
C841 C846 1.350 . S
C841 N849 1.427 . S
C842 H833 0.930 . S
C842 C840 1.378 . S
C842 C843 1.367 . S
C843 C842 1.367 . S
C843 C845 1.433 . S
C844 C840 1.350 . S
C844 C841 1.463 . S
C844 N848 1.427 . S
C845 H835 0.929 . S
C845 C843 1.433 . S
C845 N848 1.384 . S
C846 H837 0.929 . S
C846 C838 1.378 . S
C846 C841 1.350 . S
C847 H834 0.929 . S
C847 C839 1.433 . S
C847 N849 1.384 . S
N848 C844 1.427 . S
N848 C845 1.384 . S
N849 C841 1.427 . S
N849 C847 1.384 . S
H850 C856 0.930 . S
H851 C860 0.930 . S
H852 C865 0.929 . S
H853 C863 0.929 . S
H854 C858 0.929 . S
H855 C864 0.929 . S
C856 H850 0.930 . S
C856 C857 1.367 . S
C856 C864 1.378 . S
C857 C856 1.367 . S
C857 C865 1.433 . S
C858 H854 0.929 . S
C858 C860 1.378 . S
C858 C862 1.350 . S
C859 C862 1.463 . S
C859 C864 1.350 . S
C859 N867 1.427 . S
C860 H851 0.930 . S
C860 C858 1.378 . S
C860 C861 1.367 . S
C861 C860 1.367 . S
C861 C863 1.433 . S
C862 C858 1.350 . S
C862 C859 1.463 . S
C862 N866 1.427 . S
C863 H853 0.929 . S
C863 C861 1.433 . S
C863 N866 1.384 . S
C864 H855 0.929 . S
C864 C856 1.378 . S
C864 C859 1.350 . S
C865 H852 0.929 . S
C865 C857 1.433 . S
C865 N867 1.384 . S
N866 C862 1.427 . S
N866 C863 1.384 . S
N867 C859 1.427 . S
N867 C865 1.384 . S
H868 C874 0.930 . S
H869 C878 0.930 . S
H870 C883 0.929 . S
H871 C881 0.929 . S
H872 C876 0.929 . S
H873 C882 0.929 . S
C874 H868 0.930 . S
C874 C875 1.367 . S
C874 C882 1.378 . S
C875 C874 1.367 . S
C875 C883 1.433 . S
C876 H872 0.929 . S
C876 C878 1.378 . S
C876 C880 1.350 . S
C877 C880 1.463 . S
C877 C882 1.350 . S
C877 N885 1.427 . S
C878 H869 0.930 . S
C878 C876 1.378 . S
C878 C879 1.367 . S
C879 C878 1.367 . S
C879 C881 1.433 . S
C880 C876 1.350 . S
C880 C877 1.463 . S
C880 N884 1.427 . S
C881 H871 0.929 . S
C881 C879 1.433 . S
C881 N884 1.384 . S
C882 H873 0.929 . S
C882 C874 1.378 . S
C882 C877 1.350 . S
C883 H870 0.929 . S
C883 C875 1.433 . S
C883 N885 1.384 . S
N884 C880 1.427 . S
N884 C881 1.384 . S
N885 C877 1.427 . S
N885 C883 1.384 . S
H886 C892 0.930 . S
H887 C896 0.930 . S
H888 C901 0.929 . S
H889 C899 0.929 . S
H890 C894 0.929 . S
H891 C900 0.929 . S
C892 H886 0.930 . S
C892 C893 1.367 . S
C892 C900 1.378 . S
C893 C892 1.367 . S
C893 C901 1.433 . S
C894 H890 0.929 . S
C894 C896 1.378 . S
C894 C898 1.350 . S
C895 C898 1.463 . S
C895 C900 1.350 . S
C895 N903 1.427 . S
C896 H887 0.930 . S
C896 C894 1.378 . S
C896 C897 1.367 . S
C897 C896 1.367 . S
C897 C899 1.433 . S
C898 C894 1.350 . S
C898 C895 1.463 . S
C898 N902 1.427 . S
C899 H889 0.929 . S
C899 C897 1.433 . S
C899 N902 1.384 . S
C900 H891 0.929 . S
C900 C892 1.378 . S
C900 C895 1.350 . S
C901 H888 0.929 . S
C901 C893 1.433 . S
C901 N903 1.384 . S
N902 C898 1.427 . S
N902 C899 1.384 . S
N903 C895 1.427 . S
N903 C901 1.384 . S
H904 C910 0.930 . S
H905 C914 0.930 . S
H906 C919 0.929 . S
H907 C917 0.929 . S
H908 C912 0.929 . S
H909 C918 0.929 . S
C910 H904 0.930 . S
C910 C911 1.367 . S
C910 C918 1.378 . S
C911 C910 1.367 . S
C911 C919 1.433 . S
C912 H908 0.929 . S
C912 C914 1.378 . S
C912 C916 1.350 . S
C913 C916 1.463 . S
C913 C918 1.350 . S
C913 N921 1.427 . S
C914 H905 0.930 . S
C914 C912 1.378 . S
C914 C915 1.367 . S
C915 C914 1.367 . S
C915 C917 1.433 . S
C916 C912 1.350 . S
C916 C913 1.463 . S
C916 N920 1.427 . S
C917 H907 0.929 . S
C917 C915 1.433 . S
C917 N920 1.384 . S
C918 H909 0.929 . S
C918 C910 1.378 . S
C918 C913 1.350 . S
C919 H906 0.929 . S
C919 C911 1.433 . S
C919 N921 1.384 . S
N920 C916 1.427 . S
N920 C917 1.384 . S
N921 C913 1.427 . S
N921 C919 1.384 . S
H922 C928 0.930 . S
H923 C932 0.930 . S
H924 C937 0.929 . S
H925 C935 0.929 . S
H926 C930 0.929 . S
H927 C936 0.929 . S
C928 H922 0.930 . S
C928 C929 1.367 . S
C928 C936 1.378 . S
C929 C928 1.367 . S
C929 C937 1.433 . S
C930 H926 0.929 . S
C930 C932 1.378 . S
C930 C934 1.350 . S
C931 C934 1.463 . S
C931 C936 1.350 . S
C931 N939 1.427 . S
C932 H923 0.930 . S
C932 C930 1.378 . S
C932 C933 1.367 . S
C933 C932 1.367 . S
C933 C935 1.433 . S
C934 C930 1.350 . S
C934 C931 1.463 . S
C934 N938 1.427 . S
C935 H925 0.929 . S
C935 C933 1.433 . S
C935 N938 1.384 . S
C936 H927 0.929 . S
C936 C928 1.378 . S
C936 C931 1.350 . S
C937 H924 0.929 . S
C937 C929 1.433 . S
C937 N939 1.384 . S
N938 C934 1.427 . S
N938 C935 1.384 . S
N939 C931 1.427 . S
N939 C937 1.384 . S
H940 C946 0.930 . S
H941 C950 0.930 . S
H942 C955 0.929 . S
H943 C953 0.929 . S
H944 C948 0.929 . S
H945 C954 0.929 . S
C946 H940 0.930 . S
C946 C947 1.367 . S
C946 C954 1.378 . S
C947 C946 1.367 . S
C947 C955 1.433 . S
C948 H944 0.929 . S
C948 C950 1.378 . S
C948 C952 1.350 . S
C949 C952 1.463 . S
C949 C954 1.350 . S
C949 N957 1.427 . S
C950 H941 0.930 . S
C950 C948 1.378 . S
C950 C951 1.367 . S
C951 C950 1.367 . S
C951 C953 1.433 . S
C952 C948 1.350 . S
C952 C949 1.463 . S
C952 N956 1.427 . S
C953 H943 0.929 . S
C953 C951 1.433 . S
C953 N956 1.384 . S
C954 H945 0.929 . S
C954 C946 1.378 . S
C954 C949 1.350 . S
C955 H942 0.929 . S
C955 C947 1.433 . S
C955 N957 1.384 . S
N956 C952 1.427 . S
N956 C953 1.384 . S
N957 C949 1.427 . S
N957 C955 1.384 . S
H958 C964 0.930 . S
H959 C968 0.930 . S
H960 C973 0.929 . S
H961 C971 0.929 . S
H962 C966 0.929 . S
H963 C972 0.929 . S
C964 H958 0.930 . S
C964 C965 1.367 . S
C964 C972 1.378 . S
C965 C964 1.367 . S
C965 C973 1.433 . S
C966 H962 0.929 . S
C966 C968 1.378 . S
C966 C970 1.350 . S
C967 C970 1.463 . S
C967 C972 1.350 . S
C967 N975 1.427 . S
C968 H959 0.930 . S
C968 C966 1.378 . S
C968 C969 1.367 . S
C969 C968 1.367 . S
C969 C971 1.433 . S
C970 C966 1.350 . S
C970 C967 1.463 . S
C970 N974 1.427 . S
C971 H961 0.929 . S
C971 C969 1.433 . S
C971 N974 1.384 . S
C972 H963 0.929 . S
C972 C964 1.378 . S
C972 C967 1.350 . S
C973 H960 0.929 . S
C973 C965 1.433 . S
C973 N975 1.384 . S
N974 C970 1.427 . S
N974 C971 1.384 . S
N975 C967 1.427 . S
N975 C973 1.384 . S
H976 C982 0.930 . S
H977 C986 0.930 . S
H978 C991 0.929 . S
H979 C989 0.929 . S
H980 C984 0.929 . S
H981 C990 0.929 . S
C982 H976 0.930 . S
C982 C983 1.367 . S
C982 C990 1.378 . S
C983 C982 1.367 . S
C983 C991 1.433 . S
C984 H980 0.929 . S
C984 C986 1.378 . S
C984 C988 1.350 . S
C985 C988 1.463 . S
C985 C990 1.350 . S
C985 N993 1.427 . S
C986 H977 0.930 . S
C986 C984 1.378 . S
C986 C987 1.367 . S
C987 C986 1.367 . S
C987 C989 1.433 . S
C988 C984 1.350 . S
C988 C985 1.463 . S
C988 N992 1.427 . S
C989 H979 0.929 . S
C989 C987 1.433 . S
C989 N992 1.384 . S
C990 H981 0.929 . S
C990 C982 1.378 . S
C990 C985 1.350 . S
C991 H978 0.929 . S
C991 C983 1.433 . S
C991 N993 1.384 . S
N992 C988 1.427 . S
N992 C989 1.384 . S
N993 C985 1.427 . S
N993 C991 1.384 . S
H994 C1000 0.930 . S
H995 C1004 0.930 . S
H996 C1009 0.929 . S
H997 C1007 0.929 . S
H998 C1002 0.929 . S
H999 C1008 0.929 . S
C1000 H994 0.930 . S
C1000 C1001 1.367 . S
C1000 C1008 1.378 . S
C1001 C1000 1.367 . S
C1001 C1009 1.433 . S
C1002 H998 0.929 . S
C1002 C1004 1.378 . S
C1002 C1006 1.350 . S
C1003 C1006 1.463 . S
C1003 C1008 1.350 . S
C1003 N1011 1.427 . S
C1004 H995 0.930 . S
C1004 C1002 1.378 . S
C1004 C1005 1.367 . S
C1005 C1004 1.367 . S
C1005 C1007 1.433 . S
C1006 C1002 1.350 . S
C1006 C1003 1.463 . S
C1006 N1010 1.427 . S
C1007 H997 0.929 . S
C1007 C1005 1.433 . S
C1007 N1010 1.384 . S
C1008 H999 0.929 . S
C1008 C1000 1.378 . S
C1008 C1003 1.350 . S
C1009 H996 0.929 . S
C1009 C1001 1.433 . S
C1009 N1011 1.384 . S
N1010 C1006 1.427 . S
N1010 C1007 1.384 . S
N1011 C1003 1.427 . S
N1011 C1009 1.384 . S
H1012 C1018 0.930 . S
H1013 C1022 0.930 . S
H1014 C1027 0.929 . S
H1015 C1025 0.929 . S
H1016 C1020 0.929 . S
H1017 C1026 0.929 . S
C1018 H1012 0.930 . S
C1018 C1019 1.367 . S
C1018 C1026 1.378 . S
C1019 C1018 1.367 . S
C1019 C1027 1.433 . S
C1020 H1016 0.929 . S
C1020 C1022 1.378 . S
C1020 C1024 1.350 . S
C1021 C1024 1.463 . S
C1021 C1026 1.350 . S
C1021 N1029 1.427 . S
C1022 H1013 0.930 . S
C1022 C1020 1.378 . S
C1022 C1023 1.367 . S
C1023 C1022 1.367 . S
C1023 C1025 1.433 . S
C1024 C1020 1.350 . S
C1024 C1021 1.463 . S
C1024 N1028 1.427 . S
C1025 H1015 0.929 . S
C1025 C1023 1.433 . S
C1025 N1028 1.384 . S
C1026 H1017 0.929 . S
C1026 C1018 1.378 . S
C1026 C1021 1.350 . S
C1027 H1014 0.929 . S
C1027 C1019 1.433 . S
C1027 N1029 1.384 . S
N1028 C1024 1.427 . S
N1028 C1025 1.384 . S
N1029 C1021 1.427 . S
N1029 C1027 1.384 . S
H1030 C1036 0.930 . S
H1031 C1040 0.930 . S
H1032 C1045 0.929 . S
H1033 C1043 0.929 . S
H1034 C1038 0.929 . S
H1035 C1044 0.929 . S
C1036 H1030 0.930 . S
C1036 C1037 1.367 . S
C1036 C1044 1.378 . S
C1037 C1036 1.367 . S
C1037 C1045 1.433 . S
C1038 H1034 0.929 . S
C1038 C1040 1.378 . S
C1038 C1042 1.350 . S
C1039 C1042 1.463 . S
C1039 C1044 1.350 . S
C1039 N1047 1.427 . S
C1040 H1031 0.930 . S
C1040 C1038 1.378 . S
C1040 C1041 1.367 . S
C1041 C1040 1.367 . S
C1041 C1043 1.433 . S
C1042 C1038 1.350 . S
C1042 C1039 1.463 . S
C1042 N1046 1.427 . S
C1043 H1033 0.929 . S
C1043 C1041 1.433 . S
C1043 N1046 1.384 . S
C1044 H1035 0.929 . S
C1044 C1036 1.378 . S
C1044 C1039 1.350 . S
C1045 H1032 0.929 . S
C1045 C1037 1.433 . S
C1045 N1047 1.384 . S
N1046 C1042 1.427 . S
N1046 C1043 1.384 . S
N1047 C1039 1.427 . S
N1047 C1045 1.384 . S
H1048 C1054 0.930 . S
H1049 C1058 0.930 . S
H1050 C1063 0.929 . S
H1051 C1061 0.929 . S
H1052 C1056 0.926 . S
H1053 C1062 0.929 1_554 S
C1054 H1048 0.930 . S
C1054 C1055 1.367 . S
C1054 C1062 1.378 . S
C1055 C1054 1.367 . S
C1055 C1063 1.433 . S
C1056 H1052 0.926 . S
C1056 C1058 1.380 1_556 S
C1056 C1060 1.350 1_556 S
C1057 C1060 1.463 1_556 S
C1057 C1062 1.350 . S
C1057 N1065 1.427 . S
C1058 H1049 0.930 . S
C1058 C1056 1.380 1_554 S
C1058 C1059 1.367 . S
C1059 C1058 1.367 . S
C1059 C1061 1.433 . S
C1060 C1056 1.350 1_554 S
C1060 C1057 1.463 1_554 S
C1060 N1064 1.427 . S
C1061 H1051 0.929 . S
C1061 C1059 1.433 . S
C1061 N1064 1.384 . S
C1062 H1053 0.929 1_556 S
C1062 C1054 1.378 . S
C1062 C1057 1.350 . S
C1063 H1050 0.929 . S
C1063 C1055 1.433 . S
C1063 N1065 1.384 . S
N1064 C1060 1.427 . S
N1064 C1061 1.384 . S
N1065 C1057 1.427 . S
N1065 C1063 1.384 . S
H1066 C1072 0.930 . S
H1067 C1076 0.930 . S
H1068 C1081 0.929 . S
H1069 C1079 0.929 . S
H1070 C1074 0.929 . S
H1071 C1080 0.929 1_556 S
C1072 H1066 0.930 . S
C1072 C1073 1.367 . S
C1072 C1080 1.378 . S
C1073 C1072 1.367 . S
C1073 C1081 1.433 . S
C1074 H1070 0.929 . S
C1074 C1076 1.378 . S
C1074 C1078 1.350 . S
C1075 C1078 1.463 1_554 S
C1075 C1080 1.350 . S
C1075 N1083 1.427 . S
C1076 H1067 0.930 . S
C1076 C1074 1.378 . S
C1076 C1077 1.367 . S
C1077 C1076 1.367 . S
C1077 C1079 1.433 . S
C1078 C1074 1.350 . S
C1078 C1075 1.463 1_556 S
C1078 N1082 1.427 . S
C1079 H1069 0.929 . S
C1079 C1077 1.433 . S
C1079 N1082 1.384 . S
C1080 H1071 0.929 1_554 S
C1080 C1072 1.378 . S
C1080 C1075 1.350 . S
C1081 H1068 0.929 . S
C1081 C1073 1.433 . S
C1081 N1083 1.384 . S
N1082 C1078 1.427 . S
N1082 C1079 1.384 . S
N1083 C1075 1.427 . S
N1083 C1081 1.384 . S
H1084 C1090 0.930 . S
H1085 C1094 0.930 . S
H1086 C1099 0.929 . S
H1087 C1097 0.929 . S
H1088 C1092 0.929 . S
H1089 C1098 0.929 . S
C1090 H1084 0.930 . S
C1090 C1091 1.367 . S
C1090 C1098 1.378 . S
C1091 C1090 1.367 . S
C1091 C1099 1.433 . S
C1092 H1088 0.929 . S
C1092 C1094 1.378 . S
C1092 C1096 1.350 . S
C1093 C1096 1.463 1_556 S
C1093 C1098 1.350 . S
C1093 N1101 1.427 . S
C1094 H1085 0.930 . S
C1094 C1092 1.378 . S
C1094 C1095 1.367 . S
C1095 C1094 1.367 . S
C1095 C1097 1.433 . S
C1096 C1092 1.350 . S
C1096 C1093 1.463 1_554 S
C1096 N1100 1.427 . S
C1097 H1087 0.929 . S
C1097 C1095 1.433 . S
C1097 N1100 1.384 . S
C1098 H1089 0.929 . S
C1098 C1090 1.378 . S
C1098 C1093 1.350 . S
C1099 H1086 0.929 . S
C1099 C1091 1.433 . S
C1099 N1101 1.384 . S
N1100 C1096 1.427 . S
N1100 C1097 1.384 . S
N1101 C1093 1.427 . S
N1101 C1099 1.384 . S
H1102 C1108 0.930 . S
H1103 C1112 0.930 . S
H1104 C1117 0.929 . S
H1105 C1115 0.929 . S
H1106 C1110 0.929 . S
H1107 C1116 0.929 . S
C1108 H1102 0.930 . S
C1108 C1109 1.367 . S
C1108 C1116 1.378 . S
C1109 C1108 1.367 . S
C1109 C1117 1.433 . S
C1110 H1106 0.929 . S
C1110 C1112 1.378 . S
C1110 C1114 1.350 . S
C1111 C1114 1.463 1_554 S
C1111 C1116 1.350 . S
C1111 N1119 1.427 . S
C1112 H1103 0.930 . S
C1112 C1110 1.378 . S
C1112 C1113 1.367 . S
C1113 C1112 1.367 . S
C1113 C1115 1.433 . S
C1114 C1110 1.350 . S
C1114 C1111 1.463 1_556 S
C1114 N1118 1.427 . S
C1115 H1105 0.929 . S
C1115 C1113 1.433 . S
C1115 N1118 1.384 . S
C1116 H1107 0.929 . S
C1116 C1108 1.378 . S
C1116 C1111 1.350 . S
C1117 H1104 0.929 . S
C1117 C1109 1.433 . S
C1117 N1119 1.384 . S
N1118 C1114 1.427 . S
N1118 C1115 1.384 . S
N1119 C1111 1.427 . S
N1119 C1117 1.384 . S
H1120 C1126 0.930 . S
H1121 C1130 0.930 . S
H1122 C1135 0.929 . S
H1123 C1133 0.929 . S
H1124 C1128 0.929 . S
H1125 C1134 0.929 . S
C1126 H1120 0.930 . S
C1126 C1127 1.367 . S
C1126 C1134 1.378 . S
C1127 C1126 1.367 . S
C1127 C1135 1.433 . S
C1128 H1124 0.929 . S
C1128 C1130 1.378 . S
C1128 C1132 1.350 . S
C1129 C1132 1.463 . S
C1129 C1134 1.350 . S
C1129 N1137 1.427 . S
C1130 H1121 0.930 . S
C1130 C1128 1.378 . S
C1130 C1131 1.367 . S
C1131 C1130 1.367 . S
C1131 C1133 1.433 . S
C1132 C1128 1.350 . S
C1132 C1129 1.463 . S
C1132 N1136 1.427 . S
C1133 H1123 0.929 . S
C1133 C1131 1.433 . S
C1133 N1136 1.384 . S
C1134 H1125 0.929 . S
C1134 C1126 1.378 . S
C1134 C1129 1.350 . S
C1135 H1122 0.929 . S
C1135 C1127 1.433 . S
C1135 N1137 1.384 . S
N1136 C1132 1.427 . S
N1136 C1133 1.384 . S
N1137 C1129 1.427 . S
N1137 C1135 1.384 . S
H1138 C1144 0.930 . S
H1139 C1148 0.930 . S
H1140 C1153 0.929 . S
H1141 C1151 0.929 . S
H1142 C1146 0.929 . S
H1143 C1152 0.929 . S
C1144 H1138 0.930 . S
C1144 C1145 1.367 . S
C1144 C1152 1.378 . S
C1145 C1144 1.367 . S
C1145 C1153 1.433 . S
C1146 H1142 0.929 . S
C1146 C1148 1.378 . S
C1146 C1150 1.350 . S
C1147 C1150 1.463 . S
C1147 C1152 1.350 . S
C1147 N1155 1.427 . S
C1148 H1139 0.930 . S
C1148 C1146 1.378 . S
C1148 C1149 1.367 . S
C1149 C1148 1.367 . S
C1149 C1151 1.433 . S
C1150 C1146 1.350 . S
C1150 C1147 1.463 . S
C1150 N1154 1.427 . S
C1151 H1141 0.929 . S
C1151 C1149 1.433 . S
C1151 N1154 1.384 . S
C1152 H1143 0.929 . S
C1152 C1144 1.378 . S
C1152 C1147 1.350 . S
C1153 H1140 0.929 . S
C1153 C1145 1.433 . S
C1153 N1155 1.384 . S
N1154 C1150 1.427 . S
N1154 C1151 1.384 . S
N1155 C1147 1.427 . S
N1155 C1153 1.384 . S
H1156 C1162 0.930 . S
H1157 C1166 0.930 . S
H1158 C1171 0.929 . S
H1159 C1169 0.929 . S
H1160 C1164 0.929 . S
H1161 C1170 0.929 . S
C1162 H1156 0.930 . S
C1162 C1163 1.367 . S
C1162 C1170 1.378 . S
C1163 C1162 1.367 . S
C1163 C1171 1.433 . S
C1164 H1160 0.929 . S
C1164 C1166 1.378 . S
C1164 C1168 1.350 . S
C1165 C1168 1.463 . S
C1165 C1170 1.350 . S
C1165 N1173 1.427 . S
C1166 H1157 0.930 . S
C1166 C1164 1.378 . S
C1166 C1167 1.367 . S
C1167 C1166 1.367 . S
C1167 C1169 1.433 . S
C1168 C1164 1.350 . S
C1168 C1165 1.463 . S
C1168 N1172 1.427 . S
C1169 H1159 0.929 . S
C1169 C1167 1.433 . S
C1169 N1172 1.384 . S
C1170 H1161 0.929 . S
C1170 C1162 1.378 . S
C1170 C1165 1.350 . S
C1171 H1158 0.929 . S
C1171 C1163 1.433 . S
C1171 N1173 1.384 . S
N1172 C1168 1.427 . S
N1172 C1169 1.384 . S
N1173 C1165 1.427 . S
N1173 C1171 1.384 . S
H1174 C1180 0.930 . S
H1175 C1184 0.930 . S
H1176 C1189 0.929 . S
H1177 C1187 0.929 . S
H1178 C1182 0.929 . S
H1179 C1188 0.929 . S
C1180 H1174 0.930 . S
C1180 C1181 1.367 . S
C1180 C1188 1.378 . S
C1181 C1180 1.367 . S
C1181 C1189 1.433 . S
C1182 H1178 0.929 . S
C1182 C1184 1.378 . S
C1182 C1186 1.350 . S
C1183 C1186 1.463 . S
C1183 C1188 1.350 . S
C1183 N1191 1.427 . S
C1184 H1175 0.930 . S
C1184 C1182 1.378 . S
C1184 C1185 1.367 . S
C1185 C1184 1.367 . S
C1185 C1187 1.433 . S
C1186 C1182 1.350 . S
C1186 C1183 1.463 . S
C1186 N1190 1.427 . S
C1187 H1177 0.929 . S
C1187 C1185 1.433 . S
C1187 N1190 1.384 . S
C1188 H1179 0.929 . S
C1188 C1180 1.378 . S
C1188 C1183 1.350 . S
C1189 H1176 0.929 . S
C1189 C1181 1.433 . S
C1189 N1191 1.384 . S
N1190 C1186 1.427 . S
N1190 C1187 1.384 . S
N1191 C1183 1.427 . S
N1191 C1189 1.384 . S
H1192 C1198 0.930 . S
H1193 C1202 0.930 . S
H1194 C1207 0.929 . S
H1195 C1205 0.929 . S
H1196 C1200 0.929 1_554 S
H1197 C1206 0.929 . S
C1198 H1192 0.930 . S
C1198 C1199 1.367 . S
C1198 C1206 1.378 . S
C1199 C1198 1.367 . S
C1199 C1207 1.433 . S
C1200 H1196 0.929 1_556 S
C1200 C1202 1.378 . S
C1200 C1204 1.350 . S
C1201 C1204 1.463 1_554 S
C1201 C1206 1.350 . S
C1201 N1209 1.427 . S
C1202 H1193 0.930 . S
C1202 C1200 1.378 . S
C1202 C1203 1.367 . S
C1203 C1202 1.367 . S
C1203 C1205 1.433 . S
C1204 C1200 1.350 . S
C1204 C1201 1.463 1_556 S
C1204 N1208 1.427 . S
C1205 H1195 0.929 . S
C1205 C1203 1.433 . S
C1205 N1208 1.384 . S
C1206 H1197 0.929 . S
C1206 C1198 1.378 . S
C1206 C1201 1.350 . S
C1207 H1194 0.929 . S
C1207 C1199 1.433 . S
C1207 N1209 1.384 . S
N1208 C1204 1.427 . S
N1208 C1205 1.384 . S
N1209 C1201 1.427 . S
N1209 C1207 1.384 . S
H1210 C1216 0.930 . S
H1211 C1220 0.930 . S
H1212 C1225 0.929 . S
H1213 C1223 0.929 . S
H1214 C1218 0.929 . S
H1215 C1224 0.929 . S
C1216 H1210 0.930 . S
C1216 C1217 1.367 . S
C1216 C1224 1.378 . S
C1217 C1216 1.367 . S
C1217 C1225 1.433 . S
C1218 H1214 0.929 . S
C1218 C1220 1.378 . S
C1218 C1222 1.350 . S
C1219 C1222 1.463 1_556 S
C1219 C1224 1.350 . S
C1219 N1227 1.427 . S
C1220 H1211 0.930 . S
C1220 C1218 1.378 . S
C1220 C1221 1.367 . S
C1221 C1220 1.367 . S
C1221 C1223 1.433 . S
C1222 C1218 1.350 . S
C1222 C1219 1.463 1_554 S
C1222 N1226 1.427 . S
C1223 H1213 0.929 . S
C1223 C1221 1.433 . S
C1223 N1226 1.384 . S
C1224 H1215 0.929 . S
C1224 C1216 1.378 . S
C1224 C1219 1.350 . S
C1225 H1212 0.929 . S
C1225 C1217 1.433 . S
C1225 N1227 1.384 . S
N1226 C1222 1.427 . S
N1226 C1223 1.384 . S
N1227 C1219 1.427 . S
N1227 C1225 1.384 . S
H1228 C1234 0.930 . S
H1229 C1238 0.930 . S
H1230 C1243 0.929 . S
H1231 C1241 0.929 . S
H1232 C1236 0.929 . S
H1233 C1242 0.929 . S
C1234 H1228 0.930 . S
C1234 C1235 1.367 . S
C1234 C1242 1.378 . S
C1235 C1234 1.367 . S
C1235 C1243 1.433 . S
C1236 H1232 0.929 . S
C1236 C1238 1.378 . S
C1236 C1240 1.350 . S
C1237 C1240 1.463 1_554 S
C1237 C1242 1.350 . S
C1237 N1245 1.427 . S
C1238 H1229 0.930 . S
C1238 C1236 1.378 . S
C1238 C1239 1.367 . S
C1239 C1238 1.367 . S
C1239 C1241 1.433 . S
C1240 C1236 1.350 . S
C1240 C1237 1.463 1_556 S
C1240 N1244 1.427 1_556 S
C1241 H1231 0.929 . S
C1241 C1239 1.433 . S
C1241 N1244 1.384 1_556 S
C1242 H1233 0.929 . S
C1242 C1234 1.378 . S
C1242 C1237 1.350 . S
C1243 H1230 0.929 . S
C1243 C1235 1.433 . S
C1243 N1245 1.384 . S
N1244 C1240 1.427 1_554 S
N1244 C1241 1.384 1_554 S
N1245 C1237 1.427 . S
N1245 C1243 1.384 . S
H1246 C1252 0.930 . S
H1247 C1256 0.930 . S
H1248 C1261 0.929 . S
H1249 C1259 0.929 . S
H1250 C1254 0.929 . S
H1251 C1260 0.929 . S
C1252 H1246 0.930 . S
C1252 C1253 1.367 . S
C1252 C1260 1.378 . S
C1253 C1252 1.367 . S
C1253 C1261 1.433 . S
C1254 H1250 0.929 . S
C1254 C1256 1.378 . S
C1254 C1258 1.350 . S
C1255 C1258 1.463 1_554 S
C1255 C1260 1.350 . S
C1255 N1263 1.427 . S
C1256 H1247 0.930 . S
C1256 C1254 1.378 . S
C1256 C1257 1.367 . S
C1257 C1256 1.367 . S
C1257 C1259 1.433 . S
C1258 C1254 1.350 . S
C1258 C1255 1.463 1_556 S
C1258 N1262 1.427 . S
C1259 H1249 0.929 . S
C1259 C1257 1.433 . S
C1259 N1262 1.384 . S
C1260 H1251 0.929 . S
C1260 C1252 1.378 . S
C1260 C1255 1.350 . S
C1261 H1248 0.929 . S
C1261 C1253 1.433 . S
C1261 N1263 1.384 . S
N1262 C1258 1.427 . S
N1262 C1259 1.384 . S
N1263 C1255 1.427 . S
N1263 C1261 1.384 . S
C551 C111 1.643 . S
C555 C2 1.668 . S
C569 C36 1.663 . S
C573 C9 1.643 . S
C587 C70 1.667 . S
C591 C43 1.646 . S
C605 C104 1.668 . S
C609 C77 1.642 . S
C623 C179 1.648 . S
C627 C138 1.666 . S
C641 C213 1.641 . S
C645 C172 1.663 . S
C659 C206 1.663 . S
C663 C247 1.644 . S
C677 C145 1.639 . S
C681 C240 1.665 . S
C695 C274 1.663 . S
C699 C383 1.646 . S
C713 C308 1.663 . S
C717 C281 1.641 . S
C731 C315 1.639 . S
C735 C342 1.666 . S
C749 C376 1.663 . S
C753 C349 1.644 . S
C767 C451 1.643 . S
C771 C410 1.668 . S
C785 C444 1.665 . S
C789 C485 1.648 . S
C803 C478 1.665 . S
C807 C519 1.648 . S
C821 C512 1.663 . S
C825 C417 1.640 . S
C839 C33 1.959 . S
C843 C203 1.961 . S
C857 C67 1.958 . S
C861 C237 1.961 . S
C875 C271 1.957 . S
C879 C101 1.956 . S
C893 C135 1.959 . S
C897 C169 1.961 . S
C911 C475 1.962 . S
C915 C305 1.964 . S
C929 C509 1.956 . S
C933 C339 1.957 . S
C947 C373 1.956 . S
C951 C543 1.957 . S
C965 C441 1.965 . S
C969 C407 1.964 . S
C983 C5 1.103 . S
C987 C394 1.119 . S
C1001 C39 1.090 . S
C1005 C292 1.114 . S
C1019 C73 1.084 . S
C1023 C326 1.109 . S
C1037 C107 1.087 . S
C1041 C360 1.108 . S
C1055 C462 1.108 . S
C1059 C141 1.086 . S
C1073 C175 1.093 . S
C1077 C496 1.111 . S
C1091 C530 1.117 . S
C1095 C209 1.100 . S
C1109 C243 1.092 . S
C1113 C428 1.116 . S
C1127 C122 1.108 . S
C1131 C277 1.083 . S
C1145 C20 1.119 . S
C1149 C311 1.100 . S
C1163 C54 1.119 . S
C1167 C345 1.102 . S
C1181 C88 1.117 . S
C1185 C379 1.095 . S
C1199 C190 1.111 . S
C1203 C413 1.092 . S
C1217 C447 1.102 . S
C1221 C224 1.119 . S
C1235 C258 1.120 . S
C1239 C481 1.102 . S
C1253 C156 1.115 . S
C1257 C515 1.092 . S
