# Generated by pormake.
# Topology ume, (4)-cn, num edge types: 1
# Building blocks:
#     Node 0, Type 0, BuildingBlock: QUQFOY_clean_sbu_3, # of connection points: 4
#     Node 1, Type 0, BuildingBlock: QUQFOY_clean_sbu_3, # of connection points: 4
#     Node 2, Type 0, BuildingBlock: QUQFOY_clean_sbu_3, # of connection points: 4
#     Node 3, Type 0, BuildingBlock: QUQFOY_clean_sbu_3, # of connection points: 4
#     Node 4, Type 0, BuildingBlock: QUQFOY_clean_sbu_3, # of connection points: 4
#     Node 5, Type 0, BuildingBlock: QUQFOY_clean_sbu_3, # of connection points: 4
#     Node 6, Type 0, BuildingBlock: QUQFOY_clean_sbu_3, # of connection points: 4
#     Node 7, Type 0, BuildingBlock: QUQFOY_clean_sbu_3, # of connection points: 4
#     Node 8, Type 0, BuildingBlock: QUQFOY_clean_sbu_3, # of connection points: 4
#     Node 9, Type 0, BuildingBlock: QUQFOY_clean_sbu_3, # of connection points: 4
#     Node 10, Type 0, BuildingBlock: QUQFOY_clean_sbu_3, # of connection points: 4
#     Node 11, Type 0, BuildingBlock: QUQFOY_clean_sbu_3, # of connection points: 4
#     Node 12, Type 0, BuildingBlock: QUQFOY_clean_sbu_3, # of connection points: 4
#     Node 13, Type 0, BuildingBlock: QUQFOY_clean_sbu_3, # of connection points: 4
#     Node 14, Type 0, BuildingBlock: QUQFOY_clean_sbu_3, # of connection points: 4
#     Node 15, Type 0, BuildingBlock: QUQFOY_clean_sbu_3, # of connection points: 4
#     Edge 16, Type (0, 0), BuildingBlock: EYOCIG_clean_linker_4, # of connection points: 2
#     Edge 17, Type (0, 0), BuildingBlock: EYOCIG_clean_linker_4, # of connection points: 2
#     Edge 18, Type (0, 0), BuildingBlock: EYOCIG_clean_linker_4, # of connection points: 2
#     Edge 19, Type (0, 0), BuildingBlock: EYOCIG_clean_linker_4, # of connection points: 2
#     Edge 20, Type (0, 0), BuildingBlock: EYOCIG_clean_linker_4, # of connection points: 2
#     Edge 21, Type (0, 0), BuildingBlock: EYOCIG_clean_linker_4, # of connection points: 2
#     Edge 22, Type (0, 0), BuildingBlock: EYOCIG_clean_linker_4, # of connection points: 2
#     Edge 23, Type (0, 0), BuildingBlock: EYOCIG_clean_linker_4, # of connection points: 2
#     Edge 24, Type (0, 0), BuildingBlock: EYOCIG_clean_linker_4, # of connection points: 2
#     Edge 25, Type (0, 0), BuildingBlock: EYOCIG_clean_linker_4, # of connection points: 2
#     Edge 26, Type (0, 0), BuildingBlock: EYOCIG_clean_linker_4, # of connection points: 2
#     Edge 27, Type (0, 0), BuildingBlock: EYOCIG_clean_linker_4, # of connection points: 2
#     Edge 28, Type (0, 0), BuildingBlock: EYOCIG_clean_linker_4, # of connection points: 2
#     Edge 29, Type (0, 0), BuildingBlock: EYOCIG_clean_linker_4, # of connection points: 2
#     Edge 30, Type (0, 0), BuildingBlock: EYOCIG_clean_linker_4, # of connection points: 2
#     Edge 31, Type (0, 0), BuildingBlock: EYOCIG_clean_linker_4, # of connection points: 2
#     Edge 32, Type (0, 0), BuildingBlock: EYOCIG_clean_linker_4, # of connection points: 2
#     Edge 33, Type (0, 0), BuildingBlock: EYOCIG_clean_linker_4, # of connection points: 2
#     Edge 34, Type (0, 0), BuildingBlock: EYOCIG_clean_linker_4, # of connection points: 2
#     Edge 35, Type (0, 0), BuildingBlock: EYOCIG_clean_linker_4, # of connection points: 2
#     Edge 36, Type (0, 0), BuildingBlock: EYOCIG_clean_linker_4, # of connection points: 2
#     Edge 37, Type (0, 0), BuildingBlock: EYOCIG_clean_linker_4, # of connection points: 2
#     Edge 38, Type (0, 0), BuildingBlock: EYOCIG_clean_linker_4, # of connection points: 2
#     Edge 39, Type (0, 0), BuildingBlock: EYOCIG_clean_linker_4, # of connection points: 2
#     Edge 40, Type (0, 0), BuildingBlock: EYOCIG_clean_linker_4, # of connection points: 2
#     Edge 41, Type (0, 0), BuildingBlock: EYOCIG_clean_linker_4, # of connection points: 2
#     Edge 42, Type (0, 0), BuildingBlock: EYOCIG_clean_linker_4, # of connection points: 2
#     Edge 43, Type (0, 0), BuildingBlock: EYOCIG_clean_linker_4, # of connection points: 2
#     Edge 44, Type (0, 0), BuildingBlock: EYOCIG_clean_linker_4, # of connection points: 2
#     Edge 45, Type (0, 0), BuildingBlock: EYOCIG_clean_linker_4, # of connection points: 2
#     Edge 46, Type (0, 0), BuildingBlock: EYOCIG_clean_linker_4, # of connection points: 2
#     Edge 47, Type (0, 0), BuildingBlock: EYOCIG_clean_linker_4, # of connection points: 2
# Relax obj value: 0.095
# Max RMSD: 0.142
# Mean RMSD: 0.141
data_MOF--net-ume--node1-QUQFOY_clean_sbu_3--edge1-EYOCIG_clean_linker_4
_symmetry_space_group_name_H-M    P1
_symmetry_Int_Tables_number       1
_symmetry_cell_setting            triclinic
loop_
_symmetry_equiv_pos_as_xyz
'x, y, z'
_cell_length_a     23.146307
_cell_length_b     23.146598
_cell_length_c     92.95535
_cell_angle_alpha  90.022093
_cell_angle_beta   90.005899
_cell_angle_gamma 90.000234
loop_
_atom_site_label
_atom_site_type_symbol
_atom_site_fract_x
_atom_site_fract_y
_atom_site_fract_z
_atom_type_partial_charge
C0 C 0.26317 0.19686 0.25753 0.0
O1 O 0.29432 0.22785 0.2657 0.0
Cd2 Cd 0.31256 0.20013 0.2903 0.0
O3 O 0.23746 0.15218 0.26223 0.0
Cd4 Cd 0.22036 0.09831 0.2847 0.0
C5 C 0.36078 0.06027 0.28459 0.0
O6 O 0.22179 0.1801 0.30148 0.0
O7 O 0.22724 0.09446 0.31075 0.0
O8 O 0.11773 0.09753 0.27873 0.0
C9 C 0.22349 0.14852 0.3126 0.0
O10 O 0.37048 0.11219 0.28836 0.0
C11 C 0.1119 0.04333 0.28 0.0
O12 O 0.30996 0.04249 0.28175 0.0
O13 O 0.15643 0.01403 0.2832 0.0
C14 C 0.76651 0.76047 0.50729 0.0
O15 O 0.73544 0.79177 0.51539 0.0
Cd16 Cd 0.76431 0.81189 0.53984 0.0
O17 O 0.81167 0.73565 0.512 0.0
Cd18 Cd 0.86653 0.72032 0.53436 0.0
C19 C 0.90342 0.86107 0.53357 0.0
O20 O 0.78546 0.72195 0.55137 0.0
O21 O 0.87151 0.72812 0.5604 0.0
O22 O 0.8673 0.61768 0.52852 0.0
C23 C 0.81755 0.7242 0.5624 0.0
O24 O 0.85159 0.87068 0.53743 0.0
C25 C 0.92158 0.61195 0.52963 0.0
O26 O 0.92144 0.81016 0.53092 0.0
O27 O 0.95097 0.65655 0.53272 0.0
C28 C 0.20051 0.26632 0.75746 0.0
O29 O 0.16961 0.23539 0.76569 0.0
Cd30 Cd 0.15177 0.26469 0.79021 0.0
O31 O 0.22583 0.31135 0.76208 0.0
Cd32 Cd 0.24295 0.36595 0.78441 0.0
C33 C 0.10248 0.40402 0.78435 0.0
O34 O 0.24305 0.28445 0.80131 0.0
O35 O 0.23772 0.37021 0.81052 0.0
O36 O 0.34493 0.36593 0.77788 0.0
C37 C 0.24224 0.31623 0.81241 0.0
O38 O 0.09298 0.35216 0.78819 0.0
C39 C 0.35131 0.42009 0.77907 0.0
O40 O 0.15325 0.42182 0.78147 0.0
O41 O 0.30735 0.44978 0.78254 0.0
C42 C 0.69764 0.70103 0.00749 0.0
O43 O 0.72931 0.67083 0.0157 0.0
Cd44 Cd 0.70061 0.65217 0.04022 0.0
O45 O 0.65225 0.72561 0.01214 0.0
Cd46 Cd 0.59761 0.74244 0.03446 0.0
C47 C 0.56203 0.60113 0.03406 0.0
O48 O 0.67912 0.743 0.05131 0.0
O49 O 0.59348 0.73695 0.06057 0.0
O50 O 0.5974 0.84433 0.02784 0.0
C51 C 0.64747 0.74168 0.06242 0.0
O52 O 0.614 0.59228 0.03792 0.0
C53 C 0.54328 0.85078 0.02912 0.0
O54 O 0.54338 0.65175 0.03134 0.0
O55 O 0.51365 0.80687 0.03266 0.0
C56 C 0.26137 0.26786 0.93649 0.0
O57 O 0.29151 0.23546 0.92843 0.0
Cd58 Cd 0.31119 0.26199 0.90379 0.0
O59 O 0.23697 0.31296 0.93163 0.0
Cd60 Cd 0.22027 0.36626 0.90914 0.0
C61 C 0.3618 0.40107 0.90964 0.0
O62 O 0.22149 0.28449 0.89235 0.0
O63 O 0.22666 0.37015 0.88307 0.0
O64 O 0.11824 0.36639 0.91563 0.0
C65 C 0.22367 0.31602 0.88122 0.0
O66 O 0.37065 0.34886 0.90597 0.0
C67 C 0.1119 0.42056 0.91442 0.0
O68 O 0.31116 0.42006 0.91221 0.0
O69 O 0.15585 0.45019 0.9109 0.0
C70 C 0.69403 0.76203 0.18643 0.0
O71 O 0.7258 0.79302 0.17843 0.0
Cd72 Cd 0.69889 0.81244 0.15383 0.0
O73 O 0.6494 0.73684 0.18153 0.0
Cd74 Cd 0.59636 0.72013 0.15897 0.0
C75 C 0.55917 0.8608 0.15978 0.0
O76 O 0.67869 0.72216 0.14235 0.0
O77 O 0.59332 0.72713 0.1329 0.0
O78 O 0.59556 0.61787 0.16519 0.0
C79 C 0.64748 0.72398 0.13116 0.0
O80 O 0.61118 0.87065 0.1561 0.0
C81 C 0.54142 0.61184 0.16381 0.0
O82 O 0.54109 0.80979 0.16225 0.0
O83 O 0.51215 0.65605 0.16033 0.0
C84 C 0.20244 0.19652 0.43652 0.0
O85 O 0.17183 0.22827 0.42842 0.0
Cd86 Cd 0.15221 0.20031 0.4039 0.0
O87 O 0.22689 0.15124 0.43175 0.0
Cd88 Cd 0.24228 0.09721 0.40924 0.0
C89 C 0.10106 0.06178 0.40991 0.0
O90 O 0.24251 0.17913 0.3925 0.0
O91 O 0.23523 0.0937 0.38317 0.0
O92 O 0.34464 0.09554 0.41531 0.0
C93 C 0.24045 0.14766 0.38136 0.0
O94 O 0.09211 0.11383 0.40614 0.0
C95 C 0.35024 0.04136 0.41393 0.0
O96 O 0.15176 0.04307 0.4125 0.0
O97 O 0.30564 0.01237 0.41061 0.0
C98 C 0.76603 0.69952 0.68636 0.0
O99 O 0.73491 0.66917 0.67804 0.0
Cd100 Cd 0.76359 0.65198 0.65344 0.0
O101 O 0.81113 0.72493 0.6818 0.0
Cd102 Cd 0.8657 0.74254 0.65947 0.0
C103 C 0.9026 0.60188 0.65932 0.0
O104 O 0.78478 0.74293 0.64241 0.0
O105 O 0.87083 0.73612 0.63343 0.0
O106 O 0.86667 0.84497 0.66557 0.0
C107 C 0.81699 0.7412 0.6314 0.0
O108 O 0.85076 0.59285 0.65539 0.0
C109 C 0.92095 0.85062 0.66446 0.0
O110 O 0.92072 0.65242 0.66235 0.0
O111 O 0.95025 0.80601 0.66132 0.0
C112 C 0.76111 0.6949 0.75738 0.0
O113 O 0.79159 0.72715 0.7654 0.0
Cd114 Cd 0.81115 0.70078 0.79006 0.0
O115 O 0.73653 0.64997 0.76228 0.0
Cd116 Cd 0.71992 0.59692 0.78481 0.0
C117 C 0.86126 0.56133 0.78452 0.0
O118 O 0.72119 0.67912 0.80149 0.0
O119 O 0.72588 0.59366 0.8109 0.0
O120 O 0.61797 0.59709 0.77827 0.0
C121 C 0.72301 0.64783 0.81266 0.0
O122 O 0.87027 0.61361 0.7881 0.0
C123 C 0.61138 0.54297 0.77951 0.0
O124 O 0.81059 0.54251 0.78191 0.0
O125 O 0.65516 0.5132 0.78309 0.0
C126 C 0.26687 0.26366 0.00753 0.0
O127 O 0.23591 0.2946 0.01575 0.0
Cd128 Cd 0.26431 0.31282 0.04031 0.0
O129 O 0.31163 0.2379 0.01217 0.0
Cd130 Cd 0.36633 0.21975 0.03444 0.0
C131 C 0.40417 0.36045 0.03406 0.0
O132 O 0.28505 0.22195 0.05134 0.0
O133 O 0.3709 0.22588 0.06054 0.0
O134 O 0.3661 0.11749 0.02801 0.0
C135 C 0.31679 0.22336 0.06244 0.0
O136 O 0.35242 0.37034 0.03795 0.0
C137 C 0.42028 0.11106 0.02917 0.0
O138 O 0.42182 0.30949 0.0313 0.0
O139 O 0.45004 0.15504 0.03259 0.0
C140 C 0.69889 0.76741 0.25749 0.0
O141 O 0.66874 0.73592 0.26576 0.0
Cd142 Cd 0.65121 0.76371 0.29039 0.0
O143 O 0.72431 0.81239 0.26212 0.0
Cd144 Cd 0.74249 0.86619 0.28452 0.0
C145 C 0.6018 0.90308 0.28454 0.0
O146 O 0.74179 0.78526 0.30149 0.0
O147 O 0.73544 0.87133 0.31052 0.0
O148 O 0.845 0.86531 0.27851 0.0
C149 C 0.7398 0.8174 0.31251 0.0
O150 O 0.59269 0.85116 0.28839 0.0
C151 C 0.85168 0.91944 0.27971 0.0
O152 O 0.6524 0.92133 0.28161 0.0
O153 O 0.80757 0.94955 0.28282 0.0
C154 C 0.19778 0.20133 0.50745 0.0
O155 O 0.22924 0.17059 0.5156 0.0
Cd156 Cd 0.20087 0.15059 0.54007 0.0
O157 O 0.15255 0.22606 0.51215 0.0
Cd158 Cd 0.09803 0.24241 0.53451 0.0
C159 C 0.06165 0.10139 0.53373 0.0
O160 O 0.17899 0.24047 0.55147 0.0
O161 O 0.09297 0.23495 0.56054 0.0
O162 O 0.09898 0.34483 0.52844 0.0
C163 C 0.147 0.23824 0.56252 0.0
O164 O 0.11355 0.09199 0.53757 0.0
C165 C 0.04487 0.35162 0.52964 0.0
O166 O 0.04334 0.15223 0.53112 0.0
O167 O 0.01473 0.30766 0.53287 0.0
C168 C 0.76177 0.76534 0.43646 0.0
O169 O 0.7929 0.73457 0.42824 0.0
Cd170 Cd 0.812 0.76441 0.40383 0.0
O171 O 0.7366 0.81049 0.43186 0.0
Cd172 Cd 0.72015 0.86544 0.40958 0.0
C173 C 0.86052 0.90369 0.41022 0.0
O174 O 0.72151 0.78484 0.39247 0.0
O175 O 0.7277 0.87109 0.38357 0.0
O176 O 0.61754 0.86415 0.41545 0.0
C177 C 0.72325 0.81721 0.38149 0.0
O178 O 0.8703 0.852 0.40627 0.0
C179 C 0.61072 0.91826 0.4143 0.0
O180 O 0.80957 0.92134 0.41298 0.0
O181 O 0.65477 0.94854 0.41124 0.0
C182 C 0.19577 0.26132 0.68656 0.0
O183 O 0.22728 0.292 0.67842 0.0
Cd184 Cd 0.19898 0.31063 0.65385 0.0
O185 O 0.15069 0.23646 0.68181 0.0
Cd186 Cd 0.09724 0.22 0.6593 0.0
C187 C 0.0597 0.36054 0.65942 0.0
O188 O 0.17889 0.22003 0.64247 0.0
O189 O 0.09314 0.22643 0.63326 0.0
O190 O 0.09819 0.1178 0.66549 0.0
C191 C 0.14708 0.22146 0.63138 0.0
O192 O 0.11177 0.36978 0.65572 0.0
C193 C 0.04414 0.11091 0.66421 0.0
O194 O 0.04147 0.30984 0.66221 0.0
O195 O 0.014 0.15475 0.66088 0.0
C196 C 0.70146 0.69567 0.93657 0.0
O197 O 0.67029 0.72687 0.92846 0.0
Cd198 Cd 0.65144 0.69819 0.90395 0.0
O199 O 0.72663 0.65081 0.9318 0.0
Cd200 Cd 0.74312 0.59698 0.90934 0.0
C201 C 0.6027 0.55867 0.9098 0.0
O202 O 0.74231 0.67895 0.89256 0.0
O203 O 0.73734 0.5934 0.88322 0.0
O204 O 0.8451 0.59731 0.91585 0.0
C205 C 0.74136 0.64747 0.88141 0.0
O206 O 0.59288 0.61061 0.90607 0.0
C207 C 0.85173 0.54322 0.91456 0.0
O208 O 0.65368 0.54089 0.91245 0.0
O209 O 0.80796 0.51343 0.91099 0.0
C210 C 0.26708 0.20212 0.18655 0.0
O211 O 0.23483 0.17209 0.17843 0.0
Cd212 Cd 0.263 0.15265 0.15391 0.0
O213 O 0.31242 0.22629 0.18176 0.0
Cd214 Cd 0.36564 0.24242 0.15924 0.0
C215 C 0.40146 0.10144 0.15997 0.0
O216 O 0.28415 0.24275 0.14236 0.0
O217 O 0.36991 0.23545 0.1332 0.0
O218 O 0.36479 0.34445 0.16555 0.0
C219 C 0.31601 0.24088 0.13129 0.0
O220 O 0.34939 0.09251 0.15621 0.0
C221 C 0.4188 0.35142 0.16418 0.0
O222 O 0.42025 0.15215 0.16253 0.0
O223 O 0.4489 0.30767 0.16075 0.0
C224 C 0.9547 0.96746 0.27751 0.0
C225 C 0.90783 0.94516 0.27849 0.0
C226 C 0.00962 -0.00613 0.27758 0.0
C227 C 0.05625 0.01661 0.27868 0.0
C228 C 0.97111 0.50976 0.52713 0.0
C229 C 0.9483 0.55633 0.52826 0.0
C230 C -0.0027 0.45474 0.52712 0.0
C231 C 0.01925 0.40776 0.52826 0.0
C232 C 0.50889 0.49468 0.77634 0.0
C233 C 0.55558 0.51696 0.77777 0.0
C234 C 0.45383 0.46858 0.77623 0.0
C235 C 0.40712 0.44622 0.77752 0.0
C236 C 0.46885 0.00852 0.02625 0.0
C237 C 0.44644 0.05523 0.02757 0.0
C238 C 0.49494 0.95342 0.02624 0.0
C239 C 0.51717 0.90663 0.02755 0.0
C240 C 0.00943 0.46899 0.91749 0.0
C241 C 0.05616 0.44676 0.9161 0.0
C242 C 0.95432 0.49499 0.91753 0.0
C243 C 0.90759 0.51725 0.91619 0.0
C244 C 0.46609 0.45462 0.16669 0.0
C245 C 0.44426 0.4076 0.16556 0.0
C246 C 0.49209 0.50971 0.1666 0.0
C247 C 0.51477 0.55627 0.16533 0.0
C248 C 0.45231 -0.00839 0.41642 0.0
C249 C 0.40573 0.01439 0.41529 0.0
C250 C 0.50739 0.96554 0.41651 0.0
C251 C 0.55447 0.94375 0.41551 0.0
C252 C -0.00334 0.00783 0.6668 0.0
C253 C 0.01858 0.05479 0.66563 0.0
C254 C 0.97051 0.95281 0.66687 0.0
C255 C 0.94772 0.90622 0.66578 0.0
C256 C 0.50796 0.96704 0.28277 0.0
C257 C 0.55286 0.94076 0.28331 0.0
C258 C 0.45398 -0.00459 0.28279 0.0
C259 C 0.40929 0.02204 0.28334 0.0
C260 C 0.96836 0.95418 0.53145 0.0
C261 C 0.94153 0.90964 0.53216 0.0
C262 C -0.00271 0.00789 0.53149 0.0
C263 C 0.02388 0.05258 0.53226 0.0
C264 C 0.0092 0.46894 0.78259 0.0
C265 C 0.05387 0.44221 0.78312 0.0
C266 C 0.95527 0.4975 0.78265 0.0
C267 C 0.91038 0.52382 0.78326 0.0
C268 C 0.49819 0.50717 0.03196 0.0
C269 C 0.52461 0.55198 0.03267 0.0
C270 C 0.46936 0.45339 0.03195 0.0
C271 C 0.44248 0.40886 0.03264 0.0
C272 C 0.4559 0.46467 0.9117 0.0
C273 C 0.41102 0.43838 0.91099 0.0
C274 C 0.50973 0.49341 0.91175 0.0
C275 C 0.55428 0.5203 0.91112 0.0
C276 C 0.49415 0.95379 0.16207 0.0
C277 C 0.52101 0.90928 0.16127 0.0
C278 C 0.4653 0.00753 0.16212 0.0
C279 C 0.4389 0.05234 0.16138 0.0
C280 C 0.95351 0.9689 0.41226 0.0
C281 C 0.90896 0.94202 0.4116 0.0
C282 C 0.00724 -0.00217 0.41216 0.0
C283 C 0.05198 0.02434 0.41137 0.0
C284 C -0.00471 0.45419 0.66109 0.0
C285 C 0.02178 0.40938 0.66058 0.0
C286 C 0.96683 0.50815 0.66108 0.0
C287 C 0.94036 0.55296 0.66054 0.0
C288 C 0.23107 0.18321 0.33943 0.0
C289 C 0.22728 0.17247 0.32679 0.0
C290 C 0.2357 0.18293 0.35454 0.0
C291 C 0.23834 0.17181 0.36718 0.0
C292 C 0.78359 0.73143 0.58931 0.0
C293 C 0.79421 0.72778 0.57666 0.0
C294 C 0.78343 0.73605 0.60443 0.0
C295 C 0.7938 0.73884 0.61711 0.0
C296 C 0.23814 0.28155 0.8393 0.0
C297 C 0.2404 0.29246 0.82664 0.0
C298 C 0.23322 0.28132 0.85442 0.0
C299 C 0.22857 0.29204 0.86705 0.0
C300 C 0.68254 0.73711 0.08928 0.0
C301 C 0.67144 0.7396 0.07664 0.0
C302 C 0.6828 0.73237 0.1044 0.0
C303 C 0.67188 0.72824 0.11702 0.0
C304 C 0.73189 0.68295 0.83944 0.0
C305 C 0.72756 0.67211 0.82681 0.0
C306 C 0.73672 0.68269 0.85457 0.0
C307 C 0.7392 0.67159 0.86721 0.0
C308 C 0.28182 0.23756 0.10436 0.0
C309 C 0.29239 0.23957 0.11704 0.0
C310 C 0.28209 0.23287 0.08924 0.0
C311 C 0.29303 0.22831 0.07662 0.0
C312 C 0.73295 0.78363 0.33942 0.0
C313 C 0.73645 0.79411 0.32676 0.0
C314 C 0.72847 0.78369 0.35453 0.0
C315 C 0.72571 0.79419 0.3672 0.0
C316 C 0.18142 0.22506 0.60448 0.0
C317 C 0.17079 0.22297 0.61715 0.0
C318 C 0.18128 0.22958 0.58936 0.0
C319 C 0.17049 0.23383 0.57674 0.0
C320 C 0.25344 0.21455 0.22964 0.0
C321 C 0.25974 0.20928 0.24244 0.0
C322 C 0.25084 0.21238 0.21448 0.0
C323 C 0.25536 0.20592 0.20167 0.0
C324 C 0.75123 0.74688 0.46428 0.0
C325 C 0.75797 0.75231 0.4515 0.0
C326 C 0.74873 0.74932 0.47944 0.0
C327 C 0.75395 0.75626 0.49222 0.0
C328 C 0.2131 0.25064 0.71444 0.0
C329 C 0.20808 0.25736 0.70164 0.0
C330 C 0.21064 0.24821 0.7296 0.0
C331 C 0.20409 0.25349 0.74239 0.0
C332 C 0.71234 0.71316 0.96444 0.0
C333 C 0.70553 0.708 0.95165 0.0
C334 C 0.715 0.71093 -0.0204 0.0
C335 C 0.71006 0.70456 -0.0076 0.0
C336 C 0.24931 0.2547 -0.02038 0.0
C337 C 0.25446 0.26068 -0.00757 0.0
C338 C 0.25147 0.25224 0.96446 0.0
C339 C 0.25772 0.2566 0.95163 0.0
C340 C 0.70738 0.75013 0.22956 0.0
C341 C 0.70164 0.75512 0.24238 0.0
C342 C 0.70972 0.7523 0.2144 0.0
C343 C 0.70524 0.75849 0.20157 0.0
C344 C 0.213 0.21382 0.46441 0.0
C345 C 0.20643 0.2087 0.45161 0.0
C346 C 0.21531 0.21159 0.47957 0.0
C347 C 0.21015 0.2051 0.49237 0.0
C348 C 0.74816 0.70821 0.71426 0.0
C349 C 0.75332 0.70232 0.70144 0.0
C350 C 0.75055 0.71062 0.72943 0.0
C351 C 0.75711 0.7062 0.74224 0.0
loop_
_geom_bond_atom_site_label_1
_geom_bond_atom_site_label_2
_geom_bond_distance
_geom_bond_site_symmetry_2
_ccdc_geom_bond_type
C0 O1 1.306 . S
C0 O3 1.160 . S
O1 C0 1.306 . S
O1 Cd2 2.228 . S
Cd2 O1 2.228 . S
Cd2 O6 2.273 . S
Cd2 O10 2.277 . S
O3 C0 1.160 . S
O3 Cd4 2.203 . S
Cd4 O3 2.203 . S
Cd4 O6 2.411 . S
Cd4 O7 2.333 . S
Cd4 O8 2.352 . S
Cd4 O12 2.277 . S
Cd4 O13 2.356 . S
C5 O10 1.209 . S
C5 O12 1.226 . S
O6 Cd2 2.273 . S
O6 Cd4 2.411 . S
O6 C9 1.320 . S
O7 Cd4 2.333 . S
O7 C9 1.214 . S
O8 Cd4 2.352 . S
O8 C11 1.258 . S
C9 O6 1.320 . S
C9 O7 1.214 . S
O10 Cd2 2.277 . S
O10 C5 1.209 . S
C11 O8 1.258 . S
C11 O13 1.282 . S
O12 Cd4 2.277 . S
O12 C5 1.226 . S
O13 Cd4 2.356 . S
O13 C11 1.282 . S
C14 O15 1.306 . S
C14 O17 1.160 . S
O15 C14 1.306 . S
O15 Cd16 2.228 . S
Cd16 O15 2.228 . S
Cd16 O20 2.273 . S
Cd16 O24 2.277 . S
O17 C14 1.160 . S
O17 Cd18 2.203 . S
Cd18 O17 2.203 . S
Cd18 O20 2.411 . S
Cd18 O21 2.333 . S
Cd18 O22 2.352 . S
Cd18 O26 2.277 . S
Cd18 O27 2.356 . S
C19 O24 1.209 . S
C19 O26 1.226 . S
O20 Cd16 2.273 . S
O20 Cd18 2.411 . S
O20 C23 1.320 . S
O21 Cd18 2.333 . S
O21 C23 1.214 . S
O22 Cd18 2.352 . S
O22 C25 1.258 . S
C23 O20 1.320 . S
C23 O21 1.214 . S
O24 Cd16 2.277 . S
O24 C19 1.209 . S
C25 O22 1.258 . S
C25 O27 1.282 . S
O26 Cd18 2.277 . S
O26 C19 1.226 . S
O27 Cd18 2.356 . S
O27 C25 1.282 . S
C28 O29 1.306 . S
C28 O31 1.160 . S
O29 C28 1.306 . S
O29 Cd30 2.228 . S
Cd30 O29 2.228 . S
Cd30 O34 2.273 . S
Cd30 O38 2.277 . S
O31 C28 1.160 . S
O31 Cd32 2.203 . S
Cd32 O31 2.203 . S
Cd32 O34 2.411 . S
Cd32 O35 2.333 . S
Cd32 O36 2.352 . S
Cd32 O40 2.277 . S
Cd32 O41 2.356 . S
C33 O38 1.209 . S
C33 O40 1.226 . S
O34 Cd30 2.273 . S
O34 Cd32 2.411 . S
O34 C37 1.320 . S
O35 Cd32 2.333 . S
O35 C37 1.214 . S
O36 Cd32 2.352 . S
O36 C39 1.258 . S
C37 O34 1.320 . S
C37 O35 1.214 . S
O38 Cd30 2.277 . S
O38 C33 1.209 . S
C39 O36 1.258 . S
C39 O41 1.282 . S
O40 Cd32 2.277 . S
O40 C33 1.226 . S
O41 Cd32 2.356 . S
O41 C39 1.282 . S
C42 O43 1.306 . S
C42 O45 1.160 . S
O43 C42 1.306 . S
O43 Cd44 2.228 . S
Cd44 O43 2.228 . S
Cd44 O48 2.273 . S
Cd44 O52 2.277 . S
O45 C42 1.160 . S
O45 Cd46 2.203 . S
Cd46 O45 2.203 . S
Cd46 O48 2.411 . S
Cd46 O49 2.333 . S
Cd46 O50 2.352 . S
Cd46 O54 2.277 . S
Cd46 O55 2.356 . S
C47 O52 1.209 . S
C47 O54 1.226 . S
O48 Cd44 2.273 . S
O48 Cd46 2.411 . S
O48 C51 1.320 . S
O49 Cd46 2.333 . S
O49 C51 1.214 . S
O50 Cd46 2.352 . S
O50 C53 1.258 . S
C51 O48 1.320 . S
C51 O49 1.214 . S
O52 Cd44 2.277 . S
O52 C47 1.209 . S
C53 O50 1.258 . S
C53 O55 1.282 . S
O54 Cd46 2.277 . S
O54 C47 1.226 . S
O55 Cd46 2.356 . S
O55 C53 1.282 . S
C56 O57 1.306 . S
C56 O59 1.160 . S
O57 C56 1.306 . S
O57 Cd58 2.228 . S
Cd58 O57 2.228 . S
Cd58 O62 2.273 . S
Cd58 O66 2.277 . S
O59 C56 1.160 . S
O59 Cd60 2.203 . S
Cd60 O59 2.203 . S
Cd60 O62 2.411 . S
Cd60 O63 2.333 . S
Cd60 O64 2.352 . S
Cd60 O68 2.277 . S
Cd60 O69 2.356 . S
C61 O66 1.209 . S
C61 O68 1.226 . S
O62 Cd58 2.273 . S
O62 Cd60 2.411 . S
O62 C65 1.320 . S
O63 Cd60 2.333 . S
O63 C65 1.214 . S
O64 Cd60 2.352 . S
O64 C67 1.258 . S
C65 O62 1.320 . S
C65 O63 1.214 . S
O66 Cd58 2.277 . S
O66 C61 1.209 . S
C67 O64 1.258 . S
C67 O69 1.282 . S
O68 Cd60 2.277 . S
O68 C61 1.226 . S
O69 Cd60 2.356 . S
O69 C67 1.282 . S
C70 O71 1.306 . S
C70 O73 1.160 . S
O71 C70 1.306 . S
O71 Cd72 2.228 . S
Cd72 O71 2.228 . S
Cd72 O76 2.273 . S
Cd72 O80 2.277 . S
O73 C70 1.160 . S
O73 Cd74 2.203 . S
Cd74 O73 2.203 . S
Cd74 O76 2.411 . S
Cd74 O77 2.333 . S
Cd74 O78 2.352 . S
Cd74 O82 2.277 . S
Cd74 O83 2.356 . S
C75 O80 1.209 . S
C75 O82 1.226 . S
O76 Cd72 2.273 . S
O76 Cd74 2.411 . S
O76 C79 1.320 . S
O77 Cd74 2.333 . S
O77 C79 1.214 . S
O78 Cd74 2.352 . S
O78 C81 1.258 . S
C79 O76 1.320 . S
C79 O77 1.214 . S
O80 Cd72 2.277 . S
O80 C75 1.209 . S
C81 O78 1.258 . S
C81 O83 1.282 . S
O82 Cd74 2.277 . S
O82 C75 1.226 . S
O83 Cd74 2.356 . S
O83 C81 1.282 . S
C84 O85 1.306 . S
C84 O87 1.160 . S
O85 C84 1.306 . S
O85 Cd86 2.228 . S
Cd86 O85 2.228 . S
Cd86 O90 2.273 . S
Cd86 O94 2.277 . S
O87 C84 1.160 . S
O87 Cd88 2.203 . S
Cd88 O87 2.203 . S
Cd88 O90 2.411 . S
Cd88 O91 2.333 . S
Cd88 O92 2.352 . S
Cd88 O96 2.277 . S
Cd88 O97 2.356 . S
C89 O94 1.209 . S
C89 O96 1.226 . S
O90 Cd86 2.273 . S
O90 Cd88 2.411 . S
O90 C93 1.320 . S
O91 Cd88 2.333 . S
O91 C93 1.214 . S
O92 Cd88 2.352 . S
O92 C95 1.258 . S
C93 O90 1.320 . S
C93 O91 1.214 . S
O94 Cd86 2.277 . S
O94 C89 1.209 . S
C95 O92 1.258 . S
C95 O97 1.282 . S
O96 Cd88 2.277 . S
O96 C89 1.226 . S
O97 Cd88 2.356 . S
O97 C95 1.282 . S
C98 O99 1.306 . S
C98 O101 1.160 . S
O99 C98 1.306 . S
O99 Cd100 2.228 . S
Cd100 O99 2.228 . S
Cd100 O104 2.273 . S
Cd100 O108 2.277 . S
O101 C98 1.160 . S
O101 Cd102 2.203 . S
Cd102 O101 2.203 . S
Cd102 O104 2.411 . S
Cd102 O105 2.333 . S
Cd102 O106 2.352 . S
Cd102 O110 2.277 . S
Cd102 O111 2.356 . S
C103 O108 1.209 . S
C103 O110 1.226 . S
O104 Cd100 2.273 . S
O104 Cd102 2.411 . S
O104 C107 1.320 . S
O105 Cd102 2.333 . S
O105 C107 1.214 . S
O106 Cd102 2.352 . S
O106 C109 1.258 . S
C107 O104 1.320 . S
C107 O105 1.214 . S
O108 Cd100 2.277 . S
O108 C103 1.209 . S
C109 O106 1.258 . S
C109 O111 1.282 . S
O110 Cd102 2.277 . S
O110 C103 1.226 . S
O111 Cd102 2.356 . S
O111 C109 1.282 . S
C112 O113 1.306 . S
C112 O115 1.160 . S
O113 C112 1.306 . S
O113 Cd114 2.228 . S
Cd114 O113 2.228 . S
Cd114 O118 2.273 . S
Cd114 O122 2.277 . S
O115 C112 1.160 . S
O115 Cd116 2.203 . S
Cd116 O115 2.203 . S
Cd116 O118 2.411 . S
Cd116 O119 2.333 . S
Cd116 O120 2.352 . S
Cd116 O124 2.277 . S
Cd116 O125 2.356 . S
C117 O122 1.209 . S
C117 O124 1.226 . S
O118 Cd114 2.273 . S
O118 Cd116 2.411 . S
O118 C121 1.320 . S
O119 Cd116 2.333 . S
O119 C121 1.214 . S
O120 Cd116 2.352 . S
O120 C123 1.258 . S
C121 O118 1.320 . S
C121 O119 1.214 . S
O122 Cd114 2.277 . S
O122 C117 1.209 . S
C123 O120 1.258 . S
C123 O125 1.282 . S
O124 Cd116 2.277 . S
O124 C117 1.226 . S
O125 Cd116 2.356 . S
O125 C123 1.282 . S
C126 O127 1.306 . S
C126 O129 1.160 . S
O127 C126 1.306 . S
O127 Cd128 2.228 . S
Cd128 O127 2.228 . S
Cd128 O132 2.273 . S
Cd128 O136 2.277 . S
O129 C126 1.160 . S
O129 Cd130 2.203 . S
Cd130 O129 2.203 . S
Cd130 O132 2.411 . S
Cd130 O133 2.333 . S
Cd130 O134 2.352 . S
Cd130 O138 2.277 . S
Cd130 O139 2.356 . S
C131 O136 1.209 . S
C131 O138 1.226 . S
O132 Cd128 2.273 . S
O132 Cd130 2.411 . S
O132 C135 1.320 . S
O133 Cd130 2.333 . S
O133 C135 1.214 . S
O134 Cd130 2.352 . S
O134 C137 1.258 . S
C135 O132 1.320 . S
C135 O133 1.214 . S
O136 Cd128 2.277 . S
O136 C131 1.209 . S
C137 O134 1.258 . S
C137 O139 1.282 . S
O138 Cd130 2.277 . S
O138 C131 1.226 . S
O139 Cd130 2.356 . S
O139 C137 1.282 . S
C140 O141 1.306 . S
C140 O143 1.160 . S
O141 C140 1.306 . S
O141 Cd142 2.228 . S
Cd142 O141 2.228 . S
Cd142 O146 2.273 . S
Cd142 O150 2.277 . S
O143 C140 1.160 . S
O143 Cd144 2.203 . S
Cd144 O143 2.203 . S
Cd144 O146 2.411 . S
Cd144 O147 2.333 . S
Cd144 O148 2.352 . S
Cd144 O152 2.277 . S
Cd144 O153 2.356 . S
C145 O150 1.209 . S
C145 O152 1.226 . S
O146 Cd142 2.273 . S
O146 Cd144 2.411 . S
O146 C149 1.320 . S
O147 Cd144 2.333 . S
O147 C149 1.214 . S
O148 Cd144 2.352 . S
O148 C151 1.258 . S
C149 O146 1.320 . S
C149 O147 1.214 . S
O150 Cd142 2.277 . S
O150 C145 1.209 . S
C151 O148 1.258 . S
C151 O153 1.282 . S
O152 Cd144 2.277 . S
O152 C145 1.226 . S
O153 Cd144 2.356 . S
O153 C151 1.282 . S
C154 O155 1.306 . S
C154 O157 1.160 . S
O155 C154 1.306 . S
O155 Cd156 2.228 . S
Cd156 O155 2.228 . S
Cd156 O160 2.273 . S
Cd156 O164 2.277 . S
O157 C154 1.160 . S
O157 Cd158 2.203 . S
Cd158 O157 2.203 . S
Cd158 O160 2.411 . S
Cd158 O161 2.333 . S
Cd158 O162 2.352 . S
Cd158 O166 2.277 . S
Cd158 O167 2.356 . S
C159 O164 1.209 . S
C159 O166 1.226 . S
O160 Cd156 2.273 . S
O160 Cd158 2.411 . S
O160 C163 1.320 . S
O161 Cd158 2.333 . S
O161 C163 1.214 . S
O162 Cd158 2.352 . S
O162 C165 1.258 . S
C163 O160 1.320 . S
C163 O161 1.214 . S
O164 Cd156 2.277 . S
O164 C159 1.209 . S
C165 O162 1.258 . S
C165 O167 1.282 . S
O166 Cd158 2.277 . S
O166 C159 1.226 . S
O167 Cd158 2.356 . S
O167 C165 1.282 . S
C168 O169 1.306 . S
C168 O171 1.160 . S
O169 C168 1.306 . S
O169 Cd170 2.228 . S
Cd170 O169 2.228 . S
Cd170 O174 2.273 . S
Cd170 O178 2.277 . S
O171 C168 1.160 . S
O171 Cd172 2.203 . S
Cd172 O171 2.203 . S
Cd172 O174 2.411 . S
Cd172 O175 2.333 . S
Cd172 O176 2.352 . S
Cd172 O180 2.277 . S
Cd172 O181 2.356 . S
C173 O178 1.209 . S
C173 O180 1.226 . S
O174 Cd170 2.273 . S
O174 Cd172 2.411 . S
O174 C177 1.320 . S
O175 Cd172 2.333 . S
O175 C177 1.214 . S
O176 Cd172 2.352 . S
O176 C179 1.258 . S
C177 O174 1.320 . S
C177 O175 1.214 . S
O178 Cd170 2.277 . S
O178 C173 1.209 . S
C179 O176 1.258 . S
C179 O181 1.282 . S
O180 Cd172 2.277 . S
O180 C173 1.226 . S
O181 Cd172 2.356 . S
O181 C179 1.282 . S
C182 O183 1.306 . S
C182 O185 1.160 . S
O183 C182 1.306 . S
O183 Cd184 2.228 . S
Cd184 O183 2.228 . S
Cd184 O188 2.273 . S
Cd184 O192 2.277 . S
O185 C182 1.160 . S
O185 Cd186 2.203 . S
Cd186 O185 2.203 . S
Cd186 O188 2.411 . S
Cd186 O189 2.333 . S
Cd186 O190 2.352 . S
Cd186 O194 2.277 . S
Cd186 O195 2.356 . S
C187 O192 1.209 . S
C187 O194 1.226 . S
O188 Cd184 2.273 . S
O188 Cd186 2.411 . S
O188 C191 1.320 . S
O189 Cd186 2.333 . S
O189 C191 1.214 . S
O190 Cd186 2.352 . S
O190 C193 1.258 . S
C191 O188 1.320 . S
C191 O189 1.214 . S
O192 Cd184 2.277 . S
O192 C187 1.209 . S
C193 O190 1.258 . S
C193 O195 1.282 . S
O194 Cd186 2.277 . S
O194 C187 1.226 . S
O195 Cd186 2.356 . S
O195 C193 1.282 . S
C196 O197 1.306 . S
C196 O199 1.160 . S
O197 C196 1.306 . S
O197 Cd198 2.228 . S
Cd198 O197 2.228 . S
Cd198 O202 2.273 . S
Cd198 O206 2.277 . S
O199 C196 1.160 . S
O199 Cd200 2.203 . S
Cd200 O199 2.203 . S
Cd200 O202 2.411 . S
Cd200 O203 2.333 . S
Cd200 O204 2.352 . S
Cd200 O208 2.277 . S
Cd200 O209 2.356 . S
C201 O206 1.209 . S
C201 O208 1.226 . S
O202 Cd198 2.273 . S
O202 Cd200 2.411 . S
O202 C205 1.320 . S
O203 Cd200 2.333 . S
O203 C205 1.214 . S
O204 Cd200 2.352 . S
O204 C207 1.258 . S
C205 O202 1.320 . S
C205 O203 1.214 . S
O206 Cd198 2.277 . S
O206 C201 1.209 . S
C207 O204 1.258 . S
C207 O209 1.282 . S
O208 Cd200 2.277 . S
O208 C201 1.226 . S
O209 Cd200 2.356 . S
O209 C207 1.282 . S
C210 O211 1.306 . S
C210 O213 1.160 . S
O211 C210 1.306 . S
O211 Cd212 2.228 . S
Cd212 O211 2.228 . S
Cd212 O216 2.273 . S
Cd212 O220 2.277 . S
O213 C210 1.160 . S
O213 Cd214 2.203 . S
Cd214 O213 2.203 . S
Cd214 O216 2.411 . S
Cd214 O217 2.333 . S
Cd214 O218 2.352 . S
Cd214 O222 2.277 . S
Cd214 O223 2.356 . S
C215 O220 1.209 . S
C215 O222 1.226 . S
O216 Cd212 2.273 . S
O216 Cd214 2.411 . S
O216 C219 1.320 . S
O217 Cd214 2.333 . S
O217 C219 1.214 . S
O218 Cd214 2.352 . S
O218 C221 1.258 . S
C219 O216 1.320 . S
C219 O217 1.214 . S
O220 Cd212 2.277 . S
O220 C215 1.209 . S
C221 O218 1.258 . S
C221 O223 1.282 . S
O222 Cd214 2.277 . S
O222 C215 1.226 . S
O223 Cd214 2.356 . S
O223 C221 1.282 . S
C224 C225 1.170 . S
C224 C226 1.380 1_665 S
C225 C224 1.170 . S
C226 C224 1.380 1_445 S
C226 C227 1.170 . S
C227 C226 1.170 . S
C228 C229 1.170 . S
C228 C230 1.380 1_655 S
C229 C228 1.170 . S
C230 C228 1.380 1_455 S
C230 C231 1.170 . S
C231 C230 1.170 . S
C232 C233 1.170 . S
C232 C234 1.380 . S
C233 C232 1.170 . S
C234 C232 1.380 . S
C234 C235 1.170 . S
C235 C234 1.170 . S
C236 C237 1.170 . S
C236 C238 1.380 1_545 S
C237 C236 1.170 . S
C238 C236 1.380 1_565 S
C238 C239 1.170 . S
C239 C238 1.170 . S
C240 C241 1.170 . S
C240 C242 1.380 1_455 S
C241 C240 1.170 . S
C242 C240 1.380 1_655 S
C242 C243 1.170 . S
C243 C242 1.170 . S
C244 C245 1.170 . S
C244 C246 1.380 . S
C245 C244 1.170 . S
C246 C244 1.380 . S
C246 C247 1.170 . S
C247 C246 1.170 . S
C248 C249 1.170 . S
C248 C250 1.380 1_545 S
C249 C248 1.170 . S
C250 C248 1.380 1_565 S
C250 C251 1.170 . S
C251 C250 1.170 . S
C252 C253 1.170 . S
C252 C254 1.380 1_445 S
C253 C252 1.170 . S
C254 C252 1.380 1_665 S
C254 C255 1.170 . S
C255 C254 1.170 . S
C256 C257 1.170 . S
C256 C258 1.380 1_565 S
C257 C256 1.170 . S
C258 C256 1.380 1_545 S
C258 C259 1.170 . S
C259 C258 1.170 . S
C260 C261 1.170 . S
C260 C262 1.380 1_665 S
C261 C260 1.170 . S
C262 C260 1.380 1_445 S
C262 C263 1.170 . S
C263 C262 1.170 . S
C264 C265 1.170 . S
C264 C266 1.380 1_455 S
C265 C264 1.170 . S
C266 C264 1.380 1_655 S
C266 C267 1.170 . S
C267 C266 1.170 . S
C268 C269 1.170 . S
C268 C270 1.380 . S
C269 C268 1.170 . S
C270 C268 1.380 . S
C270 C271 1.170 . S
C271 C270 1.170 . S
C272 C273 1.170 . S
C272 C274 1.380 . S
C273 C272 1.170 . S
C274 C272 1.380 . S
C274 C275 1.170 . S
C275 C274 1.170 . S
C276 C277 1.170 . S
C276 C278 1.380 1_565 S
C277 C276 1.170 . S
C278 C276 1.380 1_545 S
C278 C279 1.170 . S
C279 C278 1.170 . S
C280 C281 1.170 . S
C280 C282 1.380 1_665 S
C281 C280 1.170 . S
C282 C280 1.380 1_445 S
C282 C283 1.170 . S
C283 C282 1.170 . S
C284 C285 1.170 . S
C284 C286 1.380 1_455 S
C285 C284 1.170 . S
C286 C284 1.380 1_655 S
C286 C287 1.170 . S
C287 C286 1.170 . S
C288 C289 1.170 . S
C288 C290 1.380 . S
C289 C288 1.170 . S
C290 C288 1.380 . S
C290 C291 1.170 . S
C291 C290 1.170 . S
C292 C293 1.170 . S
C292 C294 1.380 . S
C293 C292 1.170 . S
C294 C292 1.380 . S
C294 C295 1.170 . S
C295 C294 1.170 . S
C296 C297 1.170 . S
C296 C298 1.380 . S
C297 C296 1.170 . S
C298 C296 1.380 . S
C298 C299 1.170 . S
C299 C298 1.170 . S
C300 C301 1.170 . S
C300 C302 1.380 . S
C301 C300 1.170 . S
C302 C300 1.380 . S
C302 C303 1.170 . S
C303 C302 1.170 . S
C304 C305 1.170 . S
C304 C306 1.380 . S
C305 C304 1.170 . S
C306 C304 1.380 . S
C306 C307 1.170 . S
C307 C306 1.170 . S
C308 C309 1.170 . S
C308 C310 1.380 . S
C309 C308 1.170 . S
C310 C308 1.380 . S
C310 C311 1.170 . S
C311 C310 1.170 . S
C312 C313 1.170 . S
C312 C314 1.380 . S
C313 C312 1.170 . S
C314 C312 1.380 . S
C314 C315 1.170 . S
C315 C314 1.170 . S
C316 C317 1.170 . S
C316 C318 1.380 . S
C317 C316 1.170 . S
C318 C316 1.380 . S
C318 C319 1.170 . S
C319 C318 1.170 . S
C320 C321 1.170 . S
C320 C322 1.380 . S
C321 C320 1.170 . S
C322 C320 1.380 . S
C322 C323 1.170 . S
C323 C322 1.170 . S
C324 C325 1.170 . S
C324 C326 1.380 . S
C325 C324 1.170 . S
C326 C324 1.380 . S
C326 C327 1.170 . S
C327 C326 1.170 . S
C328 C329 1.170 . S
C328 C330 1.380 . S
C329 C328 1.170 . S
C330 C328 1.380 . S
C330 C331 1.170 . S
C331 C330 1.170 . S
C332 C333 1.170 . S
C332 C334 1.380 1_556 S
C333 C332 1.170 . S
C334 C332 1.380 1_554 S
C334 C335 1.170 . S
C335 C334 1.170 . S
C336 C337 1.170 . S
C336 C338 1.380 1_554 S
C337 C336 1.170 . S
C338 C336 1.380 1_556 S
C338 C339 1.170 . S
C339 C338 1.170 . S
C340 C341 1.170 . S
C340 C342 1.380 . S
C341 C340 1.170 . S
C342 C340 1.380 . S
C342 C343 1.170 . S
C343 C342 1.170 . S
C344 C345 1.170 . S
C344 C346 1.380 . S
C345 C344 1.170 . S
C346 C344 1.380 . S
C346 C347 1.170 . S
C347 C346 1.170 . S
C348 C349 1.170 . S
C348 C350 1.380 . S
C349 C348 1.170 . S
C350 C348 1.380 . S
C350 C351 1.170 . S
C351 C350 1.170 . S
C225 C151 1.514 . S
C227 C11 1.504 . S
C229 C25 1.499 . S
C231 C165 1.521 . S
C233 C123 1.513 . S
C235 C39 1.512 . S
C237 C137 1.509 . S
C239 C53 1.515 . S
C241 C67 1.509 . S
C243 C207 1.514 . S
C245 C221 1.521 . S
C247 C81 1.499 . S
C249 C95 1.499 . S
C251 C179 1.519 . S
C253 C193 1.521 . S
C255 C109 1.499 . S
C257 C145 1.553 . S
C259 C5 1.553 . S
C261 C19 1.553 . S
C263 C159 1.554 . S
C265 C33 1.553 . S
C267 C117 1.554 . S
C269 C47 1.554 . S
C271 C131 1.553 . S
C273 C61 1.554 . S
C275 C201 1.553 . S
C277 C75 1.553 . S
C279 C215 1.554 . S
C281 C173 1.553 . S
C283 C89 1.554 . S
C285 C187 1.553 . S
C287 C103 1.553 . S
C289 C9 1.344 . S
C291 C93 1.335 . S
C293 C23 1.314 . S
C295 C107 1.305 . S
C297 C37 1.317 . S
C299 C65 1.335 . S
C301 C51 1.328 . S
C303 C79 1.343 . S
C305 C121 1.343 . S
C307 C205 1.330 . S
C309 C219 1.314 . S
C311 C135 1.333 . S
C313 C149 1.311 . S
C315 C177 1.306 . S
C317 C191 1.318 . S
C319 C163 1.336 . S
C321 C0 1.363 . S
C323 C210 1.359 . S
C325 C168 1.371 . S
C327 C14 1.370 . S
C329 C182 1.367 . S
C331 C28 1.369 . S
C333 C196 1.369 . S
C335 C42 1.370 . S
C337 C126 1.355 . S
C339 C56 1.350 . S
C341 C140 1.344 . S
C343 C70 1.341 . S
C345 C84 1.371 . S
C347 C154 1.371 . S
C349 C98 1.359 . S
C351 C112 1.354 . S
