# Generated by pormake.
# Topology mmt, (4)-cn, num edge types: 1
# Building blocks:
#     Node 0, Type 0, BuildingBlock: GALJAG_clean_sbu_0, # of connection points: 4
#     Node 1, Type 0, BuildingBlock: GALJAG_clean_sbu_0, # of connection points: 4
#     Node 2, Type 0, BuildingBlock: GALJAG_clean_sbu_0, # of connection points: 4
#     Node 3, Type 0, BuildingBlock: GALJAG_clean_sbu_0, # of connection points: 4
#     Node 4, Type 0, BuildingBlock: GALJAG_clean_sbu_0, # of connection points: 4
#     Node 5, Type 0, BuildingBlock: GALJAG_clean_sbu_0, # of connection points: 4
#     Node 6, Type 0, BuildingBlock: GALJAG_clean_sbu_0, # of connection points: 4
#     Node 7, Type 0, BuildingBlock: GALJAG_clean_sbu_0, # of connection points: 4
#     Edge 8, Type (0, 0), BuildingBlock: ZUJKAS_clean_linker_0, # of connection points: 2
#     Edge 9, Type (0, 0), BuildingBlock: ZUJKAS_clean_linker_0, # of connection points: 2
#     Edge 10, Type (0, 0), BuildingBlock: ZUJKAS_clean_linker_0, # of connection points: 2
#     Edge 11, Type (0, 0), BuildingBlock: ZUJKAS_clean_linker_0, # of connection points: 2
#     Edge 12, Type (0, 0), BuildingBlock: ZUJKAS_clean_linker_0, # of connection points: 2
#     Edge 13, Type (0, 0), BuildingBlock: ZUJKAS_clean_linker_0, # of connection points: 2
#     Edge 14, Type (0, 0), BuildingBlock: ZUJKAS_clean_linker_0, # of connection points: 2
#     Edge 15, Type (0, 0), BuildingBlock: ZUJKAS_clean_linker_0, # of connection points: 2
#     Edge 16, Type (0, 0), BuildingBlock: ZUJKAS_clean_linker_0, # of connection points: 2
#     Edge 17, Type (0, 0), BuildingBlock: ZUJKAS_clean_linker_0, # of connection points: 2
#     Edge 18, Type (0, 0), BuildingBlock: ZUJKAS_clean_linker_0, # of connection points: 2
#     Edge 19, Type (0, 0), BuildingBlock: ZUJKAS_clean_linker_0, # of connection points: 2
#     Edge 20, Type (0, 0), BuildingBlock: ZUJKAS_clean_linker_0, # of connection points: 2
#     Edge 21, Type (0, 0), BuildingBlock: ZUJKAS_clean_linker_0, # of connection points: 2
#     Edge 22, Type (0, 0), BuildingBlock: ZUJKAS_clean_linker_0, # of connection points: 2
#     Edge 23, Type (0, 0), BuildingBlock: ZUJKAS_clean_linker_0, # of connection points: 2
# Relax obj value: 0.016
# Max RMSD: 0.061
# Mean RMSD: 0.061
data_MOF--net-mmt--node1-GALJAG_clean_sbu_0--edge1-ZUJKAS_clean_linker_0
_symmetry_space_group_name_H-M    P1
_symmetry_Int_Tables_number       1
_symmetry_cell_setting            triclinic
loop_
_symmetry_equiv_pos_as_xyz
'x, y, z'
_cell_length_a     32.246348
_cell_length_b     47.843422
_cell_length_c     53.289814
_cell_angle_alpha  90.002418
_cell_angle_beta   90.006394
_cell_angle_gamma 90.002803
loop_
_atom_site_label
_atom_site_type_symbol
_atom_site_fract_x
_atom_site_fract_y
_atom_site_fract_z
_atom_type_partial_charge
In0 In 0.12682 0.56038 0.34135 0.0
O1 O 0.18445 0.53254 0.34181 0.0
O2 O 0.16648 0.55075 0.3071 0.0
C3 C 0.09802 0.54297 0.38641 0.0
C4 C 0.16019 0.61204 0.34507 0.0
C5 C 0.05778 0.55131 0.31371 0.0
O6 O 0.11783 0.52716 0.37176 0.0
O7 O 0.09336 0.56761 0.37852 0.0
O8 O 0.0652 0.57436 0.32426 0.0
O9 O 0.0853 0.53293 0.31692 0.0
C10 C 0.19201 0.53552 0.31872 0.0
O11 O 0.13268 0.60593 0.32915 0.0
O12 O 0.17053 0.59219 0.35934 0.0
In13 In 0.37665 0.93751 0.33915 0.0
O14 O 0.31644 0.96265 0.33984 0.0
O15 O 0.34078 0.9512 0.3043 0.0
C16 C 0.40464 0.95183 0.38521 0.0
C17 C 0.34753 0.88474 0.34387 0.0
C18 C 0.44278 0.95109 0.31056 0.0
O19 O 0.38118 0.96739 0.37243 0.0
O20 O 0.41342 0.92881 0.37496 0.0
O21 O 0.42439 0.92789 0.30853 0.0
O22 O 0.42755 0.96735 0.32674 0.0
C23 C 0.31223 0.96324 0.31632 0.0
O24 O 0.38268 0.89003 0.3346 0.0
O25 O 0.32754 0.90594 0.35097 0.0
In26 In 0.62748 0.44346 0.1594 0.0
O27 O 0.61872 0.39583 0.15999 0.0
O28 O 0.67919 0.41179 0.15357 0.0
C29 C 0.55695 0.45 0.18624 0.0
C30 C 0.68823 0.47325 0.18215 0.0
C31 C 0.60611 0.46088 0.11296 0.0
O32 O 0.58594 0.43417 0.19346 0.0
O33 O 0.56354 0.46209 0.16564 0.0
O34 O 0.61366 0.47757 0.13072 0.0
O35 O 0.61023 0.43536 0.11842 0.0
C36 C 0.6565 0.39053 0.15598 0.0
O37 O 0.68781 0.46867 0.15886 0.0
O38 O 0.65759 0.4634 0.19385 0.0
In39 In 0.87621 0.06645 0.16093 0.0
O40 O 0.82087 0.03656 0.16073 0.0
O41 O 0.83198 0.06049 0.1937 0.0
C42 C 0.90571 0.05007 0.11577 0.0
C43 C 0.84371 0.11824 0.15634 0.0
C44 C 0.94303 0.0545 0.18973 0.0
O45 O 0.88177 0.03502 0.12874 0.0
O46 O 0.91421 0.07344 0.1254 0.0
O47 O 0.93853 0.0777 0.17885 0.0
O48 O 0.91372 0.0375 0.18631 0.0
C49 C 0.80945 0.04271 0.18272 0.0
O50 O 0.86973 0.11198 0.17311 0.0
O51 O 0.8347 0.09853 0.14159 0.0
In52 In 0.8799 0.43364 0.66139 0.0
O53 O 0.87457 0.38757 0.67219 0.0
O54 O 0.83569 0.40259 0.64296 0.0
C55 C 0.94624 0.44492 0.69076 0.0
C56 C 0.81347 0.4581 0.683 0.0
C57 C 0.91114 0.44933 0.61641 0.0
O58 O 0.93885 0.42079 0.68232 0.0
O59 O 0.92002 0.46322 0.68458 0.0
O60 O 0.88874 0.46517 0.62959 0.0
O61 O 0.91737 0.42549 0.62575 0.0
C62 C 0.84642 0.38217 0.65645 0.0
O63 O 0.82306 0.46207 0.66031 0.0
O64 O 0.83768 0.44209 0.69482 0.0
In65 In 0.62157 0.05977 0.66081 0.0
O66 O 0.68181 0.03465 0.66057 0.0
O67 O 0.65839 0.0479 0.69583 0.0
C68 C 0.5923 0.04463 0.61524 0.0
C69 C 0.65101 0.11231 0.6551 0.0
C70 C 0.55556 0.04654 0.68963 0.0
O71 O 0.6163 0.02936 0.62794 0.0
O72 O 0.58361 0.06775 0.62531 0.0
O73 O 0.57174 0.07058 0.6898 0.0
O74 O 0.57298 0.02924 0.67521 0.0
C75 C 0.68666 0.03529 0.68404 0.0
O76 O 0.61728 0.10717 0.66619 0.0
O77 O 0.6694 0.09107 0.64663 0.0
In78 In 0.38024 0.56284 0.83776 0.0
O79 O 0.33028 0.52873 0.83579 0.0
O80 O 0.33129 0.55953 0.80715 0.0
C81 C 0.41502 0.54789 0.8819 0.0
C82 C 0.35256 0.61552 0.84557 0.0
C83 C 0.44281 0.54946 0.80641 0.0
O84 O 0.37787 0.54209 0.87652 0.0
O85 O 0.43415 0.56146 0.86527 0.0
O86 O 0.43509 0.57433 0.81284 0.0
O87 O 0.41857 0.53138 0.81552 0.0
C88 C 0.314 0.53804 0.81594 0.0
O89 O 0.37533 0.609 0.82725 0.0
O90 O 0.34438 0.59559 0.86023 0.0
In91 In 0.12185 0.93545 0.84213 0.0
O92 O 0.17593 0.96641 0.84072 0.0
O93 O 0.16808 0.93843 0.81007 0.0
C94 C 0.0928 0.95281 0.88709 0.0
C95 C 0.15305 0.88355 0.84838 0.0
C96 C 0.05552 0.94721 0.81281 0.0
O97 O 0.11841 0.96692 0.87443 0.0
O98 O 0.08238 0.92991 0.87722 0.0
O99 O 0.05946 0.9243 0.82425 0.0
O100 O 0.08511 0.96403 0.81596 0.0
C101 C 0.18905 0.95793 0.81972 0.0
O102 O 0.12841 0.88972 0.83083 0.0
O103 O 0.16144 0.90346 0.86306 0.0
H104 H 0.21537 0.54111 0.26988 0.0
H105 H 0.27792 0.52281 0.24982 0.0
H106 H 0.31451 0.48412 0.31947 0.0
H107 H 0.25173 0.50228 0.33972 0.0
H108 H 0.36079 0.53492 0.26644 0.0
H109 H 0.32661 0.42085 0.26621 0.0
H110 H 0.28654 0.44693 0.26988 0.0
H111 H 0.32046 0.43893 0.29558 0.0
C112 C 0.2365 0.52848 0.28088 0.0
C113 C 0.22867 0.52312 0.30637 0.0
C114 C 0.2722 0.51806 0.2694 0.0
C115 C 0.30058 0.50192 0.28311 0.0
C116 C 0.29264 0.49617 0.30848 0.0
H117 H 0.53878 0.43192 0.23384 0.0
H118 H 0.47735 0.44377 0.25897 0.0
C119 C 0.2569 0.50667 0.32003 0.0
C120 C 0.33953 0.49259 0.27106 0.0
H121 H 0.39167 0.43492 0.25025 0.0
C122 C 0.36761 0.51306 0.26295 0.0
C123 C 0.34847 0.46404 0.26682 0.0
C124 C 0.31892 0.44132 0.27489 0.0
C125 C 0.40425 0.5058 0.2504 0.0
C126 C 0.41255 0.47731 0.24533 0.0
C127 C 0.38508 0.45674 0.25408 0.0
C128 C 0.44863 0.46876 0.22993 0.0
C129 C 0.43383 0.52873 0.24277 0.0
C130 C 0.45218 0.47827 0.20513 0.0
C131 C 0.48708 0.47168 0.19087 0.0
C132 C 0.51897 0.45517 0.20103 0.0
C133 C 0.51472 0.44475 0.22556 0.0
C134 C 0.47971 0.45148 0.23991 0.0
H135 H 0.42938 0.54785 0.2543 0.0
H136 H 0.46658 0.52183 0.24456 0.0
H137 H 0.42807 0.53438 0.22288 0.0
H138 H 0.42807 0.49109 0.19688 0.0
H139 H 0.48927 0.4798 0.17194 0.0
H140 H 0.95454 0.00898 0.21964 0.0
H141 H 0.01706 0.99607 0.24289 0.0
H142 H 0.07863 0.07014 0.21558 0.0
H143 H 0.01569 0.08361 0.19294 0.0
H144 H 0.09169 0.98389 0.22489 0.0
H145 H 0.10547 0.07445 0.28916 0.0
H146 H 0.05929 0.06775 0.27102 0.0
H147 H 0.10335 0.08452 0.25677 0.0
C148 C 0.98126 0.02267 0.21883 0.0
C149 C 0.98022 0.04736 0.20457 0.0
C150 C 0.01697 0.01527 0.2321 0.0
C151 C 0.05238 0.03233 0.23128 0.0
C152 C 0.05139 0.05701 0.21704 0.0
H153 H 0.30029 0.97163 0.26619 0.0
H154 H 0.23802 0.9896 0.24549 0.0
C155 C 0.01549 0.0646 0.20397 0.0
C156 C 0.09091 0.02341 0.24425 0.0
H157 H 0.16393 0.04402 0.28685 0.0
C158 C 0.10737 0.997 0.23853 0.0
C159 C 0.11111 0.04038 0.26226 0.0
C160 C 0.0937 0.06823 0.27038 0.0
C161 C 0.1436 0.98717 0.25011 0.0
C162 C 0.1647 0.00458 0.26738 0.0
C163 C 0.14802 0.03086 0.27335 0.0
C164 C 0.20351 0.99554 0.27993 0.0
C165 C 0.1583 0.95796 0.24415 0.0
C166 C 0.20548 0.99411 0.30621 0.0
C167 C 0.24126 0.98427 0.3181 0.0
C168 C 0.27566 0.97563 0.30388 0.0
C169 C 0.2741 0.97789 0.27761 0.0
C170 C 0.23845 0.98797 0.26576 0.0
H171 H 0.13287 0.94483 0.23645 0.0
H172 H 0.18317 0.95904 0.22979 0.0
H173 H 0.17102 0.94751 0.26109 0.0
H174 H 0.17897 1.0 0.31752 0.0
H175 H 0.24161 0.98281 0.33838 0.0
H176 H 0.69297 0.48896 0.23126 0.0
H177 H 0.75352 0.50737 0.25346 0.0
H178 H 0.82396 0.50526 0.18466 0.0
H179 H 0.76321 0.48764 0.16223 0.0
H180 H 0.82552 0.48112 0.25981 0.0
H181 H 0.85464 0.58135 0.21101 0.0
H182 H 0.80679 0.56217 0.20746 0.0
H183 H 0.85202 0.55237 0.18971 0.0
C184 C 0.72116 0.49292 0.22078 0.0
C185 C 0.72337 0.48692 0.19501 0.0
C186 C 0.75573 0.50339 0.23349 0.0
C187 C 0.79317 0.50802 0.22069 0.0
C188 C 0.79517 0.50254 0.19483 0.0
H189 H 0.03783 0.5046 0.28697 0.0
H190 H 0.97331 0.49508 0.26442 0.0
C191 C 0.76048 0.4923 0.18206 0.0
C192 C 0.83093 0.5163 0.23478 0.0
H193 H 0.91016 0.56366 0.23637 0.0
C194 C 0.8438 0.49932 0.25481 0.0
C195 C 0.85456 0.54021 0.22845 0.0
C196 C 0.84109 0.56023 0.20815 0.0
C197 C 0.8801 0.5052 0.2683 0.0
C198 C 0.90483 0.52829 0.26116 0.0
C199 C 0.89145 0.54573 0.24158 0.0
C200 C 0.94466 0.53463 0.27385 0.0
C201 C 0.89132 0.48676 0.29027 0.0
C202 C 0.95058 0.56044 0.28583 0.0
C203 C 0.98764 0.56607 0.2985 0.0
C204 C 0.01939 0.54596 0.29936 0.0
C205 C 0.01377 0.5204 0.28683 0.0
C206 C 0.97683 0.51486 0.27406 0.0
H207 H 0.8638 0.47548 0.29768 0.0
H208 H 0.91424 0.47089 0.28408 0.0
H209 H 0.90533 0.49912 0.30574 0.0
H210 H 0.92624 0.57605 0.28576 0.0
H211 H 0.99115 0.58598 0.30793 0.0
H212 H 0.75914 0.00122 0.16468 0.0
H213 H 0.69545 0.98298 0.18396 0.0
H214 H 0.71129 0.03936 0.24632 0.0
H215 H 0.77492 0.05753 0.2274 0.0
H216 H 0.68697 0.96067 0.23861 0.0
H217 H 0.59067 0.05321 0.21408 0.0
H218 H 0.63697 0.04391 0.19688 0.0
H219 H 0.64114 0.06008 0.22715 0.0
C220 C 0.7491 0.00963 0.18254 0.0
C221 C 0.77191 0.03084 0.19452 0.0
C222 C 0.71282 0.99918 0.1935 0.0
C223 C 0.69869 0.01003 0.2164 0.0
C224 C 0.72166 0.03091 0.22853 0.0
H225 H 0.49144 0.99718 0.31575 0.0
H226 H 0.55314 0.00954 0.29161 0.0
C227 C 0.75801 0.0412 0.21772 0.0
C228 C 0.6597 0.99985 0.22772 0.0
H229 H 0.56112 0.02024 0.24189 0.0
C230 C 0.65922 0.97348 0.23916 0.0
C231 C 0.62384 0.01676 0.22838 0.0
C232 C 0.62278 0.04502 0.21585 0.0
C233 C 0.62406 0.96394 0.25217 0.0
C234 C 0.58825 0.98106 0.25317 0.0
C235 C 0.58857 0.00717 0.24113 0.0
C236 C 0.55082 0.97304 0.26766 0.0
C237 C 0.62621 0.93621 0.2656 0.0
C238 C 0.52873 0.94851 0.26206 0.0
C239 C 0.49356 0.94126 0.27601 0.0
C240 C 0.47962 0.95863 0.29554 0.0
C241 C 0.50141 0.98337 0.30081 0.0
C242 C 0.53666 0.99048 0.28702 0.0
H243 H 0.65873 0.92911 0.26823 0.0
H244 H 0.61103 0.93743 0.28427 0.0
H245 H 0.60979 0.92017 0.25431 0.0
H246 H 0.53852 0.93507 0.24682 0.0
H247 H 0.47718 0.92216 0.27142 0.0
H248 H 0.49912 0.58471 0.78491 0.0
H249 H 0.56101 0.57202 0.76085 0.0
H250 H 0.53042 0.48472 0.769 0.0
H251 H 0.46819 0.49725 0.79269 0.0
H252 H 0.62678 0.54064 0.7772 0.0
H253 H 0.55423 0.49084 0.69421 0.0
H254 H 0.52533 0.51229 0.71592 0.0
H255 H 0.53654 0.47641 0.72339 0.0
C256 C 0.50532 0.56283 0.7813 0.0
C257 C 0.47876 0.54196 0.79061 0.0
C258 C 0.5407 0.55562 0.76759 0.0
C259 C 0.55002 0.52745 0.76285 0.0
C260 C 0.52334 0.5066 0.77195 0.0
H261 H 0.78577 0.45094 0.73091 0.0
H262 H 0.72246 0.46974 0.74967 0.0
C263 C 0.48792 0.51379 0.78561 0.0
C264 C 0.58886 0.51978 0.74968 0.0
H265 H 0.62678 0.48271 0.69998 0.0
C266 C 0.62679 0.52819 0.76019 0.0
C267 C 0.5888 0.50385 0.72732 0.0
C268 C 0.54904 0.49554 0.71439 0.0
C269 C 0.66471 0.52034 0.74937 0.0
C270 C 0.66466 0.50324 0.72772 0.0
C271 C 0.62674 0.49559 0.71674 0.0
C272 C 0.70357 0.49251 0.71649 0.0
C273 C 0.70448 0.53054 0.76117 0.0
C274 C 0.71354 0.49864 0.69145 0.0
C275 C 0.7496 0.48777 0.68062 0.0
C276 C 0.77614 0.47045 0.69463 0.0
C277 C 0.76607 0.46437 0.7197 0.0
C278 C 0.73003 0.47522 0.73049 0.0
H279 H 0.69928 0.54953 0.77275 0.0
H280 H 0.71704 0.51399 0.77361 0.0
H281 H 0.72814 0.53535 0.74666 0.0
H282 H 0.69339 0.51182 0.68029 0.0
H283 H 0.75648 0.49273 0.66124 0.0
H284 H 0.70007 0.02968 0.73434 0.0
H285 H 0.7628 0.01264 0.75514 0.0
H286 H 0.81972 0.99816 0.68305 0.0
H287 H 0.75659 0.01443 0.66212 0.0
H288 H 0.83503 0.95571 0.71528 0.0
H289 H 0.86883 0.05701 0.76138 0.0
H290 H 0.81846 0.04363 0.7691 0.0
H291 H 0.82999 0.0534 0.73724 0.0
C292 C 0.72589 0.02275 0.72293 0.0
C293 C 0.72358 0.02356 0.69661 0.0
C294 C 0.76181 0.0132 0.73484 0.0
C295 C 0.79628 0.00474 0.72065 0.0
C296 C 0.79358 0.00477 0.69436 0.0
H297 H 0.04544 0.99162 0.78138 0.0
H298 H 0.98346 0.00423 0.75746 0.0
C299 C 0.75752 0.01408 0.68243 0.0
C300 C 0.83528 0.99606 0.73319 0.0
H301 H 0.90918 0.01811 0.77454 0.0
C302 C 0.85138 0.96937 0.72816 0.0
C303 C 0.85698 0.01411 0.74964 0.0
C304 C 0.84295 0.04373 0.75448 0.0
C305 C 0.88822 0.96006 0.73948 0.0
C306 C 0.9089 0.97767 0.75677 0.0
C307 C 0.89311 0.00451 0.76147 0.0
C308 C 0.94713 0.96889 0.77015 0.0
C309 C 0.90497 0.93169 0.73236 0.0
C310 C 0.94737 0.94483 0.78524 0.0
C311 C 0.98295 0.93739 0.79868 0.0
C312 C 0.01865 0.9542 0.79762 0.0
C313 C 0.01836 0.97827 0.78255 0.0
C314 C 0.98297 0.98551 0.7689 0.0
H315 H 0.89317 0.92484 0.71376 0.0
H316 H 0.93939 0.93173 0.73181 0.0
H317 H 0.89476 0.91609 0.74647 0.0
H318 H 0.91979 0.93208 0.78706 0.0
H319 H 0.98217 0.91886 0.81034 0.0
H320 H 0.26928 0.49277 0.83197 0.0
H321 H 0.20754 0.47241 0.81216 0.0
H322 H 0.21381 0.5344 0.75354 0.0
H323 H 0.27546 0.55465 0.77301 0.0
H324 H 0.13121 0.49901 0.80189 0.0
H325 H 0.20561 0.46041 0.71472 0.0
H326 H 0.23498 0.47006 0.74225 0.0
H327 H 0.21611 0.49655 0.72121 0.0
C328 C 0.25761 0.50191 0.81477 0.0
C329 C 0.27729 0.52521 0.80397 0.0
C330 C 0.22237 0.4903 0.80351 0.0
C331 C 0.20652 0.50166 0.7812 0.0
C332 C 0.22604 0.52497 0.77047 0.0
H333 H 0.96644 0.49485 0.71219 0.0
H334 H 0.02914 0.50635 0.73587 0.0
C335 C 0.26114 0.5366 0.7817 0.0
C336 C 0.1687 0.48988 0.76947 0.0
H337 H 0.13159 0.46256 0.71471 0.0
C338 C 0.13132 0.49077 0.78293 0.0
C339 C 0.16905 0.47885 0.74485 0.0
C340 C 0.20865 0.47612 0.72997 0.0
C341 C 0.09392 0.48188 0.77203 0.0
C342 C 0.09397 0.47215 0.74697 0.0
C343 C 0.1316 0.47027 0.73386 0.0
C344 C 0.05516 0.46472 0.73367 0.0
C345 C 0.05467 0.48304 0.78739 0.0
C346 C 0.04929 0.43761 0.72428 0.0
C347 C 0.01351 0.43099 0.71068 0.0
C348 C 0.98322 0.45148 0.70605 0.0
C349 C 0.98914 0.47859 0.71555 0.0
C350 C 0.02483 0.48515 0.72921 0.0
H351 H 0.06141 0.48361 0.80783 0.0
H352 H 0.03724 0.50228 0.78251 0.0
H353 H 0.03448 0.46476 0.78339 0.0
H354 H 0.0725 0.4216 0.72739 0.0
H355 H 0.00985 0.40994 0.70352 0.0
H356 H 0.22861 0.93756 0.77852 0.0
H357 H 0.29112 0.95575 0.75847 0.0
H358 H 0.29573 0.02292 0.81243 0.0
H359 H 0.23372 0.00425 0.83311 0.0
H360 H 0.3047 0.00534 0.73612 0.0
H361 H 0.41249 0.99298 0.8167 0.0
H362 H 0.36152 0.97744 0.81628 0.0
H363 H 0.36768 0.01396 0.82336 0.0
C364 C 0.24301 0.95615 0.78619 0.0
C365 C 0.22643 0.96942 0.80746 0.0
C366 C 0.27872 0.96654 0.7747 0.0
C367 C 0.29851 0.99044 0.78416 0.0
C368 C 0.2816 0.00404 0.80517 0.0
H369 H 0.51553 0.07879 0.72447 0.0
H370 H 0.45255 0.06686 0.74807 0.0
C371 C 0.24603 0.99348 0.81686 0.0
C372 C 0.3363 0.00123 0.77156 0.0
H373 H 0.43926 0.01515 0.78043 0.0
C374 C 0.33408 0.00751 0.74585 0.0
C375 C 0.37465 0.00411 0.78428 0.0
C376 C 0.37949 0.99655 0.81162 0.0
C377 C 0.36917 0.01631 0.73247 0.0
C378 C 0.40749 0.01881 0.7451 0.0
C379 C 0.40967 0.01323 0.77089 0.0
C380 C 0.44601 0.02585 0.73146 0.0
C381 C 0.36518 0.02276 0.70486 0.0
C382 C 0.46331 0.00653 0.71469 0.0
C383 C 0.49925 0.01317 0.70136 0.0
C384 C 0.51844 0.03931 0.70453 0.0
C385 C 0.50133 0.05852 0.72161 0.0
C386 C 0.46546 0.05175 0.73509 0.0
H387 H 0.33229 0.02534 0.69909 0.0
H388 H 0.38249 0.0421 0.70005 0.0
H389 H 0.37872 0.00532 0.69383 0.0
H390 H 0.44889 0.98632 0.71187 0.0
H391 H 0.51173 0.99792 0.68837 0.0
H392 H 0.10457 0.49107 0.40746 0.0
H393 H 0.07251 0.47455 0.44645 0.0
H394 H 0.01963 0.55623 0.45855 0.0
H395 H 0.0513 0.57285 0.41958 0.0
H396 H 0.08189 0.49596 0.49627 0.0
H397 H 0.91915 0.50275 0.46262 0.0
H398 H 0.96302 0.50325 0.44157 0.0
H399 H 0.94901 0.53416 0.45874 0.0
C400 C 0.08616 0.50551 0.41845 0.0
C401 C 0.08027 0.53321 0.41043 0.0
C402 C 0.06789 0.49605 0.44069 0.0
C403 C 0.04321 0.51406 0.45513 0.0
C404 C 0.03795 0.54187 0.44741 0.0
H405 H 0.90384 0.50009 0.59342 0.0
H406 H 0.9366 0.51529 0.55427 0.0
C407 C 0.05626 0.55136 0.42523 0.0
C408 C 0.0232 0.50387 0.4784 0.0
H409 H 0.92888 0.49321 0.50589 0.0
C410 C 0.04845 0.49519 0.49837 0.0
C411 C 0.97958 0.50297 0.48102 0.0
C412 C 0.951 0.51103 0.4598 0.0
C413 C 0.03121 0.48619 0.52117 0.0
C414 C 0.98756 0.48536 0.52383 0.0
C415 C 0.96233 0.49391 0.5038 0.0
C416 C 0.96743 0.47587 0.54733 0.0
C417 C 0.05986 0.47834 0.54243 0.0
C418 C 0.97335 0.44852 0.55615 0.0
C419 C 0.95474 0.4398 0.57851 0.0
C420 C 0.92964 0.45824 0.59234 0.0
C421 C 0.92309 0.48544 0.5832 0.0
C422 C 0.94176 0.49415 0.56085 0.0
H423 H 0.09159 0.48684 0.53961 0.0
H424 H 0.04774 0.48608 0.56066 0.0
H425 H 0.06223 0.45524 0.54351 0.0
H426 H 0.99233 0.4339 0.54572 0.0
H427 H 0.96016 0.41867 0.58501 0.0
H428 H 0.39166 0.0009 0.41012 0.0
H429 H 0.42397 0.01633 0.44933 0.0
H430 H 0.48925 0.93789 0.45468 0.0
H431 H 0.45743 0.92241 0.41534 0.0
H432 H 0.42168 0.99188 0.49749 0.0
H433 H 0.58217 0.99646 0.45983 0.0
H434 H 0.53714 0.99416 0.4398 0.0
H435 H 0.55643 0.96352 0.45544 0.0
C436 C 0.41281 0.98691 0.41969 0.0
C437 C 0.42221 0.96051 0.40961 0.0
C438 C 0.43123 0.99576 0.44206 0.0
C439 C 0.45951 0.97844 0.45465 0.0
C440 C 0.46815 0.95179 0.44497 0.0
H441 H 0.60511 0.9953 0.5907 0.0
H442 H 0.57237 0.97941 0.55176 0.0
C443 C 0.44975 0.94292 0.42259 0.0
C444 C 0.47986 0.98827 0.47796 0.0
H445 H 0.57426 0.0035 0.50359 0.0
C446 C 0.45501 0.99453 0.49883 0.0
C447 C 0.52336 0.99168 0.4796 0.0
C448 C 0.5514 0.98636 0.45743 0.0
C449 C 0.47259 0.00367 0.52149 0.0
C450 C 0.51609 0.00711 0.52312 0.0
C451 C 0.54093 0.00083 0.50225 0.0
C452 C 0.53644 0.01712 0.54636 0.0
C453 C 0.44455 0.009 0.54365 0.0
C454 C 0.52768 0.0438 0.55592 0.0
C455 C 0.54632 0.05294 0.57814 0.0
C456 C 0.57424 0.03558 0.59109 0.0
C457 C 0.58367 0.00912 0.58116 0.0
C458 C 0.56501 1.0 0.55894 0.0
H459 H 0.41386 0.99877 0.54131 0.0
H460 H 0.45889 0.00135 0.56131 0.0
H461 H 0.43931 0.03183 0.54555 0.0
H462 H 0.50636 0.05755 0.54621 0.0
H463 H 0.5386 0.07349 0.58528 0.0
H464 H 0.60421 0.43159 0.06903 0.0
H465 H 0.57536 0.44678 0.02875 0.0
H466 H 0.54137 0.5259 0.06179 0.0
H467 H 0.57204 0.51134 0.1016 0.0
H468 H 0.49987 0.45892 0.01637 0.0
H469 H 0.59464 0.55331 0.99952 0.0
H470 H 0.60688 0.52861 0.02397 0.0
H471 H 0.56837 0.55533 0.02908 0.0
C472 C 0.59116 0.45238 0.06752 0.0
C473 C 0.59071 0.4704 0.08832 0.0
C474 C 0.57457 0.46102 0.04455 0.0
C475 C 0.5568 0.48771 0.04204 0.0
C476 C 0.55608 0.5056 0.06294 0.0
H477 H 0.37793 0.53062 0.92535 0.0
H478 H 0.41207 0.51602 0.96427 0.0
C479 C 0.57339 0.49719 0.08575 0.0
C480 C 0.53719 0.49625 0.01798 0.0
H481 H 0.53292 0.54895 0.97488 0.0
C482 C 0.50741 0.4785 0.00718 0.0
C483 C 0.54736 0.5216 0.00572 0.0
C484 C 0.58139 0.54063 0.01504 0.0
C485 C 0.48715 0.48554 0.98473 0.0
C486 C 0.49567 0.5116 0.97323 0.0
C487 C 0.52588 0.52915 0.98384 0.0
C488 C 0.47451 0.52084 0.94987 0.0
C489 C 0.45764 0.46459 0.97333 0.0
C490 C 0.4981 0.52955 0.92914 0.0
C491 C 0.47864 0.53864 0.9072 0.0
C492 C 0.43519 0.5389 0.90542 0.0
C493 C 0.4115 0.53034 0.92615 0.0
C494 C 0.431 0.52176 0.94831 0.0
H495 H 0.46473 0.44298 0.97966 0.0
H496 H 0.42555 0.46953 0.97938 0.0
H497 H 0.45884 0.4651 0.95251 0.0
H498 H 0.53167 0.52915 0.92986 0.0
H499 H 0.49768 0.54508 0.89148 0.0
H500 H 0.10841 0.00204 0.91139 0.0
H501 H 0.07752 0.01856 0.95072 0.0
H502 H 0.00628 0.94251 0.9561 0.0
H503 H 0.03725 0.92575 0.91701 0.0
H504 H 0.9925 0.02691 0.96083 0.0
H505 H 0.06113 0.94845 0.02539 0.0
H506 H 0.08088 0.95445 0.99414 0.0
H507 H 0.03499 0.93374 0.99872 0.0
C508 C 0.08642 0.98876 0.92107 0.0
C509 C 0.07537 0.96255 0.9112 0.0
C510 C 0.06877 0.99824 0.94349 0.0
C511 C 0.04006 0.98159 0.95647 0.0
C512 C 0.02899 0.95544 0.94663 0.0
H513 H 0.89225 0.00064 0.0914 0.0
H514 H 0.9239 0.98474 0.05211 0.0
C515 C 0.04657 0.94596 0.92424 0.0
C516 C 0.02049 0.99197 0.97983 0.0
H517 H 0.00803 0.97738 0.04209 0.0
C518 C 0.99607 0.01621 0.97865 0.0
C519 C 0.0251 0.97786 0.00298 0.0
C520 C 0.05223 0.95232 0.00554 0.0
C521 C 0.97541 0.02645 0.99994 0.0
C522 C 0.97996 0.01231 0.0231 0.0
C523 C 0.00449 0.98811 0.02428 0.0
C524 C 0.95986 0.0224 0.04641 0.0
C525 C 0.94813 0.05191 0.99732 0.0
C526 C 0.96978 0.04876 0.05627 0.0
C527 C 0.95167 0.05791 0.07863 0.0
C528 C 0.92357 0.04075 0.09164 0.0
C529 C 0.91369 0.01435 0.08175 0.0
C530 C 0.93178 0.00523 0.05935 0.0
H531 H 0.93917 0.05567 0.97747 0.0
H532 H 0.9195 0.04976 0.00874 0.0
H533 H 0.96529 0.07056 0.00406 0.0
H534 H 0.99203 0.0621 0.04687 0.0
H535 H 0.96012 0.07828 0.08588 0.0
H536 H 0.2249 0.62858 0.37463 0.0
H537 H 0.25835 0.6745 0.37564 0.0
H538 H 0.17245 0.70456 0.31975 0.0
H539 H 0.13948 0.65854 0.31824 0.0
H540 H 0.25222 0.71866 0.3089 0.0
H541 H 0.21594 0.74589 0.40769 0.0
H542 H 0.24267 0.7132 0.40424 0.0
H543 H 0.19131 0.71716 0.39158 0.0
C544 C 0.21299 0.64504 0.36268 0.0
C545 C 0.17948 0.64002 0.34642 0.0
C546 C 0.23199 0.6713 0.36338 0.0
C547 C 0.2175 0.69308 0.34805 0.0
C548 C 0.18403 0.68808 0.33181 0.0
H549 H 0.27012 0.86961 0.35911 0.0
H550 H 0.24024 0.82268 0.36009 0.0
C551 C 0.16518 0.6618 0.331 0.0
C552 C 0.23791 0.72087 0.34831 0.0
H553 H 0.26233 0.77605 0.38617 0.0
C554 C 0.25441 0.73124 0.32578 0.0
C555 C 0.24034 0.73735 0.37031 0.0
C556 C 0.22129 0.72801 0.39478 0.0
C557 C 0.27336 0.75762 0.32463 0.0
C558 C 0.27674 0.7738 0.34677 0.0
C559 C 0.26012 0.76347 0.36929 0.0
C560 C 0.29573 0.80204 0.34674 0.0
C561 C 0.28853 0.7682 0.29958 0.0
C562 C 0.33711 0.80599 0.3393 0.0
C563 C 0.3542 0.83286 0.33855 0.0
C564 C 0.33032 0.85617 0.34552 0.0
C565 C 0.28928 0.85206 0.35359 0.0
C566 C 0.27216 0.82526 0.35419 0.0
H567 H 0.27408 0.7567 0.28372 0.0
H568 H 0.28181 0.79083 0.29733 0.0
H569 H 0.32259 0.76521 0.29837 0.0
H570 H 0.35616 0.7883 0.33402 0.0
H571 H 0.38601 0.83538 0.33243 0.0
H572 H 0.85729 0.16342 0.18653 0.0
H573 H 0.82237 0.2088 0.18503 0.0
H574 H 0.75014 0.18119 0.12158 0.0
H575 H 0.78532 0.13583 0.12275 0.0
H576 H 0.78262 0.23456 0.11554 0.0
H577 H 0.70297 0.22418 0.2073 0.0
H578 H 0.75807 0.21909 0.20904 0.0
H579 H 0.72674 0.19491 0.19148 0.0
C580 C 0.83403 0.16703 0.17222 0.0
C581 C 0.82391 0.14605 0.15481 0.0
C582 C 0.81391 0.19289 0.17151 0.0
C583 C 0.78313 0.19815 0.15349 0.0
C584 C 0.7736 0.17746 0.13574 0.0
H585 H 0.61417 0.34109 0.15988 0.0
H586 H 0.64294 0.29367 0.15772 0.0
C587 C 0.79373 0.15159 0.13644 0.0
C588 C 0.76133 0.22541 0.15294 0.0
H589 H 0.70197 0.26935 0.18842 0.0
C590 C 0.76476 0.24211 0.1314 0.0
C591 C 0.73745 0.23499 0.17349 0.0
C592 C 0.73066 0.21727 0.19655 0.0
C593 C 0.74602 0.26856 0.13016 0.0
C594 C 0.72385 0.27871 0.15119 0.0
C595 C 0.71931 0.26163 0.17242 0.0
C596 C 0.70619 0.30731 0.15182 0.0
C597 C 0.74995 0.28531 0.10629 0.0
C598 C 0.73227 0.33063 0.14951 0.0
C599 C 0.71596 0.35762 0.15067 0.0
C600 C 0.67327 0.36184 0.15441 0.0
C601 C 0.64717 0.33847 0.15691 0.0
C602 C 0.66354 0.31141 0.1557 0.0
H603 H 0.75685 0.2717 0.08992 0.0
H604 H 0.72114 0.29724 0.10236 0.0
H605 H 0.77587 0.30041 0.10828 0.0
H606 H 0.76539 0.32796 0.1471 0.0
H607 H 0.73692 0.3752 0.14886 0.0
H608 H 0.61565 0.16161 0.66976 0.0
H609 H 0.64624 0.20844 0.66766 0.0
H610 H 0.75702 0.1738 0.63461 0.0
H611 H 0.7263 0.12715 0.63609 0.0
H612 H 0.71544 0.22734 0.69053 0.0
H613 H 0.73312 0.23805 0.58763 0.0
H614 H 0.70184 0.21101 0.60175 0.0
H615 H 0.75722 0.20699 0.59959 0.0
C616 C 0.64633 0.16406 0.66178 0.0
C617 C 0.66851 0.14076 0.65297 0.0
C618 C 0.66378 0.19079 0.66062 0.0
C619 C 0.70366 0.19469 0.65061 0.0
C620 C 0.72581 0.17142 0.64182 0.0
H621 H 0.86807 0.33416 0.68087 0.0
H622 H 0.83302 0.28883 0.67909 0.0
C623 C 0.70831 0.14473 0.64283 0.0
C624 C 0.72297 0.22284 0.65058 0.0
H625 H 0.77017 0.27097 0.61286 0.0
C626 C 0.72714 0.23698 0.67352 0.0
C627 C 0.73774 0.23556 0.62833 0.0
C628 C 0.7319 0.22226 0.6029 0.0
C629 C 0.7465 0.26321 0.67492 0.0
C630 C 0.76305 0.27531 0.65286 0.0
C631 C 0.758 0.26149 0.62981 0.0
C632 C 0.7853 0.30244 0.65325 0.0
C633 C 0.74845 0.27784 0.69999 0.0
C634 C 0.77111 0.32484 0.63856 0.0
C635 C 0.79144 0.35063 0.63927 0.0
C636 C 0.82633 0.35448 0.65469 0.0
C637 C 0.84105 0.33187 0.66896 0.0
C638 C 0.82088 0.30602 0.6681 0.0
H639 H 0.72435 0.26992 0.71308 0.0
H640 H 0.77918 0.27396 0.70868 0.0
H641 H 0.74437 0.30077 0.69783 0.0
H642 H 0.74388 0.32249 0.62684 0.0
H643 H 0.7794 0.36767 0.62804 0.0
H644 H 0.30441 0.63463 0.88409 0.0
H645 H 0.27134 0.68052 0.88778 0.0
H646 H 0.32665 0.70574 0.81765 0.0
H647 H 0.36046 0.66015 0.81409 0.0
H648 H 0.33101 0.7468 0.85375 0.0
H649 H 0.17106 0.7045 0.84652 0.0
H650 H 0.20129 0.68977 0.87154 0.0
H651 H 0.21636 0.6838 0.83951 0.0
C652 C 0.30971 0.65003 0.86954 0.0
C653 C 0.3348 0.64376 0.84872 0.0
C654 C 0.29059 0.67616 0.8716 0.0
C655 C 0.29589 0.69633 0.85275 0.0
C656 C 0.32197 0.69041 0.83234 0.0
H657 H 0.14528 0.83937 0.81642 0.0
H658 H 0.18028 0.79411 0.81894 0.0
C659 C 0.34124 0.66435 0.83033 0.0
C660 C 0.27391 0.72351 0.85399 0.0
H661 H 0.17743 0.75293 0.85455 0.0
C662 C 0.29744 0.74818 0.854 0.0
C663 C 0.23009 0.7252 0.85397 0.0
C664 C 0.20313 0.69944 0.85265 0.0
C665 C 0.27834 0.77456 0.85394 0.0
C666 C 0.23453 0.77624 0.8544 0.0
C667 C 0.21101 0.75156 0.85444 0.0
C668 C 0.21243 0.8034 0.85361 0.0
C669 C 0.30526 0.80032 0.85259 0.0
C670 C 0.21825 0.82344 0.87253 0.0
C671 C 0.19847 0.8494 0.87105 0.0
C672 C 0.17216 0.85561 0.85077 0.0
C673 C 0.16541 0.8352 0.83225 0.0
C674 C 0.18537 0.80933 0.83367 0.0
H675 H 0.33713 0.79534 0.84603 0.0
H676 H 0.29162 0.81615 0.83977 0.0
H677 H 0.30772 0.80974 0.87155 0.0
H678 H 0.23825 0.81906 0.88837 0.0
H679 H 0.20402 0.86467 0.88568 0.0
loop_
_geom_bond_atom_site_label_1
_geom_bond_atom_site_label_2
_geom_bond_distance
_geom_bond_site_symmetry_2
_ccdc_geom_bond_type
In0 O1 2.294 . S
In0 O2 2.326 . S
In0 O6 2.266 . S
In0 O7 2.326 . S
In0 O8 2.266 . S
In0 O9 2.326 . S
In0 O11 2.294 . S
In0 O12 2.326 . S
O1 In0 2.294 . S
O1 C10 1.240 . S
O2 In0 2.326 . S
O2 C10 1.252 . S
C3 O6 1.252 . S
C3 O7 1.260 . S
C4 O11 1.240 . S
C4 O12 1.252 . S
C5 O8 1.252 . S
C5 O9 1.260 . S
O6 In0 2.266 . S
O6 C3 1.252 . S
O7 In0 2.326 . S
O7 C3 1.260 . S
O8 In0 2.266 . S
O8 C5 1.252 . S
O9 In0 2.326 . S
O9 C5 1.260 . S
C10 O1 1.240 . S
C10 O2 1.252 . S
O11 In0 2.294 . S
O11 C4 1.240 . S
O12 In0 2.326 . S
O12 C4 1.252 . S
In13 O14 2.294 . S
In13 O15 2.326 . S
In13 O19 2.266 . S
In13 O20 2.326 . S
In13 O21 2.266 . S
In13 O22 2.326 . S
In13 O24 2.294 . S
In13 O25 2.326 . S
O14 In13 2.294 . S
O14 C23 1.240 . S
O15 In13 2.326 . S
O15 C23 1.252 . S
C16 O19 1.252 . S
C16 O20 1.260 . S
C17 O24 1.240 . S
C17 O25 1.252 . S
C18 O21 1.252 . S
C18 O22 1.260 . S
O19 In13 2.266 . S
O19 C16 1.252 . S
O20 In13 2.326 . S
O20 C16 1.260 . S
O21 In13 2.266 . S
O21 C18 1.252 . S
O22 In13 2.326 . S
O22 C18 1.260 . S
C23 O14 1.240 . S
C23 O15 1.252 . S
O24 In13 2.294 . S
O24 C17 1.240 . S
O25 In13 2.326 . S
O25 C17 1.252 . S
In26 O27 2.294 . S
In26 O28 2.326 . S
In26 O32 2.266 . S
In26 O33 2.326 . S
In26 O34 2.266 . S
In26 O35 2.326 . S
In26 O37 2.294 . S
In26 O38 2.326 . S
O27 In26 2.294 . S
O27 C36 1.240 . S
O28 In26 2.326 . S
O28 C36 1.252 . S
C29 O32 1.252 . S
C29 O33 1.260 . S
C30 O37 1.240 . S
C30 O38 1.252 . S
C31 O34 1.252 . S
C31 O35 1.260 . S
O32 In26 2.266 . S
O32 C29 1.252 . S
O33 In26 2.326 . S
O33 C29 1.260 . S
O34 In26 2.266 . S
O34 C31 1.252 . S
O35 In26 2.326 . S
O35 C31 1.260 . S
C36 O27 1.240 . S
C36 O28 1.252 . S
O37 In26 2.294 . S
O37 C30 1.240 . S
O38 In26 2.326 . S
O38 C30 1.252 . S
In39 O40 2.294 . S
In39 O41 2.326 . S
In39 O45 2.266 . S
In39 O46 2.326 . S
In39 O47 2.266 . S
In39 O48 2.326 . S
In39 O50 2.294 . S
In39 O51 2.326 . S
O40 In39 2.294 . S
O40 C49 1.240 . S
O41 In39 2.326 . S
O41 C49 1.252 . S
C42 O45 1.252 . S
C42 O46 1.260 . S
C43 O50 1.240 . S
C43 O51 1.252 . S
C44 O47 1.252 . S
C44 O48 1.260 . S
O45 In39 2.266 . S
O45 C42 1.252 . S
O46 In39 2.326 . S
O46 C42 1.260 . S
O47 In39 2.266 . S
O47 C44 1.252 . S
O48 In39 2.326 . S
O48 C44 1.260 . S
C49 O40 1.240 . S
C49 O41 1.252 . S
O50 In39 2.294 . S
O50 C43 1.240 . S
O51 In39 2.326 . S
O51 C43 1.252 . S
In52 O53 2.294 . S
In52 O54 2.326 . S
In52 O58 2.266 . S
In52 O59 2.326 . S
In52 O60 2.266 . S
In52 O61 2.326 . S
In52 O63 2.294 . S
In52 O64 2.326 . S
O53 In52 2.294 . S
O53 C62 1.240 . S
O54 In52 2.326 . S
O54 C62 1.252 . S
C55 O58 1.252 . S
C55 O59 1.260 . S
C56 O63 1.240 . S
C56 O64 1.252 . S
C57 O60 1.252 . S
C57 O61 1.260 . S
O58 In52 2.266 . S
O58 C55 1.252 . S
O59 In52 2.326 . S
O59 C55 1.260 . S
O60 In52 2.266 . S
O60 C57 1.252 . S
O61 In52 2.326 . S
O61 C57 1.260 . S
C62 O53 1.240 . S
C62 O54 1.252 . S
O63 In52 2.294 . S
O63 C56 1.240 . S
O64 In52 2.326 . S
O64 C56 1.252 . S
In65 O66 2.294 . S
In65 O67 2.326 . S
In65 O71 2.266 . S
In65 O72 2.326 . S
In65 O73 2.266 . S
In65 O74 2.326 . S
In65 O76 2.294 . S
In65 O77 2.326 . S
O66 In65 2.294 . S
O66 C75 1.240 . S
O67 In65 2.326 . S
O67 C75 1.252 . S
C68 O71 1.252 . S
C68 O72 1.260 . S
C69 O76 1.240 . S
C69 O77 1.252 . S
C70 O73 1.252 . S
C70 O74 1.260 . S
O71 In65 2.266 . S
O71 C68 1.252 . S
O72 In65 2.326 . S
O72 C68 1.260 . S
O73 In65 2.266 . S
O73 C70 1.252 . S
O74 In65 2.326 . S
O74 C70 1.260 . S
C75 O66 1.240 . S
C75 O67 1.252 . S
O76 In65 2.294 . S
O76 C69 1.240 . S
O77 In65 2.326 . S
O77 C69 1.252 . S
In78 O79 2.294 . S
In78 O80 2.326 . S
In78 O84 2.266 . S
In78 O85 2.326 . S
In78 O86 2.266 . S
In78 O87 2.326 . S
In78 O89 2.294 . S
In78 O90 2.326 . S
O79 In78 2.294 . S
O79 C88 1.240 . S
O80 In78 2.326 . S
O80 C88 1.252 . S
C81 O84 1.252 . S
C81 O85 1.260 . S
C82 O89 1.240 . S
C82 O90 1.252 . S
C83 O86 1.252 . S
C83 O87 1.260 . S
O84 In78 2.266 . S
O84 C81 1.252 . S
O85 In78 2.326 . S
O85 C81 1.260 . S
O86 In78 2.266 . S
O86 C83 1.252 . S
O87 In78 2.326 . S
O87 C83 1.260 . S
C88 O79 1.240 . S
C88 O80 1.252 . S
O89 In78 2.294 . S
O89 C82 1.240 . S
O90 In78 2.326 . S
O90 C82 1.252 . S
In91 O92 2.294 . S
In91 O93 2.326 . S
In91 O97 2.266 . S
In91 O98 2.326 . S
In91 O99 2.266 . S
In91 O100 2.326 . S
In91 O102 2.294 . S
In91 O103 2.326 . S
O92 In91 2.294 . S
O92 C101 1.240 . S
O93 In91 2.326 . S
O93 C101 1.252 . S
C94 O97 1.252 . S
C94 O98 1.260 . S
C95 O102 1.240 . S
C95 O103 1.252 . S
C96 O99 1.252 . S
C96 O100 1.260 . S
O97 In91 2.266 . S
O97 C94 1.252 . S
O98 In91 2.326 . S
O98 C94 1.260 . S
O99 In91 2.266 . S
O99 C96 1.252 . S
O100 In91 2.326 . S
O100 C96 1.260 . S
C101 O92 1.240 . S
C101 O93 1.252 . S
O102 In91 2.294 . S
O102 C95 1.240 . S
O103 In91 2.326 . S
O103 C95 1.252 . S
H104 C112 0.929 . S
H105 C114 0.930 . S
H106 C116 0.930 . S
H107 C119 0.929 . S
H108 C122 0.930 . S
H109 C124 0.960 . S
H110 C124 0.960 . S
H111 C124 0.960 . S
C112 H104 0.929 . S
C112 C113 1.377 . S
C112 C114 1.384 . S
C113 C112 1.377 . S
C113 C119 1.390 . S
C114 H105 0.930 . S
C114 C112 1.384 . S
C114 C115 1.372 . S
C115 C114 1.372 . S
C115 C116 1.400 . S
C115 C120 1.490 . S
C116 H106 0.930 . S
C116 C115 1.400 . S
C116 C119 1.386 . S
H117 C133 0.930 . S
H118 C134 0.931 . S
C119 H107 0.929 . S
C119 C113 1.390 . S
C119 C116 1.386 . S
C120 C115 1.490 . S
C120 C122 1.395 . S
C120 C123 1.403 . S
H121 C127 0.930 . S
C122 H108 0.930 . S
C122 C120 1.395 . S
C122 C125 1.403 . S
C123 C120 1.403 . S
C123 C124 1.524 . S
C123 C127 1.400 . S
C124 H109 0.960 . S
C124 H110 0.960 . S
C124 H111 0.960 . S
C124 C123 1.524 . S
C125 C122 1.403 . S
C125 C126 1.392 . S
C125 C129 1.495 . S
C126 C125 1.392 . S
C126 C127 1.385 . S
C126 C128 1.478 . S
C127 H121 0.930 . S
C127 C123 1.400 . S
C127 C126 1.385 . S
C128 C126 1.478 . S
C128 C130 1.381 . S
C128 C134 1.383 . S
C129 C125 1.495 . S
C129 H135 0.959 . S
C129 H136 0.961 . S
C129 H137 0.960 . S
C130 C128 1.381 . S
C130 C131 1.394 . S
C130 H138 0.930 . S
C131 C130 1.394 . S
C131 C132 1.383 . S
C131 H139 0.929 . S
C132 C131 1.383 . S
C132 C133 1.377 . S
C133 H117 0.930 . S
C133 C132 1.377 . S
C133 C134 1.379 . S
C134 H118 0.931 . S
C134 C128 1.383 . S
C134 C133 1.379 . S
H135 C129 0.959 . S
H136 C129 0.961 . S
H137 C129 0.960 . S
H138 C130 0.930 . S
H139 C131 0.929 . S
H140 C148 0.929 . S
H141 C150 0.930 . S
H142 C152 0.930 . S
H143 C155 0.929 . S
H144 C158 0.930 . S
H145 C160 0.960 . S
H146 C160 0.960 . S
H147 C160 0.960 . S
C148 H140 0.929 . S
C148 C149 1.377 . S
C148 C150 1.384 1_655 S
C149 C148 1.377 . S
C149 C155 1.390 1_655 S
C150 H141 0.930 . S
C150 C148 1.384 1_455 S
C150 C151 1.372 . S
C151 C150 1.372 . S
C151 C152 1.400 . S
C151 C156 1.490 . S
C152 H142 0.930 . S
C152 C151 1.400 . S
C152 C155 1.386 . S
H153 C169 0.930 . S
H154 C170 0.931 . S
C155 H143 0.929 . S
C155 C149 1.390 1_455 S
C155 C152 1.386 . S
C156 C151 1.490 . S
C156 C158 1.395 1_545 S
C156 C159 1.403 . S
H157 C163 0.930 . S
C158 H144 0.930 . S
C158 C156 1.395 1_565 S
C158 C161 1.403 . S
C159 C156 1.403 . S
C159 C160 1.524 . S
C159 C163 1.400 . S
C160 H145 0.960 . S
C160 H146 0.960 . S
C160 H147 0.960 . S
C160 C159 1.524 . S
C161 C158 1.403 . S
C161 C162 1.392 . S
C161 C165 1.495 . S
C162 C161 1.392 . S
C162 C163 1.385 1_565 S
C162 C164 1.478 . S
C163 H157 0.930 . S
C163 C159 1.400 . S
C163 C162 1.385 1_545 S
C164 C162 1.478 . S
C164 C166 1.381 . S
C164 C170 1.383 . S
C165 C161 1.495 . S
C165 H171 0.959 . S
C165 H172 0.961 . S
C165 H173 0.960 . S
C166 C164 1.381 . S
C166 C167 1.394 . S
C166 H174 0.930 . S
C167 C166 1.394 . S
C167 C168 1.383 . S
C167 H175 0.929 . S
C168 C167 1.383 . S
C168 C169 1.377 . S
C169 H153 0.930 . S
C169 C168 1.377 . S
C169 C170 1.379 . S
C170 H154 0.931 . S
C170 C164 1.383 . S
C170 C169 1.379 . S
H171 C165 0.959 . S
H172 C165 0.961 . S
H173 C165 0.960 . S
H174 C166 0.930 . S
H175 C167 0.929 . S
H176 C184 0.929 . S
H177 C186 0.930 . S
H178 C188 0.930 . S
H179 C191 0.929 . S
H180 C194 0.930 . S
H181 C196 0.960 . S
H182 C196 0.960 . S
H183 C196 0.960 . S
C184 H176 0.929 . S
C184 C185 1.377 . S
C184 C186 1.384 . S
C185 C184 1.377 . S
C185 C191 1.390 . S
C186 H177 0.930 . S
C186 C184 1.384 . S
C186 C187 1.372 . S
C187 C186 1.372 . S
C187 C188 1.400 . S
C187 C192 1.490 . S
C188 H178 0.930 . S
C188 C187 1.400 . S
C188 C191 1.386 . S
H189 C205 0.930 . S
H190 C206 0.931 . S
C191 H179 0.929 . S
C191 C185 1.390 . S
C191 C188 1.386 . S
C192 C187 1.490 . S
C192 C194 1.395 . S
C192 C195 1.403 . S
H193 C199 0.930 . S
C194 H180 0.930 . S
C194 C192 1.395 . S
C194 C197 1.403 . S
C195 C192 1.403 . S
C195 C196 1.524 . S
C195 C199 1.400 . S
C196 H181 0.960 . S
C196 H182 0.960 . S
C196 H183 0.960 . S
C196 C195 1.524 . S
C197 C194 1.403 . S
C197 C198 1.392 . S
C197 C201 1.495 . S
C198 C197 1.392 . S
C198 C199 1.385 . S
C198 C200 1.478 . S
C199 H193 0.930 . S
C199 C195 1.400 . S
C199 C198 1.385 . S
C200 C198 1.478 . S
C200 C202 1.381 . S
C200 C206 1.383 . S
C201 C197 1.495 . S
C201 H207 0.959 . S
C201 H208 0.961 . S
C201 H209 0.960 . S
C202 C200 1.381 . S
C202 C203 1.394 . S
C202 H210 0.930 . S
C203 C202 1.394 . S
C203 C204 1.383 1_655 S
C203 H211 0.929 . S
C204 C203 1.383 1_455 S
C204 C205 1.377 . S
C205 H189 0.930 . S
C205 C204 1.377 . S
C205 C206 1.379 1_455 S
C206 H190 0.931 . S
C206 C200 1.383 . S
C206 C205 1.379 1_655 S
H207 C201 0.959 . S
H208 C201 0.961 . S
H209 C201 0.960 . S
H210 C202 0.930 . S
H211 C203 0.929 . S
H212 C220 0.929 . S
H213 C222 0.930 . S
H214 C224 0.930 . S
H215 C227 0.929 . S
H216 C230 0.930 . S
H217 C232 0.960 . S
H218 C232 0.960 . S
H219 C232 0.960 . S
C220 H212 0.929 . S
C220 C221 1.377 . S
C220 C222 1.384 . S
C221 C220 1.377 . S
C221 C227 1.390 . S
C222 H213 0.930 . S
C222 C220 1.384 . S
C222 C223 1.372 . S
C223 C222 1.372 . S
C223 C224 1.400 . S
C223 C228 1.490 . S
C224 H214 0.930 . S
C224 C223 1.400 . S
C224 C227 1.386 . S
H225 C241 0.930 . S
H226 C242 0.931 . S
C227 H215 0.929 . S
C227 C221 1.390 . S
C227 C224 1.386 . S
C228 C223 1.490 . S
C228 C230 1.395 1_545 S
C228 C231 1.403 . S
H229 C235 0.930 . S
C230 H216 0.930 . S
C230 C228 1.395 1_565 S
C230 C233 1.403 . S
C231 C228 1.403 . S
C231 C232 1.524 . S
C231 C235 1.400 . S
C232 H217 0.960 . S
C232 H218 0.960 . S
C232 H219 0.960 . S
C232 C231 1.524 . S
C233 C230 1.403 . S
C233 C234 1.392 . S
C233 C237 1.495 . S
C234 C233 1.392 . S
C234 C235 1.385 1_565 S
C234 C236 1.478 . S
C235 H229 0.930 . S
C235 C231 1.400 . S
C235 C234 1.385 1_545 S
C236 C234 1.478 . S
C236 C238 1.381 . S
C236 C242 1.383 . S
C237 C233 1.495 . S
C237 H243 0.959 . S
C237 H244 0.961 . S
C237 H245 0.960 . S
C238 C236 1.381 . S
C238 C239 1.394 . S
C238 H246 0.930 . S
C239 C238 1.394 . S
C239 C240 1.383 . S
C239 H247 0.929 . S
C240 C239 1.383 . S
C240 C241 1.377 . S
C241 H225 0.930 . S
C241 C240 1.377 . S
C241 C242 1.379 . S
C242 H226 0.931 . S
C242 C236 1.383 . S
C242 C241 1.379 . S
H243 C237 0.959 . S
H244 C237 0.961 . S
H245 C237 0.960 . S
H246 C238 0.930 . S
H247 C239 0.929 . S
H248 C256 0.929 . S
H249 C258 0.930 . S
H250 C260 0.930 . S
H251 C263 0.929 . S
H252 C266 0.930 . S
H253 C268 0.960 . S
H254 C268 0.960 . S
H255 C268 0.960 . S
C256 H248 0.929 . S
C256 C257 1.377 . S
C256 C258 1.384 . S
C257 C256 1.377 . S
C257 C263 1.390 . S
C258 H249 0.930 . S
C258 C256 1.384 . S
C258 C259 1.372 . S
C259 C258 1.372 . S
C259 C260 1.400 . S
C259 C264 1.490 . S
C260 H250 0.930 . S
C260 C259 1.400 . S
C260 C263 1.386 . S
H261 C277 0.930 . S
H262 C278 0.931 . S
C263 H251 0.929 . S
C263 C257 1.390 . S
C263 C260 1.386 . S
C264 C259 1.490 . S
C264 C266 1.395 . S
C264 C267 1.403 . S
H265 C271 0.930 . S
C266 H252 0.930 . S
C266 C264 1.395 . S
C266 C269 1.403 . S
C267 C264 1.403 . S
C267 C268 1.524 . S
C267 C271 1.400 . S
C268 H253 0.960 . S
C268 H254 0.960 . S
C268 H255 0.960 . S
C268 C267 1.524 . S
C269 C266 1.403 . S
C269 C270 1.392 . S
C269 C273 1.495 . S
C270 C269 1.392 . S
C270 C271 1.385 . S
C270 C272 1.478 . S
C271 H265 0.930 . S
C271 C267 1.400 . S
C271 C270 1.385 . S
C272 C270 1.478 . S
C272 C274 1.381 . S
C272 C278 1.383 . S
C273 C269 1.495 . S
C273 H279 0.959 . S
C273 H280 0.961 . S
C273 H281 0.960 . S
C274 C272 1.381 . S
C274 C275 1.394 . S
C274 H282 0.930 . S
C275 C274 1.394 . S
C275 C276 1.383 . S
C275 H283 0.929 . S
C276 C275 1.383 . S
C276 C277 1.377 . S
C277 H261 0.930 . S
C277 C276 1.377 . S
C277 C278 1.379 . S
C278 H262 0.931 . S
C278 C272 1.383 . S
C278 C277 1.379 . S
H279 C273 0.959 . S
H280 C273 0.961 . S
H281 C273 0.960 . S
H282 C274 0.930 . S
H283 C275 0.929 . S
H284 C292 0.929 . S
H285 C294 0.930 . S
H286 C296 0.930 . S
H287 C299 0.929 . S
H288 C302 0.930 . S
H289 C304 0.960 . S
H290 C304 0.960 . S
H291 C304 0.960 . S
C292 H284 0.929 . S
C292 C293 1.377 . S
C292 C294 1.384 . S
C293 C292 1.377 . S
C293 C299 1.390 . S
C294 H285 0.930 . S
C294 C292 1.384 . S
C294 C295 1.372 . S
C295 C294 1.372 . S
C295 C296 1.400 . S
C295 C300 1.490 . S
C296 H286 0.930 . S
C296 C295 1.400 . S
C296 C299 1.386 . S
H297 C313 0.930 . S
H298 C314 0.931 . S
C299 H287 0.929 . S
C299 C293 1.390 . S
C299 C296 1.386 . S
C300 C295 1.490 . S
C300 C302 1.395 1_545 S
C300 C303 1.403 . S
H301 C307 0.930 . S
C302 H288 0.930 . S
C302 C300 1.395 1_565 S
C302 C305 1.403 . S
C303 C300 1.403 . S
C303 C304 1.524 . S
C303 C307 1.400 . S
C304 H289 0.960 . S
C304 H290 0.960 . S
C304 H291 0.960 . S
C304 C303 1.524 . S
C305 C302 1.403 . S
C305 C306 1.392 . S
C305 C309 1.495 . S
C306 C305 1.392 . S
C306 C307 1.385 1_565 S
C306 C308 1.478 . S
C307 H301 0.930 . S
C307 C303 1.400 . S
C307 C306 1.385 1_545 S
C308 C306 1.478 . S
C308 C310 1.381 . S
C308 C314 1.383 . S
C309 C305 1.495 . S
C309 H315 0.959 . S
C309 H316 0.961 . S
C309 H317 0.960 . S
C310 C308 1.381 . S
C310 C311 1.394 . S
C310 H318 0.930 . S
C311 C310 1.394 . S
C311 C312 1.383 1_655 S
C311 H319 0.929 . S
C312 C311 1.383 1_455 S
C312 C313 1.377 . S
C313 H297 0.930 . S
C313 C312 1.377 . S
C313 C314 1.379 1_455 S
C314 H298 0.931 . S
C314 C308 1.383 . S
C314 C313 1.379 1_655 S
H315 C309 0.959 . S
H316 C309 0.961 . S
H317 C309 0.960 . S
H318 C310 0.930 . S
H319 C311 0.929 . S
H320 C328 0.929 . S
H321 C330 0.930 . S
H322 C332 0.930 . S
H323 C335 0.929 . S
H324 C338 0.930 . S
H325 C340 0.960 . S
H326 C340 0.960 . S
H327 C340 0.960 . S
C328 H320 0.929 . S
C328 C329 1.377 . S
C328 C330 1.384 . S
C329 C328 1.377 . S
C329 C335 1.390 . S
C330 H321 0.930 . S
C330 C328 1.384 . S
C330 C331 1.372 . S
C331 C330 1.372 . S
C331 C332 1.400 . S
C331 C336 1.490 . S
C332 H322 0.930 . S
C332 C331 1.400 . S
C332 C335 1.386 . S
H333 C349 0.930 . S
H334 C350 0.931 . S
C335 H323 0.929 . S
C335 C329 1.390 . S
C335 C332 1.386 . S
C336 C331 1.490 . S
C336 C338 1.395 . S
C336 C339 1.403 . S
H337 C343 0.930 . S
C338 H324 0.930 . S
C338 C336 1.395 . S
C338 C341 1.403 . S
C339 C336 1.403 . S
C339 C340 1.524 . S
C339 C343 1.400 . S
C340 H325 0.960 . S
C340 H326 0.960 . S
C340 H327 0.960 . S
C340 C339 1.524 . S
C341 C338 1.403 . S
C341 C342 1.392 . S
C341 C345 1.495 . S
C342 C341 1.392 . S
C342 C343 1.385 . S
C342 C344 1.478 . S
C343 H337 0.930 . S
C343 C339 1.400 . S
C343 C342 1.385 . S
C344 C342 1.478 . S
C344 C346 1.381 . S
C344 C350 1.383 . S
C345 C341 1.495 . S
C345 H351 0.959 . S
C345 H352 0.961 . S
C345 H353 0.960 . S
C346 C344 1.381 . S
C346 C347 1.394 1_455 S
C346 H354 0.930 . S
C347 C346 1.394 1_655 S
C347 C348 1.383 . S
C347 H355 0.929 . S
C348 C347 1.383 . S
C348 C349 1.377 . S
C349 H333 0.930 . S
C349 C348 1.377 . S
C349 C350 1.379 1_655 S
C350 H334 0.931 . S
C350 C344 1.383 . S
C350 C349 1.379 1_455 S
H351 C345 0.959 . S
H352 C345 0.961 . S
H353 C345 0.960 . S
H354 C346 0.930 . S
H355 C347 0.929 . S
H356 C364 0.929 . S
H357 C366 0.930 . S
H358 C368 0.930 1_545 S
H359 C371 0.929 1_545 S
H360 C374 0.930 . S
H361 C376 0.960 . S
H362 C376 0.960 . S
H363 C376 0.960 . S
C364 H356 0.929 . S
C364 C365 1.377 . S
C364 C366 1.384 . S
C365 C364 1.377 . S
C365 C371 1.390 . S
C366 H357 0.930 . S
C366 C364 1.384 . S
C366 C367 1.372 . S
C367 C366 1.372 . S
C367 C368 1.400 . S
C367 C372 1.490 . S
C368 H358 0.930 1_565 S
C368 C367 1.400 . S
C368 C371 1.386 . S
H369 C385 0.930 . S
H370 C386 0.931 . S
C371 H359 0.929 1_565 S
C371 C365 1.390 . S
C371 C368 1.386 . S
C372 C367 1.490 . S
C372 C374 1.395 . S
C372 C375 1.403 1_565 S
H373 C379 0.930 . S
C374 H360 0.930 . S
C374 C372 1.395 . S
C374 C377 1.403 . S
C375 C372 1.403 1_545 S
C375 C376 1.524 . S
C375 C379 1.400 . S
C376 H361 0.960 . S
C376 H362 0.960 . S
C376 H363 0.960 . S
C376 C375 1.524 . S
C377 C374 1.403 . S
C377 C378 1.392 1_565 S
C377 C381 1.495 . S
C378 C377 1.392 1_545 S
C378 C379 1.385 . S
C378 C380 1.478 . S
C379 H373 0.930 . S
C379 C375 1.400 . S
C379 C378 1.385 . S
C380 C378 1.478 . S
C380 C382 1.381 1_545 S
C380 C386 1.383 . S
C381 C377 1.495 . S
C381 H387 0.959 . S
C381 H388 0.961 . S
C381 H389 0.960 . S
C382 C380 1.381 1_565 S
C382 C383 1.394 1_565 S
C382 H390 0.930 . S
C383 C382 1.394 1_545 S
C383 C384 1.383 . S
C383 H391 0.929 1_545 S
C384 C383 1.383 . S
C384 C385 1.377 . S
C385 H369 0.930 . S
C385 C384 1.377 . S
C385 C386 1.379 . S
C386 H370 0.931 . S
C386 C380 1.383 . S
C386 C385 1.379 . S
H387 C381 0.959 . S
H388 C381 0.961 . S
H389 C381 0.960 . S
H390 C382 0.930 . S
H391 C383 0.929 1_565 S
H392 C400 0.929 . S
H393 C402 0.930 . S
H394 C404 0.930 . S
H395 C407 0.929 . S
H396 C410 0.930 . S
H397 C412 0.960 . S
H398 C412 0.960 . S
H399 C412 0.960 . S
C400 H392 0.929 . S
C400 C401 1.377 . S
C400 C402 1.384 . S
C401 C400 1.377 . S
C401 C407 1.390 . S
C402 H393 0.930 . S
C402 C400 1.384 . S
C402 C403 1.372 . S
C403 C402 1.372 . S
C403 C404 1.400 . S
C403 C408 1.490 . S
C404 H394 0.930 . S
C404 C403 1.400 . S
C404 C407 1.386 . S
H405 C421 0.930 . S
H406 C422 0.931 . S
C407 H395 0.929 . S
C407 C401 1.390 . S
C407 C404 1.386 . S
C408 C403 1.490 . S
C408 C410 1.395 . S
C408 C411 1.403 1_455 S
H409 C415 0.930 . S
C410 H396 0.930 . S
C410 C408 1.395 . S
C410 C413 1.403 . S
C411 C408 1.403 1_655 S
C411 C412 1.524 . S
C411 C415 1.400 . S
C412 H397 0.960 . S
C412 H398 0.960 . S
C412 H399 0.960 . S
C412 C411 1.524 . S
C413 C410 1.403 . S
C413 C414 1.392 1_455 S
C413 C417 1.495 . S
C414 C413 1.392 1_655 S
C414 C415 1.385 . S
C414 C416 1.478 . S
C415 H409 0.930 . S
C415 C411 1.400 . S
C415 C414 1.385 . S
C416 C414 1.478 . S
C416 C418 1.381 . S
C416 C422 1.383 . S
C417 C413 1.495 . S
C417 H423 0.959 . S
C417 H424 0.961 . S
C417 H425 0.960 . S
C418 C416 1.381 . S
C418 C419 1.394 . S
C418 H426 0.930 . S
C419 C418 1.394 . S
C419 C420 1.383 . S
C419 H427 0.929 . S
C420 C419 1.383 . S
C420 C421 1.377 . S
C421 H405 0.930 . S
C421 C420 1.377 . S
C421 C422 1.379 . S
C422 H406 0.931 . S
C422 C416 1.383 . S
C422 C421 1.379 . S
H423 C417 0.959 . S
H424 C417 0.961 . S
H425 C417 0.960 . S
H426 C418 0.930 . S
H427 C419 0.929 . S
H428 C436 0.929 . S
H429 C438 0.930 1_545 S
H430 C440 0.930 . S
H431 C443 0.929 . S
H432 C446 0.930 . S
H433 C448 0.949 1_545 S
H434 C448 0.934 1_545 S
H435 C448 1.000 . S
C436 H428 0.929 . S
C436 C437 1.377 . S
C436 C438 1.384 . S
C437 C436 1.377 . S
C437 C443 1.390 . S
C438 H429 0.930 1_565 S
C438 C436 1.384 . S
C438 C439 1.372 . S
C439 C438 1.372 . S
C439 C440 1.400 . S
C439 C444 1.490 . S
C440 H430 0.930 . S
C440 C439 1.400 . S
C440 C443 1.386 . S
H441 C457 0.930 . S
H442 C458 0.931 1_565 S
C443 H431 0.929 . S
C443 C437 1.390 . S
C443 C440 1.386 . S
C444 C439 1.490 . S
C444 C446 1.395 . S
C444 C447 1.411 . S
H445 C451 0.930 . S
C446 H432 0.930 . S
C446 C444 1.395 . S
C446 C449 1.403 1_565 S
C447 C444 1.411 . S
C447 C448 1.524 . S
C447 C451 1.391 1_565 S
C448 H433 0.949 1_565 S
C448 H434 0.934 1_565 S
C448 H435 1.000 . S
C448 C447 1.524 . S
C449 C446 1.403 1_545 S
C449 C450 1.392 . S
C449 C453 1.495 . S
C450 C449 1.392 . S
C450 C451 1.385 . S
C450 C452 1.478 . S
C451 H445 0.930 . S
C451 C447 1.391 1_545 S
C451 C450 1.385 . S
C452 C450 1.478 . S
C452 C454 1.381 . S
C452 C458 1.383 . S
C453 C449 1.495 . S
C453 H459 0.959 1_545 S
C453 H460 0.961 1_545 S
C453 H461 0.960 . S
C454 C452 1.381 . S
C454 C455 1.394 . S
C454 H462 0.930 . S
C455 C454 1.394 . S
C455 C456 1.383 . S
C455 H463 0.929 . S
C456 C455 1.383 . S
C456 C457 1.377 . S
C457 H441 0.930 . S
C457 C456 1.377 . S
C457 C458 1.379 . S
C458 H442 0.931 1_545 S
C458 C452 1.383 . S
C458 C457 1.379 . S
H459 C453 0.959 1_565 S
H460 C453 0.961 1_565 S
H461 C453 0.960 . S
H462 C454 0.930 . S
H463 C455 0.929 . S
H464 C472 0.929 . S
H465 C474 0.930 . S
H466 C476 0.930 . S
H467 C479 0.929 . S
H468 C482 0.930 . S
H469 C484 0.960 . S
H470 C484 0.960 . S
H471 C484 0.960 . S
C472 H464 0.929 . S
C472 C473 1.377 . S
C472 C474 1.384 . S
C473 C472 1.377 . S
C473 C479 1.390 . S
C474 H465 0.930 . S
C474 C472 1.384 . S
C474 C475 1.372 . S
C475 C474 1.372 . S
C475 C476 1.400 . S
C475 C480 1.490 . S
C476 H466 0.930 . S
C476 C475 1.400 . S
C476 C479 1.386 . S
H477 C493 0.930 . S
H478 C494 0.931 . S
C479 H467 0.929 . S
C479 C473 1.390 . S
C479 C476 1.386 . S
C480 C475 1.490 . S
C480 C482 1.395 . S
C480 C483 1.403 . S
H481 C487 0.930 . S
C482 H468 0.930 . S
C482 C480 1.395 . S
C482 C485 1.403 1_554 S
C483 C480 1.403 . S
C483 C484 1.524 . S
C483 C487 1.400 1_554 S
C484 H469 0.960 . S
C484 H470 0.960 . S
C484 H471 0.960 . S
C484 C483 1.524 . S
C485 C482 1.403 1_556 S
C485 C486 1.392 . S
C485 C489 1.495 . S
C486 C485 1.392 . S
C486 C487 1.385 . S
C486 C488 1.478 . S
C487 H481 0.930 . S
C487 C483 1.400 1_556 S
C487 C486 1.385 . S
C488 C486 1.478 . S
C488 C490 1.381 . S
C488 C494 1.383 . S
C489 C485 1.495 . S
C489 H495 0.959 . S
C489 H496 0.961 . S
C489 H497 0.960 . S
C490 C488 1.381 . S
C490 C491 1.394 . S
C490 H498 0.930 . S
C491 C490 1.394 . S
C491 C492 1.383 . S
C491 H499 0.929 . S
C492 C491 1.383 . S
C492 C493 1.377 . S
C493 H477 0.930 . S
C493 C492 1.377 . S
C493 C494 1.379 . S
C494 H478 0.931 . S
C494 C488 1.383 . S
C494 C493 1.379 . S
H495 C489 0.959 . S
H496 C489 0.961 . S
H497 C489 0.960 . S
H498 C490 0.930 . S
H499 C491 0.929 . S
H500 C508 0.929 . S
H501 C510 0.930 1_545 S
H502 C512 0.930 1_655 S
H503 C515 0.929 . S
H504 C518 0.930 . S
H505 C520 0.971 . S
H506 C520 0.958 1_556 S
H507 C520 0.951 1_556 S
C508 H500 0.929 . S
C508 C509 1.377 . S
C508 C510 1.384 . S
C509 C508 1.377 . S
C509 C515 1.390 . S
C510 H501 0.930 1_565 S
C510 C508 1.384 . S
C510 C511 1.372 . S
C511 C510 1.372 . S
C511 C512 1.400 . S
C511 C516 1.490 . S
C512 H502 0.930 1_455 S
C512 C511 1.400 . S
C512 C515 1.386 . S
H513 C529 0.930 . S
H514 C530 0.931 . S
C515 H503 0.929 . S
C515 C509 1.390 . S
C515 C512 1.386 . S
C516 C511 1.490 . S
C516 C518 1.395 1_565 S
C516 C519 1.440 . S
H517 C523 0.930 . S
C518 H504 0.930 . S
C518 C516 1.395 1_545 S
C518 C521 1.405 1_455 S
C519 C516 1.440 . S
C519 C520 1.522 1_556 S
C519 C523 1.363 1_456 S
C520 H505 0.971 . S
C520 H506 0.958 1_554 S
C520 H507 0.951 1_554 S
C520 C519 1.522 1_554 S
C521 C518 1.405 1_655 S
C521 C522 1.391 1_556 S
C521 C525 1.495 . S
C522 C521 1.391 1_554 S
C522 C523 1.385 1_545 S
C522 C524 1.478 . S
C523 H517 0.930 . S
C523 C519 1.363 1_654 S
C523 C522 1.385 1_565 S
C524 C522 1.478 . S
C524 C526 1.381 . S
C524 C530 1.383 . S
C525 C521 1.495 . S
C525 H531 0.986 . S
C525 H532 0.957 1_556 S
C525 H533 0.938 1_556 S
C526 C524 1.381 . S
C526 C527 1.394 . S
C526 H534 0.930 1_655 S
C527 C526 1.394 . S
C527 C528 1.383 . S
C527 H535 0.929 . S
C528 C527 1.383 . S
C528 C529 1.377 . S
C529 H513 0.930 . S
C529 C528 1.377 . S
C529 C530 1.379 . S
C530 H514 0.931 . S
C530 C524 1.383 . S
C530 C529 1.379 . S
H531 C525 0.986 . S
H532 C525 0.957 1_554 S
H533 C525 0.938 1_554 S
H534 C526 0.930 1_455 S
H535 C527 0.929 . S
H536 C544 0.929 . S
H537 C546 0.930 . S
H538 C548 0.930 . S
H539 C551 0.929 . S
H540 C554 0.930 . S
H541 C556 0.960 . S
H542 C556 0.960 . S
H543 C556 0.960 . S
C544 H536 0.929 . S
C544 C545 1.377 . S
C544 C546 1.384 . S
C545 C544 1.377 . S
C545 C551 1.390 . S
C546 H537 0.930 . S
C546 C544 1.384 . S
C546 C547 1.372 . S
C547 C546 1.372 . S
C547 C548 1.400 . S
C547 C552 1.490 . S
C548 H538 0.930 . S
C548 C547 1.400 . S
C548 C551 1.386 . S
H549 C565 0.930 . S
H550 C566 0.931 . S
C551 H539 0.929 . S
C551 C545 1.390 . S
C551 C548 1.386 . S
C552 C547 1.490 . S
C552 C554 1.395 . S
C552 C555 1.403 . S
H553 C559 0.930 . S
C554 H540 0.930 . S
C554 C552 1.395 . S
C554 C557 1.403 . S
C555 C552 1.403 . S
C555 C556 1.524 . S
C555 C559 1.400 . S
C556 H541 0.960 . S
C556 H542 0.960 . S
C556 H543 0.960 . S
C556 C555 1.524 . S
C557 C554 1.403 . S
C557 C558 1.392 . S
C557 C561 1.495 . S
C558 C557 1.392 . S
C558 C559 1.385 . S
C558 C560 1.478 . S
C559 H553 0.930 . S
C559 C555 1.400 . S
C559 C558 1.385 . S
C560 C558 1.478 . S
C560 C562 1.381 . S
C560 C566 1.383 . S
C561 C557 1.495 . S
C561 H567 0.959 . S
C561 H568 0.961 . S
C561 H569 0.960 . S
C562 C560 1.381 . S
C562 C563 1.394 . S
C562 H570 0.930 . S
C563 C562 1.394 . S
C563 C564 1.383 . S
C563 H571 0.929 . S
C564 C563 1.383 . S
C564 C565 1.377 . S
C565 H549 0.930 . S
C565 C564 1.377 . S
C565 C566 1.379 . S
C566 H550 0.931 . S
C566 C560 1.383 . S
C566 C565 1.379 . S
H567 C561 0.959 . S
H568 C561 0.961 . S
H569 C561 0.960 . S
H570 C562 0.930 . S
H571 C563 0.929 . S
H572 C580 0.929 . S
H573 C582 0.930 . S
H574 C584 0.930 . S
H575 C587 0.929 . S
H576 C590 0.930 . S
H577 C592 0.960 . S
H578 C592 0.960 . S
H579 C592 0.960 . S
C580 H572 0.929 . S
C580 C581 1.377 . S
C580 C582 1.384 . S
C581 C580 1.377 . S
C581 C587 1.390 . S
C582 H573 0.930 . S
C582 C580 1.384 . S
C582 C583 1.372 . S
C583 C582 1.372 . S
C583 C584 1.400 . S
C583 C588 1.490 . S
C584 H574 0.930 . S
C584 C583 1.400 . S
C584 C587 1.386 . S
H585 C601 0.930 . S
H586 C602 0.931 . S
C587 H575 0.929 . S
C587 C581 1.390 . S
C587 C584 1.386 . S
C588 C583 1.490 . S
C588 C590 1.395 . S
C588 C591 1.403 . S
H589 C595 0.930 . S
C590 H576 0.930 . S
C590 C588 1.395 . S
C590 C593 1.403 . S
C591 C588 1.403 . S
C591 C592 1.524 . S
C591 C595 1.400 . S
C592 H577 0.960 . S
C592 H578 0.960 . S
C592 H579 0.960 . S
C592 C591 1.524 . S
C593 C590 1.403 . S
C593 C594 1.392 . S
C593 C597 1.495 . S
C594 C593 1.392 . S
C594 C595 1.385 . S
C594 C596 1.478 . S
C595 H589 0.930 . S
C595 C591 1.400 . S
C595 C594 1.385 . S
C596 C594 1.478 . S
C596 C598 1.381 . S
C596 C602 1.383 . S
C597 C593 1.495 . S
C597 H603 0.959 . S
C597 H604 0.961 . S
C597 H605 0.960 . S
C598 C596 1.381 . S
C598 C599 1.394 . S
C598 H606 0.930 . S
C599 C598 1.394 . S
C599 C600 1.383 . S
C599 H607 0.929 . S
C600 C599 1.383 . S
C600 C601 1.377 . S
C601 H585 0.930 . S
C601 C600 1.377 . S
C601 C602 1.379 . S
C602 H586 0.931 . S
C602 C596 1.383 . S
C602 C601 1.379 . S
H603 C597 0.959 . S
H604 C597 0.961 . S
H605 C597 0.960 . S
H606 C598 0.930 . S
H607 C599 0.929 . S
H608 C616 0.929 . S
H609 C618 0.930 . S
H610 C620 0.930 . S
H611 C623 0.929 . S
H612 C626 0.930 . S
H613 C628 0.960 . S
H614 C628 0.960 . S
H615 C628 0.960 . S
C616 H608 0.929 . S
C616 C617 1.377 . S
C616 C618 1.384 . S
C617 C616 1.377 . S
C617 C623 1.390 . S
C618 H609 0.930 . S
C618 C616 1.384 . S
C618 C619 1.372 . S
C619 C618 1.372 . S
C619 C620 1.400 . S
C619 C624 1.490 . S
C620 H610 0.930 . S
C620 C619 1.400 . S
C620 C623 1.386 . S
H621 C637 0.930 . S
H622 C638 0.931 . S
C623 H611 0.929 . S
C623 C617 1.390 . S
C623 C620 1.386 . S
C624 C619 1.490 . S
C624 C626 1.395 . S
C624 C627 1.403 . S
H625 C631 0.930 . S
C626 H612 0.930 . S
C626 C624 1.395 . S
C626 C629 1.403 . S
C627 C624 1.403 . S
C627 C628 1.524 . S
C627 C631 1.400 . S
C628 H613 0.960 . S
C628 H614 0.960 . S
C628 H615 0.960 . S
C628 C627 1.524 . S
C629 C626 1.403 . S
C629 C630 1.392 . S
C629 C633 1.495 . S
C630 C629 1.392 . S
C630 C631 1.385 . S
C630 C632 1.478 . S
C631 H625 0.930 . S
C631 C627 1.400 . S
C631 C630 1.385 . S
C632 C630 1.478 . S
C632 C634 1.381 . S
C632 C638 1.383 . S
C633 C629 1.495 . S
C633 H639 0.959 . S
C633 H640 0.961 . S
C633 H641 0.960 . S
C634 C632 1.381 . S
C634 C635 1.394 . S
C634 H642 0.930 . S
C635 C634 1.394 . S
C635 C636 1.383 . S
C635 H643 0.929 . S
C636 C635 1.383 . S
C636 C637 1.377 . S
C637 H621 0.930 . S
C637 C636 1.377 . S
C637 C638 1.379 . S
C638 H622 0.931 . S
C638 C632 1.383 . S
C638 C637 1.379 . S
H639 C633 0.959 . S
H640 C633 0.961 . S
H641 C633 0.960 . S
H642 C634 0.930 . S
H643 C635 0.929 . S
H644 C652 0.929 . S
H645 C654 0.930 . S
H646 C656 0.930 . S
H647 C659 0.929 . S
H648 C662 0.930 . S
H649 C664 0.960 . S
H650 C664 0.960 . S
H651 C664 0.960 . S
C652 H644 0.929 . S
C652 C653 1.377 . S
C652 C654 1.384 . S
C653 C652 1.377 . S
C653 C659 1.390 . S
C654 H645 0.930 . S
C654 C652 1.384 . S
C654 C655 1.372 . S
C655 C654 1.372 . S
C655 C656 1.400 . S
C655 C660 1.490 . S
C656 H646 0.930 . S
C656 C655 1.400 . S
C656 C659 1.386 . S
H657 C673 0.930 . S
H658 C674 0.931 . S
C659 H647 0.929 . S
C659 C653 1.390 . S
C659 C656 1.386 . S
C660 C655 1.490 . S
C660 C662 1.395 . S
C660 C663 1.403 . S
H661 C667 0.930 . S
C662 H648 0.930 . S
C662 C660 1.395 . S
C662 C665 1.403 . S
C663 C660 1.403 . S
C663 C664 1.524 . S
C663 C667 1.400 . S
C664 H649 0.960 . S
C664 H650 0.960 . S
C664 H651 0.960 . S
C664 C663 1.524 . S
C665 C662 1.403 . S
C665 C666 1.392 . S
C665 C669 1.495 . S
C666 C665 1.392 . S
C666 C667 1.385 . S
C666 C668 1.478 . S
C667 H661 0.930 . S
C667 C663 1.400 . S
C667 C666 1.385 . S
C668 C666 1.478 . S
C668 C670 1.381 . S
C668 C674 1.383 . S
C669 C665 1.495 . S
C669 H675 0.959 . S
C669 H676 0.961 . S
C669 H677 0.960 . S
C670 C668 1.381 . S
C670 C671 1.394 . S
C670 H678 0.930 . S
C671 C670 1.394 . S
C671 C672 1.383 . S
C671 H679 0.929 . S
C672 C671 1.383 . S
C672 C673 1.377 . S
C673 H657 0.930 . S
C673 C672 1.377 . S
C673 C674 1.379 . S
C674 H658 0.931 . S
C674 C668 1.383 . S
C674 C673 1.379 . S
H675 C669 0.959 . S
H676 C669 0.961 . S
H677 C669 0.960 . S
H678 C670 0.930 . S
H679 C671 0.929 . S
C113 C10 1.572 . S
C132 C29 1.571 . S
C149 C44 1.571 . S
C168 C23 1.564 . S
C185 C30 1.572 . S
C204 C5 1.570 . S
C221 C49 1.570 . S
C240 C18 1.566 . S
C257 C83 1.571 . S
C276 C56 1.571 . S
C293 C75 1.571 . S
C312 C96 1.566 . S
C329 C88 1.572 . S
C348 C55 1.568 . S
C365 C101 1.571 . S
C384 C70 1.570 . S
C401 C3 1.517 . S
C420 C57 1.515 . S
C437 C16 1.517 . S
C456 C68 1.513 . S
C473 C31 1.518 . S
C492 C81 1.511 . S
C509 C94 1.518 . S
C528 C42 1.519 . S
C545 C4 1.523 . S
C564 C17 1.514 . S
C581 C43 1.521 . S
C600 C36 1.523 . S
C617 C69 1.524 . S
C636 C62 1.514 . S
C653 C82 1.523 . S
C672 C95 1.521 . S
