# Generated by pormake.
# Topology xfa, (7)-cn, num edge types: 1
# Building blocks:
#     Node 0, Type 0, BuildingBlock: HICVOG_clean_sbu_0, # of connection points: 7
#     Node 1, Type 0, BuildingBlock: HICVOG_clean_sbu_0, # of connection points: 7
#     Node 2, Type 0, BuildingBlock: HICVOG_clean_sbu_0, # of connection points: 7
#     Node 3, Type 0, BuildingBlock: HICVOG_clean_sbu_0, # of connection points: 7
#     Node 4, Type 0, BuildingBlock: HICVOG_clean_sbu_0, # of connection points: 7
#     Node 5, Type 0, BuildingBlock: HICVOG_clean_sbu_0, # of connection points: 7
#     Node 6, Type 0, BuildingBlock: HICVOG_clean_sbu_0, # of connection points: 7
#     Node 7, Type 0, BuildingBlock: HICVOG_clean_sbu_0, # of connection points: 7
#     Edge 8, Type (0, 0), BuildingBlock: XUDNAN_clean_linker_2, # of connection points: 2
#     Edge 9, Type (0, 0), BuildingBlock: XUDNAN_clean_linker_2, # of connection points: 2
#     Edge 10, Type (0, 0), BuildingBlock: XUDNAN_clean_linker_2, # of connection points: 2
#     Edge 11, Type (0, 0), BuildingBlock: XUDNAN_clean_linker_2, # of connection points: 2
#     Edge 12, Type (0, 0), BuildingBlock: XUDNAN_clean_linker_2, # of connection points: 2
#     Edge 13, Type (0, 0), BuildingBlock: XUDNAN_clean_linker_2, # of connection points: 2
#     Edge 14, Type (0, 0), BuildingBlock: XUDNAN_clean_linker_2, # of connection points: 2
#     Edge 15, Type (0, 0), BuildingBlock: XUDNAN_clean_linker_2, # of connection points: 2
#     Edge 16, Type (0, 0), BuildingBlock: XUDNAN_clean_linker_2, # of connection points: 2
#     Edge 17, Type (0, 0), BuildingBlock: XUDNAN_clean_linker_2, # of connection points: 2
#     Edge 18, Type (0, 0), BuildingBlock: XUDNAN_clean_linker_2, # of connection points: 2
#     Edge 19, Type (0, 0), BuildingBlock: XUDNAN_clean_linker_2, # of connection points: 2
#     Edge 20, Type (0, 0), BuildingBlock: XUDNAN_clean_linker_2, # of connection points: 2
#     Edge 21, Type (0, 0), BuildingBlock: XUDNAN_clean_linker_2, # of connection points: 2
#     Edge 22, Type (0, 0), BuildingBlock: XUDNAN_clean_linker_2, # of connection points: 2
#     Edge 23, Type (0, 0), BuildingBlock: XUDNAN_clean_linker_2, # of connection points: 2
#     Edge 24, Type (0, 0), BuildingBlock: XUDNAN_clean_linker_2, # of connection points: 2
#     Edge 25, Type (0, 0), BuildingBlock: XUDNAN_clean_linker_2, # of connection points: 2
#     Edge 26, Type (0, 0), BuildingBlock: XUDNAN_clean_linker_2, # of connection points: 2
#     Edge 27, Type (0, 0), BuildingBlock: XUDNAN_clean_linker_2, # of connection points: 2
#     Edge 28, Type (0, 0), BuildingBlock: XUDNAN_clean_linker_2, # of connection points: 2
#     Edge 29, Type (0, 0), BuildingBlock: XUDNAN_clean_linker_2, # of connection points: 2
#     Edge 30, Type (0, 0), BuildingBlock: XUDNAN_clean_linker_2, # of connection points: 2
#     Edge 31, Type (0, 0), BuildingBlock: XUDNAN_clean_linker_2, # of connection points: 2
#     Edge 32, Type (0, 0), BuildingBlock: XUDNAN_clean_linker_2, # of connection points: 2
#     Edge 33, Type (0, 0), BuildingBlock: XUDNAN_clean_linker_2, # of connection points: 2
#     Edge 34, Type (0, 0), BuildingBlock: XUDNAN_clean_linker_2, # of connection points: 2
#     Edge 35, Type (0, 0), BuildingBlock: XUDNAN_clean_linker_2, # of connection points: 2
# Relax obj value: 0.163
# Max RMSD: 0.220
# Mean RMSD: 0.210
data_MOF--net-xfa--node1-HICVOG_clean_sbu_0--edge1-XUDNAN_clean_linker_2
_symmetry_space_group_name_H-M    P1
_symmetry_Int_Tables_number       1
_symmetry_cell_setting            triclinic
loop_
_symmetry_equiv_pos_as_xyz
'x, y, z'
_cell_length_a     45.648096
_cell_length_b     45.972656
_cell_length_c     17.730429
_cell_angle_alpha  90.371089
_cell_angle_beta   89.87808
_cell_angle_gamma 89.788595
loop_
_atom_site_label
_atom_site_type_symbol
_atom_site_fract_x
_atom_site_fract_y
_atom_site_fract_z
_atom_type_partial_charge
Zn0 Zn 0.09662 0.28187 0.36411 0.0
C1 C 0.11523 0.21007 0.23799 0.0
N2 N 0.13678 0.20656 0.28785 0.0
C3 C 0.13142 0.2278 0.33844 0.0
N4 N 0.1078 0.24414 0.31992 0.0
N5 N 0.09764 0.23248 0.25667 0.0
C6 C 0.07903 0.25352 0.07294 0.0
O7 O 0.08858 0.27307 0.12126 0.0
O8 O 0.09773 0.27952 0.47785 0.0
Zn9 Zn 0.0601 0.23644 0.21181 0.0
N10 N 0.12708 0.30914 0.3345 0.0
C11 C 0.16064 0.32367 0.23941 0.0
C12 C 0.13876 0.30515 0.26469 0.0
C13 C 0.1364 0.33118 0.38045 0.0
N14 N 0.16985 0.34567 0.28473 0.0
C15 C 0.15845 0.35034 0.35492 0.0
O16 O 0.04129 0.27462 0.23138 0.0
C17 C 0.03948 0.29669 0.27445 0.0
O18 O 0.05743 0.30056 0.32885 0.0
H19 H 0.13115 0.2876 0.229 0.0
H20 H 0.12687 0.33333 0.43603 0.0
C21 C 0.02308 0.18384 0.23325 0.0
C22 C 1.00415 0.16714 0.2789 0.0
C23 C 1.00999 0.20139 0.3785 0.0
C24 C 0.02862 0.2177 0.33358 0.0
N25 N 0.03462 0.2089 0.26185 0.0
N26 N 0.99818 0.17667 0.35016 0.0
H27 H 0.02817 0.17737 0.1759 0.0
C28 C 0.09066 0.25813 0.51926 0.0
O29 O 0.08042 0.23428 0.48796 0.0
O30 O 0.06419 0.23228 0.09816 0.0
H31 H 0.03822 0.23748 0.35552 0.0
H32 H 0.17021 0.32069 0.18401 0.0
H33 H 1.00492 0.20831 0.4355 0.0
Zn34 Zn 0.30863 0.56295 0.46703 0.0
C35 C 0.28542 0.63967 0.56136 0.0
N36 N 0.29765 0.65036 0.49859 0.0
C37 C 0.30404 0.62639 0.45834 0.0
N38 N 0.29631 0.6019 0.49447 0.0
N39 N 0.28421 0.61032 0.55903 0.0
C40 C 0.28998 0.58704 0.75463 0.0
O41 O 0.31063 0.58117 0.7051 0.0
O42 O 0.31641 0.56266 0.35332 0.0
Zn43 Zn 0.25515 0.58964 0.61789 0.0
N44 N 0.34438 0.55418 0.5244 0.0
C45 C 0.37873 0.57209 0.61437 0.0
C46 C 0.35494 0.57652 0.567 0.0
C47 C 0.35752 0.52741 0.526 0.0
N48 N 0.39146 0.54547 0.61695 0.0
C49 C 0.38181 0.52285 0.57393 0.0
O50 O 0.24828 0.54752 0.58298 0.0
C51 C 0.25647 0.52835 0.53473 0.0
O52 O 0.27779 0.53278 0.48969 0.0
H53 H 0.34483 0.5977 0.56505 0.0
H54 H 0.3488 0.50985 0.49201 0.0
C55 C 0.19975 0.62424 0.64048 0.0
C56 C 0.17531 0.6389 0.60929 0.0
C57 C 0.19008 0.62314 0.48698 0.0
C58 C 0.214 0.60878 0.51774 0.0
N59 N 0.21862 0.60967 0.59339 0.0
N60 N 0.17149 0.63783 0.53316 0.0
H61 H 0.20405 0.62494 0.70045 0.0
C62 C 0.29579 0.56966 0.30842 0.0
O63 O 0.26968 0.57519 0.33652 0.0
O64 O 0.26405 0.59165 0.73103 0.0
H65 H 0.22919 0.59721 0.4814 0.0
H66 H 0.38698 0.58967 0.64908 0.0
H67 H 0.18634 0.62275 0.42676 0.0
Zn68 Zn 0.93798 0.75617 0.8253 0.0
C69 C 0.90699 0.80798 0.66108 0.0
N70 N 0.88236 0.80592 0.70188 0.0
C71 C 0.89097 0.79154 0.76343 0.0
N72 N 0.91988 0.78506 0.76039 0.0
N73 N 0.93021 0.79578 0.6963 0.0
C74 C 0.98606 0.78972 0.52388 0.0
O75 O 0.9909 0.76444 0.55572 0.0
O76 O 0.93693 0.76956 0.93468 0.0
Zn77 Zn 0.97146 0.80485 0.67791 0.0
N78 N 0.91547 0.72107 0.80466 0.0
C79 C 0.89995 0.69225 0.70036 0.0
C80 C 0.91559 0.71559 0.72927 0.0
C81 C 0.90043 0.70362 0.85331 0.0
N82 N 0.88494 0.67495 0.74815 0.0
C83 C 0.8846 0.67962 0.82408 0.0
O84 O 0.99918 0.77296 0.70961 0.0
C85 C 1.00134 0.75177 0.75512 0.0
O86 O 0.98034 0.74498 0.79913 0.0
H87 H 0.92769 0.7296 0.69168 0.0
H88 H 0.90043 0.70864 0.91299 0.0
C89 C 1.00793 0.85241 0.73443 0.0
C90 C 1.01405 0.87572 0.78387 0.0
C91 C 0.96569 0.87311 0.83229 0.0
C92 C 0.95973 0.84999 0.78378 0.0
N93 N 0.98092 0.83977 0.73631 0.0
N94 N 0.99268 0.88525 0.83165 0.0
H95 H 0.02463 0.84387 0.69683 0.0
C96 C 0.94855 0.75396 0.98563 0.0
O97 O 0.95903 0.72823 0.96708 0.0
O98 O 0.97841 0.8112 0.56542 0.0
H99 H 0.93842 0.84002 0.78521 0.0
H100 H 0.89974 0.68784 0.64036 0.0
H101 H 0.94906 0.88117 0.87076 0.0
Zn102 Zn 0.78706 0.44489 0.07024 0.0
C103 C 0.74225 0.39979 0.92319 0.0
N104 N 0.74448 0.37938 0.97654 0.0
C105 C 0.75313 0.39451 0.03725 0.0
N106 N 0.75702 0.42279 0.02055 0.0
N107 N 0.74921 0.42651 0.94967 0.0
C108 C 0.73218 0.48072 0.75909 0.0
O109 O 0.73716 0.50713 0.78457 0.0
O110 O 0.77967 0.44313 0.1807 0.0
Zn111 Zn 0.73501 0.46375 0.91564 0.0
N112 N 0.82404 0.42607 0.04523 0.0
C113 C 0.85378 0.40986 0.94302 0.0
C114 C 0.82855 0.42343 0.96977 0.0
C115 C 0.84409 0.41586 0.09581 0.0
N116 N 0.87361 0.39947 0.99289 0.0
C117 C 0.86979 0.402 0.0689 0.0
O118 O 0.76215 0.49787 0.93846 0.0
C119 C 0.78188 0.5046 0.98632 0.0
O120 O 0.79079 0.48657 0.03553 0.0
H121 H 0.81245 0.43177 0.9307 0.0
H122 H 0.83976 0.418 0.15561 0.0
C123 C 0.68259 0.49696 0.95692 0.0
C124 C 0.65442 0.50025 0.98908 0.0
C125 C 0.65646 0.45116 0.03 0.0
C126 C 0.68406 0.44797 0.99769 0.0
N127 N 0.69668 0.47078 0.96171 0.0
N128 N 0.64232 0.47702 0.02464 0.0
H129 H 0.69289 0.51461 0.92686 0.0
C130 C 0.77655 0.46569 0.2215 0.0
O131 O 0.78001 0.4915 0.19156 0.0
O132 O 0.72999 0.45988 0.80513 0.0
H133 H 0.69512 0.42725 0.00086 0.0
H134 H 0.85758 0.40749 0.88305 0.0
H135 H 0.6462 0.43314 0.05863 0.0
Zn136 Zn 0.60386 0.24576 0.39182 0.0
C137 C 0.6457 0.29446 0.52802 0.0
N138 N 0.66493 0.29338 0.47084 0.0
C139 C 0.64855 0.28627 0.4111 0.0
N140 N 0.62068 0.2812 0.43249 0.0
N141 N 0.61824 0.28809 0.5048 0.0
C142 C 0.59761 0.27643 0.69056 0.0
O143 O 0.60364 0.25435 0.64573 0.0
O144 O 0.60654 0.2479 0.27919 0.0
Zn145 Zn 0.57992 0.29485 0.55059 0.0
N146 N 0.62935 0.21345 0.42182 0.0
C147 C 0.65648 0.19167 0.52106 0.0
C148 C 0.63786 0.2134 0.49512 0.0
C149 C 0.63869 0.19221 0.3729 0.0
N150 N 0.66578 0.17059 0.47272 0.0
C151 C 0.6575 0.16988 0.39894 0.0
O152 O 0.5516 0.2621 0.5307 0.0
C153 C 0.54541 0.24218 0.48303 0.0
O154 O 0.56238 0.23599 0.42777 0.0
H155 H 0.63035 0.23028 0.53301 0.0
H156 H 0.63187 0.1931 0.31461 0.0
C157 C 0.53996 0.34558 0.53967 0.0
C158 C 0.52575 0.36784 0.49839 0.0
C159 C 0.55562 0.35627 0.3924 0.0
C160 C 0.56883 0.334 0.43251 0.0
N161 N 0.56138 0.32926 0.50559 0.0
N162 N 0.53444 0.37246 0.42595 0.0
H163 H 0.53337 0.34041 0.59663 0.0
C164 C 0.59963 0.26976 0.23945 0.0
O165 O 0.58741 0.29258 0.27164 0.0
O166 O 0.58526 0.29873 0.66287 0.0
H167 H 0.58425 0.31996 0.40451 0.0
H168 H 0.66351 0.19151 0.57928 0.0
H169 H 0.56161 0.36023 0.3343 0.0
Zn170 Zn 0.23428 0.07578 0.82544 0.0
C171 C 0.252 0.15204 0.72201 0.0
N172 N 0.23566 0.1634 0.77761 0.0
C173 C 0.22921 0.14046 0.82088 0.0
N174 N 0.2415 0.11563 0.79358 0.0
N175 N 0.2561 0.12322 0.73196 0.0
C176 C 0.25535 0.08839 0.53893 0.0
O177 O 0.24038 0.07312 0.58803 0.0
O178 O 0.22873 0.07426 0.93941 0.0
Zn179 Zn 0.28608 0.10262 0.67417 0.0
N180 N 0.19946 0.06162 0.77319 0.0
C181 C 0.16429 0.06871 0.67613 0.0
C182 C 0.18831 0.0784 0.71724 0.0
C183 C 0.18727 0.03543 0.7902 0.0
N184 N 0.15208 0.04272 0.6931 0.0
C185 C 0.16264 0.0256 0.74933 0.0
O186 O 0.29453 0.06082 0.70488 0.0
C187 C 0.28722 0.04221 0.75436 0.0
O188 O 0.26652 0.04714 0.80096 0.0
H189 H 0.19809 0.09909 0.70429 0.0
H190 H 0.19707 0.02242 0.83408 0.0
C191 C 0.34191 0.13408 0.6461 0.0
C192 C 0.36673 0.14923 0.67315 0.0
C193 C 0.35012 0.142 0.79886 0.0
C194 C 0.32588 0.12703 0.77205 0.0
N195 N 0.32204 0.12348 0.6966 0.0
N196 N 0.36981 0.15268 0.74909 0.0
H197 H 0.33817 0.13111 0.58633 0.0
C198 C 0.24535 0.08809 0.98459 0.0
O199 O 0.26701 0.10351 0.95699 0.0
O200 O 0.27672 0.10364 0.56236 0.0
H201 H 0.30998 0.11833 0.81113 0.0
H202 H 0.15534 0.08174 0.63106 0.0
H203 H 0.35332 0.1451 0.8588 0.0
Zn204 Zn 0.43129 0.78133 0.89811 0.0
C205 C 0.39154 0.72656 0.04066 0.0
N206 N 0.36895 0.7339 0.99629 0.0
C207 C 0.38132 0.74915 0.94106 0.0
N208 N 0.41039 0.75165 0.95189 0.0
N209 N 0.41727 0.73702 0.0136 0.0
C210 C 0.45744 0.74849 0.1933 0.0
O211 O 0.4586 0.77326 0.15689 0.0
O212 O 0.42802 0.77225 0.78802 0.0
Zn213 Zn 0.45714 0.72707 0.04296 0.0
N214 N 0.41165 0.81744 0.92634 0.0
C215 C 0.39653 0.84484 0.03388 0.0
C216 C 0.41062 0.82082 0.00247 0.0
C217 C 0.39929 0.83753 0.87957 0.0
N218 N 0.38414 0.86477 0.98784 0.0
C219 C 0.38505 0.86212 0.9113 0.0
O220 O 0.48826 0.75655 0.01524 0.0
C221 C 0.49331 0.77765 0.97096 0.0
O222 O 0.4739 0.78703 0.92569 0.0
H223 H 0.42055 0.80467 0.03852 0.0
H224 H 0.40008 0.83414 0.81919 0.0
C225 C 0.49379 0.67631 0.00717 0.0
C226 C 0.49941 0.64915 0.97223 0.0
C227 C 0.45219 0.6508 0.91626 0.0
C228 C 0.44677 0.67753 0.95069 0.0
N229 N 0.46743 0.68974 0.99601 0.0
N230 N 0.47818 0.63728 0.92798 0.0
H231 H 0.5098 0.6864 0.04374 0.0
C232 C 0.43933 0.78743 0.73612 0.0
O233 O 0.45323 0.8115 0.75381 0.0
O234 O 0.45774 0.7248 0.15605 0.0
H235 H 0.42604 0.68829 0.94169 0.0
H236 H 0.39542 0.84767 0.09444 0.0
H237 H 0.43584 0.64078 0.88057 0.0
Zn238 Zn 0.74807 0.92975 0.12412 0.0
C239 C 0.80982 0.89232 0.25718 0.0
N240 N 0.80303 0.86943 0.21357 0.0
C241 C 0.78407 0.88031 0.16371 0.0
N242 N 0.77907 0.9089 0.17679 0.0
N243 N 0.79522 0.91665 0.23591 0.0
C244 C 0.78182 0.95236 0.41326 0.0
O245 O 0.75943 0.94825 0.36807 0.0
O246 O 0.75251 0.92624 0.00969 0.0
Zn247 Zn 0.8044 0.9565 0.26788 0.0
N248 N 0.71259 0.90976 0.15488 0.0
C249 C 0.68506 0.89488 0.26178 0.0
C250 C 0.7088 0.90945 0.23084 0.0
C251 C 0.69331 0.89609 0.10786 0.0
N252 N 0.6659 0.88123 0.21542 0.0
C253 C 0.66904 0.88133 0.13899 0.0
O254 O 0.77319 0.98623 0.24251 0.0
C255 C 0.751 0.9913 0.2012 0.0
O256 O 0.74123 0.97221 0.15526 0.0
H257 H 0.72441 0.92027 0.26705 0.0
H258 H 0.69719 0.8963 0.04766 0.0
C259 C 0.86063 0.9872 0.23489 0.0
C260 C 0.88447 0.99306 0.18604 0.0
C261 C 0.86555 0.95892 0.0978 0.0
C262 C 0.84212 0.95344 0.14544 0.0
N263 N 0.84008 0.96726 0.21334 0.0
N264 N 0.88601 0.97846 0.11911 0.0
H265 H 0.85838 0.99819 0.28873 0.0
C266 C 0.77037 0.94036 0.96853 0.0
O267 O 0.78842 0.95888 0.00045 0.0
O268 O 0.8067 0.95785 0.3837 0.0
H269 H 0.82538 0.93849 0.12755 0.0
H270 H 0.68189 0.89436 0.32224 0.0
H271 H 0.86727 0.94811 0.04363 0.0
H272 H 0.2095 0.38021 0.33303 0.0
H273 H 0.13275 0.37891 0.47856 0.0
H274 H 0.15125 0.42202 0.546 0.0
H275 H 0.26185 0.40499 0.47391 0.0
H276 H 0.28109 0.4277 0.4079 0.0
H277 H 0.26295 0.39525 0.37528 0.0
H278 H 0.23336 0.42576 0.27926 0.0
H279 H 0.25138 0.45826 0.31157 0.0
H280 H 0.21195 0.45632 0.31234 0.0
H281 H 0.17714 0.46777 0.59334 0.0
H282 H 0.20743 0.51156 0.61413 0.0
H283 H 0.26637 0.48303 0.43566 0.0
C284 C 0.19654 0.38867 0.37951 0.0
C285 C 0.16972 0.37549 0.40047 0.0
C286 C 0.15365 0.38775 0.46169 0.0
C287 C 0.16392 0.41253 0.50036 0.0
C288 C 0.1903 0.42497 0.47746 0.0
C289 C 0.20637 0.41336 0.41841 0.0
C290 C 0.23332 0.43147 0.40216 0.0
C291 C 0.26147 0.41379 0.41564 0.0
C292 C 0.23243 0.44367 0.32157 0.0
C293 C 0.22974 0.4554 0.46058 0.0
C294 C 0.20493 0.45122 0.50392 0.0
C295 C 0.19672 0.47109 0.55999 0.0
C296 C 0.21412 0.49594 0.57143 0.0
C297 C 0.23944 0.50088 0.52681 0.0
C298 C 0.24733 0.48 0.47125 0.0
H299 H 0.04552 0.75302 0.65033 0.0
H300 H 1.0188 0.7094 0.85545 0.0
H301 H 0.06328 0.67845 0.84835 0.0
H302 H 0.07072 0.69045 0.55595 0.0
H303 H 0.10065 0.70854 0.50948 0.0
H304 H 0.06835 0.72876 0.53561 0.0
H305 H 0.10032 0.76505 0.61152 0.0
H306 H 0.13276 0.74481 0.58588 0.0
H307 H 0.12443 0.7516 0.68385 0.0
H308 H 0.11053 0.65037 0.81383 0.0
H309 H 0.15283 0.62629 0.75085 0.0
H310 H 0.14687 0.68826 0.56814 0.0
C311 C 0.04913 0.73729 0.69459 0.0
C312 C 0.02864 0.73388 0.75383 0.0
C313 C 0.03415 0.71257 0.80962 0.0
C314 C 0.05945 0.69494 0.80619 0.0
C315 C 0.07907 0.69878 0.74655 0.0
C316 C 0.07402 0.71943 0.69167 0.0
C317 C 0.09717 0.71812 0.6305 0.0
C318 C 0.0834 0.71104 0.55336 0.0
C319 C 0.11471 0.74659 0.62782 0.0
C320 C 0.11585 0.69319 0.65861 0.0
C321 C 0.10546 0.68249 0.72617 0.0
C322 C 0.11893 0.65879 0.76122 0.0
C323 C 0.14311 0.64536 0.72536 0.0
C324 C 0.15333 0.65546 0.65472 0.0
C325 C 0.13969 0.68002 0.62218 0.0
H326 H 0.77761 0.54549 0.87392 0.0
H327 H 0.81933 0.52915 0.08939 0.0
H328 H 0.84631 0.57535 0.0787 0.0
H329 H 0.83946 0.57266 0.78396 0.0
H330 H 0.82022 0.59977 0.73008 0.0
H331 H 0.80155 0.56734 0.75919 0.0
H332 H 0.76158 0.59871 0.82483 0.0
H333 H 0.78016 0.63133 0.7959 0.0
H334 H 0.77208 0.62552 0.8942 0.0
H335 H 0.87225 0.62161 0.03888 0.0
H336 H 0.89577 0.66219 0.97103 0.0
H337 H 0.83687 0.64808 0.78252 0.0
C338 C 0.79194 0.55186 0.91966 0.0
C339 C 0.79615 0.53362 0.98266 0.0
C340 C 0.8156 0.54268 0.04054 0.0
C341 C 0.83099 0.569 0.03517 0.0
C342 C 0.82671 0.5862 0.9717 0.0
C343 C 0.80758 0.57799 0.91506 0.0
C344 C 0.80852 0.59918 0.85009 0.0
C345 C 0.81801 0.58382 0.77652 0.0
C346 C 0.77882 0.6146 0.84074 0.0
C347 C 0.83175 0.6201 0.87799 0.0
C348 C 0.84171 0.61259 0.94871 0.0
C349 C 0.86429 0.62795 0.98392 0.0
C350 C 0.87743 0.65116 0.94511 0.0
C351 C 0.86809 0.65862 0.87151 0.0
C352 C 0.84452 0.6431 0.83878 0.0
H353 H 1.003 0.29657 0.15342 0.0
H354 H 0.01951 0.34314 0.36267 0.0
H355 H 0.97641 0.37485 0.33716 0.0
H356 H 0.98152 0.35745 0.0442 0.0
H357 H 0.95429 0.33724 0.99255 0.0
H358 H 0.98605 0.31888 0.02914 0.0
H359 H 0.95238 0.28295 0.1004 0.0
H360 H 0.92048 0.30135 0.06452 0.0
H361 H 0.92505 0.29695 0.16475 0.0
H362 H 0.92975 0.40132 0.2853 0.0
H363 H 0.88808 0.42077 0.21108 0.0
H364 H 0.90425 0.35519 0.03885 0.0
C365 C 0.99776 0.31337 0.19444 0.0
C366 C 1.01474 0.31721 0.2604 0.0
C367 C 1.00693 0.33974 0.31169 0.0
C368 C 0.98239 0.35776 0.29773 0.0
C369 C 0.96597 0.35297 0.23225 0.0
C370 C 0.97363 0.33131 0.1815 0.0
C371 C 0.95316 0.33035 0.11475 0.0
C372 C 0.96975 0.33635 0.04082 0.0
C373 C 0.9368 0.30117 0.11093 0.0
C374 C 0.93266 0.35503 0.13499 0.0
C375 C 0.94003 0.36784 0.20308 0.0
C376 C 0.92388 0.3913 0.23207 0.0
C377 C 0.90005 0.40208 0.18977 0.0
C378 C 0.89273 0.38949 0.11902 0.0
C379 C 0.90924 0.36548 0.09242 0.0
H380 H 0.70673 0.13697 0.421 0.0
H381 H 0.6333 0.14638 0.26757 0.0
H382 H 0.65095 0.10372 0.19513 0.0
H383 H 0.76059 0.11278 0.28152 0.0
H384 H 0.77756 0.08759 0.34565 0.0
H385 H 0.76029 0.12017 0.3815 0.0
H386 H 0.72768 0.08908 0.4693 0.0
H387 H 0.74479 0.05645 0.43366 0.0
H388 H 0.70555 0.06052 0.42922 0.0
H389 H 0.67524 0.05708 0.14441 0.0
H390 H 0.70389 1.01216 0.12019 0.0
H391 H 0.76101 0.03391 0.30754 0.0
C392 C 0.69439 0.13037 0.37174 0.0
C393 C 0.66869 0.14554 0.35005 0.0
C394 C 0.65335 0.13581 0.28507 0.0
C395 C 0.66314 0.11135 0.24362 0.0
C396 C 0.68837 0.09681 0.26741 0.0
C397 C 0.70383 0.10613 0.32985 0.0
C398 C 0.72961 0.08625 0.34585 0.0
C399 C 0.75874 0.10268 0.33815 0.0
C400 C 0.72671 0.07225 0.42413 0.0
C401 C 0.72606 0.06391 0.2834 0.0
C402 C 0.70224 0.07035 0.23843 0.0
C403 C 0.69409 0.05207 0.17896 0.0
C404 C 0.71053 0.02654 0.16561 0.0
C405 C 0.73492 0.0194 0.2115 0.0
C406 C 0.74277 0.0387 0.27064 0.0
H407 H 0.40092 0.19617 0.70282 0.0
H408 H 0.38608 0.12959 0.53266 0.0
H409 H 0.4288 0.14766 0.46072 0.0
H410 H 0.42594 0.25328 0.5752 0.0
H411 H 0.4526 0.26644 0.64195 0.0
H412 H 0.41931 0.24983 0.67501 0.0
H413 H 0.44989 0.21299 0.75242 0.0
H414 H 0.48322 0.22929 0.71915 0.0
H415 H 0.47712 0.19092 0.70522 0.0
H416 H 0.47657 0.17111 0.41331 0.0
H417 H 0.52256 0.19845 0.39322 0.0
H418 H 0.505 0.24881 0.59641 0.0
C419 C 0.4063 0.18553 0.64988 0.0
C420 C 0.38989 0.16153 0.62338 0.0
C421 C 0.39786 0.14833 0.55375 0.0
C422 C 0.42228 0.15834 0.5127 0.0
C423 C 0.43835 0.18167 0.54171 0.0
C424 C 0.4304 0.19522 0.60848 0.0
C425 C 0.4517 0.21901 0.62984 0.0
C426 C 0.43648 0.24891 0.6305 0.0
C427 C 0.46634 0.21266 0.70615 0.0
C428 C 0.47337 0.21646 0.56554 0.0
C429 C 0.46536 0.19494 0.51489 0.0
C430 C 0.4828 0.18817 0.45236 0.0
C431 C 0.50896 0.20379 0.44151 0.0
C432 C 0.51752 0.2259 0.49303 0.0
C433 C 0.49921 0.23221 0.55553 0.0
H434 H 0.28201 1.00013 0.86255 0.0
H435 H 0.32953 0.02067 0.65747 0.0
H436 H 0.35723 0.97452 0.66838 0.0
H437 H 0.34203 0.97099 0.96101 0.0
H438 H 0.321 0.94323 0.0075 0.0
H439 H 0.30357 0.97661 0.97958 0.0
H440 H 0.26525 0.94733 0.90297 0.0
H441 H 0.28266 0.91381 0.93048 0.0
H442 H 0.27748 0.92177 0.83198 0.0
H443 H 0.38153 0.92637 0.70624 0.0
H444 H 0.40153 0.88304 0.77091 0.0
H445 H 0.33786 0.89518 0.95056 0.0
C446 C 0.29799 0.99488 0.81929 0.0
C447 C 0.30343 1.01411 0.75894 0.0
C448 C 0.32486 1.00636 0.70423 0.0
C449 C 0.34066 0.9801 0.70979 0.0
C450 C 0.33481 0.96176 0.77035 0.0
C451 C 0.31399 0.96893 0.82415 0.0
C452 C 0.31281 0.94646 0.88604 0.0
C453 C 0.32031 0.96015 0.96305 0.0
C454 C 0.28277 0.93145 0.88794 0.0
C455 C 0.33657 0.92573 0.85958 0.0
C456 C 0.34883 0.93459 0.79229 0.0
C457 C 0.37186 0.91913 0.75862 0.0
C458 C 0.38297 0.89437 0.79551 0.0
C459 C 0.37118 0.8855 0.86571 0.0
C460 C 0.34738 0.90129 0.89697 0.0
H461 H 0.63633 0.83455 0.18019 0.0
H462 H 0.64979 0.89411 0.99441 0.0
H463 H 0.60854 0.87134 0.92618 0.0
H464 H 0.61454 0.77117 0.06579 0.0
H465 H 0.5878 0.75974 0.13432 0.0
H466 H 0.62016 0.77885 0.16454 0.0
H467 H 0.58764 0.81747 0.23165 0.0
H468 H 0.55524 0.7986 0.2014 0.0
H469 H 0.55998 0.83643 0.17849 0.0
H470 H 0.56216 0.84515 0.88445 0.0
H471 H 0.51652 0.81681 0.87087 0.0
H472 H 0.53431 0.77415 0.08368 0.0
C473 C 0.63096 0.84259 0.12461 0.0
C474 C 0.64661 0.86602 0.0926 0.0
C475 C 0.63867 0.87586 0.01979 0.0
C476 C 0.61508 0.86315 0.98072 0.0
C477 C 0.59982 0.84046 0.01482 0.0
C478 C 0.6077 0.8301 0.08488 0.0
C479 C 0.58707 0.80645 0.11108 0.0
C480 C 0.60337 0.77732 0.1194 0.0
C481 C 0.57157 0.81528 0.185 0.0
C482 C 0.56584 0.80554 0.04567 0.0
C483 C 0.57357 0.82521 0.9905 0.0
C484 C 0.5562 0.8294 0.92684 0.0
C485 C 0.53025 0.81323 0.91972 0.0
C486 C 0.52187 0.79302 0.97584 0.0
C487 C 0.54024 0.78901 0.03907 0.0
H488 H 0.21827 0.18934 0.89898 0.0
H489 H 0.18822 0.10058 0.8747 0.0
H490 H 0.14996 0.1099 0.97112 0.0
H491 H 0.20689 0.19966 0.09096 0.0
H492 H 0.194 0.23655 0.08106 0.0
H493 H 0.21875 0.22139 0.01238 0.0
H494 H 0.18148 0.23393 0.90639 0.0
H495 H 0.15656 0.24864 0.97582 0.0
H496 H 0.1446 0.2203 0.9124 0.0
H497 H 0.11829 0.12924 0.08173 0.0
H498 H 0.09731 0.15611 0.19143 0.0
H499 H 0.14308 0.23367 0.12265 0.0
C500 C 0.20376 0.17168 0.91391 0.0
C501 C 0.20726 0.1437 0.88194 0.0
C502 C 0.18724 0.12159 0.90169 0.0
C503 C 0.16493 0.12699 0.95508 0.0
C504 C 0.16212 0.15505 0.98504 0.0
C505 C 0.18086 0.17706 0.96396 0.0
C506 C 0.17362 0.20543 0.00291 0.0
C507 C 0.19986 0.21637 0.04961 0.0
C508 C 0.16345 0.22842 0.94595 0.0
C509 C 0.14863 0.19582 0.05244 0.0
C510 C 0.14206 0.16671 0.0415 0.0
C511 C 0.1225 0.15225 0.08885 0.0
C512 C 0.11046 0.16764 0.1505 0.0
C513 C 0.11769 0.19715 0.16274 0.0
C514 C 0.13609 0.21153 0.11166 0.0
H515 H 0.34111 0.72143 0.11491 0.0
H516 H 0.42841 0.68432 0.10542 0.0
H517 H 0.41469 0.64964 0.20603 0.0
H518 H 0.32553 0.71614 0.30393 0.0
H519 H 0.28803 0.70531 0.2895 0.0
H520 H 0.30627 0.7269 0.21986 0.0
H521 H 0.29406 0.68773 0.1181 0.0
H522 H 0.27636 0.66563 0.18823 0.0
H523 H 0.30576 0.65065 0.13207 0.0
H524 H 0.39024 0.62171 0.31794 0.0
H525 H 0.35891 0.60475 0.42353 0.0
H526 H 0.28671 0.6559 0.33844 0.0
C527 C 0.35762 0.70616 0.13383 0.0
C528 C 0.38637 0.70663 0.1046 0.0
C529 C 0.40685 0.6857 0.12999 0.0
C530 C 0.39892 0.66538 0.18579 0.0
C531 C 0.37008 0.66555 0.21261 0.0
C532 C 0.34975 0.68522 0.18593 0.0
C533 C 0.31994 0.68105 0.22061 0.0
C534 C 0.30936 0.70899 0.26089 0.0
C535 C 0.29773 0.67066 0.1612 0.0
C536 C 0.32685 0.65719 0.2754 0.0
C537 C 0.35572 0.64803 0.2699 0.0
C538 C 0.36746 0.62818 0.32109 0.0
C539 C 0.3495 0.61846 0.38052 0.0
C540 C 0.32026 0.62849 0.38721 0.0
C541 C 0.30873 0.64727 0.33274 0.0
H542 H 0.88208 0.8605 0.64638 0.0
H543 H 0.92608 0.79248 0.52114 0.0
H544 H 0.91632 0.8186 0.40248 0.0
H545 H 0.82486 0.85748 0.53443 0.0
H546 H 0.81408 0.89516 0.53882 0.0
H547 H 0.83447 0.87973 0.61483 0.0
H548 H 0.87521 0.91868 0.6002 0.0
H549 H 0.85394 0.93508 0.5258 0.0
H550 H 0.89145 0.92464 0.50912 0.0
H551 H 0.8996 0.85035 0.29765 0.0
H552 H 0.86184 0.87059 0.21395 0.0
H553 H 0.816 0.90573 0.40775 0.0
C554 C 0.89141 0.85226 0.59418 0.0
C555 C 0.90756 0.82602 0.59309 0.0
C556 C 0.91674 0.81412 0.52356 0.0
C557 C 0.91103 0.82878 0.45596 0.0
C558 C 0.89532 0.85488 0.45882 0.0
C559 C 0.88455 0.86582 0.52621 0.0
C560 C 0.86064 0.88818 0.51309 0.0
C561 C 0.83184 0.87958 0.55256 0.0
C562 C 0.87089 0.91846 0.5386 0.0
C563 C 0.85826 0.88667 0.42801 0.0
C564 C 0.88014 0.86923 0.39782 0.0
C565 C 0.88242 0.86408 0.32069 0.0
C566 C 0.86085 0.8757 0.27369 0.0
C567 C 0.83637 0.89081 0.30423 0.0
C568 C 0.83539 0.8967 0.38218 0.0
H569 H 0.62706 0.34007 0.62222 0.0
H570 H 0.68985 0.26946 0.59882 0.0
H571 H 0.72347 0.29465 0.6846 0.0
H572 H 0.67261 0.39823 0.63806 0.0
H573 H 0.65576 0.41718 0.71629 0.0
H574 H 0.63408 0.39368 0.65699 0.0
H575 H 0.6177 0.36302 0.77133 0.0
H576 H 0.63783 0.38731 0.83216 0.0
H577 H 0.64495 0.34872 0.83457 0.0
H578 H 0.75448 0.33199 0.74182 0.0
H579 H 0.77456 0.36761 0.83139 0.0
H580 H 0.68949 0.40946 0.8489 0.0
C581 C 0.64709 0.3292 0.63884 0.0
C582 C 0.65609 0.30292 0.60341 0.0
C583 C 0.68268 0.28959 0.62536 0.0
C584 C 0.70215 0.30394 0.67294 0.0
C585 C 0.69399 0.33094 0.70151 0.0
C586 C 0.66636 0.3425 0.69065 0.0
C587 C 0.66295 0.37073 0.73547 0.0
C588 C 0.65592 0.39647 0.68357 0.0
C589 C 0.63947 0.36725 0.79706 0.0
C590 C 0.69348 0.37364 0.7694 0.0
C591 C 0.71113 0.35092 0.74563 0.0
C592 C 0.74073 0.34942 0.76319 0.0
C593 C 0.75209 0.37015 0.81269 0.0
C594 C 0.73367 0.39127 0.8466 0.0
C595 C 0.70418 0.39387 0.82258 0.0
H596 H 0.07334 0.2191 0.62865 0.0
H597 H 0.11588 0.3026 0.5978 0.0
H598 H 0.12018 0.30824 0.7353 0.0
H599 H 0.03069 0.23901 0.78619 0.0
H600 H 0.03461 0.20501 0.8353 0.0
H601 H 0.03712 0.2058 0.734 0.0
H602 H 0.08814 0.18111 0.74005 0.0
H603 H 0.08597 0.18032 0.84159 0.0
H604 H 0.11667 0.19744 0.79603 0.0
H605 H 0.11743 0.30682 0.87397 0.0
H606 H 0.10729 0.29881 0.00812 0.0
H607 H 0.06604 0.21629 0.95365 0.0
C608 C 0.08384 0.2384 0.65086 0.0
C609 C 0.09418 0.26046 0.6022 0.0
C610 C 0.10767 0.28545 0.63363 0.0
C611 C 0.11035 0.28882 0.71179 0.0
C612 C 0.09958 0.26698 0.75809 0.0
C613 C 0.0867 0.24218 0.72917 0.0
C614 C 0.07583 0.22272 0.79229 0.0
C615 C 0.04259 0.21786 0.78658 0.0
C616 C 0.09265 0.19368 0.79249 0.0
C617 C 0.08357 0.2411 0.86082 0.0
C618 C 0.09772 0.26627 0.8394 0.0
C619 C 0.10653 0.28713 0.89159 0.0
C620 C 0.10055 0.28236 0.96784 0.0
C621 C 0.08571 0.25697 0.99165 0.0
C622 C 0.07735 0.23593 0.93725 0.0
H623 H 0.25543 0.58036 0.19716 0.0
H624 H 0.34864 0.5682 0.23378 0.0
H625 H 0.35754 0.57452 0.09724 0.0
H626 H 0.2512 0.54094 0.02591 0.0
H627 H 0.22472 0.56479 0.98294 0.0
H628 H 0.22592 0.56142 0.08396 0.0
H629 H 0.23266 0.61733 0.09797 0.0
H630 H 0.23079 0.62056 0.99683 0.0
H631 H 0.26183 0.6349 0.04712 0.0
H632 H 0.3559 0.57956 0.95531 0.0
H633 H 0.34402 0.58237 0.81991 0.0
H634 H 0.25174 0.59132 0.87536 0.0
C635 C 0.27776 0.57915 0.17665 0.0
C636 C 0.30133 0.57355 0.22637 0.0
C637 C 0.33019 0.57218 0.19692 0.0
C638 C 0.33547 0.57591 0.11942 0.0
C639 C 0.31168 0.58104 0.07192 0.0
C640 C 0.2834 0.58274 0.09948 0.0
C641 C 0.26156 0.58735 0.03618 0.0
C642 C 0.23956 0.56212 0.03202 0.0
C643 C 0.24578 0.61678 0.04511 0.0
C644 C 0.28187 0.58733 0.96839 0.0
C645 C 0.31073 0.58395 0.99033 0.0
C646 C 0.33339 0.58239 0.93765 0.0
C647 C 0.32638 0.58397 0.86069 0.0
C648 C 0.29692 0.58708 0.83665 0.0
C649 C 0.27448 0.58911 0.89167 0.0
H650 H 0.98877 0.74475 0.42221 0.0
H651 H 0.97834 0.83848 0.43644 0.0
H652 H 0.96758 0.83988 0.29967 0.0
H653 H 0.02339 0.74318 0.2352 0.0
H654 H 1.00522 0.7099 0.20889 0.0
H655 H 1.01386 0.71701 0.30635 0.0
H656 H 0.95929 0.70955 0.34165 0.0
H657 H 0.95036 0.70295 0.24423 0.0
H658 H 0.93157 0.73124 0.29618 0.0
H659 H 0.95301 0.82993 0.16285 0.0
H660 H 0.94249 0.81048 0.03526 0.0
H661 H 0.96434 0.72359 0.11166 0.0
C662 C 0.98478 0.7657 0.39655 0.0
C663 C 0.98413 0.79151 0.44037 0.0
C664 C 0.97886 0.81841 0.40415 0.0
C665 C 0.97263 0.8194 0.3265 0.0
C666 C 0.97219 0.79334 0.2857 0.0
C667 C 0.97873 0.76708 0.31933 0.0
C668 C 0.9766 0.74209 0.26355 0.0
C669 C 1.00655 0.72717 0.25286 0.0
C670 C 0.95305 0.72018 0.28788 0.0
C671 C 0.96743 0.75826 0.19333 0.0
C672 C 0.96477 0.78778 0.20718 0.0
C673 C 0.95545 0.8069 0.15125 0.0
C674 C 0.94933 0.79562 0.07905 0.0
C675 C 0.95276 0.76552 0.06323 0.0
C676 C 0.96173 0.74672 0.12161 0.0
H677 H 0.77403 0.50826 0.33016 0.0
H678 H 0.75785 0.41632 0.29137 0.0
H679 H 0.74025 0.41152 0.42202 0.0
H680 H 0.80212 0.49992 0.51553 0.0
H681 H 0.78623 0.53324 0.55118 0.0
H682 H 0.79547 0.52992 0.45277 0.0
H683 H 0.74204 0.54326 0.41718 0.0
H684 H 0.73259 0.54639 0.51564 0.0
H685 H 0.71222 0.52224 0.45501 0.0
H686 H 0.72599 0.41613 0.55676 0.0
H687 H 0.71968 0.42892 0.69071 0.0
H688 H 0.74629 0.51762 0.64373 0.0
C689 C 0.7666 0.48717 0.34902 0.0
C690 C 0.76699 0.46275 0.30043 0.0
C691 C 0.75752 0.4354 0.32746 0.0
C692 C 0.74738 0.43246 0.40148 0.0
C693 C 0.74711 0.45701 0.44778 0.0
C694 C 0.75672 0.48377 0.42302 0.0
C695 C 0.75589 0.50623 0.48576 0.0
C696 C 0.78676 0.518 0.50228 0.0
C697 C 0.7344 0.53099 0.46727 0.0
C698 C 0.74465 0.48779 0.54986 0.0
C699 C 0.73939 0.45956 0.52639 0.0
C700 C 0.72991 0.43818 0.57583 0.0
C701 C 0.72639 0.44569 0.65184 0.0
C702 C 0.73251 0.47428 0.67762 0.0
C703 C 0.7412 0.49568 0.62557 0.0
H704 H 0.57946 0.30717 0.13053 0.0
H705 H 0.63575 0.23206 0.16476 0.0
H706 H 0.64591 0.22983 0.02853 0.0
H707 H 0.54635 0.28243 0.96687 0.0
H708 H 0.54476 0.31709 0.92005 0.0
H709 H 0.54504 0.31567 0.02139 0.0
H710 H 0.5905 0.34922 0.02438 0.0
H711 H 0.59047 0.35072 0.92277 0.0
H712 H 0.62288 0.339 0.97209 0.0
H713 H 0.64573 0.23186 0.88979 0.0
H714 H 0.63484 0.23773 0.75496 0.0
H715 H 0.5788 0.31169 0.80743 0.0
C716 C 0.59431 0.29059 0.1094 0.0
C717 C 0.60668 0.26969 0.15815 0.0
C718 C 0.62581 0.24815 0.12841 0.0
C719 C 0.63193 0.24684 0.05116 0.0
C720 C 0.61891 0.26732 0.00438 0.0
C721 C 0.6006 0.2889 0.03211 0.0
C722 C 0.58764 0.3067 0.96852 0.0
C723 C 0.55396 0.30537 0.96928 0.0
C724 C 0.59853 0.33829 0.97217 0.0
C725 C 0.60038 0.29078 0.9008 0.0
C726 C 0.6188 0.26851 0.92308 0.0
C727 C 0.63167 0.24945 0.87148 0.0
C728 C 0.62518 0.25286 0.79504 0.0
C729 C 0.60584 0.27505 0.77086 0.0
C730 C 0.59381 0.29466 0.82434 0.0
H731 H 0.28348 0.1147 0.41979 0.0
H732 H 0.20964 0.05932 0.47409 0.0
H733 H 0.19742 0.05557 0.33901 0.0
H734 H 0.24849 0.1529 0.26244 0.0
H735 H 0.28176 0.15404 0.2076 0.0
H736 H 0.28351 0.15415 0.30915 0.0
H737 H 0.31749 0.10889 0.30492 0.0
H738 H 0.31584 0.10859 0.2035 0.0
H739 H 0.30562 0.07662 0.25555 0.0
H740 H 0.19458 0.0557 0.19744 0.0
H741 H 0.20175 0.05931 0.05974 0.0
H742 H 0.27777 0.11404 0.09684 0.0
C743 C 0.26458 0.10201 0.40336 0.0
C744 C 0.24754 0.08729 0.45774 0.0
C745 C 0.2231 0.07074 0.43366 0.0
C746 C 0.21589 0.06856 0.35697 0.0
C747 C 0.23332 0.08301 0.30478 0.0
C748 C 0.25713 0.09946 0.32687 0.0
C749 C 0.27301 0.11178 0.25907 0.0
C750 C 0.2716 0.1452 0.25961 0.0
C751 C 0.30487 0.1008 0.25558 0.0
C752 C 0.25483 0.09912 0.19543 0.0
C753 C 0.23184 0.08285 0.22306 0.0
C754 C 0.21243 0.06849 0.17515 0.0
C755 C 0.21674 0.07061 0.09696 0.0
C756 C 0.2404 0.08684 0.06728 0.0
C757 C 0.25947 0.10146 0.11754 0.0
H758 H 0.46736 0.79325 0.29217 0.0
H759 H 0.43853 0.70345 0.28082 0.0
H760 H 0.42939 0.70415 0.41816 0.0
H761 H 0.50521 0.78693 0.46965 0.0
H762 H 0.49499 0.82291 0.50124 0.0
H763 H 0.4988 0.81532 0.40192 0.0
H764 H 0.44582 0.83383 0.37971 0.0
H765 H 0.44177 0.84128 0.47904 0.0
H766 H 0.416 0.81788 0.43167 0.0
H767 H 0.42213 0.71513 0.55583 0.0
H768 H 0.42083 0.73427 0.68608 0.0
H769 H 0.45626 0.81634 0.60826 0.0
C770 C 0.45918 0.77371 0.31861 0.0
C771 C 0.45355 0.74832 0.27591 0.0
C772 C 0.44306 0.72312 0.31255 0.0
C773 C 0.4377 0.72334 0.39044 0.0
C774 C 0.44325 0.74883 0.43079 0.0
C775 C 0.45406 0.77345 0.39634 0.0
C776 C 0.45885 0.79779 0.45284 0.0
C777 C 0.4914 0.80622 0.45663 0.0
C778 C 0.43945 0.82425 0.43472 0.0
C779 C 0.44897 0.78304 0.52452 0.0
C780 C 0.43981 0.7549 0.51044 0.0
C781 C 0.42937 0.73708 0.56762 0.0
C782 C 0.42865 0.74819 0.64137 0.0
C783 C 0.43858 0.77676 0.65738 0.0
C784 C 0.44866 0.7944 0.59789 0.0
H785 H 0.80487 0.96767 0.86197 0.0
H786 H 0.73514 0.90434 0.88572 0.0
H787 H 0.7325 0.89945 0.74744 0.0
H788 H 0.7768 1.00353 0.7005 0.0
H789 H 0.81192 1.00865 0.65591 0.0
H790 H 0.80946 1.00636 0.75708 0.0
H791 H 0.84697 0.96415 0.75624 0.0
H792 H 0.84959 0.96598 0.65497 0.0
H793 H 0.83996 0.93219 0.69994 0.0
H794 H 0.73439 0.90405 0.60805 0.0
H795 H 0.74255 0.91548 0.47445 0.0
H796 H 0.8126 0.97451 0.5366 0.0
C797 C 0.78916 0.95263 0.83812 0.0
C798 C 0.77007 0.93651 0.8851 0.0
C799 C 0.74994 0.91701 0.85134 0.0
C800 C 0.74829 0.91405 0.77268 0.0
C801 C 0.76707 0.93052 0.72814 0.0
C802 C 0.78732 0.94925 0.7594 0.0
C803 C 0.80468 0.96459 0.69816 0.0
C804 C 0.80045 0.99775 0.70324 0.0
C805 C 0.83725 0.95622 0.70253 0.0
C806 C 0.79046 0.95213 0.62756 0.0
C807 C 0.76884 0.9325 0.64667 0.0
C808 C 0.75146 0.91913 0.59235 0.0
C809 C 0.75618 0.92596 0.51648 0.0
C810 C 0.77827 0.94584 0.49482 0.0
C811 C 0.79581 0.95896 0.55131 0.0
H812 H 0.21763 0.13163 0.61461 0.0
H813 H 0.27356 0.20407 0.67146 0.0
H814 H 0.24701 0.23486 0.5792 0.0
H815 H 0.19943 0.14786 0.41836 0.0
H816 H 0.16164 0.13795 0.43271 0.0
H817 H 0.18993 0.1205 0.48652 0.0
H818 H 0.16398 0.13525 0.6104 0.0
H819 H 0.13554 0.15334 0.55839 0.0
H820 H 0.15599 0.17303 0.62887 0.0
H821 H 0.20987 0.25822 0.48405 0.0
H822 H 0.16934 0.26947 0.39488 0.0
H823 H 0.13285 0.18416 0.43331 0.0
C824 C 0.22565 0.15333 0.60389 0.0
C825 C 0.24844 0.16511 0.64741 0.0
C826 C 0.25693 0.19435 0.63594 0.0
C827 C 0.24155 0.21209 0.58486 0.0
C828 C 0.2172 0.20039 0.54814 0.0
C829 C 0.20945 0.17156 0.5575 0.0
C830 C 0.18004 0.16496 0.52327 0.0
C831 C 0.18295 0.14147 0.46143 0.0
C832 C 0.15759 0.15613 0.58385 0.0
C833 C 0.17259 0.1943 0.49119 0.0
C834 C 0.19422 0.2146 0.50482 0.0
C835 C 0.1926 0.24258 0.47435 0.0
C836 C 0.16921 0.24911 0.42518 0.0
C837 C 0.14761 0.22796 0.4096 0.0
C838 C 0.14865 0.201 0.44644 0.0
H839 H 0.39683 0.71088 0.83593 0.0
H840 H 0.3331 0.77787 0.88793 0.0
H841 H 0.29869 0.75596 0.79567 0.0
H842 H 0.37693 0.69449 0.63654 0.0
H843 H 0.38182 0.65605 0.65185 0.0
H844 H 0.4035 0.68181 0.70405 0.0
H845 H 0.38566 0.65846 0.82875 0.0
H846 H 0.36326 0.63328 0.77675 0.0
H847 H 0.34692 0.65639 0.8479 0.0
H848 H 0.26995 0.72304 0.70335 0.0
H849 H 0.25162 0.68445 0.61664 0.0
H850 H 0.33099 0.63494 0.65297 0.0
C851 C 0.3764 0.72201 0.82409 0.0
C852 C 0.36798 0.74671 0.86632 0.0
C853 C 0.3403 0.75966 0.85344 0.0
C854 C 0.32048 0.74699 0.80231 0.0
C855 C 0.3285 0.72096 0.76672 0.0
C856 C 0.35595 0.70875 0.77697 0.0
C857 C 0.35799 0.67869 0.74244 0.0
C858 C 0.38143 0.67772 0.67998 0.0
C859 C 0.36379 0.65536 0.8026 0.0
C860 C 0.32751 0.67584 0.71063 0.0
C861 C 0.31082 0.7005 0.72383 0.0
C862 C 0.28267 0.70344 0.69391 0.0
C863 C 0.27215 0.68127 0.64602 0.0
C864 C 0.28937 0.65624 0.6313 0.0
C865 C 0.31678 0.65314 0.66652 0.0
H866 H 0.88756 0.84195 0.83672 0.0
H867 H 0.85434 0.75395 0.8393 0.0
H868 H 0.81616 0.76914 0.93242 0.0
H869 H 0.87459 0.86014 0.03211 0.0
H870 H 0.86451 0.89703 0.01039 0.0
H871 H 0.88981 0.87772 0.95035 0.0
H872 H 0.85618 0.8881 0.83504 0.0
H873 H 0.8309 0.90716 0.89588 0.0
H874 H 0.81828 0.87728 0.83839 0.0
H875 H 0.78219 0.79547 0.02816 0.0
H876 H 0.76027 0.82804 0.12496 0.0
H877 H 0.81224 0.8994 0.04186 0.0
C878 C 0.87288 0.82563 0.85902 0.0
C879 C 0.87443 0.79658 0.83347 0.0
C880 C 0.8541 0.77606 0.86077 0.0
C881 C 0.83206 0.7847 0.91231 0.0
C882 C 0.83032 0.81404 0.9336 0.0
C883 C 0.85043 0.83406 0.90787 0.0
C884 C 0.84401 0.86433 0.93727 0.0
C885 C 0.86974 0.87545 0.98539 0.0
C886 C 0.83692 0.88543 0.87274 0.0
C887 C 0.81719 0.85844 0.98477 0.0
C888 C 0.80951 0.82934 0.98226 0.0
C889 C 0.78758 0.81837 0.02899 0.0
C890 C 0.77477 0.83714 0.08287 0.0
C891 C 0.78364 0.86654 0.08871 0.0
C892 C 0.80379 0.87754 0.03592 0.0
H893 H 0.68624 0.27198 0.29562 0.0
H894 H 0.62908 0.33977 0.38263 0.0
H895 H 0.6535 0.37573 0.30347 0.0
H896 H 0.74969 0.31085 0.28981 0.0
H897 H 0.76358 0.29764 0.20066 0.0
H898 H 0.73921 0.27539 0.25542 0.0
H899 H 0.7028 0.27134 0.14384 0.0
H900 H 0.72776 0.29229 0.08728 0.0
H901 H 0.69023 0.30396 0.09813 0.0
H902 H 0.68901 0.40564 0.23398 0.0
H903 H 0.72338 0.4262 0.14189 0.0
H904 H 0.75716 0.33972 0.09341 0.0
C905 C 0.67794 0.29407 0.29452 0.0
C906 C 0.65504 0.30291 0.34301 0.0
C907 C 0.64541 0.33223 0.34281 0.0
C908 C 0.65976 0.35304 0.29959 0.0
C909 C 0.68345 0.34407 0.25604 0.0
C910 C 0.69169 0.31517 0.25009 0.0
C911 C 0.71774 0.31167 0.19768 0.0
C912 C 0.7441 0.29807 0.23838 0.0
C913 C 0.70913 0.29377 0.12755 0.0
C914 C 0.72346 0.34322 0.17811 0.0
C915 C 0.70367 0.36151 0.21358 0.0
C916 C 0.70446 0.39158 0.20496 0.0
C917 C 0.72456 0.40315 0.15379 0.0
C918 C 0.74323 0.38457 0.11148 0.0
C919 C 0.74357 0.35441 0.12641 0.0
H920 H 0.95031 0.14642 0.31728 0.0
H921 H 0.02767 0.12493 0.18508 0.0
H922 H 1.00615 0.0771 0.15353 0.0
H923 H 0.93827 0.07564 0.39397 0.0
H924 H 0.89891 0.07779 0.38812 0.0
H925 H 0.92011 0.11047 0.39998 0.0
H926 H 0.89651 0.13241 0.28023 0.0
H927 H 0.87491 0.09999 0.26872 0.0
H928 H 0.89796 0.11226 0.19272 0.0
H929 H 0.97705 0.03124 0.14022 0.0
H930 H 0.94033 0.99236 0.13327 0.0
H931 H 0.8809 0.04414 0.27154 0.0
C932 C 0.9627 0.13171 0.28135 0.0
C933 C 0.99063 0.13951 0.25326 0.0
C934 C 1.00606 0.1197 0.2062 0.0
C935 C 0.99414 0.09235 0.18869 0.0
C936 C 0.96676 0.08525 0.21839 0.0
C937 C 0.95104 0.1045 0.26284 0.0
C938 C 0.92173 0.09183 0.28597 0.0
C939 C 0.91965 0.08875 0.37213 0.0
C940 C 0.89628 0.11021 0.25504 0.0
C941 C 0.92337 0.06234 0.24754 0.0
C942 C 0.94969 0.05894 0.2096 0.0
C943 C 0.95633 0.03372 0.16939 0.0
C944 C 0.93524 1.01174 0.1659 0.0
C945 C 0.90759 1.01501 0.20188 0.0
C946 C 0.90188 0.04056 0.24445 0.0
H947 H 0.48351 0.39575 0.41733 0.0
H948 H 0.51273 0.3824 0.6476 0.0
H949 H 0.47428 0.41624 0.69266 0.0
H950 H 0.47217 0.47023 0.43324 0.0
H951 H 0.44041 0.47127 0.37308 0.0
H952 H 0.46749 0.44316 0.36026 0.0
H953 H 0.4274 0.40387 0.37558 0.0
H954 H 0.40013 0.43192 0.38861 0.0
H955 H 0.40463 0.40408 0.45879 0.0
H956 H 0.43653 0.45592 0.71088 0.0
H957 H 0.40299 0.49796 0.7011 0.0
H958 H 0.39828 0.48541 0.4589 0.0
C959 C 0.48168 0.3995 0.47751 0.0
C960 C 0.50119 0.38601 0.52879 0.0
C961 C 0.49788 0.39182 0.60697 0.0
C962 C 0.47609 0.41117 0.63314 0.0
C963 C 0.45763 0.42438 0.58065 0.0
C964 C 0.46014 0.41865 0.50445 0.0
C965 C 0.43911 0.43717 0.45896 0.0
C966 C 0.4558 0.45661 0.40313 0.0
C967 C 0.41647 0.41812 0.41808 0.0
C968 C 0.42491 0.455 0.52126 0.0
C969 C 0.4357 0.44707 0.59113 0.0
C970 C 0.42759 0.46192 0.65665 0.0
C971 C 0.40855 0.4858 0.65048 0.0
C972 C 0.39764 0.49467 0.57941 0.0
C973 C 0.40551 0.47862 0.5142 0.0
H974 H 0.12905 0.99333 0.65272 0.0
H975 H 0.16005 0.99532 0.88421 0.0
H976 H 0.13035 0.95215 0.9121 0.0
H977 H 0.05701 0.97725 0.69498 0.0
H978 H 0.05092 0.95377 0.61476 0.0
H979 H 0.078 0.98198 0.60969 0.0
H980 H 0.11754 0.94377 0.57352 0.0
H981 H 0.09051 0.91535 0.57853 0.0
H982 H 0.12354 0.91287 0.6337 0.0
H983 H 0.09199 0.91354 0.92015 0.0
H984 H 0.04848 0.88206 0.90673 0.0
H985 H 0.04276 0.90396 0.67005 0.0
C986 C 0.13013 0.9844 0.709 0.0
C987 C 0.14741 0.9977 0.76576 0.0
C988 C 0.14777 0.98535 0.83887 0.0
C989 C 0.13078 0.96079 0.85549 0.0
C990 C 0.11366 0.94862 0.79845 0.0
C991 C 0.11337 0.95988 0.72648 0.0
C992 C 0.09127 0.94429 0.67698 0.0
C993 C 0.06792 0.96559 0.64741 0.0
C994 C 0.10664 0.92811 0.61182 0.0
C995 C 0.07836 0.92316 0.73312 0.0
C996 C 0.0918 0.92584 0.80272 0.0
C997 C 0.08181 0.91073 0.86554 0.0
C998 C 0.05713 0.89291 0.85745 0.0
C999 C 0.04288 0.8901 0.78702 0.0
C1000 C 0.05399 0.90496 0.72376 0.0
H1001 H 0.59525 0.50468 0.97948 0.0
H1002 H 0.67368 0.55757 0.98925 0.0
H1003 H 0.64284 0.6021 0.98962 0.0
H1004 H 0.55442 0.5512 0.85576 0.0
H1005 H 0.52003 0.54393 0.90193 0.0
H1006 H 0.54862 0.51686 0.90191 0.0
H1007 H 0.5464 0.51515 0.04796 0.0
H1008 H 0.51799 0.54242 0.04847 0.0
H1009 H 0.55109 0.54824 0.10163 0.0
H1010 H 0.6019 0.64121 0.9933 0.0
H1011 H 0.55602 0.67022 0.98883 0.0
H1012 H 0.50576 0.59047 0.97542 0.0
C1013 C 0.60607 0.5256 0.98159 0.0
C1014 C 0.63693 0.52755 0.98416 0.0
C1015 C 0.65011 0.55544 0.98621 0.0
C1016 C 0.63273 0.58087 0.9871 0.0
C1017 C 0.60226 0.57803 0.98545 0.0
C1018 C 0.58918 0.55099 0.98191 0.0
C1019 C 0.55616 0.55343 0.97935 0.0
C1020 C 0.54411 0.5406 0.90533 0.0
C1021 C 0.5421 0.53896 0.04847 0.0
C1022 C 0.55251 0.5861 0.98222 0.0
C1023 C 0.57922 0.60007 0.98635 0.0
C1024 C 0.58092 0.6304 0.99001 0.0
C1025 C 0.55472 0.64672 0.98811 0.0
C1026 C 0.52722 0.63264 0.98205 0.0
C1027 C 0.52638 0.60194 0.97974 0.0
loop_
_geom_bond_atom_site_label_1
_geom_bond_atom_site_label_2
_geom_bond_distance
_geom_bond_site_symmetry_2
_ccdc_geom_bond_type
Zn0 N4 2.020 . S
Zn0 O8 2.019 . S
Zn0 N10 2.119 . S
Zn0 O18 1.975 . S
C1 N2 1.334 . S
C1 N5 1.336 . S
N2 C1 1.334 . S
N2 C3 1.334 . S
C3 N2 1.334 . S
C3 N4 1.336 . S
N4 Zn0 2.020 . S
N4 C3 1.336 . S
N4 N5 1.354 . S
N5 C1 1.336 . S
N5 N4 1.354 . S
N5 Zn9 2.020 . S
C6 O7 1.244 . S
C6 O30 1.257 . S
O7 C6 1.244 . S
O8 Zn0 2.019 . S
O8 C28 1.257 . S
Zn9 N5 2.020 . S
Zn9 O16 1.975 . S
Zn9 N25 2.119 . S
Zn9 O30 2.019 . S
N10 Zn0 2.119 . S
N10 C12 1.334 . S
N10 C13 1.328 . S
C11 C12 1.391 . S
C11 N14 1.329 . S
C11 H32 0.930 . S
C12 N10 1.334 . S
C12 C11 1.391 . S
C12 H19 0.930 . S
C13 N10 1.328 . S
C13 C15 1.392 . S
C13 H20 0.930 . S
N14 C11 1.329 . S
N14 C15 1.331 . S
C15 C13 1.392 . S
C15 N14 1.331 . S
O16 Zn9 1.975 . S
O16 C17 1.252 . S
C17 O16 1.252 . S
C17 O18 1.252 . S
O18 Zn0 1.975 . S
O18 C17 1.252 . S
H19 C12 0.930 . S
H20 C13 0.930 . S
C21 C22 1.392 . S
C21 N25 1.328 1_655 S
C21 H27 0.930 . S
C22 C21 1.392 . S
C22 N26 1.331 . S
C23 C24 1.391 . S
C23 N26 1.329 . S
C23 H33 0.930 . S
C24 C23 1.391 . S
C24 N25 1.334 1_655 S
C24 H31 0.930 1_655 S
N25 Zn9 2.119 . S
N25 C21 1.328 1_455 S
N25 C24 1.334 1_455 S
N26 C22 1.331 . S
N26 C23 1.329 . S
H27 C21 0.930 . S
C28 O8 1.257 . S
C28 O29 1.244 . S
O29 C28 1.244 . S
O30 C6 1.257 . S
O30 Zn9 2.019 . S
H31 C24 0.930 1_455 S
H32 C11 0.930 . S
H33 C23 0.930 . S
Zn34 N38 2.020 . S
Zn34 O42 2.019 . S
Zn34 N44 2.119 . S
Zn34 O52 1.975 . S
C35 N36 1.334 . S
C35 N39 1.336 . S
N36 C35 1.334 . S
N36 C37 1.334 . S
C37 N36 1.334 . S
C37 N38 1.336 . S
N38 Zn34 2.020 . S
N38 C37 1.336 . S
N38 N39 1.354 . S
N39 C35 1.336 . S
N39 N38 1.354 . S
N39 Zn43 2.020 . S
C40 O41 1.244 . S
C40 O64 1.257 . S
O41 C40 1.244 . S
O42 Zn34 2.019 . S
O42 C62 1.257 . S
Zn43 N39 2.020 . S
Zn43 O50 1.975 . S
Zn43 N59 2.119 . S
Zn43 O64 2.019 . S
N44 Zn34 2.119 . S
N44 C46 1.334 . S
N44 C47 1.328 . S
C45 C46 1.391 . S
C45 N48 1.329 . S
C45 H66 0.930 . S
C46 N44 1.334 . S
C46 C45 1.391 . S
C46 H53 0.930 . S
C47 N44 1.328 . S
C47 C49 1.392 . S
C47 H54 0.930 . S
N48 C45 1.329 . S
N48 C49 1.331 . S
C49 C47 1.392 . S
C49 N48 1.331 . S
O50 Zn43 1.975 . S
O50 C51 1.252 . S
C51 O50 1.252 . S
C51 O52 1.252 . S
O52 Zn34 1.975 . S
O52 C51 1.252 . S
H53 C46 0.930 . S
H54 C47 0.930 . S
C55 C56 1.392 . S
C55 N59 1.328 . S
C55 H61 0.930 . S
C56 C55 1.392 . S
C56 N60 1.331 . S
C57 C58 1.391 . S
C57 N60 1.329 . S
C57 H67 0.930 . S
C58 C57 1.391 . S
C58 N59 1.334 . S
C58 H65 0.930 . S
N59 Zn43 2.119 . S
N59 C55 1.328 . S
N59 C58 1.334 . S
N60 C56 1.331 . S
N60 C57 1.329 . S
H61 C55 0.930 . S
C62 O42 1.257 . S
C62 O63 1.244 . S
O63 C62 1.244 . S
O64 C40 1.257 . S
O64 Zn43 2.019 . S
H65 C58 0.930 . S
H66 C45 0.930 . S
H67 C57 0.930 . S
Zn68 N72 2.020 . S
Zn68 O76 2.019 1_556 S
Zn68 N78 2.119 . S
Zn68 O86 1.975 . S
C69 N70 1.334 . S
C69 N73 1.336 . S
N70 C69 1.334 . S
N70 C71 1.334 . S
C71 N70 1.334 . S
C71 N72 1.336 . S
N72 Zn68 2.020 . S
N72 C71 1.336 . S
N72 N73 1.354 . S
N73 C69 1.336 . S
N73 N72 1.354 . S
N73 Zn77 2.020 . S
C74 O75 1.244 . S
C74 O98 1.257 . S
O75 C74 1.244 . S
O76 Zn68 2.019 1_554 S
O76 C96 1.257 . S
Zn77 N73 2.020 . S
Zn77 O84 1.975 . S
Zn77 N93 2.119 . S
Zn77 O98 2.019 . S
N78 Zn68 2.119 . S
N78 C80 1.334 . S
N78 C81 1.328 . S
C79 C80 1.391 . S
C79 N82 1.329 . S
C79 H100 0.930 . S
C80 N78 1.334 . S
C80 C79 1.391 . S
C80 H87 0.930 . S
C81 N78 1.328 . S
C81 C83 1.392 . S
C81 H88 0.930 . S
N82 C79 1.329 . S
N82 C83 1.331 . S
C83 C81 1.392 . S
C83 N82 1.331 . S
O84 Zn77 1.975 . S
O84 C85 1.252 . S
C85 O84 1.252 . S
C85 O86 1.252 . S
O86 Zn68 1.975 . S
O86 C85 1.252 . S
H87 C80 0.930 . S
H88 C81 0.930 . S
C89 C90 1.392 . S
C89 N93 1.328 1_455 S
C89 H95 0.930 . S
C90 C89 1.392 . S
C90 N94 1.331 . S
C91 C92 1.416 . S
C91 N94 1.329 . S
C91 H101 0.930 . S
C92 C91 1.416 . S
C92 N93 1.325 1_455 S
C92 H99 0.913 1_455 S
N93 Zn77 2.119 . S
N93 C89 1.328 1_655 S
N93 C92 1.325 1_655 S
N94 C90 1.331 . S
N94 C91 1.329 . S
H95 C89 0.930 . S
C96 O76 1.257 . S
C96 O97 1.244 . S
O97 C96 1.244 . S
O98 C74 1.257 . S
O98 Zn77 2.019 . S
H99 C92 0.913 1_655 S
H100 C79 0.930 . S
H101 C91 0.930 . S
Zn102 N106 2.020 . S
Zn102 O110 2.019 . S
Zn102 N112 2.119 . S
Zn102 O120 1.975 . S
C103 N104 1.334 . S
C103 N107 1.336 . S
N104 C103 1.334 . S
N104 C105 1.334 1_556 S
C105 N104 1.334 1_554 S
C105 N106 1.336 . S
N106 Zn102 2.020 . S
N106 C105 1.336 . S
N106 N107 1.354 1_554 S
N107 C103 1.336 . S
N107 N106 1.354 1_556 S
N107 Zn111 2.020 . S
C108 O109 1.244 . S
C108 O132 1.257 . S
O109 C108 1.244 . S
O110 Zn102 2.019 . S
O110 C130 1.257 . S
Zn111 N107 2.020 . S
Zn111 O118 1.975 . S
Zn111 N127 2.119 . S
Zn111 O132 2.019 . S
N112 Zn102 2.119 . S
N112 C114 1.334 1_554 S
N112 C115 1.328 . S
C113 C114 1.391 . S
C113 N116 1.329 1_556 S
C113 H134 0.930 . S
C114 N112 1.334 1_556 S
C114 C113 1.391 . S
C114 H121 0.930 . S
C115 N112 1.328 . S
C115 C117 1.392 . S
C115 H122 0.930 . S
N116 C113 1.329 1_554 S
N116 C117 1.331 . S
C117 C115 1.392 . S
C117 N116 1.331 . S
O118 Zn111 1.975 . S
O118 C119 1.245 1_556 S
C119 O118 1.245 1_554 S
C119 O120 1.259 . S
O120 Zn102 1.975 . S
O120 C119 1.259 . S
H121 C114 0.930 . S
H122 C115 0.930 . S
C123 C124 1.392 . S
C123 N127 1.328 . S
C123 H129 0.930 . S
C124 C123 1.392 . S
C124 N128 1.331 . S
C125 C126 1.391 . S
C125 N128 1.329 1_554 S
C125 H135 0.930 . S
C126 C125 1.391 . S
C126 N127 1.334 1_554 S
C126 H133 0.930 . S
N127 Zn111 2.119 . S
N127 C123 1.328 . S
N127 C126 1.334 1_556 S
N128 C124 1.331 . S
N128 C125 1.329 1_556 S
H129 C123 0.930 . S
C130 O110 1.257 . S
C130 O131 1.244 . S
O131 C130 1.244 . S
O132 C108 1.257 . S
O132 Zn111 2.019 . S
H133 C126 0.930 . S
H134 C113 0.930 . S
H135 C125 0.930 . S
Zn136 N140 2.020 . S
Zn136 O144 2.019 . S
Zn136 N146 2.119 . S
Zn136 O154 1.975 . S
C137 N138 1.334 . S
C137 N141 1.336 . S
N138 C137 1.334 . S
N138 C139 1.334 . S
C139 N138 1.334 . S
C139 N140 1.336 . S
N140 Zn136 2.020 . S
N140 C139 1.336 . S
N140 N141 1.354 . S
N141 C137 1.336 . S
N141 N140 1.354 . S
N141 Zn145 2.020 . S
C142 O143 1.244 . S
C142 O166 1.257 . S
O143 C142 1.244 . S
O144 Zn136 2.019 . S
O144 C164 1.257 . S
Zn145 N141 2.020 . S
Zn145 O152 1.975 . S
Zn145 N161 2.119 . S
Zn145 O166 2.019 . S
N146 Zn136 2.119 . S
N146 C148 1.334 . S
N146 C149 1.328 . S
C147 C148 1.391 . S
C147 N150 1.329 . S
C147 H168 0.930 . S
C148 N146 1.334 . S
C148 C147 1.391 . S
C148 H155 0.930 . S
C149 N146 1.328 . S
C149 C151 1.392 . S
C149 H156 0.930 . S
N150 C147 1.329 . S
N150 C151 1.331 . S
C151 C149 1.392 . S
C151 N150 1.331 . S
O152 Zn145 1.975 . S
O152 C153 1.252 . S
C153 O152 1.252 . S
C153 O154 1.252 . S
O154 Zn136 1.975 . S
O154 C153 1.252 . S
H155 C148 0.930 . S
H156 C149 0.930 . S
C157 C158 1.392 . S
C157 N161 1.328 . S
C157 H163 0.930 . S
C158 C157 1.392 . S
C158 N162 1.331 . S
C159 C160 1.391 . S
C159 N162 1.329 . S
C159 H169 0.930 . S
C160 C159 1.391 . S
C160 N161 1.334 . S
C160 H167 0.930 . S
N161 Zn145 2.119 . S
N161 C157 1.328 . S
N161 C160 1.334 . S
N162 C158 1.331 . S
N162 C159 1.329 . S
H163 C157 0.930 . S
C164 O144 1.257 . S
C164 O165 1.244 . S
O165 C164 1.244 . S
O166 C142 1.257 . S
O166 Zn145 2.019 . S
H167 C160 0.930 . S
H168 C147 0.930 . S
H169 C159 0.930 . S
Zn170 N174 2.020 . S
Zn170 O178 2.019 . S
Zn170 N180 2.119 . S
Zn170 O188 1.975 . S
C171 N172 1.334 . S
C171 N175 1.336 . S
N172 C171 1.334 . S
N172 C173 1.334 . S
C173 N172 1.334 . S
C173 N174 1.336 . S
N174 Zn170 2.020 . S
N174 C173 1.336 . S
N174 N175 1.354 . S
N175 C171 1.336 . S
N175 N174 1.354 . S
N175 Zn179 2.020 . S
C176 O177 1.244 . S
C176 O200 1.257 . S
O177 C176 1.244 . S
O178 Zn170 2.019 . S
O178 C198 1.257 . S
Zn179 N175 2.020 . S
Zn179 O186 1.975 . S
Zn179 N195 2.119 . S
Zn179 O200 2.019 . S
N180 Zn170 2.119 . S
N180 C182 1.334 1_545 S
N180 C183 1.328 1_545 S
C181 C182 1.391 . S
C181 N184 1.329 . S
C181 H202 0.930 . S
C182 N180 1.334 1_565 S
C182 C181 1.391 . S
C182 H189 0.930 1_565 S
C183 N180 1.328 1_565 S
C183 C185 1.392 . S
C183 H190 0.930 . S
N184 C181 1.329 . S
N184 C185 1.331 . S
C185 C183 1.392 . S
C185 N184 1.331 . S
O186 Zn179 1.975 . S
O186 C187 1.252 . S
C187 O186 1.252 . S
C187 O188 1.252 . S
O188 Zn170 1.975 . S
O188 C187 1.252 . S
H189 C182 0.930 1_545 S
H190 C183 0.930 . S
C191 C192 1.392 . S
C191 N195 1.328 . S
C191 H197 0.930 . S
C192 C191 1.392 . S
C192 N196 1.331 . S
C193 C194 1.391 . S
C193 N196 1.329 . S
C193 H203 0.930 . S
C194 C193 1.391 . S
C194 N195 1.334 . S
C194 H201 0.930 . S
N195 Zn179 2.119 . S
N195 C191 1.328 . S
N195 C194 1.334 . S
N196 C192 1.331 . S
N196 C193 1.329 . S
H197 C191 0.930 . S
C198 O178 1.257 . S
C198 O199 1.244 . S
O199 C198 1.244 . S
O200 C176 1.257 . S
O200 Zn179 2.019 . S
H201 C194 0.930 . S
H202 C181 0.930 . S
H203 C193 0.930 . S
Zn204 N208 2.020 . S
Zn204 O212 2.019 . S
Zn204 N214 2.119 . S
Zn204 O222 1.975 . S
C205 N206 1.334 . S
C205 N209 1.336 . S
N206 C205 1.334 . S
N206 C207 1.334 1_554 S
C207 N206 1.334 1_556 S
C207 N208 1.336 . S
N208 Zn204 2.020 . S
N208 C207 1.336 . S
N208 N209 1.354 1_556 S
N209 C205 1.336 . S
N209 N208 1.354 1_554 S
N209 Zn213 2.020 . S
C210 O211 1.244 . S
C210 O234 1.257 . S
O211 C210 1.244 . S
O212 Zn204 2.019 . S
O212 C232 1.257 . S
Zn213 N209 2.020 . S
Zn213 O220 1.975 . S
Zn213 N229 2.119 . S
Zn213 O234 2.019 . S
N214 Zn204 2.119 . S
N214 C216 1.334 1_556 S
N214 C217 1.328 . S
C215 C216 1.391 . S
C215 N218 1.329 1_554 S
C215 H236 0.930 . S
C216 N214 1.334 1_554 S
C216 C215 1.391 . S
C216 H223 0.930 . S
C217 N214 1.328 . S
C217 C219 1.392 . S
C217 H224 0.930 . S
N218 C215 1.329 1_556 S
N218 C219 1.331 . S
C219 C217 1.392 . S
C219 N218 1.331 . S
O220 Zn213 1.975 . S
O220 C221 1.245 1_554 S
C221 O220 1.245 1_556 S
C221 O222 1.259 . S
O222 Zn204 1.975 . S
O222 C221 1.259 . S
H223 C216 0.930 . S
H224 C217 0.930 . S
C225 C226 1.392 . S
C225 N229 1.328 . S
C225 H231 0.930 . S
C226 C225 1.392 . S
C226 N230 1.331 . S
C227 C228 1.391 . S
C227 N230 1.329 1_556 S
C227 H237 0.930 . S
C228 C227 1.391 . S
C228 N229 1.334 1_556 S
C228 H235 0.930 . S
N229 Zn213 2.119 . S
N229 C225 1.328 . S
N229 C228 1.334 1_554 S
N230 C226 1.331 . S
N230 C227 1.329 1_554 S
H231 C225 0.930 . S
C232 O212 1.257 . S
C232 O233 1.244 . S
O233 C232 1.244 . S
O234 C210 1.257 . S
O234 Zn213 2.019 . S
H235 C228 0.930 . S
H236 C215 0.930 . S
H237 C227 0.930 . S
Zn238 N242 2.020 . S
Zn238 O246 2.019 1_554 S
Zn238 N248 2.119 . S
Zn238 O256 1.975 . S
C239 N240 1.334 . S
C239 N243 1.336 . S
N240 C239 1.334 . S
N240 C241 1.334 . S
C241 N240 1.334 . S
C241 N242 1.336 . S
N242 Zn238 2.020 . S
N242 C241 1.336 . S
N242 N243 1.354 . S
N243 C239 1.336 . S
N243 N242 1.354 . S
N243 Zn247 2.020 . S
C244 O245 1.244 . S
C244 O268 1.257 . S
O245 C244 1.244 . S
O246 Zn238 2.019 1_556 S
O246 C266 1.257 . S
Zn247 N243 2.020 . S
Zn247 O254 1.975 . S
Zn247 N263 2.119 . S
Zn247 O268 2.019 . S
N248 Zn238 2.119 . S
N248 C250 1.334 . S
N248 C251 1.328 . S
C249 C250 1.391 . S
C249 N252 1.329 . S
C249 H270 0.930 . S
C250 N248 1.334 . S
C250 C249 1.391 . S
C250 H257 0.930 . S
C251 N248 1.328 . S
C251 C253 1.392 . S
C251 H258 0.930 . S
N252 C249 1.329 . S
N252 C253 1.331 . S
C253 C251 1.392 . S
C253 N252 1.331 . S
O254 Zn247 1.975 . S
O254 C255 1.252 . S
C255 O254 1.252 . S
C255 O256 1.252 . S
O256 Zn238 1.975 . S
O256 C255 1.252 . S
H257 C250 0.930 . S
H258 C251 0.930 . S
C259 C260 1.392 . S
C259 N263 1.328 1_545 S
C259 H265 0.930 . S
C260 C259 1.392 . S
C260 N264 1.331 . S
C261 C262 1.416 . S
C261 N264 1.329 . S
C261 H271 0.930 . S
C262 C261 1.416 . S
C262 N263 1.325 1_545 S
C262 H269 0.913 1_545 S
N263 Zn247 2.119 . S
N263 C259 1.328 1_565 S
N263 C262 1.325 1_565 S
N264 C260 1.331 . S
N264 C261 1.329 . S
H265 C259 0.930 . S
C266 O246 1.257 . S
C266 O267 1.244 . S
O267 C266 1.244 . S
O268 C244 1.257 . S
O268 Zn247 2.019 . S
H269 C262 0.913 1_565 S
H270 C249 0.930 . S
H271 C261 0.930 . S
H272 C284 0.930 . S
H273 C286 0.930 . S
H274 C287 0.930 . S
H275 C291 0.959 . S
H276 C291 0.959 . S
H277 C291 0.961 . S
H278 C292 0.960 . S
H279 C292 0.961 . S
H280 C292 0.959 . S
H281 C295 0.929 . S
H282 C296 0.931 . S
H283 C298 0.930 . S
C284 H272 0.930 . S
C284 C285 1.399 . S
C284 C289 1.399 . S
C285 C284 1.399 . S
C285 C286 1.376 . S
C286 H273 0.930 . S
C286 C285 1.376 . S
C286 C287 1.388 . S
C287 H274 0.930 . S
C287 C286 1.388 . S
C287 C288 1.390 . S
C288 C287 1.390 . S
C288 C289 1.394 . S
C288 C294 1.465 . S
C289 C284 1.399 . S
C289 C288 1.394 . S
C289 C290 1.516 . S
C290 C289 1.516 . S
C290 C291 1.502 . S
C290 C292 1.561 . S
C290 C293 1.526 . S
C291 H275 0.959 . S
C291 H276 0.959 . S
C291 H277 0.961 . S
C291 C290 1.502 . S
C292 H278 0.960 . S
C292 H279 0.961 . S
C292 H280 0.959 . S
C292 C290 1.561 . S
C293 C290 1.526 . S
C293 C294 1.396 . S
C293 C298 1.390 . S
C294 C288 1.465 . S
C294 C293 1.396 . S
C294 C295 1.399 . S
C295 H281 0.929 . S
C295 C294 1.399 . S
C295 C296 1.385 . S
C296 H282 0.931 . S
C296 C295 1.385 . S
C296 C297 1.389 . S
C297 C296 1.389 . S
C297 C298 1.387 . S
C298 H283 0.930 . S
C298 C293 1.390 . S
C298 C297 1.387 . S
H299 C311 0.930 . S
H300 C313 0.930 1_655 S
H301 C314 0.930 . S
H302 C318 0.959 . S
H303 C318 0.959 . S
H304 C318 0.961 . S
H305 C319 0.960 . S
H306 C319 0.961 . S
H307 C319 0.959 . S
H308 C322 0.929 . S
H309 C323 0.931 . S
H310 C325 0.930 . S
C311 H299 0.930 . S
C311 C312 1.399 . S
C311 C316 1.399 . S
C312 C311 1.399 . S
C312 C313 1.376 . S
C313 H300 0.930 1_455 S
C313 C312 1.376 . S
C313 C314 1.388 . S
C314 H301 0.930 . S
C314 C313 1.388 . S
C314 C315 1.390 . S
C315 C314 1.390 . S
C315 C316 1.394 . S
C315 C321 1.465 . S
C316 C311 1.399 . S
C316 C315 1.394 . S
C316 C317 1.516 . S
C317 C316 1.516 . S
C317 C318 1.502 . S
C317 C319 1.561 . S
C317 C320 1.526 . S
C318 H302 0.959 . S
C318 H303 0.959 . S
C318 H304 0.961 . S
C318 C317 1.502 . S
C319 H305 0.960 . S
C319 H306 0.961 . S
C319 H307 0.959 . S
C319 C317 1.561 . S
C320 C317 1.526 . S
C320 C321 1.396 . S
C320 C325 1.390 . S
C321 C315 1.465 . S
C321 C320 1.396 . S
C321 C322 1.399 . S
C322 H308 0.929 . S
C322 C321 1.399 . S
C322 C323 1.385 . S
C323 H309 0.931 . S
C323 C322 1.385 . S
C323 C324 1.389 . S
C324 C323 1.389 . S
C324 C325 1.387 . S
C325 H310 0.930 . S
C325 C320 1.390 . S
C325 C324 1.387 . S
H326 C338 0.930 . S
H327 C340 0.930 . S
H328 C341 0.930 . S
H329 C345 0.959 . S
H330 C345 0.959 . S
H331 C345 0.961 . S
H332 C346 0.960 . S
H333 C346 0.961 . S
H334 C346 0.959 . S
H335 C349 0.929 . S
H336 C350 0.931 . S
H337 C352 0.936 . S
C338 H326 0.930 . S
C338 C339 1.399 1_554 S
C338 C343 1.399 . S
C339 C338 1.399 1_556 S
C339 C340 1.376 . S
C340 H327 0.930 . S
C340 C339 1.376 . S
C340 C341 1.388 . S
C341 H328 0.930 . S
C341 C340 1.388 . S
C341 C342 1.390 . S
C342 C341 1.390 . S
C342 C343 1.394 1_556 S
C342 C348 1.465 . S
C343 C338 1.399 . S
C343 C342 1.394 1_554 S
C343 C344 1.516 . S
C344 C343 1.516 . S
C344 C345 1.502 . S
C344 C346 1.561 . S
C344 C347 1.526 1_554 S
C345 H329 0.959 . S
C345 H330 0.959 . S
C345 H331 0.961 . S
C345 C344 1.502 . S
C346 H332 0.960 . S
C346 H333 0.961 . S
C346 H334 0.959 . S
C346 C344 1.561 . S
C347 C344 1.526 1_556 S
C347 C348 1.396 . S
C347 C352 1.389 1_556 S
C348 C342 1.465 . S
C348 C347 1.396 . S
C348 C349 1.399 . S
C349 H335 0.929 . S
C349 C348 1.399 . S
C349 C350 1.385 . S
C350 H336 0.931 . S
C350 C349 1.385 . S
C350 C351 1.389 . S
C351 C350 1.389 . S
C351 C352 1.381 1_556 S
C352 H337 0.936 . S
C352 C347 1.389 1_554 S
C352 C351 1.381 1_554 S
H353 C365 0.930 . S
H354 C367 0.930 . S
H355 C368 0.930 . S
H356 C372 0.959 . S
H357 C372 0.959 . S
H358 C372 0.961 . S
H359 C373 0.960 . S
H360 C373 0.961 . S
H361 C373 0.959 . S
H362 C376 0.929 . S
H363 C377 0.931 . S
H364 C379 0.930 . S
C365 H353 0.930 . S
C365 C366 1.399 . S
C365 C370 1.399 . S
C366 C365 1.399 . S
C366 C367 1.376 . S
C367 H354 0.930 . S
C367 C366 1.376 . S
C367 C368 1.388 . S
C368 H355 0.930 . S
C368 C367 1.388 . S
C368 C369 1.390 . S
C369 C368 1.390 . S
C369 C370 1.394 . S
C369 C375 1.465 . S
C370 C365 1.399 . S
C370 C369 1.394 . S
C370 C371 1.516 . S
C371 C370 1.516 . S
C371 C372 1.502 . S
C371 C373 1.561 . S
C371 C374 1.526 . S
C372 H356 0.959 . S
C372 H357 0.959 . S
C372 H358 0.961 . S
C372 C371 1.502 . S
C373 H359 0.960 . S
C373 H360 0.961 . S
C373 H361 0.959 . S
C373 C371 1.561 . S
C374 C371 1.526 . S
C374 C375 1.396 . S
C374 C379 1.390 . S
C375 C369 1.465 . S
C375 C374 1.396 . S
C375 C376 1.399 . S
C376 H362 0.929 . S
C376 C375 1.399 . S
C376 C377 1.385 . S
C377 H363 0.931 . S
C377 C376 1.385 . S
C377 C378 1.389 . S
C378 C377 1.389 . S
C378 C379 1.387 . S
C379 H364 0.930 . S
C379 C374 1.390 . S
C379 C378 1.387 . S
H380 C392 0.930 . S
H381 C394 0.930 . S
H382 C395 0.930 . S
H383 C399 0.959 . S
H384 C399 0.959 . S
H385 C399 0.961 . S
H386 C400 0.960 . S
H387 C400 0.961 . S
H388 C400 0.959 . S
H389 C403 0.929 . S
H390 C404 0.931 . S
H391 C406 0.930 . S
C392 H380 0.930 . S
C392 C393 1.399 . S
C392 C397 1.399 . S
C393 C392 1.399 . S
C393 C394 1.376 . S
C394 H381 0.930 . S
C394 C393 1.376 . S
C394 C395 1.388 . S
C395 H382 0.930 . S
C395 C394 1.388 . S
C395 C396 1.390 . S
C396 C395 1.390 . S
C396 C397 1.394 . S
C396 C402 1.465 . S
C397 C392 1.399 . S
C397 C396 1.394 . S
C397 C398 1.516 . S
C398 C397 1.516 . S
C398 C399 1.502 . S
C398 C400 1.561 . S
C398 C401 1.526 . S
C399 H383 0.959 . S
C399 H384 0.959 . S
C399 H385 0.961 . S
C399 C398 1.502 . S
C400 H386 0.960 . S
C400 H387 0.961 . S
C400 H388 0.959 . S
C400 C398 1.561 . S
C401 C398 1.526 . S
C401 C402 1.396 . S
C401 C406 1.390 . S
C402 C396 1.465 . S
C402 C401 1.396 . S
C402 C403 1.399 . S
C403 H389 0.929 . S
C403 C402 1.399 . S
C403 C404 1.385 . S
C404 H390 0.931 . S
C404 C403 1.385 . S
C404 C405 1.389 . S
C405 C404 1.389 . S
C405 C406 1.387 . S
C406 H391 0.930 . S
C406 C401 1.390 . S
C406 C405 1.387 . S
H407 C419 0.930 . S
H408 C421 0.930 . S
H409 C422 0.930 . S
H410 C426 0.959 . S
H411 C426 0.959 . S
H412 C426 0.961 . S
H413 C427 0.960 . S
H414 C427 0.961 . S
H415 C427 0.959 . S
H416 C430 0.929 . S
H417 C431 0.931 . S
H418 C433 0.930 . S
C419 H407 0.930 . S
C419 C420 1.399 . S
C419 C424 1.399 . S
C420 C419 1.399 . S
C420 C421 1.376 . S
C421 H408 0.930 . S
C421 C420 1.376 . S
C421 C422 1.388 . S
C422 H409 0.930 . S
C422 C421 1.388 . S
C422 C423 1.390 . S
C423 C422 1.390 . S
C423 C424 1.394 . S
C423 C429 1.465 . S
C424 C419 1.399 . S
C424 C423 1.394 . S
C424 C425 1.516 . S
C425 C424 1.516 . S
C425 C426 1.502 . S
C425 C427 1.561 . S
C425 C428 1.526 . S
C426 H410 0.959 . S
C426 H411 0.959 . S
C426 H412 0.961 . S
C426 C425 1.502 . S
C427 H413 0.960 . S
C427 H414 0.961 . S
C427 H415 0.959 . S
C427 C425 1.561 . S
C428 C425 1.526 . S
C428 C429 1.396 . S
C428 C433 1.390 . S
C429 C423 1.465 . S
C429 C428 1.396 . S
C429 C430 1.399 . S
C430 H416 0.929 . S
C430 C429 1.399 . S
C430 C431 1.385 . S
C431 H417 0.931 . S
C431 C430 1.385 . S
C431 C432 1.389 . S
C432 C431 1.389 . S
C432 C433 1.387 . S
C433 H418 0.930 . S
C433 C428 1.390 . S
C433 C432 1.387 . S
H434 C446 0.930 . S
H435 C448 0.930 1_545 S
H436 C449 0.930 . S
H437 C453 0.959 . S
H438 C453 0.959 . S
H439 C453 0.961 . S
H440 C454 0.960 . S
H441 C454 0.961 . S
H442 C454 0.959 . S
H443 C457 0.929 . S
H444 C458 0.931 . S
H445 C460 0.930 . S
C446 H434 0.930 . S
C446 C447 1.399 . S
C446 C451 1.399 . S
C447 C446 1.399 . S
C447 C448 1.376 . S
C448 H435 0.930 1_565 S
C448 C447 1.376 . S
C448 C449 1.388 . S
C449 H436 0.930 . S
C449 C448 1.388 . S
C449 C450 1.390 . S
C450 C449 1.390 . S
C450 C451 1.394 . S
C450 C456 1.465 . S
C451 C446 1.399 . S
C451 C450 1.394 . S
C451 C452 1.516 . S
C452 C451 1.516 . S
C452 C453 1.502 . S
C452 C454 1.561 . S
C452 C455 1.526 . S
C453 H437 0.959 . S
C453 H438 0.959 . S
C453 H439 0.961 . S
C453 C452 1.502 . S
C454 H440 0.960 . S
C454 H441 0.961 . S
C454 H442 0.959 . S
C454 C452 1.561 . S
C455 C452 1.526 . S
C455 C456 1.396 . S
C455 C460 1.390 . S
C456 C450 1.465 . S
C456 C455 1.396 . S
C456 C457 1.399 . S
C457 H443 0.929 . S
C457 C456 1.399 . S
C457 C458 1.385 . S
C458 H444 0.931 . S
C458 C457 1.385 . S
C458 C459 1.389 . S
C459 C458 1.389 . S
C459 C460 1.387 . S
C460 H445 0.930 . S
C460 C455 1.390 . S
C460 C459 1.387 . S
H461 C473 0.930 1_556 S
H462 C475 0.930 . S
H463 C476 0.930 . S
H464 C480 0.959 . S
H465 C480 0.959 . S
H466 C480 0.961 . S
H467 C481 0.960 . S
H468 C481 0.961 . S
H469 C481 0.959 . S
H470 C484 0.929 . S
H471 C485 0.931 . S
H472 C487 0.930 . S
C473 H461 0.930 1_554 S
C473 C474 1.399 . S
C473 C478 1.399 . S
C474 C473 1.399 . S
C474 C475 1.376 . S
C475 H462 0.930 . S
C475 C474 1.376 . S
C475 C476 1.388 . S
C476 H463 0.930 . S
C476 C475 1.388 . S
C476 C477 1.390 . S
C477 C476 1.390 . S
C477 C478 1.394 . S
C477 C483 1.465 . S
C478 C473 1.399 . S
C478 C477 1.394 . S
C478 C479 1.516 1_554 S
C479 C478 1.516 1_556 S
C479 C480 1.502 . S
C479 C481 1.561 . S
C479 C482 1.526 . S
C480 H464 0.959 . S
C480 H465 0.959 . S
C480 H466 0.961 . S
C480 C479 1.502 . S
C481 H467 0.960 . S
C481 H468 0.961 . S
C481 H469 0.959 . S
C481 C479 1.561 . S
C482 C479 1.526 . S
C482 C483 1.396 1_556 S
C482 C487 1.390 . S
C483 C477 1.465 . S
C483 C482 1.396 1_554 S
C483 C484 1.399 . S
C484 H470 0.929 . S
C484 C483 1.399 . S
C484 C485 1.385 . S
C485 H471 0.931 . S
C485 C484 1.385 . S
C485 C486 1.389 . S
C486 C485 1.389 . S
C486 C487 1.387 1_554 S
C487 H472 0.930 . S
C487 C482 1.390 . S
C487 C486 1.387 1_556 S
H488 C500 0.930 . S
H489 C502 0.930 . S
H490 C503 0.930 1_554 S
H491 C507 0.959 . S
H492 C507 0.959 . S
H493 C507 0.961 . S
H494 C508 0.960 . S
H495 C508 0.961 . S
H496 C508 0.959 . S
H497 C511 0.929 . S
H498 C512 0.931 . S
H499 C514 0.930 . S
C500 H488 0.930 . S
C500 C501 1.399 . S
C500 C505 1.399 . S
C501 C500 1.399 . S
C501 C502 1.376 . S
C502 H489 0.930 . S
C502 C501 1.376 . S
C502 C503 1.388 . S
C503 H490 0.930 1_556 S
C503 C502 1.388 . S
C503 C504 1.390 . S
C504 C503 1.390 . S
C504 C505 1.394 . S
C504 C510 1.465 1_556 S
C505 C500 1.399 . S
C505 C504 1.394 . S
C505 C506 1.516 . S
C506 C505 1.516 . S
C506 C507 1.502 . S
C506 C508 1.561 . S
C506 C509 1.526 1_556 S
C507 H491 0.959 . S
C507 H492 0.959 . S
C507 H493 0.961 . S
C507 C506 1.502 . S
C508 H494 0.960 . S
C508 H495 0.961 . S
C508 H496 0.959 . S
C508 C506 1.561 . S
C509 C506 1.526 1_554 S
C509 C510 1.396 . S
C509 C514 1.390 . S
C510 C504 1.465 1_554 S
C510 C509 1.396 . S
C510 C511 1.399 . S
C511 H497 0.929 . S
C511 C510 1.399 . S
C511 C512 1.385 . S
C512 H498 0.931 . S
C512 C511 1.385 . S
C512 C513 1.389 . S
C513 C512 1.389 . S
C513 C514 1.387 . S
C514 H499 0.930 . S
C514 C509 1.390 . S
C514 C513 1.387 . S
H515 C527 0.930 . S
H516 C529 0.930 . S
H517 C530 0.930 . S
H518 C534 0.959 . S
H519 C534 0.959 . S
H520 C534 0.961 . S
H521 C535 0.960 . S
H522 C535 0.961 . S
H523 C535 0.959 . S
H524 C538 0.929 . S
H525 C539 0.931 . S
H526 C541 0.930 . S
C527 H515 0.930 . S
C527 C528 1.399 . S
C527 C532 1.399 . S
C528 C527 1.399 . S
C528 C529 1.376 . S
C529 H516 0.930 . S
C529 C528 1.376 . S
C529 C530 1.388 . S
C530 H517 0.930 . S
C530 C529 1.388 . S
C530 C531 1.390 . S
C531 C530 1.390 . S
C531 C532 1.394 . S
C531 C537 1.465 . S
C532 C527 1.399 . S
C532 C531 1.394 . S
C532 C533 1.516 . S
C533 C532 1.516 . S
C533 C534 1.502 . S
C533 C535 1.561 . S
C533 C536 1.526 . S
C534 H518 0.959 . S
C534 H519 0.959 . S
C534 H520 0.961 . S
C534 C533 1.502 . S
C535 H521 0.960 . S
C535 H522 0.961 . S
C535 H523 0.959 . S
C535 C533 1.561 . S
C536 C533 1.526 . S
C536 C537 1.396 . S
C536 C541 1.390 . S
C537 C531 1.465 . S
C537 C536 1.396 . S
C537 C538 1.399 . S
C538 H524 0.929 . S
C538 C537 1.399 . S
C538 C539 1.385 . S
C539 H525 0.931 . S
C539 C538 1.385 . S
C539 C540 1.389 . S
C540 C539 1.389 . S
C540 C541 1.387 . S
C541 H526 0.930 . S
C541 C536 1.390 . S
C541 C540 1.387 . S
H542 C554 0.930 . S
H543 C556 0.930 . S
H544 C557 0.930 . S
H545 C561 0.959 . S
H546 C561 0.959 . S
H547 C561 0.961 . S
H548 C562 0.960 . S
H549 C562 0.961 . S
H550 C562 0.959 . S
H551 C565 0.929 . S
H552 C566 0.931 . S
H553 C568 0.930 . S
C554 H542 0.930 . S
C554 C555 1.399 . S
C554 C559 1.399 . S
C555 C554 1.399 . S
C555 C556 1.376 . S
C556 H543 0.930 . S
C556 C555 1.376 . S
C556 C557 1.388 . S
C557 H544 0.930 . S
C557 C556 1.388 . S
C557 C558 1.390 . S
C558 C557 1.390 . S
C558 C559 1.394 . S
C558 C564 1.465 . S
C559 C554 1.399 . S
C559 C558 1.394 . S
C559 C560 1.516 . S
C560 C559 1.516 . S
C560 C561 1.502 . S
C560 C562 1.561 . S
C560 C563 1.526 . S
C561 H545 0.959 . S
C561 H546 0.959 . S
C561 H547 0.961 . S
C561 C560 1.502 . S
C562 H548 0.960 . S
C562 H549 0.961 . S
C562 H550 0.959 . S
C562 C560 1.561 . S
C563 C560 1.526 . S
C563 C564 1.396 . S
C563 C568 1.390 . S
C564 C558 1.465 . S
C564 C563 1.396 . S
C564 C565 1.399 . S
C565 H551 0.929 . S
C565 C564 1.399 . S
C565 C566 1.385 . S
C566 H552 0.931 . S
C566 C565 1.385 . S
C566 C567 1.389 . S
C567 C566 1.389 . S
C567 C568 1.387 . S
C568 H553 0.930 . S
C568 C563 1.390 . S
C568 C567 1.387 . S
H569 C581 0.930 . S
H570 C583 0.930 . S
H571 C584 0.930 . S
H572 C588 0.959 . S
H573 C588 0.959 . S
H574 C588 0.961 . S
H575 C589 0.960 . S
H576 C589 0.961 . S
H577 C589 0.959 . S
H578 C592 0.929 . S
H579 C593 0.931 . S
H580 C595 0.930 . S
C581 H569 0.930 . S
C581 C582 1.399 . S
C581 C586 1.399 . S
C582 C581 1.399 . S
C582 C583 1.376 . S
C583 H570 0.930 . S
C583 C582 1.376 . S
C583 C584 1.388 . S
C584 H571 0.930 . S
C584 C583 1.388 . S
C584 C585 1.390 . S
C585 C584 1.390 . S
C585 C586 1.394 . S
C585 C591 1.465 . S
C586 C581 1.399 . S
C586 C585 1.394 . S
C586 C587 1.516 . S
C587 C586 1.516 . S
C587 C588 1.502 . S
C587 C589 1.561 . S
C587 C590 1.526 . S
C588 H572 0.959 . S
C588 H573 0.959 . S
C588 H574 0.961 . S
C588 C587 1.502 . S
C589 H575 0.960 . S
C589 H576 0.961 . S
C589 H577 0.959 . S
C589 C587 1.561 . S
C590 C587 1.526 . S
C590 C591 1.396 . S
C590 C595 1.390 . S
C591 C585 1.465 . S
C591 C590 1.396 . S
C591 C592 1.399 . S
C592 H578 0.929 . S
C592 C591 1.399 . S
C592 C593 1.385 . S
C593 H579 0.931 . S
C593 C592 1.385 . S
C593 C594 1.389 . S
C594 C593 1.389 . S
C594 C595 1.387 . S
C595 H580 0.930 . S
C595 C590 1.390 . S
C595 C594 1.387 . S
H596 C608 0.930 . S
H597 C610 0.930 . S
H598 C611 0.930 . S
H599 C615 0.959 1_655 S
H600 C615 0.958 1_655 S
H601 C615 0.954 1_655 S
H602 C616 0.960 . S
H603 C616 0.961 . S
H604 C616 0.959 . S
H605 C619 0.929 . S
H606 C620 0.931 1_554 S
H607 C622 0.930 . S
C608 H596 0.930 . S
C608 C609 1.399 . S
C608 C613 1.399 . S
C609 C608 1.399 . S
C609 C610 1.376 . S
C610 H597 0.930 . S
C610 C609 1.376 . S
C610 C611 1.388 . S
C611 H598 0.930 . S
C611 C610 1.388 . S
C611 C612 1.390 . S
C612 C611 1.390 . S
C612 C613 1.394 . S
C612 C618 1.465 . S
C613 C608 1.399 . S
C613 C612 1.394 . S
C613 C614 1.516 . S
C614 C613 1.516 . S
C614 C615 1.502 . S
C614 C616 1.561 . S
C614 C617 1.526 . S
C615 H599 0.959 1_455 S
C615 H600 0.958 1_455 S
C615 H601 0.954 1_455 S
C615 C614 1.502 . S
C616 H602 0.960 . S
C616 H603 0.961 . S
C616 H604 0.959 . S
C616 C614 1.561 . S
C617 C614 1.526 . S
C617 C618 1.396 . S
C617 C622 1.390 . S
C618 C612 1.465 . S
C618 C617 1.396 . S
C618 C619 1.399 . S
C619 H605 0.929 . S
C619 C618 1.399 . S
C619 C620 1.385 . S
C620 H606 0.931 1_556 S
C620 C619 1.385 . S
C620 C621 1.389 1_556 S
C621 C620 1.389 1_554 S
C621 C622 1.387 1_554 S
C622 H607 0.930 . S
C622 C617 1.390 . S
C622 C621 1.387 1_556 S
H623 C635 0.930 . S
H624 C637 0.930 . S
H625 C638 0.930 . S
H626 C642 0.959 . S
H627 C642 0.959 . S
H628 C642 0.961 . S
H629 C643 0.960 . S
H630 C643 0.961 . S
H631 C643 0.959 . S
H632 C646 0.929 1_554 S
H633 C647 0.931 . S
H634 C649 0.930 . S
C635 H623 0.930 . S
C635 C636 1.399 . S
C635 C640 1.399 . S
C636 C635 1.399 . S
C636 C637 1.376 . S
C637 H624 0.930 . S
C637 C636 1.376 . S
C637 C638 1.388 . S
C638 H625 0.930 . S
C638 C637 1.388 . S
C638 C639 1.390 . S
C639 C638 1.390 . S
C639 C640 1.394 . S
C639 C645 1.465 . S
C640 C635 1.399 . S
C640 C639 1.394 . S
C640 C641 1.516 . S
C641 C640 1.516 . S
C641 C642 1.502 . S
C641 C643 1.561 . S
C641 C644 1.526 . S
C642 H626 0.959 . S
C642 H627 0.959 . S
C642 H628 0.961 . S
C642 C641 1.502 . S
C643 H629 0.960 . S
C643 H630 0.961 . S
C643 H631 0.959 . S
C643 C641 1.561 . S
C644 C641 1.526 . S
C644 C645 1.396 . S
C644 C649 1.390 1_554 S
C645 C639 1.465 . S
C645 C644 1.396 . S
C645 C646 1.399 1_554 S
C646 H632 0.929 1_556 S
C646 C645 1.399 1_556 S
C646 C647 1.385 . S
C647 H633 0.931 . S
C647 C646 1.385 . S
C647 C648 1.389 . S
C648 C647 1.389 . S
C648 C649 1.387 . S
C649 H634 0.930 . S
C649 C644 1.390 1_556 S
C649 C648 1.387 . S
H650 C662 0.930 . S
H651 C664 0.930 . S
H652 C665 0.930 . S
H653 C669 0.959 1_455 S
H654 C669 0.959 . S
H655 C669 0.961 . S
H656 C670 0.960 . S
H657 C670 0.961 . S
H658 C670 0.959 . S
H659 C673 0.929 . S
H660 C674 0.931 . S
H661 C676 0.930 . S
C662 H650 0.930 . S
C662 C663 1.399 . S
C662 C667 1.399 . S
C663 C662 1.399 . S
C663 C664 1.376 . S
C664 H651 0.930 . S
C664 C663 1.376 . S
C664 C665 1.388 . S
C665 H652 0.930 . S
C665 C664 1.388 . S
C665 C666 1.390 . S
C666 C665 1.390 . S
C666 C667 1.394 . S
C666 C672 1.465 . S
C667 C662 1.399 . S
C667 C666 1.394 . S
C667 C668 1.516 . S
C668 C667 1.516 . S
C668 C669 1.502 . S
C668 C670 1.561 . S
C668 C671 1.526 . S
C669 H653 0.959 1_655 S
C669 H654 0.959 . S
C669 H655 0.961 . S
C669 C668 1.502 . S
C670 H656 0.960 . S
C670 H657 0.961 . S
C670 H658 0.959 . S
C670 C668 1.561 . S
C671 C668 1.526 . S
C671 C672 1.396 . S
C671 C676 1.390 . S
C672 C666 1.465 . S
C672 C671 1.396 . S
C672 C673 1.399 . S
C673 H659 0.929 . S
C673 C672 1.399 . S
C673 C674 1.385 . S
C674 H660 0.931 . S
C674 C673 1.385 . S
C674 C675 1.389 . S
C675 C674 1.389 . S
C675 C676 1.387 . S
C676 H661 0.930 . S
C676 C671 1.390 . S
C676 C675 1.387 . S
H677 C689 0.930 . S
H678 C691 0.930 . S
H679 C692 0.930 . S
H680 C696 0.959 . S
H681 C696 0.959 . S
H682 C696 0.961 . S
H683 C697 0.960 . S
H684 C697 0.961 . S
H685 C697 0.959 . S
H686 C700 0.929 . S
H687 C701 0.931 . S
H688 C703 0.930 . S
C689 H677 0.930 . S
C689 C690 1.399 . S
C689 C694 1.399 . S
C690 C689 1.399 . S
C690 C691 1.376 . S
C691 H678 0.930 . S
C691 C690 1.376 . S
C691 C692 1.388 . S
C692 H679 0.930 . S
C692 C691 1.388 . S
C692 C693 1.390 . S
C693 C692 1.390 . S
C693 C694 1.394 . S
C693 C699 1.465 . S
C694 C689 1.399 . S
C694 C693 1.394 . S
C694 C695 1.516 . S
C695 C694 1.516 . S
C695 C696 1.502 . S
C695 C697 1.561 . S
C695 C698 1.526 . S
C696 H680 0.959 . S
C696 H681 0.959 . S
C696 H682 0.961 . S
C696 C695 1.502 . S
C697 H683 0.960 . S
C697 H684 0.961 . S
C697 H685 0.959 . S
C697 C695 1.561 . S
C698 C695 1.526 . S
C698 C699 1.396 . S
C698 C703 1.390 . S
C699 C693 1.465 . S
C699 C698 1.396 . S
C699 C700 1.399 . S
C700 H686 0.929 . S
C700 C699 1.399 . S
C700 C701 1.385 . S
C701 H687 0.931 . S
C701 C700 1.385 . S
C701 C702 1.389 . S
C702 C701 1.389 . S
C702 C703 1.387 . S
C703 H688 0.930 . S
C703 C698 1.390 . S
C703 C702 1.387 . S
H704 C716 0.930 . S
H705 C718 0.930 . S
H706 C719 0.930 . S
H707 C723 0.959 . S
H708 C723 0.959 . S
H709 C723 0.961 . S
H710 C724 0.960 . S
H711 C724 0.961 . S
H712 C724 0.959 . S
H713 C727 0.929 . S
H714 C728 0.931 . S
H715 C730 0.930 . S
C716 H704 0.930 . S
C716 C717 1.399 . S
C716 C721 1.399 1_554 S
C717 C716 1.399 . S
C717 C718 1.376 . S
C718 H705 0.930 . S
C718 C717 1.376 . S
C718 C719 1.388 1_554 S
C719 H706 0.930 . S
C719 C718 1.388 1_556 S
C719 C720 1.390 . S
C720 C719 1.390 . S
C720 C721 1.394 . S
C720 C726 1.465 . S
C721 C716 1.399 1_556 S
C721 C720 1.394 . S
C721 C722 1.516 . S
C722 C721 1.516 . S
C722 C723 1.502 . S
C722 C724 1.561 . S
C722 C725 1.526 . S
C723 H707 0.959 . S
C723 H708 0.959 . S
C723 H709 0.961 . S
C723 C722 1.502 . S
C724 H710 0.960 . S
C724 H711 0.961 . S
C724 H712 0.959 . S
C724 C722 1.561 . S
C725 C722 1.526 . S
C725 C726 1.396 . S
C725 C730 1.390 . S
C726 C720 1.465 . S
C726 C725 1.396 . S
C726 C727 1.399 . S
C727 H713 0.929 . S
C727 C726 1.399 . S
C727 C728 1.385 . S
C728 H714 0.931 . S
C728 C727 1.385 . S
C728 C729 1.389 . S
C729 C728 1.389 . S
C729 C730 1.387 . S
C730 H715 0.930 . S
C730 C725 1.390 . S
C730 C729 1.387 . S
H731 C743 0.930 . S
H732 C745 0.930 . S
H733 C746 0.930 1_565 S
H734 C750 0.959 . S
H735 C750 0.959 . S
H736 C750 0.961 . S
H737 C751 0.960 . S
H738 C751 0.961 . S
H739 C751 0.959 . S
H740 C754 0.929 1_565 S
H741 C755 0.931 1_556 S
H742 C757 0.930 . S
C743 H731 0.930 . S
C743 C744 1.399 . S
C743 C748 1.399 . S
C744 C743 1.399 . S
C744 C745 1.376 . S
C745 H732 0.930 . S
C745 C744 1.376 . S
C745 C746 1.388 . S
C746 H733 0.930 1_545 S
C746 C745 1.388 . S
C746 C747 1.390 . S
C747 C746 1.390 . S
C747 C748 1.394 . S
C747 C753 1.465 . S
C748 C743 1.399 . S
C748 C747 1.394 . S
C748 C749 1.516 . S
C749 C748 1.516 . S
C749 C750 1.502 . S
C749 C751 1.561 . S
C749 C752 1.526 . S
C750 H734 0.959 . S
C750 H735 0.959 . S
C750 H736 0.961 . S
C750 C749 1.502 . S
C751 H737 0.960 . S
C751 H738 0.961 . S
C751 H739 0.959 . S
C751 C749 1.561 . S
C752 C749 1.526 . S
C752 C753 1.396 . S
C752 C757 1.390 . S
C753 C747 1.465 . S
C753 C752 1.396 . S
C753 C754 1.399 . S
C754 H740 0.929 1_545 S
C754 C753 1.399 . S
C754 C755 1.385 . S
C755 H741 0.931 1_554 S
C755 C754 1.385 . S
C755 C756 1.389 1_554 S
C756 C755 1.389 1_556 S
C756 C757 1.387 1_556 S
C757 H742 0.930 . S
C757 C752 1.390 . S
C757 C756 1.387 1_554 S
H758 C770 0.930 . S
H759 C772 0.930 . S
H760 C773 0.930 . S
H761 C777 0.959 . S
H762 C777 0.959 . S
H763 C777 0.961 . S
H764 C778 0.960 . S
H765 C778 0.961 . S
H766 C778 0.959 . S
H767 C781 0.929 . S
H768 C782 0.931 . S
H769 C784 0.930 . S
C770 H758 0.930 . S
C770 C771 1.399 . S
C770 C775 1.399 . S
C771 C770 1.399 . S
C771 C772 1.376 . S
C772 H759 0.930 . S
C772 C771 1.376 . S
C772 C773 1.388 . S
C773 H760 0.930 . S
C773 C772 1.388 . S
C773 C774 1.390 . S
C774 C773 1.390 . S
C774 C775 1.394 . S
C774 C780 1.465 . S
C775 C770 1.399 . S
C775 C774 1.394 . S
C775 C776 1.516 . S
C776 C775 1.516 . S
C776 C777 1.502 . S
C776 C778 1.561 . S
C776 C779 1.526 . S
C777 H761 0.959 . S
C777 H762 0.959 . S
C777 H763 0.961 . S
C777 C776 1.502 . S
C778 H764 0.960 . S
C778 H765 0.961 . S
C778 H766 0.959 . S
C778 C776 1.561 . S
C779 C776 1.526 . S
C779 C780 1.396 . S
C779 C784 1.390 . S
C780 C774 1.465 . S
C780 C779 1.396 . S
C780 C781 1.399 . S
C781 H767 0.929 . S
C781 C780 1.399 . S
C781 C782 1.385 . S
C782 H768 0.931 . S
C782 C781 1.385 . S
C782 C783 1.389 . S
C783 C782 1.389 . S
C783 C784 1.387 . S
C784 H769 0.930 . S
C784 C779 1.390 . S
C784 C783 1.387 . S
H785 C797 0.930 . S
H786 C799 0.930 . S
H787 C800 0.930 . S
H788 C804 0.947 1_565 S
H789 C804 0.970 . S
H790 C804 0.968 . S
H791 C805 0.960 . S
H792 C805 0.961 . S
H793 C805 0.959 . S
H794 C808 0.929 . S
H795 C809 0.931 . S
H796 C811 0.930 . S
C797 H785 0.930 . S
C797 C798 1.399 . S
C797 C802 1.399 . S
C798 C797 1.399 . S
C798 C799 1.376 . S
C799 H786 0.930 . S
C799 C798 1.376 . S
C799 C800 1.388 . S
C800 H787 0.930 . S
C800 C799 1.388 . S
C800 C801 1.390 . S
C801 C800 1.390 . S
C801 C802 1.394 . S
C801 C807 1.465 . S
C802 C797 1.399 . S
C802 C801 1.394 . S
C802 C803 1.516 . S
C803 C802 1.516 . S
C803 C804 1.496 1_565 S
C803 C805 1.561 1_565 S
C803 C806 1.526 . S
C804 H788 0.947 1_545 S
C804 H789 0.970 . S
C804 H790 0.968 . S
C804 C803 1.496 1_545 S
C805 H791 0.960 . S
C805 H792 0.961 . S
C805 H793 0.959 . S
C805 C803 1.561 1_545 S
C806 C803 1.526 . S
C806 C807 1.396 . S
C806 C811 1.390 . S
C807 C801 1.465 . S
C807 C806 1.396 . S
C807 C808 1.399 . S
C808 H794 0.929 . S
C808 C807 1.399 . S
C808 C809 1.385 . S
C809 H795 0.931 . S
C809 C808 1.385 . S
C809 C810 1.389 . S
C810 C809 1.389 . S
C810 C811 1.387 . S
C811 H796 0.930 . S
C811 C806 1.390 . S
C811 C810 1.387 . S
H812 C824 0.930 . S
H813 C826 0.930 . S
H814 C827 0.930 . S
H815 C831 0.959 . S
H816 C831 0.959 . S
H817 C831 0.961 . S
H818 C832 0.960 . S
H819 C832 0.961 . S
H820 C832 0.959 . S
H821 C835 0.929 . S
H822 C836 0.931 . S
H823 C838 0.930 . S
C824 H812 0.930 . S
C824 C825 1.399 . S
C824 C829 1.399 . S
C825 C824 1.399 . S
C825 C826 1.376 . S
C826 H813 0.930 . S
C826 C825 1.376 . S
C826 C827 1.388 . S
C827 H814 0.930 . S
C827 C826 1.388 . S
C827 C828 1.390 . S
C828 C827 1.390 . S
C828 C829 1.394 . S
C828 C834 1.465 . S
C829 C824 1.399 . S
C829 C828 1.394 . S
C829 C830 1.516 . S
C830 C829 1.516 . S
C830 C831 1.502 . S
C830 C832 1.561 . S
C830 C833 1.526 . S
C831 H815 0.959 . S
C831 H816 0.959 . S
C831 H817 0.961 . S
C831 C830 1.502 . S
C832 H818 0.960 . S
C832 H819 0.961 . S
C832 H820 0.959 . S
C832 C830 1.561 . S
C833 C830 1.526 . S
C833 C834 1.396 . S
C833 C838 1.390 . S
C834 C828 1.465 . S
C834 C833 1.396 . S
C834 C835 1.399 . S
C835 H821 0.929 . S
C835 C834 1.399 . S
C835 C836 1.385 . S
C836 H822 0.931 . S
C836 C835 1.385 . S
C836 C837 1.389 . S
C837 C836 1.389 . S
C837 C838 1.387 . S
C838 H823 0.930 . S
C838 C833 1.390 . S
C838 C837 1.387 . S
H839 C851 0.930 . S
H840 C853 0.937 . S
H841 C854 0.930 . S
H842 C858 0.959 . S
H843 C858 0.959 . S
H844 C858 0.961 . S
H845 C859 0.960 . S
H846 C859 0.961 . S
H847 C859 0.959 . S
H848 C862 0.929 . S
H849 C863 0.931 . S
H850 C865 0.930 . S
C851 H839 0.930 . S
C851 C852 1.399 . S
C851 C856 1.399 . S
C852 C851 1.399 . S
C852 C853 1.376 . S
C853 H840 0.937 . S
C853 C852 1.376 . S
C853 C854 1.388 . S
C854 H841 0.930 . S
C854 C853 1.388 . S
C854 C855 1.390 . S
C855 C854 1.390 . S
C855 C856 1.394 . S
C855 C861 1.465 . S
C856 C851 1.399 . S
C856 C855 1.394 . S
C856 C857 1.516 . S
C857 C856 1.516 . S
C857 C858 1.502 . S
C857 C859 1.561 . S
C857 C860 1.526 . S
C858 H842 0.959 . S
C858 H843 0.959 . S
C858 H844 0.961 . S
C858 C857 1.502 . S
C859 H845 0.960 . S
C859 H846 0.961 . S
C859 H847 0.959 . S
C859 C857 1.561 . S
C860 C857 1.526 . S
C860 C861 1.396 . S
C860 C865 1.390 . S
C861 C855 1.465 . S
C861 C860 1.396 . S
C861 C862 1.399 . S
C862 H848 0.929 . S
C862 C861 1.399 . S
C862 C863 1.385 . S
C863 H849 0.931 . S
C863 C862 1.385 . S
C863 C864 1.389 . S
C864 C863 1.389 . S
C864 C865 1.387 . S
C865 H850 0.930 . S
C865 C860 1.390 . S
C865 C864 1.387 . S
H866 C878 0.930 . S
H867 C880 0.930 . S
H868 C881 0.930 . S
H869 C885 0.959 . S
H870 C885 0.959 . S
H871 C885 0.961 . S
H872 C886 0.960 . S
H873 C886 0.961 . S
H874 C886 0.959 . S
H875 C889 0.929 . S
H876 C890 0.931 . S
H877 C892 0.930 1_556 S
C878 H866 0.930 . S
C878 C879 1.399 . S
C878 C883 1.399 . S
C879 C878 1.399 . S
C879 C880 1.376 . S
C880 H867 0.930 . S
C880 C879 1.376 . S
C880 C881 1.388 1_556 S
C881 H868 0.930 . S
C881 C880 1.388 1_554 S
C881 C882 1.390 . S
C882 C881 1.390 . S
C882 C883 1.394 1_554 S
C882 C888 1.465 . S
C883 C878 1.399 . S
C883 C882 1.394 1_556 S
C883 C884 1.516 . S
C884 C883 1.516 . S
C884 C885 1.502 . S
C884 C886 1.561 . S
C884 C887 1.526 . S
C885 H869 0.959 . S
C885 H870 0.959 . S
C885 H871 0.961 . S
C885 C884 1.502 . S
C886 H872 0.960 . S
C886 H873 0.961 . S
C886 H874 0.959 . S
C886 C884 1.561 . S
C887 C884 1.526 . S
C887 C888 1.396 1_556 S
C887 C892 1.390 1_556 S
C888 C882 1.465 . S
C888 C887 1.396 1_554 S
C888 C889 1.399 . S
C889 H875 0.929 . S
C889 C888 1.399 . S
C889 C890 1.385 . S
C890 H876 0.931 . S
C890 C889 1.385 . S
C890 C891 1.389 . S
C891 C890 1.389 . S
C891 C892 1.387 . S
C892 H877 0.930 1_554 S
C892 C887 1.390 1_554 S
C892 C891 1.387 . S
H893 C905 0.930 . S
H894 C907 0.930 . S
H895 C908 0.930 . S
H896 C912 0.959 . S
H897 C912 0.959 . S
H898 C912 0.961 . S
H899 C913 0.960 . S
H900 C913 0.961 . S
H901 C913 0.959 . S
H902 C916 0.929 . S
H903 C917 0.931 . S
H904 C919 0.930 . S
C905 H893 0.930 . S
C905 C906 1.399 . S
C905 C910 1.399 . S
C906 C905 1.399 . S
C906 C907 1.376 . S
C907 H894 0.930 . S
C907 C906 1.376 . S
C907 C908 1.388 . S
C908 H895 0.930 . S
C908 C907 1.388 . S
C908 C909 1.390 . S
C909 C908 1.390 . S
C909 C910 1.394 . S
C909 C915 1.465 . S
C910 C905 1.399 . S
C910 C909 1.394 . S
C910 C911 1.516 . S
C911 C910 1.516 . S
C911 C912 1.502 . S
C911 C913 1.561 . S
C911 C914 1.526 . S
C912 H896 0.959 . S
C912 H897 0.959 . S
C912 H898 0.961 . S
C912 C911 1.502 . S
C913 H899 0.960 . S
C913 H900 0.961 . S
C913 H901 0.959 . S
C913 C911 1.561 . S
C914 C911 1.526 . S
C914 C915 1.396 . S
C914 C919 1.390 . S
C915 C909 1.465 . S
C915 C914 1.396 . S
C915 C916 1.399 . S
C916 H902 0.929 . S
C916 C915 1.399 . S
C916 C917 1.385 . S
C917 H903 0.931 . S
C917 C916 1.385 . S
C917 C918 1.389 . S
C918 C917 1.389 . S
C918 C919 1.387 . S
C919 H904 0.930 . S
C919 C914 1.390 . S
C919 C918 1.387 . S
H920 C932 0.930 . S
H921 C934 0.930 . S
H922 C935 0.930 . S
H923 C939 0.959 . S
H924 C939 0.959 . S
H925 C939 0.961 . S
H926 C940 0.960 . S
H927 C940 0.961 . S
H928 C940 0.959 . S
H929 C943 0.929 . S
H930 C944 0.931 . S
H931 C946 0.930 . S
C932 H920 0.930 . S
C932 C933 1.399 . S
C932 C937 1.399 . S
C933 C932 1.399 . S
C933 C934 1.376 . S
C934 H921 0.930 . S
C934 C933 1.376 . S
C934 C935 1.388 . S
C935 H922 0.930 . S
C935 C934 1.388 . S
C935 C936 1.390 . S
C936 C935 1.390 . S
C936 C937 1.394 . S
C936 C942 1.465 . S
C937 C932 1.399 . S
C937 C936 1.394 . S
C937 C938 1.516 . S
C938 C937 1.516 . S
C938 C939 1.502 . S
C938 C940 1.561 . S
C938 C941 1.526 . S
C939 H923 0.959 . S
C939 H924 0.959 . S
C939 H925 0.961 . S
C939 C938 1.502 . S
C940 H926 0.960 . S
C940 H927 0.961 . S
C940 H928 0.959 . S
C940 C938 1.561 . S
C941 C938 1.526 . S
C941 C942 1.396 . S
C941 C946 1.390 . S
C942 C936 1.465 . S
C942 C941 1.396 . S
C942 C943 1.399 . S
C943 H929 0.929 . S
C943 C942 1.399 . S
C943 C944 1.385 . S
C944 H930 0.931 . S
C944 C943 1.385 . S
C944 C945 1.389 . S
C945 C944 1.389 . S
C945 C946 1.387 . S
C946 H931 0.930 . S
C946 C941 1.390 . S
C946 C945 1.387 . S
H947 C959 0.930 . S
H948 C961 0.930 . S
H949 C962 0.930 . S
H950 C966 0.959 . S
H951 C966 0.959 . S
H952 C966 0.961 . S
H953 C967 0.960 . S
H954 C967 0.961 . S
H955 C967 0.959 . S
H956 C970 0.929 . S
H957 C971 0.931 . S
H958 C973 0.930 . S
C959 H947 0.930 . S
C959 C960 1.399 . S
C959 C964 1.399 . S
C960 C959 1.399 . S
C960 C961 1.376 . S
C961 H948 0.930 . S
C961 C960 1.376 . S
C961 C962 1.388 . S
C962 H949 0.930 . S
C962 C961 1.388 . S
C962 C963 1.390 . S
C963 C962 1.390 . S
C963 C964 1.394 . S
C963 C969 1.465 . S
C964 C959 1.399 . S
C964 C963 1.394 . S
C964 C965 1.516 . S
C965 C964 1.516 . S
C965 C966 1.502 . S
C965 C967 1.561 . S
C965 C968 1.526 . S
C966 H950 0.959 . S
C966 H951 0.959 . S
C966 H952 0.961 . S
C966 C965 1.502 . S
C967 H953 0.960 . S
C967 H954 0.961 . S
C967 H955 0.959 . S
C967 C965 1.561 . S
C968 C965 1.526 . S
C968 C969 1.396 . S
C968 C973 1.390 . S
C969 C963 1.465 . S
C969 C968 1.396 . S
C969 C970 1.399 . S
C970 H956 0.929 . S
C970 C969 1.399 . S
C970 C971 1.385 . S
C971 H957 0.931 . S
C971 C970 1.385 . S
C971 C972 1.389 . S
C972 C971 1.389 . S
C972 C973 1.387 . S
C973 H958 0.930 . S
C973 C968 1.390 . S
C973 C972 1.387 . S
H974 C986 0.930 . S
H975 C988 0.930 . S
H976 C989 0.930 . S
H977 C993 0.959 . S
H978 C993 0.959 . S
H979 C993 0.961 . S
H980 C994 0.960 . S
H981 C994 0.961 . S
H982 C994 0.959 . S
H983 C997 0.929 . S
H984 C998 0.931 . S
H985 C1000 0.930 . S
C986 H974 0.930 . S
C986 C987 1.399 . S
C986 C991 1.399 . S
C987 C986 1.399 . S
C987 C988 1.376 . S
C988 H975 0.930 . S
C988 C987 1.376 . S
C988 C989 1.388 . S
C989 H976 0.930 . S
C989 C988 1.388 . S
C989 C990 1.390 . S
C990 C989 1.390 . S
C990 C991 1.394 . S
C990 C996 1.465 . S
C991 C986 1.399 . S
C991 C990 1.394 . S
C991 C992 1.516 . S
C992 C991 1.516 . S
C992 C993 1.502 . S
C992 C994 1.561 . S
C992 C995 1.526 . S
C993 H977 0.959 . S
C993 H978 0.959 . S
C993 H979 0.961 . S
C993 C992 1.502 . S
C994 H980 0.960 . S
C994 H981 0.961 . S
C994 H982 0.959 . S
C994 C992 1.561 . S
C995 C992 1.526 . S
C995 C996 1.396 . S
C995 C1000 1.390 . S
C996 C990 1.465 . S
C996 C995 1.396 . S
C996 C997 1.399 . S
C997 H983 0.929 . S
C997 C996 1.399 . S
C997 C998 1.385 . S
C998 H984 0.931 . S
C998 C997 1.385 . S
C998 C999 1.389 . S
C999 C998 1.389 . S
C999 C1000 1.387 . S
C1000 H985 0.930 . S
C1000 C995 1.390 . S
C1000 C999 1.387 . S
H1001 C1013 0.930 . S
H1002 C1015 0.930 . S
H1003 C1016 0.930 . S
H1004 C1020 0.959 . S
H1005 C1020 0.959 . S
H1006 C1020 0.961 . S
H1007 C1021 0.960 . S
H1008 C1021 0.961 . S
H1009 C1021 0.959 1_554 S
H1010 C1024 0.929 . S
H1011 C1025 0.931 . S
H1012 C1027 0.930 . S
C1013 H1001 0.930 . S
C1013 C1014 1.399 . S
C1013 C1018 1.399 . S
C1014 C1013 1.399 . S
C1014 C1015 1.376 . S
C1015 H1002 0.930 . S
C1015 C1014 1.376 . S
C1015 C1016 1.388 1_556 S
C1016 H1003 0.930 . S
C1016 C1015 1.388 1_554 S
C1016 C1017 1.390 . S
C1017 C1016 1.390 . S
C1017 C1018 1.394 1_554 S
C1017 C1023 1.465 . S
C1018 C1013 1.399 . S
C1018 C1017 1.394 1_556 S
C1018 C1019 1.516 . S
C1019 C1018 1.516 . S
C1019 C1020 1.502 . S
C1019 C1021 1.561 . S
C1019 C1022 1.526 1_556 S
C1020 H1004 0.959 . S
C1020 H1005 0.959 . S
C1020 H1006 0.961 . S
C1020 C1019 1.502 . S
C1021 H1007 0.960 . S
C1021 H1008 0.961 . S
C1021 H1009 0.959 1_556 S
C1021 C1019 1.561 . S
C1022 C1019 1.526 1_554 S
C1022 C1023 1.396 . S
C1022 C1027 1.390 . S
C1023 C1017 1.465 . S
C1023 C1022 1.396 . S
C1023 C1024 1.399 . S
C1024 H1010 0.929 . S
C1024 C1023 1.399 . S
C1024 C1025 1.385 . S
C1025 H1011 0.931 . S
C1025 C1024 1.385 . S
C1025 C1026 1.389 . S
C1026 C1025 1.389 . S
C1026 C1027 1.387 . S
C1027 H1012 0.930 . S
C1027 C1022 1.390 . S
C1027 C1026 1.387 . S
C285 C15 1.690 . S
C297 C51 1.725 . S
C312 C85 1.624 1_455 S
C324 C56 1.525 . S
C339 C119 1.593 1_556 S
C351 C83 1.478 . S
C366 C17 1.770 1_655 S
C378 C117 1.784 . S
C393 C151 1.523 . S
C405 C255 1.610 1_545 S
C420 C192 1.648 . S
C432 C153 1.689 . S
C447 C187 1.755 1_565 S
C459 C219 1.741 . S
C474 C253 1.500 . S
C486 C221 1.582 1_554 S
C501 C173 2.619 . S
C513 C1 2.596 . S
C528 C205 2.388 . S
C540 C37 2.412 . S
C555 C69 2.622 . S
C567 C239 2.591 . S
C582 C137 2.367 . S
C594 C103 2.383 . S
C609 C28 1.173 . S
C621 C6 1.177 . S
C636 C62 1.179 . S
C648 C40 1.173 . S
C663 C74 1.175 . S
C675 C96 1.175 . S
C690 C130 1.175 . S
C702 C108 1.173 . S
C717 C164 1.176 . S
C729 C142 1.179 . S
C744 C176 1.188 . S
C756 C198 1.183 . S
C771 C210 1.172 . S
C783 C232 1.175 . S
C798 C266 1.175 . S
C810 C244 1.174 . S
C825 C171 1.333 . S
C837 C3 1.329 . S
C852 C207 1.337 . S
C864 C35 1.442 . S
C879 C71 1.271 . S
C891 C241 1.193 . S
C906 C139 1.373 . S
C918 C105 1.377 . S
C933 C22 1.539 . S
C945 C260 1.474 . S
C960 C158 1.494 . S
C972 C49 1.374 . S
C987 C185 1.538 . S
C999 C90 1.442 . S
C1014 C124 1.735 . S
C1026 C226 1.830 . S
