# Generated by pormake.
# Topology acs-a, (4)-cn, num edge types: 1
# Building blocks:
#     Node 0, Type 0, BuildingBlock: NAHDIM_clean_sbu_0, # of connection points: 4
#     Node 1, Type 0, BuildingBlock: NAHDIM_clean_sbu_0, # of connection points: 4
#     Node 2, Type 0, BuildingBlock: NAHDIM_clean_sbu_0, # of connection points: 4
#     Node 3, Type 0, BuildingBlock: NAHDIM_clean_sbu_0, # of connection points: 4
#     Node 4, Type 0, BuildingBlock: NAHDIM_clean_sbu_0, # of connection points: 4
#     Node 5, Type 0, BuildingBlock: NAHDIM_clean_sbu_0, # of connection points: 4
#     Node 6, Type 0, BuildingBlock: NAHDIM_clean_sbu_0, # of connection points: 4
#     Node 7, Type 0, BuildingBlock: NAHDIM_clean_sbu_0, # of connection points: 4
#     Node 8, Type 0, BuildingBlock: NAHDIM_clean_sbu_0, # of connection points: 4
#     Node 9, Type 0, BuildingBlock: NAHDIM_clean_sbu_0, # of connection points: 4
#     Node 10, Type 0, BuildingBlock: NAHDIM_clean_sbu_0, # of connection points: 4
#     Node 11, Type 0, BuildingBlock: NAHDIM_clean_sbu_0, # of connection points: 4
#     Edge 12, Type (0, 0), BuildingBlock: KIFKEQ_clean_linker_1, # of connection points: 2
#     Edge 13, Type (0, 0), BuildingBlock: KIFKEQ_clean_linker_1, # of connection points: 2
#     Edge 14, Type (0, 0), BuildingBlock: KIFKEQ_clean_linker_1, # of connection points: 2
#     Edge 15, Type (0, 0), BuildingBlock: KIFKEQ_clean_linker_1, # of connection points: 2
#     Edge 16, Type (0, 0), BuildingBlock: KIFKEQ_clean_linker_1, # of connection points: 2
#     Edge 17, Type (0, 0), BuildingBlock: KIFKEQ_clean_linker_1, # of connection points: 2
#     Edge 18, Type (0, 0), BuildingBlock: KIFKEQ_clean_linker_1, # of connection points: 2
#     Edge 19, Type (0, 0), BuildingBlock: KIFKEQ_clean_linker_1, # of connection points: 2
#     Edge 20, Type (0, 0), BuildingBlock: KIFKEQ_clean_linker_1, # of connection points: 2
#     Edge 21, Type (0, 0), BuildingBlock: KIFKEQ_clean_linker_1, # of connection points: 2
#     Edge 22, Type (0, 0), BuildingBlock: KIFKEQ_clean_linker_1, # of connection points: 2
#     Edge 23, Type (0, 0), BuildingBlock: KIFKEQ_clean_linker_1, # of connection points: 2
#     Edge 24, Type (0, 0), BuildingBlock: KIFKEQ_clean_linker_1, # of connection points: 2
#     Edge 25, Type (0, 0), BuildingBlock: KIFKEQ_clean_linker_1, # of connection points: 2
#     Edge 26, Type (0, 0), BuildingBlock: KIFKEQ_clean_linker_1, # of connection points: 2
#     Edge 27, Type (0, 0), BuildingBlock: KIFKEQ_clean_linker_1, # of connection points: 2
#     Edge 28, Type (0, 0), BuildingBlock: KIFKEQ_clean_linker_1, # of connection points: 2
#     Edge 29, Type (0, 0), BuildingBlock: KIFKEQ_clean_linker_1, # of connection points: 2
#     Edge 30, Type (0, 0), BuildingBlock: KIFKEQ_clean_linker_1, # of connection points: 2
#     Edge 31, Type (0, 0), BuildingBlock: KIFKEQ_clean_linker_1, # of connection points: 2
#     Edge 32, Type (0, 0), BuildingBlock: KIFKEQ_clean_linker_1, # of connection points: 2
#     Edge 33, Type (0, 0), BuildingBlock: KIFKEQ_clean_linker_1, # of connection points: 2
#     Edge 34, Type (0, 0), BuildingBlock: KIFKEQ_clean_linker_1, # of connection points: 2
#     Edge 35, Type (0, 0), BuildingBlock: KIFKEQ_clean_linker_1, # of connection points: 2
# Relax obj value: 0.412
# Max RMSD: 0.207
# Mean RMSD: 0.202
data_MOF--net-acs-a--node1-NAHDIM_clean_sbu_0--edge1-KIFKEQ_clean_linker_1
_symmetry_space_group_name_H-M    P1
_symmetry_Int_Tables_number       1
_symmetry_cell_setting            triclinic
loop_
_symmetry_equiv_pos_as_xyz
'x, y, z'
_cell_length_a     48.618867
_cell_length_b     48.573088
_cell_length_c     43.667172
_cell_angle_alpha  90.034196
_cell_angle_beta   89.989641
_cell_angle_gamma 114.04207
loop_
_atom_site_label
_atom_site_type_symbol
_atom_site_fract_x
_atom_site_fract_y
_atom_site_fract_z
_atom_type_partial_charge
C0 C 0.60458 0.0851 0.01797 0.0
O1 O 0.60864 0.11115 0.00568 0.0
O2 O 0.63033 0.15455 0.05385 0.0
Zn3 Zn 0.64625 0.12286 0.06205 0.0
O4 O 0.64349 0.11605 0.10739 0.0
C5 C 0.69784 0.14034 0.02107 0.0
O6 O 0.67763 0.13227 -0.0009 0.0
O7 O 0.61973 0.08455 0.04147 0.0
C8 C 0.65245 0.13912 0.12462 0.0
O9 O 0.66472 0.16602 0.11211 0.0
C10 C 0.60394 0.14941 0.0633 0.0
O11 O 0.58823 0.12368 0.07701 0.0
O12 O 0.68922 0.13743 0.0488 0.0
C13 C 0.43132 0.54156 0.54653 0.0
O14 O 0.40688 0.52573 0.56218 0.0
O15 O 0.37364 0.5732 0.54855 0.0
Zn16 Zn 0.41461 0.58707 0.56782 0.0
O17 O 0.40927 0.57303 0.61162 0.0
C18 C 0.4395 0.64892 0.59016 0.0
O19 O 0.44179 0.63653 0.6162 0.0
O20 O 0.44003 0.57001 0.54514 0.0
C21 C 0.42989 0.57053 0.62773 0.0
O22 O 0.45658 0.57725 0.61559 0.0
C23 C 0.35033 0.55253 0.55996 0.0
O24 O 0.35324 0.53742 0.58377 0.0
O25 O 0.43093 0.63251 0.56637 0.0
C26 C 0.90749 0.4169 0.02517 0.0
O27 O 0.88629 0.40317 0.00495 0.0
O28 O 0.85144 0.34145 0.03882 0.0
Zn29 Zn 0.86288 0.37824 0.065 0.0
O30 O 0.86339 0.36702 0.10905 0.0
C31 C 0.81369 0.38877 0.03792 0.0
O32 O 0.81378 0.36854 0.01799 0.0
O33 O 0.90291 0.40915 0.05306 0.0
C34 C 0.87403 0.38779 0.12893 0.0
O35 O 0.88491 0.41605 0.11993 0.0
C36 C 0.86545 0.32438 0.038 0.0
O37 O 0.88976 0.33104 0.05476 0.0
O38 O 0.83256 0.39631 0.0598 0.0
C39 C 0.41167 0.91918 0.5848 0.0
O40 O 0.4162 0.91847 0.61439 0.0
O41 O 0.37076 0.83102 0.59378 0.0
Zn42 Zn 0.35836 0.86572 0.59706 0.0
O43 O 0.35799 0.87661 0.64129 0.0
C44 C 0.31272 0.84181 0.55219 0.0
O45 O 0.33531 0.83988 0.5372 0.0
O46 O 0.3879 0.89963 0.57297 0.0
C47 C 0.33651 0.85952 0.65809 0.0
O48 O 0.31491 0.83591 0.64574 0.0
C49 C 0.3952 0.83263 0.60576 0.0
O50 O 0.41189 0.85689 0.62125 0.0
O51 O 0.3173 0.85326 0.57884 0.0
C52 C 0.53954 0.43 0.04828 0.0
O53 O 0.55754 0.44486 0.07065 0.0
O54 O 0.60873 0.40941 0.04451 0.0
Zn55 Zn 0.56651 0.38896 0.06086 0.0
O56 O 0.56831 0.39618 0.10635 0.0
C57 C 0.54605 0.32461 0.07291 0.0
O58 O 0.54037 0.3318 0.10046 0.0
O59 O 0.53918 0.40479 0.03994 0.0
C60 C 0.54698 0.39397 0.12434 0.0
O61 O 0.51962 0.38598 0.11344 0.0
C62 C 0.63027 0.42752 0.06064 0.0
O63 O 0.62433 0.4362 0.08741 0.0
O64 O 0.55509 0.34481 0.05229 0.0
C65 C 0.06124 0.57477 0.5551 0.0
O66 O 0.05627 0.59363 0.57355 0.0
O67 O 0.13427 0.65156 0.54314 0.0
Zn68 Zn 0.12404 0.61249 0.56521 0.0
O69 O 0.11827 0.61769 0.61003 0.0
C70 C 0.16529 0.5902 0.53714 0.0
O71 O 0.14985 0.58863 0.51202 0.0
O72 O 0.08805 0.57933 0.54806 0.0
C73 C 0.12212 0.5996 0.62879 0.0
O74 O 0.12821 0.57739 0.61816 0.0
C75 C 0.12663 0.67168 0.554 0.0
O76 O 0.10945 0.66555 0.57847 0.0
O77 O 0.15857 0.60027 0.56156 0.0
C78 C 0.89232 0.39287 0.46761 0.0
O79 O 0.86507 0.38356 0.4791 0.0
O80 O 0.8267 0.36717 0.4251 0.0
Zn81 Zn 0.86073 0.35447 0.41841 0.0
O82 O 0.87056 0.35844 0.37368 0.0
C83 C 0.83211 0.30219 0.45551 0.0
O84 O 0.82642 0.32163 0.47241 0.0
O85 O 0.8962 0.38243 0.44207 0.0
C86 C 0.85015 0.34325 0.35479 0.0
O87 O 0.82371 0.32481 0.36529 0.0
C88 C 0.83003 0.39369 0.41788 0.0
O89 O 0.85555 0.41209 0.40551 0.0
O90 O 0.84785 0.31142 0.43143 0.0
C91 C 0.41593 0.89962 0.9798 0.0
O92 O 0.40746 0.87767 -2e-05 0.0
O93 O 0.33253 0.84671 0.97192 0.0
Zn94 Zn 0.36868 0.8562 0.94524 0.0
O95 O 0.35646 0.85554 0.90125 0.0
C96 C 0.40283 0.82229 0.93084 0.0
O97 O 0.41061 0.84102 0.90754 0.0
O98 O 0.40155 0.89591 0.95483 0.0
C99 C 0.36035 0.87934 0.88641 0.0
O100 O 0.37221 0.90557 0.90031 0.0
C101 C 0.3157 0.86095 0.97017 0.0
O102 O 0.32358 0.88451 0.95206 0.0
O103 O 0.38472 0.82443 0.95073 0.0
C104 C 0.54293 0.43537 0.43703 0.0
O105 O 0.52792 0.41173 0.41991 0.0
O106 O 0.57885 0.38054 0.42824 0.0
Zn107 Zn 0.59092 0.42319 0.4137 0.0
O108 O 0.58007 0.4229 0.3693 0.0
C109 C 0.64719 0.43686 0.44199 0.0
O110 O 0.62913 0.42399 0.46503 0.0
O111 O 0.5714 0.44493 0.43857 0.0
C112 C 0.59297 0.41214 0.3504 0.0
O113 O 0.6126 0.40216 0.36073 0.0
C114 C 0.56062 0.35716 0.41451 0.0
O115 O 0.54553 0.36021 0.39076 0.0
O116 O 0.63594 0.44187 0.41746 0.0
C117 C 0.09051 0.59883 0.96139 0.0
O118 O 0.11677 0.60546 0.97446 0.0
O119 O 0.1601 0.62758 0.92697 0.0
Zn120 Zn 0.12694 0.64102 0.91714 0.0
O121 O 0.12103 0.63877 0.87158 0.0
C122 C 0.1358 0.69083 0.95892 0.0
O123 O 0.12344 0.66965 0.97951 0.0
O124 O 0.0891 0.61241 0.93698 0.0
C125 C 0.14388 0.64527 0.85435 0.0
O126 O 0.17076 0.65455 0.8668 0.0
C127 C 0.15719 0.60136 0.91897 0.0
O128 O 0.13264 0.58374 0.90445 0.0
O129 O 0.13863 0.68349 0.93153 0.0
C130 C 0.57562 0.06109 0.44992 0.0
O131 O 0.60401 0.06767 0.45629 0.0
O132 O 0.64052 0.12421 0.43157 0.0
Zn133 Zn 0.60026 0.11384 0.41169 0.0
O134 O 0.604 0.10883 0.36631 0.0
C135 C 0.60721 0.17498 0.42223 0.0
O136 O 0.63596 0.18041 0.42094 0.0
O137 O 0.56907 0.07698 0.43058 0.0
C138 C 0.59389 0.12201 0.34708 0.0
O139 O 0.579 0.13754 0.35698 0.0
C140 C 0.66184 0.12017 0.41833 0.0
O141 O 0.65726 0.10739 0.39119 0.0
O142 O 0.58776 0.14807 0.41918 0.0
C143 C 0.43052 0.53203 0.92886 0.0
O144 O 0.43823 0.53853 0.90007 0.0
O145 O 0.40936 0.60761 0.93077 0.0
Zn146 Zn 0.3944 0.56493 0.91584 0.0
O147 O 0.40475 0.56518 0.87122 0.0
C148 C 0.33859 0.55531 0.94398 0.0
O149 O 0.35679 0.56767 0.96708 0.0
O150 O 0.41174 0.54092 0.94089 0.0
C151 C 0.38926 0.54347 0.85374 0.0
O152 O 0.36632 0.52048 0.86519 0.0
C153 C 0.43031 0.6302 0.91864 0.0
O154 O 0.44603 0.62595 0.89606 0.0
O155 O 0.3494 0.54928 0.91966 0.0
H156 H 0.62239 0.09077 0.31844 0.0
H157 H 0.58256 0.15432 0.3015 0.0
H158 H 0.63783 0.09438 0.2648 0.0
H159 H 0.5979 0.15775 0.24805 0.0
H160 H 0.6613 0.18389 0.16614 0.0
H161 H 0.64706 0.1785 0.22001 0.0
H162 H 0.61474 0.08176 0.21215 0.0
H163 H 0.62912 0.08706 0.15815 0.0
C164 C 0.61673 0.10531 0.30325 0.0
C165 C 0.60132 0.12232 0.31423 0.0
C166 C 0.62551 0.10731 0.27256 0.0
C167 C 0.61929 0.12654 0.25238 0.0
C168 C 0.6034 0.14309 0.26324 0.0
C169 C 0.59442 0.14093 0.2938 0.0
C170 C 0.6514 0.16147 0.17591 0.0
C171 C 0.6462 0.13589 0.15783 0.0
C172 C 0.64306 0.15839 0.20671 0.0
C173 C 0.62953 0.1297 0.22014 0.0
C174 C 0.62523 0.10415 0.20238 0.0
C175 C 0.63338 0.1072 0.17147 0.0
H176 H 0.47099 0.5729 0.67164 0.0
H177 H 0.37622 0.55054 0.65798 0.0
H178 H 0.46203 0.56348 0.72649 0.0
H179 H 0.36742 0.54145 0.71265 0.0
H180 H 0.35761 0.50382 0.80902 0.0
H181 H 0.3683 0.50716 0.7542 0.0
H182 H 0.44776 0.58909 0.76908 0.0
H183 H 0.43732 0.58567 0.82386 0.0
C184 C 0.44824 0.56574 0.68027 0.0
C185 C 0.42435 0.56264 0.66051 0.0
C186 C 0.44315 0.56051 0.71168 0.0
C187 C 0.41405 0.55183 0.72385 0.0
C188 C 0.39004 0.54782 0.70392 0.0
C189 C 0.39515 0.55323 0.67261 0.0
C190 C 0.37748 0.52242 0.80063 0.0
C191 C 0.39651 0.54458 0.82076 0.0
C192 C 0.38353 0.52438 0.76923 0.0
C193 C 0.40882 0.54842 0.75736 0.0
C194 C 0.42828 0.57012 0.77759 0.0
C195 C 0.42215 0.56827 0.80895 0.0
H196 H 0.851 0.33184 0.15522 0.0
H197 H 0.89434 0.42676 0.17711 0.0
H198 H 0.84712 0.31967 0.20966 0.0
H199 H 0.88999 0.41457 0.23148 0.0
H200 H 0.90128 0.38147 0.32577 0.0
H201 H 0.90894 0.39097 0.27094 0.0
H202 H 0.81849 0.32518 0.25369 0.0
H203 H 0.81096 0.31528 0.30843 0.0
C204 C 0.85977 0.35011 0.17162 0.0
C205 C 0.87288 0.38029 0.16184 0.0
C206 C 0.85741 0.34312 0.20281 0.0
C207 C 0.86817 0.36616 0.22486 0.0
C208 C 0.88181 0.39629 0.21504 0.0
C209 C 0.88413 0.40328 0.18387 0.0
C210 C 0.8831 0.36886 0.31027 0.0
C211 C 0.85545 0.34772 0.32146 0.0
C212 C 0.88745 0.37443 0.27888 0.0
C213 C 0.86427 0.35894 0.25801 0.0
C214 C 0.83689 0.33726 0.26916 0.0
C215 C 0.83253 0.33172 0.30055 0.0
H216 H 0.36889 0.92578 0.84681 0.0
H217 H 0.33598 0.82869 0.85118 0.0
H218 H 0.3601 0.92263 0.79161 0.0
H219 H 0.32775 0.82565 0.79614 0.0
H220 H 0.29437 0.82708 0.70037 0.0
H221 H 0.29705 0.83339 0.75582 0.0
H222 H 0.3827 0.90974 0.74677 0.0
H223 H 0.37979 0.90384 0.69132 0.0
C224 C 0.35964 0.90378 0.83605 0.0
C225 C 0.35328 0.8775 0.85335 0.0
C226 C 0.35475 0.902 0.80442 0.0
C227 C 0.34331 0.87391 0.78951 0.0
C228 C 0.33622 0.84761 0.80698 0.0
C229 C 0.34114 0.84938 0.83853 0.0
C230 C 0.31363 0.8454 0.71018 0.0
C231 C 0.33697 0.86481 0.69146 0.0
C232 C 0.31522 0.84892 0.74196 0.0
C233 C 0.34018 0.87193 0.75569 0.0
C234 C 0.36302 0.89198 0.73689 0.0
C235 C 0.36143 0.88847 0.7051 0.0
H236 H 0.616 0.3895 0.30484 0.0
H237 H 0.55318 0.43024 0.32135 0.0
H238 H 0.60402 0.38599 0.25055 0.0
H239 H 0.54159 0.42722 0.26667 0.0
H240 H 0.50647 0.38482 0.17113 0.0
H241 H 0.51708 0.38987 0.22609 0.0
H242 H 0.61208 0.41959 0.20718 0.0
H243 H 0.60156 0.41405 0.15264 0.0
C244 C 0.59973 0.39785 0.29687 0.0
C245 C 0.58563 0.41024 0.31741 0.0
C246 C 0.59298 0.39598 0.2657 0.0
C247 C 0.572 0.40651 0.25427 0.0
C248 C 0.55768 0.4187 0.27482 0.0
C249 C 0.56446 0.42058 0.30609 0.0
C250 C 0.52961 0.39258 0.17875 0.0
C251 C 0.55312 0.39877 0.15753 0.0
C252 C 0.5357 0.39558 0.2102 0.0
C253 C 0.56539 0.40484 0.22097 0.0
C254 C 0.5889 0.41182 0.19966 0.0
C255 C 0.58285 0.40879 0.16835 0.0
H256 H 0.10356 0.6384 0.659 0.0
H257 H 0.14214 0.57351 0.67377 0.0
H258 H 0.10796 0.64998 0.7138 0.0
H259 H 0.14665 0.58527 0.72831 0.0
H260 H 0.18568 0.64411 0.81342 0.0
H261 H 0.17874 0.63257 0.75888 0.0
H262 H 0.08669 0.62308 0.76518 0.0
H263 H 0.09347 0.63447 0.81998 0.0
C264 C 0.11278 0.62649 0.67394 0.0
C265 C 0.12261 0.60512 0.66208 0.0
C266 C 0.1152 0.63306 0.70525 0.0
C267 C 0.12786 0.61868 0.72513 0.0
C268 C 0.13714 0.59693 0.71337 0.0
C269 C 0.13437 0.59008 0.68219 0.0
C270 C 0.164 0.63976 0.80319 0.0
C271 C 0.14009 0.64012 0.821 0.0
C272 C 0.16 0.63296 0.77203 0.0
C273 C 0.13213 0.62675 0.75796 0.0
C274 C 0.10842 0.62788 0.77552 0.0
C275 C 0.11229 0.6343 0.80684 0.0
H276 H 0.55813 0.08024 0.98028 0.0
H277 H 0.59341 0.02731 0.03413 0.0
H278 H 0.51252 0.03534 0.97047 0.0
H279 H 0.54819 0.98216 0.02346 0.0
H280 H 0.44956 0.91749 0.03194 0.0
H281 H 0.49629 0.96209 0.03893 0.0
H282 H 0.49193 0.98776 0.94486 0.0
H283 H 0.44475 0.94384 0.93822 0.0
C284 C 0.55642 0.05889 0.98947 0.0
C285 C 0.57922 0.05731 0.00816 0.0
C286 C 0.53028 0.03313 0.98381 0.0
C287 C 0.52657 0.00524 0.9965 0.0
C288 C 0.55006 0.00345 0.01396 0.0
C289 C 0.57608 0.02925 0.01984 0.0
C290 C 0.45852 0.93276 0.01284 0.0
C291 C 0.44348 0.92721 0.98459 0.0
C292 C 0.48543 0.95816 0.01673 0.0
C293 C 0.49795 0.97834 0.99236 0.0
C294 C 0.48273 0.97285 0.96418 0.0
C295 C 0.45572 0.94762 0.96037 0.0
H296 H 0.48354 0.56735 0.5135 0.0
H297 H 0.41734 0.48126 0.54427 0.0
H298 H 0.51083 0.54173 0.48726 0.0
H299 H 0.44482 0.45583 0.51848 0.0
H300 H 0.48233 0.4197 0.43941 0.0
H301 H 0.45586 0.4458 0.46591 0.0
H302 H 0.54068 0.51228 0.49895 0.0
H303 H 0.56731 0.48641 0.47206 0.0
C304 C 0.47487 0.543 0.51475 0.0
C305 C 0.44823 0.52633 0.53088 0.0
C306 C 0.49059 0.52836 0.49988 0.0
C307 C 0.47992 0.49677 0.50076 0.0
C308 C 0.45338 0.48016 0.51703 0.0
C309 C 0.43773 0.49478 0.53195 0.0
C310 C 0.49537 0.43986 0.45234 0.0
C311 C 0.52692 0.45097 0.45364 0.0
C312 C 0.48017 0.45473 0.46765 0.0
C313 C 0.49619 0.48107 0.48454 0.0
C314 C 0.52776 0.49221 0.48584 0.0
C315 C 0.54297 0.47728 0.47059 0.0
H316 H 0.08743 0.55904 0.00668 0.0
H317 H 0.0326 0.5813 0.94165 0.0
H318 H 0.04361 0.51444 0.02213 0.0
H319 H 0.98863 0.53714 0.95771 0.0
H320 H 0.9255 0.4383 0.9675 0.0
H321 H 0.97 0.4828 0.95308 0.0
H322 H -0.00411 0.49905 0.0483 0.0
H323 H 0.95193 0.45417 0.06264 0.0
C324 C 0.06594 0.55465 0.99599 0.0
C325 C 0.06347 0.57358 0.97286 0.0
C326 C 0.04083 0.52913 0.0049 0.0
C327 C 0.01274 0.52216 0.99095 0.0
C328 C 0.01012 0.5416 0.96843 0.0
C329 C 0.03524 0.56703 0.95943 0.0
C330 C 0.94081 0.45127 0.98531 0.0
C331 C 0.93521 0.44278 0.01618 0.0
C332 C 0.96615 0.47688 0.97709 0.0
C333 C 0.9863 0.49455 -0.0004 0.0
C334 C 0.98094 0.48574 0.03042 0.0
C335 C 0.95569 0.46007 0.03862 0.0
H336 H 0.51511 0.04431 0.44412 0.0
H337 H 0.58139 0.02599 0.49627 0.0
H338 H 0.47543 0.01015 0.4768 0.0
H339 H 0.54142 0.99121 0.52863 0.0
H340 H 0.46688 0.96165 0.60151 0.0
H341 H 0.50661 -0.00523 0.56781 0.0
H342 H 0.44959 0.95697 0.48924 0.0
H343 H 0.40974 0.92441 0.5228 0.0
C344 C 0.52119 0.03269 0.46231 0.0
C345 C 0.55142 0.03796 0.46771 0.0
C346 C 0.49841 0.01304 0.48098 0.0
C347 C 0.50537 -0.00182 0.50539 0.0
C348 C 0.53549 0.00277 0.51028 0.0
C349 C 0.55832 0.02247 0.49159 0.0
C350 C 0.46277 0.96058 0.57706 0.0
C351 C 0.43517 0.94047 0.56482 0.0
C352 C 0.48561 0.97933 0.55777 0.0
C353 C 0.48124 0.97832 0.5259 0.0
C354 C 0.45351 0.95845 0.51373 0.0
C355 C 0.43071 0.93975 0.53298 0.0
H356 H 0.46606 0.50473 0.90818 0.0
H357 H 0.42602 0.52137 0.99065 0.0
H358 H 0.49024 0.47855 0.93809 0.0
H359 H 0.4502 0.4949 0.02059 0.0
H360 H 0.53155 0.48085 0.06332 0.0
H361 H 0.50303 0.5039 0.03516 0.0
H362 H 0.47678 0.43172 0.96885 0.0
H363 H 0.50542 0.40871 -0.00318 0.0
C364 C 0.46228 0.50267 0.93268 0.0
C365 C 0.44419 0.5152 0.94706 0.0
C366 C 0.47599 0.48749 0.94977 0.0
C367 C 0.47207 0.48466 0.98165 0.0
C368 C 0.45379 0.49696 0.99606 0.0
C369 C 0.43985 0.51198 0.97891 0.0
C370 C 0.51956 0.4698 0.04283 0.0
C371 C 0.5209 0.44305 0.03219 0.0
C372 C 0.50309 0.48291 0.02683 0.0
C373 C 0.48779 0.46965 -0.00023 0.0
C374 C 0.48864 0.4426 0.98946 0.0
C375 C 0.50494 0.42937 0.00556 0.0
H376 H 0.94877 0.42368 0.44483 0.0
H377 H 0.8928 0.4184 0.52347 0.0
H378 H 0.98911 0.46737 0.46695 0.0
H379 H 0.93369 0.46172 0.54616 0.0
H380 H 0.00075 0.5608 0.55808 0.0
H381 H 0.95985 0.5156 0.53818 0.0
H382 H 0.02476 0.4816 0.50776 0.0
H383 H 0.0654 0.52692 0.52656 0.0
C384 C 0.94524 0.43157 0.46708 0.0
C385 C 0.9176 0.41764 0.4824 0.0
C386 C 0.96842 0.45658 0.47982 0.0
C387 C 0.96458 0.46803 0.50831 0.0
C388 C 0.93715 0.45369 0.52396 0.0
C389 C 0.91384 0.42875 0.51109 0.0
C390 C 0.00619 0.54364 0.5471 0.0
C391 C 0.03624 0.54751 0.54363 0.0
C392 C 0.9828 0.51768 0.53591 0.0
C393 C 0.9891 0.49508 0.52129 0.0
C394 C 0.01917 0.49883 0.51837 0.0
C395 C 0.04247 0.52479 0.52926 0.0
H396 H 0.63095 0.20551 0.03773 0.0
H397 H 0.54915 0.14584 0.08267 0.0
H398 H 0.61224 0.24502 0.03682 0.0
H399 H 0.53025 0.18524 0.08128 0.0
H400 H 0.53225 0.27778 0.1131 0.0
H401 H 0.54296 0.23327 0.10746 0.0
H402 H 0.57407 0.26008 0.01506 0.0
H403 H 0.56384 0.30496 0.02083 0.0
C404 C 0.60882 0.20069 0.04707 0.0
C405 C 0.59165 0.17261 0.0605 0.0
C406 C 0.59799 0.22327 0.04635 0.0
C407 C 0.56976 0.21829 0.05904 0.0
C408 C 0.55222 0.1899 0.07165 0.0
C409 C 0.56303 0.16729 0.07233 0.0
C410 C 0.54089 0.27395 0.09138 0.0
C411 C 0.5475 0.29512 0.06755 0.0
C412 C 0.54692 0.24834 0.0881 0.0
C413 C 0.55969 0.24331 0.06092 0.0
C414 C 0.56473 0.2636 0.03647 0.0
C415 C 0.55864 0.28921 0.03973 0.0
H416 H 0.29605 0.51818 0.58614 0.0
H417 H 0.33642 0.58149 0.51267 0.0
H418 H 0.24822 0.522 0.57724 0.0
H419 H 0.28866 0.58546 0.50407 0.0
H420 H 0.19211 0.57548 0.48824 0.0
H421 H 0.23402 0.55977 0.4896 0.0
H422 H 0.23563 0.56576 0.58833 0.0
H423 H 0.19403 0.58122 0.58707 0.0
C424 C 0.2946 0.53243 0.56769 0.0
C425 C 0.32018 0.54995 0.55048 0.0
C426 C 0.26724 0.53471 0.56271 0.0
C427 C 0.26489 0.55441 0.54031 0.0
C428 C 0.28978 0.57005 0.52145 0.0
C429 C 0.31719 0.56787 0.52651 0.0
C430 C 0.20132 0.57322 0.51021 0.0
C431 C 0.18992 0.57979 0.53753 0.0
C432 C 0.22528 0.56426 0.51097 0.0
C433 C 0.23793 0.56135 0.53907 0.0
C434 C 0.22603 0.56729 0.56635 0.0
C435 C 0.20238 0.57649 0.56559 0.0
H436 H 0.87712 0.27422 0.0464 0.0
H437 H 0.82069 0.30745 0.99562 0.0
H438 H 0.84402 0.22267 0.03201 0.0
H439 H 0.78751 0.25636 0.98189 0.0
H440 H 0.72311 0.16638 0.96654 0.0
H441 H 0.77312 0.20681 0.95985 0.0
H442 H 0.79455 0.19563 0.05382 0.0
H443 H 0.74523 0.1551 0.0602 0.0
C444 C 0.8582 0.27062 0.03142 0.0
C445 C 0.85093 0.29473 0.02289 0.0
C446 C 0.83921 0.24109 0.02324 0.0
C447 C 0.81276 0.23532 0.00638 0.0
C448 C 0.80766 0.25985 0.99484 0.0
C449 C 0.82654 0.28923 0.00303 0.0
C450 C 0.73892 0.17189 0.9854 0.0
C451 C 0.72997 0.15827 0.01419 0.0
C452 C 0.76754 0.19509 0.98158 0.0
C453 C 0.78757 0.20495 0.00649 0.0
C454 C 0.77981 0.1887 0.03409 0.0
C455 C 0.75129 0.16561 0.03789 0.0
H456 H 0.4457 0.8286 0.62896 0.0
H457 H 0.36694 0.78033 0.5736 0.0
H458 H 0.46158 0.78729 0.62275 0.0
H459 H 0.38258 0.73895 0.56784 0.0
H460 H 0.42839 0.67901 0.54201 0.0
H461 H 0.42127 0.72583 0.54408 0.0
H462 H 0.44467 0.73503 0.6401 0.0
H463 H 0.45229 0.68854 0.63798 0.0
C464 C 0.43177 0.8092 0.61547 0.0
C465 C 0.40499 0.80771 0.60187 0.0
C466 C 0.44086 0.78552 0.61198 0.0
C467 C 0.42341 0.7599 0.59472 0.0
C468 C 0.39681 0.75859 0.58085 0.0
C469 C 0.38769 0.7822 0.5844 0.0
C470 C 0.4326 0.69131 0.56343 0.0
C471 C 0.44058 0.67983 0.58993 0.0
C472 C 0.42828 0.71802 0.56466 0.0
C473 C 0.43193 0.73387 0.59236 0.0
C474 C 0.44177 0.72341 0.61837 0.0
C475 C 0.44605 0.69668 0.61716 0.0
H476 H 0.67881 0.44546 0.09873 0.0
H477 H 0.65206 0.42001 0.00501 0.0
H478 H 0.72628 0.44173 0.08929 0.0
H479 H 0.70043 0.41779 0.99494 0.0
H480 H 0.7611 0.36618 0.00585 0.0
H481 H 0.72037 0.38282 0.00753 0.0
H482 H 0.7737 0.45682 0.06671 0.0
H483 H 0.81391 0.43905 0.06619 0.0
C484 C 0.6835 0.44006 0.07578 0.0
C485 C 0.66149 0.4325 0.05275 0.0
C486 C 0.7109 0.43803 0.07028 0.0
C487 C 0.71709 0.42887 0.04145 0.0
C488 C 0.69609 0.42402 0.01766 0.0
C489 C 0.66847 0.42557 0.02333 0.0
C490 C 0.76425 0.38619 0.01895 0.0
C491 C 0.7905 0.40105 0.03623 0.0
C492 C 0.74096 0.39597 0.01971 0.0
C493 C 0.74356 0.42117 0.03739 0.0
C494 C 0.77059 0.43698 0.05336 0.0
C495 C 0.79371 0.42688 0.05299 0.0
H496 H 0.15183 0.69242 0.4982 0.0
H497 H 0.14073 0.72193 0.58881 0.0
H498 H 0.19159 0.74192 0.48773 0.0
H499 H 0.1816 0.77028 0.57955 0.0
H500 H 0.26272 0.85062 0.56881 0.0
H501 H 0.21044 0.8166 0.55927 0.0
H502 H 0.24085 0.76089 0.5032 0.0
H503 H 0.29244 0.79588 0.51108 0.0
C504 C 0.1575 0.70976 0.51562 0.0
C505 C 0.14376 0.7032 0.54454 0.0
C506 C 0.18049 0.73805 0.50979 0.0
C507 C 0.19081 0.75991 0.53314 0.0
C508 C 0.17455 0.75429 0.56084 0.0
C509 C 0.15104 0.72631 0.56633 0.0
C510 C 0.25801 0.83152 0.55371 0.0
C511 C 0.28158 0.82547 0.54122 0.0
C512 C 0.22806 0.81188 0.54838 0.0
C513 C 0.22116 0.78534 0.53119 0.0
C514 C 0.24488 0.78102 0.51642 0.0
C515 C 0.27472 0.80104 0.52115 0.0
H516 H 0.82815 0.44736 0.40185 0.0
H517 H 0.77674 0.36284 0.44728 0.0
H518 H 0.78729 0.46342 0.41084 0.0
H519 H 0.73595 0.37874 0.45589 0.0
H520 H 0.67624 0.42192 0.48834 0.0
H521 H 0.72329 0.41547 0.48491 0.0
H522 H 0.73526 0.44861 0.39193 0.0
H523 H 0.68843 0.45546 0.39542 0.0
C524 C 0.8082 0.43225 0.41381 0.0
C525 C 0.80563 0.40377 0.42373 0.0
C526 C 0.7848 0.44144 0.41889 0.0
C527 C 0.75847 0.42242 0.43419 0.0
C528 C 0.75615 0.39413 0.44449 0.0
C529 C 0.77942 0.3849 0.43929 0.0
C530 C 0.6892 0.42844 0.46738 0.0
C531 C 0.67837 0.43883 0.44202 0.0
C532 C 0.71605 0.42454 0.46535 0.0
C533 C 0.73269 0.43104 0.43798 0.0
C534 C 0.72299 0.44347 0.41337 0.0
C535 C 0.69609 0.44732 0.41536 0.0
H536 H 0.29383 0.81558 0.01195 0.0
H537 H 0.26704 0.8728 0.95455 0.0
H538 H 0.24158 0.78097 0.0178 0.0
H539 H 0.21435 0.83824 0.96091 0.0
H540 H 0.15657 0.74014 0.92197 0.0
H541 H 0.19393 0.78974 0.93502 0.0
H542 H 0.18842 0.76368 0.03021 0.0
H543 H 0.15107 0.71349 0.01693 0.0
C544 C 0.27666 0.82135 0.00151 0.0
C545 C 0.28457 0.84631 0.98191 0.0
C546 C 0.24656 0.8016 0.00511 0.0
C547 C 0.22382 0.80645 0.98913 0.0
C548 C 0.23147 0.8336 0.97296 0.0
C549 C 0.26166 0.85344 0.96939 0.0
C550 C 0.16266 0.74522 0.94583 0.0
C551 C 0.15161 0.72268 0.96827 0.0
C552 C 0.18389 0.77387 0.95342 0.0
C553 C 0.1946 0.78053 0.98363 0.0
C554 C 0.18095 0.75903 0.00666 0.0
C555 C 0.15953 0.73031 -0.00095 0.0
H556 H 0.54993 0.17242 0.41961 0.0
H557 H 0.64283 0.23436 0.43232 0.0
H558 H 0.53465 0.21443 0.42249 0.0
H559 H 0.6276 0.27622 0.43478 0.0
H560 H 0.59152 0.34393 0.46033 0.0
H561 H 0.59981 0.29805 0.46629 0.0
H562 H 0.54049 0.25795 0.3899 0.0
H563 H 0.53179 0.30369 0.38415 0.0
C564 C 0.56707 0.19495 0.42321 0.0
C565 C 0.59763 0.20008 0.42562 0.0
C566 C 0.5583 0.219 0.42473 0.0
C567 C 0.57989 0.24862 0.4289 0.0
C568 C 0.61035 0.25361 0.43201 0.0
C569 C 0.61912 0.22963 0.43035 0.0
C570 C 0.57977 0.32514 0.44514 0.0
C571 C 0.56126 0.32761 0.42151 0.0
C572 C 0.5847 0.29893 0.44846 0.0
C573 C 0.57119 0.27457 0.42827 0.0
C574 C 0.55114 0.27628 0.4059 0.0
C575 C 0.54622 0.30255 0.40255 0.0
H576 H 0.20995 0.63162 0.94964 0.0
H577 H 0.15894 0.5476 0.90309 0.0
H578 H 0.2506 0.61553 0.95844 0.0
H579 H 0.19953 0.5313 0.91237 0.0
H580 H 0.29733 0.53756 0.89742 0.0
H581 H 0.25105 0.5454 0.89391 0.0
H582 H 0.26388 0.57925 0.98668 0.0
H583 H 0.31048 0.57192 0.99007 0.0
C584 C 0.20729 0.6096 0.94151 0.0
C585 C 0.18128 0.59098 0.9255 0.0
C586 C 0.23049 0.60025 0.9468 0.0
C587 C 0.22826 0.57208 0.93618 0.0
C588 C 0.20203 0.55323 0.92061 0.0
C589 C 0.17875 0.56256 0.91538 0.0
C590 C 0.29001 0.54614 0.91729 0.0
C591 C 0.30782 0.55448 0.94389 0.0
C592 C 0.2634 0.55055 0.9153 0.0
C593 C 0.25403 0.56337 0.93987 0.0
C594 C 0.27084 0.5699 0.96714 0.0
C595 C 0.29743 0.56548 0.96914 0.0
H596 H 0.67909 0.13452 0.47768 0.0
H597 H 0.71396 0.14183 0.38574 0.0
H598 H 0.72776 0.17137 0.49528 0.0
H599 H 0.76171 0.17992 0.40253 0.0
H600 H 0.84205 0.25571 0.42961 0.0
H601 H 0.80691 0.20282 0.42841 0.0
H602 H 0.74762 0.22299 0.48974 0.0
H603 H 0.78335 0.27489 0.49225 0.0
C604 C 0.6974 0.14363 0.46137 0.0
C605 C 0.69266 0.13592 0.43026 0.0
C606 C 0.72524 0.1649 0.47137 0.0
C607 C 0.7485 0.17952 0.45022 0.0
C608 C 0.74456 0.16929 0.41967 0.0
C609 C 0.71697 0.14748 0.40986 0.0
C610 C 0.82188 0.2485 0.44354 0.0
C611 C 0.81505 0.26954 0.4604 0.0
C612 C 0.80163 0.21823 0.44272 0.0
C613 C 0.77389 0.2086 0.45822 0.0
C614 C 0.76867 0.22922 0.47753 0.0
C615 C 0.78915 0.25928 0.47879 0.0
H616 H 0.39451 0.6454 0.95699 0.0
H617 H 0.47167 0.68435 0.89724 0.0
H618 H 0.3929 0.69424 0.96286 0.0
H619 H 0.4709 0.73391 0.90421 0.0
H620 H 0.42839 0.80196 0.88551 0.0
H621 H 0.4403 0.758 0.88663 0.0
H622 H 0.41387 0.74369 0.98188 0.0
H623 H 0.40064 0.78696 0.98022 0.0
C624 C 0.41165 0.66457 0.94568 0.0
C625 C 0.43299 0.66088 0.92629 0.0
C626 C 0.41086 0.69276 0.94924 0.0
C627 C 0.43161 0.71811 0.9338 0.0
C628 C 0.45416 0.71476 0.91592 0.0
C629 C 0.45477 0.6864 0.91211 0.0
C630 C 0.42541 0.7896 0.90677 0.0
C631 C 0.41317 0.79764 0.93265 0.0
C632 C 0.4325 0.76448 0.90752 0.0
C633 C 0.42787 0.74705 0.9343 0.0
C634 C 0.41711 0.75615 0.96066 0.0
C635 C 0.40963 0.78103 0.95977 0.0
loop_
_geom_bond_atom_site_label_1
_geom_bond_atom_site_label_2
_geom_bond_distance
_geom_bond_site_symmetry_2
_ccdc_geom_bond_type
C0 O1 1.160 . S
C0 O7 1.185 . S
O1 C0 1.160 . S
O2 Zn3 1.899 . S
O2 C10 1.284 . S
Zn3 O2 1.899 . S
Zn3 O4 2.032 . S
Zn3 O7 2.086 . S
Zn3 O12 1.977 . S
O4 Zn3 2.032 . S
O4 C8 1.278 . S
C5 O6 1.203 . S
C5 O12 1.267 . S
O6 C5 1.203 . S
O7 C0 1.185 . S
O7 Zn3 2.086 . S
C8 O4 1.278 . S
C8 O9 1.211 . S
O9 C8 1.211 . S
C10 O2 1.284 . S
C10 O11 1.273 . S
O11 C10 1.273 . S
O12 Zn3 1.977 . S
O12 C5 1.267 . S
C13 O14 1.160 . S
C13 O20 1.185 . S
O14 C13 1.160 . S
O15 Zn16 1.899 . S
O15 C23 1.284 . S
Zn16 O15 1.899 . S
Zn16 O17 2.032 . S
Zn16 O20 2.086 . S
Zn16 O25 1.977 . S
O17 Zn16 2.032 . S
O17 C21 1.278 . S
C18 O19 1.203 . S
C18 O25 1.267 . S
O19 C18 1.203 . S
O20 C13 1.185 . S
O20 Zn16 2.086 . S
C21 O17 1.278 . S
C21 O22 1.211 . S
O22 C21 1.211 . S
C23 O15 1.284 . S
C23 O24 1.273 . S
O24 C23 1.273 . S
O25 Zn16 1.977 . S
O25 C18 1.267 . S
C26 O27 1.160 . S
C26 O33 1.185 . S
O27 C26 1.160 . S
O28 Zn29 1.899 . S
O28 C36 1.284 . S
Zn29 O28 1.899 . S
Zn29 O30 2.032 . S
Zn29 O33 2.086 . S
Zn29 O38 1.977 . S
O30 Zn29 2.032 . S
O30 C34 1.278 . S
C31 O32 1.203 . S
C31 O38 1.267 . S
O32 C31 1.203 . S
O33 C26 1.185 . S
O33 Zn29 2.086 . S
C34 O30 1.278 . S
C34 O35 1.211 . S
O35 C34 1.211 . S
C36 O28 1.284 . S
C36 O37 1.273 . S
O37 C36 1.273 . S
O38 Zn29 1.977 . S
O38 C31 1.267 . S
C39 O40 1.160 . S
C39 O46 1.185 . S
O40 C39 1.160 . S
O41 Zn42 1.899 . S
O41 C49 1.284 . S
Zn42 O41 1.899 . S
Zn42 O43 2.032 . S
Zn42 O46 2.086 . S
Zn42 O51 1.977 . S
O43 Zn42 2.032 . S
O43 C47 1.278 . S
C44 O45 1.203 . S
C44 O51 1.267 . S
O45 C44 1.203 . S
O46 C39 1.185 . S
O46 Zn42 2.086 . S
C47 O43 1.278 . S
C47 O48 1.211 . S
O48 C47 1.211 . S
C49 O41 1.284 . S
C49 O50 1.273 . S
O50 C49 1.273 . S
O51 Zn42 1.977 . S
O51 C44 1.267 . S
C52 O53 1.160 . S
C52 O59 1.185 . S
O53 C52 1.160 . S
O54 Zn55 1.899 . S
O54 C62 1.284 . S
Zn55 O54 1.899 . S
Zn55 O56 2.032 . S
Zn55 O59 2.086 . S
Zn55 O64 1.977 . S
O56 Zn55 2.032 . S
O56 C60 1.278 . S
C57 O58 1.203 . S
C57 O64 1.267 . S
O58 C57 1.203 . S
O59 C52 1.185 . S
O59 Zn55 2.086 . S
C60 O56 1.278 . S
C60 O61 1.211 . S
O61 C60 1.211 . S
C62 O54 1.284 . S
C62 O63 1.273 . S
O63 C62 1.273 . S
O64 Zn55 1.977 . S
O64 C57 1.267 . S
C65 O66 1.160 . S
C65 O72 1.185 . S
O66 C65 1.160 . S
O67 Zn68 1.899 . S
O67 C75 1.284 . S
Zn68 O67 1.899 . S
Zn68 O69 2.032 . S
Zn68 O72 2.086 . S
Zn68 O77 1.977 . S
O69 Zn68 2.032 . S
O69 C73 1.278 . S
C70 O71 1.203 . S
C70 O77 1.267 . S
O71 C70 1.203 . S
O72 C65 1.185 . S
O72 Zn68 2.086 . S
C73 O69 1.278 . S
C73 O74 1.211 . S
O74 C73 1.211 . S
C75 O67 1.284 . S
C75 O76 1.273 . S
O76 C75 1.273 . S
O77 Zn68 1.977 . S
O77 C70 1.267 . S
C78 O79 1.160 . S
C78 O85 1.185 . S
O79 C78 1.160 . S
O80 Zn81 1.899 . S
O80 C88 1.284 . S
Zn81 O80 1.899 . S
Zn81 O82 2.032 . S
Zn81 O85 2.086 . S
Zn81 O90 1.977 . S
O82 Zn81 2.032 . S
O82 C86 1.278 . S
C83 O84 1.203 . S
C83 O90 1.267 . S
O84 C83 1.203 . S
O85 C78 1.185 . S
O85 Zn81 2.086 . S
C86 O82 1.278 . S
C86 O87 1.211 . S
O87 C86 1.211 . S
C88 O80 1.284 . S
C88 O89 1.273 . S
O89 C88 1.273 . S
O90 Zn81 1.977 . S
O90 C83 1.267 . S
C91 O92 1.160 . S
C91 O98 1.185 . S
O92 C91 1.160 . S
O93 Zn94 1.899 . S
O93 C101 1.284 . S
Zn94 O93 1.899 . S
Zn94 O95 2.032 . S
Zn94 O98 2.086 . S
Zn94 O103 1.977 . S
O95 Zn94 2.032 . S
O95 C99 1.278 . S
C96 O97 1.203 . S
C96 O103 1.267 . S
O97 C96 1.203 . S
O98 C91 1.185 . S
O98 Zn94 2.086 . S
C99 O95 1.278 . S
C99 O100 1.211 . S
O100 C99 1.211 . S
C101 O93 1.284 . S
C101 O102 1.273 . S
O102 C101 1.273 . S
O103 Zn94 1.977 . S
O103 C96 1.267 . S
C104 O105 1.160 . S
C104 O111 1.185 . S
O105 C104 1.160 . S
O106 Zn107 1.899 . S
O106 C114 1.284 . S
Zn107 O106 1.899 . S
Zn107 O108 2.032 . S
Zn107 O111 2.086 . S
Zn107 O116 1.977 . S
O108 Zn107 2.032 . S
O108 C112 1.278 . S
C109 O110 1.203 . S
C109 O116 1.267 . S
O110 C109 1.203 . S
O111 C104 1.185 . S
O111 Zn107 2.086 . S
C112 O108 1.278 . S
C112 O113 1.211 . S
O113 C112 1.211 . S
C114 O106 1.284 . S
C114 O115 1.273 . S
O115 C114 1.273 . S
O116 Zn107 1.977 . S
O116 C109 1.267 . S
C117 O118 1.160 . S
C117 O124 1.185 . S
O118 C117 1.160 . S
O119 Zn120 1.899 . S
O119 C127 1.284 . S
Zn120 O119 1.899 . S
Zn120 O121 2.032 . S
Zn120 O124 2.086 . S
Zn120 O129 1.977 . S
O121 Zn120 2.032 . S
O121 C125 1.278 . S
C122 O123 1.203 . S
C122 O129 1.267 . S
O123 C122 1.203 . S
O124 C117 1.185 . S
O124 Zn120 2.086 . S
C125 O121 1.278 . S
C125 O126 1.211 . S
O126 C125 1.211 . S
C127 O119 1.284 . S
C127 O128 1.273 . S
O128 C127 1.273 . S
O129 Zn120 1.977 . S
O129 C122 1.267 . S
C130 O131 1.160 . S
C130 O137 1.185 . S
O131 C130 1.160 . S
O132 Zn133 1.899 . S
O132 C140 1.284 . S
Zn133 O132 1.899 . S
Zn133 O134 2.032 . S
Zn133 O137 2.086 . S
Zn133 O142 1.977 . S
O134 Zn133 2.032 . S
O134 C138 1.278 . S
C135 O136 1.203 . S
C135 O142 1.267 . S
O136 C135 1.203 . S
O137 C130 1.185 . S
O137 Zn133 2.086 . S
C138 O134 1.278 . S
C138 O139 1.211 . S
O139 C138 1.211 . S
C140 O132 1.284 . S
C140 O141 1.273 . S
O141 C140 1.273 . S
O142 Zn133 1.977 . S
O142 C135 1.267 . S
C143 O144 1.160 . S
C143 O150 1.185 . S
O144 C143 1.160 . S
O145 Zn146 1.899 . S
O145 C153 1.284 . S
Zn146 O145 1.899 . S
Zn146 O147 2.032 . S
Zn146 O150 2.086 . S
Zn146 O155 1.977 . S
O147 Zn146 2.032 . S
O147 C151 1.278 . S
C148 O149 1.203 . S
C148 O155 1.267 . S
O149 C148 1.203 . S
O150 C143 1.185 . S
O150 Zn146 2.086 . S
C151 O147 1.278 . S
C151 O152 1.211 . S
O152 C151 1.211 . S
C153 O145 1.284 . S
C153 O154 1.273 . S
O154 C153 1.273 . S
O155 Zn146 1.977 . S
O155 C148 1.267 . S
H156 C164 0.950 . S
H157 C169 0.950 . S
H158 C166 0.950 . S
H159 C168 0.950 . S
H160 C170 0.950 . S
H161 C172 0.950 . S
H162 C174 0.950 . S
H163 C175 0.950 . S
C164 H156 0.950 . S
C164 C165 1.386 . S
C164 C166 1.391 . S
C165 C164 1.386 . S
C165 C169 1.393 . S
C166 H158 0.950 . S
C166 C164 1.391 . S
C166 C167 1.400 . S
C167 C166 1.400 . S
C167 C168 1.398 . S
C167 C173 1.491 . S
C168 H159 0.950 . S
C168 C167 1.398 . S
C168 C169 1.391 . S
C169 H157 0.950 . S
C169 C165 1.393 . S
C169 C168 1.391 . S
C170 H160 0.950 . S
C170 C171 1.386 . S
C170 C172 1.391 . S
C171 C170 1.386 . S
C171 C175 1.393 . S
C172 H161 0.950 . S
C172 C170 1.391 . S
C172 C173 1.400 . S
C173 C167 1.491 . S
C173 C172 1.400 . S
C173 C174 1.398 . S
C174 H162 0.950 . S
C174 C173 1.398 . S
C174 C175 1.391 . S
C175 H163 0.950 . S
C175 C171 1.393 . S
C175 C174 1.391 . S
H176 C184 0.950 . S
H177 C189 0.950 . S
H178 C186 0.950 . S
H179 C188 0.950 . S
H180 C190 0.950 . S
H181 C192 0.950 . S
H182 C194 0.950 . S
H183 C195 0.950 . S
C184 H176 0.950 . S
C184 C185 1.386 . S
C184 C186 1.391 . S
C185 C184 1.386 . S
C185 C189 1.393 . S
C186 H178 0.950 . S
C186 C184 1.391 . S
C186 C187 1.400 . S
C187 C186 1.400 . S
C187 C188 1.398 . S
C187 C193 1.491 . S
C188 H179 0.950 . S
C188 C187 1.398 . S
C188 C189 1.391 . S
C189 H177 0.950 . S
C189 C185 1.393 . S
C189 C188 1.391 . S
C190 H180 0.950 . S
C190 C191 1.386 . S
C190 C192 1.391 . S
C191 C190 1.386 . S
C191 C195 1.393 . S
C192 H181 0.950 . S
C192 C190 1.391 . S
C192 C193 1.400 . S
C193 C187 1.491 . S
C193 C192 1.400 . S
C193 C194 1.398 . S
C194 H182 0.950 . S
C194 C193 1.398 . S
C194 C195 1.391 . S
C195 H183 0.950 . S
C195 C191 1.393 . S
C195 C194 1.391 . S
H196 C204 0.950 . S
H197 C209 0.950 . S
H198 C206 0.950 . S
H199 C208 0.950 . S
H200 C210 0.950 . S
H201 C212 0.950 . S
H202 C214 0.950 . S
H203 C215 0.950 . S
C204 H196 0.950 . S
C204 C205 1.386 . S
C204 C206 1.391 . S
C205 C204 1.386 . S
C205 C209 1.393 . S
C206 H198 0.950 . S
C206 C204 1.391 . S
C206 C207 1.400 . S
C207 C206 1.400 . S
C207 C208 1.398 . S
C207 C213 1.491 . S
C208 H199 0.950 . S
C208 C207 1.398 . S
C208 C209 1.391 . S
C209 H197 0.950 . S
C209 C205 1.393 . S
C209 C208 1.391 . S
C210 H200 0.950 . S
C210 C211 1.386 . S
C210 C212 1.391 . S
C211 C210 1.386 . S
C211 C215 1.393 . S
C212 H201 0.950 . S
C212 C210 1.391 . S
C212 C213 1.400 . S
C213 C207 1.491 . S
C213 C212 1.400 . S
C213 C214 1.398 . S
C214 H202 0.950 . S
C214 C213 1.398 . S
C214 C215 1.391 . S
C215 H203 0.950 . S
C215 C211 1.393 . S
C215 C214 1.391 . S
H216 C224 0.950 . S
H217 C229 0.950 . S
H218 C226 0.950 . S
H219 C228 0.950 . S
H220 C230 0.950 . S
H221 C232 0.950 . S
H222 C234 0.950 . S
H223 C235 0.950 . S
C224 H216 0.950 . S
C224 C225 1.386 . S
C224 C226 1.391 . S
C225 C224 1.386 . S
C225 C229 1.393 . S
C226 H218 0.950 . S
C226 C224 1.391 . S
C226 C227 1.400 . S
C227 C226 1.400 . S
C227 C228 1.398 . S
C227 C233 1.491 . S
C228 H219 0.950 . S
C228 C227 1.398 . S
C228 C229 1.391 . S
C229 H217 0.950 . S
C229 C225 1.393 . S
C229 C228 1.391 . S
C230 H220 0.950 . S
C230 C231 1.386 . S
C230 C232 1.391 . S
C231 C230 1.386 . S
C231 C235 1.393 . S
C232 H221 0.950 . S
C232 C230 1.391 . S
C232 C233 1.400 . S
C233 C227 1.491 . S
C233 C232 1.400 . S
C233 C234 1.398 . S
C234 H222 0.950 . S
C234 C233 1.398 . S
C234 C235 1.391 . S
C235 H223 0.950 . S
C235 C231 1.393 . S
C235 C234 1.391 . S
H236 C244 0.950 . S
H237 C249 0.950 . S
H238 C246 0.950 . S
H239 C248 0.950 . S
H240 C250 0.950 . S
H241 C252 0.950 . S
H242 C254 0.950 . S
H243 C255 0.950 . S
C244 H236 0.950 . S
C244 C245 1.386 . S
C244 C246 1.391 . S
C245 C244 1.386 . S
C245 C249 1.393 . S
C246 H238 0.950 . S
C246 C244 1.391 . S
C246 C247 1.400 . S
C247 C246 1.400 . S
C247 C248 1.398 . S
C247 C253 1.491 . S
C248 H239 0.950 . S
C248 C247 1.398 . S
C248 C249 1.391 . S
C249 H237 0.950 . S
C249 C245 1.393 . S
C249 C248 1.391 . S
C250 H240 0.950 . S
C250 C251 1.386 . S
C250 C252 1.391 . S
C251 C250 1.386 . S
C251 C255 1.393 . S
C252 H241 0.950 . S
C252 C250 1.391 . S
C252 C253 1.400 . S
C253 C247 1.491 . S
C253 C252 1.400 . S
C253 C254 1.398 . S
C254 H242 0.950 . S
C254 C253 1.398 . S
C254 C255 1.391 . S
C255 H243 0.950 . S
C255 C251 1.393 . S
C255 C254 1.391 . S
H256 C264 0.950 . S
H257 C269 0.950 . S
H258 C266 0.950 . S
H259 C268 0.950 . S
H260 C270 0.950 . S
H261 C272 0.950 . S
H262 C274 0.950 . S
H263 C275 0.950 . S
C264 H256 0.950 . S
C264 C265 1.386 . S
C264 C266 1.391 . S
C265 C264 1.386 . S
C265 C269 1.393 . S
C266 H258 0.950 . S
C266 C264 1.391 . S
C266 C267 1.400 . S
C267 C266 1.400 . S
C267 C268 1.398 . S
C267 C273 1.491 . S
C268 H259 0.950 . S
C268 C267 1.398 . S
C268 C269 1.391 . S
C269 H257 0.950 . S
C269 C265 1.393 . S
C269 C268 1.391 . S
C270 H260 0.950 . S
C270 C271 1.386 . S
C270 C272 1.391 . S
C271 C270 1.386 . S
C271 C275 1.393 . S
C272 H261 0.950 . S
C272 C270 1.391 . S
C272 C273 1.400 . S
C273 C267 1.491 . S
C273 C272 1.400 . S
C273 C274 1.398 . S
C274 H262 0.950 . S
C274 C273 1.398 . S
C274 C275 1.391 . S
C275 H263 0.950 . S
C275 C271 1.393 . S
C275 C274 1.391 . S
H276 C284 0.950 . S
H277 C289 0.950 . S
H278 C286 0.950 1_556 S
H279 C288 0.950 1_565 S
H280 C290 0.950 . S
H281 C292 0.950 1_554 S
H282 C294 0.950 1_545 S
H283 C295 0.950 . S
C284 H276 0.950 . S
C284 C285 1.386 . S
C284 C286 1.391 . S
C285 C284 1.386 . S
C285 C289 1.393 . S
C286 H278 0.950 1_554 S
C286 C284 1.391 . S
C286 C287 1.400 . S
C287 C286 1.400 . S
C287 C288 1.398 . S
C287 C293 1.491 1_544 S
C288 H279 0.950 1_545 S
C288 C287 1.398 . S
C288 C289 1.391 . S
C289 H277 0.950 . S
C289 C285 1.393 . S
C289 C288 1.391 . S
C290 H280 0.950 . S
C290 C291 1.386 . S
C290 C292 1.391 . S
C291 C290 1.386 . S
C291 C295 1.393 . S
C292 H281 0.950 1_556 S
C292 C290 1.391 . S
C292 C293 1.400 . S
C293 C287 1.491 1_566 S
C293 C292 1.400 . S
C293 C294 1.398 . S
C294 H282 0.950 1_565 S
C294 C293 1.398 . S
C294 C295 1.391 . S
C295 H283 0.950 . S
C295 C291 1.393 . S
C295 C294 1.391 . S
H296 C304 0.950 . S
H297 C309 0.950 . S
H298 C306 0.950 . S
H299 C308 0.950 . S
H300 C310 0.950 . S
H301 C312 0.950 . S
H302 C314 0.950 . S
H303 C315 0.950 . S
C304 H296 0.950 . S
C304 C305 1.386 . S
C304 C306 1.391 . S
C305 C304 1.386 . S
C305 C309 1.393 . S
C306 H298 0.950 . S
C306 C304 1.391 . S
C306 C307 1.400 . S
C307 C306 1.400 . S
C307 C308 1.398 . S
C307 C313 1.491 . S
C308 H299 0.950 . S
C308 C307 1.398 . S
C308 C309 1.391 . S
C309 H297 0.950 . S
C309 C305 1.393 . S
C309 C308 1.391 . S
C310 H300 0.950 . S
C310 C311 1.386 . S
C310 C312 1.391 . S
C311 C310 1.386 . S
C311 C315 1.393 . S
C312 H301 0.950 . S
C312 C310 1.391 . S
C312 C313 1.400 . S
C313 C307 1.491 . S
C313 C312 1.400 . S
C313 C314 1.398 . S
C314 H302 0.950 . S
C314 C313 1.398 . S
C314 C315 1.391 . S
C315 H303 0.950 . S
C315 C311 1.393 . S
C315 C314 1.391 . S
H316 C324 0.950 . S
H317 C329 0.950 . S
H318 C326 0.950 1_554 S
H319 C328 0.950 1_655 S
H320 C330 0.950 . S
H321 C332 0.950 1_556 S
H322 C334 0.950 1_455 S
H323 C335 0.950 . S
C324 H316 0.950 . S
C324 C325 1.386 . S
C324 C326 1.391 . S
C325 C324 1.386 . S
C325 C329 1.393 . S
C326 H318 0.950 1_556 S
C326 C324 1.391 . S
C326 C327 1.400 . S
C327 C326 1.400 . S
C327 C328 1.398 . S
C327 C333 1.491 1_456 S
C328 H319 0.950 1_455 S
C328 C327 1.398 . S
C328 C329 1.391 . S
C329 H317 0.950 . S
C329 C325 1.393 . S
C329 C328 1.391 . S
C330 H320 0.950 . S
C330 C331 1.386 . S
C330 C332 1.391 . S
C331 C330 1.386 . S
C331 C335 1.393 . S
C332 H321 0.950 1_554 S
C332 C330 1.391 . S
C332 C333 1.400 . S
C333 C327 1.491 1_654 S
C333 C332 1.400 . S
C333 C334 1.398 . S
C334 H322 0.950 1_655 S
C334 C333 1.398 . S
C334 C335 1.391 . S
C335 H323 0.950 . S
C335 C331 1.393 . S
C335 C334 1.391 . S
H336 C344 0.950 . S
H337 C349 0.950 . S
H338 C346 0.950 . S
H339 C348 0.950 . S
H340 C350 0.950 . S
H341 C352 0.950 . S
H342 C354 0.950 . S
H343 C355 0.950 . S
C344 H336 0.950 . S
C344 C345 1.386 . S
C344 C346 1.391 . S
C345 C344 1.386 . S
C345 C349 1.393 . S
C346 H338 0.950 . S
C346 C344 1.391 . S
C346 C347 1.400 . S
C347 C346 1.400 . S
C347 C348 1.398 . S
C347 C353 1.491 1_545 S
C348 H339 0.950 . S
C348 C347 1.398 . S
C348 C349 1.391 . S
C349 H337 0.950 . S
C349 C345 1.393 . S
C349 C348 1.391 . S
C350 H340 0.950 . S
C350 C351 1.386 . S
C350 C352 1.391 . S
C351 C350 1.386 . S
C351 C355 1.393 . S
C352 H341 0.950 . S
C352 C350 1.391 . S
C352 C353 1.400 . S
C353 C347 1.491 1_565 S
C353 C352 1.400 . S
C353 C354 1.398 . S
C354 H342 0.950 . S
C354 C353 1.398 . S
C354 C355 1.391 . S
C355 H343 0.950 . S
C355 C351 1.393 . S
C355 C354 1.391 . S
H356 C364 0.950 . S
H357 C369 0.950 1_554 S
H358 C366 0.950 . S
H359 C368 0.950 . S
H360 C370 0.950 . S
H361 C372 0.950 . S
H362 C374 0.950 . S
H363 C375 0.950 1_556 S
C364 H356 0.950 . S
C364 C365 1.386 . S
C364 C366 1.391 . S
C365 C364 1.386 . S
C365 C369 1.393 . S
C366 H358 0.950 . S
C366 C364 1.391 . S
C366 C367 1.400 . S
C367 C366 1.400 . S
C367 C368 1.398 1_556 S
C367 C373 1.491 1_556 S
C368 H359 0.950 . S
C368 C367 1.398 1_554 S
C368 C369 1.391 1_554 S
C369 H357 0.950 1_556 S
C369 C365 1.393 . S
C369 C368 1.391 1_556 S
C370 H360 0.950 . S
C370 C371 1.386 . S
C370 C372 1.391 . S
C371 C370 1.386 . S
C371 C375 1.393 . S
C372 H361 0.950 . S
C372 C370 1.391 . S
C372 C373 1.400 . S
C373 C367 1.491 1_554 S
C373 C372 1.400 . S
C373 C374 1.398 1_554 S
C374 H362 0.950 . S
C374 C373 1.398 1_556 S
C374 C375 1.391 1_556 S
C375 H363 0.950 1_554 S
C375 C371 1.393 . S
C375 C374 1.391 1_554 S
H376 C384 0.950 . S
H377 C389 0.950 . S
H378 C386 0.950 1_455 S
H379 C388 0.950 . S
H380 C390 0.950 . S
H381 C392 0.950 1_655 S
H382 C394 0.950 . S
H383 C395 0.950 . S
C384 H376 0.950 . S
C384 C385 1.386 . S
C384 C386 1.391 . S
C385 C384 1.386 . S
C385 C389 1.393 . S
C386 H378 0.950 1_655 S
C386 C384 1.391 . S
C386 C387 1.400 . S
C387 C386 1.400 . S
C387 C388 1.398 . S
C387 C393 1.491 1_655 S
C388 H379 0.950 . S
C388 C387 1.398 . S
C388 C389 1.391 . S
C389 H377 0.950 . S
C389 C385 1.393 . S
C389 C388 1.391 . S
C390 H380 0.950 . S
C390 C391 1.386 . S
C390 C392 1.391 . S
C391 C390 1.386 . S
C391 C395 1.393 . S
C392 H381 0.950 1_455 S
C392 C390 1.391 . S
C392 C393 1.400 . S
C393 C387 1.491 1_455 S
C393 C392 1.400 . S
C393 C394 1.398 . S
C394 H382 0.950 . S
C394 C393 1.398 . S
C394 C395 1.391 . S
C395 H383 0.950 . S
C395 C391 1.393 . S
C395 C394 1.391 . S
H396 C404 0.950 . S
H397 C409 0.950 . S
H398 C406 0.950 . S
H399 C408 0.950 . S
H400 C410 0.950 . S
H401 C412 0.950 . S
H402 C414 0.950 . S
H403 C415 0.950 . S
C404 H396 0.950 . S
C404 C405 1.386 . S
C404 C406 1.391 . S
C405 C404 1.386 . S
C405 C409 1.393 . S
C406 H398 0.950 . S
C406 C404 1.391 . S
C406 C407 1.400 . S
C407 C406 1.400 . S
C407 C408 1.398 . S
C407 C413 1.491 . S
C408 H399 0.950 . S
C408 C407 1.398 . S
C408 C409 1.391 . S
C409 H397 0.950 . S
C409 C405 1.393 . S
C409 C408 1.391 . S
C410 H400 0.950 . S
C410 C411 1.386 . S
C410 C412 1.391 . S
C411 C410 1.386 . S
C411 C415 1.393 . S
C412 H401 0.950 . S
C412 C410 1.391 . S
C412 C413 1.400 . S
C413 C407 1.491 . S
C413 C412 1.400 . S
C413 C414 1.398 . S
C414 H402 0.950 . S
C414 C413 1.398 . S
C414 C415 1.391 . S
C415 H403 0.950 . S
C415 C411 1.393 . S
C415 C414 1.391 . S
H416 C424 0.950 . S
H417 C429 0.950 . S
H418 C426 0.950 . S
H419 C428 0.950 . S
H420 C430 0.950 . S
H421 C432 0.950 . S
H422 C434 0.950 . S
H423 C435 0.950 . S
C424 H416 0.950 . S
C424 C425 1.386 . S
C424 C426 1.391 . S
C425 C424 1.386 . S
C425 C429 1.393 . S
C426 H418 0.950 . S
C426 C424 1.391 . S
C426 C427 1.400 . S
C427 C426 1.400 . S
C427 C428 1.398 . S
C427 C433 1.491 . S
C428 H419 0.950 . S
C428 C427 1.398 . S
C428 C429 1.391 . S
C429 H417 0.950 . S
C429 C425 1.393 . S
C429 C428 1.391 . S
C430 H420 0.950 . S
C430 C431 1.386 . S
C430 C432 1.391 . S
C431 C430 1.386 . S
C431 C435 1.393 . S
C432 H421 0.950 . S
C432 C430 1.391 . S
C432 C433 1.400 . S
C433 C427 1.491 . S
C433 C432 1.400 . S
C433 C434 1.398 . S
C434 H422 0.950 . S
C434 C433 1.398 . S
C434 C435 1.391 . S
C435 H423 0.950 . S
C435 C431 1.393 . S
C435 C434 1.391 . S
H436 C444 0.950 . S
H437 C449 0.950 . S
H438 C446 0.950 . S
H439 C448 0.950 . S
H440 C450 0.950 . S
H441 C452 0.950 . S
H442 C454 0.950 . S
H443 C455 0.950 . S
C444 H436 0.950 . S
C444 C445 1.386 . S
C444 C446 1.391 . S
C445 C444 1.386 . S
C445 C449 1.393 . S
C446 H438 0.950 . S
C446 C444 1.391 . S
C446 C447 1.400 . S
C447 C446 1.400 . S
C447 C448 1.398 . S
C447 C453 1.491 . S
C448 H439 0.950 . S
C448 C447 1.398 . S
C448 C449 1.391 . S
C449 H437 0.950 . S
C449 C445 1.393 . S
C449 C448 1.391 . S
C450 H440 0.950 . S
C450 C451 1.386 . S
C450 C452 1.391 . S
C451 C450 1.386 . S
C451 C455 1.393 . S
C452 H441 0.950 . S
C452 C450 1.391 . S
C452 C453 1.400 . S
C453 C447 1.491 . S
C453 C452 1.400 . S
C453 C454 1.398 . S
C454 H442 0.950 . S
C454 C453 1.398 . S
C454 C455 1.391 . S
C455 H443 0.950 . S
C455 C451 1.393 . S
C455 C454 1.391 . S
H456 C464 0.950 . S
H457 C469 0.950 . S
H458 C466 0.950 . S
H459 C468 0.950 . S
H460 C470 0.950 . S
H461 C472 0.950 . S
H462 C474 0.950 . S
H463 C475 0.950 . S
C464 H456 0.950 . S
C464 C465 1.386 . S
C464 C466 1.391 . S
C465 C464 1.386 . S
C465 C469 1.393 . S
C466 H458 0.950 . S
C466 C464 1.391 . S
C466 C467 1.400 . S
C467 C466 1.400 . S
C467 C468 1.398 . S
C467 C473 1.491 . S
C468 H459 0.950 . S
C468 C467 1.398 . S
C468 C469 1.391 . S
C469 H457 0.950 . S
C469 C465 1.393 . S
C469 C468 1.391 . S
C470 H460 0.950 . S
C470 C471 1.386 . S
C470 C472 1.391 . S
C471 C470 1.386 . S
C471 C475 1.393 . S
C472 H461 0.950 . S
C472 C470 1.391 . S
C472 C473 1.400 . S
C473 C467 1.491 . S
C473 C472 1.400 . S
C473 C474 1.398 . S
C474 H462 0.950 . S
C474 C473 1.398 . S
C474 C475 1.391 . S
C475 H463 0.950 . S
C475 C471 1.393 . S
C475 C474 1.391 . S
H476 C484 0.950 . S
H477 C489 0.950 . S
H478 C486 0.950 . S
H479 C488 0.950 . S
H480 C490 0.950 . S
H481 C492 0.950 . S
H482 C494 0.950 . S
H483 C495 0.950 . S
C484 H476 0.950 . S
C484 C485 1.386 . S
C484 C486 1.391 . S
C485 C484 1.386 . S
C485 C489 1.393 . S
C486 H478 0.950 . S
C486 C484 1.391 . S
C486 C487 1.400 . S
C487 C486 1.400 . S
C487 C488 1.398 . S
C487 C493 1.491 . S
C488 H479 0.950 . S
C488 C487 1.398 . S
C488 C489 1.391 . S
C489 H477 0.950 . S
C489 C485 1.393 . S
C489 C488 1.391 . S
C490 H480 0.950 . S
C490 C491 1.386 . S
C490 C492 1.391 . S
C491 C490 1.386 . S
C491 C495 1.393 . S
C492 H481 0.950 . S
C492 C490 1.391 . S
C492 C493 1.400 . S
C493 C487 1.491 . S
C493 C492 1.400 . S
C493 C494 1.398 . S
C494 H482 0.950 . S
C494 C493 1.398 . S
C494 C495 1.391 . S
C495 H483 0.950 . S
C495 C491 1.393 . S
C495 C494 1.391 . S
H496 C504 0.950 . S
H497 C509 0.950 . S
H498 C506 0.950 . S
H499 C508 0.950 . S
H500 C510 0.950 . S
H501 C512 0.950 . S
H502 C514 0.950 . S
H503 C515 0.950 . S
C504 H496 0.950 . S
C504 C505 1.386 . S
C504 C506 1.391 . S
C505 C504 1.386 . S
C505 C509 1.393 . S
C506 H498 0.950 . S
C506 C504 1.391 . S
C506 C507 1.400 . S
C507 C506 1.400 . S
C507 C508 1.398 . S
C507 C513 1.491 . S
C508 H499 0.950 . S
C508 C507 1.398 . S
C508 C509 1.391 . S
C509 H497 0.950 . S
C509 C505 1.393 . S
C509 C508 1.391 . S
C510 H500 0.950 . S
C510 C511 1.386 . S
C510 C512 1.391 . S
C511 C510 1.386 . S
C511 C515 1.393 . S
C512 H501 0.950 . S
C512 C510 1.391 . S
C512 C513 1.400 . S
C513 C507 1.491 . S
C513 C512 1.400 . S
C513 C514 1.398 . S
C514 H502 0.950 . S
C514 C513 1.398 . S
C514 C515 1.391 . S
C515 H503 0.950 . S
C515 C511 1.393 . S
C515 C514 1.391 . S
H516 C524 0.950 . S
H517 C529 0.950 . S
H518 C526 0.950 . S
H519 C528 0.950 . S
H520 C530 0.950 . S
H521 C532 0.950 . S
H522 C534 0.950 . S
H523 C535 0.950 . S
C524 H516 0.950 . S
C524 C525 1.386 . S
C524 C526 1.391 . S
C525 C524 1.386 . S
C525 C529 1.393 . S
C526 H518 0.950 . S
C526 C524 1.391 . S
C526 C527 1.400 . S
C527 C526 1.400 . S
C527 C528 1.398 . S
C527 C533 1.491 . S
C528 H519 0.950 . S
C528 C527 1.398 . S
C528 C529 1.391 . S
C529 H517 0.950 . S
C529 C525 1.393 . S
C529 C528 1.391 . S
C530 H520 0.950 . S
C530 C531 1.386 . S
C530 C532 1.391 . S
C531 C530 1.386 . S
C531 C535 1.393 . S
C532 H521 0.950 . S
C532 C530 1.391 . S
C532 C533 1.400 . S
C533 C527 1.491 . S
C533 C532 1.400 . S
C533 C534 1.398 . S
C534 H522 0.950 . S
C534 C533 1.398 . S
C534 C535 1.391 . S
C535 H523 0.950 . S
C535 C531 1.393 . S
C535 C534 1.391 . S
H536 C544 0.950 . S
H537 C549 0.950 . S
H538 C546 0.950 . S
H539 C548 0.950 . S
H540 C550 0.950 . S
H541 C552 0.950 . S
H542 C554 0.950 . S
H543 C555 0.950 . S
C544 H536 0.950 . S
C544 C545 1.386 . S
C544 C546 1.391 . S
C545 C544 1.386 . S
C545 C549 1.393 . S
C546 H538 0.950 . S
C546 C544 1.391 . S
C546 C547 1.400 . S
C547 C546 1.400 . S
C547 C548 1.398 . S
C547 C553 1.491 . S
C548 H539 0.950 . S
C548 C547 1.398 . S
C548 C549 1.391 . S
C549 H537 0.950 . S
C549 C545 1.393 . S
C549 C548 1.391 . S
C550 H540 0.950 . S
C550 C551 1.386 . S
C550 C552 1.391 . S
C551 C550 1.386 . S
C551 C555 1.393 . S
C552 H541 0.950 . S
C552 C550 1.391 . S
C552 C553 1.400 . S
C553 C547 1.491 . S
C553 C552 1.400 . S
C553 C554 1.398 . S
C554 H542 0.950 . S
C554 C553 1.398 . S
C554 C555 1.391 . S
C555 H543 0.950 . S
C555 C551 1.393 . S
C555 C554 1.391 . S
H556 C564 0.950 . S
H557 C569 0.950 . S
H558 C566 0.950 . S
H559 C568 0.950 . S
H560 C570 0.950 . S
H561 C572 0.950 . S
H562 C574 0.950 . S
H563 C575 0.950 . S
C564 H556 0.950 . S
C564 C565 1.386 . S
C564 C566 1.391 . S
C565 C564 1.386 . S
C565 C569 1.393 . S
C566 H558 0.950 . S
C566 C564 1.391 . S
C566 C567 1.400 . S
C567 C566 1.400 . S
C567 C568 1.398 . S
C567 C573 1.491 . S
C568 H559 0.950 . S
C568 C567 1.398 . S
C568 C569 1.391 . S
C569 H557 0.950 . S
C569 C565 1.393 . S
C569 C568 1.391 . S
C570 H560 0.950 . S
C570 C571 1.386 . S
C570 C572 1.391 . S
C571 C570 1.386 . S
C571 C575 1.393 . S
C572 H561 0.950 . S
C572 C570 1.391 . S
C572 C573 1.400 . S
C573 C567 1.491 . S
C573 C572 1.400 . S
C573 C574 1.398 . S
C574 H562 0.950 . S
C574 C573 1.398 . S
C574 C575 1.391 . S
C575 H563 0.950 . S
C575 C571 1.393 . S
C575 C574 1.391 . S
H576 C584 0.950 . S
H577 C589 0.950 . S
H578 C586 0.950 . S
H579 C588 0.950 . S
H580 C590 0.950 . S
H581 C592 0.950 . S
H582 C594 0.950 . S
H583 C595 0.950 . S
C584 H576 0.950 . S
C584 C585 1.386 . S
C584 C586 1.391 . S
C585 C584 1.386 . S
C585 C589 1.393 . S
C586 H578 0.950 . S
C586 C584 1.391 . S
C586 C587 1.400 . S
C587 C586 1.400 . S
C587 C588 1.398 . S
C587 C593 1.491 . S
C588 H579 0.950 . S
C588 C587 1.398 . S
C588 C589 1.391 . S
C589 H577 0.950 . S
C589 C585 1.393 . S
C589 C588 1.391 . S
C590 H580 0.950 . S
C590 C591 1.386 . S
C590 C592 1.391 . S
C591 C590 1.386 . S
C591 C595 1.393 . S
C592 H581 0.950 . S
C592 C590 1.391 . S
C592 C593 1.400 . S
C593 C587 1.491 . S
C593 C592 1.400 . S
C593 C594 1.398 . S
C594 H582 0.950 . S
C594 C593 1.398 . S
C594 C595 1.391 . S
C595 H583 0.950 . S
C595 C591 1.393 . S
C595 C594 1.391 . S
H596 C604 0.950 . S
H597 C609 0.950 . S
H598 C606 0.950 . S
H599 C608 0.950 . S
H600 C610 0.950 . S
H601 C612 0.950 . S
H602 C614 0.950 . S
H603 C615 0.950 . S
C604 H596 0.950 . S
C604 C605 1.386 . S
C604 C606 1.391 . S
C605 C604 1.386 . S
C605 C609 1.393 . S
C606 H598 0.950 . S
C606 C604 1.391 . S
C606 C607 1.400 . S
C607 C606 1.400 . S
C607 C608 1.398 . S
C607 C613 1.491 . S
C608 H599 0.950 . S
C608 C607 1.398 . S
C608 C609 1.391 . S
C609 H597 0.950 . S
C609 C605 1.393 . S
C609 C608 1.391 . S
C610 H600 0.950 . S
C610 C611 1.386 . S
C610 C612 1.391 . S
C611 C610 1.386 . S
C611 C615 1.393 . S
C612 H601 0.950 . S
C612 C610 1.391 . S
C612 C613 1.400 . S
C613 C607 1.491 . S
C613 C612 1.400 . S
C613 C614 1.398 . S
C614 H602 0.950 . S
C614 C613 1.398 . S
C614 C615 1.391 . S
C615 H603 0.950 . S
C615 C611 1.393 . S
C615 C614 1.391 . S
H616 C624 0.950 . S
H617 C629 0.950 . S
H618 C626 0.950 . S
H619 C628 0.950 . S
H620 C630 0.950 . S
H621 C632 0.950 . S
H622 C634 0.950 . S
H623 C635 0.950 . S
C624 H616 0.950 . S
C624 C625 1.386 . S
C624 C626 1.391 . S
C625 C624 1.386 . S
C625 C629 1.393 . S
C626 H618 0.950 . S
C626 C624 1.391 . S
C626 C627 1.400 . S
C627 C626 1.400 . S
C627 C628 1.398 . S
C627 C633 1.491 . S
C628 H619 0.950 . S
C628 C627 1.398 . S
C628 C629 1.391 . S
C629 H617 0.950 . S
C629 C625 1.393 . S
C629 C628 1.391 . S
C630 H620 0.950 . S
C630 C631 1.386 . S
C630 C632 1.391 . S
C631 C630 1.386 . S
C631 C635 1.393 . S
C632 H621 0.950 . S
C632 C630 1.391 . S
C632 C633 1.400 . S
C633 C627 1.491 . S
C633 C632 1.400 . S
C633 C634 1.398 . S
C634 H622 0.950 . S
C634 C633 1.398 . S
C634 C635 1.391 . S
C635 H623 0.950 . S
C635 C631 1.393 . S
C635 C634 1.391 . S
C165 C138 1.440 . S
C171 C8 1.433 . S
C185 C21 1.320 . S
C191 C151 1.340 . S
C205 C34 1.442 . S
C211 C86 1.452 . S
C225 C99 1.423 . S
C231 C47 1.457 . S
C245 C112 1.341 . S
C251 C60 1.341 . S
C265 C73 1.441 . S
C271 C125 1.433 . S
C285 C0 0.892 . S
C291 C91 0.894 . S
C305 C13 0.798 . S
C311 C104 0.794 . S
C325 C117 0.894 . S
C331 C26 0.894 . S
C345 C130 0.900 . S
C351 C39 0.903 . S
C365 C143 0.775 . S
C371 C52 0.802 . S
C385 C78 0.865 . S
C391 C65 0.904 . S
C405 C10 0.863 . S
C411 C57 0.797 . S
C425 C23 0.826 . S
C431 C70 0.858 . S
C445 C36 0.810 . S
C451 C5 0.850 . S
C465 C49 0.828 . S
C471 C18 0.859 . S
C485 C62 0.825 . S
C491 C31 0.859 . S
C505 C75 0.861 . S
C511 C44 0.807 . S
C525 C88 0.830 . S
C531 C109 0.861 . S
C545 C101 0.863 . S
C551 C122 0.797 . S
C565 C135 0.842 . S
C571 C114 0.836 . S
C585 C127 0.859 . S
C591 C148 0.798 . S
C605 C140 0.835 . S
C611 C83 0.807 . S
C625 C153 0.868 . S
C631 C96 0.819 . S
