# Generated by pormake.
# Topology wkj, (6)-cn, num edge types: 1
# Building blocks:
#     Node 0, Type 0, BuildingBlock: FUNLAD_clean_sbu_0, # of connection points: 6
#     Node 1, Type 0, BuildingBlock: FUNLAD_clean_sbu_0, # of connection points: 6
#     Node 2, Type 0, BuildingBlock: FUNLAD_clean_sbu_0, # of connection points: 6
#     Node 3, Type 0, BuildingBlock: FUNLAD_clean_sbu_0, # of connection points: 6
#     Node 4, Type 0, BuildingBlock: FUNLAD_clean_sbu_0, # of connection points: 6
#     Node 5, Type 0, BuildingBlock: FUNLAD_clean_sbu_0, # of connection points: 6
#     Node 6, Type 0, BuildingBlock: FUNLAD_clean_sbu_0, # of connection points: 6
#     Node 7, Type 0, BuildingBlock: FUNLAD_clean_sbu_0, # of connection points: 6
#     Node 8, Type 0, BuildingBlock: FUNLAD_clean_sbu_0, # of connection points: 6
#     Node 9, Type 0, BuildingBlock: FUNLAD_clean_sbu_0, # of connection points: 6
#     Node 10, Type 0, BuildingBlock: FUNLAD_clean_sbu_0, # of connection points: 6
#     Node 11, Type 0, BuildingBlock: FUNLAD_clean_sbu_0, # of connection points: 6
#     Edge 12, Type (0, 0), BuildingBlock: OJICUG_clean_linker_0, # of connection points: 2
#     Edge 13, Type (0, 0), BuildingBlock: OJICUG_clean_linker_0, # of connection points: 2
#     Edge 14, Type (0, 0), BuildingBlock: OJICUG_clean_linker_0, # of connection points: 2
#     Edge 15, Type (0, 0), BuildingBlock: OJICUG_clean_linker_0, # of connection points: 2
#     Edge 16, Type (0, 0), BuildingBlock: OJICUG_clean_linker_0, # of connection points: 2
#     Edge 17, Type (0, 0), BuildingBlock: OJICUG_clean_linker_0, # of connection points: 2
#     Edge 18, Type (0, 0), BuildingBlock: OJICUG_clean_linker_0, # of connection points: 2
#     Edge 19, Type (0, 0), BuildingBlock: OJICUG_clean_linker_0, # of connection points: 2
#     Edge 20, Type (0, 0), BuildingBlock: OJICUG_clean_linker_0, # of connection points: 2
#     Edge 21, Type (0, 0), BuildingBlock: OJICUG_clean_linker_0, # of connection points: 2
#     Edge 22, Type (0, 0), BuildingBlock: OJICUG_clean_linker_0, # of connection points: 2
#     Edge 23, Type (0, 0), BuildingBlock: OJICUG_clean_linker_0, # of connection points: 2
#     Edge 24, Type (0, 0), BuildingBlock: OJICUG_clean_linker_0, # of connection points: 2
#     Edge 25, Type (0, 0), BuildingBlock: OJICUG_clean_linker_0, # of connection points: 2
#     Edge 26, Type (0, 0), BuildingBlock: OJICUG_clean_linker_0, # of connection points: 2
#     Edge 27, Type (0, 0), BuildingBlock: OJICUG_clean_linker_0, # of connection points: 2
#     Edge 28, Type (0, 0), BuildingBlock: OJICUG_clean_linker_0, # of connection points: 2
#     Edge 29, Type (0, 0), BuildingBlock: OJICUG_clean_linker_0, # of connection points: 2
#     Edge 30, Type (0, 0), BuildingBlock: OJICUG_clean_linker_0, # of connection points: 2
#     Edge 31, Type (0, 0), BuildingBlock: OJICUG_clean_linker_0, # of connection points: 2
#     Edge 32, Type (0, 0), BuildingBlock: OJICUG_clean_linker_0, # of connection points: 2
#     Edge 33, Type (0, 0), BuildingBlock: OJICUG_clean_linker_0, # of connection points: 2
#     Edge 34, Type (0, 0), BuildingBlock: OJICUG_clean_linker_0, # of connection points: 2
#     Edge 35, Type (0, 0), BuildingBlock: OJICUG_clean_linker_0, # of connection points: 2
#     Edge 36, Type (0, 0), BuildingBlock: OJICUG_clean_linker_0, # of connection points: 2
#     Edge 37, Type (0, 0), BuildingBlock: OJICUG_clean_linker_0, # of connection points: 2
#     Edge 38, Type (0, 0), BuildingBlock: OJICUG_clean_linker_0, # of connection points: 2
#     Edge 39, Type (0, 0), BuildingBlock: OJICUG_clean_linker_0, # of connection points: 2
#     Edge 40, Type (0, 0), BuildingBlock: OJICUG_clean_linker_0, # of connection points: 2
#     Edge 41, Type (0, 0), BuildingBlock: OJICUG_clean_linker_0, # of connection points: 2
#     Edge 42, Type (0, 0), BuildingBlock: OJICUG_clean_linker_0, # of connection points: 2
#     Edge 43, Type (0, 0), BuildingBlock: OJICUG_clean_linker_0, # of connection points: 2
#     Edge 44, Type (0, 0), BuildingBlock: OJICUG_clean_linker_0, # of connection points: 2
#     Edge 45, Type (0, 0), BuildingBlock: OJICUG_clean_linker_0, # of connection points: 2
#     Edge 46, Type (0, 0), BuildingBlock: OJICUG_clean_linker_0, # of connection points: 2
#     Edge 47, Type (0, 0), BuildingBlock: OJICUG_clean_linker_0, # of connection points: 2
# Relax obj value: 1.488
# Max RMSD: 0.256
# Mean RMSD: 0.256
data_MOF--net-wkj--node1-FUNLAD_clean_sbu_0--edge1-OJICUG_clean_linker_0
_symmetry_space_group_name_H-M    P1
_symmetry_Int_Tables_number       1
_symmetry_cell_setting            triclinic
loop_
_symmetry_equiv_pos_as_xyz
'x, y, z'
_cell_length_a     54.576849
_cell_length_b     53.431826
_cell_length_c     14.852428
_cell_angle_alpha  90.027874
_cell_angle_beta   90.069387
_cell_angle_gamma 119.36368
loop_
_atom_site_label
_atom_site_type_symbol
_atom_site_fract_x
_atom_site_fract_y
_atom_site_fract_z
_atom_type_partial_charge
C0 C 0.55176 0.10964 0.16447 0.0
N1 N 0.50113 0.15096 0.23188 0.0
C2 C 0.52562 0.17564 0.21512 0.0
C3 C 0.52577 0.20153 0.19711 0.0
C4 C 0.50049 0.20257 0.19599 0.0
C5 C 0.47539 0.17659 0.21161 0.0
C6 C 0.47619 0.15106 0.22977 0.0
Zn7 Zn 0.50446 0.11453 0.2705 0.0
C8 C 0.46412 0.05731 0.15643 0.0
N9 N 0.50175 0.04138 0.36069 0.0
C10 C 0.50565 1.02006 0.32832 0.0
C11 C 0.4989 0.04352 0.45139 0.0
C12 C 0.50993 0.03174 0.51024 0.0
C13 C 0.52577 1.02046 0.47256 0.0
C14 C 0.51707 1.00804 0.38674 0.0
Zn15 Zn 0.50484 0.07511 0.29162 0.0
O16 O 0.53878 0.12429 0.16542 0.0
C17 C 0.54574 0.12701 0.41627 0.0
O18 O 0.54236 0.08752 0.21545 0.0
H19 H 0.49372 0.059 0.47908 0.0
H20 H 0.54535 0.17548 0.21734 0.0
H21 H 0.50415 1.01587 0.25681 0.0
O22 O 0.53961 0.14246 0.36595 0.0
O23 O 0.53217 0.10019 0.40307 0.0
H24 H 0.45688 0.13147 0.24403 0.0
O25 O 0.46755 0.06124 0.35501 0.0
O26 O 0.4714 0.10245 0.38421 0.0
O27 O 0.48076 0.04979 0.19026 0.0
O28 O 0.46839 0.0829 0.17382 0.0
C29 C 0.45824 0.07516 0.39554 0.0
H30 H 0.54569 0.22061 0.18412 0.0
H31 H 0.45532 0.17607 0.21245 0.0
H32 H 0.51484 0.04142 0.57583 0.0
H33 H 0.52576 0.99612 0.35724 0.0
C34 C 0.43586 0.52099 0.46414 0.0
N35 N 0.35952 0.47951 0.59719 0.0
C36 C 0.35744 0.50384 0.59174 0.0
C37 C 0.33192 0.50254 0.56988 0.0
C38 C 0.3079 0.47592 0.55346 0.0
C39 C 0.3103 0.45095 0.56249 0.0
C40 C 0.33648 0.45325 0.58385 0.0
Zn41 Zn 0.40023 0.48628 0.61399 0.0
C42 C 0.40949 0.4396 0.5132 0.0
N43 N 0.47479 0.49768 0.62794 0.0
C44 C 0.49376 0.53316 0.5752 0.0
C45 C 0.48589 0.47504 0.68834 0.0
C46 C 0.52685 0.48632 0.71708 0.0
C47 C 0.56151 0.53371 0.65478 0.0
C48 C 0.53703 0.55694 0.57157 0.0
Zn49 Zn 0.43722 0.48734 0.62687 0.0
O50 O 0.41606 0.52173 0.50727 0.0
C51 C 0.43775 0.5382 0.72215 0.0
O52 O 0.44331 0.50347 0.49275 0.0
H53 H 0.47005 0.45499 0.7156 0.0
H54 H 0.37589 0.52455 0.602 0.0
H55 H 0.48304 0.54431 0.55261 0.0
O56 O 0.41091 0.5223 0.72163 0.0
O57 O 0.45125 0.52824 0.6817 0.0
H58 H 0.33853 0.43414 0.5874 0.0
O59 O 0.43315 0.4705 0.75389 0.0
O60 O 0.38852 0.44982 0.7213 0.0
O61 O 0.42752 0.44826 0.57524 0.0
O62 O 0.39454 0.45217 0.50474 0.0
C63 C 0.40867 0.45015 0.76806 0.0
H64 H 0.33109 0.52235 0.56526 0.0
H65 H 0.29238 0.42994 0.55013 0.0
H66 H 0.5325 0.47386 0.76124 0.0
H67 H 0.54388 0.5804 0.54965 0.0
C68 C 0.96194 0.45244 0.83474 0.0
N69 N 0.9192 0.36512 0.91853 0.0
C70 C 0.89423 0.36443 0.90416 0.0
C71 C 0.87018 0.33883 0.8798 0.0
C72 C 0.87148 0.31331 0.87021 0.0
C73 C 0.89752 0.31458 0.88604 0.0
C74 C 0.92119 0.34078 0.90984 0.0
Zn75 Zn 0.95351 0.40446 0.95584 0.0
C76 C 1.00836 0.41601 0.862 0.0
N77 N 1.02543 0.48484 0.03426 0.0
C78 C 1.02894 0.50384 0.96839 0.0
C79 C 1.02004 0.49048 0.11929 0.0
C80 C 1.00469 0.50506 0.12985 0.0
C81 C 0.99673 0.51382 0.05134 0.0
C82 C 1.01225 0.51688 0.97229 0.0
Zn83 Zn 0.99263 0.44463 0.99375 0.0
O84 O 0.94195 0.42725 0.85206 0.0
C85 C 0.94048 0.43591 0.09488 0.0
O86 O 0.98382 0.46243 0.88271 0.0
H87 H 1.02046 0.47757 0.17427 0.0
H88 H 0.89286 0.38383 0.91207 0.0
H89 H 0.03739 0.50237 0.90396 0.0
O90 O 0.92722 0.41096 0.05966 0.0
O91 O 0.96565 0.45184 0.07264 0.0
H92 H 0.94116 0.34163 0.92144 0.0
O93 O 1.00139 0.42634 0.09765 0.0
O94 O 0.96797 0.38359 0.05532 0.0
O95 O 1.01891 0.43686 0.91691 0.0
O96 O 0.98156 0.39997 0.85797 0.0
C97 C 0.98945 0.39933 0.1041 0.0
H98 H 0.85059 0.339 0.87 0.0
H99 H 0.8997 0.29559 0.87893 0.0
H100 H 0.99549 0.50495 0.19421 0.0
H101 H 1.00879 0.5258 0.91139 0.0
C102 C 0.52855 0.93704 0.11206 0.0
N103 N 0.57819 0.90324 0.24984 0.0
C104 C 0.55389 0.87761 0.2447 0.0
C105 C 0.5545 0.85169 0.23574 0.0
C106 C 0.58036 0.85175 0.23157 0.0
C107 C 0.60507 0.87854 0.23884 0.0
C108 C 0.60351 0.90394 0.24792 0.0
Zn109 Zn 0.57714 0.94227 0.24689 0.0
C110 C 0.61639 0.98083 0.09027 0.0
N111 N 0.58324 1.02226 0.19544 0.0
C112 C 0.56432 1.02989 0.22216 0.0
C113 C 0.61117 0.04231 0.19201 0.0
C114 C 0.6215 0.06679 0.24536 0.0
C115 C 0.60226 0.07005 0.29835 0.0
C116 C 0.5738 0.05517 0.27148 0.0
Zn117 Zn 0.57498 0.98087 0.20979 0.0
O118 O 0.54102 0.92354 0.14223 0.0
C119 C 0.53603 0.94654 0.374 0.0
O120 O 0.53909 0.96357 0.13013 0.0
H121 H 0.62617 0.03682 0.16585 0.0
H122 H 0.5339 0.87726 0.24514 0.0
H123 H 0.54235 1.01469 0.21523 0.0
O124 O 0.54408 0.92833 0.35431 0.0
O125 O 0.54699 0.97006 0.32912 0.0
H126 H 0.6227 0.92438 0.25144 0.0
O127 O 0.61152 0.99979 0.29391 0.0
O128 O 0.61025 0.96223 0.35398 0.0
O129 O 0.59943 0.99024 0.09658 0.0
O130 O 0.61276 0.96015 0.14213 0.0
C131 C 0.62161 0.98955 0.34999 0.0
H132 H 0.53477 0.83186 0.22929 0.0
H133 H 0.62554 0.87996 0.2374 0.0
H134 H 0.64379 0.07865 0.26032 0.0
H135 H 0.5586 0.05935 0.30401 0.0
C136 C 0.64122 0.52821 0.45324 0.0
N137 N 0.71472 0.57136 0.60169 0.0
C138 C 0.71673 0.54716 0.61339 0.0
C139 C 0.74229 0.54751 0.59947 0.0
C140 C 0.76629 0.57302 0.57296 0.0
C141 C 0.76382 0.59795 0.56434 0.0
C142 C 0.73774 0.59661 0.57863 0.0
Zn143 Zn 0.6747 0.56699 0.60347 0.0
C144 C 0.66877 0.60934 0.47613 0.0
N145 N 0.60168 0.55785 0.58233 0.0
C146 C 0.57973 0.52109 0.54161 0.0
C147 C 0.59482 0.5823 0.65023 0.0
C148 C 0.55719 0.57207 0.70853 0.0
C149 C 0.51912 0.52321 0.67032 0.0
C150 C 0.53721 0.49721 0.56944 0.0
Zn151 Zn 0.6378 0.56442 0.59347 0.0
O152 O 0.6587 0.52826 0.51068 0.0
C153 C 0.6333 0.51942 0.71995 0.0
O154 O 0.63332 0.54658 0.46357 0.0
H155 H 0.61209 0.60316 0.66595 0.0
H156 H 0.69819 0.5272 0.63071 0.0
H157 H 0.58887 0.50939 0.51136 0.0
O158 O 0.65982 0.53705 0.72572 0.0
O159 O 0.62035 0.52315 0.65566 0.0
H160 H 0.73569 0.61554 0.56821 0.0
O161 O 0.6412 0.58242 0.72045 0.0
O162 O 0.68638 0.60542 0.69704 0.0
O163 O 0.6512 0.60401 0.53784 0.0
O164 O 0.68301 0.59598 0.47866 0.0
C165 C 0.66498 0.60318 0.74022 0.0
H166 H 0.74312 0.52783 0.60843 0.0
H167 H 0.78157 0.61808 0.54327 0.0
H168 H 0.55458 0.58628 0.75456 0.0
H169 H 0.52895 0.4732 0.55137 0.0
C170 C 0.11976 0.60965 0.78784 0.0
N171 N 0.16095 0.69297 0.92114 0.0
C172 C 0.18453 0.6913 0.90189 0.0
C173 C 0.21 0.71616 0.88172 0.0
C174 C 0.21152 0.74327 0.88129 0.0
C175 C 0.18708 0.74436 0.90494 0.0
C176 C 0.16203 0.71898 0.92426 0.0
Zn177 Zn 0.12149 0.65564 0.92555 0.0
C178 C 0.08398 0.66019 0.77721 0.0
N179 N 0.04089 0.5866 0.89607 0.0
C180 C 1.02198 0.57966 0.82732 0.0
C181 C 1.03274 0.5857 0.98252 0.0
C182 C 1.00701 0.58302 1.00134 0.0
C183 C 0.98535 0.57144 0.93659 0.0
C184 C 0.99359 0.57073 0.8466 0.0
Zn185 Zn 0.08203 0.61737 0.89182 0.0
O186 O 0.13474 0.63566 0.81549 0.0
C187 C 0.11591 0.6076 0.04004 0.0
O188 O 0.09426 0.59515 0.81178 0.0
H189 H 0.04767 0.59216 0.03703 0.0
H190 H 0.18341 0.67054 0.8989 0.0
H191 H 1.02888 0.58172 0.75813 0.0
O192 O 0.13527 0.63328 0.02316 0.0
O193 O 0.09221 0.59856 1.00183 0.0
H194 H 0.14309 0.72002 0.938 0.0
O195 O 0.06834 0.64048 0.97222 0.0
O196 O 0.10585 0.67231 0.03929 0.0
O197 O 0.07255 0.63337 0.78439 0.0
O198 O 0.10508 0.67604 0.82706 0.0
C199 C 0.07914 0.65977 0.03091 0.0
H200 H 0.22824 0.71408 0.86548 0.0
H201 H 0.18689 0.76453 0.9048 0.0
H202 H 1.00364 0.58655 0.07066 0.0
H203 H 0.97825 0.56279 0.79266 0.0
C204 C 0.97 0.53807 0.57574 0.0
N205 N 0.9221 0.57358 0.45439 0.0
C206 C 0.89848 0.5484 0.47387 0.0
C207 C 0.87294 0.54783 0.49129 0.0
C208 C 0.8714 0.57339 0.48865 0.0
C209 C 0.89607 0.59895 0.46663 0.0
C210 C 0.92119 0.59857 0.45002 0.0
Zn211 Zn 0.96069 0.57473 0.44031 0.0
C212 C 1.00626 0.62365 0.5331 0.0
N213 N 0.04024 0.58196 0.40816 0.0
C214 C 0.05849 0.59504 0.50521 0.0
C215 C 0.05264 0.58535 0.30204 0.0
C216 C 0.09072 0.60624 0.27868 0.0
C217 C 0.11544 0.62503 0.38423 0.0
C218 C 0.09731 0.61698 0.50449 0.0
Zn219 Zn 0.99997 0.5742 0.41778 0.0
O220 O 0.95036 0.54301 0.5504 0.0
C221 C 0.95547 0.52312 0.32899 0.0
O222 O 0.99363 0.55114 0.53636 0.0
H223 H 0.03816 0.57707 0.24592 0.0
H224 H 0.89954 0.52874 0.47779 0.0
H225 H 0.0474 0.59264 0.5677 0.0
O226 O 0.94222 0.53689 0.34622 0.0
O227 O 0.98145 0.53459 0.34975 0.0
H228 H 0.94012 0.61844 0.43502 0.0
O229 O 1.00746 0.59684 0.30032 0.0
O230 O 0.97505 0.60834 0.32832 0.0
O231 O 1.01773 0.61276 0.48588 0.0
O232 O 0.97956 0.61059 0.53735 0.0
C233 C 0.99667 0.61236 0.283 0.0
H234 H 0.85476 0.52758 0.50901 0.0
H235 H 0.89606 0.61916 0.46212 0.0
H236 H 0.09828 0.61193 0.21071 0.0
H237 H 0.10871 0.62822 0.56434 0.0
C238 C 0.43198 0.91901 0.91716 0.0
N239 N 0.36624 0.89781 0.74395 0.0
C240 C 0.36429 0.87158 0.73274 0.0
C241 C 0.33865 0.84624 0.74643 0.0
C242 C 0.3145 0.84762 0.77228 0.0
C243 C 0.31683 0.87506 0.77767 0.0
C244 C 0.34291 0.89985 0.76363 0.0
Zn245 Zn 0.4059 0.9336 0.7654 0.0
C246 C 0.40104 0.97316 0.90813 0.0
N247 N 0.47347 0.99737 0.87025 0.0
C248 C 0.49521 0.98114 0.89934 0.0
C249 C 0.4803 0.03027 0.81286 0.0
C250 C 0.51677 0.05746 0.74882 0.0
C251 C 0.55444 0.04439 0.76828 0.0
C252 C 0.53701 0.99879 0.86093 0.0
Zn253 Zn 0.44083 0.96835 0.80512 0.0
O254 O 0.41837 0.90572 0.84725 0.0
C255 C 0.45394 0.93647 0.65716 0.0
O256 O 0.43738 0.94466 0.92452 0.0
H257 H 0.46315 0.03463 0.80593 0.0
H258 H 0.38307 0.87021 0.71926 0.0
H259 H 0.48636 0.96058 0.92984 0.0
O260 O 0.42728 0.92612 0.64646 0.0
O261 O 0.46481 0.9509 0.72935 0.0
H262 H 0.34482 0.92078 0.77406 0.0
O263 O 0.44403 0.99345 0.69128 0.0
O264 O 0.3986 0.96507 0.67723 0.0
O265 O 0.42195 0.98817 0.86126 0.0
O266 O 0.38895 0.94594 0.89449 0.0
C267 C 0.42093 0.98875 0.65632 0.0
H268 H 0.33829 0.82585 0.74204 0.0
H269 H 0.29888 0.87748 0.79547 0.0
H270 H 0.51885 0.07475 0.70592 0.0
H271 H 0.54536 0.98294 0.8727 0.0
C272 C 0.54898 0.45241 0.23228 0.0
N273 N 0.50189 0.36506 0.11294 0.0
C274 C 0.52664 0.36461 0.11615 0.0
C275 C 0.52694 0.33855 0.12698 0.0
C276 C 0.50155 0.31233 0.13517 0.0
C277 C 0.47637 0.31357 0.13046 0.0
C278 C 0.47702 0.34004 0.11928 0.0
Zn279 Zn 0.5009 0.40418 0.10622 0.0
C280 C 0.46262 0.40687 0.25393 0.0
N281 N 0.49418 0.47874 0.1178 0.0
C282 C 0.47949 0.48097 0.18891 0.0
C283 C 0.48604 0.47979 0.0322 0.0
C284 C 0.45963 0.47667 1.01589 0.0
C285 C 0.4435 0.47898 0.08702 0.0
C286 C 0.45373 0.48028 0.1752 0.0
Zn287 Zn 0.50408 0.44662 0.12292 0.0
O288 O 0.5367 0.42551 0.21095 0.0
C289 C 0.54406 0.44917 0.97521 0.0
O290 O 0.5387 0.46774 0.2038 0.0
H291 H 0.49734 0.47745 0.9761 0.0
H292 H 0.54629 0.38455 0.11134 0.0
H293 H 0.48656 0.48105 0.25704 0.0
O294 O 0.53476 0.42297 0.99976 0.0
O295 O 0.53292 0.46303 1.00994 0.0
H296 H 0.45747 0.34057 0.1173 0.0
O297 O 0.46789 0.42531 0.04209 0.0
O298 O 0.4666 0.38631 0.998 0.0
O299 O 0.47861 0.43256 0.23361 0.0
O300 O 0.4661 0.38771 0.21334 0.0
C301 C 0.45608 0.40301 0.99522 0.0
H302 H 0.547 0.33906 0.12858 0.0
H303 H 0.45618 0.29434 0.13766 0.0
H304 H 0.45316 0.47449 0.9462 0.0
H305 H 0.44268 0.48222 0.23291 0.0
C306 C 0.12723 0.5331 0.55161 0.0
N307 N 0.15532 0.48055 0.42848 0.0
C308 C 0.18092 0.50475 0.42642 0.0
C309 C 0.20561 0.50332 0.44017 0.0
C310 C 0.2043 0.47668 0.45588 0.0
C311 C 0.17757 0.45192 0.45426 0.0
C312 C 0.15333 0.45435 0.44076 0.0
Zn313 Zn 0.11948 0.48512 0.4315 0.0
C314 C 0.07908 0.44886 0.57906 0.0
N315 N 0.0446 0.49222 0.45286 0.0
C316 C 0.04655 0.50829 0.52611 0.0
C317 C 0.03908 0.49943 0.37089 0.0
C318 C 0.04827 0.52828 0.35347 0.0
C319 C 0.0593 0.54803 0.42501 0.0
C320 C 0.05597 0.53741 0.5135 0.0
Zn321 Zn 0.07975 0.48747 0.44311 0.0
O322 O 0.14099 0.52089 0.52592 0.0
C323 C 0.11691 0.52438 0.29002 0.0
O324 O 0.10215 0.52328 0.52568 0.0
H325 H 1.03565 0.48528 0.31487 0.0
H326 H 0.1822 0.52545 0.41781 0.0
H327 H 0.04861 0.50109 0.59236 0.0
O328 O 0.13451 0.51666 0.31687 0.0
O329 O 0.0934 0.51407 0.32921 0.0
H330 H 0.13285 0.43533 0.44311 0.0
O331 O 0.05818 0.45227 0.36591 0.0
O332 O 0.0957 0.44818 0.33878 0.0
O333 O 0.06622 0.46148 0.55052 0.0
O334 O 0.1028 0.45468 0.54521 0.0
C335 C 0.06919 0.43862 0.33067 0.0
H336 H 0.22545 0.52317 0.44206 0.0
H337 H 0.17527 0.43082 0.46446 0.0
H338 H 0.05049 0.53527 0.28415 0.0
H339 H 0.06414 0.55169 0.57086 0.0
C340 C 0.6451 0.12551 0.92915 0.0
N341 N 0.71447 0.15866 0.76079 0.0
C342 C 0.71667 0.18517 0.7603 0.0
C343 C 0.74274 0.20994 0.77191 0.0
C344 C 0.7672 0.2078 0.7846 0.0
C345 C 0.7644 0.18012 0.78329 0.0
C346 C 0.73776 0.15577 0.77135 0.0
Zn347 Zn 0.67372 0.12395 0.7606 0.0
C348 C 0.66939 0.06958 0.85733 0.0
N349 N 0.59975 0.062 0.7919 0.0
C350 C 0.58362 0.07915 0.85872 0.0
C351 C 0.58562 1.02861 0.7278 0.0
C352 C 0.54381 1.00041 0.70932 0.0
C353 C 0.51222 1.01382 0.79085 0.0
C354 C 0.54054 0.06076 0.87739 0.0
Zn355 Zn 0.63674 0.08858 0.76743 0.0
O356 O 0.66138 0.1453 0.87538 0.0
C357 C 0.63121 0.13463 0.66588 0.0
O358 O 0.63797 0.10035 0.90426 0.0
H359 H 0.59998 1.02416 0.69078 0.0
H360 H 0.69794 0.18711 0.75399 0.0
H361 H 0.59501 0.1015 0.87399 0.0
O362 O 0.65783 0.14516 0.65634 0.0
O363 O 0.61953 0.11434 0.72142 0.0
H364 H 0.73564 0.13456 0.77282 0.0
O365 O 0.6353 0.07356 0.63659 0.0
O366 O 0.68118 0.09903 0.64692 0.0
O367 O 0.64845 0.06031 0.80624 0.0
O368 O 0.68484 0.09716 0.8642 0.0
C369 C 0.65924 0.07861 0.60848 0.0
H370 H 0.74346 0.23054 0.77417 0.0
H371 H 0.78256 0.17723 0.79199 0.0
H372 H 0.53656 0.98325 0.66099 0.0
H373 H 0.53482 0.07718 0.9076 0.0
C374 C 0.5233 0.60375 0.22009 0.0
N375 N 0.57633 0.68935 0.12595 0.0
C376 C 0.55271 0.69185 0.13335 0.0
C377 C 0.55427 0.71823 0.15273 0.0
C378 C 0.58044 0.74304 0.16525 0.0
C379 C 0.60469 0.7401 0.15639 0.0
C380 C 0.60217 0.71299 0.13696 0.0
Zn381 Zn 0.56746 0.64681 0.09664 0.0
C382 C 0.60582 0.62754 0.20071 0.0
N383 N 0.54824 0.56073 0.03009 0.0
C384 C 0.53097 0.54593 0.09824 0.0
C385 C 0.53733 0.55542 0.94516 0.0
C386 C 0.50877 0.54737 0.93297 0.0
C387 C 0.49235 0.54351 1.01011 0.0
C388 C 0.50334 0.54054 0.09284 0.0
Zn389 Zn 0.56143 0.60345 0.06398 0.0
O390 O 0.53191 0.63006 0.20127 0.0
C391 C 0.52185 0.61906 0.95701 0.0
O392 O 0.53417 0.59144 0.17647 0.0
H393 H 0.55141 0.56266 0.88854 0.0
H394 H 0.53226 0.67321 0.12388 0.0
H395 H 0.53975 0.5457 0.1634 0.0
O396 O 0.53591 0.64427 0.98975 0.0
O397 O 0.5294 0.60126 0.97962 0.0
H398 H 0.62085 0.71093 0.13093 0.0
O399 O 0.58854 0.61503 0.95923 0.0
O400 O 0.604 0.66025 0.99426 0.0
O401 O 0.59347 0.60622 0.14768 0.0
O402 O 0.59831 0.647 0.20018 0.0
C403 C 0.60684 0.64103 0.94967 0.0
H404 H 0.5349 0.71913 0.15649 0.0
H405 H 0.62542 0.75845 0.16566 0.0
H406 H 0.50088 0.54772 0.86642 0.0
H407 H 0.49112 0.53488 0.15336 0.0
C408 C 0.52235 0.25671 0.21468 0.0
C409 C 0.50057 0.2306 0.1803 0.0
H410 H 0.53958 0.30218 0.22955 0.0
C411 C 0.47908 0.23173 0.13075 0.0
H412 H 0.53905 0.25694 0.25468 0.0
C413 C 0.47947 0.25797 0.1157 0.0
C414 C 0.50128 0.28412 0.15005 0.0
H415 H 0.46211 0.21233 0.10196 0.0
H416 H 0.46276 0.25771 0.07571 0.0
C417 C 0.52268 0.2829 0.19998 0.0
C418 C 0.28127 0.49452 0.46198 0.0
C419 C 0.28097 0.4747 0.525 0.0
H420 H 0.25777 0.51015 0.38877 0.0
C421 C 0.25496 0.45451 0.56187 0.0
H422 H 0.30079 0.51003 0.43072 0.0
C423 C 0.23011 0.45478 0.53855 0.0
C424 C 0.23049 0.47508 0.47692 0.0
H425 H 0.25393 0.43906 0.61102 0.0
H426 H 0.21073 0.43958 0.57113 0.0
C427 C 0.25647 0.49463 0.43805 0.0
C428 C 0.83948 0.25947 0.88489 0.0
C429 C 0.84573 0.28578 0.84437 0.0
H430 H 0.80999 0.21457 0.89923 0.0
C431 C 0.82665 0.28574 0.78045 0.0
H432 H 0.85349 0.25861 0.93496 0.0
C433 C 0.80177 0.26045 0.7595 0.0
C434 C 0.795 0.23428 0.80201 0.0
H435 H 0.83093 0.30537 0.74625 0.0
H436 H 0.78778 0.26149 0.70978 0.0
C437 C 0.81447 0.23411 0.86416 0.0
C438 C 0.56115 0.77238 0.24123 0.0
C439 C 0.5818 0.77138 0.18661 0.0
H440 H 0.54467 0.7978 0.29922 0.0
C441 C 0.60277 0.79748 0.15 0.0
H442 H 0.54497 0.75304 0.27268 0.0
C443 C 0.60258 0.82344 0.16541 0.0
C444 C 0.58144 0.82424 0.21813 0.0
H445 H 0.6189 0.79777 0.10695 0.0
H446 H 0.61862 0.84278 0.13361 0.0
C447 C 0.56095 0.79824 0.25655 0.0
C448 C 0.79308 0.55005 0.50576 0.0
C449 C 0.79329 0.57325 0.55155 0.0
H450 H 0.81702 0.53207 0.44845 0.0
C451 C 0.8195 0.59663 0.57583 0.0
H452 H 0.77342 0.53189 0.48427 0.0
C453 C 0.84466 0.59669 0.55556 0.0
C454 C 0.84446 0.57344 0.50984 0.0
H455 H 0.82058 0.61474 0.61204 0.0
H456 H 0.86429 0.61483 0.57732 0.0
C457 C 0.81822 0.55016 0.48514 0.0
C458 C 0.27936 0.79433 0.75606 0.0
C459 C 0.28774 0.82092 0.79862 0.0
H460 H 0.24911 0.74949 0.74747 0.0
C461 C 0.27073 0.82154 0.86909 0.0
H462 H 0.29149 0.79281 0.70083 0.0
C463 C 0.24627 0.79655 0.8959 0.0
C464 C 0.23797 0.76998 0.85355 0.0
H465 H 0.27658 0.84127 0.90531 0.0
H466 H 0.23412 0.79802 0.95115 0.0
C467 C 0.25494 0.76932 0.78311 0.0
C468 C 0.6114 0.1025 0.05523 0.0
C469 C 0.62724 0.12772 1.00459 0.0
H470 H 0.57311 0.07538 0.12153 0.0
C471 C 0.61842 0.14866 1.00939 0.0
H472 H 0.61627 0.08514 0.05233 0.0
C473 C 0.59442 0.14383 0.06195 0.0
C474 C 0.57774 0.11734 0.10694 0.0
H475 H 0.62911 0.16802 0.96948 0.0
H476 H 0.58844 0.16037 0.0647 0.0
C477 C 0.58655 0.09686 0.09876 0.0
C478 C 0.49898 0.55913 0.31156 0.0
C479 C 0.5006 0.58535 0.28746 0.0
H480 H 0.47598 0.51786 0.36949 0.0
C481 C 0.47904 0.59042 0.32041 0.0
H482 H 0.51516 0.55415 0.29127 0.0
C483 C 0.45686 0.56958 0.37553 0.0
C484 C 0.45511 0.54276 0.39507 0.0
H485 H 0.47925 0.61023 0.30366 0.0
H486 H 0.44141 0.57456 0.40322 0.0
C487 C 0.47623 0.53798 0.35854 0.0
C488 C 0.98777 0.493 0.72987 0.0
C489 C 0.96158 0.47171 0.76237 0.0
H490 H 1.01083 0.53047 0.65099 0.0
C491 C 0.93728 0.47244 0.7339 0.0
H492 H 1.00704 0.49335 0.74993 0.0
C493 C 0.93951 0.49437 0.67507 0.0
C494 C 0.96605 0.51582 0.64412 0.0
H495 H 0.91683 0.45671 0.75899 0.0
H496 H 0.92058 0.49444 0.65356 0.0
C497 C 0.98998 0.5146 0.67283 0.0
C498 C 0.45348 0.91969 0.0659 0.0
C499 C 0.44895 0.91013 0.97586 0.0
H500 H 0.48192 0.93553 0.17794 0.0
C501 C 0.46888 0.90363 0.93711 0.0
H502 H 0.43917 0.9256 0.09767 0.0
C503 C 0.49403 0.90977 0.98359 0.0
C504 C 0.49965 0.92228 0.07013 0.0
H505 H 0.46679 0.89723 0.86708 0.0
H506 H 0.51004 0.90714 0.94875 0.0
C507 C 0.47837 0.92582 0.11171 0.0
C508 C 0.59656 0.49529 0.2497 0.0
C509 C 0.57677 0.46774 0.28044 0.0
H510 H 0.63336 0.53536 0.27831 0.0
C511 C 0.58281 0.45793 0.36109 0.0
H512 H 0.59286 0.50357 0.1876 0.0
C513 C 0.60672 0.47645 0.41346 0.0
C514 C 0.62504 0.505 0.38582 0.0
H515 H 0.56799 0.43697 0.38721 0.0
H516 H 0.60918 0.46944 0.47962 0.0
C517 C 0.62019 0.5135 0.30119 0.0
C518 C 0.12494 0.56668 0.76585 0.0
C519 C 0.13159 0.59433 0.7366 0.0
H520 H 0.1198 0.52563 0.72945 0.0
C521 C 0.1443 0.60381 0.65215 0.0
H522 H 0.11518 0.55888 0.83093 0.0
C523 C 0.14709 0.58458 0.59392 0.0
C524 C 0.13752 0.55594 0.62009 0.0
H525 H 0.14961 0.625 0.62808 0.0
H526 H 0.15435 0.59126 0.52585 0.0
C527 C 0.12794 0.54772 0.7083 0.0
C528 C 0.41161 0.98262 0.0697 0.0
C529 C 0.40088 0.98854 0.99174 0.0
H530 H 0.44009 0.9996 0.1807 0.0
C531 C 0.40591 1.01712 0.98098 0.0
H532 H 0.40883 0.96131 0.08025 0.0
C533 C 0.42496 0.03975 0.0372 0.0
C534 C 0.43902 0.03422 0.10686 0.0
H535 H 0.39839 1.02272 0.92088 0.0
H536 H 0.43044 0.06164 1.02114 0.0
C537 C 0.43051 1.00507 0.12575 0.0
C538 C 0.42163 0.41375 0.28808 0.0
C539 C 0.43868 0.40179 0.31432 0.0
H540 H 0.39863 0.43506 0.32936 0.0
C541 C 0.43945 0.39608 0.40599 0.0
H542 H 0.42095 0.41894 0.21794 0.0
C543 C 0.42608 0.40482 0.46993 0.0
C544 C 0.41214 0.42025 0.44457 0.0
H545 H 0.45284 0.38772 0.42931 0.0
H546 H 0.42928 0.40217 0.54051 0.0
C547 C 0.40868 0.42304 0.35212 0.0
C548 C 0.03681 0.40821 0.64085 0.0
C549 C 0.06542 0.42853 0.65281 0.0
H550 H 0.9956 0.38819 0.69905 0.0
C551 C 0.07574 0.43726 0.74002 0.0
H552 H 1.02841 0.40131 0.57362 0.0
C553 C 0.05693 0.42981 0.81185 0.0
C554 C 1.02766 0.41375 0.7968 0.0
H555 H 0.09761 0.45308 0.75082 0.0
H556 H 0.06515 0.43938 0.87707 0.0
C557 C 1.01792 0.40094 0.71247 0.0
C558 C 0.66144 1.02658 0.06813 0.0
C559 C 0.64215 0.99883 0.03543 0.0
H560 H 0.68519 0.07192 0.03812 0.0
C561 C 0.64094 0.99467 0.94214 0.0
H562 H 0.6635 0.03048 0.14001 0.0
C563 C 0.65525 1.01814 0.88369 0.0
C564 C 0.66968 0.0468 0.91637 0.0
H565 H 0.62631 0.97392 0.91387 0.0
H566 H 0.65143 1.01414 0.81211 0.0
C567 C 0.67436 0.05051 1.00962 0.0
C568 C 0.65651 0.60649 0.31229 0.0
C569 C 0.66339 0.62197 0.39344 0.0
H570 H 0.63294 0.59588 0.18919 0.0
C571 C 0.65457 0.6427 0.40408 0.0
H572 H 0.66216 0.58988 0.30226 0.0
C573 C 0.63732 0.64596 0.33963 0.0
C574 C 0.62814 0.62839 0.26271 0.0
H575 H 0.65889 0.65461 0.46658 0.0
H576 H 0.62966 0.66082 0.35323 0.0
C577 C 0.63908 0.60955 0.24822 0.0
C578 C 0.04009 0.66015 0.74729 0.0
C579 C 0.06838 0.67049 0.72181 0.0
H580 H 0.99694 0.63589 0.7055 0.0
C581 C 0.07517 0.67528 0.63041 0.0
H582 H 1.03427 0.65617 0.81775 0.0
C583 C 0.05369 0.66444 0.56588 0.0
C584 C 1.02527 0.64787 0.59218 0.0
H585 H 0.09663 0.68305 0.60852 0.0
H586 H 0.05954 0.66522 0.49589 0.0
C587 C 1.01851 0.64828 0.68287 0.0
C588 C 0.56883 0.06884 0.48292 0.0
C589 C 0.55663 0.03843 0.48358 0.0
H590 H 0.60051 0.10712 0.42254 0.0
C591 C 0.57435 1.0269 0.47029 0.0
H592 H 0.55667 0.07906 0.4994 0.0
C593 C 0.6006 0.04446 0.43194 0.0
C594 C 0.60648 0.07132 0.39675 0.0
H595 H 0.56653 1.00403 0.47584 0.0
H596 H 0.61047 0.03353 0.403 0.0
C597 C 0.59488 0.08562 0.44263 0.0
C598 C 0.54799 0.53523 0.45938 0.0
C599 C 0.55732 0.54864 0.56705 0.0
H600 H 0.50743 0.50023 0.41632 0.0
C601 C 0.56229 0.53352 0.68656 0.0
H602 H 0.55486 0.54843 0.39946 0.0
C603 C 0.52058 0.5243 0.70194 0.0
C604 C 0.51681 0.50545 0.58118 0.0
H605 H 0.57364 0.54079 0.78008 0.0
H606 H 0.51632 0.5191 0.8007 0.0
C607 C 0.51806 0.51527 0.47051 0.0
C608 C 0.95443 0.5068 0.96566 0.0
C609 C 0.97054 0.51579 0.0457 0.0
H610 H 0.93702 0.52087 0.86049 0.0
C611 C 0.96594 0.53418 0.10252 0.0
H612 H 0.95358 0.48967 0.92571 0.0
C613 C 0.95338 0.54937 0.06404 0.0
C614 C 0.95558 0.55171 0.96904 0.0
H615 H 0.97675 0.54124 0.16618 0.0
H616 H 0.95356 0.56659 0.10305 0.0
C617 C 0.94462 0.52448 0.92924 0.0
C618 C 0.10866 0.58036 0.40273 0.0
C619 C 0.0805 0.57948 0.40635 0.0
H620 H 0.15344 0.61587 0.38362 0.0
C621 C 0.07635 0.62605 0.38682 0.0
H622 H 0.11307 0.56292 0.41048 0.0
C623 C 0.10787 0.65106 0.37358 0.0
C624 C 0.13421 0.64636 0.37322 0.0
H625 H 0.05907 0.63064 0.38751 0.0
H626 H 0.11138 0.67273 0.36442 0.0
C627 C 0.13235 0.61421 0.38664 0.0
C628 C 0.5603 0.03543 0.96108 0.0
C629 C 0.55869 1.02825 0.8493 0.0
H630 H 0.52622 0.03185 0.04706 0.0
C631 C 0.55226 0.04507 0.73666 0.0
H632 H 0.57253 0.03066 1.00842 0.0
C633 C 0.51047 1.01297 0.75901 0.0
C634 C 0.51891 0.03147 0.88184 0.0
H635 H 0.5551 0.04797 0.63824 0.0
H636 H 0.49558 1.00861 0.67166 0.0
C637 C 0.53089 1.02598 0.9821 0.0
C638 C 0.4505 0.53992 0.08869 0.0
C639 C 0.46315 0.53915 1.00619 0.0
H640 H 0.42253 0.51167 0.19004 0.0
C641 C 0.44461 0.51944 0.94207 0.0
H642 H 0.46158 0.55722 0.13631 0.0
C643 C 0.42088 0.49493 0.97547 0.0
C644 C 0.42255 0.48934 0.06752 0.0
H645 H 0.4513 0.51883 0.87414 0.0
H646 H 0.40871 0.4777 0.92934 0.0
C647 C 0.42824 0.5137 0.11957 0.0
C648 C 0.43924 0.04136 0.62111 0.0
C649 C 0.42156 1.0122 0.59726 0.0
H650 H 0.46353 0.08522 0.5774 0.0
C651 C 0.40935 1.00674 0.51118 0.0
H652 H 0.44868 0.04686 0.68689 0.0
C653 C 0.41737 1.02935 0.44826 0.0
C654 C 0.43802 0.05808 0.46892 0.0
H655 H 0.3958 0.98482 0.48941 0.0
H656 H 0.41015 1.02372 0.3794 0.0
C657 C 0.44723 0.06388 0.55851 0.0
C658 C 0.4353 0.40033 0.83998 0.0
C659 C 0.43297 0.40085 0.93405 0.0
H660 H 0.42674 0.41335 0.71227 0.0
C661 C 0.41409 0.40958 0.96826 0.0
H662 H 0.4497 0.39419 0.81034 0.0
C663 C 0.40143 0.42139 0.91192 0.0
C664 C 0.40728 0.42496 0.81923 0.0
H665 H 0.41161 0.41035 0.04041 0.0
H666 H 0.38939 0.4302 0.94271 0.0
C667 C 0.42224 0.41176 0.78363 0.0
C668 C 0.99958 0.38491 0.24926 0.0
C669 C 1.00497 0.3884 0.15685 0.0
H670 H 1.01741 0.39775 0.3805 0.0
C671 C 1.03268 0.39765 0.12707 0.0
H672 H 0.97853 0.37777 0.27424 0.0
C673 C 0.05529 0.4106 0.18757 0.0
C674 C 0.04993 0.41284 0.27844 0.0
H675 H 0.03734 0.40035 0.05563 0.0
H676 H 0.07647 0.42253 0.16133 0.0
C677 C 1.02205 0.39684 0.31001 0.0
C678 C 0.66861 0.06201 0.45697 0.0
C679 C 0.65978 0.05631 0.54712 0.0
H680 H 0.66473 0.04466 0.32355 0.0
C681 C 0.64512 1.02719 0.57404 0.0
H682 H 0.67969 0.08396 0.43312 0.0
C683 C 0.63609 1.00452 0.51119 0.0
C684 C 0.64174 1.01024 0.41899 0.0
H685 H 0.63864 1.02188 0.64341 0.0
H686 H 0.62207 0.98281 0.53366 0.0
C687 C 0.66006 0.03924 0.39404 0.0
C688 C 0.64685 0.63126 0.94521 0.0
C689 C 0.63345 0.64549 0.90563 0.0
H690 H 0.66805 0.60682 0.92392 0.0
C691 C 0.63888 0.65279 0.8141 0.0
H692 H 0.64264 0.62456 1.01498 0.0
C693 C 0.65486 0.64364 0.76243 0.0
C694 C 0.66463 0.62574 0.79957 0.0
H695 H 0.62834 0.66281 0.78017 0.0
H696 H 0.65615 0.64722 0.69038 0.0
C697 C 0.66172 0.62112 0.89292 0.0
C698 C 0.06439 0.6669 0.1873 0.0
C699 C 0.05854 0.66122 0.0953 0.0
H700 H 0.04732 0.65937 0.32104 0.0
C701 C 1.02995 0.64862 0.06837 0.0
H702 H 0.08588 0.67705 0.21135 0.0
C703 C 1.00795 0.63623 0.13164 0.0
C704 C 1.01401 0.63759 0.22361 0.0
H705 H 1.02444 0.6447 0.99768 0.0
H706 H 0.98667 0.62258 0.10787 0.0
C707 C 0.04217 0.65611 0.25028 0.0
C708 C 0.59779 0.15382 0.46423 0.0
C709 C 0.56886 0.13842 0.48701 0.0
H710 H 0.64049 0.16497 0.50099 0.0
C711 C 0.56225 0.12725 0.57471 0.0
H712 H 0.60385 0.16233 0.39682 0.0
C713 C 0.5831 0.12879 0.63415 0.0
C714 C 0.61175 0.14131 0.60882 0.0
H715 H 0.54043 0.11512 0.59507 0.0
H716 H 0.57619 0.1181 0.69855 0.0
C717 C 0.61895 0.15519 0.52416 0.0
C718 C 0.44855 0.57378 0.8558 0.0
C719 C 0.45561 0.56649 0.77208 0.0
H720 H 0.46419 0.59692 0.98136 0.0
C721 C 0.48377 0.58384 0.74314 0.0
H722 H 0.42735 0.56127 0.88137 0.0
C723 C 0.50469 0.60438 0.79967 0.0
C724 C 0.49857 0.60909 0.88775 0.0
H725 H 0.49042 0.57978 0.67872 0.0
H726 H 0.52635 0.61453 0.77732 0.0
C727 C 0.46984 0.59454 0.91329 0.0
C728 C 0.91744 0.46318 0.15622 0.0
C729 C 0.93068 0.44659 0.17184 0.0
H730 H 0.91359 0.49992 0.19677 0.0
C731 C 0.94577 0.45127 0.25271 0.0
H732 H 0.90614 0.46061 0.09385 0.0
C733 C 0.95154 0.47479 0.30807 0.0
C734 C 0.94171 0.49391 0.28571 0.0
H735 H 0.9566 0.43926 0.26656 0.0
H736 H 0.9659 0.47947 0.36407 0.0
C737 C 0.92221 0.48614 0.21448 0.0
C738 C 0.51691 0.93534 0.53696 0.0
C739 C 0.51351 0.94052 0.4457 0.0
H740 H 0.50138 0.92992 0.67371 0.0
C741 C 0.4886 0.94131 0.42437 0.0
H742 H 0.53552 0.93441 0.5572 0.0
C743 C 0.46878 0.93852 0.49144 0.0
C744 C 0.47293 0.93492 0.58349 0.0
H745 H 0.48467 0.94478 0.35526 0.0
H746 H 0.4507 0.94045 0.47137 0.0
C747 C 0.49717 0.93277 0.60429 0.0
C748 C 0.59412 0.4707 0.7706 0.0
C749 C 0.61532 0.49888 0.79291 0.0
H750 H 0.55586 0.43259 0.81004 0.0
C751 C 0.61347 0.50944 0.87806 0.0
H752 H 0.59403 0.46214 0.7044 0.0
C753 C 0.59078 0.49298 0.93684 0.0
C754 C 0.56936 0.465 0.91402 0.0
H755 H 0.62848 0.53131 0.8967 0.0
H756 H 0.58963 0.50252 0.99998 0.0
C757 C 0.57194 0.45379 0.83091 0.0
C758 C 0.14364 0.57371 0.21537 0.0
C759 C 0.12179 0.54486 0.21456 0.0
H760 H 0.15921 0.6166 0.16196 0.0
C761 C 0.09986 0.53715 0.15243 0.0
H762 H 0.16041 0.58062 0.26447 0.0
C763 C 0.0989 0.55748 0.09563 0.0
C764 C 0.1198 0.58666 0.09837 0.0
H765 H 0.08246 0.51534 0.15082 0.0
H766 H 0.08101 0.55021 0.05089 0.0
C767 C 0.14272 0.59442 0.15752 0.0
loop_
_geom_bond_atom_site_label_1
_geom_bond_atom_site_label_2
_geom_bond_distance
_geom_bond_site_symmetry_2
_ccdc_geom_bond_type
C0 O16 1.251 . S
C0 O18 1.254 . S
N1 C2 1.333 . S
N1 C6 1.307 . S
N1 Zn7 2.020 . S
C2 N1 1.333 . S
C2 C3 1.379 . S
C2 H20 0.952 . S
C3 C2 1.379 . S
C3 C4 1.390 . S
C3 H30 0.949 . S
C4 C3 1.390 . S
C4 C5 1.357 . S
C5 C4 1.357 . S
C5 C6 1.370 . S
C5 H31 0.950 . S
C6 N1 1.307 . S
C6 C5 1.370 . S
C6 H24 0.948 . S
Zn7 N1 2.020 . S
Zn7 O16 2.039 . S
Zn7 O22 2.034 . S
Zn7 O26 2.025 . S
Zn7 O28 2.024 . S
C8 O27 1.246 . S
C8 O28 1.249 . S
N9 C10 1.307 . S
N9 C11 1.333 . S
N9 Zn15 2.020 . S
C10 N9 1.307 . S
C10 C14 1.370 . S
C10 H21 0.948 . S
C11 N9 1.333 . S
C11 C12 1.379 1_545 S
C11 H19 0.952 . S
C12 C11 1.379 1_565 S
C12 C13 1.390 . S
C12 H32 0.949 . S
C13 C12 1.390 . S
C13 C14 1.357 1_565 S
C14 C10 1.370 . S
C14 C13 1.357 1_545 S
C14 H33 0.950 . S
Zn15 N9 2.020 . S
Zn15 O18 2.025 . S
Zn15 O23 2.024 . S
Zn15 O25 2.039 . S
Zn15 O27 2.034 . S
O16 C0 1.251 . S
O16 Zn7 2.039 . S
C17 O22 1.246 . S
C17 O23 1.249 . S
O18 C0 1.254 . S
O18 Zn15 2.025 . S
H19 C11 0.952 . S
H20 C2 0.952 . S
H21 C10 0.948 . S
O22 Zn7 2.034 . S
O22 C17 1.246 . S
O23 Zn15 2.024 . S
O23 C17 1.249 . S
H24 C6 0.948 . S
O25 Zn15 2.039 . S
O25 C29 1.251 . S
O26 Zn7 2.025 . S
O26 C29 1.254 . S
O27 C8 1.246 . S
O27 Zn15 2.034 . S
O28 Zn7 2.024 . S
O28 C8 1.249 . S
C29 O25 1.251 . S
C29 O26 1.254 . S
H30 C3 0.949 . S
H31 C5 0.950 . S
H32 C12 0.949 . S
H33 C14 0.950 . S
C34 O50 1.251 . S
C34 O52 1.254 . S
N35 C36 1.333 . S
N35 C40 1.307 . S
N35 Zn41 2.020 . S
C36 N35 1.333 . S
C36 C37 1.379 . S
C36 H54 0.952 . S
C37 C36 1.379 . S
C37 C38 1.390 . S
C37 H64 0.949 . S
C38 C37 1.390 . S
C38 C39 1.357 . S
C39 C38 1.357 . S
C39 C40 1.370 . S
C39 H65 0.950 . S
C40 N35 1.307 . S
C40 C39 1.370 . S
C40 H58 0.948 . S
Zn41 N35 2.020 . S
Zn41 O50 2.039 . S
Zn41 O56 2.034 . S
Zn41 O60 2.025 . S
Zn41 O62 2.024 . S
C42 O61 1.246 . S
C42 O62 1.249 . S
N43 C44 1.307 . S
N43 C45 1.333 . S
N43 Zn49 2.020 . S
C44 N43 1.307 . S
C44 C48 1.370 . S
C44 H55 0.948 . S
C45 N43 1.333 . S
C45 C46 1.379 . S
C45 H53 0.952 . S
C46 C45 1.379 . S
C46 C47 1.390 . S
C46 H66 0.949 . S
C47 C46 1.390 . S
C47 C48 1.357 . S
C48 C44 1.370 . S
C48 C47 1.357 . S
C48 H67 0.950 . S
Zn49 N43 2.020 . S
Zn49 O52 2.025 . S
Zn49 O57 2.024 . S
Zn49 O59 2.039 . S
Zn49 O61 2.034 . S
O50 C34 1.251 . S
O50 Zn41 2.039 . S
C51 O56 1.246 . S
C51 O57 1.249 . S
O52 C34 1.254 . S
O52 Zn49 2.025 . S
H53 C45 0.952 . S
H54 C36 0.952 . S
H55 C44 0.948 . S
O56 Zn41 2.034 . S
O56 C51 1.246 . S
O57 Zn49 2.024 . S
O57 C51 1.249 . S
H58 C40 0.948 . S
O59 Zn49 2.039 . S
O59 C63 1.251 . S
O60 Zn41 2.025 . S
O60 C63 1.254 . S
O61 C42 1.246 . S
O61 Zn49 2.034 . S
O62 Zn41 2.024 . S
O62 C42 1.249 . S
C63 O59 1.251 . S
C63 O60 1.254 . S
H64 C37 0.949 . S
H65 C39 0.950 . S
H66 C46 0.949 . S
H67 C48 0.950 . S
C68 O84 1.251 . S
C68 O86 1.254 . S
N69 C70 1.333 . S
N69 C74 1.307 . S
N69 Zn75 2.020 . S
C70 N69 1.333 . S
C70 C71 1.379 . S
C70 H88 0.952 . S
C71 C70 1.379 . S
C71 C72 1.390 . S
C71 H98 0.949 . S
C72 C71 1.390 . S
C72 C73 1.357 . S
C73 C72 1.357 . S
C73 C74 1.370 . S
C73 H99 0.950 . S
C74 N69 1.307 . S
C74 C73 1.370 . S
C74 H92 0.948 . S
Zn75 N69 2.020 . S
Zn75 O84 2.039 . S
Zn75 O90 2.034 1_556 S
Zn75 O94 2.025 1_556 S
Zn75 O96 2.024 . S
C76 O95 1.246 . S
C76 O96 1.249 . S
N77 C78 1.307 . S
N77 C79 1.333 . S
N77 Zn83 2.020 . S
C78 N77 1.307 . S
C78 C82 1.370 . S
C78 H89 0.948 . S
C79 N77 1.333 . S
C79 C80 1.379 1_655 S
C79 H87 0.952 . S
C80 C79 1.379 1_455 S
C80 C81 1.390 . S
C80 H100 0.949 . S
C81 C80 1.390 . S
C81 C82 1.357 1_455 S
C82 C78 1.370 . S
C82 C81 1.357 1_655 S
C82 H101 0.950 . S
Zn83 N77 2.020 . S
Zn83 O86 2.025 . S
Zn83 O91 2.024 1_556 S
Zn83 O93 2.039 1_556 S
Zn83 O95 2.034 . S
O84 C68 1.251 . S
O84 Zn75 2.039 . S
C85 O90 1.246 . S
C85 O91 1.249 . S
O86 C68 1.254 . S
O86 Zn83 2.025 . S
H87 C79 0.952 . S
H88 C70 0.952 . S
H89 C78 0.948 . S
O90 Zn75 2.034 1_554 S
O90 C85 1.246 . S
O91 Zn83 2.024 1_554 S
O91 C85 1.249 . S
H92 C74 0.948 . S
O93 Zn83 2.039 1_554 S
O93 C97 1.251 . S
O94 Zn75 2.025 1_554 S
O94 C97 1.254 . S
O95 C76 1.246 . S
O95 Zn83 2.034 . S
O96 Zn75 2.024 . S
O96 C76 1.249 . S
C97 O93 1.251 . S
C97 O94 1.254 . S
H98 C71 0.949 . S
H99 C73 0.950 . S
H100 C80 0.949 . S
H101 C82 0.950 . S
C102 O118 1.251 . S
C102 O120 1.254 . S
N103 C104 1.333 . S
N103 C108 1.307 . S
N103 Zn109 2.020 . S
C104 N103 1.333 . S
C104 C105 1.379 . S
C104 H122 0.952 . S
C105 C104 1.379 . S
C105 C106 1.390 . S
C105 H132 0.949 . S
C106 C105 1.390 . S
C106 C107 1.357 . S
C107 C106 1.357 . S
C107 C108 1.370 . S
C107 H133 0.950 . S
C108 N103 1.307 . S
C108 C107 1.370 . S
C108 H126 0.948 . S
Zn109 N103 2.020 . S
Zn109 O118 2.039 . S
Zn109 O124 2.034 . S
Zn109 O128 2.025 . S
Zn109 O130 2.024 . S
C110 O129 1.246 . S
C110 O130 1.249 . S
N111 C112 1.307 . S
N111 C113 1.333 . S
N111 Zn117 2.020 . S
C112 N111 1.307 . S
C112 C116 1.370 . S
C112 H123 0.948 . S
C113 N111 1.333 . S
C113 C114 1.379 1_565 S
C113 H121 0.952 . S
C114 C113 1.379 1_545 S
C114 C115 1.390 . S
C114 H134 0.949 . S
C115 C114 1.390 . S
C115 C116 1.357 1_545 S
C116 C112 1.370 . S
C116 C115 1.357 1_565 S
C116 H135 0.950 . S
Zn117 N111 2.020 . S
Zn117 O120 2.025 . S
Zn117 O125 2.024 . S
Zn117 O127 2.039 . S
Zn117 O129 2.034 . S
O118 C102 1.251 . S
O118 Zn109 2.039 . S
C119 O124 1.246 . S
C119 O125 1.249 . S
O120 C102 1.254 . S
O120 Zn117 2.025 . S
H121 C113 0.952 . S
H122 C104 0.952 . S
H123 C112 0.948 . S
O124 Zn109 2.034 . S
O124 C119 1.246 . S
O125 Zn117 2.024 . S
O125 C119 1.249 . S
H126 C108 0.948 . S
O127 Zn117 2.039 . S
O127 C131 1.251 . S
O128 Zn109 2.025 . S
O128 C131 1.254 . S
O129 C110 1.246 . S
O129 Zn117 2.034 . S
O130 Zn109 2.024 . S
O130 C110 1.249 . S
C131 O127 1.251 . S
C131 O128 1.254 . S
H132 C105 0.949 . S
H133 C107 0.950 . S
H134 C114 0.949 . S
H135 C116 0.950 . S
C136 O152 1.251 . S
C136 O154 1.254 . S
N137 C138 1.333 . S
N137 C142 1.307 . S
N137 Zn143 2.020 . S
C138 N137 1.333 . S
C138 C139 1.379 . S
C138 H156 0.952 . S
C139 C138 1.379 . S
C139 C140 1.390 . S
C139 H166 0.949 . S
C140 C139 1.390 . S
C140 C141 1.357 . S
C141 C140 1.357 . S
C141 C142 1.370 . S
C141 H167 0.950 . S
C142 N137 1.307 . S
C142 C141 1.370 . S
C142 H160 0.948 . S
Zn143 N137 2.020 . S
Zn143 O152 2.039 . S
Zn143 O158 2.034 . S
Zn143 O162 2.025 . S
Zn143 O164 2.024 . S
C144 O163 1.246 . S
C144 O164 1.249 . S
N145 C146 1.307 . S
N145 C147 1.333 . S
N145 Zn151 2.020 . S
C146 N145 1.307 . S
C146 C150 1.370 . S
C146 H157 0.948 . S
C147 N145 1.333 . S
C147 C148 1.379 . S
C147 H155 0.952 . S
C148 C147 1.379 . S
C148 C149 1.390 . S
C148 H168 0.949 . S
C149 C148 1.390 . S
C149 C150 1.357 . S
C150 C146 1.370 . S
C150 C149 1.357 . S
C150 H169 0.950 . S
Zn151 N145 2.020 . S
Zn151 O154 2.025 . S
Zn151 O159 2.024 . S
Zn151 O161 2.039 . S
Zn151 O163 2.034 . S
O152 C136 1.251 . S
O152 Zn143 2.039 . S
C153 O158 1.246 . S
C153 O159 1.249 . S
O154 C136 1.254 . S
O154 Zn151 2.025 . S
H155 C147 0.952 . S
H156 C138 0.952 . S
H157 C146 0.948 . S
O158 Zn143 2.034 . S
O158 C153 1.246 . S
O159 Zn151 2.024 . S
O159 C153 1.249 . S
H160 C142 0.948 . S
O161 Zn151 2.039 . S
O161 C165 1.251 . S
O162 Zn143 2.025 . S
O162 C165 1.254 . S
O163 C144 1.246 . S
O163 Zn151 2.034 . S
O164 Zn143 2.024 . S
O164 C144 1.249 . S
C165 O161 1.251 . S
C165 O162 1.254 . S
H166 C139 0.949 . S
H167 C141 0.950 . S
H168 C148 0.949 . S
H169 C150 0.950 . S
C170 O186 1.251 . S
C170 O188 1.254 . S
N171 C172 1.333 . S
N171 C176 1.307 . S
N171 Zn177 2.020 . S
C172 N171 1.333 . S
C172 C173 1.379 . S
C172 H190 0.952 . S
C173 C172 1.379 . S
C173 C174 1.390 . S
C173 H200 0.949 . S
C174 C173 1.390 . S
C174 C175 1.357 . S
C175 C174 1.357 . S
C175 C176 1.370 . S
C175 H201 0.950 . S
C176 N171 1.307 . S
C176 C175 1.370 . S
C176 H194 0.948 . S
Zn177 N171 2.020 . S
Zn177 O186 2.039 . S
Zn177 O192 2.034 1_556 S
Zn177 O196 2.025 1_556 S
Zn177 O198 2.024 . S
C178 O197 1.246 . S
C178 O198 1.249 . S
N179 C180 1.307 . S
N179 C181 1.333 . S
N179 Zn185 2.020 . S
C180 N179 1.307 . S
C180 C184 1.370 . S
C180 H191 0.948 . S
C181 N179 1.333 . S
C181 C182 1.379 1_455 S
C181 H189 0.952 . S
C182 C181 1.379 1_655 S
C182 C183 1.390 . S
C182 H202 0.949 . S
C183 C182 1.390 . S
C183 C184 1.357 1_655 S
C184 C180 1.370 . S
C184 C183 1.357 1_455 S
C184 H203 0.950 . S
Zn185 N179 2.020 . S
Zn185 O188 2.025 . S
Zn185 O193 2.024 1_556 S
Zn185 O195 2.039 1_556 S
Zn185 O197 2.034 . S
O186 C170 1.251 . S
O186 Zn177 2.039 . S
C187 O192 1.246 . S
C187 O193 1.249 . S
O188 C170 1.254 . S
O188 Zn185 2.025 . S
H189 C181 0.952 . S
H190 C172 0.952 . S
H191 C180 0.948 . S
O192 Zn177 2.034 1_554 S
O192 C187 1.246 . S
O193 Zn185 2.024 1_554 S
O193 C187 1.249 . S
H194 C176 0.948 . S
O195 Zn185 2.039 1_554 S
O195 C199 1.251 . S
O196 Zn177 2.025 1_554 S
O196 C199 1.254 . S
O197 C178 1.246 . S
O197 Zn185 2.034 . S
O198 Zn177 2.024 . S
O198 C178 1.249 . S
C199 O195 1.251 . S
C199 O196 1.254 . S
H200 C173 0.949 . S
H201 C175 0.950 . S
H202 C182 0.949 . S
H203 C184 0.950 . S
C204 O220 1.251 . S
C204 O222 1.254 . S
N205 C206 1.333 . S
N205 C210 1.307 . S
N205 Zn211 2.020 . S
C206 N205 1.333 . S
C206 C207 1.379 . S
C206 H224 0.952 . S
C207 C206 1.379 . S
C207 C208 1.390 . S
C207 H234 0.949 . S
C208 C207 1.390 . S
C208 C209 1.357 . S
C209 C208 1.357 . S
C209 C210 1.370 . S
C209 H235 0.950 . S
C210 N205 1.307 . S
C210 C209 1.370 . S
C210 H228 0.948 . S
Zn211 N205 2.020 . S
Zn211 O220 2.039 . S
Zn211 O226 2.034 . S
Zn211 O230 2.025 . S
Zn211 O232 2.024 . S
C212 O231 1.246 . S
C212 O232 1.249 . S
N213 C214 1.307 . S
N213 C215 1.333 . S
N213 Zn219 2.020 . S
C214 N213 1.307 . S
C214 C218 1.370 . S
C214 H225 0.948 . S
C215 N213 1.333 . S
C215 C216 1.379 1_655 S
C215 H223 0.952 . S
C216 C215 1.379 1_455 S
C216 C217 1.390 . S
C216 H236 0.949 . S
C217 C216 1.390 . S
C217 C218 1.357 1_455 S
C218 C214 1.370 . S
C218 C217 1.357 1_655 S
C218 H237 0.950 . S
Zn219 N213 2.020 . S
Zn219 O222 2.025 . S
Zn219 O227 2.024 . S
Zn219 O229 2.039 . S
Zn219 O231 2.034 . S
O220 C204 1.251 . S
O220 Zn211 2.039 . S
C221 O226 1.246 . S
C221 O227 1.249 . S
O222 C204 1.254 . S
O222 Zn219 2.025 . S
H223 C215 0.952 . S
H224 C206 0.952 . S
H225 C214 0.948 . S
O226 Zn211 2.034 . S
O226 C221 1.246 . S
O227 Zn219 2.024 . S
O227 C221 1.249 . S
H228 C210 0.948 . S
O229 Zn219 2.039 . S
O229 C233 1.251 . S
O230 Zn211 2.025 . S
O230 C233 1.254 . S
O231 C212 1.246 . S
O231 Zn219 2.034 . S
O232 Zn211 2.024 . S
O232 C212 1.249 . S
C233 O229 1.251 . S
C233 O230 1.254 . S
H234 C207 0.949 . S
H235 C209 0.950 . S
H236 C216 0.949 . S
H237 C218 0.950 . S
C238 O254 1.251 . S
C238 O256 1.254 . S
N239 C240 1.333 . S
N239 C244 1.307 . S
N239 Zn245 2.020 . S
C240 N239 1.333 . S
C240 C241 1.379 . S
C240 H258 0.952 . S
C241 C240 1.379 . S
C241 C242 1.390 . S
C241 H268 0.949 . S
C242 C241 1.390 . S
C242 C243 1.357 . S
C243 C242 1.357 . S
C243 C244 1.370 . S
C243 H269 0.950 . S
C244 N239 1.307 . S
C244 C243 1.370 . S
C244 H262 0.948 . S
Zn245 N239 2.020 . S
Zn245 O254 2.039 . S
Zn245 O260 2.034 . S
Zn245 O264 2.025 . S
Zn245 O266 2.024 . S
C246 O265 1.246 . S
C246 O266 1.249 . S
N247 C248 1.307 . S
N247 C249 1.333 . S
N247 Zn253 2.020 . S
C248 N247 1.307 . S
C248 C252 1.370 . S
C248 H259 0.948 . S
C249 N247 1.333 . S
C249 C250 1.379 1_565 S
C249 H257 0.952 . S
C250 C249 1.379 1_545 S
C250 C251 1.390 . S
C250 H270 0.949 . S
C251 C250 1.390 . S
C251 C252 1.357 1_545 S
C252 C248 1.370 . S
C252 C251 1.357 1_565 S
C252 H271 0.950 . S
Zn253 N247 2.020 . S
Zn253 O256 2.025 . S
Zn253 O261 2.024 . S
Zn253 O263 2.039 . S
Zn253 O265 2.034 . S
O254 C238 1.251 . S
O254 Zn245 2.039 . S
C255 O260 1.246 . S
C255 O261 1.249 . S
O256 C238 1.254 . S
O256 Zn253 2.025 . S
H257 C249 0.952 . S
H258 C240 0.952 . S
H259 C248 0.948 . S
O260 Zn245 2.034 . S
O260 C255 1.246 . S
O261 Zn253 2.024 . S
O261 C255 1.249 . S
H262 C244 0.948 . S
O263 Zn253 2.039 . S
O263 C267 1.251 . S
O264 Zn245 2.025 . S
O264 C267 1.254 . S
O265 C246 1.246 . S
O265 Zn253 2.034 . S
O266 Zn245 2.024 . S
O266 C246 1.249 . S
C267 O263 1.251 . S
C267 O264 1.254 . S
H268 C241 0.949 . S
H269 C243 0.950 . S
H270 C250 0.949 . S
H271 C252 0.950 . S
C272 O288 1.251 . S
C272 O290 1.254 . S
N273 C274 1.333 . S
N273 C278 1.307 . S
N273 Zn279 2.020 . S
C274 N273 1.333 . S
C274 C275 1.379 . S
C274 H292 0.952 . S
C275 C274 1.379 . S
C275 C276 1.390 . S
C275 H302 0.949 . S
C276 C275 1.390 . S
C276 C277 1.357 . S
C277 C276 1.357 . S
C277 C278 1.370 . S
C277 H303 0.950 . S
C278 N273 1.307 . S
C278 C277 1.370 . S
C278 H296 0.948 . S
Zn279 N273 2.020 . S
Zn279 O288 2.039 . S
Zn279 O294 2.034 1_554 S
Zn279 O298 2.025 1_554 S
Zn279 O300 2.024 . S
C280 O299 1.246 . S
C280 O300 1.249 . S
N281 C282 1.307 . S
N281 C283 1.333 . S
N281 Zn287 2.020 . S
C282 N281 1.307 . S
C282 C286 1.370 . S
C282 H293 0.948 . S
C283 N281 1.333 . S
C283 C284 1.379 . S
C283 H291 0.952 . S
C284 C283 1.379 . S
C284 C285 1.390 . S
C284 H304 0.949 . S
C285 C284 1.390 . S
C285 C286 1.357 . S
C286 C282 1.370 . S
C286 C285 1.357 . S
C286 H305 0.950 . S
Zn287 N281 2.020 . S
Zn287 O290 2.025 . S
Zn287 O295 2.024 1_554 S
Zn287 O297 2.039 1_554 S
Zn287 O299 2.034 . S
O288 C272 1.251 . S
O288 Zn279 2.039 . S
C289 O294 1.246 . S
C289 O295 1.249 . S
O290 C272 1.254 . S
O290 Zn287 2.025 . S
H291 C283 0.952 . S
H292 C274 0.952 . S
H293 C282 0.948 . S
O294 Zn279 2.034 1_556 S
O294 C289 1.246 . S
O295 Zn287 2.024 1_556 S
O295 C289 1.249 . S
H296 C278 0.948 . S
O297 Zn287 2.039 1_556 S
O297 C301 1.251 . S
O298 Zn279 2.025 1_556 S
O298 C301 1.254 . S
O299 C280 1.246 . S
O299 Zn287 2.034 . S
O300 Zn279 2.024 . S
O300 C280 1.249 . S
C301 O297 1.251 . S
C301 O298 1.254 . S
H302 C275 0.949 . S
H303 C277 0.950 . S
H304 C284 0.949 . S
H305 C286 0.950 . S
C306 O322 1.251 . S
C306 O324 1.254 . S
N307 C308 1.333 . S
N307 C312 1.307 . S
N307 Zn313 2.020 . S
C308 N307 1.333 . S
C308 C309 1.379 . S
C308 H326 0.952 . S
C309 C308 1.379 . S
C309 C310 1.390 . S
C309 H336 0.949 . S
C310 C309 1.390 . S
C310 C311 1.357 . S
C311 C310 1.357 . S
C311 C312 1.370 . S
C311 H337 0.950 . S
C312 N307 1.307 . S
C312 C311 1.370 . S
C312 H330 0.948 . S
Zn313 N307 2.020 . S
Zn313 O322 2.039 . S
Zn313 O328 2.034 . S
Zn313 O332 2.025 . S
Zn313 O334 2.024 . S
C314 O333 1.246 . S
C314 O334 1.249 . S
N315 C316 1.307 . S
N315 C317 1.333 . S
N315 Zn321 2.020 . S
C316 N315 1.307 . S
C316 C320 1.370 . S
C316 H327 0.948 . S
C317 N315 1.333 . S
C317 C318 1.379 1_455 S
C317 H325 0.952 . S
C318 C317 1.379 1_655 S
C318 C319 1.390 . S
C318 H338 0.949 . S
C319 C318 1.390 . S
C319 C320 1.357 1_655 S
C320 C316 1.370 . S
C320 C319 1.357 1_455 S
C320 H339 0.950 . S
Zn321 N315 2.020 . S
Zn321 O324 2.025 . S
Zn321 O329 2.024 . S
Zn321 O331 2.039 . S
Zn321 O333 2.034 . S
O322 C306 1.251 . S
O322 Zn313 2.039 . S
C323 O328 1.246 . S
C323 O329 1.249 . S
O324 C306 1.254 . S
O324 Zn321 2.025 . S
H325 C317 0.952 . S
H326 C308 0.952 . S
H327 C316 0.948 . S
O328 Zn313 2.034 . S
O328 C323 1.246 . S
O329 Zn321 2.024 . S
O329 C323 1.249 . S
H330 C312 0.948 . S
O331 Zn321 2.039 . S
O331 C335 1.251 . S
O332 Zn313 2.025 . S
O332 C335 1.254 . S
O333 C314 1.246 . S
O333 Zn321 2.034 . S
O334 Zn313 2.024 . S
O334 C314 1.249 . S
C335 O331 1.251 . S
C335 O332 1.254 . S
H336 C309 0.949 . S
H337 C311 0.950 . S
H338 C318 0.949 . S
H339 C320 0.950 . S
C340 O356 1.251 . S
C340 O358 1.254 . S
N341 C342 1.333 . S
N341 C346 1.307 . S
N341 Zn347 2.020 . S
C342 N341 1.333 . S
C342 C343 1.379 . S
C342 H360 0.952 . S
C343 C342 1.379 . S
C343 C344 1.390 . S
C343 H370 0.949 . S
C344 C343 1.390 . S
C344 C345 1.357 . S
C345 C344 1.357 . S
C345 C346 1.370 . S
C345 H371 0.950 . S
C346 N341 1.307 . S
C346 C345 1.370 . S
C346 H364 0.948 . S
Zn347 N341 2.020 . S
Zn347 O356 2.039 . S
Zn347 O362 2.034 . S
Zn347 O366 2.025 . S
Zn347 O368 2.024 . S
C348 O367 1.246 . S
C348 O368 1.249 . S
N349 C350 1.307 . S
N349 C351 1.333 . S
N349 Zn355 2.020 . S
C350 N349 1.307 . S
C350 C354 1.370 . S
C350 H361 0.948 . S
C351 N349 1.333 . S
C351 C352 1.379 1_545 S
C351 H359 0.952 . S
C352 C351 1.379 1_565 S
C352 C353 1.390 . S
C352 H372 0.949 . S
C353 C352 1.390 . S
C353 C354 1.357 1_565 S
C354 C350 1.370 . S
C354 C353 1.357 1_545 S
C354 H373 0.950 . S
Zn355 N349 2.020 . S
Zn355 O358 2.025 . S
Zn355 O363 2.024 . S
Zn355 O365 2.039 . S
Zn355 O367 2.034 . S
O356 C340 1.251 . S
O356 Zn347 2.039 . S
C357 O362 1.246 . S
C357 O363 1.249 . S
O358 C340 1.254 . S
O358 Zn355 2.025 . S
H359 C351 0.952 . S
H360 C342 0.952 . S
H361 C350 0.948 . S
O362 Zn347 2.034 . S
O362 C357 1.246 . S
O363 Zn355 2.024 . S
O363 C357 1.249 . S
H364 C346 0.948 . S
O365 Zn355 2.039 . S
O365 C369 1.251 . S
O366 Zn347 2.025 . S
O366 C369 1.254 . S
O367 C348 1.246 . S
O367 Zn355 2.034 . S
O368 Zn347 2.024 . S
O368 C348 1.249 . S
C369 O365 1.251 . S
C369 O366 1.254 . S
H370 C343 0.949 . S
H371 C345 0.950 . S
H372 C352 0.949 . S
H373 C354 0.950 . S
C374 O390 1.251 . S
C374 O392 1.254 . S
N375 C376 1.333 . S
N375 C380 1.307 . S
N375 Zn381 2.020 . S
C376 N375 1.333 . S
C376 C377 1.379 . S
C376 H394 0.952 . S
C377 C376 1.379 . S
C377 C378 1.390 . S
C377 H404 0.949 . S
C378 C377 1.390 . S
C378 C379 1.357 . S
C379 C378 1.357 . S
C379 C380 1.370 . S
C379 H405 0.950 . S
C380 N375 1.307 . S
C380 C379 1.370 . S
C380 H398 0.948 . S
Zn381 N375 2.020 . S
Zn381 O390 2.039 . S
Zn381 O396 2.034 1_554 S
Zn381 O400 2.025 1_554 S
Zn381 O402 2.024 . S
C382 O401 1.246 . S
C382 O402 1.249 . S
N383 C384 1.307 . S
N383 C385 1.333 . S
N383 Zn389 2.020 . S
C384 N383 1.307 . S
C384 C388 1.370 . S
C384 H395 0.948 . S
C385 N383 1.333 . S
C385 C386 1.379 . S
C385 H393 0.952 . S
C386 C385 1.379 . S
C386 C387 1.390 . S
C386 H406 0.949 . S
C387 C386 1.390 . S
C387 C388 1.357 . S
C388 C384 1.370 . S
C388 C387 1.357 . S
C388 H407 0.950 . S
Zn389 N383 2.020 . S
Zn389 O392 2.025 . S
Zn389 O397 2.024 1_554 S
Zn389 O399 2.039 1_554 S
Zn389 O401 2.034 . S
O390 C374 1.251 . S
O390 Zn381 2.039 . S
C391 O396 1.246 . S
C391 O397 1.249 . S
O392 C374 1.254 . S
O392 Zn389 2.025 . S
H393 C385 0.952 . S
H394 C376 0.952 . S
H395 C384 0.948 . S
O396 Zn381 2.034 1_556 S
O396 C391 1.246 . S
O397 Zn389 2.024 1_556 S
O397 C391 1.249 . S
H398 C380 0.948 . S
O399 Zn389 2.039 1_556 S
O399 C403 1.251 . S
O400 Zn381 2.025 1_556 S
O400 C403 1.254 . S
O401 C382 1.246 . S
O401 Zn389 2.034 . S
O402 Zn381 2.024 . S
O402 C382 1.249 . S
C403 O399 1.251 . S
C403 O400 1.254 . S
H404 C377 0.949 . S
H405 C379 0.950 . S
H406 C386 0.949 . S
H407 C388 0.950 . S
C408 C409 1.387 . S
C408 H412 0.950 . S
C408 C417 1.390 . S
C409 C408 1.387 . S
C409 C411 1.387 . S
H410 C417 0.950 . S
C411 C409 1.387 . S
C411 C413 1.390 . S
C411 H415 0.950 . S
H412 C408 0.950 . S
C413 C411 1.390 . S
C413 C414 1.387 . S
C413 H416 0.950 . S
C414 C413 1.387 . S
C414 C417 1.387 . S
H415 C411 0.950 . S
H416 C413 0.950 . S
C417 C408 1.390 . S
C417 H410 0.950 . S
C417 C414 1.387 . S
C418 C419 1.387 . S
C418 H422 0.950 . S
C418 C427 1.390 . S
C419 C418 1.387 . S
C419 C421 1.387 . S
H420 C427 0.950 . S
C421 C419 1.387 . S
C421 C423 1.390 . S
C421 H425 0.950 . S
H422 C418 0.950 . S
C423 C421 1.390 . S
C423 C424 1.387 . S
C423 H426 0.950 . S
C424 C423 1.387 . S
C424 C427 1.387 . S
H425 C421 0.950 . S
H426 C423 0.950 . S
C427 C418 1.390 . S
C427 H420 0.950 . S
C427 C424 1.387 . S
C428 C429 1.387 . S
C428 H432 0.950 . S
C428 C437 1.390 . S
C429 C428 1.387 . S
C429 C431 1.387 . S
H430 C437 0.950 . S
C431 C429 1.387 . S
C431 C433 1.390 . S
C431 H435 0.950 . S
H432 C428 0.950 . S
C433 C431 1.390 . S
C433 C434 1.387 . S
C433 H436 0.950 . S
C434 C433 1.387 . S
C434 C437 1.387 . S
H435 C431 0.950 . S
H436 C433 0.950 . S
C437 C428 1.390 . S
C437 H430 0.950 . S
C437 C434 1.387 . S
C438 C439 1.387 . S
C438 H442 0.950 . S
C438 C447 1.390 . S
C439 C438 1.387 . S
C439 C441 1.387 . S
H440 C447 0.950 . S
C441 C439 1.387 . S
C441 C443 1.390 . S
C441 H445 0.950 . S
H442 C438 0.950 . S
C443 C441 1.390 . S
C443 C444 1.387 . S
C443 H446 0.950 . S
C444 C443 1.387 . S
C444 C447 1.387 . S
H445 C441 0.950 . S
H446 C443 0.950 . S
C447 C438 1.390 . S
C447 H440 0.950 . S
C447 C444 1.387 . S
C448 C449 1.387 . S
C448 H452 0.950 . S
C448 C457 1.390 . S
C449 C448 1.387 . S
C449 C451 1.387 . S
H450 C457 0.950 . S
C451 C449 1.387 . S
C451 C453 1.390 . S
C451 H455 0.950 . S
H452 C448 0.950 . S
C453 C451 1.390 . S
C453 C454 1.387 . S
C453 H456 0.950 . S
C454 C453 1.387 . S
C454 C457 1.387 . S
H455 C451 0.950 . S
H456 C453 0.950 . S
C457 C448 1.390 . S
C457 H450 0.950 . S
C457 C454 1.387 . S
C458 C459 1.387 . S
C458 H462 0.950 . S
C458 C467 1.390 . S
C459 C458 1.387 . S
C459 C461 1.387 . S
H460 C467 0.950 . S
C461 C459 1.387 . S
C461 C463 1.390 . S
C461 H465 0.950 . S
H462 C458 0.950 . S
C463 C461 1.390 . S
C463 C464 1.387 . S
C463 H466 0.950 . S
C464 C463 1.387 . S
C464 C467 1.387 . S
H465 C461 0.950 . S
H466 C463 0.950 . S
C467 C458 1.390 . S
C467 H460 0.950 . S
C467 C464 1.387 . S
C468 C469 1.387 . S
C468 H472 0.950 . S
C468 C477 1.390 1_556 S
C469 C468 1.387 . S
C469 C471 1.387 . S
H470 C477 0.950 . S
C471 C469 1.387 . S
C471 C473 1.390 1_556 S
C471 H475 0.950 . S
H472 C468 0.950 . S
C473 C471 1.390 1_554 S
C473 C474 1.387 . S
C473 H476 0.950 . S
C474 C473 1.387 . S
C474 C477 1.387 . S
H475 C471 0.950 . S
H476 C473 0.950 . S
C477 C468 1.390 1_554 S
C477 H470 0.950 . S
C477 C474 1.387 . S
C478 C479 1.387 . S
C478 H482 0.950 . S
C478 C487 1.390 . S
C479 C478 1.387 . S
C479 C481 1.387 . S
H480 C487 0.950 . S
C481 C479 1.387 . S
C481 C483 1.390 . S
C481 H485 0.950 . S
H482 C478 0.950 . S
C483 C481 1.390 . S
C483 C484 1.387 . S
C483 H486 0.950 . S
C484 C483 1.387 . S
C484 C487 1.387 . S
H485 C481 0.950 . S
H486 C483 0.950 . S
C487 C478 1.390 . S
C487 H480 0.950 . S
C487 C484 1.387 . S
C488 C489 1.387 . S
C488 H492 0.950 . S
C488 C497 1.390 . S
C489 C488 1.387 . S
C489 C491 1.387 . S
H490 C497 0.950 . S
C491 C489 1.387 . S
C491 C493 1.390 . S
C491 H495 0.950 . S
H492 C488 0.950 . S
C493 C491 1.390 . S
C493 C494 1.387 . S
C493 H496 0.950 . S
C494 C493 1.387 . S
C494 C497 1.387 . S
H495 C491 0.950 . S
H496 C493 0.950 . S
C497 C488 1.390 . S
C497 H490 0.950 . S
C497 C494 1.387 . S
C498 C499 1.387 . S
C498 H502 0.950 . S
C498 C507 1.390 1_556 S
C499 C498 1.387 . S
C499 C501 1.387 . S
H500 C507 0.950 . S
C501 C499 1.387 . S
C501 C503 1.390 1_556 S
C501 H505 0.950 . S
H502 C498 0.950 . S
C503 C501 1.390 1_554 S
C503 C504 1.387 . S
C503 H506 0.950 . S
C504 C503 1.387 . S
C504 C507 1.387 . S
H505 C501 0.950 . S
H506 C503 0.950 . S
C507 C498 1.390 1_554 S
C507 H500 0.950 . S
C507 C504 1.387 . S
C508 C509 1.387 . S
C508 H512 0.950 . S
C508 C517 1.390 . S
C509 C508 1.387 . S
C509 C511 1.387 . S
H510 C517 0.950 . S
C511 C509 1.387 . S
C511 C513 1.390 . S
C511 H515 0.950 . S
H512 C508 0.950 . S
C513 C511 1.390 . S
C513 C514 1.387 . S
C513 H516 0.950 . S
C514 C513 1.387 . S
C514 C517 1.387 . S
H515 C511 0.950 . S
H516 C513 0.950 . S
C517 C508 1.390 . S
C517 H510 0.950 . S
C517 C514 1.387 . S
C518 C519 1.387 . S
C518 H522 0.950 . S
C518 C527 1.390 . S
C519 C518 1.387 . S
C519 C521 1.387 . S
H520 C527 0.950 . S
C521 C519 1.387 . S
C521 C523 1.390 . S
C521 H525 0.950 . S
H522 C518 0.950 . S
C523 C521 1.390 . S
C523 C524 1.387 . S
C523 H526 0.950 . S
C524 C523 1.387 . S
C524 C527 1.387 . S
H525 C521 0.950 . S
H526 C523 0.950 . S
C527 C518 1.390 . S
C527 H520 0.950 . S
C527 C524 1.387 . S
C528 C529 1.387 . S
C528 H532 0.950 . S
C528 C537 1.390 1_566 S
C529 C528 1.387 . S
C529 C531 1.387 . S
H530 C537 0.950 . S
C531 C529 1.387 . S
C531 C533 1.390 1_566 S
C531 H535 0.950 . S
H532 C528 0.950 . S
C533 C531 1.390 1_544 S
C533 C534 1.387 . S
C533 H536 0.950 . S
C534 C533 1.387 . S
C534 C537 1.387 . S
H535 C531 0.950 . S
H536 C533 0.950 . S
C537 C528 1.390 1_544 S
C537 H530 0.950 . S
C537 C534 1.387 . S
C538 C539 1.387 . S
C538 H542 0.950 . S
C538 C547 1.390 . S
C539 C538 1.387 . S
C539 C541 1.387 . S
H540 C547 0.950 . S
C541 C539 1.387 . S
C541 C543 1.390 . S
C541 H545 0.950 . S
H542 C538 0.950 . S
C543 C541 1.390 . S
C543 C544 1.387 . S
C543 H546 0.950 . S
C544 C543 1.387 . S
C544 C547 1.387 . S
H545 C541 0.950 . S
H546 C543 0.950 . S
C547 C538 1.390 . S
C547 H540 0.950 . S
C547 C544 1.387 . S
C548 C549 1.387 1_655 S
C548 H552 0.950 . S
C548 C557 1.390 . S
C549 C548 1.387 1_455 S
C549 C551 1.387 . S
H550 C557 0.950 . S
C551 C549 1.387 . S
C551 C553 1.390 . S
C551 H555 0.950 . S
H552 C548 0.950 . S
C553 C551 1.390 . S
C553 C554 1.387 1_455 S
C553 H556 0.950 . S
C554 C553 1.387 1_655 S
C554 C557 1.387 . S
H555 C551 0.950 . S
H556 C553 0.950 . S
C557 C548 1.390 . S
C557 H550 0.950 . S
C557 C554 1.387 . S
C558 C559 1.387 . S
C558 H562 0.950 . S
C558 C567 1.390 1_564 S
C559 C558 1.387 . S
C559 C561 1.387 . S
H560 C567 0.950 . S
C561 C559 1.387 . S
C561 C563 1.390 1_564 S
C561 H565 0.950 . S
H562 C558 0.950 . S
C563 C561 1.390 1_546 S
C563 C564 1.387 . S
C563 H566 0.950 . S
C564 C563 1.387 . S
C564 C567 1.387 . S
H565 C561 0.950 . S
H566 C563 0.950 . S
C567 C558 1.390 1_546 S
C567 H560 0.950 . S
C567 C564 1.387 . S
C568 C569 1.387 . S
C568 H572 0.950 . S
C568 C577 1.390 . S
C569 C568 1.387 . S
C569 C571 1.387 . S
H570 C577 0.950 . S
C571 C569 1.387 . S
C571 C573 1.390 . S
C571 H575 0.950 . S
H572 C568 0.950 . S
C573 C571 1.390 . S
C573 C574 1.387 . S
C573 H576 0.950 . S
C574 C573 1.387 . S
C574 C577 1.387 . S
H575 C571 0.950 . S
H576 C573 0.950 . S
C577 C568 1.390 . S
C577 H570 0.950 . S
C577 C574 1.387 . S
C578 C579 1.387 . S
C578 H582 0.950 . S
C578 C587 1.390 1_455 S
C579 C578 1.387 . S
C579 C581 1.387 . S
H580 C587 0.950 . S
C581 C579 1.387 . S
C581 C583 1.390 1_455 S
C581 H585 0.950 . S
H582 C578 0.950 . S
C583 C581 1.390 1_655 S
C583 C584 1.387 . S
C583 H586 0.950 . S
C584 C583 1.387 . S
C584 C587 1.387 . S
H585 C581 0.950 . S
H586 C583 0.950 . S
C587 C578 1.390 1_655 S
C587 H580 0.950 . S
C587 C584 1.387 . S
C588 C589 1.387 . S
C588 H592 0.950 . S
C588 C597 1.390 1_565 S
C589 C588 1.387 . S
C589 C591 1.387 . S
H590 C597 0.950 . S
C591 C589 1.387 . S
C591 C593 1.390 1_565 S
C591 H595 0.950 . S
H592 C588 0.950 . S
C593 C591 1.390 1_545 S
C593 C594 1.387 . S
C593 H596 0.950 . S
C594 C593 1.387 . S
C594 C597 1.387 . S
H595 C591 0.950 . S
H596 C593 0.950 . S
C597 C588 1.390 1_545 S
C597 H590 0.950 . S
C597 C594 1.387 . S
C598 C599 1.387 . S
C598 H602 0.950 . S
C598 C607 1.390 . S
C599 C598 1.387 . S
C599 C601 1.387 . S
H600 C607 0.950 . S
C601 C599 1.387 . S
C601 C603 1.390 . S
C601 H605 0.950 . S
H602 C598 0.950 . S
C603 C601 1.390 . S
C603 C604 1.387 . S
C603 H606 0.950 . S
C604 C603 1.387 . S
C604 C607 1.387 . S
H605 C601 0.950 . S
H606 C603 0.950 . S
C607 C598 1.390 . S
C607 H600 0.950 . S
C607 C604 1.387 . S
C608 C609 1.387 . S
C608 H612 0.950 . S
C608 C617 1.390 1_455 S
C609 C608 1.387 . S
C609 C611 1.387 1_556 S
H610 C617 0.950 . S
C611 C609 1.387 1_554 S
C611 C613 1.390 1_455 S
C611 H615 0.950 . S
H612 C608 0.950 . S
C613 C611 1.390 1_655 S
C613 C614 1.387 1_554 S
C613 H616 0.950 . S
C614 C613 1.387 1_556 S
C614 C617 1.387 . S
H615 C611 0.950 . S
H616 C613 0.950 . S
C617 C608 1.390 1_655 S
C617 H610 0.950 . S
C617 C614 1.387 . S
C618 C619 1.387 . S
C618 H622 0.950 . S
C618 C627 1.390 1_655 S
C619 C618 1.387 . S
C619 C621 1.387 . S
H620 C627 0.950 . S
C621 C619 1.387 . S
C621 C623 1.390 1_655 S
C621 H625 0.950 . S
H622 C618 0.950 . S
C623 C621 1.390 1_455 S
C623 C624 1.387 . S
C623 H626 0.950 . S
C624 C623 1.387 . S
C624 C627 1.387 . S
H625 C621 0.950 . S
H626 C623 0.950 . S
C627 C618 1.390 1_455 S
C627 H620 0.950 . S
C627 C624 1.387 . S
C628 C629 1.387 . S
C628 H632 0.950 . S
C628 C637 1.390 1_545 S
C629 C628 1.387 . S
C629 C631 1.387 . S
H630 C637 0.950 . S
C631 C629 1.387 . S
C631 C633 1.390 1_545 S
C631 H635 0.950 . S
H632 C628 0.950 . S
C633 C631 1.390 1_565 S
C633 C634 1.387 . S
C633 H636 0.950 . S
C634 C633 1.387 . S
C634 C637 1.387 . S
H635 C631 0.950 . S
H636 C633 0.950 . S
C637 C628 1.390 1_565 S
C637 H630 0.950 . S
C637 C634 1.387 . S
C638 C639 1.387 . S
C638 H642 0.950 . S
C638 C647 1.390 . S
C639 C638 1.387 . S
C639 C641 1.387 1_554 S
H640 C647 0.950 . S
C641 C639 1.387 1_556 S
C641 C643 1.390 . S
C641 H645 0.950 . S
H642 C638 0.950 . S
C643 C641 1.390 . S
C643 C644 1.387 1_556 S
C643 H646 0.950 . S
C644 C643 1.387 1_554 S
C644 C647 1.387 . S
H645 C641 0.950 . S
H646 C643 0.950 . S
C647 C638 1.390 . S
C647 H640 0.950 . S
C647 C644 1.387 . S
C648 C649 1.387 . S
C648 H652 0.950 . S
C648 C657 1.390 1_565 S
C649 C648 1.387 . S
C649 C651 1.387 . S
H650 C657 0.950 . S
C651 C649 1.387 . S
C651 C653 1.390 1_565 S
C651 H655 0.950 . S
H652 C648 0.950 . S
C653 C651 1.390 1_545 S
C653 C654 1.387 . S
C653 H656 0.950 . S
C654 C653 1.387 . S
C654 C657 1.387 . S
H655 C651 0.950 . S
H656 C653 0.950 . S
C657 C648 1.390 1_545 S
C657 H650 0.950 . S
C657 C654 1.387 . S
C658 C659 1.387 . S
C658 H662 0.950 . S
C658 C667 1.390 . S
C659 C658 1.387 . S
C659 C661 1.387 . S
H660 C667 0.950 . S
C661 C659 1.387 . S
C661 C663 1.390 . S
C661 H665 0.950 . S
H662 C658 0.950 . S
C663 C661 1.390 . S
C663 C664 1.387 . S
C663 H666 0.950 . S
C664 C663 1.387 . S
C664 C667 1.387 . S
H665 C661 0.950 . S
H666 C663 0.950 . S
C667 C658 1.390 . S
C667 H660 0.950 . S
C667 C664 1.387 . S
C668 C669 1.387 . S
C668 H672 0.950 . S
C668 C677 1.390 1_655 S
C669 C668 1.387 . S
C669 C671 1.387 . S
H670 C677 0.950 . S
C671 C669 1.387 . S
C671 C673 1.390 1_655 S
C671 H675 0.950 . S
H672 C668 0.950 . S
C673 C671 1.390 1_455 S
C673 C674 1.387 . S
C673 H676 0.950 . S
C674 C673 1.387 . S
C674 C677 1.387 . S
H675 C671 0.950 . S
H676 C673 0.950 . S
C677 C668 1.390 1_455 S
C677 H670 0.950 . S
C677 C674 1.387 . S
C678 C679 1.387 . S
C678 H682 0.950 . S
C678 C687 1.390 1_545 S
C679 C678 1.387 . S
C679 C681 1.387 . S
H680 C687 0.950 . S
C681 C679 1.387 . S
C681 C683 1.390 1_545 S
C681 H685 0.950 . S
H682 C678 0.950 . S
C683 C681 1.390 1_565 S
C683 C684 1.387 . S
C683 H686 0.950 . S
C684 C683 1.387 . S
C684 C687 1.387 . S
H685 C681 0.950 . S
H686 C683 0.950 . S
C687 C678 1.390 1_565 S
C687 H680 0.950 . S
C687 C684 1.387 . S
C688 C689 1.387 . S
C688 H692 0.950 . S
C688 C697 1.390 . S
C689 C688 1.387 . S
C689 C691 1.387 . S
H690 C697 0.950 . S
C691 C689 1.387 . S
C691 C693 1.390 . S
C691 H695 0.950 . S
H692 C688 0.950 . S
C693 C691 1.390 . S
C693 C694 1.387 . S
C693 H696 0.950 . S
C694 C693 1.387 . S
C694 C697 1.387 . S
H695 C691 0.950 . S
H696 C693 0.950 . S
C697 C688 1.390 . S
C697 H690 0.950 . S
C697 C694 1.387 . S
C698 C699 1.387 . S
C698 H702 0.950 . S
C698 C707 1.390 1_455 S
C699 C698 1.387 . S
C699 C701 1.387 . S
H700 C707 0.950 . S
C701 C699 1.387 . S
C701 C703 1.390 1_455 S
C701 H705 0.950 . S
H702 C698 0.950 . S
C703 C701 1.390 1_655 S
C703 C704 1.387 . S
C703 H706 0.950 . S
C704 C703 1.387 . S
C704 C707 1.387 . S
H705 C701 0.950 . S
H706 C703 0.950 . S
C707 C698 1.390 1_655 S
C707 H700 0.950 . S
C707 C704 1.387 . S
C708 C709 1.387 . S
C708 H712 0.950 . S
C708 C717 1.390 . S
C709 C708 1.387 . S
C709 C711 1.387 . S
H710 C717 0.950 . S
C711 C709 1.387 . S
C711 C713 1.390 . S
C711 H715 0.950 . S
H712 C708 0.950 . S
C713 C711 1.390 . S
C713 C714 1.387 . S
C713 H716 0.950 . S
C714 C713 1.387 . S
C714 C717 1.387 . S
H715 C711 0.950 . S
H716 C713 0.950 . S
C717 C708 1.390 . S
C717 H710 0.950 . S
C717 C714 1.387 . S
C718 C719 1.387 . S
C718 H722 0.950 . S
C718 C727 1.390 . S
C719 C718 1.387 . S
C719 C721 1.387 . S
H720 C727 0.950 . S
C721 C719 1.387 . S
C721 C723 1.390 . S
C721 H725 0.950 . S
H722 C718 0.950 . S
C723 C721 1.390 . S
C723 C724 1.387 . S
C723 H726 0.950 . S
C724 C723 1.387 . S
C724 C727 1.387 . S
H725 C721 0.950 . S
H726 C723 0.950 . S
C727 C718 1.390 . S
C727 H720 0.950 . S
C727 C724 1.387 . S
C728 C729 1.387 . S
C728 H732 0.950 . S
C728 C737 1.390 . S
C729 C728 1.387 . S
C729 C731 1.387 . S
H730 C737 0.950 . S
C731 C729 1.387 . S
C731 C733 1.390 . S
C731 H735 0.950 . S
H732 C728 0.950 . S
C733 C731 1.390 . S
C733 C734 1.387 . S
C733 H736 0.950 . S
C734 C733 1.387 . S
C734 C737 1.387 . S
H735 C731 0.950 . S
H736 C733 0.950 . S
C737 C728 1.390 . S
C737 H730 0.950 . S
C737 C734 1.387 . S
C738 C739 1.387 . S
C738 H742 0.950 . S
C738 C747 1.390 . S
C739 C738 1.387 . S
C739 C741 1.387 . S
H740 C747 0.950 . S
C741 C739 1.387 . S
C741 C743 1.390 . S
C741 H745 0.950 . S
H742 C738 0.950 . S
C743 C741 1.390 . S
C743 C744 1.387 . S
C743 H746 0.950 . S
C744 C743 1.387 . S
C744 C747 1.387 . S
H745 C741 0.950 . S
H746 C743 0.950 . S
C747 C738 1.390 . S
C747 H740 0.950 . S
C747 C744 1.387 . S
C748 C749 1.387 . S
C748 H752 0.950 . S
C748 C757 1.390 . S
C749 C748 1.387 . S
C749 C751 1.387 . S
H750 C757 0.950 . S
C751 C749 1.387 . S
C751 C753 1.390 . S
C751 H755 0.950 . S
H752 C748 0.950 . S
C753 C751 1.390 . S
C753 C754 1.387 . S
C753 H756 0.950 . S
C754 C753 1.387 . S
C754 C757 1.387 . S
H755 C751 0.950 . S
H756 C753 0.950 . S
C757 C748 1.390 . S
C757 H750 0.950 . S
C757 C754 1.387 . S
C758 C759 1.387 . S
C758 H762 0.950 . S
C758 C767 1.390 . S
C759 C758 1.387 . S
C759 C761 1.387 . S
H760 C767 0.950 . S
C761 C759 1.387 . S
C761 C763 1.390 . S
C761 H765 0.950 . S
H762 C758 0.950 . S
C763 C761 1.390 . S
C763 C764 1.387 . S
C763 H766 0.950 . S
C764 C763 1.387 . S
C764 C767 1.387 . S
H765 C761 0.950 . S
H766 C763 0.950 . S
C767 C758 1.390 . S
C767 H760 0.950 . S
C767 C764 1.387 . S
C409 C4 1.459 . S
C414 C276 1.458 . S
C419 C38 1.459 . S
C424 C310 1.459 . S
C429 C72 1.457 . S
C434 C344 1.457 . S
C439 C378 1.457 . S
C444 C106 1.458 . S
C449 C140 1.459 . S
C454 C208 1.459 . S
C459 C242 1.458 . S
C464 C174 1.457 . S
C469 C340 2.185 . S
C474 C0 2.185 . S
C479 C374 2.184 . S
C484 C34 2.185 . S
C489 C68 2.184 . S
C494 C204 2.185 . S
C499 C238 2.185 . S
C504 C102 2.184 . S
C509 C272 2.185 . S
C514 C136 2.184 . S
C519 C170 2.185 . S
C524 C306 2.184 . S
C529 C246 2.172 . S
C534 C8 2.172 . S
C539 C280 2.172 . S
C544 C42 2.174 . S
C549 C314 2.172 . S
C554 C76 2.173 . S
C559 C110 2.172 . S
C564 C348 2.172 . S
C569 C144 2.172 . S
C574 C382 2.172 . S
C579 C178 2.173 . S
C584 C212 2.174 . S
C589 C13 0.615 . S
C594 C115 0.615 . S
C599 C47 0.615 . S
C604 C149 0.615 . S
C609 C81 0.615 . S
C614 C183 0.615 . S
C619 C319 0.609 . S
C624 C217 0.609 . S
C629 C251 0.615 . S
C634 C353 0.615 . S
C639 C387 0.615 . S
C644 C285 0.615 . S
C649 C267 2.016 . S
C654 C29 2.016 . S
C659 C301 2.016 . S
C664 C63 2.018 . S
C669 C97 2.017 . S
C674 C335 2.019 . S
C679 C369 2.018 . S
C684 C131 2.018 . S
C689 C403 2.018 . S
C694 C165 2.019 . S
C699 C199 2.017 . S
C704 C233 2.019 . S
C709 C17 2.035 . S
C714 C357 2.035 . S
C719 C51 2.037 . S
C724 C391 2.035 . S
C729 C85 2.034 . S
C734 C221 2.036 . S
C739 C119 2.035 . S
C744 C255 2.035 . S
C749 C153 2.035 . S
C754 C289 2.037 . S
C759 C323 2.034 . S
C764 C187 2.035 . S
