# Generated by pormake.
# Topology yfg, (5)-cn, num edge types: 1
# Building blocks:
#     Node 0, Type 0, BuildingBlock: XOMCOT_clean_sbu_0, # of connection points: 5
#     Node 1, Type 0, BuildingBlock: XOMCOT_clean_sbu_0, # of connection points: 5
#     Node 2, Type 0, BuildingBlock: XOMCOT_clean_sbu_0, # of connection points: 5
#     Node 3, Type 0, BuildingBlock: XOMCOT_clean_sbu_0, # of connection points: 5
#     Node 4, Type 0, BuildingBlock: XOMCOT_clean_sbu_0, # of connection points: 5
#     Node 5, Type 0, BuildingBlock: XOMCOT_clean_sbu_0, # of connection points: 5
#     Node 6, Type 0, BuildingBlock: XOMCOT_clean_sbu_0, # of connection points: 5
#     Node 7, Type 0, BuildingBlock: XOMCOT_clean_sbu_0, # of connection points: 5
#     Edge 8, Type (0, 0), BuildingBlock: MIFKUJ_clean_linker_0, # of connection points: 2
#     Edge 9, Type (0, 0), BuildingBlock: MIFKUJ_clean_linker_0, # of connection points: 2
#     Edge 10, Type (0, 0), BuildingBlock: MIFKUJ_clean_linker_0, # of connection points: 2
#     Edge 11, Type (0, 0), BuildingBlock: MIFKUJ_clean_linker_0, # of connection points: 2
#     Edge 12, Type (0, 0), BuildingBlock: MIFKUJ_clean_linker_0, # of connection points: 2
#     Edge 13, Type (0, 0), BuildingBlock: MIFKUJ_clean_linker_0, # of connection points: 2
#     Edge 14, Type (0, 0), BuildingBlock: MIFKUJ_clean_linker_0, # of connection points: 2
#     Edge 15, Type (0, 0), BuildingBlock: MIFKUJ_clean_linker_0, # of connection points: 2
#     Edge 16, Type (0, 0), BuildingBlock: MIFKUJ_clean_linker_0, # of connection points: 2
#     Edge 17, Type (0, 0), BuildingBlock: MIFKUJ_clean_linker_0, # of connection points: 2
#     Edge 18, Type (0, 0), BuildingBlock: MIFKUJ_clean_linker_0, # of connection points: 2
#     Edge 19, Type (0, 0), BuildingBlock: MIFKUJ_clean_linker_0, # of connection points: 2
#     Edge 20, Type (0, 0), BuildingBlock: MIFKUJ_clean_linker_0, # of connection points: 2
#     Edge 21, Type (0, 0), BuildingBlock: MIFKUJ_clean_linker_0, # of connection points: 2
#     Edge 22, Type (0, 0), BuildingBlock: MIFKUJ_clean_linker_0, # of connection points: 2
#     Edge 23, Type (0, 0), BuildingBlock: MIFKUJ_clean_linker_0, # of connection points: 2
#     Edge 24, Type (0, 0), BuildingBlock: MIFKUJ_clean_linker_0, # of connection points: 2
#     Edge 25, Type (0, 0), BuildingBlock: MIFKUJ_clean_linker_0, # of connection points: 2
#     Edge 26, Type (0, 0), BuildingBlock: MIFKUJ_clean_linker_0, # of connection points: 2
#     Edge 27, Type (0, 0), BuildingBlock: MIFKUJ_clean_linker_0, # of connection points: 2
# Relax obj value: 0.354
# Max RMSD: 0.191
# Mean RMSD: 0.191
data_MOF--net-yfg--node1-XOMCOT_clean_sbu_0--edge1-MIFKUJ_clean_linker_0
_symmetry_space_group_name_H-M    P1
_symmetry_Int_Tables_number       1
_symmetry_cell_setting            triclinic
loop_
_symmetry_equiv_pos_as_xyz
'x, y, z'
_cell_length_a     44.092901
_cell_length_b     44.074026
_cell_length_c     54.15726
_cell_angle_alpha  89.97764
_cell_angle_beta   90.045807
_cell_angle_gamma 90.000725
loop_
_atom_site_label
_atom_site_type_symbol
_atom_site_fract_x
_atom_site_fract_y
_atom_site_fract_z
_atom_type_partial_charge
Co0 Co 0.25332 0.50611 0.04937 0.0
C1 C 0.28147 0.53122 0.00374 0.0
C2 C 0.28375 0.48264 0.00464 0.0
C3 C 0.29818 0.4928 0.98359 0.0
N4 N 0.27352 0.50677 0.01744 0.0
N5 N 0.29674 0.52338 0.98308 0.0
H6 H 0.27698 0.55444 0.00899 0.0
H7 H 0.28117 0.45924 0.01024 0.0
C8 C 0.26458 0.4456 0.0737 0.0
O9 O 0.23733 0.44648 0.08345 0.0
N10 N 0.23328 0.50638 0.08127 0.0
C11 C 0.20327 0.50662 0.08619 0.0
C12 C 0.19933 0.50693 0.11144 0.0
C13 C 0.24709 0.50745 0.10353 0.0
N14 N 0.2269 0.50753 0.1222 0.0
C15 C 0.19825 0.51073 0.02204 0.0
C16 C 0.17959 0.4511 0.02558 0.0
C17 C 0.15948 0.47271 0.01597 0.0
C18 C 0.16958 0.5026 0.01336 0.0
C19 C 0.20857 0.46009 0.03344 0.0
N20 N 0.21682 0.49002 0.03325 0.0
H21 H 0.20498 0.53414 0.02036 0.0
H22 H 0.22386 0.44279 0.03967 0.0
H23 H 0.18537 0.50645 0.07258 0.0
H24 H 0.27144 0.50719 0.10606 0.0
O25 O 0.24425 0.54912 0.04725 0.0
O26 O 0.2861 0.52939 0.06329 0.0
O27 O 0.27219 0.46491 0.05706 0.0
C28 C 0.26997 0.55333 0.05849 0.0
H29 H 0.30884 0.47872 0.96971 0.0
H30 H 0.17788 0.50694 0.12115 0.0
H31 H 0.17294 0.42751 0.02705 0.0
H32 H 0.15491 0.51991 0.00566 0.0
Co33 Co 0.50157 0.25494 0.29782 0.0
C34 C 0.47568 0.28255 0.25243 0.0
C35 C 0.52189 0.29612 0.25777 0.0
C36 C 0.51051 0.311 0.23737 0.0
N37 N 0.49997 0.27838 0.26736 0.0
N38 N 0.48133 0.30261 0.23405 0.0
H39 H 0.45412 0.2714 0.25513 0.0
H40 H 0.54441 0.29891 0.26531 0.0
C41 C 0.56329 0.26167 0.32097 0.0
O42 O 0.56215 0.23378 0.32947 0.0
N43 N 0.50206 0.2315 0.32828 0.0
C44 C 0.50017 0.20114 0.33094 0.0
C45 C 0.50028 0.19421 0.35568 0.0
C46 C 0.50262 0.24259 0.35155 0.0
N47 N 0.5018 0.22027 0.36871 0.0
C48 C 0.49256 0.20157 0.2691 0.0
C49 C 0.55161 0.1807 0.27013 0.0
C50 C 0.52836 0.16061 0.26341 0.0
C51 C 0.49878 0.17196 0.26157 0.0
C52 C 0.54434 0.21029 0.27758 0.0
N53 N 0.51477 0.21946 0.27898 0.0
H54 H 0.46933 0.20917 0.26867 0.0
H55 H 0.56255 0.22502 0.28304 0.0
H56 H 0.49882 0.1848 0.31618 0.0
H57 H 0.50358 0.26656 0.35572 0.0
O58 O 0.45788 0.2488 0.29699 0.0
O59 O 0.48142 0.28736 0.3148 0.0
O60 O 0.54405 0.27073 0.30481 0.0
C61 C 0.45611 0.27357 0.30998 0.0
H62 H 0.52261 0.32762 0.22646 0.0
H63 H 0.4996 0.17155 0.36331 0.0
H64 H 0.57495 0.17313 0.27107 0.0
H65 H 0.48029 0.15756 0.25554 0.0
Co66 Co 0.74973 0.49584 0.5467 0.0
C67 C 0.72316 0.47061 0.50063 0.0
C68 C 0.72078 0.51917 0.50106 0.0
C69 C 0.70716 0.50873 0.47971 0.0
N70 N 0.73074 0.49521 0.51425 0.0
N71 N 0.7085 0.47815 0.47959 0.0
H72 H 0.7281 0.44751 0.50591 0.0
H73 H 0.72267 0.54261 0.5067 0.0
C74 C 0.74057 0.55675 0.5695 0.0
O75 O 0.76924 0.55668 0.57615 0.0
N76 N 0.76818 0.49579 0.57927 0.0
C77 C 0.79755 0.49273 0.58582 0.0
C78 C 0.79953 0.49331 0.61118 0.0
C79 C 0.75279 0.49762 0.60074 0.0
N80 N 0.77135 0.49645 0.62054 0.0
C81 C 0.80926 0.49275 0.52612 0.0
C82 C 0.81773 0.55397 0.5177 0.0
C83 C 0.84206 0.53403 0.51396 0.0
C84 C 0.83721 0.50298 0.51751 0.0
C85 C 0.78979 0.54264 0.52592 0.0
N86 N 0.78647 0.5126 0.53171 0.0
H87 H 0.80671 0.4688 0.52949 0.0
H88 H 0.77118 0.55827 0.52775 0.0
H89 H 0.81644 0.4902 0.57341 0.0
H90 H 0.72837 0.49964 0.60172 0.0
O91 O 0.75914 0.45288 0.54459 0.0
O92 O 0.71667 0.47233 0.55972 0.0
O93 O 0.73078 0.53674 0.55429 0.0
C94 C 0.73309 0.44851 0.55527 0.0
H95 H 0.69622 0.52257 0.4658 0.0
H96 H 0.82026 0.49182 0.62181 0.0
H97 H 0.82029 0.57806 0.51432 0.0
H98 H 0.8553 0.48671 0.5147 0.0
Co99 Co 0.50922 0.7452 0.8011 0.0
C100 C 0.53675 0.71304 0.75821 0.0
C101 C 0.48874 0.71845 0.75406 0.0
C102 C 0.49994 0.70391 0.73344 0.0
N103 N 0.51183 0.72414 0.76964 0.0
N104 N 0.53024 0.70044 0.73604 0.0
H105 H 0.55925 0.71407 0.76593 0.0
H106 H 0.46537 0.72473 0.75729 0.0
C107 C 0.44723 0.73384 0.82261 0.0
O108 O 0.44636 0.76168 0.83123 0.0
N109 N 0.50717 0.76627 0.83249 0.0
C110 C 0.50679 0.79647 0.83663 0.0
C111 C 0.50551 0.80145 0.86167 0.0
C112 C 0.50682 0.75335 0.85512 0.0
N113 N 0.50557 0.77435 0.87318 0.0
C114 C 0.51443 0.80092 0.77475 0.0
C115 C 0.45378 0.81612 0.77275 0.0
C116 C 0.4754 0.83798 0.76594 0.0
C117 C 0.50601 0.8295 0.76616 0.0
C118 C 0.46326 0.78749 0.78112 0.0
N119 N 0.49343 0.78096 0.78372 0.0
H120 H 0.53827 0.79571 0.7753 0.0
H121 H 0.44615 0.77104 0.78556 0.0
H122 H 0.50739 0.81392 0.82268 0.0
H123 H 0.50677 0.7291 0.85829 0.0
O124 O 0.55213 0.75481 0.80021 0.0
O125 O 0.53237 0.71332 0.81667 0.0
O126 O 0.46814 0.72581 0.80751 0.0
C127 C 0.55629 0.72963 0.81223 0.0
H128 H 0.48664 0.69697 0.71764 0.0
H129 H 0.50503 0.82332 0.87076 0.0
H130 H 0.42977 0.82118 0.77187 0.0
H131 H 0.52367 0.84533 0.76096 0.0
Co132 Co 0.25355 0.49527 0.45579 0.0
C133 C 0.27895 0.46993 0.50238 0.0
C134 C 0.28355 0.51832 0.501 0.0
C135 C 0.2968 0.50788 0.52248 0.0
N136 N 0.27255 0.49447 0.48825 0.0
N137 N 0.29394 0.4774 0.52329 0.0
H138 H 0.27363 0.44686 0.49722 0.0
H139 H 0.2824 0.54172 0.49508 0.0
C140 C 0.26149 0.55714 0.434 0.0
O141 O 0.23319 0.55626 0.42637 0.0
N142 N 0.23488 0.49527 0.42322 0.0
C143 C 0.20587 0.48897 0.41715 0.0
C144 C 0.20308 0.48932 0.39189 0.0
C145 C 0.2494 0.49881 0.40141 0.0
N146 N 0.23043 0.49553 0.38199 0.0
C147 C 0.19434 0.48982 0.47658 0.0
C148 C 0.1824 0.55081 0.48293 0.0
C149 C 0.15856 0.52992 0.48516 0.0
C150 C 0.16528 0.499 0.48324 0.0
C151 C 0.21139 0.54053 0.47627 0.0
N152 N 0.2163 0.51057 0.47101 0.0
H153 H 0.19831 0.46589 0.47423 0.0
H154 H 0.2294 0.55693 0.47483 0.0
H155 H 0.18783 0.48377 0.42983 0.0
H156 H 0.27348 0.50314 0.39982 0.0
O157 O 0.24546 0.45204 0.45738 0.0
O158 O 0.28725 0.47305 0.4424 0.0
O159 O 0.27133 0.53688 0.44895 0.0
C160 C 0.27164 0.44863 0.44671 0.0
H161 H 0.30773 0.52171 0.53639 0.0
H162 H 0.18242 0.48522 0.38161 0.0
H163 H 0.17843 0.5749 0.4852 0.0
H164 H 0.14786 0.48197 0.48593 0.0
Co165 Co 0.50301 0.25471 0.70329 0.0
C166 C 0.53091 0.28516 0.74692 0.0
C167 C 0.48248 0.28985 0.74663 0.0
C168 C 0.49385 0.30517 0.7668 0.0
N169 N 0.50573 0.27754 0.73397 0.0
N170 N 0.5243 0.30224 0.76695 0.0
H171 H 0.55372 0.27897 0.74165 0.0
H172 H 0.45881 0.28796 0.74168 0.0
C173 C 0.44005 0.26298 0.68212 0.0
O174 O 0.44045 0.23558 0.67258 0.0
N175 N 0.50123 0.23186 0.67265 0.0
C176 C 0.50477 0.20169 0.66961 0.0
C177 C 0.50512 0.19529 0.64477 0.0
C178 C 0.5001 0.24341 0.64954 0.0
N179 N 0.50224 0.22153 0.63217 0.0
C180 C 0.51256 0.20155 0.7321 0.0
C181 C 0.45378 0.17992 0.73138 0.0
C182 C 0.47726 0.16029 0.73851 0.0
C183 C 0.5067 0.17202 0.74007 0.0
C184 C 0.46068 0.20943 0.72348 0.0
N185 N 0.49012 0.21903 0.72206 0.0
H186 H 0.53567 0.2095 0.73255 0.0
H187 H 0.44229 0.22382 0.71788 0.0
H188 H 0.50773 0.18531 0.68422 0.0
H189 H 0.49762 0.26735 0.64555 0.0
O190 O 0.5466 0.24801 0.7031 0.0
O191 O 0.52293 0.28708 0.68606 0.0
O192 O 0.46059 0.27125 0.69748 0.0
C193 C 0.54817 0.2727 0.68997 0.0
H194 H 0.48065 0.31732 0.78044 0.0
H195 H 0.50821 0.17308 0.63663 0.0
H196 H 0.43053 0.17206 0.73059 0.0
H197 H 0.52537 0.15805 0.74641 0.0
Co198 Co 0.7438 0.51207 0.95196 0.0
C199 C 0.71772 0.53629 0.99868 0.0
C200 C 0.71646 0.48778 0.99831 0.0
C201 C 0.70243 0.49796 0.01953 0.0
N202 N 0.72589 0.51186 0.98503 0.0
N203 N 0.70304 0.52858 0.01969 0.0
H204 H 0.72231 0.55941 0.99341 0.0
H205 H 0.71895 0.46438 0.99296 0.0
C206 C 0.72004 0.44671 0.94392 0.0
O207 O 0.74069 0.43346 0.95767 0.0
N208 N 0.76051 0.51313 0.91898 0.0
C209 C 0.78857 0.52215 0.91238 0.0
C210 C 0.79049 0.5218 0.88701 0.0
C211 C 0.74546 0.50828 0.89766 0.0
N212 N 0.76334 0.51323 0.87787 0.0
C213 C 0.79314 0.49883 0.98432 0.0
C214 C 0.82228 0.45799 0.95371 0.0
C215 C 0.83782 0.46918 0.9744 0.0
C216 C 0.82243 0.48903 0.99028 0.0
C217 C 0.79286 0.46811 0.94856 0.0
N218 N 0.77886 0.4889 0.96345 0.0
H219 H 0.78281 0.51617 0.99562 0.0
H220 H 0.78213 0.46066 0.93166 0.0
H221 H 0.80624 0.52884 0.92513 0.0
H222 H 0.7219 0.50148 0.89666 0.0
O223 O 0.76016 0.55239 0.95697 0.0
O224 O 0.71449 0.54158 0.94175 0.0
O225 O 0.71896 0.47556 0.94192 0.0
C226 C 0.73488 0.56186 0.94713 0.0
H227 H 0.69179 0.48375 0.03332 0.0
H228 H 0.81006 0.52809 0.8761 0.0
H229 H 0.83323 0.44251 0.94101 0.0
H230 H 0.83368 0.49865 0.00624 0.0
Co231 Co 0.49596 0.74569 0.20753 0.0
C232 C 0.46993 0.71692 0.25231 0.0
C233 C 0.51813 0.71104 0.25088 0.0
C234 C 0.50705 0.69582 0.27127 0.0
N235 N 0.49477 0.72409 0.23886 0.0
N236 N 0.47664 0.69937 0.27204 0.0
H237 H 0.44724 0.72421 0.24773 0.0
H238 H 0.54156 0.71187 0.24506 0.0
C239 C 0.55758 0.73831 0.18495 0.0
O240 O 0.55684 0.76685 0.17793 0.0
N241 N 0.49614 0.76698 0.17616 0.0
C242 C 0.49026 0.79654 0.17183 0.0
C243 C 0.48982 0.80134 0.14676 0.0
C244 C 0.49869 0.75416 0.15359 0.0
N245 N 0.49512 0.7747 0.13534 0.0
C246 C 0.49013 0.80237 0.23259 0.0
C247 C 0.55099 0.8159 0.23712 0.0
C248 C 0.52957 0.83851 0.24253 0.0
C249 C 0.49879 0.83089 0.24114 0.0
C250 C 0.54124 0.78734 0.22884 0.0
N251 N 0.51115 0.78173 0.22476 0.0
H252 H 0.46623 0.79784 0.23085 0.0
H253 H 0.55812 0.77021 0.22551 0.0
H254 H 0.48587 0.81356 0.18564 0.0
H255 H 0.5025 0.73017 0.15064 0.0
O256 O 0.45276 0.75374 0.20918 0.0
O257 O 0.47377 0.71309 0.19226 0.0
O258 O 0.53758 0.7282 0.20002 0.0
C259 C 0.44937 0.72841 0.1972 0.0
H260 H 0.52036 0.68238 0.28401 0.0
H261 H 0.48586 0.82285 0.13765 0.0
H262 H 0.57504 0.82034 0.239 0.0
H263 H 0.48131 0.84736 0.24533 0.0
H264 H 0.20274 0.46531 0.34498 0.0
H265 H 0.21396 0.46827 0.30103 0.0
H266 H 0.28533 0.53272 0.31567 0.0
H267 H 0.27439 0.52949 0.36015 0.0
H268 H 0.2424 0.55023 0.27786 0.0
H269 H 0.30986 0.46905 0.29533 0.0
H270 H 0.32777 0.42073 0.31311 0.0
H271 H 0.25703 0.37281 0.27507 0.0
H272 H 0.23873 0.42085 0.25699 0.0
H273 H 0.2708 0.53879 0.14606 0.0
H274 H 0.28115 0.53842 0.19074 0.0
H275 H 0.20855 0.47414 0.20136 0.0
H276 H 0.19783 0.47499 0.15695 0.0
H277 H 0.26464 0.45962 0.22659 0.0
H278 H 0.1948 0.54212 0.21241 0.0
H279 H 0.17773 0.59031 0.19404 0.0
H280 H 0.25275 0.63677 0.22745 0.0
H281 H 0.27097 0.58854 0.24543 0.0
C282 C 0.22085 0.4801 0.33894 0.0
C283 C 0.23769 0.4971 0.35608 0.0
C284 C 0.22744 0.48154 0.31381 0.0
C285 C 0.25068 0.50044 0.30514 0.0
C286 C 0.2675 0.51774 0.32207 0.0
C287 C 0.26129 0.51582 0.34742 0.0
C288 C 0.25553 0.50318 0.27818 0.0
C289 C 0.24813 0.5307 0.2666 0.0
C290 C 0.26251 0.47751 0.2636 0.0
C291 C 0.27286 0.44859 0.27488 0.0
C292 C 0.298 0.44824 0.29087 0.0
C293 C 0.30834 0.42088 0.30088 0.0
C294 C 0.29362 0.39371 0.29514 0.0
C295 C 0.26848 0.39386 0.27941 0.0
C296 C 0.2582 0.42113 0.2692 0.0
C297 C 0.25722 0.52454 0.15801 0.0
C298 C 0.23342 0.50703 0.14821 0.0
C299 C 0.26309 0.52436 0.18343 0.0
C300 C 0.24562 0.50621 0.19927 0.0
C301 C 0.22232 0.48822 0.18939 0.0
C302 C 0.21606 0.48889 0.16413 0.0
C303 C 0.2507 0.50644 0.2263 0.0
C304 C 0.2598 0.47941 0.23783 0.0
C305 C 0.24534 0.53261 0.24081 0.0
C306 C 0.23467 0.56155 0.22978 0.0
C307 C 0.20805 0.56246 0.21546 0.0
C308 C 0.19813 0.58981 0.20516 0.0
C309 C 0.21437 0.61652 0.20937 0.0
C310 C 0.24047 0.61596 0.22399 0.0
C311 C 0.25064 0.58862 0.23419 0.0
H312 H 0.20661 0.63769 0.20145 0.0
H313 H 0.30163 0.37257 0.30295 0.0
H314 H 0.51937 0.2697 0.39555 0.0
H315 H 0.51931 0.27458 0.44046 0.0
H316 H 0.48719 0.18281 0.44752 0.0
H317 H 0.48556 0.17791 0.40285 0.0
H318 H 0.45535 0.22275 0.47647 0.0
H319 H 0.56107 0.20234 0.4567 0.0
H320 H 0.60937 0.21357 0.43571 0.0
H321 H 0.61386 0.29995 0.47214 0.0
H322 H 0.56516 0.28959 0.49287 0.0
H323 H 0.48322 0.18055 0.59846 0.0
H324 H 0.4834 0.18597 0.55369 0.0
H325 H 0.51973 0.27641 0.56075 0.0
H326 H 0.52088 0.27059 0.60579 0.0
H327 H 0.54849 0.2448 0.5246 0.0
H328 H 0.44693 0.26831 0.54497 0.0
H329 H 0.39747 0.26219 0.56559 0.0
H330 H 0.38386 0.17738 0.5282 0.0
H331 H 0.4335 0.18275 0.50766 0.0
C332 C 0.51193 0.25059 0.40651 0.0
C333 C 0.5024 0.22337 0.39529 0.0
C334 C 0.51227 0.25342 0.43222 0.0
C335 C 0.50348 0.22909 0.44727 0.0
C336 C 0.49419 0.20187 0.43624 0.0
C337 C 0.49351 0.19907 0.41057 0.0
C338 C 0.50325 0.23202 0.47453 0.0
C339 C 0.47577 0.22733 0.48701 0.0
C340 C 0.52961 0.23947 0.4882 0.0
C341 C 0.55922 0.24535 0.47609 0.0
C342 C 0.57219 0.22386 0.46006 0.0
C343 C 0.59965 0.23008 0.44819 0.0
C344 C 0.61457 0.25755 0.45246 0.0
C345 C 0.60218 0.27876 0.46874 0.0
C346 C 0.57464 0.27273 0.48054 0.0
C347 C 0.49153 0.2015 0.59054 0.0
C348 C 0.50195 0.22516 0.60572 0.0
C349 C 0.49132 0.2047 0.56492 0.0
C350 C 0.50125 0.23173 0.55388 0.0
C351 C 0.5119 0.25539 0.56891 0.0
C352 C 0.51227 0.25213 0.59463 0.0
C353 C 0.50078 0.23473 0.52659 0.0
C354 C 0.52802 0.24063 0.51408 0.0
C355 C 0.47408 0.22912 0.51282 0.0
C356 C 0.44408 0.22581 0.52496 0.0
C357 C 0.43351 0.24822 0.54132 0.0
C358 C 0.40543 0.24491 0.55296 0.0
C359 C 0.38757 0.21937 0.54826 0.0
C360 C 0.39773 0.19713 0.53184 0.0
C361 C 0.42583 0.20032 0.52017 0.0
H362 H 0.36583 0.21685 0.55729 0.0
H363 H 0.63581 0.26234 0.44323 0.0
H364 H 0.71975 0.52044 0.63984 0.0
H365 H 0.70455 0.52082 0.68324 0.0
H366 H 0.78928 0.47842 0.70311 0.0
H367 H 0.80354 0.47584 0.65982 0.0
H368 H 0.74308 0.45297 0.7274 0.0
H369 H 0.7731 0.56001 0.70777 0.0
H370 H 0.76439 0.60646 0.68323 0.0
H371 H 0.67161 0.60881 0.70719 0.0
H372 H 0.67982 0.56236 0.73185 0.0
H373 H 0.79887 0.4917 0.84162 0.0
H374 H 0.78628 0.48742 0.79782 0.0
H375 H 0.69735 0.5243 0.81202 0.0
H376 H 0.70993 0.52829 0.85624 0.0
H377 H 0.72667 0.55089 0.77064 0.0
H378 H 0.69665 0.45519 0.79726 0.0
H379 H 0.69721 0.40685 0.81999 0.0
H380 H 0.7779 0.37977 0.78155 0.0
H381 H 0.77811 0.42825 0.75877 0.0
C382 C 0.73488 0.51065 0.65338 0.0
C383 C 0.76279 0.49787 0.64621 0.0
C384 C 0.72632 0.51128 0.67824 0.0
C385 C 0.74587 0.4999 0.69646 0.0
C386 C 0.77377 0.48734 0.68937 0.0
C387 C 0.7821 0.48623 0.66456 0.0
C388 C 0.73807 0.50129 0.72309 0.0
C389 C 0.73961 0.47438 0.73688 0.0
C390 C 0.73132 0.52893 0.73526 0.0
C391 C 0.72704 0.55771 0.72154 0.0
C392 C 0.7509 0.57053 0.70786 0.0
C393 C 0.74603 0.59681 0.69392 0.0
C394 C 0.71746 0.61056 0.69366 0.0
C395 C 0.69373 0.59815 0.70744 0.0
C396 C 0.6985 0.57191 0.72145 0.0
C397 C 0.77666 0.49886 0.8354 0.0
C398 C 0.75537 0.51025 0.85223 0.0
C399 C 0.76939 0.49626 0.81044 0.0
C400 C 0.74079 0.5053 0.80173 0.0
C401 C 0.71947 0.51703 0.81843 0.0
C402 C 0.7266 0.51914 0.8436 0.0
C403 C 0.73415 0.50282 0.77499 0.0
C404 C 0.7296 0.5294 0.76117 0.0
C405 C 0.73713 0.47471 0.76267 0.0
C406 C 0.73753 0.44554 0.77644 0.0
C407 C 0.71471 0.43908 0.79381 0.0
C408 C 0.71485 0.4116 0.80668 0.0
C409 C 0.73764 0.39028 0.80231 0.0
C410 C 0.76028 0.39635 0.78495 0.0
C411 C 0.76026 0.42383 0.77202 0.0
H412 H 0.73775 0.36904 0.81234 0.0
H413 H 0.7137 0.63085 0.6828 0.0
H414 H 0.47295 0.80593 0.90624 0.0
H415 H 0.47339 0.79992 0.95107 0.0
H416 H 0.5366 0.72563 0.94432 0.0
H417 H 0.53549 0.73117 0.89912 0.0
H418 H 0.49479 0.71445 0.9801 0.0
H419 H 0.56261 0.79465 0.96004 0.0
H420 H 0.57933 0.84183 0.93969 0.0
H421 H 0.50958 0.89168 0.97726 0.0
H422 H 0.49215 0.84471 0.99757 0.0
H423 H 0.52869 0.73265 0.11096 0.0
H424 H 0.53257 0.72638 0.06602 0.0
H425 H 0.46785 0.79872 0.05569 0.0
H426 H 0.46389 0.80497 0.10028 0.0
H427 H 0.51841 0.80707 0.02851 0.0
H428 H 0.44934 0.72366 0.04664 0.0
H429 H 0.4351 0.67565 0.06697 0.0
H430 H 0.51122 0.63098 0.03355 0.0
H431 H 0.52611 0.67883 0.01322 0.0
C432 C 0.48685 0.78829 0.91434 0.0
C433 C 0.50448 0.76927 0.89936 0.0
C434 C 0.48711 0.78484 0.93991 0.0
C435 C 0.50553 0.76274 0.95105 0.0
C436 C 0.52236 0.74293 0.93609 0.0
C437 C 0.52173 0.7461 0.91036 0.0
C438 C 0.5079 0.7615 0.97834 0.0
C439 C 0.50042 0.73454 0.99074 0.0
C440 C 0.51535 0.78769 0.99218 0.0
C441 C 0.52596 0.8161 0.98021 0.0
C442 C 0.55072 0.81564 0.96385 0.0
C443 C 0.56033 0.84235 0.95234 0.0
C444 C 0.54549 0.86972 0.95715 0.0
C445 C 0.52105 0.87045 0.97354 0.0
C446 C 0.51132 0.8438 0.98509 0.0
C447 C 0.51499 0.74686 0.09906 0.0
C448 C 0.49617 0.7695 0.10911 0.0
C449 C 0.51723 0.74328 0.07342 0.0
C450 C 0.50048 0.7621 0.05753 0.0
C451 C 0.48114 0.7841 0.06761 0.0
C452 C 0.47899 0.78776 0.0931 0.0
C453 C 0.50405 0.76042 0.03035 0.0
C454 C 0.51299 0.78688 0.01793 0.0
C455 C 0.49832 0.73367 0.01664 0.0
C456 C 0.48909 0.70491 0.02869 0.0
C457 C 0.46319 0.70367 0.04379 0.0
C458 C 0.45494 0.67647 0.05526 0.0
C459 C 0.47228 0.65032 0.05161 0.0
C460 C 0.49785 0.65127 0.0364 0.0
C461 C 0.50619 0.67841 0.02489 0.0
H462 H 0.46585 0.62929 0.06052 0.0
H463 H 0.55296 0.89037 0.94821 0.0
H464 H 0.12977 0.48214 0.97241 0.0
H465 H 0.07559 0.47551 0.96409 0.0
H466 H 0.06271 0.44144 0.03809 0.0
H467 H 0.11725 0.4466 0.0459 0.0
H468 H 0.02612 0.41268 0.00957 0.0
H469 H 0.04827 0.51796 0.02072 0.0
H470 H 0.07458 0.56647 0.01319 0.0
H471 H 0.04344 0.56632 0.93804 0.0
H472 H 0.01729 0.51757 0.94503 0.0
H473 H 0.86789 0.455 0.01739 0.0
H474 H 0.92286 0.45 0.02345 0.0
H475 H 0.93718 0.46547 0.94572 0.0
H476 H 0.88246 0.47049 0.93954 0.0
H477 H 0.97237 0.50276 0.97632 0.0
H478 H 0.94767 0.39664 0.96797 0.0
H479 H 0.92029 0.34958 0.97843 0.0
H480 H 0.95456 0.35388 0.05258 0.0
H481 H 0.98182 0.40123 0.04266 0.0
C482 C 0.11538 0.47275 0.98671 0.0
C483 C 0.1276 0.46497 0.00981 0.0
C484 C 0.08437 0.46919 0.98205 0.0
C485 C 0.06472 0.45878 1.00068 0.0
C486 C 0.07722 0.44966 0.02341 0.0
C487 C 0.1084 0.45258 0.02788 0.0
C488 C 0.03114 0.45877 0.99687 0.0
C489 C 0.01439 0.43252 0.00255 0.0
C490 C 0.01558 0.48454 0.98756 0.0
C491 C 0.03108 0.51397 0.98334 0.0
C492 C 0.04719 0.52818 0.00255 0.0
C493 C 0.06206 0.55572 0.99838 0.0
C494 C 0.06074 0.56943 0.97513 0.0
C495 C 0.04448 0.55565 0.95602 0.0
C496 C 0.02961 0.52808 0.96008 0.0
C497 C 0.88276 0.45701 1.00157 0.0
C498 C 0.87077 0.46301 0.97797 0.0
C499 C 0.91414 0.45403 0.00503 0.0
C500 C 0.93413 0.45727 0.98501 0.0
C501 C 0.92218 0.46279 0.96141 0.0
C502 C 0.89086 0.46541 0.95788 0.0
C503 C 0.96756 0.45667 0.9888 0.0
C504 C 0.9842 0.48291 0.98324 0.0
C505 C 0.98283 0.43116 0.99868 0.0
C506 C 0.96654 0.40264 0.00464 0.0
C507 C 0.94916 0.3877 0.98657 0.0
C508 C 0.9337 0.36094 0.99239 0.0
C509 C 0.93562 0.34879 0.01617 0.0
C510 C 0.95306 0.36334 0.03417 0.0
C511 C 0.96854 0.39012 0.02846 0.0
H512 H 0.92364 0.32807 0.02064 0.0
H513 H 0.07227 0.59075 0.97194 0.0
H514 H 0.57396 0.13175 0.23771 0.0
H515 H 0.58291 0.07673 0.23468 0.0
H516 H 0.50503 0.06021 0.28089 0.0
H517 H 0.49601 0.11472 0.28392 0.0
H518 H 0.55622 0.02649 0.29483 0.0
H519 H 0.4985 0.05089 0.22103 0.0
H520 H 0.48937 0.07791 0.18184 0.0
H521 H 0.57266 0.04265 0.15248 0.0
H522 H 0.58248 0.01574 0.19167 0.0
H523 H 0.50523 0.87716 0.27684 0.0
H524 H 0.5142 0.93148 0.28095 0.0
H525 H 0.58365 0.92671 0.22501 0.0
H526 H 0.57389 0.87232 0.22012 0.0
H527 H 0.54667 0.9718 0.21517 0.0
H528 H 0.60124 0.9414 0.28641 0.0
H529 H 0.61112 0.91426 0.32541 0.0
H530 H 0.53657 0.96055 0.35972 0.0
H531 H 0.52594 0.98767 0.32083 0.0
C532 C 0.5588 0.11631 0.24717 0.0
C533 C 0.53407 0.12752 0.26079 0.0
C534 C 0.56389 0.08495 0.24541 0.0
C535 C 0.54458 0.06439 0.25754 0.0
C536 C 0.52022 0.07563 0.27141 0.0
C537 C 0.51491 0.10679 0.27291 0.0
C538 C 0.54912 0.03106 0.25569 0.0
C539 C 0.55406 0.01445 0.27744 0.0
C540 C 0.54732 0.01551 0.2329 0.0
C541 C 0.54142 0.03165 0.20937 0.0
C542 C 0.51501 0.04914 0.2063 0.0
C543 C 0.50968 0.06438 0.18407 0.0
C544 C 0.53048 0.06208 0.16471 0.0
C545 C 0.55661 0.04447 0.16751 0.0
C546 C 0.56206 0.02921 0.18972 0.0
C547 C 0.52262 0.88757 0.26555 0.0
C548 C 0.5387 0.87036 0.24804 0.0
C549 C 0.52795 0.91866 0.26808 0.0
C550 C 0.54978 0.9333 0.25341 0.0
C551 C 0.56672 0.91597 0.23657 0.0
C552 C 0.56133 0.8848 0.23398 0.0
C553 C 0.55304 0.96694 0.25446 0.0
C554 C 0.54951 0.9837 0.23255 0.0
C555 C 0.55638 0.98265 0.27712 0.0
C556 C 0.56268 0.96644 0.30062 0.0
C557 C 0.58681 0.94564 0.30222 0.0
C558 C 0.59256 0.93028 0.32432 0.0
C559 C 0.57445 0.93564 0.34502 0.0
C560 C 0.55058 0.95642 0.34367 0.0
C561 C 0.54471 0.97183 0.32161 0.0
H562 H 0.57895 0.92372 0.36211 0.0
H563 H 0.5263 0.07388 0.14751 0.0
H564 H 0.1102 0.50894 0.45942 0.0
H565 H 0.05703 0.52259 0.464 0.0
H566 H 0.08066 0.58728 0.5206 0.0
H567 H 0.13447 0.57322 0.51628 0.0
H568 H 0.03274 0.55079 0.53406 0.0
H569 H 0.05724 0.61326 0.46576 0.0
H570 H 0.07952 0.62646 0.42543 0.0
H571 H 0.02175 0.56148 0.38969 0.0
H572 H 0.99942 0.54753 0.42985 0.0
H573 H 0.87371 0.58008 0.53584 0.0
H574 H 0.92756 0.59237 0.53021 0.0
H575 H 0.9339 0.52457 0.47302 0.0
H576 H 0.88021 0.51242 0.47845 0.0
H577 H 0.96754 0.57584 0.46214 0.0
H578 H 0.95189 0.50681 0.53104 0.0
H579 H 0.93011 0.492 0.57121 0.0
H580 H 0.97197 0.56921 0.60553 0.0
H581 H 0.99363 0.58472 0.56544 0.0
C582 C 0.10415 0.52605 0.4729 0.0
C583 C 0.12649 0.53979 0.48767 0.0
C584 C 0.07375 0.53409 0.4753 0.0
C585 C 0.06486 0.55622 0.49243 0.0
C586 C 0.08707 0.57027 0.50715 0.0
C587 C 0.11774 0.56232 0.50462 0.0
C588 C 0.03209 0.56302 0.49556 0.0
C589 C 0.01857 0.55714 0.51851 0.0
C590 C 0.01352 0.57085 0.47517 0.0
C591 C 0.02673 0.57926 0.45088 0.0
C592 C 0.04941 0.60163 0.44933 0.0
C593 C 0.06204 0.60927 0.42649 0.0
C594 C 0.05208 0.5948 0.40502 0.0
C595 C 0.02943 0.57269 0.40634 0.0
C596 C 0.01674 0.56494 0.42914 0.0
C597 C 0.88644 0.56839 0.52164 0.0
C598 C 0.87288 0.54514 0.5077 0.0
C599 C 0.91721 0.57528 0.51856 0.0
C600 C 0.93481 0.55912 0.50141 0.0
C601 C 0.92078 0.53729 0.48639 0.0
C602 C 0.89016 0.53025 0.48958 0.0
C603 C 0.96826 0.56274 0.5004 0.0
C604 C 0.98184 0.57044 0.47784 0.0
C605 C 0.98689 0.55654 0.52112 0.0
C606 C 0.97403 0.54714 0.54521 0.0
C607 C 0.95623 0.52076 0.54712 0.0
C608 C 0.94394 0.51222 0.56987 0.0
C609 C 0.94957 0.52971 0.59089 0.0
C610 C 0.96757 0.55574 0.58922 0.0
C611 C 0.97985 0.56441 0.56649 0.0
H612 H 0.94005 0.52306 0.6085 0.0
H613 H 0.06189 0.60074 0.38735 0.0
H614 H 0.51059 0.11368 0.72009 0.0
H615 H 0.50178 0.0593 0.72455 0.0
H616 H 0.42272 0.07726 0.769 0.0
H617 H 0.43148 0.13218 0.76459 0.0
H618 H 0.46297 0.03117 0.78835 0.0
H619 H 0.41043 0.05522 0.71344 0.0
H620 H 0.40475 0.07819 0.67218 0.0
H621 H 0.47788 0.02337 0.64487 0.0
H622 H 0.48433 1.00038 0.68608 0.0
H623 H 0.43209 0.87326 0.78837 0.0
H624 H 0.42348 0.92768 0.78288 0.0
H625 H 0.49196 0.92994 0.72605 0.0
H626 H 0.49952 0.87544 0.73053 0.0
H627 H 0.44854 0.96699 0.71399 0.0
H628 H 0.50679 0.94883 0.78794 0.0
H629 H 0.51675 0.92677 0.82902 0.0
H630 H 0.43761 0.97107 0.85787 0.0
H631 H 0.42696 0.99307 0.81685 0.0
C632 C 0.49148 0.10613 0.73104 0.0
C633 C 0.47184 0.12725 0.74214 0.0
C634 C 0.48633 0.07502 0.73339 0.0
C635 C 0.46148 0.06423 0.74694 0.0
C636 C 0.44199 0.08515 0.7584 0.0
C637 C 0.44694 0.11645 0.7558 0.0
C638 C 0.45629 0.03101 0.749 0.0
C639 C 0.4591 0.01714 0.77219 0.0
C640 C 0.45202 0.0127 0.72781 0.0
C641 C 0.44798 0.02622 0.70291 0.0
C642 C 0.42544 0.04821 0.69868 0.0
C643 C 0.42206 0.06121 0.67529 0.0
C644 C 0.44097 0.05228 0.65592 0.0
C645 C 0.46325 0.03027 0.65989 0.0
C646 C 0.46675 0.01721 0.68326 0.0
C647 C 0.44474 0.88516 0.77424 0.0
C648 C 0.46681 0.86995 0.76013 0.0
C649 C 0.44007 0.91642 0.77134 0.0
C650 C 0.45759 0.93317 0.75447 0.0
C651 C 0.4783 0.91768 0.73935 0.0
C652 C 0.4828 0.88647 0.7421 0.0
C653 C 0.45579 0.96693 0.75333 0.0
C654 C 0.45178 0.98096 0.73026 0.0
C655 C 0.45944 0.98537 0.7746 0.0
C656 C 0.46587 0.97227 0.79928 0.0
C657 C 0.49139 0.95368 0.80301 0.0
C658 C 0.49717 0.94121 0.82628 0.0
C659 C 0.47777 0.94743 0.84602 0.0
C660 C 0.45258 0.96621 0.84255 0.0
C661 C 0.44666 0.97869 0.81929 0.0
H662 H 0.48229 0.93777 0.86403 0.0
H663 H 0.43833 0.06239 0.63783 0.0
H664 H 0.40088 0.76371 0.185 0.0
H665 H 0.35505 0.74735 0.16277 0.0
H666 H 0.38601 0.65459 0.16603 0.0
H667 H 0.43185 0.67079 0.18765 0.0
H668 H 0.36017 0.71528 0.11591 0.0
H669 H 0.3247 0.61054 0.17374 0.0
H670 H 0.32314 0.59611 0.21764 0.0
H671 H 0.31168 0.68951 0.23816 0.0
H672 H 0.31276 0.7045 0.19431 0.0
H673 H 0.3273 0.57438 0.06317 0.0
H674 H 0.34346 0.61972 0.08562 0.0
H675 H 0.24998 0.64366 0.09864 0.0
H676 H 0.23363 0.59862 0.07539 0.0
H677 H 0.28921 0.63408 0.14211 0.0
H678 H 0.28438 0.6924 0.06836 0.0
H679 H 0.29258 0.70341 0.02423 0.0
H680 H 0.38897 0.69956 0.03506 0.0
H681 H 0.38137 0.68803 0.07916 0.0
C682 C 0.39743 0.73977 0.18145 0.0
C683 C 0.41976 0.71843 0.18789 0.0
C684 C 0.37142 0.73054 0.16872 0.0
C685 C 0.36721 0.69982 0.16296 0.0
C686 C 0.38876 0.67837 0.17059 0.0
C687 C 0.41494 0.68762 0.18283 0.0
C688 C 0.34237 0.68991 0.1466 0.0
C689 C 0.34407 0.69804 0.12161 0.0
C690 C 0.32131 0.66772 0.15432 0.0
C691 C 0.31889 0.65866 0.18068 0.0
C692 C 0.32153 0.628 0.18757 0.0
C693 C 0.32092 0.61973 0.21249 0.0
C694 C 0.31753 0.64192 0.23071 0.0
C695 C 0.31449 0.67238 0.22404 0.0
C696 C 0.31511 0.68077 0.19915 0.0
C697 C 0.31024 0.58983 0.07018 0.0
C698 C 0.27931 0.58321 0.06763 0.0
C699 C 0.31944 0.61571 0.08289 0.0
C700 C 0.29785 0.63497 0.09364 0.0
C701 C 0.26687 0.62913 0.09023 0.0
C702 C 0.25762 0.60355 0.07693 0.0
C703 C 0.30826 0.65828 0.11123 0.0
C704 C 0.30413 0.65239 0.13647 0.0
C705 C 0.32753 0.68214 0.10367 0.0
C706 C 0.33227 0.68928 0.07712 0.0
C707 C 0.30733 0.6937 0.06132 0.0
C708 C 0.31187 0.70006 0.0363 0.0
C709 C 0.34127 0.70217 0.02685 0.0
C710 C 0.36621 0.69795 0.04241 0.0
C711 C 0.36179 0.69156 0.06743 0.0
H712 H 0.34474 0.70709 0.00747 0.0
H713 H 0.31694 0.63553 0.24999 0.0
H714 H 0.44824 0.32373 0.33799 0.0
H715 H 0.4037 0.33779 0.36175 0.0
H716 H 0.3546 0.2616 0.33182 0.0
H717 H 0.39975 0.24687 0.30783 0.0
H718 H 0.32369 0.32715 0.33633 0.0
H719 H 0.36635 0.24589 0.38213 0.0
H720 H 0.40644 0.21395 0.40038 0.0
H721 H 0.43867 0.28978 0.44262 0.0
H722 H 0.39907 0.32238 0.42434 0.0
H723 H 0.23768 0.39954 0.43321 0.0
H724 H 0.25609 0.35387 0.41183 0.0
H725 H 0.34807 0.38603 0.4194 0.0
H726 H 0.32988 0.43153 0.44023 0.0
H727 H 0.34133 0.32255 0.4268 0.0
H728 H 0.30759 0.40468 0.37055 0.0
H729 H 0.26765 0.43714 0.35293 0.0
H730 H 0.21789 0.35816 0.33016 0.0
H731 H 0.25742 0.32518 0.34817 0.0
C732 C 0.42793 0.31009 0.3361 0.0
C733 C 0.42754 0.28406 0.32118 0.0
C734 C 0.40252 0.31816 0.34974 0.0
C735 C 0.37616 0.30049 0.34868 0.0
C736 C 0.37491 0.27537 0.33284 0.0
C737 C 0.40061 0.26707 0.31919 0.0
C738 C 0.35106 0.30826 0.36546 0.0
C739 C 0.32672 0.32518 0.35615 0.0
C740 C 0.35522 0.30569 0.39125 0.0
C741 C 0.37967 0.28655 0.40187 0.0
C742 C 0.38215 0.25585 0.39512 0.0
C743 C 0.40474 0.23763 0.4055 0.0
C744 C 0.4249 0.24985 0.42272 0.0
C745 C 0.42287 0.28038 0.42936 0.0
C746 C 0.40033 0.29872 0.41903 0.0
C747 C 0.26186 0.39635 0.43082 0.0
C748 C 0.28245 0.41898 0.43815 0.0
C749 C 0.27227 0.37038 0.4186 0.0
C750 C 0.30337 0.36674 0.41401 0.0
C751 C 0.32398 0.38841 0.42288 0.0
C752 C 0.31359 0.41444 0.43465 0.0
C753 C 0.31497 0.34265 0.39765 0.0
C754 C 0.33707 0.323 0.40707 0.0
C755 C 0.30862 0.34262 0.37202 0.0
C756 C 0.28513 0.36251 0.36108 0.0
C757 C 0.28793 0.39425 0.36209 0.0
C758 C 0.26531 0.41275 0.35208 0.0
C759 C 0.24004 0.39973 0.34063 0.0
C760 C 0.23737 0.3682 0.33918 0.0
C761 C 0.25984 0.3496 0.34932 0.0
H762 H 0.22269 0.41399 0.3326 0.0
H763 H 0.44192 0.23559 0.43104 0.0
H764 H 0.55315 0.3153 0.65434 0.0
H765 H 0.59778 0.32847 0.6304 0.0
H766 H 0.65147 0.26511 0.67256 0.0
H767 H 0.60617 0.25121 0.69675 0.0
H768 H 0.67678 0.3275 0.66457 0.0
H769 H 0.64174 0.24285 0.61992 0.0
H770 H 0.60487 0.20831 0.60042 0.0
H771 H 0.5779 0.27898 0.55041 0.0
H772 H 0.61389 0.31413 0.56998 0.0
H773 H 0.76834 0.40203 0.57207 0.0
H774 H 0.75046 0.35608 0.59345 0.0
H775 H 0.65787 0.38229 0.57886 0.0
H776 H 0.67551 0.4282 0.55817 0.0
H777 H 0.66968 0.3187 0.57339 0.0
H778 H 0.68906 0.40473 0.63034 0.0
H779 H 0.72253 0.44131 0.65149 0.0
H780 H 0.77763 0.36807 0.67845 0.0
H781 H 0.74458 0.33109 0.65723 0.0
C782 C 0.57442 0.30426 0.65877 0.0
C783 C 0.57621 0.28226 0.67746 0.0
C784 C 0.59985 0.31164 0.64491 0.0
C785 C 0.62767 0.29736 0.6495 0.0
C786 C 0.63001 0.27608 0.66867 0.0
C787 C 0.60425 0.2683 0.68246 0.0
C788 C 0.6539 0.30593 0.63415 0.0
C789 C 0.67609 0.32465 0.64467 0.0
C790 C 0.65277 0.30217 0.60823 0.0
C791 C 0.63068 0.28117 0.59644 0.0
C792 C 0.62777 0.25112 0.6049 0.0
C793 C 0.607 0.2314 0.59382 0.0
C794 C 0.58912 0.24137 0.57413 0.0
C795 C 0.5918 0.27117 0.5656 0.0
C796 C 0.61242 0.29102 0.57669 0.0
C797 C 0.74423 0.39742 0.57292 0.0
C798 C 0.72318 0.41848 0.56364 0.0
C799 C 0.73411 0.37133 0.58516 0.0
C800 C 0.70291 0.36594 0.58771 0.0
C801 C 0.68205 0.38602 0.57694 0.0
C802 C 0.69209 0.41225 0.56522 0.0
C803 C 0.69112 0.34163 0.60378 0.0
C804 C 0.67156 0.32012 0.59333 0.0
C805 C 0.69454 0.34291 0.62973 0.0
C806 C 0.7147 0.36523 0.6419 0.0
C807 C 0.70853 0.39648 0.64053 0.0
C808 C 0.72737 0.41728 0.65258 0.0
C809 C 0.75227 0.40701 0.66622 0.0
C810 C 0.75839 0.37597 0.66781 0.0
C811 C 0.73964 0.3551 0.65577 0.0
H812 H 0.76675 0.42304 0.67567 0.0
H813 H 0.57319 0.22598 0.5655 0.0
H814 H 0.77545 0.59917 0.9249 0.0
H815 H 0.76268 0.64489 0.90108 0.0
H816 H 0.67077 0.64018 0.92816 0.0
H817 H 0.68328 0.59435 0.95131 0.0
H818 H 0.71935 0.63722 0.86454 0.0
H819 H 0.63947 0.70858 0.92815 0.0
H820 H 0.63967 0.72858 0.97062 0.0
H821 H 0.73699 0.72571 0.97179 0.0
H822 H 0.73746 0.7061 0.92917 0.0
H823 H 0.57406 0.67295 0.82536 0.0
H824 H 0.62201 0.65817 0.84442 0.0
H825 H 0.65422 0.75034 0.83874 0.0
H826 H 0.6062 0.76524 0.81917 0.0
H827 H 0.65612 0.72621 0.88658 0.0
H828 H 0.69073 0.70027 0.807 0.0
H829 H 0.68928 0.67817 0.76521 0.0
H830 H 0.68204 0.58878 0.79616 0.0
H831 H 0.68264 0.6103 0.83813 0.0
C832 C 0.75293 0.60881 0.92657 0.0
C833 C 0.73023 0.59348 0.93977 0.0
C834 C 0.74566 0.63476 0.91291 0.0
C835 C 0.71584 0.64592 0.91294 0.0
C836 C 0.69402 0.63221 0.92816 0.0
C837 C 0.7011 0.60599 0.9413 0.0
C838 C 0.7054 0.66731 0.89371 0.0
C839 C 0.70603 0.65711 0.86917 0.0
C840 C 0.68865 0.69356 0.89982 0.0
C841 C 0.68849 0.70585 0.92538 0.0
C842 C 0.66095 0.71247 0.93734 0.0
C843 C 0.66094 0.72366 0.96149 0.0
C844 C 0.68832 0.7284 0.9739 0.0
C845 C 0.71579 0.72198 0.96217 0.0
C846 C 0.71594 0.71078 0.93802 0.0
C847 C 0.59156 0.68994 0.82774 0.0
C848 C 0.58645 0.72023 0.82095 0.0
C849 C 0.61902 0.68145 0.83844 0.0
C850 C 0.6417 0.70315 0.84277 0.0
C851 C 0.63705 0.73327 0.83532 0.0
C852 C 0.60968 0.7417 0.82419 0.0
C853 C 0.66823 0.69462 0.85791 0.0
C854 C 0.67045 0.70714 0.88166 0.0
C855 C 0.68732 0.67022 0.85113 0.0
C856 C 0.6867 0.65702 0.82583 0.0
C857 C 0.68855 0.67592 0.80494 0.0
C858 C 0.68789 0.66348 0.78119 0.0
C859 C 0.68556 0.63211 0.77804 0.0
C860 C 0.68385 0.61309 0.79863 0.0
C861 C 0.68437 0.62542 0.82242 0.0
H862 H 0.68508 0.62254 0.75966 0.0
H863 H 0.68826 0.73705 0.9926 0.0
H864 H 0.32624 0.44371 0.06531 0.0
H865 H 0.36438 0.41649 0.08979 0.0
H866 H 0.29333 0.3752 0.13291 0.0
H867 H 0.25529 0.40209 0.10871 0.0
H868 H 0.3354 0.40254 0.16185 0.0
H869 H 0.33515 0.33347 0.09294 0.0
H870 H 0.33981 0.31926 0.04907 0.0
H871 H 0.43131 0.35259 0.04798 0.0
H872 H 0.42705 0.36738 0.09178 0.0
H873 H 0.41944 0.3014 0.23591 0.0
H874 H 0.38407 0.32297 0.20619 0.0
H875 H 0.45892 0.35404 0.16166 0.0
H876 H 0.49455 0.33119 0.1907 0.0
H877 H 0.41648 0.33344 0.13256 0.0
H878 H 0.41793 0.40185 0.20101 0.0
H879 H 0.4135 0.41879 0.24425 0.0
H880 H 0.32046 0.39015 0.24569 0.0
H881 H 0.32447 0.37249 0.2027 0.0
C882 C 0.31871 0.42829 0.07962 0.0
C883 C 0.28763 0.42524 0.08505 0.0
C884 C 0.34057 0.41277 0.09365 0.0
C885 C 0.33175 0.39388 0.11331 0.0
C886 C 0.30073 0.38977 0.11796 0.0
C887 C 0.27896 0.40512 0.10397 0.0
C888 C 0.35457 0.38004 0.13025 0.0
C889 C 0.35288 0.38707 0.1555 0.0
C890 C 0.37806 0.36076 0.12187 0.0
C891 C 0.38067 0.35183 0.09556 0.0
C892 C 0.35618 0.33802 0.08329 0.0
C893 C 0.35876 0.3298 0.05845 0.0
C894 C 0.38581 0.3351 0.04573 0.0
C895 C 0.41036 0.34854 0.05785 0.0
C896 C 0.40788 0.35682 0.08268 0.0
C897 C 0.42857 0.31237 0.21969 0.0
C898 C 0.46013 0.31454 0.21597 0.0
C899 C 0.40818 0.32511 0.20276 0.0
C900 C 0.41872 0.34073 0.18182 0.0
C901 C 0.45013 0.34232 0.17772 0.0
C902 C 0.47056 0.32941 0.19454 0.0
C903 C 0.39702 0.35552 0.16434 0.0
C904 C 0.39901 0.34886 0.13898 0.0
C905 C 0.37388 0.37542 0.17258 0.0
C906 C 0.37162 0.3855 0.19868 0.0
C907 C 0.39662 0.39883 0.21064 0.0
C908 C 0.39417 0.40862 0.23512 0.0
C909 C 0.36674 0.40546 0.24777 0.0
C910 C 0.34172 0.39251 0.23596 0.0
C911 C 0.34408 0.38259 0.21153 0.0
H912 H 0.36485 0.41312 0.2667 0.0
H913 H 0.38777 0.32872 0.0265 0.0
H914 H 0.58951 0.2562 0.36631 0.0
H915 H 0.61489 0.29552 0.39034 0.0
H916 H 0.60636 0.35783 0.32936 0.0
H917 H 0.58014 0.31858 0.30517 0.0
H918 H 0.66496 0.35877 0.35468 0.0
H919 H 0.55928 0.36437 0.37057 0.0
H920 H 0.50805 0.34733 0.38216 0.0
H921 H 0.53976 0.32518 0.45493 0.0
H922 H 0.59151 0.34075 0.44345 0.0
H923 H 0.69819 0.48867 0.4308 0.0
H924 H 0.67474 0.45396 0.401 0.0
H925 H 0.66549 0.3863 0.45804 0.0
H926 H 0.68815 0.42095 0.4879 0.0
H927 H 0.61399 0.39198 0.43171 0.0
H928 H 0.72065 0.381 0.41388 0.0
H929 H 0.77166 0.39926 0.40259 0.0
H930 H 0.73689 0.43395 0.33409 0.0
H931 H 0.68556 0.41624 0.34513 0.0
C932 C 0.5935 0.27804 0.35772 0.0
C933 C 0.58286 0.28419 0.33372 0.0
C934 C 0.60786 0.30058 0.37161 0.0
C935 C 0.61229 0.32966 0.36172 0.0
C936 C 0.60312 0.33552 0.33733 0.0
C937 C 0.58818 0.31308 0.32354 0.0
C938 C 0.62522 0.35412 0.37742 0.0
C939 C 0.65363 0.36638 0.37134 0.0
C940 C 0.61053 0.36378 0.3993 0.0
C941 C 0.57953 0.35329 0.40598 0.0
C942 C 0.55555 0.35525 0.38888 0.0
C943 C 0.52635 0.34591 0.39545 0.0
C944 C 0.52066 0.3351 0.41924 0.0
C945 C 0.54421 0.33343 0.43646 0.0
C946 C 0.57353 0.34234 0.42988 0.0
C947 C 0.69107 0.46645 0.437 0.0
C948 C 0.69526 0.45761 0.46176 0.0
C949 C 0.67787 0.44653 0.4199 0.0
C950 C 0.66856 0.41737 0.4272 0.0
C951 C 0.67256 0.40861 0.45191 0.0
C952 C 0.68582 0.4284 0.46895 0.0
C953 C 0.65411 0.39603 0.40939 0.0
C954 C 0.62529 0.38442 0.41502 0.0
C955 C 0.66838 0.38702 0.38713 0.0
C956 C 0.69922 0.39761 0.38046 0.0
C957 C 0.72384 0.39275 0.39651 0.0
C958 C 0.75281 0.40296 0.39013 0.0
C959 C 0.75749 0.41784 0.36767 0.0
C960 C 0.73322 0.42247 0.3515 0.0
C961 C 0.70418 0.41234 0.3578 0.0
H962 H 0.77995 0.42571 0.36277 0.0
H963 H 0.498 0.32805 0.42434 0.0
H964 H 0.59234 0.70293 0.73677 0.0
H965 H 0.6273 0.67897 0.70826 0.0
H966 H 0.55211 0.64306 0.66657 0.0
H967 H 0.51673 0.66554 0.69577 0.0
H968 H 0.59419 0.60143 0.67068 0.0
H969 H 0.59413 0.70645 0.64694 0.0
H970 H 0.59905 0.76162 0.65337 0.0
H971 H 0.69115 0.7497 0.67733 0.0
H972 H 0.68664 0.69437 0.67134 0.0
H973 H 0.67859 0.55979 0.56434 0.0
H974 H 0.64256 0.585 0.5919 0.0
H975 H 0.71682 0.61967 0.63543 0.0
H976 H 0.75287 0.59521 0.60779 0.0
H977 H 0.67504 0.66186 0.63024 0.0
H978 H 0.67405 0.55618 0.65443 0.0
H979 H 0.66804 0.5009 0.64802 0.0
H980 H 0.57713 0.51473 0.62216 0.0
H981 H 0.58251 0.56994 0.62834 0.0
C982 C 0.58291 0.68977 0.72179 0.0
C983 C 0.55128 0.68649 0.71882 0.0
C984 C 0.60316 0.67628 0.70522 0.0
C985 C 0.59244 0.65961 0.68494 0.0
C986 C 0.56101 0.65594 0.68199 0.0
C987 C 0.5407 0.66915 0.6987 0.0
C988 C 0.61395 0.64588 0.66687 0.0
C989 C 0.61158 0.61478 0.66158 0.0
C990 C 0.63716 0.66302 0.65534 0.0
C991 C 0.63996 0.69626 0.65889 0.0
C992 C 0.61536 0.71558 0.65374 0.0
C993 C 0.61809 0.74688 0.65728 0.0
C994 C 0.64537 0.75915 0.66581 0.0
C995 C 0.67002 0.74015 0.67076 0.0
C996 C 0.6674 0.70883 0.66727 0.0
C997 C 0.68728 0.57318 0.57954 0.0
C998 C 0.71869 0.57545 0.58377 0.0
C999 C 0.66662 0.58731 0.59548 0.0
C1000 C 0.67691 0.60374 0.6161 0.0
C1001 C 0.70825 0.60701 0.61977 0.0
C1002 C 0.72889 0.59304 0.60382 0.0
C1003 C 0.65516 0.61746 0.63395 0.0
C1004 C 0.65759 0.64854 0.63929 0.0
C1005 C 0.63193 0.60033 0.64544 0.0
C1006 C 0.6288 0.56717 0.64161 0.0
C1007 C 0.65288 0.54741 0.6472 0.0
C1008 C 0.64958 0.51613 0.64366 0.0
C1009 C 0.62234 0.5044 0.63458 0.0
C1010 C 0.59825 0.52387 0.62914 0.0
C1011 C 0.60137 0.55512 0.63271 0.0
H1012 H 0.61988 0.4802 0.63184 0.0
H1013 H 0.64744 0.78339 0.66854 0.0
H1014 H 0.27685 0.57942 0.9699 0.0
H1015 H 0.30024 0.61417 0.94022 0.0
H1016 H 0.37008 0.54818 0.92543 0.0
H1017 H 0.34699 0.51347 0.9553 0.0
H1018 H 0.39337 0.60562 0.93272 0.0
H1019 H 0.31443 0.55939 0.88418 0.0
H1020 H 0.26196 0.54383 0.87479 0.0
H1021 H 0.23342 0.63696 0.87624 0.0
H1022 H 0.28567 0.65305 0.88598 0.0
H1023 H 0.45669 0.67263 0.82567 0.0
H1024 H 0.42853 0.63613 0.85091 0.0
H1025 H 0.36464 0.70592 0.87087 0.0
H1026 H 0.39304 0.74278 0.84608 0.0
H1027 H 0.33772 0.64687 0.86041 0.0
H1028 H 0.41306 0.69367 0.91094 0.0
H1029 H 0.46412 0.7117 0.92204 0.0
H1030 H 0.49802 0.62044 0.91855 0.0
H1031 H 0.44704 0.60189 0.90718 0.0
C1032 C 0.29723 0.57231 0.96039 0.0
C1033 C 0.31 0.54358 0.965 0.0
C1034 C 0.31046 0.59213 0.94328 0.0
C1035 C 0.33683 0.58373 0.93042 0.0
C1036 C 0.3497 0.55514 0.93505 0.0
C1037 C 0.33634 0.53521 0.95201 0.0
C1038 C 0.35128 0.60495 0.9125 0.0
C1039 C 0.38133 0.61421 0.9167 0.0
C1040 C 0.33532 0.61701 0.89199 0.0
C1041 C 0.30391 0.60739 0.88605 0.0
C1042 C 0.29692 0.57653 0.8827 0.0
C1043 C 0.26723 0.56762 0.87727 0.0
C1044 C 0.24436 0.58938 0.87498 0.0
C1045 C 0.25115 0.62012 0.87805 0.0
C1046 C 0.28081 0.62915 0.8835 0.0
C1047 C 0.43625 0.68009 0.83495 0.0
C1048 C 0.4271 0.71064 0.83384 0.0
C1049 C 0.4203 0.65923 0.84951 0.0
C1050 C 0.39463 0.66837 0.86292 0.0
C1051 C 0.38438 0.69839 0.86068 0.0
C1052 C 0.40064 0.71941 0.84649 0.0
C1053 C 0.37981 0.64715 0.88054 0.0
C1054 C 0.34975 0.63804 0.87635 0.0
C1055 C 0.39559 0.63548 0.90124 0.0
C1056 C 0.42633 0.64645 0.90789 0.0
C1057 C 0.43147 0.67748 0.91227 0.0
C1058 C 0.46039 0.68779 0.91868 0.0
C1059 C 0.48438 0.66725 0.92089 0.0
C1060 C 0.47943 0.63634 0.91677 0.0
C1061 C 0.45051 0.6259 0.91037 0.0
H1062 H 0.50676 0.67526 0.92587 0.0
H1063 H 0.22138 0.58244 0.87078 0.0
H1064 H 0.32188 0.56612 0.4444 0.0
H1065 H 0.35919 0.59273 0.41876 0.0
H1066 H 0.28824 0.61922 0.36835 0.0
H1067 H 0.25091 0.59299 0.39379 0.0
H1068 H 0.33652 0.59074 0.34532 0.0
H1069 H 0.32072 0.67133 0.40412 0.0
H1070 H 0.31884 0.69365 0.44583 0.0
H1071 H 0.4129 0.67222 0.45675 0.0
H1072 H 0.41523 0.64937 0.41521 0.0
H1073 H 0.4162 0.68917 0.26522 0.0
H1074 H 0.38072 0.66666 0.29432 0.0
H1075 H 0.45314 0.65456 0.34699 0.0
H1076 H 0.48864 0.67843 0.31836 0.0
H1077 H 0.40554 0.67417 0.37008 0.0
H1078 H 0.42336 0.59692 0.31084 0.0
H1079 H 0.42594 0.57072 0.27074 0.0
H1080 H 0.32961 0.57991 0.26205 0.0
H1081 H 0.32657 0.6076 0.30143 0.0
C1082 C 0.31412 0.57816 0.42814 0.0
C1083 C 0.28335 0.57739 0.4212 0.0
C1084 C 0.33549 0.59334 0.41349 0.0
C1085 C 0.32651 0.6079 0.39159 0.0
C1086 C 0.29569 0.60809 0.38513 0.0
C1087 C 0.27433 0.59321 0.39984 0.0
C1088 C 0.3493 0.62121 0.37448 0.0
C1089 C 0.35133 0.60935 0.35051 0.0
C1090 C 0.36941 0.64455 0.38172 0.0
C1091 C 0.36806 0.65836 0.40665 0.0
C1092 C 0.34093 0.67113 0.4155 0.0
C1093 C 0.3398 0.68393 0.4391 0.0
C1094 C 0.36571 0.68428 0.45396 0.0
C1095 C 0.39284 0.6719 0.44523 0.0
C1096 C 0.39408 0.65905 0.42165 0.0
C1097 C 0.42468 0.68215 0.28307 0.0
C1098 C 0.4555 0.68583 0.28933 0.0
C1099 C 0.40431 0.66883 0.29964 0.0
C1100 C 0.41422 0.65844 0.32281 0.0
C1101 C 0.44488 0.66226 0.32922 0.0
C1102 C 0.46527 0.67574 0.31269 0.0
C1103 C 0.39252 0.64413 0.34048 0.0
C1104 C 0.39076 0.65565 0.36467 0.0
C1105 C 0.37281 0.62016 0.33347 0.0
C1106 C 0.37483 0.60486 0.30903 0.0
C1107 C 0.40279 0.59401 0.30015 0.0
C1108 C 0.40434 0.57888 0.2775 0.0
C1109 C 0.378 0.57392 0.26372 0.0
C1110 C 0.35006 0.58411 0.27256 0.0
C1111 C 0.34844 0.59967 0.295 0.0
H1112 H 0.37921 0.56201 0.24627 0.0
H1113 H 0.36479 0.6942 0.47222 0.0
H1114 H 0.27249 0.42158 0.53558 0.0
H1115 H 0.29414 0.38607 0.56549 0.0
H1116 H 0.36407 0.45093 0.58316 0.0
H1117 H 0.34293 0.48629 0.55289 0.0
H1118 H 0.38755 0.3948 0.57627 0.0
H1119 H 0.30544 0.43798 0.62277 0.0
H1120 H 0.2524 0.45273 0.6307 0.0
H1121 H 0.22482 0.35949 0.62575 0.0
H1122 H 0.27767 0.34422 0.61745 0.0
H1123 H 0.44549 0.32475 0.68353 0.0
H1124 H 0.4167 0.36182 0.65941 0.0
H1125 H 0.35856 0.29061 0.63232 0.0
H1126 H 0.38768 0.25315 0.65601 0.0
H1127 H 0.3282 0.34954 0.6449 0.0
H1128 H 0.40735 0.30636 0.59591 0.0
H1129 H 0.45954 0.28946 0.58794 0.0
H1130 H 0.49171 0.38084 0.5966 0.0
H1131 H 0.43948 0.39822 0.60509 0.0
C1132 C 0.29252 0.4283 0.54576 0.0
C1133 C 0.30593 0.45688 0.54176 0.0
C1134 C 0.30474 0.40804 0.56305 0.0
C1135 C 0.33062 0.41587 0.57679 0.0
C1136 C 0.34404 0.44437 0.57287 0.0
C1137 C 0.33176 0.4647 0.55567 0.0
C1138 C 0.34424 0.39405 0.5947 0.0
C1139 C 0.37463 0.38534 0.59148 0.0
C1140 C 0.32725 0.38088 0.61419 0.0
C1141 C 0.29548 0.39 0.61925 0.0
C1142 C 0.28803 0.42065 0.62317 0.0
C1143 C 0.25801 0.4291 0.62777 0.0
C1144 C 0.23524 0.40707 0.62867 0.0
C1145 C 0.24247 0.37654 0.62502 0.0
C1146 C 0.27247 0.36796 0.62039 0.0
C1147 C 0.42612 0.317 0.67296 0.0
C1148 C 0.41895 0.28592 0.67167 0.0
C1149 C 0.40976 0.33824 0.65909 0.0
C1150 C 0.3856 0.32894 0.64398 0.0
C1151 C 0.37707 0.29827 0.64392 0.0
C1152 C 0.39378 0.27689 0.65745 0.0
C1153 C 0.37138 0.35072 0.62648 0.0
C1154 C 0.34101 0.35925 0.62974 0.0
C1155 C 0.38823 0.36359 0.60688 0.0
C1156 C 0.41959 0.35351 0.60142 0.0
C1157 C 0.42559 0.32281 0.59632 0.0
C1158 C 0.45519 0.31315 0.59167 0.0
C1159 C 0.47903 0.33403 0.59182 0.0
C1160 C 0.47323 0.36467 0.59654 0.0
C1161 C 0.44361 0.37445 0.60127 0.0
H1162 H 0.50197 0.3265 0.58822 0.0
H1163 H 0.21201 0.41366 0.63224 0.0
H1164 H 0.66836 0.46583 0.92096 0.0
H1165 H 0.63601 0.43745 0.89262 0.0
H1166 H 0.69172 0.35802 0.90275 0.0
H1167 H 0.72434 0.38635 0.93142 0.0
H1168 H 0.67946 0.37204 0.85263 0.0
H1169 H 0.62407 0.35838 0.92805 0.0
H1170 H 0.59914 0.3752 0.96642 0.0
H1171 H 0.53767 0.43041 0.92438 0.0
H1172 H 0.5625 0.41425 0.88577 0.0
H1173 H 0.57826 0.27906 0.7822 0.0
H1174 H 0.61265 0.30058 0.81313 0.0
H1175 H 0.5525 0.37704 0.82204 0.0
H1176 H 0.51788 0.35519 0.79168 0.0
H1177 H 0.56864 0.3601 0.86474 0.0
H1178 H 0.62454 0.38148 0.79095 0.0
H1179 H 0.65066 0.37147 0.75152 0.0
H1180 H 0.71086 0.30933 0.78799 0.0
H1181 H 0.68499 0.31888 0.82762 0.0
C1182 C 0.67362 0.44221 0.91744 0.0
C1183 C 0.69893 0.42834 0.92859 0.0
C1184 C 0.65503 0.426 0.90122 0.0
C1185 C 0.66133 0.39556 0.89564 0.0
C1186 C 0.68641 0.38148 0.90684 0.0
C1187 C 0.7049 0.39764 0.92335 0.0
C1188 C 0.6421 0.379 0.87748 0.0
C1189 C 0.65528 0.36897 0.85537 0.0
C1190 C 0.61046 0.37573 0.88082 0.0
C1191 C 0.5953 0.38526 0.90402 0.0
C1192 C 0.60537 0.37427 0.92699 0.0
C1193 C 0.59123 0.38366 0.94879 0.0
C1194 C 0.56687 0.40391 0.94784 0.0
C1195 C 0.55655 0.41474 0.92509 0.0
C1196 C 0.57062 0.40544 0.90324 0.0
C1197 C 0.57255 0.30058 0.79062 0.0
C1198 C 0.54524 0.31533 0.78454 0.0
C1199 C 0.59229 0.31296 0.80828 0.0
C1200 C 0.58545 0.34068 0.81991 0.0
C1201 C 0.55834 0.35557 0.81355 0.0
C1202 C 0.53847 0.34302 0.79618 0.0
C1203 C 0.60575 0.35376 0.83934 0.0
C1204 C 0.5928 0.36303 0.86184 0.0
C1205 C 0.63751 0.35705 0.83606 0.0
C1206 C 0.65254 0.35055 0.81217 0.0
C1207 C 0.64313 0.36542 0.7905 0.0
C1208 C 0.65796 0.35992 0.76814 0.0
C1209 C 0.68232 0.33968 0.76723 0.0
C1210 C 0.69191 0.32491 0.7887 0.0
C1211 C 0.67721 0.33039 0.81112 0.0
H1212 H 0.69382 0.33551 0.74991 0.0
H1213 H 0.55597 0.41116 0.96474 0.0
H1214 H 0.56778 0.67792 0.1949 0.0
H1215 H 0.5946 0.64122 0.16877 0.0
H1216 H 0.61806 0.71284 0.11802 0.0
H1217 H 0.59171 0.74954 0.14396 0.0
H1218 H 0.59085 0.66352 0.09513 0.0
H1219 H 0.67169 0.68268 0.15281 0.0
H1220 H 0.69502 0.68595 0.1941 0.0
H1221 H 0.67763 0.59122 0.20606 0.0
H1222 H 0.65378 0.58748 0.16494 0.0
H1223 H 0.6899 0.58878 0.01381 0.0
H1224 H 0.66708 0.62276 0.04366 0.0
H1225 H 0.65995 0.54931 0.09595 0.0
H1226 H 0.68453 0.51526 0.06659 0.0
H1227 H 0.67715 0.59769 0.1193 0.0
H1228 H 0.59697 0.57752 0.06204 0.0
H1229 H 0.57146 0.57377 0.02161 0.0
H1230 H 0.58511 0.66909 0.00954 0.0
H1231 H 0.61088 0.67338 0.04982 0.0
C1232 C 0.57917 0.68595 0.17844 0.0
C1233 C 0.57762 0.71674 0.17161 0.0
C1234 C 0.59446 0.66494 0.1635 0.0
C1235 C 0.60828 0.67428 0.14139 0.0
C1236 C 0.60752 0.7051 0.13495 0.0
C1237 C 0.59259 0.72612 0.14996 0.0
C1238 C 0.62206 0.65187 0.12418 0.0
C1239 C 0.60997 0.64937 0.10029 0.0
C1240 C 0.6463 0.63269 0.13119 0.0
C1241 C 0.66064 0.63488 0.15591 0.0
C1242 C 0.67258 0.66261 0.16433 0.0
C1243 C 0.68595 0.66453 0.18769 0.0
C1244 C 0.68772 0.63883 0.20273 0.0
C1245 C 0.67619 0.61112 0.19441 0.0
C1246 C 0.66276 0.60908 0.17107 0.0
C1247 C 0.68398 0.57966 0.03169 0.0
C1248 C 0.68931 0.54894 0.03756 0.0
C1249 C 0.67039 0.59922 0.04873 0.0
C1250 C 0.66114 0.5886 0.07199 0.0
C1251 C 0.66667 0.5581 0.07809 0.0
C1252 C 0.68057 0.53852 0.06112 0.0
C1253 C 0.64619 0.60949 0.08998 0.0
C1254 C 0.65796 0.6117 0.11407 0.0
C1255 C 0.6214 0.62827 0.08322 0.0
C1256 C 0.60615 0.6257 0.05885 0.0
C1257 C 0.59475 0.59763 0.05068 0.0
C1258 C 0.58018 0.59543 0.02781 0.0
C1259 C 0.57674 0.62116 0.01299 0.0
C1260 C 0.58781 0.64917 0.02102 0.0
C1261 C 0.60235 0.65151 0.04389 0.0
H1262 H 0.56539 0.61942 0.99531 0.0
H1263 H 0.6981 0.64036 0.2208 0.0
loop_
_geom_bond_atom_site_label_1
_geom_bond_atom_site_label_2
_geom_bond_distance
_geom_bond_site_symmetry_2
_ccdc_geom_bond_type
Co0 N4 2.148 . S
Co0 N10 2.128 . S
Co0 N20 2.194 . S
Co0 O25 2.351 . S
Co0 O26 2.155 . S
Co0 O27 2.096 . S
C1 N4 1.301 . S
C1 N5 1.328 . S
C1 H6 0.930 . S
C2 C3 1.333 . S
C2 N4 1.317 . S
C2 H7 0.930 . S
C3 C2 1.333 . S
C3 N5 1.350 . S
C3 H29 0.931 1_554 S
N4 Co0 2.148 . S
N4 C1 1.301 . S
N4 C2 1.317 . S
N5 C1 1.328 . S
N5 C3 1.350 . S
H6 C1 0.930 . S
H7 C2 0.930 . S
C8 O9 1.224 . S
C8 O27 1.247 . S
O9 C8 1.224 . S
N10 Co0 2.128 . S
N10 C11 1.355 . S
N10 C13 1.311 . S
C11 N10 1.355 . S
C11 C12 1.363 . S
C11 H23 0.929 . S
C12 C11 1.363 . S
C12 N14 1.375 . S
C12 H30 0.931 . S
C13 N10 1.311 . S
C13 N14 1.347 . S
C13 H24 0.929 . S
N14 C12 1.375 . S
N14 C13 1.347 . S
C15 C18 1.365 . S
C15 N20 1.328 . S
C15 H21 0.929 . S
C16 C17 1.362 . S
C16 C19 1.378 . S
C16 H31 0.929 . S
C17 C16 1.362 . S
C17 C18 1.366 . S
C18 C15 1.365 . S
C18 C17 1.366 . S
C18 H32 0.930 . S
C19 C16 1.378 . S
C19 N20 1.315 . S
C19 H22 0.930 . S
N20 Co0 2.194 . S
N20 C15 1.328 . S
N20 C19 1.315 . S
H21 C15 0.929 . S
H22 C19 0.930 . S
H23 C11 0.929 . S
H24 C13 0.929 . S
O25 Co0 2.351 . S
O25 C28 1.244 . S
O26 Co0 2.155 . S
O26 C28 1.240 . S
O27 Co0 2.096 . S
O27 C8 1.247 . S
C28 O25 1.244 . S
C28 O26 1.240 . S
H29 C3 0.931 1_556 S
H30 C12 0.931 . S
H31 C16 0.929 . S
H32 C18 0.930 . S
Co33 N37 2.148 . S
Co33 N43 2.128 . S
Co33 N53 2.194 . S
Co33 O58 2.351 . S
Co33 O59 2.155 . S
Co33 O60 2.096 . S
C34 N37 1.301 . S
C34 N38 1.328 . S
C34 H39 0.930 . S
C35 C36 1.333 . S
C35 N37 1.317 . S
C35 H40 0.930 . S
C36 C35 1.333 . S
C36 N38 1.350 . S
C36 H62 0.931 . S
N37 Co33 2.148 . S
N37 C34 1.301 . S
N37 C35 1.317 . S
N38 C34 1.328 . S
N38 C36 1.350 . S
H39 C34 0.930 . S
H40 C35 0.930 . S
C41 O42 1.224 . S
C41 O60 1.247 . S
O42 C41 1.224 . S
N43 Co33 2.128 . S
N43 C44 1.355 . S
N43 C46 1.311 . S
C44 N43 1.355 . S
C44 C45 1.363 . S
C44 H56 0.929 . S
C45 C44 1.363 . S
C45 N47 1.375 . S
C45 H63 0.931 . S
C46 N43 1.311 . S
C46 N47 1.347 . S
C46 H57 0.929 . S
N47 C45 1.375 . S
N47 C46 1.347 . S
C48 C51 1.365 . S
C48 N53 1.328 . S
C48 H54 0.929 . S
C49 C50 1.362 . S
C49 C52 1.378 . S
C49 H64 0.929 . S
C50 C49 1.362 . S
C50 C51 1.366 . S
C51 C48 1.365 . S
C51 C50 1.366 . S
C51 H65 0.930 . S
C52 C49 1.378 . S
C52 N53 1.315 . S
C52 H55 0.930 . S
N53 Co33 2.194 . S
N53 C48 1.328 . S
N53 C52 1.315 . S
H54 C48 0.929 . S
H55 C52 0.930 . S
H56 C44 0.929 . S
H57 C46 0.929 . S
O58 Co33 2.351 . S
O58 C61 1.244 . S
O59 Co33 2.155 . S
O59 C61 1.240 . S
O60 Co33 2.096 . S
O60 C41 1.247 . S
C61 O58 1.244 . S
C61 O59 1.240 . S
H62 C36 0.931 . S
H63 C45 0.931 . S
H64 C49 0.929 . S
H65 C51 0.930 . S
Co66 N70 2.148 . S
Co66 N76 2.128 . S
Co66 N86 2.194 . S
Co66 O91 2.351 . S
Co66 O92 2.155 . S
Co66 O93 2.096 . S
C67 N70 1.301 . S
C67 N71 1.328 . S
C67 H72 0.930 . S
C68 C69 1.333 . S
C68 N70 1.317 . S
C68 H73 0.930 . S
C69 C68 1.333 . S
C69 N71 1.350 . S
C69 H95 0.931 . S
N70 Co66 2.148 . S
N70 C67 1.301 . S
N70 C68 1.317 . S
N71 C67 1.328 . S
N71 C69 1.350 . S
H72 C67 0.930 . S
H73 C68 0.930 . S
C74 O75 1.224 . S
C74 O93 1.247 . S
O75 C74 1.224 . S
N76 Co66 2.128 . S
N76 C77 1.355 . S
N76 C79 1.311 . S
C77 N76 1.355 . S
C77 C78 1.363 . S
C77 H89 0.929 . S
C78 C77 1.363 . S
C78 N80 1.375 . S
C78 H96 0.931 . S
C79 N76 1.311 . S
C79 N80 1.347 . S
C79 H90 0.929 . S
N80 C78 1.375 . S
N80 C79 1.347 . S
C81 C84 1.365 . S
C81 N86 1.328 . S
C81 H87 0.929 . S
C82 C83 1.362 . S
C82 C85 1.378 . S
C82 H97 0.929 . S
C83 C82 1.362 . S
C83 C84 1.366 . S
C84 C81 1.365 . S
C84 C83 1.366 . S
C84 H98 0.930 . S
C85 C82 1.378 . S
C85 N86 1.315 . S
C85 H88 0.930 . S
N86 Co66 2.194 . S
N86 C81 1.328 . S
N86 C85 1.315 . S
H87 C81 0.929 . S
H88 C85 0.930 . S
H89 C77 0.929 . S
H90 C79 0.929 . S
O91 Co66 2.351 . S
O91 C94 1.244 . S
O92 Co66 2.155 . S
O92 C94 1.240 . S
O93 Co66 2.096 . S
O93 C74 1.247 . S
C94 O91 1.244 . S
C94 O92 1.240 . S
H95 C69 0.931 . S
H96 C78 0.931 . S
H97 C82 0.929 . S
H98 C84 0.930 . S
Co99 N103 2.148 . S
Co99 N109 2.128 . S
Co99 N119 2.194 . S
Co99 O124 2.351 . S
Co99 O125 2.155 . S
Co99 O126 2.096 . S
C100 N103 1.301 . S
C100 N104 1.328 . S
C100 H105 0.930 . S
C101 C102 1.333 . S
C101 N103 1.317 . S
C101 H106 0.930 . S
C102 C101 1.333 . S
C102 N104 1.350 . S
C102 H128 0.931 . S
N103 Co99 2.148 . S
N103 C100 1.301 . S
N103 C101 1.317 . S
N104 C100 1.328 . S
N104 C102 1.350 . S
H105 C100 0.930 . S
H106 C101 0.930 . S
C107 O108 1.224 . S
C107 O126 1.247 . S
O108 C107 1.224 . S
N109 Co99 2.128 . S
N109 C110 1.355 . S
N109 C112 1.311 . S
C110 N109 1.355 . S
C110 C111 1.363 . S
C110 H122 0.929 . S
C111 C110 1.363 . S
C111 N113 1.375 . S
C111 H129 0.931 . S
C112 N109 1.311 . S
C112 N113 1.347 . S
C112 H123 0.929 . S
N113 C111 1.375 . S
N113 C112 1.347 . S
C114 C117 1.365 . S
C114 N119 1.328 . S
C114 H120 0.929 . S
C115 C116 1.362 . S
C115 C118 1.378 . S
C115 H130 0.929 . S
C116 C115 1.362 . S
C116 C117 1.366 . S
C117 C114 1.365 . S
C117 C116 1.366 . S
C117 H131 0.930 . S
C118 C115 1.378 . S
C118 N119 1.315 . S
C118 H121 0.930 . S
N119 Co99 2.194 . S
N119 C114 1.328 . S
N119 C118 1.315 . S
H120 C114 0.929 . S
H121 C118 0.930 . S
H122 C110 0.929 . S
H123 C112 0.929 . S
O124 Co99 2.351 . S
O124 C127 1.244 . S
O125 Co99 2.155 . S
O125 C127 1.240 . S
O126 Co99 2.096 . S
O126 C107 1.247 . S
C127 O124 1.244 . S
C127 O125 1.240 . S
H128 C102 0.931 . S
H129 C111 0.931 . S
H130 C115 0.929 . S
H131 C117 0.930 . S
Co132 N136 2.148 . S
Co132 N142 2.128 . S
Co132 N152 2.194 . S
Co132 O157 2.351 . S
Co132 O158 2.155 . S
Co132 O159 2.096 . S
C133 N136 1.301 . S
C133 N137 1.328 . S
C133 H138 0.930 . S
C134 C135 1.333 . S
C134 N136 1.317 . S
C134 H139 0.930 . S
C135 C134 1.333 . S
C135 N137 1.350 . S
C135 H161 0.931 . S
N136 Co132 2.148 . S
N136 C133 1.301 . S
N136 C134 1.317 . S
N137 C133 1.328 . S
N137 C135 1.350 . S
H138 C133 0.930 . S
H139 C134 0.930 . S
C140 O141 1.224 . S
C140 O159 1.247 . S
O141 C140 1.224 . S
N142 Co132 2.128 . S
N142 C143 1.355 . S
N142 C145 1.311 . S
C143 N142 1.355 . S
C143 C144 1.363 . S
C143 H155 0.929 . S
C144 C143 1.363 . S
C144 N146 1.375 . S
C144 H162 0.931 . S
C145 N142 1.311 . S
C145 N146 1.347 . S
C145 H156 0.929 . S
N146 C144 1.375 . S
N146 C145 1.347 . S
C147 C150 1.365 . S
C147 N152 1.328 . S
C147 H153 0.929 . S
C148 C149 1.362 . S
C148 C151 1.378 . S
C148 H163 0.929 . S
C149 C148 1.362 . S
C149 C150 1.366 . S
C150 C147 1.365 . S
C150 C149 1.366 . S
C150 H164 0.930 . S
C151 C148 1.378 . S
C151 N152 1.315 . S
C151 H154 0.930 . S
N152 Co132 2.194 . S
N152 C147 1.328 . S
N152 C151 1.315 . S
H153 C147 0.929 . S
H154 C151 0.930 . S
H155 C143 0.929 . S
H156 C145 0.929 . S
O157 Co132 2.351 . S
O157 C160 1.244 . S
O158 Co132 2.155 . S
O158 C160 1.240 . S
O159 Co132 2.096 . S
O159 C140 1.247 . S
C160 O157 1.244 . S
C160 O158 1.240 . S
H161 C135 0.931 . S
H162 C144 0.931 . S
H163 C148 0.929 . S
H164 C150 0.930 . S
Co165 N169 2.148 . S
Co165 N175 2.128 . S
Co165 N185 2.194 . S
Co165 O190 2.351 . S
Co165 O191 2.155 . S
Co165 O192 2.096 . S
C166 N169 1.301 . S
C166 N170 1.328 . S
C166 H171 0.930 . S
C167 C168 1.333 . S
C167 N169 1.317 . S
C167 H172 0.930 . S
C168 C167 1.333 . S
C168 N170 1.350 . S
C168 H194 0.931 . S
N169 Co165 2.148 . S
N169 C166 1.301 . S
N169 C167 1.317 . S
N170 C166 1.328 . S
N170 C168 1.350 . S
H171 C166 0.930 . S
H172 C167 0.930 . S
C173 O174 1.224 . S
C173 O192 1.247 . S
O174 C173 1.224 . S
N175 Co165 2.128 . S
N175 C176 1.355 . S
N175 C178 1.311 . S
C176 N175 1.355 . S
C176 C177 1.363 . S
C176 H188 0.929 . S
C177 C176 1.363 . S
C177 N179 1.375 . S
C177 H195 0.931 . S
C178 N175 1.311 . S
C178 N179 1.347 . S
C178 H189 0.929 . S
N179 C177 1.375 . S
N179 C178 1.347 . S
C180 C183 1.365 . S
C180 N185 1.328 . S
C180 H186 0.929 . S
C181 C182 1.362 . S
C181 C184 1.378 . S
C181 H196 0.929 . S
C182 C181 1.362 . S
C182 C183 1.366 . S
C183 C180 1.365 . S
C183 C182 1.366 . S
C183 H197 0.930 . S
C184 C181 1.378 . S
C184 N185 1.315 . S
C184 H187 0.930 . S
N185 Co165 2.194 . S
N185 C180 1.328 . S
N185 C184 1.315 . S
H186 C180 0.929 . S
H187 C184 0.930 . S
H188 C176 0.929 . S
H189 C178 0.929 . S
O190 Co165 2.351 . S
O190 C193 1.244 . S
O191 Co165 2.155 . S
O191 C193 1.240 . S
O192 Co165 2.096 . S
O192 C173 1.247 . S
C193 O190 1.244 . S
C193 O191 1.240 . S
H194 C168 0.931 . S
H195 C177 0.931 . S
H196 C181 0.929 . S
H197 C183 0.930 . S
Co198 N202 2.148 . S
Co198 N208 2.128 . S
Co198 N218 2.194 . S
Co198 O223 2.351 . S
Co198 O224 2.155 . S
Co198 O225 2.096 . S
C199 N202 1.301 . S
C199 N203 1.328 . S
C199 H204 0.930 . S
C200 C201 1.333 . S
C200 N202 1.317 . S
C200 H205 0.930 . S
C201 C200 1.333 . S
C201 N203 1.350 . S
C201 H227 0.931 1_556 S
N202 Co198 2.148 . S
N202 C199 1.301 . S
N202 C200 1.317 . S
N203 C199 1.328 . S
N203 C201 1.350 . S
H204 C199 0.930 . S
H205 C200 0.930 . S
C206 O207 1.224 . S
C206 O225 1.247 . S
O207 C206 1.224 . S
N208 Co198 2.128 . S
N208 C209 1.355 . S
N208 C211 1.311 . S
C209 N208 1.355 . S
C209 C210 1.363 . S
C209 H221 0.929 . S
C210 C209 1.363 . S
C210 N212 1.375 . S
C210 H228 0.931 . S
C211 N208 1.311 . S
C211 N212 1.347 . S
C211 H222 0.929 . S
N212 C210 1.375 . S
N212 C211 1.347 . S
C213 C216 1.365 . S
C213 N218 1.328 . S
C213 H219 0.929 . S
C214 C215 1.362 . S
C214 C217 1.378 . S
C214 H229 0.929 . S
C215 C214 1.362 . S
C215 C216 1.366 . S
C216 C213 1.365 . S
C216 C215 1.366 . S
C216 H230 0.930 . S
C217 C214 1.378 . S
C217 N218 1.315 . S
C217 H220 0.930 . S
N218 Co198 2.194 . S
N218 C213 1.328 . S
N218 C217 1.315 . S
H219 C213 0.929 . S
H220 C217 0.930 . S
H221 C209 0.929 . S
H222 C211 0.929 . S
O223 Co198 2.351 . S
O223 C226 1.244 . S
O224 Co198 2.155 . S
O224 C226 1.240 . S
O225 Co198 2.096 . S
O225 C206 1.247 . S
C226 O223 1.244 . S
C226 O224 1.240 . S
H227 C201 0.931 1_554 S
H228 C210 0.931 . S
H229 C214 0.929 . S
H230 C216 0.930 . S
Co231 N235 2.148 . S
Co231 N241 2.128 . S
Co231 N251 2.194 . S
Co231 O256 2.351 . S
Co231 O257 2.155 . S
Co231 O258 2.096 . S
C232 N235 1.301 . S
C232 N236 1.328 . S
C232 H237 0.930 . S
C233 C234 1.333 . S
C233 N235 1.317 . S
C233 H238 0.930 . S
C234 C233 1.333 . S
C234 N236 1.350 . S
C234 H260 0.931 . S
N235 Co231 2.148 . S
N235 C232 1.301 . S
N235 C233 1.317 . S
N236 C232 1.328 . S
N236 C234 1.350 . S
H237 C232 0.930 . S
H238 C233 0.930 . S
C239 O240 1.224 . S
C239 O258 1.247 . S
O240 C239 1.224 . S
N241 Co231 2.128 . S
N241 C242 1.355 . S
N241 C244 1.311 . S
C242 N241 1.355 . S
C242 C243 1.363 . S
C242 H254 0.929 . S
C243 C242 1.363 . S
C243 N245 1.375 . S
C243 H261 0.931 . S
C244 N241 1.311 . S
C244 N245 1.347 . S
C244 H255 0.929 . S
N245 C243 1.375 . S
N245 C244 1.347 . S
C246 C249 1.365 . S
C246 N251 1.328 . S
C246 H252 0.929 . S
C247 C248 1.362 . S
C247 C250 1.378 . S
C247 H262 0.929 . S
C248 C247 1.362 . S
C248 C249 1.366 . S
C249 C246 1.365 . S
C249 C248 1.366 . S
C249 H263 0.930 . S
C250 C247 1.378 . S
C250 N251 1.315 . S
C250 H253 0.930 . S
N251 Co231 2.194 . S
N251 C246 1.328 . S
N251 C250 1.315 . S
H252 C246 0.929 . S
H253 C250 0.930 . S
H254 C242 0.929 . S
H255 C244 0.929 . S
O256 Co231 2.351 . S
O256 C259 1.244 . S
O257 Co231 2.155 . S
O257 C259 1.240 . S
O258 Co231 2.096 . S
O258 C239 1.247 . S
C259 O256 1.244 . S
C259 O257 1.240 . S
H260 C234 0.931 . S
H261 C243 0.931 . S
H262 C247 0.929 . S
H263 C249 0.930 . S
H264 C282 0.951 . S
H265 C284 0.951 . S
H266 C286 0.950 . S
H267 C287 0.950 . S
H268 C289 0.950 . S
H269 C292 0.950 . S
H270 C293 0.950 . S
H271 C295 0.950 . S
H272 C296 0.950 . S
H273 C297 0.951 . S
H274 C299 0.951 . S
H275 C301 0.950 . S
H276 C302 0.950 . S
H277 C304 0.950 . S
H278 C307 0.950 . S
H279 C308 0.950 . S
H280 C310 0.950 . S
H281 C311 0.950 . S
C282 H264 0.951 . S
C282 C283 1.366 . S
C282 C284 1.388 . S
C283 C282 1.366 . S
C283 C287 1.385 . S
C284 H265 0.951 . S
C284 C282 1.388 . S
C284 C285 1.366 . S
C285 C284 1.366 . S
C285 C286 1.414 . S
C285 C288 1.499 . S
C286 H266 0.950 . S
C286 C285 1.414 . S
C286 C287 1.374 . S
C287 H267 0.950 . S
C287 C283 1.385 . S
C287 C286 1.374 . S
C288 C285 1.499 . S
C288 C289 1.373 . S
C288 C290 1.389 . S
C289 H268 0.950 . S
C289 C288 1.373 . S
C289 C305 1.377 . S
C290 C288 1.389 . S
C290 C291 1.524 . S
C290 C304 1.377 . S
C291 C290 1.524 . S
C291 C292 1.397 . S
C291 C296 1.363 . S
C292 H269 0.950 . S
C292 C291 1.397 . S
C292 C293 1.334 . S
C293 H270 0.950 . S
C293 C292 1.334 . S
C293 C294 1.287 . S
C294 C293 1.287 . S
C294 C295 1.524 . S
C294 H313 0.913 . S
C295 H271 0.950 . S
C295 C294 1.524 . S
C295 C296 1.415 . S
C296 H272 0.950 . S
C296 C291 1.363 . S
C296 C295 1.415 . S
C297 H273 0.951 . S
C297 C298 1.366 . S
C297 C299 1.388 . S
C298 C297 1.366 . S
C298 C302 1.385 . S
C299 H274 0.951 . S
C299 C297 1.388 . S
C299 C300 1.366 . S
C300 C299 1.366 . S
C300 C301 1.414 . S
C300 C303 1.499 . S
C301 H275 0.950 . S
C301 C300 1.414 . S
C301 C302 1.374 . S
C302 H276 0.950 . S
C302 C298 1.385 . S
C302 C301 1.374 . S
C303 C300 1.499 . S
C303 C304 1.373 . S
C303 C305 1.389 . S
C304 H277 0.950 . S
C304 C290 1.377 . S
C304 C303 1.373 . S
C305 C289 1.377 . S
C305 C303 1.389 . S
C305 C306 1.524 . S
C306 C305 1.524 . S
C306 C307 1.397 . S
C306 C311 1.363 . S
C307 H278 0.950 . S
C307 C306 1.397 . S
C307 C308 1.334 . S
C308 H279 0.950 . S
C308 C307 1.334 . S
C308 C309 1.287 . S
C309 C308 1.287 . S
C309 C310 1.524 . S
C309 H312 0.999 . S
C310 H280 0.950 . S
C310 C309 1.524 . S
C310 C311 1.415 . S
C311 H281 0.950 . S
C311 C306 1.363 . S
C311 C310 1.415 . S
H312 C309 0.999 . S
H313 C294 0.913 . S
H314 C332 0.951 . S
H315 C334 0.951 . S
H316 C336 0.950 . S
H317 C337 0.950 . S
H318 C339 0.950 . S
H319 C342 0.950 . S
H320 C343 0.950 . S
H321 C345 0.950 . S
H322 C346 0.950 . S
H323 C347 0.951 . S
H324 C349 0.951 . S
H325 C351 0.950 . S
H326 C352 0.950 . S
H327 C354 0.950 . S
H328 C357 0.950 . S
H329 C358 0.950 . S
H330 C360 0.950 . S
H331 C361 0.950 . S
C332 H314 0.951 . S
C332 C333 1.366 . S
C332 C334 1.388 . S
C333 C332 1.366 . S
C333 C337 1.385 . S
C334 H315 0.951 . S
C334 C332 1.388 . S
C334 C335 1.366 . S
C335 C334 1.366 . S
C335 C336 1.414 . S
C335 C338 1.499 . S
C336 H316 0.950 . S
C336 C335 1.414 . S
C336 C337 1.374 . S
C337 H317 0.950 . S
C337 C333 1.385 . S
C337 C336 1.374 . S
C338 C335 1.499 . S
C338 C339 1.373 . S
C338 C340 1.389 . S
C339 H318 0.950 . S
C339 C338 1.373 . S
C339 C355 1.377 . S
C340 C338 1.389 . S
C340 C341 1.524 . S
C340 C354 1.377 . S
C341 C340 1.524 . S
C341 C342 1.397 . S
C341 C346 1.363 . S
C342 H319 0.950 . S
C342 C341 1.397 . S
C342 C343 1.334 . S
C343 H320 0.950 . S
C343 C342 1.334 . S
C343 C344 1.287 . S
C344 C343 1.287 . S
C344 C345 1.524 . S
C344 H363 0.913 . S
C345 H321 0.950 . S
C345 C344 1.524 . S
C345 C346 1.415 . S
C346 H322 0.950 . S
C346 C341 1.363 . S
C346 C345 1.415 . S
C347 H323 0.951 . S
C347 C348 1.366 . S
C347 C349 1.388 . S
C348 C347 1.366 . S
C348 C352 1.385 . S
C349 H324 0.951 . S
C349 C347 1.388 . S
C349 C350 1.366 . S
C350 C349 1.366 . S
C350 C351 1.414 . S
C350 C353 1.499 . S
C351 H325 0.950 . S
C351 C350 1.414 . S
C351 C352 1.374 . S
C352 H326 0.950 . S
C352 C348 1.385 . S
C352 C351 1.374 . S
C353 C350 1.499 . S
C353 C354 1.373 . S
C353 C355 1.389 . S
C354 H327 0.950 . S
C354 C340 1.377 . S
C354 C353 1.373 . S
C355 C339 1.377 . S
C355 C353 1.389 . S
C355 C356 1.524 . S
C356 C355 1.524 . S
C356 C357 1.397 . S
C356 C361 1.363 . S
C357 H328 0.950 . S
C357 C356 1.397 . S
C357 C358 1.334 . S
C358 H329 0.950 . S
C358 C357 1.334 . S
C358 C359 1.287 . S
C359 C358 1.287 . S
C359 C360 1.524 . S
C359 H362 0.999 . S
C360 H330 0.950 . S
C360 C359 1.524 . S
C360 C361 1.415 . S
C361 H331 0.950 . S
C361 C356 1.363 . S
C361 C360 1.415 . S
H362 C359 0.999 . S
H363 C344 0.913 . S
H364 C382 0.951 . S
H365 C384 0.951 . S
H366 C386 0.950 . S
H367 C387 0.950 . S
H368 C389 0.950 . S
H369 C392 0.950 . S
H370 C393 0.950 . S
H371 C395 0.950 . S
H372 C396 0.950 . S
H373 C397 0.951 . S
H374 C399 0.951 . S
H375 C401 0.950 . S
H376 C402 0.950 . S
H377 C404 0.950 . S
H378 C407 0.950 . S
H379 C408 0.950 . S
H380 C410 0.950 . S
H381 C411 0.950 . S
C382 H364 0.951 . S
C382 C383 1.366 . S
C382 C384 1.388 . S
C383 C382 1.366 . S
C383 C387 1.385 . S
C384 H365 0.951 . S
C384 C382 1.388 . S
C384 C385 1.366 . S
C385 C384 1.366 . S
C385 C386 1.414 . S
C385 C388 1.499 . S
C386 H366 0.950 . S
C386 C385 1.414 . S
C386 C387 1.374 . S
C387 H367 0.950 . S
C387 C383 1.385 . S
C387 C386 1.374 . S
C388 C385 1.499 . S
C388 C389 1.373 . S
C388 C390 1.389 . S
C389 H368 0.950 . S
C389 C388 1.373 . S
C389 C405 1.377 . S
C390 C388 1.389 . S
C390 C391 1.524 . S
C390 C404 1.377 . S
C391 C390 1.524 . S
C391 C392 1.397 . S
C391 C396 1.363 . S
C392 H369 0.950 . S
C392 C391 1.397 . S
C392 C393 1.334 . S
C393 H370 0.950 . S
C393 C392 1.334 . S
C393 C394 1.287 . S
C394 C393 1.287 . S
C394 C395 1.524 . S
C394 H413 0.913 . S
C395 H371 0.950 . S
C395 C394 1.524 . S
C395 C396 1.415 . S
C396 H372 0.950 . S
C396 C391 1.363 . S
C396 C395 1.415 . S
C397 H373 0.951 . S
C397 C398 1.366 . S
C397 C399 1.388 . S
C398 C397 1.366 . S
C398 C402 1.385 . S
C399 H374 0.951 . S
C399 C397 1.388 . S
C399 C400 1.366 . S
C400 C399 1.366 . S
C400 C401 1.414 . S
C400 C403 1.499 . S
C401 H375 0.950 . S
C401 C400 1.414 . S
C401 C402 1.374 . S
C402 H376 0.950 . S
C402 C398 1.385 . S
C402 C401 1.374 . S
C403 C400 1.499 . S
C403 C404 1.373 . S
C403 C405 1.389 . S
C404 H377 0.950 . S
C404 C390 1.377 . S
C404 C403 1.373 . S
C405 C389 1.377 . S
C405 C403 1.389 . S
C405 C406 1.524 . S
C406 C405 1.524 . S
C406 C407 1.397 . S
C406 C411 1.363 . S
C407 H378 0.950 . S
C407 C406 1.397 . S
C407 C408 1.334 . S
C408 H379 0.950 . S
C408 C407 1.334 . S
C408 C409 1.287 . S
C409 C408 1.287 . S
C409 C410 1.524 . S
C409 H412 0.999 . S
C410 H380 0.950 . S
C410 C409 1.524 . S
C410 C411 1.415 . S
C411 H381 0.950 . S
C411 C406 1.363 . S
C411 C410 1.415 . S
H412 C409 0.999 . S
H413 C394 0.913 . S
H414 C432 0.951 . S
H415 C434 0.951 . S
H416 C436 0.950 . S
H417 C437 0.950 . S
H418 C439 0.950 . S
H419 C442 0.950 . S
H420 C443 0.950 . S
H421 C445 0.950 . S
H422 C446 0.950 . S
H423 C447 0.951 . S
H424 C449 0.951 . S
H425 C451 0.950 . S
H426 C452 0.950 . S
H427 C454 0.950 . S
H428 C457 0.950 . S
H429 C458 0.950 . S
H430 C460 0.950 . S
H431 C461 0.950 . S
C432 H414 0.951 . S
C432 C433 1.366 . S
C432 C434 1.388 . S
C433 C432 1.366 . S
C433 C437 1.385 . S
C434 H415 0.951 . S
C434 C432 1.388 . S
C434 C435 1.366 . S
C435 C434 1.366 . S
C435 C436 1.414 . S
C435 C438 1.499 . S
C436 H416 0.950 . S
C436 C435 1.414 . S
C436 C437 1.374 . S
C437 H417 0.950 . S
C437 C433 1.385 . S
C437 C436 1.374 . S
C438 C435 1.499 . S
C438 C439 1.373 . S
C438 C440 1.389 . S
C439 H418 0.950 . S
C439 C438 1.373 . S
C439 C455 1.377 1_556 S
C440 C438 1.389 . S
C440 C441 1.524 . S
C440 C454 1.377 1_556 S
C441 C440 1.524 . S
C441 C442 1.397 . S
C441 C446 1.363 . S
C442 H419 0.950 . S
C442 C441 1.397 . S
C442 C443 1.334 . S
C443 H420 0.950 . S
C443 C442 1.334 . S
C443 C444 1.287 . S
C444 C443 1.287 . S
C444 C445 1.524 . S
C444 H463 0.913 . S
C445 H421 0.950 . S
C445 C444 1.524 . S
C445 C446 1.415 . S
C446 H422 0.950 . S
C446 C441 1.363 . S
C446 C445 1.415 . S
C447 H423 0.951 . S
C447 C448 1.366 . S
C447 C449 1.388 . S
C448 C447 1.366 . S
C448 C452 1.385 . S
C449 H424 0.951 . S
C449 C447 1.388 . S
C449 C450 1.366 . S
C450 C449 1.366 . S
C450 C451 1.414 . S
C450 C453 1.499 . S
C451 H425 0.950 . S
C451 C450 1.414 . S
C451 C452 1.374 . S
C452 H426 0.950 . S
C452 C448 1.385 . S
C452 C451 1.374 . S
C453 C450 1.499 . S
C453 C454 1.373 . S
C453 C455 1.389 . S
C454 H427 0.950 . S
C454 C440 1.377 1_554 S
C454 C453 1.373 . S
C455 C439 1.377 1_554 S
C455 C453 1.389 . S
C455 C456 1.524 . S
C456 C455 1.524 . S
C456 C457 1.397 . S
C456 C461 1.363 . S
C457 H428 0.950 . S
C457 C456 1.397 . S
C457 C458 1.334 . S
C458 H429 0.950 . S
C458 C457 1.334 . S
C458 C459 1.287 . S
C459 C458 1.287 . S
C459 C460 1.524 . S
C459 H462 0.999 . S
C460 H430 0.950 . S
C460 C459 1.524 . S
C460 C461 1.415 . S
C461 H431 0.950 . S
C461 C456 1.363 . S
C461 C460 1.415 . S
H462 C459 0.999 . S
H463 C444 0.913 . S
H464 C482 0.951 1_556 S
H465 C484 0.951 . S
H466 C486 0.950 . S
H467 C487 0.950 . S
H468 C489 0.950 . S
H469 C492 0.950 . S
H470 C493 0.950 . S
H471 C495 0.950 . S
H472 C496 0.950 . S
H473 C497 0.951 1_554 S
H474 C499 0.951 . S
H475 C501 0.950 . S
H476 C502 0.950 . S
H477 C504 0.950 . S
H478 C507 0.950 . S
H479 C508 0.950 . S
H480 C510 0.950 . S
H481 C511 0.950 . S
C482 H464 0.951 1_554 S
C482 C483 1.366 . S
C482 C484 1.388 1_554 S
C483 C482 1.366 . S
C483 C487 1.385 . S
C484 H465 0.951 . S
C484 C482 1.388 1_556 S
C484 C485 1.366 1_556 S
C485 C484 1.366 1_554 S
C485 C486 1.414 . S
C485 C488 1.499 . S
C486 H466 0.950 . S
C486 C485 1.414 . S
C486 C487 1.374 . S
C487 H467 0.950 . S
C487 C483 1.385 . S
C487 C486 1.374 . S
C488 C485 1.499 . S
C488 C489 1.373 . S
C488 C490 1.389 1_554 S
C489 H468 0.950 . S
C489 C488 1.373 . S
C489 C505 1.377 1_455 S
C490 C488 1.389 1_556 S
C490 C491 1.524 . S
C490 C504 1.377 1_455 S
C491 C490 1.524 . S
C491 C492 1.397 . S
C491 C496 1.363 . S
C492 H469 0.950 . S
C492 C491 1.397 . S
C492 C493 1.334 . S
C493 H470 0.950 . S
C493 C492 1.334 . S
C493 C494 1.287 . S
C494 C493 1.287 . S
C494 C495 1.524 . S
C494 H513 0.913 . S
C495 H471 0.950 . S
C495 C494 1.524 . S
C495 C496 1.415 . S
C496 H472 0.950 . S
C496 C491 1.363 . S
C496 C495 1.415 . S
C497 H473 0.951 1_556 S
C497 C498 1.366 . S
C497 C499 1.388 1_556 S
C498 C497 1.366 . S
C498 C502 1.385 . S
C499 H474 0.951 . S
C499 C497 1.388 1_554 S
C499 C500 1.366 1_554 S
C500 C499 1.366 1_556 S
C500 C501 1.414 . S
C500 C503 1.499 . S
C501 H475 0.950 . S
C501 C500 1.414 . S
C501 C502 1.374 . S
C502 H476 0.950 . S
C502 C498 1.385 . S
C502 C501 1.374 . S
C503 C500 1.499 . S
C503 C504 1.373 . S
C503 C505 1.389 1_556 S
C504 H477 0.950 . S
C504 C490 1.377 1_655 S
C504 C503 1.373 . S
C505 C489 1.377 1_655 S
C505 C503 1.389 1_554 S
C505 C506 1.524 . S
C506 C505 1.524 . S
C506 C507 1.397 . S
C506 C511 1.363 . S
C507 H478 0.950 . S
C507 C506 1.397 . S
C507 C508 1.334 . S
C508 H479 0.950 . S
C508 C507 1.334 . S
C508 C509 1.287 . S
C509 C508 1.287 . S
C509 C510 1.524 . S
C509 H512 0.999 . S
C510 H480 0.950 . S
C510 C509 1.524 . S
C510 C511 1.415 . S
C511 H481 0.950 . S
C511 C506 1.363 . S
C511 C510 1.415 . S
H512 C509 0.999 . S
H513 C494 0.913 . S
H514 C532 0.951 . S
H515 C534 0.951 . S
H516 C536 0.950 . S
H517 C537 0.950 . S
H518 C539 0.950 . S
H519 C542 0.950 . S
H520 C543 0.950 . S
H521 C545 0.950 . S
H522 C546 0.950 . S
H523 C547 0.951 . S
H524 C549 0.951 . S
H525 C551 0.950 . S
H526 C552 0.950 . S
H527 C554 0.950 . S
H528 C557 0.950 . S
H529 C558 0.950 . S
H530 C560 0.950 . S
H531 C561 0.950 . S
C532 H514 0.951 . S
C532 C533 1.366 . S
C532 C534 1.388 . S
C533 C532 1.366 . S
C533 C537 1.385 . S
C534 H515 0.951 . S
C534 C532 1.388 . S
C534 C535 1.366 . S
C535 C534 1.366 . S
C535 C536 1.414 . S
C535 C538 1.499 . S
C536 H516 0.950 . S
C536 C535 1.414 . S
C536 C537 1.374 . S
C537 H517 0.950 . S
C537 C533 1.385 . S
C537 C536 1.374 . S
C538 C535 1.499 . S
C538 C539 1.373 . S
C538 C540 1.389 . S
C539 H518 0.950 . S
C539 C538 1.373 . S
C539 C555 1.377 1_545 S
C540 C538 1.389 . S
C540 C541 1.524 . S
C540 C554 1.377 1_545 S
C541 C540 1.524 . S
C541 C542 1.397 . S
C541 C546 1.363 . S
C542 H519 0.950 . S
C542 C541 1.397 . S
C542 C543 1.334 . S
C543 H520 0.950 . S
C543 C542 1.334 . S
C543 C544 1.287 . S
C544 C543 1.287 . S
C544 C545 1.524 . S
C544 H563 0.913 . S
C545 H521 0.950 . S
C545 C544 1.524 . S
C545 C546 1.415 . S
C546 H522 0.950 . S
C546 C541 1.363 . S
C546 C545 1.415 . S
C547 H523 0.951 . S
C547 C548 1.366 . S
C547 C549 1.388 . S
C548 C547 1.366 . S
C548 C552 1.385 . S
C549 H524 0.951 . S
C549 C547 1.388 . S
C549 C550 1.366 . S
C550 C549 1.366 . S
C550 C551 1.414 . S
C550 C553 1.499 . S
C551 H525 0.950 . S
C551 C550 1.414 . S
C551 C552 1.374 . S
C552 H526 0.950 . S
C552 C548 1.385 . S
C552 C551 1.374 . S
C553 C550 1.499 . S
C553 C554 1.373 . S
C553 C555 1.389 . S
C554 H527 0.950 . S
C554 C540 1.377 1_565 S
C554 C553 1.373 . S
C555 C539 1.377 1_565 S
C555 C553 1.389 . S
C555 C556 1.524 . S
C556 C555 1.524 . S
C556 C557 1.397 . S
C556 C561 1.363 . S
C557 H528 0.950 . S
C557 C556 1.397 . S
C557 C558 1.334 . S
C558 H529 0.950 . S
C558 C557 1.334 . S
C558 C559 1.287 . S
C559 C558 1.287 . S
C559 C560 1.524 . S
C559 H562 0.999 . S
C560 H530 0.950 . S
C560 C559 1.524 . S
C560 C561 1.415 . S
C561 H531 0.950 . S
C561 C556 1.363 . S
C561 C560 1.415 . S
H562 C559 0.999 . S
H563 C544 0.913 . S
H564 C582 0.951 . S
H565 C584 0.951 . S
H566 C586 0.950 . S
H567 C587 0.950 . S
H568 C589 0.950 . S
H569 C592 0.950 . S
H570 C593 0.950 . S
H571 C595 0.950 1_655 S
H572 C596 0.967 . S
H573 C597 0.951 . S
H574 C599 0.951 . S
H575 C601 0.950 . S
H576 C602 0.950 . S
H577 C604 0.950 . S
H578 C607 0.950 . S
H579 C608 0.950 . S
H580 C610 0.950 1_455 S
H581 C611 0.967 . S
C582 H564 0.951 . S
C582 C583 1.366 . S
C582 C584 1.388 . S
C583 C582 1.366 . S
C583 C587 1.385 . S
C584 H565 0.951 . S
C584 C582 1.388 . S
C584 C585 1.366 . S
C585 C584 1.366 . S
C585 C586 1.414 . S
C585 C588 1.499 . S
C586 H566 0.950 . S
C586 C585 1.414 . S
C586 C587 1.374 . S
C587 H567 0.950 . S
C587 C583 1.385 . S
C587 C586 1.374 . S
C588 C585 1.499 . S
C588 C589 1.373 . S
C588 C590 1.389 . S
C589 H568 0.950 . S
C589 C588 1.373 . S
C589 C605 1.377 1_455 S
C590 C588 1.389 . S
C590 C591 1.524 . S
C590 C604 1.377 1_455 S
C591 C590 1.524 . S
C591 C592 1.397 . S
C591 C596 1.350 1_455 S
C592 H569 0.950 . S
C592 C591 1.397 . S
C592 C593 1.334 . S
C593 H570 0.950 . S
C593 C592 1.334 . S
C593 C594 1.287 . S
C594 C593 1.287 . S
C594 C595 1.524 . S
C594 H613 0.913 . S
C595 H571 0.950 1_455 S
C595 C594 1.524 . S
C595 C596 1.411 1_455 S
C596 H572 0.967 . S
C596 C591 1.350 1_655 S
C596 C595 1.411 1_655 S
C597 H573 0.951 . S
C597 C598 1.366 . S
C597 C599 1.388 . S
C598 C597 1.366 . S
C598 C602 1.385 . S
C599 H574 0.951 . S
C599 C597 1.388 . S
C599 C600 1.366 . S
C600 C599 1.366 . S
C600 C601 1.414 . S
C600 C603 1.499 . S
C601 H575 0.950 . S
C601 C600 1.414 . S
C601 C602 1.374 . S
C602 H576 0.950 . S
C602 C598 1.385 . S
C602 C601 1.374 . S
C603 C600 1.499 . S
C603 C604 1.373 . S
C603 C605 1.389 . S
C604 H577 0.950 . S
C604 C590 1.377 1_655 S
C604 C603 1.373 . S
C605 C589 1.377 1_655 S
C605 C603 1.389 . S
C605 C606 1.524 . S
C606 C605 1.524 . S
C606 C607 1.397 . S
C606 C611 1.350 1_655 S
C607 H578 0.950 . S
C607 C606 1.397 . S
C607 C608 1.334 . S
C608 H579 0.950 . S
C608 C607 1.334 . S
C608 C609 1.287 . S
C609 C608 1.287 . S
C609 C610 1.524 . S
C609 H612 0.999 . S
C610 H580 0.950 1_655 S
C610 C609 1.524 . S
C610 C611 1.411 1_655 S
C611 H581 0.967 . S
C611 C606 1.350 1_455 S
C611 C610 1.411 1_455 S
H612 C609 0.999 . S
H613 C594 0.913 . S
H614 C632 0.951 . S
H615 C634 0.951 . S
H616 C636 0.950 . S
H617 C637 0.950 . S
H618 C639 0.950 . S
H619 C642 0.950 . S
H620 C643 0.950 . S
H621 C645 0.950 1_565 S
H622 C646 0.973 . S
H623 C647 0.951 . S
H624 C649 0.951 . S
H625 C651 0.950 . S
H626 C652 0.950 . S
H627 C654 0.950 . S
H628 C657 0.950 . S
H629 C658 0.950 . S
H630 C660 0.950 1_545 S
H631 C661 0.973 . S
C632 H614 0.951 . S
C632 C633 1.366 . S
C632 C634 1.388 . S
C633 C632 1.366 . S
C633 C637 1.385 . S
C634 H615 0.951 . S
C634 C632 1.388 . S
C634 C635 1.366 . S
C635 C634 1.366 . S
C635 C636 1.414 . S
C635 C638 1.499 . S
C636 H616 0.950 . S
C636 C635 1.414 . S
C636 C637 1.374 . S
C637 H617 0.950 . S
C637 C633 1.385 . S
C637 C636 1.374 . S
C638 C635 1.499 . S
C638 C639 1.373 . S
C638 C640 1.389 . S
C639 H618 0.950 . S
C639 C638 1.373 . S
C639 C655 1.377 1_545 S
C640 C638 1.389 . S
C640 C641 1.524 . S
C640 C654 1.377 1_545 S
C641 C640 1.524 . S
C641 C642 1.397 . S
C641 C646 1.346 1_545 S
C642 H619 0.950 . S
C642 C641 1.397 . S
C642 C643 1.334 . S
C643 H620 0.950 . S
C643 C642 1.334 . S
C643 C644 1.287 . S
C644 C643 1.287 . S
C644 C645 1.524 . S
C644 H663 0.913 . S
C645 H621 0.950 1_545 S
C645 C644 1.524 . S
C645 C646 1.410 1_545 S
C646 H622 0.973 . S
C646 C641 1.346 1_565 S
C646 C645 1.410 1_565 S
C647 H623 0.951 . S
C647 C648 1.366 . S
C647 C649 1.388 . S
C648 C647 1.366 . S
C648 C652 1.385 . S
C649 H624 0.951 . S
C649 C647 1.388 . S
C649 C650 1.366 . S
C650 C649 1.366 . S
C650 C651 1.414 . S
C650 C653 1.499 . S
C651 H625 0.950 . S
C651 C650 1.414 . S
C651 C652 1.374 . S
C652 H626 0.950 . S
C652 C648 1.385 . S
C652 C651 1.374 . S
C653 C650 1.499 . S
C653 C654 1.373 . S
C653 C655 1.389 . S
C654 H627 0.950 . S
C654 C640 1.377 1_565 S
C654 C653 1.373 . S
C655 C639 1.377 1_565 S
C655 C653 1.389 . S
C655 C656 1.524 . S
C656 C655 1.524 . S
C656 C657 1.397 . S
C656 C661 1.346 1_565 S
C657 H628 0.950 . S
C657 C656 1.397 . S
C657 C658 1.334 . S
C658 H629 0.950 . S
C658 C657 1.334 . S
C658 C659 1.287 . S
C659 C658 1.287 . S
C659 C660 1.524 . S
C659 H662 0.999 . S
C660 H630 0.950 1_565 S
C660 C659 1.524 . S
C660 C661 1.410 1_565 S
C661 H631 0.973 . S
C661 C656 1.346 1_545 S
C661 C660 1.410 1_545 S
H662 C659 0.999 . S
H663 C644 0.913 . S
H664 C682 0.951 . S
H665 C684 0.951 . S
H666 C686 0.950 . S
H667 C687 0.950 . S
H668 C689 0.950 . S
H669 C692 0.950 . S
H670 C693 0.950 . S
H671 C695 0.950 . S
H672 C696 0.950 . S
H673 C697 0.951 . S
H674 C699 0.951 . S
H675 C701 0.950 . S
H676 C702 0.950 . S
H677 C704 0.950 . S
H678 C707 0.950 . S
H679 C708 0.950 . S
H680 C710 0.950 . S
H681 C711 0.950 . S
C682 H664 0.951 . S
C682 C683 1.366 . S
C682 C684 1.388 . S
C683 C682 1.366 . S
C683 C687 1.385 . S
C684 H665 0.951 . S
C684 C682 1.388 . S
C684 C685 1.366 . S
C685 C684 1.366 . S
C685 C686 1.414 . S
C685 C688 1.499 . S
C686 H666 0.950 . S
C686 C685 1.414 . S
C686 C687 1.374 . S
C687 H667 0.950 . S
C687 C683 1.385 . S
C687 C686 1.374 . S
C688 C685 1.499 . S
C688 C689 1.373 . S
C688 C690 1.389 . S
C689 H668 0.950 . S
C689 C688 1.373 . S
C689 C705 1.377 . S
C690 C688 1.389 . S
C690 C691 1.524 . S
C690 C704 1.377 . S
C691 C690 1.524 . S
C691 C692 1.397 . S
C691 C696 1.363 . S
C692 H669 0.950 . S
C692 C691 1.397 . S
C692 C693 1.334 . S
C693 H670 0.950 . S
C693 C692 1.334 . S
C693 C694 1.287 . S
C694 C693 1.287 . S
C694 C695 1.524 . S
C694 H713 0.913 . S
C695 H671 0.950 . S
C695 C694 1.524 . S
C695 C696 1.415 . S
C696 H672 0.950 . S
C696 C691 1.363 . S
C696 C695 1.415 . S
C697 H673 0.951 . S
C697 C698 1.366 . S
C697 C699 1.388 . S
C698 C697 1.366 . S
C698 C702 1.385 . S
C699 H674 0.951 . S
C699 C697 1.388 . S
C699 C700 1.366 . S
C700 C699 1.366 . S
C700 C701 1.414 . S
C700 C703 1.499 . S
C701 H675 0.950 . S
C701 C700 1.414 . S
C701 C702 1.374 . S
C702 H676 0.950 . S
C702 C698 1.385 . S
C702 C701 1.374 . S
C703 C700 1.499 . S
C703 C704 1.373 . S
C703 C705 1.389 . S
C704 H677 0.950 . S
C704 C690 1.377 . S
C704 C703 1.373 . S
C705 C689 1.377 . S
C705 C703 1.389 . S
C705 C706 1.524 . S
C706 C705 1.524 . S
C706 C707 1.397 . S
C706 C711 1.363 . S
C707 H678 0.950 . S
C707 C706 1.397 . S
C707 C708 1.334 . S
C708 H679 0.950 . S
C708 C707 1.334 . S
C708 C709 1.287 . S
C709 C708 1.287 . S
C709 C710 1.524 . S
C709 H712 0.999 . S
C710 H680 0.950 . S
C710 C709 1.524 . S
C710 C711 1.415 . S
C711 H681 0.950 . S
C711 C706 1.363 . S
C711 C710 1.415 . S
H712 C709 0.999 . S
H713 C694 0.913 . S
H714 C732 0.951 . S
H715 C734 0.951 . S
H716 C736 0.950 . S
H717 C737 0.950 . S
H718 C739 0.950 . S
H719 C742 0.950 . S
H720 C743 0.950 . S
H721 C745 0.950 . S
H722 C746 0.950 . S
H723 C747 0.951 . S
H724 C749 0.951 . S
H725 C751 0.950 . S
H726 C752 0.950 . S
H727 C754 0.950 . S
H728 C757 0.950 . S
H729 C758 0.950 . S
H730 C760 0.950 . S
H731 C761 0.950 . S
C732 H714 0.951 . S
C732 C733 1.366 . S
C732 C734 1.388 . S
C733 C732 1.366 . S
C733 C737 1.385 . S
C734 H715 0.951 . S
C734 C732 1.388 . S
C734 C735 1.366 . S
C735 C734 1.366 . S
C735 C736 1.414 . S
C735 C738 1.499 . S
C736 H716 0.950 . S
C736 C735 1.414 . S
C736 C737 1.374 . S
C737 H717 0.950 . S
C737 C733 1.385 . S
C737 C736 1.374 . S
C738 C735 1.499 . S
C738 C739 1.373 . S
C738 C740 1.389 . S
C739 H718 0.950 . S
C739 C738 1.373 . S
C739 C755 1.377 . S
C740 C738 1.389 . S
C740 C741 1.524 . S
C740 C754 1.377 . S
C741 C740 1.524 . S
C741 C742 1.397 . S
C741 C746 1.363 . S
C742 H719 0.950 . S
C742 C741 1.397 . S
C742 C743 1.334 . S
C743 H720 0.950 . S
C743 C742 1.334 . S
C743 C744 1.287 . S
C744 C743 1.287 . S
C744 C745 1.524 . S
C744 H763 0.913 . S
C745 H721 0.950 . S
C745 C744 1.524 . S
C745 C746 1.415 . S
C746 H722 0.950 . S
C746 C741 1.363 . S
C746 C745 1.415 . S
C747 H723 0.951 . S
C747 C748 1.366 . S
C747 C749 1.388 . S
C748 C747 1.366 . S
C748 C752 1.385 . S
C749 H724 0.951 . S
C749 C747 1.388 . S
C749 C750 1.366 . S
C750 C749 1.366 . S
C750 C751 1.414 . S
C750 C753 1.499 . S
C751 H725 0.950 . S
C751 C750 1.414 . S
C751 C752 1.374 . S
C752 H726 0.950 . S
C752 C748 1.385 . S
C752 C751 1.374 . S
C753 C750 1.499 . S
C753 C754 1.373 . S
C753 C755 1.389 . S
C754 H727 0.950 . S
C754 C740 1.377 . S
C754 C753 1.373 . S
C755 C739 1.377 . S
C755 C753 1.389 . S
C755 C756 1.524 . S
C756 C755 1.524 . S
C756 C757 1.397 . S
C756 C761 1.363 . S
C757 H728 0.950 . S
C757 C756 1.397 . S
C757 C758 1.334 . S
C758 H729 0.950 . S
C758 C757 1.334 . S
C758 C759 1.287 . S
C759 C758 1.287 . S
C759 C760 1.524 . S
C759 H762 0.999 . S
C760 H730 0.950 . S
C760 C759 1.524 . S
C760 C761 1.415 . S
C761 H731 0.950 . S
C761 C756 1.363 . S
C761 C760 1.415 . S
H762 C759 0.999 . S
H763 C744 0.913 . S
H764 C782 0.951 . S
H765 C784 0.951 . S
H766 C786 0.950 . S
H767 C787 0.950 . S
H768 C789 0.950 . S
H769 C792 0.950 . S
H770 C793 0.950 . S
H771 C795 0.950 . S
H772 C796 0.950 . S
H773 C797 0.951 . S
H774 C799 0.951 . S
H775 C801 0.950 . S
H776 C802 0.950 . S
H777 C804 0.950 . S
H778 C807 0.950 . S
H779 C808 0.950 . S
H780 C810 0.950 . S
H781 C811 0.950 . S
C782 H764 0.951 . S
C782 C783 1.366 . S
C782 C784 1.388 . S
C783 C782 1.366 . S
C783 C787 1.385 . S
C784 H765 0.951 . S
C784 C782 1.388 . S
C784 C785 1.366 . S
C785 C784 1.366 . S
C785 C786 1.414 . S
C785 C788 1.499 . S
C786 H766 0.950 . S
C786 C785 1.414 . S
C786 C787 1.374 . S
C787 H767 0.950 . S
C787 C783 1.385 . S
C787 C786 1.374 . S
C788 C785 1.499 . S
C788 C789 1.373 . S
C788 C790 1.389 . S
C789 H768 0.950 . S
C789 C788 1.373 . S
C789 C805 1.377 . S
C790 C788 1.389 . S
C790 C791 1.524 . S
C790 C804 1.377 . S
C791 C790 1.524 . S
C791 C792 1.397 . S
C791 C796 1.363 . S
C792 H769 0.950 . S
C792 C791 1.397 . S
C792 C793 1.334 . S
C793 H770 0.950 . S
C793 C792 1.334 . S
C793 C794 1.287 . S
C794 C793 1.287 . S
C794 C795 1.524 . S
C794 H813 0.913 . S
C795 H771 0.950 . S
C795 C794 1.524 . S
C795 C796 1.415 . S
C796 H772 0.950 . S
C796 C791 1.363 . S
C796 C795 1.415 . S
C797 H773 0.951 . S
C797 C798 1.366 . S
C797 C799 1.388 . S
C798 C797 1.366 . S
C798 C802 1.385 . S
C799 H774 0.951 . S
C799 C797 1.388 . S
C799 C800 1.366 . S
C800 C799 1.366 . S
C800 C801 1.414 . S
C800 C803 1.499 . S
C801 H775 0.950 . S
C801 C800 1.414 . S
C801 C802 1.374 . S
C802 H776 0.950 . S
C802 C798 1.385 . S
C802 C801 1.374 . S
C803 C800 1.499 . S
C803 C804 1.373 . S
C803 C805 1.389 . S
C804 H777 0.950 . S
C804 C790 1.377 . S
C804 C803 1.373 . S
C805 C789 1.377 . S
C805 C803 1.389 . S
C805 C806 1.524 . S
C806 C805 1.524 . S
C806 C807 1.397 . S
C806 C811 1.363 . S
C807 H778 0.950 . S
C807 C806 1.397 . S
C807 C808 1.334 . S
C808 H779 0.950 . S
C808 C807 1.334 . S
C808 C809 1.287 . S
C809 C808 1.287 . S
C809 C810 1.524 . S
C809 H812 0.999 . S
C810 H780 0.950 . S
C810 C809 1.524 . S
C810 C811 1.415 . S
C811 H781 0.950 . S
C811 C806 1.363 . S
C811 C810 1.415 . S
H812 C809 0.999 . S
H813 C794 0.913 . S
H814 C832 0.951 . S
H815 C834 0.951 . S
H816 C836 0.950 . S
H817 C837 0.950 . S
H818 C839 0.950 . S
H819 C842 0.950 . S
H820 C843 0.950 . S
H821 C845 0.950 . S
H822 C846 0.950 . S
H823 C847 0.951 . S
H824 C849 0.951 . S
H825 C851 0.950 . S
H826 C852 0.950 . S
H827 C854 0.950 . S
H828 C857 0.950 . S
H829 C858 0.950 . S
H830 C860 0.950 . S
H831 C861 0.950 . S
C832 H814 0.951 . S
C832 C833 1.366 . S
C832 C834 1.388 . S
C833 C832 1.366 . S
C833 C837 1.385 . S
C834 H815 0.951 . S
C834 C832 1.388 . S
C834 C835 1.366 . S
C835 C834 1.366 . S
C835 C836 1.414 . S
C835 C838 1.499 . S
C836 H816 0.950 . S
C836 C835 1.414 . S
C836 C837 1.374 . S
C837 H817 0.950 . S
C837 C833 1.385 . S
C837 C836 1.374 . S
C838 C835 1.499 . S
C838 C839 1.373 . S
C838 C840 1.389 . S
C839 H818 0.950 . S
C839 C838 1.373 . S
C839 C855 1.377 . S
C840 C838 1.389 . S
C840 C841 1.524 . S
C840 C854 1.377 . S
C841 C840 1.524 . S
C841 C842 1.397 . S
C841 C846 1.363 . S
C842 H819 0.950 . S
C842 C841 1.397 . S
C842 C843 1.334 . S
C843 H820 0.950 . S
C843 C842 1.334 . S
C843 C844 1.287 . S
C844 C843 1.287 . S
C844 C845 1.524 . S
C844 H863 0.913 . S
C845 H821 0.950 . S
C845 C844 1.524 . S
C845 C846 1.415 . S
C846 H822 0.950 . S
C846 C841 1.363 . S
C846 C845 1.415 . S
C847 H823 0.951 . S
C847 C848 1.366 . S
C847 C849 1.388 . S
C848 C847 1.366 . S
C848 C852 1.385 . S
C849 H824 0.951 . S
C849 C847 1.388 . S
C849 C850 1.366 . S
C850 C849 1.366 . S
C850 C851 1.414 . S
C850 C853 1.499 . S
C851 H825 0.950 . S
C851 C850 1.414 . S
C851 C852 1.374 . S
C852 H826 0.950 . S
C852 C848 1.385 . S
C852 C851 1.374 . S
C853 C850 1.499 . S
C853 C854 1.373 . S
C853 C855 1.389 . S
C854 H827 0.950 . S
C854 C840 1.377 . S
C854 C853 1.373 . S
C855 C839 1.377 . S
C855 C853 1.389 . S
C855 C856 1.524 . S
C856 C855 1.524 . S
C856 C857 1.397 . S
C856 C861 1.363 . S
C857 H828 0.950 . S
C857 C856 1.397 . S
C857 C858 1.334 . S
C858 H829 0.950 . S
C858 C857 1.334 . S
C858 C859 1.287 . S
C859 C858 1.287 . S
C859 C860 1.524 . S
C859 H862 0.999 . S
C860 H830 0.950 . S
C860 C859 1.524 . S
C860 C861 1.415 . S
C861 H831 0.950 . S
C861 C856 1.363 . S
C861 C860 1.415 . S
H862 C859 0.999 . S
H863 C844 0.913 . S
H864 C882 0.951 . S
H865 C884 0.951 . S
H866 C886 0.950 . S
H867 C887 0.950 . S
H868 C889 0.950 . S
H869 C892 0.950 . S
H870 C893 0.950 . S
H871 C895 0.950 . S
H872 C896 0.950 . S
H873 C897 0.951 . S
H874 C899 0.951 . S
H875 C901 0.950 . S
H876 C902 0.950 . S
H877 C904 0.950 . S
H878 C907 0.950 . S
H879 C908 0.950 . S
H880 C910 0.950 . S
H881 C911 0.950 . S
C882 H864 0.951 . S
C882 C883 1.366 . S
C882 C884 1.388 . S
C883 C882 1.366 . S
C883 C887 1.385 . S
C884 H865 0.951 . S
C884 C882 1.388 . S
C884 C885 1.366 . S
C885 C884 1.366 . S
C885 C886 1.414 . S
C885 C888 1.499 . S
C886 H866 0.950 . S
C886 C885 1.414 . S
C886 C887 1.374 . S
C887 H867 0.950 . S
C887 C883 1.385 . S
C887 C886 1.374 . S
C888 C885 1.499 . S
C888 C889 1.373 . S
C888 C890 1.389 . S
C889 H868 0.950 . S
C889 C888 1.373 . S
C889 C905 1.377 . S
C890 C888 1.389 . S
C890 C891 1.524 . S
C890 C904 1.377 . S
C891 C890 1.524 . S
C891 C892 1.397 . S
C891 C896 1.363 . S
C892 H869 0.950 . S
C892 C891 1.397 . S
C892 C893 1.334 . S
C893 H870 0.950 . S
C893 C892 1.334 . S
C893 C894 1.287 . S
C894 C893 1.287 . S
C894 C895 1.524 . S
C894 H913 0.913 . S
C895 H871 0.950 . S
C895 C894 1.524 . S
C895 C896 1.415 . S
C896 H872 0.950 . S
C896 C891 1.363 . S
C896 C895 1.415 . S
C897 H873 0.951 . S
C897 C898 1.366 . S
C897 C899 1.388 . S
C898 C897 1.366 . S
C898 C902 1.385 . S
C899 H874 0.951 . S
C899 C897 1.388 . S
C899 C900 1.366 . S
C900 C899 1.366 . S
C900 C901 1.414 . S
C900 C903 1.499 . S
C901 H875 0.950 . S
C901 C900 1.414 . S
C901 C902 1.374 . S
C902 H876 0.950 . S
C902 C898 1.385 . S
C902 C901 1.374 . S
C903 C900 1.499 . S
C903 C904 1.373 . S
C903 C905 1.389 . S
C904 H877 0.950 . S
C904 C890 1.377 . S
C904 C903 1.373 . S
C905 C889 1.377 . S
C905 C903 1.389 . S
C905 C906 1.524 . S
C906 C905 1.524 . S
C906 C907 1.397 . S
C906 C911 1.363 . S
C907 H878 0.950 . S
C907 C906 1.397 . S
C907 C908 1.334 . S
C908 H879 0.950 . S
C908 C907 1.334 . S
C908 C909 1.287 . S
C909 C908 1.287 . S
C909 C910 1.524 . S
C909 H912 0.999 . S
C910 H880 0.950 . S
C910 C909 1.524 . S
C910 C911 1.415 . S
C911 H881 0.950 . S
C911 C906 1.363 . S
C911 C910 1.415 . S
H912 C909 0.999 . S
H913 C894 0.913 . S
H914 C932 0.951 . S
H915 C934 0.951 . S
H916 C936 0.950 . S
H917 C937 0.950 . S
H918 C939 0.950 . S
H919 C942 0.950 . S
H920 C943 0.950 . S
H921 C945 0.950 . S
H922 C946 0.950 . S
H923 C947 0.951 . S
H924 C949 0.951 . S
H925 C951 0.950 . S
H926 C952 0.950 . S
H927 C954 0.950 . S
H928 C957 0.950 . S
H929 C958 0.950 . S
H930 C960 0.950 . S
H931 C961 0.950 . S
C932 H914 0.951 . S
C932 C933 1.366 . S
C932 C934 1.388 . S
C933 C932 1.366 . S
C933 C937 1.385 . S
C934 H915 0.951 . S
C934 C932 1.388 . S
C934 C935 1.366 . S
C935 C934 1.366 . S
C935 C936 1.414 . S
C935 C938 1.499 . S
C936 H916 0.950 . S
C936 C935 1.414 . S
C936 C937 1.374 . S
C937 H917 0.950 . S
C937 C933 1.385 . S
C937 C936 1.374 . S
C938 C935 1.499 . S
C938 C939 1.373 . S
C938 C940 1.389 . S
C939 H918 0.950 . S
C939 C938 1.373 . S
C939 C955 1.377 . S
C940 C938 1.389 . S
C940 C941 1.524 . S
C940 C954 1.377 . S
C941 C940 1.524 . S
C941 C942 1.397 . S
C941 C946 1.363 . S
C942 H919 0.950 . S
C942 C941 1.397 . S
C942 C943 1.334 . S
C943 H920 0.950 . S
C943 C942 1.334 . S
C943 C944 1.287 . S
C944 C943 1.287 . S
C944 C945 1.524 . S
C944 H963 0.913 . S
C945 H921 0.950 . S
C945 C944 1.524 . S
C945 C946 1.415 . S
C946 H922 0.950 . S
C946 C941 1.363 . S
C946 C945 1.415 . S
C947 H923 0.951 . S
C947 C948 1.366 . S
C947 C949 1.388 . S
C948 C947 1.366 . S
C948 C952 1.385 . S
C949 H924 0.951 . S
C949 C947 1.388 . S
C949 C950 1.366 . S
C950 C949 1.366 . S
C950 C951 1.414 . S
C950 C953 1.499 . S
C951 H925 0.950 . S
C951 C950 1.414 . S
C951 C952 1.374 . S
C952 H926 0.950 . S
C952 C948 1.385 . S
C952 C951 1.374 . S
C953 C950 1.499 . S
C953 C954 1.373 . S
C953 C955 1.389 . S
C954 H927 0.950 . S
C954 C940 1.377 . S
C954 C953 1.373 . S
C955 C939 1.377 . S
C955 C953 1.389 . S
C955 C956 1.524 . S
C956 C955 1.524 . S
C956 C957 1.397 . S
C956 C961 1.363 . S
C957 H928 0.950 . S
C957 C956 1.397 . S
C957 C958 1.334 . S
C958 H929 0.950 . S
C958 C957 1.334 . S
C958 C959 1.287 . S
C959 C958 1.287 . S
C959 C960 1.524 . S
C959 H962 0.999 . S
C960 H930 0.950 . S
C960 C959 1.524 . S
C960 C961 1.415 . S
C961 H931 0.950 . S
C961 C956 1.363 . S
C961 C960 1.415 . S
H962 C959 0.999 . S
H963 C944 0.913 . S
H964 C982 0.951 . S
H965 C984 0.951 . S
H966 C986 0.950 . S
H967 C987 0.950 . S
H968 C989 0.950 . S
H969 C992 0.950 . S
H970 C993 0.950 . S
H971 C995 0.950 . S
H972 C996 0.950 . S
H973 C997 0.951 . S
H974 C999 0.951 . S
H975 C1001 0.950 . S
H976 C1002 0.950 . S
H977 C1004 0.950 . S
H978 C1007 0.950 . S
H979 C1008 0.950 . S
H980 C1010 0.950 . S
H981 C1011 0.950 . S
C982 H964 0.951 . S
C982 C983 1.366 . S
C982 C984 1.388 . S
C983 C982 1.366 . S
C983 C987 1.385 . S
C984 H965 0.951 . S
C984 C982 1.388 . S
C984 C985 1.366 . S
C985 C984 1.366 . S
C985 C986 1.414 . S
C985 C988 1.499 . S
C986 H966 0.950 . S
C986 C985 1.414 . S
C986 C987 1.374 . S
C987 H967 0.950 . S
C987 C983 1.385 . S
C987 C986 1.374 . S
C988 C985 1.499 . S
C988 C989 1.373 . S
C988 C990 1.389 . S
C989 H968 0.950 . S
C989 C988 1.373 . S
C989 C1005 1.377 . S
C990 C988 1.389 . S
C990 C991 1.524 . S
C990 C1004 1.377 . S
C991 C990 1.524 . S
C991 C992 1.397 . S
C991 C996 1.363 . S
C992 H969 0.950 . S
C992 C991 1.397 . S
C992 C993 1.334 . S
C993 H970 0.950 . S
C993 C992 1.334 . S
C993 C994 1.287 . S
C994 C993 1.287 . S
C994 C995 1.524 . S
C994 H1013 0.913 . S
C995 H971 0.950 . S
C995 C994 1.524 . S
C995 C996 1.415 . S
C996 H972 0.950 . S
C996 C991 1.363 . S
C996 C995 1.415 . S
C997 H973 0.951 . S
C997 C998 1.366 . S
C997 C999 1.388 . S
C998 C997 1.366 . S
C998 C1002 1.385 . S
C999 H974 0.951 . S
C999 C997 1.388 . S
C999 C1000 1.366 . S
C1000 C999 1.366 . S
C1000 C1001 1.414 . S
C1000 C1003 1.499 . S
C1001 H975 0.950 . S
C1001 C1000 1.414 . S
C1001 C1002 1.374 . S
C1002 H976 0.950 . S
C1002 C998 1.385 . S
C1002 C1001 1.374 . S
C1003 C1000 1.499 . S
C1003 C1004 1.373 . S
C1003 C1005 1.389 . S
C1004 H977 0.950 . S
C1004 C990 1.377 . S
C1004 C1003 1.373 . S
C1005 C989 1.377 . S
C1005 C1003 1.389 . S
C1005 C1006 1.524 . S
C1006 C1005 1.524 . S
C1006 C1007 1.397 . S
C1006 C1011 1.363 . S
C1007 H978 0.950 . S
C1007 C1006 1.397 . S
C1007 C1008 1.334 . S
C1008 H979 0.950 . S
C1008 C1007 1.334 . S
C1008 C1009 1.287 . S
C1009 C1008 1.287 . S
C1009 C1010 1.524 . S
C1009 H1012 0.999 . S
C1010 H980 0.950 . S
C1010 C1009 1.524 . S
C1010 C1011 1.415 . S
C1011 H981 0.950 . S
C1011 C1006 1.363 . S
C1011 C1010 1.415 . S
H1012 C1009 0.999 . S
H1013 C994 0.913 . S
H1014 C1032 0.951 . S
H1015 C1034 0.951 . S
H1016 C1036 0.950 . S
H1017 C1037 0.950 . S
H1018 C1039 0.950 . S
H1019 C1042 0.950 . S
H1020 C1043 0.950 . S
H1021 C1045 0.950 . S
H1022 C1046 0.950 . S
H1023 C1047 0.951 . S
H1024 C1049 0.951 . S
H1025 C1051 0.950 . S
H1026 C1052 0.950 . S
H1027 C1054 0.950 . S
H1028 C1057 0.950 . S
H1029 C1058 0.950 . S
H1030 C1060 0.950 . S
H1031 C1061 0.950 . S
C1032 H1014 0.951 . S
C1032 C1033 1.366 . S
C1032 C1034 1.388 . S
C1033 C1032 1.366 . S
C1033 C1037 1.385 . S
C1034 H1015 0.951 . S
C1034 C1032 1.388 . S
C1034 C1035 1.366 . S
C1035 C1034 1.366 . S
C1035 C1036 1.414 . S
C1035 C1038 1.499 . S
C1036 H1016 0.950 . S
C1036 C1035 1.414 . S
C1036 C1037 1.374 . S
C1037 H1017 0.950 . S
C1037 C1033 1.385 . S
C1037 C1036 1.374 . S
C1038 C1035 1.499 . S
C1038 C1039 1.373 . S
C1038 C1040 1.389 . S
C1039 H1018 0.950 . S
C1039 C1038 1.373 . S
C1039 C1055 1.377 . S
C1040 C1038 1.389 . S
C1040 C1041 1.524 . S
C1040 C1054 1.377 . S
C1041 C1040 1.524 . S
C1041 C1042 1.397 . S
C1041 C1046 1.363 . S
C1042 H1019 0.950 . S
C1042 C1041 1.397 . S
C1042 C1043 1.334 . S
C1043 H1020 0.950 . S
C1043 C1042 1.334 . S
C1043 C1044 1.287 . S
C1044 C1043 1.287 . S
C1044 C1045 1.524 . S
C1044 H1063 0.913 . S
C1045 H1021 0.950 . S
C1045 C1044 1.524 . S
C1045 C1046 1.415 . S
C1046 H1022 0.950 . S
C1046 C1041 1.363 . S
C1046 C1045 1.415 . S
C1047 H1023 0.951 . S
C1047 C1048 1.366 . S
C1047 C1049 1.388 . S
C1048 C1047 1.366 . S
C1048 C1052 1.385 . S
C1049 H1024 0.951 . S
C1049 C1047 1.388 . S
C1049 C1050 1.366 . S
C1050 C1049 1.366 . S
C1050 C1051 1.414 . S
C1050 C1053 1.499 . S
C1051 H1025 0.950 . S
C1051 C1050 1.414 . S
C1051 C1052 1.374 . S
C1052 H1026 0.950 . S
C1052 C1048 1.385 . S
C1052 C1051 1.374 . S
C1053 C1050 1.499 . S
C1053 C1054 1.373 . S
C1053 C1055 1.389 . S
C1054 H1027 0.950 . S
C1054 C1040 1.377 . S
C1054 C1053 1.373 . S
C1055 C1039 1.377 . S
C1055 C1053 1.389 . S
C1055 C1056 1.524 . S
C1056 C1055 1.524 . S
C1056 C1057 1.397 . S
C1056 C1061 1.363 . S
C1057 H1028 0.950 . S
C1057 C1056 1.397 . S
C1057 C1058 1.334 . S
C1058 H1029 0.950 . S
C1058 C1057 1.334 . S
C1058 C1059 1.287 . S
C1059 C1058 1.287 . S
C1059 C1060 1.524 . S
C1059 H1062 0.999 . S
C1060 H1030 0.950 . S
C1060 C1059 1.524 . S
C1060 C1061 1.415 . S
C1061 H1031 0.950 . S
C1061 C1056 1.363 . S
C1061 C1060 1.415 . S
H1062 C1059 0.999 . S
H1063 C1044 0.913 . S
H1064 C1082 0.951 . S
H1065 C1084 0.951 . S
H1066 C1086 0.950 . S
H1067 C1087 0.950 . S
H1068 C1089 0.950 . S
H1069 C1092 0.950 . S
H1070 C1093 0.950 . S
H1071 C1095 0.950 . S
H1072 C1096 0.950 . S
H1073 C1097 0.951 . S
H1074 C1099 0.951 . S
H1075 C1101 0.950 . S
H1076 C1102 0.950 . S
H1077 C1104 0.950 . S
H1078 C1107 0.950 . S
H1079 C1108 0.950 . S
H1080 C1110 0.950 . S
H1081 C1111 0.950 . S
C1082 H1064 0.951 . S
C1082 C1083 1.366 . S
C1082 C1084 1.388 . S
C1083 C1082 1.366 . S
C1083 C1087 1.385 . S
C1084 H1065 0.951 . S
C1084 C1082 1.388 . S
C1084 C1085 1.366 . S
C1085 C1084 1.366 . S
C1085 C1086 1.414 . S
C1085 C1088 1.499 . S
C1086 H1066 0.950 . S
C1086 C1085 1.414 . S
C1086 C1087 1.374 . S
C1087 H1067 0.950 . S
C1087 C1083 1.385 . S
C1087 C1086 1.374 . S
C1088 C1085 1.499 . S
C1088 C1089 1.373 . S
C1088 C1090 1.389 . S
C1089 H1068 0.950 . S
C1089 C1088 1.373 . S
C1089 C1105 1.377 . S
C1090 C1088 1.389 . S
C1090 C1091 1.524 . S
C1090 C1104 1.377 . S
C1091 C1090 1.524 . S
C1091 C1092 1.397 . S
C1091 C1096 1.363 . S
C1092 H1069 0.950 . S
C1092 C1091 1.397 . S
C1092 C1093 1.334 . S
C1093 H1070 0.950 . S
C1093 C1092 1.334 . S
C1093 C1094 1.287 . S
C1094 C1093 1.287 . S
C1094 C1095 1.524 . S
C1094 H1113 0.913 . S
C1095 H1071 0.950 . S
C1095 C1094 1.524 . S
C1095 C1096 1.415 . S
C1096 H1072 0.950 . S
C1096 C1091 1.363 . S
C1096 C1095 1.415 . S
C1097 H1073 0.951 . S
C1097 C1098 1.366 . S
C1097 C1099 1.388 . S
C1098 C1097 1.366 . S
C1098 C1102 1.385 . S
C1099 H1074 0.951 . S
C1099 C1097 1.388 . S
C1099 C1100 1.366 . S
C1100 C1099 1.366 . S
C1100 C1101 1.414 . S
C1100 C1103 1.499 . S
C1101 H1075 0.950 . S
C1101 C1100 1.414 . S
C1101 C1102 1.374 . S
C1102 H1076 0.950 . S
C1102 C1098 1.385 . S
C1102 C1101 1.374 . S
C1103 C1100 1.499 . S
C1103 C1104 1.373 . S
C1103 C1105 1.389 . S
C1104 H1077 0.950 . S
C1104 C1090 1.377 . S
C1104 C1103 1.373 . S
C1105 C1089 1.377 . S
C1105 C1103 1.389 . S
C1105 C1106 1.524 . S
C1106 C1105 1.524 . S
C1106 C1107 1.397 . S
C1106 C1111 1.363 . S
C1107 H1078 0.950 . S
C1107 C1106 1.397 . S
C1107 C1108 1.334 . S
C1108 H1079 0.950 . S
C1108 C1107 1.334 . S
C1108 C1109 1.287 . S
C1109 C1108 1.287 . S
C1109 C1110 1.524 . S
C1109 H1112 0.999 . S
C1110 H1080 0.950 . S
C1110 C1109 1.524 . S
C1110 C1111 1.415 . S
C1111 H1081 0.950 . S
C1111 C1106 1.363 . S
C1111 C1110 1.415 . S
H1112 C1109 0.999 . S
H1113 C1094 0.913 . S
H1114 C1132 0.951 . S
H1115 C1134 0.951 . S
H1116 C1136 0.950 . S
H1117 C1137 0.950 . S
H1118 C1139 0.950 . S
H1119 C1142 0.950 . S
H1120 C1143 0.950 . S
H1121 C1145 0.950 . S
H1122 C1146 0.950 . S
H1123 C1147 0.951 . S
H1124 C1149 0.951 . S
H1125 C1151 0.950 . S
H1126 C1152 0.950 . S
H1127 C1154 0.950 . S
H1128 C1157 0.950 . S
H1129 C1158 0.950 . S
H1130 C1160 0.950 . S
H1131 C1161 0.950 . S
C1132 H1114 0.951 . S
C1132 C1133 1.366 . S
C1132 C1134 1.388 . S
C1133 C1132 1.366 . S
C1133 C1137 1.385 . S
C1134 H1115 0.951 . S
C1134 C1132 1.388 . S
C1134 C1135 1.366 . S
C1135 C1134 1.366 . S
C1135 C1136 1.414 . S
C1135 C1138 1.499 . S
C1136 H1116 0.950 . S
C1136 C1135 1.414 . S
C1136 C1137 1.374 . S
C1137 H1117 0.950 . S
C1137 C1133 1.385 . S
C1137 C1136 1.374 . S
C1138 C1135 1.499 . S
C1138 C1139 1.373 . S
C1138 C1140 1.389 . S
C1139 H1118 0.950 . S
C1139 C1138 1.373 . S
C1139 C1155 1.377 . S
C1140 C1138 1.389 . S
C1140 C1141 1.524 . S
C1140 C1154 1.377 . S
C1141 C1140 1.524 . S
C1141 C1142 1.397 . S
C1141 C1146 1.363 . S
C1142 H1119 0.950 . S
C1142 C1141 1.397 . S
C1142 C1143 1.334 . S
C1143 H1120 0.950 . S
C1143 C1142 1.334 . S
C1143 C1144 1.287 . S
C1144 C1143 1.287 . S
C1144 C1145 1.524 . S
C1144 H1163 0.913 . S
C1145 H1121 0.950 . S
C1145 C1144 1.524 . S
C1145 C1146 1.415 . S
C1146 H1122 0.950 . S
C1146 C1141 1.363 . S
C1146 C1145 1.415 . S
C1147 H1123 0.951 . S
C1147 C1148 1.366 . S
C1147 C1149 1.388 . S
C1148 C1147 1.366 . S
C1148 C1152 1.385 . S
C1149 H1124 0.951 . S
C1149 C1147 1.388 . S
C1149 C1150 1.366 . S
C1150 C1149 1.366 . S
C1150 C1151 1.414 . S
C1150 C1153 1.499 . S
C1151 H1125 0.950 . S
C1151 C1150 1.414 . S
C1151 C1152 1.374 . S
C1152 H1126 0.950 . S
C1152 C1148 1.385 . S
C1152 C1151 1.374 . S
C1153 C1150 1.499 . S
C1153 C1154 1.373 . S
C1153 C1155 1.389 . S
C1154 H1127 0.950 . S
C1154 C1140 1.377 . S
C1154 C1153 1.373 . S
C1155 C1139 1.377 . S
C1155 C1153 1.389 . S
C1155 C1156 1.524 . S
C1156 C1155 1.524 . S
C1156 C1157 1.397 . S
C1156 C1161 1.363 . S
C1157 H1128 0.950 . S
C1157 C1156 1.397 . S
C1157 C1158 1.334 . S
C1158 H1129 0.950 . S
C1158 C1157 1.334 . S
C1158 C1159 1.287 . S
C1159 C1158 1.287 . S
C1159 C1160 1.524 . S
C1159 H1162 0.999 . S
C1160 H1130 0.950 . S
C1160 C1159 1.524 . S
C1160 C1161 1.415 . S
C1161 H1131 0.950 . S
C1161 C1156 1.363 . S
C1161 C1160 1.415 . S
H1162 C1159 0.999 . S
H1163 C1144 0.913 . S
H1164 C1182 0.951 . S
H1165 C1184 0.951 . S
H1166 C1186 0.950 . S
H1167 C1187 0.950 . S
H1168 C1189 0.950 . S
H1169 C1192 0.950 . S
H1170 C1193 0.950 . S
H1171 C1195 0.950 . S
H1172 C1196 0.950 . S
H1173 C1197 0.951 . S
H1174 C1199 0.951 . S
H1175 C1201 0.950 . S
H1176 C1202 0.950 . S
H1177 C1204 0.950 . S
H1178 C1207 0.950 . S
H1179 C1208 0.950 . S
H1180 C1210 0.950 . S
H1181 C1211 0.950 . S
C1182 H1164 0.951 . S
C1182 C1183 1.366 . S
C1182 C1184 1.388 . S
C1183 C1182 1.366 . S
C1183 C1187 1.385 . S
C1184 H1165 0.951 . S
C1184 C1182 1.388 . S
C1184 C1185 1.366 . S
C1185 C1184 1.366 . S
C1185 C1186 1.414 . S
C1185 C1188 1.499 . S
C1186 H1166 0.950 . S
C1186 C1185 1.414 . S
C1186 C1187 1.374 . S
C1187 H1167 0.950 . S
C1187 C1183 1.385 . S
C1187 C1186 1.374 . S
C1188 C1185 1.499 . S
C1188 C1189 1.373 . S
C1188 C1190 1.389 . S
C1189 H1168 0.950 . S
C1189 C1188 1.373 . S
C1189 C1205 1.377 . S
C1190 C1188 1.389 . S
C1190 C1191 1.524 . S
C1190 C1204 1.377 . S
C1191 C1190 1.524 . S
C1191 C1192 1.397 . S
C1191 C1196 1.363 . S
C1192 H1169 0.950 . S
C1192 C1191 1.397 . S
C1192 C1193 1.334 . S
C1193 H1170 0.950 . S
C1193 C1192 1.334 . S
C1193 C1194 1.287 . S
C1194 C1193 1.287 . S
C1194 C1195 1.524 . S
C1194 H1213 0.913 . S
C1195 H1171 0.950 . S
C1195 C1194 1.524 . S
C1195 C1196 1.415 . S
C1196 H1172 0.950 . S
C1196 C1191 1.363 . S
C1196 C1195 1.415 . S
C1197 H1173 0.951 . S
C1197 C1198 1.366 . S
C1197 C1199 1.388 . S
C1198 C1197 1.366 . S
C1198 C1202 1.385 . S
C1199 H1174 0.951 . S
C1199 C1197 1.388 . S
C1199 C1200 1.366 . S
C1200 C1199 1.366 . S
C1200 C1201 1.414 . S
C1200 C1203 1.499 . S
C1201 H1175 0.950 . S
C1201 C1200 1.414 . S
C1201 C1202 1.374 . S
C1202 H1176 0.950 . S
C1202 C1198 1.385 . S
C1202 C1201 1.374 . S
C1203 C1200 1.499 . S
C1203 C1204 1.373 . S
C1203 C1205 1.389 . S
C1204 H1177 0.950 . S
C1204 C1190 1.377 . S
C1204 C1203 1.373 . S
C1205 C1189 1.377 . S
C1205 C1203 1.389 . S
C1205 C1206 1.524 . S
C1206 C1205 1.524 . S
C1206 C1207 1.397 . S
C1206 C1211 1.363 . S
C1207 H1178 0.950 . S
C1207 C1206 1.397 . S
C1207 C1208 1.334 . S
C1208 H1179 0.950 . S
C1208 C1207 1.334 . S
C1208 C1209 1.287 . S
C1209 C1208 1.287 . S
C1209 C1210 1.524 . S
C1209 H1212 0.999 . S
C1210 H1180 0.950 . S
C1210 C1209 1.524 . S
C1210 C1211 1.415 . S
C1211 H1181 0.950 . S
C1211 C1206 1.363 . S
C1211 C1210 1.415 . S
H1212 C1209 0.999 . S
H1213 C1194 0.913 . S
H1214 C1232 0.951 . S
H1215 C1234 0.951 . S
H1216 C1236 0.950 . S
H1217 C1237 0.950 . S
H1218 C1239 0.950 . S
H1219 C1242 0.950 . S
H1220 C1243 0.950 . S
H1221 C1245 0.950 . S
H1222 C1246 0.950 . S
H1223 C1247 0.951 1_556 S
H1224 C1249 0.951 . S
H1225 C1251 0.950 . S
H1226 C1252 0.950 . S
H1227 C1254 0.950 . S
H1228 C1257 0.950 . S
H1229 C1258 0.950 . S
H1230 C1260 0.950 . S
H1231 C1261 0.950 . S
C1232 H1214 0.951 . S
C1232 C1233 1.366 . S
C1232 C1234 1.388 . S
C1233 C1232 1.366 . S
C1233 C1237 1.385 . S
C1234 H1215 0.951 . S
C1234 C1232 1.388 . S
C1234 C1235 1.366 . S
C1235 C1234 1.366 . S
C1235 C1236 1.414 . S
C1235 C1238 1.499 . S
C1236 H1216 0.950 . S
C1236 C1235 1.414 . S
C1236 C1237 1.374 . S
C1237 H1217 0.950 . S
C1237 C1233 1.385 . S
C1237 C1236 1.374 . S
C1238 C1235 1.499 . S
C1238 C1239 1.373 . S
C1238 C1240 1.389 . S
C1239 H1218 0.950 . S
C1239 C1238 1.373 . S
C1239 C1255 1.377 . S
C1240 C1238 1.389 . S
C1240 C1241 1.524 . S
C1240 C1254 1.377 . S
C1241 C1240 1.524 . S
C1241 C1242 1.397 . S
C1241 C1246 1.363 . S
C1242 H1219 0.950 . S
C1242 C1241 1.397 . S
C1242 C1243 1.334 . S
C1243 H1220 0.950 . S
C1243 C1242 1.334 . S
C1243 C1244 1.287 . S
C1244 C1243 1.287 . S
C1244 C1245 1.524 . S
C1244 H1263 0.913 . S
C1245 H1221 0.950 . S
C1245 C1244 1.524 . S
C1245 C1246 1.415 . S
C1246 H1222 0.950 . S
C1246 C1241 1.363 . S
C1246 C1245 1.415 . S
C1247 H1223 0.951 1_554 S
C1247 C1248 1.366 . S
C1247 C1249 1.388 . S
C1248 C1247 1.366 . S
C1248 C1252 1.385 . S
C1249 H1224 0.951 . S
C1249 C1247 1.388 . S
C1249 C1250 1.366 . S
C1250 C1249 1.366 . S
C1250 C1251 1.414 . S
C1250 C1253 1.499 . S
C1251 H1225 0.950 . S
C1251 C1250 1.414 . S
C1251 C1252 1.374 . S
C1252 H1226 0.950 . S
C1252 C1248 1.385 . S
C1252 C1251 1.374 . S
C1253 C1250 1.499 . S
C1253 C1254 1.373 . S
C1253 C1255 1.389 . S
C1254 H1227 0.950 . S
C1254 C1240 1.377 . S
C1254 C1253 1.373 . S
C1255 C1239 1.377 . S
C1255 C1253 1.389 . S
C1255 C1256 1.524 . S
C1256 C1255 1.524 . S
C1256 C1257 1.397 . S
C1256 C1261 1.363 . S
C1257 H1228 0.950 . S
C1257 C1256 1.397 . S
C1257 C1258 1.334 . S
C1258 H1229 0.950 . S
C1258 C1257 1.334 . S
C1258 C1259 1.287 . S
C1259 C1258 1.287 . S
C1259 C1260 1.524 . S
C1259 H1262 0.999 . S
C1260 H1230 0.950 . S
C1260 C1259 1.524 . S
C1260 C1261 1.415 . S
C1261 H1231 0.950 . S
C1261 C1256 1.363 . S
C1261 C1260 1.415 . S
H1262 C1259 0.999 . S
H1263 C1244 0.913 . S
C283 N146 0.394 . S
C298 N14 0.394 . S
C333 N47 0.390 . S
C348 N179 0.390 . S
C383 N80 0.390 . S
C398 N212 0.391 . S
C433 N113 0.391 . S
C448 N245 0.392 . S
C483 C17 0.876 . S
C498 C215 0.876 . S
C533 C50 0.876 . S
C548 C248 0.876 . S
C583 C149 0.876 . S
C598 C83 0.876 . S
C633 C182 0.876 . S
C648 C116 0.876 . S
C683 C259 0.678 . S
C698 C28 0.678 . S
C733 C61 0.680 . S
C748 C160 0.680 . S
C783 C193 0.680 . S
C798 C94 0.680 . S
C833 C226 0.678 . S
C848 C127 0.680 . S
C883 C8 1.939 . S
C898 N38 1.943 . S
C933 C41 1.940 . S
C948 N71 1.943 . S
C983 N104 1.943 . S
C998 C74 1.940 . S
C1033 N5 1.943 1_556 S
C1048 C107 1.940 . S
C1083 C140 1.939 . S
C1098 N236 1.943 . S
C1133 N137 1.943 . S
C1148 C173 1.940 . S
C1183 C206 1.940 . S
C1198 N170 1.943 . S
C1233 C239 1.939 . S
C1248 N203 1.943 1_554 S
