# Generated by pormake.
# Topology smt, (6)-cn, num edge types: 1
# Building blocks:
#     Node 0, Type 0, BuildingBlock: VOLQOD_clean_sbu_1, # of connection points: 6
#     Node 1, Type 0, BuildingBlock: VOLQOD_clean_sbu_1, # of connection points: 6
#     Node 2, Type 0, BuildingBlock: VOLQOD_clean_sbu_1, # of connection points: 6
#     Node 3, Type 0, BuildingBlock: VOLQOD_clean_sbu_1, # of connection points: 6
#     Node 4, Type 0, BuildingBlock: VOLQOD_clean_sbu_1, # of connection points: 6
#     Node 5, Type 0, BuildingBlock: VOLQOD_clean_sbu_1, # of connection points: 6
#     Edge 6, Type (0, 0), BuildingBlock: XUDNAN_clean_linker_2, # of connection points: 2
#     Edge 7, Type (0, 0), BuildingBlock: XUDNAN_clean_linker_2, # of connection points: 2
#     Edge 8, Type (0, 0), BuildingBlock: XUDNAN_clean_linker_2, # of connection points: 2
#     Edge 9, Type (0, 0), BuildingBlock: XUDNAN_clean_linker_2, # of connection points: 2
#     Edge 10, Type (0, 0), BuildingBlock: XUDNAN_clean_linker_2, # of connection points: 2
#     Edge 11, Type (0, 0), BuildingBlock: XUDNAN_clean_linker_2, # of connection points: 2
#     Edge 12, Type (0, 0), BuildingBlock: XUDNAN_clean_linker_2, # of connection points: 2
#     Edge 13, Type (0, 0), BuildingBlock: XUDNAN_clean_linker_2, # of connection points: 2
#     Edge 14, Type (0, 0), BuildingBlock: XUDNAN_clean_linker_2, # of connection points: 2
#     Edge 15, Type (0, 0), BuildingBlock: XUDNAN_clean_linker_2, # of connection points: 2
#     Edge 16, Type (0, 0), BuildingBlock: XUDNAN_clean_linker_2, # of connection points: 2
#     Edge 17, Type (0, 0), BuildingBlock: XUDNAN_clean_linker_2, # of connection points: 2
#     Edge 18, Type (0, 0), BuildingBlock: XUDNAN_clean_linker_2, # of connection points: 2
#     Edge 19, Type (0, 0), BuildingBlock: XUDNAN_clean_linker_2, # of connection points: 2
#     Edge 20, Type (0, 0), BuildingBlock: XUDNAN_clean_linker_2, # of connection points: 2
#     Edge 21, Type (0, 0), BuildingBlock: XUDNAN_clean_linker_2, # of connection points: 2
#     Edge 22, Type (0, 0), BuildingBlock: XUDNAN_clean_linker_2, # of connection points: 2
#     Edge 23, Type (0, 0), BuildingBlock: XUDNAN_clean_linker_2, # of connection points: 2
# Relax obj value: 0.336
# Max RMSD: 0.251
# Mean RMSD: 0.251
data_MOF--net-smt--node1-VOLQOD_clean_sbu_1--edge1-XUDNAN_clean_linker_2
_symmetry_space_group_name_H-M    P1
_symmetry_Int_Tables_number       1
_symmetry_cell_setting            triclinic
loop_
_symmetry_equiv_pos_as_xyz
'x, y, z'
_cell_length_a     36.993475
_cell_length_b     36.821458
_cell_length_c     27.11605
_cell_angle_alpha  90.117656
_cell_angle_beta   89.772543
_cell_angle_gamma 120.20546
loop_
_atom_site_label
_atom_site_type_symbol
_atom_site_fract_x
_atom_site_fract_y
_atom_site_fract_z
_atom_type_partial_charge
O0 O 0.47169 0.04452 0.05822 0.0
Zn1 Zn 0.48328 0.0896 0.00857 0.0
O2 O 0.43779 0.101 0.00962 0.0
Zn3 Zn 0.4083 0.0879 0.9481 0.0
Zn4 Zn 0.40069 0.07259 0.06383 0.0
Zn5 Zn 0.45978 0.15894 0.018 0.0
O6 O 0.4078 0.13811 0.91731 0.0
O7 O 0.46686 0.18539 0.95297 0.0
O8 O 0.49393 0.0761 0.93902 0.0
O9 O 0.44157 0.07657 0.89944 0.0
O10 O 0.35203 0.0353 0.95575 0.0
O11 O 0.34941 0.0236 0.03675 0.0
O12 O 0.38166 0.109 0.09781 0.0
O13 O 0.53572 0.13973 0.03476 0.0
O14 O 0.41931 0.16823 0.05574 0.0
O15 O 0.51454 0.18506 0.05186 0.0
C16 C 0.45307 0.0374 0.09987 0.0
C17 C 0.44026 0.17468 0.91845 0.0
C18 C 0.33373 0.01318 0.99381 0.0
C19 C 0.47417 0.07327 0.8994 0.0
C20 C 0.39076 0.14626 0.08682 0.0
C21 C 0.54228 0.17436 0.05325 0.0
O22 O 0.42785 0.05059 0.1097 0.0
O23 O 0.40645 0.46877 0.24005 0.0
Zn24 Zn 0.38498 0.49069 0.18722 0.0
O25 O 0.32779 0.4505 0.17619 0.0
Zn26 Zn 0.31878 0.42276 0.11372 0.0
Zn27 Zn 0.30715 0.41086 0.22962 0.0
Zn28 Zn 0.29737 0.4788 0.17326 0.0
O29 O 0.27636 0.42839 0.07251 0.0
O30 O 0.29055 0.49006 0.10331 0.0
O31 O 0.4176 0.50278 0.12395 0.0
O32 O 0.37164 0.45271 0.07442 0.0
O33 O 0.30418 0.36295 0.1239 0.0
O34 O 0.30209 0.35711 0.20564 0.0
O35 O 0.24826 0.39575 0.24765 0.0
O36 O 0.39054 0.54427 0.21398 0.0
O37 O 0.24013 0.43896 0.19757 0.0
O38 O 0.32559 0.5327 0.21143 0.0
C39 C 0.38862 0.4496 0.27987 0.0
C40 C 0.27584 0.46266 0.06915 0.0
C41 C 0.30003 0.34184 0.16289 0.0
C42 C 0.40772 0.48442 0.08217 0.0
C43 C 0.22526 0.40796 0.22717 0.0
C44 C 0.36395 0.55573 0.22308 0.0
O45 O 0.34897 0.43101 0.28546 0.0
O46 O 0.95459 0.42011 0.39262 0.0
Zn47 Zn 0.90407 0.39672 0.34881 0.0
O48 O 0.87648 0.33668 0.34656 0.0
Zn49 Zn 0.87393 0.31675 0.27973 0.0
Zn50 Zn 0.90595 0.31852 0.38797 0.0
Zn51 Zn 0.82115 0.31352 0.37215 0.0
O52 O 0.81397 0.28114 0.2566 0.0
O53 O 0.78343 0.29932 0.31478 0.0
O54 O 0.91766 0.42165 0.28094 0.0
O55 O 0.89805 0.36584 0.23294 0.0
O56 O 0.91014 0.29049 0.27247 0.0
O57 O 0.94209 0.30603 0.34526 0.0
O58 O 0.86666 0.26509 0.42222 0.0
O59 O 0.86671 0.41445 0.38091 0.0
O60 O 0.80491 0.25936 0.4075 0.0
O61 O 0.8144 0.35591 0.41284 0.0
C62 C 0.96149 0.40325 0.4297 0.0
C63 C 0.783 0.28401 0.27255 0.0
C64 C 0.93854 0.29279 0.3011 0.0
C65 C 0.91334 0.40521 0.23843 0.0
C66 C 0.82698 0.24482 0.42509 0.0
C67 C 0.834 0.39577 0.40761 0.0
O68 O 0.94147 0.36362 0.43624 0.0
O69 O 0.52347 0.97048 0.56097 0.0
Zn70 Zn 0.50014 0.92256 0.51195 0.0
O71 O 0.53135 0.89356 0.51681 0.0
Zn72 Zn 0.55627 0.89119 0.45543 0.0
Zn73 Zn 0.57315 0.91838 0.56648 0.0
Zn74 Zn 0.49494 0.83752 0.53584 0.0
O75 O 0.53113 0.83152 0.42835 0.0
O76 O 0.47393 0.80345 0.47517 0.0
O77 O 0.50065 0.942 0.4413 0.0
O78 O 0.53994 0.91937 0.4058 0.0
O79 O 0.61933 0.92703 0.45805 0.0
O80 O 0.62736 0.95473 0.53317 0.0
O81 O 0.58027 0.87518 0.60245 0.0
O82 O 0.44071 0.88446 0.53581 0.0
O83 O 0.52668 0.81608 0.57392 0.0
O84 O 0.4458 0.83298 0.57188 0.0
C85 C 0.54314 0.97537 0.60132 0.0
C86 C 0.4935 0.80267 0.43693 0.0
C87 C 0.64206 0.95307 0.49128 0.0
C88 C 0.51865 0.93768 0.40328 0.0
C89 C 0.56025 0.83534 0.59889 0.0
C90 C 0.42577 0.85214 0.5636 0.0
O91 O 0.56058 0.95394 0.61117 0.0
O92 O 0.54609 0.52951 0.73831 0.0
Zn93 Zn 0.56685 0.50705 0.68293 0.0
O94 O 0.62765 0.53753 0.68031 0.0
Zn95 Zn 0.64749 0.5617 0.61647 0.0
Zn96 Zn 0.64933 0.5822 0.72737 0.0
Zn97 Zn 0.64971 0.50125 0.69365 0.0
O98 O 0.6927 0.55091 0.59106 0.0
O99 O 0.67349 0.49167 0.63196 0.0
O100 O 0.54168 0.50332 0.61501 0.0
O101 O 0.60025 0.53198 0.57044 0.0
O102 O 0.6629 0.62264 0.61514 0.0
O103 O 0.66356 0.63595 0.69512 0.0
O104 O 0.70037 0.58913 0.75974 0.0
O105 O 0.54704 0.44768 0.70312 0.0
O106 O 0.69945 0.5303 0.73872 0.0
O107 O 0.60469 0.44546 0.71998 0.0
C108 C 0.56624 0.5526 0.77503 0.0
C109 C 0.69405 0.51729 0.59741 0.0
C110 C 0.66758 0.64754 0.6504 0.0
C111 C 0.56056 0.51181 0.57345 0.0
C112 C 0.71632 0.56562 0.76084 0.0
C113 C 0.56492 0.42807 0.7186 0.0
O114 O 0.60596 0.57176 0.77686 0.0
O115 O 0.0126 0.54448 0.89355 0.0
Zn116 Zn 0.05732 0.57016 0.83935 0.0
O117 O 0.0844 0.63133 0.84015 0.0
Zn118 Zn 0.07804 0.65278 0.77839 0.0
Zn119 Zn 0.06053 0.64942 0.89029 0.0
Zn120 Zn 0.1432 0.65637 0.85112 0.0
O121 O 0.13205 0.70223 0.75367 0.0
O122 O 0.17458 0.68436 0.78981 0.0
O123 O 0.03941 0.54762 0.76932 0.0
O124 O 0.06407 0.60826 0.72925 0.0
O125 O 0.02988 0.66351 0.78072 0.0
O126 O 0.01955 0.66309 0.86147 0.0
O127 O 0.10386 0.69999 0.92603 0.0
O128 O 0.09935 0.55351 0.85806 0.0
O129 O 0.16242 0.70339 0.89968 0.0
O130 O 0.15825 0.61353 0.87224 0.0
C131 C 0.00819 0.56256 0.93156 0.0
C132 C 0.16789 0.70549 0.75774 0.0
C133 C 0.01019 0.66679 0.81748 0.0
C134 C 0.04845 0.56863 0.7292 0.0
C135 C 0.14351 0.71768 0.92547 0.0
C136 C 0.13754 0.57351 0.87109 0.0
O137 O 0.02779 0.60238 0.936 0.0
H138 H 0.32047 0.95703 0.92173 0.0
H139 H 0.26597 0.97482 0.05485 0.0
H140 H 0.21003 0.90001 0.0524 0.0
H141 H 0.22327 0.87885 0.8614 0.0
H142 H 0.24692 0.84963 0.83848 0.0
H143 H 0.27843 0.90555 0.84745 0.0
H144 H 0.3282 0.89356 0.90337 0.0
H145 H 0.29624 0.83758 0.89561 0.0
H146 H 0.30728 0.85999 0.95666 0.0
H147 H 0.16144 0.82262 0.03609 0.0
H148 H 0.12427 0.74864 0.00727 0.0
H149 H 0.21631 0.78174 0.89072 0.0
C150 C 0.29591 0.94545 0.94934 0.0
C151 C 0.29666 0.97152 0.98782 0.0
C152 C 0.26522 0.95514 0.02466 0.0
C153 C 0.23357 0.91282 0.02365 0.0
C154 C 0.23452 0.88745 0.98608 0.0
C155 C 0.2649 0.90318 0.94962 0.0
C156 C 0.26119 0.86885 0.9158 0.0
C157 C 0.25188 0.87616 0.86264 0.0
C158 C 0.30057 0.86478 0.91803 0.0
C159 C 0.22403 0.83134 0.93893 0.0
C160 C 0.20868 0.84263 0.97904 0.0
C161 C 0.17334 0.81331 0.00497 0.0
C162 C 0.15263 0.77148 0.98862 0.0
C163 C 0.16803 0.75956 0.94755 0.0
C164 C 0.20454 0.78979 0.9231 0.0
H165 H 0.31185 0.30733 0.08002 0.0
H166 H 0.28507 0.28474 0.23652 0.0
H167 H 0.29472 0.2232 0.23134 0.0
H168 H 0.26754 0.19416 0.04117 0.0
H169 H 0.30938 0.20925 -0.00281 0.0
H170 H 0.29014 0.24448 0.01084 0.0
H171 H 0.36545 0.30284 0.03295 0.0
H172 H 0.38479 0.26783 0.02018 0.0
H173 H 0.39388 0.29281 0.07968 0.0
H174 H 0.31849 0.17133 0.21165 0.0
H175 H 0.35544 0.13556 0.17911 0.0
H176 H 0.36943 0.19589 0.03761 0.0
C177 C 0.30643 0.28858 0.11288 0.0
C178 C 0.29759 0.30073 0.15857 0.0
C179 C 0.29172 0.27588 0.20099 0.0
C180 C 0.29696 0.24075 0.19839 0.0
C181 C 0.30775 0.23086 0.1531 0.0
C182 C 0.31203 0.25393 0.11101 0.0
C183 C 0.32956 0.24103 0.06851 0.0
C184 C 0.29721 0.22103 0.02698 0.0
C185 C 0.37085 0.27834 0.04927 0.0
C186 C 0.33667 0.2088 0.09393 0.0
C187 C 0.32287 0.20228 0.14227 0.0
C188 C 0.32879 0.17567 0.17361 0.0
C189 C 0.34986 0.15566 0.15504 0.0
C190 C 0.3655 0.16355 0.10623 0.0
C191 C 0.35802 0.1897 0.07528 0.0
H192 H 0.00306 0.29424 0.35118 0.0
H193 H 0.95316 0.28411 0.20394 0.0
H194 H 0.02113 0.30106 0.16861 0.0
H195 H 0.09075 0.38065 0.33434 0.0
H196 H 0.12539 0.36951 0.36929 0.0
H197 H 0.07069 0.34307 0.38411 0.0
H198 H 0.06467 0.27048 0.37237 0.0
H199 H 0.11996 0.29656 0.35913 0.0
H200 H 0.08301 0.25912 0.31596 0.0
H201 H 0.09603 0.33962 0.15081 0.0
H202 H 0.17255 0.38562 0.15028 0.0
H203 H 0.1759 0.3694 0.30821 0.0
C204 C 0.00582 0.29351 0.31147 0.0
C205 C 0.97297 0.28826 0.28032 0.0
C206 C 0.97783 0.28795 0.22857 0.0
C207 C 0.01642 0.2976 0.20812 0.0
C208 C 0.04933 0.30645 0.23995 0.0
C209 C 0.04417 0.30312 0.29057 0.0
C210 C 0.08576 0.32004 0.31671 0.0
C211 C 0.09356 0.3554 0.35321 0.0
C212 C 0.08851 0.28442 0.34256 0.0
C213 C 0.11531 0.33678 0.27314 0.0
C214 C 0.09352 0.328 0.2292 0.0
C215 C 0.11349 0.34534 0.18466 0.0
C216 C 0.15681 0.37196 0.18487 0.0
C217 C 0.17972 0.38078 0.22927 0.0
C218 C 0.15889 0.36243 0.27381 0.0
H219 H 0.75786 0.17903 0.38577 0.0
H220 H 0.85149 0.21189 0.49934 0.0
H221 H 0.82018 0.13655 0.52098 0.0
H222 H 0.67224 0.09702 0.44839 0.0
H223 H 0.65103 0.06497 0.39405 0.0
H224 H 0.68196 0.12112 0.38831 0.0
H225 H 0.73119 0.1121 0.32738 0.0
H226 H 0.70092 0.05581 0.33429 0.0
H227 H 0.75631 0.08334 0.34652 0.0
H228 H 0.77359 0.05907 0.5357 0.0
H229 H 0.71461 0.98608 0.54341 0.0
H230 H 0.65766 0.00327 0.41312 0.0
C231 C 0.77144 0.17034 0.41557 0.0
C232 C 0.80642 0.20098 0.4417 0.0
C233 C 0.82425 0.18861 0.47947 0.0
C234 C 0.80698 0.14602 0.49158 0.0
C235 C 0.77283 0.11642 0.46444 0.0
C236 C 0.75544 0.12808 0.42705 0.0
C237 C 0.71841 0.09043 0.40402 0.0
C238 C 0.67857 0.09357 0.40904 0.0
C239 C 0.72726 0.08512 0.34984 0.0
C240 C 0.71639 0.05577 0.43578 0.0
C241 C 0.74821 0.07131 0.47027 0.0
C242 C 0.74933 0.04621 0.50797 0.0
C243 C 0.716 0.00479 0.5119 0.0
C244 C 0.68268 0.98898 0.47779 0.0
C245 C 0.68391 0.01414 0.43809 0.0
H246 H 0.55068 0.76273 0.56086 0.0
H247 H 0.61772 0.85728 0.67295 0.0
H248 H 0.65963 0.82376 0.69204 0.0
H249 H 0.54643 0.67528 0.62368 0.0
H250 H 0.55406 0.65315 0.56796 0.0
H251 H 0.52936 0.68449 0.56524 0.0
H252 H 0.58477 0.73285 0.50086 0.0
H253 H 0.61042 0.70234 0.50467 0.0
H254 H 0.63953 0.75812 0.51615 0.0
H255 H 0.69169 0.77799 0.70083 0.0
H256 H 0.70811 0.72066 0.70245 0.0
H257 H 0.6245 0.66067 0.57925 0.0
C258 C 0.5736 0.77594 0.59012 0.0
C259 C 0.58063 0.81218 0.61601 0.0
C260 C 0.61166 0.82921 0.65309 0.0
C261 C 0.63581 0.81066 0.66382 0.0
C262 C 0.62897 0.77572 0.6364 0.0
C263 C 0.59851 0.75847 0.60047 0.0
C264 C 0.59725 0.72087 0.57625 0.0
C265 C 0.55424 0.68111 0.58377 0.0
C266 C 0.60868 0.72906 0.52122 0.0
C267 C 0.63108 0.71888 0.60509 0.0
C268 C 0.6492 0.75093 0.63945 0.0
C269 C 0.67836 0.75322 0.6735 0.0
C270 C 0.68772 0.72078 0.67396 0.0
C271 C 0.66826 0.68698 0.64023 0.0
C272 C 0.64098 0.68701 0.60416 0.0
H273 H 0.9531 0.62394 0.74668 0.0
H274 H 0.97697 0.7043 0.87391 0.0
H275 H 0.90339 0.68798 0.87278 0.0
H276 H 0.87382 0.64243 0.68558 0.0
H277 H 0.84344 0.58814 0.66714 0.0
H278 H 0.8994 0.61272 0.67278 0.0
H279 H 0.8892 0.55356 0.73281 0.0
H280 H 0.83327 0.52959 0.72871 0.0
H281 H 0.85845 0.54431 0.78803 0.0
H282 H 0.82608 0.65849 0.86129 0.0
H283 H 0.75115 0.6199 0.83822 0.0
H284 H 0.77782 0.55367 0.72438 0.0
C285 C 0.94328 0.63954 0.77289 0.0
C286 C 0.97066 0.66609 0.80967 0.0
C287 C 0.95639 0.68447 0.84492 0.0
C288 C 0.91472 0.6752 0.84471 0.0
C289 C 0.88788 0.64711 0.80943 0.0
C290 C 0.90166 0.62977 0.77396 0.0
C291 C 0.86587 0.5973 0.74334 0.0
C292 C 0.87093 0.61098 0.689 0.0
C293 C 0.86146 0.55362 0.74857 0.0
C294 C 0.82974 0.59863 0.76755 0.0
C295 C 0.84305 0.62792 0.80514 0.0
C296 C 0.81525 0.6354 0.832 0.0
C297 C 0.77286 0.61319 0.81899 0.0
C298 C 0.75885 0.58334 0.78031 0.0
C299 C 0.78757 0.5755 0.75501 0.0
H300 H 0.42687 0.02404 0.1967 0.0
H301 H 0.50523 0.00524 0.09188 0.0
H302 H 0.52994 0.97811 0.1586 0.0
H303 H 0.49863 0.05957 0.29565 0.0
H304 H 0.45989 0.03318 0.3432 0.0
H305 H 0.44589 0.04895 0.28697 0.0
H306 H 0.38641 0.9724 0.27198 0.0
H307 H 0.39986 0.95646 0.32852 0.0
H308 H 0.39833 0.93057 0.27142 0.0
H309 H 0.54949 0.95746 0.2357 0.0
H310 H 0.55928 0.93855 0.31909 0.0
H311 H 0.46786 0.96948 0.37573 0.0
C312 C 0.44873 0.01363 0.18759 0.0
C313 C 0.46409 0.0168 0.13895 0.0
C314 C 0.49294 0.00312 0.12874 0.0
C315 C 0.50727 0.98774 0.16641 0.0
C316 C 0.49232 0.98605 0.21401 0.0
C317 C 0.46339 -0.00189 0.22479 0.0
C318 C 0.45308 -0.00636 0.27944 0.0
C319 C 0.4651 0.03639 0.30267 0.0
C320 C 0.40666 0.96134 0.28835 0.0
C321 C 0.48113 0.97754 0.29764 0.0
C322 C 0.50346 0.97356 0.2591 0.0
C323 C 0.53194 0.96003 0.26619 0.0
C324 C 0.53726 0.94943 0.31389 0.0
C325 C 0.51412 0.95225 0.35414 0.0
C326 C 0.48597 0.96696 0.34584 0.0
H327 H 0.3767 0.45212 0.37963 0.0
H328 H 0.46126 0.44943 0.27019 0.0
H329 H 0.51069 0.45782 0.33574 0.0
H330 H 0.45395 0.53243 0.45018 0.0
H331 H 0.43034 0.51205 0.50952 0.0
H332 H 0.39802 0.49917 0.45553 0.0
H333 H 0.36664 0.41978 0.47328 0.0
H334 H 0.39865 0.4324 0.52767 0.0
H335 H 0.40107 0.39884 0.48087 0.0
H336 H 0.55375 0.47409 0.40909 0.0
H337 H 0.58957 0.49722 0.48854 0.0
H338 H 0.47892 0.49092 0.55336 0.0
C339 C 0.40511 0.45211 0.36987 0.0
C340 C 0.41521 0.44983 0.32008 0.0
C341 C 0.45308 0.45111 0.30821 0.0
C342 C 0.48121 0.45564 0.34515 0.0
C343 C 0.47101 0.45898 0.39372 0.0
C344 C 0.43394 0.45719 0.40643 0.0
C345 C 0.43284 0.46563 0.4611 0.0
C346 C 0.42854 0.50464 0.46955 0.0
C347 C 0.39771 0.42684 0.48727 0.0
C348 C 0.47558 0.47361 0.47658 0.0
C349 C 0.49664 0.46906 0.43699 0.0
C350 C 0.53748 0.47723 0.4406 0.0
C351 C 0.55764 0.49069 0.48587 0.0
C352 C 0.53703 0.49596 0.5271 0.0
C353 C 0.4952 0.48672 0.52258 0.0
H354 H 0.00252 0.48406 0.70533 0.0
H355 H 0.08632 0.60762 0.64376 0.0
H356 H 0.08123 0.57617 0.56264 0.0
H357 H 0.0389 0.42546 0.62681 0.0
H358 H -0.01316 0.38113 0.61968 0.0
H359 H 0.00075 0.41221 0.67525 0.0
H360 H 0.93883 0.42535 0.66226 0.0
H361 H 0.92457 0.39399 0.60713 0.0
H362 H 0.9345 0.44716 0.60461 0.0
H363 H 0.06229 0.53421 0.48716 0.0
H364 H 0.02646 0.48337 0.42008 0.0
H365 H 0.95557 0.38611 0.52824 0.0
C366 C 0.0202 0.5043 0.67489 0.0
C367 C 0.0447 0.54826 0.68102 0.0
C368 C 0.06701 0.57384 0.6401 0.0
C369 C 0.06476 0.55628 0.59381 0.0
C370 C 0.04018 0.51302 0.5888 0.0
C371 C 0.01811 0.48724 0.62797 0.0
C372 C -0.00902 0.44218 0.61105 0.0
C373 C 0.00523 0.41356 0.63461 0.0
C374 C 0.94448 0.42626 0.62189 0.0
C375 C 0.00017 0.44723 0.55614 0.0
C376 C 0.02925 0.48828 0.54437 0.0
C377 C 0.04006 0.50173 0.49579 0.0
C378 C 0.01956 0.47272 0.45798 0.0
C379 C -0.01129 0.43085 0.46909 0.0
C380 C 0.97989 0.41767 0.51879 0.0
H381 H 0.55898 0.97597 0.69998 0.0
H382 H 0.52217 0.03618 0.58939 0.0
H383 H 0.50917 0.07471 0.65492 0.0
H384 H 0.48153 0.95682 0.78257 0.0
H385 H 0.51205 0.96656 0.83779 0.0
H386 H 0.52626 0.94961 0.78252 0.0
H387 H 0.60074 0.01485 0.7857 0.0
H388 H 0.58695 0.03185 0.84149 0.0
H389 H 0.607 0.06662 0.78912 0.0
H390 H 0.48987 0.09766 0.73078 0.0
H391 H 0.46751 0.10626 0.81335 0.0
H392 H 0.51694 0.03194 0.87649 0.0
C393 C 0.54955 -0.00167 0.68941 0.0
C394 C 0.54181 0.00328 0.63954 0.0
C395 C 0.52841 0.03199 0.62732 0.0
C396 C 0.5211 0.05413 0.66427 0.0
C397 C 0.52756 0.04736 0.71316 0.0
C398 C 0.54187 0.02051 0.7259 0.0
C399 C 0.54203 0.01558 0.78142 0.0
C400 C 0.51378 0.96941 0.79695 0.0
C401 C 0.58685 0.03329 0.80056 0.0
C402 C 0.5239 0.0425 0.79776 0.0
C403 C 0.51633 0.06089 0.75767 0.0
C404 C 0.49637 0.08415 0.76255 0.0
C405 C 0.48348 0.08851 0.80955 0.0
C406 C 0.49058 0.06974 0.85117 0.0
C407 C 0.51176 0.0471 0.84534 0.0
H408 H 0.39943 0.45049 0.99006 0.0
H409 H 0.48198 0.55915 0.0791 0.0
H410 H 0.52771 0.59154 0.00673 0.0
H411 H 0.47982 0.44683 0.92106 0.0
H412 H 0.4501 0.43067 0.8647 0.0
H413 H 0.42347 0.417 0.92326 0.0
H414 H 0.3812 0.45238 0.89669 0.0
H415 H 0.4083 0.46683 0.83832 0.0
H416 H 0.40862 0.50661 0.87747 0.0
H417 H 0.56478 0.61147 0.9259 0.0
H418 H 0.59511 0.61465 0.84386 0.0
H419 H 0.48821 0.49321 0.80718 0.0
C420 C 0.42714 0.48109 -0.00552 0.0
C421 C 0.43708 0.50234 0.04026 0.0
C422 C 0.47378 0.54221 0.04446 0.0
C423 C 0.49975 0.56102 0.00348 0.0
C424 C 0.48852 0.53954 0.95873 0.0
C425 C 0.45339 0.50027 0.95408 0.0
C426 C 0.4494 0.48305 0.9024 0.0
C427 C 0.4508 0.44197 0.90291 0.0
C428 C 0.40951 0.47687 0.87725 0.0
C429 C 0.4882 0.51858 0.87883 0.0
C430 C 0.51 0.55105 0.91187 0.0
C431 C 0.54791 0.58641 0.89959 0.0
C432 C 0.56481 0.58793 0.85292 0.0
C433 C 0.54385 0.55425 0.8192 0.0
C434 C 0.50446 0.51975 0.83184 0.0
H435 H -0.00936 0.48422 0.96342 0.0
H436 H 0.96838 0.58685 -0.00411 0.0
H437 H 0.9375 0.55473 0.07585 0.0
H438 H 0.894 0.40025 0.02878 0.0
H439 H 0.92127 0.37442 0.05071 0.0
H440 H 0.93576 0.40187 0.99255 0.0
H441 H 0.01219 0.44613 0.02297 0.0
H442 H -0.00214 0.41951 0.0815 0.0
H443 H 0.02288 0.47599 0.07922 0.0
H444 H 0.92076 0.51954 0.1564 0.0
H445 H 0.90899 0.47642 0.23064 0.0
H446 H 0.93845 0.39391 0.14696 0.0
C447 C 0.97777 0.49896 0.98662 0.0
C448 C -0.01814 0.53798 0.97355 0.0
C449 C 0.96566 0.55699 0.00532 0.0
C450 C 0.94802 0.53901 0.05081 0.0
C451 C 0.94637 0.50173 0.06383 0.0
C452 C 0.95988 0.48128 0.03245 0.0
C453 C 0.95687 0.44296 0.05731 0.0
C454 C 0.92507 0.40247 0.03076 0.0
C455 C 2e-05 0.44639 0.06042 0.0
C456 C 0.94111 0.44619 0.10792 0.0
C457 C 0.93533 0.48038 0.11071 0.0
C458 C 0.92422 0.49209 0.15452 0.0
C459 C 0.91807 0.4677 0.19658 0.0
C460 C 0.92265 0.43183 0.19437 0.0
C461 C 0.93423 0.42092 0.14941 0.0
H462 H 0.51677 0.23597 0.89009 0.0
H463 H 0.38494 0.18235 0.85725 0.0
H464 H 0.40289 0.23891 0.79567 0.0
H465 H 0.5438 0.34038 0.88694 0.0
H466 H 0.59448 0.35886 0.85926 0.0
H467 H 0.57114 0.31194 0.89616 0.0
H468 H 0.57813 0.27008 0.82333 0.0
H469 H 0.6017 0.317 0.78614 0.0
H470 H 0.55599 0.27024 0.76428 0.0
H471 H 0.43586 0.30637 0.74515 0.0
H472 H 0.48024 0.37628 0.70761 0.0
H473 H 0.5901 0.38277 0.7735 0.0
C474 C 0.49158 0.23576 0.86962 0.0
C475 C 0.44945 0.20515 0.87853 0.0
C476 C 0.41743 0.20562 0.85073 0.0
C477 C 0.42737 0.23755 0.81582 0.0
C478 C 0.46941 0.26793 0.80886 0.0
C479 C 0.50094 0.26681 0.83466 0.0
C480 C 0.54345 0.30385 0.82264 0.0
C481 C 0.56441 0.33031 0.869 0.0
C482 C 0.57146 0.28941 0.79759 0.0
C483 C 0.53102 0.327 0.78705 0.0
C484 C 0.48827 0.30581 0.77923 0.0
C485 C 0.4694 0.32283 0.75038 0.0
C486 C 0.49487 0.36262 0.72939 0.0
C487 C 0.5387 0.38487 0.73744 0.0
C488 C 0.55684 0.36635 0.76603 0.0
H489 H 0.21177 0.60383 0.91942 0.0
H490 H 0.10782 0.48899 0.8609 0.0
H491 H 0.13827 0.44839 0.89553 0.0
H492 H 0.2936 0.57348 0.90539 0.0
H493 H 0.3178 0.59851 0.96279 0.0
H494 H 0.29185 0.61918 0.92586 0.0
H495 H 0.24532 0.61321 0.00075 0.0
H496 H 0.27096 0.59251 0.03773 0.0
H497 H 0.21489 0.56317 0.03112 0.0
H498 H 0.17569 0.4195 0.94482 0.0
H499 H 0.21478 0.40489 0.00818 0.0
H500 H 0.29238 0.53866 0.03526 0.0
C501 C 0.19594 0.5703 0.91269 0.0
C502 C 0.15758 0.54962 0.8873 0.0
C503 C 0.13736 0.50553 0.88022 0.0
C504 C 0.15453 0.48222 0.89945 0.0
C505 C 0.19195 0.50351 0.9254 0.0
C506 C 0.21243 0.54662 0.93192 0.0
C507 C 0.24944 0.56151 0.96593 0.0
C508 C 0.29061 0.58984 0.93833 0.0
C509 C 0.24483 0.58388 0.01157 0.0
C510 C 0.24553 0.5199 0.97928 0.0
C511 C 0.21288 0.48683 0.9547 0.0
C512 C 0.20175 0.44518 0.96373 0.0
C513 C 0.22406 0.43716 -0.00033 0.0
C514 C 0.25638 0.47067 0.02653 0.0
C515 C 0.26776 0.51245 0.01522 0.0
H516 H 0.60772 0.1604 0.0694 0.0
H517 H 0.5641 0.24784 0.10095 0.0
H518 H 0.62358 0.28711 0.15666 0.0
H519 H 0.6385 0.15437 0.18827 0.0
H520 H 0.68481 0.1527 0.1713 0.0
H521 H 0.64157 0.13357 0.12915 0.0
H522 H 0.69038 0.18439 0.06151 0.0
H523 H 0.73399 0.20334 0.10324 0.0
H524 H 0.72143 0.23978 0.07471 0.0
H525 H 0.68064 0.31097 0.21639 0.0
H526 H 0.73847 0.32374 0.27148 0.0
H527 H 0.74872 0.22377 0.19964 0.0
C528 C 0.6112 0.18836 0.08713 0.0
C529 C 0.58115 0.20095 0.08087 0.0
C530 C 0.58665 0.23752 0.1051 0.0
C531 C 0.62035 0.2601 0.13685 0.0
C532 C 0.64856 0.24605 0.14345 0.0
C533 C 0.64493 0.21155 0.11875 0.0
C534 C 0.67878 0.20227 0.13438 0.0
C535 C 0.65976 0.15811 0.15713 0.0
C536 C 0.70788 0.20779 0.09086 0.0
C537 C 0.70109 0.23621 0.17284 0.0
C538 C 0.68293 0.26096 0.17734 0.0
C539 C 0.6957 0.2924 0.21267 0.0
C540 C 0.72828 0.2991 0.24405 0.0
C541 C 0.74798 0.27475 0.23959 0.0
C542 C 0.73443 0.24308 0.2033 0.0
H543 H 0.5204 0.75883 0.37939 0.0
H544 H 0.41276 0.77203 0.41281 0.0
H545 H 0.36975 0.71429 0.35568 0.0
H546 H 0.49512 0.72838 0.24824 0.0
H547 H 0.51203 0.69029 0.25104 0.0
H548 H 0.53616 0.73612 0.29008 0.0
H549 H 0.51801 0.68836 0.36708 0.0
H550 H 0.49382 0.64247 0.32833 0.0
H551 H 0.46447 0.6481 0.37798 0.0
H552 H 0.3371 0.65307 0.3002 0.0
H553 H 0.31558 0.58902 0.25131 0.0
H554 H 0.44312 0.61269 0.25518 0.0
C555 C 0.48801 0.74995 0.37376 0.0
C556 C 0.46982 0.76982 0.40015 0.0
C557 C 0.42714 0.75697 0.39292 0.0
C558 C 0.40252 0.72443 0.36037 0.0
C559 C 0.42098 0.70483 0.33554 0.0
C560 C 0.46263 0.71683 0.34184 0.0
C561 C 0.47342 0.68792 0.31369 0.0
C562 C 0.50612 0.71213 0.27336 0.0
C563 C 0.48829 0.66538 0.34888 0.0
C564 C 0.43116 0.65755 0.29154 0.0
C565 C 0.40159 0.66834 0.30411 0.0
C566 C 0.35998 0.64438 0.28968 0.0
C567 C 0.34806 0.608 0.26198 0.0
C568 C 0.3776 0.59576 0.24936 0.0
C569 C 0.4198 0.62126 0.26397 0.0
H570 H 0.77384 0.37137 0.48002 0.0
H571 H 0.85904 0.47812 0.38984 0.0
H572 H 0.83274 0.52093 0.42855 0.0
H573 H 0.68785 0.39001 0.47715 0.0
H574 H 0.67271 0.37451 0.54033 0.0
H575 H 0.69838 0.35212 0.50568 0.0
H576 H 0.75579 0.37673 0.57274 0.0
H577 H 0.73023 0.39914 0.60762 0.0
H578 H 0.78437 0.4314 0.59011 0.0
H579 H 0.7959 0.55179 0.4753 0.0
H580 H 0.75281 0.56903 0.52965 0.0
H581 H 0.69328 0.44282 0.59049 0.0
C582 C 0.78697 0.40373 0.46841 0.0
C583 C 0.81843 0.4213 0.43183 0.0
C584 C 0.83497 0.46391 0.4179 0.0
C585 C 0.82021 0.48854 0.43958 0.0
C586 C 0.78911 0.47023 0.47538 0.0
C587 C 0.77286 0.42892 0.48997 0.0
C588 C 0.73993 0.41705 0.52963 0.0
C589 C 0.69719 0.38131 0.51213 0.0
C590 C 0.75341 0.40541 0.57788 0.0
C591 C 0.74 0.45801 0.53466 0.0
C592 C 0.76848 0.48828 0.50299 0.0
C593 C 0.77359 0.52842 0.50047 0.0
C594 C 0.74893 0.53788 0.53136 0.0
C595 C 0.71979 0.50737 0.56441 0.0
C596 C 0.71545 0.46699 0.56589 0.0
H597 H 0.39284 0.79606 0.63909 0.0
H598 H 0.36582 0.87315 0.54233 0.0
H599 H 0.29654 0.84533 0.58236 0.0
H600 H 0.29139 0.70635 0.64028 0.0
H601 H 0.29376 0.69462 0.70429 0.0
H602 H 0.34108 0.72142 0.6684 0.0
H603 H 0.37224 0.78228 0.7321 0.0
H604 H 0.32498 0.75563 0.76821 0.0
H605 H 0.3438 0.80868 0.74752 0.0
H606 H 0.2286 0.80619 0.63212 0.0
H607 H 0.1698 0.76116 0.6882 0.0
H608 H 0.24452 0.71247 0.75176 0.0
C609 C 0.37246 0.80718 0.62614 0.0
C610 C 0.38461 0.83658 0.58742 0.0
C611 C 0.3571 0.85059 0.57201 0.0
C612 C 0.31772 0.83497 0.59447 0.0
C613 C 0.3067 0.80576 0.63247 0.0
C614 C 0.3335 0.79231 0.64827 0.0
C615 C 0.31468 0.76084 0.68966 0.0
C616 C 0.30994 0.7183 0.67474 0.0
C617 C 0.34046 0.77789 0.73717 0.0
C618 C 0.27277 0.75813 0.69436 0.0
C619 C 0.2685 0.78417 0.66124 0.0
C620 C 0.23173 0.78588 0.65841 0.0
C621 C 0.19852 0.76019 0.69031 0.0
C622 C 0.20256 0.73338 0.72447 0.0
C623 C 0.24034 0.73272 0.72636 0.0
loop_
_geom_bond_atom_site_label_1
_geom_bond_atom_site_label_2
_geom_bond_distance
_geom_bond_site_symmetry_2
_ccdc_geom_bond_type
O0 Zn1 1.953 . S
O0 C16 1.225 . S
Zn1 O0 1.953 . S
Zn1 O2 1.949 . S
Zn1 O8 1.919 1_554 S
Zn1 O13 1.924 . S
O2 Zn1 1.949 . S
O2 Zn3 1.923 1_554 S
O2 Zn4 1.950 . S
O2 Zn5 1.945 . S
Zn3 O2 1.923 1_556 S
Zn3 O6 1.933 . S
Zn3 O9 1.941 . S
Zn3 O10 1.965 . S
Zn4 O2 1.950 . S
Zn4 O11 1.938 . S
Zn4 O12 1.906 . S
Zn4 O22 1.953 . S
Zn5 O2 1.945 . S
Zn5 O7 1.932 1_554 S
Zn5 O14 1.977 . S
Zn5 O15 1.910 . S
O6 Zn3 1.933 . S
O6 C17 1.226 . S
O7 Zn5 1.932 1_556 S
O7 C17 1.307 . S
O8 Zn1 1.919 1_556 S
O8 C19 1.253 . S
O9 Zn3 1.941 . S
O9 C19 1.283 . S
O10 Zn3 1.965 . S
O10 C18 1.303 . S
O11 Zn4 1.938 . S
O11 C18 1.247 1_554 S
O12 Zn4 1.906 . S
O12 C20 1.304 . S
O13 Zn1 1.924 . S
O13 C21 1.311 . S
O14 Zn5 1.977 . S
O14 C20 1.272 . S
O15 Zn5 1.910 . S
O15 C21 1.231 . S
C16 O0 1.225 . S
C16 O22 1.298 . S
C17 O6 1.226 . S
C17 O7 1.307 . S
C18 O10 1.303 . S
C18 O11 1.247 1_556 S
C19 O8 1.253 . S
C19 O9 1.283 . S
C20 O12 1.304 . S
C20 O14 1.272 . S
C21 O13 1.311 . S
C21 O15 1.231 . S
O22 Zn4 1.953 . S
O22 C16 1.298 . S
O23 Zn24 1.953 . S
O23 C39 1.225 . S
Zn24 O23 1.953 . S
Zn24 O25 1.949 . S
Zn24 O31 1.919 . S
Zn24 O36 1.924 . S
O25 Zn24 1.949 . S
O25 Zn26 1.923 . S
O25 Zn27 1.950 . S
O25 Zn28 1.945 . S
Zn26 O25 1.923 . S
Zn26 O29 1.933 . S
Zn26 O32 1.941 . S
Zn26 O33 1.965 . S
Zn27 O25 1.950 . S
Zn27 O34 1.938 . S
Zn27 O35 1.906 . S
Zn27 O45 1.953 . S
Zn28 O25 1.945 . S
Zn28 O30 1.932 . S
Zn28 O37 1.977 . S
Zn28 O38 1.910 . S
O29 Zn26 1.933 . S
O29 C40 1.226 . S
O30 Zn28 1.932 . S
O30 C40 1.307 . S
O31 Zn24 1.919 . S
O31 C42 1.253 . S
O32 Zn26 1.941 . S
O32 C42 1.283 . S
O33 Zn26 1.965 . S
O33 C41 1.303 . S
O34 Zn27 1.938 . S
O34 C41 1.247 . S
O35 Zn27 1.906 . S
O35 C43 1.304 . S
O36 Zn24 1.924 . S
O36 C44 1.311 . S
O37 Zn28 1.977 . S
O37 C43 1.272 . S
O38 Zn28 1.910 . S
O38 C44 1.231 . S
C39 O23 1.225 . S
C39 O45 1.298 . S
C40 O29 1.226 . S
C40 O30 1.307 . S
C41 O33 1.303 . S
C41 O34 1.247 . S
C42 O31 1.253 . S
C42 O32 1.283 . S
C43 O35 1.304 . S
C43 O37 1.272 . S
C44 O36 1.311 . S
C44 O38 1.231 . S
O45 Zn27 1.953 . S
O45 C39 1.298 . S
O46 Zn47 1.953 . S
O46 C62 1.225 . S
Zn47 O46 1.953 . S
Zn47 O48 1.949 . S
Zn47 O54 1.919 . S
Zn47 O59 1.924 . S
O48 Zn47 1.949 . S
O48 Zn49 1.923 . S
O48 Zn50 1.950 . S
O48 Zn51 1.945 . S
Zn49 O48 1.923 . S
Zn49 O52 1.933 . S
Zn49 O55 1.941 . S
Zn49 O56 1.965 . S
Zn50 O48 1.950 . S
Zn50 O57 1.938 . S
Zn50 O58 1.906 . S
Zn50 O68 1.953 . S
Zn51 O48 1.945 . S
Zn51 O53 1.932 . S
Zn51 O60 1.977 . S
Zn51 O61 1.910 . S
O52 Zn49 1.933 . S
O52 C63 1.226 . S
O53 Zn51 1.932 . S
O53 C63 1.307 . S
O54 Zn47 1.919 . S
O54 C65 1.253 . S
O55 Zn49 1.941 . S
O55 C65 1.283 . S
O56 Zn49 1.965 . S
O56 C64 1.303 . S
O57 Zn50 1.938 . S
O57 C64 1.247 . S
O58 Zn50 1.906 . S
O58 C66 1.304 . S
O59 Zn47 1.924 . S
O59 C67 1.311 . S
O60 Zn51 1.977 . S
O60 C66 1.272 . S
O61 Zn51 1.910 . S
O61 C67 1.231 . S
C62 O46 1.225 . S
C62 O68 1.298 . S
C63 O52 1.226 . S
C63 O53 1.307 . S
C64 O56 1.303 . S
C64 O57 1.247 . S
C65 O54 1.253 . S
C65 O55 1.283 . S
C66 O58 1.304 . S
C66 O60 1.272 . S
C67 O59 1.311 . S
C67 O61 1.231 . S
O68 Zn50 1.953 . S
O68 C62 1.298 . S
O69 Zn70 1.953 . S
O69 C85 1.225 . S
Zn70 O69 1.953 . S
Zn70 O71 1.949 . S
Zn70 O77 1.919 . S
Zn70 O82 1.924 . S
O71 Zn70 1.949 . S
O71 Zn72 1.923 . S
O71 Zn73 1.950 . S
O71 Zn74 1.945 . S
Zn72 O71 1.923 . S
Zn72 O75 1.933 . S
Zn72 O78 1.941 . S
Zn72 O79 1.965 . S
Zn73 O71 1.950 . S
Zn73 O80 1.938 . S
Zn73 O81 1.906 . S
Zn73 O91 1.953 . S
Zn74 O71 1.945 . S
Zn74 O76 1.932 . S
Zn74 O83 1.977 . S
Zn74 O84 1.910 . S
O75 Zn72 1.933 . S
O75 C86 1.226 . S
O76 Zn74 1.932 . S
O76 C86 1.307 . S
O77 Zn70 1.919 . S
O77 C88 1.253 . S
O78 Zn72 1.941 . S
O78 C88 1.283 . S
O79 Zn72 1.965 . S
O79 C87 1.303 . S
O80 Zn73 1.938 . S
O80 C87 1.247 . S
O81 Zn73 1.906 . S
O81 C89 1.304 . S
O82 Zn70 1.924 . S
O82 C90 1.311 . S
O83 Zn74 1.977 . S
O83 C89 1.272 . S
O84 Zn74 1.910 . S
O84 C90 1.231 . S
C85 O69 1.225 . S
C85 O91 1.298 . S
C86 O75 1.226 . S
C86 O76 1.307 . S
C87 O79 1.303 . S
C87 O80 1.247 . S
C88 O77 1.253 . S
C88 O78 1.283 . S
C89 O81 1.304 . S
C89 O83 1.272 . S
C90 O82 1.311 . S
C90 O84 1.231 . S
O91 Zn73 1.953 . S
O91 C85 1.298 . S
O92 Zn93 1.953 . S
O92 C108 1.225 . S
Zn93 O92 1.953 . S
Zn93 O94 1.949 . S
Zn93 O100 1.919 . S
Zn93 O105 1.924 . S
O94 Zn93 1.949 . S
O94 Zn95 1.923 . S
O94 Zn96 1.950 . S
O94 Zn97 1.945 . S
Zn95 O94 1.923 . S
Zn95 O98 1.933 . S
Zn95 O101 1.941 . S
Zn95 O102 1.965 . S
Zn96 O94 1.950 . S
Zn96 O103 1.938 . S
Zn96 O104 1.906 . S
Zn96 O114 1.953 . S
Zn97 O94 1.945 . S
Zn97 O99 1.932 . S
Zn97 O106 1.977 . S
Zn97 O107 1.910 . S
O98 Zn95 1.933 . S
O98 C109 1.226 . S
O99 Zn97 1.932 . S
O99 C109 1.307 . S
O100 Zn93 1.919 . S
O100 C111 1.253 . S
O101 Zn95 1.941 . S
O101 C111 1.283 . S
O102 Zn95 1.965 . S
O102 C110 1.303 . S
O103 Zn96 1.938 . S
O103 C110 1.247 . S
O104 Zn96 1.906 . S
O104 C112 1.304 . S
O105 Zn93 1.924 . S
O105 C113 1.311 . S
O106 Zn97 1.977 . S
O106 C112 1.272 . S
O107 Zn97 1.910 . S
O107 C113 1.231 . S
C108 O92 1.225 . S
C108 O114 1.298 . S
C109 O98 1.226 . S
C109 O99 1.307 . S
C110 O102 1.303 . S
C110 O103 1.247 . S
C111 O100 1.253 . S
C111 O101 1.283 . S
C112 O104 1.304 . S
C112 O106 1.272 . S
C113 O105 1.311 . S
C113 O107 1.231 . S
O114 Zn96 1.953 . S
O114 C108 1.298 . S
O115 Zn116 1.953 . S
O115 C131 1.225 . S
Zn116 O115 1.953 . S
Zn116 O117 1.949 . S
Zn116 O123 1.919 . S
Zn116 O128 1.924 . S
O117 Zn116 1.949 . S
O117 Zn118 1.923 . S
O117 Zn119 1.950 . S
O117 Zn120 1.945 . S
Zn118 O117 1.923 . S
Zn118 O121 1.933 . S
Zn118 O124 1.941 . S
Zn118 O125 1.965 . S
Zn119 O117 1.950 . S
Zn119 O126 1.938 . S
Zn119 O127 1.906 . S
Zn119 O137 1.953 . S
Zn120 O117 1.945 . S
Zn120 O122 1.932 . S
Zn120 O129 1.977 . S
Zn120 O130 1.910 . S
O121 Zn118 1.933 . S
O121 C132 1.226 . S
O122 Zn120 1.932 . S
O122 C132 1.307 . S
O123 Zn116 1.919 . S
O123 C134 1.253 . S
O124 Zn118 1.941 . S
O124 C134 1.283 . S
O125 Zn118 1.965 . S
O125 C133 1.303 . S
O126 Zn119 1.938 . S
O126 C133 1.247 . S
O127 Zn119 1.906 . S
O127 C135 1.304 . S
O128 Zn116 1.924 . S
O128 C136 1.311 . S
O129 Zn120 1.977 . S
O129 C135 1.272 . S
O130 Zn120 1.910 . S
O130 C136 1.231 . S
C131 O115 1.225 . S
C131 O137 1.298 . S
C132 O121 1.226 . S
C132 O122 1.307 . S
C133 O125 1.303 . S
C133 O126 1.247 . S
C134 O123 1.253 . S
C134 O124 1.283 . S
C135 O127 1.304 . S
C135 O129 1.272 . S
C136 O128 1.311 . S
C136 O130 1.231 . S
O137 Zn119 1.953 . S
O137 C131 1.298 . S
H138 C150 0.930 . S
H139 C152 0.930 . S
H140 C153 0.930 . S
H141 C157 0.959 . S
H142 C157 0.959 . S
H143 C157 0.961 . S
H144 C158 0.960 . S
H145 C158 0.961 . S
H146 C158 0.959 . S
H147 C161 0.929 1_554 S
H148 C162 0.931 . S
H149 C164 0.930 . S
C150 H138 0.930 . S
C150 C151 1.399 . S
C150 C155 1.399 . S
C151 C150 1.399 . S
C151 C152 1.376 1_556 S
C152 H139 0.930 . S
C152 C151 1.376 1_554 S
C152 C153 1.388 . S
C153 H140 0.930 . S
C153 C152 1.388 . S
C153 C154 1.390 1_554 S
C154 C153 1.390 1_556 S
C154 C155 1.394 . S
C154 C160 1.465 . S
C155 C150 1.399 . S
C155 C154 1.394 . S
C155 C156 1.516 . S
C156 C155 1.516 . S
C156 C157 1.502 . S
C156 C158 1.561 . S
C156 C159 1.526 . S
C157 H141 0.959 . S
C157 H142 0.959 . S
C157 H143 0.961 . S
C157 C156 1.502 . S
C158 H144 0.960 . S
C158 H145 0.961 . S
C158 H146 0.959 . S
C158 C156 1.561 . S
C159 C156 1.526 . S
C159 C160 1.396 . S
C159 C164 1.390 . S
C160 C154 1.465 . S
C160 C159 1.396 . S
C160 C161 1.399 . S
C161 H147 0.929 1_556 S
C161 C160 1.399 . S
C161 C162 1.385 . S
C162 H148 0.931 . S
C162 C161 1.385 . S
C162 C163 1.389 . S
C163 C162 1.389 . S
C163 C164 1.387 . S
C164 H149 0.930 . S
C164 C159 1.390 . S
C164 C163 1.387 . S
H165 C177 0.930 . S
H166 C179 0.930 . S
H167 C180 0.930 . S
H168 C184 0.959 . S
H169 C184 0.959 . S
H170 C184 0.961 . S
H171 C185 0.960 . S
H172 C185 0.961 1_556 S
H173 C185 0.959 . S
H174 C188 0.929 . S
H175 C189 0.931 . S
H176 C191 0.930 . S
C177 H165 0.930 . S
C177 C178 1.399 . S
C177 C182 1.399 . S
C178 C177 1.399 . S
C178 C179 1.376 . S
C179 H166 0.930 . S
C179 C178 1.376 . S
C179 C180 1.388 . S
C180 H167 0.930 . S
C180 C179 1.388 . S
C180 C181 1.390 . S
C181 C180 1.390 . S
C181 C182 1.394 . S
C181 C187 1.465 . S
C182 C177 1.399 . S
C182 C181 1.394 . S
C182 C183 1.516 . S
C183 C182 1.516 . S
C183 C184 1.502 . S
C183 C185 1.561 . S
C183 C186 1.526 . S
C184 H168 0.959 . S
C184 H169 0.959 . S
C184 H170 0.961 . S
C184 C183 1.502 . S
C185 H171 0.960 . S
C185 H172 0.961 1_554 S
C185 H173 0.959 . S
C185 C183 1.561 . S
C186 C183 1.526 . S
C186 C187 1.396 . S
C186 C191 1.390 . S
C187 C181 1.465 . S
C187 C186 1.396 . S
C187 C188 1.399 . S
C188 H174 0.929 . S
C188 C187 1.399 . S
C188 C189 1.385 . S
C189 H175 0.931 . S
C189 C188 1.385 . S
C189 C190 1.389 . S
C190 C189 1.389 . S
C190 C191 1.387 . S
C191 H176 0.930 . S
C191 C186 1.390 . S
C191 C190 1.387 . S
H192 C204 0.930 . S
H193 C206 0.930 1_655 S
H194 C207 0.930 . S
H195 C211 0.959 . S
H196 C211 0.959 . S
H197 C211 0.961 . S
H198 C212 0.960 . S
H199 C212 0.961 . S
H200 C212 0.959 . S
H201 C215 0.929 . S
H202 C216 0.931 . S
H203 C218 0.930 . S
C204 H192 0.930 . S
C204 C205 1.407 . S
C204 C209 1.399 . S
C205 C204 1.407 . S
C205 C206 1.380 . S
C206 H193 0.930 1_455 S
C206 C205 1.380 . S
C206 C207 1.388 . S
C207 H194 0.930 . S
C207 C206 1.388 . S
C207 C208 1.390 . S
C208 C207 1.390 . S
C208 C209 1.394 . S
C208 C214 1.465 . S
C209 C204 1.399 . S
C209 C208 1.394 . S
C209 C210 1.516 . S
C210 C209 1.516 . S
C210 C211 1.502 . S
C210 C212 1.561 . S
C210 C213 1.526 . S
C211 H195 0.959 . S
C211 H196 0.959 . S
C211 H197 0.961 . S
C211 C210 1.502 . S
C212 H198 0.960 . S
C212 H199 0.961 . S
C212 H200 0.959 . S
C212 C210 1.561 . S
C213 C210 1.526 . S
C213 C214 1.396 . S
C213 C218 1.390 . S
C214 C208 1.465 . S
C214 C213 1.396 . S
C214 C215 1.399 . S
C215 H201 0.929 . S
C215 C214 1.399 . S
C215 C216 1.385 . S
C216 H202 0.931 . S
C216 C215 1.385 . S
C216 C217 1.389 . S
C217 C216 1.389 . S
C217 C218 1.387 . S
C218 H203 0.930 . S
C218 C213 1.390 . S
C218 C217 1.387 . S
H219 C231 0.930 . S
H220 C233 0.930 . S
H221 C234 0.930 . S
H222 C238 0.959 . S
H223 C238 0.959 . S
H224 C238 0.961 . S
H225 C239 0.960 . S
H226 C239 0.961 . S
H227 C239 0.959 . S
H228 C242 0.929 . S
H229 C243 0.931 . S
H230 C245 0.930 . S
C231 H219 0.930 . S
C231 C232 1.399 . S
C231 C236 1.399 . S
C232 C231 1.399 . S
C232 C233 1.376 . S
C233 H220 0.930 . S
C233 C232 1.376 . S
C233 C234 1.388 . S
C234 H221 0.930 . S
C234 C233 1.388 . S
C234 C235 1.390 . S
C235 C234 1.390 . S
C235 C236 1.394 . S
C235 C241 1.465 . S
C236 C231 1.399 . S
C236 C235 1.394 . S
C236 C237 1.516 . S
C237 C236 1.516 . S
C237 C238 1.502 . S
C237 C239 1.561 . S
C237 C240 1.526 . S
C238 H222 0.959 . S
C238 H223 0.959 . S
C238 H224 0.961 . S
C238 C237 1.502 . S
C239 H225 0.960 . S
C239 H226 0.961 . S
C239 H227 0.959 . S
C239 C237 1.561 . S
C240 C237 1.526 . S
C240 C241 1.396 . S
C240 C245 1.390 . S
C241 C235 1.465 . S
C241 C240 1.396 . S
C241 C242 1.399 . S
C242 H228 0.929 . S
C242 C241 1.399 . S
C242 C243 1.385 . S
C243 H229 0.931 . S
C243 C242 1.385 . S
C243 C244 1.389 . S
C244 C243 1.389 . S
C244 C245 1.387 . S
C245 H230 0.930 . S
C245 C240 1.390 . S
C245 C244 1.387 . S
H246 C258 0.930 . S
H247 C260 0.930 . S
H248 C261 0.930 . S
H249 C265 0.959 . S
H250 C265 0.959 . S
H251 C265 0.961 . S
H252 C266 0.960 . S
H253 C266 0.961 . S
H254 C266 0.959 . S
H255 C269 0.929 . S
H256 C270 0.931 . S
H257 C272 0.930 . S
C258 H246 0.930 . S
C258 C259 1.399 . S
C258 C263 1.399 . S
C259 C258 1.399 . S
C259 C260 1.376 . S
C260 H247 0.930 . S
C260 C259 1.376 . S
C260 C261 1.388 . S
C261 H248 0.930 . S
C261 C260 1.388 . S
C261 C262 1.390 . S
C262 C261 1.390 . S
C262 C263 1.394 . S
C262 C268 1.465 . S
C263 C258 1.399 . S
C263 C262 1.394 . S
C263 C264 1.516 . S
C264 C263 1.516 . S
C264 C265 1.502 . S
C264 C266 1.561 . S
C264 C267 1.526 . S
C265 H249 0.959 . S
C265 H250 0.959 . S
C265 H251 0.961 . S
C265 C264 1.502 . S
C266 H252 0.960 . S
C266 H253 0.961 . S
C266 H254 0.959 . S
C266 C264 1.561 . S
C267 C264 1.526 . S
C267 C268 1.396 . S
C267 C272 1.390 . S
C268 C262 1.465 . S
C268 C267 1.396 . S
C268 C269 1.399 . S
C269 H255 0.929 . S
C269 C268 1.399 . S
C269 C270 1.385 . S
C270 H256 0.931 . S
C270 C269 1.385 . S
C270 C271 1.389 . S
C271 C270 1.389 . S
C271 C272 1.387 . S
C272 H257 0.930 . S
C272 C267 1.390 . S
C272 C271 1.387 . S
H273 C285 0.930 . S
H274 C287 0.930 . S
H275 C288 0.930 . S
H276 C292 0.959 . S
H277 C292 0.959 . S
H278 C292 0.961 . S
H279 C293 0.960 . S
H280 C293 0.961 . S
H281 C293 0.959 . S
H282 C296 0.929 . S
H283 C297 0.931 . S
H284 C299 0.930 . S
C285 H273 0.930 . S
C285 C286 1.399 . S
C285 C290 1.399 . S
C286 C285 1.399 . S
C286 C287 1.376 . S
C287 H274 0.930 . S
C287 C286 1.376 . S
C287 C288 1.388 . S
C288 H275 0.930 . S
C288 C287 1.388 . S
C288 C289 1.390 . S
C289 C288 1.390 . S
C289 C290 1.394 . S
C289 C295 1.465 . S
C290 C285 1.399 . S
C290 C289 1.394 . S
C290 C291 1.516 . S
C291 C290 1.516 . S
C291 C292 1.502 . S
C291 C293 1.561 . S
C291 C294 1.526 . S
C292 H276 0.959 . S
C292 H277 0.959 . S
C292 H278 0.961 . S
C292 C291 1.502 . S
C293 H279 0.960 . S
C293 H280 0.961 . S
C293 H281 0.959 . S
C293 C291 1.561 . S
C294 C291 1.526 . S
C294 C295 1.396 . S
C294 C299 1.390 . S
C295 C289 1.465 . S
C295 C294 1.396 . S
C295 C296 1.399 . S
C296 H282 0.929 . S
C296 C295 1.399 . S
C296 C297 1.385 . S
C297 H283 0.931 . S
C297 C296 1.385 . S
C297 C298 1.389 . S
C298 C297 1.389 . S
C298 C299 1.387 . S
C299 H284 0.930 . S
C299 C294 1.390 . S
C299 C298 1.387 . S
H300 C312 0.930 . S
H301 C314 0.930 . S
H302 C315 0.930 . S
H303 C319 0.959 . S
H304 C319 0.959 . S
H305 C319 0.961 . S
H306 C320 0.960 . S
H307 C320 0.961 . S
H308 C320 0.959 . S
H309 C323 0.929 . S
H310 C324 0.931 . S
H311 C326 0.930 . S
C312 H300 0.930 . S
C312 C313 1.399 . S
C312 C317 1.399 1_545 S
C313 C312 1.399 . S
C313 C314 1.376 1_545 S
C314 H301 0.930 . S
C314 C313 1.376 1_565 S
C314 C315 1.388 . S
C315 H302 0.930 . S
C315 C314 1.388 . S
C315 C316 1.390 . S
C316 C315 1.390 . S
C316 C317 1.394 . S
C316 C322 1.465 . S
C317 C312 1.399 1_565 S
C317 C316 1.394 . S
C317 C318 1.517 . S
C318 C317 1.517 . S
C318 C319 1.499 1_565 S
C318 C320 1.561 . S
C318 C321 1.529 . S
C319 H303 0.959 . S
C319 H304 0.959 . S
C319 H305 0.961 . S
C319 C318 1.499 1_545 S
C320 H306 0.960 . S
C320 H307 0.961 . S
C320 H308 0.959 . S
C320 C318 1.561 . S
C321 C318 1.529 . S
C321 C322 1.396 . S
C321 C326 1.390 . S
C322 C316 1.465 . S
C322 C321 1.396 . S
C322 C323 1.399 . S
C323 H309 0.929 . S
C323 C322 1.399 . S
C323 C324 1.385 . S
C324 H310 0.931 . S
C324 C323 1.385 . S
C324 C325 1.389 . S
C325 C324 1.389 . S
C325 C326 1.387 . S
C326 H311 0.930 . S
C326 C321 1.390 . S
C326 C325 1.387 . S
H327 C339 0.930 . S
H328 C341 0.930 . S
H329 C342 0.930 . S
H330 C346 0.959 . S
H331 C346 0.959 . S
H332 C346 0.961 . S
H333 C347 0.960 . S
H334 C347 0.961 . S
H335 C347 0.959 . S
H336 C350 0.929 . S
H337 C351 0.931 . S
H338 C353 0.930 . S
C339 H327 0.930 . S
C339 C340 1.399 . S
C339 C344 1.399 . S
C340 C339 1.399 . S
C340 C341 1.376 . S
C341 H328 0.930 . S
C341 C340 1.376 . S
C341 C342 1.388 . S
C342 H329 0.930 . S
C342 C341 1.388 . S
C342 C343 1.390 . S
C343 C342 1.390 . S
C343 C344 1.394 . S
C343 C349 1.465 . S
C344 C339 1.399 . S
C344 C343 1.394 . S
C344 C345 1.516 . S
C345 C344 1.516 . S
C345 C346 1.502 . S
C345 C347 1.561 . S
C345 C348 1.526 . S
C346 H330 0.959 . S
C346 H331 0.959 . S
C346 H332 0.961 . S
C346 C345 1.502 . S
C347 H333 0.960 . S
C347 H334 0.961 . S
C347 H335 0.959 . S
C347 C345 1.561 . S
C348 C345 1.526 . S
C348 C349 1.396 . S
C348 C353 1.390 . S
C349 C343 1.465 . S
C349 C348 1.396 . S
C349 C350 1.399 . S
C350 H336 0.929 . S
C350 C349 1.399 . S
C350 C351 1.385 . S
C351 H337 0.931 . S
C351 C350 1.385 . S
C351 C352 1.389 . S
C352 C351 1.389 . S
C352 C353 1.387 . S
C353 H338 0.930 . S
C353 C348 1.390 . S
C353 C352 1.387 . S
H354 C366 0.930 . S
H355 C368 0.930 . S
H356 C369 0.930 . S
H357 C373 0.959 . S
H358 C373 0.959 . S
H359 C373 0.961 . S
H360 C374 0.960 . S
H361 C374 0.961 . S
H362 C374 0.959 . S
H363 C377 0.929 . S
H364 C378 0.931 . S
H365 C380 0.930 . S
C366 H354 0.930 . S
C366 C367 1.399 . S
C366 C371 1.399 . S
C367 C366 1.399 . S
C367 C368 1.376 . S
C368 H355 0.930 . S
C368 C367 1.376 . S
C368 C369 1.388 . S
C369 H356 0.930 . S
C369 C368 1.388 . S
C369 C370 1.390 . S
C370 C369 1.390 . S
C370 C371 1.394 . S
C370 C376 1.465 . S
C371 C366 1.399 . S
C371 C370 1.394 . S
C371 C372 1.516 . S
C372 C371 1.516 . S
C372 C373 1.502 . S
C372 C374 1.561 1_455 S
C372 C375 1.526 . S
C373 H357 0.959 . S
C373 H358 0.959 . S
C373 H359 0.961 . S
C373 C372 1.502 . S
C374 H360 0.960 . S
C374 H361 0.961 . S
C374 H362 0.959 . S
C374 C372 1.561 1_655 S
C375 C372 1.526 . S
C375 C376 1.396 . S
C375 C380 1.390 1_455 S
C376 C370 1.465 . S
C376 C375 1.396 . S
C376 C377 1.399 1_455 S
C377 H363 0.929 . S
C377 C376 1.399 1_655 S
C377 C378 1.385 . S
C378 H364 0.931 . S
C378 C377 1.385 . S
C378 C379 1.389 . S
C379 C378 1.389 . S
C379 C380 1.387 . S
C380 H365 0.930 . S
C380 C375 1.390 1_655 S
C380 C379 1.387 . S
H381 C393 0.930 . S
H382 C395 0.930 . S
H383 C396 0.930 . S
H384 C400 0.959 . S
H385 C400 0.959 . S
H386 C400 0.961 . S
H387 C401 0.960 . S
H388 C401 0.961 . S
H389 C401 0.959 . S
H390 C404 0.929 . S
H391 C405 0.931 1_565 S
H392 C407 0.930 . S
C393 H381 0.930 . S
C393 C394 1.399 1_545 S
C393 C398 1.399 . S
C394 C393 1.399 1_565 S
C394 C395 1.376 . S
C395 H382 0.930 . S
C395 C394 1.376 . S
C395 C396 1.388 . S
C396 H383 0.930 . S
C396 C395 1.388 . S
C396 C397 1.390 . S
C397 C396 1.390 . S
C397 C398 1.394 1_565 S
C397 C403 1.465 1_565 S
C398 C393 1.399 . S
C398 C397 1.394 1_545 S
C398 C399 1.516 . S
C399 C398 1.516 . S
C399 C400 1.502 . S
C399 C401 1.561 . S
C399 C402 1.526 . S
C400 H384 0.959 . S
C400 H385 0.959 . S
C400 H386 0.961 . S
C400 C399 1.502 . S
C401 H387 0.960 . S
C401 H388 0.961 . S
C401 H389 0.959 . S
C401 C399 1.561 . S
C402 C399 1.526 . S
C402 C403 1.396 . S
C402 C407 1.390 . S
C403 C397 1.465 1_545 S
C403 C402 1.396 . S
C403 C404 1.399 1_545 S
C404 H390 0.929 . S
C404 C403 1.399 1_565 S
C404 C405 1.385 1_565 S
C405 H391 0.931 1_545 S
C405 C404 1.385 1_545 S
C405 C406 1.389 . S
C406 C405 1.389 . S
C406 C407 1.387 . S
C407 H392 0.930 . S
C407 C402 1.390 . S
C407 C406 1.387 . S
H408 C420 0.930 . S
H409 C422 0.930 . S
H410 C423 0.930 . S
H411 C427 0.959 . S
H412 C427 0.959 . S
H413 C427 0.961 . S
H414 C428 0.960 . S
H415 C428 0.961 . S
H416 C428 0.959 . S
H417 C431 0.929 . S
H418 C432 0.931 . S
H419 C434 0.930 . S
C420 H408 0.930 . S
C420 C421 1.399 . S
C420 C425 1.399 1_554 S
C421 C420 1.399 . S
C421 C422 1.376 . S
C422 H409 0.930 . S
C422 C421 1.376 . S
C422 C423 1.388 1_554 S
C423 H410 0.930 . S
C423 C422 1.388 1_556 S
C423 C424 1.390 . S
C424 C423 1.390 . S
C424 C425 1.394 . S
C424 C430 1.465 . S
C425 C420 1.399 1_556 S
C425 C424 1.394 . S
C425 C426 1.516 . S
C426 C425 1.516 . S
C426 C427 1.502 . S
C426 C428 1.561 . S
C426 C429 1.526 . S
C427 H411 0.959 . S
C427 H412 0.959 . S
C427 H413 0.961 . S
C427 C426 1.502 . S
C428 H414 0.960 . S
C428 H415 0.961 . S
C428 H416 0.959 . S
C428 C426 1.561 . S
C429 C426 1.526 . S
C429 C430 1.396 . S
C429 C434 1.390 . S
C430 C424 1.465 . S
C430 C429 1.396 . S
C430 C431 1.399 . S
C431 H417 0.929 . S
C431 C430 1.399 . S
C431 C432 1.385 . S
C432 H418 0.931 . S
C432 C431 1.385 . S
C432 C433 1.389 . S
C433 C432 1.389 . S
C433 C434 1.387 . S
C434 H419 0.930 . S
C434 C429 1.390 . S
C434 C433 1.387 . S
H435 C447 0.930 1_556 S
H436 C449 0.930 . S
H437 C450 0.930 . S
H438 C454 0.959 . S
H439 C454 0.959 . S
H440 C454 0.961 . S
H441 C455 0.960 . S
H442 C455 0.961 . S
H443 C455 0.959 . S
H444 C458 0.929 1_455 S
H445 C459 0.931 . S
H446 C461 0.930 . S
C447 H435 0.930 1_554 S
C447 C448 1.399 1_654 S
C447 C452 1.399 . S
C448 C447 1.399 1_456 S
C448 C449 1.376 1_556 S
C449 H436 0.930 . S
C449 C448 1.376 1_554 S
C449 C450 1.388 . S
C450 H437 0.930 . S
C450 C449 1.388 . S
C450 C451 1.390 . S
C451 C450 1.390 . S
C451 C452 1.394 1_455 S
C451 C457 1.465 1_455 S
C452 C447 1.399 . S
C452 C451 1.394 1_655 S
C452 C453 1.516 . S
C453 C452 1.516 . S
C453 C454 1.502 . S
C453 C455 1.561 . S
C453 C456 1.526 . S
C454 H438 0.959 . S
C454 H439 0.959 . S
C454 H440 0.961 . S
C454 C453 1.502 . S
C455 H441 0.960 . S
C455 H442 0.961 . S
C455 H443 0.959 . S
C455 C453 1.561 . S
C456 C453 1.526 . S
C456 C457 1.396 . S
C456 C461 1.390 . S
C457 C451 1.465 1_655 S
C457 C456 1.396 . S
C457 C458 1.399 . S
C458 H444 0.929 1_655 S
C458 C457 1.399 . S
C458 C459 1.385 . S
C459 H445 0.931 . S
C459 C458 1.385 . S
C459 C460 1.389 . S
C460 C459 1.389 . S
C460 C461 1.387 . S
C461 H446 0.930 . S
C461 C456 1.390 . S
C461 C460 1.387 . S
H462 C474 0.930 . S
H463 C476 0.930 . S
H464 C477 0.930 . S
H465 C481 0.959 . S
H466 C481 0.959 . S
H467 C481 0.961 . S
H468 C482 0.960 . S
H469 C482 0.961 . S
H470 C482 0.959 . S
H471 C485 0.929 . S
H472 C486 0.931 . S
H473 C488 0.930 . S
C474 H462 0.930 . S
C474 C475 1.399 . S
C474 C479 1.399 . S
C475 C474 1.399 . S
C475 C476 1.376 . S
C476 H463 0.930 . S
C476 C475 1.376 . S
C476 C477 1.388 . S
C477 H464 0.930 . S
C477 C476 1.388 . S
C477 C478 1.390 . S
C478 C477 1.390 . S
C478 C479 1.394 . S
C478 C484 1.465 . S
C479 C474 1.399 . S
C479 C478 1.394 . S
C479 C480 1.516 . S
C480 C479 1.516 . S
C480 C481 1.502 . S
C480 C482 1.561 . S
C480 C483 1.526 . S
C481 H465 0.959 . S
C481 H466 0.959 . S
C481 H467 0.961 . S
C481 C480 1.502 . S
C482 H468 0.960 . S
C482 H469 0.961 . S
C482 H470 0.959 . S
C482 C480 1.561 . S
C483 C480 1.526 . S
C483 C484 1.396 . S
C483 C488 1.390 . S
C484 C478 1.465 . S
C484 C483 1.396 . S
C484 C485 1.399 . S
C485 H471 0.929 . S
C485 C484 1.399 . S
C485 C486 1.385 . S
C486 H472 0.931 . S
C486 C485 1.385 . S
C486 C487 1.389 . S
C487 C486 1.389 . S
C487 C488 1.387 . S
C488 H473 0.930 . S
C488 C483 1.390 . S
C488 C487 1.387 . S
H489 C501 0.930 . S
H490 C503 0.930 . S
H491 C504 0.930 . S
H492 C508 0.959 . S
H493 C508 0.959 1_554 S
H494 C508 0.961 . S
H495 C509 0.960 . S
H496 C509 0.961 . S
H497 C509 0.959 . S
H498 C512 0.929 . S
H499 C513 0.931 . S
H500 C515 0.930 . S
C501 H489 0.930 . S
C501 C502 1.399 . S
C501 C506 1.399 . S
C502 C501 1.399 . S
C502 C503 1.376 . S
C503 H490 0.930 . S
C503 C502 1.376 . S
C503 C504 1.388 . S
C504 H491 0.930 . S
C504 C503 1.388 . S
C504 C505 1.390 . S
C505 C504 1.390 . S
C505 C506 1.394 . S
C505 C511 1.465 . S
C506 C501 1.399 . S
C506 C505 1.394 . S
C506 C507 1.516 1_556 S
C507 C506 1.516 1_554 S
C507 C508 1.502 1_554 S
C507 C509 1.561 . S
C507 C510 1.526 . S
C508 H492 0.959 . S
C508 H493 0.959 1_556 S
C508 H494 0.961 . S
C508 C507 1.502 1_556 S
C509 H495 0.960 . S
C509 H496 0.961 . S
C509 H497 0.959 . S
C509 C507 1.561 . S
C510 C507 1.526 . S
C510 C511 1.396 1_554 S
C510 C515 1.390 . S
C511 C505 1.465 . S
C511 C510 1.396 1_556 S
C511 C512 1.399 . S
C512 H498 0.929 . S
C512 C511 1.399 . S
C512 C513 1.385 1_556 S
C513 H499 0.931 . S
C513 C512 1.385 1_554 S
C513 C514 1.389 . S
C514 C513 1.389 . S
C514 C515 1.387 . S
C515 H500 0.930 . S
C515 C510 1.390 . S
C515 C514 1.387 . S
H516 C528 0.930 . S
H517 C530 0.930 . S
H518 C531 0.930 . S
H519 C535 0.959 . S
H520 C535 0.959 . S
H521 C535 0.961 . S
H522 C536 0.960 . S
H523 C536 0.961 . S
H524 C536 0.959 . S
H525 C539 0.929 . S
H526 C540 0.931 . S
H527 C542 0.930 . S
C528 H516 0.930 . S
C528 C529 1.399 . S
C528 C533 1.399 . S
C529 C528 1.399 . S
C529 C530 1.376 . S
C530 H517 0.930 . S
C530 C529 1.376 . S
C530 C531 1.388 . S
C531 H518 0.930 . S
C531 C530 1.388 . S
C531 C532 1.390 . S
C532 C531 1.390 . S
C532 C533 1.394 . S
C532 C538 1.465 . S
C533 C528 1.399 . S
C533 C532 1.394 . S
C533 C534 1.516 . S
C534 C533 1.516 . S
C534 C535 1.502 . S
C534 C536 1.561 . S
C534 C537 1.526 . S
C535 H519 0.959 . S
C535 H520 0.959 . S
C535 H521 0.961 . S
C535 C534 1.502 . S
C536 H522 0.960 . S
C536 H523 0.961 . S
C536 H524 0.959 . S
C536 C534 1.561 . S
C537 C534 1.526 . S
C537 C538 1.396 . S
C537 C542 1.390 . S
C538 C532 1.465 . S
C538 C537 1.396 . S
C538 C539 1.399 . S
C539 H525 0.929 . S
C539 C538 1.399 . S
C539 C540 1.385 . S
C540 H526 0.931 . S
C540 C539 1.385 . S
C540 C541 1.389 . S
C541 C540 1.389 . S
C541 C542 1.387 . S
C542 H527 0.930 . S
C542 C537 1.390 . S
C542 C541 1.387 . S
H543 C555 0.930 . S
H544 C557 0.930 . S
H545 C558 0.930 . S
H546 C562 0.959 . S
H547 C562 0.959 . S
H548 C562 0.961 . S
H549 C563 0.960 . S
H550 C563 0.961 . S
H551 C563 0.959 . S
H552 C566 0.929 . S
H553 C567 0.931 . S
H554 C569 0.930 . S
C555 H543 0.930 . S
C555 C556 1.399 . S
C555 C560 1.399 . S
C556 C555 1.399 . S
C556 C557 1.376 . S
C557 H544 0.930 . S
C557 C556 1.376 . S
C557 C558 1.388 . S
C558 H545 0.930 . S
C558 C557 1.388 . S
C558 C559 1.390 . S
C559 C558 1.390 . S
C559 C560 1.394 . S
C559 C565 1.465 . S
C560 C555 1.399 . S
C560 C559 1.394 . S
C560 C561 1.516 . S
C561 C560 1.516 . S
C561 C562 1.502 . S
C561 C563 1.561 . S
C561 C564 1.526 . S
C562 H546 0.959 . S
C562 H547 0.959 . S
C562 H548 0.961 . S
C562 C561 1.502 . S
C563 H549 0.960 . S
C563 H550 0.961 . S
C563 H551 0.959 . S
C563 C561 1.561 . S
C564 C561 1.526 . S
C564 C565 1.396 . S
C564 C569 1.390 . S
C565 C559 1.465 . S
C565 C564 1.396 . S
C565 C566 1.399 . S
C566 H552 0.929 . S
C566 C565 1.399 . S
C566 C567 1.385 . S
C567 H553 0.931 . S
C567 C566 1.385 . S
C567 C568 1.389 . S
C568 C567 1.389 . S
C568 C569 1.387 . S
C569 H554 0.930 . S
C569 C564 1.390 . S
C569 C568 1.387 . S
H570 C582 0.930 . S
H571 C584 0.930 . S
H572 C585 0.930 . S
H573 C589 0.959 . S
H574 C589 0.959 . S
H575 C589 0.961 . S
H576 C590 0.960 . S
H577 C590 0.961 . S
H578 C590 0.959 . S
H579 C593 0.929 . S
H580 C594 0.931 . S
H581 C596 0.930 . S
C582 H570 0.930 . S
C582 C583 1.399 . S
C582 C587 1.399 . S
C583 C582 1.399 . S
C583 C584 1.376 . S
C584 H571 0.930 . S
C584 C583 1.376 . S
C584 C585 1.388 . S
C585 H572 0.930 . S
C585 C584 1.388 . S
C585 C586 1.390 . S
C586 C585 1.390 . S
C586 C587 1.394 . S
C586 C592 1.465 . S
C587 C582 1.399 . S
C587 C586 1.394 . S
C587 C588 1.516 . S
C588 C587 1.516 . S
C588 C589 1.502 . S
C588 C590 1.561 . S
C588 C591 1.526 . S
C589 H573 0.959 . S
C589 H574 0.959 . S
C589 H575 0.961 . S
C589 C588 1.502 . S
C590 H576 0.960 . S
C590 H577 0.961 . S
C590 H578 0.959 . S
C590 C588 1.561 . S
C591 C588 1.526 . S
C591 C592 1.396 . S
C591 C596 1.390 . S
C592 C586 1.465 . S
C592 C591 1.396 . S
C592 C593 1.399 . S
C593 H579 0.929 . S
C593 C592 1.399 . S
C593 C594 1.385 . S
C594 H580 0.931 . S
C594 C593 1.385 . S
C594 C595 1.389 . S
C595 C594 1.389 . S
C595 C596 1.387 . S
C596 H581 0.930 . S
C596 C591 1.390 . S
C596 C595 1.387 . S
H597 C609 0.930 . S
H598 C611 0.930 . S
H599 C612 0.930 . S
H600 C616 0.959 . S
H601 C616 0.959 . S
H602 C616 0.961 . S
H603 C617 0.960 . S
H604 C617 0.961 . S
H605 C617 0.959 . S
H606 C620 0.929 . S
H607 C621 0.931 . S
H608 C623 0.930 . S
C609 H597 0.930 . S
C609 C610 1.399 . S
C609 C614 1.399 . S
C610 C609 1.399 . S
C610 C611 1.376 . S
C611 H598 0.930 . S
C611 C610 1.376 . S
C611 C612 1.388 . S
C612 H599 0.930 . S
C612 C611 1.388 . S
C612 C613 1.390 . S
C613 C612 1.390 . S
C613 C614 1.394 . S
C613 C619 1.465 . S
C614 C609 1.399 . S
C614 C613 1.394 . S
C614 C615 1.516 . S
C615 C614 1.516 . S
C615 C616 1.502 . S
C615 C617 1.561 . S
C615 C618 1.526 . S
C616 H600 0.959 . S
C616 H601 0.959 . S
C616 H602 0.961 . S
C616 C615 1.502 . S
C617 H603 0.960 . S
C617 H604 0.961 . S
C617 H605 0.959 . S
C617 C615 1.561 . S
C618 C615 1.526 . S
C618 C619 1.396 . S
C618 C623 1.390 . S
C619 C613 1.465 . S
C619 C618 1.396 . S
C619 C620 1.399 . S
C620 H606 0.929 . S
C620 C619 1.399 . S
C620 C621 1.385 . S
C621 H607 0.931 . S
C621 C620 1.385 . S
C621 C622 1.389 . S
C622 C621 1.389 . S
C622 C623 1.387 . S
C623 H608 0.930 . S
C623 C618 1.390 . S
C623 C622 1.387 . S
C151 C18 1.050 1_565 S
C163 C135 1.047 . S
C178 C41 1.047 . S
C190 C20 1.042 . S
C205 C64 1.051 1_455 S
C217 C43 1.065 . S
C232 C66 1.067 . S
C244 C87 1.063 1_545 S
C259 C89 1.058 . S
C271 C110 1.057 . S
C286 C133 1.058 1_655 S
C298 C112 1.060 . S
C313 C16 1.565 . S
C325 C88 1.554 . S
C340 C39 1.545 . S
C352 C111 1.535 . S
C367 C134 1.527 . S
C379 C62 1.534 . S
C394 C85 1.525 . S
C406 C19 1.526 . S
C421 C42 1.577 . S
C433 C108 1.575 . S
C448 C131 1.532 . S
C460 C65 1.545 . S
C475 C17 1.284 . S
C487 C113 1.284 . S
C502 C136 1.289 . S
C514 C40 1.308 . S
C529 C21 1.324 . S
C541 C63 1.252 . S
C556 C86 1.264 . S
C568 C44 1.299 . S
C583 C67 1.295 . S
C595 C109 1.302 . S
C610 C90 1.271 . S
C622 C132 1.310 . S
