# Generated by pormake.
# Topology lcy, (6)-cn, num edge types: 1
# Building blocks:
#     Node 0, Type 0, BuildingBlock: OJICUG_clean_sbu_0, # of connection points: 6
#     Node 1, Type 0, BuildingBlock: OJICUG_clean_sbu_0, # of connection points: 6
#     Node 2, Type 0, BuildingBlock: OJICUG_clean_sbu_0, # of connection points: 6
#     Node 3, Type 0, BuildingBlock: OJICUG_clean_sbu_0, # of connection points: 6
#     Edge 4, Type (0, 0), BuildingBlock: CIFDUS_clean_linker_0, # of connection points: 2
#     Edge 5, Type (0, 0), BuildingBlock: CIFDUS_clean_linker_0, # of connection points: 2
#     Edge 6, Type (0, 0), BuildingBlock: CIFDUS_clean_linker_0, # of connection points: 2
#     Edge 7, Type (0, 0), BuildingBlock: CIFDUS_clean_linker_0, # of connection points: 2
#     Edge 8, Type (0, 0), BuildingBlock: CIFDUS_clean_linker_0, # of connection points: 2
#     Edge 9, Type (0, 0), BuildingBlock: CIFDUS_clean_linker_0, # of connection points: 2
#     Edge 10, Type (0, 0), BuildingBlock: CIFDUS_clean_linker_0, # of connection points: 2
#     Edge 11, Type (0, 0), BuildingBlock: CIFDUS_clean_linker_0, # of connection points: 2
#     Edge 12, Type (0, 0), BuildingBlock: CIFDUS_clean_linker_0, # of connection points: 2
#     Edge 13, Type (0, 0), BuildingBlock: CIFDUS_clean_linker_0, # of connection points: 2
#     Edge 14, Type (0, 0), BuildingBlock: CIFDUS_clean_linker_0, # of connection points: 2
#     Edge 15, Type (0, 0), BuildingBlock: CIFDUS_clean_linker_0, # of connection points: 2
# Relax obj value: 0.357
# Max RMSD: 0.279
# Mean RMSD: 0.279
data_MOF--net-lcy--node1-OJICUG_clean_sbu_0--edge1-CIFDUS_clean_linker_0
_symmetry_space_group_name_H-M    P1
_symmetry_Int_Tables_number       1
_symmetry_cell_setting            triclinic
loop_
_symmetry_equiv_pos_as_xyz
'x, y, z'
_cell_length_a     22.805977
_cell_length_b     22.831956
_cell_length_c     23.056405
_cell_angle_alpha  90.131869
_cell_angle_beta   90.197121
_cell_angle_gamma 89.649686
loop_
_atom_site_label
_atom_site_type_symbol
_atom_site_fract_x
_atom_site_fract_y
_atom_site_fract_z
_atom_type_partial_charge
Sc0 Sc 0.29614 0.4287 0.34902 0.0
Sc1 Sc 0.38407 0.34404 0.43805 0.0
Sc2 Sc 0.40416 0.34319 0.29046 0.0
O3 O 0.36166 0.37309 0.3598 0.0
C4 C 0.27593 0.36301 0.23828 0.0
C5 C 0.24858 0.33818 0.44477 0.0
C6 C 0.3969 0.23122 0.35427 0.0
C7 C 0.34464 0.47766 0.46328 0.0
C8 C 0.40065 0.47458 0.26661 0.0
C9 C 0.50425 0.34766 0.38831 0.0
O10 O 0.25638 0.37124 0.28859 0.0
O11 O 0.29783 0.31323 0.45315 0.0
O12 O 0.37391 0.25819 0.31171 0.0
O13 O 0.33108 0.4876 0.41096 0.0
O14 O 0.43253 0.42917 0.27301 0.0
O15 O 0.47128 0.37452 0.42383 0.0
O16 O 0.34682 0.47722 0.283 0.0
O17 O 0.36072 0.42695 0.48102 0.0
O18 O 0.48414 0.32641 0.34104 0.0
O19 O 0.24221 0.38425 0.41371 0.0
O20 O 0.33088 0.35747 0.22975 0.0
O21 O 0.40883 0.25758 0.40201 0.0
Sc22 Sc 0.90908 0.14993 0.70315 0.0
Sc23 Sc 0.80057 0.06635 0.63919 0.0
Sc24 Sc 0.887 0.1562 0.55541 0.0
O25 O 0.86529 0.12364 0.63258 0.0
C26 C 0.90206 0.26557 0.64145 0.0
C27 C 0.78034 0.13028 0.75451 0.0
C28 C 0.75179 0.16266 0.54842 0.0
C29 C 0.90307 0.01645 0.72328 0.0
C30 C 0.00791 0.14765 0.60405 0.0
C31 C 0.84913 0.02489 0.52192 0.0
O32 O 0.88296 0.23804 0.68522 0.0
O33 O 0.75887 0.11608 0.70583 0.0
O34 O 0.80036 0.1892 0.54354 0.0
O35 O 0.9347 0.06213 0.7215 0.0
O36 O 0.97393 0.12397 0.56727 0.0
O37 O 0.83657 0.0117 0.5736 0.0
O38 O 0.98964 0.16412 0.65381 0.0
O39 O 0.85132 0.01392 0.70145 0.0
O40 O 0.86334 0.07682 0.50741 0.0
O41 O 0.83502 0.13916 0.76142 0.0
O42 O 0.91346 0.23995 0.59348 0.0
O43 O 0.74636 0.11423 0.57588 0.0
Sc44 Sc 0.19982 0.56443 0.84933 0.0
Sc45 Sc 0.11172 0.64922 0.93775 0.0
Sc46 Sc 0.09523 0.65384 0.78959 0.0
O47 O 0.13544 0.6216 0.85933 0.0
C48 C 0.22499 0.63293 0.74157 0.0
C49 C 0.24658 0.65144 0.94931 0.0
C50 C 0.10173 0.76439 0.85737 0.0
C51 C 0.14876 0.51464 0.96057 0.0
C52 C 0.09835 0.52314 0.76045 0.0
C53 C 0.9925 0.64756 0.88423 0.0
O54 O 0.24318 0.62217 0.79207 0.0
O55 O 0.19815 0.67845 0.95577 0.0
O56 O 0.12489 0.73843 0.81431 0.0
O57 O 0.16063 0.50505 0.90784 0.0
O58 O 0.06677 0.56866 0.76757 0.0
O59 O 0.02436 0.62022 0.92053 0.0
O60 O 0.15122 0.51902 0.77954 0.0
O61 O 0.13404 0.56544 0.97921 0.0
O62 O 0.01393 0.66928 0.83795 0.0
O63 O 0.25221 0.60546 0.91782 0.0
O64 O 0.17045 0.6407 0.73162 0.0
O65 O 0.08837 0.73668 0.90372 0.0
Sc66 Sc 0.60487 0.83246 0.05182 0.0
Sc67 Sc 0.6917 0.93445 0.11975 0.0
Sc68 Sc 0.59548 0.84984 0.19966 0.0
O69 O 0.63141 0.87243 0.12396 0.0
C70 C 0.48871 0.84099 0.10893 0.0
C71 C 0.63032 0.96137 0.00424 0.0
C72 C 0.59506 0.98492 0.20965 0.0
C73 C 0.73856 0.83233 0.03385 0.0
C74 C 0.60065 0.73014 0.14699 0.0
C75 C 0.72736 0.88222 0.23726 0.0
O76 O 0.51894 0.86408 0.06914 0.0
O77 O 0.64578 0.98062 0.05339 0.0
O78 O 0.56668 0.93736 0.21392 0.0
O79 O 0.69178 0.80229 0.03567 0.0
O80 O 0.62398 0.76139 0.18632 0.0
O81 O 0.74283 0.89385 0.18592 0.0
O82 O 0.58504 0.75165 0.09825 0.0
O83 O 0.74275 0.88376 0.05604 0.0
O84 O 0.67448 0.86952 0.2499 0.0
O85 O 0.62009 0.90728 -0.00449 0.0
O86 O 0.51134 0.82798 0.15809 0.0
O87 O 0.64378 0.98906 0.18236 0.0
H88 H 0.10681 0.49492 0.06963 0.0
H89 H 0.23324 0.43216 0.94485 0.0
H90 H 0.28038 0.37224 0.01855 0.0
H91 H 0.29538 0.35022 0.12187 0.0
H92 H 0.1649 0.40743 0.24537 0.0
H93 H 0.10955 0.45521 0.16882 0.0
C94 C 0.14375 0.46702 0.0584 0.0
C95 C 0.16693 0.46891 0.00224 0.0
C96 C 0.17061 0.43185 0.10092 0.0
C97 C 0.21441 0.43181 0.98793 0.0
C98 C 0.24184 0.39765 0.03015 0.0
C99 C 0.25411 0.37181 0.13178 0.0
C100 C 0.23559 0.37658 0.18955 0.0
C101 C 0.22178 0.39916 0.08735 0.0
C102 C 0.18116 0.40376 0.20142 0.0
C103 C 0.14931 0.43156 0.15766 0.0
H104 H 0.72039 0.8547 0.35227 0.0
H105 H 0.82839 0.94494 0.22805 0.0
H106 H 0.88135 0.99294 0.30617 0.0
H107 H 0.8856 0.0221 0.40899 0.0
H108 H 0.78069 0.92839 0.53328 0.0
H109 H 0.73912 0.86893 0.45625 0.0
C110 C 0.75648 0.88368 0.34232 0.0
C111 C 0.76914 0.89714 0.28434 0.0
C112 C 0.78705 0.91149 0.38754 0.0
C113 C 0.81692 0.93405 0.27227 0.0
C114 C 0.8472 0.96205 0.31698 0.0
C115 C 0.85466 0.98782 0.4193 0.0
C116 C 0.83548 0.98086 0.47664 0.0
C117 C 0.83081 0.95318 0.37469 0.0
C118 C 0.79605 0.93536 0.48944 0.0
C119 C 0.77184 0.90129 0.44533 0.0
H120 H 0.20752 0.6491 0.62539 0.0
H121 H 0.33423 0.58387 0.74943 0.0
H122 H 0.38724 0.53382 0.6727 0.0
H123 H 0.38766 0.49438 0.57306 0.0
H124 H 0.26455 0.56469 0.44828 0.0
H125 H 0.22124 0.62692 0.52216 0.0
C126 C 0.24759 0.6253 0.63542 0.0
C127 C 0.2655 0.6189 0.69332 0.0
C128 C 0.27835 0.59644 0.59099 0.0
C129 C 0.31843 0.58886 0.70535 0.0
C130 C 0.34886 0.55971 0.66149 0.0
C131 C 0.35228 0.52429 0.56188 0.0
C132 C 0.32879 0.52381 0.50562 0.0
C133 C 0.32757 0.56083 0.60458 0.0
C134 C 0.28349 0.56366 0.49142 0.0
C135 C 0.25826 0.59927 0.53374 0.0
H136 H 0.69155 0.0625 -0.00026 0.0
H137 H 0.58319 0.94861 0.89555 0.0
H138 H 0.61131 0.00213 0.80835 0.0
H139 H 0.67995 0.06809 0.76115 0.0
H140 H 0.79844 0.17223 0.86456 0.0
H141 H 0.75195 0.13661 0.95303 0.0
C142 C 0.6728 0.0502 0.95819 0.0
C143 C 0.63583 0.0011 0.95402 0.0
C144 C 0.69153 0.07912 0.90811 0.0
C145 C 0.61215 0.98582 0.89981 0.0
C146 C 0.62839 0.0163 0.84998 0.0
C147 C 0.69467 0.08442 0.80292 0.0
C148 C 0.74314 0.12231 0.80629 0.0
C149 C 0.67012 0.06115 0.85342 0.0
C150 C 0.76157 0.14275 0.86083 0.0
C151 C 0.73523 0.12209 0.91138 0.0
H152 H 0.01327 0.21186 0.50766 0.0
H153 H 0.1177 0.15206 0.65221 0.0
H154 H 0.20171 0.20822 0.61629 0.0
H155 H 0.24462 0.27356 0.54303 0.0
H156 H 0.13656 0.33908 0.40316 0.0
H157 H 0.05368 0.28218 0.43883 0.0
C158 C 0.05484 0.21033 0.53069 0.0
C159 C 0.06042 0.17644 0.58126 0.0
C160 C 0.1015 0.24446 0.51122 0.0
C161 C 0.11329 0.1768 0.61238 0.0
C162 C 0.1609 0.20918 0.5921 0.0
C163 C 0.20278 0.2756 0.52057 0.0
C164 C 0.19668 0.31004 0.47027 0.0
C165 C 0.15538 0.24315 0.54155 0.0
C166 C 0.14214 0.3131 0.44207 0.0
C167 C 0.095 0.28021 0.46214 0.0
H168 H 0.01622 0.77222 0.77946 0.0
H169 H 0.11131 0.8745 0.9052 0.0
H170 H 0.05537 0.9625 0.87633 0.0
H171 H 0.98261 0.00996 0.81119 0.0
H172 H 0.88307 0.90368 0.69159 0.0
H173 H 0.93666 0.81652 0.72341 0.0
C174 C 0.0245 0.81384 0.80067 0.0
C175 C 0.0682 0.81768 0.84354 0.0
C176 C 0.9911 0.86292 0.7853 0.0
C177 C 0.07809 0.87114 0.8717 0.0
C178 C 0.0461 0.9211 0.85525 0.0
C179 C 0.97235 0.96755 0.79259 0.0
C180 C 0.92947 0.96318 0.74862 0.0
C181 C 0.00295 0.91753 0.81156 0.0
C182 C 0.91579 0.90804 0.72548 0.0
C183 C 0.94669 0.85834 0.74334 0.0
H184 H 0.25062 0.71574 0.04842 0.0
H185 H 0.3594 0.64482 0.91202 0.0
H186 H 0.44358 0.69833 0.95015 0.0
H187 H 0.48423 0.76954 0.01789 0.0
H188 H 0.3794 0.83639 0.15868 0.0
H189 H 0.29474 0.78016 0.12295 0.0
C190 C 0.29294 0.71169 0.0274 0.0
C191 C 0.29881 0.677 0.97708 0.0
C192 C 0.34116 0.74231 0.04977 0.0
C193 C 0.35391 0.67118 0.95078 0.0
C194 C 0.40186 0.70208 0.97228 0.0
C195 C 0.44261 0.77215 0.04048 0.0
C196 C 0.43696 0.80824 0.08962 0.0
C197 C 0.39553 0.73864 0.02085 0.0
C198 C 0.38394 0.80964 0.12008 0.0
C199 C 0.33593 0.77742 0.09977 0.0
H200 H 0.47915 0.22647 0.27314 0.0
H201 H 0.39417 0.12113 0.40246 0.0
H202 H 0.45141 0.03505 0.37069 0.0
H203 H 0.52134 0.98988 0.30182 0.0
H204 H 0.60909 0.09835 0.17628 0.0
H205 H 0.55558 0.18416 0.21182 0.0
C206 C 0.47326 0.18456 0.2944 0.0
C207 C 0.43184 0.17924 0.33902 0.0
C208 C 0.5069 0.13643 0.27679 0.0
C209 C 0.42539 0.12557 0.36747 0.0
C210 C 0.45808 0.07669 0.34933 0.0
C211 C 0.52901 0.03242 0.28254 0.0
C212 C 0.5685 0.03776 0.23592 0.0
C213 C 0.49829 0.08154 0.30339 0.0
C214 C 0.57892 0.09318 0.21208 0.0
C215 C 0.54811 0.14211 0.23214 0.0
H216 H 0.73176 0.27733 0.52639 0.0
H217 H 0.65856 0.10535 0.50052 0.0
H218 H 0.57915 0.14773 0.44207 0.0
H219 H 0.53009 0.23378 0.40013 0.0
H220 H 0.59734 0.40643 0.43391 0.0
H221 H 0.68095 0.36369 0.48664 0.0
C222 C 0.6983 0.24915 0.50807 0.0
C223 C 0.70089 0.18831 0.5177 0.0
C224 C 0.65257 0.27389 0.47533 0.0
C225 C 0.65707 0.15234 0.4942 0.0
C226 C 0.61206 0.17648 0.46041 0.0
C227 C 0.56377 0.26185 0.41799 0.0
C228 C 0.55883 0.32293 0.41204 0.0
C229 C 0.60955 0.23713 0.45061 0.0
C230 C 0.6013 0.35923 0.43713 0.0
C231 C 0.64856 0.33483 0.46762 0.0
H232 H 0.98269 0.5035 0.747 0.0
H233 H 0.15258 0.43117 0.70444 0.0
H234 H 0.10517 0.34877 0.65488 0.0
H235 H 0.0153 0.29423 0.63045 0.0
H236 H 0.84697 0.36256 0.68263 0.0
H237 H 0.89385 0.4511 0.72053 0.0
C238 C 0.00957 0.47008 0.72645 0.0
C239 C 0.07114 0.4734 0.72945 0.0
C240 C 0.98214 0.42265 0.69938 0.0
C241 C 0.10514 0.42933 0.70313 0.0
C242 C 0.07806 0.38246 0.67461 0.0
C243 C 0.98897 0.32941 0.64869 0.0
C244 C 0.92784 0.32305 0.65287 0.0
C245 C 0.0166 0.37837 0.67315 0.0
C246 C 0.89398 0.3675 0.67827 0.0
C247 C 0.92083 0.4176 0.70033 0.0
H248 H 0.96112 0.76066 0.88828 0.0
H249 H 0.902 0.58794 0.9332 0.0
H250 H 0.81653 0.6305 0.98264 0.0
H251 H 0.76237 0.71715 0.0172 0.0
H252 H 0.82726 0.89007 0.97928 0.0
H253 H 0.9077 0.84717 0.92309 0.0
C254 C 0.92866 0.7324 0.9075 0.0
C255 C 0.93663 0.67135 0.90585 0.0
C256 C 0.88167 0.75731 0.93799 0.0
C257 C 0.89582 0.63503 0.93313 0.0
C258 C 0.84745 0.65939 0.9617 0.0
C259 C 0.79407 0.74547 -0.00345 0.0
C260 C 0.78894 0.80672 0.00238 0.0
C261 C 0.84054 0.72051 0.96521 0.0
C262 C 0.83063 0.84283 0.9759 0.0
C263 C 0.8763 0.81836 0.94347 0.0
H264 H 0.48881 0.69708 0.1313 0.0
H265 H 0.65291 0.64145 0.20701 0.0
H266 H 0.60465 0.55611 0.24955 0.0
H267 H 0.51528 0.50134 0.26938 0.0
H268 H 0.34903 0.56149 0.20137 0.0
H269 H 0.39853 0.64249 0.15206 0.0
C270 C 0.51413 0.6655 0.15603 0.0
C271 C 0.57449 0.67446 0.16511 0.0
C272 C 0.4855 0.6185 0.18253 0.0
C273 C 0.60664 0.6346 0.19886 0.0
C274 C 0.57896 0.5863 0.22346 0.0
C275 C 0.48979 0.53201 0.24356 0.0
C276 C 0.4286 0.52541 0.23874 0.0
C277 C 0.51831 0.57848 0.21634 0.0
C278 C 0.39607 0.56596 0.20596 0.0
C279 C 0.42441 0.6119 0.17753 0.0
loop_
_geom_bond_atom_site_label_1
_geom_bond_atom_site_label_2
_geom_bond_distance
_geom_bond_site_symmetry_2
_ccdc_geom_bond_type
Sc0 O3 2.025 . S
Sc0 O10 2.105 . S
Sc0 O13 2.105 . S
Sc0 O16 2.105 . S
Sc0 O19 2.105 . S
Sc1 O3 2.025 . S
Sc1 O11 2.105 . S
Sc1 O15 2.105 . S
Sc1 O17 2.105 . S
Sc1 O21 2.105 . S
Sc2 O3 2.025 . S
Sc2 O12 2.105 . S
Sc2 O14 2.105 . S
Sc2 O18 2.105 . S
Sc2 O20 2.105 . S
O3 Sc0 2.025 . S
O3 Sc1 2.025 . S
O3 Sc2 2.025 . S
C4 O10 1.268 . S
C4 O20 1.268 . S
C5 O11 1.268 . S
C5 O19 1.268 . S
C6 O12 1.268 . S
C6 O21 1.268 . S
C7 O13 1.268 . S
C7 O17 1.268 . S
C8 O14 1.268 . S
C8 O16 1.268 . S
C9 O15 1.268 . S
C9 O18 1.268 . S
O10 Sc0 2.105 . S
O10 C4 1.268 . S
O11 Sc1 2.105 . S
O11 C5 1.268 . S
O12 Sc2 2.105 . S
O12 C6 1.268 . S
O13 Sc0 2.105 . S
O13 C7 1.268 . S
O14 Sc2 2.105 . S
O14 C8 1.268 . S
O15 Sc1 2.105 . S
O15 C9 1.268 . S
O16 Sc0 2.105 . S
O16 C8 1.268 . S
O17 Sc1 2.105 . S
O17 C7 1.268 . S
O18 Sc2 2.105 . S
O18 C9 1.268 . S
O19 Sc0 2.105 . S
O19 C5 1.268 . S
O20 Sc2 2.105 . S
O20 C4 1.268 . S
O21 Sc1 2.105 . S
O21 C6 1.268 . S
Sc22 O25 2.025 . S
Sc22 O32 2.105 . S
Sc22 O35 2.105 . S
Sc22 O38 2.105 1_655 S
Sc22 O41 2.105 . S
Sc23 O25 2.025 . S
Sc23 O33 2.105 . S
Sc23 O37 2.105 . S
Sc23 O39 2.105 1_545 S
Sc23 O43 2.105 . S
Sc24 O25 2.025 . S
Sc24 O34 2.105 . S
Sc24 O36 2.105 . S
Sc24 O40 2.105 . S
Sc24 O42 2.105 . S
O25 Sc22 2.025 . S
O25 Sc23 2.025 . S
O25 Sc24 2.025 . S
C26 O32 1.268 . S
C26 O42 1.268 . S
C27 O33 1.268 . S
C27 O41 1.268 . S
C28 O34 1.268 . S
C28 O43 1.268 . S
C29 O35 1.268 1_565 S
C29 O39 1.268 . S
C30 O36 1.268 1_455 S
C30 O38 1.268 . S
C31 O37 1.268 . S
C31 O40 1.268 . S
O32 Sc22 2.105 . S
O32 C26 1.268 . S
O33 Sc23 2.105 . S
O33 C27 1.268 . S
O34 Sc24 2.105 . S
O34 C28 1.268 . S
O35 Sc22 2.105 . S
O35 C29 1.268 1_545 S
O36 Sc24 2.105 . S
O36 C30 1.268 1_655 S
O37 Sc23 2.105 . S
O37 C31 1.268 . S
O38 Sc22 2.105 1_455 S
O38 C30 1.268 . S
O39 Sc23 2.105 1_565 S
O39 C29 1.268 . S
O40 Sc24 2.105 . S
O40 C31 1.268 . S
O41 Sc22 2.105 . S
O41 C27 1.268 . S
O42 Sc24 2.105 . S
O42 C26 1.268 . S
O43 Sc23 2.105 . S
O43 C28 1.268 . S
Sc44 O47 2.025 . S
Sc44 O54 2.105 . S
Sc44 O57 2.105 . S
Sc44 O60 2.105 . S
Sc44 O63 2.105 . S
Sc45 O47 2.025 . S
Sc45 O55 2.105 . S
Sc45 O59 2.105 . S
Sc45 O61 2.105 1_556 S
Sc45 O65 2.105 . S
Sc46 O47 2.025 . S
Sc46 O56 2.105 . S
Sc46 O58 2.105 . S
Sc46 O62 2.105 1_455 S
Sc46 O64 2.105 . S
O47 Sc44 2.025 . S
O47 Sc45 2.025 . S
O47 Sc46 2.025 . S
C48 O54 1.268 . S
C48 O64 1.268 . S
C49 O55 1.268 . S
C49 O63 1.268 . S
C50 O56 1.268 . S
C50 O65 1.268 . S
C51 O57 1.268 1_554 S
C51 O61 1.268 . S
C52 O58 1.268 . S
C52 O60 1.268 . S
C53 O59 1.268 1_655 S
C53 O62 1.268 . S
O54 Sc44 2.105 . S
O54 C48 1.268 . S
O55 Sc45 2.105 . S
O55 C49 1.268 . S
O56 Sc46 2.105 . S
O56 C50 1.268 . S
O57 Sc44 2.105 . S
O57 C51 1.268 1_556 S
O58 Sc46 2.105 . S
O58 C52 1.268 . S
O59 Sc45 2.105 . S
O59 C53 1.268 1_455 S
O60 Sc44 2.105 . S
O60 C52 1.268 . S
O61 Sc45 2.105 1_554 S
O61 C51 1.268 . S
O62 Sc46 2.105 1_655 S
O62 C53 1.268 . S
O63 Sc44 2.105 . S
O63 C49 1.268 . S
O64 Sc46 2.105 . S
O64 C48 1.268 . S
O65 Sc45 2.105 . S
O65 C50 1.268 . S
Sc66 O69 2.025 . S
Sc66 O76 2.105 . S
Sc66 O79 2.105 . S
Sc66 O82 2.105 . S
Sc66 O85 2.105 1_554 S
Sc67 O69 2.025 . S
Sc67 O77 2.105 . S
Sc67 O81 2.105 . S
Sc67 O83 2.105 . S
Sc67 O87 2.105 1_565 S
Sc68 O69 2.025 . S
Sc68 O78 2.105 . S
Sc68 O80 2.105 . S
Sc68 O84 2.105 . S
Sc68 O86 2.105 . S
O69 Sc66 2.025 . S
O69 Sc67 2.025 . S
O69 Sc68 2.025 . S
C70 O76 1.268 . S
C70 O86 1.268 . S
C71 O77 1.268 1_556 S
C71 O85 1.268 . S
C72 O78 1.268 1_545 S
C72 O87 1.268 . S
C73 O79 1.268 . S
C73 O83 1.268 . S
C74 O80 1.268 . S
C74 O82 1.268 . S
C75 O81 1.268 . S
C75 O84 1.268 . S
O76 Sc66 2.105 . S
O76 C70 1.268 . S
O77 Sc67 2.105 . S
O77 C71 1.268 1_554 S
O78 Sc68 2.105 . S
O78 C72 1.268 1_565 S
O79 Sc66 2.105 . S
O79 C73 1.268 . S
O80 Sc68 2.105 . S
O80 C74 1.268 . S
O81 Sc67 2.105 . S
O81 C75 1.268 . S
O82 Sc66 2.105 . S
O82 C74 1.268 . S
O83 Sc67 2.105 . S
O83 C73 1.268 . S
O84 Sc68 2.105 . S
O84 C75 1.268 . S
O85 Sc66 2.105 1_556 S
O85 C71 1.268 . S
O86 Sc68 2.105 . S
O86 C70 1.268 . S
O87 Sc67 2.105 1_545 S
O87 C72 1.268 . S
H88 C94 0.930 . S
H89 C97 0.930 1_556 S
H90 C98 0.930 . S
H91 C99 0.930 . S
H92 C102 0.930 . S
H93 C103 0.930 . S
C94 H88 0.930 . S
C94 C95 1.355 . S
C94 C96 1.415 . S
C95 C94 1.355 . S
C95 C97 1.419 . S
C96 C94 1.415 . S
C96 C101 1.425 . S
C96 C103 1.409 . S
C97 H89 0.930 1_554 S
C97 C95 1.419 . S
C97 C98 1.362 . S
C98 H90 0.930 . S
C98 C97 1.362 . S
C98 C101 1.409 . S
C99 H91 0.930 . S
C99 C100 1.355 . S
C99 C101 1.415 . S
C100 C99 1.355 . S
C100 C102 1.419 . S
C101 C96 1.425 . S
C101 C98 1.409 . S
C101 C99 1.415 . S
C102 H92 0.930 . S
C102 C100 1.419 . S
C102 C103 1.362 . S
C103 H93 0.930 . S
C103 C96 1.409 . S
C103 C102 1.362 . S
H104 C110 0.930 . S
H105 C113 0.930 . S
H106 C114 0.930 . S
H107 C115 0.930 . S
H108 C118 0.930 . S
H109 C119 0.930 1_565 S
C110 H104 0.930 . S
C110 C111 1.355 . S
C110 C112 1.415 . S
C111 C110 1.355 . S
C111 C113 1.419 . S
C112 C110 1.415 . S
C112 C117 1.425 . S
C112 C119 1.409 1_565 S
C113 H105 0.930 . S
C113 C111 1.419 . S
C113 C114 1.362 . S
C114 H106 0.930 . S
C114 C113 1.362 . S
C114 C117 1.409 . S
C115 H107 0.930 . S
C115 C116 1.355 . S
C115 C117 1.415 1_545 S
C116 C115 1.355 . S
C116 C118 1.419 . S
C117 C112 1.425 . S
C117 C114 1.409 . S
C117 C115 1.415 1_565 S
C118 H108 0.930 . S
C118 C116 1.419 . S
C118 C119 1.362 . S
C119 H109 0.930 1_545 S
C119 C112 1.409 1_545 S
C119 C118 1.362 . S
H120 C126 0.930 . S
H121 C129 0.930 . S
H122 C130 0.930 . S
H123 C131 0.930 . S
H124 C134 0.930 . S
H125 C135 0.930 . S
C126 H120 0.930 . S
C126 C127 1.355 . S
C126 C128 1.415 . S
C127 C126 1.355 . S
C127 C129 1.419 . S
C128 C126 1.415 . S
C128 C133 1.425 . S
C128 C135 1.409 . S
C129 H121 0.930 . S
C129 C127 1.419 . S
C129 C130 1.362 . S
C130 H122 0.930 . S
C130 C129 1.362 . S
C130 C133 1.409 . S
C131 H123 0.930 . S
C131 C132 1.355 . S
C131 C133 1.415 . S
C132 C131 1.355 . S
C132 C134 1.419 . S
C133 C128 1.425 . S
C133 C130 1.409 . S
C133 C131 1.415 . S
C134 H124 0.930 . S
C134 C132 1.419 . S
C134 C135 1.362 . S
C135 H125 0.930 . S
C135 C128 1.409 . S
C135 C134 1.362 . S
H136 C142 0.930 . S
H137 C145 0.930 . S
H138 C146 0.930 . S
H139 C147 0.930 . S
H140 C150 0.930 . S
H141 C151 0.930 . S
C142 H136 0.930 . S
C142 C143 1.355 1_545 S
C142 C144 1.415 . S
C143 C142 1.355 1_565 S
C143 C145 1.419 . S
C144 C142 1.415 . S
C144 C149 1.425 . S
C144 C151 1.409 . S
C145 H137 0.930 . S
C145 C143 1.419 . S
C145 C146 1.362 . S
C146 H138 0.930 . S
C146 C145 1.362 . S
C146 C149 1.409 1_565 S
C147 H139 0.930 . S
C147 C148 1.355 . S
C147 C149 1.415 . S
C148 C147 1.355 . S
C148 C150 1.419 . S
C149 C144 1.425 . S
C149 C146 1.409 1_545 S
C149 C147 1.415 . S
C150 H140 0.930 . S
C150 C148 1.419 . S
C150 C151 1.362 . S
C151 H141 0.930 . S
C151 C144 1.409 . S
C151 C150 1.362 . S
H152 C158 0.930 . S
H153 C161 0.930 1_655 S
H154 C162 0.930 . S
H155 C163 0.930 . S
H156 C166 0.930 . S
H157 C167 0.930 . S
C158 H152 0.930 . S
C158 C159 1.355 . S
C158 C160 1.415 . S
C159 C158 1.355 . S
C159 C161 1.419 . S
C160 C158 1.415 . S
C160 C165 1.425 . S
C160 C167 1.409 . S
C161 H153 0.930 1_455 S
C161 C159 1.419 . S
C161 C162 1.362 . S
C162 H154 0.930 . S
C162 C161 1.362 . S
C162 C165 1.409 . S
C163 H155 0.930 . S
C163 C164 1.355 . S
C163 C165 1.415 . S
C164 C163 1.355 . S
C164 C166 1.419 . S
C165 C160 1.425 . S
C165 C162 1.409 . S
C165 C163 1.415 . S
C166 H156 0.930 . S
C166 C164 1.419 . S
C166 C167 1.362 . S
C167 H157 0.930 . S
C167 C160 1.409 . S
C167 C166 1.362 . S
H168 C174 0.930 . S
H169 C177 0.930 . S
H170 C178 0.930 . S
H171 C179 0.930 . S
H172 C182 0.930 . S
H173 C183 0.930 . S
C174 H168 0.930 . S
C174 C175 1.355 . S
C174 C176 1.415 . S
C175 C174 1.355 . S
C175 C177 1.419 . S
C176 C174 1.415 . S
C176 C181 1.425 1_455 S
C176 C183 1.409 . S
C177 H169 0.930 . S
C177 C175 1.419 . S
C177 C178 1.362 1_455 S
C178 H170 0.930 . S
C178 C177 1.362 1_655 S
C178 C181 1.409 . S
C179 H171 0.930 . S
C179 C180 1.355 . S
C179 C181 1.415 . S
C180 C179 1.355 . S
C180 C182 1.419 1_655 S
C181 C176 1.425 1_655 S
C181 C178 1.409 . S
C181 C179 1.415 . S
C182 H172 0.930 . S
C182 C180 1.419 1_455 S
C182 C183 1.362 . S
C183 H173 0.930 . S
C183 C176 1.409 . S
C183 C182 1.362 . S
H184 C190 0.930 . S
H185 C193 0.930 . S
H186 C194 0.930 . S
H187 C195 0.930 . S
H188 C198 0.930 . S
H189 C199 0.930 . S
C190 H184 0.930 . S
C190 C191 1.355 . S
C190 C192 1.415 . S
C191 C190 1.355 . S
C191 C193 1.419 . S
C192 C190 1.415 . S
C192 C197 1.425 . S
C192 C199 1.409 1_556 S
C193 H185 0.930 . S
C193 C191 1.419 . S
C193 C194 1.362 . S
C194 H186 0.930 . S
C194 C193 1.362 . S
C194 C197 1.409 . S
C195 H187 0.930 . S
C195 C196 1.355 1_556 S
C195 C197 1.415 . S
C196 C195 1.355 1_554 S
C196 C198 1.419 . S
C197 C192 1.425 . S
C197 C194 1.409 . S
C197 C195 1.415 . S
C198 H188 0.930 . S
C198 C196 1.419 . S
C198 C199 1.362 . S
C199 H189 0.930 . S
C199 C192 1.409 1_554 S
C199 C198 1.362 . S
H200 C206 0.930 . S
H201 C209 0.930 . S
H202 C210 0.930 . S
H203 C211 0.930 . S
H204 C214 0.930 . S
H205 C215 0.930 . S
C206 H200 0.930 . S
C206 C207 1.355 . S
C206 C208 1.415 . S
C207 C206 1.355 . S
C207 C209 1.419 . S
C208 C206 1.415 . S
C208 C213 1.425 . S
C208 C215 1.409 . S
C209 H201 0.930 . S
C209 C207 1.419 . S
C209 C210 1.362 . S
C210 H202 0.930 . S
C210 C209 1.362 . S
C210 C213 1.409 . S
C211 H203 0.930 . S
C211 C212 1.355 . S
C211 C213 1.415 . S
C212 C211 1.355 . S
C212 C214 1.419 . S
C213 C208 1.425 . S
C213 C210 1.409 . S
C213 C211 1.415 . S
C214 H204 0.930 . S
C214 C212 1.419 . S
C214 C215 1.362 . S
C215 H205 0.930 . S
C215 C208 1.409 . S
C215 C214 1.362 . S
H216 C222 0.930 . S
H217 C225 0.930 . S
H218 C226 0.930 . S
H219 C227 0.930 . S
H220 C230 0.930 . S
H221 C231 0.930 . S
C222 H216 0.930 . S
C222 C223 1.355 . S
C222 C224 1.415 . S
C223 C222 1.355 . S
C223 C225 1.419 . S
C224 C222 1.415 . S
C224 C229 1.425 . S
C224 C231 1.409 . S
C225 H217 0.930 . S
C225 C223 1.419 . S
C225 C226 1.362 . S
C226 H218 0.930 . S
C226 C225 1.362 . S
C226 C229 1.409 . S
C227 H219 0.930 . S
C227 C228 1.355 . S
C227 C229 1.415 . S
C228 C227 1.355 . S
C228 C230 1.419 . S
C229 C224 1.425 . S
C229 C226 1.409 . S
C229 C227 1.415 . S
C230 H220 0.930 . S
C230 C228 1.419 . S
C230 C231 1.362 . S
C231 H221 0.930 . S
C231 C224 1.409 . S
C231 C230 1.362 . S
H232 C238 0.930 1_655 S
H233 C241 0.930 . S
H234 C242 0.930 . S
H235 C243 0.930 . S
H236 C246 0.930 . S
H237 C247 0.930 . S
C238 H232 0.930 1_455 S
C238 C239 1.355 . S
C238 C240 1.415 1_455 S
C239 C238 1.355 . S
C239 C241 1.419 . S
C240 C238 1.415 1_655 S
C240 C245 1.425 . S
C240 C247 1.409 . S
C241 H233 0.930 . S
C241 C239 1.419 . S
C241 C242 1.362 . S
C242 H234 0.930 . S
C242 C241 1.362 . S
C242 C245 1.409 1_455 S
C243 H235 0.930 . S
C243 C244 1.355 . S
C243 C245 1.415 . S
C244 C243 1.355 . S
C244 C246 1.419 . S
C245 C240 1.425 . S
C245 C242 1.409 1_655 S
C245 C243 1.415 . S
C246 H236 0.930 . S
C246 C244 1.419 . S
C246 C247 1.362 . S
C247 H237 0.930 . S
C247 C240 1.409 . S
C247 C246 1.362 . S
H248 C254 0.930 . S
H249 C257 0.930 1_455 S
H250 C258 0.930 . S
H251 C259 0.930 . S
H252 C262 0.930 . S
H253 C263 0.930 . S
C254 H248 0.930 . S
C254 C255 1.355 . S
C254 C256 1.415 . S
C255 C254 1.355 . S
C255 C257 1.419 1_556 S
C256 C254 1.415 . S
C256 C261 1.425 1_556 S
C256 C263 1.409 . S
C257 H249 0.930 1_655 S
C257 C255 1.419 1_554 S
C257 C258 1.362 . S
C258 H250 0.930 . S
C258 C257 1.362 . S
C258 C261 1.409 . S
C259 H251 0.930 . S
C259 C260 1.355 . S
C259 C261 1.415 . S
C260 C259 1.355 . S
C260 C262 1.419 . S
C261 C256 1.425 1_554 S
C261 C258 1.409 . S
C261 C259 1.415 . S
C262 H252 0.930 . S
C262 C260 1.419 . S
C262 C263 1.362 1_554 S
C263 H253 0.930 . S
C263 C256 1.409 . S
C263 C262 1.362 1_556 S
H264 C270 0.930 . S
H265 C273 0.930 . S
H266 C274 0.930 . S
H267 C275 0.930 . S
H268 C278 0.930 . S
H269 C279 0.930 . S
C270 H264 0.930 . S
C270 C271 1.355 . S
C270 C272 1.415 . S
C271 C270 1.355 . S
C271 C273 1.419 . S
C272 C270 1.415 . S
C272 C277 1.425 . S
C272 C279 1.409 . S
C273 H265 0.930 . S
C273 C271 1.419 . S
C273 C274 1.362 . S
C274 H266 0.930 . S
C274 C273 1.362 . S
C274 C277 1.409 . S
C275 H267 0.930 . S
C275 C276 1.355 . S
C275 C277 1.415 . S
C276 C275 1.355 . S
C276 C278 1.419 . S
C277 C272 1.425 . S
C277 C274 1.409 . S
C277 C275 1.415 . S
C278 H268 0.930 . S
C278 C276 1.419 . S
C278 C279 1.362 . S
C279 H269 0.930 . S
C279 C272 1.409 . S
C279 C278 1.362 . S
C95 C51 1.306 . S
C100 C4 1.353 . S
C111 C75 1.334 . S
C116 C31 1.310 . S
C127 C48 1.366 . S
C132 C7 1.308 . S
C143 C71 1.396 . S
C148 C27 1.397 . S
C159 C30 1.309 . S
C164 C5 1.371 . S
C175 C50 1.315 . S
C180 C29 1.382 . S
C191 C49 1.409 . S
C196 C70 1.366 . S
C207 C6 1.408 . S
C212 C72 1.353 . S
C223 C28 1.321 . S
C228 C9 1.390 . S
C239 C52 1.317 . S
C244 C26 1.385 . S
C255 C53 1.330 . S
C260 C73 1.312 . S
C271 C74 1.402 . S
C276 C8 1.337 . S
