# Generated by pormake.
# Topology ull, (4)-cn, num edge types: 1
# Building blocks:
#     Node 0, Type 0, BuildingBlock: QUQFOY_clean_sbu_1, # of connection points: 4
#     Node 1, Type 0, BuildingBlock: QUQFOY_clean_sbu_1, # of connection points: 4
#     Node 2, Type 0, BuildingBlock: QUQFOY_clean_sbu_1, # of connection points: 4
#     Node 3, Type 0, BuildingBlock: QUQFOY_clean_sbu_1, # of connection points: 4
#     Node 4, Type 0, BuildingBlock: QUQFOY_clean_sbu_1, # of connection points: 4
#     Node 5, Type 0, BuildingBlock: QUQFOY_clean_sbu_1, # of connection points: 4
#     Node 6, Type 0, BuildingBlock: QUQFOY_clean_sbu_1, # of connection points: 4
#     Node 7, Type 0, BuildingBlock: QUQFOY_clean_sbu_1, # of connection points: 4
#     Node 8, Type 0, BuildingBlock: QUQFOY_clean_sbu_1, # of connection points: 4
#     Node 9, Type 0, BuildingBlock: QUQFOY_clean_sbu_1, # of connection points: 4
#     Node 10, Type 0, BuildingBlock: QUQFOY_clean_sbu_1, # of connection points: 4
#     Node 11, Type 0, BuildingBlock: QUQFOY_clean_sbu_1, # of connection points: 4
#     Node 12, Type 0, BuildingBlock: QUQFOY_clean_sbu_1, # of connection points: 4
#     Node 13, Type 0, BuildingBlock: QUQFOY_clean_sbu_1, # of connection points: 4
#     Node 14, Type 0, BuildingBlock: QUQFOY_clean_sbu_1, # of connection points: 4
#     Node 15, Type 0, BuildingBlock: QUQFOY_clean_sbu_1, # of connection points: 4
#     Node 16, Type 0, BuildingBlock: QUQFOY_clean_sbu_1, # of connection points: 4
#     Node 17, Type 0, BuildingBlock: QUQFOY_clean_sbu_1, # of connection points: 4
#     Node 18, Type 0, BuildingBlock: QUQFOY_clean_sbu_1, # of connection points: 4
#     Node 19, Type 0, BuildingBlock: QUQFOY_clean_sbu_1, # of connection points: 4
#     Node 20, Type 0, BuildingBlock: QUQFOY_clean_sbu_1, # of connection points: 4
#     Node 21, Type 0, BuildingBlock: QUQFOY_clean_sbu_1, # of connection points: 4
#     Node 22, Type 0, BuildingBlock: QUQFOY_clean_sbu_1, # of connection points: 4
#     Node 23, Type 0, BuildingBlock: QUQFOY_clean_sbu_1, # of connection points: 4
#     Node 24, Type 0, BuildingBlock: QUQFOY_clean_sbu_1, # of connection points: 4
#     Node 25, Type 0, BuildingBlock: QUQFOY_clean_sbu_1, # of connection points: 4
#     Node 26, Type 0, BuildingBlock: QUQFOY_clean_sbu_1, # of connection points: 4
#     Node 27, Type 0, BuildingBlock: QUQFOY_clean_sbu_1, # of connection points: 4
#     Node 28, Type 0, BuildingBlock: QUQFOY_clean_sbu_1, # of connection points: 4
#     Node 29, Type 0, BuildingBlock: QUQFOY_clean_sbu_1, # of connection points: 4
#     Node 30, Type 0, BuildingBlock: QUQFOY_clean_sbu_1, # of connection points: 4
#     Node 31, Type 0, BuildingBlock: QUQFOY_clean_sbu_1, # of connection points: 4
#     Node 32, Type 0, BuildingBlock: QUQFOY_clean_sbu_1, # of connection points: 4
#     Node 33, Type 0, BuildingBlock: QUQFOY_clean_sbu_1, # of connection points: 4
#     Node 34, Type 0, BuildingBlock: QUQFOY_clean_sbu_1, # of connection points: 4
#     Node 35, Type 0, BuildingBlock: QUQFOY_clean_sbu_1, # of connection points: 4
#     Node 36, Type 0, BuildingBlock: QUQFOY_clean_sbu_1, # of connection points: 4
#     Node 37, Type 0, BuildingBlock: QUQFOY_clean_sbu_1, # of connection points: 4
#     Node 38, Type 0, BuildingBlock: QUQFOY_clean_sbu_1, # of connection points: 4
#     Node 39, Type 0, BuildingBlock: QUQFOY_clean_sbu_1, # of connection points: 4
#     Node 40, Type 0, BuildingBlock: QUQFOY_clean_sbu_1, # of connection points: 4
#     Node 41, Type 0, BuildingBlock: QUQFOY_clean_sbu_1, # of connection points: 4
#     Node 42, Type 0, BuildingBlock: QUQFOY_clean_sbu_1, # of connection points: 4
#     Node 43, Type 0, BuildingBlock: QUQFOY_clean_sbu_1, # of connection points: 4
#     Node 44, Type 0, BuildingBlock: QUQFOY_clean_sbu_1, # of connection points: 4
#     Node 45, Type 0, BuildingBlock: QUQFOY_clean_sbu_1, # of connection points: 4
#     Node 46, Type 0, BuildingBlock: QUQFOY_clean_sbu_1, # of connection points: 4
#     Node 47, Type 0, BuildingBlock: QUQFOY_clean_sbu_1, # of connection points: 4
#     Edge 48, Type (0, 0), BuildingBlock: TEMPAE_clean_linker_10, # of connection points: 2
#     Edge 49, Type (0, 0), BuildingBlock: TEMPAE_clean_linker_10, # of connection points: 2
#     Edge 50, Type (0, 0), BuildingBlock: TEMPAE_clean_linker_10, # of connection points: 2
#     Edge 51, Type (0, 0), BuildingBlock: TEMPAE_clean_linker_10, # of connection points: 2
#     Edge 52, Type (0, 0), BuildingBlock: TEMPAE_clean_linker_10, # of connection points: 2
#     Edge 53, Type (0, 0), BuildingBlock: TEMPAE_clean_linker_10, # of connection points: 2
#     Edge 54, Type (0, 0), BuildingBlock: TEMPAE_clean_linker_10, # of connection points: 2
#     Edge 55, Type (0, 0), BuildingBlock: TEMPAE_clean_linker_10, # of connection points: 2
#     Edge 56, Type (0, 0), BuildingBlock: TEMPAE_clean_linker_10, # of connection points: 2
#     Edge 57, Type (0, 0), BuildingBlock: TEMPAE_clean_linker_10, # of connection points: 2
#     Edge 58, Type (0, 0), BuildingBlock: TEMPAE_clean_linker_10, # of connection points: 2
#     Edge 59, Type (0, 0), BuildingBlock: TEMPAE_clean_linker_10, # of connection points: 2
#     Edge 60, Type (0, 0), BuildingBlock: TEMPAE_clean_linker_10, # of connection points: 2
#     Edge 61, Type (0, 0), BuildingBlock: TEMPAE_clean_linker_10, # of connection points: 2
#     Edge 62, Type (0, 0), BuildingBlock: TEMPAE_clean_linker_10, # of connection points: 2
#     Edge 63, Type (0, 0), BuildingBlock: TEMPAE_clean_linker_10, # of connection points: 2
#     Edge 64, Type (0, 0), BuildingBlock: TEMPAE_clean_linker_10, # of connection points: 2
#     Edge 65, Type (0, 0), BuildingBlock: TEMPAE_clean_linker_10, # of connection points: 2
#     Edge 66, Type (0, 0), BuildingBlock: TEMPAE_clean_linker_10, # of connection points: 2
#     Edge 67, Type (0, 0), BuildingBlock: TEMPAE_clean_linker_10, # of connection points: 2
#     Edge 68, Type (0, 0), BuildingBlock: TEMPAE_clean_linker_10, # of connection points: 2
#     Edge 69, Type (0, 0), BuildingBlock: TEMPAE_clean_linker_10, # of connection points: 2
#     Edge 70, Type (0, 0), BuildingBlock: TEMPAE_clean_linker_10, # of connection points: 2
#     Edge 71, Type (0, 0), BuildingBlock: TEMPAE_clean_linker_10, # of connection points: 2
#     Edge 72, Type (0, 0), BuildingBlock: TEMPAE_clean_linker_10, # of connection points: 2
#     Edge 73, Type (0, 0), BuildingBlock: TEMPAE_clean_linker_10, # of connection points: 2
#     Edge 74, Type (0, 0), BuildingBlock: TEMPAE_clean_linker_10, # of connection points: 2
#     Edge 75, Type (0, 0), BuildingBlock: TEMPAE_clean_linker_10, # of connection points: 2
#     Edge 76, Type (0, 0), BuildingBlock: TEMPAE_clean_linker_10, # of connection points: 2
#     Edge 77, Type (0, 0), BuildingBlock: TEMPAE_clean_linker_10, # of connection points: 2
#     Edge 78, Type (0, 0), BuildingBlock: TEMPAE_clean_linker_10, # of connection points: 2
#     Edge 79, Type (0, 0), BuildingBlock: TEMPAE_clean_linker_10, # of connection points: 2
#     Edge 80, Type (0, 0), BuildingBlock: TEMPAE_clean_linker_10, # of connection points: 2
#     Edge 81, Type (0, 0), BuildingBlock: TEMPAE_clean_linker_10, # of connection points: 2
#     Edge 82, Type (0, 0), BuildingBlock: TEMPAE_clean_linker_10, # of connection points: 2
#     Edge 83, Type (0, 0), BuildingBlock: TEMPAE_clean_linker_10, # of connection points: 2
#     Edge 84, Type (0, 0), BuildingBlock: TEMPAE_clean_linker_10, # of connection points: 2
#     Edge 85, Type (0, 0), BuildingBlock: TEMPAE_clean_linker_10, # of connection points: 2
#     Edge 86, Type (0, 0), BuildingBlock: TEMPAE_clean_linker_10, # of connection points: 2
#     Edge 87, Type (0, 0), BuildingBlock: TEMPAE_clean_linker_10, # of connection points: 2
#     Edge 88, Type (0, 0), BuildingBlock: TEMPAE_clean_linker_10, # of connection points: 2
#     Edge 89, Type (0, 0), BuildingBlock: TEMPAE_clean_linker_10, # of connection points: 2
#     Edge 90, Type (0, 0), BuildingBlock: TEMPAE_clean_linker_10, # of connection points: 2
#     Edge 91, Type (0, 0), BuildingBlock: TEMPAE_clean_linker_10, # of connection points: 2
#     Edge 92, Type (0, 0), BuildingBlock: TEMPAE_clean_linker_10, # of connection points: 2
#     Edge 93, Type (0, 0), BuildingBlock: TEMPAE_clean_linker_10, # of connection points: 2
#     Edge 94, Type (0, 0), BuildingBlock: TEMPAE_clean_linker_10, # of connection points: 2
#     Edge 95, Type (0, 0), BuildingBlock: TEMPAE_clean_linker_10, # of connection points: 2
#     Edge 96, Type (0, 0), BuildingBlock: TEMPAE_clean_linker_10, # of connection points: 2
#     Edge 97, Type (0, 0), BuildingBlock: TEMPAE_clean_linker_10, # of connection points: 2
#     Edge 98, Type (0, 0), BuildingBlock: TEMPAE_clean_linker_10, # of connection points: 2
#     Edge 99, Type (0, 0), BuildingBlock: TEMPAE_clean_linker_10, # of connection points: 2
#     Edge 100, Type (0, 0), BuildingBlock: TEMPAE_clean_linker_10, # of connection points: 2
#     Edge 101, Type (0, 0), BuildingBlock: TEMPAE_clean_linker_10, # of connection points: 2
#     Edge 102, Type (0, 0), BuildingBlock: TEMPAE_clean_linker_10, # of connection points: 2
#     Edge 103, Type (0, 0), BuildingBlock: TEMPAE_clean_linker_10, # of connection points: 2
#     Edge 104, Type (0, 0), BuildingBlock: TEMPAE_clean_linker_10, # of connection points: 2
#     Edge 105, Type (0, 0), BuildingBlock: TEMPAE_clean_linker_10, # of connection points: 2
#     Edge 106, Type (0, 0), BuildingBlock: TEMPAE_clean_linker_10, # of connection points: 2
#     Edge 107, Type (0, 0), BuildingBlock: TEMPAE_clean_linker_10, # of connection points: 2
#     Edge 108, Type (0, 0), BuildingBlock: TEMPAE_clean_linker_10, # of connection points: 2
#     Edge 109, Type (0, 0), BuildingBlock: TEMPAE_clean_linker_10, # of connection points: 2
#     Edge 110, Type (0, 0), BuildingBlock: TEMPAE_clean_linker_10, # of connection points: 2
#     Edge 111, Type (0, 0), BuildingBlock: TEMPAE_clean_linker_10, # of connection points: 2
#     Edge 112, Type (0, 0), BuildingBlock: TEMPAE_clean_linker_10, # of connection points: 2
#     Edge 113, Type (0, 0), BuildingBlock: TEMPAE_clean_linker_10, # of connection points: 2
#     Edge 114, Type (0, 0), BuildingBlock: TEMPAE_clean_linker_10, # of connection points: 2
#     Edge 115, Type (0, 0), BuildingBlock: TEMPAE_clean_linker_10, # of connection points: 2
#     Edge 116, Type (0, 0), BuildingBlock: TEMPAE_clean_linker_10, # of connection points: 2
#     Edge 117, Type (0, 0), BuildingBlock: TEMPAE_clean_linker_10, # of connection points: 2
#     Edge 118, Type (0, 0), BuildingBlock: TEMPAE_clean_linker_10, # of connection points: 2
#     Edge 119, Type (0, 0), BuildingBlock: TEMPAE_clean_linker_10, # of connection points: 2
#     Edge 120, Type (0, 0), BuildingBlock: TEMPAE_clean_linker_10, # of connection points: 2
#     Edge 121, Type (0, 0), BuildingBlock: TEMPAE_clean_linker_10, # of connection points: 2
#     Edge 122, Type (0, 0), BuildingBlock: TEMPAE_clean_linker_10, # of connection points: 2
#     Edge 123, Type (0, 0), BuildingBlock: TEMPAE_clean_linker_10, # of connection points: 2
#     Edge 124, Type (0, 0), BuildingBlock: TEMPAE_clean_linker_10, # of connection points: 2
#     Edge 125, Type (0, 0), BuildingBlock: TEMPAE_clean_linker_10, # of connection points: 2
#     Edge 126, Type (0, 0), BuildingBlock: TEMPAE_clean_linker_10, # of connection points: 2
#     Edge 127, Type (0, 0), BuildingBlock: TEMPAE_clean_linker_10, # of connection points: 2
#     Edge 128, Type (0, 0), BuildingBlock: TEMPAE_clean_linker_10, # of connection points: 2
#     Edge 129, Type (0, 0), BuildingBlock: TEMPAE_clean_linker_10, # of connection points: 2
#     Edge 130, Type (0, 0), BuildingBlock: TEMPAE_clean_linker_10, # of connection points: 2
#     Edge 131, Type (0, 0), BuildingBlock: TEMPAE_clean_linker_10, # of connection points: 2
#     Edge 132, Type (0, 0), BuildingBlock: TEMPAE_clean_linker_10, # of connection points: 2
#     Edge 133, Type (0, 0), BuildingBlock: TEMPAE_clean_linker_10, # of connection points: 2
#     Edge 134, Type (0, 0), BuildingBlock: TEMPAE_clean_linker_10, # of connection points: 2
#     Edge 135, Type (0, 0), BuildingBlock: TEMPAE_clean_linker_10, # of connection points: 2
#     Edge 136, Type (0, 0), BuildingBlock: TEMPAE_clean_linker_10, # of connection points: 2
#     Edge 137, Type (0, 0), BuildingBlock: TEMPAE_clean_linker_10, # of connection points: 2
#     Edge 138, Type (0, 0), BuildingBlock: TEMPAE_clean_linker_10, # of connection points: 2
#     Edge 139, Type (0, 0), BuildingBlock: TEMPAE_clean_linker_10, # of connection points: 2
#     Edge 140, Type (0, 0), BuildingBlock: TEMPAE_clean_linker_10, # of connection points: 2
#     Edge 141, Type (0, 0), BuildingBlock: TEMPAE_clean_linker_10, # of connection points: 2
#     Edge 142, Type (0, 0), BuildingBlock: TEMPAE_clean_linker_10, # of connection points: 2
#     Edge 143, Type (0, 0), BuildingBlock: TEMPAE_clean_linker_10, # of connection points: 2
# Relax obj value: 0.008
# Max RMSD: 0.067
# Mean RMSD: 0.067
data_MOF--net-ull--node1-QUQFOY_clean_sbu_1--edge1-TEMPAE_clean_linker_10
_symmetry_space_group_name_H-M    P1
_symmetry_Int_Tables_number       1
_symmetry_cell_setting            triclinic
loop_
_symmetry_equiv_pos_as_xyz
'x, y, z'
_cell_length_a     64.03764
_cell_length_b     64.023848
_cell_length_c     64.046513
_cell_angle_alpha  89.994346
_cell_angle_beta   89.981122
_cell_angle_gamma 89.991272
loop_
_atom_site_label
_atom_site_type_symbol
_atom_site_fract_x
_atom_site_fract_y
_atom_site_fract_z
_atom_type_partial_charge
O0 O 1.00456 0.34215 0.21377 0.0
Cd1 Cd 0.00657 0.36878 0.19595 0.0
Cd2 Cd 0.02528 0.34245 0.16841 0.0
O3 O 0.02446 0.32218 0.194 0.0
O4 O 0.00626 0.39278 0.21602 0.0
O5 O 0.03376 0.38453 0.1968 0.0
C6 C 0.02559 0.39604 0.21126 0.0
C7 C 0.05534 0.34637 0.14775 0.0
C8 C 0.01383 0.32489 0.21061 0.0
C9 C 0.98314 0.36092 0.15653 0.0
O10 O 0.9976 0.34787 0.15251 0.0
O11 O 0.98398 0.37216 0.17291 0.0
O12 O 0.04449 0.32942 0.14741 0.0
O13 O 0.04968 0.3609 0.16055 0.0
O14 O 0.67328 1.00299 0.21441 0.0
Cd15 Cd 0.64641 1.00497 0.19691 0.0
Cd16 Cd 0.67227 0.02377 0.16907 0.0
O17 O 0.69297 0.02282 0.19428 0.0
O18 O 0.62243 1.00504 0.21705 0.0
O19 O 0.63082 0.03225 0.1975 0.0
C20 C 0.61922 0.02431 0.212 0.0
C21 C 0.66779 0.05394 0.14872 0.0
C22 C 0.69051 0.0122 0.21093 0.0
C23 C 0.65372 0.98169 0.15727 0.0
O24 O 0.66664 0.9962 0.15309 0.0
O25 O 0.64278 0.9824 0.17387 0.0
O26 O 0.68481 0.0432 0.14798 0.0
O27 O 0.65354 0.04811 0.16176 0.0
O28 O 1.00537 0.6763 0.21143 0.0
Cd29 Cd 1.00174 0.65013 0.19268 0.0
Cd30 Cd 0.98483 0.67861 0.16768 0.0
O31 O 0.98361 0.69681 0.19444 0.0
O32 O 1.00269 0.62556 0.21218 0.0
O33 O 0.97433 0.63476 0.19484 0.0
C34 C 0.98308 0.62273 0.20848 0.0
C35 C 0.95593 0.67227 0.14607 0.0
C36 C 0.99537 0.69342 0.2101 0.0
C37 C 0.02632 0.66103 0.15497 0.0
O38 O 0.01381 0.67639 0.1536 0.0
O39 O 0.02306 0.64653 0.16821 0.0
O40 O 0.9649 0.69032 0.14655 0.0
O41 O 0.96286 0.65798 0.15851 0.0
O42 O 0.33534 1.00373 0.21369 0.0
Cd43 Cd 0.36211 1.00069 0.19567 0.0
Cd44 Cd 0.3347 0.98347 0.16967 0.0
O45 O 0.31556 0.98202 0.19578 0.0
O46 O 0.38621 1.00179 0.21572 0.0
O47 O 0.37787 0.97351 0.19782 0.0
C48 C 0.3895 0.98229 0.21178 0.0
C49 C 0.34205 0.95457 0.1483 0.0
C50 C 0.31833 0.99364 0.21167 0.0
C51 C 0.35208 0.02533 0.15773 0.0
O52 O 0.33706 0.0125 0.15568 0.0
O53 O 0.36608 0.02229 0.17153 0.0
O54 O 0.32395 0.96345 0.1481 0.0
O55 O 0.35582 0.96162 0.16125 0.0
O56 O 1.00458 0.6731 0.798 0.0
Cd57 Cd 0.00637 0.6455 0.8144 0.0
Cd58 Cd 0.02417 0.67098 0.84367 0.0
O59 O 0.02258 0.69303 0.81961 0.0
O60 O 0.00668 0.62249 0.79321 0.0
O61 O 0.03354 0.62965 0.81368 0.0
C62 C 0.02576 0.61877 0.79855 0.0
C63 C 0.05371 0.66793 0.86529 0.0
C64 C 0.01271 0.69066 0.80248 0.0
C65 C 0.9821 0.6506 0.85358 0.0
O66 O 0.99656 0.66322 0.85868 0.0
O67 O 0.98303 0.64066 0.83639 0.0
O68 O 0.04098 0.68344 0.86687 0.0
O69 O 0.05035 0.65453 0.85059 0.0
O70 O 0.34241 0.0072 0.79622 0.0
Cd71 Cd 0.3686 0.01079 0.81487 0.0
Cd72 Cd 0.34037 0.02765 0.84008 0.0
O73 O 0.32201 0.02889 0.81345 0.0
O74 O 0.39309 0.01052 0.79529 0.0
O75 O 0.38348 0.03845 0.81315 0.0
C76 C 0.39557 0.03014 0.79929 0.0
C77 C 0.34646 0.05659 0.86174 0.0
C78 C 0.32531 0.01721 0.7977 0.0
C79 C 0.358 0.986 0.85246 0.0
O80 O 0.34274 0.99862 0.85405 0.0
O81 O 0.37239 0.98926 0.83911 0.0
O82 O 0.32854 0.04738 0.86133 0.0
O83 O 0.36079 0.04983 0.84924 0.0
O84 O 0.00632 0.33503 0.79743 0.0
Cd85 Cd 1.00452 0.36235 0.81427 0.0
Cd86 Cd 0.98555 0.33711 0.84264 0.0
O87 O 0.98629 0.31584 0.81785 0.0
O88 O 1.00503 0.38581 0.79349 0.0
O89 O 0.97752 0.37846 0.81301 0.0
C90 C 0.98579 0.38953 0.79829 0.0
C91 C 0.95548 0.34255 0.86296 0.0
C92 C 0.99703 0.3179 0.80122 0.0
C93 C 0.02786 0.35547 0.85398 0.0
O94 O 0.01326 0.34273 0.85841 0.0
O95 O 0.02714 0.3662 0.83724 0.0
O96 O 0.96596 0.32539 0.86407 0.0
O97 O 0.96149 0.35638 0.84956 0.0
O98 O 0.67316 0.00797 0.79763 0.0
Cd99 Cd 0.64625 0.00588 0.81503 0.0
Cd100 Cd 0.67214 0.98677 0.84264 0.0
O101 O 0.69283 0.98774 0.81737 0.0
O102 O 0.62249 0.00653 0.79466 0.0
O103 O 0.63031 0.97882 0.81373 0.0
C104 C 0.619 0.98719 0.79925 0.0
C105 C 0.66707 0.95653 0.86281 0.0
C106 C 0.69037 0.99864 0.80089 0.0
C107 C 0.65385 0.02891 0.85476 0.0
O108 O 0.66679 0.01435 0.85876 0.0
O109 O 0.64273 0.02826 0.83828 0.0
O110 O 0.68427 0.96697 0.86366 0.0
O111 O 0.653 0.96267 0.84974 0.0
O112 O 0.21284 1.00349 0.34198 0.0
Cd113 Cd 0.19644 1.00558 0.36953 0.0
Cd114 Cd 0.16708 0.02296 0.34343 0.0
O115 O 0.19134 0.02112 0.32158 0.0
O116 O 0.21782 0.00604 0.39236 0.0
O117 O 0.19745 0.03295 0.38505 0.0
C118 C 0.21268 0.02523 0.39584 0.0
C119 C 0.14488 0.05215 0.34543 0.0
C120 C 0.2085 0.01137 0.32428 0.0
C121 C 0.15732 0.98118 0.36475 0.0
O122 O 0.1523 0.99543 0.35186 0.0
O123 O 0.17446 0.98226 0.37475 0.0
O124 O 0.14345 0.03878 0.33046 0.0
O125 O 0.15977 0.0497 0.35881 0.0
O126 O 0.00666 0.2137 0.33733 0.0
Cd127 Cd 1.00308 0.19519 0.36368 0.0
Cd128 Cd 0.98656 0.1696 0.3355 0.0
O129 O 0.98522 0.19612 0.31699 0.0
O130 O 1.00346 0.2149 0.38807 0.0
O131 O 0.97546 0.19706 0.37868 0.0
C132 C 0.98387 0.21092 0.3907 0.0
C133 C 0.95765 0.1479 0.34148 0.0
C134 C 0.99673 0.21199 0.32021 0.0
C135 C 0.02803 0.15746 0.35355 0.0
O136 O 0.01559 0.1557 0.33817 0.0
O137 O 0.02459 0.17097 0.36776 0.0
O138 O 0.96697 0.14827 0.32361 0.0
O139 O 0.9643 0.16043 0.35582 0.0
O140 O 0.799 0.00753 0.33903 0.0
Cd141 Cd 0.81655 1.00574 0.36586 0.0
Cd142 Cd 0.84404 0.98635 0.34014 0.0
O143 O 0.81869 0.98701 0.3196 0.0
O144 O 0.7964 0.00628 0.38984 0.0
O145 O 0.81559 0.9787 0.38184 0.0
C146 C 0.80116 0.98698 0.39329 0.0
C147 C 0.86425 0.95621 0.3454 0.0
C148 C 0.80221 0.99793 0.32196 0.0
C149 C 0.85627 0.02865 0.35786 0.0
O150 O 0.86017 0.01398 0.34504 0.0
O151 O 0.83985 0.02813 0.36908 0.0
O152 O 0.865 0.96646 0.32809 0.0
O153 O 0.85125 0.96249 0.35949 0.0
O154 O 1.0045 0.79753 0.34193 0.0
Cd155 Cd 0.00617 0.81492 0.36884 0.0
Cd156 Cd 0.02566 0.84258 0.3434 0.0
O157 O 0.02479 0.81745 0.32251 0.0
O158 O 1.00523 0.79457 0.39259 0.0
O159 O 0.03299 0.81371 0.38511 0.0
C160 C 0.0245 0.79921 0.39631 0.0
C161 C 0.05603 0.86242 0.3491 0.0
C162 C 0.01396 0.80091 0.32482 0.0
C163 C 0.98329 0.85469 0.36113 0.0
O164 O 0.99807 0.8588 0.34848 0.0
O165 O 0.98375 0.83811 0.3721 0.0
O166 O 0.04581 0.86359 0.3318 0.0
O167 O 0.04956 0.84923 0.36294 0.0
O168 O 0.21376 1.00525 0.67149 0.0
Cd169 Cd 0.19462 1.00137 0.64571 0.0
Cd170 Cd 0.17002 0.98485 0.67469 0.0
O171 O 0.19711 0.98361 0.69239 0.0
O172 O 0.21389 1.00205 0.62101 0.0
O173 O 0.19661 0.97378 0.63068 0.0
C174 C 0.21021 0.98238 0.61849 0.0
C175 C 0.14806 0.95602 0.66924 0.0
C176 C 0.21274 0.9953 0.68866 0.0
C177 C 0.15722 0.02623 0.65684 0.0
O178 O 0.15606 0.0139 0.67237 0.0
O179 O 0.17018 0.0227 0.64216 0.0
O180 O 0.14898 0.96526 0.68713 0.0
O181 O 0.16025 0.96265 0.65459 0.0
O182 O 1.00436 0.2116 0.67216 0.0
Cd183 Cd 0.00616 0.19566 0.64431 0.0
Cd184 Cd 0.02333 0.16568 0.66984 0.0
O185 O 0.02168 0.18949 0.69218 0.0
O186 O 0.00663 0.21734 0.62175 0.0
O187 O 0.03339 0.19659 0.62851 0.0
C188 C 0.0257 0.212 0.61795 0.0
C189 C 0.05235 0.14333 0.66734 0.0
C190 C 0.01212 0.2068 0.6898 0.0
C191 C 0.98142 0.15669 0.64854 0.0
O192 O 0.99568 0.15127 0.66124 0.0
O193 O 0.9826 0.17403 0.63889 0.0
O194 O 0.03901 0.1417 0.68232 0.0
O195 O 0.04997 0.15849 0.65425 0.0
O196 O 0.7968 1.00515 0.67119 0.0
Cd197 Cd 0.81397 0.00702 0.6441 0.0
Cd198 Cd 0.84193 0.02613 0.66943 0.0
O199 O 0.81702 0.0252 0.69055 0.0
O200 O 0.79357 0.00697 0.62031 0.0
O201 O 0.81314 0.03423 0.62841 0.0
C202 C 0.79853 0.02624 0.617 0.0
C203 C 0.86189 0.05644 0.66389 0.0
C204 C 0.80042 0.01443 0.68835 0.0
C205 C 0.85369 0.98382 0.65135 0.0
O206 O 0.85796 0.99852 0.66403 0.0
O207 O 0.83702 0.98442 0.6405 0.0
O208 O 0.86313 0.04602 0.68108 0.0
O209 O 0.84858 0.0502 0.65009 0.0
O210 O 0.00595 0.79927 0.67493 0.0
Cd211 Cd 1.00393 0.81639 0.6478 0.0
Cd212 Cd 0.98499 0.84434 0.67343 0.0
O213 O 0.98578 0.81929 0.69439 0.0
O214 O 1.00455 0.79578 0.6242 0.0
O215 O 0.97689 0.81501 0.6318 0.0
C216 C 0.98525 0.80041 0.62061 0.0
C217 C 0.95487 0.86459 0.66796 0.0
C218 C 0.99664 0.80275 0.69211 0.0
C219 C 0.0272 0.85608 0.65513 0.0
O220 O 0.01269 0.86023 0.66807 0.0
O221 O 0.02641 0.83954 0.64409 0.0
O222 O 0.96522 0.8656 0.6852 0.0
O223 O 0.96104 0.85132 0.65408 0.0
O224 O 0.3378 0.21097 1.00486 0.0
Cd225 Cd 0.36572 0.19513 0.0068 0.0
Cd226 Cd 0.34009 0.16524 0.02428 0.0
O227 O 0.31783 0.18911 0.02257 0.0
O228 O 0.38815 0.21696 0.0068 0.0
O229 O 0.38166 0.19661 0.03393 0.0
C230 C 0.39208 0.21196 0.02593 0.0
C231 C 0.34243 0.14286 0.0533 0.0
C232 C 0.32019 0.2063 0.01278 0.0
C233 C 0.36142 0.15594 0.9824 0.0
O234 O 0.34863 0.15071 0.99667 0.0
O235 O 0.37118 0.17322 0.98349 0.0
O236 O 0.32747 0.14131 0.03994 0.0
O237 O 0.35559 0.15797 0.05096 0.0
O238 O 0.33927 0.80086 1.00535 0.0
Cd239 Cd 0.36722 0.81665 1.00364 0.0
Cd240 Cd 0.34208 0.84635 0.98568 0.0
O241 O 0.31976 0.82251 0.98691 0.0
O242 O 0.38965 0.7948 1.00343 0.0
O243 O 0.38312 0.81536 0.97648 0.0
C244 C 0.39349 0.79989 0.9843 0.0
C245 C 0.3453 0.86865 0.95669 0.0
C246 C 0.32187 0.80544 0.99697 0.0
C247 C 0.36242 0.85578 0.02799 0.0
O248 O 0.34986 0.86091 0.0135 0.0
O249 O 0.37236 0.83858 0.02704 0.0
O250 O 0.32995 0.87024 0.9696 0.0
O251 O 0.35838 0.85354 0.95945 0.0
O252 O 0.21296 0.3349 0.00597 0.0
Cd253 Cd 0.1961 0.36222 1.00406 0.0
Cd254 Cd 0.1675 0.33672 0.98558 0.0
O255 O 0.19224 0.31539 0.98658 0.0
O256 O 0.21691 0.38561 1.0047 0.0
O257 O 0.19743 0.37844 0.97712 0.0
C258 C 0.21213 0.38947 0.9855 0.0
C259 C 0.1471 0.34154 0.95547 0.0
C260 C 0.20902 0.31761 0.99704 0.0
C261 C 0.15644 0.35578 0.02767 0.0
O262 O 0.15182 0.34289 0.01325 0.0
O263 O 0.17327 0.36634 0.02674 0.0
O264 O 0.146 0.32461 0.96632 0.0
O265 O 0.16051 0.35549 0.96115 0.0
O266 O 0.67477 0.21263 0.00829 0.0
Cd267 Cd 0.64787 0.19524 0.0063 0.0
Cd268 Cd 0.67368 0.16745 0.98737 0.0
O269 O 0.69444 0.19267 0.98828 0.0
O270 O 0.62411 0.21559 0.00707 0.0
O271 O 0.63179 0.19649 0.97934 0.0
C272 C 0.6205 0.21095 0.98778 0.0
C273 C 0.66862 0.14733 0.95713 0.0
C274 C 0.69199 0.20925 0.99902 0.0
C275 C 0.65526 0.15558 0.02949 0.0
O276 O 0.6682 0.15142 0.01498 0.0
O277 O 0.64427 0.17214 0.02875 0.0
O278 O 0.68578 0.14638 0.96761 0.0
O279 O 0.65457 0.16044 0.96326 0.0
O280 O 0.79803 0.67372 0.00589 0.0
Cd281 Cd 0.81535 0.64676 1.00371 0.0
Cd282 Cd 0.84277 0.67235 0.9843 0.0
O283 O 0.81755 0.6931 0.98517 0.0
O284 O 0.79499 0.62293 1.00387 0.0
O285 O 0.81419 0.63127 0.9764 0.0
C286 C 0.79966 0.61983 0.98449 0.0
C287 C 0.86267 0.6667 0.95399 0.0
C288 C 0.80121 0.6908 0.9963 0.0
C289 C 0.85516 0.65448 0.02649 0.0
O290 O 0.859 0.66737 0.01185 0.0
O291 O 0.83875 0.64324 0.02595 0.0
O292 O 0.86372 0.68405 0.96417 0.0
O293 O 0.84955 0.65281 0.96045 0.0
O294 O 0.67222 0.79813 1.00329 0.0
Cd295 Cd 0.64528 0.81551 1.0055 0.0
Cd296 Cd 0.67117 0.84342 0.0241 0.0
O297 O 0.69201 0.81831 0.02295 0.0
O298 O 0.6214 0.79523 0.00574 0.0
O299 O 0.6299 0.81477 0.0329 0.0
C300 C 0.61834 0.8002 0.02505 0.0
C301 C 0.66659 0.86355 0.05441 0.0
C302 C 0.68953 0.80167 0.01232 0.0
C303 C 0.65244 0.85516 0.98209 0.0
O304 O 0.6654 0.8594 0.99654 0.0
O305 O 0.6415 0.83855 0.98291 0.0
O306 O 0.68357 0.86451 0.04363 0.0
O307 O 0.65243 0.85046 0.04851 0.0
O308 O 0.21254 0.67835 1.00561 0.0
Cd309 Cd 0.19575 0.65077 0.00838 0.0
Cd310 Cd 0.16696 0.67832 0.02275 0.0
O311 O 0.19163 0.69937 0.02319 0.0
O312 O 0.21721 0.62792 0.0087 0.0
O313 O 0.19719 0.63525 0.03582 0.0
C314 C 0.21226 0.62438 0.02791 0.0
C315 C 0.14375 0.67424 0.05083 0.0
C316 C 0.20873 0.69619 0.01352 0.0
C317 C 0.15863 0.65695 0.98137 0.0
O318 O 0.15444 0.67191 0.9937 0.0
O319 O 0.17379 0.64465 0.98513 0.0
O320 O 0.14273 0.69015 0.03853 0.0
O321 O 0.15865 0.66096 0.04785 0.0
O322 O 0.79833 0.33899 1.00449 0.0
Cd323 Cd 0.81541 0.36615 0.0062 0.0
Cd324 Cd 0.84365 0.34074 0.02506 0.0
O325 O 0.81873 0.31966 0.02438 0.0
O326 O 0.7948 0.38974 0.00585 0.0
O327 O 0.81439 0.38216 0.03324 0.0
C328 C 0.79967 0.39333 0.02508 0.0
C329 C 0.86403 0.34592 0.05512 0.0
C330 C 0.80204 0.32184 0.01376 0.0
C331 C 0.85497 0.35894 0.98269 0.0
O332 O 0.85939 0.34621 0.99731 0.0
O333 O 0.83831 0.36979 0.98345 0.0
O334 O 0.86499 0.32878 0.04459 0.0
O335 O 0.85077 0.35989 0.04913 0.0
O336 O 0.50533 0.84054 0.71322 0.0
Cd337 Cd 0.50745 0.86716 0.69537 0.0
Cd338 Cd 0.5266 0.84084 0.66824 0.0
O339 O 0.52563 0.82058 0.69385 0.0
O340 O 0.50684 0.89125 0.71536 0.0
O341 O 0.53456 0.88303 0.69648 0.0
C342 C 0.5262 0.89457 0.71079 0.0
C343 C 0.5568 0.84566 0.64796 0.0
C344 C 0.51471 0.8233 0.71027 0.0
C345 C 0.4845 0.85886 0.65573 0.0
O346 O 0.49904 0.84581 0.65203 0.0
O347 O 0.48515 0.87032 0.67198 0.0
O348 O 0.54643 0.82841 0.64742 0.0
O349 O 0.55063 0.85993 0.66081 0.0
O350 O 0.17327 0.50253 0.71491 0.0
Cd351 Cd 0.14638 0.50478 0.6975 0.0
Cd352 Cd 0.17225 0.52365 0.66982 0.0
O353 O 0.19297 0.52261 0.69503 0.0
O354 O 0.12245 0.50488 0.71771 0.0
O355 O 0.131 0.53217 0.69834 0.0
C356 C 0.11939 0.52422 0.71282 0.0
C357 C 0.16732 0.55392 0.64971 0.0
C358 C 0.19051 0.51178 0.71155 0.0
C359 C 0.15369 0.48165 0.65779 0.0
O360 O 0.1667 0.49612 0.65372 0.0
O361 O 0.14265 0.48238 0.67432 0.0
O362 O 0.18446 0.54339 0.64879 0.0
O363 O 0.15324 0.54784 0.66281 0.0
O364 O 0.50726 0.17843 0.71205 0.0
Cd365 Cd 0.50401 0.15193 0.69371 0.0
Cd366 Cd 0.48718 0.17989 0.668 0.0
O367 O 0.48564 0.19854 0.6944 0.0
O368 O 0.50515 0.12775 0.71363 0.0
O369 O 0.4768 0.13623 0.69589 0.0
C370 C 0.48562 0.12455 0.70979 0.0
C371 C 0.45837 0.17343 0.64633 0.0
C372 C 0.49718 0.19548 0.71028 0.0
C373 C 0.52879 0.16211 0.65592 0.0
O374 O 0.51624 0.1774 0.65411 0.0
O375 O 0.52549 0.14794 0.6695 0.0
O376 O 0.46748 0.19141 0.64659 0.0
O377 O 0.46516 0.15924 0.65897 0.0
O378 O 0.83981 0.50575 0.71297 0.0
Cd379 Cd 0.86676 0.50369 0.6956 0.0
Cd380 Cd 0.84082 0.48526 0.66755 0.0
O381 O 0.82009 0.486 0.6928 0.0
O382 O 0.89055 0.50358 0.71598 0.0
O383 O 0.88234 0.47637 0.69638 0.0
C384 C 0.89377 0.48429 0.71102 0.0
C385 C 0.84532 0.45535 0.64676 0.0
C386 C 0.82255 0.49659 0.70947 0.0
C387 C 0.85947 0.52749 0.65623 0.0
O388 O 0.84646 0.51308 0.65193 0.0
O389 O 0.87051 0.52648 0.67274 0.0
O390 O 0.82831 0.4661 0.64617 0.0
O391 O 0.85954 0.46099 0.6599 0.0
O392 O 0.50464 0.17356 0.29547 0.0
Cd393 Cd 0.50658 0.14646 0.31264 0.0
Cd394 Cd 0.52577 0.17186 0.34054 0.0
O395 O 0.5246 0.19303 0.31568 0.0
O396 O 0.5063 0.12267 0.29226 0.0
O397 O 0.53369 0.13061 0.31172 0.0
C398 C 0.52556 0.11921 0.29718 0.0
C399 C 0.55623 0.16641 0.36027 0.0
C400 C 0.51382 0.19078 0.2991 0.0
C401 C 0.48359 0.15359 0.3525 0.0
O402 O 0.49828 0.1663 0.35674 0.0
O403 O 0.48412 0.14282 0.33578 0.0
O404 O 0.54575 0.18356 0.36162 0.0
O405 O 0.54996 0.15261 0.34697 0.0
O406 O 0.83862 0.50706 0.29698 0.0
Cd407 Cd 0.86577 0.50934 0.31398 0.0
Cd408 Cd 0.83992 0.52769 0.3422 0.0
O409 O 0.81889 0.52675 0.31721 0.0
O410 O 0.88919 0.50922 0.29318 0.0
O411 O 0.88141 0.53662 0.31269 0.0
C412 C 0.89255 0.52854 0.2979 0.0
C413 C 0.84475 0.55764 0.36286 0.0
C414 C 0.82131 0.51606 0.30059 0.0
C415 C 0.85891 0.48561 0.35345 0.0
O416 O 0.84582 0.49993 0.3578 0.0
O417 O 0.86986 0.48666 0.33687 0.0
O418 O 0.82772 0.54694 0.3637 0.0
O419 O 0.85878 0.55194 0.34952 0.0
O420 O 0.50896 0.83954 0.29966 0.0
Cd421 Cd 0.50684 0.8673 0.31574 0.0
Cd422 Cd 0.4896 0.84164 0.3454 0.0
O423 O 0.49134 0.81947 0.32147 0.0
O424 O 0.50576 0.89001 0.29422 0.0
O425 O 0.47927 0.88249 0.31507 0.0
C426 C 0.48661 0.8933 0.29966 0.0
C427 C 0.46049 0.84389 0.36762 0.0
C428 C 0.50108 0.8219 0.30427 0.0
C429 C 0.53141 0.86302 0.35477 0.0
O430 O 0.51717 0.8502 0.36 0.0
O431 O 0.53028 0.87281 0.33751 0.0
O432 O 0.47386 0.82895 0.36922 0.0
O433 O 0.46289 0.85711 0.35258 0.0
O434 O 0.17336 0.50858 0.29879 0.0
Cd435 Cd 0.14629 0.50633 0.31592 0.0
Cd436 Cd 0.17202 0.48735 0.34382 0.0
O437 O 0.19298 0.48854 0.31878 0.0
O438 O 0.12274 0.50706 0.29532 0.0
O439 O 0.13035 0.47927 0.31437 0.0
C440 C 0.11918 0.48772 0.29983 0.0
C441 C 0.16719 0.45702 0.3639 0.0
C442 C 0.19061 0.4994 0.30226 0.0
C443 C 0.15323 0.52931 0.35578 0.0
O444 O 0.16622 0.51484 0.35993 0.0
O445 O 0.14236 0.52863 0.33914 0.0
O446 O 0.18423 0.46769 0.36491 0.0
O447 O 0.15313 0.46299 0.35072 0.0
O448 O 0.71235 0.506 0.83642 0.0
Cd449 Cd 0.69493 0.50913 0.86362 0.0
Cd450 Cd 0.66727 0.52353 0.83536 0.0
O451 O 0.69251 0.52439 0.81509 0.0
O452 O 0.71593 0.50905 0.88685 0.0
O453 O 0.69663 0.53658 0.87909 0.0
C454 C 0.71134 0.52838 0.89023 0.0
C455 C 0.6439 0.55148 0.8395 0.0
C456 C 0.70928 0.51429 0.81861 0.0
C457 C 0.65811 0.48221 0.85629 0.0
O458 O 0.65486 0.49425 0.84086 0.0
O459 O 0.67236 0.48636 0.86949 0.0
O460 O 0.64325 0.5395 0.82332 0.0
O461 O 0.65851 0.54824 0.85304 0.0
O462 O 0.50529 0.71178 0.83658 0.0
Cd463 Cd 0.50166 0.69324 0.8629 0.0
Cd464 Cd 0.48466 0.66802 0.83468 0.0
O465 O 0.48348 0.69464 0.81626 0.0
O466 O 0.5027 0.71293 0.88731 0.0
O467 O 0.47427 0.69561 0.87828 0.0
C468 C 0.48307 0.70932 0.89019 0.0
C469 C 0.45571 0.64649 0.84118 0.0
C470 C 0.49527 0.71032 0.81949 0.0
C471 C 0.52616 0.65537 0.85228 0.0
O472 O 0.51361 0.65389 0.83696 0.0
O473 O 0.52294 0.66874 0.86666 0.0
O474 O 0.4647 0.64682 0.82314 0.0
O475 O 0.46267 0.65903 0.85538 0.0
O476 O 0.29783 0.50606 0.84046 0.0
Cd477 Cd 0.31509 0.50418 0.86748 0.0
Cd478 Cd 0.34269 0.48466 0.84213 0.0
O479 O 0.31764 0.48547 0.82123 0.0
O480 O 0.29475 0.50427 0.89134 0.0
O481 O 0.31417 0.47693 0.88305 0.0
C482 C 0.2996 0.48493 0.89451 0.0
C483 C 0.36245 0.45431 0.84806 0.0
C484 C 0.30119 0.49647 0.82341 0.0
C485 C 0.35494 0.52699 0.85977 0.0
O486 O 0.35892 0.51222 0.84707 0.0
O487 O 0.33842 0.52655 0.87086 0.0
O488 O 0.36369 0.46442 0.83069 0.0
O489 O 0.34924 0.46087 0.86181 0.0
O490 O 0.50422 0.29831 0.84281 0.0
Cd491 Cd 0.5057 0.31456 0.87046 0.0
Cd492 Cd 0.52367 0.34403 0.84534 0.0
O493 O 0.52238 0.32008 0.82318 0.0
O494 O 0.50617 0.29321 0.89328 0.0
O495 O 0.53288 0.31395 0.88622 0.0
C496 C 0.52524 0.29863 0.89695 0.0
C497 C 0.55294 0.36598 0.84828 0.0
C498 C 0.51258 0.30288 0.82539 0.0
C499 C 0.48139 0.35364 0.86557 0.0
O500 O 0.49596 0.35885 0.85312 0.0
O501 O 0.48223 0.33637 0.87537 0.0
O502 O 0.54 0.3676 0.83296 0.0
O503 O 0.54997 0.35107 0.86154 0.0
O504 O 0.71348 0.50772 0.17232 0.0
Cd505 Cd 0.69623 0.50555 0.14532 0.0
Cd506 Cd 0.66823 0.48704 0.17127 0.0
O507 O 0.69336 0.488 0.19213 0.0
O508 O 0.71672 0.50583 0.12162 0.0
O509 O 0.69735 0.47836 0.12954 0.0
C510 C 0.71195 0.48653 0.11822 0.0
C511 C 0.64771 0.45702 0.16641 0.0
C512 C 0.70997 0.49868 0.18964 0.0
C513 C 0.65675 0.52916 0.15255 0.0
O514 O 0.65249 0.51476 0.16558 0.0
O515 O 0.67328 0.5282 0.14152 0.0
O516 O 0.6469 0.46763 0.1835 0.0
O517 O 0.66093 0.46285 0.15233 0.0
O518 O 0.50611 0.71511 0.17528 0.0
Cd519 Cd 0.50761 0.69821 0.14799 0.0
Cd520 Cd 0.52638 0.66962 0.17314 0.0
O521 O 0.52585 0.69438 0.19443 0.0
O522 O 0.50714 0.71894 0.12451 0.0
O523 O 0.53451 0.69916 0.13171 0.0
C524 C 0.5263 0.71393 0.12066 0.0
C525 C 0.55632 0.64909 0.16783 0.0
C526 C 0.51535 0.71118 0.1924 0.0
C527 C 0.48394 0.65867 0.15488 0.0
O528 O 0.49856 0.65405 0.16753 0.0
O529 O 0.48475 0.67547 0.14424 0.0
O530 O 0.54577 0.64806 0.18494 0.0
O531 O 0.55044 0.6625 0.15395 0.0
O532 O 0.2981 0.50729 0.1736 0.0
Cd533 Cd 0.31524 0.50974 0.14655 0.0
Cd534 Cd 0.34342 0.52787 0.17249 0.0
O535 O 0.31839 0.52678 0.19345 0.0
O536 O 0.29467 0.51015 0.12292 0.0
O537 O 0.31429 0.53728 0.13136 0.0
C538 C 0.29957 0.5295 0.11994 0.0
C539 C 0.36394 0.55795 0.16801 0.0
C540 C 0.30172 0.51618 0.19097 0.0
C541 C 0.35473 0.48593 0.15325 0.0
O542 O 0.35909 0.50019 0.16641 0.0
O543 O 0.33813 0.48705 0.14234 0.0
O544 O 0.36481 0.54705 0.18492 0.0
O545 O 0.35068 0.55233 0.15389 0.0
O546 O 0.50609 0.29997 0.17189 0.0
Cd547 Cd 0.50376 0.31731 0.14497 0.0
Cd548 Cd 0.48535 0.3452 0.1711 0.0
O549 O 0.48631 0.31992 0.19181 0.0
O550 O 0.50401 0.29682 0.12129 0.0
O551 O 0.47648 0.31604 0.12937 0.0
C552 C 0.48465 0.30145 0.11804 0.0
C553 C 0.45529 0.36574 0.16638 0.0
C554 C 0.49703 0.30334 0.18922 0.0
C555 C 0.52739 0.35676 0.15226 0.0
O556 O 0.51308 0.36095 0.1654 0.0
O557 O 0.52635 0.34031 0.14112 0.0
O558 O 0.46594 0.36648 0.18345 0.0
O559 O 0.46112 0.35258 0.15224 0.0
O560 O 0.83924 0.71381 0.50553 0.0
Cd561 Cd 0.86623 0.69652 0.50762 0.0
Cd562 Cd 0.84022 0.66839 0.52589 0.0
O563 O 0.81937 0.69356 0.52507 0.0
O564 O 0.8899 0.71705 0.50749 0.0
O565 O 0.88197 0.69753 0.53484 0.0
C566 C 0.89326 0.7122 0.52677 0.0
C567 C 0.84511 0.64775 0.55586 0.0
C568 C 0.8219 0.71026 0.51451 0.0
C569 C 0.85901 0.65718 0.48373 0.0
O570 O 0.84595 0.65281 0.49808 0.0
O571 O 0.87005 0.6737 0.48483 0.0
O572 O 0.82803 0.64696 0.54524 0.0
O573 O 0.85917 0.66101 0.55006 0.0
O574 O 0.83679 0.29934 0.50385 0.0
Cd575 Cd 0.86419 0.31603 0.50207 0.0
Cd576 Cd 0.83897 0.34478 0.4836 0.0
O577 O 0.81759 0.32008 0.48418 0.0
O578 O 0.88738 0.29497 0.50247 0.0
O579 O 0.8803 0.31474 0.47506 0.0
C580 C 0.89116 0.29981 0.48326 0.0
C581 C 0.84414 0.36545 0.45371 0.0
C582 C 0.81964 0.3033 0.4947 0.0
C583 C 0.85769 0.3555 0.52592 0.0
O584 O 0.84487 0.36018 0.51147 0.0
O585 O 0.86832 0.33871 0.52492 0.0
O586 O 0.82711 0.36649 0.4644 0.0
O587 O 0.85801 0.35195 0.45943 0.0
O588 O 0.71501 0.8395 0.50734 0.0
Cd589 Cd 0.69796 0.86665 0.50539 0.0
Cd590 Cd 0.66996 0.84131 0.48625 0.0
O591 O 0.69483 0.8201 0.48729 0.0
O592 O 0.71852 0.89028 0.50586 0.0
O593 O 0.69915 0.8826 0.47834 0.0
C594 C 0.71375 0.89383 0.48658 0.0
C595 C 0.65017 0.84702 0.45585 0.0
C596 C 0.7114 0.8223 0.4981 0.0
C597 C 0.65815 0.85957 0.52847 0.0
O598 O 0.65386 0.84683 0.51382 0.0
O599 O 0.67484 0.87037 0.52786 0.0
O600 O 0.64878 0.82981 0.46623 0.0
O601 O 0.66353 0.86073 0.46218 0.0
O602 O 0.17081 0.7132 0.50961 0.0
Cd603 Cd 0.14414 0.69544 0.50793 0.0
Cd604 Cd 0.17003 0.66793 0.4887 0.0
O605 O 0.19045 0.6934 0.48941 0.0
O606 O 0.12016 0.71551 0.50861 0.0
O607 O 0.12805 0.69633 0.48099 0.0
C608 C 0.11664 0.71075 0.48933 0.0
C609 C 0.16536 0.64769 0.45848 0.0
C610 C 0.18794 0.70999 0.50012 0.0
C611 C 0.15217 0.65586 0.53102 0.0
O612 O 0.16496 0.65182 0.51634 0.0
O613 O 0.14102 0.67232 0.53044 0.0
O614 O 0.18251 0.64704 0.46901 0.0
O615 O 0.15106 0.66054 0.46458 0.0
O616 O 0.30005 0.17439 0.50639 0.0
Cd617 Cd 0.31756 0.14754 0.50432 0.0
Cd618 Cd 0.34486 0.17342 0.48485 0.0
O619 O 0.3195 0.19397 0.48579 0.0
O620 O 0.2973 0.12368 0.5053 0.0
O621 O 0.31605 0.13143 0.47736 0.0
C622 C 0.3017 0.12011 0.48594 0.0
C623 C 0.3649 0.16829 0.45456 0.0
C624 C 0.30313 0.19153 0.49686 0.0
C625 C 0.35739 0.15558 0.52701 0.0
O626 O 0.36116 0.16848 0.51237 0.0
O627 O 0.34102 0.14428 0.52651 0.0
O628 O 0.36569 0.18557 0.46487 0.0
O629 O 0.35197 0.15416 0.46087 0.0
O630 O 0.17355 0.29813 0.50386 0.0
Cd631 Cd 0.14648 0.31531 0.50603 0.0
Cd632 Cd 0.17215 0.34335 0.52478 0.0
O633 O 0.19315 0.31837 0.52365 0.0
O634 O 0.1228 0.29481 0.50586 0.0
O635 O 0.13085 0.31417 0.53329 0.0
C636 C 0.1195 0.29957 0.52518 0.0
C637 C 0.16735 0.36345 0.55509 0.0
C638 C 0.19081 0.30175 0.51296 0.0
C639 C 0.15343 0.35507 0.48276 0.0
O640 O 0.16634 0.35936 0.49725 0.0
O641 O 0.1426 0.3384 0.48353 0.0
O642 O 0.18437 0.3645 0.54437 0.0
O643 O 0.15329 0.35027 0.54914 0.0
O644 O 0.7129 0.17451 0.50148 0.0
Cd645 Cd 0.69672 0.14677 0.50329 0.0
Cd646 Cd 0.66702 0.17243 0.52074 0.0
O647 O 0.69094 0.1946 0.51891 0.0
O648 O 0.71811 0.12393 0.50382 0.0
O649 O 0.69742 0.13103 0.53054 0.0
C650 C 0.71268 0.12023 0.52289 0.0
C651 C 0.64492 0.17031 0.54996 0.0
C652 C 0.70821 0.19216 0.50929 0.0
C653 C 0.65759 0.15123 0.47887 0.0
O654 O 0.65231 0.16388 0.49323 0.0
O655 O 0.67493 0.14156 0.47985 0.0
O656 O 0.6433 0.18521 0.53654 0.0
O657 O 0.65991 0.15704 0.54751 0.0
O658 O 0.29929 0.83649 0.50585 0.0
Cd659 Cd 0.31754 0.86302 0.50918 0.0
Cd660 Cd 0.34327 0.83516 0.52606 0.0
O661 O 0.31688 0.81649 0.52761 0.0
O662 O 0.29749 0.88708 0.50814 0.0
O663 O 0.31524 0.87856 0.53647 0.0
C664 C 0.30125 0.89017 0.5277 0.0
C665 C 0.36501 0.84151 0.55485 0.0
C666 C 0.30104 0.81949 0.51599 0.0
C667 C 0.3553 0.85289 0.48441 0.0
O668 O 0.35712 0.83763 0.49698 0.0
O669 O 0.34174 0.86709 0.4877 0.0
O670 O 0.36469 0.82355 0.54571 0.0
O671 O 0.35238 0.85574 0.54811 0.0
C672 C 0.1005 0.45407 0.29207 0.0
C673 C 0.10374 0.4753 0.28767 0.0
C674 C 0.08722 0.44178 0.27961 0.0
C675 C 0.07694 0.45087 0.26224 0.0
C676 C 0.07982 0.47238 0.25796 0.0
C677 C 0.09314 0.48432 0.27072 0.0
C678 C 0.08449 0.41894 0.2848 0.0
C679 C 0.06918 0.48271 0.23964 0.0
C680 C 0.05963 0.41414 0.21865 0.0
C681 C 0.03835 0.41141 0.22314 0.0
C682 C 0.07227 0.4272 0.23101 0.0
C683 C 0.06347 0.43778 0.24836 0.0
C684 C 0.0419 0.43547 0.25267 0.0
C685 C 0.02962 0.42236 0.24003 0.0
C686 C 0.09516 0.42932 0.22577 0.0
C687 C 0.03188 0.44646 0.27097 0.0
H688 H 0.10861 0.44693 0.3051 0.0
H689 H 0.09555 0.50068 0.26712 0.0
H690 H 0.06769 0.4153 0.28694 0.0
H691 H 0.09023 0.40921 0.27166 0.0
H692 H 0.09303 0.41438 0.29919 0.0
H693 H 0.07253 0.49971 0.23878 0.0
H694 H 0.07442 0.47529 0.22488 0.0
H695 H 0.05203 0.48049 0.24069 0.0
H696 H 0.06655 0.40575 0.20568 0.0
H697 H 0.01322 0.42035 0.24369 0.0
H698 H 0.10474 0.42325 0.23886 0.0
H699 H 0.09926 0.44602 0.22369 0.0
H700 H 0.09944 0.42071 0.21133 0.0
H701 H 0.0391 0.44098 0.28574 0.0
H702 H 0.01478 0.44364 0.2718 0.0
H703 H 0.03464 0.46353 0.26992 0.0
C704 C 0.59249 0.02878 0.24035 0.0
C705 C 0.60369 0.03725 0.2235 0.0
C706 C 0.57909 0.04123 0.25253 0.0
C707 C 0.57674 0.06271 0.24777 0.0
C708 C 0.58762 0.07124 0.23047 0.0
C709 C 0.60095 0.05844 0.21858 0.0
C710 C 0.56779 0.0315 0.27079 0.0
C711 C 0.58549 0.09403 0.22477 0.0
C712 C 0.52964 0.09265 0.26861 0.0
C713 C 0.53827 0.10361 0.28553 0.0
C714 C 0.54188 0.07911 0.25637 0.0
C715 C 0.5633 0.07638 0.26113 0.0
C716 C 0.572 0.08703 0.27847 0.0
C717 C 0.5594 0.10051 0.29043 0.0
C718 C 0.53197 0.06806 0.23805 0.0
C719 C 0.59473 0.08449 0.28418 0.0
H720 H 0.5945 0.01245 0.24434 0.0
H721 H 0.60953 0.06515 0.20563 0.0
H722 H 0.57291 0.03903 0.28553 0.0
H723 H 0.55073 0.03413 0.26934 0.0
H724 H 0.5707 0.01443 0.272 0.0
H725 H 0.5944 0.0981 0.21045 0.0
H726 H 0.56882 0.098 0.22226 0.0
H727 H 0.59121 0.10389 0.23782 0.0
H728 H 0.51335 0.09494 0.26464 0.0
H729 H 0.56625 0.1089 0.30344 0.0
H730 H 0.53426 0.05094 0.23948 0.0
H731 H 0.53966 0.07305 0.22335 0.0
H732 H 0.51498 0.07131 0.2368 0.0
H733 H 0.59839 0.06775 0.2867 0.0
H734 H 0.59895 0.09332 0.2985 0.0
H735 H 0.6047 0.09003 0.27113 0.0
C736 C 0.94932 0.60447 0.21682 0.0
C737 C 0.97074 0.60719 0.22062 0.0
C738 C 0.93714 0.59111 0.22934 0.0
C739 C 0.94654 0.5802 0.24616 0.0
C740 C 0.96823 0.58256 0.24981 0.0
C741 C 0.98005 0.59596 0.237 0.0
C742 C 0.91412 0.58895 0.22479 0.0
C743 C 0.97889 0.57127 0.26755 0.0
C744 C 0.91084 0.56251 0.29051 0.0
C745 C 0.90763 0.54137 0.28569 0.0
C746 C 0.92371 0.57522 0.278 0.0
C747 C 0.9336 0.56664 0.26014 0.0
C748 C 0.93076 0.54521 0.25543 0.0
C749 C 0.91788 0.53286 0.26826 0.0
C750 C 0.92642 0.59794 0.28368 0.0
C751 C 0.94096 0.53543 0.23656 0.0
H752 H 0.94195 0.61307 0.20425 0.0
H753 H 0.99655 0.59796 0.24014 0.0
H754 H 0.91007 0.57227 0.2224 0.0
H755 H 0.9049 0.59458 0.23834 0.0
H756 H 0.90931 0.5979 0.21073 0.0
H757 H 0.99597 0.57427 0.26796 0.0
H758 H 0.97202 0.57629 0.28265 0.0
H759 H 0.9763 0.55419 0.26617 0.0
H760 H 0.903 0.56927 0.30391 0.0
H761 H 0.91548 0.51657 0.26432 0.0
H762 H 0.92017 0.60794 0.27099 0.0
H763 H 0.94325 0.60168 0.28536 0.0
H764 H 0.91831 0.60205 0.29846 0.0
H765 H 0.93522 0.54314 0.22215 0.0
H766 H 0.93774 0.51842 0.2354 0.0
H767 H 0.95811 0.53779 0.23716 0.0
C768 C 0.45209 0.91081 0.29291 0.0
C769 C 0.47319 0.90802 0.28765 0.0
C770 C 0.43888 0.92343 0.28067 0.0
C771 C 0.4469 0.93351 0.26267 0.0
C772 C 0.46828 0.93109 0.25752 0.0
C773 C 0.48113 0.91843 0.27005 0.0
C774 C 0.41622 0.92566 0.2868 0.0
C775 C 0.47749 0.94155 0.2385 0.0
C776 C 0.40822 0.94874 0.21996 0.0
C777 C 0.40522 0.97011 0.22385 0.0
C778 C 0.42189 0.93673 0.2323 0.0
C779 C 0.43284 0.94625 0.24901 0.0
C780 C 0.43016 0.96789 0.25278 0.0
C781 C 0.41643 0.97953 0.24018 0.0
C782 C 0.42437 0.91375 0.22764 0.0
C783 C 0.44151 0.97868 0.2704 0.0
H784 H 0.44576 0.90283 0.30644 0.0
H785 H 0.49739 0.91638 0.26579 0.0
H786 H 0.41219 0.94241 0.28866 0.0
H787 H 0.40611 0.9193 0.27426 0.0
H788 H 0.41255 0.91738 0.3016 0.0
H789 H 0.49453 0.93863 0.23696 0.0
H790 H 0.46959 0.93575 0.22422 0.0
H791 H 0.47484 0.95866 0.23924 0.0
H792 H 0.39964 0.94128 0.20743 0.0
H793 H 0.41421 0.996 0.24338 0.0
H794 H 0.41922 0.9044 0.24129 0.0
H795 H 0.44106 0.91002 0.22485 0.0
H796 H 0.4152 0.9088 0.21378 0.0
H797 H 0.43693 0.9716 0.28553 0.0
H798 H 0.43813 0.99569 0.27099 0.0
H799 H 0.45861 0.97648 0.26867 0.0
C800 C 0.10154 0.55849 0.7198 0.0
C801 C 0.10403 0.53721 0.72449 0.0
C802 C 0.08833 0.57131 0.73181 0.0
C803 C 0.07732 0.56271 0.74898 0.0
C804 C 0.07945 0.54117 0.75354 0.0
C805 C 0.09273 0.5287 0.74125 0.0
C806 C 0.08645 0.59417 0.72634 0.0
C807 C 0.06798 0.53135 0.77166 0.0
C808 C 0.05971 0.60016 0.79188 0.0
C809 C 0.03863 0.60337 0.7868 0.0
C810 C 0.07238 0.58678 0.77989 0.0
C811 C 0.06383 0.57634 0.76235 0.0
C812 C 0.04247 0.57921 0.75738 0.0
C813 C 0.03016 0.59264 0.76965 0.0
C814 C 0.09505 0.5841 0.78579 0.0
C815 C 0.03271 0.56838 0.73886 0.0
H816 H 0.11021 0.56525 0.70692 0.0
H817 H 0.09455 0.51231 0.74506 0.0
H818 H 0.06984 0.59829 0.72367 0.0
H819 H 0.09207 0.60385 0.73957 0.0
H820 H 0.09556 0.59834 0.71218 0.0
H821 H 0.07084 0.51427 0.77279 0.0
H822 H 0.07299 0.53879 0.78648 0.0
H823 H 0.05094 0.53403 0.77008 0.0
H824 H 0.06643 0.60837 0.80506 0.0
H825 H 0.01391 0.59501 0.76554 0.0
H826 H 0.10517 0.58968 0.77288 0.0
H827 H 0.09861 0.56732 0.78823 0.0
H828 H 0.09918 0.59281 0.80021 0.0
H829 H 0.04061 0.57343 0.72429 0.0
H830 H 0.01576 0.57177 0.73742 0.0
H831 H 0.03484 0.55123 0.74018 0.0
C832 C 0.42164 0.0343 0.77028 0.0
C833 C 0.41071 0.04299 0.7872 0.0
C834 C 0.43449 0.04667 0.75745 0.0
C835 C 0.43662 0.06829 0.76165 0.0
C836 C 0.42609 0.07705 0.77904 0.0
C837 C 0.41324 0.06433 0.79155 0.0
C838 C 0.4454 0.0367 0.73908 0.0
C839 C 0.42805 0.09997 0.7842 0.0
C840 C 0.48272 0.09835 0.73883 0.0
C841 C 0.47345 0.10895 0.72201 0.0
C842 C 0.47101 0.08491 0.75168 0.0
C843 C 0.44949 0.08185 0.74762 0.0
C844 C 0.44015 0.0921 0.73036 0.0
C845 C 0.45221 0.10555 0.71782 0.0
C846 C 0.48159 0.07435 0.76992 0.0
C847 C 0.4173 0.08915 0.72536 0.0
H848 H 0.41976 0.01786 0.76671 0.0
H849 H 0.40488 0.07122 0.80455 0.0
H850 H 0.43975 0.04385 0.72434 0.0
H851 H 0.46245 0.03959 0.73997 0.0
H852 H 0.44271 0.01957 0.73831 0.0
H853 H 0.41954 0.10422 0.79871 0.0
H854 H 0.44474 0.10423 0.7861 0.0
H855 H 0.42178 0.10948 0.77114 0.0
H856 H 0.49909 0.1009 0.74227 0.0
H857 H 0.44488 0.11365 0.7049 0.0
H858 H 0.47949 0.05718 0.76891 0.0
H859 H 0.47426 0.07955 0.78474 0.0
H860 H 0.49856 0.07784 0.77061 0.0
H861 H 0.41379 0.0723 0.72332 0.0
H862 H 0.41257 0.09759 0.71096 0.0
H863 H 0.40763 0.09487 0.73854 0.0
C864 C 0.92013 0.47982 0.73972 0.0
C865 C 0.90906 0.47131 0.72281 0.0
C866 C 0.93327 0.46736 0.75218 0.0
C867 C 0.93548 0.44582 0.74766 0.0
C868 C 0.92474 0.43723 0.73031 0.0
C869 C 0.91167 0.45005 0.71813 0.0
C870 C 0.94443 0.47718 0.77047 0.0
C871 C 0.92672 0.41438 0.72486 0.0
C872 C 0.98215 0.41575 0.76933 0.0
C873 C 0.97328 0.40505 0.7863 0.0
C874 C 0.97013 0.42922 0.75679 0.0
C875 C 0.94867 0.43216 0.7613 0.0
C876 C 0.93972 0.42176 0.77868 0.0
C877 C 0.9521 0.40834 0.79093 0.0
C878 C 0.98031 0.44 0.73846 0.0
C879 C 0.91695 0.42451 0.78412 0.0
H880 H 0.91822 0.49621 0.74353 0.0
H881 H 0.90319 0.44329 0.70515 0.0
H882 H 0.9391 0.46981 0.78522 0.0
H883 H 0.96149 0.4744 0.76922 0.0
H884 H 0.94165 0.49427 0.7715 0.0
H885 H 0.91793 0.41024 0.71049 0.0
H886 H 0.94338 0.41023 0.72255 0.0
H887 H 0.92078 0.40469 0.73795 0.0
H888 H 0.99847 0.41332 0.76555 0.0
H889 H 0.94507 0.40015 0.80397 0.0
H890 H 0.97817 0.45715 0.7397 0.0
H891 H 0.97272 0.43494 0.72374 0.0
H892 H 0.99729 0.43658 0.7374 0.0
H893 H 0.91338 0.4413 0.78646 0.0
H894 H 0.9125 0.41583 0.79847 0.0
H895 H 0.90708 0.41894 0.77101 0.0
C896 C 0.60043 0.95344 0.79169 0.0
C897 C 0.60356 0.97466 0.7872 0.0
C898 C 0.58722 0.94102 0.77927 0.0
C899 C 0.57689 0.94998 0.76186 0.0
C900 C 0.57964 0.97149 0.75752 0.0
C901 C 0.59289 0.98356 0.77023 0.0
C902 C 0.58464 0.91818 0.78454 0.0
C903 C 0.56895 0.98168 0.73914 0.0
C904 C 0.56006 0.91296 0.71831 0.0
C905 C 0.53878 0.91007 0.72272 0.0
C906 C 0.57254 0.92616 0.73069 0.0
C907 C 0.56358 0.93672 0.74797 0.0
C908 C 0.54202 0.93423 0.7522 0.0
C909 C 0.5299 0.92099 0.73954 0.0
C910 C 0.59543 0.92846 0.72553 0.0
C911 C 0.53183 0.94519 0.77043 0.0
H912 H 0.6086 0.94639 0.80473 0.0
H913 H 0.59522 0.99992 0.76656 0.0
H914 H 0.56785 0.91441 0.78661 0.0
H915 H 0.59053 0.90844 0.77148 0.0
H916 H 0.59314 0.91375 0.799 0.0
H917 H 0.57213 0.99871 0.73827 0.0
H918 H 0.57432 0.97429 0.72442 0.0
H919 H 0.55182 0.97929 0.74014 0.0
H920 H 0.5671 0.9046 0.70539 0.0
H921 H 0.5135 0.91885 0.74314 0.0
H922 H 0.60501 0.92253 0.73868 0.0
H923 H 0.59939 0.9452 0.72341 0.0
H924 H 0.59984 0.91984 0.71114 0.0
H925 H 0.53903 0.93982 0.78524 0.0
H926 H 0.51475 0.94222 0.7712 0.0
H927 H 0.53445 0.96228 0.76934 0.0
C928 C 0.24218 0.02987 0.42123 0.0
C929 C 0.22486 0.03829 0.41074 0.0
C930 C 0.25492 0.04235 0.43405 0.0
C931 C 0.25026 0.06384 0.43653 0.0
C932 C 0.23253 0.07234 0.42636 0.0
C933 C 0.22007 0.05949 0.41359 0.0
C934 C 0.27362 0.03263 0.44461 0.0
C935 C 0.22694 0.09513 0.42865 0.0
C936 C 0.27294 0.09361 0.48286 0.0
C937 C 0.28958 0.10453 0.47364 0.0
C938 C 0.26019 0.08017 0.47106 0.0
C939 C 0.26413 0.07749 0.44946 0.0
C940 C 0.28118 0.08811 0.44015 0.0
C941 C 0.29367 0.1015 0.45232 0.0
C942 C 0.24222 0.06915 0.48163 0.0
C943 C 0.28601 0.08563 0.41721 0.0
H944 H 0.24607 0.01353 0.41913 0.0
H945 H 0.20677 0.06618 0.40555 0.0
H946 H 0.28814 0.04022 0.43896 0.0
H947 H 0.2728 0.03521 0.46172 0.0
H948 H 0.27477 0.01558 0.44162 0.0
H949 H 0.21231 0.09921 0.42026 0.0
H950 H 0.22501 0.09912 0.4454 0.0
H951 H 0.23979 0.10497 0.42246 0.0
H952 H 0.26959 0.09586 0.4993 0.0
H953 H 0.30644 0.10987 0.44501 0.0
H954 H 0.24354 0.05203 0.4793 0.0
H955 H 0.22725 0.07416 0.47448 0.0
H956 H 0.24158 0.07241 0.49865 0.0
H957 H 0.2884 0.06889 0.41342 0.0
H958 H 0.30017 0.09447 0.41245 0.0
H959 H 0.2726 0.09119 0.40776 0.0
C960 C 0.91004 0.29248 0.4496 0.0
C961 C 0.90647 0.28763 0.47067 0.0
C962 C 0.9232 0.28003 0.43713 0.0
C963 C 0.93302 0.26222 0.44587 0.0
C964 C 0.9298 0.25748 0.46723 0.0
C965 C 0.91663 0.27023 0.47936 0.0
C966 C 0.92628 0.28574 0.41446 0.0
C967 C 0.93994 0.23866 0.47719 0.0
C968 C 0.94973 0.21901 0.40836 0.0
C969 C 0.97116 0.22297 0.40602 0.0
C970 C 0.93723 0.23144 0.4215 0.0
C971 C 0.94631 0.24833 0.43256 0.0
C972 C 0.968 0.25215 0.43058 0.0
C973 C 0.98015 0.23943 0.4174 0.0
C974 C 0.91419 0.22673 0.42324 0.0
C975 C 0.97833 0.26996 0.44207 0.0
H976 H 0.90227 0.30585 0.44271 0.0
H977 H 0.91397 0.26627 0.49559 0.0
H978 H 0.94317 0.28756 0.41103 0.0
H979 H 0.92032 0.273 0.40435 0.0
H980 H 0.91814 0.30046 0.4102 0.0
H981 H 0.9364 0.23746 0.49413 0.0
H982 H 0.93445 0.22421 0.46937 0.0
H983 H 0.95713 0.23938 0.47516 0.0
H984 H 0.94261 0.20637 0.39964 0.0
H985 H 0.99667 0.24269 0.41568 0.0
H986 H 0.90499 0.24022 0.41745 0.0
H987 H 0.90986 0.2243 0.43984 0.0
H988 H 0.90965 0.21263 0.4142 0.0
H989 H 0.97146 0.28502 0.43692 0.0
H990 H 0.99546 0.27049 0.43938 0.0
H991 H 0.97542 0.26855 0.45908 0.0
C992 C 0.72103 0.91242 0.45279 0.0
C993 C 0.72568 0.90931 0.47398 0.0
C994 C 0.73329 0.92569 0.44028 0.0
C995 C 0.7507 0.93613 0.44911 0.0
C996 C 0.7552 0.93341 0.47059 0.0
C997 C 0.74265 0.92008 0.48275 0.0
C998 C 0.72786 0.92823 0.41748 0.0
C999 C 0.77357 0.94424 0.48065 0.0
C1000 C 0.79393 0.95313 0.4118 0.0
C1001 C 0.78937 0.97437 0.40886 0.0
C1002 C 0.7817 0.94062 0.42511 0.0
C1003 C 0.76444 0.9495 0.43575 0.0
C1004 C 0.76005 0.97103 0.43322 0.0
C1005 C 0.77256 0.98319 0.41985 0.0
C1006 C 0.78701 0.91775 0.42743 0.0
C1007 C 0.74184 0.98115 0.44428 0.0
H1008 H 0.70798 0.90418 0.44584 0.0
H1009 H 0.74643 0.91778 0.49908 0.0
H1010 H 0.72567 0.945 0.41371 0.0
H1011 H 0.74091 0.92241 0.40767 0.0
H1012 H 0.71343 0.91963 0.41315 0.0
H1013 H 0.77455 0.94109 0.49768 0.0
H1014 H 0.78828 0.93894 0.47319 0.0
H1015 H 0.77245 0.96136 0.47823 0.0
H1016 H 0.80684 0.94614 0.40338 0.0
H1017 H 0.76885 0.99957 0.41769 0.0
H1018 H 0.77387 0.90807 0.42162 0.0
H1019 H 0.78926 0.91384 0.44416 0.0
H1020 H 0.80136 0.9134 0.41872 0.0
H1021 H 0.72703 0.97385 0.43902 0.0
H1022 H 0.74097 0.99822 0.44129 0.0
H1023 H 0.74305 0.97856 0.46136 0.0
C1024 C 0.02783 0.77028 0.42255 0.0
C1025 C 0.03685 0.78719 0.41189 0.0
C1026 C 0.03977 0.75755 0.43589 0.0
C1027 C 0.06128 0.76182 0.43872 0.0
C1028 C 0.07036 0.77919 0.42843 0.0
C1029 C 0.05806 0.79164 0.41515 0.0
C1030 C 0.02946 0.73922 0.44657 0.0
C1031 C 0.0932 0.78438 0.4311 0.0
C1032 C 0.09017 0.73944 0.4857 0.0
C1033 C 0.10108 0.72262 0.4768 0.0
C1034 C 0.07692 0.7521 0.4736 0.0
C1035 C 0.07443 0.74786 0.45204 0.0
C1036 C 0.08495 0.73056 0.44308 0.0
C1037 C 0.09815 0.71818 0.45555 0.0
C1038 C 0.06598 0.77035 0.48378 0.0
C1039 C 0.08264 0.72541 0.4202 0.0
H1040 H 0.01147 0.76666 0.42014 0.0
H1041 H 0.0652 0.80464 0.40699 0.0
H1042 H 0.03676 0.72445 0.44118 0.0
H1043 H 0.03186 0.74018 0.4637 0.0
H1044 H 0.01243 0.73846 0.44338 0.0
H1045 H 0.09772 0.79884 0.42264 0.0
H1046 H 0.09691 0.7864 0.4479 0.0
H1047 H 0.10291 0.77128 0.42523 0.0
H1048 H 0.09234 0.74305 0.50209 0.0
H1049 H 0.1065 0.70525 0.4485 0.0
H1050 H 0.0489 0.76934 0.48108 0.0
H1051 H 0.07145 0.78516 0.47665 0.0
H1052 H 0.06886 0.77105 0.50087 0.0
H1053 H 0.06591 0.72338 0.41621 0.0
H1054 H 0.0912 0.71097 0.41579 0.0
H1055 H 0.08866 0.73854 0.41061 0.0
C1056 C 0.2185 0.94841 0.60062 0.0
C1057 C 0.22245 0.96981 0.60322 0.0
C1058 C 0.2312 0.93599 0.58766 0.0
C1059 C 0.2484 0.94512 0.57712 0.0
C1060 C 0.2522 0.9668 0.57934 0.0
C1061 C 0.23917 0.97887 0.59228 0.0
C1062 C 0.22647 0.91298 0.58559 0.0
C1063 C 0.27036 0.97717 0.56844 0.0
C1064 C 0.29293 0.90882 0.56124 0.0
C1065 C 0.28878 0.90549 0.53998 0.0
C1066 C 0.28014 0.92194 0.5734 0.0
C1067 C 0.26266 0.9319 0.56416 0.0
C1068 C 0.25863 0.92891 0.54262 0.0
C1069 C 0.27174 0.91582 0.53081 0.0
C1070 C 0.28513 0.92484 0.59625 0.0
C1071 C 0.24016 0.93916 0.53215 0.0
H1072 H 0.20565 0.94124 0.60899 0.0
H1073 H 0.24244 0.99536 0.59422 0.0
H1074 H 0.22463 0.90877 0.56889 0.0
H1075 H 0.23971 0.90369 0.5918 0.0
H1076 H 0.21205 0.90843 0.5941 0.0
H1077 H 0.27081 0.99429 0.57122 0.0
H1078 H 0.28524 0.97027 0.57402 0.0
H1079 H 0.26948 0.97435 0.55138 0.0
H1080 H 0.30602 0.90093 0.56849 0.0
H1081 H 0.26832 0.91331 0.51443 0.0
H1082 H 0.27207 0.91881 0.60591 0.0
H1083 H 0.28683 0.9417 0.59986 0.0
H1084 H 0.2997 0.91665 0.60091 0.0
H1085 H 0.22546 0.93363 0.53948 0.0
H1086 H 0.23949 0.93574 0.51516 0.0
H1087 H 0.24083 0.95633 0.53433 0.0
C1088 C 0.03019 0.24138 0.59236 0.0
C1089 C 0.03865 0.22406 0.60284 0.0
C1090 C 0.04256 0.2539 0.5792 0.0
C1091 C 0.06395 0.24905 0.57638 0.0
C1092 C 0.0725 0.23136 0.5866 0.0
C1093 C 0.05977 0.2191 0.5997 0.0
C1094 C 0.03279 0.27256 0.5686 0.0
C1095 C 0.0952 0.22557 0.58398 0.0
C1096 C 0.093 0.27092 0.52919 0.0
C1097 C 0.10416 0.28764 0.53797 0.0
C1098 C 0.07972 0.2584 0.54143 0.0
C1099 C 0.07747 0.26265 0.56302 0.0
C1100 C 0.08836 0.27976 0.57189 0.0
C1101 C 0.10156 0.29202 0.55929 0.0
C1102 C 0.06839 0.24037 0.53132 0.0
C1103 C 0.08635 0.2849 0.59481 0.0
H1104 H 0.01392 0.2454 0.59468 0.0
H1105 H 0.06648 0.2058 0.60774 0.0
H1106 H 0.04063 0.28708 0.57388 0.0
H1107 H 0.03501 0.27149 0.55145 0.0
H1108 H 0.01582 0.27391 0.57193 0.0
H1109 H 0.09933 0.21105 0.59253 0.0
H1110 H 0.09887 0.22336 0.5672 0.0
H1111 H 0.10524 0.23845 0.58978 0.0
H1112 H 0.09491 0.26735 0.51276 0.0
H1113 H 0.11012 0.30485 0.56625 0.0
H1114 H 0.05132 0.24186 0.53392 0.0
H1115 H 0.07341 0.22546 0.53859 0.0
H1116 H 0.07134 0.23947 0.51425 0.0
H1117 H 0.06971 0.28748 0.59888 0.0
H1118 H 0.09539 0.29903 0.59921 0.0
H1119 H 0.09196 0.27155 0.60432 0.0
C1120 C 0.79154 0.06039 0.59893 0.0
C1121 C 0.78684 0.03914 0.60158 0.0
C1122 C 0.77951 0.07314 0.58566 0.0
C1123 C 0.76231 0.06448 0.57475 0.0
C1124 C 0.75774 0.04296 0.57704 0.0
C1125 C 0.77004 0.03057 0.59039 0.0
C1126 C 0.78499 0.09598 0.58362 0.0
C1127 C 0.7396 0.03308 0.56568 0.0
C1128 C 0.7194 0.10185 0.55695 0.0
C1129 C 0.72447 0.10492 0.53585 0.0
C1130 C 0.7314 0.08855 0.5697 0.0
C1131 C 0.74894 0.07803 0.56119 0.0
C1132 C 0.75389 0.08077 0.53981 0.0
C1133 C 0.74162 0.09414 0.52743 0.0
C1134 C 0.72552 0.08602 0.59239 0.0
C1135 C 0.7724 0.06986 0.53009 0.0
H1136 H 0.80444 0.0672 0.60751 0.0
H1137 H 0.76622 0.01419 0.59234 0.0
H1138 H 0.78766 0.09998 0.56697 0.0
H1139 H 0.77178 0.10571 0.58919 0.0
H1140 H 0.79917 0.1002 0.59268 0.0
H1141 H 0.73846 0.01602 0.56865 0.0
H1142 H 0.72479 0.04056 0.57066 0.0
H1143 H 0.74117 0.03565 0.54862 0.0
H1144 H 0.70623 0.11011 0.56364 0.0
H1145 H 0.74572 0.0964 0.51116 0.0
H1146 H 0.73845 0.09165 0.60245 0.0
H1147 H 0.72306 0.06927 0.59606 0.0
H1148 H 0.71111 0.09479 0.59648 0.0
H1149 H 0.78698 0.07494 0.53793 0.0
H1150 H 0.77381 0.07313 0.51312 0.0
H1151 H 0.77106 0.05273 0.53234 0.0
C1152 C 0.91943 0.74114 0.53093 0.0
C1153 C 0.90856 0.72416 0.53958 0.0
C1154 C 0.93256 0.75374 0.54323 0.0
C1155 C 0.93498 0.7493 0.56476 0.0
C1156 C 0.92445 0.73189 0.57349 0.0
C1157 C 0.91137 0.71956 0.56083 0.0
C1158 C 0.9435 0.77211 0.53327 0.0
C1159 C 0.92666 0.72652 0.59634 0.0
C1160 C 0.98169 0.77144 0.5944 0.0
C1161 C 0.97275 0.78835 0.60515 0.0
C1162 C 0.96968 0.75878 0.58104 0.0
C1163 C 0.94816 0.7631 0.57826 0.0
C1164 C 0.93915 0.78043 0.5887 0.0
C1165 C 0.95152 0.79281 0.602 0.0
C1166 C 0.97994 0.74051 0.57022 0.0
C1167 C 0.91631 0.78567 0.58611 0.0
H1168 H 0.91737 0.74488 0.51455 0.0
H1169 H 0.90305 0.70652 0.5677 0.0
H1170 H 0.9381 0.78684 0.54063 0.0
H1171 H 0.96059 0.77101 0.53591 0.0
H1172 H 0.94057 0.77306 0.5162 0.0
H1173 H 0.91802 0.71208 0.60058 0.0
H1174 H 0.94337 0.72436 0.60034 0.0
H1175 H 0.92068 0.73958 0.60603 0.0
H1176 H 0.99805 0.7678 0.59672 0.0
H1177 H 0.94443 0.80579 0.61023 0.0
H1178 H 0.97764 0.74168 0.55309 0.0
H1179 H 0.97253 0.72572 0.5754 0.0
H1180 H 0.99695 0.73962 0.57348 0.0
H1181 H 0.9126 0.78792 0.56934 0.0
H1182 H 0.91181 0.80002 0.59476 0.0
H1183 H 0.90659 0.77251 0.59181 0.0
C1184 C 0.48074 0.27258 0.09177 0.0
C1185 C 0.47189 0.28933 0.10283 0.0
C1186 C 0.46853 0.25982 0.07871 0.0
C1187 C 0.44689 0.26385 0.07657 0.0
C1188 C 0.43794 0.28101 0.08733 0.0
C1189 C 0.45052 0.29351 0.10032 0.0
C1190 C 0.47873 0.24175 0.0675 0.0
C1191 C 0.41496 0.28593 0.08543 0.0
C1192 C 0.41741 0.24165 0.02983 0.0
C1193 C 0.40715 0.22435 0.0386 0.0
C1194 C 0.43052 0.25448 0.04191 0.0
C1195 C 0.43354 0.24995 0.06335 0.0
C1196 C 0.42355 0.23228 0.07221 0.0
C1197 C 0.41049 0.21972 0.05976 0.0
C1198 C 0.44086 0.27311 0.03182 0.0
C1199 C 0.4264 0.22683 0.09497 0.0
H1200 H 0.49721 0.26916 0.09361 0.0
H1201 H 0.44349 0.30636 0.10881 0.0
H1202 H 0.47166 0.22683 0.07279 0.0
H1203 H 0.47595 0.24299 0.05045 0.0
H1204 H 0.49583 0.24105 0.0703 0.0
H1205 H 0.4105 0.30016 0.09431 0.0
H1206 H 0.41073 0.28823 0.06879 0.0
H1207 H 0.4056 0.27259 0.09132 0.0
H1208 H 0.41493 0.24542 0.01352 0.0
H1209 H 0.40264 0.20644 0.06671 0.0
H1210 H 0.45804 0.27223 0.03389 0.0
H1211 H 0.4355 0.28768 0.03951 0.0
H1212 H 0.43738 0.2742 0.01486 0.0
H1213 H 0.44324 0.22481 0.09852 0.0
H1214 H 0.41802 0.21229 0.09937 0.0
H1215 H 0.42056 0.23979 0.10487 0.0
C1216 C 0.41177 0.79236 0.95033 0.0
C1217 C 0.40833 0.78742 0.97141 0.0
C1218 C 0.42446 0.77969 0.9376 0.0
C1219 C 0.43395 0.76157 0.94609 0.0
C1220 C 0.43086 0.75673 0.96745 0.0
C1221 C 0.41815 0.7697 0.97982 0.0
C1222 C 0.42742 0.7855 0.91495 0.0
C1223 C 0.44066 0.7376 0.97715 0.0
C1224 C 0.44928 0.71817 0.90817 0.0
C1225 C 0.47078 0.72163 0.90565 0.0
C1226 C 0.43719 0.73085 0.92147 0.0
C1227 C 0.44677 0.74747 0.93252 0.0
C1228 C 0.46853 0.75078 0.93035 0.0
C1229 C 0.48026 0.73783 0.91701 0.0
C1230 C 0.41407 0.72668 0.92341 0.0
C1231 C 0.47939 0.76828 0.94183 0.0
H1232 H 0.40425 0.80598 0.94365 0.0
H1233 H 0.41558 0.76568 0.99606 0.0
H1234 H 0.4443 0.78696 0.91134 0.0
H1235 H 0.42107 0.77297 0.90481 0.0
H1236 H 0.41956 0.80043 0.91089 0.0
H1237 H 0.43726 0.73633 0.99411 0.0
H1238 H 0.43476 0.72335 0.96925 0.0
H1239 H 0.45784 0.73794 0.97494 0.0
H1240 H 0.44178 0.70574 0.89947 0.0
H1241 H 0.49683 0.74071 0.91516 0.0
H1242 H 0.40514 0.74044 0.91782 0.0
H1243 H 0.40985 0.72421 0.94002 0.0
H1244 H 0.40909 0.71278 0.91429 0.0
H1245 H 0.4728 0.78352 0.93687 0.0
H1246 H 0.49649 0.76845 0.93894 0.0
H1247 H 0.47666 0.76681 0.95887 0.0
C1248 C 0.29246 0.4507 0.91234 0.0
C1249 C 0.28773 0.47195 0.90973 0.0
C1250 C 0.2802 0.43782 0.92527 0.0
C1251 C 0.26273 0.44633 0.93586 0.0
C1252 C 0.25816 0.46787 0.93367 0.0
C1253 C 0.2707 0.4804 0.92067 0.0
C1254 C 0.28572 0.41497 0.92725 0.0
C1255 C 0.23972 0.4776 0.94469 0.0
C1256 C 0.21956 0.40853 0.95198 0.0
C1257 C 0.22408 0.40515 0.97315 0.0
C1258 C 0.2318 0.42212 0.93977 0.0
C1259 C 0.24902 0.4326 0.9489 0.0
C1260 C 0.25339 0.42958 0.97036 0.0
C1261 C 0.24089 0.41594 0.98221 0.0
C1262 C 0.22652 0.42494 0.91697 0.0
C1263 C 0.27156 0.44044 0.98073 0.0
H1264 H 0.30555 0.44398 0.90396 0.0
H1265 H 0.26685 0.49677 0.91874 0.0
H1266 H 0.28789 0.4108 0.94392 0.0
H1267 H 0.27272 0.40527 0.92117 0.0
H1268 H 0.30018 0.41091 0.91857 0.0
H1269 H 0.23868 0.4947 0.94195 0.0
H1270 H 0.22505 0.47022 0.93919 0.0
H1271 H 0.2408 0.47477 0.96174 0.0
H1272 H 0.20665 0.40027 0.9448 0.0
H1273 H 0.24456 0.41344 0.99853 0.0
H1274 H 0.23972 0.41944 0.90717 0.0
H1275 H 0.22416 0.44175 0.91345 0.0
H1276 H 0.21223 0.41624 0.91238 0.0
H1277 H 0.28639 0.43545 0.97329 0.0
H1278 H 0.27247 0.43701 0.99771 0.0
H1279 H 0.27026 0.45759 0.97861 0.0
C1280 C 0.59379 0.23947 0.98452 0.0
C1281 C 0.60487 0.22288 0.97539 0.0
C1282 C 0.58025 0.25203 0.97263 0.0
C1283 C 0.57765 0.24794 0.95106 0.0
C1284 C 0.58842 0.23094 0.94185 0.0
C1285 C 0.60189 0.21863 0.9541 0.0
C1286 C 0.56904 0.26995 0.98309 0.0
C1287 C 0.58603 0.22597 0.91893 0.0
C1288 C 0.52997 0.26933 0.92256 0.0
C1289 C 0.5383 0.28667 0.912 0.0
C1290 C 0.5425 0.25678 0.93551 0.0
C1291 C 0.56392 0.26164 0.93804 0.0
C1292 C 0.57233 0.27938 0.92781 0.0
C1293 C 0.55943 0.29166 0.91492 0.0
C1294 C 0.5329 0.23805 0.94615 0.0
C1295 C 0.59506 0.28517 0.93015 0.0
H1296 H 0.59598 0.24293 1.00094 0.0
H1297 H 0.61039 0.20589 0.94688 0.0
H1298 H 0.57394 0.28493 0.97589 0.0
H1299 H 0.55194 0.26848 0.98072 0.0
H1300 H 0.57223 0.27069 1.00012 0.0
H1301 H 0.595 0.21187 0.91426 0.0
H1302 H 0.56932 0.22343 0.91512 0.0
H1303 H 0.59149 0.23939 0.90942 0.0
H1304 H 0.51368 0.26529 0.9204 0.0
H1305 H 0.56604 0.30498 0.90683 0.0
H1306 H 0.53544 0.23896 0.96325 0.0
H1307 H 0.5406 0.22356 0.94058 0.0
H1308 H 0.51586 0.23677 0.94313 0.0
H1309 H 0.59897 0.2872 0.9469 0.0
H1310 H 0.59904 0.2998 0.9217 0.0
H1311 H 0.60502 0.27237 0.92405 0.0
C1312 C 0.71906 0.56224 0.90863 0.0
C1313 C 0.72346 0.54098 0.90556 0.0
C1314 C 0.7314 0.57459 0.92199 0.0
C1315 C 0.74863 0.56553 0.93253 0.0
C1316 C 0.75293 0.54401 0.92978 0.0
C1317 C 0.74031 0.53202 0.91638 0.0
C1318 C 0.7262 0.59745 0.92455 0.0
C1319 C 0.77111 0.5337 0.94069 0.0
C1320 C 0.79228 0.60199 0.95032 0.0
C1321 C 0.78763 0.60469 0.97157 0.0
C1322 C 0.7799 0.58909 0.93753 0.0
C1323 C 0.76238 0.57865 0.94613 0.0
C1324 C 0.75786 0.58098 0.96765 0.0
C1325 C 0.77053 0.59392 0.98009 0.0
C1326 C 0.78537 0.58695 0.91469 0.0
C1327 C 0.73937 0.57013 0.97747 0.0
H1328 H 0.70612 0.56934 0.90035 0.0
H1329 H 0.74391 0.51563 0.91412 0.0
H1330 H 0.72383 0.60115 0.94131 0.0
H1331 H 0.73943 0.60713 0.91896 0.0
H1332 H 0.71193 0.60199 0.91579 0.0
H1333 H 0.77204 0.5167 0.93736 0.0
H1334 H 0.78594 0.54113 0.93566 0.0
H1335 H 0.76981 0.53593 0.95782 0.0
H1336 H 0.80541 0.61024 0.94355 0.0
H1337 H 0.76674 0.59593 0.99647 0.0
H1338 H 0.77236 0.59298 0.90497 0.0
H1339 H 0.78751 0.57024 0.91064 0.0
H1340 H 0.79984 0.59557 0.91053 0.0
H1341 H 0.72473 0.5756 0.96999 0.0
H1342 H 0.73829 0.57307 0.99453 0.0
H1343 H 0.74041 0.55304 0.97485 0.0
C1344 C 0.55992 0.72092 0.10159 0.0
C1345 C 0.5388 0.72573 0.10498 0.0
C1346 C 0.5723 0.73301 0.08803 0.0
C1347 C 0.56342 0.75039 0.07758 0.0
C1348 C 0.54201 0.75507 0.08062 0.0
C1349 C 0.52998 0.7427 0.09424 0.0
C1350 C 0.59503 0.7274 0.08518 0.0
C1351 C 0.5319 0.77341 0.06979 0.0
C1352 C 0.60058 0.79328 0.05938 0.0
C1353 C 0.60306 0.78851 0.03813 0.0
C1354 C 0.58751 0.78121 0.07229 0.0
C1355 C 0.57663 0.7639 0.06382 0.0
C1356 C 0.57872 0.75928 0.04229 0.0
C1357 C 0.59187 0.77162 0.02973 0.0
C1358 C 0.58566 0.78676 0.09513 0.0
C1359 C 0.5674 0.741 0.0326 0.0
H1360 H 0.56691 0.70788 0.10982 0.0
H1361 H 0.51371 0.74661 0.09675 0.0
H1362 H 0.59849 0.72497 0.06839 0.0
H1363 H 0.60501 0.74045 0.09066 0.0
H1364 H 0.59941 0.71304 0.09389 0.0
H1365 H 0.51494 0.77459 0.07327 0.0
H1366 H 0.53959 0.78812 0.07476 0.0
H1367 H 0.53397 0.77208 0.05265 0.0
H1368 H 0.60916 0.80625 0.06605 0.0
H1369 H 0.59368 0.76775 0.01336 0.0
H1370 H 0.59155 0.77367 0.10483 0.0
H1371 H 0.56903 0.78921 0.09933 0.0
H1372 H 0.59457 0.80109 0.09917 0.0
H1373 H 0.57268 0.72625 0.04001 0.0
H1374 H 0.57012 0.73989 0.01551 0.0
H1375 H 0.55037 0.74237 0.03545 0.0
C1376 C 0.21964 0.60601 0.06187 0.0
C1377 C 0.22434 0.60914 0.04069 0.0
C1378 C 0.23185 0.59267 0.07438 0.0
C1379 C 0.24925 0.58218 0.06556 0.0
C1380 C 0.25387 0.58503 0.04412 0.0
C1381 C 0.24139 0.59842 0.03198 0.0
C1382 C 0.2263 0.59002 0.09714 0.0
C1383 C 0.27223 0.57417 0.03407 0.0
C1384 C 0.29237 0.56394 0.10247 0.0
C1385 C 0.28766 0.54267 0.10491 0.0
C1386 C 0.28017 0.5769 0.08956 0.0
C1387 C 0.26276 0.56844 0.07881 0.0
C1388 C 0.25815 0.54691 0.08092 0.0
C1389 C 0.27064 0.5343 0.09389 0.0
C1390 C 0.28571 0.59974 0.08769 0.0
C1391 C 0.23979 0.53723 0.06975 0.0
H1392 H 0.20655 0.61422 0.06879 0.0
H1393 H 0.24522 0.60073 0.01566 0.0
H1394 H 0.22379 0.57325 0.10072 0.0
H1395 H 0.23942 0.59548 0.10704 0.0
H1396 H 0.21202 0.59884 0.10152 0.0
H1397 H 0.27348 0.57765 0.01712 0.0
H1398 H 0.28693 0.57909 0.04181 0.0
H1399 H 0.27085 0.55702 0.03612 0.0
H1400 H 0.30544 0.57059 0.11092 0.0
H1401 H 0.2668 0.51792 0.09568 0.0
H1402 H 0.27261 0.60946 0.09354 0.0
H1403 H 0.28816 0.60391 0.07105 0.0
H1404 H 0.30002 0.6038 0.09659 0.0
H1405 H 0.2251 0.54477 0.075 0.0
H1406 H 0.23858 0.52016 0.0726 0.0
H1407 H 0.24112 0.53992 0.05269 0.0
C1408 C 0.74074 0.48259 0.09186 0.0
C1409 C 0.72388 0.47382 0.10281 0.0
C1410 C 0.7533 0.4704 0.07857 0.0
C1411 C 0.74892 0.44885 0.07608 0.0
C1412 C 0.73163 0.44 0.08671 0.0
C1413 C 0.71935 0.45256 0.09994 0.0
C1414 C 0.77153 0.48048 0.06753 0.0
C1415 C 0.72634 0.41714 0.08443 0.0
C1416 C 0.77071 0.41951 0.02903 0.0
C1417 C 0.78773 0.40875 0.03775 0.0
C1418 C 0.75814 0.43279 0.04122 0.0
C1419 C 0.76265 0.43547 0.0627 0.0
C1420 C 0.78009 0.42504 0.0715 0.0
C1421 C 0.79238 0.41182 0.05895 0.0
C1422 C 0.73975 0.44361 0.03119 0.0
C1423 C 0.78553 0.42754 0.0943 0.0
H1424 H 0.74443 0.49898 0.09397 0.0
H1425 H 0.7064 0.4456 0.10832 0.0
H1426 H 0.78633 0.47313 0.07276 0.0
H1427 H 0.7703 0.47794 0.05045 0.0
H1428 H 0.77245 0.49754 0.07056 0.0
H1429 H 0.71201 0.41278 0.09318 0.0
H1430 H 0.72404 0.41321 0.06772 0.0
H1431 H 0.7395 0.40747 0.09021 0.0
H1432 H 0.76692 0.41724 0.01269 0.0
H1433 H 0.80545 0.40359 0.06587 0.0
H1434 H 0.74087 0.46073 0.03359 0.0
H1435 H 0.72505 0.43832 0.03869 0.0
H1436 H 0.73872 0.44044 0.01417 0.0
H1437 H 0.78773 0.4443 0.09808 0.0
H1438 H 0.79996 0.41892 0.09861 0.0
H1439 H 0.77248 0.42172 0.1041 0.0
C1440 C 0.01414 0.24414 0.30612 0.0
C1441 C 0.99921 0.22825 0.30378 0.0
C1442 C 0.01705 0.2594 0.29062 0.0
C1443 C 1.00463 0.25893 0.27235 0.0
C1444 C 0.98954 0.24294 0.26985 0.0
C1445 C 0.98706 0.22776 0.28554 0.0
C1446 C 0.03338 0.27611 0.29387 0.0
C1447 C 0.97585 0.242 0.25069 0.0
C1448 C 0.99775 0.31014 0.24309 0.0
C1449 C 0.01169 0.30787 0.22629 0.0
C1450 C 0.99518 0.29427 0.25799 0.0
C1451 C 0.00693 0.27563 0.25625 0.0
C1452 C 0.02105 0.27319 0.23938 0.0
C1453 C 0.02321 0.28929 0.22455 0.0
C1454 C 0.97986 0.29748 0.27564 0.0
C1455 C 0.03398 0.25361 0.23707 0.0
H1456 H 0.02371 0.24463 0.32007 0.0
H1457 H 0.9755 0.21556 0.28355 0.0
H1458 H 0.04457 0.27611 0.28064 0.0
H1459 H 0.02585 0.29171 0.29424 0.0
H1460 H 0.04224 0.2739 0.30862 0.0
H1461 H 0.96512 0.22837 0.25091 0.0
H1462 H 0.96639 0.25648 0.24951 0.0
H1463 H 0.98565 0.24111 0.23643 0.0
H1464 H 0.98867 0.32435 0.24457 0.0
H1465 H 0.03401 0.28736 0.21167 0.0
H1466 H 0.98814 0.2968 0.29084 0.0
H1467 H 0.96807 0.28478 0.27564 0.0
H1468 H 0.97159 0.3127 0.27454 0.0
H1469 H 0.04394 0.25145 0.25108 0.0
H1470 H 0.04417 0.25405 0.22303 0.0
H1471 H 0.02362 0.23977 0.23597 0.0
C1472 C 0.77027 0.01439 0.30648 0.0
C1473 C 0.78672 0.99997 0.30475 0.0
C1474 C 0.75541 0.0167 0.29054 0.0
C1475 C 0.75684 1.00418 0.27239 0.0
C1476 C 0.77346 0.98969 0.27042 0.0
C1477 C 0.78825 0.98781 0.28658 0.0
C1478 C 0.73803 0.03243 0.29325 0.0
C1479 C 0.77542 0.97594 0.25137 0.0
C1480 C 0.70601 0.9958 0.24289 0.0
C1481 C 0.70781 0.01005 0.2263 0.0
C1482 C 0.72204 0.99342 0.25765 0.0
C1483 C 0.74035 1.00569 0.25598 0.0
C1484 C 0.74239 0.01999 0.2392 0.0
C1485 C 0.72614 0.02194 0.22451 0.0
C1486 C 0.71926 0.9779 0.2752 0.0
C1487 C 0.76159 0.03348 0.23697 0.0
H1488 H 0.76897 0.024 0.32036 0.0
H1489 H 0.80088 0.97665 0.28506 0.0
H1490 H 0.73781 0.04341 0.27985 0.0
H1491 H 0.72274 0.02429 0.29349 0.0
H1492 H 0.73963 0.04158 0.30789 0.0
H1493 H 0.78957 0.96592 0.25191 0.0
H1494 H 0.76147 0.96574 0.25006 0.0
H1495 H 0.77603 0.98566 0.23705 0.0
H1496 H 0.69202 0.9864 0.24438 0.0
H1497 H 0.72771 0.03296 0.21177 0.0
H1498 H 0.71918 0.9862 0.29041 0.0
H1499 H 0.73254 0.96678 0.27547 0.0
H1500 H 0.70451 0.96889 0.27377 0.0
H1501 H 0.76309 0.04384 0.25078 0.0
H1502 H 0.7611 0.04333 0.2227 0.0
H1503 H 0.77579 0.02357 0.23641 0.0
C1504 C 0.98608 0.72798 0.22642 0.0
C1505 C 0.9981 0.70963 0.22654 0.0
C1506 C 0.98882 0.74344 0.2418 0.0
C1507 C 1.00404 0.7406 0.25761 0.0
C1508 C 0.01635 0.72223 0.25768 0.0
C1509 C 0.01318 0.70698 0.24224 0.0
C1510 C 0.97525 0.76272 0.24127 0.0
C1511 C 0.0328 0.71861 0.27418 0.0
C1512 C 0.02311 0.78766 0.28887 0.0
C1513 C 0.01169 0.78559 0.30747 0.0
C1514 C 0.02074 0.77321 0.27245 0.0
C1515 C 0.00652 0.75637 0.27461 0.0
C1516 C 0.99488 0.7543 0.29328 0.0
C1517 C 0.99766 0.76883 0.30945 0.0
C1518 C 0.03354 0.77586 0.25284 0.0
C1519 C 0.97947 0.73667 0.29622 0.0
H1520 H 0.97442 0.73022 0.21437 0.0
H1521 H 0.02267 0.69296 0.24244 0.0
H1522 H 0.96585 0.76367 0.2558 0.0
H1523 H 0.98514 0.77693 0.24062 0.0
H1524 H 0.96447 0.76282 0.22769 0.0
H1525 H 0.04159 0.70388 0.27162 0.0
H1526 H 0.04402 0.73181 0.27437 0.0
H1527 H 0.02538 0.71795 0.28983 0.0
H1528 H 0.03397 0.80052 0.28715 0.0
H1529 H 0.98865 0.76708 0.32367 0.0
H1530 H 0.0231 0.77729 0.2391 0.0
H1531 H 0.04343 0.76185 0.25033 0.0
H1532 H 0.04379 0.78985 0.2535 0.0
H1533 H 0.96762 0.737 0.28359 0.0
H1534 H 0.9713 0.73751 0.31149 0.0
H1535 H 0.98767 0.72144 0.29518 0.0
C1536 C 0.22145 0.01971 0.288 0.0
C1537 C 0.22366 0.00873 0.30683 0.0
C1538 C 0.2361 0.0174 0.27174 0.0
C1539 C 0.25326 1.00363 0.27429 0.0
C1540 C 0.25536 0.99227 0.29312 0.0
C1541 C 0.24065 0.99502 0.30913 0.0
C1542 C 0.23341 0.02992 0.25195 0.0
C1543 C 0.27329 0.97731 0.29647 0.0
C1544 C 0.2835 0.98366 0.22699 0.0
C1545 C 0.30153 0.99612 0.22756 0.0
C1546 C 0.26752 0.98612 0.24189 0.0
C1547 C 0.26949 1.00153 0.25765 0.0
C1548 C 0.28751 0.01433 0.25813 0.0
C1549 C 0.30331 0.01141 0.24319 0.0
C1550 C 0.24865 0.97201 0.24096 0.0
C1551 C 0.29021 0.03101 0.27458 0.0
H1552 H 0.20841 0.03034 0.28605 0.0
H1553 H 0.24248 0.9863 0.32353 0.0
H1554 H 0.24705 0.04039 0.24974 0.0
H1555 H 0.23281 0.01933 0.23826 0.0
H1556 H 0.21899 0.03957 0.25217 0.0
H1557 H 0.27227 0.96906 0.3117 0.0
H1558 H 0.27362 0.96549 0.2838 0.0
H1559 H 0.28832 0.98591 0.29587 0.0
H1560 H 0.28193 0.97183 0.21499 0.0
H1561 H 0.31707 0.02125 0.24372 0.0
H1562 H 0.23418 0.98149 0.23998 0.0
H1563 H 0.24764 0.9626 0.25547 0.0
H1564 H 0.24916 0.96122 0.22739 0.0
H1565 H 0.27665 0.04179 0.2744 0.0
H1566 H 0.30469 0.04028 0.27226 0.0
H1567 H 0.29079 0.02373 0.29029 0.0
C1568 C 0.02154 0.72695 0.78988 0.0
C1569 C 0.01014 0.70836 0.78761 0.0
C1570 C 0.01934 0.74342 0.77545 0.0
C1571 C 1.00528 0.74135 0.75848 0.0
C1572 C 0.99341 0.72282 0.75642 0.0
C1573 C 0.99605 0.70658 0.77089 0.0
C1574 C 0.03241 0.76286 0.77809 0.0
C1575 C 0.97813 0.71999 0.73868 0.0
C1576 C 0.98674 0.78892 0.72765 0.0
C1577 C 0.99901 0.78753 0.70953 0.0
C1578 C 0.98886 0.77426 0.74393 0.0
C1579 C 1.00373 0.75794 0.74214 0.0
C1580 C 0.01643 0.75675 0.72409 0.0
C1581 C 0.01385 0.77144 0.70803 0.0
C1582 C 0.97489 0.77596 0.76283 0.0
C1583 C 0.03257 0.73972 0.72158 0.0
H1584 H 0.03243 0.72851 0.80273 0.0
H1585 H 0.987 0.69239 0.76905 0.0
H1586 H 0.04307 0.76461 0.76454 0.0
H1587 H 0.02225 0.77688 0.77847 0.0
H1588 H 0.04191 0.76247 0.7926 0.0
H1589 H 0.96926 0.70513 0.73992 0.0
H1590 H 0.96686 0.73315 0.73835 0.0
H1591 H 0.98661 0.72008 0.72357 0.0
H1592 H 0.97526 0.80128 0.729 0.0
H1593 H 0.02357 0.77027 0.69422 0.0
H1594 H 0.98444 0.77652 0.77727 0.0
H1595 H 0.96479 0.76193 0.76391 0.0
H1596 H 0.96477 0.79005 0.76229 0.0
H1597 H 0.04329 0.73961 0.73519 0.0
H1598 H 0.04198 0.74162 0.70713 0.0
H1599 H 0.02475 0.72426 0.72106 0.0
C1600 C 0.24546 0.01275 0.70127 0.0
C1601 C 0.22947 0.99809 0.70454 0.0
C1602 C 0.26102 0.01618 0.71633 0.0
C1603 C 0.26075 1.00457 0.73514 0.0
C1604 C 0.24479 0.98962 0.73851 0.0
C1605 C 0.22931 0.9866 0.72321 0.0
C1606 C 0.27771 0.03231 0.71215 0.0
C1607 C 0.24405 0.97682 0.75829 0.0
C1608 C 0.31168 0.99976 0.76539 0.0
C1609 C 0.30894 0.01447 0.78144 0.0
C1610 C 0.29611 0.99633 0.75033 0.0
C1611 C 0.27733 0.00796 0.75118 0.0
C1612 C 0.2745 0.02296 0.76721 0.0
C1613 C 0.2903 0.02599 0.78217 0.0
C1614 C 0.29972 0.98014 0.73356 0.0
C1615 C 0.25477 0.03579 0.76856 0.0
H1616 H 0.24574 0.02179 0.68696 0.0
H1617 H 0.21707 0.97524 0.72591 0.0
H1618 H 0.2775 0.04437 0.72459 0.0
H1619 H 0.29335 0.02486 0.71248 0.0
H1620 H 0.27564 0.04015 0.69682 0.0
H1621 H 0.23069 0.96575 0.7585 0.0
H1622 H 0.25874 0.9678 0.76004 0.0
H1623 H 0.24278 0.98728 0.77204 0.0
H1624 H 0.32596 0.9907 0.76468 0.0
H1625 H 0.288 0.03738 0.79447 0.0
H1626 H 0.2989 0.98755 0.71793 0.0
H1627 H 0.28728 0.9681 0.73421 0.0
H1628 H 0.31511 0.97229 0.73516 0.0
H1629 H 0.25256 0.04478 0.75391 0.0
H1630 H 0.25501 0.04689 0.78188 0.0
H1631 H 0.24105 0.02535 0.7703 0.0
C1632 C 0.99575 0.23857 0.70568 0.0
C1633 C 0.00957 0.22162 0.70754 0.0
C1634 C 0.99325 0.2531 0.72189 0.0
C1635 C 1.00499 0.25086 0.74048 0.0
C1636 C 0.01874 0.23363 0.74265 0.0
C1637 C 0.0208 0.21915 0.7262 0.0
C1638 C 0.97829 0.27111 0.71894 0.0
C1639 C 0.03165 0.23079 0.76215 0.0
C1640 C 0.01426 0.30138 0.77023 0.0
C1641 C 0.99928 0.30027 0.78622 0.0
C1642 C 0.01669 0.28513 0.75572 0.0
C1643 C 1.00368 0.2673 0.75698 0.0
C1644 C 0.98869 0.2659 0.77322 0.0
C1645 C 0.98674 0.28235 0.78771 0.0
C1646 C 0.03297 0.28723 0.73878 0.0
C1647 C 0.97439 0.24725 0.77499 0.0
H1648 H 0.98682 0.24056 0.69145 0.0
H1649 H 0.03148 0.20613 0.72782 0.0
H1650 H 0.96701 0.27171 0.73207 0.0
H1651 H 0.98705 0.28606 0.71897 0.0
H1652 H 0.96944 0.26996 0.70407 0.0
H1653 H 0.04082 0.21606 0.76189 0.0
H1654 H 0.04262 0.2441 0.76387 0.0
H1655 H 0.02143 0.23073 0.77614 0.0
H1656 H 0.0242 0.31503 0.76901 0.0
H1657 H 0.97515 0.2813 0.8 0.0
H1658 H 0.02526 0.28786 0.72328 0.0
H1659 H 0.04341 0.2734 0.73879 0.0
H1660 H 0.04266 0.3015 0.74067 0.0
H1661 H 0.96427 0.24632 0.76095 0.0
H1662 H 0.96427 0.24803 0.78906 0.0
H1663 H 0.98367 0.23264 0.7756 0.0
C1664 C 0.7688 0.99774 0.70425 0.0
C1665 C 0.78529 0.01212 0.70586 0.0
C1666 C 0.75428 0.99516 0.72047 0.0
C1667 C 0.75609 0.00736 0.7388 0.0
C1668 C 0.77278 0.02179 0.74067 0.0
C1669 C 0.78723 0.02394 0.72422 0.0
C1670 C 0.73682 0.97951 0.71785 0.0
C1671 C 0.77514 0.03521 0.7599 0.0
C1672 C 0.70569 0.01552 0.7691 0.0
C1673 C 0.70758 1.00099 0.78543 0.0
C1674 C 0.72157 0.01808 0.75421 0.0
C1675 C 0.73983 1.0057 0.75546 0.0
C1676 C 0.742 0.99113 0.77199 0.0
C1677 C 0.72589 0.989 0.78683 0.0
C1678 C 0.71864 0.03388 0.73693 0.0
C1679 C 0.76116 0.97752 0.77377 0.0
H1680 H 0.7672 0.98838 0.69024 0.0
H1681 H 0.79991 0.03506 0.72567 0.0
H1682 H 0.73676 0.96836 0.73111 0.0
H1683 H 0.72155 0.9877 0.71794 0.0
H1684 H 0.73817 0.97053 0.70307 0.0
H1685 H 0.78938 0.04511 0.7593 0.0
H1686 H 0.76131 0.04551 0.76159 0.0
H1687 H 0.77588 0.02525 0.77405 0.0
H1688 H 0.69172 0.025 0.76791 0.0
H1689 H 0.72754 0.97776 0.79937 0.0
H1690 H 0.71828 0.02582 0.72161 0.0
H1691 H 0.732 0.04492 0.73662 0.0
H1692 H 0.70398 0.04299 0.73872 0.0
H1693 H 0.7624 0.96731 0.75982 0.0
H1694 H 0.76084 0.96752 0.78794 0.0
H1695 H 0.77542 0.98735 0.77421 0.0
C1696 C 0.24031 0.30139 0.01401 0.0
C1697 C 0.22402 0.29999 0.99939 0.0
C1698 C 0.2548 0.28513 0.01654 0.0
C1699 C 0.25319 0.26698 1.00401 0.0
C1700 C 0.23666 0.2653 0.98939 0.0
C1701 C 0.2222 0.28177 0.98733 0.0
C1702 C 0.27207 0.28754 0.03241 0.0
C1703 C 0.23452 0.24631 0.97561 0.0
C1704 C 0.30418 0.2377 0.99586 0.0
C1705 C 0.30247 0.22113 0.01014 0.0
C1706 C 0.288 0.25227 0.99329 0.0
C1707 C 0.26962 0.25046 1.00543 0.0
C1708 C 0.26759 0.2336 0.01965 0.0
C1709 C 0.28399 0.21907 0.02176 0.0
C1710 C 0.29078 0.26987 0.97781 0.0
C1711 C 0.24832 0.23123 0.033 0.0
H1712 H 0.2418 0.31527 0.02357 0.0
H1713 H 0.20967 0.2805 0.97603 0.0
H1714 H 0.27219 0.27399 0.04321 0.0
H1715 H 0.28742 0.28786 0.02437 0.0
H1716 H 0.27046 0.30207 0.04176 0.0
H1717 H 0.22027 0.24692 0.96573 0.0
H1718 H 0.24836 0.24501 0.96527 0.0
H1719 H 0.23397 0.23194 0.98527 0.0
H1720 H 0.31826 0.23938 0.98663 0.0
H1721 H 0.28249 0.20633 0.03281 0.0
H1722 H 0.29102 0.28504 0.98617 0.0
H1723 H 0.27744 0.27028 0.96678 0.0
H1724 H 0.30547 0.26838 0.9687 0.0
H1725 H 0.2469 0.24483 0.04366 0.0
H1726 H 0.24866 0.21674 0.04253 0.0
H1727 H 0.23414 0.23102 0.02306 0.0
C1728 C 0.2408 0.71105 0.99673 0.0
C1729 C 0.22421 0.71334 0.01089 0.0
C1730 C 0.25568 0.72692 0.99394 0.0
C1731 C 0.25416 0.74555 0.00576 0.0
C1732 C 0.23736 0.74809 0.01995 0.0
C1733 C 0.22251 0.73201 0.02226 0.0
C1734 C 0.27322 0.72361 0.97852 0.0
C1735 C 0.23532 0.76759 0.03303 0.0
C1736 C 0.3053 0.77448 0.01415 0.0
C1737 C 0.30404 0.79071 0.99944 0.0
C1738 C 0.28896 0.7601 0.01671 0.0
C1739 C 0.2709 0.76173 1.0041 0.0
C1740 C 0.26936 0.77819 0.98936 0.0
C1741 C 0.2859 0.79257 0.98729 0.0
C1742 C 0.2912 0.74295 0.03276 0.0
C1743 C 0.25045 0.78033 0.97547 0.0
H1744 H 0.24219 0.6968 0.98771 0.0
H1745 H 0.20976 0.73396 0.03322 0.0
H1746 H 0.27381 0.73676 0.96725 0.0
H1747 H 0.28839 0.72331 0.98688 0.0
H1748 H 0.27152 0.70878 0.96968 0.0
H1749 H 0.22092 0.76756 0.0427 0.0
H1750 H 0.24903 0.76904 0.04352 0.0
H1751 H 0.23515 0.78161 0.02285 0.0
H1752 H 0.31913 0.77298 0.02378 0.0
H1753 H 0.28477 0.80503 0.97589 0.0
H1754 H 0.29131 0.72751 0.02488 0.0
H1755 H 0.27766 0.74311 0.04358 0.0
H1756 H 0.30575 0.74447 0.04207 0.0
H1757 H 0.249 0.76632 0.96539 0.0
H1758 H 0.25128 0.79439 0.96534 0.0
H1759 H 0.23607 0.78125 0.98509 0.0
C1760 C 0.78899 0.28597 0.02344 0.0
C1761 C 0.78692 0.30431 0.01161 0.0
C1762 C 0.77454 0.2695 0.02146 0.0
C1763 C 0.75773 0.27134 0.00718 0.0
C1764 C 0.75579 0.28965 0.99495 0.0
C1765 C 0.77031 0.30589 0.99738 0.0
C1766 C 0.77704 0.2503 0.03489 0.0
C1767 C 0.73819 0.29223 0.97947 0.0
C1768 C 0.72745 0.22326 0.98915 0.0
C1769 C 0.70923 0.22468 1.00126 0.0
C1770 C 0.74356 0.23811 0.99113 0.0
C1771 C 0.74148 0.25467 1.00569 0.0
C1772 C 0.72332 0.25593 0.01821 0.0
C1773 C 0.70743 0.24103 0.01579 0.0
C1774 C 0.76262 0.23632 0.97738 0.0
C1775 C 0.7205 0.27323 0.034 0.0
H1776 H 0.80176 0.28456 0.03445 0.0
H1777 H 0.76861 0.31989 0.98801 0.0
H1778 H 0.76329 0.24861 0.0453 0.0
H1779 H 0.77772 0.23612 0.02496 0.0
H1780 H 0.79135 0.25092 0.04467 0.0
H1781 H 0.73944 0.307 0.97045 0.0
H1782 H 0.73806 0.27895 0.96835 0.0
H1783 H 0.72299 0.29214 0.98779 0.0
H1784 H 0.72902 0.2107 0.97792 0.0
H1785 H 0.69352 0.24223 0.02537 0.0
H1786 H 0.77695 0.23593 0.98708 0.0
H1787 H 0.76374 0.25024 0.96712 0.0
H1788 H 0.76224 0.22212 0.96743 0.0
H1789 H 0.73395 0.27357 0.04491 0.0
H1790 H 0.70592 0.27143 0.04324 0.0
H1791 H 0.72003 0.28854 0.02592 0.0
C1792 C 0.76965 0.7064 0.01335 0.0
C1793 C 0.78583 0.70808 0.99862 0.0
C1794 C 0.75485 0.72237 0.0159 0.0
C1795 C 0.75605 0.7405 1.00332 0.0
C1796 C 0.77242 0.74244 0.98854 0.0
C1797 C 0.78717 0.72625 0.98642 0.0
C1798 C 0.73774 0.71969 0.03193 0.0
C1799 C 0.77413 0.76146 0.97472 0.0
C1800 C 0.70495 0.76976 0.99572 0.0
C1801 C 0.70688 0.78638 0.00991 0.0
C1802 C 0.72103 0.75509 0.99308 0.0
C1803 C 0.73953 0.75688 1.00504 0.0
C1804 C 0.74171 0.77369 0.01927 0.0
C1805 C 0.7254 0.78829 0.02148 0.0
C1806 C 0.71808 0.73749 0.97766 0.0
C1807 C 0.76112 0.77605 0.03242 0.0
H1808 H 0.76851 0.69254 0.023 0.0
H1809 H 0.79959 0.72773 0.97503 0.0
H1810 H 0.73766 0.73315 0.04285 0.0
H1811 H 0.72232 0.71937 0.02406 0.0
H1812 H 0.73954 0.70509 0.04113 0.0
H1813 H 0.78816 0.76094 0.96452 0.0
H1814 H 0.76005 0.76269 0.9647 0.0
H1815 H 0.77481 0.77581 0.98439 0.0
H1816 H 0.69081 0.76818 0.98657 0.0
H1817 H 0.72708 0.80107 0.03245 0.0
H1818 H 0.71818 0.7223 0.98599 0.0
H1819 H 0.7312 0.73723 0.96634 0.0
H1820 H 0.70319 0.73885 0.96886 0.0
H1821 H 0.76284 0.76229 0.04281 0.0
H1822 H 0.76075 0.79037 0.0422 0.0
H1823 H 0.77516 0.7766 0.02228 0.0
C1824 C 0.51312 0.74232 0.80562 0.0
C1825 C 0.49803 0.7266 0.80312 0.0
C1826 C 0.51636 0.75757 0.79018 0.0
C1827 C 0.50411 0.75728 0.77179 0.0
C1828 C 0.48885 0.74148 0.76913 0.0
C1829 C 0.48604 0.72629 0.78477 0.0
C1830 C 0.53285 0.77408 0.79361 0.0
C1831 C 0.47534 0.74073 0.74983 0.0
C1832 C 0.49817 0.80866 0.74258 0.0
C1833 C 0.51227 0.80628 0.72593 0.0
C1834 C 0.49523 0.79278 0.7574 0.0
C1835 C 0.50677 0.774 0.75573 0.0
C1836 C 0.52106 0.77144 0.73902 0.0
C1837 C 0.52359 0.78757 0.72427 0.0
C1838 C 0.47976 0.79613 0.7749 0.0
C1839 C 0.53377 0.75171 0.73679 0.0
H1840 H 0.52258 0.74267 0.81965 0.0
H1841 H 0.47436 0.71423 0.78265 0.0
H1842 H 0.54417 0.77397 0.7805 0.0
H1843 H 0.5255 0.78977 0.79393 0.0
H1844 H 0.54153 0.77175 0.80845 0.0
H1845 H 0.46445 0.72723 0.74993 0.0
H1846 H 0.46607 0.75532 0.74858 0.0
H1847 H 0.48528 0.73973 0.73567 0.0
H1848 H 0.48924 0.82297 0.74401 0.0
H1849 H 0.53451 0.78555 0.7115 0.0
H1850 H 0.48787 0.79531 0.79018 0.0
H1851 H 0.46783 0.78357 0.77473 0.0
H1852 H 0.4717 0.81145 0.77374 0.0
H1853 H 0.54355 0.74939 0.75089 0.0
H1854 H 0.54411 0.75207 0.72286 0.0
H1855 H 0.52325 0.738 0.73554 0.0
C1856 C 0.28785 0.48688 0.78764 0.0
C1857 C 0.28592 0.49866 0.80602 0.0
C1858 C 0.27328 0.48893 0.77129 0.0
C1859 C 0.25646 0.50318 0.77331 0.0
C1860 C 0.25463 0.51532 0.79169 0.0
C1861 C 0.26929 0.51287 0.80779 0.0
C1862 C 0.27568 0.4756 0.752 0.0
C1863 C 0.23701 0.53077 0.79447 0.0
C1864 C 0.22599 0.52155 0.72551 0.0
C1865 C 0.20777 0.50944 0.72692 0.0
C1866 C 0.24215 0.51947 0.74028 0.0
C1867 C 0.24014 0.50479 0.75673 0.0
C1868 C 0.22198 0.49226 0.75798 0.0
C1869 C 0.20603 0.49479 0.74317 0.0
C1870 C 0.2612 0.53324 0.73851 0.0
C1871 C 0.21924 0.47634 0.77518 0.0
H1872 H 0.30063 0.47589 0.78608 0.0
H1873 H 0.26767 0.52218 0.82183 0.0
H1874 H 0.26191 0.46522 0.75032 0.0
H1875 H 0.27631 0.48562 0.73789 0.0
H1876 H 0.28998 0.46579 0.75251 0.0
H1877 H 0.23831 0.53968 0.8093 0.0
H1878 H 0.23681 0.542 0.78127 0.0
H1879 H 0.22183 0.52243 0.79437 0.0
H1880 H 0.22751 0.53288 0.71303 0.0
H1881 H 0.19214 0.48521 0.74435 0.0
H1882 H 0.27554 0.52352 0.73798 0.0
H1883 H 0.26239 0.54339 0.75249 0.0
H1884 H 0.26076 0.5433 0.72438 0.0
H1885 H 0.23269 0.46541 0.77537 0.0
H1886 H 0.20465 0.46713 0.77339 0.0
H1887 H 0.21885 0.48432 0.79055 0.0
C1888 C 0.49678 0.2709 0.80938 0.0
C1889 C 0.51042 0.288 0.80766 0.0
C1890 C 0.49442 0.2565 0.79304 0.0
C1891 C 0.50611 0.25906 0.77446 0.0
C1892 C 0.51984 0.27633 0.77251 0.0
C1893 C 0.52176 0.29065 0.78909 0.0
C1894 C 0.47949 0.23843 0.79573 0.0
C1895 C 0.53269 0.2795 0.75301 0.0
C1896 C 0.51455 0.20981 0.74231 0.0
C1897 C 0.49949 0.21194 0.72652 0.0
C1898 C 0.51718 0.22525 0.75767 0.0
C1899 C 0.50433 0.24325 0.75742 0.0
C1900 C 0.48917 0.24558 0.74148 0.0
C1901 C 0.48698 0.22996 0.72618 0.0
C1902 C 0.53361 0.22219 0.77431 0.0
C1903 C 0.47503 0.26444 0.74078 0.0
H1904 H 0.48781 0.26873 0.82357 0.0
H1905 H 0.53234 0.30378 0.78759 0.0
H1906 H 0.46786 0.23838 0.7829 0.0
H1907 H 0.48817 0.22345 0.79488 0.0
H1908 H 0.47103 0.23905 0.81087 0.0
H1909 H 0.54233 0.29391 0.75374 0.0
H1910 H 0.5432 0.26592 0.75064 0.0
H1911 H 0.52233 0.28044 0.73916 0.0
H1912 H 0.52441 0.19606 0.74267 0.0
H1913 H 0.47532 0.23179 0.71405 0.0
H1914 H 0.52607 0.2212 0.78988 0.0
H1915 H 0.54434 0.23579 0.77464 0.0
H1916 H 0.54296 0.2078 0.77178 0.0
H1917 H 0.46537 0.26505 0.75515 0.0
H1918 H 0.46447 0.26425 0.72702 0.0
H1919 H 0.48448 0.27895 0.74032 0.0
C1920 C 0.80683 0.5136 0.741 0.0
C1921 C 0.8052 0.49892 0.72478 0.0
C1922 C 0.79069 0.51631 0.7556 0.0
C1923 C 0.77246 0.50389 0.75418 0.0
C1924 C 0.77065 0.48906 0.73785 0.0
C1925 C 0.78698 0.48682 0.72328 0.0
C1926 C 0.79323 0.53242 0.77264 0.0
C1927 C 0.75156 0.47537 0.73593 0.0
C1928 C 0.74165 0.49732 0.80456 0.0
C1929 C 0.72519 0.51158 0.80188 0.0
C1930 C 0.75679 0.49434 0.78897 0.0
C1931 C 0.75569 0.50605 0.77026 0.0
C1932 C 0.73908 0.5204 0.76737 0.0
C1933 C 0.72398 0.52292 0.78315 0.0
C1934 C 0.77412 0.47876 0.79264 0.0
C1935 C 0.73747 0.53335 0.74774 0.0
H1936 H 0.82073 0.52316 0.74227 0.0
H1937 H 0.78556 0.47544 0.71083 0.0
H1938 H 0.77998 0.54359 0.77227 0.0
H1939 H 0.793 0.52468 0.78813 0.0
H1940 H 0.80803 0.54135 0.77114 0.0
H1941 H 0.75236 0.46485 0.72216 0.0
H1942 H 0.74981 0.4657 0.7502 0.0
H1943 H 0.73733 0.48518 0.73461 0.0
H1944 H 0.74268 0.48834 0.81887 0.0
H1945 H 0.71135 0.53396 0.78091 0.0
H1946 H 0.78941 0.48691 0.79283 0.0
H1947 H 0.7746 0.46723 0.77972 0.0
H1948 H 0.77225 0.47021 0.80762 0.0
H1949 H 0.75147 0.54346 0.74622 0.0
H1950 H 0.72334 0.54342 0.74763 0.0
H1951 H 0.73706 0.52304 0.73383 0.0
C1952 C 0.52315 0.2267 0.28589 0.0
C1953 C 0.51137 0.20831 0.28401 0.0
C1954 C 0.52087 0.24317 0.27147 0.0
C1955 C 0.50633 0.24128 0.25489 0.0
C1956 C 0.49415 0.22292 0.25316 0.0
C1957 C 0.49687 0.20668 0.26763 0.0
C1958 C 0.53427 0.26242 0.27375 0.0
C1959 C 0.47838 0.22029 0.23581 0.0
C1960 C 0.48769 0.28931 0.22483 0.0
C1961 C 0.49953 0.2879 0.20643 0.0
C1962 C 0.48996 0.27447 0.24093 0.0
C1963 C 0.50453 0.25794 0.23865 0.0
C1964 C 0.51677 0.2567 0.2203 0.0
C1965 C 0.51406 0.27158 0.20443 0.0
C1966 C 0.47649 0.27624 0.26019 0.0
C1967 C 0.53257 0.23944 0.21726 0.0
H1968 H 0.53436 0.22815 0.29848 0.0
H1969 H 0.48754 0.19265 0.26608 0.0
H1970 H 0.54447 0.26412 0.25985 0.0
H1971 H 0.5243 0.27656 0.27456 0.0
H1972 H 0.54427 0.26183 0.28792 0.0
H1973 H 0.46942 0.2055 0.23723 0.0
H1974 H 0.46722 0.23355 0.23584 0.0
H1975 H 0.48646 0.22038 0.22049 0.0
H1976 H 0.47645 0.30184 0.22657 0.0
H1977 H 0.52344 0.27039 0.19039 0.0
H1978 H 0.48642 0.27669 0.27437 0.0
H1979 H 0.46631 0.26228 0.2615 0.0
H1980 H 0.46648 0.29041 0.25995 0.0
H1981 H 0.5437 0.23915 0.23053 0.0
H1982 H 0.54157 0.24125 0.20253 0.0
H1983 H 0.52453 0.2241 0.21694 0.0
C1984 C 0.78546 0.52526 0.28706 0.0
C1985 C 0.80389 0.51349 0.2854 0.0
C1986 C 0.76916 0.5229 0.27249 0.0
C1987 C 0.77123 0.5083 0.25597 0.0
C1988 C 0.78962 0.49612 0.25447 0.0
C1989 C 0.8057 0.49893 0.26909 0.0
C1990 C 0.74988 0.53631 0.27452 0.0
C1991 C 0.79245 0.48029 0.23722 0.0
C1992 C 0.72362 0.48948 0.22542 0.0
C1993 C 0.72524 0.50123 0.20699 0.0
C1994 C 0.73825 0.49185 0.24169 0.0
C1995 C 0.75477 0.50643 0.23955 0.0
C1996 C 0.75623 0.51858 0.22115 0.0
C1997 C 0.74156 0.51578 0.20512 0.0
C1998 C 0.73625 0.47847 0.26099 0.0
C1999 C 0.77349 0.5344 0.21825 0.0
H2000 H 0.78388 0.53652 0.2996 0.0
H2001 H 0.81975 0.4896 0.26771 0.0
H2002 H 0.74834 0.54648 0.26057 0.0
H2003 H 0.73573 0.52633 0.27518 0.0
H2004 H 0.75029 0.54634 0.28866 0.0
H2005 H 0.80722 0.47132 0.23883 0.0
H2006 H 0.7792 0.46913 0.23713 0.0
H2007 H 0.79254 0.48831 0.22186 0.0
H2008 H 0.71108 0.47824 0.22706 0.0
H2009 H 0.74291 0.52509 0.19105 0.0
H2010 H 0.73562 0.48846 0.27512 0.0
H2011 H 0.7502 0.46829 0.26251 0.0
H2012 H 0.7221 0.46844 0.26062 0.0
H2013 H 0.77362 0.54557 0.23149 0.0
H2014 H 0.77185 0.54335 0.20348 0.0
H2015 H 0.78885 0.52637 0.21814 0.0
C2016 C 0.52561 0.72425 0.22809 0.0
C2017 C 0.51331 0.72616 0.21005 0.0
C2018 C 0.52381 0.73866 0.24462 0.0
C2019 C 0.50922 0.75526 0.24318 0.0
C2020 C 0.49648 0.75698 0.2252 0.0
C2021 C 0.49875 0.74253 0.20888 0.0
C2022 C 0.53781 0.7364 0.26343 0.0
C2023 C 0.48062 0.77432 0.22305 0.0
C2024 C 0.49199 0.78578 0.29142 0.0
C2025 C 0.50361 0.80425 0.28935 0.0
C2026 C 0.49395 0.76947 0.27678 0.0
C2027 C 0.508 0.77158 0.2598 0.0
C2028 C 0.52015 0.78996 0.25798 0.0
C2029 C 0.51774 0.80605 0.27266 0.0
C2030 C 0.48059 0.7502 0.27917 0.0
C2031 C 0.53545 0.79282 0.24024 0.0
H2032 H 0.53688 0.71167 0.22919 0.0
H2033 H 0.48901 0.74409 0.19513 0.0
H2034 H 0.54816 0.75024 0.2647 0.0
H2035 H 0.52831 0.73576 0.2779 0.0
H2036 H 0.54769 0.72215 0.26261 0.0
H2037 H 0.47113 0.77283 0.20861 0.0
H2038 H 0.46995 0.77438 0.2367 0.0
H2039 H 0.4887 0.78965 0.22276 0.0
H2040 H 0.48106 0.78422 0.30425 0.0
H2041 H 0.52696 0.82014 0.27097 0.0
H2042 H 0.49052 0.736 0.27918 0.0
H2043 H 0.46979 0.74889 0.26569 0.0
H2044 H 0.47122 0.75046 0.29377 0.0
H2045 H 0.54645 0.77945 0.23963 0.0
H2046 H 0.54461 0.80748 0.24173 0.0
H2047 H 0.52693 0.79319 0.22517 0.0
C2048 C 0.27008 0.49921 0.2065 0.0
C2049 C 0.2865 0.51365 0.20836 0.0
C2050 C 0.25542 0.49648 0.22257 0.0
C2051 C 0.257 0.5086 0.24098 0.0
C2052 C 0.27362 0.52307 0.2431 0.0
C2053 C 0.28823 0.52536 0.22681 0.0
C2054 C 0.23804 0.48079 0.2197 0.0
C2055 C 0.27574 0.53641 0.26241 0.0
C2056 C 0.20623 0.51647 0.27073 0.0
C2057 C 0.20799 0.50188 0.28702 0.0
C2058 C 0.22227 0.51915 0.25603 0.0
C2059 C 0.24056 0.50682 0.25744 0.0
C2060 C 0.24259 0.49219 0.27394 0.0
C2061 C 0.22632 0.48995 0.28858 0.0
C2062 C 0.21949 0.53501 0.23879 0.0
C2063 C 0.26178 0.47864 0.27588 0.0
H2064 H 0.26864 0.48994 0.19242 0.0
H2065 H 0.30085 0.53652 0.22843 0.0
H2066 H 0.23787 0.4696 0.23292 0.0
H2067 H 0.22275 0.48893 0.21963 0.0
H2068 H 0.2396 0.47186 0.20491 0.0
H2069 H 0.28997 0.54633 0.26203 0.0
H2070 H 0.26187 0.54668 0.26398 0.0
H2071 H 0.27632 0.52639 0.27653 0.0
H2072 H 0.19224 0.52591 0.26941 0.0
H2073 H 0.22787 0.47867 0.3011 0.0
H2074 H 0.21932 0.52701 0.22343 0.0
H2075 H 0.23282 0.54608 0.23868 0.0
H2076 H 0.20479 0.54407 0.24046 0.0
H2077 H 0.2632 0.46849 0.26191 0.0
H2078 H 0.26133 0.46858 0.29001 0.0
H2079 H 0.276 0.48851 0.27651 0.0
C2080 C 0.80654 0.74209 0.49772 0.0
C2081 C 0.80459 0.72561 0.51208 0.0
C2082 C 0.79057 0.75686 0.49505 0.0
C2083 C 0.77214 0.75535 0.50716 0.0
C2084 C 0.76992 0.73867 0.52156 0.0
C2085 C 0.78612 0.72395 0.52379 0.0
C2086 C 0.79356 0.77429 0.47943 0.0
C2087 C 0.75058 0.73662 0.53488 0.0
C2088 C 0.74279 0.80635 0.51514 0.0
C2089 C 0.7265 0.80478 0.50052 0.0
C2090 C 0.75733 0.79017 0.51781 0.0
C2091 C 0.75578 0.77192 0.50544 0.0
C2092 C 0.73929 0.77008 0.49079 0.0
C2093 C 0.72479 0.78649 0.48856 0.0
C2094 C 0.77457 0.79275 0.5337 0.0
C2095 C 0.73721 0.75095 0.47718 0.0
H2096 H 0.82063 0.74348 0.48844 0.0
H2097 H 0.78442 0.71129 0.53489 0.0
H2098 H 0.78034 0.7746 0.46824 0.0
H2099 H 0.79372 0.78955 0.48763 0.0
H2100 H 0.80835 0.77268 0.4705 0.0
H2101 H 0.75087 0.72235 0.54475 0.0
H2102 H 0.7491 0.75046 0.54521 0.0
H2103 H 0.73646 0.73617 0.52487 0.0
H2104 H 0.74421 0.82031 0.52462 0.0
H2105 H 0.71228 0.78508 0.47726 0.0
H2106 H 0.78994 0.79286 0.52572 0.0
H2107 H 0.77457 0.77937 0.54471 0.0
H2108 H 0.77299 0.80743 0.54282 0.0
H2109 H 0.75117 0.74946 0.46702 0.0
H2110 H 0.72308 0.75153 0.46714 0.0
H2111 H 0.73647 0.7367 0.487 0.0
C2112 C 0.72085 0.22838 0.51828 0.0
C2113 C 0.72308 0.20985 0.50678 0.0
C2114 C 0.7354 0.24478 0.51628 0.0
C2115 C 0.75244 0.24269 0.5023 0.0
C2116 C 0.75443 0.22426 0.49028 0.0
C2117 C 0.73985 0.20808 0.49273 0.0
C2118 C 0.73283 0.26412 0.52952 0.0
C2119 C 0.77224 0.22142 0.47506 0.0
C2120 C 0.78396 0.29009 0.48451 0.0
C2121 C 0.80198 0.28833 0.49685 0.0
C2122 C 0.76748 0.27562 0.48636 0.0
C2123 C 0.76897 0.25912 0.50105 0.0
C2124 C 0.78691 0.25757 0.51386 0.0
C2125 C 0.80318 0.27207 0.51154 0.0
C2126 C 0.7487 0.2777 0.47228 0.0
C2127 C 0.7891 0.24034 0.52983 0.0
H2128 H 0.70796 0.22993 0.52914 0.0
H2129 H 0.74165 0.19395 0.48359 0.0
H2130 H 0.74626 0.26558 0.54035 0.0
H2131 H 0.73275 0.27825 0.5195 0.0
H2132 H 0.7182 0.26381 0.53884 0.0
H2133 H 0.77088 0.20669 0.46599 0.0
H2134 H 0.7728 0.23472 0.46398 0.0
H2135 H 0.78729 0.22121 0.48363 0.0
H2136 H 0.78285 0.30259 0.47314 0.0
H2137 H 0.81691 0.27063 0.52132 0.0
H2138 H 0.73419 0.27828 0.48173 0.0
H2139 H 0.74757 0.26381 0.46198 0.0
H2140 H 0.74946 0.29191 0.46236 0.0
H2141 H 0.77539 0.24026 0.54044 0.0
H2142 H 0.80348 0.24199 0.53938 0.0
H2143 H 0.78954 0.22497 0.52185 0.0
C2144 C 0.28541 0.78482 0.52591 0.0
C2145 C 0.28485 0.80299 0.51365 0.0
C2146 C 0.27024 0.7691 0.5236 0.0
C2147 C 0.25418 0.77151 0.50857 0.0
C2148 C 0.25365 0.7897 0.49603 0.0
C2149 C 0.2689 0.80522 0.49876 0.0
C2150 C 0.27124 0.75001 0.53741 0.0
C2151 C 0.23686 0.79285 0.47977 0.0
C2152 C 0.22354 0.72371 0.49047 0.0
C2153 C 0.20505 0.7256 0.50208 0.0
C2154 C 0.23973 0.73847 0.49246 0.0
C2155 C 0.23743 0.75543 0.50651 0.0
C2156 C 0.21887 0.75731 0.51836 0.0
C2157 C 0.20293 0.74247 0.51595 0.0
C2158 C 0.25922 0.73601 0.47944 0.0
C2159 C 0.21581 0.77507 0.53358 0.0
H2160 H 0.29765 0.78291 0.53743 0.0
H2161 H 0.26835 0.81911 0.48911 0.0
H2162 H 0.25685 0.74894 0.547 0.0
H2163 H 0.27201 0.73569 0.52769 0.0
H2164 H 0.28496 0.75027 0.54801 0.0
H2165 H 0.23905 0.80752 0.47077 0.0
H2166 H 0.23675 0.77952 0.4687 0.0
H2167 H 0.22131 0.79334 0.48739 0.0
H2168 H 0.22536 0.71077 0.47972 0.0
H2169 H 0.18878 0.74407 0.5251 0.0
H2170 H 0.27312 0.73497 0.48972 0.0
H2171 H 0.26134 0.74993 0.46935 0.0
H2172 H 0.25869 0.72189 0.46938 0.0
H2173 H 0.2286 0.77512 0.54527 0.0
H2174 H 0.20065 0.77406 0.54196 0.0
H2175 H 0.21647 0.79022 0.52519 0.0
C2176 C 0.22673 0.28854 0.52218 0.0
C2177 C 0.20826 0.28657 0.51056 0.0
C2178 C 0.24312 0.27403 0.51997 0.0
C2179 C 0.24107 0.25724 0.50569 0.0
C2180 C 0.22261 0.25539 0.49368 0.0
C2181 C 0.20645 0.26998 0.49631 0.0
C2182 C 0.26249 0.27644 0.53318 0.0
C2183 C 0.2198 0.23782 0.47819 0.0
C2184 C 0.28891 0.22693 0.48707 0.0
C2185 C 0.28764 0.20871 0.4992 0.0
C2186 C 0.27407 0.24303 0.48921 0.0
C2187 C 0.25768 0.24096 0.50395 0.0
C2188 C 0.25655 0.22277 0.51647 0.0
C2189 C 0.27144 0.20689 0.51389 0.0
C2190 C 0.27571 0.26211 0.47546 0.0
C2191 C 0.23943 0.21995 0.53245 0.0
H2192 H 0.22832 0.30129 0.53319 0.0
H2193 H 0.19235 0.26834 0.48711 0.0
H2194 H 0.26426 0.26266 0.54354 0.0
H2195 H 0.27654 0.2771 0.52308 0.0
H2196 H 0.26201 0.29073 0.54301 0.0
H2197 H 0.20492 0.23913 0.46937 0.0
H2198 H 0.23294 0.23767 0.4669 0.0
H2199 H 0.21996 0.22261 0.48648 0.0
H2200 H 0.30135 0.22852 0.47571 0.0
H2201 H 0.27035 0.19299 0.52348 0.0
H2202 H 0.27629 0.27643 0.48519 0.0
H2203 H 0.26165 0.26331 0.46542 0.0
H2204 H 0.28977 0.26171 0.4653 0.0
H2205 H 0.23925 0.23337 0.54341 0.0
H2206 H 0.24128 0.20533 0.54161 0.0
H2207 H 0.22402 0.21957 0.52454 0.0
C2208 C 0.08333 0.33214 0.12454 0.0
C2209 C 0.07272 0.34944 0.13275 0.0
C2210 C 0.09827 0.33451 0.10864 0.0
C2211 C 0.10225 0.3546 0.10024 0.0
C2212 C 0.09195 0.37221 0.10885 0.0
C2213 C 0.07751 0.36944 0.12521 0.0
C2214 C 0.10931 0.31538 0.10036 0.0
C2215 C 0.09533 0.39382 0.10006 0.0
C2216 C 0.15057 0.36152 0.06599 0.0
C2217 C 0.14243 0.35756 0.04604 0.0
C2218 C 0.13767 0.36092 0.0838 0.0
C2219 C 0.11603 0.35685 0.08152 0.0
C2220 C 0.10763 0.3538 0.06128 0.0
C2221 C 0.12097 0.35387 0.04386 0.0
C2222 C 0.14734 0.36373 0.1051 0.0
C2223 C 0.08458 0.34997 0.05804 0.0
H2224 H 0.07976 0.31666 0.1304 0.0
H2225 H 0.06919 0.38284 0.13137 0.0
H2226 H 0.10412 0.31221 0.08414 0.0
H2227 H 0.12642 0.31805 0.09989 0.0
H2228 H 0.10613 0.30129 0.10998 0.0
H2229 H 0.08727 0.40604 0.10937 0.0
H2230 H 0.11223 0.39753 0.09945 0.0
H2231 H 0.08936 0.39443 0.0838 0.0
H2232 H 0.16719 0.36418 0.06778 0.0
H2233 H 0.11458 0.35093 0.02846 0.0
H2234 H 0.14575 0.34904 0.11416 0.0
H2235 H 0.13904 0.37612 0.11391 0.0
H2236 H 0.16416 0.36787 0.10417 0.0
H2237 H 0.08013 0.33477 0.06504 0.0
H2238 H 0.08026 0.34976 0.04124 0.0
H2239 H 0.0753 0.36226 0.066 0.0
C2240 C 0.64413 0.07589 0.12664 0.0
C2241 C 0.66429 0.07136 0.13389 0.0
C2242 C 0.64094 0.09036 0.1104 0.0
C2243 C 0.65827 0.10098 0.10164 0.0
C2244 C 0.67853 0.09726 0.10974 0.0
C2245 C 0.68132 0.08227 0.12552 0.0
C2246 C 0.61918 0.09346 0.1019 0.0
C2247 C 0.69737 0.10864 0.10129 0.0
C2248 C 0.658 0.12004 0.04539 0.0
C2249 C 0.65396 0.14143 0.04777 0.0
C2250 C 0.65852 0.1066 0.06271 0.0
C2251 C 0.65557 0.11483 0.08304 0.0
C2252 C 0.65116 0.13638 0.08552 0.0
C2253 C 0.6501 0.14937 0.06782 0.0
C2254 C 0.66268 0.08364 0.05927 0.0
C2255 C 0.64846 0.14588 0.10692 0.0
H2256 H 0.63093 0.06734 0.13293 0.0
H2257 H 0.69692 0.07888 0.13116 0.0
H2258 H 0.61518 0.11031 0.10145 0.0
H2259 H 0.61846 0.08757 0.08562 0.0
H2260 H 0.6072 0.08515 0.11131 0.0
H2261 H 0.71162 0.10563 0.11072 0.0
H2262 H 0.70042 0.10359 0.08501 0.0
H2263 H 0.69442 0.12572 0.10096 0.0
H2264 H 0.66086 0.11381 0.0299 0.0
H2265 H 0.64717 0.16594 0.06975 0.0
H2266 H 0.65066 0.0741 0.06734 0.0
H2267 H 0.67805 0.07939 0.06604 0.0
H2268 H 0.66274 0.07942 0.04244 0.0
H2269 H 0.63632 0.13733 0.11584 0.0
H2270 H 0.64405 0.16264 0.10617 0.0
H2271 H 0.66328 0.14445 0.11579 0.0
C2272 C 0.93575 0.64749 0.12344 0.0
C2273 C 0.9391 0.66787 0.13075 0.0
C2274 C 0.92152 0.64349 0.10716 0.0
C2275 C 0.90997 0.6602 0.09836 0.0
C2276 C 0.9126 0.68065 0.10642 0.0
C2277 C 0.92732 0.68428 0.12229 0.0
C2278 C 0.91957 0.62156 0.09874 0.0
C2279 C 0.90025 0.69884 0.09788 0.0
C2280 C 0.89066 0.65863 0.04219 0.0
C2281 C 0.86948 0.65365 0.0447 0.0
C2282 C 0.90415 0.65988 0.05944 0.0
C2283 C 0.89618 0.65668 0.07984 0.0
C2284 C 0.87488 0.65123 0.08244 0.0
C2285 C 0.86184 0.6495 0.06481 0.0
C2286 C 0.92685 0.66517 0.05586 0.0
C2287 C 0.86564 0.64814 0.10391 0.0
H2288 H 0.94493 0.63477 0.1298 0.0
H2289 H 0.92975 0.70004 0.12796 0.0
H2290 H 0.90297 0.61663 0.09851 0.0
H2291 H 0.92529 0.62112 0.08239 0.0
H2292 H 0.92865 0.6101 0.10808 0.0
H2293 H 0.90264 0.71332 0.10714 0.0
H2294 H 0.90499 0.70195 0.08152 0.0
H2295 H 0.88334 0.69506 0.09775 0.0
H2296 H 0.89668 0.66173 0.02667 0.0
H2297 H 0.84544 0.64584 0.06686 0.0
H2298 H 0.93702 0.6537 0.06393 0.0
H2299 H 0.93034 0.68078 0.06252 0.0
H2300 H 0.93098 0.66535 0.03901 0.0
H2301 H 0.87488 0.63653 0.11284 0.0
H2302 H 0.84914 0.64282 0.10326 0.0
H2303 H 0.86629 0.66307 0.11268 0.0
C2304 C 0.36047 0.89106 0.04447 0.0
C2305 C 0.36401 0.86954 0.04657 0.0
C2306 C 0.35906 0.90412 0.06203 0.0
C2307 C 0.36068 0.89542 0.0823 0.0
C2308 C 0.36497 0.8738 0.08453 0.0
C2309 C 0.36683 0.86115 0.06661 0.0
C2310 C 0.35501 0.92715 0.05886 0.0
C2311 C 0.36645 0.86382 0.10582 0.0
C2312 C 0.36788 0.93385 0.12729 0.0
C2313 C 0.34712 0.93774 0.13316 0.0
C2314 C 0.37265 0.91967 0.11116 0.0
C2315 C 0.3563 0.90878 0.10097 0.0
C2316 C 0.33541 0.91189 0.1076 0.0
C2317 C 0.33107 0.92649 0.12341 0.0
C2318 C 0.39507 0.91714 0.10434 0.0
C2319 C 0.31753 0.9003 0.09752 0.0
H2320 H 0.3584 0.89766 0.02902 0.0
H2321 H 0.36936 0.84449 0.06834 0.0
H2322 H 0.33911 0.9311 0.06448 0.0
H2323 H 0.36626 0.93655 0.06808 0.0
H2324 H 0.35624 0.93179 0.04219 0.0
H2325 H 0.37167 0.8473 0.10496 0.0
H2326 H 0.37745 0.87263 0.11589 0.0
H2327 H 0.35092 0.86431 0.1135 0.0
H2328 H 0.38036 0.94258 0.13466 0.0
H2329 H 0.31501 0.9293 0.12797 0.0
H2330 H 0.39699 0.9235 0.08834 0.0
H2331 H 0.39937 0.90037 0.10375 0.0
H2332 H 0.4061 0.92536 0.11491 0.0
H2333 H 0.31573 0.90552 0.0811 0.0
H2334 H 0.30251 0.90291 0.1058 0.0
H2335 H 0.32082 0.88328 0.09722 0.0
C2336 C 0.06957 0.6753 0.90013 0.0
C2337 C 0.07074 0.66507 0.8808 0.0
C2338 C 0.08482 0.67221 0.91558 0.0
C2339 C 0.10201 0.6589 0.9115 0.0
C2340 C 0.10345 0.6487 0.8919 0.0
C2341 C 0.08766 0.6517 0.87686 0.0
C2342 C 0.08241 0.68313 0.93635 0.0
C2343 C 0.12177 0.63478 0.88677 0.0
C2344 C 0.14849 0.67041 0.94652 0.0
C2345 C 0.1464 0.65508 0.96197 0.0
C2346 C 0.13497 0.67099 0.92926 0.0
C2347 C 0.11858 0.65621 0.92773 0.0
C2348 C 0.11688 0.64023 0.94301 0.0
C2349 C 0.13095 0.63978 0.95991 0.0
C2350 C 0.13763 0.68806 0.91322 0.0
C2351 C 0.09945 0.6244 0.9422 0.0
H2352 H 0.05644 0.68547 0.90341 0.0
H2353 H 0.08866 0.64375 0.86195 0.0
H2354 H 0.08259 0.6715 0.9492 0.0
H2355 H 0.09574 0.69389 0.93893 0.0
H2356 H 0.06769 0.69226 0.93736 0.0
H2357 H 0.12066 0.62807 0.87081 0.0
H2358 H 0.13651 0.6438 0.88799 0.0
H2359 H 0.12274 0.6218 0.8982 0.0
H2360 H 0.16041 0.68233 0.94827 0.0
H2361 H 0.12921 0.62812 0.97207 0.0
H2362 H 0.12459 0.6994 0.91458 0.0
H2363 H 0.1371 0.68145 0.89721 0.0
H2364 H 0.15257 0.69664 0.91521 0.0
H2365 H 0.08431 0.63235 0.94502 0.0
H2366 H 0.10141 0.61189 0.95406 0.0
H2367 H 0.0986 0.61711 0.92651 0.0
C2368 C 0.37116 0.07773 0.88362 0.0
C2369 C 0.3507 0.07351 0.87702 0.0
C2370 C 0.37511 0.092 0.89987 0.0
C2371 C 0.35823 0.10266 0.90944 0.0
C2372 C 0.33765 0.0992 0.90207 0.0
C2373 C 0.33411 0.08451 0.88616 0.0
C2374 C 0.39722 0.0949 0.90748 0.0
C2375 C 0.31922 0.11054 0.91147 0.0
C2376 C 0.3602 0.12061 0.96597 0.0
C2377 C 0.36358 0.14215 0.9639 0.0
C2378 C 0.35952 0.10748 0.94842 0.0
C2379 C 0.36171 0.11613 0.92818 0.0
C2380 C 0.36579 0.1378 0.92601 0.0
C2381 C 0.36692 0.15052 0.94394 0.0
C2382 C 0.35567 0.08441 0.95154 0.0
C2383 C 0.36785 0.14772 0.90474 0.0
H2384 H 0.38405 0.06919 0.87671 0.0
H2385 H 0.31828 0.08144 0.88103 0.0
H2386 H 0.40125 0.11174 0.90813 0.0
H2387 H 0.39864 0.08865 0.92358 0.0
H2388 H 0.40876 0.08679 0.89738 0.0
H2389 H 0.30456 0.10767 0.90267 0.0
H2390 H 0.31691 0.10534 0.92783 0.0
H2391 H 0.32223 0.12761 0.91184 0.0
H2392 H 0.35773 0.11403 0.98137 0.0
H2393 H 0.36933 0.16719 0.94224 0.0
H2394 H 0.36739 0.07513 0.94277 0.0
H2395 H 0.34005 0.08022 0.94535 0.0
H2396 H 0.35635 0.07984 0.96826 0.0
H2397 H 0.37937 0.13909 0.89511 0.0
H2398 H 0.37271 0.16435 0.90571 0.0
H2399 H 0.35263 0.1469 0.89651 0.0
C2400 C 0.89036 0.35616 0.96648 0.0
C2401 C 0.86894 0.36004 0.96423 0.0
C2402 C 0.90362 0.35515 0.94902 0.0
C2403 C 0.89516 0.35743 0.9287 0.0
C2404 C 0.87358 0.36176 0.92635 0.0
C2405 C 0.86077 0.36331 0.94417 0.0
C2406 C 0.92661 0.3511 0.95233 0.0
C2407 C 0.86384 0.36378 0.90499 0.0
C2408 C 0.93376 0.36712 0.88434 0.0
C2409 C 0.93816 0.34668 0.87778 0.0
C2410 C 0.91941 0.37097 0.90056 0.0
C2411 C 0.90879 0.35401 0.91004 0.0
C2412 C 0.91236 0.33346 0.90263 0.0
C2413 C 0.92722 0.33002 0.88684 0.0
C2414 C 0.91646 0.39304 0.90828 0.0
C2415 C 0.90099 0.31497 0.91186 0.0
H2416 H 0.89677 0.35375 0.98196 0.0
H2417 H 0.84417 0.3661 0.94234 0.0
H2418 H 0.93075 0.33547 0.94609 0.0
H2419 H 0.93606 0.36279 0.9437 0.0
H2420 H 0.93103 0.35166 0.96909 0.0
H2421 H 0.84713 0.36841 0.9058 0.0
H2422 H 0.8724 0.37548 0.89551 0.0
H2423 H 0.86498 0.34862 0.89667 0.0
H2424 H 0.94232 0.38004 0.87753 0.0
H2425 H 0.93048 0.3142 0.88175 0.0
H2426 H 0.92258 0.39436 0.92444 0.0
H2427 H 0.89963 0.39709 0.90883 0.0
H2428 H 0.92466 0.40464 0.89831 0.0
H2429 H 0.90619 0.31249 0.92819 0.0
H2430 H 0.90385 0.30038 0.90292 0.0
H2431 H 0.88393 0.31801 0.91226 0.0
C2432 C 0.65516 0.89065 0.96608 0.0
C2433 C 0.65114 0.86926 0.96374 0.0
C2434 C 0.65594 0.90403 0.94871 0.0
C2435 C 0.65329 0.89574 0.92837 0.0
C2436 C 0.64884 0.87419 0.92593 0.0
C2437 C 0.64752 0.86125 0.94368 0.0
C2438 C 0.66014 0.92699 0.95213 0.0
C2439 C 0.64642 0.86461 0.90453 0.0
C2440 C 0.64287 0.9347 0.8845 0.0
C2441 C 0.66318 0.9391 0.87758 0.0
C2442 C 0.63929 0.92024 0.90068 0.0
C2443 C 0.6564 0.90951 0.90976 0.0
C2444 C 0.67681 0.91309 0.90199 0.0
C2445 C 0.67999 0.92806 0.88624 0.0
C2446 C 0.61736 0.91729 0.9088 0.0
C2447 C 0.69543 0.9016 0.91077 0.0
H2448 H 0.65785 0.89694 0.98157 0.0
H2449 H 0.64463 0.84468 0.94177 0.0
H2450 H 0.67565 0.93113 0.94562 0.0
H2451 H 0.64832 0.93655 0.9438 0.0
H2452 H 0.65991 0.93128 0.96893 0.0
H2453 H 0.6418 0.8479 0.9053 0.0
H2454 H 0.63456 0.87326 0.89535 0.0
H2455 H 0.66143 0.86581 0.89594 0.0
H2456 H 0.62984 0.94334 0.878 0.0
H2457 H 0.69571 0.93133 0.88088 0.0
H2458 H 0.61637 0.92327 0.92503 0.0
H2459 H 0.61329 0.90046 0.90927 0.0
H2460 H 0.60561 0.92561 0.89912 0.0
H2461 H 0.69824 0.90667 0.92709 0.0
H2462 H 0.70986 0.90449 0.90157 0.0
H2463 H 0.69237 0.88455 0.9111 0.0
C2464 C 0.10822 0.06463 0.34194 0.0
C2465 C 0.1289 0.06872 0.34784 0.0
C2466 C 0.09248 0.07968 0.34449 0.0
C2467 C 0.09763 0.09968 0.35241 0.0
C2468 C 0.11856 0.10399 0.35825 0.0
C2469 C 0.13389 0.0883 0.35628 0.0
C2470 C 0.07031 0.07413 0.33866 0.0
C2471 C 0.12485 0.12531 0.36606 0.0
C2472 C 0.05881 0.1415 0.336 0.0
C2473 C 0.0469 0.14414 0.35417 0.0
C2474 C 0.07611 0.12802 0.33563 0.0
C2475 C 0.08114 0.11619 0.35364 0.0
C2476 C 0.06929 0.11903 0.37216 0.0
C2477 C 0.05252 0.1333 0.37231 0.0
C2478 C 0.08867 0.12605 0.31577 0.0
C2479 C 0.07365 0.10625 0.39147 0.0
H2480 H 0.10424 0.0494 0.3357 0.0
H2481 H 0.14988 0.0915 0.36082 0.0
H2482 H 0.05964 0.07754 0.35188 0.0
H2483 H 0.06516 0.0838 0.32524 0.0
H2484 H 0.06862 0.05741 0.33434 0.0
H2485 H 0.1417 0.12613 0.3701 0.0
H2486 H 0.12148 0.1372 0.35391 0.0
H2487 H 0.11556 0.12954 0.38005 0.0
H2488 H 0.05457 0.15004 0.32201 0.0
H2489 H 0.04321 0.13524 0.38631 0.0
H2490 H 0.08613 0.11042 0.30877 0.0
H2491 H 0.1056 0.1275 0.31919 0.0
H2492 H 0.08432 0.13809 0.30406 0.0
H2493 H 0.07061 0.08951 0.38813 0.0
H2494 H 0.06381 0.11109 0.40491 0.0
H2495 H 0.09031 0.10762 0.39599 0.0
C2496 C 0.93706 0.1253 0.36594 0.0
C2497 C 0.94072 0.13264 0.34562 0.0
C2498 C 0.9227 0.10907 0.36971 0.0
C2499 C 0.91134 0.10037 0.35283 0.0
C2500 C 0.91427 0.10847 0.33244 0.0
C2501 C 0.92913 0.12427 0.32905 0.0
C2502 C 0.92042 0.1006 0.39158 0.0
C2503 C 0.90212 0.10005 0.31408 0.0
C2504 C 0.89182 0.04427 0.354 0.0
C2505 C 0.8706 0.04684 0.35876 0.0
C2506 C 0.90538 0.06148 0.35294 0.0
C2507 C 0.89744 0.0819 0.35612 0.0
C2508 C 0.87609 0.08457 0.36131 0.0
C2509 C 0.86297 0.06697 0.36285 0.0
C2510 C 0.92814 0.05783 0.34792 0.0
C2511 C 0.86689 0.10606 0.36434 0.0
H2512 H 0.9461 0.13159 0.37879 0.0
H2513 H 0.9318 0.12998 0.31334 0.0
H2514 H 0.90376 0.10042 0.39629 0.0
H2515 H 0.92607 0.08422 0.39205 0.0
H2516 H 0.92938 0.10987 0.40318 0.0
H2517 H 0.90473 0.10935 0.29967 0.0
H2518 H 0.90684 0.08367 0.31097 0.0
H2519 H 0.88517 0.09996 0.31765 0.0
H2520 H 0.89783 0.02873 0.35095 0.0
H2521 H 0.84654 0.06906 0.36634 0.0
H2522 H 0.93818 0.06583 0.35955 0.0
H2523 H 0.93185 0.06455 0.3324 0.0
H2524 H 0.9322 0.04096 0.34773 0.0
H2525 H 0.87598 0.11492 0.37611 0.0
H2526 H 0.85031 0.10546 0.36942 0.0
H2527 H 0.86779 0.11489 0.34946 0.0
C2528 C 0.88603 0.93464 0.36971 0.0
C2529 C 0.87904 0.93885 0.34938 0.0
C2530 C 0.90221 0.92021 0.37336 0.0
C2531 C 0.91122 0.90932 0.35632 0.0
C2532 C 0.90339 0.91271 0.3359 0.0
C2533 C 0.88765 0.92765 0.33265 0.0
C2534 C 0.9104 0.91745 0.39528 0.0
C2535 C 0.91212 0.90104 0.31737 0.0
C2536 C 0.96746 0.89022 0.35774 0.0
C2537 C 0.965 0.86889 0.36203 0.0
C2538 C 0.95015 0.90367 0.35676 0.0
C2539 C 0.92977 0.8955 0.35951 0.0
C2540 C 0.92721 0.87401 0.3642 0.0
C2541 C 0.94489 0.86102 0.3657 0.0
C2542 C 0.95367 0.92656 0.3523 0.0
C2543 C 0.90576 0.86457 0.36673 0.0
H2544 H 0.87957 0.9434 0.38268 0.0
H2545 H 0.88222 0.93077 0.31692 0.0
H2546 H 0.91077 0.90067 0.39954 0.0
H2547 H 0.92668 0.92334 0.39614 0.0
H2548 H 0.90082 0.92596 0.40699 0.0
H2549 H 0.90291 0.90384 0.30294 0.0
H2550 H 0.92846 0.90602 0.31449 0.0
H2551 H 0.91238 0.88401 0.32058 0.0
H2552 H 0.98299 0.8964 0.35502 0.0
H2553 H 0.94289 0.8445 0.36882 0.0
H2554 H 0.94544 0.93628 0.36405 0.0
H2555 H 0.94713 0.93057 0.33678 0.0
H2556 H 0.9705 0.93076 0.35241 0.0
H2557 H 0.89667 0.87332 0.37859 0.0
H2558 H 0.90644 0.84788 0.37141 0.0
H2559 H 0.89712 0.86576 0.35175 0.0
C2560 C 0.12186 0.96503 0.36383 0.0
C2561 C 0.14343 0.96274 0.36681 0.0
C2562 C 0.10859 0.94758 0.36306 0.0
C2563 C 0.11714 0.92723 0.36471 0.0
C2564 C 0.13885 0.92484 0.36836 0.0
C2565 C 0.15171 0.94266 0.36963 0.0
C2566 C 0.08549 0.95095 0.35971 0.0
C2567 C 0.14866 0.90346 0.36978 0.0
C2568 C 0.07841 0.88288 0.3739 0.0
C2569 C 0.07359 0.87692 0.35337 0.0
C2570 C 0.09303 0.8988 0.37794 0.0
C2571 C 0.10346 0.90865 0.36107 0.0
C2572 C 0.09948 0.90182 0.3404 0.0
C2573 C 0.08442 0.88627 0.33679 0.0
C2574 C 0.09645 0.90586 0.40016 0.0
C2575 C 0.11059 0.91149 0.32198 0.0
H2576 H 0.11537 0.98053 0.36175 0.0
H2577 H 0.16841 0.9408 0.37172 0.0
H2578 H 0.08097 0.94515 0.34403 0.0
H2579 H 0.07636 0.94197 0.37139 0.0
H2580 H 0.08106 0.96768 0.36086 0.0
H2581 H 0.16537 0.90421 0.37439 0.0
H2582 H 0.14015 0.89361 0.3812 0.0
H2583 H 0.14755 0.89558 0.35438 0.0
H2584 H 0.06997 0.87583 0.38678 0.0
H2585 H 0.08086 0.88165 0.3209 0.0
H2586 H 0.09024 0.92193 0.40212 0.0
H2587 H 0.11337 0.90642 0.40381 0.0
H2588 H 0.0886 0.89547 0.41162 0.0
H2589 H 0.10542 0.92791 0.32002 0.0
H2590 H 0.10744 0.90295 0.30721 0.0
H2591 H 0.1277 0.91173 0.32472 0.0
C2592 C 0.06552 0.86233 0.64951 0.0
C2593 C 0.04555 0.8702 0.65395 0.0
C2594 C 0.0833 0.87523 0.65075 0.0
C2595 C 0.08099 0.89662 0.656 0.0
C2596 C 0.06074 0.9048 0.65955 0.0
C2597 C 0.04334 0.89145 0.65878 0.0
C2598 C 0.10461 0.86576 0.64732 0.0
C2599 C 0.05746 0.92759 0.66465 0.0
C2600 C 0.12434 0.92776 0.68217 0.0
C2601 C 0.13252 0.93925 0.66542 0.0
C2602 C 0.10826 0.91312 0.67912 0.0
C2603 C 0.0997 0.91029 0.65891 0.0
C2604 C 0.10822 0.92155 0.64185 0.0
C2605 C 0.1247 0.93569 0.64527 0.0
C2606 C 0.10005 0.90109 0.69766 0.0
C2607 C 0.09927 0.91938 0.62016 0.0
H2608 H 0.06734 0.84588 0.64597 0.0
H2609 H 0.02794 0.89765 0.6621 0.0
H2610 H 0.11335 0.87474 0.63536 0.0
H2611 H 0.11374 0.86659 0.66202 0.0
H2612 H 0.10372 0.84918 0.64229 0.0
H2613 H 0.04065 0.93186 0.6652 0.0
H2614 H 0.06454 0.93122 0.68004 0.0
H2615 H 0.06534 0.93756 0.65286 0.0
H2616 H 0.1304 0.93035 0.69776 0.0
H2617 H 0.13085 0.94465 0.63229 0.0
H2618 H 0.09968 0.88413 0.69411 0.0
H2619 H 0.0838 0.90601 0.7011 0.0
H2620 H 0.10967 0.90358 0.71188 0.0
H2621 H 0.09881 0.90272 0.61545 0.0
H2622 H 0.10841 0.92825 0.60837 0.0
H2623 H 0.08295 0.92521 0.62003 0.0
C2624 C 0.14147 0.05684 0.67488 0.0
C2625 C 0.14385 0.04509 0.65658 0.0
C2626 C 0.12803 0.07416 0.67558 0.0
C2627 C 0.11599 0.07938 0.65778 0.0
C2628 C 0.11856 0.06769 0.63912 0.0
C2629 C 0.13278 0.05089 0.63864 0.0
C2630 C 0.12634 0.08655 0.69557 0.0
C2631 C 0.10555 0.07227 0.62002 0.0
C2632 C 0.0647 0.10657 0.67035 0.0
C2633 C 0.06882 0.12729 0.66459 0.0
C2634 C 0.07965 0.09079 0.66748 0.0
C2635 C 0.09957 0.09593 0.65935 0.0
C2636 C 0.1039 0.1169 0.65365 0.0
C2637 C 0.08831 0.13228 0.65597 0.0
C2638 C 0.07408 0.06858 0.67318 0.0
C2639 C 0.12515 0.12317 0.64562 0.0
H2640 H 0.15019 0.05247 0.68872 0.0
H2641 H 0.13453 0.04171 0.62452 0.0
H2642 H 0.12783 0.10351 0.69228 0.0
H2643 H 0.11078 0.08402 0.70274 0.0
H2644 H 0.13848 0.08203 0.70711 0.0
H2645 H 0.11017 0.0625 0.60644 0.0
H2646 H 0.08885 0.06928 0.62356 0.0
H2647 H 0.10695 0.08895 0.6156 0.0
H2648 H 0.04953 0.10259 0.67674 0.0
H2649 H 0.09154 0.1483 0.65154 0.0
H2650 H 0.08389 0.06326 0.68642 0.0
H2651 H 0.07727 0.05802 0.65982 0.0
H2652 H 0.05741 0.06692 0.6777 0.0
H2653 H 0.13717 0.11963 0.65759 0.0
H2654 H 0.12599 0.14005 0.64172 0.0
H2655 H 0.12916 0.11399 0.6315 0.0
C2656 C 0.94283 0.15161 0.64383 0.0
C2657 C 0.96283 0.14305 0.64635 0.0
C2658 C 0.92488 0.13893 0.64506 0.0
C2659 C 0.92706 0.11713 0.64834 0.0
C2660 C 0.94732 0.10832 0.64965 0.0
C2661 C 0.9649 0.1214 0.64894 0.0
C2662 C 0.90361 0.14901 0.64399 0.0
C2663 C 0.95044 0.08512 0.6526 0.0
C2664 C 0.8861 0.08446 0.67629 0.0
C2665 C 0.87648 0.07395 0.65968 0.0
C2666 C 0.90174 0.09943 0.6727 0.0
C2667 C 0.90837 0.10362 0.652 0.0
C2668 C 0.89823 0.09353 0.63512 0.0
C2669 C 0.88223 0.07899 0.63915 0.0
C2670 C 0.91173 0.11018 0.69115 0.0
C2671 C 0.90507 0.0972 0.61286 0.0
H2672 H 0.94115 0.16836 0.64204 0.0
H2673 H 0.98034 0.1147 0.65077 0.0
H2674 H 0.89353 0.14074 0.63259 0.0
H2675 H 0.8959 0.14782 0.65947 0.0
H2676 H 0.90451 0.16576 0.63955 0.0
H2677 H 0.9671 0.08051 0.65119 0.0
H2678 H 0.94476 0.08043 0.66828 0.0
H2679 H 0.94123 0.07628 0.64089 0.0
H2680 H 0.88162 0.08073 0.69219 0.0
H2681 H 0.87496 0.0708 0.62625 0.0
H2682 H 0.91213 0.12733 0.68864 0.0
H2683 H 0.92811 0.1048 0.69285 0.0
H2684 H 0.90332 0.10693 0.70598 0.0
H2685 H 0.90581 0.11417 0.60945 0.0
H2686 H 0.89443 0.08967 0.60142 0.0
H2687 H 0.92101 0.09079 0.6106 0.0
C2688 C 0.92648 0.88835 0.68045 0.0
C2689 C 0.93753 0.87939 0.66381 0.0
C2690 C 0.91156 0.90409 0.677 0.0
C2691 C 0.90804 0.91154 0.65646 0.0
C2692 C 0.91879 0.90217 0.63953 0.0
C2693 C 0.9332 0.886 0.64338 0.0
C2694 C 0.90005 0.9132 0.69546 0.0
C2695 C 0.9159 0.90994 0.61747 0.0
C2696 C 0.85981 0.94533 0.64699 0.0
C2697 C 0.8678 0.96546 0.65031 0.0
C2698 C 0.87274 0.9276 0.64859 0.0
C2699 C 0.89428 0.93011 0.65303 0.0
C2700 C 0.90257 0.9505 0.65537 0.0
C2701 C 0.88919 0.96787 0.65431 0.0
C2702 C 0.86317 0.90616 0.6465 0.0
C2703 C 0.92552 0.95398 0.65954 0.0
H2704 H 0.92969 0.88322 0.69626 0.0
H2705 H 0.94185 0.87927 0.63048 0.0
H2706 H 0.90512 0.92957 0.69799 0.0
H2707 H 0.88301 0.91348 0.69237 0.0
H2708 H 0.90292 0.90424 0.71004 0.0
H2709 H 0.92425 0.90008 0.60589 0.0
H2710 H 0.89909 0.91035 0.61334 0.0
H2711 H 0.92188 0.92617 0.61624 0.0
H2712 H 0.84324 0.94337 0.64412 0.0
H2713 H 0.89547 0.9834 0.65676 0.0
H2714 H 0.86433 0.89781 0.66164 0.0
H2715 H 0.87184 0.89679 0.6348 0.0
H2716 H 0.84648 0.90685 0.64183 0.0
H2717 H 0.92963 0.94773 0.67516 0.0
H2718 H 0.92981 0.97079 0.65904 0.0
H2719 H 0.93509 0.94546 0.64787 0.0
C2720 C 0.37054 0.05027 0.13379 0.0
C2721 C 0.35243 0.04426 0.14448 0.0
C2722 C 0.37019 0.06714 0.11964 0.0
C2723 C 0.35148 0.0787 0.11679 0.0
C2724 C 0.33349 0.07326 0.12846 0.0
C2725 C 0.33408 0.05587 0.14182 0.0
C2726 C 0.3895 0.07193 0.10701 0.0
C2727 C 0.31343 0.0855 0.12648 0.0
C2728 C 0.35335 0.13174 0.08937 0.0
C2729 C 0.34508 0.12677 0.06973 0.0
C2730 C 0.35553 0.1163 0.10493 0.0
C2731 C 0.35007 0.0953 0.10041 0.0
C2732 C 0.34234 0.09019 0.08033 0.0
C2733 C 0.33958 0.10602 0.06542 0.0
C2734 C 0.36312 0.12254 0.12634 0.0
C2735 C 0.33693 0.06796 0.07457 0.0
H2736 H 0.3847 0.04119 0.13576 0.0
H2737 H 0.32011 0.05132 0.15025 0.0
H2738 H 0.3863 0.06898 0.09023 0.0
H2739 H 0.39374 0.08864 0.10855 0.0
H2740 H 0.40307 0.06226 0.11184 0.0
H2741 H 0.30171 0.08084 0.1384 0.0
H2742 H 0.31656 0.10247 0.1281 0.0
H2743 H 0.30657 0.08297 0.11079 0.0
H2744 H 0.35759 0.14778 0.09274 0.0
H2745 H 0.33347 0.10206 0.05014 0.0
H2746 H 0.37724 0.11344 0.13056 0.0
H2747 H 0.35096 0.11888 0.13813 0.0
H2748 H 0.3669 0.13945 0.12731 0.0
H2749 H 0.35031 0.05749 0.07798 0.0
H2750 H 0.33275 0.06634 0.05781 0.0
H2751 H 0.32354 0.0625 0.0841 0.0
C2752 C 0.37581 0.96136 0.8772 0.0
C2753 C 0.35813 0.96703 0.86564 0.0
C2754 C 0.37507 0.9445 0.89135 0.0
C2755 C 0.35645 0.93263 0.89334 0.0
C2756 C 0.33896 0.93772 0.8808 0.0
C2757 C 0.33988 0.95509 0.86745 0.0
C2758 C 0.39383 0.94008 0.9049 0.0
C2759 C 0.31904 0.92515 0.88187 0.0
C2760 C 0.35776 0.87976 0.9211 0.0
C2761 C 0.34848 0.8847 0.9403 0.0
C2762 C 0.36048 0.89515 0.90559 0.0
C2763 C 0.35451 0.91609 0.90973 0.0
C2764 C 0.34573 0.92118 0.92938 0.0
C2765 C 0.34248 0.90539 0.94423 0.0
C2766 C 0.36922 0.88893 0.88461 0.0
C2767 C 0.3397 0.94336 0.93475 0.0
H2768 H 0.38986 0.9707 0.87589 0.0
H2769 H 0.32626 0.95939 0.85835 0.0
H2770 H 0.3898 0.94311 0.92148 0.0
H2771 H 0.39837 0.92341 0.90369 0.0
H2772 H 0.40747 0.94991 0.90063 0.0
H2773 H 0.30784 0.92955 0.86937 0.0
H2774 H 0.32253 0.90822 0.88051 0.0
H2775 H 0.31136 0.92764 0.89719 0.0
H2776 H 0.36239 0.86376 0.91802 0.0
H2777 H 0.33558 0.90934 0.95918 0.0
H2778 H 0.38337 0.89824 0.88102 0.0
H2779 H 0.35759 0.89233 0.87222 0.0
H2780 H 0.37332 0.87208 0.88392 0.0
H2781 H 0.35308 0.95401 0.93194 0.0
H2782 H 0.33468 0.94499 0.95128 0.0
H2783 H 0.32672 0.94857 0.92455 0.0
C2784 C 0.06632 0.36011 0.86 0.0
C2785 C 0.04622 0.3568 0.86805 0.0
C2786 C 0.08405 0.35888 0.87297 0.0
C2787 C 0.08155 0.35483 0.89459 0.0
C2788 C 0.06117 0.35248 0.90291 0.0
C2789 C 0.04382 0.35317 0.88951 0.0
C2790 C 0.10547 0.36094 0.86336 0.0
C2791 C 0.0577 0.34873 0.92593 0.0
C2792 C 0.12346 0.32834 0.92734 0.0
C2793 C 0.1323 0.34526 0.93805 0.0
C2794 C 0.10772 0.33138 0.91235 0.0
C2795 C 0.10013 0.3518 0.90841 0.0
C2796 C 0.10937 0.36902 0.91882 0.0
C2797 C 0.12556 0.36556 0.9333 0.0
C2798 C 0.09876 0.31263 0.90121 0.0
C2799 C 0.10144 0.39097 0.91549 0.0
H2800 H 0.06826 0.36271 0.84339 0.0
H2801 H 0.0283 0.35072 0.89583 0.0
H2802 H 0.11474 0.3729 0.87178 0.0
H2803 H 0.11395 0.34589 0.86485 0.0
H2804 H 0.10476 0.36525 0.84658 0.0
H2805 H 0.04089 0.34918 0.9302 0.0
H2806 H 0.06406 0.33323 0.93035 0.0
H2807 H 0.06613 0.36065 0.93527 0.0
H2808 H 0.12869 0.31263 0.93088 0.0
H2809 H 0.1322 0.37868 0.94169 0.0
H2810 H 0.09846 0.31539 0.88411 0.0
H2811 H 0.08241 0.31007 0.90634 0.0
H2812 H 0.10782 0.29818 0.90436 0.0
H2813 H 0.10102 0.39476 0.8986 0.0
H2814 H 0.1112 0.40278 0.92361 0.0
H2815 H 0.08521 0.39219 0.92144 0.0
C2816 C 0.68157 0.1241 0.92852 0.0
C2817 C 0.66476 0.13264 0.93964 0.0
C2818 C 0.67842 0.10847 0.91343 0.0
C2819 C 0.65802 0.1007 0.9098 0.0
C2820 C 0.64091 0.10965 0.92063 0.0
C2821 C 0.64445 0.12572 0.93521 0.0
C2822 C 0.69705 0.09983 0.90184 0.0
C2823 C 0.61899 0.10151 0.91764 0.0
C2824 C 0.64907 0.06727 0.86125 0.0
C2825 C 0.65271 0.04712 0.86903 0.0
C2826 C 0.65043 0.08489 0.87435 0.0
C2827 C 0.65494 0.08222 0.89586 0.0
C2828 C 0.65764 0.06179 0.90393 0.0
C2829 C 0.65682 0.04455 0.89038 0.0
C2830 C 0.64797 0.10639 0.865 0.0
C2831 C 0.66189 0.05814 0.92683 0.0
H2832 H 0.69728 0.12947 0.93182 0.0
H2833 H 0.63142 0.13214 0.94391 0.0
H2834 H 0.69989 0.08345 0.90675 0.0
H2835 H 0.69397 0.09966 0.8848 0.0
H2836 H 0.71146 0.10902 0.90481 0.0
H2837 H 0.60723 0.11105 0.92609 0.0
H2838 H 0.61488 0.10123 0.90082 0.0
H2839 H 0.61806 0.08519 0.92342 0.0
H2840 H 0.6461 0.06935 0.84471 0.0
H2841 H 0.65953 0.02899 0.89649 0.0
H2842 H 0.66295 0.11501 0.86631 0.0
H2843 H 0.63607 0.11546 0.87373 0.0
H2844 H 0.64337 0.1058 0.84829 0.0
H2845 H 0.6774 0.06463 0.931 0.0
H2846 H 0.66172 0.04128 0.93094 0.0
H2847 H 0.65007 0.06634 0.9365 0.0
C2848 C 0.96572 0.65191 0.88893 0.0
C2849 C 0.96358 0.64878 0.86737 0.0
C2850 C 0.94819 0.65277 0.90207 0.0
C2851 C 0.92791 0.65107 0.89341 0.0
C2852 C 0.92565 0.64731 0.87171 0.0
C2853 C 0.94355 0.64594 0.85897 0.0
C2854 C 0.95138 0.65623 0.92518 0.0
C2855 C 0.90434 0.64583 0.86177 0.0
C2856 C 0.88332 0.64189 0.93183 0.0
C2857 C 0.87728 0.66243 0.93653 0.0
C2858 C 0.89936 0.63784 0.91734 0.0
C2859 C 0.90923 0.65471 0.90694 0.0
C2860 C 0.90232 0.67538 0.91079 0.0
C2861 C 0.88665 0.679 0.92572 0.0
C2862 C 0.90651 0.61562 0.91404 0.0
C2863 C 0.91201 0.6938 0.89969 0.0
H2864 H 0.98118 0.65399 0.89551 0.0
H2865 H 0.9418 0.64373 0.84228 0.0
H2866 H 0.9455 0.67192 0.9296 0.0
H2867 H 0.94239 0.64456 0.9343 0.0
H2868 H 0.96809 0.65517 0.92972 0.0
H2869 H 0.90521 0.6412 0.84507 0.0
H2870 H 0.89448 0.63437 0.87023 0.0
H2871 H 0.89641 0.6612 0.86283 0.0
H2872 H 0.87625 0.62902 0.94025 0.0
H2873 H 0.88195 0.6949 0.92919 0.0
H2874 H 0.92253 0.61373 0.92037 0.0
H2875 H 0.9072 0.6119 0.89715 0.0
H2876 H 0.8961 0.60415 0.92186 0.0
H2877 H 0.92839 0.69581 0.90497 0.0
H2878 H 0.90341 0.70856 0.90272 0.0
H2879 H 0.91239 0.69099 0.88259 0.0
C2880 C 0.65609 0.96608 0.12161 0.0
C2881 C 0.65233 0.96349 0.14302 0.0
C2882 C 0.65664 0.94887 0.10802 0.0
C2883 C 0.65403 0.92844 0.11611 0.0
C2884 C 0.64988 0.92574 0.13769 0.0
C2885 C 0.64878 0.94334 0.15084 0.0
C2886 C 0.66051 0.95256 0.08505 0.0
C2887 C 0.64754 0.90423 0.14704 0.0
C2888 C 0.64282 0.8851 0.07682 0.0
C2889 C 0.66304 0.87817 0.07201 0.0
C2890 C 0.63954 0.90111 0.09153 0.0
C2891 C 0.65685 0.90999 0.10208 0.0
C2892 C 0.67718 0.9022 0.09808 0.0
C2893 C 0.68005 0.88664 0.08287 0.0
C2894 C 0.61769 0.90928 0.09493 0.0
C2895 C 0.69601 0.91078 0.10937 0.0
H2896 H 0.65871 0.98165 0.11547 0.0
H2897 H 0.64608 0.94125 0.16742 0.0
H2898 H 0.67593 0.94603 0.0806 0.0
H2899 H 0.64851 0.9444 0.07559 0.0
H2900 H 0.6603 0.96942 0.08097 0.0
H2901 H 0.64322 0.9048 0.16383 0.0
H2902 H 0.63548 0.8952 0.13851 0.0
H2903 H 0.66248 0.89558 0.14547 0.0
H2904 H 0.62964 0.87873 0.06833 0.0
H2905 H 0.6957 0.88125 0.07928 0.0
H2906 H 0.61668 0.9256 0.08918 0.0
H2907 H 0.61387 0.90954 0.11182 0.0
H2908 H 0.60577 0.89976 0.08667 0.0
H2909 H 0.6988 0.92715 0.10446 0.0
H2910 H 0.71035 0.90155 0.10614 0.0
H2911 H 0.69321 0.9109 0.12647 0.0
C2912 C 0.05017 0.64354 0.12927 0.0
C2913 C 0.04518 0.66087 0.14165 0.0
C2914 C 0.06692 0.64436 0.115 0.0
C2915 C 0.07937 0.66265 0.11371 0.0
C2916 C 0.07495 0.67974 0.12705 0.0
C2917 C 0.05767 0.67879 0.14052 0.0
C2918 C 0.07062 0.62607 0.10061 0.0
C2919 C 0.08816 0.69927 0.12673 0.0
C2920 C 0.13212 0.66065 0.08581 0.0
C2921 C 0.12752 0.67088 0.06701 0.0
C2922 C 0.11665 0.65782 0.10122 0.0
C2923 C 0.09594 0.6647 0.09737 0.0
C2924 C 0.09116 0.67446 0.0781 0.0
C2925 C 0.10706 0.67776 0.06336 0.0
C2926 C 0.12257 0.648 0.1218 0.0
C2927 C 0.06922 0.68149 0.07304 0.0
H2928 H 0.04038 0.62975 0.13006 0.0
H2929 H 0.05387 0.69215 0.15023 0.0
H2930 H 0.06773 0.63094 0.08423 0.0
H2931 H 0.08711 0.62086 0.10157 0.0
H2932 H 0.06031 0.61261 0.10429 0.0
H2933 H 0.08416 0.7101 0.13969 0.0
H2934 H 0.10496 0.69517 0.12789 0.0
H2935 H 0.0859 0.70764 0.11174 0.0
H2936 H 0.14794 0.65535 0.08868 0.0
H2937 H 0.10337 0.68542 0.04872 0.0
H2938 H 0.11277 0.63405 0.12482 0.0
H2939 H 0.1196 0.65923 0.13467 0.0
H2940 H 0.13926 0.64328 0.12228 0.0
H2941 H 0.0581 0.66839 0.07531 0.0
H2942 H 0.06776 0.68726 0.05675 0.0
H2943 H 0.06448 0.69421 0.08379 0.0
C2944 C 0.94475 0.36573 0.15033 0.0
C2945 C 0.96483 0.36203 0.1424 0.0
C2946 C 0.92703 0.36435 0.13737 0.0
C2947 C 0.92954 0.35977 0.11586 0.0
C2948 C 0.9499 0.35702 0.10763 0.0
C2949 C 0.96724 0.35785 0.12105 0.0
C2950 C 0.90561 0.36685 0.14688 0.0
C2951 C 0.95338 0.35269 0.08472 0.0
C2952 C 0.88744 0.33304 0.08358 0.0
C2953 C 0.87882 0.34983 0.07249 0.0
C2954 C 0.90316 0.33624 0.09855 0.0
C2955 C 0.91096 0.35665 0.10206 0.0
C2956 C 0.90194 0.37374 0.09126 0.0
C2957 C 0.88576 0.37015 0.07681 0.0
C2958 C 0.91189 0.31763 0.11013 0.0
C2959 C 0.91011 0.39567 0.09413 0.0
H2960 H 0.9428 0.36876 0.16687 0.0
H2961 H 0.98275 0.35511 0.11482 0.0
H2962 H 0.89649 0.37873 0.13818 0.0
H2963 H 0.89698 0.35187 0.14568 0.0
H2964 H 0.90633 0.37151 0.16357 0.0
H2965 H 0.9702 0.35285 0.08047 0.0
H2966 H 0.94685 0.33717 0.08064 0.0
H2967 H 0.94511 0.36449 0.07508 0.0
H2968 H 0.88204 0.31732 0.08037 0.0
H2969 H 0.87929 0.38316 0.06812 0.0
H2970 H 0.91218 0.32077 0.12717 0.0
H2971 H 0.92821 0.31476 0.1051 0.0
H2972 H 0.90266 0.30322 0.10729 0.0
H2973 H 0.91052 0.39983 0.11093 0.0
H2974 H 0.9005 0.40741 0.08572 0.0
H2975 H 0.92637 0.39657 0.0882 0.0
C2976 C 0.65195 0.8645 0.56686 0.0
C2977 C 0.644 0.86077 0.54679 0.0
C2978 C 0.63899 0.86324 0.58459 0.0
C2979 C 0.61746 0.85873 0.58213 0.0
C2980 C 0.60922 0.85593 0.56179 0.0
C2981 C 0.62263 0.85666 0.54443 0.0
C2982 C 0.64851 0.86583 0.60599 0.0
C2983 C 0.58628 0.85166 0.55836 0.0
C2984 C 0.58517 0.83247 0.62456 0.0
C2985 C 0.57416 0.84937 0.63308 0.0
C2986 C 0.60009 0.83547 0.60874 0.0
C2987 C 0.60366 0.85581 0.60074 0.0
C2988 C 0.59294 0.87301 0.60966 0.0
C2989 C 0.57853 0.86962 0.62592 0.0
C2990 C 0.61156 0.81675 0.60012 0.0
C2991 C 0.59588 0.89486 0.6013 0.0
H2992 H 0.66851 0.86747 0.56879 0.0
H2993 H 0.61638 0.85389 0.52895 0.0
H2994 H 0.6399 0.87784 0.61502 0.0
H2995 H 0.64721 0.85092 0.61473 0.0
H2996 H 0.66524 0.87036 0.60523 0.0
H2997 H 0.58204 0.8517 0.54154 0.0
H2998 H 0.58215 0.83621 0.56503 0.0
H2999 H 0.57669 0.86356 0.56654 0.0
H3000 H 0.58193 0.81681 0.63011 0.0
H3001 H 0.56991 0.88272 0.6323 0.0
H3002 H 0.62862 0.8198 0.59978 0.0
H3003 H 0.60651 0.81382 0.58382 0.0
H3004 H 0.60865 0.80241 0.60944 0.0
H3005 H 0.6127 0.89896 0.60086 0.0
H3006 H 0.5875 0.90671 0.61081 0.0
H3007 H 0.58998 0.89566 0.58503 0.0
C3008 C 0.1803 0.58244 0.62641 0.0
C3009 C 0.16348 0.57138 0.635 0.0
C3010 C 0.17716 0.59748 0.61074 0.0
C3011 C 0.15675 0.60109 0.60297 0.0
C3012 C 0.13963 0.59033 0.61197 0.0
C3013 C 0.14318 0.5758 0.62809 0.0
C3014 C 0.19579 0.60902 0.60203 0.0
C3015 C 0.11771 0.59331 0.60383 0.0
C3016 C 0.14766 0.64952 0.56941 0.0
C3017 C 0.15123 0.64165 0.54929 0.0
C3018 C 0.14912 0.63649 0.58707 0.0
C3019 C 0.15366 0.61498 0.58446 0.0
C3020 C 0.15631 0.60682 0.56406 0.0
C3021 C 0.1554 0.6203 0.54678 0.0
C3022 C 0.14671 0.64592 0.60853 0.0
C3023 C 0.16059 0.5839 0.56049 0.0
H3024 H 0.19602 0.57914 0.63178 0.0
H3025 H 0.13014 0.56714 0.63454 0.0
H3026 H 0.19862 0.60405 0.58569 0.0
H3027 H 0.19271 0.62608 0.6018 0.0
H3028 H 0.2102 0.60608 0.61123 0.0
H3029 H 0.10595 0.58488 0.6134 0.0
H3030 H 0.1136 0.61013 0.6035 0.0
H3031 H 0.11678 0.58747 0.58754 0.0
H3032 H 0.14465 0.66606 0.57143 0.0
H3033 H 0.15805 0.61413 0.53124 0.0
H3034 H 0.1617 0.64459 0.61714 0.0
H3035 H 0.13479 0.63726 0.61763 0.0
H3036 H 0.14216 0.66265 0.6079 0.0
H3037 H 0.1761 0.57976 0.567 0.0
H3038 H 0.16042 0.57973 0.54365 0.0
H3039 H 0.14877 0.57426 0.56872 0.0
C3040 C 0.39292 0.15972 0.54262 0.0
C3041 C 0.37175 0.15476 0.54518 0.0
C3042 C 0.40646 0.16095 0.55983 0.0
C3043 C 0.39854 0.15774 0.58024 0.0
C3044 C 0.37724 0.15231 0.5829 0.0
C3045 C 0.36416 0.15061 0.56531 0.0
C3046 C 0.42916 0.1662 0.55618 0.0
C3047 C 0.36805 0.14924 0.60439 0.0
C3048 C 0.43817 0.1486 0.62378 0.0
C3049 C 0.44153 0.169 0.63105 0.0
C3050 C 0.42391 0.14458 0.60753 0.0
C3051 C 0.41236 0.16128 0.59872 0.0
C3052 C 0.415 0.18174 0.60674 0.0
C3053 C 0.42976 0.18539 0.62257 0.0
C3054 C 0.42195 0.12264 0.59915 0.0
C3055 C 0.40264 0.19992 0.5982 0.0
H3056 H 0.3989 0.16282 0.52708 0.0
H3057 H 0.34776 0.14697 0.56739 0.0
H3058 H 0.43268 0.18182 0.56281 0.0
H3059 H 0.43933 0.15473 0.56426 0.0
H3060 H 0.43325 0.16635 0.53932 0.0
H3061 H 0.35155 0.14392 0.60378 0.0
H3062 H 0.3773 0.13763 0.61331 0.0
H3063 H 0.36872 0.16418 0.61315 0.0
H3064 H 0.44735 0.13589 0.63016 0.0
H3065 H 0.4322 0.20117 0.62821 0.0
H3066 H 0.42765 0.12217 0.58279 0.0
H3067 H 0.40535 0.11771 0.59895 0.0
H3068 H 0.43104 0.11119 0.6085 0.0
H3069 H 0.40736 0.20301 0.58182 0.0
H3070 H 0.40505 0.21442 0.60743 0.0
H3071 H 0.38573 0.19615 0.5981 0.0
C3072 C 0.85552 0.39082 0.54242 0.0
C3073 C 0.85921 0.36933 0.54446 0.0
C3074 C 0.85505 0.40398 0.55997 0.0
C3075 C 0.85767 0.39537 0.58018 0.0
C3076 C 0.86177 0.37371 0.58232 0.0
C3077 C 0.86279 0.361 0.5644 0.0
C3078 C 0.85122 0.42705 0.55688 0.0
C3079 C 0.86414 0.36381 0.60357 0.0
C3080 C 0.86902 0.43349 0.62456 0.0
C3081 C 0.84882 0.43812 0.63167 0.0
C3082 C 0.87225 0.41923 0.60813 0.0
C3083 C 0.85491 0.40894 0.59899 0.0
C3084 C 0.83461 0.41275 0.60695 0.0
C3085 C 0.83178 0.42752 0.62294 0.0
C3086 C 0.89408 0.41602 0.59983 0.0
C3087 C 0.81574 0.40172 0.5981 0.0
H3088 H 0.85288 0.39736 0.52702 0.0
H3089 H 0.86543 0.34435 0.56607 0.0
H3090 H 0.83583 0.43137 0.56354 0.0
H3091 H 0.86326 0.43628 0.56525 0.0
H3092 H 0.85142 0.43155 0.54013 0.0
H3093 H 0.86843 0.34703 0.60257 0.0
H3094 H 0.87623 0.3721 0.61278 0.0
H3095 H 0.84922 0.36519 0.61229 0.0
H3096 H 0.88223 0.44179 0.63111 0.0
H3097 H 0.81615 0.43096 0.62846 0.0
H3098 H 0.89506 0.4222 0.58366 0.0
H3099 H 0.89787 0.39914 0.59911 0.0
H3100 H 0.90603 0.42402 0.60953 0.0
H3101 H 0.81294 0.40707 0.58187 0.0
H3102 H 0.80141 0.40474 0.60742 0.0
H3103 H 0.8185 0.38462 0.59753 0.0
C3104 C 0.58444 0.17891 0.3842 0.0
C3105 C 0.57387 0.16226 0.3747 0.0
C3106 C 0.59955 0.17537 0.3997 0.0
C3107 C 0.60383 0.15469 0.40633 0.0
C3108 C 0.59368 0.13776 0.39632 0.0
C3109 C 0.57899 0.14174 0.38045 0.0
C3110 C 0.61037 0.19387 0.40955 0.0
C3111 C 0.59744 0.11552 0.40317 0.0
C3112 C 0.65214 0.14657 0.44032 0.0
C3113 C 0.64377 0.14909 0.46041 0.0
C3114 C 0.63929 0.14779 0.4225 0.0
C3115 C 0.61752 0.15108 0.42489 0.0
C3116 C 0.60891 0.15242 0.44523 0.0
C3117 C 0.62215 0.15171 0.46268 0.0
C3118 C 0.64917 0.14671 0.40114 0.0
C3119 C 0.58575 0.15537 0.44857 0.0
H3120 H 0.58065 0.1948 0.37973 0.0
H3121 H 0.57076 0.12881 0.37327 0.0
H3122 H 0.60514 0.1956 0.42597 0.0
H3123 H 0.62752 0.19137 0.40979 0.0
H3124 H 0.60702 0.20867 0.40114 0.0
H3125 H 0.58981 0.10404 0.39264 0.0
H3126 H 0.61441 0.11212 0.40374 0.0
H3127 H 0.5912 0.11329 0.41918 0.0
H3128 H 0.66887 0.14477 0.43848 0.0
H3129 H 0.6156 0.15354 0.47819 0.0
H3130 H 0.64787 0.16217 0.39341 0.0
H3131 H 0.64084 0.13526 0.39117 0.0
H3132 H 0.66594 0.14231 0.40188 0.0
H3133 H 0.58099 0.17104 0.44291 0.0
H3134 H 0.5813 0.154 0.46528 0.0
H3135 H 0.57683 0.14363 0.43947 0.0
C3136 C 0.86883 0.5792 0.38492 0.0
C3137 C 0.84854 0.57482 0.37793 0.0
C3138 C 0.87232 0.59338 0.40135 0.0
C3139 C 0.85517 0.60387 0.41062 0.0
C3140 C 0.83477 0.60032 0.40279 0.0
C3141 C 0.83168 0.58561 0.38679 0.0
C3142 C 0.89424 0.59629 0.40953 0.0
C3143 C 0.81609 0.61158 0.41176 0.0
C3144 C 0.85631 0.62191 0.46722 0.0
C3145 C 0.8603 0.64335 0.46519 0.0
C3146 C 0.85557 0.60878 0.44966 0.0
C3147 C 0.8582 0.61738 0.42943 0.0
C3148 C 0.8626 0.63898 0.4273 0.0
C3149 C 0.8639 0.65165 0.44524 0.0
C3150 C 0.85145 0.58576 0.45274 0.0
C3151 C 0.86497 0.64888 0.40605 0.0
H3152 H 0.8819 0.57074 0.37826 0.0
H3153 H 0.81598 0.58235 0.38137 0.0
H3154 H 0.89826 0.61312 0.41024 0.0
H3155 H 0.89523 0.59008 0.42568 0.0
H3156 H 0.90603 0.58815 0.39975 0.0
H3157 H 0.80168 0.60877 0.40252 0.0
H3158 H 0.8133 0.60623 0.428 0.0
H3159 H 0.81908 0.62864 0.41236 0.0
H3160 H 0.85364 0.6154 0.48262 0.0
H3161 H 0.86676 0.66826 0.44357 0.0
H3162 H 0.8633 0.57637 0.44427 0.0
H3163 H 0.83595 0.58167 0.44619 0.0
H3164 H 0.8517 0.58123 0.46948 0.0
H3165 H 0.8769 0.64044 0.39675 0.0
H3166 H 0.86949 0.6656 0.40705 0.0
H3167 H 0.84998 0.64772 0.39743 0.0
C3168 C 0.37121 0.83515 0.45373 0.0
C3169 C 0.36859 0.85339 0.46553 0.0
C3170 C 0.38466 0.83468 0.43642 0.0
C3171 C 0.39648 0.85265 0.43127 0.0
C3172 C 0.39366 0.87125 0.44299 0.0
C3173 C 0.37943 0.8715 0.45978 0.0
C3174 C 0.38661 0.81473 0.42398 0.0
C3175 C 0.40644 0.89053 0.4385 0.0
C3176 C 0.44802 0.84072 0.4043 0.0
C3177 C 0.44393 0.84646 0.38358 0.0
C3178 C 0.43298 0.8434 0.42002 0.0
C3179 C 0.41299 0.85131 0.4148 0.0
C3180 C 0.40868 0.857 0.39383 0.0
C3181 C 0.42437 0.85489 0.37852 0.0
C3182 C 0.43851 0.83771 0.44223 0.0
C3183 C 0.38737 0.8648 0.38749 0.0
H3184 H 0.36266 0.82118 0.45808 0.0
H3185 H 0.37749 0.88557 0.46901 0.0
H3186 H 0.38516 0.81806 0.40704 0.0
H3187 H 0.40223 0.80772 0.42657 0.0
H3188 H 0.37457 0.80305 0.42841 0.0
H3189 H 0.40159 0.90405 0.44824 0.0
H3190 H 0.42317 0.88721 0.44158 0.0
H3191 H 0.40509 0.89494 0.42181 0.0
H3192 H 0.46324 0.83448 0.40833 0.0
H3193 H 0.42117 0.85932 0.3625 0.0
H3194 H 0.42884 0.82433 0.44747 0.0
H3195 H 0.43509 0.85102 0.4528 0.0
H3196 H 0.45522 0.8334 0.44396 0.0
H3197 H 0.37548 0.85267 0.39091 0.0
H3198 H 0.38658 0.86877 0.37062 0.0
H3199 H 0.38315 0.87885 0.3967 0.0
C3200 C 0.18035 0.4286 0.38723 0.0
C3201 C 0.16345 0.4395 0.37859 0.0
C3202 C 0.17731 0.41354 0.40291 0.0
C3203 C 0.15692 0.40973 0.41065 0.0
C3204 C 0.13972 0.42032 0.40159 0.0
C3205 C 0.14317 0.43487 0.38546 0.0
C3206 C 0.19603 0.4022 0.41168 0.0
C3207 C 0.11781 0.41712 0.40967 0.0
C3208 C 0.1485 0.36126 0.44438 0.0
C3209 C 0.15203 0.36923 0.46447 0.0
C3210 C 0.1497 0.37427 0.42668 0.0
C3211 C 0.15393 0.39586 0.4292 0.0
C3212 C 0.15649 0.4041 0.44958 0.0
C3213 C 0.15584 0.39065 0.4669 0.0
C3214 C 0.14739 0.36475 0.40524 0.0
C3215 C 0.16045 0.42709 0.45308 0.0
H3216 H 0.19604 0.43204 0.3819 0.0
H3217 H 0.13007 0.44341 0.37897 0.0
H3218 H 0.19877 0.40725 0.42802 0.0
H3219 H 0.19313 0.38512 0.41195 0.0
H3220 H 0.21043 0.40526 0.4025 0.0
H3221 H 0.10598 0.42536 0.40001 0.0
H3222 H 0.1139 0.40026 0.41009 0.0
H3223 H 0.11674 0.42304 0.42592 0.0
H3224 H 0.14577 0.34467 0.44241 0.0
H3225 H 0.15846 0.3969 0.48241 0.0
H3226 H 0.16239 0.36613 0.39667 0.0
H3227 H 0.13545 0.37332 0.39609 0.0
H3228 H 0.14294 0.348 0.40594 0.0
H3229 H 0.17593 0.43141 0.44661 0.0
H3230 H 0.16016 0.43131 0.4699 0.0
H3231 H 0.14854 0.43656 0.44478 0.0
C3232 C 0.60716 0.5638 0.83593 0.0
C3233 C 0.62758 0.56756 0.84283 0.0
C3234 C 0.59119 0.57849 0.83918 0.0
C3235 C 0.59587 0.59781 0.84888 0.0
C3236 C 0.61654 0.60176 0.85577 0.0
C3237 C 0.63208 0.5864 0.85303 0.0
C3238 C 0.56928 0.57329 0.83215 0.0
C3239 C 0.62236 0.62242 0.86551 0.0
C3240 C 0.55751 0.64083 0.83457 0.0
C3241 C 0.54502 0.64204 0.85249 0.0
C3242 C 0.5748 0.62737 0.83368 0.0
C3243 C 0.57923 0.6141 0.85083 0.0
C3244 C 0.56676 0.61546 0.86911 0.0
C3245 C 0.55 0.62973 0.86986 0.0
C3246 C 0.58803 0.62699 0.81416 0.0
C3247 C 0.57047 0.60115 0.88746 0.0
H3248 H 0.60356 0.54912 0.82829 0.0
H3249 H 0.64788 0.58936 0.85834 0.0
H3250 H 0.55812 0.5756 0.84522 0.0
H3251 H 0.56452 0.58396 0.81936 0.0
H3252 H 0.56788 0.55696 0.82648 0.0
H3253 H 0.63904 0.62298 0.87026 0.0
H3254 H 0.61937 0.63523 0.85423 0.0
H3255 H 0.61252 0.62546 0.87943 0.0
H3256 H 0.55371 0.65048 0.82118 0.0
H3257 H 0.54021 0.63057 0.88365 0.0
H3258 H 0.58581 0.61195 0.80588 0.0
H3259 H 0.60482 0.62822 0.81826 0.0
H3260 H 0.584 0.63989 0.80328 0.0
H3261 H 0.56765 0.58473 0.88265 0.0
H3262 H 0.5601 0.60484 0.90087 0.0
H3263 H 0.58693 0.60219 0.89269 0.0
C3264 C 0.42715 0.62257 0.82935 0.0
C3265 C 0.43885 0.63123 0.84569 0.0
C3266 C 0.41241 0.60673 0.83309 0.0
C3267 C 0.40968 0.59891 0.85361 0.0
C3268 C 0.42114 0.60791 0.87026 0.0
C3269 C 0.4354 0.62415 0.86614 0.0
C3270 C 0.40016 0.59798 0.81495 0.0
C3271 C 0.41908 0.59975 0.89228 0.0
C3272 C 0.36154 0.56539 0.86441 0.0
C3273 C 0.36923 0.54524 0.86053 0.0
C3274 C 0.37456 0.58303 0.86258 0.0
C3275 C 0.3959 0.5804 0.85728 0.0
C3276 C 0.40392 0.55998 0.85435 0.0
C3277 C 0.39045 0.54271 0.85571 0.0
C3278 C 0.36527 0.60451 0.86538 0.0
C3279 C 0.42666 0.55637 0.84923 0.0
H3280 H 0.42965 0.62806 0.81353 0.0
H3281 H 0.44452 0.63066 0.87882 0.0
H3282 H 0.40494 0.58157 0.81205 0.0
H3283 H 0.38323 0.59786 0.81865 0.0
H3284 H 0.40261 0.60707 0.80038 0.0
H3285 H 0.42808 0.60925 0.90367 0.0
H3286 H 0.40246 0.59954 0.89712 0.0
H3287 H 0.42484 0.58341 0.89295 0.0
H3288 H 0.34511 0.56745 0.86794 0.0
H3289 H 0.39651 0.52717 0.85282 0.0
H3290 H 0.36597 0.61311 0.85035 0.0
H3291 H 0.37445 0.6136 0.87691 0.0
H3292 H 0.34876 0.60389 0.87064 0.0
H3293 H 0.43023 0.56286 0.83358 0.0
H3294 H 0.43081 0.53952 0.84927 0.0
H3295 H 0.43674 0.5646 0.86067 0.0
C3296 C 0.38656 0.426 0.83609 0.0
C3297 C 0.37694 0.43679 0.85253 0.0
C3298 C 0.40212 0.411 0.83993 0.0
C3299 C 0.40866 0.40707 0.8607 0.0
C3300 C 0.39852 0.41744 0.87742 0.0
C3301 C 0.38261 0.432 0.87315 0.0
C3302 C 0.41212 0.39995 0.82166 0.0
C3303 C 0.40526 0.41404 0.89975 0.0
C3304 C 0.44278 0.35902 0.86978 0.0
C3305 C 0.46285 0.36743 0.86729 0.0
C3306 C 0.42492 0.37178 0.86823 0.0
C3307 C 0.42725 0.39351 0.86461 0.0
C3308 C 0.44756 0.40218 0.86328 0.0
C3309 C 0.46506 0.38901 0.86434 0.0
C3310 C 0.40358 0.36184 0.86932 0.0
C3311 C 0.45083 0.42531 0.85998 0.0
H3312 H 0.38215 0.42953 0.82013 0.0
H3313 H 0.37534 0.44041 0.88592 0.0
H3314 H 0.42853 0.40521 0.81994 0.0
H3315 H 0.41241 0.38284 0.82441 0.0
H3316 H 0.40378 0.40305 0.80677 0.0
H3317 H 0.39465 0.42182 0.91105 0.0
H3318 H 0.40587 0.39712 0.9034 0.0
H3319 H 0.42125 0.42036 0.90195 0.0
H3320 H 0.44099 0.34231 0.87185 0.0
H3321 H 0.48056 0.3956 0.86252 0.0
H3322 H 0.39593 0.36292 0.85381 0.0
H3323 H 0.39351 0.3703 0.8806 0.0
H3324 H 0.40436 0.34514 0.87395 0.0
H3325 H 0.44522 0.4298 0.84422 0.0
H3326 H 0.46752 0.42984 0.86136 0.0
H3327 H 0.44164 0.43438 0.87153 0.0
C3328 C 0.56673 0.40206 0.84362 0.0
C3329 C 0.56971 0.38169 0.8511 0.0
C3330 C 0.58197 0.41755 0.84644 0.0
C3331 C 0.60104 0.41245 0.85641 0.0
C3332 C 0.60422 0.39185 0.86392 0.0
C3333 C 0.58835 0.37679 0.86149 0.0
C3334 C 0.57764 0.4394 0.83865 0.0
C3335 C 0.62456 0.38562 0.87405 0.0
C3336 C 0.64468 0.44937 0.84071 0.0
C3337 C 0.64567 0.46286 0.85789 0.0
C3338 C 0.63125 0.43205 0.84067 0.0
C3339 C 0.61785 0.42858 0.85793 0.0
C3340 C 0.61922 0.44188 0.87561 0.0
C3341 C 0.63339 0.45873 0.8755 0.0
C3342 C 0.63081 0.41797 0.82176 0.0
C3343 C 0.60484 0.43912 0.89407 0.0
H3344 H 0.55222 0.40602 0.83584 0.0
H3345 H 0.59071 0.36105 0.86728 0.0
H3346 H 0.58016 0.45088 0.85139 0.0
H3347 H 0.58863 0.44337 0.82587 0.0
H3348 H 0.56144 0.44119 0.83271 0.0
H3349 H 0.62445 0.36912 0.87943 0.0
H3350 H 0.63755 0.38768 0.86276 0.0
H3351 H 0.62788 0.39587 0.8876 0.0
H3352 H 0.65427 0.45258 0.82712 0.0
H3353 H 0.63403 0.46933 0.88868 0.0
H3354 H 0.616 0.42034 0.8131 0.0
H3355 H 0.6314 0.40133 0.82659 0.0
H3356 H 0.64402 0.42111 0.81097 0.0
H3357 H 0.58856 0.44264 0.88925 0.0
H3358 H 0.60906 0.44955 0.90727 0.0
H3359 H 0.60513 0.42271 0.8996 0.0
C3360 C 0.56583 0.36258 0.14722 0.0
C3361 C 0.54584 0.37073 0.15096 0.0
C3362 C 0.58369 0.37536 0.1485 0.0
C3363 C 0.58143 0.39693 0.15302 0.0
C3364 C 0.56116 0.40537 0.1558 0.0
C3365 C 0.54368 0.39213 0.15507 0.0
C3366 C 0.605 0.36562 0.14597 0.0
C3367 C 0.55794 0.42835 0.16005 0.0
C3368 C 0.62401 0.42884 0.17947 0.0
C3369 C 0.63271 0.43977 0.16262 0.0
C3370 C 0.60809 0.41404 0.17639 0.0
C3371 C 0.60017 0.41054 0.15602 0.0
C3372 C 0.60927 0.42117 0.13887 0.0
C3373 C 0.62564 0.43544 0.14235 0.0
C3374 C 0.59929 0.40264 0.19506 0.0
C3375 C 0.601 0.41832 0.11699 0.0
H3376 H 0.56759 0.346 0.14426 0.0
H3377 H 0.52825 0.39852 0.15786 0.0
H3378 H 0.61418 0.37418 0.13404 0.0
H3379 H 0.61369 0.36677 0.16092 0.0
H3380 H 0.60409 0.34891 0.14137 0.0
H3381 H 0.54116 0.43277 0.15992 0.0
H3382 H 0.56455 0.43241 0.17553 0.0
H3383 H 0.56628 0.43786 0.1482 0.0
H3384 H 0.62949 0.43206 0.19516 0.0
H3385 H 0.63218 0.44401 0.12928 0.0
H3386 H 0.59878 0.38559 0.19199 0.0
H3387 H 0.58303 0.40786 0.19796 0.0
H3388 H 0.60859 0.40544 0.20943 0.0
H3389 H 0.60038 0.40151 0.11289 0.0
H3390 H 0.61066 0.42659 0.10519 0.0
H3391 H 0.5848 0.42442 0.11612 0.0
C3392 C 0.6509 0.56761 0.1477 0.0
C3393 C 0.64277 0.54759 0.15128 0.0
C3394 C 0.63809 0.58545 0.14908 0.0
C3395 C 0.61652 0.58313 0.15353 0.0
C3396 C 0.60809 0.56282 0.15611 0.0
C3397 C 0.62136 0.54536 0.15528 0.0
C3398 C 0.64781 0.60679 0.14675 0.0
C3399 C 0.58512 0.55955 0.16029 0.0
C3400 C 0.58457 0.62532 0.18053 0.0
C3401 C 0.57359 0.63419 0.1638 0.0
C3402 C 0.59941 0.60948 0.17723 0.0
C3403 C 0.6029 0.60182 0.15677 0.0
C3404 C 0.59223 0.6111 0.13974 0.0
C3405 C 0.57791 0.62739 0.14344 0.0
C3406 C 0.61085 0.60047 0.19578 0.0
C3407 C 0.59509 0.6031 0.11776 0.0
H3408 H 0.66749 0.56942 0.14482 0.0
H3409 H 0.61498 0.5299 0.15793 0.0
H3410 H 0.6392 0.61611 0.13496 0.0
H3411 H 0.64672 0.61531 0.1618 0.0
H3412 H 0.6645 0.60593 0.14207 0.0
H3413 H 0.58071 0.54277 0.15994 0.0
H3414 H 0.58103 0.56597 0.17585 0.0
H3415 H 0.57562 0.56803 0.14854 0.0
H3416 H 0.58136 0.63061 0.19629 0.0
H3417 H 0.56931 0.63406 0.13048 0.0
H3418 H 0.62789 0.60004 0.19268 0.0
H3419 H 0.60566 0.58417 0.19849 0.0
H3420 H 0.60805 0.6096 0.21026 0.0
H3421 H 0.6119 0.60251 0.11365 0.0
H3422 H 0.58684 0.61293 0.10608 0.0
H3423 H 0.58897 0.58692 0.11667 0.0
C3424 C 0.44544 0.65297 0.15023 0.0
C3425 C 0.46547 0.64475 0.15353 0.0
C3426 C 0.42761 0.64014 0.15139 0.0
C3427 C 0.42994 0.61848 0.15535 0.0
C3428 C 0.45024 0.60998 0.1577 0.0
C3429 C 0.4677 0.62325 0.15709 0.0
C3430 C 0.40626 0.64992 0.14931 0.0
C3431 C 0.45352 0.58691 0.16137 0.0
C3432 C 0.38769 0.58587 0.18148 0.0
C3433 C 0.37886 0.5753 0.16446 0.0
C3434 C 0.40354 0.60077 0.17858 0.0
C3435 C 0.41125 0.60477 0.15822 0.0
C3436 C 0.40201 0.59452 0.14092 0.0
C3437 C 0.38573 0.58012 0.14423 0.0
C3438 C 0.4125 0.61175 0.19742 0.0
C3439 C 0.41006 0.59792 0.11903 0.0
H3440 H 0.44363 0.66962 0.14768 0.0
H3441 H 0.48316 0.6168 0.15953 0.0
H3442 H 0.39698 0.64164 0.13727 0.0
H3443 H 0.39772 0.64838 0.16432 0.0
H3444 H 0.40711 0.66673 0.14512 0.0
H3445 H 0.4703 0.58252 0.16097 0.0
H3446 H 0.44704 0.58246 0.1768 0.0
H3447 H 0.44509 0.57769 0.14937 0.0
H3448 H 0.38236 0.58227 0.19714 0.0
H3449 H 0.37909 0.57185 0.13104 0.0
H3450 H 0.41294 0.62887 0.19476 0.0
H3451 H 0.4288 0.6065 0.20003 0.0
H3452 H 0.40335 0.60859 0.21182 0.0
H3453 H 0.41061 0.61483 0.11533 0.0
H3454 H 0.40029 0.58993 0.10713 0.0
H3455 H 0.42626 0.59187 0.11783 0.0
C3456 C 0.43348 0.38776 0.14247 0.0
C3457 C 0.43798 0.38071 0.16271 0.0
C3458 C 0.41913 0.40409 0.1391 0.0
C3459 C 0.4086 0.41317 0.15633 0.0
C3460 C 0.41229 0.40527 0.17667 0.0
C3461 C 0.42715 0.38939 0.17964 0.0
C3462 C 0.41608 0.41235 0.11724 0.0
C3463 C 0.40101 0.41406 0.19543 0.0
C3464 C 0.39012 0.46966 0.15557 0.0
C3465 C 0.36869 0.4675 0.1517 0.0
C3466 C 0.40339 0.45219 0.15613 0.0
C3467 C 0.39494 0.43191 0.15343 0.0
C3468 C 0.37334 0.42965 0.14912 0.0
C3469 C 0.36052 0.4475 0.14801 0.0
C3470 C 0.4264 0.45542 0.16016 0.0
C3471 C 0.3636 0.40833 0.14666 0.0
H3472 H 0.44196 0.38125 0.12934 0.0
H3473 H 0.4305 0.38391 0.19531 0.0
H3474 H 0.39923 0.41296 0.11329 0.0
H3475 H 0.42216 0.42855 0.11629 0.0
H3476 H 0.42424 0.40268 0.10537 0.0
H3477 H 0.40394 0.40476 0.20978 0.0
H3478 H 0.40622 0.43033 0.19827 0.0
H3479 H 0.38394 0.41453 0.1925 0.0
H3480 H 0.39653 0.4851 0.15831 0.0
H3481 H 0.34392 0.44573 0.14524 0.0
H3482 H 0.4358 0.44708 0.14824 0.0
H3483 H 0.43061 0.44882 0.17561 0.0
H3484 H 0.4308 0.47221 0.15998 0.0
H3485 H 0.37209 0.39915 0.13468 0.0
H3486 H 0.34687 0.40924 0.14217 0.0
H3487 H 0.36484 0.39964 0.16161 0.0
C3488 C 0.86429 0.56597 0.65044 0.0
C3489 C 0.86073 0.54595 0.64228 0.0
C3490 C 0.86297 0.58383 0.63763 0.0
C3491 C 0.8586 0.58154 0.61605 0.0
C3492 C 0.856 0.56124 0.60761 0.0
C3493 C 0.85676 0.54377 0.62086 0.0
C3494 C 0.86531 0.60516 0.64737 0.0
C3495 C 0.8519 0.55799 0.58462 0.0
C3496 C 0.83205 0.62395 0.58395 0.0
C3497 C 0.84891 0.63275 0.57311 0.0
C3498 C 0.83515 0.60805 0.59878 0.0
C3499 C 0.85555 0.60026 0.6024 0.0
C3500 C 0.8727 0.60945 0.59185 0.0
C3501 C 0.8692 0.62579 0.57754 0.0
C3502 C 0.81647 0.59915 0.61009 0.0
C3503 C 0.89462 0.60131 0.59483 0.0
H3504 H 0.86714 0.56776 0.66702 0.0
H3505 H 0.85412 0.52831 0.61446 0.0
H3506 H 0.87724 0.61441 0.63887 0.0
H3507 H 0.85032 0.61376 0.64614 0.0
H3508 H 0.86982 0.60428 0.6641 0.0
H3509 H 0.85216 0.54121 0.58021 0.0
H3510 H 0.8364 0.56451 0.58047 0.0
H3511 H 0.86375 0.5664 0.57517 0.0
H3512 H 0.81634 0.62934 0.58066 0.0
H3513 H 0.88227 0.6324 0.56905 0.0
H3514 H 0.81944 0.59869 0.62716 0.0
H3515 H 0.81371 0.58286 0.60488 0.0
H3516 H 0.80205 0.60836 0.6072 0.0
H3517 H 0.89863 0.60074 0.61166 0.0
H3518 H 0.90641 0.61103 0.58661 0.0
H3519 H 0.89563 0.58511 0.58876 0.0
C3520 C 0.85652 0.46934 0.38883 0.0
C3521 C 0.86032 0.46715 0.36738 0.0
C3522 C 0.85577 0.45185 0.40206 0.0
C3523 C 0.8582 0.43156 0.39357 0.0
C3524 C 0.86245 0.42927 0.37197 0.0
C3525 C 0.86376 0.44713 0.35917 0.0
C3526 C 0.85181 0.4551 0.42508 0.0
C3527 C 0.86461 0.40794 0.36218 0.0
C3528 C 0.86844 0.38714 0.43199 0.0
C3529 C 0.84808 0.38041 0.43647 0.0
C3530 C 0.87208 0.40346 0.41769 0.0
C3531 C 0.855 0.41284 0.40719 0.0
C3532 C 0.83453 0.40526 0.41084 0.0
C3533 C 0.8313 0.38939 0.42566 0.0
C3534 C 0.89408 0.41137 0.41466 0.0
C3535 C 0.81592 0.41437 0.39959 0.0
H3536 H 0.85397 0.4848 0.39526 0.0
H3537 H 0.86648 0.44535 0.34256 0.0
H3538 H 0.83625 0.44875 0.42929 0.0
H3539 H 0.8636 0.44654 0.43445 0.0
H3540 H 0.85227 0.47187 0.42952 0.0
H3541 H 0.86916 0.40881 0.34546 0.0
H3542 H 0.87643 0.39855 0.37067 0.0
H3543 H 0.84953 0.39948 0.36338 0.0
H3544 H 0.88145 0.38039 0.44045 0.0
H3545 H 0.81554 0.38415 0.42899 0.0
H3546 H 0.89528 0.42754 0.4208 0.0
H3547 H 0.89804 0.41198 0.39782 0.0
H3548 H 0.90578 0.40148 0.42279 0.0
H3549 H 0.81333 0.43068 0.40484 0.0
H3550 H 0.80142 0.4053 0.40251 0.0
H3551 H 0.81887 0.41483 0.38252 0.0
C3552 C 0.56998 0.86764 0.36015 0.0
C3553 C 0.5499 0.86517 0.36855 0.0
C3554 C 0.58783 0.86632 0.37297 0.0
C3555 C 0.58547 0.86298 0.39473 0.0
C3556 C 0.56514 0.86172 0.40338 0.0
C3557 C 0.54766 0.86253 0.39017 0.0
C3558 C 0.60918 0.86733 0.36305 0.0
C3559 C 0.56182 0.85872 0.42653 0.0
C3560 C 0.62608 0.83478 0.42764 0.0
C3561 C 0.6357 0.85133 0.43826 0.0
C3562 C 0.61056 0.83847 0.41257 0.0
C3563 C 0.60405 0.85921 0.40838 0.0
C3564 C 0.61418 0.87604 0.41859 0.0
C3565 C 0.63006 0.8719 0.43323 0.0
C3566 C 0.60059 0.82008 0.4017 0.0
C3567 C 0.60747 0.89834 0.41492 0.0
H3568 H 0.5718 0.86946 0.34342 0.0
H3569 H 0.53216 0.86072 0.39674 0.0
H3570 H 0.61924 0.87866 0.37143 0.0
H3571 H 0.61682 0.85181 0.36425 0.0
H3572 H 0.60843 0.87184 0.34632 0.0
H3573 H 0.54513 0.8602 0.43102 0.0
H3574 H 0.56739 0.843 0.43123 0.0
H3575 H 0.57102 0.87037 0.43547 0.0
H3576 H 0.63046 0.81885 0.43136 0.0
H3577 H 0.63733 0.88476 0.4415 0.0
H3578 H 0.60033 0.82264 0.38457 0.0
H3579 H 0.58416 0.81843 0.40695 0.0
H3580 H 0.60891 0.80521 0.40499 0.0
H3581 H 0.60688 0.9018 0.39797 0.0
H3582 H 0.61808 0.90972 0.42258 0.0
H3583 H 0.59147 0.90064 0.4212 0.0
C3584 C 0.14168 0.62574 0.43639 0.0
C3585 C 0.16184 0.63298 0.44095 0.0
C3586 C 0.13849 0.60965 0.42174 0.0
C3587 C 0.15582 0.60102 0.411 0.0
C3588 C 0.17607 0.60913 0.41477 0.0
C3589 C 0.17886 0.62476 0.42991 0.0
C3590 C 0.11674 0.60115 0.41859 0.0
C3591 C 0.19491 0.60082 0.40327 0.0
C3592 C 0.15572 0.54492 0.39145 0.0
C3593 C 0.15173 0.54747 0.37008 0.0
C3594 C 0.15614 0.56213 0.40505 0.0
C3595 C 0.15314 0.58253 0.397 0.0
C3596 C 0.14875 0.58518 0.37547 0.0
C3597 C 0.1478 0.56758 0.36231 0.0
C3598 C 0.16029 0.5585 0.42797 0.0
C3599 C 0.14598 0.60666 0.36616 0.0
H3600 H 0.1285 0.63191 0.44503 0.0
H3601 H 0.19446 0.6304 0.4333 0.0
H3602 H 0.11274 0.60083 0.40175 0.0
H3603 H 0.11604 0.58481 0.42435 0.0
H3604 H 0.10476 0.61049 0.42699 0.0
H3605 H 0.20915 0.61024 0.40635 0.0
H3606 H 0.19799 0.58448 0.40815 0.0
H3607 H 0.19194 0.60065 0.3862 0.0
H3608 H 0.15863 0.52939 0.39755 0.0
H3609 H 0.14491 0.56965 0.34576 0.0
H3610 H 0.14825 0.56647 0.43757 0.0
H3611 H 0.17565 0.56525 0.43227 0.0
H3612 H 0.16038 0.54163 0.43204 0.0
H3613 H 0.13387 0.61549 0.37483 0.0
H3614 H 0.14151 0.60604 0.34941 0.0
H3615 H 0.1608 0.61554 0.36759 0.0
C3616 C 0.44522 0.14876 0.35888 0.0
C3617 C 0.46534 0.15239 0.36673 0.0
C3618 C 0.42756 0.15007 0.37193 0.0
C3619 C 0.43016 0.15455 0.39345 0.0
C3620 C 0.45056 0.15724 0.40159 0.0
C3621 C 0.46784 0.15644 0.3881 0.0
C3622 C 0.4061 0.14761 0.36252 0.0
C3623 C 0.45413 0.16148 0.42451 0.0
C3624 C 0.38816 0.18121 0.42596 0.0
C3625 C 0.3796 0.1644 0.43708 0.0
C3626 C 0.40384 0.17805 0.41093 0.0
C3627 C 0.41164 0.15764 0.40734 0.0
C3628 C 0.40266 0.14053 0.41815 0.0
C3629 C 0.38655 0.14409 0.43269 0.0
C3630 C 0.41253 0.19668 0.39936 0.0
C3631 C 0.41081 0.11861 0.41519 0.0
H3632 H 0.44319 0.14583 0.34233 0.0
H3633 H 0.48337 0.15913 0.39427 0.0
H3634 H 0.39701 0.13571 0.37123 0.0
H3635 H 0.39748 0.1626 0.3638 0.0
H3636 H 0.40675 0.143 0.34581 0.0
H3637 H 0.47097 0.1613 0.42867 0.0
H3638 H 0.44761 0.17698 0.42868 0.0
H3639 H 0.44591 0.14964 0.43414 0.0
H3640 H 0.38277 0.19693 0.42922 0.0
H3641 H 0.38013 0.13106 0.44139 0.0
H3642 H 0.41274 0.1936 0.38232 0.0
H3643 H 0.42889 0.1995 0.40431 0.0
H3644 H 0.40334 0.2111 0.40231 0.0
H3645 H 0.41117 0.1145 0.39837 0.0
H3646 H 0.40123 0.10685 0.4236 0.0
H3647 H 0.4271 0.11767 0.42104 0.0
C3648 C 0.15625 0.46606 0.62213 0.0
C3649 C 0.15236 0.46346 0.64351 0.0
C3650 C 0.1569 0.44884 0.60855 0.0
C3651 C 0.15426 0.42841 0.61662 0.0
C3652 C 0.14996 0.42571 0.63817 0.0
C3653 C 0.14876 0.44331 0.65131 0.0
C3654 C 0.16092 0.45252 0.5856 0.0
C3655 C 0.14758 0.4042 0.64751 0.0
C3656 C 0.14339 0.38499 0.57731 0.0
C3657 C 0.16366 0.37809 0.57265 0.0
C3658 C 0.13998 0.40103 0.59196 0.0
C3659 C 0.1572 0.40995 0.60262 0.0
C3660 C 0.17757 0.40219 0.59877 0.0
C3661 C 0.18058 0.3866 0.58361 0.0
C3662 C 0.1181 0.40917 0.59519 0.0
C3663 C 0.19631 0.41081 0.61018 0.0
H3664 H 0.15892 0.48163 0.61601 0.0
H3665 H 0.14596 0.44122 0.66788 0.0
H3666 H 0.17639 0.44604 0.58126 0.0
H3667 H 0.14901 0.44434 0.57605 0.0
H3668 H 0.1607 0.46939 0.58151 0.0
H3669 H 0.14313 0.40477 0.66427 0.0
H3670 H 0.1356 0.39516 0.63889 0.0
H3671 H 0.16254 0.39557 0.64605 0.0
H3672 H 0.13028 0.37859 0.56873 0.0
H3673 H 0.19626 0.38124 0.58014 0.0
H3674 H 0.11711 0.42548 0.58942 0.0
H3675 H 0.11416 0.40944 0.61204 0.0
H3676 H 0.10625 0.39963 0.58685 0.0
H3677 H 0.19911 0.42718 0.60527 0.0
H3678 H 0.21069 0.40161 0.60706 0.0
H3679 H 0.19339 0.41095 0.62726 0.0
C3680 C 0.63419 0.15932 0.58612 0.0
C3681 C 0.62906 0.16787 0.56664 0.0
C3682 C 0.61898 0.15733 0.60192 0.0
C3683 C 0.59804 0.16329 0.59782 0.0
C3684 C 0.59275 0.17134 0.5779 0.0
C3685 C 0.60837 0.17387 0.56274 0.0
C3686 C 0.6254 0.14937 0.62315 0.0
C3687 C 0.57056 0.1773 0.57258 0.0
C3688 C 0.55309 0.14338 0.63158 0.0
C3689 C 0.5476 0.1615 0.64254 0.0
C3690 C 0.56978 0.14354 0.61723 0.0
C3691 C 0.58168 0.16203 0.61443 0.0
C3692 C 0.57679 0.18 0.62639 0.0
C3693 C 0.55956 0.17963 0.63995 0.0
C3694 C 0.57399 0.12428 0.60432 0.0
C3695 C 0.58943 0.19982 0.62447 0.0
H3696 H 0.65018 0.1547 0.58918 0.0
H3697 H 0.60429 0.18021 0.54758 0.0
H3698 H 0.62218 0.16148 0.63512 0.0
H3699 H 0.61609 0.13539 0.62737 0.0
H3700 H 0.64224 0.14524 0.6238 0.0
H3701 H 0.56875 0.18174 0.55591 0.0
H3702 H 0.55986 0.1641 0.576 0.0
H3703 H 0.56554 0.19068 0.58237 0.0
H3704 H 0.54372 0.12941 0.63349 0.0
H3705 H 0.55541 0.19359 0.64859 0.0
H3706 H 0.59064 0.1197 0.60553 0.0
H3707 H 0.57082 0.12773 0.58763 0.0
H3708 H 0.56414 0.11084 0.60916 0.0
H3709 H 0.60635 0.1963 0.62576 0.0
H3710 H 0.58521 0.21147 0.6366 0.0
H3711 H 0.5868 0.20695 0.6089 0.0
C3712 C 0.46882 0.85465 0.62025 0.0
C3713 C 0.46631 0.8597 0.6414 0.0
C3714 C 0.45159 0.85349 0.60673 0.0
C3715 C 0.4312 0.85685 0.61466 0.0
C3716 C 0.42859 0.86235 0.63594 0.0
C3717 C 0.44621 0.86399 0.649 0.0
C3718 C 0.45518 0.84815 0.58404 0.0
C3719 C 0.40713 0.86558 0.64514 0.0
C3720 C 0.38771 0.86622 0.57503 0.0
C3721 C 0.38031 0.84587 0.57169 0.0
C3722 C 0.40398 0.87015 0.58928 0.0
C3723 C 0.41269 0.85341 0.60085 0.0
C3724 C 0.40454 0.833 0.59824 0.0
C3725 C 0.38869 0.82943 0.58348 0.0
C3726 C 0.41252 0.89204 0.5912 0.0
C3727 C 0.41295 0.81478 0.61063 0.0
H3728 H 0.48434 0.85145 0.61426 0.0
H3729 H 0.44417 0.86771 0.66539 0.0
H3730 H 0.44844 0.83258 0.58057 0.0
H3731 H 0.44718 0.85966 0.57385 0.0
H3732 H 0.47204 0.84787 0.57995 0.0
H3733 H 0.40778 0.8709 0.66164 0.0
H3734 H 0.39828 0.87724 0.63589 0.0
H3735 H 0.39826 0.8507 0.64449 0.0
H3736 H 0.38141 0.87896 0.56582 0.0
H3737 H 0.38294 0.81369 0.58106 0.0
H3738 H 0.42888 0.89239 0.5855 0.0
H3739 H 0.41275 0.89699 0.60779 0.0
H3740 H 0.40325 0.90354 0.5821 0.0
H3741 H 0.4293 0.81156 0.6059 0.0
H3742 H 0.40361 0.80035 0.60826 0.0
H3743 H 0.41309 0.81859 0.62753 0.0
loop_
_geom_bond_atom_site_label_1
_geom_bond_atom_site_label_2
_geom_bond_distance
_geom_bond_site_symmetry_2
_ccdc_geom_bond_type
O0 Cd1 2.223 . S
O0 C8 1.315 . S
Cd1 O0 2.223 . S
Cd1 O4 2.297 . S
Cd1 O5 2.439 . S
Cd1 O11 2.240 . S
Cd2 O3 2.240 . S
Cd2 O10 2.223 . S
Cd2 O12 2.297 . S
Cd2 O13 2.439 . S
O3 Cd2 2.240 . S
O3 C8 1.279 . S
O4 Cd1 2.297 . S
O4 C6 1.247 . S
O5 Cd1 2.439 . S
O5 C6 1.208 . S
C6 O4 1.247 . S
C6 O5 1.208 . S
C7 O12 1.247 . S
C7 O13 1.208 . S
C8 O0 1.315 . S
C8 O3 1.279 . S
C9 O10 1.315 . S
C9 O11 1.279 . S
O10 Cd2 2.223 . S
O10 C9 1.315 . S
O11 Cd1 2.240 . S
O11 C9 1.279 . S
O12 Cd2 2.297 . S
O12 C7 1.247 . S
O13 Cd2 2.439 . S
O13 C7 1.208 . S
O14 Cd15 2.223 . S
O14 C22 1.315 . S
Cd15 O14 2.223 . S
Cd15 O18 2.297 . S
Cd15 O19 2.439 . S
Cd15 O25 2.240 . S
Cd16 O17 2.240 . S
Cd16 O24 2.223 . S
Cd16 O26 2.297 . S
Cd16 O27 2.439 . S
O17 Cd16 2.240 . S
O17 C22 1.279 . S
O18 Cd15 2.297 . S
O18 C20 1.247 . S
O19 Cd15 2.439 . S
O19 C20 1.208 . S
C20 O18 1.247 . S
C20 O19 1.208 . S
C21 O26 1.247 . S
C21 O27 1.208 . S
C22 O14 1.315 . S
C22 O17 1.279 . S
C23 O24 1.315 . S
C23 O25 1.279 . S
O24 Cd16 2.223 . S
O24 C23 1.315 . S
O25 Cd15 2.240 . S
O25 C23 1.279 . S
O26 Cd16 2.297 . S
O26 C21 1.247 . S
O27 Cd16 2.439 . S
O27 C21 1.208 . S
O28 Cd29 2.223 . S
O28 C36 1.315 . S
Cd29 O28 2.223 . S
Cd29 O32 2.297 . S
Cd29 O33 2.439 . S
Cd29 O39 2.240 . S
Cd30 O31 2.240 . S
Cd30 O38 2.223 . S
Cd30 O40 2.297 . S
Cd30 O41 2.439 . S
O31 Cd30 2.240 . S
O31 C36 1.279 . S
O32 Cd29 2.297 . S
O32 C34 1.247 . S
O33 Cd29 2.439 . S
O33 C34 1.208 . S
C34 O32 1.247 . S
C34 O33 1.208 . S
C35 O40 1.247 . S
C35 O41 1.208 . S
C36 O28 1.315 . S
C36 O31 1.279 . S
C37 O38 1.315 . S
C37 O39 1.279 . S
O38 Cd30 2.223 . S
O38 C37 1.315 . S
O39 Cd29 2.240 . S
O39 C37 1.279 . S
O40 Cd30 2.297 . S
O40 C35 1.247 . S
O41 Cd30 2.439 . S
O41 C35 1.208 . S
O42 Cd43 2.223 . S
O42 C50 1.315 . S
Cd43 O42 2.223 . S
Cd43 O46 2.297 . S
Cd43 O47 2.439 . S
Cd43 O53 2.240 . S
Cd44 O45 2.240 . S
Cd44 O52 2.223 . S
Cd44 O54 2.297 . S
Cd44 O55 2.439 . S
O45 Cd44 2.240 . S
O45 C50 1.279 . S
O46 Cd43 2.297 . S
O46 C48 1.247 . S
O47 Cd43 2.439 . S
O47 C48 1.208 . S
C48 O46 1.247 . S
C48 O47 1.208 . S
C49 O54 1.247 . S
C49 O55 1.208 . S
C50 O42 1.315 . S
C50 O45 1.279 . S
C51 O52 1.315 . S
C51 O53 1.279 . S
O52 Cd44 2.223 . S
O52 C51 1.315 . S
O53 Cd43 2.240 . S
O53 C51 1.279 . S
O54 Cd44 2.297 . S
O54 C49 1.247 . S
O55 Cd44 2.439 . S
O55 C49 1.208 . S
O56 Cd57 2.223 . S
O56 C64 1.315 . S
Cd57 O56 2.223 . S
Cd57 O60 2.297 . S
Cd57 O61 2.439 . S
Cd57 O67 2.240 . S
Cd58 O59 2.240 . S
Cd58 O66 2.223 . S
Cd58 O68 2.297 . S
Cd58 O69 2.439 . S
O59 Cd58 2.240 . S
O59 C64 1.279 . S
O60 Cd57 2.297 . S
O60 C62 1.247 . S
O61 Cd57 2.439 . S
O61 C62 1.208 . S
C62 O60 1.247 . S
C62 O61 1.208 . S
C63 O68 1.247 . S
C63 O69 1.208 . S
C64 O56 1.315 . S
C64 O59 1.279 . S
C65 O66 1.315 . S
C65 O67 1.279 . S
O66 Cd58 2.223 . S
O66 C65 1.315 . S
O67 Cd57 2.240 . S
O67 C65 1.279 . S
O68 Cd58 2.297 . S
O68 C63 1.247 . S
O69 Cd58 2.439 . S
O69 C63 1.208 . S
O70 Cd71 2.223 . S
O70 C78 1.315 . S
Cd71 O70 2.223 . S
Cd71 O74 2.297 . S
Cd71 O75 2.439 . S
Cd71 O81 2.240 . S
Cd72 O73 2.240 . S
Cd72 O80 2.223 . S
Cd72 O82 2.297 . S
Cd72 O83 2.439 . S
O73 Cd72 2.240 . S
O73 C78 1.279 . S
O74 Cd71 2.297 . S
O74 C76 1.247 . S
O75 Cd71 2.439 . S
O75 C76 1.208 . S
C76 O74 1.247 . S
C76 O75 1.208 . S
C77 O82 1.247 . S
C77 O83 1.208 . S
C78 O70 1.315 . S
C78 O73 1.279 . S
C79 O80 1.315 . S
C79 O81 1.279 . S
O80 Cd72 2.223 . S
O80 C79 1.315 . S
O81 Cd71 2.240 . S
O81 C79 1.279 . S
O82 Cd72 2.297 . S
O82 C77 1.247 . S
O83 Cd72 2.439 . S
O83 C77 1.208 . S
O84 Cd85 2.223 . S
O84 C92 1.315 . S
Cd85 O84 2.223 . S
Cd85 O88 2.297 . S
Cd85 O89 2.439 . S
Cd85 O95 2.240 . S
Cd86 O87 2.240 . S
Cd86 O94 2.223 . S
Cd86 O96 2.297 . S
Cd86 O97 2.439 . S
O87 Cd86 2.240 . S
O87 C92 1.279 . S
O88 Cd85 2.297 . S
O88 C90 1.247 . S
O89 Cd85 2.439 . S
O89 C90 1.208 . S
C90 O88 1.247 . S
C90 O89 1.208 . S
C91 O96 1.247 . S
C91 O97 1.208 . S
C92 O84 1.315 . S
C92 O87 1.279 . S
C93 O94 1.315 . S
C93 O95 1.279 . S
O94 Cd86 2.223 . S
O94 C93 1.315 . S
O95 Cd85 2.240 . S
O95 C93 1.279 . S
O96 Cd86 2.297 . S
O96 C91 1.247 . S
O97 Cd86 2.439 . S
O97 C91 1.208 . S
O98 Cd99 2.223 . S
O98 C106 1.315 . S
Cd99 O98 2.223 . S
Cd99 O102 2.297 . S
Cd99 O103 2.439 . S
Cd99 O109 2.240 . S
Cd100 O101 2.240 . S
Cd100 O108 2.223 . S
Cd100 O110 2.297 . S
Cd100 O111 2.439 . S
O101 Cd100 2.240 . S
O101 C106 1.279 . S
O102 Cd99 2.297 . S
O102 C104 1.247 . S
O103 Cd99 2.439 . S
O103 C104 1.208 . S
C104 O102 1.247 . S
C104 O103 1.208 . S
C105 O110 1.247 . S
C105 O111 1.208 . S
C106 O98 1.315 . S
C106 O101 1.279 . S
C107 O108 1.315 . S
C107 O109 1.279 . S
O108 Cd100 2.223 . S
O108 C107 1.315 . S
O109 Cd99 2.240 . S
O109 C107 1.279 . S
O110 Cd100 2.297 . S
O110 C105 1.247 . S
O111 Cd100 2.439 . S
O111 C105 1.208 . S
O112 Cd113 2.223 . S
O112 C120 1.315 . S
Cd113 O112 2.223 . S
Cd113 O116 2.297 . S
Cd113 O117 2.439 . S
Cd113 O123 2.240 . S
Cd114 O115 2.240 . S
Cd114 O122 2.223 . S
Cd114 O124 2.297 . S
Cd114 O125 2.439 . S
O115 Cd114 2.240 . S
O115 C120 1.279 . S
O116 Cd113 2.297 . S
O116 C118 1.247 . S
O117 Cd113 2.439 . S
O117 C118 1.208 . S
C118 O116 1.247 . S
C118 O117 1.208 . S
C119 O124 1.247 . S
C119 O125 1.208 . S
C120 O112 1.315 . S
C120 O115 1.279 . S
C121 O122 1.315 . S
C121 O123 1.279 . S
O122 Cd114 2.223 . S
O122 C121 1.315 . S
O123 Cd113 2.240 . S
O123 C121 1.279 . S
O124 Cd114 2.297 . S
O124 C119 1.247 . S
O125 Cd114 2.439 . S
O125 C119 1.208 . S
O126 Cd127 2.223 . S
O126 C134 1.315 . S
Cd127 O126 2.223 . S
Cd127 O130 2.297 . S
Cd127 O131 2.439 . S
Cd127 O137 2.240 . S
Cd128 O129 2.240 . S
Cd128 O136 2.223 . S
Cd128 O138 2.297 . S
Cd128 O139 2.439 . S
O129 Cd128 2.240 . S
O129 C134 1.279 . S
O130 Cd127 2.297 . S
O130 C132 1.247 . S
O131 Cd127 2.439 . S
O131 C132 1.208 . S
C132 O130 1.247 . S
C132 O131 1.208 . S
C133 O138 1.247 . S
C133 O139 1.208 . S
C134 O126 1.315 . S
C134 O129 1.279 . S
C135 O136 1.315 . S
C135 O137 1.279 . S
O136 Cd128 2.223 . S
O136 C135 1.315 . S
O137 Cd127 2.240 . S
O137 C135 1.279 . S
O138 Cd128 2.297 . S
O138 C133 1.247 . S
O139 Cd128 2.439 . S
O139 C133 1.208 . S
O140 Cd141 2.223 . S
O140 C148 1.315 . S
Cd141 O140 2.223 . S
Cd141 O144 2.297 . S
Cd141 O145 2.439 . S
Cd141 O151 2.240 . S
Cd142 O143 2.240 . S
Cd142 O150 2.223 . S
Cd142 O152 2.297 . S
Cd142 O153 2.439 . S
O143 Cd142 2.240 . S
O143 C148 1.279 . S
O144 Cd141 2.297 . S
O144 C146 1.247 . S
O145 Cd141 2.439 . S
O145 C146 1.208 . S
C146 O144 1.247 . S
C146 O145 1.208 . S
C147 O152 1.247 . S
C147 O153 1.208 . S
C148 O140 1.315 . S
C148 O143 1.279 . S
C149 O150 1.315 . S
C149 O151 1.279 . S
O150 Cd142 2.223 . S
O150 C149 1.315 . S
O151 Cd141 2.240 . S
O151 C149 1.279 . S
O152 Cd142 2.297 . S
O152 C147 1.247 . S
O153 Cd142 2.439 . S
O153 C147 1.208 . S
O154 Cd155 2.223 . S
O154 C162 1.315 . S
Cd155 O154 2.223 . S
Cd155 O158 2.297 . S
Cd155 O159 2.439 . S
Cd155 O165 2.240 . S
Cd156 O157 2.240 . S
Cd156 O164 2.223 . S
Cd156 O166 2.297 . S
Cd156 O167 2.439 . S
O157 Cd156 2.240 . S
O157 C162 1.279 . S
O158 Cd155 2.297 . S
O158 C160 1.247 . S
O159 Cd155 2.439 . S
O159 C160 1.208 . S
C160 O158 1.247 . S
C160 O159 1.208 . S
C161 O166 1.247 . S
C161 O167 1.208 . S
C162 O154 1.315 . S
C162 O157 1.279 . S
C163 O164 1.315 . S
C163 O165 1.279 . S
O164 Cd156 2.223 . S
O164 C163 1.315 . S
O165 Cd155 2.240 . S
O165 C163 1.279 . S
O166 Cd156 2.297 . S
O166 C161 1.247 . S
O167 Cd156 2.439 . S
O167 C161 1.208 . S
O168 Cd169 2.223 . S
O168 C176 1.315 . S
Cd169 O168 2.223 . S
Cd169 O172 2.297 . S
Cd169 O173 2.439 . S
Cd169 O179 2.240 . S
Cd170 O171 2.240 . S
Cd170 O178 2.223 . S
Cd170 O180 2.297 . S
Cd170 O181 2.439 . S
O171 Cd170 2.240 . S
O171 C176 1.279 . S
O172 Cd169 2.297 . S
O172 C174 1.247 . S
O173 Cd169 2.439 . S
O173 C174 1.208 . S
C174 O172 1.247 . S
C174 O173 1.208 . S
C175 O180 1.247 . S
C175 O181 1.208 . S
C176 O168 1.315 . S
C176 O171 1.279 . S
C177 O178 1.315 . S
C177 O179 1.279 . S
O178 Cd170 2.223 . S
O178 C177 1.315 . S
O179 Cd169 2.240 . S
O179 C177 1.279 . S
O180 Cd170 2.297 . S
O180 C175 1.247 . S
O181 Cd170 2.439 . S
O181 C175 1.208 . S
O182 Cd183 2.223 . S
O182 C190 1.315 . S
Cd183 O182 2.223 . S
Cd183 O186 2.297 . S
Cd183 O187 2.439 . S
Cd183 O193 2.240 . S
Cd184 O185 2.240 . S
Cd184 O192 2.223 . S
Cd184 O194 2.297 . S
Cd184 O195 2.439 . S
O185 Cd184 2.240 . S
O185 C190 1.279 . S
O186 Cd183 2.297 . S
O186 C188 1.247 . S
O187 Cd183 2.439 . S
O187 C188 1.208 . S
C188 O186 1.247 . S
C188 O187 1.208 . S
C189 O194 1.247 . S
C189 O195 1.208 . S
C190 O182 1.315 . S
C190 O185 1.279 . S
C191 O192 1.315 . S
C191 O193 1.279 . S
O192 Cd184 2.223 . S
O192 C191 1.315 . S
O193 Cd183 2.240 . S
O193 C191 1.279 . S
O194 Cd184 2.297 . S
O194 C189 1.247 . S
O195 Cd184 2.439 . S
O195 C189 1.208 . S
O196 Cd197 2.223 . S
O196 C204 1.315 . S
Cd197 O196 2.223 . S
Cd197 O200 2.297 . S
Cd197 O201 2.439 . S
Cd197 O207 2.240 . S
Cd198 O199 2.240 . S
Cd198 O206 2.223 . S
Cd198 O208 2.297 . S
Cd198 O209 2.439 . S
O199 Cd198 2.240 . S
O199 C204 1.279 . S
O200 Cd197 2.297 . S
O200 C202 1.247 . S
O201 Cd197 2.439 . S
O201 C202 1.208 . S
C202 O200 1.247 . S
C202 O201 1.208 . S
C203 O208 1.247 . S
C203 O209 1.208 . S
C204 O196 1.315 . S
C204 O199 1.279 . S
C205 O206 1.315 . S
C205 O207 1.279 . S
O206 Cd198 2.223 . S
O206 C205 1.315 . S
O207 Cd197 2.240 . S
O207 C205 1.279 . S
O208 Cd198 2.297 . S
O208 C203 1.247 . S
O209 Cd198 2.439 . S
O209 C203 1.208 . S
O210 Cd211 2.223 . S
O210 C218 1.315 . S
Cd211 O210 2.223 . S
Cd211 O214 2.297 . S
Cd211 O215 2.439 . S
Cd211 O221 2.240 . S
Cd212 O213 2.240 . S
Cd212 O220 2.223 . S
Cd212 O222 2.297 . S
Cd212 O223 2.439 . S
O213 Cd212 2.240 . S
O213 C218 1.279 . S
O214 Cd211 2.297 . S
O214 C216 1.247 . S
O215 Cd211 2.439 . S
O215 C216 1.208 . S
C216 O214 1.247 . S
C216 O215 1.208 . S
C217 O222 1.247 . S
C217 O223 1.208 . S
C218 O210 1.315 . S
C218 O213 1.279 . S
C219 O220 1.315 . S
C219 O221 1.279 . S
O220 Cd212 2.223 . S
O220 C219 1.315 . S
O221 Cd211 2.240 . S
O221 C219 1.279 . S
O222 Cd212 2.297 . S
O222 C217 1.247 . S
O223 Cd212 2.439 . S
O223 C217 1.208 . S
O224 Cd225 2.223 . S
O224 C232 1.315 . S
Cd225 O224 2.223 . S
Cd225 O228 2.297 . S
Cd225 O229 2.439 . S
Cd225 O235 2.240 . S
Cd226 O227 2.240 . S
Cd226 O234 2.223 . S
Cd226 O236 2.297 . S
Cd226 O237 2.439 . S
O227 Cd226 2.240 . S
O227 C232 1.279 . S
O228 Cd225 2.297 . S
O228 C230 1.247 . S
O229 Cd225 2.439 . S
O229 C230 1.208 . S
C230 O228 1.247 . S
C230 O229 1.208 . S
C231 O236 1.247 . S
C231 O237 1.208 . S
C232 O224 1.315 . S
C232 O227 1.279 . S
C233 O234 1.315 . S
C233 O235 1.279 . S
O234 Cd226 2.223 . S
O234 C233 1.315 . S
O235 Cd225 2.240 . S
O235 C233 1.279 . S
O236 Cd226 2.297 . S
O236 C231 1.247 . S
O237 Cd226 2.439 . S
O237 C231 1.208 . S
O238 Cd239 2.223 . S
O238 C246 1.315 . S
Cd239 O238 2.223 . S
Cd239 O242 2.297 . S
Cd239 O243 2.439 . S
Cd239 O249 2.240 . S
Cd240 O241 2.240 . S
Cd240 O248 2.223 . S
Cd240 O250 2.297 . S
Cd240 O251 2.439 . S
O241 Cd240 2.240 . S
O241 C246 1.279 . S
O242 Cd239 2.297 . S
O242 C244 1.247 . S
O243 Cd239 2.439 . S
O243 C244 1.208 . S
C244 O242 1.247 . S
C244 O243 1.208 . S
C245 O250 1.247 . S
C245 O251 1.208 . S
C246 O238 1.315 . S
C246 O241 1.279 . S
C247 O248 1.315 . S
C247 O249 1.279 . S
O248 Cd240 2.223 . S
O248 C247 1.315 . S
O249 Cd239 2.240 . S
O249 C247 1.279 . S
O250 Cd240 2.297 . S
O250 C245 1.247 . S
O251 Cd240 2.439 . S
O251 C245 1.208 . S
O252 Cd253 2.223 . S
O252 C260 1.315 . S
Cd253 O252 2.223 . S
Cd253 O256 2.297 . S
Cd253 O257 2.439 . S
Cd253 O263 2.240 . S
Cd254 O255 2.240 . S
Cd254 O262 2.223 . S
Cd254 O264 2.297 . S
Cd254 O265 2.439 . S
O255 Cd254 2.240 . S
O255 C260 1.279 . S
O256 Cd253 2.297 . S
O256 C258 1.247 . S
O257 Cd253 2.439 . S
O257 C258 1.208 . S
C258 O256 1.247 . S
C258 O257 1.208 . S
C259 O264 1.247 . S
C259 O265 1.208 . S
C260 O252 1.315 . S
C260 O255 1.279 . S
C261 O262 1.315 . S
C261 O263 1.279 . S
O262 Cd254 2.223 . S
O262 C261 1.315 . S
O263 Cd253 2.240 . S
O263 C261 1.279 . S
O264 Cd254 2.297 . S
O264 C259 1.247 . S
O265 Cd254 2.439 . S
O265 C259 1.208 . S
O266 Cd267 2.223 . S
O266 C274 1.315 . S
Cd267 O266 2.223 . S
Cd267 O270 2.297 . S
Cd267 O271 2.439 . S
Cd267 O277 2.240 . S
Cd268 O269 2.240 . S
Cd268 O276 2.223 . S
Cd268 O278 2.297 . S
Cd268 O279 2.439 . S
O269 Cd268 2.240 . S
O269 C274 1.279 . S
O270 Cd267 2.297 . S
O270 C272 1.247 . S
O271 Cd267 2.439 . S
O271 C272 1.208 . S
C272 O270 1.247 . S
C272 O271 1.208 . S
C273 O278 1.247 . S
C273 O279 1.208 . S
C274 O266 1.315 . S
C274 O269 1.279 . S
C275 O276 1.315 . S
C275 O277 1.279 . S
O276 Cd268 2.223 . S
O276 C275 1.315 . S
O277 Cd267 2.240 . S
O277 C275 1.279 . S
O278 Cd268 2.297 . S
O278 C273 1.247 . S
O279 Cd268 2.439 . S
O279 C273 1.208 . S
O280 Cd281 2.223 . S
O280 C288 1.315 . S
Cd281 O280 2.223 . S
Cd281 O284 2.297 . S
Cd281 O285 2.439 . S
Cd281 O291 2.240 . S
Cd282 O283 2.240 . S
Cd282 O290 2.223 . S
Cd282 O292 2.297 . S
Cd282 O293 2.439 . S
O283 Cd282 2.240 . S
O283 C288 1.279 . S
O284 Cd281 2.297 . S
O284 C286 1.247 . S
O285 Cd281 2.439 . S
O285 C286 1.208 . S
C286 O284 1.247 . S
C286 O285 1.208 . S
C287 O292 1.247 . S
C287 O293 1.208 . S
C288 O280 1.315 . S
C288 O283 1.279 . S
C289 O290 1.315 . S
C289 O291 1.279 . S
O290 Cd282 2.223 . S
O290 C289 1.315 . S
O291 Cd281 2.240 . S
O291 C289 1.279 . S
O292 Cd282 2.297 . S
O292 C287 1.247 . S
O293 Cd282 2.439 . S
O293 C287 1.208 . S
O294 Cd295 2.223 . S
O294 C302 1.315 . S
Cd295 O294 2.223 . S
Cd295 O298 2.297 . S
Cd295 O299 2.439 . S
Cd295 O305 2.240 . S
Cd296 O297 2.240 . S
Cd296 O304 2.223 . S
Cd296 O306 2.297 . S
Cd296 O307 2.439 . S
O297 Cd296 2.240 . S
O297 C302 1.279 . S
O298 Cd295 2.297 . S
O298 C300 1.247 . S
O299 Cd295 2.439 . S
O299 C300 1.208 . S
C300 O298 1.247 . S
C300 O299 1.208 . S
C301 O306 1.247 . S
C301 O307 1.208 . S
C302 O294 1.315 . S
C302 O297 1.279 . S
C303 O304 1.315 . S
C303 O305 1.279 . S
O304 Cd296 2.223 . S
O304 C303 1.315 . S
O305 Cd295 2.240 . S
O305 C303 1.279 . S
O306 Cd296 2.297 . S
O306 C301 1.247 . S
O307 Cd296 2.439 . S
O307 C301 1.208 . S
O308 Cd309 2.223 . S
O308 C316 1.315 . S
Cd309 O308 2.223 . S
Cd309 O312 2.297 . S
Cd309 O313 2.439 . S
Cd309 O319 2.240 . S
Cd310 O311 2.240 . S
Cd310 O318 2.223 . S
Cd310 O320 2.297 . S
Cd310 O321 2.439 . S
O311 Cd310 2.240 . S
O311 C316 1.279 . S
O312 Cd309 2.297 . S
O312 C314 1.247 . S
O313 Cd309 2.439 . S
O313 C314 1.208 . S
C314 O312 1.247 . S
C314 O313 1.208 . S
C315 O320 1.247 . S
C315 O321 1.208 . S
C316 O308 1.315 . S
C316 O311 1.279 . S
C317 O318 1.315 . S
C317 O319 1.279 . S
O318 Cd310 2.223 . S
O318 C317 1.315 . S
O319 Cd309 2.240 . S
O319 C317 1.279 . S
O320 Cd310 2.297 . S
O320 C315 1.247 . S
O321 Cd310 2.439 . S
O321 C315 1.208 . S
O322 Cd323 2.223 . S
O322 C330 1.315 . S
Cd323 O322 2.223 . S
Cd323 O326 2.297 . S
Cd323 O327 2.439 . S
Cd323 O333 2.240 . S
Cd324 O325 2.240 . S
Cd324 O332 2.223 . S
Cd324 O334 2.297 . S
Cd324 O335 2.439 . S
O325 Cd324 2.240 . S
O325 C330 1.279 . S
O326 Cd323 2.297 . S
O326 C328 1.247 . S
O327 Cd323 2.439 . S
O327 C328 1.208 . S
C328 O326 1.247 . S
C328 O327 1.208 . S
C329 O334 1.247 . S
C329 O335 1.208 . S
C330 O322 1.315 . S
C330 O325 1.279 . S
C331 O332 1.315 . S
C331 O333 1.279 . S
O332 Cd324 2.223 . S
O332 C331 1.315 . S
O333 Cd323 2.240 . S
O333 C331 1.279 . S
O334 Cd324 2.297 . S
O334 C329 1.247 . S
O335 Cd324 2.439 . S
O335 C329 1.208 . S
O336 Cd337 2.223 . S
O336 C344 1.315 . S
Cd337 O336 2.223 . S
Cd337 O340 2.297 . S
Cd337 O341 2.439 . S
Cd337 O347 2.240 . S
Cd338 O339 2.240 . S
Cd338 O346 2.223 . S
Cd338 O348 2.297 . S
Cd338 O349 2.439 . S
O339 Cd338 2.240 . S
O339 C344 1.279 . S
O340 Cd337 2.297 . S
O340 C342 1.247 . S
O341 Cd337 2.439 . S
O341 C342 1.208 . S
C342 O340 1.247 . S
C342 O341 1.208 . S
C343 O348 1.247 . S
C343 O349 1.208 . S
C344 O336 1.315 . S
C344 O339 1.279 . S
C345 O346 1.315 . S
C345 O347 1.279 . S
O346 Cd338 2.223 . S
O346 C345 1.315 . S
O347 Cd337 2.240 . S
O347 C345 1.279 . S
O348 Cd338 2.297 . S
O348 C343 1.247 . S
O349 Cd338 2.439 . S
O349 C343 1.208 . S
O350 Cd351 2.223 . S
O350 C358 1.315 . S
Cd351 O350 2.223 . S
Cd351 O354 2.297 . S
Cd351 O355 2.439 . S
Cd351 O361 2.240 . S
Cd352 O353 2.240 . S
Cd352 O360 2.223 . S
Cd352 O362 2.297 . S
Cd352 O363 2.439 . S
O353 Cd352 2.240 . S
O353 C358 1.279 . S
O354 Cd351 2.297 . S
O354 C356 1.247 . S
O355 Cd351 2.439 . S
O355 C356 1.208 . S
C356 O354 1.247 . S
C356 O355 1.208 . S
C357 O362 1.247 . S
C357 O363 1.208 . S
C358 O350 1.315 . S
C358 O353 1.279 . S
C359 O360 1.315 . S
C359 O361 1.279 . S
O360 Cd352 2.223 . S
O360 C359 1.315 . S
O361 Cd351 2.240 . S
O361 C359 1.279 . S
O362 Cd352 2.297 . S
O362 C357 1.247 . S
O363 Cd352 2.439 . S
O363 C357 1.208 . S
O364 Cd365 2.223 . S
O364 C372 1.315 . S
Cd365 O364 2.223 . S
Cd365 O368 2.297 . S
Cd365 O369 2.439 . S
Cd365 O375 2.240 . S
Cd366 O367 2.240 . S
Cd366 O374 2.223 . S
Cd366 O376 2.297 . S
Cd366 O377 2.439 . S
O367 Cd366 2.240 . S
O367 C372 1.279 . S
O368 Cd365 2.297 . S
O368 C370 1.247 . S
O369 Cd365 2.439 . S
O369 C370 1.208 . S
C370 O368 1.247 . S
C370 O369 1.208 . S
C371 O376 1.247 . S
C371 O377 1.208 . S
C372 O364 1.315 . S
C372 O367 1.279 . S
C373 O374 1.315 . S
C373 O375 1.279 . S
O374 Cd366 2.223 . S
O374 C373 1.315 . S
O375 Cd365 2.240 . S
O375 C373 1.279 . S
O376 Cd366 2.297 . S
O376 C371 1.247 . S
O377 Cd366 2.439 . S
O377 C371 1.208 . S
O378 Cd379 2.223 . S
O378 C386 1.315 . S
Cd379 O378 2.223 . S
Cd379 O382 2.297 . S
Cd379 O383 2.439 . S
Cd379 O389 2.240 . S
Cd380 O381 2.240 . S
Cd380 O388 2.223 . S
Cd380 O390 2.297 . S
Cd380 O391 2.439 . S
O381 Cd380 2.240 . S
O381 C386 1.279 . S
O382 Cd379 2.297 . S
O382 C384 1.247 . S
O383 Cd379 2.439 . S
O383 C384 1.208 . S
C384 O382 1.247 . S
C384 O383 1.208 . S
C385 O390 1.247 . S
C385 O391 1.208 . S
C386 O378 1.315 . S
C386 O381 1.279 . S
C387 O388 1.315 . S
C387 O389 1.279 . S
O388 Cd380 2.223 . S
O388 C387 1.315 . S
O389 Cd379 2.240 . S
O389 C387 1.279 . S
O390 Cd380 2.297 . S
O390 C385 1.247 . S
O391 Cd380 2.439 . S
O391 C385 1.208 . S
O392 Cd393 2.223 . S
O392 C400 1.315 . S
Cd393 O392 2.223 . S
Cd393 O396 2.297 . S
Cd393 O397 2.439 . S
Cd393 O403 2.240 . S
Cd394 O395 2.240 . S
Cd394 O402 2.223 . S
Cd394 O404 2.297 . S
Cd394 O405 2.439 . S
O395 Cd394 2.240 . S
O395 C400 1.279 . S
O396 Cd393 2.297 . S
O396 C398 1.247 . S
O397 Cd393 2.439 . S
O397 C398 1.208 . S
C398 O396 1.247 . S
C398 O397 1.208 . S
C399 O404 1.247 . S
C399 O405 1.208 . S
C400 O392 1.315 . S
C400 O395 1.279 . S
C401 O402 1.315 . S
C401 O403 1.279 . S
O402 Cd394 2.223 . S
O402 C401 1.315 . S
O403 Cd393 2.240 . S
O403 C401 1.279 . S
O404 Cd394 2.297 . S
O404 C399 1.247 . S
O405 Cd394 2.439 . S
O405 C399 1.208 . S
O406 Cd407 2.223 . S
O406 C414 1.315 . S
Cd407 O406 2.223 . S
Cd407 O410 2.297 . S
Cd407 O411 2.439 . S
Cd407 O417 2.240 . S
Cd408 O409 2.240 . S
Cd408 O416 2.223 . S
Cd408 O418 2.297 . S
Cd408 O419 2.439 . S
O409 Cd408 2.240 . S
O409 C414 1.279 . S
O410 Cd407 2.297 . S
O410 C412 1.247 . S
O411 Cd407 2.439 . S
O411 C412 1.208 . S
C412 O410 1.247 . S
C412 O411 1.208 . S
C413 O418 1.247 . S
C413 O419 1.208 . S
C414 O406 1.315 . S
C414 O409 1.279 . S
C415 O416 1.315 . S
C415 O417 1.279 . S
O416 Cd408 2.223 . S
O416 C415 1.315 . S
O417 Cd407 2.240 . S
O417 C415 1.279 . S
O418 Cd408 2.297 . S
O418 C413 1.247 . S
O419 Cd408 2.439 . S
O419 C413 1.208 . S
O420 Cd421 2.223 . S
O420 C428 1.315 . S
Cd421 O420 2.223 . S
Cd421 O424 2.297 . S
Cd421 O425 2.439 . S
Cd421 O431 2.240 . S
Cd422 O423 2.240 . S
Cd422 O430 2.223 . S
Cd422 O432 2.297 . S
Cd422 O433 2.439 . S
O423 Cd422 2.240 . S
O423 C428 1.279 . S
O424 Cd421 2.297 . S
O424 C426 1.247 . S
O425 Cd421 2.439 . S
O425 C426 1.208 . S
C426 O424 1.247 . S
C426 O425 1.208 . S
C427 O432 1.247 . S
C427 O433 1.208 . S
C428 O420 1.315 . S
C428 O423 1.279 . S
C429 O430 1.315 . S
C429 O431 1.279 . S
O430 Cd422 2.223 . S
O430 C429 1.315 . S
O431 Cd421 2.240 . S
O431 C429 1.279 . S
O432 Cd422 2.297 . S
O432 C427 1.247 . S
O433 Cd422 2.439 . S
O433 C427 1.208 . S
O434 Cd435 2.223 . S
O434 C442 1.315 . S
Cd435 O434 2.223 . S
Cd435 O438 2.297 . S
Cd435 O439 2.439 . S
Cd435 O445 2.240 . S
Cd436 O437 2.240 . S
Cd436 O444 2.223 . S
Cd436 O446 2.297 . S
Cd436 O447 2.439 . S
O437 Cd436 2.240 . S
O437 C442 1.279 . S
O438 Cd435 2.297 . S
O438 C440 1.247 . S
O439 Cd435 2.439 . S
O439 C440 1.208 . S
C440 O438 1.247 . S
C440 O439 1.208 . S
C441 O446 1.247 . S
C441 O447 1.208 . S
C442 O434 1.315 . S
C442 O437 1.279 . S
C443 O444 1.315 . S
C443 O445 1.279 . S
O444 Cd436 2.223 . S
O444 C443 1.315 . S
O445 Cd435 2.240 . S
O445 C443 1.279 . S
O446 Cd436 2.297 . S
O446 C441 1.247 . S
O447 Cd436 2.439 . S
O447 C441 1.208 . S
O448 Cd449 2.223 . S
O448 C456 1.315 . S
Cd449 O448 2.223 . S
Cd449 O452 2.297 . S
Cd449 O453 2.439 . S
Cd449 O459 2.240 . S
Cd450 O451 2.240 . S
Cd450 O458 2.223 . S
Cd450 O460 2.297 . S
Cd450 O461 2.439 . S
O451 Cd450 2.240 . S
O451 C456 1.279 . S
O452 Cd449 2.297 . S
O452 C454 1.247 . S
O453 Cd449 2.439 . S
O453 C454 1.208 . S
C454 O452 1.247 . S
C454 O453 1.208 . S
C455 O460 1.247 . S
C455 O461 1.208 . S
C456 O448 1.315 . S
C456 O451 1.279 . S
C457 O458 1.315 . S
C457 O459 1.279 . S
O458 Cd450 2.223 . S
O458 C457 1.315 . S
O459 Cd449 2.240 . S
O459 C457 1.279 . S
O460 Cd450 2.297 . S
O460 C455 1.247 . S
O461 Cd450 2.439 . S
O461 C455 1.208 . S
O462 Cd463 2.223 . S
O462 C470 1.315 . S
Cd463 O462 2.223 . S
Cd463 O466 2.297 . S
Cd463 O467 2.439 . S
Cd463 O473 2.240 . S
Cd464 O465 2.240 . S
Cd464 O472 2.223 . S
Cd464 O474 2.297 . S
Cd464 O475 2.439 . S
O465 Cd464 2.240 . S
O465 C470 1.279 . S
O466 Cd463 2.297 . S
O466 C468 1.247 . S
O467 Cd463 2.439 . S
O467 C468 1.208 . S
C468 O466 1.247 . S
C468 O467 1.208 . S
C469 O474 1.247 . S
C469 O475 1.208 . S
C470 O462 1.315 . S
C470 O465 1.279 . S
C471 O472 1.315 . S
C471 O473 1.279 . S
O472 Cd464 2.223 . S
O472 C471 1.315 . S
O473 Cd463 2.240 . S
O473 C471 1.279 . S
O474 Cd464 2.297 . S
O474 C469 1.247 . S
O475 Cd464 2.439 . S
O475 C469 1.208 . S
O476 Cd477 2.223 . S
O476 C484 1.315 . S
Cd477 O476 2.223 . S
Cd477 O480 2.297 . S
Cd477 O481 2.439 . S
Cd477 O487 2.240 . S
Cd478 O479 2.240 . S
Cd478 O486 2.223 . S
Cd478 O488 2.297 . S
Cd478 O489 2.439 . S
O479 Cd478 2.240 . S
O479 C484 1.279 . S
O480 Cd477 2.297 . S
O480 C482 1.247 . S
O481 Cd477 2.439 . S
O481 C482 1.208 . S
C482 O480 1.247 . S
C482 O481 1.208 . S
C483 O488 1.247 . S
C483 O489 1.208 . S
C484 O476 1.315 . S
C484 O479 1.279 . S
C485 O486 1.315 . S
C485 O487 1.279 . S
O486 Cd478 2.223 . S
O486 C485 1.315 . S
O487 Cd477 2.240 . S
O487 C485 1.279 . S
O488 Cd478 2.297 . S
O488 C483 1.247 . S
O489 Cd478 2.439 . S
O489 C483 1.208 . S
O490 Cd491 2.223 . S
O490 C498 1.315 . S
Cd491 O490 2.223 . S
Cd491 O494 2.297 . S
Cd491 O495 2.439 . S
Cd491 O501 2.240 . S
Cd492 O493 2.240 . S
Cd492 O500 2.223 . S
Cd492 O502 2.297 . S
Cd492 O503 2.439 . S
O493 Cd492 2.240 . S
O493 C498 1.279 . S
O494 Cd491 2.297 . S
O494 C496 1.247 . S
O495 Cd491 2.439 . S
O495 C496 1.208 . S
C496 O494 1.247 . S
C496 O495 1.208 . S
C497 O502 1.247 . S
C497 O503 1.208 . S
C498 O490 1.315 . S
C498 O493 1.279 . S
C499 O500 1.315 . S
C499 O501 1.279 . S
O500 Cd492 2.223 . S
O500 C499 1.315 . S
O501 Cd491 2.240 . S
O501 C499 1.279 . S
O502 Cd492 2.297 . S
O502 C497 1.247 . S
O503 Cd492 2.439 . S
O503 C497 1.208 . S
O504 Cd505 2.223 . S
O504 C512 1.315 . S
Cd505 O504 2.223 . S
Cd505 O508 2.297 . S
Cd505 O509 2.439 . S
Cd505 O515 2.240 . S
Cd506 O507 2.240 . S
Cd506 O514 2.223 . S
Cd506 O516 2.297 . S
Cd506 O517 2.439 . S
O507 Cd506 2.240 . S
O507 C512 1.279 . S
O508 Cd505 2.297 . S
O508 C510 1.247 . S
O509 Cd505 2.439 . S
O509 C510 1.208 . S
C510 O508 1.247 . S
C510 O509 1.208 . S
C511 O516 1.247 . S
C511 O517 1.208 . S
C512 O504 1.315 . S
C512 O507 1.279 . S
C513 O514 1.315 . S
C513 O515 1.279 . S
O514 Cd506 2.223 . S
O514 C513 1.315 . S
O515 Cd505 2.240 . S
O515 C513 1.279 . S
O516 Cd506 2.297 . S
O516 C511 1.247 . S
O517 Cd506 2.439 . S
O517 C511 1.208 . S
O518 Cd519 2.223 . S
O518 C526 1.315 . S
Cd519 O518 2.223 . S
Cd519 O522 2.297 . S
Cd519 O523 2.439 . S
Cd519 O529 2.240 . S
Cd520 O521 2.240 . S
Cd520 O528 2.223 . S
Cd520 O530 2.297 . S
Cd520 O531 2.439 . S
O521 Cd520 2.240 . S
O521 C526 1.279 . S
O522 Cd519 2.297 . S
O522 C524 1.247 . S
O523 Cd519 2.439 . S
O523 C524 1.208 . S
C524 O522 1.247 . S
C524 O523 1.208 . S
C525 O530 1.247 . S
C525 O531 1.208 . S
C526 O518 1.315 . S
C526 O521 1.279 . S
C527 O528 1.315 . S
C527 O529 1.279 . S
O528 Cd520 2.223 . S
O528 C527 1.315 . S
O529 Cd519 2.240 . S
O529 C527 1.279 . S
O530 Cd520 2.297 . S
O530 C525 1.247 . S
O531 Cd520 2.439 . S
O531 C525 1.208 . S
O532 Cd533 2.223 . S
O532 C540 1.315 . S
Cd533 O532 2.223 . S
Cd533 O536 2.297 . S
Cd533 O537 2.439 . S
Cd533 O543 2.240 . S
Cd534 O535 2.240 . S
Cd534 O542 2.223 . S
Cd534 O544 2.297 . S
Cd534 O545 2.439 . S
O535 Cd534 2.240 . S
O535 C540 1.279 . S
O536 Cd533 2.297 . S
O536 C538 1.247 . S
O537 Cd533 2.439 . S
O537 C538 1.208 . S
C538 O536 1.247 . S
C538 O537 1.208 . S
C539 O544 1.247 . S
C539 O545 1.208 . S
C540 O532 1.315 . S
C540 O535 1.279 . S
C541 O542 1.315 . S
C541 O543 1.279 . S
O542 Cd534 2.223 . S
O542 C541 1.315 . S
O543 Cd533 2.240 . S
O543 C541 1.279 . S
O544 Cd534 2.297 . S
O544 C539 1.247 . S
O545 Cd534 2.439 . S
O545 C539 1.208 . S
O546 Cd547 2.223 . S
O546 C554 1.315 . S
Cd547 O546 2.223 . S
Cd547 O550 2.297 . S
Cd547 O551 2.439 . S
Cd547 O557 2.240 . S
Cd548 O549 2.240 . S
Cd548 O556 2.223 . S
Cd548 O558 2.297 . S
Cd548 O559 2.439 . S
O549 Cd548 2.240 . S
O549 C554 1.279 . S
O550 Cd547 2.297 . S
O550 C552 1.247 . S
O551 Cd547 2.439 . S
O551 C552 1.208 . S
C552 O550 1.247 . S
C552 O551 1.208 . S
C553 O558 1.247 . S
C553 O559 1.208 . S
C554 O546 1.315 . S
C554 O549 1.279 . S
C555 O556 1.315 . S
C555 O557 1.279 . S
O556 Cd548 2.223 . S
O556 C555 1.315 . S
O557 Cd547 2.240 . S
O557 C555 1.279 . S
O558 Cd548 2.297 . S
O558 C553 1.247 . S
O559 Cd548 2.439 . S
O559 C553 1.208 . S
O560 Cd561 2.223 . S
O560 C568 1.315 . S
Cd561 O560 2.223 . S
Cd561 O564 2.297 . S
Cd561 O565 2.439 . S
Cd561 O571 2.240 . S
Cd562 O563 2.240 . S
Cd562 O570 2.223 . S
Cd562 O572 2.297 . S
Cd562 O573 2.439 . S
O563 Cd562 2.240 . S
O563 C568 1.279 . S
O564 Cd561 2.297 . S
O564 C566 1.247 . S
O565 Cd561 2.439 . S
O565 C566 1.208 . S
C566 O564 1.247 . S
C566 O565 1.208 . S
C567 O572 1.247 . S
C567 O573 1.208 . S
C568 O560 1.315 . S
C568 O563 1.279 . S
C569 O570 1.315 . S
C569 O571 1.279 . S
O570 Cd562 2.223 . S
O570 C569 1.315 . S
O571 Cd561 2.240 . S
O571 C569 1.279 . S
O572 Cd562 2.297 . S
O572 C567 1.247 . S
O573 Cd562 2.439 . S
O573 C567 1.208 . S
O574 Cd575 2.223 . S
O574 C582 1.315 . S
Cd575 O574 2.223 . S
Cd575 O578 2.297 . S
Cd575 O579 2.439 . S
Cd575 O585 2.240 . S
Cd576 O577 2.240 . S
Cd576 O584 2.223 . S
Cd576 O586 2.297 . S
Cd576 O587 2.439 . S
O577 Cd576 2.240 . S
O577 C582 1.279 . S
O578 Cd575 2.297 . S
O578 C580 1.247 . S
O579 Cd575 2.439 . S
O579 C580 1.208 . S
C580 O578 1.247 . S
C580 O579 1.208 . S
C581 O586 1.247 . S
C581 O587 1.208 . S
C582 O574 1.315 . S
C582 O577 1.279 . S
C583 O584 1.315 . S
C583 O585 1.279 . S
O584 Cd576 2.223 . S
O584 C583 1.315 . S
O585 Cd575 2.240 . S
O585 C583 1.279 . S
O586 Cd576 2.297 . S
O586 C581 1.247 . S
O587 Cd576 2.439 . S
O587 C581 1.208 . S
O588 Cd589 2.223 . S
O588 C596 1.315 . S
Cd589 O588 2.223 . S
Cd589 O592 2.297 . S
Cd589 O593 2.439 . S
Cd589 O599 2.240 . S
Cd590 O591 2.240 . S
Cd590 O598 2.223 . S
Cd590 O600 2.297 . S
Cd590 O601 2.439 . S
O591 Cd590 2.240 . S
O591 C596 1.279 . S
O592 Cd589 2.297 . S
O592 C594 1.247 . S
O593 Cd589 2.439 . S
O593 C594 1.208 . S
C594 O592 1.247 . S
C594 O593 1.208 . S
C595 O600 1.247 . S
C595 O601 1.208 . S
C596 O588 1.315 . S
C596 O591 1.279 . S
C597 O598 1.315 . S
C597 O599 1.279 . S
O598 Cd590 2.223 . S
O598 C597 1.315 . S
O599 Cd589 2.240 . S
O599 C597 1.279 . S
O600 Cd590 2.297 . S
O600 C595 1.247 . S
O601 Cd590 2.439 . S
O601 C595 1.208 . S
O602 Cd603 2.223 . S
O602 C610 1.315 . S
Cd603 O602 2.223 . S
Cd603 O606 2.297 . S
Cd603 O607 2.439 . S
Cd603 O613 2.240 . S
Cd604 O605 2.240 . S
Cd604 O612 2.223 . S
Cd604 O614 2.297 . S
Cd604 O615 2.439 . S
O605 Cd604 2.240 . S
O605 C610 1.279 . S
O606 Cd603 2.297 . S
O606 C608 1.247 . S
O607 Cd603 2.439 . S
O607 C608 1.208 . S
C608 O606 1.247 . S
C608 O607 1.208 . S
C609 O614 1.247 . S
C609 O615 1.208 . S
C610 O602 1.315 . S
C610 O605 1.279 . S
C611 O612 1.315 . S
C611 O613 1.279 . S
O612 Cd604 2.223 . S
O612 C611 1.315 . S
O613 Cd603 2.240 . S
O613 C611 1.279 . S
O614 Cd604 2.297 . S
O614 C609 1.247 . S
O615 Cd604 2.439 . S
O615 C609 1.208 . S
O616 Cd617 2.223 . S
O616 C624 1.315 . S
Cd617 O616 2.223 . S
Cd617 O620 2.297 . S
Cd617 O621 2.439 . S
Cd617 O627 2.240 . S
Cd618 O619 2.240 . S
Cd618 O626 2.223 . S
Cd618 O628 2.297 . S
Cd618 O629 2.439 . S
O619 Cd618 2.240 . S
O619 C624 1.279 . S
O620 Cd617 2.297 . S
O620 C622 1.247 . S
O621 Cd617 2.439 . S
O621 C622 1.208 . S
C622 O620 1.247 . S
C622 O621 1.208 . S
C623 O628 1.247 . S
C623 O629 1.208 . S
C624 O616 1.315 . S
C624 O619 1.279 . S
C625 O626 1.315 . S
C625 O627 1.279 . S
O626 Cd618 2.223 . S
O626 C625 1.315 . S
O627 Cd617 2.240 . S
O627 C625 1.279 . S
O628 Cd618 2.297 . S
O628 C623 1.247 . S
O629 Cd618 2.439 . S
O629 C623 1.208 . S
O630 Cd631 2.223 . S
O630 C638 1.315 . S
Cd631 O630 2.223 . S
Cd631 O634 2.297 . S
Cd631 O635 2.439 . S
Cd631 O641 2.240 . S
Cd632 O633 2.240 . S
Cd632 O640 2.223 . S
Cd632 O642 2.297 . S
Cd632 O643 2.439 . S
O633 Cd632 2.240 . S
O633 C638 1.279 . S
O634 Cd631 2.297 . S
O634 C636 1.247 . S
O635 Cd631 2.439 . S
O635 C636 1.208 . S
C636 O634 1.247 . S
C636 O635 1.208 . S
C637 O642 1.247 . S
C637 O643 1.208 . S
C638 O630 1.315 . S
C638 O633 1.279 . S
C639 O640 1.315 . S
C639 O641 1.279 . S
O640 Cd632 2.223 . S
O640 C639 1.315 . S
O641 Cd631 2.240 . S
O641 C639 1.279 . S
O642 Cd632 2.297 . S
O642 C637 1.247 . S
O643 Cd632 2.439 . S
O643 C637 1.208 . S
O644 Cd645 2.223 . S
O644 C652 1.315 . S
Cd645 O644 2.223 . S
Cd645 O648 2.297 . S
Cd645 O649 2.439 . S
Cd645 O655 2.240 . S
Cd646 O647 2.240 . S
Cd646 O654 2.223 . S
Cd646 O656 2.297 . S
Cd646 O657 2.439 . S
O647 Cd646 2.240 . S
O647 C652 1.279 . S
O648 Cd645 2.297 . S
O648 C650 1.247 . S
O649 Cd645 2.439 . S
O649 C650 1.208 . S
C650 O648 1.247 . S
C650 O649 1.208 . S
C651 O656 1.247 . S
C651 O657 1.208 . S
C652 O644 1.315 . S
C652 O647 1.279 . S
C653 O654 1.315 . S
C653 O655 1.279 . S
O654 Cd646 2.223 . S
O654 C653 1.315 . S
O655 Cd645 2.240 . S
O655 C653 1.279 . S
O656 Cd646 2.297 . S
O656 C651 1.247 . S
O657 Cd646 2.439 . S
O657 C651 1.208 . S
O658 Cd659 2.223 . S
O658 C666 1.315 . S
Cd659 O658 2.223 . S
Cd659 O662 2.297 . S
Cd659 O663 2.439 . S
Cd659 O669 2.240 . S
Cd660 O661 2.240 . S
Cd660 O668 2.223 . S
Cd660 O670 2.297 . S
Cd660 O671 2.439 . S
O661 Cd660 2.240 . S
O661 C666 1.279 . S
O662 Cd659 2.297 . S
O662 C664 1.247 . S
O663 Cd659 2.439 . S
O663 C664 1.208 . S
C664 O662 1.247 . S
C664 O663 1.208 . S
C665 O670 1.247 . S
C665 O671 1.208 . S
C666 O658 1.315 . S
C666 O661 1.279 . S
C667 O668 1.315 . S
C667 O669 1.279 . S
O668 Cd660 2.223 . S
O668 C667 1.315 . S
O669 Cd659 2.240 . S
O669 C667 1.279 . S
O670 Cd660 2.297 . S
O670 C665 1.247 . S
O671 Cd660 2.439 . S
O671 C665 1.208 . S
C672 C673 1.391 . S
C672 C674 1.394 . S
C672 H688 0.931 . S
C673 C672 1.391 . S
C673 C677 1.376 . S
C674 C672 1.394 . S
C674 C675 1.369 . S
C674 C678 1.531 . S
C675 C674 1.369 . S
C675 C676 1.410 . S
C675 C683 1.503 . S
C676 C675 1.410 . S
C676 C677 1.392 . S
C676 C679 1.511 . S
C677 C673 1.376 . S
C677 C676 1.392 . S
C677 H689 0.929 . S
C678 C674 1.531 . S
C678 H690 0.960 . S
C678 H691 0.962 . S
C678 H692 0.960 . S
C679 C676 1.511 . S
C679 H693 0.961 . S
C679 H694 0.961 . S
C679 H695 0.961 . S
C680 C681 1.370 . S
C680 C682 1.363 . S
C680 H696 0.931 . S
C681 C680 1.370 . S
C681 C685 1.408 . S
C682 C680 1.363 . S
C682 C683 1.370 . S
C682 C686 1.524 . S
C683 C675 1.503 . S
C683 C682 1.370 . S
C683 C684 1.403 . S
C684 C683 1.403 . S
C684 C685 1.404 . S
C684 C687 1.539 . S
C685 C681 1.408 . S
C685 C684 1.404 . S
C685 H697 0.930 . S
C686 C682 1.524 . S
C686 H698 0.956 . S
C686 H699 0.961 . S
C686 H700 0.961 . S
C687 C684 1.539 . S
C687 H701 0.958 . S
C687 H702 0.961 . S
C687 H703 0.960 . S
H688 C672 0.931 . S
H689 C677 0.929 . S
H690 C678 0.960 . S
H691 C678 0.962 . S
H692 C678 0.960 . S
H693 C679 0.961 . S
H694 C679 0.961 . S
H695 C679 0.961 . S
H696 C680 0.931 . S
H697 C685 0.930 . S
H698 C686 0.956 . S
H699 C686 0.961 . S
H700 C686 0.961 . S
H701 C687 0.958 . S
H702 C687 0.961 . S
H703 C687 0.960 . S
C704 C705 1.391 . S
C704 C706 1.394 . S
C704 H720 0.931 . S
C705 C704 1.391 . S
C705 C709 1.376 . S
C706 C704 1.394 . S
C706 C707 1.369 . S
C706 C710 1.531 . S
C707 C706 1.369 . S
C707 C708 1.410 . S
C707 C715 1.503 . S
C708 C707 1.410 . S
C708 C709 1.392 . S
C708 C711 1.511 . S
C709 C705 1.376 . S
C709 C708 1.392 . S
C709 H721 0.929 . S
C710 C706 1.531 . S
C710 H722 0.960 . S
C710 H723 0.962 . S
C710 H724 0.960 . S
C711 C708 1.511 . S
C711 H725 0.961 . S
C711 H726 0.961 . S
C711 H727 0.961 . S
C712 C713 1.370 . S
C712 C714 1.363 . S
C712 H728 0.931 . S
C713 C712 1.370 . S
C713 C717 1.408 . S
C714 C712 1.363 . S
C714 C715 1.370 . S
C714 C718 1.524 . S
C715 C707 1.503 . S
C715 C714 1.370 . S
C715 C716 1.403 . S
C716 C715 1.403 . S
C716 C717 1.404 . S
C716 C719 1.539 . S
C717 C713 1.408 . S
C717 C716 1.404 . S
C717 H729 0.930 . S
C718 C714 1.524 . S
C718 H730 0.956 . S
C718 H731 0.961 . S
C718 H732 0.961 . S
C719 C716 1.539 . S
C719 H733 0.958 . S
C719 H734 0.961 . S
C719 H735 0.960 . S
H720 C704 0.931 . S
H721 C709 0.929 . S
H722 C710 0.960 . S
H723 C710 0.962 . S
H724 C710 0.960 . S
H725 C711 0.961 . S
H726 C711 0.961 . S
H727 C711 0.961 . S
H728 C712 0.931 . S
H729 C717 0.930 . S
H730 C718 0.956 . S
H731 C718 0.961 . S
H732 C718 0.961 . S
H733 C719 0.958 . S
H734 C719 0.961 . S
H735 C719 0.960 . S
C736 C737 1.391 . S
C736 C738 1.394 . S
C736 H752 0.931 . S
C737 C736 1.391 . S
C737 C741 1.376 . S
C738 C736 1.394 . S
C738 C739 1.369 . S
C738 C742 1.531 . S
C739 C738 1.369 . S
C739 C740 1.410 . S
C739 C747 1.503 . S
C740 C739 1.410 . S
C740 C741 1.392 . S
C740 C743 1.511 . S
C741 C737 1.376 . S
C741 C740 1.392 . S
C741 H753 0.929 . S
C742 C738 1.531 . S
C742 H754 0.960 . S
C742 H755 0.962 . S
C742 H756 0.960 . S
C743 C740 1.511 . S
C743 H757 0.961 . S
C743 H758 0.961 . S
C743 H759 0.961 . S
C744 C745 1.370 . S
C744 C746 1.363 . S
C744 H760 0.931 . S
C745 C744 1.370 . S
C745 C749 1.408 . S
C746 C744 1.363 . S
C746 C747 1.370 . S
C746 C750 1.524 . S
C747 C739 1.503 . S
C747 C746 1.370 . S
C747 C748 1.403 . S
C748 C747 1.403 . S
C748 C749 1.404 . S
C748 C751 1.539 . S
C749 C745 1.408 . S
C749 C748 1.404 . S
C749 H761 0.930 . S
C750 C746 1.524 . S
C750 H762 0.956 . S
C750 H763 0.961 . S
C750 H764 0.961 . S
C751 C748 1.539 . S
C751 H765 0.958 . S
C751 H766 0.961 . S
C751 H767 0.960 . S
H752 C736 0.931 . S
H753 C741 0.929 . S
H754 C742 0.960 . S
H755 C742 0.962 . S
H756 C742 0.960 . S
H757 C743 0.961 . S
H758 C743 0.961 . S
H759 C743 0.961 . S
H760 C744 0.931 . S
H761 C749 0.930 . S
H762 C750 0.956 . S
H763 C750 0.961 . S
H764 C750 0.961 . S
H765 C751 0.958 . S
H766 C751 0.961 . S
H767 C751 0.960 . S
C768 C769 1.391 . S
C768 C770 1.394 . S
C768 H784 0.931 . S
C769 C768 1.391 . S
C769 C773 1.376 . S
C770 C768 1.394 . S
C770 C771 1.369 . S
C770 C774 1.531 . S
C771 C770 1.369 . S
C771 C772 1.410 . S
C771 C779 1.503 . S
C772 C771 1.410 . S
C772 C773 1.392 . S
C772 C775 1.511 . S
C773 C769 1.376 . S
C773 C772 1.392 . S
C773 H785 0.929 . S
C774 C770 1.531 . S
C774 H786 0.960 . S
C774 H787 0.962 . S
C774 H788 0.960 . S
C775 C772 1.511 . S
C775 H789 0.961 . S
C775 H790 0.961 . S
C775 H791 0.961 . S
C776 C777 1.370 . S
C776 C778 1.363 . S
C776 H792 0.931 . S
C777 C776 1.370 . S
C777 C781 1.408 . S
C778 C776 1.363 . S
C778 C779 1.370 . S
C778 C782 1.524 . S
C779 C771 1.503 . S
C779 C778 1.370 . S
C779 C780 1.403 . S
C780 C779 1.403 . S
C780 C781 1.404 . S
C780 C783 1.539 . S
C781 C777 1.408 . S
C781 C780 1.404 . S
C781 H793 0.930 . S
C782 C778 1.524 . S
C782 H794 0.956 . S
C782 H795 0.961 . S
C782 H796 0.961 . S
C783 C780 1.539 . S
C783 H797 0.958 . S
C783 H798 0.961 . S
C783 H799 0.960 . S
H784 C768 0.931 . S
H785 C773 0.929 . S
H786 C774 0.960 . S
H787 C774 0.962 . S
H788 C774 0.960 . S
H789 C775 0.961 . S
H790 C775 0.961 . S
H791 C775 0.961 . S
H792 C776 0.931 . S
H793 C781 0.930 . S
H794 C782 0.956 . S
H795 C782 0.961 . S
H796 C782 0.961 . S
H797 C783 0.958 . S
H798 C783 0.961 . S
H799 C783 0.960 . S
C800 C801 1.391 . S
C800 C802 1.394 . S
C800 H816 0.931 . S
C801 C800 1.391 . S
C801 C805 1.376 . S
C802 C800 1.394 . S
C802 C803 1.369 . S
C802 C806 1.531 . S
C803 C802 1.369 . S
C803 C804 1.410 . S
C803 C811 1.503 . S
C804 C803 1.410 . S
C804 C805 1.392 . S
C804 C807 1.511 . S
C805 C801 1.376 . S
C805 C804 1.392 . S
C805 H817 0.929 . S
C806 C802 1.531 . S
C806 H818 0.960 . S
C806 H819 0.962 . S
C806 H820 0.960 . S
C807 C804 1.511 . S
C807 H821 0.961 . S
C807 H822 0.961 . S
C807 H823 0.961 . S
C808 C809 1.370 . S
C808 C810 1.363 . S
C808 H824 0.931 . S
C809 C808 1.370 . S
C809 C813 1.408 . S
C810 C808 1.363 . S
C810 C811 1.370 . S
C810 C814 1.524 . S
C811 C803 1.503 . S
C811 C810 1.370 . S
C811 C812 1.403 . S
C812 C811 1.403 . S
C812 C813 1.404 . S
C812 C815 1.539 . S
C813 C809 1.408 . S
C813 C812 1.404 . S
C813 H825 0.930 . S
C814 C810 1.524 . S
C814 H826 0.956 . S
C814 H827 0.961 . S
C814 H828 0.961 . S
C815 C812 1.539 . S
C815 H829 0.958 . S
C815 H830 0.961 . S
C815 H831 0.960 . S
H816 C800 0.931 . S
H817 C805 0.929 . S
H818 C806 0.960 . S
H819 C806 0.962 . S
H820 C806 0.960 . S
H821 C807 0.961 . S
H822 C807 0.961 . S
H823 C807 0.961 . S
H824 C808 0.931 . S
H825 C813 0.930 . S
H826 C814 0.956 . S
H827 C814 0.961 . S
H828 C814 0.961 . S
H829 C815 0.958 . S
H830 C815 0.961 . S
H831 C815 0.960 . S
C832 C833 1.391 . S
C832 C834 1.394 . S
C832 H848 0.931 . S
C833 C832 1.391 . S
C833 C837 1.376 . S
C834 C832 1.394 . S
C834 C835 1.369 . S
C834 C838 1.531 . S
C835 C834 1.369 . S
C835 C836 1.410 . S
C835 C843 1.503 . S
C836 C835 1.410 . S
C836 C837 1.392 . S
C836 C839 1.511 . S
C837 C833 1.376 . S
C837 C836 1.392 . S
C837 H849 0.929 . S
C838 C834 1.531 . S
C838 H850 0.960 . S
C838 H851 0.962 . S
C838 H852 0.960 . S
C839 C836 1.511 . S
C839 H853 0.961 . S
C839 H854 0.961 . S
C839 H855 0.961 . S
C840 C841 1.370 . S
C840 C842 1.363 . S
C840 H856 0.931 . S
C841 C840 1.370 . S
C841 C845 1.408 . S
C842 C840 1.363 . S
C842 C843 1.370 . S
C842 C846 1.524 . S
C843 C835 1.503 . S
C843 C842 1.370 . S
C843 C844 1.403 . S
C844 C843 1.403 . S
C844 C845 1.404 . S
C844 C847 1.539 . S
C845 C841 1.408 . S
C845 C844 1.404 . S
C845 H857 0.930 . S
C846 C842 1.524 . S
C846 H858 0.956 . S
C846 H859 0.961 . S
C846 H860 0.961 . S
C847 C844 1.539 . S
C847 H861 0.958 . S
C847 H862 0.961 . S
C847 H863 0.960 . S
H848 C832 0.931 . S
H849 C837 0.929 . S
H850 C838 0.960 . S
H851 C838 0.962 . S
H852 C838 0.960 . S
H853 C839 0.961 . S
H854 C839 0.961 . S
H855 C839 0.961 . S
H856 C840 0.931 . S
H857 C845 0.930 . S
H858 C846 0.956 . S
H859 C846 0.961 . S
H860 C846 0.961 . S
H861 C847 0.958 . S
H862 C847 0.961 . S
H863 C847 0.960 . S
C864 C865 1.391 . S
C864 C866 1.394 . S
C864 H880 0.931 . S
C865 C864 1.391 . S
C865 C869 1.376 . S
C866 C864 1.394 . S
C866 C867 1.369 . S
C866 C870 1.531 . S
C867 C866 1.369 . S
C867 C868 1.410 . S
C867 C875 1.503 . S
C868 C867 1.410 . S
C868 C869 1.392 . S
C868 C871 1.511 . S
C869 C865 1.376 . S
C869 C868 1.392 . S
C869 H881 0.929 . S
C870 C866 1.531 . S
C870 H882 0.960 . S
C870 H883 0.962 . S
C870 H884 0.960 . S
C871 C868 1.511 . S
C871 H885 0.961 . S
C871 H886 0.961 . S
C871 H887 0.961 . S
C872 C873 1.370 . S
C872 C874 1.363 . S
C872 H888 0.931 . S
C873 C872 1.370 . S
C873 C877 1.408 . S
C874 C872 1.363 . S
C874 C875 1.370 . S
C874 C878 1.524 . S
C875 C867 1.503 . S
C875 C874 1.370 . S
C875 C876 1.403 . S
C876 C875 1.403 . S
C876 C877 1.404 . S
C876 C879 1.539 . S
C877 C873 1.408 . S
C877 C876 1.404 . S
C877 H889 0.930 . S
C878 C874 1.524 . S
C878 H890 0.956 . S
C878 H891 0.961 . S
C878 H892 0.961 . S
C879 C876 1.539 . S
C879 H893 0.958 . S
C879 H894 0.961 . S
C879 H895 0.960 . S
H880 C864 0.931 . S
H881 C869 0.929 . S
H882 C870 0.960 . S
H883 C870 0.962 . S
H884 C870 0.960 . S
H885 C871 0.961 . S
H886 C871 0.961 . S
H887 C871 0.961 . S
H888 C872 0.931 . S
H889 C877 0.930 . S
H890 C878 0.956 . S
H891 C878 0.961 . S
H892 C878 0.961 . S
H893 C879 0.958 . S
H894 C879 0.961 . S
H895 C879 0.960 . S
C896 C897 1.391 . S
C896 C898 1.394 . S
C896 H912 0.931 . S
C897 C896 1.391 . S
C897 C901 1.376 . S
C898 C896 1.394 . S
C898 C899 1.369 . S
C898 C902 1.531 . S
C899 C898 1.369 . S
C899 C900 1.410 . S
C899 C907 1.503 . S
C900 C899 1.410 . S
C900 C901 1.392 . S
C900 C903 1.511 . S
C901 C897 1.376 . S
C901 C900 1.392 . S
C901 H913 0.929 . S
C902 C898 1.531 . S
C902 H914 0.960 . S
C902 H915 0.962 . S
C902 H916 0.960 . S
C903 C900 1.511 . S
C903 H917 0.961 . S
C903 H918 0.961 . S
C903 H919 0.961 . S
C904 C905 1.370 . S
C904 C906 1.363 . S
C904 H920 0.931 . S
C905 C904 1.370 . S
C905 C909 1.408 . S
C906 C904 1.363 . S
C906 C907 1.370 . S
C906 C910 1.524 . S
C907 C899 1.503 . S
C907 C906 1.370 . S
C907 C908 1.403 . S
C908 C907 1.403 . S
C908 C909 1.404 . S
C908 C911 1.539 . S
C909 C905 1.408 . S
C909 C908 1.404 . S
C909 H921 0.930 . S
C910 C906 1.524 . S
C910 H922 0.956 . S
C910 H923 0.961 . S
C910 H924 0.961 . S
C911 C908 1.539 . S
C911 H925 0.958 . S
C911 H926 0.961 . S
C911 H927 0.960 . S
H912 C896 0.931 . S
H913 C901 0.929 . S
H914 C902 0.960 . S
H915 C902 0.962 . S
H916 C902 0.960 . S
H917 C903 0.961 . S
H918 C903 0.961 . S
H919 C903 0.961 . S
H920 C904 0.931 . S
H921 C909 0.930 . S
H922 C910 0.956 . S
H923 C910 0.961 . S
H924 C910 0.961 . S
H925 C911 0.958 . S
H926 C911 0.961 . S
H927 C911 0.960 . S
C928 C929 1.391 . S
C928 C930 1.394 . S
C928 H944 0.931 . S
C929 C928 1.391 . S
C929 C933 1.376 . S
C930 C928 1.394 . S
C930 C931 1.369 . S
C930 C934 1.531 . S
C931 C930 1.369 . S
C931 C932 1.410 . S
C931 C939 1.503 . S
C932 C931 1.410 . S
C932 C933 1.392 . S
C932 C935 1.511 . S
C933 C929 1.376 . S
C933 C932 1.392 . S
C933 H945 0.929 . S
C934 C930 1.531 . S
C934 H946 0.960 . S
C934 H947 0.962 . S
C934 H948 0.960 . S
C935 C932 1.511 . S
C935 H949 0.961 . S
C935 H950 0.961 . S
C935 H951 0.961 . S
C936 C937 1.370 . S
C936 C938 1.363 . S
C936 H952 0.931 . S
C937 C936 1.370 . S
C937 C941 1.408 . S
C938 C936 1.363 . S
C938 C939 1.370 . S
C938 C942 1.524 . S
C939 C931 1.503 . S
C939 C938 1.370 . S
C939 C940 1.403 . S
C940 C939 1.403 . S
C940 C941 1.404 . S
C940 C943 1.539 . S
C941 C937 1.408 . S
C941 C940 1.404 . S
C941 H953 0.930 . S
C942 C938 1.524 . S
C942 H954 0.956 . S
C942 H955 0.961 . S
C942 H956 0.961 . S
C943 C940 1.539 . S
C943 H957 0.958 . S
C943 H958 0.961 . S
C943 H959 0.960 . S
H944 C928 0.931 . S
H945 C933 0.929 . S
H946 C934 0.960 . S
H947 C934 0.962 . S
H948 C934 0.960 . S
H949 C935 0.961 . S
H950 C935 0.961 . S
H951 C935 0.961 . S
H952 C936 0.931 . S
H953 C941 0.930 . S
H954 C942 0.956 . S
H955 C942 0.961 . S
H956 C942 0.961 . S
H957 C943 0.958 . S
H958 C943 0.961 . S
H959 C943 0.960 . S
C960 C961 1.391 . S
C960 C962 1.394 . S
C960 H976 0.931 . S
C961 C960 1.391 . S
C961 C965 1.376 . S
C962 C960 1.394 . S
C962 C963 1.369 . S
C962 C966 1.531 . S
C963 C962 1.369 . S
C963 C964 1.410 . S
C963 C971 1.503 . S
C964 C963 1.410 . S
C964 C965 1.392 . S
C964 C967 1.511 . S
C965 C961 1.376 . S
C965 C964 1.392 . S
C965 H977 0.929 . S
C966 C962 1.531 . S
C966 H978 0.960 . S
C966 H979 0.962 . S
C966 H980 0.960 . S
C967 C964 1.511 . S
C967 H981 0.961 . S
C967 H982 0.961 . S
C967 H983 0.961 . S
C968 C969 1.370 . S
C968 C970 1.363 . S
C968 H984 0.931 . S
C969 C968 1.370 . S
C969 C973 1.408 . S
C970 C968 1.363 . S
C970 C971 1.370 . S
C970 C974 1.524 . S
C971 C963 1.503 . S
C971 C970 1.370 . S
C971 C972 1.403 . S
C972 C971 1.403 . S
C972 C973 1.404 . S
C972 C975 1.539 . S
C973 C969 1.408 . S
C973 C972 1.404 . S
C973 H985 0.930 . S
C974 C970 1.524 . S
C974 H986 0.956 . S
C974 H987 0.961 . S
C974 H988 0.961 . S
C975 C972 1.539 . S
C975 H989 0.958 . S
C975 H990 0.961 . S
C975 H991 0.960 . S
H976 C960 0.931 . S
H977 C965 0.929 . S
H978 C966 0.960 . S
H979 C966 0.962 . S
H980 C966 0.960 . S
H981 C967 0.961 . S
H982 C967 0.961 . S
H983 C967 0.961 . S
H984 C968 0.931 . S
H985 C973 0.930 . S
H986 C974 0.956 . S
H987 C974 0.961 . S
H988 C974 0.961 . S
H989 C975 0.958 . S
H990 C975 0.961 . S
H991 C975 0.960 . S
C992 C993 1.391 . S
C992 C994 1.394 . S
C992 H1008 0.931 . S
C993 C992 1.391 . S
C993 C997 1.376 . S
C994 C992 1.394 . S
C994 C995 1.369 . S
C994 C998 1.531 . S
C995 C994 1.369 . S
C995 C996 1.410 . S
C995 C1003 1.503 . S
C996 C995 1.410 . S
C996 C997 1.392 . S
C996 C999 1.511 . S
C997 C993 1.376 . S
C997 C996 1.392 . S
C997 H1009 0.929 . S
C998 C994 1.531 . S
C998 H1010 0.960 . S
C998 H1011 0.962 . S
C998 H1012 0.960 . S
C999 C996 1.511 . S
C999 H1013 0.961 . S
C999 H1014 0.961 . S
C999 H1015 0.961 . S
C1000 C1001 1.370 . S
C1000 C1002 1.363 . S
C1000 H1016 0.931 . S
C1001 C1000 1.370 . S
C1001 C1005 1.408 . S
C1002 C1000 1.363 . S
C1002 C1003 1.370 . S
C1002 C1006 1.524 . S
C1003 C995 1.503 . S
C1003 C1002 1.370 . S
C1003 C1004 1.403 . S
C1004 C1003 1.403 . S
C1004 C1005 1.404 . S
C1004 C1007 1.539 . S
C1005 C1001 1.408 . S
C1005 C1004 1.404 . S
C1005 H1017 0.930 . S
C1006 C1002 1.524 . S
C1006 H1018 0.956 . S
C1006 H1019 0.961 . S
C1006 H1020 0.961 . S
C1007 C1004 1.539 . S
C1007 H1021 0.958 . S
C1007 H1022 0.961 . S
C1007 H1023 0.960 . S
H1008 C992 0.931 . S
H1009 C997 0.929 . S
H1010 C998 0.960 . S
H1011 C998 0.962 . S
H1012 C998 0.960 . S
H1013 C999 0.961 . S
H1014 C999 0.961 . S
H1015 C999 0.961 . S
H1016 C1000 0.931 . S
H1017 C1005 0.930 . S
H1018 C1006 0.956 . S
H1019 C1006 0.961 . S
H1020 C1006 0.961 . S
H1021 C1007 0.958 . S
H1022 C1007 0.961 . S
H1023 C1007 0.960 . S
C1024 C1025 1.391 . S
C1024 C1026 1.394 . S
C1024 H1040 0.931 . S
C1025 C1024 1.391 . S
C1025 C1029 1.376 . S
C1026 C1024 1.394 . S
C1026 C1027 1.369 . S
C1026 C1030 1.531 . S
C1027 C1026 1.369 . S
C1027 C1028 1.410 . S
C1027 C1035 1.503 . S
C1028 C1027 1.410 . S
C1028 C1029 1.392 . S
C1028 C1031 1.511 . S
C1029 C1025 1.376 . S
C1029 C1028 1.392 . S
C1029 H1041 0.929 . S
C1030 C1026 1.531 . S
C1030 H1042 0.960 . S
C1030 H1043 0.962 . S
C1030 H1044 0.960 . S
C1031 C1028 1.511 . S
C1031 H1045 0.961 . S
C1031 H1046 0.961 . S
C1031 H1047 0.961 . S
C1032 C1033 1.370 . S
C1032 C1034 1.363 . S
C1032 H1048 0.931 . S
C1033 C1032 1.370 . S
C1033 C1037 1.408 . S
C1034 C1032 1.363 . S
C1034 C1035 1.370 . S
C1034 C1038 1.524 . S
C1035 C1027 1.503 . S
C1035 C1034 1.370 . S
C1035 C1036 1.403 . S
C1036 C1035 1.403 . S
C1036 C1037 1.404 . S
C1036 C1039 1.539 . S
C1037 C1033 1.408 . S
C1037 C1036 1.404 . S
C1037 H1049 0.930 . S
C1038 C1034 1.524 . S
C1038 H1050 0.956 . S
C1038 H1051 0.961 . S
C1038 H1052 0.961 . S
C1039 C1036 1.539 . S
C1039 H1053 0.958 . S
C1039 H1054 0.961 . S
C1039 H1055 0.960 . S
H1040 C1024 0.931 . S
H1041 C1029 0.929 . S
H1042 C1030 0.960 . S
H1043 C1030 0.962 . S
H1044 C1030 0.960 . S
H1045 C1031 0.961 . S
H1046 C1031 0.961 . S
H1047 C1031 0.961 . S
H1048 C1032 0.931 . S
H1049 C1037 0.930 . S
H1050 C1038 0.956 . S
H1051 C1038 0.961 . S
H1052 C1038 0.961 . S
H1053 C1039 0.958 . S
H1054 C1039 0.961 . S
H1055 C1039 0.960 . S
C1056 C1057 1.391 . S
C1056 C1058 1.394 . S
C1056 H1072 0.931 . S
C1057 C1056 1.391 . S
C1057 C1061 1.376 . S
C1058 C1056 1.394 . S
C1058 C1059 1.369 . S
C1058 C1062 1.531 . S
C1059 C1058 1.369 . S
C1059 C1060 1.410 . S
C1059 C1067 1.503 . S
C1060 C1059 1.410 . S
C1060 C1061 1.392 . S
C1060 C1063 1.511 . S
C1061 C1057 1.376 . S
C1061 C1060 1.392 . S
C1061 H1073 0.929 . S
C1062 C1058 1.531 . S
C1062 H1074 0.960 . S
C1062 H1075 0.962 . S
C1062 H1076 0.960 . S
C1063 C1060 1.511 . S
C1063 H1077 0.961 . S
C1063 H1078 0.961 . S
C1063 H1079 0.961 . S
C1064 C1065 1.370 . S
C1064 C1066 1.363 . S
C1064 H1080 0.931 . S
C1065 C1064 1.370 . S
C1065 C1069 1.408 . S
C1066 C1064 1.363 . S
C1066 C1067 1.370 . S
C1066 C1070 1.524 . S
C1067 C1059 1.503 . S
C1067 C1066 1.370 . S
C1067 C1068 1.403 . S
C1068 C1067 1.403 . S
C1068 C1069 1.404 . S
C1068 C1071 1.539 . S
C1069 C1065 1.408 . S
C1069 C1068 1.404 . S
C1069 H1081 0.930 . S
C1070 C1066 1.524 . S
C1070 H1082 0.956 . S
C1070 H1083 0.961 . S
C1070 H1084 0.961 . S
C1071 C1068 1.539 . S
C1071 H1085 0.958 . S
C1071 H1086 0.961 . S
C1071 H1087 0.960 . S
H1072 C1056 0.931 . S
H1073 C1061 0.929 . S
H1074 C1062 0.960 . S
H1075 C1062 0.962 . S
H1076 C1062 0.960 . S
H1077 C1063 0.961 . S
H1078 C1063 0.961 . S
H1079 C1063 0.961 . S
H1080 C1064 0.931 . S
H1081 C1069 0.930 . S
H1082 C1070 0.956 . S
H1083 C1070 0.961 . S
H1084 C1070 0.961 . S
H1085 C1071 0.958 . S
H1086 C1071 0.961 . S
H1087 C1071 0.960 . S
C1088 C1089 1.391 . S
C1088 C1090 1.394 . S
C1088 H1104 0.931 . S
C1089 C1088 1.391 . S
C1089 C1093 1.376 . S
C1090 C1088 1.394 . S
C1090 C1091 1.369 . S
C1090 C1094 1.531 . S
C1091 C1090 1.369 . S
C1091 C1092 1.410 . S
C1091 C1099 1.503 . S
C1092 C1091 1.410 . S
C1092 C1093 1.392 . S
C1092 C1095 1.511 . S
C1093 C1089 1.376 . S
C1093 C1092 1.392 . S
C1093 H1105 0.929 . S
C1094 C1090 1.531 . S
C1094 H1106 0.960 . S
C1094 H1107 0.962 . S
C1094 H1108 0.960 . S
C1095 C1092 1.511 . S
C1095 H1109 0.961 . S
C1095 H1110 0.961 . S
C1095 H1111 0.961 . S
C1096 C1097 1.370 . S
C1096 C1098 1.363 . S
C1096 H1112 0.931 . S
C1097 C1096 1.370 . S
C1097 C1101 1.408 . S
C1098 C1096 1.363 . S
C1098 C1099 1.370 . S
C1098 C1102 1.524 . S
C1099 C1091 1.503 . S
C1099 C1098 1.370 . S
C1099 C1100 1.403 . S
C1100 C1099 1.403 . S
C1100 C1101 1.404 . S
C1100 C1103 1.539 . S
C1101 C1097 1.408 . S
C1101 C1100 1.404 . S
C1101 H1113 0.930 . S
C1102 C1098 1.524 . S
C1102 H1114 0.956 . S
C1102 H1115 0.961 . S
C1102 H1116 0.961 . S
C1103 C1100 1.539 . S
C1103 H1117 0.958 . S
C1103 H1118 0.961 . S
C1103 H1119 0.960 . S
H1104 C1088 0.931 . S
H1105 C1093 0.929 . S
H1106 C1094 0.960 . S
H1107 C1094 0.962 . S
H1108 C1094 0.960 . S
H1109 C1095 0.961 . S
H1110 C1095 0.961 . S
H1111 C1095 0.961 . S
H1112 C1096 0.931 . S
H1113 C1101 0.930 . S
H1114 C1102 0.956 . S
H1115 C1102 0.961 . S
H1116 C1102 0.961 . S
H1117 C1103 0.958 . S
H1118 C1103 0.961 . S
H1119 C1103 0.960 . S
C1120 C1121 1.391 . S
C1120 C1122 1.394 . S
C1120 H1136 0.931 . S
C1121 C1120 1.391 . S
C1121 C1125 1.376 . S
C1122 C1120 1.394 . S
C1122 C1123 1.369 . S
C1122 C1126 1.531 . S
C1123 C1122 1.369 . S
C1123 C1124 1.410 . S
C1123 C1131 1.503 . S
C1124 C1123 1.410 . S
C1124 C1125 1.392 . S
C1124 C1127 1.511 . S
C1125 C1121 1.376 . S
C1125 C1124 1.392 . S
C1125 H1137 0.929 . S
C1126 C1122 1.531 . S
C1126 H1138 0.960 . S
C1126 H1139 0.962 . S
C1126 H1140 0.960 . S
C1127 C1124 1.511 . S
C1127 H1141 0.961 . S
C1127 H1142 0.961 . S
C1127 H1143 0.961 . S
C1128 C1129 1.370 . S
C1128 C1130 1.363 . S
C1128 H1144 0.931 . S
C1129 C1128 1.370 . S
C1129 C1133 1.408 . S
C1130 C1128 1.363 . S
C1130 C1131 1.370 . S
C1130 C1134 1.524 . S
C1131 C1123 1.503 . S
C1131 C1130 1.370 . S
C1131 C1132 1.403 . S
C1132 C1131 1.403 . S
C1132 C1133 1.404 . S
C1132 C1135 1.539 . S
C1133 C1129 1.408 . S
C1133 C1132 1.404 . S
C1133 H1145 0.930 . S
C1134 C1130 1.524 . S
C1134 H1146 0.956 . S
C1134 H1147 0.961 . S
C1134 H1148 0.961 . S
C1135 C1132 1.539 . S
C1135 H1149 0.958 . S
C1135 H1150 0.961 . S
C1135 H1151 0.960 . S
H1136 C1120 0.931 . S
H1137 C1125 0.929 . S
H1138 C1126 0.960 . S
H1139 C1126 0.962 . S
H1140 C1126 0.960 . S
H1141 C1127 0.961 . S
H1142 C1127 0.961 . S
H1143 C1127 0.961 . S
H1144 C1128 0.931 . S
H1145 C1133 0.930 . S
H1146 C1134 0.956 . S
H1147 C1134 0.961 . S
H1148 C1134 0.961 . S
H1149 C1135 0.958 . S
H1150 C1135 0.961 . S
H1151 C1135 0.960 . S
C1152 C1153 1.391 . S
C1152 C1154 1.394 . S
C1152 H1168 0.931 . S
C1153 C1152 1.391 . S
C1153 C1157 1.376 . S
C1154 C1152 1.394 . S
C1154 C1155 1.369 . S
C1154 C1158 1.531 . S
C1155 C1154 1.369 . S
C1155 C1156 1.410 . S
C1155 C1163 1.503 . S
C1156 C1155 1.410 . S
C1156 C1157 1.392 . S
C1156 C1159 1.511 . S
C1157 C1153 1.376 . S
C1157 C1156 1.392 . S
C1157 H1169 0.929 . S
C1158 C1154 1.531 . S
C1158 H1170 0.960 . S
C1158 H1171 0.962 . S
C1158 H1172 0.960 . S
C1159 C1156 1.511 . S
C1159 H1173 0.961 . S
C1159 H1174 0.961 . S
C1159 H1175 0.961 . S
C1160 C1161 1.370 . S
C1160 C1162 1.363 . S
C1160 H1176 0.931 . S
C1161 C1160 1.370 . S
C1161 C1165 1.408 . S
C1162 C1160 1.363 . S
C1162 C1163 1.370 . S
C1162 C1166 1.524 . S
C1163 C1155 1.503 . S
C1163 C1162 1.370 . S
C1163 C1164 1.403 . S
C1164 C1163 1.403 . S
C1164 C1165 1.404 . S
C1164 C1167 1.539 . S
C1165 C1161 1.408 . S
C1165 C1164 1.404 . S
C1165 H1177 0.930 . S
C1166 C1162 1.524 . S
C1166 H1178 0.956 . S
C1166 H1179 0.961 . S
C1166 H1180 0.961 . S
C1167 C1164 1.539 . S
C1167 H1181 0.958 . S
C1167 H1182 0.961 . S
C1167 H1183 0.960 . S
H1168 C1152 0.931 . S
H1169 C1157 0.929 . S
H1170 C1158 0.960 . S
H1171 C1158 0.962 . S
H1172 C1158 0.960 . S
H1173 C1159 0.961 . S
H1174 C1159 0.961 . S
H1175 C1159 0.961 . S
H1176 C1160 0.931 . S
H1177 C1165 0.930 . S
H1178 C1166 0.956 . S
H1179 C1166 0.961 . S
H1180 C1166 0.961 . S
H1181 C1167 0.958 . S
H1182 C1167 0.961 . S
H1183 C1167 0.960 . S
C1184 C1185 1.391 . S
C1184 C1186 1.394 . S
C1184 H1200 0.931 . S
C1185 C1184 1.391 . S
C1185 C1189 1.376 . S
C1186 C1184 1.394 . S
C1186 C1187 1.369 . S
C1186 C1190 1.531 . S
C1187 C1186 1.369 . S
C1187 C1188 1.410 . S
C1187 C1195 1.503 . S
C1188 C1187 1.410 . S
C1188 C1189 1.392 . S
C1188 C1191 1.511 . S
C1189 C1185 1.376 . S
C1189 C1188 1.392 . S
C1189 H1201 0.929 . S
C1190 C1186 1.531 . S
C1190 H1202 0.960 . S
C1190 H1203 0.962 . S
C1190 H1204 0.960 . S
C1191 C1188 1.511 . S
C1191 H1205 0.961 . S
C1191 H1206 0.961 . S
C1191 H1207 0.961 . S
C1192 C1193 1.370 . S
C1192 C1194 1.363 . S
C1192 H1208 0.931 . S
C1193 C1192 1.370 . S
C1193 C1197 1.408 . S
C1194 C1192 1.363 . S
C1194 C1195 1.370 . S
C1194 C1198 1.524 . S
C1195 C1187 1.503 . S
C1195 C1194 1.370 . S
C1195 C1196 1.403 . S
C1196 C1195 1.403 . S
C1196 C1197 1.404 . S
C1196 C1199 1.539 . S
C1197 C1193 1.408 . S
C1197 C1196 1.404 . S
C1197 H1209 0.930 . S
C1198 C1194 1.524 . S
C1198 H1210 0.956 . S
C1198 H1211 0.961 . S
C1198 H1212 0.961 . S
C1199 C1196 1.539 . S
C1199 H1213 0.958 . S
C1199 H1214 0.961 . S
C1199 H1215 0.960 . S
H1200 C1184 0.931 . S
H1201 C1189 0.929 . S
H1202 C1190 0.960 . S
H1203 C1190 0.962 . S
H1204 C1190 0.960 . S
H1205 C1191 0.961 . S
H1206 C1191 0.961 . S
H1207 C1191 0.961 . S
H1208 C1192 0.931 . S
H1209 C1197 0.930 . S
H1210 C1198 0.956 . S
H1211 C1198 0.961 . S
H1212 C1198 0.961 . S
H1213 C1199 0.958 . S
H1214 C1199 0.961 . S
H1215 C1199 0.960 . S
C1216 C1217 1.391 . S
C1216 C1218 1.394 . S
C1216 H1232 0.931 . S
C1217 C1216 1.391 . S
C1217 C1221 1.376 . S
C1218 C1216 1.394 . S
C1218 C1219 1.369 . S
C1218 C1222 1.531 . S
C1219 C1218 1.369 . S
C1219 C1220 1.410 . S
C1219 C1227 1.503 . S
C1220 C1219 1.410 . S
C1220 C1221 1.392 . S
C1220 C1223 1.511 . S
C1221 C1217 1.376 . S
C1221 C1220 1.392 . S
C1221 H1233 0.929 . S
C1222 C1218 1.531 . S
C1222 H1234 0.960 . S
C1222 H1235 0.962 . S
C1222 H1236 0.960 . S
C1223 C1220 1.511 . S
C1223 H1237 0.961 . S
C1223 H1238 0.961 . S
C1223 H1239 0.961 . S
C1224 C1225 1.370 . S
C1224 C1226 1.363 . S
C1224 H1240 0.931 . S
C1225 C1224 1.370 . S
C1225 C1229 1.408 . S
C1226 C1224 1.363 . S
C1226 C1227 1.370 . S
C1226 C1230 1.524 . S
C1227 C1219 1.503 . S
C1227 C1226 1.370 . S
C1227 C1228 1.403 . S
C1228 C1227 1.403 . S
C1228 C1229 1.404 . S
C1228 C1231 1.539 . S
C1229 C1225 1.408 . S
C1229 C1228 1.404 . S
C1229 H1241 0.930 . S
C1230 C1226 1.524 . S
C1230 H1242 0.956 . S
C1230 H1243 0.961 . S
C1230 H1244 0.961 . S
C1231 C1228 1.539 . S
C1231 H1245 0.958 . S
C1231 H1246 0.961 . S
C1231 H1247 0.960 . S
H1232 C1216 0.931 . S
H1233 C1221 0.929 . S
H1234 C1222 0.960 . S
H1235 C1222 0.962 . S
H1236 C1222 0.960 . S
H1237 C1223 0.961 . S
H1238 C1223 0.961 . S
H1239 C1223 0.961 . S
H1240 C1224 0.931 . S
H1241 C1229 0.930 . S
H1242 C1230 0.956 . S
H1243 C1230 0.961 . S
H1244 C1230 0.961 . S
H1245 C1231 0.958 . S
H1246 C1231 0.961 . S
H1247 C1231 0.960 . S
C1248 C1249 1.391 . S
C1248 C1250 1.394 . S
C1248 H1264 0.931 . S
C1249 C1248 1.391 . S
C1249 C1253 1.376 . S
C1250 C1248 1.394 . S
C1250 C1251 1.369 . S
C1250 C1254 1.531 . S
C1251 C1250 1.369 . S
C1251 C1252 1.410 . S
C1251 C1259 1.503 . S
C1252 C1251 1.410 . S
C1252 C1253 1.392 . S
C1252 C1255 1.511 . S
C1253 C1249 1.376 . S
C1253 C1252 1.392 . S
C1253 H1265 0.929 . S
C1254 C1250 1.531 . S
C1254 H1266 0.960 . S
C1254 H1267 0.962 . S
C1254 H1268 0.960 . S
C1255 C1252 1.511 . S
C1255 H1269 0.961 . S
C1255 H1270 0.961 . S
C1255 H1271 0.961 . S
C1256 C1257 1.370 . S
C1256 C1258 1.363 . S
C1256 H1272 0.931 . S
C1257 C1256 1.370 . S
C1257 C1261 1.408 . S
C1258 C1256 1.363 . S
C1258 C1259 1.370 . S
C1258 C1262 1.524 . S
C1259 C1251 1.503 . S
C1259 C1258 1.370 . S
C1259 C1260 1.403 . S
C1260 C1259 1.403 . S
C1260 C1261 1.404 . S
C1260 C1263 1.539 . S
C1261 C1257 1.408 . S
C1261 C1260 1.404 . S
C1261 H1273 0.930 . S
C1262 C1258 1.524 . S
C1262 H1274 0.956 . S
C1262 H1275 0.961 . S
C1262 H1276 0.961 . S
C1263 C1260 1.539 . S
C1263 H1277 0.958 . S
C1263 H1278 0.961 . S
C1263 H1279 0.960 . S
H1264 C1248 0.931 . S
H1265 C1253 0.929 . S
H1266 C1254 0.960 . S
H1267 C1254 0.962 . S
H1268 C1254 0.960 . S
H1269 C1255 0.961 . S
H1270 C1255 0.961 . S
H1271 C1255 0.961 . S
H1272 C1256 0.931 . S
H1273 C1261 0.930 . S
H1274 C1262 0.956 . S
H1275 C1262 0.961 . S
H1276 C1262 0.961 . S
H1277 C1263 0.958 . S
H1278 C1263 0.961 . S
H1279 C1263 0.960 . S
C1280 C1281 1.391 . S
C1280 C1282 1.394 . S
C1280 H1296 0.931 . S
C1281 C1280 1.391 . S
C1281 C1285 1.376 . S
C1282 C1280 1.394 . S
C1282 C1283 1.369 . S
C1282 C1286 1.531 . S
C1283 C1282 1.369 . S
C1283 C1284 1.410 . S
C1283 C1291 1.503 . S
C1284 C1283 1.410 . S
C1284 C1285 1.392 . S
C1284 C1287 1.511 . S
C1285 C1281 1.376 . S
C1285 C1284 1.392 . S
C1285 H1297 0.929 . S
C1286 C1282 1.531 . S
C1286 H1298 0.960 . S
C1286 H1299 0.962 . S
C1286 H1300 0.960 . S
C1287 C1284 1.511 . S
C1287 H1301 0.961 . S
C1287 H1302 0.961 . S
C1287 H1303 0.961 . S
C1288 C1289 1.370 . S
C1288 C1290 1.363 . S
C1288 H1304 0.931 . S
C1289 C1288 1.370 . S
C1289 C1293 1.408 . S
C1290 C1288 1.363 . S
C1290 C1291 1.370 . S
C1290 C1294 1.524 . S
C1291 C1283 1.503 . S
C1291 C1290 1.370 . S
C1291 C1292 1.403 . S
C1292 C1291 1.403 . S
C1292 C1293 1.404 . S
C1292 C1295 1.539 . S
C1293 C1289 1.408 . S
C1293 C1292 1.404 . S
C1293 H1305 0.930 . S
C1294 C1290 1.524 . S
C1294 H1306 0.956 . S
C1294 H1307 0.961 . S
C1294 H1308 0.961 . S
C1295 C1292 1.539 . S
C1295 H1309 0.958 . S
C1295 H1310 0.961 . S
C1295 H1311 0.960 . S
H1296 C1280 0.931 . S
H1297 C1285 0.929 . S
H1298 C1286 0.960 . S
H1299 C1286 0.962 . S
H1300 C1286 0.960 . S
H1301 C1287 0.961 . S
H1302 C1287 0.961 . S
H1303 C1287 0.961 . S
H1304 C1288 0.931 . S
H1305 C1293 0.930 . S
H1306 C1294 0.956 . S
H1307 C1294 0.961 . S
H1308 C1294 0.961 . S
H1309 C1295 0.958 . S
H1310 C1295 0.961 . S
H1311 C1295 0.960 . S
C1312 C1313 1.391 . S
C1312 C1314 1.394 . S
C1312 H1328 0.931 . S
C1313 C1312 1.391 . S
C1313 C1317 1.376 . S
C1314 C1312 1.394 . S
C1314 C1315 1.369 . S
C1314 C1318 1.531 . S
C1315 C1314 1.369 . S
C1315 C1316 1.410 . S
C1315 C1323 1.503 . S
C1316 C1315 1.410 . S
C1316 C1317 1.392 . S
C1316 C1319 1.511 . S
C1317 C1313 1.376 . S
C1317 C1316 1.392 . S
C1317 H1329 0.929 . S
C1318 C1314 1.531 . S
C1318 H1330 0.960 . S
C1318 H1331 0.962 . S
C1318 H1332 0.960 . S
C1319 C1316 1.511 . S
C1319 H1333 0.961 . S
C1319 H1334 0.961 . S
C1319 H1335 0.961 . S
C1320 C1321 1.370 . S
C1320 C1322 1.363 . S
C1320 H1336 0.931 . S
C1321 C1320 1.370 . S
C1321 C1325 1.408 . S
C1322 C1320 1.363 . S
C1322 C1323 1.370 . S
C1322 C1326 1.524 . S
C1323 C1315 1.503 . S
C1323 C1322 1.370 . S
C1323 C1324 1.403 . S
C1324 C1323 1.403 . S
C1324 C1325 1.404 . S
C1324 C1327 1.539 . S
C1325 C1321 1.408 . S
C1325 C1324 1.404 . S
C1325 H1337 0.930 . S
C1326 C1322 1.524 . S
C1326 H1338 0.956 . S
C1326 H1339 0.961 . S
C1326 H1340 0.961 . S
C1327 C1324 1.539 . S
C1327 H1341 0.958 . S
C1327 H1342 0.961 . S
C1327 H1343 0.960 . S
H1328 C1312 0.931 . S
H1329 C1317 0.929 . S
H1330 C1318 0.960 . S
H1331 C1318 0.962 . S
H1332 C1318 0.960 . S
H1333 C1319 0.961 . S
H1334 C1319 0.961 . S
H1335 C1319 0.961 . S
H1336 C1320 0.931 . S
H1337 C1325 0.930 . S
H1338 C1326 0.956 . S
H1339 C1326 0.961 . S
H1340 C1326 0.961 . S
H1341 C1327 0.958 . S
H1342 C1327 0.961 . S
H1343 C1327 0.960 . S
C1344 C1345 1.391 . S
C1344 C1346 1.394 . S
C1344 H1360 0.931 . S
C1345 C1344 1.391 . S
C1345 C1349 1.376 . S
C1346 C1344 1.394 . S
C1346 C1347 1.369 . S
C1346 C1350 1.531 . S
C1347 C1346 1.369 . S
C1347 C1348 1.410 . S
C1347 C1355 1.503 . S
C1348 C1347 1.410 . S
C1348 C1349 1.392 . S
C1348 C1351 1.511 . S
C1349 C1345 1.376 . S
C1349 C1348 1.392 . S
C1349 H1361 0.929 . S
C1350 C1346 1.531 . S
C1350 H1362 0.960 . S
C1350 H1363 0.962 . S
C1350 H1364 0.960 . S
C1351 C1348 1.511 . S
C1351 H1365 0.961 . S
C1351 H1366 0.961 . S
C1351 H1367 0.961 . S
C1352 C1353 1.370 . S
C1352 C1354 1.363 . S
C1352 H1368 0.931 . S
C1353 C1352 1.370 . S
C1353 C1357 1.408 . S
C1354 C1352 1.363 . S
C1354 C1355 1.370 . S
C1354 C1358 1.524 . S
C1355 C1347 1.503 . S
C1355 C1354 1.370 . S
C1355 C1356 1.403 . S
C1356 C1355 1.403 . S
C1356 C1357 1.404 . S
C1356 C1359 1.539 . S
C1357 C1353 1.408 . S
C1357 C1356 1.404 . S
C1357 H1369 0.930 . S
C1358 C1354 1.524 . S
C1358 H1370 0.956 . S
C1358 H1371 0.961 . S
C1358 H1372 0.961 . S
C1359 C1356 1.539 . S
C1359 H1373 0.958 . S
C1359 H1374 0.961 . S
C1359 H1375 0.960 . S
H1360 C1344 0.931 . S
H1361 C1349 0.929 . S
H1362 C1350 0.960 . S
H1363 C1350 0.962 . S
H1364 C1350 0.960 . S
H1365 C1351 0.961 . S
H1366 C1351 0.961 . S
H1367 C1351 0.961 . S
H1368 C1352 0.931 . S
H1369 C1357 0.930 . S
H1370 C1358 0.956 . S
H1371 C1358 0.961 . S
H1372 C1358 0.961 . S
H1373 C1359 0.958 . S
H1374 C1359 0.961 . S
H1375 C1359 0.960 . S
C1376 C1377 1.391 . S
C1376 C1378 1.394 . S
C1376 H1392 0.931 . S
C1377 C1376 1.391 . S
C1377 C1381 1.376 . S
C1378 C1376 1.394 . S
C1378 C1379 1.369 . S
C1378 C1382 1.531 . S
C1379 C1378 1.369 . S
C1379 C1380 1.410 . S
C1379 C1387 1.503 . S
C1380 C1379 1.410 . S
C1380 C1381 1.392 . S
C1380 C1383 1.511 . S
C1381 C1377 1.376 . S
C1381 C1380 1.392 . S
C1381 H1393 0.929 . S
C1382 C1378 1.531 . S
C1382 H1394 0.960 . S
C1382 H1395 0.962 . S
C1382 H1396 0.960 . S
C1383 C1380 1.511 . S
C1383 H1397 0.961 . S
C1383 H1398 0.961 . S
C1383 H1399 0.961 . S
C1384 C1385 1.370 . S
C1384 C1386 1.363 . S
C1384 H1400 0.931 . S
C1385 C1384 1.370 . S
C1385 C1389 1.408 . S
C1386 C1384 1.363 . S
C1386 C1387 1.370 . S
C1386 C1390 1.524 . S
C1387 C1379 1.503 . S
C1387 C1386 1.370 . S
C1387 C1388 1.403 . S
C1388 C1387 1.403 . S
C1388 C1389 1.404 . S
C1388 C1391 1.539 . S
C1389 C1385 1.408 . S
C1389 C1388 1.404 . S
C1389 H1401 0.930 . S
C1390 C1386 1.524 . S
C1390 H1402 0.956 . S
C1390 H1403 0.961 . S
C1390 H1404 0.961 . S
C1391 C1388 1.539 . S
C1391 H1405 0.958 . S
C1391 H1406 0.961 . S
C1391 H1407 0.960 . S
H1392 C1376 0.931 . S
H1393 C1381 0.929 . S
H1394 C1382 0.960 . S
H1395 C1382 0.962 . S
H1396 C1382 0.960 . S
H1397 C1383 0.961 . S
H1398 C1383 0.961 . S
H1399 C1383 0.961 . S
H1400 C1384 0.931 . S
H1401 C1389 0.930 . S
H1402 C1390 0.956 . S
H1403 C1390 0.961 . S
H1404 C1390 0.961 . S
H1405 C1391 0.958 . S
H1406 C1391 0.961 . S
H1407 C1391 0.960 . S
C1408 C1409 1.391 . S
C1408 C1410 1.394 . S
C1408 H1424 0.931 . S
C1409 C1408 1.391 . S
C1409 C1413 1.376 . S
C1410 C1408 1.394 . S
C1410 C1411 1.369 . S
C1410 C1414 1.531 . S
C1411 C1410 1.369 . S
C1411 C1412 1.410 . S
C1411 C1419 1.503 . S
C1412 C1411 1.410 . S
C1412 C1413 1.392 . S
C1412 C1415 1.511 . S
C1413 C1409 1.376 . S
C1413 C1412 1.392 . S
C1413 H1425 0.929 . S
C1414 C1410 1.531 . S
C1414 H1426 0.960 . S
C1414 H1427 0.962 . S
C1414 H1428 0.960 . S
C1415 C1412 1.511 . S
C1415 H1429 0.961 . S
C1415 H1430 0.961 . S
C1415 H1431 0.961 . S
C1416 C1417 1.370 . S
C1416 C1418 1.363 . S
C1416 H1432 0.931 . S
C1417 C1416 1.370 . S
C1417 C1421 1.408 . S
C1418 C1416 1.363 . S
C1418 C1419 1.370 . S
C1418 C1422 1.524 . S
C1419 C1411 1.503 . S
C1419 C1418 1.370 . S
C1419 C1420 1.403 . S
C1420 C1419 1.403 . S
C1420 C1421 1.404 . S
C1420 C1423 1.539 . S
C1421 C1417 1.408 . S
C1421 C1420 1.404 . S
C1421 H1433 0.930 . S
C1422 C1418 1.524 . S
C1422 H1434 0.956 . S
C1422 H1435 0.961 . S
C1422 H1436 0.961 . S
C1423 C1420 1.539 . S
C1423 H1437 0.958 . S
C1423 H1438 0.961 . S
C1423 H1439 0.960 . S
H1424 C1408 0.931 . S
H1425 C1413 0.929 . S
H1426 C1414 0.960 . S
H1427 C1414 0.962 . S
H1428 C1414 0.960 . S
H1429 C1415 0.961 . S
H1430 C1415 0.961 . S
H1431 C1415 0.961 . S
H1432 C1416 0.931 . S
H1433 C1421 0.930 . S
H1434 C1422 0.956 . S
H1435 C1422 0.961 . S
H1436 C1422 0.961 . S
H1437 C1423 0.958 . S
H1438 C1423 0.961 . S
H1439 C1423 0.960 . S
C1440 C1441 1.391 . S
C1440 C1442 1.394 . S
C1440 H1456 0.931 . S
C1441 C1440 1.391 . S
C1441 C1445 1.376 . S
C1442 C1440 1.394 . S
C1442 C1443 1.369 . S
C1442 C1446 1.531 . S
C1443 C1442 1.369 . S
C1443 C1444 1.411 . S
C1443 C1451 1.503 1_655 S
C1444 C1443 1.411 . S
C1444 C1445 1.411 . S
C1444 C1447 1.493 1_655 S
C1445 C1441 1.376 . S
C1445 C1444 1.411 . S
C1445 H1457 0.929 . S
C1446 C1442 1.531 . S
C1446 H1458 0.941 1_655 S
C1446 H1459 0.962 . S
C1446 H1460 0.960 . S
C1447 C1444 1.493 1_455 S
C1447 H1461 0.961 . S
C1447 H1462 0.961 . S
C1447 H1463 0.961 . S
C1448 C1449 1.370 . S
C1448 C1450 1.363 1_455 S
C1448 H1464 0.931 1_455 S
C1449 C1448 1.370 . S
C1449 C1453 1.408 . S
C1450 C1448 1.363 1_655 S
C1450 C1451 1.370 1_655 S
C1450 C1454 1.524 . S
C1451 C1443 1.503 1_455 S
C1451 C1450 1.370 1_455 S
C1451 C1452 1.403 . S
C1452 C1451 1.403 . S
C1452 C1453 1.404 . S
C1452 C1455 1.539 . S
C1453 C1449 1.408 . S
C1453 C1452 1.404 . S
C1453 H1465 0.930 . S
C1454 C1450 1.524 . S
C1454 H1466 0.956 . S
C1454 H1467 0.961 . S
C1454 H1468 0.961 . S
C1455 C1452 1.539 . S
C1455 H1469 0.958 . S
C1455 H1470 0.961 . S
C1455 H1471 0.960 . S
H1456 C1440 0.931 . S
H1457 C1445 0.929 . S
H1458 C1446 0.941 1_455 S
H1459 C1446 0.962 . S
H1460 C1446 0.960 . S
H1461 C1447 0.961 . S
H1462 C1447 0.961 . S
H1463 C1447 0.961 . S
H1464 C1448 0.931 1_655 S
H1465 C1453 0.930 . S
H1466 C1454 0.956 . S
H1467 C1454 0.961 . S
H1468 C1454 0.961 . S
H1469 C1455 0.958 . S
H1470 C1455 0.961 . S
H1471 C1455 0.960 . S
C1472 C1473 1.391 . S
C1472 C1474 1.394 . S
C1472 H1488 0.931 . S
C1473 C1472 1.391 . S
C1473 C1477 1.376 . S
C1474 C1472 1.394 . S
C1474 C1475 1.369 . S
C1474 C1478 1.531 . S
C1475 C1474 1.369 . S
C1475 C1476 1.410 1_565 S
C1475 C1483 1.503 1_565 S
C1476 C1475 1.410 1_545 S
C1476 C1477 1.392 1_545 S
C1476 C1479 1.511 . S
C1477 C1473 1.376 . S
C1477 C1476 1.392 1_565 S
C1477 H1489 0.929 . S
C1478 C1474 1.531 . S
C1478 H1490 0.960 . S
C1478 H1491 0.962 . S
C1478 H1492 0.960 . S
C1479 C1476 1.511 . S
C1479 H1493 0.961 . S
C1479 H1494 0.961 . S
C1479 H1495 0.961 . S
C1480 C1481 1.370 . S
C1480 C1482 1.363 1_545 S
C1480 H1496 0.933 . S
C1481 C1480 1.370 . S
C1481 C1485 1.408 . S
C1482 C1480 1.363 1_565 S
C1482 C1483 1.370 1_565 S
C1482 C1486 1.524 . S
C1483 C1475 1.503 1_545 S
C1483 C1482 1.370 1_545 S
C1483 C1484 1.403 . S
C1484 C1483 1.403 . S
C1484 C1485 1.404 . S
C1484 C1487 1.539 . S
C1485 C1481 1.408 . S
C1485 C1484 1.404 . S
C1485 H1497 0.930 . S
C1486 C1482 1.524 . S
C1486 H1498 0.956 . S
C1486 H1499 0.961 . S
C1486 H1500 0.961 . S
C1487 C1484 1.539 . S
C1487 H1501 0.958 . S
C1487 H1502 0.961 . S
C1487 H1503 0.960 . S
H1488 C1472 0.931 . S
H1489 C1477 0.929 . S
H1490 C1478 0.960 . S
H1491 C1478 0.962 . S
H1492 C1478 0.960 . S
H1493 C1479 0.961 . S
H1494 C1479 0.961 . S
H1495 C1479 0.961 . S
H1496 C1480 0.933 . S
H1497 C1485 0.930 . S
H1498 C1486 0.956 . S
H1499 C1486 0.961 . S
H1500 C1486 0.961 . S
H1501 C1487 0.958 . S
H1502 C1487 0.961 . S
H1503 C1487 0.960 . S
C1504 C1505 1.391 . S
C1504 C1506 1.394 . S
C1504 H1520 0.931 . S
C1505 C1504 1.391 . S
C1505 C1509 1.376 . S
C1506 C1504 1.394 . S
C1506 C1507 1.369 . S
C1506 C1510 1.531 . S
C1507 C1506 1.369 . S
C1507 C1508 1.410 1_655 S
C1507 C1515 1.503 1_655 S
C1508 C1507 1.410 1_455 S
C1508 C1509 1.392 1_455 S
C1508 C1511 1.511 . S
C1509 C1505 1.376 . S
C1509 C1508 1.392 1_655 S
C1509 H1521 0.928 . S
C1510 C1506 1.531 . S
C1510 H1522 0.960 . S
C1510 H1523 0.962 . S
C1510 H1524 0.960 . S
C1511 C1508 1.511 . S
C1511 H1525 0.961 . S
C1511 H1526 0.961 . S
C1511 H1527 0.961 . S
C1512 C1513 1.370 . S
C1512 C1514 1.363 . S
C1512 H1528 0.931 . S
C1513 C1512 1.370 . S
C1513 C1517 1.408 . S
C1514 C1512 1.363 . S
C1514 C1515 1.370 . S
C1514 C1518 1.524 1_455 S
C1515 C1507 1.503 1_455 S
C1515 C1514 1.370 . S
C1515 C1516 1.403 . S
C1516 C1515 1.403 . S
C1516 C1517 1.404 . S
C1516 C1519 1.539 . S
C1517 C1513 1.408 . S
C1517 C1516 1.404 . S
C1517 H1529 0.930 . S
C1518 C1514 1.524 1_655 S
C1518 H1530 0.956 . S
C1518 H1531 0.961 . S
C1518 H1532 0.961 . S
C1519 C1516 1.539 . S
C1519 H1533 0.958 . S
C1519 H1534 0.961 . S
C1519 H1535 0.960 . S
H1520 C1504 0.931 . S
H1521 C1509 0.928 . S
H1522 C1510 0.960 . S
H1523 C1510 0.962 . S
H1524 C1510 0.960 . S
H1525 C1511 0.961 . S
H1526 C1511 0.961 . S
H1527 C1511 0.961 . S
H1528 C1512 0.931 . S
H1529 C1517 0.930 . S
H1530 C1518 0.956 . S
H1531 C1518 0.961 . S
H1532 C1518 0.961 . S
H1533 C1519 0.958 . S
H1534 C1519 0.961 . S
H1535 C1519 0.960 . S
C1536 C1537 1.391 . S
C1536 C1538 1.394 . S
C1536 H1552 0.931 . S
C1537 C1536 1.391 . S
C1537 C1541 1.376 . S
C1538 C1536 1.394 . S
C1538 C1539 1.369 . S
C1538 C1542 1.531 . S
C1539 C1538 1.369 . S
C1539 C1540 1.410 1_545 S
C1539 C1547 1.503 1_545 S
C1540 C1539 1.410 1_565 S
C1540 C1541 1.392 1_565 S
C1540 C1543 1.511 . S
C1541 C1537 1.376 . S
C1541 C1540 1.392 1_545 S
C1541 H1553 0.929 . S
C1542 C1538 1.531 . S
C1542 H1554 0.960 . S
C1542 H1555 0.962 . S
C1542 H1556 0.960 . S
C1543 C1540 1.511 . S
C1543 H1557 0.961 . S
C1543 H1558 0.961 . S
C1543 H1559 0.961 . S
C1544 C1545 1.370 . S
C1544 C1546 1.363 . S
C1544 H1560 0.931 . S
C1545 C1544 1.370 . S
C1545 C1549 1.408 . S
C1546 C1544 1.363 . S
C1546 C1547 1.370 . S
C1546 C1550 1.524 . S
C1547 C1539 1.503 1_565 S
C1547 C1546 1.370 . S
C1547 C1548 1.395 1_565 S
C1548 C1547 1.395 1_545 S
C1548 C1549 1.383 1_545 S
C1548 C1551 1.566 . S
C1549 C1545 1.408 . S
C1549 C1548 1.383 1_565 S
C1549 H1561 0.930 . S
C1550 C1546 1.524 . S
C1550 H1562 0.956 . S
C1550 H1563 0.961 . S
C1550 H1564 0.961 . S
C1551 C1548 1.566 . S
C1551 H1565 0.958 . S
C1551 H1566 0.961 . S
C1551 H1567 0.960 . S
H1552 C1536 0.931 . S
H1553 C1541 0.929 . S
H1554 C1542 0.960 . S
H1555 C1542 0.962 . S
H1556 C1542 0.960 . S
H1557 C1543 0.961 . S
H1558 C1543 0.961 . S
H1559 C1543 0.961 . S
H1560 C1544 0.931 . S
H1561 C1549 0.930 . S
H1562 C1550 0.956 . S
H1563 C1550 0.961 . S
H1564 C1550 0.961 . S
H1565 C1551 0.958 . S
H1566 C1551 0.961 . S
H1567 C1551 0.960 . S
C1568 C1569 1.391 . S
C1568 C1570 1.394 . S
C1568 H1584 0.931 . S
C1569 C1568 1.391 . S
C1569 C1573 1.376 . S
C1570 C1568 1.394 . S
C1570 C1571 1.369 . S
C1570 C1574 1.531 . S
C1571 C1570 1.369 . S
C1571 C1572 1.410 1_455 S
C1571 C1579 1.503 1_455 S
C1572 C1571 1.410 1_655 S
C1572 C1573 1.392 1_655 S
C1572 C1575 1.511 . S
C1573 C1569 1.376 . S
C1573 C1572 1.392 1_455 S
C1573 H1585 0.929 1_455 S
C1574 C1570 1.531 . S
C1574 H1586 0.960 . S
C1574 H1587 0.962 . S
C1574 H1588 0.960 . S
C1575 C1572 1.511 . S
C1575 H1589 0.961 . S
C1575 H1590 0.961 . S
C1575 H1591 0.961 . S
C1576 C1577 1.370 . S
C1576 C1578 1.363 . S
C1576 H1592 0.931 . S
C1577 C1576 1.370 . S
C1577 C1581 1.408 . S
C1578 C1576 1.363 . S
C1578 C1579 1.370 . S
C1578 C1582 1.524 . S
C1579 C1571 1.503 1_655 S
C1579 C1578 1.370 . S
C1579 C1580 1.403 . S
C1580 C1579 1.403 . S
C1580 C1581 1.404 . S
C1580 C1583 1.539 . S
C1581 C1577 1.408 . S
C1581 C1580 1.404 . S
C1581 H1593 0.930 . S
C1582 C1578 1.524 . S
C1582 H1594 0.956 1_655 S
C1582 H1595 0.961 . S
C1582 H1596 0.961 . S
C1583 C1580 1.539 . S
C1583 H1597 0.958 1_655 S
C1583 H1598 0.961 . S
C1583 H1599 0.960 . S
H1584 C1568 0.931 . S
H1585 C1573 0.929 1_655 S
H1586 C1574 0.960 . S
H1587 C1574 0.962 . S
H1588 C1574 0.960 . S
H1589 C1575 0.961 . S
H1590 C1575 0.961 . S
H1591 C1575 0.961 . S
H1592 C1576 0.931 . S
H1593 C1581 0.930 . S
H1594 C1582 0.956 1_455 S
H1595 C1582 0.961 . S
H1596 C1582 0.961 . S
H1597 C1583 0.958 1_455 S
H1598 C1583 0.961 . S
H1599 C1583 0.960 . S
C1600 C1601 1.391 . S
C1600 C1602 1.394 . S
C1600 H1616 0.931 . S
C1601 C1600 1.391 . S
C1601 C1605 1.376 . S
C1602 C1600 1.394 . S
C1602 C1603 1.369 . S
C1602 C1606 1.531 . S
C1603 C1602 1.369 . S
C1603 C1604 1.410 . S
C1603 C1611 1.503 1_565 S
C1604 C1603 1.410 . S
C1604 C1605 1.392 . S
C1604 C1607 1.511 1_565 S
C1605 C1601 1.376 . S
C1605 C1604 1.392 . S
C1605 H1617 0.929 . S
C1606 C1602 1.531 . S
C1606 H1618 0.960 1_565 S
C1606 H1619 0.962 . S
C1606 H1620 0.960 . S
C1607 C1604 1.511 1_545 S
C1607 H1621 0.961 . S
C1607 H1622 0.961 . S
C1607 H1623 0.961 . S
C1608 C1609 1.370 . S
C1608 C1610 1.363 1_545 S
C1608 H1624 0.931 1_545 S
C1609 C1608 1.370 . S
C1609 C1613 1.408 . S
C1610 C1608 1.363 1_565 S
C1610 C1611 1.370 1_565 S
C1610 C1614 1.524 . S
C1611 C1603 1.503 1_545 S
C1611 C1610 1.370 1_545 S
C1611 C1612 1.403 . S
C1612 C1611 1.403 . S
C1612 C1613 1.404 . S
C1612 C1615 1.539 . S
C1613 C1609 1.408 . S
C1613 C1612 1.404 . S
C1613 H1625 0.930 . S
C1614 C1610 1.524 . S
C1614 H1626 0.956 . S
C1614 H1627 0.961 . S
C1614 H1628 0.961 . S
C1615 C1612 1.539 . S
C1615 H1629 0.958 . S
C1615 H1630 0.961 . S
C1615 H1631 0.960 . S
H1616 C1600 0.931 . S
H1617 C1605 0.929 . S
H1618 C1606 0.960 1_545 S
H1619 C1606 0.962 . S
H1620 C1606 0.960 . S
H1621 C1607 0.961 . S
H1622 C1607 0.961 . S
H1623 C1607 0.961 . S
H1624 C1608 0.931 1_565 S
H1625 C1613 0.930 . S
H1626 C1614 0.956 . S
H1627 C1614 0.961 . S
H1628 C1614 0.961 . S
H1629 C1615 0.958 . S
H1630 C1615 0.961 . S
H1631 C1615 0.960 . S
C1632 C1633 1.391 . S
C1632 C1634 1.394 . S
C1632 H1648 0.931 . S
C1633 C1632 1.391 . S
C1633 C1637 1.376 . S
C1634 C1632 1.394 . S
C1634 C1635 1.369 . S
C1634 C1638 1.531 . S
C1635 C1634 1.369 . S
C1635 C1636 1.410 . S
C1635 C1643 1.503 1_455 S
C1636 C1635 1.410 . S
C1636 C1637 1.392 . S
C1636 C1639 1.511 1_455 S
C1637 C1633 1.376 . S
C1637 C1636 1.392 . S
C1637 H1649 0.929 . S
C1638 C1634 1.531 . S
C1638 H1650 0.960 1_455 S
C1638 H1651 0.962 . S
C1638 H1652 0.960 . S
C1639 C1636 1.511 1_655 S
C1639 H1653 0.961 . S
C1639 H1654 0.961 . S
C1639 H1655 0.961 . S
C1640 C1641 1.370 . S
C1640 C1642 1.363 1_655 S
C1640 H1656 0.931 1_655 S
C1641 C1640 1.370 . S
C1641 C1645 1.408 . S
C1642 C1640 1.363 1_455 S
C1642 C1643 1.370 1_455 S
C1642 C1646 1.524 . S
C1643 C1635 1.503 1_655 S
C1643 C1642 1.370 1_655 S
C1643 C1644 1.403 . S
C1644 C1643 1.403 . S
C1644 C1645 1.404 . S
C1644 C1647 1.539 . S
C1645 C1641 1.408 . S
C1645 C1644 1.404 . S
C1645 H1657 0.930 . S
C1646 C1642 1.524 . S
C1646 H1658 0.956 . S
C1646 H1659 0.961 . S
C1646 H1660 0.961 . S
C1647 C1644 1.539 . S
C1647 H1661 0.958 . S
C1647 H1662 0.961 . S
C1647 H1663 0.960 . S
H1648 C1632 0.931 . S
H1649 C1637 0.929 . S
H1650 C1638 0.960 1_655 S
H1651 C1638 0.962 . S
H1652 C1638 0.960 . S
H1653 C1639 0.961 . S
H1654 C1639 0.961 . S
H1655 C1639 0.961 . S
H1656 C1640 0.931 1_455 S
H1657 C1645 0.930 . S
H1658 C1646 0.956 . S
H1659 C1646 0.961 . S
H1660 C1646 0.961 . S
H1661 C1647 0.958 . S
H1662 C1647 0.961 . S
H1663 C1647 0.960 . S
C1664 C1665 1.391 . S
C1664 C1666 1.394 . S
C1664 H1680 0.931 . S
C1665 C1664 1.391 . S
C1665 C1669 1.376 . S
C1666 C1664 1.394 . S
C1666 C1667 1.369 . S
C1666 C1670 1.531 1_545 S
C1667 C1666 1.369 . S
C1667 C1668 1.410 . S
C1667 C1675 1.503 1_545 S
C1668 C1667 1.410 . S
C1668 C1669 1.392 . S
C1668 C1671 1.511 . S
C1669 C1665 1.376 . S
C1669 C1668 1.392 . S
C1669 H1681 0.929 . S
C1670 C1666 1.531 1_565 S
C1670 H1682 0.960 . S
C1670 H1683 0.938 1_565 S
C1670 H1684 0.960 . S
C1671 C1668 1.511 . S
C1671 H1685 0.961 . S
C1671 H1686 0.961 . S
C1671 H1687 0.961 1_545 S
C1672 C1673 1.370 . S
C1672 C1674 1.363 1_565 S
C1672 H1688 0.931 1_565 S
C1673 C1672 1.370 . S
C1673 C1677 1.408 . S
C1674 C1672 1.363 1_545 S
C1674 C1675 1.370 1_545 S
C1674 C1678 1.524 . S
C1675 C1667 1.503 1_565 S
C1675 C1674 1.370 1_565 S
C1675 C1676 1.403 . S
C1676 C1675 1.403 . S
C1676 C1677 1.404 . S
C1676 C1679 1.539 . S
C1677 C1673 1.408 . S
C1677 C1676 1.404 . S
C1677 H1689 0.930 . S
C1678 C1674 1.524 . S
C1678 H1690 0.956 . S
C1678 H1691 0.961 . S
C1678 H1692 0.961 . S
C1679 C1676 1.539 . S
C1679 H1693 0.958 . S
C1679 H1694 0.961 . S
C1679 H1695 0.960 . S
H1680 C1664 0.931 . S
H1681 C1669 0.929 . S
H1682 C1670 0.960 . S
H1683 C1670 0.938 1_545 S
H1684 C1670 0.960 . S
H1685 C1671 0.961 . S
H1686 C1671 0.961 . S
H1687 C1671 0.961 1_565 S
H1688 C1672 0.931 1_545 S
H1689 C1677 0.930 . S
H1690 C1678 0.956 . S
H1691 C1678 0.961 . S
H1692 C1678 0.961 . S
H1693 C1679 0.958 . S
H1694 C1679 0.961 . S
H1695 C1679 0.960 . S
C1696 C1697 1.391 . S
C1696 C1698 1.394 . S
C1696 H1712 0.931 . S
C1697 C1696 1.391 . S
C1697 C1701 1.376 . S
C1698 C1696 1.394 . S
C1698 C1699 1.380 . S
C1698 C1702 1.531 1_556 S
C1699 C1698 1.380 . S
C1699 C1700 1.427 . S
C1699 C1707 1.482 1_556 S
C1700 C1699 1.427 . S
C1700 C1701 1.392 . S
C1700 C1703 1.511 . S
C1701 C1697 1.376 . S
C1701 C1700 1.392 . S
C1701 H1713 0.929 . S
C1702 C1698 1.531 1_554 S
C1702 H1714 0.960 . S
C1702 H1715 0.962 1_554 S
C1702 H1716 0.960 . S
C1703 C1700 1.511 . S
C1703 H1717 0.961 . S
C1703 H1718 0.961 . S
C1703 H1719 0.961 1_556 S
C1704 C1705 1.370 . S
C1704 C1706 1.363 1_554 S
C1704 H1720 0.931 1_554 S
C1705 C1704 1.370 . S
C1705 C1709 1.408 . S
C1706 C1704 1.363 1_556 S
C1706 C1707 1.370 1_556 S
C1706 C1710 1.524 . S
C1707 C1699 1.482 1_554 S
C1707 C1706 1.370 1_554 S
C1707 C1708 1.403 . S
C1708 C1707 1.403 . S
C1708 C1709 1.404 . S
C1708 C1711 1.539 . S
C1709 C1705 1.408 . S
C1709 C1708 1.404 . S
C1709 H1721 0.930 . S
C1710 C1706 1.524 . S
C1710 H1722 0.956 . S
C1710 H1723 0.961 . S
C1710 H1724 0.961 . S
C1711 C1708 1.539 . S
C1711 H1725 0.958 . S
C1711 H1726 0.961 . S
C1711 H1727 0.960 . S
H1712 C1696 0.931 . S
H1713 C1701 0.929 . S
H1714 C1702 0.960 . S
H1715 C1702 0.962 1_556 S
H1716 C1702 0.960 . S
H1717 C1703 0.961 . S
H1718 C1703 0.961 . S
H1719 C1703 0.961 1_554 S
H1720 C1704 0.931 1_556 S
H1721 C1709 0.930 . S
H1722 C1710 0.956 . S
H1723 C1710 0.961 . S
H1724 C1710 0.961 . S
H1725 C1711 0.958 . S
H1726 C1711 0.961 . S
H1727 C1711 0.960 . S
C1728 C1729 1.391 . S
C1728 C1730 1.394 . S
C1728 H1744 0.931 . S
C1729 C1728 1.391 . S
C1729 C1733 1.376 . S
C1730 C1728 1.394 . S
C1730 C1731 1.369 . S
C1730 C1734 1.531 . S
C1731 C1730 1.369 . S
C1731 C1732 1.410 . S
C1731 C1739 1.503 1_554 S
C1732 C1731 1.410 . S
C1732 C1733 1.392 . S
C1732 C1735 1.511 1_554 S
C1733 C1729 1.376 . S
C1733 C1732 1.392 . S
C1733 H1745 0.929 . S
C1734 C1730 1.531 . S
C1734 H1746 0.960 1_554 S
C1734 H1747 0.962 . S
C1734 H1748 0.960 . S
C1735 C1732 1.511 1_556 S
C1735 H1749 0.961 1_556 S
C1735 H1750 0.961 . S
C1735 H1751 0.961 . S
C1736 C1737 1.370 . S
C1736 C1738 1.363 1_556 S
C1736 H1752 0.931 1_556 S
C1737 C1736 1.370 . S
C1737 C1741 1.408 . S
C1738 C1736 1.363 1_554 S
C1738 C1739 1.370 1_554 S
C1738 C1742 1.524 . S
C1739 C1731 1.503 1_556 S
C1739 C1738 1.370 1_556 S
C1739 C1740 1.403 . S
C1740 C1739 1.403 . S
C1740 C1741 1.404 . S
C1740 C1743 1.539 . S
C1741 C1737 1.408 . S
C1741 C1740 1.404 . S
C1741 H1753 0.930 . S
C1742 C1738 1.524 . S
C1742 H1754 0.956 . S
C1742 H1755 0.961 . S
C1742 H1756 0.961 . S
C1743 C1740 1.539 . S
C1743 H1757 0.958 . S
C1743 H1758 0.961 . S
C1743 H1759 0.960 . S
H1744 C1728 0.931 . S
H1745 C1733 0.929 . S
H1746 C1734 0.960 1_556 S
H1747 C1734 0.962 . S
H1748 C1734 0.960 . S
H1749 C1735 0.961 1_554 S
H1750 C1735 0.961 . S
H1751 C1735 0.961 . S
H1752 C1736 0.931 1_554 S
H1753 C1741 0.930 . S
H1754 C1742 0.956 . S
H1755 C1742 0.961 . S
H1756 C1742 0.961 . S
H1757 C1743 0.958 . S
H1758 C1743 0.961 . S
H1759 C1743 0.960 . S
C1760 C1761 1.391 . S
C1760 C1762 1.394 . S
C1760 H1776 0.931 . S
C1761 C1760 1.391 . S
C1761 C1765 1.376 . S
C1762 C1760 1.394 . S
C1762 C1763 1.369 . S
C1762 C1766 1.531 1_554 S
C1763 C1762 1.369 . S
C1763 C1764 1.410 . S
C1763 C1771 1.503 1_554 S
C1764 C1763 1.410 . S
C1764 C1765 1.392 . S
C1764 C1767 1.511 . S
C1765 C1761 1.376 . S
C1765 C1764 1.392 . S
C1765 H1777 0.929 . S
C1766 C1762 1.531 1_556 S
C1766 H1778 0.960 . S
C1766 H1779 0.962 . S
C1766 H1780 0.960 1_556 S
C1767 C1764 1.511 . S
C1767 H1781 0.961 . S
C1767 H1782 0.961 . S
C1767 H1783 0.961 . S
C1768 C1769 1.370 . S
C1768 C1770 1.363 . S
C1768 H1784 0.931 . S
C1769 C1768 1.370 . S
C1769 C1773 1.408 . S
C1770 C1768 1.363 . S
C1770 C1771 1.370 . S
C1770 C1774 1.524 . S
C1771 C1763 1.503 1_556 S
C1771 C1770 1.370 . S
C1771 C1772 1.403 1_556 S
C1772 C1771 1.403 1_554 S
C1772 C1773 1.404 1_554 S
C1772 C1775 1.539 . S
C1773 C1769 1.408 . S
C1773 C1772 1.404 1_556 S
C1773 H1785 0.930 1_556 S
C1774 C1770 1.524 . S
C1774 H1786 0.956 . S
C1774 H1787 0.961 . S
C1774 H1788 0.961 . S
C1775 C1772 1.539 . S
C1775 H1789 0.958 . S
C1775 H1790 0.961 . S
C1775 H1791 0.960 . S
H1776 C1760 0.931 . S
H1777 C1765 0.929 . S
H1778 C1766 0.960 . S
H1779 C1766 0.962 . S
H1780 C1766 0.960 1_554 S
H1781 C1767 0.961 . S
H1782 C1767 0.961 . S
H1783 C1767 0.961 . S
H1784 C1768 0.931 . S
H1785 C1773 0.930 1_554 S
H1786 C1774 0.956 . S
H1787 C1774 0.961 . S
H1788 C1774 0.961 . S
H1789 C1775 0.958 . S
H1790 C1775 0.961 . S
H1791 C1775 0.960 . S
C1792 C1793 1.391 . S
C1792 C1794 1.394 1_556 S
C1792 H1808 0.931 . S
C1793 C1792 1.391 . S
C1793 C1797 1.376 . S
C1794 C1792 1.394 1_554 S
C1794 C1795 1.369 1_554 S
C1794 C1798 1.531 . S
C1795 C1794 1.369 1_556 S
C1795 C1796 1.410 . S
C1795 C1803 1.503 1_556 S
C1796 C1795 1.410 . S
C1796 C1797 1.392 . S
C1796 C1799 1.511 . S
C1797 C1793 1.376 . S
C1797 C1796 1.392 . S
C1797 H1809 0.929 . S
C1798 C1794 1.531 . S
C1798 H1810 0.960 . S
C1798 H1811 0.962 . S
C1798 H1812 0.960 . S
C1799 C1796 1.511 . S
C1799 H1813 0.961 . S
C1799 H1814 0.961 . S
C1799 H1815 0.961 . S
C1800 C1801 1.370 . S
C1800 C1802 1.363 1_554 S
C1800 H1816 0.913 1_554 S
C1801 C1800 1.370 . S
C1801 C1805 1.408 . S
C1802 C1800 1.363 1_556 S
C1802 C1803 1.370 1_556 S
C1802 C1806 1.524 . S
C1803 C1795 1.503 1_554 S
C1803 C1802 1.370 1_554 S
C1803 C1804 1.403 . S
C1804 C1803 1.403 . S
C1804 C1805 1.404 . S
C1804 C1807 1.539 . S
C1805 C1801 1.408 . S
C1805 C1804 1.404 . S
C1805 H1817 0.930 . S
C1806 C1802 1.524 . S
C1806 H1818 0.956 . S
C1806 H1819 0.961 . S
C1806 H1820 0.961 . S
C1807 C1804 1.539 . S
C1807 H1821 0.958 . S
C1807 H1822 0.961 . S
C1807 H1823 0.960 . S
H1808 C1792 0.931 . S
H1809 C1797 0.929 . S
H1810 C1798 0.960 . S
H1811 C1798 0.962 . S
H1812 C1798 0.960 . S
H1813 C1799 0.961 . S
H1814 C1799 0.961 . S
H1815 C1799 0.961 . S
H1816 C1800 0.913 1_556 S
H1817 C1805 0.930 . S
H1818 C1806 0.956 . S
H1819 C1806 0.961 . S
H1820 C1806 0.961 . S
H1821 C1807 0.958 . S
H1822 C1807 0.961 . S
H1823 C1807 0.960 . S
C1824 C1825 1.391 . S
C1824 C1826 1.394 . S
C1824 H1840 0.931 . S
C1825 C1824 1.391 . S
C1825 C1829 1.376 . S
C1826 C1824 1.394 . S
C1826 C1827 1.369 . S
C1826 C1830 1.531 . S
C1827 C1826 1.369 . S
C1827 C1828 1.410 . S
C1827 C1835 1.503 . S
C1828 C1827 1.410 . S
C1828 C1829 1.392 . S
C1828 C1831 1.511 . S
C1829 C1825 1.376 . S
C1829 C1828 1.392 . S
C1829 H1841 0.929 . S
C1830 C1826 1.531 . S
C1830 H1842 0.960 . S
C1830 H1843 0.962 . S
C1830 H1844 0.960 . S
C1831 C1828 1.511 . S
C1831 H1845 0.961 . S
C1831 H1846 0.961 . S
C1831 H1847 0.961 . S
C1832 C1833 1.370 . S
C1832 C1834 1.363 . S
C1832 H1848 0.931 . S
C1833 C1832 1.370 . S
C1833 C1837 1.408 . S
C1834 C1832 1.363 . S
C1834 C1835 1.370 . S
C1834 C1838 1.524 . S
C1835 C1827 1.503 . S
C1835 C1834 1.370 . S
C1835 C1836 1.403 . S
C1836 C1835 1.403 . S
C1836 C1837 1.404 . S
C1836 C1839 1.539 . S
C1837 C1833 1.408 . S
C1837 C1836 1.404 . S
C1837 H1849 0.930 . S
C1838 C1834 1.524 . S
C1838 H1850 0.956 . S
C1838 H1851 0.961 . S
C1838 H1852 0.961 . S
C1839 C1836 1.539 . S
C1839 H1853 0.958 . S
C1839 H1854 0.961 . S
C1839 H1855 0.960 . S
H1840 C1824 0.931 . S
H1841 C1829 0.929 . S
H1842 C1830 0.960 . S
H1843 C1830 0.962 . S
H1844 C1830 0.960 . S
H1845 C1831 0.961 . S
H1846 C1831 0.961 . S
H1847 C1831 0.961 . S
H1848 C1832 0.931 . S
H1849 C1837 0.930 . S
H1850 C1838 0.956 . S
H1851 C1838 0.961 . S
H1852 C1838 0.961 . S
H1853 C1839 0.958 . S
H1854 C1839 0.961 . S
H1855 C1839 0.960 . S
C1856 C1857 1.391 . S
C1856 C1858 1.394 . S
C1856 H1872 0.931 . S
C1857 C1856 1.391 . S
C1857 C1861 1.376 . S
C1858 C1856 1.394 . S
C1858 C1859 1.369 . S
C1858 C1862 1.531 . S
C1859 C1858 1.369 . S
C1859 C1860 1.410 . S
C1859 C1867 1.503 . S
C1860 C1859 1.410 . S
C1860 C1861 1.392 . S
C1860 C1863 1.511 . S
C1861 C1857 1.376 . S
C1861 C1860 1.392 . S
C1861 H1873 0.929 . S
C1862 C1858 1.531 . S
C1862 H1874 0.960 . S
C1862 H1875 0.962 . S
C1862 H1876 0.960 . S
C1863 C1860 1.511 . S
C1863 H1877 0.961 . S
C1863 H1878 0.961 . S
C1863 H1879 0.961 . S
C1864 C1865 1.370 . S
C1864 C1866 1.363 . S
C1864 H1880 0.931 . S
C1865 C1864 1.370 . S
C1865 C1869 1.408 . S
C1866 C1864 1.363 . S
C1866 C1867 1.370 . S
C1866 C1870 1.524 . S
C1867 C1859 1.503 . S
C1867 C1866 1.370 . S
C1867 C1868 1.403 . S
C1868 C1867 1.403 . S
C1868 C1869 1.404 . S
C1868 C1871 1.539 . S
C1869 C1865 1.408 . S
C1869 C1868 1.404 . S
C1869 H1881 0.930 . S
C1870 C1866 1.524 . S
C1870 H1882 0.956 . S
C1870 H1883 0.961 . S
C1870 H1884 0.961 . S
C1871 C1868 1.539 . S
C1871 H1885 0.958 . S
C1871 H1886 0.961 . S
C1871 H1887 0.960 . S
H1872 C1856 0.931 . S
H1873 C1861 0.929 . S
H1874 C1862 0.960 . S
H1875 C1862 0.962 . S
H1876 C1862 0.960 . S
H1877 C1863 0.961 . S
H1878 C1863 0.961 . S
H1879 C1863 0.961 . S
H1880 C1864 0.931 . S
H1881 C1869 0.930 . S
H1882 C1870 0.956 . S
H1883 C1870 0.961 . S
H1884 C1870 0.961 . S
H1885 C1871 0.958 . S
H1886 C1871 0.961 . S
H1887 C1871 0.960 . S
C1888 C1889 1.391 . S
C1888 C1890 1.394 . S
C1888 H1904 0.931 . S
C1889 C1888 1.391 . S
C1889 C1893 1.376 . S
C1890 C1888 1.394 . S
C1890 C1891 1.369 . S
C1890 C1894 1.531 . S
C1891 C1890 1.369 . S
C1891 C1892 1.410 . S
C1891 C1899 1.503 . S
C1892 C1891 1.410 . S
C1892 C1893 1.392 . S
C1892 C1895 1.511 . S
C1893 C1889 1.376 . S
C1893 C1892 1.392 . S
C1893 H1905 0.929 . S
C1894 C1890 1.531 . S
C1894 H1906 0.960 . S
C1894 H1907 0.962 . S
C1894 H1908 0.960 . S
C1895 C1892 1.511 . S
C1895 H1909 0.961 . S
C1895 H1910 0.961 . S
C1895 H1911 0.961 . S
C1896 C1897 1.370 . S
C1896 C1898 1.363 . S
C1896 H1912 0.931 . S
C1897 C1896 1.370 . S
C1897 C1901 1.408 . S
C1898 C1896 1.363 . S
C1898 C1899 1.370 . S
C1898 C1902 1.524 . S
C1899 C1891 1.503 . S
C1899 C1898 1.370 . S
C1899 C1900 1.403 . S
C1900 C1899 1.403 . S
C1900 C1901 1.404 . S
C1900 C1903 1.539 . S
C1901 C1897 1.408 . S
C1901 C1900 1.404 . S
C1901 H1913 0.930 . S
C1902 C1898 1.524 . S
C1902 H1914 0.956 . S
C1902 H1915 0.961 . S
C1902 H1916 0.961 . S
C1903 C1900 1.539 . S
C1903 H1917 0.958 . S
C1903 H1918 0.961 . S
C1903 H1919 0.960 . S
H1904 C1888 0.931 . S
H1905 C1893 0.929 . S
H1906 C1894 0.960 . S
H1907 C1894 0.962 . S
H1908 C1894 0.960 . S
H1909 C1895 0.961 . S
H1910 C1895 0.961 . S
H1911 C1895 0.961 . S
H1912 C1896 0.931 . S
H1913 C1901 0.930 . S
H1914 C1902 0.956 . S
H1915 C1902 0.961 . S
H1916 C1902 0.961 . S
H1917 C1903 0.958 . S
H1918 C1903 0.961 . S
H1919 C1903 0.960 . S
C1920 C1921 1.391 . S
C1920 C1922 1.394 . S
C1920 H1936 0.931 . S
C1921 C1920 1.391 . S
C1921 C1925 1.376 . S
C1922 C1920 1.394 . S
C1922 C1923 1.369 . S
C1922 C1926 1.531 . S
C1923 C1922 1.369 . S
C1923 C1924 1.410 . S
C1923 C1931 1.503 . S
C1924 C1923 1.410 . S
C1924 C1925 1.392 . S
C1924 C1927 1.511 . S
C1925 C1921 1.376 . S
C1925 C1924 1.392 . S
C1925 H1937 0.929 . S
C1926 C1922 1.531 . S
C1926 H1938 0.960 . S
C1926 H1939 0.962 . S
C1926 H1940 0.960 . S
C1927 C1924 1.511 . S
C1927 H1941 0.961 . S
C1927 H1942 0.961 . S
C1927 H1943 0.961 . S
C1928 C1929 1.370 . S
C1928 C1930 1.363 . S
C1928 H1944 0.931 . S
C1929 C1928 1.370 . S
C1929 C1933 1.408 . S
C1930 C1928 1.363 . S
C1930 C1931 1.370 . S
C1930 C1934 1.524 . S
C1931 C1923 1.503 . S
C1931 C1930 1.370 . S
C1931 C1932 1.403 . S
C1932 C1931 1.403 . S
C1932 C1933 1.404 . S
C1932 C1935 1.539 . S
C1933 C1929 1.408 . S
C1933 C1932 1.404 . S
C1933 H1945 0.930 . S
C1934 C1930 1.524 . S
C1934 H1946 0.956 . S
C1934 H1947 0.961 . S
C1934 H1948 0.961 . S
C1935 C1932 1.539 . S
C1935 H1949 0.958 . S
C1935 H1950 0.961 . S
C1935 H1951 0.960 . S
H1936 C1920 0.931 . S
H1937 C1925 0.929 . S
H1938 C1926 0.960 . S
H1939 C1926 0.962 . S
H1940 C1926 0.960 . S
H1941 C1927 0.961 . S
H1942 C1927 0.961 . S
H1943 C1927 0.961 . S
H1944 C1928 0.931 . S
H1945 C1933 0.930 . S
H1946 C1934 0.956 . S
H1947 C1934 0.961 . S
H1948 C1934 0.961 . S
H1949 C1935 0.958 . S
H1950 C1935 0.961 . S
H1951 C1935 0.960 . S
C1952 C1953 1.391 . S
C1952 C1954 1.394 . S
C1952 H1968 0.931 . S
C1953 C1952 1.391 . S
C1953 C1957 1.376 . S
C1954 C1952 1.394 . S
C1954 C1955 1.369 . S
C1954 C1958 1.531 . S
C1955 C1954 1.369 . S
C1955 C1956 1.410 . S
C1955 C1963 1.503 . S
C1956 C1955 1.410 . S
C1956 C1957 1.392 . S
C1956 C1959 1.511 . S
C1957 C1953 1.376 . S
C1957 C1956 1.392 . S
C1957 H1969 0.929 . S
C1958 C1954 1.531 . S
C1958 H1970 0.960 . S
C1958 H1971 0.962 . S
C1958 H1972 0.960 . S
C1959 C1956 1.511 . S
C1959 H1973 0.961 . S
C1959 H1974 0.961 . S
C1959 H1975 0.961 . S
C1960 C1961 1.370 . S
C1960 C1962 1.363 . S
C1960 H1976 0.931 . S
C1961 C1960 1.370 . S
C1961 C1965 1.408 . S
C1962 C1960 1.363 . S
C1962 C1963 1.370 . S
C1962 C1966 1.524 . S
C1963 C1955 1.503 . S
C1963 C1962 1.370 . S
C1963 C1964 1.403 . S
C1964 C1963 1.403 . S
C1964 C1965 1.404 . S
C1964 C1967 1.539 . S
C1965 C1961 1.408 . S
C1965 C1964 1.404 . S
C1965 H1977 0.930 . S
C1966 C1962 1.524 . S
C1966 H1978 0.956 . S
C1966 H1979 0.961 . S
C1966 H1980 0.961 . S
C1967 C1964 1.539 . S
C1967 H1981 0.958 . S
C1967 H1982 0.961 . S
C1967 H1983 0.960 . S
H1968 C1952 0.931 . S
H1969 C1957 0.929 . S
H1970 C1958 0.960 . S
H1971 C1958 0.962 . S
H1972 C1958 0.960 . S
H1973 C1959 0.961 . S
H1974 C1959 0.961 . S
H1975 C1959 0.961 . S
H1976 C1960 0.931 . S
H1977 C1965 0.930 . S
H1978 C1966 0.956 . S
H1979 C1966 0.961 . S
H1980 C1966 0.961 . S
H1981 C1967 0.958 . S
H1982 C1967 0.961 . S
H1983 C1967 0.960 . S
C1984 C1985 1.391 . S
C1984 C1986 1.394 . S
C1984 H2000 0.931 . S
C1985 C1984 1.391 . S
C1985 C1989 1.376 . S
C1986 C1984 1.394 . S
C1986 C1987 1.369 . S
C1986 C1990 1.531 . S
C1987 C1986 1.369 . S
C1987 C1988 1.410 . S
C1987 C1995 1.503 . S
C1988 C1987 1.410 . S
C1988 C1989 1.392 . S
C1988 C1991 1.511 . S
C1989 C1985 1.376 . S
C1989 C1988 1.392 . S
C1989 H2001 0.929 . S
C1990 C1986 1.531 . S
C1990 H2002 0.960 . S
C1990 H2003 0.962 . S
C1990 H2004 0.960 . S
C1991 C1988 1.511 . S
C1991 H2005 0.961 . S
C1991 H2006 0.961 . S
C1991 H2007 0.961 . S
C1992 C1993 1.370 . S
C1992 C1994 1.363 . S
C1992 H2008 0.931 . S
C1993 C1992 1.370 . S
C1993 C1997 1.408 . S
C1994 C1992 1.363 . S
C1994 C1995 1.370 . S
C1994 C1998 1.524 . S
C1995 C1987 1.503 . S
C1995 C1994 1.370 . S
C1995 C1996 1.403 . S
C1996 C1995 1.403 . S
C1996 C1997 1.404 . S
C1996 C1999 1.539 . S
C1997 C1993 1.408 . S
C1997 C1996 1.404 . S
C1997 H2009 0.930 . S
C1998 C1994 1.524 . S
C1998 H2010 0.956 . S
C1998 H2011 0.961 . S
C1998 H2012 0.961 . S
C1999 C1996 1.539 . S
C1999 H2013 0.958 . S
C1999 H2014 0.961 . S
C1999 H2015 0.960 . S
H2000 C1984 0.931 . S
H2001 C1989 0.929 . S
H2002 C1990 0.960 . S
H2003 C1990 0.962 . S
H2004 C1990 0.960 . S
H2005 C1991 0.961 . S
H2006 C1991 0.961 . S
H2007 C1991 0.961 . S
H2008 C1992 0.931 . S
H2009 C1997 0.930 . S
H2010 C1998 0.956 . S
H2011 C1998 0.961 . S
H2012 C1998 0.961 . S
H2013 C1999 0.958 . S
H2014 C1999 0.961 . S
H2015 C1999 0.960 . S
C2016 C2017 1.391 . S
C2016 C2018 1.394 . S
C2016 H2032 0.931 . S
C2017 C2016 1.391 . S
C2017 C2021 1.376 . S
C2018 C2016 1.394 . S
C2018 C2019 1.369 . S
C2018 C2022 1.531 . S
C2019 C2018 1.369 . S
C2019 C2020 1.410 . S
C2019 C2027 1.503 . S
C2020 C2019 1.410 . S
C2020 C2021 1.392 . S
C2020 C2023 1.511 . S
C2021 C2017 1.376 . S
C2021 C2020 1.392 . S
C2021 H2033 0.929 . S
C2022 C2018 1.531 . S
C2022 H2034 0.960 . S
C2022 H2035 0.962 . S
C2022 H2036 0.960 . S
C2023 C2020 1.511 . S
C2023 H2037 0.961 . S
C2023 H2038 0.961 . S
C2023 H2039 0.961 . S
C2024 C2025 1.370 . S
C2024 C2026 1.363 . S
C2024 H2040 0.931 . S
C2025 C2024 1.370 . S
C2025 C2029 1.408 . S
C2026 C2024 1.363 . S
C2026 C2027 1.370 . S
C2026 C2030 1.524 . S
C2027 C2019 1.503 . S
C2027 C2026 1.370 . S
C2027 C2028 1.403 . S
C2028 C2027 1.403 . S
C2028 C2029 1.404 . S
C2028 C2031 1.539 . S
C2029 C2025 1.408 . S
C2029 C2028 1.404 . S
C2029 H2041 0.930 . S
C2030 C2026 1.524 . S
C2030 H2042 0.956 . S
C2030 H2043 0.961 . S
C2030 H2044 0.961 . S
C2031 C2028 1.539 . S
C2031 H2045 0.958 . S
C2031 H2046 0.961 . S
C2031 H2047 0.960 . S
H2032 C2016 0.931 . S
H2033 C2021 0.929 . S
H2034 C2022 0.960 . S
H2035 C2022 0.962 . S
H2036 C2022 0.960 . S
H2037 C2023 0.961 . S
H2038 C2023 0.961 . S
H2039 C2023 0.961 . S
H2040 C2024 0.931 . S
H2041 C2029 0.930 . S
H2042 C2030 0.956 . S
H2043 C2030 0.961 . S
H2044 C2030 0.961 . S
H2045 C2031 0.958 . S
H2046 C2031 0.961 . S
H2047 C2031 0.960 . S
C2048 C2049 1.391 . S
C2048 C2050 1.394 . S
C2048 H2064 0.931 . S
C2049 C2048 1.391 . S
C2049 C2053 1.376 . S
C2050 C2048 1.394 . S
C2050 C2051 1.369 . S
C2050 C2054 1.531 . S
C2051 C2050 1.369 . S
C2051 C2052 1.410 . S
C2051 C2059 1.503 . S
C2052 C2051 1.410 . S
C2052 C2053 1.392 . S
C2052 C2055 1.511 . S
C2053 C2049 1.376 . S
C2053 C2052 1.392 . S
C2053 H2065 0.929 . S
C2054 C2050 1.531 . S
C2054 H2066 0.960 . S
C2054 H2067 0.962 . S
C2054 H2068 0.960 . S
C2055 C2052 1.511 . S
C2055 H2069 0.961 . S
C2055 H2070 0.961 . S
C2055 H2071 0.961 . S
C2056 C2057 1.370 . S
C2056 C2058 1.363 . S
C2056 H2072 0.931 . S
C2057 C2056 1.370 . S
C2057 C2061 1.408 . S
C2058 C2056 1.363 . S
C2058 C2059 1.370 . S
C2058 C2062 1.524 . S
C2059 C2051 1.503 . S
C2059 C2058 1.370 . S
C2059 C2060 1.403 . S
C2060 C2059 1.403 . S
C2060 C2061 1.404 . S
C2060 C2063 1.539 . S
C2061 C2057 1.408 . S
C2061 C2060 1.404 . S
C2061 H2073 0.930 . S
C2062 C2058 1.524 . S
C2062 H2074 0.956 . S
C2062 H2075 0.961 . S
C2062 H2076 0.961 . S
C2063 C2060 1.539 . S
C2063 H2077 0.958 . S
C2063 H2078 0.961 . S
C2063 H2079 0.960 . S
H2064 C2048 0.931 . S
H2065 C2053 0.929 . S
H2066 C2054 0.960 . S
H2067 C2054 0.962 . S
H2068 C2054 0.960 . S
H2069 C2055 0.961 . S
H2070 C2055 0.961 . S
H2071 C2055 0.961 . S
H2072 C2056 0.931 . S
H2073 C2061 0.930 . S
H2074 C2062 0.956 . S
H2075 C2062 0.961 . S
H2076 C2062 0.961 . S
H2077 C2063 0.958 . S
H2078 C2063 0.961 . S
H2079 C2063 0.960 . S
C2080 C2081 1.391 . S
C2080 C2082 1.394 . S
C2080 H2096 0.931 . S
C2081 C2080 1.391 . S
C2081 C2085 1.376 . S
C2082 C2080 1.394 . S
C2082 C2083 1.369 . S
C2082 C2086 1.531 . S
C2083 C2082 1.369 . S
C2083 C2084 1.410 . S
C2083 C2091 1.503 . S
C2084 C2083 1.410 . S
C2084 C2085 1.392 . S
C2084 C2087 1.511 . S
C2085 C2081 1.376 . S
C2085 C2084 1.392 . S
C2085 H2097 0.929 . S
C2086 C2082 1.531 . S
C2086 H2098 0.960 . S
C2086 H2099 0.962 . S
C2086 H2100 0.960 . S
C2087 C2084 1.511 . S
C2087 H2101 0.961 . S
C2087 H2102 0.961 . S
C2087 H2103 0.961 . S
C2088 C2089 1.370 . S
C2088 C2090 1.363 . S
C2088 H2104 0.931 . S
C2089 C2088 1.370 . S
C2089 C2093 1.408 . S
C2090 C2088 1.363 . S
C2090 C2091 1.370 . S
C2090 C2094 1.524 . S
C2091 C2083 1.503 . S
C2091 C2090 1.370 . S
C2091 C2092 1.403 . S
C2092 C2091 1.403 . S
C2092 C2093 1.404 . S
C2092 C2095 1.539 . S
C2093 C2089 1.408 . S
C2093 C2092 1.404 . S
C2093 H2105 0.930 . S
C2094 C2090 1.524 . S
C2094 H2106 0.956 . S
C2094 H2107 0.961 . S
C2094 H2108 0.961 . S
C2095 C2092 1.539 . S
C2095 H2109 0.958 . S
C2095 H2110 0.961 . S
C2095 H2111 0.960 . S
H2096 C2080 0.931 . S
H2097 C2085 0.929 . S
H2098 C2086 0.960 . S
H2099 C2086 0.962 . S
H2100 C2086 0.960 . S
H2101 C2087 0.961 . S
H2102 C2087 0.961 . S
H2103 C2087 0.961 . S
H2104 C2088 0.931 . S
H2105 C2093 0.930 . S
H2106 C2094 0.956 . S
H2107 C2094 0.961 . S
H2108 C2094 0.961 . S
H2109 C2095 0.958 . S
H2110 C2095 0.961 . S
H2111 C2095 0.960 . S
C2112 C2113 1.391 . S
C2112 C2114 1.394 . S
C2112 H2128 0.931 . S
C2113 C2112 1.391 . S
C2113 C2117 1.376 . S
C2114 C2112 1.394 . S
C2114 C2115 1.369 . S
C2114 C2118 1.531 . S
C2115 C2114 1.369 . S
C2115 C2116 1.410 . S
C2115 C2123 1.503 . S
C2116 C2115 1.410 . S
C2116 C2117 1.392 . S
C2116 C2119 1.511 . S
C2117 C2113 1.376 . S
C2117 C2116 1.392 . S
C2117 H2129 0.929 . S
C2118 C2114 1.531 . S
C2118 H2130 0.960 . S
C2118 H2131 0.962 . S
C2118 H2132 0.960 . S
C2119 C2116 1.511 . S
C2119 H2133 0.961 . S
C2119 H2134 0.961 . S
C2119 H2135 0.961 . S
C2120 C2121 1.370 . S
C2120 C2122 1.363 . S
C2120 H2136 0.931 . S
C2121 C2120 1.370 . S
C2121 C2125 1.408 . S
C2122 C2120 1.363 . S
C2122 C2123 1.370 . S
C2122 C2126 1.524 . S
C2123 C2115 1.503 . S
C2123 C2122 1.370 . S
C2123 C2124 1.403 . S
C2124 C2123 1.403 . S
C2124 C2125 1.404 . S
C2124 C2127 1.539 . S
C2125 C2121 1.408 . S
C2125 C2124 1.404 . S
C2125 H2137 0.930 . S
C2126 C2122 1.524 . S
C2126 H2138 0.956 . S
C2126 H2139 0.961 . S
C2126 H2140 0.961 . S
C2127 C2124 1.539 . S
C2127 H2141 0.958 . S
C2127 H2142 0.961 . S
C2127 H2143 0.960 . S
H2128 C2112 0.931 . S
H2129 C2117 0.929 . S
H2130 C2118 0.960 . S
H2131 C2118 0.962 . S
H2132 C2118 0.960 . S
H2133 C2119 0.961 . S
H2134 C2119 0.961 . S
H2135 C2119 0.961 . S
H2136 C2120 0.931 . S
H2137 C2125 0.930 . S
H2138 C2126 0.956 . S
H2139 C2126 0.961 . S
H2140 C2126 0.961 . S
H2141 C2127 0.958 . S
H2142 C2127 0.961 . S
H2143 C2127 0.960 . S
C2144 C2145 1.391 . S
C2144 C2146 1.394 . S
C2144 H2160 0.931 . S
C2145 C2144 1.391 . S
C2145 C2149 1.376 . S
C2146 C2144 1.394 . S
C2146 C2147 1.369 . S
C2146 C2150 1.531 . S
C2147 C2146 1.369 . S
C2147 C2148 1.410 . S
C2147 C2155 1.503 . S
C2148 C2147 1.410 . S
C2148 C2149 1.392 . S
C2148 C2151 1.511 . S
C2149 C2145 1.376 . S
C2149 C2148 1.392 . S
C2149 H2161 0.929 . S
C2150 C2146 1.531 . S
C2150 H2162 0.960 . S
C2150 H2163 0.962 . S
C2150 H2164 0.960 . S
C2151 C2148 1.511 . S
C2151 H2165 0.961 . S
C2151 H2166 0.961 . S
C2151 H2167 0.961 . S
C2152 C2153 1.370 . S
C2152 C2154 1.363 . S
C2152 H2168 0.931 . S
C2153 C2152 1.370 . S
C2153 C2157 1.408 . S
C2154 C2152 1.363 . S
C2154 C2155 1.370 . S
C2154 C2158 1.524 . S
C2155 C2147 1.503 . S
C2155 C2154 1.370 . S
C2155 C2156 1.403 . S
C2156 C2155 1.403 . S
C2156 C2157 1.404 . S
C2156 C2159 1.539 . S
C2157 C2153 1.408 . S
C2157 C2156 1.404 . S
C2157 H2169 0.930 . S
C2158 C2154 1.524 . S
C2158 H2170 0.956 . S
C2158 H2171 0.961 . S
C2158 H2172 0.961 . S
C2159 C2156 1.539 . S
C2159 H2173 0.958 . S
C2159 H2174 0.961 . S
C2159 H2175 0.960 . S
H2160 C2144 0.931 . S
H2161 C2149 0.929 . S
H2162 C2150 0.960 . S
H2163 C2150 0.962 . S
H2164 C2150 0.960 . S
H2165 C2151 0.961 . S
H2166 C2151 0.961 . S
H2167 C2151 0.961 . S
H2168 C2152 0.931 . S
H2169 C2157 0.930 . S
H2170 C2158 0.956 . S
H2171 C2158 0.961 . S
H2172 C2158 0.961 . S
H2173 C2159 0.958 . S
H2174 C2159 0.961 . S
H2175 C2159 0.960 . S
C2176 C2177 1.391 . S
C2176 C2178 1.394 . S
C2176 H2192 0.931 . S
C2177 C2176 1.391 . S
C2177 C2181 1.376 . S
C2178 C2176 1.394 . S
C2178 C2179 1.369 . S
C2178 C2182 1.531 . S
C2179 C2178 1.369 . S
C2179 C2180 1.410 . S
C2179 C2187 1.503 . S
C2180 C2179 1.410 . S
C2180 C2181 1.392 . S
C2180 C2183 1.511 . S
C2181 C2177 1.376 . S
C2181 C2180 1.392 . S
C2181 H2193 0.929 . S
C2182 C2178 1.531 . S
C2182 H2194 0.960 . S
C2182 H2195 0.962 . S
C2182 H2196 0.960 . S
C2183 C2180 1.511 . S
C2183 H2197 0.961 . S
C2183 H2198 0.961 . S
C2183 H2199 0.961 . S
C2184 C2185 1.370 . S
C2184 C2186 1.363 . S
C2184 H2200 0.931 . S
C2185 C2184 1.370 . S
C2185 C2189 1.408 . S
C2186 C2184 1.363 . S
C2186 C2187 1.370 . S
C2186 C2190 1.524 . S
C2187 C2179 1.503 . S
C2187 C2186 1.370 . S
C2187 C2188 1.403 . S
C2188 C2187 1.403 . S
C2188 C2189 1.404 . S
C2188 C2191 1.539 . S
C2189 C2185 1.408 . S
C2189 C2188 1.404 . S
C2189 H2201 0.930 . S
C2190 C2186 1.524 . S
C2190 H2202 0.956 . S
C2190 H2203 0.961 . S
C2190 H2204 0.961 . S
C2191 C2188 1.539 . S
C2191 H2205 0.958 . S
C2191 H2206 0.961 . S
C2191 H2207 0.960 . S
H2192 C2176 0.931 . S
H2193 C2181 0.929 . S
H2194 C2182 0.960 . S
H2195 C2182 0.962 . S
H2196 C2182 0.960 . S
H2197 C2183 0.961 . S
H2198 C2183 0.961 . S
H2199 C2183 0.961 . S
H2200 C2184 0.931 . S
H2201 C2189 0.930 . S
H2202 C2190 0.956 . S
H2203 C2190 0.961 . S
H2204 C2190 0.961 . S
H2205 C2191 0.958 . S
H2206 C2191 0.961 . S
H2207 C2191 0.960 . S
C2208 C2209 1.391 . S
C2208 C2210 1.394 . S
C2208 H2224 0.931 . S
C2209 C2208 1.391 . S
C2209 C2213 1.376 . S
C2210 C2208 1.394 . S
C2210 C2211 1.369 . S
C2210 C2214 1.531 . S
C2211 C2210 1.369 . S
C2211 C2212 1.410 . S
C2211 C2219 1.503 . S
C2212 C2211 1.410 . S
C2212 C2213 1.392 . S
C2212 C2215 1.511 . S
C2213 C2209 1.376 . S
C2213 C2212 1.392 . S
C2213 H2225 0.929 . S
C2214 C2210 1.531 . S
C2214 H2226 0.960 . S
C2214 H2227 0.962 . S
C2214 H2228 0.960 . S
C2215 C2212 1.511 . S
C2215 H2229 0.961 . S
C2215 H2230 0.961 . S
C2215 H2231 0.961 . S
C2216 C2217 1.370 . S
C2216 C2218 1.363 . S
C2216 H2232 0.931 . S
C2217 C2216 1.370 . S
C2217 C2221 1.408 . S
C2218 C2216 1.363 . S
C2218 C2219 1.370 . S
C2218 C2222 1.524 . S
C2219 C2211 1.503 . S
C2219 C2218 1.370 . S
C2219 C2220 1.403 . S
C2220 C2219 1.403 . S
C2220 C2221 1.404 . S
C2220 C2223 1.539 . S
C2221 C2217 1.408 . S
C2221 C2220 1.404 . S
C2221 H2233 0.930 1_554 S
C2222 C2218 1.524 . S
C2222 H2234 0.956 . S
C2222 H2235 0.961 . S
C2222 H2236 0.961 . S
C2223 C2220 1.539 . S
C2223 H2237 0.958 . S
C2223 H2238 0.961 . S
C2223 H2239 0.960 . S
H2224 C2208 0.931 . S
H2225 C2213 0.929 . S
H2226 C2214 0.960 . S
H2227 C2214 0.962 . S
H2228 C2214 0.960 . S
H2229 C2215 0.961 . S
H2230 C2215 0.961 . S
H2231 C2215 0.961 . S
H2232 C2216 0.931 . S
H2233 C2221 0.930 1_556 S
H2234 C2222 0.956 . S
H2235 C2222 0.961 . S
H2236 C2222 0.961 . S
H2237 C2223 0.958 . S
H2238 C2223 0.961 . S
H2239 C2223 0.960 . S
C2240 C2241 1.391 . S
C2240 C2242 1.394 . S
C2240 H2256 0.931 . S
C2241 C2240 1.391 . S
C2241 C2245 1.376 . S
C2242 C2240 1.394 . S
C2242 C2243 1.369 . S
C2242 C2246 1.531 . S
C2243 C2242 1.369 . S
C2243 C2244 1.410 . S
C2243 C2251 1.503 . S
C2244 C2243 1.410 . S
C2244 C2245 1.392 . S
C2244 C2247 1.511 . S
C2245 C2241 1.376 . S
C2245 C2244 1.392 . S
C2245 H2257 0.929 . S
C2246 C2242 1.531 . S
C2246 H2258 0.960 . S
C2246 H2259 0.962 . S
C2246 H2260 0.960 . S
C2247 C2244 1.511 . S
C2247 H2261 0.961 . S
C2247 H2262 0.961 . S
C2247 H2263 0.961 . S
C2248 C2249 1.370 . S
C2248 C2250 1.363 . S
C2248 H2264 0.905 1_554 S
C2249 C2248 1.370 . S
C2249 C2253 1.408 . S
C2250 C2248 1.363 . S
C2250 C2251 1.370 . S
C2250 C2254 1.524 . S
C2251 C2243 1.503 . S
C2251 C2250 1.370 . S
C2251 C2252 1.403 . S
C2252 C2251 1.403 . S
C2252 C2253 1.404 . S
C2252 C2255 1.539 . S
C2253 C2249 1.408 . S
C2253 C2252 1.404 . S
C2253 H2265 0.930 . S
C2254 C2250 1.524 . S
C2254 H2266 0.956 . S
C2254 H2267 0.961 . S
C2254 H2268 0.961 . S
C2255 C2252 1.539 . S
C2255 H2269 0.958 . S
C2255 H2270 0.961 . S
C2255 H2271 0.960 . S
H2256 C2240 0.931 . S
H2257 C2245 0.929 . S
H2258 C2246 0.960 . S
H2259 C2246 0.962 . S
H2260 C2246 0.960 . S
H2261 C2247 0.961 . S
H2262 C2247 0.961 . S
H2263 C2247 0.961 . S
H2264 C2248 0.905 1_556 S
H2265 C2253 0.930 . S
H2266 C2254 0.956 . S
H2267 C2254 0.961 . S
H2268 C2254 0.961 . S
H2269 C2255 0.958 . S
H2270 C2255 0.961 . S
H2271 C2255 0.960 . S
C2272 C2273 1.391 . S
C2272 C2274 1.394 . S
C2272 H2288 0.931 . S
C2273 C2272 1.391 . S
C2273 C2277 1.376 . S
C2274 C2272 1.394 . S
C2274 C2275 1.369 . S
C2274 C2278 1.531 . S
C2275 C2274 1.369 . S
C2275 C2276 1.410 . S
C2275 C2283 1.503 . S
C2276 C2275 1.410 . S
C2276 C2277 1.392 . S
C2276 C2279 1.511 . S
C2277 C2273 1.376 . S
C2277 C2276 1.392 . S
C2277 H2289 0.929 . S
C2278 C2274 1.531 . S
C2278 H2290 0.960 . S
C2278 H2291 0.962 . S
C2278 H2292 0.960 . S
C2279 C2276 1.511 . S
C2279 H2293 0.961 . S
C2279 H2294 0.961 . S
C2279 H2295 0.961 . S
C2280 C2281 1.370 . S
C2280 C2282 1.363 . S
C2280 H2296 0.931 1_554 S
C2281 C2280 1.370 . S
C2281 C2285 1.408 . S
C2282 C2280 1.363 . S
C2282 C2283 1.370 . S
C2282 C2286 1.524 . S
C2283 C2275 1.503 . S
C2283 C2282 1.370 . S
C2283 C2284 1.403 . S
C2284 C2283 1.403 . S
C2284 C2285 1.404 . S
C2284 C2287 1.539 . S
C2285 C2281 1.408 . S
C2285 C2284 1.404 . S
C2285 H2297 0.930 . S
C2286 C2282 1.524 . S
C2286 H2298 0.956 . S
C2286 H2299 0.961 . S
C2286 H2300 0.961 . S
C2287 C2284 1.539 . S
C2287 H2301 0.958 . S
C2287 H2302 0.961 . S
C2287 H2303 0.960 . S
H2288 C2272 0.931 . S
H2289 C2277 0.929 . S
H2290 C2278 0.960 . S
H2291 C2278 0.962 . S
H2292 C2278 0.960 . S
H2293 C2279 0.961 . S
H2294 C2279 0.961 . S
H2295 C2279 0.961 . S
H2296 C2280 0.931 1_556 S
H2297 C2285 0.930 . S
H2298 C2286 0.956 . S
H2299 C2286 0.961 . S
H2300 C2286 0.961 . S
H2301 C2287 0.958 . S
H2302 C2287 0.961 . S
H2303 C2287 0.960 . S
C2304 C2305 1.391 . S
C2304 C2306 1.394 . S
C2304 H2320 0.931 1_554 S
C2305 C2304 1.391 . S
C2305 C2309 1.376 . S
C2306 C2304 1.394 . S
C2306 C2307 1.369 . S
C2306 C2310 1.531 . S
C2307 C2306 1.369 . S
C2307 C2308 1.410 . S
C2307 C2315 1.503 . S
C2308 C2307 1.410 . S
C2308 C2309 1.392 . S
C2308 C2311 1.511 . S
C2309 C2305 1.376 . S
C2309 C2308 1.392 . S
C2309 H2321 0.929 . S
C2310 C2306 1.531 . S
C2310 H2322 0.960 . S
C2310 H2323 0.962 . S
C2310 H2324 0.960 . S
C2311 C2308 1.511 . S
C2311 H2325 0.961 . S
C2311 H2326 0.961 . S
C2311 H2327 0.961 . S
C2312 C2313 1.370 . S
C2312 C2314 1.363 . S
C2312 H2328 0.931 . S
C2313 C2312 1.370 . S
C2313 C2317 1.408 . S
C2314 C2312 1.363 . S
C2314 C2315 1.370 . S
C2314 C2318 1.524 . S
C2315 C2307 1.503 . S
C2315 C2314 1.370 . S
C2315 C2316 1.403 . S
C2316 C2315 1.403 . S
C2316 C2317 1.404 . S
C2316 C2319 1.539 . S
C2317 C2313 1.408 . S
C2317 C2316 1.404 . S
C2317 H2329 0.930 . S
C2318 C2314 1.524 . S
C2318 H2330 0.956 . S
C2318 H2331 0.961 . S
C2318 H2332 0.961 . S
C2319 C2316 1.539 . S
C2319 H2333 0.958 . S
C2319 H2334 0.961 . S
C2319 H2335 0.960 . S
H2320 C2304 0.931 1_556 S
H2321 C2309 0.929 . S
H2322 C2310 0.960 . S
H2323 C2310 0.962 . S
H2324 C2310 0.960 . S
H2325 C2311 0.961 . S
H2326 C2311 0.961 . S
H2327 C2311 0.961 . S
H2328 C2312 0.931 . S
H2329 C2317 0.930 . S
H2330 C2318 0.956 . S
H2331 C2318 0.961 . S
H2332 C2318 0.961 . S
H2333 C2319 0.958 . S
H2334 C2319 0.961 . S
H2335 C2319 0.960 . S
C2336 C2337 1.391 . S
C2336 C2338 1.394 . S
C2336 H2352 0.931 . S
C2337 C2336 1.391 . S
C2337 C2341 1.376 . S
C2338 C2336 1.394 . S
C2338 C2339 1.369 . S
C2338 C2342 1.531 . S
C2339 C2338 1.369 . S
C2339 C2340 1.410 . S
C2339 C2347 1.503 . S
C2340 C2339 1.410 . S
C2340 C2341 1.392 . S
C2340 C2343 1.511 . S
C2341 C2337 1.376 . S
C2341 C2340 1.392 . S
C2341 H2353 0.929 . S
C2342 C2338 1.531 . S
C2342 H2354 0.960 . S
C2342 H2355 0.962 . S
C2342 H2356 0.960 . S
C2343 C2340 1.511 . S
C2343 H2357 0.961 . S
C2343 H2358 0.961 . S
C2343 H2359 0.961 . S
C2344 C2345 1.370 . S
C2344 C2346 1.363 . S
C2344 H2360 0.931 . S
C2345 C2344 1.370 . S
C2345 C2349 1.408 . S
C2346 C2344 1.363 . S
C2346 C2347 1.370 . S
C2346 C2350 1.524 . S
C2347 C2339 1.503 . S
C2347 C2346 1.370 . S
C2347 C2348 1.403 . S
C2348 C2347 1.403 . S
C2348 C2349 1.404 . S
C2348 C2351 1.539 . S
C2349 C2345 1.408 . S
C2349 C2348 1.404 . S
C2349 H2361 0.930 . S
C2350 C2346 1.524 . S
C2350 H2362 0.956 . S
C2350 H2363 0.961 . S
C2350 H2364 0.961 . S
C2351 C2348 1.539 . S
C2351 H2365 0.958 . S
C2351 H2366 0.961 . S
C2351 H2367 0.960 . S
H2352 C2336 0.931 . S
H2353 C2341 0.929 . S
H2354 C2342 0.960 . S
H2355 C2342 0.962 . S
H2356 C2342 0.960 . S
H2357 C2343 0.961 . S
H2358 C2343 0.961 . S
H2359 C2343 0.961 . S
H2360 C2344 0.931 . S
H2361 C2349 0.930 . S
H2362 C2350 0.956 . S
H2363 C2350 0.961 . S
H2364 C2350 0.961 . S
H2365 C2351 0.958 . S
H2366 C2351 0.961 . S
H2367 C2351 0.960 . S
C2368 C2369 1.391 . S
C2368 C2370 1.394 . S
C2368 H2384 0.931 . S
C2369 C2368 1.391 . S
C2369 C2373 1.376 . S
C2370 C2368 1.394 . S
C2370 C2371 1.369 . S
C2370 C2374 1.531 . S
C2371 C2370 1.369 . S
C2371 C2372 1.410 . S
C2371 C2379 1.503 . S
C2372 C2371 1.410 . S
C2372 C2373 1.392 . S
C2372 C2375 1.511 . S
C2373 C2369 1.376 . S
C2373 C2372 1.392 . S
C2373 H2385 0.929 . S
C2374 C2370 1.531 . S
C2374 H2386 0.960 . S
C2374 H2387 0.962 . S
C2374 H2388 0.960 . S
C2375 C2372 1.511 . S
C2375 H2389 0.961 . S
C2375 H2390 0.961 . S
C2375 H2391 0.961 . S
C2376 C2377 1.370 . S
C2376 C2378 1.363 . S
C2376 H2392 0.897 1_556 S
C2377 C2376 1.370 . S
C2377 C2381 1.408 . S
C2378 C2376 1.363 . S
C2378 C2379 1.370 . S
C2378 C2382 1.524 . S
C2379 C2371 1.503 . S
C2379 C2378 1.370 . S
C2379 C2380 1.403 . S
C2380 C2379 1.403 . S
C2380 C2381 1.404 . S
C2380 C2383 1.539 . S
C2381 C2377 1.408 . S
C2381 C2380 1.404 . S
C2381 H2393 0.930 . S
C2382 C2378 1.524 . S
C2382 H2394 0.956 . S
C2382 H2395 0.961 . S
C2382 H2396 0.961 . S
C2383 C2380 1.539 . S
C2383 H2397 0.958 . S
C2383 H2398 0.961 . S
C2383 H2399 0.960 . S
H2384 C2368 0.931 . S
H2385 C2373 0.929 . S
H2386 C2374 0.960 . S
H2387 C2374 0.962 . S
H2388 C2374 0.960 . S
H2389 C2375 0.961 . S
H2390 C2375 0.961 . S
H2391 C2375 0.961 . S
H2392 C2376 0.897 1_554 S
H2393 C2381 0.930 . S
H2394 C2382 0.956 . S
H2395 C2382 0.961 . S
H2396 C2382 0.961 . S
H2397 C2383 0.958 . S
H2398 C2383 0.961 . S
H2399 C2383 0.960 . S
C2400 C2401 1.391 . S
C2400 C2402 1.394 . S
C2400 H2416 0.931 1_556 S
C2401 C2400 1.391 . S
C2401 C2405 1.376 . S
C2402 C2400 1.394 . S
C2402 C2403 1.369 . S
C2402 C2406 1.531 . S
C2403 C2402 1.369 . S
C2403 C2404 1.410 . S
C2403 C2411 1.503 . S
C2404 C2403 1.410 . S
C2404 C2405 1.392 . S
C2404 C2407 1.511 . S
C2405 C2401 1.376 . S
C2405 C2404 1.392 . S
C2405 H2417 0.929 . S
C2406 C2402 1.531 . S
C2406 H2418 0.960 . S
C2406 H2419 0.962 . S
C2406 H2420 0.960 . S
C2407 C2404 1.511 . S
C2407 H2421 0.961 . S
C2407 H2422 0.961 . S
C2407 H2423 0.961 . S
C2408 C2409 1.370 . S
C2408 C2410 1.363 . S
C2408 H2424 0.931 . S
C2409 C2408 1.370 . S
C2409 C2413 1.408 . S
C2410 C2408 1.363 . S
C2410 C2411 1.370 . S
C2410 C2414 1.524 . S
C2411 C2403 1.503 . S
C2411 C2410 1.370 . S
C2411 C2412 1.403 . S
C2412 C2411 1.403 . S
C2412 C2413 1.404 . S
C2412 C2415 1.539 . S
C2413 C2409 1.408 . S
C2413 C2412 1.404 . S
C2413 H2425 0.930 . S
C2414 C2410 1.524 . S
C2414 H2426 0.956 . S
C2414 H2427 0.961 . S
C2414 H2428 0.961 . S
C2415 C2412 1.539 . S
C2415 H2429 0.958 . S
C2415 H2430 0.961 . S
C2415 H2431 0.960 . S
H2416 C2400 0.931 1_554 S
H2417 C2405 0.929 . S
H2418 C2406 0.960 . S
H2419 C2406 0.962 . S
H2420 C2406 0.960 . S
H2421 C2407 0.961 . S
H2422 C2407 0.961 . S
H2423 C2407 0.961 . S
H2424 C2408 0.931 . S
H2425 C2413 0.930 . S
H2426 C2414 0.956 . S
H2427 C2414 0.961 . S
H2428 C2414 0.961 . S
H2429 C2415 0.958 . S
H2430 C2415 0.961 . S
H2431 C2415 0.960 . S
C2432 C2433 1.391 . S
C2432 C2434 1.394 . S
C2432 H2448 0.931 1_556 S
C2433 C2432 1.391 . S
C2433 C2437 1.376 . S
C2434 C2432 1.394 . S
C2434 C2435 1.369 . S
C2434 C2438 1.531 . S
C2435 C2434 1.369 . S
C2435 C2436 1.410 . S
C2435 C2443 1.503 . S
C2436 C2435 1.410 . S
C2436 C2437 1.392 . S
C2436 C2439 1.511 . S
C2437 C2433 1.376 . S
C2437 C2436 1.392 . S
C2437 H2449 0.929 . S
C2438 C2434 1.531 . S
C2438 H2450 0.960 . S
C2438 H2451 0.962 . S
C2438 H2452 0.960 . S
C2439 C2436 1.511 . S
C2439 H2453 0.961 . S
C2439 H2454 0.961 . S
C2439 H2455 0.961 . S
C2440 C2441 1.370 . S
C2440 C2442 1.363 . S
C2440 H2456 0.931 . S
C2441 C2440 1.370 . S
C2441 C2445 1.408 . S
C2442 C2440 1.363 . S
C2442 C2443 1.370 . S
C2442 C2446 1.524 . S
C2443 C2435 1.503 . S
C2443 C2442 1.370 . S
C2443 C2444 1.403 . S
C2444 C2443 1.403 . S
C2444 C2445 1.404 . S
C2444 C2447 1.539 . S
C2445 C2441 1.408 . S
C2445 C2444 1.404 . S
C2445 H2457 0.930 . S
C2446 C2442 1.524 . S
C2446 H2458 0.956 . S
C2446 H2459 0.961 . S
C2446 H2460 0.961 . S
C2447 C2444 1.539 . S
C2447 H2461 0.958 . S
C2447 H2462 0.961 . S
C2447 H2463 0.960 . S
H2448 C2432 0.931 1_554 S
H2449 C2437 0.929 . S
H2450 C2438 0.960 . S
H2451 C2438 0.962 . S
H2452 C2438 0.960 . S
H2453 C2439 0.961 . S
H2454 C2439 0.961 . S
H2455 C2439 0.961 . S
H2456 C2440 0.931 . S
H2457 C2445 0.930 . S
H2458 C2446 0.956 . S
H2459 C2446 0.961 . S
H2460 C2446 0.961 . S
H2461 C2447 0.958 . S
H2462 C2447 0.961 . S
H2463 C2447 0.960 . S
C2464 C2465 1.391 . S
C2464 C2466 1.394 . S
C2464 H2480 0.931 . S
C2465 C2464 1.391 . S
C2465 C2469 1.376 . S
C2466 C2464 1.394 . S
C2466 C2467 1.369 . S
C2466 C2470 1.531 . S
C2467 C2466 1.369 . S
C2467 C2468 1.410 . S
C2467 C2475 1.503 . S
C2468 C2467 1.410 . S
C2468 C2469 1.392 . S
C2468 C2471 1.511 . S
C2469 C2465 1.376 . S
C2469 C2468 1.392 . S
C2469 H2481 0.929 . S
C2470 C2466 1.531 . S
C2470 H2482 0.960 . S
C2470 H2483 0.962 . S
C2470 H2484 0.960 . S
C2471 C2468 1.511 . S
C2471 H2485 0.961 . S
C2471 H2486 0.961 . S
C2471 H2487 0.961 . S
C2472 C2473 1.370 . S
C2472 C2474 1.363 . S
C2472 H2488 0.931 . S
C2473 C2472 1.370 . S
C2473 C2477 1.408 . S
C2474 C2472 1.363 . S
C2474 C2475 1.370 . S
C2474 C2478 1.524 . S
C2475 C2467 1.503 . S
C2475 C2474 1.370 . S
C2475 C2476 1.403 . S
C2476 C2475 1.403 . S
C2476 C2477 1.404 . S
C2476 C2479 1.539 . S
C2477 C2473 1.408 . S
C2477 C2476 1.404 . S
C2477 H2489 0.930 . S
C2478 C2474 1.524 . S
C2478 H2490 0.956 . S
C2478 H2491 0.961 . S
C2478 H2492 0.961 . S
C2479 C2476 1.539 . S
C2479 H2493 0.958 . S
C2479 H2494 0.961 . S
C2479 H2495 0.960 . S
H2480 C2464 0.931 . S
H2481 C2469 0.929 . S
H2482 C2470 0.960 . S
H2483 C2470 0.962 . S
H2484 C2470 0.960 . S
H2485 C2471 0.961 . S
H2486 C2471 0.961 . S
H2487 C2471 0.961 . S
H2488 C2472 0.931 . S
H2489 C2477 0.930 . S
H2490 C2478 0.956 . S
H2491 C2478 0.961 . S
H2492 C2478 0.961 . S
H2493 C2479 0.958 . S
H2494 C2479 0.961 . S
H2495 C2479 0.960 . S
C2496 C2497 1.391 . S
C2496 C2498 1.394 . S
C2496 H2512 0.931 . S
C2497 C2496 1.391 . S
C2497 C2501 1.376 . S
C2498 C2496 1.394 . S
C2498 C2499 1.369 . S
C2498 C2502 1.531 . S
C2499 C2498 1.369 . S
C2499 C2500 1.410 . S
C2499 C2507 1.503 . S
C2500 C2499 1.410 . S
C2500 C2501 1.392 . S
C2500 C2503 1.511 . S
C2501 C2497 1.376 . S
C2501 C2500 1.392 . S
C2501 H2513 0.929 . S
C2502 C2498 1.531 . S
C2502 H2514 0.960 . S
C2502 H2515 0.962 . S
C2502 H2516 0.960 . S
C2503 C2500 1.511 . S
C2503 H2517 0.961 . S
C2503 H2518 0.961 . S
C2503 H2519 0.961 . S
C2504 C2505 1.370 . S
C2504 C2506 1.363 . S
C2504 H2520 0.931 1_545 S
C2505 C2504 1.370 . S
C2505 C2509 1.408 . S
C2506 C2504 1.363 . S
C2506 C2507 1.370 . S
C2506 C2510 1.524 . S
C2507 C2499 1.503 . S
C2507 C2506 1.370 . S
C2507 C2508 1.403 . S
C2508 C2507 1.403 . S
C2508 C2509 1.404 . S
C2508 C2511 1.539 . S
C2509 C2505 1.408 . S
C2509 C2508 1.404 . S
C2509 H2521 0.930 . S
C2510 C2506 1.524 . S
C2510 H2522 0.956 . S
C2510 H2523 0.961 . S
C2510 H2524 0.961 . S
C2511 C2508 1.539 . S
C2511 H2525 0.958 . S
C2511 H2526 0.961 . S
C2511 H2527 0.960 . S
H2512 C2496 0.931 . S
H2513 C2501 0.929 . S
H2514 C2502 0.960 . S
H2515 C2502 0.962 . S
H2516 C2502 0.960 . S
H2517 C2503 0.961 . S
H2518 C2503 0.961 . S
H2519 C2503 0.961 . S
H2520 C2504 0.931 1_565 S
H2521 C2509 0.930 . S
H2522 C2510 0.956 . S
H2523 C2510 0.961 . S
H2524 C2510 0.961 . S
H2525 C2511 0.958 . S
H2526 C2511 0.961 . S
H2527 C2511 0.960 . S
C2528 C2529 1.391 . S
C2528 C2530 1.394 . S
C2528 H2544 0.931 . S
C2529 C2528 1.391 . S
C2529 C2533 1.376 . S
C2530 C2528 1.394 . S
C2530 C2531 1.369 . S
C2530 C2534 1.531 . S
C2531 C2530 1.369 . S
C2531 C2532 1.410 . S
C2531 C2539 1.503 . S
C2532 C2531 1.410 . S
C2532 C2533 1.392 . S
C2532 C2535 1.511 . S
C2533 C2529 1.376 . S
C2533 C2532 1.392 . S
C2533 H2545 0.929 . S
C2534 C2530 1.531 . S
C2534 H2546 0.960 . S
C2534 H2547 0.962 . S
C2534 H2548 0.960 . S
C2535 C2532 1.511 . S
C2535 H2549 0.961 . S
C2535 H2550 0.961 . S
C2535 H2551 0.961 . S
C2536 C2537 1.370 . S
C2536 C2538 1.363 . S
C2536 H2552 0.952 . S
C2537 C2536 1.370 . S
C2537 C2541 1.408 . S
C2538 C2536 1.363 . S
C2538 C2539 1.370 . S
C2538 C2542 1.524 . S
C2539 C2531 1.503 . S
C2539 C2538 1.370 . S
C2539 C2540 1.403 . S
C2540 C2539 1.403 . S
C2540 C2541 1.404 . S
C2540 C2543 1.539 . S
C2541 C2537 1.408 . S
C2541 C2540 1.404 . S
C2541 H2553 0.930 . S
C2542 C2538 1.524 . S
C2542 H2554 0.956 . S
C2542 H2555 0.961 . S
C2542 H2556 0.961 . S
C2543 C2540 1.539 . S
C2543 H2557 0.958 . S
C2543 H2558 0.961 . S
C2543 H2559 0.960 . S
H2544 C2528 0.931 . S
H2545 C2533 0.929 . S
H2546 C2534 0.960 . S
H2547 C2534 0.962 . S
H2548 C2534 0.960 . S
H2549 C2535 0.961 . S
H2550 C2535 0.961 . S
H2551 C2535 0.961 . S
H2552 C2536 0.952 . S
H2553 C2541 0.930 . S
H2554 C2542 0.956 . S
H2555 C2542 0.961 . S
H2556 C2542 0.961 . S
H2557 C2543 0.958 . S
H2558 C2543 0.961 . S
H2559 C2543 0.960 . S
C2560 C2561 1.391 . S
C2560 C2562 1.394 . S
C2560 H2576 0.931 1_565 S
C2561 C2560 1.391 . S
C2561 C2565 1.376 . S
C2562 C2560 1.394 . S
C2562 C2563 1.369 . S
C2562 C2566 1.531 . S
C2563 C2562 1.369 . S
C2563 C2564 1.410 . S
C2563 C2571 1.503 . S
C2564 C2563 1.410 . S
C2564 C2565 1.392 . S
C2564 C2567 1.511 . S
C2565 C2561 1.376 . S
C2565 C2564 1.392 . S
C2565 H2577 0.929 . S
C2566 C2562 1.531 . S
C2566 H2578 0.960 . S
C2566 H2579 0.962 . S
C2566 H2580 0.960 . S
C2567 C2564 1.511 . S
C2567 H2581 0.961 . S
C2567 H2582 0.961 . S
C2567 H2583 0.961 . S
C2568 C2569 1.370 . S
C2568 C2570 1.363 . S
C2568 H2584 0.931 . S
C2569 C2568 1.370 . S
C2569 C2573 1.408 . S
C2570 C2568 1.363 . S
C2570 C2571 1.370 . S
C2570 C2574 1.524 . S
C2571 C2563 1.503 . S
C2571 C2570 1.370 . S
C2571 C2572 1.403 . S
C2572 C2571 1.403 . S
C2572 C2573 1.404 . S
C2572 C2575 1.539 . S
C2573 C2569 1.408 . S
C2573 C2572 1.404 . S
C2573 H2585 0.930 . S
C2574 C2570 1.524 . S
C2574 H2586 0.956 . S
C2574 H2587 0.961 . S
C2574 H2588 0.961 . S
C2575 C2572 1.539 . S
C2575 H2589 0.958 . S
C2575 H2590 0.961 . S
C2575 H2591 0.960 . S
H2576 C2560 0.931 1_545 S
H2577 C2565 0.929 . S
H2578 C2566 0.960 . S
H2579 C2566 0.962 . S
H2580 C2566 0.960 . S
H2581 C2567 0.961 . S
H2582 C2567 0.961 . S
H2583 C2567 0.961 . S
H2584 C2568 0.931 . S
H2585 C2573 0.930 . S
H2586 C2574 0.956 . S
H2587 C2574 0.961 . S
H2588 C2574 0.961 . S
H2589 C2575 0.958 . S
H2590 C2575 0.961 . S
H2591 C2575 0.960 . S
C2592 C2593 1.391 . S
C2592 C2594 1.394 . S
C2592 H2608 0.931 . S
C2593 C2592 1.391 . S
C2593 C2597 1.376 . S
C2594 C2592 1.394 . S
C2594 C2595 1.369 . S
C2594 C2598 1.531 . S
C2595 C2594 1.369 . S
C2595 C2596 1.410 . S
C2595 C2603 1.503 . S
C2596 C2595 1.410 . S
C2596 C2597 1.392 . S
C2596 C2599 1.511 . S
C2597 C2593 1.376 . S
C2597 C2596 1.392 . S
C2597 H2609 0.929 1_455 S
C2598 C2594 1.531 . S
C2598 H2610 0.960 . S
C2598 H2611 0.962 . S
C2598 H2612 0.960 . S
C2599 C2596 1.511 . S
C2599 H2613 0.961 . S
C2599 H2614 0.961 . S
C2599 H2615 0.961 . S
C2600 C2601 1.370 . S
C2600 C2602 1.363 . S
C2600 H2616 0.931 . S
C2601 C2600 1.370 . S
C2601 C2605 1.408 . S
C2602 C2600 1.363 . S
C2602 C2603 1.370 . S
C2602 C2606 1.524 . S
C2603 C2595 1.503 . S
C2603 C2602 1.370 . S
C2603 C2604 1.403 . S
C2604 C2603 1.403 . S
C2604 C2605 1.404 . S
C2604 C2607 1.539 . S
C2605 C2601 1.408 . S
C2605 C2604 1.404 . S
C2605 H2617 0.930 . S
C2606 C2602 1.524 . S
C2606 H2618 0.956 . S
C2606 H2619 0.961 . S
C2606 H2620 0.961 . S
C2607 C2604 1.539 . S
C2607 H2621 0.958 . S
C2607 H2622 0.961 . S
C2607 H2623 0.960 . S
H2608 C2592 0.931 . S
H2609 C2597 0.929 1_655 S
H2610 C2598 0.960 . S
H2611 C2598 0.962 . S
H2612 C2598 0.960 . S
H2613 C2599 0.961 . S
H2614 C2599 0.961 . S
H2615 C2599 0.961 . S
H2616 C2600 0.931 . S
H2617 C2605 0.930 . S
H2618 C2606 0.956 . S
H2619 C2606 0.961 . S
H2620 C2606 0.961 . S
H2621 C2607 0.958 . S
H2622 C2607 0.961 . S
H2623 C2607 0.960 . S
C2624 C2625 1.391 . S
C2624 C2626 1.394 . S
C2624 H2640 0.931 . S
C2625 C2624 1.391 . S
C2625 C2629 1.376 . S
C2626 C2624 1.394 . S
C2626 C2627 1.369 . S
C2626 C2630 1.531 . S
C2627 C2626 1.369 . S
C2627 C2628 1.410 . S
C2627 C2635 1.503 . S
C2628 C2627 1.410 . S
C2628 C2629 1.392 . S
C2628 C2631 1.511 . S
C2629 C2625 1.376 . S
C2629 C2628 1.392 . S
C2629 H2641 0.929 . S
C2630 C2626 1.531 . S
C2630 H2642 0.960 . S
C2630 H2643 0.962 . S
C2630 H2644 0.960 . S
C2631 C2628 1.511 . S
C2631 H2645 0.961 . S
C2631 H2646 0.961 . S
C2631 H2647 0.961 . S
C2632 C2633 1.370 . S
C2632 C2634 1.363 . S
C2632 H2648 0.931 . S
C2633 C2632 1.370 . S
C2633 C2637 1.408 . S
C2634 C2632 1.363 . S
C2634 C2635 1.370 . S
C2634 C2638 1.524 . S
C2635 C2627 1.503 . S
C2635 C2634 1.370 . S
C2635 C2636 1.403 . S
C2636 C2635 1.403 . S
C2636 C2637 1.404 . S
C2636 C2639 1.539 . S
C2637 C2633 1.408 . S
C2637 C2636 1.404 . S
C2637 H2649 0.930 . S
C2638 C2634 1.524 . S
C2638 H2650 0.956 . S
C2638 H2651 0.961 . S
C2638 H2652 0.961 . S
C2639 C2636 1.539 . S
C2639 H2653 0.958 . S
C2639 H2654 0.961 . S
C2639 H2655 0.960 . S
H2640 C2624 0.931 . S
H2641 C2629 0.929 . S
H2642 C2630 0.960 . S
H2643 C2630 0.962 . S
H2644 C2630 0.960 . S
H2645 C2631 0.961 . S
H2646 C2631 0.961 . S
H2647 C2631 0.961 . S
H2648 C2632 0.931 . S
H2649 C2637 0.930 . S
H2650 C2638 0.956 . S
H2651 C2638 0.961 . S
H2652 C2638 0.961 . S
H2653 C2639 0.958 . S
H2654 C2639 0.961 . S
H2655 C2639 0.960 . S
C2656 C2657 1.391 . S
C2656 C2658 1.394 . S
C2656 H2672 0.931 . S
C2657 C2656 1.391 . S
C2657 C2661 1.376 . S
C2658 C2656 1.394 . S
C2658 C2659 1.369 . S
C2658 C2662 1.531 . S
C2659 C2658 1.369 . S
C2659 C2660 1.410 . S
C2659 C2667 1.503 . S
C2660 C2659 1.410 . S
C2660 C2661 1.392 . S
C2660 C2663 1.511 . S
C2661 C2657 1.376 . S
C2661 C2660 1.392 . S
C2661 H2673 0.929 1_655 S
C2662 C2658 1.531 . S
C2662 H2674 0.960 . S
C2662 H2675 0.962 . S
C2662 H2676 0.960 . S
C2663 C2660 1.511 . S
C2663 H2677 0.961 . S
C2663 H2678 0.961 . S
C2663 H2679 0.961 . S
C2664 C2665 1.370 . S
C2664 C2666 1.363 . S
C2664 H2680 0.931 . S
C2665 C2664 1.370 . S
C2665 C2669 1.408 . S
C2666 C2664 1.363 . S
C2666 C2667 1.370 . S
C2666 C2670 1.524 . S
C2667 C2659 1.503 . S
C2667 C2666 1.370 . S
C2667 C2668 1.403 . S
C2668 C2667 1.403 . S
C2668 C2669 1.404 . S
C2668 C2671 1.539 . S
C2669 C2665 1.408 . S
C2669 C2668 1.404 . S
C2669 H2681 0.930 . S
C2670 C2666 1.524 . S
C2670 H2682 0.956 . S
C2670 H2683 0.961 . S
C2670 H2684 0.961 . S
C2671 C2668 1.539 . S
C2671 H2685 0.958 . S
C2671 H2686 0.961 . S
C2671 H2687 0.960 . S
H2672 C2656 0.931 . S
H2673 C2661 0.929 1_455 S
H2674 C2662 0.960 . S
H2675 C2662 0.962 . S
H2676 C2662 0.960 . S
H2677 C2663 0.961 . S
H2678 C2663 0.961 . S
H2679 C2663 0.961 . S
H2680 C2664 0.931 . S
H2681 C2669 0.930 . S
H2682 C2670 0.956 . S
H2683 C2670 0.961 . S
H2684 C2670 0.961 . S
H2685 C2671 0.958 . S
H2686 C2671 0.961 . S
H2687 C2671 0.960 . S
C2688 C2689 1.391 . S
C2688 C2690 1.394 . S
C2688 H2704 0.931 . S
C2689 C2688 1.391 . S
C2689 C2693 1.376 . S
C2690 C2688 1.394 . S
C2690 C2691 1.369 . S
C2690 C2694 1.531 . S
C2691 C2690 1.369 . S
C2691 C2692 1.410 . S
C2691 C2699 1.503 . S
C2692 C2691 1.410 . S
C2692 C2693 1.392 . S
C2692 C2695 1.511 . S
C2693 C2689 1.376 . S
C2693 C2692 1.392 . S
C2693 H2705 0.929 . S
C2694 C2690 1.531 . S
C2694 H2706 0.960 . S
C2694 H2707 0.962 . S
C2694 H2708 0.960 . S
C2695 C2692 1.511 . S
C2695 H2709 0.961 . S
C2695 H2710 0.961 . S
C2695 H2711 0.961 . S
C2696 C2697 1.370 . S
C2696 C2698 1.363 . S
C2696 H2712 0.931 . S
C2697 C2696 1.370 . S
C2697 C2701 1.408 . S
C2698 C2696 1.363 . S
C2698 C2699 1.370 . S
C2698 C2702 1.524 . S
C2699 C2691 1.503 . S
C2699 C2698 1.370 . S
C2699 C2700 1.403 . S
C2700 C2699 1.403 . S
C2700 C2701 1.404 . S
C2700 C2703 1.539 . S
C2701 C2697 1.408 . S
C2701 C2700 1.404 . S
C2701 H2713 0.930 1_565 S
C2702 C2698 1.524 . S
C2702 H2714 0.956 . S
C2702 H2715 0.961 . S
C2702 H2716 0.961 . S
C2703 C2700 1.539 . S
C2703 H2717 0.958 . S
C2703 H2718 0.961 . S
C2703 H2719 0.960 . S
H2704 C2688 0.931 . S
H2705 C2693 0.929 . S
H2706 C2694 0.960 . S
H2707 C2694 0.962 . S
H2708 C2694 0.960 . S
H2709 C2695 0.961 . S
H2710 C2695 0.961 . S
H2711 C2695 0.961 . S
H2712 C2696 0.931 . S
H2713 C2701 0.930 1_545 S
H2714 C2702 0.956 . S
H2715 C2702 0.961 . S
H2716 C2702 0.961 . S
H2717 C2703 0.958 . S
H2718 C2703 0.961 . S
H2719 C2703 0.960 . S
C2720 C2721 1.391 . S
C2720 C2722 1.394 . S
C2720 H2736 0.931 . S
C2721 C2720 1.391 . S
C2721 C2725 1.376 . S
C2722 C2720 1.394 . S
C2722 C2723 1.369 . S
C2722 C2726 1.531 . S
C2723 C2722 1.369 . S
C2723 C2724 1.410 . S
C2723 C2731 1.503 . S
C2724 C2723 1.410 . S
C2724 C2725 1.392 . S
C2724 C2727 1.511 . S
C2725 C2721 1.376 . S
C2725 C2724 1.392 . S
C2725 H2737 0.929 . S
C2726 C2722 1.531 . S
C2726 H2738 0.960 . S
C2726 H2739 0.962 . S
C2726 H2740 0.960 . S
C2727 C2724 1.511 . S
C2727 H2741 0.961 . S
C2727 H2742 0.961 . S
C2727 H2743 0.961 . S
C2728 C2729 1.370 . S
C2728 C2730 1.363 . S
C2728 H2744 0.931 . S
C2729 C2728 1.370 . S
C2729 C2733 1.408 . S
C2730 C2728 1.363 . S
C2730 C2731 1.370 . S
C2730 C2734 1.524 . S
C2731 C2723 1.503 . S
C2731 C2730 1.370 . S
C2731 C2732 1.403 . S
C2732 C2731 1.403 . S
C2732 C2733 1.404 . S
C2732 C2735 1.539 . S
C2733 C2729 1.408 . S
C2733 C2732 1.404 . S
C2733 H2745 0.930 . S
C2734 C2730 1.524 . S
C2734 H2746 0.956 . S
C2734 H2747 0.961 . S
C2734 H2748 0.961 . S
C2735 C2732 1.539 . S
C2735 H2749 0.958 . S
C2735 H2750 0.961 . S
C2735 H2751 0.960 . S
H2736 C2720 0.931 . S
H2737 C2725 0.929 . S
H2738 C2726 0.960 . S
H2739 C2726 0.962 . S
H2740 C2726 0.960 . S
H2741 C2727 0.961 . S
H2742 C2727 0.961 . S
H2743 C2727 0.961 . S
H2744 C2728 0.931 . S
H2745 C2733 0.930 . S
H2746 C2734 0.956 . S
H2747 C2734 0.961 . S
H2748 C2734 0.961 . S
H2749 C2735 0.958 . S
H2750 C2735 0.961 . S
H2751 C2735 0.960 . S
C2752 C2753 1.391 . S
C2752 C2754 1.394 . S
C2752 H2768 0.931 . S
C2753 C2752 1.391 . S
C2753 C2757 1.376 . S
C2754 C2752 1.394 . S
C2754 C2755 1.369 . S
C2754 C2758 1.531 . S
C2755 C2754 1.369 . S
C2755 C2756 1.410 . S
C2755 C2763 1.503 . S
C2756 C2755 1.410 . S
C2756 C2757 1.392 . S
C2756 C2759 1.511 . S
C2757 C2753 1.376 . S
C2757 C2756 1.392 . S
C2757 H2769 0.929 . S
C2758 C2754 1.531 . S
C2758 H2770 0.960 . S
C2758 H2771 0.962 . S
C2758 H2772 0.960 . S
C2759 C2756 1.511 . S
C2759 H2773 0.961 . S
C2759 H2774 0.961 . S
C2759 H2775 0.961 . S
C2760 C2761 1.370 . S
C2760 C2762 1.363 . S
C2760 H2776 0.931 . S
C2761 C2760 1.370 . S
C2761 C2765 1.408 . S
C2762 C2760 1.363 . S
C2762 C2763 1.370 . S
C2762 C2766 1.524 . S
C2763 C2755 1.503 . S
C2763 C2762 1.370 . S
C2763 C2764 1.403 . S
C2764 C2763 1.403 . S
C2764 C2765 1.404 . S
C2764 C2767 1.539 . S
C2765 C2761 1.408 . S
C2765 C2764 1.404 . S
C2765 H2777 0.930 . S
C2766 C2762 1.524 . S
C2766 H2778 0.956 . S
C2766 H2779 0.961 . S
C2766 H2780 0.961 . S
C2767 C2764 1.539 . S
C2767 H2781 0.958 . S
C2767 H2782 0.961 . S
C2767 H2783 0.960 . S
H2768 C2752 0.931 . S
H2769 C2757 0.929 . S
H2770 C2758 0.960 . S
H2771 C2758 0.962 . S
H2772 C2758 0.960 . S
H2773 C2759 0.961 . S
H2774 C2759 0.961 . S
H2775 C2759 0.961 . S
H2776 C2760 0.931 . S
H2777 C2765 0.930 . S
H2778 C2766 0.956 . S
H2779 C2766 0.961 . S
H2780 C2766 0.961 . S
H2781 C2767 0.958 . S
H2782 C2767 0.961 . S
H2783 C2767 0.960 . S
C2784 C2785 1.391 . S
C2784 C2786 1.394 . S
C2784 H2800 0.931 . S
C2785 C2784 1.391 . S
C2785 C2789 1.376 . S
C2786 C2784 1.394 . S
C2786 C2787 1.369 . S
C2786 C2790 1.531 . S
C2787 C2786 1.369 . S
C2787 C2788 1.410 . S
C2787 C2795 1.503 . S
C2788 C2787 1.410 . S
C2788 C2789 1.392 . S
C2788 C2791 1.511 . S
C2789 C2785 1.376 . S
C2789 C2788 1.392 . S
C2789 H2801 0.929 1_455 S
C2790 C2786 1.531 . S
C2790 H2802 0.960 . S
C2790 H2803 0.962 . S
C2790 H2804 0.960 . S
C2791 C2788 1.511 . S
C2791 H2805 0.961 . S
C2791 H2806 0.961 . S
C2791 H2807 0.961 . S
C2792 C2793 1.370 . S
C2792 C2794 1.363 . S
C2792 H2808 0.931 . S
C2793 C2792 1.370 . S
C2793 C2797 1.408 . S
C2794 C2792 1.363 . S
C2794 C2795 1.370 . S
C2794 C2798 1.524 . S
C2795 C2787 1.503 . S
C2795 C2794 1.370 . S
C2795 C2796 1.403 . S
C2796 C2795 1.403 . S
C2796 C2797 1.404 . S
C2796 C2799 1.539 . S
C2797 C2793 1.408 . S
C2797 C2796 1.404 . S
C2797 H2809 0.930 . S
C2798 C2794 1.524 . S
C2798 H2810 0.956 . S
C2798 H2811 0.961 . S
C2798 H2812 0.961 . S
C2799 C2796 1.539 . S
C2799 H2813 0.958 . S
C2799 H2814 0.961 . S
C2799 H2815 0.960 . S
H2800 C2784 0.931 . S
H2801 C2789 0.929 1_655 S
H2802 C2790 0.960 . S
H2803 C2790 0.962 . S
H2804 C2790 0.960 . S
H2805 C2791 0.961 . S
H2806 C2791 0.961 . S
H2807 C2791 0.961 . S
H2808 C2792 0.931 . S
H2809 C2797 0.930 . S
H2810 C2798 0.956 . S
H2811 C2798 0.961 . S
H2812 C2798 0.961 . S
H2813 C2799 0.958 . S
H2814 C2799 0.961 . S
H2815 C2799 0.960 . S
C2816 C2817 1.391 . S
C2816 C2818 1.394 . S
C2816 H2832 0.931 . S
C2817 C2816 1.391 . S
C2817 C2821 1.376 . S
C2818 C2816 1.394 . S
C2818 C2819 1.369 . S
C2818 C2822 1.531 . S
C2819 C2818 1.369 . S
C2819 C2820 1.410 . S
C2819 C2827 1.503 . S
C2820 C2819 1.410 . S
C2820 C2821 1.392 . S
C2820 C2823 1.511 . S
C2821 C2817 1.376 . S
C2821 C2820 1.392 . S
C2821 H2833 0.929 . S
C2822 C2818 1.531 . S
C2822 H2834 0.960 . S
C2822 H2835 0.962 . S
C2822 H2836 0.960 . S
C2823 C2820 1.511 . S
C2823 H2837 0.961 . S
C2823 H2838 0.961 . S
C2823 H2839 0.961 . S
C2824 C2825 1.370 . S
C2824 C2826 1.363 . S
C2824 H2840 0.931 . S
C2825 C2824 1.370 . S
C2825 C2829 1.408 . S
C2826 C2824 1.363 . S
C2826 C2827 1.370 . S
C2826 C2830 1.524 . S
C2827 C2819 1.503 . S
C2827 C2826 1.370 . S
C2827 C2828 1.403 . S
C2828 C2827 1.403 . S
C2828 C2829 1.404 . S
C2828 C2831 1.539 . S
C2829 C2825 1.408 . S
C2829 C2828 1.404 . S
C2829 H2841 0.930 1_545 S
C2830 C2826 1.524 . S
C2830 H2842 0.956 . S
C2830 H2843 0.961 . S
C2830 H2844 0.961 . S
C2831 C2828 1.539 . S
C2831 H2845 0.958 . S
C2831 H2846 0.961 . S
C2831 H2847 0.960 . S
H2832 C2816 0.931 . S
H2833 C2821 0.929 . S
H2834 C2822 0.960 . S
H2835 C2822 0.962 . S
H2836 C2822 0.960 . S
H2837 C2823 0.961 . S
H2838 C2823 0.961 . S
H2839 C2823 0.961 . S
H2840 C2824 0.931 . S
H2841 C2829 0.930 1_565 S
H2842 C2830 0.956 . S
H2843 C2830 0.961 . S
H2844 C2830 0.961 . S
H2845 C2831 0.958 . S
H2846 C2831 0.961 . S
H2847 C2831 0.960 . S
C2848 C2849 1.391 . S
C2848 C2850 1.394 . S
C2848 H2864 0.931 1_655 S
C2849 C2848 1.391 . S
C2849 C2853 1.376 . S
C2850 C2848 1.394 . S
C2850 C2851 1.369 . S
C2850 C2854 1.531 . S
C2851 C2850 1.369 . S
C2851 C2852 1.410 . S
C2851 C2859 1.503 . S
C2852 C2851 1.410 . S
C2852 C2853 1.392 . S
C2852 C2855 1.511 . S
C2853 C2849 1.376 . S
C2853 C2852 1.392 . S
C2853 H2865 0.929 . S
C2854 C2850 1.531 . S
C2854 H2866 0.960 . S
C2854 H2867 0.962 . S
C2854 H2868 0.960 . S
C2855 C2852 1.511 . S
C2855 H2869 0.961 . S
C2855 H2870 0.961 . S
C2855 H2871 0.961 . S
C2856 C2857 1.370 . S
C2856 C2858 1.363 . S
C2856 H2872 0.931 . S
C2857 C2856 1.370 . S
C2857 C2861 1.408 . S
C2858 C2856 1.363 . S
C2858 C2859 1.370 . S
C2858 C2862 1.524 . S
C2859 C2851 1.503 . S
C2859 C2858 1.370 . S
C2859 C2860 1.403 . S
C2860 C2859 1.403 . S
C2860 C2861 1.404 . S
C2860 C2863 1.539 . S
C2861 C2857 1.408 . S
C2861 C2860 1.404 . S
C2861 H2873 0.930 . S
C2862 C2858 1.524 . S
C2862 H2874 0.956 . S
C2862 H2875 0.961 . S
C2862 H2876 0.961 . S
C2863 C2860 1.539 . S
C2863 H2877 0.958 . S
C2863 H2878 0.961 . S
C2863 H2879 0.960 . S
H2864 C2848 0.931 1_455 S
H2865 C2853 0.929 . S
H2866 C2854 0.960 . S
H2867 C2854 0.962 . S
H2868 C2854 0.960 . S
H2869 C2855 0.961 . S
H2870 C2855 0.961 . S
H2871 C2855 0.961 . S
H2872 C2856 0.931 . S
H2873 C2861 0.930 . S
H2874 C2862 0.956 . S
H2875 C2862 0.961 . S
H2876 C2862 0.961 . S
H2877 C2863 0.958 . S
H2878 C2863 0.961 . S
H2879 C2863 0.960 . S
C2880 C2881 1.391 . S
C2880 C2882 1.394 . S
C2880 H2896 0.931 1_565 S
C2881 C2880 1.391 . S
C2881 C2885 1.376 . S
C2882 C2880 1.394 . S
C2882 C2883 1.369 . S
C2882 C2886 1.531 . S
C2883 C2882 1.369 . S
C2883 C2884 1.410 . S
C2883 C2891 1.503 . S
C2884 C2883 1.410 . S
C2884 C2885 1.392 . S
C2884 C2887 1.511 . S
C2885 C2881 1.376 . S
C2885 C2884 1.392 . S
C2885 H2897 0.929 . S
C2886 C2882 1.531 . S
C2886 H2898 0.960 . S
C2886 H2899 0.962 . S
C2886 H2900 0.960 . S
C2887 C2884 1.511 . S
C2887 H2901 0.961 . S
C2887 H2902 0.961 . S
C2887 H2903 0.961 . S
C2888 C2889 1.370 . S
C2888 C2890 1.363 . S
C2888 H2904 0.931 . S
C2889 C2888 1.370 . S
C2889 C2893 1.408 . S
C2890 C2888 1.363 . S
C2890 C2891 1.370 . S
C2890 C2894 1.524 . S
C2891 C2883 1.503 . S
C2891 C2890 1.370 . S
C2891 C2892 1.403 . S
C2892 C2891 1.403 . S
C2892 C2893 1.404 . S
C2892 C2895 1.539 . S
C2893 C2889 1.408 . S
C2893 C2892 1.404 . S
C2893 H2905 0.930 . S
C2894 C2890 1.524 . S
C2894 H2906 0.956 . S
C2894 H2907 0.961 . S
C2894 H2908 0.961 . S
C2895 C2892 1.539 . S
C2895 H2909 0.958 . S
C2895 H2910 0.961 . S
C2895 H2911 0.960 . S
H2896 C2880 0.931 1_545 S
H2897 C2885 0.929 . S
H2898 C2886 0.960 . S
H2899 C2886 0.962 . S
H2900 C2886 0.960 . S
H2901 C2887 0.961 . S
H2902 C2887 0.961 . S
H2903 C2887 0.961 . S
H2904 C2888 0.931 . S
H2905 C2893 0.930 . S
H2906 C2894 0.956 . S
H2907 C2894 0.961 . S
H2908 C2894 0.961 . S
H2909 C2895 0.958 . S
H2910 C2895 0.961 . S
H2911 C2895 0.960 . S
C2912 C2913 1.391 . S
C2912 C2914 1.394 . S
C2912 H2928 0.931 . S
C2913 C2912 1.391 . S
C2913 C2917 1.376 . S
C2914 C2912 1.394 . S
C2914 C2915 1.369 . S
C2914 C2918 1.531 . S
C2915 C2914 1.369 . S
C2915 C2916 1.410 . S
C2915 C2923 1.503 . S
C2916 C2915 1.410 . S
C2916 C2917 1.392 . S
C2916 C2919 1.511 . S
C2917 C2913 1.376 . S
C2917 C2916 1.392 . S
C2917 H2929 0.929 . S
C2918 C2914 1.531 . S
C2918 H2930 0.960 . S
C2918 H2931 0.962 . S
C2918 H2932 0.960 . S
C2919 C2916 1.511 . S
C2919 H2933 0.961 . S
C2919 H2934 0.961 . S
C2919 H2935 0.961 . S
C2920 C2921 1.370 . S
C2920 C2922 1.363 . S
C2920 H2936 0.931 . S
C2921 C2920 1.370 . S
C2921 C2925 1.408 . S
C2922 C2920 1.363 . S
C2922 C2923 1.370 . S
C2922 C2926 1.524 . S
C2923 C2915 1.503 . S
C2923 C2922 1.370 . S
C2923 C2924 1.403 . S
C2924 C2923 1.403 . S
C2924 C2925 1.404 . S
C2924 C2927 1.539 . S
C2925 C2921 1.408 . S
C2925 C2924 1.404 . S
C2925 H2937 0.930 . S
C2926 C2922 1.524 . S
C2926 H2938 0.956 . S
C2926 H2939 0.961 . S
C2926 H2940 0.961 . S
C2927 C2924 1.539 . S
C2927 H2941 0.958 . S
C2927 H2942 0.961 . S
C2927 H2943 0.960 . S
H2928 C2912 0.931 . S
H2929 C2917 0.929 . S
H2930 C2918 0.960 . S
H2931 C2918 0.962 . S
H2932 C2918 0.960 . S
H2933 C2919 0.961 . S
H2934 C2919 0.961 . S
H2935 C2919 0.961 . S
H2936 C2920 0.931 . S
H2937 C2925 0.930 . S
H2938 C2926 0.956 . S
H2939 C2926 0.961 . S
H2940 C2926 0.961 . S
H2941 C2927 0.958 . S
H2942 C2927 0.961 . S
H2943 C2927 0.960 . S
C2944 C2945 1.391 . S
C2944 C2946 1.394 . S
C2944 H2960 0.931 . S
C2945 C2944 1.391 . S
C2945 C2949 1.376 . S
C2946 C2944 1.394 . S
C2946 C2947 1.369 . S
C2946 C2950 1.531 . S
C2947 C2946 1.369 . S
C2947 C2948 1.410 . S
C2947 C2955 1.503 . S
C2948 C2947 1.410 . S
C2948 C2949 1.392 . S
C2948 C2951 1.511 . S
C2949 C2945 1.376 . S
C2949 C2948 1.392 . S
C2949 H2961 0.929 1_655 S
C2950 C2946 1.531 . S
C2950 H2962 0.960 . S
C2950 H2963 0.962 . S
C2950 H2964 0.960 . S
C2951 C2948 1.511 . S
C2951 H2965 0.961 . S
C2951 H2966 0.961 . S
C2951 H2967 0.961 . S
C2952 C2953 1.370 . S
C2952 C2954 1.363 . S
C2952 H2968 0.931 . S
C2953 C2952 1.370 . S
C2953 C2957 1.408 . S
C2954 C2952 1.363 . S
C2954 C2955 1.370 . S
C2954 C2958 1.524 . S
C2955 C2947 1.503 . S
C2955 C2954 1.370 . S
C2955 C2956 1.403 . S
C2956 C2955 1.403 . S
C2956 C2957 1.404 . S
C2956 C2959 1.539 . S
C2957 C2953 1.408 . S
C2957 C2956 1.404 . S
C2957 H2969 0.930 . S
C2958 C2954 1.524 . S
C2958 H2970 0.956 . S
C2958 H2971 0.961 . S
C2958 H2972 0.961 . S
C2959 C2956 1.539 . S
C2959 H2973 0.958 . S
C2959 H2974 0.961 . S
C2959 H2975 0.960 . S
H2960 C2944 0.931 . S
H2961 C2949 0.929 1_455 S
H2962 C2950 0.960 . S
H2963 C2950 0.962 . S
H2964 C2950 0.960 . S
H2965 C2951 0.961 . S
H2966 C2951 0.961 . S
H2967 C2951 0.961 . S
H2968 C2952 0.931 . S
H2969 C2957 0.930 . S
H2970 C2958 0.956 . S
H2971 C2958 0.961 . S
H2972 C2958 0.961 . S
H2973 C2959 0.958 . S
H2974 C2959 0.961 . S
H2975 C2959 0.960 . S
C2976 C2977 1.391 . S
C2976 C2978 1.394 . S
C2976 H2992 0.931 . S
C2977 C2976 1.391 . S
C2977 C2981 1.376 . S
C2978 C2976 1.394 . S
C2978 C2979 1.369 . S
C2978 C2982 1.531 . S
C2979 C2978 1.369 . S
C2979 C2980 1.410 . S
C2979 C2987 1.503 . S
C2980 C2979 1.410 . S
C2980 C2981 1.392 . S
C2980 C2983 1.511 . S
C2981 C2977 1.376 . S
C2981 C2980 1.392 . S
C2981 H2993 0.929 . S
C2982 C2978 1.531 . S
C2982 H2994 0.960 . S
C2982 H2995 0.962 . S
C2982 H2996 0.960 . S
C2983 C2980 1.511 . S
C2983 H2997 0.961 . S
C2983 H2998 0.961 . S
C2983 H2999 0.961 . S
C2984 C2985 1.370 . S
C2984 C2986 1.363 . S
C2984 H3000 0.931 . S
C2985 C2984 1.370 . S
C2985 C2989 1.408 . S
C2986 C2984 1.363 . S
C2986 C2987 1.370 . S
C2986 C2990 1.524 . S
C2987 C2979 1.503 . S
C2987 C2986 1.370 . S
C2987 C2988 1.403 . S
C2988 C2987 1.403 . S
C2988 C2989 1.404 . S
C2988 C2991 1.539 . S
C2989 C2985 1.408 . S
C2989 C2988 1.404 . S
C2989 H3001 0.930 . S
C2990 C2986 1.524 . S
C2990 H3002 0.956 . S
C2990 H3003 0.961 . S
C2990 H3004 0.961 . S
C2991 C2988 1.539 . S
C2991 H3005 0.958 . S
C2991 H3006 0.961 . S
C2991 H3007 0.960 . S
H2992 C2976 0.931 . S
H2993 C2981 0.929 . S
H2994 C2982 0.960 . S
H2995 C2982 0.962 . S
H2996 C2982 0.960 . S
H2997 C2983 0.961 . S
H2998 C2983 0.961 . S
H2999 C2983 0.961 . S
H3000 C2984 0.931 . S
H3001 C2989 0.930 . S
H3002 C2990 0.956 . S
H3003 C2990 0.961 . S
H3004 C2990 0.961 . S
H3005 C2991 0.958 . S
H3006 C2991 0.961 . S
H3007 C2991 0.960 . S
C3008 C3009 1.391 . S
C3008 C3010 1.394 . S
C3008 H3024 0.931 . S
C3009 C3008 1.391 . S
C3009 C3013 1.376 . S
C3010 C3008 1.394 . S
C3010 C3011 1.369 . S
C3010 C3014 1.531 . S
C3011 C3010 1.369 . S
C3011 C3012 1.410 . S
C3011 C3019 1.503 . S
C3012 C3011 1.410 . S
C3012 C3013 1.392 . S
C3012 C3015 1.511 . S
C3013 C3009 1.376 . S
C3013 C3012 1.392 . S
C3013 H3025 0.929 . S
C3014 C3010 1.531 . S
C3014 H3026 0.960 . S
C3014 H3027 0.962 . S
C3014 H3028 0.960 . S
C3015 C3012 1.511 . S
C3015 H3029 0.961 . S
C3015 H3030 0.961 . S
C3015 H3031 0.961 . S
C3016 C3017 1.370 . S
C3016 C3018 1.363 . S
C3016 H3032 0.931 . S
C3017 C3016 1.370 . S
C3017 C3021 1.408 . S
C3018 C3016 1.363 . S
C3018 C3019 1.370 . S
C3018 C3022 1.524 . S
C3019 C3011 1.503 . S
C3019 C3018 1.370 . S
C3019 C3020 1.403 . S
C3020 C3019 1.403 . S
C3020 C3021 1.404 . S
C3020 C3023 1.539 . S
C3021 C3017 1.408 . S
C3021 C3020 1.404 . S
C3021 H3033 0.930 . S
C3022 C3018 1.524 . S
C3022 H3034 0.956 . S
C3022 H3035 0.961 . S
C3022 H3036 0.961 . S
C3023 C3020 1.539 . S
C3023 H3037 0.958 . S
C3023 H3038 0.961 . S
C3023 H3039 0.960 . S
H3024 C3008 0.931 . S
H3025 C3013 0.929 . S
H3026 C3014 0.960 . S
H3027 C3014 0.962 . S
H3028 C3014 0.960 . S
H3029 C3015 0.961 . S
H3030 C3015 0.961 . S
H3031 C3015 0.961 . S
H3032 C3016 0.931 . S
H3033 C3021 0.930 . S
H3034 C3022 0.956 . S
H3035 C3022 0.961 . S
H3036 C3022 0.961 . S
H3037 C3023 0.958 . S
H3038 C3023 0.961 . S
H3039 C3023 0.960 . S
C3040 C3041 1.391 . S
C3040 C3042 1.394 . S
C3040 H3056 0.931 . S
C3041 C3040 1.391 . S
C3041 C3045 1.376 . S
C3042 C3040 1.394 . S
C3042 C3043 1.369 . S
C3042 C3046 1.531 . S
C3043 C3042 1.369 . S
C3043 C3044 1.410 . S
C3043 C3051 1.503 . S
C3044 C3043 1.410 . S
C3044 C3045 1.392 . S
C3044 C3047 1.511 . S
C3045 C3041 1.376 . S
C3045 C3044 1.392 . S
C3045 H3057 0.929 . S
C3046 C3042 1.531 . S
C3046 H3058 0.960 . S
C3046 H3059 0.962 . S
C3046 H3060 0.960 . S
C3047 C3044 1.511 . S
C3047 H3061 0.961 . S
C3047 H3062 0.961 . S
C3047 H3063 0.961 . S
C3048 C3049 1.370 . S
C3048 C3050 1.363 . S
C3048 H3064 0.931 . S
C3049 C3048 1.370 . S
C3049 C3053 1.408 . S
C3050 C3048 1.363 . S
C3050 C3051 1.370 . S
C3050 C3054 1.524 . S
C3051 C3043 1.503 . S
C3051 C3050 1.370 . S
C3051 C3052 1.403 . S
C3052 C3051 1.403 . S
C3052 C3053 1.404 . S
C3052 C3055 1.539 . S
C3053 C3049 1.408 . S
C3053 C3052 1.404 . S
C3053 H3065 0.930 . S
C3054 C3050 1.524 . S
C3054 H3066 0.956 . S
C3054 H3067 0.961 . S
C3054 H3068 0.961 . S
C3055 C3052 1.539 . S
C3055 H3069 0.958 . S
C3055 H3070 0.961 . S
C3055 H3071 0.960 . S
H3056 C3040 0.931 . S
H3057 C3045 0.929 . S
H3058 C3046 0.960 . S
H3059 C3046 0.962 . S
H3060 C3046 0.960 . S
H3061 C3047 0.961 . S
H3062 C3047 0.961 . S
H3063 C3047 0.961 . S
H3064 C3048 0.931 . S
H3065 C3053 0.930 . S
H3066 C3054 0.956 . S
H3067 C3054 0.961 . S
H3068 C3054 0.961 . S
H3069 C3055 0.958 . S
H3070 C3055 0.961 . S
H3071 C3055 0.960 . S
C3072 C3073 1.391 . S
C3072 C3074 1.394 . S
C3072 H3088 0.931 . S
C3073 C3072 1.391 . S
C3073 C3077 1.376 . S
C3074 C3072 1.394 . S
C3074 C3075 1.369 . S
C3074 C3078 1.531 . S
C3075 C3074 1.369 . S
C3075 C3076 1.410 . S
C3075 C3083 1.503 . S
C3076 C3075 1.410 . S
C3076 C3077 1.392 . S
C3076 C3079 1.511 . S
C3077 C3073 1.376 . S
C3077 C3076 1.392 . S
C3077 H3089 0.929 . S
C3078 C3074 1.531 . S
C3078 H3090 0.960 . S
C3078 H3091 0.962 . S
C3078 H3092 0.960 . S
C3079 C3076 1.511 . S
C3079 H3093 0.961 . S
C3079 H3094 0.961 . S
C3079 H3095 0.961 . S
C3080 C3081 1.370 . S
C3080 C3082 1.363 . S
C3080 H3096 0.931 . S
C3081 C3080 1.370 . S
C3081 C3085 1.408 . S
C3082 C3080 1.363 . S
C3082 C3083 1.370 . S
C3082 C3086 1.524 . S
C3083 C3075 1.503 . S
C3083 C3082 1.370 . S
C3083 C3084 1.403 . S
C3084 C3083 1.403 . S
C3084 C3085 1.404 . S
C3084 C3087 1.539 . S
C3085 C3081 1.408 . S
C3085 C3084 1.404 . S
C3085 H3097 0.930 . S
C3086 C3082 1.524 . S
C3086 H3098 0.956 . S
C3086 H3099 0.961 . S
C3086 H3100 0.961 . S
C3087 C3084 1.539 . S
C3087 H3101 0.958 . S
C3087 H3102 0.961 . S
C3087 H3103 0.960 . S
H3088 C3072 0.931 . S
H3089 C3077 0.929 . S
H3090 C3078 0.960 . S
H3091 C3078 0.962 . S
H3092 C3078 0.960 . S
H3093 C3079 0.961 . S
H3094 C3079 0.961 . S
H3095 C3079 0.961 . S
H3096 C3080 0.931 . S
H3097 C3085 0.930 . S
H3098 C3086 0.956 . S
H3099 C3086 0.961 . S
H3100 C3086 0.961 . S
H3101 C3087 0.958 . S
H3102 C3087 0.961 . S
H3103 C3087 0.960 . S
C3104 C3105 1.391 . S
C3104 C3106 1.394 . S
C3104 H3120 0.931 . S
C3105 C3104 1.391 . S
C3105 C3109 1.376 . S
C3106 C3104 1.394 . S
C3106 C3107 1.369 . S
C3106 C3110 1.531 . S
C3107 C3106 1.369 . S
C3107 C3108 1.410 . S
C3107 C3115 1.503 . S
C3108 C3107 1.410 . S
C3108 C3109 1.392 . S
C3108 C3111 1.511 . S
C3109 C3105 1.376 . S
C3109 C3108 1.392 . S
C3109 H3121 0.929 . S
C3110 C3106 1.531 . S
C3110 H3122 0.960 . S
C3110 H3123 0.962 . S
C3110 H3124 0.960 . S
C3111 C3108 1.511 . S
C3111 H3125 0.961 . S
C3111 H3126 0.961 . S
C3111 H3127 0.961 . S
C3112 C3113 1.370 . S
C3112 C3114 1.363 . S
C3112 H3128 0.931 . S
C3113 C3112 1.370 . S
C3113 C3117 1.408 . S
C3114 C3112 1.363 . S
C3114 C3115 1.370 . S
C3114 C3118 1.524 . S
C3115 C3107 1.503 . S
C3115 C3114 1.370 . S
C3115 C3116 1.403 . S
C3116 C3115 1.403 . S
C3116 C3117 1.404 . S
C3116 C3119 1.539 . S
C3117 C3113 1.408 . S
C3117 C3116 1.404 . S
C3117 H3129 0.930 . S
C3118 C3114 1.524 . S
C3118 H3130 0.956 . S
C3118 H3131 0.961 . S
C3118 H3132 0.961 . S
C3119 C3116 1.539 . S
C3119 H3133 0.958 . S
C3119 H3134 0.961 . S
C3119 H3135 0.960 . S
H3120 C3104 0.931 . S
H3121 C3109 0.929 . S
H3122 C3110 0.960 . S
H3123 C3110 0.962 . S
H3124 C3110 0.960 . S
H3125 C3111 0.961 . S
H3126 C3111 0.961 . S
H3127 C3111 0.961 . S
H3128 C3112 0.931 . S
H3129 C3117 0.930 . S
H3130 C3118 0.956 . S
H3131 C3118 0.961 . S
H3132 C3118 0.961 . S
H3133 C3119 0.958 . S
H3134 C3119 0.961 . S
H3135 C3119 0.960 . S
C3136 C3137 1.391 . S
C3136 C3138 1.394 . S
C3136 H3152 0.931 . S
C3137 C3136 1.391 . S
C3137 C3141 1.376 . S
C3138 C3136 1.394 . S
C3138 C3139 1.369 . S
C3138 C3142 1.531 . S
C3139 C3138 1.369 . S
C3139 C3140 1.410 . S
C3139 C3147 1.503 . S
C3140 C3139 1.410 . S
C3140 C3141 1.392 . S
C3140 C3143 1.511 . S
C3141 C3137 1.376 . S
C3141 C3140 1.392 . S
C3141 H3153 0.929 . S
C3142 C3138 1.531 . S
C3142 H3154 0.960 . S
C3142 H3155 0.962 . S
C3142 H3156 0.960 . S
C3143 C3140 1.511 . S
C3143 H3157 0.961 . S
C3143 H3158 0.961 . S
C3143 H3159 0.961 . S
C3144 C3145 1.370 . S
C3144 C3146 1.363 . S
C3144 H3160 0.931 . S
C3145 C3144 1.370 . S
C3145 C3149 1.408 . S
C3146 C3144 1.363 . S
C3146 C3147 1.370 . S
C3146 C3150 1.524 . S
C3147 C3139 1.503 . S
C3147 C3146 1.370 . S
C3147 C3148 1.403 . S
C3148 C3147 1.403 . S
C3148 C3149 1.404 . S
C3148 C3151 1.539 . S
C3149 C3145 1.408 . S
C3149 C3148 1.404 . S
C3149 H3161 0.930 . S
C3150 C3146 1.524 . S
C3150 H3162 0.956 . S
C3150 H3163 0.961 . S
C3150 H3164 0.961 . S
C3151 C3148 1.539 . S
C3151 H3165 0.958 . S
C3151 H3166 0.961 . S
C3151 H3167 0.960 . S
H3152 C3136 0.931 . S
H3153 C3141 0.929 . S
H3154 C3142 0.960 . S
H3155 C3142 0.962 . S
H3156 C3142 0.960 . S
H3157 C3143 0.961 . S
H3158 C3143 0.961 . S
H3159 C3143 0.961 . S
H3160 C3144 0.931 . S
H3161 C3149 0.930 . S
H3162 C3150 0.956 . S
H3163 C3150 0.961 . S
H3164 C3150 0.961 . S
H3165 C3151 0.958 . S
H3166 C3151 0.961 . S
H3167 C3151 0.960 . S
C3168 C3169 1.391 . S
C3168 C3170 1.394 . S
C3168 H3184 0.931 . S
C3169 C3168 1.391 . S
C3169 C3173 1.376 . S
C3170 C3168 1.394 . S
C3170 C3171 1.369 . S
C3170 C3174 1.531 . S
C3171 C3170 1.369 . S
C3171 C3172 1.410 . S
C3171 C3179 1.503 . S
C3172 C3171 1.410 . S
C3172 C3173 1.392 . S
C3172 C3175 1.511 . S
C3173 C3169 1.376 . S
C3173 C3172 1.392 . S
C3173 H3185 0.929 . S
C3174 C3170 1.531 . S
C3174 H3186 0.960 . S
C3174 H3187 0.962 . S
C3174 H3188 0.960 . S
C3175 C3172 1.511 . S
C3175 H3189 0.961 . S
C3175 H3190 0.961 . S
C3175 H3191 0.961 . S
C3176 C3177 1.370 . S
C3176 C3178 1.363 . S
C3176 H3192 0.931 . S
C3177 C3176 1.370 . S
C3177 C3181 1.408 . S
C3178 C3176 1.363 . S
C3178 C3179 1.370 . S
C3178 C3182 1.524 . S
C3179 C3171 1.503 . S
C3179 C3178 1.370 . S
C3179 C3180 1.403 . S
C3180 C3179 1.403 . S
C3180 C3181 1.404 . S
C3180 C3183 1.539 . S
C3181 C3177 1.408 . S
C3181 C3180 1.404 . S
C3181 H3193 0.930 . S
C3182 C3178 1.524 . S
C3182 H3194 0.956 . S
C3182 H3195 0.961 . S
C3182 H3196 0.961 . S
C3183 C3180 1.539 . S
C3183 H3197 0.958 . S
C3183 H3198 0.961 . S
C3183 H3199 0.960 . S
H3184 C3168 0.931 . S
H3185 C3173 0.929 . S
H3186 C3174 0.960 . S
H3187 C3174 0.962 . S
H3188 C3174 0.960 . S
H3189 C3175 0.961 . S
H3190 C3175 0.961 . S
H3191 C3175 0.961 . S
H3192 C3176 0.931 . S
H3193 C3181 0.930 . S
H3194 C3182 0.956 . S
H3195 C3182 0.961 . S
H3196 C3182 0.961 . S
H3197 C3183 0.958 . S
H3198 C3183 0.961 . S
H3199 C3183 0.960 . S
C3200 C3201 1.391 . S
C3200 C3202 1.394 . S
C3200 H3216 0.931 . S
C3201 C3200 1.391 . S
C3201 C3205 1.376 . S
C3202 C3200 1.394 . S
C3202 C3203 1.369 . S
C3202 C3206 1.531 . S
C3203 C3202 1.369 . S
C3203 C3204 1.410 . S
C3203 C3211 1.503 . S
C3204 C3203 1.410 . S
C3204 C3205 1.392 . S
C3204 C3207 1.511 . S
C3205 C3201 1.376 . S
C3205 C3204 1.392 . S
C3205 H3217 0.929 . S
C3206 C3202 1.531 . S
C3206 H3218 0.960 . S
C3206 H3219 0.962 . S
C3206 H3220 0.960 . S
C3207 C3204 1.511 . S
C3207 H3221 0.961 . S
C3207 H3222 0.961 . S
C3207 H3223 0.961 . S
C3208 C3209 1.370 . S
C3208 C3210 1.363 . S
C3208 H3224 0.931 . S
C3209 C3208 1.370 . S
C3209 C3213 1.408 . S
C3210 C3208 1.363 . S
C3210 C3211 1.370 . S
C3210 C3214 1.524 . S
C3211 C3203 1.503 . S
C3211 C3210 1.370 . S
C3211 C3212 1.403 . S
C3212 C3211 1.403 . S
C3212 C3213 1.404 . S
C3212 C3215 1.539 . S
C3213 C3209 1.408 . S
C3213 C3212 1.404 . S
C3213 H3225 0.930 . S
C3214 C3210 1.524 . S
C3214 H3226 0.956 . S
C3214 H3227 0.961 . S
C3214 H3228 0.961 . S
C3215 C3212 1.539 . S
C3215 H3229 0.958 . S
C3215 H3230 0.961 . S
C3215 H3231 0.960 . S
H3216 C3200 0.931 . S
H3217 C3205 0.929 . S
H3218 C3206 0.960 . S
H3219 C3206 0.962 . S
H3220 C3206 0.960 . S
H3221 C3207 0.961 . S
H3222 C3207 0.961 . S
H3223 C3207 0.961 . S
H3224 C3208 0.931 . S
H3225 C3213 0.930 . S
H3226 C3214 0.956 . S
H3227 C3214 0.961 . S
H3228 C3214 0.961 . S
H3229 C3215 0.958 . S
H3230 C3215 0.961 . S
H3231 C3215 0.960 . S
C3232 C3233 1.391 . S
C3232 C3234 1.394 . S
C3232 H3248 0.931 . S
C3233 C3232 1.391 . S
C3233 C3237 1.376 . S
C3234 C3232 1.394 . S
C3234 C3235 1.369 . S
C3234 C3238 1.531 . S
C3235 C3234 1.369 . S
C3235 C3236 1.410 . S
C3235 C3243 1.503 . S
C3236 C3235 1.410 . S
C3236 C3237 1.392 . S
C3236 C3239 1.511 . S
C3237 C3233 1.376 . S
C3237 C3236 1.392 . S
C3237 H3249 0.929 . S
C3238 C3234 1.531 . S
C3238 H3250 0.960 . S
C3238 H3251 0.962 . S
C3238 H3252 0.960 . S
C3239 C3236 1.511 . S
C3239 H3253 0.961 . S
C3239 H3254 0.961 . S
C3239 H3255 0.961 . S
C3240 C3241 1.370 . S
C3240 C3242 1.363 . S
C3240 H3256 0.931 . S
C3241 C3240 1.370 . S
C3241 C3245 1.408 . S
C3242 C3240 1.363 . S
C3242 C3243 1.370 . S
C3242 C3246 1.524 . S
C3243 C3235 1.503 . S
C3243 C3242 1.370 . S
C3243 C3244 1.403 . S
C3244 C3243 1.403 . S
C3244 C3245 1.404 . S
C3244 C3247 1.539 . S
C3245 C3241 1.408 . S
C3245 C3244 1.404 . S
C3245 H3257 0.930 . S
C3246 C3242 1.524 . S
C3246 H3258 0.956 . S
C3246 H3259 0.961 . S
C3246 H3260 0.961 . S
C3247 C3244 1.539 . S
C3247 H3261 0.958 . S
C3247 H3262 0.961 . S
C3247 H3263 0.960 . S
H3248 C3232 0.931 . S
H3249 C3237 0.929 . S
H3250 C3238 0.960 . S
H3251 C3238 0.962 . S
H3252 C3238 0.960 . S
H3253 C3239 0.961 . S
H3254 C3239 0.961 . S
H3255 C3239 0.961 . S
H3256 C3240 0.931 . S
H3257 C3245 0.930 . S
H3258 C3246 0.956 . S
H3259 C3246 0.961 . S
H3260 C3246 0.961 . S
H3261 C3247 0.958 . S
H3262 C3247 0.961 . S
H3263 C3247 0.960 . S
C3264 C3265 1.391 . S
C3264 C3266 1.394 . S
C3264 H3280 0.931 . S
C3265 C3264 1.391 . S
C3265 C3269 1.376 . S
C3266 C3264 1.394 . S
C3266 C3267 1.369 . S
C3266 C3270 1.531 . S
C3267 C3266 1.369 . S
C3267 C3268 1.410 . S
C3267 C3275 1.503 . S
C3268 C3267 1.410 . S
C3268 C3269 1.392 . S
C3268 C3271 1.511 . S
C3269 C3265 1.376 . S
C3269 C3268 1.392 . S
C3269 H3281 0.929 . S
C3270 C3266 1.531 . S
C3270 H3282 0.960 . S
C3270 H3283 0.962 . S
C3270 H3284 0.960 . S
C3271 C3268 1.511 . S
C3271 H3285 0.961 . S
C3271 H3286 0.961 . S
C3271 H3287 0.961 . S
C3272 C3273 1.370 . S
C3272 C3274 1.363 . S
C3272 H3288 0.931 . S
C3273 C3272 1.370 . S
C3273 C3277 1.408 . S
C3274 C3272 1.363 . S
C3274 C3275 1.370 . S
C3274 C3278 1.524 . S
C3275 C3267 1.503 . S
C3275 C3274 1.370 . S
C3275 C3276 1.403 . S
C3276 C3275 1.403 . S
C3276 C3277 1.404 . S
C3276 C3279 1.539 . S
C3277 C3273 1.408 . S
C3277 C3276 1.404 . S
C3277 H3289 0.930 . S
C3278 C3274 1.524 . S
C3278 H3290 0.956 . S
C3278 H3291 0.961 . S
C3278 H3292 0.961 . S
C3279 C3276 1.539 . S
C3279 H3293 0.958 . S
C3279 H3294 0.961 . S
C3279 H3295 0.960 . S
H3280 C3264 0.931 . S
H3281 C3269 0.929 . S
H3282 C3270 0.960 . S
H3283 C3270 0.962 . S
H3284 C3270 0.960 . S
H3285 C3271 0.961 . S
H3286 C3271 0.961 . S
H3287 C3271 0.961 . S
H3288 C3272 0.931 . S
H3289 C3277 0.930 . S
H3290 C3278 0.956 . S
H3291 C3278 0.961 . S
H3292 C3278 0.961 . S
H3293 C3279 0.958 . S
H3294 C3279 0.961 . S
H3295 C3279 0.960 . S
C3296 C3297 1.391 . S
C3296 C3298 1.394 . S
C3296 H3312 0.931 . S
C3297 C3296 1.391 . S
C3297 C3301 1.376 . S
C3298 C3296 1.394 . S
C3298 C3299 1.369 . S
C3298 C3302 1.531 . S
C3299 C3298 1.369 . S
C3299 C3300 1.410 . S
C3299 C3307 1.503 . S
C3300 C3299 1.410 . S
C3300 C3301 1.392 . S
C3300 C3303 1.511 . S
C3301 C3297 1.376 . S
C3301 C3300 1.392 . S
C3301 H3313 0.929 . S
C3302 C3298 1.531 . S
C3302 H3314 0.960 . S
C3302 H3315 0.962 . S
C3302 H3316 0.960 . S
C3303 C3300 1.511 . S
C3303 H3317 0.961 . S
C3303 H3318 0.961 . S
C3303 H3319 0.961 . S
C3304 C3305 1.370 . S
C3304 C3306 1.363 . S
C3304 H3320 0.931 . S
C3305 C3304 1.370 . S
C3305 C3309 1.408 . S
C3306 C3304 1.363 . S
C3306 C3307 1.370 . S
C3306 C3310 1.524 . S
C3307 C3299 1.503 . S
C3307 C3306 1.370 . S
C3307 C3308 1.403 . S
C3308 C3307 1.403 . S
C3308 C3309 1.404 . S
C3308 C3311 1.539 . S
C3309 C3305 1.408 . S
C3309 C3308 1.404 . S
C3309 H3321 0.930 . S
C3310 C3306 1.524 . S
C3310 H3322 0.956 . S
C3310 H3323 0.961 . S
C3310 H3324 0.961 . S
C3311 C3308 1.539 . S
C3311 H3325 0.958 . S
C3311 H3326 0.961 . S
C3311 H3327 0.960 . S
H3312 C3296 0.931 . S
H3313 C3301 0.929 . S
H3314 C3302 0.960 . S
H3315 C3302 0.962 . S
H3316 C3302 0.960 . S
H3317 C3303 0.961 . S
H3318 C3303 0.961 . S
H3319 C3303 0.961 . S
H3320 C3304 0.931 . S
H3321 C3309 0.930 . S
H3322 C3310 0.956 . S
H3323 C3310 0.961 . S
H3324 C3310 0.961 . S
H3325 C3311 0.958 . S
H3326 C3311 0.961 . S
H3327 C3311 0.960 . S
C3328 C3329 1.391 . S
C3328 C3330 1.394 . S
C3328 H3344 0.931 . S
C3329 C3328 1.391 . S
C3329 C3333 1.376 . S
C3330 C3328 1.394 . S
C3330 C3331 1.369 . S
C3330 C3334 1.531 . S
C3331 C3330 1.369 . S
C3331 C3332 1.410 . S
C3331 C3339 1.503 . S
C3332 C3331 1.410 . S
C3332 C3333 1.392 . S
C3332 C3335 1.511 . S
C3333 C3329 1.376 . S
C3333 C3332 1.392 . S
C3333 H3345 0.929 . S
C3334 C3330 1.531 . S
C3334 H3346 0.960 . S
C3334 H3347 0.962 . S
C3334 H3348 0.960 . S
C3335 C3332 1.511 . S
C3335 H3349 0.961 . S
C3335 H3350 0.961 . S
C3335 H3351 0.961 . S
C3336 C3337 1.370 . S
C3336 C3338 1.363 . S
C3336 H3352 0.931 . S
C3337 C3336 1.370 . S
C3337 C3341 1.408 . S
C3338 C3336 1.363 . S
C3338 C3339 1.370 . S
C3338 C3342 1.524 . S
C3339 C3331 1.503 . S
C3339 C3338 1.370 . S
C3339 C3340 1.403 . S
C3340 C3339 1.403 . S
C3340 C3341 1.404 . S
C3340 C3343 1.539 . S
C3341 C3337 1.408 . S
C3341 C3340 1.404 . S
C3341 H3353 0.930 . S
C3342 C3338 1.524 . S
C3342 H3354 0.956 . S
C3342 H3355 0.961 . S
C3342 H3356 0.961 . S
C3343 C3340 1.539 . S
C3343 H3357 0.958 . S
C3343 H3358 0.961 . S
C3343 H3359 0.960 . S
H3344 C3328 0.931 . S
H3345 C3333 0.929 . S
H3346 C3334 0.960 . S
H3347 C3334 0.962 . S
H3348 C3334 0.960 . S
H3349 C3335 0.961 . S
H3350 C3335 0.961 . S
H3351 C3335 0.961 . S
H3352 C3336 0.931 . S
H3353 C3341 0.930 . S
H3354 C3342 0.956 . S
H3355 C3342 0.961 . S
H3356 C3342 0.961 . S
H3357 C3343 0.958 . S
H3358 C3343 0.961 . S
H3359 C3343 0.960 . S
C3360 C3361 1.391 . S
C3360 C3362 1.394 . S
C3360 H3376 0.931 . S
C3361 C3360 1.391 . S
C3361 C3365 1.376 . S
C3362 C3360 1.394 . S
C3362 C3363 1.369 . S
C3362 C3366 1.531 . S
C3363 C3362 1.369 . S
C3363 C3364 1.410 . S
C3363 C3371 1.503 . S
C3364 C3363 1.410 . S
C3364 C3365 1.392 . S
C3364 C3367 1.511 . S
C3365 C3361 1.376 . S
C3365 C3364 1.392 . S
C3365 H3377 0.929 . S
C3366 C3362 1.531 . S
C3366 H3378 0.960 . S
C3366 H3379 0.962 . S
C3366 H3380 0.960 . S
C3367 C3364 1.511 . S
C3367 H3381 0.961 . S
C3367 H3382 0.961 . S
C3367 H3383 0.961 . S
C3368 C3369 1.370 . S
C3368 C3370 1.363 . S
C3368 H3384 0.931 . S
C3369 C3368 1.370 . S
C3369 C3373 1.408 . S
C3370 C3368 1.363 . S
C3370 C3371 1.370 . S
C3370 C3374 1.524 . S
C3371 C3363 1.503 . S
C3371 C3370 1.370 . S
C3371 C3372 1.403 . S
C3372 C3371 1.403 . S
C3372 C3373 1.404 . S
C3372 C3375 1.539 . S
C3373 C3369 1.408 . S
C3373 C3372 1.404 . S
C3373 H3385 0.930 . S
C3374 C3370 1.524 . S
C3374 H3386 0.956 . S
C3374 H3387 0.961 . S
C3374 H3388 0.961 . S
C3375 C3372 1.539 . S
C3375 H3389 0.958 . S
C3375 H3390 0.961 . S
C3375 H3391 0.960 . S
H3376 C3360 0.931 . S
H3377 C3365 0.929 . S
H3378 C3366 0.960 . S
H3379 C3366 0.962 . S
H3380 C3366 0.960 . S
H3381 C3367 0.961 . S
H3382 C3367 0.961 . S
H3383 C3367 0.961 . S
H3384 C3368 0.931 . S
H3385 C3373 0.930 . S
H3386 C3374 0.956 . S
H3387 C3374 0.961 . S
H3388 C3374 0.961 . S
H3389 C3375 0.958 . S
H3390 C3375 0.961 . S
H3391 C3375 0.960 . S
C3392 C3393 1.391 . S
C3392 C3394 1.394 . S
C3392 H3408 0.931 . S
C3393 C3392 1.391 . S
C3393 C3397 1.376 . S
C3394 C3392 1.394 . S
C3394 C3395 1.369 . S
C3394 C3398 1.531 . S
C3395 C3394 1.369 . S
C3395 C3396 1.410 . S
C3395 C3403 1.503 . S
C3396 C3395 1.410 . S
C3396 C3397 1.392 . S
C3396 C3399 1.511 . S
C3397 C3393 1.376 . S
C3397 C3396 1.392 . S
C3397 H3409 0.929 . S
C3398 C3394 1.531 . S
C3398 H3410 0.960 . S
C3398 H3411 0.962 . S
C3398 H3412 0.960 . S
C3399 C3396 1.511 . S
C3399 H3413 0.961 . S
C3399 H3414 0.961 . S
C3399 H3415 0.961 . S
C3400 C3401 1.370 . S
C3400 C3402 1.363 . S
C3400 H3416 0.931 . S
C3401 C3400 1.370 . S
C3401 C3405 1.408 . S
C3402 C3400 1.363 . S
C3402 C3403 1.370 . S
C3402 C3406 1.524 . S
C3403 C3395 1.503 . S
C3403 C3402 1.370 . S
C3403 C3404 1.403 . S
C3404 C3403 1.403 . S
C3404 C3405 1.404 . S
C3404 C3407 1.539 . S
C3405 C3401 1.408 . S
C3405 C3404 1.404 . S
C3405 H3417 0.930 . S
C3406 C3402 1.524 . S
C3406 H3418 0.956 . S
C3406 H3419 0.961 . S
C3406 H3420 0.961 . S
C3407 C3404 1.539 . S
C3407 H3421 0.958 . S
C3407 H3422 0.961 . S
C3407 H3423 0.960 . S
H3408 C3392 0.931 . S
H3409 C3397 0.929 . S
H3410 C3398 0.960 . S
H3411 C3398 0.962 . S
H3412 C3398 0.960 . S
H3413 C3399 0.961 . S
H3414 C3399 0.961 . S
H3415 C3399 0.961 . S
H3416 C3400 0.931 . S
H3417 C3405 0.930 . S
H3418 C3406 0.956 . S
H3419 C3406 0.961 . S
H3420 C3406 0.961 . S
H3421 C3407 0.958 . S
H3422 C3407 0.961 . S
H3423 C3407 0.960 . S
C3424 C3425 1.391 . S
C3424 C3426 1.394 . S
C3424 H3440 0.931 . S
C3425 C3424 1.391 . S
C3425 C3429 1.376 . S
C3426 C3424 1.394 . S
C3426 C3427 1.369 . S
C3426 C3430 1.531 . S
C3427 C3426 1.369 . S
C3427 C3428 1.410 . S
C3427 C3435 1.503 . S
C3428 C3427 1.410 . S
C3428 C3429 1.392 . S
C3428 C3431 1.511 . S
C3429 C3425 1.376 . S
C3429 C3428 1.392 . S
C3429 H3441 0.929 . S
C3430 C3426 1.531 . S
C3430 H3442 0.960 . S
C3430 H3443 0.962 . S
C3430 H3444 0.960 . S
C3431 C3428 1.511 . S
C3431 H3445 0.961 . S
C3431 H3446 0.961 . S
C3431 H3447 0.961 . S
C3432 C3433 1.370 . S
C3432 C3434 1.363 . S
C3432 H3448 0.931 . S
C3433 C3432 1.370 . S
C3433 C3437 1.408 . S
C3434 C3432 1.363 . S
C3434 C3435 1.370 . S
C3434 C3438 1.524 . S
C3435 C3427 1.503 . S
C3435 C3434 1.370 . S
C3435 C3436 1.403 . S
C3436 C3435 1.403 . S
C3436 C3437 1.404 . S
C3436 C3439 1.539 . S
C3437 C3433 1.408 . S
C3437 C3436 1.404 . S
C3437 H3449 0.930 . S
C3438 C3434 1.524 . S
C3438 H3450 0.956 . S
C3438 H3451 0.961 . S
C3438 H3452 0.961 . S
C3439 C3436 1.539 . S
C3439 H3453 0.958 . S
C3439 H3454 0.961 . S
C3439 H3455 0.960 . S
H3440 C3424 0.931 . S
H3441 C3429 0.929 . S
H3442 C3430 0.960 . S
H3443 C3430 0.962 . S
H3444 C3430 0.960 . S
H3445 C3431 0.961 . S
H3446 C3431 0.961 . S
H3447 C3431 0.961 . S
H3448 C3432 0.931 . S
H3449 C3437 0.930 . S
H3450 C3438 0.956 . S
H3451 C3438 0.961 . S
H3452 C3438 0.961 . S
H3453 C3439 0.958 . S
H3454 C3439 0.961 . S
H3455 C3439 0.960 . S
C3456 C3457 1.391 . S
C3456 C3458 1.394 . S
C3456 H3472 0.931 . S
C3457 C3456 1.391 . S
C3457 C3461 1.376 . S
C3458 C3456 1.394 . S
C3458 C3459 1.369 . S
C3458 C3462 1.531 . S
C3459 C3458 1.369 . S
C3459 C3460 1.410 . S
C3459 C3467 1.503 . S
C3460 C3459 1.410 . S
C3460 C3461 1.392 . S
C3460 C3463 1.511 . S
C3461 C3457 1.376 . S
C3461 C3460 1.392 . S
C3461 H3473 0.929 . S
C3462 C3458 1.531 . S
C3462 H3474 0.960 . S
C3462 H3475 0.962 . S
C3462 H3476 0.960 . S
C3463 C3460 1.511 . S
C3463 H3477 0.961 . S
C3463 H3478 0.961 . S
C3463 H3479 0.961 . S
C3464 C3465 1.370 . S
C3464 C3466 1.363 . S
C3464 H3480 0.931 . S
C3465 C3464 1.370 . S
C3465 C3469 1.408 . S
C3466 C3464 1.363 . S
C3466 C3467 1.370 . S
C3466 C3470 1.524 . S
C3467 C3459 1.503 . S
C3467 C3466 1.370 . S
C3467 C3468 1.403 . S
C3468 C3467 1.403 . S
C3468 C3469 1.404 . S
C3468 C3471 1.539 . S
C3469 C3465 1.408 . S
C3469 C3468 1.404 . S
C3469 H3481 0.930 . S
C3470 C3466 1.524 . S
C3470 H3482 0.956 . S
C3470 H3483 0.961 . S
C3470 H3484 0.961 . S
C3471 C3468 1.539 . S
C3471 H3485 0.958 . S
C3471 H3486 0.961 . S
C3471 H3487 0.960 . S
H3472 C3456 0.931 . S
H3473 C3461 0.929 . S
H3474 C3462 0.960 . S
H3475 C3462 0.962 . S
H3476 C3462 0.960 . S
H3477 C3463 0.961 . S
H3478 C3463 0.961 . S
H3479 C3463 0.961 . S
H3480 C3464 0.931 . S
H3481 C3469 0.930 . S
H3482 C3470 0.956 . S
H3483 C3470 0.961 . S
H3484 C3470 0.961 . S
H3485 C3471 0.958 . S
H3486 C3471 0.961 . S
H3487 C3471 0.960 . S
C3488 C3489 1.391 . S
C3488 C3490 1.394 . S
C3488 H3504 0.931 . S
C3489 C3488 1.391 . S
C3489 C3493 1.376 . S
C3490 C3488 1.394 . S
C3490 C3491 1.369 . S
C3490 C3494 1.531 . S
C3491 C3490 1.369 . S
C3491 C3492 1.410 . S
C3491 C3499 1.503 . S
C3492 C3491 1.410 . S
C3492 C3493 1.392 . S
C3492 C3495 1.511 . S
C3493 C3489 1.376 . S
C3493 C3492 1.392 . S
C3493 H3505 0.929 . S
C3494 C3490 1.531 . S
C3494 H3506 0.960 . S
C3494 H3507 0.962 . S
C3494 H3508 0.960 . S
C3495 C3492 1.511 . S
C3495 H3509 0.961 . S
C3495 H3510 0.961 . S
C3495 H3511 0.961 . S
C3496 C3497 1.370 . S
C3496 C3498 1.363 . S
C3496 H3512 0.931 . S
C3497 C3496 1.370 . S
C3497 C3501 1.408 . S
C3498 C3496 1.363 . S
C3498 C3499 1.370 . S
C3498 C3502 1.524 . S
C3499 C3491 1.503 . S
C3499 C3498 1.370 . S
C3499 C3500 1.403 . S
C3500 C3499 1.403 . S
C3500 C3501 1.404 . S
C3500 C3503 1.539 . S
C3501 C3497 1.408 . S
C3501 C3500 1.404 . S
C3501 H3513 0.930 . S
C3502 C3498 1.524 . S
C3502 H3514 0.956 . S
C3502 H3515 0.961 . S
C3502 H3516 0.961 . S
C3503 C3500 1.539 . S
C3503 H3517 0.958 . S
C3503 H3518 0.961 . S
C3503 H3519 0.960 . S
H3504 C3488 0.931 . S
H3505 C3493 0.929 . S
H3506 C3494 0.960 . S
H3507 C3494 0.962 . S
H3508 C3494 0.960 . S
H3509 C3495 0.961 . S
H3510 C3495 0.961 . S
H3511 C3495 0.961 . S
H3512 C3496 0.931 . S
H3513 C3501 0.930 . S
H3514 C3502 0.956 . S
H3515 C3502 0.961 . S
H3516 C3502 0.961 . S
H3517 C3503 0.958 . S
H3518 C3503 0.961 . S
H3519 C3503 0.960 . S
C3520 C3521 1.391 . S
C3520 C3522 1.394 . S
C3520 H3536 0.931 . S
C3521 C3520 1.391 . S
C3521 C3525 1.376 . S
C3522 C3520 1.394 . S
C3522 C3523 1.369 . S
C3522 C3526 1.531 . S
C3523 C3522 1.369 . S
C3523 C3524 1.410 . S
C3523 C3531 1.503 . S
C3524 C3523 1.410 . S
C3524 C3525 1.392 . S
C3524 C3527 1.511 . S
C3525 C3521 1.376 . S
C3525 C3524 1.392 . S
C3525 H3537 0.929 . S
C3526 C3522 1.531 . S
C3526 H3538 0.960 . S
C3526 H3539 0.962 . S
C3526 H3540 0.960 . S
C3527 C3524 1.511 . S
C3527 H3541 0.961 . S
C3527 H3542 0.961 . S
C3527 H3543 0.961 . S
C3528 C3529 1.370 . S
C3528 C3530 1.363 . S
C3528 H3544 0.931 . S
C3529 C3528 1.370 . S
C3529 C3533 1.408 . S
C3530 C3528 1.363 . S
C3530 C3531 1.370 . S
C3530 C3534 1.524 . S
C3531 C3523 1.503 . S
C3531 C3530 1.370 . S
C3531 C3532 1.403 . S
C3532 C3531 1.403 . S
C3532 C3533 1.404 . S
C3532 C3535 1.539 . S
C3533 C3529 1.408 . S
C3533 C3532 1.404 . S
C3533 H3545 0.930 . S
C3534 C3530 1.524 . S
C3534 H3546 0.956 . S
C3534 H3547 0.961 . S
C3534 H3548 0.961 . S
C3535 C3532 1.539 . S
C3535 H3549 0.958 . S
C3535 H3550 0.961 . S
C3535 H3551 0.960 . S
H3536 C3520 0.931 . S
H3537 C3525 0.929 . S
H3538 C3526 0.960 . S
H3539 C3526 0.962 . S
H3540 C3526 0.960 . S
H3541 C3527 0.961 . S
H3542 C3527 0.961 . S
H3543 C3527 0.961 . S
H3544 C3528 0.931 . S
H3545 C3533 0.930 . S
H3546 C3534 0.956 . S
H3547 C3534 0.961 . S
H3548 C3534 0.961 . S
H3549 C3535 0.958 . S
H3550 C3535 0.961 . S
H3551 C3535 0.960 . S
C3552 C3553 1.391 . S
C3552 C3554 1.394 . S
C3552 H3568 0.931 . S
C3553 C3552 1.391 . S
C3553 C3557 1.376 . S
C3554 C3552 1.394 . S
C3554 C3555 1.369 . S
C3554 C3558 1.531 . S
C3555 C3554 1.369 . S
C3555 C3556 1.410 . S
C3555 C3563 1.503 . S
C3556 C3555 1.410 . S
C3556 C3557 1.392 . S
C3556 C3559 1.511 . S
C3557 C3553 1.376 . S
C3557 C3556 1.392 . S
C3557 H3569 0.929 . S
C3558 C3554 1.531 . S
C3558 H3570 0.960 . S
C3558 H3571 0.962 . S
C3558 H3572 0.960 . S
C3559 C3556 1.511 . S
C3559 H3573 0.961 . S
C3559 H3574 0.961 . S
C3559 H3575 0.961 . S
C3560 C3561 1.370 . S
C3560 C3562 1.363 . S
C3560 H3576 0.931 . S
C3561 C3560 1.370 . S
C3561 C3565 1.408 . S
C3562 C3560 1.363 . S
C3562 C3563 1.370 . S
C3562 C3566 1.524 . S
C3563 C3555 1.503 . S
C3563 C3562 1.370 . S
C3563 C3564 1.403 . S
C3564 C3563 1.403 . S
C3564 C3565 1.404 . S
C3564 C3567 1.539 . S
C3565 C3561 1.408 . S
C3565 C3564 1.404 . S
C3565 H3577 0.930 . S
C3566 C3562 1.524 . S
C3566 H3578 0.956 . S
C3566 H3579 0.961 . S
C3566 H3580 0.961 . S
C3567 C3564 1.539 . S
C3567 H3581 0.958 . S
C3567 H3582 0.961 . S
C3567 H3583 0.960 . S
H3568 C3552 0.931 . S
H3569 C3557 0.929 . S
H3570 C3558 0.960 . S
H3571 C3558 0.962 . S
H3572 C3558 0.960 . S
H3573 C3559 0.961 . S
H3574 C3559 0.961 . S
H3575 C3559 0.961 . S
H3576 C3560 0.931 . S
H3577 C3565 0.930 . S
H3578 C3566 0.956 . S
H3579 C3566 0.961 . S
H3580 C3566 0.961 . S
H3581 C3567 0.958 . S
H3582 C3567 0.961 . S
H3583 C3567 0.960 . S
C3584 C3585 1.391 . S
C3584 C3586 1.394 . S
C3584 H3600 0.931 . S
C3585 C3584 1.391 . S
C3585 C3589 1.376 . S
C3586 C3584 1.394 . S
C3586 C3587 1.369 . S
C3586 C3590 1.531 . S
C3587 C3586 1.369 . S
C3587 C3588 1.410 . S
C3587 C3595 1.503 . S
C3588 C3587 1.410 . S
C3588 C3589 1.392 . S
C3588 C3591 1.511 . S
C3589 C3585 1.376 . S
C3589 C3588 1.392 . S
C3589 H3601 0.929 . S
C3590 C3586 1.531 . S
C3590 H3602 0.960 . S
C3590 H3603 0.962 . S
C3590 H3604 0.960 . S
C3591 C3588 1.511 . S
C3591 H3605 0.961 . S
C3591 H3606 0.961 . S
C3591 H3607 0.961 . S
C3592 C3593 1.370 . S
C3592 C3594 1.363 . S
C3592 H3608 0.931 . S
C3593 C3592 1.370 . S
C3593 C3597 1.408 . S
C3594 C3592 1.363 . S
C3594 C3595 1.370 . S
C3594 C3598 1.524 . S
C3595 C3587 1.503 . S
C3595 C3594 1.370 . S
C3595 C3596 1.403 . S
C3596 C3595 1.403 . S
C3596 C3597 1.404 . S
C3596 C3599 1.539 . S
C3597 C3593 1.408 . S
C3597 C3596 1.404 . S
C3597 H3609 0.930 . S
C3598 C3594 1.524 . S
C3598 H3610 0.956 . S
C3598 H3611 0.961 . S
C3598 H3612 0.961 . S
C3599 C3596 1.539 . S
C3599 H3613 0.958 . S
C3599 H3614 0.961 . S
C3599 H3615 0.960 . S
H3600 C3584 0.931 . S
H3601 C3589 0.929 . S
H3602 C3590 0.960 . S
H3603 C3590 0.962 . S
H3604 C3590 0.960 . S
H3605 C3591 0.961 . S
H3606 C3591 0.961 . S
H3607 C3591 0.961 . S
H3608 C3592 0.931 . S
H3609 C3597 0.930 . S
H3610 C3598 0.956 . S
H3611 C3598 0.961 . S
H3612 C3598 0.961 . S
H3613 C3599 0.958 . S
H3614 C3599 0.961 . S
H3615 C3599 0.960 . S
C3616 C3617 1.391 . S
C3616 C3618 1.394 . S
C3616 H3632 0.931 . S
C3617 C3616 1.391 . S
C3617 C3621 1.376 . S
C3618 C3616 1.394 . S
C3618 C3619 1.369 . S
C3618 C3622 1.531 . S
C3619 C3618 1.369 . S
C3619 C3620 1.410 . S
C3619 C3627 1.503 . S
C3620 C3619 1.410 . S
C3620 C3621 1.392 . S
C3620 C3623 1.511 . S
C3621 C3617 1.376 . S
C3621 C3620 1.392 . S
C3621 H3633 0.929 . S
C3622 C3618 1.531 . S
C3622 H3634 0.960 . S
C3622 H3635 0.962 . S
C3622 H3636 0.960 . S
C3623 C3620 1.511 . S
C3623 H3637 0.961 . S
C3623 H3638 0.961 . S
C3623 H3639 0.961 . S
C3624 C3625 1.370 . S
C3624 C3626 1.363 . S
C3624 H3640 0.931 . S
C3625 C3624 1.370 . S
C3625 C3629 1.408 . S
C3626 C3624 1.363 . S
C3626 C3627 1.370 . S
C3626 C3630 1.524 . S
C3627 C3619 1.503 . S
C3627 C3626 1.370 . S
C3627 C3628 1.403 . S
C3628 C3627 1.403 . S
C3628 C3629 1.404 . S
C3628 C3631 1.539 . S
C3629 C3625 1.408 . S
C3629 C3628 1.404 . S
C3629 H3641 0.930 . S
C3630 C3626 1.524 . S
C3630 H3642 0.956 . S
C3630 H3643 0.961 . S
C3630 H3644 0.961 . S
C3631 C3628 1.539 . S
C3631 H3645 0.958 . S
C3631 H3646 0.961 . S
C3631 H3647 0.960 . S
H3632 C3616 0.931 . S
H3633 C3621 0.929 . S
H3634 C3622 0.960 . S
H3635 C3622 0.962 . S
H3636 C3622 0.960 . S
H3637 C3623 0.961 . S
H3638 C3623 0.961 . S
H3639 C3623 0.961 . S
H3640 C3624 0.931 . S
H3641 C3629 0.930 . S
H3642 C3630 0.956 . S
H3643 C3630 0.961 . S
H3644 C3630 0.961 . S
H3645 C3631 0.958 . S
H3646 C3631 0.961 . S
H3647 C3631 0.960 . S
C3648 C3649 1.391 . S
C3648 C3650 1.394 . S
C3648 H3664 0.931 . S
C3649 C3648 1.391 . S
C3649 C3653 1.376 . S
C3650 C3648 1.394 . S
C3650 C3651 1.369 . S
C3650 C3654 1.531 . S
C3651 C3650 1.369 . S
C3651 C3652 1.410 . S
C3651 C3659 1.503 . S
C3652 C3651 1.410 . S
C3652 C3653 1.392 . S
C3652 C3655 1.511 . S
C3653 C3649 1.376 . S
C3653 C3652 1.392 . S
C3653 H3665 0.929 . S
C3654 C3650 1.531 . S
C3654 H3666 0.960 . S
C3654 H3667 0.962 . S
C3654 H3668 0.960 . S
C3655 C3652 1.511 . S
C3655 H3669 0.961 . S
C3655 H3670 0.961 . S
C3655 H3671 0.961 . S
C3656 C3657 1.370 . S
C3656 C3658 1.363 . S
C3656 H3672 0.931 . S
C3657 C3656 1.370 . S
C3657 C3661 1.408 . S
C3658 C3656 1.363 . S
C3658 C3659 1.370 . S
C3658 C3662 1.524 . S
C3659 C3651 1.503 . S
C3659 C3658 1.370 . S
C3659 C3660 1.403 . S
C3660 C3659 1.403 . S
C3660 C3661 1.404 . S
C3660 C3663 1.539 . S
C3661 C3657 1.408 . S
C3661 C3660 1.404 . S
C3661 H3673 0.930 . S
C3662 C3658 1.524 . S
C3662 H3674 0.956 . S
C3662 H3675 0.961 . S
C3662 H3676 0.961 . S
C3663 C3660 1.539 . S
C3663 H3677 0.958 . S
C3663 H3678 0.961 . S
C3663 H3679 0.960 . S
H3664 C3648 0.931 . S
H3665 C3653 0.929 . S
H3666 C3654 0.960 . S
H3667 C3654 0.962 . S
H3668 C3654 0.960 . S
H3669 C3655 0.961 . S
H3670 C3655 0.961 . S
H3671 C3655 0.961 . S
H3672 C3656 0.931 . S
H3673 C3661 0.930 . S
H3674 C3662 0.956 . S
H3675 C3662 0.961 . S
H3676 C3662 0.961 . S
H3677 C3663 0.958 . S
H3678 C3663 0.961 . S
H3679 C3663 0.960 . S
C3680 C3681 1.391 . S
C3680 C3682 1.394 . S
C3680 H3696 0.931 . S
C3681 C3680 1.391 . S
C3681 C3685 1.376 . S
C3682 C3680 1.394 . S
C3682 C3683 1.369 . S
C3682 C3686 1.531 . S
C3683 C3682 1.369 . S
C3683 C3684 1.410 . S
C3683 C3691 1.503 . S
C3684 C3683 1.410 . S
C3684 C3685 1.392 . S
C3684 C3687 1.511 . S
C3685 C3681 1.376 . S
C3685 C3684 1.392 . S
C3685 H3697 0.929 . S
C3686 C3682 1.531 . S
C3686 H3698 0.960 . S
C3686 H3699 0.962 . S
C3686 H3700 0.960 . S
C3687 C3684 1.511 . S
C3687 H3701 0.961 . S
C3687 H3702 0.961 . S
C3687 H3703 0.961 . S
C3688 C3689 1.370 . S
C3688 C3690 1.363 . S
C3688 H3704 0.931 . S
C3689 C3688 1.370 . S
C3689 C3693 1.408 . S
C3690 C3688 1.363 . S
C3690 C3691 1.370 . S
C3690 C3694 1.524 . S
C3691 C3683 1.503 . S
C3691 C3690 1.370 . S
C3691 C3692 1.403 . S
C3692 C3691 1.403 . S
C3692 C3693 1.404 . S
C3692 C3695 1.539 . S
C3693 C3689 1.408 . S
C3693 C3692 1.404 . S
C3693 H3705 0.930 . S
C3694 C3690 1.524 . S
C3694 H3706 0.956 . S
C3694 H3707 0.961 . S
C3694 H3708 0.961 . S
C3695 C3692 1.539 . S
C3695 H3709 0.958 . S
C3695 H3710 0.961 . S
C3695 H3711 0.960 . S
H3696 C3680 0.931 . S
H3697 C3685 0.929 . S
H3698 C3686 0.960 . S
H3699 C3686 0.962 . S
H3700 C3686 0.960 . S
H3701 C3687 0.961 . S
H3702 C3687 0.961 . S
H3703 C3687 0.961 . S
H3704 C3688 0.931 . S
H3705 C3693 0.930 . S
H3706 C3694 0.956 . S
H3707 C3694 0.961 . S
H3708 C3694 0.961 . S
H3709 C3695 0.958 . S
H3710 C3695 0.961 . S
H3711 C3695 0.960 . S
C3712 C3713 1.391 . S
C3712 C3714 1.394 . S
C3712 H3728 0.931 . S
C3713 C3712 1.391 . S
C3713 C3717 1.376 . S
C3714 C3712 1.394 . S
C3714 C3715 1.369 . S
C3714 C3718 1.531 . S
C3715 C3714 1.369 . S
C3715 C3716 1.410 . S
C3715 C3723 1.503 . S
C3716 C3715 1.410 . S
C3716 C3717 1.392 . S
C3716 C3719 1.511 . S
C3717 C3713 1.376 . S
C3717 C3716 1.392 . S
C3717 H3729 0.929 . S
C3718 C3714 1.531 . S
C3718 H3730 0.960 . S
C3718 H3731 0.962 . S
C3718 H3732 0.960 . S
C3719 C3716 1.511 . S
C3719 H3733 0.961 . S
C3719 H3734 0.961 . S
C3719 H3735 0.961 . S
C3720 C3721 1.370 . S
C3720 C3722 1.363 . S
C3720 H3736 0.931 . S
C3721 C3720 1.370 . S
C3721 C3725 1.408 . S
C3722 C3720 1.363 . S
C3722 C3723 1.370 . S
C3722 C3726 1.524 . S
C3723 C3715 1.503 . S
C3723 C3722 1.370 . S
C3723 C3724 1.403 . S
C3724 C3723 1.403 . S
C3724 C3725 1.404 . S
C3724 C3727 1.539 . S
C3725 C3721 1.408 . S
C3725 C3724 1.404 . S
C3725 H3737 0.930 . S
C3726 C3722 1.524 . S
C3726 H3738 0.956 . S
C3726 H3739 0.961 . S
C3726 H3740 0.961 . S
C3727 C3724 1.539 . S
C3727 H3741 0.958 . S
C3727 H3742 0.961 . S
C3727 H3743 0.960 . S
H3728 C3712 0.931 . S
H3729 C3717 0.929 . S
H3730 C3718 0.960 . S
H3731 C3718 0.962 . S
H3732 C3718 0.960 . S
H3733 C3719 0.961 . S
H3734 C3719 0.961 . S
H3735 C3719 0.961 . S
H3736 C3720 0.931 . S
H3737 C3725 0.930 . S
H3738 C3726 0.956 . S
H3739 C3726 0.961 . S
H3740 C3726 0.961 . S
H3741 C3727 0.958 . S
H3742 C3727 0.961 . S
H3743 C3727 0.960 . S
C673 C440 1.415 . S
C681 C6 1.433 . S
C705 C20 1.431 . S
C713 C398 1.443 . S
C737 C34 1.417 . S
C745 C412 1.436 . S
C769 C426 1.434 . S
C777 C48 1.433 . S
C801 C356 1.438 . S
C809 C62 1.434 . S
C833 C76 1.432 . S
C841 C370 1.444 . S
C865 C384 1.440 . S
C873 C90 1.446 . S
C897 C104 1.447 . S
C905 C342 1.438 . S
C929 C118 1.441 . S
C937 C622 1.446 . S
C961 C580 1.438 . S
C969 C132 1.434 . S
C993 C594 1.417 . S
C1001 C146 1.436 . S
C1025 C160 1.427 . S
C1033 C608 1.442 . S
C1057 C174 1.419 . S
C1065 C664 1.431 . S
C1089 C188 1.450 . S
C1097 C636 1.447 . S
C1121 C202 1.440 . S
C1129 C650 1.435 . S
C1153 C566 1.455 . S
C1161 C216 1.444 . S
C1185 C552 1.455 . S
C1193 C230 1.443 . S
C1217 C244 1.422 . S
C1225 C468 1.431 . S
C1249 C482 1.439 . S
C1257 C258 1.434 . S
C1281 C272 1.428 . S
C1289 C496 1.442 . S
C1313 C454 1.417 . S
C1321 C286 1.435 . S
C1345 C524 1.422 . S
C1353 C300 1.431 . S
C1377 C314 1.451 . S
C1385 C538 1.440 . S
C1409 C510 1.438 . S
C1417 C328 1.446 . S
C1441 C134 1.576 . S
C1449 C8 1.597 . S
C1473 C148 1.572 . S
C1481 C22 1.594 . S
C1505 C36 1.570 . S
C1513 C162 1.592 . S
C1537 C120 1.580 . S
C1545 C50 1.586 . S
C1569 C64 1.571 . S
C1577 C218 1.587 . S
C1601 C176 1.577 . S
C1609 C78 1.597 . S
C1633 C190 1.577 . S
C1641 C92 1.598 . S
C1665 C204 1.587 . S
C1673 C106 1.601 . S
C1697 C260 1.584 . S
C1705 C232 1.600 . S
C1729 C316 1.580 . S
C1737 C246 1.599 . S
C1761 C330 1.606 . S
C1769 C274 1.593 . S
C1793 C288 1.592 . S
C1801 C302 1.602 . S
C1825 C470 1.611 . S
C1833 C344 1.601 . S
C1857 C484 1.610 . S
C1865 C358 1.596 . S
C1889 C498 1.612 . S
C1897 C372 1.599 . S
C1921 C386 1.601 . S
C1929 C456 1.604 . S
C1953 C400 1.606 . S
C1961 C554 1.593 . S
C1985 C414 1.577 . S
C1993 C512 1.586 . S
C2017 C526 1.569 . S
C2025 C428 1.589 . S
C2049 C540 1.611 . S
C2057 C442 1.601 . S
C2081 C568 1.598 . S
C2089 C596 1.603 . S
C2113 C652 1.594 . S
C2121 C582 1.588 . S
C2145 C666 1.584 . S
C2153 C610 1.586 . S
C2177 C638 1.600 . S
C2185 C624 1.590 . S
C2209 C7 1.349 . S
C2217 C261 1.350 1_554 S
C2241 C21 1.365 . S
C2249 C275 1.359 1_554 S
C2273 C35 1.385 . S
C2281 C289 1.370 1_554 S
C2305 C247 1.356 1_554 S
C2313 C49 1.373 . S
C2337 C63 1.390 . S
C2345 C317 1.371 1_556 S
C2369 C77 1.365 . S
C2377 C233 1.359 1_556 S
C2401 C331 1.359 1_556 S
C2409 C91 1.374 . S
C2433 C303 1.331 1_556 S
C2441 C105 1.365 . S
C2465 C119 1.392 . S
C2473 C135 1.372 1_455 S
C2497 C133 1.389 . S
C2505 C149 1.372 1_545 S
C2529 C147 1.392 . S
C2537 C163 1.373 1_655 S
C2561 C121 1.330 1_565 S
C2569 C161 1.365 . S
C2593 C219 1.379 1_455 S
C2601 C175 1.381 . S
C2625 C177 1.383 1_545 S
C2633 C189 1.382 . S
C2657 C191 1.377 1_655 S
C2665 C203 1.381 . S
C2689 C217 1.352 . S
C2697 C205 1.351 1_565 S
C2721 C51 1.337 1_545 S
C2729 C231 1.368 . S
C2753 C79 1.336 1_565 S
C2761 C245 1.368 . S
C2785 C93 1.378 1_455 S
C2793 C259 1.381 . S
C2817 C273 1.358 . S
C2825 C107 1.354 1_545 S
C2849 C65 1.343 1_655 S
C2857 C287 1.369 . S
C2881 C23 1.330 1_565 S
C2889 C301 1.365 . S
C2913 C37 1.341 1_455 S
C2921 C315 1.369 . S
C2945 C9 1.354 1_655 S
C2953 C329 1.374 . S
C2977 C597 1.356 . S
C2985 C343 1.374 . S
C3009 C357 1.378 . S
C3017 C611 1.364 . S
C3041 C625 1.332 . S
C3049 C371 1.366 . S
C3073 C583 1.331 . S
C3081 C385 1.365 . S
C3105 C399 1.349 . S
C3113 C653 1.350 . S
C3137 C413 1.370 . S
C3145 C569 1.362 . S
C3169 C667 1.381 . S
C3177 C427 1.381 . S
C3201 C441 1.371 . S
C3209 C639 1.360 . S
C3233 C455 1.391 . S
C3241 C471 1.372 . S
C3265 C469 1.349 . S
C3273 C485 1.350 . S
C3297 C483 1.350 . S
C3305 C499 1.350 . S
C3329 C497 1.392 . S
C3337 C457 1.372 . S
C3361 C555 1.348 . S
C3369 C511 1.372 . S
C3393 C513 1.360 . S
C3401 C525 1.376 . S
C3425 C527 1.378 . S
C3433 C539 1.381 . S
C3457 C553 1.390 . S
C3465 C541 1.372 . S
C3489 C387 1.383 . S
C3497 C567 1.383 . S
C3521 C415 1.331 . S
C3529 C581 1.366 . S
C3553 C429 1.377 . S
C3561 C595 1.381 . S
C3585 C609 1.380 . S
C3593 C443 1.367 . S
C3617 C401 1.383 . S
C3625 C623 1.382 . S
C3649 C359 1.334 . S
C3657 C637 1.367 . S
C3681 C651 1.351 . S
C3689 C373 1.351 . S
C3713 C345 1.330 . S
C3721 C665 1.365 . S
