# Generated by pormake.
# Topology zfl, (5)-cn, num edge types: 1
# Building blocks:
#     Node 0, Type 0, BuildingBlock: XOMCOT_clean_sbu_0, # of connection points: 5
#     Node 1, Type 0, BuildingBlock: XOMCOT_clean_sbu_0, # of connection points: 5
#     Node 2, Type 0, BuildingBlock: XOMCOT_clean_sbu_0, # of connection points: 5
#     Node 3, Type 0, BuildingBlock: XOMCOT_clean_sbu_0, # of connection points: 5
#     Node 4, Type 0, BuildingBlock: XOMCOT_clean_sbu_0, # of connection points: 5
#     Node 5, Type 0, BuildingBlock: XOMCOT_clean_sbu_0, # of connection points: 5
#     Node 6, Type 0, BuildingBlock: XOMCOT_clean_sbu_0, # of connection points: 5
#     Node 7, Type 0, BuildingBlock: XOMCOT_clean_sbu_0, # of connection points: 5
#     Node 8, Type 0, BuildingBlock: XOMCOT_clean_sbu_0, # of connection points: 5
#     Node 9, Type 0, BuildingBlock: XOMCOT_clean_sbu_0, # of connection points: 5
#     Node 10, Type 0, BuildingBlock: XOMCOT_clean_sbu_0, # of connection points: 5
#     Node 11, Type 0, BuildingBlock: XOMCOT_clean_sbu_0, # of connection points: 5
#     Node 12, Type 0, BuildingBlock: XOMCOT_clean_sbu_0, # of connection points: 5
#     Node 13, Type 0, BuildingBlock: XOMCOT_clean_sbu_0, # of connection points: 5
#     Node 14, Type 0, BuildingBlock: XOMCOT_clean_sbu_0, # of connection points: 5
#     Node 15, Type 0, BuildingBlock: XOMCOT_clean_sbu_0, # of connection points: 5
#     Edge 16, Type (0, 0), BuildingBlock: OJICUG_clean_linker_0, # of connection points: 2
#     Edge 17, Type (0, 0), BuildingBlock: OJICUG_clean_linker_0, # of connection points: 2
#     Edge 18, Type (0, 0), BuildingBlock: OJICUG_clean_linker_0, # of connection points: 2
#     Edge 19, Type (0, 0), BuildingBlock: OJICUG_clean_linker_0, # of connection points: 2
#     Edge 20, Type (0, 0), BuildingBlock: OJICUG_clean_linker_0, # of connection points: 2
#     Edge 21, Type (0, 0), BuildingBlock: OJICUG_clean_linker_0, # of connection points: 2
#     Edge 22, Type (0, 0), BuildingBlock: OJICUG_clean_linker_0, # of connection points: 2
#     Edge 23, Type (0, 0), BuildingBlock: OJICUG_clean_linker_0, # of connection points: 2
#     Edge 24, Type (0, 0), BuildingBlock: OJICUG_clean_linker_0, # of connection points: 2
#     Edge 25, Type (0, 0), BuildingBlock: OJICUG_clean_linker_0, # of connection points: 2
#     Edge 26, Type (0, 0), BuildingBlock: OJICUG_clean_linker_0, # of connection points: 2
#     Edge 27, Type (0, 0), BuildingBlock: OJICUG_clean_linker_0, # of connection points: 2
#     Edge 28, Type (0, 0), BuildingBlock: OJICUG_clean_linker_0, # of connection points: 2
#     Edge 29, Type (0, 0), BuildingBlock: OJICUG_clean_linker_0, # of connection points: 2
#     Edge 30, Type (0, 0), BuildingBlock: OJICUG_clean_linker_0, # of connection points: 2
#     Edge 31, Type (0, 0), BuildingBlock: OJICUG_clean_linker_0, # of connection points: 2
#     Edge 32, Type (0, 0), BuildingBlock: OJICUG_clean_linker_0, # of connection points: 2
#     Edge 33, Type (0, 0), BuildingBlock: OJICUG_clean_linker_0, # of connection points: 2
#     Edge 34, Type (0, 0), BuildingBlock: OJICUG_clean_linker_0, # of connection points: 2
#     Edge 35, Type (0, 0), BuildingBlock: OJICUG_clean_linker_0, # of connection points: 2
#     Edge 36, Type (0, 0), BuildingBlock: OJICUG_clean_linker_0, # of connection points: 2
#     Edge 37, Type (0, 0), BuildingBlock: OJICUG_clean_linker_0, # of connection points: 2
#     Edge 38, Type (0, 0), BuildingBlock: OJICUG_clean_linker_0, # of connection points: 2
#     Edge 39, Type (0, 0), BuildingBlock: OJICUG_clean_linker_0, # of connection points: 2
#     Edge 40, Type (0, 0), BuildingBlock: OJICUG_clean_linker_0, # of connection points: 2
#     Edge 41, Type (0, 0), BuildingBlock: OJICUG_clean_linker_0, # of connection points: 2
#     Edge 42, Type (0, 0), BuildingBlock: OJICUG_clean_linker_0, # of connection points: 2
#     Edge 43, Type (0, 0), BuildingBlock: OJICUG_clean_linker_0, # of connection points: 2
#     Edge 44, Type (0, 0), BuildingBlock: OJICUG_clean_linker_0, # of connection points: 2
#     Edge 45, Type (0, 0), BuildingBlock: OJICUG_clean_linker_0, # of connection points: 2
#     Edge 46, Type (0, 0), BuildingBlock: OJICUG_clean_linker_0, # of connection points: 2
#     Edge 47, Type (0, 0), BuildingBlock: OJICUG_clean_linker_0, # of connection points: 2
#     Edge 48, Type (0, 0), BuildingBlock: OJICUG_clean_linker_0, # of connection points: 2
#     Edge 49, Type (0, 0), BuildingBlock: OJICUG_clean_linker_0, # of connection points: 2
#     Edge 50, Type (0, 0), BuildingBlock: OJICUG_clean_linker_0, # of connection points: 2
#     Edge 51, Type (0, 0), BuildingBlock: OJICUG_clean_linker_0, # of connection points: 2
#     Edge 52, Type (0, 0), BuildingBlock: OJICUG_clean_linker_0, # of connection points: 2
#     Edge 53, Type (0, 0), BuildingBlock: OJICUG_clean_linker_0, # of connection points: 2
#     Edge 54, Type (0, 0), BuildingBlock: OJICUG_clean_linker_0, # of connection points: 2
#     Edge 55, Type (0, 0), BuildingBlock: OJICUG_clean_linker_0, # of connection points: 2
# Relax obj value: 0.250
# Max RMSD: 0.260
# Mean RMSD: 0.260
data_MOF--net-zfl--node1-XOMCOT_clean_sbu_0--edge1-OJICUG_clean_linker_0
_symmetry_space_group_name_H-M    P1
_symmetry_Int_Tables_number       1
_symmetry_cell_setting            triclinic
loop_
_symmetry_equiv_pos_as_xyz
'x, y, z'
_cell_length_a     24.437161
_cell_length_b     24.438105
_cell_length_c     44.518631
_cell_angle_alpha  90.005199
_cell_angle_beta   90.004448
_cell_angle_gamma 89.992334
loop_
_atom_site_label
_atom_site_type_symbol
_atom_site_fract_x
_atom_site_fract_y
_atom_site_fract_z
_atom_type_partial_charge
Co0 Co 0.57697 0.11449 0.10987 0.0
C1 C 0.60508 1.00575 0.12967 0.0
C2 C 0.66871 0.03931 0.10226 0.0
C3 C 0.6753 0.98363 0.10351 0.0
N4 N 0.62465 0.05347 0.11878 0.0
N5 N 0.63407 0.96235 0.11991 0.0
H6 H 0.5646 1.00209 0.13938 0.0
H7 H 0.68979 0.06642 0.08692 0.0
C8 C 0.68648 0.16763 0.12771 0.0
O9 O 0.7054 0.12105 0.13793 0.0
N10 N 0.52665 0.17369 0.09993 0.0
C11 C 0.4844 0.17043 0.08037 0.0
C12 C 0.45677 0.2188 0.08009 0.0
C13 C 0.52326 0.22473 0.11167 0.0
N14 N 0.48102 0.2531 0.09957 0.0
C15 C 0.49586 0.11031 0.15563 0.0
C16 C 0.56625 0.10075 0.20391 0.0
C17 C 0.51003 0.09318 0.20856 0.0
C18 C 0.47449 0.09985 0.18417 0.0
C19 C 0.58586 0.11215 0.17507 0.0
N20 N 0.55096 0.11528 0.1512 0.0
H21 H 0.46819 0.11154 0.13672 0.0
H22 H 0.62925 0.11499 0.17191 0.0
H23 H 0.47239 0.13519 0.06742 0.0
H24 H 0.55076 0.24061 0.12861 0.0
O25 O 0.52569 0.06153 0.09399 0.0
O26 O 0.59019 0.10253 0.06727 0.0
O27 O 0.63693 0.17162 0.11808 0.0
C28 C 0.55035 0.06703 0.06828 0.0
H29 H 0.70305 0.96012 0.08961 0.0
H30 H 0.42042 0.2276 0.06703 0.0
H31 H 0.59502 0.09615 0.22225 0.0
H32 H 0.43083 0.09379 0.18676 0.0
Co33 Co 0.40471 0.57426 0.60879 0.0
C34 C 0.51296 0.60211 0.62945 0.0
C35 C 0.47956 0.66655 0.60253 0.0
C36 C 0.53516 0.67344 0.60423 0.0
N37 N 0.46536 0.62181 0.61848 0.0
N38 N 0.55637 0.63173 0.62029 0.0
H39 H 0.51665 0.56137 0.63881 0.0
H40 H 0.45259 0.68811 0.58732 0.0
C41 C 0.35096 0.68298 0.62747 0.0
O42 O 0.39722 0.70139 0.63842 0.0
N43 N 0.34586 0.52407 0.59814 0.0
C44 C 0.34928 0.48275 0.578 0.0
C45 C 0.30119 0.45464 0.57755 0.0
C46 C 0.29503 0.51966 0.61002 0.0
N47 N 0.26692 0.47768 0.59749 0.0
C48 C 0.41038 0.49167 0.65345 0.0
C49 C 0.41508 0.55961 0.70295 0.0
C50 C 0.42494 0.50343 0.70688 0.0
C51 C 0.42079 0.4692 0.6817 0.0
C52 C 0.40439 0.58039 0.67425 0.0
N53 N 0.40352 0.5467 0.64981 0.0
H54 H 0.41034 0.46492 0.63412 0.0
H55 H 0.40012 0.6238 0.67172 0.0
H56 H 0.38447 0.4716 0.56478 0.0
H57 H 0.27916 0.54622 0.62742 0.0
O58 O 0.45803 0.52369 0.59268 0.0
O59 O 0.41726 0.58884 0.56635 0.0
O60 O 0.34723 0.63379 0.61727 0.0
C61 C 0.45279 0.54899 0.56716 0.0
H62 H 0.55875 0.70209 0.59094 0.0
H63 H 0.29264 0.41874 0.56408 0.0
H64 H 0.41841 0.58789 0.72159 0.0
H65 H 0.42701 0.42546 0.6836 0.0
Co66 Co 0.94517 0.40671 0.11015 0.0
C67 C 0.91635 0.51505 0.13011 0.0
C68 C 0.85299 0.48136 0.10255 0.0
C69 C 0.8462 0.53701 0.10386 0.0
N70 N 0.89702 0.46731 0.11912 0.0
N71 N 0.8873 0.55838 0.12033 0.0
H72 H 0.95676 0.5188 0.1399 0.0
H73 H 0.83206 0.45423 0.08715 0.0
C74 C 0.83607 0.35286 0.12796 0.0
O75 O 0.81697 0.39935 0.13821 0.0
N76 N 0.99612 0.34806 0.10018 0.0
C77 C 0.03905 0.35232 0.08112 0.0
C78 C 0.06694 0.30412 0.08053 0.0
C79 C 0.99937 0.29658 0.11132 0.0
N80 N 0.04217 0.26893 0.09932 0.0
C81 C 0.0263 0.41189 0.15593 0.0
C82 C 0.95583 0.42007 0.20424 0.0
C83 C 0.01194 0.42845 0.20891 0.0
C84 C 0.04755 0.42248 0.18449 0.0
C85 C 0.93638 0.40858 0.17538 0.0
N86 N 0.97129 0.40614 0.15148 0.0
H87 H 0.05398 0.4112 0.13701 0.0
H88 H 0.89303 0.40509 0.17223 0.0
H89 H 0.05136 0.38814 0.06875 0.0
H90 H 0.97135 0.27985 0.12775 0.0
O91 O 0.99584 0.46017 0.0942 0.0
O92 O 0.93171 0.41844 0.06755 0.0
O93 O 0.88568 0.34906 0.11838 0.0
C94 C 0.97123 0.45429 0.0685 0.0
H95 H 0.81836 0.56046 0.08998 0.0
H96 H 0.10375 0.29599 0.06774 0.0
H97 H 0.92701 0.42411 0.2226 0.0
H98 H 0.09111 0.42917 0.18709 0.0
Co99 Co 0.11381 0.94326 0.60903 0.0
C100 C 1.00496 0.91634 0.62916 0.0
C101 C 0.03766 0.85221 0.60178 0.0
C102 C 0.98192 0.84621 0.60317 0.0
N103 N 0.0524 0.89621 0.61819 0.0
N104 N 0.96119 0.88773 0.61956 0.0
H105 H 1.00177 0.95691 0.63881 0.0
H106 H 0.06442 0.83076 0.5864 0.0
C107 C 0.16635 0.83344 0.62692 0.0
O108 O 0.11963 0.81472 0.63707 0.0
N109 N 0.17342 0.99293 0.59888 0.0
C110 C 0.17106 0.03395 0.57852 0.0
C111 C 0.21948 0.06153 0.57837 0.0
C112 C 0.22396 0.99697 0.6112 0.0
N113 N 0.25291 0.03844 0.59873 0.0
C114 C 0.11019 0.02469 0.6547 0.0
C115 C 0.10029 0.95447 0.70303 0.0
C116 C 0.09273 0.01072 0.70762 0.0
C117 C 0.09962 0.04618 0.68321 0.0
C118 C 0.11178 0.93476 0.67422 0.0
N119 N 0.115 0.96957 0.65031 0.0
H120 H 0.11158 0.05228 0.63574 0.0
H121 H 0.11453 0.89135 0.67108 0.0
H122 H 0.13644 0.04518 0.56488 0.0
H123 H 0.23905 0.97048 0.62883 0.0
O124 O 0.0612 0.99484 0.59306 0.0
O125 O 0.10147 0.92969 0.56649 0.0
O126 O 0.17059 0.88297 0.61732 0.0
C127 C 0.06621 0.96976 0.56745 0.0
H128 H 0.95801 0.81864 0.58937 0.0
H129 H 0.22886 0.09708 0.5648 0.0
H130 H 0.09557 0.92576 0.72138 0.0
H131 H 0.09362 0.08985 0.68576 0.0
Co132 Co 0.57549 0.40583 0.92053 0.0
C133 C 0.60328 0.51435 0.90021 0.0
C134 C 0.66781 0.48055 0.92691 0.0
C135 C 0.67469 0.53618 0.92547 0.0
N136 N 0.62301 0.46658 0.91095 0.0
N137 N 0.63292 0.55763 0.90955 0.0
H138 H 0.56246 0.5182 0.89095 0.0
H139 H 0.68937 0.45339 0.94202 0.0
C140 C 0.68427 0.35224 0.90176 0.0
O141 O 0.70262 0.39849 0.89079 0.0
N142 N 0.5254 0.34683 0.93109 0.0
C143 C 0.48381 0.35021 0.95107 0.0
C144 C 0.4559 0.30199 0.95149 0.0
C145 C 0.52136 0.2959 0.9193 0.0
N146 N 0.47934 0.26767 0.93171 0.0
C147 C 0.49282 0.41119 0.87592 0.0
C148 C 0.56056 0.41631 0.82635 0.0
C149 C 0.50427 0.42564 0.82246 0.0
C150 C 0.47017 0.42131 0.84768 0.0
C151 C 0.58153 0.40589 0.85505 0.0
N152 N 0.54792 0.40474 0.87952 0.0
H153 H 0.46612 0.411 0.89526 0.0
H154 H 0.62499 0.40198 0.85755 0.0
H155 H 0.47236 0.38545 0.96416 0.0
H156 H 0.54821 0.28003 0.90203 0.0
O157 O 0.5248 0.459 0.93668 0.0
O158 O 0.58999 0.41827 0.963 0.0
O159 O 0.63512 0.34848 0.912 0.0
C160 C 0.55008 0.45373 0.9622 0.0
H161 H 0.70321 0.55959 0.93895 0.0
H162 H 0.41985 0.29339 0.96483 0.0
H163 H 0.58873 0.41983 0.80768 0.0
H164 H 0.42637 0.42713 0.84582 0.0
Co165 Co 0.1138 0.57752 0.42131 0.0
C166 C 1.00501 0.60431 0.40101 0.0
C167 C 0.0375 0.6685 0.42843 0.0
C168 C 0.98177 0.67447 0.42692 0.0
N169 N 0.05237 0.62448 0.41206 0.0
N170 N 0.96117 0.63292 0.4105 0.0
H171 H 1.00191 0.56371 0.39138 0.0
H172 H 0.06415 0.68996 0.44385 0.0
C173 C 0.16625 0.68739 0.40346 0.0
O174 O 0.11957 0.70612 0.39326 0.0
N175 N 0.1735 0.52801 0.43153 0.0
C176 C 0.17141 0.4873 0.45209 0.0
C177 C 0.21986 0.45976 0.45219 0.0
C178 C 0.2239 0.52382 0.41907 0.0
N179 N 0.25304 0.48255 0.43162 0.0
C180 C 0.11047 0.49609 0.37564 0.0
C181 C 0.10064 0.56634 0.32731 0.0
C182 C 0.09312 0.5101 0.3227 0.0
C183 C 0.1 0.47462 0.3471 0.0
C184 C 0.11202 0.58604 0.35613 0.0
N185 N 0.1152 0.55121 0.38003 0.0
H186 H 0.11186 0.4685 0.39459 0.0
H187 H 0.11471 0.62945 0.35927 0.0
H188 H 0.13696 0.47629 0.46591 0.0
H189 H 0.23876 0.55006 0.40127 0.0
O190 O 0.06124 0.52584 0.43722 0.0
O191 O 0.10126 0.5911 0.46382 0.0
O192 O 0.17046 0.63786 0.41308 0.0
C193 C 0.06608 0.55098 0.46283 0.0
H194 H 0.95774 0.70199 0.4407 0.0
H195 H 0.22943 0.42442 0.4659 0.0
H196 H 0.09592 0.59507 0.30896 0.0
H197 H 0.09405 0.43095 0.34453 0.0
Co198 Co 0.944 0.11414 0.91993 0.0
C199 C 0.91606 1.00569 0.89975 0.0
C200 C 0.85234 0.03878 0.92728 0.0
C201 C 0.84604 0.98307 0.92592 0.0
N202 N 0.8963 0.05325 0.91077 0.0
N203 N 0.88736 0.96209 0.90947 0.0
H204 H 0.95655 1.00228 0.89003 0.0
H205 H 0.83117 0.06566 0.94271 0.0
C206 C 0.83461 0.16753 0.90212 0.0
O207 O 0.81569 0.12094 0.8919 0.0
N208 N 0.99447 0.17308 0.93009 0.0
C209 C 0.0368 0.1693 0.94959 0.0
C210 C 0.06453 0.21759 0.95016 0.0
C211 C 0.99795 0.22435 0.91868 0.0
N212 N 0.04029 0.25235 0.93093 0.0
C213 C 0.02533 0.10963 0.87424 0.0
C214 C 0.955 0.10092 0.82589 0.0
C215 C 0.01116 0.09274 0.82127 0.0
C216 C 0.04669 0.09902 0.8457 0.0
C217 C 0.93542 0.11244 0.85471 0.0
N218 N 0.97027 0.11509 0.87864 0.0
H219 H 0.05294 0.11053 0.89319 0.0
H220 H 0.89205 0.11572 0.85784 0.0
H221 H 0.0488 0.13377 0.96229 0.0
H222 H 0.97043 0.24068 0.90187 0.0
O223 O 0.99497 0.06091 0.93586 0.0
O224 O 0.93041 0.10201 0.96249 0.0
O225 O 0.8842 0.17151 0.9117 0.0
C226 C 0.97014 0.06638 0.96153 0.0
H227 H 0.81846 0.95934 0.93981 0.0
H228 H 0.10092 0.22604 0.96325 0.0
H229 H 0.92624 0.09667 0.80752 0.0
H230 H 0.09029 0.09251 0.84315 0.0
Co231 Co 0.40518 0.94623 0.42101 0.0
C232 C 0.51359 0.91706 0.40123 0.0
C233 C 0.47966 0.85395 0.42887 0.0
C234 C 0.53527 0.84683 0.4275 0.0
N235 N 0.46579 0.89798 0.41225 0.0
N236 N 0.55679 0.88776 0.41097 0.0
H237 H 0.51751 0.95736 0.39133 0.0
H238 H 0.45242 0.83312 0.44424 0.0
C239 C 0.35136 0.83712 0.4032 0.0
O240 O 0.3979 0.81798 0.39303 0.0
N241 N 0.34651 0.99726 0.43078 0.0
C242 C 0.35057 0.04015 0.44988 0.0
C243 C 0.30244 0.06816 0.45023 0.0
C244 C 0.29524 1.00066 0.41937 0.0
N245 N 0.26751 0.04351 0.43125 0.0
C246 C 0.41069 0.02711 0.37515 0.0
C247 C 0.41934 0.95644 0.32695 0.0
C248 C 0.42777 0.01252 0.32226 0.0
C249 C 0.42156 0.04823 0.34661 0.0
C250 C 0.40756 0.9371 0.35579 0.0
N251 N 0.4049 0.97211 0.37964 0.0
H252 H 0.40982 0.05485 0.39404 0.0
H253 H 0.40404 0.89378 0.35897 0.0
H254 H 0.38622 0.05236 0.46243 0.0
H255 H 0.27872 0.97271 0.40284 0.0
O256 O 0.45857 0.99698 0.43694 0.0
O257 O 0.41665 0.93304 0.46364 0.0
O258 O 0.34755 0.88673 0.41276 0.0
C259 C 0.4525 0.97256 0.46268 0.0
H260 H 0.5586 0.81867 0.44124 0.0
H261 H 0.29419 0.10498 0.46299 0.0
H262 H 0.42356 0.92755 0.30864 0.0
H263 H 0.42827 0.09178 0.34398 0.0
Co264 Co 0.44552 0.90563 0.92116 0.0
C265 C 0.41808 0.01399 0.90044 0.0
C266 C 0.35331 0.98066 0.92713 0.0
C267 C 0.34655 0.03628 0.92547 0.0
N268 N 0.39819 0.9664 0.91132 0.0
N269 N 0.38846 0.05744 0.90955 0.0
H270 H 0.45896 0.01763 0.89125 0.0
H271 H 0.3316 0.95372 0.9423 0.0
C272 C 0.33678 0.85207 0.90234 0.0
O273 O 0.3185 0.89826 0.89125 0.0
N274 N 0.49536 0.84657 0.93196 0.0
C275 C 0.53619 0.84957 0.95242 0.0
C276 C 0.56422 0.8014 0.95281 0.0
C277 C 0.49995 0.79593 0.91987 0.0
N278 N 0.54159 0.76749 0.93253 0.0
C279 C 0.52845 0.9107 0.87666 0.0
C280 C 0.46088 0.91558 0.827 0.0
C281 C 0.51716 0.92509 0.82318 0.0
C282 C 0.55118 0.92085 0.84844 0.0
C283 C 0.43984 0.90516 0.85568 0.0
N284 N 0.47335 0.90417 0.8802 0.0
H285 H 0.55506 0.91058 0.89604 0.0
H286 H 0.39638 0.90116 0.85813 0.0
H287 H 0.54702 0.88452 0.96591 0.0
H288 H 0.47375 0.78043 0.90221 0.0
O289 O 0.4962 0.95883 0.93731 0.0
O290 O 0.43071 0.91849 0.96357 0.0
O291 O 0.38588 0.84833 0.91265 0.0
C292 C 0.47063 0.95392 0.96277 0.0
H293 H 0.31796 0.05991 0.93878 0.0
H294 H 0.59981 0.7926 0.96647 0.0
H295 H 0.43276 0.91901 0.8083 0.0
H296 H 0.59496 0.92681 0.84663 0.0
Co297 Co 0.61376 0.44389 0.42007 0.0
C298 C 0.50542 0.41824 0.39868 0.0
C299 C 0.53751 0.35254 0.42515 0.0
C300 C 0.48179 0.34676 0.42335 0.0
N301 N 0.55261 0.39744 0.4096 0.0
N302 N 0.46142 0.38924 0.40757 0.0
H303 H 0.50247 0.45937 0.38975 0.0
H304 H 0.56391 0.33029 0.44036 0.0
C305 C 0.66676 0.33479 0.40126 0.0
O306 O 0.62062 0.3168 0.38997 0.0
N307 N 0.67319 0.49285 0.43149 0.0
C308 C 0.6707 0.53246 0.45268 0.0
C309 C 0.71904 0.56013 0.45341 0.0
C310 C 0.72373 0.49783 0.41931 0.0
N311 N 0.75257 0.53851 0.43262 0.0
C312 C 0.61045 0.52746 0.37588 0.0
C313 C 0.6053 0.46046 0.326 0.0
C314 C 0.5963 0.51685 0.32234 0.0
C315 C 0.60072 0.55058 0.34771 0.0
C316 C 0.6153 0.43901 0.35463 0.0
N317 N 0.61636 0.47226 0.37925 0.0
H318 H 0.61066 0.55384 0.39536 0.0
H319 H 0.61881 0.39547 0.35698 0.0
H320 H 0.63603 0.54271 0.46651 0.0
H321 H 0.73888 0.47259 0.40114 0.0
O322 O 0.56085 0.49498 0.43613 0.0
O323 O 0.59987 0.42854 0.46229 0.0
O324 O 0.67062 0.38383 0.41164 0.0
C325 C 0.56492 0.46889 0.46148 0.0
H326 H 0.45758 0.31864 0.43665 0.0
H327 H 0.72826 0.59482 0.46767 0.0
H328 H 0.60173 0.43257 0.3072 0.0
H329 H 0.59515 0.59443 0.34602 0.0
Co330 Co 0.07682 0.61466 0.92118 0.0
C331 C 0.1041 0.50609 0.90087 0.0
C332 C 0.16806 0.53869 0.92841 0.0
C333 C 0.17416 0.48297 0.92689 0.0
N334 N 0.1241 0.55348 0.91197 0.0
N335 N 0.13272 0.4623 0.91042 0.0
H336 H 0.06359 0.50292 0.89114 0.0
H337 H 0.18944 0.5654 0.94384 0.0
C338 C 0.18638 0.66751 0.90325 0.0
O339 O 0.20519 0.62079 0.89314 0.0
N340 N 0.02679 0.67396 0.93139 0.0
C341 C 0.98542 0.67103 0.95152 0.0
C342 C 0.95764 0.71931 0.95183 0.0
C343 C 0.02272 0.72471 0.91935 0.0
N344 N 0.98091 0.75322 0.9318 0.0
C345 C 0.99532 0.61051 0.87556 0.0
C346 C 0.06556 0.60113 0.8272 0.0
C347 C 1.00938 0.59312 0.82263 0.0
C348 C 0.97389 0.59976 0.84705 0.0
C349 C 0.08521 0.61279 0.85599 0.0
N350 N 0.05041 0.61573 0.87992 0.0
H351 H 0.96775 0.61169 0.89452 0.0
H352 H 0.12861 0.61589 0.8591 0.0
H353 H 0.97408 0.63609 0.96488 0.0
H354 H 0.04942 0.74028 0.90195 0.0
O355 O 0.02559 0.56178 0.93718 0.0
O356 O 0.09058 0.60244 0.9637 0.0
O357 O 0.13683 0.6717 0.91284 0.0
C358 C 0.05067 0.56701 0.96279 0.0
H359 H 0.20183 0.45902 0.94061 0.0
H360 H 0.92184 0.7283 0.9653 0.0
H361 H 0.09429 0.59661 0.80883 0.0
H362 H 0.93026 0.59343 0.84451 0.0
Co363 Co 0.90549 0.07543 0.42017 0.0
C364 C 0.01377 0.10495 0.40043 0.0
C365 C 0.97961 0.16792 0.42809 0.0
C366 C 0.03522 0.1751 0.42682 0.0
N367 N 0.96589 0.12391 0.41141 0.0
N368 N 0.05689 0.13423 0.41029 0.0
H369 H 0.01781 0.06465 0.39054 0.0
H370 H 0.95228 0.18864 0.44346 0.0
C371 C 0.85137 0.18436 0.40229 0.0
O372 O 0.89792 0.20349 0.39214 0.0
N373 N 0.84709 0.02412 0.42996 0.0
C374 C 0.85169 0.98081 0.44874 0.0
C375 C 0.80362 0.95271 0.44926 0.0
C376 C 0.79554 0.02088 0.41892 0.0
N377 N 0.76817 0.97772 0.43072 0.0
C378 C 0.91126 0.99448 0.37432 0.0
C379 C 0.91949 0.06505 0.32606 0.0
C380 C 0.92794 1.00896 0.32137 0.0
C381 C 0.92197 0.97331 0.34576 0.0
C382 C 0.90784 0.08443 0.35492 0.0
N383 N 0.90533 0.04947 0.37879 0.0
H384 H 0.91057 0.96676 0.39321 0.0
H385 H 0.90424 0.12775 0.35808 0.0
H386 H 0.88767 0.9684 0.46095 0.0
H387 H 0.77854 0.04918 0.40271 0.0
O388 O 0.95915 0.02495 0.43613 0.0
O389 O 0.91694 0.08867 0.46284 0.0
O390 O 0.84758 0.13475 0.41188 0.0
C391 C 0.953 0.04933 0.46188 0.0
H392 H 0.05844 0.20314 0.44068 0.0
H393 H 0.79576 0.9156 0.46184 0.0
H394 H 0.92355 0.0939 0.30773 0.0
H395 H 0.92873 0.92976 0.34314 0.0
Co396 Co 0.4452 0.61511 0.10925 0.0
C397 C 0.41893 0.50688 0.13056 0.0
C398 C 0.35356 0.53926 0.10394 0.0
C399 C 0.34738 0.48359 0.10582 0.0
N400 N 0.39846 0.55414 0.11956 0.0
N401 N 0.38966 0.46303 0.12169 0.0
H402 H 0.45995 0.50373 0.13961 0.0
H403 H 0.33147 0.56576 0.08871 0.0
C404 C 0.33621 0.66837 0.128 0.0
O405 O 0.31812 0.62224 0.13926 0.0
N406 N 0.49444 0.67438 0.098 0.0
C407 C 0.53418 0.67183 0.07688 0.0
C408 C 0.56209 0.72005 0.07632 0.0
C409 C 0.49957 0.72481 0.11029 0.0
N410 N 0.54048 0.75354 0.09714 0.0
C411 C 0.52852 0.61116 0.15357 0.0
C412 C 0.46125 0.60619 0.20334 0.0
C413 C 0.51756 0.59679 0.20707 0.0
C414 C 0.55144 0.60112 0.18176 0.0
C415 C 0.44001 0.61648 0.17469 0.0
N416 N 0.47337 0.61742 0.15012 0.0
H417 H 0.555 0.6113 0.13413 0.0
H418 H 0.39651 0.62029 0.1723 0.0
H419 H 0.54435 0.63721 0.06301 0.0
H420 H 0.47427 0.73995 0.12843 0.0
O421 O 0.49617 0.56205 0.09321 0.0
O422 O 0.43002 0.60143 0.06698 0.0
O423 O 0.38527 0.67216 0.11765 0.0
C424 C 0.47023 0.56631 0.06782 0.0
H425 H 0.31899 0.45951 0.09262 0.0
H426 H 0.59692 0.72918 0.06215 0.0
H427 H 0.43324 0.60271 0.22209 0.0
H428 H 0.59525 0.59525 0.18351 0.0
Co429 Co 0.9055 0.445 0.61006 0.0
C430 C 0.01401 0.41542 0.62951 0.0
C431 C 0.97951 0.35247 0.60196 0.0
C432 C 0.03512 0.3452 0.60309 0.0
N433 N 0.966 0.39652 0.61866 0.0
N434 N 0.057 0.38605 0.61955 0.0
H435 H 0.01819 0.45574 0.63937 0.0
H436 H 0.95202 0.3318 0.58666 0.0
C437 C 0.85155 0.33601 0.62798 0.0
O438 O 0.89811 0.31688 0.63811 0.0
N439 N 0.84692 0.49624 0.60042 0.0
C440 C 0.85128 0.53963 0.58168 0.0
C441 C 0.80312 0.5676 0.58129 0.0
C442 C 0.79543 0.49929 0.61155 0.0
N443 N 0.76785 0.54242 0.59986 0.0
C444 C 0.91123 0.52586 0.65595 0.0
C445 C 0.91995 0.45528 0.70417 0.0
C446 C 0.92811 0.5114 0.70888 0.0
C447 C 0.92193 0.54705 0.68451 0.0
C448 C 0.90831 0.43587 0.67531 0.0
N449 N 0.90553 0.47085 0.65146 0.0
H450 H 0.91037 0.55361 0.63707 0.0
H451 H 0.90491 0.39254 0.67214 0.0
H452 H 0.88716 0.55216 0.56943 0.0
H453 H 0.77862 0.47088 0.62776 0.0
O454 O 0.95897 0.49561 0.59408 0.0
O455 O 0.91674 0.43193 0.56736 0.0
O456 O 0.84773 0.38561 0.61838 0.0
C457 C 0.95274 0.47132 0.56832 0.0
H458 H 0.05818 0.31717 0.58914 0.0
H459 H 0.7951 0.60475 0.56878 0.0
H460 H 0.92419 0.42642 0.72249 0.0
H461 H 0.92849 0.59063 0.68713 0.0
Co462 Co 0.07619 0.90606 0.10881 0.0
C463 C 0.10427 0.01458 0.12888 0.0
C464 C 0.16786 0.98137 0.10129 0.0
C465 C 0.1744 0.03704 0.10274 0.0
N466 N 0.12387 0.967 0.11782 0.0
N467 N 0.13319 0.0581 0.11924 0.0
H468 H 0.06386 0.01808 0.13869 0.0
H469 H 0.189 0.95442 0.08589 0.0
C470 C 0.18559 0.85282 0.12675 0.0
O471 O 0.20448 0.89951 0.13684 0.0
N472 N 0.02574 0.84703 0.09879 0.0
C473 C 0.98374 0.85043 0.07907 0.0
C474 C 0.95581 0.80225 0.07878 0.0
C475 C 0.0219 0.79609 0.11061 0.0
N476 N 0.97963 0.76793 0.09841 0.0
C477 C 0.99494 0.91068 0.15455 0.0
C478 C 0.06534 0.91985 0.20285 0.0
C479 C 1.00917 0.92785 0.20748 0.0
C480 C 0.97361 0.92136 0.18309 0.0
C481 C 0.08489 0.90824 0.17403 0.0
N482 N 0.05 0.90534 0.15013 0.0
H483 H 0.96729 0.9096 0.13562 0.0
H484 H 0.12826 0.90508 0.17088 0.0
H485 H 0.97205 0.88565 0.06602 0.0
H486 H 0.04911 0.78014 0.12768 0.0
O487 O 0.02515 0.95916 0.09284 0.0
O488 O 0.08968 0.91797 0.06623 0.0
O489 O 0.13602 0.84874 0.11715 0.0
C490 C 0.04995 0.9536 0.06717 0.0
H491 H 0.20231 0.06071 0.08902 0.0
H492 H 0.91957 0.79359 0.06561 0.0
H493 H 0.09413 0.92429 0.22119 0.0
H494 H 0.92999 0.92772 0.18567 0.0
Co495 Co 0.61369 0.07686 0.6099 0.0
C496 C 0.50542 0.10281 0.63124 0.0
C497 C 0.53753 0.1683 0.60463 0.0
C498 C 0.48181 0.17413 0.60643 0.0
N499 N 0.55262 0.12349 0.62028 0.0
N500 N 0.46143 0.13177 0.62229 0.0
H501 H 0.50247 0.06175 0.64026 0.0
H502 H 0.56394 0.19045 0.58938 0.0
C503 C 0.6668 0.18583 0.62873 0.0
O504 O 0.62059 0.20396 0.63986 0.0
N505 N 0.67301 0.02766 0.5986 0.0
C506 C 0.67029 0.98773 0.5776 0.0
C507 C 0.71858 0.95994 0.5769 0.0
C508 C 0.72363 0.02274 0.61071 0.0
N509 N 0.75229 0.98179 0.59753 0.0
C510 C 0.60975 0.9934 0.65416 0.0
C511 C 0.60502 0.06059 0.70398 0.0
C512 C 0.5957 1.00427 0.7077 0.0
C513 C 0.59989 0.97043 0.68236 0.0
C514 C 0.61514 0.08188 0.67533 0.0
N515 N 0.616 0.04855 0.65074 0.0
H516 H 0.60982 0.96695 0.6347 0.0
H517 H 0.61892 0.12538 0.67294 0.0
H518 H 0.63549 0.97735 0.5639 0.0
H519 H 0.73894 0.04822 0.62873 0.0
O520 O 0.56067 0.02599 0.59374 0.0
O521 O 0.6001 0.09227 0.56765 0.0
O522 O 0.67067 0.13675 0.61842 0.0
C523 C 0.56497 0.05209 0.5684 0.0
H524 H 0.4576 0.2022 0.59309 0.0
H525 H 0.72762 0.92501 0.56278 0.0
H526 H 0.60162 0.08858 0.72274 0.0
H527 H 0.59407 0.92662 0.68409 0.0
C528 C 0.44362 0.09858 0.25166 0.0
C529 C 0.48908 0.07369 0.23795 0.0
H530 H 0.3887 0.09895 0.28935 0.0
C531 C 0.51349 0.02829 0.25193 0.0
H532 H 0.42403 0.13359 0.24131 0.0
C533 C 0.49278 1.00798 0.27897 0.0
C534 C 0.44767 0.03308 0.29286 0.0
H535 H 0.54814 1.00789 0.24168 0.0
H536 H 0.51264 0.97308 0.28929 0.0
C537 C 0.42348 0.07883 0.27907 0.0
C538 C 0.44058 0.48338 0.79124 0.0
C539 C 0.48178 0.44317 0.79282 0.0
H540 H 0.38968 0.53309 0.76318 0.0
C541 C 0.50263 0.42166 0.76587 0.0
H542 H 0.42404 0.50158 0.81147 0.0
C543 C 0.48352 0.4405 0.73811 0.0
C544 C 0.44286 0.48126 0.73652 0.0
H545 H 0.53399 0.39035 0.76617 0.0
H546 H 0.50175 0.42401 0.71787 0.0
C547 C 0.42132 0.50207 0.76348 0.0
C548 C 0.07843 0.42385 0.25204 0.0
C549 C 0.0326 0.4481 0.23835 0.0
H550 H 0.13337 0.42419 0.28975 0.0
C551 C 1.00749 0.49305 0.2524 0.0
H552 H 0.09855 0.38918 0.24165 0.0
C553 C 0.0279 0.51357 0.27946 0.0
C554 C 0.07341 0.48914 0.29333 0.0
H555 H 0.97253 0.51296 0.24217 0.0
H556 H 1.00751 0.54814 0.28981 0.0
C557 C 0.09827 0.4438 0.27949 0.0
C558 C 0.09769 0.07718 0.75077 0.0
C559 C 0.07296 0.03172 0.73698 0.0
H560 H 0.09777 0.132 0.78853 0.0
C561 C 0.0275 1.00725 0.75087 0.0
H562 H 0.13274 0.09683 0.74051 0.0
C563 C 1.007 0.02786 0.77789 0.0
C564 C 0.03196 0.07295 0.79188 0.0
H565 H 1.00721 0.97259 0.74056 0.0
H566 H 0.97208 1.00792 0.78813 0.0
C567 C 0.07775 0.09723 0.77818 0.0
C568 C 0.58064 0.98322 0.79203 0.0
C569 C 0.53965 0.9428 0.79356 0.0
H570 H 0.63113 0.03348 0.76406 0.0
C571 C 0.51889 0.92135 0.76656 0.0
H572 H 0.59711 1.00137 0.81229 0.0
C573 C 0.53782 0.94053 0.73883 0.0
C574 C 0.57818 0.98157 0.73731 0.0
H575 H 0.4877 0.88988 0.76681 0.0
H576 H 0.51961 0.92411 0.71857 0.0
C577 C 0.5997 1.00225 0.7643 0.0
C578 C 0.60018 0.51916 0.26574 0.0
C579 C 0.57879 0.53977 0.29278 0.0
H580 H 0.59745 0.52033 0.21775 0.0
C581 C 0.53855 0.58096 0.29136 0.0
H582 H 0.6315 0.48782 0.26591 0.0
C583 C 0.51959 0.60034 0.26368 0.0
C584 C 0.5402 0.57896 0.23663 0.0
H585 H 0.52046 0.59732 0.31167 0.0
H586 H 0.48847 0.63188 0.26351 0.0
C587 C 0.5811 0.53842 0.23806 0.0
C588 C 0.01319 0.52782 0.77943 0.0
C589 C 0.98851 0.57321 0.79328 0.0
H590 H 0.01285 0.47242 0.74215 0.0
C591 C 0.94301 0.5978 0.77945 0.0
H592 H 0.04789 0.50766 0.78977 0.0
C593 C 0.92314 0.57782 0.75202 0.0
C594 C 0.94765 0.53212 0.73833 0.0
H595 H 0.92321 0.63279 0.7897 0.0
H596 H 0.88836 0.59774 0.74163 0.0
C597 C 0.99275 0.50727 0.75238 0.0
C598 C 0.94296 0.92282 0.25071 0.0
C599 C 0.98838 0.94756 0.23689 0.0
H600 H 0.88838 0.92262 0.28856 0.0
C601 C 0.013 0.99291 0.2508 0.0
H602 H 0.92321 0.88784 0.24042 0.0
C603 C 0.99256 0.01331 0.27788 0.0
C604 C 0.94753 0.98833 0.29191 0.0
H605 H 0.04764 0.01318 0.24046 0.0
H606 H 0.01259 0.04817 0.28814 0.0
C607 C 0.92311 0.94264 0.27818 0.0
C608 C 0.70462 0.26922 0.12666 0.0
C609 C 0.72438 0.21533 0.12704 0.0
H610 H 0.72438 0.35458 0.12705 0.0
C611 C 0.78153 0.2069 0.12705 0.0
H612 H 0.66101 0.27717 0.1266 0.0
C613 C 0.81802 0.25122 0.12678 0.0
C614 C 0.79825 0.30511 0.12716 0.0
H615 H 0.79823 0.16584 0.12708 0.0
H616 H 0.86163 0.24328 0.12682 0.0
C617 C 0.7411 0.31352 0.12704 0.0
C618 C 0.20527 0.73825 0.62596 0.0
C619 C 0.21392 0.79535 0.62633 0.0
H620 H 0.24132 0.65799 0.62549 0.0
C621 C 0.2679 0.81487 0.62641 0.0
H622 H 0.16414 0.72174 0.62562 0.0
C623 C 0.31207 0.77818 0.62689 0.0
C624 C 0.30341 0.72107 0.62661 0.0
H625 H 0.27603 0.85844 0.62666 0.0
H626 H 0.35319 0.79469 0.62728 0.0
C627 C 0.24945 0.70157 0.62576 0.0
C628 C 0.81617 0.26914 0.90271 0.0
C629 C 0.79661 0.21517 0.90283 0.0
H630 H 0.79602 0.35444 0.90183 0.0
C631 C 0.7395 0.20656 0.90328 0.0
H632 H 0.85975 0.27723 0.90239 0.0
C633 C 0.70285 0.25075 0.90351 0.0
C634 C 0.72238 0.3047 0.9026 0.0
H635 H 0.72296 0.16545 0.90365 0.0
H636 H 0.65927 0.24264 0.90383 0.0
C637 C 0.77949 0.31332 0.90225 0.0
C638 C 0.26779 0.70566 0.4045 0.0
C639 C 0.21388 0.72537 0.40406 0.0
H640 H 0.35313 0.72546 0.40417 0.0
C641 C 0.20541 0.78251 0.40398 0.0
H642 H 0.27579 0.66205 0.40461 0.0
C643 C 0.24971 0.81902 0.40426 0.0
C644 C 0.30362 0.79929 0.40397 0.0
H645 H 0.16433 0.79917 0.40391 0.0
H646 H 0.24174 0.86263 0.40418 0.0
C647 C 0.31207 0.74215 0.40413 0.0
C648 C 0.28151 0.70646 0.90423 0.0
C649 C 0.22441 0.71511 0.90378 0.0
H650 H 0.36175 0.74249 0.90466 0.0
C651 C 0.20487 0.76908 0.9035 0.0
H652 H 0.29803 0.66533 0.90471 0.0
C653 C 0.24155 0.81324 0.90291 0.0
C654 C 0.29865 0.80457 0.90327 0.0
H655 H 0.16129 0.7772 0.90317 0.0
H656 H 0.22504 0.85437 0.90238 0.0
C657 C 0.31817 0.75062 0.90432 0.0
C658 C 0.74968 0.20271 0.40235 0.0
C659 C 0.80364 0.22225 0.40291 0.0
H660 H 0.66438 0.22296 0.4009 0.0
C661 C 0.81226 0.27934 0.40362 0.0
H662 H 0.74159 0.15914 0.40181 0.0
C663 C 0.76811 0.316 0.40364 0.0
C664 C 0.71417 0.29653 0.40227 0.0
H665 H 0.85337 0.29587 0.40434 0.0
H666 H 0.77625 0.35957 0.40417 0.0
C667 C 0.70551 0.23943 0.40168 0.0
C668 C 0.20412 0.7512 0.12673 0.0
C669 C 0.2236 0.80519 0.12624 0.0
H670 H 0.22442 0.66594 0.12814 0.0
C671 C 0.28069 0.81387 0.12566 0.0
H672 H 0.16055 0.74307 0.12716 0.0
C673 C 0.3174 0.76974 0.12567 0.0
C674 C 0.29796 0.71578 0.12696 0.0
H675 H 0.29717 0.855 0.12501 0.0
H676 H 0.36096 0.77791 0.12524 0.0
C677 C 0.24086 0.70707 0.12743 0.0
C678 C 0.76819 0.20445 0.62661 0.0
C679 C 0.71427 0.224 0.62782 0.0
H680 H 0.85348 0.22447 0.6261 0.0
C681 C 0.70566 0.28112 0.62835 0.0
H682 H 0.77629 0.16087 0.62613 0.0
C683 C 0.74987 0.31777 0.62776 0.0
C684 C 0.80382 0.29816 0.62734 0.0
H685 H 0.66455 0.29764 0.62901 0.0
H686 H 0.74182 0.36135 0.62823 0.0
C687 C 0.81239 0.24105 0.6267 0.0
C688 C 0.56021 0.82947 0.13259 0.0
C689 C 0.5599 0.80792 0.10331 0.0
H690 H 0.58538 0.8964 0.16096 0.0
C691 C 0.58303 0.83863 0.07988 0.0
H692 H 0.54265 0.80656 0.15103 0.0
C693 C 0.60815 0.88844 0.0856 0.0
C694 C 0.61047 0.90932 0.11491 0.0
H695 H 0.58196 0.82392 0.05695 0.0
H696 H 0.625 0.9112 0.0669 0.0
C697 C 0.58516 0.88018 0.13832 0.0
C698 C 0.68868 0.55719 0.63383 0.0
C699 C 0.71276 0.5605 0.60522 0.0
H700 H 0.61922 0.57869 0.66123 0.0
C701 C 0.68399 0.58626 0.58188 0.0
H702 H 0.71014 0.5376 0.65218 0.0
C703 C 0.63352 0.61039 0.58713 0.0
C704 C 0.61003 0.6091 0.61586 0.0
H705 H 0.70083 0.58808 0.55941 0.0
H706 H 0.61236 0.62928 0.56845 0.0
C707 C 0.63734 0.58121 0.63908 0.0
C708 C 0.93696 0.64001 0.13891 0.0
C709 C 0.91073 0.61156 0.11552 0.0
H710 H 0.98001 0.71328 0.15177 0.0
C711 C 0.91203 0.63327 0.08638 0.0
H712 H 0.93752 0.62318 0.1614 0.0
C713 C 0.93698 0.68322 0.08083 0.0
C714 C 0.96099 0.71321 0.10426 0.0
H715 H 0.8945 0.61111 0.06765 0.0
H716 H 0.93711 0.69874 0.05805 0.0
C717 C 0.96178 0.69084 0.13334 0.0
C718 C 0.83731 0.93951 0.57994 0.0
C719 C 0.80682 0.96253 0.60349 0.0
H720 H 0.90969 0.89744 0.56669 0.0
C721 C 0.82868 0.96209 0.63271 0.0
H722 H 0.82234 0.94066 0.55706 0.0
C723 C 0.87942 0.93704 0.63826 0.0
C724 C 0.90828 0.91175 0.61472 0.0
H725 H 0.80594 0.97957 0.65124 0.0
H726 H 0.89584 0.93664 0.66085 0.0
C727 C 0.88715 0.91429 0.58548 0.0
C728 C 0.58331 0.63966 0.89146 0.0
C729 C 0.61001 0.61099 0.91459 0.0
H730 H 0.54025 0.71312 0.87903 0.0
C731 C 0.60981 0.63271 0.94374 0.0
H732 H 0.58193 0.62285 0.86897 0.0
C733 C 0.58531 0.68279 0.94956 0.0
C734 C 0.56068 0.71297 0.92638 0.0
H735 H 0.62779 0.61038 0.96229 0.0
H736 H 0.58582 0.69809 0.97238 0.0
C737 C 0.55897 0.69064 0.89728 0.0
C738 C 0.82861 0.55874 0.39733 0.0
C739 C 0.80705 0.55778 0.42661 0.0
H740 H 0.89549 0.58472 0.36914 0.0
C741 C 0.83778 0.58034 0.4502 0.0
H742 H 0.80568 0.54162 0.37877 0.0
C743 C 0.88755 0.60567 0.44465 0.0
C744 C 0.90835 0.60877 0.41536 0.0
H745 H 0.82303 0.57877 0.47312 0.0
H746 H 0.91029 0.62219 0.46346 0.0
C747 C 0.87929 0.5839 0.39177 0.0
C748 C 0.91368 0.88813 0.94366 0.0
C749 C 0.91134 0.90919 0.91439 0.0
H750 H 0.93978 0.82328 0.97215 0.0
C751 C 0.93692 0.88034 0.89094 0.0
H752 H 0.89664 0.91066 0.9624 0.0
C753 C 0.96202 0.82966 0.89658 0.0
C754 C 0.96217 0.80786 0.9258 0.0
H755 H 0.93671 0.89672 0.86834 0.0
H756 H 0.97968 0.80686 0.87813 0.0
C757 C 0.93891 0.83834 0.94928 0.0
C758 C 0.63771 0.93789 0.39182 0.0
C759 C 0.6105 0.91042 0.41522 0.0
H760 H 0.71036 0.98143 0.37842 0.0
C761 C 0.63407 0.90972 0.44394 0.0
H762 H 0.61954 0.93994 0.36966 0.0
C763 C 0.68449 0.93407 0.44901 0.0
C764 C 0.71311 0.95947 0.42551 0.0
H765 H 0.61302 0.89118 0.46276 0.0
H766 H 0.70142 0.93271 0.47148 0.0
C767 C 0.68898 0.96214 0.39689 0.0
C768 C 0.43579 0.18318 0.94907 0.0
C769 C 0.46062 0.21296 0.92581 0.0
H770 H 0.39318 0.11101 0.96204 0.0
C771 C 0.46265 0.19015 0.89684 0.0
H772 H 0.43502 0.19892 0.9718 0.0
C773 C 0.43836 0.13908 0.89121 0.0
C774 C 0.4114 0.11082 0.91439 0.0
H775 H 0.48153 0.21234 0.87853 0.0
H776 H 0.43994 0.1219 0.8688 0.0
C777 C 0.41135 0.13301 0.94344 0.0
C778 C 0.33879 0.44078 0.44841 0.0
C779 C 0.30756 0.46386 0.42517 0.0
H780 H 0.41165 0.39871 0.4609 0.0
C781 C 0.32859 0.46378 0.39577 0.0
H782 H 0.32441 0.44164 0.4714 0.0
C783 C 0.37923 0.43889 0.38972 0.0
C784 C 0.40876 0.41341 0.41293 0.0
H785 H 0.30525 0.48132 0.37749 0.0
H786 H 0.395 0.43867 0.36699 0.0
C787 C 0.38853 0.41574 0.44237 0.0
C788 C 0.0826 0.3368 0.94912 0.0
C789 C 0.05864 0.30731 0.92548 0.0
H790 H 0.12515 0.4086 0.96278 0.0
C791 C 0.0578 0.33035 0.89656 0.0
H792 H 0.08252 0.32072 0.97179 0.0
C793 C 0.08264 0.3813 0.89134 0.0
C794 C 0.10891 0.40919 0.91491 0.0
H795 H 0.03962 0.3083 0.87798 0.0
H796 H 0.08213 0.39861 0.86895 0.0
C797 C 0.10755 0.38687 0.94391 0.0
C798 C 0.18934 0.05995 0.39685 0.0
C799 C 0.2126 0.06187 0.4257 0.0
H800 H 0.12075 0.08295 0.36916 0.0
C801 C 0.18329 0.08667 0.44914 0.0
H802 H 0.21126 0.04111 0.37842 0.0
C803 C 0.13306 0.11123 0.44379 0.0
C804 C 0.1104 0.11135 0.41485 0.0
H805 H 0.19954 0.08743 0.47176 0.0
H806 H 0.11144 0.12933 0.46255 0.0
C807 C 0.13826 0.08441 0.39149 0.0
C808 C 0.46437 0.3306 0.13445 0.0
C809 C 0.4628 0.30798 0.10543 0.0
H810 H 0.44098 0.39858 0.16252 0.0
C811 C 0.43845 0.33794 0.08208 0.0
H812 H 0.4829 0.30821 0.1528 0.0
C813 C 0.41384 0.38805 0.0877 0.0
C814 C 0.41322 0.40993 0.11681 0.0
H815 H 0.438 0.32227 0.05934 0.0
H816 H 0.39589 0.41015 0.06906 0.0
C817 C 0.4399 0.38159 0.14007 0.0
C818 C 0.18984 0.45988 0.63246 0.0
C819 C 0.21234 0.45864 0.60341 0.0
H820 H 0.12194 0.43634 0.66052 0.0
C821 C 0.18243 0.43428 0.58005 0.0
H822 H 0.21217 0.47838 0.65084 0.0
C823 C 0.13236 0.40958 0.58564 0.0
C824 C 0.11044 0.4089 0.61474 0.0
H825 H 0.19796 0.4341 0.55728 0.0
H826 H 0.11023 0.39189 0.56695 0.0
C827 C 0.1389 0.43532 0.63806 0.0
C828 C 0.05851 0.19014 0.13331 0.0
C829 C 0.06038 0.21386 0.10458 0.0
H830 H 0.08166 0.12114 0.16066 0.0
C831 C 0.0851 0.18489 0.08098 0.0
H832 H 0.03974 0.21179 0.15186 0.0
C833 C 0.10969 0.1346 0.08607 0.0
C834 C 0.10994 0.11152 0.11491 0.0
H835 H 0.08582 0.20151 0.05844 0.0
H836 H 0.12781 0.11328 0.06721 0.0
C837 C 0.08301 0.13899 0.13841 0.0
C838 C 0.38821 0.1054 0.58767 0.0
C839 C 0.40873 0.10761 0.61706 0.0
H840 H 0.32383 0.07955 0.55879 0.0
C841 C 0.37946 0.08199 0.64032 0.0
H842 H 0.41112 0.12252 0.5691 0.0
C843 C 0.32881 0.05705 0.63438 0.0
C844 C 0.30749 0.05708 0.60504 0.0
H845 H 0.39545 0.08212 0.663 0.0
H846 H 0.30566 0.0394 0.6527 0.0
C847 C 0.33846 0.08031 0.58174 0.0
C848 C 0.46748 0.97276 0.01816 0.0
C849 C 0.48988 0.98363 0.98976 0.0
H850 H 0.46952 0.99016 0.06528 0.0
C851 C 0.5327 0.0219 0.98739 0.0
H852 H 0.43471 0.9433 0.02074 0.0
C853 C 0.55284 0.04861 1.01289 0.0
C854 C 0.53053 0.03767 0.0413 0.0
H855 H 0.55089 0.03119 0.9658 0.0
H856 H 0.58568 0.07799 1.0103 0.0
C857 C 0.48764 0.99947 0.04368 0.0
C858 C 0.47111 0.55186 0.51174 0.0
C859 C 0.48202 0.52936 0.54011 0.0
H860 H 0.48825 0.54982 0.4646 0.0
C861 C 0.51979 0.48607 0.54238 0.0
H862 H 0.44198 0.58496 0.50924 0.0
C863 C 0.54611 0.46569 0.51681 0.0
C864 C 0.5353 0.48827 0.48846 0.0
H865 H 0.52904 0.46775 0.56394 0.0
H866 H 0.57527 0.43262 0.51933 0.0
C867 C 0.49746 0.5315 0.48617 0.0
C868 C 0.96842 0.47254 1.01306 0.0
C869 C 0.99077 0.48366 0.04146 0.0
H870 H 0.9703 0.48973 0.96592 0.0
C871 C 0.0335 0.52203 0.04376 0.0
H872 H 0.93569 0.44302 1.01053 0.0
C873 C 0.05353 0.54866 0.01821 0.0
C874 C 0.03118 0.53757 0.98981 0.0
H875 H 0.05164 0.5315 0.06534 0.0
H876 H 0.08626 0.57819 0.02074 0.0
C877 C 0.98844 0.49919 0.98751 0.0
C878 C 0.97138 0.05202 0.51733 0.0
C879 C 0.98243 0.02976 0.4889 0.0
H880 H 0.9888 0.05008 0.56445 0.0
C881 C 0.02087 0.98708 0.48654 0.0
H882 H 0.94182 0.08471 0.51991 0.0
C883 C 0.04764 0.96703 0.51205 0.0
C884 C 0.03665 0.98933 0.54047 0.0
H885 H 0.03028 0.96898 0.46494 0.0
H886 H 0.0772 0.93434 0.50946 0.0
C887 C 0.9982 0.032 0.54284 0.0
C888 C 0.4873 0.52093 0.98695 0.0
C889 C 0.5305 0.48304 0.98924 0.0
H890 H 0.434 0.57661 1.00995 0.0
C891 C 0.55301 0.4722 0.01762 0.0
H892 H 0.46899 0.53015 0.96538 0.0
C893 C 0.53274 0.4987 0.04316 0.0
C894 C 0.48959 0.53663 0.04086 0.0
H895 H 0.58606 0.44301 0.02014 0.0
H896 H 0.55106 0.48952 0.06474 0.0
C897 C 0.46702 0.5474 1.01249 0.0
C898 C 0.99798 0.48875 0.48737 0.0
C899 C 0.03643 0.53141 0.48977 0.0
H900 H 0.94157 0.43603 0.51026 0.0
C901 C 0.04737 0.55369 0.5182 0.0
H902 H 0.98863 0.47069 0.46575 0.0
C903 C 0.02055 0.53363 0.54369 0.0
C904 C 0.98213 0.49096 0.5413 0.0
H905 H 0.07693 0.58636 0.52082 0.0
H906 H 0.02995 0.55171 0.5653 0.0
C907 C 0.97112 0.46872 0.51286 0.0
C908 C 0.98753 0.02131 0.04248 0.0
C909 C 0.03031 0.98297 0.04014 0.0
H910 H 0.93467 0.07746 0.01951 0.0
C911 C 0.05258 0.97189 1.01173 0.0
H912 H 0.96943 0.03074 0.06408 0.0
C913 C 0.03246 0.99854 0.98619 0.0
C914 C 0.98971 0.03691 0.98854 0.0
H915 H 0.08533 0.94239 1.00916 0.0
H916 H 0.05056 0.98911 0.96459 0.0
C917 C 0.96741 0.04796 0.01695 0.0
C918 C 0.51968 0.03538 0.48747 0.0
C919 C 0.48158 0.99238 0.48974 0.0
H920 H 0.5756 0.08835 0.51054 0.0
C921 C 0.47046 0.97002 0.51812 0.0
H922 H 0.52909 0.05358 0.4659 0.0
C923 C 0.49698 0.99014 0.54368 0.0
C924 C 0.53522 0.03301 0.5414 0.0
H925 H 0.44112 0.93712 0.52063 0.0
H926 H 0.48762 0.97189 0.56525 0.0
C927 C 0.54617 0.05553 0.51304 0.0
loop_
_geom_bond_atom_site_label_1
_geom_bond_atom_site_label_2
_geom_bond_distance
_geom_bond_site_symmetry_2
_ccdc_geom_bond_type
Co0 N4 2.148 . S
Co0 N10 2.128 . S
Co0 N20 2.194 . S
Co0 O25 2.351 . S
Co0 O26 2.155 . S
Co0 O27 2.096 . S
C1 N4 1.304 1_565 S
C1 N5 1.327 . S
C1 H6 0.929 . S
C2 C3 1.333 1_545 S
C2 N4 1.317 . S
C2 H7 0.930 . S
C3 C2 1.333 1_565 S
C3 N5 1.350 . S
C3 H29 0.931 . S
N4 Co0 2.148 . S
N4 C1 1.304 1_545 S
N4 C2 1.317 . S
N5 C1 1.327 . S
N5 C3 1.350 . S
H6 C1 0.929 . S
H7 C2 0.930 . S
C8 O9 1.224 . S
C8 O27 1.247 . S
O9 C8 1.224 . S
N10 Co0 2.128 . S
N10 C11 1.355 . S
N10 C13 1.311 . S
C11 N10 1.355 . S
C11 C12 1.363 . S
C11 H23 0.929 . S
C12 C11 1.363 . S
C12 N14 1.375 . S
C12 H30 0.931 . S
C13 N10 1.311 . S
C13 N14 1.347 . S
C13 H24 0.929 . S
N14 C12 1.375 . S
N14 C13 1.347 . S
C15 C18 1.365 . S
C15 N20 1.328 . S
C15 H21 0.929 . S
C16 C17 1.362 . S
C16 C19 1.378 . S
C16 H31 0.929 . S
C17 C16 1.362 . S
C17 C18 1.366 . S
C18 C15 1.365 . S
C18 C17 1.366 . S
C18 H32 0.930 . S
C19 C16 1.378 . S
C19 N20 1.315 . S
C19 H22 0.930 . S
N20 Co0 2.194 . S
N20 C15 1.328 . S
N20 C19 1.315 . S
H21 C15 0.929 . S
H22 C19 0.930 . S
H23 C11 0.929 . S
H24 C13 0.929 . S
O25 Co0 2.351 . S
O25 C28 1.244 . S
O26 Co0 2.155 . S
O26 C28 1.240 . S
O27 Co0 2.096 . S
O27 C8 1.247 . S
C28 O25 1.244 . S
C28 O26 1.240 . S
H29 C3 0.931 . S
H30 C12 0.931 . S
H31 C16 0.929 . S
H32 C18 0.930 . S
Co33 N37 2.148 . S
Co33 N43 2.128 . S
Co33 N53 2.194 . S
Co33 O58 2.351 . S
Co33 O59 2.155 . S
Co33 O60 2.096 . S
C34 N37 1.301 . S
C34 N38 1.328 . S
C34 H39 0.930 . S
C35 C36 1.333 . S
C35 N37 1.317 . S
C35 H40 0.930 . S
C36 C35 1.333 . S
C36 N38 1.350 . S
C36 H62 0.931 . S
N37 Co33 2.148 . S
N37 C34 1.301 . S
N37 C35 1.317 . S
N38 C34 1.328 . S
N38 C36 1.350 . S
H39 C34 0.930 . S
H40 C35 0.930 . S
C41 O42 1.224 . S
C41 O60 1.247 . S
O42 C41 1.224 . S
N43 Co33 2.128 . S
N43 C44 1.355 . S
N43 C46 1.311 . S
C44 N43 1.355 . S
C44 C45 1.363 . S
C44 H56 0.929 . S
C45 C44 1.363 . S
C45 N47 1.375 . S
C45 H63 0.931 . S
C46 N43 1.311 . S
C46 N47 1.347 . S
C46 H57 0.929 . S
N47 C45 1.375 . S
N47 C46 1.347 . S
C48 C51 1.365 . S
C48 N53 1.328 . S
C48 H54 0.929 . S
C49 C50 1.362 . S
C49 C52 1.378 . S
C49 H64 0.929 . S
C50 C49 1.362 . S
C50 C51 1.366 . S
C51 C48 1.365 . S
C51 C50 1.366 . S
C51 H65 0.930 . S
C52 C49 1.378 . S
C52 N53 1.315 . S
C52 H55 0.930 . S
N53 Co33 2.194 . S
N53 C48 1.328 . S
N53 C52 1.315 . S
H54 C48 0.929 . S
H55 C52 0.930 . S
H56 C44 0.929 . S
H57 C46 0.929 . S
O58 Co33 2.351 . S
O58 C61 1.244 . S
O59 Co33 2.155 . S
O59 C61 1.240 . S
O60 Co33 2.096 . S
O60 C41 1.247 . S
C61 O58 1.244 . S
C61 O59 1.240 . S
H62 C36 0.931 . S
H63 C45 0.931 . S
H64 C49 0.929 . S
H65 C51 0.930 . S
Co66 N70 2.148 . S
Co66 N76 2.128 1_655 S
Co66 N86 2.194 1_655 S
Co66 O91 2.351 1_655 S
Co66 O92 2.155 . S
Co66 O93 2.096 . S
C67 N70 1.301 . S
C67 N71 1.328 . S
C67 H72 0.930 . S
C68 C69 1.333 . S
C68 N70 1.317 . S
C68 H73 0.930 . S
C69 C68 1.333 . S
C69 N71 1.350 . S
C69 H95 0.931 . S
N70 Co66 2.148 . S
N70 C67 1.301 . S
N70 C68 1.317 . S
N71 C67 1.328 . S
N71 C69 1.350 . S
H72 C67 0.930 . S
H73 C68 0.930 . S
C74 O75 1.224 . S
C74 O93 1.247 . S
O75 C74 1.224 . S
N76 Co66 2.128 1_455 S
N76 C77 1.355 . S
N76 C79 1.311 1_455 S
C77 N76 1.355 . S
C77 C78 1.363 . S
C77 H89 0.929 . S
C78 C77 1.363 . S
C78 N80 1.375 . S
C78 H96 0.931 . S
C79 N76 1.311 1_655 S
C79 N80 1.347 1_655 S
C79 H90 0.929 . S
N80 C78 1.375 . S
N80 C79 1.347 1_455 S
C81 C84 1.365 . S
C81 N86 1.328 . S
C81 H87 0.929 . S
C82 C83 1.362 . S
C82 C85 1.378 1_455 S
C82 H97 0.929 1_455 S
C83 C82 1.362 . S
C83 C84 1.366 . S
C84 C81 1.365 . S
C84 C83 1.366 . S
C84 H98 0.930 . S
C85 C82 1.378 1_655 S
C85 N86 1.315 1_655 S
C85 H88 0.930 . S
N86 Co66 2.194 1_455 S
N86 C81 1.328 . S
N86 C85 1.315 1_455 S
H87 C81 0.929 . S
H88 C85 0.930 . S
H89 C77 0.929 . S
H90 C79 0.929 . S
O91 Co66 2.351 1_455 S
O91 C94 1.244 . S
O92 Co66 2.155 . S
O92 C94 1.240 1_655 S
O93 Co66 2.096 . S
O93 C74 1.247 . S
C94 O91 1.244 . S
C94 O92 1.240 1_455 S
H95 C69 0.931 . S
H96 C78 0.931 . S
H97 C82 0.929 1_655 S
H98 C84 0.930 . S
Co99 N103 2.148 . S
Co99 N109 2.128 1_565 S
Co99 N119 2.194 1_565 S
Co99 O124 2.351 1_565 S
Co99 O125 2.155 . S
Co99 O126 2.096 . S
C100 N103 1.304 1_655 S
C100 N104 1.327 . S
C100 H105 0.929 . S
C101 C102 1.333 1_455 S
C101 N103 1.317 . S
C101 H106 0.930 . S
C102 C101 1.333 1_655 S
C102 N104 1.350 . S
C102 H128 0.931 . S
N103 Co99 2.148 . S
N103 C100 1.304 1_455 S
N103 C101 1.317 . S
N104 C100 1.327 . S
N104 C102 1.350 . S
H105 C100 0.929 . S
H106 C101 0.930 . S
C107 O108 1.224 . S
C107 O126 1.247 . S
O108 C107 1.224 . S
N109 Co99 2.128 1_545 S
N109 C110 1.355 . S
N109 C112 1.311 1_545 S
C110 N109 1.355 . S
C110 C111 1.363 . S
C110 H122 0.929 . S
C111 C110 1.363 . S
C111 N113 1.375 . S
C111 H129 0.931 . S
C112 N109 1.311 1_565 S
C112 N113 1.347 1_565 S
C112 H123 0.929 . S
N113 C111 1.375 . S
N113 C112 1.347 1_545 S
C114 C117 1.365 . S
C114 N119 1.328 . S
C114 H120 0.929 . S
C115 C116 1.362 . S
C115 C118 1.378 1_545 S
C115 H130 0.929 1_545 S
C116 C115 1.362 . S
C116 C117 1.366 . S
C117 C114 1.365 . S
C117 C116 1.366 . S
C117 H131 0.930 . S
C118 C115 1.378 1_565 S
C118 N119 1.315 1_565 S
C118 H121 0.930 . S
N119 Co99 2.194 1_545 S
N119 C114 1.328 . S
N119 C118 1.315 1_545 S
H120 C114 0.929 . S
H121 C118 0.930 . S
H122 C110 0.929 . S
H123 C112 0.929 . S
O124 Co99 2.351 1_545 S
O124 C127 1.244 . S
O125 Co99 2.155 . S
O125 C127 1.240 1_565 S
O126 Co99 2.096 . S
O126 C107 1.247 . S
C127 O124 1.244 . S
C127 O125 1.240 1_545 S
H128 C102 0.931 . S
H129 C111 0.931 . S
H130 C115 0.929 1_565 S
H131 C117 0.930 . S
Co132 N136 2.148 . S
Co132 N142 2.128 . S
Co132 N152 2.194 . S
Co132 O157 2.351 . S
Co132 O158 2.155 . S
Co132 O159 2.096 . S
C133 N136 1.301 . S
C133 N137 1.328 . S
C133 H138 0.930 . S
C134 C135 1.333 . S
C134 N136 1.317 . S
C134 H139 0.930 . S
C135 C134 1.333 . S
C135 N137 1.350 . S
C135 H161 0.931 . S
N136 Co132 2.148 . S
N136 C133 1.301 . S
N136 C134 1.317 . S
N137 C133 1.328 . S
N137 C135 1.350 . S
H138 C133 0.930 . S
H139 C134 0.930 . S
C140 O141 1.224 . S
C140 O159 1.247 . S
O141 C140 1.224 . S
N142 Co132 2.128 . S
N142 C143 1.355 . S
N142 C145 1.311 . S
C143 N142 1.355 . S
C143 C144 1.363 . S
C143 H155 0.929 . S
C144 C143 1.363 . S
C144 N146 1.375 . S
C144 H162 0.931 . S
C145 N142 1.311 . S
C145 N146 1.347 . S
C145 H156 0.929 . S
N146 C144 1.375 . S
N146 C145 1.347 . S
C147 C150 1.365 . S
C147 N152 1.328 . S
C147 H153 0.929 . S
C148 C149 1.362 . S
C148 C151 1.378 . S
C148 H163 0.929 . S
C149 C148 1.362 . S
C149 C150 1.366 . S
C150 C147 1.365 . S
C150 C149 1.366 . S
C150 H164 0.930 . S
C151 C148 1.378 . S
C151 N152 1.315 . S
C151 H154 0.930 . S
N152 Co132 2.194 . S
N152 C147 1.328 . S
N152 C151 1.315 . S
H153 C147 0.929 . S
H154 C151 0.930 . S
H155 C143 0.929 . S
H156 C145 0.929 . S
O157 Co132 2.351 . S
O157 C160 1.244 . S
O158 Co132 2.155 . S
O158 C160 1.240 . S
O159 Co132 2.096 . S
O159 C140 1.247 . S
C160 O157 1.244 . S
C160 O158 1.240 . S
H161 C135 0.931 . S
H162 C144 0.931 . S
H163 C148 0.929 . S
H164 C150 0.930 . S
Co165 N169 2.148 . S
Co165 N175 2.128 . S
Co165 N185 2.194 . S
Co165 O190 2.351 . S
Co165 O191 2.155 . S
Co165 O192 2.096 . S
C166 N169 1.304 1_655 S
C166 N170 1.327 . S
C166 H171 0.929 . S
C167 C168 1.333 1_455 S
C167 N169 1.317 . S
C167 H172 0.930 . S
C168 C167 1.333 1_655 S
C168 N170 1.350 . S
C168 H194 0.931 . S
N169 Co165 2.148 . S
N169 C166 1.304 1_455 S
N169 C167 1.317 . S
N170 C166 1.327 . S
N170 C168 1.350 . S
H171 C166 0.929 . S
H172 C167 0.930 . S
C173 O174 1.224 . S
C173 O192 1.247 . S
O174 C173 1.224 . S
N175 Co165 2.128 . S
N175 C176 1.355 . S
N175 C178 1.311 . S
C176 N175 1.355 . S
C176 C177 1.363 . S
C176 H188 0.929 . S
C177 C176 1.363 . S
C177 N179 1.375 . S
C177 H195 0.931 . S
C178 N175 1.311 . S
C178 N179 1.347 . S
C178 H189 0.929 . S
N179 C177 1.375 . S
N179 C178 1.347 . S
C180 C183 1.365 . S
C180 N185 1.328 . S
C180 H186 0.929 . S
C181 C182 1.362 . S
C181 C184 1.378 . S
C181 H196 0.929 . S
C182 C181 1.362 . S
C182 C183 1.366 . S
C183 C180 1.365 . S
C183 C182 1.366 . S
C183 H197 0.930 . S
C184 C181 1.378 . S
C184 N185 1.315 . S
C184 H187 0.930 . S
N185 Co165 2.194 . S
N185 C180 1.328 . S
N185 C184 1.315 . S
H186 C180 0.929 . S
H187 C184 0.930 . S
H188 C176 0.929 . S
H189 C178 0.929 . S
O190 Co165 2.351 . S
O190 C193 1.244 . S
O191 Co165 2.155 . S
O191 C193 1.240 . S
O192 Co165 2.096 . S
O192 C173 1.247 . S
C193 O190 1.244 . S
C193 O191 1.240 . S
H194 C168 0.931 . S
H195 C177 0.931 . S
H196 C181 0.929 . S
H197 C183 0.930 . S
Co198 N202 2.148 . S
Co198 N208 2.128 1_655 S
Co198 N218 2.194 1_655 S
Co198 O223 2.351 1_655 S
Co198 O224 2.155 . S
Co198 O225 2.096 . S
C199 N202 1.304 1_565 S
C199 N203 1.327 . S
C199 H204 0.929 . S
C200 C201 1.333 1_545 S
C200 N202 1.317 . S
C200 H205 0.930 . S
C201 C200 1.333 1_565 S
C201 N203 1.350 . S
C201 H227 0.931 . S
N202 Co198 2.148 . S
N202 C199 1.304 1_545 S
N202 C200 1.317 . S
N203 C199 1.327 . S
N203 C201 1.350 . S
H204 C199 0.929 . S
H205 C200 0.930 . S
C206 O207 1.224 . S
C206 O225 1.247 . S
O207 C206 1.224 . S
N208 Co198 2.128 1_455 S
N208 C209 1.355 . S
N208 C211 1.311 1_455 S
C209 N208 1.355 . S
C209 C210 1.363 . S
C209 H221 0.929 . S
C210 C209 1.363 . S
C210 N212 1.375 . S
C210 H228 0.931 . S
C211 N208 1.311 1_655 S
C211 N212 1.347 1_655 S
C211 H222 0.929 . S
N212 C210 1.375 . S
N212 C211 1.347 1_455 S
C213 C216 1.365 . S
C213 N218 1.328 . S
C213 H219 0.929 . S
C214 C215 1.362 . S
C214 C217 1.378 1_455 S
C214 H229 0.929 1_455 S
C215 C214 1.362 . S
C215 C216 1.366 . S
C216 C213 1.365 . S
C216 C215 1.366 . S
C216 H230 0.930 . S
C217 C214 1.378 1_655 S
C217 N218 1.315 1_655 S
C217 H220 0.930 . S
N218 Co198 2.194 1_455 S
N218 C213 1.328 . S
N218 C217 1.315 1_455 S
H219 C213 0.929 . S
H220 C217 0.930 . S
H221 C209 0.929 . S
H222 C211 0.929 . S
O223 Co198 2.351 1_455 S
O223 C226 1.244 . S
O224 Co198 2.155 . S
O224 C226 1.240 1_655 S
O225 Co198 2.096 . S
O225 C206 1.247 . S
C226 O223 1.244 . S
C226 O224 1.240 1_455 S
H227 C201 0.931 . S
H228 C210 0.931 . S
H229 C214 0.929 1_655 S
H230 C216 0.930 . S
Co231 N235 2.148 . S
Co231 N241 2.128 1_565 S
Co231 N251 2.194 1_565 S
Co231 O256 2.351 1_565 S
Co231 O257 2.155 . S
Co231 O258 2.096 . S
C232 N235 1.301 . S
C232 N236 1.328 . S
C232 H237 0.930 . S
C233 C234 1.333 . S
C233 N235 1.317 . S
C233 H238 0.930 . S
C234 C233 1.333 . S
C234 N236 1.350 . S
C234 H260 0.931 . S
N235 Co231 2.148 . S
N235 C232 1.301 . S
N235 C233 1.317 . S
N236 C232 1.328 . S
N236 C234 1.350 . S
H237 C232 0.930 . S
H238 C233 0.930 . S
C239 O240 1.224 . S
C239 O258 1.247 . S
O240 C239 1.224 . S
N241 Co231 2.128 1_545 S
N241 C242 1.355 . S
N241 C244 1.311 1_545 S
C242 N241 1.355 . S
C242 C243 1.363 . S
C242 H254 0.929 . S
C243 C242 1.363 . S
C243 N245 1.375 . S
C243 H261 0.931 . S
C244 N241 1.311 1_565 S
C244 N245 1.347 1_565 S
C244 H255 0.929 . S
N245 C243 1.375 . S
N245 C244 1.347 1_545 S
C246 C249 1.365 . S
C246 N251 1.328 . S
C246 H252 0.929 . S
C247 C248 1.362 . S
C247 C250 1.378 1_545 S
C247 H262 0.929 1_545 S
C248 C247 1.362 . S
C248 C249 1.366 . S
C249 C246 1.365 . S
C249 C248 1.366 . S
C249 H263 0.930 . S
C250 C247 1.378 1_565 S
C250 N251 1.315 1_565 S
C250 H253 0.930 . S
N251 Co231 2.194 1_545 S
N251 C246 1.328 . S
N251 C250 1.315 1_545 S
H252 C246 0.929 . S
H253 C250 0.930 . S
H254 C242 0.929 . S
H255 C244 0.929 . S
O256 Co231 2.351 1_545 S
O256 C259 1.244 . S
O257 Co231 2.155 . S
O257 C259 1.240 1_565 S
O258 Co231 2.096 . S
O258 C239 1.247 . S
C259 O256 1.244 . S
C259 O257 1.240 1_545 S
H260 C234 0.931 . S
H261 C243 0.931 . S
H262 C247 0.929 1_565 S
H263 C249 0.930 . S
Co264 N268 2.148 . S
Co264 N274 2.128 . S
Co264 N284 2.194 . S
Co264 O289 2.351 . S
Co264 O290 2.155 . S
Co264 O291 2.096 . S
C265 N268 1.304 1_545 S
C265 N269 1.327 . S
C265 H270 0.929 . S
C266 C267 1.333 1_565 S
C266 N268 1.317 . S
C266 H271 0.930 . S
C267 C266 1.333 1_545 S
C267 N269 1.350 . S
C267 H293 0.931 . S
N268 Co264 2.148 . S
N268 C265 1.304 1_565 S
N268 C266 1.317 . S
N269 C265 1.327 . S
N269 C267 1.350 . S
H270 C265 0.929 . S
H271 C266 0.930 . S
C272 O273 1.224 . S
C272 O291 1.247 . S
O273 C272 1.224 . S
N274 Co264 2.128 . S
N274 C275 1.355 . S
N274 C277 1.311 . S
C275 N274 1.355 . S
C275 C276 1.363 . S
C275 H287 0.929 . S
C276 C275 1.363 . S
C276 N278 1.375 . S
C276 H294 0.931 . S
C277 N274 1.311 . S
C277 N278 1.347 . S
C277 H288 0.929 . S
N278 C276 1.375 . S
N278 C277 1.347 . S
C279 C282 1.365 . S
C279 N284 1.328 . S
C279 H285 0.929 . S
C280 C281 1.362 . S
C280 C283 1.378 . S
C280 H295 0.929 . S
C281 C280 1.362 . S
C281 C282 1.366 . S
C282 C279 1.365 . S
C282 C281 1.366 . S
C282 H296 0.930 . S
C283 C280 1.378 . S
C283 N284 1.315 . S
C283 H286 0.930 . S
N284 Co264 2.194 . S
N284 C279 1.328 . S
N284 C283 1.315 . S
H285 C279 0.929 . S
H286 C283 0.930 . S
H287 C275 0.929 . S
H288 C277 0.929 . S
O289 Co264 2.351 . S
O289 C292 1.244 . S
O290 Co264 2.155 . S
O290 C292 1.240 . S
O291 Co264 2.096 . S
O291 C272 1.247 . S
C292 O289 1.244 . S
C292 O290 1.240 . S
H293 C267 0.931 . S
H294 C276 0.931 . S
H295 C280 0.929 . S
H296 C282 0.930 . S
Co297 N301 2.148 . S
Co297 N307 2.128 . S
Co297 N317 2.194 . S
Co297 O322 2.351 . S
Co297 O323 2.155 . S
Co297 O324 2.096 . S
C298 N301 1.301 . S
C298 N302 1.328 . S
C298 H303 0.930 . S
C299 C300 1.333 . S
C299 N301 1.317 . S
C299 H304 0.930 . S
C300 C299 1.333 . S
C300 N302 1.350 . S
C300 H326 0.931 . S
N301 Co297 2.148 . S
N301 C298 1.301 . S
N301 C299 1.317 . S
N302 C298 1.328 . S
N302 C300 1.350 . S
H303 C298 0.930 . S
H304 C299 0.930 . S
C305 O306 1.224 . S
C305 O324 1.247 . S
O306 C305 1.224 . S
N307 Co297 2.128 . S
N307 C308 1.355 . S
N307 C310 1.311 . S
C308 N307 1.355 . S
C308 C309 1.363 . S
C308 H320 0.929 . S
C309 C308 1.363 . S
C309 N311 1.375 . S
C309 H327 0.931 . S
C310 N307 1.311 . S
C310 N311 1.347 . S
C310 H321 0.929 . S
N311 C309 1.375 . S
N311 C310 1.347 . S
C312 C315 1.365 . S
C312 N317 1.328 . S
C312 H318 0.929 . S
C313 C314 1.362 . S
C313 C316 1.378 . S
C313 H328 0.929 . S
C314 C313 1.362 . S
C314 C315 1.366 . S
C315 C312 1.365 . S
C315 C314 1.366 . S
C315 H329 0.930 . S
C316 C313 1.378 . S
C316 N317 1.315 . S
C316 H319 0.930 . S
N317 Co297 2.194 . S
N317 C312 1.328 . S
N317 C316 1.315 . S
H318 C312 0.929 . S
H319 C316 0.930 . S
H320 C308 0.929 . S
H321 C310 0.929 . S
O322 Co297 2.351 . S
O322 C325 1.244 . S
O323 Co297 2.155 . S
O323 C325 1.240 . S
O324 Co297 2.096 . S
O324 C305 1.247 . S
C325 O322 1.244 . S
C325 O323 1.240 . S
H326 C300 0.931 . S
H327 C309 0.931 . S
H328 C313 0.929 . S
H329 C315 0.930 . S
Co330 N334 2.148 . S
Co330 N340 2.128 1_455 S
Co330 N350 2.194 1_455 S
Co330 O355 2.351 1_455 S
Co330 O356 2.155 . S
Co330 O357 2.096 . S
C331 N334 1.301 . S
C331 N335 1.328 . S
C331 H336 0.930 . S
C332 C333 1.333 . S
C332 N334 1.317 . S
C332 H337 0.930 . S
C333 C332 1.333 . S
C333 N335 1.350 . S
C333 H359 0.931 . S
N334 Co330 2.148 . S
N334 C331 1.301 . S
N334 C332 1.317 . S
N335 C331 1.328 . S
N335 C333 1.350 . S
H336 C331 0.930 . S
H337 C332 0.930 . S
C338 O339 1.224 . S
C338 O357 1.247 . S
O339 C338 1.224 . S
N340 Co330 2.128 1_655 S
N340 C341 1.355 . S
N340 C343 1.311 1_655 S
C341 N340 1.355 . S
C341 C342 1.363 . S
C341 H353 0.929 . S
C342 C341 1.363 . S
C342 N344 1.375 . S
C342 H360 0.931 . S
C343 N340 1.311 1_455 S
C343 N344 1.347 1_455 S
C343 H354 0.929 . S
N344 C342 1.375 . S
N344 C343 1.347 1_655 S
C345 C348 1.365 . S
C345 N350 1.328 . S
C345 H351 0.929 . S
C346 C347 1.362 . S
C346 C349 1.378 1_655 S
C346 H361 0.929 1_655 S
C347 C346 1.362 . S
C347 C348 1.366 . S
C348 C345 1.365 . S
C348 C347 1.366 . S
C348 H362 0.930 . S
C349 C346 1.378 1_455 S
C349 N350 1.315 1_455 S
C349 H352 0.930 . S
N350 Co330 2.194 1_655 S
N350 C345 1.328 . S
N350 C349 1.315 1_655 S
H351 C345 0.929 . S
H352 C349 0.930 . S
H353 C341 0.929 . S
H354 C343 0.929 . S
O355 Co330 2.351 1_655 S
O355 C358 1.244 . S
O356 Co330 2.155 . S
O356 C358 1.240 1_455 S
O357 Co330 2.096 . S
O357 C338 1.247 . S
C358 O355 1.244 . S
C358 O356 1.240 1_655 S
H359 C333 0.931 . S
H360 C342 0.931 . S
H361 C346 0.929 1_455 S
H362 C348 0.930 . S
Co363 N367 2.148 . S
Co363 N373 2.128 1_545 S
Co363 N383 2.194 1_545 S
Co363 O388 2.351 1_545 S
Co363 O389 2.155 . S
Co363 O390 2.096 . S
C364 N367 1.304 1_455 S
C364 N368 1.327 . S
C364 H369 0.929 . S
C365 C366 1.333 1_655 S
C365 N367 1.317 . S
C365 H370 0.930 . S
C366 C365 1.333 1_455 S
C366 N368 1.350 . S
C366 H392 0.931 . S
N367 Co363 2.148 . S
N367 C364 1.304 1_655 S
N367 C365 1.317 . S
N368 C364 1.327 . S
N368 C366 1.350 . S
H369 C364 0.929 . S
H370 C365 0.930 . S
C371 O372 1.224 . S
C371 O390 1.247 . S
O372 C371 1.224 . S
N373 Co363 2.128 1_565 S
N373 C374 1.355 . S
N373 C376 1.311 1_565 S
C374 N373 1.355 . S
C374 C375 1.363 . S
C374 H386 0.929 . S
C375 C374 1.363 . S
C375 N377 1.375 . S
C375 H393 0.931 . S
C376 N373 1.311 1_545 S
C376 N377 1.347 1_545 S
C376 H387 0.929 . S
N377 C375 1.375 . S
N377 C376 1.347 1_565 S
C378 C381 1.365 . S
C378 N383 1.328 . S
C378 H384 0.929 . S
C379 C380 1.362 . S
C379 C382 1.378 1_565 S
C379 H394 0.929 1_565 S
C380 C379 1.362 . S
C380 C381 1.366 . S
C381 C378 1.365 . S
C381 C380 1.366 . S
C381 H395 0.930 . S
C382 C379 1.378 1_545 S
C382 N383 1.315 1_545 S
C382 H385 0.930 . S
N383 Co363 2.194 1_565 S
N383 C378 1.328 . S
N383 C382 1.315 1_565 S
H384 C378 0.929 . S
H385 C382 0.930 . S
H386 C374 0.929 . S
H387 C376 0.929 . S
O388 Co363 2.351 1_565 S
O388 C391 1.244 . S
O389 Co363 2.155 . S
O389 C391 1.240 1_545 S
O390 Co363 2.096 . S
O390 C371 1.247 . S
C391 O388 1.244 . S
C391 O389 1.240 1_565 S
H392 C366 0.931 . S
H393 C375 0.931 . S
H394 C379 0.929 1_545 S
H395 C381 0.930 . S
Co396 N400 2.148 . S
Co396 N406 2.128 . S
Co396 N416 2.194 . S
Co396 O421 2.351 . S
Co396 O422 2.155 . S
Co396 O423 2.096 . S
C397 N400 1.301 . S
C397 N401 1.328 . S
C397 H402 0.930 . S
C398 C399 1.333 . S
C398 N400 1.317 . S
C398 H403 0.930 . S
C399 C398 1.333 . S
C399 N401 1.350 . S
C399 H425 0.931 . S
N400 Co396 2.148 . S
N400 C397 1.301 . S
N400 C398 1.317 . S
N401 C397 1.328 . S
N401 C399 1.350 . S
H402 C397 0.930 . S
H403 C398 0.930 . S
C404 O405 1.224 . S
C404 O423 1.247 . S
O405 C404 1.224 . S
N406 Co396 2.128 . S
N406 C407 1.355 . S
N406 C409 1.311 . S
C407 N406 1.355 . S
C407 C408 1.363 . S
C407 H419 0.929 . S
C408 C407 1.363 . S
C408 N410 1.375 . S
C408 H426 0.931 . S
C409 N406 1.311 . S
C409 N410 1.347 . S
C409 H420 0.929 . S
N410 C408 1.375 . S
N410 C409 1.347 . S
C411 C414 1.365 . S
C411 N416 1.328 . S
C411 H417 0.929 . S
C412 C413 1.362 . S
C412 C415 1.378 . S
C412 H427 0.929 . S
C413 C412 1.362 . S
C413 C414 1.366 . S
C414 C411 1.365 . S
C414 C413 1.366 . S
C414 H428 0.930 . S
C415 C412 1.378 . S
C415 N416 1.315 . S
C415 H418 0.930 . S
N416 Co396 2.194 . S
N416 C411 1.328 . S
N416 C415 1.315 . S
H417 C411 0.929 . S
H418 C415 0.930 . S
H419 C407 0.929 . S
H420 C409 0.929 . S
O421 Co396 2.351 . S
O421 C424 1.244 . S
O422 Co396 2.155 . S
O422 C424 1.240 . S
O423 Co396 2.096 . S
O423 C404 1.247 . S
C424 O421 1.244 . S
C424 O422 1.240 . S
H425 C399 0.931 . S
H426 C408 0.931 . S
H427 C412 0.929 . S
H428 C414 0.930 . S
Co429 N433 2.148 . S
Co429 N439 2.128 . S
Co429 N449 2.194 . S
Co429 O454 2.351 . S
Co429 O455 2.155 . S
Co429 O456 2.096 . S
C430 N433 1.304 1_455 S
C430 N434 1.327 . S
C430 H435 0.929 . S
C431 C432 1.333 1_655 S
C431 N433 1.317 . S
C431 H436 0.930 . S
C432 C431 1.333 1_455 S
C432 N434 1.350 . S
C432 H458 0.931 . S
N433 Co429 2.148 . S
N433 C430 1.304 1_655 S
N433 C431 1.317 . S
N434 C430 1.327 . S
N434 C432 1.350 . S
H435 C430 0.929 . S
H436 C431 0.930 . S
C437 O438 1.224 . S
C437 O456 1.247 . S
O438 C437 1.224 . S
N439 Co429 2.128 . S
N439 C440 1.355 . S
N439 C442 1.311 . S
C440 N439 1.355 . S
C440 C441 1.363 . S
C440 H452 0.929 . S
C441 C440 1.363 . S
C441 N443 1.375 . S
C441 H459 0.931 . S
C442 N439 1.311 . S
C442 N443 1.347 . S
C442 H453 0.929 . S
N443 C441 1.375 . S
N443 C442 1.347 . S
C444 C447 1.365 . S
C444 N449 1.328 . S
C444 H450 0.929 . S
C445 C446 1.362 . S
C445 C448 1.378 . S
C445 H460 0.929 . S
C446 C445 1.362 . S
C446 C447 1.366 . S
C447 C444 1.365 . S
C447 C446 1.366 . S
C447 H461 0.930 . S
C448 C445 1.378 . S
C448 N449 1.315 . S
C448 H451 0.930 . S
N449 Co429 2.194 . S
N449 C444 1.328 . S
N449 C448 1.315 . S
H450 C444 0.929 . S
H451 C448 0.930 . S
H452 C440 0.929 . S
H453 C442 0.929 . S
O454 Co429 2.351 . S
O454 C457 1.244 . S
O455 Co429 2.155 . S
O455 C457 1.240 . S
O456 Co429 2.096 . S
O456 C437 1.247 . S
C457 O454 1.244 . S
C457 O455 1.240 . S
H458 C432 0.931 . S
H459 C441 0.931 . S
H460 C445 0.929 . S
H461 C447 0.930 . S
Co462 N466 2.148 . S
Co462 N472 2.128 1_455 S
Co462 N482 2.194 1_455 S
Co462 O487 2.351 1_455 S
Co462 O488 2.155 . S
Co462 O489 2.096 . S
C463 N466 1.304 1_545 S
C463 N467 1.327 . S
C463 H468 0.929 . S
C464 C465 1.333 1_565 S
C464 N466 1.317 . S
C464 H469 0.930 . S
C465 C464 1.333 1_545 S
C465 N467 1.350 . S
C465 H491 0.931 . S
N466 Co462 2.148 . S
N466 C463 1.304 1_565 S
N466 C464 1.317 . S
N467 C463 1.327 . S
N467 C465 1.350 . S
H468 C463 0.929 . S
H469 C464 0.930 . S
C470 O471 1.224 . S
C470 O489 1.247 . S
O471 C470 1.224 . S
N472 Co462 2.128 1_655 S
N472 C473 1.355 . S
N472 C475 1.311 1_655 S
C473 N472 1.355 . S
C473 C474 1.363 . S
C473 H485 0.929 . S
C474 C473 1.363 . S
C474 N476 1.375 . S
C474 H492 0.931 . S
C475 N472 1.311 1_455 S
C475 N476 1.347 1_455 S
C475 H486 0.929 . S
N476 C474 1.375 . S
N476 C475 1.347 1_655 S
C477 C480 1.365 . S
C477 N482 1.328 . S
C477 H483 0.929 . S
C478 C479 1.362 . S
C478 C481 1.378 1_655 S
C478 H493 0.929 1_655 S
C479 C478 1.362 . S
C479 C480 1.366 . S
C480 C477 1.365 . S
C480 C479 1.366 . S
C480 H494 0.930 . S
C481 C478 1.378 1_455 S
C481 N482 1.315 1_455 S
C481 H484 0.930 . S
N482 Co462 2.194 1_655 S
N482 C477 1.328 . S
N482 C481 1.315 1_655 S
H483 C477 0.929 . S
H484 C481 0.930 . S
H485 C473 0.929 . S
H486 C475 0.929 . S
O487 Co462 2.351 1_655 S
O487 C490 1.244 . S
O488 Co462 2.155 . S
O488 C490 1.240 1_455 S
O489 Co462 2.096 . S
O489 C470 1.247 . S
C490 O487 1.244 . S
C490 O488 1.240 1_655 S
H491 C465 0.931 . S
H492 C474 0.931 . S
H493 C478 0.929 1_455 S
H494 C480 0.930 . S
Co495 N499 2.148 . S
Co495 N505 2.128 1_545 S
Co495 N515 2.194 1_545 S
Co495 O520 2.351 1_545 S
Co495 O521 2.155 . S
Co495 O522 2.096 . S
C496 N499 1.301 . S
C496 N500 1.328 . S
C496 H501 0.930 . S
C497 C498 1.333 . S
C497 N499 1.317 . S
C497 H502 0.930 . S
C498 C497 1.333 . S
C498 N500 1.350 . S
C498 H524 0.931 . S
N499 Co495 2.148 . S
N499 C496 1.301 . S
N499 C497 1.317 . S
N500 C496 1.328 . S
N500 C498 1.350 . S
H501 C496 0.930 . S
H502 C497 0.930 . S
C503 O504 1.224 . S
C503 O522 1.247 . S
O504 C503 1.224 . S
N505 Co495 2.128 1_565 S
N505 C506 1.355 . S
N505 C508 1.311 1_565 S
C506 N505 1.355 . S
C506 C507 1.363 . S
C506 H518 0.929 . S
C507 C506 1.363 . S
C507 N509 1.375 . S
C507 H525 0.931 . S
C508 N505 1.311 1_545 S
C508 N509 1.347 1_545 S
C508 H519 0.929 . S
N509 C507 1.375 . S
N509 C508 1.347 1_565 S
C510 C513 1.365 . S
C510 N515 1.328 . S
C510 H516 0.929 . S
C511 C512 1.362 . S
C511 C514 1.378 1_565 S
C511 H526 0.929 1_565 S
C512 C511 1.362 . S
C512 C513 1.366 . S
C513 C510 1.365 . S
C513 C512 1.366 . S
C513 H527 0.930 . S
C514 C511 1.378 1_545 S
C514 N515 1.315 1_545 S
C514 H517 0.930 . S
N515 Co495 2.194 1_565 S
N515 C510 1.328 . S
N515 C514 1.315 1_565 S
H516 C510 0.929 . S
H517 C514 0.930 . S
H518 C506 0.929 . S
H519 C508 0.929 . S
O520 Co495 2.351 1_565 S
O520 C523 1.244 . S
O521 Co495 2.155 . S
O521 C523 1.240 1_545 S
O522 Co495 2.096 . S
O522 C503 1.247 . S
C523 O520 1.244 . S
C523 O521 1.240 1_565 S
H524 C498 0.931 . S
H525 C507 0.931 . S
H526 C511 0.929 1_545 S
H527 C513 0.930 . S
C528 C529 1.387 . S
C528 H532 0.950 . S
C528 C537 1.390 . S
C529 C528 1.387 . S
C529 C531 1.387 . S
H530 C537 0.950 . S
C531 C529 1.387 . S
C531 C533 1.390 . S
C531 H535 0.950 . S
H532 C528 0.950 . S
C533 C531 1.390 . S
C533 C534 1.387 . S
C533 H536 0.950 . S
C534 C533 1.387 . S
C534 C537 1.387 . S
H535 C531 0.950 . S
H536 C533 0.950 . S
C537 C528 1.390 . S
C537 H530 0.950 . S
C537 C534 1.387 . S
C538 C539 1.387 . S
C538 H542 0.950 . S
C538 C547 1.390 . S
C539 C538 1.387 . S
C539 C541 1.387 . S
H540 C547 0.950 . S
C541 C539 1.387 . S
C541 C543 1.390 . S
C541 H545 0.950 . S
H542 C538 0.950 . S
C543 C541 1.390 . S
C543 C544 1.387 . S
C543 H546 0.950 . S
C544 C543 1.387 . S
C544 C547 1.387 . S
H545 C541 0.950 . S
H546 C543 0.950 . S
C547 C538 1.390 . S
C547 H540 0.950 . S
C547 C544 1.387 . S
C548 C549 1.387 . S
C548 H552 0.950 . S
C548 C557 1.390 . S
C549 C548 1.387 . S
C549 C551 1.387 . S
H550 C557 0.950 . S
C551 C549 1.387 . S
C551 C553 1.390 . S
C551 H555 0.950 . S
H552 C548 0.950 . S
C553 C551 1.390 . S
C553 C554 1.387 . S
C553 H556 0.950 . S
C554 C553 1.387 . S
C554 C557 1.387 . S
H555 C551 0.950 . S
H556 C553 0.950 . S
C557 C548 1.390 . S
C557 H550 0.950 . S
C557 C554 1.387 . S
C558 C559 1.387 . S
C558 H562 0.950 . S
C558 C567 1.390 . S
C559 C558 1.387 . S
C559 C561 1.387 . S
H560 C567 0.950 . S
C561 C559 1.387 . S
C561 C563 1.390 . S
C561 H565 0.950 . S
H562 C558 0.950 . S
C563 C561 1.390 . S
C563 C564 1.387 . S
C563 H566 0.950 . S
C564 C563 1.387 . S
C564 C567 1.387 . S
H565 C561 0.950 . S
H566 C563 0.950 . S
C567 C558 1.390 . S
C567 H560 0.950 . S
C567 C564 1.387 . S
C568 C569 1.387 . S
C568 H572 0.950 . S
C568 C577 1.390 . S
C569 C568 1.387 . S
C569 C571 1.387 . S
H570 C577 0.950 . S
C571 C569 1.387 . S
C571 C573 1.390 . S
C571 H575 0.950 . S
H572 C568 0.950 . S
C573 C571 1.390 . S
C573 C574 1.387 . S
C573 H576 0.950 . S
C574 C573 1.387 . S
C574 C577 1.387 . S
H575 C571 0.950 . S
H576 C573 0.950 . S
C577 C568 1.390 . S
C577 H570 0.950 . S
C577 C574 1.387 . S
C578 C579 1.387 . S
C578 H582 0.950 . S
C578 C587 1.390 . S
C579 C578 1.387 . S
C579 C581 1.387 . S
H580 C587 0.950 . S
C581 C579 1.387 . S
C581 C583 1.390 . S
C581 H585 0.950 . S
H582 C578 0.950 . S
C583 C581 1.390 . S
C583 C584 1.387 . S
C583 H586 0.950 . S
C584 C583 1.387 . S
C584 C587 1.387 . S
H585 C581 0.950 . S
H586 C583 0.950 . S
C587 C578 1.390 . S
C587 H580 0.950 . S
C587 C584 1.387 . S
C588 C589 1.387 . S
C588 H592 0.950 . S
C588 C597 1.390 . S
C589 C588 1.387 . S
C589 C591 1.387 . S
H590 C597 0.950 . S
C591 C589 1.387 . S
C591 C593 1.390 . S
C591 H595 0.950 . S
H592 C588 0.950 . S
C593 C591 1.390 . S
C593 C594 1.387 . S
C593 H596 0.950 . S
C594 C593 1.387 . S
C594 C597 1.387 . S
H595 C591 0.950 . S
H596 C593 0.950 . S
C597 C588 1.390 . S
C597 H590 0.950 . S
C597 C594 1.387 . S
C598 C599 1.387 . S
C598 H602 0.950 . S
C598 C607 1.390 . S
C599 C598 1.387 . S
C599 C601 1.387 . S
H600 C607 0.950 . S
C601 C599 1.387 . S
C601 C603 1.390 . S
C601 H605 0.950 . S
H602 C598 0.950 . S
C603 C601 1.390 . S
C603 C604 1.387 . S
C603 H606 0.950 . S
C604 C603 1.387 . S
C604 C607 1.387 . S
H605 C601 0.950 . S
H606 C603 0.950 . S
C607 C598 1.390 . S
C607 H600 0.950 . S
C607 C604 1.387 . S
C608 C609 1.387 . S
C608 H612 0.950 . S
C608 C617 1.390 . S
C609 C608 1.387 . S
C609 C611 1.387 . S
H610 C617 0.950 . S
C611 C609 1.387 . S
C611 C613 1.390 . S
C611 H615 0.950 . S
H612 C608 0.950 . S
C613 C611 1.390 . S
C613 C614 1.387 . S
C613 H616 0.950 . S
C614 C613 1.387 . S
C614 C617 1.387 . S
H615 C611 0.950 . S
H616 C613 0.950 . S
C617 C608 1.390 . S
C617 H610 0.950 . S
C617 C614 1.387 . S
C618 C619 1.387 . S
C618 H622 0.950 . S
C618 C627 1.390 . S
C619 C618 1.387 . S
C619 C621 1.387 . S
H620 C627 0.950 . S
C621 C619 1.387 . S
C621 C623 1.390 . S
C621 H625 0.950 . S
H622 C618 0.950 . S
C623 C621 1.390 . S
C623 C624 1.387 . S
C623 H626 0.950 . S
C624 C623 1.387 . S
C624 C627 1.387 . S
H625 C621 0.950 . S
H626 C623 0.950 . S
C627 C618 1.390 . S
C627 H620 0.950 . S
C627 C624 1.387 . S
C628 C629 1.387 . S
C628 H632 0.950 . S
C628 C637 1.390 . S
C629 C628 1.387 . S
C629 C631 1.387 . S
H630 C637 0.950 . S
C631 C629 1.387 . S
C631 C633 1.390 . S
C631 H635 0.950 . S
H632 C628 0.950 . S
C633 C631 1.390 . S
C633 C634 1.387 . S
C633 H636 0.950 . S
C634 C633 1.387 . S
C634 C637 1.387 . S
H635 C631 0.950 . S
H636 C633 0.950 . S
C637 C628 1.390 . S
C637 H630 0.950 . S
C637 C634 1.387 . S
C638 C639 1.387 . S
C638 H642 0.950 . S
C638 C647 1.390 . S
C639 C638 1.387 . S
C639 C641 1.387 . S
H640 C647 0.950 . S
C641 C639 1.387 . S
C641 C643 1.390 . S
C641 H645 0.950 . S
H642 C638 0.950 . S
C643 C641 1.390 . S
C643 C644 1.387 . S
C643 H646 0.950 . S
C644 C643 1.387 . S
C644 C647 1.387 . S
H645 C641 0.950 . S
H646 C643 0.950 . S
C647 C638 1.390 . S
C647 H640 0.950 . S
C647 C644 1.387 . S
C648 C649 1.387 . S
C648 H652 0.950 . S
C648 C657 1.390 . S
C649 C648 1.387 . S
C649 C651 1.387 . S
H650 C657 0.950 . S
C651 C649 1.387 . S
C651 C653 1.390 . S
C651 H655 0.950 . S
H652 C648 0.950 . S
C653 C651 1.390 . S
C653 C654 1.387 . S
C653 H656 0.950 . S
C654 C653 1.387 . S
C654 C657 1.387 . S
H655 C651 0.950 . S
H656 C653 0.950 . S
C657 C648 1.390 . S
C657 H650 0.950 . S
C657 C654 1.387 . S
C658 C659 1.387 . S
C658 H662 0.950 . S
C658 C667 1.390 . S
C659 C658 1.387 . S
C659 C661 1.387 . S
H660 C667 0.950 . S
C661 C659 1.387 . S
C661 C663 1.390 . S
C661 H665 0.950 . S
H662 C658 0.950 . S
C663 C661 1.390 . S
C663 C664 1.387 . S
C663 H666 0.950 . S
C664 C663 1.387 . S
C664 C667 1.387 . S
H665 C661 0.950 . S
H666 C663 0.950 . S
C667 C658 1.390 . S
C667 H660 0.950 . S
C667 C664 1.387 . S
C668 C669 1.387 . S
C668 H672 0.950 . S
C668 C677 1.390 . S
C669 C668 1.387 . S
C669 C671 1.387 . S
H670 C677 0.950 . S
C671 C669 1.387 . S
C671 C673 1.390 . S
C671 H675 0.950 . S
H672 C668 0.950 . S
C673 C671 1.390 . S
C673 C674 1.387 . S
C673 H676 0.950 . S
C674 C673 1.387 . S
C674 C677 1.387 . S
H675 C671 0.950 . S
H676 C673 0.950 . S
C677 C668 1.390 . S
C677 H670 0.950 . S
C677 C674 1.387 . S
C678 C679 1.387 . S
C678 H682 0.950 . S
C678 C687 1.390 . S
C679 C678 1.387 . S
C679 C681 1.387 . S
H680 C687 0.950 . S
C681 C679 1.387 . S
C681 C683 1.390 . S
C681 H685 0.950 . S
H682 C678 0.950 . S
C683 C681 1.390 . S
C683 C684 1.387 . S
C683 H686 0.950 . S
C684 C683 1.387 . S
C684 C687 1.387 . S
H685 C681 0.950 . S
H686 C683 0.950 . S
C687 C678 1.390 . S
C687 H680 0.950 . S
C687 C684 1.387 . S
C688 C689 1.387 . S
C688 H692 0.950 . S
C688 C697 1.390 . S
C689 C688 1.387 . S
C689 C691 1.387 . S
H690 C697 0.950 . S
C691 C689 1.387 . S
C691 C693 1.390 . S
C691 H695 0.950 . S
H692 C688 0.950 . S
C693 C691 1.390 . S
C693 C694 1.387 . S
C693 H696 0.950 . S
C694 C693 1.387 . S
C694 C697 1.387 . S
H695 C691 0.950 . S
H696 C693 0.950 . S
C697 C688 1.390 . S
C697 H690 0.950 . S
C697 C694 1.387 . S
C698 C699 1.387 . S
C698 H702 0.950 . S
C698 C707 1.390 . S
C699 C698 1.387 . S
C699 C701 1.387 . S
H700 C707 0.950 . S
C701 C699 1.387 . S
C701 C703 1.390 . S
C701 H705 0.950 . S
H702 C698 0.950 . S
C703 C701 1.390 . S
C703 C704 1.387 . S
C703 H706 0.950 . S
C704 C703 1.387 . S
C704 C707 1.387 . S
H705 C701 0.950 . S
H706 C703 0.950 . S
C707 C698 1.390 . S
C707 H700 0.950 . S
C707 C704 1.387 . S
C708 C709 1.387 . S
C708 H712 0.950 . S
C708 C717 1.390 . S
C709 C708 1.387 . S
C709 C711 1.387 . S
H710 C717 0.950 . S
C711 C709 1.387 . S
C711 C713 1.390 . S
C711 H715 0.950 . S
H712 C708 0.950 . S
C713 C711 1.390 . S
C713 C714 1.387 . S
C713 H716 0.950 . S
C714 C713 1.387 . S
C714 C717 1.387 . S
H715 C711 0.950 . S
H716 C713 0.950 . S
C717 C708 1.390 . S
C717 H710 0.950 . S
C717 C714 1.387 . S
C718 C719 1.387 . S
C718 H722 0.950 . S
C718 C727 1.390 . S
C719 C718 1.387 . S
C719 C721 1.387 . S
H720 C727 0.950 . S
C721 C719 1.387 . S
C721 C723 1.390 . S
C721 H725 0.950 . S
H722 C718 0.950 . S
C723 C721 1.390 . S
C723 C724 1.387 . S
C723 H726 0.950 . S
C724 C723 1.387 . S
C724 C727 1.387 . S
H725 C721 0.950 . S
H726 C723 0.950 . S
C727 C718 1.390 . S
C727 H720 0.950 . S
C727 C724 1.387 . S
C728 C729 1.387 . S
C728 H732 0.950 . S
C728 C737 1.390 . S
C729 C728 1.387 . S
C729 C731 1.387 . S
H730 C737 0.950 . S
C731 C729 1.387 . S
C731 C733 1.390 . S
C731 H735 0.950 . S
H732 C728 0.950 . S
C733 C731 1.390 . S
C733 C734 1.387 . S
C733 H736 0.950 . S
C734 C733 1.387 . S
C734 C737 1.387 . S
H735 C731 0.950 . S
H736 C733 0.950 . S
C737 C728 1.390 . S
C737 H730 0.950 . S
C737 C734 1.387 . S
C738 C739 1.387 . S
C738 H742 0.950 . S
C738 C747 1.390 . S
C739 C738 1.387 . S
C739 C741 1.387 . S
H740 C747 0.950 . S
C741 C739 1.387 . S
C741 C743 1.390 . S
C741 H745 0.950 . S
H742 C738 0.950 . S
C743 C741 1.390 . S
C743 C744 1.387 . S
C743 H746 0.950 . S
C744 C743 1.387 . S
C744 C747 1.387 . S
H745 C741 0.950 . S
H746 C743 0.950 . S
C747 C738 1.390 . S
C747 H740 0.950 . S
C747 C744 1.387 . S
C748 C749 1.387 . S
C748 H752 0.950 . S
C748 C757 1.390 . S
C749 C748 1.387 . S
C749 C751 1.387 . S
H750 C757 0.950 . S
C751 C749 1.387 . S
C751 C753 1.390 . S
C751 H755 0.950 . S
H752 C748 0.950 . S
C753 C751 1.390 . S
C753 C754 1.387 . S
C753 H756 0.950 . S
C754 C753 1.387 . S
C754 C757 1.387 . S
H755 C751 0.950 . S
H756 C753 0.950 . S
C757 C748 1.390 . S
C757 H750 0.950 . S
C757 C754 1.387 . S
C758 C759 1.387 . S
C758 H762 0.950 . S
C758 C767 1.390 . S
C759 C758 1.387 . S
C759 C761 1.387 . S
H760 C767 0.950 1_545 S
C761 C759 1.387 . S
C761 C763 1.390 . S
C761 H765 0.950 . S
H762 C758 0.950 . S
C763 C761 1.390 . S
C763 C764 1.387 . S
C763 H766 0.950 . S
C764 C763 1.387 . S
C764 C767 1.387 . S
H765 C761 0.950 . S
H766 C763 0.950 . S
C767 C758 1.390 . S
C767 H760 0.950 1_565 S
C767 C764 1.387 . S
C768 C769 1.387 . S
C768 H772 0.950 . S
C768 C777 1.390 . S
C769 C768 1.387 . S
C769 C771 1.387 . S
H770 C777 0.950 . S
C771 C769 1.387 . S
C771 C773 1.390 . S
C771 H775 0.950 . S
H772 C768 0.950 . S
C773 C771 1.390 . S
C773 C774 1.387 . S
C773 H776 0.950 . S
C774 C773 1.387 . S
C774 C777 1.387 . S
H775 C771 0.950 . S
H776 C773 0.950 . S
C777 C768 1.390 . S
C777 H770 0.950 . S
C777 C774 1.387 . S
C778 C779 1.387 . S
C778 H782 0.950 . S
C778 C787 1.390 . S
C779 C778 1.387 . S
C779 C781 1.387 . S
H780 C787 0.950 . S
C781 C779 1.387 . S
C781 C783 1.390 . S
C781 H785 0.950 . S
H782 C778 0.950 . S
C783 C781 1.390 . S
C783 C784 1.387 . S
C783 H786 0.950 . S
C784 C783 1.387 . S
C784 C787 1.387 . S
H785 C781 0.950 . S
H786 C783 0.950 . S
C787 C778 1.390 . S
C787 H780 0.950 . S
C787 C784 1.387 . S
C788 C789 1.387 . S
C788 H792 0.950 1_455 S
C788 C797 1.390 . S
C789 C788 1.387 . S
C789 C791 1.387 . S
H790 C797 0.950 . S
C791 C789 1.387 . S
C791 C793 1.390 . S
C791 H795 0.950 . S
H792 C788 0.950 1_655 S
C793 C791 1.390 . S
C793 C794 1.387 . S
C793 H796 0.950 . S
C794 C793 1.387 . S
C794 C797 1.387 . S
H795 C791 0.950 . S
H796 C793 0.950 . S
C797 C788 1.390 . S
C797 H790 0.950 . S
C797 C794 1.387 . S
C798 C799 1.387 . S
C798 H802 0.950 . S
C798 C807 1.390 . S
C799 C798 1.387 . S
C799 C801 1.387 . S
H800 C807 0.950 . S
C801 C799 1.387 . S
C801 C803 1.390 . S
C801 H805 0.950 . S
H802 C798 0.950 . S
C803 C801 1.390 . S
C803 C804 1.387 . S
C803 H806 0.950 . S
C804 C803 1.387 . S
C804 C807 1.387 . S
H805 C801 0.950 . S
H806 C803 0.950 . S
C807 C798 1.390 . S
C807 H800 0.950 . S
C807 C804 1.387 . S
C808 C809 1.387 . S
C808 H812 0.950 . S
C808 C817 1.390 . S
C809 C808 1.387 . S
C809 C811 1.387 . S
H810 C817 0.950 . S
C811 C809 1.387 . S
C811 C813 1.390 . S
C811 H815 0.950 . S
H812 C808 0.950 . S
C813 C811 1.390 . S
C813 C814 1.387 . S
C813 H816 0.950 . S
C814 C813 1.387 . S
C814 C817 1.387 . S
H815 C811 0.950 . S
H816 C813 0.950 . S
C817 C808 1.390 . S
C817 H810 0.950 . S
C817 C814 1.387 . S
C818 C819 1.387 . S
C818 H822 0.950 . S
C818 C827 1.390 . S
C819 C818 1.387 . S
C819 C821 1.387 . S
H820 C827 0.950 . S
C821 C819 1.387 . S
C821 C823 1.390 . S
C821 H825 0.950 . S
H822 C818 0.950 . S
C823 C821 1.390 . S
C823 C824 1.387 . S
C823 H826 0.950 . S
C824 C823 1.387 . S
C824 C827 1.387 . S
H825 C821 0.950 . S
H826 C823 0.950 . S
C827 C818 1.390 . S
C827 H820 0.950 . S
C827 C824 1.387 . S
C828 C829 1.387 . S
C828 H832 0.950 . S
C828 C837 1.390 . S
C829 C828 1.387 . S
C829 C831 1.387 . S
H830 C837 0.950 . S
C831 C829 1.387 . S
C831 C833 1.390 . S
C831 H835 0.950 . S
H832 C828 0.950 . S
C833 C831 1.390 . S
C833 C834 1.387 . S
C833 H836 0.950 . S
C834 C833 1.387 . S
C834 C837 1.387 . S
H835 C831 0.950 . S
H836 C833 0.950 . S
C837 C828 1.390 . S
C837 H830 0.950 . S
C837 C834 1.387 . S
C838 C839 1.387 . S
C838 H842 0.950 . S
C838 C847 1.390 . S
C839 C838 1.387 . S
C839 C841 1.387 . S
H840 C847 0.950 . S
C841 C839 1.387 . S
C841 C843 1.390 . S
C841 H845 0.950 . S
H842 C838 0.950 . S
C843 C841 1.390 . S
C843 C844 1.387 . S
C843 H846 0.950 1_545 S
C844 C843 1.387 . S
C844 C847 1.387 . S
H845 C841 0.950 . S
H846 C843 0.950 1_565 S
C847 C838 1.390 . S
C847 H840 0.950 . S
C847 C844 1.387 . S
C848 C849 1.387 . S
C848 H852 0.950 . S
C848 C857 1.390 1_565 S
C849 C848 1.387 . S
C849 C851 1.387 1_556 S
H850 C857 0.950 . S
C851 C849 1.387 1_554 S
C851 C853 1.390 1_565 S
C851 H855 0.950 . S
H852 C848 0.950 . S
C853 C851 1.390 1_545 S
C853 C854 1.387 . S
C853 H856 0.950 . S
C854 C853 1.387 . S
C854 C857 1.387 1_554 S
H855 C851 0.950 . S
H856 C853 0.950 . S
C857 C848 1.390 1_545 S
C857 H850 0.950 . S
C857 C854 1.387 1_556 S
C858 C859 1.387 . S
C858 H862 0.950 . S
C858 C867 1.390 . S
C859 C858 1.387 . S
C859 C861 1.387 . S
H860 C867 0.950 . S
C861 C859 1.387 . S
C861 C863 1.390 . S
C861 H865 0.950 . S
H862 C858 0.950 . S
C863 C861 1.390 . S
C863 C864 1.387 . S
C863 H866 0.950 . S
C864 C863 1.387 . S
C864 C867 1.387 . S
H865 C861 0.950 . S
H866 C863 0.950 . S
C867 C858 1.390 . S
C867 H860 0.950 . S
C867 C864 1.387 . S
C868 C869 1.387 1_556 S
C868 H872 0.950 . S
C868 C877 1.390 1_455 S
C869 C868 1.387 1_554 S
C869 C871 1.387 . S
H870 C877 0.950 . S
C871 C869 1.387 . S
C871 C873 1.390 1_455 S
C871 H875 0.950 . S
H872 C868 0.950 . S
C873 C871 1.390 1_655 S
C873 C874 1.387 1_554 S
C873 H876 0.950 . S
C874 C873 1.387 1_556 S
C874 C877 1.387 . S
H875 C871 0.950 . S
H876 C873 0.950 . S
C877 C868 1.390 1_655 S
C877 H870 0.950 . S
C877 C874 1.387 . S
C878 C879 1.387 1_545 S
C878 H882 0.950 . S
C878 C887 1.390 1_655 S
C879 C878 1.387 1_565 S
C879 C881 1.387 . S
H880 C887 0.950 . S
C881 C879 1.387 . S
C881 C883 1.390 1_655 S
C881 H885 0.950 . S
H882 C878 0.950 . S
C883 C881 1.390 1_455 S
C883 C884 1.387 1_565 S
C883 H886 0.950 . S
C884 C883 1.387 1_545 S
C884 C887 1.387 . S
H885 C881 0.950 . S
H886 C883 0.950 . S
C887 C878 1.390 1_455 S
C887 H880 0.950 . S
C887 C884 1.387 . S
C888 C889 1.387 1_554 S
C888 H892 0.950 . S
C888 C897 1.390 . S
C889 C888 1.387 1_556 S
C889 C891 1.387 . S
H890 C897 0.950 . S
C891 C889 1.387 . S
C891 C893 1.390 . S
C891 H895 0.950 . S
H892 C888 0.950 . S
C893 C891 1.390 . S
C893 C894 1.387 1_556 S
C893 H896 0.950 . S
C894 C893 1.387 1_554 S
C894 C897 1.387 . S
H895 C891 0.950 . S
H896 C893 0.950 . S
C897 C888 1.390 . S
C897 H890 0.950 . S
C897 C894 1.387 . S
C898 C899 1.387 . S
C898 H902 0.950 . S
C898 C907 1.390 1_455 S
C899 C898 1.387 . S
C899 C901 1.387 . S
H900 C907 0.950 . S
C901 C899 1.387 . S
C901 C903 1.390 1_455 S
C901 H905 0.950 . S
H902 C898 0.950 . S
C903 C901 1.390 1_655 S
C903 C904 1.387 . S
C903 H906 0.950 . S
C904 C903 1.387 . S
C904 C907 1.387 . S
H905 C901 0.950 . S
H906 C903 0.950 . S
C907 C898 1.390 1_655 S
C907 H900 0.950 . S
C907 C904 1.387 . S
C908 C909 1.387 1_545 S
C908 H912 0.950 . S
C908 C917 1.390 . S
C909 C908 1.387 1_565 S
C909 C911 1.387 1_654 S
H910 C917 0.950 . S
C911 C909 1.387 1_456 S
C911 C913 1.390 . S
C911 H915 0.950 . S
H912 C908 0.950 . S
C913 C911 1.390 . S
C913 C914 1.387 1_565 S
C913 H916 0.950 . S
C914 C913 1.387 1_545 S
C914 C917 1.387 1_456 S
H915 C911 0.950 . S
H916 C913 0.950 . S
C917 C908 1.390 . S
C917 H910 0.950 . S
C917 C914 1.387 1_654 S
C918 C919 1.387 . S
C918 H922 0.950 . S
C918 C927 1.390 . S
C919 C918 1.387 . S
C919 C921 1.387 1_545 S
H920 C927 0.950 . S
C921 C919 1.387 1_565 S
C921 C923 1.390 . S
C921 H925 0.950 . S
H922 C918 0.950 . S
C923 C921 1.390 . S
C923 C924 1.387 . S
C923 H926 0.950 . S
C924 C923 1.387 . S
C924 C927 1.387 1_565 S
H925 C921 0.950 . S
H926 C923 0.950 . S
C927 C918 1.390 . S
C927 H920 0.950 . S
C927 C924 1.387 1_545 S
C529 C17 1.626 . S
C534 C248 1.627 . S
C539 C149 1.628 . S
C544 C50 1.626 . S
C549 C83 1.626 . S
C554 C182 1.627 . S
C559 C116 1.627 . S
C564 C215 1.627 . S
C569 C281 1.626 . S
C574 C512 1.628 . S
C579 C314 1.628 . S
C584 C413 1.626 . S
C589 C347 1.626 . S
C594 C446 1.628 . S
C599 C479 1.628 . S
C604 C380 1.627 . S
C609 C8 2.166 . S
C614 C74 2.166 . S
C619 C107 2.166 . S
C624 C41 2.166 . S
C629 C206 2.166 . S
C634 C140 2.166 . S
C639 C173 2.166 . S
C644 C239 2.166 . S
C649 C338 2.167 . S
C654 C272 2.167 . S
C659 C371 2.166 . S
C664 C305 2.166 . S
C669 C470 2.166 . S
C674 C404 2.166 . S
C679 C503 2.167 . S
C684 C437 2.167 . S
C689 N410 0.929 . S
C694 N5 0.970 . S
C699 N443 0.929 . S
C704 N38 0.970 . S
C709 N71 0.970 . S
C714 N476 0.929 . S
C719 N509 0.922 . S
C724 N104 0.966 . S
C729 N137 0.970 . S
C734 N278 0.929 . S
C739 N311 0.929 . S
C744 N170 0.970 . S
C749 N203 0.967 . S
C754 N344 0.923 . S
C759 N236 0.970 . S
C764 N377 0.929 . S
C769 N146 0.929 . S
C774 N269 0.970 . S
C779 N179 0.929 . S
C784 N302 0.970 . S
C789 N212 0.929 . S
C794 N335 0.970 . S
C799 N245 0.922 . S
C804 N368 0.966 . S
C809 N14 0.923 . S
C814 N401 0.967 . S
C819 N47 0.922 . S
C824 N434 0.967 . S
C829 N80 0.923 . S
C834 N467 0.967 . S
C839 N500 0.970 . S
C844 N113 0.929 . S
C849 C292 1.877 . S
C854 C28 1.877 . S
C859 C61 1.878 . S
C864 C325 1.878 . S
C869 C94 1.878 . S
C874 C358 1.878 . S
C879 C391 1.877 . S
C884 C127 1.877 . S
C889 C160 1.877 . S
C894 C424 1.877 . S
C899 C193 1.878 . S
C904 C457 1.878 . S
C909 C490 1.879 . S
C914 C226 1.879 . S
C919 C259 1.877 . S
C924 C523 1.877 . S
