# Generated by pormake.
# Topology npo, (4)-cn, num edge types: 1
# Building blocks:
#     Node 0, Type 0, BuildingBlock: QUQFOY_clean_sbu_3, # of connection points: 4
#     Node 1, Type 0, BuildingBlock: QUQFOY_clean_sbu_3, # of connection points: 4
#     Node 2, Type 0, BuildingBlock: QUQFOY_clean_sbu_3, # of connection points: 4
#     Node 3, Type 0, BuildingBlock: QUQFOY_clean_sbu_3, # of connection points: 4
#     Node 4, Type 0, BuildingBlock: QUQFOY_clean_sbu_3, # of connection points: 4
#     Node 5, Type 0, BuildingBlock: QUQFOY_clean_sbu_3, # of connection points: 4
#     Edge 6, Type (0, 0), BuildingBlock: EZIPEK_clean_linker_0, # of connection points: 2
#     Edge 7, Type (0, 0), BuildingBlock: EZIPEK_clean_linker_0, # of connection points: 2
#     Edge 8, Type (0, 0), BuildingBlock: EZIPEK_clean_linker_0, # of connection points: 2
#     Edge 9, Type (0, 0), BuildingBlock: EZIPEK_clean_linker_0, # of connection points: 2
#     Edge 10, Type (0, 0), BuildingBlock: EZIPEK_clean_linker_0, # of connection points: 2
#     Edge 11, Type (0, 0), BuildingBlock: EZIPEK_clean_linker_0, # of connection points: 2
#     Edge 12, Type (0, 0), BuildingBlock: EZIPEK_clean_linker_0, # of connection points: 2
#     Edge 13, Type (0, 0), BuildingBlock: EZIPEK_clean_linker_0, # of connection points: 2
#     Edge 14, Type (0, 0), BuildingBlock: EZIPEK_clean_linker_0, # of connection points: 2
#     Edge 15, Type (0, 0), BuildingBlock: EZIPEK_clean_linker_0, # of connection points: 2
#     Edge 16, Type (0, 0), BuildingBlock: EZIPEK_clean_linker_0, # of connection points: 2
#     Edge 17, Type (0, 0), BuildingBlock: EZIPEK_clean_linker_0, # of connection points: 2
# Relax obj value: 0.287
# Max RMSD: 0.251
# Mean RMSD: 0.241
data_MOF--net-npo--node1-QUQFOY_clean_sbu_3--edge1-EZIPEK_clean_linker_0
_symmetry_space_group_name_H-M    P1
_symmetry_Int_Tables_number       1
_symmetry_cell_setting            triclinic
loop_
_symmetry_equiv_pos_as_xyz
'x, y, z'
_cell_length_a     34.759843
_cell_length_b     34.045361
_cell_length_c     18.826792
_cell_angle_alpha  91.447575
_cell_angle_beta   90.053015
_cell_angle_gamma 121.4134
loop_
_atom_site_label
_atom_site_type_symbol
_atom_site_fract_x
_atom_site_fract_y
_atom_site_fract_z
_atom_type_partial_charge
C0 C 0.47525 0.15501 0.18721 0.0
O1 O 0.49203 0.1618 0.12565 0.0
Cd2 Cd 0.53662 0.13242 0.08163 0.0
O3 O 0.48053 0.12982 0.23018 0.0
Cd4 Cd 0.51757 0.08387 0.23283 0.0
C5 C 0.62023 0.18074 0.20851 0.0
O6 O 0.49742 0.05324 0.11232 0.0
O7 O 0.54408 0.0392 0.16456 0.0
O8 O 0.45516 0.02618 0.30372 0.0
C9 C 0.51993 0.03367 0.11032 0.0
O10 O 0.60917 0.17951 0.14366 0.0
C11 C 0.48028 0.0289 0.35502 0.0
O12 O 0.59285 0.15153 0.25197 0.0
O13 O 0.52241 0.05666 0.34936 0.0
C14 C 0.2796 0.48074 0.66868 0.0
O15 O 0.29528 0.48806 0.60627 0.0
Cd16 Cd 0.37138 0.51351 0.57309 0.0
O17 O 0.30434 0.48602 0.72241 0.0
Cd18 Cd 0.38444 0.51161 0.74391 0.0
C19 C 0.41365 0.61367 0.6692 0.0
O20 O 0.39662 0.47465 0.64429 0.0
O21 O 0.45755 0.52809 0.69657 0.0
O22 O 0.37613 0.45943 0.83692 0.0
C23 C 0.43919 0.49651 0.64874 0.0
O24 O 0.41063 0.59541 0.60797 0.0
C25 C 0.39533 0.49089 0.88496 0.0
O26 O 0.40387 0.59018 0.72507 0.0
O27 O 0.40698 0.53147 0.86809 0.0
C28 C 0.76985 0.46666 0.24612 0.0
O29 O 0.78341 0.47133 0.31009 0.0
Cd30 Cd 0.84074 0.45665 0.34449 0.0
O31 O 0.78849 0.45699 0.19611 0.0
Cd32 Cd 0.85204 0.44457 0.18027 0.0
C33 C 0.78546 0.34742 0.26958 0.0
O34 O 0.90294 0.49966 0.26818 0.0
O35 O 0.91748 0.448 0.23813 0.0
O36 O 0.87662 0.49259 0.07665 0.0
C37 C 0.93057 0.48611 0.27059 0.0
O38 O 0.80011 0.37276 0.32576 0.0
C39 C 0.88207 0.46465 0.03837 0.0
O40 O 0.79781 0.36518 0.20885 0.0
O41 O 0.87103 0.42618 0.06452 0.0
C42 C 0.30874 0.7878 0.80233 0.0
O43 O 0.32445 0.79254 0.86488 0.0
Cd44 Cd 0.40244 0.83289 0.89019 0.0
O45 O 0.33421 0.81078 0.75127 0.0
Cd46 Cd 0.41573 0.87412 0.73531 0.0
C47 C 0.43128 0.7853 0.75188 0.0
O48 O 0.42907 0.90897 0.85253 0.0
O49 O 0.48977 0.9267 0.79657 0.0
O50 O 0.40029 0.9226 0.65923 0.0
C51 C 0.47155 0.93283 0.85055 0.0
O52 O 0.42411 0.78633 0.81803 0.0
C53 C 0.42589 0.92383 0.60993 0.0
O54 O 0.43114 0.81407 0.71051 0.0
O55 O 0.44547 0.90158 0.61864 0.0
C56 C 0.59615 0.44089 0.18203 0.0
O57 O 0.58352 0.43215 0.11728 0.0
Cd58 Cd 0.50701 0.40049 0.08131 0.0
O59 O 0.56907 0.43649 0.23127 0.0
Cd60 Cd 0.49022 0.41754 0.24871 0.0
C61 C 0.4621 0.30992 0.19731 0.0
O62 O 0.48939 0.4518 0.14031 0.0
O63 O 0.42603 0.41966 0.19414 0.0
O64 O 0.52116 0.47744 0.34277 0.0
C65 C 0.44902 0.44205 0.14152 0.0
O66 O 0.47514 0.32516 0.13533 0.0
C67 C 0.49012 0.45331 0.38609 0.0
O68 O 0.46177 0.33563 0.24705 0.0
O69 O 0.46005 0.41282 0.3657 0.0
C70 C 0.12021 0.48734 0.72626 0.0
O71 O 0.11405 0.49002 0.79227 0.0
Cd72 Cd 0.06771 0.51593 0.84463 0.0
O73 O 0.10013 0.49734 0.67996 0.0
Cd74 Cd 0.05074 0.52955 0.67879 0.0
C75 C 0.13381 0.62159 0.77504 0.0
O76 O 0.00145 0.48516 0.77223 0.0
O77 O -0.00617 0.54086 0.73893 0.0
O78 O 0.01184 0.48702 0.56991 0.0
C79 C -0.01906 0.50667 0.77842 0.0
O80 O 0.11862 0.59882 0.83145 0.0
C81 C 0.02267 0.52296 0.53558 0.0
O82 O 0.11677 0.6037 0.71426 0.0
O83 O 0.04711 0.56164 0.56765 0.0
C84 C 0.47212 0.21208 0.26945 0.0
C85 C 0.454 0.18145 0.2098 0.0
C86 C 0.42252 0.22603 0.16508 0.0
C87 C 0.45183 0.26285 0.2123 0.0
N88 N 0.50588 0.29091 0.3109 0.0
N89 N 0.40411 0.15329 0.10804 0.0
C90 C 0.47612 0.25563 0.26629 0.0
C91 C 0.42597 0.18622 0.1605 0.0
N92 N 0.48586 0.2 0.32861 0.0
N93 N 0.39176 0.22951 0.12486 0.0
H94 H 0.40377 0.12242 0.10731 0.0
H95 H 0.3874 0.15684 0.06507 0.0
H96 H 0.38824 0.25813 0.12888 0.0
H97 H 0.36723 0.20277 0.09276 0.0
H98 H 0.49627 0.21998 0.37551 0.0
H99 H 0.4808 0.16734 0.33453 0.0
H100 H 0.52857 0.28851 0.34399 0.0
H101 H 0.51099 0.32382 0.31156 0.0
C102 C 0.19665 0.43915 0.69551 0.0
C103 C 0.23748 0.4804 0.68066 0.0
C104 C 0.19893 0.52343 0.68313 0.0
C105 C 0.15882 0.48315 0.70447 0.0
N106 N 0.11945 0.40349 0.73627 0.0
N107 N 0.27998 0.56333 0.67453 0.0
C108 C 0.15765 0.44114 0.71221 0.0
C109 C 0.23925 0.5229 0.67798 0.0
N110 N 0.19517 0.39824 0.69241 0.0
N111 N 0.19885 0.56249 0.66795 0.0
H112 H 0.31065 0.56486 0.67095 0.0
H113 H 0.28395 0.59567 0.68207 0.0
H114 H 0.17128 0.56629 0.67517 0.0
H115 H 0.22549 0.5905 0.64329 0.0
H116 H 0.16561 0.36628 0.69598 0.0
H117 H 0.22352 0.39617 0.68159 0.0
H118 H 0.11767 0.37324 0.75041 0.0
H119 H 0.08975 0.4033 0.74537 0.0
C120 C 0.66684 0.25034 0.28763 0.0
C121 C 0.66468 0.21885 0.2347 0.0
C122 C 0.7467 0.26586 0.2214 0.0
C123 C 0.74836 0.29809 0.27266 0.0
N124 N 0.71298 0.30814 0.37687 0.0
N125 N 0.70291 0.18986 0.1643 0.0
C126 C 0.70952 0.28622 0.31329 0.0
C127 C 0.70485 0.22445 0.20567 0.0
N128 N 0.62834 0.24788 0.31064 0.0
N129 N 0.78522 0.27533 0.18753 0.0
H130 H 0.67277 0.15902 0.1527 0.0
H131 H 0.73122 0.18993 0.14618 0.0
H132 H 0.81688 0.30287 0.20354 0.0
H133 H 0.78586 0.2567 0.14332 0.0
H134 H 0.62869 0.27346 0.34275 0.0
H135 H 0.59616 0.22292 0.29226 0.0
H136 H 0.68559 0.29824 0.40998 0.0
H137 H 0.74361 0.3309 0.40211 0.0
C138 C 0.46564 0.73637 0.74236 0.0
C139 C 0.43194 0.74532 0.72084 0.0
C140 C 0.39578 0.67472 0.64605 0.0
C141 C 0.42504 0.66205 0.67657 0.0
N142 N 0.4893 0.68091 0.7508 0.0
N143 N 0.36166 0.72064 0.65818 0.0
C144 C 0.46065 0.69314 0.72358 0.0
C145 C 0.39661 0.71435 0.67327 0.0
N146 N 0.50277 0.76968 0.77933 0.0
N147 N 0.36651 0.64878 0.59186 0.0
H148 H 0.36003 0.74886 0.67635 0.0
H149 H 0.33183 0.69564 0.63289 0.0
H150 H 0.36187 0.61776 0.57233 0.0
H151 H 0.34907 0.65998 0.56177 0.0
H152 H 0.53067 0.76726 0.79143 0.0
H153 H 0.50734 0.80174 0.79312 0.0
H154 H 0.5123 0.69897 0.79205 0.0
H155 H 0.48908 0.65147 0.73326 0.0
C156 C 0.68006 0.49293 0.19394 0.0
C157 C 0.64078 0.44881 0.20137 0.0
C158 C 0.68654 0.41681 0.23643 0.0
C159 C 0.72572 0.46138 0.23203 0.0
N160 N 0.76085 0.54275 0.21514 0.0
N161 N 0.60497 0.36961 0.23572 0.0
C162 C 0.72282 0.49979 0.21323 0.0
C163 C 0.64356 0.41103 0.22464 0.0
N164 N 0.67636 0.52783 0.16723 0.0
N165 N 0.69065 0.37975 0.24961 0.0
H166 H 0.57285 0.36293 0.22308 0.0
H167 H 0.60424 0.34244 0.26109 0.0
H168 H 0.72135 0.38262 0.26132 0.0
H169 H 0.66422 0.34566 0.24482 0.0
H170 H 0.70378 0.55951 0.15342 0.0
H171 H 0.64537 0.52424 0.15512 0.0
H172 H 0.7608 0.57298 0.20871 0.0
H173 H 0.79267 0.5485 0.22771 0.0
C174 C 0.22563 0.74915 0.77319 0.0
C175 C 0.26412 0.74618 0.78691 0.0
C176 C 0.21699 0.66226 0.7935 0.0
C177 C 0.17831 0.66487 0.77853 0.0
N178 N 0.14545 0.70884 0.74387 0.0
N179 N 0.29826 0.70021 0.79493 0.0
C180 C 0.18256 0.70779 0.76481 0.0
C181 C 0.26025 0.70277 0.79254 0.0
N182 N 0.23017 0.79145 0.77085 0.0
N183 N 0.21243 0.62107 0.80984 0.0
H184 H 0.33078 0.7291 0.79599 0.0
H185 H 0.29798 0.66955 0.78943 0.0
H186 H 0.18204 0.58962 0.80614 0.0
H187 H 0.23844 0.61808 0.83098 0.0
H188 H 0.20312 0.79646 0.76848 0.0
H189 H 0.26145 0.82207 0.775 0.0
H190 H 0.14673 0.73822 0.72627 0.0
H191 H 0.11327 0.67937 0.74022 0.0
C192 C 0.49423 0.9372 -0.02286 0.0
C193 C 0.49773 0.96036 0.91385 0.0
C194 C 0.53445 0.03359 -0.01925 0.0
C195 C 0.52046 0.00915 0.04472 0.0
N196 N 0.48778 0.93723 0.10522 0.0
N197 N 0.52301 0.03103 0.85324 0.0
C198 C 0.50138 0.96083 0.04361 0.0
C199 C 0.51917 0.00888 0.91472 0.0
N200 N 0.48467 0.89291 -0.02685 0.0
N201 N 0.56309 0.08023 -0.01641 0.0
H202 H 0.51348 0.01393 0.80371 0.0
H203 H 0.53352 0.06578 0.85186 0.0
H204 H 0.57688 0.09831 0.03159 0.0
H205 H 0.57711 0.09984 0.9388 0.0
H206 H 0.4848 0.87502 0.01713 0.0
H207 H 0.48183 0.87617 0.92445 0.0
H208 H 0.46887 0.90143 0.10648 0.0
H209 H 0.4931 0.95345 0.15507 0.0
C210 C 0.48443 0.51081 0.46463 0.0
C211 C 0.48801 0.47122 0.45736 0.0
C212 C 0.46934 0.45418 0.58259 0.0
C213 C 0.46501 0.49318 0.5893 0.0
N214 N 0.48137 0.56597 0.54457 0.0
N215 N 0.49687 0.41328 0.51271 0.0
C216 C 0.47727 0.52417 0.53299 0.0
C217 C 0.48467 0.44547 0.51761 0.0
N218 N 0.48428 0.53358 0.4059 0.0
N219 N 0.45744 0.42478 0.63763 0.0
H220 H 0.50925 0.40699 0.46606 0.0
H221 H 0.49891 0.3961 0.55618 0.0
H222 H 0.44852 0.43173 0.68723 0.0
H223 H 0.45449 0.39277 0.63326 0.0
H224 H 0.47618 0.55904 0.40737 0.0
H225 H 0.48854 0.5247 0.35444 0.0
H226 H 0.4943 0.59174 0.5073 0.0
H227 H 0.47627 0.57677 0.59403 0.0
C228 C 0.90856 0.46081 0.84337 0.0
C229 C 0.95292 0.49984 0.84123 0.0
C230 C 0.95039 0.51619 0.96791 0.0
C231 C 0.90522 0.47837 0.96951 0.0
N232 N 0.83826 0.41991 0.90724 0.0
N233 N 0.01312 0.5699 0.89694 0.0
C234 C 0.88336 0.45216 0.90668 0.0
C235 C -0.02729 0.52941 0.90194 0.0
N236 N 0.89095 0.43157 0.78531 0.0
N237 N -0.0268 0.53745 0.02996 0.0
H238 H 0.03171 0.58011 0.85052 0.0
H239 H 0.02652 0.59528 0.9372 0.0
H240 H -0.04114 0.52826 0.07998 0.0
H241 H 0.0077 0.56138 0.03271 0.0
H242 H 0.86105 0.39967 0.786 0.0
H243 H 0.90761 0.43816 0.73699 0.0
H244 H 0.81927 0.4027 0.86173 0.0
H245 H 0.81885 0.41312 0.95266 0.0
C246 C 0.46769 0.02465 0.48628 0.0
C247 C 0.46146 0.00154 0.41959 0.0
C248 C 0.42189 0.92718 0.47776 0.0
C249 C 0.43382 0.95059 0.54499 0.0
N250 N 0.4722 0.02182 0.61431 0.0
N251 N 0.43658 0.93109 0.35151 0.0
C252 C 0.45744 -0.00058 0.54967 0.0
C253 C 0.43919 0.9528 0.41504 0.0
N254 N 0.48237 0.07055 0.48887 0.0
N255 N 0.39325 0.88047 0.47398 0.0
H256 H 0.44892 0.94855 0.30434 0.0
H257 H 0.42543 0.89621 0.34642 0.0
H258 H 0.37964 0.86079 0.51897 0.0
H259 H 0.37962 0.86183 0.42647 0.0
H260 H 0.48313 0.08831 0.53522 0.0
H261 H 0.48978 0.09004 0.44344 0.0
H262 H 0.49422 0.05726 0.62028 0.0
H263 H 0.46527 0.00475 0.66213 0.0
C264 C 0.44944 0.51054 -0.01208 0.0
C265 C 0.40622 0.48096 0.95607 0.0
C266 C 0.38891 0.42502 0.04873 0.0
C267 C 0.43068 0.45642 0.08329 0.0
N268 N 0.4926 0.53507 0.09775 0.0
N269 N 0.33015 0.41669 0.96933 0.0
C270 C 0.45822 0.50121 0.05685 0.0
C271 C 0.37439 0.44027 -0.00933 0.0
N272 N 0.48345 0.54547 0.95112 0.0
N273 N 0.36428 0.38007 0.06778 0.0
H274 H 0.31784 0.42802 0.92923 0.0
H275 H 0.30502 0.38907 -0.00307 0.0
H276 H 0.37417 0.36653 0.10788 0.0
H277 H 0.33609 0.35512 0.03886 0.0
H278 H 0.51646 0.56487 0.97079 0.0
H279 H 0.48053 0.55161 0.89808 0.0
H280 H 0.5112 0.56929 0.08271 0.0
H281 H 0.49883 0.53004 0.14996 0.0
C282 C -0.01351 0.54476 0.44164 0.0
C283 C 0.00708 0.51989 0.46135 0.0
C284 C -0.00777 0.48437 0.34141 0.0
C285 C -0.03208 0.50613 0.32513 0.0
N286 N -0.03257 0.57616 0.34362 0.0
N287 N 0.04228 0.47778 0.4242 0.0
C288 C -0.02662 0.54268 0.37001 0.0
C289 C 0.01379 0.49305 0.40942 0.0
N290 N -0.02339 0.56798 0.49145 0.0
N291 N -0.00432 0.45661 0.29152 0.0
H292 H 0.06009 0.48542 0.47223 0.0
H293 H 0.05139 0.4609 0.38737 0.0
H294 H -0.01123 0.45728 0.23781 0.0
H295 H 0.00655 0.43412 0.30267 0.0
H296 H -0.04232 0.58276 0.47949 0.0
H297 H -0.01705 0.56846 0.54565 0.0
H298 H -0.0259 0.60534 0.37343 0.0
H299 H -0.03778 0.5778 0.28943 0.0
loop_
_geom_bond_atom_site_label_1
_geom_bond_atom_site_label_2
_geom_bond_distance
_geom_bond_site_symmetry_2
_ccdc_geom_bond_type
C0 O1 1.306 . S
C0 O3 1.160 . S
O1 C0 1.306 . S
O1 Cd2 2.228 . S
Cd2 O1 2.228 . S
Cd2 O6 2.273 . S
Cd2 O10 2.277 . S
O3 C0 1.160 . S
O3 Cd4 2.203 . S
Cd4 O3 2.203 . S
Cd4 O6 2.411 . S
Cd4 O7 2.333 . S
Cd4 O8 2.352 . S
Cd4 O12 2.277 . S
Cd4 O13 2.356 . S
C5 O10 1.209 . S
C5 O12 1.226 . S
O6 Cd2 2.273 . S
O6 Cd4 2.411 . S
O6 C9 1.320 . S
O7 Cd4 2.333 . S
O7 C9 1.214 . S
O8 Cd4 2.352 . S
O8 C11 1.258 . S
C9 O6 1.320 . S
C9 O7 1.214 . S
O10 Cd2 2.277 . S
O10 C5 1.209 . S
C11 O8 1.258 . S
C11 O13 1.282 . S
O12 Cd4 2.277 . S
O12 C5 1.226 . S
O13 Cd4 2.356 . S
O13 C11 1.282 . S
C14 O15 1.306 . S
C14 O17 1.160 . S
O15 C14 1.306 . S
O15 Cd16 2.228 . S
Cd16 O15 2.228 . S
Cd16 O20 2.273 . S
Cd16 O24 2.277 . S
O17 C14 1.160 . S
O17 Cd18 2.203 . S
Cd18 O17 2.203 . S
Cd18 O20 2.411 . S
Cd18 O21 2.333 . S
Cd18 O22 2.352 . S
Cd18 O26 2.277 . S
Cd18 O27 2.356 . S
C19 O24 1.209 . S
C19 O26 1.226 . S
O20 Cd16 2.273 . S
O20 Cd18 2.411 . S
O20 C23 1.320 . S
O21 Cd18 2.333 . S
O21 C23 1.214 . S
O22 Cd18 2.352 . S
O22 C25 1.258 . S
C23 O20 1.320 . S
C23 O21 1.214 . S
O24 Cd16 2.277 . S
O24 C19 1.209 . S
C25 O22 1.258 . S
C25 O27 1.282 . S
O26 Cd18 2.277 . S
O26 C19 1.226 . S
O27 Cd18 2.356 . S
O27 C25 1.282 . S
C28 O29 1.306 . S
C28 O31 1.160 . S
O29 C28 1.306 . S
O29 Cd30 2.228 . S
Cd30 O29 2.228 . S
Cd30 O34 2.273 . S
Cd30 O38 2.277 . S
O31 C28 1.160 . S
O31 Cd32 2.203 . S
Cd32 O31 2.203 . S
Cd32 O34 2.411 . S
Cd32 O35 2.333 . S
Cd32 O36 2.352 . S
Cd32 O40 2.277 . S
Cd32 O41 2.356 . S
C33 O38 1.209 . S
C33 O40 1.226 . S
O34 Cd30 2.273 . S
O34 Cd32 2.411 . S
O34 C37 1.320 . S
O35 Cd32 2.333 . S
O35 C37 1.214 . S
O36 Cd32 2.352 . S
O36 C39 1.258 . S
C37 O34 1.320 . S
C37 O35 1.214 . S
O38 Cd30 2.277 . S
O38 C33 1.209 . S
C39 O36 1.258 . S
C39 O41 1.282 . S
O40 Cd32 2.277 . S
O40 C33 1.226 . S
O41 Cd32 2.356 . S
O41 C39 1.282 . S
C42 O43 1.306 . S
C42 O45 1.160 . S
O43 C42 1.306 . S
O43 Cd44 2.228 . S
Cd44 O43 2.228 . S
Cd44 O48 2.273 . S
Cd44 O52 2.277 . S
O45 C42 1.160 . S
O45 Cd46 2.203 . S
Cd46 O45 2.203 . S
Cd46 O48 2.411 . S
Cd46 O49 2.333 . S
Cd46 O50 2.352 . S
Cd46 O54 2.277 . S
Cd46 O55 2.356 . S
C47 O52 1.209 . S
C47 O54 1.226 . S
O48 Cd44 2.273 . S
O48 Cd46 2.411 . S
O48 C51 1.320 . S
O49 Cd46 2.333 . S
O49 C51 1.214 . S
O50 Cd46 2.352 . S
O50 C53 1.258 . S
C51 O48 1.320 . S
C51 O49 1.214 . S
O52 Cd44 2.277 . S
O52 C47 1.209 . S
C53 O50 1.258 . S
C53 O55 1.282 . S
O54 Cd46 2.277 . S
O54 C47 1.226 . S
O55 Cd46 2.356 . S
O55 C53 1.282 . S
C56 O57 1.306 . S
C56 O59 1.160 . S
O57 C56 1.306 . S
O57 Cd58 2.228 . S
Cd58 O57 2.228 . S
Cd58 O62 2.273 . S
Cd58 O66 2.277 . S
O59 C56 1.160 . S
O59 Cd60 2.203 . S
Cd60 O59 2.203 . S
Cd60 O62 2.411 . S
Cd60 O63 2.333 . S
Cd60 O64 2.352 . S
Cd60 O68 2.277 . S
Cd60 O69 2.356 . S
C61 O66 1.209 . S
C61 O68 1.226 . S
O62 Cd58 2.273 . S
O62 Cd60 2.411 . S
O62 C65 1.320 . S
O63 Cd60 2.333 . S
O63 C65 1.214 . S
O64 Cd60 2.352 . S
O64 C67 1.258 . S
C65 O62 1.320 . S
C65 O63 1.214 . S
O66 Cd58 2.277 . S
O66 C61 1.209 . S
C67 O64 1.258 . S
C67 O69 1.282 . S
O68 Cd60 2.277 . S
O68 C61 1.226 . S
O69 Cd60 2.356 . S
O69 C67 1.282 . S
C70 O71 1.306 . S
C70 O73 1.160 . S
O71 C70 1.306 . S
O71 Cd72 2.228 . S
Cd72 O71 2.228 . S
Cd72 O76 2.273 . S
Cd72 O80 2.277 . S
O73 C70 1.160 . S
O73 Cd74 2.203 . S
Cd74 O73 2.203 . S
Cd74 O76 2.411 . S
Cd74 O77 2.333 . S
Cd74 O78 2.352 . S
Cd74 O82 2.277 . S
Cd74 O83 2.356 . S
C75 O80 1.209 . S
C75 O82 1.226 . S
O76 Cd72 2.273 . S
O76 Cd74 2.411 . S
O76 C79 1.320 . S
O77 Cd74 2.333 . S
O77 C79 1.214 . S
O78 Cd74 2.352 . S
O78 C81 1.258 . S
C79 O76 1.320 . S
C79 O77 1.214 . S
O80 Cd72 2.277 . S
O80 C75 1.209 . S
C81 O78 1.258 . S
C81 O83 1.282 . S
O82 Cd74 2.277 . S
O82 C75 1.226 . S
O83 Cd74 2.356 . S
O83 C81 1.282 . S
C84 C85 1.363 . S
C84 C90 1.379 . S
C84 N92 1.356 . S
C85 C84 1.363 . S
C85 C91 1.363 . S
C86 C87 1.363 . S
C86 C91 1.379 . S
C86 N93 1.356 . S
C87 C86 1.363 . S
C87 C90 1.363 . S
N88 C90 1.356 . S
N88 H100 0.984 . S
N88 H101 0.985 . S
N89 C91 1.356 . S
N89 H94 0.984 . S
N89 H95 0.985 . S
C90 C84 1.379 . S
C90 C87 1.363 . S
C90 N88 1.356 . S
C91 C85 1.363 . S
C91 C86 1.379 . S
C91 N89 1.356 . S
N92 C84 1.356 . S
N92 H98 0.984 . S
N92 H99 0.984 . S
N93 C86 1.356 . S
N93 H96 0.984 . S
N93 H97 0.985 . S
H94 N89 0.984 . S
H95 N89 0.985 . S
H96 N93 0.984 . S
H97 N93 0.985 . S
H98 N92 0.984 . S
H99 N92 0.984 . S
H100 N88 0.984 . S
H101 N88 0.985 . S
C102 C103 1.363 . S
C102 C108 1.379 . S
C102 N110 1.356 . S
C103 C102 1.363 . S
C103 C109 1.363 . S
C104 C105 1.363 . S
C104 C109 1.379 . S
C104 N111 1.356 . S
C105 C104 1.363 . S
C105 C108 1.363 . S
N106 C108 1.356 . S
N106 H118 0.984 . S
N106 H119 0.985 . S
N107 C109 1.356 . S
N107 H112 0.984 . S
N107 H113 0.985 . S
C108 C102 1.379 . S
C108 C105 1.363 . S
C108 N106 1.356 . S
C109 C103 1.363 . S
C109 C104 1.379 . S
C109 N107 1.356 . S
N110 C102 1.356 . S
N110 H116 0.984 . S
N110 H117 0.984 . S
N111 C104 1.356 . S
N111 H114 0.984 . S
N111 H115 0.985 . S
H112 N107 0.984 . S
H113 N107 0.985 . S
H114 N111 0.984 . S
H115 N111 0.985 . S
H116 N110 0.984 . S
H117 N110 0.984 . S
H118 N106 0.984 . S
H119 N106 0.985 . S
C120 C121 1.363 . S
C120 C126 1.379 . S
C120 N128 1.356 . S
C121 C120 1.363 . S
C121 C127 1.363 . S
C122 C123 1.363 . S
C122 C127 1.379 . S
C122 N129 1.356 . S
C123 C122 1.363 . S
C123 C126 1.363 . S
N124 C126 1.356 . S
N124 H136 0.984 . S
N124 H137 0.985 . S
N125 C127 1.356 . S
N125 H130 0.984 . S
N125 H131 0.985 . S
C126 C120 1.379 . S
C126 C123 1.363 . S
C126 N124 1.356 . S
C127 C121 1.363 . S
C127 C122 1.379 . S
C127 N125 1.356 . S
N128 C120 1.356 . S
N128 H134 0.984 . S
N128 H135 0.984 . S
N129 C122 1.356 . S
N129 H132 0.984 . S
N129 H133 0.985 . S
H130 N125 0.984 . S
H131 N125 0.985 . S
H132 N129 0.984 . S
H133 N129 0.985 . S
H134 N128 0.984 . S
H135 N128 0.984 . S
H136 N124 0.984 . S
H137 N124 0.985 . S
C138 C139 1.363 . S
C138 C144 1.379 . S
C138 N146 1.356 . S
C139 C138 1.363 . S
C139 C145 1.363 . S
C140 C141 1.363 . S
C140 C145 1.379 . S
C140 N147 1.356 . S
C141 C140 1.363 . S
C141 C144 1.363 . S
N142 C144 1.356 . S
N142 H154 0.984 . S
N142 H155 0.985 . S
N143 C145 1.356 . S
N143 H148 0.984 . S
N143 H149 0.985 . S
C144 C138 1.379 . S
C144 C141 1.363 . S
C144 N142 1.356 . S
C145 C139 1.363 . S
C145 C140 1.379 . S
C145 N143 1.356 . S
N146 C138 1.356 . S
N146 H152 0.984 . S
N146 H153 0.984 . S
N147 C140 1.356 . S
N147 H150 0.984 . S
N147 H151 0.985 . S
H148 N143 0.984 . S
H149 N143 0.985 . S
H150 N147 0.984 . S
H151 N147 0.985 . S
H152 N146 0.984 . S
H153 N146 0.984 . S
H154 N142 0.984 . S
H155 N142 0.985 . S
C156 C157 1.363 . S
C156 C162 1.379 . S
C156 N164 1.356 . S
C157 C156 1.363 . S
C157 C163 1.363 . S
C158 C159 1.363 . S
C158 C163 1.379 . S
C158 N165 1.356 . S
C159 C158 1.363 . S
C159 C162 1.363 . S
N160 C162 1.356 . S
N160 H172 0.984 . S
N160 H173 0.985 . S
N161 C163 1.356 . S
N161 H166 0.984 . S
N161 H167 0.985 . S
C162 C156 1.379 . S
C162 C159 1.363 . S
C162 N160 1.356 . S
C163 C157 1.363 . S
C163 C158 1.379 . S
C163 N161 1.356 . S
N164 C156 1.356 . S
N164 H170 0.984 . S
N164 H171 0.984 . S
N165 C158 1.356 . S
N165 H168 0.984 . S
N165 H169 0.985 . S
H166 N161 0.984 . S
H167 N161 0.985 . S
H168 N165 0.984 . S
H169 N165 0.985 . S
H170 N164 0.984 . S
H171 N164 0.984 . S
H172 N160 0.984 . S
H173 N160 0.985 . S
C174 C175 1.363 . S
C174 C180 1.379 . S
C174 N182 1.356 . S
C175 C174 1.363 . S
C175 C181 1.363 . S
C176 C177 1.363 . S
C176 C181 1.379 . S
C176 N183 1.356 . S
C177 C176 1.363 . S
C177 C180 1.363 . S
N178 C180 1.356 . S
N178 H190 0.984 . S
N178 H191 0.985 . S
N179 C181 1.356 . S
N179 H184 0.984 . S
N179 H185 0.985 . S
C180 C174 1.379 . S
C180 C177 1.363 . S
C180 N178 1.356 . S
C181 C175 1.363 . S
C181 C176 1.379 . S
C181 N179 1.356 . S
N182 C174 1.356 . S
N182 H188 0.984 . S
N182 H189 0.984 . S
N183 C176 1.356 . S
N183 H186 0.984 . S
N183 H187 0.985 . S
H184 N179 0.984 . S
H185 N179 0.985 . S
H186 N183 0.984 . S
H187 N183 0.985 . S
H188 N182 0.984 . S
H189 N182 0.984 . S
H190 N178 0.984 . S
H191 N178 0.985 . S
C192 C193 1.363 1_554 S
C192 C198 1.379 . S
C192 N200 1.356 1_554 S
C193 C192 1.363 1_556 S
C193 C199 1.363 1_565 S
C194 C195 1.363 1_556 S
C194 C199 1.379 . S
C194 N201 1.356 1_556 S
C195 C194 1.363 1_554 S
C195 C198 1.363 1_545 S
N196 C198 1.356 . S
N196 H208 0.984 . S
N196 H209 0.985 1_565 S
N197 C199 1.356 . S
N197 H202 0.984 1_545 S
N197 H203 0.985 . S
C198 C192 1.379 . S
C198 C195 1.363 1_565 S
C198 N196 1.356 . S
C199 C193 1.363 1_545 S
C199 C194 1.379 . S
C199 N197 1.356 . S
N200 C192 1.356 1_556 S
N200 H206 0.984 1_556 S
N200 H207 0.984 . S
N201 C194 1.356 1_554 S
N201 H204 0.984 . S
N201 H205 0.985 1_554 S
H202 N197 0.984 1_565 S
H203 N197 0.985 . S
H204 N201 0.984 . S
H205 N201 0.985 1_556 S
H206 N200 0.984 1_554 S
H207 N200 0.984 . S
H208 N196 0.984 . S
H209 N196 0.985 1_545 S
C210 C211 1.363 . S
C210 C216 1.379 . S
C210 N218 1.356 . S
C211 C210 1.363 . S
C211 C217 1.363 . S
C212 C213 1.363 . S
C212 C217 1.379 . S
C212 N219 1.356 . S
C213 C212 1.363 . S
C213 C216 1.363 . S
N214 C216 1.356 . S
N214 H226 0.984 . S
N214 H227 0.985 . S
N215 C217 1.356 . S
N215 H220 0.984 . S
N215 H221 0.985 . S
C216 C210 1.379 . S
C216 C213 1.363 . S
C216 N214 1.356 . S
C217 C211 1.363 . S
C217 C212 1.379 . S
C217 N215 1.356 . S
N218 C210 1.356 . S
N218 H224 0.984 . S
N218 H225 0.984 . S
N219 C212 1.356 . S
N219 H222 0.984 . S
N219 H223 0.985 . S
H220 N215 0.984 . S
H221 N215 0.985 . S
H222 N219 0.984 . S
H223 N219 0.985 . S
H224 N218 0.984 . S
H225 N218 0.984 . S
H226 N214 0.984 . S
H227 N214 0.985 . S
C228 C229 1.363 1_655 S
C228 C234 1.379 . S
C228 N236 1.356 . S
C229 C228 1.363 1_455 S
C229 C235 1.363 . S
C230 C231 1.363 1_455 S
C230 C235 1.379 1_554 S
C230 N237 1.356 . S
C231 C230 1.363 1_655 S
C231 C234 1.363 1_554 S
N232 C234 1.356 . S
N232 H244 0.984 . S
N232 H245 0.985 1_556 S
N233 C235 1.356 . S
N233 H238 0.984 . S
N233 H239 0.985 1_556 S
C234 C228 1.379 . S
C234 C231 1.363 1_556 S
C234 N232 1.356 . S
C235 C229 1.363 . S
C235 C230 1.379 1_556 S
C235 N233 1.356 . S
N236 C228 1.356 . S
N236 H242 0.984 . S
N236 H243 0.984 1_655 S
N237 C230 1.356 . S
N237 H240 0.984 . S
N237 H241 0.985 . S
H238 N233 0.984 . S
H239 N233 0.985 1_554 S
H240 N237 0.984 . S
H241 N237 0.985 . S
H242 N236 0.984 . S
H243 N236 0.984 1_455 S
H244 N232 0.984 . S
H245 N232 0.985 1_554 S
C246 C247 1.363 . S
C246 C252 1.379 . S
C246 N254 1.356 . S
C247 C246 1.363 . S
C247 C253 1.363 1_545 S
C248 C249 1.363 . S
C248 C253 1.379 . S
C248 N255 1.356 . S
C249 C248 1.363 . S
C249 C252 1.363 1_565 S
N250 C252 1.356 . S
N250 H262 0.984 . S
N250 H263 0.985 . S
N251 C253 1.356 . S
N251 H256 0.984 . S
N251 H257 0.985 . S
C252 C246 1.379 . S
C252 C249 1.363 1_545 S
C252 N250 1.356 . S
C253 C247 1.363 1_565 S
C253 C248 1.379 . S
C253 N251 1.356 . S
N254 C246 1.356 . S
N254 H260 0.984 . S
N254 H261 0.984 . S
N255 C248 1.356 . S
N255 H258 0.984 . S
N255 H259 0.985 . S
H256 N251 0.984 . S
H257 N251 0.985 . S
H258 N255 0.984 . S
H259 N255 0.985 . S
H260 N254 0.984 . S
H261 N254 0.984 . S
H262 N250 0.984 . S
H263 N250 0.985 . S
C264 C265 1.363 . S
C264 C270 1.379 1_556 S
C264 N272 1.356 . S
C265 C264 1.363 . S
C265 C271 1.363 . S
C266 C267 1.363 . S
C266 C271 1.379 1_554 S
C266 N273 1.356 . S
C267 C266 1.363 . S
C267 C270 1.363 . S
N268 C270 1.356 . S
N268 H280 0.984 . S
N268 H281 0.985 . S
N269 C271 1.356 . S
N269 H274 0.984 . S
N269 H275 0.985 . S
C270 C264 1.379 1_554 S
C270 C267 1.363 . S
C270 N268 1.356 . S
C271 C265 1.363 . S
C271 C266 1.379 1_556 S
C271 N269 1.356 . S
N272 C264 1.356 . S
N272 H278 0.984 . S
N272 H279 0.984 . S
N273 C266 1.356 . S
N273 H276 0.984 . S
N273 H277 0.985 . S
H274 N269 0.984 . S
H275 N269 0.985 . S
H276 N273 0.984 . S
H277 N273 0.985 . S
H278 N272 0.984 . S
H279 N272 0.984 . S
H280 N268 0.984 . S
H281 N268 0.985 . S
C282 C283 1.363 1_655 S
C282 C288 1.379 . S
C282 N290 1.356 . S
C283 C282 1.363 1_455 S
C283 C289 1.363 . S
C284 C285 1.363 1_455 S
C284 C289 1.379 . S
C284 N291 1.358 1_455 S
C285 C284 1.363 1_655 S
C285 C288 1.363 . S
N286 C288 1.356 . S
N286 H298 0.984 . S
N286 H299 0.985 . S
N287 C289 1.356 . S
N287 H292 0.984 . S
N287 H293 0.985 . S
C288 C282 1.379 . S
C288 C285 1.363 . S
C288 N286 1.356 . S
C289 C283 1.363 . S
C289 C284 1.379 . S
C289 N287 1.356 . S
N290 C282 1.356 . S
N290 H296 0.984 . S
N290 H297 0.984 1_655 S
N291 C284 1.358 1_655 S
N291 H294 0.990 . S
N291 H295 0.977 1_655 S
H292 N287 0.984 . S
H293 N287 0.985 . S
H294 N291 0.990 . S
H295 N291 0.977 1_455 S
H296 N290 0.984 . S
H297 N290 0.984 1_455 S
H298 N286 0.984 . S
H299 N286 0.985 . S
C85 C0 1.229 . S
C87 C61 1.265 . S
C103 C14 1.240 . S
C105 C70 1.241 . S
C121 C5 1.263 . S
C123 C33 1.271 . S
C139 C47 1.263 . S
C141 C19 1.271 . S
C157 C56 1.241 . S
C159 C28 1.239 . S
C175 C42 1.229 . S
C177 C75 1.265 . S
C193 C51 1.413 . S
C195 C9 1.413 . S
C211 C67 1.436 . S
C213 C23 1.459 . S
C229 C79 1.443 . S
C231 C39 1.428 . S
C247 C11 1.438 . S
C249 C53 1.438 . S
C265 C25 1.429 . S
C267 C65 1.443 . S
C283 C81 1.437 . S
C285 C37 1.459 . S
