# Generated by pormake.
# Topology uop, (4)-cn, num edge types: 1
# Building blocks:
#     Node 0, Type 0, BuildingBlock: MUDLON_clean_sbu_0, # of connection points: 4
#     Node 1, Type 0, BuildingBlock: MUDLON_clean_sbu_0, # of connection points: 4
#     Node 2, Type 0, BuildingBlock: MUDLON_clean_sbu_0, # of connection points: 4
#     Node 3, Type 0, BuildingBlock: MUDLON_clean_sbu_0, # of connection points: 4
#     Node 4, Type 0, BuildingBlock: MUDLON_clean_sbu_0, # of connection points: 4
#     Node 5, Type 0, BuildingBlock: MUDLON_clean_sbu_0, # of connection points: 4
#     Node 6, Type 0, BuildingBlock: MUDLON_clean_sbu_0, # of connection points: 4
#     Node 7, Type 0, BuildingBlock: MUDLON_clean_sbu_0, # of connection points: 4
#     Node 8, Type 0, BuildingBlock: MUDLON_clean_sbu_0, # of connection points: 4
#     Node 9, Type 0, BuildingBlock: MUDLON_clean_sbu_0, # of connection points: 4
#     Node 10, Type 0, BuildingBlock: MUDLON_clean_sbu_0, # of connection points: 4
#     Node 11, Type 0, BuildingBlock: MUDLON_clean_sbu_0, # of connection points: 4
#     Edge 12, Type (0, 0), BuildingBlock: UVAHIK_clean_linker_0, # of connection points: 2
#     Edge 13, Type (0, 0), BuildingBlock: UVAHIK_clean_linker_0, # of connection points: 2
#     Edge 14, Type (0, 0), BuildingBlock: UVAHIK_clean_linker_0, # of connection points: 2
#     Edge 15, Type (0, 0), BuildingBlock: UVAHIK_clean_linker_0, # of connection points: 2
#     Edge 16, Type (0, 0), BuildingBlock: UVAHIK_clean_linker_0, # of connection points: 2
#     Edge 17, Type (0, 0), BuildingBlock: UVAHIK_clean_linker_0, # of connection points: 2
#     Edge 18, Type (0, 0), BuildingBlock: UVAHIK_clean_linker_0, # of connection points: 2
#     Edge 19, Type (0, 0), BuildingBlock: UVAHIK_clean_linker_0, # of connection points: 2
#     Edge 20, Type (0, 0), BuildingBlock: UVAHIK_clean_linker_0, # of connection points: 2
#     Edge 21, Type (0, 0), BuildingBlock: UVAHIK_clean_linker_0, # of connection points: 2
#     Edge 22, Type (0, 0), BuildingBlock: UVAHIK_clean_linker_0, # of connection points: 2
#     Edge 23, Type (0, 0), BuildingBlock: UVAHIK_clean_linker_0, # of connection points: 2
#     Edge 24, Type (0, 0), BuildingBlock: UVAHIK_clean_linker_0, # of connection points: 2
#     Edge 25, Type (0, 0), BuildingBlock: UVAHIK_clean_linker_0, # of connection points: 2
#     Edge 26, Type (0, 0), BuildingBlock: UVAHIK_clean_linker_0, # of connection points: 2
#     Edge 27, Type (0, 0), BuildingBlock: UVAHIK_clean_linker_0, # of connection points: 2
#     Edge 28, Type (0, 0), BuildingBlock: UVAHIK_clean_linker_0, # of connection points: 2
#     Edge 29, Type (0, 0), BuildingBlock: UVAHIK_clean_linker_0, # of connection points: 2
#     Edge 30, Type (0, 0), BuildingBlock: UVAHIK_clean_linker_0, # of connection points: 2
#     Edge 31, Type (0, 0), BuildingBlock: UVAHIK_clean_linker_0, # of connection points: 2
#     Edge 32, Type (0, 0), BuildingBlock: UVAHIK_clean_linker_0, # of connection points: 2
#     Edge 33, Type (0, 0), BuildingBlock: UVAHIK_clean_linker_0, # of connection points: 2
#     Edge 34, Type (0, 0), BuildingBlock: UVAHIK_clean_linker_0, # of connection points: 2
#     Edge 35, Type (0, 0), BuildingBlock: UVAHIK_clean_linker_0, # of connection points: 2
# Relax obj value: 0.172
# Max RMSD: 0.294
# Mean RMSD: 0.294
data_MOF--net-uop--node1-MUDLON_clean_sbu_0--edge1-UVAHIK_clean_linker_0
_symmetry_space_group_name_H-M    P1
_symmetry_Int_Tables_number       1
_symmetry_cell_setting            triclinic
loop_
_symmetry_equiv_pos_as_xyz
'x, y, z'
_cell_length_a     44.135336
_cell_length_b     44.325414
_cell_length_c     61.040974
_cell_angle_alpha  89.925326
_cell_angle_beta   90.155092
_cell_angle_gamma 119.90067
loop_
_atom_site_label
_atom_site_type_symbol
_atom_site_fract_x
_atom_site_fract_y
_atom_site_fract_z
_atom_type_partial_charge
Mg0 Mg 0.26445 0.40981 0.19915 0.0
C1 C 0.26584 0.47185 0.18083 0.0
O2 O 0.27385 0.45862 0.16406 0.0
C3 C 0.27543 0.36821 0.23346 0.0
O4 O 0.2706 0.34931 0.21585 0.0
C5 C 0.1902 0.35479 0.19998 0.0
O6 O 0.19707 0.36546 0.22041 0.0
O7 O 0.21498 0.36811 0.18609 0.0
O8 O 0.25975 0.45636 0.19922 0.0
O9 O 0.31273 0.42562 0.18109 0.0
C10 C 0.32451 0.40706 0.17305 0.0
O11 O 0.30509 0.37299 0.1735 0.0
O12 O 0.27329 0.39571 0.23179 0.0
Mg13 Mg 0.85855 0.25852 0.53414 0.0
C14 C 0.88456 0.33023 0.51985 0.0
O15 O 0.85848 0.32345 0.53307 0.0
C16 C 0.84558 0.186 0.5339 0.0
O17 O 0.84421 0.19175 0.55489 0.0
C18 C 0.91163 0.26938 0.56717 0.0
O19 O 0.92452 0.26508 0.54882 0.0
O20 O 0.88175 0.26715 0.56666 0.0
O21 O 0.89176 0.30626 0.51606 0.0
O22 O 0.80627 0.25175 0.53272 0.0
C23 C 0.79504 0.2491 0.51319 0.0
O24 O 0.81507 0.24996 0.49703 0.0
O25 O 0.85322 0.21073 0.52045 0.0
Mg26 Mg 0.60235 0.85113 0.86512 0.0
C27 C 0.5442 0.78666 0.84696 0.0
O28 O 0.56119 0.80408 0.82943 0.0
C29 C 0.64479 0.90366 0.8993 0.0
O30 O 0.66528 0.91598 0.88214 0.0
C31 C 0.65826 0.8333 0.86769 0.0
O32 O 0.64677 0.82958 0.8879 0.0
O33 O 0.64488 0.84388 0.85321 0.0
O34 O 0.55585 0.80001 0.8657 0.0
O35 O 0.58732 0.88272 0.84552 0.0
C36 C 0.6074 0.91354 0.83876 0.0
O37 O 0.6413 0.92763 0.8415 0.0
O38 O 0.61599 0.87523 0.89743 0.0
Mg39 Mg 0.75794 0.60406 0.19857 0.0
C40 C 0.77795 0.55252 0.18251 0.0
O41 O 0.79129 0.57635 0.16712 0.0
C42 C 0.76517 0.64039 0.24219 0.0
O43 O 0.79685 0.66098 0.23472 0.0
C44 C 0.82142 0.65924 0.17111 0.0
O45 O 0.80114 0.6456 0.15391 0.0
O46 O 0.80933 0.64778 0.1901 0.0
O47 O 0.76253 0.5573 0.19859 0.0
O48 O 0.71295 0.59426 0.17818 0.0
C49 C 0.69525 0.56491 0.16871 0.0
O50 O 0.70734 0.5432 0.16881 0.0
O51 O 0.74418 0.61396 0.23095 0.0
Mg52 Mg 0.16262 0.75331 0.5347 0.0
C53 C 0.09608 0.69345 0.5158 0.0
O54 O 0.08183 0.70622 0.52902 0.0
C55 C 0.18832 0.82901 0.53701 0.0
O56 O 0.19594 0.82206 0.55652 0.0
C57 C 0.11709 0.75372 0.5711 0.0
O58 O 0.11347 0.77377 0.55671 0.0
O59 O 0.13743 0.74195 0.56667 0.0
O60 O 0.12911 0.7096 0.51363 0.0
O61 O 0.21256 0.75481 0.53532 0.0
C62 C 0.21335 0.72666 0.53335 0.0
O63 O 0.1837 0.69699 0.53284 0.0
O64 O 0.1728 0.80418 0.52338 0.0
Mg65 Mg 0.40675 0.15352 0.86377 0.0
C66 C 0.46997 0.21436 0.84451 0.0
O67 O 0.45964 0.19182 0.82833 0.0
C68 C 0.3653 0.11986 0.90497 0.0
O69 O 0.34118 0.12223 0.89369 0.0
C70 C 0.36636 0.18004 0.83726 0.0
O71 O 0.39702 0.19776 0.82783 0.0
O72 O 0.36207 0.15763 0.85179 0.0
O73 O 0.45256 0.20565 0.86227 0.0
O74 O 0.42062 0.1192 0.84614 0.0
C75 C 0.45112 0.12509 0.85117 0.0
O76 O 0.46953 0.14982 0.8654 0.0
O77 O 0.39581 0.13252 0.89693 0.0
Mg78 Mg 0.60411 0.75354 0.46584 0.0
C79 C 0.61106 0.69357 0.48419 0.0
O80 O 0.63783 0.70636 0.47075 0.0
C81 C 0.65333 0.82978 0.46511 0.0
O82 O 0.63799 0.82423 0.44588 0.0
C83 C 0.64997 0.75543 0.42887 0.0
O84 O 0.67378 0.77601 0.44305 0.0
O85 O 0.61785 0.74286 0.43364 0.0
O86 O 0.59415 0.70962 0.48658 0.0
O87 O 0.55564 0.755 0.4657 0.0
C88 C 0.52673 0.72679 0.46774 0.0
O89 O 0.52677 0.69716 0.46798 0.0
O90 O 0.64483 0.80394 0.47777 0.0
Mg91 Mg 0.85344 0.59789 0.79937 0.0
C92 C 0.78043 0.5475 0.81364 0.0
O93 O 0.79014 0.57169 0.82873 0.0
C94 C 0.88279 0.63411 0.75579 0.0
O95 O 0.86957 0.65327 0.76251 0.0
C96 C 0.84576 0.65261 0.82723 0.0
O97 O 0.85203 0.63821 0.84417 0.0
O98 O 0.84635 0.64172 0.80806 0.0
O99 O 0.80169 0.55164 0.79834 0.0
O100 O 0.88693 0.58705 0.82061 0.0
C101 C 0.87415 0.55746 0.82989 0.0
O102 O 0.84027 0.53619 0.82887 0.0
O103 O 0.87862 0.60855 0.76747 0.0
Mg104 Mg 0.26331 0.85475 0.13228 0.0
C105 C 0.24904 0.78559 0.14804 0.0
O106 O 0.23333 0.79462 0.16273 0.0
C107 C 0.25419 0.88888 0.09127 0.0
O108 O 0.22569 0.883 0.1016 0.0
C109 C 0.19628 0.85692 0.14882 0.0
O110 O 0.21578 0.89089 0.15048 0.0
O111 O 0.20999 0.83904 0.14262 0.0
O112 O 0.26464 0.80626 0.13219 0.0
O113 O 0.30724 0.89231 0.15234 0.0
C114 C 0.32494 0.88256 0.16384 0.0
O115 O 0.31337 0.84911 0.16611 0.0
O116 O 0.27363 0.87837 0.09978 0.0
Mg117 Mg 0.41393 0.25857 0.47072 0.0
C118 C 0.46093 0.33021 0.48508 0.0
O119 O 0.4802 0.32284 0.47224 0.0
C120 C 0.35376 0.18643 0.47096 0.0
O121 O 0.36202 0.1915 0.45009 0.0
C122 C 0.3865 0.28575 0.43646 0.0
O123 O 0.38068 0.29775 0.45469 0.0
O124 O 0.40107 0.26721 0.43764 0.0
O125 O 0.4295 0.30665 0.4887 0.0
O126 O 0.45824 0.25012 0.47317 0.0
C127 C 0.47856 0.2516 0.45798 0.0
O128 O 0.473 0.25805 0.4378 0.0
O129 O 0.37025 0.21158 0.48425 0.0
Mg130 Mg 0.1522 0.40675 0.80669 0.0
C131 C 0.2172 0.46567 0.82275 0.0
O132 O 0.20124 0.44818 0.84048 0.0
C133 C 0.13479 0.38368 0.75818 0.0
O134 O 0.16592 0.38663 0.75778 0.0
C135 C 0.15282 0.33805 0.8109 0.0
O136 O 0.13099 0.32897 0.79431 0.0
O137 O 0.16352 0.36758 0.81987 0.0
O138 O 0.20247 0.4542 0.80429 0.0
O139 O 0.12101 0.42082 0.82726 0.0
C140 C 0.08792 0.40226 0.8282 0.0
O141 O 0.07246 0.37156 0.81872 0.0
O142 O 0.12405 0.39058 0.77574 0.0
Mg143 Mg 0.75515 0.15802 0.13295 0.0
C144 C 0.75675 0.22017 0.15059 0.0
O145 O 0.74893 0.1993 0.16754 0.0
C146 C 0.73207 0.10147 0.10006 0.0
O147 O 0.72216 0.08433 0.11864 0.0
C148 C 0.82893 0.17546 0.13431 0.0
O149 O 0.82348 0.17967 0.11364 0.0
O150 O 0.80328 0.1643 0.14754 0.0
O151 O 0.76156 0.2099 0.13214 0.0
O152 O 0.70558 0.12704 0.15006 0.0
C153 C 0.69511 0.10058 0.16242 0.0
O154 O 0.71658 0.08915 0.16748 0.0
O155 O 0.74786 0.13457 0.10055 0.0
C156 C 0.23612 0.73274 0.16986 0.0
C157 C 0.2501 0.75292 0.15086 0.0
C158 C 0.23771 0.70238 0.17307 0.0
C159 C 0.28502 0.65749 0.15481 0.0
H160 H 0.20732 0.57727 0.18217 0.0
C161 C 0.27516 0.52283 0.15823 0.0
C162 C 0.26424 0.50424 0.17803 0.0
C163 C 0.27369 0.5533 0.15524 0.0
C164 C 0.22937 0.59959 0.17473 0.0
H165 H 0.27638 0.75674 0.12017 0.0
H166 H 0.27856 0.70323 0.12554 0.0
H167 H 0.20363 0.62962 0.17558 0.0
H168 H 0.24317 0.50313 0.21026 0.0
H169 H 0.24045 0.55649 0.20499 0.0
H170 H 0.31052 0.62717 0.15372 0.0
C171 C 0.26691 0.71128 0.13818 0.0
C172 C 0.2273 0.62963 0.17095 0.0
C173 C 0.26547 0.74184 0.13502 0.0
C174 C 0.25177 0.51684 0.19482 0.0
C175 C 0.25005 0.54728 0.19176 0.0
C176 C 0.28699 0.62737 0.15848 0.0
C177 C 0.25314 0.69122 0.1573 0.0
C178 C 0.25512 0.659 0.16096 0.0
C179 C 0.26106 0.56586 0.17193 0.0
C180 C 0.2592 0.59809 0.16848 0.0
H181 H 0.22425 0.74059 0.18248 0.0
H182 H 0.22737 0.68798 0.18814 0.0
H183 H 0.3072 0.67978 0.14746 0.0
H184 H 0.2849 0.51388 0.14494 0.0
H185 H 0.28196 0.56677 0.1397 0.0
C186 C 0.75072 0.24619 0.48644 0.0
C187 C 0.76092 0.24653 0.50832 0.0
C188 C 0.71913 0.2447 0.48147 0.0
C189 C 0.65233 0.26208 0.50504 0.0
H190 H 0.5976 0.20857 0.45501 0.0
C191 C 0.51638 0.24405 0.48554 0.0
C192 C 0.5094 0.24813 0.46355 0.0
C193 C 0.54613 0.24228 0.49115 0.0
C194 C 0.61275 0.22387 0.46891 0.0
H195 H 0.74562 0.24516 0.54218 0.0
H196 H 0.68998 0.24201 0.5335 0.0
H197 H 0.65064 0.2076 0.46505 0.0
H198 H 0.52807 0.25295 0.4302 0.0
H199 H 0.58017 0.24981 0.44005 0.0
H200 H 0.61434 0.27825 0.5089 0.0
C201 C 0.70678 0.24342 0.52017 0.0
C202 C 0.64317 0.22334 0.47468 0.0
C203 C 0.73856 0.24503 0.52516 0.0
C204 C 0.53264 0.24979 0.44727 0.0
C205 C 0.5624 0.24783 0.45291 0.0
C206 C 0.62183 0.26248 0.49932 0.0
C207 C 0.69675 0.24336 0.49824 0.0
C208 C 0.66349 0.24264 0.49273 0.0
C209 C 0.56963 0.24438 0.47495 0.0
C210 C 0.60179 0.24352 0.48113 0.0
H211 H 0.76736 0.24748 0.47303 0.0
H212 H 0.71261 0.24532 0.46442 0.0
H213 H 0.6676 0.27771 0.5188 0.0
H214 H 0.49902 0.24257 0.49853 0.0
H215 H 0.55067 0.23911 0.50823 0.0
C216 C 0.49838 0.73947 0.82366 0.0
C217 C 0.51151 0.75277 0.84462 0.0
C218 C 0.46708 0.70806 0.82121 0.0
C219 C 0.38589 0.64842 0.85069 0.0
H220 H 0.37584 0.58333 0.80497 0.0
C221 C 0.26597 0.51077 0.84542 0.0
C222 C 0.25132 0.49823 0.82463 0.0
C223 C 0.29785 0.54161 0.84756 0.0
C224 C 0.37812 0.60142 0.81765 0.0
H225 H 0.50225 0.74319 0.87947 0.0
H226 H 0.44775 0.68805 0.87519 0.0
H227 H 0.43154 0.63702 0.80968 0.0
H228 H 0.25891 0.50824 0.78972 0.0
H229 H 0.31477 0.56238 0.79348 0.0
H230 H 0.33253 0.61278 0.85872 0.0
C231 C 0.46144 0.70223 0.86063 0.0
C232 C 0.41005 0.63219 0.82037 0.0
C233 C 0.49279 0.73373 0.86309 0.0
C234 C 0.26949 0.51718 0.80597 0.0
C235 C 0.30155 0.54809 0.80812 0.0
C236 C 0.35402 0.61764 0.84801 0.0
C237 C 0.44812 0.6891 0.83965 0.0
C238 C 0.41433 0.65607 0.83694 0.0
C239 C 0.31599 0.56072 0.82897 0.0
C240 C 0.34976 0.59374 0.83148 0.0
H241 H 0.51206 0.7535 0.80906 0.0
H242 H 0.45739 0.69901 0.80482 0.0
H243 H 0.38804 0.66651 0.86334 0.0
H244 H 0.25279 0.4968 0.86015 0.0
H245 H 0.30847 0.55031 0.86384 0.0
C246 C 0.79151 0.51289 0.16076 0.0
C247 C 0.7782 0.5194 0.17997 0.0
C248 C 0.79008 0.48099 0.15763 0.0
C249 C 0.74299 0.38953 0.17667 0.0
H250 H 0.81846 0.38457 0.14765 0.0
C251 C 0.75013 0.26339 0.17328 0.0
C252 C 0.75953 0.25468 0.15327 0.0
C253 C 0.75259 0.29576 0.17616 0.0
C254 C 0.79703 0.38553 0.15556 0.0
H255 H 0.75371 0.49773 0.21122 0.0
H256 H 0.75186 0.44227 0.20598 0.0
H257 H 0.82337 0.44115 0.15418 0.0
H258 H 0.77907 0.27331 0.12058 0.0
H259 H 0.7835 0.33018 0.12568 0.0
H260 H 0.71686 0.33392 0.17827 0.0
C261 C 0.76276 0.4616 0.1931 0.0
C262 C 0.79981 0.41795 0.15932 0.0
C263 C 0.76405 0.4935 0.19619 0.0
C264 C 0.7716 0.27922 0.13619 0.0
C265 C 0.77431 0.31183 0.13914 0.0
C266 C 0.74031 0.35717 0.17303 0.0
C267 C 0.77546 0.45481 0.17368 0.0
C268 C 0.77282 0.42037 0.16994 0.0
C269 C 0.76471 0.32037 0.15916 0.0
C270 C 0.76731 0.3548 0.16247 0.0
H271 H 0.80248 0.5322 0.14787 0.0
H272 H 0.79967 0.47657 0.14235 0.0
H273 H 0.72138 0.3903 0.18448 0.0
H274 H 0.74076 0.24515 0.18681 0.0
H275 H 0.74542 0.30171 0.19186 0.0
C276 C 0.46254 0.69621 0.47567 0.0
C277 C 0.49413 0.72744 0.47244 0.0
C278 C 0.43244 0.69669 0.48216 0.0
C279 C 0.39253 0.75289 0.48555 0.0
H280 H 0.33525 0.68705 0.53034 0.0
C281 C 0.2781 0.75926 0.52673 0.0
C282 C 0.24679 0.72744 0.52912 0.0
C283 C 0.30897 0.75989 0.52068 0.0
C284 C 0.35079 0.70541 0.5177 0.0
H285 H 0.51856 0.78374 0.4729 0.0
H286 H 0.4661 0.78456 0.48438 0.0
H287 H 0.38712 0.68678 0.51703 0.0
H288 H 0.22366 0.67131 0.52767 0.0
H289 H 0.27737 0.67243 0.5171 0.0
H290 H 0.35613 0.7715 0.48623 0.0
C291 C 0.46452 0.75967 0.48172 0.0
C292 C 0.38049 0.70521 0.51002 0.0
C293 C 0.49465 0.75919 0.4752 0.0
C294 C 0.2473 0.69628 0.52599 0.0
C295 C 0.27816 0.69691 0.52001 0.0
C296 C 0.36282 0.75312 0.49325 0.0
C297 C 0.43319 0.72841 0.48561 0.0
C298 C 0.40164 0.72883 0.49377 0.0
C299 C 0.30925 0.72872 0.51698 0.0
C300 C 0.34152 0.72928 0.50936 0.0
H301 H 0.46115 0.67128 0.47358 0.0
H302 H 0.40859 0.67214 0.48459 0.0
H303 H 0.40799 0.77117 0.47285 0.0
H304 H 0.27866 0.78375 0.52906 0.0
H305 H 0.3326 0.78481 0.51881 0.0
C306 C 0.51099 0.27511 0.85783 0.0
C307 C 0.50118 0.24923 0.84173 0.0
C308 C 0.54027 0.30812 0.85476 0.0
C309 C 0.59912 0.36653 0.81128 0.0
H310 H 0.66185 0.41372 0.85985 0.0
C311 C 0.73622 0.48786 0.80025 0.0
C312 C 0.74665 0.51467 0.81577 0.0
C313 C 0.70524 0.45617 0.80314 0.0
C314 C 0.64437 0.40105 0.84617 0.0
H315 H 0.51473 0.23762 0.80991 0.0
H316 H 0.56587 0.29466 0.80477 0.0
H317 H 0.6099 0.35715 0.86574 0.0
H318 H 0.73227 0.52942 0.84624 0.0
H319 H 0.67835 0.47432 0.85117 0.0
H320 H 0.63394 0.41029 0.79167 0.0
C321 C 0.55064 0.28985 0.81957 0.0
C322 C 0.61455 0.36864 0.84956 0.0
C323 C 0.52139 0.25699 0.8226 0.0
C324 C 0.72511 0.50931 0.834 0.0
C325 C 0.69428 0.47763 0.83692 0.0
C326 C 0.62903 0.39887 0.80788 0.0
C327 C 0.56041 0.3159 0.83555 0.0
C328 C 0.59162 0.35089 0.83214 0.0
C329 C 0.68414 0.45059 0.82164 0.0
C330 C 0.65204 0.41645 0.82527 0.0
H331 H 0.4959 0.26999 0.87272 0.0
H332 H 0.54683 0.32768 0.8673 0.0
H333 H 0.58172 0.35391 0.79757 0.0
H334 H 0.75223 0.49112 0.78605 0.0
H335 H 0.69826 0.43573 0.79116 0.0
C336 C 0.63907 0.51908 0.15214 0.0
C337 C 0.65872 0.55239 0.16147 0.0
C338 C 0.60313 0.5044 0.14872 0.0
C339 C 0.52985 0.52282 0.14633 0.0
H340 H 0.47566 0.42857 0.16845 0.0
C341 C 0.38345 0.46021 0.16833 0.0
C342 C 0.3616 0.42404 0.16594 0.0
C343 C 0.41927 0.47597 0.16409 0.0
C344 C 0.49021 0.45461 0.16177 0.0
H345 H 0.65619 0.59724 0.17322 0.0
H346 H 0.59334 0.57156 0.16722 0.0
H347 H 0.53898 0.45645 0.16725 0.0
H348 H 0.36017 0.37637 0.15609 0.0
H349 H 0.42256 0.40397 0.14819 0.0
H350 H 0.48098 0.52105 0.14104 0.0
C351 C 0.60583 0.55682 0.16253 0.0
C352 C 0.52666 0.47068 0.16112 0.0
C353 C 0.64189 0.57154 0.16601 0.0
C354 C 0.37624 0.40425 0.15825 0.0
C355 C 0.41211 0.42007 0.15388 0.0
C356 C 0.4933 0.50665 0.14684 0.0
C357 C 0.58586 0.52265 0.15447 0.0
C358 C 0.54698 0.5051 0.15363 0.0
C359 C 0.43426 0.45606 0.15719 0.0
C360 C 0.47298 0.47245 0.15484 0.0
H361 H 0.65118 0.50368 0.14825 0.0
H362 H 0.58865 0.47831 0.14207 0.0
H363 H 0.54471 0.54922 0.14023 0.0
H364 H 0.37315 0.47634 0.17422 0.0
H365 H 0.43539 0.50362 0.16709 0.0
C366 C 0.09081 0.64035 0.49746 0.0
C367 C 0.07473 0.65777 0.50688 0.0
C368 C 0.07117 0.60491 0.49233 0.0
C369 C 0.98044 0.53111 0.48558 0.0
H370 H 0.01866 0.47577 0.50919 0.0
C371 C 0.89433 0.38996 0.51333 0.0
C372 C 0.90612 0.36594 0.51111 0.0
C373 C 0.91555 0.42467 0.5073 0.0
C374 C 1.00783 0.49074 0.50205 0.0
H375 H 0.02509 0.65206 0.51704 0.0
H376 H 0.99096 0.59046 0.50812 0.0
H377 H 0.05476 0.53893 0.50817 0.0
H378 H 0.94903 0.3593 0.49999 0.0
H379 H 0.98637 0.42035 0.48937 0.0
H380 H 0.93313 0.48295 0.48012 0.0
C381 C 0.01869 0.60412 0.50462 0.0
C382 C 0.02855 0.52702 0.50148 0.0
C383 C 0.03832 0.63946 0.50985 0.0
C384 C 0.93923 0.3772 0.50192 0.0
C385 C 0.96066 0.41217 0.49596 0.0
C386 C 0.95976 0.49485 0.48611 0.0
C387 C 0.03502 0.58619 0.49635 0.0
C388 C 0.01477 0.54767 0.49382 0.0
C389 C 0.94922 0.43642 0.4989 0.0
C390 C 0.97286 0.47428 0.49496 0.0
H391 H 0.1188 0.65367 0.49491 0.0
H392 H 0.08445 0.59195 0.48572 0.0
H393 H 0.96925 0.54624 0.47922 0.0
H394 H 0.86891 0.38216 0.52027 0.0
H395 H 0.90602 0.44262 0.5101 0.0
C396 C 0.50262 0.12002 0.84041 0.0
C397 C 0.46617 0.10456 0.84207 0.0
C398 C 0.518 0.10021 0.83485 0.0
C399 C 0.50048 0.01344 0.81465 0.0
H400 H 0.58283 0.03639 0.84947 0.0
C401 C 0.55559 0.92041 0.82984 0.0
C402 C 0.59208 0.9351 0.83159 0.0
C403 C 0.54073 0.94155 0.82666 0.0
C404 C 0.56025 0.02994 0.8393 0.0
H405 H 0.41703 0.05655 0.83823 0.0
H406 H 0.44396 0.02133 0.82919 0.0
H407 H 0.55551 0.07194 0.8524 0.0
H408 H 0.64159 0.98338 0.8298 0.0
H409 H 0.61565 0.0202 0.82417 0.0
H410 H 0.50483 0.97043 0.80226 0.0
C411 C 0.4607 0.049 0.83177 0.0
C412 C 0.5445 0.05041 0.84095 0.0
C413 C 0.44522 0.06911 0.83699 0.0
C414 C 0.61341 0.97119 0.8287 0.0
C415 C 0.59853 0.99233 0.8256 0.0
C416 C 0.51618 0.99271 0.81312 0.0
C417 C 0.49739 0.06418 0.83127 0.0
C418 C 0.51439 0.04252 0.82867 0.0
C419 C 0.56201 0.97787 0.82522 0.0
C420 C 0.54623 1.00074 0.82548 0.0
H421 H 0.5194 0.14745 0.8439 0.0
H422 H 0.54623 0.11309 0.83393 0.0
H423 H 0.47753 0.00673 0.8048 0.0
H424 H 0.53836 0.89267 0.83187 0.0
H425 H 0.51252 0.92958 0.82653 0.0
C426 C 0.56398 0.64074 0.5032 0.0
C427 C 0.59716 0.65809 0.49333 0.0
C428 C 0.54855 0.60548 0.50872 0.0
C429 C 0.56634 0.53248 0.51606 0.0
H430 H 0.47211 0.47573 0.49366 0.0
C431 C 0.51105 0.39016 0.49082 0.0
C432 C 0.47526 0.36621 0.49334 0.0
C433 C 0.52462 0.4251 0.49629 0.0
C434 C 0.49811 0.4911 0.50047 0.0
H435 H 0.64096 0.65248 0.48273 0.0
H436 H 0.61414 0.59116 0.49236 0.0
H437 H 0.49887 0.53886 0.49372 0.0
H438 H 0.42583 0.35994 0.50443 0.0
H439 H 0.44968 0.42132 0.51413 0.0
H440 H 0.56596 0.48474 0.52221 0.0
C441 C 0.60002 0.60476 0.4959 0.0
C442 C 0.5135 0.52737 0.50048 0.0
C443 C 0.61536 0.63992 0.49026 0.0
C444 C 0.45352 0.37777 0.50229 0.0
C445 C 0.46714 0.41295 0.50771 0.0
C446 C 0.55092 0.49623 0.51611 0.0
C447 C 0.56607 0.58689 0.50466 0.0
C448 C 0.54814 0.5485 0.50771 0.0
C449 C 0.50279 0.43713 0.50442 0.0
C450 C 0.517 0.47513 0.50772 0.0
H451 H 0.54924 0.65396 0.50584 0.0
H452 H 0.52255 0.59256 0.5157 0.0
H453 H 0.59284 0.54802 0.52208 0.0
H454 H 0.52859 0.38215 0.48404 0.0
H455 H 0.55206 0.44297 0.49323 0.0
C456 C 0.93375 0.56424 0.83585 0.0
C457 C 0.89719 0.54426 0.8379 0.0
C458 C 0.95475 0.54935 0.83997 0.0
C459 C 0.949 0.4646 0.83653 0.0
H460 H 0.03859 0.5086 0.86627 0.0
C461 C 0.03073 0.3966 0.8395 0.0
C462 C 0.06687 0.4176 0.83624 0.0
C463 C 0.01004 0.4116 0.84401 0.0
C464 C 0.01377 0.49604 0.85772 0.0
H465 H 0.85436 0.49366 0.84739 0.0
H466 H 0.89089 0.46788 0.85443 0.0
H467 H 1.00306 0.53683 0.86622 0.0
H468 H 0.10987 0.47084 0.83606 0.0
H469 H 0.07385 0.49701 0.84312 0.0
H470 H 0.95995 0.42474 0.82705 0.0
C471 C 0.90327 0.49488 0.84939 0.0
C472 C 0.99339 0.51221 0.85779 0.0
C473 C 0.88237 0.50978 0.84544 0.0
C474 C 0.0821 0.45386 0.83857 0.0
C475 C 0.06136 0.4689 0.84273 0.0
C476 C 0.96947 0.4487 0.8362 0.0
C477 C 0.93955 0.51416 0.84608 0.0
C478 C 0.96082 0.49668 0.84713 0.0
C479 C 0.02489 0.44804 0.84498 0.0
C480 C 1.00226 0.46421 0.8467 0.0
H481 H 0.94604 0.59089 0.83011 0.0
H482 H 0.98265 0.56483 0.83724 0.0
H483 H 0.9243 0.45228 0.82781 0.0
H484 H 0.01824 0.36857 0.83803 0.0
H485 H 0.98223 0.39456 0.84624 0.0
C486 C 0.37747 0.94283 0.16402 0.0
C487 C 0.36108 0.90795 0.17097 0.0
C488 C 0.41328 0.96508 0.16766 0.0
C489 C 0.49373 0.96057 0.1755 0.0
H490 H 0.53617 0.05939 0.18713 0.0
C491 C 0.64383 0.04876 0.17982 0.0
C492 C 0.65764 0.08074 0.16874 0.0
C493 C 0.60784 0.02868 0.18376 0.0
C494 C 0.52475 0.03186 0.18375 0.0
H495 H 0.36909 0.86987 0.18852 0.0
H496 H 0.43119 0.9087 0.19507 0.0
H497 H 0.4726 0.02287 0.1876 0.0
H498 H 0.64441 0.1172 0.15385 0.0
H499 H 0.58202 0.08218 0.16042 0.0
H500 H 0.54563 0.96955 0.17106 0.0
C501 C 0.4166 0.91869 0.18639 0.0
C502 C 0.48829 0.01093 0.18404 0.0
C503 C 0.38088 0.89648 0.18275 0.0
C504 C 0.63476 0.09269 0.16241 0.0
C505 C 0.59887 0.07266 0.16633 0.0
C506 C 0.53013 0.98148 0.17516 0.0
C507 C 0.43349 0.95297 0.17834 0.0
C508 C 0.47229 0.97506 0.17968 0.0
C509 C 0.5848 0.04011 0.17673 0.0
C510 C 0.54616 0.01749 0.179 0.0
H511 H 0.36306 0.95254 0.15487 0.0
H512 H 0.42543 0.99126 0.16113 0.0
H513 H 0.48236 0.93318 0.17169 0.0
H514 H 0.66068 0.03881 0.185 0.0
H515 H 0.598 0.00399 0.19212 0.0
C516 C 0.28804 0.37678 0.27388 0.0
C517 C 0.28509 0.35842 0.25449 0.0
C518 C 0.29828 0.36798 0.29349 0.0
C519 C 0.34591 0.32552 0.31476 0.0
H520 H 0.29803 0.31984 0.36905 0.0
C521 C 0.37615 0.27687 0.39578 0.0
C522 C 0.3757 0.29366 0.41519 0.0
C523 C 0.36482 0.28399 0.37597 0.0
C524 C 0.31202 0.32174 0.3541 0.0
H525 H 0.29037 0.31622 0.24058 0.0
H526 H 0.30827 0.30104 0.27471 0.0
H527 H 0.2788 0.33417 0.33512 0.0
H528 H 0.36376 0.3317 0.42889 0.0
H529 H 0.34495 0.34464 0.3945 0.0
H530 H 0.37952 0.31366 0.33372 0.0
C531 C 0.30288 0.32235 0.27473 0.0
C532 C 0.30091 0.3299 0.33464 0.0
C533 C 0.29238 0.33094 0.25519 0.0
C534 C 0.36418 0.31803 0.41429 0.0
C535 C 0.35311 0.3253 0.39454 0.0
C536 C 0.35721 0.3176 0.33425 0.0
C537 C 0.30607 0.34083 0.29408 0.0
C538 C 0.31776 0.33195 0.31475 0.0
C539 C 0.35298 0.3082 0.37513 0.0
C540 C 0.3405 0.31574 0.35421 0.0
H541 H 0.28265 0.39809 0.27389 0.0
H542 H 0.30077 0.38288 0.3081 0.0
H543 H 0.35969 0.3273 0.29972 0.0
H544 H 0.38477 0.25788 0.39594 0.0
H545 H 0.36476 0.27006 0.3614 0.0
C546 C 0.9213 0.28682 0.60694 0.0
C547 C 0.93265 0.27838 0.58759 0.0
C548 C 0.94244 0.29715 0.62573 0.0
C549 C 0.03483 0.33417 0.64267 0.0
H550 H 0.99598 0.30337 0.70067 0.0
C551 C 0.12227 0.36213 0.7193 0.0
C552 C 0.11172 0.37151 0.73861 0.0
C553 C 0.10014 0.35026 0.70101 0.0
C554 C 1.00721 0.31252 0.68461 0.0
H555 H 0.97467 0.27324 0.57304 0.0
H556 H 0.01109 0.29076 0.6057 0.0
H557 H 0.95745 0.28331 0.66875 0.0
H558 H 0.06961 0.37587 0.75376 0.0
H559 H 0.03137 0.35563 0.72186 0.0
H560 H 0.08453 0.36345 0.65846 0.0
C561 C 0.98623 0.29007 0.60631 0.0
C562 C 0.9851 0.30101 0.66631 0.0
C563 C 0.96519 0.27979 0.58759 0.0
C564 C 0.07858 0.36879 0.73918 0.0
C565 C 0.0565 0.35694 0.72092 0.0
C566 C 0.05691 0.34568 0.66094 0.0
C567 C 0.97535 0.29928 0.62554 0.0
C568 C 0.99866 0.31163 0.64511 0.0
C569 C 0.06696 0.34748 0.70161 0.0
C570 C 0.04341 0.33499 0.68215 0.0
H571 H 0.8964 0.28605 0.60748 0.0
H572 H 0.93337 0.3043 0.64022 0.0
H573 H 0.04609 0.34338 0.62662 0.0
H574 H 0.14754 0.36377 0.71833 0.0
H575 H 0.10887 0.34279 0.6865 0.0
C576 C 0.6364 0.90875 0.93958 0.0
C577 C 0.65462 0.92365 0.92006 0.0
C578 C 0.64562 0.92814 0.95899 0.0
C579 C 0.68782 0.01786 0.97955 0.0
H580 H 0.69859 0.9781 0.03358 0.0
C581 C 0.73911 0.09906 0.05929 0.0
C582 C 0.72416 0.08208 0.07912 0.0
C583 C 0.73153 0.08014 0.0397 0.0
C584 C 0.69523 0.9895 0.01873 0.0
H585 H 0.6967 0.97065 0.90563 0.0
H586 H 0.71241 0.00446 0.93941 0.0
H587 H 0.68271 0.94388 -1e-05 0.0
H588 H 0.68904 0.03202 0.09386 0.0
H589 H 0.67512 0.99943 0.05988 0.0
H590 H 0.69952 0.06319 0.99827 0.0
C591 C 0.69106 0.97781 0.9397 0.0
C592 C 0.68621 0.96986 0.99947 0.0
C593 C 0.68217 0.95833 0.92038 0.0
C594 C 0.70129 0.04592 0.07891 0.0
C595 C 0.69347 0.02712 0.05938 0.0
C596 C 0.69646 0.03741 0.99887 0.0
C597 C 0.6729 0.96295 0.95921 0.0
C598 C 0.68239 0.98381 0.97968 0.0
C599 C 0.7086 0.04388 0.03951 0.0
C600 C 0.70021 0.02347 0.01875 0.0
H601 H 0.61507 0.8821 0.93986 0.0
H602 H 0.63102 0.9161 0.97377 0.0
H603 H 0.68471 0.02917 0.96457 0.0
H604 H 0.75695 0.12688 0.05892 0.0
H605 H 0.74404 0.09391 0.02478 0.0
C606 C 0.69608 0.76055 0.4029 0.0
C607 C 0.66061 0.74463 0.40868 0.0
C608 C 0.70668 0.74886 0.38481 0.0
C609 C 0.67434 0.69626 0.33395 0.0
H610 H 0.75971 0.69204 0.3396 0.0
C611 C 0.71775 0.63108 0.26863 0.0
C612 C 0.75311 0.64967 0.26242 0.0
C613 C 0.70597 0.6415 0.2868 0.0
C614 C 0.73596 0.69331 0.3377 0.0
H615 H 0.60833 0.70426 0.39973 0.0
H616 H 0.62687 0.68348 0.36834 0.0
H617 H 0.73988 0.71301 0.37016 0.0
H618 H 0.80395 0.69331 0.2708 0.0
H619 H 0.78341 0.71136 0.30249 0.0
H620 H 0.67042 0.6763 0.30148 0.0
C621 C 0.6465 0.70536 0.37761 0.0
C622 C 0.72461 0.70544 0.3552 0.0
C623 C 0.63586 0.7172 0.39566 0.0
C624 C 0.77655 0.67838 0.27512 0.0
C625 C 0.76481 0.68866 0.29335 0.0
C626 C 0.68563 0.68396 0.31647 0.0
C627 C 0.68211 0.72077 0.37212 0.0
C628 C 0.69378 0.70731 0.35351 0.0
C629 C 0.72932 0.67059 0.29927 0.0
C630 C 0.71668 0.68254 0.3181 0.0
H631 H 0.71582 0.78192 0.41247 0.0
H632 H 0.73423 0.76186 0.38081 0.0
H633 H 0.65073 0.69775 0.33195 0.0
H634 H 0.69898 0.60883 0.25922 0.0
H635 H 0.67855 0.62678 0.2911 0.0
C636 C 0.07464 0.75751 0.59643 0.0
C637 C 0.09528 0.74258 0.59112 0.0
C638 C 0.05203 0.74545 0.61436 0.0
C639 C 0.03254 0.69412 0.66567 0.0
H640 H 0.94129 0.68581 0.65869 0.0
C641 C 0.92313 0.62669 0.73026 0.0
C642 C 0.90482 0.644 0.73585 0.0
C643 C 0.94581 0.63765 0.71232 0.0
C644 C 0.96676 0.68823 0.66096 0.0
H645 H 0.1088 0.70365 0.60078 0.0
H646 H 0.06895 0.68225 0.63192 0.0
H647 H 0.98269 0.70754 0.62844 0.0
H648 H 0.89546 0.68595 0.72662 0.0
H649 H 0.93492 0.70496 0.69534 0.0
H650 H 0.01638 0.67458 0.6982 0.0
C651 C 0.07057 0.70361 0.62238 0.0
C652 C 0.99057 0.70079 0.64364 0.0
C653 C 0.09336 0.71581 0.60447 0.0
C654 C 0.9091 0.672 0.72278 0.0
C655 C 0.93163 0.68282 0.70478 0.0
C656 C 0.00864 0.68142 0.68297 0.0
C657 C 0.0493 0.71801 0.62738 0.0
C658 C 0.02386 0.70412 0.6458 0.0
C659 C 0.95053 0.66601 0.69947 0.0
C660 C 0.97554 0.6785 0.68086 0.0
H661 H 0.07566 0.77835 0.5866 0.0
H662 H 0.03662 0.75766 0.61799 0.0
H663 H 0.05807 0.69674 0.66802 0.0
H664 H 0.92042 0.60501 0.73996 0.0
H665 H 0.95964 0.62387 0.70849 0.0
C666 C 0.24358 0.92205 0.06183 0.0
C667 C 0.26513 0.91038 0.07108 0.0
C668 C 0.2548 0.94436 0.04374 0.0
C669 C 0.33473 0.00866 0.01525 0.0
H670 H 0.27065 0.99648 0.96805 0.0
C671 C 0.37904 0.09003 0.93523 0.0
C672 C 0.35588 0.09926 0.92551 0.0
C673 C 0.3687 0.06774 0.95337 0.0
C674 C 0.28879 1.00059 0.98123 0.0
H675 H 0.31517 0.91256 0.06824 0.0
H676 H 0.33464 0.95137 0.03655 0.0
H677 H 0.25092 0.95512 0.99827 0.0
H678 H 0.3042 0.09345 0.92783 0.0
H679 H 0.28651 0.05534 0.95968 0.0
H680 H 0.37253 0.05432 0.9983 0.0
C681 C 0.3092 0.94352 0.04348 0.0
C682 C 0.27747 0.97677 0.99854 0.0
C683 C 0.29791 0.92105 0.06154 0.0
C684 C 0.32261 0.08666 0.9348 0.0
C685 C 0.31235 0.06455 0.95298 0.0
C686 C 0.34603 0.0326 0.99797 0.0
C687 C 0.28788 0.95567 0.03448 0.0
C688 C 0.30026 0.98055 0.01579 0.0
C689 C 0.33502 0.05429 0.96227 0.0
C690 C 0.32316 0.02894 0.98076 0.0
H691 H 0.21821 0.91443 0.06878 0.0
H692 H 0.23787 0.95349 0.03736 0.0
H693 H 0.3528 0.01261 0.02844 0.0
H694 H 0.40482 0.09915 0.92844 0.0
H695 H 0.38676 0.06019 0.95996 0.0
C696 C 0.89235 0.19806 0.12666 0.0
C697 C 0.86505 0.18682 0.14197 0.0
C698 C 0.92699 0.21183 0.13354 0.0
C699 C 0.98435 0.25528 0.18094 0.0
H700 H 0.05096 0.24 0.14848 0.0
C701 C 0.12737 0.31496 0.20943 0.0
C702 C 0.15353 0.33018 0.19335 0.0
C703 C 0.09226 0.29429 0.20354 0.0
C704 C 0.03276 0.24477 0.15762 0.0
H705 H 0.85282 0.18025 0.17661 0.0
H706 H 0.91343 0.20406 0.18869 0.0
H707 H 0.98931 0.20882 0.13804 0.0
H708 H 0.16323 0.33458 0.15839 0.0
H709 H 0.10172 0.2986 0.14804 0.0
H710 H 0.02773 0.29152 0.20034 0.0
C711 C 0.90798 0.20261 0.1713 0.0
C712 C 0.99737 0.22685 0.15166 0.0
C713 C 0.87319 0.18871 0.16439 0.0
C714 C 0.14377 0.32322 0.17119 0.0
C715 C 0.10849 0.30249 0.16527 0.0
C716 C 0.01968 0.27316 0.1869 0.0
C717 C 0.93539 0.21479 0.15595 0.0
C718 C 0.97271 0.23206 0.16314 0.0
C719 C 0.08222 0.28825 0.18139 0.0
C720 C 0.04443 0.26832 0.17526 0.0
H721 H 0.88712 0.197 0.10924 0.0
H722 H 0.94733 0.22128 0.12124 0.0
H723 H 0.96632 0.26049 0.18992 0.0
H724 H 0.1339 0.31947 0.22668 0.0
H725 H 0.0729 0.2832 0.21641 0.0
C726 C 0.82834 0.12399 0.54136 0.0
C727 C 0.8341 0.15018 0.52618 0.0
C728 C 0.8136 0.08933 0.53472 0.0
C729 C 0.79163 0.03178 0.48592 0.0
H730 H 0.7197 0.96406 0.52411 0.0
C731 C 0.68903 0.89361 0.45734 0.0
C732 C 0.67881 0.86577 0.47206 0.0
C733 C 0.7115 0.92786 0.46402 0.0
C734 C 0.74008 0.98249 0.5134 0.0
H735 H 0.83008 0.16064 0.4919 0.0
H736 H 0.80384 0.10001 0.48032 0.0
H737 H 0.75284 0.02469 0.53537 0.0
H738 H 0.68493 0.8521 0.50525 0.0
H739 H 0.72429 0.91201 0.51693 0.0
H740 H 0.77814 0.98948 0.46373 0.0
C741 C 0.81112 0.10631 0.49736 0.0
C742 C 0.75915 0.01734 0.51986 0.0
C743 C 0.82608 0.1411 0.504 0.0
C744 C 0.69221 0.87294 0.49352 0.0
C745 C 0.71461 0.90729 0.50024 0.0
C746 C 0.77244 0.99689 0.47942 0.0
C747 C 0.80401 0.07989 0.51273 0.0
C748 C 0.78502 0.04251 0.50615 0.0
C749 C 0.72426 0.93518 0.48562 0.0
C750 C 0.74624 0.97187 0.49302 0.0
H751 H 0.83453 0.13012 0.55854 0.0
H752 H 0.80924 0.06982 0.54692 0.0
H753 H 0.81167 0.05033 0.47509 0.0
H754 H 0.67925 0.88906 0.44068 0.0
H755 H 0.71805 0.94871 0.45241 0.0
C756 C 0.82561 0.69238 0.81215 0.0
C757 C 0.834 0.67842 0.83036 0.0
C758 C 0.81136 0.7141 0.81497 0.0
C759 C 0.79784 0.76834 0.85582 0.0
H760 H 0.71813 0.74898 0.81928 0.0
C761 C 0.69945 0.8126 0.87865 0.0
C762 C 0.68416 0.82253 0.86197 0.0
C763 C 0.72161 0.79958 0.8736 0.0
C764 C 0.74072 0.75522 0.82938 0.0
H765 H 0.83501 0.67739 0.86586 0.0
H766 H 0.80997 0.7151 0.8708 0.0
H767 H 0.74983 0.71792 0.81287 0.0
H768 H 0.68114 0.82755 0.82682 0.0
H769 H 0.72017 0.80495 0.81793 0.0
H770 H 0.78832 0.80521 0.87258 0.0
C771 C 0.81467 0.70947 0.8543 0.0
C772 C 0.75892 0.73734 0.82572 0.0
C773 C 0.82891 0.68769 0.85147 0.0
C774 C 0.69243 0.82008 0.84006 0.0
C775 C 0.71461 0.80691 0.83497 0.0
C776 C 0.77967 0.78624 0.85947 0.0
C777 C 0.80517 0.72248 0.83608 0.0
C778 C 0.78742 0.74332 0.83908 0.0
C779 C 0.72913 0.79609 0.8517 0.0
C780 C 0.75053 0.77953 0.84651 0.0
H781 H 0.82936 0.68598 0.79562 0.0
H782 H 0.80491 0.7241 0.80058 0.0
H783 H 0.82002 0.77402 0.86618 0.0
H784 H 0.69372 0.81415 0.89573 0.0
H785 H 0.73189 0.79111 0.8869 0.0
C786 C 0.88115 0.69813 0.18692 0.0
C787 C 0.85917 0.68506 0.16846 0.0
C788 C 0.91723 0.71996 0.1845 0.0
C789 C 0.988 0.74177 0.14467 0.0
H790 H 0.04327 0.81676 0.18526 0.0
C791 C 0.13739 0.80294 0.15014 0.0
C792 C 0.15785 0.83929 0.15233 0.0
C793 C 0.10104 0.78616 0.15209 0.0
C794 C 0.02822 0.79611 0.17366 0.0
H795 H 0.85797 0.6859 0.13296 0.0
H796 H 0.92085 0.72431 0.12874 0.0
H797 H 0.97958 0.78539 0.18802 0.0
H798 H 0.15591 0.8864 0.15875 0.0
H799 H 0.09225 0.85703 0.16211 0.0
H800 H 0.03649 0.75255 0.1302 0.0
C801 C 0.91021 0.71718 0.14511 0.0
C802 C 0.99169 0.77788 0.17538 0.0
C803 C 0.87408 0.69533 0.14753 0.0
C804 C 0.141 0.85837 0.15699 0.0
C805 C 0.10449 0.84151 0.15898 0.0
C806 C 0.02445 0.75991 0.14299 0.0
C807 C 0.93234 0.72935 0.16356 0.0
C808 C 0.9711 0.75026 0.16102 0.0
C809 C 0.08403 0.80521 0.15629 0.0
C810 C 0.04509 0.78707 0.1576 0.0
H811 H 0.87063 0.69079 0.20331 0.0
H812 H 0.9334 0.72848 0.19907 0.0
H813 H 0.97312 0.72045 0.13347 0.0
H814 H 0.1494 0.7873 0.14668 0.0
H815 H 0.08624 0.75812 0.15036 0.0
C816 C 0.21307 0.89165 0.54705 0.0
C817 C 0.19916 0.86544 0.531 0.0
C818 C 0.22542 0.92641 0.54145 0.0
C819 C 0.22418 0.98411 0.49759 0.0
H820 H 0.31129 0.05216 0.52472 0.0
C821 C 0.31116 0.12349 0.46397 0.0
C822 C 0.32917 0.15083 0.47898 0.0
C823 C 0.29132 0.08912 0.47122 0.0
C824 C 0.28665 0.03363 0.51725 0.0
H825 H 0.18652 0.85515 0.49648 0.0
H826 H 0.20868 0.91603 0.48658 0.0
H827 H 0.28458 0.99133 0.53532 0.0
H828 H 0.33907 0.16358 0.5135 0.0
H829 H 0.30422 0.10353 0.52619 0.0
H830 H 0.22686 0.02657 0.47914 0.0
C831 C 0.20961 0.90962 0.5036 0.0
C832 C 0.27129 0.99866 0.52332 0.0
C833 C 0.19705 0.87471 0.50925 0.0
C834 C 0.32563 0.14315 0.5015 0.0
C835 C 0.30586 0.1087 0.50876 0.0
C836 C 0.23964 0.01915 0.49146 0.0
C837 C 0.2244 0.93597 0.5196 0.0
C838 C 0.23995 0.97338 0.5135 0.0
C839 C 0.28906 0.0812 0.49367 0.0
C840 C 0.27119 0.04431 0.50112 0.0
H841 H 0.21477 0.88541 0.56401 0.0
H842 H 0.23594 0.94586 0.55428 0.0
H843 H 0.19979 0.96546 0.48992 0.0
H844 H 0.31323 0.12845 0.44651 0.0
H845 H 0.27897 0.0686 0.45915 0.0
C846 C 0.196 0.32866 0.83243 0.0
C847 C 0.16877 0.31653 0.81695 0.0
C848 C 0.21413 0.31069 0.83605 0.0
C849 C 0.21195 0.22673 0.82722 0.0
H850 H 0.31286 0.28483 0.8283 0.0
C851 C 0.30828 0.1754 0.84569 0.0
C852 C 0.33921 0.18991 0.83327 0.0
C853 C 0.28499 0.18813 0.84368 0.0
C854 C 0.28472 0.26818 0.82791 0.0
H855 H 0.13814 0.27495 0.79395 0.0
H856 H 0.1698 0.24365 0.80029 0.0
H857 H 0.27655 0.31177 0.82605 0.0
H858 H 0.36889 0.228 0.80818 0.0
H859 H 0.32836 0.24988 0.80463 0.0
H860 H 0.2204 0.18307 0.82877 0.0
C861 C 0.17708 0.26703 0.80966 0.0
C862 C 0.26387 0.28367 0.82691 0.0
C863 C 0.15901 0.28508 0.80597 0.0
C864 C 0.34551 0.21635 0.81814 0.0
C865 C 0.32236 0.2291 0.8162 0.0
C866 C 0.23289 0.21119 0.82838 0.0
C867 C 0.20542 0.28008 0.82436 0.0
C868 C 0.22723 0.26318 0.82643 0.0
C869 C 0.29223 0.21572 0.82928 0.0
C870 C 0.26955 0.23177 0.82852 0.0
H871 H 0.20414 0.35268 0.84127 0.0
H872 H 0.23544 0.32113 0.84777 0.0
H873 H 0.1838 0.21022 0.827 0.0
H874 H 0.30262 0.15502 0.85751 0.0
H875 H 0.26205 0.17731 0.85403 0.0
loop_
_geom_bond_atom_site_label_1
_geom_bond_atom_site_label_2
_geom_bond_distance
_geom_bond_site_symmetry_2
_ccdc_geom_bond_type
Mg0 O7 2.141 . S
Mg0 O8 2.048 . S
Mg0 O9 2.048 . S
Mg0 O12 2.141 . S
C1 O2 1.313 . S
C1 O8 1.195 . S
O2 C1 1.313 . S
C3 O4 1.245 . S
C3 O12 1.289 . S
O4 C3 1.245 . S
C5 O6 1.245 . S
C5 O7 1.289 . S
O6 C5 1.245 . S
O7 Mg0 2.141 . S
O7 C5 1.289 . S
O8 Mg0 2.048 . S
O8 C1 1.195 . S
O9 Mg0 2.048 . S
O9 C10 1.195 . S
C10 O9 1.195 . S
C10 O11 1.313 . S
O11 C10 1.313 . S
O12 Mg0 2.141 . S
O12 C3 1.289 . S
Mg13 O20 2.141 . S
Mg13 O21 2.048 . S
Mg13 O22 2.048 . S
Mg13 O25 2.141 . S
C14 O15 1.313 . S
C14 O21 1.195 . S
O15 C14 1.313 . S
C16 O17 1.245 . S
C16 O25 1.289 . S
O17 C16 1.245 . S
C18 O19 1.245 . S
C18 O20 1.289 . S
O19 C18 1.245 . S
O20 Mg13 2.141 . S
O20 C18 1.289 . S
O21 Mg13 2.048 . S
O21 C14 1.195 . S
O22 Mg13 2.048 . S
O22 C23 1.195 . S
C23 O22 1.195 . S
C23 O24 1.313 . S
O24 C23 1.313 . S
O25 Mg13 2.141 . S
O25 C16 1.289 . S
Mg26 O33 2.141 . S
Mg26 O34 2.048 . S
Mg26 O35 2.048 . S
Mg26 O38 2.141 . S
C27 O28 1.313 . S
C27 O34 1.195 . S
O28 C27 1.313 . S
C29 O30 1.245 . S
C29 O38 1.289 . S
O30 C29 1.245 . S
C31 O32 1.245 . S
C31 O33 1.289 . S
O32 C31 1.245 . S
O33 Mg26 2.141 . S
O33 C31 1.289 . S
O34 Mg26 2.048 . S
O34 C27 1.195 . S
O35 Mg26 2.048 . S
O35 C36 1.195 . S
C36 O35 1.195 . S
C36 O37 1.313 . S
O37 C36 1.313 . S
O38 Mg26 2.141 . S
O38 C29 1.289 . S
Mg39 O46 2.141 . S
Mg39 O47 2.048 . S
Mg39 O48 2.048 . S
Mg39 O51 2.141 . S
C40 O41 1.313 . S
C40 O47 1.195 . S
O41 C40 1.313 . S
C42 O43 1.245 . S
C42 O51 1.289 . S
O43 C42 1.245 . S
C44 O45 1.245 . S
C44 O46 1.289 . S
O45 C44 1.245 . S
O46 Mg39 2.141 . S
O46 C44 1.289 . S
O47 Mg39 2.048 . S
O47 C40 1.195 . S
O48 Mg39 2.048 . S
O48 C49 1.195 . S
C49 O48 1.195 . S
C49 O50 1.313 . S
O50 C49 1.313 . S
O51 Mg39 2.141 . S
O51 C42 1.289 . S
Mg52 O59 2.141 . S
Mg52 O60 2.048 . S
Mg52 O61 2.048 . S
Mg52 O64 2.141 . S
C53 O54 1.313 . S
C53 O60 1.195 . S
O54 C53 1.313 . S
C55 O56 1.245 . S
C55 O64 1.289 . S
O56 C55 1.245 . S
C57 O58 1.245 . S
C57 O59 1.289 . S
O58 C57 1.245 . S
O59 Mg52 2.141 . S
O59 C57 1.289 . S
O60 Mg52 2.048 . S
O60 C53 1.195 . S
O61 Mg52 2.048 . S
O61 C62 1.195 . S
C62 O61 1.195 . S
C62 O63 1.313 . S
O63 C62 1.313 . S
O64 Mg52 2.141 . S
O64 C55 1.289 . S
Mg65 O72 2.141 . S
Mg65 O73 2.048 . S
Mg65 O74 2.048 . S
Mg65 O77 2.141 . S
C66 O67 1.313 . S
C66 O73 1.195 . S
O67 C66 1.313 . S
C68 O69 1.245 . S
C68 O77 1.289 . S
O69 C68 1.245 . S
C70 O71 1.245 . S
C70 O72 1.289 . S
O71 C70 1.245 . S
O72 Mg65 2.141 . S
O72 C70 1.289 . S
O73 Mg65 2.048 . S
O73 C66 1.195 . S
O74 Mg65 2.048 . S
O74 C75 1.195 . S
C75 O74 1.195 . S
C75 O76 1.313 . S
O76 C75 1.313 . S
O77 Mg65 2.141 . S
O77 C68 1.289 . S
Mg78 O85 2.141 . S
Mg78 O86 2.048 . S
Mg78 O87 2.048 . S
Mg78 O90 2.141 . S
C79 O80 1.313 . S
C79 O86 1.195 . S
O80 C79 1.313 . S
C81 O82 1.245 . S
C81 O90 1.289 . S
O82 C81 1.245 . S
C83 O84 1.245 . S
C83 O85 1.289 . S
O84 C83 1.245 . S
O85 Mg78 2.141 . S
O85 C83 1.289 . S
O86 Mg78 2.048 . S
O86 C79 1.195 . S
O87 Mg78 2.048 . S
O87 C88 1.195 . S
C88 O87 1.195 . S
C88 O89 1.313 . S
O89 C88 1.313 . S
O90 Mg78 2.141 . S
O90 C81 1.289 . S
Mg91 O98 2.141 . S
Mg91 O99 2.048 . S
Mg91 O100 2.048 . S
Mg91 O103 2.141 . S
C92 O93 1.313 . S
C92 O99 1.195 . S
O93 C92 1.313 . S
C94 O95 1.245 . S
C94 O103 1.289 . S
O95 C94 1.245 . S
C96 O97 1.245 . S
C96 O98 1.289 . S
O97 C96 1.245 . S
O98 Mg91 2.141 . S
O98 C96 1.289 . S
O99 Mg91 2.048 . S
O99 C92 1.195 . S
O100 Mg91 2.048 . S
O100 C101 1.195 . S
C101 O100 1.195 . S
C101 O102 1.313 . S
O102 C101 1.313 . S
O103 Mg91 2.141 . S
O103 C94 1.289 . S
Mg104 O111 2.141 . S
Mg104 O112 2.048 . S
Mg104 O113 2.048 . S
Mg104 O116 2.141 . S
C105 O106 1.313 . S
C105 O112 1.195 . S
O106 C105 1.313 . S
C107 O108 1.245 . S
C107 O116 1.289 . S
O108 C107 1.245 . S
C109 O110 1.245 . S
C109 O111 1.289 . S
O110 C109 1.245 . S
O111 Mg104 2.141 . S
O111 C109 1.289 . S
O112 Mg104 2.048 . S
O112 C105 1.195 . S
O113 Mg104 2.048 . S
O113 C114 1.195 . S
C114 O113 1.195 . S
C114 O115 1.313 . S
O115 C114 1.313 . S
O116 Mg104 2.141 . S
O116 C107 1.289 . S
Mg117 O124 2.141 . S
Mg117 O125 2.048 . S
Mg117 O126 2.048 . S
Mg117 O129 2.141 . S
C118 O119 1.313 . S
C118 O125 1.195 . S
O119 C118 1.313 . S
C120 O121 1.245 . S
C120 O129 1.289 . S
O121 C120 1.245 . S
C122 O123 1.245 . S
C122 O124 1.289 . S
O123 C122 1.245 . S
O124 Mg117 2.141 . S
O124 C122 1.289 . S
O125 Mg117 2.048 . S
O125 C118 1.195 . S
O126 Mg117 2.048 . S
O126 C127 1.195 . S
C127 O126 1.195 . S
C127 O128 1.313 . S
O128 C127 1.313 . S
O129 Mg117 2.141 . S
O129 C120 1.289 . S
Mg130 O137 2.141 . S
Mg130 O138 2.048 . S
Mg130 O139 2.048 . S
Mg130 O142 2.141 . S
C131 O132 1.313 . S
C131 O138 1.195 . S
O132 C131 1.313 . S
C133 O134 1.245 . S
C133 O142 1.289 . S
O134 C133 1.245 . S
C135 O136 1.245 . S
C135 O137 1.289 . S
O136 C135 1.245 . S
O137 Mg130 2.141 . S
O137 C135 1.289 . S
O138 Mg130 2.048 . S
O138 C131 1.195 . S
O139 Mg130 2.048 . S
O139 C140 1.195 . S
C140 O139 1.195 . S
C140 O141 1.313 . S
O141 C140 1.313 . S
O142 Mg130 2.141 . S
O142 C133 1.289 . S
Mg143 O150 2.141 . S
Mg143 O151 2.048 . S
Mg143 O152 2.048 . S
Mg143 O155 2.141 . S
C144 O145 1.313 . S
C144 O151 1.195 . S
O145 C144 1.313 . S
C146 O147 1.245 . S
C146 O155 1.289 . S
O147 C146 1.245 . S
C148 O149 1.245 . S
C148 O150 1.289 . S
O149 C148 1.245 . S
O150 Mg143 2.141 . S
O150 C148 1.289 . S
O151 Mg143 2.048 . S
O151 C144 1.195 . S
O152 Mg143 2.048 . S
O152 C153 1.195 . S
C153 O152 1.195 . S
C153 O154 1.313 . S
O154 C153 1.313 . S
O155 Mg143 2.141 . S
O155 C146 1.289 . S
C156 C157 1.349 . S
C156 C158 1.327 . S
C156 H181 0.950 . S
C157 C156 1.349 . S
C157 C173 1.349 . S
C158 C156 1.327 . S
C158 C177 1.429 . S
C158 H182 0.950 . S
C159 C176 1.574 . S
C159 C178 1.368 . S
C159 H183 0.949 . S
H160 C164 0.949 . S
C161 C162 1.349 . S
C161 C163 1.327 . S
C161 H184 0.950 . S
C162 C161 1.349 . S
C162 C174 1.349 . S
C163 C161 1.327 . S
C163 C179 1.429 . S
C163 H185 0.950 . S
C164 H160 0.949 . S
C164 C172 1.574 . S
C164 C180 1.368 . S
H165 C173 0.950 . S
H166 C171 0.950 . S
H167 C172 0.949 . S
H168 C174 0.950 . S
H169 C175 0.950 . S
H170 C176 0.949 . S
C171 H166 0.950 . S
C171 C173 1.327 . S
C171 C177 1.429 . S
C172 C164 1.574 . S
C172 H167 0.949 . S
C172 C178 1.368 . S
C173 C157 1.349 . S
C173 H165 0.950 . S
C173 C171 1.327 . S
C174 C162 1.349 . S
C174 H168 0.950 . S
C174 C175 1.327 . S
C175 H169 0.950 . S
C175 C174 1.327 . S
C175 C179 1.429 . S
C176 C159 1.574 . S
C176 H170 0.949 . S
C176 C180 1.368 . S
C177 C158 1.429 . S
C177 C171 1.429 . S
C177 C178 1.523 . S
C178 C159 1.368 . S
C178 C172 1.368 . S
C178 C177 1.523 . S
C179 C163 1.429 . S
C179 C175 1.429 . S
C179 C180 1.523 . S
C180 C164 1.368 . S
C180 C176 1.368 . S
C180 C179 1.523 . S
H181 C156 0.950 . S
H182 C158 0.950 . S
H183 C159 0.949 . S
H184 C161 0.950 . S
H185 C163 0.950 . S
C186 C187 1.349 . S
C186 C188 1.327 . S
C186 H211 0.950 . S
C187 C186 1.349 . S
C187 C203 1.349 . S
C188 C186 1.327 . S
C188 C207 1.429 . S
C188 H212 0.950 . S
C189 C206 1.574 . S
C189 C208 1.368 . S
C189 H213 0.949 . S
H190 C194 0.949 . S
C191 C192 1.349 . S
C191 C193 1.327 . S
C191 H214 0.950 . S
C192 C191 1.349 . S
C192 C204 1.349 . S
C193 C191 1.327 . S
C193 C209 1.429 . S
C193 H215 0.950 . S
C194 H190 0.949 . S
C194 C202 1.574 . S
C194 C210 1.368 . S
H195 C203 0.950 . S
H196 C201 0.950 . S
H197 C202 0.949 . S
H198 C204 0.950 . S
H199 C205 0.950 . S
H200 C206 0.949 . S
C201 H196 0.950 . S
C201 C203 1.327 . S
C201 C207 1.429 . S
C202 C194 1.574 . S
C202 H197 0.949 . S
C202 C208 1.368 . S
C203 C187 1.349 . S
C203 H195 0.950 . S
C203 C201 1.327 . S
C204 C192 1.349 . S
C204 H198 0.950 . S
C204 C205 1.327 . S
C205 H199 0.950 . S
C205 C204 1.327 . S
C205 C209 1.429 . S
C206 C189 1.574 . S
C206 H200 0.949 . S
C206 C210 1.368 . S
C207 C188 1.429 . S
C207 C201 1.429 . S
C207 C208 1.523 . S
C208 C189 1.368 . S
C208 C202 1.368 . S
C208 C207 1.523 . S
C209 C193 1.429 . S
C209 C205 1.429 . S
C209 C210 1.523 . S
C210 C194 1.368 . S
C210 C206 1.368 . S
C210 C209 1.523 . S
H211 C186 0.950 . S
H212 C188 0.950 . S
H213 C189 0.949 . S
H214 C191 0.950 . S
H215 C193 0.950 . S
C216 C217 1.349 . S
C216 C218 1.327 . S
C216 H241 0.950 . S
C217 C216 1.349 . S
C217 C233 1.349 . S
C218 C216 1.327 . S
C218 C237 1.429 . S
C218 H242 0.950 . S
C219 C236 1.574 . S
C219 C238 1.368 . S
C219 H243 0.949 . S
H220 C224 0.949 . S
C221 C222 1.349 . S
C221 C223 1.327 . S
C221 H244 0.950 . S
C222 C221 1.349 . S
C222 C234 1.349 . S
C223 C221 1.327 . S
C223 C239 1.429 . S
C223 H245 0.950 . S
C224 H220 0.949 . S
C224 C232 1.574 . S
C224 C240 1.368 . S
H225 C233 0.950 . S
H226 C231 0.950 . S
H227 C232 0.949 . S
H228 C234 0.950 . S
H229 C235 0.950 . S
H230 C236 0.949 . S
C231 H226 0.950 . S
C231 C233 1.327 . S
C231 C237 1.429 . S
C232 C224 1.574 . S
C232 H227 0.949 . S
C232 C238 1.368 . S
C233 C217 1.349 . S
C233 H225 0.950 . S
C233 C231 1.327 . S
C234 C222 1.349 . S
C234 H228 0.950 . S
C234 C235 1.327 . S
C235 H229 0.950 . S
C235 C234 1.327 . S
C235 C239 1.429 . S
C236 C219 1.574 . S
C236 H230 0.949 . S
C236 C240 1.368 . S
C237 C218 1.429 . S
C237 C231 1.429 . S
C237 C238 1.523 . S
C238 C219 1.368 . S
C238 C232 1.368 . S
C238 C237 1.523 . S
C239 C223 1.429 . S
C239 C235 1.429 . S
C239 C240 1.523 . S
C240 C224 1.368 . S
C240 C236 1.368 . S
C240 C239 1.523 . S
H241 C216 0.950 . S
H242 C218 0.950 . S
H243 C219 0.949 . S
H244 C221 0.950 . S
H245 C223 0.950 . S
C246 C247 1.349 . S
C246 C248 1.327 . S
C246 H271 0.950 . S
C247 C246 1.349 . S
C247 C263 1.349 . S
C248 C246 1.327 . S
C248 C267 1.429 . S
C248 H272 0.950 . S
C249 C266 1.574 . S
C249 C268 1.368 . S
C249 H273 0.949 . S
H250 C254 0.949 . S
C251 C252 1.349 . S
C251 C253 1.327 . S
C251 H274 0.950 . S
C252 C251 1.349 . S
C252 C264 1.349 . S
C253 C251 1.327 . S
C253 C269 1.429 . S
C253 H275 0.950 . S
C254 H250 0.949 . S
C254 C262 1.574 . S
C254 C270 1.368 . S
H255 C263 0.950 . S
H256 C261 0.950 . S
H257 C262 0.949 . S
H258 C264 0.950 . S
H259 C265 0.950 . S
H260 C266 0.949 . S
C261 H256 0.950 . S
C261 C263 1.327 . S
C261 C267 1.429 . S
C262 C254 1.574 . S
C262 H257 0.949 . S
C262 C268 1.368 . S
C263 C247 1.349 . S
C263 H255 0.950 . S
C263 C261 1.327 . S
C264 C252 1.349 . S
C264 H258 0.950 . S
C264 C265 1.327 . S
C265 H259 0.950 . S
C265 C264 1.327 . S
C265 C269 1.429 . S
C266 C249 1.574 . S
C266 H260 0.949 . S
C266 C270 1.368 . S
C267 C248 1.429 . S
C267 C261 1.429 . S
C267 C268 1.523 . S
C268 C249 1.368 . S
C268 C262 1.368 . S
C268 C267 1.523 . S
C269 C253 1.429 . S
C269 C265 1.429 . S
C269 C270 1.523 . S
C270 C254 1.368 . S
C270 C266 1.368 . S
C270 C269 1.523 . S
H271 C246 0.950 . S
H272 C248 0.950 . S
H273 C249 0.949 . S
H274 C251 0.950 . S
H275 C253 0.950 . S
C276 C277 1.349 . S
C276 C278 1.327 . S
C276 H301 0.950 . S
C277 C276 1.349 . S
C277 C293 1.349 . S
C278 C276 1.327 . S
C278 C297 1.429 . S
C278 H302 0.950 . S
C279 C296 1.574 . S
C279 C298 1.368 . S
C279 H303 0.949 . S
H280 C284 0.949 . S
C281 C282 1.349 . S
C281 C283 1.327 . S
C281 H304 0.950 . S
C282 C281 1.349 . S
C282 C294 1.349 . S
C283 C281 1.327 . S
C283 C299 1.429 . S
C283 H305 0.950 . S
C284 H280 0.949 . S
C284 C292 1.574 . S
C284 C300 1.368 . S
H285 C293 0.950 . S
H286 C291 0.950 . S
H287 C292 0.949 . S
H288 C294 0.950 . S
H289 C295 0.950 . S
H290 C296 0.949 . S
C291 H286 0.950 . S
C291 C293 1.327 . S
C291 C297 1.429 . S
C292 C284 1.574 . S
C292 H287 0.949 . S
C292 C298 1.368 . S
C293 C277 1.349 . S
C293 H285 0.950 . S
C293 C291 1.327 . S
C294 C282 1.349 . S
C294 H288 0.950 . S
C294 C295 1.327 . S
C295 H289 0.950 . S
C295 C294 1.327 . S
C295 C299 1.429 . S
C296 C279 1.574 . S
C296 H290 0.949 . S
C296 C300 1.368 . S
C297 C278 1.429 . S
C297 C291 1.429 . S
C297 C298 1.523 . S
C298 C279 1.368 . S
C298 C292 1.368 . S
C298 C297 1.523 . S
C299 C283 1.429 . S
C299 C295 1.429 . S
C299 C300 1.523 . S
C300 C284 1.368 . S
C300 C296 1.368 . S
C300 C299 1.523 . S
H301 C276 0.950 . S
H302 C278 0.950 . S
H303 C279 0.949 . S
H304 C281 0.950 . S
H305 C283 0.950 . S
C306 C307 1.349 . S
C306 C308 1.327 . S
C306 H331 0.950 . S
C307 C306 1.349 . S
C307 C323 1.349 . S
C308 C306 1.327 . S
C308 C327 1.429 . S
C308 H332 0.950 . S
C309 C326 1.574 . S
C309 C328 1.368 . S
C309 H333 0.949 . S
H310 C314 0.949 . S
C311 C312 1.349 . S
C311 C313 1.327 . S
C311 H334 0.950 . S
C312 C311 1.349 . S
C312 C324 1.349 . S
C313 C311 1.327 . S
C313 C329 1.429 . S
C313 H335 0.950 . S
C314 H310 0.949 . S
C314 C322 1.574 . S
C314 C330 1.368 . S
H315 C323 0.950 . S
H316 C321 0.950 . S
H317 C322 0.949 . S
H318 C324 0.950 . S
H319 C325 0.950 . S
H320 C326 0.949 . S
C321 H316 0.950 . S
C321 C323 1.327 . S
C321 C327 1.429 . S
C322 C314 1.574 . S
C322 H317 0.949 . S
C322 C328 1.368 . S
C323 C307 1.349 . S
C323 H315 0.950 . S
C323 C321 1.327 . S
C324 C312 1.349 . S
C324 H318 0.950 . S
C324 C325 1.327 . S
C325 H319 0.950 . S
C325 C324 1.327 . S
C325 C329 1.429 . S
C326 C309 1.574 . S
C326 H320 0.949 . S
C326 C330 1.368 . S
C327 C308 1.429 . S
C327 C321 1.429 . S
C327 C328 1.523 . S
C328 C309 1.368 . S
C328 C322 1.368 . S
C328 C327 1.523 . S
C329 C313 1.429 . S
C329 C325 1.429 . S
C329 C330 1.523 . S
C330 C314 1.368 . S
C330 C326 1.368 . S
C330 C329 1.523 . S
H331 C306 0.950 . S
H332 C308 0.950 . S
H333 C309 0.949 . S
H334 C311 0.950 . S
H335 C313 0.950 . S
C336 C337 1.349 . S
C336 C338 1.327 . S
C336 H361 0.950 . S
C337 C336 1.349 . S
C337 C353 1.349 . S
C338 C336 1.327 . S
C338 C357 1.429 . S
C338 H362 0.950 . S
C339 C356 1.574 . S
C339 C358 1.368 . S
C339 H363 0.949 . S
H340 C344 0.949 . S
C341 C342 1.349 . S
C341 C343 1.327 . S
C341 H364 0.950 . S
C342 C341 1.349 . S
C342 C354 1.349 . S
C343 C341 1.327 . S
C343 C359 1.429 . S
C343 H365 0.950 . S
C344 H340 0.949 . S
C344 C352 1.574 . S
C344 C360 1.368 . S
H345 C353 0.950 . S
H346 C351 0.950 . S
H347 C352 0.949 . S
H348 C354 0.950 . S
H349 C355 0.950 . S
H350 C356 0.949 . S
C351 H346 0.950 . S
C351 C353 1.327 . S
C351 C357 1.429 . S
C352 C344 1.574 . S
C352 H347 0.949 . S
C352 C358 1.368 . S
C353 C337 1.349 . S
C353 H345 0.950 . S
C353 C351 1.327 . S
C354 C342 1.349 . S
C354 H348 0.950 . S
C354 C355 1.327 . S
C355 H349 0.950 . S
C355 C354 1.327 . S
C355 C359 1.429 . S
C356 C339 1.574 . S
C356 H350 0.949 . S
C356 C360 1.368 . S
C357 C338 1.429 . S
C357 C351 1.429 . S
C357 C358 1.523 . S
C358 C339 1.368 . S
C358 C352 1.368 . S
C358 C357 1.523 . S
C359 C343 1.429 . S
C359 C355 1.429 . S
C359 C360 1.523 . S
C360 C344 1.368 . S
C360 C356 1.368 . S
C360 C359 1.523 . S
H361 C336 0.950 . S
H362 C338 0.950 . S
H363 C339 0.949 . S
H364 C341 0.950 . S
H365 C343 0.950 . S
C366 C367 1.349 . S
C366 C368 1.327 . S
C366 H391 0.950 . S
C367 C366 1.349 . S
C367 C383 1.349 . S
C368 C366 1.327 . S
C368 C387 1.429 . S
C368 H392 0.950 . S
C369 C386 1.574 . S
C369 C388 1.368 1_655 S
C369 H393 0.949 . S
H370 C374 0.949 . S
C371 C372 1.349 . S
C371 C373 1.327 . S
C371 H394 0.950 . S
C372 C371 1.349 . S
C372 C384 1.349 . S
C373 C371 1.327 . S
C373 C389 1.429 . S
C373 H395 0.950 . S
C374 H370 0.949 . S
C374 C382 1.574 . S
C374 C390 1.368 1_455 S
H375 C383 0.950 . S
H376 C381 0.950 . S
H377 C382 0.949 . S
H378 C384 0.950 . S
H379 C385 0.950 . S
H380 C386 0.949 . S
C381 H376 0.950 . S
C381 C383 1.327 . S
C381 C387 1.429 . S
C382 C374 1.574 . S
C382 H377 0.949 . S
C382 C388 1.368 . S
C383 C367 1.349 . S
C383 H375 0.950 . S
C383 C381 1.327 . S
C384 C372 1.349 . S
C384 H378 0.950 . S
C384 C385 1.327 . S
C385 H379 0.950 . S
C385 C384 1.327 . S
C385 C389 1.429 . S
C386 C369 1.574 . S
C386 H380 0.949 . S
C386 C390 1.368 . S
C387 C368 1.429 . S
C387 C381 1.429 . S
C387 C388 1.523 . S
C388 C369 1.368 1_455 S
C388 C382 1.368 . S
C388 C387 1.523 . S
C389 C373 1.429 . S
C389 C385 1.429 . S
C389 C390 1.523 . S
C390 C374 1.368 1_655 S
C390 C386 1.368 . S
C390 C389 1.523 . S
H391 C366 0.950 . S
H392 C368 0.950 . S
H393 C369 0.949 . S
H394 C371 0.950 . S
H395 C373 0.950 . S
C396 C397 1.349 . S
C396 C398 1.327 . S
C396 H421 0.950 . S
C397 C396 1.349 . S
C397 C413 1.349 . S
C398 C396 1.327 . S
C398 C417 1.429 . S
C398 H422 0.950 . S
C399 C416 1.574 . S
C399 C418 1.368 1_565 S
C399 H423 0.949 . S
H400 C404 0.949 . S
C401 C402 1.349 . S
C401 C403 1.327 . S
C401 H424 0.950 . S
C402 C401 1.349 . S
C402 C414 1.349 . S
C403 C401 1.327 . S
C403 C419 1.429 . S
C403 H425 0.950 . S
C404 H400 0.949 . S
C404 C412 1.574 . S
C404 C420 1.368 1_545 S
H405 C413 0.950 . S
H406 C411 0.950 . S
H407 C412 0.949 . S
H408 C414 0.950 . S
H409 C415 0.950 . S
H410 C416 0.949 . S
C411 H406 0.950 . S
C411 C413 1.327 . S
C411 C417 1.429 . S
C412 C404 1.574 . S
C412 H407 0.949 . S
C412 C418 1.368 . S
C413 C397 1.349 . S
C413 H405 0.950 . S
C413 C411 1.327 . S
C414 C402 1.349 . S
C414 H408 0.950 . S
C414 C415 1.327 . S
C415 H409 0.950 . S
C415 C414 1.327 . S
C415 C419 1.429 . S
C416 C399 1.574 . S
C416 H410 0.949 . S
C416 C420 1.368 . S
C417 C398 1.429 . S
C417 C411 1.429 . S
C417 C418 1.523 . S
C418 C399 1.368 1_545 S
C418 C412 1.368 . S
C418 C417 1.523 . S
C419 C403 1.429 . S
C419 C415 1.429 . S
C419 C420 1.523 . S
C420 C404 1.368 1_565 S
C420 C416 1.368 . S
C420 C419 1.523 . S
H421 C396 0.950 . S
H422 C398 0.950 . S
H423 C399 0.949 . S
H424 C401 0.950 . S
H425 C403 0.950 . S
C426 C427 1.349 . S
C426 C428 1.327 . S
C426 H451 0.950 . S
C427 C426 1.349 . S
C427 C443 1.349 . S
C428 C426 1.327 . S
C428 C447 1.429 . S
C428 H452 0.950 . S
C429 C446 1.574 . S
C429 C448 1.368 . S
C429 H453 0.949 . S
H430 C434 0.949 . S
C431 C432 1.349 . S
C431 C433 1.327 . S
C431 H454 0.950 . S
C432 C431 1.349 . S
C432 C444 1.349 . S
C433 C431 1.327 . S
C433 C449 1.429 . S
C433 H455 0.950 . S
C434 H430 0.949 . S
C434 C442 1.574 . S
C434 C450 1.368 . S
H435 C443 0.950 . S
H436 C441 0.950 . S
H437 C442 0.949 . S
H438 C444 0.950 . S
H439 C445 0.950 . S
H440 C446 0.949 . S
C441 H436 0.950 . S
C441 C443 1.327 . S
C441 C447 1.429 . S
C442 C434 1.574 . S
C442 H437 0.949 . S
C442 C448 1.368 . S
C443 C427 1.349 . S
C443 H435 0.950 . S
C443 C441 1.327 . S
C444 C432 1.349 . S
C444 H438 0.950 . S
C444 C445 1.327 . S
C445 H439 0.950 . S
C445 C444 1.327 . S
C445 C449 1.429 . S
C446 C429 1.574 . S
C446 H440 0.949 . S
C446 C450 1.368 . S
C447 C428 1.429 . S
C447 C441 1.429 . S
C447 C448 1.523 . S
C448 C429 1.368 . S
C448 C442 1.368 . S
C448 C447 1.523 . S
C449 C433 1.429 . S
C449 C445 1.429 . S
C449 C450 1.523 . S
C450 C434 1.368 . S
C450 C446 1.368 . S
C450 C449 1.523 . S
H451 C426 0.950 . S
H452 C428 0.950 . S
H453 C429 0.949 . S
H454 C431 0.950 . S
H455 C433 0.950 . S
C456 C457 1.349 . S
C456 C458 1.327 . S
C456 H481 0.950 . S
C457 C456 1.349 . S
C457 C473 1.349 . S
C458 C456 1.327 . S
C458 C477 1.429 . S
C458 H482 0.950 . S
C459 C476 1.574 . S
C459 C478 1.368 . S
C459 H483 0.949 . S
H460 C464 0.949 . S
C461 C462 1.349 . S
C461 C463 1.327 . S
C461 H484 0.950 . S
C462 C461 1.349 . S
C462 C474 1.349 . S
C463 C461 1.327 . S
C463 C479 1.429 . S
C463 H485 0.950 . S
C464 H460 0.949 . S
C464 C472 1.574 . S
C464 C480 1.368 . S
H465 C473 0.950 . S
H466 C471 0.950 . S
H467 C472 0.949 . S
H468 C474 0.950 . S
H469 C475 0.950 . S
H470 C476 0.949 . S
C471 H466 0.950 . S
C471 C473 1.327 . S
C471 C477 1.429 . S
C472 C464 1.574 . S
C472 H467 0.949 . S
C472 C478 1.368 1_455 S
C473 C457 1.349 . S
C473 H465 0.950 . S
C473 C471 1.327 . S
C474 C462 1.349 . S
C474 H468 0.950 . S
C474 C475 1.327 . S
C475 H469 0.950 . S
C475 C474 1.327 . S
C475 C479 1.429 . S
C476 C459 1.574 . S
C476 H470 0.949 . S
C476 C480 1.368 1_655 S
C477 C458 1.429 . S
C477 C471 1.429 . S
C477 C478 1.523 . S
C478 C459 1.368 . S
C478 C472 1.368 1_655 S
C478 C477 1.523 . S
C479 C463 1.429 . S
C479 C475 1.429 . S
C479 C480 1.523 . S
C480 C464 1.368 . S
C480 C476 1.368 1_455 S
C480 C479 1.523 . S
H481 C456 0.950 . S
H482 C458 0.950 . S
H483 C459 0.949 . S
H484 C461 0.950 . S
H485 C463 0.950 . S
C486 C487 1.349 . S
C486 C488 1.327 . S
C486 H511 0.950 . S
C487 C486 1.349 . S
C487 C503 1.349 . S
C488 C486 1.327 . S
C488 C507 1.429 . S
C488 H512 0.950 . S
C489 C506 1.574 . S
C489 C508 1.368 . S
C489 H513 0.949 . S
H490 C494 0.949 . S
C491 C492 1.349 . S
C491 C493 1.327 . S
C491 H514 0.950 . S
C492 C491 1.349 . S
C492 C504 1.349 . S
C493 C491 1.327 . S
C493 C509 1.429 . S
C493 H515 0.950 . S
C494 H490 0.949 . S
C494 C502 1.574 . S
C494 C510 1.368 . S
H495 C503 0.950 . S
H496 C501 0.950 . S
H497 C502 0.949 . S
H498 C504 0.950 . S
H499 C505 0.950 . S
H500 C506 0.949 . S
C501 H496 0.950 . S
C501 C503 1.327 . S
C501 C507 1.429 . S
C502 C494 1.574 . S
C502 H497 0.949 . S
C502 C508 1.368 1_545 S
C503 C487 1.349 . S
C503 H495 0.950 . S
C503 C501 1.327 . S
C504 C492 1.349 . S
C504 H498 0.950 . S
C504 C505 1.327 . S
C505 H499 0.950 . S
C505 C504 1.327 . S
C505 C509 1.429 . S
C506 C489 1.574 . S
C506 H500 0.949 . S
C506 C510 1.368 1_565 S
C507 C488 1.429 . S
C507 C501 1.429 . S
C507 C508 1.523 . S
C508 C489 1.368 . S
C508 C502 1.368 1_565 S
C508 C507 1.523 . S
C509 C493 1.429 . S
C509 C505 1.429 . S
C509 C510 1.523 . S
C510 C494 1.368 . S
C510 C506 1.368 1_545 S
C510 C509 1.523 . S
H511 C486 0.950 . S
H512 C488 0.950 . S
H513 C489 0.949 . S
H514 C491 0.950 . S
H515 C493 0.950 . S
C516 C517 1.349 . S
C516 C518 1.327 . S
C516 H541 0.950 . S
C517 C516 1.349 . S
C517 C533 1.349 . S
C518 C516 1.327 . S
C518 C537 1.429 . S
C518 H542 0.950 . S
C519 C536 1.574 . S
C519 C538 1.368 . S
C519 H543 0.949 . S
H520 C524 0.949 . S
C521 C522 1.349 . S
C521 C523 1.327 . S
C521 H544 0.950 . S
C522 C521 1.349 . S
C522 C534 1.349 . S
C523 C521 1.327 . S
C523 C539 1.429 . S
C523 H545 0.950 . S
C524 H520 0.949 . S
C524 C532 1.574 . S
C524 C540 1.368 . S
H525 C533 0.950 . S
H526 C531 0.950 . S
H527 C532 0.949 . S
H528 C534 0.950 . S
H529 C535 0.950 . S
H530 C536 0.949 . S
C531 H526 0.950 . S
C531 C533 1.327 . S
C531 C537 1.429 . S
C532 C524 1.574 . S
C532 H527 0.949 . S
C532 C538 1.368 . S
C533 C517 1.349 . S
C533 H525 0.950 . S
C533 C531 1.327 . S
C534 C522 1.349 . S
C534 H528 0.950 . S
C534 C535 1.327 . S
C535 H529 0.950 . S
C535 C534 1.327 . S
C535 C539 1.429 . S
C536 C519 1.574 . S
C536 H530 0.949 . S
C536 C540 1.368 . S
C537 C518 1.429 . S
C537 C531 1.429 . S
C537 C538 1.523 . S
C538 C519 1.368 . S
C538 C532 1.368 . S
C538 C537 1.523 . S
C539 C523 1.429 . S
C539 C535 1.429 . S
C539 C540 1.523 . S
C540 C524 1.368 . S
C540 C536 1.368 . S
C540 C539 1.523 . S
H541 C516 0.950 . S
H542 C518 0.950 . S
H543 C519 0.949 . S
H544 C521 0.950 . S
H545 C523 0.950 . S
C546 C547 1.349 . S
C546 C548 1.327 . S
C546 H571 0.950 . S
C547 C546 1.349 . S
C547 C563 1.349 . S
C548 C546 1.327 . S
C548 C567 1.429 . S
C548 H572 0.950 . S
C549 C566 1.567 1_655 S
C549 C568 1.385 . S
C549 H573 0.941 . S
H550 C554 0.941 . S
C551 C552 1.349 . S
C551 C553 1.327 . S
C551 H574 0.950 . S
C552 C551 1.349 . S
C552 C564 1.349 . S
C553 C551 1.327 . S
C553 C569 1.429 . S
C553 H575 0.950 . S
C554 H550 0.941 . S
C554 C562 1.567 1_455 S
C554 C570 1.385 . S
H555 C563 0.950 . S
H556 C561 0.950 . S
H557 C562 0.949 . S
H558 C564 0.950 . S
H559 C565 0.950 . S
H560 C566 0.949 . S
C561 H556 0.950 . S
C561 C563 1.327 . S
C561 C567 1.429 . S
C562 C554 1.567 1_655 S
C562 H557 0.949 . S
C562 C568 1.368 . S
C563 C547 1.349 . S
C563 H555 0.950 . S
C563 C561 1.327 . S
C564 C552 1.349 . S
C564 H558 0.950 . S
C564 C565 1.327 . S
C565 H559 0.950 . S
C565 C564 1.327 . S
C565 C569 1.429 . S
C566 C549 1.567 1_455 S
C566 H560 0.949 . S
C566 C570 1.368 . S
C567 C548 1.429 . S
C567 C561 1.429 . S
C567 C568 1.523 . S
C568 C549 1.385 . S
C568 C562 1.368 . S
C568 C567 1.523 . S
C569 C553 1.429 . S
C569 C565 1.429 . S
C569 C570 1.523 . S
C570 C554 1.385 . S
C570 C566 1.368 . S
C570 C569 1.523 . S
H571 C546 0.950 . S
H572 C548 0.950 . S
H573 C549 0.941 . S
H574 C551 0.950 . S
H575 C553 0.950 . S
C576 C577 1.349 . S
C576 C578 1.327 . S
C576 H601 0.950 . S
C577 C576 1.349 . S
C577 C593 1.349 . S
C578 C576 1.327 . S
C578 C597 1.429 . S
C578 H602 0.950 . S
C579 C596 1.574 1_556 S
C579 C598 1.368 1_545 S
C579 H603 0.949 . S
H580 C584 0.949 . S
C581 C582 1.349 . S
C581 C583 1.327 . S
C581 H604 0.950 . S
C582 C581 1.349 . S
C582 C594 1.349 . S
C583 C581 1.327 . S
C583 C599 1.429 . S
C583 H605 0.950 . S
C584 H580 0.949 . S
C584 C592 1.574 1_554 S
C584 C600 1.368 1_565 S
H585 C593 0.950 . S
H586 C591 0.950 1_545 S
H587 C592 0.949 . S
H588 C594 0.950 . S
H589 C595 0.950 1_565 S
H590 C596 0.949 . S
C591 H586 0.950 1_565 S
C591 C593 1.327 . S
C591 C597 1.429 . S
C592 C584 1.574 1_556 S
C592 H587 0.949 . S
C592 C598 1.368 . S
C593 C577 1.349 . S
C593 H585 0.950 . S
C593 C591 1.327 . S
C594 C582 1.349 . S
C594 H588 0.950 . S
C594 C595 1.327 . S
C595 H589 0.950 1_545 S
C595 C594 1.327 . S
C595 C599 1.429 . S
C596 C579 1.574 1_554 S
C596 H590 0.949 . S
C596 C600 1.368 . S
C597 C578 1.429 . S
C597 C591 1.429 . S
C597 C598 1.523 . S
C598 C579 1.368 1_565 S
C598 C592 1.368 . S
C598 C597 1.523 . S
C599 C583 1.429 . S
C599 C595 1.429 . S
C599 C600 1.523 . S
C600 C584 1.368 1_545 S
C600 C596 1.368 . S
C600 C599 1.523 . S
H601 C576 0.950 . S
H602 C578 0.950 . S
H603 C579 0.949 . S
H604 C581 0.950 . S
H605 C583 0.950 . S
C606 C607 1.349 . S
C606 C608 1.327 . S
C606 H631 0.950 . S
C607 C606 1.349 . S
C607 C623 1.349 . S
C608 C606 1.327 . S
C608 C627 1.429 . S
C608 H632 0.950 . S
C609 C626 1.574 . S
C609 C628 1.368 . S
C609 H633 0.949 . S
H610 C614 0.949 . S
C611 C612 1.349 . S
C611 C613 1.327 . S
C611 H634 0.950 . S
C612 C611 1.349 . S
C612 C624 1.349 . S
C613 C611 1.327 . S
C613 C629 1.429 . S
C613 H635 0.950 . S
C614 H610 0.949 . S
C614 C622 1.574 . S
C614 C630 1.368 . S
H615 C623 0.950 . S
H616 C621 0.950 . S
H617 C622 0.949 . S
H618 C624 0.950 . S
H619 C625 0.950 . S
H620 C626 0.949 . S
C621 H616 0.950 . S
C621 C623 1.327 . S
C621 C627 1.429 . S
C622 C614 1.574 . S
C622 H617 0.949 . S
C622 C628 1.368 . S
C623 C607 1.349 . S
C623 H615 0.950 . S
C623 C621 1.327 . S
C624 C612 1.349 . S
C624 H618 0.950 . S
C624 C625 1.327 . S
C625 H619 0.950 . S
C625 C624 1.327 . S
C625 C629 1.429 . S
C626 C609 1.574 . S
C626 H620 0.949 . S
C626 C630 1.368 . S
C627 C608 1.429 . S
C627 C621 1.429 . S
C627 C628 1.523 . S
C628 C609 1.368 . S
C628 C622 1.368 . S
C628 C627 1.523 . S
C629 C613 1.429 . S
C629 C625 1.429 . S
C629 C630 1.523 . S
C630 C614 1.368 . S
C630 C626 1.368 . S
C630 C629 1.523 . S
H631 C606 0.950 . S
H632 C608 0.950 . S
H633 C609 0.949 . S
H634 C611 0.950 . S
H635 C613 0.950 . S
C636 C637 1.349 . S
C636 C638 1.327 . S
C636 H661 0.950 . S
C637 C636 1.349 . S
C637 C653 1.349 . S
C638 C636 1.327 . S
C638 C657 1.429 . S
C638 H662 0.950 . S
C639 C656 1.574 1_455 S
C639 C658 1.368 . S
C639 H663 0.949 . S
H640 C644 0.949 . S
C641 C642 1.349 . S
C641 C643 1.327 . S
C641 H664 0.950 . S
C642 C641 1.349 . S
C642 C654 1.349 . S
C643 C641 1.327 . S
C643 C659 1.429 . S
C643 H665 0.950 . S
C644 H640 0.949 . S
C644 C652 1.574 1_655 S
C644 C660 1.368 . S
H645 C653 0.950 . S
H646 C651 0.950 . S
H647 C652 0.949 . S
H648 C654 0.950 . S
H649 C655 0.950 . S
H650 C656 0.949 . S
C651 H646 0.950 . S
C651 C653 1.327 . S
C651 C657 1.429 . S
C652 C644 1.574 1_455 S
C652 H647 0.949 . S
C652 C658 1.368 . S
C653 C637 1.349 . S
C653 H645 0.950 . S
C653 C651 1.327 . S
C654 C642 1.349 . S
C654 H648 0.950 . S
C654 C655 1.327 . S
C655 H649 0.950 . S
C655 C654 1.327 . S
C655 C659 1.429 . S
C656 C639 1.574 1_655 S
C656 H650 0.949 . S
C656 C660 1.368 . S
C657 C638 1.429 . S
C657 C651 1.429 . S
C657 C658 1.523 . S
C658 C639 1.368 . S
C658 C652 1.368 . S
C658 C657 1.523 . S
C659 C643 1.429 . S
C659 C655 1.429 . S
C659 C660 1.523 . S
C660 C644 1.368 . S
C660 C656 1.368 . S
C660 C659 1.523 . S
H661 C636 0.950 . S
H662 C638 0.950 . S
H663 C639 0.949 . S
H664 C641 0.950 . S
H665 C643 0.950 . S
C666 C667 1.349 . S
C666 C668 1.327 . S
C666 H691 0.950 . S
C667 C666 1.349 . S
C667 C683 1.349 . S
C668 C666 1.327 . S
C668 C687 1.429 . S
C668 H692 0.950 . S
C669 C686 1.574 1_554 S
C669 C688 1.368 . S
C669 H693 0.949 . S
H670 C674 0.949 . S
C671 C672 1.349 . S
C671 C673 1.327 . S
C671 H694 0.950 . S
C672 C671 1.349 . S
C672 C684 1.349 . S
C673 C671 1.327 . S
C673 C689 1.429 . S
C673 H695 0.950 . S
C674 H670 0.949 . S
C674 C682 1.574 1_556 S
C674 C690 1.368 . S
H675 C683 0.950 . S
H676 C681 0.950 . S
H677 C682 0.949 . S
H678 C684 0.950 . S
H679 C685 0.950 . S
H680 C686 0.949 . S
C681 H676 0.950 . S
C681 C683 1.327 . S
C681 C687 1.429 . S
C682 C674 1.574 1_554 S
C682 H677 0.949 . S
C682 C688 1.368 1_545 S
C683 C667 1.349 . S
C683 H675 0.950 . S
C683 C681 1.327 . S
C684 C672 1.349 . S
C684 H678 0.950 . S
C684 C685 1.327 . S
C685 H679 0.950 . S
C685 C684 1.327 . S
C685 C689 1.429 . S
C686 C669 1.574 1_556 S
C686 H680 0.949 . S
C686 C690 1.368 1_565 S
C687 C668 1.429 . S
C687 C681 1.429 . S
C687 C688 1.523 . S
C688 C669 1.368 . S
C688 C682 1.368 1_565 S
C688 C687 1.523 . S
C689 C673 1.429 . S
C689 C685 1.429 . S
C689 C690 1.523 . S
C690 C674 1.368 . S
C690 C686 1.368 1_545 S
C690 C689 1.523 . S
H691 C666 0.950 . S
H692 C668 0.950 . S
H693 C669 0.949 . S
H694 C671 0.950 . S
H695 C673 0.950 . S
C696 C697 1.349 . S
C696 C698 1.327 . S
C696 H721 0.950 . S
C697 C696 1.349 . S
C697 C713 1.349 . S
C698 C696 1.327 . S
C698 C717 1.429 . S
C698 H722 0.950 . S
C699 C716 1.574 1_655 S
C699 C718 1.368 . S
C699 H723 0.949 . S
H700 C704 0.949 . S
C701 C702 1.349 . S
C701 C703 1.327 . S
C701 H724 0.950 . S
C702 C701 1.349 . S
C702 C714 1.349 . S
C703 C701 1.327 . S
C703 C719 1.429 . S
C703 H725 0.950 . S
C704 H700 0.949 . S
C704 C712 1.574 1_455 S
C704 C720 1.368 . S
H705 C713 0.950 . S
H706 C711 0.950 . S
H707 C712 0.949 . S
H708 C714 0.950 . S
H709 C715 0.950 . S
H710 C716 0.949 . S
C711 H706 0.950 . S
C711 C713 1.327 . S
C711 C717 1.429 . S
C712 C704 1.574 1_655 S
C712 H707 0.949 . S
C712 C718 1.368 . S
C713 C697 1.349 . S
C713 H705 0.950 . S
C713 C711 1.327 . S
C714 C702 1.349 . S
C714 H708 0.950 . S
C714 C715 1.327 . S
C715 H709 0.950 . S
C715 C714 1.327 . S
C715 C719 1.429 . S
C716 C699 1.574 1_455 S
C716 H710 0.949 . S
C716 C720 1.368 . S
C717 C698 1.429 . S
C717 C711 1.429 . S
C717 C718 1.523 . S
C718 C699 1.368 . S
C718 C712 1.368 . S
C718 C717 1.523 . S
C719 C703 1.429 . S
C719 C715 1.429 . S
C719 C720 1.523 . S
C720 C704 1.368 . S
C720 C716 1.368 . S
C720 C719 1.523 . S
H721 C696 0.950 . S
H722 C698 0.950 . S
H723 C699 0.949 . S
H724 C701 0.950 . S
H725 C703 0.950 . S
C726 C727 1.349 . S
C726 C728 1.327 . S
C726 H751 0.950 . S
C727 C726 1.349 . S
C727 C743 1.349 . S
C728 C726 1.327 . S
C728 C747 1.429 . S
C728 H752 0.950 . S
C729 C746 1.574 1_545 S
C729 C748 1.368 . S
C729 H753 0.949 . S
H730 C734 0.949 . S
C731 C732 1.349 . S
C731 C733 1.327 . S
C731 H754 0.950 . S
C732 C731 1.349 . S
C732 C744 1.349 . S
C733 C731 1.327 . S
C733 C749 1.429 . S
C733 H755 0.950 . S
C734 H730 0.949 . S
C734 C742 1.574 1_565 S
C734 C750 1.368 . S
H735 C743 0.950 . S
H736 C741 0.950 . S
H737 C742 0.949 . S
H738 C744 0.950 . S
H739 C745 0.950 . S
H740 C746 0.949 . S
C741 H736 0.950 . S
C741 C743 1.327 . S
C741 C747 1.429 . S
C742 C734 1.574 1_545 S
C742 H737 0.949 . S
C742 C748 1.368 . S
C743 C727 1.349 . S
C743 H735 0.950 . S
C743 C741 1.327 . S
C744 C732 1.349 . S
C744 H738 0.950 . S
C744 C745 1.327 . S
C745 H739 0.950 . S
C745 C744 1.327 . S
C745 C749 1.429 . S
C746 C729 1.574 1_565 S
C746 H740 0.949 . S
C746 C750 1.368 . S
C747 C728 1.429 . S
C747 C741 1.429 . S
C747 C748 1.523 . S
C748 C729 1.368 . S
C748 C742 1.368 . S
C748 C747 1.523 . S
C749 C733 1.429 . S
C749 C745 1.429 . S
C749 C750 1.523 . S
C750 C734 1.368 . S
C750 C746 1.368 . S
C750 C749 1.523 . S
H751 C726 0.950 . S
H752 C728 0.950 . S
H753 C729 0.949 . S
H754 C731 0.950 . S
H755 C733 0.950 . S
C756 C757 1.349 . S
C756 C758 1.327 . S
C756 H781 0.950 . S
C757 C756 1.349 . S
C757 C773 1.349 . S
C758 C756 1.327 . S
C758 C777 1.429 . S
C758 H782 0.950 . S
C759 C776 1.574 . S
C759 C778 1.368 . S
C759 H783 0.949 . S
H760 C764 0.949 . S
C761 C762 1.349 . S
C761 C763 1.327 . S
C761 H784 0.950 . S
C762 C761 1.349 . S
C762 C774 1.349 . S
C763 C761 1.327 . S
C763 C779 1.429 . S
C763 H785 0.950 . S
C764 H760 0.949 . S
C764 C772 1.574 . S
C764 C780 1.368 . S
H765 C773 0.950 . S
H766 C771 0.950 . S
H767 C772 0.949 . S
H768 C774 0.950 . S
H769 C775 0.950 . S
H770 C776 0.949 . S
C771 H766 0.950 . S
C771 C773 1.327 . S
C771 C777 1.429 . S
C772 C764 1.574 . S
C772 H767 0.949 . S
C772 C778 1.368 . S
C773 C757 1.349 . S
C773 H765 0.950 . S
C773 C771 1.327 . S
C774 C762 1.349 . S
C774 H768 0.950 . S
C774 C775 1.327 . S
C775 H769 0.950 . S
C775 C774 1.327 . S
C775 C779 1.429 . S
C776 C759 1.574 . S
C776 H770 0.949 . S
C776 C780 1.368 . S
C777 C758 1.429 . S
C777 C771 1.429 . S
C777 C778 1.523 . S
C778 C759 1.368 . S
C778 C772 1.368 . S
C778 C777 1.523 . S
C779 C763 1.429 . S
C779 C775 1.429 . S
C779 C780 1.523 . S
C780 C764 1.368 . S
C780 C776 1.368 . S
C780 C779 1.523 . S
H781 C756 0.950 . S
H782 C758 0.950 . S
H783 C759 0.949 . S
H784 C761 0.950 . S
H785 C763 0.950 . S
C786 C787 1.349 . S
C786 C788 1.327 . S
C786 H811 0.950 . S
C787 C786 1.349 . S
C787 C803 1.349 . S
C788 C786 1.327 . S
C788 C807 1.429 . S
C788 H812 0.950 . S
C789 C806 1.574 1_655 S
C789 C808 1.368 . S
C789 H813 0.949 . S
H790 C794 0.949 . S
C791 C792 1.349 . S
C791 C793 1.327 . S
C791 H814 0.950 . S
C792 C791 1.349 . S
C792 C804 1.349 . S
C793 C791 1.327 . S
C793 C809 1.429 . S
C793 H815 0.950 . S
C794 H790 0.949 . S
C794 C802 1.574 1_455 S
C794 C810 1.368 . S
H795 C803 0.950 . S
H796 C801 0.950 . S
H797 C802 0.949 . S
H798 C804 0.950 . S
H799 C805 0.950 . S
H800 C806 0.949 . S
C801 H796 0.950 . S
C801 C803 1.327 . S
C801 C807 1.429 . S
C802 C794 1.574 1_655 S
C802 H797 0.949 . S
C802 C808 1.368 . S
C803 C787 1.349 . S
C803 H795 0.950 . S
C803 C801 1.327 . S
C804 C792 1.349 . S
C804 H798 0.950 . S
C804 C805 1.327 . S
C805 H799 0.950 . S
C805 C804 1.327 . S
C805 C809 1.429 . S
C806 C789 1.574 1_455 S
C806 H800 0.949 . S
C806 C810 1.368 . S
C807 C788 1.429 . S
C807 C801 1.429 . S
C807 C808 1.523 . S
C808 C789 1.368 . S
C808 C802 1.368 . S
C808 C807 1.523 . S
C809 C793 1.429 . S
C809 C805 1.429 . S
C809 C810 1.523 . S
C810 C794 1.368 . S
C810 C806 1.368 . S
C810 C809 1.523 . S
H811 C786 0.950 . S
H812 C788 0.950 . S
H813 C789 0.949 . S
H814 C791 0.950 . S
H815 C793 0.950 . S
C816 C817 1.349 . S
C816 C818 1.327 . S
C816 H841 0.950 . S
C817 C816 1.349 . S
C817 C833 1.349 . S
C818 C816 1.327 . S
C818 C837 1.429 . S
C818 H842 0.950 . S
C819 C836 1.574 1_565 S
C819 C838 1.368 . S
C819 H843 0.949 . S
H820 C824 0.949 . S
C821 C822 1.349 . S
C821 C823 1.327 . S
C821 H844 0.950 . S
C822 C821 1.349 . S
C822 C834 1.349 . S
C823 C821 1.327 . S
C823 C839 1.429 . S
C823 H845 0.950 . S
C824 H820 0.949 . S
C824 C832 1.574 1_545 S
C824 C840 1.368 . S
H825 C833 0.950 . S
H826 C831 0.950 . S
H827 C832 0.949 . S
H828 C834 0.950 . S
H829 C835 0.950 . S
H830 C836 0.949 . S
C831 H826 0.950 . S
C831 C833 1.327 . S
C831 C837 1.429 . S
C832 C824 1.574 1_565 S
C832 H827 0.949 . S
C832 C838 1.368 . S
C833 C817 1.349 . S
C833 H825 0.950 . S
C833 C831 1.327 . S
C834 C822 1.349 . S
C834 H828 0.950 . S
C834 C835 1.327 . S
C835 H829 0.950 . S
C835 C834 1.327 . S
C835 C839 1.429 . S
C836 C819 1.574 1_545 S
C836 H830 0.949 . S
C836 C840 1.368 . S
C837 C818 1.429 . S
C837 C831 1.429 . S
C837 C838 1.523 . S
C838 C819 1.368 . S
C838 C832 1.368 . S
C838 C837 1.523 . S
C839 C823 1.429 . S
C839 C835 1.429 . S
C839 C840 1.523 . S
C840 C824 1.368 . S
C840 C836 1.368 . S
C840 C839 1.523 . S
H841 C816 0.950 . S
H842 C818 0.950 . S
H843 C819 0.949 . S
H844 C821 0.950 . S
H845 C823 0.950 . S
C846 C847 1.349 . S
C846 C848 1.327 . S
C846 H871 0.950 . S
C847 C846 1.349 . S
C847 C863 1.349 . S
C848 C846 1.327 . S
C848 C867 1.429 . S
C848 H872 0.950 . S
C849 C866 1.574 . S
C849 C868 1.368 . S
C849 H873 0.949 . S
H850 C854 0.949 . S
C851 C852 1.349 . S
C851 C853 1.327 . S
C851 H874 0.950 . S
C852 C851 1.349 . S
C852 C864 1.349 . S
C853 C851 1.327 . S
C853 C869 1.429 . S
C853 H875 0.950 . S
C854 H850 0.949 . S
C854 C862 1.574 . S
C854 C870 1.368 . S
H855 C863 0.950 . S
H856 C861 0.950 . S
H857 C862 0.949 . S
H858 C864 0.950 . S
H859 C865 0.950 . S
H860 C866 0.949 . S
C861 H856 0.950 . S
C861 C863 1.327 . S
C861 C867 1.429 . S
C862 C854 1.574 . S
C862 H857 0.949 . S
C862 C868 1.368 . S
C863 C847 1.349 . S
C863 H855 0.950 . S
C863 C861 1.327 . S
C864 C852 1.349 . S
C864 H858 0.950 . S
C864 C865 1.327 . S
C865 H859 0.950 . S
C865 C864 1.327 . S
C865 C869 1.429 . S
C866 C849 1.574 . S
C866 H860 0.949 . S
C866 C870 1.368 . S
C867 C848 1.429 . S
C867 C861 1.429 . S
C867 C868 1.523 . S
C868 C849 1.368 . S
C868 C862 1.368 . S
C868 C867 1.523 . S
C869 C853 1.429 . S
C869 C865 1.429 . S
C869 C870 1.523 . S
C870 C854 1.368 . S
C870 C866 1.368 . S
C870 C869 1.523 . S
H871 C846 0.950 . S
H872 C848 0.950 . S
H873 C849 0.949 . S
H874 C851 0.950 . S
H875 C853 0.950 . S
C157 C105 2.707 . S
C162 C1 2.707 . S
C187 C23 2.585 . S
C192 C127 2.585 . S
C217 C27 2.707 . S
C222 C131 2.707 . S
C247 C40 2.707 . S
C252 C144 2.707 . S
C277 C88 2.586 . S
C282 C62 2.586 . S
C307 C66 2.707 . S
C312 C92 2.707 . S
C337 C49 1.302 . S
C342 C10 1.302 . S
C367 C53 1.315 . S
C372 C14 1.315 . S
C397 C75 1.302 . S
C402 C36 1.302 . S
C427 C79 1.315 . S
C432 C118 1.315 . S
C457 C101 1.303 . S
C462 C140 1.303 . S
C487 C114 1.302 . S
C492 C153 1.302 . S
C517 C3 2.078 . S
C522 C122 1.936 . S
C547 C18 1.936 . S
C552 C133 2.078 . S
C577 C29 2.078 . S
C582 C146 2.078 . S
C607 C83 1.936 . S
C612 C42 2.078 . S
C637 C57 1.936 . S
C642 C94 2.078 . S
C667 C107 2.078 . S
C672 C68 2.078 . S
C697 C148 1.215 . S
C702 C5 1.215 . S
C727 C16 1.239 . S
C732 C81 1.239 . S
C757 C96 1.215 . S
C762 C31 1.215 . S
C787 C44 1.215 . S
C792 C109 1.215 . S
C817 C55 1.239 . S
C822 C120 1.239 . S
C847 C135 1.215 . S
C852 C70 1.215 . S
