# Generated by pormake.
# Topology gsi, (4)-cn, num edge types: 1
# Building blocks:
#     Node 0, Type 0, BuildingBlock: ICAMEG_clean_sbu_1, # of connection points: 4
#     Node 1, Type 0, BuildingBlock: ICAMEG_clean_sbu_1, # of connection points: 4
#     Node 2, Type 0, BuildingBlock: ICAMEG_clean_sbu_1, # of connection points: 4
#     Node 3, Type 0, BuildingBlock: ICAMEG_clean_sbu_1, # of connection points: 4
#     Node 4, Type 0, BuildingBlock: ICAMEG_clean_sbu_1, # of connection points: 4
#     Node 5, Type 0, BuildingBlock: ICAMEG_clean_sbu_1, # of connection points: 4
#     Node 6, Type 0, BuildingBlock: ICAMEG_clean_sbu_1, # of connection points: 4
#     Node 7, Type 0, BuildingBlock: ICAMEG_clean_sbu_1, # of connection points: 4
#     Node 8, Type 0, BuildingBlock: ICAMEG_clean_sbu_1, # of connection points: 4
#     Node 9, Type 0, BuildingBlock: ICAMEG_clean_sbu_1, # of connection points: 4
#     Node 10, Type 0, BuildingBlock: ICAMEG_clean_sbu_1, # of connection points: 4
#     Node 11, Type 0, BuildingBlock: ICAMEG_clean_sbu_1, # of connection points: 4
#     Node 12, Type 0, BuildingBlock: ICAMEG_clean_sbu_1, # of connection points: 4
#     Node 13, Type 0, BuildingBlock: ICAMEG_clean_sbu_1, # of connection points: 4
#     Node 14, Type 0, BuildingBlock: ICAMEG_clean_sbu_1, # of connection points: 4
#     Node 15, Type 0, BuildingBlock: ICAMEG_clean_sbu_1, # of connection points: 4
#     Edge 16, Type (0, 0), BuildingBlock: MIFKUJ_clean_linker_0, # of connection points: 2
#     Edge 17, Type (0, 0), BuildingBlock: MIFKUJ_clean_linker_0, # of connection points: 2
#     Edge 18, Type (0, 0), BuildingBlock: MIFKUJ_clean_linker_0, # of connection points: 2
#     Edge 19, Type (0, 0), BuildingBlock: MIFKUJ_clean_linker_0, # of connection points: 2
#     Edge 20, Type (0, 0), BuildingBlock: MIFKUJ_clean_linker_0, # of connection points: 2
#     Edge 21, Type (0, 0), BuildingBlock: MIFKUJ_clean_linker_0, # of connection points: 2
#     Edge 22, Type (0, 0), BuildingBlock: MIFKUJ_clean_linker_0, # of connection points: 2
#     Edge 23, Type (0, 0), BuildingBlock: MIFKUJ_clean_linker_0, # of connection points: 2
#     Edge 24, Type (0, 0), BuildingBlock: MIFKUJ_clean_linker_0, # of connection points: 2
#     Edge 25, Type (0, 0), BuildingBlock: MIFKUJ_clean_linker_0, # of connection points: 2
#     Edge 26, Type (0, 0), BuildingBlock: MIFKUJ_clean_linker_0, # of connection points: 2
#     Edge 27, Type (0, 0), BuildingBlock: MIFKUJ_clean_linker_0, # of connection points: 2
#     Edge 28, Type (0, 0), BuildingBlock: MIFKUJ_clean_linker_0, # of connection points: 2
#     Edge 29, Type (0, 0), BuildingBlock: MIFKUJ_clean_linker_0, # of connection points: 2
#     Edge 30, Type (0, 0), BuildingBlock: MIFKUJ_clean_linker_0, # of connection points: 2
#     Edge 31, Type (0, 0), BuildingBlock: MIFKUJ_clean_linker_0, # of connection points: 2
#     Edge 32, Type (0, 0), BuildingBlock: MIFKUJ_clean_linker_0, # of connection points: 2
#     Edge 33, Type (0, 0), BuildingBlock: MIFKUJ_clean_linker_0, # of connection points: 2
#     Edge 34, Type (0, 0), BuildingBlock: MIFKUJ_clean_linker_0, # of connection points: 2
#     Edge 35, Type (0, 0), BuildingBlock: MIFKUJ_clean_linker_0, # of connection points: 2
#     Edge 36, Type (0, 0), BuildingBlock: MIFKUJ_clean_linker_0, # of connection points: 2
#     Edge 37, Type (0, 0), BuildingBlock: MIFKUJ_clean_linker_0, # of connection points: 2
#     Edge 38, Type (0, 0), BuildingBlock: MIFKUJ_clean_linker_0, # of connection points: 2
#     Edge 39, Type (0, 0), BuildingBlock: MIFKUJ_clean_linker_0, # of connection points: 2
#     Edge 40, Type (0, 0), BuildingBlock: MIFKUJ_clean_linker_0, # of connection points: 2
#     Edge 41, Type (0, 0), BuildingBlock: MIFKUJ_clean_linker_0, # of connection points: 2
#     Edge 42, Type (0, 0), BuildingBlock: MIFKUJ_clean_linker_0, # of connection points: 2
#     Edge 43, Type (0, 0), BuildingBlock: MIFKUJ_clean_linker_0, # of connection points: 2
#     Edge 44, Type (0, 0), BuildingBlock: MIFKUJ_clean_linker_0, # of connection points: 2
#     Edge 45, Type (0, 0), BuildingBlock: MIFKUJ_clean_linker_0, # of connection points: 2
#     Edge 46, Type (0, 0), BuildingBlock: MIFKUJ_clean_linker_0, # of connection points: 2
#     Edge 47, Type (0, 0), BuildingBlock: MIFKUJ_clean_linker_0, # of connection points: 2
# Relax obj value: 0.184
# Max RMSD: 0.228
# Mean RMSD: 0.182
data_MOF--net-gsi--node1-ICAMEG_clean_sbu_1--edge1-MIFKUJ_clean_linker_0
_symmetry_space_group_name_H-M    P1
_symmetry_Int_Tables_number       1
_symmetry_cell_setting            triclinic
loop_
_symmetry_equiv_pos_as_xyz
'x, y, z'
_cell_length_a     46.682183
_cell_length_b     60.982471
_cell_length_c     60.9341
_cell_angle_alpha  90.051815
_cell_angle_beta   89.976144
_cell_angle_gamma 99.283265
loop_
_atom_site_label
_atom_site_type_symbol
_atom_site_fract_x
_atom_site_fract_y
_atom_site_fract_z
_atom_type_partial_charge
Co0 Co 0.14082 0.15013 0.17121 0.0
Co1 Co 0.18511 0.1856 0.13797 0.0
O2 O 0.17095 0.15521 0.14842 0.0
C3 C 0.1825 0.11843 0.18263 0.0
O4 O 0.20202 0.12812 0.16879 0.0
C5 C 0.17912 0.15867 0.09651 0.0
O6 O 0.1541 0.14786 0.10336 0.0
O7 O 0.14503 0.1887 0.12878 0.0
O8 O 0.12168 0.17494 0.15913 0.0
H9 H 0.18235 0.26732 0.1304 0.0
H10 H 0.1516 0.11249 0.14321 0.0
O11 O 0.15808 0.12504 0.18464 0.0
H12 H 0.04854 0.11827 0.13186 0.0
H13 H 0.06796 0.10423 0.22059 0.0
H14 H 0.11355 0.18006 0.20001 0.0
H15 H 0.07876 0.14389 0.15707 0.0
H16 H 0.1051 0.11017 0.19147 0.0
O17 O 0.19332 0.17394 0.10827 0.0
H18 H 0.16471 0.22904 0.14271 0.0
H19 H 0.23516 0.20637 0.11044 0.0
H20 H 0.07629 0.17487 0.22908 0.0
H21 H 0.12209 0.08638 0.11804 0.0
H22 H 0.05323 0.13673 0.23955 0.0
H23 H 0.07016 0.0892 0.11219 0.0
O24 O 0.16582 0.17103 0.19098 0.0
H25 H 0.27174 0.14646 0.1429 0.0
H26 H 0.23125 0.21298 0.16503 0.0
H27 H 0.27984 0.20812 0.17808 0.0
H28 H 0.30048 0.17481 0.16685 0.0
H29 H 0.22285 0.15153 0.13086 0.0
H30 H 0.2534 0.24441 0.09763 0.0
H31 H 0.22704 0.27523 0.10774 0.0
O32 O 0.1781 0.19882 0.16722 0.0
C33 C 0.1229 0.18626 0.1414 0.0
C34 C 0.19404 0.25403 0.12591 0.0
C35 C 0.2339 0.24117 0.10749 0.0
N36 N 0.19893 0.21546 0.12738 0.0
C37 C 0.18417 0.23231 0.13284 0.0
C38 C 0.22339 0.21964 0.11473 0.0
C39 C 0.2191 0.25845 0.11318 0.0
C40 C 0.12896 0.11366 0.14097 0.0
N41 N 0.11689 0.12956 0.15179 0.0
C42 C 0.11238 0.0989 0.1266 0.0
C43 C 0.08326 0.10052 0.12329 0.0
C44 C 0.07112 0.11683 0.13431 0.0
C45 C 0.08837 0.13132 0.14854 0.0
C46 C 0.07781 0.12093 0.21615 0.0
C47 C 0.10349 0.16342 0.20438 0.0
C48 C 0.0989 0.1244 0.1997 0.0
N49 N 0.11132 0.14546 0.19393 0.0
C50 C 0.08246 0.16058 0.2209 0.0
C51 C 0.06955 0.13918 0.22677 0.0
C52 C 0.17631 0.19113 0.18666 0.0
C53 C 0.26299 0.16109 0.14787 0.0
C54 C 0.23988 0.19825 0.16031 0.0
C55 C 0.26751 0.1957 0.16762 0.0
C56 C 0.27909 0.17698 0.16132 0.0
N57 N 0.22406 0.18246 0.1473 0.0
C58 C 0.23536 0.16412 0.141 0.0
Co59 Co 0.86926 0.3492 0.16563 0.0
Co60 Co 0.83202 0.32122 0.12295 0.0
O61 O 0.84598 0.34911 0.13867 0.0
C62 C 0.8264 0.37925 0.17686 0.0
O63 O 0.80612 0.36627 0.16596 0.0
C64 C 0.84441 0.35657 0.0874 0.0
O65 O 0.85454 0.37209 0.10158 0.0
O66 O 0.87262 0.31515 0.12066 0.0
O67 O 0.88801 0.32378 0.1548 0.0
H68 H 0.8286 0.23986 0.10772 0.0
H69 H 0.87136 0.39161 0.14162 0.0
O70 O 0.85207 0.37477 0.17784 0.0
H71 H 0.97236 0.37735 0.14268 0.0
H72 H 0.9307 0.38474 0.22806 0.0
H73 H 0.88352 0.31406 0.19539 0.0
H74 H 0.93336 0.3513 0.16042 0.0
H75 H 0.90269 0.38455 0.19375 0.0
O76 O 0.8365 0.33653 0.09358 0.0
H77 H 0.84345 0.27507 0.12762 0.0
H78 H 0.79311 0.30813 0.08442 0.0
H79 H 0.91152 0.31349 0.22963 0.0
H80 H 0.90976 0.41828 0.12391 0.0
H81 H 0.93536 0.34902 0.2462 0.0
H82 H 0.96068 0.41117 0.12431 0.0
O83 O 0.83762 0.32803 0.1794 0.0
H84 H 0.75294 0.36851 0.11867 0.0
H85 H 0.77526 0.29392 0.13473 0.0
H86 H 0.7248 0.30066 0.13746 0.0
H87 H 0.71327 0.33814 0.12918 0.0
H88 H 0.80308 0.36121 0.11669 0.0
H89 H 0.77807 0.2733 0.06389 0.0
H90 H 0.79566 0.23884 0.0756 0.0
O91 O 0.82605 0.30438 0.15144 0.0
C92 C 0.89052 0.31442 0.13633 0.0
C93 C 0.82065 0.25475 0.10253 0.0
C94 C 0.7923 0.27354 0.07793 0.0
N95 N 0.81902 0.29362 0.10732 0.0
C96 C 0.82891 0.27473 0.11378 0.0
C97 C 0.801 0.29322 0.08957 0.0
C98 C 0.8022 0.2542 0.08449 0.0
C99 C 0.89348 0.38846 0.14194 0.0
N100 N 0.90005 0.36988 0.15196 0.0
C101 C 0.91513 0.4036 0.13185 0.0
C102 C 0.94369 0.39959 0.13206 0.0
C103 C 0.95024 0.38061 0.14234 0.0
C104 C 0.92803 0.36585 0.15227 0.0
C105 C 0.92048 0.36915 0.22098 0.0
C106 C 0.89397 0.32959 0.20242 0.0
C107 C 0.90454 0.36893 0.20156 0.0
N108 N 0.89168 0.34929 0.19246 0.0
C109 C 0.90974 0.32916 0.22185 0.0
C110 C 0.92308 0.3491 0.23114 0.0
C111 C 0.82502 0.30951 0.17173 0.0
C112 C 0.75764 0.35205 0.12214 0.0
C113 C 0.77056 0.31032 0.13124 0.0
C114 C 0.74187 0.31401 0.13275 0.0
C115 C 0.7354 0.33503 0.12809 0.0
N116 N 0.79228 0.32703 0.12515 0.0
C117 C 0.78608 0.34774 0.12082 0.0
Co118 Co 0.141 0.87736 0.31135 0.0
Co119 Co 0.18121 0.84483 0.34109 0.0
O120 O 0.17185 0.87422 0.33279 0.0
C121 C 0.18922 0.91603 0.30041 0.0
O122 O 0.20727 0.91041 0.31509 0.0
C123 C 0.18857 0.87173 0.38371 0.0
O124 O 0.18089 0.88943 0.3747 0.0
O125 O 0.13997 0.834 0.34894 0.0
O126 O 0.11616 0.8499 0.32301 0.0
H127 H 0.16526 0.7613 0.34139 0.0
H128 H 0.16352 0.91521 0.34083 0.0
O129 O 0.16387 0.90489 0.29813 0.0
H130 H 0.05828 0.89931 0.35486 0.0
H131 H 0.07637 0.91888 0.26664 0.0
H132 H 0.10326 0.84563 0.28277 0.0
H133 H 0.08078 0.87738 0.32776 0.0
H134 H 0.11414 0.91526 0.29407 0.0
O135 O 0.18914 0.85415 0.3725 0.0
H136 H 0.15475 0.7983 0.33119 0.0
H137 H 0.22679 0.82918 0.36875 0.0
H138 H 0.06509 0.84852 0.25545 0.0
H139 H 0.14194 0.9378 0.36778 0.0
H140 H 0.05145 0.88536 0.24722 0.0
H141 H 0.08891 0.92989 0.37503 0.0
O142 O 0.15911 0.85963 0.28936 0.0
H143 H 0.2752 0.89883 0.34007 0.0
H144 H 0.22488 0.82606 0.31435 0.0
H145 H 0.2757 0.83866 0.30359 0.0
H146 H 0.30131 0.87524 0.31656 0.0
H147 H 0.22433 0.88578 0.35011 0.0
H148 H 0.2379 0.79251 0.37951 0.0
H149 H 0.20709 0.75823 0.36574 0.0
O150 O 0.17383 0.83359 0.31053 0.0
C151 C 0.11692 0.83574 0.33832 0.0
C152 C 0.1789 0.77611 0.34745 0.0
C153 C 0.21963 0.79363 0.36887 0.0
N154 N 0.19021 0.81591 0.34924 0.0
C155 C 0.1731 0.79712 0.34168 0.0
C156 C 0.21318 0.81435 0.36276 0.0
C157 C 0.20235 0.77441 0.36113 0.0
C158 C 0.14045 0.91175 0.34367 0.0
N159 N 0.12349 0.89497 0.33262 0.0
C160 C 0.12833 0.92456 0.35907 0.0
C161 C 0.0986 0.92009 0.36315 0.0
C162 C 0.08142 0.90292 0.35187 0.0
C163 C 0.09432 0.89046 0.33661 0.0
C164 C 0.08208 0.90274 0.27014 0.0
C165 C 0.09728 0.8617 0.27942 0.0
C166 C 0.10351 0.90058 0.28561 0.0
N167 N 0.11076 0.8802 0.29016 0.0
C168 C 0.07572 0.86324 0.26387 0.0
C169 C 0.0681 0.88392 0.25925 0.0
C170 C 0.16861 0.84137 0.29185 0.0
C171 C 0.26435 0.88278 0.33443 0.0
C172 C 0.23576 0.84204 0.32005 0.0
C173 C 0.26461 0.84906 0.31391 0.0
C174 C 0.27897 0.86957 0.3212 0.0
N175 N 0.22156 0.85502 0.33317 0.0
C176 C 0.2355 0.87521 0.34023 0.0
Co177 Co 0.85224 0.62268 0.31077 0.0
Co178 Co 0.80316 0.64612 0.34271 0.0
O179 O 0.82145 0.62094 0.33303 0.0
C180 C 0.82419 0.59129 0.27675 0.0
O181 O 0.82747 0.60807 0.26298 0.0
C182 C 0.81467 0.6484 0.39042 0.0
O183 O 0.83012 0.66802 0.38677 0.0
O184 O 0.84201 0.66551 0.34557 0.0
O185 O 0.87335 0.65022 0.32463 0.0
H186 H 0.78845 0.72598 0.34333 0.0
H187 H 0.83496 0.58122 0.33621 0.0
O188 O 0.83157 0.59444 0.29685 0.0
H189 H 0.93913 0.60444 0.3517 0.0
H190 H 0.92356 0.59149 0.26236 0.0
H191 H 0.88515 0.659 0.28431 0.0
H192 H 0.91326 0.62639 0.32678 0.0
H193 H 0.885 0.58959 0.29031 0.0
O194 O 0.80457 0.63621 0.37424 0.0
H195 H 0.81103 0.69401 0.33155 0.0
H196 H 0.75551 0.65147 0.37421 0.0
H197 H 0.92382 0.66167 0.25638 0.0
H198 H 0.86006 0.55859 0.361 0.0
H199 H 0.94327 0.62775 0.24523 0.0
H200 H 0.91251 0.5702 0.36892 0.0
O201 O 0.83153 0.64111 0.29084 0.0
H202 H 0.73197 0.57572 0.35265 0.0
H203 H 0.74671 0.65137 0.32176 0.0
H204 H 0.69944 0.6272 0.31701 0.0
H205 H 0.69178 0.58909 0.33263 0.0
H206 H 0.77905 0.60037 0.35672 0.0
H207 H 0.73221 0.68288 0.3863 0.0
H208 H 0.74876 0.72052 0.37094 0.0
O209 O 0.80055 0.65624 0.312 0.0
C210 C 0.8673 0.66518 0.33768 0.0
C211 C 0.7811 0.70968 0.3502 0.0
C212 C 0.74956 0.68551 0.37434 0.0
N213 N 0.7847 0.6709 0.35223 0.0
C214 C 0.79382 0.69152 0.34361 0.0
C215 C 0.76286 0.66778 0.36743 0.0
C216 C 0.75883 0.70661 0.36568 0.0
C217 C 0.85782 0.58632 0.3395 0.0
N218 N 0.87263 0.60511 0.33006 0.0
C219 C 0.8719 0.57346 0.35358 0.0
C220 C 0.90132 0.58 0.35804 0.0
C221 C 0.91626 0.59922 0.3484 0.0
C222 C 0.90147 0.61165 0.3344 0.0
C223 C 0.91527 0.60639 0.26709 0.0
C224 C 0.89356 0.64417 0.27958 0.0
C225 C 0.89341 0.60541 0.28287 0.0
N226 N 0.88284 0.62417 0.28894 0.0
C227 C 0.91543 0.64579 0.26375 0.0
C228 C 0.92632 0.62674 0.25749 0.0
C229 C 0.81215 0.65342 0.29353 0.0
C230 C 0.73503 0.5923 0.34579 0.0
C231 C 0.74368 0.63474 0.32835 0.0
C232 C 0.7168 0.62116 0.32574 0.0
C233 C 0.7125 0.5998 0.33453 0.0
N234 N 0.76565 0.6273 0.33946 0.0
C235 C 0.76162 0.60635 0.34808 0.0
Co236 Co 0.36766 0.85945 0.66445 0.0
Co237 Co 0.32239 0.82319 0.63264 0.0
O238 O 0.33712 0.85375 0.64215 0.0
C239 C 0.32484 0.88661 0.68217 0.0
O240 O 0.30395 0.86961 0.67959 0.0
C241 C 0.32831 0.84938 0.59075 0.0
O242 O 0.35241 0.86121 0.59806 0.0
O243 O 0.36228 0.81915 0.6237 0.0
O244 O 0.38638 0.83408 0.65332 0.0
H245 H 0.32357 0.74106 0.6276 0.0
H246 H 0.35663 0.89653 0.63609 0.0
O247 O 0.35066 0.88525 0.67624 0.0
H248 H 0.45894 0.88941 0.62286 0.0
H249 H 0.44179 0.90737 0.71126 0.0
H250 H 0.39532 0.83076 0.69432 0.0
H251 H 0.42929 0.8647 0.64912 0.0
H252 H 0.40408 0.90017 0.68265 0.0
O253 O 0.31447 0.83389 0.60245 0.0
H254 H 0.34174 0.77958 0.63894 0.0
H255 H 0.27206 0.80207 0.60556 0.0
H256 H 0.43315 0.83718 0.7229 0.0
H257 H 0.38562 0.92182 0.6099 0.0
H258 H 0.45665 0.87572 0.73154 0.0
H259 H 0.43714 0.91828 0.60308 0.0
O260 O 0.34304 0.83931 0.68521 0.0
H261 H 0.23847 0.86513 0.63789 0.0
H262 H 0.27543 0.79708 0.65985 0.0
H263 H 0.2275 0.80344 0.6731 0.0
H264 H 0.20865 0.83755 0.66197 0.0
H265 H 0.28661 0.85844 0.6255 0.0
H266 H 0.25323 0.76376 0.59374 0.0
H267 H 0.27895 0.73293 0.60488 0.0
O268 O 0.32904 0.81093 0.66234 0.0
C269 C 0.38469 0.82205 0.63603 0.0
C270 C 0.31214 0.75435 0.62267 0.0
C271 C 0.27269 0.7671 0.60365 0.0
N272 N 0.30792 0.79308 0.62301 0.0
C273 C 0.32231 0.77621 0.62906 0.0
C274 C 0.2835 0.78877 0.61033 0.0
C275 C 0.28713 0.7498 0.6099 0.0
C276 C 0.37911 0.89502 0.63334 0.0
N277 N 0.39123 0.87915 0.64411 0.0
C278 C 0.39538 0.90933 0.61844 0.0
C279 C 0.42427 0.90731 0.6146 0.0
C280 C 0.43651 0.8911 0.62566 0.0
C281 C 0.41956 0.87708 0.64044 0.0
C282 C 0.43172 0.8905 0.70764 0.0
C283 C 0.40552 0.84757 0.69793 0.0
C284 C 0.41028 0.88633 0.69151 0.0
N285 N 0.39757 0.86506 0.68678 0.0
C286 C 0.4269 0.85111 0.71416 0.0
C287 C 0.44006 0.87274 0.71901 0.0
C288 C 0.33178 0.8192 0.68155 0.0
C289 C 0.24639 0.85012 0.64274 0.0
C290 C 0.26746 0.81204 0.65502 0.0
C291 C 0.24025 0.81549 0.66251 0.0
C292 C 0.22969 0.83466 0.65628 0.0
N293 N 0.28378 0.82733 0.64181 0.0
C294 C 0.27356 0.84618 0.63567 0.0
Co295 Co 0.89216 0.87663 0.8481 0.0
Co296 Co 0.82994 0.88074 0.87666 0.0
O297 O 0.87075 0.87614 0.87593 0.0
C298 C 0.90622 0.8355 0.86934 0.0
O299 O 0.87906 0.83018 0.87555 0.0
C300 C 0.85733 0.90228 0.91834 0.0
O301 O 0.88339 0.89932 0.91228 0.0
O302 O 0.84054 0.90963 0.86093 0.0
O303 O 0.87103 0.8999 0.83571 0.0
H304 H 0.73895 0.90092 0.84384 0.0
H305 H 0.92606 0.88226 0.88932 0.0
O306 O 0.91464 0.85358 0.85912 0.0
H307 H 0.95852 0.95054 0.84683 0.0
H308 H 0.98041 0.87555 0.80071 0.0
H309 H 0.87509 0.87691 0.80129 0.0
H310 H 0.92173 0.9208 0.83178 0.0
H311 H 0.95401 0.8761 0.83572 0.0
O312 O 0.8356 0.89673 0.9057 0.0
H313 H 0.78965 0.89421 0.84355 0.0
H314 H 0.78422 0.87811 0.91142 0.0
H315 H 0.90066 0.87649 0.76591 0.0
H316 H 0.96323 0.91147 0.90491 0.0
H317 H 0.95372 0.87581 0.76548 0.0
H318 H 0.97961 0.94595 0.88364 0.0
O319 O 0.86209 0.85277 0.8364 0.0
H320 H 0.84224 0.82279 0.93333 0.0
H321 H 0.78271 0.84186 0.87157 0.0
H322 H 0.76912 0.80597 0.8904 0.0
H323 H 0.79886 0.79628 0.92163 0.0
H324 H 0.85532 0.85826 0.91385 0.0
H325 H 0.7336 0.88493 0.91247 0.0
H326 H 0.71058 0.89628 0.87849 0.0
O327 O 0.82167 0.86457 0.84801 0.0
C328 C 0.85481 0.91318 0.84306 0.0
C329 C 0.74871 0.8959 0.85874 0.0
C330 C 0.74573 0.88694 0.89727 0.0
N331 N 0.78986 0.88564 0.87739 0.0
C332 C 0.7774 0.89202 0.85866 0.0
C333 C 0.77444 0.88319 0.89657 0.0
C334 C 0.73282 0.89332 0.87819 0.0
C335 C 0.93317 0.89719 0.87994 0.0
N336 N 0.92154 0.89989 0.85975 0.0
C337 C 0.95418 0.91368 0.88886 0.0
C338 C 0.96334 0.93303 0.87693 0.0
C339 C 0.95148 0.93563 0.8563 0.0
C340 C 0.9305 0.91878 0.84791 0.0
C341 C 0.95731 0.87589 0.80069 0.0
C342 C 0.8982 0.87672 0.80124 0.0
C343 C 0.94223 0.87616 0.82046 0.0
N344 N 0.91306 0.87668 0.82056 0.0
C345 C 0.91255 0.87644 0.78115 0.0
C346 C 0.94232 0.87604 0.78092 0.0
C347 C 0.83466 0.85199 0.83611 0.0
C348 C 0.82897 0.8269 0.91985 0.0
C349 C 0.79584 0.8378 0.88511 0.0
C350 C 0.78799 0.81744 0.89573 0.0
C351 C 0.80467 0.81201 0.91325 0.0
N352 N 0.81953 0.85248 0.89183 0.0
C353 C 0.83614 0.84712 0.90885 0.0
Co354 Co 0.11556 0.63555 0.84516 0.0
Co355 Co 0.1827 0.63632 0.86962 0.0
O356 O 0.14136 0.63951 0.87088 0.0
C357 C 0.10636 0.6796 0.86283 0.0
O358 O 0.1342 0.68453 0.86713 0.0
C359 C 0.16006 0.61447 0.91222 0.0
O360 O 0.13309 0.61377 0.90592 0.0
O361 O 0.17289 0.60651 0.85536 0.0
O362 O 0.13396 0.60996 0.83476 0.0
H363 H 0.27246 0.61851 0.83273 0.0
H364 H 0.08922 0.63745 0.88919 0.0
O365 O 0.09587 0.66084 0.85459 0.0
H366 H 0.04687 0.56427 0.85919 0.0
H367 H 0.02034 0.63207 0.80537 0.0
H368 H 0.12422 0.62683 0.79801 0.0
H369 H 0.08167 0.59026 0.83748 0.0
H370 H 0.05249 0.63648 0.83772 0.0
O371 O 0.18096 0.6219 0.89942 0.0
H372 H 0.22095 0.62293 0.83494 0.0
H373 H 0.23183 0.64272 0.90169 0.0
H374 H 0.09277 0.6221 0.76525 0.0
H375 H 0.05398 0.61222 0.91135 0.0
H376 H 0.04042 0.62473 0.76883 0.0
H377 H 0.0327 0.57525 0.89643 0.0
O378 O 0.14365 0.65678 0.82779 0.0
H379 H 0.16961 0.6959 0.92414 0.0
H380 H 0.22661 0.6767 0.86091 0.0
H381 H 0.23815 0.71396 0.8774 0.0
H382 H 0.20955 0.72382 0.90928 0.0
H383 H 0.15905 0.65881 0.90736 0.0
H384 H 0.28337 0.63833 0.90023 0.0
H385 H 0.30405 0.62623 0.86554 0.0
O386 O 0.18698 0.65106 0.84029 0.0
C387 C 0.15434 0.59951 0.8405 0.0
C388 C 0.26373 0.62384 0.84792 0.0
C389 C 0.26984 0.63493 0.88582 0.0
N390 N 0.2234 0.63317 0.86838 0.0
C391 C 0.23459 0.62642 0.84927 0.0
C392 C 0.2406 0.63732 0.88656 0.0
C393 C 0.28143 0.62815 0.86635 0.0
C394 C 0.07991 0.62146 0.88252 0.0
N395 N 0.08785 0.6152 0.86217 0.0
C396 C 0.06004 0.60721 0.89518 0.0
C397 C 0.04814 0.58646 0.88681 0.0
C398 C 0.05614 0.58027 0.86595 0.0
C399 C 0.07609 0.59496 0.85379 0.0
C400 C 0.0431 0.63085 0.80361 0.0
C401 C 0.10142 0.62785 0.79971 0.0
C402 C 0.06143 0.63338 0.82186 0.0
N403 N 0.09017 0.63175 0.81977 0.0
C404 C 0.08374 0.62522 0.7811 0.0
C405 C 0.05438 0.62672 0.78312 0.0
C406 C 0.17128 0.65986 0.82685 0.0
C407 C 0.18246 0.69176 0.91042 0.0
C408 C 0.21413 0.68078 0.87483 0.0
C409 C 0.22077 0.70194 0.8841 0.0
C410 C 0.20476 0.70744 0.902 0.0
N411 N 0.19237 0.6654 0.88329 0.0
C412 C 0.17665 0.67069 0.90088 0.0
Co413 Co 0.83949 0.16161 0.65172 0.0
Co414 Co 0.82509 0.15206 0.70617 0.0
O415 O 0.82417 0.14164 0.67564 0.0
C416 C 0.78181 0.1433 0.63145 0.0
O417 O 0.76826 0.14945 0.64874 0.0
C418 C 0.84853 0.10933 0.71148 0.0
O419 O 0.86737 0.11524 0.6957 0.0
O420 O 0.86804 0.162 0.70453 0.0
O421 O 0.87055 0.1776 0.67118 0.0
H422 H 0.85488 0.20598 0.76762 0.0
H423 H 0.8313 0.11293 0.64511 0.0
O424 O 0.80945 0.14616 0.63095 0.0
H425 H 0.93552 0.13899 0.6322 0.0
H426 H 0.86954 0.18068 0.57372 0.0
H427 H 0.85979 0.21014 0.64827 0.0
H428 H 0.90276 0.16557 0.64139 0.0
H429 H 0.85116 0.15558 0.60406 0.0
O430 O 0.83054 0.12197 0.71696 0.0
H431 H 0.85272 0.19292 0.72927 0.0
H432 H 0.79976 0.13262 0.74821 0.0
H433 H 0.87857 0.2358 0.61845 0.0
H434 H 0.86324 0.08576 0.63574 0.0
H435 H 0.88352 0.2211 0.58084 0.0
H436 H 0.91577 0.09876 0.62927 0.0
O437 O 0.81325 0.18308 0.6603 0.0
H438 H 0.73188 0.09958 0.69384 0.0
H439 H 0.77548 0.17335 0.72179 0.0
H440 H 0.72234 0.16225 0.72271 0.0
H441 H 0.70018 0.12513 0.70864 0.0
H442 H 0.78499 0.11138 0.69319 0.0
H443 H 0.80158 0.14493 0.78681 0.0
H444 H 0.82921 0.1819 0.79672 0.0
O445 O 0.81896 0.18229 0.69677 0.0
C446 C 0.88136 0.17496 0.69004 0.0
C447 C 0.84272 0.18985 0.76351 0.0
C448 C 0.81285 0.15558 0.77428 0.0
N449 N 0.82605 0.16206 0.73646 0.0
C450 C 0.84137 0.18238 0.7418 0.0
C451 C 0.81197 0.14867 0.7524 0.0
C452 C 0.82834 0.17633 0.77982 0.0
C453 C 0.8541 0.11872 0.64216 0.0
N454 N 0.86513 0.14081 0.64374 0.0
C455 C 0.8721 0.10326 0.63692 0.0
C456 C 0.90157 0.11055 0.63332 0.0
C457 C 0.91267 0.13312 0.63498 0.0
C458 C 0.89403 0.14809 0.64026 0.0
C459 C 0.86748 0.18729 0.59003 0.0
C460 C 0.86197 0.20359 0.63197 0.0
C461 C 0.85697 0.17316 0.60727 0.0
N462 N 0.85443 0.18137 0.62794 0.0
C463 C 0.87258 0.21822 0.61514 0.0
C464 C 0.87533 0.20996 0.59404 0.0
C465 C 0.81102 0.19126 0.67939 0.0
C466 C 0.74128 0.11578 0.70005 0.0
C467 C 0.76603 0.15717 0.71562 0.0
C468 C 0.73591 0.15098 0.7162 0.0
C469 C 0.7235 0.13014 0.70833 0.0
N470 N 0.78333 0.14297 0.70754 0.0
C471 C 0.77133 0.12252 0.69978 0.0
Co472 Co 0.18237 0.34858 0.65602 0.0
Co473 Co 0.1966 0.35925 0.71154 0.0
O474 O 0.19627 0.3685 0.68057 0.0
C475 C 0.23491 0.35279 0.62786 0.0
O476 O 0.23484 0.33152 0.63122 0.0
C477 C 0.17265 0.40265 0.71195 0.0
O478 O 0.17164 0.40301 0.69046 0.0
O479 O 0.15594 0.34269 0.70939 0.0
O480 O 0.14858 0.3343 0.6737 0.0
H481 H 0.18013 0.30366 0.77291 0.0
H482 H 0.19604 0.39691 0.64667 0.0
O483 O 0.21631 0.3627 0.63753 0.0
H484 H 0.09184 0.37583 0.63012 0.0
H485 H 0.15928 0.33019 0.5767 0.0
H486 H 0.15865 0.3006 0.652 0.0
H487 H 0.12054 0.3478 0.643 0.0
H488 H 0.17652 0.35481 0.60767 0.0
O489 O 0.181 0.38647 0.722 0.0
H490 H 0.18045 0.31618 0.73442 0.0
H491 H 0.21323 0.38232 0.75411 0.0
H492 H 0.14132 0.27536 0.62145 0.0
H493 H 0.1683 0.42538 0.63336 0.0
H494 H 0.14163 0.29013 0.58345 0.0
H495 H 0.11576 0.41494 0.62512 0.0
O496 O 0.20492 0.32559 0.66675 0.0
H497 H 0.27749 0.42356 0.69948 0.0
H498 H 0.25129 0.34849 0.73076 0.0
H499 H 0.30176 0.36778 0.73355 0.0
H500 H 0.31513 0.40567 0.71796 0.0
H501 H 0.22748 0.40358 0.69676 0.0
H502 H 0.21299 0.37054 0.79282 0.0
H503 H 0.19647 0.33094 0.80242 0.0
O504 O 0.21252 0.33216 0.70276 0.0
C505 C 0.1405 0.33317 0.69371 0.0
C506 C 0.18746 0.32095 0.76893 0.0
C507 C 0.20585 0.3585 0.7801 0.0
N508 N 0.197 0.34992 0.74199 0.0
C509 C 0.18777 0.32813 0.74715 0.0
C510 C 0.20585 0.36507 0.75816 0.0
C511 C 0.1966 0.33627 0.78548 0.0
C512 C 0.17327 0.39216 0.64288 0.0
N513 N 0.15993 0.3707 0.64569 0.0
C514 C 0.15763 0.40839 0.63546 0.0
C515 C 0.12815 0.40253 0.63088 0.0
C516 C 0.1147 0.3806 0.63372 0.0
C517 C 0.13103 0.36482 0.64118 0.0
C518 C 0.15915 0.32353 0.59315 0.0
C519 C 0.15885 0.30715 0.63551 0.0
C520 C 0.16887 0.3374 0.61077 0.0
N521 N 0.16861 0.32915 0.63164 0.0
C522 C 0.14902 0.29278 0.61828 0.0
C523 C 0.1492 0.30107 0.59696 0.0
C524 C 0.21493 0.32105 0.68535 0.0
C525 C 0.27189 0.40712 0.70648 0.0
C526 C 0.25689 0.36495 0.72389 0.0
C527 C 0.28553 0.37581 0.72555 0.0
C528 C 0.29301 0.39706 0.71681 0.0
N529 N 0.23618 0.375 0.71393 0.0
C530 C 0.24347 0.39575 0.70512 0.0
Co531 Co 0.61937 0.13197 0.3496 0.0
Co532 Co 0.68845 0.13575 0.3709 0.0
O533 O 0.64703 0.13807 0.37401 0.0
C534 C 0.60856 0.176 0.36605 0.0
O535 O 0.63654 0.18195 0.3692 0.0
C536 C 0.67035 0.11332 0.41397 0.0
O537 O 0.64413 0.10656 0.40637 0.0
O538 O 0.67863 0.10479 0.3592 0.0
O539 O 0.63889 0.10699 0.33916 0.0
H540 H 0.7758 0.11696 0.33133 0.0
H541 H 0.59644 0.13465 0.39462 0.0
O542 O 0.59851 0.15665 0.35898 0.0
H543 H 0.5571 0.05912 0.36887 0.0
H544 H 0.52075 0.12268 0.31397 0.0
H545 H 0.62506 0.12148 0.30247 0.0
H546 H 0.58838 0.0853 0.34485 0.0
H547 H 0.55529 0.13002 0.34473 0.0
O548 O 0.68978 0.12412 0.4017 0.0
H549 H 0.72416 0.12031 0.33561 0.0
H550 H 0.74041 0.14606 0.40001 0.0
H551 H 0.59123 0.11378 0.27132 0.0
H552 H 0.5648 0.10914 0.4191 0.0
H553 H 0.53865 0.11438 0.27696 0.0
H554 H 0.54502 0.07103 0.40629 0.0
O555 O 0.64479 0.15327 0.33046 0.0
H556 H 0.68021 0.19812 0.42334 0.0
H557 H 0.72855 0.17646 0.35662 0.0
H558 H 0.74016 0.21494 0.37022 0.0
H559 H 0.71599 0.22598 0.40387 0.0
H560 H 0.6689 0.15991 0.40897 0.0
H561 H 0.79217 0.14281 0.39648 0.0
H562 H 0.8102 0.12824 0.36191 0.0
O563 O 0.68936 0.14789 0.34035 0.0
C564 C 0.65979 0.09706 0.34479 0.0
C565 C 0.76822 0.12337 0.34646 0.0
C566 C 0.7774 0.13784 0.38304 0.0
N567 N 0.72927 0.13345 0.368 0.0
C568 C 0.73901 0.12534 0.34897 0.0
C569 C 0.74803 0.13958 0.38496 0.0
C570 C 0.7875 0.12968 0.36363 0.0
C571 C 0.5877 0.11816 0.38887 0.0
N572 N 0.59437 0.11144 0.36836 0.0
C573 C 0.56989 0.10376 0.40283 0.0
C574 C 0.55884 0.08236 0.39564 0.0
C575 C 0.56566 0.07566 0.37467 0.0
C576 C 0.58355 0.09051 0.36118 0.0
C577 C 0.5436 0.12234 0.31131 0.0
C578 C 0.60219 0.12163 0.30509 0.0
C579 C 0.56328 0.12653 0.32866 0.0
N580 N 0.59215 0.12602 0.32544 0.0
C581 C 0.58315 0.11732 0.28737 0.0
C582 C 0.55366 0.11767 0.29055 0.0
C583 C 0.67219 0.15612 0.32763 0.0
C584 C 0.69096 0.1935 0.4087 0.0
C585 C 0.71779 0.18114 0.37119 0.0
C586 C 0.72454 0.20295 0.37886 0.0
C587 C 0.711 0.20913 0.39775 0.0
N588 N 0.69813 0.16589 0.38203 0.0
C589 C 0.68476 0.17184 0.40056 0.0
Co590 Co 0.63297 0.65751 0.67121 0.0
Co591 Co 0.67724 0.69235 0.63759 0.0
O592 O 0.66343 0.66219 0.64865 0.0
C593 C 0.67586 0.62888 0.68656 0.0
O594 O 0.69748 0.64309 0.67865 0.0
C595 C 0.67125 0.66547 0.59589 0.0
O596 O 0.64512 0.65579 0.6016 0.0
O597 O 0.63705 0.69491 0.62822 0.0
O598 O 0.61399 0.68228 0.65899 0.0
H599 H 0.67171 0.77327 0.62698 0.0
H600 H 0.64399 0.61974 0.6438 0.0
O601 O 0.6498 0.63225 0.68442 0.0
H602 H 0.54109 0.62547 0.63135 0.0
H603 H 0.55956 0.61212 0.72056 0.0
H604 H 0.6058 0.68772 0.69976 0.0
H605 H 0.57092 0.65116 0.65673 0.0
H606 H 0.5968 0.61777 0.6915 0.0
O607 O 0.68572 0.68001 0.60829 0.0
H608 H 0.65606 0.73551 0.64142 0.0
H609 H 0.72653 0.71289 0.60913 0.0
H610 H 0.56848 0.68283 0.72878 0.0
H611 H 0.61488 0.59355 0.6184 0.0
H612 H 0.54508 0.6448 0.73936 0.0
H613 H 0.56305 0.59637 0.61202 0.0
O614 O 0.65798 0.67861 0.69087 0.0
H615 H 0.76432 0.65393 0.64422 0.0
H616 H 0.72368 0.72139 0.66277 0.0
H617 H 0.77295 0.71791 0.67522 0.0
H618 H 0.79365 0.68402 0.66588 0.0
H619 H 0.71488 0.65791 0.63245 0.0
H620 H 0.74283 0.75041 0.59422 0.0
H621 H 0.71539 0.78094 0.60319 0.0
O622 O 0.67033 0.70604 0.6667 0.0
C623 C 0.61495 0.69282 0.64082 0.0
C624 C 0.68388 0.76012 0.62299 0.0
C625 C 0.72377 0.74728 0.60458 0.0
N626 N 0.69042 0.722 0.62621 0.0
C627 C 0.67516 0.7387 0.63115 0.0
C628 C 0.71439 0.72605 0.61302 0.0
C629 C 0.70838 0.76441 0.60963 0.0
C630 C 0.62139 0.62095 0.64122 0.0
N631 N 0.60916 0.6369 0.65179 0.0
C632 C 0.60504 0.60612 0.62677 0.0
C633 C 0.57597 0.60773 0.62318 0.0
C634 C 0.56365 0.62407 0.63401 0.0
C635 C 0.58067 0.63861 0.64832 0.0
C636 C 0.56956 0.62877 0.71607 0.0
C637 C 0.59561 0.67113 0.70419 0.0
C638 C 0.5907 0.63208 0.69966 0.0
N639 N 0.60332 0.65307 0.69383 0.0
C640 C 0.57454 0.66846 0.72067 0.0
C641 C 0.56144 0.64712 0.72661 0.0
C642 C 0.66889 0.69861 0.68629 0.0
C643 C 0.75555 0.66878 0.64838 0.0
C644 C 0.73237 0.70648 0.65883 0.0
C645 C 0.76037 0.70466 0.66583 0.0
C646 C 0.77198 0.68566 0.66056 0.0
N647 N 0.71633 0.68981 0.64697 0.0
C648 C 0.72761 0.67117 0.64168 0.0
Co649 Co 0.64656 0.37952 0.80622 0.0
Co650 Co 0.68996 0.35426 0.84007 0.0
O651 O 0.67636 0.38117 0.82929 0.0
C652 C 0.68846 0.42226 0.797 0.0
O653 O 0.70582 0.41867 0.81305 0.0
C654 C 0.68655 0.36018 0.88837 0.0
O655 O 0.66639 0.34248 0.88866 0.0
O656 O 0.64927 0.34135 0.84793 0.0
O657 O 0.62621 0.35027 0.8178 0.0
H658 H 0.68459 0.27178 0.84899 0.0
H659 H 0.65806 0.41916 0.83559 0.0
O660 O 0.6653 0.40865 0.79306 0.0
H661 H 0.55386 0.39011 0.84404 0.0
H662 H 0.57682 0.41014 0.75613 0.0
H663 H 0.61815 0.34361 0.7769 0.0
H664 H 0.58419 0.37175 0.81914 0.0
H665 H 0.61305 0.41198 0.78577 0.0
O666 O 0.69671 0.36823 0.87008 0.0
H667 H 0.66892 0.30598 0.83528 0.0
H668 H 0.73921 0.34531 0.86834 0.0
H669 H 0.5817 0.34097 0.74733 0.0
H670 H 0.62845 0.43824 0.86036 0.0
H671 H 0.56079 0.37441 0.73675 0.0
H672 H 0.57592 0.42372 0.86476 0.0
O673 O 0.67069 0.36392 0.7866 0.0
H674 H 0.77704 0.41463 0.83732 0.0
H675 H 0.73749 0.33806 0.81488 0.0
H676 H 0.78701 0.35444 0.80367 0.0
H677 H 0.80716 0.39301 0.81492 0.0
H678 H 0.72738 0.39769 0.84789 0.0
H679 H 0.75552 0.31156 0.88254 0.0
H680 H 0.72817 0.27444 0.87283 0.0
O681 O 0.68456 0.33974 0.81042 0.0
C682 C 0.62723 0.33896 0.83531 0.0
C683 C 0.69669 0.28786 0.85334 0.0
C684 C 0.73649 0.31018 0.87218 0.0
N685 N 0.70308 0.32765 0.85102 0.0
C686 C 0.68792 0.30729 0.84562 0.0
C687 C 0.7271 0.32924 0.86413 0.0
C688 C 0.72113 0.28936 0.86672 0.0
C689 C 0.6352 0.41291 0.83709 0.0
N690 N 0.62287 0.39459 0.82555 0.0
C691 C 0.61853 0.42372 0.85129 0.0
C692 C 0.58908 0.41554 0.85379 0.0
C693 C 0.57669 0.39669 0.84217 0.0
C694 C 0.59402 0.38635 0.8281 0.0
C695 C 0.58571 0.39544 0.76062 0.0
C696 C 0.60898 0.35818 0.77252 0.0
C697 C 0.60629 0.39638 0.77737 0.0
N698 N 0.61753 0.37785 0.78321 0.0
C699 C 0.58842 0.35661 0.75571 0.0
C700 C 0.57672 0.37539 0.74977 0.0
C701 C 0.68118 0.34636 0.79085 0.0
C702 C 0.76849 0.39783 0.83228 0.0
C703 C 0.7459 0.35494 0.81962 0.0
C704 C 0.77406 0.36408 0.81333 0.0
C705 C 0.78537 0.3857 0.81969 0.0
N706 N 0.72939 0.36697 0.83187 0.0
C707 C 0.7404 0.38813 0.83826 0.0
Co708 Co 0.36119 0.12752 0.81733 0.0
Co709 Co 0.31204 0.15684 0.84018 0.0
O710 O 0.32775 0.12903 0.83649 0.0
C711 C 0.31965 0.08901 0.80034 0.0
O712 O 0.29961 0.10183 0.79957 0.0
C713 C 0.31321 0.13991 0.88652 0.0
O714 O 0.33742 0.13221 0.88269 0.0
O715 O 0.35081 0.17261 0.84997 0.0
O716 O 0.3791 0.15849 0.82567 0.0
H717 H 0.31242 0.23888 0.83185 0.0
H718 H 0.34439 0.09162 0.84973 0.0
O719 O 0.34466 0.09644 0.80816 0.0
H720 H 0.44441 0.12504 0.8694 0.0
H721 H 0.44047 0.09096 0.78427 0.0
H722 H 0.39465 0.15836 0.7855 0.0
H723 H 0.41989 0.13909 0.83778 0.0
H724 H 0.39844 0.09309 0.80826 0.0
O725 O 0.30098 0.14935 0.87136 0.0
H726 H 0.33177 0.20383 0.82747 0.0
H727 H 0.2586 0.16866 0.86087 0.0
H728 H 0.43687 0.15705 0.76148 0.0
H729 H 0.36824 0.07688 0.88137 0.0
H730 H 0.46008 0.12316 0.76076 0.0
H731 H 0.41859 0.09368 0.89141 0.0
O732 O 0.34117 0.13928 0.79208 0.0
H733 H 0.22916 0.09315 0.83963 0.0
H734 H 0.26874 0.16533 0.80629 0.0
H735 H 0.22294 0.14409 0.79219 0.0
H736 H 0.20267 0.10794 0.80909 0.0
H737 H 0.27546 0.11444 0.85261 0.0
H738 H 0.23861 0.20338 0.86578 0.0
H739 H 0.26555 0.23882 0.85117 0.0
O740 O 0.3219 0.16593 0.80928 0.0
C741 C 0.37486 0.17308 0.83984 0.0
C742 C 0.30049 0.22355 0.8383 0.0
C743 C 0.25907 0.20363 0.85736 0.0
N744 N 0.29632 0.18419 0.84387 0.0
C745 C 0.31131 0.20363 0.83584 0.0
C746 C 0.27054 0.18403 0.85456 0.0
C747 C 0.2742 0.22351 0.84916 0.0
C748 C 0.36639 0.09887 0.85391 0.0
N749 N 0.38073 0.11614 0.8419 0.0
C750 C 0.37974 0.09052 0.87188 0.0
C751 C 0.40798 0.09998 0.87752 0.0
C752 C 0.42247 0.11759 0.86519 0.0
C753 C 0.40842 0.12552 0.84735 0.0
C754 C 0.43058 0.10583 0.78447 0.0
C755 C 0.40473 0.14361 0.78538 0.0
C756 C 0.40672 0.10711 0.79796 0.0
N757 N 0.39423 0.1259 0.7984 0.0
C758 C 0.42858 0.14294 0.7717 0.0
C759 C 0.44158 0.12391 0.77129 0.0
C760 C 0.32937 0.15668 0.79197 0.0
C761 C 0.23763 0.10902 0.83226 0.0
C762 C 0.26014 0.14954 0.81365 0.0
C763 C 0.23413 0.13766 0.80568 0.0
C764 C 0.22281 0.11731 0.81512 0.0
N765 N 0.27466 0.14124 0.83039 0.0
C766 C 0.26374 0.12124 0.83966 0.0
Co767 Co 0.3979 0.3739 0.34661 0.0
Co768 Co 0.33197 0.37545 0.37137 0.0
O769 O 0.37273 0.37076 0.37268 0.0
C770 C 0.40761 0.3303 0.36496 0.0
O771 O 0.37975 0.32521 0.36914 0.0
C772 C 0.35473 0.39413 0.41539 0.0
O773 O 0.38152 0.39256 0.41001 0.0
O774 O 0.3441 0.40554 0.35832 0.0
O775 O 0.37916 0.39894 0.33529 0.0
H776 H 0.24512 0.39837 0.33461 0.0
H777 H 0.42615 0.37385 0.3901 0.0
O778 O 0.41797 0.34908 0.35672 0.0
H779 H 0.46528 0.44645 0.35741 0.0
H780 H 0.49231 0.37634 0.30591 0.0
H781 H 0.38799 0.38028 0.29917 0.0
H782 H 0.43017 0.41937 0.33709 0.0
H783 H 0.46088 0.37316 0.33866 0.0
O784 O 0.33413 0.38893 0.40168 0.0
H785 H 0.29574 0.39169 0.33697 0.0
H786 H 0.28225 0.37004 0.40297 0.0
H787 H 0.41869 0.38373 0.266 0.0
H788 H 0.46165 0.40028 0.41088 0.0
H789 H 0.47126 0.38176 0.26926 0.0
H790 H 0.48135 0.43694 0.39457 0.0
O791 O 0.36931 0.35205 0.33052 0.0
H792 H 0.3388 0.31283 0.42401 0.0
H793 H 0.28546 0.33724 0.36121 0.0
H794 H 0.27041 0.29983 0.37641 0.0
H795 H 0.29717 0.28729 0.40804 0.0
H796 H 0.35324 0.35008 0.4082 0.0
H797 H 0.23159 0.37669 0.40137 0.0
H798 H 0.21266 0.39086 0.36698 0.0
O799 O 0.32722 0.36174 0.34139 0.0
C800 C 0.36114 0.41104 0.34215 0.0
C801 C 0.25309 0.39213 0.34967 0.0
C802 C 0.24551 0.38 0.38715 0.0
N803 N 0.29192 0.38035 0.37003 0.0
C804 C 0.28171 0.38827 0.35109 0.0
C805 C 0.27426 0.37634 0.38797 0.0
C806 C 0.2349 0.38794 0.36785 0.0
C807 C 0.43477 0.3897 0.38284 0.0
N808 N 0.42589 0.39511 0.36247 0.0
C809 C 0.4548 0.40463 0.39471 0.0
C810 C 0.46582 0.42521 0.38556 0.0
C811 C 0.45677 0.43057 0.36473 0.0
C812 C 0.43671 0.41522 0.35335 0.0
C813 C 0.46945 0.37727 0.30428 0.0
C814 C 0.41088 0.37953 0.30073 0.0
C815 C 0.45153 0.37544 0.32277 0.0
N816 N 0.42266 0.3767 0.32085 0.0
C817 C 0.42814 0.38144 0.28189 0.0
C818 C 0.45762 0.38032 0.28372 0.0
C819 C 0.34191 0.35094 0.32888 0.0
C820 C 0.32689 0.3181 0.41028 0.0
C821 C 0.29728 0.33199 0.37494 0.0
C822 C 0.28863 0.31074 0.3835 0.0
C823 C 0.30359 0.30376 0.40128 0.0
N824 N 0.32005 0.34606 0.38392 0.0
C825 C 0.33485 0.33929 0.40133 0.0
Co826 Co 0.33399 0.6619 0.15161 0.0
Co827 Co 0.3216 0.64667 0.20619 0.0
O828 O 0.32197 0.63997 0.17469 0.0
C829 C 0.28087 0.6582 0.12429 0.0
O830 O 0.28048 0.67917 0.12896 0.0
C831 C 0.35899 0.61679 0.22546 0.0
O832 O 0.37492 0.63468 0.2336 0.0
O833 O 0.36169 0.66452 0.20463 0.0
O834 O 0.36775 0.67562 0.16951 0.0
H835 H 0.3374 0.69628 0.27243 0.0
H836 H 0.32307 0.61391 0.14075 0.0
O837 O 0.30007 0.64813 0.1329 0.0
H838 H 0.42507 0.63985 0.12016 0.0
H839 H 0.35372 0.68716 0.07351 0.0
H840 H 0.35536 0.71041 0.15111 0.0
H841 H 0.39511 0.66591 0.13559 0.0
H842 H 0.33855 0.65977 0.10272 0.0
O843 O 0.33796 0.61873 0.21259 0.0
H844 H 0.33778 0.68733 0.23297 0.0
H845 H 0.30369 0.61984 0.24654 0.0
H846 H 0.37091 0.7383 0.1224 0.0
H847 H 0.35213 0.58731 0.12512 0.0
H848 H 0.37013 0.72675 0.08331 0.0
H849 H 0.40354 0.60024 0.11474 0.0
O850 O 0.31029 0.68312 0.16479 0.0
H851 H 0.24512 0.58063 0.19036 0.0
H852 H 0.26528 0.65412 0.22591 0.0
H853 H 0.21567 0.63289 0.227 0.0
H854 H 0.20536 0.59578 0.20922 0.0
H855 H 0.29431 0.60261 0.18938 0.0
H856 H 0.30304 0.62805 0.28615 0.0
H857 H 0.31997 0.66652 0.29933 0.0
O858 O 0.30471 0.67405 0.20043 0.0
C859 C 0.37644 0.67539 0.18933 0.0
C860 C 0.32998 0.67945 0.26689 0.0
C861 C 0.3107 0.64117 0.27459 0.0
N862 N 0.32081 0.65309 0.23743 0.0
C863 C 0.33013 0.67429 0.24457 0.0
C864 C 0.31114 0.63661 0.25214 0.0
C865 C 0.32019 0.66275 0.28197 0.0
C866 C 0.34538 0.61968 0.13617 0.0
N867 N 0.35737 0.64146 0.13905 0.0
C868 C 0.36175 0.60453 0.12737 0.0
C869 C 0.3906 0.61179 0.12158 0.0
C870 C 0.4027 0.63401 0.12463 0.0
C871 C 0.38568 0.64868 0.13348 0.0
C872 C 0.35417 0.69241 0.0905 0.0
C873 C 0.35503 0.70523 0.13413 0.0
C874 C 0.34555 0.67698 0.10711 0.0
N875 N 0.34609 0.68347 0.12861 0.0
C876 C 0.36383 0.72111 0.11795 0.0
C877 C 0.36337 0.71461 0.09601 0.0
C878 C 0.30106 0.68629 0.18405 0.0
C879 C 0.24933 0.59677 0.19817 0.0
C880 C 0.26089 0.63815 0.21789 0.0
C881 C 0.23279 0.62612 0.21868 0.0
C882 C 0.22703 0.6053 0.20873 0.0
N883 N 0.28268 0.62968 0.20754 0.0
C884 C 0.27717 0.60928 0.19771 0.0
Co885 Co 0.67673 0.84815 0.15068 0.0
Co886 Co 0.68642 0.86096 0.20574 0.0
O887 O 0.68987 0.8695 0.17439 0.0
C888 C 0.73215 0.87567 0.13226 0.0
O889 O 0.73736 0.8877 0.1501 0.0
C890 C 0.67375 0.90852 0.20452 0.0
O891 O 0.67622 0.90973 0.18309 0.0
O892 O 0.64417 0.84971 0.20225 0.0
O893 O 0.64305 0.83407 0.16893 0.0
H894 H 0.65373 0.80936 0.2684 0.0
H895 H 0.68633 0.89672 0.14086 0.0
O896 O 0.70984 0.86065 0.13084 0.0
H897 H 0.58442 0.86973 0.12114 0.0
H898 H 0.65552 0.82367 0.07252 0.0
H899 H 0.65478 0.79976 0.14983 0.0
H900 H 0.61536 0.84393 0.13548 0.0
H901 H 0.67142 0.85075 0.10188 0.0
O902 O 0.67693 0.89083 0.21472 0.0
H903 H 0.65916 0.82047 0.22954 0.0
H904 H 0.70563 0.8835 0.24805 0.0
H905 H 0.63841 0.77217 0.121 0.0
H906 H 0.65638 0.92302 0.12626 0.0
H907 H 0.63873 0.78408 0.08202 0.0
H908 H 0.60494 0.90962 0.11633 0.0
O909 O 0.7013 0.82711 0.1625 0.0
H910 H 0.77918 0.91544 0.19704 0.0
H911 H 0.73515 0.84249 0.22647 0.0
H912 H 0.78752 0.85541 0.23136 0.0
H913 H 0.80991 0.89212 0.21663 0.0
H914 H 0.72706 0.90189 0.1924 0.0
H915 H 0.70039 0.87316 0.28711 0.0
H916 H 0.67441 0.83581 0.29751 0.0
O917 O 0.69546 0.83071 0.19878 0.0
C918 C 0.63141 0.83697 0.18742 0.0
C919 C 0.66519 0.82565 0.26408 0.0
C920 C 0.69135 0.86146 0.27458 0.0
N921 N 0.68288 0.85254 0.23648 0.0
C922 C 0.66843 0.83201 0.24209 0.0
C923 C 0.69417 0.86724 0.25242 0.0
C924 C 0.67677 0.84051 0.2804 0.0
C925 C 0.66416 0.89063 0.13639 0.0
N926 N 0.65278 0.86872 0.13898 0.0
C927 C 0.6472 0.90567 0.12821 0.0
C928 C 0.61833 0.89815 0.12268 0.0
C929 C 0.60681 0.87579 0.1254 0.0
C930 C 0.62443 0.86126 0.13365 0.0
C931 C 0.65523 0.81829 0.08945 0.0
C932 C 0.65482 0.8051 0.13292 0.0
C933 C 0.66428 0.83354 0.10615 0.0
N934 N 0.66384 0.82688 0.12759 0.0
C935 C 0.6456 0.78939 0.11666 0.0
C936 C 0.64581 0.79608 0.09479 0.0
C937 C 0.70352 0.82054 0.18217 0.0
C938 C 0.76966 0.89945 0.20364 0.0
C939 C 0.74465 0.8585 0.21997 0.0
C940 C 0.77436 0.86572 0.22281 0.0
C941 C 0.7869 0.88634 0.21458 0.0
N942 N 0.72776 0.87155 0.20941 0.0
C943 C 0.74 0.89172 0.20118 0.0
H944 H 0.17419 0.23518 0.18996 0.0
H945 H 0.20193 0.26181 0.21501 0.0
H946 H 0.23612 0.20835 0.24687 0.0
H947 H 0.20712 0.18148 0.22241 0.0
H948 H 0.22774 0.238 0.2761 0.0
H949 H 0.2744 0.24172 0.20485 0.0
H950 H 0.27592 0.2463 0.16454 0.0
H951 H 0.25289 0.3113 0.17109 0.0
H952 H 0.25119 0.30717 0.21137 0.0
H953 H 0.36389 0.32457 0.29857 0.0
H954 H 0.33636 0.29677 0.27424 0.0
H955 H 0.25623 0.31445 0.29814 0.0
H956 H 0.28323 0.34256 0.32193 0.0
H957 H 0.29218 0.30092 0.24089 0.0
H958 H 0.21226 0.26298 0.30847 0.0
H959 H 0.21127 0.25786 0.34864 0.0
H960 H 0.30361 0.25979 0.34912 0.0
H961 H 0.30508 0.26445 0.30893 0.0
C962 C 0.18712 0.22908 0.20265 0.0
C963 C 0.1886 0.20632 0.2043 0.0
C964 C 0.20322 0.24432 0.2168 0.0
C965 C 0.22187 0.23718 0.23237 0.0
C966 C 0.22207 0.21428 0.23486 0.0
C967 C 0.20541 0.19893 0.22099 0.0
C968 C 0.24192 0.25364 0.24541 0.0
C969 C 0.24185 0.25171 0.26836 0.0
C970 C 0.26072 0.27141 0.23533 0.0
C971 C 0.26254 0.27409 0.21113 0.0
C972 C 0.26962 0.25697 0.19769 0.0
C973 C 0.27048 0.25947 0.17486 0.0
C974 C 0.26437 0.279 0.16529 0.0
C975 C 0.25759 0.29616 0.17853 0.0
C976 C 0.25677 0.29379 0.20135 0.0
C977 C 0.34042 0.32274 0.29847 0.0
C978 C 0.32582 0.33562 0.31251 0.0
C979 C 0.32476 0.30687 0.28455 0.0
C980 C 0.29431 0.30341 0.28467 0.0
C981 C 0.27973 0.31672 0.29804 0.0
C982 C 0.29529 0.33276 0.31168 0.0
C983 C 0.27747 0.2854 0.27146 0.0
C984 C 0.27817 0.2871 0.24853 0.0
C985 C 0.25946 0.26731 0.28151 0.0
C986 C 0.25878 0.26429 0.30569 0.0
C987 C 0.23233 0.26221 0.31713 0.0
C988 C 0.23169 0.25937 0.33991 0.0
C989 C 0.25736 0.25849 0.35141 0.0
C990 C 0.28374 0.26048 0.34018 0.0
C991 C 0.28449 0.26326 0.31741 0.0
H992 H 0.25681 0.25629 0.36904 0.0
H993 H 0.26498 0.28086 0.14763 0.0
H994 H 0.7925 0.26936 0.16125 0.0
H995 H 0.7633 0.24315 0.18563 0.0
H996 H 0.79187 0.28506 0.24109 0.0
H997 H 0.82022 0.31198 0.2166 0.0
H998 H 0.77458 0.21825 0.21687 0.0
H999 H 0.7404 0.2805 0.28043 0.0
H1000 H 0.73036 0.31899 0.28143 0.0
H1001 H 0.70938 0.3154 0.21278 0.0
H1002 H 0.71887 0.2768 0.21144 0.0
H1003 H 0.72923 0.16425 0.31529 0.0
H1004 H 0.75158 0.18929 0.28689 0.0
H1005 H 0.66782 0.20531 0.2695 0.0
H1006 H 0.64509 0.18042 0.29839 0.0
H1007 H 0.70714 0.24219 0.27159 0.0
H1008 H 0.70064 0.1728 0.23549 0.0
H1009 H 0.70523 0.13336 0.23095 0.0
H1010 H 0.79768 0.1496 0.23849 0.0
H1011 H 0.79362 0.18919 0.24317 0.0
C1012 C 0.79245 0.27319 0.1786 0.0
C1013 C 0.80844 0.29304 0.18687 0.0
C1014 C 0.77582 0.25804 0.19258 0.0
C1015 C 0.77493 0.26221 0.2152 0.0
C1016 C 0.79157 0.28168 0.22363 0.0
C1017 C 0.80795 0.29702 0.2096 0.0
C1018 C 0.75681 0.24607 0.22992 0.0
C1019 C 0.75984 0.22354 0.2288 0.0
C1020 C 0.73683 0.25272 0.24509 0.0
C1021 C 0.73063 0.27583 0.24582 0.0
C1022 C 0.73351 0.28789 0.26558 0.0
C1023 C 0.72794 0.30974 0.2662 0.0
C1024 C 0.71933 0.31966 0.24716 0.0
C1025 C 0.71615 0.30773 0.22749 0.0
C1026 C 0.72165 0.28587 0.22679 0.0
C1027 C 0.71539 0.17296 0.30543 0.0
C1028 C 0.68527 0.17028 0.30922 0.0
C1029 C 0.72827 0.18724 0.28907 0.0
C1030 C 0.71139 0.19906 0.2759 0.0
C1031 C 0.68128 0.19636 0.27947 0.0
C1032 C 0.66831 0.18203 0.29591 0.0
C1033 C 0.72555 0.21459 0.25885 0.0
C1034 C 0.7218 0.23696 0.25956 0.0
C1035 C 0.74411 0.20769 0.24278 0.0
C1036 C 0.74679 0.18394 0.23985 0.0
C1037 C 0.72193 0.16794 0.23632 0.0
C1038 C 0.72444 0.14556 0.2337 0.0
C1039 C 0.75171 0.13895 0.23454 0.0
C1040 C 0.77656 0.15474 0.23788 0.0
C1041 C 0.77418 0.17717 0.24045 0.0
H1042 H 0.7536 0.1216 0.23255 0.0
H1043 H 0.71506 0.33658 0.24767 0.0
H1044 H 0.3006 0.72381 0.15886 0.0
H1045 H 0.27455 0.75499 0.16669 0.0
H1046 H 0.23906 0.7219 0.2255 0.0
H1047 H 0.26523 0.69138 0.21828 0.0
H1048 H 0.19748 0.73925 0.19785 0.0
H1049 H 0.29387 0.7598 0.23135 0.0
H1050 H 0.34724 0.76946 0.23021 0.0
H1051 H 0.34061 0.82252 0.18517 0.0
H1052 H 0.28715 0.813 0.18588 0.0
H1053 H 0.16536 0.79676 0.28921 0.0
H1054 H 0.18293 0.77542 0.25985 0.0
H1055 H 0.20538 0.83511 0.22142 0.0
H1056 H 0.18751 0.85682 0.25112 0.0
H1057 H 0.25084 0.81091 0.22549 0.0
H1058 H 0.15357 0.79655 0.20192 0.0
H1059 H 0.10035 0.78765 0.20531 0.0
H1060 H 0.10773 0.72342 0.2314 0.0
H1061 H 0.16102 0.73204 0.22851 0.0
C1062 C 0.2871 0.72317 0.17339 0.0
C1063 C 0.28493 0.705 0.1879 0.0
C1064 C 0.27229 0.74098 0.17782 0.0
C1065 C 0.25476 0.74062 0.19659 0.0
C1066 C 0.25228 0.72239 0.21082 0.0
C1067 C 0.26739 0.70493 0.20667 0.0
C1068 C 0.23942 0.75928 0.20233 0.0
C1069 C 0.20903 0.75505 0.20369 0.0
C1070 C 0.25452 0.78013 0.20919 0.0
C1071 C 0.28659 0.7855 0.20841 0.0
C1072 C 0.30381 0.77336 0.22101 0.0
C1073 C 0.33406 0.77887 0.22052 0.0
C1074 C 0.3473 0.79659 0.20762 0.0
C1075 C 0.33032 0.80879 0.19514 0.0
C1076 C 0.30005 0.80335 0.19558 0.0
C1077 C 0.17353 0.80535 0.27437 0.0
C1078 C 0.1751 0.82846 0.27246 0.0
C1079 C 0.18343 0.79309 0.25751 0.0
C1080 C 0.19526 0.80363 0.23835 0.0
C1081 C 0.19614 0.82666 0.23603 0.0
C1082 C 0.1858 0.83899 0.25291 0.0
C1083 C 0.2089 0.79045 0.22204 0.0
C1084 C 0.23901 0.7956 0.21876 0.0
C1085 C 0.19351 0.77043 0.21336 0.0
C1086 C 0.16138 0.76498 0.215 0.0
C1087 C 0.14388 0.78057 0.20849 0.0
C1088 C 0.11368 0.77557 0.21032 0.0
C1089 C 0.10067 0.75498 0.21856 0.0
C1090 C 0.11784 0.73935 0.22498 0.0
C1091 C 0.14805 0.74427 0.2232 0.0
H1092 H 0.07728 0.75115 0.21997 0.0
H1093 H 0.37072 0.80087 0.2073 0.0
H1094 H 0.76288 0.67164 0.29046 0.0
H1095 H 0.74836 0.69455 0.26146 0.0
H1096 H 0.8251 0.68724 0.22455 0.0
H1097 H 0.84002 0.66376 0.25396 0.0
H1098 H 0.816 0.73145 0.22838 0.0
H1099 H 0.76217 0.66376 0.20395 0.0
H1100 H 0.73094 0.62723 0.20691 0.0
H1101 H 0.66121 0.6584 0.23147 0.0
H1102 H 0.69214 0.6951 0.22901 0.0
H1103 H 0.74454 0.80316 0.15833 0.0
H1104 H 0.76664 0.77028 0.16758 0.0
H1105 H 0.7112 0.7587 0.22442 0.0
H1106 H 0.68968 0.79149 0.21563 0.0
H1107 H 0.7158 0.71953 0.1985 0.0
H1108 H 0.77559 0.78378 0.23328 0.0
H1109 H 0.80696 0.82039 0.23239 0.0
H1110 H 0.8651 0.795 0.18795 0.0
H1111 H 0.83395 0.75818 0.18858 0.0
C1112 C 0.77663 0.67451 0.27613 0.0
C1113 C 0.80263 0.66574 0.2746 0.0
C1114 C 0.76816 0.68761 0.25943 0.0
C1115 C 0.78541 0.69239 0.24069 0.0
C1116 C 0.81134 0.68357 0.23882 0.0
C1117 C 0.81975 0.67012 0.25558 0.0
C1118 C 0.77668 0.70793 0.22416 0.0
C1119 C 0.79447 0.72857 0.22117 0.0
C1120 C 0.74847 0.70427 0.21493 0.0
C1121 C 0.72955 0.68223 0.21631 0.0
C1122 C 0.74023 0.66284 0.2101 0.0
C1123 C 0.72257 0.64209 0.21168 0.0
C1124 C 0.69411 0.64049 0.21938 0.0
C1125 C 0.68325 0.65966 0.22548 0.0
C1126 C 0.70083 0.68046 0.22395 0.0
C1127 C 0.73695 0.79342 0.17266 0.0
C1128 C 0.71554 0.79994 0.18635 0.0
C1129 C 0.74959 0.77473 0.17793 0.0
C1130 C 0.7405 0.7621 0.19667 0.0
C1131 C 0.71843 0.76818 0.20985 0.0
C1132 C 0.70628 0.787 0.20487 0.0
C1133 C 0.75468 0.74317 0.2036 0.0
C1134 C 0.73778 0.72201 0.20487 0.0
C1135 C 0.78368 0.74631 0.21118 0.0
C1136 C 0.80228 0.76838 0.21072 0.0
C1137 C 0.79492 0.78608 0.22316 0.0
C1138 C 0.81268 0.80685 0.22274 0.0
C1139 C 0.8379 0.81008 0.21 0.0
C1140 C 0.8455 0.7925 0.19775 0.0
C1141 C 0.82784 0.77167 0.19816 0.0
H1142 H 0.85162 0.82618 0.20969 0.0
H1143 H 0.68047 0.62441 0.2206 0.0
H1144 H 0.33393 0.77534 0.68611 0.0
H1145 H 0.30626 0.74946 0.71183 0.0
H1146 H 0.27244 0.80384 0.74238 0.0
H1147 H 0.30135 0.83 0.71718 0.0
H1148 H 0.28077 0.77465 0.77239 0.0
H1149 H 0.23326 0.76963 0.70169 0.0
H1150 H 0.23083 0.76452 0.66146 0.0
H1151 H 0.25454 0.69977 0.66825 0.0
H1152 H 0.25709 0.70441 0.70846 0.0
H1153 H 0.14741 0.68419 0.79564 0.0
H1154 H 0.17331 0.71257 0.77108 0.0
H1155 H 0.25513 0.69959 0.7964 0.0
H1156 H 0.22982 0.67115 0.82057 0.0
H1157 H 0.21696 0.71062 0.73837 0.0
H1158 H 0.29733 0.75081 0.8049 0.0
H1159 H 0.2987 0.75596 0.84507 0.0
H1160 H 0.20603 0.75189 0.84638 0.0
H1161 H 0.20416 0.74715 0.80619 0.0
C1162 C 0.32111 0.78181 0.69867 0.0
C1163 C 0.31973 0.80463 0.69972 0.0
C1164 C 0.30504 0.76699 0.7132 0.0
C1165 C 0.28649 0.77458 0.72859 0.0
C1166 C 0.28639 0.79756 0.73052 0.0
C1167 C 0.30302 0.81251 0.71623 0.0
C1168 C 0.26646 0.75842 0.74198 0.0
C1169 C 0.26677 0.76072 0.76491 0.0
C1170 C 0.24772 0.74039 0.73226 0.0
C1171 C 0.24548 0.73741 0.70809 0.0
C1172 C 0.238 0.75432 0.6946 0.0
C1173 C 0.23663 0.75152 0.67181 0.0
C1174 C 0.24267 0.73191 0.66233 0.0
C1175 C 0.24989 0.71497 0.67562 0.0
C1176 C 0.25119 0.71763 0.69841 0.0
C1177 C 0.17092 0.6872 0.79582 0.0
C1178 C 0.18645 0.67551 0.81033 0.0
C1179 C 0.18566 0.70342 0.78177 0.0
C1180 C 0.21609 0.70838 0.7822 0.0
C1181 C 0.23162 0.69622 0.79605 0.0
C1182 C 0.21701 0.67993 0.80988 0.0
C1183 C 0.23192 0.72662 0.76867 0.0
C1184 C 0.23079 0.72469 0.74576 0.0
C1185 C 0.24965 0.74511 0.77838 0.0
C1186 C 0.25061 0.74845 0.80253 0.0
C1187 C 0.27727 0.75116 0.81374 0.0
C1188 C 0.27813 0.754 0.83652 0.0
C1189 C 0.25247 0.75424 0.84826 0.0
C1190 C 0.22589 0.75167 0.83726 0.0
C1191 C 0.22492 0.74889 0.81448 0.0
H1192 H 0.25318 0.75642 0.8659 0.0
H1193 H 0.24164 0.72982 0.6447 0.0
H1194 H 0.68621 0.68841 0.72763 0.0
H1195 H 0.71276 0.71403 0.75441 0.0
H1196 H 0.7064 0.76919 0.71138 0.0
H1197 H 0.68054 0.7438 0.68452 0.0
H1198 H 0.7596 0.77206 0.72497 0.0
H1199 H 0.66594 0.75981 0.75916 0.0
H1200 H 0.62178 0.73756 0.77467 0.0
H1201 H 0.67316 0.71071 0.82314 0.0
H1202 H 0.71769 0.73258 0.80772 0.0
H1203 H 0.77615 0.84738 0.82859 0.0
H1204 H 0.74673 0.82082 0.80449 0.0
H1205 H 0.82276 0.79307 0.78645 0.0
H1206 H 0.85258 0.81987 0.81025 0.0
H1207 H 0.73419 0.77676 0.8037 0.0
H1208 H 0.8172 0.77686 0.73316 0.0
H1209 H 0.85857 0.80205 0.71711 0.0
H1210 H 0.82271 0.85858 0.73977 0.0
H1211 H 0.78094 0.83373 0.75566 0.0
C1212 C 0.69006 0.70604 0.72407 0.0
C1213 C 0.6813 0.71404 0.70393 0.0
C1214 C 0.70528 0.72068 0.73938 0.0
C1215 C 0.71164 0.74358 0.73492 0.0
C1216 C 0.70201 0.7516 0.71514 0.0
C1217 C 0.68706 0.73703 0.69983 0.0
C1218 C 0.72928 0.75922 0.75035 0.0
C1219 C 0.75403 0.77301 0.74219 0.0
C1220 C 0.7219 0.76076 0.77277 0.0
C1221 C 0.69517 0.74766 0.78214 0.0
C1222 C 0.66784 0.74903 0.77302 0.0
C1223 C 0.64274 0.73651 0.78181 0.0
C1224 C 0.64467 0.72268 0.79984 0.0
C1225 C 0.6717 0.7214 0.80916 0.0
C1226 C 0.69687 0.73387 0.8004 0.0
C1227 C 0.78672 0.83568 0.81949 0.0
C1228 C 0.81685 0.8359 0.8213 0.0
C1229 C 0.76977 0.82039 0.8058 0.0
C1230 C 0.78251 0.80503 0.79354 0.0
C1231 C 0.81249 0.80496 0.79552 0.0
C1232 C 0.82952 0.82031 0.80916 0.0
C1233 C 0.76449 0.78946 0.77831 0.0
C1234 C 0.73978 0.77567 0.7865 0.0
C1235 C 0.77145 0.78831 0.75577 0.0
C1236 C 0.79612 0.80341 0.74579 0.0
C1237 C 0.81809 0.79466 0.73462 0.0
C1238 C 0.84161 0.80888 0.72557 0.0
C1239 C 0.84332 0.8319 0.72749 0.0
C1240 C 0.82142 0.84075 0.73836 0.0
C1241 C 0.79783 0.8266 0.7474 0.0
H1242 H 0.86159 0.84287 0.72052 0.0
H1243 H 0.62522 0.713 0.80663 0.0
H1244 H 0.70518 0.30853 0.79389 0.0
H1245 H 0.72389 0.28798 0.76441 0.0
H1246 H 0.69607 0.33214 0.71663 0.0
H1247 H 0.67755 0.35343 0.74627 0.0
H1248 H 0.68668 0.27508 0.71274 0.0
H1249 H 0.75398 0.34557 0.71429 0.0
H1250 H 0.78159 0.37686 0.73494 0.0
H1251 H 0.82575 0.33154 0.7705 0.0
H1252 H 0.79808 0.29995 0.75027 0.0
H1253 H 0.77679 0.21137 0.65106 0.0
H1254 H 0.75311 0.24379 0.65916 0.0
H1255 H 0.79414 0.24982 0.72283 0.0
H1256 H 0.81797 0.21843 0.71479 0.0
H1257 H 0.7941 0.28938 0.70692 0.0
H1258 H 0.72377 0.22071 0.71389 0.0
H1259 H 0.69465 0.18654 0.69904 0.0
H1260 H 0.65563 0.22519 0.65215 0.0
H1261 H 0.68477 0.25958 0.66659 0.0
C1262 C 0.70282 0.31397 0.77717 0.0
C1263 C 0.69021 0.33292 0.77254 0.0
C1264 C 0.7134 0.30206 0.76032 0.0
C1265 C 0.71136 0.30859 0.73843 0.0
C1266 C 0.69773 0.32687 0.73348 0.0
C1267 C 0.68732 0.33903 0.75044 0.0
C1268 C 0.72587 0.29706 0.72138 0.0
C1269 C 0.71007 0.27858 0.71073 0.0
C1270 C 0.75638 0.30142 0.71929 0.0
C1271 C 0.7739 0.32043 0.73082 0.0
C1272 C 0.76951 0.34229 0.72657 0.0
C1273 C 0.78517 0.36007 0.73819 0.0
C1274 C 0.80541 0.35619 0.75402 0.0
C1275 C 0.81011 0.33452 0.7582 0.0
C1276 C 0.79448 0.31668 0.74664 0.0
C1277 C 0.78108 0.21993 0.66659 0.0
C1278 C 0.79898 0.21212 0.68237 0.0
C1279 C 0.76747 0.23836 0.67124 0.0
C1280 C 0.77163 0.24915 0.69171 0.0
C1281 C 0.79059 0.24191 0.7069 0.0
C1282 C 0.80406 0.22372 0.70231 0.0
C1283 C 0.75507 0.26688 0.69861 0.0
C1284 C 0.77057 0.28644 0.70773 0.0
C1285 C 0.72433 0.26325 0.69959 0.0
C1286 C 0.70667 0.24264 0.69111 0.0
C1287 C 0.70909 0.22189 0.70033 0.0
C1288 C 0.69259 0.20249 0.69201 0.0
C1289 C 0.67339 0.20369 0.67462 0.0
C1290 C 0.67057 0.22429 0.66558 0.0
C1291 C 0.68706 0.24373 0.67382 0.0
H1292 H 0.66064 0.18865 0.66819 0.0
H1293 H 0.81743 0.36997 0.76306 0.0
H1294 H 0.26461 0.31855 0.70749 0.0
H1295 H 0.28608 0.28528 0.7149 0.0
H1296 H 0.21947 0.2461 0.67602 0.0
H1297 H 0.19831 0.27967 0.66794 0.0
H1298 H 0.2277 0.23435 0.72442 0.0
H1299 H 0.27769 0.24636 0.65579 0.0
H1300 H 0.30745 0.26876 0.6279 0.0
H1301 H 0.37806 0.28228 0.67362 0.0
H1302 H 0.34855 0.26025 0.70193 0.0
H1303 H 0.28755 0.14235 0.76204 0.0
H1304 H 0.26918 0.16555 0.73404 0.0
H1305 H 0.33878 0.21908 0.74904 0.0
H1306 H 0.35687 0.19598 0.77702 0.0
H1307 H 0.32568 0.2185 0.70538 0.0
H1308 H 0.27689 0.2183 0.77452 0.0
H1309 H 0.24833 0.20377 0.8069 0.0
H1310 H 0.17845 0.17447 0.76515 0.0
H1311 H 0.20666 0.18883 0.73244 0.0
C1312 C 0.25486 0.30292 0.7002 0.0
C1313 C 0.22976 0.30158 0.68727 0.0
C1314 C 0.26723 0.28399 0.70433 0.0
C1315 C 0.25439 0.26332 0.69592 0.0
C1316 C 0.22977 0.26198 0.68247 0.0
C1317 C 0.21777 0.2811 0.67786 0.0
C1318 C 0.26494 0.24305 0.70356 0.0
C1319 C 0.24867 0.23032 0.71972 0.0
C1320 C 0.29286 0.23862 0.69807 0.0
C1321 C 0.31081 0.25174 0.68104 0.0
C1322 C 0.29947 0.25425 0.65997 0.0
C1323 C 0.31632 0.26686 0.64406 0.0
C1324 C 0.34462 0.27696 0.64899 0.0
C1325 C 0.35614 0.27444 0.66983 0.0
C1326 C 0.33937 0.26186 0.6858 0.0
C1327 C 0.29955 0.15872 0.75859 0.0
C1328 C 0.32384 0.16737 0.77124 0.0
C1329 C 0.28891 0.17203 0.74281 0.0
C1330 C 0.3025 0.1941 0.73958 0.0
C1331 C 0.32807 0.20208 0.75114 0.0
C1332 C 0.33847 0.18889 0.76703 0.0
C1333 C 0.28841 0.20978 0.72634 0.0
C1334 C 0.30417 0.22186 0.70941 0.0
C1335 C 0.26033 0.21416 0.73159 0.0
C1336 C 0.24404 0.20433 0.75104 0.0
C1337 C 0.25559 0.20851 0.77223 0.0
C1338 C 0.23939 0.20047 0.79064 0.0
C1339 C 0.21159 0.18825 0.78809 0.0
C1340 C 0.19998 0.18396 0.76709 0.0
C1341 C 0.21605 0.19205 0.74861 0.0
H1342 H 0.19909 0.18204 0.80239 0.0
H1343 H 0.35762 0.28672 0.63666 0.0
H1344 H 0.22566 0.95466 0.31126 0.0
H1345 H 0.23012 0.99044 0.29189 0.0
H1346 H 0.17395 0.95931 0.24067 0.0
H1347 H 0.16867 0.92403 0.26017 0.0
H1348 H 0.24691 0.00845 0.25239 0.0
H1349 H 0.12535 0.99094 0.22678 0.0
H1350 H 0.07956 0.96901 0.24007 0.0
H1351 H 0.11326 0.97163 0.30574 0.0
H1352 H 0.15901 0.99391 0.29293 0.0
H1353 H 0.21933 0.08882 0.17333 0.0
H1354 H 0.22542 0.05553 0.19415 0.0
H1355 H 0.16522 0.07189 0.243 0.0
H1356 H 0.1579 0.1043 0.22164 0.0
H1357 H 0.15208 0.03163 0.23596 0.0
H1358 H 0.24305 0.07709 0.25069 0.0
H1359 H 0.28947 0.10104 0.2421 0.0
H1360 H 0.3178 0.04749 0.20671 0.0
H1361 H 0.27138 0.02331 0.21485 0.0
C1362 C 0.21472 0.95544 0.29567 0.0
C1363 C 0.19649 0.93665 0.28738 0.0
C1364 C 0.21729 0.97586 0.28461 0.0
C1365 C 0.20183 0.97769 0.26506 0.0
C1366 C 0.18553 0.95848 0.25597 0.0
C1367 C 0.18259 0.93828 0.26712 0.0
C1368 C 0.20049 0.99975 0.25498 0.0
C1369 C 0.22622 0.01359 0.24879 0.0
C1370 C 0.17353 0.0068 0.25089 0.0
C1371 C 0.1457 0.99396 0.25884 0.0
C1372 C 0.1229 0.98698 0.24408 0.0
C1373 C 0.09697 0.97447 0.25153 0.0
C1374 C 0.09352 0.96893 0.27373 0.0
C1375 C 0.11597 0.97592 0.28854 0.0
C1376 C 0.1419 0.98849 0.2812 0.0
C1377 C 0.20758 0.08534 0.18859 0.0
C1378 C 0.18808 0.09913 0.1958 0.0
C1379 C 0.2112 0.06636 0.2006 0.0
C1380 C 0.19604 0.06116 0.22039 0.0
C1381 C 0.17709 0.07532 0.22778 0.0
C1382 C 0.17296 0.09393 0.21556 0.0
C1383 C 0.19856 0.04045 0.23288 0.0
C1384 C 0.17291 0.02672 0.23954 0.0
C1385 C 0.22565 0.03399 0.23808 0.0
C1386 C 0.25363 0.04845 0.23322 0.0
C1387 C 0.2591 0.07047 0.24095 0.0
C1388 C 0.28542 0.08408 0.23618 0.0
C1389 C 0.30654 0.07581 0.22382 0.0
C1390 C 0.30141 0.05389 0.21626 0.0
C1391 C 0.27511 0.04021 0.22096 0.0
H1392 H 0.32691 0.08637 0.22014 0.0
H1393 H 0.07344 0.95924 0.27946 0.0
H1394 H 0.78496 0.40483 0.16654 0.0
H1395 H 0.7777 0.43997 0.18395 0.0
H1396 H 0.84597 0.43409 0.23012 0.0
H1397 H 0.85388 0.39951 0.21254 0.0
H1398 H 0.79173 0.44706 0.24846 0.0
H1399 H 0.86484 0.46552 0.19145 0.0
H1400 H 0.88235 0.46512 0.15329 0.0
H1401 H 0.81247 0.49786 0.13187 0.0
H1402 H 0.79425 0.49809 0.1699 0.0
H1403 H 0.8373 0.55309 0.29468 0.0
H1404 H 0.83101 0.51624 0.27809 0.0
H1405 H 0.78765 0.54045 0.22272 0.0
H1406 H 0.79535 0.57772 0.23882 0.0
H1407 H 0.82291 0.51719 0.20764 0.0
H1408 H 0.75173 0.50297 0.26385 0.0
H1409 H 0.73147 0.50279 0.30124 0.0
H1410 H 0.79223 0.46176 0.32344 0.0
H1411 H 0.81314 0.46194 0.28625 0.0
C1412 C 0.79821 0.41096 0.18053 0.0
C1413 C 0.82008 0.39949 0.18811 0.0
C1414 C 0.79407 0.43101 0.19042 0.0
C1415 C 0.81131 0.43959 0.20833 0.0
C1416 C 0.83239 0.42772 0.21639 0.0
C1417 C 0.83697 0.40802 0.20624 0.0
C1418 C 0.80868 0.46153 0.21803 0.0
C1419 C 0.79861 0.46245 0.23965 0.0
C1420 C 0.81687 0.48151 0.20625 0.0
C1421 C 0.82798 0.48156 0.18345 0.0
C1422 C 0.85305 0.47243 0.17857 0.0
C1423 C 0.86313 0.47227 0.15697 0.0
C1424 C 0.84848 0.48139 0.14015 0.0
C1425 C 0.82376 0.49075 0.14491 0.0
C1426 C 0.81355 0.4909 0.16648 0.0
C1427 C 0.82598 0.55049 0.27915 0.0
C1428 C 0.81672 0.56833 0.2681 0.0
C1429 C 0.82225 0.52931 0.26967 0.0
C1430 C 0.80842 0.52527 0.2492 0.0
C1431 C 0.79841 0.543 0.23848 0.0
C1432 C 0.80268 0.56431 0.24775 0.0
C1433 C 0.80614 0.50301 0.23842 0.0
C1434 C 0.81546 0.50194 0.21653 0.0
C1435 C 0.79675 0.48288 0.24988 0.0
C1436 C 0.78414 0.48261 0.27227 0.0
C1437 C 0.7609 0.49402 0.27673 0.0
C1438 C 0.74928 0.49391 0.29789 0.0
C1439 C 0.76059 0.48231 0.31471 0.0
C1440 C 0.7835 0.47075 0.31039 0.0
C1441 C 0.79522 0.47083 0.28927 0.0
H1442 H 0.75157 0.48224 0.33108 0.0
H1443 H 0.85632 0.48127 0.12344 0.0
H1444 H 0.27587 0.16562 0.90278 0.0
H1445 H 0.25301 0.16387 0.93867 0.0
H1446 H 0.29574 0.10864 0.95619 0.0
H1447 H 0.31989 0.11101 0.92023 0.0
H1448 H 0.216 0.13571 0.95819 0.0
H1449 H 0.30447 0.10747 0.01188 0.0
H1450 H 0.3576 0.10877 0.01237 0.0
H1451 H 0.36884 0.16865 0.97412 0.0
H1452 H 0.31582 0.16783 0.97362 0.0
H1453 H 0.15922 0.12461 0.06778 0.0
H1454 H 0.18132 0.1161 0.03285 0.0
H1455 H 0.24946 0.17214 0.0422 0.0
H1456 H 0.2281 0.18038 0.07698 0.0
H1457 H 0.27236 0.13893 0.02739 0.0
H1458 H 0.19052 0.17404 0.00767 0.0
H1459 H 0.1389 0.17836 0.00683 0.0
H1460 H 0.11704 0.11429 0.97643 0.0
H1461 H 0.16854 0.10948 0.97735 0.0
C1462 C 0.28051 0.15308 0.91423 0.0
C1463 C 0.29978 0.13846 0.90864 0.0
C1464 C 0.26725 0.15203 0.9348 0.0
C1465 C 0.27258 0.13618 0.95032 0.0
C1466 C 0.29157 0.12129 0.9447 0.0
C1467 C 0.30534 0.12261 0.92413 0.0
C1468 C 0.25839 0.13581 0.97231 0.0
C1469 C 0.22837 0.13622 0.97331 0.0
C1470 C 0.27432 0.13662 0.99216 0.0
C1471 C 0.30621 0.13741 0.99249 0.0
C1472 C 0.31831 0.12093 1.00362 0.0
C1473 C 0.34839 0.12158 1.00389 0.0
C1474 C 0.36657 0.13873 0.99321 0.0
C1475 C 0.35472 0.15533 0.98231 0.0
C1476 C 0.32467 0.15476 0.982 0.0
C1477 C 0.17891 0.13508 0.06236 0.0
C1478 C 0.19177 0.15323 0.07519 0.0
C1479 C 0.19153 0.13022 0.04239 0.0
C1480 C 0.21705 0.14354 0.03478 0.0
C1481 C 0.22993 0.1615 0.0477 0.0
C1482 C 0.21751 0.16627 0.06761 0.0
C1483 C 0.23022 0.13946 0.01316 0.0
C1484 C 0.25996 0.13804 0.01227 0.0
C1485 C 0.21423 0.13847 0.99335 0.0
C1486 C 0.18329 0.14128 0.99285 0.0
C1487 C 0.17466 0.1608 1.00098 0.0
C1488 C 0.14545 0.16335 1.00046 0.0
C1489 C 0.12469 0.14657 0.99165 0.0
C1490 C 0.13313 0.12724 0.9833 0.0
C1491 C 0.16233 0.12459 0.98381 0.0
H1492 H 0.10208 0.14858 0.99125 0.0
H1493 H 0.38984 0.1392 0.99342 0.0
H1494 H 0.82917 0.39598 0.07387 0.0
H1495 H 0.80344 0.4023 0.03996 0.0
H1496 H 0.81338 0.33702 0.01698 0.0
H1497 H 0.83806 0.33035 0.05105 0.0
H1498 H 0.80962 0.40328 0.99672 0.0
H1499 H 0.75171 0.31086 0.99572 0.0
H1500 H 0.73722 0.28079 0.02252 0.0
H1501 H 0.7356 0.32895 0.07376 0.0
H1502 H 0.74944 0.3593 0.04721 0.0
H1503 H 0.74361 0.37821 0.89349 0.0
H1504 H 0.77104 0.38279 0.92761 0.0
H1505 H 0.69179 0.36388 0.96439 0.0
H1506 H 0.66469 0.35746 0.93003 0.0
H1507 H 0.7266 0.34359 0.9812 0.0
H1508 H 0.73588 0.41981 0.96344 0.0
H1509 H 0.7458 0.45375 0.94092 0.0
H1510 H 0.83479 0.44501 0.93392 0.0
H1511 H 0.82532 0.41084 0.95616 0.0
C1512 C 0.82652 0.38321 0.06133 0.0
C1513 C 0.83539 0.36258 0.06519 0.0
C1514 C 0.81174 0.38683 0.04196 0.0
C1515 C 0.80581 0.36993 0.02613 0.0
C1516 C 0.81704 0.35011 0.02917 0.0
C1517 C 0.83132 0.34636 0.0486 0.0
C1518 C 0.78578 0.37198 0.00746 0.0
C1519 C 0.79145 0.39028 0.99326 0.0
C1520 C 0.76117 0.35557 1.00354 0.0
C1521 C 0.75184 0.33735 0.01946 0.0
C1522 C 0.74802 0.31504 0.01265 0.0
C1523 C 0.73993 0.29795 0.02782 0.0
C1524 C 0.73549 0.30297 0.04982 0.0
C1525 C 0.73903 0.32509 0.05671 0.0
C1526 C 0.74699 0.34223 0.04161 0.0
C1527 C 0.73194 0.37539 0.90887 0.0
C1528 C 0.70196 0.3674 0.90906 0.0
C1529 C 0.74768 0.37818 0.92849 0.0
C1530 C 0.73366 0.37392 0.94887 0.0
C1531 C 0.70336 0.36713 0.94903 0.0
C1532 C 0.68777 0.36363 0.92936 0.0
C1533 C 0.75079 0.37466 0.96973 0.0
C1534 C 0.74457 0.3568 0.98451 0.0
C1535 C 0.77395 0.39208 0.97471 0.0
C1536 C 0.77982 0.41265 0.96134 0.0
C1537 C 0.75752 0.42504 0.95698 0.0
C1538 C 0.76307 0.44433 0.94428 0.0
C1539 C 0.7909 0.45151 0.93595 0.0
C1540 C 0.81325 0.43943 0.94036 0.0
C1541 C 0.80781 0.42011 0.95305 0.0
H1542 H 0.79515 0.46645 0.92612 0.0
H1543 H 0.72929 0.28972 0.06153 0.0
H1544 H 0.28715 0.82249 0.56725 0.0
H1545 H 0.26586 0.83003 0.53208 0.0
H1546 H 0.31989 0.89437 0.52977 0.0
H1547 H 0.34172 0.88685 0.56517 0.0
H1548 H 0.25849 0.89379 0.5191 0.0
H1549 H 0.33862 0.85795 0.49804 0.0
H1550 H 0.36944 0.82874 0.49966 0.0
H1551 H 0.29669 0.77962 0.48157 0.0
H1552 H 0.26531 0.80849 0.48016 0.0
H1553 H 0.21589 0.90792 0.40674 0.0
H1554 H 0.24147 0.90758 0.44187 0.0
H1555 H 0.21326 0.83677 0.44675 0.0
H1556 H 0.18896 0.83695 0.41139 0.0
H1557 H 0.26698 0.84451 0.45543 0.0
H1558 H 0.18563 0.87795 0.4796 0.0
H1559 H 0.15259 0.90569 0.47955 0.0
H1560 H 0.22424 0.95751 0.49307 0.0
H1561 H 0.25778 0.93009 0.49293 0.0
C1562 C 0.29463 0.83826 0.55932 0.0
C1563 C 0.31624 0.85405 0.56902 0.0
C1564 C 0.28242 0.84253 0.53917 0.0
C1565 C 0.29134 0.86272 0.52827 0.0
C1566 C 0.31271 0.87868 0.53793 0.0
C1567 C 0.32527 0.8743 0.55806 0.0
C1568 C 0.27828 0.86676 0.5067 0.0
C1569 C 0.26071 0.88332 0.50499 0.0
C1570 C 0.28067 0.85275 0.48852 0.0
C1571 C 0.29956 0.83537 0.48915 0.0
C1572 C 0.32914 0.8409 0.49456 0.0
C1573 C 0.34672 0.8244 0.49542 0.0
C1574 C 0.33502 0.80233 0.49076 0.0
C1575 C 0.30572 0.79672 0.48519 0.0
C1576 C 0.28804 0.81315 0.48433 0.0
C1577 C 0.21478 0.89238 0.41554 0.0
C1578 C 0.20041 0.87246 0.40631 0.0
C1579 C 0.22941 0.89218 0.43565 0.0
C1580 C 0.22933 0.87214 0.44714 0.0
C1581 C 0.21396 0.85244 0.43823 0.0
C1582 C 0.19988 0.85257 0.41803 0.0
C1583 C 0.2463 0.87119 0.46782 0.0
C1584 C 0.26479 0.85519 0.46937 0.0
C1585 C 0.24437 0.88553 0.48592 0.0
C1586 C 0.22425 0.90202 0.486 0.0
C1587 C 0.19437 0.89529 0.48238 0.0
C1588 C 0.17555 0.91094 0.48242 0.0
C1589 C 0.18632 0.93336 0.48623 0.0
C1590 C 0.21593 0.94015 0.49008 0.0
C1591 C 0.23485 0.92456 0.49003 0.0
H1592 H 0.17171 0.94545 0.48626 0.0
H1593 H 0.34866 0.78959 0.49144 0.0
H1594 H 0.64765 0.63712 0.56278 0.0
H1595 H 0.67063 0.62978 0.52777 0.0
H1596 H 0.74832 0.67389 0.54691 0.0
H1597 H 0.72582 0.68133 0.58143 0.0
H1598 H 0.73195 0.68308 0.50637 0.0
H1599 H 0.74476 0.61756 0.54739 0.0
H1600 H 0.72812 0.5834 0.5685 0.0
H1601 H 0.6771 0.55563 0.51357 0.0
H1602 H 0.69314 0.58978 0.49222 0.0
H1603 H 0.83563 0.66682 0.42916 0.0
H1604 H 0.81036 0.66506 0.46436 0.0
H1605 H 0.74014 0.61826 0.43722 0.0
H1606 H 0.76578 0.61939 0.40209 0.0
H1607 H 0.74806 0.60908 0.47988 0.0
H1608 H 0.73619 0.6741 0.4385 0.0
H1609 H 0.75216 0.70853 0.41757 0.0
H1610 H 0.8006 0.73733 0.47322 0.0
H1611 H 0.78503 0.70308 0.4945 0.0
C1612 C 0.66966 0.64516 0.55952 0.0
C1613 C 0.68474 0.65996 0.5749 0.0
C1614 C 0.6828 0.64089 0.53955 0.0
C1615 C 0.71124 0.65129 0.5347 0.0
C1616 C 0.72633 0.66577 0.55018 0.0
C1617 C 0.71334 0.67 0.57 0.0
C1618 C 0.72536 0.64801 0.51329 0.0
C1619 C 0.73567 0.6669 0.5007 0.0
C1620 C 0.72948 0.62685 0.50551 0.0
C1621 C 0.71987 0.60632 0.51831 0.0
C1622 C 0.72979 0.60425 0.53988 0.0
C1623 C 0.72051 0.58487 0.55188 0.0
C1624 C 0.70149 0.56738 0.54241 0.0
C1625 C 0.69178 0.56921 0.5209 0.0
C1626 C 0.70097 0.58857 0.50884 0.0
C1627 C 0.81514 0.65573 0.43081 0.0
C1628 C 0.8026 0.64345 0.41273 0.0
C1629 C 0.80059 0.65486 0.45092 0.0
C1630 C 0.77291 0.64204 0.45327 0.0
C1631 C 0.76133 0.62843 0.43577 0.0
C1632 C 0.77609 0.62906 0.41568 0.0
C1633 C 0.75534 0.64426 0.47333 0.0
C1634 C 0.7442 0.62522 0.48553 0.0
C1635 C 0.75031 0.66531 0.48081 0.0
C1636 C 0.75962 0.68596 0.46804 0.0
C1637 C 0.75038 0.68772 0.44623 0.0
C1638 C 0.75935 0.7072 0.43431 0.0
C1639 C 0.77748 0.72504 0.44401 0.0
C1640 C 0.78659 0.72349 0.46571 0.0
C1641 C 0.77764 0.70407 0.47773 0.0
H1642 H 0.7844 0.74009 0.43473 0.0
H1643 H 0.69434 0.55239 0.55172 0.0
H1644 H 0.91201 0.29897 0.09816 0.0
H1645 H 0.95269 0.27836 0.09435 0.0
H1646 H 0.96385 0.27954 0.16467 0.0
H1647 H 0.92433 0.3008 0.16847 0.0
H1648 H 0.01405 0.2871 0.14753 0.0
H1649 H 0.92919 0.23261 0.13414 0.0
H1650 H 0.88353 0.21706 0.11548 0.0
H1651 H 0.92916 0.21614 0.05437 0.0
H1652 H 0.97504 0.23205 0.07261 0.0
H1653 H 0.07842 0.19218 0.16872 0.0
H1654 H 0.0403 0.21442 0.16253 0.0
H1655 H 0.07298 0.23043 0.09738 0.0
H1656 H 0.11206 0.20846 0.10357 0.0
H1657 H 1.00396 0.21574 0.10684 0.0
H1658 H 0.09061 0.26869 0.12377 0.0
H1659 H 0.13468 0.28109 0.14565 0.0
H1660 H 0.08281 0.28172 0.20379 0.0
H1661 H 0.03845 0.26889 0.1823 0.0
C1662 C 0.92316 0.29483 0.11279 0.0
C1663 C 0.91481 0.30156 0.13362 0.0
C1664 C 0.94639 0.28295 0.11061 0.0
C1665 C 0.96131 0.27709 0.12924 0.0
C1666 C 0.95293 0.28387 0.14999 0.0
C1667 C 0.93013 0.296 0.15215 0.0
C1668 C 0.98557 0.2639 0.12745 0.0
C1669 C 0.01167 0.27151 0.13861 0.0
C1670 C 0.98294 0.24361 0.1156 0.0
C1671 C 0.95547 0.23376 0.10468 0.0
C1672 C 0.92945 0.22923 0.11669 0.0
C1673 C 0.90354 0.22034 0.1062 0.0
C1674 C 0.90343 0.21567 0.08374 0.0
C1675 C 0.92927 0.21981 0.07175 0.0
C1676 C 0.95523 0.22876 0.08216 0.0
C1677 C 0.07755 0.20022 0.15295 0.0
C1678 C 0.09853 0.19856 0.13667 0.0
C1679 C 0.05563 0.21292 0.14946 0.0
C1680 C 0.05382 0.22403 0.12952 0.0
C1681 C 0.07398 0.22187 0.11286 0.0
C1682 C 0.09635 0.2094 0.11647 0.0
C1683 C 0.0319 0.23898 0.12703 0.0
C1684 C 0.00632 0.23161 0.11527 0.0
C1685 C 0.03471 0.25929 0.13863 0.0
C1686 C 0.06125 0.26766 0.15146 0.0
C1687 C 0.08862 0.27131 0.14125 0.0
C1688 C 0.11366 0.27843 0.15357 0.0
C1689 C 0.11156 0.28214 0.17611 0.0
C1690 C 0.0844 0.27882 0.18634 0.0
C1691 C 0.05931 0.27165 0.17409 0.0
H1692 H 0.13097 0.28762 0.18563 0.0
H1693 H 0.88335 0.2088 0.07564 0.0
H1694 H 0.86457 0.70942 0.3425 0.0
H1695 H 0.90561 0.73989 0.34697 0.0
H1696 H 0.96455 0.69238 0.35034 0.0
H1697 H 0.92391 0.66202 0.34523 0.0
H1698 H 0.97309 0.73205 0.38282 0.0
H1699 H 0.96304 0.71071 0.30548 0.0
H1700 H 0.93409 0.70311 0.27169 0.0
H1701 H 0.91427 0.76947 0.27285 0.0
H1702 H 0.94269 0.7773 0.30694 0.0
H1703 H 0.11131 0.79557 0.35964 0.0
H1704 H 0.06761 0.76781 0.36324 0.0
H1705 H 0.01751 0.81225 0.3314 0.0
H1706 H 0.06133 0.8393 0.32644 0.0
H1707 H 1.00191 0.77488 0.31494 0.0
H1708 H 0.01384 0.79871 0.38947 0.0
H1709 H 0.03932 0.80749 0.4246 0.0
H1710 H 0.05207 0.7396 0.43083 0.0
H1711 H 0.02699 0.73047 0.39557 0.0
C1712 C 0.88623 0.7055 0.34455 0.0
C1713 C 0.89112 0.68338 0.34333 0.0
C1714 C 0.9096 0.72288 0.34709 0.0
C1715 C 0.93806 0.71833 0.34897 0.0
C1716 C 0.94275 0.6962 0.34899 0.0
C1717 C 0.91954 0.6789 0.34592 0.0
C1718 C 0.96324 0.73658 0.34883 0.0
C1719 C 0.97962 0.7414 0.36801 0.0
C1720 C 0.97117 0.74904 0.32963 0.0
C1721 C 0.95468 0.7445 0.30888 0.0
C1722 C 0.9523 0.72361 0.29864 0.0
C1723 C 0.93602 0.71927 0.27942 0.0
C1724 C 0.92227 0.73577 0.27016 0.0
C1725 C 0.92488 0.75668 0.28007 0.0
C1726 C 0.94107 0.76108 0.29933 0.0
C1727 C 0.09095 0.79952 0.3536 0.0
C1728 C 0.08995 0.81978 0.34282 0.0
C1729 C 0.06582 0.78365 0.3558 0.0
C1730 C 0.03894 0.78792 0.34787 0.0
C1731 C 0.03785 0.8084 0.33764 0.0
C1732 C 0.06302 0.82401 0.33496 0.0
C1733 C 0.01226 0.77071 0.34909 0.0
C1734 C 0.9955 0.76588 0.32997 0.0
C1735 C 1.00373 0.75856 0.36852 0.0
C1736 C 0.01875 0.76396 0.38977 0.0
C1737 C 0.02225 0.78569 0.39825 0.0
C1738 C 0.0366 0.79072 0.4182 0.0
C1739 C 0.04737 0.77412 0.42991 0.0
C1740 C 0.04374 0.75244 0.42172 0.0
C1741 C 0.02943 0.74732 0.40177 0.0
H1742 H 0.05848 0.77805 0.44535 0.0
H1743 H 0.90966 0.73238 0.25529 0.0
H1744 H 0.60866 0.71974 0.60534 0.0
H1745 H 0.56892 0.74065 0.59837 0.0
H1746 H 0.5259 0.71362 0.65735 0.0
H1747 H 0.56486 0.69244 0.66416 0.0
H1748 H 0.48679 0.71555 0.62659 0.0
H1749 H 0.56892 0.76526 0.656 0.0
H1750 H 0.61998 0.78374 0.65624 0.0
H1751 H 0.60802 0.81325 0.59363 0.0
H1752 H 0.557 0.7946 0.59285 0.0
H1753 H 0.43579 0.8247 0.65847 0.0
H1754 H 0.47437 0.80282 0.65321 0.0
H1755 H 0.42865 0.76982 0.59783 0.0
H1756 H 0.3893 0.79152 0.60324 0.0
H1757 H 0.51195 0.79763 0.622 0.0
H1758 H 0.44021 0.71544 0.59788 0.0
H1759 H 0.38916 0.69728 0.60131 0.0
H1760 H 0.38041 0.73359 0.66069 0.0
H1761 H 0.43151 0.75163 0.65783 0.0
C1762 C 0.59058 0.71805 0.61669 0.0
C1763 C 0.59018 0.70448 0.6354 0.0
C1764 C 0.56788 0.73007 0.61271 0.0
C1765 C 0.54448 0.72892 0.62746 0.0
C1766 C 0.5436 0.71478 0.64568 0.0
C1767 C 0.56611 0.70274 0.64961 0.0
C1768 C 0.52172 0.74333 0.62491 0.0
C1769 C 0.49233 0.73348 0.62533 0.0
C1770 C 0.52878 0.76678 0.62358 0.0
C1771 C 0.55925 0.77835 0.62425 0.0
C1772 C 0.57723 0.77559 0.64223 0.0
C1773 C 0.60616 0.78609 0.64246 0.0
C1774 C 0.61725 0.79962 0.62494 0.0
C1775 C 0.59941 0.80273 0.60718 0.0
C1776 C 0.57049 0.7922 0.60682 0.0
C1777 C 0.43387 0.81295 0.64501 0.0
C1778 C 0.40918 0.80982 0.63137 0.0
C1779 C 0.45615 0.80049 0.64196 0.0
C1780 C 0.45442 0.78451 0.62524 0.0
C1781 C 0.43036 0.78187 0.61102 0.0
C1782 C 0.4079 0.79434 0.61409 0.0
C1783 C 0.47705 0.76987 0.62382 0.0
C1784 C 0.50641 0.77967 0.62274 0.0
C1785 C 0.46998 0.74642 0.62512 0.0
C1786 C 0.43956 0.73506 0.62747 0.0
C1787 C 0.42742 0.71943 0.61173 0.0
C1788 C 0.39848 0.70918 0.61357 0.0
C1789 C 0.38153 0.71434 0.63116 0.0
C1790 C 0.39354 0.72965 0.64705 0.0
C1791 C 0.42248 0.73988 0.64532 0.0
H1792 H 0.3591 0.70646 0.6325 0.0
H1793 H 0.63965 0.80773 0.62514 0.0
H1794 H 0.81445 0.09436 0.74649 0.0
H1795 H 0.81494 0.0609 0.7681 0.0
H1796 H 0.88235 0.0428 0.72673 0.0
H1797 H 0.88208 0.07657 0.70478 0.0
H1798 H 0.83845 0.00688 0.73642 0.0
H1799 H 0.90018 0.06444 0.77557 0.0
H1800 H 0.91285 0.10109 0.79326 0.0
H1801 H 0.84241 0.08449 0.83873 0.0
H1802 H 0.82904 0.04782 0.82109 0.0
H1803 H 0.88295 0.92586 0.80469 0.0
H1804 H 0.88048 0.95862 0.78269 0.0
H1805 H 0.81895 0.979 0.82813 0.0
H1806 H 0.82185 0.94619 0.85086 0.0
H1807 H 0.85885 0.01376 0.81629 0.0
H1808 H 0.79729 0.95612 0.77797 0.0
H1809 H 0.78414 0.91938 0.76053 0.0
H1810 H 0.85289 0.93594 0.71365 0.0
H1811 H 0.86676 0.97268 0.73101 0.0
C1812 C 0.82943 0.08333 0.74185 0.0
C1813 C 0.84841 0.08832 0.72391 0.0
C1814 C 0.82969 0.06417 0.75432 0.0
C1815 C 0.84891 0.04946 0.74923 0.0
C1816 C 0.8674 0.05398 0.731 0.0
C1817 C 0.86727 0.07331 0.71851 0.0
C1818 C 0.8498 0.02959 0.76324 0.0
C1819 C 0.84332 0.00837 0.75382 0.0
C1820 C 0.85529 0.03151 0.78609 0.0
C1821 C 0.86344 0.05346 0.79687 0.0
C1822 C 0.88725 0.06866 0.78923 0.0
C1823 C 0.89458 0.08943 0.79927 0.0
C1824 C 0.8784 0.09514 0.81707 0.0
C1825 C 0.8549 0.08005 0.82492 0.0
C1826 C 0.84746 0.05927 0.81492 0.0
C1827 C 0.86886 0.93723 0.81019 0.0
C1828 C 0.8526 0.93327 0.82969 0.0
C1829 C 0.86734 0.95598 0.7974 0.0
C1830 C 0.84919 0.97117 0.80349 0.0
C1831 C 0.83305 0.96747 0.82303 0.0
C1832 C 0.83468 0.94867 0.83599 0.0
C1833 C 0.84756 0.99097 0.78949 0.0
C1834 C 0.8539 0.01221 0.79891 0.0
C1835 C 0.84179 0.98905 0.76665 0.0
C1836 C 0.83321 0.9671 0.75592 0.0
C1837 C 0.80972 0.95188 0.76402 0.0
C1838 C 0.80213 0.93106 0.75414 0.0
C1839 C 0.81772 0.92531 0.73602 0.0
C1840 C 0.84086 0.94041 0.7277 0.0
C1841 C 0.84857 0.96125 0.73754 0.0
H1842 H 0.81183 0.90916 0.72842 0.0
H1843 H 0.8841 0.11123 0.82482 0.0
H1844 H 0.11254 0.57425 0.81588 0.0
H1845 H 0.11546 0.54038 0.79588 0.0
H1846 H 0.20475 0.54391 0.81598 0.0
H1847 H 0.20117 0.57724 0.83761 0.0
H1848 H 0.14187 0.53199 0.76296 0.0
H1849 H 0.226 0.49346 0.8141 0.0
H1850 H 0.24169 0.49156 0.85263 0.0
H1851 H 0.15781 0.50258 0.87471 0.0
H1852 H 0.14151 0.50426 0.83634 0.0
H1853 H 0.18427 0.446 0.69912 0.0
H1854 H 0.18219 0.47898 0.72144 0.0
H1855 H 0.1487 0.4372 0.77585 0.0
H1856 H 0.15286 0.4042 0.75396 0.0
H1857 H 0.1834 0.46798 0.79191 0.0
H1858 H 0.10564 0.46855 0.74115 0.0
H1859 H 0.08177 0.46775 0.70499 0.0
H1860 H 0.13793 0.52777 0.68658 0.0
H1861 H 0.16239 0.52878 0.72255 0.0
C1862 C 0.13267 0.56768 0.81653 0.0
C1863 C 0.15645 0.57841 0.82875 0.0
C1864 C 0.13443 0.5483 0.80478 0.0
C1865 C 0.16025 0.53927 0.80439 0.0
C1866 C 0.18428 0.55009 0.81635 0.0
C1867 C 0.18227 0.56927 0.82866 0.0
C1868 C 0.16183 0.51895 0.79095 0.0
C1869 C 0.15093 0.518 0.76939 0.0
C1870 C 0.17315 0.50039 0.79922 0.0
C1871 C 0.18268 0.49924 0.82235 0.0
C1872 C 0.21089 0.49541 0.82719 0.0
C1873 C 0.21989 0.49439 0.84899 0.0
C1874 C 0.2008 0.49703 0.8661 0.0
C1875 C 0.17262 0.50063 0.86144 0.0
C1876 C 0.1635 0.50164 0.83967 0.0
C1877 C 0.17616 0.44388 0.71577 0.0
C1878 C 0.16841 0.42254 0.72472 0.0
C1879 C 0.17488 0.46278 0.72856 0.0
C1880 C 0.16475 0.46078 0.75035 0.0
C1881 C 0.15666 0.43936 0.75917 0.0
C1882 C 0.15878 0.42047 0.74659 0.0
C1883 C 0.16306 0.48092 0.76405 0.0
C1884 C 0.1742 0.48192 0.78555 0.0
C1885 C 0.1507 0.49914 0.7561 0.0
C1886 C 0.13602 0.49861 0.73446 0.0
C1887 C 0.11302 0.48149 0.72933 0.0
C1888 C 0.09938 0.48101 0.70888 0.0
C1889 C 0.10838 0.49766 0.69348 0.0
C1890 C 0.13101 0.51487 0.69852 0.0
C1891 C 0.14475 0.51541 0.71894 0.0
H1892 H 0.09779 0.49726 0.67765 0.0
H1893 H 0.20781 0.49625 0.88297 0.0
H1894 H 0.74102 0.8465 0.10032 0.0
H1895 H 0.76772 0.85403 0.06607 0.0
H1896 H 0.79005 0.92313 0.08427 0.0
H1897 H 0.76447 0.91527 0.11927 0.0
H1898 H 0.75802 0.87592 0.03339 0.0
H1899 H 0.84995 0.94813 0.05688 0.0
H1900 H 0.88094 0.96082 0.08869 0.0
H1901 H 0.8703 0.89404 0.11329 0.0
H1902 H 0.83957 0.88091 0.0815 0.0
H1903 H 0.81198 0.92033 0.93454 0.0
H1904 H 0.7961 0.92055 0.97272 0.0
H1905 H 0.87179 0.89347 0.99288 0.0
H1906 H 0.88838 0.89405 0.95471 0.0
H1907 H 0.85667 0.91952 0.02462 0.0
H1908 H 0.8087 0.85932 0.98149 0.0
H1909 H 0.78181 0.84239 0.94926 0.0
H1910 H 0.71042 0.87603 0.96495 0.0
H1911 H 0.73711 0.89349 0.99711 0.0
C1912 C 0.75202 0.86324 0.09718 0.0
C1913 C 0.75072 0.88029 0.11252 0.0
C1914 C 0.76719 0.86758 0.0775 0.0
C1915 C 0.78107 0.88917 0.07239 0.0
C1916 C 0.7801 0.90623 0.08786 0.0
C1917 C 0.76539 0.90176 0.10788 0.0
C1918 C 0.79515 0.89376 0.05044 0.0
C1919 C 0.7796 0.88548 0.03162 0.0
C1920 C 0.82354 0.90591 0.04784 0.0
C1921 C 0.84219 0.9136 0.06693 0.0
C1922 C 0.8543 0.93615 0.06904 0.0
C1923 C 0.87181 0.94342 0.08708 0.0
C1924 C 0.8775 0.92826 0.10304 0.0
C1925 C 0.86578 0.90578 0.10096 0.0
C1926 C 0.84828 0.89842 0.08296 0.0
C1927 C 0.82567 0.91502 0.94718 0.0
C1928 C 0.85131 0.907 0.9416 0.0
C1929 C 0.8165 0.91505 0.96901 0.0
C1930 C 0.83233 0.90647 0.98565 0.0
C1931 C 0.85911 0.90008 0.98035 0.0
C1932 C 0.8686 0.90043 0.9585 0.0
C1933 C 0.81936 0.90184 0.00786 0.0
C1934 C 0.83506 0.91007 0.02659 0.0
C1935 C 0.79154 0.88886 0.01052 0.0
C1936 C 0.775 0.87785 0.99161 0.0
C1937 C 0.7873 0.86317 0.97803 0.0
C1938 C 0.77212 0.85349 0.95976 0.0
C1939 C 0.74444 0.85815 0.95505 0.0
C1940 C 0.73186 0.87245 0.96863 0.0
C1941 C 0.747 0.88223 0.98689 0.0
H1942 H 0.73274 0.85066 0.94088 0.0
H1943 H 0.89105 0.93392 0.11699 0.0
H1944 H 0.12773 0.62174 0.94807 0.0
H1945 H 0.14378 0.62397 0.98645 0.0
H1946 H 0.22409 0.6029 0.96762 0.0
H1947 H 0.20863 0.60133 0.92911 0.0
H1948 H 0.19366 0.58395 0.01068 0.0
H1949 H 0.23224 0.65132 0.97075 0.0
H1950 H 0.22864 0.68361 0.94719 0.0
H1951 H 0.16964 0.70598 0.99301 0.0
H1952 H 0.17248 0.67354 0.01665 0.0
H1953 H 0.29067 0.62394 0.09771 0.0
H1954 H 0.26511 0.61143 0.06384 0.0
H1955 H 0.20413 0.65634 0.07564 0.0
H1956 H 0.23041 0.66956 0.109 0.0
H1957 H 0.22177 0.66166 0.03638 0.0
H1958 H 0.18611 0.59696 0.07847 0.0
H1959 H 0.18901 0.565 0.10265 0.0
H1960 H 0.23989 0.53731 0.05435 0.0
H1961 H 0.23763 0.56926 0.02998 0.0
C1962 C 0.14847 0.617 0.95218 0.0
C1963 C 0.16694 0.61135 0.93561 0.0
C1964 C 0.15763 0.61836 0.97409 0.0
C1965 C 0.18511 0.61362 0.97981 0.0
C1966 C 0.20275 0.6065 0.96352 0.0
C1967 C 0.19391 0.60565 0.94156 0.0
C1968 C 0.19673 0.61848 1.00225 0.0
C1969 C 0.20001 0.6009 0.01636 0.0
C1970 C 0.20439 0.64059 0.0097 0.0
C1971 C 0.20226 0.65986 0.99531 0.0
C1972 C 0.21818 0.66295 0.97564 0.0
C1973 C 0.21636 0.68132 0.96232 0.0
C1974 C 0.19892 0.69683 0.9686 0.0
C1975 C 0.18314 0.69394 0.98816 0.0
C1976 C 0.18483 0.67556 1.00152 0.0
C1977 C 0.27144 0.6308 0.09332 0.0
C1978 C 0.26258 0.64778 0.10602 0.0
C1979 C 0.25674 0.62357 0.07393 0.0
C1980 C 0.23247 0.6328 0.06711 0.0
C1981 C 0.22283 0.649 0.0804 0.0
C1982 C 0.2378 0.65649 0.09955 0.0
C1983 C 0.2187 0.62711 0.04528 0.0
C1984 C 0.21514 0.64461 0.03106 0.0
C1985 C 0.21057 0.6049 0.03789 0.0
C1986 C 0.2119 0.58561 0.05247 0.0
C1987 C 0.1981 0.58414 0.07306 0.0
C1988 C 0.1996 0.56601 0.0868 0.0
C1989 C 0.21468 0.54916 0.08006 0.0
C1990 C 0.22824 0.55038 0.05955 0.0
C1991 C 0.22682 0.56848 0.04576 0.0
H1992 H 0.21582 0.53514 0.09072 0.0
H1993 H 0.19771 0.71114 0.95836 0.0
H1994 H 0.72391 0.11719 0.43272 0.0
H1995 H 0.73588 0.11652 0.47162 0.0
H1996 H 0.64482 0.10342 0.48786 0.0
H1997 H 0.63254 0.10401 0.44864 0.0
H1998 H 0.67641 0.13801 0.51276 0.0
H1999 H 0.68312 0.06283 0.49445 0.0
H2000 H 0.6985 0.03276 0.47254 0.0
H2001 H 0.78787 0.05901 0.4855 0.0
H2002 H 0.77305 0.08942 0.50724 0.0
H2003 H 0.72251 0.13469 0.6248 0.0
H2004 H 0.69691 0.12371 0.59035 0.0
H2005 H 0.77901 0.12319 0.55794 0.0
H2006 H 0.80437 0.13311 0.59214 0.0
H2007 H 0.74316 0.0903 0.5434 0.0
H2008 H 0.73811 0.16828 0.5553 0.0
H2009 H 0.72486 0.20006 0.57585 0.0
H2010 H 0.635 0.17037 0.57369 0.0
H2011 H 0.64778 0.13829 0.55334 0.0
C2012 C 0.70635 0.11391 0.44449 0.0
C2013 C 0.67723 0.11061 0.43753 0.0
C2014 C 0.71326 0.11347 0.46677 0.0
C2015 C 0.69128 0.10979 0.4827 0.0
C2016 C 0.66214 0.10623 0.47585 0.0
C2017 C 0.65517 0.10643 0.45344 0.0
C2018 C 0.69914 0.11063 0.50641 0.0
C2019 C 0.69048 0.12725 0.51964 0.0
C2020 C 0.71794 0.09689 0.51528 0.0
C2021 C 0.72695 0.07848 0.50239 0.0
C2022 C 0.70606 0.06227 0.49252 0.0
C2023 C 0.71468 0.04515 0.48014 0.0
C2024 C 0.74415 0.04399 0.4776 0.0
C2025 C 0.76505 0.05992 0.48748 0.0
C2026 C 0.75655 0.07709 0.49986 0.0
C2027 C 0.73505 0.13199 0.61037 0.0
C2028 C 0.76556 0.13498 0.61129 0.0
C2029 C 0.72039 0.12585 0.59062 0.0
C2030 C 0.73598 0.12295 0.57131 0.0
C2031 C 0.76635 0.12528 0.57248 0.0
C2032 C 0.7809 0.13111 0.59216 0.0
C2033 C 0.72128 0.11821 0.54963 0.0
C2034 C 0.72865 0.10081 0.53673 0.0
C2035 C 0.70163 0.13145 0.54097 0.0
C2036 C 0.69393 0.15078 0.55305 0.0
C2037 C 0.71555 0.16848 0.55934 0.0
C2038 C 0.70812 0.18654 0.57093 0.0
C2039 C 0.67912 0.1872 0.57614 0.0
C2040 C 0.65746 0.16982 0.56969 0.0
C2041 C 0.66478 0.1517 0.55812 0.0
H2042 H 0.67341 0.20119 0.58513 0.0
H2043 H 0.75078 0.03073 0.468 0.0
H2044 H 0.22357 0.38738 0.60253 0.0
H2045 H 0.24767 0.40061 0.56817 0.0
H2046 H 0.30992 0.35635 0.57732 0.0
H2047 H 0.28549 0.34257 0.61139 0.0
H2048 H 0.33248 0.40267 0.55975 0.0
H2049 H 0.25951 0.33691 0.54841 0.0
H2050 H 0.21013 0.31547 0.55133 0.0
H2051 H 0.17605 0.36615 0.51557 0.0
H2052 H 0.22518 0.38813 0.51286 0.0
H2053 H 0.38502 0.38642 0.45226 0.0
H2054 H 0.36788 0.38557 0.49016 0.0
H2055 H 0.28981 0.40885 0.46897 0.0
H2056 H 0.3063 0.40864 0.43094 0.0
H2057 H 0.27476 0.37623 0.49378 0.0
H2058 H 0.34585 0.44103 0.50155 0.0
H2059 H 0.39394 0.46448 0.49876 0.0
H2060 H 0.43028 0.41962 0.5408 0.0
H2061 H 0.38247 0.39572 0.54361 0.0
C2062 C 0.24281 0.38084 0.59752 0.0
C2063 C 0.25258 0.36385 0.60961 0.0
C2064 C 0.2565 0.38839 0.57786 0.0
C2065 C 0.28049 0.37939 0.57021 0.0
C2066 C 0.2915 0.36354 0.58301 0.0
C2067 C 0.27746 0.35565 0.60242 0.0
C2068 C 0.2921 0.38463 0.54782 0.0
C2069 C 0.32005 0.39683 0.54525 0.0
C2070 C 0.27548 0.3775 0.52901 0.0
C2071 C 0.24596 0.36429 0.53068 0.0
C2072 C 0.24144 0.34361 0.5414 0.0
C2073 C 0.21351 0.33133 0.54296 0.0
C2074 C 0.18997 0.33945 0.53364 0.0
C2075 C 0.1943 0.35989 0.52279 0.0
C2076 C 0.22218 0.37227 0.52125 0.0
C2077 C 0.36451 0.39183 0.45574 0.0
C2078 C 0.34702 0.39759 0.43859 0.0
C2079 C 0.35471 0.39141 0.47749 0.0
C2080 C 0.32754 0.39729 0.48263 0.0
C2081 C 0.31075 0.40411 0.46555 0.0
C2082 C 0.32028 0.40412 0.44379 0.0
C2083 C 0.31547 0.39445 0.50535 0.0
C2084 C 0.28732 0.38248 0.50809 0.0
C2085 C 0.3318 0.40216 0.52426 0.0
C2086 C 0.36061 0.41648 0.52263 0.0
C2087 C 0.36414 0.43607 0.51007 0.0
C2088 C 0.39134 0.44946 0.50851 0.0
C2089 C 0.41516 0.44352 0.51956 0.0
C2090 C 0.41181 0.42419 0.53223 0.0
C2091 C 0.38466 0.41073 0.53384 0.0
H2092 H 0.43621 0.45391 0.51833 0.0
H2093 H 0.16839 0.32988 0.53478 0.0
H2094 H 0.05633 0.68237 0.84121 0.0
H2095 H 0.02361 0.70918 0.84651 0.0
H2096 H 0.07787 0.73989 0.89909 0.0
H2097 H 0.11179 0.71365 0.89286 0.0
H2098 H 0.9902 0.71759 0.8761 0.0
H2099 H 0.07124 0.79411 0.90443 0.0
H2100 H 0.12302 0.81005 0.90023 0.0
H2101 H 0.12558 0.77675 0.83831 0.0
H2102 H 0.07376 0.76086 0.84202 0.0
H2103 H 0.90384 0.80119 0.89896 0.0
H2104 H 0.93877 0.77538 0.90304 0.0
H2105 H 0.98979 0.80832 0.84993 0.0
H2106 H 0.95606 0.83456 0.84661 0.0
H2107 H 0.02501 0.79878 0.87791 0.0
H2108 H 0.93983 0.75717 0.84443 0.0
H2109 H 0.88791 0.74127 0.84155 0.0
H2110 H 0.89349 0.70494 0.90132 0.0
H2111 H 0.94539 0.72085 0.90468 0.0
C2112 C 0.06138 0.69488 0.85387 0.0
C2113 C 0.08671 0.696 0.86655 0.0
C2114 C 0.04252 0.71017 0.85698 0.0
C2115 C 0.04819 0.72677 0.87312 0.0
C2116 C 0.07323 0.7276 0.8862 0.0
C2117 C 0.09257 0.71257 0.8827 0.0
C2118 C 0.02791 0.74319 0.87575 0.0
C2119 C 0.9979 0.73535 0.87659 0.0
C2120 C 0.03769 0.76643 0.87618 0.0
C2121 C 0.06875 0.77609 0.87366 0.0
C2122 C 0.08286 0.79025 0.88991 0.0
C2123 C 0.1122 0.79927 0.88761 0.0
C2124 C 0.12761 0.79434 0.86906 0.0
C2125 C 0.11366 0.78048 0.85271 0.0
C2126 C 0.08431 0.77145 0.85491 0.0
C2127 C 0.92263 0.80294 0.88828 0.0
C2128 C 0.92715 0.8199 0.87247 0.0
C2129 C 0.94255 0.78814 0.89055 0.0
C2130 C 0.96687 0.78965 0.87661 0.0
C2131 C 0.97143 0.80679 0.86102 0.0
C2132 C 0.95197 0.82179 0.85907 0.0
C2133 C 0.9873 0.77319 0.87755 0.0
C2134 C 0.01734 0.78102 0.87762 0.0
C2135 C 0.97753 0.74996 0.8769 0.0
C2136 C 0.94636 0.7404 0.87495 0.0
C2137 C 0.92991 0.74592 0.85704 0.0
C2138 C 0.90051 0.73689 0.85531 0.0
C2139 C 0.88739 0.72217 0.87128 0.0
C2140 C 0.90366 0.71639 0.88899 0.0
C2141 C 0.93307 0.7254 0.89081 0.0
H2142 H 0.86462 0.71519 0.86991 0.0
H2143 H 0.15033 0.80131 0.86733 0.0
H2144 H 0.09853 0.31557 0.66465 0.0
H2145 H 0.05404 0.29007 0.67188 0.0
H2146 H 0.07347 0.29188 0.74108 0.0
H2147 H 0.11865 0.31776 0.73398 0.0
H2148 H 0.05556 0.24839 0.72483 0.0
H2149 H 0.02035 0.31722 0.72477 0.0
H2150 H 0.01506 0.35454 0.71152 0.0
H2151 H 0.9779 0.32638 0.65134 0.0
H2152 H 0.98337 0.28891 0.66408 0.0
H2153 H 0.90905 0.18244 0.73028 0.0
H2154 H 0.95243 0.20996 0.73844 0.0
H2155 H 0.95986 0.22761 0.66993 0.0
H2156 H 0.91719 0.20071 0.66171 0.0
H2157 H 0.96155 0.26397 0.69599 0.0
H2158 H 0.00525 0.19662 0.69369 0.0
H2159 H 0.01146 0.15925 0.70629 0.0
H2160 H 0.03239 0.18481 0.77101 0.0
H2161 H 0.02592 0.2223 0.75885 0.0
C2162 C 0.09339 0.31087 0.68149 0.0
C2163 C 0.11224 0.31896 0.69874 0.0
C2164 C 0.0678 0.29622 0.68559 0.0
C2165 C 0.06023 0.28919 0.70704 0.0
C2166 C 0.07885 0.29715 0.7244 0.0
C2167 C 0.10454 0.31206 0.72032 0.0
C2168 C 0.03305 0.27317 0.71073 0.0
C2169 C 0.03481 0.25194 0.71905 0.0
C2170 C 0.00601 0.27773 0.70307 0.0
C2171 C 1.00239 0.30024 0.69537 0.0
C2172 C 0.01121 0.31899 0.70866 0.0
C2173 C 0.00816 0.34017 0.70124 0.0
C2174 C 0.99617 0.34283 0.68059 0.0
C2175 C 0.98716 0.32429 0.66734 0.0
C2176 C 0.99019 0.30307 0.67467 0.0
C2177 C 0.9202 0.19198 0.71695 0.0
C2178 C 0.90941 0.18934 0.69535 0.0
C2179 C 0.94495 0.20773 0.72164 0.0
C2180 C 0.95926 0.221 0.7048 0.0
C2181 C 0.94905 0.21777 0.68323 0.0
C2182 C 0.92458 0.2022 0.67856 0.0
C2183 C 0.98432 0.23889 0.70913 0.0
C2184 C 0.9821 0.26055 0.70233 0.0
C2185 C 0.01082 0.23468 0.71818 0.0
C2186 C 0.01471 0.21218 0.72545 0.0
C2187 C 0.0109 0.19422 0.71066 0.0
C2188 C 0.01453 0.17303 0.71771 0.0
C2189 C 0.02221 0.16964 0.73946 0.0
C2190 C 0.02637 0.18745 0.75419 0.0
C2191 C 0.02273 0.20867 0.74722 0.0
H2192 H 0.02502 0.15323 0.74488 0.0
H2193 H 0.99384 0.35925 0.67487 0.0
H2194 H 0.61336 0.21082 0.39511 0.0
H2195 H 0.57833 0.23625 0.40112 0.0
H2196 H 0.52433 0.20342 0.34943 0.0
H2197 H 0.55809 0.17732 0.34449 0.0
H2198 H 0.5605 0.26596 0.37976 0.0
H2199 H 0.4551 0.20563 0.35443 0.0
H2200 H 0.43504 0.1658 0.35763 0.0
H2201 H 0.48989 0.16014 0.41319 0.0
H2202 H 0.50998 0.2 0.41055 0.0
H2203 H 0.45763 0.32773 0.34321 0.0
H2204 H 0.4908 0.30131 0.34859 0.0
H2205 H 0.43655 0.26998 0.40084 0.0
H2206 H 0.40215 0.29588 0.39455 0.0
H2207 H 0.45426 0.23955 0.37946 0.0
H2208 H 0.50432 0.30556 0.41031 0.0
H2209 H 0.52426 0.34545 0.41295 0.0
H2210 H 0.57991 0.33964 0.35785 0.0
H2211 H 0.55999 0.29978 0.35465 0.0
C2212 C 0.59384 0.209 0.38521 0.0
C2213 C 0.58826 0.19196 0.36953 0.0
C2214 C 0.57384 0.22354 0.38861 0.0
C2215 C 0.54817 0.22153 0.37611 0.0
C2216 C 0.54325 0.20491 0.35993 0.0
C2217 C 0.56275 0.19007 0.35697 0.0
C2218 C 0.52696 0.23719 0.37924 0.0
C2219 C 0.53729 0.26012 0.37986 0.0
C2220 C 0.49657 0.22974 0.38023 0.0
C2221 C 0.48418 0.20581 0.38219 0.0
C2222 C 0.46274 0.19593 0.36743 0.0
C2223 C 0.4514 0.17333 0.36912 0.0
C2224 C 0.46124 0.16044 0.38557 0.0
C2225 C 0.48236 0.17013 0.40042 0.0
C2226 C 0.49374 0.19273 0.39882 0.0
C2227 C 0.45276 0.31527 0.35592 0.0
C2228 C 0.4274 0.31399 0.36861 0.0
C2229 C 0.47191 0.30022 0.35911 0.0
C2230 C 0.46678 0.28395 0.37558 0.0
C2231 C 0.4412 0.28245 0.38813 0.0
C2232 C 0.42156 0.29725 0.38456 0.0
C2233 C 0.48783 0.26827 0.37904 0.0
C2234 C 0.47747 0.24535 0.37969 0.0
C2235 C 0.51819 0.27573 0.38022 0.0
C2236 C 0.53052 0.29968 0.38218 0.0
C2237 C 0.5207 0.31281 0.39868 0.0
C2238 C 0.53201 0.33542 0.40028 0.0
C2239 C 0.55331 0.34508 0.38556 0.0
C2240 C 0.5634 0.33214 0.36924 0.0
C2241 C 0.55214 0.30952 0.36755 0.0
H2242 H 0.56202 0.36259 0.38681 0.0
H2243 H 0.45246 0.14294 0.38683 0.0
H2244 H 0.64308 0.60732 0.7191 0.0
H2245 H 0.65001 0.5735 0.7382 0.0
H2246 H 0.72623 0.57 0.69899 0.0
H2247 H 0.72024 0.60482 0.68075 0.0
H2248 H 0.64625 0.53449 0.72648 0.0
H2249 H 0.77136 0.53956 0.72391 0.0
H2250 H 0.81547 0.56795 0.72446 0.0
H2251 H 0.76891 0.61314 0.7581 0.0
H2252 H 0.72464 0.58493 0.75799 0.0
H2253 H 0.67241 0.4291 0.75501 0.0
H2254 H 0.67591 0.46441 0.73555 0.0
H2255 H 0.71802 0.49865 0.79177 0.0
H2256 H 0.71603 0.46303 0.81085 0.0
H2257 H 0.73953 0.51906 0.75682 0.0
H2258 H 0.64306 0.49412 0.78214 0.0
H2259 H 0.59795 0.46727 0.78674 0.0
H2260 H 0.58429 0.46636 0.71704 0.0
H2261 H 0.62962 0.49292 0.71198 0.0
C2262 C 0.66151 0.59946 0.7147 0.0
C2263 C 0.68116 0.60874 0.69845 0.0
C2264 C 0.66541 0.58002 0.72559 0.0
C2265 C 0.68874 0.56904 0.72024 0.0
C2266 C 0.70842 0.57829 0.70389 0.0
C2267 C 0.70492 0.59815 0.69335 0.0
C2268 C 0.69156 0.5476 0.73132 0.0
C2269 C 0.66672 0.53124 0.73309 0.0
C2270 C 0.71806 0.5432 0.74036 0.0
C2271 C 0.74462 0.56021 0.74072 0.0
C2272 C 0.77057 0.55553 0.73148 0.0
C2273 C 0.79559 0.57159 0.73171 0.0
C2274 C 0.79497 0.59236 0.74124 0.0
C2275 C 0.76934 0.59708 0.75065 0.0
C2276 C 0.74427 0.58107 0.75048 0.0
C2277 C 0.68284 0.44412 0.76309 0.0
C2278 C 0.69371 0.44335 0.78452 0.0
C2279 C 0.6847 0.46434 0.75199 0.0
C2280 C 0.69648 0.48437 0.76238 0.0
C2281 C 0.70869 0.4835 0.7834 0.0
C2282 C 0.7075 0.46313 0.79433 0.0
C2283 C 0.69427 0.50615 0.75188 0.0
C2284 C 0.71915 0.52244 0.75017 0.0
C2285 C 0.66754 0.51091 0.74366 0.0
C2286 C 0.63987 0.49537 0.74667 0.0
C2287 C 0.6305 0.48813 0.76778 0.0
C2288 C 0.6049 0.47295 0.77047 0.0
C2289 C 0.58829 0.46509 0.75219 0.0
C2290 C 0.5972 0.47245 0.73119 0.0
C2291 C 0.62284 0.48757 0.7284 0.0
H2292 H 0.56849 0.45333 0.75431 0.0
H2293 H 0.81435 0.60478 0.74138 0.0
H2294 H 0.26867 0.06539 0.78418 0.0
H2295 H 0.26266 0.03028 0.7635 0.0
H2296 H 0.35392 0.02792 0.77097 0.0
H2297 H 0.36006 0.06245 0.79179 0.0
H2298 H 0.33236 0.02346 0.72661 0.0
H2299 H 0.30965 0.99432 0.8 0.0
H2300 H 0.28146 0.99064 0.83441 0.0
H2301 H 0.2035 0.96748 0.79824 0.0
H2302 H 0.23119 0.97134 0.76356 0.0
H2303 H 0.36504 0.92077 0.69694 0.0
H2304 H 0.35712 0.95427 0.71587 0.0
H2305 H 0.26448 0.93351 0.71152 0.0
H2306 H 0.27234 0.89913 0.69296 0.0
H2307 H 0.27809 0.95081 0.75085 0.0
H2308 H 0.30001 0.97535 0.67812 0.0
H2309 H 0.32658 0.97921 0.643 0.0
H2310 H 0.40289 0.01208 0.67596 0.0
H2311 H 0.37692 0.00814 0.71134 0.0
C2312 C 0.28737 0.05723 0.78164 0.0
C2313 C 0.31486 0.06681 0.78962 0.0
C2314 C 0.28389 0.03719 0.76983 0.0
C2315 C 0.3079 0.02658 0.76563 0.0
C2316 C 0.33515 0.03589 0.77395 0.0
C2317 C 0.33856 0.05564 0.78595 0.0
C2318 C 0.30534 0.00627 0.75183 0.0
C2319 C 0.3206 0.00754 0.73192 0.0
C2320 C 0.289 0.98574 0.75834 0.0
C2321 C 0.27241 0.9834 0.77918 0.0
C2322 C 0.28644 0.98867 0.79936 0.0
C2323 C 0.27057 0.98649 0.81892 0.0
C2324 C 0.24069 0.97891 0.81851 0.0
C2325 C 0.22663 0.97341 0.79853 0.0
C2326 C 0.24241 0.97557 0.77893 0.0
C2327 C 0.3429 0.92325 0.69983 0.0
C2328 C 0.31931 0.90727 0.69321 0.0
C2329 C 0.3384 0.94257 0.71064 0.0
C2330 C 0.31019 0.94676 0.71474 0.0
C2331 C 0.28647 0.93075 0.70841 0.0
C2332 C 0.29098 0.91115 0.69775 0.0
C2333 C 0.30603 0.96779 0.7259 0.0
C2334 C 0.28946 0.96675 0.74526 0.0
C2335 C 0.32084 0.98869 0.71872 0.0
C2336 C 0.33653 0.99134 0.69742 0.0
C2337 C 0.32251 0.9833 0.67791 0.0
C2338 C 0.33746 0.98551 0.65795 0.0
C2339 C 0.36641 0.99586 0.65725 0.0
C2340 C 0.38046 1.00407 0.67652 0.0
C2341 C 0.36561 1.00188 0.69653 0.0
H2342 H 0.37796 0.99754 0.64178 0.0
H2343 H 0.22844 0.97723 0.83366 0.0
H2344 H 0.41678 0.18928 0.81079 0.0
H2345 H 0.45893 0.2176 0.81653 0.0
H2346 H 0.43098 0.2275 0.88278 0.0
H2347 H 0.38761 0.19916 0.87682 0.0
H2348 H 0.45452 0.26698 0.86365 0.0
H2349 H 0.48448 0.19721 0.87427 0.0
H2350 H 0.48741 0.15806 0.86601 0.0
H2351 H 0.53147 0.17754 0.80554 0.0
H2352 H 0.52844 0.21681 0.81326 0.0
H2353 H 0.60652 0.32328 0.87554 0.0
H2354 H 0.56346 0.29507 0.88276 0.0
H2355 H 0.54924 0.28667 0.81316 0.0
H2356 H 0.5913 0.31513 0.80586 0.0
H2357 H 0.54899 0.24509 0.84325 0.0
H2358 H 0.50955 0.31421 0.83147 0.0
H2359 H 0.5069 0.35317 0.84086 0.0
H2360 H 0.48197 0.33379 0.90678 0.0
H2361 H 0.48508 0.29473 0.89785 0.0
C2362 C 0.41943 0.19743 0.82662 0.0
C2363 C 0.39907 0.19166 0.8435 0.0
C2364 C 0.44365 0.21366 0.82989 0.0
C2365 C 0.44863 0.22426 0.85028 0.0
C2366 C 0.42773 0.21935 0.86697 0.0
C2367 C 0.40302 0.20318 0.86357 0.0
C2368 C 0.47622 0.2399 0.85383 0.0
C2369 C 0.47523 0.26205 0.8597 0.0
C2370 C 0.5034 0.23353 0.84879 0.0
C2371 C 0.50614 0.20998 0.84433 0.0
C2372 C 0.49472 0.19315 0.85917 0.0
C2373 C 0.49637 0.17093 0.85457 0.0
C2374 C 0.50957 0.16531 0.83524 0.0
C2375 C 0.52126 0.18192 0.82051 0.0
C2376 C 0.51964 0.20418 0.82502 0.0
C2377 C 0.5942 0.31534 0.86183 0.0
C2378 C 0.60217 0.32146 0.84015 0.0
C2379 C 0.56966 0.29931 0.86597 0.0
C2380 C 0.55326 0.28886 0.84846 0.0
C2381 C 0.56165 0.29457 0.82686 0.0
C2382 C 0.5856 0.3109 0.82274 0.0
C2383 C 0.52699 0.27214 0.85228 0.0
C2384 C 0.52833 0.2498 0.84777 0.0
C2385 C 0.50034 0.27827 0.85889 0.0
C2386 C 0.49795 0.30163 0.86409 0.0
C2387 C 0.50381 0.31829 0.84803 0.0
C2388 C 0.50217 0.34038 0.85325 0.0
C2389 C 0.49437 0.34597 0.87442 0.0
C2390 C 0.48808 0.32945 0.8904 0.0
C2391 C 0.48979 0.30734 0.88527 0.0
H2392 H 0.49311 0.36308 0.87844 0.0
H2393 H 0.51076 0.14809 0.83168 0.0
H2394 H 0.39975 0.60637 0.25426 0.0
H2395 H 0.40011 0.57107 0.27314 0.0
H2396 H 0.3231 0.54215 0.23788 0.0
H2397 H 0.3229 0.57723 0.21863 0.0
H2398 H 0.36222 0.54938 0.3007 0.0
H2399 H 0.32188 0.48661 0.23168 0.0
H2400 H 0.32452 0.48367 0.19137 0.0
H2401 H 0.40426 0.52997 0.19104 0.0
H2402 H 0.4023 0.53296 0.23136 0.0
H2403 H 0.32347 0.44115 0.3481 0.0
H2404 H 0.32226 0.47559 0.3276 0.0
H2405 H 0.39547 0.46329 0.28895 0.0
H2406 H 0.39631 0.42885 0.30866 0.0
H2407 H 0.35807 0.47676 0.26312 0.0
H2408 H 0.40186 0.50168 0.33212 0.0
H2409 H 0.4045 0.50503 0.37244 0.0
H2410 H 0.3276 0.53533 0.37275 0.0
H2411 H 0.3243 0.5319 0.33243 0.0
C2412 C 0.38314 0.59241 0.25024 0.0
C2413 C 0.36138 0.59467 0.23483 0.0
C2414 C 0.38325 0.57226 0.26119 0.0
C2415 C 0.36166 0.55388 0.25696 0.0
C2416 C 0.34023 0.55595 0.24126 0.0
C2417 C 0.34017 0.57607 0.23022 0.0
C2418 C 0.36117 0.53278 0.2694 0.0
C2419 C 0.36128 0.5335 0.29246 0.0
C2420 C 0.3602 0.51203 0.25875 0.0
C2421 C 0.36175 0.51018 0.23452 0.0
C2422 C 0.34002 0.49611 0.22301 0.0
C2423 C 0.34139 0.49444 0.20016 0.0
C2424 C 0.36449 0.50669 0.18864 0.0
C2425 C 0.38632 0.52056 0.19997 0.0
C2426 C 0.38506 0.52228 0.22281 0.0
C2427 C 0.33934 0.44581 0.33527 0.0
C2428 C 0.36012 0.43221 0.33024 0.0
C2429 C 0.33867 0.46555 0.32358 0.0
C2430 C 0.35897 0.47221 0.30681 0.0
C2431 C 0.37953 0.45857 0.30173 0.0
C2432 C 0.38007 0.43886 0.31321 0.0
C2433 C 0.35914 0.49333 0.29444 0.0
C2434 C 0.35884 0.49261 0.27138 0.0
C2435 C 0.36063 0.51414 0.30509 0.0
C2436 C 0.36267 0.51633 0.3293 0.0
C2437 C 0.3854 0.50892 0.34081 0.0
C2438 C 0.38703 0.51085 0.36365 0.0
C2439 C 0.36618 0.52033 0.37515 0.0
C2440 C 0.34371 0.52796 0.36382 0.0
C2441 C 0.34195 0.52604 0.34098 0.0
H2442 H 0.36748 0.52181 0.39284 0.0
H2443 H 0.3655 0.50538 0.17095 0.0
H2444 H 0.70692 0.07487 0.34294 0.0
H2445 H 0.71265 0.04325 0.31924 0.0
H2446 H 0.62486 0.04049 0.29609 0.0
H2447 H 0.61935 0.0722 0.31879 0.0
H2448 H 0.68779 1.00102 0.31421 0.0
H2449 H 0.6195 0.03024 0.24282 0.0
H2450 H 0.60862 0.06569 0.22814 0.0
H2451 H 0.68823 0.10018 0.25524 0.0
H2452 H 0.69987 0.06494 0.26965 0.0
H2453 H 0.64795 0.91018 0.24438 0.0
H2454 H 0.6475 0.9426 0.26784 0.0
H2455 H 0.69546 0.98435 0.21867 0.0
H2456 H 0.69424 0.95202 0.19456 0.0
H2457 H 0.66091 0.00676 0.23585 0.0
H2458 H 0.72764 0.96464 0.2669 0.0
H2459 H 0.74443 0.93092 0.28077 0.0
H2460 H 0.6812 0.92581 0.33247 0.0
H2461 H 0.66366 0.95929 0.31869 0.0
C2462 C 0.68876 0.06737 0.33296 0.0
C2463 C 0.66273 0.07627 0.33276 0.0
C2464 C 0.69206 0.04928 0.31941 0.0
C2465 C 0.66939 0.03973 0.30549 0.0
C2466 C 0.64294 0.04784 0.30624 0.0
C2467 C 0.63976 0.06598 0.31945 0.0
C2468 C 0.67326 0.02189 0.2895 0.0
C2469 C 0.68201 1.00228 0.29707 0.0
C2470 C 0.66677 0.02378 0.26691 0.0
C2471 C 0.66043 0.04493 0.25747 0.0
C2472 C 0.6348 0.04536 0.24547 0.0
C2473 C 0.62849 0.06543 0.23721 0.0
C2474 C 0.64769 0.08519 0.24078 0.0
C2475 C 0.67335 0.08489 0.25248 0.0
C2476 C 0.67981 0.06487 0.2607 0.0
C2477 C 0.65806 0.92634 0.23847 0.0
C2478 C 0.67116 0.92856 0.21765 0.0
C2479 C 0.65809 0.94487 0.252 0.0
C2480 C 0.67224 0.96597 0.24542 0.0
C2481 C 0.68452 0.96832 0.22428 0.0
C2482 C 0.6838 0.94982 0.21047 0.0
C2483 C 0.67438 0.98542 0.26068 0.0
C2484 C 0.66687 0.00544 0.25294 0.0
C2485 C 0.68318 0.98419 0.28291 0.0
C2486 C 0.69421 0.96441 0.29166 0.0
C2487 C 0.71724 0.95629 0.28118 0.0
C2488 C 0.72688 0.9372 0.28902 0.0
C2489 C 0.71386 0.92621 0.30747 0.0
C2490 C 0.69125 0.93434 0.31818 0.0
C2491 C 0.68147 0.95338 0.31037 0.0
H2492 H 0.72131 0.91142 0.31348 0.0
H2493 H 0.64271 0.10072 0.23446 0.0
H2494 H 0.60319 0.82921 0.22717 0.0
H2495 H 0.55778 0.80372 0.23438 0.0
H2496 H 0.54914 0.78885 0.16529 0.0
H2497 H 0.5942 0.8137 0.15799 0.0
H2498 H 0.49694 0.79477 0.18445 0.0
H2499 H 0.57794 0.75526 0.19827 0.0
H2500 H 0.62298 0.75023 0.21739 0.0
H2501 H 0.57827 0.74648 0.27922 0.0
H2502 H 0.53305 0.75186 0.26046 0.0
H2503 H 0.41857 0.69317 0.16065 0.0
H2504 H 0.46039 0.7214 0.16772 0.0
H2505 H 0.4399 0.71974 0.23675 0.0
H2506 H 0.39756 0.69087 0.22982 0.0
H2507 H 0.50231 0.72565 0.22617 0.0
H2508 H 0.41801 0.75712 0.20991 0.0
H2509 H 0.37351 0.75979 0.1891 0.0
H2510 H 0.42419 0.77927 0.13152 0.0
H2511 H 0.46899 0.7756 0.15164 0.0
C2512 C 0.5914 0.82074 0.21349 0.0
C2513 C 0.60245 0.8236 0.19198 0.0
C2514 C 0.5655 0.80613 0.21765 0.0
C2515 C 0.55011 0.79433 0.20036 0.0
C2516 C 0.56054 0.79784 0.17887 0.0
C2517 C 0.58644 0.81212 0.17474 0.0
C2518 C 0.52401 0.77732 0.20432 0.0
C2519 C 0.49804 0.77972 0.19367 0.0
C2520 C 0.52524 0.75791 0.21681 0.0
C2521 C 0.55223 0.75423 0.22801 0.0
C2522 C 0.57777 0.75351 0.21596 0.0
C2523 C 0.60333 0.75059 0.22672 0.0
C2524 C 0.60351 0.74811 0.24952 0.0
C2525 C 0.57811 0.74846 0.26157 0.0
C2526 C 0.55251 0.75145 0.25088 0.0
C2527 C 0.42303 0.69839 0.17744 0.0
C2528 C 0.40436 0.68986 0.19462 0.0
C2529 C 0.44707 0.7146 0.18145 0.0
C2530 C 0.45297 0.72296 0.20268 0.0
C2531 C 0.43563 0.71355 0.22021 0.0
C2532 C 0.41144 0.69708 0.21621 0.0
C2533 C 0.47562 0.74285 0.20569 0.0
C2534 C 0.50088 0.74098 0.21754 0.0
C2535 C 0.47376 0.76282 0.1943 0.0
C2536 C 0.44695 0.766 0.18232 0.0
C2537 C 0.41972 0.76184 0.19278 0.0
C2538 C 0.39441 0.76351 0.18109 0.0
C2539 C 0.39603 0.76989 0.15907 0.0
C2540 C 0.42298 0.77443 0.14862 0.0
C2541 C 0.44835 0.77247 0.16014 0.0
H2542 H 0.37639 0.77128 0.1501 0.0
H2543 H 0.62332 0.74586 0.25783 0.0
loop_
_geom_bond_atom_site_label_1
_geom_bond_atom_site_label_2
_geom_bond_distance
_geom_bond_site_symmetry_2
_ccdc_geom_bond_type
Co0 O2 2.143 . S
Co0 O8 2.074 . S
Co0 O11 2.093 . S
Co0 O24 2.097 . S
Co0 N41 2.151 . S
Co0 N49 2.214 . S
Co1 O2 2.160 . S
Co1 O7 2.058 . S
Co1 O17 2.057 . S
Co1 O32 2.037 . S
Co1 N36 2.145 . S
Co1 N57 2.257 . S
O2 Co0 2.143 . S
O2 Co1 2.160 . S
C3 O4 1.278 . S
C3 O11 1.224 . S
O4 C3 1.278 . S
C5 O6 1.245 . S
C5 O17 1.232 . S
O6 C5 1.245 . S
O7 Co1 2.058 . S
O7 C33 1.269 . S
O8 Co0 2.074 . S
O8 C33 1.257 . S
H9 C34 0.930 . S
H10 C40 0.930 . S
O11 Co0 2.093 . S
O11 C3 1.224 . S
H12 C44 0.929 . S
H13 C46 0.930 . S
H14 C47 0.930 . S
H15 C45 0.929 . S
H16 C48 0.928 . S
O17 Co1 2.057 . S
O17 C5 1.232 . S
H18 C37 0.929 . S
H19 C38 0.929 . S
H20 C50 0.931 . S
H21 C42 0.929 . S
H22 C51 0.930 . S
H23 C43 0.931 . S
O24 Co0 2.097 . S
O24 C52 1.214 . S
H25 C53 0.929 . S
H26 C54 0.929 . S
H27 C55 0.930 . S
H28 C56 0.929 . S
H29 C58 0.930 . S
H30 C35 0.930 . S
H31 C39 0.930 . S
O32 Co1 2.037 . S
O32 C52 1.234 . S
C33 O7 1.269 . S
C33 O8 1.257 . S
C34 H9 0.930 . S
C34 C37 1.388 . S
C34 C39 1.418 . S
C35 H30 0.930 . S
C35 C38 1.404 . S
C35 C39 1.353 . S
N36 Co1 2.145 . S
N36 C37 1.397 . S
N36 C38 1.334 . S
C37 H18 0.929 . S
C37 C34 1.388 . S
C37 N36 1.397 . S
C38 H19 0.929 . S
C38 C35 1.404 . S
C38 N36 1.334 . S
C39 H31 0.930 . S
C39 C34 1.418 . S
C39 C35 1.353 . S
C40 H10 0.930 . S
C40 N41 1.330 . S
C40 C42 1.446 . S
N41 Co0 2.151 . S
N41 C40 1.330 . S
N41 C45 1.418 . S
C42 H21 0.929 . S
C42 C40 1.446 . S
C42 C43 1.332 . S
C43 H23 0.931 . S
C43 C42 1.332 . S
C43 C44 1.267 . S
C44 H12 0.929 . S
C44 C43 1.267 . S
C44 C45 1.251 . S
C45 H15 0.929 . S
C45 N41 1.418 . S
C45 C44 1.251 . S
C46 H13 0.930 . S
C46 C48 1.406 . S
C46 C51 1.261 . S
C47 H14 0.930 . S
C47 N49 1.325 . S
C47 C50 1.357 . S
C48 H16 0.928 . S
C48 C46 1.406 . S
C48 N49 1.261 . S
N49 Co0 2.214 . S
N49 C47 1.325 . S
N49 C48 1.261 . S
C50 H20 0.931 . S
C50 C47 1.357 . S
C50 C51 1.312 . S
C51 H22 0.930 . S
C51 C46 1.261 . S
C51 C50 1.312 . S
C52 O24 1.214 . S
C52 O32 1.234 . S
C53 H25 0.929 . S
C53 C56 1.391 . S
C53 C58 1.391 . S
C54 H26 0.929 . S
C54 C55 1.390 . S
C54 N57 1.391 . S
C55 H27 0.930 . S
C55 C54 1.390 . S
C55 C56 1.392 . S
C56 H28 0.929 . S
C56 C53 1.391 . S
C56 C55 1.392 . S
N57 Co1 2.257 . S
N57 C54 1.391 . S
N57 C58 1.388 . S
C58 H29 0.930 . S
C58 C53 1.391 . S
C58 N57 1.388 . S
Co59 O61 2.143 . S
Co59 O67 2.074 . S
Co59 O70 2.093 . S
Co59 O83 2.097 . S
Co59 N100 2.151 . S
Co59 N108 2.214 . S
Co60 O61 2.160 . S
Co60 O66 2.058 . S
Co60 O76 2.057 . S
Co60 O91 2.037 . S
Co60 N95 2.145 . S
Co60 N116 2.257 . S
O61 Co59 2.143 . S
O61 Co60 2.160 . S
C62 O63 1.278 . S
C62 O70 1.224 . S
O63 C62 1.278 . S
C64 O65 1.245 . S
C64 O76 1.232 . S
O65 C64 1.245 . S
O66 Co60 2.058 . S
O66 C92 1.269 . S
O67 Co59 2.074 . S
O67 C92 1.257 . S
H68 C93 0.930 . S
H69 C99 0.930 . S
O70 Co59 2.093 . S
O70 C62 1.224 . S
H71 C103 0.929 . S
H72 C105 0.930 . S
H73 C106 0.930 . S
H74 C104 0.929 . S
H75 C107 0.928 . S
O76 Co60 2.057 . S
O76 C64 1.232 . S
H77 C96 0.929 . S
H78 C97 0.929 . S
H79 C109 0.931 . S
H80 C101 0.929 . S
H81 C110 0.930 . S
H82 C102 0.931 . S
O83 Co59 2.097 . S
O83 C111 1.214 . S
H84 C112 0.929 . S
H85 C113 0.929 . S
H86 C114 0.930 . S
H87 C115 0.929 . S
H88 C117 0.930 . S
H89 C94 0.930 . S
H90 C98 0.930 . S
O91 Co60 2.037 . S
O91 C111 1.234 . S
C92 O66 1.269 . S
C92 O67 1.257 . S
C93 H68 0.930 . S
C93 C96 1.388 . S
C93 C98 1.418 . S
C94 H89 0.930 . S
C94 C97 1.404 . S
C94 C98 1.353 . S
N95 Co60 2.145 . S
N95 C96 1.397 . S
N95 C97 1.334 . S
C96 H77 0.929 . S
C96 C93 1.388 . S
C96 N95 1.397 . S
C97 H78 0.929 . S
C97 C94 1.404 . S
C97 N95 1.334 . S
C98 H90 0.930 . S
C98 C93 1.418 . S
C98 C94 1.353 . S
C99 H69 0.930 . S
C99 N100 1.330 . S
C99 C101 1.446 . S
N100 Co59 2.151 . S
N100 C99 1.330 . S
N100 C104 1.418 . S
C101 H80 0.929 . S
C101 C99 1.446 . S
C101 C102 1.332 . S
C102 H82 0.931 . S
C102 C101 1.332 . S
C102 C103 1.267 . S
C103 H71 0.929 . S
C103 C102 1.267 . S
C103 C104 1.251 . S
C104 H74 0.929 . S
C104 N100 1.418 . S
C104 C103 1.251 . S
C105 H72 0.930 . S
C105 C107 1.406 . S
C105 C110 1.261 . S
C106 H73 0.930 . S
C106 N108 1.325 . S
C106 C109 1.357 . S
C107 H75 0.928 . S
C107 C105 1.406 . S
C107 N108 1.261 . S
N108 Co59 2.214 . S
N108 C106 1.325 . S
N108 C107 1.261 . S
C109 H79 0.931 . S
C109 C106 1.357 . S
C109 C110 1.312 . S
C110 H81 0.930 . S
C110 C105 1.261 . S
C110 C109 1.312 . S
C111 O83 1.214 . S
C111 O91 1.234 . S
C112 H84 0.929 . S
C112 C115 1.391 . S
C112 C117 1.391 . S
C113 H85 0.929 . S
C113 C114 1.390 . S
C113 N116 1.391 . S
C114 H86 0.930 . S
C114 C113 1.390 . S
C114 C115 1.392 . S
C115 H87 0.929 . S
C115 C112 1.391 . S
C115 C114 1.392 . S
N116 Co60 2.257 . S
N116 C113 1.391 . S
N116 C117 1.388 . S
C117 H88 0.930 . S
C117 C112 1.391 . S
C117 N116 1.388 . S
Co118 O120 2.143 . S
Co118 O126 2.074 . S
Co118 O129 2.093 . S
Co118 O142 2.097 . S
Co118 N159 2.151 . S
Co118 N167 2.214 . S
Co119 O120 2.160 . S
Co119 O125 2.058 . S
Co119 O135 2.057 . S
Co119 O150 2.037 . S
Co119 N154 2.145 . S
Co119 N175 2.257 . S
O120 Co118 2.143 . S
O120 Co119 2.160 . S
C121 O122 1.278 . S
C121 O129 1.224 . S
O122 C121 1.278 . S
C123 O124 1.245 . S
C123 O135 1.232 . S
O124 C123 1.245 . S
O125 Co119 2.058 . S
O125 C151 1.269 . S
O126 Co118 2.074 . S
O126 C151 1.257 . S
H127 C152 0.930 . S
H128 C158 0.930 . S
O129 Co118 2.093 . S
O129 C121 1.224 . S
H130 C162 0.929 . S
H131 C164 0.930 . S
H132 C165 0.930 . S
H133 C163 0.929 . S
H134 C166 0.928 . S
O135 Co119 2.057 . S
O135 C123 1.232 . S
H136 C155 0.929 . S
H137 C156 0.929 . S
H138 C168 0.931 . S
H139 C160 0.929 . S
H140 C169 0.930 . S
H141 C161 0.931 . S
O142 Co118 2.097 . S
O142 C170 1.214 . S
H143 C171 0.929 . S
H144 C172 0.929 . S
H145 C173 0.930 . S
H146 C174 0.929 . S
H147 C176 0.930 . S
H148 C153 0.930 . S
H149 C157 0.930 . S
O150 Co119 2.037 . S
O150 C170 1.234 . S
C151 O125 1.269 . S
C151 O126 1.257 . S
C152 H127 0.930 . S
C152 C155 1.388 . S
C152 C157 1.418 . S
C153 H148 0.930 . S
C153 C156 1.404 . S
C153 C157 1.353 . S
N154 Co119 2.145 . S
N154 C155 1.397 . S
N154 C156 1.334 . S
C155 H136 0.929 . S
C155 C152 1.388 . S
C155 N154 1.397 . S
C156 H137 0.929 . S
C156 C153 1.404 . S
C156 N154 1.334 . S
C157 H149 0.930 . S
C157 C152 1.418 . S
C157 C153 1.353 . S
C158 H128 0.930 . S
C158 N159 1.330 . S
C158 C160 1.446 . S
N159 Co118 2.151 . S
N159 C158 1.330 . S
N159 C163 1.418 . S
C160 H139 0.929 . S
C160 C158 1.446 . S
C160 C161 1.332 . S
C161 H141 0.931 . S
C161 C160 1.332 . S
C161 C162 1.267 . S
C162 H130 0.929 . S
C162 C161 1.267 . S
C162 C163 1.251 . S
C163 H133 0.929 . S
C163 N159 1.418 . S
C163 C162 1.251 . S
C164 H131 0.930 . S
C164 C166 1.406 . S
C164 C169 1.261 . S
C165 H132 0.930 . S
C165 N167 1.325 . S
C165 C168 1.357 . S
C166 H134 0.928 . S
C166 C164 1.406 . S
C166 N167 1.261 . S
N167 Co118 2.214 . S
N167 C165 1.325 . S
N167 C166 1.261 . S
C168 H138 0.931 . S
C168 C165 1.357 . S
C168 C169 1.312 . S
C169 H140 0.930 . S
C169 C164 1.261 . S
C169 C168 1.312 . S
C170 O142 1.214 . S
C170 O150 1.234 . S
C171 H143 0.929 . S
C171 C174 1.391 . S
C171 C176 1.391 . S
C172 H144 0.929 . S
C172 C173 1.390 . S
C172 N175 1.391 . S
C173 H145 0.930 . S
C173 C172 1.390 . S
C173 C174 1.392 . S
C174 H146 0.929 . S
C174 C171 1.391 . S
C174 C173 1.392 . S
N175 Co119 2.257 . S
N175 C172 1.391 . S
N175 C176 1.388 . S
C176 H147 0.930 . S
C176 C171 1.391 . S
C176 N175 1.388 . S
Co177 O179 2.143 . S
Co177 O185 2.074 . S
Co177 O188 2.093 . S
Co177 O201 2.097 . S
Co177 N218 2.151 . S
Co177 N226 2.214 . S
Co178 O179 2.160 . S
Co178 O184 2.058 . S
Co178 O194 2.057 . S
Co178 O209 2.037 . S
Co178 N213 2.145 . S
Co178 N234 2.257 . S
O179 Co177 2.143 . S
O179 Co178 2.160 . S
C180 O181 1.278 . S
C180 O188 1.224 . S
O181 C180 1.278 . S
C182 O183 1.245 . S
C182 O194 1.232 . S
O183 C182 1.245 . S
O184 Co178 2.058 . S
O184 C210 1.269 . S
O185 Co177 2.074 . S
O185 C210 1.257 . S
H186 C211 0.930 . S
H187 C217 0.930 . S
O188 Co177 2.093 . S
O188 C180 1.224 . S
H189 C221 0.929 . S
H190 C223 0.930 . S
H191 C224 0.930 . S
H192 C222 0.929 . S
H193 C225 0.928 . S
O194 Co178 2.057 . S
O194 C182 1.232 . S
H195 C214 0.929 . S
H196 C215 0.929 . S
H197 C227 0.931 . S
H198 C219 0.929 . S
H199 C228 0.930 . S
H200 C220 0.931 . S
O201 Co177 2.097 . S
O201 C229 1.214 . S
H202 C230 0.929 . S
H203 C231 0.929 . S
H204 C232 0.930 . S
H205 C233 0.929 . S
H206 C235 0.930 . S
H207 C212 0.930 . S
H208 C216 0.930 . S
O209 Co178 2.037 . S
O209 C229 1.234 . S
C210 O184 1.269 . S
C210 O185 1.257 . S
C211 H186 0.930 . S
C211 C214 1.388 . S
C211 C216 1.418 . S
C212 H207 0.930 . S
C212 C215 1.404 . S
C212 C216 1.353 . S
N213 Co178 2.145 . S
N213 C214 1.397 . S
N213 C215 1.334 . S
C214 H195 0.929 . S
C214 C211 1.388 . S
C214 N213 1.397 . S
C215 H196 0.929 . S
C215 C212 1.404 . S
C215 N213 1.334 . S
C216 H208 0.930 . S
C216 C211 1.418 . S
C216 C212 1.353 . S
C217 H187 0.930 . S
C217 N218 1.330 . S
C217 C219 1.446 . S
N218 Co177 2.151 . S
N218 C217 1.330 . S
N218 C222 1.418 . S
C219 H198 0.929 . S
C219 C217 1.446 . S
C219 C220 1.332 . S
C220 H200 0.931 . S
C220 C219 1.332 . S
C220 C221 1.267 . S
C221 H189 0.929 . S
C221 C220 1.267 . S
C221 C222 1.251 . S
C222 H192 0.929 . S
C222 N218 1.418 . S
C222 C221 1.251 . S
C223 H190 0.930 . S
C223 C225 1.406 . S
C223 C228 1.261 . S
C224 H191 0.930 . S
C224 N226 1.325 . S
C224 C227 1.357 . S
C225 H193 0.928 . S
C225 C223 1.406 . S
C225 N226 1.261 . S
N226 Co177 2.214 . S
N226 C224 1.325 . S
N226 C225 1.261 . S
C227 H197 0.931 . S
C227 C224 1.357 . S
C227 C228 1.312 . S
C228 H199 0.930 . S
C228 C223 1.261 . S
C228 C227 1.312 . S
C229 O201 1.214 . S
C229 O209 1.234 . S
C230 H202 0.929 . S
C230 C233 1.391 . S
C230 C235 1.391 . S
C231 H203 0.929 . S
C231 C232 1.390 . S
C231 N234 1.391 . S
C232 H204 0.930 . S
C232 C231 1.390 . S
C232 C233 1.392 . S
C233 H205 0.929 . S
C233 C230 1.391 . S
C233 C232 1.392 . S
N234 Co178 2.257 . S
N234 C231 1.391 . S
N234 C235 1.388 . S
C235 H206 0.930 . S
C235 C230 1.391 . S
C235 N234 1.388 . S
Co236 O238 2.143 . S
Co236 O244 2.074 . S
Co236 O247 2.093 . S
Co236 O260 2.097 . S
Co236 N277 2.151 . S
Co236 N285 2.214 . S
Co237 O238 2.160 . S
Co237 O243 2.058 . S
Co237 O253 2.057 . S
Co237 O268 2.037 . S
Co237 N272 2.145 . S
Co237 N293 2.257 . S
O238 Co236 2.143 . S
O238 Co237 2.160 . S
C239 O240 1.278 . S
C239 O247 1.224 . S
O240 C239 1.278 . S
C241 O242 1.245 . S
C241 O253 1.232 . S
O242 C241 1.245 . S
O243 Co237 2.058 . S
O243 C269 1.269 . S
O244 Co236 2.074 . S
O244 C269 1.257 . S
H245 C270 0.930 . S
H246 C276 0.930 . S
O247 Co236 2.093 . S
O247 C239 1.224 . S
H248 C280 0.929 . S
H249 C282 0.930 . S
H250 C283 0.930 . S
H251 C281 0.929 . S
H252 C284 0.928 . S
O253 Co237 2.057 . S
O253 C241 1.232 . S
H254 C273 0.929 . S
H255 C274 0.929 . S
H256 C286 0.931 . S
H257 C278 0.929 . S
H258 C287 0.930 . S
H259 C279 0.931 . S
O260 Co236 2.097 . S
O260 C288 1.214 . S
H261 C289 0.929 . S
H262 C290 0.929 . S
H263 C291 0.930 . S
H264 C292 0.929 . S
H265 C294 0.930 . S
H266 C271 0.930 . S
H267 C275 0.930 . S
O268 Co237 2.037 . S
O268 C288 1.234 . S
C269 O243 1.269 . S
C269 O244 1.257 . S
C270 H245 0.930 . S
C270 C273 1.388 . S
C270 C275 1.418 . S
C271 H266 0.930 . S
C271 C274 1.404 . S
C271 C275 1.353 . S
N272 Co237 2.145 . S
N272 C273 1.397 . S
N272 C274 1.334 . S
C273 H254 0.929 . S
C273 C270 1.388 . S
C273 N272 1.397 . S
C274 H255 0.929 . S
C274 C271 1.404 . S
C274 N272 1.334 . S
C275 H267 0.930 . S
C275 C270 1.418 . S
C275 C271 1.353 . S
C276 H246 0.930 . S
C276 N277 1.330 . S
C276 C278 1.446 . S
N277 Co236 2.151 . S
N277 C276 1.330 . S
N277 C281 1.418 . S
C278 H257 0.929 . S
C278 C276 1.446 . S
C278 C279 1.332 . S
C279 H259 0.931 . S
C279 C278 1.332 . S
C279 C280 1.267 . S
C280 H248 0.929 . S
C280 C279 1.267 . S
C280 C281 1.251 . S
C281 H251 0.929 . S
C281 N277 1.418 . S
C281 C280 1.251 . S
C282 H249 0.930 . S
C282 C284 1.406 . S
C282 C287 1.261 . S
C283 H250 0.930 . S
C283 N285 1.325 . S
C283 C286 1.357 . S
C284 H252 0.928 . S
C284 C282 1.406 . S
C284 N285 1.261 . S
N285 Co236 2.214 . S
N285 C283 1.325 . S
N285 C284 1.261 . S
C286 H256 0.931 . S
C286 C283 1.357 . S
C286 C287 1.312 . S
C287 H258 0.930 . S
C287 C282 1.261 . S
C287 C286 1.312 . S
C288 O260 1.214 . S
C288 O268 1.234 . S
C289 H261 0.929 . S
C289 C292 1.391 . S
C289 C294 1.391 . S
C290 H262 0.929 . S
C290 C291 1.390 . S
C290 N293 1.391 . S
C291 H263 0.930 . S
C291 C290 1.390 . S
C291 C292 1.392 . S
C292 H264 0.929 . S
C292 C289 1.391 . S
C292 C291 1.392 . S
N293 Co237 2.257 . S
N293 C290 1.391 . S
N293 C294 1.388 . S
C294 H265 0.930 . S
C294 C289 1.391 . S
C294 N293 1.388 . S
Co295 O297 2.143 . S
Co295 O303 2.074 . S
Co295 O306 2.093 . S
Co295 O319 2.097 . S
Co295 N336 2.151 . S
Co295 N344 2.214 . S
Co296 O297 2.160 . S
Co296 O302 2.058 . S
Co296 O312 2.057 . S
Co296 O327 2.037 . S
Co296 N331 2.145 . S
Co296 N352 2.257 . S
O297 Co295 2.143 . S
O297 Co296 2.160 . S
C298 O299 1.278 . S
C298 O306 1.224 . S
O299 C298 1.278 . S
C300 O301 1.245 . S
C300 O312 1.232 . S
O301 C300 1.245 . S
O302 Co296 2.058 . S
O302 C328 1.269 . S
O303 Co295 2.074 . S
O303 C328 1.257 . S
H304 C329 0.930 . S
H305 C335 0.930 . S
O306 Co295 2.093 . S
O306 C298 1.224 . S
H307 C339 0.929 . S
H308 C341 0.930 . S
H309 C342 0.930 . S
H310 C340 0.929 . S
H311 C343 0.928 . S
O312 Co296 2.057 . S
O312 C300 1.232 . S
H313 C332 0.929 . S
H314 C333 0.929 . S
H315 C345 0.931 . S
H316 C337 0.929 . S
H317 C346 0.930 . S
H318 C338 0.931 . S
O319 Co295 2.097 . S
O319 C347 1.214 . S
H320 C348 0.929 . S
H321 C349 0.929 . S
H322 C350 0.930 . S
H323 C351 0.929 . S
H324 C353 0.930 . S
H325 C330 0.930 . S
H326 C334 0.930 . S
O327 Co296 2.037 . S
O327 C347 1.234 . S
C328 O302 1.269 . S
C328 O303 1.257 . S
C329 H304 0.930 . S
C329 C332 1.388 . S
C329 C334 1.418 . S
C330 H325 0.930 . S
C330 C333 1.404 . S
C330 C334 1.353 . S
N331 Co296 2.145 . S
N331 C332 1.397 . S
N331 C333 1.334 . S
C332 H313 0.929 . S
C332 C329 1.388 . S
C332 N331 1.397 . S
C333 H314 0.929 . S
C333 C330 1.404 . S
C333 N331 1.334 . S
C334 H326 0.930 . S
C334 C329 1.418 . S
C334 C330 1.353 . S
C335 H305 0.930 . S
C335 N336 1.330 . S
C335 C337 1.446 . S
N336 Co295 2.151 . S
N336 C335 1.330 . S
N336 C340 1.418 . S
C337 H316 0.929 . S
C337 C335 1.446 . S
C337 C338 1.332 . S
C338 H318 0.931 . S
C338 C337 1.332 . S
C338 C339 1.267 . S
C339 H307 0.929 . S
C339 C338 1.267 . S
C339 C340 1.251 . S
C340 H310 0.929 . S
C340 N336 1.418 . S
C340 C339 1.251 . S
C341 H308 0.930 . S
C341 C343 1.406 . S
C341 C346 1.261 . S
C342 H309 0.930 . S
C342 N344 1.325 . S
C342 C345 1.357 . S
C343 H311 0.928 . S
C343 C341 1.406 . S
C343 N344 1.261 . S
N344 Co295 2.214 . S
N344 C342 1.325 . S
N344 C343 1.261 . S
C345 H315 0.931 . S
C345 C342 1.357 . S
C345 C346 1.312 . S
C346 H317 0.930 . S
C346 C341 1.261 . S
C346 C345 1.312 . S
C347 O319 1.214 . S
C347 O327 1.234 . S
C348 H320 0.929 . S
C348 C351 1.391 . S
C348 C353 1.391 . S
C349 H321 0.929 . S
C349 C350 1.390 . S
C349 N352 1.391 . S
C350 H322 0.930 . S
C350 C349 1.390 . S
C350 C351 1.392 . S
C351 H323 0.929 . S
C351 C348 1.391 . S
C351 C350 1.392 . S
N352 Co296 2.257 . S
N352 C349 1.391 . S
N352 C353 1.388 . S
C353 H324 0.930 . S
C353 C348 1.391 . S
C353 N352 1.388 . S
Co354 O356 2.143 . S
Co354 O362 2.074 . S
Co354 O365 2.093 . S
Co354 O378 2.097 . S
Co354 N395 2.151 . S
Co354 N403 2.214 . S
Co355 O356 2.160 . S
Co355 O361 2.058 . S
Co355 O371 2.057 . S
Co355 O386 2.037 . S
Co355 N390 2.145 . S
Co355 N411 2.257 . S
O356 Co354 2.143 . S
O356 Co355 2.160 . S
C357 O358 1.278 . S
C357 O365 1.224 . S
O358 C357 1.278 . S
C359 O360 1.245 . S
C359 O371 1.232 . S
O360 C359 1.245 . S
O361 Co355 2.058 . S
O361 C387 1.269 . S
O362 Co354 2.074 . S
O362 C387 1.257 . S
H363 C388 0.930 . S
H364 C394 0.930 . S
O365 Co354 2.093 . S
O365 C357 1.224 . S
H366 C398 0.929 . S
H367 C400 0.930 . S
H368 C401 0.930 . S
H369 C399 0.929 . S
H370 C402 0.928 . S
O371 Co355 2.057 . S
O371 C359 1.232 . S
H372 C391 0.929 . S
H373 C392 0.929 . S
H374 C404 0.931 . S
H375 C396 0.929 . S
H376 C405 0.930 . S
H377 C397 0.931 . S
O378 Co354 2.097 . S
O378 C406 1.214 . S
H379 C407 0.929 . S
H380 C408 0.929 . S
H381 C409 0.930 . S
H382 C410 0.929 . S
H383 C412 0.930 . S
H384 C389 0.930 . S
H385 C393 0.930 . S
O386 Co355 2.037 . S
O386 C406 1.234 . S
C387 O361 1.269 . S
C387 O362 1.257 . S
C388 H363 0.930 . S
C388 C391 1.388 . S
C388 C393 1.418 . S
C389 H384 0.930 . S
C389 C392 1.404 . S
C389 C393 1.353 . S
N390 Co355 2.145 . S
N390 C391 1.397 . S
N390 C392 1.334 . S
C391 H372 0.929 . S
C391 C388 1.388 . S
C391 N390 1.397 . S
C392 H373 0.929 . S
C392 C389 1.404 . S
C392 N390 1.334 . S
C393 H385 0.930 . S
C393 C388 1.418 . S
C393 C389 1.353 . S
C394 H364 0.930 . S
C394 N395 1.330 . S
C394 C396 1.446 . S
N395 Co354 2.151 . S
N395 C394 1.330 . S
N395 C399 1.418 . S
C396 H375 0.929 . S
C396 C394 1.446 . S
C396 C397 1.332 . S
C397 H377 0.931 . S
C397 C396 1.332 . S
C397 C398 1.267 . S
C398 H366 0.929 . S
C398 C397 1.267 . S
C398 C399 1.251 . S
C399 H369 0.929 . S
C399 N395 1.418 . S
C399 C398 1.251 . S
C400 H367 0.930 . S
C400 C402 1.406 . S
C400 C405 1.261 . S
C401 H368 0.930 . S
C401 N403 1.325 . S
C401 C404 1.357 . S
C402 H370 0.928 . S
C402 C400 1.406 . S
C402 N403 1.261 . S
N403 Co354 2.214 . S
N403 C401 1.325 . S
N403 C402 1.261 . S
C404 H374 0.931 . S
C404 C401 1.357 . S
C404 C405 1.312 . S
C405 H376 0.930 . S
C405 C400 1.261 . S
C405 C404 1.312 . S
C406 O378 1.214 . S
C406 O386 1.234 . S
C407 H379 0.929 . S
C407 C410 1.391 . S
C407 C412 1.391 . S
C408 H380 0.929 . S
C408 C409 1.390 . S
C408 N411 1.391 . S
C409 H381 0.930 . S
C409 C408 1.390 . S
C409 C410 1.392 . S
C410 H382 0.929 . S
C410 C407 1.391 . S
C410 C409 1.392 . S
N411 Co355 2.257 . S
N411 C408 1.391 . S
N411 C412 1.388 . S
C412 H383 0.930 . S
C412 C407 1.391 . S
C412 N411 1.388 . S
Co413 O415 2.143 . S
Co413 O421 2.074 . S
Co413 O424 2.093 . S
Co413 O437 2.097 . S
Co413 N454 2.151 . S
Co413 N462 2.214 . S
Co414 O415 2.160 . S
Co414 O420 2.058 . S
Co414 O430 2.057 . S
Co414 O445 2.037 . S
Co414 N449 2.145 . S
Co414 N470 2.257 . S
O415 Co413 2.143 . S
O415 Co414 2.160 . S
C416 O417 1.278 . S
C416 O424 1.224 . S
O417 C416 1.278 . S
C418 O419 1.245 . S
C418 O430 1.232 . S
O419 C418 1.245 . S
O420 Co414 2.058 . S
O420 C446 1.269 . S
O421 Co413 2.074 . S
O421 C446 1.257 . S
H422 C447 0.930 . S
H423 C453 0.930 . S
O424 Co413 2.093 . S
O424 C416 1.224 . S
H425 C457 0.929 . S
H426 C459 0.930 . S
H427 C460 0.930 . S
H428 C458 0.929 . S
H429 C461 0.928 . S
O430 Co414 2.057 . S
O430 C418 1.232 . S
H431 C450 0.929 . S
H432 C451 0.929 . S
H433 C463 0.931 . S
H434 C455 0.929 . S
H435 C464 0.930 . S
H436 C456 0.931 . S
O437 Co413 2.097 . S
O437 C465 1.214 . S
H438 C466 0.929 . S
H439 C467 0.929 . S
H440 C468 0.930 . S
H441 C469 0.929 . S
H442 C471 0.930 . S
H443 C448 0.930 . S
H444 C452 0.930 . S
O445 Co414 2.037 . S
O445 C465 1.234 . S
C446 O420 1.269 . S
C446 O421 1.257 . S
C447 H422 0.930 . S
C447 C450 1.388 . S
C447 C452 1.418 . S
C448 H443 0.930 . S
C448 C451 1.404 . S
C448 C452 1.353 . S
N449 Co414 2.145 . S
N449 C450 1.397 . S
N449 C451 1.334 . S
C450 H431 0.929 . S
C450 C447 1.388 . S
C450 N449 1.397 . S
C451 H432 0.929 . S
C451 C448 1.404 . S
C451 N449 1.334 . S
C452 H444 0.930 . S
C452 C447 1.418 . S
C452 C448 1.353 . S
C453 H423 0.930 . S
C453 N454 1.330 . S
C453 C455 1.446 . S
N454 Co413 2.151 . S
N454 C453 1.330 . S
N454 C458 1.418 . S
C455 H434 0.929 . S
C455 C453 1.446 . S
C455 C456 1.332 . S
C456 H436 0.931 . S
C456 C455 1.332 . S
C456 C457 1.267 . S
C457 H425 0.929 . S
C457 C456 1.267 . S
C457 C458 1.251 . S
C458 H428 0.929 . S
C458 N454 1.418 . S
C458 C457 1.251 . S
C459 H426 0.930 . S
C459 C461 1.406 . S
C459 C464 1.261 . S
C460 H427 0.930 . S
C460 N462 1.325 . S
C460 C463 1.357 . S
C461 H429 0.928 . S
C461 C459 1.406 . S
C461 N462 1.261 . S
N462 Co413 2.214 . S
N462 C460 1.325 . S
N462 C461 1.261 . S
C463 H433 0.931 . S
C463 C460 1.357 . S
C463 C464 1.312 . S
C464 H435 0.930 . S
C464 C459 1.261 . S
C464 C463 1.312 . S
C465 O437 1.214 . S
C465 O445 1.234 . S
C466 H438 0.929 . S
C466 C469 1.391 . S
C466 C471 1.391 . S
C467 H439 0.929 . S
C467 C468 1.390 . S
C467 N470 1.391 . S
C468 H440 0.930 . S
C468 C467 1.390 . S
C468 C469 1.392 . S
C469 H441 0.929 . S
C469 C466 1.391 . S
C469 C468 1.392 . S
N470 Co414 2.257 . S
N470 C467 1.391 . S
N470 C471 1.388 . S
C471 H442 0.930 . S
C471 C466 1.391 . S
C471 N470 1.388 . S
Co472 O474 2.143 . S
Co472 O480 2.074 . S
Co472 O483 2.093 . S
Co472 O496 2.097 . S
Co472 N513 2.151 . S
Co472 N521 2.214 . S
Co473 O474 2.160 . S
Co473 O479 2.058 . S
Co473 O489 2.057 . S
Co473 O504 2.037 . S
Co473 N508 2.145 . S
Co473 N529 2.257 . S
O474 Co472 2.143 . S
O474 Co473 2.160 . S
C475 O476 1.278 . S
C475 O483 1.224 . S
O476 C475 1.278 . S
C477 O478 1.245 . S
C477 O489 1.232 . S
O478 C477 1.245 . S
O479 Co473 2.058 . S
O479 C505 1.269 . S
O480 Co472 2.074 . S
O480 C505 1.257 . S
H481 C506 0.930 . S
H482 C512 0.930 . S
O483 Co472 2.093 . S
O483 C475 1.224 . S
H484 C516 0.929 . S
H485 C518 0.930 . S
H486 C519 0.930 . S
H487 C517 0.929 . S
H488 C520 0.928 . S
O489 Co473 2.057 . S
O489 C477 1.232 . S
H490 C509 0.929 . S
H491 C510 0.929 . S
H492 C522 0.931 . S
H493 C514 0.929 . S
H494 C523 0.930 . S
H495 C515 0.931 . S
O496 Co472 2.097 . S
O496 C524 1.214 . S
H497 C525 0.929 . S
H498 C526 0.929 . S
H499 C527 0.930 . S
H500 C528 0.929 . S
H501 C530 0.930 . S
H502 C507 0.930 . S
H503 C511 0.930 . S
O504 Co473 2.037 . S
O504 C524 1.234 . S
C505 O479 1.269 . S
C505 O480 1.257 . S
C506 H481 0.930 . S
C506 C509 1.388 . S
C506 C511 1.418 . S
C507 H502 0.930 . S
C507 C510 1.404 . S
C507 C511 1.353 . S
N508 Co473 2.145 . S
N508 C509 1.397 . S
N508 C510 1.334 . S
C509 H490 0.929 . S
C509 C506 1.388 . S
C509 N508 1.397 . S
C510 H491 0.929 . S
C510 C507 1.404 . S
C510 N508 1.334 . S
C511 H503 0.930 . S
C511 C506 1.418 . S
C511 C507 1.353 . S
C512 H482 0.930 . S
C512 N513 1.330 . S
C512 C514 1.446 . S
N513 Co472 2.151 . S
N513 C512 1.330 . S
N513 C517 1.418 . S
C514 H493 0.929 . S
C514 C512 1.446 . S
C514 C515 1.332 . S
C515 H495 0.931 . S
C515 C514 1.332 . S
C515 C516 1.267 . S
C516 H484 0.929 . S
C516 C515 1.267 . S
C516 C517 1.251 . S
C517 H487 0.929 . S
C517 N513 1.418 . S
C517 C516 1.251 . S
C518 H485 0.930 . S
C518 C520 1.406 . S
C518 C523 1.261 . S
C519 H486 0.930 . S
C519 N521 1.325 . S
C519 C522 1.357 . S
C520 H488 0.928 . S
C520 C518 1.406 . S
C520 N521 1.261 . S
N521 Co472 2.214 . S
N521 C519 1.325 . S
N521 C520 1.261 . S
C522 H492 0.931 . S
C522 C519 1.357 . S
C522 C523 1.312 . S
C523 H494 0.930 . S
C523 C518 1.261 . S
C523 C522 1.312 . S
C524 O496 1.214 . S
C524 O504 1.234 . S
C525 H497 0.929 . S
C525 C528 1.391 . S
C525 C530 1.391 . S
C526 H498 0.929 . S
C526 C527 1.390 . S
C526 N529 1.391 . S
C527 H499 0.930 . S
C527 C526 1.390 . S
C527 C528 1.392 . S
C528 H500 0.929 . S
C528 C525 1.391 . S
C528 C527 1.392 . S
N529 Co473 2.257 . S
N529 C526 1.391 . S
N529 C530 1.388 . S
C530 H501 0.930 . S
C530 C525 1.391 . S
C530 N529 1.388 . S
Co531 O533 2.143 . S
Co531 O539 2.074 . S
Co531 O542 2.093 . S
Co531 O555 2.097 . S
Co531 N572 2.151 . S
Co531 N580 2.214 . S
Co532 O533 2.160 . S
Co532 O538 2.058 . S
Co532 O548 2.057 . S
Co532 O563 2.037 . S
Co532 N567 2.145 . S
Co532 N588 2.257 . S
O533 Co531 2.143 . S
O533 Co532 2.160 . S
C534 O535 1.278 . S
C534 O542 1.224 . S
O535 C534 1.278 . S
C536 O537 1.245 . S
C536 O548 1.232 . S
O537 C536 1.245 . S
O538 Co532 2.058 . S
O538 C564 1.269 . S
O539 Co531 2.074 . S
O539 C564 1.257 . S
H540 C565 0.930 . S
H541 C571 0.930 . S
O542 Co531 2.093 . S
O542 C534 1.224 . S
H543 C575 0.929 . S
H544 C577 0.930 . S
H545 C578 0.930 . S
H546 C576 0.929 . S
H547 C579 0.928 . S
O548 Co532 2.057 . S
O548 C536 1.232 . S
H549 C568 0.929 . S
H550 C569 0.929 . S
H551 C581 0.931 . S
H552 C573 0.929 . S
H553 C582 0.930 . S
H554 C574 0.931 . S
O555 Co531 2.097 . S
O555 C583 1.214 . S
H556 C584 0.929 . S
H557 C585 0.929 . S
H558 C586 0.930 . S
H559 C587 0.929 . S
H560 C589 0.930 . S
H561 C566 0.930 . S
H562 C570 0.930 . S
O563 Co532 2.037 . S
O563 C583 1.234 . S
C564 O538 1.269 . S
C564 O539 1.257 . S
C565 H540 0.930 . S
C565 C568 1.388 . S
C565 C570 1.418 . S
C566 H561 0.930 . S
C566 C569 1.404 . S
C566 C570 1.353 . S
N567 Co532 2.145 . S
N567 C568 1.397 . S
N567 C569 1.334 . S
C568 H549 0.929 . S
C568 C565 1.388 . S
C568 N567 1.397 . S
C569 H550 0.929 . S
C569 C566 1.404 . S
C569 N567 1.334 . S
C570 H562 0.930 . S
C570 C565 1.418 . S
C570 C566 1.353 . S
C571 H541 0.930 . S
C571 N572 1.330 . S
C571 C573 1.446 . S
N572 Co531 2.151 . S
N572 C571 1.330 . S
N572 C576 1.418 . S
C573 H552 0.929 . S
C573 C571 1.446 . S
C573 C574 1.332 . S
C574 H554 0.931 . S
C574 C573 1.332 . S
C574 C575 1.267 . S
C575 H543 0.929 . S
C575 C574 1.267 . S
C575 C576 1.251 . S
C576 H546 0.929 . S
C576 N572 1.418 . S
C576 C575 1.251 . S
C577 H544 0.930 . S
C577 C579 1.406 . S
C577 C582 1.261 . S
C578 H545 0.930 . S
C578 N580 1.325 . S
C578 C581 1.357 . S
C579 H547 0.928 . S
C579 C577 1.406 . S
C579 N580 1.261 . S
N580 Co531 2.214 . S
N580 C578 1.325 . S
N580 C579 1.261 . S
C581 H551 0.931 . S
C581 C578 1.357 . S
C581 C582 1.312 . S
C582 H553 0.930 . S
C582 C577 1.261 . S
C582 C581 1.312 . S
C583 O555 1.214 . S
C583 O563 1.234 . S
C584 H556 0.929 . S
C584 C587 1.391 . S
C584 C589 1.391 . S
C585 H557 0.929 . S
C585 C586 1.390 . S
C585 N588 1.391 . S
C586 H558 0.930 . S
C586 C585 1.390 . S
C586 C587 1.392 . S
C587 H559 0.929 . S
C587 C584 1.391 . S
C587 C586 1.392 . S
N588 Co532 2.257 . S
N588 C585 1.391 . S
N588 C589 1.388 . S
C589 H560 0.930 . S
C589 C584 1.391 . S
C589 N588 1.388 . S
Co590 O592 2.143 . S
Co590 O598 2.074 . S
Co590 O601 2.093 . S
Co590 O614 2.097 . S
Co590 N631 2.151 . S
Co590 N639 2.214 . S
Co591 O592 2.160 . S
Co591 O597 2.058 . S
Co591 O607 2.057 . S
Co591 O622 2.037 . S
Co591 N626 2.145 . S
Co591 N647 2.257 . S
O592 Co590 2.143 . S
O592 Co591 2.160 . S
C593 O594 1.278 . S
C593 O601 1.224 . S
O594 C593 1.278 . S
C595 O596 1.245 . S
C595 O607 1.232 . S
O596 C595 1.245 . S
O597 Co591 2.058 . S
O597 C623 1.269 . S
O598 Co590 2.074 . S
O598 C623 1.257 . S
H599 C624 0.930 . S
H600 C630 0.930 . S
O601 Co590 2.093 . S
O601 C593 1.224 . S
H602 C634 0.929 . S
H603 C636 0.930 . S
H604 C637 0.930 . S
H605 C635 0.929 . S
H606 C638 0.928 . S
O607 Co591 2.057 . S
O607 C595 1.232 . S
H608 C627 0.929 . S
H609 C628 0.929 . S
H610 C640 0.931 . S
H611 C632 0.929 . S
H612 C641 0.930 . S
H613 C633 0.931 . S
O614 Co590 2.097 . S
O614 C642 1.214 . S
H615 C643 0.929 . S
H616 C644 0.929 . S
H617 C645 0.930 . S
H618 C646 0.929 . S
H619 C648 0.930 . S
H620 C625 0.930 . S
H621 C629 0.930 . S
O622 Co591 2.037 . S
O622 C642 1.234 . S
C623 O597 1.269 . S
C623 O598 1.257 . S
C624 H599 0.930 . S
C624 C627 1.388 . S
C624 C629 1.418 . S
C625 H620 0.930 . S
C625 C628 1.404 . S
C625 C629 1.353 . S
N626 Co591 2.145 . S
N626 C627 1.397 . S
N626 C628 1.334 . S
C627 H608 0.929 . S
C627 C624 1.388 . S
C627 N626 1.397 . S
C628 H609 0.929 . S
C628 C625 1.404 . S
C628 N626 1.334 . S
C629 H621 0.930 . S
C629 C624 1.418 . S
C629 C625 1.353 . S
C630 H600 0.930 . S
C630 N631 1.330 . S
C630 C632 1.446 . S
N631 Co590 2.151 . S
N631 C630 1.330 . S
N631 C635 1.418 . S
C632 H611 0.929 . S
C632 C630 1.446 . S
C632 C633 1.332 . S
C633 H613 0.931 . S
C633 C632 1.332 . S
C633 C634 1.267 . S
C634 H602 0.929 . S
C634 C633 1.267 . S
C634 C635 1.251 . S
C635 H605 0.929 . S
C635 N631 1.418 . S
C635 C634 1.251 . S
C636 H603 0.930 . S
C636 C638 1.406 . S
C636 C641 1.261 . S
C637 H604 0.930 . S
C637 N639 1.325 . S
C637 C640 1.357 . S
C638 H606 0.928 . S
C638 C636 1.406 . S
C638 N639 1.261 . S
N639 Co590 2.214 . S
N639 C637 1.325 . S
N639 C638 1.261 . S
C640 H610 0.931 . S
C640 C637 1.357 . S
C640 C641 1.312 . S
C641 H612 0.930 . S
C641 C636 1.261 . S
C641 C640 1.312 . S
C642 O614 1.214 . S
C642 O622 1.234 . S
C643 H615 0.929 . S
C643 C646 1.391 . S
C643 C648 1.391 . S
C644 H616 0.929 . S
C644 C645 1.390 . S
C644 N647 1.391 . S
C645 H617 0.930 . S
C645 C644 1.390 . S
C645 C646 1.392 . S
C646 H618 0.929 . S
C646 C643 1.391 . S
C646 C645 1.392 . S
N647 Co591 2.257 . S
N647 C644 1.391 . S
N647 C648 1.388 . S
C648 H619 0.930 . S
C648 C643 1.391 . S
C648 N647 1.388 . S
Co649 O651 2.143 . S
Co649 O657 2.074 . S
Co649 O660 2.093 . S
Co649 O673 2.097 . S
Co649 N690 2.151 . S
Co649 N698 2.214 . S
Co650 O651 2.160 . S
Co650 O656 2.058 . S
Co650 O666 2.057 . S
Co650 O681 2.037 . S
Co650 N685 2.145 . S
Co650 N706 2.257 . S
O651 Co649 2.143 . S
O651 Co650 2.160 . S
C652 O653 1.278 . S
C652 O660 1.224 . S
O653 C652 1.278 . S
C654 O655 1.245 . S
C654 O666 1.232 . S
O655 C654 1.245 . S
O656 Co650 2.058 . S
O656 C682 1.269 . S
O657 Co649 2.074 . S
O657 C682 1.257 . S
H658 C683 0.930 . S
H659 C689 0.930 . S
O660 Co649 2.093 . S
O660 C652 1.224 . S
H661 C693 0.929 . S
H662 C695 0.930 . S
H663 C696 0.930 . S
H664 C694 0.929 . S
H665 C697 0.928 . S
O666 Co650 2.057 . S
O666 C654 1.232 . S
H667 C686 0.929 . S
H668 C687 0.929 . S
H669 C699 0.931 . S
H670 C691 0.929 . S
H671 C700 0.930 . S
H672 C692 0.931 . S
O673 Co649 2.097 . S
O673 C701 1.214 . S
H674 C702 0.929 . S
H675 C703 0.929 . S
H676 C704 0.930 . S
H677 C705 0.929 . S
H678 C707 0.930 . S
H679 C684 0.930 . S
H680 C688 0.930 . S
O681 Co650 2.037 . S
O681 C701 1.234 . S
C682 O656 1.269 . S
C682 O657 1.257 . S
C683 H658 0.930 . S
C683 C686 1.388 . S
C683 C688 1.418 . S
C684 H679 0.930 . S
C684 C687 1.404 . S
C684 C688 1.353 . S
N685 Co650 2.145 . S
N685 C686 1.397 . S
N685 C687 1.334 . S
C686 H667 0.929 . S
C686 C683 1.388 . S
C686 N685 1.397 . S
C687 H668 0.929 . S
C687 C684 1.404 . S
C687 N685 1.334 . S
C688 H680 0.930 . S
C688 C683 1.418 . S
C688 C684 1.353 . S
C689 H659 0.930 . S
C689 N690 1.330 . S
C689 C691 1.446 . S
N690 Co649 2.151 . S
N690 C689 1.330 . S
N690 C694 1.418 . S
C691 H670 0.929 . S
C691 C689 1.446 . S
C691 C692 1.332 . S
C692 H672 0.931 . S
C692 C691 1.332 . S
C692 C693 1.267 . S
C693 H661 0.929 . S
C693 C692 1.267 . S
C693 C694 1.251 . S
C694 H664 0.929 . S
C694 N690 1.418 . S
C694 C693 1.251 . S
C695 H662 0.930 . S
C695 C697 1.406 . S
C695 C700 1.261 . S
C696 H663 0.930 . S
C696 N698 1.325 . S
C696 C699 1.357 . S
C697 H665 0.928 . S
C697 C695 1.406 . S
C697 N698 1.261 . S
N698 Co649 2.214 . S
N698 C696 1.325 . S
N698 C697 1.261 . S
C699 H669 0.931 . S
C699 C696 1.357 . S
C699 C700 1.312 . S
C700 H671 0.930 . S
C700 C695 1.261 . S
C700 C699 1.312 . S
C701 O673 1.214 . S
C701 O681 1.234 . S
C702 H674 0.929 . S
C702 C705 1.391 . S
C702 C707 1.391 . S
C703 H675 0.929 . S
C703 C704 1.390 . S
C703 N706 1.391 . S
C704 H676 0.930 . S
C704 C703 1.390 . S
C704 C705 1.392 . S
C705 H677 0.929 . S
C705 C702 1.391 . S
C705 C704 1.392 . S
N706 Co650 2.257 . S
N706 C703 1.391 . S
N706 C707 1.388 . S
C707 H678 0.930 . S
C707 C702 1.391 . S
C707 N706 1.388 . S
Co708 O710 2.143 . S
Co708 O716 2.074 . S
Co708 O719 2.093 . S
Co708 O732 2.097 . S
Co708 N749 2.151 . S
Co708 N757 2.214 . S
Co709 O710 2.160 . S
Co709 O715 2.058 . S
Co709 O725 2.057 . S
Co709 O740 2.037 . S
Co709 N744 2.145 . S
Co709 N765 2.257 . S
O710 Co708 2.143 . S
O710 Co709 2.160 . S
C711 O712 1.278 . S
C711 O719 1.224 . S
O712 C711 1.278 . S
C713 O714 1.245 . S
C713 O725 1.232 . S
O714 C713 1.245 . S
O715 Co709 2.058 . S
O715 C741 1.269 . S
O716 Co708 2.074 . S
O716 C741 1.257 . S
H717 C742 0.930 . S
H718 C748 0.930 . S
O719 Co708 2.093 . S
O719 C711 1.224 . S
H720 C752 0.929 . S
H721 C754 0.930 . S
H722 C755 0.930 . S
H723 C753 0.929 . S
H724 C756 0.928 . S
O725 Co709 2.057 . S
O725 C713 1.232 . S
H726 C745 0.929 . S
H727 C746 0.929 . S
H728 C758 0.931 . S
H729 C750 0.929 . S
H730 C759 0.930 . S
H731 C751 0.931 . S
O732 Co708 2.097 . S
O732 C760 1.214 . S
H733 C761 0.929 . S
H734 C762 0.929 . S
H735 C763 0.930 . S
H736 C764 0.929 . S
H737 C766 0.930 . S
H738 C743 0.930 . S
H739 C747 0.930 . S
O740 Co709 2.037 . S
O740 C760 1.234 . S
C741 O715 1.269 . S
C741 O716 1.257 . S
C742 H717 0.930 . S
C742 C745 1.388 . S
C742 C747 1.418 . S
C743 H738 0.930 . S
C743 C746 1.404 . S
C743 C747 1.353 . S
N744 Co709 2.145 . S
N744 C745 1.397 . S
N744 C746 1.334 . S
C745 H726 0.929 . S
C745 C742 1.388 . S
C745 N744 1.397 . S
C746 H727 0.929 . S
C746 C743 1.404 . S
C746 N744 1.334 . S
C747 H739 0.930 . S
C747 C742 1.418 . S
C747 C743 1.353 . S
C748 H718 0.930 . S
C748 N749 1.330 . S
C748 C750 1.446 . S
N749 Co708 2.151 . S
N749 C748 1.330 . S
N749 C753 1.418 . S
C750 H729 0.929 . S
C750 C748 1.446 . S
C750 C751 1.332 . S
C751 H731 0.931 . S
C751 C750 1.332 . S
C751 C752 1.267 . S
C752 H720 0.929 . S
C752 C751 1.267 . S
C752 C753 1.251 . S
C753 H723 0.929 . S
C753 N749 1.418 . S
C753 C752 1.251 . S
C754 H721 0.930 . S
C754 C756 1.406 . S
C754 C759 1.261 . S
C755 H722 0.930 . S
C755 N757 1.325 . S
C755 C758 1.357 . S
C756 H724 0.928 . S
C756 C754 1.406 . S
C756 N757 1.261 . S
N757 Co708 2.214 . S
N757 C755 1.325 . S
N757 C756 1.261 . S
C758 H728 0.931 . S
C758 C755 1.357 . S
C758 C759 1.312 . S
C759 H730 0.930 . S
C759 C754 1.261 . S
C759 C758 1.312 . S
C760 O732 1.214 . S
C760 O740 1.234 . S
C761 H733 0.929 . S
C761 C764 1.391 . S
C761 C766 1.391 . S
C762 H734 0.929 . S
C762 C763 1.390 . S
C762 N765 1.391 . S
C763 H735 0.930 . S
C763 C762 1.390 . S
C763 C764 1.392 . S
C764 H736 0.929 . S
C764 C761 1.391 . S
C764 C763 1.392 . S
N765 Co709 2.257 . S
N765 C762 1.391 . S
N765 C766 1.388 . S
C766 H737 0.930 . S
C766 C761 1.391 . S
C766 N765 1.388 . S
Co767 O769 2.143 . S
Co767 O775 2.074 . S
Co767 O778 2.093 . S
Co767 O791 2.097 . S
Co767 N808 2.151 . S
Co767 N816 2.214 . S
Co768 O769 2.160 . S
Co768 O774 2.058 . S
Co768 O784 2.057 . S
Co768 O799 2.037 . S
Co768 N803 2.145 . S
Co768 N824 2.257 . S
O769 Co767 2.143 . S
O769 Co768 2.160 . S
C770 O771 1.278 . S
C770 O778 1.224 . S
O771 C770 1.278 . S
C772 O773 1.245 . S
C772 O784 1.232 . S
O773 C772 1.245 . S
O774 Co768 2.058 . S
O774 C800 1.269 . S
O775 Co767 2.074 . S
O775 C800 1.257 . S
H776 C801 0.930 . S
H777 C807 0.930 . S
O778 Co767 2.093 . S
O778 C770 1.224 . S
H779 C811 0.929 . S
H780 C813 0.930 . S
H781 C814 0.930 . S
H782 C812 0.929 . S
H783 C815 0.928 . S
O784 Co768 2.057 . S
O784 C772 1.232 . S
H785 C804 0.929 . S
H786 C805 0.929 . S
H787 C817 0.931 . S
H788 C809 0.929 . S
H789 C818 0.930 . S
H790 C810 0.931 . S
O791 Co767 2.097 . S
O791 C819 1.214 . S
H792 C820 0.929 . S
H793 C821 0.929 . S
H794 C822 0.930 . S
H795 C823 0.929 . S
H796 C825 0.930 . S
H797 C802 0.930 . S
H798 C806 0.930 . S
O799 Co768 2.037 . S
O799 C819 1.234 . S
C800 O774 1.269 . S
C800 O775 1.257 . S
C801 H776 0.930 . S
C801 C804 1.388 . S
C801 C806 1.418 . S
C802 H797 0.930 . S
C802 C805 1.404 . S
C802 C806 1.353 . S
N803 Co768 2.145 . S
N803 C804 1.397 . S
N803 C805 1.334 . S
C804 H785 0.929 . S
C804 C801 1.388 . S
C804 N803 1.397 . S
C805 H786 0.929 . S
C805 C802 1.404 . S
C805 N803 1.334 . S
C806 H798 0.930 . S
C806 C801 1.418 . S
C806 C802 1.353 . S
C807 H777 0.930 . S
C807 N808 1.330 . S
C807 C809 1.446 . S
N808 Co767 2.151 . S
N808 C807 1.330 . S
N808 C812 1.418 . S
C809 H788 0.929 . S
C809 C807 1.446 . S
C809 C810 1.332 . S
C810 H790 0.931 . S
C810 C809 1.332 . S
C810 C811 1.267 . S
C811 H779 0.929 . S
C811 C810 1.267 . S
C811 C812 1.251 . S
C812 H782 0.929 . S
C812 N808 1.418 . S
C812 C811 1.251 . S
C813 H780 0.930 . S
C813 C815 1.406 . S
C813 C818 1.261 . S
C814 H781 0.930 . S
C814 N816 1.325 . S
C814 C817 1.357 . S
C815 H783 0.928 . S
C815 C813 1.406 . S
C815 N816 1.261 . S
N816 Co767 2.214 . S
N816 C814 1.325 . S
N816 C815 1.261 . S
C817 H787 0.931 . S
C817 C814 1.357 . S
C817 C818 1.312 . S
C818 H789 0.930 . S
C818 C813 1.261 . S
C818 C817 1.312 . S
C819 O791 1.214 . S
C819 O799 1.234 . S
C820 H792 0.929 . S
C820 C823 1.391 . S
C820 C825 1.391 . S
C821 H793 0.929 . S
C821 C822 1.390 . S
C821 N824 1.391 . S
C822 H794 0.930 . S
C822 C821 1.390 . S
C822 C823 1.392 . S
C823 H795 0.929 . S
C823 C820 1.391 . S
C823 C822 1.392 . S
N824 Co768 2.257 . S
N824 C821 1.391 . S
N824 C825 1.388 . S
C825 H796 0.930 . S
C825 C820 1.391 . S
C825 N824 1.388 . S
Co826 O828 2.143 . S
Co826 O834 2.074 . S
Co826 O837 2.093 . S
Co826 O850 2.097 . S
Co826 N867 2.151 . S
Co826 N875 2.214 . S
Co827 O828 2.160 . S
Co827 O833 2.058 . S
Co827 O843 2.057 . S
Co827 O858 2.037 . S
Co827 N862 2.145 . S
Co827 N883 2.257 . S
O828 Co826 2.143 . S
O828 Co827 2.160 . S
C829 O830 1.278 . S
C829 O837 1.224 . S
O830 C829 1.278 . S
C831 O832 1.245 . S
C831 O843 1.232 . S
O832 C831 1.245 . S
O833 Co827 2.058 . S
O833 C859 1.269 . S
O834 Co826 2.074 . S
O834 C859 1.257 . S
H835 C860 0.930 . S
H836 C866 0.930 . S
O837 Co826 2.093 . S
O837 C829 1.224 . S
H838 C870 0.929 . S
H839 C872 0.930 . S
H840 C873 0.930 . S
H841 C871 0.929 . S
H842 C874 0.928 . S
O843 Co827 2.057 . S
O843 C831 1.232 . S
H844 C863 0.929 . S
H845 C864 0.929 . S
H846 C876 0.931 . S
H847 C868 0.929 . S
H848 C877 0.930 . S
H849 C869 0.931 . S
O850 Co826 2.097 . S
O850 C878 1.214 . S
H851 C879 0.929 . S
H852 C880 0.929 . S
H853 C881 0.930 . S
H854 C882 0.929 . S
H855 C884 0.930 . S
H856 C861 0.930 . S
H857 C865 0.930 . S
O858 Co827 2.037 . S
O858 C878 1.234 . S
C859 O833 1.269 . S
C859 O834 1.257 . S
C860 H835 0.930 . S
C860 C863 1.388 . S
C860 C865 1.418 . S
C861 H856 0.930 . S
C861 C864 1.404 . S
C861 C865 1.353 . S
N862 Co827 2.145 . S
N862 C863 1.397 . S
N862 C864 1.334 . S
C863 H844 0.929 . S
C863 C860 1.388 . S
C863 N862 1.397 . S
C864 H845 0.929 . S
C864 C861 1.404 . S
C864 N862 1.334 . S
C865 H857 0.930 . S
C865 C860 1.418 . S
C865 C861 1.353 . S
C866 H836 0.930 . S
C866 N867 1.330 . S
C866 C868 1.446 . S
N867 Co826 2.151 . S
N867 C866 1.330 . S
N867 C871 1.418 . S
C868 H847 0.929 . S
C868 C866 1.446 . S
C868 C869 1.332 . S
C869 H849 0.931 . S
C869 C868 1.332 . S
C869 C870 1.267 . S
C870 H838 0.929 . S
C870 C869 1.267 . S
C870 C871 1.251 . S
C871 H841 0.929 . S
C871 N867 1.418 . S
C871 C870 1.251 . S
C872 H839 0.930 . S
C872 C874 1.406 . S
C872 C877 1.261 . S
C873 H840 0.930 . S
C873 N875 1.325 . S
C873 C876 1.357 . S
C874 H842 0.928 . S
C874 C872 1.406 . S
C874 N875 1.261 . S
N875 Co826 2.214 . S
N875 C873 1.325 . S
N875 C874 1.261 . S
C876 H846 0.931 . S
C876 C873 1.357 . S
C876 C877 1.312 . S
C877 H848 0.930 . S
C877 C872 1.261 . S
C877 C876 1.312 . S
C878 O850 1.214 . S
C878 O858 1.234 . S
C879 H851 0.929 . S
C879 C882 1.391 . S
C879 C884 1.391 . S
C880 H852 0.929 . S
C880 C881 1.390 . S
C880 N883 1.391 . S
C881 H853 0.930 . S
C881 C880 1.390 . S
C881 C882 1.392 . S
C882 H854 0.929 . S
C882 C879 1.391 . S
C882 C881 1.392 . S
N883 Co827 2.257 . S
N883 C880 1.391 . S
N883 C884 1.388 . S
C884 H855 0.930 . S
C884 C879 1.391 . S
C884 N883 1.388 . S
Co885 O887 2.143 . S
Co885 O893 2.074 . S
Co885 O896 2.093 . S
Co885 O909 2.097 . S
Co885 N926 2.151 . S
Co885 N934 2.214 . S
Co886 O887 2.160 . S
Co886 O892 2.058 . S
Co886 O902 2.057 . S
Co886 O917 2.037 . S
Co886 N921 2.145 . S
Co886 N942 2.257 . S
O887 Co885 2.143 . S
O887 Co886 2.160 . S
C888 O889 1.278 . S
C888 O896 1.224 . S
O889 C888 1.278 . S
C890 O891 1.245 . S
C890 O902 1.232 . S
O891 C890 1.245 . S
O892 Co886 2.058 . S
O892 C918 1.269 . S
O893 Co885 2.074 . S
O893 C918 1.257 . S
H894 C919 0.930 . S
H895 C925 0.930 . S
O896 Co885 2.093 . S
O896 C888 1.224 . S
H897 C929 0.929 . S
H898 C931 0.930 . S
H899 C932 0.930 . S
H900 C930 0.929 . S
H901 C933 0.928 . S
O902 Co886 2.057 . S
O902 C890 1.232 . S
H903 C922 0.929 . S
H904 C923 0.929 . S
H905 C935 0.931 . S
H906 C927 0.929 . S
H907 C936 0.930 . S
H908 C928 0.931 . S
O909 Co885 2.097 . S
O909 C937 1.214 . S
H910 C938 0.929 . S
H911 C939 0.929 . S
H912 C940 0.930 . S
H913 C941 0.929 . S
H914 C943 0.930 . S
H915 C920 0.930 . S
H916 C924 0.930 . S
O917 Co886 2.037 . S
O917 C937 1.234 . S
C918 O892 1.269 . S
C918 O893 1.257 . S
C919 H894 0.930 . S
C919 C922 1.388 . S
C919 C924 1.418 . S
C920 H915 0.930 . S
C920 C923 1.404 . S
C920 C924 1.353 . S
N921 Co886 2.145 . S
N921 C922 1.397 . S
N921 C923 1.334 . S
C922 H903 0.929 . S
C922 C919 1.388 . S
C922 N921 1.397 . S
C923 H904 0.929 . S
C923 C920 1.404 . S
C923 N921 1.334 . S
C924 H916 0.930 . S
C924 C919 1.418 . S
C924 C920 1.353 . S
C925 H895 0.930 . S
C925 N926 1.330 . S
C925 C927 1.446 . S
N926 Co885 2.151 . S
N926 C925 1.330 . S
N926 C930 1.418 . S
C927 H906 0.929 . S
C927 C925 1.446 . S
C927 C928 1.332 . S
C928 H908 0.931 . S
C928 C927 1.332 . S
C928 C929 1.267 . S
C929 H897 0.929 . S
C929 C928 1.267 . S
C929 C930 1.251 . S
C930 H900 0.929 . S
C930 N926 1.418 . S
C930 C929 1.251 . S
C931 H898 0.930 . S
C931 C933 1.406 . S
C931 C936 1.261 . S
C932 H899 0.930 . S
C932 N934 1.325 . S
C932 C935 1.357 . S
C933 H901 0.928 . S
C933 C931 1.406 . S
C933 N934 1.261 . S
N934 Co885 2.214 . S
N934 C932 1.325 . S
N934 C933 1.261 . S
C935 H905 0.931 . S
C935 C932 1.357 . S
C935 C936 1.312 . S
C936 H907 0.930 . S
C936 C931 1.261 . S
C936 C935 1.312 . S
C937 O909 1.214 . S
C937 O917 1.234 . S
C938 H910 0.929 . S
C938 C941 1.391 . S
C938 C943 1.391 . S
C939 H911 0.929 . S
C939 C940 1.390 . S
C939 N942 1.391 . S
C940 H912 0.930 . S
C940 C939 1.390 . S
C940 C941 1.392 . S
C941 H913 0.929 . S
C941 C938 1.391 . S
C941 C940 1.392 . S
N942 Co886 2.257 . S
N942 C939 1.391 . S
N942 C943 1.388 . S
C943 H914 0.930 . S
C943 C938 1.391 . S
C943 N942 1.388 . S
H944 C962 0.951 . S
H945 C964 0.951 . S
H946 C966 0.950 . S
H947 C967 0.950 . S
H948 C969 0.950 . S
H949 C972 0.950 . S
H950 C973 0.950 . S
H951 C975 0.950 . S
H952 C976 0.950 . S
H953 C977 0.951 . S
H954 C979 0.951 . S
H955 C981 0.950 . S
H956 C982 0.950 . S
H957 C984 0.950 . S
H958 C987 0.950 . S
H959 C988 0.950 . S
H960 C990 0.950 . S
H961 C991 0.950 . S
C962 H944 0.951 . S
C962 C963 1.366 . S
C962 C964 1.388 . S
C963 C962 1.366 . S
C963 C967 1.385 . S
C964 H945 0.951 . S
C964 C962 1.388 . S
C964 C965 1.366 . S
C965 C964 1.366 . S
C965 C966 1.414 . S
C965 C968 1.499 . S
C966 H946 0.950 . S
C966 C965 1.414 . S
C966 C967 1.374 . S
C967 H947 0.950 . S
C967 C963 1.385 . S
C967 C966 1.374 . S
C968 C965 1.499 . S
C968 C969 1.373 . S
C968 C970 1.389 . S
C969 H948 0.950 . S
C969 C968 1.373 . S
C969 C985 1.377 . S
C970 C968 1.389 . S
C970 C971 1.524 . S
C970 C984 1.377 . S
C971 C970 1.524 . S
C971 C972 1.397 . S
C971 C976 1.363 . S
C972 H949 0.950 . S
C972 C971 1.397 . S
C972 C973 1.334 . S
C973 H950 0.950 . S
C973 C972 1.334 . S
C973 C974 1.287 . S
C974 C973 1.287 . S
C974 C975 1.524 . S
C974 H993 0.913 . S
C975 H951 0.950 . S
C975 C974 1.524 . S
C975 C976 1.415 . S
C976 H952 0.950 . S
C976 C971 1.363 . S
C976 C975 1.415 . S
C977 H953 0.951 . S
C977 C978 1.366 . S
C977 C979 1.388 . S
C978 C977 1.366 . S
C978 C982 1.385 . S
C979 H954 0.951 . S
C979 C977 1.388 . S
C979 C980 1.366 . S
C980 C979 1.366 . S
C980 C981 1.414 . S
C980 C983 1.499 . S
C981 H955 0.950 . S
C981 C980 1.414 . S
C981 C982 1.374 . S
C982 H956 0.950 . S
C982 C978 1.385 . S
C982 C981 1.374 . S
C983 C980 1.499 . S
C983 C984 1.373 . S
C983 C985 1.389 . S
C984 H957 0.950 . S
C984 C970 1.377 . S
C984 C983 1.373 . S
C985 C969 1.377 . S
C985 C983 1.389 . S
C985 C986 1.524 . S
C986 C985 1.524 . S
C986 C987 1.397 . S
C986 C991 1.363 . S
C987 H958 0.950 . S
C987 C986 1.397 . S
C987 C988 1.334 . S
C988 H959 0.950 . S
C988 C987 1.334 . S
C988 C989 1.287 . S
C989 C988 1.287 . S
C989 C990 1.524 . S
C989 H992 0.999 . S
C990 H960 0.950 . S
C990 C989 1.524 . S
C990 C991 1.415 . S
C991 H961 0.950 . S
C991 C986 1.363 . S
C991 C990 1.415 . S
H992 C989 0.999 . S
H993 C974 0.913 . S
H994 C1012 0.951 . S
H995 C1014 0.951 . S
H996 C1016 0.950 . S
H997 C1017 0.950 . S
H998 C1019 0.950 . S
H999 C1022 0.950 . S
H1000 C1023 0.950 . S
H1001 C1025 0.950 . S
H1002 C1026 0.950 . S
H1003 C1027 0.951 . S
H1004 C1029 0.951 . S
H1005 C1031 0.950 . S
H1006 C1032 0.950 . S
H1007 C1034 0.950 . S
H1008 C1037 0.950 . S
H1009 C1038 0.950 . S
H1010 C1040 0.950 . S
H1011 C1041 0.950 . S
C1012 H994 0.951 . S
C1012 C1013 1.366 . S
C1012 C1014 1.388 . S
C1013 C1012 1.366 . S
C1013 C1017 1.385 . S
C1014 H995 0.951 . S
C1014 C1012 1.388 . S
C1014 C1015 1.366 . S
C1015 C1014 1.366 . S
C1015 C1016 1.414 . S
C1015 C1018 1.499 . S
C1016 H996 0.950 . S
C1016 C1015 1.414 . S
C1016 C1017 1.374 . S
C1017 H997 0.950 . S
C1017 C1013 1.385 . S
C1017 C1016 1.374 . S
C1018 C1015 1.499 . S
C1018 C1019 1.373 . S
C1018 C1020 1.389 . S
C1019 H998 0.950 . S
C1019 C1018 1.373 . S
C1019 C1035 1.377 . S
C1020 C1018 1.389 . S
C1020 C1021 1.524 . S
C1020 C1034 1.377 . S
C1021 C1020 1.524 . S
C1021 C1022 1.397 . S
C1021 C1026 1.363 . S
C1022 H999 0.950 . S
C1022 C1021 1.397 . S
C1022 C1023 1.334 . S
C1023 H1000 0.950 . S
C1023 C1022 1.334 . S
C1023 C1024 1.287 . S
C1024 C1023 1.287 . S
C1024 C1025 1.524 . S
C1024 H1043 0.913 . S
C1025 H1001 0.950 . S
C1025 C1024 1.524 . S
C1025 C1026 1.415 . S
C1026 H1002 0.950 . S
C1026 C1021 1.363 . S
C1026 C1025 1.415 . S
C1027 H1003 0.951 . S
C1027 C1028 1.366 . S
C1027 C1029 1.388 . S
C1028 C1027 1.366 . S
C1028 C1032 1.385 . S
C1029 H1004 0.951 . S
C1029 C1027 1.388 . S
C1029 C1030 1.366 . S
C1030 C1029 1.366 . S
C1030 C1031 1.414 . S
C1030 C1033 1.499 . S
C1031 H1005 0.950 . S
C1031 C1030 1.414 . S
C1031 C1032 1.374 . S
C1032 H1006 0.950 . S
C1032 C1028 1.385 . S
C1032 C1031 1.374 . S
C1033 C1030 1.499 . S
C1033 C1034 1.373 . S
C1033 C1035 1.389 . S
C1034 H1007 0.950 . S
C1034 C1020 1.377 . S
C1034 C1033 1.373 . S
C1035 C1019 1.377 . S
C1035 C1033 1.389 . S
C1035 C1036 1.524 . S
C1036 C1035 1.524 . S
C1036 C1037 1.397 . S
C1036 C1041 1.363 . S
C1037 H1008 0.950 . S
C1037 C1036 1.397 . S
C1037 C1038 1.334 . S
C1038 H1009 0.950 . S
C1038 C1037 1.334 . S
C1038 C1039 1.287 . S
C1039 C1038 1.287 . S
C1039 C1040 1.524 . S
C1039 H1042 0.999 . S
C1040 H1010 0.950 . S
C1040 C1039 1.524 . S
C1040 C1041 1.415 . S
C1041 H1011 0.950 . S
C1041 C1036 1.363 . S
C1041 C1040 1.415 . S
H1042 C1039 0.999 . S
H1043 C1024 0.913 . S
H1044 C1062 0.951 . S
H1045 C1064 0.951 . S
H1046 C1066 0.950 . S
H1047 C1067 0.950 . S
H1048 C1069 0.950 . S
H1049 C1072 0.950 . S
H1050 C1073 0.950 . S
H1051 C1075 0.950 . S
H1052 C1076 0.950 . S
H1053 C1077 0.951 . S
H1054 C1079 0.951 . S
H1055 C1081 0.950 . S
H1056 C1082 0.950 . S
H1057 C1084 0.950 . S
H1058 C1087 0.950 . S
H1059 C1088 0.950 . S
H1060 C1090 0.950 . S
H1061 C1091 0.950 . S
C1062 H1044 0.951 . S
C1062 C1063 1.366 . S
C1062 C1064 1.388 . S
C1063 C1062 1.366 . S
C1063 C1067 1.385 . S
C1064 H1045 0.951 . S
C1064 C1062 1.388 . S
C1064 C1065 1.366 . S
C1065 C1064 1.366 . S
C1065 C1066 1.414 . S
C1065 C1068 1.499 . S
C1066 H1046 0.950 . S
C1066 C1065 1.414 . S
C1066 C1067 1.374 . S
C1067 H1047 0.950 . S
C1067 C1063 1.385 . S
C1067 C1066 1.374 . S
C1068 C1065 1.499 . S
C1068 C1069 1.373 . S
C1068 C1070 1.389 . S
C1069 H1048 0.950 . S
C1069 C1068 1.373 . S
C1069 C1085 1.377 . S
C1070 C1068 1.389 . S
C1070 C1071 1.524 . S
C1070 C1084 1.377 . S
C1071 C1070 1.524 . S
C1071 C1072 1.397 . S
C1071 C1076 1.363 . S
C1072 H1049 0.950 . S
C1072 C1071 1.397 . S
C1072 C1073 1.334 . S
C1073 H1050 0.950 . S
C1073 C1072 1.334 . S
C1073 C1074 1.287 . S
C1074 C1073 1.287 . S
C1074 C1075 1.524 . S
C1074 H1093 0.913 . S
C1075 H1051 0.950 . S
C1075 C1074 1.524 . S
C1075 C1076 1.415 . S
C1076 H1052 0.950 . S
C1076 C1071 1.363 . S
C1076 C1075 1.415 . S
C1077 H1053 0.951 . S
C1077 C1078 1.366 . S
C1077 C1079 1.388 . S
C1078 C1077 1.366 . S
C1078 C1082 1.385 . S
C1079 H1054 0.951 . S
C1079 C1077 1.388 . S
C1079 C1080 1.366 . S
C1080 C1079 1.366 . S
C1080 C1081 1.414 . S
C1080 C1083 1.499 . S
C1081 H1055 0.950 . S
C1081 C1080 1.414 . S
C1081 C1082 1.374 . S
C1082 H1056 0.950 . S
C1082 C1078 1.385 . S
C1082 C1081 1.374 . S
C1083 C1080 1.499 . S
C1083 C1084 1.373 . S
C1083 C1085 1.389 . S
C1084 H1057 0.950 . S
C1084 C1070 1.377 . S
C1084 C1083 1.373 . S
C1085 C1069 1.377 . S
C1085 C1083 1.389 . S
C1085 C1086 1.524 . S
C1086 C1085 1.524 . S
C1086 C1087 1.397 . S
C1086 C1091 1.363 . S
C1087 H1058 0.950 . S
C1087 C1086 1.397 . S
C1087 C1088 1.334 . S
C1088 H1059 0.950 . S
C1088 C1087 1.334 . S
C1088 C1089 1.287 . S
C1089 C1088 1.287 . S
C1089 C1090 1.524 . S
C1089 H1092 0.999 . S
C1090 H1060 0.950 . S
C1090 C1089 1.524 . S
C1090 C1091 1.415 . S
C1091 H1061 0.950 . S
C1091 C1086 1.363 . S
C1091 C1090 1.415 . S
H1092 C1089 0.999 . S
H1093 C1074 0.913 . S
H1094 C1112 0.951 . S
H1095 C1114 0.951 . S
H1096 C1116 0.950 . S
H1097 C1117 0.950 . S
H1098 C1119 0.950 . S
H1099 C1122 0.950 . S
H1100 C1123 0.950 . S
H1101 C1125 0.950 . S
H1102 C1126 0.950 . S
H1103 C1127 0.951 . S
H1104 C1129 0.951 . S
H1105 C1131 0.950 . S
H1106 C1132 0.950 . S
H1107 C1134 0.950 . S
H1108 C1137 0.950 . S
H1109 C1138 0.950 . S
H1110 C1140 0.950 . S
H1111 C1141 0.950 . S
C1112 H1094 0.951 . S
C1112 C1113 1.366 . S
C1112 C1114 1.388 . S
C1113 C1112 1.366 . S
C1113 C1117 1.385 . S
C1114 H1095 0.951 . S
C1114 C1112 1.388 . S
C1114 C1115 1.366 . S
C1115 C1114 1.366 . S
C1115 C1116 1.414 . S
C1115 C1118 1.499 . S
C1116 H1096 0.950 . S
C1116 C1115 1.414 . S
C1116 C1117 1.374 . S
C1117 H1097 0.950 . S
C1117 C1113 1.385 . S
C1117 C1116 1.374 . S
C1118 C1115 1.499 . S
C1118 C1119 1.373 . S
C1118 C1120 1.389 . S
C1119 H1098 0.950 . S
C1119 C1118 1.373 . S
C1119 C1135 1.377 . S
C1120 C1118 1.389 . S
C1120 C1121 1.524 . S
C1120 C1134 1.377 . S
C1121 C1120 1.524 . S
C1121 C1122 1.397 . S
C1121 C1126 1.363 . S
C1122 H1099 0.950 . S
C1122 C1121 1.397 . S
C1122 C1123 1.334 . S
C1123 H1100 0.950 . S
C1123 C1122 1.334 . S
C1123 C1124 1.287 . S
C1124 C1123 1.287 . S
C1124 C1125 1.524 . S
C1124 H1143 0.913 . S
C1125 H1101 0.950 . S
C1125 C1124 1.524 . S
C1125 C1126 1.415 . S
C1126 H1102 0.950 . S
C1126 C1121 1.363 . S
C1126 C1125 1.415 . S
C1127 H1103 0.951 . S
C1127 C1128 1.366 . S
C1127 C1129 1.388 . S
C1128 C1127 1.366 . S
C1128 C1132 1.385 . S
C1129 H1104 0.951 . S
C1129 C1127 1.388 . S
C1129 C1130 1.366 . S
C1130 C1129 1.366 . S
C1130 C1131 1.414 . S
C1130 C1133 1.499 . S
C1131 H1105 0.950 . S
C1131 C1130 1.414 . S
C1131 C1132 1.374 . S
C1132 H1106 0.950 . S
C1132 C1128 1.385 . S
C1132 C1131 1.374 . S
C1133 C1130 1.499 . S
C1133 C1134 1.373 . S
C1133 C1135 1.389 . S
C1134 H1107 0.950 . S
C1134 C1120 1.377 . S
C1134 C1133 1.373 . S
C1135 C1119 1.377 . S
C1135 C1133 1.389 . S
C1135 C1136 1.524 . S
C1136 C1135 1.524 . S
C1136 C1137 1.397 . S
C1136 C1141 1.363 . S
C1137 H1108 0.950 . S
C1137 C1136 1.397 . S
C1137 C1138 1.334 . S
C1138 H1109 0.950 . S
C1138 C1137 1.334 . S
C1138 C1139 1.287 . S
C1139 C1138 1.287 . S
C1139 C1140 1.524 . S
C1139 H1142 0.999 . S
C1140 H1110 0.950 . S
C1140 C1139 1.524 . S
C1140 C1141 1.415 . S
C1141 H1111 0.950 . S
C1141 C1136 1.363 . S
C1141 C1140 1.415 . S
H1142 C1139 0.999 . S
H1143 C1124 0.913 . S
H1144 C1162 0.951 . S
H1145 C1164 0.951 . S
H1146 C1166 0.950 . S
H1147 C1167 0.950 . S
H1148 C1169 0.950 . S
H1149 C1172 0.950 . S
H1150 C1173 0.950 . S
H1151 C1175 0.950 . S
H1152 C1176 0.950 . S
H1153 C1177 0.951 . S
H1154 C1179 0.951 . S
H1155 C1181 0.950 . S
H1156 C1182 0.950 . S
H1157 C1184 0.950 . S
H1158 C1187 0.950 . S
H1159 C1188 0.950 . S
H1160 C1190 0.950 . S
H1161 C1191 0.950 . S
C1162 H1144 0.951 . S
C1162 C1163 1.366 . S
C1162 C1164 1.388 . S
C1163 C1162 1.366 . S
C1163 C1167 1.385 . S
C1164 H1145 0.951 . S
C1164 C1162 1.388 . S
C1164 C1165 1.366 . S
C1165 C1164 1.366 . S
C1165 C1166 1.414 . S
C1165 C1168 1.499 . S
C1166 H1146 0.950 . S
C1166 C1165 1.414 . S
C1166 C1167 1.374 . S
C1167 H1147 0.950 . S
C1167 C1163 1.385 . S
C1167 C1166 1.374 . S
C1168 C1165 1.499 . S
C1168 C1169 1.373 . S
C1168 C1170 1.389 . S
C1169 H1148 0.950 . S
C1169 C1168 1.373 . S
C1169 C1185 1.377 . S
C1170 C1168 1.389 . S
C1170 C1171 1.524 . S
C1170 C1184 1.377 . S
C1171 C1170 1.524 . S
C1171 C1172 1.397 . S
C1171 C1176 1.363 . S
C1172 H1149 0.950 . S
C1172 C1171 1.397 . S
C1172 C1173 1.334 . S
C1173 H1150 0.950 . S
C1173 C1172 1.334 . S
C1173 C1174 1.287 . S
C1174 C1173 1.287 . S
C1174 C1175 1.524 . S
C1174 H1193 0.913 . S
C1175 H1151 0.950 . S
C1175 C1174 1.524 . S
C1175 C1176 1.415 . S
C1176 H1152 0.950 . S
C1176 C1171 1.363 . S
C1176 C1175 1.415 . S
C1177 H1153 0.951 . S
C1177 C1178 1.366 . S
C1177 C1179 1.388 . S
C1178 C1177 1.366 . S
C1178 C1182 1.385 . S
C1179 H1154 0.951 . S
C1179 C1177 1.388 . S
C1179 C1180 1.366 . S
C1180 C1179 1.366 . S
C1180 C1181 1.414 . S
C1180 C1183 1.499 . S
C1181 H1155 0.950 . S
C1181 C1180 1.414 . S
C1181 C1182 1.374 . S
C1182 H1156 0.950 . S
C1182 C1178 1.385 . S
C1182 C1181 1.374 . S
C1183 C1180 1.499 . S
C1183 C1184 1.373 . S
C1183 C1185 1.389 . S
C1184 H1157 0.950 . S
C1184 C1170 1.377 . S
C1184 C1183 1.373 . S
C1185 C1169 1.377 . S
C1185 C1183 1.389 . S
C1185 C1186 1.524 . S
C1186 C1185 1.524 . S
C1186 C1187 1.397 . S
C1186 C1191 1.363 . S
C1187 H1158 0.950 . S
C1187 C1186 1.397 . S
C1187 C1188 1.334 . S
C1188 H1159 0.950 . S
C1188 C1187 1.334 . S
C1188 C1189 1.287 . S
C1189 C1188 1.287 . S
C1189 C1190 1.524 . S
C1189 H1192 0.999 . S
C1190 H1160 0.950 . S
C1190 C1189 1.524 . S
C1190 C1191 1.415 . S
C1191 H1161 0.950 . S
C1191 C1186 1.363 . S
C1191 C1190 1.415 . S
H1192 C1189 0.999 . S
H1193 C1174 0.913 . S
H1194 C1212 0.951 . S
H1195 C1214 0.951 . S
H1196 C1216 0.950 . S
H1197 C1217 0.950 . S
H1198 C1219 0.950 . S
H1199 C1222 0.950 . S
H1200 C1223 0.950 . S
H1201 C1225 0.950 . S
H1202 C1226 0.950 . S
H1203 C1227 0.951 . S
H1204 C1229 0.951 . S
H1205 C1231 0.950 . S
H1206 C1232 0.950 . S
H1207 C1234 0.950 . S
H1208 C1237 0.950 . S
H1209 C1238 0.950 . S
H1210 C1240 0.950 . S
H1211 C1241 0.950 . S
C1212 H1194 0.951 . S
C1212 C1213 1.366 . S
C1212 C1214 1.388 . S
C1213 C1212 1.366 . S
C1213 C1217 1.385 . S
C1214 H1195 0.951 . S
C1214 C1212 1.388 . S
C1214 C1215 1.366 . S
C1215 C1214 1.366 . S
C1215 C1216 1.414 . S
C1215 C1218 1.499 . S
C1216 H1196 0.950 . S
C1216 C1215 1.414 . S
C1216 C1217 1.374 . S
C1217 H1197 0.950 . S
C1217 C1213 1.385 . S
C1217 C1216 1.374 . S
C1218 C1215 1.499 . S
C1218 C1219 1.373 . S
C1218 C1220 1.389 . S
C1219 H1198 0.950 . S
C1219 C1218 1.373 . S
C1219 C1235 1.377 . S
C1220 C1218 1.389 . S
C1220 C1221 1.524 . S
C1220 C1234 1.377 . S
C1221 C1220 1.524 . S
C1221 C1222 1.397 . S
C1221 C1226 1.363 . S
C1222 H1199 0.950 . S
C1222 C1221 1.397 . S
C1222 C1223 1.334 . S
C1223 H1200 0.950 . S
C1223 C1222 1.334 . S
C1223 C1224 1.287 . S
C1224 C1223 1.287 . S
C1224 C1225 1.524 . S
C1224 H1243 0.913 . S
C1225 H1201 0.950 . S
C1225 C1224 1.524 . S
C1225 C1226 1.415 . S
C1226 H1202 0.950 . S
C1226 C1221 1.363 . S
C1226 C1225 1.415 . S
C1227 H1203 0.951 . S
C1227 C1228 1.366 . S
C1227 C1229 1.388 . S
C1228 C1227 1.366 . S
C1228 C1232 1.385 . S
C1229 H1204 0.951 . S
C1229 C1227 1.388 . S
C1229 C1230 1.366 . S
C1230 C1229 1.366 . S
C1230 C1231 1.414 . S
C1230 C1233 1.499 . S
C1231 H1205 0.950 . S
C1231 C1230 1.414 . S
C1231 C1232 1.374 . S
C1232 H1206 0.950 . S
C1232 C1228 1.385 . S
C1232 C1231 1.374 . S
C1233 C1230 1.499 . S
C1233 C1234 1.373 . S
C1233 C1235 1.389 . S
C1234 H1207 0.950 . S
C1234 C1220 1.377 . S
C1234 C1233 1.373 . S
C1235 C1219 1.377 . S
C1235 C1233 1.389 . S
C1235 C1236 1.524 . S
C1236 C1235 1.524 . S
C1236 C1237 1.397 . S
C1236 C1241 1.363 . S
C1237 H1208 0.950 . S
C1237 C1236 1.397 . S
C1237 C1238 1.334 . S
C1238 H1209 0.950 . S
C1238 C1237 1.334 . S
C1238 C1239 1.287 . S
C1239 C1238 1.287 . S
C1239 C1240 1.524 . S
C1239 H1242 0.999 . S
C1240 H1210 0.950 . S
C1240 C1239 1.524 . S
C1240 C1241 1.415 . S
C1241 H1211 0.950 . S
C1241 C1236 1.363 . S
C1241 C1240 1.415 . S
H1242 C1239 0.999 . S
H1243 C1224 0.913 . S
H1244 C1262 0.951 . S
H1245 C1264 0.951 . S
H1246 C1266 0.950 . S
H1247 C1267 0.950 . S
H1248 C1269 0.950 . S
H1249 C1272 0.950 . S
H1250 C1273 0.950 . S
H1251 C1275 0.950 . S
H1252 C1276 0.950 . S
H1253 C1277 0.951 . S
H1254 C1279 0.951 . S
H1255 C1281 0.950 . S
H1256 C1282 0.950 . S
H1257 C1284 0.950 . S
H1258 C1287 0.950 . S
H1259 C1288 0.950 . S
H1260 C1290 0.950 . S
H1261 C1291 0.950 . S
C1262 H1244 0.951 . S
C1262 C1263 1.366 . S
C1262 C1264 1.388 . S
C1263 C1262 1.366 . S
C1263 C1267 1.385 . S
C1264 H1245 0.951 . S
C1264 C1262 1.388 . S
C1264 C1265 1.366 . S
C1265 C1264 1.366 . S
C1265 C1266 1.414 . S
C1265 C1268 1.499 . S
C1266 H1246 0.950 . S
C1266 C1265 1.414 . S
C1266 C1267 1.374 . S
C1267 H1247 0.950 . S
C1267 C1263 1.385 . S
C1267 C1266 1.374 . S
C1268 C1265 1.499 . S
C1268 C1269 1.373 . S
C1268 C1270 1.389 . S
C1269 H1248 0.950 . S
C1269 C1268 1.373 . S
C1269 C1285 1.377 . S
C1270 C1268 1.389 . S
C1270 C1271 1.524 . S
C1270 C1284 1.377 . S
C1271 C1270 1.524 . S
C1271 C1272 1.397 . S
C1271 C1276 1.363 . S
C1272 H1249 0.950 . S
C1272 C1271 1.397 . S
C1272 C1273 1.334 . S
C1273 H1250 0.950 . S
C1273 C1272 1.334 . S
C1273 C1274 1.287 . S
C1274 C1273 1.287 . S
C1274 C1275 1.524 . S
C1274 H1293 0.913 . S
C1275 H1251 0.950 . S
C1275 C1274 1.524 . S
C1275 C1276 1.415 . S
C1276 H1252 0.950 . S
C1276 C1271 1.363 . S
C1276 C1275 1.415 . S
C1277 H1253 0.951 . S
C1277 C1278 1.366 . S
C1277 C1279 1.388 . S
C1278 C1277 1.366 . S
C1278 C1282 1.385 . S
C1279 H1254 0.951 . S
C1279 C1277 1.388 . S
C1279 C1280 1.366 . S
C1280 C1279 1.366 . S
C1280 C1281 1.414 . S
C1280 C1283 1.499 . S
C1281 H1255 0.950 . S
C1281 C1280 1.414 . S
C1281 C1282 1.374 . S
C1282 H1256 0.950 . S
C1282 C1278 1.385 . S
C1282 C1281 1.374 . S
C1283 C1280 1.499 . S
C1283 C1284 1.373 . S
C1283 C1285 1.389 . S
C1284 H1257 0.950 . S
C1284 C1270 1.377 . S
C1284 C1283 1.373 . S
C1285 C1269 1.377 . S
C1285 C1283 1.389 . S
C1285 C1286 1.524 . S
C1286 C1285 1.524 . S
C1286 C1287 1.397 . S
C1286 C1291 1.363 . S
C1287 H1258 0.950 . S
C1287 C1286 1.397 . S
C1287 C1288 1.334 . S
C1288 H1259 0.950 . S
C1288 C1287 1.334 . S
C1288 C1289 1.287 . S
C1289 C1288 1.287 . S
C1289 C1290 1.524 . S
C1289 H1292 0.999 . S
C1290 H1260 0.950 . S
C1290 C1289 1.524 . S
C1290 C1291 1.415 . S
C1291 H1261 0.950 . S
C1291 C1286 1.363 . S
C1291 C1290 1.415 . S
H1292 C1289 0.999 . S
H1293 C1274 0.913 . S
H1294 C1312 0.951 . S
H1295 C1314 0.951 . S
H1296 C1316 0.950 . S
H1297 C1317 0.950 . S
H1298 C1319 0.950 . S
H1299 C1322 0.950 . S
H1300 C1323 0.950 . S
H1301 C1325 0.950 . S
H1302 C1326 0.950 . S
H1303 C1327 0.951 . S
H1304 C1329 0.951 . S
H1305 C1331 0.950 . S
H1306 C1332 0.950 . S
H1307 C1334 0.950 . S
H1308 C1337 0.950 . S
H1309 C1338 0.950 . S
H1310 C1340 0.950 . S
H1311 C1341 0.950 . S
C1312 H1294 0.951 . S
C1312 C1313 1.366 . S
C1312 C1314 1.388 . S
C1313 C1312 1.366 . S
C1313 C1317 1.385 . S
C1314 H1295 0.951 . S
C1314 C1312 1.388 . S
C1314 C1315 1.366 . S
C1315 C1314 1.366 . S
C1315 C1316 1.414 . S
C1315 C1318 1.499 . S
C1316 H1296 0.950 . S
C1316 C1315 1.414 . S
C1316 C1317 1.374 . S
C1317 H1297 0.950 . S
C1317 C1313 1.385 . S
C1317 C1316 1.374 . S
C1318 C1315 1.499 . S
C1318 C1319 1.373 . S
C1318 C1320 1.389 . S
C1319 H1298 0.950 . S
C1319 C1318 1.373 . S
C1319 C1335 1.377 . S
C1320 C1318 1.389 . S
C1320 C1321 1.524 . S
C1320 C1334 1.377 . S
C1321 C1320 1.524 . S
C1321 C1322 1.397 . S
C1321 C1326 1.363 . S
C1322 H1299 0.950 . S
C1322 C1321 1.397 . S
C1322 C1323 1.334 . S
C1323 H1300 0.950 . S
C1323 C1322 1.334 . S
C1323 C1324 1.287 . S
C1324 C1323 1.287 . S
C1324 C1325 1.524 . S
C1324 H1343 0.913 . S
C1325 H1301 0.950 . S
C1325 C1324 1.524 . S
C1325 C1326 1.415 . S
C1326 H1302 0.950 . S
C1326 C1321 1.363 . S
C1326 C1325 1.415 . S
C1327 H1303 0.951 . S
C1327 C1328 1.366 . S
C1327 C1329 1.388 . S
C1328 C1327 1.366 . S
C1328 C1332 1.385 . S
C1329 H1304 0.951 . S
C1329 C1327 1.388 . S
C1329 C1330 1.366 . S
C1330 C1329 1.366 . S
C1330 C1331 1.414 . S
C1330 C1333 1.499 . S
C1331 H1305 0.950 . S
C1331 C1330 1.414 . S
C1331 C1332 1.374 . S
C1332 H1306 0.950 . S
C1332 C1328 1.385 . S
C1332 C1331 1.374 . S
C1333 C1330 1.499 . S
C1333 C1334 1.373 . S
C1333 C1335 1.389 . S
C1334 H1307 0.950 . S
C1334 C1320 1.377 . S
C1334 C1333 1.373 . S
C1335 C1319 1.377 . S
C1335 C1333 1.389 . S
C1335 C1336 1.524 . S
C1336 C1335 1.524 . S
C1336 C1337 1.397 . S
C1336 C1341 1.363 . S
C1337 H1308 0.950 . S
C1337 C1336 1.397 . S
C1337 C1338 1.334 . S
C1338 H1309 0.950 . S
C1338 C1337 1.334 . S
C1338 C1339 1.287 . S
C1339 C1338 1.287 . S
C1339 C1340 1.524 . S
C1339 H1342 0.999 . S
C1340 H1310 0.950 . S
C1340 C1339 1.524 . S
C1340 C1341 1.415 . S
C1341 H1311 0.950 . S
C1341 C1336 1.363 . S
C1341 C1340 1.415 . S
H1342 C1339 0.999 . S
H1343 C1324 0.913 . S
H1344 C1362 0.951 . S
H1345 C1364 0.951 . S
H1346 C1366 0.950 . S
H1347 C1367 0.950 . S
H1348 C1369 0.950 . S
H1349 C1372 0.950 . S
H1350 C1373 0.950 . S
H1351 C1375 0.950 . S
H1352 C1376 0.950 . S
H1353 C1377 0.951 . S
H1354 C1379 0.951 . S
H1355 C1381 0.950 . S
H1356 C1382 0.950 . S
H1357 C1384 0.950 . S
H1358 C1387 0.950 . S
H1359 C1388 0.950 . S
H1360 C1390 0.950 . S
H1361 C1391 0.950 . S
C1362 H1344 0.951 . S
C1362 C1363 1.366 . S
C1362 C1364 1.388 . S
C1363 C1362 1.366 . S
C1363 C1367 1.385 . S
C1364 H1345 0.951 . S
C1364 C1362 1.388 . S
C1364 C1365 1.366 . S
C1365 C1364 1.366 . S
C1365 C1366 1.414 . S
C1365 C1368 1.499 . S
C1366 H1346 0.950 . S
C1366 C1365 1.414 . S
C1366 C1367 1.374 . S
C1367 H1347 0.950 . S
C1367 C1363 1.385 . S
C1367 C1366 1.374 . S
C1368 C1365 1.499 . S
C1368 C1369 1.373 . S
C1368 C1370 1.389 1_565 S
C1369 H1348 0.950 . S
C1369 C1368 1.373 . S
C1369 C1385 1.377 1_565 S
C1370 C1368 1.389 1_545 S
C1370 C1371 1.524 . S
C1370 C1384 1.377 . S
C1371 C1370 1.524 . S
C1371 C1372 1.397 1_545 S
C1371 C1376 1.363 . S
C1372 H1349 0.950 . S
C1372 C1371 1.397 1_565 S
C1372 C1373 1.334 . S
C1373 H1350 0.950 . S
C1373 C1372 1.334 . S
C1373 C1374 1.287 1_565 S
C1374 C1373 1.287 1_545 S
C1374 C1375 1.524 . S
C1374 H1393 0.913 . S
C1375 H1351 0.950 . S
C1375 C1374 1.524 . S
C1375 C1376 1.415 . S
C1376 H1352 0.950 . S
C1376 C1371 1.363 . S
C1376 C1375 1.415 . S
C1377 H1353 0.951 . S
C1377 C1378 1.366 . S
C1377 C1379 1.388 . S
C1378 C1377 1.366 . S
C1378 C1382 1.385 . S
C1379 H1354 0.951 . S
C1379 C1377 1.388 . S
C1379 C1380 1.366 . S
C1380 C1379 1.366 . S
C1380 C1381 1.414 . S
C1380 C1383 1.499 . S
C1381 H1355 0.950 . S
C1381 C1380 1.414 . S
C1381 C1382 1.374 . S
C1382 H1356 0.950 . S
C1382 C1378 1.385 . S
C1382 C1381 1.374 . S
C1383 C1380 1.499 . S
C1383 C1384 1.373 . S
C1383 C1385 1.389 . S
C1384 H1357 0.950 . S
C1384 C1370 1.377 . S
C1384 C1383 1.373 . S
C1385 C1369 1.377 1_545 S
C1385 C1383 1.389 . S
C1385 C1386 1.524 . S
C1386 C1385 1.524 . S
C1386 C1387 1.397 . S
C1386 C1391 1.363 1_545 S
C1387 H1358 0.950 . S
C1387 C1386 1.397 . S
C1387 C1388 1.334 . S
C1388 H1359 0.950 . S
C1388 C1387 1.334 . S
C1388 C1389 1.287 . S
C1389 C1388 1.287 . S
C1389 C1390 1.524 1_545 S
C1389 H1392 0.999 . S
C1390 H1360 0.950 . S
C1390 C1389 1.524 1_565 S
C1390 C1391 1.415 . S
C1391 H1361 0.950 . S
C1391 C1386 1.363 1_565 S
C1391 C1390 1.415 . S
H1392 C1389 0.999 . S
H1393 C1374 0.913 . S
H1394 C1412 0.951 . S
H1395 C1414 0.951 . S
H1396 C1416 0.950 . S
H1397 C1417 0.950 . S
H1398 C1419 0.950 . S
H1399 C1422 0.950 . S
H1400 C1423 0.950 . S
H1401 C1425 0.950 . S
H1402 C1426 0.950 . S
H1403 C1427 0.951 . S
H1404 C1429 0.951 . S
H1405 C1431 0.950 . S
H1406 C1432 0.950 . S
H1407 C1434 0.950 . S
H1408 C1437 0.950 . S
H1409 C1438 0.950 . S
H1410 C1440 0.950 . S
H1411 C1441 0.950 . S
C1412 H1394 0.951 . S
C1412 C1413 1.366 . S
C1412 C1414 1.388 . S
C1413 C1412 1.366 . S
C1413 C1417 1.385 . S
C1414 H1395 0.951 . S
C1414 C1412 1.388 . S
C1414 C1415 1.366 . S
C1415 C1414 1.366 . S
C1415 C1416 1.414 . S
C1415 C1418 1.499 . S
C1416 H1396 0.950 . S
C1416 C1415 1.414 . S
C1416 C1417 1.374 . S
C1417 H1397 0.950 . S
C1417 C1413 1.385 . S
C1417 C1416 1.374 . S
C1418 C1415 1.499 . S
C1418 C1419 1.373 . S
C1418 C1420 1.389 . S
C1419 H1398 0.950 . S
C1419 C1418 1.373 . S
C1419 C1435 1.377 . S
C1420 C1418 1.389 . S
C1420 C1421 1.524 . S
C1420 C1434 1.377 . S
C1421 C1420 1.524 . S
C1421 C1422 1.397 . S
C1421 C1426 1.363 . S
C1422 H1399 0.950 . S
C1422 C1421 1.397 . S
C1422 C1423 1.334 . S
C1423 H1400 0.950 . S
C1423 C1422 1.334 . S
C1423 C1424 1.287 . S
C1424 C1423 1.287 . S
C1424 C1425 1.524 . S
C1424 H1443 0.913 . S
C1425 H1401 0.950 . S
C1425 C1424 1.524 . S
C1425 C1426 1.415 . S
C1426 H1402 0.950 . S
C1426 C1421 1.363 . S
C1426 C1425 1.415 . S
C1427 H1403 0.951 . S
C1427 C1428 1.366 . S
C1427 C1429 1.388 . S
C1428 C1427 1.366 . S
C1428 C1432 1.385 . S
C1429 H1404 0.951 . S
C1429 C1427 1.388 . S
C1429 C1430 1.366 . S
C1430 C1429 1.366 . S
C1430 C1431 1.414 . S
C1430 C1433 1.499 . S
C1431 H1405 0.950 . S
C1431 C1430 1.414 . S
C1431 C1432 1.374 . S
C1432 H1406 0.950 . S
C1432 C1428 1.385 . S
C1432 C1431 1.374 . S
C1433 C1430 1.499 . S
C1433 C1434 1.373 . S
C1433 C1435 1.389 . S
C1434 H1407 0.950 . S
C1434 C1420 1.377 . S
C1434 C1433 1.373 . S
C1435 C1419 1.377 . S
C1435 C1433 1.389 . S
C1435 C1436 1.524 . S
C1436 C1435 1.524 . S
C1436 C1437 1.397 . S
C1436 C1441 1.363 . S
C1437 H1408 0.950 . S
C1437 C1436 1.397 . S
C1437 C1438 1.334 . S
C1438 H1409 0.950 . S
C1438 C1437 1.334 . S
C1438 C1439 1.287 . S
C1439 C1438 1.287 . S
C1439 C1440 1.524 . S
C1439 H1442 0.999 . S
C1440 H1410 0.950 . S
C1440 C1439 1.524 . S
C1440 C1441 1.415 . S
C1441 H1411 0.950 . S
C1441 C1436 1.363 . S
C1441 C1440 1.415 . S
H1442 C1439 0.999 . S
H1443 C1424 0.913 . S
H1444 C1462 0.951 . S
H1445 C1464 0.951 . S
H1446 C1466 0.950 . S
H1447 C1467 0.950 . S
H1448 C1469 0.950 . S
H1449 C1472 0.950 . S
H1450 C1473 0.950 . S
H1451 C1475 0.950 1_554 S
H1452 C1476 0.950 1_554 S
H1453 C1477 0.951 . S
H1454 C1479 0.951 . S
H1455 C1481 0.950 . S
H1456 C1482 0.950 . S
H1457 C1484 0.950 . S
H1458 C1487 0.954 . S
H1459 C1488 0.974 . S
H1460 C1490 0.950 . S
H1461 C1491 0.950 . S
C1462 H1444 0.951 . S
C1462 C1463 1.366 . S
C1462 C1464 1.388 . S
C1463 C1462 1.366 . S
C1463 C1467 1.385 . S
C1464 H1445 0.951 . S
C1464 C1462 1.388 . S
C1464 C1465 1.366 . S
C1465 C1464 1.366 . S
C1465 C1466 1.414 . S
C1465 C1468 1.499 . S
C1466 H1446 0.950 . S
C1466 C1465 1.414 . S
C1466 C1467 1.374 . S
C1467 H1447 0.950 . S
C1467 C1463 1.385 . S
C1467 C1466 1.374 . S
C1468 C1465 1.499 . S
C1468 C1469 1.373 . S
C1468 C1470 1.389 . S
C1469 H1448 0.950 . S
C1469 C1468 1.373 . S
C1469 C1485 1.377 . S
C1470 C1468 1.389 . S
C1470 C1471 1.524 . S
C1470 C1484 1.377 1_556 S
C1471 C1470 1.524 . S
C1471 C1472 1.397 . S
C1471 C1476 1.363 . S
C1472 H1449 0.950 . S
C1472 C1471 1.397 . S
C1472 C1473 1.334 . S
C1473 H1450 0.950 . S
C1473 C1472 1.334 . S
C1473 C1474 1.287 . S
C1474 C1473 1.287 . S
C1474 C1475 1.524 . S
C1474 H1493 0.913 . S
C1475 H1451 0.950 1_556 S
C1475 C1474 1.524 . S
C1475 C1476 1.415 . S
C1476 H1452 0.950 1_556 S
C1476 C1471 1.363 . S
C1476 C1475 1.415 . S
C1477 H1453 0.951 . S
C1477 C1478 1.366 . S
C1477 C1479 1.388 . S
C1478 C1477 1.366 . S
C1478 C1482 1.385 . S
C1479 H1454 0.951 . S
C1479 C1477 1.388 . S
C1479 C1480 1.366 . S
C1480 C1479 1.366 . S
C1480 C1481 1.414 . S
C1480 C1483 1.499 . S
C1481 H1455 0.950 . S
C1481 C1480 1.414 . S
C1481 C1482 1.374 . S
C1482 H1456 0.950 . S
C1482 C1478 1.385 . S
C1482 C1481 1.374 . S
C1483 C1480 1.499 . S
C1483 C1484 1.373 . S
C1483 C1485 1.389 1_554 S
C1484 H1457 0.950 . S
C1484 C1470 1.377 1_554 S
C1484 C1483 1.373 . S
C1485 C1469 1.377 . S
C1485 C1483 1.389 1_556 S
C1485 C1486 1.524 . S
C1486 C1485 1.524 . S
C1486 C1487 1.397 . S
C1486 C1491 1.363 . S
C1487 H1458 0.954 . S
C1487 C1486 1.397 . S
C1487 C1488 1.334 . S
C1488 H1459 0.974 . S
C1488 C1487 1.334 . S
C1488 C1489 1.287 . S
C1489 C1488 1.287 . S
C1489 C1490 1.524 . S
C1489 H1492 0.999 . S
C1490 H1460 0.950 . S
C1490 C1489 1.524 . S
C1490 C1491 1.415 . S
C1491 H1461 0.950 . S
C1491 C1486 1.363 . S
C1491 C1490 1.415 . S
H1492 C1489 0.999 . S
H1493 C1474 0.913 . S
H1494 C1512 0.951 . S
H1495 C1514 0.951 . S
H1496 C1516 0.950 . S
H1497 C1517 0.950 . S
H1498 C1519 0.950 . S
H1499 C1522 0.950 . S
H1500 C1523 0.950 . S
H1501 C1525 0.950 . S
H1502 C1526 0.950 . S
H1503 C1527 0.951 . S
H1504 C1529 0.951 . S
H1505 C1531 0.950 . S
H1506 C1532 0.950 . S
H1507 C1534 0.950 . S
H1508 C1537 0.950 . S
H1509 C1538 0.950 . S
H1510 C1540 0.950 . S
H1511 C1541 0.950 . S
C1512 H1494 0.951 . S
C1512 C1513 1.366 . S
C1512 C1514 1.388 . S
C1513 C1512 1.366 . S
C1513 C1517 1.385 . S
C1514 H1495 0.951 . S
C1514 C1512 1.388 . S
C1514 C1515 1.366 . S
C1515 C1514 1.366 . S
C1515 C1516 1.414 . S
C1515 C1518 1.499 . S
C1516 H1496 0.950 . S
C1516 C1515 1.414 . S
C1516 C1517 1.374 . S
C1517 H1497 0.950 . S
C1517 C1513 1.385 . S
C1517 C1516 1.374 . S
C1518 C1515 1.499 . S
C1518 C1519 1.373 1_554 S
C1518 C1520 1.389 1_554 S
C1519 H1498 0.950 . S
C1519 C1518 1.373 1_556 S
C1519 C1535 1.377 . S
C1520 C1518 1.389 1_556 S
C1520 C1521 1.524 1_556 S
C1520 C1534 1.377 . S
C1521 C1520 1.524 1_554 S
C1521 C1522 1.397 . S
C1521 C1526 1.363 . S
C1522 H1499 0.950 . S
C1522 C1521 1.397 . S
C1522 C1523 1.334 . S
C1523 H1500 0.950 . S
C1523 C1522 1.334 . S
C1523 C1524 1.287 . S
C1524 C1523 1.287 . S
C1524 C1525 1.524 . S
C1524 H1543 0.913 . S
C1525 H1501 0.950 . S
C1525 C1524 1.524 . S
C1525 C1526 1.415 . S
C1526 H1502 0.950 . S
C1526 C1521 1.363 . S
C1526 C1525 1.415 . S
C1527 H1503 0.951 . S
C1527 C1528 1.366 . S
C1527 C1529 1.388 . S
C1528 C1527 1.366 . S
C1528 C1532 1.385 . S
C1529 H1504 0.951 . S
C1529 C1527 1.388 . S
C1529 C1530 1.366 . S
C1530 C1529 1.366 . S
C1530 C1531 1.414 . S
C1530 C1533 1.499 . S
C1531 H1505 0.950 . S
C1531 C1530 1.414 . S
C1531 C1532 1.374 . S
C1532 H1506 0.950 . S
C1532 C1528 1.385 . S
C1532 C1531 1.374 . S
C1533 C1530 1.499 . S
C1533 C1534 1.373 . S
C1533 C1535 1.389 . S
C1534 H1507 0.950 . S
C1534 C1520 1.377 . S
C1534 C1533 1.373 . S
C1535 C1519 1.377 . S
C1535 C1533 1.389 . S
C1535 C1536 1.524 . S
C1536 C1535 1.524 . S
C1536 C1537 1.397 . S
C1536 C1541 1.363 . S
C1537 H1508 0.950 . S
C1537 C1536 1.397 . S
C1537 C1538 1.334 . S
C1538 H1509 0.950 . S
C1538 C1537 1.334 . S
C1538 C1539 1.287 . S
C1539 C1538 1.287 . S
C1539 C1540 1.524 . S
C1539 H1542 0.999 . S
C1540 H1510 0.950 . S
C1540 C1539 1.524 . S
C1540 C1541 1.415 . S
C1541 H1511 0.950 . S
C1541 C1536 1.363 . S
C1541 C1540 1.415 . S
H1542 C1539 0.999 . S
H1543 C1524 0.913 . S
H1544 C1562 0.951 . S
H1545 C1564 0.951 . S
H1546 C1566 0.950 . S
H1547 C1567 0.950 . S
H1548 C1569 0.950 . S
H1549 C1572 0.950 . S
H1550 C1573 0.950 . S
H1551 C1575 0.950 . S
H1552 C1576 0.950 . S
H1553 C1577 0.951 . S
H1554 C1579 0.951 . S
H1555 C1581 0.950 . S
H1556 C1582 0.950 . S
H1557 C1584 0.950 . S
H1558 C1587 0.950 . S
H1559 C1588 0.950 . S
H1560 C1590 0.950 . S
H1561 C1591 0.950 . S
C1562 H1544 0.951 . S
C1562 C1563 1.366 . S
C1562 C1564 1.388 . S
C1563 C1562 1.366 . S
C1563 C1567 1.385 . S
C1564 H1545 0.951 . S
C1564 C1562 1.388 . S
C1564 C1565 1.366 . S
C1565 C1564 1.366 . S
C1565 C1566 1.414 . S
C1565 C1568 1.499 . S
C1566 H1546 0.950 . S
C1566 C1565 1.414 . S
C1566 C1567 1.374 . S
C1567 H1547 0.950 . S
C1567 C1563 1.385 . S
C1567 C1566 1.374 . S
C1568 C1565 1.499 . S
C1568 C1569 1.373 . S
C1568 C1570 1.389 . S
C1569 H1548 0.950 . S
C1569 C1568 1.373 . S
C1569 C1585 1.377 . S
C1570 C1568 1.389 . S
C1570 C1571 1.524 . S
C1570 C1584 1.377 . S
C1571 C1570 1.524 . S
C1571 C1572 1.397 . S
C1571 C1576 1.363 . S
C1572 H1549 0.950 . S
C1572 C1571 1.397 . S
C1572 C1573 1.334 . S
C1573 H1550 0.950 . S
C1573 C1572 1.334 . S
C1573 C1574 1.287 . S
C1574 C1573 1.287 . S
C1574 C1575 1.524 . S
C1574 H1593 0.913 . S
C1575 H1551 0.950 . S
C1575 C1574 1.524 . S
C1575 C1576 1.415 . S
C1576 H1552 0.950 . S
C1576 C1571 1.363 . S
C1576 C1575 1.415 . S
C1577 H1553 0.951 . S
C1577 C1578 1.366 . S
C1577 C1579 1.388 . S
C1578 C1577 1.366 . S
C1578 C1582 1.385 . S
C1579 H1554 0.951 . S
C1579 C1577 1.388 . S
C1579 C1580 1.366 . S
C1580 C1579 1.366 . S
C1580 C1581 1.414 . S
C1580 C1583 1.499 . S
C1581 H1555 0.950 . S
C1581 C1580 1.414 . S
C1581 C1582 1.374 . S
C1582 H1556 0.950 . S
C1582 C1578 1.385 . S
C1582 C1581 1.374 . S
C1583 C1580 1.499 . S
C1583 C1584 1.373 . S
C1583 C1585 1.389 . S
C1584 H1557 0.950 . S
C1584 C1570 1.377 . S
C1584 C1583 1.373 . S
C1585 C1569 1.377 . S
C1585 C1583 1.389 . S
C1585 C1586 1.524 . S
C1586 C1585 1.524 . S
C1586 C1587 1.397 . S
C1586 C1591 1.363 . S
C1587 H1558 0.950 . S
C1587 C1586 1.397 . S
C1587 C1588 1.334 . S
C1588 H1559 0.950 . S
C1588 C1587 1.334 . S
C1588 C1589 1.287 . S
C1589 C1588 1.287 . S
C1589 C1590 1.524 . S
C1589 H1592 0.999 . S
C1590 H1560 0.950 . S
C1590 C1589 1.524 . S
C1590 C1591 1.415 . S
C1591 H1561 0.950 . S
C1591 C1586 1.363 . S
C1591 C1590 1.415 . S
H1592 C1589 0.999 . S
H1593 C1574 0.913 . S
H1594 C1612 0.951 . S
H1595 C1614 0.951 . S
H1596 C1616 0.950 . S
H1597 C1617 0.950 . S
H1598 C1619 0.950 . S
H1599 C1622 0.950 . S
H1600 C1623 0.950 . S
H1601 C1625 0.950 . S
H1602 C1626 0.950 . S
H1603 C1627 0.951 . S
H1604 C1629 0.951 . S
H1605 C1631 0.950 . S
H1606 C1632 0.950 . S
H1607 C1634 0.950 . S
H1608 C1637 0.950 . S
H1609 C1638 0.950 . S
H1610 C1640 0.950 . S
H1611 C1641 0.950 . S
C1612 H1594 0.951 . S
C1612 C1613 1.366 . S
C1612 C1614 1.388 . S
C1613 C1612 1.366 . S
C1613 C1617 1.385 . S
C1614 H1595 0.951 . S
C1614 C1612 1.388 . S
C1614 C1615 1.366 . S
C1615 C1614 1.366 . S
C1615 C1616 1.414 . S
C1615 C1618 1.499 . S
C1616 H1596 0.950 . S
C1616 C1615 1.414 . S
C1616 C1617 1.374 . S
C1617 H1597 0.950 . S
C1617 C1613 1.385 . S
C1617 C1616 1.374 . S
C1618 C1615 1.499 . S
C1618 C1619 1.373 . S
C1618 C1620 1.389 . S
C1619 H1598 0.950 . S
C1619 C1618 1.373 . S
C1619 C1635 1.377 . S
C1620 C1618 1.389 . S
C1620 C1621 1.524 . S
C1620 C1634 1.377 . S
C1621 C1620 1.524 . S
C1621 C1622 1.397 . S
C1621 C1626 1.363 . S
C1622 H1599 0.950 . S
C1622 C1621 1.397 . S
C1622 C1623 1.334 . S
C1623 H1600 0.950 . S
C1623 C1622 1.334 . S
C1623 C1624 1.287 . S
C1624 C1623 1.287 . S
C1624 C1625 1.524 . S
C1624 H1643 0.913 . S
C1625 H1601 0.950 . S
C1625 C1624 1.524 . S
C1625 C1626 1.415 . S
C1626 H1602 0.950 . S
C1626 C1621 1.363 . S
C1626 C1625 1.415 . S
C1627 H1603 0.951 . S
C1627 C1628 1.366 . S
C1627 C1629 1.388 . S
C1628 C1627 1.366 . S
C1628 C1632 1.385 . S
C1629 H1604 0.951 . S
C1629 C1627 1.388 . S
C1629 C1630 1.366 . S
C1630 C1629 1.366 . S
C1630 C1631 1.414 . S
C1630 C1633 1.499 . S
C1631 H1605 0.950 . S
C1631 C1630 1.414 . S
C1631 C1632 1.374 . S
C1632 H1606 0.950 . S
C1632 C1628 1.385 . S
C1632 C1631 1.374 . S
C1633 C1630 1.499 . S
C1633 C1634 1.373 . S
C1633 C1635 1.389 . S
C1634 H1607 0.950 . S
C1634 C1620 1.377 . S
C1634 C1633 1.373 . S
C1635 C1619 1.377 . S
C1635 C1633 1.389 . S
C1635 C1636 1.524 . S
C1636 C1635 1.524 . S
C1636 C1637 1.397 . S
C1636 C1641 1.363 . S
C1637 H1608 0.950 . S
C1637 C1636 1.397 . S
C1637 C1638 1.334 . S
C1638 H1609 0.950 . S
C1638 C1637 1.334 . S
C1638 C1639 1.287 . S
C1639 C1638 1.287 . S
C1639 C1640 1.524 . S
C1639 H1642 0.999 . S
C1640 H1610 0.950 . S
C1640 C1639 1.524 . S
C1640 C1641 1.415 . S
C1641 H1611 0.950 . S
C1641 C1636 1.363 . S
C1641 C1640 1.415 . S
H1642 C1639 0.999 . S
H1643 C1624 0.913 . S
H1644 C1662 0.951 . S
H1645 C1664 0.951 . S
H1646 C1666 0.950 . S
H1647 C1667 0.950 . S
H1648 C1669 0.950 . S
H1649 C1672 0.950 . S
H1650 C1673 0.950 . S
H1651 C1675 0.950 . S
H1652 C1676 0.950 1_455 S
H1653 C1677 0.951 . S
H1654 C1679 0.951 . S
H1655 C1681 0.950 . S
H1656 C1682 0.950 . S
H1657 C1684 0.950 . S
H1658 C1687 0.950 . S
H1659 C1688 0.950 . S
H1660 C1690 0.950 . S
H1661 C1691 0.950 1_655 S
C1662 H1644 0.951 . S
C1662 C1663 1.366 . S
C1662 C1664 1.388 . S
C1663 C1662 1.366 . S
C1663 C1667 1.385 . S
C1664 H1645 0.951 . S
C1664 C1662 1.388 . S
C1664 C1665 1.366 . S
C1665 C1664 1.366 . S
C1665 C1666 1.414 . S
C1665 C1668 1.499 . S
C1666 H1646 0.950 . S
C1666 C1665 1.414 . S
C1666 C1667 1.374 . S
C1667 H1647 0.950 . S
C1667 C1663 1.385 . S
C1667 C1666 1.374 . S
C1668 C1665 1.499 . S
C1668 C1669 1.373 . S
C1668 C1670 1.389 . S
C1669 H1648 0.950 . S
C1669 C1668 1.373 . S
C1669 C1685 1.377 1_655 S
C1670 C1668 1.389 . S
C1670 C1671 1.524 . S
C1670 C1684 1.377 1_655 S
C1671 C1670 1.524 . S
C1671 C1672 1.397 . S
C1671 C1676 1.363 . S
C1672 H1649 0.950 . S
C1672 C1671 1.397 . S
C1672 C1673 1.334 . S
C1673 H1650 0.950 . S
C1673 C1672 1.334 . S
C1673 C1674 1.287 . S
C1674 C1673 1.287 . S
C1674 C1675 1.524 . S
C1674 H1693 0.913 . S
C1675 H1651 0.950 . S
C1675 C1674 1.524 . S
C1675 C1676 1.415 . S
C1676 H1652 0.950 1_655 S
C1676 C1671 1.363 . S
C1676 C1675 1.415 . S
C1677 H1653 0.951 . S
C1677 C1678 1.366 . S
C1677 C1679 1.388 . S
C1678 C1677 1.366 . S
C1678 C1682 1.385 . S
C1679 H1654 0.951 . S
C1679 C1677 1.388 . S
C1679 C1680 1.366 . S
C1680 C1679 1.366 . S
C1680 C1681 1.414 . S
C1680 C1683 1.499 . S
C1681 H1655 0.950 . S
C1681 C1680 1.414 . S
C1681 C1682 1.374 . S
C1682 H1656 0.950 . S
C1682 C1678 1.385 . S
C1682 C1681 1.374 . S
C1683 C1680 1.499 . S
C1683 C1684 1.373 . S
C1683 C1685 1.389 . S
C1684 H1657 0.950 . S
C1684 C1670 1.377 1_455 S
C1684 C1683 1.373 . S
C1685 C1669 1.377 1_455 S
C1685 C1683 1.389 . S
C1685 C1686 1.524 . S
C1686 C1685 1.524 . S
C1686 C1687 1.397 . S
C1686 C1691 1.363 . S
C1687 H1658 0.950 . S
C1687 C1686 1.397 . S
C1687 C1688 1.334 . S
C1688 H1659 0.950 . S
C1688 C1687 1.334 . S
C1688 C1689 1.287 . S
C1689 C1688 1.287 . S
C1689 C1690 1.524 . S
C1689 H1692 0.999 . S
C1690 H1660 0.950 . S
C1690 C1689 1.524 . S
C1690 C1691 1.415 . S
C1691 H1661 0.950 1_455 S
C1691 C1686 1.363 . S
C1691 C1690 1.415 . S
H1692 C1689 0.999 . S
H1693 C1674 0.913 . S
H1694 C1712 0.951 . S
H1695 C1714 0.951 . S
H1696 C1716 0.950 . S
H1697 C1717 0.950 . S
H1698 C1719 0.950 . S
H1699 C1722 0.950 . S
H1700 C1723 0.950 . S
H1701 C1725 0.950 . S
H1702 C1726 0.950 . S
H1703 C1727 0.951 . S
H1704 C1729 0.951 . S
H1705 C1731 0.950 . S
H1706 C1732 0.950 . S
H1707 C1734 0.950 . S
H1708 C1737 0.950 . S
H1709 C1738 0.950 . S
H1710 C1740 0.950 . S
H1711 C1741 0.950 . S
C1712 H1694 0.951 . S
C1712 C1713 1.366 . S
C1712 C1714 1.388 . S
C1713 C1712 1.366 . S
C1713 C1717 1.385 . S
C1714 H1695 0.951 . S
C1714 C1712 1.388 . S
C1714 C1715 1.366 . S
C1715 C1714 1.366 . S
C1715 C1716 1.414 . S
C1715 C1718 1.499 . S
C1716 H1696 0.950 . S
C1716 C1715 1.414 . S
C1716 C1717 1.374 . S
C1717 H1697 0.950 . S
C1717 C1713 1.385 . S
C1717 C1716 1.374 . S
C1718 C1715 1.499 . S
C1718 C1719 1.373 . S
C1718 C1720 1.389 . S
C1719 H1698 0.950 . S
C1719 C1718 1.373 . S
C1719 C1735 1.377 1_655 S
C1720 C1718 1.389 . S
C1720 C1721 1.524 . S
C1720 C1734 1.377 1_655 S
C1721 C1720 1.524 . S
C1721 C1722 1.397 . S
C1721 C1726 1.363 . S
C1722 H1699 0.950 . S
C1722 C1721 1.397 . S
C1722 C1723 1.334 . S
C1723 H1700 0.950 . S
C1723 C1722 1.334 . S
C1723 C1724 1.287 . S
C1724 C1723 1.287 . S
C1724 C1725 1.524 . S
C1724 H1743 0.913 . S
C1725 H1701 0.950 . S
C1725 C1724 1.524 . S
C1725 C1726 1.415 . S
C1726 H1702 0.950 . S
C1726 C1721 1.363 . S
C1726 C1725 1.415 . S
C1727 H1703 0.951 . S
C1727 C1728 1.366 . S
C1727 C1729 1.388 . S
C1728 C1727 1.366 . S
C1728 C1732 1.385 . S
C1729 H1704 0.951 . S
C1729 C1727 1.388 . S
C1729 C1730 1.366 . S
C1730 C1729 1.366 . S
C1730 C1731 1.414 . S
C1730 C1733 1.499 . S
C1731 H1705 0.950 . S
C1731 C1730 1.414 . S
C1731 C1732 1.374 . S
C1732 H1706 0.950 . S
C1732 C1728 1.385 . S
C1732 C1731 1.374 . S
C1733 C1730 1.499 . S
C1733 C1734 1.373 . S
C1733 C1735 1.389 . S
C1734 H1707 0.950 . S
C1734 C1720 1.377 1_455 S
C1734 C1733 1.373 . S
C1735 C1719 1.377 1_455 S
C1735 C1733 1.389 . S
C1735 C1736 1.524 . S
C1736 C1735 1.524 . S
C1736 C1737 1.397 . S
C1736 C1741 1.363 . S
C1737 H1708 0.950 . S
C1737 C1736 1.397 . S
C1737 C1738 1.334 . S
C1738 H1709 0.950 . S
C1738 C1737 1.334 . S
C1738 C1739 1.287 . S
C1739 C1738 1.287 . S
C1739 C1740 1.524 . S
C1739 H1742 0.999 . S
C1740 H1710 0.950 . S
C1740 C1739 1.524 . S
C1740 C1741 1.415 . S
C1741 H1711 0.950 . S
C1741 C1736 1.363 . S
C1741 C1740 1.415 . S
H1742 C1739 0.999 . S
H1743 C1724 0.913 . S
H1744 C1762 0.951 . S
H1745 C1764 0.951 . S
H1746 C1766 0.950 . S
H1747 C1767 0.950 . S
H1748 C1769 0.950 . S
H1749 C1772 0.950 . S
H1750 C1773 0.950 . S
H1751 C1775 0.950 . S
H1752 C1776 0.950 . S
H1753 C1777 0.951 . S
H1754 C1779 0.951 . S
H1755 C1781 0.950 . S
H1756 C1782 0.950 . S
H1757 C1784 0.950 . S
H1758 C1787 0.950 . S
H1759 C1788 0.950 . S
H1760 C1790 0.950 . S
H1761 C1791 0.950 . S
C1762 H1744 0.951 . S
C1762 C1763 1.366 . S
C1762 C1764 1.388 . S
C1763 C1762 1.366 . S
C1763 C1767 1.385 . S
C1764 H1745 0.951 . S
C1764 C1762 1.388 . S
C1764 C1765 1.366 . S
C1765 C1764 1.366 . S
C1765 C1766 1.414 . S
C1765 C1768 1.499 . S
C1766 H1746 0.950 . S
C1766 C1765 1.414 . S
C1766 C1767 1.374 . S
C1767 H1747 0.950 . S
C1767 C1763 1.385 . S
C1767 C1766 1.374 . S
C1768 C1765 1.499 . S
C1768 C1769 1.373 . S
C1768 C1770 1.389 . S
C1769 H1748 0.950 . S
C1769 C1768 1.373 . S
C1769 C1785 1.377 . S
C1770 C1768 1.389 . S
C1770 C1771 1.524 . S
C1770 C1784 1.377 . S
C1771 C1770 1.524 . S
C1771 C1772 1.397 . S
C1771 C1776 1.363 . S
C1772 H1749 0.950 . S
C1772 C1771 1.397 . S
C1772 C1773 1.334 . S
C1773 H1750 0.950 . S
C1773 C1772 1.334 . S
C1773 C1774 1.287 . S
C1774 C1773 1.287 . S
C1774 C1775 1.524 . S
C1774 H1793 0.913 . S
C1775 H1751 0.950 . S
C1775 C1774 1.524 . S
C1775 C1776 1.415 . S
C1776 H1752 0.950 . S
C1776 C1771 1.363 . S
C1776 C1775 1.415 . S
C1777 H1753 0.951 . S
C1777 C1778 1.366 . S
C1777 C1779 1.388 . S
C1778 C1777 1.366 . S
C1778 C1782 1.385 . S
C1779 H1754 0.951 . S
C1779 C1777 1.388 . S
C1779 C1780 1.366 . S
C1780 C1779 1.366 . S
C1780 C1781 1.414 . S
C1780 C1783 1.499 . S
C1781 H1755 0.950 . S
C1781 C1780 1.414 . S
C1781 C1782 1.374 . S
C1782 H1756 0.950 . S
C1782 C1778 1.385 . S
C1782 C1781 1.374 . S
C1783 C1780 1.499 . S
C1783 C1784 1.373 . S
C1783 C1785 1.389 . S
C1784 H1757 0.950 . S
C1784 C1770 1.377 . S
C1784 C1783 1.373 . S
C1785 C1769 1.377 . S
C1785 C1783 1.389 . S
C1785 C1786 1.524 . S
C1786 C1785 1.524 . S
C1786 C1787 1.397 . S
C1786 C1791 1.363 . S
C1787 H1758 0.950 . S
C1787 C1786 1.397 . S
C1787 C1788 1.334 . S
C1788 H1759 0.950 . S
C1788 C1787 1.334 . S
C1788 C1789 1.287 . S
C1789 C1788 1.287 . S
C1789 C1790 1.524 . S
C1789 H1792 0.999 . S
C1790 H1760 0.950 . S
C1790 C1789 1.524 . S
C1790 C1791 1.415 . S
C1791 H1761 0.950 . S
C1791 C1786 1.363 . S
C1791 C1790 1.415 . S
H1792 C1789 0.999 . S
H1793 C1774 0.913 . S
H1794 C1812 0.951 . S
H1795 C1814 0.951 . S
H1796 C1816 0.950 . S
H1797 C1817 0.950 . S
H1798 C1819 0.950 . S
H1799 C1822 0.950 . S
H1800 C1823 0.950 . S
H1801 C1825 0.950 . S
H1802 C1826 0.950 . S
H1803 C1827 0.951 . S
H1804 C1829 0.951 . S
H1805 C1831 0.950 . S
H1806 C1832 0.950 . S
H1807 C1834 0.950 1_545 S
H1808 C1837 0.950 . S
H1809 C1838 0.950 . S
H1810 C1840 0.950 . S
H1811 C1841 0.950 . S
C1812 H1794 0.951 . S
C1812 C1813 1.366 . S
C1812 C1814 1.388 . S
C1813 C1812 1.366 . S
C1813 C1817 1.385 . S
C1814 H1795 0.951 . S
C1814 C1812 1.388 . S
C1814 C1815 1.366 . S
C1815 C1814 1.366 . S
C1815 C1816 1.414 . S
C1815 C1818 1.499 . S
C1816 H1796 0.950 . S
C1816 C1815 1.414 . S
C1816 C1817 1.374 . S
C1817 H1797 0.950 . S
C1817 C1813 1.385 . S
C1817 C1816 1.374 . S
C1818 C1815 1.499 . S
C1818 C1819 1.373 1_545 S
C1818 C1820 1.389 . S
C1819 H1798 0.950 . S
C1819 C1818 1.373 1_565 S
C1819 C1835 1.377 . S
C1820 C1818 1.389 . S
C1820 C1821 1.524 . S
C1820 C1834 1.381 1_545 S
C1821 C1820 1.524 . S
C1821 C1822 1.397 . S
C1821 C1826 1.363 . S
C1822 H1799 0.950 . S
C1822 C1821 1.397 . S
C1822 C1823 1.334 . S
C1823 H1800 0.950 . S
C1823 C1822 1.334 . S
C1823 C1824 1.287 . S
C1824 C1823 1.287 . S
C1824 C1825 1.524 . S
C1824 H1843 0.913 . S
C1825 H1801 0.950 . S
C1825 C1824 1.524 . S
C1825 C1826 1.415 . S
C1826 H1802 0.950 . S
C1826 C1821 1.363 . S
C1826 C1825 1.415 . S
C1827 H1803 0.951 . S
C1827 C1828 1.366 . S
C1827 C1829 1.388 . S
C1828 C1827 1.366 . S
C1828 C1832 1.385 . S
C1829 H1804 0.951 . S
C1829 C1827 1.388 . S
C1829 C1830 1.366 . S
C1830 C1829 1.366 . S
C1830 C1831 1.414 . S
C1830 C1833 1.499 . S
C1831 H1805 0.950 . S
C1831 C1830 1.414 . S
C1831 C1832 1.374 . S
C1832 H1806 0.950 . S
C1832 C1828 1.385 . S
C1832 C1831 1.374 . S
C1833 C1830 1.499 . S
C1833 C1834 1.369 . S
C1833 C1835 1.389 . S
C1834 H1807 0.950 1_565 S
C1834 C1820 1.381 1_565 S
C1834 C1833 1.369 . S
C1835 C1819 1.377 . S
C1835 C1833 1.389 . S
C1835 C1836 1.524 . S
C1836 C1835 1.524 . S
C1836 C1837 1.397 . S
C1836 C1841 1.363 . S
C1837 H1808 0.950 . S
C1837 C1836 1.397 . S
C1837 C1838 1.334 . S
C1838 H1809 0.950 . S
C1838 C1837 1.334 . S
C1838 C1839 1.287 . S
C1839 C1838 1.287 . S
C1839 C1840 1.524 . S
C1839 H1842 0.999 . S
C1840 H1810 0.950 . S
C1840 C1839 1.524 . S
C1840 C1841 1.415 . S
C1841 H1811 0.950 . S
C1841 C1836 1.363 . S
C1841 C1840 1.415 . S
H1842 C1839 0.999 . S
H1843 C1824 0.913 . S
H1844 C1862 0.951 . S
H1845 C1864 0.951 . S
H1846 C1866 0.950 . S
H1847 C1867 0.950 . S
H1848 C1869 0.950 . S
H1849 C1872 0.950 . S
H1850 C1873 0.950 . S
H1851 C1875 0.950 . S
H1852 C1876 0.950 . S
H1853 C1877 0.951 . S
H1854 C1879 0.951 . S
H1855 C1881 0.950 . S
H1856 C1882 0.950 . S
H1857 C1884 0.950 . S
H1858 C1887 0.950 . S
H1859 C1888 0.950 . S
H1860 C1890 0.950 . S
H1861 C1891 0.950 . S
C1862 H1844 0.951 . S
C1862 C1863 1.366 . S
C1862 C1864 1.388 . S
C1863 C1862 1.366 . S
C1863 C1867 1.385 . S
C1864 H1845 0.951 . S
C1864 C1862 1.388 . S
C1864 C1865 1.366 . S
C1865 C1864 1.366 . S
C1865 C1866 1.414 . S
C1865 C1868 1.499 . S
C1866 H1846 0.950 . S
C1866 C1865 1.414 . S
C1866 C1867 1.374 . S
C1867 H1847 0.950 . S
C1867 C1863 1.385 . S
C1867 C1866 1.374 . S
C1868 C1865 1.499 . S
C1868 C1869 1.373 . S
C1868 C1870 1.389 . S
C1869 H1848 0.950 . S
C1869 C1868 1.373 . S
C1869 C1885 1.377 . S
C1870 C1868 1.389 . S
C1870 C1871 1.524 . S
C1870 C1884 1.377 . S
C1871 C1870 1.524 . S
C1871 C1872 1.397 . S
C1871 C1876 1.363 . S
C1872 H1849 0.950 . S
C1872 C1871 1.397 . S
C1872 C1873 1.334 . S
C1873 H1850 0.950 . S
C1873 C1872 1.334 . S
C1873 C1874 1.287 . S
C1874 C1873 1.287 . S
C1874 C1875 1.524 . S
C1874 H1893 0.913 . S
C1875 H1851 0.950 . S
C1875 C1874 1.524 . S
C1875 C1876 1.415 . S
C1876 H1852 0.950 . S
C1876 C1871 1.363 . S
C1876 C1875 1.415 . S
C1877 H1853 0.951 . S
C1877 C1878 1.366 . S
C1877 C1879 1.388 . S
C1878 C1877 1.366 . S
C1878 C1882 1.385 . S
C1879 H1854 0.951 . S
C1879 C1877 1.388 . S
C1879 C1880 1.366 . S
C1880 C1879 1.366 . S
C1880 C1881 1.414 . S
C1880 C1883 1.499 . S
C1881 H1855 0.950 . S
C1881 C1880 1.414 . S
C1881 C1882 1.374 . S
C1882 H1856 0.950 . S
C1882 C1878 1.385 . S
C1882 C1881 1.374 . S
C1883 C1880 1.499 . S
C1883 C1884 1.373 . S
C1883 C1885 1.389 . S
C1884 H1857 0.950 . S
C1884 C1870 1.377 . S
C1884 C1883 1.373 . S
C1885 C1869 1.377 . S
C1885 C1883 1.389 . S
C1885 C1886 1.524 . S
C1886 C1885 1.524 . S
C1886 C1887 1.397 . S
C1886 C1891 1.363 . S
C1887 H1858 0.950 . S
C1887 C1886 1.397 . S
C1887 C1888 1.334 . S
C1888 H1859 0.950 . S
C1888 C1887 1.334 . S
C1888 C1889 1.287 . S
C1889 C1888 1.287 . S
C1889 C1890 1.524 . S
C1889 H1892 0.999 . S
C1890 H1860 0.950 . S
C1890 C1889 1.524 . S
C1890 C1891 1.415 . S
C1891 H1861 0.950 . S
C1891 C1886 1.363 . S
C1891 C1890 1.415 . S
H1892 C1889 0.999 . S
H1893 C1874 0.913 . S
H1894 C1912 0.951 . S
H1895 C1914 0.951 . S
H1896 C1916 0.950 . S
H1897 C1917 0.950 . S
H1898 C1919 0.950 . S
H1899 C1922 0.950 . S
H1900 C1923 0.950 . S
H1901 C1925 0.950 . S
H1902 C1926 0.950 . S
H1903 C1927 0.951 . S
H1904 C1929 0.951 . S
H1905 C1931 0.950 . S
H1906 C1932 0.950 . S
H1907 C1934 0.950 . S
H1908 C1937 0.950 . S
H1909 C1938 0.950 . S
H1910 C1940 0.950 . S
H1911 C1941 0.925 1_554 S
C1912 H1894 0.951 . S
C1912 C1913 1.366 . S
C1912 C1914 1.388 . S
C1913 C1912 1.366 . S
C1913 C1917 1.385 . S
C1914 H1895 0.951 . S
C1914 C1912 1.388 . S
C1914 C1915 1.366 . S
C1915 C1914 1.366 . S
C1915 C1916 1.414 . S
C1915 C1918 1.499 . S
C1916 H1896 0.950 . S
C1916 C1915 1.414 . S
C1916 C1917 1.374 . S
C1917 H1897 0.950 . S
C1917 C1913 1.385 . S
C1917 C1916 1.374 . S
C1918 C1915 1.499 . S
C1918 C1919 1.373 . S
C1918 C1920 1.389 . S
C1919 H1898 0.950 . S
C1919 C1918 1.373 . S
C1919 C1935 1.377 . S
C1920 C1918 1.389 . S
C1920 C1921 1.524 . S
C1920 C1934 1.377 . S
C1921 C1920 1.524 . S
C1921 C1922 1.397 . S
C1921 C1926 1.363 . S
C1922 H1899 0.950 . S
C1922 C1921 1.397 . S
C1922 C1923 1.334 . S
C1923 H1900 0.950 . S
C1923 C1922 1.334 . S
C1923 C1924 1.287 . S
C1924 C1923 1.287 . S
C1924 C1925 1.524 . S
C1924 H1943 0.913 . S
C1925 H1901 0.950 . S
C1925 C1924 1.524 . S
C1925 C1926 1.415 . S
C1926 H1902 0.950 . S
C1926 C1921 1.363 . S
C1926 C1925 1.415 . S
C1927 H1903 0.951 . S
C1927 C1928 1.366 . S
C1927 C1929 1.388 . S
C1928 C1927 1.366 . S
C1928 C1932 1.385 . S
C1929 H1904 0.951 . S
C1929 C1927 1.388 . S
C1929 C1930 1.366 . S
C1930 C1929 1.366 . S
C1930 C1931 1.414 . S
C1930 C1933 1.499 1_556 S
C1931 H1905 0.950 . S
C1931 C1930 1.414 . S
C1931 C1932 1.374 . S
C1932 H1906 0.950 . S
C1932 C1928 1.385 . S
C1932 C1931 1.374 . S
C1933 C1930 1.499 1_554 S
C1933 C1934 1.373 . S
C1933 C1935 1.389 . S
C1934 H1907 0.950 . S
C1934 C1920 1.377 . S
C1934 C1933 1.373 . S
C1935 C1919 1.377 . S
C1935 C1933 1.389 . S
C1935 C1936 1.524 1_554 S
C1936 C1935 1.524 1_556 S
C1936 C1937 1.397 . S
C1936 C1941 1.363 . S
C1937 H1908 0.950 . S
C1937 C1936 1.397 . S
C1937 C1938 1.334 . S
C1938 H1909 0.950 . S
C1938 C1937 1.334 . S
C1938 C1939 1.287 . S
C1939 C1938 1.287 . S
C1939 C1940 1.524 . S
C1939 H1942 0.999 . S
C1940 H1910 0.950 . S
C1940 C1939 1.524 . S
C1940 C1941 1.415 . S
C1941 H1911 0.925 1_556 S
C1941 C1936 1.363 . S
C1941 C1940 1.415 . S
H1942 C1939 0.999 . S
H1943 C1924 0.913 . S
H1944 C1962 0.951 . S
H1945 C1964 0.951 . S
H1946 C1966 0.950 . S
H1947 C1967 0.950 . S
H1948 C1969 0.950 . S
H1949 C1972 0.950 . S
H1950 C1973 0.950 . S
H1951 C1975 0.950 . S
H1952 C1976 0.950 . S
H1953 C1977 0.951 . S
H1954 C1979 0.951 . S
H1955 C1981 0.950 . S
H1956 C1982 0.950 . S
H1957 C1984 0.950 . S
H1958 C1987 0.950 . S
H1959 C1988 0.950 . S
H1960 C1990 0.950 . S
H1961 C1991 0.950 . S
C1962 H1944 0.951 . S
C1962 C1963 1.366 . S
C1962 C1964 1.388 . S
C1963 C1962 1.366 . S
C1963 C1967 1.385 . S
C1964 H1945 0.951 . S
C1964 C1962 1.388 . S
C1964 C1965 1.366 . S
C1965 C1964 1.366 . S
C1965 C1966 1.414 . S
C1965 C1968 1.499 1_556 S
C1966 H1946 0.950 . S
C1966 C1965 1.414 . S
C1966 C1967 1.374 . S
C1967 H1947 0.950 . S
C1967 C1963 1.385 . S
C1967 C1966 1.374 . S
C1968 C1965 1.499 1_554 S
C1968 C1969 1.373 . S
C1968 C1970 1.389 . S
C1969 H1948 0.950 . S
C1969 C1968 1.373 . S
C1969 C1985 1.377 . S
C1970 C1968 1.389 . S
C1970 C1971 1.524 . S
C1970 C1984 1.377 . S
C1971 C1970 1.524 . S
C1971 C1972 1.397 1_554 S
C1971 C1976 1.363 . S
C1972 H1949 0.950 . S
C1972 C1971 1.397 1_556 S
C1972 C1973 1.334 . S
C1973 H1950 0.950 . S
C1973 C1972 1.334 . S
C1973 C1974 1.287 . S
C1974 C1973 1.287 . S
C1974 C1975 1.524 1_556 S
C1974 H1993 0.913 . S
C1975 H1951 0.950 . S
C1975 C1974 1.524 1_554 S
C1975 C1976 1.415 . S
C1976 H1952 0.950 . S
C1976 C1971 1.363 . S
C1976 C1975 1.415 . S
C1977 H1953 0.951 . S
C1977 C1978 1.366 . S
C1977 C1979 1.388 . S
C1978 C1977 1.366 . S
C1978 C1982 1.385 . S
C1979 H1954 0.951 . S
C1979 C1977 1.388 . S
C1979 C1980 1.366 . S
C1980 C1979 1.366 . S
C1980 C1981 1.414 . S
C1980 C1983 1.499 . S
C1981 H1955 0.950 . S
C1981 C1980 1.414 . S
C1981 C1982 1.374 . S
C1982 H1956 0.950 . S
C1982 C1978 1.385 . S
C1982 C1981 1.374 . S
C1983 C1980 1.499 . S
C1983 C1984 1.373 . S
C1983 C1985 1.389 . S
C1984 H1957 0.950 . S
C1984 C1970 1.377 . S
C1984 C1983 1.373 . S
C1985 C1969 1.377 . S
C1985 C1983 1.389 . S
C1985 C1986 1.524 . S
C1986 C1985 1.524 . S
C1986 C1987 1.397 . S
C1986 C1991 1.363 . S
C1987 H1958 0.950 . S
C1987 C1986 1.397 . S
C1987 C1988 1.334 . S
C1988 H1959 0.950 . S
C1988 C1987 1.334 . S
C1988 C1989 1.287 . S
C1989 C1988 1.287 . S
C1989 C1990 1.524 . S
C1989 H1992 0.999 . S
C1990 H1960 0.950 . S
C1990 C1989 1.524 . S
C1990 C1991 1.415 . S
C1991 H1961 0.950 . S
C1991 C1986 1.363 . S
C1991 C1990 1.415 . S
H1992 C1989 0.999 . S
H1993 C1974 0.913 . S
H1994 C2012 0.951 . S
H1995 C2014 0.951 . S
H1996 C2016 0.950 . S
H1997 C2017 0.950 . S
H1998 C2019 0.950 . S
H1999 C2022 0.950 . S
H2000 C2023 0.950 . S
H2001 C2025 0.950 . S
H2002 C2026 0.950 . S
H2003 C2027 0.951 . S
H2004 C2029 0.951 . S
H2005 C2031 0.950 . S
H2006 C2032 0.950 . S
H2007 C2034 0.950 . S
H2008 C2037 0.950 . S
H2009 C2038 0.950 . S
H2010 C2040 0.950 . S
H2011 C2041 0.950 . S
C2012 H1994 0.951 . S
C2012 C2013 1.366 . S
C2012 C2014 1.388 . S
C2013 C2012 1.366 . S
C2013 C2017 1.385 . S
C2014 H1995 0.951 . S
C2014 C2012 1.388 . S
C2014 C2015 1.366 . S
C2015 C2014 1.366 . S
C2015 C2016 1.414 . S
C2015 C2018 1.499 . S
C2016 H1996 0.950 . S
C2016 C2015 1.414 . S
C2016 C2017 1.374 . S
C2017 H1997 0.950 . S
C2017 C2013 1.385 . S
C2017 C2016 1.374 . S
C2018 C2015 1.499 . S
C2018 C2019 1.373 . S
C2018 C2020 1.389 . S
C2019 H1998 0.950 . S
C2019 C2018 1.373 . S
C2019 C2035 1.377 . S
C2020 C2018 1.389 . S
C2020 C2021 1.524 . S
C2020 C2034 1.377 . S
C2021 C2020 1.524 . S
C2021 C2022 1.397 . S
C2021 C2026 1.363 . S
C2022 H1999 0.950 . S
C2022 C2021 1.397 . S
C2022 C2023 1.334 . S
C2023 H2000 0.950 . S
C2023 C2022 1.334 . S
C2023 C2024 1.287 . S
C2024 C2023 1.287 . S
C2024 C2025 1.524 . S
C2024 H2043 0.913 . S
C2025 H2001 0.950 . S
C2025 C2024 1.524 . S
C2025 C2026 1.415 . S
C2026 H2002 0.950 . S
C2026 C2021 1.363 . S
C2026 C2025 1.415 . S
C2027 H2003 0.951 . S
C2027 C2028 1.366 . S
C2027 C2029 1.388 . S
C2028 C2027 1.366 . S
C2028 C2032 1.385 . S
C2029 H2004 0.951 . S
C2029 C2027 1.388 . S
C2029 C2030 1.366 . S
C2030 C2029 1.366 . S
C2030 C2031 1.414 . S
C2030 C2033 1.499 . S
C2031 H2005 0.950 . S
C2031 C2030 1.414 . S
C2031 C2032 1.374 . S
C2032 H2006 0.950 . S
C2032 C2028 1.385 . S
C2032 C2031 1.374 . S
C2033 C2030 1.499 . S
C2033 C2034 1.373 . S
C2033 C2035 1.389 . S
C2034 H2007 0.950 . S
C2034 C2020 1.377 . S
C2034 C2033 1.373 . S
C2035 C2019 1.377 . S
C2035 C2033 1.389 . S
C2035 C2036 1.524 . S
C2036 C2035 1.524 . S
C2036 C2037 1.397 . S
C2036 C2041 1.363 . S
C2037 H2008 0.950 . S
C2037 C2036 1.397 . S
C2037 C2038 1.334 . S
C2038 H2009 0.950 . S
C2038 C2037 1.334 . S
C2038 C2039 1.287 . S
C2039 C2038 1.287 . S
C2039 C2040 1.524 . S
C2039 H2042 0.999 . S
C2040 H2010 0.950 . S
C2040 C2039 1.524 . S
C2040 C2041 1.415 . S
C2041 H2011 0.950 . S
C2041 C2036 1.363 . S
C2041 C2040 1.415 . S
H2042 C2039 0.999 . S
H2043 C2024 0.913 . S
H2044 C2062 0.951 . S
H2045 C2064 0.951 . S
H2046 C2066 0.950 . S
H2047 C2067 0.950 . S
H2048 C2069 0.950 . S
H2049 C2072 0.950 . S
H2050 C2073 0.950 . S
H2051 C2075 0.950 . S
H2052 C2076 0.950 . S
H2053 C2077 0.951 . S
H2054 C2079 0.951 . S
H2055 C2081 0.950 . S
H2056 C2082 0.950 . S
H2057 C2084 0.950 . S
H2058 C2087 0.950 . S
H2059 C2088 0.950 . S
H2060 C2090 0.950 . S
H2061 C2091 0.950 . S
C2062 H2044 0.951 . S
C2062 C2063 1.366 . S
C2062 C2064 1.388 . S
C2063 C2062 1.366 . S
C2063 C2067 1.385 . S
C2064 H2045 0.951 . S
C2064 C2062 1.388 . S
C2064 C2065 1.366 . S
C2065 C2064 1.366 . S
C2065 C2066 1.414 . S
C2065 C2068 1.499 . S
C2066 H2046 0.950 . S
C2066 C2065 1.414 . S
C2066 C2067 1.374 . S
C2067 H2047 0.950 . S
C2067 C2063 1.385 . S
C2067 C2066 1.374 . S
C2068 C2065 1.499 . S
C2068 C2069 1.373 . S
C2068 C2070 1.389 . S
C2069 H2048 0.950 . S
C2069 C2068 1.373 . S
C2069 C2085 1.377 . S
C2070 C2068 1.389 . S
C2070 C2071 1.524 . S
C2070 C2084 1.377 . S
C2071 C2070 1.524 . S
C2071 C2072 1.397 . S
C2071 C2076 1.363 . S
C2072 H2049 0.950 . S
C2072 C2071 1.397 . S
C2072 C2073 1.334 . S
C2073 H2050 0.950 . S
C2073 C2072 1.334 . S
C2073 C2074 1.287 . S
C2074 C2073 1.287 . S
C2074 C2075 1.524 . S
C2074 H2093 0.913 . S
C2075 H2051 0.950 . S
C2075 C2074 1.524 . S
C2075 C2076 1.415 . S
C2076 H2052 0.950 . S
C2076 C2071 1.363 . S
C2076 C2075 1.415 . S
C2077 H2053 0.951 . S
C2077 C2078 1.366 . S
C2077 C2079 1.388 . S
C2078 C2077 1.366 . S
C2078 C2082 1.385 . S
C2079 H2054 0.951 . S
C2079 C2077 1.388 . S
C2079 C2080 1.366 . S
C2080 C2079 1.366 . S
C2080 C2081 1.414 . S
C2080 C2083 1.499 . S
C2081 H2055 0.950 . S
C2081 C2080 1.414 . S
C2081 C2082 1.374 . S
C2082 H2056 0.950 . S
C2082 C2078 1.385 . S
C2082 C2081 1.374 . S
C2083 C2080 1.499 . S
C2083 C2084 1.373 . S
C2083 C2085 1.389 . S
C2084 H2057 0.950 . S
C2084 C2070 1.377 . S
C2084 C2083 1.373 . S
C2085 C2069 1.377 . S
C2085 C2083 1.389 . S
C2085 C2086 1.524 . S
C2086 C2085 1.524 . S
C2086 C2087 1.397 . S
C2086 C2091 1.363 . S
C2087 H2058 0.950 . S
C2087 C2086 1.397 . S
C2087 C2088 1.334 . S
C2088 H2059 0.950 . S
C2088 C2087 1.334 . S
C2088 C2089 1.287 . S
C2089 C2088 1.287 . S
C2089 C2090 1.524 . S
C2089 H2092 0.999 . S
C2090 H2060 0.950 . S
C2090 C2089 1.524 . S
C2090 C2091 1.415 . S
C2091 H2061 0.950 . S
C2091 C2086 1.363 . S
C2091 C2090 1.415 . S
H2092 C2089 0.999 . S
H2093 C2074 0.913 . S
H2094 C2112 0.951 . S
H2095 C2114 0.951 . S
H2096 C2116 0.950 . S
H2097 C2117 0.950 . S
H2098 C2119 0.950 . S
H2099 C2122 0.950 . S
H2100 C2123 0.950 . S
H2101 C2125 0.950 . S
H2102 C2126 0.950 . S
H2103 C2127 0.951 . S
H2104 C2129 0.951 . S
H2105 C2131 0.950 . S
H2106 C2132 0.950 . S
H2107 C2134 0.950 . S
H2108 C2137 0.950 . S
H2109 C2138 0.950 . S
H2110 C2140 0.950 . S
H2111 C2141 0.950 . S
C2112 H2094 0.951 . S
C2112 C2113 1.366 . S
C2112 C2114 1.388 . S
C2113 C2112 1.366 . S
C2113 C2117 1.385 . S
C2114 H2095 0.951 . S
C2114 C2112 1.388 . S
C2114 C2115 1.366 . S
C2115 C2114 1.366 . S
C2115 C2116 1.414 . S
C2115 C2118 1.499 . S
C2116 H2096 0.950 . S
C2116 C2115 1.414 . S
C2116 C2117 1.374 . S
C2117 H2097 0.950 . S
C2117 C2113 1.385 . S
C2117 C2116 1.374 . S
C2118 C2115 1.499 . S
C2118 C2119 1.373 1_455 S
C2118 C2120 1.389 . S
C2119 H2098 0.950 . S
C2119 C2118 1.373 1_655 S
C2119 C2135 1.377 . S
C2120 C2118 1.389 . S
C2120 C2121 1.524 . S
C2120 C2134 1.377 . S
C2121 C2120 1.524 . S
C2121 C2122 1.397 . S
C2121 C2126 1.363 . S
C2122 H2099 0.950 . S
C2122 C2121 1.397 . S
C2122 C2123 1.334 . S
C2123 H2100 0.950 . S
C2123 C2122 1.334 . S
C2123 C2124 1.287 . S
C2124 C2123 1.287 . S
C2124 C2125 1.524 . S
C2124 H2143 0.913 . S
C2125 H2101 0.950 . S
C2125 C2124 1.524 . S
C2125 C2126 1.415 . S
C2126 H2102 0.950 . S
C2126 C2121 1.363 . S
C2126 C2125 1.415 . S
C2127 H2103 0.951 . S
C2127 C2128 1.366 . S
C2127 C2129 1.388 . S
C2128 C2127 1.366 . S
C2128 C2132 1.385 . S
C2129 H2104 0.951 . S
C2129 C2127 1.388 . S
C2129 C2130 1.366 . S
C2130 C2129 1.366 . S
C2130 C2131 1.414 . S
C2130 C2133 1.499 . S
C2131 H2105 0.950 . S
C2131 C2130 1.414 . S
C2131 C2132 1.374 . S
C2132 H2106 0.950 . S
C2132 C2128 1.385 . S
C2132 C2131 1.374 . S
C2133 C2130 1.499 . S
C2133 C2134 1.373 1_655 S
C2133 C2135 1.389 . S
C2134 H2107 0.950 . S
C2134 C2120 1.377 . S
C2134 C2133 1.373 1_455 S
C2135 C2119 1.377 . S
C2135 C2133 1.389 . S
C2135 C2136 1.524 . S
C2136 C2135 1.524 . S
C2136 C2137 1.397 . S
C2136 C2141 1.363 . S
C2137 H2108 0.950 . S
C2137 C2136 1.397 . S
C2137 C2138 1.334 . S
C2138 H2109 0.950 . S
C2138 C2137 1.334 . S
C2138 C2139 1.287 . S
C2139 C2138 1.287 . S
C2139 C2140 1.524 . S
C2139 H2142 0.999 . S
C2140 H2110 0.950 . S
C2140 C2139 1.524 . S
C2140 C2141 1.415 . S
C2141 H2111 0.950 . S
C2141 C2136 1.363 . S
C2141 C2140 1.415 . S
H2142 C2139 0.999 . S
H2143 C2124 0.913 . S
H2144 C2162 0.951 . S
H2145 C2164 0.951 . S
H2146 C2166 0.950 . S
H2147 C2167 0.950 . S
H2148 C2169 0.950 . S
H2149 C2172 0.950 . S
H2150 C2173 0.950 . S
H2151 C2175 0.950 . S
H2152 C2176 0.950 . S
H2153 C2177 0.951 . S
H2154 C2179 0.951 . S
H2155 C2181 0.950 . S
H2156 C2182 0.950 . S
H2157 C2184 0.950 . S
H2158 C2187 0.950 . S
H2159 C2188 0.950 . S
H2160 C2190 0.950 . S
H2161 C2191 0.950 . S
C2162 H2144 0.951 . S
C2162 C2163 1.366 . S
C2162 C2164 1.388 . S
C2163 C2162 1.366 . S
C2163 C2167 1.385 . S
C2164 H2145 0.951 . S
C2164 C2162 1.388 . S
C2164 C2165 1.366 . S
C2165 C2164 1.366 . S
C2165 C2166 1.414 . S
C2165 C2168 1.499 . S
C2166 H2146 0.950 . S
C2166 C2165 1.414 . S
C2166 C2167 1.374 . S
C2167 H2147 0.950 . S
C2167 C2163 1.385 . S
C2167 C2166 1.374 . S
C2168 C2165 1.499 . S
C2168 C2169 1.373 . S
C2168 C2170 1.389 1_455 S
C2169 H2148 0.950 . S
C2169 C2168 1.373 . S
C2169 C2185 1.377 . S
C2170 C2168 1.389 1_655 S
C2170 C2171 1.524 . S
C2170 C2184 1.377 . S
C2171 C2170 1.524 . S
C2171 C2172 1.397 1_655 S
C2171 C2176 1.363 . S
C2172 H2149 0.950 . S
C2172 C2171 1.397 1_455 S
C2172 C2173 1.334 . S
C2173 H2150 0.950 . S
C2173 C2172 1.334 . S
C2173 C2174 1.287 1_455 S
C2174 C2173 1.287 1_655 S
C2174 C2175 1.524 . S
C2174 H2193 0.913 . S
C2175 H2151 0.950 . S
C2175 C2174 1.524 . S
C2175 C2176 1.415 . S
C2176 H2152 0.950 . S
C2176 C2171 1.363 . S
C2176 C2175 1.415 . S
C2177 H2153 0.951 . S
C2177 C2178 1.366 . S
C2177 C2179 1.388 . S
C2178 C2177 1.366 . S
C2178 C2182 1.385 . S
C2179 H2154 0.951 . S
C2179 C2177 1.388 . S
C2179 C2180 1.366 . S
C2180 C2179 1.366 . S
C2180 C2181 1.414 . S
C2180 C2183 1.499 . S
C2181 H2155 0.950 . S
C2181 C2180 1.414 . S
C2181 C2182 1.374 . S
C2182 H2156 0.950 . S
C2182 C2178 1.385 . S
C2182 C2181 1.374 . S
C2183 C2180 1.499 . S
C2183 C2184 1.373 . S
C2183 C2185 1.389 1_655 S
C2184 H2157 0.950 . S
C2184 C2170 1.377 . S
C2184 C2183 1.373 . S
C2185 C2169 1.377 . S
C2185 C2183 1.389 1_455 S
C2185 C2186 1.524 . S
C2186 C2185 1.524 . S
C2186 C2187 1.397 1_455 S
C2186 C2191 1.363 . S
C2187 H2158 0.950 . S
C2187 C2186 1.397 1_655 S
C2187 C2188 1.334 . S
C2188 H2159 0.950 . S
C2188 C2187 1.334 . S
C2188 C2189 1.287 1_655 S
C2189 C2188 1.287 1_455 S
C2189 C2190 1.524 . S
C2189 H2192 0.999 . S
C2190 H2160 0.950 . S
C2190 C2189 1.524 . S
C2190 C2191 1.415 . S
C2191 H2161 0.950 . S
C2191 C2186 1.363 . S
C2191 C2190 1.415 . S
H2192 C2189 0.999 . S
H2193 C2174 0.913 . S
H2194 C2212 0.951 . S
H2195 C2214 0.951 . S
H2196 C2216 0.950 . S
H2197 C2217 0.950 . S
H2198 C2219 0.950 . S
H2199 C2222 0.950 . S
H2200 C2223 0.950 . S
H2201 C2225 0.950 . S
H2202 C2226 0.950 . S
H2203 C2227 0.951 . S
H2204 C2229 0.951 . S
H2205 C2231 0.950 . S
H2206 C2232 0.950 . S
H2207 C2234 0.950 . S
H2208 C2237 0.950 . S
H2209 C2238 0.950 . S
H2210 C2240 0.950 . S
H2211 C2241 0.950 . S
C2212 H2194 0.951 . S
C2212 C2213 1.366 . S
C2212 C2214 1.388 . S
C2213 C2212 1.366 . S
C2213 C2217 1.385 . S
C2214 H2195 0.951 . S
C2214 C2212 1.388 . S
C2214 C2215 1.366 . S
C2215 C2214 1.366 . S
C2215 C2216 1.414 . S
C2215 C2218 1.499 . S
C2216 H2196 0.950 . S
C2216 C2215 1.414 . S
C2216 C2217 1.374 . S
C2217 H2197 0.950 . S
C2217 C2213 1.385 . S
C2217 C2216 1.374 . S
C2218 C2215 1.499 . S
C2218 C2219 1.373 . S
C2218 C2220 1.389 . S
C2219 H2198 0.950 . S
C2219 C2218 1.373 . S
C2219 C2235 1.377 . S
C2220 C2218 1.389 . S
C2220 C2221 1.524 . S
C2220 C2234 1.377 . S
C2221 C2220 1.524 . S
C2221 C2222 1.397 . S
C2221 C2226 1.363 . S
C2222 H2199 0.950 . S
C2222 C2221 1.397 . S
C2222 C2223 1.334 . S
C2223 H2200 0.950 . S
C2223 C2222 1.334 . S
C2223 C2224 1.287 . S
C2224 C2223 1.287 . S
C2224 C2225 1.524 . S
C2224 H2243 0.913 . S
C2225 H2201 0.950 . S
C2225 C2224 1.524 . S
C2225 C2226 1.415 . S
C2226 H2202 0.950 . S
C2226 C2221 1.363 . S
C2226 C2225 1.415 . S
C2227 H2203 0.951 . S
C2227 C2228 1.366 . S
C2227 C2229 1.388 . S
C2228 C2227 1.366 . S
C2228 C2232 1.385 . S
C2229 H2204 0.951 . S
C2229 C2227 1.388 . S
C2229 C2230 1.366 . S
C2230 C2229 1.366 . S
C2230 C2231 1.414 . S
C2230 C2233 1.499 . S
C2231 H2205 0.950 . S
C2231 C2230 1.414 . S
C2231 C2232 1.374 . S
C2232 H2206 0.950 . S
C2232 C2228 1.385 . S
C2232 C2231 1.374 . S
C2233 C2230 1.499 . S
C2233 C2234 1.373 . S
C2233 C2235 1.389 . S
C2234 H2207 0.950 . S
C2234 C2220 1.377 . S
C2234 C2233 1.373 . S
C2235 C2219 1.377 . S
C2235 C2233 1.389 . S
C2235 C2236 1.524 . S
C2236 C2235 1.524 . S
C2236 C2237 1.397 . S
C2236 C2241 1.363 . S
C2237 H2208 0.950 . S
C2237 C2236 1.397 . S
C2237 C2238 1.334 . S
C2238 H2209 0.950 . S
C2238 C2237 1.334 . S
C2238 C2239 1.287 . S
C2239 C2238 1.287 . S
C2239 C2240 1.524 . S
C2239 H2242 0.999 . S
C2240 H2210 0.950 . S
C2240 C2239 1.524 . S
C2240 C2241 1.415 . S
C2241 H2211 0.950 . S
C2241 C2236 1.363 . S
C2241 C2240 1.415 . S
H2242 C2239 0.999 . S
H2243 C2224 0.913 . S
H2244 C2262 0.951 . S
H2245 C2264 0.951 . S
H2246 C2266 0.950 . S
H2247 C2267 0.950 . S
H2248 C2269 0.950 . S
H2249 C2272 0.950 . S
H2250 C2273 0.950 . S
H2251 C2275 0.950 . S
H2252 C2276 0.950 . S
H2253 C2277 0.951 . S
H2254 C2279 0.951 . S
H2255 C2281 0.950 . S
H2256 C2282 0.950 . S
H2257 C2284 0.950 . S
H2258 C2287 0.950 . S
H2259 C2288 0.950 . S
H2260 C2290 0.950 . S
H2261 C2291 0.950 . S
C2262 H2244 0.951 . S
C2262 C2263 1.366 . S
C2262 C2264 1.388 . S
C2263 C2262 1.366 . S
C2263 C2267 1.385 . S
C2264 H2245 0.951 . S
C2264 C2262 1.388 . S
C2264 C2265 1.366 . S
C2265 C2264 1.366 . S
C2265 C2266 1.414 . S
C2265 C2268 1.499 . S
C2266 H2246 0.950 . S
C2266 C2265 1.414 . S
C2266 C2267 1.374 . S
C2267 H2247 0.950 . S
C2267 C2263 1.385 . S
C2267 C2266 1.374 . S
C2268 C2265 1.499 . S
C2268 C2269 1.373 . S
C2268 C2270 1.389 . S
C2269 H2248 0.950 . S
C2269 C2268 1.373 . S
C2269 C2285 1.377 . S
C2270 C2268 1.389 . S
C2270 C2271 1.524 . S
C2270 C2284 1.377 . S
C2271 C2270 1.524 . S
C2271 C2272 1.397 . S
C2271 C2276 1.363 . S
C2272 H2249 0.950 . S
C2272 C2271 1.397 . S
C2272 C2273 1.334 . S
C2273 H2250 0.950 . S
C2273 C2272 1.334 . S
C2273 C2274 1.287 . S
C2274 C2273 1.287 . S
C2274 C2275 1.524 . S
C2274 H2293 0.913 . S
C2275 H2251 0.950 . S
C2275 C2274 1.524 . S
C2275 C2276 1.415 . S
C2276 H2252 0.950 . S
C2276 C2271 1.363 . S
C2276 C2275 1.415 . S
C2277 H2253 0.951 . S
C2277 C2278 1.366 . S
C2277 C2279 1.388 . S
C2278 C2277 1.366 . S
C2278 C2282 1.385 . S
C2279 H2254 0.951 . S
C2279 C2277 1.388 . S
C2279 C2280 1.366 . S
C2280 C2279 1.366 . S
C2280 C2281 1.414 . S
C2280 C2283 1.499 . S
C2281 H2255 0.950 . S
C2281 C2280 1.414 . S
C2281 C2282 1.374 . S
C2282 H2256 0.950 . S
C2282 C2278 1.385 . S
C2282 C2281 1.374 . S
C2283 C2280 1.499 . S
C2283 C2284 1.373 . S
C2283 C2285 1.389 . S
C2284 H2257 0.950 . S
C2284 C2270 1.377 . S
C2284 C2283 1.373 . S
C2285 C2269 1.377 . S
C2285 C2283 1.389 . S
C2285 C2286 1.524 . S
C2286 C2285 1.524 . S
C2286 C2287 1.397 . S
C2286 C2291 1.363 . S
C2287 H2258 0.950 . S
C2287 C2286 1.397 . S
C2287 C2288 1.334 . S
C2288 H2259 0.950 . S
C2288 C2287 1.334 . S
C2288 C2289 1.287 . S
C2289 C2288 1.287 . S
C2289 C2290 1.524 . S
C2289 H2292 0.999 . S
C2290 H2260 0.950 . S
C2290 C2289 1.524 . S
C2290 C2291 1.415 . S
C2291 H2261 0.950 . S
C2291 C2286 1.363 . S
C2291 C2290 1.415 . S
H2292 C2289 0.999 . S
H2293 C2274 0.913 . S
H2294 C2312 0.951 . S
H2295 C2314 0.951 . S
H2296 C2316 0.950 . S
H2297 C2317 0.950 . S
H2298 C2319 0.950 . S
H2299 C2322 0.950 . S
H2300 C2323 0.950 . S
H2301 C2325 0.950 . S
H2302 C2326 0.950 . S
H2303 C2327 0.951 . S
H2304 C2329 0.951 . S
H2305 C2331 0.950 . S
H2306 C2332 0.950 . S
H2307 C2334 0.950 . S
H2308 C2337 0.950 . S
H2309 C2338 0.950 . S
H2310 C2340 0.950 . S
H2311 C2341 0.950 . S
C2312 H2294 0.951 . S
C2312 C2313 1.366 . S
C2312 C2314 1.388 . S
C2313 C2312 1.366 . S
C2313 C2317 1.385 . S
C2314 H2295 0.951 . S
C2314 C2312 1.388 . S
C2314 C2315 1.366 . S
C2315 C2314 1.366 . S
C2315 C2316 1.414 . S
C2315 C2318 1.499 . S
C2316 H2296 0.950 . S
C2316 C2315 1.414 . S
C2316 C2317 1.374 . S
C2317 H2297 0.950 . S
C2317 C2313 1.385 . S
C2317 C2316 1.374 . S
C2318 C2315 1.499 . S
C2318 C2319 1.373 . S
C2318 C2320 1.389 1_545 S
C2319 H2298 0.950 . S
C2319 C2318 1.373 . S
C2319 C2335 1.377 1_545 S
C2320 C2318 1.389 1_565 S
C2320 C2321 1.524 . S
C2320 C2334 1.377 . S
C2321 C2320 1.524 . S
C2321 C2322 1.397 . S
C2321 C2326 1.363 . S
C2322 H2299 0.950 . S
C2322 C2321 1.397 . S
C2322 C2323 1.334 . S
C2323 H2300 0.950 . S
C2323 C2322 1.334 . S
C2323 C2324 1.287 . S
C2324 C2323 1.287 . S
C2324 C2325 1.524 . S
C2324 H2343 0.913 . S
C2325 H2301 0.950 . S
C2325 C2324 1.524 . S
C2325 C2326 1.415 . S
C2326 H2302 0.950 . S
C2326 C2321 1.363 . S
C2326 C2325 1.415 . S
C2327 H2303 0.951 . S
C2327 C2328 1.366 . S
C2327 C2329 1.388 . S
C2328 C2327 1.366 . S
C2328 C2332 1.385 . S
C2329 H2304 0.951 . S
C2329 C2327 1.388 . S
C2329 C2330 1.366 . S
C2330 C2329 1.366 . S
C2330 C2331 1.414 . S
C2330 C2333 1.499 . S
C2331 H2305 0.950 . S
C2331 C2330 1.414 . S
C2331 C2332 1.374 . S
C2332 H2306 0.950 . S
C2332 C2328 1.385 . S
C2332 C2331 1.374 . S
C2333 C2330 1.499 . S
C2333 C2334 1.373 . S
C2333 C2335 1.389 . S
C2334 H2307 0.950 . S
C2334 C2320 1.377 . S
C2334 C2333 1.373 . S
C2335 C2319 1.377 1_565 S
C2335 C2333 1.389 . S
C2335 C2336 1.524 . S
C2336 C2335 1.524 . S
C2336 C2337 1.397 . S
C2336 C2341 1.363 1_565 S
C2337 H2308 0.950 . S
C2337 C2336 1.397 . S
C2337 C2338 1.334 . S
C2338 H2309 0.950 . S
C2338 C2337 1.334 . S
C2338 C2339 1.287 1_565 S
C2339 C2338 1.287 1_545 S
C2339 C2340 1.524 . S
C2339 H2342 0.999 . S
C2340 H2310 0.950 . S
C2340 C2339 1.524 . S
C2340 C2341 1.415 . S
C2341 H2311 0.950 . S
C2341 C2336 1.363 1_545 S
C2341 C2340 1.415 . S
H2342 C2339 0.999 . S
H2343 C2324 0.913 . S
H2344 C2362 0.951 . S
H2345 C2364 0.951 . S
H2346 C2366 0.950 . S
H2347 C2367 0.950 . S
H2348 C2369 0.950 . S
H2349 C2372 0.950 . S
H2350 C2373 0.950 . S
H2351 C2375 0.950 . S
H2352 C2376 0.950 . S
H2353 C2377 0.951 . S
H2354 C2379 0.951 . S
H2355 C2381 0.950 . S
H2356 C2382 0.950 . S
H2357 C2384 0.950 . S
H2358 C2387 0.950 . S
H2359 C2388 0.950 . S
H2360 C2390 0.950 . S
H2361 C2391 0.950 . S
C2362 H2344 0.951 . S
C2362 C2363 1.366 . S
C2362 C2364 1.388 . S
C2363 C2362 1.366 . S
C2363 C2367 1.385 . S
C2364 H2345 0.951 . S
C2364 C2362 1.388 . S
C2364 C2365 1.366 . S
C2365 C2364 1.366 . S
C2365 C2366 1.414 . S
C2365 C2368 1.499 . S
C2366 H2346 0.950 . S
C2366 C2365 1.414 . S
C2366 C2367 1.374 . S
C2367 H2347 0.950 . S
C2367 C2363 1.385 . S
C2367 C2366 1.374 . S
C2368 C2365 1.499 . S
C2368 C2369 1.373 . S
C2368 C2370 1.389 . S
C2369 H2348 0.950 . S
C2369 C2368 1.373 . S
C2369 C2385 1.377 . S
C2370 C2368 1.389 . S
C2370 C2371 1.524 . S
C2370 C2384 1.377 . S
C2371 C2370 1.524 . S
C2371 C2372 1.397 . S
C2371 C2376 1.363 . S
C2372 H2349 0.950 . S
C2372 C2371 1.397 . S
C2372 C2373 1.334 . S
C2373 H2350 0.950 . S
C2373 C2372 1.334 . S
C2373 C2374 1.287 . S
C2374 C2373 1.287 . S
C2374 C2375 1.524 . S
C2374 H2393 0.913 . S
C2375 H2351 0.950 . S
C2375 C2374 1.524 . S
C2375 C2376 1.415 . S
C2376 H2352 0.950 . S
C2376 C2371 1.363 . S
C2376 C2375 1.415 . S
C2377 H2353 0.951 . S
C2377 C2378 1.366 . S
C2377 C2379 1.388 . S
C2378 C2377 1.366 . S
C2378 C2382 1.385 . S
C2379 H2354 0.951 . S
C2379 C2377 1.388 . S
C2379 C2380 1.366 . S
C2380 C2379 1.366 . S
C2380 C2381 1.414 . S
C2380 C2383 1.499 . S
C2381 H2355 0.950 . S
C2381 C2380 1.414 . S
C2381 C2382 1.374 . S
C2382 H2356 0.950 . S
C2382 C2378 1.385 . S
C2382 C2381 1.374 . S
C2383 C2380 1.499 . S
C2383 C2384 1.373 . S
C2383 C2385 1.389 . S
C2384 H2357 0.950 . S
C2384 C2370 1.377 . S
C2384 C2383 1.373 . S
C2385 C2369 1.377 . S
C2385 C2383 1.389 . S
C2385 C2386 1.524 . S
C2386 C2385 1.524 . S
C2386 C2387 1.397 . S
C2386 C2391 1.363 . S
C2387 H2358 0.950 . S
C2387 C2386 1.397 . S
C2387 C2388 1.334 . S
C2388 H2359 0.950 . S
C2388 C2387 1.334 . S
C2388 C2389 1.287 . S
C2389 C2388 1.287 . S
C2389 C2390 1.524 . S
C2389 H2392 0.999 . S
C2390 H2360 0.950 . S
C2390 C2389 1.524 . S
C2390 C2391 1.415 . S
C2391 H2361 0.950 . S
C2391 C2386 1.363 . S
C2391 C2390 1.415 . S
H2392 C2389 0.999 . S
H2393 C2374 0.913 . S
H2394 C2412 0.951 . S
H2395 C2414 0.951 . S
H2396 C2416 0.950 . S
H2397 C2417 0.950 . S
H2398 C2419 0.950 . S
H2399 C2422 0.950 . S
H2400 C2423 0.950 . S
H2401 C2425 0.950 . S
H2402 C2426 0.950 . S
H2403 C2427 0.951 . S
H2404 C2429 0.951 . S
H2405 C2431 0.950 . S
H2406 C2432 0.950 . S
H2407 C2434 0.950 . S
H2408 C2437 0.950 . S
H2409 C2438 0.950 . S
H2410 C2440 0.950 . S
H2411 C2441 0.950 . S
C2412 H2394 0.951 . S
C2412 C2413 1.366 . S
C2412 C2414 1.388 . S
C2413 C2412 1.366 . S
C2413 C2417 1.385 . S
C2414 H2395 0.951 . S
C2414 C2412 1.388 . S
C2414 C2415 1.366 . S
C2415 C2414 1.366 . S
C2415 C2416 1.414 . S
C2415 C2418 1.499 . S
C2416 H2396 0.950 . S
C2416 C2415 1.414 . S
C2416 C2417 1.374 . S
C2417 H2397 0.950 . S
C2417 C2413 1.385 . S
C2417 C2416 1.374 . S
C2418 C2415 1.499 . S
C2418 C2419 1.373 . S
C2418 C2420 1.389 . S
C2419 H2398 0.950 . S
C2419 C2418 1.373 . S
C2419 C2435 1.377 . S
C2420 C2418 1.389 . S
C2420 C2421 1.524 . S
C2420 C2434 1.377 . S
C2421 C2420 1.524 . S
C2421 C2422 1.397 . S
C2421 C2426 1.363 . S
C2422 H2399 0.950 . S
C2422 C2421 1.397 . S
C2422 C2423 1.334 . S
C2423 H2400 0.950 . S
C2423 C2422 1.334 . S
C2423 C2424 1.287 . S
C2424 C2423 1.287 . S
C2424 C2425 1.524 . S
C2424 H2443 0.913 . S
C2425 H2401 0.950 . S
C2425 C2424 1.524 . S
C2425 C2426 1.415 . S
C2426 H2402 0.950 . S
C2426 C2421 1.363 . S
C2426 C2425 1.415 . S
C2427 H2403 0.951 . S
C2427 C2428 1.366 . S
C2427 C2429 1.388 . S
C2428 C2427 1.366 . S
C2428 C2432 1.385 . S
C2429 H2404 0.951 . S
C2429 C2427 1.388 . S
C2429 C2430 1.366 . S
C2430 C2429 1.366 . S
C2430 C2431 1.414 . S
C2430 C2433 1.499 . S
C2431 H2405 0.950 . S
C2431 C2430 1.414 . S
C2431 C2432 1.374 . S
C2432 H2406 0.950 . S
C2432 C2428 1.385 . S
C2432 C2431 1.374 . S
C2433 C2430 1.499 . S
C2433 C2434 1.373 . S
C2433 C2435 1.389 . S
C2434 H2407 0.950 . S
C2434 C2420 1.377 . S
C2434 C2433 1.373 . S
C2435 C2419 1.377 . S
C2435 C2433 1.389 . S
C2435 C2436 1.524 . S
C2436 C2435 1.524 . S
C2436 C2437 1.397 . S
C2436 C2441 1.363 . S
C2437 H2408 0.950 . S
C2437 C2436 1.397 . S
C2437 C2438 1.334 . S
C2438 H2409 0.950 . S
C2438 C2437 1.334 . S
C2438 C2439 1.287 . S
C2439 C2438 1.287 . S
C2439 C2440 1.524 . S
C2439 H2442 0.999 . S
C2440 H2410 0.950 . S
C2440 C2439 1.524 . S
C2440 C2441 1.415 . S
C2441 H2411 0.950 . S
C2441 C2436 1.363 . S
C2441 C2440 1.415 . S
H2442 C2439 0.999 . S
H2443 C2424 0.913 . S
H2444 C2462 0.951 . S
H2445 C2464 0.951 . S
H2446 C2466 0.950 . S
H2447 C2467 0.950 . S
H2448 C2469 0.958 . S
H2449 C2472 0.950 . S
H2450 C2473 0.950 . S
H2451 C2475 0.950 . S
H2452 C2476 0.950 . S
H2453 C2477 0.951 . S
H2454 C2479 0.951 . S
H2455 C2481 0.950 . S
H2456 C2482 0.950 . S
H2457 C2484 0.950 . S
H2458 C2487 0.950 . S
H2459 C2488 0.950 . S
H2460 C2490 0.950 . S
H2461 C2491 0.950 . S
C2462 H2444 0.951 . S
C2462 C2463 1.366 . S
C2462 C2464 1.388 . S
C2463 C2462 1.366 . S
C2463 C2467 1.385 . S
C2464 H2445 0.951 . S
C2464 C2462 1.388 . S
C2464 C2465 1.366 . S
C2465 C2464 1.366 . S
C2465 C2466 1.414 . S
C2465 C2468 1.499 . S
C2466 H2446 0.950 . S
C2466 C2465 1.414 . S
C2466 C2467 1.374 . S
C2467 H2447 0.950 . S
C2467 C2463 1.385 . S
C2467 C2466 1.374 . S
C2468 C2465 1.499 . S
C2468 C2469 1.324 1_545 S
C2468 C2470 1.389 . S
C2469 H2448 0.958 . S
C2469 C2468 1.324 1_565 S
C2469 C2485 1.419 . S
C2470 C2468 1.389 . S
C2470 C2471 1.524 . S
C2470 C2484 1.377 . S
C2471 C2470 1.524 . S
C2471 C2472 1.397 . S
C2471 C2476 1.363 . S
C2472 H2449 0.950 . S
C2472 C2471 1.397 . S
C2472 C2473 1.334 . S
C2473 H2450 0.950 . S
C2473 C2472 1.334 . S
C2473 C2474 1.287 . S
C2474 C2473 1.287 . S
C2474 C2475 1.524 . S
C2474 H2493 0.913 . S
C2475 H2451 0.950 . S
C2475 C2474 1.524 . S
C2475 C2476 1.415 . S
C2476 H2452 0.950 . S
C2476 C2471 1.363 . S
C2476 C2475 1.415 . S
C2477 H2453 0.951 . S
C2477 C2478 1.366 . S
C2477 C2479 1.388 . S
C2478 C2477 1.366 . S
C2478 C2482 1.385 . S
C2479 H2454 0.951 . S
C2479 C2477 1.388 . S
C2479 C2480 1.366 . S
C2480 C2479 1.366 . S
C2480 C2481 1.414 . S
C2480 C2483 1.499 . S
C2481 H2455 0.950 . S
C2481 C2480 1.414 . S
C2481 C2482 1.374 . S
C2482 H2456 0.950 . S
C2482 C2478 1.385 . S
C2482 C2481 1.374 . S
C2483 C2480 1.499 . S
C2483 C2484 1.373 1_565 S
C2483 C2485 1.389 . S
C2484 H2457 0.950 . S
C2484 C2470 1.377 . S
C2484 C2483 1.373 1_545 S
C2485 C2469 1.419 . S
C2485 C2483 1.389 . S
C2485 C2486 1.524 . S
C2486 C2485 1.524 . S
C2486 C2487 1.397 . S
C2486 C2491 1.363 . S
C2487 H2458 0.950 . S
C2487 C2486 1.397 . S
C2487 C2488 1.334 . S
C2488 H2459 0.950 . S
C2488 C2487 1.334 . S
C2488 C2489 1.287 . S
C2489 C2488 1.287 . S
C2489 C2490 1.524 . S
C2489 H2492 0.999 . S
C2490 H2460 0.950 . S
C2490 C2489 1.524 . S
C2490 C2491 1.415 . S
C2491 H2461 0.950 . S
C2491 C2486 1.363 . S
C2491 C2490 1.415 . S
H2492 C2489 0.999 . S
H2493 C2474 0.913 . S
H2494 C2512 0.951 . S
H2495 C2514 0.951 . S
H2496 C2516 0.950 . S
H2497 C2517 0.950 . S
H2498 C2519 0.950 . S
H2499 C2522 0.950 . S
H2500 C2523 0.950 . S
H2501 C2525 0.950 . S
H2502 C2526 0.950 . S
H2503 C2527 0.951 . S
H2504 C2529 0.951 . S
H2505 C2531 0.950 . S
H2506 C2532 0.950 . S
H2507 C2534 0.950 . S
H2508 C2537 0.950 . S
H2509 C2538 0.950 . S
H2510 C2540 0.950 . S
H2511 C2541 0.950 . S
C2512 H2494 0.951 . S
C2512 C2513 1.366 . S
C2512 C2514 1.388 . S
C2513 C2512 1.366 . S
C2513 C2517 1.385 . S
C2514 H2495 0.951 . S
C2514 C2512 1.388 . S
C2514 C2515 1.366 . S
C2515 C2514 1.366 . S
C2515 C2516 1.414 . S
C2515 C2518 1.499 . S
C2516 H2496 0.950 . S
C2516 C2515 1.414 . S
C2516 C2517 1.374 . S
C2517 H2497 0.950 . S
C2517 C2513 1.385 . S
C2517 C2516 1.374 . S
C2518 C2515 1.499 . S
C2518 C2519 1.373 . S
C2518 C2520 1.389 . S
C2519 H2498 0.950 . S
C2519 C2518 1.373 . S
C2519 C2535 1.377 . S
C2520 C2518 1.389 . S
C2520 C2521 1.524 . S
C2520 C2534 1.377 . S
C2521 C2520 1.524 . S
C2521 C2522 1.397 . S
C2521 C2526 1.363 . S
C2522 H2499 0.950 . S
C2522 C2521 1.397 . S
C2522 C2523 1.334 . S
C2523 H2500 0.950 . S
C2523 C2522 1.334 . S
C2523 C2524 1.287 . S
C2524 C2523 1.287 . S
C2524 C2525 1.524 . S
C2524 H2543 0.913 . S
C2525 H2501 0.950 . S
C2525 C2524 1.524 . S
C2525 C2526 1.415 . S
C2526 H2502 0.950 . S
C2526 C2521 1.363 . S
C2526 C2525 1.415 . S
C2527 H2503 0.951 . S
C2527 C2528 1.366 . S
C2527 C2529 1.388 . S
C2528 C2527 1.366 . S
C2528 C2532 1.385 . S
C2529 H2504 0.951 . S
C2529 C2527 1.388 . S
C2529 C2530 1.366 . S
C2530 C2529 1.366 . S
C2530 C2531 1.414 . S
C2530 C2533 1.499 . S
C2531 H2505 0.950 . S
C2531 C2530 1.414 . S
C2531 C2532 1.374 . S
C2532 H2506 0.950 . S
C2532 C2528 1.385 . S
C2532 C2531 1.374 . S
C2533 C2530 1.499 . S
C2533 C2534 1.373 . S
C2533 C2535 1.389 . S
C2534 H2507 0.950 . S
C2534 C2520 1.377 . S
C2534 C2533 1.373 . S
C2535 C2519 1.377 . S
C2535 C2533 1.389 . S
C2535 C2536 1.524 . S
C2536 C2535 1.524 . S
C2536 C2537 1.397 . S
C2536 C2541 1.363 . S
C2537 H2508 0.950 . S
C2537 C2536 1.397 . S
C2537 C2538 1.334 . S
C2538 H2509 0.950 . S
C2538 C2537 1.334 . S
C2538 C2539 1.287 . S
C2539 C2538 1.287 . S
C2539 C2540 1.524 . S
C2539 H2542 0.999 . S
C2540 H2510 0.950 . S
C2540 C2539 1.524 . S
C2540 C2541 1.415 . S
C2541 H2511 0.950 . S
C2541 C2536 1.363 . S
C2541 C2540 1.415 . S
H2542 C2539 0.999 . S
H2543 C2524 0.913 . S
C963 C52 1.510 . S
C978 C819 1.493 . S
C1013 C111 1.510 . S
C1028 C583 1.493 . S
C1063 C878 0.833 . S
C1078 C170 0.829 . S
C1113 C229 0.829 . S
C1128 C937 0.833 . S
C1163 C288 1.510 . S
C1178 C406 1.493 . S
C1213 C642 1.509 . S
C1228 C347 1.493 . S
C1263 C701 0.830 . S
C1278 C465 0.833 . S
C1313 C524 0.833 . S
C1328 C760 0.830 . S
C1363 C121 1.479 . S
C1378 C3 1.486 . S
C1413 C62 1.486 . S
C1428 C180 1.479 . S
C1463 C713 1.510 . S
C1478 C5 1.542 . S
C1513 C64 1.542 . S
C1528 C654 1.510 . S
C1563 C241 1.542 . S
C1578 C123 1.510 . S
C1613 C595 1.542 . S
C1628 C182 1.510 . S
C1663 C92 2.358 . S
C1678 C33 2.359 . S
C1713 C210 1.598 . S
C1728 C151 1.598 . S
C1763 C623 2.358 . S
C1778 C269 2.358 . S
C1813 C418 1.911 . S
C1828 C328 1.926 . S
C1863 C387 1.926 . S
C1878 C477 1.911 . S
C1913 C888 1.637 . S
C1928 C300 1.668 . S
C1963 C359 1.668 . S
C1978 C829 1.637 . S
C2013 C536 1.668 . S
C2028 C416 1.637 . S
C2063 C475 1.638 . S
C2078 C772 1.668 . S
C2113 C357 1.046 . S
C2128 C298 1.047 . S
C2163 C505 1.921 . S
C2178 C446 1.921 . S
C2213 C534 1.046 . S
C2228 C770 1.045 . S
C2263 C593 1.486 . S
C2278 C652 1.480 . S
C2313 C711 1.479 . S
C2328 C239 1.486 . S
C2363 C741 1.598 . S
C2378 C682 1.598 . S
C2413 C831 1.911 . S
C2428 C800 1.926 . S
C2463 C564 1.926 . S
C2478 C890 1.912 . S
C2513 C918 1.921 . S
C2528 C859 1.921 . S
