# Generated by pormake.
# Topology zfx, (5)-cn, num edge types: 1
# Building blocks:
#     Node 0, Type 0, BuildingBlock: BEQFEK_clean_sbu_0, # of connection points: 5
#     Node 1, Type 0, BuildingBlock: BEQFEK_clean_sbu_0, # of connection points: 5
#     Node 2, Type 0, BuildingBlock: BEQFEK_clean_sbu_0, # of connection points: 5
#     Node 3, Type 0, BuildingBlock: BEQFEK_clean_sbu_0, # of connection points: 5
#     Node 4, Type 0, BuildingBlock: BEQFEK_clean_sbu_0, # of connection points: 5
#     Node 5, Type 0, BuildingBlock: BEQFEK_clean_sbu_0, # of connection points: 5
#     Node 6, Type 0, BuildingBlock: BEQFEK_clean_sbu_0, # of connection points: 5
#     Node 7, Type 0, BuildingBlock: BEQFEK_clean_sbu_0, # of connection points: 5
#     Node 8, Type 0, BuildingBlock: BEQFEK_clean_sbu_0, # of connection points: 5
#     Node 9, Type 0, BuildingBlock: BEQFEK_clean_sbu_0, # of connection points: 5
#     Node 10, Type 0, BuildingBlock: BEQFEK_clean_sbu_0, # of connection points: 5
#     Node 11, Type 0, BuildingBlock: BEQFEK_clean_sbu_0, # of connection points: 5
#     Node 12, Type 0, BuildingBlock: BEQFEK_clean_sbu_0, # of connection points: 5
#     Node 13, Type 0, BuildingBlock: BEQFEK_clean_sbu_0, # of connection points: 5
#     Node 14, Type 0, BuildingBlock: BEQFEK_clean_sbu_0, # of connection points: 5
#     Node 15, Type 0, BuildingBlock: BEQFEK_clean_sbu_0, # of connection points: 5
#     Edge 16, Type (0, 0), BuildingBlock: KIFKEQ_clean_linker_1, # of connection points: 2
#     Edge 17, Type (0, 0), BuildingBlock: KIFKEQ_clean_linker_1, # of connection points: 2
#     Edge 18, Type (0, 0), BuildingBlock: KIFKEQ_clean_linker_1, # of connection points: 2
#     Edge 19, Type (0, 0), BuildingBlock: KIFKEQ_clean_linker_1, # of connection points: 2
#     Edge 20, Type (0, 0), BuildingBlock: KIFKEQ_clean_linker_1, # of connection points: 2
#     Edge 21, Type (0, 0), BuildingBlock: KIFKEQ_clean_linker_1, # of connection points: 2
#     Edge 22, Type (0, 0), BuildingBlock: KIFKEQ_clean_linker_1, # of connection points: 2
#     Edge 23, Type (0, 0), BuildingBlock: KIFKEQ_clean_linker_1, # of connection points: 2
#     Edge 24, Type (0, 0), BuildingBlock: KIFKEQ_clean_linker_1, # of connection points: 2
#     Edge 25, Type (0, 0), BuildingBlock: KIFKEQ_clean_linker_1, # of connection points: 2
#     Edge 26, Type (0, 0), BuildingBlock: KIFKEQ_clean_linker_1, # of connection points: 2
#     Edge 27, Type (0, 0), BuildingBlock: KIFKEQ_clean_linker_1, # of connection points: 2
#     Edge 28, Type (0, 0), BuildingBlock: KIFKEQ_clean_linker_1, # of connection points: 2
#     Edge 29, Type (0, 0), BuildingBlock: KIFKEQ_clean_linker_1, # of connection points: 2
#     Edge 30, Type (0, 0), BuildingBlock: KIFKEQ_clean_linker_1, # of connection points: 2
#     Edge 31, Type (0, 0), BuildingBlock: KIFKEQ_clean_linker_1, # of connection points: 2
#     Edge 32, Type (0, 0), BuildingBlock: KIFKEQ_clean_linker_1, # of connection points: 2
#     Edge 33, Type (0, 0), BuildingBlock: KIFKEQ_clean_linker_1, # of connection points: 2
#     Edge 34, Type (0, 0), BuildingBlock: KIFKEQ_clean_linker_1, # of connection points: 2
#     Edge 35, Type (0, 0), BuildingBlock: KIFKEQ_clean_linker_1, # of connection points: 2
#     Edge 36, Type (0, 0), BuildingBlock: KIFKEQ_clean_linker_1, # of connection points: 2
#     Edge 37, Type (0, 0), BuildingBlock: KIFKEQ_clean_linker_1, # of connection points: 2
#     Edge 38, Type (0, 0), BuildingBlock: KIFKEQ_clean_linker_1, # of connection points: 2
#     Edge 39, Type (0, 0), BuildingBlock: KIFKEQ_clean_linker_1, # of connection points: 2
#     Edge 40, Type (0, 0), BuildingBlock: KIFKEQ_clean_linker_1, # of connection points: 2
#     Edge 41, Type (0, 0), BuildingBlock: KIFKEQ_clean_linker_1, # of connection points: 2
#     Edge 42, Type (0, 0), BuildingBlock: KIFKEQ_clean_linker_1, # of connection points: 2
#     Edge 43, Type (0, 0), BuildingBlock: KIFKEQ_clean_linker_1, # of connection points: 2
#     Edge 44, Type (0, 0), BuildingBlock: KIFKEQ_clean_linker_1, # of connection points: 2
#     Edge 45, Type (0, 0), BuildingBlock: KIFKEQ_clean_linker_1, # of connection points: 2
#     Edge 46, Type (0, 0), BuildingBlock: KIFKEQ_clean_linker_1, # of connection points: 2
#     Edge 47, Type (0, 0), BuildingBlock: KIFKEQ_clean_linker_1, # of connection points: 2
#     Edge 48, Type (0, 0), BuildingBlock: KIFKEQ_clean_linker_1, # of connection points: 2
#     Edge 49, Type (0, 0), BuildingBlock: KIFKEQ_clean_linker_1, # of connection points: 2
#     Edge 50, Type (0, 0), BuildingBlock: KIFKEQ_clean_linker_1, # of connection points: 2
#     Edge 51, Type (0, 0), BuildingBlock: KIFKEQ_clean_linker_1, # of connection points: 2
#     Edge 52, Type (0, 0), BuildingBlock: KIFKEQ_clean_linker_1, # of connection points: 2
#     Edge 53, Type (0, 0), BuildingBlock: KIFKEQ_clean_linker_1, # of connection points: 2
#     Edge 54, Type (0, 0), BuildingBlock: KIFKEQ_clean_linker_1, # of connection points: 2
#     Edge 55, Type (0, 0), BuildingBlock: KIFKEQ_clean_linker_1, # of connection points: 2
# Relax obj value: 0.593
# Max RMSD: 0.175
# Mean RMSD: 0.175
data_MOF--net-zfx--node1-BEQFEK_clean_sbu_0--edge1-KIFKEQ_clean_linker_1
_symmetry_space_group_name_H-M    P1
_symmetry_Int_Tables_number       1
_symmetry_cell_setting            triclinic
loop_
_symmetry_equiv_pos_as_xyz
'x, y, z'
_cell_length_a     59.099599
_cell_length_b     59.089464
_cell_length_c     25.270421
_cell_angle_alpha  89.99335
_cell_angle_beta   89.992019
_cell_angle_gamma 90.025627
loop_
_atom_site_label
_atom_site_type_symbol
_atom_site_fract_x
_atom_site_fract_y
_atom_site_fract_z
_atom_type_partial_charge
Co0 Co 0.49631 0.12461 0.43101 0.0
Co1 Co 0.54254 0.11848 0.37804 0.0
C2 C 0.53949 0.14423 0.47968 0.0
O3 O 0.51808 0.14093 0.48033 0.0
O4 O 0.55157 0.1369 0.44136 0.0
C5 C 0.4538 0.14466 0.46727 0.0
O6 O 0.46211 0.16489 0.45778 0.0
C7 C 0.58682 0.12191 0.32262 0.0
C8 C 0.58345 0.09223 0.26983 0.0
C9 C 0.59777 0.10995 0.2826 0.0
N10 N 0.56687 0.11177 0.33208 0.0
N11 N 0.56516 0.09391 0.30092 0.0
C12 C 0.59524 0.14201 0.35277 0.0
H13 H 0.58962 0.14103 0.39452 0.0
H14 H 0.58801 0.15764 0.33526 0.0
H15 H 0.61399 0.14298 0.35161 0.0
C16 C 0.48426 0.14465 0.32559 0.0
N17 N 0.49873 0.13469 0.35983 0.0
N18 N 0.5187 0.1328 0.33737 0.0
C19 C 0.51764 0.14204 0.28832 0.0
C20 C 0.49574 0.15002 0.27926 0.0
C21 C 0.45946 0.1476 0.33513 0.0
H22 H 0.4529 0.13362 0.35998 0.0
H23 H 0.45653 0.16396 0.35545 0.0
H24 H 0.44999 0.14785 0.2972 0.0
O25 O 0.50035 0.09167 0.437 0.0
O26 O 0.53465 0.08766 0.40433 0.0
H27 H 0.54172 0.12738 0.23557 0.0
H28 H 0.53397 0.1561 0.219 0.0
C29 C 0.53751 0.14426 0.25205 0.0
H30 H 0.55238 0.15038 0.27463 0.0
H31 H 0.5512 0.08309 0.30016 0.0
O32 O 0.46563 0.12735 0.45748 0.0
C33 C 0.51719 0.0793 0.42602 0.0
Co34 Co 0.14045 0.22663 0.69125 0.0
Co35 Co 0.14808 0.2718 0.63514 0.0
C36 C 0.11823 0.26964 0.7312 0.0
O37 O 0.12125 0.24823 0.73449 0.0
O38 O 0.12758 0.28113 0.69436 0.0
C39 C 0.12204 0.18307 0.72886 0.0
O40 O 0.10131 0.18969 0.71819 0.0
C41 C 0.14438 0.31494 0.577 0.0
C42 C 0.17546 0.31265 0.52857 0.0
C43 C 0.15652 0.3259 0.53738 0.0
N44 N 0.15545 0.29589 0.58964 0.0
N45 N 0.17426 0.29492 0.56153 0.0
C46 C 0.12305 0.32251 0.60362 0.0
H47 H 0.10868 0.31202 0.58962 0.0
H48 H 0.11955 0.34063 0.59558 0.0
H49 H 0.12456 0.32 0.64695 0.0
C50 C 0.12331 0.21281 0.58428 0.0
N51 N 0.13294 0.2277 0.61801 0.0
N52 N 0.13513 0.24735 0.59419 0.0
C53 C 0.12632 0.24571 0.54482 0.0
C54 C 0.11831 0.22369 0.53688 0.0
C55 C 0.11987 0.18823 0.59596 0.0
H56 H 0.13358 0.1819 0.62191 0.0
H57 H 0.10336 0.1859 0.61601 0.0
H58 H 0.11973 0.17813 0.55893 0.0
O59 O 0.1728 0.23239 0.70513 0.0
O60 O 0.17832 0.2649 0.6651 0.0
H61 H 0.14093 0.27006 0.49256 0.0
H62 H 0.11265 0.26139 0.47411 0.0
C63 C 0.12397 0.26534 0.50784 0.0
H64 H 0.1171 0.28008 0.52961 0.0
H65 H 0.18589 0.28165 0.56347 0.0
O66 O 0.13847 0.19609 0.71901 0.0
C67 C 0.18576 0.2486 0.69258 0.0
Co68 Co 0.04256 0.87818 0.93987 0.0
Co69 Co 0.99813 0.88455 0.87991 0.0
C70 C 0.99842 0.85864 0.98221 0.0
O71 O 0.01984 0.8615 0.9857 0.0
O72 O 0.98738 0.86647 0.9427 0.0
C73 C 0.08434 0.85883 0.98201 0.0
O74 O 0.07646 0.83845 0.97237 0.0
C75 C 0.95443 0.88279 0.822 0.0
C76 C 0.96099 0.91015 0.76418 0.0
C77 C 0.94494 0.89443 0.77957 0.0
N78 N 0.97523 0.89122 0.83046 0.0
N79 N 0.97887 0.90771 0.79624 0.0
C80 C 0.94379 0.86488 0.85567 0.0
H81 H 0.94879 0.86723 0.89755 0.0
H82 H 0.94996 0.84803 0.84266 0.0
H83 H 0.92507 0.8654 0.85281 0.0
C84 C 0.05716 0.8573 0.83665 0.0
N85 N 0.04208 0.86787 0.86839 0.0
N86 N 0.02273 0.86982 0.84314 0.0
C87 C 0.02483 0.86009 0.79481 0.0
C88 C 0.04675 0.85168 0.78917 0.0
C89 C 0.08157 0.85365 0.84978 0.0
H90 H 0.08794 0.86765 0.87484 0.0
H91 H 0.08343 0.83738 0.87115 0.0
H92 H 0.09196 0.85273 0.81324 0.0
O93 O 0.03787 0.91113 0.94635 0.0
O94 O 0.00554 0.91557 0.90486 0.0
H95 H 0.003 0.87435 0.73646 0.0
H96 H 0.0098 0.84497 0.72524 0.0
C97 C 0.00587 0.85779 0.75599 0.0
H98 H 0.99011 0.85296 0.77697 0.0
H99 H 0.99379 0.91714 0.79443 0.0
O100 O 0.07258 0.87595 0.97021 0.0
C101 C 0.02192 0.9238 0.93089 0.0
Co102 Co 0.39542 0.76392 0.16792 0.0
Co103 Co 0.38364 0.7182 0.12038 0.0
C104 C 0.41295 0.71838 0.21331 0.0
O105 O 0.40964 0.73974 0.21419 0.0
O106 O 0.40506 0.70643 0.17549 0.0
C107 C 0.43137 0.79246 0.1847 0.0
O108 O 0.44212 0.77519 0.16369 0.0
C109 C 0.37843 0.67645 0.05686 0.0
C110 C 0.34177 0.67805 0.03973 0.0
C111 C 0.36112 0.66568 0.02918 0.0
N112 N 0.36963 0.69446 0.08177 0.0
N113 N 0.34763 0.69497 0.07239 0.0
C114 C 0.40321 0.67127 0.05568 0.0
H115 H 0.41304 0.68515 0.07433 0.0
H116 H 0.40895 0.66867 0.01431 0.0
H117 H 0.4064 0.65542 0.07801 0.0
C118 C 0.40981 0.77444 0.05818 0.0
N119 N 0.40097 0.76024 0.09459 0.0
N120 N 0.39772 0.74022 0.07321 0.0
C121 C 0.40534 0.74104 0.02243 0.0
C122 C 0.41347 0.76275 0.01172 0.0
C123 C 0.41384 0.79924 0.06607 0.0
H124 H 0.40264 0.80605 0.09742 0.0
H125 H 0.43182 0.80208 0.07676 0.0
H126 H 0.41062 0.8086 0.02873 0.0
O127 O 0.36292 0.76627 0.1835 0.0
O128 O 0.35677 0.73096 0.15885 0.0
H129 H 0.38905 0.71219 0.98808 0.0
H130 H 0.40757 0.72745 0.94342 0.0
C131 C 0.40522 0.72157 0.98479 0.0
H132 H 0.41932 0.71 0.99493 0.0
H133 H 0.33671 0.70749 0.08626 0.0
O134 O 0.41004 0.79154 0.18981 0.0
C135 C 0.34988 0.7493 0.17968 0.0
Co136 Co 0.49913 0.87356 0.5751 0.0
Co137 Co 0.54337 0.88466 0.63067 0.0
C138 C 0.54589 0.85609 0.53666 0.0
O139 O 0.5246 0.85935 0.53313 0.0
O140 O 0.557 0.86406 0.57586 0.0
C141 C 0.47449 0.842 0.52497 0.0
O142 O 0.4894 0.82855 0.54732 0.0
C143 C 0.58311 0.89071 0.70157 0.0
C144 C 0.57948 0.92724 0.71895 0.0
C145 C 0.59253 0.90847 0.73046 0.0
N146 N 0.56525 0.89878 0.67472 0.0
N147 N 0.56347 0.92067 0.68466 0.0
C148 C 0.58944 0.86621 0.7029 0.0
H149 H 0.57627 0.85579 0.68322 0.0
H150 H 0.59177 0.86052 0.74441 0.0
H151 H 0.60567 0.8638 0.68158 0.0
C152 C 0.48563 0.85574 0.67937 0.0
N153 N 0.50055 0.86618 0.64728 0.0
N154 N 0.51964 0.86985 0.67255 0.0
C155 C 0.51741 0.86132 0.72223 0.0
C156 C 0.49574 0.85206 0.72822 0.0
C157 C 0.46276 0.84784 0.66162 0.0
H158 H 0.46481 0.83267 0.6363 0.0
H159 H 0.45162 0.8432 0.69509 0.0
H160 H 0.45448 0.86127 0.63784 0.0
O161 O 0.49789 0.90635 0.56223 0.0
O162 O 0.53265 0.91181 0.59069 0.0
H163 H 0.54446 0.87846 0.76205 0.0
H164 H 0.52832 0.85937 0.8036 0.0
C165 C 0.53551 0.86199 0.76348 0.0
H166 H 0.54789 0.84833 0.75544 0.0
H167 H 0.55079 0.9311 0.66956 0.0
O168 O 0.47197 0.86172 0.54344 0.0
C169 C 0.51494 0.91908 0.56797 0.0
Co170 Co 0.3931 0.23022 0.81513 0.0
Co171 Co 0.38705 0.27545 0.87222 0.0
C172 C 0.41309 0.27374 0.77041 0.0
O173 O 0.40934 0.25245 0.76728 0.0
O174 O 0.40601 0.28515 0.81008 0.0
C175 C 0.41204 0.18767 0.77519 0.0
O176 O 0.43257 0.19517 0.78471 0.0
C177 C 0.39045 0.3196 0.92719 0.0
C178 C 0.36305 0.31503 0.98589 0.0
C179 C 0.37962 0.33005 0.96954 0.0
N180 N 0.38087 0.29923 0.91986 0.0
N181 N 0.36429 0.2968 0.95445 0.0
C182 C 0.40878 0.32894 0.89264 0.0
H183 H 0.40534 0.32457 0.85078 0.0
H184 H 0.42517 0.32115 0.90388 0.0
H185 H 0.40996 0.34762 0.8962 0.0
C186 C 0.4133 0.21655 0.91968 0.0
N187 N 0.40324 0.23148 0.88668 0.0
N188 N 0.4013 0.25108 0.91085 0.0
C189 C 0.41067 0.24936 0.95962 0.0
C190 C 0.4187 0.22736 0.9669 0.0
C191 C 0.41639 0.19192 0.90803 0.0
H192 H 0.40237 0.18567 0.8829 0.0
H193 H 0.43268 0.18943 0.88712 0.0
H194 H 0.41684 0.18187 0.94513 0.0
O195 O 0.36039 0.23486 0.80905 0.0
O196 O 0.35589 0.26809 0.84665 0.0
H197 H 0.39664 0.27202 0.01656 0.0
H198 H 0.42598 0.26515 0.02809 0.0
C199 C 0.41316 0.26877 0.99717 0.0
H200 H 0.41815 0.28422 0.97515 0.0
H201 H 0.35413 0.28241 0.95727 0.0
O202 O 0.39517 0.19988 0.78634 0.0
C203 C 0.34772 0.25114 0.82241 0.0
Co204 Co 0.03481 0.13187 0.06956 0.0
Co205 Co 0.98969 0.12041 0.12355 0.0
C206 C 0.99069 0.15245 0.03068 0.0
O207 O 0.01222 0.15035 0.02792 0.0
O208 O 0.97935 0.14206 0.06642 0.0
C209 C 0.07838 0.15322 0.03577 0.0
O210 O 0.0712 0.17392 0.04465 0.0
C211 C 0.94872 0.11963 0.19193 0.0
C212 C 0.94842 0.08326 0.21269 0.0
C213 C 0.93769 0.10357 0.22292 0.0
N214 N 0.96546 0.1092 0.16554 0.0
N215 N 0.96474 0.08739 0.17717 0.0
C216 C 0.94506 0.14468 0.19125 0.0
H217 H 0.95918 0.15334 0.17047 0.0
H218 H 0.94346 0.15123 0.23223 0.0
H219 H 0.92905 0.14843 0.1701 0.0
C220 C 0.04767 0.14644 0.17849 0.0
N221 N 0.03292 0.13737 0.14363 0.0
N222 N 0.01361 0.13321 0.1677 0.0
C223 C 0.01559 0.13985 0.219 0.0
C224 C 0.0372 0.14882 0.22727 0.0
C225 C 0.07186 0.15182 0.16644 0.0
H226 H 0.07911 0.13866 0.14027 0.0
H227 H 0.0728 0.1685 0.14654 0.0
H228 H 0.08214 0.15263 0.20315 0.0
O229 O 0.03181 0.0995 0.05165 0.0
O230 O 0.99906 0.09185 0.08832 0.0
H231 H 0.9877 0.12264 0.25532 0.0
H232 H 0.00314 0.14105 0.29955 0.0
C233 C 0.99681 0.13897 0.25858 0.0
H234 H 0.98484 0.15294 0.25034 0.0
H235 H 0.97619 0.07539 0.16314 0.0
O236 O 0.0654 0.13658 0.04413 0.0
C237 C 0.01607 0.08562 0.06155 0.0
Co238 Co 0.1438 0.77069 0.32686 0.0
Co239 Co 0.15299 0.72471 0.37818 0.0
C240 C 0.12245 0.7276 0.28346 0.0
O241 O 0.12642 0.74886 0.28061 0.0
O242 O 0.13073 0.71571 0.32112 0.0
C243 C 0.12243 0.81142 0.28552 0.0
O244 O 0.10316 0.80036 0.28329 0.0
C245 C 0.15186 0.6836 0.44543 0.0
C246 C 0.18853 0.6794 0.46019 0.0
C247 C 0.16756 0.67066 0.47316 0.0
N248 N 0.16317 0.69942 0.41801 0.0
N249 N 0.18508 0.69643 0.42609 0.0
C250 C 0.12661 0.68263 0.44895 0.0
H251 H 0.11895 0.69803 0.43123 0.0
H252 H 0.12119 0.68086 0.4908 0.0
H253 H 0.12047 0.6676 0.42692 0.0
C254 C 0.12661 0.78227 0.4339 0.0
N255 N 0.13635 0.76775 0.39959 0.0
N256 N 0.14103 0.74861 0.42376 0.0
C257 C 0.13476 0.75071 0.47529 0.0
C258 C 0.12531 0.77216 0.48351 0.0
C259 C 0.11666 0.80451 0.41766 0.0
H260 H 0.10493 0.80166 0.38426 0.0
H261 H 0.1069 0.81274 0.44969 0.0
H262 H 0.13037 0.816 0.40424 0.0
O263 O 0.17662 0.76791 0.3137 0.0
O264 O 0.18169 0.73322 0.3424 0.0
H265 H 0.14042 0.74097 0.55634 0.0
H266 H 0.12364 0.72165 0.51802 0.0
C267 C 0.13852 0.73307 0.51674 0.0
H268 H 0.15384 0.72303 0.50757 0.0
H269 H 0.19777 0.7067 0.41042 0.0
O270 O 0.13979 0.80174 0.30383 0.0
C271 C 0.18925 0.75088 0.3202 0.0
Co272 Co 0.89143 0.73917 0.3244 0.0
Co273 Co 0.88182 0.78434 0.37908 0.0
C274 C 0.91215 0.78371 0.285 0.0
O275 O 0.90853 0.76243 0.28149 0.0
O276 O 0.90349 0.79527 0.32274 0.0
C277 C 0.88861 0.70793 0.24906 0.0
O278 O 0.87981 0.72614 0.22743 0.0
C279 C 0.88102 0.82472 0.44914 0.0
C280 C 0.84466 0.82479 0.47009 0.0
C281 C 0.86491 0.83565 0.48022 0.0
N282 N 0.87064 0.80801 0.42259 0.0
N283 N 0.84885 0.80853 0.43447 0.0
C284 C 0.90605 0.82846 0.44835 0.0
H285 H 0.91472 0.81437 0.42756 0.0
H286 H 0.91264 0.83007 0.48931 0.0
H287 H 0.90977 0.84447 0.42711 0.0
C288 C 0.90872 0.72586 0.43013 0.0
N289 N 0.89898 0.7408 0.39685 0.0
N290 N 0.89457 0.75976 0.42207 0.0
C291 C 0.90132 0.75723 0.47315 0.0
C292 C 0.91075 0.73567 0.47996 0.0
C293 C 0.91535 0.70238 0.41431 0.0
H294 H 0.90129 0.69436 0.39211 0.0
H295 H 0.93022 0.70325 0.38754 0.0
H296 H 0.91955 0.69174 0.44912 0.0
O297 O 0.85834 0.74126 0.31426 0.0
O298 O 0.85333 0.77609 0.34191 0.0
H299 H 0.88364 0.78441 0.51114 0.0
H300 H 0.90242 0.76889 0.55443 0.0
C301 C 0.90013 0.77557 0.51382 0.0
H302 H 0.91382 0.78794 0.5061 0.0
H303 H 0.8369 0.79705 0.42026 0.0
O304 O 0.89748 0.70937 0.29469 0.0
C305 C 0.84575 0.75832 0.3203 0.0
Co306 Co 0.63666 0.26388 0.83428 0.0
Co307 Co 0.65137 0.21892 0.88272 0.0
C308 C 0.61939 0.21771 0.79356 0.0
O309 O 0.62123 0.23922 0.79239 0.0
O310 O 0.62965 0.20622 0.829 0.0
C311 C 0.5997 0.29152 0.82034 0.0
O312 O 0.5896 0.27392 0.8417 0.0
C313 C 0.65758 0.1782 0.94901 0.0
C314 C 0.69409 0.18114 0.96682 0.0
C315 C 0.67496 0.16859 0.97856 0.0
N316 N 0.66607 0.19581 0.922 0.0
N317 N 0.68802 0.19705 0.93168 0.0
C318 C 0.6329 0.17257 0.9509 0.0
H319 H 0.62278 0.18593 0.9311 0.0
H320 H 0.62724 0.1705 0.9925 0.0
H321 H 0.63002 0.15628 0.93012 0.0
C322 C 0.62446 0.27497 0.94482 0.0
N323 N 0.63303 0.26073 0.9082 0.0
N324 N 0.63752 0.24107 0.93021 0.0
C325 C 0.63114 0.24222 0.98191 0.0
C326 C 0.62235 0.26369 0.99234 0.0
C327 C 0.6195 0.29955 0.93622 0.0
H328 H 0.63001 0.30647 0.90371 0.0
H329 H 0.6013 0.30173 0.92692 0.0
H330 H 0.62298 0.30932 0.97287 0.0
O331 O 0.66886 0.26636 0.81387 0.0
O332 O 0.67734 0.23197 0.84197 0.0
H333 H 0.64933 0.21452 0.01621 0.0
H334 H 0.63106 0.22945 0.06188 0.0
C335 C 0.63284 0.22322 0.02065 0.0
H336 H 0.61906 0.21095 0.01279 0.0
H337 H 0.69866 0.20959 0.91668 0.0
O338 O 0.62097 0.2911 0.81337 0.0
C339 C 0.68287 0.25018 0.81846 0.0
Co340 Co 0.64108 0.73815 0.16805 0.0
Co341 Co 0.64907 0.78504 0.12164 0.0
C342 C 0.62155 0.78173 0.21833 0.0
O343 O 0.62475 0.76033 0.21694 0.0
O344 O 0.62948 0.7944 0.18193 0.0
C345 C 0.61008 0.70379 0.18428 0.0
O346 O 0.59642 0.71907 0.16407 0.0
C347 C 0.64935 0.83019 0.07177 0.0
C348 C 0.67763 0.82548 0.01555 0.0
C349 C 0.66116 0.84079 0.03102 0.0
N350 N 0.65818 0.80948 0.07868 0.0
N351 N 0.67536 0.80698 0.04582 0.0
C352 C 0.63063 0.83955 0.10511 0.0
H353 H 0.63316 0.83454 0.14693 0.0
H354 H 0.61426 0.83238 0.09166 0.0
H355 H 0.63007 0.8583 0.10293 0.0
C356 C 0.62619 0.728 0.05742 0.0
N357 N 0.63402 0.74206 0.09543 0.0
N358 N 0.63482 0.76276 0.07678 0.0
C359 C 0.62607 0.76274 0.02718 0.0
C360 C 0.62035 0.74061 0.01325 0.0
C361 C 0.62476 0.70278 0.0622 0.0
H362 H 0.63652 0.69649 0.09299 0.0
H363 H 0.60715 0.69784 0.07208 0.0
H364 H 0.62908 0.69458 0.02406 0.0
O365 O 0.67391 0.7395 0.18069 0.0
O366 O 0.6784 0.77466 0.15264 0.0
H367 H 0.64037 0.78797 0.977 0.0
H368 H 0.61167 0.78038 0.96033 0.0
C369 C 0.62359 0.78339 0.99354 0.0
H370 H 0.61761 0.79777 0.01805 0.0
H371 H 0.68503 0.79225 0.0428 0.0
O372 O 0.63092 0.70842 0.18912 0.0
C373 C 0.68633 0.75676 0.17355 0.0
Co374 Co 0.88867 0.27843 0.68626 0.0
Co375 Co 0.88354 0.2329 0.63015 0.0
C376 C 0.91007 0.23514 0.73058 0.0
O377 O 0.90612 0.25643 0.73318 0.0
O378 O 0.90266 0.22339 0.69178 0.0
C379 C 0.9072 0.3213 0.7259 0.0
O380 O 0.9278 0.31415 0.71581 0.0
C381 C 0.88711 0.18947 0.57147 0.0
C382 C 0.85827 0.19417 0.51674 0.0
C383 C 0.87563 0.17943 0.52943 0.0
N384 N 0.87709 0.20936 0.58202 0.0
N385 N 0.85969 0.21185 0.54976 0.0
C386 C 0.90663 0.18027 0.60243 0.0
H387 H 0.90495 0.18502 0.64465 0.0
H388 H 0.92258 0.18776 0.58727 0.0
H389 H 0.9075 0.16156 0.59925 0.0
C390 C 0.90852 0.29231 0.58158 0.0
N391 N 0.89862 0.27733 0.61473 0.0
N392 N 0.89725 0.25756 0.59114 0.0
C393 C 0.90683 0.25924 0.54257 0.0
C394 C 0.91443 0.28138 0.53483 0.0
C395 C 0.91112 0.31703 0.59279 0.0
H396 H 0.89704 0.32306 0.61805 0.0
H397 H 0.92741 0.31995 0.6134 0.0
H398 H 0.91126 0.32696 0.55549 0.0
O399 O 0.85577 0.27338 0.69276 0.0
O400 O 0.85262 0.23948 0.65761 0.0
H401 H 0.89369 0.23552 0.48679 0.0
H402 H 0.92276 0.24345 0.4748 0.0
C403 C 0.91008 0.23963 0.50591 0.0
H404 H 0.91567 0.22461 0.52868 0.0
H405 H 0.84909 0.22596 0.54952 0.0
O406 O 0.89048 0.3088 0.71507 0.0
C407 C 0.84382 0.25637 0.68073 0.0
Co408 Co 0.99323 0.62804 0.9424 0.0
Co409 Co 0.03711 0.62541 0.88019 0.0
C410 C 0.03793 0.64906 0.98266 0.0
O411 O 0.01724 0.64312 0.98843 0.0
O412 O 0.04858 0.64448 0.93996 0.0
C413 C 0.96406 0.61809 0.02078 0.0
O414 O 0.98263 0.60765 0.03562 0.0
C415 C 0.07999 0.62573 0.81878 0.0
C416 C 0.07037 0.60075 0.75749 0.0
C417 C 0.08797 0.61443 0.77422 0.0
N418 N 0.05858 0.61902 0.8273 0.0
N419 N 0.05308 0.60396 0.79092 0.0
C420 C 0.09263 0.64144 0.85458 0.0
H421 H 0.08768 0.63837 0.89627 0.0
H422 H 0.08813 0.65916 0.84454 0.0
H423 H 0.11118 0.63914 0.85052 0.0
C424 C 0.97633 0.651 0.84368 0.0
N425 N 0.99226 0.64058 0.8733 0.0
N426 N 0.01123 0.63944 0.84636 0.0
C427 C 0.00809 0.64959 0.79888 0.0
C428 C 0.98574 0.65721 0.79507 0.0
C429 C 0.95234 0.6541 0.86109 0.0
H430 H 0.94703 0.63976 0.88654 0.0
H431 H 0.95106 0.66989 0.88466 0.0
H432 H 0.94078 0.65536 0.8266 0.0
O433 O 0.99728 0.59509 0.93884 0.0
O434 O 0.03201 0.59407 0.90796 0.0
H435 H 0.0285 0.63822 0.73443 0.0
H436 H 0.02285 0.66821 0.7338 0.0
C437 C 0.02664 0.65349 0.75959 0.0
H438 H 0.04288 0.65651 0.78041 0.0
H439 H 0.03738 0.59591 0.78891 0.0
O440 O 0.96436 0.63023 0.97924 0.0
C441 C 0.01495 0.5841 0.9275 0.0
Co442 Co 0.53758 0.37621 0.43255 0.0
Co443 Co 0.49405 0.38548 0.37323 0.0
C444 C 0.49065 0.35797 0.46804 0.0
O445 O 0.51159 0.36259 0.47358 0.0
O446 O 0.48007 0.36435 0.42657 0.0
C447 C 0.56047 0.34507 0.4864 0.0
O448 O 0.54649 0.33167 0.46077 0.0
C449 C 0.45537 0.38918 0.29897 0.0
C450 C 0.45884 0.42518 0.27621 0.0
C451 C 0.4463 0.40588 0.26639 0.0
N452 N 0.47257 0.39831 0.32627 0.0
N453 N 0.47423 0.41991 0.3132 0.0
C454 C 0.44953 0.36455 0.3004 0.0
H455 H 0.46263 0.35489 0.32232 0.0
H456 H 0.44786 0.35783 0.25957 0.0
H457 H 0.43306 0.36231 0.32081 0.0
C458 C 0.55276 0.35705 0.33042 0.0
N459 N 0.53738 0.36773 0.36084 0.0
N460 N 0.51865 0.37105 0.33394 0.0
C461 C 0.52158 0.36215 0.28488 0.0
C462 C 0.54332 0.3529 0.28096 0.0
C463 C 0.5753 0.34924 0.35056 0.0
H464 H 0.57282 0.33405 0.37559 0.0
H465 H 0.58709 0.34465 0.31834 0.0
H466 H 0.58306 0.36268 0.37526 0.0
O467 O 0.53822 0.40908 0.44257 0.0
O468 O 0.5034 0.41339 0.41318 0.0
H469 H 0.51183 0.35968 0.20275 0.0
H470 H 0.49161 0.34887 0.24972 0.0
C471 C 0.50408 0.36251 0.2422 0.0
H472 H 0.49513 0.37897 0.24226 0.0
H473 H 0.48651 0.43092 0.32794 0.0
O474 O 0.56397 0.36471 0.46827 0.0
C475 C 0.52087 0.42131 0.43593 0.0
Co476 Co 0.99362 0.37776 0.06656 0.0
Co477 Co 0.03982 0.38525 0.11792 0.0
C478 C 0.03583 0.35499 0.0232 0.0
O479 O 0.01447 0.35845 0.02126 0.0
O480 O 0.04792 0.36411 0.05927 0.0
C481 C 0.94989 0.35855 0.03347 0.0
O482 O 0.95746 0.33799 0.04239 0.0
C483 C 0.08295 0.38 0.17433 0.0
C484 C 0.08355 0.41221 0.21881 0.0
C485 C 0.09499 0.39194 0.21251 0.0
N486 N 0.06495 0.39242 0.16039 0.0
N487 N 0.06575 0.41189 0.18592 0.0
C488 C 0.0885 0.35749 0.15038 0.0
H489 H 0.08678 0.35851 0.10676 0.0
H490 H 0.07631 0.34459 0.1646 0.0
H491 H 0.10602 0.35219 0.1602 0.0
C492 C 0.98145 0.36131 0.17508 0.0
N493 N 0.99593 0.37047 0.13967 0.0
N494 N 0.01583 0.37314 0.16207 0.0
C495 C 0.01465 0.36533 0.2125 0.0
C496 C 0.99279 0.35733 0.2223 0.0
C497 C 0.95684 0.35722 0.16509 0.0
H498 H 0.94984 0.37081 0.13975 0.0
H499 H 0.95472 0.34069 0.14501 0.0
H500 H 0.94718 0.35674 0.20275 0.0
O501 O 0.99892 0.41028 0.05274 0.0
O502 O 0.03296 0.41512 0.08613 0.0
H503 H 0.04087 0.3815 0.25675 0.0
H504 H 0.02994 0.35606 0.28744 0.0
C505 C 0.03444 0.36416 0.24927 0.0
H506 H 0.04821 0.35435 0.23037 0.0
H507 H 0.0535 0.42454 0.18278 0.0
O508 O 0.96258 0.37537 0.04214 0.0
C509 C 0.01587 0.42281 0.06181 0.0
Co510 Co 0.53662 0.62596 0.57349 0.0
Co511 Co 0.49186 0.62038 0.63036 0.0
C512 C 0.49126 0.64399 0.52862 0.0
O513 O 0.51228 0.63915 0.52567 0.0
O514 O 0.47999 0.639 0.5701 0.0
C515 C 0.56465 0.65381 0.52141 0.0
O516 O 0.55002 0.66842 0.54061 0.0
C517 C 0.4484 0.61961 0.68902 0.0
C518 C 0.45647 0.59273 0.747 0.0
C519 C 0.4396 0.6076 0.73171 0.0
N520 N 0.46957 0.61224 0.6803 0.0
N521 N 0.47413 0.59602 0.71461 0.0
C522 C 0.43675 0.63682 0.65519 0.0
H523 H 0.44139 0.63426 0.61315 0.0
H524 H 0.44244 0.65399 0.66701 0.0
H525 H 0.41809 0.63563 0.65908 0.0
C526 C 0.55049 0.64826 0.67415 0.0
N527 N 0.53545 0.63741 0.64302 0.0
N528 N 0.51591 0.63599 0.66746 0.0
C529 C 0.51772 0.64664 0.71476 0.0
C530 C 0.53981 0.6547 0.72081 0.0
C531 C 0.57435 0.65335 0.65812 0.0
H532 H 0.57447 0.66866 0.63276 0.0
H533 H 0.58531 0.65667 0.69281 0.0
H534 H 0.58138 0.63903 0.63502 0.0
O535 O 0.53556 0.59292 0.57154 0.0
O536 O 0.50058 0.58987 0.60117 0.0
H537 H 0.50267 0.66117 0.7851 0.0
H538 H 0.48301 0.65371 0.73263 0.0
C539 C 0.49873 0.6487 0.75359 0.0
H540 H 0.49571 0.63197 0.77219 0.0
H541 H 0.48951 0.58738 0.71627 0.0
O542 O 0.5647 0.63393 0.53978 0.0
C543 C 0.51826 0.58099 0.58132 0.0
H544 H 0.55253 0.05434 0.46236 0.0
H545 H 0.48123 0.05035 0.42754 0.0
H546 H 0.55169 0.01613 0.49746 0.0
H547 H 0.48051 0.01129 0.45816 0.0
H548 H 0.47967 0.94898 0.56286 0.0
H549 H 0.48026 0.98747 0.52821 0.0
H550 H 0.55048 0.97865 0.48357 0.0
H551 H 0.55012 0.94117 0.5226 0.0
C552 C 0.53677 0.04499 0.46104 0.0
C553 C 0.51697 0.05527 0.44221 0.0
C554 C 0.53624 0.0229 0.48091 0.0
C555 C 0.51601 0.01019 0.48091 0.0
C556 C 0.49633 0.02045 0.46038 0.0
C557 C 0.49674 0.04282 0.4421 0.0
C558 C 0.4952 0.95547 0.54585 0.0
C559 C 0.51489 0.94223 0.54582 0.0
C560 C 0.49556 0.97751 0.52537 0.0
C561 C 0.51546 0.98657 0.50275 0.0
C562 C 0.53497 0.97286 0.50181 0.0
C563 C 0.53477 0.95117 0.52384 0.0
H564 H 0.32432 0.21597 0.77854 0.0
H565 H 0.31622 0.28516 0.8307 0.0
H566 H 0.28531 0.21554 0.74795 0.0
H567 H 0.27693 0.28459 0.80036 0.0
H568 H 0.21733 0.28229 0.68143 0.0
H569 H 0.25602 0.28297 0.71524 0.0
H570 H 0.24648 0.21641 0.78219 0.0
H571 H 0.20793 0.21557 0.74807 0.0
C572 C 0.31418 0.23106 0.78389 0.0
C573 C 0.32347 0.25062 0.80707 0.0
C574 C 0.29174 0.23076 0.76652 0.0
C575 C 0.278 0.25004 0.7716 0.0
C576 C 0.28716 0.26954 0.79533 0.0
C577 C 0.30962 0.26981 0.81307 0.0
C578 C 0.22349 0.26776 0.70323 0.0
C579 C 0.2095 0.24885 0.71186 0.0
C580 C 0.24561 0.26825 0.72298 0.0
C581 C 0.25432 0.24977 0.75152 0.0
C582 C 0.24037 0.23083 0.75993 0.0
C583 C 0.21823 0.23039 0.74047 0.0
H584 H 0.98342 0.05278 0.06609 0.0
H585 H 0.05152 0.06505 0.0106 0.0
H586 H 0.9853 0.01423 0.03206 0.0
H587 H 0.05328 0.02646 0.97628 0.0
H588 H 0.0555 0.94787 0.98018 0.0
H589 H 0.05431 0.98708 0.01026 0.0
H590 H 0.98696 0.99407 0.94617 0.0
H591 H 0.98802 0.95481 0.9163 0.0
C592 C 0.9988 0.04729 0.04661 0.0
C593 C 0.01732 0.06207 0.04115 0.0
C594 C 0.9998 0.02522 0.02676 0.0
C595 C 0.01941 0.01729 1.00129 0.0
C596 C 0.03799 0.03199 0.99606 0.0
C597 C 0.03693 0.05415 0.01556 0.0
C598 C 0.04048 0.95778 0.97215 0.0
C599 C 0.02182 0.94811 0.94592 0.0
C600 C 0.03985 0.98031 0.98923 0.0
C601 C 0.0205 0.99367 0.98086 0.0
C602 C 0.002 0.98413 0.95385 0.0
C603 C 0.00268 0.96166 0.93641 0.0
H604 H 0.32658 0.71537 0.22691 0.0
H605 H 0.32084 0.78542 0.18115 0.0
H606 H 0.28867 0.71634 0.26339 0.0
H607 H 0.28194 0.78614 0.21346 0.0
H608 H 0.21809 0.78699 0.31353 0.0
H609 H 0.2571 0.78711 0.28217 0.0
H610 H 0.25144 0.71571 0.24569 0.0
H611 H 0.21334 0.71549 0.28129 0.0
C612 C 0.31696 0.73093 0.22397 0.0
C613 C 0.32661 0.75029 0.20111 0.0
C614 C 0.29502 0.73149 0.24447 0.0
C615 C 0.28173 0.75125 0.24109 0.0
C616 C 0.29153 0.77067 0.21792 0.0
C617 C 0.31382 0.77027 0.19888 0.0
C618 C 0.22538 0.77135 0.29907 0.0
C619 C 0.21279 0.7512 0.30024 0.0
C620 C 0.24773 0.77139 0.28054 0.0
C621 C 0.25784 0.75139 0.26125 0.0
C622 C 0.24482 0.73137 0.26155 0.0
C623 C 0.22278 0.73122 0.28156 0.0
H624 H 0.81692 0.72228 0.31474 0.0
H625 H 0.82208 0.7934 0.27844 0.0
H626 H 0.77841 0.72174 0.28049 0.0
H627 H 0.7845 0.7927 0.23986 0.0
H628 H 0.70926 0.79201 0.21634 0.0
H629 H 0.74698 0.79208 0.25395 0.0
H630 H 0.75494 0.72173 0.20945 0.0
H631 H 0.71624 0.72145 0.17608 0.0
C632 C 0.80981 0.73775 0.29885 0.0
C633 C 0.82236 0.75792 0.29966 0.0
C634 C 0.78777 0.73745 0.27857 0.0
C635 C 0.77797 0.75718 0.25703 0.0
C636 C 0.79091 0.77725 0.25725 0.0
C637 C 0.81263 0.77768 0.27905 0.0
C638 C 0.71915 0.7766 0.21457 0.0
C639 C 0.70988 0.75675 0.19319 0.0
C640 C 0.74097 0.77662 0.23584 0.0
C641 C 0.75445 0.75695 0.23477 0.0
C642 C 0.74514 0.73714 0.21234 0.0
C643 C 0.72299 0.73697 0.19258 0.0
H644 H 0.81396 0.29159 0.68604 0.0
H645 H 0.81952 0.21973 0.71244 0.0
H646 H 0.77462 0.29059 0.71462 0.0
H647 H 0.78101 0.21877 0.74552 0.0
H648 H 0.70617 0.21717 0.76798 0.0
H649 H 0.74376 0.2191 0.72977 0.0
H650 H 0.74965 0.28865 0.78224 0.0
H651 H 0.71103 0.28698 0.81603 0.0
C652 C 0.80673 0.27558 0.6984 0.0
C653 C 0.81972 0.25571 0.69664 0.0
C654 C 0.78417 0.27499 0.71545 0.0
C655 C 0.77421 0.2546 0.73285 0.0
C656 C 0.7875 0.23476 0.73126 0.0
C657 C 0.80978 0.23527 0.71261 0.0
C658 C 0.71552 0.2329 0.7709 0.0
C659 C 0.70574 0.25191 0.795 0.0
C660 C 0.73729 0.234 0.74946 0.0
C661 C 0.75031 0.25395 0.75316 0.0
C662 C 0.7403 0.27304 0.77738 0.0
C663 C 0.71816 0.27212 0.79729 0.0
H664 H 0.98114 0.55301 0.9207 0.0
H665 H 0.05096 0.56075 0.96659 0.0
H666 H 0.98181 0.51376 0.94953 0.0
H667 H 0.05136 0.52216 1.00001 0.0
H668 H 0.05198 0.44655 0.02459 0.0
H669 H 0.05224 0.4844 0.98689 0.0
H670 H 0.98059 0.4905 0.02018 0.0
H671 H 0.98028 0.45189 0.0534 0.0
C672 C 0.99664 0.54623 0.93722 0.0
C673 C 0.01603 0.55982 0.94118 0.0
C674 C 0.997 0.52376 0.95456 0.0
C675 C 0.01655 0.5145 0.97813 0.0
C676 C 0.03605 0.52823 0.98136 0.0
C677 C 0.03587 0.5505 0.9624 0.0
C678 C 0.03632 0.45608 0.02368 0.0
C679 C 0.01611 0.44632 0.04183 0.0
C680 C 0.03644 0.47793 1.00234 0.0
C681 C 0.01643 0.4909 1.00009 0.0
C682 C 0.99628 0.48109 0.01952 0.0
C683 C 0.99608 0.45897 0.03927 0.0
H684 H 0.48479 0.44366 0.47716 0.0
H685 H 0.55592 0.45129 0.44369 0.0
H686 H 0.48401 0.48102 0.51705 0.0
H687 H 0.555 0.48955 0.47927 0.0
H688 H 0.55348 0.5512 0.58296 0.0
H689 H 0.55393 0.51236 0.55101 0.0
H690 H 0.48356 0.51878 0.50557 0.0
H691 H 0.48291 0.55681 0.54191 0.0
C692 C 0.5002 0.4536 0.47749 0.0
C693 C 0.5204 0.4446 0.45732 0.0
C694 C 0.49977 0.4752 0.5001 0.0
C695 C 0.51943 0.48873 0.50165 0.0
C696 C 0.53958 0.4797 0.48037 0.0
C697 C 0.54013 0.45779 0.45929 0.0
C698 C 0.53807 0.54407 0.56682 0.0
C699 C 0.51813 0.55693 0.56523 0.0
C700 C 0.53834 0.52183 0.54772 0.0
C701 C 0.51884 0.51212 0.52485 0.0
C702 C 0.49885 0.52517 0.52373 0.0
C703 C 0.49844 0.54713 0.54437 0.0
H704 H 0.49669 0.13766 0.17453 0.0
H705 H 0.47341 0.19034 0.27892 0.0
H706 H 0.47856 0.15667 0.09974 0.0
H707 H 0.45602 0.20996 0.20446 0.0
H708 H 0.40661 0.22799 0.0717 0.0
H709 H 0.42574 0.20977 0.14606 0.0
H710 H 0.47844 0.1867 0.04032 0.0
H711 H 0.45868 0.20425 0.96618 0.0
C712 C 0.48801 0.15354 0.18124 0.0
C713 C 0.48644 0.16246 0.23259 0.0
C714 C 0.47761 0.16456 0.13831 0.0
C715 C 0.46555 0.18499 0.14546 0.0
C716 C 0.46458 0.19409 0.19699 0.0
C717 C 0.47473 0.18293 0.23984 0.0
C718 C 0.42237 0.21914 0.06462 0.0
C719 C 0.43108 0.21752 0.01308 0.0
C720 C 0.43348 0.2087 0.10733 0.0
C721 C 0.45381 0.19654 0.09983 0.0
C722 C 0.46266 0.19538 0.04807 0.0
C723 C 0.4514 0.2056 0.00539 0.0
H724 H 0.05511 0.19119 0.23117 0.0
H725 H 0.04175 0.13306 0.32932 0.0
H726 H 0.07395 0.20996 0.30515 0.0
H727 H 0.06064 0.15175 0.40379 0.0
H728 H 0.07868 0.19996 0.53977 0.0
H729 H 0.05818 0.18242 0.46664 0.0
H730 H 0.10808 0.2081 0.35709 0.0
H731 H 0.12857 0.22562 0.43075 0.0
C732 C 0.0561 0.18248 0.26883 0.0
C733 C 0.04676 0.16071 0.27449 0.0
C734 C 0.06706 0.19318 0.31122 0.0
C735 C 0.06902 0.18243 0.36073 0.0
C736 C 0.05926 0.16076 0.36662 0.0
C737 C 0.04833 0.15002 0.32399 0.0
C738 C 0.08534 0.20177 0.50007 0.0
C739 C 0.10534 0.21412 0.49117 0.0
C740 C 0.07358 0.19165 0.45803 0.0
C741 C 0.08142 0.19365 0.40563 0.0
C742 C 0.10129 0.20636 0.39668 0.0
C743 C 0.11309 0.21644 0.43889 0.0
H744 H 0.13271 0.81419 0.52527 0.0
H745 H 0.09506 0.75282 0.55321 0.0
H746 H 0.11257 0.8327 0.5979 0.0
H747 H 0.07561 0.77108 0.62784 0.0
H748 H 0.0662 0.80984 0.79226 0.0
H749 H 0.08533 0.78944 0.72043 0.0
H750 H 0.07023 0.84434 0.61361 0.0
H751 H 0.05062 0.86447 0.68534 0.0
C752 C 0.12019 0.8046 0.54713 0.0
C753 C 0.11522 0.78214 0.53268 0.0
C754 C 0.10864 0.81523 0.58874 0.0
C755 C 0.09222 0.8035 0.61821 0.0
C756 C 0.08811 0.78062 0.6058 0.0
C757 C 0.09936 0.7701 0.56328 0.0
C758 C 0.06679 0.81741 0.75324 0.0
C759 C 0.05689 0.83873 0.74433 0.0
C760 C 0.07769 0.80571 0.71212 0.0
C761 C 0.07943 0.81529 0.66133 0.0
C762 C 0.06933 0.83656 0.65236 0.0
C763 C 0.05798 0.84803 0.69325 0.0
H764 H 0.45902 0.76662 1.00169 0.0
H765 H 0.39665 0.78069 0.92015 0.0
H766 H 0.48008 0.78801 0.93478 0.0
H767 H 0.41755 0.80202 0.85265 0.0
H768 H 0.45686 0.86146 0.78199 0.0
H769 H 0.43747 0.83801 0.84752 0.0
H770 H 0.49256 0.79007 0.84249 0.0
H771 H 0.51188 0.81373 0.77656 0.0
C772 C 0.44993 0.77377 0.96842 0.0
C773 C 0.42628 0.77161 0.9654 0.0
C774 C 0.46197 0.78613 0.93015 0.0
C775 C 0.45059 0.79699 0.88827 0.0
C776 C 0.42691 0.7942 0.88462 0.0
C777 C 0.41492 0.7817 0.92276 0.0
C778 C 0.46486 0.84596 0.79516 0.0
C779 C 0.48578 0.83933 0.77374 0.0
C780 C 0.45366 0.83238 0.83241 0.0
C781 C 0.46315 0.81182 0.84981 0.0
C782 C 0.48466 0.80574 0.83014 0.0
C783 C 0.49581 0.81932 0.79251 0.0
H784 H 0.59029 0.93156 0.82273 0.0
H785 H 0.6316 0.88342 0.73769 0.0
H786 H 0.61198 0.9244 0.90288 0.0
H787 H 0.65307 0.87601 0.81844 0.0
H788 H 0.68902 0.86703 0.97139 0.0
H789 H 0.6775 0.89205 0.8991 0.0
H790 H 0.60769 0.88406 0.94549 0.0
H791 H 0.6187 0.85819 0.01421 0.0
C792 C 0.60438 0.91988 0.82076 0.0
C793 C 0.60874 0.90733 0.77461 0.0
C794 C 0.61681 0.91591 0.86659 0.0
C795 C 0.63394 0.89955 0.86671 0.0
C796 C 0.63992 0.88878 0.81916 0.0
C797 C 0.62735 0.89264 0.7733 0.0
C798 C 0.67127 0.87123 0.96715 0.0
C799 C 0.65485 0.86077 0.99926 0.0
C800 C 0.66477 0.88555 0.92595 0.0
C801 C 0.64179 0.88998 0.91717 0.0
C802 C 0.62559 0.88128 0.95226 0.0
C803 C 0.632 0.86655 0.9924 0.0
H804 H 0.9198 0.92422 0.72302 0.0
H805 H 0.92495 0.85319 0.76251 0.0
H806 H 0.89285 0.91493 0.65293 0.0
H807 H 0.89736 0.84429 0.69506 0.0
H808 H 0.84506 0.83245 0.5763 0.0
H809 H 0.85666 0.85137 0.65754 0.0
H810 H 0.90508 0.891 0.56924 0.0
H811 H 0.89333 0.87221 0.48756 0.0
C812 C 0.91449 0.90678 0.71829 0.0
C813 C 0.92438 0.88947 0.74871 0.0
C814 C 0.89909 0.90155 0.67835 0.0
C815 C 0.89311 0.87897 0.66894 0.0
C816 C 0.90142 0.86191 0.70233 0.0
C817 C 0.91714 0.86707 0.74151 0.0
C818 C 0.85772 0.84568 0.57394 0.0
C819 C 0.86885 0.85045 0.52605 0.0
C820 C 0.86428 0.85647 0.6204 0.0
C821 C 0.88181 0.87241 0.61944 0.0
C822 C 0.89141 0.87879 0.57079 0.0
C823 C 0.88499 0.86781 0.52429 0.0
H824 H 0.90104 0.13178 0.23136 0.0
H825 H 0.94197 0.08429 0.31933 0.0
H826 H 0.88229 0.14316 0.31357 0.0
H827 H 0.92323 0.09563 0.40101 0.0
H828 H 0.9183 0.16337 0.50825 0.0
H829 H 0.92883 0.13756 0.43827 0.0
H830 H 0.85852 0.12811 0.39806 0.0
H831 H 0.84761 0.15307 0.47089 0.0
C832 C 0.90572 0.12355 0.26802 0.0
C833 C 0.92326 0.10761 0.26936 0.0
C834 C 0.89482 0.12979 0.3148 0.0
C835 C 0.90151 0.12026 0.36328 0.0
C836 C 0.91786 0.10314 0.36396 0.0
C837 C 0.92853 0.09672 0.31725 0.0
C838 C 0.90492 0.15482 0.4871 0.0
C839 C 0.88205 0.16003 0.49595 0.0
C840 C 0.91101 0.14018 0.4464 0.0
C841 C 0.89443 0.13097 0.41304 0.0
C842 C 0.87153 0.13506 0.42351 0.0
C843 C 0.86538 0.14932 0.46505 0.0
H844 H 0.62579 0.0812 0.23058 0.0
H845 H 0.61398 0.15237 0.25925 0.0
H846 H 0.65241 0.09102 0.16016 0.0
H847 H 0.64126 0.16192 0.1916 0.0
H848 H 0.69393 0.17543 0.07463 0.0
H849 H 0.68301 0.15751 0.15771 0.0
H850 H 0.63941 0.11166 0.07226 0.0
H851 H 0.65042 0.12954 0.98886 0.0
C852 C 0.62953 0.09889 0.22343 0.0
C853 C 0.6179 0.11598 0.25106 0.0
C854 C 0.64476 0.10443 0.18328 0.0
C855 C 0.64886 0.12717 0.17084 0.0
C856 C 0.6387 0.14424 0.20127 0.0
C857 C 0.62315 0.13872 0.24062 0.0
C858 C 0.6826 0.16102 0.07339 0.0
C859 C 0.67251 0.15417 0.02565 0.0
C860 C 0.67638 0.15083 0.12091 0.0
C861 C 0.66027 0.13343 0.12118 0.0
C862 C 0.65196 0.12502 0.07293 0.0
C863 C 0.65801 0.1354 0.02537 0.0
H864 H 0.98819 0.64689 0.68943 0.0
H865 H 0.95798 0.69459 0.79735 0.0
H866 H 0.97033 0.66622 0.61501 0.0
H867 H 0.94005 0.71409 0.72299 0.0
H868 H 0.89336 0.72995 0.58015 0.0
H869 H 0.91119 0.7115 0.65631 0.0
H870 H 0.97133 0.6998 0.56307 0.0
H871 H 0.95331 0.71807 0.4873 0.0
C872 C 0.97787 0.66165 0.69727 0.0
C873 C 0.9746 0.66915 0.74953 0.0
C874 C 0.9676 0.67283 0.65445 0.0
C875 C 0.95368 0.69192 0.66244 0.0
C876 C 0.95033 0.69933 0.71492 0.0
C877 C 0.96065 0.68813 0.75776 0.0
C878 C 0.91051 0.72371 0.5763 0.0
C879 C 0.92195 0.72562 0.52772 0.0
C880 C 0.92079 0.71307 0.62 0.0
C881 C 0.9428 0.70394 0.61629 0.0
C882 C 0.95427 0.70616 0.56761 0.0
C883 C 0.94399 0.71679 0.52409 0.0
H884 H 0.6385 0.71513 0.93415 0.0
H885 H 0.57593 0.74514 0.98583 0.0
H886 H 0.61849 0.69527 0.86336 0.0
H887 H 0.5555 0.72484 0.91599 0.0
H888 H 0.5283 0.69694 0.75668 0.0
H889 H 0.54771 0.71971 0.824 0.0
H890 H 0.59374 0.66424 0.85277 0.0
H891 H 0.57458 0.64198 0.78482 0.0
C892 C 0.62045 0.71771 0.9297 0.0
C893 C 0.60879 0.73181 0.96507 0.0
C894 C 0.60885 0.70608 0.8896 0.0
C895 C 0.58518 0.70804 0.88404 0.0
C896 C 0.57369 0.72293 0.91845 0.0
C897 C 0.58537 0.73464 0.95848 0.0
C898 C 0.54243 0.68964 0.77794 0.0
C899 C 0.54998 0.66773 0.76547 0.0
C900 C 0.55361 0.70266 0.81656 0.0
C901 C 0.57261 0.69406 0.84376 0.0
C902 C 0.57962 0.67181 0.83201 0.0
C903 C 0.5685 0.65889 0.79339 0.0
H904 H 0.63979 0.27716 0.08784 0.0
H905 H 0.5774 0.2717 1.00078 0.0
H906 H 0.62006 0.29828 0.15783 0.0
H907 H 0.55757 0.29267 0.07024 0.0
H908 H 0.52612 0.31566 0.23019 0.0
H909 H 0.54473 0.29193 0.16345 0.0
H910 H 0.60269 0.33641 0.16582 0.0
H911 H 0.58384 0.36024 0.23154 0.0
C912 C 0.62174 0.27999 0.08444 0.0
C913 C 0.61003 0.27249 0.03945 0.0
C914 C 0.61046 0.29233 0.12407 0.0
C915 C 0.58718 0.29734 0.11968 0.0
C916 C 0.57539 0.289 0.07539 0.0
C917 C 0.58672 0.27692 0.03564 0.0
C918 C 0.54271 0.32048 0.21588 0.0
C919 C 0.55363 0.33965 0.23667 0.0
C920 C 0.55345 0.30684 0.1778 0.0
C921 C 0.57544 0.31197 0.15977 0.0
C922 C 0.58604 0.33155 0.17965 0.0
C923 C 0.5752 0.34528 0.2172 0.0
H924 H 0.95367 0.30583 0.53681 0.0
H925 H 0.90371 0.2793 0.42926 0.0
H926 H 0.97382 0.32322 0.46297 0.0
H927 H 0.92337 0.29717 0.35509 0.0
H928 H 0.97275 0.31587 0.22493 0.0
H929 H 0.95503 0.29672 0.29971 0.0
H930 H 0.97328 0.35278 0.40102 0.0
H931 H 0.99164 0.37147 0.32591 0.0
C932 C 0.94692 0.30384 0.49724 0.0
C933 C 0.92707 0.2912 0.48893 0.0
C934 C 0.95843 0.31393 0.45473 0.0
C935 C 0.95035 0.31184 0.40248 0.0
C936 C 0.9305 0.29896 0.39432 0.0
C937 C 0.9191 0.28872 0.4369 0.0
C938 C 0.97309 0.32399 0.26335 0.0
C939 C 0.98363 0.34516 0.26955 0.0
C940 C 0.96273 0.3131 0.30633 0.0
C941 C 0.96238 0.32313 0.35692 0.0
C942 C 0.97335 0.34423 0.36315 0.0
C943 C 0.98389 0.35504 0.32007 0.0
H944 H 0.09625 0.34907 0.25238 0.0
H945 H 0.127 0.4152 0.26759 0.0
H946 H 0.11388 0.33732 0.33368 0.0
H947 H 0.14381 0.40351 0.35202 0.0
H948 H 0.18209 0.35554 0.48083 0.0
H949 H 0.17081 0.37379 0.39786 0.0
H950 H 0.10199 0.35187 0.42351 0.0
H951 H 0.1132 0.33272 0.50342 0.0
C952 C 0.10759 0.36084 0.27154 0.0
C953 C 0.11052 0.38301 0.25288 0.0
C954 C 0.11723 0.35424 0.3191 0.0
C955 C 0.12955 0.36978 0.34959 0.0
C956 C 0.13416 0.39135 0.32921 0.0
C957 C 0.12463 0.39795 0.28102 0.0
C958 C 0.16442 0.35529 0.46942 0.0
C959 C 0.14854 0.3428 0.49895 0.0
C960 C 0.15803 0.36568 0.42208 0.0
C961 C 0.13572 0.36362 0.40404 0.0
C962 C 0.11943 0.35324 0.43633 0.0
C963 C 0.12581 0.34269 0.48304 0.0
H964 H 0.42238 0.34663 0.98542 0.0
H965 H 0.35225 0.3575 0.02706 0.0
H966 H 0.43386 0.37358 0.052 0.0
H967 H 0.3641 0.38382 0.09645 0.0
H968 H 0.4073 0.38087 0.26045 0.0
H969 H 0.38719 0.37044 0.17958 0.0
H970 H 0.43072 0.41455 0.08898 0.0
H971 H 0.451 0.42476 0.1695 0.0
C972 C 0.40929 0.3556 0.00666 0.0
C973 C 0.38634 0.35017 1.00018 0.0
C974 C 0.41594 0.37095 0.0454 0.0
C975 C 0.39982 0.3807 0.07921 0.0
C976 C 0.37678 0.37648 0.07067 0.0
C977 C 0.37007 0.36144 0.03112 0.0
C978 C 0.41234 0.38852 0.22338 0.0
C979 C 0.43113 0.40297 0.22078 0.0
C980 C 0.40061 0.3829 0.17732 0.0
C981 C 0.40762 0.39161 0.12824 0.0
C982 C 0.42511 0.4076 0.12644 0.0
C983 C 0.43669 0.41337 0.17248 0.0
H984 H 0.38774 0.62774 0.02306 0.0
H985 H 0.33946 0.66762 0.93492 0.0
H986 H 0.39865 0.60831 0.94174 0.0
H987 H 0.35005 0.64791 0.85403 0.0
H988 H 0.41789 0.64787 0.74889 0.0
H989 H 0.38981 0.65558 0.81585 0.0
H990 H 0.38822 0.58482 0.8582 0.0
H991 H 0.4158 0.57673 0.78857 0.0
C992 C 0.37914 0.63197 0.98659 0.0
C993 C 0.36346 0.64974 0.98476 0.0
C994 C 0.38507 0.6206 0.94025 0.0
C995 C 0.37537 0.62693 0.89167 0.0
C996 C 0.35785 0.64291 0.89102 0.0
C997 C 0.35184 0.65415 0.93734 0.0
C998 C 0.41062 0.63367 0.76981 0.0
C999 C 0.41887 0.61162 0.76274 0.0
C1000 C 0.39458 0.63814 0.80871 0.0
C1001 C 0.38689 0.62076 0.84207 0.0
C1002 C 0.39391 0.59846 0.83281 0.0
C1003 C 0.40969 0.5939 0.79315 0.0
H1004 H 0.11181 0.65381 0.76119 0.0
H1005 H 0.10988 0.58351 0.71395 0.0
H1006 H 0.13918 0.66155 0.69228 0.0
H1007 H 0.13671 0.59168 0.64289 0.0
H1008 H 0.13627 0.63673 0.4818 0.0
H1009 H 0.12476 0.61781 0.56348 0.0
H1010 H 0.17811 0.6521 0.64838 0.0
H1011 H 0.18955 0.6711 0.56696 0.0
C1012 C 0.11805 0.63975 0.73807 0.0
C1013 C 0.10877 0.61801 0.74329 0.0
C1014 C 0.13366 0.64424 0.69816 0.0
C1015 C 0.13986 0.62719 0.6623 0.0
C1016 C 0.13207 0.60505 0.67013 0.0
C1017 C 0.11674 0.60046 0.71063 0.0
C1018 C 0.14574 0.63987 0.51772 0.0
C1019 C 0.16333 0.65575 0.51861 0.0
C1020 C 0.13942 0.62883 0.56419 0.0
C1021 C 0.15055 0.63369 0.61201 0.0
C1022 C 0.16932 0.64816 0.6119 0.0
C1023 C 0.17579 0.65899 0.56537 0.0
H1024 H 0.44279 0.15582 0.74405 0.0
H1025 H 0.37254 0.17513 0.72777 0.0
H1026 H 0.43965 0.13311 0.66416 0.0
H1027 H 0.3699 0.15327 0.64657 0.0
H1028 H 0.42302 0.17676 0.49681 0.0
H1029 H 0.39983 0.1747 0.57613 0.0
H1030 H 0.41668 0.10408 0.59427 0.0
H1031 H 0.439 0.10569 0.5136 0.0
C1032 C 0.42649 0.15449 0.72471 0.0
C1033 C 0.40828 0.16803 0.74057 0.0
C1034 C 0.42456 0.14124 0.67935 0.0
C1035 C 0.40462 0.14196 0.64898 0.0
C1036 C 0.38539 0.15258 0.66944 0.0
C1037 C 0.38712 0.16533 0.71557 0.0
C1038 C 0.42083 0.16053 0.51607 0.0
C1039 C 0.43365 0.14173 0.50069 0.0
C1040 C 0.40731 0.15923 0.56112 0.0
C1041 C 0.40705 0.13931 0.5916 0.0
C1042 C 0.41679 0.11958 0.57134 0.0
C1043 C 0.42981 0.12071 0.52552 0.0
H1044 H 0.09465 0.11226 0.00383 0.0
H1045 H 0.10941 0.18395 0.99939 0.0
H1046 H 0.11816 0.10647 0.92621 0.0
H1047 H 0.13386 0.17777 0.92341 0.0
H1048 H 0.162 0.1716 0.77587 0.0
H1049 H 0.16476 0.15277 0.86101 0.0
H1050 H 0.09525 0.13127 0.84715 0.0
H1051 H 0.09191 0.15116 0.76336 0.0
C1052 C 0.10378 0.12665 0.98797 0.0
C1053 C 0.09922 0.14884 0.00556 0.0
C1054 C 0.11754 0.12313 0.94405 0.0
C1055 C 0.12728 0.1417 0.91848 0.0
C1056 C 0.12636 0.16316 0.94255 0.0
C1057 C 0.11212 0.1668 0.98567 0.0
C1058 C 0.14751 0.16207 0.78979 0.0
C1059 C 0.12626 0.1639 0.76472 0.0
C1060 C 0.14932 0.15101 0.83825 0.0
C1061 C 0.13011 0.14118 0.86085 0.0
C1062 C 0.11029 0.13894 0.83042 0.0
C1063 C 0.10826 0.15056 0.7827 0.0
H1064 H 0.09649 0.89771 0.0326 0.0
H1065 H 0.11615 0.82779 0.01152 0.0
H1066 H 0.11749 0.89913 0.11515 0.0
H1067 H 0.1381 0.82976 0.09278 0.0
H1068 H 0.16214 0.82789 0.24688 0.0
H1069 H 0.16547 0.85205 0.16939 0.0
H1070 H 0.09407 0.8668 0.17821 0.0
H1071 H 0.09035 0.84166 0.25396 0.0
C1072 C 0.10626 0.88299 0.04404 0.0
C1073 C 0.10379 0.86219 0.01735 0.0
C1074 C 0.11855 0.88404 0.09095 0.0
C1075 C 0.1289 0.86448 0.11047 0.0
C1076 C 0.13011 0.84508 0.07835 0.0
C1077 C 0.11729 0.8438 0.03223 0.0
C1078 C 0.14729 0.83705 0.23377 0.0
C1079 C 0.12572 0.83221 0.2547 0.0
C1080 C 0.14938 0.85111 0.18982 0.0
C1081 C 0.13002 0.86087 0.16774 0.0
C1082 C 0.10927 0.85938 0.19479 0.0
C1083 C 0.10703 0.84476 0.23767 0.0
H1084 H 0.41439 0.83141 0.22533 0.0
H1085 H 0.47641 0.79329 0.20861 0.0
H1086 H 0.42938 0.84977 0.30317 0.0
H1087 H 0.49189 0.81248 0.2858 0.0
H1088 H 0.48087 0.80394 0.46645 0.0
H1089 H 0.47712 0.80028 0.37122 0.0
H1090 H 0.45419 0.86965 0.36097 0.0
H1091 H 0.45698 0.87305 0.45642 0.0
C1092 C 0.43166 0.82774 0.23693 0.0
C1093 C 0.4438 0.81004 0.21325 0.0
C1094 C 0.44036 0.83843 0.2814 0.0
C1095 C 0.46135 0.83162 0.30187 0.0
C1096 C 0.47524 0.81726 0.27176 0.0
C1097 C 0.46644 0.8064 0.22745 0.0
C1098 C 0.47478 0.8183 0.44393 0.0
C1099 C 0.46903 0.83864 0.46895 0.0
C1100 C 0.47318 0.81643 0.38924 0.0
C1101 C 0.46592 0.83492 0.35855 0.0
C1102 C 0.45997 0.85521 0.38363 0.0
C1103 C 0.46132 0.857 0.43837 0.0
H1104 H 0.5271 0.82705 0.46448 0.0
H1105 H 0.59098 0.85709 0.50852 0.0
H1106 H 0.54519 0.80864 0.38894 0.0
H1107 H 0.609 0.83891 0.43204 0.0
H1108 H 0.62326 0.82587 0.25185 0.0
H1109 H 0.60579 0.84268 0.33027 0.0
H1110 H 0.57551 0.77835 0.36902 0.0
H1111 H 0.59338 0.76133 0.29103 0.0
C1112 C 0.54506 0.82964 0.45831 0.0
C1113 C 0.55756 0.84359 0.49291 0.0
C1114 C 0.55544 0.819 0.41495 0.0
C1115 C 0.57855 0.82233 0.40416 0.0
C1116 C 0.59113 0.83611 0.43893 0.0
C1117 C 0.58083 0.8464 0.48303 0.0
C1118 C 0.61281 0.81527 0.27687 0.0
C1119 C 0.60974 0.79219 0.26477 0.0
C1120 C 0.60294 0.8249 0.32217 0.0
C1121 C 0.58931 0.81188 0.35621 0.0
C1122 C 0.58585 0.78891 0.34365 0.0
C1123 C 0.59613 0.77914 0.2989 0.0
H1124 H 0.9429 0.76442 0.2174 0.0
H1125 H 0.91243 0.82869 0.25621 0.0
H1126 H 0.96396 0.78234 0.14533 0.0
H1127 H 0.93321 0.8465 0.18319 0.0
H1128 H 0.95313 0.86094 0.00626 0.0
H1129 H 0.93312 0.84348 0.08063 0.0
H1130 H 0.9953 0.81241 0.13248 0.0
H1131 H 0.01549 0.83024 0.05874 0.0
C1132 C 0.94073 0.7824 0.21074 0.0
C1133 C 0.92594 0.79507 0.24292 0.0
C1134 C 0.95288 0.79268 0.16942 0.0
C1135 C 0.95024 0.81586 0.15822 0.0
C1136 C 0.93552 0.82858 0.19044 0.0
C1137 C 0.92372 0.81839 0.23256 0.0
C1138 C 0.96257 0.85033 0.03335 0.0
C1139 C 0.98599 0.84702 0.02621 0.0
C1140 C 0.9511 0.84045 0.07628 0.0
C1141 C 0.96258 0.82659 0.11274 0.0
C1142 C 0.9859 0.82292 0.10511 0.0
C1143 C 0.99748 0.83319 0.06282 0.0
H1144 H 0.91078 0.18987 0.75477 0.0
H1145 H 0.93753 0.25412 0.80686 0.0
H1146 H 0.92978 0.17102 0.82849 0.0
H1147 H 0.95693 0.23506 0.88017 0.0
H1148 H 0.00817 0.18515 0.9648 0.0
H1149 H 0.98896 0.20567 0.89356 0.0
H1150 H 0.92683 0.17069 0.93013 0.0
H1151 H 0.94586 0.15048 1.00202 0.0
C1152 C 0.92083 0.2 0.78167 0.0
C1153 C 0.92256 0.22359 0.77459 0.0
C1154 C 0.93162 0.18917 0.82424 0.0
C1155 C 0.94484 0.20149 0.8605 0.0
C1156 C 0.94695 0.22502 0.85294 0.0
C1157 C 0.93577 0.23596 0.81093 0.0
C1158 C 0.99035 0.18196 0.95804 0.0
C1159 C 0.97862 0.16611 0.98945 0.0
C1160 C 0.97932 0.19379 0.91721 0.0
C1161 C 0.95635 0.18977 0.90582 0.0
C1162 C 0.94457 0.17407 0.93746 0.0
C1163 C 0.95547 0.16259 0.97899 0.0
H1164 H 0.58453 0.14386 0.50655 0.0
H1165 H 0.52003 0.17013 0.55809 0.0
H1166 H 0.60272 0.16075 0.58394 0.0
H1167 H 0.53838 0.18733 0.63515 0.0
H1168 H 0.58672 0.23602 0.72956 0.0
H1169 H 0.56707 0.21839 0.6551 0.0
H1170 H 0.60266 0.15592 0.68445 0.0
H1171 H 0.62216 0.17347 0.75965 0.0
C1172 C 0.57421 0.15336 0.53411 0.0
C1173 C 0.55074 0.15561 0.52573 0.0
C1174 C 0.58465 0.16291 0.57882 0.0
C1175 C 0.57204 0.17534 0.61607 0.0
C1176 C 0.54865 0.17795 0.60726 0.0
C1177 C 0.53811 0.16804 0.56304 0.0
C1178 C 0.59024 0.21844 0.72057 0.0
C1179 C 0.60608 0.2062 0.75088 0.0
C1180 C 0.57888 0.20831 0.67785 0.0
C1181 C 0.58332 0.18575 0.66345 0.0
C1182 C 0.59897 0.1734 0.69408 0.0
C1183 C 0.61003 0.18341 0.7375 0.0
H1184 H 0.96407 0.61183 0.12673 0.0
H1185 H 0.91982 0.62447 0.99413 0.0
H1186 H 0.93491 0.62372 0.18695 0.0
H1187 H 0.88944 0.63465 0.05493 0.0
H1188 H 0.88062 0.70254 0.14453 0.0
H1189 H 0.8885 0.66972 0.0919 0.0
H1190 H 0.90292 0.63129 0.23407 0.0
H1191 H 0.89637 0.66524 0.28681 0.0
C1192 C 0.94767 0.61628 0.11065 0.0
C1193 C 0.94443 0.61848 0.05602 0.0
C1194 C 0.93065 0.62284 0.14537 0.0
C1195 C 0.91005 0.63138 0.12575 0.0
C1196 C 0.90554 0.62938 0.07122 0.0
C1197 C 0.92287 0.62357 0.03636 0.0
C1198 C 0.88516 0.68701 0.16468 0.0
C1199 C 0.88901 0.68664 0.21933 0.0
C1200 C 0.88931 0.66785 0.13445 0.0
C1201 C 0.89719 0.64782 0.15841 0.0
C1202 C 0.89782 0.64667 0.21406 0.0
C1203 C 0.89417 0.66609 0.2443 0.0
H1204 H 0.56573 0.69345 0.2021 0.0
H1205 H 0.63385 0.66982 0.23114 0.0
H1206 H 0.55271 0.67301 0.27995 0.0
H1207 H 0.62094 0.65008 0.3096 0.0
H1208 H 0.58984 0.62413 0.46312 0.0
H1209 H 0.5968 0.62608 0.36803 0.0
H1210 H 0.56586 0.69231 0.36365 0.0
H1211 H 0.55858 0.69034 0.45786 0.0
C1212 C 0.57773 0.68314 0.22372 0.0
C1213 C 0.60097 0.68426 0.21288 0.0
C1214 C 0.57029 0.67148 0.26825 0.0
C1215 C 0.58611 0.66111 0.30186 0.0
C1216 C 0.60851 0.65841 0.28485 0.0
C1217 C 0.61592 0.6699 0.2401 0.0
C1218 C 0.58475 0.63921 0.44185 0.0
C1219 C 0.5735 0.65706 0.46778 0.0
C1220 C 0.58846 0.64012 0.38747 0.0
C1221 C 0.58101 0.65888 0.35844 0.0
C1222 C 0.57086 0.67718 0.38485 0.0
C1223 C 0.56719 0.6763 0.43903 0.0
H1224 H 0.55256 0.30669 0.54249 0.0
H1225 H 0.57328 0.37655 0.55956 0.0
H1226 H 0.55361 0.30222 0.63783 0.0
H1227 H 0.57348 0.3723 0.65516 0.0
H1228 H 0.61502 0.33216 0.78574 0.0
H1229 H 0.59892 0.35235 0.71172 0.0
H1230 H 0.53796 0.31218 0.72398 0.0
H1231 H 0.55456 0.29128 0.79741 0.0
C1232 C 0.55728 0.32108 0.56664 0.0
C1233 C 0.56327 0.34177 0.54353 0.0
C1234 C 0.55732 0.31874 0.62136 0.0
C1235 C 0.56324 0.33709 0.65404 0.0
C1236 C 0.56881 0.35792 0.63093 0.0
C1237 C 0.56901 0.3602 0.57616 0.0
C1238 C 0.59783 0.32823 0.77397 0.0
C1239 C 0.5865 0.30937 0.79481 0.0
C1240 C 0.58846 0.33998 0.73178 0.0
C1241 C 0.56766 0.33297 0.71056 0.0
C1242 C 0.55444 0.31723 0.73857 0.0
C1243 C 0.56391 0.30534 0.78065 0.0
H1244 H 0.91839 0.32738 1.00214 0.0
H1245 H 0.93484 0.39862 0.99303 0.0
H1246 H 0.89467 0.3313 0.92416 0.0
H1247 H 0.91198 0.4021 0.91357 0.0
H1248 H 0.93776 0.35308 0.75866 0.0
H1249 H 0.93457 0.37466 0.84019 0.0
H1250 H 0.86486 0.35402 0.85629 0.0
H1251 H 0.86755 0.33333 0.77345 0.0
C1252 C 0.91619 0.34403 0.98494 0.0
C1253 C 0.92935 0.36237 1.00183 0.0
C1254 C 0.90236 0.34639 0.94064 0.0
C1255 C 0.90211 0.36691 0.9124 0.0
C1256 C 0.9121 0.38613 0.93466 0.0
C1257 C 0.92545 0.38393 0.97974 0.0
C1258 C 0.92144 0.35411 0.77802 0.0
C1259 C 0.90329 0.34068 0.76127 0.0
C1260 C 0.91948 0.36671 0.82438 0.0
C1261 C 0.89957 0.36543 0.85479 0.0
C1262 C 0.88034 0.35511 0.83346 0.0
C1263 C 0.8821 0.34302 0.78636 0.0
H1264 H 0.11815 0.31491 0.75427 0.0
H1265 H 0.08764 0.25174 0.8023 0.0
H1266 H 0.09779 0.33454 0.82466 0.0
H1267 H 0.06687 0.27164 0.87237 0.0
H1268 H 0.01674 0.32469 0.95299 0.0
H1269 H 0.03573 0.30342 0.88227 0.0
H1270 H 0.09951 0.33335 0.92679 0.0
H1271 H 0.08082 0.35418 0.99775 0.0
C1272 C 0.10694 0.3052 0.77947 0.0
C1273 C 0.10463 0.28166 0.77247 0.0
C1274 C 0.09535 0.31647 0.82008 0.0
C1275 C 0.08076 0.30467 0.85432 0.0
C1276 C 0.07791 0.28125 0.84656 0.0
C1277 C 0.08989 0.26984 0.8065 0.0
C1278 C 0.03484 0.32662 0.94791 0.0
C1279 C 0.0472 0.34119 0.98127 0.0
C1280 C 0.04572 0.31437 0.90747 0.0
C1281 C 0.06912 0.31678 0.89867 0.0
C1282 C 0.08144 0.33126 0.93215 0.0
C1283 C 0.0707 0.34311 0.97311 0.0
H1284 H 0.41869 0.25948 0.66767 0.0
H1285 H 0.43418 0.31521 0.77202 0.0
H1286 H 0.43671 0.27967 0.59421 0.0
H1287 H 0.45252 0.33515 0.69876 0.0
H1288 H 0.50602 0.35007 0.56846 0.0
H1289 H 0.48744 0.3298 0.64032 0.0
H1290 H 0.43029 0.31617 0.53906 0.0
H1291 H 0.44878 0.33691 0.4667 0.0
C1292 C 0.42606 0.27595 0.67513 0.0
C1293 C 0.42497 0.28564 0.72604 0.0
C1294 C 0.43625 0.2876 0.63282 0.0
C1295 C 0.44605 0.30907 0.64043 0.0
C1296 C 0.44525 0.31861 0.69148 0.0
C1297 C 0.43467 0.30718 0.73352 0.0
C1298 C 0.48945 0.34285 0.56123 0.0
C1299 C 0.47891 0.34529 0.51147 0.0
C1300 C 0.47876 0.33126 0.60273 0.0
C1301 C 0.45733 0.32138 0.59568 0.0
C1302 C 0.44685 0.32349 0.54579 0.0
C1303 C 0.4574 0.33547 0.50436 0.0
H1304 H 0.45001 0.66574 0.52544 0.0
H1305 H 0.50668 0.64744 0.42643 0.0
H1306 H 0.43161 0.68363 0.44923 0.0
H1307 H 0.48803 0.66489 0.35028 0.0
H1308 H 0.43284 0.67613 0.21779 0.0
H1309 H 0.45192 0.65834 0.2934 0.0
H1310 H 0.43915 0.71781 0.38768 0.0
H1311 H 0.42058 0.73576 0.31221 0.0
C1312 C 0.45854 0.66546 0.48751 0.0
C1313 C 0.47989 0.6551 0.48238 0.0
C1314 C 0.44801 0.67579 0.4438 0.0
C1315 C 0.45828 0.67566 0.39348 0.0
C1316 C 0.47953 0.66515 0.38826 0.0
C1317 C 0.49027 0.65524 0.43212 0.0
C1318 C 0.43419 0.68546 0.25454 0.0
C1319 C 0.42516 0.70745 0.25859 0.0
C1320 C 0.44519 0.67528 0.29788 0.0
C1321 C 0.447 0.68659 0.3468 0.0
C1322 C 0.4379 0.70852 0.35084 0.0
C1323 C 0.42736 0.71887 0.30731 0.0
H1324 H 0.10254 0.68537 0.28369 0.0
H1325 H 0.11191 0.74433 0.18516 0.0
H1326 H 0.08183 0.66679 0.21176 0.0
H1327 H 0.09153 0.72563 0.1133 0.0
H1328 H 0.07788 0.67301 0.97912 0.0
H1329 H 0.09749 0.69209 0.05186 0.0
H1330 H 0.04503 0.67094 0.1598 0.0
H1331 H 0.02522 0.65213 0.08705 0.0
C1332 C 0.10016 0.69442 0.24684 0.0
C1333 C 0.10894 0.71643 0.24055 0.0
C1334 C 0.0882 0.68378 0.2056 0.0
C1335 C 0.08505 0.69465 0.15651 0.0
C1336 C 0.09379 0.71665 0.15028 0.0
C1337 C 0.10537 0.72744 0.19177 0.0
C1338 C 0.07045 0.67247 0.01829 0.0
C1339 C 0.04986 0.66102 0.02692 0.0
C1340 C 0.08168 0.68351 0.06003 0.0
C1341 C 0.07289 0.68308 0.11186 0.0
C1342 C 0.0524 0.6715 0.12057 0.0
C1343 C 0.04096 0.66081 0.07867 0.0
loop_
_geom_bond_atom_site_label_1
_geom_bond_atom_site_label_2
_geom_bond_distance
_geom_bond_site_symmetry_2
_ccdc_geom_bond_type
Co0 O3 1.970 . S
Co0 N17 1.989 . S
Co0 O25 1.967 . S
Co0 O32 1.920 . S
Co1 O4 1.966 . S
Co1 N10 2.022 . S
Co1 N18 1.993 . S
Co1 O26 1.941 . S
C2 O3 1.258 . S
C2 O4 1.263 . S
O3 Co0 1.970 . S
O3 C2 1.258 . S
O4 Co1 1.966 . S
O4 C2 1.263 . S
C5 O6 1.235 . S
C5 O32 1.289 . S
O6 C5 1.235 . S
C7 C9 1.400 . S
C7 N10 1.351 . S
C7 C12 1.501 . S
C8 C9 1.387 . S
C8 N11 1.341 . S
C9 C7 1.400 . S
C9 C8 1.387 . S
N10 Co1 2.022 . S
N10 C7 1.351 . S
N10 N11 1.365 . S
N11 C8 1.341 . S
N11 N10 1.365 . S
N11 H31 0.862 . S
C12 C7 1.501 . S
C12 H13 0.961 . S
C12 H14 0.961 . S
C12 H15 0.960 . S
H13 C12 0.961 . S
H14 C12 0.961 . S
H15 C12 0.960 . S
C16 N17 1.342 . S
C16 C20 1.401 . S
C16 C21 1.499 . S
N17 Co0 1.989 . S
N17 C16 1.342 . S
N17 N18 1.388 . S
N18 Co1 1.993 . S
N18 N17 1.388 . S
N18 C19 1.346 . S
C19 N18 1.346 . S
C19 C20 1.396 . S
C19 C29 1.510 . S
C20 C16 1.401 . S
C20 C19 1.396 . S
C21 C16 1.499 . S
C21 H22 0.959 . S
C21 H23 0.960 . S
C21 H24 0.961 . S
H22 C21 0.959 . S
H23 C21 0.960 . S
H24 C21 0.961 . S
O25 Co0 1.967 . S
O25 C33 1.258 . S
O26 Co1 1.941 . S
O26 C33 1.266 . S
H27 C29 0.959 . S
H28 C29 0.961 . S
C29 C19 1.510 . S
C29 H27 0.959 . S
C29 H28 0.961 . S
C29 H30 0.960 . S
H30 C29 0.960 . S
H31 N11 0.862 . S
O32 Co0 1.920 . S
O32 C5 1.289 . S
C33 O25 1.258 . S
C33 O26 1.266 . S
Co34 O37 1.970 . S
Co34 N51 1.989 . S
Co34 O59 1.967 . S
Co34 O66 1.920 . S
Co35 O38 1.966 . S
Co35 N44 2.022 . S
Co35 N52 1.993 . S
Co35 O60 1.941 . S
C36 O37 1.258 . S
C36 O38 1.263 . S
O37 Co34 1.970 . S
O37 C36 1.258 . S
O38 Co35 1.966 . S
O38 C36 1.263 . S
C39 O40 1.235 . S
C39 O66 1.289 . S
O40 C39 1.235 . S
C41 C43 1.400 . S
C41 N44 1.351 . S
C41 C46 1.501 . S
C42 C43 1.387 . S
C42 N45 1.341 . S
C43 C41 1.400 . S
C43 C42 1.387 . S
N44 Co35 2.022 . S
N44 C41 1.351 . S
N44 N45 1.365 . S
N45 C42 1.341 . S
N45 N44 1.365 . S
N45 H65 0.862 . S
C46 C41 1.501 . S
C46 H47 0.961 . S
C46 H48 0.961 . S
C46 H49 0.960 . S
H47 C46 0.961 . S
H48 C46 0.961 . S
H49 C46 0.960 . S
C50 N51 1.342 . S
C50 C54 1.401 . S
C50 C55 1.499 . S
N51 Co34 1.989 . S
N51 C50 1.342 . S
N51 N52 1.388 . S
N52 Co35 1.993 . S
N52 N51 1.388 . S
N52 C53 1.346 . S
C53 N52 1.346 . S
C53 C54 1.396 . S
C53 C63 1.510 . S
C54 C50 1.401 . S
C54 C53 1.396 . S
C55 C50 1.499 . S
C55 H56 0.959 . S
C55 H57 0.960 . S
C55 H58 0.961 . S
H56 C55 0.959 . S
H57 C55 0.960 . S
H58 C55 0.961 . S
O59 Co34 1.967 . S
O59 C67 1.258 . S
O60 Co35 1.941 . S
O60 C67 1.266 . S
H61 C63 0.959 . S
H62 C63 0.961 . S
C63 C53 1.510 . S
C63 H61 0.959 . S
C63 H62 0.961 . S
C63 H64 0.960 . S
H64 C63 0.960 . S
H65 N45 0.862 . S
O66 Co34 1.920 . S
O66 C39 1.289 . S
C67 O59 1.258 . S
C67 O60 1.266 . S
Co68 O71 1.970 . S
Co68 N85 1.989 . S
Co68 O93 1.967 . S
Co68 O100 1.920 . S
Co69 O72 1.966 . S
Co69 N78 2.022 . S
Co69 N86 1.993 1_655 S
Co69 O94 1.941 . S
C70 O71 1.258 1_655 S
C70 O72 1.263 . S
O71 Co68 1.970 . S
O71 C70 1.258 1_455 S
O72 Co69 1.966 . S
O72 C70 1.263 . S
C73 O74 1.235 1_554 S
C73 O100 1.289 1_554 S
O74 C73 1.235 1_556 S
C75 C77 1.400 . S
C75 N78 1.351 . S
C75 C80 1.501 . S
C76 C77 1.387 . S
C76 N79 1.341 . S
C77 C75 1.400 . S
C77 C76 1.387 . S
N78 Co69 2.022 . S
N78 C75 1.351 . S
N78 N79 1.365 . S
N79 C76 1.341 . S
N79 N78 1.365 . S
N79 H99 0.862 . S
C80 C75 1.501 . S
C80 H81 0.961 . S
C80 H82 0.961 . S
C80 H83 0.960 . S
H81 C80 0.961 . S
H82 C80 0.961 . S
H83 C80 0.960 . S
C84 N85 1.342 . S
C84 C88 1.401 . S
C84 C89 1.499 . S
N85 Co68 1.989 . S
N85 C84 1.342 . S
N85 N86 1.388 . S
N86 Co69 1.993 1_455 S
N86 N85 1.388 . S
N86 C87 1.346 . S
C87 N86 1.346 . S
C87 C88 1.396 . S
C87 C97 1.510 . S
C88 C84 1.401 . S
C88 C87 1.396 . S
C89 C84 1.499 . S
C89 H90 0.959 . S
C89 H91 0.960 . S
C89 H92 0.961 . S
H90 C89 0.959 . S
H91 C89 0.960 . S
H92 C89 0.961 . S
O93 Co68 1.967 . S
O93 C101 1.258 . S
O94 Co69 1.941 . S
O94 C101 1.266 1_655 S
H95 C97 0.959 . S
H96 C97 0.961 . S
C97 C87 1.510 . S
C97 H95 0.959 . S
C97 H96 0.961 . S
C97 H98 0.960 . S
H98 C97 0.960 . S
H99 N79 0.862 . S
O100 Co68 1.920 . S
O100 C73 1.289 1_556 S
C101 O93 1.258 . S
C101 O94 1.266 1_455 S
Co102 O105 1.970 . S
Co102 N119 1.989 . S
Co102 O127 1.967 . S
Co102 O134 1.920 . S
Co103 O106 1.966 . S
Co103 N112 2.022 . S
Co103 N120 1.993 . S
Co103 O128 1.941 . S
C104 O105 1.258 . S
C104 O106 1.263 . S
O105 Co102 1.970 . S
O105 C104 1.258 . S
O106 Co103 1.966 . S
O106 C104 1.263 . S
C107 O108 1.235 . S
C107 O134 1.289 . S
O108 C107 1.235 . S
C109 C111 1.400 1_554 S
C109 N112 1.351 . S
C109 C114 1.501 . S
C110 C111 1.387 . S
C110 N113 1.341 . S
C111 C109 1.400 1_556 S
C111 C110 1.387 . S
N112 Co103 2.022 . S
N112 C109 1.351 . S
N112 N113 1.365 1_554 S
N113 C110 1.341 . S
N113 N112 1.365 1_556 S
N113 H133 0.862 . S
C114 C109 1.501 . S
C114 H115 0.961 . S
C114 H116 0.961 . S
C114 H117 0.960 . S
H115 C114 0.961 . S
H116 C114 0.961 . S
H117 C114 0.960 . S
C118 N119 1.342 . S
C118 C122 1.401 . S
C118 C123 1.499 . S
N119 Co102 1.989 . S
N119 C118 1.342 . S
N119 N120 1.388 . S
N120 Co103 1.993 . S
N120 N119 1.388 . S
N120 C121 1.346 . S
C121 N120 1.346 . S
C121 C122 1.396 . S
C121 C131 1.510 1_554 S
C122 C118 1.401 . S
C122 C121 1.396 . S
C123 C118 1.499 . S
C123 H124 0.959 . S
C123 H125 0.960 . S
C123 H126 0.961 . S
H124 C123 0.959 . S
H125 C123 0.960 . S
H126 C123 0.961 . S
O127 Co102 1.967 . S
O127 C135 1.258 . S
O128 Co103 1.941 . S
O128 C135 1.266 . S
H129 C131 0.959 . S
H130 C131 0.961 . S
C131 C121 1.510 1_556 S
C131 H129 0.959 . S
C131 H130 0.961 . S
C131 H132 0.960 . S
H132 C131 0.960 . S
H133 N113 0.862 . S
O134 Co102 1.920 . S
O134 C107 1.289 . S
C135 O127 1.258 . S
C135 O128 1.266 . S
Co136 O139 1.970 . S
Co136 N153 1.989 . S
Co136 O161 1.967 . S
Co136 O168 1.920 . S
Co137 O140 1.966 . S
Co137 N146 2.022 . S
Co137 N154 1.993 . S
Co137 O162 1.941 . S
C138 O139 1.258 . S
C138 O140 1.263 . S
O139 Co136 1.970 . S
O139 C138 1.258 . S
O140 Co137 1.966 . S
O140 C138 1.263 . S
C141 O142 1.235 . S
C141 O168 1.289 . S
O142 C141 1.235 . S
C143 C145 1.400 . S
C143 N146 1.351 . S
C143 C148 1.501 . S
C144 C145 1.387 . S
C144 N147 1.341 . S
C145 C143 1.400 . S
C145 C144 1.387 . S
N146 Co137 2.022 . S
N146 C143 1.351 . S
N146 N147 1.365 . S
N147 C144 1.341 . S
N147 N146 1.365 . S
N147 H167 0.862 . S
C148 C143 1.501 . S
C148 H149 0.961 . S
C148 H150 0.961 . S
C148 H151 0.960 . S
H149 C148 0.961 . S
H150 C148 0.961 . S
H151 C148 0.960 . S
C152 N153 1.342 . S
C152 C156 1.401 . S
C152 C157 1.499 . S
N153 Co136 1.989 . S
N153 C152 1.342 . S
N153 N154 1.388 . S
N154 Co137 1.993 . S
N154 N153 1.388 . S
N154 C155 1.346 . S
C155 N154 1.346 . S
C155 C156 1.396 . S
C155 C165 1.510 . S
C156 C152 1.401 . S
C156 C155 1.396 . S
C157 C152 1.499 . S
C157 H158 0.959 . S
C157 H159 0.960 . S
C157 H160 0.961 . S
H158 C157 0.959 . S
H159 C157 0.960 . S
H160 C157 0.961 . S
O161 Co136 1.967 . S
O161 C169 1.258 . S
O162 Co137 1.941 . S
O162 C169 1.266 . S
H163 C165 0.959 . S
H164 C165 0.961 . S
C165 C155 1.510 . S
C165 H163 0.959 . S
C165 H164 0.961 . S
C165 H166 0.960 . S
H166 C165 0.960 . S
H167 N147 0.862 . S
O168 Co136 1.920 . S
O168 C141 1.289 . S
C169 O161 1.258 . S
C169 O162 1.266 . S
Co170 O173 1.970 . S
Co170 N187 1.989 . S
Co170 O195 1.967 . S
Co170 O202 1.920 . S
Co171 O174 1.966 . S
Co171 N180 2.022 . S
Co171 N188 1.993 . S
Co171 O196 1.941 . S
C172 O173 1.258 . S
C172 O174 1.263 . S
O173 Co170 1.970 . S
O173 C172 1.258 . S
O174 Co171 1.966 . S
O174 C172 1.263 . S
C175 O176 1.235 . S
C175 O202 1.289 . S
O176 C175 1.235 . S
C177 C179 1.400 1_556 S
C177 N180 1.351 . S
C177 C182 1.501 . S
C178 C179 1.387 . S
C178 N181 1.341 . S
C179 C177 1.400 1_554 S
C179 C178 1.387 . S
N180 Co171 2.022 . S
N180 C177 1.351 . S
N180 N181 1.365 1_556 S
N181 C178 1.341 . S
N181 N180 1.365 1_554 S
N181 H201 0.862 . S
C182 C177 1.501 . S
C182 H183 0.961 . S
C182 H184 0.961 . S
C182 H185 0.960 . S
H183 C182 0.961 . S
H184 C182 0.961 . S
H185 C182 0.960 . S
C186 N187 1.342 . S
C186 C190 1.401 . S
C186 C191 1.499 . S
N187 Co170 1.989 . S
N187 C186 1.342 . S
N187 N188 1.388 . S
N188 Co171 1.993 . S
N188 N187 1.388 . S
N188 C189 1.346 . S
C189 N188 1.346 . S
C189 C190 1.396 . S
C189 C199 1.510 1_556 S
C190 C186 1.401 . S
C190 C189 1.396 . S
C191 C186 1.499 . S
C191 H192 0.959 . S
C191 H193 0.960 . S
C191 H194 0.961 . S
H192 C191 0.959 . S
H193 C191 0.960 . S
H194 C191 0.961 . S
O195 Co170 1.967 . S
O195 C203 1.258 . S
O196 Co171 1.941 . S
O196 C203 1.266 . S
H197 C199 0.959 . S
H198 C199 0.961 . S
C199 C189 1.510 1_554 S
C199 H197 0.959 . S
C199 H198 0.961 . S
C199 H200 0.960 . S
H200 C199 0.960 . S
H201 N181 0.862 . S
O202 Co170 1.920 . S
O202 C175 1.289 . S
C203 O195 1.258 . S
C203 O196 1.266 . S
Co204 O207 1.970 . S
Co204 N221 1.989 . S
Co204 O229 1.967 . S
Co204 O236 1.920 . S
Co205 O208 1.966 . S
Co205 N214 2.022 . S
Co205 N222 1.993 1_655 S
Co205 O230 1.941 . S
C206 O207 1.258 1_655 S
C206 O208 1.263 . S
O207 Co204 1.970 . S
O207 C206 1.258 1_455 S
O208 Co205 1.966 . S
O208 C206 1.263 . S
C209 O210 1.235 1_556 S
C209 O236 1.289 1_556 S
O210 C209 1.235 1_554 S
C211 C213 1.400 . S
C211 N214 1.351 . S
C211 C216 1.501 . S
C212 C213 1.387 . S
C212 N215 1.341 . S
C213 C211 1.400 . S
C213 C212 1.387 . S
N214 Co205 2.022 . S
N214 C211 1.351 . S
N214 N215 1.365 . S
N215 C212 1.341 . S
N215 N214 1.365 . S
N215 H235 0.862 . S
C216 C211 1.501 . S
C216 H217 0.961 . S
C216 H218 0.961 . S
C216 H219 0.960 . S
H217 C216 0.961 . S
H218 C216 0.961 . S
H219 C216 0.960 . S
C220 N221 1.342 . S
C220 C224 1.401 . S
C220 C225 1.499 . S
N221 Co204 1.989 . S
N221 C220 1.342 . S
N221 N222 1.388 . S
N222 Co205 1.993 1_455 S
N222 N221 1.388 . S
N222 C223 1.346 . S
C223 N222 1.346 . S
C223 C224 1.396 . S
C223 C233 1.510 . S
C224 C220 1.401 . S
C224 C223 1.396 . S
C225 C220 1.499 . S
C225 H226 0.959 . S
C225 H227 0.960 . S
C225 H228 0.961 . S
H226 C225 0.959 . S
H227 C225 0.960 . S
H228 C225 0.961 . S
O229 Co204 1.967 . S
O229 C237 1.258 . S
O230 Co205 1.941 . S
O230 C237 1.266 1_655 S
H231 C233 0.959 . S
H232 C233 0.961 . S
C233 C223 1.510 . S
C233 H231 0.959 . S
C233 H232 0.961 . S
C233 H234 0.960 . S
H234 C233 0.960 . S
H235 N215 0.862 . S
O236 Co204 1.920 . S
O236 C209 1.289 1_554 S
C237 O229 1.258 . S
C237 O230 1.266 1_455 S
Co238 O241 1.970 . S
Co238 N255 1.989 . S
Co238 O263 1.967 . S
Co238 O270 1.920 . S
Co239 O242 1.966 . S
Co239 N248 2.022 . S
Co239 N256 1.993 . S
Co239 O264 1.941 . S
C240 O241 1.258 . S
C240 O242 1.263 . S
O241 Co238 1.970 . S
O241 C240 1.258 . S
O242 Co239 1.966 . S
O242 C240 1.263 . S
C243 O244 1.235 . S
C243 O270 1.289 . S
O244 C243 1.235 . S
C245 C247 1.400 . S
C245 N248 1.351 . S
C245 C250 1.501 . S
C246 C247 1.387 . S
C246 N249 1.341 . S
C247 C245 1.400 . S
C247 C246 1.387 . S
N248 Co239 2.022 . S
N248 C245 1.351 . S
N248 N249 1.365 . S
N249 C246 1.341 . S
N249 N248 1.365 . S
N249 H269 0.862 . S
C250 C245 1.501 . S
C250 H251 0.961 . S
C250 H252 0.961 . S
C250 H253 0.960 . S
H251 C250 0.961 . S
H252 C250 0.961 . S
H253 C250 0.960 . S
C254 N255 1.342 . S
C254 C258 1.401 . S
C254 C259 1.499 . S
N255 Co238 1.989 . S
N255 C254 1.342 . S
N255 N256 1.388 . S
N256 Co239 1.993 . S
N256 N255 1.388 . S
N256 C257 1.346 . S
C257 N256 1.346 . S
C257 C258 1.396 . S
C257 C267 1.510 . S
C258 C254 1.401 . S
C258 C257 1.396 . S
C259 C254 1.499 . S
C259 H260 0.959 . S
C259 H261 0.960 . S
C259 H262 0.961 . S
H260 C259 0.959 . S
H261 C259 0.960 . S
H262 C259 0.961 . S
O263 Co238 1.967 . S
O263 C271 1.258 . S
O264 Co239 1.941 . S
O264 C271 1.266 . S
H265 C267 0.959 . S
H266 C267 0.961 . S
C267 C257 1.510 . S
C267 H265 0.959 . S
C267 H266 0.961 . S
C267 H268 0.960 . S
H268 C267 0.960 . S
H269 N249 0.862 . S
O270 Co238 1.920 . S
O270 C243 1.289 . S
C271 O263 1.258 . S
C271 O264 1.266 . S
Co272 O275 1.970 . S
Co272 N289 1.989 . S
Co272 O297 1.967 . S
Co272 O304 1.920 . S
Co273 O276 1.966 . S
Co273 N282 2.022 . S
Co273 N290 1.993 . S
Co273 O298 1.941 . S
C274 O275 1.258 . S
C274 O276 1.263 . S
O275 Co272 1.970 . S
O275 C274 1.258 . S
O276 Co273 1.966 . S
O276 C274 1.263 . S
C277 O278 1.235 . S
C277 O304 1.289 . S
O278 C277 1.235 . S
C279 C281 1.400 . S
C279 N282 1.351 . S
C279 C284 1.501 . S
C280 C281 1.387 . S
C280 N283 1.341 . S
C281 C279 1.400 . S
C281 C280 1.387 . S
N282 Co273 2.022 . S
N282 C279 1.351 . S
N282 N283 1.365 . S
N283 C280 1.341 . S
N283 N282 1.365 . S
N283 H303 0.862 . S
C284 C279 1.501 . S
C284 H285 0.961 . S
C284 H286 0.961 . S
C284 H287 0.960 . S
H285 C284 0.961 . S
H286 C284 0.961 . S
H287 C284 0.960 . S
C288 N289 1.342 . S
C288 C292 1.401 . S
C288 C293 1.499 . S
N289 Co272 1.989 . S
N289 C288 1.342 . S
N289 N290 1.388 . S
N290 Co273 1.993 . S
N290 N289 1.388 . S
N290 C291 1.346 . S
C291 N290 1.346 . S
C291 C292 1.396 . S
C291 C301 1.510 . S
C292 C288 1.401 . S
C292 C291 1.396 . S
C293 C288 1.499 . S
C293 H294 0.959 . S
C293 H295 0.960 . S
C293 H296 0.961 . S
H294 C293 0.959 . S
H295 C293 0.960 . S
H296 C293 0.961 . S
O297 Co272 1.967 . S
O297 C305 1.258 . S
O298 Co273 1.941 . S
O298 C305 1.266 . S
H299 C301 0.959 . S
H300 C301 0.961 . S
C301 C291 1.510 . S
C301 H299 0.959 . S
C301 H300 0.961 . S
C301 H302 0.960 . S
H302 C301 0.960 . S
H303 N283 0.862 . S
O304 Co272 1.920 . S
O304 C277 1.289 . S
C305 O297 1.258 . S
C305 O298 1.266 . S
Co306 O309 1.970 . S
Co306 N323 1.989 . S
Co306 O331 1.967 . S
Co306 O338 1.920 . S
Co307 O310 1.966 . S
Co307 N316 2.022 . S
Co307 N324 1.993 . S
Co307 O332 1.941 . S
C308 O309 1.258 . S
C308 O310 1.263 . S
O309 Co306 1.970 . S
O309 C308 1.258 . S
O310 Co307 1.966 . S
O310 C308 1.263 . S
C311 O312 1.235 . S
C311 O338 1.289 . S
O312 C311 1.235 . S
C313 C315 1.400 1_556 S
C313 N316 1.351 . S
C313 C318 1.501 . S
C314 C315 1.387 . S
C314 N317 1.341 . S
C315 C313 1.400 1_554 S
C315 C314 1.387 . S
N316 Co307 2.022 . S
N316 C313 1.351 . S
N316 N317 1.365 1_556 S
N317 C314 1.341 . S
N317 N316 1.365 1_554 S
N317 H337 0.862 . S
C318 C313 1.501 . S
C318 H319 0.961 . S
C318 H320 0.961 . S
C318 H321 0.960 . S
H319 C318 0.961 . S
H320 C318 0.961 . S
H321 C318 0.960 . S
C322 N323 1.342 . S
C322 C326 1.401 . S
C322 C327 1.499 . S
N323 Co306 1.989 . S
N323 C322 1.342 . S
N323 N324 1.388 . S
N324 Co307 1.993 . S
N324 N323 1.388 . S
N324 C325 1.346 . S
C325 N324 1.346 . S
C325 C326 1.396 . S
C325 C335 1.510 1_556 S
C326 C322 1.401 . S
C326 C325 1.396 . S
C327 C322 1.499 . S
C327 H328 0.959 . S
C327 H329 0.960 . S
C327 H330 0.961 . S
H328 C327 0.959 . S
H329 C327 0.960 . S
H330 C327 0.961 . S
O331 Co306 1.967 . S
O331 C339 1.258 . S
O332 Co307 1.941 . S
O332 C339 1.266 . S
H333 C335 0.959 . S
H334 C335 0.961 . S
C335 C325 1.510 1_554 S
C335 H333 0.959 . S
C335 H334 0.961 . S
C335 H336 0.960 . S
H336 C335 0.960 . S
H337 N317 0.862 . S
O338 Co306 1.920 . S
O338 C311 1.289 . S
C339 O331 1.258 . S
C339 O332 1.266 . S
Co340 O343 1.970 . S
Co340 N357 1.989 . S
Co340 O365 1.967 . S
Co340 O372 1.920 . S
Co341 O344 1.966 . S
Co341 N350 2.022 . S
Co341 N358 1.993 . S
Co341 O366 1.941 . S
C342 O343 1.258 . S
C342 O344 1.263 . S
O343 Co340 1.970 . S
O343 C342 1.258 . S
O344 Co341 1.966 . S
O344 C342 1.263 . S
C345 O346 1.235 . S
C345 O372 1.289 . S
O346 C345 1.235 . S
C347 C349 1.400 1_554 S
C347 N350 1.351 . S
C347 C352 1.501 . S
C348 C349 1.387 . S
C348 N351 1.341 . S
C349 C347 1.400 1_556 S
C349 C348 1.387 . S
N350 Co341 2.022 . S
N350 C347 1.351 . S
N350 N351 1.365 1_554 S
N351 C348 1.341 . S
N351 N350 1.365 1_556 S
N351 H371 0.862 . S
C352 C347 1.501 . S
C352 H353 0.961 . S
C352 H354 0.961 . S
C352 H355 0.960 . S
H353 C352 0.961 . S
H354 C352 0.961 . S
H355 C352 0.960 . S
C356 N357 1.342 . S
C356 C360 1.401 . S
C356 C361 1.499 . S
N357 Co340 1.989 . S
N357 C356 1.342 . S
N357 N358 1.388 . S
N358 Co341 1.993 . S
N358 N357 1.388 . S
N358 C359 1.346 . S
C359 N358 1.346 . S
C359 C360 1.396 . S
C359 C369 1.510 1_554 S
C360 C356 1.401 . S
C360 C359 1.396 . S
C361 C356 1.499 . S
C361 H362 0.959 . S
C361 H363 0.960 . S
C361 H364 0.961 . S
H362 C361 0.959 . S
H363 C361 0.960 . S
H364 C361 0.961 . S
O365 Co340 1.967 . S
O365 C373 1.258 . S
O366 Co341 1.941 . S
O366 C373 1.266 . S
H367 C369 0.959 . S
H368 C369 0.961 . S
C369 C359 1.510 1_556 S
C369 H367 0.959 . S
C369 H368 0.961 . S
C369 H370 0.960 . S
H370 C369 0.960 . S
H371 N351 0.862 . S
O372 Co340 1.920 . S
O372 C345 1.289 . S
C373 O365 1.258 . S
C373 O366 1.266 . S
Co374 O377 1.970 . S
Co374 N391 1.989 . S
Co374 O399 1.967 . S
Co374 O406 1.920 . S
Co375 O378 1.966 . S
Co375 N384 2.022 . S
Co375 N392 1.993 . S
Co375 O400 1.941 . S
C376 O377 1.258 . S
C376 O378 1.263 . S
O377 Co374 1.970 . S
O377 C376 1.258 . S
O378 Co375 1.966 . S
O378 C376 1.263 . S
C379 O380 1.235 . S
C379 O406 1.289 . S
O380 C379 1.235 . S
C381 C383 1.400 . S
C381 N384 1.351 . S
C381 C386 1.501 . S
C382 C383 1.387 . S
C382 N385 1.341 . S
C383 C381 1.400 . S
C383 C382 1.387 . S
N384 Co375 2.022 . S
N384 C381 1.351 . S
N384 N385 1.365 . S
N385 C382 1.341 . S
N385 N384 1.365 . S
N385 H405 0.862 . S
C386 C381 1.501 . S
C386 H387 0.961 . S
C386 H388 0.961 . S
C386 H389 0.960 . S
H387 C386 0.961 . S
H388 C386 0.961 . S
H389 C386 0.960 . S
C390 N391 1.342 . S
C390 C394 1.401 . S
C390 C395 1.499 . S
N391 Co374 1.989 . S
N391 C390 1.342 . S
N391 N392 1.388 . S
N392 Co375 1.993 . S
N392 N391 1.388 . S
N392 C393 1.346 . S
C393 N392 1.346 . S
C393 C394 1.396 . S
C393 C403 1.510 . S
C394 C390 1.401 . S
C394 C393 1.396 . S
C395 C390 1.499 . S
C395 H396 0.959 . S
C395 H397 0.960 . S
C395 H398 0.961 . S
H396 C395 0.959 . S
H397 C395 0.960 . S
H398 C395 0.961 . S
O399 Co374 1.967 . S
O399 C407 1.258 . S
O400 Co375 1.941 . S
O400 C407 1.266 . S
H401 C403 0.959 . S
H402 C403 0.961 . S
C403 C393 1.510 . S
C403 H401 0.959 . S
C403 H402 0.961 . S
C403 H404 0.960 . S
H404 C403 0.960 . S
H405 N385 0.862 . S
O406 Co374 1.920 . S
O406 C379 1.289 . S
C407 O399 1.258 . S
C407 O400 1.266 . S
Co408 O411 1.970 1_655 S
Co408 N425 1.989 . S
Co408 O433 1.967 1_655 S
Co408 O440 1.920 . S
Co409 O412 1.966 . S
Co409 N418 2.022 . S
Co409 N426 1.993 . S
Co409 O434 1.941 . S
C410 O411 1.258 . S
C410 O412 1.263 . S
O411 Co408 1.970 1_455 S
O411 C410 1.258 . S
O412 Co409 1.966 . S
O412 C410 1.263 . S
C413 O414 1.235 1_554 S
C413 O440 1.289 1_554 S
O414 C413 1.235 1_556 S
C415 C417 1.400 . S
C415 N418 1.351 . S
C415 C420 1.501 . S
C416 C417 1.387 . S
C416 N419 1.341 . S
C417 C415 1.400 . S
C417 C416 1.387 . S
N418 Co409 2.022 . S
N418 C415 1.351 . S
N418 N419 1.365 . S
N419 C416 1.341 . S
N419 N418 1.365 . S
N419 H439 0.862 . S
C420 C415 1.501 . S
C420 H421 0.961 . S
C420 H422 0.961 . S
C420 H423 0.960 . S
H421 C420 0.961 . S
H422 C420 0.961 . S
H423 C420 0.960 . S
C424 N425 1.342 . S
C424 C428 1.401 . S
C424 C429 1.499 . S
N425 Co408 1.989 . S
N425 C424 1.342 . S
N425 N426 1.388 1_655 S
N426 Co409 1.993 . S
N426 N425 1.388 1_455 S
N426 C427 1.346 1_455 S
C427 N426 1.346 1_655 S
C427 C428 1.396 . S
C427 C437 1.510 1_655 S
C428 C424 1.401 . S
C428 C427 1.396 . S
C429 C424 1.499 . S
C429 H430 0.959 . S
C429 H431 0.960 . S
C429 H432 0.961 . S
H430 C429 0.959 . S
H431 C429 0.960 . S
H432 C429 0.961 . S
O433 Co408 1.967 1_455 S
O433 C441 1.258 . S
O434 Co409 1.941 . S
O434 C441 1.266 . S
H435 C437 0.959 . S
H436 C437 0.961 . S
C437 C427 1.510 1_455 S
C437 H435 0.959 . S
C437 H436 0.961 . S
C437 H438 0.960 . S
H438 C437 0.960 . S
H439 N419 0.862 . S
O440 Co408 1.920 . S
O440 C413 1.289 1_556 S
C441 O433 1.258 . S
C441 O434 1.266 . S
Co442 O445 1.970 . S
Co442 N459 1.989 . S
Co442 O467 1.967 . S
Co442 O474 1.920 . S
Co443 O446 1.966 . S
Co443 N452 2.022 . S
Co443 N460 1.993 . S
Co443 O468 1.941 . S
C444 O445 1.258 . S
C444 O446 1.263 . S
O445 Co442 1.970 . S
O445 C444 1.258 . S
O446 Co443 1.966 . S
O446 C444 1.263 . S
C447 O448 1.235 . S
C447 O474 1.289 . S
O448 C447 1.235 . S
C449 C451 1.400 . S
C449 N452 1.351 . S
C449 C454 1.501 . S
C450 C451 1.387 . S
C450 N453 1.341 . S
C451 C449 1.400 . S
C451 C450 1.387 . S
N452 Co443 2.022 . S
N452 C449 1.351 . S
N452 N453 1.365 . S
N453 C450 1.341 . S
N453 N452 1.365 . S
N453 H473 0.862 . S
C454 C449 1.501 . S
C454 H455 0.961 . S
C454 H456 0.961 . S
C454 H457 0.960 . S
H455 C454 0.961 . S
H456 C454 0.961 . S
H457 C454 0.960 . S
C458 N459 1.342 . S
C458 C462 1.401 . S
C458 C463 1.499 . S
N459 Co442 1.989 . S
N459 C458 1.342 . S
N459 N460 1.388 . S
N460 Co443 1.993 . S
N460 N459 1.388 . S
N460 C461 1.346 . S
C461 N460 1.346 . S
C461 C462 1.396 . S
C461 C471 1.510 . S
C462 C458 1.401 . S
C462 C461 1.396 . S
C463 C458 1.499 . S
C463 H464 0.959 . S
C463 H465 0.960 . S
C463 H466 0.961 . S
H464 C463 0.959 . S
H465 C463 0.960 . S
H466 C463 0.961 . S
O467 Co442 1.967 . S
O467 C475 1.258 . S
O468 Co443 1.941 . S
O468 C475 1.266 . S
H469 C471 0.959 . S
H470 C471 0.961 . S
C471 C461 1.510 . S
C471 H469 0.959 . S
C471 H470 0.961 . S
C471 H472 0.960 . S
H472 C471 0.960 . S
H473 N453 0.862 . S
O474 Co442 1.920 . S
O474 C447 1.289 . S
C475 O467 1.258 . S
C475 O468 1.266 . S
Co476 O479 1.970 1_655 S
Co476 N493 1.989 . S
Co476 O501 1.967 1_655 S
Co476 O508 1.920 . S
Co477 O480 1.966 . S
Co477 N486 2.022 . S
Co477 N494 1.993 . S
Co477 O502 1.941 . S
C478 O479 1.258 . S
C478 O480 1.263 . S
O479 Co476 1.970 1_455 S
O479 C478 1.258 . S
O480 Co477 1.966 . S
O480 C478 1.263 . S
C481 O482 1.235 1_556 S
C481 O508 1.289 1_556 S
O482 C481 1.235 1_554 S
C483 C485 1.400 . S
C483 N486 1.351 . S
C483 C488 1.501 . S
C484 C485 1.387 . S
C484 N487 1.341 . S
C485 C483 1.400 . S
C485 C484 1.387 . S
N486 Co477 2.022 . S
N486 C483 1.351 . S
N486 N487 1.365 . S
N487 C484 1.341 . S
N487 N486 1.365 . S
N487 H507 0.862 . S
C488 C483 1.501 . S
C488 H489 0.961 . S
C488 H490 0.961 . S
C488 H491 0.960 . S
H489 C488 0.961 . S
H490 C488 0.961 . S
H491 C488 0.960 . S
C492 N493 1.342 . S
C492 C496 1.401 . S
C492 C497 1.499 . S
N493 Co476 1.989 . S
N493 C492 1.342 . S
N493 N494 1.388 1_655 S
N494 Co477 1.993 . S
N494 N493 1.388 1_455 S
N494 C495 1.346 1_455 S
C495 N494 1.346 1_655 S
C495 C496 1.396 . S
C495 C505 1.510 1_655 S
C496 C492 1.401 . S
C496 C495 1.396 . S
C497 C492 1.499 . S
C497 H498 0.959 . S
C497 H499 0.960 . S
C497 H500 0.961 . S
H498 C497 0.959 . S
H499 C497 0.960 . S
H500 C497 0.961 . S
O501 Co476 1.967 1_455 S
O501 C509 1.258 . S
O502 Co477 1.941 . S
O502 C509 1.266 . S
H503 C505 0.959 . S
H504 C505 0.961 . S
C505 C495 1.510 1_455 S
C505 H503 0.959 . S
C505 H504 0.961 . S
C505 H506 0.960 . S
H506 C505 0.960 . S
H507 N487 0.862 . S
O508 Co476 1.920 . S
O508 C481 1.289 1_554 S
C509 O501 1.258 . S
C509 O502 1.266 . S
Co510 O513 1.970 . S
Co510 N527 1.989 . S
Co510 O535 1.967 . S
Co510 O542 1.920 . S
Co511 O514 1.966 . S
Co511 N520 2.022 . S
Co511 N528 1.993 . S
Co511 O536 1.941 . S
C512 O513 1.258 . S
C512 O514 1.263 . S
O513 Co510 1.970 . S
O513 C512 1.258 . S
O514 Co511 1.966 . S
O514 C512 1.263 . S
C515 O516 1.235 . S
C515 O542 1.289 . S
O516 C515 1.235 . S
C517 C519 1.400 . S
C517 N520 1.351 . S
C517 C522 1.501 . S
C518 C519 1.387 . S
C518 N521 1.341 . S
C519 C517 1.400 . S
C519 C518 1.387 . S
N520 Co511 2.022 . S
N520 C517 1.351 . S
N520 N521 1.365 . S
N521 C518 1.341 . S
N521 N520 1.365 . S
N521 H541 0.862 . S
C522 C517 1.501 . S
C522 H523 0.961 . S
C522 H524 0.961 . S
C522 H525 0.960 . S
H523 C522 0.961 . S
H524 C522 0.961 . S
H525 C522 0.960 . S
C526 N527 1.342 . S
C526 C530 1.401 . S
C526 C531 1.499 . S
N527 Co510 1.989 . S
N527 C526 1.342 . S
N527 N528 1.388 . S
N528 Co511 1.993 . S
N528 N527 1.388 . S
N528 C529 1.346 . S
C529 N528 1.346 . S
C529 C530 1.396 . S
C529 C539 1.510 . S
C530 C526 1.401 . S
C530 C529 1.396 . S
C531 C526 1.499 . S
C531 H532 0.959 . S
C531 H533 0.960 . S
C531 H534 0.961 . S
H532 C531 0.959 . S
H533 C531 0.960 . S
H534 C531 0.961 . S
O535 Co510 1.967 . S
O535 C543 1.258 . S
O536 Co511 1.941 . S
O536 C543 1.266 . S
H537 C539 0.959 . S
H538 C539 0.961 . S
C539 C529 1.510 . S
C539 H537 0.959 . S
C539 H538 0.961 . S
C539 H540 0.960 . S
H540 C539 0.960 . S
H541 N521 0.862 . S
O542 Co510 1.920 . S
O542 C515 1.289 . S
C543 O535 1.258 . S
C543 O536 1.266 . S
H544 C552 0.950 . S
H545 C557 0.950 . S
H546 C554 0.950 . S
H547 C556 0.950 . S
H548 C558 0.950 . S
H549 C560 0.950 . S
H550 C562 0.950 . S
H551 C563 0.950 . S
C552 H544 0.950 . S
C552 C553 1.386 . S
C552 C554 1.391 . S
C553 C552 1.386 . S
C553 C557 1.393 . S
C554 H546 0.950 . S
C554 C552 1.391 . S
C554 C555 1.400 . S
C555 C554 1.400 . S
C555 C556 1.398 . S
C555 C561 1.491 1_545 S
C556 H547 0.950 . S
C556 C555 1.398 . S
C556 C557 1.391 . S
C557 H545 0.950 . S
C557 C553 1.393 . S
C557 C556 1.391 . S
C558 H548 0.950 . S
C558 C559 1.386 . S
C558 C560 1.391 . S
C559 C558 1.386 . S
C559 C563 1.393 . S
C560 H549 0.950 . S
C560 C558 1.391 . S
C560 C561 1.400 . S
C561 C555 1.491 1_565 S
C561 C560 1.400 . S
C561 C562 1.398 . S
C562 H550 0.950 . S
C562 C561 1.398 . S
C562 C563 1.391 . S
C563 H551 0.950 . S
C563 C559 1.393 . S
C563 C562 1.391 . S
H564 C572 0.950 . S
H565 C577 0.950 . S
H566 C574 0.950 . S
H567 C576 0.950 . S
H568 C578 0.950 . S
H569 C580 0.950 . S
H570 C582 0.950 . S
H571 C583 0.950 . S
C572 H564 0.950 . S
C572 C573 1.386 . S
C572 C574 1.391 . S
C573 C572 1.386 . S
C573 C577 1.393 . S
C574 H566 0.950 . S
C574 C572 1.391 . S
C574 C575 1.400 . S
C575 C574 1.400 . S
C575 C576 1.398 . S
C575 C581 1.491 . S
C576 H567 0.950 . S
C576 C575 1.398 . S
C576 C577 1.391 . S
C577 H565 0.950 . S
C577 C573 1.393 . S
C577 C576 1.391 . S
C578 H568 0.950 . S
C578 C579 1.386 . S
C578 C580 1.391 . S
C579 C578 1.386 . S
C579 C583 1.393 . S
C580 H569 0.950 . S
C580 C578 1.391 . S
C580 C581 1.400 . S
C581 C575 1.491 . S
C581 C580 1.400 . S
C581 C582 1.398 . S
C582 H570 0.950 . S
C582 C581 1.398 . S
C582 C583 1.391 . S
C583 H571 0.950 . S
C583 C579 1.393 . S
C583 C582 1.391 . S
H584 C592 0.950 . S
H585 C597 0.950 . S
H586 C594 0.955 . S
H587 C596 0.950 1_565 S
H588 C598 0.950 . S
H589 C600 0.955 . S
H590 C602 0.957 1_545 S
H591 C603 0.950 . S
C592 H584 0.950 . S
C592 C593 1.386 . S
C592 C594 1.388 1_554 S
C593 C592 1.386 . S
C593 C597 1.393 . S
C594 H586 0.955 . S
C594 C592 1.388 1_556 S
C594 C595 1.398 1_556 S
C595 C594 1.398 1_554 S
C595 C596 1.398 . S
C595 C601 1.491 1_544 S
C596 H587 0.950 1_545 S
C596 C595 1.398 . S
C596 C597 1.391 . S
C597 H585 0.950 . S
C597 C593 1.393 . S
C597 C596 1.391 . S
C598 H588 0.950 . S
C598 C599 1.386 . S
C598 C600 1.388 1_556 S
C599 C598 1.386 . S
C599 C603 1.393 . S
C600 H589 0.955 . S
C600 C598 1.388 1_554 S
C600 C601 1.398 1_554 S
C601 C595 1.491 1_566 S
C601 C600 1.398 1_556 S
C601 C602 1.398 . S
C602 H590 0.957 1_565 S
C602 C601 1.398 . S
C602 C603 1.391 . S
C603 H591 0.950 . S
C603 C599 1.393 . S
C603 C602 1.391 . S
H604 C612 0.950 . S
H605 C617 0.950 . S
H606 C614 0.950 . S
H607 C616 0.950 . S
H608 C618 0.950 . S
H609 C620 0.950 . S
H610 C622 0.950 . S
H611 C623 0.950 . S
C612 H604 0.950 . S
C612 C613 1.386 . S
C612 C614 1.391 . S
C613 C612 1.386 . S
C613 C617 1.393 . S
C614 H606 0.950 . S
C614 C612 1.391 . S
C614 C615 1.400 . S
C615 C614 1.400 . S
C615 C616 1.398 . S
C615 C621 1.491 . S
C616 H607 0.950 . S
C616 C615 1.398 . S
C616 C617 1.391 . S
C617 H605 0.950 . S
C617 C613 1.393 . S
C617 C616 1.391 . S
C618 H608 0.950 . S
C618 C619 1.386 . S
C618 C620 1.391 . S
C619 C618 1.386 . S
C619 C623 1.393 . S
C620 H609 0.950 . S
C620 C618 1.391 . S
C620 C621 1.400 . S
C621 C615 1.491 . S
C621 C620 1.400 . S
C621 C622 1.398 . S
C622 H610 0.950 . S
C622 C621 1.398 . S
C622 C623 1.391 . S
C623 H611 0.950 . S
C623 C619 1.393 . S
C623 C622 1.391 . S
H624 C632 0.950 . S
H625 C637 0.950 . S
H626 C634 0.950 . S
H627 C636 0.950 . S
H628 C638 0.950 . S
H629 C640 0.950 . S
H630 C642 0.950 . S
H631 C643 0.950 . S
C632 H624 0.950 . S
C632 C633 1.386 . S
C632 C634 1.391 . S
C633 C632 1.386 . S
C633 C637 1.393 . S
C634 H626 0.950 . S
C634 C632 1.391 . S
C634 C635 1.400 . S
C635 C634 1.400 . S
C635 C636 1.398 . S
C635 C641 1.491 . S
C636 H627 0.950 . S
C636 C635 1.398 . S
C636 C637 1.391 . S
C637 H625 0.950 . S
C637 C633 1.393 . S
C637 C636 1.391 . S
C638 H628 0.950 . S
C638 C639 1.386 . S
C638 C640 1.391 . S
C639 C638 1.386 . S
C639 C643 1.393 . S
C640 H629 0.950 . S
C640 C638 1.391 . S
C640 C641 1.400 . S
C641 C635 1.491 . S
C641 C640 1.400 . S
C641 C642 1.398 . S
C642 H630 0.950 . S
C642 C641 1.398 . S
C642 C643 1.391 . S
C643 H631 0.950 . S
C643 C639 1.393 . S
C643 C642 1.391 . S
H644 C652 0.950 . S
H645 C657 0.950 . S
H646 C654 0.950 . S
H647 C656 0.950 . S
H648 C658 0.950 . S
H649 C660 0.950 . S
H650 C662 0.950 . S
H651 C663 0.950 . S
C652 H644 0.950 . S
C652 C653 1.386 . S
C652 C654 1.391 . S
C653 C652 1.386 . S
C653 C657 1.393 . S
C654 H646 0.950 . S
C654 C652 1.391 . S
C654 C655 1.400 . S
C655 C654 1.400 . S
C655 C656 1.398 . S
C655 C661 1.491 . S
C656 H647 0.950 . S
C656 C655 1.398 . S
C656 C657 1.391 . S
C657 H645 0.950 . S
C657 C653 1.393 . S
C657 C656 1.391 . S
C658 H648 0.950 . S
C658 C659 1.386 . S
C658 C660 1.391 . S
C659 C658 1.386 . S
C659 C663 1.393 . S
C660 H649 0.950 . S
C660 C658 1.391 . S
C660 C661 1.400 . S
C661 C655 1.491 . S
C661 C660 1.400 . S
C661 C662 1.398 . S
C662 H650 0.950 . S
C662 C661 1.398 . S
C662 C663 1.391 . S
C663 H651 0.950 . S
C663 C659 1.393 . S
C663 C662 1.391 . S
H664 C672 0.950 1_655 S
H665 C677 0.950 . S
H666 C674 0.950 1_655 S
H667 C676 0.950 1_554 S
H668 C678 0.950 . S
H669 C680 0.950 . S
H670 C682 0.950 1_656 S
H671 C683 0.950 1_655 S
C672 H664 0.950 1_455 S
C672 C673 1.386 . S
C672 C674 1.391 . S
C673 C672 1.386 . S
C673 C677 1.393 . S
C674 H666 0.950 1_455 S
C674 C672 1.391 . S
C674 C675 1.400 . S
C675 C674 1.400 . S
C675 C676 1.398 . S
C675 C681 1.491 1_556 S
C676 H667 0.950 1_556 S
C676 C675 1.398 . S
C676 C677 1.391 . S
C677 H665 0.950 . S
C677 C673 1.393 . S
C677 C676 1.391 . S
C678 H668 0.950 . S
C678 C679 1.386 . S
C678 C680 1.391 . S
C679 C678 1.386 . S
C679 C683 1.393 . S
C680 H669 0.950 . S
C680 C678 1.391 . S
C680 C681 1.400 . S
C681 C675 1.491 1_554 S
C681 C680 1.400 . S
C681 C682 1.398 . S
C682 H670 0.950 1_454 S
C682 C681 1.398 . S
C682 C683 1.391 . S
C683 H671 0.950 1_455 S
C683 C679 1.393 . S
C683 C682 1.391 . S
H684 C692 0.950 . S
H685 C697 0.950 . S
H686 C694 0.950 . S
H687 C696 0.950 . S
H688 C698 0.950 . S
H689 C700 0.950 . S
H690 C702 0.950 . S
H691 C703 0.950 . S
C692 H684 0.950 . S
C692 C693 1.386 . S
C692 C694 1.391 . S
C693 C692 1.386 . S
C693 C697 1.393 . S
C694 H686 0.950 . S
C694 C692 1.391 . S
C694 C695 1.400 . S
C695 C694 1.400 . S
C695 C696 1.398 . S
C695 C701 1.491 . S
C696 H687 0.950 . S
C696 C695 1.398 . S
C696 C697 1.391 . S
C697 H685 0.950 . S
C697 C693 1.393 . S
C697 C696 1.391 . S
C698 H688 0.950 . S
C698 C699 1.386 . S
C698 C700 1.391 . S
C699 C698 1.386 . S
C699 C703 1.393 . S
C700 H689 0.950 . S
C700 C698 1.391 . S
C700 C701 1.400 . S
C701 C695 1.491 . S
C701 C700 1.400 . S
C701 C702 1.398 . S
C702 H690 0.950 . S
C702 C701 1.398 . S
C702 C703 1.391 . S
C703 H691 0.950 . S
C703 C699 1.393 . S
C703 C702 1.391 . S
H704 C712 0.950 . S
H705 C717 0.950 . S
H706 C714 0.950 . S
H707 C716 0.950 . S
H708 C718 0.950 . S
H709 C720 0.950 . S
H710 C722 0.950 . S
H711 C723 0.950 1_556 S
C712 H704 0.950 . S
C712 C713 1.386 . S
C712 C714 1.391 . S
C713 C712 1.386 . S
C713 C717 1.393 . S
C714 H706 0.950 . S
C714 C712 1.391 . S
C714 C715 1.400 . S
C715 C714 1.400 . S
C715 C716 1.398 . S
C715 C721 1.491 . S
C716 H707 0.950 . S
C716 C715 1.398 . S
C716 C717 1.391 . S
C717 H705 0.950 . S
C717 C713 1.393 . S
C717 C716 1.391 . S
C718 H708 0.950 . S
C718 C719 1.386 . S
C718 C720 1.391 . S
C719 C718 1.386 . S
C719 C723 1.393 . S
C720 H709 0.950 . S
C720 C718 1.391 . S
C720 C721 1.400 . S
C721 C715 1.491 . S
C721 C720 1.400 . S
C721 C722 1.398 . S
C722 H710 0.950 . S
C722 C721 1.398 . S
C722 C723 1.391 . S
C723 H711 0.950 1_554 S
C723 C719 1.393 . S
C723 C722 1.391 . S
H724 C732 0.950 . S
H725 C737 0.950 . S
H726 C734 0.950 . S
H727 C736 0.950 . S
H728 C738 0.950 . S
H729 C740 0.950 . S
H730 C742 0.950 . S
H731 C743 0.950 . S
C732 H724 0.950 . S
C732 C733 1.386 . S
C732 C734 1.391 . S
C733 C732 1.386 . S
C733 C737 1.393 . S
C734 H726 0.950 . S
C734 C732 1.391 . S
C734 C735 1.400 . S
C735 C734 1.400 . S
C735 C736 1.398 . S
C735 C741 1.491 . S
C736 H727 0.950 . S
C736 C735 1.398 . S
C736 C737 1.391 . S
C737 H725 0.950 . S
C737 C733 1.393 . S
C737 C736 1.391 . S
C738 H728 0.950 . S
C738 C739 1.386 . S
C738 C740 1.391 . S
C739 C738 1.386 . S
C739 C743 1.393 . S
C740 H729 0.950 . S
C740 C738 1.391 . S
C740 C741 1.400 . S
C741 C735 1.491 . S
C741 C740 1.400 . S
C741 C742 1.398 . S
C742 H730 0.950 . S
C742 C741 1.398 . S
C742 C743 1.391 . S
C743 H731 0.950 . S
C743 C739 1.393 . S
C743 C742 1.391 . S
H744 C752 0.950 . S
H745 C757 0.950 . S
H746 C754 0.950 . S
H747 C756 0.950 . S
H748 C758 0.950 . S
H749 C760 0.950 . S
H750 C762 0.950 . S
H751 C763 0.950 . S
C752 H744 0.950 . S
C752 C753 1.386 . S
C752 C754 1.391 . S
C753 C752 1.386 . S
C753 C757 1.393 . S
C754 H746 0.950 . S
C754 C752 1.391 . S
C754 C755 1.400 . S
C755 C754 1.400 . S
C755 C756 1.398 . S
C755 C761 1.491 . S
C756 H747 0.950 . S
C756 C755 1.398 . S
C756 C757 1.391 . S
C757 H745 0.950 . S
C757 C753 1.393 . S
C757 C756 1.391 . S
C758 H748 0.950 . S
C758 C759 1.386 . S
C758 C760 1.391 . S
C759 C758 1.386 . S
C759 C763 1.393 . S
C760 H749 0.950 . S
C760 C758 1.391 . S
C760 C761 1.400 . S
C761 C755 1.491 . S
C761 C760 1.400 . S
C761 C762 1.398 . S
C762 H750 0.950 . S
C762 C761 1.398 . S
C762 C763 1.391 . S
C763 H751 0.950 . S
C763 C759 1.393 . S
C763 C762 1.391 . S
H764 C772 0.950 . S
H765 C777 0.950 . S
H766 C774 0.950 . S
H767 C776 0.950 . S
H768 C778 0.950 . S
H769 C780 0.950 . S
H770 C782 0.950 . S
H771 C783 0.950 . S
C772 H764 0.950 . S
C772 C773 1.386 . S
C772 C774 1.391 . S
C773 C772 1.386 . S
C773 C777 1.393 . S
C774 H766 0.950 . S
C774 C772 1.391 . S
C774 C775 1.400 . S
C775 C774 1.400 . S
C775 C776 1.398 . S
C775 C781 1.491 . S
C776 H767 0.950 . S
C776 C775 1.398 . S
C776 C777 1.391 . S
C777 H765 0.950 . S
C777 C773 1.393 . S
C777 C776 1.391 . S
C778 H768 0.950 . S
C778 C779 1.386 . S
C778 C780 1.391 . S
C779 C778 1.386 . S
C779 C783 1.393 . S
C780 H769 0.950 . S
C780 C778 1.391 . S
C780 C781 1.400 . S
C781 C775 1.491 . S
C781 C780 1.400 . S
C781 C782 1.398 . S
C782 H770 0.950 . S
C782 C781 1.398 . S
C782 C783 1.391 . S
C783 H771 0.950 . S
C783 C779 1.393 . S
C783 C782 1.391 . S
H784 C792 0.950 . S
H785 C797 0.950 . S
H786 C794 0.950 . S
H787 C796 0.950 . S
H788 C798 0.950 . S
H789 C800 0.950 . S
H790 C802 0.950 . S
H791 C803 0.950 1_554 S
C792 H784 0.950 . S
C792 C793 1.386 . S
C792 C794 1.391 . S
C793 C792 1.386 . S
C793 C797 1.393 . S
C794 H786 0.950 . S
C794 C792 1.391 . S
C794 C795 1.400 . S
C795 C794 1.400 . S
C795 C796 1.398 . S
C795 C801 1.491 . S
C796 H787 0.950 . S
C796 C795 1.398 . S
C796 C797 1.391 . S
C797 H785 0.950 . S
C797 C793 1.393 . S
C797 C796 1.391 . S
C798 H788 0.950 . S
C798 C799 1.386 . S
C798 C800 1.391 . S
C799 C798 1.386 . S
C799 C803 1.393 . S
C800 H789 0.950 . S
C800 C798 1.391 . S
C800 C801 1.400 . S
C801 C795 1.491 . S
C801 C800 1.400 . S
C801 C802 1.398 . S
C802 H790 0.950 . S
C802 C801 1.398 . S
C802 C803 1.391 . S
C803 H791 0.950 1_556 S
C803 C799 1.393 . S
C803 C802 1.391 . S
H804 C812 0.950 . S
H805 C817 0.950 . S
H806 C814 0.950 . S
H807 C816 0.950 . S
H808 C818 0.950 . S
H809 C820 0.950 . S
H810 C822 0.950 . S
H811 C823 0.950 . S
C812 H804 0.950 . S
C812 C813 1.386 . S
C812 C814 1.391 . S
C813 C812 1.386 . S
C813 C817 1.393 . S
C814 H806 0.950 . S
C814 C812 1.391 . S
C814 C815 1.400 . S
C815 C814 1.400 . S
C815 C816 1.398 . S
C815 C821 1.491 . S
C816 H807 0.950 . S
C816 C815 1.398 . S
C816 C817 1.391 . S
C817 H805 0.950 . S
C817 C813 1.393 . S
C817 C816 1.391 . S
C818 H808 0.950 . S
C818 C819 1.386 . S
C818 C820 1.391 . S
C819 C818 1.386 . S
C819 C823 1.393 . S
C820 H809 0.950 . S
C820 C818 1.391 . S
C820 C821 1.400 . S
C821 C815 1.491 . S
C821 C820 1.400 . S
C821 C822 1.398 . S
C822 H810 0.950 . S
C822 C821 1.398 . S
C822 C823 1.391 . S
C823 H811 0.950 . S
C823 C819 1.393 . S
C823 C822 1.391 . S
H824 C832 0.950 . S
H825 C837 0.950 . S
H826 C834 0.950 . S
H827 C836 0.950 . S
H828 C838 0.950 . S
H829 C840 0.950 . S
H830 C842 0.950 . S
H831 C843 0.950 . S
C832 H824 0.950 . S
C832 C833 1.386 . S
C832 C834 1.391 . S
C833 C832 1.386 . S
C833 C837 1.393 . S
C834 H826 0.950 . S
C834 C832 1.391 . S
C834 C835 1.400 . S
C835 C834 1.400 . S
C835 C836 1.398 . S
C835 C841 1.491 . S
C836 H827 0.950 . S
C836 C835 1.398 . S
C836 C837 1.391 . S
C837 H825 0.950 . S
C837 C833 1.393 . S
C837 C836 1.391 . S
C838 H828 0.950 . S
C838 C839 1.386 . S
C838 C840 1.391 . S
C839 C838 1.386 . S
C839 C843 1.393 . S
C840 H829 0.950 . S
C840 C838 1.391 . S
C840 C841 1.400 . S
C841 C835 1.491 . S
C841 C840 1.400 . S
C841 C842 1.398 . S
C842 H830 0.950 . S
C842 C841 1.398 . S
C842 C843 1.391 . S
C843 H831 0.950 . S
C843 C839 1.393 . S
C843 C842 1.391 . S
H844 C852 0.950 . S
H845 C857 0.950 . S
H846 C854 0.950 . S
H847 C856 0.950 . S
H848 C858 0.950 . S
H849 C860 0.950 . S
H850 C862 0.950 . S
H851 C863 0.950 . S
C852 H844 0.950 . S
C852 C853 1.386 . S
C852 C854 1.391 . S
C853 C852 1.386 . S
C853 C857 1.393 . S
C854 H846 0.950 . S
C854 C852 1.391 . S
C854 C855 1.400 . S
C855 C854 1.400 . S
C855 C856 1.398 . S
C855 C861 1.491 . S
C856 H847 0.950 . S
C856 C855 1.398 . S
C856 C857 1.391 . S
C857 H845 0.950 . S
C857 C853 1.393 . S
C857 C856 1.391 . S
C858 H848 0.950 . S
C858 C859 1.386 . S
C858 C860 1.391 . S
C859 C858 1.386 . S
C859 C863 1.393 . S
C860 H849 0.950 . S
C860 C858 1.391 . S
C860 C861 1.400 . S
C861 C855 1.491 . S
C861 C860 1.400 . S
C861 C862 1.398 . S
C862 H850 0.950 . S
C862 C861 1.398 . S
C862 C863 1.391 . S
C863 H851 0.950 . S
C863 C859 1.393 . S
C863 C862 1.391 . S
H864 C872 0.950 . S
H865 C877 0.950 . S
H866 C874 0.950 . S
H867 C876 0.950 . S
H868 C878 0.950 . S
H869 C880 0.950 . S
H870 C882 0.950 . S
H871 C883 0.950 . S
C872 H864 0.950 . S
C872 C873 1.386 . S
C872 C874 1.391 . S
C873 C872 1.386 . S
C873 C877 1.393 . S
C874 H866 0.950 . S
C874 C872 1.391 . S
C874 C875 1.400 . S
C875 C874 1.400 . S
C875 C876 1.398 . S
C875 C881 1.491 . S
C876 H867 0.950 . S
C876 C875 1.398 . S
C876 C877 1.391 . S
C877 H865 0.950 . S
C877 C873 1.393 . S
C877 C876 1.391 . S
C878 H868 0.950 . S
C878 C879 1.386 . S
C878 C880 1.391 . S
C879 C878 1.386 . S
C879 C883 1.393 . S
C880 H869 0.950 . S
C880 C878 1.391 . S
C880 C881 1.400 . S
C881 C875 1.491 . S
C881 C880 1.400 . S
C881 C882 1.398 . S
C882 H870 0.950 . S
C882 C881 1.398 . S
C882 C883 1.391 . S
C883 H871 0.950 . S
C883 C879 1.393 . S
C883 C882 1.391 . S
H884 C892 0.950 . S
H885 C897 0.965 . S
H886 C894 0.950 . S
H887 C896 0.950 . S
H888 C898 0.950 . S
H889 C900 0.950 . S
H890 C902 0.950 . S
H891 C903 0.950 . S
C892 H884 0.950 . S
C892 C893 1.386 . S
C892 C894 1.391 . S
C893 C892 1.386 . S
C893 C897 1.393 . S
C894 H886 0.950 . S
C894 C892 1.391 . S
C894 C895 1.400 . S
C895 C894 1.400 . S
C895 C896 1.398 . S
C895 C901 1.491 . S
C896 H887 0.950 . S
C896 C895 1.398 . S
C896 C897 1.391 . S
C897 H885 0.965 . S
C897 C893 1.393 . S
C897 C896 1.391 . S
C898 H888 0.950 . S
C898 C899 1.386 . S
C898 C900 1.391 . S
C899 C898 1.386 . S
C899 C903 1.393 . S
C900 H889 0.950 . S
C900 C898 1.391 . S
C900 C901 1.400 . S
C901 C895 1.491 . S
C901 C900 1.400 . S
C901 C902 1.398 . S
C902 H890 0.950 . S
C902 C901 1.398 . S
C902 C903 1.391 . S
C903 H891 0.950 . S
C903 C899 1.393 . S
C903 C902 1.391 . S
H904 C912 0.950 . S
H905 C917 0.950 1_556 S
H906 C914 0.950 . S
H907 C916 0.950 . S
H908 C918 0.950 . S
H909 C920 0.950 . S
H910 C922 0.950 . S
H911 C923 0.950 . S
C912 H904 0.950 . S
C912 C913 1.386 . S
C912 C914 1.391 . S
C913 C912 1.386 . S
C913 C917 1.393 . S
C914 H906 0.950 . S
C914 C912 1.391 . S
C914 C915 1.400 . S
C915 C914 1.400 . S
C915 C916 1.398 . S
C915 C921 1.491 . S
C916 H907 0.950 . S
C916 C915 1.398 . S
C916 C917 1.391 . S
C917 H905 0.950 1_554 S
C917 C913 1.393 . S
C917 C916 1.391 . S
C918 H908 0.950 . S
C918 C919 1.386 . S
C918 C920 1.391 . S
C919 C918 1.386 . S
C919 C923 1.393 . S
C920 H909 0.950 . S
C920 C918 1.391 . S
C920 C921 1.400 . S
C921 C915 1.491 . S
C921 C920 1.400 . S
C921 C922 1.398 . S
C922 H910 0.950 . S
C922 C921 1.398 . S
C922 C923 1.391 . S
C923 H911 0.950 . S
C923 C919 1.393 . S
C923 C922 1.391 . S
H924 C932 0.950 . S
H925 C937 0.950 . S
H926 C934 0.950 . S
H927 C936 0.950 . S
H928 C938 0.950 . S
H929 C940 0.950 . S
H930 C942 0.950 . S
H931 C943 0.950 . S
C932 H924 0.950 . S
C932 C933 1.386 . S
C932 C934 1.391 . S
C933 C932 1.386 . S
C933 C937 1.393 . S
C934 H926 0.950 . S
C934 C932 1.391 . S
C934 C935 1.400 . S
C935 C934 1.400 . S
C935 C936 1.398 . S
C935 C941 1.491 . S
C936 H927 0.950 . S
C936 C935 1.398 . S
C936 C937 1.391 . S
C937 H925 0.950 . S
C937 C933 1.393 . S
C937 C936 1.391 . S
C938 H928 0.950 . S
C938 C939 1.386 . S
C938 C940 1.391 . S
C939 C938 1.386 . S
C939 C943 1.393 . S
C940 H929 0.950 . S
C940 C938 1.391 . S
C940 C941 1.400 . S
C941 C935 1.491 . S
C941 C940 1.400 . S
C941 C942 1.398 . S
C942 H930 0.950 . S
C942 C941 1.398 . S
C942 C943 1.391 . S
C943 H931 0.950 . S
C943 C939 1.393 . S
C943 C942 1.391 . S
H944 C952 0.950 . S
H945 C957 0.950 . S
H946 C954 0.950 . S
H947 C956 0.950 . S
H948 C958 0.950 . S
H949 C960 0.950 . S
H950 C962 0.950 . S
H951 C963 0.950 . S
C952 H944 0.950 . S
C952 C953 1.386 . S
C952 C954 1.391 . S
C953 C952 1.386 . S
C953 C957 1.393 . S
C954 H946 0.950 . S
C954 C952 1.391 . S
C954 C955 1.400 . S
C955 C954 1.400 . S
C955 C956 1.398 . S
C955 C961 1.491 . S
C956 H947 0.950 . S
C956 C955 1.398 . S
C956 C957 1.391 . S
C957 H945 0.950 . S
C957 C953 1.393 . S
C957 C956 1.391 . S
C958 H948 0.950 . S
C958 C959 1.386 . S
C958 C960 1.391 . S
C959 C958 1.386 . S
C959 C963 1.393 . S
C960 H949 0.950 . S
C960 C958 1.391 . S
C960 C961 1.400 . S
C961 C955 1.491 . S
C961 C960 1.400 . S
C961 C962 1.398 . S
C962 H950 0.950 . S
C962 C961 1.398 . S
C962 C963 1.391 . S
C963 H951 0.950 . S
C963 C959 1.393 . S
C963 C962 1.391 . S
H964 C972 0.950 1_556 S
H965 C977 0.950 . S
H966 C974 0.950 . S
H967 C976 0.950 . S
H968 C978 0.950 . S
H969 C980 0.950 . S
H970 C982 0.950 . S
H971 C983 0.950 . S
C972 H964 0.950 1_554 S
C972 C973 1.386 . S
C972 C974 1.391 . S
C973 C972 1.386 . S
C973 C977 1.393 . S
C974 H966 0.950 . S
C974 C972 1.391 . S
C974 C975 1.400 . S
C975 C974 1.400 . S
C975 C976 1.398 . S
C975 C981 1.491 . S
C976 H967 0.950 . S
C976 C975 1.398 . S
C976 C977 1.391 . S
C977 H965 0.950 . S
C977 C973 1.393 . S
C977 C976 1.391 . S
C978 H968 0.950 . S
C978 C979 1.386 . S
C978 C980 1.391 . S
C979 C978 1.386 . S
C979 C983 1.393 . S
C980 H969 0.950 . S
C980 C978 1.391 . S
C980 C981 1.400 . S
C981 C975 1.491 . S
C981 C980 1.400 . S
C981 C982 1.398 . S
C982 H970 0.950 . S
C982 C981 1.398 . S
C982 C983 1.391 . S
C983 H971 0.950 . S
C983 C979 1.393 . S
C983 C982 1.391 . S
H984 C992 0.950 . S
H985 C997 0.950 . S
H986 C994 0.950 . S
H987 C996 0.950 . S
H988 C998 0.950 . S
H989 C1000 0.950 . S
H990 C1002 0.950 . S
H991 C1003 0.950 . S
C992 H984 0.950 . S
C992 C993 1.386 . S
C992 C994 1.391 . S
C993 C992 1.386 . S
C993 C997 1.393 . S
C994 H986 0.950 . S
C994 C992 1.391 . S
C994 C995 1.400 . S
C995 C994 1.400 . S
C995 C996 1.398 . S
C995 C1001 1.491 . S
C996 H987 0.950 . S
C996 C995 1.398 . S
C996 C997 1.391 . S
C997 H985 0.950 . S
C997 C993 1.393 . S
C997 C996 1.391 . S
C998 H988 0.950 . S
C998 C999 1.386 . S
C998 C1000 1.391 . S
C999 C998 1.386 . S
C999 C1003 1.393 . S
C1000 H989 0.950 . S
C1000 C998 1.391 . S
C1000 C1001 1.400 . S
C1001 C995 1.491 . S
C1001 C1000 1.400 . S
C1001 C1002 1.398 . S
C1002 H990 0.950 . S
C1002 C1001 1.398 . S
C1002 C1003 1.391 . S
C1003 H991 0.950 . S
C1003 C999 1.393 . S
C1003 C1002 1.391 . S
H1004 C1012 0.950 . S
H1005 C1017 0.950 . S
H1006 C1014 0.950 . S
H1007 C1016 0.950 . S
H1008 C1018 0.950 . S
H1009 C1020 0.950 . S
H1010 C1022 0.950 . S
H1011 C1023 0.950 . S
C1012 H1004 0.950 . S
C1012 C1013 1.386 . S
C1012 C1014 1.391 . S
C1013 C1012 1.386 . S
C1013 C1017 1.393 . S
C1014 H1006 0.950 . S
C1014 C1012 1.391 . S
C1014 C1015 1.400 . S
C1015 C1014 1.400 . S
C1015 C1016 1.398 . S
C1015 C1021 1.491 . S
C1016 H1007 0.950 . S
C1016 C1015 1.398 . S
C1016 C1017 1.391 . S
C1017 H1005 0.950 . S
C1017 C1013 1.393 . S
C1017 C1016 1.391 . S
C1018 H1008 0.950 . S
C1018 C1019 1.386 . S
C1018 C1020 1.391 . S
C1019 C1018 1.386 . S
C1019 C1023 1.393 . S
C1020 H1009 0.950 . S
C1020 C1018 1.391 . S
C1020 C1021 1.400 . S
C1021 C1015 1.491 . S
C1021 C1020 1.400 . S
C1021 C1022 1.398 . S
C1022 H1010 0.950 . S
C1022 C1021 1.398 . S
C1022 C1023 1.391 . S
C1023 H1011 0.950 . S
C1023 C1019 1.393 . S
C1023 C1022 1.391 . S
H1024 C1032 0.950 . S
H1025 C1037 0.950 . S
H1026 C1034 0.950 . S
H1027 C1036 0.950 . S
H1028 C1038 0.950 . S
H1029 C1040 0.950 . S
H1030 C1042 0.950 . S
H1031 C1043 0.950 . S
C1032 H1024 0.950 . S
C1032 C1033 1.386 . S
C1032 C1034 1.391 . S
C1033 C1032 1.386 . S
C1033 C1037 1.393 . S
C1034 H1026 0.950 . S
C1034 C1032 1.391 . S
C1034 C1035 1.400 . S
C1035 C1034 1.400 . S
C1035 C1036 1.398 . S
C1035 C1041 1.491 . S
C1036 H1027 0.950 . S
C1036 C1035 1.398 . S
C1036 C1037 1.391 . S
C1037 H1025 0.950 . S
C1037 C1033 1.393 . S
C1037 C1036 1.391 . S
C1038 H1028 0.950 . S
C1038 C1039 1.386 . S
C1038 C1040 1.391 . S
C1039 C1038 1.386 . S
C1039 C1043 1.393 . S
C1040 H1029 0.950 . S
C1040 C1038 1.391 . S
C1040 C1041 1.400 . S
C1041 C1035 1.491 . S
C1041 C1040 1.400 . S
C1041 C1042 1.398 . S
C1042 H1030 0.950 . S
C1042 C1041 1.398 . S
C1042 C1043 1.391 . S
C1043 H1031 0.950 . S
C1043 C1039 1.393 . S
C1043 C1042 1.391 . S
H1044 C1052 0.950 . S
H1045 C1057 0.950 . S
H1046 C1054 0.950 . S
H1047 C1056 0.950 . S
H1048 C1058 0.950 . S
H1049 C1060 0.950 . S
H1050 C1062 0.950 . S
H1051 C1063 0.950 . S
C1052 H1044 0.950 . S
C1052 C1053 1.386 . S
C1052 C1054 1.391 . S
C1053 C1052 1.386 . S
C1053 C1057 1.393 . S
C1054 H1046 0.950 . S
C1054 C1052 1.391 . S
C1054 C1055 1.400 . S
C1055 C1054 1.400 . S
C1055 C1056 1.398 . S
C1055 C1061 1.491 . S
C1056 H1047 0.950 . S
C1056 C1055 1.398 . S
C1056 C1057 1.391 . S
C1057 H1045 0.950 . S
C1057 C1053 1.393 . S
C1057 C1056 1.391 . S
C1058 H1048 0.950 . S
C1058 C1059 1.386 . S
C1058 C1060 1.391 . S
C1059 C1058 1.386 . S
C1059 C1063 1.393 . S
C1060 H1049 0.950 . S
C1060 C1058 1.391 . S
C1060 C1061 1.400 . S
C1061 C1055 1.491 . S
C1061 C1060 1.400 . S
C1061 C1062 1.398 . S
C1062 H1050 0.950 . S
C1062 C1061 1.398 . S
C1062 C1063 1.391 . S
C1063 H1051 0.950 . S
C1063 C1059 1.393 . S
C1063 C1062 1.391 . S
H1064 C1072 0.950 . S
H1065 C1077 0.950 . S
H1066 C1074 0.950 . S
H1067 C1076 0.950 . S
H1068 C1078 0.950 . S
H1069 C1080 0.950 . S
H1070 C1082 0.950 . S
H1071 C1083 0.950 . S
C1072 H1064 0.950 . S
C1072 C1073 1.386 . S
C1072 C1074 1.391 . S
C1073 C1072 1.386 . S
C1073 C1077 1.393 . S
C1074 H1066 0.950 . S
C1074 C1072 1.391 . S
C1074 C1075 1.400 . S
C1075 C1074 1.400 . S
C1075 C1076 1.398 . S
C1075 C1081 1.491 . S
C1076 H1067 0.950 . S
C1076 C1075 1.398 . S
C1076 C1077 1.391 . S
C1077 H1065 0.950 . S
C1077 C1073 1.393 . S
C1077 C1076 1.391 . S
C1078 H1068 0.950 . S
C1078 C1079 1.386 . S
C1078 C1080 1.391 . S
C1079 C1078 1.386 . S
C1079 C1083 1.393 . S
C1080 H1069 0.950 . S
C1080 C1078 1.391 . S
C1080 C1081 1.400 . S
C1081 C1075 1.491 . S
C1081 C1080 1.400 . S
C1081 C1082 1.398 . S
C1082 H1070 0.950 . S
C1082 C1081 1.398 . S
C1082 C1083 1.391 . S
C1083 H1071 0.950 . S
C1083 C1079 1.393 . S
C1083 C1082 1.391 . S
H1084 C1092 0.950 . S
H1085 C1097 0.950 . S
H1086 C1094 0.950 . S
H1087 C1096 0.950 . S
H1088 C1098 0.950 . S
H1089 C1100 0.950 . S
H1090 C1102 0.950 . S
H1091 C1103 0.950 . S
C1092 H1084 0.950 . S
C1092 C1093 1.386 . S
C1092 C1094 1.391 . S
C1093 C1092 1.386 . S
C1093 C1097 1.393 . S
C1094 H1086 0.950 . S
C1094 C1092 1.391 . S
C1094 C1095 1.400 . S
C1095 C1094 1.400 . S
C1095 C1096 1.398 . S
C1095 C1101 1.491 . S
C1096 H1087 0.950 . S
C1096 C1095 1.398 . S
C1096 C1097 1.391 . S
C1097 H1085 0.950 . S
C1097 C1093 1.393 . S
C1097 C1096 1.391 . S
C1098 H1088 0.950 . S
C1098 C1099 1.386 . S
C1098 C1100 1.391 . S
C1099 C1098 1.386 . S
C1099 C1103 1.393 . S
C1100 H1089 0.950 . S
C1100 C1098 1.391 . S
C1100 C1101 1.400 . S
C1101 C1095 1.491 . S
C1101 C1100 1.400 . S
C1101 C1102 1.398 . S
C1102 H1090 0.950 . S
C1102 C1101 1.398 . S
C1102 C1103 1.391 . S
C1103 H1091 0.950 . S
C1103 C1099 1.393 . S
C1103 C1102 1.391 . S
H1104 C1112 0.950 . S
H1105 C1117 0.950 . S
H1106 C1114 0.950 . S
H1107 C1116 0.950 . S
H1108 C1118 0.950 . S
H1109 C1120 0.950 . S
H1110 C1122 0.950 . S
H1111 C1123 0.950 . S
C1112 H1104 0.950 . S
C1112 C1113 1.386 . S
C1112 C1114 1.391 . S
C1113 C1112 1.386 . S
C1113 C1117 1.393 . S
C1114 H1106 0.950 . S
C1114 C1112 1.391 . S
C1114 C1115 1.400 . S
C1115 C1114 1.400 . S
C1115 C1116 1.398 . S
C1115 C1121 1.491 . S
C1116 H1107 0.950 . S
C1116 C1115 1.398 . S
C1116 C1117 1.391 . S
C1117 H1105 0.950 . S
C1117 C1113 1.393 . S
C1117 C1116 1.391 . S
C1118 H1108 0.950 . S
C1118 C1119 1.386 . S
C1118 C1120 1.391 . S
C1119 C1118 1.386 . S
C1119 C1123 1.393 . S
C1120 H1109 0.950 . S
C1120 C1118 1.391 . S
C1120 C1121 1.400 . S
C1121 C1115 1.491 . S
C1121 C1120 1.400 . S
C1121 C1122 1.398 . S
C1122 H1110 0.950 . S
C1122 C1121 1.398 . S
C1122 C1123 1.391 . S
C1123 H1111 0.950 . S
C1123 C1119 1.393 . S
C1123 C1122 1.391 . S
H1124 C1132 0.950 . S
H1125 C1137 0.950 . S
H1126 C1134 0.950 . S
H1127 C1136 0.950 . S
H1128 C1138 0.950 . S
H1129 C1140 0.950 . S
H1130 C1142 0.950 . S
H1131 C1143 0.950 . S
C1132 H1124 0.950 . S
C1132 C1133 1.386 . S
C1132 C1134 1.391 . S
C1133 C1132 1.386 . S
C1133 C1137 1.393 . S
C1134 H1126 0.950 . S
C1134 C1132 1.391 . S
C1134 C1135 1.400 . S
C1135 C1134 1.400 . S
C1135 C1136 1.398 . S
C1135 C1141 1.491 . S
C1136 H1127 0.950 . S
C1136 C1135 1.398 . S
C1136 C1137 1.391 . S
C1137 H1125 0.950 . S
C1137 C1133 1.393 . S
C1137 C1136 1.391 . S
C1138 H1128 0.950 . S
C1138 C1139 1.386 . S
C1138 C1140 1.391 . S
C1139 C1138 1.386 . S
C1139 C1143 1.393 . S
C1140 H1129 0.950 . S
C1140 C1138 1.391 . S
C1140 C1141 1.400 . S
C1141 C1135 1.491 . S
C1141 C1140 1.400 . S
C1141 C1142 1.398 . S
C1142 H1130 0.950 . S
C1142 C1141 1.398 . S
C1142 C1143 1.391 . S
C1143 H1131 0.950 . S
C1143 C1139 1.393 . S
C1143 C1142 1.391 . S
H1144 C1152 0.950 . S
H1145 C1157 0.950 . S
H1146 C1154 0.950 . S
H1147 C1156 0.950 . S
H1148 C1158 0.950 . S
H1149 C1160 0.950 . S
H1150 C1162 0.950 . S
H1151 C1163 0.950 . S
C1152 H1144 0.950 . S
C1152 C1153 1.386 . S
C1152 C1154 1.391 . S
C1153 C1152 1.386 . S
C1153 C1157 1.393 . S
C1154 H1146 0.950 . S
C1154 C1152 1.391 . S
C1154 C1155 1.400 . S
C1155 C1154 1.400 . S
C1155 C1156 1.398 . S
C1155 C1161 1.491 . S
C1156 H1147 0.950 . S
C1156 C1155 1.398 . S
C1156 C1157 1.391 . S
C1157 H1145 0.950 . S
C1157 C1153 1.393 . S
C1157 C1156 1.391 . S
C1158 H1148 0.950 . S
C1158 C1159 1.386 . S
C1158 C1160 1.391 . S
C1159 C1158 1.386 . S
C1159 C1163 1.393 . S
C1160 H1149 0.950 . S
C1160 C1158 1.391 . S
C1160 C1161 1.400 . S
C1161 C1155 1.491 . S
C1161 C1160 1.400 . S
C1161 C1162 1.398 . S
C1162 H1150 0.950 . S
C1162 C1161 1.398 . S
C1162 C1163 1.391 . S
C1163 H1151 0.950 . S
C1163 C1159 1.393 . S
C1163 C1162 1.391 . S
H1164 C1172 0.950 . S
H1165 C1177 0.950 . S
H1166 C1174 0.950 . S
H1167 C1176 0.950 . S
H1168 C1178 0.950 . S
H1169 C1180 0.950 . S
H1170 C1182 0.950 . S
H1171 C1183 0.950 . S
C1172 H1164 0.950 . S
C1172 C1173 1.386 . S
C1172 C1174 1.391 . S
C1173 C1172 1.386 . S
C1173 C1177 1.393 . S
C1174 H1166 0.950 . S
C1174 C1172 1.391 . S
C1174 C1175 1.400 . S
C1175 C1174 1.400 . S
C1175 C1176 1.398 . S
C1175 C1181 1.491 . S
C1176 H1167 0.950 . S
C1176 C1175 1.398 . S
C1176 C1177 1.391 . S
C1177 H1165 0.950 . S
C1177 C1173 1.393 . S
C1177 C1176 1.391 . S
C1178 H1168 0.950 . S
C1178 C1179 1.386 . S
C1178 C1180 1.391 . S
C1179 C1178 1.386 . S
C1179 C1183 1.393 . S
C1180 H1169 0.950 . S
C1180 C1178 1.391 . S
C1180 C1181 1.400 . S
C1181 C1175 1.491 . S
C1181 C1180 1.400 . S
C1181 C1182 1.398 . S
C1182 H1170 0.950 . S
C1182 C1181 1.398 . S
C1182 C1183 1.391 . S
C1183 H1171 0.950 . S
C1183 C1179 1.393 . S
C1183 C1182 1.391 . S
H1184 C1192 0.950 . S
H1185 C1197 0.950 1_556 S
H1186 C1194 0.950 . S
H1187 C1196 0.950 . S
H1188 C1198 0.950 . S
H1189 C1200 0.950 . S
H1190 C1202 0.950 . S
H1191 C1203 0.950 . S
C1192 H1184 0.950 . S
C1192 C1193 1.386 . S
C1192 C1194 1.391 . S
C1193 C1192 1.386 . S
C1193 C1197 1.393 . S
C1194 H1186 0.950 . S
C1194 C1192 1.391 . S
C1194 C1195 1.400 . S
C1195 C1194 1.400 . S
C1195 C1196 1.398 . S
C1195 C1201 1.491 . S
C1196 H1187 0.950 . S
C1196 C1195 1.398 . S
C1196 C1197 1.391 . S
C1197 H1185 0.950 1_554 S
C1197 C1193 1.393 . S
C1197 C1196 1.391 . S
C1198 H1188 0.950 . S
C1198 C1199 1.386 . S
C1198 C1200 1.391 . S
C1199 C1198 1.386 . S
C1199 C1203 1.393 . S
C1200 H1189 0.950 . S
C1200 C1198 1.391 . S
C1200 C1201 1.400 . S
C1201 C1195 1.491 . S
C1201 C1200 1.400 . S
C1201 C1202 1.398 . S
C1202 H1190 0.950 . S
C1202 C1201 1.398 . S
C1202 C1203 1.391 . S
C1203 H1191 0.950 . S
C1203 C1199 1.393 . S
C1203 C1202 1.391 . S
H1204 C1212 0.950 . S
H1205 C1217 0.950 . S
H1206 C1214 0.950 . S
H1207 C1216 0.950 . S
H1208 C1218 0.950 . S
H1209 C1220 0.950 . S
H1210 C1222 0.950 . S
H1211 C1223 0.950 . S
C1212 H1204 0.950 . S
C1212 C1213 1.386 . S
C1212 C1214 1.391 . S
C1213 C1212 1.386 . S
C1213 C1217 1.393 . S
C1214 H1206 0.950 . S
C1214 C1212 1.391 . S
C1214 C1215 1.400 . S
C1215 C1214 1.400 . S
C1215 C1216 1.398 . S
C1215 C1221 1.491 . S
C1216 H1207 0.950 . S
C1216 C1215 1.398 . S
C1216 C1217 1.391 . S
C1217 H1205 0.950 . S
C1217 C1213 1.393 . S
C1217 C1216 1.391 . S
C1218 H1208 0.950 . S
C1218 C1219 1.386 . S
C1218 C1220 1.391 . S
C1219 C1218 1.386 . S
C1219 C1223 1.393 . S
C1220 H1209 0.950 . S
C1220 C1218 1.391 . S
C1220 C1221 1.400 . S
C1221 C1215 1.491 . S
C1221 C1220 1.400 . S
C1221 C1222 1.398 . S
C1222 H1210 0.950 . S
C1222 C1221 1.398 . S
C1222 C1223 1.391 . S
C1223 H1211 0.950 . S
C1223 C1219 1.393 . S
C1223 C1222 1.391 . S
H1224 C1232 0.950 . S
H1225 C1237 0.950 . S
H1226 C1234 0.950 . S
H1227 C1236 0.950 . S
H1228 C1238 0.950 . S
H1229 C1240 0.950 . S
H1230 C1242 0.950 . S
H1231 C1243 0.950 . S
C1232 H1224 0.950 . S
C1232 C1233 1.386 . S
C1232 C1234 1.391 . S
C1233 C1232 1.386 . S
C1233 C1237 1.393 . S
C1234 H1226 0.950 . S
C1234 C1232 1.391 . S
C1234 C1235 1.400 . S
C1235 C1234 1.400 . S
C1235 C1236 1.398 . S
C1235 C1241 1.491 . S
C1236 H1227 0.950 . S
C1236 C1235 1.398 . S
C1236 C1237 1.391 . S
C1237 H1225 0.950 . S
C1237 C1233 1.393 . S
C1237 C1236 1.391 . S
C1238 H1228 0.950 . S
C1238 C1239 1.386 . S
C1238 C1240 1.391 . S
C1239 C1238 1.386 . S
C1239 C1243 1.393 . S
C1240 H1229 0.950 . S
C1240 C1238 1.391 . S
C1240 C1241 1.400 . S
C1241 C1235 1.491 . S
C1241 C1240 1.400 . S
C1241 C1242 1.398 . S
C1242 H1230 0.950 . S
C1242 C1241 1.398 . S
C1242 C1243 1.391 . S
C1243 H1231 0.950 . S
C1243 C1239 1.393 . S
C1243 C1242 1.391 . S
H1244 C1252 0.950 . S
H1245 C1257 0.950 . S
H1246 C1254 0.950 . S
H1247 C1256 0.950 . S
H1248 C1258 0.950 . S
H1249 C1260 0.950 . S
H1250 C1262 0.950 . S
H1251 C1263 0.950 . S
C1252 H1244 0.950 . S
C1252 C1253 1.386 . S
C1252 C1254 1.391 . S
C1253 C1252 1.386 . S
C1253 C1257 1.393 . S
C1254 H1246 0.950 . S
C1254 C1252 1.391 . S
C1254 C1255 1.400 . S
C1255 C1254 1.400 . S
C1255 C1256 1.398 . S
C1255 C1261 1.491 . S
C1256 H1247 0.950 . S
C1256 C1255 1.398 . S
C1256 C1257 1.391 . S
C1257 H1245 0.950 . S
C1257 C1253 1.393 . S
C1257 C1256 1.391 . S
C1258 H1248 0.950 . S
C1258 C1259 1.386 . S
C1258 C1260 1.391 . S
C1259 C1258 1.386 . S
C1259 C1263 1.393 . S
C1260 H1249 0.950 . S
C1260 C1258 1.391 . S
C1260 C1261 1.400 . S
C1261 C1255 1.491 . S
C1261 C1260 1.400 . S
C1261 C1262 1.398 . S
C1262 H1250 0.950 . S
C1262 C1261 1.398 . S
C1262 C1263 1.391 . S
C1263 H1251 0.950 . S
C1263 C1259 1.393 . S
C1263 C1262 1.391 . S
H1264 C1272 0.950 . S
H1265 C1277 0.950 . S
H1266 C1274 0.950 . S
H1267 C1276 0.950 . S
H1268 C1278 0.950 . S
H1269 C1280 0.950 . S
H1270 C1282 0.950 . S
H1271 C1283 0.950 . S
C1272 H1264 0.950 . S
C1272 C1273 1.386 . S
C1272 C1274 1.391 . S
C1273 C1272 1.386 . S
C1273 C1277 1.393 . S
C1274 H1266 0.950 . S
C1274 C1272 1.391 . S
C1274 C1275 1.400 . S
C1275 C1274 1.400 . S
C1275 C1276 1.398 . S
C1275 C1281 1.491 . S
C1276 H1267 0.950 . S
C1276 C1275 1.398 . S
C1276 C1277 1.391 . S
C1277 H1265 0.950 . S
C1277 C1273 1.393 . S
C1277 C1276 1.391 . S
C1278 H1268 0.950 . S
C1278 C1279 1.386 . S
C1278 C1280 1.391 . S
C1279 C1278 1.386 . S
C1279 C1283 1.393 . S
C1280 H1269 0.950 . S
C1280 C1278 1.391 . S
C1280 C1281 1.400 . S
C1281 C1275 1.491 . S
C1281 C1280 1.400 . S
C1281 C1282 1.398 . S
C1282 H1270 0.950 . S
C1282 C1281 1.398 . S
C1282 C1283 1.391 . S
C1283 H1271 0.950 . S
C1283 C1279 1.393 . S
C1283 C1282 1.391 . S
H1284 C1292 0.950 . S
H1285 C1297 0.950 . S
H1286 C1294 0.950 . S
H1287 C1296 0.950 . S
H1288 C1298 0.950 . S
H1289 C1300 0.950 . S
H1290 C1302 0.950 . S
H1291 C1303 0.950 . S
C1292 H1284 0.950 . S
C1292 C1293 1.386 . S
C1292 C1294 1.391 . S
C1293 C1292 1.386 . S
C1293 C1297 1.393 . S
C1294 H1286 0.950 . S
C1294 C1292 1.391 . S
C1294 C1295 1.400 . S
C1295 C1294 1.400 . S
C1295 C1296 1.398 . S
C1295 C1301 1.491 . S
C1296 H1287 0.950 . S
C1296 C1295 1.398 . S
C1296 C1297 1.391 . S
C1297 H1285 0.950 . S
C1297 C1293 1.393 . S
C1297 C1296 1.391 . S
C1298 H1288 0.950 . S
C1298 C1299 1.386 . S
C1298 C1300 1.391 . S
C1299 C1298 1.386 . S
C1299 C1303 1.393 . S
C1300 H1289 0.950 . S
C1300 C1298 1.391 . S
C1300 C1301 1.400 . S
C1301 C1295 1.491 . S
C1301 C1300 1.400 . S
C1301 C1302 1.398 . S
C1302 H1290 0.950 . S
C1302 C1301 1.398 . S
C1302 C1303 1.391 . S
C1303 H1291 0.950 . S
C1303 C1299 1.393 . S
C1303 C1302 1.391 . S
H1304 C1312 0.950 . S
H1305 C1317 0.950 . S
H1306 C1314 0.950 . S
H1307 C1316 0.950 . S
H1308 C1318 0.950 . S
H1309 C1320 0.950 . S
H1310 C1322 0.950 . S
H1311 C1323 0.950 . S
C1312 H1304 0.950 . S
C1312 C1313 1.386 . S
C1312 C1314 1.391 . S
C1313 C1312 1.386 . S
C1313 C1317 1.393 . S
C1314 H1306 0.950 . S
C1314 C1312 1.391 . S
C1314 C1315 1.400 . S
C1315 C1314 1.400 . S
C1315 C1316 1.398 . S
C1315 C1321 1.491 . S
C1316 H1307 0.950 . S
C1316 C1315 1.398 . S
C1316 C1317 1.391 . S
C1317 H1305 0.950 . S
C1317 C1313 1.393 . S
C1317 C1316 1.391 . S
C1318 H1308 0.950 . S
C1318 C1319 1.386 . S
C1318 C1320 1.391 . S
C1319 C1318 1.386 . S
C1319 C1323 1.393 . S
C1320 H1309 0.950 . S
C1320 C1318 1.391 . S
C1320 C1321 1.400 . S
C1321 C1315 1.491 . S
C1321 C1320 1.400 . S
C1321 C1322 1.398 . S
C1322 H1310 0.950 . S
C1322 C1321 1.398 . S
C1322 C1323 1.391 . S
C1323 H1311 0.950 . S
C1323 C1319 1.393 . S
C1323 C1322 1.391 . S
H1324 C1332 0.950 . S
H1325 C1337 0.950 . S
H1326 C1334 0.950 . S
H1327 C1336 0.950 . S
H1328 C1338 0.950 1_556 S
H1329 C1340 0.950 . S
H1330 C1342 0.950 . S
H1331 C1343 0.950 . S
C1332 H1324 0.950 . S
C1332 C1333 1.386 . S
C1332 C1334 1.391 . S
C1333 C1332 1.386 . S
C1333 C1337 1.393 . S
C1334 H1326 0.950 . S
C1334 C1332 1.391 . S
C1334 C1335 1.400 . S
C1335 C1334 1.400 . S
C1335 C1336 1.398 . S
C1335 C1341 1.491 . S
C1336 H1327 0.950 . S
C1336 C1335 1.398 . S
C1336 C1337 1.391 . S
C1337 H1325 0.950 . S
C1337 C1333 1.393 . S
C1337 C1336 1.391 . S
C1338 H1328 0.950 1_554 S
C1338 C1339 1.386 . S
C1338 C1340 1.391 . S
C1339 C1338 1.386 . S
C1339 C1343 1.393 . S
C1340 H1329 0.950 . S
C1340 C1338 1.391 . S
C1340 C1341 1.400 . S
C1341 C1335 1.491 . S
C1341 C1340 1.400 . S
C1341 C1342 1.398 . S
C1342 H1330 0.950 . S
C1342 C1341 1.398 . S
C1342 C1343 1.391 . S
C1343 H1331 0.950 . S
C1343 C1339 1.393 . S
C1343 C1342 1.391 . S
C553 C33 0.359 . S
C559 C169 0.359 . S
C573 C203 0.389 . S
C579 C67 0.396 . S
C593 C237 0.395 . S
C599 C101 0.388 . S
C613 C135 0.384 . S
C619 C271 0.377 . S
C633 C305 0.429 . S
C639 C373 0.426 . S
C653 C407 0.423 . S
C659 C339 0.418 . S
C673 C441 0.418 . S
C679 C509 0.423 . S
C693 C475 0.367 . S
C699 C543 0.373 . S
C713 C20 2.191 . S
C719 C190 2.184 1_554 S
C733 C224 2.185 . S
C739 C54 2.192 . S
C753 C258 2.183 . S
C759 C88 2.192 . S
C773 C122 2.188 1_556 S
C779 C156 2.190 . S
C793 C145 0.794 . S
C799 C349 0.799 . S
C813 C77 0.786 . S
C819 C281 0.793 . S
C833 C213 0.786 . S
C839 C383 0.783 . S
C853 C9 0.783 . S
C859 C315 0.787 . S
C873 C428 2.191 . S
C879 C292 2.184 . S
C893 C360 2.189 1_556 S
C899 C530 2.185 . S
C913 C326 2.190 1_554 S
C919 C462 2.184 . S
C933 C394 2.183 . S
C939 C496 2.193 . S
C953 C485 0.797 . S
C959 C43 0.790 . S
C973 C179 0.799 . S
C979 C451 0.793 . S
C993 C111 0.787 . S
C999 C519 0.783 . S
C1013 C417 0.800 . S
C1019 C247 0.798 . S
C1033 C175 1.124 . S
C1039 C5 1.106 . S
C1053 C209 1.103 . S
C1059 C39 1.126 . S
C1073 C73 1.103 . S
C1079 C243 1.125 . S
C1093 C107 1.091 . S
C1099 C141 1.128 . S
C1113 C138 2.674 . S
C1119 C342 2.677 . S
C1133 C274 2.677 . S
C1139 C70 2.674 1_554 S
C1153 C376 2.676 . S
C1159 C206 2.679 1_556 S
C1173 C2 2.676 . S
C1179 C308 2.679 . S
C1193 C413 1.087 . S
C1199 C277 1.118 . S
C1213 C345 1.122 . S
C1219 C515 1.087 . S
C1233 C447 1.087 . S
C1239 C311 1.119 . S
C1253 C481 1.108 . S
C1259 C379 1.092 . S
C1273 C36 2.679 . S
C1279 C478 2.677 1_556 S
C1293 C172 2.681 . S
C1299 C444 2.674 . S
C1313 C512 2.673 . S
C1319 C104 2.681 . S
C1333 C240 2.673 . S
C1339 C410 2.680 1_554 S
