# Generated by pormake.
# Topology unu, (4)-cn, num edge types: 1
# Building blocks:
#     Node 0, Type 0, BuildingBlock: ICAMEG_clean_sbu_1, # of connection points: 4
#     Node 1, Type 0, BuildingBlock: ICAMEG_clean_sbu_1, # of connection points: 4
#     Node 2, Type 0, BuildingBlock: ICAMEG_clean_sbu_1, # of connection points: 4
#     Node 3, Type 0, BuildingBlock: ICAMEG_clean_sbu_1, # of connection points: 4
#     Node 4, Type 0, BuildingBlock: ICAMEG_clean_sbu_1, # of connection points: 4
#     Node 5, Type 0, BuildingBlock: ICAMEG_clean_sbu_1, # of connection points: 4
#     Node 6, Type 0, BuildingBlock: ICAMEG_clean_sbu_1, # of connection points: 4
#     Node 7, Type 0, BuildingBlock: ICAMEG_clean_sbu_1, # of connection points: 4
#     Node 8, Type 0, BuildingBlock: ICAMEG_clean_sbu_1, # of connection points: 4
#     Node 9, Type 0, BuildingBlock: ICAMEG_clean_sbu_1, # of connection points: 4
#     Node 10, Type 0, BuildingBlock: ICAMEG_clean_sbu_1, # of connection points: 4
#     Node 11, Type 0, BuildingBlock: ICAMEG_clean_sbu_1, # of connection points: 4
#     Node 12, Type 0, BuildingBlock: ICAMEG_clean_sbu_1, # of connection points: 4
#     Node 13, Type 0, BuildingBlock: ICAMEG_clean_sbu_1, # of connection points: 4
#     Node 14, Type 0, BuildingBlock: ICAMEG_clean_sbu_1, # of connection points: 4
#     Node 15, Type 0, BuildingBlock: ICAMEG_clean_sbu_1, # of connection points: 4
#     Node 16, Type 0, BuildingBlock: ICAMEG_clean_sbu_1, # of connection points: 4
#     Node 17, Type 0, BuildingBlock: ICAMEG_clean_sbu_1, # of connection points: 4
#     Node 18, Type 0, BuildingBlock: ICAMEG_clean_sbu_1, # of connection points: 4
#     Node 19, Type 0, BuildingBlock: ICAMEG_clean_sbu_1, # of connection points: 4
#     Node 20, Type 0, BuildingBlock: ICAMEG_clean_sbu_1, # of connection points: 4
#     Node 21, Type 0, BuildingBlock: ICAMEG_clean_sbu_1, # of connection points: 4
#     Node 22, Type 0, BuildingBlock: ICAMEG_clean_sbu_1, # of connection points: 4
#     Node 23, Type 0, BuildingBlock: ICAMEG_clean_sbu_1, # of connection points: 4
#     Node 24, Type 0, BuildingBlock: ICAMEG_clean_sbu_1, # of connection points: 4
#     Node 25, Type 0, BuildingBlock: ICAMEG_clean_sbu_1, # of connection points: 4
#     Node 26, Type 0, BuildingBlock: ICAMEG_clean_sbu_1, # of connection points: 4
#     Node 27, Type 0, BuildingBlock: ICAMEG_clean_sbu_1, # of connection points: 4
#     Node 28, Type 0, BuildingBlock: ICAMEG_clean_sbu_1, # of connection points: 4
#     Node 29, Type 0, BuildingBlock: ICAMEG_clean_sbu_1, # of connection points: 4
#     Node 30, Type 0, BuildingBlock: ICAMEG_clean_sbu_1, # of connection points: 4
#     Node 31, Type 0, BuildingBlock: ICAMEG_clean_sbu_1, # of connection points: 4
#     Node 32, Type 0, BuildingBlock: ICAMEG_clean_sbu_1, # of connection points: 4
#     Node 33, Type 0, BuildingBlock: ICAMEG_clean_sbu_1, # of connection points: 4
#     Node 34, Type 0, BuildingBlock: ICAMEG_clean_sbu_1, # of connection points: 4
#     Node 35, Type 0, BuildingBlock: ICAMEG_clean_sbu_1, # of connection points: 4
#     Edge 36, Type (0, 0), BuildingBlock: KIFKEQ_clean_linker_1, # of connection points: 2
#     Edge 37, Type (0, 0), BuildingBlock: KIFKEQ_clean_linker_1, # of connection points: 2
#     Edge 38, Type (0, 0), BuildingBlock: KIFKEQ_clean_linker_1, # of connection points: 2
#     Edge 39, Type (0, 0), BuildingBlock: KIFKEQ_clean_linker_1, # of connection points: 2
#     Edge 40, Type (0, 0), BuildingBlock: KIFKEQ_clean_linker_1, # of connection points: 2
#     Edge 41, Type (0, 0), BuildingBlock: KIFKEQ_clean_linker_1, # of connection points: 2
#     Edge 42, Type (0, 0), BuildingBlock: KIFKEQ_clean_linker_1, # of connection points: 2
#     Edge 43, Type (0, 0), BuildingBlock: KIFKEQ_clean_linker_1, # of connection points: 2
#     Edge 44, Type (0, 0), BuildingBlock: KIFKEQ_clean_linker_1, # of connection points: 2
#     Edge 45, Type (0, 0), BuildingBlock: KIFKEQ_clean_linker_1, # of connection points: 2
#     Edge 46, Type (0, 0), BuildingBlock: KIFKEQ_clean_linker_1, # of connection points: 2
#     Edge 47, Type (0, 0), BuildingBlock: KIFKEQ_clean_linker_1, # of connection points: 2
#     Edge 48, Type (0, 0), BuildingBlock: KIFKEQ_clean_linker_1, # of connection points: 2
#     Edge 49, Type (0, 0), BuildingBlock: KIFKEQ_clean_linker_1, # of connection points: 2
#     Edge 50, Type (0, 0), BuildingBlock: KIFKEQ_clean_linker_1, # of connection points: 2
#     Edge 51, Type (0, 0), BuildingBlock: KIFKEQ_clean_linker_1, # of connection points: 2
#     Edge 52, Type (0, 0), BuildingBlock: KIFKEQ_clean_linker_1, # of connection points: 2
#     Edge 53, Type (0, 0), BuildingBlock: KIFKEQ_clean_linker_1, # of connection points: 2
#     Edge 54, Type (0, 0), BuildingBlock: KIFKEQ_clean_linker_1, # of connection points: 2
#     Edge 55, Type (0, 0), BuildingBlock: KIFKEQ_clean_linker_1, # of connection points: 2
#     Edge 56, Type (0, 0), BuildingBlock: KIFKEQ_clean_linker_1, # of connection points: 2
#     Edge 57, Type (0, 0), BuildingBlock: KIFKEQ_clean_linker_1, # of connection points: 2
#     Edge 58, Type (0, 0), BuildingBlock: KIFKEQ_clean_linker_1, # of connection points: 2
#     Edge 59, Type (0, 0), BuildingBlock: KIFKEQ_clean_linker_1, # of connection points: 2
#     Edge 60, Type (0, 0), BuildingBlock: KIFKEQ_clean_linker_1, # of connection points: 2
#     Edge 61, Type (0, 0), BuildingBlock: KIFKEQ_clean_linker_1, # of connection points: 2
#     Edge 62, Type (0, 0), BuildingBlock: KIFKEQ_clean_linker_1, # of connection points: 2
#     Edge 63, Type (0, 0), BuildingBlock: KIFKEQ_clean_linker_1, # of connection points: 2
#     Edge 64, Type (0, 0), BuildingBlock: KIFKEQ_clean_linker_1, # of connection points: 2
#     Edge 65, Type (0, 0), BuildingBlock: KIFKEQ_clean_linker_1, # of connection points: 2
#     Edge 66, Type (0, 0), BuildingBlock: KIFKEQ_clean_linker_1, # of connection points: 2
#     Edge 67, Type (0, 0), BuildingBlock: KIFKEQ_clean_linker_1, # of connection points: 2
#     Edge 68, Type (0, 0), BuildingBlock: KIFKEQ_clean_linker_1, # of connection points: 2
#     Edge 69, Type (0, 0), BuildingBlock: KIFKEQ_clean_linker_1, # of connection points: 2
#     Edge 70, Type (0, 0), BuildingBlock: KIFKEQ_clean_linker_1, # of connection points: 2
#     Edge 71, Type (0, 0), BuildingBlock: KIFKEQ_clean_linker_1, # of connection points: 2
#     Edge 72, Type (0, 0), BuildingBlock: KIFKEQ_clean_linker_1, # of connection points: 2
#     Edge 73, Type (0, 0), BuildingBlock: KIFKEQ_clean_linker_1, # of connection points: 2
#     Edge 74, Type (0, 0), BuildingBlock: KIFKEQ_clean_linker_1, # of connection points: 2
#     Edge 75, Type (0, 0), BuildingBlock: KIFKEQ_clean_linker_1, # of connection points: 2
#     Edge 76, Type (0, 0), BuildingBlock: KIFKEQ_clean_linker_1, # of connection points: 2
#     Edge 77, Type (0, 0), BuildingBlock: KIFKEQ_clean_linker_1, # of connection points: 2
#     Edge 78, Type (0, 0), BuildingBlock: KIFKEQ_clean_linker_1, # of connection points: 2
#     Edge 79, Type (0, 0), BuildingBlock: KIFKEQ_clean_linker_1, # of connection points: 2
#     Edge 80, Type (0, 0), BuildingBlock: KIFKEQ_clean_linker_1, # of connection points: 2
#     Edge 81, Type (0, 0), BuildingBlock: KIFKEQ_clean_linker_1, # of connection points: 2
#     Edge 82, Type (0, 0), BuildingBlock: KIFKEQ_clean_linker_1, # of connection points: 2
#     Edge 83, Type (0, 0), BuildingBlock: KIFKEQ_clean_linker_1, # of connection points: 2
#     Edge 84, Type (0, 0), BuildingBlock: KIFKEQ_clean_linker_1, # of connection points: 2
#     Edge 85, Type (0, 0), BuildingBlock: KIFKEQ_clean_linker_1, # of connection points: 2
#     Edge 86, Type (0, 0), BuildingBlock: KIFKEQ_clean_linker_1, # of connection points: 2
#     Edge 87, Type (0, 0), BuildingBlock: KIFKEQ_clean_linker_1, # of connection points: 2
#     Edge 88, Type (0, 0), BuildingBlock: KIFKEQ_clean_linker_1, # of connection points: 2
#     Edge 89, Type (0, 0), BuildingBlock: KIFKEQ_clean_linker_1, # of connection points: 2
#     Edge 90, Type (0, 0), BuildingBlock: KIFKEQ_clean_linker_1, # of connection points: 2
#     Edge 91, Type (0, 0), BuildingBlock: KIFKEQ_clean_linker_1, # of connection points: 2
#     Edge 92, Type (0, 0), BuildingBlock: KIFKEQ_clean_linker_1, # of connection points: 2
#     Edge 93, Type (0, 0), BuildingBlock: KIFKEQ_clean_linker_1, # of connection points: 2
#     Edge 94, Type (0, 0), BuildingBlock: KIFKEQ_clean_linker_1, # of connection points: 2
#     Edge 95, Type (0, 0), BuildingBlock: KIFKEQ_clean_linker_1, # of connection points: 2
#     Edge 96, Type (0, 0), BuildingBlock: KIFKEQ_clean_linker_1, # of connection points: 2
#     Edge 97, Type (0, 0), BuildingBlock: KIFKEQ_clean_linker_1, # of connection points: 2
#     Edge 98, Type (0, 0), BuildingBlock: KIFKEQ_clean_linker_1, # of connection points: 2
#     Edge 99, Type (0, 0), BuildingBlock: KIFKEQ_clean_linker_1, # of connection points: 2
#     Edge 100, Type (0, 0), BuildingBlock: KIFKEQ_clean_linker_1, # of connection points: 2
#     Edge 101, Type (0, 0), BuildingBlock: KIFKEQ_clean_linker_1, # of connection points: 2
#     Edge 102, Type (0, 0), BuildingBlock: KIFKEQ_clean_linker_1, # of connection points: 2
#     Edge 103, Type (0, 0), BuildingBlock: KIFKEQ_clean_linker_1, # of connection points: 2
#     Edge 104, Type (0, 0), BuildingBlock: KIFKEQ_clean_linker_1, # of connection points: 2
#     Edge 105, Type (0, 0), BuildingBlock: KIFKEQ_clean_linker_1, # of connection points: 2
#     Edge 106, Type (0, 0), BuildingBlock: KIFKEQ_clean_linker_1, # of connection points: 2
#     Edge 107, Type (0, 0), BuildingBlock: KIFKEQ_clean_linker_1, # of connection points: 2
# Relax obj value: 0.071
# Max RMSD: 0.135
# Mean RMSD: 0.135
data_MOF--net-unu--node1-ICAMEG_clean_sbu_1--edge1-KIFKEQ_clean_linker_1
_symmetry_space_group_name_H-M    P1
_symmetry_Int_Tables_number       1
_symmetry_cell_setting            triclinic
loop_
_symmetry_equiv_pos_as_xyz
'x, y, z'
_cell_length_a     48.356852
_cell_length_b     48.356964
_cell_length_c     113.32962
_cell_angle_alpha  90.002632
_cell_angle_beta   89.9963
_cell_angle_gamma 119.98581
loop_
_atom_site_label
_atom_site_type_symbol
_atom_site_fract_x
_atom_site_fract_y
_atom_site_fract_z
_atom_type_partial_charge
Co0 Co 0.18238 0.02356 0.14028 0.0
Co1 Co 0.1888 0.02893 0.10984 0.0
O2 O 0.20577 0.02915 0.12556 0.0
C3 C 0.24154 0.08533 0.14381 0.0
O4 O 0.23823 0.09309 0.13301 0.0
C5 C 0.20494 0.97767 0.10827 0.0
O6 O 0.19096 0.96728 0.11854 0.0
O7 O 0.14763 0.98918 0.11342 0.0
O8 O 0.14263 0.98915 0.13311 0.0
H9 H 0.10619 0.02053 0.08092 0.0
H10 H 0.24287 0.02206 0.14063 0.0
O11 O 0.22167 0.05806 0.14796 0.0
H12 H 0.16084 0.91677 0.15553 0.0
H13 H 0.16856 0.01524 0.18442 0.0
H14 H 0.11854 0.01403 0.14636 0.0
H15 H 0.14656 0.95739 0.15 0.0
H16 H 0.19728 0.02168 0.16571 0.0
O17 O 0.20667 0.00246 0.10365 0.0
H18 H 0.12785 0.02109 0.10068 0.0
H19 H 0.21447 0.036 0.0854 0.0
H20 H 0.08887 0.00725 0.16484 0.0
H21 H 0.25825 0.98221 0.14614 0.0
H22 H 0.1139 0.00784 0.18405 0.0
H23 H 0.21704 0.9291 0.15362 0.0
O24 O 0.17015 0.05565 0.13538 0.0
H25 H 0.30825 0.09778 0.10885 0.0
H26 H 0.20609 0.09217 0.09932 0.0
H27 H 0.25665 0.14184 0.09533 0.0
H28 H 0.30822 0.14484 0.10009 0.0
H29 H 0.25709 0.04867 0.1128 0.0
H30 H 0.19364 0.03532 0.06547 0.0
H31 H 0.13917 0.02767 0.06314 0.0
O32 O 0.17058 0.05535 0.11555 0.0
C33 C 0.13201 0.97748 0.12295 0.0
C34 C 0.12999 0.02397 0.08182 0.0
C35 C 0.17905 0.03223 0.07315 0.0
N36 N 0.17246 0.02879 0.09419 0.0
C37 C 0.14242 0.0244 0.09298 0.0
C38 C 0.19069 0.03251 0.08445 0.0
C39 C 0.14849 0.02795 0.07185 0.0
C40 C 0.22488 -0.0009 0.14398 0.0
N41 N 0.19391 0.99213 0.14506 0.0
C42 C 0.2337 0.97659 0.14704 0.0
C43 C 0.21056 0.94678 0.15122 0.0
C44 C 0.17901 0.93984 0.15229 0.0
C45 C 0.17106 0.96292 0.14913 0.0
C46 C 0.15738 0.01489 0.1761 0.0
C47 C 0.12952 0.01414 0.15468 0.0
C48 C 0.17355 0.0186 0.16549 0.0
N49 N 0.15951 0.01803 0.15495 0.0
C50 C 0.11264 0.01037 0.16511 0.0
C51 C 0.12671 0.01073 0.17589 0.0
C52 C 0.16521 0.06456 0.12538 0.0
C53 C 0.28594 0.09675 0.10672 0.0
C54 C 0.22841 0.09335 0.10147 0.0
C55 C 0.25698 0.1215 0.09915 0.0
C56 C 0.2859 0.12316 0.10182 0.0
N57 N 0.22864 0.06755 0.10628 0.0
C58 C 0.25691 0.06898 0.1089 0.0
Co59 Co 0.9745 0.16159 0.13828 0.0
Co60 Co 0.96928 0.1601 0.10778 0.0
O61 O 0.96853 0.1778 0.12325 0.0
C62 C 0.9116 0.15712 0.14121 0.0
O63 O 0.90444 0.14588 0.13041 0.0
C64 C 0.02001 0.22752 0.10588 0.0
O65 O 0.03008 0.22459 0.11631 0.0
O66 O 0.00901 0.15907 0.11176 0.0
O67 O 0.01019 0.15744 0.13156 0.0
H68 H 0.97893 0.08447 0.07993 0.0
H69 H 0.97362 0.22234 0.13742 0.0
O70 O 0.9389 0.16531 0.14553 0.0
H71 H 0.07888 0.25043 0.15387 0.0
H72 H 0.98159 0.15904 0.18257 0.0
H73 H 0.9865 0.1094 0.1452 0.0
H74 H 0.03991 0.19463 0.14877 0.0
H75 H 0.97469 0.17946 0.16351 0.0
O76 O 0.9956 0.20405 0.10125 0.0
H77 H 0.97788 0.10676 0.09939 0.0
H78 H 0.96235 0.17689 0.08305 0.0
H79 H 0.99382 0.0884 0.16406 0.0
H80 H 0.01173 0.27843 0.1425 0.0
H81 H 0.99137 0.11327 0.18293 0.0
H82 H 0.06484 0.29279 0.15074 0.0
O83 O 0.94353 0.11655 0.1337 0.0
H84 H 0.89968 0.20971 0.10518 0.0
H85 H 0.90616 0.11267 0.09762 0.0
H86 H 0.8563 0.11274 0.0931 0.0
H87 H 0.85285 0.16153 0.09687 0.0
H88 H 0.949 0.20853 0.10966 0.0
H89 H 0.96348 0.15552 0.06341 0.0
H90 H 0.97169 0.1089 0.06176 0.0
O91 O 0.94322 0.11597 0.11387 0.0
C92 C 0.02142 0.15709 0.12144 0.0
C93 C 0.97525 0.10474 0.08053 0.0
C94 C 0.96662 0.14464 0.07126 0.0
N95 N 0.96986 0.14295 0.09236 0.0
C96 C 0.97456 0.11742 0.09153 0.0
C97 C 0.96608 0.15668 0.08241 0.0
C98 C 0.97121 0.11847 0.07034 0.0
C99 C 0.9966 0.22839 0.14109 0.0
N100 N 0.00456 0.20525 0.14279 0.0
C101 C 0.01811 0.26019 0.14391 0.0
C102 C 0.04793 0.26823 0.14852 0.0
C103 C 0.05583 0.24449 0.15026 0.0
C104 C 0.03373 0.21295 0.14732 0.0
C105 C 0.98276 0.14803 0.17441 0.0
C106 C 0.98559 0.12046 0.15337 0.0
C107 C 0.97879 0.15944 0.16359 0.0
N108 N 0.98039 0.14576 0.15325 0.0
C109 C 0.98967 0.10842 0.16403 0.0
C110 C 0.98826 0.12236 0.1746 0.0
C111 C 0.9345 0.10201 0.12382 0.0
C112 C 0.90092 0.18834 0.10347 0.0
C113 C 0.90483 0.13398 0.09931 0.0
C114 C 0.87655 0.13389 0.09671 0.0
C115 C 0.87464 0.16128 0.09882 0.0
N116 N 0.93052 0.16064 0.10384 0.0
C117 C 0.92883 0.18758 0.10594 0.0
Co118 Co 0.83985 0.81128 0.1373 0.0
Co119 Co 0.83674 0.81164 0.10698 0.0
O120 O 0.82039 0.79099 0.12227 0.0
C121 C 0.83707 0.74892 0.13919 0.0
O122 O 0.84848 0.75304 0.12842 0.0
C123 C 0.76868 0.79326 0.10595 0.0
O124 O 0.77199 0.80593 0.11647 0.0
O125 O 0.83599 0.85061 0.11224 0.0
O126 O 0.84898 0.85374 0.13138 0.0
H127 H 0.90761 0.90218 0.08002 0.0
H128 H 0.77505 0.75439 0.13713 0.0
O129 O 0.83135 0.76948 0.14383 0.0
H130 H 0.7622 0.84013 0.15515 0.0
H131 H 0.8476 0.81808 0.18163 0.0
H132 H 0.89841 0.871 0.14418 0.0
H133 H 0.81529 0.85031 0.14884 0.0
H134 H 0.8229 0.79353 0.16257 0.0
O135 O 0.79218 0.79312 0.10097 0.0
H136 H 0.88734 0.87581 0.09925 0.0
H137 H 0.81917 0.79081 0.082 0.0
H138 H 0.92379 0.89652 0.16303 0.0
H139 H 0.72153 0.74309 0.14341 0.0
H140 H 0.89836 0.87002 0.18194 0.0
H141 H 0.71486 0.78618 0.15246 0.0
O142 O 0.88254 0.82005 0.13174 0.0
H143 H 0.79125 0.69351 0.1019 0.0
H144 H 0.88519 0.79992 0.09521 0.0
H145 H 0.887 0.75188 0.08915 0.0
H146 H 0.83977 0.6982 0.09246 0.0
H147 H 0.79056 0.74219 0.10793 0.0
H148 H 0.83851 0.81634 0.06259 0.0
H149 H 0.88314 0.87238 0.06151 0.0
O150 O 0.88177 0.83073 0.1125 0.0
C151 C 0.84443 0.86554 0.12204 0.0
C152 C 0.88822 0.87771 0.08037 0.0
C153 C 0.84942 0.82955 0.07059 0.0
N154 N 0.85231 0.83172 0.09174 0.0
C155 C 0.87671 0.86263 0.09123 0.0
C156 C 0.83853 0.81524 0.0816 0.0
C157 C 0.87447 0.86099 0.06999 0.0
C158 C 0.77236 0.77317 0.14117 0.0
N159 N 0.79827 0.80291 0.14267 0.0
C160 C 0.74199 0.76667 0.14466 0.0
C161 C 0.73826 0.79087 0.14972 0.0
C162 C 0.76481 0.82115 0.15123 0.0
C163 C 0.7948 0.82679 0.14761 0.0
C164 C 0.85888 0.8299 0.17345 0.0
C165 C 0.88709 0.85941 0.15237 0.0
C166 C 0.84503 0.81609 0.16264 0.0
N167 N 0.85906 0.83095 0.15227 0.0
C168 C 0.90162 0.87394 0.16302 0.0
C169 C 0.88735 0.85904 0.17362 0.0
C170 C 0.89638 0.83041 0.12182 0.0
C171 C 0.81195 0.71677 0.10038 0.0
C172 C 0.86457 0.77664 0.09672 0.0
C173 C 0.86572 0.74953 0.09324 0.0
C174 C 0.8392 0.71942 0.0951 0.0
N175 N 0.83773 0.77385 0.10188 0.0
C176 C 0.81165 0.74442 0.10373 0.0
Co177 Co 0.02345 0.18609 0.36495 0.0
Co178 Co 0.02171 0.18422 0.39536 0.0
O179 O 0.02604 0.20569 0.38028 0.0
C180 C 0.08605 0.24531 0.36317 0.0
O181 O 0.09413 0.23764 0.37319 0.0
C182 C 0.97291 0.20357 0.39676 0.0
O183 O 0.96366 0.19143 0.38617 0.0
O184 O 0.98164 0.14566 0.39009 0.0
O185 O 0.98848 0.14412 0.37056 0.0
H186 H 0.00199 0.0923 0.42157 0.0
H187 H 0.02007 0.24554 0.36625 0.0
O188 O 0.05838 0.22768 0.35884 0.0
H189 H 0.91862 0.1657 0.348 0.0
H190 H 0.02345 0.18348 0.32053 0.0
H191 H 0.01717 0.1248 0.35696 0.0
H192 H 0.95925 0.15147 0.35355 0.0
H193 H 0.0257 0.20711 0.34005 0.0
O194 O 0.99618 0.20297 0.40174 0.0
H195 H 0.00791 0.11958 0.40256 0.0
H196 H 0.02553 0.20397 0.42051 0.0
H197 H 0.01459 0.10018 0.33763 0.0
H198 H 0.98019 0.26087 0.36075 0.0
H199 H 0.01773 0.12958 0.31924 0.0
H200 H 0.92899 0.22076 0.35158 0.0
O201 O 0.05538 0.17373 0.36989 0.0
H202 H 0.09575 0.30194 0.40089 0.0
H203 H 0.08179 0.19464 0.40678 0.0
H204 H 0.13215 0.24204 0.41288 0.0
H205 H 0.13935 0.29616 0.40997 0.0
H206 H 0.04586 0.2539 0.39483 0.0
H207 H 0.01955 0.17753 0.43972 0.0
H208 H 0.00783 0.12133 0.44032 0.0
O209 O 0.04707 0.16501 0.38939 0.0
C210 C 0.97335 0.13173 0.38009 0.0
C211 C 0.00721 0.11683 0.42142 0.0
C212 C 0.01702 0.16465 0.43161 0.0
N213 N 0.01734 0.16341 0.41043 0.0
C214 C 0.01067 0.13243 0.41069 0.0
C215 C 0.02032 0.17947 0.42071 0.0
C216 C 0.01046 0.13312 0.43194 0.0
C217 C -0.00203 0.22805 0.36216 0.0
N218 N 0.99206 0.1977 0.36018 0.0
C219 C 0.97543 0.23683 0.35911 0.0
C220 C 0.94669 0.2143 0.35398 0.0
C221 C 0.94085 0.18339 0.35198 0.0
C222 C 0.96392 0.17546 0.35517 0.0
C223 C 0.02198 0.1704 0.32848 0.0
C224 C 0.01835 0.13766 0.34899 0.0
C225 C 0.02328 0.18368 0.33956 0.0
N226 N 0.02126 0.16721 0.34963 0.0
C227 C 0.01697 0.12363 0.33808 0.0
C228 C 0.01876 0.14015 0.32776 0.0
C229 C 0.06003 0.16387 0.37974 0.0
C230 C 0.09286 0.27848 0.40224 0.0
C231 C 0.08477 0.21812 0.40546 0.0
C232 C 0.11332 0.24486 0.40895 0.0
C233 C 0.11733 0.27522 0.40732 0.0
N234 N 0.06085 0.22151 0.40051 0.0
C235 C 0.06463 0.25119 0.39887 0.0
Co236 Co 0.81235 0.83854 0.36089 0.0
Co237 Co 0.80759 0.83483 0.39125 0.0
O238 O 0.7894 0.81932 0.37556 0.0
C239 C 0.7521 0.83925 0.35756 0.0
O240 O 0.75527 0.85033 0.36836 0.0
C241 C 0.78783 0.76641 0.39229 0.0
O242 O 0.8019 0.76986 0.38205 0.0
O243 O 0.84707 0.83363 0.38711 0.0
O244 O 0.85305 0.84537 0.3678 0.0
H245 H 0.89384 0.90382 0.42002 0.0
H246 H 0.75353 0.77521 0.3602 0.0
O247 O 0.77232 0.83235 0.3534 0.0
H248 H 0.83852 0.75753 0.34446 0.0
H249 H 0.82596 0.84716 0.31674 0.0
H250 H 0.87472 0.89525 0.35503 0.0
H251 H 0.85047 0.81136 0.35054 0.0
H252 H 0.79785 0.82284 0.33536 0.0
O253 O 0.78749 0.79 0.39711 0.0
H254 H 0.87063 0.88453 0.40029 0.0
H255 H 0.7825 0.81654 0.41576 0.0
H256 H 0.90378 0.92021 0.33663 0.0
H257 H 0.74047 0.721 0.35413 0.0
H258 H 0.87938 0.89613 0.31731 0.0
H259 H 0.78317 0.7119 0.34623 0.0
O260 O 0.82245 0.88183 0.36627 0.0
H261 H 0.68909 0.79088 0.39345 0.0
H262 H 0.79488 0.88346 0.40228 0.0
H263 H 0.74638 0.88595 0.40699 0.0
H264 H 0.693 0.8394 0.40259 0.0
H265 H 0.73823 0.78951 0.38879 0.0
H266 H 0.80483 0.83491 0.43566 0.0
H267 H 0.86085 0.87895 0.43788 0.0
O268 O 0.82812 0.88005 0.38587 0.0
C269 C 0.86325 0.84097 0.37758 0.0
C270 C 0.86937 0.88469 0.41917 0.0
C271 C 0.81942 0.84598 0.42795 0.0
N272 N 0.82516 0.84965 0.40687 0.0
C273 C 0.85606 0.87373 0.40802 0.0
C274 C 0.80693 0.83565 0.41666 0.0
C275 C 0.85085 0.8707 0.42919 0.0
C276 C 0.77216 0.77147 0.35666 0.0
N277 N 0.80267 0.79643 0.35567 0.0
C278 C 0.76466 0.74071 0.35329 0.0
C279 C 0.78864 0.73561 0.34887 0.0
C280 C 0.81971 0.7612 0.34788 0.0
C281 C 0.82634 0.79162 0.35136 0.0
C282 C 0.83687 0.85784 0.3251 0.0
C283 C 0.86403 0.88453 0.34666 0.0
C284 C 0.82104 0.84421 0.33567 0.0
N285 N 0.83474 0.85748 0.34627 0.0
C286 C 0.88056 0.89882 0.33627 0.0
C287 C 0.86685 0.88531 0.32543 0.0
C288 C 0.83056 0.89519 0.37637 0.0
C289 C 0.71221 0.81128 0.39544 0.0
C290 C 0.77174 0.86314 0.4003 0.0
C291 C 0.74436 0.86466 0.40301 0.0
C292 C 0.71442 0.83853 0.40055 0.0
N293 N 0.76937 0.8363 0.39531 0.0
C294 C 0.7401 0.81059 0.39286 0.0
Co295 Co 0.15669 0.97081 0.36332 0.0
Co296 Co 0.15825 0.96994 0.39374 0.0
O297 O 0.17519 0.96775 0.37827 0.0
C298 C 0.15788 0.91064 0.36051 0.0
O299 O 0.14622 0.90272 0.37123 0.0
C300 C 0.22595 0.02015 0.39519 0.0
O301 O 0.22256 0.03017 0.38481 0.0
O302 O 0.15828 0.00985 0.3893 0.0
O303 O 0.14837 0.00414 0.36985 0.0
H304 H 0.08555 0.98461 0.42149 0.0
H305 H 0.22075 0.97691 0.36346 0.0
O306 O 0.16438 0.9375 0.3562 0.0
H307 H 0.23708 0.07855 0.34715 0.0
H308 H 0.15102 0.9751 0.31903 0.0
H309 H 0.0995 0.97479 0.35663 0.0
H310 H 0.18323 0.03586 0.35282 0.0
H311 H 0.17443 0.97224 0.33801 0.0
O312 O 0.2026 0.99592 0.39996 0.0
H313 H 0.1066 0.98128 0.40204 0.0
H314 H 0.17553 0.96417 0.41852 0.0
H315 H 0.07542 0.97794 0.33786 0.0
H316 H 0.27499 0.01889 0.35781 0.0
H317 H 0.10122 0.9781 0.31888 0.0
H318 H 0.28341 0.07018 0.34962 0.0
O319 O 0.11336 0.93702 0.36838 0.0
H320 H 0.20559 0.89846 0.39711 0.0
H321 H 0.11027 0.90806 0.4046 0.0
H322 H 0.10931 0.858 0.40969 0.0
H323 H 0.15724 0.85299 0.40596 0.0
H324 H 0.20543 0.94801 0.39206 0.0
H325 H 0.15541 0.96759 0.43815 0.0
H326 H 0.11001 0.97774 0.43972 0.0
O327 O 0.1135 0.94406 0.38797 0.0
C328 C 0.15146 0.01847 0.37961 0.0
C329 C 0.10527 0.98006 0.42092 0.0
C330 C 0.14451 0.97055 0.43027 0.0
N331 N 0.14205 0.97223 0.40915 0.0
C332 C 0.11722 0.97805 0.40994 0.0
C333 C 0.15583 0.96869 0.41913 0.0
C334 C 0.11903 0.97624 0.43115 0.0
C335 C 0.2242 -0.00094 0.3598 0.0
N336 N 0.19885 0.00387 0.35842 0.0
C337 C 0.25498 0.02278 0.35666 0.0
C338 C 0.25969 0.05158 0.35208 0.0
C339 C 0.23371 0.0563 0.3507 0.0
C340 C 0.20328 0.03206 0.35395 0.0
C341 C 0.13959 0.97511 0.32724 0.0
C342 C 0.11097 0.97503 0.34841 0.0
C343 C 0.1527 0.97343 0.33802 0.0
N344 N 0.13848 0.97359 0.34842 0.0
C345 C 0.09718 0.97674 0.33781 0.0
C346 C 0.11165 0.9768 0.32716 0.0
C347 C 0.09922 0.9313 0.37833 0.0
C348 C 0.18459 0.90039 0.3988 0.0
C349 C 0.13119 0.90604 0.40292 0.0
C350 C 0.13053 0.87766 0.40584 0.0
C351 C 0.15744 0.87487 0.40375 0.0
N352 N 0.15794 0.93098 0.39808 0.0
C353 C 0.18441 0.92843 0.39601 0.0
Co354 Co 0.81012 0.97406 0.86457 0.0
Co355 Co 0.80928 0.96959 0.89505 0.0
O356 O 0.78938 0.9683 0.87988 0.0
C357 C 0.75264 0.91045 0.86185 0.0
O358 O 0.76007 0.90206 0.87186 0.0
C359 C 0.79227 0.01995 0.89723 0.0
O360 O 0.80475 0.02977 0.88672 0.0
O361 O 0.84943 0.00938 0.89065 0.0
O362 O 0.85076 0.00966 0.87082 0.0
H363 H 0.89723 0.98056 0.92173 0.0
H364 H 0.74875 0.97357 0.86636 0.0
O365 O 0.7698 0.93859 0.85785 0.0
H366 H 0.82492 0.07861 0.8495 0.0
H367 H 0.81499 0.98014 0.8202 0.0
H368 H 0.87348 0.98573 0.85659 0.0
H369 H 0.84189 0.03945 0.85409 0.0
H370 H 0.78975 0.97367 0.83969 0.0
O371 O 0.79181 0.99579 0.90189 0.0
H372 H 0.8721 0.97883 0.9026 0.0
H373 H 0.78777 0.96324 0.92006 0.0
H374 H 0.89972 0.99261 0.83729 0.0
H375 H 0.73066 0.01189 0.86181 0.0
H376 H 0.87042 0.98983 0.81892 0.0
H377 H 0.76891 0.06489 0.85336 0.0
O378 O 0.82464 0.94315 0.86876 0.0
H379 H 0.69049 0.89907 0.89901 0.0
H380 H 0.79515 0.90696 0.90521 0.0
H381 H 0.74596 0.85694 0.91026 0.0
H382 H 0.69316 0.8528 0.90719 0.0
H383 H 0.74027 0.94856 0.894 0.0
H384 H 0.81208 0.96506 0.93939 0.0
H385 H 0.86715 0.97364 0.94031 0.0
O386 O 0.82718 0.94372 0.88857 0.0
C387 C 0.86313 0.02128 0.88082 0.0
C388 C 0.87318 0.97672 0.92145 0.0
C389 C 0.82541 0.96806 0.93136 0.0
N390 N 0.82843 0.97072 0.91021 0.0
C391 C 0.8588 0.97563 0.91064 0.0
C392 C 0.8118 0.96712 0.92039 0.0
C393 C 0.85631 0.97286 0.93187 0.0
C394 C 0.76546 0.99649 0.8626 0.0
N395 N 0.79634 0.00427 0.86049 0.0
C396 C 0.75511 0.01813 0.86008 0.0
C397 C 0.7766 0.04788 0.85535 0.0
C398 C 0.80803 0.0556 0.85319 0.0
C399 C 0.81754 0.03338 0.85585 0.0
C400 C 0.82802 0.98147 0.82814 0.0
C401 C 0.86064 0.98468 0.84864 0.0
C402 C 0.81383 0.97774 0.8392 0.0
N403 N 0.83022 0.97956 0.84927 0.0
C404 C 0.87559 0.98851 0.83774 0.0
C405 C 0.85913 0.98691 0.82743 0.0
C406 C 0.83143 0.93468 0.87852 0.0
C407 C 0.71336 0.90062 0.90043 0.0
C408 C 0.77226 0.90531 0.90383 0.0
C409 C 0.74449 0.87695 0.90672 0.0
C410 C 0.71487 0.87465 0.905 0.0
N411 N 0.77057 0.93071 0.89938 0.0
C412 C 0.74162 0.92861 0.89765 0.0
Co413 Co 0.02725 0.84053 0.86235 0.0
Co414 Co 0.02478 0.8363 0.89267 0.0
O415 O 0.0284 0.8204 0.87718 0.0
C416 C 0.08661 0.83757 0.85983 0.0
O417 O 0.09437 0.84877 0.87062 0.0
C418 C 0.97461 0.76841 0.89364 0.0
O419 O 0.96492 0.77199 0.88322 0.0
O420 O 0.98506 0.83607 0.88778 0.0
O421 O 0.99428 0.8497 0.86868 0.0
H422 H 0.00659 0.90663 0.92046 0.0
H423 H 0.01889 0.77555 0.86197 0.0
O424 O 0.06015 0.83199 0.85541 0.0
H425 H 0.92003 0.76406 0.84474 0.0
H426 H 0.02684 0.85001 0.8181 0.0
H427 H 0.02621 0.89952 0.85606 0.0
H428 H 0.96336 0.81679 0.85116 0.0
H429 H 0.02714 0.8245 0.83691 0.0
O430 O -0.00131 0.79164 0.89852 0.0
H431 H 0.01184 0.88689 0.901 0.0
H432 H 0.02889 0.81789 0.91745 0.0
H433 H 0.02564 0.92572 0.83747 0.0
H434 H 0.97624 0.72238 0.85557 0.0
H435 H 0.02596 0.90093 0.8183 0.0
H436 H 0.92634 0.7164 0.84692 0.0
O437 O 0.06153 0.88295 0.868 0.0
H438 H 0.09685 0.7898 0.89662 0.0
H439 H 0.0855 0.88402 0.90432 0.0
H440 H 0.13535 0.88519 0.90992 0.0
H441 H 0.14123 0.8378 0.9061 0.0
H442 H 0.0475 0.78976 0.89106 0.0
H443 H 0.02355 0.8367 0.9371 0.0
H444 H 0.01246 0.88149 0.93869 0.0
O445 O 0.05077 0.88143 0.88733 0.0
C446 C 0.97828 0.84491 0.87813 0.0
C447 C 0.01154 0.88718 0.91989 0.0
C448 C 0.02102 0.84791 0.92922 0.0
N449 N 0.02097 0.85147 0.90809 0.0
C450 C 0.01463 0.87596 0.90889 0.0
C451 C 0.02396 0.83732 0.91807 0.0
C452 C 0.0148 0.87304 0.93011 0.0
C453 C 0.99736 0.77316 0.85811 0.0
N454 N 0.99369 0.79925 0.85689 0.0
C455 C 0.97325 0.74299 0.85455 0.0
C456 C 0.94524 0.73964 0.84971 0.0
C457 C 0.94167 0.76637 0.84849 0.0
C458 C 0.96626 0.79615 0.85217 0.0
C459 C 0.02663 0.86101 0.82639 0.0
C460 C 0.02616 0.88849 0.84776 0.0
C461 C 0.02685 0.8467 0.83707 0.0
N462 N 0.02644 0.86038 0.84757 0.0
C463 C 0.02592 0.90348 0.83726 0.0
C464 C 0.02613 0.88958 0.82651 0.0
C465 C 0.06543 0.89638 0.87803 0.0
C466 C 0.09453 0.81056 0.89836 0.0
C467 C 0.08792 0.86335 0.90258 0.0
C468 C 0.11617 0.86412 0.90581 0.0
C469 C 0.11945 0.83752 0.90366 0.0
N470 N 0.06356 0.83678 0.89741 0.0
C471 C 0.06661 0.81062 0.89527 0.0
Co472 Co 0.15922 0.18361 0.86248 0.0
Co473 Co 0.15781 0.18685 0.89297 0.0
O474 O 0.17546 0.20554 0.87754 0.0
C475 C 0.15309 0.24094 0.85932 0.0
O476 O 0.13803 0.23434 0.86947 0.0
C477 C 0.22521 0.20338 0.89485 0.0
O478 O 0.22228 0.19048 0.8844 0.0
O479 O 0.15701 0.14625 0.88885 0.0
O480 O 0.1543 0.14347 0.86908 0.0
H481 H 0.08207 0.10098 0.92058 0.0
H482 H 0.22041 0.24493 0.86319 0.0
O483 O 0.16384 0.22349 0.8554 0.0
H484 H 0.24731 0.16632 0.84732 0.0
H485 H 0.15752 0.17515 0.81817 0.0
H486 H 0.10651 0.11993 0.85528 0.0
H487 H 0.19168 0.1502 0.85242 0.0
H488 H 0.17772 0.20184 0.83735 0.0
O489 O 0.20177 0.20438 0.89948 0.0
H490 H 0.10437 0.12484 0.90118 0.0
H491 H 0.17472 0.20988 0.91778 0.0
H492 H 0.08569 0.09227 0.8363 0.0
H493 H 0.27634 0.26213 0.85812 0.0
H494 H 0.11125 0.11992 0.81757 0.0
H495 H 0.29009 0.22265 0.85015 0.0
O496 O 0.1142 0.16966 0.86704 0.0
H497 H 0.20725 0.30603 0.89548 0.0
H498 H 0.11105 0.20255 0.9038 0.0
H499 H 0.11117 0.25243 0.90847 0.0
H500 H 0.15958 0.30466 0.90432 0.0
H501 H 0.20593 0.25554 0.89084 0.0
H502 H 0.15337 0.18684 0.93737 0.0
H503 H 0.10662 0.13206 0.93885 0.0
O504 O 0.11358 0.16902 0.88688 0.0
C505 C 0.15443 0.13182 0.87913 0.0
C506 C 0.10239 0.12491 0.92005 0.0
C507 C 0.14244 0.17308 0.92947 0.0
N508 N 0.14067 0.16879 0.90835 0.0
C509 C 0.11506 0.13858 0.90909 0.0
C510 C 0.15448 0.18597 0.91836 0.0
C511 C 0.1162 0.14235 0.93029 0.0
C512 C 0.22618 0.22769 0.85962 0.0
N513 N 0.2028 0.19665 0.85804 0.0
C514 C 0.2579 0.23753 0.85681 0.0
C515 C 0.2656 0.21536 0.85236 0.0
C516 C 0.24162 0.18375 0.85077 0.0
C517 C 0.21017 0.17475 0.8537 0.0
C518 C 0.14622 0.16283 0.82627 0.0
C519 C 0.11788 0.13205 0.84717 0.0
C520 C 0.15752 0.17784 0.83716 0.0
N521 N 0.14346 0.16236 0.84743 0.0
C522 C 0.10593 0.1163 0.83645 0.0
C523 C 0.12026 0.13184 0.82594 0.0
C524 C 0.09967 0.16401 0.87692 0.0
C525 C 0.18602 0.28342 0.89733 0.0
C526 C 0.13209 0.22517 0.9019 0.0
C527 C 0.13208 0.25334 0.9046 0.0
C528 C 0.15926 0.28264 0.90228 0.0
N529 N 0.15842 0.22613 0.89705 0.0
C530 C 0.18517 0.25476 0.89476 0.0
Co531 Co 0.97125 0.80952 0.6381 0.0
Co532 Co 0.97399 0.81164 0.60774 0.0
O533 O 0.96937 0.79002 0.6228 0.0
C534 C 0.90926 0.74959 0.63984 0.0
O535 O 0.90109 0.75699 0.62978 0.0
C536 C 0.02277 0.79217 0.60625 0.0
O537 O 0.03215 0.80418 0.61686 0.0
O538 O 0.01406 0.8499 0.61315 0.0
O539 O 0.00574 0.85192 0.63253 0.0
H540 H 0.99511 0.90421 0.58165 0.0
H541 H 0.97627 0.75096 0.63697 0.0
O542 O 0.93682 0.76759 0.64419 0.0
H543 H 0.07654 0.83248 0.65543 0.0
H544 H 0.97032 0.81225 0.68251 0.0
H545 H 0.97559 0.87007 0.64597 0.0
H546 H 0.03514 0.84543 0.64966 0.0
H547 H 0.96915 0.78886 0.66305 0.0
O548 O -0.00061 0.79276 0.60137 0.0
H549 H 0.98862 0.87659 0.60062 0.0
H550 H 0.97027 0.79213 0.58256 0.0
H551 H 0.97708 0.89445 0.66525 0.0
H552 H 0.01694 0.73691 0.64269 0.0
H553 H 0.97445 0.86549 0.6837 0.0
H554 H 0.06754 0.77786 0.65196 0.0
O555 O 0.93867 0.82081 0.63299 0.0
H556 H 0.89953 0.69411 0.60196 0.0
H557 H 0.91424 0.80173 0.59618 0.0
H558 H 0.86386 0.75459 0.58992 0.0
H559 H 0.8563 0.7003 0.59279 0.0
H560 H 0.94945 0.74191 0.60818 0.0
H561 H 0.97683 0.81891 0.56339 0.0
H562 H 0.98921 0.87532 0.56286 0.0
O563 O 0.94872 0.83104 0.61365 0.0
C564 C 0.02154 0.86411 0.6231 0.0
C565 C 0.9896 0.87959 0.58177 0.0
C566 C 0.97938 0.83173 0.57152 0.0
N567 N 0.97876 0.8327 0.59269 0.0
C568 C 0.9858 0.8638 0.59248 0.0
C569 C 0.97575 0.81671 0.5824 0.0
C570 C 0.98632 0.86338 0.57123 0.0
C571 C -0.0019 0.76882 0.6411 0.0
N572 N 0.00325 0.79892 0.64303 0.0
C573 C 0.0211 0.76076 0.64428 0.0
C574 C 0.04951 0.78376 0.64946 0.0
C575 C 0.05458 0.81442 0.6514 0.0
C576 C 0.03107 0.82163 0.64809 0.0
C577 C 0.97158 0.82515 0.67454 0.0
C578 C 0.97466 0.85742 0.65396 0.0
C579 C 0.97089 0.81201 0.66349 0.0
N580 N 0.97265 0.82825 0.65338 0.0
C581 C 0.97541 0.8713 0.66485 0.0
C582 C 0.9739 0.85502 0.67519 0.0
C583 C 0.93478 0.83129 0.62316 0.0
C584 C 0.90258 0.71764 0.60064 0.0
C585 C 0.9111 0.77819 0.59748 0.0
C586 C 0.88254 0.75158 0.5939 0.0
C587 C 0.87832 0.72113 0.5955 0.0
N588 N 0.93482 0.77456 0.60248 0.0
C589 C 0.93083 0.74479 0.6041 0.0
Co590 Co 0.18585 0.16146 0.63737 0.0
Co591 Co 0.18533 0.15763 0.60689 0.0
O592 O 0.20581 0.17653 0.62195 0.0
C593 C 0.24413 0.15656 0.63964 0.0
O594 O 0.23649 0.14061 0.62967 0.0
C595 C 0.2014 0.22471 0.60472 0.0
O596 O 0.18914 0.22195 0.61529 0.0
O597 O 0.14517 0.15686 0.61159 0.0
O598 O 0.14465 0.15565 0.63142 0.0
H599 H 0.09653 0.07981 0.5807 0.0
H600 H 0.24653 0.2229 0.63524 0.0
O601 O 0.22677 0.16713 0.6438 0.0
H602 H 0.1699 0.25023 0.65277 0.0
H603 H 0.18298 0.16307 0.68178 0.0
H604 H 0.12328 0.10919 0.6457 0.0
H605 H 0.15365 0.19428 0.64819 0.0
H606 H 0.2072 0.18191 0.66215 0.0
O607 O 0.20206 0.20116 0.60002 0.0
H608 H 0.12243 0.10357 0.59969 0.0
H609 H 0.2056 0.17267 0.58175 0.0
H610 H 0.09806 0.08973 0.66515 0.0
H611 H 0.2639 0.27916 0.63977 0.0
H612 H 0.12798 0.11674 0.68337 0.0
H613 H 0.22541 0.29313 0.64856 0.0
O614 O 0.17191 0.11616 0.63319 0.0
H615 H 0.30404 0.20696 0.60214 0.0
H616 H 0.19966 0.10949 0.5965 0.0
H617 H 0.2489 0.10919 0.59107 0.0
H618 H 0.30156 0.15821 0.59386 0.0
H619 H 0.2542 0.20613 0.60754 0.0
H620 H 0.1805 0.14981 0.56256 0.0
H621 H 0.12562 0.10296 0.56196 0.0
O622 O 0.16818 0.114 0.6134 0.0
C623 C 0.1318 0.15481 0.62152 0.0
C624 C 0.12049 0.10016 0.58085 0.0
C625 C 0.1676 0.13948 0.57067 0.0
N626 N 0.16556 0.13933 0.59183 0.0
C627 C 0.13531 0.11367 0.59158 0.0
C628 C 0.18166 0.15236 0.58156 0.0
C629 C 0.13681 0.11319 0.57034 0.0
C630 C 0.22972 0.22877 0.63915 0.0
N631 N 0.1991 0.20533 0.64145 0.0
C632 C 0.23966 0.26068 0.64166 0.0
C633 C 0.21804 0.2685 0.64658 0.0
C634 C 0.18688 0.24445 0.64893 0.0
C635 C 0.17778 0.21282 0.64628 0.0
C636 C 0.16969 0.15114 0.67391 0.0
C637 C 0.13637 0.12118 0.65359 0.0
C638 C 0.18329 0.16166 0.66277 0.0
N639 N 0.16657 0.14681 0.65279 0.0
C640 C 0.122 0.11001 0.66458 0.0
C641 C 0.13882 0.12515 0.67479 0.0
C642 C 0.16474 0.10083 0.62344 0.0
C643 C 0.28123 0.18549 0.60085 0.0
C644 C 0.22249 0.13089 0.59777 0.0
C645 C 0.25029 0.1306 0.59465 0.0
C646 C 0.27983 0.15811 0.59622 0.0
N647 N 0.22406 0.15787 0.60227 0.0
C648 C 0.25293 0.18491 0.60385 0.0
Co649 Co 0.83613 0.02054 0.6411 0.0
Co650 Co 0.83689 0.02579 0.61063 0.0
O651 O 0.81955 0.02645 0.62616 0.0
C652 C 0.84237 0.08394 0.64432 0.0
O653 O 0.85678 0.09202 0.63404 0.0
C654 C 0.76942 0.97494 0.6089 0.0
O655 O 0.77251 0.96483 0.6193 0.0
O656 O 0.83806 0.98608 0.61454 0.0
O657 O 0.84083 0.98534 0.63431 0.0
H658 H 0.91224 0.01654 0.58253 0.0
H659 H 0.77503 0.02091 0.64075 0.0
O660 O 0.83184 0.05587 0.64834 0.0
H661 H 0.74821 0.9151 0.65626 0.0
H662 H 0.83885 0.01331 0.68537 0.0
H663 H 0.88885 0.00922 0.64798 0.0
H664 H 0.80376 0.95455 0.65103 0.0
H665 H 0.81828 0.02011 0.66632 0.0
O666 O 0.79282 -0.00066 0.60424 0.0
H667 H 0.89033 0.01766 0.60207 0.0
H668 H 0.81933 0.03224 0.58596 0.0
H669 H 0.91003 0.00206 0.66682 0.0
H670 H 0.71919 0.98226 0.64595 0.0
H671 H 0.88497 0.00408 0.68569 0.0
H672 H 0.70549 0.92888 0.65374 0.0
O673 O 0.88107 0.05154 0.63645 0.0
H674 H 0.78685 0.0951 0.60878 0.0
H675 H 0.88318 0.08852 0.59987 0.0
H676 H 0.88266 0.13819 0.59546 0.0
H677 H 0.83419 0.14168 0.5999 0.0
H678 H 0.78856 0.046 0.61314 0.0
H679 H 0.84028 0.03099 0.56624 0.0
H680 H 0.88715 0.02322 0.56444 0.0
O681 O 0.88121 0.05223 0.6166 0.0
C682 C 0.84078 0.97396 0.62418 0.0
C683 C 0.89186 0.02003 0.5832 0.0
C684 C 0.85144 0.02809 0.57406 0.0
N685 N 0.85372 0.02522 0.59515 0.0
C686 C 0.87941 0.02077 0.59424 0.0
C687 C 0.83963 0.02869 0.58524 0.0
C688 C 0.87775 0.02375 0.57305 0.0
C689 C 0.76928 0.99784 0.64424 0.0
N690 N 0.79264 0.99006 0.64565 0.0
C691 C 0.73761 0.97601 0.64712 0.0
C692 C 0.72993 0.94605 0.65148 0.0
C693 C 0.75389 0.93829 0.65289 0.0
C694 C 0.78529 0.96071 0.64989 0.0
C695 C 0.84993 0.01232 0.6772 0.0
C696 C 0.8777 0.00995 0.65615 0.0
C697 C 0.83842 0.01621 0.66639 0.0
N698 N 0.85219 0.01481 0.65604 0.0
C699 C 0.88985 0.00596 0.66679 0.0
C700 C 0.8758 0.00713 0.67738 0.0
C701 C 0.89536 0.06078 0.62653 0.0
C702 C 0.8081 0.09387 0.60679 0.0
C703 C 0.86211 0.08993 0.6019 0.0
C704 C 0.86189 0.11808 0.59934 0.0
C705 C 0.83468 0.12001 0.60183 0.0
N706 N 0.83595 0.0644 0.60677 0.0
C707 C 0.80918 0.0661 0.60921 0.0
Co708 Co 0.84765 0.35868 0.47112 0.0
Co709 Co 0.85273 0.36205 0.44067 0.0
O710 O 0.87053 0.36382 0.45633 0.0
C711 C 0.90533 0.42184 0.47438 0.0
O712 O 0.89932 0.43033 0.46412 0.0
C713 C 0.87038 0.31188 0.43963 0.0
O714 O 0.8566 0.30199 0.44995 0.0
O715 O 0.8123 0.32197 0.44465 0.0
O716 O 0.80777 0.32346 0.46433 0.0
H717 H 0.76812 0.34958 0.41193 0.0
H718 H 0.90866 0.3581 0.47129 0.0
O719 O 0.88727 0.39385 0.47837 0.0
H720 H 0.8283 0.25338 0.48719 0.0
H721 H 0.83626 0.3532 0.51535 0.0
H722 H 0.78375 0.34854 0.47751 0.0
H723 H 0.81306 0.29313 0.48142 0.0
H724 H 0.86413 0.35892 0.4965 0.0
O725 O 0.8714 0.33605 0.43473 0.0
H726 H 0.79085 0.35209 0.43166 0.0
H727 H 0.87753 0.36789 0.41615 0.0
H728 H 0.75492 0.34247 0.49615 0.0
H729 H 0.92499 0.31913 0.47704 0.0
H730 H 0.7812 0.34478 0.51525 0.0
H731 H 0.88464 0.2663 0.48502 0.0
O732 O 0.83444 0.38992 0.46602 0.0
H733 H 0.97182 0.43339 0.43908 0.0
H734 H 0.86803 0.42397 0.42945 0.0
H735 H 0.91769 0.47408 0.42496 0.0
H736 H 0.97008 0.479 0.42977 0.0
H737 H 0.92152 0.38381 0.44351 0.0
H738 H 0.85564 0.36526 0.39625 0.0
H739 H 0.8006 0.35618 0.39406 0.0
O740 O 0.83375 0.38801 0.44619 0.0
C741 C 0.79705 0.31082 0.45429 0.0
C742 C 0.79216 0.35364 0.41277 0.0
C743 C 0.84127 0.36239 0.40398 0.0
N744 N 0.83555 0.36035 0.42505 0.0
C745 C 0.80519 0.35517 0.42392 0.0
C746 C 0.8535 0.36377 0.41526 0.0
C747 C 0.81039 0.35731 0.40275 0.0
C748 C 0.89103 0.33527 0.47486 0.0
N749 N 0.85999 0.32797 0.47608 0.0
C750 C 0.90039 0.31326 0.47806 0.0
C751 C 0.87773 0.2836 0.48252 0.0
C752 C 0.84611 0.27633 0.48373 0.0
C753 C 0.83761 0.29891 0.48043 0.0
C754 C 0.82453 0.35208 0.50709 0.0
C755 C 0.79528 0.34939 0.48578 0.0
C756 C 0.84021 0.35537 0.49639 0.0
N757 N 0.82548 0.3538 0.48591 0.0
C758 C 0.77887 0.34602 0.49631 0.0
C759 C 0.79364 0.34735 0.50702 0.0
C760 C 0.82868 0.39781 0.45595 0.0
C761 C 0.94914 0.43153 0.43693 0.0
C762 C 0.8907 0.426 0.43163 0.0
C763 C 0.91876 0.45439 0.42903 0.0
C764 C 0.94815 0.45712 0.43172 0.0
N765 N 0.89187 0.401 0.43673 0.0
C766 C 0.92059 0.40349 0.43939 0.0
Co767 Co 0.63573 0.491 0.46778 0.0
Co768 Co 0.63013 0.48848 0.43725 0.0
O769 O 0.62778 0.50537 0.45269 0.0
C770 C 0.57583 0.46844 0.48084 0.0
O771 O 0.57693 0.44217 0.48261 0.0
C772 C 0.6794 0.55654 0.43579 0.0
O773 O 0.68864 0.55365 0.44639 0.0
O774 O 0.67033 0.48859 0.44148 0.0
O775 O 0.6736 0.49062 0.46126 0.0
H776 H 0.64359 0.41485 0.40957 0.0
H777 H 0.62768 0.54782 0.46707 0.0
O778 O 0.59732 0.49093 0.47462 0.0
H779 H 0.73622 0.5868 0.48262 0.0
H780 H 0.64741 0.49287 0.51206 0.0
H781 H 0.6521 0.44201 0.47497 0.0
H782 H 0.70149 0.52991 0.47773 0.0
H783 H 0.63692 0.51036 0.49296 0.0
O784 O 0.65587 0.53277 0.43088 0.0
H785 H 0.64077 0.43631 0.42899 0.0
H786 H 0.62412 0.50547 0.41245 0.0
H787 H 0.66278 0.42381 0.49387 0.0
H788 H 0.6615 0.60486 0.47198 0.0
H789 H 0.66045 0.44929 0.51259 0.0
H790 H 0.71624 0.62471 0.47977 0.0
O791 O 0.60831 0.44522 0.46306 0.0
H792 H 0.55823 0.53532 0.43374 0.0
H793 H 0.56818 0.44005 0.42663 0.0
H794 H 0.51805 0.43883 0.42142 0.0
H795 H 0.51289 0.48675 0.42494 0.0
H796 H 0.60785 0.53541 0.4389 0.0
H797 H 0.62703 0.48494 0.39284 0.0
H798 H 0.6367 0.43921 0.39131 0.0
O799 O 0.6048 0.44421 0.44325 0.0
C800 C 0.68414 0.48909 0.45114 0.0
C801 C 0.63928 0.43473 0.41012 0.0
C802 C 0.63003 0.47409 0.40073 0.0
N803 N 0.63209 0.47197 0.42186 0.0
C804 C 0.63758 0.44693 0.42109 0.0
C805 C 0.62849 0.48567 0.41186 0.0
C806 C 0.63544 0.44843 0.39988 0.0
C807 C 0.65135 0.55621 0.47058 0.0
N808 N 0.66252 0.5355 0.47217 0.0
C809 C 0.67045 0.58856 0.47329 0.0
C810 C 0.70118 0.59969 0.47764 0.0
C811 C 0.71241 0.57844 0.47923 0.0
C812 C 0.69267 0.54626 0.47641 0.0
C813 C 0.64853 0.48161 0.50396 0.0
C814 C 0.6511 0.45326 0.48308 0.0
C815 C 0.64266 0.49143 0.49312 0.0
N816 N 0.64398 0.47727 0.48285 0.0
C817 C 0.65715 0.44284 0.49375 0.0
C818 C 0.65584 0.45715 0.50425 0.0
C819 C 0.59832 0.43039 0.45326 0.0
C820 C 0.56022 0.51432 0.43213 0.0
C821 C 0.56606 0.46095 0.42823 0.0
C822 C 0.53765 0.46014 0.42524 0.0
C823 C 0.53478 0.48705 0.42721 0.0
N824 N 0.59096 0.48784 0.433 0.0
C825 C 0.58828 0.51427 0.43501 0.0
Co826 Co 0.50781 0.14106 0.46965 0.0
Co827 Co 0.5035 0.13753 0.43934 0.0
O828 O 0.48741 0.1191 0.45496 0.0
C829 C 0.50366 0.07841 0.47299 0.0
O830 O 0.51501 0.08088 0.46227 0.0
C831 C 0.43608 0.12128 0.43835 0.0
O832 O 0.4403 0.13531 0.44864 0.0
O833 O 0.50429 0.17783 0.44378 0.0
O834 O 0.51795 0.18301 0.4629 0.0
H835 H 0.57505 0.22349 0.41091 0.0
H836 H 0.44225 0.08542 0.47034 0.0
O837 O 0.49835 0.09984 0.47703 0.0
H838 H 0.43309 0.1753 0.48638 0.0
H839 H 0.51736 0.1538 0.51382 0.0
H840 H 0.56773 0.20056 0.47559 0.0
H841 H 0.48538 0.18304 0.48019 0.0
H842 H 0.49148 0.12715 0.49517 0.0
O843 O 0.45884 0.11947 0.43349 0.0
H844 H 0.55505 0.19997 0.43055 0.0
H845 H 0.48449 0.11367 0.41473 0.0
H846 H 0.59431 0.22814 0.49402 0.0
H847 H 0.3895 0.07655 0.47652 0.0
H848 H 0.5691 0.20475 0.51332 0.0
H849 H 0.38469 0.12173 0.48458 0.0
O850 O 0.54987 0.14791 0.46414 0.0
H851 H 0.4547 0.01848 0.43645 0.0
H852 H 0.55026 0.1225 0.42807 0.0
H853 H 0.55022 0.07289 0.423 0.0
H854 H 0.50216 0.0204 0.42717 0.0
H855 H 0.45587 0.0687 0.44148 0.0
H856 H 0.50354 0.13635 0.39491 0.0
H857 H 0.54923 0.1916 0.39291 0.0
O858 O 0.5486 0.15618 0.44471 0.0
C859 C 0.51355 0.19397 0.45331 0.0
C860 C 0.55519 0.19935 0.41166 0.0
C861 C 0.51503 0.15046 0.40269 0.0
N862 N 0.51884 0.15538 0.42379 0.0
C863 C 0.54382 0.18587 0.42276 0.0
C864 C 0.50431 0.13776 0.41393 0.0
C865 C 0.54068 0.18145 0.40157 0.0
C866 C 0.44037 0.1051 0.47394 0.0
N867 N 0.46687 0.13465 0.47495 0.0
C868 C 0.41043 0.09998 0.47738 0.0
C869 C 0.40774 0.12535 0.48189 0.0
C870 C 0.43489 0.15542 0.48289 0.0
C871 C 0.46442 0.15967 0.47934 0.0
C872 C 0.52855 0.16427 0.50547 0.0
C873 C 0.55651 0.19033 0.48395 0.0
C874 C 0.51404 0.14926 0.49488 0.0
N875 N 0.52795 0.16242 0.4843 0.0
C876 C 0.57172 0.20601 0.49436 0.0
C877 C 0.55758 0.19286 0.50518 0.0
C878 C 0.56341 0.1568 0.45409 0.0
C879 C 0.47575 0.04121 0.43456 0.0
C880 C 0.52929 0.09976 0.42995 0.0
C881 C 0.52938 0.07174 0.42703 0.0
C882 C 0.5024 0.0423 0.42937 0.0
N883 N 0.50302 0.09848 0.43502 0.0
C884 C 0.4765 0.06971 0.43735 0.0
Co885 Co 0.68557 0.51773 0.69631 0.0
Co886 Co 0.6922 0.5233 0.72678 0.0
O887 O 0.69217 0.5408 0.71118 0.0
C888 C 0.74845 0.5758 0.6928 0.0
O889 O 0.75608 0.57231 0.7036 0.0
C890 C 0.64105 0.53942 0.72868 0.0
O891 O 0.63081 0.52602 0.71832 0.0
O892 O 0.65254 0.48212 0.72317 0.0
O893 O 0.65014 0.47837 0.70338 0.0
H894 H 0.68456 0.44002 0.75522 0.0
H895 H 0.68658 0.57946 0.69675 0.0
O896 O 0.7209 0.55657 0.68871 0.0
H897 H 0.58064 0.50151 0.68105 0.0
H898 H 0.67662 0.50545 0.65212 0.0
H899 H 0.67321 0.45313 0.68987 0.0
H900 H 0.61975 0.48488 0.68618 0.0
H901 H 0.68433 0.53391 0.67097 0.0
O902 O 0.66578 0.54089 0.73325 0.0
H903 H 0.68456 0.4621 0.7356 0.0
H904 H 0.69992 0.5484 0.75132 0.0
H905 H 0.66507 0.42367 0.67123 0.0
H906 H 0.64833 0.59724 0.69163 0.0
H907 H 0.66676 0.44987 0.65218 0.0
H908 H 0.59487 0.55809 0.68376 0.0
O909 O 0.71668 0.50383 0.70093 0.0
H910 H 0.76097 0.64271 0.72842 0.0
H911 H 0.7559 0.54015 0.73668 0.0
H912 H 0.80567 0.59057 0.74075 0.0
H913 H 0.8084 0.64233 0.73663 0.0
H914 H 0.71175 0.59172 0.72439 0.0
H915 H 0.69983 0.52716 0.77112 0.0
H916 H 0.69224 0.47265 0.77316 0.0
O917 O 0.71833 0.50525 0.72074 0.0
C918 C 0.63956 0.46729 0.71362 0.0
C919 C 0.68797 0.46384 0.75445 0.0
C920 C 0.69651 0.51273 0.76337 0.0
N921 N 0.69244 0.50657 0.74231 0.0
C922 C 0.68807 0.4765 0.74336 0.0
C923 C 0.69646 0.5246 0.75214 0.0
C924 C 0.69226 0.48215 0.76451 0.0
C925 C 0.66345 0.56234 0.69325 0.0
N926 N 0.65538 0.53115 0.69178 0.0
C927 C 0.64186 0.57253 0.6904 0.0
C928 C 0.61185 0.55054 0.686 0.0
C929 C 0.60384 0.51879 0.68449 0.0
C930 C 0.62602 0.50947 0.68745 0.0
C931 C 0.67578 0.49376 0.66036 0.0
C932 C 0.67379 0.46461 0.68162 0.0
C933 C 0.68022 0.50979 0.67106 0.0
N934 N 0.67903 0.49512 0.68151 0.0
C935 C 0.66925 0.44785 0.67109 0.0
C936 C 0.67024 0.46257 0.6604 0.0
C937 C 0.72641 0.4992 0.71081 0.0
C938 C 0.76004 0.62031 0.73028 0.0
C939 C 0.75692 0.56257 0.73484 0.0
C940 C 0.78515 0.59105 0.73719 0.0
C941 C 0.78666 0.62008 0.73488 0.0
N942 N 0.7309 0.56301 0.73036 0.0
C943 C 0.7322 0.59137 0.72807 0.0
Co944 Co 0.48093 0.17293 0.69529 0.0
Co945 Co 0.47457 0.17142 0.72572 0.0
O946 O 0.45758 0.15487 0.70999 0.0
C947 C 0.42148 0.17501 0.69187 0.0
O948 O 0.42475 0.18598 0.70268 0.0
C949 C 0.45847 0.10407 0.72707 0.0
O950 O 0.47244 0.1079 0.71679 0.0
O951 O 0.51572 0.17287 0.72208 0.0
O952 O 0.52077 0.17841 0.70241 0.0
H953 H 0.55721 0.24521 0.75472 0.0
H954 H 0.42068 0.11073 0.69487 0.0
O955 O 0.44154 0.16795 0.68766 0.0
H956 H 0.50317 0.08836 0.67978 0.0
H957 H 0.49472 0.17909 0.65114 0.0
H958 H 0.54456 0.2276 0.68926 0.0
H959 H 0.51709 0.14308 0.68543 0.0
H960 H 0.46609 0.15643 0.66983 0.0
O961 O 0.45675 0.12702 0.7318 0.0
H962 H 0.53552 0.2244 0.73494 0.0
H963 H 0.44895 0.15246 0.75015 0.0
H964 H 0.57415 0.25088 0.67079 0.0
H965 H 0.40566 0.05568 0.68924 0.0
H966 H 0.5492 0.22659 0.65156 0.0
H967 H 0.44709 0.04422 0.68167 0.0
O968 O 0.49284 0.21707 0.70027 0.0
H969 H 0.35512 0.1208 0.72678 0.0
H970 H 0.45728 0.21724 0.73637 0.0
H971 H 0.40672 0.2163 0.74044 0.0
H972 H 0.35515 0.16779 0.73565 0.0
H973 H 0.40628 0.12291 0.72276 0.0
H974 H 0.4698 0.17232 0.7701 0.0
H975 H 0.52425 0.21911 0.77248 0.0
O976 O 0.49277 0.21614 0.7201 0.0
C977 C 0.53136 0.17706 0.71254 0.0
C978 C 0.53341 0.22487 0.7538 0.0
C979 C 0.48437 0.18393 0.76243 0.0
N980 N 0.49093 0.18739 0.74139 0.0
C981 C 0.52097 0.21303 0.74262 0.0
C982 C 0.47272 0.17274 0.75111 0.0
C983 C 0.51492 0.21019 0.76376 0.0
C984 C 0.43877 0.10596 0.69147 0.0
N985 N 0.46967 0.1301 0.69042 0.0
C986 C 0.43015 0.07473 0.68835 0.0
C987 C 0.45342 0.06831 0.68411 0.0
C988 C 0.4849 0.09306 0.68306 0.0
C989 C 0.49265 0.12399 0.68629 0.0
C990 C 0.50586 0.18986 0.65947 0.0
C991 C 0.53362 0.21679 0.68093 0.0
C992 C 0.48974 0.17717 0.67008 0.0
N993 N 0.50373 0.19055 0.68063 0.0
C994 C 0.55046 0.23012 0.6705 0.0
C995 C 0.53644 0.2165 0.65971 0.0
C996 C 0.4979 0.23081 0.7103 0.0
C997 C 0.37743 0.14206 0.72893 0.0
C998 C 0.43496 0.19612 0.73421 0.0
C999 C 0.4064 0.19568 0.73657 0.0
C1000 C 0.37747 0.16844 0.73389 0.0
N1001 N 0.43474 0.17015 0.72934 0.0
C1002 C 0.40647 0.14335 0.72671 0.0
Co1003 Co 0.82302 0.30416 0.69808 0.0
Co1004 Co 0.8259 0.30782 0.72841 0.0
O1005 O 0.8426 0.30384 0.71314 0.0
C1006 C 0.8267 0.24506 0.69626 0.0
O1007 O 0.81524 0.23768 0.70702 0.0
C1008 C 0.89348 0.3586 0.72947 0.0
O1009 O 0.88995 0.3677 0.71893 0.0
O1010 O 0.82568 0.34702 0.72309 0.0
O1011 O 0.81312 0.33702 0.70392 0.0
H1012 H 0.7535 0.3256 0.75524 0.0
H1013 H 0.88827 0.3132 0.69834 0.0
O1014 O 0.83225 0.27128 0.69162 0.0
H1015 H 0.89948 0.41097 0.68019 0.0
H1016 H 0.8155 0.30282 0.65374 0.0
H1017 H 0.76387 0.30405 0.69111 0.0
H1018 H 0.84666 0.36752 0.68647 0.0
H1019 H 0.84033 0.30359 0.67284 0.0
O1020 O 0.87029 0.33465 0.73444 0.0
H1021 H 0.77428 0.31999 0.73605 0.0
H1022 H 0.84365 0.30519 0.75342 0.0
H1023 H 0.73834 0.30354 0.67221 0.0
H1024 H 0.94153 0.35599 0.6921 0.0
H1025 H 0.76419 0.30292 0.65334 0.0
H1026 H 0.94738 0.40534 0.68298 0.0
O1027 O 0.78054 0.26981 0.70363 0.0
H1028 H 0.87375 0.23726 0.73366 0.0
H1029 H 0.77832 0.24731 0.74022 0.0
H1030 H 0.77771 0.19808 0.74636 0.0
H1031 H 0.8257 0.19285 0.7431 0.0
H1032 H 0.87323 0.28597 0.72755 0.0
H1033 H 0.8238 0.31091 0.7728 0.0
H1034 H 0.7783 0.32105 0.77379 0.0
O1035 O 0.78104 0.28107 0.72287 0.0
C1036 C 0.81719 0.35327 0.71326 0.0
C1037 C 0.77326 0.32108 0.75493 0.0
C1038 C 0.81274 0.31287 0.76478 0.0
N1039 N 0.80995 0.31198 0.74362 0.0
C1040 C 0.78507 0.31779 0.74409 0.0
C1041 C 0.82392 0.30971 0.75378 0.0
C1042 C 0.78721 0.31855 0.76533 0.0
C1043 C 0.8906 0.33449 0.69428 0.0
N1044 N 0.86439 0.33779 0.69272 0.0
C1045 C 0.92083 0.35868 0.6908 0.0
C1046 C 0.9241 0.38639 0.6857 0.0
C1047 C 0.89724 0.38957 0.68414 0.0
C1048 C 0.8674 0.36491 0.68774 0.0
C1049 C 0.80404 0.30316 0.6619 0.0
C1050 C 0.77536 0.30398 0.68293 0.0
C1051 C 0.81796 0.30354 0.67274 0.0
N1052 N 0.8037 0.30413 0.68308 0.0
C1053 C 0.76075 0.30361 0.67226 0.0
C1054 C 0.77525 0.30323 0.66168 0.0
C1055 C 0.76663 0.26602 0.71355 0.0
C1056 C 0.85272 0.23929 0.73515 0.0
C1057 C 0.79926 0.24518 0.73874 0.0
C1058 C 0.7988 0.21727 0.74226 0.0
C1059 C 0.82574 0.21436 0.74044 0.0
N1060 N 0.82585 0.26955 0.73358 0.0
C1061 C 0.85234 0.26686 0.73176 0.0
Co1062 Co 0.47595 0.30893 0.19813 0.0
Co1063 Co 0.47803 0.30807 0.22861 0.0
O1064 O 0.4567 0.30526 0.21363 0.0
C1065 C 0.41729 0.24582 0.19625 0.0
O1066 O 0.42529 0.23769 0.20619 0.0
C1067 C 0.46088 0.35846 0.23062 0.0
O1068 O 0.47261 0.36772 0.21997 0.0
O1069 O 0.51758 0.34751 0.22351 0.0
O1070 O 0.5177 0.34424 0.20374 0.0
H1071 H 0.56878 0.32247 0.25443 0.0
H1072 H 0.41583 0.3108 0.20026 0.0
O1073 O 0.43451 0.27369 0.19202 0.0
H1074 H 0.49302 0.41343 0.18203 0.0
H1075 H 0.47708 0.31081 0.1537 0.0
H1076 H 0.5378 0.31764 0.18961 0.0
H1077 H 0.50867 0.37343 0.1869 0.0
H1078 H 0.4538 0.307 0.17341 0.0
O1079 O 0.46092 0.33466 0.23538 0.0
H1080 H 0.54177 0.31869 0.23555 0.0
H1081 H 0.45877 0.30381 0.25384 0.0
H1082 H 0.56209 0.32184 0.17007 0.0
H1083 H 0.39907 0.35 0.19544 0.0
H1084 H 0.53166 0.31842 0.15194 0.0
H1085 H 0.43784 0.40179 0.1863 0.0
O1086 O 0.48943 0.27738 0.20253 0.0
H1087 H 0.35976 0.23745 0.23418 0.0
H1088 H 0.46524 0.24655 0.23945 0.0
H1089 H 0.41673 0.19692 0.24535 0.0
H1090 H 0.36352 0.19217 0.24275 0.0
H1091 H 0.40887 0.28657 0.22831 0.0
H1092 H 0.48496 0.30768 0.27293 0.0
H1093 H 0.54033 0.31694 0.27331 0.0
O1094 O 0.49557 0.28175 0.22223 0.0
C1095 C 0.53082 0.35748 0.21347 0.0
C1096 C 0.54462 0.31832 0.25439 0.0
C1097 C 0.49759 0.31007 0.26477 0.0
N1098 N 0.49865 0.31078 0.24359 0.0
C1099 C 0.52917 0.31607 0.24372 0.0
C1100 C 0.48291 0.30796 0.25393 0.0
C1101 C 0.52865 0.31525 0.26497 0.0
C1102 C 0.43275 0.33317 0.19619 0.0
N1103 N 0.46318 0.3398 0.19385 0.0
C1104 C 0.42316 0.35532 0.19352 0.0
C1105 C 0.44494 0.3844 0.1884 0.0
C1106 C 0.47591 0.39095 0.18602 0.0
C1107 C 0.48467 0.36825 0.18883 0.0
C1108 C 0.4906 0.3124 0.16153 0.0
C1109 C 0.52448 0.31633 0.18176 0.0
C1110 C 0.47752 0.31019 0.17272 0.0
N1111 N 0.49452 0.31234 0.18265 0.0
C1112 C 0.53833 0.31863 0.17072 0.0
C1113 C 0.52123 0.31668 0.16055 0.0
C1114 C 0.49786 0.27066 0.21231 0.0
C1115 C 0.38281 0.23927 0.23539 0.0
C1116 C 0.44216 0.24464 0.23826 0.0
C1117 C 0.41479 0.2165 0.24164 0.0
C1118 C 0.38494 0.21386 0.24019 0.0
N1119 N 0.43988 0.2695 0.2336 0.0
C1120 C 0.41071 0.26706 0.23212 0.0
Co1121 Co 0.68807 0.17034 0.19525 0.0
Co1122 Co 0.69002 0.17058 0.22575 0.0
O1123 O 0.69166 0.15303 0.21039 0.0
C1124 C 0.75019 0.17309 0.19291 0.0
O1125 O 0.75824 0.18782 0.20313 0.0
C1126 C 0.63818 0.10349 0.2273 0.0
O1127 O 0.62872 0.10692 0.21682 0.0
O1128 O 0.65098 0.17224 0.22119 0.0
O1129 O 0.65361 0.17727 0.20145 0.0
H1130 H 0.67948 0.24661 0.25309 0.0
H1131 H 0.68478 0.10749 0.19606 0.0
O1132 O 0.72263 0.1638 0.1886 0.0
H1133 H 0.58201 0.08612 0.17912 0.0
H1134 H 0.6849 0.17339 0.15088 0.0
H1135 H 0.68113 0.22537 0.1878 0.0
H1136 H 0.62307 0.14092 0.18455 0.0
H1137 H 0.68855 0.15183 0.17018 0.0
O1138 O 0.66264 0.12657 0.23208 0.0
H1139 H 0.68188 0.22446 0.23375 0.0
H1140 H 0.69417 0.15292 0.25065 0.0
H1141 H 0.67716 0.24759 0.1687 0.0
H1142 H 0.64447 0.05235 0.19068 0.0
H1143 H 0.67904 0.22154 0.15006 0.0
H1144 H 0.59261 0.04139 0.18217 0.0
O1145 O 0.72033 0.2147 0.20007 0.0
H1146 H 0.75791 0.11924 0.22918 0.0
H1147 H 0.75214 0.21652 0.23701 0.0
H1148 H 0.80105 0.21533 0.24221 0.0
H1149 H 0.80412 0.16639 0.23831 0.0
H1150 H 0.70957 0.12161 0.22402 0.0
H1151 H 0.69161 0.17412 0.27017 0.0
H1152 H 0.68435 0.22138 0.27147 0.0
O1153 O 0.71736 0.21488 0.21986 0.0
C1154 C 0.6408 0.17654 0.21135 0.0
C1155 C 0.68274 0.22606 0.25264 0.0
C1156 C 0.6895 0.18535 0.26222 0.0
N1157 N 0.68838 0.18757 0.24107 0.0
C1158 C 0.68421 0.21347 0.24171 0.0
C1159 C 0.69085 0.1734 0.25115 0.0
C1160 C 0.68545 0.21187 0.26294 0.0
C1161 C 0.66239 0.10294 0.19226 0.0
N1162 N 0.65636 0.1274 0.19057 0.0
C1163 C 0.63961 0.07166 0.18927 0.0
C1164 C 0.6105 0.06552 0.18452 0.0
C1165 C 0.60452 0.0906 0.18281 0.0
C1166 C 0.62784 0.12157 0.18592 0.0
C1167 C 0.68397 0.1849 0.15894 0.0
C1168 C 0.68175 0.21378 0.17973 0.0
C1169 C 0.68607 0.17283 0.16989 0.0
N1170 N 0.68474 0.18716 0.18011 0.0
C1171 C 0.67959 0.22652 0.16894 0.0
C1172 C 0.68067 0.21192 0.15849 0.0
C1173 C 0.72804 0.22898 0.21002 0.0
C1174 C 0.75685 0.14069 0.23094 0.0
C1175 C 0.75337 0.19523 0.23522 0.0
C1176 C 0.78108 0.19464 0.23823 0.0
C1177 C 0.78278 0.16717 0.23605 0.0
N1178 N 0.72802 0.16916 0.23023 0.0
C1179 C 0.72951 0.14214 0.22807 0.0
Co1180 Co 0.82848 0.51576 0.19486 0.0
Co1181 Co 0.82515 0.52157 0.22524 0.0
O1182 O 0.84366 0.53885 0.20977 0.0
C1183 C 0.82043 0.57176 0.19114 0.0
O1184 O 0.80623 0.56578 0.20145 0.0
C1185 C 0.89203 0.53647 0.2275 0.0
O1186 O 0.88914 0.52348 0.21708 0.0
O1187 O 0.82247 0.47975 0.22174 0.0
O1188 O 0.82538 0.4769 0.20201 0.0
H1189 H 0.7461 0.4394 0.25319 0.0
H1190 H 0.88808 0.57854 0.19553 0.0
O1191 O 0.83136 0.5544 0.18728 0.0
H1192 H 0.91997 0.5028 0.18056 0.0
H1193 H 0.82792 0.50462 0.15067 0.0
H1194 H 0.77832 0.45042 0.18808 0.0
H1195 H 0.86364 0.48456 0.18529 0.0
H1196 H 0.84679 0.53293 0.16965 0.0
O1197 O 0.86872 0.53795 0.23202 0.0
H1198 H 0.76959 0.46138 0.23371 0.0
H1199 H 0.84208 0.54593 0.24989 0.0
H1200 H 0.7589 0.42114 0.16931 0.0
H1201 H 0.94465 0.59788 0.19082 0.0
H1202 H 0.78376 0.44827 0.15043 0.0
H1203 H 0.96092 0.55985 0.18331 0.0
O1204 O 0.78283 0.50019 0.19912 0.0
H1205 H 0.87875 0.64125 0.22665 0.0
H1206 H 0.77971 0.54035 0.23513 0.0
H1207 H 0.78191 0.59157 0.23906 0.0
H1208 H 0.83174 0.64251 0.23483 0.0
H1209 H 0.87538 0.58946 0.22275 0.0
H1210 H 0.81954 0.52475 0.26955 0.0
H1211 H 0.77112 0.47117 0.27128 0.0
O1212 O 0.78147 0.50492 0.21884 0.0
C1213 C 0.82271 0.46537 0.21232 0.0
C1214 C 0.76715 0.46281 0.25255 0.0
C1215 C 0.8084 0.51069 0.26173 0.0
N1216 N 0.80708 0.50496 0.24066 0.0
C1217 C 0.78052 0.47541 0.24154 0.0
C1218 C 0.82112 0.52252 0.25058 0.0
C1219 C 0.78123 0.48063 0.26269 0.0
C1220 C 0.89495 0.56191 0.19218 0.0
N1221 N 0.87258 0.53047 0.19067 0.0
C1222 C 0.92702 0.57297 0.18956 0.0
C1223 C 0.93614 0.55161 0.18537 0.0
C1224 C 0.91318 0.51959 0.18383 0.0
C1225 C 0.88133 0.50938 0.18655 0.0
C1226 C 0.81693 0.49253 0.15884 0.0
C1227 C 0.78938 0.46234 0.17991 0.0
C1228 C 0.82746 0.50846 0.16961 0.0
N1229 N 0.81379 0.49328 0.17997 0.0
C1230 C 0.77822 0.44566 0.1693 0.0
C1231 C 0.79216 0.4609 0.15871 0.0
C1232 C 0.76793 0.4972 0.20879 0.0
C1233 C 0.85692 0.61922 0.22855 0.0
C1234 C 0.8014 0.5624 0.23321 0.0
C1235 C 0.80255 0.59134 0.23549 0.0
C1236 C 0.83052 0.61991 0.23312 0.0
N1237 N 0.82739 0.56192 0.22873 0.0
C1238 C 0.8549 0.58983 0.22639 0.0
Co1239 Co 0.63786 0.14641 0.97246 0.0
Co1240 Co 0.6371 0.14212 0.94208 0.0
O1241 O 0.63449 0.12378 0.95774 0.0
C1242 C 0.57715 0.08583 0.97564 0.0
O1243 O 0.56923 0.08906 0.96486 0.0
C1244 C 0.68655 0.12347 0.9411 0.0
O1245 O 0.69673 0.13738 0.95139 0.0
O1246 O 0.67741 0.18186 0.94631 0.0
O1247 O 0.67161 0.18733 0.96566 0.0
H1248 H 0.65346 0.22833 0.91344 0.0
H1249 H 0.64288 0.08785 0.97302 0.0
O1250 O 0.60417 0.10615 0.97984 0.0
H1251 H 0.74506 0.17305 0.989 0.0
H1252 H 0.64227 0.15923 0.01664 0.0
H1253 H 0.64289 0.20844 0.97845 0.0
H1254 H 0.70298 0.18471 0.98292 0.0
H1255 H 0.63896 0.13155 0.99796 0.0
O1256 O 0.66248 0.1227 0.93623 0.0
H1257 H 0.64963 0.20498 0.93314 0.0
H1258 H 0.63097 0.11745 0.91754 0.0
H1259 H 0.64651 0.23707 0.99692 0.0
H1260 H 0.68423 0.07506 0.97909 0.0
H1261 H 0.64621 0.21245 0.01619 0.0
H1262 H 0.73579 0.11787 0.98711 0.0
O1263 O 0.60454 0.15631 0.96708 0.0
H1264 H 0.56396 0.02341 0.93963 0.0
H1265 H 0.57561 0.12868 0.93099 0.0
H1266 H 0.52508 0.07982 0.92616 0.0
H1267 H 0.51904 0.0267 0.93047 0.0
H1268 H 0.614 0.0729 0.94441 0.0
H1269 H 0.63486 0.13993 0.89766 0.0
H1270 H 0.64604 0.19572 0.89553 0.0
O1271 O 0.61184 0.16203 0.94746 0.0
C1272 C 0.68615 0.19783 0.95589 0.0
C1273 C 0.64846 0.20396 0.91425 0.0
C1274 C 0.63806 0.15436 0.9054 0.0
N1275 N 0.63979 0.1598 0.92649 0.0
C1276 C 0.64617 0.19058 0.92538 0.0
C1277 C 0.63595 0.14178 0.91667 0.0
C1278 C 0.64433 0.18566 0.90421 0.0
C1279 C 0.66515 0.10652 0.97661 0.0
N1280 N 0.67045 0.13694 0.97767 0.0
C1281 C 0.68852 0.09917 0.97999 0.0
C1282 C 0.71746 0.12322 0.98447 0.0
C1283 C 0.72268 0.15418 0.98553 0.0
C1284 C 0.69879 0.16066 0.98205 0.0
C1285 C 0.64248 0.17024 0.0083 0.0
C1286 C 0.64292 0.19765 0.9868 0.0
C1287 C 0.64055 0.15465 0.99769 0.0
N1288 N 0.64096 0.16848 0.98713 0.0
C1289 C 0.6449 0.21394 0.99723 0.0
C1290 C 0.6447 0.2001 0.00804 0.0
C1291 C 0.59912 0.16434 0.95699 0.0
C1292 C 0.56634 0.04641 0.93768 0.0
C1293 C 0.57314 0.10566 0.93293 0.0
C1294 C 0.54449 0.07807 0.93015 0.0
C1295 C 0.54113 0.04828 0.93256 0.0
N1296 N 0.59778 0.10363 0.93793 0.0
C1297 C 0.59466 0.07451 0.94033 0.0
Co1298 Co 0.84954 0.49168 0.97023 0.0
Co1299 Co 0.85129 0.49262 0.93981 0.0
O1300 O 0.87083 0.50985 0.9552 0.0
C1301 C 0.91079 0.49263 0.97309 0.0
O1302 O 0.90707 0.4807 0.96241 0.0
C1303 C 0.86879 0.56027 0.9381 0.0
O1304 O 0.85559 0.55724 0.9485 0.0
O1305 O 0.8116 0.49299 0.94433 0.0
O1306 O 0.80787 0.48334 0.96379 0.0
H1307 H 0.76313 0.4195 0.91241 0.0
H1308 H 0.90752 0.55568 0.96986 0.0
O1309 O 0.89056 0.49944 0.97729 0.0
H1310 H 0.82264 0.57255 0.98627 0.0
H1311 H 0.84022 0.48696 0.01454 0.0
H1312 H 0.78853 0.43462 0.97712 0.0
H1313 H 0.8113 0.51855 0.98073 0.0
H1314 H 0.8662 0.50999 0.99548 0.0
O1315 O 0.86966 0.5368 0.93344 0.0
H1316 H 0.78801 0.44096 0.93176 0.0
H1317 H 0.87376 0.50919 0.91494 0.0
H1318 H 0.76159 0.41092 0.99597 0.0
H1319 H 0.91997 0.61008 0.97537 0.0
H1320 H 0.78747 0.43713 0.01486 0.0
H1321 H 0.87731 0.61877 0.98362 0.0
O1322 O 0.83987 0.44822 0.96527 0.0
H1323 H 0.96993 0.53931 0.9361 0.0
H1324 H 0.86463 0.44417 0.92901 0.0
H1325 H 0.91346 0.44279 0.92383 0.0
H1326 H 0.96659 0.49063 0.92735 0.0
H1327 H 0.92048 0.53955 0.94125 0.0
H1328 H 0.84973 0.48864 0.89541 0.0
H1329 H 0.79407 0.44338 0.89406 0.0
O1330 O 0.8324 0.44802 0.94571 0.0
C1331 C 0.79644 0.4864 0.95408 0.0
C1332 C 0.78744 0.43915 0.91288 0.0
C1333 C 0.83603 0.47798 0.90334 0.0
N1334 N 0.83239 0.4761 0.92448 0.0
C1335 C 0.80168 0.45135 0.92381 0.0
C1336 C 0.84949 0.48956 0.91442 0.0
C1337 C 0.8048 0.45258 0.90259 0.0
C1338 C 0.88892 0.55926 0.97354 0.0
N1339 N 0.85878 0.53397 0.97502 0.0
C1340 C 0.89607 0.59012 0.97661 0.0
C1341 C 0.87212 0.59498 0.98121 0.0
C1342 C 0.84143 0.56906 0.9827 0.0
C1343 C 0.83514 0.53855 0.97952 0.0
C1344 C 0.82867 0.47535 0.00637 0.0
C1345 C 0.79986 0.44627 0.9853 0.0
C1346 C 0.84329 0.48825 0.99555 0.0
N1347 N 0.82878 0.47379 0.98519 0.0
C1348 C 0.78452 0.43269 0.99594 0.0
C1349 C 0.79907 0.4474 0.00654 0.0
C1350 C 0.83114 0.4339 0.95536 0.0
C1351 C 0.94692 0.51834 0.93449 0.0
C1352 C 0.88766 0.46505 0.93061 0.0
C1353 C 0.91523 0.46415 0.92763 0.0
C1354 C 0.94503 0.49101 0.9296 0.0
N1355 N 0.88971 0.49198 0.93538 0.0
C1356 C 0.91884 0.51839 0.93735 0.0
Co1357 Co 0.50345 0.35777 0.97128 0.0
Co1358 Co 0.50074 0.35761 0.94087 0.0
O1359 O 0.48444 0.36047 0.95639 0.0
C1360 C 0.50288 0.4183 0.9741 0.0
O1361 O 0.51423 0.42613 0.96334 0.0
C1362 C 0.43287 0.30761 0.93962 0.0
O1363 O 0.43624 0.29762 0.95001 0.0
O1364 O 0.50049 0.31761 0.9454 0.0
O1365 O 0.51128 0.32415 0.96478 0.0
H1366 H 0.57208 0.34136 0.91293 0.0
H1367 H 0.43955 0.35202 0.9714 0.0
O1368 O 0.49625 0.39137 0.97838 0.0
H1369 H 0.42328 0.25069 0.98801 0.0
H1370 H 0.51073 0.35458 0.01554 0.0
H1371 H 0.56072 0.35367 0.97772 0.0
H1372 H 0.47699 0.293 0.98202 0.0
H1373 H 0.48668 0.35708 0.99666 0.0
O1374 O 0.45623 0.33178 0.93483 0.0
H1375 H 0.55176 0.34544 0.93243 0.0
H1376 H 0.4829 0.36296 0.91613 0.0
H1377 H 0.58542 0.35087 0.99639 0.0
H1378 H 0.38544 0.31043 0.97737 0.0
H1379 H 0.56039 0.35132 0.01548 0.0
H1380 H 0.37704 0.2593 0.98571 0.0
O1381 O 0.54669 0.39127 0.96597 0.0
H1382 H 0.45425 0.42982 0.93752 0.0
H1383 H 0.54873 0.419 0.9297 0.0
H1384 H 0.55002 0.46916 0.92451 0.0
H1385 H 0.50251 0.47478 0.9284 0.0
H1386 H 0.45408 0.38016 0.94266 0.0
H1387 H 0.5023 0.35881 0.89644 0.0
H1388 H 0.54731 0.34807 0.89476 0.0
O1389 O 0.54566 0.38332 0.94642 0.0
C1390 C 0.50766 0.30934 0.95511 0.0
C1391 C 0.55253 0.34615 0.91355 0.0
C1392 C 0.51334 0.35591 0.9043 0.0
N1393 N 0.51637 0.35471 0.92542 0.0
C1394 C 0.54098 0.34857 0.92457 0.0
C1395 C 0.50242 0.35817 0.91546 0.0
C1396 C 0.5386 0.34989 0.90336 0.0
C1397 C 0.43611 0.32994 0.97513 0.0
N1398 N 0.46141 0.32501 0.97641 0.0
C1399 C 0.40541 0.30644 0.97845 0.0
C1400 C 0.40071 0.27773 0.98311 0.0
C1401 C 0.42664 0.27288 0.98439 0.0
C1402 C 0.45699 0.2969 0.98096 0.0
C1403 C 0.52183 0.35431 0.00728 0.0
C1404 C 0.54959 0.3537 0.98599 0.0
C1405 C 0.50836 0.35578 0.99656 0.0
N1406 N 0.52216 0.35529 0.9861 0.0
C1407 C 0.56373 0.35219 0.99653 0.0
C1408 C 0.54969 0.35247 0.00724 0.0
C1409 C 0.5604 0.39644 0.95594 0.0
C1410 C 0.47506 0.42762 0.93575 0.0
C1411 C 0.528 0.42129 0.93146 0.0
C1412 C 0.52884 0.44973 0.92847 0.0
C1413 C 0.50217 0.45286 0.93065 0.0
N1414 N 0.50129 0.39663 0.93643 0.0
C1415 C 0.47506 0.39952 0.9386 0.0
Co1416 Co 0.51696 0.69012 0.80579 0.0
Co1417 Co 0.52238 0.69523 0.77532 0.0
O1418 O 0.53978 0.69534 0.79095 0.0
C1419 C 0.57676 0.75143 0.80912 0.0
O1420 O 0.57334 0.7593 0.79836 0.0
C1421 C 0.53774 0.64348 0.7736 0.0
O1422 O 0.52417 0.63334 0.78395 0.0
O1423 O 0.4811 0.65578 0.77907 0.0
O1424 O 0.47679 0.656 0.79878 0.0
H1425 H 0.4392 0.68772 0.74687 0.0
H1426 H 0.57699 0.68771 0.80579 0.0
O1427 O 0.55669 0.72429 0.81332 0.0
H1428 H 0.49452 0.58294 0.82093 0.0
H1429 H 0.50459 0.68215 0.84998 0.0
H1430 H 0.4537 0.68156 0.8122 0.0
H1431 H 0.48077 0.62405 0.81558 0.0
H1432 H 0.53255 0.68809 0.83113 0.0
O1433 O 0.53953 0.6683 0.769 0.0
H1434 H 0.46144 0.68814 0.76651 0.0
H1435 H 0.54706 0.70176 0.75075 0.0
H1436 H 0.42478 0.67529 0.83084 0.0
H1437 H 0.59184 0.64736 0.81113 0.0
H1438 H 0.45025 0.67557 0.8499 0.0
H1439 H 0.55041 0.59451 0.81873 0.0
O1440 O 0.50516 0.72261 0.80103 0.0
H1441 H 0.6419 0.76291 0.77381 0.0
H1442 H 0.54007 0.75852 0.76475 0.0
H1443 H 0.59082 0.80779 0.76055 0.0
H1444 H 0.64223 0.81018 0.76508 0.0
H1445 H 0.59056 0.71422 0.77797 0.0
H1446 H 0.52564 0.70118 0.73094 0.0
H1447 H 0.47138 0.69426 0.72892 0.0
O1448 O 0.50488 0.72217 0.78119 0.0
C1449 C 0.46577 0.64428 0.78866 0.0
C1450 C 0.46291 0.69084 0.74764 0.0
C1451 C 0.5114 0.69836 0.7387 0.0
N1452 N 0.50559 0.69518 0.75977 0.0
C1453 C 0.47566 0.69119 0.75874 0.0
C1454 C 0.52337 0.69858 0.74994 0.0
C1455 C 0.48096 0.69448 0.73757 0.0
C1456 C 0.55891 0.66487 0.8092 0.0
N1457 N 0.52811 0.65831 0.81044 0.0
C1458 C 0.56742 0.64207 0.81216 0.0
C1459 C 0.54416 0.61241 0.81641 0.0
C1460 C 0.51279 0.6059 0.81764 0.0
C1461 C 0.50513 0.62925 0.81458 0.0
C1462 C 0.49322 0.68194 0.84173 0.0
C1463 C 0.46487 0.68153 0.82046 0.0
C1464 C 0.50896 0.68536 0.83103 0.0
N1465 N 0.49468 0.68497 0.82058 0.0
C1466 C 0.44841 0.67805 0.83099 0.0
C1467 C 0.46272 0.67824 0.84168 0.0
C1468 C 0.50008 0.73162 0.79107 0.0
C1469 C 0.61966 0.76215 0.77179 0.0
C1470 C 0.56232 0.75944 0.7668 0.0
C1471 C 0.59099 0.78736 0.76437 0.0
C1472 C 0.61983 0.78867 0.7669 0.0
N1473 N 0.56235 0.73353 0.7716 0.0
C1474 C 0.59052 0.73462 0.77409 0.0
Co1475 Co 0.31081 0.83078 0.8037 0.0
Co1476 Co 0.30582 0.82809 0.77321 0.0
O1477 O 0.30461 0.84613 0.78853 0.0
C1478 C 0.24668 0.82328 0.80678 0.0
O1479 O 0.2384 0.80791 0.79669 0.0
C1480 C 0.35611 0.89552 0.77122 0.0
O1481 O 0.36599 0.89271 0.7817 0.0
O1482 O 0.3457 0.82762 0.7774 0.0
O1483 O 0.34674 0.82665 0.79722 0.0
H1484 H 0.31662 0.75212 0.74591 0.0
H1485 H 0.30924 0.89117 0.80238 0.0
O1486 O 0.27499 0.83471 0.81067 0.0
H1487 H 0.41482 0.92095 0.81894 0.0
H1488 H 0.31743 0.83039 0.84805 0.0
H1489 H 0.32358 0.77947 0.8112 0.0
H1490 H 0.37626 0.86483 0.81413 0.0
H1491 H 0.31034 0.84962 0.82875 0.0
O1492 O 0.33189 0.87193 0.76655 0.0
H1493 H 0.31508 0.77484 0.76522 0.0
H1494 H 0.2991 0.84405 0.74835 0.0
H1495 H 0.33108 0.75967 0.8303 0.0
H1496 H 0.34695 0.94757 0.80717 0.0
H1497 H 0.32802 0.78519 0.8489 0.0
H1498 H 0.40023 0.96277 0.81547 0.0
O1499 O 0.28034 0.78538 0.79933 0.0
H1500 H 0.23516 0.8764 0.76996 0.0
H1501 H 0.24308 0.77991 0.76303 0.0
H1502 H 0.19299 0.77921 0.75822 0.0
H1503 H 0.18883 0.82773 0.76167 0.0
H1504 H 0.28473 0.87597 0.77472 0.0
H1505 H 0.30073 0.82224 0.72885 0.0
H1506 H 0.30941 0.77586 0.72755 0.0
O1507 O 0.28008 0.78415 0.77949 0.0
C1508 C 0.35807 0.82602 0.78714 0.0
C1509 C 0.31274 0.77228 0.74636 0.0
C1510 C 0.30386 0.81166 0.73679 0.0
N1511 N 0.3068 0.8106 0.75792 0.0
C1512 C 0.31177 0.7852 0.75727 0.0
C1513 C 0.30304 0.82395 0.74785 0.0
C1514 C 0.30872 0.78563 0.73606 0.0
C1515 C 0.33229 0.89758 0.80608 0.0
N1516 N 0.34055 0.87474 0.80797 0.0
C1517 C 0.35358 0.92956 0.80873 0.0
C1518 C 0.38348 0.93808 0.81338 0.0
C1519 C 0.3917 0.91463 0.81532 0.0
C1520 C 0.36981 0.8829 0.81253 0.0
C1521 C 0.31887 0.81912 0.84 0.0
C1522 C 0.3224 0.79083 0.81925 0.0
C1523 C 0.31481 0.82985 0.82905 0.0
N1524 N 0.31678 0.81583 0.81885 0.0
C1525 C 0.32658 0.77945 0.83004 0.0
C1526 C 0.32483 0.79376 0.84047 0.0
C1527 C 0.27151 0.77049 0.7895 0.0
C1528 C 0.23671 0.85514 0.76838 0.0
C1529 C 0.24143 0.80109 0.76457 0.0
C1530 C 0.21302 0.80057 0.76182 0.0
C1531 C 0.21071 0.82781 0.76375 0.0
N1532 N 0.26686 0.82803 0.76908 0.0
C1533 C 0.26475 0.8548 0.77102 0.0
Co1534 Co 0.17447 0.47952 0.80407 0.0
Co1535 Co 0.17074 0.47871 0.77375 0.0
O1536 O 0.15444 0.45884 0.78916 0.0
C1537 C 0.17055 0.41672 0.80637 0.0
O1538 O 0.18185 0.42021 0.7956 0.0
C1539 C 0.10323 0.46219 0.77279 0.0
O1540 O 0.1071 0.47539 0.78324 0.0
O1541 O 0.17118 0.51843 0.77878 0.0
O1542 O 0.1843 0.52198 0.79793 0.0
H1543 H 0.24242 0.56743 0.74627 0.0
H1544 H 0.10913 0.42346 0.80421 0.0
O1545 O 0.16527 0.43775 0.81084 0.0
H1546 H 0.0987 0.51112 0.82176 0.0
H1547 H 0.18324 0.48807 0.84836 0.0
H1548 H 0.23386 0.53885 0.81061 0.0
H1549 H 0.15129 0.51998 0.81541 0.0
H1550 H 0.15784 0.46303 0.82945 0.0
O1551 O 0.1262 0.46094 0.76785 0.0
H1552 H 0.22217 0.54205 0.76564 0.0
H1553 H 0.15231 0.45704 0.74888 0.0
H1554 H 0.25995 0.56484 0.82932 0.0
H1555 H 0.05609 0.41348 0.81053 0.0
H1556 H 0.23461 0.53941 0.84838 0.0
H1557 H 0.05064 0.45754 0.81935 0.0
O1558 O 0.21678 0.48726 0.79846 0.0
H1559 H 0.12258 0.36005 0.76933 0.0
H1560 H 0.21794 0.46504 0.76202 0.0
H1561 H 0.21829 0.41607 0.75622 0.0
H1562 H 0.17034 0.3631 0.75984 0.0
H1563 H 0.12335 0.40964 0.77509 0.0
H1564 H 0.17163 0.48158 0.72933 0.0
H1565 H 0.2171 0.53712 0.72794 0.0
O1566 O 0.21575 0.49704 0.77915 0.0
C1567 C 0.17996 0.53367 0.78851 0.0
C1568 C 0.22267 0.54317 0.74676 0.0
C1569 C 0.18291 0.495 0.73725 0.0
N1570 N 0.1863 0.498 0.75839 0.0
C1571 C 0.21116 0.52865 0.7577 0.0
C1572 C 0.17204 0.48125 0.74835 0.0
C1573 C 0.20843 0.52616 0.73648 0.0
C1574 C 0.10697 0.44266 0.80814 0.0
N1575 N 0.13328 0.4722 0.80949 0.0
C1576 C 0.07687 0.43691 0.81166 0.0
C1577 C 0.07382 0.46165 0.81659 0.0
C1578 C 0.10078 0.49173 0.81794 0.0
C1579 C 0.13049 0.49661 0.8143 0.0
C1580 C 0.19448 0.49942 0.84012 0.0
C1581 C 0.22259 0.52774 0.81887 0.0
C1582 C 0.18024 0.48532 0.82938 0.0
N1583 N 0.19423 0.4996 0.81893 0.0
C1584 C 0.23751 0.54252 0.82943 0.0
C1585 C 0.2233 0.52823 0.84012 0.0
C1586 C 0.23043 0.49691 0.78846 0.0
C1587 C 0.14359 0.383 0.76767 0.0
C1588 C 0.19701 0.44208 0.76367 0.0
C1589 C 0.19733 0.41443 0.76034 0.0
C1590 C 0.17041 0.38472 0.76237 0.0
N1591 N 0.17059 0.44019 0.76885 0.0
C1592 C 0.14412 0.41115 0.77087 0.0
Co1593 Co 0.35501 0.85319 0.03105 0.0
Co1594 Co 0.3545 0.85158 0.06147 0.0
O1595 O 0.35818 0.87293 0.04641 0.0
C1596 C 0.41759 0.91223 0.02897 0.0
O1597 O 0.42592 0.90467 0.03896 0.0
C1598 C 0.30554 0.87068 0.06335 0.0
O1599 O 0.29586 0.85866 0.05277 0.0
O1600 O 0.31427 0.81296 0.05637 0.0
O1601 O 0.32027 0.81127 0.03679 0.0
H1602 H 0.33593 0.75981 0.08755 0.0
H1603 H 0.35169 0.91264 0.03249 0.0
O1604 O 0.38972 0.89469 0.02479 0.0
H1605 H 0.24953 0.83265 0.01472 0.0
H1606 H 0.35327 0.85019 0.98663 0.0
H1607 H 0.34849 0.79186 0.02297 0.0
H1608 H 0.29037 0.81846 0.01999 0.0
H1609 H 0.35625 0.87398 0.00618 0.0
O1610 O 0.32915 0.87023 0.0681 0.0
H1611 H 0.34104 0.787 0.06858 0.0
H1612 H 0.35938 0.87145 0.08665 0.0
H1613 H 0.34518 0.76709 0.00361 0.0
H1614 H 0.3116 0.92793 0.02727 0.0
H1615 H 0.34757 0.79631 0.98527 0.0
H1616 H 0.26005 0.88775 0.01835 0.0
O1617 O 0.38716 0.84088 0.03575 0.0
H1618 H 0.42851 0.96936 0.06683 0.0
H1619 H 0.4151 0.86222 0.07251 0.0
H1620 H 0.46562 0.90972 0.07841 0.0
H1621 H 0.47254 0.96377 0.0756 0.0
H1622 H 0.37846 0.92121 0.06097 0.0
H1623 H 0.35421 0.8451 0.10582 0.0
H1624 H 0.34254 0.78891 0.10634 0.0
O1625 O 0.37971 0.83246 0.05528 0.0
C1626 C 0.30556 0.79897 0.04639 0.0
C1627 C 0.34113 0.78433 0.08743 0.0
C1628 C 0.35135 0.83219 0.09769 0.0
N1629 N 0.35079 0.83085 0.07651 0.0
C1630 C 0.34414 0.79987 0.07672 0.0
C1631 C 0.35419 0.84696 0.08681 0.0
C1632 C 0.34481 0.80066 0.09798 0.0
C1633 C 0.32943 0.89512 0.02851 0.0
N1634 N 0.32344 0.86476 0.0265 0.0
C1635 C 0.30678 0.90387 0.02561 0.0
C1636 C 0.27784 0.8813 0.02063 0.0
C1637 C 0.27191 0.85038 0.0186 0.0
C1638 C 0.2951 0.84247 0.02162 0.0
C1639 C 0.35212 0.83718 0.99456 0.0
C1640 C 0.34933 0.80464 0.01503 0.0
C1641 C 0.35384 0.85055 0.00565 0.0
N1642 N 0.35223 0.83418 0.01571 0.0
C1643 C 0.34754 0.79053 0.00409 0.0
C1644 C 0.34892 0.80695 0.9938 0.0
C1645 C 0.39229 0.83124 0.04556 0.0
C1646 C 0.42575 0.94594 0.06813 0.0
C1647 C 0.41795 0.88566 0.07123 0.0
C1648 C 0.44659 0.91247 0.07461 0.0
C1649 C 0.45046 0.94278 0.07303 0.0
N1650 N 0.39379 0.88895 0.06646 0.0
C1651 C 0.39743 0.91859 0.06487 0.0
Co1652 Co 0.14343 0.504 0.02913 0.0
Co1653 Co 0.14275 0.50319 0.05956 0.0
O1654 O 0.12258 0.4864 0.04425 0.0
C1655 C 0.08445 0.50749 0.02663 0.0
O1656 O 0.0913 0.52278 0.03674 0.0
C1657 C 0.12396 0.43515 0.06103 0.0
O1658 O 0.1367 0.43806 0.05055 0.0
O1659 O 0.18185 0.50208 0.05475 0.0
O1660 O 0.18496 0.51093 0.03523 0.0
H1661 H 0.23242 0.57493 0.08668 0.0
H1662 H 0.08403 0.44106 0.0298 0.0
O1663 O 0.10233 0.49747 0.02253 0.0
H1664 H 0.16558 0.42037 0.01254 0.0
H1665 H 0.14973 0.50812 0.98476 0.0
H1666 H 0.20526 0.55937 0.0218 0.0
H1667 H 0.17917 0.47499 0.0182 0.0
H1668 H 0.12452 0.48604 0.00401 0.0
O1669 O 0.12385 0.45886 0.06584 0.0
H1670 H 0.2067 0.55398 0.06741 0.0
H1671 H 0.12101 0.48665 0.0845 0.0
H1672 H 0.23143 0.58211 0.00274 0.0
H1673 H 0.06934 0.3861 0.02418 0.0
H1674 H 0.20363 0.55643 0.98405 0.0
H1675 H 0.11031 0.37548 0.01551 0.0
O1676 O 0.15522 0.5481 0.03414 0.0
H1677 H 0.02452 0.45863 0.06377 0.0
H1678 H 0.13096 0.55226 0.07073 0.0
H1679 H 0.08288 0.55467 0.07625 0.0
H1680 H 0.02918 0.50759 0.07279 0.0
H1681 H 0.07325 0.45734 0.05829 0.0
H1682 H 0.14588 0.50669 0.10397 0.0
H1683 H 0.20195 0.55124 0.10513 0.0
O1684 O 0.16212 0.54784 0.05373 0.0
C1685 C 0.19658 0.50798 0.04492 0.0
C1686 C 0.20794 0.55558 0.08629 0.0
C1687 C 0.15939 0.51726 0.09599 0.0
N1688 N 0.1623 0.51933 0.07483 0.0
C1689 C 0.19322 0.54368 0.0754 0.0
C1690 C 0.14545 0.50597 0.08494 0.0
C1691 C 0.19084 0.54226 0.09664 0.0
C1692 C 0.1019 0.43666 0.02593 0.0
N1693 N 0.13237 0.46121 0.02428 0.0
C1694 C 0.09348 0.40548 0.02281 0.0
C1695 C 0.11649 0.39953 0.01796 0.0
C1696 C 0.14751 0.4247 0.0163 0.0
C1697 C 0.15508 0.45557 0.01954 0.0
C1698 C 0.16212 0.51948 0.99284 0.0
C1699 C 0.19309 0.54795 0.0137 0.0
C1700 C 0.14795 0.50711 0.00377 0.0
N1701 N 0.16354 0.52123 0.01402 0.0
C1702 C 0.20799 0.56098 0.00294 0.0
C1703 C 0.19236 0.54658 0.99245 0.0
C1704 C 0.16403 0.56224 0.04409 0.0
C1705 C 0.04779 0.47926 0.06535 0.0
C1706 C 0.10768 0.5317 0.06917 0.0
C1707 C 0.08054 0.53319 0.07233 0.0
C1708 C 0.05042 0.50676 0.0704 0.0
N1709 N 0.1049 0.50461 0.06425 0.0
C1710 C 0.07546 0.47863 0.0623 0.0
Co1711 Co 0.49209 0.6405 0.02983 0.0
Co1712 Co 0.4918 0.63989 0.06027 0.0
O1713 O 0.50915 0.63695 0.04503 0.0
C1714 C 0.48872 0.57809 0.02735 0.0
O1715 O 0.47336 0.5697 0.03745 0.0
C1716 C 0.55962 0.68947 0.06196 0.0
O1717 O 0.5567 0.69932 0.05148 0.0
O1718 O 0.49265 0.68 0.0555 0.0
O1719 O 0.48496 0.67502 0.03591 0.0
H1720 H 0.41871 0.65652 0.08714 0.0
H1721 H 0.55497 0.64394 0.03079 0.0
O1722 O 0.49879 0.60599 0.02324 0.0
H1723 H 0.57637 0.74656 0.01369 0.0
H1724 H 0.48955 0.64353 0.98544 0.0
H1725 H 0.43698 0.64712 0.02224 0.0
H1726 H 0.52153 0.70546 0.01906 0.0
H1727 H 0.51095 0.64003 0.0048 0.0
O1728 O 0.53595 0.66551 0.06672 0.0
H1729 H 0.44038 0.65233 0.06794 0.0
H1730 H 0.50779 0.63449 0.08527 0.0
H1731 H 0.41493 0.65094 0.00308 0.0
H1732 H 0.61015 0.68429 0.02546 0.0
H1733 H 0.44128 0.64916 0.9845 0.0
H1734 H 0.62113 0.73607 0.01688 0.0
O1735 O 0.44782 0.60814 0.03462 0.0
H1736 H 0.53715 0.56692 0.06462 0.0
H1737 H 0.44273 0.57868 0.07121 0.0
H1738 H 0.44063 0.52831 0.0767 0.0
H1739 H 0.4881 0.52222 0.07343 0.0
H1740 H 0.53813 0.6168 0.05917 0.0
H1741 H 0.48704 0.63874 0.10466 0.0
H1742 H 0.44208 0.64969 0.10568 0.0
O1743 O 0.44733 0.61444 0.05425 0.0
C1744 C 0.48726 0.68917 0.04565 0.0
C1745 C 0.43823 0.65162 0.08682 0.0
C1746 C 0.4766 0.64168 0.09665 0.0
N1747 N 0.47511 0.64287 0.07549 0.0
C1748 C 0.45053 0.64913 0.07597 0.0
C1749 C 0.48829 0.63936 0.08564 0.0
C1750 C 0.45138 0.64782 0.09721 0.0
C1751 C 0.55953 0.6663 0.02696 0.0
N1752 N 0.53505 0.67227 0.02519 0.0
C1753 C 0.59083 0.6891 0.024 0.0
C1754 C 0.59698 0.71817 0.0192 0.0
C1755 C 0.57188 0.72408 0.01742 0.0
C1756 C 0.54089 0.70074 0.0205 0.0
C1757 C 0.47791 0.64442 0.99348 0.0
C1758 C 0.4487 0.64654 0.0142 0.0
C1759 C 0.48989 0.64241 0.00446 0.0
N1760 N 0.4754 0.64369 0.01464 0.0
C1761 C 0.43605 0.64862 0.00337 0.0
C1762 C 0.45082 0.64758 0.99295 0.0
C1763 C 0.43332 0.60235 0.04451 0.0
C1764 C 0.51634 0.56932 0.06612 0.0
C1765 C 0.46346 0.57618 0.06973 0.0
C1766 C 0.46215 0.54762 0.07288 0.0
C1767 C 0.4888 0.54423 0.07105 0.0
N1768 N 0.4906 0.60071 0.06493 0.0
C1769 C 0.5168 0.59754 0.06309 0.0
Co1770 Co 0.14573 0.63777 0.52967 0.0
Co1771 Co 0.14301 0.63651 0.56007 0.0
O1772 O 0.12406 0.63458 0.54461 0.0
C1773 C 0.08413 0.57797 0.52683 0.0
O1774 O 0.0877 0.56992 0.53755 0.0
C1775 C 0.12566 0.68683 0.56169 0.0
O1776 O 0.13924 0.69712 0.55136 0.0
O1777 O 0.18294 0.67648 0.55572 0.0
O1778 O 0.18731 0.6709 0.53627 0.0
H1779 H 0.23007 0.65051 0.58786 0.0
H1780 H 0.08787 0.64407 0.52982 0.0
O1781 O 0.10478 0.60468 0.5225 0.0
H1782 H 0.17344 0.74579 0.51368 0.0
H1783 H 0.15598 0.6426 0.48539 0.0
H1784 H 0.20687 0.64167 0.52298 0.0
H1785 H 0.18442 0.70293 0.51929 0.0
H1786 H 0.12961 0.63956 0.50436 0.0
O1787 O 0.12461 0.6624 0.56636 0.0
H1788 H 0.20589 0.64757 0.5684 0.0
H1789 H 0.11978 0.63038 0.58484 0.0
H1790 H 0.2342 0.64499 0.50422 0.0
H1791 H 0.07578 0.68621 0.52423 0.0
H1792 H 0.20873 0.64547 0.48524 0.0
H1793 H 0.11877 0.73755 0.51613 0.0
O1794 O 0.1552 0.60385 0.53466 0.0
H1795 H 0.02419 0.56504 0.56329 0.0
H1796 H 0.12902 0.57444 0.57079 0.0
H1797 H 0.07988 0.5243 0.57576 0.0
H1798 H 0.02699 0.51939 0.57202 0.0
H1799 H 0.07394 0.61466 0.55836 0.0
H1800 H 0.14312 0.63339 0.60448 0.0
H1801 H 0.19861 0.64338 0.60608 0.0
O1802 O 0.16193 0.61074 0.55425 0.0
C1803 C 0.19847 0.68515 0.54604 0.0
C1804 C 0.20583 0.64603 0.58728 0.0
C1805 C 0.15704 0.63646 0.59661 0.0
N1806 N 0.16137 0.63853 0.57549 0.0
C1807 C 0.19198 0.64426 0.57629 0.0
C1808 C 0.14398 0.63485 0.58547 0.0
C1809 C 0.18818 0.64206 0.5975 0.0
C1810 C 0.10662 0.66623 0.52619 0.0
N1811 N 0.13676 0.67097 0.52483 0.0
C1812 C 0.09967 0.69005 0.52309 0.0
C1813 C 0.12382 0.71887 0.51856 0.0
C1814 C 0.1545 0.72352 0.51719 0.0
C1815 C 0.16059 0.69918 0.52041 0.0
C1816 C 0.16736 0.64248 0.4936 0.0
C1817 C 0.19572 0.64206 0.51476 0.0
C1818 C 0.15251 0.6407 0.50437 0.0
N1819 N 0.16681 0.64069 0.51477 0.0
C1820 C 0.21127 0.64386 0.50417 0.0
C1821 C 0.19695 0.6441 0.49352 0.0
C1822 C 0.16363 0.59811 0.54461 0.0
C1823 C 0.0471 0.56692 0.56499 0.0
C1824 C 0.10609 0.57245 0.56911 0.0
C1825 C 0.07835 0.54403 0.57196 0.0
C1826 C 0.04868 0.5413 0.56987 0.0
N1827 N 0.10434 0.5975 0.56433 0.0
C1828 C 0.07534 0.595 0.56226 0.0
Co1829 Co 0.36166 0.50685 0.53047 0.0
Co1830 Co 0.35865 0.50257 0.56084 0.0
O1831 O 0.36279 0.48697 0.54536 0.0
C1832 C 0.42169 0.50507 0.52875 0.0
O1833 O 0.42793 0.51535 0.53968 0.0
C1834 C 0.30861 0.43461 0.5614 0.0
O1835 O 0.29953 0.43855 0.55092 0.0
O1836 O 0.31913 0.50252 0.5558 0.0
O1837 O 0.32753 0.51464 0.53654 0.0
H1838 H 0.33982 0.57253 0.5886 0.0
H1839 H 0.35541 0.44273 0.53022 0.0
O1840 O 0.39581 0.49971 0.52385 0.0
H1841 H 0.25612 0.42819 0.51227 0.0
H1842 H 0.36326 0.5166 0.4862 0.0
H1843 H 0.35849 0.5646 0.52399 0.0
H1844 H 0.29807 0.48143 0.51886 0.0
H1845 H 0.36367 0.49148 0.50509 0.0
O1846 O 0.33227 0.45775 0.56652 0.0
H1847 H 0.34569 0.55316 0.56915 0.0
H1848 H 0.36171 0.48351 0.58562 0.0
H1849 H 0.35776 0.59038 0.50531 0.0
H1850 H 0.31417 0.38908 0.52367 0.0
H1851 H 0.36015 0.56635 0.48623 0.0
H1852 H 0.26406 0.38155 0.51465 0.0
O1853 O 0.39485 0.54963 0.53622 0.0
H1854 H 0.43036 0.45574 0.56511 0.0
H1855 H 0.41903 0.55 0.57276 0.0
H1856 H 0.46864 0.55095 0.57857 0.0
H1857 H 0.47452 0.50356 0.57477 0.0
H1858 H 0.38125 0.4559 0.55935 0.0
H1859 H 0.35576 0.50195 0.60525 0.0
H1860 H 0.34487 0.54686 0.60683 0.0
O1861 O 0.38491 0.54782 0.55564 0.0
C1862 C 0.31178 0.51031 0.54604 0.0
C1863 C 0.34468 0.55301 0.58803 0.0
C1864 C 0.35359 0.51337 0.59738 0.0
N1865 N 0.35434 0.51744 0.57625 0.0
C1866 C 0.34812 0.54201 0.57704 0.0
C1867 C 0.35688 0.503 0.58624 0.0
C1868 C 0.34748 0.53858 0.59826 0.0
C1869 C 0.33379 0.43967 0.5262 0.0
N1870 N 0.32923 0.46519 0.52487 0.0
C1871 C 0.31047 0.40923 0.52255 0.0
C1872 C 0.28234 0.40502 0.51751 0.0
C1873 C 0.27786 0.43117 0.51618 0.0
C1874 C 0.30168 0.46125 0.51995 0.0
C1875 C 0.36213 0.52726 0.49445 0.0
C1876 C 0.35934 0.5539 0.51573 0.0
C1877 C 0.36241 0.51317 0.50518 0.0
N1878 N 0.36083 0.52642 0.51563 0.0
C1879 C 0.35901 0.56865 0.50518 0.0
C1880 C 0.36038 0.55517 0.49448 0.0
C1881 C 0.39909 0.5629 0.54629 0.0
C1882 C 0.42804 0.4765 0.56685 0.0
C1883 C 0.42144 0.52931 0.57104 0.0
C1884 C 0.44956 0.52997 0.57438 0.0
C1885 C 0.45283 0.50336 0.57225 0.0
N1886 N 0.39721 0.50286 0.56576 0.0
C1887 C 0.40024 0.47668 0.56365 0.0
Co1888 Co 0.49438 0.8511 0.53192 0.0
Co1889 Co 0.49373 0.85251 0.56236 0.0
O1890 O 0.51094 0.87241 0.54705 0.0
C1891 C 0.48908 0.90898 0.52875 0.0
O1892 O 0.47312 0.90212 0.53871 0.0
C1893 C 0.5617 0.87158 0.56414 0.0
O1894 O 0.5589 0.85866 0.5537 0.0
O1895 O 0.49523 0.81338 0.5579 0.0
O1896 O 0.4883 0.81016 0.53827 0.0
H1897 H 0.4214 0.76342 0.58959 0.0
H1898 H 0.55646 0.91143 0.53275 0.0
O1899 O 0.50014 0.89162 0.52503 0.0
H1900 H 0.58053 0.83136 0.51632 0.0
H1901 H 0.49229 0.8438 0.48757 0.0
H1902 H 0.44034 0.78842 0.52455 0.0
H1903 H 0.5253 0.81651 0.52154 0.0
H1904 H 0.51314 0.86969 0.50682 0.0
O1905 O 0.53791 0.87176 0.56885 0.0
H1906 H 0.44289 0.78866 0.57029 0.0
H1907 H 0.50944 0.87492 0.58726 0.0
H1908 H 0.41886 0.76155 0.50549 0.0
H1909 H 0.61202 0.92738 0.52756 0.0
H1910 H 0.44489 0.78929 0.48682 0.0
H1911 H 0.62435 0.88716 0.51932 0.0
O1912 O 0.4498 0.83832 0.53659 0.0
H1913 H 0.53754 0.97073 0.56606 0.0
H1914 H 0.44403 0.8642 0.573 0.0
H1915 H 0.44111 0.91224 0.57814 0.0
H1916 H 0.48813 0.96599 0.57469 0.0
H1917 H 0.53934 0.92205 0.56097 0.0
H1918 H 0.48885 0.85054 0.60675 0.0
H1919 H 0.44442 0.79443 0.608 0.0
O1920 O 0.44925 0.83273 0.55629 0.0
C1921 C 0.49054 0.7987 0.5481 0.0
C1922 C 0.44068 0.78792 0.58916 0.0
C1923 C 0.47857 0.8368 0.5988 0.0
N1924 N 0.47717 0.83331 0.57765 0.0
C1925 C 0.45288 0.80237 0.57826 0.0
C1926 C 0.49016 0.85046 0.58774 0.0
C1927 C 0.45363 0.80532 0.59949 0.0
C1928 C 0.56161 0.89388 0.52906 0.0
N1929 N 0.53766 0.86313 0.5274 0.0
C1930 C 0.59312 0.90301 0.52619 0.0
C1931 C 0.60003 0.88042 0.52158 0.0
C1932 C 0.57546 0.8491 0.5199 0.0
C1933 C 0.54424 0.84082 0.52289 0.0
C1934 C 0.48079 0.83144 0.49564 0.0
C1935 C 0.45192 0.80056 0.51646 0.0
C1936 C 0.49245 0.846 0.50657 0.0
N1937 N 0.47814 0.83046 0.5168 0.0
C1938 C 0.43959 0.78527 0.5057 0.0
C1939 C 0.45419 0.80085 0.49523 0.0
C1940 C 0.43523 0.82997 0.54648 0.0
C1941 C 0.51693 0.94745 0.56764 0.0
C1942 C 0.46456 0.8875 0.57145 0.0
C1943 C 0.46279 0.91462 0.5744 0.0
C1944 C 0.48919 0.94477 0.57247 0.0
N1945 N 0.4919 0.89034 0.56675 0.0
C1946 C 0.51785 0.9198 0.56481 0.0
Co1947 Co 0.30737 0.48089 0.30721 0.0
Co1948 Co 0.30157 0.47449 0.27677 0.0
O1949 O 0.30185 0.45764 0.29246 0.0
C1950 C 0.24596 0.42138 0.31074 0.0
O1951 O 0.23813 0.42462 0.29994 0.0
C1952 C 0.35362 0.45947 0.27512 0.0
O1953 O 0.36385 0.47347 0.2854 0.0
O1954 O 0.34089 0.51605 0.28033 0.0
O1955 O 0.34144 0.52083 0.30004 0.0
H1956 H 0.30799 0.55648 0.24796 0.0
H1957 H 0.30953 0.42074 0.30745 0.0
O1958 O 0.27317 0.44141 0.31489 0.0
H1959 H 0.41466 0.50339 0.32223 0.0
H1960 H 0.316 0.49444 0.35136 0.0
H1961 H 0.31631 0.54445 0.3134 0.0
H1962 H 0.3736 0.51717 0.31684 0.0
H1963 H 0.30966 0.46593 0.33261 0.0
O1964 O 0.32865 0.45737 0.27051 0.0
H1965 H 0.30806 0.53496 0.26769 0.0
H1966 H 0.29481 0.44906 0.25231 0.0
H1967 H 0.32298 0.57391 0.33192 0.0
H1968 H 0.34982 0.40585 0.31282 0.0
H1969 H 0.32284 0.54889 0.35108 0.0
H1970 H 0.40286 0.44737 0.32024 0.0
O1971 O 0.27493 0.49273 0.30242 0.0
H1972 H 0.2345 0.35487 0.27574 0.0
H1973 H 0.23798 0.4561 0.26634 0.0
H1974 H 0.18882 0.40507 0.26236 0.0
H1975 H 0.18689 0.35396 0.26706 0.0
H1976 H 0.28307 0.40649 0.27968 0.0
H1977 H 0.29488 0.46977 0.23241 0.0
H1978 H 0.30137 0.5238 0.23015 0.0
O1979 O 0.27452 0.49194 0.28258 0.0
C1980 C 0.35271 0.53164 0.28985 0.0
C1981 C 0.30505 0.53287 0.24883 0.0
C1982 C 0.29774 0.48422 0.2401 0.0
N1983 N 0.30123 0.49071 0.26115 0.0
C1984 C 0.30499 0.52052 0.25998 0.0
C1985 C 0.2978 0.47266 0.25139 0.0
C1986 C 0.30137 0.51453 0.23884 0.0
C1987 C 0.33245 0.43886 0.31078 0.0
N1988 N 0.33914 0.46973 0.31189 0.0
C1989 C 0.35521 0.43032 0.31376 0.0
C1990 C 0.38498 0.45364 0.31791 0.0
C1991 C 0.39163 0.48508 0.31902 0.0
C1992 C 0.3683 0.49275 0.31593 0.0
C1993 C 0.31615 0.50562 0.34306 0.0
C1994 C 0.3164 0.53347 0.32169 0.0
C1995 C 0.3125 0.48957 0.33242 0.0
N1996 N 0.31282 0.5036 0.32192 0.0
C1997 C 0.32011 0.55024 0.33216 0.0
C1998 C 0.32 0.53617 0.3429 0.0
C1999 C 0.2655 0.49729 0.29246 0.0
C2000 C 0.23506 0.37698 0.27364 0.0
C2001 C 0.23726 0.43399 0.26846 0.0
C2002 C 0.2094 0.40515 0.26615 0.0
C2003 C 0.20834 0.37648 0.26878 0.0
N2004 N 0.26336 0.43428 0.27323 0.0
C2005 C 0.26253 0.40627 0.27581 0.0
Co2006 Co 0.51749 0.82623 0.30307 0.0
Co2007 Co 0.51439 0.82679 0.27271 0.0
O2008 O 0.53638 0.84397 0.28771 0.0
C2009 C 0.57771 0.82459 0.30453 0.0
O2010 O 0.57014 0.80887 0.29451 0.0
C2011 C 0.53264 0.89471 0.27137 0.0
O2012 O 0.52079 0.89181 0.28202 0.0
O2013 O 0.47587 0.82783 0.27835 0.0
O2014 O 0.4748 0.8179 0.29774 0.0
H2015 H 0.42156 0.7544 0.24691 0.0
H2016 H 0.57561 0.89008 0.30177 0.0
O2017 O 0.55975 0.83415 0.30893 0.0
H2018 H 0.49407 0.90785 0.32079 0.0
H2019 H 0.51626 0.82256 0.34748 0.0
H2020 H 0.45753 0.76966 0.31113 0.0
H2021 H 0.48146 0.85366 0.31494 0.0
H2022 H 0.53887 0.84493 0.32795 0.0
O2023 O 0.53242 0.87101 0.2664 0.0
H2024 H 0.44958 0.77576 0.26579 0.0
H2025 H 0.53303 0.84293 0.24748 0.0
H2026 H 0.43393 0.74661 0.33048 0.0
H2027 H 0.58932 0.94465 0.30757 0.0
H2028 H 0.46335 0.77312 0.34883 0.0
H2029 H 0.54835 0.95381 0.31712 0.0
O2030 O 0.50644 0.78249 0.29789 0.0
H2031 H 0.63202 0.87165 0.2664 0.0
H2032 H 0.52498 0.77766 0.26092 0.0
H2033 H 0.57243 0.77536 0.25438 0.0
H2034 H 0.62643 0.82262 0.25708 0.0
H2035 H 0.58393 0.87284 0.27291 0.0
H2036 H 0.50584 0.82248 0.2284 0.0
H2037 H 0.44973 0.7778 0.22803 0.0
O2038 O 0.49583 0.78219 0.27858 0.0
C2039 C 0.46206 0.8211 0.28839 0.0
C2040 C 0.44604 0.7738 0.24695 0.0
C2041 C 0.49333 0.81203 0.23656 0.0
N2042 N 0.49299 0.81034 0.25773 0.0
C2043 C 0.46206 0.78592 0.25761 0.0
C2044 C 0.50859 0.82355 0.24739 0.0
C2045 C 0.46186 0.78696 0.23636 0.0
C2046 C 0.55776 0.89385 0.30603 0.0
N2047 N 0.52783 0.86871 0.30806 0.0
C2048 C 0.56562 0.92481 0.30925 0.0
C2049 C 0.5426 0.92993 0.31459 0.0
C2050 C 0.51213 0.90416 0.31664 0.0
C2051 C 0.50511 0.87354 0.31328 0.0
C2052 C 0.50316 0.81085 0.33955 0.0
C2053 C 0.47037 0.78146 0.31908 0.0
C2054 C 0.51586 0.82338 0.32846 0.0
N2055 N 0.49937 0.8088 0.31841 0.0
C2056 C 0.45694 0.76824 0.33001 0.0
C2057 C 0.47348 0.78311 0.3403 0.0
C2058 C 0.49593 0.76809 0.28807 0.0
C2059 C 0.60862 0.85094 0.26515 0.0
C2060 C 0.5484 0.7983 0.26216 0.0
C2061 C 0.57518 0.79687 0.25841 0.0
C2062 C 0.60546 0.8234 0.25993 0.0
N2063 N 0.55169 0.82543 0.26723 0.0
C2064 C 0.5813 0.85151 0.26877 0.0
Co2065 Co 0.16495 0.68593 0.30486 0.0
Co2066 Co 0.16707 0.69 0.27436 0.0
O2067 O 0.14919 0.69148 0.28967 0.0
C2068 C 0.17165 0.74979 0.3077 0.0
O2069 O 0.18692 0.75793 0.29758 0.0
C2070 C 0.09952 0.63963 0.27246 0.0
O2071 O 0.10233 0.62982 0.28296 0.0
O2072 O 0.16763 0.65024 0.27866 0.0
O2073 O 0.16957 0.65014 0.29848 0.0
H2074 H 0.24277 0.67867 0.24708 0.0
H2075 H 0.10409 0.68658 0.30356 0.0
O2076 O 0.16057 0.72162 0.3117 0.0
H2077 H 0.07587 0.58175 0.32046 0.0
H2078 H 0.16606 0.68053 0.34922 0.0
H2079 H 0.2169 0.67417 0.31238 0.0
H2080 H 0.13177 0.62072 0.31549 0.0
H2081 H 0.14632 0.68679 0.3299 0.0
O2082 O 0.12314 0.66377 0.26776 0.0
H2083 H 0.22024 0.6806 0.26638 0.0
H2084 H 0.15084 0.6962 0.24948 0.0
H2085 H 0.23722 0.6675 0.33151 0.0
H2086 H 0.04791 0.64846 0.3085 0.0
H2087 H 0.21174 0.67067 0.3501 0.0
H2088 H 0.03349 0.59556 0.31697 0.0
O2089 O 0.21018 0.71674 0.30038 0.0
H2090 H 0.11865 0.76052 0.27092 0.0
H2091 H 0.21509 0.75253 0.26398 0.0
H2092 H 0.21569 0.8025 0.25904 0.0
H2093 H 0.16719 0.80669 0.26249 0.0
H2094 H 0.11917 0.71107 0.27582 0.0
H2095 H 0.17244 0.69419 0.22998 0.0
H2096 H 0.21883 0.68549 0.2287 0.0
O2097 O 0.21111 0.71594 0.28055 0.0
C2098 C 0.16983 0.6384 0.28845 0.0
C2099 C 0.22261 0.68255 0.24752 0.0
C2100 C 0.18311 0.69122 0.23792 0.0
N2101 N 0.1844 0.68871 0.25906 0.0
C2102 C 0.2098 0.68375 0.25843 0.0
C2103 C 0.17093 0.69226 0.24899 0.0
C2104 C 0.20914 0.68636 0.23721 0.0
C2105 C 0.09803 0.6637 0.30733 0.0
N2106 N 0.12118 0.65588 0.30923 0.0
C2107 C 0.06617 0.64218 0.31007 0.0
C2108 C 0.05809 0.61249 0.31481 0.0
C2109 C 0.08185 0.60471 0.31676 0.0
C2110 C 0.11345 0.62682 0.31389 0.0
C2111 C 0.17732 0.67904 0.34118 0.0
C2112 C 0.20557 0.67538 0.32043 0.0
C2113 C 0.1663 0.68263 0.33021 0.0
N2114 N 0.1803 0.68061 0.32002 0.0
C2115 C 0.21723 0.67168 0.33124 0.0
C2116 C 0.20295 0.6735 0.34167 0.0
C2117 C 0.22491 0.72514 0.29052 0.0
C2118 C 0.13989 0.75895 0.26934 0.0
C2119 C 0.19392 0.7542 0.26553 0.0
C2120 C 0.19438 0.78253 0.26269 0.0
C2121 C 0.16715 0.78486 0.26463 0.0
N2122 N 0.16705 0.72885 0.27012 0.0
C2123 C 0.14029 0.73098 0.27206 0.0
H2124 H 0.24722 0.08135 0.16758 0.0
H2125 H 0.29417 0.14188 0.13753 0.0
H2126 H 0.28838 0.12003 0.18053 0.0
H2127 H 0.33622 0.18022 0.15047 0.0
H2128 H 0.38823 0.25731 0.17785 0.0
H2129 H 0.3456 0.21852 0.16535 0.0
H2130 H 0.34262 0.14183 0.18597 0.0
H2131 H 0.38456 0.18082 0.19875 0.0
C2132 C 0.26656 0.1028 0.16371 0.0
C2133 C 0.26741 0.10858 0.15152 0.0
C2134 C 0.2903 0.12494 0.17115 0.0
C2135 C 0.31569 0.1533 0.16658 0.0
C2136 C 0.31672 0.1589 0.15434 0.0
C2137 C 0.29275 0.13685 0.1469 0.0
C2138 C 0.3783 0.23215 0.17977 0.0
C2139 C 0.38978 0.22211 0.18928 0.0
C2140 C 0.35404 0.20988 0.17253 0.0
C2141 C 0.34084 0.17699 0.17455 0.0
C2142 C 0.35196 0.16697 0.18421 0.0
C2143 C 0.37606 0.1893 0.19154 0.0
H2144 H 0.81489 0.2031 0.1959 0.0
H2145 H 0.73849 0.13448 0.17383 0.0
H2146 H 0.85376 0.19968 0.18324 0.0
H2147 H 0.77715 0.12999 0.16144 0.0
H2148 H 0.85598 0.15461 0.13443 0.0
H2149 H 0.8171 0.15834 0.14709 0.0
H2150 H 0.87404 0.16636 0.17771 0.0
H2151 H 0.91326 0.164 0.16506 0.0
C2152 C 0.80638 0.18692 0.18845 0.0
C2153 C 0.77366 0.16914 0.18585 0.0
C2154 C 0.82865 0.18485 0.18119 0.0
C2155 C 0.81866 0.16463 0.17126 0.0
C2156 C 0.7858 0.14632 0.16885 0.0
C2157 C 0.7636 0.14868 0.17602 0.0
C2158 C 0.86013 0.15724 0.14387 0.0
C2159 C 0.88773 0.15916 0.14873 0.0
C2160 C 0.83778 0.15918 0.15115 0.0
C2161 C 0.84239 0.16268 0.16345 0.0
C2162 C 0.86994 0.16433 0.16827 0.0
C2163 C 0.8924 0.16279 0.161 0.0
H2164 H 0.78776 0.60402 0.19348 0.0
H2165 H 0.85775 0.59777 0.17168 0.0
H2166 H 0.78959 0.64498 0.18046 0.0
H2167 H 0.86065 0.63964 0.15895 0.0
H2168 H 0.83794 0.69511 0.13207 0.0
H2169 H 0.83244 0.65131 0.14448 0.0
H2170 H 0.82291 0.69879 0.17525 0.0
H2171 H 0.82703 0.74148 0.16287 0.0
C2172 C 0.80381 0.61167 0.18598 0.0
C2173 C 0.82261 0.59771 0.18362 0.0
C2174 C 0.80496 0.63524 0.17853 0.0
C2175 C 0.82528 0.64568 0.16863 0.0
C2176 C 0.84427 0.63181 0.16634 0.0
C2177 C 0.84283 0.60799 0.17371 0.0
C2178 C 0.83445 0.69598 0.14147 0.0
C2179 C 0.83286 0.72171 0.14647 0.0
C2180 C 0.83151 0.67101 0.14861 0.0
C2181 C 0.82725 0.67148 0.16089 0.0
C2182 C 0.82553 0.69722 0.16582 0.0
C2183 C 0.8281 0.72189 0.1587 0.0
H2184 H 0.15099 0.27868 0.3658 0.0
H2185 H 0.07436 0.2739 0.34467 0.0
H2186 H 0.18988 0.3207 0.35302 0.0
H2187 H 0.11303 0.31664 0.33218 0.0
H2188 H 0.1898 0.36834 0.30444 0.0
H2189 H 0.15158 0.32622 0.31739 0.0
H2190 H 0.21125 0.3748 0.34748 0.0
H2191 H 0.24982 0.41602 0.33453 0.0
C2192 C 0.14246 0.28697 0.35855 0.0
C2193 C 0.10965 0.2729 0.35622 0.0
C2194 C 0.16473 0.31112 0.35122 0.0
C2195 C 0.15463 0.32194 0.34149 0.0
C2196 C 0.12173 0.30842 0.3394 0.0
C2197 C 0.09953 0.2841 0.34664 0.0
C2198 C 0.19474 0.36991 0.31382 0.0
C2199 C 0.22283 0.39546 0.31845 0.0
C2200 C 0.17276 0.3459 0.32126 0.0
C2201 C 0.17825 0.34713 0.33351 0.0
C2202 C 0.20643 0.37274 0.3381 0.0
C2203 C 0.22851 0.3965 0.33065 0.0
H2204 H 0.69905 0.84268 0.36369 0.0
H2205 H 0.74714 0.83009 0.33378 0.0
H2206 H 0.65741 0.83927 0.35057 0.0
H2207 H 0.70648 0.82797 0.32068 0.0
H2208 H 0.61108 0.79301 0.30197 0.0
H2209 H 0.65262 0.79574 0.31492 0.0
H2210 H 0.64844 0.86854 0.33572 0.0
H2211 H 0.60615 0.86487 0.32305 0.0
C2212 C 0.70079 0.83932 0.35432 0.0
C2213 C 0.72633 0.83658 0.34979 0.0
C2214 C 0.67708 0.8376 0.34678 0.0
C2215 C 0.6786 0.83344 0.33453 0.0
C2216 C 0.70418 0.83064 0.33006 0.0
C2217 C 0.72763 0.83202 0.33759 0.0
C2218 C 0.61928 0.80979 0.30924 0.0
C2219 C 0.60528 0.82862 0.31151 0.0
C2220 C 0.64313 0.81142 0.31667 0.0
C2221 C 0.65375 0.83219 0.32645 0.0
C2222 C 0.64036 0.85173 0.32846 0.0
C2223 C 0.61632 0.84985 0.32112 0.0
H2224 H 0.15492 0.85459 0.367 0.0
H2225 H 0.16857 0.91472 0.33682 0.0
H2226 H 0.15913 0.81628 0.35418 0.0
H2227 H 0.17146 0.87611 0.32401 0.0
H2228 H 0.20496 0.8148 0.30543 0.0
H2229 H 0.20336 0.85404 0.31848 0.0
H2230 H 0.13023 0.77776 0.33942 0.0
H2231 H 0.13281 0.7387 0.32665 0.0
C2232 C 0.15873 0.85958 0.35764 0.0
C2233 C 0.16144 0.88769 0.35295 0.0
C2234 C 0.16092 0.83754 0.35027 0.0
C2235 C 0.16553 0.84299 0.33802 0.0
C2236 C 0.16845 0.87129 0.33339 0.0
C2237 C 0.16662 0.89341 0.34076 0.0
C2238 C 0.18844 0.80647 0.31278 0.0
C2239 C 0.16906 0.77369 0.31502 0.0
C2240 C 0.18744 0.82895 0.32027 0.0
C2241 C 0.16675 0.81912 0.33007 0.0
C2242 C 0.14695 0.78626 0.33213 0.0
C2243 C 0.14821 0.76383 0.32473 0.0
H2244 H 0.62986 0.80752 0.80276 0.0
H2245 H 0.58263 0.74733 0.83286 0.0
H2246 H 0.67238 0.84547 0.81565 0.0
H2247 H 0.62422 0.78561 0.84575 0.0
H2248 H 0.72002 0.8454 0.86408 0.0
H2249 H 0.67838 0.80671 0.85112 0.0
H2250 H 0.68226 0.8839 0.83056 0.0
H2251 H 0.72461 0.92238 0.84322 0.0
C2252 C 0.62849 0.80248 0.81212 0.0
C2253 C 0.60293 0.77443 0.81677 0.0
C2254 C 0.65273 0.8243 0.81953 0.0
C2255 C 0.65173 0.81867 0.83177 0.0
C2256 C 0.62612 0.79052 0.83637 0.0
C2257 C 0.60213 0.76861 0.82896 0.0
C2258 C 0.71181 0.85405 0.85683 0.0
C2259 C 0.72565 0.8869 0.85465 0.0
C2260 C 0.68788 0.8319 0.84941 0.0
C2261 C 0.67704 0.84215 0.83973 0.0
C2262 C 0.69047 0.87509 0.83775 0.0
C2263 C 0.71458 0.89718 0.84508 0.0
H2264 H 0.14245 0.84003 0.86635 0.0
H2265 H 0.08229 0.82644 0.83617 0.0
H2266 H 0.18054 0.83541 0.85352 0.0
H2267 H 0.12064 0.82313 0.82337 0.0
H2268 H 0.18163 0.78957 0.80471 0.0
H2269 H 0.14251 0.79098 0.81789 0.0
H2270 H 0.21898 0.86437 0.83867 0.0
H2271 H 0.25793 0.86201 0.82578 0.0
C2272 C 0.13739 0.83612 0.85699 0.0
C2273 C 0.10936 0.83359 0.8523 0.0
C2274 C 0.1593 0.83369 0.84962 0.0
C2275 C 0.15376 0.829 0.83738 0.0
C2276 C 0.12552 0.82619 0.83275 0.0
C2277 C 0.10355 0.82828 0.84012 0.0
C2278 C 0.19003 0.8061 0.81206 0.0
C2279 C 0.22283 0.82565 0.8142 0.0
C2280 C 0.16762 0.80698 0.81962 0.0
C2281 C 0.17755 0.82771 0.8294 0.0
C2282 C 0.21042 0.84763 0.83139 0.0
C2283 C 0.23278 0.8465 0.82392 0.0
H2284 H 0.12037 0.27327 0.8614 0.0
H2285 H 0.19177 0.26768 0.84026 0.0
H2286 H 0.12248 0.31407 0.84821 0.0
H2287 H 0.19487 0.30929 0.82735 0.0
H2288 H 0.17188 0.36279 0.79976 0.0
H2289 H 0.16644 0.31964 0.81253 0.0
H2290 H 0.15546 0.36789 0.84276 0.0
H2291 H 0.15956 0.40996 0.83002 0.0
C2292 C 0.13682 0.28107 0.85403 0.0
C2293 C 0.15587 0.26727 0.85187 0.0
C2294 C 0.1381 0.30451 0.84646 0.0
C2295 C 0.15878 0.31495 0.83666 0.0
C2296 C 0.17818 0.30141 0.83464 0.0
C2297 C 0.17663 0.27775 0.84212 0.0
C2298 C 0.16808 0.36397 0.80912 0.0
C2299 C 0.16613 0.38977 0.81386 0.0
C2300 C 0.16517 0.33939 0.81646 0.0
C2301 C 0.16059 0.34029 0.82871 0.0
C2302 C 0.1584 0.36603 0.83337 0.0
C2303 C 0.16095 0.39033 0.82604 0.0
H2304 H 0.74506 0.5802 0.66896 0.0
H2305 H 0.80529 0.62831 0.69895 0.0
H2306 H 0.78402 0.62057 0.65588 0.0
H2307 H 0.84395 0.66967 0.68585 0.0
H2308 H 0.92108 0.72148 0.65848 0.0
H2309 H 0.88245 0.67903 0.6711 0.0
H2310 H 0.80555 0.67431 0.65009 0.0
H2311 H 0.84437 0.71596 0.63719 0.0
C2312 C 0.76652 0.59964 0.67279 0.0
C2313 C 0.77209 0.60108 0.68501 0.0
C2314 C 0.78884 0.62292 0.66526 0.0
C2315 C 0.81717 0.64849 0.66977 0.0
C2316 C 0.82265 0.65004 0.68203 0.0
C2317 C 0.80042 0.62647 0.68956 0.0
C2318 C 0.89591 0.71116 0.6565 0.0
C2319 C 0.88574 0.72207 0.64684 0.0
C2320 C 0.87373 0.68701 0.6638 0.0
C2321 C 0.84082 0.6734 0.66171 0.0
C2322 C 0.8307 0.68394 0.6519 0.0
C2323 C 0.85294 0.70788 0.6445 0.0
H2324 H 0.41577 0.16555 0.66811 0.0
H2325 H 0.36828 0.17772 0.6983 0.0
H2326 H 0.374 0.16209 0.65527 0.0
H2327 H 0.32563 0.17303 0.68546 0.0
H2328 H 0.27252 0.197 0.65811 0.0
H2329 H 0.31545 0.20153 0.6706 0.0
H2330 H 0.31975 0.12854 0.64998 0.0
H2331 H 0.27748 0.12489 0.63719 0.0
C2332 C 0.39619 0.16715 0.67203 0.0
C2333 C 0.39535 0.17196 0.68423 0.0
C2334 C 0.37211 0.16499 0.66465 0.0
C2335 C 0.34639 0.16725 0.6693 0.0
C2336 C 0.34537 0.17173 0.68154 0.0
C2337 C 0.36969 0.17422 0.68893 0.0
C2338 C 0.28278 0.18206 0.65619 0.0
C2339 C 0.2716 0.16055 0.64667 0.0
C2340 C 0.30722 0.18446 0.66343 0.0
C2341 C 0.3209 0.1652 0.66139 0.0
C2342 C 0.31003 0.14401 0.65173 0.0
C2343 C 0.28575 0.14184 0.64441 0.0
H2344 H 0.83687 0.24784 0.67258 0.0
H2345 H 0.82555 0.19019 0.70331 0.0
H2346 H 0.84052 0.20911 0.66014 0.0
H2347 H 0.83059 0.15172 0.69083 0.0
H2348 H 0.80475 0.07288 0.66367 0.0
H2349 H 0.80204 0.11202 0.67636 0.0
H2350 H 0.87331 0.18812 0.65481 0.0
H2351 H 0.87494 0.14882 0.64184 0.0
C2352 C 0.83563 0.22707 0.67672 0.0
C2353 C 0.83087 0.22208 0.68895 0.0
C2354 C 0.83792 0.20488 0.66956 0.0
C2355 C 0.83591 0.17724 0.67445 0.0
C2356 C 0.83172 0.17249 0.68673 0.0
C2357 C 0.82905 0.19461 0.69391 0.0
C2358 C 0.81972 0.09799 0.66161 0.0
C2359 C 0.83997 0.10779 0.65172 0.0
C2360 C 0.8184 0.12046 0.66896 0.0
C2361 C 0.83756 0.1533 0.66668 0.0
C2362 C 0.85783 0.16304 0.65676 0.0
C2363 C 0.85885 0.14053 0.64932 0.0
H2364 H 0.02965 0.52351 0.53352 0.0
H2365 H 0.07795 0.58167 0.50311 0.0
H2366 H 0.98596 0.48636 0.52083 0.0
H2367 H 0.03524 0.54415 0.49043 0.0
H2368 H 0.93966 0.48681 0.47204 0.0
H2369 H 0.9816 0.52492 0.48504 0.0
H2370 H 0.97394 0.44695 0.50619 0.0
H2371 H 0.93123 0.4091 0.4935 0.0
C2372 C 0.03099 0.52828 0.52413 0.0
C2373 C 0.0572 0.55553 0.51933 0.0
C2374 C 0.00607 0.50691 0.51684 0.0
C2375 C 0.00705 0.51219 0.50458 0.0
C2376 C 0.03331 0.53956 0.49984 0.0
C2377 C 0.05796 0.56103 0.50712 0.0
C2378 C 0.94706 0.47787 0.47944 0.0
C2379 C 0.93213 0.445 0.48175 0.0
C2380 C 0.97117 0.49968 0.48689 0.0
C2381 C 0.98114 0.48906 0.49671 0.0
C2382 C 0.96646 0.45608 0.49888 0.0
C2383 C 0.94214 0.43434 0.49152 0.0
H2384 H 0.42466 0.50183 0.50486 0.0
H2385 H 0.47117 0.49808 0.5369 0.0
H2386 H 0.46236 0.49371 0.4932 0.0
H2387 H 0.50884 0.48961 0.52513 0.0
H2388 H 0.53959 0.43418 0.49957 0.0
H2389 H 0.50331 0.44425 0.51133 0.0
H2390 H 0.52316 0.52453 0.48907 0.0
H2391 H 0.5599 0.51476 0.4773 0.0
C2392 C 0.44292 0.49923 0.50942 0.0
C2393 C 0.44492 0.50049 0.52181 0.0
C2394 C 0.4646 0.4948 0.50272 0.0
C2395 C 0.48843 0.49106 0.50827 0.0
C2396 C 0.49051 0.49228 0.52066 0.0
C2397 C 0.46909 0.49724 0.52737 0.0
C2398 C 0.53613 0.45389 0.49712 0.0
C2399 C 0.55251 0.47363 0.48747 0.0
C2400 C 0.51558 0.45979 0.50393 0.0
C2401 C 0.51062 0.48523 0.50113 0.0
C2402 C 0.52655 0.50469 0.49138 0.0
C2403 C 0.54754 0.49911 0.48466 0.0
H2404 H 0.50692 0.02481 0.46752 0.0
H2405 H 0.49131 0.07335 0.49657 0.0
H2406 H 0.50247 0.98354 0.4811 0.0
H2407 H 0.48817 0.03314 0.51011 0.0
H2408 H 0.45503 0.94015 0.52998 0.0
H2409 H 0.45651 0.97952 0.51617 0.0
H2410 H 0.53152 0.97625 0.49654 0.0
H2411 H 0.52913 0.9361 0.51007 0.0
C2412 C 0.50258 0.02669 0.47679 0.0
C2413 C 0.49949 0.05236 0.48095 0.0
C2414 C 0.50026 0.00319 0.48459 0.0
C2415 C 0.49511 0.00507 0.49674 0.0
C2416 C 0.49164 0.03058 0.50082 0.0
C2417 C 0.49363 0.0538 0.49303 0.0
C2418 C 0.47198 0.94805 0.52277 0.0
C2419 C 0.49192 0.93502 0.52111 0.0
C2420 C 0.47288 0.97065 0.51484 0.0
C2421 C 0.49401 0.98096 0.50517 0.0
C2422 C 0.51444 0.96838 0.50371 0.0
C2423 C 0.5133 0.94558 0.51155 0.0
H2424 H 0.4058 0.94048 0.01037 0.0
H2425 H 0.48261 0.94475 0.03124 0.0
H2426 H 0.44443 0.98233 0.99756 0.0
H2427 H 0.5214 0.98583 0.01815 0.0
H2428 H 0.58159 0.08051 0.99939 0.0
H2429 H 0.54315 0.03976 0.01247 0.0
H2430 H 0.48246 0.9911 0.98262 0.0
H2431 H 0.52062 0.03285 0.96951 0.0
C2432 C 0.43099 0.95039 0.01222 0.0
C2433 C 0.44118 0.93934 0.02182 0.0
C2434 C 0.45315 0.97417 0.0048 0.0
C2435 C 0.48607 0.98728 0.00673 0.0
C2436 C 0.49624 0.97656 0.01647 0.0
C2437 C 0.47402 0.95297 0.02398 0.0
C2438 C 0.56011 0.06107 0.99558 0.0
C2439 C 0.55413 0.05993 0.98339 0.0
C2440 C 0.5381 0.03756 0.0031 0.0
C2441 C 0.50965 0.01208 0.99863 0.0
C2442 C 0.50386 0.01069 0.9864 0.0
C2443 C 0.52581 0.03447 0.97886 0.0
H2444 H 0.96396 0.48941 0.96689 0.0
H2445 H 0.91655 0.50304 0.99678 0.0
H2446 H 0.00602 0.49349 0.97995 0.0
H2447 H 0.95751 0.50576 0.00982 0.0
H2448 H 0.05192 0.53999 0.02875 0.0
H2449 H 0.01117 0.53785 0.01552 0.0
H2450 H 0.0154 0.46481 0.9949 0.0
H2451 H 0.05701 0.46797 0.00783 0.0
C2452 C 0.96248 0.49318 0.97623 0.0
C2453 C 0.93699 0.49598 0.98078 0.0
C2454 C 0.98643 0.49529 0.98375 0.0
C2455 C 0.98517 0.49989 0.99598 0.0
C2456 C 0.95966 0.5028 1.00045 0.0
C2457 C 0.93601 0.50106 0.99295 0.0
C2458 C 0.04395 0.52333 0.02144 0.0
C2459 C 0.05768 0.5042 0.01932 0.0
C2460 C 0.02053 0.52204 0.01385 0.0
C2461 C 0.01005 0.50126 0.00408 0.0
C2462 C 0.02335 0.4816 0.00216 0.0
C2463 C 0.04699 0.48318 0.00966 0.0
H2464 H 0.49346 0.41439 0.99785 0.0
H2465 H 0.50577 0.47446 0.96779 0.0
H2466 H 0.49103 0.45293 0.01082 0.0
H2467 H 0.50199 0.51273 0.98079 0.0
H2468 H 0.52781 0.58992 0.00842 0.0
H2469 H 0.53094 0.55129 0.99557 0.0
H2470 H 0.45878 0.47434 0.01656 0.0
H2471 H 0.45666 0.51313 0.02969 0.0
C2472 C 0.49522 0.43568 0.99397 0.0
C2473 C 0.49983 0.44137 0.98177 0.0
C2474 C 0.49365 0.45777 0.00144 0.0
C2475 C 0.49626 0.486 0.99689 0.0
C2476 C 0.50043 0.49151 0.98463 0.0
C2477 C 0.50237 0.46949 0.97716 0.0
C2478 C 0.51279 0.56474 0.01034 0.0
C2479 C 0.49202 0.55455 0.02008 0.0
C2480 C 0.51436 0.54256 0.0029 0.0
C2481 C 0.49494 0.50963 0.00494 0.0
C2482 C 0.47442 0.4995 0.01479 0.0
C2483 C 0.47312 0.52172 0.02232 0.0
H2484 H 0.22731 0.98813 0.0857 0.0
H2485 H 0.21265 0.92829 0.1161 0.0
H2486 H 0.2498 0.96053 0.07491 0.0
H2487 H 0.23506 0.9004 0.10517 0.0
H2488 H 0.31437 0.88964 0.08636 0.0
H2489 H 0.28837 0.91372 0.09725 0.0
H2490 H 0.23328 0.90721 0.06631 0.0
H2491 H 0.25955 0.88327 0.05531 0.0
C2492 C 0.2288 0.96902 0.09008 0.0
C2493 C 0.21827 0.96046 0.10179 0.0
C2494 C 0.24146 0.95304 0.08385 0.0
C2495 C 0.24409 0.92826 0.08918 0.0
C2496 C 0.2335 0.91958 0.10087 0.0
C2497 C 0.22058 0.93545 0.10711 0.0
C2498 C 0.29668 0.89326 0.08186 0.0
C2499 C 0.2891 0.88465 0.06994 0.0
C2500 C 0.28161 0.90683 0.08814 0.0
C2501 C 0.25878 0.91231 0.08264 0.0
C2502 C 0.25099 0.90349 0.07075 0.0
C2503 C 0.26593 0.88968 0.06447 0.0
H2504 H 0.11329 0.3772 0.05296 0.0
H2505 H 0.1035 0.42408 0.08386 0.0
H2506 H 0.0901 0.32688 0.06387 0.0
H2507 H 0.0802 0.37394 0.09464 0.0
H2508 H 0.0681 0.28526 0.11374 0.0
H2509 H 0.09517 0.33547 0.10276 0.0
H2510 H 0.03691 0.28853 0.07225 0.0
H2511 H 0.01013 0.23847 0.0831 0.0
C2512 C 0.10626 0.37679 0.06206 0.0
C2513 C 0.11016 0.40459 0.06752 0.0
C2514 C 0.09289 0.34799 0.06829 0.0
C2515 C 0.08342 0.34653 0.08012 0.0
C2516 C 0.08765 0.37441 0.08559 0.0
C2517 C 0.10077 0.40309 0.07936 0.0
C2518 C 0.0612 0.28566 0.10468 0.0
C2519 C 0.03692 0.25793 0.09931 0.0
C2520 C 0.07659 0.3144 0.09841 0.0
C2521 C 0.06816 0.31587 0.08664 0.0
C2522 C 0.0442 0.28804 0.08125 0.0
C2523 C 0.02868 0.25942 0.08752 0.0
H2524 H 0.57104 0.6797 0.08471 0.0
H2525 H 0.61732 0.73712 0.0539 0.0
H2526 H 0.6214 0.70639 0.09539 0.0
H2527 H 0.66778 0.76409 0.06471 0.0
H2528 H 0.75673 0.77248 0.08318 0.0
H2529 H 0.70624 0.74909 0.07264 0.0
H2530 H 0.6603 0.75951 0.10365 0.0
H2531 H 0.71102 0.7828 0.11433 0.0
C2532 C 0.59194 0.69811 0.08022 0.0
C2533 C 0.59021 0.70622 0.06843 0.0
C2534 C 0.62073 0.71357 0.08639 0.0
C2535 C 0.6485 0.73735 0.0809 0.0
C2536 C 0.64678 0.74565 0.06913 0.0
C2537 C 0.61789 0.7303 0.06297 0.0
C2538 C 0.73592 0.76986 0.08778 0.0
C2539 C 0.73787 0.77944 0.09962 0.0
C2540 C 0.70703 0.75667 0.08169 0.0
C2541 C 0.67936 0.75256 0.0873 0.0
C2542 C 0.68125 0.7622 0.09913 0.0
C2543 C 0.71027 0.77563 0.10522 0.0
H2544 H 0.89353 0.32174 0.41716 0.0
H2545 H 0.87875 0.26344 0.44804 0.0
H2546 H 0.91682 0.29414 0.40686 0.0
H2547 H 0.9019 0.23554 0.43762 0.0
H2548 H 0.98135 0.22377 0.41963 0.0
H2549 H 0.95526 0.24855 0.43001 0.0
H2550 H 0.90094 0.24065 0.39867 0.0
H2551 H 0.92732 0.21604 0.38817 0.0
C2552 C 0.89517 0.30297 0.42175 0.0
C2553 C 0.88433 0.29481 0.43344 0.0
C2554 C 0.9083 0.28699 0.4158 0.0
C2555 C 0.91109 0.26263 0.42141 0.0
C2556 C 0.90025 0.25441 0.4331 0.0
C2557 C 0.88689 0.27028 0.43905 0.0
C2558 C 0.96381 0.22724 0.41493 0.0
C2559 C 0.95646 0.21801 0.40305 0.0
C2560 C 0.9487 0.24123 0.42092 0.0
C2561 C 0.92605 0.2465 0.41516 0.0
C2562 C 0.91853 0.23711 0.4033 0.0
C2563 C 0.93351 0.22291 0.39731 0.0
H2564 H 0.72589 0.61431 0.44422 0.0
H2565 H 0.67132 0.56811 0.41285 0.0
H2566 H 0.75351 0.6649 0.43353 0.0
H2567 H 0.6987 0.61865 0.40227 0.0
H2568 H 0.77764 0.7087 0.38408 0.0
H2569 H 0.75275 0.65775 0.39464 0.0
H2570 H 0.73909 0.70333 0.42508 0.0
H2571 H 0.76405 0.75406 0.41467 0.0
C2572 C 0.71982 0.61492 0.43506 0.0
C2573 C 0.69638 0.58723 0.4294 0.0
C2574 C 0.73554 0.6439 0.42896 0.0
C2575 C 0.72826 0.64569 0.41706 0.0
C2576 C 0.70508 0.61792 0.41138 0.0
C2577 C 0.68923 0.58903 0.41749 0.0
C2578 C 0.76939 0.70782 0.39303 0.0
C2579 C 0.7728 0.73541 0.39852 0.0
C2580 C 0.75503 0.67866 0.39905 0.0
C2581 C 0.74408 0.67661 0.4107 0.0
C2582 C 0.74768 0.70425 0.41618 0.0
C2583 C 0.76178 0.73327 0.41016 0.0
H2584 H 0.37943 0.11333 0.44679 0.0
H2585 H 0.42299 0.09943 0.41573 0.0
H2586 H 0.32853 0.09102 0.43629 0.0
H2587 H 0.37229 0.07706 0.40535 0.0
H2588 H 0.28371 0.06695 0.38681 0.0
H2589 H 0.3346 0.09352 0.39738 0.0
H2590 H 0.28846 0.03752 0.42842 0.0
H2591 H 0.23774 0.01119 0.41797 0.0
C2592 C 0.37818 0.1056 0.43774 0.0
C2593 C 0.4052 0.10805 0.43211 0.0
C2594 C 0.34905 0.09274 0.43174 0.0
C2595 C 0.34651 0.08239 0.41999 0.0
C2596 C 0.37363 0.08521 0.41434 0.0
C2597 C 0.40261 0.09779 0.42034 0.0
C2598 C 0.28443 0.06045 0.3959 0.0
C2599 C 0.25674 0.03689 0.40153 0.0
C2600 C 0.31356 0.07556 0.40193 0.0
C2601 C 0.31545 0.06758 0.41373 0.0
C2602 C 0.28765 0.04442 0.41939 0.0
C2603 C 0.25865 0.02916 0.41335 0.0
H2604 H 0.78115 0.06683 0.88913 0.0
H2605 H 0.77229 0.01086 0.92014 0.0
H2606 H 0.75733 0.09345 0.89995 0.0
H2607 H 0.74829 0.03726 0.93085 0.0
H2608 H 0.73453 0.11416 0.94942 0.0
H2609 H 0.762 0.09077 0.93882 0.0
H2610 H 0.70366 0.07734 0.90812 0.0
H2611 H 0.67647 0.10077 0.91858 0.0
C2612 C 0.77423 0.06028 0.89825 0.0
C2613 C 0.77852 0.03668 0.90376 0.0
C2614 C 0.76047 0.07542 0.90442 0.0
C2615 C 0.75095 0.0674 0.91624 0.0
C2616 C 0.75571 0.04417 0.9218 0.0
C2617 C 0.76924 0.02889 0.91562 0.0
C2618 C 0.72765 0.10627 0.9404 0.0
C2619 C 0.70332 0.10929 0.93485 0.0
C2620 C 0.74328 0.09279 0.93436 0.0
C2621 C 0.73503 0.08236 0.92263 0.0
C2622 C 0.71084 0.08556 0.91709 0.0
C2623 C 0.69509 0.09877 0.92314 0.0
H2624 H 0.87865 0.61805 0.94602 0.0
H2625 H 0.8896 0.57129 0.91532 0.0
H2626 H 0.90203 0.66835 0.93509 0.0
H2627 H 0.91308 0.62143 0.90451 0.0
H2628 H 0.92673 0.71095 0.8854 0.0
H2629 H 0.89882 0.66044 0.8962 0.0
H2630 H 0.95582 0.70635 0.92708 0.0
H2631 H 0.98341 0.7566 0.91642 0.0
C2632 C 0.88594 0.61847 0.93695 0.0
C2633 C 0.8824 0.59074 0.93156 0.0
C2634 C 0.89941 0.64726 0.93072 0.0
C2635 C 0.90934 0.64877 0.91895 0.0
C2636 C 0.90531 0.62091 0.91352 0.0
C2637 C 0.89209 0.59225 0.91976 0.0
C2638 C 0.93318 0.71023 0.8945 0.0
C2639 C 0.95733 0.73773 0.90003 0.0
C2640 C 0.9173 0.68134 0.90066 0.0
C2641 C 0.92511 0.67952 0.91249 0.0
C2642 C 0.94899 0.70711 0.91803 0.0
C2643 C 0.96498 0.73585 0.91187 0.0
H2644 H 0.42134 0.31712 0.91688 0.0
H2645 H 0.37528 0.25961 0.9477 0.0
H2646 H 0.37119 0.28991 0.90614 0.0
H2647 H 0.32488 0.2321 0.93682 0.0
H2648 H 0.23596 0.22343 0.91772 0.0
H2649 H 0.286 0.24659 0.92859 0.0
H2650 H 0.33321 0.23639 0.89793 0.0
H2651 H 0.28303 0.21335 0.88694 0.0
C2652 C 0.40052 0.29859 0.92137 0.0
C2653 C 0.40227 0.29059 0.93317 0.0
C2654 C 0.37184 0.28283 0.91516 0.0
C2655 C 0.34417 0.25882 0.92062 0.0
C2656 C 0.34584 0.25068 0.93241 0.0
C2657 C 0.37468 0.26633 0.93862 0.0
C2658 C 0.25696 0.22604 0.91328 0.0
C2659 C 0.25557 0.21669 0.90144 0.0
C2660 C 0.28557 0.23907 0.91955 0.0
C2661 C 0.31347 0.24326 0.91412 0.0
C2662 C 0.31208 0.23365 0.90231 0.0
C2663 C 0.28335 0.22037 0.89604 0.0
H2664 H 0.06887 0.77993 0.61448 0.0
H2665 H 0.0142 0.77285 0.58329 0.0
H2666 H 0.0956 0.75626 0.60361 0.0
H2667 H 0.04063 0.74904 0.57254 0.0
H2668 H 0.11711 0.73564 0.55383 0.0
H2669 H 0.09406 0.76297 0.56471 0.0
H2670 H 0.08007 0.7032 0.59502 0.0
H2671 H 0.10324 0.67615 0.58427 0.0
C2672 C 0.0626 0.7734 0.60532 0.0
C2673 C 0.03937 0.77819 0.59977 0.0
C2674 C 0.0778 0.75974 0.59911 0.0
C2675 C 0.07021 0.75085 0.58722 0.0
C2676 C 0.04727 0.75601 0.58165 0.0
C2677 C 0.03195 0.76943 0.58786 0.0
C2678 C 0.1092 0.72843 0.56282 0.0
C2679 C 0.11194 0.7037 0.56817 0.0
C2680 C 0.09592 0.74398 0.56903 0.0
C2681 C 0.08534 0.73524 0.58072 0.0
C2682 C 0.08838 0.71074 0.58608 0.0
C2683 C 0.10144 0.69508 0.57987 0.0
H2684 H 0.21145 0.28233 0.61283 0.0
H2685 H 0.22187 0.23604 0.58188 0.0
H2686 H 0.2352 0.3329 0.60212 0.0
H2687 H 0.24585 0.28657 0.57127 0.0
H2688 H 0.26102 0.37758 0.55272 0.0
H2689 H 0.23275 0.32652 0.56315 0.0
H2690 H 0.28899 0.37072 0.59435 0.0
H2691 H 0.3169 0.42152 0.58407 0.0
C2692 C 0.21868 0.2829 0.60374 0.0
C2693 C 0.21489 0.25522 0.59822 0.0
C2694 C 0.23239 0.31187 0.59763 0.0
C2695 C 0.24241 0.31367 0.58586 0.0
C2696 C 0.23805 0.28585 0.58028 0.0
C2697 C 0.22453 0.25696 0.5864 0.0
C2698 C 0.26723 0.37637 0.56182 0.0
C2699 C 0.29122 0.40358 0.56756 0.0
C2700 C 0.25115 0.34715 0.56777 0.0
C2701 C 0.2586 0.34469 0.57958 0.0
C2702 C 0.28241 0.37196 0.58531 0.0
C2703 C 0.29858 0.40103 0.57937 0.0
H2704 H 0.75836 0.98462 0.58613 0.0
H2705 H 0.71155 0.92732 0.61691 0.0
H2706 H 0.70819 0.95809 0.57536 0.0
H2707 H 0.66118 0.90049 0.606 0.0
H2708 H 0.57271 0.89251 0.58692 0.0
H2709 H 0.62282 0.91568 0.59776 0.0
H2710 H 0.66973 0.90481 0.56714 0.0
H2711 H 0.61953 0.88178 0.55619 0.0
C2712 C 0.73738 0.96627 0.5906 0.0
C2713 C 0.73891 0.95813 0.6024 0.0
C2714 C 0.70869 0.9509 0.58438 0.0
C2715 C 0.68081 0.92718 0.58983 0.0
C2716 C 0.68229 0.91887 0.60161 0.0
C2717 C 0.71112 0.93412 0.60783 0.0
C2718 C 0.59368 0.89501 0.58248 0.0
C2719 C 0.59218 0.8854 0.57067 0.0
C2720 C 0.62232 0.90805 0.58873 0.0
C2721 C 0.65014 0.91198 0.58331 0.0
C2722 C 0.64867 0.90227 0.57151 0.0
C2723 C 0.61993 0.889 0.56526 0.0
H2724 H 0.59278 0.54877 0.7208 0.0
H2725 H 0.65053 0.55985 0.7515 0.0
H2726 H 0.56538 0.57156 0.7318 0.0
H2727 H 0.62337 0.58272 0.76238 0.0
H2728 H 0.54704 0.59522 0.78159 0.0
H2729 H 0.56976 0.56764 0.77065 0.0
H2730 H 0.58075 0.62524 0.73996 0.0
H2731 H 0.55798 0.65255 0.75077 0.0
C2732 C 0.59955 0.55595 0.72989 0.0
C2733 C 0.62389 0.55263 0.73526 0.0
C2734 C 0.58395 0.56908 0.73616 0.0
C2735 C 0.59223 0.57886 0.74794 0.0
C2736 C 0.61621 0.57505 0.75336 0.0
C2737 C 0.63194 0.56218 0.74708 0.0
C2738 C 0.55417 0.60185 0.77249 0.0
C2739 C 0.55083 0.62613 0.76707 0.0
C2740 C 0.56726 0.58616 0.76625 0.0
C2741 C 0.57696 0.59428 0.75445 0.0
C2742 C 0.57313 0.6182 0.74899 0.0
C2743 C 0.56033 0.63402 0.75524 0.0
H2744 H 0.43662 0.09179 0.74969 0.0
H2745 H 0.45002 0.047 0.71889 0.0
H2746 H 0.41382 0.04137 0.76026 0.0
H2747 H 0.42727 0.99635 0.7296 0.0
H2748 H 0.3471 0.90642 0.74832 0.0
H2749 H 0.37369 0.95672 0.73758 0.0
H2750 H 0.43002 0.00384 0.76846 0.0
H2751 H 0.40319 0.95343 0.77931 0.0
C2752 C 0.43479 0.07119 0.74517 0.0
C2753 C 0.44505 0.07336 0.73343 0.0
C2754 C 0.42195 0.04237 0.75129 0.0
C2755 C 0.41887 0.01499 0.74577 0.0
C2756 C 0.4292 0.01709 0.73404 0.0
C2757 C 0.44231 0.04607 0.72793 0.0
C2758 C 0.36521 0.92746 0.75283 0.0
C2759 C 0.37296 0.92598 0.76469 0.0
C2760 C 0.3806 0.95622 0.74664 0.0
C2761 C 0.40393 0.98416 0.75218 0.0
C2762 C 0.41193 0.98267 0.764 0.0
C2763 C 0.39667 0.95382 0.77019 0.0
H2764 H 0.90552 0.35066 0.75233 0.0
H2765 H 0.95088 0.40596 0.72101 0.0
H2766 H 0.95613 0.37796 0.76278 0.0
H2767 H 0.0017 0.43361 0.7316 0.0
H2768 H 0.0906 0.44099 0.75009 0.0
H2769 H 0.04002 0.4184 0.73964 0.0
H2770 H 0.99558 0.43138 0.77059 0.0
H2771 H 0.04637 0.45385 0.78117 0.0
C2772 C 0.92627 0.36877 0.74767 0.0
C2773 C 0.92422 0.37604 0.7358 0.0
C2774 C 0.95522 0.3846 0.75372 0.0
C2775 C 0.98284 0.40794 0.74802 0.0
C2776 C 0.9808 0.41552 0.73618 0.0
C2777 C 0.95171 0.39979 0.73013 0.0
C2778 C 0.0701 0.43912 0.75469 0.0
C2779 C 0.07246 0.44908 0.76649 0.0
C2780 C 0.04118 0.42642 0.74865 0.0
C2781 C 0.01389 0.4232 0.75428 0.0
C2782 C 0.01623 0.43339 0.76606 0.0
C2783 C 0.04529 0.44633 0.7721 0.0
H2784 H 0.44251 0.35051 0.25369 0.0
H2785 H 0.44846 0.40445 0.22242 0.0
H2786 H 0.4185 0.37677 0.26446 0.0
H2787 H 0.42462 0.43099 0.23331 0.0
H2788 H 0.34346 0.43698 0.25256 0.0
H2789 H 0.37135 0.41461 0.24188 0.0
H2790 H 0.43145 0.43007 0.27222 0.0
H2791 H 0.40328 0.45233 0.28303 0.0
C2792 C 0.43884 0.3681 0.24912 0.0
C2793 C 0.44728 0.37531 0.23718 0.0
C2794 C 0.42531 0.38331 0.25534 0.0
C2795 C 0.4197 0.40594 0.24974 0.0
C2796 C 0.42843 0.41343 0.23782 0.0
C2797 C 0.4422 0.39835 0.23161 0.0
C2798 C 0.36265 0.43568 0.25698 0.0
C2799 C 0.3711 0.44636 0.26867 0.0
C2800 C 0.37879 0.42309 0.25081 0.0
C2801 C 0.40364 0.42067 0.25619 0.0
C2802 C 0.41223 0.43145 0.26787 0.0
C2803 C 0.39619 0.44429 0.27404 0.0
H2804 H 0.54356 0.95253 0.2797 0.0
H2805 H 0.55218 0.90611 0.24844 0.0
H2806 H 0.56671 0.00309 0.26896 0.0
H2807 H 0.57552 0.95651 0.23783 0.0
H2808 H 0.58949 0.04637 0.2192 0.0
H2809 H 0.5616 0.99585 0.22997 0.0
H2810 H 0.61974 0.04121 0.26067 0.0
H2811 H 0.64728 0.09155 0.25004 0.0
C2812 C 0.55031 0.95308 0.27055 0.0
C2813 C 0.54613 0.92535 0.26495 0.0
C2814 C 0.56365 0.98203 0.26442 0.0
C2815 C 0.57288 0.98372 0.25255 0.0
C2816 C 0.56827 0.95588 0.24691 0.0
C2817 C 0.55513 0.92705 0.25305 0.0
C2818 C 0.59617 0.04556 0.22827 0.0
C2819 C 0.62065 0.07293 0.23375 0.0
C2820 C 0.58031 0.01664 0.23441 0.0
C2821 C 0.58849 0.01461 0.24616 0.0
C2822 C 0.61263 0.04211 0.25168 0.0
C2823 C 0.62858 0.0709 0.24554 0.0
H2824 H 0.94963 0.5456 0.21971 0.0
H2825 H 0.90296 0.55718 0.25031 0.0
H2826 H -0.0002 0.56852 0.23069 0.0
H2827 H 0.95302 0.58025 0.26118 0.0
H2828 H 0.04156 0.59237 0.2805 0.0
H2829 H 0.99126 0.56528 0.26958 0.0
H2830 H 0.03848 0.62195 0.23877 0.0
H2831 H 0.08862 0.64875 0.24958 0.0
C2832 C 0.95004 0.55291 0.22877 0.0
C2833 C 0.92235 0.54965 0.23412 0.0
C2834 C 0.97877 0.56616 0.23504 0.0
C2835 C 0.98029 0.57615 0.2468 0.0
C2836 C 0.95249 0.57242 0.25218 0.0
C2837 C 0.92388 0.55942 0.24591 0.0
C2838 C 0.0412 0.59892 0.27139 0.0
C2839 C 0.06905 0.62274 0.26592 0.0
C2840 C 0.01241 0.58352 0.26515 0.0
C2841 C 0.01098 0.59148 0.25332 0.0
C2842 C 0.03892 0.61502 0.24783 0.0
C2843 C 0.0676 0.63054 0.25407 0.0
H2844 H 0.06522 0.16969 0.13878 0.0
H2845 H 0.03946 0.13166 0.10347 0.0
H2846 H 0.10529 0.1535 0.13957 0.0
H2847 H 0.07862 0.11409 0.10443 0.0
H2848 H 0.16165 0.09796 0.10654 0.0
H2849 H 0.13255 0.12674 0.10521 0.0
H2850 H 0.10464 0.10469 0.14178 0.0
H2851 H 0.13494 0.07712 0.14325 0.0
C2852 C 0.06829 0.15809 0.13114 0.0
C2853 C 0.04894 0.15171 0.1211 0.0
C2854 C 0.09113 0.14855 0.13163 0.0
C2855 C 0.09489 0.13197 0.12216 0.0
C2856 C 0.07665 0.12706 0.11187 0.0
C2857 C 0.05407 0.13704 0.11131 0.0
C2858 C 0.14976 0.09969 0.11437 0.0
C2859 C 0.15056 0.08509 0.125 0.0
C2860 C 0.13282 0.11601 0.11356 0.0
C2861 C 0.11593 0.11783 0.12334 0.0
C2862 C 0.1177 0.10421 0.1341 0.0
C2863 C 0.13498 0.08821 0.13494 0.0
H2864 H 0.91904 0.06236 0.10482 0.0
H2865 H 0.90419 0.0617 0.14247 0.0
H2866 H 0.89208 0.00478 0.10471 0.0
H2867 H 0.87534 0.00349 0.14225 0.0
H2868 H 0.87288 0.90773 0.14005 0.0
H2869 H 0.88882 0.96361 0.14061 0.0
H2870 H 0.84569 0.95512 0.10638 0.0
H2871 H 0.83112 0.89901 0.10555 0.0
C2872 C 0.90946 0.04993 0.11307 0.0
C2873 C 0.91431 0.06678 0.12371 0.0
C2874 C 0.89359 0.01668 0.11297 0.0
C2875 C 0.88165 -0.00073 0.12348 0.0
C2876 C 0.88487 0.01609 0.13402 0.0
C2877 C 0.90124 0.04949 0.13415 0.0
C2878 C 0.86653 0.91758 0.13264 0.0
C2879 C 0.85104 0.89888 0.12267 0.0
C2880 C 0.87542 0.94976 0.13303 0.0
C2881 C 0.86867 0.96412 0.12354 0.0
C2882 C 0.85185 0.94506 0.11377 0.0
C2883 C 0.84334 0.91283 0.1133 0.0
H2884 H 0.9369 0.8279 0.13818 0.0
H2885 H 0.93551 0.8662 0.10386 0.0
H2886 H 0.99507 0.85689 0.13776 0.0
H2887 H 0.99321 0.89637 0.10372 0.0
H2888 H 0.09004 0.9505 0.14114 0.0
H2889 H 0.03449 0.91007 0.14022 0.0
H2890 H 0.04324 0.89974 0.10271 0.0
H2891 H 0.09914 0.94192 0.10354 0.0
C2892 C 0.94897 0.84238 0.13054 0.0
C2893 C 0.93151 0.84504 0.12114 0.0
C2894 C 0.98235 0.85917 0.13031 0.0
C2895 C -0.001 0.87944 0.12078 0.0
C2896 C 0.98142 0.8808 0.11115 0.0
C2897 C 0.94813 0.86364 0.11129 0.0
C2898 C 0.08038 0.93955 0.13267 0.0
C2899 C 0.09909 0.94989 0.12237 0.0
C2900 C 0.04836 0.91592 0.13218 0.0
C2901 C 0.03413 0.90154 0.12139 0.0
C2902 C 0.05323 0.9107 0.11115 0.0
C2903 C 0.08534 0.93475 0.11162 0.0
H2904 H 0.06772 0.1318 0.3981 0.0
H2905 H 0.09779 0.16142 0.36213 0.0
H2906 H 0.09521 0.10159 0.39807 0.0
H2907 H 0.12684 0.13225 0.3623 0.0
H2908 H 0.15826 0.05896 0.39785 0.0
H2909 H 0.14305 0.10007 0.39795 0.0
H2910 H 0.11329 0.07847 0.36152 0.0
H2911 H 0.12977 0.03889 0.36125 0.0
C2912 C 0.08072 0.13239 0.39023 0.0
C2913 C 0.0801 0.1487 0.38004 0.0
C2914 C 0.09684 0.11523 0.39027 0.0
C2915 C 0.11315 0.11421 0.38016 0.0
C2916 C 0.11396 0.13192 0.37017 0.0
C2917 C 0.09744 0.14881 0.37008 0.0
C2918 C 0.14891 0.06337 0.38982 0.0
C2919 C 0.145 0.04537 0.37959 0.0
C2920 C 0.14001 0.08681 0.38989 0.0
C2921 C 0.12667 0.09251 0.37977 0.0
C2922 C 0.1239 0.07525 0.36944 0.0
C2923 C 0.13311 0.05217 0.36933 0.0
H2924 H 0.93181 0.09578 0.39774 0.0
H2925 H 0.95333 0.0924 0.36091 0.0
H2926 H 0.89098 0.03946 0.39689 0.0
H2927 H 0.91414 0.03629 0.36024 0.0
H2928 H 0.86124 0.93311 0.39529 0.0
H2929 H 0.89035 0.99075 0.39616 0.0
H2930 H 0.86105 0.99502 0.36047 0.0
H2931 H 0.83309 0.9369 0.35938 0.0
C2932 C 0.92775 0.08314 0.38946 0.0
C2933 C 0.94615 0.09861 0.37945 0.0
C2934 C 0.90448 0.05077 0.38898 0.0
C2935 C 0.89941 0.03308 0.37853 0.0
C2936 C 0.9169 0.04903 0.36841 0.0
C2937 C 0.93976 0.08135 0.36884 0.0
C2938 C 0.86072 0.94623 0.38763 0.0
C2939 C 0.84518 0.93031 0.37719 0.0
C2940 C 0.87724 0.97947 0.38818 0.0
C2941 C 0.8783 0.99775 0.37837 0.0
C2942 C 0.86134 0.98177 0.36812 0.0
C2943 C 0.84516 0.94842 0.3675 0.0
H2944 H 0.05934 0.89237 0.36092 0.0
H2945 H 0.05943 0.92311 0.39675 0.0
H2946 H 0.00117 0.86279 0.36109 0.0
H2947 H 0.00169 0.89516 0.39671 0.0
H2948 H 0.89581 0.83359 0.39613 0.0
H2949 H 0.95189 0.84782 0.39654 0.0
H2950 H 0.96154 0.87686 0.35998 0.0
H2951 H 0.90583 0.86134 0.3594 0.0
C2952 C 0.04699 0.89273 0.36884 0.0
C2953 C 0.06409 0.9105 0.37874 0.0
C2954 C 0.01361 0.87591 0.36893 0.0
C2955 C 0.99659 0.87691 0.37886 0.0
C2956 C 0.0138 0.89343 0.38895 0.0
C2957 C 0.0471 0.90981 0.38892 0.0
C2958 C 0.90984 0.84252 0.38814 0.0
C2959 C 0.8963 0.84657 0.37778 0.0
C2960 C 0.94205 0.85087 0.38838 0.0
C2961 C 0.96144 0.86373 0.37831 0.0
C2962 C 0.94743 0.86656 0.36786 0.0
C2963 C 0.91533 0.85793 0.36758 0.0
H2964 H 0.85701 0.9194 0.89714 0.0
H2965 H 0.84049 0.90455 0.85957 0.0
H2966 H 0.88782 0.89263 0.89673 0.0
H2967 H 0.87014 0.87597 0.85928 0.0
H2968 H 0.96375 0.87376 0.86048 0.0
H2969 H 0.92378 0.88971 0.86044 0.0
H2970 H 0.89084 0.84608 0.89471 0.0
H2971 H 0.93236 0.83144 0.895 0.0
C2972 C 0.8594 0.90987 0.8888 0.0
C2973 C 0.84665 0.91464 0.87833 0.0
C2974 C 0.8769 0.89412 0.8886 0.0
C2975 C 0.88178 0.88225 0.87796 0.0
C2976 C 0.8675 0.88543 0.8676 0.0
C2977 C 0.85032 0.90165 0.86776 0.0
C2978 C 0.94791 0.8673 0.868 0.0
C2979 C 0.95159 0.85162 0.87782 0.0
C2980 C 0.92462 0.8762 0.86792 0.0
C2981 C 0.90398 0.86931 0.87758 0.0
C2982 C 0.9067 0.85235 0.8872 0.0
C2983 C 0.9304 0.84379 0.88736 0.0
H2984 H 0.06931 0.93464 0.89637 0.0
H2985 H 0.10844 0.93759 0.86179 0.0
H2986 H 0.09722 0.99225 0.89698 0.0
H2987 H 0.13813 0.99574 0.86268 0.0
H2988 H 0.15712 0.09769 0.89811 0.0
H2989 H 0.14368 0.04186 0.89831 0.0
H2990 H 0.12536 0.03586 0.86077 0.0
H2991 H 0.14039 0.09143 0.86046 0.0
C2992 C 0.08446 0.94758 0.88898 0.0
C2993 C 0.08615 0.93143 0.87892 0.0
C2994 C 0.10084 0.98083 0.88939 0.0
C2995 C 0.11979 -0.00112 0.87984 0.0
C2996 C 0.12312 0.98267 0.87009 0.0
C2997 C 0.10625 0.94931 0.86959 0.0
C2998 C 0.15073 0.08452 0.88988 0.0
C2999 C 0.14948 0.09902 0.87931 0.0
C3000 C 0.14283 0.05244 0.89 0.0
C3001 C 0.13308 0.03409 0.87957 0.0
C3002 C 0.1332 0.04912 0.86895 0.0
C3003 C 0.14152 0.08114 0.86881 0.0
H3004 H 0.06207 0.16271 0.89513 0.0
H3005 H 0.05761 0.13177 0.85906 0.0
H3006 H 0.00422 0.13387 0.89618 0.0
H3007 H -0.00038 0.1016 0.86027 0.0
H3008 H 0.89478 0.06232 0.86272 0.0
H3009 H 0.95113 0.10204 0.86169 0.0
H3010 H 0.9633 0.08018 0.89766 0.0
H3011 H 0.90659 0.04148 0.89884 0.0
C3012 C 0.04875 0.14989 0.88738 0.0
C3013 C 0.06452 0.14942 0.87702 0.0
C3014 C 0.0155 0.13311 0.88802 0.0
C3015 C 0.99714 0.11504 0.87837 0.0
C3016 C 0.0129 0.11557 0.86784 0.0
C3017 C 0.04622 0.13275 0.86715 0.0
C3018 C 0.90934 0.0664 0.87049 0.0
C3019 C 0.89619 0.04855 0.88084 0.0
C3020 C 0.94177 0.08902 0.86986 0.0
C3021 C 0.96196 0.09406 0.87952 0.0
C3022 C 0.94849 0.07725 0.89007 0.0
C3023 C 0.91592 0.05491 0.89075 0.0
H3024 H 0.83992 0.93906 0.60485 0.0
H3025 H 0.85473 0.94678 0.64262 0.0
H3026 H 0.85538 0.89817 0.6042 0.0
H3027 H 0.87176 0.90771 0.64188 0.0
H3028 H 0.9318 0.86822 0.60561 0.0
H3029 H 0.90303 0.89715 0.60555 0.0
H3030 H 0.86107 0.85555 0.6393 0.0
H3031 H 0.89151 0.82778 0.63964 0.0
C3032 C 0.84627 0.93195 0.61302 0.0
C3033 C 0.84644 0.94656 0.62375 0.0
C3034 C 0.85537 0.90866 0.61264 0.0
C3035 C 0.86526 0.89981 0.62297 0.0
C3036 C 0.86394 0.91342 0.63376 0.0
C3037 C 0.85443 0.93625 0.63416 0.0
C3038 C 0.91627 0.86498 0.613 0.0
C3039 C 0.91436 0.84603 0.62272 0.0
C3040 C 0.89941 0.8814 0.61291 0.0
C3041 C 0.87975 0.87894 0.62245 0.0
C3042 C 0.87653 0.85862 0.63191 0.0
C3043 C 0.89386 0.84256 0.63209 0.0
H3044 H 0.15753 0.06188 0.64229 0.0
H3045 H 0.13875 0.05988 0.6049 0.0
H3046 H 0.12931 0.00363 0.64253 0.0
H3047 H 0.10937 0.00233 0.60526 0.0
H3048 H 0.0673 0.89756 0.60634 0.0
H3049 H 0.1083 0.95381 0.6069 0.0
H3050 H 0.07635 0.96214 0.64168 0.0
H3051 H 0.03693 0.90597 0.64138 0.0
C3052 C 0.14751 0.04909 0.63413 0.0
C3053 C 0.15016 0.06564 0.62362 0.0
C3054 C 0.13115 0.01566 0.63427 0.0
C3055 C 0.11673 0.9981 0.62393 0.0
C3056 C 0.1205 0.01481 0.61337 0.0
C3057 C 0.13716 0.04805 0.61319 0.0
C3058 C 0.06942 0.91134 0.61417 0.0
C3059 C 0.04855 0.8973 0.62374 0.0
C3060 C 0.0928 0.94367 0.61447 0.0
C3061 C 0.09548 0.96279 0.62428 0.0
C3062 C 0.07545 0.94828 0.63404 0.0
C3063 C 0.05249 0.91594 0.63381 0.0
H3064 H 0.10056 0.16338 0.63998 0.0
H3065 H 0.08776 0.13186 0.60369 0.0
H3066 H 0.04424 0.14666 0.64132 0.0
H3067 H 0.03106 0.11377 0.60518 0.0
H3068 H 0.93247 0.09781 0.60837 0.0
H3069 H 0.99029 0.12675 0.60711 0.0
H3070 H 0.9958 0.09762 0.6427 0.0
H3071 H 0.93785 0.06983 0.64413 0.0
C3072 C 0.08579 0.15312 0.63224 0.0
C3073 C 0.09866 0.14878 0.62174 0.0
C3074 C 0.05338 0.14326 0.63305 0.0
C3075 C 0.03293 0.12843 0.62343 0.0
C3076 C 0.0461 0.12541 0.61275 0.0
C3077 C 0.07865 0.13568 0.61189 0.0
C3078 C 0.94599 0.09797 0.616 0.0
C3079 C 0.93049 0.08133 0.62634 0.0
C3080 C 0.97922 0.11441 0.61524 0.0
C3081 C -0.00219 0.11425 0.62473 0.0
C3082 C 0.98233 0.09863 0.63524 0.0
C3083 C 0.94904 0.08253 0.63607 0.0
H3084 H 0.72871 0.5036 0.46841 0.0
H3085 H 0.7026 0.46352 0.43337 0.0
H3086 H 0.76907 0.48774 0.46942 0.0
H3087 H 0.742 0.44642 0.43456 0.0
H3088 H 0.82464 0.43017 0.43687 0.0
H3089 H 0.79582 0.45915 0.43532 0.0
H3090 H 0.76862 0.43902 0.47202 0.0
H3091 H 0.79874 0.41125 0.4737 0.0
C3092 C 0.73182 0.49171 0.46086 0.0
C3093 C 0.71222 0.48459 0.45084 0.0
C3094 C 0.7548 0.48235 0.46148 0.0
C3095 C 0.7585 0.46529 0.45217 0.0
C3096 C 0.74011 0.45977 0.44188 0.0
C3097 C 0.71737 0.46951 0.44119 0.0
C3098 C 0.81296 0.43234 0.44468 0.0
C3099 C 0.81391 0.41822 0.45541 0.0
C3100 C 0.7962 0.4488 0.44375 0.0
C3101 C 0.77956 0.45121 0.45349 0.0
C3102 C 0.78148 0.43808 0.46435 0.0
C3103 C 0.79863 0.42194 0.46532 0.0
H3104 H 0.49861 0.22578 0.43661 0.0
H3105 H 0.54567 0.23848 0.47025 0.0
H3106 H 0.51301 0.28196 0.43686 0.0
H3107 H 0.56131 0.29424 0.47021 0.0
H3108 H 0.58256 0.39033 0.43433 0.0
H3109 H 0.55801 0.33278 0.43444 0.0
H3110 H 0.54559 0.33221 0.47225 0.0
H3111 H 0.57214 0.39017 0.47222 0.0
C3112 C 0.51202 0.24051 0.44403 0.0
C3113 C 0.521 0.2276 0.45338 0.0
C3114 C 0.52042 0.27274 0.44416 0.0
C3115 C 0.53834 0.29278 0.45357 0.0
C3116 C 0.54689 0.27958 0.46295 0.0
C3117 C 0.53815 0.24746 0.4629 0.0
C3118 C 0.57446 0.37801 0.44268 0.0
C3119 C 0.57978 0.39505 0.45331 0.0
C3120 C 0.56001 0.3448 0.44272 0.0
C3121 C 0.55002 0.32768 0.45337 0.0
C3122 C 0.55371 0.34461 0.46391 0.0
C3123 C 0.56871 0.37791 0.4639 0.0
H3124 H 0.76565 0.27135 0.43551 0.0
H3125 H 0.75481 0.2859 0.47249 0.0
H3126 H 0.71069 0.22704 0.43508 0.0
H3127 H 0.70009 0.24329 0.47191 0.0
H3128 H 0.60471 0.1584 0.47107 0.0
H3129 H 0.66283 0.18908 0.47061 0.0
H3130 H 0.65941 0.22061 0.4352 0.0
H3131 H 0.60185 0.18869 0.43541 0.0
C3132 C 0.75164 0.26509 0.44354 0.0
C3133 C 0.76462 0.28244 0.45399 0.0
C3134 C 0.72008 0.23978 0.44329 0.0
C3135 C 0.70074 0.23156 0.45345 0.0
C3136 C 0.71422 0.24833 0.46396 0.0
C3137 C 0.74572 0.27321 0.46425 0.0
C3138 C 0.61644 0.17139 0.46311 0.0
C3139 C 0.59855 0.17148 0.45337 0.0
C3140 C 0.64979 0.18919 0.46286 0.0
C3141 C 0.66595 0.20791 0.45295 0.0
C3142 C 0.64802 0.20637 0.44296 0.0
C3143 C 0.61478 0.1882 0.44313 0.0
H3144 H 0.75563 0.48778 0.69214 0.0
H3145 H 0.743 0.47646 0.72995 0.0
H3146 H 0.78442 0.45835 0.6925 0.0
H3147 H 0.76985 0.44573 0.73022 0.0
H3148 H 0.78729 0.36548 0.69535 0.0
H3149 H 0.77106 0.40518 0.6946 0.0
H3150 H 0.81598 0.4421 0.72841 0.0
H3151 H 0.83085 0.40078 0.72945 0.0
C3152 C 0.75905 0.47912 0.70052 0.0
C3153 C 0.74662 0.48417 0.71098 0.0
C3154 C 0.77538 0.46205 0.70073 0.0
C3155 C 0.77917 0.44921 0.71137 0.0
C3156 C 0.76788 0.45551 0.72187 0.0
C3157 C 0.75207 0.47295 0.72169 0.0
C3158 C 0.79396 0.38213 0.70263 0.0
C3159 C 0.81009 0.37966 0.71254 0.0
C3160 C 0.78489 0.40527 0.70212 0.0
C3161 C 0.79211 0.42699 0.71144 0.0
C3162 C 0.80946 0.4254 0.72116 0.0
C3163 C 0.81814 0.40182 0.72175 0.0
H3164 H 0.52654 0.27375 0.69234 0.0
H3165 H 0.50247 0.26759 0.72935 0.0
H3166 H 0.55618 0.33162 0.69378 0.0
H3167 H 0.53093 0.32546 0.73067 0.0
H3168 H 0.6235 0.42425 0.73163 0.0
H3169 H 0.58476 0.36737 0.73093 0.0
H3170 H 0.55449 0.37923 0.69632 0.0
H3171 H 0.59411 0.43566 0.69684 0.0
C3172 C 0.52694 0.28472 0.70072 0.0
C3173 C 0.51229 0.26595 0.71074 0.0
C3174 C 0.54383 0.318 0.70155 0.0
C3175 C 0.54612 0.33331 0.71238 0.0
C3176 C 0.5302 0.31452 0.72225 0.0
C3177 C 0.51364 0.28126 0.72146 0.0
C3178 C 0.60817 0.41479 0.72398 0.0
C3179 C 0.61218 0.43438 0.71423 0.0
C3180 C 0.58584 0.38215 0.72357 0.0
C3181 C 0.56676 0.36854 0.71348 0.0
C3182 C 0.56934 0.38868 0.7041 0.0
C3183 C 0.59192 0.42114 0.70444 0.0
H3184 H 0.72734 0.26117 0.73169 0.0
H3185 H 0.72643 0.22331 0.69703 0.0
H3186 H 0.66966 0.23319 0.73182 0.0
H3187 H 0.66826 0.19364 0.69745 0.0
H3188 H 0.5639 0.17309 0.73181 0.0
H3189 H 0.6197 0.18643 0.73257 0.0
H3190 H 0.62891 0.20763 0.69522 0.0
H3191 H 0.57345 0.19288 0.69435 0.0
C3192 C 0.71484 0.24628 0.72418 0.0
C3193 C 0.73158 0.24502 0.71423 0.0
C3194 C 0.68156 0.22988 0.72432 0.0
C3195 C 0.66412 0.21136 0.71459 0.0
C3196 C 0.6809 0.20833 0.70498 0.0
C3197 C 0.71427 0.22519 0.70475 0.0
C3198 C 0.57778 0.18011 0.72375 0.0
C3199 C 0.56421 0.18222 0.71307 0.0
C3200 C 0.60982 0.18793 0.72418 0.0
C3201 C 0.62901 0.19837 0.71397 0.0
C3202 C 0.61494 0.1992 0.70324 0.0
C3203 C 0.58299 0.19105 0.70278 0.0
H3204 H 0.62056 0.19835 0.19299 0.0
H3205 H 0.60013 0.16949 0.22952 0.0
H3206 H 0.58148 0.21547 0.1933 0.0
H3207 H 0.55926 0.18499 0.22965 0.0
H3208 H 0.5286 0.26054 0.2305 0.0
H3209 H 0.55801 0.23237 0.23014 0.0
H3210 H 0.52882 0.20433 0.19398 0.0
H3211 H 0.50064 0.2344 0.19415 0.0
C3212 C 0.60725 0.19502 0.20105 0.0
C3213 C 0.61392 0.18299 0.2113 0.0
C3214 C 0.58443 0.20459 0.20119 0.0
C3215 C 0.5672 0.2019 0.21152 0.0
C3216 C 0.57258 0.18814 0.2216 0.0
C3217 C 0.59588 0.17905 0.22152 0.0
C3218 C 0.52818 0.24824 0.22247 0.0
C3219 C 0.5126 0.25019 0.21228 0.0
C3220 C 0.54487 0.23167 0.22231 0.0
C3221 C 0.54605 0.21608 0.21202 0.0
C3222 C 0.52906 0.21662 0.202 0.0
C3223 C 0.51272 0.23371 0.2021 0.0
H3224 H 0.74402 0.27131 0.19173 0.0
H3225 H 0.75924 0.26625 0.22907 0.0
H3226 H 0.77237 0.32929 0.19292 0.0
H3227 H 0.7887 0.32411 0.23015 0.0
H3228 H 0.79387 0.42232 0.23019 0.0
H3229 H 0.77603 0.36552 0.22973 0.0
H3230 H 0.8215 0.37727 0.1958 0.0
H3231 H 0.8382 0.43373 0.19608 0.0
C3232 C 0.75404 0.28254 0.20013 0.0
C3233 C 0.74908 0.26407 0.21031 0.0
C3234 C 0.77048 0.31586 0.20082 0.0
C3235 C 0.78266 0.33146 0.21167 0.0
C3236 C 0.7791 0.31294 0.22171 0.0
C3237 C 0.76237 0.27968 0.22105 0.0
C3238 C 0.80056 0.41288 0.22275 0.0
C3239 C 0.81711 0.43246 0.21312 0.0
C3240 C 0.79041 0.38028 0.22248 0.0
C3241 C 0.79696 0.36667 0.21264 0.0
C3242 C 0.81534 0.38675 0.20337 0.0
C3243 C 0.82513 0.41921 0.20358 0.0
H3244 H 0.73012 0.50186 0.2256 0.0
H3245 H 0.72619 0.45942 0.19164 0.0
H3246 H 0.67222 0.47334 0.22651 0.0
H3247 H 0.66811 0.42982 0.19275 0.0
H3248 H 0.56318 0.39263 0.19416 0.0
H3249 H 0.61975 0.43126 0.1926 0.0
H3250 H 0.63121 0.42001 0.22982 0.0
H3251 H 0.57432 0.38231 0.23147 0.0
C3252 C 0.71689 0.48656 0.21829 0.0
C3253 C 0.73281 0.48275 0.20858 0.0
C3254 C 0.68363 0.47001 0.21885 0.0
C3255 C 0.66541 0.44894 0.20979 0.0
C3256 C 0.68132 0.44612 0.19984 0.0
C3257 C 0.71466 0.463 0.19921 0.0
C3258 C 0.57762 0.3988 0.20207 0.0
C3259 C 0.56418 0.38419 0.21294 0.0
C3260 C 0.61018 0.42079 0.20114 0.0
C3261 C 0.6302 0.4285 0.21103 0.0
C3262 C 0.6165 0.41495 0.22202 0.0
C3263 C 0.58382 0.39319 0.22298 0.0
H3264 H 0.56002 0.16659 0.97405 0.0
H3265 H 0.59178 0.19531 0.93817 0.0
H3266 H 0.53054 0.19526 0.97324 0.0
H3267 H 0.56392 0.22517 0.93757 0.0
H3268 H 0.50153 0.26875 0.93695 0.0
H3269 H 0.51641 0.22735 0.9372 0.0
H3270 H 0.5443 0.24892 0.9738 0.0
H3271 H 0.52816 0.28866 0.97372 0.0
C3272 C 0.56065 0.17891 0.96599 0.0
C3273 C 0.57862 0.17897 0.95625 0.0
C3274 C 0.54388 0.19551 0.96553 0.0
C3275 C 0.54515 0.21297 0.95539 0.0
C3276 C 0.56197 0.21176 0.94548 0.0
C3277 C 0.5783 0.19481 0.94588 0.0
C3278 C 0.51037 0.26424 0.94509 0.0
C3279 C 0.51387 0.28228 0.95527 0.0
C3280 C 0.51909 0.24063 0.94522 0.0
C3281 C 0.53178 0.23482 0.95551 0.0
C3282 C 0.53415 0.25217 0.96577 0.0
C3283 C 0.52515 0.27538 0.96567 0.0
H3284 H 0.82982 0.39408 0.97289 0.0
H3285 H 0.79995 0.39405 0.93693 0.0
H3286 H 0.80137 0.33589 0.97272 0.0
H3287 H 0.77033 0.33634 0.93696 0.0
H3288 H 0.72652 0.23062 0.93749 0.0
H3289 H 0.76823 0.28673 0.9372 0.0
H3290 H 0.74769 0.29605 0.97365 0.0
H3291 H 0.70762 0.24027 0.97411 0.0
C3292 C 0.81732 0.38171 0.96494 0.0
C3293 C 0.81683 0.39878 0.95499 0.0
C3294 C 0.80085 0.34832 0.96485 0.0
C3295 C 0.78311 0.33128 0.95488 0.0
C3296 C 0.78396 0.34847 0.94476 0.0
C3297 C 0.80077 0.38175 0.94479 0.0
C3298 C 0.73133 0.24459 0.94548 0.0
C3299 C 0.71345 0.23093 0.95577 0.0
C3300 C 0.75512 0.27682 0.9453 0.0
C3301 C 0.76127 0.29611 0.95538 0.0
C3302 C 0.74415 0.282 0.96577 0.0
C3303 C 0.72076 0.24988 0.96599 0.0
H3304 H 0.76234 0.49363 0.93607 0.0
H3305 H 0.75516 0.46533 0.97266 0.0
H3306 H 0.70627 0.47943 0.93639 0.0
H3307 H 0.69942 0.44983 0.9728 0.0
H3308 H 0.59882 0.4047 0.93707 0.0
H3309 H 0.65648 0.43228 0.93654 0.0
H3310 H 0.65981 0.46405 0.97245 0.0
H3311 H 0.60165 0.43479 0.97319 0.0
C3312 C 0.74891 0.48452 0.94418 0.0
C3313 C 0.76325 0.48037 0.95429 0.0
C3314 C 0.71672 0.47622 0.94436 0.0
C3315 C 0.69813 0.46327 0.95461 0.0
C3316 C 0.71291 0.46022 0.9648 0.0
C3317 C 0.74501 0.46884 0.96467 0.0
C3318 C 0.61174 0.41777 0.94485 0.0
C3319 C 0.59552 0.41702 0.95526 0.0
C3320 C 0.645 0.43395 0.94449 0.0
C3321 C 0.66298 0.45022 0.95448 0.0
C3322 C 0.64675 0.45114 0.96467 0.0
C3323 C 0.61338 0.43451 0.96509 0.0
H3324 H 0.40088 0.83748 0.80479 0.0
H3325 H 0.377 0.80149 0.76915 0.0
H3326 H 0.44078 0.82105 0.80567 0.0
H3327 H 0.41588 0.78367 0.7702 0.0
H3328 H 0.49787 0.76639 0.77246 0.0
H3329 H 0.4695 0.79589 0.77124 0.0
H3330 H 0.44006 0.77217 0.80761 0.0
H3331 H 0.46973 0.74392 0.80898 0.0
C3332 C 0.40434 0.8263 0.79709 0.0
C3333 C 0.38555 0.82056 0.78693 0.0
C3334 C 0.42707 0.81662 0.79764 0.0
C3335 C 0.43127 0.80053 0.7881 0.0
C3336 C 0.4136 0.79626 0.7777 0.0
C3337 C 0.39115 0.80639 0.77709 0.0
C3338 C 0.48581 0.76791 0.78027 0.0
C3339 C 0.48596 0.75262 0.79081 0.0
C3340 C 0.46929 0.78465 0.77953 0.0
C3341 C 0.45213 0.78618 0.78927 0.0
C3342 C 0.45333 0.77193 0.79996 0.0
C3343 C 0.47024 0.75553 0.80074 0.0
H3344 H 0.24132 0.73065 0.80828 0.0
H3345 H 0.25621 0.73038 0.77066 0.0
H3346 H 0.21232 0.67241 0.80824 0.0
H3347 H 0.22906 0.6728 0.77073 0.0
H3348 H 0.16707 0.56712 0.77188 0.0
H3349 H 0.18223 0.62341 0.77253 0.0
H3350 H 0.22561 0.63228 0.80673 0.0
H3351 H 0.20914 0.57627 0.80635 0.0
C3352 C 0.23836 0.71823 0.80001 0.0
C3353 C 0.25146 0.73526 0.78952 0.0
C3354 C 0.22189 0.68483 0.79998 0.0
C3355 C 0.21859 0.66776 0.78949 0.0
C3356 C 0.23063 0.68491 0.77895 0.0
C3357 C 0.24661 0.71815 0.77894 0.0
C3358 C 0.17949 0.58107 0.77959 0.0
C3359 C 0.18709 0.56719 0.789 0.0
C3360 C 0.18833 0.61339 0.77995 0.0
C3361 C 0.20537 0.63259 0.78966 0.0
C3362 C 0.21206 0.61832 0.7992 0.0
C3363 C 0.20285 0.58607 0.79891 0.0
H3364 H 0.42397 0.61868 0.80696 0.0
H3365 H 0.43276 0.60735 0.76953 0.0
H3366 H 0.36854 0.57788 0.80631 0.0
H3367 H 0.377 0.56477 0.76899 0.0
H3368 H 0.26914 0.53068 0.77011 0.0
H3369 H 0.3268 0.56086 0.76979 0.0
H3370 H 0.32942 0.52447 0.80439 0.0
H3371 H 0.27126 0.49553 0.80498 0.0
C3372 C 0.41426 0.60705 0.79859 0.0
C3373 C 0.43284 0.61671 0.78825 0.0
C3374 C 0.38232 0.5832 0.79825 0.0
C3375 C 0.36805 0.56789 0.78759 0.0
C3376 C 0.38702 0.57643 0.77733 0.0
C3377 C 0.41904 0.60073 0.77763 0.0
C3378 C 0.28191 0.52878 0.77763 0.0
C3379 C 0.2655 0.51114 0.78769 0.0
C3380 C 0.31518 0.54594 0.77739 0.0
C3381 C 0.33296 0.54552 0.78712 0.0
C3382 C 0.31653 0.52605 0.79685 0.0
C3383 C 0.28316 0.50927 0.79718 0.0
H3384 H 0.40036 0.79904 0.06375 0.0
H3385 H 0.43054 0.82989 0.02789 0.0
H3386 H 0.42905 0.77007 0.06368 0.0
H3387 H 0.46087 0.80197 0.02802 0.0
H3388 H 0.49343 0.72964 0.06378 0.0
H3389 H 0.47752 0.77018 0.06373 0.0
H3390 H 0.44953 0.74895 0.02712 0.0
H3391 H 0.46687 0.71 0.027 0.0
C3392 C 0.41362 0.80016 0.05589 0.0
C3393 C 0.41274 0.81648 0.04575 0.0
C3394 C 0.43046 0.78373 0.05591 0.0
C3395 C 0.44728 0.78348 0.04583 0.0
C3396 C 0.44767 0.80109 0.03587 0.0
C3397 C 0.43041 0.81724 0.0358 0.0
C3398 C 0.48438 0.73405 0.05567 0.0
C3399 C 0.4811 0.71624 0.04545 0.0
C3400 C 0.47504 0.75716 0.05566 0.0
C3401 C 0.46181 0.76265 0.04546 0.0
C3402 C 0.45995 0.74581 0.03511 0.0
C3403 C 0.46966 0.7231 0.03508 0.0
H3404 H 0.16593 0.60286 0.02673 0.0
H3405 H 0.19511 0.60132 0.06268 0.0
H3406 H 0.19346 0.66105 0.0274 0.0
H3407 H 0.22375 0.65894 0.06314 0.0
H3408 H 0.26421 0.76359 0.06417 0.0
H3409 H 0.22357 0.70719 0.06357 0.0
H3410 H 0.24636 0.70285 0.02696 0.0
H3411 H 0.28536 0.75907 0.02737 0.0
C3412 C 0.17814 0.61488 0.03477 0.0
C3413 C 0.17856 0.59738 0.04459 0.0
C3414 C 0.19406 0.64826 0.03515 0.0
C3415 C 0.21112 0.66486 0.0453 0.0
C3416 C 0.21051 0.64718 0.05524 0.0
C3417 C 0.19428 0.61394 0.05491 0.0
C3418 C 0.2601 0.75067 0.05594 0.0
C3419 C 0.27838 0.76583 0.04587 0.0
C3420 C 0.23694 0.71827 0.05561 0.0
C3421 C 0.23188 0.70023 0.04525 0.0
C3422 C 0.24916 0.71587 0.03506 0.0
C3423 C 0.27191 0.74824 0.03534 0.0
H3424 H 0.39357 0.56432 0.02685 0.0
H3425 H 0.39333 0.59366 0.06287 0.0
H3426 H 0.33537 0.53393 0.02708 0.0
H3427 H 0.33566 0.56493 0.0629 0.0
H3428 H 0.23781 0.52864 0.02629 0.0
H3429 H 0.29399 0.54563 0.02636 0.0
H3430 H 0.28709 0.51669 0.06285 0.0
H3431 H 0.23072 0.50113 0.06296 0.0
C3432 C 0.38115 0.56425 0.03482 0.0
C3433 C 0.39816 0.58173 0.04479 0.0
C3434 C 0.34776 0.54695 0.03494 0.0
C3435 C 0.33065 0.54714 0.04498 0.0
C3436 C 0.34782 0.5637 0.05507 0.0
C3437 C 0.38109 0.58055 0.055 0.0
C3438 C 0.24806 0.52556 0.03434 0.0
C3439 C 0.22975 0.51396 0.04469 0.0
C3440 C 0.28042 0.53506 0.03433 0.0
C3441 C 0.29533 0.53282 0.04463 0.0
C3442 C 0.27659 0.51944 0.05482 0.0
C3443 C 0.24419 0.51031 0.05487 0.0
H3444 H 0.16948 0.56314 0.52667 0.0
H3445 H 0.19149 0.58686 0.56355 0.0
H3446 H 0.19925 0.53472 0.52704 0.0
H3447 H 0.22236 0.56007 0.56376 0.0
H3448 H 0.26768 0.49942 0.56338 0.0
H3449 H 0.22554 0.51319 0.56294 0.0
H3450 H 0.25348 0.54978 0.5275 0.0
H3451 H 0.29417 0.53476 0.52773 0.0
C3452 C 0.18047 0.56215 0.53486 0.0
C3453 C 0.17839 0.57767 0.54502 0.0
C3454 C 0.19773 0.54603 0.53507 0.0
C3455 C 0.21365 0.54542 0.54539 0.0
C3456 C 0.2102 0.55963 0.55568 0.0
C3457 C 0.19266 0.57535 0.55552 0.0
C3458 C 0.26449 0.51001 0.55545 0.0
C3459 C 0.28454 0.51622 0.54564 0.0
C3460 C 0.24043 0.51806 0.55521 0.0
C3461 C 0.23615 0.53283 0.54521 0.0
C3462 C 0.25557 0.53799 0.53528 0.0
C3463 C 0.27927 0.52963 0.53547 0.0
H3464 H 0.40409 0.60117 0.56481 0.0
H3465 H 0.44129 0.60404 0.52987 0.0
H3466 H 0.43261 0.65887 0.56549 0.0
H3467 H 0.47143 0.66216 0.53079 0.0
H3468 H 0.49457 0.7642 0.56667 0.0
H3469 H 0.48019 0.7081 0.56659 0.0
H3470 H 0.45869 0.70264 0.52933 0.0
H3471 H 0.47449 0.75847 0.52928 0.0
C3472 C 0.41891 0.61411 0.55735 0.0
C3473 C 0.41993 0.59794 0.54719 0.0
C3474 C 0.43562 0.64737 0.55779 0.0
C3475 C 0.45419 0.66536 0.54816 0.0
C3476 C 0.45677 0.64912 0.53828 0.0
C3477 C 0.43962 0.61577 0.53775 0.0
C3478 C 0.48732 0.7511 0.55843 0.0
C3479 C 0.48535 0.76582 0.54802 0.0
C3480 C 0.47886 0.71887 0.55839 0.0
C3481 C 0.46793 0.70062 0.54798 0.0
C3482 C 0.4674 0.71585 0.53749 0.0
C3483 C 0.4762 0.748 0.5375 0.0
H3484 H 0.39537 0.82691 0.52864 0.0
H3485 H 0.39524 0.7986 0.56484 0.0
H3486 H 0.33717 0.79802 0.52873 0.0
H3487 H 0.33755 0.76856 0.56473 0.0
H3488 H 0.24079 0.70509 0.52778 0.0
H3489 H 0.29684 0.7445 0.5281 0.0
H3490 H 0.28827 0.76697 0.56438 0.0
H3491 H 0.23193 0.72593 0.56424 0.0
C3492 C 0.38297 0.8146 0.53662 0.0
C3493 C 0.40001 0.81479 0.54668 0.0
C3494 C 0.34958 0.79788 0.53666 0.0
C3495 C 0.33252 0.78059 0.5467 0.0
C3496 C 0.34968 0.78189 0.55689 0.0
C3497 C 0.38295 0.79894 0.5569 0.0
C3498 C 0.25064 0.71852 0.53584 0.0
C3499 C 0.23183 0.71197 0.54605 0.0
C3500 C 0.28292 0.74151 0.53597 0.0
C3501 C 0.2973 0.75898 0.54627 0.0
C3502 C 0.27815 0.75355 0.55634 0.0
C3503 C 0.24579 0.73015 0.55626 0.0
H3504 H 0.23005 0.49883 0.27394 0.0
H3505 H 0.2539 0.52838 0.31027 0.0
H3506 H 0.2004 0.52707 0.27274 0.0
H3507 H 0.22552 0.5579 0.30892 0.0
H3508 H 0.15978 0.59657 0.30632 0.0
H3509 H 0.17661 0.55698 0.30725 0.0
H3510 H 0.21197 0.58039 0.27148 0.0
H3511 H 0.19367 0.61891 0.27039 0.0
C3512 C 0.22882 0.51118 0.28171 0.0
C3513 C 0.24451 0.51143 0.2922 0.0
C3514 C 0.21198 0.52763 0.28099 0.0
C3515 C 0.21077 0.54511 0.29068 0.0
C3516 C 0.22549 0.54436 0.30131 0.0
C3517 C 0.24197 0.52754 0.30208 0.0
C3518 C 0.1706 0.59285 0.29858 0.0
C3519 C 0.17561 0.61111 0.28831 0.0
C3520 C 0.18052 0.5703 0.29914 0.0
C3521 C 0.19617 0.56577 0.28952 0.0
C3522 C 0.19973 0.58292 0.27904 0.0
C3523 C 0.18934 0.60517 0.27842 0.0
H3524 H 0.45952 0.72805 0.27044 0.0
H3525 H 0.49933 0.72849 0.30464 0.0
H3526 H 0.43034 0.67035 0.27051 0.0
H3527 H 0.47131 0.6703 0.30443 0.0
H3528 H 0.3794 0.57374 0.30803 0.0
H3529 H 0.41872 0.62967 0.30704 0.0
H3530 H 0.42865 0.62118 0.26949 0.0
H3531 H 0.38754 0.56491 0.27038 0.0
C3532 C 0.46258 0.71583 0.27789 0.0
C3533 C 0.48138 0.73295 0.28764 0.0
C3534 C 0.44602 0.68255 0.27787 0.0
C3535 C 0.44816 0.66546 0.28751 0.0
C3536 C 0.46846 0.68263 0.29697 0.0
C3537 C 0.48468 0.71601 0.29707 0.0
C3538 C 0.39004 0.58356 0.29954 0.0
C3539 C 0.37985 0.5648 0.28924 0.0
C3540 C 0.41302 0.61579 0.299 0.0
C3541 C 0.4269 0.6302 0.28818 0.0
C3542 C 0.41801 0.61106 0.27795 0.0
C3543 C 0.39458 0.57873 0.27846 0.0
H3544 H 0.42138 0.79506 0.30701 0.0
H3545 H 0.42708 0.83177 0.27177 0.0
H3546 H 0.36505 0.77742 0.30771 0.0
H3547 H 0.37062 0.81564 0.27273 0.0
H3548 H 0.26485 0.75761 0.30903 0.0
H3549 H 0.32309 0.78808 0.3088 0.0
H3550 H 0.3224 0.76775 0.2716 0.0
H3551 H 0.26483 0.73915 0.2717 0.0
C3552 C 0.41077 0.8 0.29947 0.0
C3553 C 0.42872 0.8144 0.28924 0.0
C3554 C 0.37833 0.79012 0.29994 0.0
C3555 C 0.36301 0.7948 0.29025 0.0
C3556 C 0.38141 0.81093 0.28026 0.0
C3557 C 0.41385 0.82038 0.27972 0.0
C3558 C 0.27721 0.76006 0.30079 0.0
C3559 C 0.26011 0.74563 0.29043 0.0
C3560 C 0.31063 0.7774 0.30065 0.0
C3561 C 0.32764 0.78026 0.29019 0.0
C3562 C 0.31036 0.76666 0.27978 0.0
C3563 C 0.27711 0.74982 0.27988 0.0
loop_
_geom_bond_atom_site_label_1
_geom_bond_atom_site_label_2
_geom_bond_distance
_geom_bond_site_symmetry_2
_ccdc_geom_bond_type
Co0 O2 2.143 . S
Co0 O8 2.074 . S
Co0 O11 2.093 . S
Co0 O24 2.097 . S
Co0 N41 2.151 . S
Co0 N49 2.214 . S
Co1 O2 2.160 . S
Co1 O7 2.058 1_545 S
Co1 O17 2.057 . S
Co1 O32 2.037 . S
Co1 N36 2.145 . S
Co1 N57 2.257 . S
O2 Co0 2.143 . S
O2 Co1 2.160 . S
C3 O4 1.278 . S
C3 O11 1.224 . S
O4 C3 1.278 . S
C5 O6 1.245 . S
C5 O17 1.232 . S
O6 C5 1.245 . S
O7 Co1 2.058 1_565 S
O7 C33 1.269 . S
O8 Co0 2.074 . S
O8 C33 1.257 1_545 S
H9 C34 0.930 . S
H10 C40 0.930 . S
O11 Co0 2.093 . S
O11 C3 1.224 . S
H12 C44 0.929 . S
H13 C46 0.930 . S
H14 C47 0.930 . S
H15 C45 0.929 . S
H16 C48 0.928 . S
O17 Co1 2.057 . S
O17 C5 1.232 . S
H18 C37 0.929 . S
H19 C38 0.929 . S
H20 C50 0.931 . S
H21 C42 0.929 . S
H22 C51 0.930 . S
H23 C43 0.931 . S
O24 Co0 2.097 . S
O24 C52 1.214 . S
H25 C53 0.929 . S
H26 C54 0.929 . S
H27 C55 0.930 . S
H28 C56 0.929 . S
H29 C58 0.930 . S
H30 C35 0.930 . S
H31 C39 0.930 . S
O32 Co1 2.037 . S
O32 C52 1.234 . S
C33 O7 1.269 . S
C33 O8 1.257 1_565 S
C34 H9 0.930 . S
C34 C37 1.388 . S
C34 C39 1.418 . S
C35 H30 0.930 . S
C35 C38 1.404 . S
C35 C39 1.353 . S
N36 Co1 2.145 . S
N36 C37 1.397 . S
N36 C38 1.334 . S
C37 H18 0.929 . S
C37 C34 1.388 . S
C37 N36 1.397 . S
C38 H19 0.929 . S
C38 C35 1.404 . S
C38 N36 1.334 . S
C39 H31 0.930 . S
C39 C34 1.418 . S
C39 C35 1.353 . S
C40 H10 0.930 . S
C40 N41 1.330 . S
C40 C42 1.446 1_545 S
N41 Co0 2.151 . S
N41 C40 1.330 . S
N41 C45 1.418 1_545 S
C42 H21 0.929 . S
C42 C40 1.446 1_565 S
C42 C43 1.332 . S
C43 H23 0.931 . S
C43 C42 1.332 . S
C43 C44 1.267 . S
C44 H12 0.929 . S
C44 C43 1.267 . S
C44 C45 1.251 . S
C45 H15 0.929 . S
C45 N41 1.418 1_565 S
C45 C44 1.251 . S
C46 H13 0.930 . S
C46 C48 1.406 . S
C46 C51 1.261 . S
C47 H14 0.930 . S
C47 N49 1.325 . S
C47 C50 1.357 . S
C48 H16 0.928 . S
C48 C46 1.406 . S
C48 N49 1.261 . S
N49 Co0 2.214 . S
N49 C47 1.325 . S
N49 C48 1.261 . S
C50 H20 0.931 . S
C50 C47 1.357 . S
C50 C51 1.312 . S
C51 H22 0.930 . S
C51 C46 1.261 . S
C51 C50 1.312 . S
C52 O24 1.214 . S
C52 O32 1.234 . S
C53 H25 0.929 . S
C53 C56 1.391 . S
C53 C58 1.391 . S
C54 H26 0.929 . S
C54 C55 1.390 . S
C54 N57 1.391 . S
C55 H27 0.930 . S
C55 C54 1.390 . S
C55 C56 1.392 . S
C56 H28 0.929 . S
C56 C53 1.391 . S
C56 C55 1.392 . S
N57 Co1 2.257 . S
N57 C54 1.391 . S
N57 C58 1.388 . S
C58 H29 0.930 . S
C58 C53 1.391 . S
C58 N57 1.388 . S
Co59 O61 2.143 . S
Co59 O67 2.074 . S
Co59 O70 2.093 . S
Co59 O83 2.097 . S
Co59 N100 2.151 . S
Co59 N108 2.214 . S
Co60 O61 2.160 . S
Co60 O66 2.058 1_655 S
Co60 O76 2.057 . S
Co60 O91 2.037 . S
Co60 N95 2.145 . S
Co60 N116 2.257 . S
O61 Co59 2.143 . S
O61 Co60 2.160 . S
C62 O63 1.278 . S
C62 O70 1.224 . S
O63 C62 1.278 . S
C64 O65 1.245 . S
C64 O76 1.232 . S
O65 C64 1.245 . S
O66 Co60 2.058 1_455 S
O66 C92 1.269 . S
O67 Co59 2.074 . S
O67 C92 1.257 1_655 S
H68 C93 0.930 . S
H69 C99 0.930 . S
O70 Co59 2.093 . S
O70 C62 1.224 . S
H71 C103 0.929 . S
H72 C105 0.930 . S
H73 C106 0.930 . S
H74 C104 0.929 . S
H75 C107 0.928 . S
O76 Co60 2.057 . S
O76 C64 1.232 . S
H77 C96 0.929 . S
H78 C97 0.929 . S
H79 C109 0.931 . S
H80 C101 0.929 . S
H81 C110 0.930 . S
H82 C102 0.931 . S
O83 Co59 2.097 . S
O83 C111 1.214 . S
H84 C112 0.929 . S
H85 C113 0.929 . S
H86 C114 0.930 . S
H87 C115 0.929 . S
H88 C117 0.930 . S
H89 C94 0.930 . S
H90 C98 0.930 . S
O91 Co60 2.037 . S
O91 C111 1.234 . S
C92 O66 1.269 . S
C92 O67 1.257 1_455 S
C93 H68 0.930 . S
C93 C96 1.388 . S
C93 C98 1.418 . S
C94 H89 0.930 . S
C94 C97 1.404 . S
C94 C98 1.353 . S
N95 Co60 2.145 . S
N95 C96 1.397 . S
N95 C97 1.334 . S
C96 H77 0.929 . S
C96 C93 1.388 . S
C96 N95 1.397 . S
C97 H78 0.929 . S
C97 C94 1.404 . S
C97 N95 1.334 . S
C98 H90 0.930 . S
C98 C93 1.418 . S
C98 C94 1.353 . S
C99 H69 0.930 . S
C99 N100 1.330 . S
C99 C101 1.446 1_655 S
N100 Co59 2.151 . S
N100 C99 1.330 . S
N100 C104 1.418 1_655 S
C101 H80 0.929 . S
C101 C99 1.446 1_455 S
C101 C102 1.332 . S
C102 H82 0.931 . S
C102 C101 1.332 . S
C102 C103 1.267 . S
C103 H71 0.929 . S
C103 C102 1.267 . S
C103 C104 1.251 . S
C104 H74 0.929 . S
C104 N100 1.418 1_455 S
C104 C103 1.251 . S
C105 H72 0.930 . S
C105 C107 1.406 . S
C105 C110 1.261 . S
C106 H73 0.930 . S
C106 N108 1.325 . S
C106 C109 1.357 . S
C107 H75 0.928 . S
C107 C105 1.406 . S
C107 N108 1.261 . S
N108 Co59 2.214 . S
N108 C106 1.325 . S
N108 C107 1.261 . S
C109 H79 0.931 . S
C109 C106 1.357 . S
C109 C110 1.312 . S
C110 H81 0.930 . S
C110 C105 1.261 . S
C110 C109 1.312 . S
C111 O83 1.214 . S
C111 O91 1.234 . S
C112 H84 0.929 . S
C112 C115 1.391 . S
C112 C117 1.391 . S
C113 H85 0.929 . S
C113 C114 1.390 . S
C113 N116 1.391 . S
C114 H86 0.930 . S
C114 C113 1.390 . S
C114 C115 1.392 . S
C115 H87 0.929 . S
C115 C112 1.391 . S
C115 C114 1.392 . S
N116 Co60 2.257 . S
N116 C113 1.391 . S
N116 C117 1.388 . S
C117 H88 0.930 . S
C117 C112 1.391 . S
C117 N116 1.388 . S
Co118 O120 2.143 . S
Co118 O126 2.074 . S
Co118 O129 2.093 . S
Co118 O142 2.097 . S
Co118 N159 2.151 . S
Co118 N167 2.214 . S
Co119 O120 2.160 . S
Co119 O125 2.058 . S
Co119 O135 2.057 . S
Co119 O150 2.037 . S
Co119 N154 2.145 . S
Co119 N175 2.257 . S
O120 Co118 2.143 . S
O120 Co119 2.160 . S
C121 O122 1.278 . S
C121 O129 1.224 . S
O122 C121 1.278 . S
C123 O124 1.245 . S
C123 O135 1.232 . S
O124 C123 1.245 . S
O125 Co119 2.058 . S
O125 C151 1.269 . S
O126 Co118 2.074 . S
O126 C151 1.257 . S
H127 C152 0.930 . S
H128 C158 0.930 . S
O129 Co118 2.093 . S
O129 C121 1.224 . S
H130 C162 0.929 . S
H131 C164 0.930 . S
H132 C165 0.930 . S
H133 C163 0.929 . S
H134 C166 0.928 . S
O135 Co119 2.057 . S
O135 C123 1.232 . S
H136 C155 0.929 . S
H137 C156 0.929 . S
H138 C168 0.931 . S
H139 C160 0.929 . S
H140 C169 0.930 . S
H141 C161 0.931 . S
O142 Co118 2.097 . S
O142 C170 1.214 . S
H143 C171 0.929 . S
H144 C172 0.929 . S
H145 C173 0.930 . S
H146 C174 0.929 . S
H147 C176 0.930 . S
H148 C153 0.930 . S
H149 C157 0.930 . S
O150 Co119 2.037 . S
O150 C170 1.234 . S
C151 O125 1.269 . S
C151 O126 1.257 . S
C152 H127 0.930 . S
C152 C155 1.388 . S
C152 C157 1.418 . S
C153 H148 0.930 . S
C153 C156 1.404 . S
C153 C157 1.353 . S
N154 Co119 2.145 . S
N154 C155 1.397 . S
N154 C156 1.334 . S
C155 H136 0.929 . S
C155 C152 1.388 . S
C155 N154 1.397 . S
C156 H137 0.929 . S
C156 C153 1.404 . S
C156 N154 1.334 . S
C157 H149 0.930 . S
C157 C152 1.418 . S
C157 C153 1.353 . S
C158 H128 0.930 . S
C158 N159 1.330 . S
C158 C160 1.446 . S
N159 Co118 2.151 . S
N159 C158 1.330 . S
N159 C163 1.418 . S
C160 H139 0.929 . S
C160 C158 1.446 . S
C160 C161 1.332 . S
C161 H141 0.931 . S
C161 C160 1.332 . S
C161 C162 1.267 . S
C162 H130 0.929 . S
C162 C161 1.267 . S
C162 C163 1.251 . S
C163 H133 0.929 . S
C163 N159 1.418 . S
C163 C162 1.251 . S
C164 H131 0.930 . S
C164 C166 1.406 . S
C164 C169 1.261 . S
C165 H132 0.930 . S
C165 N167 1.325 . S
C165 C168 1.357 . S
C166 H134 0.928 . S
C166 C164 1.406 . S
C166 N167 1.261 . S
N167 Co118 2.214 . S
N167 C165 1.325 . S
N167 C166 1.261 . S
C168 H138 0.931 . S
C168 C165 1.357 . S
C168 C169 1.312 . S
C169 H140 0.930 . S
C169 C164 1.261 . S
C169 C168 1.312 . S
C170 O142 1.214 . S
C170 O150 1.234 . S
C171 H143 0.929 . S
C171 C174 1.391 . S
C171 C176 1.391 . S
C172 H144 0.929 . S
C172 C173 1.390 . S
C172 N175 1.391 . S
C173 H145 0.930 . S
C173 C172 1.390 . S
C173 C174 1.392 . S
C174 H146 0.929 . S
C174 C171 1.391 . S
C174 C173 1.392 . S
N175 Co119 2.257 . S
N175 C172 1.391 . S
N175 C176 1.388 . S
C176 H147 0.930 . S
C176 C171 1.391 . S
C176 N175 1.388 . S
Co177 O179 2.143 . S
Co177 O185 2.074 . S
Co177 O188 2.093 . S
Co177 O201 2.097 . S
Co177 N218 2.151 . S
Co177 N226 2.214 . S
Co178 O179 2.160 . S
Co178 O184 2.058 1_455 S
Co178 O194 2.057 . S
Co178 O209 2.037 . S
Co178 N213 2.145 . S
Co178 N234 2.257 . S
O179 Co177 2.143 . S
O179 Co178 2.160 . S
C180 O181 1.278 . S
C180 O188 1.224 . S
O181 C180 1.278 . S
C182 O183 1.245 . S
C182 O194 1.232 . S
O183 C182 1.245 . S
O184 Co178 2.058 1_655 S
O184 C210 1.269 . S
O185 Co177 2.074 . S
O185 C210 1.257 1_455 S
H186 C211 0.930 . S
H187 C217 0.930 . S
O188 Co177 2.093 . S
O188 C180 1.224 . S
H189 C221 0.929 . S
H190 C223 0.930 . S
H191 C224 0.930 . S
H192 C222 0.929 . S
H193 C225 0.928 . S
O194 Co178 2.057 . S
O194 C182 1.232 . S
H195 C214 0.929 . S
H196 C215 0.929 . S
H197 C227 0.931 . S
H198 C219 0.929 . S
H199 C228 0.930 . S
H200 C220 0.931 . S
O201 Co177 2.097 . S
O201 C229 1.214 . S
H202 C230 0.929 . S
H203 C231 0.929 . S
H204 C232 0.930 . S
H205 C233 0.929 . S
H206 C235 0.930 . S
H207 C212 0.930 . S
H208 C216 0.930 . S
O209 Co178 2.037 . S
O209 C229 1.234 . S
C210 O184 1.269 . S
C210 O185 1.257 1_655 S
C211 H186 0.930 . S
C211 C214 1.388 . S
C211 C216 1.418 . S
C212 H207 0.930 . S
C212 C215 1.404 . S
C212 C216 1.353 . S
N213 Co178 2.145 . S
N213 C214 1.397 . S
N213 C215 1.334 . S
C214 H195 0.929 . S
C214 C211 1.388 . S
C214 N213 1.397 . S
C215 H196 0.929 . S
C215 C212 1.404 . S
C215 N213 1.334 . S
C216 H208 0.930 . S
C216 C211 1.418 . S
C216 C212 1.353 . S
C217 H187 0.930 . S
C217 N218 1.330 . S
C217 C219 1.446 1_455 S
N218 Co177 2.151 . S
N218 C217 1.330 . S
N218 C222 1.418 1_455 S
C219 H198 0.929 . S
C219 C217 1.446 1_655 S
C219 C220 1.332 . S
C220 H200 0.931 . S
C220 C219 1.332 . S
C220 C221 1.267 . S
C221 H189 0.929 . S
C221 C220 1.267 . S
C221 C222 1.251 . S
C222 H192 0.929 . S
C222 N218 1.418 1_655 S
C222 C221 1.251 . S
C223 H190 0.930 . S
C223 C225 1.406 . S
C223 C228 1.261 . S
C224 H191 0.930 . S
C224 N226 1.325 . S
C224 C227 1.357 . S
C225 H193 0.928 . S
C225 C223 1.406 . S
C225 N226 1.261 . S
N226 Co177 2.214 . S
N226 C224 1.325 . S
N226 C225 1.261 . S
C227 H197 0.931 . S
C227 C224 1.357 . S
C227 C228 1.312 . S
C228 H199 0.930 . S
C228 C223 1.261 . S
C228 C227 1.312 . S
C229 O201 1.214 . S
C229 O209 1.234 . S
C230 H202 0.929 . S
C230 C233 1.391 . S
C230 C235 1.391 . S
C231 H203 0.929 . S
C231 C232 1.390 . S
C231 N234 1.391 . S
C232 H204 0.930 . S
C232 C231 1.390 . S
C232 C233 1.392 . S
C233 H205 0.929 . S
C233 C230 1.391 . S
C233 C232 1.392 . S
N234 Co178 2.257 . S
N234 C231 1.391 . S
N234 C235 1.388 . S
C235 H206 0.930 . S
C235 C230 1.391 . S
C235 N234 1.388 . S
Co236 O238 2.143 . S
Co236 O244 2.074 . S
Co236 O247 2.093 . S
Co236 O260 2.097 . S
Co236 N277 2.151 . S
Co236 N285 2.214 . S
Co237 O238 2.160 . S
Co237 O243 2.058 . S
Co237 O253 2.057 . S
Co237 O268 2.037 . S
Co237 N272 2.145 . S
Co237 N293 2.257 . S
O238 Co236 2.143 . S
O238 Co237 2.160 . S
C239 O240 1.278 . S
C239 O247 1.224 . S
O240 C239 1.278 . S
C241 O242 1.245 . S
C241 O253 1.232 . S
O242 C241 1.245 . S
O243 Co237 2.058 . S
O243 C269 1.269 . S
O244 Co236 2.074 . S
O244 C269 1.257 . S
H245 C270 0.930 . S
H246 C276 0.930 . S
O247 Co236 2.093 . S
O247 C239 1.224 . S
H248 C280 0.929 . S
H249 C282 0.930 . S
H250 C283 0.930 . S
H251 C281 0.929 . S
H252 C284 0.928 . S
O253 Co237 2.057 . S
O253 C241 1.232 . S
H254 C273 0.929 . S
H255 C274 0.929 . S
H256 C286 0.931 . S
H257 C278 0.929 . S
H258 C287 0.930 . S
H259 C279 0.931 . S
O260 Co236 2.097 . S
O260 C288 1.214 . S
H261 C289 0.929 . S
H262 C290 0.929 . S
H263 C291 0.930 . S
H264 C292 0.929 . S
H265 C294 0.930 . S
H266 C271 0.930 . S
H267 C275 0.930 . S
O268 Co237 2.037 . S
O268 C288 1.234 . S
C269 O243 1.269 . S
C269 O244 1.257 . S
C270 H245 0.930 . S
C270 C273 1.388 . S
C270 C275 1.418 . S
C271 H266 0.930 . S
C271 C274 1.404 . S
C271 C275 1.353 . S
N272 Co237 2.145 . S
N272 C273 1.397 . S
N272 C274 1.334 . S
C273 H254 0.929 . S
C273 C270 1.388 . S
C273 N272 1.397 . S
C274 H255 0.929 . S
C274 C271 1.404 . S
C274 N272 1.334 . S
C275 H267 0.930 . S
C275 C270 1.418 . S
C275 C271 1.353 . S
C276 H246 0.930 . S
C276 N277 1.330 . S
C276 C278 1.446 . S
N277 Co236 2.151 . S
N277 C276 1.330 . S
N277 C281 1.418 . S
C278 H257 0.929 . S
C278 C276 1.446 . S
C278 C279 1.332 . S
C279 H259 0.931 . S
C279 C278 1.332 . S
C279 C280 1.267 . S
C280 H248 0.929 . S
C280 C279 1.267 . S
C280 C281 1.251 . S
C281 H251 0.929 . S
C281 N277 1.418 . S
C281 C280 1.251 . S
C282 H249 0.930 . S
C282 C284 1.406 . S
C282 C287 1.261 . S
C283 H250 0.930 . S
C283 N285 1.325 . S
C283 C286 1.357 . S
C284 H252 0.928 . S
C284 C282 1.406 . S
C284 N285 1.261 . S
N285 Co236 2.214 . S
N285 C283 1.325 . S
N285 C284 1.261 . S
C286 H256 0.931 . S
C286 C283 1.357 . S
C286 C287 1.312 . S
C287 H258 0.930 . S
C287 C282 1.261 . S
C287 C286 1.312 . S
C288 O260 1.214 . S
C288 O268 1.234 . S
C289 H261 0.929 . S
C289 C292 1.391 . S
C289 C294 1.391 . S
C290 H262 0.929 . S
C290 C291 1.390 . S
C290 N293 1.391 . S
C291 H263 0.930 . S
C291 C290 1.390 . S
C291 C292 1.392 . S
C292 H264 0.929 . S
C292 C289 1.391 . S
C292 C291 1.392 . S
N293 Co237 2.257 . S
N293 C290 1.391 . S
N293 C294 1.388 . S
C294 H265 0.930 . S
C294 C289 1.391 . S
C294 N293 1.388 . S
Co295 O297 2.143 . S
Co295 O303 2.074 . S
Co295 O306 2.093 . S
Co295 O319 2.097 . S
Co295 N336 2.151 . S
Co295 N344 2.214 . S
Co296 O297 2.160 . S
Co296 O302 2.058 1_565 S
Co296 O312 2.057 . S
Co296 O327 2.037 . S
Co296 N331 2.145 . S
Co296 N352 2.257 . S
O297 Co295 2.143 . S
O297 Co296 2.160 . S
C298 O299 1.278 . S
C298 O306 1.224 . S
O299 C298 1.278 . S
C300 O301 1.245 . S
C300 O312 1.232 . S
O301 C300 1.245 . S
O302 Co296 2.058 1_545 S
O302 C328 1.269 . S
O303 Co295 2.074 . S
O303 C328 1.257 1_565 S
H304 C329 0.930 . S
H305 C335 0.930 . S
O306 Co295 2.093 . S
O306 C298 1.224 . S
H307 C339 0.929 . S
H308 C341 0.930 . S
H309 C342 0.930 . S
H310 C340 0.929 . S
H311 C343 0.928 . S
O312 Co296 2.057 . S
O312 C300 1.232 . S
H313 C332 0.929 . S
H314 C333 0.929 . S
H315 C345 0.931 . S
H316 C337 0.929 . S
H317 C346 0.930 . S
H318 C338 0.931 . S
O319 Co295 2.097 . S
O319 C347 1.214 . S
H320 C348 0.929 . S
H321 C349 0.929 . S
H322 C350 0.930 . S
H323 C351 0.929 . S
H324 C353 0.930 . S
H325 C330 0.930 . S
H326 C334 0.930 . S
O327 Co296 2.037 . S
O327 C347 1.234 . S
C328 O302 1.269 . S
C328 O303 1.257 1_545 S
C329 H304 0.930 . S
C329 C332 1.388 . S
C329 C334 1.418 . S
C330 H325 0.930 . S
C330 C333 1.404 . S
C330 C334 1.353 . S
N331 Co296 2.145 . S
N331 C332 1.397 . S
N331 C333 1.334 . S
C332 H313 0.929 . S
C332 C329 1.388 . S
C332 N331 1.397 . S
C333 H314 0.929 . S
C333 C330 1.404 . S
C333 N331 1.334 . S
C334 H326 0.930 . S
C334 C329 1.418 . S
C334 C330 1.353 . S
C335 H305 0.930 . S
C335 N336 1.330 . S
C335 C337 1.446 1_565 S
N336 Co295 2.151 . S
N336 C335 1.330 . S
N336 C340 1.418 1_565 S
C337 H316 0.929 . S
C337 C335 1.446 1_545 S
C337 C338 1.332 . S
C338 H318 0.931 . S
C338 C337 1.332 . S
C338 C339 1.267 . S
C339 H307 0.929 . S
C339 C338 1.267 . S
C339 C340 1.251 . S
C340 H310 0.929 . S
C340 N336 1.418 1_545 S
C340 C339 1.251 . S
C341 H308 0.930 . S
C341 C343 1.406 . S
C341 C346 1.261 . S
C342 H309 0.930 . S
C342 N344 1.325 . S
C342 C345 1.357 . S
C343 H311 0.928 . S
C343 C341 1.406 . S
C343 N344 1.261 . S
N344 Co295 2.214 . S
N344 C342 1.325 . S
N344 C343 1.261 . S
C345 H315 0.931 . S
C345 C342 1.357 . S
C345 C346 1.312 . S
C346 H317 0.930 . S
C346 C341 1.261 . S
C346 C345 1.312 . S
C347 O319 1.214 . S
C347 O327 1.234 . S
C348 H320 0.929 . S
C348 C351 1.391 . S
C348 C353 1.391 . S
C349 H321 0.929 . S
C349 C350 1.390 . S
C349 N352 1.391 . S
C350 H322 0.930 . S
C350 C349 1.390 . S
C350 C351 1.392 . S
C351 H323 0.929 . S
C351 C348 1.391 . S
C351 C350 1.392 . S
N352 Co296 2.257 . S
N352 C349 1.391 . S
N352 C353 1.388 . S
C353 H324 0.930 . S
C353 C348 1.391 . S
C353 N352 1.388 . S
Co354 O356 2.143 . S
Co354 O362 2.074 . S
Co354 O365 2.093 . S
Co354 O378 2.097 . S
Co354 N395 2.151 . S
Co354 N403 2.214 . S
Co355 O356 2.160 . S
Co355 O361 2.058 1_565 S
Co355 O371 2.057 . S
Co355 O386 2.037 . S
Co355 N390 2.145 . S
Co355 N411 2.257 . S
O356 Co354 2.143 . S
O356 Co355 2.160 . S
C357 O358 1.278 . S
C357 O365 1.224 . S
O358 C357 1.278 . S
C359 O360 1.245 . S
C359 O371 1.232 . S
O360 C359 1.245 . S
O361 Co355 2.058 1_545 S
O361 C387 1.269 . S
O362 Co354 2.074 . S
O362 C387 1.257 1_565 S
H363 C388 0.930 . S
H364 C394 0.930 . S
O365 Co354 2.093 . S
O365 C357 1.224 . S
H366 C398 0.929 . S
H367 C400 0.930 . S
H368 C401 0.930 . S
H369 C399 0.929 . S
H370 C402 0.928 . S
O371 Co355 2.057 . S
O371 C359 1.232 . S
H372 C391 0.929 . S
H373 C392 0.929 . S
H374 C404 0.931 . S
H375 C396 0.929 . S
H376 C405 0.930 . S
H377 C397 0.931 . S
O378 Co354 2.097 . S
O378 C406 1.214 . S
H379 C407 0.929 . S
H380 C408 0.929 . S
H381 C409 0.930 . S
H382 C410 0.929 . S
H383 C412 0.930 . S
H384 C389 0.930 . S
H385 C393 0.930 . S
O386 Co355 2.037 . S
O386 C406 1.234 . S
C387 O361 1.269 . S
C387 O362 1.257 1_545 S
C388 H363 0.930 . S
C388 C391 1.388 . S
C388 C393 1.418 . S
C389 H384 0.930 . S
C389 C392 1.404 . S
C389 C393 1.353 . S
N390 Co355 2.145 . S
N390 C391 1.397 . S
N390 C392 1.334 . S
C391 H372 0.929 . S
C391 C388 1.388 . S
C391 N390 1.397 . S
C392 H373 0.929 . S
C392 C389 1.404 . S
C392 N390 1.334 . S
C393 H385 0.930 . S
C393 C388 1.418 . S
C393 C389 1.353 . S
C394 H364 0.930 . S
C394 N395 1.330 . S
C394 C396 1.446 1_565 S
N395 Co354 2.151 . S
N395 C394 1.330 . S
N395 C399 1.418 1_565 S
C396 H375 0.929 . S
C396 C394 1.446 1_545 S
C396 C397 1.332 . S
C397 H377 0.931 . S
C397 C396 1.332 . S
C397 C398 1.267 . S
C398 H366 0.929 . S
C398 C397 1.267 . S
C398 C399 1.251 . S
C399 H369 0.929 . S
C399 N395 1.418 1_545 S
C399 C398 1.251 . S
C400 H367 0.930 . S
C400 C402 1.406 . S
C400 C405 1.261 . S
C401 H368 0.930 . S
C401 N403 1.325 . S
C401 C404 1.357 . S
C402 H370 0.928 . S
C402 C400 1.406 . S
C402 N403 1.261 . S
N403 Co354 2.214 . S
N403 C401 1.325 . S
N403 C402 1.261 . S
C404 H374 0.931 . S
C404 C401 1.357 . S
C404 C405 1.312 . S
C405 H376 0.930 . S
C405 C400 1.261 . S
C405 C404 1.312 . S
C406 O378 1.214 . S
C406 O386 1.234 . S
C407 H379 0.929 . S
C407 C410 1.391 . S
C407 C412 1.391 . S
C408 H380 0.929 . S
C408 C409 1.390 . S
C408 N411 1.391 . S
C409 H381 0.930 . S
C409 C408 1.390 . S
C409 C410 1.392 . S
C410 H382 0.929 . S
C410 C407 1.391 . S
C410 C409 1.392 . S
N411 Co355 2.257 . S
N411 C408 1.391 . S
N411 C412 1.388 . S
C412 H383 0.930 . S
C412 C407 1.391 . S
C412 N411 1.388 . S
Co413 O415 2.143 . S
Co413 O421 2.074 . S
Co413 O424 2.093 . S
Co413 O437 2.097 . S
Co413 N454 2.151 . S
Co413 N462 2.214 . S
Co414 O415 2.160 . S
Co414 O420 2.058 1_455 S
Co414 O430 2.057 . S
Co414 O445 2.037 . S
Co414 N449 2.145 . S
Co414 N470 2.257 . S
O415 Co413 2.143 . S
O415 Co414 2.160 . S
C416 O417 1.278 . S
C416 O424 1.224 . S
O417 C416 1.278 . S
C418 O419 1.245 . S
C418 O430 1.232 . S
O419 C418 1.245 . S
O420 Co414 2.058 1_655 S
O420 C446 1.269 . S
O421 Co413 2.074 . S
O421 C446 1.257 1_455 S
H422 C447 0.930 . S
H423 C453 0.930 . S
O424 Co413 2.093 . S
O424 C416 1.224 . S
H425 C457 0.929 . S
H426 C459 0.930 . S
H427 C460 0.930 . S
H428 C458 0.929 . S
H429 C461 0.928 . S
O430 Co414 2.057 . S
O430 C418 1.232 . S
H431 C450 0.929 . S
H432 C451 0.929 . S
H433 C463 0.931 . S
H434 C455 0.929 . S
H435 C464 0.930 . S
H436 C456 0.931 . S
O437 Co413 2.097 . S
O437 C465 1.214 . S
H438 C466 0.929 . S
H439 C467 0.929 . S
H440 C468 0.930 . S
H441 C469 0.929 . S
H442 C471 0.930 . S
H443 C448 0.930 . S
H444 C452 0.930 . S
O445 Co414 2.037 . S
O445 C465 1.234 . S
C446 O420 1.269 . S
C446 O421 1.257 1_655 S
C447 H422 0.930 . S
C447 C450 1.388 . S
C447 C452 1.418 . S
C448 H443 0.930 . S
C448 C451 1.404 . S
C448 C452 1.353 . S
N449 Co414 2.145 . S
N449 C450 1.397 . S
N449 C451 1.334 . S
C450 H431 0.929 . S
C450 C447 1.388 . S
C450 N449 1.397 . S
C451 H432 0.929 . S
C451 C448 1.404 . S
C451 N449 1.334 . S
C452 H444 0.930 . S
C452 C447 1.418 . S
C452 C448 1.353 . S
C453 H423 0.930 . S
C453 N454 1.330 . S
C453 C455 1.446 1_455 S
N454 Co413 2.151 . S
N454 C453 1.330 . S
N454 C458 1.418 1_455 S
C455 H434 0.929 . S
C455 C453 1.446 1_655 S
C455 C456 1.332 . S
C456 H436 0.931 . S
C456 C455 1.332 . S
C456 C457 1.267 . S
C457 H425 0.929 . S
C457 C456 1.267 . S
C457 C458 1.251 . S
C458 H428 0.929 . S
C458 N454 1.418 1_655 S
C458 C457 1.251 . S
C459 H426 0.930 . S
C459 C461 1.406 . S
C459 C464 1.261 . S
C460 H427 0.930 . S
C460 N462 1.325 . S
C460 C463 1.357 . S
C461 H429 0.928 . S
C461 C459 1.406 . S
C461 N462 1.261 . S
N462 Co413 2.214 . S
N462 C460 1.325 . S
N462 C461 1.261 . S
C463 H433 0.931 . S
C463 C460 1.357 . S
C463 C464 1.312 . S
C464 H435 0.930 . S
C464 C459 1.261 . S
C464 C463 1.312 . S
C465 O437 1.214 . S
C465 O445 1.234 . S
C466 H438 0.929 . S
C466 C469 1.391 . S
C466 C471 1.391 . S
C467 H439 0.929 . S
C467 C468 1.390 . S
C467 N470 1.391 . S
C468 H440 0.930 . S
C468 C467 1.390 . S
C468 C469 1.392 . S
C469 H441 0.929 . S
C469 C466 1.391 . S
C469 C468 1.392 . S
N470 Co414 2.257 . S
N470 C467 1.391 . S
N470 C471 1.388 . S
C471 H442 0.930 . S
C471 C466 1.391 . S
C471 N470 1.388 . S
Co472 O474 2.143 . S
Co472 O480 2.074 . S
Co472 O483 2.093 . S
Co472 O496 2.097 . S
Co472 N513 2.151 . S
Co472 N521 2.214 . S
Co473 O474 2.160 . S
Co473 O479 2.058 . S
Co473 O489 2.057 . S
Co473 O504 2.037 . S
Co473 N508 2.145 . S
Co473 N529 2.257 . S
O474 Co472 2.143 . S
O474 Co473 2.160 . S
C475 O476 1.278 . S
C475 O483 1.224 . S
O476 C475 1.278 . S
C477 O478 1.245 . S
C477 O489 1.232 . S
O478 C477 1.245 . S
O479 Co473 2.058 . S
O479 C505 1.269 . S
O480 Co472 2.074 . S
O480 C505 1.257 . S
H481 C506 0.930 . S
H482 C512 0.930 . S
O483 Co472 2.093 . S
O483 C475 1.224 . S
H484 C516 0.929 . S
H485 C518 0.930 . S
H486 C519 0.930 . S
H487 C517 0.929 . S
H488 C520 0.928 . S
O489 Co473 2.057 . S
O489 C477 1.232 . S
H490 C509 0.929 . S
H491 C510 0.929 . S
H492 C522 0.931 . S
H493 C514 0.929 . S
H494 C523 0.930 . S
H495 C515 0.931 . S
O496 Co472 2.097 . S
O496 C524 1.214 . S
H497 C525 0.929 . S
H498 C526 0.929 . S
H499 C527 0.930 . S
H500 C528 0.929 . S
H501 C530 0.930 . S
H502 C507 0.930 . S
H503 C511 0.930 . S
O504 Co473 2.037 . S
O504 C524 1.234 . S
C505 O479 1.269 . S
C505 O480 1.257 . S
C506 H481 0.930 . S
C506 C509 1.388 . S
C506 C511 1.418 . S
C507 H502 0.930 . S
C507 C510 1.404 . S
C507 C511 1.353 . S
N508 Co473 2.145 . S
N508 C509 1.397 . S
N508 C510 1.334 . S
C509 H490 0.929 . S
C509 C506 1.388 . S
C509 N508 1.397 . S
C510 H491 0.929 . S
C510 C507 1.404 . S
C510 N508 1.334 . S
C511 H503 0.930 . S
C511 C506 1.418 . S
C511 C507 1.353 . S
C512 H482 0.930 . S
C512 N513 1.330 . S
C512 C514 1.446 . S
N513 Co472 2.151 . S
N513 C512 1.330 . S
N513 C517 1.418 . S
C514 H493 0.929 . S
C514 C512 1.446 . S
C514 C515 1.332 . S
C515 H495 0.931 . S
C515 C514 1.332 . S
C515 C516 1.267 . S
C516 H484 0.929 . S
C516 C515 1.267 . S
C516 C517 1.251 . S
C517 H487 0.929 . S
C517 N513 1.418 . S
C517 C516 1.251 . S
C518 H485 0.930 . S
C518 C520 1.406 . S
C518 C523 1.261 . S
C519 H486 0.930 . S
C519 N521 1.325 . S
C519 C522 1.357 . S
C520 H488 0.928 . S
C520 C518 1.406 . S
C520 N521 1.261 . S
N521 Co472 2.214 . S
N521 C519 1.325 . S
N521 C520 1.261 . S
C522 H492 0.931 . S
C522 C519 1.357 . S
C522 C523 1.312 . S
C523 H494 0.930 . S
C523 C518 1.261 . S
C523 C522 1.312 . S
C524 O496 1.214 . S
C524 O504 1.234 . S
C525 H497 0.929 . S
C525 C528 1.391 . S
C525 C530 1.391 . S
C526 H498 0.929 . S
C526 C527 1.390 . S
C526 N529 1.391 . S
C527 H499 0.930 . S
C527 C526 1.390 . S
C527 C528 1.392 . S
C528 H500 0.929 . S
C528 C525 1.391 . S
C528 C527 1.392 . S
N529 Co473 2.257 . S
N529 C526 1.391 . S
N529 C530 1.388 . S
C530 H501 0.930 . S
C530 C525 1.391 . S
C530 N529 1.388 . S
Co531 O533 2.143 . S
Co531 O539 2.074 . S
Co531 O542 2.093 . S
Co531 O555 2.097 . S
Co531 N572 2.151 . S
Co531 N580 2.214 . S
Co532 O533 2.160 . S
Co532 O538 2.058 1_655 S
Co532 O548 2.057 . S
Co532 O563 2.037 . S
Co532 N567 2.145 . S
Co532 N588 2.257 . S
O533 Co531 2.143 . S
O533 Co532 2.160 . S
C534 O535 1.278 . S
C534 O542 1.224 . S
O535 C534 1.278 . S
C536 O537 1.245 . S
C536 O548 1.232 . S
O537 C536 1.245 . S
O538 Co532 2.058 1_455 S
O538 C564 1.269 . S
O539 Co531 2.074 . S
O539 C564 1.257 1_655 S
H540 C565 0.930 . S
H541 C571 0.930 . S
O542 Co531 2.093 . S
O542 C534 1.224 . S
H543 C575 0.929 . S
H544 C577 0.930 . S
H545 C578 0.930 . S
H546 C576 0.929 . S
H547 C579 0.928 . S
O548 Co532 2.057 . S
O548 C536 1.232 . S
H549 C568 0.929 . S
H550 C569 0.929 . S
H551 C581 0.931 . S
H552 C573 0.929 . S
H553 C582 0.930 . S
H554 C574 0.931 . S
O555 Co531 2.097 . S
O555 C583 1.214 . S
H556 C584 0.929 . S
H557 C585 0.929 . S
H558 C586 0.930 . S
H559 C587 0.929 . S
H560 C589 0.930 . S
H561 C566 0.930 . S
H562 C570 0.930 . S
O563 Co532 2.037 . S
O563 C583 1.234 . S
C564 O538 1.269 . S
C564 O539 1.257 1_455 S
C565 H540 0.930 . S
C565 C568 1.388 . S
C565 C570 1.418 . S
C566 H561 0.930 . S
C566 C569 1.404 . S
C566 C570 1.353 . S
N567 Co532 2.145 . S
N567 C568 1.397 . S
N567 C569 1.334 . S
C568 H549 0.929 . S
C568 C565 1.388 . S
C568 N567 1.397 . S
C569 H550 0.929 . S
C569 C566 1.404 . S
C569 N567 1.334 . S
C570 H562 0.930 . S
C570 C565 1.418 . S
C570 C566 1.353 . S
C571 H541 0.930 . S
C571 N572 1.330 . S
C571 C573 1.446 1_655 S
N572 Co531 2.151 . S
N572 C571 1.330 . S
N572 C576 1.418 1_655 S
C573 H552 0.929 . S
C573 C571 1.446 1_455 S
C573 C574 1.332 . S
C574 H554 0.931 . S
C574 C573 1.332 . S
C574 C575 1.267 . S
C575 H543 0.929 . S
C575 C574 1.267 . S
C575 C576 1.251 . S
C576 H546 0.929 . S
C576 N572 1.418 1_455 S
C576 C575 1.251 . S
C577 H544 0.930 . S
C577 C579 1.406 . S
C577 C582 1.261 . S
C578 H545 0.930 . S
C578 N580 1.325 . S
C578 C581 1.357 . S
C579 H547 0.928 . S
C579 C577 1.406 . S
C579 N580 1.261 . S
N580 Co531 2.214 . S
N580 C578 1.325 . S
N580 C579 1.261 . S
C581 H551 0.931 . S
C581 C578 1.357 . S
C581 C582 1.312 . S
C582 H553 0.930 . S
C582 C577 1.261 . S
C582 C581 1.312 . S
C583 O555 1.214 . S
C583 O563 1.234 . S
C584 H556 0.929 . S
C584 C587 1.391 . S
C584 C589 1.391 . S
C585 H557 0.929 . S
C585 C586 1.390 . S
C585 N588 1.391 . S
C586 H558 0.930 . S
C586 C585 1.390 . S
C586 C587 1.392 . S
C587 H559 0.929 . S
C587 C584 1.391 . S
C587 C586 1.392 . S
N588 Co532 2.257 . S
N588 C585 1.391 . S
N588 C589 1.388 . S
C589 H560 0.930 . S
C589 C584 1.391 . S
C589 N588 1.388 . S
Co590 O592 2.143 . S
Co590 O598 2.074 . S
Co590 O601 2.093 . S
Co590 O614 2.097 . S
Co590 N631 2.151 . S
Co590 N639 2.214 . S
Co591 O592 2.160 . S
Co591 O597 2.058 . S
Co591 O607 2.057 . S
Co591 O622 2.037 . S
Co591 N626 2.145 . S
Co591 N647 2.257 . S
O592 Co590 2.143 . S
O592 Co591 2.160 . S
C593 O594 1.278 . S
C593 O601 1.224 . S
O594 C593 1.278 . S
C595 O596 1.245 . S
C595 O607 1.232 . S
O596 C595 1.245 . S
O597 Co591 2.058 . S
O597 C623 1.269 . S
O598 Co590 2.074 . S
O598 C623 1.257 . S
H599 C624 0.930 . S
H600 C630 0.930 . S
O601 Co590 2.093 . S
O601 C593 1.224 . S
H602 C634 0.929 . S
H603 C636 0.930 . S
H604 C637 0.930 . S
H605 C635 0.929 . S
H606 C638 0.928 . S
O607 Co591 2.057 . S
O607 C595 1.232 . S
H608 C627 0.929 . S
H609 C628 0.929 . S
H610 C640 0.931 . S
H611 C632 0.929 . S
H612 C641 0.930 . S
H613 C633 0.931 . S
O614 Co590 2.097 . S
O614 C642 1.214 . S
H615 C643 0.929 . S
H616 C644 0.929 . S
H617 C645 0.930 . S
H618 C646 0.929 . S
H619 C648 0.930 . S
H620 C625 0.930 . S
H621 C629 0.930 . S
O622 Co591 2.037 . S
O622 C642 1.234 . S
C623 O597 1.269 . S
C623 O598 1.257 . S
C624 H599 0.930 . S
C624 C627 1.388 . S
C624 C629 1.418 . S
C625 H620 0.930 . S
C625 C628 1.404 . S
C625 C629 1.353 . S
N626 Co591 2.145 . S
N626 C627 1.397 . S
N626 C628 1.334 . S
C627 H608 0.929 . S
C627 C624 1.388 . S
C627 N626 1.397 . S
C628 H609 0.929 . S
C628 C625 1.404 . S
C628 N626 1.334 . S
C629 H621 0.930 . S
C629 C624 1.418 . S
C629 C625 1.353 . S
C630 H600 0.930 . S
C630 N631 1.330 . S
C630 C632 1.446 . S
N631 Co590 2.151 . S
N631 C630 1.330 . S
N631 C635 1.418 . S
C632 H611 0.929 . S
C632 C630 1.446 . S
C632 C633 1.332 . S
C633 H613 0.931 . S
C633 C632 1.332 . S
C633 C634 1.267 . S
C634 H602 0.929 . S
C634 C633 1.267 . S
C634 C635 1.251 . S
C635 H605 0.929 . S
C635 N631 1.418 . S
C635 C634 1.251 . S
C636 H603 0.930 . S
C636 C638 1.406 . S
C636 C641 1.261 . S
C637 H604 0.930 . S
C637 N639 1.325 . S
C637 C640 1.357 . S
C638 H606 0.928 . S
C638 C636 1.406 . S
C638 N639 1.261 . S
N639 Co590 2.214 . S
N639 C637 1.325 . S
N639 C638 1.261 . S
C640 H610 0.931 . S
C640 C637 1.357 . S
C640 C641 1.312 . S
C641 H612 0.930 . S
C641 C636 1.261 . S
C641 C640 1.312 . S
C642 O614 1.214 . S
C642 O622 1.234 . S
C643 H615 0.929 . S
C643 C646 1.391 . S
C643 C648 1.391 . S
C644 H616 0.929 . S
C644 C645 1.390 . S
C644 N647 1.391 . S
C645 H617 0.930 . S
C645 C644 1.390 . S
C645 C646 1.392 . S
C646 H618 0.929 . S
C646 C643 1.391 . S
C646 C645 1.392 . S
N647 Co591 2.257 . S
N647 C644 1.391 . S
N647 C648 1.388 . S
C648 H619 0.930 . S
C648 C643 1.391 . S
C648 N647 1.388 . S
Co649 O651 2.143 . S
Co649 O657 2.074 . S
Co649 O660 2.093 . S
Co649 O673 2.097 . S
Co649 N690 2.151 . S
Co649 N698 2.214 . S
Co650 O651 2.160 . S
Co650 O656 2.058 1_545 S
Co650 O666 2.057 . S
Co650 O681 2.037 . S
Co650 N685 2.145 . S
Co650 N706 2.257 . S
O651 Co649 2.143 . S
O651 Co650 2.160 . S
C652 O653 1.278 . S
C652 O660 1.224 . S
O653 C652 1.278 . S
C654 O655 1.245 . S
C654 O666 1.232 . S
O655 C654 1.245 . S
O656 Co650 2.058 1_565 S
O656 C682 1.269 . S
O657 Co649 2.074 . S
O657 C682 1.257 1_545 S
H658 C683 0.930 . S
H659 C689 0.930 . S
O660 Co649 2.093 . S
O660 C652 1.224 . S
H661 C693 0.929 . S
H662 C695 0.930 . S
H663 C696 0.930 . S
H664 C694 0.929 . S
H665 C697 0.928 . S
O666 Co650 2.057 . S
O666 C654 1.232 . S
H667 C686 0.929 . S
H668 C687 0.929 . S
H669 C699 0.931 . S
H670 C691 0.929 . S
H671 C700 0.930 . S
H672 C692 0.931 . S
O673 Co649 2.097 . S
O673 C701 1.214 . S
H674 C702 0.929 . S
H675 C703 0.929 . S
H676 C704 0.930 . S
H677 C705 0.929 . S
H678 C707 0.930 . S
H679 C684 0.930 . S
H680 C688 0.930 . S
O681 Co650 2.037 . S
O681 C701 1.234 . S
C682 O656 1.269 . S
C682 O657 1.257 1_565 S
C683 H658 0.930 . S
C683 C686 1.388 . S
C683 C688 1.418 . S
C684 H679 0.930 . S
C684 C687 1.404 . S
C684 C688 1.353 . S
N685 Co650 2.145 . S
N685 C686 1.397 . S
N685 C687 1.334 . S
C686 H667 0.929 . S
C686 C683 1.388 . S
C686 N685 1.397 . S
C687 H668 0.929 . S
C687 C684 1.404 . S
C687 N685 1.334 . S
C688 H680 0.930 . S
C688 C683 1.418 . S
C688 C684 1.353 . S
C689 H659 0.930 . S
C689 N690 1.330 . S
C689 C691 1.446 1_545 S
N690 Co649 2.151 . S
N690 C689 1.330 . S
N690 C694 1.418 1_545 S
C691 H670 0.929 . S
C691 C689 1.446 1_565 S
C691 C692 1.332 . S
C692 H672 0.931 . S
C692 C691 1.332 . S
C692 C693 1.267 . S
C693 H661 0.929 . S
C693 C692 1.267 . S
C693 C694 1.251 . S
C694 H664 0.929 . S
C694 N690 1.418 1_565 S
C694 C693 1.251 . S
C695 H662 0.930 . S
C695 C697 1.406 . S
C695 C700 1.261 . S
C696 H663 0.930 . S
C696 N698 1.325 . S
C696 C699 1.357 . S
C697 H665 0.928 . S
C697 C695 1.406 . S
C697 N698 1.261 . S
N698 Co649 2.214 . S
N698 C696 1.325 . S
N698 C697 1.261 . S
C699 H669 0.931 . S
C699 C696 1.357 . S
C699 C700 1.312 . S
C700 H671 0.930 . S
C700 C695 1.261 . S
C700 C699 1.312 . S
C701 O673 1.214 . S
C701 O681 1.234 . S
C702 H674 0.929 . S
C702 C705 1.391 . S
C702 C707 1.391 . S
C703 H675 0.929 . S
C703 C704 1.390 . S
C703 N706 1.391 . S
C704 H676 0.930 . S
C704 C703 1.390 . S
C704 C705 1.392 . S
C705 H677 0.929 . S
C705 C702 1.391 . S
C705 C704 1.392 . S
N706 Co650 2.257 . S
N706 C703 1.391 . S
N706 C707 1.388 . S
C707 H678 0.930 . S
C707 C702 1.391 . S
C707 N706 1.388 . S
Co708 O710 2.143 . S
Co708 O716 2.074 . S
Co708 O719 2.093 . S
Co708 O732 2.097 . S
Co708 N749 2.151 . S
Co708 N757 2.214 . S
Co709 O710 2.160 . S
Co709 O715 2.058 . S
Co709 O725 2.057 . S
Co709 O740 2.037 . S
Co709 N744 2.145 . S
Co709 N765 2.257 . S
O710 Co708 2.143 . S
O710 Co709 2.160 . S
C711 O712 1.278 . S
C711 O719 1.224 . S
O712 C711 1.278 . S
C713 O714 1.245 . S
C713 O725 1.232 . S
O714 C713 1.245 . S
O715 Co709 2.058 . S
O715 C741 1.269 . S
O716 Co708 2.074 . S
O716 C741 1.257 . S
H717 C742 0.930 . S
H718 C748 0.930 . S
O719 Co708 2.093 . S
O719 C711 1.224 . S
H720 C752 0.929 . S
H721 C754 0.930 . S
H722 C755 0.930 . S
H723 C753 0.929 . S
H724 C756 0.928 . S
O725 Co709 2.057 . S
O725 C713 1.232 . S
H726 C745 0.929 . S
H727 C746 0.929 . S
H728 C758 0.931 . S
H729 C750 0.929 . S
H730 C759 0.930 . S
H731 C751 0.931 . S
O732 Co708 2.097 . S
O732 C760 1.214 . S
H733 C761 0.929 . S
H734 C762 0.929 . S
H735 C763 0.930 . S
H736 C764 0.929 . S
H737 C766 0.930 . S
H738 C743 0.930 . S
H739 C747 0.930 . S
O740 Co709 2.037 . S
O740 C760 1.234 . S
C741 O715 1.269 . S
C741 O716 1.257 . S
C742 H717 0.930 . S
C742 C745 1.388 . S
C742 C747 1.418 . S
C743 H738 0.930 . S
C743 C746 1.404 . S
C743 C747 1.353 . S
N744 Co709 2.145 . S
N744 C745 1.397 . S
N744 C746 1.334 . S
C745 H726 0.929 . S
C745 C742 1.388 . S
C745 N744 1.397 . S
C746 H727 0.929 . S
C746 C743 1.404 . S
C746 N744 1.334 . S
C747 H739 0.930 . S
C747 C742 1.418 . S
C747 C743 1.353 . S
C748 H718 0.930 . S
C748 N749 1.330 . S
C748 C750 1.446 . S
N749 Co708 2.151 . S
N749 C748 1.330 . S
N749 C753 1.418 . S
C750 H729 0.929 . S
C750 C748 1.446 . S
C750 C751 1.332 . S
C751 H731 0.931 . S
C751 C750 1.332 . S
C751 C752 1.267 . S
C752 H720 0.929 . S
C752 C751 1.267 . S
C752 C753 1.251 . S
C753 H723 0.929 . S
C753 N749 1.418 . S
C753 C752 1.251 . S
C754 H721 0.930 . S
C754 C756 1.406 . S
C754 C759 1.261 . S
C755 H722 0.930 . S
C755 N757 1.325 . S
C755 C758 1.357 . S
C756 H724 0.928 . S
C756 C754 1.406 . S
C756 N757 1.261 . S
N757 Co708 2.214 . S
N757 C755 1.325 . S
N757 C756 1.261 . S
C758 H728 0.931 . S
C758 C755 1.357 . S
C758 C759 1.312 . S
C759 H730 0.930 . S
C759 C754 1.261 . S
C759 C758 1.312 . S
C760 O732 1.214 . S
C760 O740 1.234 . S
C761 H733 0.929 . S
C761 C764 1.391 . S
C761 C766 1.391 . S
C762 H734 0.929 . S
C762 C763 1.390 . S
C762 N765 1.391 . S
C763 H735 0.930 . S
C763 C762 1.390 . S
C763 C764 1.392 . S
C764 H736 0.929 . S
C764 C761 1.391 . S
C764 C763 1.392 . S
N765 Co709 2.257 . S
N765 C762 1.391 . S
N765 C766 1.388 . S
C766 H737 0.930 . S
C766 C761 1.391 . S
C766 N765 1.388 . S
Co767 O769 2.143 . S
Co767 O775 2.074 . S
Co767 O778 2.093 . S
Co767 O791 2.097 . S
Co767 N808 2.151 . S
Co767 N816 2.214 . S
Co768 O769 2.160 . S
Co768 O774 2.058 . S
Co768 O784 2.057 . S
Co768 O799 2.037 . S
Co768 N803 2.145 . S
Co768 N824 2.257 . S
O769 Co767 2.143 . S
O769 Co768 2.160 . S
C770 O771 1.278 . S
C770 O778 1.224 . S
O771 C770 1.278 . S
C772 O773 1.245 . S
C772 O784 1.232 . S
O773 C772 1.245 . S
O774 Co768 2.058 . S
O774 C800 1.269 . S
O775 Co767 2.074 . S
O775 C800 1.257 . S
H776 C801 0.930 . S
H777 C807 0.930 . S
O778 Co767 2.093 . S
O778 C770 1.224 . S
H779 C811 0.929 . S
H780 C813 0.930 . S
H781 C814 0.930 . S
H782 C812 0.929 . S
H783 C815 0.928 . S
O784 Co768 2.057 . S
O784 C772 1.232 . S
H785 C804 0.929 . S
H786 C805 0.929 . S
H787 C817 0.931 . S
H788 C809 0.929 . S
H789 C818 0.930 . S
H790 C810 0.931 . S
O791 Co767 2.097 . S
O791 C819 1.214 . S
H792 C820 0.929 . S
H793 C821 0.929 . S
H794 C822 0.930 . S
H795 C823 0.929 . S
H796 C825 0.930 . S
H797 C802 0.930 . S
H798 C806 0.930 . S
O799 Co768 2.037 . S
O799 C819 1.234 . S
C800 O774 1.269 . S
C800 O775 1.257 . S
C801 H776 0.930 . S
C801 C804 1.388 . S
C801 C806 1.418 . S
C802 H797 0.930 . S
C802 C805 1.404 . S
C802 C806 1.353 . S
N803 Co768 2.145 . S
N803 C804 1.397 . S
N803 C805 1.334 . S
C804 H785 0.929 . S
C804 C801 1.388 . S
C804 N803 1.397 . S
C805 H786 0.929 . S
C805 C802 1.404 . S
C805 N803 1.334 . S
C806 H798 0.930 . S
C806 C801 1.418 . S
C806 C802 1.353 . S
C807 H777 0.930 . S
C807 N808 1.330 . S
C807 C809 1.446 . S
N808 Co767 2.151 . S
N808 C807 1.330 . S
N808 C812 1.418 . S
C809 H788 0.929 . S
C809 C807 1.446 . S
C809 C810 1.332 . S
C810 H790 0.931 . S
C810 C809 1.332 . S
C810 C811 1.267 . S
C811 H779 0.929 . S
C811 C810 1.267 . S
C811 C812 1.251 . S
C812 H782 0.929 . S
C812 N808 1.418 . S
C812 C811 1.251 . S
C813 H780 0.930 . S
C813 C815 1.406 . S
C813 C818 1.261 . S
C814 H781 0.930 . S
C814 N816 1.325 . S
C814 C817 1.357 . S
C815 H783 0.928 . S
C815 C813 1.406 . S
C815 N816 1.261 . S
N816 Co767 2.214 . S
N816 C814 1.325 . S
N816 C815 1.261 . S
C817 H787 0.931 . S
C817 C814 1.357 . S
C817 C818 1.312 . S
C818 H789 0.930 . S
C818 C813 1.261 . S
C818 C817 1.312 . S
C819 O791 1.214 . S
C819 O799 1.234 . S
C820 H792 0.929 . S
C820 C823 1.391 . S
C820 C825 1.391 . S
C821 H793 0.929 . S
C821 C822 1.390 . S
C821 N824 1.391 . S
C822 H794 0.930 . S
C822 C821 1.390 . S
C822 C823 1.392 . S
C823 H795 0.929 . S
C823 C820 1.391 . S
C823 C822 1.392 . S
N824 Co768 2.257 . S
N824 C821 1.391 . S
N824 C825 1.388 . S
C825 H796 0.930 . S
C825 C820 1.391 . S
C825 N824 1.388 . S
Co826 O828 2.143 . S
Co826 O834 2.074 . S
Co826 O837 2.093 . S
Co826 O850 2.097 . S
Co826 N867 2.151 . S
Co826 N875 2.214 . S
Co827 O828 2.160 . S
Co827 O833 2.058 . S
Co827 O843 2.057 . S
Co827 O858 2.037 . S
Co827 N862 2.145 . S
Co827 N883 2.257 . S
O828 Co826 2.143 . S
O828 Co827 2.160 . S
C829 O830 1.278 . S
C829 O837 1.224 . S
O830 C829 1.278 . S
C831 O832 1.245 . S
C831 O843 1.232 . S
O832 C831 1.245 . S
O833 Co827 2.058 . S
O833 C859 1.269 . S
O834 Co826 2.074 . S
O834 C859 1.257 . S
H835 C860 0.930 . S
H836 C866 0.930 . S
O837 Co826 2.093 . S
O837 C829 1.224 . S
H838 C870 0.929 . S
H839 C872 0.930 . S
H840 C873 0.930 . S
H841 C871 0.929 . S
H842 C874 0.928 . S
O843 Co827 2.057 . S
O843 C831 1.232 . S
H844 C863 0.929 . S
H845 C864 0.929 . S
H846 C876 0.931 . S
H847 C868 0.929 . S
H848 C877 0.930 . S
H849 C869 0.931 . S
O850 Co826 2.097 . S
O850 C878 1.214 . S
H851 C879 0.929 . S
H852 C880 0.929 . S
H853 C881 0.930 . S
H854 C882 0.929 . S
H855 C884 0.930 . S
H856 C861 0.930 . S
H857 C865 0.930 . S
O858 Co827 2.037 . S
O858 C878 1.234 . S
C859 O833 1.269 . S
C859 O834 1.257 . S
C860 H835 0.930 . S
C860 C863 1.388 . S
C860 C865 1.418 . S
C861 H856 0.930 . S
C861 C864 1.404 . S
C861 C865 1.353 . S
N862 Co827 2.145 . S
N862 C863 1.397 . S
N862 C864 1.334 . S
C863 H844 0.929 . S
C863 C860 1.388 . S
C863 N862 1.397 . S
C864 H845 0.929 . S
C864 C861 1.404 . S
C864 N862 1.334 . S
C865 H857 0.930 . S
C865 C860 1.418 . S
C865 C861 1.353 . S
C866 H836 0.930 . S
C866 N867 1.330 . S
C866 C868 1.446 . S
N867 Co826 2.151 . S
N867 C866 1.330 . S
N867 C871 1.418 . S
C868 H847 0.929 . S
C868 C866 1.446 . S
C868 C869 1.332 . S
C869 H849 0.931 . S
C869 C868 1.332 . S
C869 C870 1.267 . S
C870 H838 0.929 . S
C870 C869 1.267 . S
C870 C871 1.251 . S
C871 H841 0.929 . S
C871 N867 1.418 . S
C871 C870 1.251 . S
C872 H839 0.930 . S
C872 C874 1.406 . S
C872 C877 1.261 . S
C873 H840 0.930 . S
C873 N875 1.325 . S
C873 C876 1.357 . S
C874 H842 0.928 . S
C874 C872 1.406 . S
C874 N875 1.261 . S
N875 Co826 2.214 . S
N875 C873 1.325 . S
N875 C874 1.261 . S
C876 H846 0.931 . S
C876 C873 1.357 . S
C876 C877 1.312 . S
C877 H848 0.930 . S
C877 C872 1.261 . S
C877 C876 1.312 . S
C878 O850 1.214 . S
C878 O858 1.234 . S
C879 H851 0.929 . S
C879 C882 1.391 . S
C879 C884 1.391 . S
C880 H852 0.929 . S
C880 C881 1.390 . S
C880 N883 1.391 . S
C881 H853 0.930 . S
C881 C880 1.390 . S
C881 C882 1.392 . S
C882 H854 0.929 . S
C882 C879 1.391 . S
C882 C881 1.392 . S
N883 Co827 2.257 . S
N883 C880 1.391 . S
N883 C884 1.388 . S
C884 H855 0.930 . S
C884 C879 1.391 . S
C884 N883 1.388 . S
Co885 O887 2.143 . S
Co885 O893 2.074 . S
Co885 O896 2.093 . S
Co885 O909 2.097 . S
Co885 N926 2.151 . S
Co885 N934 2.214 . S
Co886 O887 2.160 . S
Co886 O892 2.058 . S
Co886 O902 2.057 . S
Co886 O917 2.037 . S
Co886 N921 2.145 . S
Co886 N942 2.257 . S
O887 Co885 2.143 . S
O887 Co886 2.160 . S
C888 O889 1.278 . S
C888 O896 1.224 . S
O889 C888 1.278 . S
C890 O891 1.245 . S
C890 O902 1.232 . S
O891 C890 1.245 . S
O892 Co886 2.058 . S
O892 C918 1.269 . S
O893 Co885 2.074 . S
O893 C918 1.257 . S
H894 C919 0.930 . S
H895 C925 0.930 . S
O896 Co885 2.093 . S
O896 C888 1.224 . S
H897 C929 0.929 . S
H898 C931 0.930 . S
H899 C932 0.930 . S
H900 C930 0.929 . S
H901 C933 0.928 . S
O902 Co886 2.057 . S
O902 C890 1.232 . S
H903 C922 0.929 . S
H904 C923 0.929 . S
H905 C935 0.931 . S
H906 C927 0.929 . S
H907 C936 0.930 . S
H908 C928 0.931 . S
O909 Co885 2.097 . S
O909 C937 1.214 . S
H910 C938 0.929 . S
H911 C939 0.929 . S
H912 C940 0.930 . S
H913 C941 0.929 . S
H914 C943 0.930 . S
H915 C920 0.930 . S
H916 C924 0.930 . S
O917 Co886 2.037 . S
O917 C937 1.234 . S
C918 O892 1.269 . S
C918 O893 1.257 . S
C919 H894 0.930 . S
C919 C922 1.388 . S
C919 C924 1.418 . S
C920 H915 0.930 . S
C920 C923 1.404 . S
C920 C924 1.353 . S
N921 Co886 2.145 . S
N921 C922 1.397 . S
N921 C923 1.334 . S
C922 H903 0.929 . S
C922 C919 1.388 . S
C922 N921 1.397 . S
C923 H904 0.929 . S
C923 C920 1.404 . S
C923 N921 1.334 . S
C924 H916 0.930 . S
C924 C919 1.418 . S
C924 C920 1.353 . S
C925 H895 0.930 . S
C925 N926 1.330 . S
C925 C927 1.446 . S
N926 Co885 2.151 . S
N926 C925 1.330 . S
N926 C930 1.418 . S
C927 H906 0.929 . S
C927 C925 1.446 . S
C927 C928 1.332 . S
C928 H908 0.931 . S
C928 C927 1.332 . S
C928 C929 1.267 . S
C929 H897 0.929 . S
C929 C928 1.267 . S
C929 C930 1.251 . S
C930 H900 0.929 . S
C930 N926 1.418 . S
C930 C929 1.251 . S
C931 H898 0.930 . S
C931 C933 1.406 . S
C931 C936 1.261 . S
C932 H899 0.930 . S
C932 N934 1.325 . S
C932 C935 1.357 . S
C933 H901 0.928 . S
C933 C931 1.406 . S
C933 N934 1.261 . S
N934 Co885 2.214 . S
N934 C932 1.325 . S
N934 C933 1.261 . S
C935 H905 0.931 . S
C935 C932 1.357 . S
C935 C936 1.312 . S
C936 H907 0.930 . S
C936 C931 1.261 . S
C936 C935 1.312 . S
C937 O909 1.214 . S
C937 O917 1.234 . S
C938 H910 0.929 . S
C938 C941 1.391 . S
C938 C943 1.391 . S
C939 H911 0.929 . S
C939 C940 1.390 . S
C939 N942 1.391 . S
C940 H912 0.930 . S
C940 C939 1.390 . S
C940 C941 1.392 . S
C941 H913 0.929 . S
C941 C938 1.391 . S
C941 C940 1.392 . S
N942 Co886 2.257 . S
N942 C939 1.391 . S
N942 C943 1.388 . S
C943 H914 0.930 . S
C943 C938 1.391 . S
C943 N942 1.388 . S
Co944 O946 2.143 . S
Co944 O952 2.074 . S
Co944 O955 2.093 . S
Co944 O968 2.097 . S
Co944 N985 2.151 . S
Co944 N993 2.214 . S
Co945 O946 2.160 . S
Co945 O951 2.058 . S
Co945 O961 2.057 . S
Co945 O976 2.037 . S
Co945 N980 2.145 . S
Co945 N1001 2.257 . S
O946 Co944 2.143 . S
O946 Co945 2.160 . S
C947 O948 1.278 . S
C947 O955 1.224 . S
O948 C947 1.278 . S
C949 O950 1.245 . S
C949 O961 1.232 . S
O950 C949 1.245 . S
O951 Co945 2.058 . S
O951 C977 1.269 . S
O952 Co944 2.074 . S
O952 C977 1.257 . S
H953 C978 0.930 . S
H954 C984 0.930 . S
O955 Co944 2.093 . S
O955 C947 1.224 . S
H956 C988 0.929 . S
H957 C990 0.930 . S
H958 C991 0.930 . S
H959 C989 0.929 . S
H960 C992 0.928 . S
O961 Co945 2.057 . S
O961 C949 1.232 . S
H962 C981 0.929 . S
H963 C982 0.929 . S
H964 C994 0.931 . S
H965 C986 0.929 . S
H966 C995 0.930 . S
H967 C987 0.931 . S
O968 Co944 2.097 . S
O968 C996 1.214 . S
H969 C997 0.929 . S
H970 C998 0.929 . S
H971 C999 0.930 . S
H972 C1000 0.929 . S
H973 C1002 0.930 . S
H974 C979 0.930 . S
H975 C983 0.930 . S
O976 Co945 2.037 . S
O976 C996 1.234 . S
C977 O951 1.269 . S
C977 O952 1.257 . S
C978 H953 0.930 . S
C978 C981 1.388 . S
C978 C983 1.418 . S
C979 H974 0.930 . S
C979 C982 1.404 . S
C979 C983 1.353 . S
N980 Co945 2.145 . S
N980 C981 1.397 . S
N980 C982 1.334 . S
C981 H962 0.929 . S
C981 C978 1.388 . S
C981 N980 1.397 . S
C982 H963 0.929 . S
C982 C979 1.404 . S
C982 N980 1.334 . S
C983 H975 0.930 . S
C983 C978 1.418 . S
C983 C979 1.353 . S
C984 H954 0.930 . S
C984 N985 1.330 . S
C984 C986 1.446 . S
N985 Co944 2.151 . S
N985 C984 1.330 . S
N985 C989 1.418 . S
C986 H965 0.929 . S
C986 C984 1.446 . S
C986 C987 1.332 . S
C987 H967 0.931 . S
C987 C986 1.332 . S
C987 C988 1.267 . S
C988 H956 0.929 . S
C988 C987 1.267 . S
C988 C989 1.251 . S
C989 H959 0.929 . S
C989 N985 1.418 . S
C989 C988 1.251 . S
C990 H957 0.930 . S
C990 C992 1.406 . S
C990 C995 1.261 . S
C991 H958 0.930 . S
C991 N993 1.325 . S
C991 C994 1.357 . S
C992 H960 0.928 . S
C992 C990 1.406 . S
C992 N993 1.261 . S
N993 Co944 2.214 . S
N993 C991 1.325 . S
N993 C992 1.261 . S
C994 H964 0.931 . S
C994 C991 1.357 . S
C994 C995 1.312 . S
C995 H966 0.930 . S
C995 C990 1.261 . S
C995 C994 1.312 . S
C996 O968 1.214 . S
C996 O976 1.234 . S
C997 H969 0.929 . S
C997 C1000 1.391 . S
C997 C1002 1.391 . S
C998 H970 0.929 . S
C998 C999 1.390 . S
C998 N1001 1.391 . S
C999 H971 0.930 . S
C999 C998 1.390 . S
C999 C1000 1.392 . S
C1000 H972 0.929 . S
C1000 C997 1.391 . S
C1000 C999 1.392 . S
N1001 Co945 2.257 . S
N1001 C998 1.391 . S
N1001 C1002 1.388 . S
C1002 H973 0.930 . S
C1002 C997 1.391 . S
C1002 N1001 1.388 . S
Co1003 O1005 2.143 . S
Co1003 O1011 2.074 . S
Co1003 O1014 2.093 . S
Co1003 O1027 2.097 . S
Co1003 N1044 2.151 . S
Co1003 N1052 2.214 . S
Co1004 O1005 2.160 . S
Co1004 O1010 2.058 . S
Co1004 O1020 2.057 . S
Co1004 O1035 2.037 . S
Co1004 N1039 2.145 . S
Co1004 N1060 2.257 . S
O1005 Co1003 2.143 . S
O1005 Co1004 2.160 . S
C1006 O1007 1.278 . S
C1006 O1014 1.224 . S
O1007 C1006 1.278 . S
C1008 O1009 1.245 . S
C1008 O1020 1.232 . S
O1009 C1008 1.245 . S
O1010 Co1004 2.058 . S
O1010 C1036 1.269 . S
O1011 Co1003 2.074 . S
O1011 C1036 1.257 . S
H1012 C1037 0.930 . S
H1013 C1043 0.930 . S
O1014 Co1003 2.093 . S
O1014 C1006 1.224 . S
H1015 C1047 0.929 . S
H1016 C1049 0.930 . S
H1017 C1050 0.930 . S
H1018 C1048 0.929 . S
H1019 C1051 0.928 . S
O1020 Co1004 2.057 . S
O1020 C1008 1.232 . S
H1021 C1040 0.929 . S
H1022 C1041 0.929 . S
H1023 C1053 0.931 . S
H1024 C1045 0.929 . S
H1025 C1054 0.930 . S
H1026 C1046 0.931 . S
O1027 Co1003 2.097 . S
O1027 C1055 1.214 . S
H1028 C1056 0.929 . S
H1029 C1057 0.929 . S
H1030 C1058 0.930 . S
H1031 C1059 0.929 . S
H1032 C1061 0.930 . S
H1033 C1038 0.930 . S
H1034 C1042 0.930 . S
O1035 Co1004 2.037 . S
O1035 C1055 1.234 . S
C1036 O1010 1.269 . S
C1036 O1011 1.257 . S
C1037 H1012 0.930 . S
C1037 C1040 1.388 . S
C1037 C1042 1.418 . S
C1038 H1033 0.930 . S
C1038 C1041 1.404 . S
C1038 C1042 1.353 . S
N1039 Co1004 2.145 . S
N1039 C1040 1.397 . S
N1039 C1041 1.334 . S
C1040 H1021 0.929 . S
C1040 C1037 1.388 . S
C1040 N1039 1.397 . S
C1041 H1022 0.929 . S
C1041 C1038 1.404 . S
C1041 N1039 1.334 . S
C1042 H1034 0.930 . S
C1042 C1037 1.418 . S
C1042 C1038 1.353 . S
C1043 H1013 0.930 . S
C1043 N1044 1.330 . S
C1043 C1045 1.446 . S
N1044 Co1003 2.151 . S
N1044 C1043 1.330 . S
N1044 C1048 1.418 . S
C1045 H1024 0.929 . S
C1045 C1043 1.446 . S
C1045 C1046 1.332 . S
C1046 H1026 0.931 . S
C1046 C1045 1.332 . S
C1046 C1047 1.267 . S
C1047 H1015 0.929 . S
C1047 C1046 1.267 . S
C1047 C1048 1.251 . S
C1048 H1018 0.929 . S
C1048 N1044 1.418 . S
C1048 C1047 1.251 . S
C1049 H1016 0.930 . S
C1049 C1051 1.406 . S
C1049 C1054 1.261 . S
C1050 H1017 0.930 . S
C1050 N1052 1.325 . S
C1050 C1053 1.357 . S
C1051 H1019 0.928 . S
C1051 C1049 1.406 . S
C1051 N1052 1.261 . S
N1052 Co1003 2.214 . S
N1052 C1050 1.325 . S
N1052 C1051 1.261 . S
C1053 H1023 0.931 . S
C1053 C1050 1.357 . S
C1053 C1054 1.312 . S
C1054 H1025 0.930 . S
C1054 C1049 1.261 . S
C1054 C1053 1.312 . S
C1055 O1027 1.214 . S
C1055 O1035 1.234 . S
C1056 H1028 0.929 . S
C1056 C1059 1.391 . S
C1056 C1061 1.391 . S
C1057 H1029 0.929 . S
C1057 C1058 1.390 . S
C1057 N1060 1.391 . S
C1058 H1030 0.930 . S
C1058 C1057 1.390 . S
C1058 C1059 1.392 . S
C1059 H1031 0.929 . S
C1059 C1056 1.391 . S
C1059 C1058 1.392 . S
N1060 Co1004 2.257 . S
N1060 C1057 1.391 . S
N1060 C1061 1.388 . S
C1061 H1032 0.930 . S
C1061 C1056 1.391 . S
C1061 N1060 1.388 . S
Co1062 O1064 2.143 . S
Co1062 O1070 2.074 . S
Co1062 O1073 2.093 . S
Co1062 O1086 2.097 . S
Co1062 N1103 2.151 . S
Co1062 N1111 2.214 . S
Co1063 O1064 2.160 . S
Co1063 O1069 2.058 . S
Co1063 O1079 2.057 . S
Co1063 O1094 2.037 . S
Co1063 N1098 2.145 . S
Co1063 N1119 2.257 . S
O1064 Co1062 2.143 . S
O1064 Co1063 2.160 . S
C1065 O1066 1.278 . S
C1065 O1073 1.224 . S
O1066 C1065 1.278 . S
C1067 O1068 1.245 . S
C1067 O1079 1.232 . S
O1068 C1067 1.245 . S
O1069 Co1063 2.058 . S
O1069 C1095 1.269 . S
O1070 Co1062 2.074 . S
O1070 C1095 1.257 . S
H1071 C1096 0.930 . S
H1072 C1102 0.930 . S
O1073 Co1062 2.093 . S
O1073 C1065 1.224 . S
H1074 C1106 0.929 . S
H1075 C1108 0.930 . S
H1076 C1109 0.930 . S
H1077 C1107 0.929 . S
H1078 C1110 0.928 . S
O1079 Co1063 2.057 . S
O1079 C1067 1.232 . S
H1080 C1099 0.929 . S
H1081 C1100 0.929 . S
H1082 C1112 0.931 . S
H1083 C1104 0.929 . S
H1084 C1113 0.930 . S
H1085 C1105 0.931 . S
O1086 Co1062 2.097 . S
O1086 C1114 1.214 . S
H1087 C1115 0.929 . S
H1088 C1116 0.929 . S
H1089 C1117 0.930 . S
H1090 C1118 0.929 . S
H1091 C1120 0.930 . S
H1092 C1097 0.930 . S
H1093 C1101 0.930 . S
O1094 Co1063 2.037 . S
O1094 C1114 1.234 . S
C1095 O1069 1.269 . S
C1095 O1070 1.257 . S
C1096 H1071 0.930 . S
C1096 C1099 1.388 . S
C1096 C1101 1.418 . S
C1097 H1092 0.930 . S
C1097 C1100 1.404 . S
C1097 C1101 1.353 . S
N1098 Co1063 2.145 . S
N1098 C1099 1.397 . S
N1098 C1100 1.334 . S
C1099 H1080 0.929 . S
C1099 C1096 1.388 . S
C1099 N1098 1.397 . S
C1100 H1081 0.929 . S
C1100 C1097 1.404 . S
C1100 N1098 1.334 . S
C1101 H1093 0.930 . S
C1101 C1096 1.418 . S
C1101 C1097 1.353 . S
C1102 H1072 0.930 . S
C1102 N1103 1.330 . S
C1102 C1104 1.446 . S
N1103 Co1062 2.151 . S
N1103 C1102 1.330 . S
N1103 C1107 1.418 . S
C1104 H1083 0.929 . S
C1104 C1102 1.446 . S
C1104 C1105 1.332 . S
C1105 H1085 0.931 . S
C1105 C1104 1.332 . S
C1105 C1106 1.267 . S
C1106 H1074 0.929 . S
C1106 C1105 1.267 . S
C1106 C1107 1.251 . S
C1107 H1077 0.929 . S
C1107 N1103 1.418 . S
C1107 C1106 1.251 . S
C1108 H1075 0.930 . S
C1108 C1110 1.406 . S
C1108 C1113 1.261 . S
C1109 H1076 0.930 . S
C1109 N1111 1.325 . S
C1109 C1112 1.357 . S
C1110 H1078 0.928 . S
C1110 C1108 1.406 . S
C1110 N1111 1.261 . S
N1111 Co1062 2.214 . S
N1111 C1109 1.325 . S
N1111 C1110 1.261 . S
C1112 H1082 0.931 . S
C1112 C1109 1.357 . S
C1112 C1113 1.312 . S
C1113 H1084 0.930 . S
C1113 C1108 1.261 . S
C1113 C1112 1.312 . S
C1114 O1086 1.214 . S
C1114 O1094 1.234 . S
C1115 H1087 0.929 . S
C1115 C1118 1.391 . S
C1115 C1120 1.391 . S
C1116 H1088 0.929 . S
C1116 C1117 1.390 . S
C1116 N1119 1.391 . S
C1117 H1089 0.930 . S
C1117 C1116 1.390 . S
C1117 C1118 1.392 . S
C1118 H1090 0.929 . S
C1118 C1115 1.391 . S
C1118 C1117 1.392 . S
N1119 Co1063 2.257 . S
N1119 C1116 1.391 . S
N1119 C1120 1.388 . S
C1120 H1091 0.930 . S
C1120 C1115 1.391 . S
C1120 N1119 1.388 . S
Co1121 O1123 2.143 . S
Co1121 O1129 2.074 . S
Co1121 O1132 2.093 . S
Co1121 O1145 2.097 . S
Co1121 N1162 2.151 . S
Co1121 N1170 2.214 . S
Co1122 O1123 2.160 . S
Co1122 O1128 2.058 . S
Co1122 O1138 2.057 . S
Co1122 O1153 2.037 . S
Co1122 N1157 2.145 . S
Co1122 N1178 2.257 . S
O1123 Co1121 2.143 . S
O1123 Co1122 2.160 . S
C1124 O1125 1.278 . S
C1124 O1132 1.224 . S
O1125 C1124 1.278 . S
C1126 O1127 1.245 . S
C1126 O1138 1.232 . S
O1127 C1126 1.245 . S
O1128 Co1122 2.058 . S
O1128 C1154 1.269 . S
O1129 Co1121 2.074 . S
O1129 C1154 1.257 . S
H1130 C1155 0.930 . S
H1131 C1161 0.930 . S
O1132 Co1121 2.093 . S
O1132 C1124 1.224 . S
H1133 C1165 0.929 . S
H1134 C1167 0.930 . S
H1135 C1168 0.930 . S
H1136 C1166 0.929 . S
H1137 C1169 0.928 . S
O1138 Co1122 2.057 . S
O1138 C1126 1.232 . S
H1139 C1158 0.929 . S
H1140 C1159 0.929 . S
H1141 C1171 0.931 . S
H1142 C1163 0.929 . S
H1143 C1172 0.930 . S
H1144 C1164 0.931 . S
O1145 Co1121 2.097 . S
O1145 C1173 1.214 . S
H1146 C1174 0.929 . S
H1147 C1175 0.929 . S
H1148 C1176 0.930 . S
H1149 C1177 0.929 . S
H1150 C1179 0.930 . S
H1151 C1156 0.930 . S
H1152 C1160 0.930 . S
O1153 Co1122 2.037 . S
O1153 C1173 1.234 . S
C1154 O1128 1.269 . S
C1154 O1129 1.257 . S
C1155 H1130 0.930 . S
C1155 C1158 1.388 . S
C1155 C1160 1.418 . S
C1156 H1151 0.930 . S
C1156 C1159 1.404 . S
C1156 C1160 1.353 . S
N1157 Co1122 2.145 . S
N1157 C1158 1.397 . S
N1157 C1159 1.334 . S
C1158 H1139 0.929 . S
C1158 C1155 1.388 . S
C1158 N1157 1.397 . S
C1159 H1140 0.929 . S
C1159 C1156 1.404 . S
C1159 N1157 1.334 . S
C1160 H1152 0.930 . S
C1160 C1155 1.418 . S
C1160 C1156 1.353 . S
C1161 H1131 0.930 . S
C1161 N1162 1.330 . S
C1161 C1163 1.446 . S
N1162 Co1121 2.151 . S
N1162 C1161 1.330 . S
N1162 C1166 1.418 . S
C1163 H1142 0.929 . S
C1163 C1161 1.446 . S
C1163 C1164 1.332 . S
C1164 H1144 0.931 . S
C1164 C1163 1.332 . S
C1164 C1165 1.267 . S
C1165 H1133 0.929 . S
C1165 C1164 1.267 . S
C1165 C1166 1.251 . S
C1166 H1136 0.929 . S
C1166 N1162 1.418 . S
C1166 C1165 1.251 . S
C1167 H1134 0.930 . S
C1167 C1169 1.406 . S
C1167 C1172 1.261 . S
C1168 H1135 0.930 . S
C1168 N1170 1.325 . S
C1168 C1171 1.357 . S
C1169 H1137 0.928 . S
C1169 C1167 1.406 . S
C1169 N1170 1.261 . S
N1170 Co1121 2.214 . S
N1170 C1168 1.325 . S
N1170 C1169 1.261 . S
C1171 H1141 0.931 . S
C1171 C1168 1.357 . S
C1171 C1172 1.312 . S
C1172 H1143 0.930 . S
C1172 C1167 1.261 . S
C1172 C1171 1.312 . S
C1173 O1145 1.214 . S
C1173 O1153 1.234 . S
C1174 H1146 0.929 . S
C1174 C1177 1.391 . S
C1174 C1179 1.391 . S
C1175 H1147 0.929 . S
C1175 C1176 1.390 . S
C1175 N1178 1.391 . S
C1176 H1148 0.930 . S
C1176 C1175 1.390 . S
C1176 C1177 1.392 . S
C1177 H1149 0.929 . S
C1177 C1174 1.391 . S
C1177 C1176 1.392 . S
N1178 Co1122 2.257 . S
N1178 C1175 1.391 . S
N1178 C1179 1.388 . S
C1179 H1150 0.930 . S
C1179 C1174 1.391 . S
C1179 N1178 1.388 . S
Co1180 O1182 2.143 . S
Co1180 O1188 2.074 . S
Co1180 O1191 2.093 . S
Co1180 O1204 2.097 . S
Co1180 N1221 2.151 . S
Co1180 N1229 2.214 . S
Co1181 O1182 2.160 . S
Co1181 O1187 2.058 . S
Co1181 O1197 2.057 . S
Co1181 O1212 2.037 . S
Co1181 N1216 2.145 . S
Co1181 N1237 2.257 . S
O1182 Co1180 2.143 . S
O1182 Co1181 2.160 . S
C1183 O1184 1.278 . S
C1183 O1191 1.224 . S
O1184 C1183 1.278 . S
C1185 O1186 1.245 . S
C1185 O1197 1.232 . S
O1186 C1185 1.245 . S
O1187 Co1181 2.058 . S
O1187 C1213 1.269 . S
O1188 Co1180 2.074 . S
O1188 C1213 1.257 . S
H1189 C1214 0.930 . S
H1190 C1220 0.930 . S
O1191 Co1180 2.093 . S
O1191 C1183 1.224 . S
H1192 C1224 0.929 . S
H1193 C1226 0.930 . S
H1194 C1227 0.930 . S
H1195 C1225 0.929 . S
H1196 C1228 0.928 . S
O1197 Co1181 2.057 . S
O1197 C1185 1.232 . S
H1198 C1217 0.929 . S
H1199 C1218 0.929 . S
H1200 C1230 0.931 . S
H1201 C1222 0.929 . S
H1202 C1231 0.930 . S
H1203 C1223 0.931 . S
O1204 Co1180 2.097 . S
O1204 C1232 1.214 . S
H1205 C1233 0.929 . S
H1206 C1234 0.929 . S
H1207 C1235 0.930 . S
H1208 C1236 0.929 . S
H1209 C1238 0.930 . S
H1210 C1215 0.930 . S
H1211 C1219 0.930 . S
O1212 Co1181 2.037 . S
O1212 C1232 1.234 . S
C1213 O1187 1.269 . S
C1213 O1188 1.257 . S
C1214 H1189 0.930 . S
C1214 C1217 1.388 . S
C1214 C1219 1.418 . S
C1215 H1210 0.930 . S
C1215 C1218 1.404 . S
C1215 C1219 1.353 . S
N1216 Co1181 2.145 . S
N1216 C1217 1.397 . S
N1216 C1218 1.334 . S
C1217 H1198 0.929 . S
C1217 C1214 1.388 . S
C1217 N1216 1.397 . S
C1218 H1199 0.929 . S
C1218 C1215 1.404 . S
C1218 N1216 1.334 . S
C1219 H1211 0.930 . S
C1219 C1214 1.418 . S
C1219 C1215 1.353 . S
C1220 H1190 0.930 . S
C1220 N1221 1.330 . S
C1220 C1222 1.446 . S
N1221 Co1180 2.151 . S
N1221 C1220 1.330 . S
N1221 C1225 1.418 . S
C1222 H1201 0.929 . S
C1222 C1220 1.446 . S
C1222 C1223 1.332 . S
C1223 H1203 0.931 . S
C1223 C1222 1.332 . S
C1223 C1224 1.267 . S
C1224 H1192 0.929 . S
C1224 C1223 1.267 . S
C1224 C1225 1.251 . S
C1225 H1195 0.929 . S
C1225 N1221 1.418 . S
C1225 C1224 1.251 . S
C1226 H1193 0.930 . S
C1226 C1228 1.406 . S
C1226 C1231 1.261 . S
C1227 H1194 0.930 . S
C1227 N1229 1.325 . S
C1227 C1230 1.357 . S
C1228 H1196 0.928 . S
C1228 C1226 1.406 . S
C1228 N1229 1.261 . S
N1229 Co1180 2.214 . S
N1229 C1227 1.325 . S
N1229 C1228 1.261 . S
C1230 H1200 0.931 . S
C1230 C1227 1.357 . S
C1230 C1231 1.312 . S
C1231 H1202 0.930 . S
C1231 C1226 1.261 . S
C1231 C1230 1.312 . S
C1232 O1204 1.214 . S
C1232 O1212 1.234 . S
C1233 H1205 0.929 . S
C1233 C1236 1.391 . S
C1233 C1238 1.391 . S
C1234 H1206 0.929 . S
C1234 C1235 1.390 . S
C1234 N1237 1.391 . S
C1235 H1207 0.930 . S
C1235 C1234 1.390 . S
C1235 C1236 1.392 . S
C1236 H1208 0.929 . S
C1236 C1233 1.391 . S
C1236 C1235 1.392 . S
N1237 Co1181 2.257 . S
N1237 C1234 1.391 . S
N1237 C1238 1.388 . S
C1238 H1209 0.930 . S
C1238 C1233 1.391 . S
C1238 N1237 1.388 . S
Co1239 O1241 2.143 . S
Co1239 O1247 2.074 . S
Co1239 O1250 2.093 . S
Co1239 O1263 2.097 . S
Co1239 N1280 2.151 . S
Co1239 N1288 2.214 . S
Co1240 O1241 2.160 . S
Co1240 O1246 2.058 . S
Co1240 O1256 2.057 . S
Co1240 O1271 2.037 . S
Co1240 N1275 2.145 . S
Co1240 N1296 2.257 . S
O1241 Co1239 2.143 . S
O1241 Co1240 2.160 . S
C1242 O1243 1.278 . S
C1242 O1250 1.224 . S
O1243 C1242 1.278 . S
C1244 O1245 1.245 . S
C1244 O1256 1.232 . S
O1245 C1244 1.245 . S
O1246 Co1240 2.058 . S
O1246 C1272 1.269 . S
O1247 Co1239 2.074 . S
O1247 C1272 1.257 . S
H1248 C1273 0.930 . S
H1249 C1279 0.930 . S
O1250 Co1239 2.093 . S
O1250 C1242 1.224 . S
H1251 C1283 0.929 . S
H1252 C1285 0.930 . S
H1253 C1286 0.930 . S
H1254 C1284 0.929 . S
H1255 C1287 0.928 . S
O1256 Co1240 2.057 . S
O1256 C1244 1.232 . S
H1257 C1276 0.929 . S
H1258 C1277 0.929 . S
H1259 C1289 0.931 . S
H1260 C1281 0.929 . S
H1261 C1290 0.930 1_554 S
H1262 C1282 0.974 . S
O1263 Co1239 2.097 . S
O1263 C1291 1.214 . S
H1264 C1292 0.929 . S
H1265 C1293 0.929 . S
H1266 C1294 0.930 . S
H1267 C1295 0.929 . S
H1268 C1297 0.930 . S
H1269 C1274 0.930 . S
H1270 C1278 0.930 . S
O1271 Co1240 2.037 . S
O1271 C1291 1.234 . S
C1272 O1246 1.269 . S
C1272 O1247 1.257 . S
C1273 H1248 0.930 . S
C1273 C1276 1.388 . S
C1273 C1278 1.418 . S
C1274 H1269 0.930 . S
C1274 C1277 1.404 . S
C1274 C1278 1.353 . S
N1275 Co1240 2.145 . S
N1275 C1276 1.397 . S
N1275 C1277 1.334 . S
C1276 H1257 0.929 . S
C1276 C1273 1.388 . S
C1276 N1275 1.397 . S
C1277 H1258 0.929 . S
C1277 C1274 1.404 . S
C1277 N1275 1.334 . S
C1278 H1270 0.930 . S
C1278 C1273 1.418 . S
C1278 C1274 1.353 . S
C1279 H1249 0.930 . S
C1279 N1280 1.330 . S
C1279 C1281 1.446 . S
N1280 Co1239 2.151 . S
N1280 C1279 1.330 . S
N1280 C1284 1.418 . S
C1281 H1260 0.929 . S
C1281 C1279 1.446 . S
C1281 C1282 1.332 . S
C1282 H1262 0.974 . S
C1282 C1281 1.332 . S
C1282 C1283 1.267 . S
C1283 H1251 0.929 . S
C1283 C1282 1.267 . S
C1283 C1284 1.251 . S
C1284 H1254 0.929 . S
C1284 N1280 1.418 . S
C1284 C1283 1.251 . S
C1285 H1252 0.930 . S
C1285 C1287 1.406 1_554 S
C1285 C1290 1.261 1_554 S
C1286 H1253 0.930 . S
C1286 N1288 1.325 . S
C1286 C1289 1.357 . S
C1287 H1255 0.928 . S
C1287 C1285 1.406 1_556 S
C1287 N1288 1.261 . S
N1288 Co1239 2.214 . S
N1288 C1286 1.325 . S
N1288 C1287 1.261 . S
C1289 H1259 0.931 . S
C1289 C1286 1.357 . S
C1289 C1290 1.312 . S
C1290 H1261 0.930 1_556 S
C1290 C1285 1.261 1_556 S
C1290 C1289 1.312 . S
C1291 O1263 1.214 . S
C1291 O1271 1.234 . S
C1292 H1264 0.929 . S
C1292 C1295 1.391 . S
C1292 C1297 1.391 . S
C1293 H1265 0.929 . S
C1293 C1294 1.390 . S
C1293 N1296 1.391 . S
C1294 H1266 0.930 . S
C1294 C1293 1.390 . S
C1294 C1295 1.392 . S
C1295 H1267 0.929 . S
C1295 C1292 1.391 . S
C1295 C1294 1.392 . S
N1296 Co1240 2.257 . S
N1296 C1293 1.391 . S
N1296 C1297 1.388 . S
C1297 H1268 0.930 . S
C1297 C1292 1.391 . S
C1297 N1296 1.388 . S
Co1298 O1300 2.143 . S
Co1298 O1306 2.074 . S
Co1298 O1309 2.093 . S
Co1298 O1322 2.097 . S
Co1298 N1339 2.151 . S
Co1298 N1347 2.214 . S
Co1299 O1300 2.160 . S
Co1299 O1305 2.058 . S
Co1299 O1315 2.057 . S
Co1299 O1330 2.037 . S
Co1299 N1334 2.145 . S
Co1299 N1355 2.257 . S
O1300 Co1298 2.143 . S
O1300 Co1299 2.160 . S
C1301 O1302 1.278 . S
C1301 O1309 1.224 . S
O1302 C1301 1.278 . S
C1303 O1304 1.245 . S
C1303 O1315 1.232 . S
O1304 C1303 1.245 . S
O1305 Co1299 2.058 . S
O1305 C1331 1.269 . S
O1306 Co1298 2.074 . S
O1306 C1331 1.257 . S
H1307 C1332 0.930 . S
H1308 C1338 0.930 . S
O1309 Co1298 2.093 . S
O1309 C1301 1.224 . S
H1310 C1342 0.929 . S
H1311 C1344 0.930 . S
H1312 C1345 0.930 . S
H1313 C1343 0.929 . S
H1314 C1346 0.928 . S
O1315 Co1299 2.057 . S
O1315 C1303 1.232 . S
H1316 C1335 0.929 . S
H1317 C1336 0.929 . S
H1318 C1348 0.931 . S
H1319 C1340 0.929 . S
H1320 C1349 0.930 1_554 S
H1321 C1341 0.974 . S
O1322 Co1298 2.097 . S
O1322 C1350 1.214 . S
H1323 C1351 0.929 . S
H1324 C1352 0.929 . S
H1325 C1353 0.930 . S
H1326 C1354 0.929 . S
H1327 C1356 0.930 . S
H1328 C1333 0.930 . S
H1329 C1337 0.930 . S
O1330 Co1299 2.037 . S
O1330 C1350 1.234 . S
C1331 O1305 1.269 . S
C1331 O1306 1.257 . S
C1332 H1307 0.930 . S
C1332 C1335 1.388 . S
C1332 C1337 1.418 . S
C1333 H1328 0.930 . S
C1333 C1336 1.404 . S
C1333 C1337 1.353 . S
N1334 Co1299 2.145 . S
N1334 C1335 1.397 . S
N1334 C1336 1.334 . S
C1335 H1316 0.929 . S
C1335 C1332 1.388 . S
C1335 N1334 1.397 . S
C1336 H1317 0.929 . S
C1336 C1333 1.404 . S
C1336 N1334 1.334 . S
C1337 H1329 0.930 . S
C1337 C1332 1.418 . S
C1337 C1333 1.353 . S
C1338 H1308 0.930 . S
C1338 N1339 1.330 . S
C1338 C1340 1.446 . S
N1339 Co1298 2.151 . S
N1339 C1338 1.330 . S
N1339 C1343 1.418 . S
C1340 H1319 0.929 . S
C1340 C1338 1.446 . S
C1340 C1341 1.332 . S
C1341 H1321 0.974 . S
C1341 C1340 1.332 . S
C1341 C1342 1.267 . S
C1342 H1310 0.929 . S
C1342 C1341 1.267 . S
C1342 C1343 1.251 . S
C1343 H1313 0.929 . S
C1343 N1339 1.418 . S
C1343 C1342 1.251 . S
C1344 H1311 0.930 . S
C1344 C1346 1.406 1_554 S
C1344 C1349 1.261 1_554 S
C1345 H1312 0.930 . S
C1345 N1347 1.325 . S
C1345 C1348 1.357 . S
C1346 H1314 0.928 . S
C1346 C1344 1.406 1_556 S
C1346 N1347 1.261 . S
N1347 Co1298 2.214 . S
N1347 C1345 1.325 . S
N1347 C1346 1.261 . S
C1348 H1318 0.931 . S
C1348 C1345 1.357 . S
C1348 C1349 1.312 . S
C1349 H1320 0.930 1_556 S
C1349 C1344 1.261 1_556 S
C1349 C1348 1.312 . S
C1350 O1322 1.214 . S
C1350 O1330 1.234 . S
C1351 H1323 0.929 . S
C1351 C1354 1.391 . S
C1351 C1356 1.391 . S
C1352 H1324 0.929 . S
C1352 C1353 1.390 . S
C1352 N1355 1.391 . S
C1353 H1325 0.930 . S
C1353 C1352 1.390 . S
C1353 C1354 1.392 . S
C1354 H1326 0.929 . S
C1354 C1351 1.391 . S
C1354 C1353 1.392 . S
N1355 Co1299 2.257 . S
N1355 C1352 1.391 . S
N1355 C1356 1.388 . S
C1356 H1327 0.930 . S
C1356 C1351 1.391 . S
C1356 N1355 1.388 . S
Co1357 O1359 2.143 . S
Co1357 O1365 2.074 . S
Co1357 O1368 2.093 . S
Co1357 O1381 2.097 . S
Co1357 N1398 2.151 . S
Co1357 N1406 2.214 . S
Co1358 O1359 2.160 . S
Co1358 O1364 2.058 . S
Co1358 O1374 2.057 . S
Co1358 O1389 2.037 . S
Co1358 N1393 2.145 . S
Co1358 N1414 2.257 . S
O1359 Co1357 2.143 . S
O1359 Co1358 2.160 . S
C1360 O1361 1.278 . S
C1360 O1368 1.224 . S
O1361 C1360 1.278 . S
C1362 O1363 1.245 . S
C1362 O1374 1.232 . S
O1363 C1362 1.245 . S
O1364 Co1358 2.058 . S
O1364 C1390 1.269 . S
O1365 Co1357 2.074 . S
O1365 C1390 1.257 . S
H1366 C1391 0.930 . S
H1367 C1397 0.930 . S
O1368 Co1357 2.093 . S
O1368 C1360 1.224 . S
H1369 C1401 0.929 . S
H1370 C1403 0.930 . S
H1371 C1404 0.930 . S
H1372 C1402 0.929 . S
H1373 C1405 0.928 . S
O1374 Co1358 2.057 . S
O1374 C1362 1.232 . S
H1375 C1394 0.929 . S
H1376 C1395 0.929 . S
H1377 C1407 0.931 . S
H1378 C1399 0.929 . S
H1379 C1408 0.930 1_554 S
H1380 C1400 0.974 . S
O1381 Co1357 2.097 . S
O1381 C1409 1.214 . S
H1382 C1410 0.929 . S
H1383 C1411 0.929 . S
H1384 C1412 0.930 . S
H1385 C1413 0.929 . S
H1386 C1415 0.930 . S
H1387 C1392 0.930 . S
H1388 C1396 0.930 . S
O1389 Co1358 2.037 . S
O1389 C1409 1.234 . S
C1390 O1364 1.269 . S
C1390 O1365 1.257 . S
C1391 H1366 0.930 . S
C1391 C1394 1.388 . S
C1391 C1396 1.418 . S
C1392 H1387 0.930 . S
C1392 C1395 1.404 . S
C1392 C1396 1.353 . S
N1393 Co1358 2.145 . S
N1393 C1394 1.397 . S
N1393 C1395 1.334 . S
C1394 H1375 0.929 . S
C1394 C1391 1.388 . S
C1394 N1393 1.397 . S
C1395 H1376 0.929 . S
C1395 C1392 1.404 . S
C1395 N1393 1.334 . S
C1396 H1388 0.930 . S
C1396 C1391 1.418 . S
C1396 C1392 1.353 . S
C1397 H1367 0.930 . S
C1397 N1398 1.330 . S
C1397 C1399 1.446 . S
N1398 Co1357 2.151 . S
N1398 C1397 1.330 . S
N1398 C1402 1.418 . S
C1399 H1378 0.929 . S
C1399 C1397 1.446 . S
C1399 C1400 1.332 . S
C1400 H1380 0.974 . S
C1400 C1399 1.332 . S
C1400 C1401 1.267 . S
C1401 H1369 0.929 . S
C1401 C1400 1.267 . S
C1401 C1402 1.251 . S
C1402 H1372 0.929 . S
C1402 N1398 1.418 . S
C1402 C1401 1.251 . S
C1403 H1370 0.930 . S
C1403 C1405 1.406 1_554 S
C1403 C1408 1.261 1_554 S
C1404 H1371 0.930 . S
C1404 N1406 1.325 . S
C1404 C1407 1.357 . S
C1405 H1373 0.928 . S
C1405 C1403 1.406 1_556 S
C1405 N1406 1.261 . S
N1406 Co1357 2.214 . S
N1406 C1404 1.325 . S
N1406 C1405 1.261 . S
C1407 H1377 0.931 . S
C1407 C1404 1.357 . S
C1407 C1408 1.312 . S
C1408 H1379 0.930 1_556 S
C1408 C1403 1.261 1_556 S
C1408 C1407 1.312 . S
C1409 O1381 1.214 . S
C1409 O1389 1.234 . S
C1410 H1382 0.929 . S
C1410 C1413 1.391 . S
C1410 C1415 1.391 . S
C1411 H1383 0.929 . S
C1411 C1412 1.390 . S
C1411 N1414 1.391 . S
C1412 H1384 0.930 . S
C1412 C1411 1.390 . S
C1412 C1413 1.392 . S
C1413 H1385 0.929 . S
C1413 C1410 1.391 . S
C1413 C1412 1.392 . S
N1414 Co1358 2.257 . S
N1414 C1411 1.391 . S
N1414 C1415 1.388 . S
C1415 H1386 0.930 . S
C1415 C1410 1.391 . S
C1415 N1414 1.388 . S
Co1416 O1418 2.143 . S
Co1416 O1424 2.074 . S
Co1416 O1427 2.093 . S
Co1416 O1440 2.097 . S
Co1416 N1457 2.151 . S
Co1416 N1465 2.214 . S
Co1417 O1418 2.160 . S
Co1417 O1423 2.058 . S
Co1417 O1433 2.057 . S
Co1417 O1448 2.037 . S
Co1417 N1452 2.145 . S
Co1417 N1473 2.257 . S
O1418 Co1416 2.143 . S
O1418 Co1417 2.160 . S
C1419 O1420 1.278 . S
C1419 O1427 1.224 . S
O1420 C1419 1.278 . S
C1421 O1422 1.245 . S
C1421 O1433 1.232 . S
O1422 C1421 1.245 . S
O1423 Co1417 2.058 . S
O1423 C1449 1.269 . S
O1424 Co1416 2.074 . S
O1424 C1449 1.257 . S
H1425 C1450 0.930 . S
H1426 C1456 0.930 . S
O1427 Co1416 2.093 . S
O1427 C1419 1.224 . S
H1428 C1460 0.929 . S
H1429 C1462 0.930 . S
H1430 C1463 0.930 . S
H1431 C1461 0.929 . S
H1432 C1464 0.928 . S
O1433 Co1417 2.057 . S
O1433 C1421 1.232 . S
H1434 C1453 0.929 . S
H1435 C1454 0.929 . S
H1436 C1466 0.931 . S
H1437 C1458 0.929 . S
H1438 C1467 0.930 . S
H1439 C1459 0.931 . S
O1440 Co1416 2.097 . S
O1440 C1468 1.214 . S
H1441 C1469 0.929 . S
H1442 C1470 0.929 . S
H1443 C1471 0.930 . S
H1444 C1472 0.929 . S
H1445 C1474 0.930 . S
H1446 C1451 0.930 . S
H1447 C1455 0.930 . S
O1448 Co1417 2.037 . S
O1448 C1468 1.234 . S
C1449 O1423 1.269 . S
C1449 O1424 1.257 . S
C1450 H1425 0.930 . S
C1450 C1453 1.388 . S
C1450 C1455 1.418 . S
C1451 H1446 0.930 . S
C1451 C1454 1.404 . S
C1451 C1455 1.353 . S
N1452 Co1417 2.145 . S
N1452 C1453 1.397 . S
N1452 C1454 1.334 . S
C1453 H1434 0.929 . S
C1453 C1450 1.388 . S
C1453 N1452 1.397 . S
C1454 H1435 0.929 . S
C1454 C1451 1.404 . S
C1454 N1452 1.334 . S
C1455 H1447 0.930 . S
C1455 C1450 1.418 . S
C1455 C1451 1.353 . S
C1456 H1426 0.930 . S
C1456 N1457 1.330 . S
C1456 C1458 1.446 . S
N1457 Co1416 2.151 . S
N1457 C1456 1.330 . S
N1457 C1461 1.418 . S
C1458 H1437 0.929 . S
C1458 C1456 1.446 . S
C1458 C1459 1.332 . S
C1459 H1439 0.931 . S
C1459 C1458 1.332 . S
C1459 C1460 1.267 . S
C1460 H1428 0.929 . S
C1460 C1459 1.267 . S
C1460 C1461 1.251 . S
C1461 H1431 0.929 . S
C1461 N1457 1.418 . S
C1461 C1460 1.251 . S
C1462 H1429 0.930 . S
C1462 C1464 1.406 . S
C1462 C1467 1.261 . S
C1463 H1430 0.930 . S
C1463 N1465 1.325 . S
C1463 C1466 1.357 . S
C1464 H1432 0.928 . S
C1464 C1462 1.406 . S
C1464 N1465 1.261 . S
N1465 Co1416 2.214 . S
N1465 C1463 1.325 . S
N1465 C1464 1.261 . S
C1466 H1436 0.931 . S
C1466 C1463 1.357 . S
C1466 C1467 1.312 . S
C1467 H1438 0.930 . S
C1467 C1462 1.261 . S
C1467 C1466 1.312 . S
C1468 O1440 1.214 . S
C1468 O1448 1.234 . S
C1469 H1441 0.929 . S
C1469 C1472 1.391 . S
C1469 C1474 1.391 . S
C1470 H1442 0.929 . S
C1470 C1471 1.390 . S
C1470 N1473 1.391 . S
C1471 H1443 0.930 . S
C1471 C1470 1.390 . S
C1471 C1472 1.392 . S
C1472 H1444 0.929 . S
C1472 C1469 1.391 . S
C1472 C1471 1.392 . S
N1473 Co1417 2.257 . S
N1473 C1470 1.391 . S
N1473 C1474 1.388 . S
C1474 H1445 0.930 . S
C1474 C1469 1.391 . S
C1474 N1473 1.388 . S
Co1475 O1477 2.143 . S
Co1475 O1483 2.074 . S
Co1475 O1486 2.093 . S
Co1475 O1499 2.097 . S
Co1475 N1516 2.151 . S
Co1475 N1524 2.214 . S
Co1476 O1477 2.160 . S
Co1476 O1482 2.058 . S
Co1476 O1492 2.057 . S
Co1476 O1507 2.037 . S
Co1476 N1511 2.145 . S
Co1476 N1532 2.257 . S
O1477 Co1475 2.143 . S
O1477 Co1476 2.160 . S
C1478 O1479 1.278 . S
C1478 O1486 1.224 . S
O1479 C1478 1.278 . S
C1480 O1481 1.245 . S
C1480 O1492 1.232 . S
O1481 C1480 1.245 . S
O1482 Co1476 2.058 . S
O1482 C1508 1.269 . S
O1483 Co1475 2.074 . S
O1483 C1508 1.257 . S
H1484 C1509 0.930 . S
H1485 C1515 0.930 . S
O1486 Co1475 2.093 . S
O1486 C1478 1.224 . S
H1487 C1519 0.929 . S
H1488 C1521 0.930 . S
H1489 C1522 0.930 . S
H1490 C1520 0.929 . S
H1491 C1523 0.928 . S
O1492 Co1476 2.057 . S
O1492 C1480 1.232 . S
H1493 C1512 0.929 . S
H1494 C1513 0.929 . S
H1495 C1525 0.931 . S
H1496 C1517 0.929 . S
H1497 C1526 0.930 . S
H1498 C1518 0.931 . S
O1499 Co1475 2.097 . S
O1499 C1527 1.214 . S
H1500 C1528 0.929 . S
H1501 C1529 0.929 . S
H1502 C1530 0.930 . S
H1503 C1531 0.929 . S
H1504 C1533 0.930 . S
H1505 C1510 0.930 . S
H1506 C1514 0.930 . S
O1507 Co1476 2.037 . S
O1507 C1527 1.234 . S
C1508 O1482 1.269 . S
C1508 O1483 1.257 . S
C1509 H1484 0.930 . S
C1509 C1512 1.388 . S
C1509 C1514 1.418 . S
C1510 H1505 0.930 . S
C1510 C1513 1.404 . S
C1510 C1514 1.353 . S
N1511 Co1476 2.145 . S
N1511 C1512 1.397 . S
N1511 C1513 1.334 . S
C1512 H1493 0.929 . S
C1512 C1509 1.388 . S
C1512 N1511 1.397 . S
C1513 H1494 0.929 . S
C1513 C1510 1.404 . S
C1513 N1511 1.334 . S
C1514 H1506 0.930 . S
C1514 C1509 1.418 . S
C1514 C1510 1.353 . S
C1515 H1485 0.930 . S
C1515 N1516 1.330 . S
C1515 C1517 1.446 . S
N1516 Co1475 2.151 . S
N1516 C1515 1.330 . S
N1516 C1520 1.418 . S
C1517 H1496 0.929 . S
C1517 C1515 1.446 . S
C1517 C1518 1.332 . S
C1518 H1498 0.931 . S
C1518 C1517 1.332 . S
C1518 C1519 1.267 . S
C1519 H1487 0.929 . S
C1519 C1518 1.267 . S
C1519 C1520 1.251 . S
C1520 H1490 0.929 . S
C1520 N1516 1.418 . S
C1520 C1519 1.251 . S
C1521 H1488 0.930 . S
C1521 C1523 1.406 . S
C1521 C1526 1.261 . S
C1522 H1489 0.930 . S
C1522 N1524 1.325 . S
C1522 C1525 1.357 . S
C1523 H1491 0.928 . S
C1523 C1521 1.406 . S
C1523 N1524 1.261 . S
N1524 Co1475 2.214 . S
N1524 C1522 1.325 . S
N1524 C1523 1.261 . S
C1525 H1495 0.931 . S
C1525 C1522 1.357 . S
C1525 C1526 1.312 . S
C1526 H1497 0.930 . S
C1526 C1521 1.261 . S
C1526 C1525 1.312 . S
C1527 O1499 1.214 . S
C1527 O1507 1.234 . S
C1528 H1500 0.929 . S
C1528 C1531 1.391 . S
C1528 C1533 1.391 . S
C1529 H1501 0.929 . S
C1529 C1530 1.390 . S
C1529 N1532 1.391 . S
C1530 H1502 0.930 . S
C1530 C1529 1.390 . S
C1530 C1531 1.392 . S
C1531 H1503 0.929 . S
C1531 C1528 1.391 . S
C1531 C1530 1.392 . S
N1532 Co1476 2.257 . S
N1532 C1529 1.391 . S
N1532 C1533 1.388 . S
C1533 H1504 0.930 . S
C1533 C1528 1.391 . S
C1533 N1532 1.388 . S
Co1534 O1536 2.143 . S
Co1534 O1542 2.074 . S
Co1534 O1545 2.093 . S
Co1534 O1558 2.097 . S
Co1534 N1575 2.151 . S
Co1534 N1583 2.214 . S
Co1535 O1536 2.160 . S
Co1535 O1541 2.058 . S
Co1535 O1551 2.057 . S
Co1535 O1566 2.037 . S
Co1535 N1570 2.145 . S
Co1535 N1591 2.257 . S
O1536 Co1534 2.143 . S
O1536 Co1535 2.160 . S
C1537 O1538 1.278 . S
C1537 O1545 1.224 . S
O1538 C1537 1.278 . S
C1539 O1540 1.245 . S
C1539 O1551 1.232 . S
O1540 C1539 1.245 . S
O1541 Co1535 2.058 . S
O1541 C1567 1.269 . S
O1542 Co1534 2.074 . S
O1542 C1567 1.257 . S
H1543 C1568 0.930 . S
H1544 C1574 0.930 . S
O1545 Co1534 2.093 . S
O1545 C1537 1.224 . S
H1546 C1578 0.929 . S
H1547 C1580 0.930 . S
H1548 C1581 0.930 . S
H1549 C1579 0.929 . S
H1550 C1582 0.928 . S
O1551 Co1535 2.057 . S
O1551 C1539 1.232 . S
H1552 C1571 0.929 . S
H1553 C1572 0.929 . S
H1554 C1584 0.931 . S
H1555 C1576 0.929 . S
H1556 C1585 0.930 . S
H1557 C1577 0.931 . S
O1558 Co1534 2.097 . S
O1558 C1586 1.214 . S
H1559 C1587 0.929 . S
H1560 C1588 0.929 . S
H1561 C1589 0.930 . S
H1562 C1590 0.929 . S
H1563 C1592 0.930 . S
H1564 C1569 0.930 . S
H1565 C1573 0.930 . S
O1566 Co1535 2.037 . S
O1566 C1586 1.234 . S
C1567 O1541 1.269 . S
C1567 O1542 1.257 . S
C1568 H1543 0.930 . S
C1568 C1571 1.388 . S
C1568 C1573 1.418 . S
C1569 H1564 0.930 . S
C1569 C1572 1.404 . S
C1569 C1573 1.353 . S
N1570 Co1535 2.145 . S
N1570 C1571 1.397 . S
N1570 C1572 1.334 . S
C1571 H1552 0.929 . S
C1571 C1568 1.388 . S
C1571 N1570 1.397 . S
C1572 H1553 0.929 . S
C1572 C1569 1.404 . S
C1572 N1570 1.334 . S
C1573 H1565 0.930 . S
C1573 C1568 1.418 . S
C1573 C1569 1.353 . S
C1574 H1544 0.930 . S
C1574 N1575 1.330 . S
C1574 C1576 1.446 . S
N1575 Co1534 2.151 . S
N1575 C1574 1.330 . S
N1575 C1579 1.418 . S
C1576 H1555 0.929 . S
C1576 C1574 1.446 . S
C1576 C1577 1.332 . S
C1577 H1557 0.931 . S
C1577 C1576 1.332 . S
C1577 C1578 1.267 . S
C1578 H1546 0.929 . S
C1578 C1577 1.267 . S
C1578 C1579 1.251 . S
C1579 H1549 0.929 . S
C1579 N1575 1.418 . S
C1579 C1578 1.251 . S
C1580 H1547 0.930 . S
C1580 C1582 1.406 . S
C1580 C1585 1.261 . S
C1581 H1548 0.930 . S
C1581 N1583 1.325 . S
C1581 C1584 1.357 . S
C1582 H1550 0.928 . S
C1582 C1580 1.406 . S
C1582 N1583 1.261 . S
N1583 Co1534 2.214 . S
N1583 C1581 1.325 . S
N1583 C1582 1.261 . S
C1584 H1554 0.931 . S
C1584 C1581 1.357 . S
C1584 C1585 1.312 . S
C1585 H1556 0.930 . S
C1585 C1580 1.261 . S
C1585 C1584 1.312 . S
C1586 O1558 1.214 . S
C1586 O1566 1.234 . S
C1587 H1559 0.929 . S
C1587 C1590 1.391 . S
C1587 C1592 1.391 . S
C1588 H1560 0.929 . S
C1588 C1589 1.390 . S
C1588 N1591 1.391 . S
C1589 H1561 0.930 . S
C1589 C1588 1.390 . S
C1589 C1590 1.392 . S
C1590 H1562 0.929 . S
C1590 C1587 1.391 . S
C1590 C1589 1.392 . S
N1591 Co1535 2.257 . S
N1591 C1588 1.391 . S
N1591 C1592 1.388 . S
C1592 H1563 0.930 . S
C1592 C1587 1.391 . S
C1592 N1591 1.388 . S
Co1593 O1595 2.143 . S
Co1593 O1601 2.074 . S
Co1593 O1604 2.093 . S
Co1593 O1617 2.097 . S
Co1593 N1634 2.151 . S
Co1593 N1642 2.214 . S
Co1594 O1595 2.160 . S
Co1594 O1600 2.058 . S
Co1594 O1610 2.057 . S
Co1594 O1625 2.037 . S
Co1594 N1629 2.145 . S
Co1594 N1650 2.257 . S
O1595 Co1593 2.143 . S
O1595 Co1594 2.160 . S
C1596 O1597 1.278 . S
C1596 O1604 1.224 . S
O1597 C1596 1.278 . S
C1598 O1599 1.245 . S
C1598 O1610 1.232 . S
O1599 C1598 1.245 . S
O1600 Co1594 2.058 . S
O1600 C1626 1.269 . S
O1601 Co1593 2.074 . S
O1601 C1626 1.257 . S
H1602 C1627 0.930 . S
H1603 C1633 0.930 . S
O1604 Co1593 2.093 . S
O1604 C1596 1.224 . S
H1605 C1637 0.929 . S
H1606 C1639 0.930 . S
H1607 C1640 0.930 . S
H1608 C1638 0.929 . S
H1609 C1641 0.928 . S
O1610 Co1594 2.057 . S
O1610 C1598 1.232 . S
H1611 C1630 0.929 . S
H1612 C1631 0.929 . S
H1613 C1643 0.931 . S
H1614 C1635 0.929 . S
H1615 C1644 0.930 1_556 S
H1616 C1636 0.974 . S
O1617 Co1593 2.097 . S
O1617 C1645 1.214 . S
H1618 C1646 0.929 . S
H1619 C1647 0.929 . S
H1620 C1648 0.930 . S
H1621 C1649 0.929 . S
H1622 C1651 0.930 . S
H1623 C1628 0.930 . S
H1624 C1632 0.930 . S
O1625 Co1594 2.037 . S
O1625 C1645 1.234 . S
C1626 O1600 1.269 . S
C1626 O1601 1.257 . S
C1627 H1602 0.930 . S
C1627 C1630 1.388 . S
C1627 C1632 1.418 . S
C1628 H1623 0.930 . S
C1628 C1631 1.404 . S
C1628 C1632 1.353 . S
N1629 Co1594 2.145 . S
N1629 C1630 1.397 . S
N1629 C1631 1.334 . S
C1630 H1611 0.929 . S
C1630 C1627 1.388 . S
C1630 N1629 1.397 . S
C1631 H1612 0.929 . S
C1631 C1628 1.404 . S
C1631 N1629 1.334 . S
C1632 H1624 0.930 . S
C1632 C1627 1.418 . S
C1632 C1628 1.353 . S
C1633 H1603 0.930 . S
C1633 N1634 1.330 . S
C1633 C1635 1.446 . S
N1634 Co1593 2.151 . S
N1634 C1633 1.330 . S
N1634 C1638 1.418 . S
C1635 H1614 0.929 . S
C1635 C1633 1.446 . S
C1635 C1636 1.332 . S
C1636 H1616 0.974 . S
C1636 C1635 1.332 . S
C1636 C1637 1.267 . S
C1637 H1605 0.929 . S
C1637 C1636 1.267 . S
C1637 C1638 1.251 . S
C1638 H1608 0.929 . S
C1638 N1634 1.418 . S
C1638 C1637 1.251 . S
C1639 H1606 0.930 . S
C1639 C1641 1.406 1_556 S
C1639 C1644 1.261 1_556 S
C1640 H1607 0.930 . S
C1640 N1642 1.325 . S
C1640 C1643 1.357 . S
C1641 H1609 0.928 . S
C1641 C1639 1.406 1_554 S
C1641 N1642 1.261 . S
N1642 Co1593 2.214 . S
N1642 C1640 1.325 . S
N1642 C1641 1.261 . S
C1643 H1613 0.931 . S
C1643 C1640 1.357 . S
C1643 C1644 1.312 . S
C1644 H1615 0.930 1_554 S
C1644 C1639 1.261 1_554 S
C1644 C1643 1.312 . S
C1645 O1617 1.214 . S
C1645 O1625 1.234 . S
C1646 H1618 0.929 . S
C1646 C1649 1.391 . S
C1646 C1651 1.391 . S
C1647 H1619 0.929 . S
C1647 C1648 1.390 . S
C1647 N1650 1.391 . S
C1648 H1620 0.930 . S
C1648 C1647 1.390 . S
C1648 C1649 1.392 . S
C1649 H1621 0.929 . S
C1649 C1646 1.391 . S
C1649 C1648 1.392 . S
N1650 Co1594 2.257 . S
N1650 C1647 1.391 . S
N1650 C1651 1.388 . S
C1651 H1622 0.930 . S
C1651 C1646 1.391 . S
C1651 N1650 1.388 . S
Co1652 O1654 2.143 . S
Co1652 O1660 2.074 . S
Co1652 O1663 2.093 . S
Co1652 O1676 2.097 . S
Co1652 N1693 2.151 . S
Co1652 N1701 2.214 . S
Co1653 O1654 2.160 . S
Co1653 O1659 2.058 . S
Co1653 O1669 2.057 . S
Co1653 O1684 2.037 . S
Co1653 N1688 2.145 . S
Co1653 N1709 2.257 . S
O1654 Co1652 2.143 . S
O1654 Co1653 2.160 . S
C1655 O1656 1.278 . S
C1655 O1663 1.224 . S
O1656 C1655 1.278 . S
C1657 O1658 1.245 . S
C1657 O1669 1.232 . S
O1658 C1657 1.245 . S
O1659 Co1653 2.058 . S
O1659 C1685 1.269 . S
O1660 Co1652 2.074 . S
O1660 C1685 1.257 . S
H1661 C1686 0.930 . S
H1662 C1692 0.930 . S
O1663 Co1652 2.093 . S
O1663 C1655 1.224 . S
H1664 C1696 0.929 . S
H1665 C1698 0.930 . S
H1666 C1699 0.930 . S
H1667 C1697 0.929 . S
H1668 C1700 0.928 . S
O1669 Co1653 2.057 . S
O1669 C1657 1.232 . S
H1670 C1689 0.929 . S
H1671 C1690 0.929 . S
H1672 C1702 0.931 . S
H1673 C1694 0.929 . S
H1674 C1703 0.930 1_556 S
H1675 C1695 0.974 . S
O1676 Co1652 2.097 . S
O1676 C1704 1.214 . S
H1677 C1705 0.929 . S
H1678 C1706 0.929 . S
H1679 C1707 0.930 . S
H1680 C1708 0.929 . S
H1681 C1710 0.930 . S
H1682 C1687 0.930 . S
H1683 C1691 0.930 . S
O1684 Co1653 2.037 . S
O1684 C1704 1.234 . S
C1685 O1659 1.269 . S
C1685 O1660 1.257 . S
C1686 H1661 0.930 . S
C1686 C1689 1.388 . S
C1686 C1691 1.418 . S
C1687 H1682 0.930 . S
C1687 C1690 1.404 . S
C1687 C1691 1.353 . S
N1688 Co1653 2.145 . S
N1688 C1689 1.397 . S
N1688 C1690 1.334 . S
C1689 H1670 0.929 . S
C1689 C1686 1.388 . S
C1689 N1688 1.397 . S
C1690 H1671 0.929 . S
C1690 C1687 1.404 . S
C1690 N1688 1.334 . S
C1691 H1683 0.930 . S
C1691 C1686 1.418 . S
C1691 C1687 1.353 . S
C1692 H1662 0.930 . S
C1692 N1693 1.330 . S
C1692 C1694 1.446 . S
N1693 Co1652 2.151 . S
N1693 C1692 1.330 . S
N1693 C1697 1.418 . S
C1694 H1673 0.929 . S
C1694 C1692 1.446 . S
C1694 C1695 1.332 . S
C1695 H1675 0.974 . S
C1695 C1694 1.332 . S
C1695 C1696 1.267 . S
C1696 H1664 0.929 . S
C1696 C1695 1.267 . S
C1696 C1697 1.251 . S
C1697 H1667 0.929 . S
C1697 N1693 1.418 . S
C1697 C1696 1.251 . S
C1698 H1665 0.930 . S
C1698 C1700 1.406 1_556 S
C1698 C1703 1.261 1_556 S
C1699 H1666 0.930 . S
C1699 N1701 1.325 . S
C1699 C1702 1.357 . S
C1700 H1668 0.928 . S
C1700 C1698 1.406 1_554 S
C1700 N1701 1.261 . S
N1701 Co1652 2.214 . S
N1701 C1699 1.325 . S
N1701 C1700 1.261 . S
C1702 H1672 0.931 . S
C1702 C1699 1.357 . S
C1702 C1703 1.312 . S
C1703 H1674 0.930 1_554 S
C1703 C1698 1.261 1_554 S
C1703 C1702 1.312 . S
C1704 O1676 1.214 . S
C1704 O1684 1.234 . S
C1705 H1677 0.929 . S
C1705 C1708 1.391 . S
C1705 C1710 1.391 . S
C1706 H1678 0.929 . S
C1706 C1707 1.390 . S
C1706 N1709 1.391 . S
C1707 H1679 0.930 . S
C1707 C1706 1.390 . S
C1707 C1708 1.392 . S
C1708 H1680 0.929 . S
C1708 C1705 1.391 . S
C1708 C1707 1.392 . S
N1709 Co1653 2.257 . S
N1709 C1706 1.391 . S
N1709 C1710 1.388 . S
C1710 H1681 0.930 . S
C1710 C1705 1.391 . S
C1710 N1709 1.388 . S
Co1711 O1713 2.143 . S
Co1711 O1719 2.074 . S
Co1711 O1722 2.093 . S
Co1711 O1735 2.097 . S
Co1711 N1752 2.151 . S
Co1711 N1760 2.214 . S
Co1712 O1713 2.160 . S
Co1712 O1718 2.058 . S
Co1712 O1728 2.057 . S
Co1712 O1743 2.037 . S
Co1712 N1747 2.145 . S
Co1712 N1768 2.257 . S
O1713 Co1711 2.143 . S
O1713 Co1712 2.160 . S
C1714 O1715 1.278 . S
C1714 O1722 1.224 . S
O1715 C1714 1.278 . S
C1716 O1717 1.245 . S
C1716 O1728 1.232 . S
O1717 C1716 1.245 . S
O1718 Co1712 2.058 . S
O1718 C1744 1.269 . S
O1719 Co1711 2.074 . S
O1719 C1744 1.257 . S
H1720 C1745 0.930 . S
H1721 C1751 0.930 . S
O1722 Co1711 2.093 . S
O1722 C1714 1.224 . S
H1723 C1755 0.929 . S
H1724 C1757 0.930 . S
H1725 C1758 0.930 . S
H1726 C1756 0.929 . S
H1727 C1759 0.928 . S
O1728 Co1712 2.057 . S
O1728 C1716 1.232 . S
H1729 C1748 0.929 . S
H1730 C1749 0.929 . S
H1731 C1761 0.931 . S
H1732 C1753 0.929 . S
H1733 C1762 0.930 1_556 S
H1734 C1754 0.974 . S
O1735 Co1711 2.097 . S
O1735 C1763 1.214 . S
H1736 C1764 0.929 . S
H1737 C1765 0.929 . S
H1738 C1766 0.930 . S
H1739 C1767 0.929 . S
H1740 C1769 0.930 . S
H1741 C1746 0.930 . S
H1742 C1750 0.930 . S
O1743 Co1712 2.037 . S
O1743 C1763 1.234 . S
C1744 O1718 1.269 . S
C1744 O1719 1.257 . S
C1745 H1720 0.930 . S
C1745 C1748 1.388 . S
C1745 C1750 1.418 . S
C1746 H1741 0.930 . S
C1746 C1749 1.404 . S
C1746 C1750 1.353 . S
N1747 Co1712 2.145 . S
N1747 C1748 1.397 . S
N1747 C1749 1.334 . S
C1748 H1729 0.929 . S
C1748 C1745 1.388 . S
C1748 N1747 1.397 . S
C1749 H1730 0.929 . S
C1749 C1746 1.404 . S
C1749 N1747 1.334 . S
C1750 H1742 0.930 . S
C1750 C1745 1.418 . S
C1750 C1746 1.353 . S
C1751 H1721 0.930 . S
C1751 N1752 1.330 . S
C1751 C1753 1.446 . S
N1752 Co1711 2.151 . S
N1752 C1751 1.330 . S
N1752 C1756 1.418 . S
C1753 H1732 0.929 . S
C1753 C1751 1.446 . S
C1753 C1754 1.332 . S
C1754 H1734 0.974 . S
C1754 C1753 1.332 . S
C1754 C1755 1.267 . S
C1755 H1723 0.929 . S
C1755 C1754 1.267 . S
C1755 C1756 1.251 . S
C1756 H1726 0.929 . S
C1756 N1752 1.418 . S
C1756 C1755 1.251 . S
C1757 H1724 0.930 . S
C1757 C1759 1.406 1_556 S
C1757 C1762 1.261 1_556 S
C1758 H1725 0.930 . S
C1758 N1760 1.325 . S
C1758 C1761 1.357 . S
C1759 H1727 0.928 . S
C1759 C1757 1.406 1_554 S
C1759 N1760 1.261 . S
N1760 Co1711 2.214 . S
N1760 C1758 1.325 . S
N1760 C1759 1.261 . S
C1761 H1731 0.931 . S
C1761 C1758 1.357 . S
C1761 C1762 1.312 . S
C1762 H1733 0.930 1_554 S
C1762 C1757 1.261 1_554 S
C1762 C1761 1.312 . S
C1763 O1735 1.214 . S
C1763 O1743 1.234 . S
C1764 H1736 0.929 . S
C1764 C1767 1.391 . S
C1764 C1769 1.391 . S
C1765 H1737 0.929 . S
C1765 C1766 1.390 . S
C1765 N1768 1.391 . S
C1766 H1738 0.930 . S
C1766 C1765 1.390 . S
C1766 C1767 1.392 . S
C1767 H1739 0.929 . S
C1767 C1764 1.391 . S
C1767 C1766 1.392 . S
N1768 Co1712 2.257 . S
N1768 C1765 1.391 . S
N1768 C1769 1.388 . S
C1769 H1740 0.930 . S
C1769 C1764 1.391 . S
C1769 N1768 1.388 . S
Co1770 O1772 2.143 . S
Co1770 O1778 2.074 . S
Co1770 O1781 2.093 . S
Co1770 O1794 2.097 . S
Co1770 N1811 2.151 . S
Co1770 N1819 2.214 . S
Co1771 O1772 2.160 . S
Co1771 O1777 2.058 . S
Co1771 O1787 2.057 . S
Co1771 O1802 2.037 . S
Co1771 N1806 2.145 . S
Co1771 N1827 2.257 . S
O1772 Co1770 2.143 . S
O1772 Co1771 2.160 . S
C1773 O1774 1.278 . S
C1773 O1781 1.224 . S
O1774 C1773 1.278 . S
C1775 O1776 1.245 . S
C1775 O1787 1.232 . S
O1776 C1775 1.245 . S
O1777 Co1771 2.058 . S
O1777 C1803 1.269 . S
O1778 Co1770 2.074 . S
O1778 C1803 1.257 . S
H1779 C1804 0.930 . S
H1780 C1810 0.930 . S
O1781 Co1770 2.093 . S
O1781 C1773 1.224 . S
H1782 C1814 0.929 . S
H1783 C1816 0.930 . S
H1784 C1817 0.930 . S
H1785 C1815 0.929 . S
H1786 C1818 0.928 . S
O1787 Co1771 2.057 . S
O1787 C1775 1.232 . S
H1788 C1807 0.929 . S
H1789 C1808 0.929 . S
H1790 C1820 0.931 . S
H1791 C1812 0.929 . S
H1792 C1821 0.930 . S
H1793 C1813 0.931 . S
O1794 Co1770 2.097 . S
O1794 C1822 1.214 . S
H1795 C1823 0.929 . S
H1796 C1824 0.929 . S
H1797 C1825 0.930 . S
H1798 C1826 0.929 . S
H1799 C1828 0.930 . S
H1800 C1805 0.930 . S
H1801 C1809 0.930 . S
O1802 Co1771 2.037 . S
O1802 C1822 1.234 . S
C1803 O1777 1.269 . S
C1803 O1778 1.257 . S
C1804 H1779 0.930 . S
C1804 C1807 1.388 . S
C1804 C1809 1.418 . S
C1805 H1800 0.930 . S
C1805 C1808 1.404 . S
C1805 C1809 1.353 . S
N1806 Co1771 2.145 . S
N1806 C1807 1.397 . S
N1806 C1808 1.334 . S
C1807 H1788 0.929 . S
C1807 C1804 1.388 . S
C1807 N1806 1.397 . S
C1808 H1789 0.929 . S
C1808 C1805 1.404 . S
C1808 N1806 1.334 . S
C1809 H1801 0.930 . S
C1809 C1804 1.418 . S
C1809 C1805 1.353 . S
C1810 H1780 0.930 . S
C1810 N1811 1.330 . S
C1810 C1812 1.446 . S
N1811 Co1770 2.151 . S
N1811 C1810 1.330 . S
N1811 C1815 1.418 . S
C1812 H1791 0.929 . S
C1812 C1810 1.446 . S
C1812 C1813 1.332 . S
C1813 H1793 0.931 . S
C1813 C1812 1.332 . S
C1813 C1814 1.267 . S
C1814 H1782 0.929 . S
C1814 C1813 1.267 . S
C1814 C1815 1.251 . S
C1815 H1785 0.929 . S
C1815 N1811 1.418 . S
C1815 C1814 1.251 . S
C1816 H1783 0.930 . S
C1816 C1818 1.406 . S
C1816 C1821 1.261 . S
C1817 H1784 0.930 . S
C1817 N1819 1.325 . S
C1817 C1820 1.357 . S
C1818 H1786 0.928 . S
C1818 C1816 1.406 . S
C1818 N1819 1.261 . S
N1819 Co1770 2.214 . S
N1819 C1817 1.325 . S
N1819 C1818 1.261 . S
C1820 H1790 0.931 . S
C1820 C1817 1.357 . S
C1820 C1821 1.312 . S
C1821 H1792 0.930 . S
C1821 C1816 1.261 . S
C1821 C1820 1.312 . S
C1822 O1794 1.214 . S
C1822 O1802 1.234 . S
C1823 H1795 0.929 . S
C1823 C1826 1.391 . S
C1823 C1828 1.391 . S
C1824 H1796 0.929 . S
C1824 C1825 1.390 . S
C1824 N1827 1.391 . S
C1825 H1797 0.930 . S
C1825 C1824 1.390 . S
C1825 C1826 1.392 . S
C1826 H1798 0.929 . S
C1826 C1823 1.391 . S
C1826 C1825 1.392 . S
N1827 Co1771 2.257 . S
N1827 C1824 1.391 . S
N1827 C1828 1.388 . S
C1828 H1799 0.930 . S
C1828 C1823 1.391 . S
C1828 N1827 1.388 . S
Co1829 O1831 2.143 . S
Co1829 O1837 2.074 . S
Co1829 O1840 2.093 . S
Co1829 O1853 2.097 . S
Co1829 N1870 2.151 . S
Co1829 N1878 2.214 . S
Co1830 O1831 2.160 . S
Co1830 O1836 2.058 . S
Co1830 O1846 2.057 . S
Co1830 O1861 2.037 . S
Co1830 N1865 2.145 . S
Co1830 N1886 2.257 . S
O1831 Co1829 2.143 . S
O1831 Co1830 2.160 . S
C1832 O1833 1.278 . S
C1832 O1840 1.224 . S
O1833 C1832 1.278 . S
C1834 O1835 1.245 . S
C1834 O1846 1.232 . S
O1835 C1834 1.245 . S
O1836 Co1830 2.058 . S
O1836 C1862 1.269 . S
O1837 Co1829 2.074 . S
O1837 C1862 1.257 . S
H1838 C1863 0.930 . S
H1839 C1869 0.930 . S
O1840 Co1829 2.093 . S
O1840 C1832 1.224 . S
H1841 C1873 0.929 . S
H1842 C1875 0.930 . S
H1843 C1876 0.930 . S
H1844 C1874 0.929 . S
H1845 C1877 0.928 . S
O1846 Co1830 2.057 . S
O1846 C1834 1.232 . S
H1847 C1866 0.929 . S
H1848 C1867 0.929 . S
H1849 C1879 0.931 . S
H1850 C1871 0.929 . S
H1851 C1880 0.930 . S
H1852 C1872 0.931 . S
O1853 Co1829 2.097 . S
O1853 C1881 1.214 . S
H1854 C1882 0.929 . S
H1855 C1883 0.929 . S
H1856 C1884 0.930 . S
H1857 C1885 0.929 . S
H1858 C1887 0.930 . S
H1859 C1864 0.930 . S
H1860 C1868 0.930 . S
O1861 Co1830 2.037 . S
O1861 C1881 1.234 . S
C1862 O1836 1.269 . S
C1862 O1837 1.257 . S
C1863 H1838 0.930 . S
C1863 C1866 1.388 . S
C1863 C1868 1.418 . S
C1864 H1859 0.930 . S
C1864 C1867 1.404 . S
C1864 C1868 1.353 . S
N1865 Co1830 2.145 . S
N1865 C1866 1.397 . S
N1865 C1867 1.334 . S
C1866 H1847 0.929 . S
C1866 C1863 1.388 . S
C1866 N1865 1.397 . S
C1867 H1848 0.929 . S
C1867 C1864 1.404 . S
C1867 N1865 1.334 . S
C1868 H1860 0.930 . S
C1868 C1863 1.418 . S
C1868 C1864 1.353 . S
C1869 H1839 0.930 . S
C1869 N1870 1.330 . S
C1869 C1871 1.446 . S
N1870 Co1829 2.151 . S
N1870 C1869 1.330 . S
N1870 C1874 1.418 . S
C1871 H1850 0.929 . S
C1871 C1869 1.446 . S
C1871 C1872 1.332 . S
C1872 H1852 0.931 . S
C1872 C1871 1.332 . S
C1872 C1873 1.267 . S
C1873 H1841 0.929 . S
C1873 C1872 1.267 . S
C1873 C1874 1.251 . S
C1874 H1844 0.929 . S
C1874 N1870 1.418 . S
C1874 C1873 1.251 . S
C1875 H1842 0.930 . S
C1875 C1877 1.406 . S
C1875 C1880 1.261 . S
C1876 H1843 0.930 . S
C1876 N1878 1.325 . S
C1876 C1879 1.357 . S
C1877 H1845 0.928 . S
C1877 C1875 1.406 . S
C1877 N1878 1.261 . S
N1878 Co1829 2.214 . S
N1878 C1876 1.325 . S
N1878 C1877 1.261 . S
C1879 H1849 0.931 . S
C1879 C1876 1.357 . S
C1879 C1880 1.312 . S
C1880 H1851 0.930 . S
C1880 C1875 1.261 . S
C1880 C1879 1.312 . S
C1881 O1853 1.214 . S
C1881 O1861 1.234 . S
C1882 H1854 0.929 . S
C1882 C1885 1.391 . S
C1882 C1887 1.391 . S
C1883 H1855 0.929 . S
C1883 C1884 1.390 . S
C1883 N1886 1.391 . S
C1884 H1856 0.930 . S
C1884 C1883 1.390 . S
C1884 C1885 1.392 . S
C1885 H1857 0.929 . S
C1885 C1882 1.391 . S
C1885 C1884 1.392 . S
N1886 Co1830 2.257 . S
N1886 C1883 1.391 . S
N1886 C1887 1.388 . S
C1887 H1858 0.930 . S
C1887 C1882 1.391 . S
C1887 N1886 1.388 . S
Co1888 O1890 2.143 . S
Co1888 O1896 2.074 . S
Co1888 O1899 2.093 . S
Co1888 O1912 2.097 . S
Co1888 N1929 2.151 . S
Co1888 N1937 2.214 . S
Co1889 O1890 2.160 . S
Co1889 O1895 2.058 . S
Co1889 O1905 2.057 . S
Co1889 O1920 2.037 . S
Co1889 N1924 2.145 . S
Co1889 N1945 2.257 . S
O1890 Co1888 2.143 . S
O1890 Co1889 2.160 . S
C1891 O1892 1.278 . S
C1891 O1899 1.224 . S
O1892 C1891 1.278 . S
C1893 O1894 1.245 . S
C1893 O1905 1.232 . S
O1894 C1893 1.245 . S
O1895 Co1889 2.058 . S
O1895 C1921 1.269 . S
O1896 Co1888 2.074 . S
O1896 C1921 1.257 . S
H1897 C1922 0.930 . S
H1898 C1928 0.930 . S
O1899 Co1888 2.093 . S
O1899 C1891 1.224 . S
H1900 C1932 0.929 . S
H1901 C1934 0.930 . S
H1902 C1935 0.930 . S
H1903 C1933 0.929 . S
H1904 C1936 0.928 . S
O1905 Co1889 2.057 . S
O1905 C1893 1.232 . S
H1906 C1925 0.929 . S
H1907 C1926 0.929 . S
H1908 C1938 0.931 . S
H1909 C1930 0.929 . S
H1910 C1939 0.930 . S
H1911 C1931 0.931 . S
O1912 Co1888 2.097 . S
O1912 C1940 1.214 . S
H1913 C1941 0.929 . S
H1914 C1942 0.929 . S
H1915 C1943 0.930 . S
H1916 C1944 0.929 . S
H1917 C1946 0.930 . S
H1918 C1923 0.930 . S
H1919 C1927 0.930 . S
O1920 Co1889 2.037 . S
O1920 C1940 1.234 . S
C1921 O1895 1.269 . S
C1921 O1896 1.257 . S
C1922 H1897 0.930 . S
C1922 C1925 1.388 . S
C1922 C1927 1.418 . S
C1923 H1918 0.930 . S
C1923 C1926 1.404 . S
C1923 C1927 1.353 . S
N1924 Co1889 2.145 . S
N1924 C1925 1.397 . S
N1924 C1926 1.334 . S
C1925 H1906 0.929 . S
C1925 C1922 1.388 . S
C1925 N1924 1.397 . S
C1926 H1907 0.929 . S
C1926 C1923 1.404 . S
C1926 N1924 1.334 . S
C1927 H1919 0.930 . S
C1927 C1922 1.418 . S
C1927 C1923 1.353 . S
C1928 H1898 0.930 . S
C1928 N1929 1.330 . S
C1928 C1930 1.446 . S
N1929 Co1888 2.151 . S
N1929 C1928 1.330 . S
N1929 C1933 1.418 . S
C1930 H1909 0.929 . S
C1930 C1928 1.446 . S
C1930 C1931 1.332 . S
C1931 H1911 0.931 . S
C1931 C1930 1.332 . S
C1931 C1932 1.267 . S
C1932 H1900 0.929 . S
C1932 C1931 1.267 . S
C1932 C1933 1.251 . S
C1933 H1903 0.929 . S
C1933 N1929 1.418 . S
C1933 C1932 1.251 . S
C1934 H1901 0.930 . S
C1934 C1936 1.406 . S
C1934 C1939 1.261 . S
C1935 H1902 0.930 . S
C1935 N1937 1.325 . S
C1935 C1938 1.357 . S
C1936 H1904 0.928 . S
C1936 C1934 1.406 . S
C1936 N1937 1.261 . S
N1937 Co1888 2.214 . S
N1937 C1935 1.325 . S
N1937 C1936 1.261 . S
C1938 H1908 0.931 . S
C1938 C1935 1.357 . S
C1938 C1939 1.312 . S
C1939 H1910 0.930 . S
C1939 C1934 1.261 . S
C1939 C1938 1.312 . S
C1940 O1912 1.214 . S
C1940 O1920 1.234 . S
C1941 H1913 0.929 . S
C1941 C1944 1.391 . S
C1941 C1946 1.391 . S
C1942 H1914 0.929 . S
C1942 C1943 1.390 . S
C1942 N1945 1.391 . S
C1943 H1915 0.930 . S
C1943 C1942 1.390 . S
C1943 C1944 1.392 . S
C1944 H1916 0.929 . S
C1944 C1941 1.391 . S
C1944 C1943 1.392 . S
N1945 Co1889 2.257 . S
N1945 C1942 1.391 . S
N1945 C1946 1.388 . S
C1946 H1917 0.930 . S
C1946 C1941 1.391 . S
C1946 N1945 1.388 . S
Co1947 O1949 2.143 . S
Co1947 O1955 2.074 . S
Co1947 O1958 2.093 . S
Co1947 O1971 2.097 . S
Co1947 N1988 2.151 . S
Co1947 N1996 2.214 . S
Co1948 O1949 2.160 . S
Co1948 O1954 2.058 . S
Co1948 O1964 2.057 . S
Co1948 O1979 2.037 . S
Co1948 N1983 2.145 . S
Co1948 N2004 2.257 . S
O1949 Co1947 2.143 . S
O1949 Co1948 2.160 . S
C1950 O1951 1.278 . S
C1950 O1958 1.224 . S
O1951 C1950 1.278 . S
C1952 O1953 1.245 . S
C1952 O1964 1.232 . S
O1953 C1952 1.245 . S
O1954 Co1948 2.058 . S
O1954 C1980 1.269 . S
O1955 Co1947 2.074 . S
O1955 C1980 1.257 . S
H1956 C1981 0.930 . S
H1957 C1987 0.930 . S
O1958 Co1947 2.093 . S
O1958 C1950 1.224 . S
H1959 C1991 0.929 . S
H1960 C1993 0.930 . S
H1961 C1994 0.930 . S
H1962 C1992 0.929 . S
H1963 C1995 0.928 . S
O1964 Co1948 2.057 . S
O1964 C1952 1.232 . S
H1965 C1984 0.929 . S
H1966 C1985 0.929 . S
H1967 C1997 0.931 . S
H1968 C1989 0.929 . S
H1969 C1998 0.930 . S
H1970 C1990 0.931 . S
O1971 Co1947 2.097 . S
O1971 C1999 1.214 . S
H1972 C2000 0.929 . S
H1973 C2001 0.929 . S
H1974 C2002 0.930 . S
H1975 C2003 0.929 . S
H1976 C2005 0.930 . S
H1977 C1982 0.930 . S
H1978 C1986 0.930 . S
O1979 Co1948 2.037 . S
O1979 C1999 1.234 . S
C1980 O1954 1.269 . S
C1980 O1955 1.257 . S
C1981 H1956 0.930 . S
C1981 C1984 1.388 . S
C1981 C1986 1.418 . S
C1982 H1977 0.930 . S
C1982 C1985 1.404 . S
C1982 C1986 1.353 . S
N1983 Co1948 2.145 . S
N1983 C1984 1.397 . S
N1983 C1985 1.334 . S
C1984 H1965 0.929 . S
C1984 C1981 1.388 . S
C1984 N1983 1.397 . S
C1985 H1966 0.929 . S
C1985 C1982 1.404 . S
C1985 N1983 1.334 . S
C1986 H1978 0.930 . S
C1986 C1981 1.418 . S
C1986 C1982 1.353 . S
C1987 H1957 0.930 . S
C1987 N1988 1.330 . S
C1987 C1989 1.446 . S
N1988 Co1947 2.151 . S
N1988 C1987 1.330 . S
N1988 C1992 1.418 . S
C1989 H1968 0.929 . S
C1989 C1987 1.446 . S
C1989 C1990 1.332 . S
C1990 H1970 0.931 . S
C1990 C1989 1.332 . S
C1990 C1991 1.267 . S
C1991 H1959 0.929 . S
C1991 C1990 1.267 . S
C1991 C1992 1.251 . S
C1992 H1962 0.929 . S
C1992 N1988 1.418 . S
C1992 C1991 1.251 . S
C1993 H1960 0.930 . S
C1993 C1995 1.406 . S
C1993 C1998 1.261 . S
C1994 H1961 0.930 . S
C1994 N1996 1.325 . S
C1994 C1997 1.357 . S
C1995 H1963 0.928 . S
C1995 C1993 1.406 . S
C1995 N1996 1.261 . S
N1996 Co1947 2.214 . S
N1996 C1994 1.325 . S
N1996 C1995 1.261 . S
C1997 H1967 0.931 . S
C1997 C1994 1.357 . S
C1997 C1998 1.312 . S
C1998 H1969 0.930 . S
C1998 C1993 1.261 . S
C1998 C1997 1.312 . S
C1999 O1971 1.214 . S
C1999 O1979 1.234 . S
C2000 H1972 0.929 . S
C2000 C2003 1.391 . S
C2000 C2005 1.391 . S
C2001 H1973 0.929 . S
C2001 C2002 1.390 . S
C2001 N2004 1.391 . S
C2002 H1974 0.930 . S
C2002 C2001 1.390 . S
C2002 C2003 1.392 . S
C2003 H1975 0.929 . S
C2003 C2000 1.391 . S
C2003 C2002 1.392 . S
N2004 Co1948 2.257 . S
N2004 C2001 1.391 . S
N2004 C2005 1.388 . S
C2005 H1976 0.930 . S
C2005 C2000 1.391 . S
C2005 N2004 1.388 . S
Co2006 O2008 2.143 . S
Co2006 O2014 2.074 . S
Co2006 O2017 2.093 . S
Co2006 O2030 2.097 . S
Co2006 N2047 2.151 . S
Co2006 N2055 2.214 . S
Co2007 O2008 2.160 . S
Co2007 O2013 2.058 . S
Co2007 O2023 2.057 . S
Co2007 O2038 2.037 . S
Co2007 N2042 2.145 . S
Co2007 N2063 2.257 . S
O2008 Co2006 2.143 . S
O2008 Co2007 2.160 . S
C2009 O2010 1.278 . S
C2009 O2017 1.224 . S
O2010 C2009 1.278 . S
C2011 O2012 1.245 . S
C2011 O2023 1.232 . S
O2012 C2011 1.245 . S
O2013 Co2007 2.058 . S
O2013 C2039 1.269 . S
O2014 Co2006 2.074 . S
O2014 C2039 1.257 . S
H2015 C2040 0.930 . S
H2016 C2046 0.930 . S
O2017 Co2006 2.093 . S
O2017 C2009 1.224 . S
H2018 C2050 0.929 . S
H2019 C2052 0.930 . S
H2020 C2053 0.930 . S
H2021 C2051 0.929 . S
H2022 C2054 0.928 . S
O2023 Co2007 2.057 . S
O2023 C2011 1.232 . S
H2024 C2043 0.929 . S
H2025 C2044 0.929 . S
H2026 C2056 0.931 . S
H2027 C2048 0.929 . S
H2028 C2057 0.930 . S
H2029 C2049 0.931 . S
O2030 Co2006 2.097 . S
O2030 C2058 1.214 . S
H2031 C2059 0.929 . S
H2032 C2060 0.929 . S
H2033 C2061 0.930 . S
H2034 C2062 0.929 . S
H2035 C2064 0.930 . S
H2036 C2041 0.930 . S
H2037 C2045 0.930 . S
O2038 Co2007 2.037 . S
O2038 C2058 1.234 . S
C2039 O2013 1.269 . S
C2039 O2014 1.257 . S
C2040 H2015 0.930 . S
C2040 C2043 1.388 . S
C2040 C2045 1.418 . S
C2041 H2036 0.930 . S
C2041 C2044 1.404 . S
C2041 C2045 1.353 . S
N2042 Co2007 2.145 . S
N2042 C2043 1.397 . S
N2042 C2044 1.334 . S
C2043 H2024 0.929 . S
C2043 C2040 1.388 . S
C2043 N2042 1.397 . S
C2044 H2025 0.929 . S
C2044 C2041 1.404 . S
C2044 N2042 1.334 . S
C2045 H2037 0.930 . S
C2045 C2040 1.418 . S
C2045 C2041 1.353 . S
C2046 H2016 0.930 . S
C2046 N2047 1.330 . S
C2046 C2048 1.446 . S
N2047 Co2006 2.151 . S
N2047 C2046 1.330 . S
N2047 C2051 1.418 . S
C2048 H2027 0.929 . S
C2048 C2046 1.446 . S
C2048 C2049 1.332 . S
C2049 H2029 0.931 . S
C2049 C2048 1.332 . S
C2049 C2050 1.267 . S
C2050 H2018 0.929 . S
C2050 C2049 1.267 . S
C2050 C2051 1.251 . S
C2051 H2021 0.929 . S
C2051 N2047 1.418 . S
C2051 C2050 1.251 . S
C2052 H2019 0.930 . S
C2052 C2054 1.406 . S
C2052 C2057 1.261 . S
C2053 H2020 0.930 . S
C2053 N2055 1.325 . S
C2053 C2056 1.357 . S
C2054 H2022 0.928 . S
C2054 C2052 1.406 . S
C2054 N2055 1.261 . S
N2055 Co2006 2.214 . S
N2055 C2053 1.325 . S
N2055 C2054 1.261 . S
C2056 H2026 0.931 . S
C2056 C2053 1.357 . S
C2056 C2057 1.312 . S
C2057 H2028 0.930 . S
C2057 C2052 1.261 . S
C2057 C2056 1.312 . S
C2058 O2030 1.214 . S
C2058 O2038 1.234 . S
C2059 H2031 0.929 . S
C2059 C2062 1.391 . S
C2059 C2064 1.391 . S
C2060 H2032 0.929 . S
C2060 C2061 1.390 . S
C2060 N2063 1.391 . S
C2061 H2033 0.930 . S
C2061 C2060 1.390 . S
C2061 C2062 1.392 . S
C2062 H2034 0.929 . S
C2062 C2059 1.391 . S
C2062 C2061 1.392 . S
N2063 Co2007 2.257 . S
N2063 C2060 1.391 . S
N2063 C2064 1.388 . S
C2064 H2035 0.930 . S
C2064 C2059 1.391 . S
C2064 N2063 1.388 . S
Co2065 O2067 2.143 . S
Co2065 O2073 2.074 . S
Co2065 O2076 2.093 . S
Co2065 O2089 2.097 . S
Co2065 N2106 2.151 . S
Co2065 N2114 2.214 . S
Co2066 O2067 2.160 . S
Co2066 O2072 2.058 . S
Co2066 O2082 2.057 . S
Co2066 O2097 2.037 . S
Co2066 N2101 2.145 . S
Co2066 N2122 2.257 . S
O2067 Co2065 2.143 . S
O2067 Co2066 2.160 . S
C2068 O2069 1.278 . S
C2068 O2076 1.224 . S
O2069 C2068 1.278 . S
C2070 O2071 1.245 . S
C2070 O2082 1.232 . S
O2071 C2070 1.245 . S
O2072 Co2066 2.058 . S
O2072 C2098 1.269 . S
O2073 Co2065 2.074 . S
O2073 C2098 1.257 . S
H2074 C2099 0.930 . S
H2075 C2105 0.930 . S
O2076 Co2065 2.093 . S
O2076 C2068 1.224 . S
H2077 C2109 0.929 . S
H2078 C2111 0.930 . S
H2079 C2112 0.930 . S
H2080 C2110 0.929 . S
H2081 C2113 0.928 . S
O2082 Co2066 2.057 . S
O2082 C2070 1.232 . S
H2083 C2102 0.929 . S
H2084 C2103 0.929 . S
H2085 C2115 0.931 . S
H2086 C2107 0.929 . S
H2087 C2116 0.930 . S
H2088 C2108 0.931 . S
O2089 Co2065 2.097 . S
O2089 C2117 1.214 . S
H2090 C2118 0.929 . S
H2091 C2119 0.929 . S
H2092 C2120 0.930 . S
H2093 C2121 0.929 . S
H2094 C2123 0.930 . S
H2095 C2100 0.930 . S
H2096 C2104 0.930 . S
O2097 Co2066 2.037 . S
O2097 C2117 1.234 . S
C2098 O2072 1.269 . S
C2098 O2073 1.257 . S
C2099 H2074 0.930 . S
C2099 C2102 1.388 . S
C2099 C2104 1.418 . S
C2100 H2095 0.930 . S
C2100 C2103 1.404 . S
C2100 C2104 1.353 . S
N2101 Co2066 2.145 . S
N2101 C2102 1.397 . S
N2101 C2103 1.334 . S
C2102 H2083 0.929 . S
C2102 C2099 1.388 . S
C2102 N2101 1.397 . S
C2103 H2084 0.929 . S
C2103 C2100 1.404 . S
C2103 N2101 1.334 . S
C2104 H2096 0.930 . S
C2104 C2099 1.418 . S
C2104 C2100 1.353 . S
C2105 H2075 0.930 . S
C2105 N2106 1.330 . S
C2105 C2107 1.446 . S
N2106 Co2065 2.151 . S
N2106 C2105 1.330 . S
N2106 C2110 1.418 . S
C2107 H2086 0.929 . S
C2107 C2105 1.446 . S
C2107 C2108 1.332 . S
C2108 H2088 0.931 . S
C2108 C2107 1.332 . S
C2108 C2109 1.267 . S
C2109 H2077 0.929 . S
C2109 C2108 1.267 . S
C2109 C2110 1.251 . S
C2110 H2080 0.929 . S
C2110 N2106 1.418 . S
C2110 C2109 1.251 . S
C2111 H2078 0.930 . S
C2111 C2113 1.406 . S
C2111 C2116 1.261 . S
C2112 H2079 0.930 . S
C2112 N2114 1.325 . S
C2112 C2115 1.357 . S
C2113 H2081 0.928 . S
C2113 C2111 1.406 . S
C2113 N2114 1.261 . S
N2114 Co2065 2.214 . S
N2114 C2112 1.325 . S
N2114 C2113 1.261 . S
C2115 H2085 0.931 . S
C2115 C2112 1.357 . S
C2115 C2116 1.312 . S
C2116 H2087 0.930 . S
C2116 C2111 1.261 . S
C2116 C2115 1.312 . S
C2117 O2089 1.214 . S
C2117 O2097 1.234 . S
C2118 H2090 0.929 . S
C2118 C2121 1.391 . S
C2118 C2123 1.391 . S
C2119 H2091 0.929 . S
C2119 C2120 1.390 . S
C2119 N2122 1.391 . S
C2120 H2092 0.930 . S
C2120 C2119 1.390 . S
C2120 C2121 1.392 . S
C2121 H2093 0.929 . S
C2121 C2118 1.391 . S
C2121 C2120 1.392 . S
N2122 Co2066 2.257 . S
N2122 C2119 1.391 . S
N2122 C2123 1.388 . S
C2123 H2094 0.930 . S
C2123 C2118 1.391 . S
C2123 N2122 1.388 . S
H2124 C2132 0.950 . S
H2125 C2137 0.950 . S
H2126 C2134 0.950 . S
H2127 C2136 0.950 . S
H2128 C2138 0.950 . S
H2129 C2140 0.950 . S
H2130 C2142 0.950 . S
H2131 C2143 0.950 . S
C2132 H2124 0.950 . S
C2132 C2133 1.386 . S
C2132 C2134 1.391 . S
C2133 C2132 1.386 . S
C2133 C2137 1.393 . S
C2134 H2126 0.950 . S
C2134 C2132 1.391 . S
C2134 C2135 1.400 . S
C2135 C2134 1.400 . S
C2135 C2136 1.398 . S
C2135 C2141 1.491 . S
C2136 H2127 0.950 . S
C2136 C2135 1.398 . S
C2136 C2137 1.391 . S
C2137 H2125 0.950 . S
C2137 C2133 1.393 . S
C2137 C2136 1.391 . S
C2138 H2128 0.950 . S
C2138 C2139 1.386 . S
C2138 C2140 1.391 . S
C2139 C2138 1.386 . S
C2139 C2143 1.393 . S
C2140 H2129 0.950 . S
C2140 C2138 1.391 . S
C2140 C2141 1.400 . S
C2141 C2135 1.491 . S
C2141 C2140 1.400 . S
C2141 C2142 1.398 . S
C2142 H2130 0.950 . S
C2142 C2141 1.398 . S
C2142 C2143 1.391 . S
C2143 H2131 0.950 . S
C2143 C2139 1.393 . S
C2143 C2142 1.391 . S
H2144 C2152 0.950 . S
H2145 C2157 0.950 . S
H2146 C2154 0.950 . S
H2147 C2156 0.950 . S
H2148 C2158 0.950 . S
H2149 C2160 0.950 . S
H2150 C2162 0.950 . S
H2151 C2163 0.950 . S
C2152 H2144 0.950 . S
C2152 C2153 1.386 . S
C2152 C2154 1.391 . S
C2153 C2152 1.386 . S
C2153 C2157 1.393 . S
C2154 H2146 0.950 . S
C2154 C2152 1.391 . S
C2154 C2155 1.400 . S
C2155 C2154 1.400 . S
C2155 C2156 1.398 . S
C2155 C2161 1.491 . S
C2156 H2147 0.950 . S
C2156 C2155 1.398 . S
C2156 C2157 1.391 . S
C2157 H2145 0.950 . S
C2157 C2153 1.393 . S
C2157 C2156 1.391 . S
C2158 H2148 0.950 . S
C2158 C2159 1.386 . S
C2158 C2160 1.391 . S
C2159 C2158 1.386 . S
C2159 C2163 1.393 . S
C2160 H2149 0.950 . S
C2160 C2158 1.391 . S
C2160 C2161 1.400 . S
C2161 C2155 1.491 . S
C2161 C2160 1.400 . S
C2161 C2162 1.398 . S
C2162 H2150 0.950 . S
C2162 C2161 1.398 . S
C2162 C2163 1.391 . S
C2163 H2151 0.950 . S
C2163 C2159 1.393 . S
C2163 C2162 1.391 . S
H2164 C2172 0.950 . S
H2165 C2177 0.950 . S
H2166 C2174 0.950 . S
H2167 C2176 0.950 . S
H2168 C2178 0.950 . S
H2169 C2180 0.950 . S
H2170 C2182 0.950 . S
H2171 C2183 0.950 . S
C2172 H2164 0.950 . S
C2172 C2173 1.386 . S
C2172 C2174 1.391 . S
C2173 C2172 1.386 . S
C2173 C2177 1.393 . S
C2174 H2166 0.950 . S
C2174 C2172 1.391 . S
C2174 C2175 1.400 . S
C2175 C2174 1.400 . S
C2175 C2176 1.398 . S
C2175 C2181 1.491 . S
C2176 H2167 0.950 . S
C2176 C2175 1.398 . S
C2176 C2177 1.391 . S
C2177 H2165 0.950 . S
C2177 C2173 1.393 . S
C2177 C2176 1.391 . S
C2178 H2168 0.950 . S
C2178 C2179 1.386 . S
C2178 C2180 1.391 . S
C2179 C2178 1.386 . S
C2179 C2183 1.393 . S
C2180 H2169 0.950 . S
C2180 C2178 1.391 . S
C2180 C2181 1.400 . S
C2181 C2175 1.491 . S
C2181 C2180 1.400 . S
C2181 C2182 1.398 . S
C2182 H2170 0.950 . S
C2182 C2181 1.398 . S
C2182 C2183 1.391 . S
C2183 H2171 0.950 . S
C2183 C2179 1.393 . S
C2183 C2182 1.391 . S
H2184 C2192 0.950 . S
H2185 C2197 0.950 . S
H2186 C2194 0.950 . S
H2187 C2196 0.950 . S
H2188 C2198 0.950 . S
H2189 C2200 0.950 . S
H2190 C2202 0.950 . S
H2191 C2203 0.950 . S
C2192 H2184 0.950 . S
C2192 C2193 1.386 . S
C2192 C2194 1.391 . S
C2193 C2192 1.386 . S
C2193 C2197 1.393 . S
C2194 H2186 0.950 . S
C2194 C2192 1.391 . S
C2194 C2195 1.400 . S
C2195 C2194 1.400 . S
C2195 C2196 1.398 . S
C2195 C2201 1.491 . S
C2196 H2187 0.950 . S
C2196 C2195 1.398 . S
C2196 C2197 1.391 . S
C2197 H2185 0.950 . S
C2197 C2193 1.393 . S
C2197 C2196 1.391 . S
C2198 H2188 0.950 . S
C2198 C2199 1.386 . S
C2198 C2200 1.391 . S
C2199 C2198 1.386 . S
C2199 C2203 1.393 . S
C2200 H2189 0.950 . S
C2200 C2198 1.391 . S
C2200 C2201 1.400 . S
C2201 C2195 1.491 . S
C2201 C2200 1.400 . S
C2201 C2202 1.398 . S
C2202 H2190 0.950 . S
C2202 C2201 1.398 . S
C2202 C2203 1.391 . S
C2203 H2191 0.950 . S
C2203 C2199 1.393 . S
C2203 C2202 1.391 . S
H2204 C2212 0.950 . S
H2205 C2217 0.950 . S
H2206 C2214 0.950 . S
H2207 C2216 0.950 . S
H2208 C2218 0.950 . S
H2209 C2220 0.950 . S
H2210 C2222 0.950 . S
H2211 C2223 0.950 . S
C2212 H2204 0.950 . S
C2212 C2213 1.386 . S
C2212 C2214 1.391 . S
C2213 C2212 1.386 . S
C2213 C2217 1.393 . S
C2214 H2206 0.950 . S
C2214 C2212 1.391 . S
C2214 C2215 1.400 . S
C2215 C2214 1.400 . S
C2215 C2216 1.398 . S
C2215 C2221 1.491 . S
C2216 H2207 0.950 . S
C2216 C2215 1.398 . S
C2216 C2217 1.391 . S
C2217 H2205 0.950 . S
C2217 C2213 1.393 . S
C2217 C2216 1.391 . S
C2218 H2208 0.950 . S
C2218 C2219 1.386 . S
C2218 C2220 1.391 . S
C2219 C2218 1.386 . S
C2219 C2223 1.393 . S
C2220 H2209 0.950 . S
C2220 C2218 1.391 . S
C2220 C2221 1.400 . S
C2221 C2215 1.491 . S
C2221 C2220 1.400 . S
C2221 C2222 1.398 . S
C2222 H2210 0.950 . S
C2222 C2221 1.398 . S
C2222 C2223 1.391 . S
C2223 H2211 0.950 . S
C2223 C2219 1.393 . S
C2223 C2222 1.391 . S
H2224 C2232 0.950 . S
H2225 C2237 0.950 . S
H2226 C2234 0.950 . S
H2227 C2236 0.950 . S
H2228 C2238 0.950 . S
H2229 C2240 0.950 . S
H2230 C2242 0.950 . S
H2231 C2243 0.950 . S
C2232 H2224 0.950 . S
C2232 C2233 1.386 . S
C2232 C2234 1.391 . S
C2233 C2232 1.386 . S
C2233 C2237 1.393 . S
C2234 H2226 0.950 . S
C2234 C2232 1.391 . S
C2234 C2235 1.400 . S
C2235 C2234 1.400 . S
C2235 C2236 1.398 . S
C2235 C2241 1.491 . S
C2236 H2227 0.950 . S
C2236 C2235 1.398 . S
C2236 C2237 1.391 . S
C2237 H2225 0.950 . S
C2237 C2233 1.393 . S
C2237 C2236 1.391 . S
C2238 H2228 0.950 . S
C2238 C2239 1.386 . S
C2238 C2240 1.391 . S
C2239 C2238 1.386 . S
C2239 C2243 1.393 . S
C2240 H2229 0.950 . S
C2240 C2238 1.391 . S
C2240 C2241 1.400 . S
C2241 C2235 1.491 . S
C2241 C2240 1.400 . S
C2241 C2242 1.398 . S
C2242 H2230 0.950 . S
C2242 C2241 1.398 . S
C2242 C2243 1.391 . S
C2243 H2231 0.950 . S
C2243 C2239 1.393 . S
C2243 C2242 1.391 . S
H2244 C2252 0.950 . S
H2245 C2257 0.950 . S
H2246 C2254 0.950 . S
H2247 C2256 0.950 . S
H2248 C2258 0.950 . S
H2249 C2260 0.950 . S
H2250 C2262 0.950 . S
H2251 C2263 0.950 . S
C2252 H2244 0.950 . S
C2252 C2253 1.386 . S
C2252 C2254 1.391 . S
C2253 C2252 1.386 . S
C2253 C2257 1.393 . S
C2254 H2246 0.950 . S
C2254 C2252 1.391 . S
C2254 C2255 1.400 . S
C2255 C2254 1.400 . S
C2255 C2256 1.398 . S
C2255 C2261 1.491 . S
C2256 H2247 0.950 . S
C2256 C2255 1.398 . S
C2256 C2257 1.391 . S
C2257 H2245 0.950 . S
C2257 C2253 1.393 . S
C2257 C2256 1.391 . S
C2258 H2248 0.950 . S
C2258 C2259 1.386 . S
C2258 C2260 1.391 . S
C2259 C2258 1.386 . S
C2259 C2263 1.393 . S
C2260 H2249 0.950 . S
C2260 C2258 1.391 . S
C2260 C2261 1.400 . S
C2261 C2255 1.491 . S
C2261 C2260 1.400 . S
C2261 C2262 1.398 . S
C2262 H2250 0.950 . S
C2262 C2261 1.398 . S
C2262 C2263 1.391 . S
C2263 H2251 0.950 . S
C2263 C2259 1.393 . S
C2263 C2262 1.391 . S
H2264 C2272 0.950 . S
H2265 C2277 0.950 . S
H2266 C2274 0.950 . S
H2267 C2276 0.950 . S
H2268 C2278 0.950 . S
H2269 C2280 0.950 . S
H2270 C2282 0.950 . S
H2271 C2283 0.950 . S
C2272 H2264 0.950 . S
C2272 C2273 1.386 . S
C2272 C2274 1.391 . S
C2273 C2272 1.386 . S
C2273 C2277 1.393 . S
C2274 H2266 0.950 . S
C2274 C2272 1.391 . S
C2274 C2275 1.400 . S
C2275 C2274 1.400 . S
C2275 C2276 1.398 . S
C2275 C2281 1.491 . S
C2276 H2267 0.950 . S
C2276 C2275 1.398 . S
C2276 C2277 1.391 . S
C2277 H2265 0.950 . S
C2277 C2273 1.393 . S
C2277 C2276 1.391 . S
C2278 H2268 0.950 . S
C2278 C2279 1.386 . S
C2278 C2280 1.391 . S
C2279 C2278 1.386 . S
C2279 C2283 1.393 . S
C2280 H2269 0.950 . S
C2280 C2278 1.391 . S
C2280 C2281 1.400 . S
C2281 C2275 1.491 . S
C2281 C2280 1.400 . S
C2281 C2282 1.398 . S
C2282 H2270 0.950 . S
C2282 C2281 1.398 . S
C2282 C2283 1.391 . S
C2283 H2271 0.950 . S
C2283 C2279 1.393 . S
C2283 C2282 1.391 . S
H2284 C2292 0.950 . S
H2285 C2297 0.950 . S
H2286 C2294 0.950 . S
H2287 C2296 0.950 . S
H2288 C2298 0.950 . S
H2289 C2300 0.950 . S
H2290 C2302 0.950 . S
H2291 C2303 0.950 . S
C2292 H2284 0.950 . S
C2292 C2293 1.386 . S
C2292 C2294 1.391 . S
C2293 C2292 1.386 . S
C2293 C2297 1.393 . S
C2294 H2286 0.950 . S
C2294 C2292 1.391 . S
C2294 C2295 1.400 . S
C2295 C2294 1.400 . S
C2295 C2296 1.398 . S
C2295 C2301 1.491 . S
C2296 H2287 0.950 . S
C2296 C2295 1.398 . S
C2296 C2297 1.391 . S
C2297 H2285 0.950 . S
C2297 C2293 1.393 . S
C2297 C2296 1.391 . S
C2298 H2288 0.950 . S
C2298 C2299 1.386 . S
C2298 C2300 1.391 . S
C2299 C2298 1.386 . S
C2299 C2303 1.393 . S
C2300 H2289 0.950 . S
C2300 C2298 1.391 . S
C2300 C2301 1.400 . S
C2301 C2295 1.491 . S
C2301 C2300 1.400 . S
C2301 C2302 1.398 . S
C2302 H2290 0.950 . S
C2302 C2301 1.398 . S
C2302 C2303 1.391 . S
C2303 H2291 0.950 . S
C2303 C2299 1.393 . S
C2303 C2302 1.391 . S
H2304 C2312 0.950 . S
H2305 C2317 0.950 . S
H2306 C2314 0.950 . S
H2307 C2316 0.950 . S
H2308 C2318 0.950 . S
H2309 C2320 0.950 . S
H2310 C2322 0.950 . S
H2311 C2323 0.950 . S
C2312 H2304 0.950 . S
C2312 C2313 1.386 . S
C2312 C2314 1.391 . S
C2313 C2312 1.386 . S
C2313 C2317 1.393 . S
C2314 H2306 0.950 . S
C2314 C2312 1.391 . S
C2314 C2315 1.400 . S
C2315 C2314 1.400 . S
C2315 C2316 1.398 . S
C2315 C2321 1.491 . S
C2316 H2307 0.950 . S
C2316 C2315 1.398 . S
C2316 C2317 1.391 . S
C2317 H2305 0.950 . S
C2317 C2313 1.393 . S
C2317 C2316 1.391 . S
C2318 H2308 0.950 . S
C2318 C2319 1.386 . S
C2318 C2320 1.391 . S
C2319 C2318 1.386 . S
C2319 C2323 1.393 . S
C2320 H2309 0.950 . S
C2320 C2318 1.391 . S
C2320 C2321 1.400 . S
C2321 C2315 1.491 . S
C2321 C2320 1.400 . S
C2321 C2322 1.398 . S
C2322 H2310 0.950 . S
C2322 C2321 1.398 . S
C2322 C2323 1.391 . S
C2323 H2311 0.950 . S
C2323 C2319 1.393 . S
C2323 C2322 1.391 . S
H2324 C2332 0.950 . S
H2325 C2337 0.950 . S
H2326 C2334 0.950 . S
H2327 C2336 0.950 . S
H2328 C2338 0.950 . S
H2329 C2340 0.950 . S
H2330 C2342 0.950 . S
H2331 C2343 0.950 . S
C2332 H2324 0.950 . S
C2332 C2333 1.386 . S
C2332 C2334 1.391 . S
C2333 C2332 1.386 . S
C2333 C2337 1.393 . S
C2334 H2326 0.950 . S
C2334 C2332 1.391 . S
C2334 C2335 1.400 . S
C2335 C2334 1.400 . S
C2335 C2336 1.398 . S
C2335 C2341 1.491 . S
C2336 H2327 0.950 . S
C2336 C2335 1.398 . S
C2336 C2337 1.391 . S
C2337 H2325 0.950 . S
C2337 C2333 1.393 . S
C2337 C2336 1.391 . S
C2338 H2328 0.950 . S
C2338 C2339 1.386 . S
C2338 C2340 1.391 . S
C2339 C2338 1.386 . S
C2339 C2343 1.393 . S
C2340 H2329 0.950 . S
C2340 C2338 1.391 . S
C2340 C2341 1.400 . S
C2341 C2335 1.491 . S
C2341 C2340 1.400 . S
C2341 C2342 1.398 . S
C2342 H2330 0.950 . S
C2342 C2341 1.398 . S
C2342 C2343 1.391 . S
C2343 H2331 0.950 . S
C2343 C2339 1.393 . S
C2343 C2342 1.391 . S
H2344 C2352 0.950 . S
H2345 C2357 0.950 . S
H2346 C2354 0.950 . S
H2347 C2356 0.950 . S
H2348 C2358 0.950 . S
H2349 C2360 0.950 . S
H2350 C2362 0.950 . S
H2351 C2363 0.950 . S
C2352 H2344 0.950 . S
C2352 C2353 1.386 . S
C2352 C2354 1.391 . S
C2353 C2352 1.386 . S
C2353 C2357 1.393 . S
C2354 H2346 0.950 . S
C2354 C2352 1.391 . S
C2354 C2355 1.400 . S
C2355 C2354 1.400 . S
C2355 C2356 1.398 . S
C2355 C2361 1.491 . S
C2356 H2347 0.950 . S
C2356 C2355 1.398 . S
C2356 C2357 1.391 . S
C2357 H2345 0.950 . S
C2357 C2353 1.393 . S
C2357 C2356 1.391 . S
C2358 H2348 0.950 . S
C2358 C2359 1.386 . S
C2358 C2360 1.391 . S
C2359 C2358 1.386 . S
C2359 C2363 1.393 . S
C2360 H2349 0.950 . S
C2360 C2358 1.391 . S
C2360 C2361 1.400 . S
C2361 C2355 1.491 . S
C2361 C2360 1.400 . S
C2361 C2362 1.398 . S
C2362 H2350 0.950 . S
C2362 C2361 1.398 . S
C2362 C2363 1.391 . S
C2363 H2351 0.950 . S
C2363 C2359 1.393 . S
C2363 C2362 1.391 . S
H2364 C2372 0.950 . S
H2365 C2377 0.950 . S
H2366 C2374 0.950 1_655 S
H2367 C2376 0.950 . S
H2368 C2378 0.950 . S
H2369 C2380 0.950 1_455 S
H2370 C2382 0.950 . S
H2371 C2383 0.950 . S
C2372 H2364 0.950 . S
C2372 C2373 1.386 . S
C2372 C2374 1.391 . S
C2373 C2372 1.386 . S
C2373 C2377 1.393 . S
C2374 H2366 0.950 1_455 S
C2374 C2372 1.391 . S
C2374 C2375 1.400 . S
C2375 C2374 1.400 . S
C2375 C2376 1.398 . S
C2375 C2381 1.491 1_455 S
C2376 H2367 0.950 . S
C2376 C2375 1.398 . S
C2376 C2377 1.391 . S
C2377 H2365 0.950 . S
C2377 C2373 1.393 . S
C2377 C2376 1.391 . S
C2378 H2368 0.950 . S
C2378 C2379 1.386 . S
C2378 C2380 1.391 . S
C2379 C2378 1.386 . S
C2379 C2383 1.393 . S
C2380 H2369 0.950 1_655 S
C2380 C2378 1.391 . S
C2380 C2381 1.400 . S
C2381 C2375 1.491 1_655 S
C2381 C2380 1.400 . S
C2381 C2382 1.398 . S
C2382 H2370 0.950 . S
C2382 C2381 1.398 . S
C2382 C2383 1.391 . S
C2383 H2371 0.950 . S
C2383 C2379 1.393 . S
C2383 C2382 1.391 . S
H2384 C2392 0.950 . S
H2385 C2397 0.950 . S
H2386 C2394 0.950 . S
H2387 C2396 0.950 . S
H2388 C2398 0.950 . S
H2389 C2400 0.950 . S
H2390 C2402 0.950 . S
H2391 C2403 0.950 . S
C2392 H2384 0.950 . S
C2392 C2393 1.386 . S
C2392 C2394 1.391 . S
C2393 C2392 1.386 . S
C2393 C2397 1.393 . S
C2394 H2386 0.950 . S
C2394 C2392 1.391 . S
C2394 C2395 1.400 . S
C2395 C2394 1.400 . S
C2395 C2396 1.398 . S
C2395 C2401 1.491 . S
C2396 H2387 0.950 . S
C2396 C2395 1.398 . S
C2396 C2397 1.391 . S
C2397 H2385 0.950 . S
C2397 C2393 1.393 . S
C2397 C2396 1.391 . S
C2398 H2388 0.950 . S
C2398 C2399 1.386 . S
C2398 C2400 1.391 . S
C2399 C2398 1.386 . S
C2399 C2403 1.393 . S
C2400 H2389 0.950 . S
C2400 C2398 1.391 . S
C2400 C2401 1.400 . S
C2401 C2395 1.491 . S
C2401 C2400 1.400 . S
C2401 C2402 1.398 . S
C2402 H2390 0.950 . S
C2402 C2401 1.398 . S
C2402 C2403 1.391 . S
C2403 H2391 0.950 . S
C2403 C2399 1.393 . S
C2403 C2402 1.391 . S
H2404 C2412 0.950 . S
H2405 C2417 0.950 . S
H2406 C2414 0.950 1_565 S
H2407 C2416 0.950 . S
H2408 C2418 0.950 . S
H2409 C2420 0.950 1_545 S
H2410 C2422 0.950 . S
H2411 C2423 0.950 . S
C2412 H2404 0.950 . S
C2412 C2413 1.386 . S
C2412 C2414 1.391 . S
C2413 C2412 1.386 . S
C2413 C2417 1.393 . S
C2414 H2406 0.950 1_545 S
C2414 C2412 1.391 . S
C2414 C2415 1.400 . S
C2415 C2414 1.400 . S
C2415 C2416 1.398 . S
C2415 C2421 1.491 1_545 S
C2416 H2407 0.950 . S
C2416 C2415 1.398 . S
C2416 C2417 1.391 . S
C2417 H2405 0.950 . S
C2417 C2413 1.393 . S
C2417 C2416 1.391 . S
C2418 H2408 0.950 . S
C2418 C2419 1.386 . S
C2418 C2420 1.391 . S
C2419 C2418 1.386 . S
C2419 C2423 1.393 . S
C2420 H2409 0.950 1_565 S
C2420 C2418 1.391 . S
C2420 C2421 1.400 . S
C2421 C2415 1.491 1_565 S
C2421 C2420 1.400 . S
C2421 C2422 1.398 . S
C2422 H2410 0.950 . S
C2422 C2421 1.398 . S
C2422 C2423 1.391 . S
C2423 H2411 0.950 . S
C2423 C2419 1.393 . S
C2423 C2422 1.391 . S
H2424 C2432 0.950 . S
H2425 C2437 0.950 . S
H2426 C2434 0.950 1_545 S
H2427 C2436 0.950 . S
H2428 C2438 0.950 . S
H2429 C2440 0.950 1_565 S
H2430 C2442 0.950 . S
H2431 C2443 0.950 . S
C2432 H2424 0.950 . S
C2432 C2433 1.386 . S
C2432 C2434 1.391 . S
C2433 C2432 1.386 . S
C2433 C2437 1.393 . S
C2434 H2426 0.950 1_565 S
C2434 C2432 1.391 . S
C2434 C2435 1.400 . S
C2435 C2434 1.400 . S
C2435 C2436 1.398 . S
C2435 C2441 1.491 1_564 S
C2436 H2427 0.950 . S
C2436 C2435 1.398 . S
C2436 C2437 1.391 . S
C2437 H2425 0.950 . S
C2437 C2433 1.393 . S
C2437 C2436 1.391 . S
C2438 H2428 0.950 . S
C2438 C2439 1.386 . S
C2438 C2440 1.391 . S
C2439 C2438 1.386 . S
C2439 C2443 1.393 . S
C2440 H2429 0.950 1_545 S
C2440 C2438 1.391 . S
C2440 C2441 1.400 . S
C2441 C2435 1.491 1_546 S
C2441 C2440 1.400 . S
C2441 C2442 1.398 . S
C2442 H2430 0.950 . S
C2442 C2441 1.398 . S
C2442 C2443 1.391 . S
C2443 H2431 0.950 . S
C2443 C2439 1.393 . S
C2443 C2442 1.391 . S
H2444 C2452 0.950 . S
H2445 C2457 0.950 . S
H2446 C2454 0.950 1_455 S
H2447 C2456 0.870 1_554 S
H2448 C2458 0.950 . S
H2449 C2460 0.950 1_655 S
H2450 C2462 0.870 1_556 S
H2451 C2463 0.950 . S
C2452 H2444 0.950 . S
C2452 C2453 1.386 . S
C2452 C2454 1.391 . S
C2453 C2452 1.386 . S
C2453 C2457 1.393 . S
C2454 H2446 0.950 1_655 S
C2454 C2452 1.391 . S
C2454 C2455 1.400 . S
C2455 C2454 1.400 . S
C2455 C2456 1.425 . S
C2455 C2461 1.491 1_656 S
C2456 H2447 0.870 1_556 S
C2456 C2455 1.425 . S
C2456 C2457 1.447 . S
C2457 H2445 0.950 . S
C2457 C2453 1.393 . S
C2457 C2456 1.447 . S
C2458 H2448 0.950 . S
C2458 C2459 1.386 . S
C2458 C2460 1.391 . S
C2459 C2458 1.386 . S
C2459 C2463 1.393 . S
C2460 H2449 0.950 1_455 S
C2460 C2458 1.391 . S
C2460 C2461 1.400 . S
C2461 C2455 1.491 1_454 S
C2461 C2460 1.400 . S
C2461 C2462 1.425 . S
C2462 H2450 0.870 1_554 S
C2462 C2461 1.425 . S
C2462 C2463 1.447 . S
C2463 H2451 0.950 . S
C2463 C2459 1.393 . S
C2463 C2462 1.447 . S
H2464 C2472 0.950 . S
H2465 C2477 0.950 . S
H2466 C2474 0.950 1_554 S
H2467 C2476 0.950 . S
H2468 C2478 0.950 . S
H2469 C2480 0.950 1_556 S
H2470 C2482 0.950 . S
H2471 C2483 0.950 . S
C2472 H2464 0.950 . S
C2472 C2473 1.386 . S
C2472 C2474 1.391 . S
C2473 C2472 1.386 . S
C2473 C2477 1.393 . S
C2474 H2466 0.950 1_556 S
C2474 C2472 1.391 . S
C2474 C2475 1.400 . S
C2475 C2474 1.400 . S
C2475 C2476 1.398 . S
C2475 C2481 1.491 1_556 S
C2476 H2467 0.950 . S
C2476 C2475 1.398 . S
C2476 C2477 1.391 . S
C2477 H2465 0.950 . S
C2477 C2473 1.393 . S
C2477 C2476 1.391 . S
C2478 H2468 0.950 . S
C2478 C2479 1.386 . S
C2478 C2480 1.391 . S
C2479 C2478 1.386 . S
C2479 C2483 1.393 . S
C2480 H2469 0.950 1_554 S
C2480 C2478 1.391 . S
C2480 C2481 1.400 . S
C2481 C2475 1.491 1_554 S
C2481 C2480 1.400 . S
C2481 C2482 1.398 . S
C2482 H2470 0.950 . S
C2482 C2481 1.398 . S
C2482 C2483 1.391 . S
C2483 H2471 0.950 . S
C2483 C2479 1.393 . S
C2483 C2482 1.391 . S
H2484 C2492 0.950 . S
H2485 C2497 0.950 . S
H2486 C2494 0.950 . S
H2487 C2496 0.950 . S
H2488 C2498 0.950 . S
H2489 C2500 0.950 . S
H2490 C2502 0.950 . S
H2491 C2503 0.950 . S
C2492 H2484 0.950 . S
C2492 C2493 1.386 . S
C2492 C2494 1.391 . S
C2493 C2492 1.386 . S
C2493 C2497 1.393 1_565 S
C2494 H2486 0.950 . S
C2494 C2492 1.391 . S
C2494 C2495 1.400 . S
C2495 C2494 1.400 . S
C2495 C2496 1.398 . S
C2495 C2501 1.491 . S
C2496 H2487 0.950 . S
C2496 C2495 1.398 . S
C2496 C2497 1.391 1_565 S
C2497 H2485 0.950 . S
C2497 C2493 1.393 1_545 S
C2497 C2496 1.391 1_545 S
C2498 H2488 0.950 . S
C2498 C2499 1.386 . S
C2498 C2500 1.391 . S
C2499 C2498 1.386 . S
C2499 C2503 1.393 . S
C2500 H2489 0.950 . S
C2500 C2498 1.391 . S
C2500 C2501 1.400 . S
C2501 C2495 1.491 . S
C2501 C2500 1.400 . S
C2501 C2502 1.398 . S
C2502 H2490 0.950 . S
C2502 C2501 1.398 . S
C2502 C2503 1.391 . S
C2503 H2491 0.950 . S
C2503 C2499 1.393 . S
C2503 C2502 1.391 . S
H2504 C2512 0.950 . S
H2505 C2517 0.950 . S
H2506 C2514 0.950 . S
H2507 C2516 0.950 . S
H2508 C2518 0.950 . S
H2509 C2520 0.950 . S
H2510 C2522 0.950 . S
H2511 C2523 0.950 . S
C2512 H2504 0.950 . S
C2512 C2513 1.386 . S
C2512 C2514 1.391 . S
C2513 C2512 1.386 . S
C2513 C2517 1.393 . S
C2514 H2506 0.950 . S
C2514 C2512 1.391 . S
C2514 C2515 1.400 . S
C2515 C2514 1.400 . S
C2515 C2516 1.398 . S
C2515 C2521 1.491 . S
C2516 H2507 0.950 . S
C2516 C2515 1.398 . S
C2516 C2517 1.391 . S
C2517 H2505 0.950 . S
C2517 C2513 1.393 . S
C2517 C2516 1.391 . S
C2518 H2508 0.950 . S
C2518 C2519 1.386 1_655 S
C2518 C2520 1.391 1_655 S
C2519 C2518 1.386 1_455 S
C2519 C2523 1.393 . S
C2520 H2509 0.950 . S
C2520 C2518 1.391 1_455 S
C2520 C2521 1.400 . S
C2521 C2515 1.491 . S
C2521 C2520 1.400 . S
C2521 C2522 1.398 . S
C2522 H2510 0.950 . S
C2522 C2521 1.398 . S
C2522 C2523 1.391 . S
C2523 H2511 0.950 . S
C2523 C2519 1.393 . S
C2523 C2522 1.391 . S
H2524 C2532 0.950 . S
H2525 C2537 0.950 . S
H2526 C2534 0.950 . S
H2527 C2536 0.950 . S
H2528 C2538 0.950 . S
H2529 C2540 0.950 . S
H2530 C2542 0.950 . S
H2531 C2543 0.950 . S
C2532 H2524 0.950 . S
C2532 C2533 1.386 . S
C2532 C2534 1.391 . S
C2533 C2532 1.386 . S
C2533 C2537 1.393 . S
C2534 H2526 0.950 . S
C2534 C2532 1.391 . S
C2534 C2535 1.400 . S
C2535 C2534 1.400 . S
C2535 C2536 1.398 . S
C2535 C2541 1.491 . S
C2536 H2527 0.950 . S
C2536 C2535 1.398 . S
C2536 C2537 1.391 . S
C2537 H2525 0.950 . S
C2537 C2533 1.393 . S
C2537 C2536 1.391 . S
C2538 H2528 0.950 . S
C2538 C2539 1.386 . S
C2538 C2540 1.391 . S
C2539 C2538 1.386 . S
C2539 C2543 1.393 . S
C2540 H2529 0.950 . S
C2540 C2538 1.391 . S
C2540 C2541 1.400 . S
C2541 C2535 1.491 . S
C2541 C2540 1.400 . S
C2541 C2542 1.398 . S
C2542 H2530 0.950 . S
C2542 C2541 1.398 . S
C2542 C2543 1.391 . S
C2543 H2531 0.950 . S
C2543 C2539 1.393 . S
C2543 C2542 1.391 . S
H2544 C2552 0.950 . S
H2545 C2557 0.950 . S
H2546 C2554 0.950 . S
H2547 C2556 0.950 . S
H2548 C2558 0.950 . S
H2549 C2560 0.950 1_455 S
H2550 C2562 0.950 . S
H2551 C2563 0.950 . S
C2552 H2544 0.950 . S
C2552 C2553 1.386 . S
C2552 C2554 1.391 . S
C2553 C2552 1.386 . S
C2553 C2557 1.393 . S
C2554 H2546 0.950 . S
C2554 C2552 1.391 . S
C2554 C2555 1.400 . S
C2555 C2554 1.400 . S
C2555 C2556 1.398 . S
C2555 C2561 1.491 . S
C2556 H2547 0.950 . S
C2556 C2555 1.398 . S
C2556 C2557 1.391 . S
C2557 H2545 0.950 . S
C2557 C2553 1.393 . S
C2557 C2556 1.391 . S
C2558 H2548 0.950 . S
C2558 C2559 1.386 1_455 S
C2558 C2560 1.391 1_455 S
C2559 C2558 1.386 1_655 S
C2559 C2563 1.393 . S
C2560 H2549 0.950 1_655 S
C2560 C2558 1.391 1_655 S
C2560 C2561 1.400 . S
C2561 C2555 1.491 . S
C2561 C2560 1.400 . S
C2561 C2562 1.398 . S
C2562 H2550 0.950 . S
C2562 C2561 1.398 . S
C2562 C2563 1.391 . S
C2563 H2551 0.950 . S
C2563 C2559 1.393 . S
C2563 C2562 1.391 . S
H2564 C2572 0.950 . S
H2565 C2577 0.950 . S
H2566 C2574 0.950 . S
H2567 C2576 0.950 . S
H2568 C2578 0.950 . S
H2569 C2580 0.950 . S
H2570 C2582 0.950 . S
H2571 C2583 0.950 . S
C2572 H2564 0.950 . S
C2572 C2573 1.386 . S
C2572 C2574 1.391 . S
C2573 C2572 1.386 . S
C2573 C2577 1.393 . S
C2574 H2566 0.950 . S
C2574 C2572 1.391 . S
C2574 C2575 1.400 . S
C2575 C2574 1.400 . S
C2575 C2576 1.398 . S
C2575 C2581 1.491 . S
C2576 H2567 0.950 . S
C2576 C2575 1.398 . S
C2576 C2577 1.391 . S
C2577 H2565 0.950 . S
C2577 C2573 1.393 . S
C2577 C2576 1.391 . S
C2578 H2568 0.950 . S
C2578 C2579 1.386 . S
C2578 C2580 1.391 . S
C2579 C2578 1.386 . S
C2579 C2583 1.393 . S
C2580 H2569 0.950 . S
C2580 C2578 1.391 . S
C2580 C2581 1.400 . S
C2581 C2575 1.491 . S
C2581 C2580 1.400 . S
C2581 C2582 1.398 . S
C2582 H2570 0.950 . S
C2582 C2581 1.398 . S
C2582 C2583 1.391 . S
C2583 H2571 0.950 . S
C2583 C2579 1.393 . S
C2583 C2582 1.391 . S
H2584 C2592 0.950 . S
H2585 C2597 0.950 . S
H2586 C2594 0.950 . S
H2587 C2596 0.950 . S
H2588 C2598 0.950 . S
H2589 C2600 0.950 . S
H2590 C2602 0.950 . S
H2591 C2603 0.950 . S
C2592 H2584 0.950 . S
C2592 C2593 1.386 . S
C2592 C2594 1.391 . S
C2593 C2592 1.386 . S
C2593 C2597 1.393 . S
C2594 H2586 0.950 . S
C2594 C2592 1.391 . S
C2594 C2595 1.400 . S
C2595 C2594 1.400 . S
C2595 C2596 1.398 . S
C2595 C2601 1.491 . S
C2596 H2587 0.950 . S
C2596 C2595 1.398 . S
C2596 C2597 1.391 . S
C2597 H2585 0.950 . S
C2597 C2593 1.393 . S
C2597 C2596 1.391 . S
C2598 H2588 0.950 . S
C2598 C2599 1.386 . S
C2598 C2600 1.391 . S
C2599 C2598 1.386 . S
C2599 C2603 1.393 . S
C2600 H2589 0.950 . S
C2600 C2598 1.391 . S
C2600 C2601 1.400 . S
C2601 C2595 1.491 . S
C2601 C2600 1.400 . S
C2601 C2602 1.398 . S
C2602 H2590 0.950 . S
C2602 C2601 1.398 . S
C2602 C2603 1.391 . S
C2603 H2591 0.950 . S
C2603 C2599 1.393 . S
C2603 C2602 1.391 . S
H2604 C2612 0.950 . S
H2605 C2617 0.950 . S
H2606 C2614 0.950 . S
H2607 C2616 0.950 . S
H2608 C2618 0.950 . S
H2609 C2620 0.950 . S
H2610 C2622 0.950 . S
H2611 C2623 0.950 . S
C2612 H2604 0.950 . S
C2612 C2613 1.386 1_565 S
C2612 C2614 1.391 1_565 S
C2613 C2612 1.386 1_545 S
C2613 C2617 1.393 . S
C2614 H2606 0.950 . S
C2614 C2612 1.391 1_545 S
C2614 C2615 1.400 . S
C2615 C2614 1.400 . S
C2615 C2616 1.398 . S
C2615 C2621 1.491 . S
C2616 H2607 0.950 . S
C2616 C2615 1.398 . S
C2616 C2617 1.391 . S
C2617 H2605 0.950 . S
C2617 C2613 1.393 . S
C2617 C2616 1.391 . S
C2618 H2608 0.950 . S
C2618 C2619 1.386 . S
C2618 C2620 1.391 . S
C2619 C2618 1.386 . S
C2619 C2623 1.393 . S
C2620 H2609 0.950 . S
C2620 C2618 1.391 . S
C2620 C2621 1.400 . S
C2621 C2615 1.491 . S
C2621 C2620 1.400 . S
C2621 C2622 1.398 . S
C2622 H2610 0.950 . S
C2622 C2621 1.398 . S
C2622 C2623 1.391 . S
C2623 H2611 0.950 . S
C2623 C2619 1.393 . S
C2623 C2622 1.391 . S
H2624 C2632 0.950 . S
H2625 C2637 0.950 . S
H2626 C2634 0.950 . S
H2627 C2636 0.950 . S
H2628 C2638 0.950 1_455 S
H2629 C2640 0.950 . S
H2630 C2642 0.950 . S
H2631 C2643 0.950 . S
C2632 H2624 0.950 . S
C2632 C2633 1.386 . S
C2632 C2634 1.391 . S
C2633 C2632 1.386 . S
C2633 C2637 1.393 . S
C2634 H2626 0.950 . S
C2634 C2632 1.391 . S
C2634 C2635 1.400 . S
C2635 C2634 1.400 . S
C2635 C2636 1.398 . S
C2635 C2641 1.491 . S
C2636 H2627 0.950 . S
C2636 C2635 1.398 . S
C2636 C2637 1.391 . S
C2637 H2625 0.950 . S
C2637 C2633 1.393 . S
C2637 C2636 1.391 . S
C2638 H2628 0.950 1_655 S
C2638 C2639 1.386 . S
C2638 C2640 1.391 . S
C2639 C2638 1.386 . S
C2639 C2643 1.393 . S
C2640 H2629 0.950 . S
C2640 C2638 1.391 . S
C2640 C2641 1.400 . S
C2641 C2635 1.491 . S
C2641 C2640 1.400 . S
C2641 C2642 1.398 . S
C2642 H2630 0.950 . S
C2642 C2641 1.398 . S
C2642 C2643 1.391 . S
C2643 H2631 0.950 . S
C2643 C2639 1.393 . S
C2643 C2642 1.391 . S
H2644 C2652 0.950 . S
H2645 C2657 0.950 . S
H2646 C2654 0.950 . S
H2647 C2656 0.950 . S
H2648 C2658 0.950 . S
H2649 C2660 0.950 . S
H2650 C2662 0.950 . S
H2651 C2663 0.950 . S
C2652 H2644 0.950 . S
C2652 C2653 1.386 . S
C2652 C2654 1.391 . S
C2653 C2652 1.386 . S
C2653 C2657 1.393 . S
C2654 H2646 0.950 . S
C2654 C2652 1.391 . S
C2654 C2655 1.400 . S
C2655 C2654 1.400 . S
C2655 C2656 1.398 . S
C2655 C2661 1.491 . S
C2656 H2647 0.950 . S
C2656 C2655 1.398 . S
C2656 C2657 1.391 . S
C2657 H2645 0.950 . S
C2657 C2653 1.393 . S
C2657 C2656 1.391 . S
C2658 H2648 0.950 . S
C2658 C2659 1.386 . S
C2658 C2660 1.391 . S
C2659 C2658 1.386 . S
C2659 C2663 1.393 . S
C2660 H2649 0.950 . S
C2660 C2658 1.391 . S
C2660 C2661 1.400 . S
C2661 C2655 1.491 . S
C2661 C2660 1.400 . S
C2661 C2662 1.398 . S
C2662 H2650 0.950 . S
C2662 C2661 1.398 . S
C2662 C2663 1.391 . S
C2663 H2651 0.950 . S
C2663 C2659 1.393 . S
C2663 C2662 1.391 . S
H2664 C2672 0.950 1_655 S
H2665 C2677 0.950 . S
H2666 C2674 0.950 . S
H2667 C2676 0.950 . S
H2668 C2678 0.950 . S
H2669 C2680 0.950 . S
H2670 C2682 0.950 . S
H2671 C2683 0.950 . S
C2672 H2664 0.950 1_455 S
C2672 C2673 1.386 . S
C2672 C2674 1.391 . S
C2673 C2672 1.386 . S
C2673 C2677 1.393 . S
C2674 H2666 0.950 . S
C2674 C2672 1.391 . S
C2674 C2675 1.400 . S
C2675 C2674 1.400 . S
C2675 C2676 1.398 . S
C2675 C2681 1.491 . S
C2676 H2667 0.950 . S
C2676 C2675 1.398 . S
C2676 C2677 1.391 . S
C2677 H2665 0.950 . S
C2677 C2673 1.393 . S
C2677 C2676 1.391 . S
C2678 H2668 0.950 . S
C2678 C2679 1.386 . S
C2678 C2680 1.391 . S
C2679 C2678 1.386 . S
C2679 C2683 1.393 . S
C2680 H2669 0.950 . S
C2680 C2678 1.391 . S
C2680 C2681 1.400 . S
C2681 C2675 1.491 . S
C2681 C2680 1.400 . S
C2681 C2682 1.398 . S
C2682 H2670 0.950 . S
C2682 C2681 1.398 . S
C2682 C2683 1.391 . S
C2683 H2671 0.950 . S
C2683 C2679 1.393 . S
C2683 C2682 1.391 . S
H2684 C2692 0.950 . S
H2685 C2697 0.950 . S
H2686 C2694 0.950 . S
H2687 C2696 0.950 . S
H2688 C2698 0.950 . S
H2689 C2700 0.950 . S
H2690 C2702 0.950 . S
H2691 C2703 0.950 . S
C2692 H2684 0.950 . S
C2692 C2693 1.386 . S
C2692 C2694 1.391 . S
C2693 C2692 1.386 . S
C2693 C2697 1.393 . S
C2694 H2686 0.950 . S
C2694 C2692 1.391 . S
C2694 C2695 1.400 . S
C2695 C2694 1.400 . S
C2695 C2696 1.398 . S
C2695 C2701 1.491 . S
C2696 H2687 0.950 . S
C2696 C2695 1.398 . S
C2696 C2697 1.391 . S
C2697 H2685 0.950 . S
C2697 C2693 1.393 . S
C2697 C2696 1.391 . S
C2698 H2688 0.950 . S
C2698 C2699 1.386 . S
C2698 C2700 1.391 . S
C2699 C2698 1.386 . S
C2699 C2703 1.393 . S
C2700 H2689 0.950 . S
C2700 C2698 1.391 . S
C2700 C2701 1.400 . S
C2701 C2695 1.491 . S
C2701 C2700 1.400 . S
C2701 C2702 1.398 . S
C2702 H2690 0.950 . S
C2702 C2701 1.398 . S
C2702 C2703 1.391 . S
C2703 H2691 0.950 . S
C2703 C2699 1.393 . S
C2703 C2702 1.391 . S
H2704 C2712 0.950 . S
H2705 C2717 0.950 . S
H2706 C2714 0.950 . S
H2707 C2716 0.950 . S
H2708 C2718 0.950 . S
H2709 C2720 0.950 . S
H2710 C2722 0.950 . S
H2711 C2723 0.950 . S
C2712 H2704 0.950 . S
C2712 C2713 1.386 . S
C2712 C2714 1.391 . S
C2713 C2712 1.386 . S
C2713 C2717 1.393 1_565 S
C2714 H2706 0.950 . S
C2714 C2712 1.391 . S
C2714 C2715 1.400 . S
C2715 C2714 1.400 . S
C2715 C2716 1.398 . S
C2715 C2721 1.491 . S
C2716 H2707 0.950 . S
C2716 C2715 1.398 . S
C2716 C2717 1.391 1_565 S
C2717 H2705 0.950 . S
C2717 C2713 1.393 1_545 S
C2717 C2716 1.391 1_545 S
C2718 H2708 0.950 . S
C2718 C2719 1.386 . S
C2718 C2720 1.391 . S
C2719 C2718 1.386 . S
C2719 C2723 1.393 . S
C2720 H2709 0.950 . S
C2720 C2718 1.391 . S
C2720 C2721 1.400 . S
C2721 C2715 1.491 . S
C2721 C2720 1.400 . S
C2721 C2722 1.398 . S
C2722 H2710 0.950 . S
C2722 C2721 1.398 . S
C2722 C2723 1.391 . S
C2723 H2711 0.950 . S
C2723 C2719 1.393 . S
C2723 C2722 1.391 . S
H2724 C2732 0.950 . S
H2725 C2737 0.950 . S
H2726 C2734 0.950 . S
H2727 C2736 0.950 . S
H2728 C2738 0.950 . S
H2729 C2740 0.950 . S
H2730 C2742 0.950 . S
H2731 C2743 0.950 . S
C2732 H2724 0.950 . S
C2732 C2733 1.386 . S
C2732 C2734 1.391 . S
C2733 C2732 1.386 . S
C2733 C2737 1.393 . S
C2734 H2726 0.950 . S
C2734 C2732 1.391 . S
C2734 C2735 1.400 . S
C2735 C2734 1.400 . S
C2735 C2736 1.398 . S
C2735 C2741 1.491 . S
C2736 H2727 0.950 . S
C2736 C2735 1.398 . S
C2736 C2737 1.391 . S
C2737 H2725 0.950 . S
C2737 C2733 1.393 . S
C2737 C2736 1.391 . S
C2738 H2728 0.950 . S
C2738 C2739 1.386 . S
C2738 C2740 1.391 . S
C2739 C2738 1.386 . S
C2739 C2743 1.393 . S
C2740 H2729 0.950 . S
C2740 C2738 1.391 . S
C2740 C2741 1.400 . S
C2741 C2735 1.491 . S
C2741 C2740 1.400 . S
C2741 C2742 1.398 . S
C2742 H2730 0.950 . S
C2742 C2741 1.398 . S
C2742 C2743 1.391 . S
C2743 H2731 0.950 . S
C2743 C2739 1.393 . S
C2743 C2742 1.391 . S
H2744 C2752 0.950 . S
H2745 C2757 0.950 . S
H2746 C2754 0.950 . S
H2747 C2756 0.950 . S
H2748 C2758 0.950 . S
H2749 C2760 0.950 . S
H2750 C2762 0.950 . S
H2751 C2763 0.950 . S
C2752 H2744 0.950 . S
C2752 C2753 1.386 . S
C2752 C2754 1.391 . S
C2753 C2752 1.386 . S
C2753 C2757 1.393 . S
C2754 H2746 0.950 . S
C2754 C2752 1.391 . S
C2754 C2755 1.400 . S
C2755 C2754 1.400 . S
C2755 C2756 1.398 . S
C2755 C2761 1.491 1_545 S
C2756 H2747 0.950 . S
C2756 C2755 1.398 . S
C2756 C2757 1.391 . S
C2757 H2745 0.950 . S
C2757 C2753 1.393 . S
C2757 C2756 1.391 . S
C2758 H2748 0.950 . S
C2758 C2759 1.386 . S
C2758 C2760 1.391 . S
C2759 C2758 1.386 . S
C2759 C2763 1.393 . S
C2760 H2749 0.950 . S
C2760 C2758 1.391 . S
C2760 C2761 1.400 . S
C2761 C2755 1.491 1_565 S
C2761 C2760 1.400 . S
C2761 C2762 1.398 . S
C2762 H2750 0.950 . S
C2762 C2761 1.398 . S
C2762 C2763 1.391 . S
C2763 H2751 0.950 . S
C2763 C2759 1.393 . S
C2763 C2762 1.391 . S
H2764 C2772 0.950 . S
H2765 C2777 0.950 . S
H2766 C2774 0.950 . S
H2767 C2776 0.950 . S
H2768 C2778 0.950 . S
H2769 C2780 0.950 . S
H2770 C2782 0.950 . S
H2771 C2783 0.950 . S
C2772 H2764 0.950 . S
C2772 C2773 1.386 . S
C2772 C2774 1.391 . S
C2773 C2772 1.386 . S
C2773 C2777 1.393 . S
C2774 H2766 0.950 . S
C2774 C2772 1.391 . S
C2774 C2775 1.400 . S
C2775 C2774 1.400 . S
C2775 C2776 1.398 . S
C2775 C2781 1.491 1_655 S
C2776 H2767 0.950 . S
C2776 C2775 1.398 . S
C2776 C2777 1.391 . S
C2777 H2765 0.950 . S
C2777 C2773 1.393 . S
C2777 C2776 1.391 . S
C2778 H2768 0.950 . S
C2778 C2779 1.386 . S
C2778 C2780 1.391 . S
C2779 C2778 1.386 . S
C2779 C2783 1.393 . S
C2780 H2769 0.950 . S
C2780 C2778 1.391 . S
C2780 C2781 1.400 . S
C2781 C2775 1.491 1_455 S
C2781 C2780 1.400 . S
C2781 C2782 1.398 . S
C2782 H2770 0.950 . S
C2782 C2781 1.398 . S
C2782 C2783 1.391 . S
C2783 H2771 0.950 . S
C2783 C2779 1.393 . S
C2783 C2782 1.391 . S
H2784 C2792 0.950 . S
H2785 C2797 0.950 . S
H2786 C2794 0.950 . S
H2787 C2796 0.950 . S
H2788 C2798 0.950 . S
H2789 C2800 0.950 . S
H2790 C2802 0.950 . S
H2791 C2803 0.950 . S
C2792 H2784 0.950 . S
C2792 C2793 1.386 . S
C2792 C2794 1.391 . S
C2793 C2792 1.386 . S
C2793 C2797 1.393 . S
C2794 H2786 0.950 . S
C2794 C2792 1.391 . S
C2794 C2795 1.400 . S
C2795 C2794 1.400 . S
C2795 C2796 1.398 . S
C2795 C2801 1.491 . S
C2796 H2787 0.950 . S
C2796 C2795 1.398 . S
C2796 C2797 1.391 . S
C2797 H2785 0.950 . S
C2797 C2793 1.393 . S
C2797 C2796 1.391 . S
C2798 H2788 0.950 . S
C2798 C2799 1.386 . S
C2798 C2800 1.391 . S
C2799 C2798 1.386 . S
C2799 C2803 1.393 . S
C2800 H2789 0.950 . S
C2800 C2798 1.391 . S
C2800 C2801 1.400 . S
C2801 C2795 1.491 . S
C2801 C2800 1.400 . S
C2801 C2802 1.398 . S
C2802 H2790 0.950 . S
C2802 C2801 1.398 . S
C2802 C2803 1.391 . S
C2803 H2791 0.950 . S
C2803 C2799 1.393 . S
C2803 C2802 1.391 . S
H2804 C2812 0.950 . S
H2805 C2817 0.950 . S
H2806 C2814 0.950 . S
H2807 C2816 0.950 . S
H2808 C2818 0.950 . S
H2809 C2820 0.950 . S
H2810 C2822 0.950 . S
H2811 C2823 0.950 . S
C2812 H2804 0.950 . S
C2812 C2813 1.386 . S
C2812 C2814 1.391 . S
C2813 C2812 1.386 . S
C2813 C2817 1.393 . S
C2814 H2806 0.950 . S
C2814 C2812 1.391 . S
C2814 C2815 1.400 . S
C2815 C2814 1.400 . S
C2815 C2816 1.398 . S
C2815 C2821 1.491 1_565 S
C2816 H2807 0.950 . S
C2816 C2815 1.398 . S
C2816 C2817 1.391 . S
C2817 H2805 0.950 . S
C2817 C2813 1.393 . S
C2817 C2816 1.391 . S
C2818 H2808 0.950 . S
C2818 C2819 1.386 . S
C2818 C2820 1.391 . S
C2819 C2818 1.386 . S
C2819 C2823 1.393 . S
C2820 H2809 0.950 . S
C2820 C2818 1.391 . S
C2820 C2821 1.400 . S
C2821 C2815 1.491 1_545 S
C2821 C2820 1.400 . S
C2821 C2822 1.398 . S
C2822 H2810 0.950 . S
C2822 C2821 1.398 . S
C2822 C2823 1.391 . S
C2823 H2811 0.950 . S
C2823 C2819 1.393 . S
C2823 C2822 1.391 . S
H2824 C2832 0.950 . S
H2825 C2837 0.950 . S
H2826 C2834 0.950 . S
H2827 C2836 0.950 . S
H2828 C2838 0.950 . S
H2829 C2840 0.950 . S
H2830 C2842 0.950 . S
H2831 C2843 0.950 . S
C2832 H2824 0.950 . S
C2832 C2833 1.386 . S
C2832 C2834 1.391 . S
C2833 C2832 1.386 . S
C2833 C2837 1.393 . S
C2834 H2826 0.950 . S
C2834 C2832 1.391 . S
C2834 C2835 1.400 . S
C2835 C2834 1.400 . S
C2835 C2836 1.398 . S
C2835 C2841 1.491 1_655 S
C2836 H2827 0.950 . S
C2836 C2835 1.398 . S
C2836 C2837 1.391 . S
C2837 H2825 0.950 . S
C2837 C2833 1.393 . S
C2837 C2836 1.391 . S
C2838 H2828 0.950 . S
C2838 C2839 1.386 . S
C2838 C2840 1.391 . S
C2839 C2838 1.386 . S
C2839 C2843 1.393 . S
C2840 H2829 0.950 . S
C2840 C2838 1.391 . S
C2840 C2841 1.400 . S
C2841 C2835 1.491 1_455 S
C2841 C2840 1.400 . S
C2841 C2842 1.398 . S
C2842 H2830 0.950 . S
C2842 C2841 1.398 . S
C2842 C2843 1.391 . S
C2843 H2831 0.950 . S
C2843 C2839 1.393 . S
C2843 C2842 1.391 . S
H2844 C2852 0.950 . S
H2845 C2857 0.950 . S
H2846 C2854 0.950 . S
H2847 C2856 0.950 . S
H2848 C2858 0.950 . S
H2849 C2860 0.950 . S
H2850 C2862 0.950 . S
H2851 C2863 0.950 . S
C2852 H2844 0.950 . S
C2852 C2853 1.386 . S
C2852 C2854 1.391 . S
C2853 C2852 1.386 . S
C2853 C2857 1.393 . S
C2854 H2846 0.950 . S
C2854 C2852 1.391 . S
C2854 C2855 1.400 . S
C2855 C2854 1.400 . S
C2855 C2856 1.398 . S
C2855 C2861 1.491 . S
C2856 H2847 0.950 . S
C2856 C2855 1.398 . S
C2856 C2857 1.391 . S
C2857 H2845 0.950 . S
C2857 C2853 1.393 . S
C2857 C2856 1.391 . S
C2858 H2848 0.950 . S
C2858 C2859 1.386 . S
C2858 C2860 1.391 . S
C2859 C2858 1.386 . S
C2859 C2863 1.393 . S
C2860 H2849 0.950 . S
C2860 C2858 1.391 . S
C2860 C2861 1.400 . S
C2861 C2855 1.491 . S
C2861 C2860 1.400 . S
C2861 C2862 1.398 . S
C2862 H2850 0.950 . S
C2862 C2861 1.398 . S
C2862 C2863 1.391 . S
C2863 H2851 0.950 . S
C2863 C2859 1.393 . S
C2863 C2862 1.391 . S
H2864 C2872 0.950 . S
H2865 C2877 0.950 . S
H2866 C2874 0.950 . S
H2867 C2876 0.950 1_565 S
H2868 C2878 0.950 . S
H2869 C2880 0.950 . S
H2870 C2882 0.950 . S
H2871 C2883 0.950 . S
C2872 H2864 0.950 . S
C2872 C2873 1.386 . S
C2872 C2874 1.391 . S
C2873 C2872 1.386 . S
C2873 C2877 1.393 . S
C2874 H2866 0.950 . S
C2874 C2872 1.391 . S
C2874 C2875 1.400 1_545 S
C2875 C2874 1.400 1_565 S
C2875 C2876 1.398 1_565 S
C2875 C2881 1.491 . S
C2876 H2867 0.950 1_545 S
C2876 C2875 1.398 1_545 S
C2876 C2877 1.391 . S
C2877 H2865 0.950 . S
C2877 C2873 1.393 . S
C2877 C2876 1.391 . S
C2878 H2868 0.950 . S
C2878 C2879 1.386 . S
C2878 C2880 1.391 . S
C2879 C2878 1.386 . S
C2879 C2883 1.393 . S
C2880 H2869 0.950 . S
C2880 C2878 1.391 . S
C2880 C2881 1.400 . S
C2881 C2875 1.491 . S
C2881 C2880 1.400 . S
C2881 C2882 1.398 . S
C2882 H2870 0.950 . S
C2882 C2881 1.398 . S
C2882 C2883 1.391 . S
C2883 H2871 0.950 . S
C2883 C2879 1.393 . S
C2883 C2882 1.391 . S
H2884 C2892 0.950 . S
H2885 C2897 0.950 . S
H2886 C2894 0.950 1_455 S
H2887 C2896 0.950 . S
H2888 C2898 0.950 . S
H2889 C2900 0.950 . S
H2890 C2902 0.950 . S
H2891 C2903 0.950 . S
C2892 H2884 0.950 . S
C2892 C2893 1.386 . S
C2892 C2894 1.391 . S
C2893 C2892 1.386 . S
C2893 C2897 1.393 . S
C2894 H2886 0.950 1_655 S
C2894 C2892 1.391 . S
C2894 C2895 1.400 1_655 S
C2895 C2894 1.400 1_455 S
C2895 C2896 1.398 1_455 S
C2895 C2901 1.491 . S
C2896 H2887 0.950 . S
C2896 C2895 1.398 1_655 S
C2896 C2897 1.391 . S
C2897 H2885 0.950 . S
C2897 C2893 1.393 . S
C2897 C2896 1.391 . S
C2898 H2888 0.950 . S
C2898 C2899 1.386 . S
C2898 C2900 1.391 . S
C2899 C2898 1.386 . S
C2899 C2903 1.393 . S
C2900 H2889 0.950 . S
C2900 C2898 1.391 . S
C2900 C2901 1.400 . S
C2901 C2895 1.491 . S
C2901 C2900 1.400 . S
C2901 C2902 1.398 . S
C2902 H2890 0.950 . S
C2902 C2901 1.398 . S
C2902 C2903 1.391 . S
C2903 H2891 0.950 . S
C2903 C2899 1.393 . S
C2903 C2902 1.391 . S
H2904 C2912 0.950 . S
H2905 C2917 0.950 . S
H2906 C2914 0.950 . S
H2907 C2916 0.950 . S
H2908 C2918 0.950 . S
H2909 C2920 0.950 . S
H2910 C2922 0.950 . S
H2911 C2923 0.950 . S
C2912 H2904 0.950 . S
C2912 C2913 1.386 . S
C2912 C2914 1.391 . S
C2913 C2912 1.386 . S
C2913 C2917 1.393 . S
C2914 H2906 0.950 . S
C2914 C2912 1.391 . S
C2914 C2915 1.400 . S
C2915 C2914 1.400 . S
C2915 C2916 1.398 . S
C2915 C2921 1.491 . S
C2916 H2907 0.950 . S
C2916 C2915 1.398 . S
C2916 C2917 1.391 . S
C2917 H2905 0.950 . S
C2917 C2913 1.393 . S
C2917 C2916 1.391 . S
C2918 H2908 0.950 . S
C2918 C2919 1.386 . S
C2918 C2920 1.391 . S
C2919 C2918 1.386 . S
C2919 C2923 1.393 . S
C2920 H2909 0.950 . S
C2920 C2918 1.391 . S
C2920 C2921 1.400 . S
C2921 C2915 1.491 . S
C2921 C2920 1.400 . S
C2921 C2922 1.398 . S
C2922 H2910 0.950 . S
C2922 C2921 1.398 . S
C2922 C2923 1.391 . S
C2923 H2911 0.950 . S
C2923 C2919 1.393 . S
C2923 C2922 1.391 . S
H2924 C2932 0.950 . S
H2925 C2937 0.950 . S
H2926 C2934 0.950 . S
H2927 C2936 0.950 . S
H2928 C2938 0.950 . S
H2929 C2940 0.950 . S
H2930 C2942 0.950 1_545 S
H2931 C2943 0.950 . S
C2932 H2924 0.950 . S
C2932 C2933 1.386 . S
C2932 C2934 1.391 . S
C2933 C2932 1.386 . S
C2933 C2937 1.393 . S
C2934 H2926 0.950 . S
C2934 C2932 1.391 . S
C2934 C2935 1.400 . S
C2935 C2934 1.400 . S
C2935 C2936 1.398 . S
C2935 C2941 1.491 . S
C2936 H2927 0.950 . S
C2936 C2935 1.398 . S
C2936 C2937 1.391 . S
C2937 H2925 0.950 . S
C2937 C2933 1.393 . S
C2937 C2936 1.391 . S
C2938 H2928 0.950 . S
C2938 C2939 1.386 . S
C2938 C2940 1.391 . S
C2939 C2938 1.386 . S
C2939 C2943 1.393 . S
C2940 H2929 0.950 . S
C2940 C2938 1.391 . S
C2940 C2941 1.400 1_565 S
C2941 C2935 1.491 . S
C2941 C2940 1.400 1_545 S
C2941 C2942 1.398 1_545 S
C2942 H2930 0.950 1_565 S
C2942 C2941 1.398 1_565 S
C2942 C2943 1.391 . S
C2943 H2931 0.950 . S
C2943 C2939 1.393 . S
C2943 C2942 1.391 . S
H2944 C2952 0.950 . S
H2945 C2957 0.950 . S
H2946 C2954 0.950 . S
H2947 C2956 0.950 1_655 S
H2948 C2958 0.950 . S
H2949 C2960 0.950 . S
H2950 C2962 0.950 . S
H2951 C2963 0.950 . S
C2952 H2944 0.950 . S
C2952 C2953 1.386 . S
C2952 C2954 1.391 . S
C2953 C2952 1.386 . S
C2953 C2957 1.393 . S
C2954 H2946 0.950 . S
C2954 C2952 1.391 . S
C2954 C2955 1.400 1_455 S
C2955 C2954 1.400 1_655 S
C2955 C2956 1.398 1_655 S
C2955 C2961 1.491 . S
C2956 H2947 0.950 1_455 S
C2956 C2955 1.398 1_455 S
C2956 C2957 1.391 . S
C2957 H2945 0.950 . S
C2957 C2953 1.393 . S
C2957 C2956 1.391 . S
C2958 H2948 0.950 . S
C2958 C2959 1.386 . S
C2958 C2960 1.391 . S
C2959 C2958 1.386 . S
C2959 C2963 1.393 . S
C2960 H2949 0.950 . S
C2960 C2958 1.391 . S
C2960 C2961 1.400 . S
C2961 C2955 1.491 . S
C2961 C2960 1.400 . S
C2961 C2962 1.398 . S
C2962 H2950 0.950 . S
C2962 C2961 1.398 . S
C2962 C2963 1.391 . S
C2963 H2951 0.950 . S
C2963 C2959 1.393 . S
C2963 C2962 1.391 . S
H2964 C2972 0.950 . S
H2965 C2977 0.950 . S
H2966 C2974 0.950 . S
H2967 C2976 0.950 . S
H2968 C2978 0.950 . S
H2969 C2980 0.950 . S
H2970 C2982 0.950 . S
H2971 C2983 0.950 . S
C2972 H2964 0.950 . S
C2972 C2973 1.386 . S
C2972 C2974 1.391 . S
C2973 C2972 1.386 . S
C2973 C2977 1.393 . S
C2974 H2966 0.950 . S
C2974 C2972 1.391 . S
C2974 C2975 1.400 . S
C2975 C2974 1.400 . S
C2975 C2976 1.398 . S
C2975 C2981 1.491 . S
C2976 H2967 0.950 . S
C2976 C2975 1.398 . S
C2976 C2977 1.391 . S
C2977 H2965 0.950 . S
C2977 C2973 1.393 . S
C2977 C2976 1.391 . S
C2978 H2968 0.950 . S
C2978 C2979 1.386 . S
C2978 C2980 1.391 . S
C2979 C2978 1.386 . S
C2979 C2983 1.393 . S
C2980 H2969 0.950 . S
C2980 C2978 1.391 . S
C2980 C2981 1.400 . S
C2981 C2975 1.491 . S
C2981 C2980 1.400 . S
C2981 C2982 1.398 . S
C2982 H2970 0.950 . S
C2982 C2981 1.398 . S
C2982 C2983 1.391 . S
C2983 H2971 0.950 . S
C2983 C2979 1.393 . S
C2983 C2982 1.391 . S
H2984 C2992 0.950 . S
H2985 C2997 0.950 . S
H2986 C2994 0.950 . S
H2987 C2996 0.950 1_545 S
H2988 C2998 0.950 . S
H2989 C3000 0.950 . S
H2990 C3002 0.950 . S
H2991 C3003 0.950 . S
C2992 H2984 0.950 . S
C2992 C2993 1.386 . S
C2992 C2994 1.391 . S
C2993 C2992 1.386 . S
C2993 C2997 1.393 . S
C2994 H2986 0.950 . S
C2994 C2992 1.391 . S
C2994 C2995 1.400 1_565 S
C2995 C2994 1.400 1_545 S
C2995 C2996 1.398 1_545 S
C2995 C3001 1.491 . S
C2996 H2987 0.950 1_565 S
C2996 C2995 1.398 1_565 S
C2996 C2997 1.391 . S
C2997 H2985 0.950 . S
C2997 C2993 1.393 . S
C2997 C2996 1.391 . S
C2998 H2988 0.950 . S
C2998 C2999 1.386 . S
C2998 C3000 1.391 . S
C2999 C2998 1.386 . S
C2999 C3003 1.393 . S
C3000 H2989 0.950 . S
C3000 C2998 1.391 . S
C3000 C3001 1.400 . S
C3001 C2995 1.491 . S
C3001 C3000 1.400 . S
C3001 C3002 1.398 . S
C3002 H2990 0.950 . S
C3002 C3001 1.398 . S
C3002 C3003 1.391 . S
C3003 H2991 0.950 . S
C3003 C2999 1.393 . S
C3003 C3002 1.391 . S
H3004 C3012 0.950 . S
H3005 C3017 0.950 . S
H3006 C3014 0.950 . S
H3007 C3016 0.950 1_655 S
H3008 C3018 0.950 . S
H3009 C3020 0.950 . S
H3010 C3022 0.950 . S
H3011 C3023 0.950 . S
C3012 H3004 0.950 . S
C3012 C3013 1.386 . S
C3012 C3014 1.391 . S
C3013 C3012 1.386 . S
C3013 C3017 1.393 . S
C3014 H3006 0.950 . S
C3014 C3012 1.391 . S
C3014 C3015 1.400 1_455 S
C3015 C3014 1.400 1_655 S
C3015 C3016 1.398 1_655 S
C3015 C3021 1.491 . S
C3016 H3007 0.950 1_455 S
C3016 C3015 1.398 1_455 S
C3016 C3017 1.391 . S
C3017 H3005 0.950 . S
C3017 C3013 1.393 . S
C3017 C3016 1.391 . S
C3018 H3008 0.950 . S
C3018 C3019 1.386 . S
C3018 C3020 1.391 . S
C3019 C3018 1.386 . S
C3019 C3023 1.393 . S
C3020 H3009 0.950 . S
C3020 C3018 1.391 . S
C3020 C3021 1.400 . S
C3021 C3015 1.491 . S
C3021 C3020 1.400 . S
C3021 C3022 1.398 . S
C3022 H3010 0.950 . S
C3022 C3021 1.398 . S
C3022 C3023 1.391 . S
C3023 H3011 0.950 . S
C3023 C3019 1.393 . S
C3023 C3022 1.391 . S
H3024 C3032 0.950 . S
H3025 C3037 0.950 . S
H3026 C3034 0.950 . S
H3027 C3036 0.950 . S
H3028 C3038 0.950 . S
H3029 C3040 0.950 . S
H3030 C3042 0.950 . S
H3031 C3043 0.950 . S
C3032 H3024 0.950 . S
C3032 C3033 1.386 . S
C3032 C3034 1.391 . S
C3033 C3032 1.386 . S
C3033 C3037 1.393 . S
C3034 H3026 0.950 . S
C3034 C3032 1.391 . S
C3034 C3035 1.400 . S
C3035 C3034 1.400 . S
C3035 C3036 1.398 . S
C3035 C3041 1.491 . S
C3036 H3027 0.950 . S
C3036 C3035 1.398 . S
C3036 C3037 1.391 . S
C3037 H3025 0.950 . S
C3037 C3033 1.393 . S
C3037 C3036 1.391 . S
C3038 H3028 0.950 . S
C3038 C3039 1.386 . S
C3038 C3040 1.391 . S
C3039 C3038 1.386 . S
C3039 C3043 1.393 . S
C3040 H3029 0.950 . S
C3040 C3038 1.391 . S
C3040 C3041 1.400 . S
C3041 C3035 1.491 . S
C3041 C3040 1.400 . S
C3041 C3042 1.398 . S
C3042 H3030 0.950 . S
C3042 C3041 1.398 . S
C3042 C3043 1.391 . S
C3043 H3031 0.950 . S
C3043 C3039 1.393 . S
C3043 C3042 1.391 . S
H3044 C3052 0.950 . S
H3045 C3057 0.950 . S
H3046 C3054 0.950 . S
H3047 C3056 0.961 . S
H3048 C3058 0.950 . S
H3049 C3060 0.950 . S
H3050 C3062 0.950 . S
H3051 C3063 0.950 . S
C3052 H3044 0.950 . S
C3052 C3053 1.386 . S
C3052 C3054 1.391 . S
C3053 C3052 1.386 . S
C3053 C3057 1.393 . S
C3054 H3046 0.950 . S
C3054 C3052 1.391 . S
C3054 C3055 1.400 1_545 S
C3055 C3054 1.400 1_565 S
C3055 C3056 1.398 1_565 S
C3055 C3061 1.491 . S
C3056 H3047 0.961 . S
C3056 C3055 1.398 1_545 S
C3056 C3057 1.391 . S
C3057 H3045 0.950 . S
C3057 C3053 1.393 . S
C3057 C3056 1.391 . S
C3058 H3048 0.950 . S
C3058 C3059 1.386 . S
C3058 C3060 1.391 . S
C3059 C3058 1.386 . S
C3059 C3063 1.393 . S
C3060 H3049 0.950 . S
C3060 C3058 1.391 . S
C3060 C3061 1.400 . S
C3061 C3055 1.491 . S
C3061 C3060 1.400 . S
C3061 C3062 1.398 . S
C3062 H3050 0.950 . S
C3062 C3061 1.398 . S
C3062 C3063 1.391 . S
C3063 H3051 0.950 . S
C3063 C3059 1.393 . S
C3063 C3062 1.391 . S
H3064 C3072 0.950 . S
H3065 C3077 0.950 . S
H3066 C3074 0.950 . S
H3067 C3076 0.950 . S
H3068 C3078 0.950 . S
H3069 C3080 0.950 1_455 S
H3070 C3082 0.950 . S
H3071 C3083 0.950 . S
C3072 H3064 0.950 . S
C3072 C3073 1.386 . S
C3072 C3074 1.391 . S
C3073 C3072 1.386 . S
C3073 C3077 1.393 . S
C3074 H3066 0.950 . S
C3074 C3072 1.391 . S
C3074 C3075 1.400 . S
C3075 C3074 1.400 . S
C3075 C3076 1.398 . S
C3075 C3081 1.491 . S
C3076 H3067 0.950 . S
C3076 C3075 1.398 . S
C3076 C3077 1.391 . S
C3077 H3065 0.950 . S
C3077 C3073 1.393 . S
C3077 C3076 1.391 . S
C3078 H3068 0.950 . S
C3078 C3079 1.386 . S
C3078 C3080 1.391 . S
C3079 C3078 1.386 . S
C3079 C3083 1.393 . S
C3080 H3069 0.950 1_655 S
C3080 C3078 1.391 . S
C3080 C3081 1.400 1_655 S
C3081 C3075 1.491 . S
C3081 C3080 1.400 1_455 S
C3081 C3082 1.398 1_455 S
C3082 H3070 0.950 . S
C3082 C3081 1.398 1_655 S
C3082 C3083 1.391 . S
C3083 H3071 0.950 . S
C3083 C3079 1.393 . S
C3083 C3082 1.391 . S
H3084 C3092 0.950 . S
H3085 C3097 0.950 . S
H3086 C3094 0.950 . S
H3087 C3096 0.950 . S
H3088 C3098 0.950 . S
H3089 C3100 0.950 . S
H3090 C3102 0.950 . S
H3091 C3103 0.950 . S
C3092 H3084 0.950 . S
C3092 C3093 1.386 . S
C3092 C3094 1.391 . S
C3093 C3092 1.386 . S
C3093 C3097 1.393 . S
C3094 H3086 0.950 . S
C3094 C3092 1.391 . S
C3094 C3095 1.400 . S
C3095 C3094 1.400 . S
C3095 C3096 1.398 . S
C3095 C3101 1.491 . S
C3096 H3087 0.950 . S
C3096 C3095 1.398 . S
C3096 C3097 1.391 . S
C3097 H3085 0.950 . S
C3097 C3093 1.393 . S
C3097 C3096 1.391 . S
C3098 H3088 0.950 . S
C3098 C3099 1.386 . S
C3098 C3100 1.391 . S
C3099 C3098 1.386 . S
C3099 C3103 1.393 . S
C3100 H3089 0.950 . S
C3100 C3098 1.391 . S
C3100 C3101 1.400 . S
C3101 C3095 1.491 . S
C3101 C3100 1.400 . S
C3101 C3102 1.398 . S
C3102 H3090 0.950 . S
C3102 C3101 1.398 . S
C3102 C3103 1.391 . S
C3103 H3091 0.950 . S
C3103 C3099 1.393 . S
C3103 C3102 1.391 . S
H3104 C3112 0.950 . S
H3105 C3117 0.950 . S
H3106 C3114 0.950 . S
H3107 C3116 0.950 . S
H3108 C3118 0.950 . S
H3109 C3120 0.950 . S
H3110 C3122 0.950 . S
H3111 C3123 0.950 . S
C3112 H3104 0.950 . S
C3112 C3113 1.386 . S
C3112 C3114 1.391 . S
C3113 C3112 1.386 . S
C3113 C3117 1.393 . S
C3114 H3106 0.950 . S
C3114 C3112 1.391 . S
C3114 C3115 1.400 . S
C3115 C3114 1.400 . S
C3115 C3116 1.398 . S
C3115 C3121 1.491 . S
C3116 H3107 0.950 . S
C3116 C3115 1.398 . S
C3116 C3117 1.391 . S
C3117 H3105 0.950 . S
C3117 C3113 1.393 . S
C3117 C3116 1.391 . S
C3118 H3108 0.950 . S
C3118 C3119 1.386 . S
C3118 C3120 1.391 . S
C3119 C3118 1.386 . S
C3119 C3123 1.393 . S
C3120 H3109 0.950 . S
C3120 C3118 1.391 . S
C3120 C3121 1.400 . S
C3121 C3115 1.491 . S
C3121 C3120 1.400 . S
C3121 C3122 1.398 . S
C3122 H3110 0.950 . S
C3122 C3121 1.398 . S
C3122 C3123 1.391 . S
C3123 H3111 0.950 . S
C3123 C3119 1.393 . S
C3123 C3122 1.391 . S
H3124 C3132 0.950 . S
H3125 C3137 0.950 . S
H3126 C3134 0.950 . S
H3127 C3136 0.950 . S
H3128 C3138 0.950 . S
H3129 C3140 0.950 . S
H3130 C3142 0.950 . S
H3131 C3143 0.950 . S
C3132 H3124 0.950 . S
C3132 C3133 1.386 . S
C3132 C3134 1.391 . S
C3133 C3132 1.386 . S
C3133 C3137 1.393 . S
C3134 H3126 0.950 . S
C3134 C3132 1.391 . S
C3134 C3135 1.400 . S
C3135 C3134 1.400 . S
C3135 C3136 1.398 . S
C3135 C3141 1.491 . S
C3136 H3127 0.950 . S
C3136 C3135 1.398 . S
C3136 C3137 1.391 . S
C3137 H3125 0.950 . S
C3137 C3133 1.393 . S
C3137 C3136 1.391 . S
C3138 H3128 0.950 . S
C3138 C3139 1.386 . S
C3138 C3140 1.391 . S
C3139 C3138 1.386 . S
C3139 C3143 1.393 . S
C3140 H3129 0.950 . S
C3140 C3138 1.391 . S
C3140 C3141 1.400 . S
C3141 C3135 1.491 . S
C3141 C3140 1.400 . S
C3141 C3142 1.398 . S
C3142 H3130 0.950 . S
C3142 C3141 1.398 . S
C3142 C3143 1.391 . S
C3143 H3131 0.950 . S
C3143 C3139 1.393 . S
C3143 C3142 1.391 . S
H3144 C3152 0.950 . S
H3145 C3157 0.950 . S
H3146 C3154 0.950 . S
H3147 C3156 0.950 . S
H3148 C3158 0.950 . S
H3149 C3160 0.950 . S
H3150 C3162 0.950 . S
H3151 C3163 0.950 . S
C3152 H3144 0.950 . S
C3152 C3153 1.386 . S
C3152 C3154 1.391 . S
C3153 C3152 1.386 . S
C3153 C3157 1.393 . S
C3154 H3146 0.950 . S
C3154 C3152 1.391 . S
C3154 C3155 1.400 . S
C3155 C3154 1.400 . S
C3155 C3156 1.398 . S
C3155 C3161 1.491 . S
C3156 H3147 0.950 . S
C3156 C3155 1.398 . S
C3156 C3157 1.391 . S
C3157 H3145 0.950 . S
C3157 C3153 1.393 . S
C3157 C3156 1.391 . S
C3158 H3148 0.950 . S
C3158 C3159 1.386 . S
C3158 C3160 1.391 . S
C3159 C3158 1.386 . S
C3159 C3163 1.393 . S
C3160 H3149 0.950 . S
C3160 C3158 1.391 . S
C3160 C3161 1.400 . S
C3161 C3155 1.491 . S
C3161 C3160 1.400 . S
C3161 C3162 1.398 . S
C3162 H3150 0.950 . S
C3162 C3161 1.398 . S
C3162 C3163 1.391 . S
C3163 H3151 0.950 . S
C3163 C3159 1.393 . S
C3163 C3162 1.391 . S
H3164 C3172 0.950 . S
H3165 C3177 0.950 . S
H3166 C3174 0.950 . S
H3167 C3176 0.950 . S
H3168 C3178 0.950 . S
H3169 C3180 0.950 . S
H3170 C3182 0.950 . S
H3171 C3183 0.950 . S
C3172 H3164 0.950 . S
C3172 C3173 1.386 . S
C3172 C3174 1.391 . S
C3173 C3172 1.386 . S
C3173 C3177 1.393 . S
C3174 H3166 0.950 . S
C3174 C3172 1.391 . S
C3174 C3175 1.400 . S
C3175 C3174 1.400 . S
C3175 C3176 1.398 . S
C3175 C3181 1.491 . S
C3176 H3167 0.950 . S
C3176 C3175 1.398 . S
C3176 C3177 1.391 . S
C3177 H3165 0.950 . S
C3177 C3173 1.393 . S
C3177 C3176 1.391 . S
C3178 H3168 0.950 . S
C3178 C3179 1.386 . S
C3178 C3180 1.391 . S
C3179 C3178 1.386 . S
C3179 C3183 1.393 . S
C3180 H3169 0.950 . S
C3180 C3178 1.391 . S
C3180 C3181 1.400 . S
C3181 C3175 1.491 . S
C3181 C3180 1.400 . S
C3181 C3182 1.398 . S
C3182 H3170 0.950 . S
C3182 C3181 1.398 . S
C3182 C3183 1.391 . S
C3183 H3171 0.950 . S
C3183 C3179 1.393 . S
C3183 C3182 1.391 . S
H3184 C3192 0.950 . S
H3185 C3197 0.950 . S
H3186 C3194 0.950 . S
H3187 C3196 0.950 . S
H3188 C3198 0.950 . S
H3189 C3200 0.950 . S
H3190 C3202 0.950 . S
H3191 C3203 0.950 . S
C3192 H3184 0.950 . S
C3192 C3193 1.386 . S
C3192 C3194 1.391 . S
C3193 C3192 1.386 . S
C3193 C3197 1.393 . S
C3194 H3186 0.950 . S
C3194 C3192 1.391 . S
C3194 C3195 1.400 . S
C3195 C3194 1.400 . S
C3195 C3196 1.398 . S
C3195 C3201 1.491 . S
C3196 H3187 0.950 . S
C3196 C3195 1.398 . S
C3196 C3197 1.391 . S
C3197 H3185 0.950 . S
C3197 C3193 1.393 . S
C3197 C3196 1.391 . S
C3198 H3188 0.950 . S
C3198 C3199 1.386 . S
C3198 C3200 1.391 . S
C3199 C3198 1.386 . S
C3199 C3203 1.393 . S
C3200 H3189 0.950 . S
C3200 C3198 1.391 . S
C3200 C3201 1.400 . S
C3201 C3195 1.491 . S
C3201 C3200 1.400 . S
C3201 C3202 1.398 . S
C3202 H3190 0.950 . S
C3202 C3201 1.398 . S
C3202 C3203 1.391 . S
C3203 H3191 0.950 . S
C3203 C3199 1.393 . S
C3203 C3202 1.391 . S
H3204 C3212 0.950 . S
H3205 C3217 0.950 . S
H3206 C3214 0.950 . S
H3207 C3216 0.950 . S
H3208 C3218 0.950 . S
H3209 C3220 0.950 . S
H3210 C3222 0.950 . S
H3211 C3223 0.950 . S
C3212 H3204 0.950 . S
C3212 C3213 1.386 . S
C3212 C3214 1.391 . S
C3213 C3212 1.386 . S
C3213 C3217 1.393 . S
C3214 H3206 0.950 . S
C3214 C3212 1.391 . S
C3214 C3215 1.400 . S
C3215 C3214 1.400 . S
C3215 C3216 1.398 . S
C3215 C3221 1.491 . S
C3216 H3207 0.950 . S
C3216 C3215 1.398 . S
C3216 C3217 1.391 . S
C3217 H3205 0.950 . S
C3217 C3213 1.393 . S
C3217 C3216 1.391 . S
C3218 H3208 0.950 . S
C3218 C3219 1.386 . S
C3218 C3220 1.391 . S
C3219 C3218 1.386 . S
C3219 C3223 1.393 . S
C3220 H3209 0.950 . S
C3220 C3218 1.391 . S
C3220 C3221 1.400 . S
C3221 C3215 1.491 . S
C3221 C3220 1.400 . S
C3221 C3222 1.398 . S
C3222 H3210 0.950 . S
C3222 C3221 1.398 . S
C3222 C3223 1.391 . S
C3223 H3211 0.950 . S
C3223 C3219 1.393 . S
C3223 C3222 1.391 . S
H3224 C3232 0.950 . S
H3225 C3237 0.950 . S
H3226 C3234 0.950 . S
H3227 C3236 0.950 . S
H3228 C3238 0.950 . S
H3229 C3240 0.950 . S
H3230 C3242 0.950 . S
H3231 C3243 0.950 . S
C3232 H3224 0.950 . S
C3232 C3233 1.386 . S
C3232 C3234 1.391 . S
C3233 C3232 1.386 . S
C3233 C3237 1.393 . S
C3234 H3226 0.950 . S
C3234 C3232 1.391 . S
C3234 C3235 1.400 . S
C3235 C3234 1.400 . S
C3235 C3236 1.398 . S
C3235 C3241 1.491 . S
C3236 H3227 0.950 . S
C3236 C3235 1.398 . S
C3236 C3237 1.391 . S
C3237 H3225 0.950 . S
C3237 C3233 1.393 . S
C3237 C3236 1.391 . S
C3238 H3228 0.950 . S
C3238 C3239 1.386 . S
C3238 C3240 1.391 . S
C3239 C3238 1.386 . S
C3239 C3243 1.393 . S
C3240 H3229 0.950 . S
C3240 C3238 1.391 . S
C3240 C3241 1.400 . S
C3241 C3235 1.491 . S
C3241 C3240 1.400 . S
C3241 C3242 1.398 . S
C3242 H3230 0.950 . S
C3242 C3241 1.398 . S
C3242 C3243 1.391 . S
C3243 H3231 0.950 . S
C3243 C3239 1.393 . S
C3243 C3242 1.391 . S
H3244 C3252 0.950 . S
H3245 C3257 0.950 . S
H3246 C3254 0.950 . S
H3247 C3256 0.950 . S
H3248 C3258 0.950 . S
H3249 C3260 0.950 . S
H3250 C3262 0.950 . S
H3251 C3263 0.950 . S
C3252 H3244 0.950 . S
C3252 C3253 1.386 . S
C3252 C3254 1.391 . S
C3253 C3252 1.386 . S
C3253 C3257 1.393 . S
C3254 H3246 0.950 . S
C3254 C3252 1.391 . S
C3254 C3255 1.400 . S
C3255 C3254 1.400 . S
C3255 C3256 1.398 . S
C3255 C3261 1.491 . S
C3256 H3247 0.950 . S
C3256 C3255 1.398 . S
C3256 C3257 1.391 . S
C3257 H3245 0.950 . S
C3257 C3253 1.393 . S
C3257 C3256 1.391 . S
C3258 H3248 0.950 . S
C3258 C3259 1.386 . S
C3258 C3260 1.391 . S
C3259 C3258 1.386 . S
C3259 C3263 1.393 . S
C3260 H3249 0.950 . S
C3260 C3258 1.391 . S
C3260 C3261 1.400 . S
C3261 C3255 1.491 . S
C3261 C3260 1.400 . S
C3261 C3262 1.398 . S
C3262 H3250 0.950 . S
C3262 C3261 1.398 . S
C3262 C3263 1.391 . S
C3263 H3251 0.950 . S
C3263 C3259 1.393 . S
C3263 C3262 1.391 . S
H3264 C3272 0.950 . S
H3265 C3277 0.950 . S
H3266 C3274 0.950 . S
H3267 C3276 0.950 . S
H3268 C3278 0.950 . S
H3269 C3280 0.950 . S
H3270 C3282 0.950 . S
H3271 C3283 0.950 . S
C3272 H3264 0.950 . S
C3272 C3273 1.386 . S
C3272 C3274 1.391 . S
C3273 C3272 1.386 . S
C3273 C3277 1.393 . S
C3274 H3266 0.950 . S
C3274 C3272 1.391 . S
C3274 C3275 1.400 . S
C3275 C3274 1.400 . S
C3275 C3276 1.398 . S
C3275 C3281 1.491 . S
C3276 H3267 0.950 . S
C3276 C3275 1.398 . S
C3276 C3277 1.391 . S
C3277 H3265 0.950 . S
C3277 C3273 1.393 . S
C3277 C3276 1.391 . S
C3278 H3268 0.950 . S
C3278 C3279 1.386 . S
C3278 C3280 1.391 . S
C3279 C3278 1.386 . S
C3279 C3283 1.393 . S
C3280 H3269 0.950 . S
C3280 C3278 1.391 . S
C3280 C3281 1.400 . S
C3281 C3275 1.491 . S
C3281 C3280 1.400 . S
C3281 C3282 1.398 . S
C3282 H3270 0.950 . S
C3282 C3281 1.398 . S
C3282 C3283 1.391 . S
C3283 H3271 0.950 . S
C3283 C3279 1.393 . S
C3283 C3282 1.391 . S
H3284 C3292 0.950 . S
H3285 C3297 0.950 . S
H3286 C3294 0.950 . S
H3287 C3296 0.950 . S
H3288 C3298 0.950 . S
H3289 C3300 0.950 . S
H3290 C3302 0.950 . S
H3291 C3303 0.950 . S
C3292 H3284 0.950 . S
C3292 C3293 1.386 . S
C3292 C3294 1.391 . S
C3293 C3292 1.386 . S
C3293 C3297 1.393 . S
C3294 H3286 0.950 . S
C3294 C3292 1.391 . S
C3294 C3295 1.400 . S
C3295 C3294 1.400 . S
C3295 C3296 1.398 . S
C3295 C3301 1.491 . S
C3296 H3287 0.950 . S
C3296 C3295 1.398 . S
C3296 C3297 1.391 . S
C3297 H3285 0.950 . S
C3297 C3293 1.393 . S
C3297 C3296 1.391 . S
C3298 H3288 0.950 . S
C3298 C3299 1.386 . S
C3298 C3300 1.391 . S
C3299 C3298 1.386 . S
C3299 C3303 1.393 . S
C3300 H3289 0.950 . S
C3300 C3298 1.391 . S
C3300 C3301 1.400 . S
C3301 C3295 1.491 . S
C3301 C3300 1.400 . S
C3301 C3302 1.398 . S
C3302 H3290 0.950 . S
C3302 C3301 1.398 . S
C3302 C3303 1.391 . S
C3303 H3291 0.950 . S
C3303 C3299 1.393 . S
C3303 C3302 1.391 . S
H3304 C3312 0.950 . S
H3305 C3317 0.950 . S
H3306 C3314 0.950 . S
H3307 C3316 0.950 . S
H3308 C3318 0.950 . S
H3309 C3320 0.950 . S
H3310 C3322 0.950 . S
H3311 C3323 0.950 . S
C3312 H3304 0.950 . S
C3312 C3313 1.386 . S
C3312 C3314 1.391 . S
C3313 C3312 1.386 . S
C3313 C3317 1.393 . S
C3314 H3306 0.950 . S
C3314 C3312 1.391 . S
C3314 C3315 1.400 . S
C3315 C3314 1.400 . S
C3315 C3316 1.398 . S
C3315 C3321 1.491 . S
C3316 H3307 0.950 . S
C3316 C3315 1.398 . S
C3316 C3317 1.391 . S
C3317 H3305 0.950 . S
C3317 C3313 1.393 . S
C3317 C3316 1.391 . S
C3318 H3308 0.950 . S
C3318 C3319 1.386 . S
C3318 C3320 1.391 . S
C3319 C3318 1.386 . S
C3319 C3323 1.393 . S
C3320 H3309 0.950 . S
C3320 C3318 1.391 . S
C3320 C3321 1.400 . S
C3321 C3315 1.491 . S
C3321 C3320 1.400 . S
C3321 C3322 1.398 . S
C3322 H3310 0.950 . S
C3322 C3321 1.398 . S
C3322 C3323 1.391 . S
C3323 H3311 0.950 . S
C3323 C3319 1.393 . S
C3323 C3322 1.391 . S
H3324 C3332 0.950 . S
H3325 C3337 0.950 . S
H3326 C3334 0.950 . S
H3327 C3336 0.950 . S
H3328 C3338 0.950 . S
H3329 C3340 0.950 . S
H3330 C3342 0.950 . S
H3331 C3343 0.950 . S
C3332 H3324 0.950 . S
C3332 C3333 1.386 . S
C3332 C3334 1.391 . S
C3333 C3332 1.386 . S
C3333 C3337 1.393 . S
C3334 H3326 0.950 . S
C3334 C3332 1.391 . S
C3334 C3335 1.400 . S
C3335 C3334 1.400 . S
C3335 C3336 1.398 . S
C3335 C3341 1.491 . S
C3336 H3327 0.950 . S
C3336 C3335 1.398 . S
C3336 C3337 1.391 . S
C3337 H3325 0.950 . S
C3337 C3333 1.393 . S
C3337 C3336 1.391 . S
C3338 H3328 0.950 . S
C3338 C3339 1.386 . S
C3338 C3340 1.391 . S
C3339 C3338 1.386 . S
C3339 C3343 1.393 . S
C3340 H3329 0.950 . S
C3340 C3338 1.391 . S
C3340 C3341 1.400 . S
C3341 C3335 1.491 . S
C3341 C3340 1.400 . S
C3341 C3342 1.398 . S
C3342 H3330 0.950 . S
C3342 C3341 1.398 . S
C3342 C3343 1.391 . S
C3343 H3331 0.950 . S
C3343 C3339 1.393 . S
C3343 C3342 1.391 . S
H3344 C3352 0.950 . S
H3345 C3357 0.950 . S
H3346 C3354 0.950 . S
H3347 C3356 0.950 . S
H3348 C3358 0.950 . S
H3349 C3360 0.950 . S
H3350 C3362 0.950 . S
H3351 C3363 0.950 . S
C3352 H3344 0.950 . S
C3352 C3353 1.386 . S
C3352 C3354 1.391 . S
C3353 C3352 1.386 . S
C3353 C3357 1.393 . S
C3354 H3346 0.950 . S
C3354 C3352 1.391 . S
C3354 C3355 1.400 . S
C3355 C3354 1.400 . S
C3355 C3356 1.398 . S
C3355 C3361 1.491 . S
C3356 H3347 0.950 . S
C3356 C3355 1.398 . S
C3356 C3357 1.391 . S
C3357 H3345 0.950 . S
C3357 C3353 1.393 . S
C3357 C3356 1.391 . S
C3358 H3348 0.950 . S
C3358 C3359 1.386 . S
C3358 C3360 1.391 . S
C3359 C3358 1.386 . S
C3359 C3363 1.393 . S
C3360 H3349 0.950 . S
C3360 C3358 1.391 . S
C3360 C3361 1.400 . S
C3361 C3355 1.491 . S
C3361 C3360 1.400 . S
C3361 C3362 1.398 . S
C3362 H3350 0.950 . S
C3362 C3361 1.398 . S
C3362 C3363 1.391 . S
C3363 H3351 0.950 . S
C3363 C3359 1.393 . S
C3363 C3362 1.391 . S
H3364 C3372 0.950 . S
H3365 C3377 0.950 . S
H3366 C3374 0.950 . S
H3367 C3376 0.950 . S
H3368 C3378 0.950 . S
H3369 C3380 0.950 . S
H3370 C3382 0.950 . S
H3371 C3383 0.950 . S
C3372 H3364 0.950 . S
C3372 C3373 1.386 . S
C3372 C3374 1.391 . S
C3373 C3372 1.386 . S
C3373 C3377 1.393 . S
C3374 H3366 0.950 . S
C3374 C3372 1.391 . S
C3374 C3375 1.400 . S
C3375 C3374 1.400 . S
C3375 C3376 1.398 . S
C3375 C3381 1.491 . S
C3376 H3367 0.950 . S
C3376 C3375 1.398 . S
C3376 C3377 1.391 . S
C3377 H3365 0.950 . S
C3377 C3373 1.393 . S
C3377 C3376 1.391 . S
C3378 H3368 0.950 . S
C3378 C3379 1.386 . S
C3378 C3380 1.391 . S
C3379 C3378 1.386 . S
C3379 C3383 1.393 . S
C3380 H3369 0.950 . S
C3380 C3378 1.391 . S
C3380 C3381 1.400 . S
C3381 C3375 1.491 . S
C3381 C3380 1.400 . S
C3381 C3382 1.398 . S
C3382 H3370 0.950 . S
C3382 C3381 1.398 . S
C3382 C3383 1.391 . S
C3383 H3371 0.950 . S
C3383 C3379 1.393 . S
C3383 C3382 1.391 . S
H3384 C3392 0.950 . S
H3385 C3397 0.950 . S
H3386 C3394 0.950 . S
H3387 C3396 0.950 . S
H3388 C3398 0.950 . S
H3389 C3400 0.950 . S
H3390 C3402 0.950 . S
H3391 C3403 0.950 . S
C3392 H3384 0.950 . S
C3392 C3393 1.386 . S
C3392 C3394 1.391 . S
C3393 C3392 1.386 . S
C3393 C3397 1.393 . S
C3394 H3386 0.950 . S
C3394 C3392 1.391 . S
C3394 C3395 1.400 . S
C3395 C3394 1.400 . S
C3395 C3396 1.398 . S
C3395 C3401 1.491 . S
C3396 H3387 0.950 . S
C3396 C3395 1.398 . S
C3396 C3397 1.391 . S
C3397 H3385 0.950 . S
C3397 C3393 1.393 . S
C3397 C3396 1.391 . S
C3398 H3388 0.950 . S
C3398 C3399 1.386 . S
C3398 C3400 1.391 . S
C3399 C3398 1.386 . S
C3399 C3403 1.393 . S
C3400 H3389 0.950 . S
C3400 C3398 1.391 . S
C3400 C3401 1.400 . S
C3401 C3395 1.491 . S
C3401 C3400 1.400 . S
C3401 C3402 1.398 . S
C3402 H3390 0.950 . S
C3402 C3401 1.398 . S
C3402 C3403 1.391 . S
C3403 H3391 0.950 . S
C3403 C3399 1.393 . S
C3403 C3402 1.391 . S
H3404 C3412 0.950 . S
H3405 C3417 0.950 . S
H3406 C3414 0.950 . S
H3407 C3416 0.950 . S
H3408 C3418 0.950 . S
H3409 C3420 0.950 . S
H3410 C3422 0.950 . S
H3411 C3423 0.950 . S
C3412 H3404 0.950 . S
C3412 C3413 1.386 . S
C3412 C3414 1.391 . S
C3413 C3412 1.386 . S
C3413 C3417 1.393 . S
C3414 H3406 0.950 . S
C3414 C3412 1.391 . S
C3414 C3415 1.400 . S
C3415 C3414 1.400 . S
C3415 C3416 1.398 . S
C3415 C3421 1.491 . S
C3416 H3407 0.950 . S
C3416 C3415 1.398 . S
C3416 C3417 1.391 . S
C3417 H3405 0.950 . S
C3417 C3413 1.393 . S
C3417 C3416 1.391 . S
C3418 H3408 0.950 . S
C3418 C3419 1.386 . S
C3418 C3420 1.391 . S
C3419 C3418 1.386 . S
C3419 C3423 1.393 . S
C3420 H3409 0.950 . S
C3420 C3418 1.391 . S
C3420 C3421 1.400 . S
C3421 C3415 1.491 . S
C3421 C3420 1.400 . S
C3421 C3422 1.398 . S
C3422 H3410 0.950 . S
C3422 C3421 1.398 . S
C3422 C3423 1.391 . S
C3423 H3411 0.950 . S
C3423 C3419 1.393 . S
C3423 C3422 1.391 . S
H3424 C3432 0.950 . S
H3425 C3437 0.950 . S
H3426 C3434 0.950 . S
H3427 C3436 0.950 . S
H3428 C3438 0.950 . S
H3429 C3440 0.950 . S
H3430 C3442 0.950 . S
H3431 C3443 0.950 . S
C3432 H3424 0.950 . S
C3432 C3433 1.386 . S
C3432 C3434 1.391 . S
C3433 C3432 1.386 . S
C3433 C3437 1.393 . S
C3434 H3426 0.950 . S
C3434 C3432 1.391 . S
C3434 C3435 1.400 . S
C3435 C3434 1.400 . S
C3435 C3436 1.398 . S
C3435 C3441 1.491 . S
C3436 H3427 0.950 . S
C3436 C3435 1.398 . S
C3436 C3437 1.391 . S
C3437 H3425 0.950 . S
C3437 C3433 1.393 . S
C3437 C3436 1.391 . S
C3438 H3428 0.950 . S
C3438 C3439 1.386 . S
C3438 C3440 1.391 . S
C3439 C3438 1.386 . S
C3439 C3443 1.393 . S
C3440 H3429 0.950 . S
C3440 C3438 1.391 . S
C3440 C3441 1.400 . S
C3441 C3435 1.491 . S
C3441 C3440 1.400 . S
C3441 C3442 1.398 . S
C3442 H3430 0.950 . S
C3442 C3441 1.398 . S
C3442 C3443 1.391 . S
C3443 H3431 0.950 . S
C3443 C3439 1.393 . S
C3443 C3442 1.391 . S
H3444 C3452 0.950 . S
H3445 C3457 0.950 . S
H3446 C3454 0.950 . S
H3447 C3456 0.950 . S
H3448 C3458 0.950 . S
H3449 C3460 0.950 . S
H3450 C3462 0.950 . S
H3451 C3463 0.950 . S
C3452 H3444 0.950 . S
C3452 C3453 1.386 . S
C3452 C3454 1.391 . S
C3453 C3452 1.386 . S
C3453 C3457 1.393 . S
C3454 H3446 0.950 . S
C3454 C3452 1.391 . S
C3454 C3455 1.400 . S
C3455 C3454 1.400 . S
C3455 C3456 1.398 . S
C3455 C3461 1.491 . S
C3456 H3447 0.950 . S
C3456 C3455 1.398 . S
C3456 C3457 1.391 . S
C3457 H3445 0.950 . S
C3457 C3453 1.393 . S
C3457 C3456 1.391 . S
C3458 H3448 0.950 . S
C3458 C3459 1.386 . S
C3458 C3460 1.391 . S
C3459 C3458 1.386 . S
C3459 C3463 1.393 . S
C3460 H3449 0.950 . S
C3460 C3458 1.391 . S
C3460 C3461 1.400 . S
C3461 C3455 1.491 . S
C3461 C3460 1.400 . S
C3461 C3462 1.398 . S
C3462 H3450 0.950 . S
C3462 C3461 1.398 . S
C3462 C3463 1.391 . S
C3463 H3451 0.950 . S
C3463 C3459 1.393 . S
C3463 C3462 1.391 . S
H3464 C3472 0.950 . S
H3465 C3477 0.950 . S
H3466 C3474 0.950 . S
H3467 C3476 0.950 . S
H3468 C3478 0.950 . S
H3469 C3480 0.950 . S
H3470 C3482 0.950 . S
H3471 C3483 0.950 . S
C3472 H3464 0.950 . S
C3472 C3473 1.386 . S
C3472 C3474 1.391 . S
C3473 C3472 1.386 . S
C3473 C3477 1.393 . S
C3474 H3466 0.950 . S
C3474 C3472 1.391 . S
C3474 C3475 1.400 . S
C3475 C3474 1.400 . S
C3475 C3476 1.398 . S
C3475 C3481 1.491 . S
C3476 H3467 0.950 . S
C3476 C3475 1.398 . S
C3476 C3477 1.391 . S
C3477 H3465 0.950 . S
C3477 C3473 1.393 . S
C3477 C3476 1.391 . S
C3478 H3468 0.950 . S
C3478 C3479 1.386 . S
C3478 C3480 1.391 . S
C3479 C3478 1.386 . S
C3479 C3483 1.393 . S
C3480 H3469 0.950 . S
C3480 C3478 1.391 . S
C3480 C3481 1.400 . S
C3481 C3475 1.491 . S
C3481 C3480 1.400 . S
C3481 C3482 1.398 . S
C3482 H3470 0.950 . S
C3482 C3481 1.398 . S
C3482 C3483 1.391 . S
C3483 H3471 0.950 . S
C3483 C3479 1.393 . S
C3483 C3482 1.391 . S
H3484 C3492 0.950 . S
H3485 C3497 0.950 . S
H3486 C3494 0.950 . S
H3487 C3496 0.950 . S
H3488 C3498 0.950 . S
H3489 C3500 0.950 . S
H3490 C3502 0.950 . S
H3491 C3503 0.950 . S
C3492 H3484 0.950 . S
C3492 C3493 1.386 . S
C3492 C3494 1.391 . S
C3493 C3492 1.386 . S
C3493 C3497 1.393 . S
C3494 H3486 0.950 . S
C3494 C3492 1.391 . S
C3494 C3495 1.400 . S
C3495 C3494 1.400 . S
C3495 C3496 1.398 . S
C3495 C3501 1.491 . S
C3496 H3487 0.950 . S
C3496 C3495 1.398 . S
C3496 C3497 1.391 . S
C3497 H3485 0.950 . S
C3497 C3493 1.393 . S
C3497 C3496 1.391 . S
C3498 H3488 0.950 . S
C3498 C3499 1.386 . S
C3498 C3500 1.391 . S
C3499 C3498 1.386 . S
C3499 C3503 1.393 . S
C3500 H3489 0.950 . S
C3500 C3498 1.391 . S
C3500 C3501 1.400 . S
C3501 C3495 1.491 . S
C3501 C3500 1.400 . S
C3501 C3502 1.398 . S
C3502 H3490 0.950 . S
C3502 C3501 1.398 . S
C3502 C3503 1.391 . S
C3503 H3491 0.950 . S
C3503 C3499 1.393 . S
C3503 C3502 1.391 . S
H3504 C3512 0.950 . S
H3505 C3517 0.950 . S
H3506 C3514 0.950 . S
H3507 C3516 0.950 . S
H3508 C3518 0.950 . S
H3509 C3520 0.950 . S
H3510 C3522 0.950 . S
H3511 C3523 0.950 . S
C3512 H3504 0.950 . S
C3512 C3513 1.386 . S
C3512 C3514 1.391 . S
C3513 C3512 1.386 . S
C3513 C3517 1.393 . S
C3514 H3506 0.950 . S
C3514 C3512 1.391 . S
C3514 C3515 1.400 . S
C3515 C3514 1.400 . S
C3515 C3516 1.398 . S
C3515 C3521 1.491 . S
C3516 H3507 0.950 . S
C3516 C3515 1.398 . S
C3516 C3517 1.391 . S
C3517 H3505 0.950 . S
C3517 C3513 1.393 . S
C3517 C3516 1.391 . S
C3518 H3508 0.950 . S
C3518 C3519 1.386 . S
C3518 C3520 1.391 . S
C3519 C3518 1.386 . S
C3519 C3523 1.393 . S
C3520 H3509 0.950 . S
C3520 C3518 1.391 . S
C3520 C3521 1.400 . S
C3521 C3515 1.491 . S
C3521 C3520 1.400 . S
C3521 C3522 1.398 . S
C3522 H3510 0.950 . S
C3522 C3521 1.398 . S
C3522 C3523 1.391 . S
C3523 H3511 0.950 . S
C3523 C3519 1.393 . S
C3523 C3522 1.391 . S
H3524 C3532 0.950 . S
H3525 C3537 0.950 . S
H3526 C3534 0.950 . S
H3527 C3536 0.950 . S
H3528 C3538 0.950 . S
H3529 C3540 0.950 . S
H3530 C3542 0.950 . S
H3531 C3543 0.950 . S
C3532 H3524 0.950 . S
C3532 C3533 1.386 . S
C3532 C3534 1.391 . S
C3533 C3532 1.386 . S
C3533 C3537 1.393 . S
C3534 H3526 0.950 . S
C3534 C3532 1.391 . S
C3534 C3535 1.400 . S
C3535 C3534 1.400 . S
C3535 C3536 1.398 . S
C3535 C3541 1.491 . S
C3536 H3527 0.950 . S
C3536 C3535 1.398 . S
C3536 C3537 1.391 . S
C3537 H3525 0.950 . S
C3537 C3533 1.393 . S
C3537 C3536 1.391 . S
C3538 H3528 0.950 . S
C3538 C3539 1.386 . S
C3538 C3540 1.391 . S
C3539 C3538 1.386 . S
C3539 C3543 1.393 . S
C3540 H3529 0.950 . S
C3540 C3538 1.391 . S
C3540 C3541 1.400 . S
C3541 C3535 1.491 . S
C3541 C3540 1.400 . S
C3541 C3542 1.398 . S
C3542 H3530 0.950 . S
C3542 C3541 1.398 . S
C3542 C3543 1.391 . S
C3543 H3531 0.950 . S
C3543 C3539 1.393 . S
C3543 C3542 1.391 . S
H3544 C3552 0.950 . S
H3545 C3557 0.950 . S
H3546 C3554 0.950 . S
H3547 C3556 0.950 . S
H3548 C3558 0.950 . S
H3549 C3560 0.950 . S
H3550 C3562 0.950 . S
H3551 C3563 0.950 . S
C3552 H3544 0.950 . S
C3552 C3553 1.386 . S
C3552 C3554 1.391 . S
C3553 C3552 1.386 . S
C3553 C3557 1.393 . S
C3554 H3546 0.950 . S
C3554 C3552 1.391 . S
C3554 C3555 1.400 . S
C3555 C3554 1.400 . S
C3555 C3556 1.398 . S
C3555 C3561 1.491 . S
C3556 H3547 0.950 . S
C3556 C3555 1.398 . S
C3556 C3557 1.391 . S
C3557 H3545 0.950 . S
C3557 C3553 1.393 . S
C3557 C3556 1.391 . S
C3558 H3548 0.950 . S
C3558 C3559 1.386 . S
C3558 C3560 1.391 . S
C3559 C3558 1.386 . S
C3559 C3563 1.393 . S
C3560 H3549 0.950 . S
C3560 C3558 1.391 . S
C3560 C3561 1.400 . S
C3561 C3555 1.491 . S
C3561 C3560 1.400 . S
C3561 C3562 1.398 . S
C3562 H3550 0.950 . S
C3562 C3561 1.398 . S
C3562 C3563 1.391 . S
C3563 H3551 0.950 . S
C3563 C3559 1.393 . S
C3563 C3562 1.391 . S
C2133 C3 1.466 . S
C2139 C1065 1.466 . S
C2153 C1124 1.466 . S
C2159 C62 1.466 . S
C2173 C1183 1.465 . S
C2179 C121 1.465 . S
C2193 C180 1.451 . S
C2199 C1950 1.451 . S
C2213 C239 1.453 . S
C2219 C2009 1.453 . S
C2233 C298 1.457 . S
C2239 C2068 1.457 . S
C2253 C1419 1.455 . S
C2259 C357 1.455 . S
C2273 C416 1.464 . S
C2279 C1478 1.464 . S
C2293 C475 1.463 . S
C2299 C1537 1.463 . S
C2313 C888 1.465 . S
C2319 C534 1.465 . S
C2333 C947 1.467 . S
C2339 C593 1.467 . S
C2353 C1006 1.467 . S
C2359 C652 1.467 . S
C2373 C1773 1.466 . S
C2379 C711 1.466 . S
C2393 C1832 1.460 . S
C2399 C770 1.460 . S
C2413 C829 1.451 . S
C2419 C1891 1.451 . S
C2433 C1596 1.461 . S
C2439 C1242 1.461 . S
C2453 C1301 1.467 . S
C2459 C1655 1.467 . S
C2473 C1360 1.453 . S
C2479 C1714 1.453 . S
C2493 C5 1.473 1_565 S
C2499 C1598 1.469 . S
C2513 C1657 1.469 . S
C2519 C64 1.472 1_455 S
C2533 C1716 1.466 . S
C2539 C123 1.462 . S
C2553 C713 1.473 . S
C2559 C182 1.469 1_655 S
C2573 C772 1.468 . S
C2579 C241 1.472 . S
C2593 C831 1.466 . S
C2599 C300 1.472 1_545 S
C2613 C359 1.472 1_545 S
C2619 C1244 1.470 . S
C2633 C1303 1.467 . S
C2639 C418 1.462 1_655 S
C2653 C1362 1.462 . S
C2659 C477 1.464 . S
C2673 C536 1.472 1_455 S
C2679 C1775 1.467 . S
C2693 C595 1.472 . S
C2699 C1834 1.466 . S
C2713 C654 1.462 1_565 S
C2719 C1893 1.465 . S
C2733 C890 1.462 . S
C2739 C1421 1.465 . S
C2753 C949 1.471 . S
C2759 C1480 1.465 . S
C2773 C1008 1.470 . S
C2779 C1539 1.463 . S
C2793 C1067 1.462 . S
C2799 C1952 1.467 . S
C2813 C2011 1.472 . S
C2819 C1126 1.470 . S
C2833 C1185 1.471 . S
C2839 C2070 1.464 . S
C2853 C92 1.179 . S
C2859 C52 1.193 . S
C2873 C111 1.177 . S
C2879 C151 1.187 . S
C2893 C170 1.184 . S
C2899 C33 1.192 . S
C2913 C229 1.181 . S
C2919 C328 1.179 . S
C2933 C210 1.190 . S
C2939 C288 1.189 . S
C2953 C347 1.190 . S
C2959 C269 1.176 . S
C2973 C406 1.188 . S
C2979 C446 1.175 . S
C2993 C465 1.192 . S
C2999 C505 1.185 . S
C3013 C524 1.193 . S
C3019 C387 1.178 . S
C3033 C682 1.176 . S
C3039 C583 1.186 . S
C3053 C642 1.179 . S
C3059 C564 1.191 . S
C3073 C623 1.192 . S
C3079 C701 1.183 . S
C3093 C800 1.179 . S
C3099 C760 1.193 . S
C3113 C859 1.182 . S
C3119 C819 1.193 . S
C3133 C741 1.188 . S
C3139 C878 1.177 . S
C3153 C937 1.187 . S
C3159 C1036 1.191 . S
C3173 C996 1.193 . S
C3179 C918 1.183 . S
C3193 C1055 1.179 . S
C3199 C977 1.180 . S
C3213 C1154 1.187 . S
C3219 C1114 1.177 . S
C3233 C1173 1.185 . S
C3239 C1213 1.192 . S
C3253 C1232 1.193 . S
C3259 C1095 1.181 . S
C3273 C1291 1.177 . S
C3279 C1390 1.186 . S
C3293 C1350 1.177 . S
C3299 C1272 1.189 . S
C3313 C1331 1.179 . S
C3319 C1409 1.180 . S
C3333 C1508 1.179 . S
C3339 C1468 1.193 . S
C3353 C1527 1.189 . S
C3359 C1567 1.175 . S
C3373 C1449 1.176 . S
C3379 C1586 1.191 . S
C3393 C1645 1.184 . S
C3399 C1744 1.176 . S
C3413 C1704 1.190 . S
C3419 C1626 1.175 . S
C3433 C1763 1.189 . S
C3439 C1685 1.189 . S
C3453 C1822 1.178 . S
C3459 C1862 1.190 . S
C3473 C1881 1.186 . S
C3479 C1921 1.191 . S
C3493 C1940 1.184 . S
C3499 C1803 1.176 . S
C3513 C1999 1.193 . S
C3519 C2098 1.180 . S
C3533 C2058 1.187 . S
C3539 C1980 1.175 . S
C3553 C2039 1.185 . S
C3559 C2117 1.192 . S
