# Generated by pormake.
# Topology sni, (6)-cn, num edge types: 1
# Building blocks:
#     Node 0, Type 0, BuildingBlock: IZENUY_clean_sbu_0, # of connection points: 6
#     Node 1, Type 0, BuildingBlock: IZENUY_clean_sbu_0, # of connection points: 6
#     Node 2, Type 0, BuildingBlock: IZENUY_clean_sbu_0, # of connection points: 6
#     Node 3, Type 0, BuildingBlock: IZENUY_clean_sbu_0, # of connection points: 6
#     Node 4, Type 0, BuildingBlock: IZENUY_clean_sbu_0, # of connection points: 6
#     Node 5, Type 0, BuildingBlock: IZENUY_clean_sbu_0, # of connection points: 6
#     Node 6, Type 0, BuildingBlock: IZENUY_clean_sbu_0, # of connection points: 6
#     Node 7, Type 0, BuildingBlock: IZENUY_clean_sbu_0, # of connection points: 6
#     Edge 8, Type (0, 0), BuildingBlock: XUDNAN_clean_linker_2, # of connection points: 2
#     Edge 9, Type (0, 0), BuildingBlock: XUDNAN_clean_linker_2, # of connection points: 2
#     Edge 10, Type (0, 0), BuildingBlock: XUDNAN_clean_linker_2, # of connection points: 2
#     Edge 11, Type (0, 0), BuildingBlock: XUDNAN_clean_linker_2, # of connection points: 2
#     Edge 12, Type (0, 0), BuildingBlock: XUDNAN_clean_linker_2, # of connection points: 2
#     Edge 13, Type (0, 0), BuildingBlock: XUDNAN_clean_linker_2, # of connection points: 2
#     Edge 14, Type (0, 0), BuildingBlock: XUDNAN_clean_linker_2, # of connection points: 2
#     Edge 15, Type (0, 0), BuildingBlock: XUDNAN_clean_linker_2, # of connection points: 2
#     Edge 16, Type (0, 0), BuildingBlock: XUDNAN_clean_linker_2, # of connection points: 2
#     Edge 17, Type (0, 0), BuildingBlock: XUDNAN_clean_linker_2, # of connection points: 2
#     Edge 18, Type (0, 0), BuildingBlock: XUDNAN_clean_linker_2, # of connection points: 2
#     Edge 19, Type (0, 0), BuildingBlock: XUDNAN_clean_linker_2, # of connection points: 2
#     Edge 20, Type (0, 0), BuildingBlock: XUDNAN_clean_linker_2, # of connection points: 2
#     Edge 21, Type (0, 0), BuildingBlock: XUDNAN_clean_linker_2, # of connection points: 2
#     Edge 22, Type (0, 0), BuildingBlock: XUDNAN_clean_linker_2, # of connection points: 2
#     Edge 23, Type (0, 0), BuildingBlock: XUDNAN_clean_linker_2, # of connection points: 2
#     Edge 24, Type (0, 0), BuildingBlock: XUDNAN_clean_linker_2, # of connection points: 2
#     Edge 25, Type (0, 0), BuildingBlock: XUDNAN_clean_linker_2, # of connection points: 2
#     Edge 26, Type (0, 0), BuildingBlock: XUDNAN_clean_linker_2, # of connection points: 2
#     Edge 27, Type (0, 0), BuildingBlock: XUDNAN_clean_linker_2, # of connection points: 2
#     Edge 28, Type (0, 0), BuildingBlock: XUDNAN_clean_linker_2, # of connection points: 2
#     Edge 29, Type (0, 0), BuildingBlock: XUDNAN_clean_linker_2, # of connection points: 2
#     Edge 30, Type (0, 0), BuildingBlock: XUDNAN_clean_linker_2, # of connection points: 2
#     Edge 31, Type (0, 0), BuildingBlock: XUDNAN_clean_linker_2, # of connection points: 2
# Relax obj value: 0.128
# Max RMSD: 0.110
# Mean RMSD: 0.110
data_MOF--net-sni--node1-IZENUY_clean_sbu_0--edge1-XUDNAN_clean_linker_2
_symmetry_space_group_name_H-M    P1
_symmetry_Int_Tables_number       1
_symmetry_cell_setting            triclinic
loop_
_symmetry_equiv_pos_as_xyz
'x, y, z'
_cell_length_a     40.751766
_cell_length_b     40.882627
_cell_length_c     20.114375
_cell_angle_alpha  89.801892
_cell_angle_beta   90.146104
_cell_angle_gamma 90.021329
loop_
_atom_site_label
_atom_site_type_symbol
_atom_site_fract_x
_atom_site_fract_y
_atom_site_fract_z
_atom_type_partial_charge
Fe0 Fe 0.64712 0.19632 0.99752 0.0
Fe1 Fe 0.70181 0.14435 0.00587 0.0
O2 O 0.65988 0.15524 0.01167 0.0
Fe3 Fe 0.6305 0.12488 0.03111 0.0
O4 O 0.59769 0.14347 0.98253 0.0
O5 O 0.62057 0.18399 0.92795 0.0
O6 O 0.67915 0.20551 0.93594 0.0
C7 C 0.69715 0.18702 0.9012 0.0
C8 C 0.60729 0.1754 0.10535 0.0
O9 O 0.70364 0.15826 0.92019 0.0
C10 C 0.68387 0.10793 0.11421 0.0
O11 O 0.67299 0.21132 0.06553 0.0
O12 O 0.71694 0.18356 0.03626 0.0
O13 O 0.6183 0.14658 0.10519 0.0
O14 O 0.61286 0.19461 0.05701 0.0
C15 C 0.66946 0.09075 0.94566 0.0
O16 O 0.70312 0.12943 0.09148 0.0
O17 O 0.65774 0.10069 0.08379 0.0
C18 C 0.70361 0.20627 0.06906 0.0
O19 O 0.69418 0.1032 0.97406 0.0
O20 O 0.64092 0.10105 0.95789 0.0
C21 C 0.59893 0.16187 0.93211 0.0
Fe22 Fe 0.89373 0.62514 0.00454 0.0
Fe23 Fe 0.87383 0.69758 0.99445 0.0
O24 O 0.86276 0.65566 0.00088 0.0
Fe25 Fe 0.82057 0.64466 0.00369 0.0
O26 O 0.82633 0.60896 0.05715 0.0
O27 O 0.87864 0.6091 0.08327 0.0
O28 O 0.92233 0.65023 0.05315 0.0
C29 C 0.91835 0.67596 0.08724 0.0
C30 C 0.84501 0.59729 0.92044 0.0
O31 O 0.89576 0.69608 0.07335 0.0
C32 C 0.82265 0.69448 0.90653 0.0
O33 O 0.91181 0.63827 0.92598 0.0
O34 O 0.9117 0.69064 0.94851 0.0
O35 O 0.82424 0.61979 0.92937 0.0
O36 O 0.87035 0.59491 0.95676 0.0
C37 C 0.82062 0.69893 0.08308 0.0
O38 O 0.85254 0.70172 0.91499 0.0
O39 O 0.80711 0.67805 0.94956 0.0
C40 C 0.92212 0.66684 0.91483 0.0
O41 O 0.83831 0.71266 0.03978 0.0
O42 O 0.81381 0.66885 0.07881 0.0
C43 C 0.84968 0.59955 0.09387 0.0
Fe44 Fe 0.32228 0.88109 0.98519 0.0
Fe45 Fe 0.37885 0.83154 0.00721 0.0
O46 O 0.36477 0.8717 0.98787 0.0
Fe47 Fe 0.39383 0.90278 0.97128 0.0
O48 O 0.38044 0.92616 0.04219 0.0
O49 O 0.32748 0.92246 0.02062 0.0
O50 O 0.31634 0.86696 0.06939 0.0
C51 C 0.32344 0.83914 0.09221 0.0
C52 C 0.34311 0.91866 0.88112 0.0
O53 O 0.3449 0.82149 0.06432 0.0
C54 C 0.42088 0.85264 0.90249 0.0
O55 O 0.31023 0.84133 0.94959 0.0
O56 O 0.35687 0.81451 0.93734 0.0
O57 O 0.36787 0.92646 0.91516 0.0
O58 O 0.32417 0.89628 0.90028 0.0
C59 C 0.42353 0.86811 0.07574 0.0
O60 O 0.41512 0.83405 0.952 0.0
O61 O 0.40866 0.88095 0.89961 0.0
C62 C 0.32691 0.81854 0.92345 0.0
O63 O 0.40205 0.84593 0.07946 0.0
O64 O 0.42577 0.88555 0.02415 0.0
C65 C 0.35133 0.93547 0.05181 0.0
Fe66 Fe 0.20326 0.38155 0.98654 0.0
Fe67 Fe 0.13047 0.40022 0.99358 0.0
O68 O 0.16158 0.37009 0.99671 0.0
Fe69 Fe 0.15084 0.32866 0.01035 0.0
O70 O 0.1884 0.31846 0.05745 0.0
O71 O 0.21403 0.3655 0.0675 0.0
O72 O 0.19854 0.42181 0.02713 0.0
C73 C 0.1766 0.43224 0.06649 0.0
C74 C 0.1985 0.32123 0.91637 0.0
O75 O 0.14779 0.42117 0.064 0.0
C76 C 0.10096 0.35184 0.92284 0.0
O77 O 0.19539 0.39861 0.90477 0.0
O78 O 0.15206 0.42685 0.93432 0.0
O79 O 0.16905 0.31651 0.9327 0.0
O80 O 0.2155 0.34329 0.94443 0.0
C81 C 0.10868 0.35812 0.09652 0.0
O82 O 0.11135 0.38087 0.923 0.0
O83 O 0.1113 0.33125 0.96538 0.0
C84 C 0.17491 0.42105 0.89347 0.0
O85 O 0.10283 0.37951 0.05244 0.0
O86 O 0.13188 0.33809 0.08926 0.0
C87 C 0.2091 0.33657 0.0868 0.0
Fe88 Fe 0.64396 0.82942 0.48295 0.0
Fe89 Fe 0.70023 0.87765 0.51356 0.0
O90 O 0.65791 0.86963 0.5016 0.0
Fe91 Fe 0.62937 0.90204 0.5084 0.0
O92 O 0.596 0.87657 0.54098 0.0
O93 O 0.61835 0.82837 0.55673 0.0
O94 O 0.67585 0.80889 0.53296 0.0
C95 C 0.69476 0.81916 0.57859 0.0
C96 C 0.60402 0.87038 0.40118 0.0
O97 O 0.70258 0.84896 0.58209 0.0
C98 C 0.68264 0.93161 0.44123 0.0
O99 O 0.66898 0.82715 0.40826 0.0
O100 O 0.71397 0.84677 0.45419 0.0
O101 O 0.61628 0.89627 0.42397 0.0
O102 O 0.60933 0.84304 0.42949 0.0
C103 C 0.66961 0.91696 0.6118 0.0
O104 O 0.70107 0.90692 0.4454 0.0
O105 O 0.65715 0.93374 0.47672 0.0
C106 C 0.69963 0.83179 0.40739 0.0
O107 O 0.69399 0.90999 0.57551 0.0
O108 O 0.64085 0.91003 0.59363 0.0
C109 C 0.59661 0.8492 0.57042 0.0
Fe110 Fe 0.14562 0.70237 0.50652 0.0
Fe111 Fe 0.19918 0.65035 0.48489 0.0
O112 O 0.15724 0.66111 0.49344 0.0
Fe113 Fe 0.12681 0.63025 0.48936 0.0
O114 O 0.10808 0.64923 0.41773 0.0
O115 O 0.10689 0.69913 0.45842 0.0
O116 O 0.16498 0.71556 0.43032 0.0
C117 C 0.19464 0.71108 0.41538 0.0
C118 C 0.10258 0.67189 0.59016 0.0
O119 O 0.21137 0.68884 0.44354 0.0
C120 C 0.17283 0.59902 0.56425 0.0
O121 O 0.18224 0.71286 0.55674 0.0
O122 O 0.20883 0.66623 0.5661 0.0
O123 O 0.09797 0.6502 0.54645 0.0
O124 O 0.12546 0.69238 0.58401 0.0
C125 C 0.17254 0.61067 0.39103 0.0
O126 O 0.19474 0.60987 0.52518 0.0
O127 O 0.14383 0.60956 0.56094 0.0
C128 C 0.20317 0.69485 0.58609 0.0
O129 O 0.19238 0.63357 0.40281 0.0
O130 O 0.14961 0.60419 0.43136 0.0
C131 C 0.09726 0.6781 0.41616 0.0
Fe132 Fe 0.38146 0.19717 0.51719 0.0
Fe133 Fe 0.32496 0.14976 0.48392 0.0
O134 O 0.36738 0.15721 0.49669 0.0
Fe135 Fe 0.39563 0.12459 0.48893 0.0
O136 O 0.40939 0.12977 0.57354 0.0
O137 O 0.41585 0.18312 0.57049 0.0
O138 O 0.35617 0.19865 0.59178 0.0
C139 C 0.32552 0.194 0.59209 0.0
C140 C 0.42905 0.17791 0.42964 0.0
O141 O 0.31128 0.18052 0.54341 0.0
C142 C 0.35483 0.1101 0.38546 0.0
O143 O 0.3499 0.21827 0.4673 0.0
O144 O 0.32348 0.17876 0.4157 0.0
O145 O 0.42896 0.14994 0.45661 0.0
O146 O 0.40753 0.19887 0.44407 0.0
C147 C 0.34212 0.09556 0.55588 0.0
O148 O 0.33071 0.11749 0.42193 0.0
O149 O 0.38374 0.11679 0.40335 0.0
C150 C 0.33181 0.20842 0.41994 0.0
O151 O 0.3236 0.1202 0.55158 0.0
O152 O 0.36759 0.09327 0.52043 0.0
C153 C 0.42155 0.15555 0.59732 0.0
Fe154 Fe 0.88156 0.32237 0.49865 0.0
Fe155 Fe 0.89666 0.39543 0.51068 0.0
O156 O 0.86762 0.36328 0.5043 0.0
Fe157 Fe 0.82479 0.37152 0.50277 0.0
O158 O 0.8173 0.34576 0.57579 0.0
O159 O 0.84561 0.30429 0.53814 0.0
O160 O 0.90072 0.32452 0.58033 0.0
C161 C 0.92188 0.34583 0.59598 0.0
C162 C 0.83313 0.32279 0.40446 0.0
O163 O 0.9255 0.37157 0.56135 0.0
C164 C 0.84844 0.42123 0.42322 0.0
O165 O 0.92041 0.33199 0.45807 0.0
O166 O 0.9169 0.38396 0.43337 0.0
O167 O 0.81496 0.33791 0.44522 0.0
O168 O 0.86327 0.31833 0.41668 0.0
C169 C 0.84951 0.41752 0.59684 0.0
O170 O 0.87276 0.42475 0.4617 0.0
O171 O 0.82874 0.39761 0.43001 0.0
C172 C 0.92956 0.35626 0.42396 0.0
O173 O 0.87911 0.40977 0.58797 0.0
O174 O 0.82714 0.40684 0.5588 0.0
C175 C 0.82454 0.31572 0.57765 0.0
H176 H 0.4797 0.13847 0.3923 0.0
H177 H 0.43918 0.23557 0.36101 0.0
H178 H 0.48346 0.24747 0.28037 0.0
H179 H 0.56597 0.1608 0.37899 0.0
H180 H 0.5764 0.12359 0.33612 0.0
H181 H 0.54301 0.12387 0.39463 0.0
H182 H 0.5037 0.10159 0.30383 0.0
H183 H 0.53698 0.10114 0.24528 0.0
H184 H 0.49989 0.12329 0.22602 0.0
H185 H 0.53057 0.24709 0.19779 0.0
H186 H 0.57518 0.23413 0.11911 0.0
H187 H 0.58404 0.13735 0.20705 0.0
C188 C 0.48021 0.16244 0.36925 0.0
C189 C 0.45599 0.18616 0.38325 0.0
C190 C 0.45754 0.21706 0.3513 0.0
C191 C 0.48263 0.22405 0.30557 0.0
C192 C 0.50598 0.19994 0.29271 0.0
C193 C 0.50494 0.16978 0.32381 0.0
C194 C 0.53176 0.14737 0.2992 0.0
C195 C 0.5557 0.1384 0.3556 0.0
C196 C 0.5172 0.11654 0.26664 0.0
C197 C 0.54783 0.16941 0.24843 0.0
C198 C 0.53285 0.19971 0.24559 0.0
C199 C 0.54265 0.22354 0.20004 0.0
C200 C 0.56802 0.21594 0.15556 0.0
C201 C 0.58317 0.18473 0.15683 0.0
C202 C 0.5732 0.16152 0.20489 0.0
H203 H 0.89316 0.57052 0.18196 0.0
H204 H 0.79097 0.57 0.11951 0.0
H205 H 0.77977 0.52461 0.19655 0.0
H206 H 0.90203 0.484 0.1982 0.0
H207 H 0.92764 0.48582 0.27129 0.0
H208 H 0.92792 0.51909 0.21236 0.0
H209 H 0.91314 0.55983 0.30597 0.0
H210 H 0.91303 0.52674 0.36534 0.0
H211 H 0.87735 0.55244 0.35636 0.0
H212 H 0.77986 0.47732 0.27528 0.0
H213 H 0.79064 0.43382 0.35804 0.0
H214 H 0.89201 0.46585 0.37275 0.0
C215 C 0.86838 0.56105 0.18488 0.0
C216 C 0.84301 0.57389 0.14435 0.0
C217 C 0.8109 0.5607 0.14984 0.0
C218 C 0.80423 0.5348 0.19342 0.0
C219 C 0.82982 0.5224 0.23174 0.0
C220 C 0.86118 0.53523 0.22856 0.0
C221 C 0.88416 0.51727 0.27545 0.0
C222 C 0.91208 0.50056 0.23701 0.0
C223 C 0.89771 0.54045 0.32896 0.0
C224 C 0.86079 0.49231 0.30502 0.0
C225 C 0.82964 0.49556 0.27873 0.0
C226 C 0.80409 0.47468 0.29676 0.0
C227 C 0.81046 0.44997 0.34357 0.0
C228 C 0.84205 0.4466 0.37223 0.0
C229 C 0.86749 0.46806 0.35234 0.0
H230 H 0.55969 0.8242 0.35298 0.0
H231 H 0.5923 0.92481 0.32743 0.0
H232 H 0.54783 0.93449 0.24792 0.0
H233 H 0.53706 0.81226 0.17803 0.0
H234 H 0.50176 0.78736 0.19695 0.0
H235 H 0.53651 0.7876 0.25251 0.0
H236 H 0.49828 0.80386 0.34959 0.0
H237 H 0.46349 0.80416 0.29409 0.0
H238 H 0.47323 0.84003 0.34211 0.0
H239 H 0.49963 0.93537 0.17718 0.0
H240 H 0.45304 0.9252 0.10294 0.0
H241 H 0.45038 0.8235 0.1663 0.0
C242 C 0.55766 0.8481 0.32998 0.0
C243 C 0.57941 0.87381 0.34724 0.0
C244 C 0.57588 0.90475 0.31588 0.0
C245 C 0.55059 0.91061 0.27063 0.0
C246 C 0.52904 0.88526 0.25638 0.0
C247 C 0.53246 0.85443 0.28377 0.0
C248 C 0.50594 0.83158 0.25752 0.0
C249 C 0.52123 0.80301 0.21895 0.0
C250 C 0.48393 0.81918 0.31422 0.0
C251 C 0.48727 0.85459 0.21142 0.0
C252 C 0.50107 0.88547 0.21262 0.0
C253 C 0.48875 0.91124 0.17509 0.0
C254 C 0.46224 0.90517 0.13308 0.0
C255 C 0.44832 0.87349 0.12828 0.0
C256 C 0.46047 0.84796 0.16921 0.0
H257 H 0.13641 0.4567 0.16253 0.0
H258 H 0.23155 0.47149 0.07035 0.0
H259 H 0.24049 0.52014 0.14113 0.0
H260 H 0.11437 0.54098 0.17568 0.0
H261 H 0.09447 0.53599 0.25499 0.0
H262 H 0.09579 0.50238 0.19743 0.0
H263 H 0.12314 0.46574 0.28712 0.0
H264 H 0.12169 0.49909 0.34522 0.0
H265 H 0.16024 0.47944 0.32736 0.0
H266 H 0.23814 0.56803 0.22136 0.0
H267 H 0.2264 0.60871 0.30885 0.0
H268 H 0.13292 0.5613 0.34716 0.0
C269 C 0.1592 0.47008 0.15705 0.0
C270 C 0.18325 0.46035 0.11065 0.0
C271 C 0.21279 0.47847 0.1056 0.0
C272 C 0.21802 0.50619 0.14537 0.0
C273 C 0.19352 0.51531 0.18994 0.0
C274 C 0.16481 0.4976 0.1962 0.0
C275 C 0.14244 0.51205 0.24824 0.0
C276 C 0.10985 0.52353 0.2172 0.0
C277 C 0.13655 0.48763 0.30536 0.0
C278 C 0.16307 0.5407 0.27062 0.0
C279 C 0.19235 0.54238 0.23624 0.0
C280 C 0.21532 0.56689 0.24867 0.0
C281 C 0.20838 0.58994 0.2983 0.0
C282 C 0.1788 0.58813 0.3351 0.0
C283 C 0.15581 0.56334 0.32021 0.0
H284 H 0.54582 0.88845 0.60876 0.0
H285 H 0.5887 0.7927 0.64383 0.0
H286 H 0.54633 0.78147 0.72889 0.0
H287 H 0.52798 0.90604 0.77624 0.0
H288 H 0.49013 0.92707 0.75792 0.0
H289 H 0.52255 0.92642 0.69737 0.0
H290 H 0.48249 0.90188 0.61041 0.0
H291 H 0.44996 0.90245 0.67086 0.0
H292 H 0.46055 0.86478 0.62987 0.0
H293 H 0.50041 0.78221 0.81473 0.0
H294 H 0.45565 0.79502 0.89345 0.0
H295 H 0.44364 0.89008 0.7995 0.0
C296 C 0.54621 0.86492 0.63365 0.0
C297 C 0.57056 0.84139 0.61929 0.0
C298 C 0.57022 0.81107 0.6537 0.0
C299 C 0.54624 0.80446 0.70206 0.0
C300 C 0.52274 0.82838 0.71523 0.0
C301 C 0.52257 0.85796 0.68179 0.0
C302 C 0.49561 0.88016 0.70661 0.0
C303 C 0.50993 0.91178 0.73631 0.0
C304 C 0.47067 0.88775 0.65113 0.0
C305 C 0.48075 0.8586 0.75979 0.0
C306 C 0.49657 0.82878 0.76406 0.0
C307 C 0.48771 0.8054 0.81144 0.0
C308 C 0.46226 0.81289 0.85594 0.0
C309 C 0.44604 0.84353 0.85276 0.0
C310 C 0.45531 0.86635 0.80329 0.0
H311 H 0.13398 0.4699 0.85076 0.0
H312 H 0.22767 0.42393 0.80862 0.0
H313 H 0.23764 0.46456 0.71965 0.0
H314 H 0.11291 0.48926 0.68001 0.0
H315 H 0.09394 0.5276 0.70158 0.0
H316 H 0.09408 0.49426 0.76034 0.0
H317 H 0.1218 0.53177 0.84774 0.0
H318 H 0.12197 0.56509 0.78898 0.0
H319 H 0.15979 0.55205 0.82741 0.0
H320 H 0.23835 0.51211 0.63845 0.0
H321 H 0.22805 0.56039 0.56693 0.0
H322 H 0.13361 0.57414 0.66239 0.0
C323 C 0.15654 0.46818 0.82265 0.0
C324 C 0.1801 0.44376 0.83691 0.0
C325 C 0.20923 0.44238 0.79863 0.0
C326 C 0.21516 0.46541 0.74811 0.0
C327 C 0.19164 0.48949 0.73622 0.0
C328 C 0.16278 0.49081 0.77203 0.0
C329 C 0.14147 0.51911 0.74978 0.0
C330 C 0.10867 0.50682 0.72121 0.0
C331 C 0.13595 0.54344 0.80688 0.0
C332 C 0.16295 0.53371 0.69613 0.0
C333 C 0.19184 0.5164 0.68909 0.0
C334 C 0.21572 0.52573 0.64326 0.0
C335 C 0.20971 0.55325 0.60305 0.0
C336 C 0.17998 0.57099 0.60879 0.0
C337 C 0.15651 0.56103 0.65636 0.0
H338 H 0.46397 0.20257 0.6489 0.0
H339 H 0.43494 0.10063 0.669 0.0
H340 H 0.47828 0.09217 0.75192 0.0
H341 H 0.55093 0.18958 0.66535 0.0
H342 H 0.55851 0.22566 0.7143 0.0
H343 H 0.52472 0.22484 0.65636 0.0
H344 H 0.48434 0.23954 0.75082 0.0
H345 H 0.51805 0.24075 0.80891 0.0
H346 H 0.4833 0.21463 0.82492 0.0
H347 H 0.52475 0.09307 0.82809 0.0
H348 H 0.57006 0.10443 0.90464 0.0
H349 H 0.57085 0.20621 0.84155 0.0
C350 C 0.46656 0.17859 0.67129 0.0
C351 C 0.44602 0.15223 0.65185 0.0
C352 C 0.45034 0.12121 0.68237 0.0
C353 C 0.475 0.11607 0.7296 0.0
C354 C 0.4952 0.14219 0.74642 0.0
C355 C 0.49121 0.17295 0.71915 0.0
C356 C 0.51646 0.19663 0.74758 0.0
C357 C 0.53899 0.20996 0.69261 0.0
C358 C 0.49952 0.22454 0.78531 0.0
C359 C 0.53517 0.17418 0.79486 0.0
C360 C 0.52234 0.14289 0.79254 0.0
C361 C 0.53486 0.11751 0.8309 0.0
C362 C 0.56064 0.12431 0.87438 0.0
C363 C 0.57383 0.15631 0.8798 0.0
C364 C 0.56133 0.18154 0.83842 0.0
H365 H 0.88851 0.55211 0.8726 0.0
H366 H 0.78743 0.58449 0.85388 0.0
H367 H 0.77695 0.54043 0.77263 0.0
H368 H 0.89972 0.53295 0.7001 0.0
H369 H 0.92547 0.49801 0.71676 0.0
H370 H 0.92455 0.53161 0.77436 0.0
H371 H 0.90903 0.49154 0.86939 0.0
H372 H 0.90969 0.45788 0.81186 0.0
H373 H 0.87341 0.46574 0.86036 0.0
H374 H 0.77746 0.49227 0.69433 0.0
H375 H 0.78981 0.44653 0.61872 0.0
H376 H 0.89099 0.44661 0.68726 0.0
C377 C 0.8641 0.54992 0.85168 0.0
C378 C 0.8387 0.57164 0.87006 0.0
C379 C 0.80726 0.56814 0.84069 0.0
C380 C 0.80104 0.54311 0.79469 0.0
C381 C 0.82657 0.52194 0.77823 0.0
C382 C 0.85756 0.5253 0.80537 0.0
C383 C 0.88105 0.50007 0.77777 0.0
C384 C 0.90936 0.51666 0.74 0.0
C385 C 0.89405 0.47747 0.83316 0.0
C386 C 0.85841 0.48187 0.73093 0.0
C387 C 0.82705 0.49471 0.73223 0.0
C388 C 0.80194 0.48205 0.69286 0.0
C389 C 0.8092 0.45596 0.65019 0.0
C390 C 0.84139 0.44289 0.64683 0.0
C391 C 0.86612 0.45592 0.68854 0.0
H392 H 0.94924 0.62481 0.82156 0.0
H393 H 0.95855 0.72236 0.90498 0.0
H394 H 1.00623 0.73287 0.83406 0.0
H395 H 0.03626 0.60875 0.8054 0.0
H396 H 0.0325 0.58795 0.7269 0.0
H397 H 0.999 0.5871 0.78521 0.0
H398 H 0.95992 0.61062 0.69534 0.0
H399 H 0.9932 0.61138 0.6366 0.0
H400 H 0.97054 0.64826 0.65361 0.0
H401 H 0.05336 0.73321 0.75753 0.0
H402 H 0.09521 0.72477 0.67129 0.0
H403 H 0.05536 0.62812 0.63198 0.0
C404 C 0.96132 0.64835 0.82479 0.0
C405 C 0.95005 0.67268 0.86913 0.0
C406 C 0.96649 0.70327 0.87148 0.0
C407 C 0.99379 0.70951 0.83155 0.0
C408 C 1.00439 0.68509 0.78889 0.0
C409 C 0.98862 0.65523 0.78451 0.0
C410 C 1.00482 0.63376 0.7326 0.0
C411 C 0.01898 0.60254 0.76445 0.0
C412 C 0.98068 0.62553 0.67619 0.0
C413 C 0.03195 0.65639 0.70869 0.0
C414 C 0.03137 0.68568 0.74257 0.0
C415 C 0.05405 0.71043 0.73032 0.0
C416 C 0.07781 0.70535 0.68132 0.0
C417 C 0.07851 0.67587 0.64455 0.0
C418 C 0.05534 0.651 0.65893 0.0
H419 H 0.38486 0.05273 0.61129 0.0
H420 H 0.28132 0.07686 0.60255 0.0
H421 H 0.2691 0.02979 0.67685 0.0
H422 H 0.37729 0.96441 0.6175 0.0
H423 H 0.41059 0.95996 0.67599 0.0
H424 H 0.41044 0.99362 0.61796 0.0
H425 H 0.4155 0.03473 0.71545 0.0
H426 H 0.416 1.00118 0.77353 0.0
H427 H 0.38599 0.03327 0.78202 0.0
H428 H 0.26903 0.97982 0.75411 0.0
H429 H 0.2817 0.93684 0.83778 0.0
H430 H 0.38551 0.94863 0.79768 0.0
C431 C 0.35952 0.04787 0.62418 0.0
C432 C 0.33394 0.06805 0.60054 0.0
C433 C 0.30123 0.06151 0.62002 0.0
C434 C 0.29409 0.03474 0.66172 0.0
C435 C 0.32 0.01514 0.6838 0.0
C436 C 0.35211 0.02176 0.66624 0.0
C437 C 0.37595 0.99901 0.70061 0.0
C438 C 0.39466 0.978 0.64998 0.0
C439 C 0.39974 0.01819 0.74557 0.0
C440 C 0.35234 0.97856 0.74085 0.0
C441 C 0.32011 0.9877 0.72981 0.0
C442 C 0.29418 0.97245 0.76293 0.0
C443 C 0.30153 0.94795 0.80994 0.0
C444 C 0.33454 0.93956 0.82389 0.0
C445 C 0.36005 0.95461 0.7878 0.0
H446 H 0.96675 0.38857 0.64597 0.0
H447 H 0.93082 0.28921 0.66943 0.0
H448 H 0.97297 0.27928 0.75631 0.0
H449 H 0.05139 0.37072 0.66298 0.0
H450 H 0.06053 0.4077 0.70792 0.0
H451 H 0.02693 0.4069 0.6497 0.0
H452 H 0.98705 0.42609 0.74201 0.0
H453 H 0.02061 0.42717 0.80036 0.0
H454 H 0.98456 0.40323 0.81862 0.0
H455 H 0.02087 0.28042 0.83916 0.0
H456 H 0.06816 0.29305 0.9123 0.0
H457 H 0.07142 0.39155 0.83105 0.0
C458 C 0.96754 0.36467 0.66931 0.0
C459 C 0.94553 0.33961 0.65061 0.0
C460 C 0.94741 0.3088 0.68294 0.0
C461 C 0.97131 0.30293 0.7322 0.0
C462 C 0.99295 0.32815 0.74855 0.0
C463 C 0.99104 0.35845 0.71817 0.0
C464 C 0.01704 0.38157 0.74382 0.0
C465 C 0.04034 0.39234 0.68777 0.0
C466 C 1.00137 0.41126 0.77826 0.0
C467 C 0.03419 0.35953 0.79322 0.0
C468 C 0.02005 0.32882 0.79554 0.0
C469 C 0.03204 0.30443 0.83778 0.0
C470 C 0.05895 0.31181 0.87901 0.0
C471 C 0.07354 0.3433 0.87758 0.0
C472 C 0.06094 0.36723 0.83361 0.0
H473 H 0.62381 0.05807 0.86851 0.0
H474 H 0.72689 0.05834 0.92474 0.0
H475 H 0.73672 1.01125 0.85214 0.0
H476 H 0.6151 0.96886 0.85634 0.0
H477 H 0.58848 0.97104 0.78476 0.0
H478 H 0.58859 1.00371 0.8447 0.0
H479 H 0.60134 0.04555 0.75125 0.0
H480 H 0.60114 0.01307 0.69107 0.0
H481 H 0.63656 0.03923 0.69875 0.0
H482 H 0.73676 0.96664 0.76962 0.0
H483 H 0.72683 0.92737 0.67898 0.0
H484 H 0.62386 0.9548 0.67589 0.0
C485 C 0.64835 0.04799 0.86607 0.0
C486 C 0.67451 0.06192 0.90261 0.0
C487 C 0.70637 0.04819 0.8974 0.0
C488 C 0.71225 0.0213 0.85645 0.0
C489 C 0.68606 1.00824 0.82102 0.0
C490 C 0.65474 0.02102 0.82522 0.0
C491 C 0.6314 1.00315 0.77909 0.0
C492 C 0.60429 0.98565 0.8186 0.0
C493 C 0.61676 0.02665 0.72695 0.0
C494 C 0.65473 0.97884 0.74765 0.0
C495 C 0.68607 0.9821 0.77302 0.0
C496 C 0.71226 0.96357 0.74969 0.0
C497 C 0.7064 0.94139 0.69815 0.0
C498 C 0.6746 0.93793 0.67058 0.0
C499 C 0.64836 0.95655 0.69658 0.0
H500 H 0.0583 0.39895 0.13468 0.0
H501 H 0.10689 0.3076 0.18576 0.0
H502 H 0.06693 0.29852 0.27545 0.0
H503 H 0.03882 0.42225 0.3059 0.0
H504 H 0.99968 0.43976 0.28375 0.0
H505 H 0.03281 0.43991 0.22455 0.0
H506 H 0.9956 0.4102 0.1393 0.0
H507 H 0.96249 0.40982 0.19842 0.0
H508 H 0.97644 0.37204 0.16219 0.0
H509 H 0.02064 0.29716 0.35394 0.0
H510 H 0.97196 0.30502 0.42342 0.0
H511 H 0.95305 0.39828 0.3262 0.0
C512 C 0.06065 0.37714 0.16501 0.0
C513 C 0.08571 0.3539 0.15287 0.0
C514 C 0.08799 0.32576 0.19393 0.0
C515 C 0.06537 0.32034 0.24502 0.0
C516 C 0.04078 0.34342 0.25499 0.0
C517 C 0.03838 0.37144 0.2168 0.0
C518 C 1.00933 0.39215 0.23826 0.0
C519 C 0.02086 0.42549 0.2647 0.0
C520 C 0.9845 0.39628 0.18113 0.0
C521 C 0.99548 0.37098 0.29364 0.0
C522 C 0.01412 0.34302 0.30208 0.0
C523 C 1.00597 0.31906 0.34829 0.0
C524 C 0.97809 0.32376 0.38734 0.0
C525 C 0.95859 0.35233 0.38048 0.0
C526 C 0.96755 0.37632 0.33296 0.0
H527 H 0.64119 0.97776 0.39143 0.0
H528 H 0.74318 0.94749 0.38942 0.0
H529 H 0.75637 0.99388 0.31433 0.0
H530 H 0.637 0.99749 0.22138 0.0
H531 H 0.60932 0.03139 0.23266 0.0
H532 H 0.60922 0.99795 0.29096 0.0
H533 H 0.61934 0.03878 0.38733 0.0
H534 H 0.61981 0.0723 0.32895 0.0
H535 H 0.65421 0.06588 0.38398 0.0
H536 H 0.75755 0.04337 0.23561 0.0
H537 H 0.74533 0.08647 0.15177 0.0
H538 H 0.64235 0.08167 0.20418 0.0
C539 C 0.66644 0.98116 0.37615 0.0
C540 C 0.69126 0.9593 0.39695 0.0
C541 C 0.72381 0.96407 0.37431 0.0
C542 C 0.73155 0.99046 0.33202 0.0
C543 C 0.7064 1.01163 0.31254 0.0
C544 C 0.67443 1.00695 0.33347 0.0
C545 C 0.65125 0.03115 0.30126 0.0
C546 C 0.62518 0.01344 0.25906 0.0
C547 C 0.63522 0.05334 0.35351 0.0
C548 C 0.67504 0.05007 0.2583 0.0
C549 C 0.70685 0.03897 0.26608 0.0
C550 C 0.73274 0.05234 0.22948 0.0
C551 C 0.72568 0.07694 0.18237 0.0
C552 C 0.69296 0.08735 0.17182 0.0
C553 C 0.66762 0.07421 0.21147 0.0
H554 H 0.96745 0.63638 0.13322 0.0
H555 H 0.92413 0.7323 0.16184 0.0
H556 H 0.96595 0.74435 0.24799 0.0
H557 H 0.98631 0.62083 0.30448 0.0
H558 H 0.02404 0.59981 0.28588 0.0
H559 H 0.99073 0.59932 0.22694 0.0
H560 H 0.02943 0.6227 0.13628 0.0
H561 H 0.06279 0.62341 0.19512 0.0
H562 H 0.05124 0.66031 0.1517 0.0
H563 H 1.01374 0.74557 0.33132 0.0
H564 H 0.06102 0.73499 0.40605 0.0
H565 H 0.07165 0.63826 0.32029 0.0
C566 C 0.96664 0.66 0.15737 0.0
C567 C 0.94254 0.68346 0.14038 0.0
C568 C 0.94236 0.71393 0.17385 0.0
C569 C 0.96607 0.72102 0.22276 0.0
C570 C 0.98966 0.69734 0.23774 0.0
C571 C 0.98992 0.6674 0.20609 0.0
C572 C 0.01743 0.64585 0.23131 0.0
C573 C 1.0038 0.61462 0.26411 0.0
C574 C 0.04165 0.6376 0.17526 0.0
C575 C 0.03282 0.66833 0.28206 0.0
C576 C 0.01662 0.69797 0.28523 0.0
C577 C 0.02656 0.72243 0.32916 0.0
C578 C 0.05351 0.71623 0.3713 0.0
C579 C 0.07012 0.68579 0.36926 0.0
C580 C 0.0596 0.66181 0.32341 0.0
H581 H 0.39653 0.96815 0.12832 0.0
H582 H 0.293 0.96676 0.07634 0.0
H583 H 0.28358 0.01387 0.15038 0.0
H584 H 0.38584 0.98688 0.29904 0.0
H585 H 0.42144 0.01294 0.3041 0.0
H586 H 0.42024 0.9802 0.24455 0.0
H587 H 0.4318 0.02158 0.14967 0.0
H588 H 0.43285 0.05454 0.20891 0.0
H589 H 0.40522 0.05645 0.13888 0.0
H590 H 0.28502 0.0597 0.23289 0.0
H591 H 0.29669 0.0997 0.32133 0.0
H592 H 0.39942 0.07156 0.31908 0.0
C593 C 0.37187 0.97785 0.132 0.0
C594 C 0.3455 0.96378 0.09613 0.0
C595 C 0.31361 0.9771 0.10309 0.0
C596 C 0.30803 1.00394 0.14487 0.0
C597 C 0.33459 0.01723 0.17926 0.0
C598 C 0.36587 1.0046 0.17341 0.0
C599 C 0.38994 0.02259 0.21776 0.0
C600 C 0.40525 0.99926 0.26943 0.0
C601 C 0.41652 0.03982 0.17631 0.0
C602 C 0.36722 0.0471 0.25015 0.0
C603 C 0.33544 0.0437 0.22689 0.0
C604 C 0.30984 0.06272 0.25118 0.0
C605 C 0.31673 0.08538 0.30145 0.0
C606 C 0.34898 0.08887 0.32706 0.0
C607 C 0.37461 0.06981 0.30002 0.0
H608 H 0.76803 0.30852 0.38185 0.0
H609 H 0.86468 0.30291 0.29216 0.0
H610 H 0.8404 0.27726 0.19269 0.0
H611 H 0.74068 0.23097 0.32599 0.0
H612 H 0.69886 0.24348 0.31143 0.0
H613 H 0.72322 0.264 0.37335 0.0
H614 H 0.71181 0.31956 0.31546 0.0
H615 H 0.68751 0.29916 0.2531 0.0
H616 H 0.72158 0.32459 0.22866 0.0
H617 H 0.80694 0.25038 0.10624 0.0
H618 H 0.76675 0.22014 0.03923 0.0
H619 H 0.69088 0.24144 0.18397 0.0
C620 C 0.78401 0.30226 0.3409 0.0
C621 C 0.81828 0.30786 0.34458 0.0
C622 C 0.83842 0.29881 0.29048 0.0
C623 C 0.82482 0.28442 0.23363 0.0
C624 C 0.79105 0.27911 0.23171 0.0
C625 C 0.77086 0.28752 0.28392 0.0
C626 C 0.73567 0.27704 0.27064 0.0
C627 C 0.72393 0.25241 0.32348 0.0
C628 C 0.71279 0.30687 0.26673 0.0
C629 C 0.73937 0.26097 0.20317 0.0
C630 C 0.77153 0.2629 0.18161 0.0
C631 C 0.78168 0.24884 0.12237 0.0
C632 C 0.7586 0.23162 0.08477 0.0
C633 C 0.72565 0.2284 0.1064 0.0
C634 C 0.71575 0.2439 0.16578 0.0
H635 H 0.76024 0.69515 0.14755 0.0
H636 H 0.85104 0.75057 0.13771 0.0
H637 H 0.82897 0.79048 0.21673 0.0
H638 H 0.70676 0.76449 0.15479 0.0
H639 H 0.6783 0.74676 0.21315 0.0
H640 H 0.70131 0.72075 0.1582 0.0
H641 H 0.72408 0.68829 0.25903 0.0
H642 H 0.70077 0.71392 0.31422 0.0
H643 H 0.7445 0.70992 0.32526 0.0
H644 H 0.79786 0.82537 0.29197 0.0
H645 H 0.7595 0.85255 0.36794 0.0
H646 H 0.68718 0.77657 0.33135 0.0
C647 C 0.77553 0.7154 0.16309 0.0
C648 C 0.80734 0.71983 0.13642 0.0
C649 C 0.82654 0.74685 0.15715 0.0
C650 C 0.81425 0.76969 0.20202 0.0
C651 C 0.78259 0.76533 0.22588 0.0
C652 C 0.76344 0.73885 0.20793 0.0
C653 C 0.72994 0.74082 0.24089 0.0
C654 C 0.70246 0.74336 0.18862 0.0
C655 C 0.72451 0.7115 0.28763 0.0
C656 C 0.73346 0.77253 0.27965 0.0
C657 C 0.76413 0.78607 0.2699 0.0
C658 C 0.77376 0.81503 0.30032 0.0
C659 C 0.75176 0.8303 0.34331 0.0
C660 C 0.72036 0.81674 0.35555 0.0
C661 C 0.71088 0.7877 0.32236 0.0
H662 H 0.32724 0.77822 0.1532 0.0
H663 H 0.27304 0.86978 0.15577 0.0
H664 H 0.23547 0.84695 0.23906 0.0
H665 H 0.25854 0.72543 0.16842 0.0
H666 H 0.27824 0.6964 0.22308 0.0
H667 H 0.30242 0.72006 0.16551 0.0
H668 H 0.33825 0.74151 0.26257 0.0
H669 H 0.31434 0.71769 0.32042 0.0
H670 H 0.31885 0.76114 0.3323 0.0
H671 H 0.20104 0.81367 0.31441 0.0
H672 H 0.17438 0.77299 0.38674 0.0
H673 H 0.25132 0.70304 0.34181 0.0
C674 C 0.30774 0.79361 0.17194 0.0
C675 C 0.30317 0.82584 0.14744 0.0
C676 C 0.2772 0.84505 0.17333 0.0
C677 C 0.2556 0.8323 0.22074 0.0
C678 C 0.26034 0.80035 0.24265 0.0
C679 C 0.28596 0.78132 0.22002 0.0
C680 C 0.28509 0.74757 0.25191 0.0
C681 C 0.28081 0.72079 0.19907 0.0
C682 C 0.31597 0.74164 0.29433 0.0
C683 C 0.2547 0.75059 0.29505 0.0
C684 C 0.24081 0.78124 0.28844 0.0
C685 C 0.21187 0.78969 0.32069 0.0
C686 C 0.1968 0.7663 0.36141 0.0
C687 C 0.2108 0.73485 0.37026 0.0
C688 C 0.24022 0.72698 0.33658 0.0
H689 H 0.28531 0.19794 0.32266 0.0
H690 H 0.34576 0.27383 0.4112 0.0
H691 H 0.3208 0.31461 0.33595 0.0
H692 H 0.28841 0.22861 0.15409 0.0
H693 H 0.24645 0.21785 0.13589 0.0
H694 H 0.26949 0.19445 0.19599 0.0
H695 H 0.22454 0.20515 0.28415 0.0
H696 H 0.20143 0.2287 0.22443 0.0
H697 H 0.21288 0.24664 0.30287 0.0
H698 H 0.28901 0.34729 0.25231 0.0
H699 H 0.25301 0.36967 0.16472 0.0
H700 H 0.21272 0.27272 0.13087 0.0
C701 C 0.29345 0.22309 0.32611 0.0
C702 C 0.31753 0.23264 0.37304 0.0
C703 C 0.32734 0.26587 0.37587 0.0
C704 C 0.31331 0.28925 0.33331 0.0
C705 C 0.28946 0.27906 0.28817 0.0
C706 C 0.27962 0.24679 0.28415 0.0
C707 C 0.25328 0.24239 0.23156 0.0
C708 C 0.26513 0.21947 0.17609 0.0
C709 C 0.22113 0.22999 0.26263 0.0
C710 C 0.24984 0.27725 0.20671 0.0
C711 C 0.27097 0.29798 0.24003 0.0
C712 C 0.27239 0.33129 0.2258 0.0
C713 C 0.2518 0.34376 0.17588 0.0
C714 C 0.23 0.32299 0.14069 0.0
C715 C 0.22901 0.2893 0.15682 0.0
H716 H 0.19905 0.75523 0.64813 0.0
H717 H 0.25418 0.66421 0.64847 0.0
H718 H 0.29011 0.68563 0.73623 0.0
H719 H 0.26758 0.80841 0.67356 0.0
H720 H 0.24625 0.83603 0.72812 0.0
H721 H 0.22378 0.81349 0.66614 0.0
H722 H 0.18585 0.78977 0.75754 0.0
H723 H 0.20819 0.81229 0.81983 0.0
H724 H 0.2037 0.76857 0.82755 0.0
H725 H 0.32205 0.71709 0.81883 0.0
H726 H 0.347 0.75651 0.89618 0.0
H727 H 0.27092 0.8271 0.84769 0.0
C728 C 0.21857 0.73976 0.66693 0.0
C729 C 0.22373 0.70801 0.64095 0.0
C730 C 0.24959 0.68859 0.66717 0.0
C731 C 0.27022 0.70052 0.71719 0.0
C732 C 0.26467 0.73187 0.74121 0.0
C733 C 0.2394 0.75123 0.71751 0.0
C734 C 0.23923 0.7842 0.75214 0.0
C735 C 0.24453 0.81218 0.70199 0.0
C736 C 0.20734 0.78898 0.79161 0.0
C737 C 0.26857 0.78035 0.79823 0.0
C738 C 0.28284 0.74994 0.79077 0.0
C739 C 0.31096 0.74088 0.82564 0.0
C740 C 0.32501 0.76351 0.86933 0.0
C741 C 0.31083 0.79482 0.87834 0.0
C742 C 0.28205 0.80319 0.84254 0.0
H743 H 0.33712 0.24658 0.67606 0.0
H744 H 0.26624 0.1707 0.629 0.0
H745 H 0.22752 0.19428 0.70908 0.0
H746 H 0.31664 0.25263 0.85514 0.0
H747 H 0.32157 0.29644 0.85672 0.0
H748 H 0.34527 0.27221 0.79958 0.0
H749 H 0.3233 0.30716 0.70149 0.0
H750 H 0.2993 0.33126 0.75819 0.0
H751 H 0.27963 0.31103 0.6893 0.0
H752 H 0.19488 0.22734 0.7859 0.0
H753 H 0.17033 0.26707 0.86204 0.0
H754 H 0.26128 0.32272 0.86293 0.0
C755 C 0.31372 0.23461 0.6838 0.0
C756 C 0.30468 0.20677 0.64627 0.0
C757 C 0.27363 0.19211 0.65691 0.0
C758 C 0.25145 0.20527 0.70239 0.0
C759 C 0.26061 0.23316 0.73715 0.0
C760 C 0.29101 0.24763 0.72911 0.0
C761 C 0.29371 0.27835 0.77121 0.0
C762 C 0.32091 0.27468 0.82379 0.0
C763 C 0.29931 0.30874 0.72742 0.0
C764 C 0.25994 0.27895 0.80313 0.0
C765 C 0.24144 0.25253 0.7826 0.0
C766 C 0.20919 0.24798 0.803 0.0
C767 C 0.19542 0.27086 0.84617 0.0
C768 C 0.21383 0.29809 0.86893 0.0
C769 C 0.24659 0.30213 0.84684 0.0
H770 H 0.77936 0.32797 0.67842 0.0
H771 H 0.82752 0.24942 0.57094 0.0
H772 H 0.79776 0.20889 0.63724 0.0
H773 H 0.7816 0.28819 0.83771 0.0
H774 H 0.74193 0.30273 0.86376 0.0
H775 H 0.76586 0.32634 0.80572 0.0
H776 H 0.71737 0.32567 0.72217 0.0
H777 H 0.69335 0.3019 0.77992 0.0
H778 H 0.70008 0.28707 0.69678 0.0
H779 H 0.76485 0.17627 0.71591 0.0
H780 H 0.73131 0.15345 0.8067 0.0
H781 H 0.70369 0.25183 0.86532 0.0
C782 C 0.78345 0.30226 0.66866 0.0
C783 C 0.80584 0.29209 0.61916 0.0
C784 C 0.81063 0.2581 0.60845 0.0
C785 C 0.79372 0.2347 0.64573 0.0
C786 C 0.77197 0.24543 0.69395 0.0
C787 C 0.76676 0.2783 0.70592 0.0
C788 C 0.74277 0.2828 0.76281 0.0
C789 C 0.75902 0.30109 0.82094 0.0
C790 C 0.71154 0.3004 0.73897 0.0
C791 C 0.73573 0.24737 0.78088 0.0
C792 C 0.75274 0.22629 0.74012 0.0
C793 C 0.75121 0.19246 0.74806 0.0
C794 C 0.7321 0.17972 0.79982 0.0
C795 C 0.71475 0.20076 0.84307 0.0
C796 C 0.71632 0.23504 0.83268 0.0
H797 H 0.74727 0.82947 0.66248 0.0
H798 H 0.6789 0.75473 0.59626 0.0
H799 H 0.70667 0.71431 0.66818 0.0
H800 H 0.81882 0.7771 0.66999 0.0
H801 H 0.83534 0.79626 0.7434 0.0
H802 H 0.81035 0.81959 0.68643 0.0
H803 H 0.771 0.83494 0.78235 0.0
H804 H 0.79601 0.81193 0.83968 0.0
H805 H 0.75286 0.80294 0.83203 0.0
H806 H 0.73997 0.68265 0.7496 0.0
H807 H 0.77672 0.66146 0.83733 0.0
H808 H 0.82542 0.75565 0.84833 0.0
C809 C 0.73806 0.80463 0.66318 0.0
C810 C 0.71083 0.79529 0.62367 0.0
C811 C 0.69971 0.76247 0.62589 0.0
C812 C 0.71536 0.73931 0.66649 0.0
C813 C 0.74227 0.74925 0.7042 0.0
C814 C 0.75359 0.78108 0.703 0.0
C815 C 0.78283 0.78534 0.74906 0.0
C816 C 0.81366 0.79515 0.70986 0.0
C817 C 0.77521 0.81026 0.80404 0.0
C818 C 0.78591 0.75098 0.77698 0.0
C819 C 0.76221 0.73062 0.75023 0.0
C820 C 0.75883 0.69822 0.77043 0.0
C821 C 0.77978 0.68644 0.82021 0.0
C822 C 0.80402 0.70686 0.84885 0.0
C823 C 0.80753 0.73939 0.82613 0.0
loop_
_geom_bond_atom_site_label_1
_geom_bond_atom_site_label_2
_geom_bond_distance
_geom_bond_site_symmetry_2
_ccdc_geom_bond_type
Fe0 O2 1.918 . S
Fe0 O5 1.997 1_554 S
Fe0 O6 2.002 1_554 S
Fe0 O11 1.976 . S
Fe0 O14 1.996 . S
Fe1 O2 1.918 . S
Fe1 O9 1.997 1_554 S
Fe1 O12 1.996 . S
Fe1 O16 1.976 . S
Fe1 O19 2.002 1_554 S
O2 Fe0 1.918 . S
O2 Fe1 1.918 . S
O2 Fe3 1.918 . S
Fe3 O2 1.918 . S
Fe3 O4 2.002 1_554 S
Fe3 O13 1.976 . S
Fe3 O17 1.996 . S
Fe3 O20 1.997 1_554 S
O4 Fe3 2.002 1_556 S
O4 C21 1.295 . S
O5 Fe0 1.997 1_556 S
O5 C21 1.235 . S
O6 Fe0 2.002 1_556 S
O6 C7 1.295 . S
C7 O6 1.295 . S
C7 O9 1.235 . S
C8 O13 1.287 . S
C8 O14 1.255 . S
O9 Fe1 1.997 1_556 S
O9 C7 1.235 . S
C10 O16 1.287 . S
C10 O17 1.255 . S
O11 Fe0 1.976 . S
O11 C18 1.287 . S
O12 Fe1 1.996 . S
O12 C18 1.255 . S
O13 Fe3 1.976 . S
O13 C8 1.287 . S
O14 Fe0 1.996 . S
O14 C8 1.255 . S
C15 O19 1.295 . S
C15 O20 1.235 . S
O16 Fe1 1.976 . S
O16 C10 1.287 . S
O17 Fe3 1.996 . S
O17 C10 1.255 . S
C18 O11 1.287 . S
C18 O12 1.255 . S
O19 Fe1 2.002 1_556 S
O19 C15 1.295 . S
O20 Fe3 1.997 1_556 S
O20 C15 1.235 . S
C21 O4 1.295 . S
C21 O5 1.235 . S
Fe22 O24 1.918 . S
Fe22 O27 1.997 1_556 S
Fe22 O28 2.002 1_556 S
Fe22 O33 1.976 . S
Fe22 O36 1.996 . S
Fe23 O24 1.918 . S
Fe23 O31 1.997 1_556 S
Fe23 O34 1.996 . S
Fe23 O38 1.976 . S
Fe23 O41 2.002 1_556 S
O24 Fe22 1.918 . S
O24 Fe23 1.918 . S
O24 Fe25 1.918 . S
Fe25 O24 1.918 . S
Fe25 O26 2.002 1_556 S
Fe25 O35 1.976 . S
Fe25 O39 1.996 . S
Fe25 O42 1.997 1_556 S
O26 Fe25 2.002 1_554 S
O26 C43 1.295 . S
O27 Fe22 1.997 1_554 S
O27 C43 1.235 . S
O28 Fe22 2.002 1_554 S
O28 C29 1.295 . S
C29 O28 1.295 . S
C29 O31 1.235 . S
C30 O35 1.287 . S
C30 O36 1.255 . S
O31 Fe23 1.997 1_554 S
O31 C29 1.235 . S
C32 O38 1.287 . S
C32 O39 1.255 . S
O33 Fe22 1.976 . S
O33 C40 1.287 . S
O34 Fe23 1.996 . S
O34 C40 1.255 . S
O35 Fe25 1.976 . S
O35 C30 1.287 . S
O36 Fe22 1.996 . S
O36 C30 1.255 . S
C37 O41 1.295 . S
C37 O42 1.235 . S
O38 Fe23 1.976 . S
O38 C32 1.287 . S
O39 Fe25 1.996 . S
O39 C32 1.255 . S
C40 O33 1.287 . S
C40 O34 1.255 . S
O41 Fe23 2.002 1_554 S
O41 C37 1.295 . S
O42 Fe25 1.997 1_554 S
O42 C37 1.235 . S
C43 O26 1.295 . S
C43 O27 1.235 . S
Fe44 O46 1.918 . S
Fe44 O49 1.997 1_556 S
Fe44 O50 2.002 1_556 S
Fe44 O55 1.976 . S
Fe44 O58 1.996 . S
Fe45 O46 1.918 . S
Fe45 O53 1.997 1_556 S
Fe45 O56 1.996 . S
Fe45 O60 1.976 . S
Fe45 O63 2.002 1_556 S
O46 Fe44 1.918 . S
O46 Fe45 1.918 . S
O46 Fe47 1.918 . S
Fe47 O46 1.918 . S
Fe47 O48 2.002 1_556 S
Fe47 O57 1.976 . S
Fe47 O61 1.996 . S
Fe47 O64 1.997 1_556 S
O48 Fe47 2.002 1_554 S
O48 C65 1.295 . S
O49 Fe44 1.997 1_554 S
O49 C65 1.235 . S
O50 Fe44 2.002 1_554 S
O50 C51 1.295 . S
C51 O50 1.295 . S
C51 O53 1.235 . S
C52 O57 1.287 . S
C52 O58 1.255 . S
O53 Fe45 1.997 1_554 S
O53 C51 1.235 . S
C54 O60 1.287 . S
C54 O61 1.255 . S
O55 Fe44 1.976 . S
O55 C62 1.287 . S
O56 Fe45 1.996 . S
O56 C62 1.255 . S
O57 Fe47 1.976 . S
O57 C52 1.287 . S
O58 Fe44 1.996 . S
O58 C52 1.255 . S
C59 O63 1.295 . S
C59 O64 1.235 . S
O60 Fe45 1.976 . S
O60 C54 1.287 . S
O61 Fe47 1.996 . S
O61 C54 1.255 . S
C62 O55 1.287 . S
C62 O56 1.255 . S
O63 Fe45 2.002 1_554 S
O63 C59 1.295 . S
O64 Fe47 1.997 1_554 S
O64 C59 1.235 . S
C65 O48 1.295 . S
C65 O49 1.235 . S
Fe66 O68 1.918 . S
Fe66 O71 1.997 1_556 S
Fe66 O72 2.002 1_556 S
Fe66 O77 1.976 . S
Fe66 O80 1.996 . S
Fe67 O68 1.918 . S
Fe67 O75 1.997 1_556 S
Fe67 O78 1.996 . S
Fe67 O82 1.976 . S
Fe67 O85 2.002 1_556 S
O68 Fe66 1.918 . S
O68 Fe67 1.918 . S
O68 Fe69 1.918 . S
Fe69 O68 1.918 . S
Fe69 O70 2.002 1_556 S
Fe69 O79 1.976 . S
Fe69 O83 1.996 . S
Fe69 O86 1.997 1_556 S
O70 Fe69 2.002 1_554 S
O70 C87 1.295 . S
O71 Fe66 1.997 1_554 S
O71 C87 1.235 . S
O72 Fe66 2.002 1_554 S
O72 C73 1.295 . S
C73 O72 1.295 . S
C73 O75 1.235 . S
C74 O79 1.287 . S
C74 O80 1.255 . S
O75 Fe67 1.997 1_554 S
O75 C73 1.235 . S
C76 O82 1.287 . S
C76 O83 1.255 . S
O77 Fe66 1.976 . S
O77 C84 1.287 . S
O78 Fe67 1.996 . S
O78 C84 1.255 . S
O79 Fe69 1.976 . S
O79 C74 1.287 . S
O80 Fe66 1.996 . S
O80 C74 1.255 . S
C81 O85 1.295 . S
C81 O86 1.235 . S
O82 Fe67 1.976 . S
O82 C76 1.287 . S
O83 Fe69 1.996 . S
O83 C76 1.255 . S
C84 O77 1.287 . S
C84 O78 1.255 . S
O85 Fe67 2.002 1_554 S
O85 C81 1.295 . S
O86 Fe69 1.997 1_554 S
O86 C81 1.235 . S
C87 O70 1.295 . S
C87 O71 1.235 . S
Fe88 O90 1.918 . S
Fe88 O93 1.997 . S
Fe88 O94 2.002 . S
Fe88 O99 1.976 . S
Fe88 O102 1.996 . S
Fe89 O90 1.918 . S
Fe89 O97 1.997 . S
Fe89 O100 1.996 . S
Fe89 O104 1.976 . S
Fe89 O107 2.002 . S
O90 Fe88 1.918 . S
O90 Fe89 1.918 . S
O90 Fe91 1.918 . S
Fe91 O90 1.918 . S
Fe91 O92 2.002 . S
Fe91 O101 1.976 . S
Fe91 O105 1.996 . S
Fe91 O108 1.997 . S
O92 Fe91 2.002 . S
O92 C109 1.295 . S
O93 Fe88 1.997 . S
O93 C109 1.235 . S
O94 Fe88 2.002 . S
O94 C95 1.295 . S
C95 O94 1.295 . S
C95 O97 1.235 . S
C96 O101 1.287 . S
C96 O102 1.255 . S
O97 Fe89 1.997 . S
O97 C95 1.235 . S
C98 O104 1.287 . S
C98 O105 1.255 . S
O99 Fe88 1.976 . S
O99 C106 1.287 . S
O100 Fe89 1.996 . S
O100 C106 1.255 . S
O101 Fe91 1.976 . S
O101 C96 1.287 . S
O102 Fe88 1.996 . S
O102 C96 1.255 . S
C103 O107 1.295 . S
C103 O108 1.235 . S
O104 Fe89 1.976 . S
O104 C98 1.287 . S
O105 Fe91 1.996 . S
O105 C98 1.255 . S
C106 O99 1.287 . S
C106 O100 1.255 . S
O107 Fe89 2.002 . S
O107 C103 1.295 . S
O108 Fe91 1.997 . S
O108 C103 1.235 . S
C109 O92 1.295 . S
C109 O93 1.235 . S
Fe110 O112 1.918 . S
Fe110 O115 1.997 . S
Fe110 O116 2.002 . S
Fe110 O121 1.976 . S
Fe110 O124 1.996 . S
Fe111 O112 1.918 . S
Fe111 O119 1.997 . S
Fe111 O122 1.996 . S
Fe111 O126 1.976 . S
Fe111 O129 2.002 . S
O112 Fe110 1.918 . S
O112 Fe111 1.918 . S
O112 Fe113 1.918 . S
Fe113 O112 1.918 . S
Fe113 O114 2.002 . S
Fe113 O123 1.976 . S
Fe113 O127 1.996 . S
Fe113 O130 1.997 . S
O114 Fe113 2.002 . S
O114 C131 1.295 . S
O115 Fe110 1.997 . S
O115 C131 1.235 . S
O116 Fe110 2.002 . S
O116 C117 1.295 . S
C117 O116 1.295 . S
C117 O119 1.235 . S
C118 O123 1.287 . S
C118 O124 1.255 . S
O119 Fe111 1.997 . S
O119 C117 1.235 . S
C120 O126 1.287 . S
C120 O127 1.255 . S
O121 Fe110 1.976 . S
O121 C128 1.287 . S
O122 Fe111 1.996 . S
O122 C128 1.255 . S
O123 Fe113 1.976 . S
O123 C118 1.287 . S
O124 Fe110 1.996 . S
O124 C118 1.255 . S
C125 O129 1.295 . S
C125 O130 1.235 . S
O126 Fe111 1.976 . S
O126 C120 1.287 . S
O127 Fe113 1.996 . S
O127 C120 1.255 . S
C128 O121 1.287 . S
C128 O122 1.255 . S
O129 Fe111 2.002 . S
O129 C125 1.295 . S
O130 Fe113 1.997 . S
O130 C125 1.235 . S
C131 O114 1.295 . S
C131 O115 1.235 . S
Fe132 O134 1.918 . S
Fe132 O137 1.997 . S
Fe132 O138 2.002 . S
Fe132 O143 1.976 . S
Fe132 O146 1.996 . S
Fe133 O134 1.918 . S
Fe133 O141 1.997 . S
Fe133 O144 1.996 . S
Fe133 O148 1.976 . S
Fe133 O151 2.002 . S
O134 Fe132 1.918 . S
O134 Fe133 1.918 . S
O134 Fe135 1.918 . S
Fe135 O134 1.918 . S
Fe135 O136 2.002 . S
Fe135 O145 1.976 . S
Fe135 O149 1.996 . S
Fe135 O152 1.997 . S
O136 Fe135 2.002 . S
O136 C153 1.295 . S
O137 Fe132 1.997 . S
O137 C153 1.235 . S
O138 Fe132 2.002 . S
O138 C139 1.295 . S
C139 O138 1.295 . S
C139 O141 1.235 . S
C140 O145 1.287 . S
C140 O146 1.255 . S
O141 Fe133 1.997 . S
O141 C139 1.235 . S
C142 O148 1.287 . S
C142 O149 1.255 . S
O143 Fe132 1.976 . S
O143 C150 1.287 . S
O144 Fe133 1.996 . S
O144 C150 1.255 . S
O145 Fe135 1.976 . S
O145 C140 1.287 . S
O146 Fe132 1.996 . S
O146 C140 1.255 . S
C147 O151 1.295 . S
C147 O152 1.235 . S
O148 Fe133 1.976 . S
O148 C142 1.287 . S
O149 Fe135 1.996 . S
O149 C142 1.255 . S
C150 O143 1.287 . S
C150 O144 1.255 . S
O151 Fe133 2.002 . S
O151 C147 1.295 . S
O152 Fe135 1.997 . S
O152 C147 1.235 . S
C153 O136 1.295 . S
C153 O137 1.235 . S
Fe154 O156 1.918 . S
Fe154 O159 1.997 . S
Fe154 O160 2.002 . S
Fe154 O165 1.976 . S
Fe154 O168 1.996 . S
Fe155 O156 1.918 . S
Fe155 O163 1.997 . S
Fe155 O166 1.996 . S
Fe155 O170 1.976 . S
Fe155 O173 2.002 . S
O156 Fe154 1.918 . S
O156 Fe155 1.918 . S
O156 Fe157 1.918 . S
Fe157 O156 1.918 . S
Fe157 O158 2.002 . S
Fe157 O167 1.976 . S
Fe157 O171 1.996 . S
Fe157 O174 1.997 . S
O158 Fe157 2.002 . S
O158 C175 1.295 . S
O159 Fe154 1.997 . S
O159 C175 1.235 . S
O160 Fe154 2.002 . S
O160 C161 1.295 . S
C161 O160 1.295 . S
C161 O163 1.235 . S
C162 O167 1.287 . S
C162 O168 1.255 . S
O163 Fe155 1.997 . S
O163 C161 1.235 . S
C164 O170 1.287 . S
C164 O171 1.255 . S
O165 Fe154 1.976 . S
O165 C172 1.287 . S
O166 Fe155 1.996 . S
O166 C172 1.255 . S
O167 Fe157 1.976 . S
O167 C162 1.287 . S
O168 Fe154 1.996 . S
O168 C162 1.255 . S
C169 O173 1.295 . S
C169 O174 1.235 . S
O170 Fe155 1.976 . S
O170 C164 1.287 . S
O171 Fe157 1.996 . S
O171 C164 1.255 . S
C172 O165 1.287 . S
C172 O166 1.255 . S
O173 Fe155 2.002 . S
O173 C169 1.295 . S
O174 Fe157 1.997 . S
O174 C169 1.235 . S
C175 O158 1.295 . S
C175 O159 1.235 . S
H176 C188 0.930 . S
H177 C190 0.930 . S
H178 C191 0.930 . S
H179 C195 0.959 . S
H180 C195 0.959 . S
H181 C195 0.961 . S
H182 C196 0.960 . S
H183 C196 0.961 . S
H184 C196 0.959 . S
H185 C199 0.929 . S
H186 C200 0.931 . S
H187 C202 0.930 . S
C188 H176 0.930 . S
C188 C189 1.399 . S
C188 C193 1.399 . S
C189 C188 1.399 . S
C189 C190 1.376 . S
C190 H177 0.930 . S
C190 C189 1.376 . S
C190 C191 1.388 . S
C191 H178 0.930 . S
C191 C190 1.388 . S
C191 C192 1.390 . S
C192 C191 1.390 . S
C192 C193 1.394 . S
C192 C198 1.465 . S
C193 C188 1.399 . S
C193 C192 1.394 . S
C193 C194 1.516 . S
C194 C193 1.516 . S
C194 C195 1.502 . S
C194 C196 1.561 . S
C194 C197 1.526 . S
C195 H179 0.959 . S
C195 H180 0.959 . S
C195 H181 0.961 . S
C195 C194 1.502 . S
C196 H182 0.960 . S
C196 H183 0.961 . S
C196 H184 0.959 . S
C196 C194 1.561 . S
C197 C194 1.526 . S
C197 C198 1.396 . S
C197 C202 1.390 . S
C198 C192 1.465 . S
C198 C197 1.396 . S
C198 C199 1.399 . S
C199 H185 0.929 . S
C199 C198 1.399 . S
C199 C200 1.385 . S
C200 H186 0.931 . S
C200 C199 1.385 . S
C200 C201 1.389 . S
C201 C200 1.389 . S
C201 C202 1.387 . S
C202 H187 0.930 . S
C202 C197 1.390 . S
C202 C201 1.387 . S
H203 C215 0.930 . S
H204 C217 0.930 . S
H205 C218 0.930 . S
H206 C222 0.959 . S
H207 C222 0.959 . S
H208 C222 0.961 . S
H209 C223 0.960 . S
H210 C223 0.961 . S
H211 C223 0.959 . S
H212 C226 0.929 . S
H213 C227 0.931 . S
H214 C229 0.930 . S
C215 H203 0.930 . S
C215 C216 1.399 . S
C215 C220 1.399 . S
C216 C215 1.399 . S
C216 C217 1.376 . S
C217 H204 0.930 . S
C217 C216 1.376 . S
C217 C218 1.388 . S
C218 H205 0.930 . S
C218 C217 1.388 . S
C218 C219 1.390 . S
C219 C218 1.390 . S
C219 C220 1.394 . S
C219 C225 1.465 . S
C220 C215 1.399 . S
C220 C219 1.394 . S
C220 C221 1.516 . S
C221 C220 1.516 . S
C221 C222 1.502 . S
C221 C223 1.561 . S
C221 C224 1.526 . S
C222 H206 0.959 . S
C222 H207 0.959 . S
C222 H208 0.961 . S
C222 C221 1.502 . S
C223 H209 0.960 . S
C223 H210 0.961 . S
C223 H211 0.959 . S
C223 C221 1.561 . S
C224 C221 1.526 . S
C224 C225 1.396 . S
C224 C229 1.390 . S
C225 C219 1.465 . S
C225 C224 1.396 . S
C225 C226 1.399 . S
C226 H212 0.929 . S
C226 C225 1.399 . S
C226 C227 1.385 . S
C227 H213 0.931 . S
C227 C226 1.385 . S
C227 C228 1.389 . S
C228 C227 1.389 . S
C228 C229 1.387 . S
C229 H214 0.930 . S
C229 C224 1.390 . S
C229 C228 1.387 . S
H230 C242 0.930 . S
H231 C244 0.930 . S
H232 C245 0.930 . S
H233 C249 0.959 . S
H234 C249 0.959 . S
H235 C249 0.961 . S
H236 C250 0.960 . S
H237 C250 0.961 . S
H238 C250 0.959 . S
H239 C253 0.929 . S
H240 C254 0.931 . S
H241 C256 0.930 . S
C242 H230 0.930 . S
C242 C243 1.399 . S
C242 C247 1.399 . S
C243 C242 1.399 . S
C243 C244 1.376 . S
C244 H231 0.930 . S
C244 C243 1.376 . S
C244 C245 1.388 . S
C245 H232 0.930 . S
C245 C244 1.388 . S
C245 C246 1.390 . S
C246 C245 1.390 . S
C246 C247 1.394 . S
C246 C252 1.465 . S
C247 C242 1.399 . S
C247 C246 1.394 . S
C247 C248 1.516 . S
C248 C247 1.516 . S
C248 C249 1.502 . S
C248 C250 1.561 . S
C248 C251 1.526 . S
C249 H233 0.959 . S
C249 H234 0.959 . S
C249 H235 0.961 . S
C249 C248 1.502 . S
C250 H236 0.960 . S
C250 H237 0.961 . S
C250 H238 0.959 . S
C250 C248 1.561 . S
C251 C248 1.526 . S
C251 C252 1.396 . S
C251 C256 1.390 . S
C252 C246 1.465 . S
C252 C251 1.396 . S
C252 C253 1.399 . S
C253 H239 0.929 . S
C253 C252 1.399 . S
C253 C254 1.385 . S
C254 H240 0.931 . S
C254 C253 1.385 . S
C254 C255 1.389 . S
C255 C254 1.389 . S
C255 C256 1.387 . S
C256 H241 0.930 . S
C256 C251 1.390 . S
C256 C255 1.387 . S
H257 C269 0.930 . S
H258 C271 0.930 . S
H259 C272 0.930 . S
H260 C276 0.959 . S
H261 C276 0.959 . S
H262 C276 0.961 . S
H263 C277 0.960 . S
H264 C277 0.961 . S
H265 C277 0.959 . S
H266 C280 0.929 . S
H267 C281 0.931 . S
H268 C283 0.930 . S
C269 H257 0.930 . S
C269 C270 1.399 . S
C269 C274 1.399 . S
C270 C269 1.399 . S
C270 C271 1.376 . S
C271 H258 0.930 . S
C271 C270 1.376 . S
C271 C272 1.388 . S
C272 H259 0.930 . S
C272 C271 1.388 . S
C272 C273 1.390 . S
C273 C272 1.390 . S
C273 C274 1.394 . S
C273 C279 1.465 . S
C274 C269 1.399 . S
C274 C273 1.394 . S
C274 C275 1.516 . S
C275 C274 1.516 . S
C275 C276 1.502 . S
C275 C277 1.561 . S
C275 C278 1.526 . S
C276 H260 0.959 . S
C276 H261 0.959 . S
C276 H262 0.961 . S
C276 C275 1.502 . S
C277 H263 0.960 . S
C277 H264 0.961 . S
C277 H265 0.959 . S
C277 C275 1.561 . S
C278 C275 1.526 . S
C278 C279 1.396 . S
C278 C283 1.390 . S
C279 C273 1.465 . S
C279 C278 1.396 . S
C279 C280 1.399 . S
C280 H266 0.929 . S
C280 C279 1.399 . S
C280 C281 1.385 . S
C281 H267 0.931 . S
C281 C280 1.385 . S
C281 C282 1.389 . S
C282 C281 1.389 . S
C282 C283 1.387 . S
C283 H268 0.930 . S
C283 C278 1.390 . S
C283 C282 1.387 . S
H284 C296 0.930 . S
H285 C298 0.930 . S
H286 C299 0.930 . S
H287 C303 0.959 . S
H288 C303 0.959 . S
H289 C303 0.961 . S
H290 C304 0.960 . S
H291 C304 0.961 . S
H292 C304 0.959 . S
H293 C307 0.929 . S
H294 C308 0.931 . S
H295 C310 0.930 . S
C296 H284 0.930 . S
C296 C297 1.399 . S
C296 C301 1.399 . S
C297 C296 1.399 . S
C297 C298 1.376 . S
C298 H285 0.930 . S
C298 C297 1.376 . S
C298 C299 1.388 . S
C299 H286 0.930 . S
C299 C298 1.388 . S
C299 C300 1.390 . S
C300 C299 1.390 . S
C300 C301 1.394 . S
C300 C306 1.465 . S
C301 C296 1.399 . S
C301 C300 1.394 . S
C301 C302 1.516 . S
C302 C301 1.516 . S
C302 C303 1.502 . S
C302 C304 1.561 . S
C302 C305 1.526 . S
C303 H287 0.959 . S
C303 H288 0.959 . S
C303 H289 0.961 . S
C303 C302 1.502 . S
C304 H290 0.960 . S
C304 H291 0.961 . S
C304 H292 0.959 . S
C304 C302 1.561 . S
C305 C302 1.526 . S
C305 C306 1.396 . S
C305 C310 1.390 . S
C306 C300 1.465 . S
C306 C305 1.396 . S
C306 C307 1.399 . S
C307 H293 0.929 . S
C307 C306 1.399 . S
C307 C308 1.385 . S
C308 H294 0.931 . S
C308 C307 1.385 . S
C308 C309 1.389 . S
C309 C308 1.389 . S
C309 C310 1.387 . S
C310 H295 0.930 . S
C310 C305 1.390 . S
C310 C309 1.387 . S
H311 C323 0.930 . S
H312 C325 0.930 . S
H313 C326 0.930 . S
H314 C330 0.959 . S
H315 C330 0.959 . S
H316 C330 0.961 . S
H317 C331 0.960 . S
H318 C331 0.961 . S
H319 C331 0.959 . S
H320 C334 0.929 . S
H321 C335 0.931 . S
H322 C337 0.930 . S
C323 H311 0.930 . S
C323 C324 1.399 . S
C323 C328 1.399 . S
C324 C323 1.399 . S
C324 C325 1.376 . S
C325 H312 0.930 . S
C325 C324 1.376 . S
C325 C326 1.388 . S
C326 H313 0.930 . S
C326 C325 1.388 . S
C326 C327 1.390 . S
C327 C326 1.390 . S
C327 C328 1.394 . S
C327 C333 1.465 . S
C328 C323 1.399 . S
C328 C327 1.394 . S
C328 C329 1.516 . S
C329 C328 1.516 . S
C329 C330 1.502 . S
C329 C331 1.561 . S
C329 C332 1.526 . S
C330 H314 0.959 . S
C330 H315 0.959 . S
C330 H316 0.961 . S
C330 C329 1.502 . S
C331 H317 0.960 . S
C331 H318 0.961 . S
C331 H319 0.959 . S
C331 C329 1.561 . S
C332 C329 1.526 . S
C332 C333 1.396 . S
C332 C337 1.390 . S
C333 C327 1.465 . S
C333 C332 1.396 . S
C333 C334 1.399 . S
C334 H320 0.929 . S
C334 C333 1.399 . S
C334 C335 1.385 . S
C335 H321 0.931 . S
C335 C334 1.385 . S
C335 C336 1.389 . S
C336 C335 1.389 . S
C336 C337 1.387 . S
C337 H322 0.930 . S
C337 C332 1.390 . S
C337 C336 1.387 . S
H338 C350 0.930 . S
H339 C352 0.930 . S
H340 C353 0.930 . S
H341 C357 0.959 . S
H342 C357 0.959 . S
H343 C357 0.961 . S
H344 C358 0.960 . S
H345 C358 0.961 . S
H346 C358 0.959 . S
H347 C361 0.929 . S
H348 C362 0.931 . S
H349 C364 0.930 . S
C350 H338 0.930 . S
C350 C351 1.399 . S
C350 C355 1.399 . S
C351 C350 1.399 . S
C351 C352 1.376 . S
C352 H339 0.930 . S
C352 C351 1.376 . S
C352 C353 1.388 . S
C353 H340 0.930 . S
C353 C352 1.388 . S
C353 C354 1.390 . S
C354 C353 1.390 . S
C354 C355 1.394 . S
C354 C360 1.465 . S
C355 C350 1.399 . S
C355 C354 1.394 . S
C355 C356 1.516 . S
C356 C355 1.516 . S
C356 C357 1.502 . S
C356 C358 1.561 . S
C356 C359 1.526 . S
C357 H341 0.959 . S
C357 H342 0.959 . S
C357 H343 0.961 . S
C357 C356 1.502 . S
C358 H344 0.960 . S
C358 H345 0.961 . S
C358 H346 0.959 . S
C358 C356 1.561 . S
C359 C356 1.526 . S
C359 C360 1.396 . S
C359 C364 1.390 . S
C360 C354 1.465 . S
C360 C359 1.396 . S
C360 C361 1.399 . S
C361 H347 0.929 . S
C361 C360 1.399 . S
C361 C362 1.385 . S
C362 H348 0.931 . S
C362 C361 1.385 . S
C362 C363 1.389 . S
C363 C362 1.389 . S
C363 C364 1.387 . S
C364 H349 0.930 . S
C364 C359 1.390 . S
C364 C363 1.387 . S
H365 C377 0.930 . S
H366 C379 0.930 . S
H367 C380 0.930 . S
H368 C384 0.959 . S
H369 C384 0.959 . S
H370 C384 0.961 . S
H371 C385 0.960 . S
H372 C385 0.961 . S
H373 C385 0.959 . S
H374 C388 0.929 . S
H375 C389 0.931 . S
H376 C391 0.930 . S
C377 H365 0.930 . S
C377 C378 1.399 . S
C377 C382 1.399 . S
C378 C377 1.399 . S
C378 C379 1.376 . S
C379 H366 0.930 . S
C379 C378 1.376 . S
C379 C380 1.388 . S
C380 H367 0.930 . S
C380 C379 1.388 . S
C380 C381 1.390 . S
C381 C380 1.390 . S
C381 C382 1.394 . S
C381 C387 1.465 . S
C382 C377 1.399 . S
C382 C381 1.394 . S
C382 C383 1.516 . S
C383 C382 1.516 . S
C383 C384 1.502 . S
C383 C385 1.561 . S
C383 C386 1.526 . S
C384 H368 0.959 . S
C384 H369 0.959 . S
C384 H370 0.961 . S
C384 C383 1.502 . S
C385 H371 0.960 . S
C385 H372 0.961 . S
C385 H373 0.959 . S
C385 C383 1.561 . S
C386 C383 1.526 . S
C386 C387 1.396 . S
C386 C391 1.390 . S
C387 C381 1.465 . S
C387 C386 1.396 . S
C387 C388 1.399 . S
C388 H374 0.929 . S
C388 C387 1.399 . S
C388 C389 1.385 . S
C389 H375 0.931 . S
C389 C388 1.385 . S
C389 C390 1.389 . S
C390 C389 1.389 . S
C390 C391 1.387 . S
C391 H376 0.930 . S
C391 C386 1.390 . S
C391 C390 1.387 . S
H392 C404 0.930 . S
H393 C406 0.930 . S
H394 C407 0.930 . S
H395 C411 0.959 . S
H396 C411 0.959 . S
H397 C411 0.961 . S
H398 C412 0.960 . S
H399 C412 0.961 . S
H400 C412 0.959 . S
H401 C415 0.929 . S
H402 C416 0.931 . S
H403 C418 0.930 . S
C404 H392 0.930 . S
C404 C405 1.399 . S
C404 C409 1.399 . S
C405 C404 1.399 . S
C405 C406 1.376 . S
C406 H393 0.930 . S
C406 C405 1.376 . S
C406 C407 1.388 . S
C407 H394 0.930 . S
C407 C406 1.388 . S
C407 C408 1.390 . S
C408 C407 1.390 . S
C408 C409 1.394 . S
C408 C414 1.465 1_655 S
C409 C404 1.399 . S
C409 C408 1.394 . S
C409 C410 1.516 1_655 S
C410 C409 1.516 1_455 S
C410 C411 1.502 . S
C410 C412 1.561 1_455 S
C410 C413 1.526 . S
C411 H395 0.959 . S
C411 H396 0.959 . S
C411 H397 0.961 . S
C411 C410 1.502 . S
C412 H398 0.960 . S
C412 H399 0.961 . S
C412 H400 0.959 . S
C412 C410 1.561 1_655 S
C413 C410 1.526 . S
C413 C414 1.396 . S
C413 C418 1.390 . S
C414 C408 1.465 1_455 S
C414 C413 1.396 . S
C414 C415 1.399 . S
C415 H401 0.929 . S
C415 C414 1.399 . S
C415 C416 1.385 . S
C416 H402 0.931 . S
C416 C415 1.385 . S
C416 C417 1.389 . S
C417 C416 1.389 . S
C417 C418 1.387 . S
C418 H403 0.930 . S
C418 C413 1.390 . S
C418 C417 1.387 . S
H419 C431 0.930 . S
H420 C433 0.930 . S
H421 C434 0.930 1_565 S
H422 C438 0.959 . S
H423 C438 0.959 . S
H424 C438 0.961 . S
H425 C439 0.960 . S
H426 C439 0.961 . S
H427 C439 0.959 . S
H428 C442 0.929 . S
H429 C443 0.931 . S
H430 C445 0.930 . S
C431 H419 0.930 . S
C431 C432 1.399 . S
C431 C436 1.399 . S
C432 C431 1.399 . S
C432 C433 1.376 . S
C433 H420 0.930 . S
C433 C432 1.376 . S
C433 C434 1.388 . S
C434 H421 0.930 1_545 S
C434 C433 1.388 . S
C434 C435 1.390 . S
C435 C434 1.390 . S
C435 C436 1.394 . S
C435 C441 1.465 1_545 S
C436 C431 1.399 . S
C436 C435 1.394 . S
C436 C437 1.516 . S
C437 C436 1.516 . S
C437 C438 1.502 . S
C437 C439 1.561 . S
C437 C440 1.526 1_545 S
C438 H422 0.959 . S
C438 H423 0.959 . S
C438 H424 0.961 . S
C438 C437 1.502 . S
C439 H425 0.960 . S
C439 H426 0.961 . S
C439 H427 0.959 . S
C439 C437 1.561 . S
C440 C437 1.526 1_565 S
C440 C441 1.396 . S
C440 C445 1.390 . S
C441 C435 1.465 1_565 S
C441 C440 1.396 . S
C441 C442 1.399 . S
C442 H428 0.929 . S
C442 C441 1.399 . S
C442 C443 1.385 . S
C443 H429 0.931 . S
C443 C442 1.385 . S
C443 C444 1.389 . S
C444 C443 1.389 . S
C444 C445 1.387 . S
C445 H430 0.930 . S
C445 C440 1.390 . S
C445 C444 1.387 . S
H446 C458 0.930 . S
H447 C460 0.930 . S
H448 C461 0.930 . S
H449 C465 0.959 . S
H450 C465 0.959 . S
H451 C465 0.961 . S
H452 C466 0.960 . S
H453 C466 0.961 . S
H454 C466 0.959 . S
H455 C469 0.929 . S
H456 C470 0.931 . S
H457 C472 0.930 . S
C458 H446 0.930 . S
C458 C459 1.399 . S
C458 C463 1.399 . S
C459 C458 1.399 . S
C459 C460 1.376 . S
C460 H447 0.930 . S
C460 C459 1.376 . S
C460 C461 1.388 . S
C461 H448 0.930 . S
C461 C460 1.388 . S
C461 C462 1.390 . S
C462 C461 1.390 . S
C462 C463 1.394 . S
C462 C468 1.465 1_655 S
C463 C458 1.399 . S
C463 C462 1.394 . S
C463 C464 1.510 1_655 S
C464 C463 1.510 1_455 S
C464 C465 1.507 . S
C464 C466 1.556 1_455 S
C464 C467 1.531 . S
C465 H449 0.959 . S
C465 H450 0.959 . S
C465 H451 0.961 . S
C465 C464 1.507 . S
C466 H452 0.960 . S
C466 H453 0.961 . S
C466 H454 0.959 . S
C466 C464 1.556 1_655 S
C467 C464 1.531 . S
C467 C468 1.396 . S
C467 C472 1.390 . S
C468 C462 1.465 1_455 S
C468 C467 1.396 . S
C468 C469 1.399 . S
C469 H455 0.929 . S
C469 C468 1.399 . S
C469 C470 1.385 . S
C470 H456 0.931 . S
C470 C469 1.385 . S
C470 C471 1.389 . S
C471 C470 1.389 . S
C471 C472 1.387 . S
C472 H457 0.930 . S
C472 C467 1.390 . S
C472 C471 1.387 . S
H473 C485 0.930 . S
H474 C487 0.930 . S
H475 C488 0.930 1_565 S
H476 C492 0.959 . S
H477 C492 0.959 . S
H478 C492 0.961 . S
H479 C493 0.960 . S
H480 C493 0.961 . S
H481 C493 0.959 . S
H482 C496 0.929 . S
H483 C497 0.931 . S
H484 C499 0.930 . S
C485 H473 0.930 . S
C485 C486 1.399 . S
C485 C490 1.399 . S
C486 C485 1.399 . S
C486 C487 1.376 . S
C487 H474 0.930 . S
C487 C486 1.376 . S
C487 C488 1.388 . S
C488 H475 0.930 1_545 S
C488 C487 1.388 . S
C488 C489 1.390 . S
C489 C488 1.390 . S
C489 C490 1.394 . S
C489 C495 1.465 1_545 S
C490 C485 1.399 . S
C490 C489 1.394 . S
C490 C491 1.516 . S
C491 C490 1.516 . S
C491 C492 1.502 . S
C491 C493 1.561 . S
C491 C494 1.526 1_545 S
C492 H476 0.959 . S
C492 H477 0.959 . S
C492 H478 0.961 . S
C492 C491 1.502 . S
C493 H479 0.960 . S
C493 H480 0.961 . S
C493 H481 0.959 . S
C493 C491 1.561 . S
C494 C491 1.526 1_565 S
C494 C495 1.396 . S
C494 C499 1.390 . S
C495 C489 1.465 1_565 S
C495 C494 1.396 . S
C495 C496 1.399 . S
C496 H482 0.929 . S
C496 C495 1.399 . S
C496 C497 1.385 . S
C497 H483 0.931 . S
C497 C496 1.385 . S
C497 C498 1.389 . S
C498 C497 1.389 . S
C498 C499 1.387 . S
C499 H484 0.930 . S
C499 C494 1.390 . S
C499 C498 1.387 . S
H500 C512 0.930 . S
H501 C514 0.930 . S
H502 C515 0.930 . S
H503 C519 0.959 . S
H504 C519 0.959 . S
H505 C519 0.961 . S
H506 C520 0.960 . S
H507 C520 0.961 . S
H508 C520 0.959 . S
H509 C523 0.929 1_455 S
H510 C524 0.931 . S
H511 C526 0.930 . S
C512 H500 0.930 . S
C512 C513 1.399 . S
C512 C517 1.399 . S
C513 C512 1.399 . S
C513 C514 1.376 . S
C514 H501 0.930 . S
C514 C513 1.376 . S
C514 C515 1.388 . S
C515 H502 0.930 . S
C515 C514 1.388 . S
C515 C516 1.390 . S
C516 C515 1.390 . S
C516 C517 1.394 . S
C516 C522 1.465 1_455 S
C517 C512 1.399 . S
C517 C516 1.394 . S
C517 C518 1.516 1_455 S
C518 C517 1.516 1_655 S
C518 C519 1.502 . S
C518 C520 1.561 . S
C518 C521 1.526 . S
C519 H503 0.959 . S
C519 H504 0.959 . S
C519 H505 0.961 . S
C519 C518 1.502 . S
C520 H506 0.960 . S
C520 H507 0.961 . S
C520 H508 0.959 . S
C520 C518 1.561 . S
C521 C518 1.526 . S
C521 C522 1.396 . S
C521 C526 1.390 . S
C522 C516 1.465 1_655 S
C522 C521 1.396 . S
C522 C523 1.399 . S
C523 H509 0.929 1_655 S
C523 C522 1.399 . S
C523 C524 1.385 . S
C524 H510 0.931 . S
C524 C523 1.385 . S
C524 C525 1.389 . S
C525 C524 1.389 . S
C525 C526 1.387 . S
C526 H511 0.930 . S
C526 C521 1.390 . S
C526 C525 1.387 . S
H527 C539 0.930 . S
H528 C541 0.930 . S
H529 C542 0.930 . S
H530 C546 0.959 . S
H531 C546 0.959 . S
H532 C546 0.961 . S
H533 C547 0.960 . S
H534 C547 0.961 . S
H535 C547 0.959 . S
H536 C550 0.929 1_565 S
H537 C551 0.931 . S
H538 C553 0.930 . S
C539 H527 0.930 . S
C539 C540 1.399 . S
C539 C544 1.399 . S
C540 C539 1.399 . S
C540 C541 1.376 . S
C541 H528 0.930 . S
C541 C540 1.376 . S
C541 C542 1.388 . S
C542 H529 0.930 . S
C542 C541 1.388 . S
C542 C543 1.390 . S
C543 C542 1.390 . S
C543 C544 1.394 . S
C543 C549 1.465 1_565 S
C544 C539 1.399 . S
C544 C543 1.394 . S
C544 C545 1.516 1_565 S
C545 C544 1.516 1_545 S
C545 C546 1.502 . S
C545 C547 1.561 . S
C545 C548 1.526 . S
C546 H530 0.959 . S
C546 H531 0.959 . S
C546 H532 0.961 . S
C546 C545 1.502 . S
C547 H533 0.960 . S
C547 H534 0.961 . S
C547 H535 0.959 . S
C547 C545 1.561 . S
C548 C545 1.526 . S
C548 C549 1.396 . S
C548 C553 1.390 . S
C549 C543 1.465 1_545 S
C549 C548 1.396 . S
C549 C550 1.399 . S
C550 H536 0.929 1_545 S
C550 C549 1.399 . S
C550 C551 1.385 . S
C551 H537 0.931 . S
C551 C550 1.385 . S
C551 C552 1.389 . S
C552 C551 1.389 . S
C552 C553 1.387 . S
C553 H538 0.930 . S
C553 C548 1.390 . S
C553 C552 1.387 . S
H554 C566 0.930 . S
H555 C568 0.930 . S
H556 C569 0.930 . S
H557 C573 0.959 . S
H558 C573 0.959 . S
H559 C573 0.961 . S
H560 C574 0.960 . S
H561 C574 0.961 1_455 S
H562 C574 0.959 . S
H563 C577 0.929 . S
H564 C578 0.931 . S
H565 C580 0.930 . S
C566 H554 0.930 . S
C566 C567 1.399 . S
C566 C571 1.399 . S
C567 C566 1.399 . S
C567 C568 1.376 . S
C568 H555 0.930 . S
C568 C567 1.376 . S
C568 C569 1.388 . S
C569 H556 0.930 . S
C569 C568 1.388 . S
C569 C570 1.390 . S
C570 C569 1.390 . S
C570 C571 1.394 . S
C570 C576 1.465 1_655 S
C571 C566 1.399 . S
C571 C570 1.394 . S
C571 C572 1.516 1_655 S
C572 C571 1.516 1_455 S
C572 C573 1.502 . S
C572 C574 1.561 1_455 S
C572 C575 1.526 . S
C573 H557 0.959 . S
C573 H558 0.959 . S
C573 H559 0.961 . S
C573 C572 1.502 . S
C574 H560 0.960 . S
C574 H561 0.961 1_655 S
C574 H562 0.959 . S
C574 C572 1.561 1_655 S
C575 C572 1.526 . S
C575 C576 1.396 . S
C575 C580 1.390 . S
C576 C570 1.465 1_455 S
C576 C575 1.396 . S
C576 C577 1.399 . S
C577 H563 0.929 . S
C577 C576 1.399 . S
C577 C578 1.385 . S
C578 H564 0.931 . S
C578 C577 1.385 . S
C578 C579 1.389 . S
C579 C578 1.389 . S
C579 C580 1.387 . S
C580 H565 0.930 . S
C580 C575 1.390 . S
C580 C579 1.387 . S
H581 C593 0.930 . S
H582 C595 0.930 . S
H583 C596 0.930 . S
H584 C600 0.959 . S
H585 C600 0.959 . S
H586 C600 0.961 . S
H587 C601 0.960 . S
H588 C601 0.961 . S
H589 C601 0.959 . S
H590 C604 0.929 1_565 S
H591 C605 0.931 . S
H592 C607 0.930 . S
C593 H581 0.930 . S
C593 C594 1.399 . S
C593 C598 1.399 . S
C594 C593 1.399 . S
C594 C595 1.376 . S
C595 H582 0.930 . S
C595 C594 1.376 . S
C595 C596 1.388 . S
C596 H583 0.930 . S
C596 C595 1.388 . S
C596 C597 1.390 . S
C597 C596 1.390 . S
C597 C598 1.394 . S
C597 C603 1.465 1_565 S
C598 C593 1.399 . S
C598 C597 1.394 . S
C598 C599 1.516 1_565 S
C599 C598 1.516 1_545 S
C599 C600 1.502 . S
C599 C601 1.561 . S
C599 C602 1.526 . S
C600 H584 0.959 . S
C600 H585 0.959 . S
C600 H586 0.961 . S
C600 C599 1.502 . S
C601 H587 0.960 . S
C601 H588 0.961 . S
C601 H589 0.959 . S
C601 C599 1.561 . S
C602 C599 1.526 . S
C602 C603 1.396 . S
C602 C607 1.390 . S
C603 C597 1.465 1_545 S
C603 C602 1.396 . S
C603 C604 1.399 . S
C604 H590 0.929 1_545 S
C604 C603 1.399 . S
C604 C605 1.385 . S
C605 H591 0.931 . S
C605 C604 1.385 . S
C605 C606 1.389 . S
C606 C605 1.389 . S
C606 C607 1.387 . S
C607 H592 0.930 . S
C607 C602 1.390 . S
C607 C606 1.387 . S
H608 C620 0.930 . S
H609 C622 0.930 . S
H610 C623 0.930 . S
H611 C627 0.959 . S
H612 C627 0.959 . S
H613 C627 0.961 . S
H614 C628 0.960 . S
H615 C628 0.961 . S
H616 C628 0.959 . S
H617 C631 0.929 . S
H618 C632 0.931 . S
H619 C634 0.930 . S
C620 H608 0.930 . S
C620 C621 1.399 . S
C620 C625 1.399 . S
C621 C620 1.399 . S
C621 C622 1.376 . S
C622 H609 0.930 . S
C622 C621 1.376 . S
C622 C623 1.388 . S
C623 H610 0.930 . S
C623 C622 1.388 . S
C623 C624 1.390 . S
C624 C623 1.390 . S
C624 C625 1.394 . S
C624 C630 1.465 . S
C625 C620 1.399 . S
C625 C624 1.394 . S
C625 C626 1.516 . S
C626 C625 1.516 . S
C626 C627 1.502 . S
C626 C628 1.561 . S
C626 C629 1.526 . S
C627 H611 0.959 . S
C627 H612 0.959 . S
C627 H613 0.961 . S
C627 C626 1.502 . S
C628 H614 0.960 . S
C628 H615 0.961 . S
C628 H616 0.959 . S
C628 C626 1.561 . S
C629 C626 1.526 . S
C629 C630 1.396 . S
C629 C634 1.390 . S
C630 C624 1.465 . S
C630 C629 1.396 . S
C630 C631 1.399 . S
C631 H617 0.929 . S
C631 C630 1.399 . S
C631 C632 1.385 . S
C632 H618 0.931 . S
C632 C631 1.385 . S
C632 C633 1.389 . S
C633 C632 1.389 . S
C633 C634 1.387 . S
C634 H619 0.930 . S
C634 C629 1.390 . S
C634 C633 1.387 . S
H635 C647 0.930 . S
H636 C649 0.930 . S
H637 C650 0.930 . S
H638 C654 0.959 . S
H639 C654 0.959 . S
H640 C654 0.961 . S
H641 C655 0.960 . S
H642 C655 0.961 . S
H643 C655 0.959 . S
H644 C658 0.929 . S
H645 C659 0.931 . S
H646 C661 0.930 . S
C647 H635 0.930 . S
C647 C648 1.399 . S
C647 C652 1.399 . S
C648 C647 1.399 . S
C648 C649 1.376 . S
C649 H636 0.930 . S
C649 C648 1.376 . S
C649 C650 1.388 . S
C650 H637 0.930 . S
C650 C649 1.388 . S
C650 C651 1.390 . S
C651 C650 1.390 . S
C651 C652 1.394 . S
C651 C657 1.465 . S
C652 C647 1.399 . S
C652 C651 1.394 . S
C652 C653 1.516 . S
C653 C652 1.516 . S
C653 C654 1.502 . S
C653 C655 1.561 . S
C653 C656 1.526 . S
C654 H638 0.959 . S
C654 H639 0.959 . S
C654 H640 0.961 . S
C654 C653 1.502 . S
C655 H641 0.960 . S
C655 H642 0.961 . S
C655 H643 0.959 . S
C655 C653 1.561 . S
C656 C653 1.526 . S
C656 C657 1.396 . S
C656 C661 1.390 . S
C657 C651 1.465 . S
C657 C656 1.396 . S
C657 C658 1.399 . S
C658 H644 0.929 . S
C658 C657 1.399 . S
C658 C659 1.385 . S
C659 H645 0.931 . S
C659 C658 1.385 . S
C659 C660 1.389 . S
C660 C659 1.389 . S
C660 C661 1.387 . S
C661 H646 0.930 . S
C661 C656 1.390 . S
C661 C660 1.387 . S
H662 C674 0.930 . S
H663 C676 0.930 . S
H664 C677 0.930 . S
H665 C681 0.959 . S
H666 C681 0.959 . S
H667 C681 0.961 . S
H668 C682 0.960 . S
H669 C682 0.961 . S
H670 C682 0.959 . S
H671 C685 0.929 . S
H672 C686 0.931 . S
H673 C688 0.930 . S
C674 H662 0.930 . S
C674 C675 1.399 . S
C674 C679 1.399 . S
C675 C674 1.399 . S
C675 C676 1.376 . S
C676 H663 0.930 . S
C676 C675 1.376 . S
C676 C677 1.388 . S
C677 H664 0.930 . S
C677 C676 1.388 . S
C677 C678 1.390 . S
C678 C677 1.390 . S
C678 C679 1.394 . S
C678 C684 1.465 . S
C679 C674 1.399 . S
C679 C678 1.394 . S
C679 C680 1.516 . S
C680 C679 1.516 . S
C680 C681 1.502 . S
C680 C682 1.561 . S
C680 C683 1.526 . S
C681 H665 0.959 . S
C681 H666 0.959 . S
C681 H667 0.961 . S
C681 C680 1.502 . S
C682 H668 0.960 . S
C682 H669 0.961 . S
C682 H670 0.959 . S
C682 C680 1.561 . S
C683 C680 1.526 . S
C683 C684 1.396 . S
C683 C688 1.390 . S
C684 C678 1.465 . S
C684 C683 1.396 . S
C684 C685 1.399 . S
C685 H671 0.929 . S
C685 C684 1.399 . S
C685 C686 1.385 . S
C686 H672 0.931 . S
C686 C685 1.385 . S
C686 C687 1.389 . S
C687 C686 1.389 . S
C687 C688 1.387 . S
C688 H673 0.930 . S
C688 C683 1.390 . S
C688 C687 1.387 . S
H689 C701 0.930 . S
H690 C703 0.930 . S
H691 C704 0.930 . S
H692 C708 0.959 . S
H693 C708 0.959 . S
H694 C708 0.961 . S
H695 C709 0.960 . S
H696 C709 0.961 . S
H697 C709 0.959 . S
H698 C712 0.929 . S
H699 C713 0.931 . S
H700 C715 0.930 . S
C701 H689 0.930 . S
C701 C702 1.399 . S
C701 C706 1.399 . S
C702 C701 1.399 . S
C702 C703 1.376 . S
C703 H690 0.930 . S
C703 C702 1.376 . S
C703 C704 1.388 . S
C704 H691 0.930 . S
C704 C703 1.388 . S
C704 C705 1.390 . S
C705 C704 1.390 . S
C705 C706 1.394 . S
C705 C711 1.465 . S
C706 C701 1.399 . S
C706 C705 1.394 . S
C706 C707 1.516 . S
C707 C706 1.516 . S
C707 C708 1.502 . S
C707 C709 1.561 . S
C707 C710 1.526 . S
C708 H692 0.959 . S
C708 H693 0.959 . S
C708 H694 0.961 . S
C708 C707 1.502 . S
C709 H695 0.960 . S
C709 H696 0.961 . S
C709 H697 0.959 . S
C709 C707 1.561 . S
C710 C707 1.526 . S
C710 C711 1.396 . S
C710 C715 1.390 . S
C711 C705 1.465 . S
C711 C710 1.396 . S
C711 C712 1.399 . S
C712 H698 0.929 . S
C712 C711 1.399 . S
C712 C713 1.385 . S
C713 H699 0.931 . S
C713 C712 1.385 . S
C713 C714 1.389 . S
C714 C713 1.389 . S
C714 C715 1.387 . S
C715 H700 0.930 . S
C715 C710 1.390 . S
C715 C714 1.387 . S
H716 C728 0.930 . S
H717 C730 0.930 . S
H718 C731 0.930 . S
H719 C735 0.959 . S
H720 C735 0.959 . S
H721 C735 0.961 . S
H722 C736 0.960 . S
H723 C736 0.961 . S
H724 C736 0.959 . S
H725 C739 0.929 . S
H726 C740 0.931 . S
H727 C742 0.930 . S
C728 H716 0.930 . S
C728 C729 1.399 . S
C728 C733 1.399 . S
C729 C728 1.399 . S
C729 C730 1.376 . S
C730 H717 0.930 . S
C730 C729 1.376 . S
C730 C731 1.388 . S
C731 H718 0.930 . S
C731 C730 1.388 . S
C731 C732 1.390 . S
C732 C731 1.390 . S
C732 C733 1.394 . S
C732 C738 1.465 . S
C733 C728 1.399 . S
C733 C732 1.394 . S
C733 C734 1.516 . S
C734 C733 1.516 . S
C734 C735 1.502 . S
C734 C736 1.561 . S
C734 C737 1.526 . S
C735 H719 0.959 . S
C735 H720 0.959 . S
C735 H721 0.961 . S
C735 C734 1.502 . S
C736 H722 0.960 . S
C736 H723 0.961 . S
C736 H724 0.959 . S
C736 C734 1.561 . S
C737 C734 1.526 . S
C737 C738 1.396 . S
C737 C742 1.390 . S
C738 C732 1.465 . S
C738 C737 1.396 . S
C738 C739 1.399 . S
C739 H725 0.929 . S
C739 C738 1.399 . S
C739 C740 1.385 . S
C740 H726 0.931 . S
C740 C739 1.385 . S
C740 C741 1.389 . S
C741 C740 1.389 . S
C741 C742 1.387 . S
C742 H727 0.930 . S
C742 C737 1.390 . S
C742 C741 1.387 . S
H743 C755 0.930 . S
H744 C757 0.930 . S
H745 C758 0.930 . S
H746 C762 0.959 . S
H747 C762 0.959 . S
H748 C762 0.961 . S
H749 C763 0.960 . S
H750 C763 0.961 . S
H751 C763 0.959 . S
H752 C766 0.929 . S
H753 C767 0.931 . S
H754 C769 0.930 . S
C755 H743 0.930 . S
C755 C756 1.399 . S
C755 C760 1.399 . S
C756 C755 1.399 . S
C756 C757 1.376 . S
C757 H744 0.930 . S
C757 C756 1.376 . S
C757 C758 1.388 . S
C758 H745 0.930 . S
C758 C757 1.388 . S
C758 C759 1.390 . S
C759 C758 1.390 . S
C759 C760 1.394 . S
C759 C765 1.465 . S
C760 C755 1.399 . S
C760 C759 1.394 . S
C760 C761 1.516 . S
C761 C760 1.516 . S
C761 C762 1.502 . S
C761 C763 1.561 . S
C761 C764 1.526 . S
C762 H746 0.959 . S
C762 H747 0.959 . S
C762 H748 0.961 . S
C762 C761 1.502 . S
C763 H749 0.960 . S
C763 H750 0.961 . S
C763 H751 0.959 . S
C763 C761 1.561 . S
C764 C761 1.526 . S
C764 C765 1.396 . S
C764 C769 1.390 . S
C765 C759 1.465 . S
C765 C764 1.396 . S
C765 C766 1.399 . S
C766 H752 0.929 . S
C766 C765 1.399 . S
C766 C767 1.385 . S
C767 H753 0.931 . S
C767 C766 1.385 . S
C767 C768 1.389 . S
C768 C767 1.389 . S
C768 C769 1.387 . S
C769 H754 0.930 . S
C769 C764 1.390 . S
C769 C768 1.387 . S
H770 C782 0.930 . S
H771 C784 0.930 . S
H772 C785 0.930 . S
H773 C789 0.959 . S
H774 C789 0.959 . S
H775 C789 0.961 . S
H776 C790 0.960 . S
H777 C790 0.961 . S
H778 C790 0.959 . S
H779 C793 0.929 . S
H780 C794 0.931 . S
H781 C796 0.930 . S
C782 H770 0.930 . S
C782 C783 1.399 . S
C782 C787 1.399 . S
C783 C782 1.399 . S
C783 C784 1.376 . S
C784 H771 0.930 . S
C784 C783 1.376 . S
C784 C785 1.388 . S
C785 H772 0.930 . S
C785 C784 1.388 . S
C785 C786 1.390 . S
C786 C785 1.390 . S
C786 C787 1.394 . S
C786 C792 1.465 . S
C787 C782 1.399 . S
C787 C786 1.394 . S
C787 C788 1.516 . S
C788 C787 1.516 . S
C788 C789 1.502 . S
C788 C790 1.561 . S
C788 C791 1.526 . S
C789 H773 0.959 . S
C789 H774 0.959 . S
C789 H775 0.961 . S
C789 C788 1.502 . S
C790 H776 0.960 . S
C790 H777 0.961 . S
C790 H778 0.959 . S
C790 C788 1.561 . S
C791 C788 1.526 . S
C791 C792 1.396 . S
C791 C796 1.390 . S
C792 C786 1.465 . S
C792 C791 1.396 . S
C792 C793 1.399 . S
C793 H779 0.929 . S
C793 C792 1.399 . S
C793 C794 1.385 . S
C794 H780 0.931 . S
C794 C793 1.385 . S
C794 C795 1.389 . S
C795 C794 1.389 . S
C795 C796 1.387 . S
C796 H781 0.930 . S
C796 C791 1.390 . S
C796 C795 1.387 . S
H797 C809 0.930 . S
H798 C811 0.930 . S
H799 C812 0.930 . S
H800 C816 0.959 . S
H801 C816 0.959 . S
H802 C816 0.961 . S
H803 C817 0.960 . S
H804 C817 0.961 . S
H805 C817 0.959 . S
H806 C820 0.929 . S
H807 C821 0.931 . S
H808 C823 0.930 . S
C809 H797 0.930 . S
C809 C810 1.399 . S
C809 C814 1.399 . S
C810 C809 1.399 . S
C810 C811 1.376 . S
C811 H798 0.930 . S
C811 C810 1.376 . S
C811 C812 1.388 . S
C812 H799 0.930 . S
C812 C811 1.388 . S
C812 C813 1.390 . S
C813 C812 1.390 . S
C813 C814 1.394 . S
C813 C819 1.465 . S
C814 C809 1.399 . S
C814 C813 1.394 . S
C814 C815 1.516 . S
C815 C814 1.516 . S
C815 C816 1.502 . S
C815 C817 1.561 . S
C815 C818 1.526 . S
C816 H800 0.959 . S
C816 H801 0.959 . S
C816 H802 0.961 . S
C816 C815 1.502 . S
C817 H803 0.960 . S
C817 H804 0.961 . S
C817 H805 0.959 . S
C817 C815 1.561 . S
C818 C815 1.526 . S
C818 C819 1.396 . S
C818 C823 1.390 . S
C819 C813 1.465 . S
C819 C818 1.396 . S
C819 C820 1.399 . S
C820 H806 0.929 . S
C820 C819 1.399 . S
C820 C821 1.385 . S
C821 H807 0.931 . S
C821 C820 1.385 . S
C821 C822 1.389 . S
C822 C821 1.389 . S
C822 C823 1.387 . S
C823 H808 0.930 . S
C823 C818 1.390 . S
C823 C822 1.387 . S
C189 C140 1.401 . S
C201 C8 1.398 . S
C216 C43 1.427 . S
C228 C164 1.450 . S
C243 C96 1.424 . S
C255 C59 1.428 . S
C270 C73 1.500 . S
C282 C125 1.469 . S
C297 C109 1.423 . S
C309 C54 1.410 . S
C324 C84 1.371 . S
C336 C120 1.360 . S
C351 C153 1.467 . S
C363 C21 1.457 . S
C378 C30 1.445 . S
C390 C169 1.411 . S
C405 C40 1.401 . S
C417 C118 1.398 . S
C432 C147 1.421 . S
C444 C52 1.447 . S
C459 C161 1.449 . S
C471 C76 1.448 . S
C486 C15 1.482 . S
C498 C103 1.501 . S
C513 C81 1.442 . S
C525 C172 1.438 . S
C540 C98 1.393 . S
C552 C10 1.377 . S
C567 C29 1.478 . S
C579 C131 1.451 . S
C594 C65 1.444 . S
C606 C142 1.432 . S
C621 C162 1.125 . S
C633 C18 1.125 . S
C648 C37 1.174 . S
C660 C106 1.175 . S
C675 C51 1.240 . S
C687 C117 1.209 . S
C702 C150 1.179 . S
C714 C87 1.186 . S
C729 C128 1.126 . S
C741 C62 1.126 . S
C756 C139 1.173 . S
C768 C74 1.181 . S
C783 C175 1.226 . S
C795 C7 1.224 . S
C810 C95 1.167 . S
C822 C32 1.176 . S
