# Generated by pormake.
# Topology uli, (4)-cn, num edge types: 1
# Building blocks:
#     Node 0, Type 0, BuildingBlock: QUQFOY_clean_sbu_1, # of connection points: 4
#     Node 1, Type 0, BuildingBlock: QUQFOY_clean_sbu_1, # of connection points: 4
#     Node 2, Type 0, BuildingBlock: QUQFOY_clean_sbu_1, # of connection points: 4
#     Node 3, Type 0, BuildingBlock: QUQFOY_clean_sbu_1, # of connection points: 4
#     Node 4, Type 0, BuildingBlock: QUQFOY_clean_sbu_1, # of connection points: 4
#     Node 5, Type 0, BuildingBlock: QUQFOY_clean_sbu_1, # of connection points: 4
#     Node 6, Type 0, BuildingBlock: QUQFOY_clean_sbu_1, # of connection points: 4
#     Node 7, Type 0, BuildingBlock: QUQFOY_clean_sbu_1, # of connection points: 4
#     Node 8, Type 0, BuildingBlock: QUQFOY_clean_sbu_1, # of connection points: 4
#     Node 9, Type 0, BuildingBlock: QUQFOY_clean_sbu_1, # of connection points: 4
#     Node 10, Type 0, BuildingBlock: QUQFOY_clean_sbu_1, # of connection points: 4
#     Node 11, Type 0, BuildingBlock: QUQFOY_clean_sbu_1, # of connection points: 4
#     Node 12, Type 0, BuildingBlock: QUQFOY_clean_sbu_1, # of connection points: 4
#     Node 13, Type 0, BuildingBlock: QUQFOY_clean_sbu_1, # of connection points: 4
#     Node 14, Type 0, BuildingBlock: QUQFOY_clean_sbu_1, # of connection points: 4
#     Node 15, Type 0, BuildingBlock: QUQFOY_clean_sbu_1, # of connection points: 4
#     Node 16, Type 0, BuildingBlock: QUQFOY_clean_sbu_1, # of connection points: 4
#     Node 17, Type 0, BuildingBlock: QUQFOY_clean_sbu_1, # of connection points: 4
#     Node 18, Type 0, BuildingBlock: QUQFOY_clean_sbu_1, # of connection points: 4
#     Node 19, Type 0, BuildingBlock: QUQFOY_clean_sbu_1, # of connection points: 4
#     Node 20, Type 0, BuildingBlock: QUQFOY_clean_sbu_1, # of connection points: 4
#     Node 21, Type 0, BuildingBlock: QUQFOY_clean_sbu_1, # of connection points: 4
#     Node 22, Type 0, BuildingBlock: QUQFOY_clean_sbu_1, # of connection points: 4
#     Node 23, Type 0, BuildingBlock: QUQFOY_clean_sbu_1, # of connection points: 4
#     Node 24, Type 0, BuildingBlock: QUQFOY_clean_sbu_1, # of connection points: 4
#     Node 25, Type 0, BuildingBlock: QUQFOY_clean_sbu_1, # of connection points: 4
#     Node 26, Type 0, BuildingBlock: QUQFOY_clean_sbu_1, # of connection points: 4
#     Node 27, Type 0, BuildingBlock: QUQFOY_clean_sbu_1, # of connection points: 4
#     Node 28, Type 0, BuildingBlock: QUQFOY_clean_sbu_1, # of connection points: 4
#     Node 29, Type 0, BuildingBlock: QUQFOY_clean_sbu_1, # of connection points: 4
#     Node 30, Type 0, BuildingBlock: QUQFOY_clean_sbu_1, # of connection points: 4
#     Node 31, Type 0, BuildingBlock: QUQFOY_clean_sbu_1, # of connection points: 4
#     Node 32, Type 0, BuildingBlock: QUQFOY_clean_sbu_1, # of connection points: 4
#     Node 33, Type 0, BuildingBlock: QUQFOY_clean_sbu_1, # of connection points: 4
#     Node 34, Type 0, BuildingBlock: QUQFOY_clean_sbu_1, # of connection points: 4
#     Node 35, Type 0, BuildingBlock: QUQFOY_clean_sbu_1, # of connection points: 4
#     Node 36, Type 0, BuildingBlock: QUQFOY_clean_sbu_1, # of connection points: 4
#     Node 37, Type 0, BuildingBlock: QUQFOY_clean_sbu_1, # of connection points: 4
#     Node 38, Type 0, BuildingBlock: QUQFOY_clean_sbu_1, # of connection points: 4
#     Node 39, Type 0, BuildingBlock: QUQFOY_clean_sbu_1, # of connection points: 4
#     Node 40, Type 0, BuildingBlock: QUQFOY_clean_sbu_1, # of connection points: 4
#     Node 41, Type 0, BuildingBlock: QUQFOY_clean_sbu_1, # of connection points: 4
#     Node 42, Type 0, BuildingBlock: QUQFOY_clean_sbu_1, # of connection points: 4
#     Node 43, Type 0, BuildingBlock: QUQFOY_clean_sbu_1, # of connection points: 4
#     Node 44, Type 0, BuildingBlock: QUQFOY_clean_sbu_1, # of connection points: 4
#     Node 45, Type 0, BuildingBlock: QUQFOY_clean_sbu_1, # of connection points: 4
#     Node 46, Type 0, BuildingBlock: QUQFOY_clean_sbu_1, # of connection points: 4
#     Node 47, Type 0, BuildingBlock: QUQFOY_clean_sbu_1, # of connection points: 4
#     Edge 48, Type (0, 0), BuildingBlock: KIFKEQ_clean_linker_1, # of connection points: 2
#     Edge 49, Type (0, 0), BuildingBlock: KIFKEQ_clean_linker_1, # of connection points: 2
#     Edge 50, Type (0, 0), BuildingBlock: KIFKEQ_clean_linker_1, # of connection points: 2
#     Edge 51, Type (0, 0), BuildingBlock: KIFKEQ_clean_linker_1, # of connection points: 2
#     Edge 52, Type (0, 0), BuildingBlock: KIFKEQ_clean_linker_1, # of connection points: 2
#     Edge 53, Type (0, 0), BuildingBlock: KIFKEQ_clean_linker_1, # of connection points: 2
#     Edge 54, Type (0, 0), BuildingBlock: KIFKEQ_clean_linker_1, # of connection points: 2
#     Edge 55, Type (0, 0), BuildingBlock: KIFKEQ_clean_linker_1, # of connection points: 2
#     Edge 56, Type (0, 0), BuildingBlock: KIFKEQ_clean_linker_1, # of connection points: 2
#     Edge 57, Type (0, 0), BuildingBlock: KIFKEQ_clean_linker_1, # of connection points: 2
#     Edge 58, Type (0, 0), BuildingBlock: KIFKEQ_clean_linker_1, # of connection points: 2
#     Edge 59, Type (0, 0), BuildingBlock: KIFKEQ_clean_linker_1, # of connection points: 2
#     Edge 60, Type (0, 0), BuildingBlock: KIFKEQ_clean_linker_1, # of connection points: 2
#     Edge 61, Type (0, 0), BuildingBlock: KIFKEQ_clean_linker_1, # of connection points: 2
#     Edge 62, Type (0, 0), BuildingBlock: KIFKEQ_clean_linker_1, # of connection points: 2
#     Edge 63, Type (0, 0), BuildingBlock: KIFKEQ_clean_linker_1, # of connection points: 2
#     Edge 64, Type (0, 0), BuildingBlock: KIFKEQ_clean_linker_1, # of connection points: 2
#     Edge 65, Type (0, 0), BuildingBlock: KIFKEQ_clean_linker_1, # of connection points: 2
#     Edge 66, Type (0, 0), BuildingBlock: KIFKEQ_clean_linker_1, # of connection points: 2
#     Edge 67, Type (0, 0), BuildingBlock: KIFKEQ_clean_linker_1, # of connection points: 2
#     Edge 68, Type (0, 0), BuildingBlock: KIFKEQ_clean_linker_1, # of connection points: 2
#     Edge 69, Type (0, 0), BuildingBlock: KIFKEQ_clean_linker_1, # of connection points: 2
#     Edge 70, Type (0, 0), BuildingBlock: KIFKEQ_clean_linker_1, # of connection points: 2
#     Edge 71, Type (0, 0), BuildingBlock: KIFKEQ_clean_linker_1, # of connection points: 2
#     Edge 72, Type (0, 0), BuildingBlock: KIFKEQ_clean_linker_1, # of connection points: 2
#     Edge 73, Type (0, 0), BuildingBlock: KIFKEQ_clean_linker_1, # of connection points: 2
#     Edge 74, Type (0, 0), BuildingBlock: KIFKEQ_clean_linker_1, # of connection points: 2
#     Edge 75, Type (0, 0), BuildingBlock: KIFKEQ_clean_linker_1, # of connection points: 2
#     Edge 76, Type (0, 0), BuildingBlock: KIFKEQ_clean_linker_1, # of connection points: 2
#     Edge 77, Type (0, 0), BuildingBlock: KIFKEQ_clean_linker_1, # of connection points: 2
#     Edge 78, Type (0, 0), BuildingBlock: KIFKEQ_clean_linker_1, # of connection points: 2
#     Edge 79, Type (0, 0), BuildingBlock: KIFKEQ_clean_linker_1, # of connection points: 2
#     Edge 80, Type (0, 0), BuildingBlock: KIFKEQ_clean_linker_1, # of connection points: 2
#     Edge 81, Type (0, 0), BuildingBlock: KIFKEQ_clean_linker_1, # of connection points: 2
#     Edge 82, Type (0, 0), BuildingBlock: KIFKEQ_clean_linker_1, # of connection points: 2
#     Edge 83, Type (0, 0), BuildingBlock: KIFKEQ_clean_linker_1, # of connection points: 2
#     Edge 84, Type (0, 0), BuildingBlock: KIFKEQ_clean_linker_1, # of connection points: 2
#     Edge 85, Type (0, 0), BuildingBlock: KIFKEQ_clean_linker_1, # of connection points: 2
#     Edge 86, Type (0, 0), BuildingBlock: KIFKEQ_clean_linker_1, # of connection points: 2
#     Edge 87, Type (0, 0), BuildingBlock: KIFKEQ_clean_linker_1, # of connection points: 2
#     Edge 88, Type (0, 0), BuildingBlock: KIFKEQ_clean_linker_1, # of connection points: 2
#     Edge 89, Type (0, 0), BuildingBlock: KIFKEQ_clean_linker_1, # of connection points: 2
#     Edge 90, Type (0, 0), BuildingBlock: KIFKEQ_clean_linker_1, # of connection points: 2
#     Edge 91, Type (0, 0), BuildingBlock: KIFKEQ_clean_linker_1, # of connection points: 2
#     Edge 92, Type (0, 0), BuildingBlock: KIFKEQ_clean_linker_1, # of connection points: 2
#     Edge 93, Type (0, 0), BuildingBlock: KIFKEQ_clean_linker_1, # of connection points: 2
#     Edge 94, Type (0, 0), BuildingBlock: KIFKEQ_clean_linker_1, # of connection points: 2
#     Edge 95, Type (0, 0), BuildingBlock: KIFKEQ_clean_linker_1, # of connection points: 2
#     Edge 96, Type (0, 0), BuildingBlock: KIFKEQ_clean_linker_1, # of connection points: 2
#     Edge 97, Type (0, 0), BuildingBlock: KIFKEQ_clean_linker_1, # of connection points: 2
#     Edge 98, Type (0, 0), BuildingBlock: KIFKEQ_clean_linker_1, # of connection points: 2
#     Edge 99, Type (0, 0), BuildingBlock: KIFKEQ_clean_linker_1, # of connection points: 2
#     Edge 100, Type (0, 0), BuildingBlock: KIFKEQ_clean_linker_1, # of connection points: 2
#     Edge 101, Type (0, 0), BuildingBlock: KIFKEQ_clean_linker_1, # of connection points: 2
#     Edge 102, Type (0, 0), BuildingBlock: KIFKEQ_clean_linker_1, # of connection points: 2
#     Edge 103, Type (0, 0), BuildingBlock: KIFKEQ_clean_linker_1, # of connection points: 2
#     Edge 104, Type (0, 0), BuildingBlock: KIFKEQ_clean_linker_1, # of connection points: 2
#     Edge 105, Type (0, 0), BuildingBlock: KIFKEQ_clean_linker_1, # of connection points: 2
#     Edge 106, Type (0, 0), BuildingBlock: KIFKEQ_clean_linker_1, # of connection points: 2
#     Edge 107, Type (0, 0), BuildingBlock: KIFKEQ_clean_linker_1, # of connection points: 2
#     Edge 108, Type (0, 0), BuildingBlock: KIFKEQ_clean_linker_1, # of connection points: 2
#     Edge 109, Type (0, 0), BuildingBlock: KIFKEQ_clean_linker_1, # of connection points: 2
#     Edge 110, Type (0, 0), BuildingBlock: KIFKEQ_clean_linker_1, # of connection points: 2
#     Edge 111, Type (0, 0), BuildingBlock: KIFKEQ_clean_linker_1, # of connection points: 2
#     Edge 112, Type (0, 0), BuildingBlock: KIFKEQ_clean_linker_1, # of connection points: 2
#     Edge 113, Type (0, 0), BuildingBlock: KIFKEQ_clean_linker_1, # of connection points: 2
#     Edge 114, Type (0, 0), BuildingBlock: KIFKEQ_clean_linker_1, # of connection points: 2
#     Edge 115, Type (0, 0), BuildingBlock: KIFKEQ_clean_linker_1, # of connection points: 2
#     Edge 116, Type (0, 0), BuildingBlock: KIFKEQ_clean_linker_1, # of connection points: 2
#     Edge 117, Type (0, 0), BuildingBlock: KIFKEQ_clean_linker_1, # of connection points: 2
#     Edge 118, Type (0, 0), BuildingBlock: KIFKEQ_clean_linker_1, # of connection points: 2
#     Edge 119, Type (0, 0), BuildingBlock: KIFKEQ_clean_linker_1, # of connection points: 2
#     Edge 120, Type (0, 0), BuildingBlock: KIFKEQ_clean_linker_1, # of connection points: 2
#     Edge 121, Type (0, 0), BuildingBlock: KIFKEQ_clean_linker_1, # of connection points: 2
#     Edge 122, Type (0, 0), BuildingBlock: KIFKEQ_clean_linker_1, # of connection points: 2
#     Edge 123, Type (0, 0), BuildingBlock: KIFKEQ_clean_linker_1, # of connection points: 2
#     Edge 124, Type (0, 0), BuildingBlock: KIFKEQ_clean_linker_1, # of connection points: 2
#     Edge 125, Type (0, 0), BuildingBlock: KIFKEQ_clean_linker_1, # of connection points: 2
#     Edge 126, Type (0, 0), BuildingBlock: KIFKEQ_clean_linker_1, # of connection points: 2
#     Edge 127, Type (0, 0), BuildingBlock: KIFKEQ_clean_linker_1, # of connection points: 2
#     Edge 128, Type (0, 0), BuildingBlock: KIFKEQ_clean_linker_1, # of connection points: 2
#     Edge 129, Type (0, 0), BuildingBlock: KIFKEQ_clean_linker_1, # of connection points: 2
#     Edge 130, Type (0, 0), BuildingBlock: KIFKEQ_clean_linker_1, # of connection points: 2
#     Edge 131, Type (0, 0), BuildingBlock: KIFKEQ_clean_linker_1, # of connection points: 2
#     Edge 132, Type (0, 0), BuildingBlock: KIFKEQ_clean_linker_1, # of connection points: 2
#     Edge 133, Type (0, 0), BuildingBlock: KIFKEQ_clean_linker_1, # of connection points: 2
#     Edge 134, Type (0, 0), BuildingBlock: KIFKEQ_clean_linker_1, # of connection points: 2
#     Edge 135, Type (0, 0), BuildingBlock: KIFKEQ_clean_linker_1, # of connection points: 2
#     Edge 136, Type (0, 0), BuildingBlock: KIFKEQ_clean_linker_1, # of connection points: 2
#     Edge 137, Type (0, 0), BuildingBlock: KIFKEQ_clean_linker_1, # of connection points: 2
#     Edge 138, Type (0, 0), BuildingBlock: KIFKEQ_clean_linker_1, # of connection points: 2
#     Edge 139, Type (0, 0), BuildingBlock: KIFKEQ_clean_linker_1, # of connection points: 2
#     Edge 140, Type (0, 0), BuildingBlock: KIFKEQ_clean_linker_1, # of connection points: 2
#     Edge 141, Type (0, 0), BuildingBlock: KIFKEQ_clean_linker_1, # of connection points: 2
#     Edge 142, Type (0, 0), BuildingBlock: KIFKEQ_clean_linker_1, # of connection points: 2
#     Edge 143, Type (0, 0), BuildingBlock: KIFKEQ_clean_linker_1, # of connection points: 2
# Relax obj value: 0.321
# Max RMSD: 0.106
# Mean RMSD: 0.106
data_MOF--net-uli--node1-QUQFOY_clean_sbu_1--edge1-KIFKEQ_clean_linker_1
_symmetry_space_group_name_H-M    P1
_symmetry_Int_Tables_number       1
_symmetry_cell_setting            triclinic
loop_
_symmetry_equiv_pos_as_xyz
'x, y, z'
_cell_length_a     73.804741
_cell_length_b     73.804905
_cell_length_c     73.834211
_cell_angle_alpha  89.98569
_cell_angle_beta   90.005666
_cell_angle_gamma 90.003951
loop_
_atom_site_label
_atom_site_type_symbol
_atom_site_fract_x
_atom_site_fract_y
_atom_site_fract_z
_atom_type_partial_charge
O0 O 0.11712 0.23001 0.24858 0.0
Cd1 Cd 0.10553 0.24826 0.2312 0.0
Cd2 Cd 0.12889 0.26946 0.24868 0.0
O3 O 0.13057 0.2487 0.26744 0.0
O4 O 0.08518 0.23335 0.22204 0.0
O5 O 0.08103 0.25845 0.23783 0.0
C6 C 0.07426 0.24423 0.23021 0.0
C7 C 0.128 0.3001 0.25598 0.0
C8 C 0.12594 0.2327 0.26307 0.0
C9 C 0.13697 0.26019 0.20989 0.0
O10 O 0.14316 0.26535 0.2251 0.0
O11 O 0.12076 0.25448 0.20862 0.0
O12 O 0.14173 0.29013 0.26006 0.0
O13 O 0.11395 0.29238 0.24896 0.0
O14 O 0.77112 0.10821 0.24417 0.0
Cd15 Cd 0.74951 0.09926 0.22916 0.0
Cd16 Cd 0.73216 0.12236 0.24928 0.0
O17 O 0.75523 0.12221 0.26519 0.0
O18 O 0.75759 0.07572 0.21903 0.0
O19 O 0.73569 0.07821 0.23943 0.0
C20 C 0.74622 0.06801 0.22984 0.0
C21 C 0.70242 0.12137 0.25949 0.0
C22 C 0.77038 0.11672 0.25909 0.0
C23 C 0.737 0.13215 0.21039 0.0
O24 O 0.73392 0.13786 0.22631 0.0
O25 O 0.74181 0.11579 0.20786 0.0
O26 O 0.71302 0.13462 0.26362 0.0
O27 O 0.7092 0.1077 0.25092 0.0
O28 O 0.88866 0.77731 0.21651 0.0
Cd29 Cd 0.90496 0.76036 0.20169 0.0
Cd30 Cd 0.87832 0.73535 0.21212 0.0
O31 O 0.87079 0.7567 0.22879 0.0
O32 O 0.92848 0.77319 0.19999 0.0
O33 O 0.92499 0.7473 0.21478 0.0
C34 C 0.93531 0.76062 0.21 0.0
C35 C 0.86911 0.70604 0.22015 0.0
C36 C 0.87594 0.7731 0.2273 0.0
C37 C 0.88256 0.74676 0.17207 0.0
O38 O 0.87416 0.7388 0.18479 0.0
O39 O 0.89679 0.7558 0.17543 0.0
O40 O 0.85775 0.71834 0.21551 0.0
O41 O 0.88596 0.71044 0.22141 0.0
O42 O 0.22563 0.89474 0.22195 0.0
Cd43 Cd 0.24574 0.90742 0.20773 0.0
Cd44 Cd 0.26775 0.88443 0.22499 0.0
O45 O 0.24428 0.87965 0.2397 0.0
O46 O 0.23631 0.93188 0.20233 0.0
O47 O 0.25914 0.92669 0.22123 0.0
C48 C 0.24774 0.93794 0.21411 0.0
C49 C 0.29562 0.88239 0.23981 0.0
C50 C 0.22828 0.88435 0.23537 0.0
C51 C 0.26324 0.88041 0.18433 0.0
O52 O 0.26907 0.87391 0.19916 0.0
O53 O 0.25407 0.89497 0.18419 0.0
O54 O 0.28507 0.86864 0.23816 0.0
O55 O 0.29017 0.89781 0.23364 0.0
O56 O 0.10681 0.77133 0.77299 0.0
Cd57 Cd 0.08921 0.75671 0.78868 0.0
Cd58 Cd 0.11699 0.72958 0.78208 0.0
O59 O 0.12612 0.74992 0.765 0.0
O60 O 0.06683 0.77156 0.78768 0.0
O61 O 0.06829 0.74355 0.7771 0.0
C62 C 0.05909 0.75827 0.77942 0.0
C63 C 0.12962 0.70077 0.7769 0.0
C64 C 0.12067 0.76624 0.76417 0.0
C65 C 0.10936 0.74472 0.82073 0.0
O66 O 0.11782 0.73491 0.80942 0.0
O67 O 0.09625 0.7546 0.81559 0.0
O68 O 0.13902 0.71414 0.78275 0.0
O69 O 0.11285 0.70368 0.77303 0.0
O70 O 0.21752 0.10556 0.77492 0.0
Cd71 Cd 0.2306 0.08881 0.79267 0.0
Cd72 Cd 0.25931 0.1121 0.78668 0.0
O73 O 0.23998 0.12478 0.77065 0.0
O74 O 0.21603 0.06628 0.79211 0.0
O75 O 0.24457 0.06764 0.78287 0.0
C76 C 0.22982 0.05839 0.78484 0.0
C77 C 0.2893 0.11621 0.77709 0.0
C78 C 0.22377 0.1198 0.76763 0.0
C79 C 0.24425 0.10842 0.82492 0.0
O80 O 0.25635 0.11439 0.81426 0.0
O81 O 0.23204 0.09774 0.81914 0.0
O82 O 0.28001 0.12906 0.78421 0.0
O83 O 0.28156 0.10067 0.77507 0.0
O84 O 0.89233 0.23412 0.76792 0.0
Cd85 Cd 0.90872 0.24881 0.78474 0.0
Cd86 Cd 0.87899 0.27447 0.78155 0.0
O87 O 0.86954 0.25338 0.76547 0.0
O88 O 0.93178 0.23501 0.78439 0.0
O89 O 0.92934 0.26287 0.77359 0.0
C90 C 0.93914 0.24863 0.77636 0.0
C91 C 0.86547 0.30278 0.77601 0.0
C92 C 0.87683 0.23821 0.76172 0.0
C93 C 0.88942 0.25889 0.81869 0.0
O94 O 0.88049 0.2699 0.80898 0.0
O95 O 0.90145 0.24878 0.81172 0.0
O96 O 0.85674 0.28953 0.78308 0.0
O97 O 0.88206 0.30001 0.77127 0.0
O98 O 0.78245 0.89192 0.78014 0.0
Cd99 Cd 0.76856 0.90961 0.79622 0.0
Cd100 Cd 0.73928 0.88788 0.78623 0.0
O101 O 0.7591 0.87634 0.76992 0.0
O102 O 0.7841 0.9315 0.79661 0.0
O103 O 0.75658 0.93105 0.78457 0.0
C104 C 0.77151 0.93969 0.78767 0.0
C105 C 0.70949 0.88368 0.77601 0.0
C106 C 0.77604 0.87954 0.7701 0.0
C107 C 0.75172 0.88945 0.82605 0.0
O108 O 0.7412 0.88362 0.81376 0.0
O109 O 0.76404 0.90087 0.82232 0.0
O110 O 0.71906 0.87062 0.78233 0.0
O111 O 0.71688 0.89947 0.77494 0.0
O112 O 0.22536 0.1007 0.22891 0.0
Cd113 Cd 0.21608 0.09336 0.25416 0.0
Cd114 Cd 0.24187 0.11369 0.26408 0.0
O115 O 0.25251 0.10806 0.23878 0.0
O116 O 0.20437 0.06936 0.2511 0.0
O117 O 0.23062 0.07347 0.26518 0.0
C118 C 0.21866 0.06253 0.25858 0.0
C119 C 0.25525 0.1122 0.29238 0.0
C120 C 0.24182 0.10461 0.2257 0.0
C121 C 0.20508 0.12805 0.26928 0.0
O122 O 0.22121 0.13226 0.26504 0.0
O123 O 0.20007 0.11158 0.26835 0.0
O124 O 0.26059 0.1239 0.2805 0.0
O125 O 0.24398 0.09981 0.28727 0.0
O126 O 0.90425 0.21515 0.22283 0.0
Cd127 Cd 0.91345 0.20312 0.24605 0.0
Cd128 Cd 0.89219 0.22691 0.26161 0.0
O129 O 0.8932 0.23932 0.23636 0.0
O130 O 0.93757 0.19351 0.2395 0.0
O131 O 0.93344 0.21615 0.25886 0.0
C132 C 0.94437 0.20618 0.24946 0.0
C133 C 0.89174 0.2422 0.28914 0.0
C134 C 0.89746 0.23092 0.22192 0.0
C135 C 0.88157 0.18748 0.26337 0.0
O136 O 0.8766 0.20392 0.26431 0.0
O137 O 0.89724 0.18343 0.25749 0.0
O138 O 0.87903 0.24427 0.27737 0.0
O139 O 0.90582 0.2329 0.28452 0.0
O140 O 0.75816 0.89675 0.22145 0.0
Cd141 Cd 0.77136 0.90456 0.24472 0.0
Cd142 Cd 0.74898 0.8824 0.25825 0.0
O143 O 0.73371 0.88678 0.2352 0.0
O144 O 0.78212 0.92865 0.23942 0.0
O145 O 0.75935 0.92451 0.25858 0.0
C146 C 0.7699 0.93548 0.24992 0.0
C147 C 0.73987 0.88283 0.28827 0.0
C148 C 0.74195 0.891 0.22066 0.0
C149 C 0.78707 0.87013 0.25556 0.0
O150 O 0.7706 0.86517 0.25502 0.0
O151 O 0.79095 0.88688 0.25432 0.0
O152 O 0.73385 0.87073 0.27717 0.0
O153 O 0.74951 0.89594 0.28179 0.0
O154 O 0.10497 0.77226 0.2305 0.0
Cd155 Cd 0.0935 0.78673 0.25124 0.0
Cd156 Cd 0.11582 0.76725 0.27083 0.0
O157 O 0.11708 0.75122 0.2478 0.0
O158 O 0.07033 0.79603 0.24142 0.0
O159 O 0.07186 0.77552 0.26333 0.0
C160 C 0.06218 0.78494 0.25218 0.0
C161 C 0.11643 0.75544 0.30008 0.0
C162 C 0.11328 0.75729 0.23212 0.0
C163 C 0.12415 0.80686 0.26611 0.0
O164 O 0.13014 0.79119 0.26991 0.0
O165 O 0.10821 0.80878 0.2599 0.0
O166 O 0.12968 0.75308 0.289 0.0
O167 O 0.10201 0.76337 0.29416 0.0
O168 O 0.24302 0.89019 0.77081 0.0
Cd169 Cd 0.22725 0.89673 0.74868 0.0
Cd170 Cd 0.24985 0.87446 0.73432 0.0
O171 O 0.26638 0.87867 0.75634 0.0
O172 O 0.21288 0.91728 0.75823 0.0
O173 O 0.23308 0.92031 0.73631 0.0
C174 C 0.22186 0.92773 0.74752 0.0
C175 C 0.25645 0.87677 0.70385 0.0
C176 C 0.25911 0.88412 0.77095 0.0
C177 C 0.21261 0.8611 0.73845 0.0
O178 O 0.22915 0.85638 0.73843 0.0
O179 O 0.20846 0.87776 0.73993 0.0
O180 O 0.26389 0.86446 0.71382 0.0
O181 O 0.24685 0.88915 0.71171 0.0
O182 O 0.10682 0.24401 0.76342 0.0
Cd183 Cd 0.0987 0.22934 0.74121 0.0
Cd184 Cd 0.12268 0.24921 0.72533 0.0
O185 O 0.12166 0.26508 0.74836 0.0
O186 O 0.07527 0.21843 0.74851 0.0
O187 O 0.07766 0.23967 0.72741 0.0
C188 C 0.06754 0.22944 0.73737 0.0
C189 C 0.12102 0.25882 0.6955 0.0
C190 C 0.11543 0.25891 0.76319 0.0
C191 C 0.13203 0.21039 0.72994 0.0
O192 O 0.13821 0.22626 0.72754 0.0
O193 O 0.11538 0.2081 0.73374 0.0
O194 O 0.13437 0.26345 0.70579 0.0
O195 O 0.10762 0.25012 0.70268 0.0
O196 O 0.77027 0.10542 0.76442 0.0
Cd197 Cd 0.78587 0.09789 0.74272 0.0
Cd198 Cd 0.76193 0.11774 0.72658 0.0
O199 O 0.74603 0.11376 0.7493 0.0
O200 O 0.79981 0.0773 0.75281 0.0
O201 O 0.77944 0.07417 0.73102 0.0
C202 C 0.79037 0.06678 0.74254 0.0
C203 C 0.75272 0.11645 0.69661 0.0
C204 C 0.75377 0.11025 0.76428 0.0
C205 C 0.7991 0.13306 0.73059 0.0
O206 O 0.78231 0.13658 0.72922 0.0
O207 O 0.80429 0.11695 0.73383 0.0
O208 O 0.74617 0.12833 0.70763 0.0
O209 O 0.7631 0.10394 0.70313 0.0
O210 O 0.88859 0.75243 0.76314 0.0
Cd211 Cd 0.89743 0.76756 0.74142 0.0
Cd212 Cd 0.87433 0.74661 0.72605 0.0
O213 O 0.87739 0.72947 0.7479 0.0
O214 O 0.91866 0.78021 0.75193 0.0
O215 O 0.92101 0.7602 0.72978 0.0
C216 C 0.92881 0.77074 0.74137 0.0
C217 C 0.87519 0.73936 0.69557 0.0
C218 C 0.88191 0.73657 0.76291 0.0
C219 C 0.86333 0.78472 0.73116 0.0
O220 O 0.85769 0.76847 0.7306 0.0
O221 O 0.8802 0.78785 0.73272 0.0
O222 O 0.86262 0.73316 0.70601 0.0
O223 O 0.88842 0.74825 0.70285 0.0
O224 O 0.22634 0.21153 0.10909 0.0
Cd225 Cd 0.24174 0.19567 0.09243 0.0
Cd226 Cd 0.26962 0.2062 0.11641 0.0
O227 O 0.24821 0.22094 0.12718 0.0
O228 O 0.22679 0.1932 0.07029 0.0
O229 O 0.25296 0.2079 0.07084 0.0
C230 C 0.23859 0.2031 0.06205 0.0
C231 C 0.29854 0.21772 0.12283 0.0
C232 C 0.23164 0.22096 0.12244 0.0
C233 C 0.25914 0.1661 0.11316 0.0
O234 O 0.26911 0.17854 0.11958 0.0
O235 O 0.24696 0.16976 0.10158 0.0
O236 O 0.28848 0.21055 0.13505 0.0
O237 O 0.29208 0.21899 0.10664 0.0
O238 O 0.21057 0.8006 0.90173 0.0
Cd239 Cd 0.23477 0.80787 0.91311 0.0
Cd240 Cd 0.24906 0.78219 0.89151 0.0
O241 O 0.22198 0.77424 0.89365 0.0
O242 O 0.23082 0.81308 0.93905 0.0
O243 O 0.24572 0.78892 0.92896 0.0
C244 C 0.23873 0.7978 0.94237 0.0
C245 C 0.26989 0.75997 0.88269 0.0
C246 C 0.20836 0.7845 0.89618 0.0
C247 C 0.25691 0.82265 0.8847 0.0
O248 O 0.25654 0.80633 0.87923 0.0
O249 O 0.24973 0.82697 0.89969 0.0
O250 O 0.25704 0.76529 0.87223 0.0
O251 O 0.27046 0.76649 0.8989 0.0
O252 O 0.20264 0.2181 0.90074 0.0
Cd253 Cd 0.19309 0.24252 0.90982 0.0
Cd254 Cd 0.21844 0.25605 0.88937 0.0
O255 O 0.22837 0.22973 0.89107 0.0
O256 O 0.18414 0.23883 0.93483 0.0
O257 O 0.20918 0.25414 0.92811 0.0
C258 C 0.19868 0.24701 0.94019 0.0
C259 C 0.23628 0.28205 0.8891 0.0
C260 C 0.2186 0.21597 0.89468 0.0
C261 C 0.17968 0.26126 0.87781 0.0
O262 O 0.19622 0.26063 0.87315 0.0
O263 O 0.17483 0.25592 0.89343 0.0
O264 O 0.23758 0.26999 0.87656 0.0
O265 O 0.22618 0.27848 0.90293 0.0
O266 O 0.78669 0.20474 0.89573 0.0
Cd267 Cd 0.7627 0.19409 0.90512 0.0
Cd268 Cd 0.74811 0.22 0.88586 0.0
O269 O 0.77395 0.23062 0.88833 0.0
O270 O 0.7684 0.18329 0.92891 0.0
O271 O 0.75118 0.20773 0.92542 0.0
C272 C 0.75957 0.19661 0.93606 0.0
C273 C 0.72332 0.23948 0.88361 0.0
C274 C 0.78813 0.22116 0.89083 0.0
C275 C 0.74375 0.18138 0.8731 0.0
O276 O 0.7444 0.19808 0.86895 0.0
O277 O 0.74889 0.17623 0.88869 0.0
O278 O 0.73607 0.23943 0.87176 0.0
O279 O 0.72499 0.22914 0.8976 0.0
O280 O 0.78489 0.77327 0.8944 0.0
Cd281 Cd 0.7932 0.74804 0.90286 0.0
Cd282 Cd 0.76802 0.73759 0.88174 0.0
O283 O 0.75812 0.76357 0.88558 0.0
O284 O 0.80305 0.75151 0.92756 0.0
O285 O 0.77716 0.73735 0.92179 0.0
C286 C 0.78826 0.74421 0.93346 0.0
C287 C 0.75171 0.71072 0.88202 0.0
C288 C 0.7688 0.7766 0.88928 0.0
C289 C 0.80594 0.73137 0.86961 0.0
O290 O 0.78982 0.73479 0.86464 0.0
O291 O 0.81043 0.73361 0.88609 0.0
O292 O 0.74884 0.72294 0.86986 0.0
O293 O 0.76244 0.71464 0.89528 0.0
O294 O 0.77862 0.79728 0.09258 0.0
Cd295 Cd 0.75368 0.80388 0.08215 0.0
Cd296 Cd 0.74206 0.77821 0.10344 0.0
O297 O 0.76863 0.77 0.0991 0.0
O298 O 0.75694 0.80984 0.05626 0.0
O299 O 0.74325 0.78486 0.06608 0.0
C300 C 0.74981 0.7942 0.05277 0.0
C301 C 0.72063 0.75606 0.11076 0.0
C302 C 0.78176 0.78093 0.09687 0.0
C303 C 0.73434 0.81769 0.11276 0.0
O304 O 0.73683 0.80151 0.11815 0.0
O305 O 0.73832 0.82202 0.09661 0.0
O306 O 0.7341 0.7597 0.12118 0.0
O307 O 0.71969 0.76437 0.09541 0.0
O308 O 0.22535 0.77332 0.10588 0.0
Cd309 Cd 0.21172 0.75073 0.0968 0.0
Cd310 Cd 0.23429 0.73464 0.11751 0.0
O311 O 0.24916 0.75822 0.11554 0.0
O312 O 0.20032 0.75851 0.07385 0.0
O313 O 0.22288 0.73869 0.07522 0.0
C314 C 0.2122 0.74869 0.06558 0.0
C315 C 0.24609 0.70555 0.11574 0.0
C316 C 0.24147 0.7732 0.11191 0.0
C317 C 0.19598 0.736 0.12994 0.0
O318 O 0.21247 0.7353 0.13483 0.0
O319 O 0.19209 0.73989 0.11362 0.0
O320 O 0.25062 0.71646 0.1286 0.0
O321 O 0.23603 0.71172 0.10282 0.0
O322 O 0.77949 0.22423 0.11072 0.0
Cd323 Cd 0.79668 0.23817 0.09407 0.0
Cd324 Cd 0.78701 0.26674 0.11831 0.0
O325 O 0.7718 0.246 0.12968 0.0
O326 O 0.79918 0.22069 0.07388 0.0
O327 O 0.78703 0.24789 0.07046 0.0
C328 C 0.79101 0.23226 0.06368 0.0
C329 C 0.77619 0.29604 0.12404 0.0
C330 C 0.77072 0.22962 0.12445 0.0
C331 C 0.82669 0.25483 0.11504 0.0
O332 O 0.81465 0.26542 0.12121 0.0
O333 O 0.82257 0.24252 0.10374 0.0
O334 O 0.78332 0.28618 0.13646 0.0
O335 O 0.77463 0.2892 0.10805 0.0
O336 O 0.6034 0.7377 0.71062 0.0
Cd337 Cd 0.5885 0.75449 0.69431 0.0
Cd338 Cd 0.61423 0.78051 0.70607 0.0
O339 O 0.62304 0.75801 0.72048 0.0
O340 O 0.56566 0.74105 0.6899 0.0
O341 O 0.56687 0.76653 0.70574 0.0
C342 C 0.55753 0.75302 0.69967 0.0
C343 C 0.62241 0.80859 0.71848 0.0
C344 C 0.61698 0.74187 0.7203 0.0
C345 C 0.61151 0.77111 0.66577 0.0
O346 O 0.61818 0.78049 0.67852 0.0
O347 O 0.5991 0.75962 0.66894 0.0
O348 O 0.63407 0.79784 0.71137 0.0
O349 O 0.60577 0.8033 0.71922 0.0
O350 O 0.28189 0.58763 0.70656 0.0
Cd351 Cd 0.25825 0.57723 0.69648 0.0
Cd352 Cd 0.2414 0.60089 0.71981 0.0
O353 O 0.26794 0.60101 0.72931 0.0
O354 O 0.26269 0.55155 0.69041 0.0
O355 O 0.24536 0.56047 0.71336 0.0
C356 C 0.25321 0.54749 0.70456 0.0
C357 C 0.21927 0.61091 0.74025 0.0
C358 C 0.28251 0.59616 0.72146 0.0
C359 C 0.23743 0.60564 0.67857 0.0
O360 O 0.2353 0.61139 0.69463 0.0
O361 O 0.24599 0.59103 0.67558 0.0
O362 O 0.2321 0.62123 0.73467 0.0
O363 O 0.2193 0.59426 0.73495 0.0
O364 O 0.39114 0.26314 0.70726 0.0
Cd365 Cd 0.40518 0.2455 0.6911 0.0
Cd366 Cd 0.38031 0.22037 0.7042 0.0
O367 O 0.37247 0.24296 0.71901 0.0
O368 O 0.42875 0.25739 0.68648 0.0
O369 O 0.42589 0.23231 0.70281 0.0
C370 C 0.43607 0.24511 0.69652 0.0
C371 C 0.3733 0.19231 0.71725 0.0
C372 C 0.3783 0.25915 0.71797 0.0
C373 C 0.38108 0.22903 0.66369 0.0
O374 O 0.37464 0.22019 0.67694 0.0
O375 O 0.39401 0.24012 0.66608 0.0
O376 O 0.36107 0.20291 0.71095 0.0
O377 O 0.3899 0.19775 0.71685 0.0
O378 O 0.70936 0.40921 0.70306 0.0
Cd379 Cd 0.73258 0.41987 0.69231 0.0
Cd380 Cd 0.75037 0.39717 0.71559 0.0
O381 O 0.7241 0.39659 0.72573 0.0
O382 O 0.72772 0.44546 0.68615 0.0
O383 O 0.74568 0.43688 0.70875 0.0
C384 C 0.73748 0.44971 0.70006 0.0
C385 C 0.77314 0.38843 0.73591 0.0
C386 C 0.70925 0.40093 0.71811 0.0
C387 C 0.7533 0.39133 0.67447 0.0
O388 O 0.75595 0.38598 0.69059 0.0
O389 O 0.74455 0.40582 0.6714 0.0
O390 O 0.76053 0.37758 0.73087 0.0
O391 O 0.77259 0.40488 0.73004 0.0
O392 O 0.5985 0.26789 0.28824 0.0
Cd393 Cd 0.59003 0.243 0.2974 0.0
Cd394 Cd 0.60893 0.23261 0.27118 0.0
O395 O 0.60218 0.25776 0.2605 0.0
O396 O 0.56576 0.24655 0.30837 0.0
O397 O 0.57041 0.23254 0.28215 0.0
C398 C 0.55924 0.23941 0.29376 0.0
C399 C 0.60856 0.20435 0.25756 0.0
C400 C 0.60069 0.271 0.27145 0.0
C401 C 0.62435 0.22803 0.30784 0.0
O402 O 0.62797 0.23227 0.29155 0.0
O403 O 0.60801 0.22858 0.31329 0.0
O404 O 0.61963 0.21681 0.25221 0.0
O405 O 0.59612 0.20876 0.26906 0.0
O406 O 0.72356 0.59398 0.2918 0.0
Cd407 Cd 0.74855 0.58474 0.30002 0.0
Cd408 Cd 0.7605 0.60612 0.27407 0.0
O409 O 0.73416 0.60221 0.2652 0.0
O410 O 0.74477 0.55996 0.3094 0.0
O411 O 0.75897 0.56599 0.28354 0.0
C412 C 0.75204 0.55422 0.29454 0.0
C413 C 0.78335 0.61301 0.25328 0.0
C414 C 0.72079 0.59902 0.27559 0.0
C415 C 0.76701 0.61666 0.31315 0.0
O416 O 0.76471 0.62161 0.29684 0.0
O417 O 0.76318 0.60056 0.31783 0.0
O418 O 0.76947 0.62329 0.25547 0.0
O419 O 0.78374 0.59782 0.26194 0.0
O420 O 0.39413 0.72701 0.28448 0.0
Cd421 Cd 0.40789 0.74612 0.29913 0.0
Cd422 Cd 0.38644 0.76947 0.28132 0.0
O423 O 0.38223 0.74665 0.26544 0.0
O424 O 0.43149 0.73521 0.30574 0.0
O425 O 0.42866 0.75811 0.28642 0.0
C426 C 0.43885 0.74627 0.29437 0.0
C427 C 0.38414 0.79791 0.26758 0.0
C428 C 0.38512 0.73034 0.27022 0.0
C429 C 0.38067 0.76396 0.32174 0.0
O430 O 0.37472 0.76987 0.30672 0.0
O431 O 0.39526 0.75487 0.32236 0.0
O432 O 0.37065 0.78695 0.26836 0.0
O433 O 0.39951 0.79258 0.27395 0.0
O434 O 0.27784 0.40423 0.27351 0.0
Cd435 Cd 0.2542 0.41276 0.28528 0.0
Cd436 Cd 0.23928 0.39085 0.26203 0.0
O437 O 0.26455 0.39219 0.24966 0.0
O438 O 0.25897 0.43743 0.29461 0.0
O439 O 0.24092 0.43167 0.27124 0.0
C440 C 0.24913 0.44335 0.28139 0.0
C441 C 0.21139 0.39103 0.24746 0.0
C442 C 0.27889 0.39708 0.2579 0.0
C443 C 0.23747 0.38064 0.30132 0.0
O444 O 0.23682 0.37526 0.285 0.0
O445 O 0.24293 0.39653 0.30503 0.0
O446 O 0.22293 0.37819 0.24483 0.0
O447 O 0.21654 0.40495 0.25675 0.0
O448 O 0.72818 0.61638 0.72222 0.0
Cd449 Cd 0.71357 0.60671 0.74375 0.0
Cd450 Cd 0.73476 0.62798 0.76122 0.0
O451 O 0.75098 0.62664 0.73836 0.0
O452 O 0.70275 0.58395 0.73463 0.0
O453 O 0.7238 0.58473 0.75603 0.0
C454 C 0.71381 0.57538 0.7451 0.0
C455 C 0.74498 0.62639 0.79091 0.0
C456 C 0.74402 0.62302 0.72303 0.0
C457 C 0.69626 0.63967 0.75677 0.0
O458 O 0.71252 0.64473 0.75927 0.0
O459 O 0.6929 0.62335 0.75243 0.0
O460 O 0.74975 0.63944 0.78033 0.0
O461 O 0.73557 0.61325 0.78418 0.0
O462 O 0.38688 0.71658 0.72692 0.0
Cd463 Cd 0.40438 0.70166 0.7424 0.0
Cd464 Cd 0.3755 0.70855 0.76949 0.0
O465 O 0.36709 0.72459 0.74793 0.0
O466 O 0.4265 0.70023 0.72717 0.0
O467 O 0.42582 0.71452 0.7535 0.0
C468 C 0.43467 0.70995 0.73912 0.0
C469 C 0.36108 0.71518 0.79717 0.0
C470 C 0.37283 0.72527 0.73169 0.0
C471 C 0.38457 0.66965 0.75628 0.0
O472 O 0.37573 0.68087 0.76585 0.0
O473 O 0.39726 0.67497 0.74598 0.0
O474 O 0.35262 0.70824 0.7837 0.0
O475 O 0.37794 0.7192 0.79498 0.0
O476 O 0.26165 0.38061 0.7281 0.0
Cd477 Cd 0.27785 0.39042 0.7484 0.0
Cd478 Cd 0.25959 0.36644 0.76771 0.0
O479 O 0.24264 0.36545 0.7454 0.0
O480 O 0.28755 0.41308 0.73781 0.0
O481 O 0.26877 0.41272 0.76119 0.0
C482 C 0.27763 0.42187 0.74917 0.0
C483 C 0.24912 0.36599 0.79743 0.0
C484 C 0.24732 0.37128 0.72988 0.0
C485 C 0.29877 0.35855 0.76031 0.0
O486 O 0.28345 0.35235 0.76509 0.0
O487 O 0.30018 0.37475 0.75462 0.0
O488 O 0.24633 0.35264 0.78657 0.0
O489 O 0.25689 0.38035 0.79113 0.0
O490 O 0.60708 0.27492 0.72395 0.0
Cd491 Cd 0.59056 0.29052 0.73983 0.0
Cd492 Cd 0.62039 0.28401 0.76604 0.0
O493 O 0.62835 0.26845 0.74401 0.0
O494 O 0.5684 0.29276 0.72481 0.0
O495 O 0.56874 0.27847 0.75115 0.0
C496 C 0.55996 0.28337 0.73683 0.0
C497 C 0.63543 0.27656 0.79325 0.0
C498 C 0.62171 0.26695 0.72818 0.0
C499 C 0.611 0.32271 0.75328 0.0
O500 O 0.6201 0.31171 0.76288 0.0
O501 O 0.59831 0.31713 0.7431 0.0
O502 O 0.64369 0.2831 0.77945 0.0
O503 O 0.61829 0.27359 0.79167 0.0
O504 O 0.70788 0.38807 0.27759 0.0
Cd505 Cd 0.69249 0.4035 0.26035 0.0
Cd506 Cd 0.70617 0.38055 0.23463 0.0
O507 O 0.72157 0.37199 0.25645 0.0
O508 O 0.68988 0.42719 0.27257 0.0
O509 O 0.70573 0.42331 0.24733 0.0
C510 C 0.70063 0.43376 0.26044 0.0
C511 C 0.71842 0.37532 0.20586 0.0
C512 C 0.71952 0.37627 0.27301 0.0
C513 C 0.6654 0.38028 0.24302 0.0
O514 O 0.67915 0.37397 0.23489 0.0
O515 O 0.66714 0.39352 0.25387 0.0
O516 O 0.71293 0.36239 0.2161 0.0
O517 O 0.71776 0.39162 0.21213 0.0
O518 O 0.61118 0.71682 0.26726 0.0
Cd519 Cd 0.59421 0.69905 0.25445 0.0
Cd520 Cd 0.6218 0.70262 0.22613 0.0
O521 O 0.63241 0.71915 0.24627 0.0
O522 O 0.57271 0.69842 0.2706 0.0
O523 O 0.57171 0.70916 0.24264 0.0
C524 C 0.5636 0.70603 0.25783 0.0
C525 C 0.63313 0.70864 0.19696 0.0
C526 C 0.62619 0.7232 0.26183 0.0
C527 C 0.61389 0.66552 0.24311 0.0
O528 O 0.62139 0.67519 0.23104 0.0
O529 O 0.60266 0.6724 0.25416 0.0
O530 O 0.64291 0.70158 0.20945 0.0
O531 O 0.61667 0.71291 0.20093 0.0
O532 O 0.26776 0.61255 0.27313 0.0
Cd533 Cd 0.28039 0.60252 0.25047 0.0
Cd534 Cd 0.25893 0.62417 0.23485 0.0
O535 O 0.24384 0.62234 0.25839 0.0
O536 O 0.29007 0.57859 0.2577 0.0
O537 O 0.26759 0.58213 0.23805 0.0
C538 C 0.27763 0.57148 0.24767 0.0
C539 C 0.24751 0.62225 0.20562 0.0
C540 C 0.25178 0.61894 0.27329 0.0
C541 C 0.2978 0.63489 0.23671 0.0
O542 O 0.28154 0.64055 0.23611 0.0
O543 O 0.30089 0.61825 0.23989 0.0
O544 O 0.24326 0.63549 0.21619 0.0
O545 O 0.25715 0.60918 0.21216 0.0
O546 O 0.39367 0.29041 0.27458 0.0
Cd547 Cd 0.4106 0.30364 0.25715 0.0
Cd548 Cd 0.38791 0.28922 0.23111 0.0
O549 O 0.37941 0.27459 0.25363 0.0
O550 O 0.43408 0.30549 0.26992 0.0
O551 O 0.42982 0.2885 0.24548 0.0
C552 C 0.44025 0.29368 0.25859 0.0
C553 C 0.38096 0.27619 0.20302 0.0
C554 C 0.3825 0.2781 0.27021 0.0
C555 C 0.38918 0.33052 0.23782 0.0
O556 O 0.38244 0.31662 0.23027 0.0
O557 O 0.40211 0.3289 0.24904 0.0
O558 O 0.36872 0.28263 0.21354 0.0
O559 O 0.3975 0.27635 0.20862 0.0
O560 O 0.72173 0.72947 0.5936 0.0
Cd561 Cd 0.74558 0.71763 0.58541 0.0
Cd562 Cd 0.75918 0.74083 0.60714 0.0
O563 O 0.73488 0.75437 0.60342 0.0
O564 O 0.7411 0.70796 0.56078 0.0
O565 O 0.75871 0.73168 0.56645 0.0
C566 C 0.75069 0.72134 0.55481 0.0
C567 C 0.78829 0.75269 0.6069 0.0
C568 C 0.72057 0.74569 0.59924 0.0
C569 C 0.75978 0.70238 0.61887 0.0
O570 O 0.7586 0.71875 0.62404 0.0
O571 O 0.75718 0.69846 0.6023 0.0
O572 O 0.77672 0.75738 0.61913 0.0
O573 O 0.78265 0.7429 0.59354 0.0
O574 O 0.73126 0.25577 0.39069 0.0
Cd575 Cd 0.75175 0.2715 0.40081 0.0
Cd576 Cd 0.77045 0.25372 0.37643 0.0
O577 O 0.74849 0.23619 0.3763 0.0
O578 O 0.74198 0.2803 0.42419 0.0
O579 O 0.76534 0.26155 0.42221 0.0
C580 C 0.75374 0.27013 0.43214 0.0
C581 C 0.80053 0.24432 0.37507 0.0
C582 C 0.73293 0.24118 0.38175 0.0
C583 C 0.76262 0.29297 0.36926 0.0
O584 O 0.76684 0.27768 0.3626 0.0
O585 O 0.75782 0.2942 0.38574 0.0
O586 O 0.78936 0.24111 0.36206 0.0
O587 O 0.79434 0.25176 0.38964 0.0
O588 O 0.74026 0.72681 0.38728 0.0
Cd589 Cd 0.72597 0.74948 0.39446 0.0
Cd590 Cd 0.74838 0.76408 0.37273 0.0
O591 O 0.76422 0.7413 0.37715 0.0
O592 O 0.71448 0.743 0.41783 0.0
O593 O 0.73638 0.76341 0.41523 0.0
C594 C 0.72595 0.75377 0.42547 0.0
C595 C 0.75669 0.79428 0.37433 0.0
C596 C 0.75653 0.72655 0.38171 0.0
C597 C 0.7105 0.76002 0.35976 0.0
O598 O 0.72704 0.76087 0.35508 0.0
O599 O 0.70638 0.75776 0.37634 0.0
O600 O 0.76324 0.78375 0.36201 0.0
O601 O 0.74695 0.78713 0.38701 0.0
O602 O 0.27179 0.7275 0.40064 0.0
Cd603 Cd 0.24886 0.71473 0.41 0.0
Cd604 Cd 0.23282 0.73692 0.38833 0.0
O605 O 0.25707 0.75091 0.38947 0.0
O606 O 0.25474 0.70565 0.43453 0.0
O607 O 0.2355 0.72818 0.42928 0.0
C608 C 0.24445 0.71838 0.44072 0.0
C609 C 0.20429 0.75031 0.38833 0.0
C610 C 0.27191 0.74321 0.39363 0.0
C611 C 0.23345 0.69778 0.37782 0.0
O612 O 0.23253 0.71409 0.37241 0.0
O613 O 0.23803 0.6944 0.39407 0.0
O614 O 0.21576 0.75332 0.37553 0.0
O615 O 0.20958 0.74094 0.40213 0.0
O616 O 0.25761 0.27357 0.38416 0.0
Cd617 Cd 0.27246 0.25236 0.39441 0.0
Cd618 Cd 0.25338 0.23479 0.37159 0.0
O619 O 0.23629 0.2569 0.37165 0.0
O620 O 0.28173 0.26151 0.41785 0.0
O621 O 0.26138 0.23952 0.41558 0.0
C622 C 0.27052 0.25057 0.42563 0.0
C623 C 0.24528 0.20454 0.3738 0.0
C624 C 0.24242 0.27234 0.37619 0.0
C625 C 0.2921 0.24032 0.36229 0.0
O626 O 0.27622 0.23797 0.3561 0.0
O627 O 0.29431 0.24398 0.37898 0.0
O628 O 0.24029 0.21431 0.3602 0.0
O629 O 0.25351 0.2124 0.3871 0.0
O630 O 0.27191 0.27405 0.59231 0.0
Cd631 Cd 0.24888 0.28747 0.58458 0.0
Cd632 Cd 0.23293 0.26369 0.60499 0.0
O633 O 0.25737 0.24999 0.60236 0.0
O634 O 0.25359 0.29742 0.56011 0.0
O635 O 0.23475 0.27459 0.56554 0.0
C636 C 0.24322 0.28469 0.55401 0.0
C637 C 0.20413 0.25104 0.60414 0.0
C638 C 0.27213 0.25787 0.59815 0.0
C639 C 0.23353 0.30217 0.61794 0.0
O640 O 0.23225 0.28556 0.62223 0.0
O641 O 0.23867 0.30669 0.60214 0.0
O642 O 0.21558 0.24669 0.61659 0.0
O643 O 0.20975 0.26099 0.5909 0.0
O644 O 0.73588 0.27687 0.60131 0.0
Cd645 Cd 0.72282 0.25356 0.59371 0.0
Cd646 Cd 0.74483 0.2389 0.61683 0.0
O647 O 0.7585 0.26341 0.6154 0.0
O648 O 0.71281 0.25848 0.56927 0.0
O649 O 0.73528 0.2392 0.57442 0.0
C650 C 0.72514 0.24777 0.563 0.0
C651 C 0.7574 0.21007 0.61542 0.0
C652 C 0.75104 0.27775 0.60939 0.0
C653 C 0.70571 0.24031 0.62716 0.0
O654 O 0.72194 0.23878 0.63264 0.0
O655 O 0.70247 0.24462 0.61079 0.0
O656 O 0.76103 0.22091 0.62864 0.0
O657 O 0.74801 0.21627 0.60202 0.0
O658 O 0.25301 0.72046 0.60892 0.0
Cd659 Cd 0.26634 0.74398 0.60214 0.0
Cd660 Cd 0.24371 0.75685 0.62486 0.0
O661 O 0.22896 0.73342 0.62089 0.0
O662 O 0.27829 0.73833 0.57873 0.0
O663 O 0.25545 0.75764 0.58141 0.0
C664 C 0.26643 0.7487 0.57113 0.0
C665 C 0.23474 0.78681 0.62246 0.0
C666 C 0.23709 0.71927 0.61536 0.0
C667 C 0.2818 0.75466 0.63704 0.0
O668 O 0.26536 0.75421 0.64209 0.0
O669 O 0.28565 0.7533 0.6203 0.0
O670 O 0.22856 0.77653 0.63521 0.0
O671 O 0.24449 0.77946 0.60992 0.0
H672 H 0.96837 0.19361 0.22464 0.0
H673 H 0.96425 0.22915 0.27093 0.0
H674 H -0.00087 0.20361 0.21952 0.0
H675 H 0.9957 0.23854 0.26644 0.0
H676 H 0.04605 0.26546 0.24211 0.0
H677 H 0.01474 0.25598 0.24742 0.0
H678 H 0.02846 0.20174 0.22997 0.0
H679 H 0.0591 0.21145 0.22374 0.0
C680 C 0.97421 0.20325 0.23404 0.0
C681 C 0.96388 0.21052 0.24825 0.0
C682 C 0.99195 0.209 0.23112 0.0
C683 C 3e-05 0.22192 0.24256 0.0
C684 C 0.98985 0.22882 0.25714 0.0
C685 C 0.97191 0.22327 0.25988 0.0
C686 C 0.04222 0.2516 0.23918 0.0
C687 C 0.05498 0.23928 0.23231 0.0
C688 C 0.02434 0.24608 0.24243 0.0
C689 C 0.01897 0.22805 0.23914 0.0
C690 C 0.03186 0.21581 0.23229 0.0
C691 C 0.04953 0.22139 0.22875 0.0
H692 H 0.73988 0.95358 0.26189 0.0
H693 H 0.79262 0.96199 0.23799 0.0
H694 H 0.7326 0.98548 0.25709 0.0
H695 H 0.78567 0.99393 0.23379 0.0
H696 H 0.76162 0.04296 0.20766 0.0
H697 H 0.76691 0.01109 0.21401 0.0
H698 H 0.7386 0.01648 0.26498 0.0
H699 H 0.73275 0.04836 0.25825 0.0
C700 C 0.75008 0.96234 0.25602 0.0
C701 C 0.76677 0.95526 0.25018 0.0
C702 C 0.7459 0.98063 0.25324 0.0
C703 C 0.7584 0.99221 0.2447 0.0
C704 C 0.7755 0.98529 0.23989 0.0
C705 C 0.77959 0.96701 0.2425 0.0
C706 C 0.75628 0.03728 0.2201 0.0
C707 C 0.74683 0.04818 0.23249 0.0
C708 C 0.7595 0.01904 0.22386 0.0
C709 C 0.75356 0.01128 0.24022 0.0
C710 C 0.74336 0.02199 0.25225 0.0
C711 C 0.73997 0.04025 0.24838 0.0
H712 H 0.04319 0.75402 0.25944 0.0
H713 H 0.03709 0.80873 0.2397 0.0
H714 H 0.01227 0.74709 0.24986 0.0
H715 H 0.006 0.80222 0.23099 0.0
H716 H 0.9624 0.78043 0.1951 0.0
H717 H 0.9924 0.78602 0.20732 0.0
H718 H 0.9804 0.75117 0.25287 0.0
H719 H 0.95048 0.74494 0.24003 0.0
C720 C 0.03503 0.76471 0.25356 0.0
C721 C 0.04255 0.78186 0.25013 0.0
C722 C 0.01731 0.76075 0.24804 0.0
C723 C 0.00674 0.77396 0.23924 0.0
C724 C 0.01392 0.7915 0.23714 0.0
C725 C 0.03168 0.79534 0.24233 0.0
C726 C 0.96623 0.77382 0.20763 0.0
C727 C 0.9541 0.76231 0.21664 0.0
C728 C 0.98338 0.77719 0.21479 0.0
C729 C 0.98873 0.7694 0.23134 0.0
C730 C 0.97677 0.75738 0.24008 0.0
C731 C 0.95963 0.75379 0.23274 0.0
H732 H 0.26303 0.9528 0.24447 0.0
H733 H 0.2283 0.96538 0.19905 0.0
H734 H 0.25579 0.98214 0.25805 0.0
H735 H 0.22143 0.9947 0.21235 0.0
H736 H 0.19562 0.03583 0.24757 0.0
H737 H 0.20385 0.00541 0.23787 0.0
H738 H 0.25912 0.01489 0.25467 0.0
H739 H 0.25077 0.0452 0.26484 0.0
C740 C 0.25417 0.96198 0.2372 0.0
C741 C 0.24614 0.95675 0.22075 0.0
C742 C 0.24997 0.97874 0.24502 0.0
C743 C 0.23771 0.99056 0.23648 0.0
C744 C 0.23049 0.98567 0.21955 0.0
C745 C 0.23461 0.96895 0.21181 0.0
C746 C 0.20943 0.03128 0.2496 0.0
C747 C 0.22258 0.04298 0.2568 0.0
C748 C 0.2142 0.01393 0.24384 0.0
C749 C 0.23225 0.00793 0.24504 0.0
C750 C 0.24511 0.01912 0.25351 0.0
C751 C 0.24031 0.03648 0.25938 0.0
H752 H 0.9481 0.79079 0.76545 0.0
H753 H 0.95438 0.7502 0.72375 0.0
H754 H 0.97978 0.78777 0.77333 0.0
H755 H 0.98657 0.74761 0.73126 0.0
H756 H 0.03628 0.73186 0.76653 0.0
H757 H 0.00537 0.73576 0.75525 0.0
H758 H 0.00967 0.79354 0.76389 0.0
H759 H 0.04004 0.78953 0.77578 0.0
C760 C 0.95635 0.78147 0.75768 0.0
C761 C 0.94869 0.7707 0.74399 0.0
C762 C 0.97461 0.77979 0.76216 0.0
C763 C 0.98578 0.7674 0.75297 0.0
C764 C 0.97829 0.75708 0.73879 0.0
C765 C 0.9599 0.75871 0.73435 0.0
C766 C 0.03056 0.74536 0.76603 0.0
C767 C 0.04049 0.76034 0.77229 0.0
C768 C 0.01291 0.74763 0.75941 0.0
C769 C 0.00496 0.76497 0.75874 0.0
C770 C 0.01517 0.77995 0.76456 0.0
C771 C 0.03264 0.77765 0.77135 0.0
H772 H 0.19902 0.0386 0.78101 0.0
H773 H 0.25695 0.03588 0.77308 0.0
H774 H 0.19586 0.00809 0.76919 0.0
H775 H 0.25389 0.00488 0.76187 0.0
H776 H 0.24159 0.95394 0.72998 0.0
H777 H 0.24294 0.98619 0.73743 0.0
H778 H 0.20198 0.97819 0.77852 0.0
H779 H 0.20019 0.9464 0.77067 0.0
C780 C 0.21113 0.03139 0.77691 0.0
C781 C 0.22827 0.03959 0.77815 0.0
C782 C 0.20931 0.01386 0.77014 0.0
C783 C 0.22461 0.00395 0.76464 0.0
C784 C 0.24178 0.0122 0.76574 0.0
C785 C 0.24357 0.02989 0.77235 0.0
C786 C 0.23261 0.9592 0.74032 0.0
C787 C 0.22082 0.94761 0.74975 0.0
C788 C 0.23353 0.97762 0.74474 0.0
C789 C 0.22269 0.98478 0.7587 0.0
C790 C 0.21038 0.97326 0.76755 0.0
C791 C 0.2094 0.95495 0.76308 0.0
H792 H 0.04236 0.20389 0.74539 0.0
H793 H 0.04826 0.26038 0.73153 0.0
H794 H 0.01063 0.20893 0.75276 0.0
H795 H 0.01676 0.2658 0.73995 0.0
H796 H 0.95509 0.2673 0.74853 0.0
H797 H 0.98523 0.26216 0.73571 0.0
H798 H 0.99573 0.22212 0.77721 0.0
H799 H 0.96551 0.22662 0.78923 0.0
C800 C 0.03675 0.21735 0.74371 0.0
C801 C 0.04773 0.23175 0.73799 0.0
C802 C 0.01863 0.22033 0.74817 0.0
C803 C 0.01121 0.2379 0.7475 0.0
C804 C 0.02194 0.25209 0.74062 0.0
C805 C 0.04001 0.249 0.73576 0.0
C806 C 0.96397 0.2575 0.75491 0.0
C807 C 0.95797 0.24729 0.7698 0.0
C808 C 0.98123 0.25453 0.74758 0.0
C809 C 0.99287 0.24146 0.75518 0.0
C810 C 0.98699 0.23183 0.77054 0.0
C811 C 0.96971 0.23457 0.77763 0.0
H812 H 0.81007 0.04831 0.76759 0.0
H813 H 0.76994 0.04067 0.72567 0.0
H814 H 0.80573 0.01739 0.77755 0.0
H815 H 0.7661 0.00919 0.7352 0.0
H816 H 0.74681 0.96315 0.77282 0.0
H817 H 0.75273 0.99302 0.75984 0.0
H818 H 0.8098 0.9866 0.77146 0.0
H819 H 0.80373 0.95731 0.7851 0.0
C820 C 0.80064 0.03987 0.76017 0.0
C821 C 0.79028 0.04701 0.74589 0.0
C822 C 0.79818 0.02203 0.76587 0.0
C823 C 0.78543 0.01076 0.75731 0.0
C824 C 0.77576 0.0176 0.74235 0.0
C825 C 0.77813 0.03557 0.73673 0.0
C826 C 0.76058 0.96823 0.77268 0.0
C827 C 0.77475 0.95799 0.78019 0.0
C828 C 0.76403 0.98525 0.76505 0.0
C829 C 0.78177 0.99228 0.76458 0.0
C830 C 0.79593 0.98183 0.77188 0.0
C831 C 0.79245 0.96499 0.7797 0.0
H832 H 0.21361 0.19025 0.03831 0.0
H833 H 0.25441 0.23175 0.04448 0.0
H834 H 0.20428 0.20355 0.00973 0.0
H835 H 0.24464 0.24554 0.01597 0.0
H836 H 0.23275 0.2514 0.9539 0.0
H837 H 0.24345 0.24164 0.98359 0.0
H838 H 0.18834 0.2296 -0.00067 0.0
H839 H 0.17779 0.23869 0.96944 0.0
C840 C 0.22064 0.20221 0.03351 0.0
C841 C 0.23471 0.20998 0.04366 0.0
C842 C 0.21513 0.20999 0.01721 0.0
C843 C 0.22341 0.22588 0.01073 0.0
C844 C 0.23797 0.23331 0.02056 0.0
C845 C 0.2436 0.22539 0.03687 0.0
C846 C 0.22289 0.24708 0.96386 0.0
C847 C 0.20445 0.24559 0.95928 0.0
C848 C 0.22903 0.24144 0.98089 0.0
C849 C 0.21681 0.23439 0.99369 0.0
C850 C 0.19819 0.2344 0.98957 0.0
C851 C 0.1921 0.23981 0.97252 0.0
H852 H 0.22611 0.81368 0.97312 0.0
H853 H 0.24866 0.76356 0.9529 0.0
H854 H 0.21965 0.79915 0.00194 0.0
H855 H 0.24194 0.74891 0.98188 0.0
H856 H 0.18977 0.7653 0.04154 0.0
H857 H 0.19751 0.77587 0.01132 0.0
H858 H 0.24947 0.74923 0.01512 0.0
H859 H 0.24161 0.73836 0.04543 0.0
C860 C 0.22988 0.79961 0.97489 0.0
C861 C 0.23777 0.78975 0.96067 0.0
C862 C 0.226 0.79122 0.99135 0.0
C863 C 0.22989 0.77277 0.994 0.0
C864 C 0.23872 0.76312 0.98018 0.0
C865 C 0.2426 0.77154 0.96362 0.0
C866 C 0.20269 0.76134 0.03581 0.0
C867 C 0.21517 0.75118 0.04595 0.0
C868 C 0.20719 0.76755 0.01856 0.0
C869 C 0.22429 0.76379 0.01108 0.0
C870 C 0.23623 0.75241 0.0206 0.0
C871 C 0.23169 0.74614 0.03792 0.0
H872 H 0.78087 0.17899 0.96034 0.0
H873 H 0.74226 0.22279 0.956 0.0
H874 H 0.78757 0.1878 0.99115 0.0
H875 H 0.74834 0.23117 0.98743 0.0
H876 H 0.78087 0.25435 0.03553 0.0
H877 H 0.77133 0.24503 0.00521 0.0
H878 H 0.77733 0.18885 0.02081 0.0
H879 H 0.78774 0.1982 0.05048 0.0
C880 C 0.77344 0.19025 0.96614 0.0
C881 C 0.76106 0.20021 0.95569 0.0
C882 C 0.77725 0.19529 0.98391 0.0
C883 C 0.76856 0.21027 0.99186 0.0
C884 C 0.75555 0.21978 0.98165 0.0
C885 C 0.75189 0.21484 0.96371 0.0
C886 C 0.78024 0.24004 0.03235 0.0
C887 C 0.78533 0.22702 0.04525 0.0
C888 C 0.77458 0.23466 0.01506 0.0
C889 C 0.77362 0.21615 0.01047 0.0
C890 C 0.77831 0.20321 0.02363 0.0
C891 C 0.78426 0.20858 0.04071 0.0
H892 H 0.80815 0.75917 0.96069 0.0
H893 H 0.75584 0.73538 0.94933 0.0
H894 H 0.79684 0.77016 0.98962 0.0
H895 H 0.74455 0.74647 0.97846 0.0
H896 H 0.76449 0.80993 0.02283 0.0
H897 H 0.77345 0.79499 0.99489 0.0
H898 H 0.74905 0.74516 0.01338 0.0
H899 H 0.74002 0.76012 0.04159 0.0
C900 C 0.79437 0.75591 0.96452 0.0
C901 C 0.78283 0.74661 0.95259 0.0
C902 C 0.78785 0.76236 0.98103 0.0
C903 C 0.7697 0.75955 0.98602 0.0
C904 C 0.75857 0.74892 0.97485 0.0
C905 C 0.76507 0.74253 0.95822 0.0
C906 C 0.76072 0.79588 0.02088 0.0
C907 C 0.75168 0.78618 0.03452 0.0
C908 C 0.76602 0.78728 0.00493 0.0
C909 C 0.76232 0.76882 0.0022 0.0
C910 C 0.75218 0.75938 0.01524 0.0
C911 C 0.74696 0.76797 0.03132 0.0
H912 H 0.54104 0.76283 0.73127 0.0
H913 H 0.5314 0.73618 0.68018 0.0
H914 H 0.51146 0.7527 0.74217 0.0
H915 H 0.5015 0.727 0.69045 0.0
H916 H 0.46039 0.69343 0.71889 0.0
H917 H 0.48968 0.70534 0.70987 0.0
H918 H 0.47957 0.75389 0.74111 0.0
H919 H 0.45055 0.74128 0.75097 0.0
C920 C 0.53233 0.75526 0.7222 0.0
C921 C 0.5385 0.75014 0.70495 0.0
C922 C 0.51538 0.74943 0.72843 0.0
C923 C 0.50417 0.73863 0.71737 0.0
C924 C 0.50997 0.73468 0.69964 0.0
C925 C 0.52701 0.74015 0.69361 0.0
C926 C 0.46455 0.70654 0.72401 0.0
C927 C 0.45322 0.71646 0.73558 0.0
C928 C 0.48126 0.71352 0.71865 0.0
C929 C 0.48688 0.73084 0.72435 0.0
C930 C 0.47576 0.74051 0.73647 0.0
C931 C 0.45913 0.7333 0.74215 0.0
H932 H 0.29916 0.44522 0.73065 0.0
H933 H 0.24944 0.44269 0.76141 0.0
H934 H 0.29166 0.47577 0.72092 0.0
H935 H 0.24166 0.4733 0.75125 0.0
H936 H 0.24344 0.53569 0.73837 0.0
H937 H 0.24946 0.50584 0.7515 0.0
H938 H 0.26941 0.48727 0.69972 0.0
H939 H 0.26384 0.51704 0.68679 0.0
C940 C 0.28673 0.45131 0.73554 0.0
C941 C 0.27482 0.44151 0.74666 0.0
C942 C 0.28233 0.46874 0.7298 0.0
C943 C 0.26582 0.47675 0.73489 0.0
C944 C 0.25444 0.46746 0.74703 0.0
C945 C 0.25894 0.44997 0.75291 0.0
C946 C 0.2488 0.5251 0.72974 0.0
C947 C 0.25334 0.52875 0.71159 0.0
C948 C 0.25229 0.50803 0.73727 0.0
C949 C 0.26033 0.49434 0.72677 0.0
C950 C 0.26373 0.4977 0.70833 0.0
C951 C 0.26035 0.51471 0.70086 0.0
H952 H 0.46327 0.26028 0.67713 0.0
H953 H 0.45167 0.2347 0.72839 0.0
H954 H 0.49338 0.26825 0.68779 0.0
H955 H 0.48154 0.24357 0.73961 0.0
H956 H 0.53482 0.30085 0.71673 0.0
H957 H 0.50524 0.28988 0.7075 0.0
H958 H 0.51359 0.241 0.73876 0.0
H959 H 0.54299 0.25264 0.74878 0.0
C960 C 0.46727 0.25625 0.69067 0.0
C961 C 0.45517 0.24697 0.70197 0.0
C962 C 0.48444 0.26102 0.6969 0.0
C963 C 0.48976 0.25704 0.71478 0.0
C964 C 0.47796 0.24686 0.72577 0.0
C965 C 0.46085 0.24174 0.71936 0.0
C966 C 0.53022 0.28788 0.72182 0.0
C967 C 0.54118 0.27756 0.73339 0.0
C968 C 0.51335 0.28144 0.71635 0.0
C969 C 0.50717 0.26429 0.72197 0.0
C970 C 0.51787 0.25426 0.73417 0.0
C971 C 0.5347 0.26091 0.73994 0.0
H972 H 0.74868 0.46189 0.73329 0.0
H973 H 0.72526 0.47986 0.68274 0.0
H974 H 0.74284 0.4917 0.74653 0.0
H975 H 0.71983 0.5096 0.69578 0.0
H976 H 0.74281 0.55487 0.75587 0.0
H977 H 0.75027 0.52427 0.74554 0.0
H978 H 0.69866 0.5211 0.71811 0.0
H979 H 0.69143 0.55167 0.72801 0.0
C980 C 0.74267 0.47231 0.72489 0.0
C981 C 0.73727 0.46849 0.70702 0.0
C982 C 0.73929 0.48937 0.73249 0.0
C983 C 0.73047 0.50286 0.72234 0.0
C984 C 0.72614 0.49932 0.70414 0.0
C985 C 0.72944 0.48232 0.69659 0.0
C986 C 0.73291 0.54745 0.74798 0.0
C987 C 0.71661 0.55572 0.74258 0.0
C988 C 0.73721 0.52995 0.74201 0.0
C989 C 0.72526 0.52046 0.73061 0.0
C990 C 0.70841 0.52828 0.7264 0.0
C991 C 0.70417 0.54573 0.73225 0.0
H992 H 0.46654 0.30479 0.28187 0.0
H993 H 0.45389 0.2628 0.24312 0.0
H994 H 0.49399 0.28877 0.29036 0.0
H995 H 0.48128 0.24641 0.252 0.0
H996 H 0.53181 0.25033 0.31599 0.0
H997 H 0.50235 0.26191 0.30672 0.0
H998 H 0.51407 0.24742 0.25124 0.0
H999 H 0.5433 0.23529 0.26063 0.0
C1000 C 0.46968 0.29216 0.27509 0.0
C1001 C 0.45803 0.28505 0.26184 0.0
C1002 C 0.48531 0.28283 0.28013 0.0
C1003 C 0.48964 0.26608 0.27216 0.0
C1004 C 0.47834 0.25927 0.25841 0.0
C1005 C 0.46268 0.26869 0.25328 0.0
C1006 C 0.52791 0.24918 0.3019 0.0
C1007 C 0.53996 0.24208 0.28903 0.0
C1008 C 0.51111 0.25602 0.29653 0.0
C1009 C 0.50608 0.25607 0.27815 0.0
C1010 C 0.51753 0.24764 0.26549 0.0
C1011 C 0.53429 0.24064 0.2709 0.0
H1012 H 0.72983 0.44883 0.24305 0.0
H1013 H 0.6892 0.45988 0.2837 0.0
H1014 H 0.74535 0.47706 0.25097 0.0
H1015 H 0.70439 0.48805 0.2913 0.0
H1016 H 0.75448 0.53976 0.26052 0.0
H1017 H 0.74278 0.51036 0.25081 0.0
H1018 H 0.73227 0.49621 0.30661 0.0
H1019 H 0.74349 0.52567 0.31624 0.0
C1020 C 0.72402 0.45745 0.25341 0.0
C1021 C 0.70836 0.45208 0.26285 0.0
C1022 C 0.73295 0.47357 0.25798 0.0
C1023 C 0.72635 0.48457 0.27206 0.0
C1024 C 0.71016 0.4796 0.28078 0.0
C1025 C 0.70132 0.46354 0.27627 0.0
C1026 C 0.75012 0.53017 0.27074 0.0
C1027 C 0.74968 0.5351 0.28913 0.0
C1028 C 0.74336 0.51334 0.26516 0.0
C1029 C 0.73614 0.50116 0.2779 0.0
C1030 C 0.73721 0.50553 0.29641 0.0
C1031 C 0.74383 0.52234 0.30195 0.0
H1032 H 0.54563 0.73473 0.24279 0.0
H1033 H 0.53947 0.69079 0.28085 0.0
H1034 H 0.51616 0.74678 0.25191 0.0
H1035 H 0.50971 0.702 0.2892 0.0
H1036 H 0.46608 0.73339 0.31545 0.0
H1037 H 0.49644 0.72487 0.30593 0.0
H1038 H 0.48461 0.74368 0.25169 0.0
H1039 H 0.45459 0.75325 0.2617 0.0
C1040 C 0.53775 0.72744 0.2528 0.0
C1041 C 0.54482 0.71191 0.2612 0.0
C1042 C 0.52086 0.73432 0.25805 0.0
C1043 C 0.5106 0.7256 0.27158 0.0
C1044 C 0.51742 0.70951 0.27923 0.0
C1045 C 0.5344 0.7029 0.27428 0.0
C1046 C 0.47015 0.73602 0.3016 0.0
C1047 C 0.45802 0.74393 0.2893 0.0
C1048 C 0.48747 0.73091 0.29603 0.0
C1049 C 0.49291 0.7331 0.27787 0.0
C1050 C 0.481 0.74182 0.26578 0.0
C1051 C 0.46378 0.74733 0.2715 0.0
H1052 H 0.24734 0.55351 0.23601 0.0
H1053 H 0.29855 0.54545 0.26322 0.0
H1054 H 0.23828 0.52266 0.24401 0.0
H1055 H 0.28969 0.51465 0.27083 0.0
H1056 H 0.23789 0.45925 0.24984 0.0
H1057 H 0.2445 0.4901 0.23978 0.0
H1058 H 0.26789 0.50203 0.29208 0.0
H1059 H 0.26169 0.47122 0.30196 0.0
C1060 C 0.25683 0.54502 0.24331 0.0
C1061 C 0.27359 0.55194 0.24915 0.0
C1062 C 0.25161 0.52738 0.24793 0.0
C1063 C 0.26309 0.51639 0.25843 0.0
C1064 C 0.28031 0.52298 0.26321 0.0
C1065 C 0.28548 0.54056 0.25867 0.0
C1066 C 0.2441 0.4686 0.2593 0.0
C1067 C 0.24945 0.46277 0.27663 0.0
C1068 C 0.24793 0.48624 0.25351 0.0
C1069 C 0.25712 0.49834 0.26498 0.0
C1070 C 0.26129 0.49285 0.28273 0.0
C1071 C 0.25755 0.47525 0.28847 0.0
H1072 H 0.73799 0.70079 0.52692 0.0
H1073 H 0.76194 0.75286 0.5389 0.0
H1074 H 0.73221 0.71057 0.496 0.0
H1075 H 0.75569 0.76285 0.508 0.0
H1076 H 0.75491 0.76638 0.44482 0.0
H1077 H 0.76262 0.75878 0.47606 0.0
H1078 H 0.71124 0.73133 0.48195 0.0
H1079 H 0.70379 0.73847 0.45066 0.0
C1080 C 0.74222 0.71426 0.52289 0.0
C1081 C 0.75032 0.72608 0.53538 0.0
C1082 C 0.7387 0.71996 0.50522 0.0
C1083 C 0.74307 0.73765 0.49966 0.0
C1084 C 0.75212 0.74914 0.51186 0.0
C1085 C 0.75574 0.7434 0.52955 0.0
C1086 C 0.74511 0.75906 0.45292 0.0
C1087 C 0.72881 0.75287 0.44524 0.0
C1088 C 0.74956 0.75466 0.47081 0.0
C1089 C 0.73774 0.74406 0.48135 0.0
C1090 C 0.7209 0.73902 0.47401 0.0
C1091 C 0.71652 0.74331 0.45615 0.0
H1092 H 0.73669 0.29128 0.45692 0.0
H1093 H 0.76731 0.24169 0.45172 0.0
H1094 H 0.73016 0.28404 0.48834 0.0
H1095 H 0.76023 0.23404 0.48316 0.0
H1096 H 0.70303 0.25868 0.5356 0.0
H1097 H 0.71118 0.26321 0.50401 0.0
H1098 H 0.76455 0.24155 0.51462 0.0
H1099 H 0.75609 0.23639 0.54617 0.0
C1100 C 0.74214 0.27887 0.46256 0.0
C1101 C 0.75244 0.26702 0.45185 0.0
C1102 C 0.73821 0.27459 0.48052 0.0
C1103 C 0.74427 0.25822 0.48817 0.0
C1104 C 0.75534 0.24675 0.4777 0.0
C1105 C 0.75944 0.25115 0.45971 0.0
C1106 C 0.71638 0.25457 0.53111 0.0
C1107 C 0.72895 0.2473 0.54338 0.0
C1108 C 0.72115 0.25736 0.51305 0.0
C1109 C 0.7387 0.25319 0.50687 0.0
C1110 C 0.75093 0.24492 0.51891 0.0
C1111 C 0.74607 0.24193 0.53699 0.0
H1112 H 0.23204 0.74922 0.45713 0.0
H1113 H 0.2581 0.69798 0.46823 0.0
H1114 H 0.23767 0.7588 0.4883 0.0
H1115 H 0.26326 0.70731 0.49938 0.0
H1116 H 0.23728 0.76059 0.5516 0.0
H1117 H 0.23046 0.75362 0.52001 0.0
H1118 H 0.28304 0.72849 0.51433 0.0
H1119 H 0.28961 0.73497 0.54596 0.0
C1120 C 0.2386 0.73985 0.46633 0.0
C1121 C 0.24476 0.7229 0.46021 0.0
C1122 C 0.24186 0.74536 0.48417 0.0
C1123 C 0.25127 0.73398 0.49621 0.0
C1124 C 0.25647 0.71663 0.4903 0.0
C1125 C 0.25332 0.71119 0.4725 0.0
C1126 C 0.24752 0.75391 0.54348 0.0
C1127 C 0.26392 0.74816 0.5513 0.0
C1128 C 0.24359 0.74988 0.52539 0.0
C1129 C 0.25603 0.74012 0.51478 0.0
C1130 C 0.27293 0.73554 0.5223 0.0
C1131 C 0.2768 0.73944 0.54037 0.0
H1132 H 0.25548 0.30559 0.52618 0.0
H1133 H 0.23175 0.25338 0.53794 0.0
H1134 H 0.26132 0.29598 0.49522 0.0
H1135 H 0.23815 0.24351 0.50707 0.0
H1136 H 0.2912 0.26769 0.45083 0.0
H1137 H 0.28264 0.27566 0.4816 0.0
H1138 H 0.23206 0.24685 0.47508 0.0
H1139 H 0.24096 0.23838 0.44435 0.0
C1140 C 0.25129 0.29214 0.52207 0.0
C1141 C 0.24328 0.28021 0.53452 0.0
C1142 C 0.25484 0.28653 0.50439 0.0
C1143 C 0.25064 0.2688 0.4988 0.0
C1144 C 0.24157 0.25724 0.51093 0.0
C1145 C 0.23787 0.26293 0.52862 0.0
C1146 C 0.27839 0.2628 0.45606 0.0
C1147 C 0.26672 0.25249 0.44516 0.0
C1148 C 0.27336 0.26756 0.47362 0.0
C1149 C 0.25645 0.2623 0.48065 0.0
C1150 C 0.24517 0.25115 0.47008 0.0
C1151 C 0.25029 0.24624 0.4525 0.0
H1152 H 0.21201 0.16415 0.27188 0.0
H1153 H 0.16929 0.12476 0.27916 0.0
H1154 H 0.19075 0.18843 0.27739 0.0
H1155 H 0.1479 0.14927 0.28536 0.0
H1156 H 0.11578 0.1975 0.25914 0.0
H1157 H 0.13378 0.17116 0.26661 0.0
H1158 H 0.17101 0.20503 0.29656 0.0
H1159 H 0.15326 0.2317 0.28834 0.0
C1160 C 0.1981 0.16063 0.27498 0.0
C1161 C 0.19228 0.14251 0.2747 0.0
C1162 C 0.1859 0.17462 0.27842 0.0
C1163 C 0.16753 0.17088 0.28179 0.0
C1164 C 0.1619 0.15266 0.28256 0.0
C1165 C 0.17414 0.13861 0.27902 0.0
C1166 C 0.12755 0.19932 0.26773 0.0
C1167 C 0.13341 0.21677 0.27268 0.0
C1168 C 0.13784 0.18412 0.27216 0.0
C1169 C 0.15416 0.18599 0.28178 0.0
C1170 C 0.15879 0.20319 0.28866 0.0
C1171 C 0.14852 0.21847 0.28411 0.0
H1172 H 0.85767 0.18792 0.29122 0.0
H1173 H 0.87573 0.15535 0.24625 0.0
H1174 H 0.83263 0.16708 0.29648 0.0
H1175 H 0.85 0.1352 0.25041 0.0
H1176 H 0.80331 0.09998 0.25817 0.0
H1177 H 0.83257 0.11378 0.26473 0.0
H1178 H 0.80513 0.16221 0.28323 0.0
H1179 H 0.77615 0.14785 0.27785 0.0
C1180 C 0.8563 0.17615 0.28256 0.0
C1181 C 0.86845 0.17327 0.26823 0.0
C1182 C 0.84186 0.16427 0.28544 0.0
C1183 C 0.83889 0.14958 0.27365 0.0
C1184 C 0.85181 0.14616 0.25997 0.0
C1185 C 0.86656 0.15778 0.25744 0.0
C1186 C 0.80363 0.11335 0.26424 0.0
C1187 C 0.78749 0.12293 0.26735 0.0
C1188 C 0.82041 0.12138 0.26779 0.0
C1189 C 0.82141 0.13937 0.27405 0.0
C1190 C 0.80513 0.14831 0.27856 0.0
C1191 C 0.78838 0.14009 0.27543 0.0
H1192 H 0.84954 0.76982 0.25328 0.0
H1193 H 0.87923 0.80955 0.22215 0.0
H1194 H 0.82987 0.79371 0.26484 0.0
H1195 H 0.8592 0.83316 0.23298 0.0
H1196 H 0.82391 0.87511 0.25799 0.0
H1197 H 0.84743 0.8519 0.25606 0.0
H1198 H 0.80608 0.81058 0.25199 0.0
H1199 H 0.78283 0.83351 0.25467 0.0
C1200 C 0.852 0.78366 0.24905 0.0
C1201 C 0.8658 0.78772 0.23659 0.0
C1202 C 0.84065 0.79736 0.25558 0.0
C1203 C 0.84271 0.81537 0.24962 0.0
C1204 C 0.85724 0.81954 0.23804 0.0
C1205 C 0.8687 0.8059 0.23169 0.0
C1206 C 0.8199 0.86103 0.25698 0.0
C1207 C 0.8015 0.8562 0.25628 0.0
C1208 C 0.83337 0.84772 0.25578 0.0
C1209 C 0.82871 0.82932 0.25372 0.0
C1210 C 0.81028 0.82452 0.25384 0.0
C1211 C 0.79687 0.83776 0.2552 0.0
H1212 H 0.2273 0.85321 0.25512 0.0
H1213 H 0.19372 0.8975 0.23685 0.0
H1214 H 0.2007 0.83756 0.26632 0.0
H1215 H 0.16703 0.88236 0.24903 0.0
H1216 H 0.12427 0.83661 0.24434 0.0
H1217 H 0.14885 0.85817 0.24064 0.0
H1218 H 0.17678 0.83405 0.2862 0.0
H1219 H 0.15261 0.81175 0.28902 0.0
C1220 C 0.21425 0.85985 0.25399 0.0
C1221 C 0.21256 0.87645 0.2449 0.0
C1222 C 0.19892 0.85093 0.26055 0.0
C1223 C 0.18155 0.85857 0.25848 0.0
C1224 C 0.18008 0.87581 0.25048 0.0
C1225 C 0.19539 0.88457 0.2436 0.0
C1226 C 0.13548 0.83621 0.2538 0.0
C1227 C 0.1367 0.82238 0.26678 0.0
C1228 C 0.14961 0.84864 0.25176 0.0
C1229 C 0.16509 0.84771 0.2629 0.0
C1230 C 0.16541 0.83485 0.27698 0.0
C1231 C 0.15148 0.82216 0.27873 0.0
H1232 H 0.11673 0.80293 0.76553 0.0
H1233 H 0.14996 0.76093 0.74188 0.0
H1234 H 0.13808 0.82565 0.75549 0.0
H1235 H 0.17105 0.7839 0.73094 0.0
H1236 H 0.17632 0.86567 0.73206 0.0
H1237 H 0.15269 0.84257 0.73301 0.0
H1238 H 0.19319 0.8019 0.74491 0.0
H1239 H 0.21668 0.82474 0.74308 0.0
C1240 C 0.12836 0.79856 0.75773 0.0
C1241 C 0.13179 0.78006 0.75479 0.0
C1242 C 0.14061 0.81168 0.75182 0.0
C1243 C 0.1565 0.80666 0.7426 0.0
C1244 C 0.1592 0.78824 0.73842 0.0
C1245 C 0.14704 0.77506 0.74456 0.0
C1246 C 0.18014 0.85174 0.73465 0.0
C1247 C 0.19834 0.84707 0.73767 0.0
C1248 C 0.1666 0.83849 0.73526 0.0
C1249 C 0.17095 0.82033 0.73918 0.0
C1250 C 0.18927 0.81563 0.74155 0.0
C1251 C 0.20279 0.82881 0.74068 0.0
H1252 H 0.19112 0.11058 0.75288 0.0
H1253 H 0.22847 0.15532 0.75837 0.0
H1254 H 0.16894 0.13073 0.73907 0.0
H1255 H 0.2061 0.17562 0.74527 0.0
H1256 H 0.16611 0.209 0.71572 0.0
H1257 H 0.18874 0.18539 0.7202 0.0
H1258 H 0.14951 0.1537 0.75004 0.0
H1259 H 0.12677 0.17696 0.74489 0.0
C1260 C 0.19465 0.1247 0.75099 0.0
C1261 C 0.21147 0.13141 0.7569 0.0
C1262 C 0.18189 0.13628 0.74316 0.0
C1263 C 0.18558 0.15487 0.74127 0.0
C1264 C 0.20281 0.16136 0.7463 0.0
C1265 C 0.21565 0.14973 0.75392 0.0
C1266 C 0.16225 0.19682 0.72294 0.0
C1267 C 0.14473 0.19491 0.73013 0.0
C1268 C 0.17525 0.18333 0.72561 0.0
C1269 C 0.17108 0.16775 0.73574 0.0
C1270 C 0.15322 0.16541 0.74202 0.0
C1271 C 0.14015 0.1788 0.73914 0.0
H1272 H 0.84043 0.23739 0.75504 0.0
H1273 H 0.88985 0.20736 0.74598 0.0
H1274 H 0.82289 0.212 0.74359 0.0
H1275 H 0.87235 0.18216 0.73384 0.0
H1276 H 0.83386 0.13336 0.74334 0.0
H1277 H 0.85358 0.15955 0.74678 0.0
H1278 H 0.81401 0.19297 0.71939 0.0
H1279 H 0.79401 0.16687 0.71662 0.0
C1280 C 0.84758 0.22555 0.75013 0.0
C1281 C 0.8665 0.22429 0.75166 0.0
C1282 C 0.83752 0.21097 0.74347 0.0
C1283 C 0.84618 0.19488 0.73797 0.0
C1284 C 0.86521 0.19415 0.73834 0.0
C1285 C 0.87525 0.20866 0.7452 0.0
C1286 C 0.82952 0.14623 0.73779 0.0
C1287 C 0.81229 0.14812 0.72996 0.0
C1288 C 0.84087 0.16128 0.73966 0.0
C1289 C 0.83531 0.17848 0.73354 0.0
C1290 C 0.81855 0.18005 0.72464 0.0
C1291 C 0.80713 0.16506 0.72296 0.0
H1292 H 0.86997 0.82114 0.72836 0.0
H1293 H 0.82675 0.78228 0.7354 0.0
H1294 H 0.84849 0.84581 0.73304 0.0
H1295 H 0.80554 0.80672 0.74089 0.0
H1296 H 0.76783 0.8533 0.74505 0.0
H1297 H 0.78873 0.83196 0.73088 0.0
H1298 H 0.83353 0.85771 0.7585 0.0
H1299 H 0.81289 0.87934 0.7719 0.0
C1300 C 0.85587 0.81787 0.73078 0.0
C1301 C 0.85011 0.79976 0.73173 0.0
C1302 C 0.84356 0.832 0.73356 0.0
C1303 C 0.82528 0.82829 0.7376 0.0
C1304 C 0.81941 0.81017 0.73761 0.0
C1305 C 0.83165 0.79609 0.7346 0.0
C1306 C 0.78219 0.85456 0.74782 0.0
C1307 C 0.78866 0.8679 0.75976 0.0
C1308 C 0.79417 0.84227 0.73978 0.0
C1309 C 0.81284 0.84295 0.74367 0.0
C1310 C 0.81933 0.85687 0.75494 0.0
C1311 C 0.80741 0.86923 0.76279 0.0
H1312 H 0.22618 0.09064 0.19523 0.0
H1313 H 0.27098 0.12363 0.2133 0.0
H1314 H 0.23319 0.09819 0.16387 0.0
H1315 H 0.27746 0.13197 0.18222 0.0
H1316 H 0.23024 0.14465 0.12085 0.0
H1317 H 0.22853 0.1238 0.14614 0.0
H1318 H 0.28672 0.12681 0.15258 0.0
H1319 H 0.28813 0.14863 0.12785 0.0
C1320 C 0.23766 0.09937 0.19247 0.0
C1321 C 0.24787 0.10678 0.20673 0.0
C1322 C 0.24164 0.10376 0.17448 0.0
C1323 C 0.25572 0.11594 0.17037 0.0
C1324 C 0.26666 0.12236 0.18466 0.0
C1325 C 0.26286 0.11771 0.20261 0.0
C1326 C 0.24275 0.14027 0.12718 0.0
C1327 C 0.25926 0.14851 0.12264 0.0
C1328 C 0.2418 0.12827 0.1418 0.0
C1329 C 0.25744 0.12403 0.15191 0.0
C1330 C 0.2743 0.1303 0.14559 0.0
C1331 C 0.27518 0.1426 0.13123 0.0
H1332 H 0.84352 0.28308 0.1318 0.0
H1333 H 0.84946 0.22614 0.11984 0.0
H1334 H 0.86657 0.2806 0.15529 0.0
H1335 H 0.87189 0.22342 0.14372 0.0
H1336 H 0.87469 0.25906 0.2141 0.0
H1337 H 0.8633 0.26771 0.18448 0.0
H1338 H 0.89938 0.22909 0.15922 0.0
H1339 H 0.91028 0.21998 0.18901 0.0
C1340 C 0.85017 0.27014 0.13383 0.0
C1341 C 0.84447 0.25472 0.12422 0.0
C1342 C 0.86324 0.26868 0.14742 0.0
C1343 C 0.87068 0.25171 0.15184 0.0
C1344 C 0.86649 0.23674 0.14076 0.0
C1345 C 0.85358 0.23827 0.12699 0.0
C1346 C 0.88046 0.25268 0.20222 0.0
C1347 C 0.89312 0.2386 0.20393 0.0
C1348 C 0.87403 0.25773 0.18515 0.0
C1349 C 0.88027 0.24896 0.16938 0.0
C1350 C 0.894 0.23587 0.17106 0.0
C1351 C 0.90028 0.23069 0.18815 0.0
H1352 H 0.7103 0.87283 0.21335 0.0
H1353 H 0.75611 0.89844 0.1874 0.0
H1354 H 0.70207 0.85865 0.18465 0.0
H1355 H 0.74833 0.88386 0.15908 0.0
H1356 H 0.73447 0.85479 0.1092 0.0
H1357 H 0.72989 0.87703 0.13332 0.0
H1358 H 0.71688 0.83369 0.17051 0.0
H1359 H 0.7209 0.81177 0.14651 0.0
C1360 C 0.71835 0.87581 0.20145 0.0
C1361 C 0.73413 0.88638 0.20277 0.0
C1362 C 0.7137 0.86759 0.18502 0.0
C1363 C 0.72479 0.86973 0.16964 0.0
C1364 C 0.73943 0.88188 0.17057 0.0
C1365 C 0.74401 0.89015 0.18693 0.0
C1366 C 0.73017 0.85011 0.12242 0.0
C1367 C 0.72842 0.8315 0.12604 0.0
C1368 C 0.72762 0.86283 0.13627 0.0
C1369 C 0.72324 0.85717 0.15395 0.0
C1370 C 0.72007 0.83865 0.15708 0.0
C1371 C 0.7226 0.826 0.14331 0.0
H1372 H 0.10941 0.7681 0.19701 0.0
H1373 H 0.13436 0.72669 0.23006 0.0
H1374 H 0.12713 0.75831 0.17122 0.0
H1375 H 0.15169 0.71637 0.2039 0.0
H1376 H 0.2002 0.72916 0.16595 0.0
H1377 H 0.17718 0.72952 0.18929 0.0
H1378 H 0.13579 0.73714 0.14855 0.0
H1379 H 0.1591 0.73741 0.12506 0.0
C1380 C 0.1183 0.75655 0.19866 0.0
C1381 C 0.12076 0.74845 0.21573 0.0
C1382 C 0.12841 0.75081 0.18376 0.0
C1383 C 0.14111 0.73673 0.18551 0.0
C1384 C 0.14234 0.72755 0.20218 0.0
C1385 C 0.13231 0.73338 0.21716 0.0
C1386 C 0.18617 0.73068 0.16188 0.0
C1387 C 0.18153 0.73359 0.14364 0.0
C1388 C 0.17289 0.73068 0.17531 0.0
C1389 C 0.15458 0.73347 0.17086 0.0
C1390 C 0.1498 0.73525 0.15249 0.0
C1391 C 0.16315 0.73535 0.13901 0.0
H1392 H 0.25715 0.90431 0.80174 0.0
H1393 H 0.27933 0.85483 0.78003 0.0
H1394 H 0.26344 0.89379 0.83239 0.0
H1395 H 0.28428 0.84355 0.81037 0.0
H1396 H 0.28736 0.82092 0.86416 0.0
H1397 H 0.29528 0.84056 0.83885 0.0
H1398 H 0.24869 0.87415 0.85095 0.0
H1399 H 0.24197 0.85534 0.87702 0.0
C1400 C 0.26376 0.89132 0.80358 0.0
C1401 C 0.2676 0.88028 0.78859 0.0
C1402 C 0.26714 0.88514 0.82115 0.0
C1403 C 0.2738 0.8675 0.8241 0.0
C1404 C 0.27923 0.85723 0.80892 0.0
C1405 C 0.27635 0.86366 0.79136 0.0
C1406 C 0.27926 0.83291 0.86167 0.0
C1407 C 0.26398 0.83659 0.87235 0.0
C1408 C 0.28363 0.84408 0.84703 0.0
C1409 C 0.27236 0.85875 0.84232 0.0
C1410 C 0.25789 0.86317 0.85403 0.0
C1411 C 0.2539 0.85231 0.86902 0.0
H1412 H 0.09668 0.25854 0.79501 0.0
H1413 H 0.14658 0.27694 0.77078 0.0
H1414 H 0.10874 0.2651 0.82502 0.0
H1415 H 0.15924 0.28222 0.80053 0.0
H1416 H 0.18236 0.28926 0.85419 0.0
H1417 H 0.16302 0.2953 0.82815 0.0
H1418 H 0.12845 0.25058 0.84397 0.0
H1419 H 0.14705 0.24575 0.87069 0.0
C1420 C 0.11013 0.26431 0.79613 0.0
C1421 C 0.12077 0.26708 0.78062 0.0
C1422 C 0.11717 0.26786 0.81335 0.0
C1423 C 0.13521 0.27373 0.81543 0.0
C1424 C 0.14526 0.27788 0.79971 0.0
C1425 C 0.13803 0.27479 0.78251 0.0
C1426 C 0.17028 0.28112 0.85228 0.0
C1427 C 0.1662 0.26696 0.86427 0.0
C1428 C 0.15928 0.28442 0.83725 0.0
C1429 C 0.14433 0.27317 0.83351 0.0
C1430 C 0.13966 0.25974 0.84631 0.0
C1431 C 0.15038 0.25683 0.86165 0.0
H1432 H 0.72243 0.12946 0.77022 0.0
H1433 H 0.76539 0.10097 0.79796 0.0
H1434 H 0.71327 0.14329 0.79883 0.0
H1435 H 0.75683 0.11521 0.82615 0.0
H1436 H 0.7428 0.14422 0.87571 0.0
H1437 H 0.7381 0.12265 0.85106 0.0
H1438 H 0.72818 0.16717 0.81428 0.0
H1439 H 0.73217 0.18844 0.83882 0.0
C1440 C 0.72961 0.12577 0.78247 0.0
C1441 C 0.74495 0.11453 0.78175 0.0
C1442 C 0.72446 0.1338 0.79886 0.0
C1443 C 0.73462 0.13079 0.81473 0.0
C1444 C 0.74864 0.11792 0.81429 0.0
C1445 C 0.7537 0.10984 0.798 0.0
C1446 C 0.73922 0.14933 0.86243 0.0
C1447 C 0.73826 0.16806 0.85915 0.0
C1448 C 0.73656 0.13698 0.84829 0.0
C1449 C 0.73299 0.14314 0.83059 0.0
C1450 C 0.73071 0.16183 0.82771 0.0
C1451 C 0.73325 0.17411 0.84181 0.0
H1452 H 0.84285 0.72764 0.87341 0.0
H1453 H 0.79937 0.72214 0.83459 0.0
H1454 H 0.86491 0.722 0.84933 0.0
H1455 H 0.82117 0.71707 0.8107 0.0
H1456 H 0.85992 0.70703 0.76833 0.0
H1457 H 0.84419 0.69942 0.79639 0.0
H1458 H 0.87494 0.74048 0.82463 0.0
H1459 H 0.89101 0.74756 0.79693 0.0
C1460 C 0.83799 0.72499 0.85982 0.0
C1461 C 0.81938 0.72569 0.85585 0.0
C1462 C 0.85062 0.72179 0.84602 0.0
C1463 C 0.84486 0.7192 0.82802 0.0
C1464 C 0.82618 0.71875 0.82438 0.0
C1465 C 0.81362 0.72193 0.83811 0.0
C1466 C 0.86377 0.71396 0.78067 0.0
C1467 C 0.87636 0.72824 0.7803 0.0
C1468 C 0.85465 0.70971 0.79674 0.0
C1469 C 0.85792 0.71969 0.81266 0.0
C1470 C 0.87201 0.7325 0.81268 0.0
C1471 C 0.88116 0.73668 0.79669 0.0
H1472 H 0.16933 0.27747 0.20551 0.0
H1473 H 0.13289 0.24003 0.17914 0.0
H1474 H 0.19205 0.27184 0.18226 0.0
H1475 H 0.15581 0.23381 0.15632 0.0
H1476 H 0.1971 0.22985 0.11262 0.0
H1477 H 0.17365 0.24336 0.13148 0.0
H1478 H 0.21186 0.24753 0.17569 0.0
H1479 H 0.23542 0.2347 0.15659 0.0
C1480 C 0.16611 0.26817 0.19463 0.0
C1481 C 0.1494 0.25904 0.19425 0.0
C1482 C 0.17918 0.26484 0.18137 0.0
C1483 C 0.17592 0.25214 0.16756 0.0
C1484 C 0.15878 0.24381 0.16662 0.0
C1485 C 0.14562 0.24731 0.17977 0.0
C1486 C 0.20054 0.2339 0.1263 0.0
C1487 C 0.21808 0.23105 0.13318 0.0
C1488 C 0.18707 0.24156 0.13714 0.0
C1489 C 0.19076 0.24637 0.15519 0.0
C1490 C 0.20853 0.24423 0.16179 0.0
C1491 C 0.22206 0.23676 0.15087 0.0
H1492 H 0.18018 0.80417 0.88291 0.0
H1493 H 0.19533 0.75009 0.89904 0.0
H1494 H 0.15196 0.79271 0.87051 0.0
H1495 H 0.16642 0.7386 0.88799 0.0
H1496 H 0.13467 0.72323 0.83655 0.0
H1497 H 0.15544 0.73203 0.86003 0.0
H1498 H 0.12338 0.78001 0.87051 0.0
H1499 H 0.10306 0.77159 0.84583 0.0
C1500 C 0.17717 0.78987 0.88428 0.0
C1501 C 0.19006 0.77794 0.89154 0.0
C1502 C 0.16084 0.78325 0.87733 0.0
C1503 C 0.15686 0.76458 0.87789 0.0
C1504 C 0.16918 0.75295 0.8867 0.0
C1505 C 0.18573 0.75951 0.89315 0.0
C1506 C 0.13175 0.73545 0.84412 0.0
C1507 C 0.11753 0.74699 0.83891 0.0
C1508 C 0.14368 0.7405 0.85784 0.0
C1509 C 0.14153 0.75709 0.86697 0.0
C1510 C 0.12589 0.76746 0.86334 0.0
C1511 C 0.11404 0.76251 0.84936 0.0
H1512 H 0.20352 0.18364 0.9048 0.0
H1513 H 0.24845 0.20643 0.875 0.0
H1514 H 0.21185 0.15344 0.89435 0.0
H1515 H 0.25637 0.17649 0.86404 0.0
H1516 H 0.27105 0.12331 0.84548 0.0
H1517 H 0.26697 0.14665 0.86844 0.0
H1518 H 0.20902 0.1383 0.86629 0.0
H1519 H 0.21326 0.11449 0.84402 0.0
C1520 C 0.2153 0.18219 0.89616 0.0
C1521 C 0.22517 0.19748 0.8905 0.0
C1522 C 0.22004 0.16487 0.89014 0.0
C1523 C 0.23467 0.16246 0.87818 0.0
C1524 C 0.24517 0.17768 0.87343 0.0
C1525 C 0.24053 0.19496 0.87959 0.0
C1526 C 0.25752 0.12598 0.85049 0.0
C1527 C 0.24244 0.11731 0.84274 0.0
C1528 C 0.25515 0.13951 0.86349 0.0
C1529 C 0.23763 0.14484 0.86878 0.0
C1530 C 0.22273 0.13465 0.86257 0.0
C1531 C 0.22514 0.12091 0.84976 0.0
H1532 H 0.82154 0.2064 0.89772 0.0
H1533 H 0.79556 0.25331 0.87425 0.0
H1534 H 0.85088 0.21735 0.8871 0.0
H1535 H 0.82447 0.26381 0.86302 0.0
H1536 H 0.88721 0.22626 0.83559 0.0
H1537 H 0.86529 0.21854 0.85882 0.0
H1538 H 0.85361 0.27543 0.86666 0.0
H1539 H 0.87484 0.28296 0.84253 0.0
C1540 C 0.82211 0.21914 0.89045 0.0
C1541 C 0.80618 0.22886 0.88661 0.0
C1542 C 0.83893 0.22539 0.88431 0.0
C1543 C 0.84016 0.24141 0.87403 0.0
C1544 C 0.82427 0.25159 0.87113 0.0
C1545 C 0.80755 0.24545 0.87743 0.0
C1546 C 0.88051 0.23715 0.84279 0.0
C1547 C 0.88244 0.25517 0.83704 0.0
C1548 C 0.86785 0.23273 0.85617 0.0
C1549 C 0.85714 0.24632 0.86424 0.0
C1550 C 0.86109 0.26455 0.86025 0.0
C1551 C 0.87345 0.26892 0.84661 0.0
H1552 H 0.78093 0.88129 0.84696 0.0
H1553 H 0.72299 0.87435 0.8436 0.0
H1554 H 0.78284 0.85588 0.86771 0.0
H1555 H 0.72464 0.84947 0.86523 0.0
H1556 H 0.74018 0.78879 0.86928 0.0
H1557 H 0.73403 0.81972 0.8601 0.0
H1558 H 0.77812 0.83859 0.8938 0.0
H1559 H 0.78476 0.80737 0.90229 0.0
C1560 C 0.76848 0.87492 0.85141 0.0
C1561 C 0.75186 0.87956 0.84343 0.0
C1562 C 0.76954 0.86025 0.86335 0.0
C1563 C 0.75393 0.85015 0.86776 0.0
C1564 C 0.73702 0.85647 0.86163 0.0
C1565 C 0.73602 0.8709 0.84943 0.0
C1566 C 0.74836 0.79956 0.87498 0.0
C1567 C 0.76315 0.7956 0.88624 0.0
C1568 C 0.74475 0.81741 0.86984 0.0
C1569 C 0.75568 0.8318 0.87605 0.0
C1570 C 0.76966 0.82789 0.88841 0.0
C1571 C 0.77343 0.80998 0.89334 0.0
H1572 H 0.79527 0.74661 0.09496 0.0
H1573 H 0.81029 0.80164 0.10781 0.0
H1574 H 0.82444 0.73596 0.10617 0.0
H1575 H 0.83893 0.79104 0.12007 0.0
H1576 H 0.88864 0.77112 0.14454 0.0
H1577 H 0.86784 0.77781 0.11968 0.0
H1578 H 0.8348 0.732 0.13541 0.0
H1579 H 0.85585 0.72497 0.15935 0.0
C1580 C 0.80491 0.75644 0.10004 0.0
C1581 C 0.80041 0.77489 0.10085 0.0
C1582 C 0.82162 0.75035 0.10654 0.0
C1583 C 0.83397 0.76254 0.11446 0.0
C1584 C 0.82993 0.78119 0.11397 0.0
C1585 C 0.81339 0.78731 0.10708 0.0
C1586 C 0.8773 0.76211 0.14218 0.0
C1587 C 0.87364 0.74777 0.15416 0.0
C1588 C 0.86523 0.76606 0.12807 0.0
C1589 C 0.8493 0.75578 0.12577 0.0
C1590 C 0.84685 0.74028 0.13658 0.0
C1591 C 0.85891 0.73628 0.15052 0.0
H1592 H 0.23489 0.80677 0.09783 0.0
H1593 H 0.2674 0.77869 0.1375 0.0
H1594 H 0.24495 0.83577 0.11001 0.0
H1595 H 0.27652 0.80737 0.15047 0.0
H1596 H 0.29131 0.85851 0.17473 0.0
H1597 H 0.29086 0.83486 0.15172 0.0
H1598 H 0.23746 0.85258 0.13509 0.0
H1599 H 0.23869 0.87689 0.15714 0.0
C1600 C 0.24437 0.80683 0.10903 0.0
C1601 C 0.25018 0.7905 0.11688 0.0
C1602 C 0.25004 0.82345 0.11613 0.0
C1603 C 0.26127 0.82409 0.13154 0.0
C1604 C 0.26806 0.80764 0.13851 0.0
C1605 C 0.26272 0.79107 0.13114 0.0
C1606 C 0.27978 0.85765 0.16568 0.0
C1607 C 0.26494 0.86935 0.16781 0.0
C1608 C 0.27939 0.84397 0.15262 0.0
C1609 C 0.26389 0.84132 0.14182 0.0
C1610 C 0.24973 0.8541 0.14298 0.0
C1611 C 0.25036 0.86809 0.15571 0.0
H1612 H 0.75375 0.12918 0.17752 0.0
H1613 H 0.71988 0.16483 0.20922 0.0
H1614 H 0.75799 0.15307 0.15522 0.0
H1615 H 0.72349 0.18854 0.18658 0.0
H1616 H 0.75951 0.23238 0.15963 0.0
H1617 H 0.74747 0.20828 0.1786 0.0
H1618 H 0.74637 0.17233 0.13237 0.0
H1619 H 0.7591 0.19628 0.11359 0.0
C1620 C 0.74679 0.14195 0.17946 0.0
C1621 C 0.7367 0.14521 0.19523 0.0
C1622 C 0.74915 0.15568 0.16663 0.0
C1623 C 0.74128 0.17287 0.1692 0.0
C1624 C 0.73012 0.17564 0.18437 0.0
C1625 C 0.72794 0.162 0.1973 0.0
C1626 C 0.75639 0.21944 0.15346 0.0
C1627 C 0.76049 0.21616 0.13519 0.0
C1628 C 0.74939 0.2056 0.16431 0.0
C1629 C 0.74613 0.18824 0.15708 0.0
C1630 C 0.74911 0.18538 0.1385 0.0
C1631 C 0.75631 0.19915 0.1277 0.0
H1632 H 0.6962 0.67243 0.7738 0.0
H1633 H 0.66375 0.63813 0.73928 0.0
H1634 H 0.67484 0.6972 0.76937 0.0
H1635 H 0.64289 0.66305 0.73405 0.0
H1636 H 0.60395 0.70867 0.73014 0.0
H1637 H 0.62076 0.68365 0.7436 0.0
H1638 H 0.66874 0.71726 0.74564 0.0
H1639 H 0.65168 0.74241 0.73305 0.0
C1640 C 0.68436 0.67014 0.76542 0.0
C1641 C 0.68172 0.65342 0.75674 0.0
C1642 C 0.67219 0.68438 0.76274 0.0
C1643 C 0.65728 0.68232 0.75105 0.0
C1644 C 0.65408 0.66518 0.74328 0.0
C1645 C 0.66609 0.65085 0.74621 0.0
C1646 C 0.61803 0.71076 0.73375 0.0
C1647 C 0.62655 0.72745 0.73039 0.0
C1648 C 0.6277 0.69638 0.74138 0.0
C1649 C 0.64621 0.69828 0.74555 0.0
C1650 C 0.65447 0.71528 0.74289 0.0
C1651 C 0.64471 0.72973 0.73553 0.0
H1652 H 0.28862 0.61769 0.75082 0.0
H1653 H 0.31654 0.58657 0.70986 0.0
H1654 H 0.31727 0.62945 0.7615 0.0
H1655 H 0.34553 0.5979 0.72103 0.0
H1656 H 0.38353 0.64907 0.72575 0.0
H1657 H 0.36101 0.62595 0.71938 0.0
H1658 H 0.34542 0.62556 0.77583 0.0
H1659 H 0.36735 0.64948 0.78191 0.0
C1660 C 0.30093 0.61304 0.74433 0.0
C1661 C 0.30024 0.6014 0.7293 0.0
C1662 C 0.31748 0.61964 0.7506 0.0
C1663 C 0.33384 0.61467 0.74215 0.0
C1664 C 0.33322 0.60222 0.72772 0.0
C1665 C 0.31659 0.5957 0.72134 0.0
C1666 C 0.37582 0.64351 0.73694 0.0
C1667 C 0.37691 0.65131 0.75425 0.0
C1668 C 0.36282 0.63022 0.73329 0.0
C1669 C 0.35092 0.6243 0.74698 0.0
C1670 C 0.35389 0.63029 0.76483 0.0
C1671 C 0.36662 0.64383 0.76839 0.0
H1672 H 0.34558 0.25784 0.73515 0.0
H1673 H 0.39076 0.29346 0.72432 0.0
H1674 H 0.3292 0.28278 0.74894 0.0
H1675 H 0.37467 0.31835 0.73886 0.0
H1676 H 0.32851 0.36128 0.73853 0.0
H1677 H 0.35009 0.33739 0.73159 0.0
H1678 H 0.32588 0.30353 0.77283 0.0
H1679 H 0.30376 0.32718 0.77911 0.0
C1680 C 0.35219 0.27092 0.73608 0.0
C1681 C 0.36937 0.27372 0.72844 0.0
C1682 C 0.34283 0.28524 0.74414 0.0
C1683 C 0.35054 0.30268 0.74497 0.0
C1684 C 0.36816 0.30522 0.73815 0.0
C1685 C 0.37742 0.29092 0.72989 0.0
C1686 C 0.32808 0.3489 0.74639 0.0
C1687 C 0.31429 0.34598 0.75916 0.0
C1688 C 0.34051 0.33516 0.74246 0.0
C1689 C 0.33955 0.31833 0.75141 0.0
C1690 C 0.3267 0.31609 0.76529 0.0
C1691 C 0.31411 0.3297 0.76901 0.0
H1692 H 0.61116 0.34352 0.72289 0.0
H1693 H 0.6277 0.34327 0.77894 0.0
H1694 H 0.63241 0.36784 0.71665 0.0
H1695 H 0.64829 0.36839 0.77304 0.0
H1696 H 0.70442 0.37948 0.74775 0.0
H1697 H 0.67648 0.36637 0.75866 0.0
H1698 H 0.64639 0.39655 0.71843 0.0
H1699 H 0.67472 0.40921 0.70698 0.0
C1700 C 0.61868 0.34931 0.73408 0.0
C1701 C 0.61809 0.34128 0.75131 0.0
C1702 C 0.63093 0.36331 0.73052 0.0
C1703 C 0.64256 0.36971 0.74423 0.0
C1704 C 0.64003 0.36333 0.76201 0.0
C1705 C 0.62808 0.34909 0.76547 0.0
C1706 C 0.69185 0.38356 0.74137 0.0
C1707 C 0.69187 0.39515 0.72629 0.0
C1708 C 0.67569 0.37618 0.74778 0.0
C1709 C 0.65905 0.38032 0.73942 0.0
C1710 C 0.65895 0.39283 0.72503 0.0
C1711 C 0.6752 0.40012 0.71849 0.0
H1712 H 0.63544 0.38265 0.26513 0.0
H1713 H 0.657 0.35348 0.21923 0.0
H1714 H 0.61273 0.35901 0.26935 0.0
H1715 H 0.63536 0.32953 0.22404 0.0
H1716 H 0.6001 0.28397 0.23658 0.0
H1717 H 0.60825 0.31437 0.22644 0.0
H1718 H 0.61604 0.33059 0.28222 0.0
H1719 H 0.60691 0.3008 0.29218 0.0
C1720 C 0.63505 0.37146 0.25565 0.0
C1721 C 0.64838 0.36968 0.2422 0.0
C1722 C 0.62217 0.35775 0.2582 0.0
C1723 C 0.62257 0.34192 0.2475 0.0
C1724 C 0.63451 0.34135 0.23267 0.0
C1725 C 0.64714 0.35512 0.22998 0.0
C1726 C 0.60321 0.29419 0.24663 0.0
C1727 C 0.60319 0.28988 0.26516 0.0
C1728 C 0.60795 0.31163 0.24084 0.0
C1729 C 0.61317 0.32501 0.25344 0.0
C1730 C 0.61194 0.3209 0.27202 0.0
C1731 C 0.60688 0.30363 0.27778 0.0
H1732 H 0.68875 0.59094 0.29266 0.0
H1733 H 0.7105 0.61489 0.24389 0.0
H1734 H 0.65828 0.59992 0.28345 0.0
H1735 H 0.68045 0.62446 0.23508 0.0
H1736 H 0.62803 0.64175 0.21865 0.0
H1737 H 0.65088 0.61888 0.22533 0.0
H1738 H 0.64235 0.62746 0.28264 0.0
H1739 H 0.61886 0.64942 0.27585 0.0
C1740 C 0.68702 0.59797 0.2799 0.0
C1741 C 0.70209 0.60242 0.26913 0.0
C1742 C 0.66954 0.60316 0.27463 0.0
C1743 C 0.66679 0.61305 0.25856 0.0
C1744 C 0.68184 0.6166 0.24738 0.0
C1745 C 0.69922 0.61127 0.25254 0.0
C1746 C 0.63049 0.63809 0.23265 0.0
C1747 C 0.62191 0.64756 0.24673 0.0
C1748 C 0.64377 0.62517 0.23651 0.0
C1749 C 0.64903 0.62183 0.25453 0.0
C1750 C 0.63879 0.62966 0.26859 0.0
C1751 C 0.62522 0.6423 0.26471 0.0
H1752 H 0.3343 0.62818 0.23913 0.0
H1753 H 0.29546 0.67149 0.23235 0.0
H1754 H 0.35849 0.65049 0.2424 0.0
H1755 H 0.31937 0.69364 0.2362 0.0
H1756 H 0.36484 0.7321 0.23915 0.0
H1757 H 0.34638 0.70807 0.226 0.0
H1758 H 0.36645 0.67069 0.26637 0.0
H1759 H 0.38528 0.69443 0.27905 0.0
C1760 C 0.33095 0.64243 0.23808 0.0
C1761 C 0.3129 0.64805 0.23575 0.0
C1762 C 0.3448 0.65523 0.24005 0.0
C1763 C 0.34087 0.67388 0.2398 0.0
C1764 C 0.32299 0.67942 0.23629 0.0
C1765 C 0.30919 0.66667 0.23423 0.0
C1766 C 0.3656 0.71865 0.24496 0.0
C1767 C 0.37633 0.71527 0.26033 0.0
C1768 C 0.35494 0.70489 0.23748 0.0
C1769 C 0.3547 0.68749 0.24528 0.0
C1770 C 0.36638 0.68384 0.25988 0.0
C1771 C 0.37711 0.69755 0.26727 0.0
H1772 H 0.38434 0.35619 0.2638 0.0
H1773 H 0.37035 0.3429 0.20864 0.0
H1774 H 0.35921 0.37733 0.26513 0.0
H1775 H 0.34571 0.36485 0.2095 0.0
H1776 H 0.28737 0.37256 0.23157 0.0
H1777 H 0.31734 0.36203 0.22317 0.0
H1778 H 0.34145 0.40252 0.25801 0.0
H1779 H 0.31129 0.41244 0.26706 0.0
C1780 C 0.37644 0.35849 0.25164 0.0
C1781 C 0.37908 0.34769 0.23623 0.0
C1782 C 0.36193 0.37065 0.25237 0.0
C1783 C 0.34999 0.37244 0.23758 0.0
C1784 C 0.3542 0.36335 0.22137 0.0
C1785 C 0.36847 0.35094 0.22077 0.0
C1786 C 0.29907 0.37945 0.23716 0.0
C1787 C 0.29696 0.39309 0.25021 0.0
C1788 C 0.31635 0.37351 0.23224 0.0
C1789 C 0.33196 0.38127 0.24005 0.0
C1790 C 0.32979 0.39592 0.25203 0.0
C1791 C 0.31249 0.40167 0.25716 0.0
H1792 H 0.73264 0.61699 0.68845 0.0
H1793 H 0.77512 0.64308 0.71916 0.0
H1794 H 0.74175 0.63352 0.66163 0.0
H1795 H 0.78474 0.65923 0.69197 0.0
H1796 H 0.76818 0.70707 0.65441 0.0
H1797 H 0.76999 0.68426 0.67784 0.0
H1798 H 0.7619 0.64227 0.63783 0.0
H1799 H 0.75953 0.66539 0.61421 0.0
C1800 C 0.74432 0.62585 0.68935 0.0
C1801 C 0.75283 0.62911 0.70608 0.0
C1802 C 0.74966 0.63524 0.67386 0.0
C1803 C 0.76374 0.64804 0.67471 0.0
C1804 C 0.77354 0.6498 0.69098 0.0
C1805 C 0.76811 0.64046 0.70655 0.0
C1806 C 0.76699 0.69297 0.6505 0.0
C1807 C 0.76333 0.68808 0.63247 0.0
C1808 C 0.76828 0.67981 0.66397 0.0
C1809 C 0.76601 0.66138 0.65978 0.0
C1810 C 0.76348 0.65637 0.64155 0.0
C1811 C 0.76215 0.66961 0.62801 0.0
H1812 H 0.34512 0.7495 0.73662 0.0
H1813 H 0.37597 0.72222 0.69503 0.0
H1814 H 0.32473 0.76149 0.71357 0.0
H1815 H 0.3552 0.73335 0.67219 0.0
H1816 H 0.31844 0.75875 0.63191 0.0
H1817 H 0.34222 0.75662 0.65481 0.0
H1818 H 0.30142 0.74895 0.69616 0.0
H1819 H 0.27789 0.75192 0.67358 0.0
C1820 C 0.34763 0.74619 0.72255 0.0
C1821 C 0.36202 0.73472 0.7177 0.0
C1822 C 0.33588 0.75296 0.70933 0.0
C1823 C 0.33808 0.74816 0.69099 0.0
C1824 C 0.35312 0.73754 0.68609 0.0
C1825 C 0.365 0.73101 0.69926 0.0
C1826 C 0.3146 0.75691 0.64595 0.0
C1827 C 0.29629 0.75532 0.65088 0.0
C1828 C 0.32822 0.75559 0.65908 0.0
C1829 C 0.32381 0.75244 0.67738 0.0
C1830 C 0.30543 0.75166 0.68232 0.0
C1831 C 0.29187 0.75319 0.66927 0.0
H1832 H 0.22916 0.33957 0.72527 0.0
H1833 H 0.24513 0.3883 0.69719 0.0
H1834 H 0.22147 0.32548 0.69666 0.0
H1835 H 0.23629 0.37472 0.66844 0.0
H1836 H 0.20819 0.30093 0.64452 0.0
H1837 H 0.20539 0.3211 0.67046 0.0
H1838 H 0.24942 0.35369 0.64947 0.0
H1839 H 0.25116 0.33419 0.623 0.0
C1840 C 0.23031 0.34754 0.713 0.0
C1841 C 0.23799 0.3649 0.71341 0.0
C1842 C 0.22583 0.33948 0.69648 0.0
C1843 C 0.22858 0.34878 0.68002 0.0
C1844 C 0.23454 0.36688 0.68071 0.0
C1845 C 0.23942 0.37477 0.69721 0.0
C1846 C 0.21695 0.31269 0.64533 0.0
C1847 C 0.23002 0.31595 0.63192 0.0
C1848 C 0.21547 0.32419 0.66027 0.0
C1849 C 0.22742 0.33889 0.66242 0.0
C1850 C 0.23979 0.3427 0.64834 0.0
C1851 C 0.24092 0.33145 0.63315 0.0
H1852 H 0.67201 0.25553 0.62547 0.0
H1853 H 0.70605 0.22182 0.65905 0.0
H1854 H 0.65007 0.25782 0.64998 0.0
H1855 H 0.68376 0.22334 0.68331 0.0
H1856 H 0.60988 0.25643 0.69466 0.0
H1857 H 0.62819 0.2452 0.6696 0.0
H1858 H 0.67554 0.24592 0.7041 0.0
H1859 H 0.65714 0.25638 0.72921 0.0
C1860 C 0.67453 0.24816 0.63791 0.0
C1861 C 0.69085 0.23874 0.64046 0.0
C1862 C 0.66191 0.24939 0.65198 0.0
C1863 C 0.66524 0.24099 0.6688 0.0
C1864 C 0.68096 0.23039 0.67075 0.0
C1865 C 0.69368 0.22941 0.6568 0.0
C1866 C 0.62415 0.25384 0.69696 0.0
C1867 C 0.63209 0.25747 0.71388 0.0
C1868 C 0.63467 0.24751 0.68255 0.0
C1869 C 0.65342 0.24485 0.68469 0.0
C1870 C 0.66113 0.24756 0.70192 0.0
C1871 C 0.65057 0.25368 0.71637 0.0
H1872 H 0.72545 0.38704 0.30791 0.0
H1873 H 0.73696 0.34384 0.27018 0.0
H1874 H 0.7401 0.36992 0.33203 0.0
H1875 H 0.75073 0.32632 0.29435 0.0
H1876 H 0.78076 0.29878 0.33767 0.0
H1877 H 0.77425 0.32175 0.31489 0.0
H1878 H 0.73343 0.34479 0.35006 0.0
H1879 H 0.74073 0.32246 0.37312 0.0
C1880 C 0.73117 0.37389 0.30477 0.0
C1881 C 0.72993 0.36671 0.28719 0.0
C1882 C 0.73949 0.36402 0.31862 0.0
C1883 C 0.74649 0.34661 0.31527 0.0
C1884 C 0.74581 0.33977 0.29747 0.0
C1885 C 0.73777 0.34977 0.28358 0.0
C1886 C 0.77071 0.30906 0.34065 0.0
C1887 C 0.76113 0.30875 0.35708 0.0
C1888 C 0.76684 0.32213 0.32754 0.0
C1889 C 0.75302 0.33494 0.3304 0.0
C1890 C 0.74427 0.33529 0.34735 0.0
C1891 C 0.7484 0.32242 0.36061 0.0
H1892 H 0.66247 0.73021 0.25988 0.0
H1893 H 0.61509 0.74018 0.29277 0.0
H1894 H 0.68154 0.74307 0.2834 0.0
H1895 H 0.63409 0.75379 0.31606 0.0
H1896 H 0.67583 0.74737 0.36251 0.0
H1897 H 0.65443 0.74249 0.33796 0.0
H1898 H 0.69154 0.76806 0.30052 0.0
H1899 H 0.71326 0.7722 0.32501 0.0
C1900 C 0.65607 0.73561 0.27194 0.0
C1901 C 0.63731 0.73395 0.27457 0.0
C1902 C 0.66701 0.74309 0.28544 0.0
C1903 C 0.6594 0.74931 0.30179 0.0
C1904 C 0.64047 0.74875 0.30385 0.0
C1905 C 0.62956 0.74105 0.29044 0.0
C1906 C 0.67928 0.75223 0.3491 0.0
C1907 C 0.69632 0.75993 0.34564 0.0
C1908 C 0.66696 0.74952 0.33499 0.0
C1909 C 0.67132 0.75469 0.31715 0.0
C1910 C 0.6879 0.76352 0.31398 0.0
C1911 C 0.70031 0.76599 0.32804 0.0
H1912 H 0.23848 0.66116 0.38259 0.0
H1913 H 0.22159 0.70095 0.34309 0.0
H1914 H 0.2376 0.63773 0.3592 0.0
H1915 H 0.22128 0.67792 0.31984 0.0
H1916 H 0.21907 0.63569 0.27901 0.0
H1917 H 0.20936 0.65109 0.30658 0.0
H1918 H 0.25716 0.63153 0.33421 0.0
H1919 H 0.26644 0.61568 0.30704 0.0
C1920 C 0.23434 0.66486 0.36901 0.0
C1921 C 0.23043 0.68298 0.36464 0.0
C1922 C 0.23389 0.65146 0.3556 0.0
C1923 C 0.22955 0.65593 0.33757 0.0
C1924 C 0.22448 0.67385 0.33356 0.0
C1925 C 0.22488 0.68717 0.34692 0.0
C1926 C 0.22723 0.63428 0.29112 0.0
C1927 C 0.24374 0.62481 0.2907 0.0
C1928 C 0.22172 0.64319 0.30691 0.0
C1929 C 0.23268 0.64291 0.32252 0.0
C1930 C 0.24831 0.63203 0.32252 0.0
C1931 C 0.25374 0.62304 0.30681 0.0
H1932 H 0.29101 0.23645 0.32565 0.0
H1933 H 0.32818 0.24518 0.37005 0.0
H1934 H 0.31512 0.24212 0.30422 0.0
H1935 H 0.35271 0.25013 0.34843 0.0
H1936 H 0.38017 0.28722 0.3059 0.0
H1937 H 0.36053 0.27413 0.32873 0.0
H1938 H 0.34248 0.23386 0.2902 0.0
H1939 H 0.36164 0.24756 0.26704 0.0
C1940 C 0.30446 0.23916 0.33087 0.0
C1941 C 0.30759 0.24067 0.34959 0.0
C1942 C 0.31839 0.24227 0.31851 0.0
C1943 C 0.33588 0.24678 0.32454 0.0
C1944 C 0.33931 0.24707 0.34331 0.0
C1945 C 0.32528 0.24412 0.35571 0.0
C1946 C 0.37218 0.27544 0.30233 0.0
C1947 C 0.37225 0.26861 0.28457 0.0
C1948 C 0.361 0.26779 0.31552 0.0
C1949 C 0.34977 0.25299 0.31132 0.0
C1950 C 0.35066 0.24549 0.29381 0.0
C1951 C 0.36169 0.2533 0.28054 0.0
H1952 H 0.68803 0.73463 0.58551 0.0
H1953 H 0.71218 0.77447 0.62088 0.0
H1954 H 0.65793 0.74428 0.59506 0.0
H1955 H 0.68232 0.78355 0.63109 0.0
H1956 H 0.62955 0.79916 0.64995 0.0
H1957 H 0.65365 0.79641 0.62758 0.0
H1958 H 0.6409 0.73955 0.62129 0.0
H1959 H 0.61629 0.74267 0.64282 0.0
C1960 C 0.68689 0.74561 0.59518 0.0
C1961 C 0.70248 0.75361 0.60265 0.0
C1962 C 0.66963 0.75109 0.60072 0.0
C1963 C 0.66757 0.76452 0.61408 0.0
C1964 C 0.68321 0.77333 0.62061 0.0
C1965 C 0.70044 0.76803 0.61486 0.0
C1966 C 0.63146 0.78628 0.64318 0.0
C1967 C 0.62124 0.77106 0.64831 0.0
C1968 C 0.64543 0.78462 0.63052 0.0
C1969 C 0.64972 0.76762 0.62305 0.0
C1970 C 0.6381 0.7529 0.62669 0.0
C1971 C 0.6239 0.75465 0.63909 0.0
H1972 H 0.69805 0.24804 0.39173 0.0
H1973 H 0.73017 0.21347 0.35708 0.0
H1974 H 0.6709 0.23913 0.37564 0.0
H1975 H 0.70271 0.20397 0.34129 0.0
H1976 H 0.65999 0.22399 0.29943 0.0
H1977 H 0.68531 0.22097 0.32 0.0
H1978 H 0.64832 0.21832 0.36532 0.0
H1979 H 0.62276 0.22192 0.34455 0.0
C1980 C 0.69926 0.23808 0.38102 0.0
C1981 C 0.71636 0.23184 0.37537 0.0
C1982 C 0.68359 0.23283 0.37186 0.0
C1983 C 0.68463 0.22112 0.35689 0.0
C1984 C 0.70151 0.21337 0.35249 0.0
C1985 C 0.71724 0.21871 0.36162 0.0
C1986 C 0.65717 0.22254 0.31375 0.0
C1987 C 0.63935 0.22357 0.32038 0.0
C1988 C 0.67175 0.22056 0.32558 0.0
C1989 C 0.66891 0.21949 0.34437 0.0
C1990 C 0.651 0.21936 0.35094 0.0
C1991 C 0.63635 0.22138 0.33905 0.0
H1992 H 0.76682 0.61422 0.35037 0.0
H1993 H 0.78044 0.65019 0.30624 0.0
H1994 H 0.77132 0.63908 0.37182 0.0
H1995 H 0.78424 0.67489 0.32728 0.0
H1996 H 0.78857 0.71967 0.36401 0.0
H1997 H 0.79807 0.69059 0.35146 0.0
H1998 H 0.75276 0.66453 0.37791 0.0
H1999 H 0.74386 0.69319 0.39096 0.0
C2000 C 0.77108 0.62731 0.34528 0.0
C2001 C 0.77283 0.63035 0.32658 0.0
C2002 C 0.7736 0.64158 0.35755 0.0
C2003 C 0.77787 0.65911 0.3513 0.0
C2004 C 0.78112 0.66163 0.33272 0.0
C2005 C 0.77867 0.64744 0.32054 0.0
C2006 C 0.78102 0.70761 0.36761 0.0
C2007 C 0.76516 0.70883 0.37803 0.0
C2008 C 0.78639 0.69095 0.36033 0.0
C2009 C 0.77589 0.67526 0.36322 0.0
C2010 C 0.76123 0.67622 0.37532 0.0
C2011 C 0.75597 0.6928 0.3827 0.0
H2012 H 0.27777 0.76834 0.3673 0.0
H2013 H 0.30549 0.73632 0.40762 0.0
H2014 H 0.30655 0.77689 0.35415 0.0
H2015 H 0.33459 0.7458 0.39522 0.0
H2016 H 0.37641 0.73931 0.34876 0.0
H2017 H 0.35161 0.73802 0.37027 0.0
H2018 H 0.33405 0.7913 0.35312 0.0
H2019 H 0.35821 0.79181 0.33064 0.0
C2020 C 0.29009 0.76363 0.37374 0.0
C2021 C 0.28937 0.75143 0.38829 0.0
C2022 C 0.30672 0.76864 0.36627 0.0
C2023 C 0.32309 0.76187 0.3734 0.0
C2024 C 0.32233 0.75089 0.38899 0.0
C2025 C 0.30565 0.74556 0.39622 0.0
C2026 C 0.36751 0.75093 0.34994 0.0
C2027 C 0.36901 0.76553 0.33787 0.0
C2028 C 0.35325 0.75026 0.36237 0.0
C2029 C 0.34042 0.7644 0.36325 0.0
C2030 C 0.3432 0.77986 0.35243 0.0
C2031 C 0.35717 0.78029 0.33967 0.0
H2032 H 0.22363 0.27656 0.34488 0.0
H2033 H 0.24279 0.30585 0.39166 0.0
H2034 H 0.218 0.30486 0.32933 0.0
H2035 H 0.23589 0.33446 0.3767 0.0
H2036 H 0.21003 0.35622 0.30127 0.0
H2037 H 0.20474 0.33198 0.32302 0.0
H2038 H 0.25018 0.35115 0.35482 0.0
H2039 H 0.25432 0.37611 0.33376 0.0
C2040 C 0.22585 0.28912 0.35214 0.0
C2041 C 0.23389 0.28905 0.36934 0.0
C2042 C 0.22258 0.30549 0.34323 0.0
C2043 C 0.22687 0.32216 0.35152 0.0
C2044 C 0.23303 0.32197 0.36957 0.0
C2045 C 0.23676 0.30558 0.37828 0.0
C2046 C 0.21856 0.3554 0.31319 0.0
C2047 C 0.23269 0.36783 0.31582 0.0
C2048 C 0.21566 0.34142 0.32561 0.0
C2049 C 0.22725 0.33919 0.34059 0.0
C2050 C 0.24075 0.35239 0.34367 0.0
C2051 C 0.24328 0.36669 0.33152 0.0
H2052 H 0.37717 0.25674 0.63968 0.0
H2053 H 0.36095 0.20145 0.64965 0.0
H2054 H 0.3523 0.26029 0.61853 0.0
H2055 H 0.33652 0.20458 0.62767 0.0
H2056 H 0.27919 0.22958 0.62087 0.0
H2057 H 0.30868 0.21919 0.63099 0.0
H2058 H 0.33461 0.25533 0.59282 0.0
H2059 H 0.30496 0.26635 0.58337 0.0
C2060 C 0.36881 0.24506 0.63667 0.0
C2061 C 0.37076 0.22894 0.64657 0.0
C2062 C 0.35446 0.24706 0.62449 0.0
C2063 C 0.34198 0.23287 0.62174 0.0
C2064 C 0.34545 0.21601 0.62992 0.0
C2065 C 0.35959 0.21412 0.64236 0.0
C2066 C 0.29118 0.23503 0.61438 0.0
C2067 C 0.28977 0.24901 0.60159 0.0
C2068 C 0.30818 0.22897 0.62008 0.0
C2069 C 0.32418 0.23657 0.61291 0.0
C2070 C 0.32265 0.24948 0.59898 0.0
C2071 C 0.30564 0.25575 0.5935 0.0
H2072 H 0.77177 0.28675 0.63851 0.0
H2073 H 0.7463 0.30948 0.59106 0.0
H2074 H 0.77679 0.31694 0.65036 0.0
H2075 H 0.75231 0.33993 0.60229 0.0
H2076 H 0.73449 0.38389 0.64369 0.0
H2077 H 0.7389 0.35786 0.62406 0.0
H2078 H 0.78906 0.34549 0.65182 0.0
H2079 H 0.78377 0.37087 0.67223 0.0
C2080 C 0.7679 0.29827 0.63026 0.0
C2081 C 0.75838 0.29577 0.61402 0.0
C2082 C 0.77085 0.3157 0.63702 0.0
C2083 C 0.76465 0.33107 0.62748 0.0
C2084 C 0.75676 0.32849 0.61032 0.0
C2085 C 0.75347 0.31103 0.60377 0.0
C2086 C 0.7467 0.37588 0.64521 0.0
C2087 C 0.75865 0.37918 0.65958 0.0
C2088 C 0.74932 0.36091 0.63391 0.0
C2089 C 0.76418 0.34916 0.63654 0.0
C2090 C 0.77714 0.35377 0.64974 0.0
C2091 C 0.77425 0.36845 0.66132 0.0
H2092 H 0.20609 0.62467 0.67609 0.0
H2093 H 0.25603 0.61372 0.64787 0.0
H2094 H 0.19983 0.64978 0.65561 0.0
H2095 H 0.25071 0.63957 0.62825 0.0
H2096 H 0.24283 0.68822 0.59626 0.0
H2097 H 0.23721 0.65738 0.60664 0.0
H2098 H 0.2107 0.67875 0.65439 0.0
H2099 H 0.21527 0.70927 0.64329 0.0
C2100 C 0.21555 0.62748 0.66522 0.0
C2101 C 0.2316 0.61743 0.66359 0.0
C2102 C 0.21211 0.64201 0.6536 0.0
C2103 C 0.22498 0.64721 0.64052 0.0
C2104 C 0.24032 0.63607 0.63798 0.0
C2105 C 0.24349 0.62121 0.64929 0.0
C2106 C 0.23525 0.68619 0.60867 0.0
C2107 C 0.22967 0.70109 0.6191 0.0
C2108 C 0.23219 0.66852 0.61475 0.0
C2109 C 0.22395 0.66539 0.63166 0.0
C2110 C 0.21698 0.68038 0.64125 0.0
C2111 C 0.21965 0.69802 0.63492 0.0
H2112 H 0.19682 0.37106 0.22013 0.0
H2113 H 0.18266 0.40169 0.26786 0.0
H2114 H 0.16802 0.35502 0.22187 0.0
H2115 H 0.15401 0.38521 0.26991 0.0
H2116 H 0.14384 0.3204 0.28215 0.0
H2117 H 0.15711 0.35032 0.2778 0.0
H2118 H 0.13218 0.35379 0.22503 0.0
H2119 H 0.11831 0.32398 0.22973 0.0
C2120 C 0.18715 0.375 0.23045 0.0
C2121 C 0.19204 0.38745 0.24396 0.0
C2122 C 0.17062 0.36583 0.23145 0.0
C2123 C 0.15891 0.36871 0.24619 0.0
C2124 C 0.16283 0.38273 0.25844 0.0
C2125 C 0.1792 0.39223 0.25719 0.0
C2126 C 0.14041 0.32798 0.27006 0.0
C2127 C 0.13011 0.31994 0.25628 0.0
C2128 C 0.14797 0.34514 0.26755 0.0
C2129 C 0.14576 0.35431 0.25101 0.0
C2130 C 0.13402 0.34702 0.23792 0.0
C2131 C 0.12602 0.33002 0.24066 0.0
H2132 H 0.67639 0.11199 0.23524 0.0
H2133 H 0.68442 0.13769 0.2871 0.0
H2134 H 0.64641 0.12607 0.23292 0.0
H2135 H 0.65433 0.15118 0.2851 0.0
H2136 H 0.62731 0.19019 0.22906 0.0
H2137 H 0.64453 0.16201 0.2298 0.0
H2138 H 0.61886 0.14751 0.28026 0.0
H2139 H 0.60122 0.17549 0.2793 0.0
C2140 C 0.67134 0.11982 0.24658 0.0
C2141 C 0.68269 0.12385 0.26133 0.0
C2142 C 0.65425 0.12795 0.24519 0.0
C2143 C 0.64811 0.13976 0.25878 0.0
C2144 C 0.65863 0.142 0.2745 0.0
C2145 C 0.67588 0.1343 0.27565 0.0
C2146 C 0.62464 0.18056 0.23981 0.0
C2147 C 0.6131 0.18515 0.25422 0.0
C2148 C 0.63449 0.16438 0.24024 0.0
C2149 C 0.63318 0.15272 0.25523 0.0
C2150 C 0.62012 0.15631 0.26858 0.0
C2151 C 0.60997 0.17231 0.26795 0.0
H2152 H 0.81927 0.6062 0.25956 0.0
H2153 H 0.78293 0.63663 0.22533 0.0
H2154 H 0.84475 0.62468 0.24887 0.0
H2155 H 0.80798 0.65503 0.21484 0.0
H2156 H 0.85283 0.68606 0.19462 0.0
H2157 H 0.83594 0.658 0.19888 0.0
H2158 H 0.85271 0.65661 0.25496 0.0
H2159 H 0.87036 0.6844 0.25028 0.0
C2160 C 0.81685 0.61637 0.24926 0.0
C2161 C 0.79915 0.62006 0.24329 0.0
C2162 C 0.83138 0.62709 0.24332 0.0
C2163 C 0.82842 0.64146 0.23113 0.0
C2164 C 0.81089 0.644 0.22407 0.0
C2165 C 0.79645 0.63347 0.23012 0.0
C2166 C 0.85335 0.67938 0.20768 0.0
C2167 C 0.86271 0.68731 0.22217 0.0
C2168 C 0.84362 0.66339 0.21017 0.0
C2169 C 0.84264 0.65525 0.22735 0.0
C2170 C 0.85325 0.66245 0.24152 0.0
C2171 C 0.8633 0.67838 0.23891 0.0
H2172 H 0.37194 0.809 0.23492 0.0
H2173 H 0.38723 0.82826 0.28786 0.0
H2174 H 0.35609 0.83745 0.22906 0.0
H2175 H 0.37071 0.85657 0.28233 0.0
H2176 H 0.30526 0.86766 0.27188 0.0
H2177 H 0.33435 0.85344 0.27861 0.0
H2178 H 0.35614 0.8742 0.2285 0.0
H2179 H 0.32709 0.88911 0.22214 0.0
C2180 C 0.37264 0.81973 0.24492 0.0
C2181 C 0.38088 0.81662 0.26173 0.0
C2182 C 0.36358 0.836 0.2416 0.0
C2183 C 0.36216 0.84916 0.25528 0.0
C2184 C 0.37176 0.84668 0.27153 0.0
C2185 C 0.38126 0.83056 0.27465 0.0
C2186 C 0.31658 0.86999 0.26283 0.0
C2187 C 0.31409 0.87952 0.2466 0.0
C2188 C 0.33323 0.86189 0.26666 0.0
C2189 C 0.34746 0.86273 0.25404 0.0
C2190 C 0.34542 0.87352 0.23849 0.0
C2191 C 0.32886 0.88208 0.23491 0.0
H2192 H 0.15299 0.68578 0.80044 0.0
H2193 H 0.12583 0.67564 0.74972 0.0
H2194 H 0.17202 0.65928 0.79579 0.0
H2195 H 0.14558 0.64938 0.74451 0.0
H2196 H 0.1834 0.6011 0.74048 0.0
H2197 H 0.15818 0.61915 0.75262 0.0
H2198 H 0.19671 0.65723 0.77491 0.0
H2199 H 0.22146 0.63931 0.76307 0.0
C2200 C 0.15096 0.67766 0.78839 0.0
C2201 C 0.13822 0.68285 0.77527 0.0
C2202 C 0.16187 0.66251 0.78569 0.0
C2203 C 0.16063 0.65247 0.76958 0.0
C2204 C 0.14685 0.6568 0.7571 0.0
C2205 C 0.1356 0.67186 0.76 0.0
C2206 C 0.18636 0.61302 0.74851 0.0
C2207 C 0.20434 0.61887 0.75084 0.0
C2208 C 0.17196 0.62344 0.75527 0.0
C2209 C 0.1754 0.63967 0.76468 0.0
C2210 C 0.19348 0.64471 0.76797 0.0
C2211 C 0.20774 0.63447 0.7611 0.0
H2212 H 0.3861 0.17527 0.74768 0.0
H2213 H 0.34791 0.16996 0.70376 0.0
H2214 H 0.37136 0.14986 0.76339 0.0
H2215 H 0.33346 0.1447 0.71909 0.0
H2216 H 0.31311 0.14007 0.79132 0.0
H2217 H 0.33995 0.1523 0.77671 0.0
H2218 H 0.33391 0.11366 0.7332 0.0
H2219 H 0.30688 0.10125 0.74805 0.0
C2220 C 0.37501 0.16823 0.74112 0.0
C2221 C 0.3679 0.17464 0.72471 0.0
C2222 C 0.36659 0.15375 0.75007 0.0
C2223 C 0.3512 0.14535 0.7425 0.0
C2224 C 0.34537 0.1507 0.72521 0.0
C2225 C 0.35352 0.16531 0.7165 0.0
C2226 C 0.31786 0.13379 0.77893 0.0
C2227 C 0.30779 0.11997 0.7706 0.0
C2228 C 0.33337 0.14067 0.77065 0.0
C2229 C 0.33893 0.13406 0.75371 0.0
C2230 C 0.32984 0.11905 0.74622 0.0
C2231 C 0.31441 0.11195 0.7547 0.0
H2232 H 0.80874 0.39925 0.7356 0.0
H2233 H 0.77184 0.36087 0.75981 0.0
H2234 H 0.83448 0.38246 0.74845 0.0
H2235 H 0.79712 0.3442 0.77234 0.0
H2236 H 0.84168 0.31806 0.79901 0.0
H2237 H 0.82188 0.34378 0.79329 0.0
H2238 H 0.84793 0.35229 0.74156 0.0
H2239 H 0.86843 0.32686 0.7478 0.0
C2240 C 0.80613 0.38757 0.74411 0.0
C2241 C 0.78835 0.38129 0.74671 0.0
C2242 C 0.82084 0.37787 0.75128 0.0
C2243 C 0.81789 0.36196 0.76137 0.0
C2244 C 0.79997 0.35651 0.76488 0.0
C2245 C 0.78542 0.36602 0.75761 0.0
C2246 C 0.84346 0.32572 0.78661 0.0
C2247 C 0.85631 0.32035 0.77368 0.0
C2248 C 0.8321 0.34042 0.78331 0.0
C2249 C 0.83302 0.34982 0.76679 0.0
C2250 C 0.84691 0.34537 0.75445 0.0
C2251 C 0.85858 0.33077 0.75795 0.0
H2252 H 0.68585 0.85997 0.79058 0.0
H2253 H 0.6916 0.89862 0.74711 0.0
H2254 H 0.65855 0.84802 0.77661 0.0
H2255 H 0.66412 0.88645 0.73283 0.0
H2256 H 0.64802 0.83021 0.70412 0.0
H2257 H 0.66352 0.85521 0.71886 0.0
H2258 H 0.62676 0.85128 0.76422 0.0
H2259 H 0.61097 0.82614 0.74913 0.0
C2260 C 0.68091 0.86626 0.77827 0.0
C2261 C 0.69092 0.87998 0.76972 0.0
C2262 C 0.66515 0.85954 0.77035 0.0
C2263 C 0.65926 0.8662 0.75354 0.0
C2264 C 0.66841 0.88104 0.74577 0.0
C2265 C 0.68409 0.88801 0.75392 0.0
C2266 C 0.64289 0.83507 0.71699 0.0
C2267 C 0.62852 0.82614 0.72567 0.0
C2268 C 0.65165 0.84953 0.72536 0.0
C2269 C 0.64643 0.85514 0.74276 0.0
C2270 C 0.63107 0.84718 0.75081 0.0
C2271 C 0.62204 0.83285 0.74221 0.0
H2272 H 0.27104 0.18057 0.38464 0.0
H2273 H 0.2192 0.18408 0.35786 0.0
H2274 H 0.27574 0.15045 0.37156 0.0
H2275 H 0.22359 0.15388 0.34531 0.0
H2276 H 0.2826 0.13166 0.30782 0.0
H2277 H 0.28014 0.14815 0.33628 0.0
H2278 H 0.23087 0.11929 0.34886 0.0
H2279 H 0.23355 0.10242 0.32056 0.0
C2280 C 0.26022 0.17449 0.37679 0.0
C2281 C 0.24481 0.18465 0.3721 0.0
C2282 C 0.26297 0.1573 0.36925 0.0
C2283 C 0.25011 0.1499 0.35734 0.0
C2284 C 0.23369 0.15916 0.35457 0.0
C2285 C 0.23116 0.17649 0.36172 0.0
C2286 C 0.27179 0.12813 0.3171 0.0
C2287 C 0.25811 0.11601 0.31181 0.0
C2288 C 0.27038 0.13755 0.33345 0.0
C2289 C 0.25512 0.13521 0.3446 0.0
C2290 C 0.24271 0.1214 0.34044 0.0
C2291 C 0.24432 0.1117 0.32424 0.0
H2292 H 0.90031 0.22217 0.31875 0.0
H2293 H 0.87316 0.27121 0.30217 0.0
H2294 H 0.88339 0.22246 0.34724 0.0
H2295 H 0.85678 0.27186 0.33086 0.0
H2296 H 0.82704 0.26864 0.38272 0.0
H2297 H 0.85657 0.27028 0.36756 0.0
H2298 H 0.84723 0.21761 0.34398 0.0
H2299 H 0.81754 0.21633 0.35847 0.0
C2300 C 0.89156 0.23359 0.32164 0.0
C2301 C 0.88792 0.24661 0.30823 0.0
C2302 C 0.88181 0.23368 0.33791 0.0
C2303 C 0.86871 0.2471 0.34116 0.0
C2304 C 0.8669 0.26143 0.32877 0.0
C2305 C 0.87627 0.26108 0.31233 0.0
C2306 C 0.8317 0.25708 0.37497 0.0
C2307 C 0.82009 0.24235 0.3717 0.0
C2308 C 0.84854 0.25807 0.36625 0.0
C2309 C 0.85414 0.24409 0.35462 0.0
C2310 C 0.84334 0.22848 0.35305 0.0
C2311 C 0.82634 0.22774 0.3613 0.0
H2312 H 0.76439 0.89311 0.31384 0.0
H2313 H 0.71448 0.86344 0.30673 0.0
H2314 H 0.76949 0.87758 0.34264 0.0
H2315 H 0.71937 0.84827 0.3356 0.0
H2316 H 0.73126 0.81888 0.3848 0.0
H2317 H 0.7258 0.84804 0.37009 0.0
H2318 H 0.7768 0.84326 0.3419 0.0
H2319 H 0.78206 0.81402 0.35624 0.0
C2320 C 0.75403 0.88399 0.31886 0.0
C2321 C 0.73916 0.87926 0.30793 0.0
C2322 C 0.75703 0.87504 0.33531 0.0
C2323 C 0.74496 0.86156 0.34124 0.0
C2324 C 0.72888 0.85865 0.33144 0.0
C2325 C 0.72608 0.86731 0.31485 0.0
C2326 C 0.74171 0.82446 0.37613 0.0
C2327 C 0.75698 0.81408 0.37143 0.0
C2328 C 0.73851 0.84112 0.36765 0.0
C2329 C 0.75075 0.8478 0.35469 0.0
C2330 C 0.76715 0.83852 0.35189 0.0
C2331 C 0.77016 0.82172 0.36007 0.0
H2332 H 0.17548 0.72906 0.39684 0.0
H2333 H 0.18997 0.77959 0.37126 0.0
H2334 H 0.14627 0.72951 0.38113 0.0
H2335 H 0.16061 0.78037 0.35612 0.0
H2336 H 0.1327 0.72635 0.31551 0.0
H2337 H 0.14771 0.72622 0.34493 0.0
H2338 H 0.12425 0.77835 0.35719 0.0
H2339 H 0.1086 0.77812 0.3279 0.0
C2340 C 0.17201 0.74077 0.38869 0.0
C2341 C 0.18499 0.75424 0.38511 0.0
C2342 C 0.15533 0.74097 0.37966 0.0
C2343 C 0.15126 0.75491 0.36736 0.0
C2344 C 0.16332 0.76954 0.36565 0.0
C2345 C 0.18015 0.7691 0.37429 0.0
C2346 C 0.12995 0.73728 0.32491 0.0
C2347 C 0.11953 0.75222 0.31951 0.0
C2348 C 0.13852 0.73722 0.34177 0.0
C2349 C 0.13721 0.75234 0.35326 0.0
C2350 C 0.12538 0.76651 0.34859 0.0
C2351 C 0.11637 0.76632 0.33189 0.0
H2352 H 0.21043 0.80649 0.64205 0.0
H2353 H 0.25809 0.81188 0.60858 0.0
H2354 H 0.21587 0.83645 0.65462 0.0
H2355 H 0.2637 0.84187 0.6214 0.0
H2356 H 0.28104 0.85963 0.68241 0.0
H2357 H 0.27385 0.84413 0.65427 0.0
H2358 H 0.22162 0.87045 0.65298 0.0
H2359 H 0.22898 0.88624 0.68111 0.0
C2360 C 0.22162 0.81441 0.6368 0.0
C2361 C 0.23401 0.80671 0.62461 0.0
C2362 C 0.22472 0.83166 0.64395 0.0
C2363 C 0.24041 0.84139 0.63921 0.0
C2364 C 0.25158 0.8346 0.62539 0.0
C2365 C 0.24831 0.81744 0.618 0.0
C2366 C 0.26841 0.86284 0.67563 0.0
C2367 C 0.25547 0.87389 0.68409 0.0
C2368 C 0.26427 0.85397 0.65944 0.0
C2369 C 0.247 0.85581 0.6516 0.0
C2370 C 0.23497 0.86867 0.65883 0.0
C2371 C 0.23925 0.8778 0.67489 0.0
H2372 H 0.18799 0.22353 0.62264 0.0
H2373 H 0.17663 0.2737 0.59483 0.0
H2374 H 0.15929 0.22596 0.63875 0.0
H2375 H 0.14809 0.2764 0.61139 0.0
H2376 H 0.13786 0.28552 0.67656 0.0
H2377 H 0.15102 0.28223 0.64649 0.0
H2378 H 0.12389 0.23081 0.64016 0.0
H2379 H 0.11022 0.2344 0.67015 0.0
C2380 C 0.17894 0.23461 0.61932 0.0
C2381 C 0.18462 0.24851 0.60766 0.0
C2382 C 0.16247 0.23601 0.62853 0.0
C2383 C 0.1516 0.25152 0.6265 0.0
C2384 C 0.15625 0.26434 0.61322 0.0
C2385 C 0.17256 0.26272 0.60367 0.0
C2386 C 0.13396 0.27398 0.66837 0.0
C2387 C 0.12315 0.26017 0.67569 0.0
C2388 C 0.14145 0.27209 0.65111 0.0
C2389 C 0.13859 0.25616 0.64107 0.0
C2390 C 0.12627 0.24321 0.64762 0.0
C2391 C 0.1184 0.24533 0.66475 0.0
H2392 H 0.77904 0.11076 0.67152 0.0
H2393 H 0.72481 0.1316 0.67796 0.0
H2394 H 0.7824 0.12819 0.64356 0.0
H2395 H 0.72796 0.14859 0.64986 0.0
H2396 H 0.78459 0.19386 0.6343 0.0
H2397 H 0.7837 0.16336 0.64683 0.0
H2398 H 0.73569 0.15176 0.61553 0.0
H2399 H 0.73685 0.18225 0.60259 0.0
C2400 C 0.76747 0.11821 0.66642 0.0
C2401 C 0.75173 0.12004 0.67699 0.0
C2402 C 0.76945 0.12828 0.65047 0.0
C2403 C 0.75554 0.13992 0.64468 0.0
C2404 C 0.73889 0.13968 0.65392 0.0
C2405 C 0.73707 0.12995 0.67005 0.0
C2406 C 0.77437 0.18451 0.62942 0.0
C2407 C 0.7607 0.19047 0.61764 0.0
C2408 C 0.77388 0.16699 0.63655 0.0
C2409 C 0.75949 0.15525 0.6323 0.0
C2410 C 0.7469 0.16056 0.61904 0.0
C2411 C 0.74763 0.17799 0.61158 0.0
H2412 H 0.80466 0.77881 0.62718 0.0
H2413 H 0.81574 0.73053 0.5961 0.0
H2414 H 0.83369 0.77557 0.64254 0.0
H2415 H 0.84466 0.72705 0.61184 0.0
H2416 H 0.884 0.76605 0.67174 0.0
H2417 H 0.86888 0.77146 0.64273 0.0
H2418 H 0.84364 0.71882 0.64622 0.0
H2419 H 0.8583 0.71366 0.67533 0.0
C2420 C 0.81367 0.76798 0.62305 0.0
C2421 C 0.80784 0.75482 0.61063 0.0
C2422 C 0.83034 0.76613 0.63182 0.0
C2423 C 0.84131 0.7509 0.62855 0.0
C2424 C 0.83642 0.73887 0.61464 0.0
C2425 C 0.81989 0.74094 0.60558 0.0
C2426 C 0.87591 0.7553 0.66587 0.0
C2427 C 0.87215 0.73949 0.67582 0.0
C2428 C 0.86719 0.75846 0.64932 0.0
C2429 C 0.85498 0.74564 0.64231 0.0
C2430 C 0.85308 0.7289 0.6512 0.0
C2431 C 0.86144 0.72593 0.66791 0.0
H2432 H 0.32106 0.20346 0.14778 0.0
H2433 H 0.31644 0.24742 0.1095 0.0
H2434 H 0.34736 0.21784 0.16139 0.0
H2435 H 0.3429 0.2621 0.12336 0.0
H2436 H 0.35588 0.29025 0.18067 0.0
H2437 H 0.34168 0.27555 0.15487 0.0
H2438 H 0.37913 0.23083 0.15971 0.0
H2439 H 0.39362 0.24589 0.18564 0.0
C2440 C 0.32603 0.216 0.14197 0.0
C2441 C 0.3166 0.22453 0.12783 0.0
C2442 C 0.34123 0.22414 0.14963 0.0
C2443 C 0.34712 0.24116 0.14352 0.0
C2444 C 0.33859 0.24899 0.12835 0.0
C2445 C 0.32349 0.24062 0.12043 0.0
C2446 C 0.36144 0.27754 0.17586 0.0
C2447 C 0.37562 0.26902 0.18522 0.0
C2448 C 0.35343 0.2692 0.16095 0.0
C2449 C 0.35923 0.25199 0.15532 0.0
C2450 C 0.3744 0.2441 0.16381 0.0
C2451 C 0.38268 0.25267 0.1786 0.0
H2452 H 0.33484 0.69405 0.81115 0.0
H2453 H 0.36524 0.74284 0.82175 0.0
H2454 H 0.31482 0.7008 0.83641 0.0
H2455 H 0.34458 0.75017 0.84673 0.0
H2456 H 0.30544 0.75773 0.89343 0.0
H2457 H 0.33032 0.74369 0.87637 0.0
H2458 H 0.29159 0.72318 0.83752 0.0
H2459 H 0.26711 0.73682 0.85452 0.0
C2460 C 0.33732 0.70616 0.81907 0.0
C2461 C 0.35134 0.71812 0.81435 0.0
C2462 C 0.32584 0.71005 0.83351 0.0
C2463 C 0.32781 0.72623 0.84334 0.0
C2464 C 0.34271 0.73756 0.83948 0.0
C2465 C 0.35448 0.73345 0.82513 0.0
C2466 C 0.3023 0.74971 0.88155 0.0
C2467 C 0.28438 0.74838 0.87524 0.0
C2468 C 0.31653 0.74186 0.87168 0.0
C2469 C 0.31298 0.73238 0.85552 0.0
C2470 C 0.29488 0.73014 0.85 0.0
C2471 C 0.28079 0.73805 0.85971 0.0
H2472 H 0.26684 0.29211 0.87117 0.0
H2473 H 0.21901 0.3135 0.89707 0.0
H2474 H 0.27064 0.32053 0.85471 0.0
H2475 H 0.22244 0.34174 0.88004 0.0
H2476 H 0.21926 0.35211 0.81361 0.0
H2477 H 0.2183 0.33811 0.84354 0.0
H2478 H 0.27236 0.35753 0.85444 0.0
H2479 H 0.27298 0.37227 0.82465 0.0
C2480 C 0.25767 0.30322 0.874 0.0
C2481 C 0.2426 0.3006 0.88529 0.0
C2482 C 0.25983 0.3195 0.86459 0.0
C2483 C 0.24671 0.33322 0.86601 0.0
C2484 C 0.23274 0.33136 0.87878 0.0
C2485 C 0.23086 0.31523 0.88858 0.0
C2486 C 0.23053 0.35421 0.82279 0.0
C2487 C 0.24614 0.36329 0.81694 0.0
C2488 C 0.22999 0.34623 0.83993 0.0
C2489 C 0.24529 0.34673 0.85125 0.0
C2490 C 0.26036 0.3571 0.84599 0.0
C2491 C 0.26067 0.36557 0.82902 0.0
H2492 H 0.62301 0.26277 0.82582 0.0
H2493 H 0.67108 0.28266 0.79894 0.0
H2494 H 0.64094 0.25723 0.85334 0.0
H2495 H 0.68872 0.2769 0.82575 0.0
H2496 H 0.71941 0.27453 0.8737 0.0
H2497 H 0.69439 0.28661 0.85585 0.0
H2498 H 0.66491 0.23658 0.86349 0.0
H2499 H 0.68958 0.22508 0.88234 0.0
C2500 C 0.63733 0.266 0.82579 0.0
C2501 C 0.64562 0.2731 0.81018 0.0
C2502 C 0.64758 0.26286 0.84153 0.0
C2503 C 0.66623 0.26691 0.84191 0.0
C2504 C 0.67432 0.27412 0.82626 0.0
C2505 C 0.66419 0.2772 0.81069 0.0
C2506 C 0.70717 0.26655 0.87231 0.0
C2507 C 0.70636 0.24892 0.87928 0.0
C2508 C 0.69293 0.27332 0.86189 0.0
C2509 C 0.67794 0.26229 0.85767 0.0
C2510 C 0.67625 0.24543 0.86641 0.0
C2511 C 0.69036 0.23883 0.87727 0.0
H2512 H 0.72019 0.61937 0.81714 0.0
H2513 H 0.77422 0.63995 0.80858 0.0
H2514 H 0.71939 0.63393 0.84695 0.0
H2515 H 0.77371 0.65387 0.83852 0.0
H2516 H 0.72201 0.69895 0.86359 0.0
H2517 H 0.71986 0.67018 0.84752 0.0
H2518 H 0.76839 0.65151 0.87421 0.0
H2519 H 0.77024 0.68013 0.89078 0.0
C2520 C 0.73227 0.62611 0.82206 0.0
C2521 C 0.74725 0.62866 0.81059 0.0
C2522 C 0.73176 0.6345 0.83906 0.0
C2523 C 0.74644 0.64507 0.84498 0.0
C2524 C 0.76226 0.64565 0.83439 0.0
C2525 C 0.76257 0.63772 0.81724 0.0
C2526 C 0.73165 0.68834 0.86676 0.0
C2527 C 0.74638 0.69182 0.87826 0.0
C2528 C 0.73041 0.67183 0.85758 0.0
C2529 C 0.7441 0.65873 0.85949 0.0
C2530 C 0.75769 0.66141 0.87253 0.0
C2531 C 0.75867 0.67777 0.88206 0.0
H2532 H 0.72354 0.72972 0.13598 0.0
H2533 H 0.68464 0.75638 0.10138 0.0
H2534 H 0.69919 0.7153 0.1525 0.0
H2535 H 0.65987 0.74158 0.11794 0.0
H2536 H 0.62833 0.73783 0.17451 0.0
H2537 H 0.64751 0.74588 0.14863 0.0
H2538 H 0.67477 0.69423 0.15297 0.0
H2539 H 0.65629 0.68673 0.17922 0.0
C2540 C 0.70973 0.73207 0.13157 0.0
C2541 C 0.70598 0.74425 0.11749 0.0
C2542 C 0.6957 0.7237 0.14099 0.0
C2543 C 0.67751 0.72733 0.13662 0.0
C2544 C 0.67374 0.73864 0.12173 0.0
C2545 C 0.6879 0.74695 0.11215 0.0
C2546 C 0.63812 0.72808 0.16957 0.0
C2547 C 0.64114 0.71185 0.17899 0.0
C2548 C 0.64906 0.73262 0.15471 0.0
C2549 C 0.66296 0.72084 0.14898 0.0
C2550 C 0.66455 0.70381 0.15733 0.0
C2551 C 0.65392 0.69947 0.17232 0.0
H2552 H 0.21886 0.63821 0.18898 0.0
H2553 H 0.26978 0.61157 0.17828 0.0
H2554 H 0.21916 0.65111 0.15864 0.0
H2555 H 0.27036 0.62494 0.14794 0.0
H2556 H 0.22285 0.67819 0.10764 0.0
H2557 H 0.22195 0.64909 0.12346 0.0
H2558 H 0.27472 0.65999 0.14621 0.0
H2559 H 0.27535 0.68917 0.13086 0.0
C2560 C 0.22969 0.63446 0.17982 0.0
C2561 C 0.24437 0.62409 0.186 0.0
C2562 C 0.22986 0.64178 0.16239 0.0
C2563 C 0.24491 0.63918 0.151 0.0
C2564 C 0.25861 0.62714 0.15646 0.0
C2565 C 0.25823 0.61946 0.1738 0.0
C2566 C 0.23466 0.67392 0.11524 0.0
C2567 C 0.24908 0.68598 0.11826 0.0
C2568 C 0.23409 0.6573 0.12436 0.0
C2569 C 0.24814 0.65241 0.13624 0.0
C2570 C 0.26372 0.66334 0.13708 0.0
C2571 C 0.26409 0.6801 0.12832 0.0
H2572 H 0.70426 0.35096 0.18284 0.0
H2573 H 0.74781 0.38958 0.18816 0.0
H2574 H 0.71864 0.33809 0.15623 0.0
H2575 H 0.76257 0.37645 0.16136 0.0
H2576 H 0.79091 0.31912 0.1482 0.0
H2577 H 0.77643 0.34525 0.16194 0.0
H2578 H 0.73153 0.33999 0.12476 0.0
H2579 H 0.74631 0.31366 0.11081 0.0
C2580 C 0.7167 0.35703 0.17792 0.0
C2581 C 0.72513 0.37102 0.18762 0.0
C2582 C 0.72485 0.34979 0.16254 0.0
C2583 C 0.74181 0.35617 0.15676 0.0
C2584 C 0.74951 0.37126 0.16557 0.0
C2585 C 0.7411 0.37877 0.18085 0.0
C2586 C 0.77823 0.32391 0.14257 0.0
C2587 C 0.76952 0.31424 0.12871 0.0
C2588 C 0.77001 0.33903 0.15031 0.0
C2589 C 0.75275 0.34457 0.14455 0.0
C2590 C 0.74482 0.33593 0.12951 0.0
C2591 C 0.75324 0.3209 0.12152 0.0
loop_
_geom_bond_atom_site_label_1
_geom_bond_atom_site_label_2
_geom_bond_distance
_geom_bond_site_symmetry_2
_ccdc_geom_bond_type
O0 Cd1 2.223 . S
O0 C8 1.315 . S
Cd1 O0 2.223 . S
Cd1 O4 2.297 . S
Cd1 O5 2.439 . S
Cd1 O11 2.240 . S
Cd2 O3 2.240 . S
Cd2 O10 2.223 . S
Cd2 O12 2.297 . S
Cd2 O13 2.439 . S
O3 Cd2 2.240 . S
O3 C8 1.279 . S
O4 Cd1 2.297 . S
O4 C6 1.247 . S
O5 Cd1 2.439 . S
O5 C6 1.208 . S
C6 O4 1.247 . S
C6 O5 1.208 . S
C7 O12 1.247 . S
C7 O13 1.208 . S
C8 O0 1.315 . S
C8 O3 1.279 . S
C9 O10 1.315 . S
C9 O11 1.279 . S
O10 Cd2 2.223 . S
O10 C9 1.315 . S
O11 Cd1 2.240 . S
O11 C9 1.279 . S
O12 Cd2 2.297 . S
O12 C7 1.247 . S
O13 Cd2 2.439 . S
O13 C7 1.208 . S
O14 Cd15 2.223 . S
O14 C22 1.315 . S
Cd15 O14 2.223 . S
Cd15 O18 2.297 . S
Cd15 O19 2.439 . S
Cd15 O25 2.240 . S
Cd16 O17 2.240 . S
Cd16 O24 2.223 . S
Cd16 O26 2.297 . S
Cd16 O27 2.439 . S
O17 Cd16 2.240 . S
O17 C22 1.279 . S
O18 Cd15 2.297 . S
O18 C20 1.247 . S
O19 Cd15 2.439 . S
O19 C20 1.208 . S
C20 O18 1.247 . S
C20 O19 1.208 . S
C21 O26 1.247 . S
C21 O27 1.208 . S
C22 O14 1.315 . S
C22 O17 1.279 . S
C23 O24 1.315 . S
C23 O25 1.279 . S
O24 Cd16 2.223 . S
O24 C23 1.315 . S
O25 Cd15 2.240 . S
O25 C23 1.279 . S
O26 Cd16 2.297 . S
O26 C21 1.247 . S
O27 Cd16 2.439 . S
O27 C21 1.208 . S
O28 Cd29 2.223 . S
O28 C36 1.315 . S
Cd29 O28 2.223 . S
Cd29 O32 2.297 . S
Cd29 O33 2.439 . S
Cd29 O39 2.240 . S
Cd30 O31 2.240 . S
Cd30 O38 2.223 . S
Cd30 O40 2.297 . S
Cd30 O41 2.439 . S
O31 Cd30 2.240 . S
O31 C36 1.279 . S
O32 Cd29 2.297 . S
O32 C34 1.247 . S
O33 Cd29 2.439 . S
O33 C34 1.208 . S
C34 O32 1.247 . S
C34 O33 1.208 . S
C35 O40 1.247 . S
C35 O41 1.208 . S
C36 O28 1.315 . S
C36 O31 1.279 . S
C37 O38 1.315 . S
C37 O39 1.279 . S
O38 Cd30 2.223 . S
O38 C37 1.315 . S
O39 Cd29 2.240 . S
O39 C37 1.279 . S
O40 Cd30 2.297 . S
O40 C35 1.247 . S
O41 Cd30 2.439 . S
O41 C35 1.208 . S
O42 Cd43 2.223 . S
O42 C50 1.315 . S
Cd43 O42 2.223 . S
Cd43 O46 2.297 . S
Cd43 O47 2.439 . S
Cd43 O53 2.240 . S
Cd44 O45 2.240 . S
Cd44 O52 2.223 . S
Cd44 O54 2.297 . S
Cd44 O55 2.439 . S
O45 Cd44 2.240 . S
O45 C50 1.279 . S
O46 Cd43 2.297 . S
O46 C48 1.247 . S
O47 Cd43 2.439 . S
O47 C48 1.208 . S
C48 O46 1.247 . S
C48 O47 1.208 . S
C49 O54 1.247 . S
C49 O55 1.208 . S
C50 O42 1.315 . S
C50 O45 1.279 . S
C51 O52 1.315 . S
C51 O53 1.279 . S
O52 Cd44 2.223 . S
O52 C51 1.315 . S
O53 Cd43 2.240 . S
O53 C51 1.279 . S
O54 Cd44 2.297 . S
O54 C49 1.247 . S
O55 Cd44 2.439 . S
O55 C49 1.208 . S
O56 Cd57 2.223 . S
O56 C64 1.315 . S
Cd57 O56 2.223 . S
Cd57 O60 2.297 . S
Cd57 O61 2.439 . S
Cd57 O67 2.240 . S
Cd58 O59 2.240 . S
Cd58 O66 2.223 . S
Cd58 O68 2.297 . S
Cd58 O69 2.439 . S
O59 Cd58 2.240 . S
O59 C64 1.279 . S
O60 Cd57 2.297 . S
O60 C62 1.247 . S
O61 Cd57 2.439 . S
O61 C62 1.208 . S
C62 O60 1.247 . S
C62 O61 1.208 . S
C63 O68 1.247 . S
C63 O69 1.208 . S
C64 O56 1.315 . S
C64 O59 1.279 . S
C65 O66 1.315 . S
C65 O67 1.279 . S
O66 Cd58 2.223 . S
O66 C65 1.315 . S
O67 Cd57 2.240 . S
O67 C65 1.279 . S
O68 Cd58 2.297 . S
O68 C63 1.247 . S
O69 Cd58 2.439 . S
O69 C63 1.208 . S
O70 Cd71 2.223 . S
O70 C78 1.315 . S
Cd71 O70 2.223 . S
Cd71 O74 2.297 . S
Cd71 O75 2.439 . S
Cd71 O81 2.240 . S
Cd72 O73 2.240 . S
Cd72 O80 2.223 . S
Cd72 O82 2.297 . S
Cd72 O83 2.439 . S
O73 Cd72 2.240 . S
O73 C78 1.279 . S
O74 Cd71 2.297 . S
O74 C76 1.247 . S
O75 Cd71 2.439 . S
O75 C76 1.208 . S
C76 O74 1.247 . S
C76 O75 1.208 . S
C77 O82 1.247 . S
C77 O83 1.208 . S
C78 O70 1.315 . S
C78 O73 1.279 . S
C79 O80 1.315 . S
C79 O81 1.279 . S
O80 Cd72 2.223 . S
O80 C79 1.315 . S
O81 Cd71 2.240 . S
O81 C79 1.279 . S
O82 Cd72 2.297 . S
O82 C77 1.247 . S
O83 Cd72 2.439 . S
O83 C77 1.208 . S
O84 Cd85 2.223 . S
O84 C92 1.315 . S
Cd85 O84 2.223 . S
Cd85 O88 2.297 . S
Cd85 O89 2.439 . S
Cd85 O95 2.240 . S
Cd86 O87 2.240 . S
Cd86 O94 2.223 . S
Cd86 O96 2.297 . S
Cd86 O97 2.439 . S
O87 Cd86 2.240 . S
O87 C92 1.279 . S
O88 Cd85 2.297 . S
O88 C90 1.247 . S
O89 Cd85 2.439 . S
O89 C90 1.208 . S
C90 O88 1.247 . S
C90 O89 1.208 . S
C91 O96 1.247 . S
C91 O97 1.208 . S
C92 O84 1.315 . S
C92 O87 1.279 . S
C93 O94 1.315 . S
C93 O95 1.279 . S
O94 Cd86 2.223 . S
O94 C93 1.315 . S
O95 Cd85 2.240 . S
O95 C93 1.279 . S
O96 Cd86 2.297 . S
O96 C91 1.247 . S
O97 Cd86 2.439 . S
O97 C91 1.208 . S
O98 Cd99 2.223 . S
O98 C106 1.315 . S
Cd99 O98 2.223 . S
Cd99 O102 2.297 . S
Cd99 O103 2.439 . S
Cd99 O109 2.240 . S
Cd100 O101 2.240 . S
Cd100 O108 2.223 . S
Cd100 O110 2.297 . S
Cd100 O111 2.439 . S
O101 Cd100 2.240 . S
O101 C106 1.279 . S
O102 Cd99 2.297 . S
O102 C104 1.247 . S
O103 Cd99 2.439 . S
O103 C104 1.208 . S
C104 O102 1.247 . S
C104 O103 1.208 . S
C105 O110 1.247 . S
C105 O111 1.208 . S
C106 O98 1.315 . S
C106 O101 1.279 . S
C107 O108 1.315 . S
C107 O109 1.279 . S
O108 Cd100 2.223 . S
O108 C107 1.315 . S
O109 Cd99 2.240 . S
O109 C107 1.279 . S
O110 Cd100 2.297 . S
O110 C105 1.247 . S
O111 Cd100 2.439 . S
O111 C105 1.208 . S
O112 Cd113 2.223 . S
O112 C120 1.315 . S
Cd113 O112 2.223 . S
Cd113 O116 2.297 . S
Cd113 O117 2.439 . S
Cd113 O123 2.240 . S
Cd114 O115 2.240 . S
Cd114 O122 2.223 . S
Cd114 O124 2.297 . S
Cd114 O125 2.439 . S
O115 Cd114 2.240 . S
O115 C120 1.279 . S
O116 Cd113 2.297 . S
O116 C118 1.247 . S
O117 Cd113 2.439 . S
O117 C118 1.208 . S
C118 O116 1.247 . S
C118 O117 1.208 . S
C119 O124 1.247 . S
C119 O125 1.208 . S
C120 O112 1.315 . S
C120 O115 1.279 . S
C121 O122 1.315 . S
C121 O123 1.279 . S
O122 Cd114 2.223 . S
O122 C121 1.315 . S
O123 Cd113 2.240 . S
O123 C121 1.279 . S
O124 Cd114 2.297 . S
O124 C119 1.247 . S
O125 Cd114 2.439 . S
O125 C119 1.208 . S
O126 Cd127 2.223 . S
O126 C134 1.315 . S
Cd127 O126 2.223 . S
Cd127 O130 2.297 . S
Cd127 O131 2.439 . S
Cd127 O137 2.240 . S
Cd128 O129 2.240 . S
Cd128 O136 2.223 . S
Cd128 O138 2.297 . S
Cd128 O139 2.439 . S
O129 Cd128 2.240 . S
O129 C134 1.279 . S
O130 Cd127 2.297 . S
O130 C132 1.247 . S
O131 Cd127 2.439 . S
O131 C132 1.208 . S
C132 O130 1.247 . S
C132 O131 1.208 . S
C133 O138 1.247 . S
C133 O139 1.208 . S
C134 O126 1.315 . S
C134 O129 1.279 . S
C135 O136 1.315 . S
C135 O137 1.279 . S
O136 Cd128 2.223 . S
O136 C135 1.315 . S
O137 Cd127 2.240 . S
O137 C135 1.279 . S
O138 Cd128 2.297 . S
O138 C133 1.247 . S
O139 Cd128 2.439 . S
O139 C133 1.208 . S
O140 Cd141 2.223 . S
O140 C148 1.315 . S
Cd141 O140 2.223 . S
Cd141 O144 2.297 . S
Cd141 O145 2.439 . S
Cd141 O151 2.240 . S
Cd142 O143 2.240 . S
Cd142 O150 2.223 . S
Cd142 O152 2.297 . S
Cd142 O153 2.439 . S
O143 Cd142 2.240 . S
O143 C148 1.279 . S
O144 Cd141 2.297 . S
O144 C146 1.247 . S
O145 Cd141 2.439 . S
O145 C146 1.208 . S
C146 O144 1.247 . S
C146 O145 1.208 . S
C147 O152 1.247 . S
C147 O153 1.208 . S
C148 O140 1.315 . S
C148 O143 1.279 . S
C149 O150 1.315 . S
C149 O151 1.279 . S
O150 Cd142 2.223 . S
O150 C149 1.315 . S
O151 Cd141 2.240 . S
O151 C149 1.279 . S
O152 Cd142 2.297 . S
O152 C147 1.247 . S
O153 Cd142 2.439 . S
O153 C147 1.208 . S
O154 Cd155 2.223 . S
O154 C162 1.315 . S
Cd155 O154 2.223 . S
Cd155 O158 2.297 . S
Cd155 O159 2.439 . S
Cd155 O165 2.240 . S
Cd156 O157 2.240 . S
Cd156 O164 2.223 . S
Cd156 O166 2.297 . S
Cd156 O167 2.439 . S
O157 Cd156 2.240 . S
O157 C162 1.279 . S
O158 Cd155 2.297 . S
O158 C160 1.247 . S
O159 Cd155 2.439 . S
O159 C160 1.208 . S
C160 O158 1.247 . S
C160 O159 1.208 . S
C161 O166 1.247 . S
C161 O167 1.208 . S
C162 O154 1.315 . S
C162 O157 1.279 . S
C163 O164 1.315 . S
C163 O165 1.279 . S
O164 Cd156 2.223 . S
O164 C163 1.315 . S
O165 Cd155 2.240 . S
O165 C163 1.279 . S
O166 Cd156 2.297 . S
O166 C161 1.247 . S
O167 Cd156 2.439 . S
O167 C161 1.208 . S
O168 Cd169 2.223 . S
O168 C176 1.315 . S
Cd169 O168 2.223 . S
Cd169 O172 2.297 . S
Cd169 O173 2.439 . S
Cd169 O179 2.240 . S
Cd170 O171 2.240 . S
Cd170 O178 2.223 . S
Cd170 O180 2.297 . S
Cd170 O181 2.439 . S
O171 Cd170 2.240 . S
O171 C176 1.279 . S
O172 Cd169 2.297 . S
O172 C174 1.247 . S
O173 Cd169 2.439 . S
O173 C174 1.208 . S
C174 O172 1.247 . S
C174 O173 1.208 . S
C175 O180 1.247 . S
C175 O181 1.208 . S
C176 O168 1.315 . S
C176 O171 1.279 . S
C177 O178 1.315 . S
C177 O179 1.279 . S
O178 Cd170 2.223 . S
O178 C177 1.315 . S
O179 Cd169 2.240 . S
O179 C177 1.279 . S
O180 Cd170 2.297 . S
O180 C175 1.247 . S
O181 Cd170 2.439 . S
O181 C175 1.208 . S
O182 Cd183 2.223 . S
O182 C190 1.315 . S
Cd183 O182 2.223 . S
Cd183 O186 2.297 . S
Cd183 O187 2.439 . S
Cd183 O193 2.240 . S
Cd184 O185 2.240 . S
Cd184 O192 2.223 . S
Cd184 O194 2.297 . S
Cd184 O195 2.439 . S
O185 Cd184 2.240 . S
O185 C190 1.279 . S
O186 Cd183 2.297 . S
O186 C188 1.247 . S
O187 Cd183 2.439 . S
O187 C188 1.208 . S
C188 O186 1.247 . S
C188 O187 1.208 . S
C189 O194 1.247 . S
C189 O195 1.208 . S
C190 O182 1.315 . S
C190 O185 1.279 . S
C191 O192 1.315 . S
C191 O193 1.279 . S
O192 Cd184 2.223 . S
O192 C191 1.315 . S
O193 Cd183 2.240 . S
O193 C191 1.279 . S
O194 Cd184 2.297 . S
O194 C189 1.247 . S
O195 Cd184 2.439 . S
O195 C189 1.208 . S
O196 Cd197 2.223 . S
O196 C204 1.315 . S
Cd197 O196 2.223 . S
Cd197 O200 2.297 . S
Cd197 O201 2.439 . S
Cd197 O207 2.240 . S
Cd198 O199 2.240 . S
Cd198 O206 2.223 . S
Cd198 O208 2.297 . S
Cd198 O209 2.439 . S
O199 Cd198 2.240 . S
O199 C204 1.279 . S
O200 Cd197 2.297 . S
O200 C202 1.247 . S
O201 Cd197 2.439 . S
O201 C202 1.208 . S
C202 O200 1.247 . S
C202 O201 1.208 . S
C203 O208 1.247 . S
C203 O209 1.208 . S
C204 O196 1.315 . S
C204 O199 1.279 . S
C205 O206 1.315 . S
C205 O207 1.279 . S
O206 Cd198 2.223 . S
O206 C205 1.315 . S
O207 Cd197 2.240 . S
O207 C205 1.279 . S
O208 Cd198 2.297 . S
O208 C203 1.247 . S
O209 Cd198 2.439 . S
O209 C203 1.208 . S
O210 Cd211 2.223 . S
O210 C218 1.315 . S
Cd211 O210 2.223 . S
Cd211 O214 2.297 . S
Cd211 O215 2.439 . S
Cd211 O221 2.240 . S
Cd212 O213 2.240 . S
Cd212 O220 2.223 . S
Cd212 O222 2.297 . S
Cd212 O223 2.439 . S
O213 Cd212 2.240 . S
O213 C218 1.279 . S
O214 Cd211 2.297 . S
O214 C216 1.247 . S
O215 Cd211 2.439 . S
O215 C216 1.208 . S
C216 O214 1.247 . S
C216 O215 1.208 . S
C217 O222 1.247 . S
C217 O223 1.208 . S
C218 O210 1.315 . S
C218 O213 1.279 . S
C219 O220 1.315 . S
C219 O221 1.279 . S
O220 Cd212 2.223 . S
O220 C219 1.315 . S
O221 Cd211 2.240 . S
O221 C219 1.279 . S
O222 Cd212 2.297 . S
O222 C217 1.247 . S
O223 Cd212 2.439 . S
O223 C217 1.208 . S
O224 Cd225 2.223 . S
O224 C232 1.315 . S
Cd225 O224 2.223 . S
Cd225 O228 2.297 . S
Cd225 O229 2.439 . S
Cd225 O235 2.240 . S
Cd226 O227 2.240 . S
Cd226 O234 2.223 . S
Cd226 O236 2.297 . S
Cd226 O237 2.439 . S
O227 Cd226 2.240 . S
O227 C232 1.279 . S
O228 Cd225 2.297 . S
O228 C230 1.247 . S
O229 Cd225 2.439 . S
O229 C230 1.208 . S
C230 O228 1.247 . S
C230 O229 1.208 . S
C231 O236 1.247 . S
C231 O237 1.208 . S
C232 O224 1.315 . S
C232 O227 1.279 . S
C233 O234 1.315 . S
C233 O235 1.279 . S
O234 Cd226 2.223 . S
O234 C233 1.315 . S
O235 Cd225 2.240 . S
O235 C233 1.279 . S
O236 Cd226 2.297 . S
O236 C231 1.247 . S
O237 Cd226 2.439 . S
O237 C231 1.208 . S
O238 Cd239 2.223 . S
O238 C246 1.315 . S
Cd239 O238 2.223 . S
Cd239 O242 2.297 . S
Cd239 O243 2.439 . S
Cd239 O249 2.240 . S
Cd240 O241 2.240 . S
Cd240 O248 2.223 . S
Cd240 O250 2.297 . S
Cd240 O251 2.439 . S
O241 Cd240 2.240 . S
O241 C246 1.279 . S
O242 Cd239 2.297 . S
O242 C244 1.247 . S
O243 Cd239 2.439 . S
O243 C244 1.208 . S
C244 O242 1.247 . S
C244 O243 1.208 . S
C245 O250 1.247 . S
C245 O251 1.208 . S
C246 O238 1.315 . S
C246 O241 1.279 . S
C247 O248 1.315 . S
C247 O249 1.279 . S
O248 Cd240 2.223 . S
O248 C247 1.315 . S
O249 Cd239 2.240 . S
O249 C247 1.279 . S
O250 Cd240 2.297 . S
O250 C245 1.247 . S
O251 Cd240 2.439 . S
O251 C245 1.208 . S
O252 Cd253 2.223 . S
O252 C260 1.315 . S
Cd253 O252 2.223 . S
Cd253 O256 2.297 . S
Cd253 O257 2.439 . S
Cd253 O263 2.240 . S
Cd254 O255 2.240 . S
Cd254 O262 2.223 . S
Cd254 O264 2.297 . S
Cd254 O265 2.439 . S
O255 Cd254 2.240 . S
O255 C260 1.279 . S
O256 Cd253 2.297 . S
O256 C258 1.247 . S
O257 Cd253 2.439 . S
O257 C258 1.208 . S
C258 O256 1.247 . S
C258 O257 1.208 . S
C259 O264 1.247 . S
C259 O265 1.208 . S
C260 O252 1.315 . S
C260 O255 1.279 . S
C261 O262 1.315 . S
C261 O263 1.279 . S
O262 Cd254 2.223 . S
O262 C261 1.315 . S
O263 Cd253 2.240 . S
O263 C261 1.279 . S
O264 Cd254 2.297 . S
O264 C259 1.247 . S
O265 Cd254 2.439 . S
O265 C259 1.208 . S
O266 Cd267 2.223 . S
O266 C274 1.315 . S
Cd267 O266 2.223 . S
Cd267 O270 2.297 . S
Cd267 O271 2.439 . S
Cd267 O277 2.240 . S
Cd268 O269 2.240 . S
Cd268 O276 2.223 . S
Cd268 O278 2.297 . S
Cd268 O279 2.439 . S
O269 Cd268 2.240 . S
O269 C274 1.279 . S
O270 Cd267 2.297 . S
O270 C272 1.247 . S
O271 Cd267 2.439 . S
O271 C272 1.208 . S
C272 O270 1.247 . S
C272 O271 1.208 . S
C273 O278 1.247 . S
C273 O279 1.208 . S
C274 O266 1.315 . S
C274 O269 1.279 . S
C275 O276 1.315 . S
C275 O277 1.279 . S
O276 Cd268 2.223 . S
O276 C275 1.315 . S
O277 Cd267 2.240 . S
O277 C275 1.279 . S
O278 Cd268 2.297 . S
O278 C273 1.247 . S
O279 Cd268 2.439 . S
O279 C273 1.208 . S
O280 Cd281 2.223 . S
O280 C288 1.315 . S
Cd281 O280 2.223 . S
Cd281 O284 2.297 . S
Cd281 O285 2.439 . S
Cd281 O291 2.240 . S
Cd282 O283 2.240 . S
Cd282 O290 2.223 . S
Cd282 O292 2.297 . S
Cd282 O293 2.439 . S
O283 Cd282 2.240 . S
O283 C288 1.279 . S
O284 Cd281 2.297 . S
O284 C286 1.247 . S
O285 Cd281 2.439 . S
O285 C286 1.208 . S
C286 O284 1.247 . S
C286 O285 1.208 . S
C287 O292 1.247 . S
C287 O293 1.208 . S
C288 O280 1.315 . S
C288 O283 1.279 . S
C289 O290 1.315 . S
C289 O291 1.279 . S
O290 Cd282 2.223 . S
O290 C289 1.315 . S
O291 Cd281 2.240 . S
O291 C289 1.279 . S
O292 Cd282 2.297 . S
O292 C287 1.247 . S
O293 Cd282 2.439 . S
O293 C287 1.208 . S
O294 Cd295 2.223 . S
O294 C302 1.315 . S
Cd295 O294 2.223 . S
Cd295 O298 2.297 . S
Cd295 O299 2.439 . S
Cd295 O305 2.240 . S
Cd296 O297 2.240 . S
Cd296 O304 2.223 . S
Cd296 O306 2.297 . S
Cd296 O307 2.439 . S
O297 Cd296 2.240 . S
O297 C302 1.279 . S
O298 Cd295 2.297 . S
O298 C300 1.247 . S
O299 Cd295 2.439 . S
O299 C300 1.208 . S
C300 O298 1.247 . S
C300 O299 1.208 . S
C301 O306 1.247 . S
C301 O307 1.208 . S
C302 O294 1.315 . S
C302 O297 1.279 . S
C303 O304 1.315 . S
C303 O305 1.279 . S
O304 Cd296 2.223 . S
O304 C303 1.315 . S
O305 Cd295 2.240 . S
O305 C303 1.279 . S
O306 Cd296 2.297 . S
O306 C301 1.247 . S
O307 Cd296 2.439 . S
O307 C301 1.208 . S
O308 Cd309 2.223 . S
O308 C316 1.315 . S
Cd309 O308 2.223 . S
Cd309 O312 2.297 . S
Cd309 O313 2.439 . S
Cd309 O319 2.240 . S
Cd310 O311 2.240 . S
Cd310 O318 2.223 . S
Cd310 O320 2.297 . S
Cd310 O321 2.439 . S
O311 Cd310 2.240 . S
O311 C316 1.279 . S
O312 Cd309 2.297 . S
O312 C314 1.247 . S
O313 Cd309 2.439 . S
O313 C314 1.208 . S
C314 O312 1.247 . S
C314 O313 1.208 . S
C315 O320 1.247 . S
C315 O321 1.208 . S
C316 O308 1.315 . S
C316 O311 1.279 . S
C317 O318 1.315 . S
C317 O319 1.279 . S
O318 Cd310 2.223 . S
O318 C317 1.315 . S
O319 Cd309 2.240 . S
O319 C317 1.279 . S
O320 Cd310 2.297 . S
O320 C315 1.247 . S
O321 Cd310 2.439 . S
O321 C315 1.208 . S
O322 Cd323 2.223 . S
O322 C330 1.315 . S
Cd323 O322 2.223 . S
Cd323 O326 2.297 . S
Cd323 O327 2.439 . S
Cd323 O333 2.240 . S
Cd324 O325 2.240 . S
Cd324 O332 2.223 . S
Cd324 O334 2.297 . S
Cd324 O335 2.439 . S
O325 Cd324 2.240 . S
O325 C330 1.279 . S
O326 Cd323 2.297 . S
O326 C328 1.247 . S
O327 Cd323 2.439 . S
O327 C328 1.208 . S
C328 O326 1.247 . S
C328 O327 1.208 . S
C329 O334 1.247 . S
C329 O335 1.208 . S
C330 O322 1.315 . S
C330 O325 1.279 . S
C331 O332 1.315 . S
C331 O333 1.279 . S
O332 Cd324 2.223 . S
O332 C331 1.315 . S
O333 Cd323 2.240 . S
O333 C331 1.279 . S
O334 Cd324 2.297 . S
O334 C329 1.247 . S
O335 Cd324 2.439 . S
O335 C329 1.208 . S
O336 Cd337 2.223 . S
O336 C344 1.315 . S
Cd337 O336 2.223 . S
Cd337 O340 2.297 . S
Cd337 O341 2.439 . S
Cd337 O347 2.240 . S
Cd338 O339 2.240 . S
Cd338 O346 2.223 . S
Cd338 O348 2.297 . S
Cd338 O349 2.439 . S
O339 Cd338 2.240 . S
O339 C344 1.279 . S
O340 Cd337 2.297 . S
O340 C342 1.247 . S
O341 Cd337 2.439 . S
O341 C342 1.208 . S
C342 O340 1.247 . S
C342 O341 1.208 . S
C343 O348 1.247 . S
C343 O349 1.208 . S
C344 O336 1.315 . S
C344 O339 1.279 . S
C345 O346 1.315 . S
C345 O347 1.279 . S
O346 Cd338 2.223 . S
O346 C345 1.315 . S
O347 Cd337 2.240 . S
O347 C345 1.279 . S
O348 Cd338 2.297 . S
O348 C343 1.247 . S
O349 Cd338 2.439 . S
O349 C343 1.208 . S
O350 Cd351 2.223 . S
O350 C358 1.315 . S
Cd351 O350 2.223 . S
Cd351 O354 2.297 . S
Cd351 O355 2.439 . S
Cd351 O361 2.240 . S
Cd352 O353 2.240 . S
Cd352 O360 2.223 . S
Cd352 O362 2.297 . S
Cd352 O363 2.439 . S
O353 Cd352 2.240 . S
O353 C358 1.279 . S
O354 Cd351 2.297 . S
O354 C356 1.247 . S
O355 Cd351 2.439 . S
O355 C356 1.208 . S
C356 O354 1.247 . S
C356 O355 1.208 . S
C357 O362 1.247 . S
C357 O363 1.208 . S
C358 O350 1.315 . S
C358 O353 1.279 . S
C359 O360 1.315 . S
C359 O361 1.279 . S
O360 Cd352 2.223 . S
O360 C359 1.315 . S
O361 Cd351 2.240 . S
O361 C359 1.279 . S
O362 Cd352 2.297 . S
O362 C357 1.247 . S
O363 Cd352 2.439 . S
O363 C357 1.208 . S
O364 Cd365 2.223 . S
O364 C372 1.315 . S
Cd365 O364 2.223 . S
Cd365 O368 2.297 . S
Cd365 O369 2.439 . S
Cd365 O375 2.240 . S
Cd366 O367 2.240 . S
Cd366 O374 2.223 . S
Cd366 O376 2.297 . S
Cd366 O377 2.439 . S
O367 Cd366 2.240 . S
O367 C372 1.279 . S
O368 Cd365 2.297 . S
O368 C370 1.247 . S
O369 Cd365 2.439 . S
O369 C370 1.208 . S
C370 O368 1.247 . S
C370 O369 1.208 . S
C371 O376 1.247 . S
C371 O377 1.208 . S
C372 O364 1.315 . S
C372 O367 1.279 . S
C373 O374 1.315 . S
C373 O375 1.279 . S
O374 Cd366 2.223 . S
O374 C373 1.315 . S
O375 Cd365 2.240 . S
O375 C373 1.279 . S
O376 Cd366 2.297 . S
O376 C371 1.247 . S
O377 Cd366 2.439 . S
O377 C371 1.208 . S
O378 Cd379 2.223 . S
O378 C386 1.315 . S
Cd379 O378 2.223 . S
Cd379 O382 2.297 . S
Cd379 O383 2.439 . S
Cd379 O389 2.240 . S
Cd380 O381 2.240 . S
Cd380 O388 2.223 . S
Cd380 O390 2.297 . S
Cd380 O391 2.439 . S
O381 Cd380 2.240 . S
O381 C386 1.279 . S
O382 Cd379 2.297 . S
O382 C384 1.247 . S
O383 Cd379 2.439 . S
O383 C384 1.208 . S
C384 O382 1.247 . S
C384 O383 1.208 . S
C385 O390 1.247 . S
C385 O391 1.208 . S
C386 O378 1.315 . S
C386 O381 1.279 . S
C387 O388 1.315 . S
C387 O389 1.279 . S
O388 Cd380 2.223 . S
O388 C387 1.315 . S
O389 Cd379 2.240 . S
O389 C387 1.279 . S
O390 Cd380 2.297 . S
O390 C385 1.247 . S
O391 Cd380 2.439 . S
O391 C385 1.208 . S
O392 Cd393 2.223 . S
O392 C400 1.315 . S
Cd393 O392 2.223 . S
Cd393 O396 2.297 . S
Cd393 O397 2.439 . S
Cd393 O403 2.240 . S
Cd394 O395 2.240 . S
Cd394 O402 2.223 . S
Cd394 O404 2.297 . S
Cd394 O405 2.439 . S
O395 Cd394 2.240 . S
O395 C400 1.279 . S
O396 Cd393 2.297 . S
O396 C398 1.247 . S
O397 Cd393 2.439 . S
O397 C398 1.208 . S
C398 O396 1.247 . S
C398 O397 1.208 . S
C399 O404 1.247 . S
C399 O405 1.208 . S
C400 O392 1.315 . S
C400 O395 1.279 . S
C401 O402 1.315 . S
C401 O403 1.279 . S
O402 Cd394 2.223 . S
O402 C401 1.315 . S
O403 Cd393 2.240 . S
O403 C401 1.279 . S
O404 Cd394 2.297 . S
O404 C399 1.247 . S
O405 Cd394 2.439 . S
O405 C399 1.208 . S
O406 Cd407 2.223 . S
O406 C414 1.315 . S
Cd407 O406 2.223 . S
Cd407 O410 2.297 . S
Cd407 O411 2.439 . S
Cd407 O417 2.240 . S
Cd408 O409 2.240 . S
Cd408 O416 2.223 . S
Cd408 O418 2.297 . S
Cd408 O419 2.439 . S
O409 Cd408 2.240 . S
O409 C414 1.279 . S
O410 Cd407 2.297 . S
O410 C412 1.247 . S
O411 Cd407 2.439 . S
O411 C412 1.208 . S
C412 O410 1.247 . S
C412 O411 1.208 . S
C413 O418 1.247 . S
C413 O419 1.208 . S
C414 O406 1.315 . S
C414 O409 1.279 . S
C415 O416 1.315 . S
C415 O417 1.279 . S
O416 Cd408 2.223 . S
O416 C415 1.315 . S
O417 Cd407 2.240 . S
O417 C415 1.279 . S
O418 Cd408 2.297 . S
O418 C413 1.247 . S
O419 Cd408 2.439 . S
O419 C413 1.208 . S
O420 Cd421 2.223 . S
O420 C428 1.315 . S
Cd421 O420 2.223 . S
Cd421 O424 2.297 . S
Cd421 O425 2.439 . S
Cd421 O431 2.240 . S
Cd422 O423 2.240 . S
Cd422 O430 2.223 . S
Cd422 O432 2.297 . S
Cd422 O433 2.439 . S
O423 Cd422 2.240 . S
O423 C428 1.279 . S
O424 Cd421 2.297 . S
O424 C426 1.247 . S
O425 Cd421 2.439 . S
O425 C426 1.208 . S
C426 O424 1.247 . S
C426 O425 1.208 . S
C427 O432 1.247 . S
C427 O433 1.208 . S
C428 O420 1.315 . S
C428 O423 1.279 . S
C429 O430 1.315 . S
C429 O431 1.279 . S
O430 Cd422 2.223 . S
O430 C429 1.315 . S
O431 Cd421 2.240 . S
O431 C429 1.279 . S
O432 Cd422 2.297 . S
O432 C427 1.247 . S
O433 Cd422 2.439 . S
O433 C427 1.208 . S
O434 Cd435 2.223 . S
O434 C442 1.315 . S
Cd435 O434 2.223 . S
Cd435 O438 2.297 . S
Cd435 O439 2.439 . S
Cd435 O445 2.240 . S
Cd436 O437 2.240 . S
Cd436 O444 2.223 . S
Cd436 O446 2.297 . S
Cd436 O447 2.439 . S
O437 Cd436 2.240 . S
O437 C442 1.279 . S
O438 Cd435 2.297 . S
O438 C440 1.247 . S
O439 Cd435 2.439 . S
O439 C440 1.208 . S
C440 O438 1.247 . S
C440 O439 1.208 . S
C441 O446 1.247 . S
C441 O447 1.208 . S
C442 O434 1.315 . S
C442 O437 1.279 . S
C443 O444 1.315 . S
C443 O445 1.279 . S
O444 Cd436 2.223 . S
O444 C443 1.315 . S
O445 Cd435 2.240 . S
O445 C443 1.279 . S
O446 Cd436 2.297 . S
O446 C441 1.247 . S
O447 Cd436 2.439 . S
O447 C441 1.208 . S
O448 Cd449 2.223 . S
O448 C456 1.315 . S
Cd449 O448 2.223 . S
Cd449 O452 2.297 . S
Cd449 O453 2.439 . S
Cd449 O459 2.240 . S
Cd450 O451 2.240 . S
Cd450 O458 2.223 . S
Cd450 O460 2.297 . S
Cd450 O461 2.439 . S
O451 Cd450 2.240 . S
O451 C456 1.279 . S
O452 Cd449 2.297 . S
O452 C454 1.247 . S
O453 Cd449 2.439 . S
O453 C454 1.208 . S
C454 O452 1.247 . S
C454 O453 1.208 . S
C455 O460 1.247 . S
C455 O461 1.208 . S
C456 O448 1.315 . S
C456 O451 1.279 . S
C457 O458 1.315 . S
C457 O459 1.279 . S
O458 Cd450 2.223 . S
O458 C457 1.315 . S
O459 Cd449 2.240 . S
O459 C457 1.279 . S
O460 Cd450 2.297 . S
O460 C455 1.247 . S
O461 Cd450 2.439 . S
O461 C455 1.208 . S
O462 Cd463 2.223 . S
O462 C470 1.315 . S
Cd463 O462 2.223 . S
Cd463 O466 2.297 . S
Cd463 O467 2.439 . S
Cd463 O473 2.240 . S
Cd464 O465 2.240 . S
Cd464 O472 2.223 . S
Cd464 O474 2.297 . S
Cd464 O475 2.439 . S
O465 Cd464 2.240 . S
O465 C470 1.279 . S
O466 Cd463 2.297 . S
O466 C468 1.247 . S
O467 Cd463 2.439 . S
O467 C468 1.208 . S
C468 O466 1.247 . S
C468 O467 1.208 . S
C469 O474 1.247 . S
C469 O475 1.208 . S
C470 O462 1.315 . S
C470 O465 1.279 . S
C471 O472 1.315 . S
C471 O473 1.279 . S
O472 Cd464 2.223 . S
O472 C471 1.315 . S
O473 Cd463 2.240 . S
O473 C471 1.279 . S
O474 Cd464 2.297 . S
O474 C469 1.247 . S
O475 Cd464 2.439 . S
O475 C469 1.208 . S
O476 Cd477 2.223 . S
O476 C484 1.315 . S
Cd477 O476 2.223 . S
Cd477 O480 2.297 . S
Cd477 O481 2.439 . S
Cd477 O487 2.240 . S
Cd478 O479 2.240 . S
Cd478 O486 2.223 . S
Cd478 O488 2.297 . S
Cd478 O489 2.439 . S
O479 Cd478 2.240 . S
O479 C484 1.279 . S
O480 Cd477 2.297 . S
O480 C482 1.247 . S
O481 Cd477 2.439 . S
O481 C482 1.208 . S
C482 O480 1.247 . S
C482 O481 1.208 . S
C483 O488 1.247 . S
C483 O489 1.208 . S
C484 O476 1.315 . S
C484 O479 1.279 . S
C485 O486 1.315 . S
C485 O487 1.279 . S
O486 Cd478 2.223 . S
O486 C485 1.315 . S
O487 Cd477 2.240 . S
O487 C485 1.279 . S
O488 Cd478 2.297 . S
O488 C483 1.247 . S
O489 Cd478 2.439 . S
O489 C483 1.208 . S
O490 Cd491 2.223 . S
O490 C498 1.315 . S
Cd491 O490 2.223 . S
Cd491 O494 2.297 . S
Cd491 O495 2.439 . S
Cd491 O501 2.240 . S
Cd492 O493 2.240 . S
Cd492 O500 2.223 . S
Cd492 O502 2.297 . S
Cd492 O503 2.439 . S
O493 Cd492 2.240 . S
O493 C498 1.279 . S
O494 Cd491 2.297 . S
O494 C496 1.247 . S
O495 Cd491 2.439 . S
O495 C496 1.208 . S
C496 O494 1.247 . S
C496 O495 1.208 . S
C497 O502 1.247 . S
C497 O503 1.208 . S
C498 O490 1.315 . S
C498 O493 1.279 . S
C499 O500 1.315 . S
C499 O501 1.279 . S
O500 Cd492 2.223 . S
O500 C499 1.315 . S
O501 Cd491 2.240 . S
O501 C499 1.279 . S
O502 Cd492 2.297 . S
O502 C497 1.247 . S
O503 Cd492 2.439 . S
O503 C497 1.208 . S
O504 Cd505 2.223 . S
O504 C512 1.315 . S
Cd505 O504 2.223 . S
Cd505 O508 2.297 . S
Cd505 O509 2.439 . S
Cd505 O515 2.240 . S
Cd506 O507 2.240 . S
Cd506 O514 2.223 . S
Cd506 O516 2.297 . S
Cd506 O517 2.439 . S
O507 Cd506 2.240 . S
O507 C512 1.279 . S
O508 Cd505 2.297 . S
O508 C510 1.247 . S
O509 Cd505 2.439 . S
O509 C510 1.208 . S
C510 O508 1.247 . S
C510 O509 1.208 . S
C511 O516 1.247 . S
C511 O517 1.208 . S
C512 O504 1.315 . S
C512 O507 1.279 . S
C513 O514 1.315 . S
C513 O515 1.279 . S
O514 Cd506 2.223 . S
O514 C513 1.315 . S
O515 Cd505 2.240 . S
O515 C513 1.279 . S
O516 Cd506 2.297 . S
O516 C511 1.247 . S
O517 Cd506 2.439 . S
O517 C511 1.208 . S
O518 Cd519 2.223 . S
O518 C526 1.315 . S
Cd519 O518 2.223 . S
Cd519 O522 2.297 . S
Cd519 O523 2.439 . S
Cd519 O529 2.240 . S
Cd520 O521 2.240 . S
Cd520 O528 2.223 . S
Cd520 O530 2.297 . S
Cd520 O531 2.439 . S
O521 Cd520 2.240 . S
O521 C526 1.279 . S
O522 Cd519 2.297 . S
O522 C524 1.247 . S
O523 Cd519 2.439 . S
O523 C524 1.208 . S
C524 O522 1.247 . S
C524 O523 1.208 . S
C525 O530 1.247 . S
C525 O531 1.208 . S
C526 O518 1.315 . S
C526 O521 1.279 . S
C527 O528 1.315 . S
C527 O529 1.279 . S
O528 Cd520 2.223 . S
O528 C527 1.315 . S
O529 Cd519 2.240 . S
O529 C527 1.279 . S
O530 Cd520 2.297 . S
O530 C525 1.247 . S
O531 Cd520 2.439 . S
O531 C525 1.208 . S
O532 Cd533 2.223 . S
O532 C540 1.315 . S
Cd533 O532 2.223 . S
Cd533 O536 2.297 . S
Cd533 O537 2.439 . S
Cd533 O543 2.240 . S
Cd534 O535 2.240 . S
Cd534 O542 2.223 . S
Cd534 O544 2.297 . S
Cd534 O545 2.439 . S
O535 Cd534 2.240 . S
O535 C540 1.279 . S
O536 Cd533 2.297 . S
O536 C538 1.247 . S
O537 Cd533 2.439 . S
O537 C538 1.208 . S
C538 O536 1.247 . S
C538 O537 1.208 . S
C539 O544 1.247 . S
C539 O545 1.208 . S
C540 O532 1.315 . S
C540 O535 1.279 . S
C541 O542 1.315 . S
C541 O543 1.279 . S
O542 Cd534 2.223 . S
O542 C541 1.315 . S
O543 Cd533 2.240 . S
O543 C541 1.279 . S
O544 Cd534 2.297 . S
O544 C539 1.247 . S
O545 Cd534 2.439 . S
O545 C539 1.208 . S
O546 Cd547 2.223 . S
O546 C554 1.315 . S
Cd547 O546 2.223 . S
Cd547 O550 2.297 . S
Cd547 O551 2.439 . S
Cd547 O557 2.240 . S
Cd548 O549 2.240 . S
Cd548 O556 2.223 . S
Cd548 O558 2.297 . S
Cd548 O559 2.439 . S
O549 Cd548 2.240 . S
O549 C554 1.279 . S
O550 Cd547 2.297 . S
O550 C552 1.247 . S
O551 Cd547 2.439 . S
O551 C552 1.208 . S
C552 O550 1.247 . S
C552 O551 1.208 . S
C553 O558 1.247 . S
C553 O559 1.208 . S
C554 O546 1.315 . S
C554 O549 1.279 . S
C555 O556 1.315 . S
C555 O557 1.279 . S
O556 Cd548 2.223 . S
O556 C555 1.315 . S
O557 Cd547 2.240 . S
O557 C555 1.279 . S
O558 Cd548 2.297 . S
O558 C553 1.247 . S
O559 Cd548 2.439 . S
O559 C553 1.208 . S
O560 Cd561 2.223 . S
O560 C568 1.315 . S
Cd561 O560 2.223 . S
Cd561 O564 2.297 . S
Cd561 O565 2.439 . S
Cd561 O571 2.240 . S
Cd562 O563 2.240 . S
Cd562 O570 2.223 . S
Cd562 O572 2.297 . S
Cd562 O573 2.439 . S
O563 Cd562 2.240 . S
O563 C568 1.279 . S
O564 Cd561 2.297 . S
O564 C566 1.247 . S
O565 Cd561 2.439 . S
O565 C566 1.208 . S
C566 O564 1.247 . S
C566 O565 1.208 . S
C567 O572 1.247 . S
C567 O573 1.208 . S
C568 O560 1.315 . S
C568 O563 1.279 . S
C569 O570 1.315 . S
C569 O571 1.279 . S
O570 Cd562 2.223 . S
O570 C569 1.315 . S
O571 Cd561 2.240 . S
O571 C569 1.279 . S
O572 Cd562 2.297 . S
O572 C567 1.247 . S
O573 Cd562 2.439 . S
O573 C567 1.208 . S
O574 Cd575 2.223 . S
O574 C582 1.315 . S
Cd575 O574 2.223 . S
Cd575 O578 2.297 . S
Cd575 O579 2.439 . S
Cd575 O585 2.240 . S
Cd576 O577 2.240 . S
Cd576 O584 2.223 . S
Cd576 O586 2.297 . S
Cd576 O587 2.439 . S
O577 Cd576 2.240 . S
O577 C582 1.279 . S
O578 Cd575 2.297 . S
O578 C580 1.247 . S
O579 Cd575 2.439 . S
O579 C580 1.208 . S
C580 O578 1.247 . S
C580 O579 1.208 . S
C581 O586 1.247 . S
C581 O587 1.208 . S
C582 O574 1.315 . S
C582 O577 1.279 . S
C583 O584 1.315 . S
C583 O585 1.279 . S
O584 Cd576 2.223 . S
O584 C583 1.315 . S
O585 Cd575 2.240 . S
O585 C583 1.279 . S
O586 Cd576 2.297 . S
O586 C581 1.247 . S
O587 Cd576 2.439 . S
O587 C581 1.208 . S
O588 Cd589 2.223 . S
O588 C596 1.315 . S
Cd589 O588 2.223 . S
Cd589 O592 2.297 . S
Cd589 O593 2.439 . S
Cd589 O599 2.240 . S
Cd590 O591 2.240 . S
Cd590 O598 2.223 . S
Cd590 O600 2.297 . S
Cd590 O601 2.439 . S
O591 Cd590 2.240 . S
O591 C596 1.279 . S
O592 Cd589 2.297 . S
O592 C594 1.247 . S
O593 Cd589 2.439 . S
O593 C594 1.208 . S
C594 O592 1.247 . S
C594 O593 1.208 . S
C595 O600 1.247 . S
C595 O601 1.208 . S
C596 O588 1.315 . S
C596 O591 1.279 . S
C597 O598 1.315 . S
C597 O599 1.279 . S
O598 Cd590 2.223 . S
O598 C597 1.315 . S
O599 Cd589 2.240 . S
O599 C597 1.279 . S
O600 Cd590 2.297 . S
O600 C595 1.247 . S
O601 Cd590 2.439 . S
O601 C595 1.208 . S
O602 Cd603 2.223 . S
O602 C610 1.315 . S
Cd603 O602 2.223 . S
Cd603 O606 2.297 . S
Cd603 O607 2.439 . S
Cd603 O613 2.240 . S
Cd604 O605 2.240 . S
Cd604 O612 2.223 . S
Cd604 O614 2.297 . S
Cd604 O615 2.439 . S
O605 Cd604 2.240 . S
O605 C610 1.279 . S
O606 Cd603 2.297 . S
O606 C608 1.247 . S
O607 Cd603 2.439 . S
O607 C608 1.208 . S
C608 O606 1.247 . S
C608 O607 1.208 . S
C609 O614 1.247 . S
C609 O615 1.208 . S
C610 O602 1.315 . S
C610 O605 1.279 . S
C611 O612 1.315 . S
C611 O613 1.279 . S
O612 Cd604 2.223 . S
O612 C611 1.315 . S
O613 Cd603 2.240 . S
O613 C611 1.279 . S
O614 Cd604 2.297 . S
O614 C609 1.247 . S
O615 Cd604 2.439 . S
O615 C609 1.208 . S
O616 Cd617 2.223 . S
O616 C624 1.315 . S
Cd617 O616 2.223 . S
Cd617 O620 2.297 . S
Cd617 O621 2.439 . S
Cd617 O627 2.240 . S
Cd618 O619 2.240 . S
Cd618 O626 2.223 . S
Cd618 O628 2.297 . S
Cd618 O629 2.439 . S
O619 Cd618 2.240 . S
O619 C624 1.279 . S
O620 Cd617 2.297 . S
O620 C622 1.247 . S
O621 Cd617 2.439 . S
O621 C622 1.208 . S
C622 O620 1.247 . S
C622 O621 1.208 . S
C623 O628 1.247 . S
C623 O629 1.208 . S
C624 O616 1.315 . S
C624 O619 1.279 . S
C625 O626 1.315 . S
C625 O627 1.279 . S
O626 Cd618 2.223 . S
O626 C625 1.315 . S
O627 Cd617 2.240 . S
O627 C625 1.279 . S
O628 Cd618 2.297 . S
O628 C623 1.247 . S
O629 Cd618 2.439 . S
O629 C623 1.208 . S
O630 Cd631 2.223 . S
O630 C638 1.315 . S
Cd631 O630 2.223 . S
Cd631 O634 2.297 . S
Cd631 O635 2.439 . S
Cd631 O641 2.240 . S
Cd632 O633 2.240 . S
Cd632 O640 2.223 . S
Cd632 O642 2.297 . S
Cd632 O643 2.439 . S
O633 Cd632 2.240 . S
O633 C638 1.279 . S
O634 Cd631 2.297 . S
O634 C636 1.247 . S
O635 Cd631 2.439 . S
O635 C636 1.208 . S
C636 O634 1.247 . S
C636 O635 1.208 . S
C637 O642 1.247 . S
C637 O643 1.208 . S
C638 O630 1.315 . S
C638 O633 1.279 . S
C639 O640 1.315 . S
C639 O641 1.279 . S
O640 Cd632 2.223 . S
O640 C639 1.315 . S
O641 Cd631 2.240 . S
O641 C639 1.279 . S
O642 Cd632 2.297 . S
O642 C637 1.247 . S
O643 Cd632 2.439 . S
O643 C637 1.208 . S
O644 Cd645 2.223 . S
O644 C652 1.315 . S
Cd645 O644 2.223 . S
Cd645 O648 2.297 . S
Cd645 O649 2.439 . S
Cd645 O655 2.240 . S
Cd646 O647 2.240 . S
Cd646 O654 2.223 . S
Cd646 O656 2.297 . S
Cd646 O657 2.439 . S
O647 Cd646 2.240 . S
O647 C652 1.279 . S
O648 Cd645 2.297 . S
O648 C650 1.247 . S
O649 Cd645 2.439 . S
O649 C650 1.208 . S
C650 O648 1.247 . S
C650 O649 1.208 . S
C651 O656 1.247 . S
C651 O657 1.208 . S
C652 O644 1.315 . S
C652 O647 1.279 . S
C653 O654 1.315 . S
C653 O655 1.279 . S
O654 Cd646 2.223 . S
O654 C653 1.315 . S
O655 Cd645 2.240 . S
O655 C653 1.279 . S
O656 Cd646 2.297 . S
O656 C651 1.247 . S
O657 Cd646 2.439 . S
O657 C651 1.208 . S
O658 Cd659 2.223 . S
O658 C666 1.315 . S
Cd659 O658 2.223 . S
Cd659 O662 2.297 . S
Cd659 O663 2.439 . S
Cd659 O669 2.240 . S
Cd660 O661 2.240 . S
Cd660 O668 2.223 . S
Cd660 O670 2.297 . S
Cd660 O671 2.439 . S
O661 Cd660 2.240 . S
O661 C666 1.279 . S
O662 Cd659 2.297 . S
O662 C664 1.247 . S
O663 Cd659 2.439 . S
O663 C664 1.208 . S
C664 O662 1.247 . S
C664 O663 1.208 . S
C665 O670 1.247 . S
C665 O671 1.208 . S
C666 O658 1.315 . S
C666 O661 1.279 . S
C667 O668 1.315 . S
C667 O669 1.279 . S
O668 Cd660 2.223 . S
O668 C667 1.315 . S
O669 Cd659 2.240 . S
O669 C667 1.279 . S
O670 Cd660 2.297 . S
O670 C665 1.247 . S
O671 Cd660 2.439 . S
O671 C665 1.208 . S
H672 C680 0.950 . S
H673 C685 0.950 . S
H674 C682 0.950 . S
H675 C684 0.950 1_455 S
H676 C686 0.950 . S
H677 C688 0.950 . S
H678 C690 0.950 1_655 S
H679 C691 0.950 . S
C680 H672 0.950 . S
C680 C681 1.386 . S
C680 C682 1.391 . S
C681 C680 1.386 . S
C681 C685 1.393 . S
C682 H674 0.950 . S
C682 C680 1.391 . S
C682 C683 1.400 . S
C683 C682 1.400 . S
C683 C684 1.398 . S
C683 C689 1.491 1_655 S
C684 H675 0.950 1_655 S
C684 C683 1.398 . S
C684 C685 1.391 . S
C685 H673 0.950 . S
C685 C681 1.393 . S
C685 C684 1.391 . S
C686 H676 0.950 . S
C686 C687 1.386 . S
C686 C688 1.391 . S
C687 C686 1.386 . S
C687 C691 1.393 . S
C688 H677 0.950 . S
C688 C686 1.391 . S
C688 C689 1.400 . S
C689 C683 1.491 1_455 S
C689 C688 1.400 . S
C689 C690 1.398 . S
C690 H678 0.950 1_455 S
C690 C689 1.398 . S
C690 C691 1.391 . S
C691 H679 0.950 . S
C691 C687 1.393 . S
C691 C690 1.391 . S
H692 C700 0.950 . S
H693 C705 0.950 . S
H694 C702 0.950 . S
H695 C704 0.950 . S
H696 C706 0.950 . S
H697 C708 0.950 . S
H698 C710 0.950 . S
H699 C711 0.950 . S
C700 H692 0.950 . S
C700 C701 1.386 . S
C700 C702 1.391 . S
C701 C700 1.386 . S
C701 C705 1.393 . S
C702 H694 0.950 . S
C702 C700 1.391 . S
C702 C703 1.400 . S
C703 C702 1.400 . S
C703 C704 1.398 . S
C703 C709 1.491 1_565 S
C704 H695 0.950 . S
C704 C703 1.398 . S
C704 C705 1.391 . S
C705 H693 0.950 . S
C705 C701 1.393 . S
C705 C704 1.391 . S
C706 H696 0.950 . S
C706 C707 1.386 . S
C706 C708 1.391 . S
C707 C706 1.386 . S
C707 C711 1.393 . S
C708 H697 0.950 . S
C708 C706 1.391 . S
C708 C709 1.400 . S
C709 C703 1.491 1_545 S
C709 C708 1.400 . S
C709 C710 1.398 . S
C710 H698 0.950 . S
C710 C709 1.398 . S
C710 C711 1.391 . S
C711 H699 0.950 . S
C711 C707 1.393 . S
C711 C710 1.391 . S
H712 C720 0.950 . S
H713 C725 0.950 . S
H714 C722 0.950 . S
H715 C724 0.950 1_655 S
H716 C726 0.950 . S
H717 C728 0.950 . S
H718 C730 0.950 1_455 S
H719 C731 0.950 . S
C720 H712 0.950 . S
C720 C721 1.386 . S
C720 C722 1.391 . S
C721 C720 1.386 . S
C721 C725 1.393 . S
C722 H714 0.950 . S
C722 C720 1.391 . S
C722 C723 1.400 . S
C723 C722 1.400 . S
C723 C724 1.398 . S
C723 C729 1.491 1_455 S
C724 H715 0.950 1_455 S
C724 C723 1.398 . S
C724 C725 1.391 . S
C725 H713 0.950 . S
C725 C721 1.393 . S
C725 C724 1.391 . S
C726 H716 0.950 . S
C726 C727 1.386 . S
C726 C728 1.391 . S
C727 C726 1.386 . S
C727 C731 1.393 . S
C728 H717 0.950 . S
C728 C726 1.391 . S
C728 C729 1.400 . S
C729 C723 1.491 1_655 S
C729 C728 1.400 . S
C729 C730 1.398 . S
C730 H718 0.950 1_655 S
C730 C729 1.398 . S
C730 C731 1.391 . S
C731 H719 0.950 . S
C731 C727 1.393 . S
C731 C730 1.391 . S
H732 C740 0.950 . S
H733 C745 0.950 . S
H734 C742 0.950 . S
H735 C744 0.950 . S
H736 C746 0.950 . S
H737 C748 0.950 . S
H738 C750 0.950 . S
H739 C751 0.950 . S
C740 H732 0.950 . S
C740 C741 1.386 . S
C740 C742 1.391 . S
C741 C740 1.386 . S
C741 C745 1.393 . S
C742 H734 0.950 . S
C742 C740 1.391 . S
C742 C743 1.400 . S
C743 C742 1.400 . S
C743 C744 1.398 . S
C743 C749 1.491 1_565 S
C744 H735 0.950 . S
C744 C743 1.398 . S
C744 C745 1.391 . S
C745 H733 0.950 . S
C745 C741 1.393 . S
C745 C744 1.391 . S
C746 H736 0.950 . S
C746 C747 1.386 . S
C746 C748 1.391 . S
C747 C746 1.386 . S
C747 C751 1.393 . S
C748 H737 0.950 . S
C748 C746 1.391 . S
C748 C749 1.400 . S
C749 C743 1.491 1_545 S
C749 C748 1.400 . S
C749 C750 1.398 . S
C750 H738 0.950 . S
C750 C749 1.398 . S
C750 C751 1.391 . S
C751 H739 0.950 . S
C751 C747 1.393 . S
C751 C750 1.391 . S
H752 C760 0.950 . S
H753 C765 0.950 . S
H754 C762 0.950 . S
H755 C764 0.950 1_455 S
H756 C766 0.950 . S
H757 C768 0.950 . S
H758 C770 0.950 1_655 S
H759 C771 0.950 . S
C760 H752 0.950 . S
C760 C761 1.386 . S
C760 C762 1.391 . S
C761 C760 1.386 . S
C761 C765 1.393 . S
C762 H754 0.950 . S
C762 C760 1.391 . S
C762 C763 1.400 . S
C763 C762 1.400 . S
C763 C764 1.398 . S
C763 C769 1.491 1_655 S
C764 H755 0.950 1_655 S
C764 C763 1.398 . S
C764 C765 1.391 . S
C765 H753 0.950 . S
C765 C761 1.393 . S
C765 C764 1.391 . S
C766 H756 0.950 . S
C766 C767 1.386 . S
C766 C768 1.391 . S
C767 C766 1.386 . S
C767 C771 1.393 . S
C768 H757 0.950 . S
C768 C766 1.391 . S
C768 C769 1.400 . S
C769 C763 1.491 1_455 S
C769 C768 1.400 . S
C769 C770 1.398 . S
C770 H758 0.950 1_455 S
C770 C769 1.398 . S
C770 C771 1.391 . S
C771 H759 0.950 . S
C771 C767 1.393 . S
C771 C770 1.391 . S
H772 C780 0.950 . S
H773 C785 0.950 . S
H774 C782 0.950 . S
H775 C784 0.950 1_565 S
H776 C786 0.950 . S
H777 C788 0.950 . S
H778 C790 0.950 1_545 S
H779 C791 0.950 . S
C780 H772 0.950 . S
C780 C781 1.386 . S
C780 C782 1.391 . S
C781 C780 1.386 . S
C781 C785 1.393 . S
C782 H774 0.950 . S
C782 C780 1.391 . S
C782 C783 1.400 . S
C783 C782 1.400 . S
C783 C784 1.398 . S
C783 C789 1.491 1_545 S
C784 H775 0.950 1_545 S
C784 C783 1.398 . S
C784 C785 1.391 . S
C785 H773 0.950 . S
C785 C781 1.393 . S
C785 C784 1.391 . S
C786 H776 0.950 . S
C786 C787 1.386 . S
C786 C788 1.391 . S
C787 C786 1.386 . S
C787 C791 1.393 . S
C788 H777 0.950 . S
C788 C786 1.391 . S
C788 C789 1.400 . S
C789 C783 1.491 1_565 S
C789 C788 1.400 . S
C789 C790 1.398 . S
C790 H778 0.950 1_565 S
C790 C789 1.398 . S
C790 C791 1.391 . S
C791 H779 0.950 . S
C791 C787 1.393 . S
C791 C790 1.391 . S
H792 C800 0.950 . S
H793 C805 0.950 . S
H794 C802 0.950 . S
H795 C804 0.950 . S
H796 C806 0.950 . S
H797 C808 0.950 . S
H798 C810 0.950 . S
H799 C811 0.950 . S
C800 H792 0.950 . S
C800 C801 1.386 . S
C800 C802 1.391 . S
C801 C800 1.386 . S
C801 C805 1.393 . S
C802 H794 0.950 . S
C802 C800 1.391 . S
C802 C803 1.400 . S
C803 C802 1.400 . S
C803 C804 1.398 . S
C803 C809 1.491 1_455 S
C804 H795 0.950 . S
C804 C803 1.398 . S
C804 C805 1.391 . S
C805 H793 0.950 . S
C805 C801 1.393 . S
C805 C804 1.391 . S
C806 H796 0.950 . S
C806 C807 1.386 . S
C806 C808 1.391 . S
C807 C806 1.386 . S
C807 C811 1.393 . S
C808 H797 0.950 . S
C808 C806 1.391 . S
C808 C809 1.400 . S
C809 C803 1.491 1_655 S
C809 C808 1.400 . S
C809 C810 1.398 . S
C810 H798 0.950 . S
C810 C809 1.398 . S
C810 C811 1.391 . S
C811 H799 0.950 . S
C811 C807 1.393 . S
C811 C810 1.391 . S
H812 C820 0.950 . S
H813 C825 0.950 . S
H814 C822 0.950 1_565 S
H815 C824 0.950 . S
H816 C826 0.950 . S
H817 C828 0.950 1_545 S
H818 C830 0.950 . S
H819 C831 0.950 . S
C820 H812 0.950 . S
C820 C821 1.386 . S
C820 C822 1.391 . S
C821 C820 1.386 . S
C821 C825 1.393 . S
C822 H814 0.950 1_545 S
C822 C820 1.391 . S
C822 C823 1.400 . S
C823 C822 1.400 . S
C823 C824 1.398 . S
C823 C829 1.491 1_545 S
C824 H815 0.950 . S
C824 C823 1.398 . S
C824 C825 1.391 . S
C825 H813 0.950 . S
C825 C821 1.393 . S
C825 C824 1.391 . S
C826 H816 0.950 . S
C826 C827 1.386 . S
C826 C828 1.391 . S
C827 C826 1.386 . S
C827 C831 1.393 . S
C828 H817 0.950 1_565 S
C828 C826 1.391 . S
C828 C829 1.400 . S
C829 C823 1.491 1_565 S
C829 C828 1.400 . S
C829 C830 1.398 . S
C830 H818 0.950 . S
C830 C829 1.398 . S
C830 C831 1.391 . S
C831 H819 0.950 . S
C831 C827 1.393 . S
C831 C830 1.391 . S
H832 C840 0.950 . S
H833 C845 0.950 . S
H834 C842 0.950 . S
H835 C844 0.950 . S
H836 C846 0.950 . S
H837 C848 0.950 . S
H838 C850 0.950 . S
H839 C851 0.950 . S
C840 H832 0.950 . S
C840 C841 1.386 . S
C840 C842 1.391 . S
C841 C840 1.386 . S
C841 C845 1.393 . S
C842 H834 0.950 . S
C842 C840 1.391 . S
C842 C843 1.400 . S
C843 C842 1.400 . S
C843 C844 1.398 . S
C843 C849 1.491 1_554 S
C844 H835 0.950 . S
C844 C843 1.398 . S
C844 C845 1.391 . S
C845 H833 0.950 . S
C845 C841 1.393 . S
C845 C844 1.391 . S
C846 H836 0.950 . S
C846 C847 1.386 . S
C846 C848 1.391 . S
C847 C846 1.386 . S
C847 C851 1.393 . S
C848 H837 0.950 . S
C848 C846 1.391 . S
C848 C849 1.400 . S
C849 C843 1.491 1_556 S
C849 C848 1.400 . S
C849 C850 1.398 . S
C850 H838 0.950 . S
C850 C849 1.398 . S
C850 C851 1.391 . S
C851 H839 0.950 . S
C851 C847 1.393 . S
C851 C850 1.391 . S
H852 C860 0.950 . S
H853 C865 0.950 . S
H854 C862 0.950 1_554 S
H855 C864 0.950 . S
H856 C866 0.950 . S
H857 C868 0.950 1_556 S
H858 C870 0.950 . S
H859 C871 0.950 . S
C860 H852 0.950 . S
C860 C861 1.386 . S
C860 C862 1.391 . S
C861 C860 1.386 . S
C861 C865 1.393 . S
C862 H854 0.950 1_556 S
C862 C860 1.391 . S
C862 C863 1.400 . S
C863 C862 1.400 . S
C863 C864 1.398 . S
C863 C869 1.491 1_556 S
C864 H855 0.950 . S
C864 C863 1.398 . S
C864 C865 1.391 . S
C865 H853 0.950 . S
C865 C861 1.393 . S
C865 C864 1.391 . S
C866 H856 0.950 . S
C866 C867 1.386 . S
C866 C868 1.391 . S
C867 C866 1.386 . S
C867 C871 1.393 . S
C868 H857 0.950 1_554 S
C868 C866 1.391 . S
C868 C869 1.400 . S
C869 C863 1.491 1_554 S
C869 C868 1.400 . S
C869 C870 1.398 . S
C870 H858 0.950 . S
C870 C869 1.398 . S
C870 C871 1.391 . S
C871 H859 0.950 . S
C871 C867 1.393 . S
C871 C870 1.391 . S
H872 C880 0.950 . S
H873 C885 0.950 . S
H874 C882 0.950 . S
H875 C884 0.950 1_554 S
H876 C886 0.950 . S
H877 C888 0.950 . S
H878 C890 0.950 1_556 S
H879 C891 0.950 . S
C880 H872 0.950 . S
C880 C881 1.386 . S
C880 C882 1.391 . S
C881 C880 1.386 . S
C881 C885 1.393 . S
C882 H874 0.950 . S
C882 C880 1.391 . S
C882 C883 1.400 . S
C883 C882 1.400 . S
C883 C884 1.398 . S
C883 C889 1.491 1_556 S
C884 H875 0.950 1_556 S
C884 C883 1.398 . S
C884 C885 1.391 . S
C885 H873 0.950 . S
C885 C881 1.393 . S
C885 C884 1.391 . S
C886 H876 0.950 . S
C886 C887 1.386 . S
C886 C888 1.391 . S
C887 C886 1.386 . S
C887 C891 1.393 . S
C888 H877 0.950 . S
C888 C886 1.391 . S
C888 C889 1.400 . S
C889 C883 1.491 1_554 S
C889 C888 1.400 . S
C889 C890 1.398 . S
C890 H878 0.950 1_554 S
C890 C889 1.398 . S
C890 C891 1.391 . S
C891 H879 0.950 . S
C891 C887 1.393 . S
C891 C890 1.391 . S
H892 C900 0.950 . S
H893 C905 0.950 . S
H894 C902 0.950 1_554 S
H895 C904 0.950 . S
H896 C906 0.950 . S
H897 C908 0.950 1_556 S
H898 C910 0.950 . S
H899 C911 0.950 . S
C900 H892 0.950 . S
C900 C901 1.386 . S
C900 C902 1.391 . S
C901 C900 1.386 . S
C901 C905 1.393 . S
C902 H894 0.950 1_556 S
C902 C900 1.391 . S
C902 C903 1.400 . S
C903 C902 1.400 . S
C903 C904 1.398 . S
C903 C909 1.491 1_556 S
C904 H895 0.950 . S
C904 C903 1.398 . S
C904 C905 1.391 . S
C905 H893 0.950 . S
C905 C901 1.393 . S
C905 C904 1.391 . S
C906 H896 0.950 . S
C906 C907 1.386 . S
C906 C908 1.391 . S
C907 C906 1.386 . S
C907 C911 1.393 . S
C908 H897 0.950 1_554 S
C908 C906 1.391 . S
C908 C909 1.400 . S
C909 C903 1.491 1_554 S
C909 C908 1.400 . S
C909 C910 1.398 . S
C910 H898 0.950 . S
C910 C909 1.398 . S
C910 C911 1.391 . S
C911 H899 0.950 . S
C911 C907 1.393 . S
C911 C910 1.391 . S
H912 C920 0.950 . S
H913 C925 0.950 . S
H914 C922 0.950 . S
H915 C924 0.950 . S
H916 C926 0.950 . S
H917 C928 0.950 . S
H918 C930 0.950 . S
H919 C931 0.950 . S
C920 H912 0.950 . S
C920 C921 1.386 . S
C920 C922 1.391 . S
C921 C920 1.386 . S
C921 C925 1.393 . S
C922 H914 0.950 . S
C922 C920 1.391 . S
C922 C923 1.400 . S
C923 C922 1.400 . S
C923 C924 1.398 . S
C923 C929 1.491 . S
C924 H915 0.950 . S
C924 C923 1.398 . S
C924 C925 1.391 . S
C925 H913 0.950 . S
C925 C921 1.393 . S
C925 C924 1.391 . S
C926 H916 0.950 . S
C926 C927 1.386 . S
C926 C928 1.391 . S
C927 C926 1.386 . S
C927 C931 1.393 . S
C928 H917 0.950 . S
C928 C926 1.391 . S
C928 C929 1.400 . S
C929 C923 1.491 . S
C929 C928 1.400 . S
C929 C930 1.398 . S
C930 H918 0.950 . S
C930 C929 1.398 . S
C930 C931 1.391 . S
C931 H919 0.950 . S
C931 C927 1.393 . S
C931 C930 1.391 . S
H932 C940 0.950 . S
H933 C945 0.950 . S
H934 C942 0.950 . S
H935 C944 0.950 . S
H936 C946 0.950 . S
H937 C948 0.950 . S
H938 C950 0.950 . S
H939 C951 0.950 . S
C940 H932 0.950 . S
C940 C941 1.386 . S
C940 C942 1.391 . S
C941 C940 1.386 . S
C941 C945 1.393 . S
C942 H934 0.950 . S
C942 C940 1.391 . S
C942 C943 1.400 . S
C943 C942 1.400 . S
C943 C944 1.398 . S
C943 C949 1.491 . S
C944 H935 0.950 . S
C944 C943 1.398 . S
C944 C945 1.391 . S
C945 H933 0.950 . S
C945 C941 1.393 . S
C945 C944 1.391 . S
C946 H936 0.950 . S
C946 C947 1.386 . S
C946 C948 1.391 . S
C947 C946 1.386 . S
C947 C951 1.393 . S
C948 H937 0.950 . S
C948 C946 1.391 . S
C948 C949 1.400 . S
C949 C943 1.491 . S
C949 C948 1.400 . S
C949 C950 1.398 . S
C950 H938 0.950 . S
C950 C949 1.398 . S
C950 C951 1.391 . S
C951 H939 0.950 . S
C951 C947 1.393 . S
C951 C950 1.391 . S
H952 C960 0.950 . S
H953 C965 0.950 . S
H954 C962 0.950 . S
H955 C964 0.950 . S
H956 C966 0.950 . S
H957 C968 0.950 . S
H958 C970 0.950 . S
H959 C971 0.950 . S
C960 H952 0.950 . S
C960 C961 1.386 . S
C960 C962 1.391 . S
C961 C960 1.386 . S
C961 C965 1.393 . S
C962 H954 0.950 . S
C962 C960 1.391 . S
C962 C963 1.400 . S
C963 C962 1.400 . S
C963 C964 1.398 . S
C963 C969 1.491 . S
C964 H955 0.950 . S
C964 C963 1.398 . S
C964 C965 1.391 . S
C965 H953 0.950 . S
C965 C961 1.393 . S
C965 C964 1.391 . S
C966 H956 0.950 . S
C966 C967 1.386 . S
C966 C968 1.391 . S
C967 C966 1.386 . S
C967 C971 1.393 . S
C968 H957 0.950 . S
C968 C966 1.391 . S
C968 C969 1.400 . S
C969 C963 1.491 . S
C969 C968 1.400 . S
C969 C970 1.398 . S
C970 H958 0.950 . S
C970 C969 1.398 . S
C970 C971 1.391 . S
C971 H959 0.950 . S
C971 C967 1.393 . S
C971 C970 1.391 . S
H972 C980 0.950 . S
H973 C985 0.950 . S
H974 C982 0.950 . S
H975 C984 0.950 . S
H976 C986 0.950 . S
H977 C988 0.950 . S
H978 C990 0.950 . S
H979 C991 0.950 . S
C980 H972 0.950 . S
C980 C981 1.386 . S
C980 C982 1.391 . S
C981 C980 1.386 . S
C981 C985 1.393 . S
C982 H974 0.950 . S
C982 C980 1.391 . S
C982 C983 1.400 . S
C983 C982 1.400 . S
C983 C984 1.398 . S
C983 C989 1.491 . S
C984 H975 0.950 . S
C984 C983 1.398 . S
C984 C985 1.391 . S
C985 H973 0.950 . S
C985 C981 1.393 . S
C985 C984 1.391 . S
C986 H976 0.950 . S
C986 C987 1.386 . S
C986 C988 1.391 . S
C987 C986 1.386 . S
C987 C991 1.393 . S
C988 H977 0.950 . S
C988 C986 1.391 . S
C988 C989 1.400 . S
C989 C983 1.491 . S
C989 C988 1.400 . S
C989 C990 1.398 . S
C990 H978 0.950 . S
C990 C989 1.398 . S
C990 C991 1.391 . S
C991 H979 0.950 . S
C991 C987 1.393 . S
C991 C990 1.391 . S
H992 C1000 0.950 . S
H993 C1005 0.950 . S
H994 C1002 0.950 . S
H995 C1004 0.950 . S
H996 C1006 0.950 . S
H997 C1008 0.950 . S
H998 C1010 0.950 . S
H999 C1011 0.950 . S
C1000 H992 0.950 . S
C1000 C1001 1.386 . S
C1000 C1002 1.391 . S
C1001 C1000 1.386 . S
C1001 C1005 1.393 . S
C1002 H994 0.950 . S
C1002 C1000 1.391 . S
C1002 C1003 1.400 . S
C1003 C1002 1.400 . S
C1003 C1004 1.398 . S
C1003 C1009 1.491 . S
C1004 H995 0.950 . S
C1004 C1003 1.398 . S
C1004 C1005 1.391 . S
C1005 H993 0.950 . S
C1005 C1001 1.393 . S
C1005 C1004 1.391 . S
C1006 H996 0.950 . S
C1006 C1007 1.386 . S
C1006 C1008 1.391 . S
C1007 C1006 1.386 . S
C1007 C1011 1.393 . S
C1008 H997 0.950 . S
C1008 C1006 1.391 . S
C1008 C1009 1.400 . S
C1009 C1003 1.491 . S
C1009 C1008 1.400 . S
C1009 C1010 1.398 . S
C1010 H998 0.950 . S
C1010 C1009 1.398 . S
C1010 C1011 1.391 . S
C1011 H999 0.950 . S
C1011 C1007 1.393 . S
C1011 C1010 1.391 . S
H1012 C1020 0.950 . S
H1013 C1025 0.950 . S
H1014 C1022 0.950 . S
H1015 C1024 0.950 . S
H1016 C1026 0.950 . S
H1017 C1028 0.950 . S
H1018 C1030 0.950 . S
H1019 C1031 0.950 . S
C1020 H1012 0.950 . S
C1020 C1021 1.386 . S
C1020 C1022 1.391 . S
C1021 C1020 1.386 . S
C1021 C1025 1.393 . S
C1022 H1014 0.950 . S
C1022 C1020 1.391 . S
C1022 C1023 1.400 . S
C1023 C1022 1.400 . S
C1023 C1024 1.398 . S
C1023 C1029 1.491 . S
C1024 H1015 0.950 . S
C1024 C1023 1.398 . S
C1024 C1025 1.391 . S
C1025 H1013 0.950 . S
C1025 C1021 1.393 . S
C1025 C1024 1.391 . S
C1026 H1016 0.950 . S
C1026 C1027 1.386 . S
C1026 C1028 1.391 . S
C1027 C1026 1.386 . S
C1027 C1031 1.393 . S
C1028 H1017 0.950 . S
C1028 C1026 1.391 . S
C1028 C1029 1.400 . S
C1029 C1023 1.491 . S
C1029 C1028 1.400 . S
C1029 C1030 1.398 . S
C1030 H1018 0.950 . S
C1030 C1029 1.398 . S
C1030 C1031 1.391 . S
C1031 H1019 0.950 . S
C1031 C1027 1.393 . S
C1031 C1030 1.391 . S
H1032 C1040 0.950 . S
H1033 C1045 0.950 . S
H1034 C1042 0.950 . S
H1035 C1044 0.950 . S
H1036 C1046 0.950 . S
H1037 C1048 0.950 . S
H1038 C1050 0.950 . S
H1039 C1051 0.950 . S
C1040 H1032 0.950 . S
C1040 C1041 1.386 . S
C1040 C1042 1.391 . S
C1041 C1040 1.386 . S
C1041 C1045 1.393 . S
C1042 H1034 0.950 . S
C1042 C1040 1.391 . S
C1042 C1043 1.400 . S
C1043 C1042 1.400 . S
C1043 C1044 1.398 . S
C1043 C1049 1.491 . S
C1044 H1035 0.950 . S
C1044 C1043 1.398 . S
C1044 C1045 1.391 . S
C1045 H1033 0.950 . S
C1045 C1041 1.393 . S
C1045 C1044 1.391 . S
C1046 H1036 0.950 . S
C1046 C1047 1.386 . S
C1046 C1048 1.391 . S
C1047 C1046 1.386 . S
C1047 C1051 1.393 . S
C1048 H1037 0.950 . S
C1048 C1046 1.391 . S
C1048 C1049 1.400 . S
C1049 C1043 1.491 . S
C1049 C1048 1.400 . S
C1049 C1050 1.398 . S
C1050 H1038 0.950 . S
C1050 C1049 1.398 . S
C1050 C1051 1.391 . S
C1051 H1039 0.950 . S
C1051 C1047 1.393 . S
C1051 C1050 1.391 . S
H1052 C1060 0.950 . S
H1053 C1065 0.950 . S
H1054 C1062 0.950 . S
H1055 C1064 0.950 . S
H1056 C1066 0.950 . S
H1057 C1068 0.950 . S
H1058 C1070 0.950 . S
H1059 C1071 0.950 . S
C1060 H1052 0.950 . S
C1060 C1061 1.386 . S
C1060 C1062 1.391 . S
C1061 C1060 1.386 . S
C1061 C1065 1.393 . S
C1062 H1054 0.950 . S
C1062 C1060 1.391 . S
C1062 C1063 1.400 . S
C1063 C1062 1.400 . S
C1063 C1064 1.398 . S
C1063 C1069 1.491 . S
C1064 H1055 0.950 . S
C1064 C1063 1.398 . S
C1064 C1065 1.391 . S
C1065 H1053 0.950 . S
C1065 C1061 1.393 . S
C1065 C1064 1.391 . S
C1066 H1056 0.950 . S
C1066 C1067 1.386 . S
C1066 C1068 1.391 . S
C1067 C1066 1.386 . S
C1067 C1071 1.393 . S
C1068 H1057 0.950 . S
C1068 C1066 1.391 . S
C1068 C1069 1.400 . S
C1069 C1063 1.491 . S
C1069 C1068 1.400 . S
C1069 C1070 1.398 . S
C1070 H1058 0.950 . S
C1070 C1069 1.398 . S
C1070 C1071 1.391 . S
C1071 H1059 0.950 . S
C1071 C1067 1.393 . S
C1071 C1070 1.391 . S
H1072 C1080 0.950 . S
H1073 C1085 0.950 . S
H1074 C1082 0.950 . S
H1075 C1084 0.950 . S
H1076 C1086 0.950 . S
H1077 C1088 0.950 . S
H1078 C1090 0.950 . S
H1079 C1091 0.950 . S
C1080 H1072 0.950 . S
C1080 C1081 1.386 . S
C1080 C1082 1.391 . S
C1081 C1080 1.386 . S
C1081 C1085 1.393 . S
C1082 H1074 0.950 . S
C1082 C1080 1.391 . S
C1082 C1083 1.400 . S
C1083 C1082 1.400 . S
C1083 C1084 1.398 . S
C1083 C1089 1.491 . S
C1084 H1075 0.950 . S
C1084 C1083 1.398 . S
C1084 C1085 1.391 . S
C1085 H1073 0.950 . S
C1085 C1081 1.393 . S
C1085 C1084 1.391 . S
C1086 H1076 0.950 . S
C1086 C1087 1.386 . S
C1086 C1088 1.391 . S
C1087 C1086 1.386 . S
C1087 C1091 1.393 . S
C1088 H1077 0.950 . S
C1088 C1086 1.391 . S
C1088 C1089 1.400 . S
C1089 C1083 1.491 . S
C1089 C1088 1.400 . S
C1089 C1090 1.398 . S
C1090 H1078 0.950 . S
C1090 C1089 1.398 . S
C1090 C1091 1.391 . S
C1091 H1079 0.950 . S
C1091 C1087 1.393 . S
C1091 C1090 1.391 . S
H1092 C1100 0.950 . S
H1093 C1105 0.950 . S
H1094 C1102 0.950 . S
H1095 C1104 0.950 . S
H1096 C1106 0.950 . S
H1097 C1108 0.950 . S
H1098 C1110 0.950 . S
H1099 C1111 0.950 . S
C1100 H1092 0.950 . S
C1100 C1101 1.386 . S
C1100 C1102 1.391 . S
C1101 C1100 1.386 . S
C1101 C1105 1.393 . S
C1102 H1094 0.950 . S
C1102 C1100 1.391 . S
C1102 C1103 1.400 . S
C1103 C1102 1.400 . S
C1103 C1104 1.398 . S
C1103 C1109 1.491 . S
C1104 H1095 0.950 . S
C1104 C1103 1.398 . S
C1104 C1105 1.391 . S
C1105 H1093 0.950 . S
C1105 C1101 1.393 . S
C1105 C1104 1.391 . S
C1106 H1096 0.950 . S
C1106 C1107 1.386 . S
C1106 C1108 1.391 . S
C1107 C1106 1.386 . S
C1107 C1111 1.393 . S
C1108 H1097 0.950 . S
C1108 C1106 1.391 . S
C1108 C1109 1.400 . S
C1109 C1103 1.491 . S
C1109 C1108 1.400 . S
C1109 C1110 1.398 . S
C1110 H1098 0.950 . S
C1110 C1109 1.398 . S
C1110 C1111 1.391 . S
C1111 H1099 0.950 . S
C1111 C1107 1.393 . S
C1111 C1110 1.391 . S
H1112 C1120 0.950 . S
H1113 C1125 0.950 . S
H1114 C1122 0.950 . S
H1115 C1124 0.950 . S
H1116 C1126 0.950 . S
H1117 C1128 0.950 . S
H1118 C1130 0.950 . S
H1119 C1131 0.950 . S
C1120 H1112 0.950 . S
C1120 C1121 1.386 . S
C1120 C1122 1.391 . S
C1121 C1120 1.386 . S
C1121 C1125 1.393 . S
C1122 H1114 0.950 . S
C1122 C1120 1.391 . S
C1122 C1123 1.400 . S
C1123 C1122 1.400 . S
C1123 C1124 1.398 . S
C1123 C1129 1.491 . S
C1124 H1115 0.950 . S
C1124 C1123 1.398 . S
C1124 C1125 1.391 . S
C1125 H1113 0.950 . S
C1125 C1121 1.393 . S
C1125 C1124 1.391 . S
C1126 H1116 0.950 . S
C1126 C1127 1.386 . S
C1126 C1128 1.391 . S
C1127 C1126 1.386 . S
C1127 C1131 1.393 . S
C1128 H1117 0.950 . S
C1128 C1126 1.391 . S
C1128 C1129 1.400 . S
C1129 C1123 1.491 . S
C1129 C1128 1.400 . S
C1129 C1130 1.398 . S
C1130 H1118 0.950 . S
C1130 C1129 1.398 . S
C1130 C1131 1.391 . S
C1131 H1119 0.950 . S
C1131 C1127 1.393 . S
C1131 C1130 1.391 . S
H1132 C1140 0.950 . S
H1133 C1145 0.950 . S
H1134 C1142 0.950 . S
H1135 C1144 0.950 . S
H1136 C1146 0.950 . S
H1137 C1148 0.950 . S
H1138 C1150 0.950 . S
H1139 C1151 0.950 . S
C1140 H1132 0.950 . S
C1140 C1141 1.386 . S
C1140 C1142 1.391 . S
C1141 C1140 1.386 . S
C1141 C1145 1.393 . S
C1142 H1134 0.950 . S
C1142 C1140 1.391 . S
C1142 C1143 1.400 . S
C1143 C1142 1.400 . S
C1143 C1144 1.398 . S
C1143 C1149 1.491 . S
C1144 H1135 0.950 . S
C1144 C1143 1.398 . S
C1144 C1145 1.391 . S
C1145 H1133 0.950 . S
C1145 C1141 1.393 . S
C1145 C1144 1.391 . S
C1146 H1136 0.950 . S
C1146 C1147 1.386 . S
C1146 C1148 1.391 . S
C1147 C1146 1.386 . S
C1147 C1151 1.393 . S
C1148 H1137 0.950 . S
C1148 C1146 1.391 . S
C1148 C1149 1.400 . S
C1149 C1143 1.491 . S
C1149 C1148 1.400 . S
C1149 C1150 1.398 . S
C1150 H1138 0.950 . S
C1150 C1149 1.398 . S
C1150 C1151 1.391 . S
C1151 H1139 0.950 . S
C1151 C1147 1.393 . S
C1151 C1150 1.391 . S
H1152 C1160 0.950 . S
H1153 C1165 0.950 . S
H1154 C1162 0.950 . S
H1155 C1164 0.950 . S
H1156 C1166 0.950 . S
H1157 C1168 0.950 . S
H1158 C1170 0.950 . S
H1159 C1171 0.950 . S
C1160 H1152 0.950 . S
C1160 C1161 1.386 . S
C1160 C1162 1.391 . S
C1161 C1160 1.386 . S
C1161 C1165 1.393 . S
C1162 H1154 0.950 . S
C1162 C1160 1.391 . S
C1162 C1163 1.400 . S
C1163 C1162 1.400 . S
C1163 C1164 1.398 . S
C1163 C1169 1.491 . S
C1164 H1155 0.950 . S
C1164 C1163 1.398 . S
C1164 C1165 1.391 . S
C1165 H1153 0.950 . S
C1165 C1161 1.393 . S
C1165 C1164 1.391 . S
C1166 H1156 0.950 . S
C1166 C1167 1.386 . S
C1166 C1168 1.391 . S
C1167 C1166 1.386 . S
C1167 C1171 1.393 . S
C1168 H1157 0.950 . S
C1168 C1166 1.391 . S
C1168 C1169 1.400 . S
C1169 C1163 1.491 . S
C1169 C1168 1.400 . S
C1169 C1170 1.398 . S
C1170 H1158 0.950 . S
C1170 C1169 1.398 . S
C1170 C1171 1.391 . S
C1171 H1159 0.950 . S
C1171 C1167 1.393 . S
C1171 C1170 1.391 . S
H1172 C1180 0.950 . S
H1173 C1185 0.950 . S
H1174 C1182 0.950 . S
H1175 C1184 0.950 . S
H1176 C1186 0.950 . S
H1177 C1188 0.950 . S
H1178 C1190 0.950 . S
H1179 C1191 0.950 . S
C1180 H1172 0.950 . S
C1180 C1181 1.386 . S
C1180 C1182 1.391 . S
C1181 C1180 1.386 . S
C1181 C1185 1.393 . S
C1182 H1174 0.950 . S
C1182 C1180 1.391 . S
C1182 C1183 1.400 . S
C1183 C1182 1.400 . S
C1183 C1184 1.398 . S
C1183 C1189 1.491 . S
C1184 H1175 0.950 . S
C1184 C1183 1.398 . S
C1184 C1185 1.391 . S
C1185 H1173 0.950 . S
C1185 C1181 1.393 . S
C1185 C1184 1.391 . S
C1186 H1176 0.950 . S
C1186 C1187 1.386 . S
C1186 C1188 1.391 . S
C1187 C1186 1.386 . S
C1187 C1191 1.393 . S
C1188 H1177 0.950 . S
C1188 C1186 1.391 . S
C1188 C1189 1.400 . S
C1189 C1183 1.491 . S
C1189 C1188 1.400 . S
C1189 C1190 1.398 . S
C1190 H1178 0.950 . S
C1190 C1189 1.398 . S
C1190 C1191 1.391 . S
C1191 H1179 0.950 . S
C1191 C1187 1.393 . S
C1191 C1190 1.391 . S
H1192 C1200 0.950 . S
H1193 C1205 0.950 . S
H1194 C1202 0.950 . S
H1195 C1204 0.950 . S
H1196 C1206 0.950 . S
H1197 C1208 0.950 . S
H1198 C1210 0.950 . S
H1199 C1211 0.950 . S
C1200 H1192 0.950 . S
C1200 C1201 1.386 . S
C1200 C1202 1.391 . S
C1201 C1200 1.386 . S
C1201 C1205 1.393 . S
C1202 H1194 0.950 . S
C1202 C1200 1.391 . S
C1202 C1203 1.400 . S
C1203 C1202 1.400 . S
C1203 C1204 1.398 . S
C1203 C1209 1.491 . S
C1204 H1195 0.950 . S
C1204 C1203 1.398 . S
C1204 C1205 1.391 . S
C1205 H1193 0.950 . S
C1205 C1201 1.393 . S
C1205 C1204 1.391 . S
C1206 H1196 0.950 . S
C1206 C1207 1.386 . S
C1206 C1208 1.391 . S
C1207 C1206 1.386 . S
C1207 C1211 1.393 . S
C1208 H1197 0.950 . S
C1208 C1206 1.391 . S
C1208 C1209 1.400 . S
C1209 C1203 1.491 . S
C1209 C1208 1.400 . S
C1209 C1210 1.398 . S
C1210 H1198 0.950 . S
C1210 C1209 1.398 . S
C1210 C1211 1.391 . S
C1211 H1199 0.950 . S
C1211 C1207 1.393 . S
C1211 C1210 1.391 . S
H1212 C1220 0.950 . S
H1213 C1225 0.950 . S
H1214 C1222 0.950 . S
H1215 C1224 0.950 . S
H1216 C1226 0.950 . S
H1217 C1228 0.950 . S
H1218 C1230 0.950 . S
H1219 C1231 0.950 . S
C1220 H1212 0.950 . S
C1220 C1221 1.386 . S
C1220 C1222 1.391 . S
C1221 C1220 1.386 . S
C1221 C1225 1.393 . S
C1222 H1214 0.950 . S
C1222 C1220 1.391 . S
C1222 C1223 1.400 . S
C1223 C1222 1.400 . S
C1223 C1224 1.398 . S
C1223 C1229 1.491 . S
C1224 H1215 0.950 . S
C1224 C1223 1.398 . S
C1224 C1225 1.391 . S
C1225 H1213 0.950 . S
C1225 C1221 1.393 . S
C1225 C1224 1.391 . S
C1226 H1216 0.950 . S
C1226 C1227 1.386 . S
C1226 C1228 1.391 . S
C1227 C1226 1.386 . S
C1227 C1231 1.393 . S
C1228 H1217 0.950 . S
C1228 C1226 1.391 . S
C1228 C1229 1.400 . S
C1229 C1223 1.491 . S
C1229 C1228 1.400 . S
C1229 C1230 1.398 . S
C1230 H1218 0.950 . S
C1230 C1229 1.398 . S
C1230 C1231 1.391 . S
C1231 H1219 0.950 . S
C1231 C1227 1.393 . S
C1231 C1230 1.391 . S
H1232 C1240 0.950 . S
H1233 C1245 0.950 . S
H1234 C1242 0.950 . S
H1235 C1244 0.950 . S
H1236 C1246 0.950 . S
H1237 C1248 0.950 . S
H1238 C1250 0.950 . S
H1239 C1251 0.950 . S
C1240 H1232 0.950 . S
C1240 C1241 1.386 . S
C1240 C1242 1.391 . S
C1241 C1240 1.386 . S
C1241 C1245 1.393 . S
C1242 H1234 0.950 . S
C1242 C1240 1.391 . S
C1242 C1243 1.400 . S
C1243 C1242 1.400 . S
C1243 C1244 1.398 . S
C1243 C1249 1.491 . S
C1244 H1235 0.950 . S
C1244 C1243 1.398 . S
C1244 C1245 1.391 . S
C1245 H1233 0.950 . S
C1245 C1241 1.393 . S
C1245 C1244 1.391 . S
C1246 H1236 0.950 . S
C1246 C1247 1.386 . S
C1246 C1248 1.391 . S
C1247 C1246 1.386 . S
C1247 C1251 1.393 . S
C1248 H1237 0.950 . S
C1248 C1246 1.391 . S
C1248 C1249 1.400 . S
C1249 C1243 1.491 . S
C1249 C1248 1.400 . S
C1249 C1250 1.398 . S
C1250 H1238 0.950 . S
C1250 C1249 1.398 . S
C1250 C1251 1.391 . S
C1251 H1239 0.950 . S
C1251 C1247 1.393 . S
C1251 C1250 1.391 . S
H1252 C1260 0.950 . S
H1253 C1265 0.950 . S
H1254 C1262 0.950 . S
H1255 C1264 0.950 . S
H1256 C1266 0.950 . S
H1257 C1268 0.950 . S
H1258 C1270 0.950 . S
H1259 C1271 0.950 . S
C1260 H1252 0.950 . S
C1260 C1261 1.386 . S
C1260 C1262 1.391 . S
C1261 C1260 1.386 . S
C1261 C1265 1.393 . S
C1262 H1254 0.950 . S
C1262 C1260 1.391 . S
C1262 C1263 1.400 . S
C1263 C1262 1.400 . S
C1263 C1264 1.398 . S
C1263 C1269 1.491 . S
C1264 H1255 0.950 . S
C1264 C1263 1.398 . S
C1264 C1265 1.391 . S
C1265 H1253 0.950 . S
C1265 C1261 1.393 . S
C1265 C1264 1.391 . S
C1266 H1256 0.950 . S
C1266 C1267 1.386 . S
C1266 C1268 1.391 . S
C1267 C1266 1.386 . S
C1267 C1271 1.393 . S
C1268 H1257 0.950 . S
C1268 C1266 1.391 . S
C1268 C1269 1.400 . S
C1269 C1263 1.491 . S
C1269 C1268 1.400 . S
C1269 C1270 1.398 . S
C1270 H1258 0.950 . S
C1270 C1269 1.398 . S
C1270 C1271 1.391 . S
C1271 H1259 0.950 . S
C1271 C1267 1.393 . S
C1271 C1270 1.391 . S
H1272 C1280 0.950 . S
H1273 C1285 0.950 . S
H1274 C1282 0.950 . S
H1275 C1284 0.950 . S
H1276 C1286 0.950 . S
H1277 C1288 0.950 . S
H1278 C1290 0.950 . S
H1279 C1291 0.950 . S
C1280 H1272 0.950 . S
C1280 C1281 1.386 . S
C1280 C1282 1.391 . S
C1281 C1280 1.386 . S
C1281 C1285 1.393 . S
C1282 H1274 0.950 . S
C1282 C1280 1.391 . S
C1282 C1283 1.400 . S
C1283 C1282 1.400 . S
C1283 C1284 1.398 . S
C1283 C1289 1.491 . S
C1284 H1275 0.950 . S
C1284 C1283 1.398 . S
C1284 C1285 1.391 . S
C1285 H1273 0.950 . S
C1285 C1281 1.393 . S
C1285 C1284 1.391 . S
C1286 H1276 0.950 . S
C1286 C1287 1.386 . S
C1286 C1288 1.391 . S
C1287 C1286 1.386 . S
C1287 C1291 1.393 . S
C1288 H1277 0.950 . S
C1288 C1286 1.391 . S
C1288 C1289 1.400 . S
C1289 C1283 1.491 . S
C1289 C1288 1.400 . S
C1289 C1290 1.398 . S
C1290 H1278 0.950 . S
C1290 C1289 1.398 . S
C1290 C1291 1.391 . S
C1291 H1279 0.950 . S
C1291 C1287 1.393 . S
C1291 C1290 1.391 . S
H1292 C1300 0.950 . S
H1293 C1305 0.950 . S
H1294 C1302 0.950 . S
H1295 C1304 0.950 . S
H1296 C1306 0.950 . S
H1297 C1308 0.950 . S
H1298 C1310 0.950 . S
H1299 C1311 0.950 . S
C1300 H1292 0.950 . S
C1300 C1301 1.386 . S
C1300 C1302 1.391 . S
C1301 C1300 1.386 . S
C1301 C1305 1.393 . S
C1302 H1294 0.950 . S
C1302 C1300 1.391 . S
C1302 C1303 1.400 . S
C1303 C1302 1.400 . S
C1303 C1304 1.398 . S
C1303 C1309 1.491 . S
C1304 H1295 0.950 . S
C1304 C1303 1.398 . S
C1304 C1305 1.391 . S
C1305 H1293 0.950 . S
C1305 C1301 1.393 . S
C1305 C1304 1.391 . S
C1306 H1296 0.950 . S
C1306 C1307 1.386 . S
C1306 C1308 1.391 . S
C1307 C1306 1.386 . S
C1307 C1311 1.393 . S
C1308 H1297 0.950 . S
C1308 C1306 1.391 . S
C1308 C1309 1.400 . S
C1309 C1303 1.491 . S
C1309 C1308 1.400 . S
C1309 C1310 1.398 . S
C1310 H1298 0.950 . S
C1310 C1309 1.398 . S
C1310 C1311 1.391 . S
C1311 H1299 0.950 . S
C1311 C1307 1.393 . S
C1311 C1310 1.391 . S
H1312 C1320 0.950 . S
H1313 C1325 0.950 . S
H1314 C1322 0.950 . S
H1315 C1324 0.950 . S
H1316 C1326 0.950 . S
H1317 C1328 0.950 . S
H1318 C1330 0.950 . S
H1319 C1331 0.950 . S
C1320 H1312 0.950 . S
C1320 C1321 1.386 . S
C1320 C1322 1.391 . S
C1321 C1320 1.386 . S
C1321 C1325 1.393 . S
C1322 H1314 0.950 . S
C1322 C1320 1.391 . S
C1322 C1323 1.400 . S
C1323 C1322 1.400 . S
C1323 C1324 1.398 . S
C1323 C1329 1.491 . S
C1324 H1315 0.950 . S
C1324 C1323 1.398 . S
C1324 C1325 1.391 . S
C1325 H1313 0.950 . S
C1325 C1321 1.393 . S
C1325 C1324 1.391 . S
C1326 H1316 0.950 . S
C1326 C1327 1.386 . S
C1326 C1328 1.391 . S
C1327 C1326 1.386 . S
C1327 C1331 1.393 . S
C1328 H1317 0.950 . S
C1328 C1326 1.391 . S
C1328 C1329 1.400 . S
C1329 C1323 1.491 . S
C1329 C1328 1.400 . S
C1329 C1330 1.398 . S
C1330 H1318 0.950 . S
C1330 C1329 1.398 . S
C1330 C1331 1.391 . S
C1331 H1319 0.950 . S
C1331 C1327 1.393 . S
C1331 C1330 1.391 . S
H1332 C1340 0.950 . S
H1333 C1345 0.950 . S
H1334 C1342 0.950 . S
H1335 C1344 0.950 . S
H1336 C1346 0.950 . S
H1337 C1348 0.950 . S
H1338 C1350 0.950 . S
H1339 C1351 0.950 . S
C1340 H1332 0.950 . S
C1340 C1341 1.386 . S
C1340 C1342 1.391 . S
C1341 C1340 1.386 . S
C1341 C1345 1.393 . S
C1342 H1334 0.950 . S
C1342 C1340 1.391 . S
C1342 C1343 1.400 . S
C1343 C1342 1.400 . S
C1343 C1344 1.398 . S
C1343 C1349 1.491 . S
C1344 H1335 0.950 . S
C1344 C1343 1.398 . S
C1344 C1345 1.391 . S
C1345 H1333 0.950 . S
C1345 C1341 1.393 . S
C1345 C1344 1.391 . S
C1346 H1336 0.950 . S
C1346 C1347 1.386 . S
C1346 C1348 1.391 . S
C1347 C1346 1.386 . S
C1347 C1351 1.393 . S
C1348 H1337 0.950 . S
C1348 C1346 1.391 . S
C1348 C1349 1.400 . S
C1349 C1343 1.491 . S
C1349 C1348 1.400 . S
C1349 C1350 1.398 . S
C1350 H1338 0.950 . S
C1350 C1349 1.398 . S
C1350 C1351 1.391 . S
C1351 H1339 0.950 . S
C1351 C1347 1.393 . S
C1351 C1350 1.391 . S
H1352 C1360 0.950 . S
H1353 C1365 0.950 . S
H1354 C1362 0.950 . S
H1355 C1364 0.950 . S
H1356 C1366 0.950 . S
H1357 C1368 0.950 . S
H1358 C1370 0.950 . S
H1359 C1371 0.950 . S
C1360 H1352 0.950 . S
C1360 C1361 1.386 . S
C1360 C1362 1.391 . S
C1361 C1360 1.386 . S
C1361 C1365 1.393 . S
C1362 H1354 0.950 . S
C1362 C1360 1.391 . S
C1362 C1363 1.400 . S
C1363 C1362 1.400 . S
C1363 C1364 1.398 . S
C1363 C1369 1.491 . S
C1364 H1355 0.950 . S
C1364 C1363 1.398 . S
C1364 C1365 1.391 . S
C1365 H1353 0.950 . S
C1365 C1361 1.393 . S
C1365 C1364 1.391 . S
C1366 H1356 0.950 . S
C1366 C1367 1.386 . S
C1366 C1368 1.391 . S
C1367 C1366 1.386 . S
C1367 C1371 1.393 . S
C1368 H1357 0.950 . S
C1368 C1366 1.391 . S
C1368 C1369 1.400 . S
C1369 C1363 1.491 . S
C1369 C1368 1.400 . S
C1369 C1370 1.398 . S
C1370 H1358 0.950 . S
C1370 C1369 1.398 . S
C1370 C1371 1.391 . S
C1371 H1359 0.950 . S
C1371 C1367 1.393 . S
C1371 C1370 1.391 . S
H1372 C1380 0.950 . S
H1373 C1385 0.950 . S
H1374 C1382 0.950 . S
H1375 C1384 0.950 . S
H1376 C1386 0.950 . S
H1377 C1388 0.950 . S
H1378 C1390 0.950 . S
H1379 C1391 0.950 . S
C1380 H1372 0.950 . S
C1380 C1381 1.386 . S
C1380 C1382 1.391 . S
C1381 C1380 1.386 . S
C1381 C1385 1.393 . S
C1382 H1374 0.950 . S
C1382 C1380 1.391 . S
C1382 C1383 1.400 . S
C1383 C1382 1.400 . S
C1383 C1384 1.398 . S
C1383 C1389 1.491 . S
C1384 H1375 0.950 . S
C1384 C1383 1.398 . S
C1384 C1385 1.391 . S
C1385 H1373 0.950 . S
C1385 C1381 1.393 . S
C1385 C1384 1.391 . S
C1386 H1376 0.950 . S
C1386 C1387 1.386 . S
C1386 C1388 1.391 . S
C1387 C1386 1.386 . S
C1387 C1391 1.393 . S
C1388 H1377 0.950 . S
C1388 C1386 1.391 . S
C1388 C1389 1.400 . S
C1389 C1383 1.491 . S
C1389 C1388 1.400 . S
C1389 C1390 1.398 . S
C1390 H1378 0.950 . S
C1390 C1389 1.398 . S
C1390 C1391 1.391 . S
C1391 H1379 0.950 . S
C1391 C1387 1.393 . S
C1391 C1390 1.391 . S
H1392 C1400 0.950 . S
H1393 C1405 0.950 . S
H1394 C1402 0.950 . S
H1395 C1404 0.950 . S
H1396 C1406 0.950 . S
H1397 C1408 0.950 . S
H1398 C1410 0.950 . S
H1399 C1411 0.950 . S
C1400 H1392 0.950 . S
C1400 C1401 1.386 . S
C1400 C1402 1.391 . S
C1401 C1400 1.386 . S
C1401 C1405 1.393 . S
C1402 H1394 0.950 . S
C1402 C1400 1.391 . S
C1402 C1403 1.400 . S
C1403 C1402 1.400 . S
C1403 C1404 1.398 . S
C1403 C1409 1.491 . S
C1404 H1395 0.950 . S
C1404 C1403 1.398 . S
C1404 C1405 1.391 . S
C1405 H1393 0.950 . S
C1405 C1401 1.393 . S
C1405 C1404 1.391 . S
C1406 H1396 0.950 . S
C1406 C1407 1.386 . S
C1406 C1408 1.391 . S
C1407 C1406 1.386 . S
C1407 C1411 1.393 . S
C1408 H1397 0.950 . S
C1408 C1406 1.391 . S
C1408 C1409 1.400 . S
C1409 C1403 1.491 . S
C1409 C1408 1.400 . S
C1409 C1410 1.398 . S
C1410 H1398 0.950 . S
C1410 C1409 1.398 . S
C1410 C1411 1.391 . S
C1411 H1399 0.950 . S
C1411 C1407 1.393 . S
C1411 C1410 1.391 . S
H1412 C1420 0.950 . S
H1413 C1425 0.950 . S
H1414 C1422 0.950 . S
H1415 C1424 0.950 . S
H1416 C1426 0.950 . S
H1417 C1428 0.950 . S
H1418 C1430 0.950 . S
H1419 C1431 0.950 . S
C1420 H1412 0.950 . S
C1420 C1421 1.386 . S
C1420 C1422 1.391 . S
C1421 C1420 1.386 . S
C1421 C1425 1.393 . S
C1422 H1414 0.950 . S
C1422 C1420 1.391 . S
C1422 C1423 1.400 . S
C1423 C1422 1.400 . S
C1423 C1424 1.398 . S
C1423 C1429 1.491 . S
C1424 H1415 0.950 . S
C1424 C1423 1.398 . S
C1424 C1425 1.391 . S
C1425 H1413 0.950 . S
C1425 C1421 1.393 . S
C1425 C1424 1.391 . S
C1426 H1416 0.950 . S
C1426 C1427 1.386 . S
C1426 C1428 1.391 . S
C1427 C1426 1.386 . S
C1427 C1431 1.393 . S
C1428 H1417 0.950 . S
C1428 C1426 1.391 . S
C1428 C1429 1.400 . S
C1429 C1423 1.491 . S
C1429 C1428 1.400 . S
C1429 C1430 1.398 . S
C1430 H1418 0.950 . S
C1430 C1429 1.398 . S
C1430 C1431 1.391 . S
C1431 H1419 0.950 . S
C1431 C1427 1.393 . S
C1431 C1430 1.391 . S
H1432 C1440 0.950 . S
H1433 C1445 0.950 . S
H1434 C1442 0.950 . S
H1435 C1444 0.950 . S
H1436 C1446 0.950 . S
H1437 C1448 0.950 . S
H1438 C1450 0.950 . S
H1439 C1451 0.950 . S
C1440 H1432 0.950 . S
C1440 C1441 1.386 . S
C1440 C1442 1.391 . S
C1441 C1440 1.386 . S
C1441 C1445 1.393 . S
C1442 H1434 0.950 . S
C1442 C1440 1.391 . S
C1442 C1443 1.400 . S
C1443 C1442 1.400 . S
C1443 C1444 1.398 . S
C1443 C1449 1.491 . S
C1444 H1435 0.950 . S
C1444 C1443 1.398 . S
C1444 C1445 1.391 . S
C1445 H1433 0.950 . S
C1445 C1441 1.393 . S
C1445 C1444 1.391 . S
C1446 H1436 0.950 . S
C1446 C1447 1.386 . S
C1446 C1448 1.391 . S
C1447 C1446 1.386 . S
C1447 C1451 1.393 . S
C1448 H1437 0.950 . S
C1448 C1446 1.391 . S
C1448 C1449 1.400 . S
C1449 C1443 1.491 . S
C1449 C1448 1.400 . S
C1449 C1450 1.398 . S
C1450 H1438 0.950 . S
C1450 C1449 1.398 . S
C1450 C1451 1.391 . S
C1451 H1439 0.950 . S
C1451 C1447 1.393 . S
C1451 C1450 1.391 . S
H1452 C1460 0.950 . S
H1453 C1465 0.950 . S
H1454 C1462 0.950 . S
H1455 C1464 0.950 . S
H1456 C1466 0.950 . S
H1457 C1468 0.950 . S
H1458 C1470 0.950 . S
H1459 C1471 0.950 . S
C1460 H1452 0.950 . S
C1460 C1461 1.386 . S
C1460 C1462 1.391 . S
C1461 C1460 1.386 . S
C1461 C1465 1.393 . S
C1462 H1454 0.950 . S
C1462 C1460 1.391 . S
C1462 C1463 1.400 . S
C1463 C1462 1.400 . S
C1463 C1464 1.398 . S
C1463 C1469 1.491 . S
C1464 H1455 0.950 . S
C1464 C1463 1.398 . S
C1464 C1465 1.391 . S
C1465 H1453 0.950 . S
C1465 C1461 1.393 . S
C1465 C1464 1.391 . S
C1466 H1456 0.950 . S
C1466 C1467 1.386 . S
C1466 C1468 1.391 . S
C1467 C1466 1.386 . S
C1467 C1471 1.393 . S
C1468 H1457 0.950 . S
C1468 C1466 1.391 . S
C1468 C1469 1.400 . S
C1469 C1463 1.491 . S
C1469 C1468 1.400 . S
C1469 C1470 1.398 . S
C1470 H1458 0.950 . S
C1470 C1469 1.398 . S
C1470 C1471 1.391 . S
C1471 H1459 0.950 . S
C1471 C1467 1.393 . S
C1471 C1470 1.391 . S
H1472 C1480 0.950 . S
H1473 C1485 0.950 . S
H1474 C1482 0.950 . S
H1475 C1484 0.950 . S
H1476 C1486 0.950 . S
H1477 C1488 0.950 . S
H1478 C1490 0.950 . S
H1479 C1491 0.950 . S
C1480 H1472 0.950 . S
C1480 C1481 1.386 . S
C1480 C1482 1.391 . S
C1481 C1480 1.386 . S
C1481 C1485 1.393 . S
C1482 H1474 0.950 . S
C1482 C1480 1.391 . S
C1482 C1483 1.400 . S
C1483 C1482 1.400 . S
C1483 C1484 1.398 . S
C1483 C1489 1.491 . S
C1484 H1475 0.950 . S
C1484 C1483 1.398 . S
C1484 C1485 1.391 . S
C1485 H1473 0.950 . S
C1485 C1481 1.393 . S
C1485 C1484 1.391 . S
C1486 H1476 0.950 . S
C1486 C1487 1.386 . S
C1486 C1488 1.391 . S
C1487 C1486 1.386 . S
C1487 C1491 1.393 . S
C1488 H1477 0.950 . S
C1488 C1486 1.391 . S
C1488 C1489 1.400 . S
C1489 C1483 1.491 . S
C1489 C1488 1.400 . S
C1489 C1490 1.398 . S
C1490 H1478 0.950 . S
C1490 C1489 1.398 . S
C1490 C1491 1.391 . S
C1491 H1479 0.950 . S
C1491 C1487 1.393 . S
C1491 C1490 1.391 . S
H1492 C1500 0.950 . S
H1493 C1505 0.950 . S
H1494 C1502 0.950 . S
H1495 C1504 0.950 . S
H1496 C1506 0.950 . S
H1497 C1508 0.950 . S
H1498 C1510 0.950 . S
H1499 C1511 0.950 . S
C1500 H1492 0.950 . S
C1500 C1501 1.386 . S
C1500 C1502 1.391 . S
C1501 C1500 1.386 . S
C1501 C1505 1.393 . S
C1502 H1494 0.950 . S
C1502 C1500 1.391 . S
C1502 C1503 1.400 . S
C1503 C1502 1.400 . S
C1503 C1504 1.398 . S
C1503 C1509 1.491 . S
C1504 H1495 0.950 . S
C1504 C1503 1.398 . S
C1504 C1505 1.391 . S
C1505 H1493 0.950 . S
C1505 C1501 1.393 . S
C1505 C1504 1.391 . S
C1506 H1496 0.950 . S
C1506 C1507 1.386 . S
C1506 C1508 1.391 . S
C1507 C1506 1.386 . S
C1507 C1511 1.393 . S
C1508 H1497 0.950 . S
C1508 C1506 1.391 . S
C1508 C1509 1.400 . S
C1509 C1503 1.491 . S
C1509 C1508 1.400 . S
C1509 C1510 1.398 . S
C1510 H1498 0.950 . S
C1510 C1509 1.398 . S
C1510 C1511 1.391 . S
C1511 H1499 0.950 . S
C1511 C1507 1.393 . S
C1511 C1510 1.391 . S
H1512 C1520 0.950 . S
H1513 C1525 0.950 . S
H1514 C1522 0.950 . S
H1515 C1524 0.950 . S
H1516 C1526 0.950 . S
H1517 C1528 0.950 . S
H1518 C1530 0.950 . S
H1519 C1531 0.950 . S
C1520 H1512 0.950 . S
C1520 C1521 1.386 . S
C1520 C1522 1.391 . S
C1521 C1520 1.386 . S
C1521 C1525 1.393 . S
C1522 H1514 0.950 . S
C1522 C1520 1.391 . S
C1522 C1523 1.400 . S
C1523 C1522 1.400 . S
C1523 C1524 1.398 . S
C1523 C1529 1.491 . S
C1524 H1515 0.950 . S
C1524 C1523 1.398 . S
C1524 C1525 1.391 . S
C1525 H1513 0.950 . S
C1525 C1521 1.393 . S
C1525 C1524 1.391 . S
C1526 H1516 0.950 . S
C1526 C1527 1.386 . S
C1526 C1528 1.391 . S
C1527 C1526 1.386 . S
C1527 C1531 1.393 . S
C1528 H1517 0.950 . S
C1528 C1526 1.391 . S
C1528 C1529 1.400 . S
C1529 C1523 1.491 . S
C1529 C1528 1.400 . S
C1529 C1530 1.398 . S
C1530 H1518 0.950 . S
C1530 C1529 1.398 . S
C1530 C1531 1.391 . S
C1531 H1519 0.950 . S
C1531 C1527 1.393 . S
C1531 C1530 1.391 . S
H1532 C1540 0.950 . S
H1533 C1545 0.950 . S
H1534 C1542 0.950 . S
H1535 C1544 0.950 . S
H1536 C1546 0.950 . S
H1537 C1548 0.950 . S
H1538 C1550 0.950 . S
H1539 C1551 0.950 . S
C1540 H1532 0.950 . S
C1540 C1541 1.386 . S
C1540 C1542 1.391 . S
C1541 C1540 1.386 . S
C1541 C1545 1.393 . S
C1542 H1534 0.950 . S
C1542 C1540 1.391 . S
C1542 C1543 1.400 . S
C1543 C1542 1.400 . S
C1543 C1544 1.398 . S
C1543 C1549 1.491 . S
C1544 H1535 0.950 . S
C1544 C1543 1.398 . S
C1544 C1545 1.391 . S
C1545 H1533 0.950 . S
C1545 C1541 1.393 . S
C1545 C1544 1.391 . S
C1546 H1536 0.950 . S
C1546 C1547 1.386 . S
C1546 C1548 1.391 . S
C1547 C1546 1.386 . S
C1547 C1551 1.393 . S
C1548 H1537 0.950 . S
C1548 C1546 1.391 . S
C1548 C1549 1.400 . S
C1549 C1543 1.491 . S
C1549 C1548 1.400 . S
C1549 C1550 1.398 . S
C1550 H1538 0.950 . S
C1550 C1549 1.398 . S
C1550 C1551 1.391 . S
C1551 H1539 0.950 . S
C1551 C1547 1.393 . S
C1551 C1550 1.391 . S
H1552 C1560 0.950 . S
H1553 C1565 0.950 . S
H1554 C1562 0.950 . S
H1555 C1564 0.950 . S
H1556 C1566 0.950 . S
H1557 C1568 0.950 . S
H1558 C1570 0.950 . S
H1559 C1571 0.950 . S
C1560 H1552 0.950 . S
C1560 C1561 1.386 . S
C1560 C1562 1.391 . S
C1561 C1560 1.386 . S
C1561 C1565 1.393 . S
C1562 H1554 0.950 . S
C1562 C1560 1.391 . S
C1562 C1563 1.400 . S
C1563 C1562 1.400 . S
C1563 C1564 1.398 . S
C1563 C1569 1.491 . S
C1564 H1555 0.950 . S
C1564 C1563 1.398 . S
C1564 C1565 1.391 . S
C1565 H1553 0.950 . S
C1565 C1561 1.393 . S
C1565 C1564 1.391 . S
C1566 H1556 0.950 . S
C1566 C1567 1.386 . S
C1566 C1568 1.391 . S
C1567 C1566 1.386 . S
C1567 C1571 1.393 . S
C1568 H1557 0.950 . S
C1568 C1566 1.391 . S
C1568 C1569 1.400 . S
C1569 C1563 1.491 . S
C1569 C1568 1.400 . S
C1569 C1570 1.398 . S
C1570 H1558 0.950 . S
C1570 C1569 1.398 . S
C1570 C1571 1.391 . S
C1571 H1559 0.950 . S
C1571 C1567 1.393 . S
C1571 C1570 1.391 . S
H1572 C1580 0.950 . S
H1573 C1585 0.950 . S
H1574 C1582 0.950 . S
H1575 C1584 0.950 . S
H1576 C1586 0.950 . S
H1577 C1588 0.950 . S
H1578 C1590 0.950 . S
H1579 C1591 0.950 . S
C1580 H1572 0.950 . S
C1580 C1581 1.386 . S
C1580 C1582 1.391 . S
C1581 C1580 1.386 . S
C1581 C1585 1.393 . S
C1582 H1574 0.950 . S
C1582 C1580 1.391 . S
C1582 C1583 1.400 . S
C1583 C1582 1.400 . S
C1583 C1584 1.398 . S
C1583 C1589 1.491 . S
C1584 H1575 0.950 . S
C1584 C1583 1.398 . S
C1584 C1585 1.391 . S
C1585 H1573 0.950 . S
C1585 C1581 1.393 . S
C1585 C1584 1.391 . S
C1586 H1576 0.950 . S
C1586 C1587 1.386 . S
C1586 C1588 1.391 . S
C1587 C1586 1.386 . S
C1587 C1591 1.393 . S
C1588 H1577 0.950 . S
C1588 C1586 1.391 . S
C1588 C1589 1.400 . S
C1589 C1583 1.491 . S
C1589 C1588 1.400 . S
C1589 C1590 1.398 . S
C1590 H1578 0.950 . S
C1590 C1589 1.398 . S
C1590 C1591 1.391 . S
C1591 H1579 0.950 . S
C1591 C1587 1.393 . S
C1591 C1590 1.391 . S
H1592 C1600 0.950 . S
H1593 C1605 0.950 . S
H1594 C1602 0.950 . S
H1595 C1604 0.950 . S
H1596 C1606 0.950 . S
H1597 C1608 0.950 . S
H1598 C1610 0.950 . S
H1599 C1611 0.950 . S
C1600 H1592 0.950 . S
C1600 C1601 1.386 . S
C1600 C1602 1.391 . S
C1601 C1600 1.386 . S
C1601 C1605 1.393 . S
C1602 H1594 0.950 . S
C1602 C1600 1.391 . S
C1602 C1603 1.400 . S
C1603 C1602 1.400 . S
C1603 C1604 1.398 . S
C1603 C1609 1.491 . S
C1604 H1595 0.950 . S
C1604 C1603 1.398 . S
C1604 C1605 1.391 . S
C1605 H1593 0.950 . S
C1605 C1601 1.393 . S
C1605 C1604 1.391 . S
C1606 H1596 0.950 . S
C1606 C1607 1.386 . S
C1606 C1608 1.391 . S
C1607 C1606 1.386 . S
C1607 C1611 1.393 . S
C1608 H1597 0.950 . S
C1608 C1606 1.391 . S
C1608 C1609 1.400 . S
C1609 C1603 1.491 . S
C1609 C1608 1.400 . S
C1609 C1610 1.398 . S
C1610 H1598 0.950 . S
C1610 C1609 1.398 . S
C1610 C1611 1.391 . S
C1611 H1599 0.950 . S
C1611 C1607 1.393 . S
C1611 C1610 1.391 . S
H1612 C1620 0.950 . S
H1613 C1625 0.950 . S
H1614 C1622 0.950 . S
H1615 C1624 0.950 . S
H1616 C1626 0.950 . S
H1617 C1628 0.950 . S
H1618 C1630 0.950 . S
H1619 C1631 0.950 . S
C1620 H1612 0.950 . S
C1620 C1621 1.386 . S
C1620 C1622 1.391 . S
C1621 C1620 1.386 . S
C1621 C1625 1.393 . S
C1622 H1614 0.950 . S
C1622 C1620 1.391 . S
C1622 C1623 1.400 . S
C1623 C1622 1.400 . S
C1623 C1624 1.398 . S
C1623 C1629 1.491 . S
C1624 H1615 0.950 . S
C1624 C1623 1.398 . S
C1624 C1625 1.391 . S
C1625 H1613 0.950 . S
C1625 C1621 1.393 . S
C1625 C1624 1.391 . S
C1626 H1616 0.950 . S
C1626 C1627 1.386 . S
C1626 C1628 1.391 . S
C1627 C1626 1.386 . S
C1627 C1631 1.393 . S
C1628 H1617 0.950 . S
C1628 C1626 1.391 . S
C1628 C1629 1.400 . S
C1629 C1623 1.491 . S
C1629 C1628 1.400 . S
C1629 C1630 1.398 . S
C1630 H1618 0.950 . S
C1630 C1629 1.398 . S
C1630 C1631 1.391 . S
C1631 H1619 0.950 . S
C1631 C1627 1.393 . S
C1631 C1630 1.391 . S
H1632 C1640 0.950 . S
H1633 C1645 0.950 . S
H1634 C1642 0.950 . S
H1635 C1644 0.950 . S
H1636 C1646 0.950 . S
H1637 C1648 0.950 . S
H1638 C1650 0.950 . S
H1639 C1651 0.950 . S
C1640 H1632 0.950 . S
C1640 C1641 1.386 . S
C1640 C1642 1.391 . S
C1641 C1640 1.386 . S
C1641 C1645 1.393 . S
C1642 H1634 0.950 . S
C1642 C1640 1.391 . S
C1642 C1643 1.400 . S
C1643 C1642 1.400 . S
C1643 C1644 1.398 . S
C1643 C1649 1.491 . S
C1644 H1635 0.950 . S
C1644 C1643 1.398 . S
C1644 C1645 1.391 . S
C1645 H1633 0.950 . S
C1645 C1641 1.393 . S
C1645 C1644 1.391 . S
C1646 H1636 0.950 . S
C1646 C1647 1.386 . S
C1646 C1648 1.391 . S
C1647 C1646 1.386 . S
C1647 C1651 1.393 . S
C1648 H1637 0.950 . S
C1648 C1646 1.391 . S
C1648 C1649 1.400 . S
C1649 C1643 1.491 . S
C1649 C1648 1.400 . S
C1649 C1650 1.398 . S
C1650 H1638 0.950 . S
C1650 C1649 1.398 . S
C1650 C1651 1.391 . S
C1651 H1639 0.950 . S
C1651 C1647 1.393 . S
C1651 C1650 1.391 . S
H1652 C1660 0.950 . S
H1653 C1665 0.950 . S
H1654 C1662 0.950 . S
H1655 C1664 0.950 . S
H1656 C1666 0.950 . S
H1657 C1668 0.950 . S
H1658 C1670 0.950 . S
H1659 C1671 0.950 . S
C1660 H1652 0.950 . S
C1660 C1661 1.386 . S
C1660 C1662 1.391 . S
C1661 C1660 1.386 . S
C1661 C1665 1.393 . S
C1662 H1654 0.950 . S
C1662 C1660 1.391 . S
C1662 C1663 1.400 . S
C1663 C1662 1.400 . S
C1663 C1664 1.398 . S
C1663 C1669 1.491 . S
C1664 H1655 0.950 . S
C1664 C1663 1.398 . S
C1664 C1665 1.391 . S
C1665 H1653 0.950 . S
C1665 C1661 1.393 . S
C1665 C1664 1.391 . S
C1666 H1656 0.950 . S
C1666 C1667 1.386 . S
C1666 C1668 1.391 . S
C1667 C1666 1.386 . S
C1667 C1671 1.393 . S
C1668 H1657 0.950 . S
C1668 C1666 1.391 . S
C1668 C1669 1.400 . S
C1669 C1663 1.491 . S
C1669 C1668 1.400 . S
C1669 C1670 1.398 . S
C1670 H1658 0.950 . S
C1670 C1669 1.398 . S
C1670 C1671 1.391 . S
C1671 H1659 0.950 . S
C1671 C1667 1.393 . S
C1671 C1670 1.391 . S
H1672 C1680 0.950 . S
H1673 C1685 0.950 . S
H1674 C1682 0.950 . S
H1675 C1684 0.950 . S
H1676 C1686 0.950 . S
H1677 C1688 0.950 . S
H1678 C1690 0.950 . S
H1679 C1691 0.950 . S
C1680 H1672 0.950 . S
C1680 C1681 1.386 . S
C1680 C1682 1.391 . S
C1681 C1680 1.386 . S
C1681 C1685 1.393 . S
C1682 H1674 0.950 . S
C1682 C1680 1.391 . S
C1682 C1683 1.400 . S
C1683 C1682 1.400 . S
C1683 C1684 1.398 . S
C1683 C1689 1.491 . S
C1684 H1675 0.950 . S
C1684 C1683 1.398 . S
C1684 C1685 1.391 . S
C1685 H1673 0.950 . S
C1685 C1681 1.393 . S
C1685 C1684 1.391 . S
C1686 H1676 0.950 . S
C1686 C1687 1.386 . S
C1686 C1688 1.391 . S
C1687 C1686 1.386 . S
C1687 C1691 1.393 . S
C1688 H1677 0.950 . S
C1688 C1686 1.391 . S
C1688 C1689 1.400 . S
C1689 C1683 1.491 . S
C1689 C1688 1.400 . S
C1689 C1690 1.398 . S
C1690 H1678 0.950 . S
C1690 C1689 1.398 . S
C1690 C1691 1.391 . S
C1691 H1679 0.950 . S
C1691 C1687 1.393 . S
C1691 C1690 1.391 . S
H1692 C1700 0.950 . S
H1693 C1705 0.950 . S
H1694 C1702 0.950 . S
H1695 C1704 0.950 . S
H1696 C1706 0.950 . S
H1697 C1708 0.950 . S
H1698 C1710 0.950 . S
H1699 C1711 0.950 . S
C1700 H1692 0.950 . S
C1700 C1701 1.386 . S
C1700 C1702 1.391 . S
C1701 C1700 1.386 . S
C1701 C1705 1.393 . S
C1702 H1694 0.950 . S
C1702 C1700 1.391 . S
C1702 C1703 1.400 . S
C1703 C1702 1.400 . S
C1703 C1704 1.398 . S
C1703 C1709 1.491 . S
C1704 H1695 0.950 . S
C1704 C1703 1.398 . S
C1704 C1705 1.391 . S
C1705 H1693 0.950 . S
C1705 C1701 1.393 . S
C1705 C1704 1.391 . S
C1706 H1696 0.950 . S
C1706 C1707 1.386 . S
C1706 C1708 1.391 . S
C1707 C1706 1.386 . S
C1707 C1711 1.393 . S
C1708 H1697 0.950 . S
C1708 C1706 1.391 . S
C1708 C1709 1.400 . S
C1709 C1703 1.491 . S
C1709 C1708 1.400 . S
C1709 C1710 1.398 . S
C1710 H1698 0.950 . S
C1710 C1709 1.398 . S
C1710 C1711 1.391 . S
C1711 H1699 0.950 . S
C1711 C1707 1.393 . S
C1711 C1710 1.391 . S
H1712 C1720 0.950 . S
H1713 C1725 0.950 . S
H1714 C1722 0.950 . S
H1715 C1724 0.950 . S
H1716 C1726 0.950 . S
H1717 C1728 0.950 . S
H1718 C1730 0.950 . S
H1719 C1731 0.950 . S
C1720 H1712 0.950 . S
C1720 C1721 1.386 . S
C1720 C1722 1.391 . S
C1721 C1720 1.386 . S
C1721 C1725 1.393 . S
C1722 H1714 0.950 . S
C1722 C1720 1.391 . S
C1722 C1723 1.400 . S
C1723 C1722 1.400 . S
C1723 C1724 1.398 . S
C1723 C1729 1.491 . S
C1724 H1715 0.950 . S
C1724 C1723 1.398 . S
C1724 C1725 1.391 . S
C1725 H1713 0.950 . S
C1725 C1721 1.393 . S
C1725 C1724 1.391 . S
C1726 H1716 0.950 . S
C1726 C1727 1.386 . S
C1726 C1728 1.391 . S
C1727 C1726 1.386 . S
C1727 C1731 1.393 . S
C1728 H1717 0.950 . S
C1728 C1726 1.391 . S
C1728 C1729 1.400 . S
C1729 C1723 1.491 . S
C1729 C1728 1.400 . S
C1729 C1730 1.398 . S
C1730 H1718 0.950 . S
C1730 C1729 1.398 . S
C1730 C1731 1.391 . S
C1731 H1719 0.950 . S
C1731 C1727 1.393 . S
C1731 C1730 1.391 . S
H1732 C1740 0.950 . S
H1733 C1745 0.950 . S
H1734 C1742 0.950 . S
H1735 C1744 0.950 . S
H1736 C1746 0.950 . S
H1737 C1748 0.950 . S
H1738 C1750 0.950 . S
H1739 C1751 0.950 . S
C1740 H1732 0.950 . S
C1740 C1741 1.386 . S
C1740 C1742 1.391 . S
C1741 C1740 1.386 . S
C1741 C1745 1.393 . S
C1742 H1734 0.950 . S
C1742 C1740 1.391 . S
C1742 C1743 1.400 . S
C1743 C1742 1.400 . S
C1743 C1744 1.398 . S
C1743 C1749 1.491 . S
C1744 H1735 0.950 . S
C1744 C1743 1.398 . S
C1744 C1745 1.391 . S
C1745 H1733 0.950 . S
C1745 C1741 1.393 . S
C1745 C1744 1.391 . S
C1746 H1736 0.950 . S
C1746 C1747 1.386 . S
C1746 C1748 1.391 . S
C1747 C1746 1.386 . S
C1747 C1751 1.393 . S
C1748 H1737 0.950 . S
C1748 C1746 1.391 . S
C1748 C1749 1.400 . S
C1749 C1743 1.491 . S
C1749 C1748 1.400 . S
C1749 C1750 1.398 . S
C1750 H1738 0.950 . S
C1750 C1749 1.398 . S
C1750 C1751 1.391 . S
C1751 H1739 0.950 . S
C1751 C1747 1.393 . S
C1751 C1750 1.391 . S
H1752 C1760 0.950 . S
H1753 C1765 0.950 . S
H1754 C1762 0.950 . S
H1755 C1764 0.950 . S
H1756 C1766 0.950 . S
H1757 C1768 0.950 . S
H1758 C1770 0.950 . S
H1759 C1771 0.950 . S
C1760 H1752 0.950 . S
C1760 C1761 1.386 . S
C1760 C1762 1.391 . S
C1761 C1760 1.386 . S
C1761 C1765 1.393 . S
C1762 H1754 0.950 . S
C1762 C1760 1.391 . S
C1762 C1763 1.400 . S
C1763 C1762 1.400 . S
C1763 C1764 1.398 . S
C1763 C1769 1.491 . S
C1764 H1755 0.950 . S
C1764 C1763 1.398 . S
C1764 C1765 1.391 . S
C1765 H1753 0.950 . S
C1765 C1761 1.393 . S
C1765 C1764 1.391 . S
C1766 H1756 0.950 . S
C1766 C1767 1.386 . S
C1766 C1768 1.391 . S
C1767 C1766 1.386 . S
C1767 C1771 1.393 . S
C1768 H1757 0.950 . S
C1768 C1766 1.391 . S
C1768 C1769 1.400 . S
C1769 C1763 1.491 . S
C1769 C1768 1.400 . S
C1769 C1770 1.398 . S
C1770 H1758 0.950 . S
C1770 C1769 1.398 . S
C1770 C1771 1.391 . S
C1771 H1759 0.950 . S
C1771 C1767 1.393 . S
C1771 C1770 1.391 . S
H1772 C1780 0.950 . S
H1773 C1785 0.950 . S
H1774 C1782 0.950 . S
H1775 C1784 0.950 . S
H1776 C1786 0.950 . S
H1777 C1788 0.950 . S
H1778 C1790 0.950 . S
H1779 C1791 0.950 . S
C1780 H1772 0.950 . S
C1780 C1781 1.386 . S
C1780 C1782 1.391 . S
C1781 C1780 1.386 . S
C1781 C1785 1.393 . S
C1782 H1774 0.950 . S
C1782 C1780 1.391 . S
C1782 C1783 1.400 . S
C1783 C1782 1.400 . S
C1783 C1784 1.398 . S
C1783 C1789 1.491 . S
C1784 H1775 0.950 . S
C1784 C1783 1.398 . S
C1784 C1785 1.391 . S
C1785 H1773 0.950 . S
C1785 C1781 1.393 . S
C1785 C1784 1.391 . S
C1786 H1776 0.950 . S
C1786 C1787 1.386 . S
C1786 C1788 1.391 . S
C1787 C1786 1.386 . S
C1787 C1791 1.393 . S
C1788 H1777 0.950 . S
C1788 C1786 1.391 . S
C1788 C1789 1.400 . S
C1789 C1783 1.491 . S
C1789 C1788 1.400 . S
C1789 C1790 1.398 . S
C1790 H1778 0.950 . S
C1790 C1789 1.398 . S
C1790 C1791 1.391 . S
C1791 H1779 0.950 . S
C1791 C1787 1.393 . S
C1791 C1790 1.391 . S
H1792 C1800 0.950 . S
H1793 C1805 0.950 . S
H1794 C1802 0.950 . S
H1795 C1804 0.950 . S
H1796 C1806 0.950 . S
H1797 C1808 0.950 . S
H1798 C1810 0.950 . S
H1799 C1811 0.950 . S
C1800 H1792 0.950 . S
C1800 C1801 1.386 . S
C1800 C1802 1.391 . S
C1801 C1800 1.386 . S
C1801 C1805 1.393 . S
C1802 H1794 0.950 . S
C1802 C1800 1.391 . S
C1802 C1803 1.400 . S
C1803 C1802 1.400 . S
C1803 C1804 1.398 . S
C1803 C1809 1.491 . S
C1804 H1795 0.950 . S
C1804 C1803 1.398 . S
C1804 C1805 1.391 . S
C1805 H1793 0.950 . S
C1805 C1801 1.393 . S
C1805 C1804 1.391 . S
C1806 H1796 0.950 . S
C1806 C1807 1.386 . S
C1806 C1808 1.391 . S
C1807 C1806 1.386 . S
C1807 C1811 1.393 . S
C1808 H1797 0.950 . S
C1808 C1806 1.391 . S
C1808 C1809 1.400 . S
C1809 C1803 1.491 . S
C1809 C1808 1.400 . S
C1809 C1810 1.398 . S
C1810 H1798 0.950 . S
C1810 C1809 1.398 . S
C1810 C1811 1.391 . S
C1811 H1799 0.950 . S
C1811 C1807 1.393 . S
C1811 C1810 1.391 . S
H1812 C1820 0.950 . S
H1813 C1825 0.950 . S
H1814 C1822 0.950 . S
H1815 C1824 0.950 . S
H1816 C1826 0.950 . S
H1817 C1828 0.950 . S
H1818 C1830 0.950 . S
H1819 C1831 0.950 . S
C1820 H1812 0.950 . S
C1820 C1821 1.386 . S
C1820 C1822 1.391 . S
C1821 C1820 1.386 . S
C1821 C1825 1.393 . S
C1822 H1814 0.950 . S
C1822 C1820 1.391 . S
C1822 C1823 1.400 . S
C1823 C1822 1.400 . S
C1823 C1824 1.398 . S
C1823 C1829 1.491 . S
C1824 H1815 0.950 . S
C1824 C1823 1.398 . S
C1824 C1825 1.391 . S
C1825 H1813 0.950 . S
C1825 C1821 1.393 . S
C1825 C1824 1.391 . S
C1826 H1816 0.950 . S
C1826 C1827 1.386 . S
C1826 C1828 1.391 . S
C1827 C1826 1.386 . S
C1827 C1831 1.393 . S
C1828 H1817 0.950 . S
C1828 C1826 1.391 . S
C1828 C1829 1.400 . S
C1829 C1823 1.491 . S
C1829 C1828 1.400 . S
C1829 C1830 1.398 . S
C1830 H1818 0.950 . S
C1830 C1829 1.398 . S
C1830 C1831 1.391 . S
C1831 H1819 0.950 . S
C1831 C1827 1.393 . S
C1831 C1830 1.391 . S
H1832 C1840 0.950 . S
H1833 C1845 0.950 . S
H1834 C1842 0.950 . S
H1835 C1844 0.950 . S
H1836 C1846 0.950 . S
H1837 C1848 0.950 . S
H1838 C1850 0.950 . S
H1839 C1851 0.950 . S
C1840 H1832 0.950 . S
C1840 C1841 1.386 . S
C1840 C1842 1.391 . S
C1841 C1840 1.386 . S
C1841 C1845 1.393 . S
C1842 H1834 0.950 . S
C1842 C1840 1.391 . S
C1842 C1843 1.400 . S
C1843 C1842 1.400 . S
C1843 C1844 1.398 . S
C1843 C1849 1.491 . S
C1844 H1835 0.950 . S
C1844 C1843 1.398 . S
C1844 C1845 1.391 . S
C1845 H1833 0.950 . S
C1845 C1841 1.393 . S
C1845 C1844 1.391 . S
C1846 H1836 0.950 . S
C1846 C1847 1.386 . S
C1846 C1848 1.391 . S
C1847 C1846 1.386 . S
C1847 C1851 1.393 . S
C1848 H1837 0.950 . S
C1848 C1846 1.391 . S
C1848 C1849 1.400 . S
C1849 C1843 1.491 . S
C1849 C1848 1.400 . S
C1849 C1850 1.398 . S
C1850 H1838 0.950 . S
C1850 C1849 1.398 . S
C1850 C1851 1.391 . S
C1851 H1839 0.950 . S
C1851 C1847 1.393 . S
C1851 C1850 1.391 . S
H1852 C1860 0.950 . S
H1853 C1865 0.950 . S
H1854 C1862 0.950 . S
H1855 C1864 0.950 . S
H1856 C1866 0.950 . S
H1857 C1868 0.950 . S
H1858 C1870 0.950 . S
H1859 C1871 0.950 . S
C1860 H1852 0.950 . S
C1860 C1861 1.386 . S
C1860 C1862 1.391 . S
C1861 C1860 1.386 . S
C1861 C1865 1.393 . S
C1862 H1854 0.950 . S
C1862 C1860 1.391 . S
C1862 C1863 1.400 . S
C1863 C1862 1.400 . S
C1863 C1864 1.398 . S
C1863 C1869 1.491 . S
C1864 H1855 0.950 . S
C1864 C1863 1.398 . S
C1864 C1865 1.391 . S
C1865 H1853 0.950 . S
C1865 C1861 1.393 . S
C1865 C1864 1.391 . S
C1866 H1856 0.950 . S
C1866 C1867 1.386 . S
C1866 C1868 1.391 . S
C1867 C1866 1.386 . S
C1867 C1871 1.393 . S
C1868 H1857 0.950 . S
C1868 C1866 1.391 . S
C1868 C1869 1.400 . S
C1869 C1863 1.491 . S
C1869 C1868 1.400 . S
C1869 C1870 1.398 . S
C1870 H1858 0.950 . S
C1870 C1869 1.398 . S
C1870 C1871 1.391 . S
C1871 H1859 0.950 . S
C1871 C1867 1.393 . S
C1871 C1870 1.391 . S
H1872 C1880 0.950 . S
H1873 C1885 0.950 . S
H1874 C1882 0.950 . S
H1875 C1884 0.950 . S
H1876 C1886 0.950 . S
H1877 C1888 0.950 . S
H1878 C1890 0.950 . S
H1879 C1891 0.950 . S
C1880 H1872 0.950 . S
C1880 C1881 1.386 . S
C1880 C1882 1.391 . S
C1881 C1880 1.386 . S
C1881 C1885 1.393 . S
C1882 H1874 0.950 . S
C1882 C1880 1.391 . S
C1882 C1883 1.400 . S
C1883 C1882 1.400 . S
C1883 C1884 1.398 . S
C1883 C1889 1.491 . S
C1884 H1875 0.950 . S
C1884 C1883 1.398 . S
C1884 C1885 1.391 . S
C1885 H1873 0.950 . S
C1885 C1881 1.393 . S
C1885 C1884 1.391 . S
C1886 H1876 0.950 . S
C1886 C1887 1.386 . S
C1886 C1888 1.391 . S
C1887 C1886 1.386 . S
C1887 C1891 1.393 . S
C1888 H1877 0.950 . S
C1888 C1886 1.391 . S
C1888 C1889 1.400 . S
C1889 C1883 1.491 . S
C1889 C1888 1.400 . S
C1889 C1890 1.398 . S
C1890 H1878 0.950 . S
C1890 C1889 1.398 . S
C1890 C1891 1.391 . S
C1891 H1879 0.950 . S
C1891 C1887 1.393 . S
C1891 C1890 1.391 . S
H1892 C1900 0.950 . S
H1893 C1905 0.950 . S
H1894 C1902 0.950 . S
H1895 C1904 0.950 . S
H1896 C1906 0.950 . S
H1897 C1908 0.950 . S
H1898 C1910 0.950 . S
H1899 C1911 0.950 . S
C1900 H1892 0.950 . S
C1900 C1901 1.386 . S
C1900 C1902 1.391 . S
C1901 C1900 1.386 . S
C1901 C1905 1.393 . S
C1902 H1894 0.950 . S
C1902 C1900 1.391 . S
C1902 C1903 1.400 . S
C1903 C1902 1.400 . S
C1903 C1904 1.398 . S
C1903 C1909 1.491 . S
C1904 H1895 0.950 . S
C1904 C1903 1.398 . S
C1904 C1905 1.391 . S
C1905 H1893 0.950 . S
C1905 C1901 1.393 . S
C1905 C1904 1.391 . S
C1906 H1896 0.950 . S
C1906 C1907 1.386 . S
C1906 C1908 1.391 . S
C1907 C1906 1.386 . S
C1907 C1911 1.393 . S
C1908 H1897 0.950 . S
C1908 C1906 1.391 . S
C1908 C1909 1.400 . S
C1909 C1903 1.491 . S
C1909 C1908 1.400 . S
C1909 C1910 1.398 . S
C1910 H1898 0.950 . S
C1910 C1909 1.398 . S
C1910 C1911 1.391 . S
C1911 H1899 0.950 . S
C1911 C1907 1.393 . S
C1911 C1910 1.391 . S
H1912 C1920 0.950 . S
H1913 C1925 0.950 . S
H1914 C1922 0.950 . S
H1915 C1924 0.950 . S
H1916 C1926 0.950 . S
H1917 C1928 0.950 . S
H1918 C1930 0.950 . S
H1919 C1931 0.950 . S
C1920 H1912 0.950 . S
C1920 C1921 1.386 . S
C1920 C1922 1.391 . S
C1921 C1920 1.386 . S
C1921 C1925 1.393 . S
C1922 H1914 0.950 . S
C1922 C1920 1.391 . S
C1922 C1923 1.400 . S
C1923 C1922 1.400 . S
C1923 C1924 1.398 . S
C1923 C1929 1.491 . S
C1924 H1915 0.950 . S
C1924 C1923 1.398 . S
C1924 C1925 1.391 . S
C1925 H1913 0.950 . S
C1925 C1921 1.393 . S
C1925 C1924 1.391 . S
C1926 H1916 0.950 . S
C1926 C1927 1.386 . S
C1926 C1928 1.391 . S
C1927 C1926 1.386 . S
C1927 C1931 1.393 . S
C1928 H1917 0.950 . S
C1928 C1926 1.391 . S
C1928 C1929 1.400 . S
C1929 C1923 1.491 . S
C1929 C1928 1.400 . S
C1929 C1930 1.398 . S
C1930 H1918 0.950 . S
C1930 C1929 1.398 . S
C1930 C1931 1.391 . S
C1931 H1919 0.950 . S
C1931 C1927 1.393 . S
C1931 C1930 1.391 . S
H1932 C1940 0.950 . S
H1933 C1945 0.950 . S
H1934 C1942 0.950 . S
H1935 C1944 0.950 . S
H1936 C1946 0.950 . S
H1937 C1948 0.950 . S
H1938 C1950 0.950 . S
H1939 C1951 0.950 . S
C1940 H1932 0.950 . S
C1940 C1941 1.386 . S
C1940 C1942 1.391 . S
C1941 C1940 1.386 . S
C1941 C1945 1.393 . S
C1942 H1934 0.950 . S
C1942 C1940 1.391 . S
C1942 C1943 1.400 . S
C1943 C1942 1.400 . S
C1943 C1944 1.398 . S
C1943 C1949 1.491 . S
C1944 H1935 0.950 . S
C1944 C1943 1.398 . S
C1944 C1945 1.391 . S
C1945 H1933 0.950 . S
C1945 C1941 1.393 . S
C1945 C1944 1.391 . S
C1946 H1936 0.950 . S
C1946 C1947 1.386 . S
C1946 C1948 1.391 . S
C1947 C1946 1.386 . S
C1947 C1951 1.393 . S
C1948 H1937 0.950 . S
C1948 C1946 1.391 . S
C1948 C1949 1.400 . S
C1949 C1943 1.491 . S
C1949 C1948 1.400 . S
C1949 C1950 1.398 . S
C1950 H1938 0.950 . S
C1950 C1949 1.398 . S
C1950 C1951 1.391 . S
C1951 H1939 0.950 . S
C1951 C1947 1.393 . S
C1951 C1950 1.391 . S
H1952 C1960 0.950 . S
H1953 C1965 0.950 . S
H1954 C1962 0.950 . S
H1955 C1964 0.950 . S
H1956 C1966 0.950 . S
H1957 C1968 0.950 . S
H1958 C1970 0.950 . S
H1959 C1971 0.950 . S
C1960 H1952 0.950 . S
C1960 C1961 1.386 . S
C1960 C1962 1.391 . S
C1961 C1960 1.386 . S
C1961 C1965 1.393 . S
C1962 H1954 0.950 . S
C1962 C1960 1.391 . S
C1962 C1963 1.400 . S
C1963 C1962 1.400 . S
C1963 C1964 1.398 . S
C1963 C1969 1.491 . S
C1964 H1955 0.950 . S
C1964 C1963 1.398 . S
C1964 C1965 1.391 . S
C1965 H1953 0.950 . S
C1965 C1961 1.393 . S
C1965 C1964 1.391 . S
C1966 H1956 0.950 . S
C1966 C1967 1.386 . S
C1966 C1968 1.391 . S
C1967 C1966 1.386 . S
C1967 C1971 1.393 . S
C1968 H1957 0.950 . S
C1968 C1966 1.391 . S
C1968 C1969 1.400 . S
C1969 C1963 1.491 . S
C1969 C1968 1.400 . S
C1969 C1970 1.398 . S
C1970 H1958 0.950 . S
C1970 C1969 1.398 . S
C1970 C1971 1.391 . S
C1971 H1959 0.950 . S
C1971 C1967 1.393 . S
C1971 C1970 1.391 . S
H1972 C1980 0.950 . S
H1973 C1985 0.950 . S
H1974 C1982 0.950 . S
H1975 C1984 0.950 . S
H1976 C1986 0.950 . S
H1977 C1988 0.950 . S
H1978 C1990 0.950 . S
H1979 C1991 0.950 . S
C1980 H1972 0.950 . S
C1980 C1981 1.386 . S
C1980 C1982 1.391 . S
C1981 C1980 1.386 . S
C1981 C1985 1.393 . S
C1982 H1974 0.950 . S
C1982 C1980 1.391 . S
C1982 C1983 1.400 . S
C1983 C1982 1.400 . S
C1983 C1984 1.398 . S
C1983 C1989 1.491 . S
C1984 H1975 0.950 . S
C1984 C1983 1.398 . S
C1984 C1985 1.391 . S
C1985 H1973 0.950 . S
C1985 C1981 1.393 . S
C1985 C1984 1.391 . S
C1986 H1976 0.950 . S
C1986 C1987 1.386 . S
C1986 C1988 1.391 . S
C1987 C1986 1.386 . S
C1987 C1991 1.393 . S
C1988 H1977 0.950 . S
C1988 C1986 1.391 . S
C1988 C1989 1.400 . S
C1989 C1983 1.491 . S
C1989 C1988 1.400 . S
C1989 C1990 1.398 . S
C1990 H1978 0.950 . S
C1990 C1989 1.398 . S
C1990 C1991 1.391 . S
C1991 H1979 0.950 . S
C1991 C1987 1.393 . S
C1991 C1990 1.391 . S
H1992 C2000 0.950 . S
H1993 C2005 0.950 . S
H1994 C2002 0.950 . S
H1995 C2004 0.950 . S
H1996 C2006 0.950 . S
H1997 C2008 0.950 . S
H1998 C2010 0.950 . S
H1999 C2011 0.950 . S
C2000 H1992 0.950 . S
C2000 C2001 1.386 . S
C2000 C2002 1.391 . S
C2001 C2000 1.386 . S
C2001 C2005 1.393 . S
C2002 H1994 0.950 . S
C2002 C2000 1.391 . S
C2002 C2003 1.400 . S
C2003 C2002 1.400 . S
C2003 C2004 1.398 . S
C2003 C2009 1.491 . S
C2004 H1995 0.950 . S
C2004 C2003 1.398 . S
C2004 C2005 1.391 . S
C2005 H1993 0.950 . S
C2005 C2001 1.393 . S
C2005 C2004 1.391 . S
C2006 H1996 0.950 . S
C2006 C2007 1.386 . S
C2006 C2008 1.391 . S
C2007 C2006 1.386 . S
C2007 C2011 1.393 . S
C2008 H1997 0.950 . S
C2008 C2006 1.391 . S
C2008 C2009 1.400 . S
C2009 C2003 1.491 . S
C2009 C2008 1.400 . S
C2009 C2010 1.398 . S
C2010 H1998 0.950 . S
C2010 C2009 1.398 . S
C2010 C2011 1.391 . S
C2011 H1999 0.950 . S
C2011 C2007 1.393 . S
C2011 C2010 1.391 . S
H2012 C2020 0.950 . S
H2013 C2025 0.950 . S
H2014 C2022 0.950 . S
H2015 C2024 0.950 . S
H2016 C2026 0.950 . S
H2017 C2028 0.950 . S
H2018 C2030 0.950 . S
H2019 C2031 0.950 . S
C2020 H2012 0.950 . S
C2020 C2021 1.386 . S
C2020 C2022 1.391 . S
C2021 C2020 1.386 . S
C2021 C2025 1.393 . S
C2022 H2014 0.950 . S
C2022 C2020 1.391 . S
C2022 C2023 1.400 . S
C2023 C2022 1.400 . S
C2023 C2024 1.398 . S
C2023 C2029 1.491 . S
C2024 H2015 0.950 . S
C2024 C2023 1.398 . S
C2024 C2025 1.391 . S
C2025 H2013 0.950 . S
C2025 C2021 1.393 . S
C2025 C2024 1.391 . S
C2026 H2016 0.950 . S
C2026 C2027 1.386 . S
C2026 C2028 1.391 . S
C2027 C2026 1.386 . S
C2027 C2031 1.393 . S
C2028 H2017 0.950 . S
C2028 C2026 1.391 . S
C2028 C2029 1.400 . S
C2029 C2023 1.491 . S
C2029 C2028 1.400 . S
C2029 C2030 1.398 . S
C2030 H2018 0.950 . S
C2030 C2029 1.398 . S
C2030 C2031 1.391 . S
C2031 H2019 0.950 . S
C2031 C2027 1.393 . S
C2031 C2030 1.391 . S
H2032 C2040 0.950 . S
H2033 C2045 0.950 . S
H2034 C2042 0.950 . S
H2035 C2044 0.950 . S
H2036 C2046 0.950 . S
H2037 C2048 0.950 . S
H2038 C2050 0.950 . S
H2039 C2051 0.950 . S
C2040 H2032 0.950 . S
C2040 C2041 1.386 . S
C2040 C2042 1.391 . S
C2041 C2040 1.386 . S
C2041 C2045 1.393 . S
C2042 H2034 0.950 . S
C2042 C2040 1.391 . S
C2042 C2043 1.400 . S
C2043 C2042 1.400 . S
C2043 C2044 1.398 . S
C2043 C2049 1.491 . S
C2044 H2035 0.950 . S
C2044 C2043 1.398 . S
C2044 C2045 1.391 . S
C2045 H2033 0.950 . S
C2045 C2041 1.393 . S
C2045 C2044 1.391 . S
C2046 H2036 0.950 . S
C2046 C2047 1.386 . S
C2046 C2048 1.391 . S
C2047 C2046 1.386 . S
C2047 C2051 1.393 . S
C2048 H2037 0.950 . S
C2048 C2046 1.391 . S
C2048 C2049 1.400 . S
C2049 C2043 1.491 . S
C2049 C2048 1.400 . S
C2049 C2050 1.398 . S
C2050 H2038 0.950 . S
C2050 C2049 1.398 . S
C2050 C2051 1.391 . S
C2051 H2039 0.950 . S
C2051 C2047 1.393 . S
C2051 C2050 1.391 . S
H2052 C2060 0.950 . S
H2053 C2065 0.950 . S
H2054 C2062 0.950 . S
H2055 C2064 0.950 . S
H2056 C2066 0.950 . S
H2057 C2068 0.950 . S
H2058 C2070 0.950 . S
H2059 C2071 0.950 . S
C2060 H2052 0.950 . S
C2060 C2061 1.386 . S
C2060 C2062 1.391 . S
C2061 C2060 1.386 . S
C2061 C2065 1.393 . S
C2062 H2054 0.950 . S
C2062 C2060 1.391 . S
C2062 C2063 1.400 . S
C2063 C2062 1.400 . S
C2063 C2064 1.398 . S
C2063 C2069 1.491 . S
C2064 H2055 0.950 . S
C2064 C2063 1.398 . S
C2064 C2065 1.391 . S
C2065 H2053 0.950 . S
C2065 C2061 1.393 . S
C2065 C2064 1.391 . S
C2066 H2056 0.950 . S
C2066 C2067 1.386 . S
C2066 C2068 1.391 . S
C2067 C2066 1.386 . S
C2067 C2071 1.393 . S
C2068 H2057 0.950 . S
C2068 C2066 1.391 . S
C2068 C2069 1.400 . S
C2069 C2063 1.491 . S
C2069 C2068 1.400 . S
C2069 C2070 1.398 . S
C2070 H2058 0.950 . S
C2070 C2069 1.398 . S
C2070 C2071 1.391 . S
C2071 H2059 0.950 . S
C2071 C2067 1.393 . S
C2071 C2070 1.391 . S
H2072 C2080 0.950 . S
H2073 C2085 0.950 . S
H2074 C2082 0.950 . S
H2075 C2084 0.950 . S
H2076 C2086 0.950 . S
H2077 C2088 0.950 . S
H2078 C2090 0.950 . S
H2079 C2091 0.950 . S
C2080 H2072 0.950 . S
C2080 C2081 1.386 . S
C2080 C2082 1.391 . S
C2081 C2080 1.386 . S
C2081 C2085 1.393 . S
C2082 H2074 0.950 . S
C2082 C2080 1.391 . S
C2082 C2083 1.400 . S
C2083 C2082 1.400 . S
C2083 C2084 1.398 . S
C2083 C2089 1.491 . S
C2084 H2075 0.950 . S
C2084 C2083 1.398 . S
C2084 C2085 1.391 . S
C2085 H2073 0.950 . S
C2085 C2081 1.393 . S
C2085 C2084 1.391 . S
C2086 H2076 0.950 . S
C2086 C2087 1.386 . S
C2086 C2088 1.391 . S
C2087 C2086 1.386 . S
C2087 C2091 1.393 . S
C2088 H2077 0.950 . S
C2088 C2086 1.391 . S
C2088 C2089 1.400 . S
C2089 C2083 1.491 . S
C2089 C2088 1.400 . S
C2089 C2090 1.398 . S
C2090 H2078 0.950 . S
C2090 C2089 1.398 . S
C2090 C2091 1.391 . S
C2091 H2079 0.950 . S
C2091 C2087 1.393 . S
C2091 C2090 1.391 . S
H2092 C2100 0.950 . S
H2093 C2105 0.950 . S
H2094 C2102 0.950 . S
H2095 C2104 0.950 . S
H2096 C2106 0.950 . S
H2097 C2108 0.950 . S
H2098 C2110 0.950 . S
H2099 C2111 0.950 . S
C2100 H2092 0.950 . S
C2100 C2101 1.386 . S
C2100 C2102 1.391 . S
C2101 C2100 1.386 . S
C2101 C2105 1.393 . S
C2102 H2094 0.950 . S
C2102 C2100 1.391 . S
C2102 C2103 1.400 . S
C2103 C2102 1.400 . S
C2103 C2104 1.398 . S
C2103 C2109 1.491 . S
C2104 H2095 0.950 . S
C2104 C2103 1.398 . S
C2104 C2105 1.391 . S
C2105 H2093 0.950 . S
C2105 C2101 1.393 . S
C2105 C2104 1.391 . S
C2106 H2096 0.950 . S
C2106 C2107 1.386 . S
C2106 C2108 1.391 . S
C2107 C2106 1.386 . S
C2107 C2111 1.393 . S
C2108 H2097 0.950 . S
C2108 C2106 1.391 . S
C2108 C2109 1.400 . S
C2109 C2103 1.491 . S
C2109 C2108 1.400 . S
C2109 C2110 1.398 . S
C2110 H2098 0.950 . S
C2110 C2109 1.398 . S
C2110 C2111 1.391 . S
C2111 H2099 0.950 . S
C2111 C2107 1.393 . S
C2111 C2110 1.391 . S
H2112 C2120 0.950 . S
H2113 C2125 0.950 . S
H2114 C2122 0.950 . S
H2115 C2124 0.950 . S
H2116 C2126 0.950 . S
H2117 C2128 0.950 . S
H2118 C2130 0.950 . S
H2119 C2131 0.950 . S
C2120 H2112 0.950 . S
C2120 C2121 1.386 . S
C2120 C2122 1.391 . S
C2121 C2120 1.386 . S
C2121 C2125 1.393 . S
C2122 H2114 0.950 . S
C2122 C2120 1.391 . S
C2122 C2123 1.400 . S
C2123 C2122 1.400 . S
C2123 C2124 1.398 . S
C2123 C2129 1.491 . S
C2124 H2115 0.950 . S
C2124 C2123 1.398 . S
C2124 C2125 1.391 . S
C2125 H2113 0.950 . S
C2125 C2121 1.393 . S
C2125 C2124 1.391 . S
C2126 H2116 0.950 . S
C2126 C2127 1.386 . S
C2126 C2128 1.391 . S
C2127 C2126 1.386 . S
C2127 C2131 1.393 . S
C2128 H2117 0.950 . S
C2128 C2126 1.391 . S
C2128 C2129 1.400 . S
C2129 C2123 1.491 . S
C2129 C2128 1.400 . S
C2129 C2130 1.398 . S
C2130 H2118 0.950 . S
C2130 C2129 1.398 . S
C2130 C2131 1.391 . S
C2131 H2119 0.950 . S
C2131 C2127 1.393 . S
C2131 C2130 1.391 . S
H2132 C2140 0.950 . S
H2133 C2145 0.950 . S
H2134 C2142 0.950 . S
H2135 C2144 0.950 . S
H2136 C2146 0.950 . S
H2137 C2148 0.950 . S
H2138 C2150 0.950 . S
H2139 C2151 0.950 . S
C2140 H2132 0.950 . S
C2140 C2141 1.386 . S
C2140 C2142 1.391 . S
C2141 C2140 1.386 . S
C2141 C2145 1.393 . S
C2142 H2134 0.950 . S
C2142 C2140 1.391 . S
C2142 C2143 1.400 . S
C2143 C2142 1.400 . S
C2143 C2144 1.398 . S
C2143 C2149 1.491 . S
C2144 H2135 0.950 . S
C2144 C2143 1.398 . S
C2144 C2145 1.391 . S
C2145 H2133 0.950 . S
C2145 C2141 1.393 . S
C2145 C2144 1.391 . S
C2146 H2136 0.950 . S
C2146 C2147 1.386 . S
C2146 C2148 1.391 . S
C2147 C2146 1.386 . S
C2147 C2151 1.393 . S
C2148 H2137 0.950 . S
C2148 C2146 1.391 . S
C2148 C2149 1.400 . S
C2149 C2143 1.491 . S
C2149 C2148 1.400 . S
C2149 C2150 1.398 . S
C2150 H2138 0.950 . S
C2150 C2149 1.398 . S
C2150 C2151 1.391 . S
C2151 H2139 0.950 . S
C2151 C2147 1.393 . S
C2151 C2150 1.391 . S
H2152 C2160 0.950 . S
H2153 C2165 0.950 . S
H2154 C2162 0.950 . S
H2155 C2164 0.950 . S
H2156 C2166 0.950 . S
H2157 C2168 0.950 . S
H2158 C2170 0.950 . S
H2159 C2171 0.950 . S
C2160 H2152 0.950 . S
C2160 C2161 1.386 . S
C2160 C2162 1.391 . S
C2161 C2160 1.386 . S
C2161 C2165 1.393 . S
C2162 H2154 0.950 . S
C2162 C2160 1.391 . S
C2162 C2163 1.400 . S
C2163 C2162 1.400 . S
C2163 C2164 1.398 . S
C2163 C2169 1.491 . S
C2164 H2155 0.950 . S
C2164 C2163 1.398 . S
C2164 C2165 1.391 . S
C2165 H2153 0.950 . S
C2165 C2161 1.393 . S
C2165 C2164 1.391 . S
C2166 H2156 0.950 . S
C2166 C2167 1.386 . S
C2166 C2168 1.391 . S
C2167 C2166 1.386 . S
C2167 C2171 1.393 . S
C2168 H2157 0.950 . S
C2168 C2166 1.391 . S
C2168 C2169 1.400 . S
C2169 C2163 1.491 . S
C2169 C2168 1.400 . S
C2169 C2170 1.398 . S
C2170 H2158 0.950 . S
C2170 C2169 1.398 . S
C2170 C2171 1.391 . S
C2171 H2159 0.950 . S
C2171 C2167 1.393 . S
C2171 C2170 1.391 . S
H2172 C2180 0.950 . S
H2173 C2185 0.950 . S
H2174 C2182 0.950 . S
H2175 C2184 0.950 . S
H2176 C2186 0.950 . S
H2177 C2188 0.950 . S
H2178 C2190 0.950 . S
H2179 C2191 0.950 . S
C2180 H2172 0.950 . S
C2180 C2181 1.386 . S
C2180 C2182 1.391 . S
C2181 C2180 1.386 . S
C2181 C2185 1.393 . S
C2182 H2174 0.950 . S
C2182 C2180 1.391 . S
C2182 C2183 1.400 . S
C2183 C2182 1.400 . S
C2183 C2184 1.398 . S
C2183 C2189 1.491 . S
C2184 H2175 0.950 . S
C2184 C2183 1.398 . S
C2184 C2185 1.391 . S
C2185 H2173 0.950 . S
C2185 C2181 1.393 . S
C2185 C2184 1.391 . S
C2186 H2176 0.950 . S
C2186 C2187 1.386 . S
C2186 C2188 1.391 . S
C2187 C2186 1.386 . S
C2187 C2191 1.393 . S
C2188 H2177 0.950 . S
C2188 C2186 1.391 . S
C2188 C2189 1.400 . S
C2189 C2183 1.491 . S
C2189 C2188 1.400 . S
C2189 C2190 1.398 . S
C2190 H2178 0.950 . S
C2190 C2189 1.398 . S
C2190 C2191 1.391 . S
C2191 H2179 0.950 . S
C2191 C2187 1.393 . S
C2191 C2190 1.391 . S
H2192 C2200 0.950 . S
H2193 C2205 0.950 . S
H2194 C2202 0.950 . S
H2195 C2204 0.950 . S
H2196 C2206 0.950 . S
H2197 C2208 0.950 . S
H2198 C2210 0.950 . S
H2199 C2211 0.950 . S
C2200 H2192 0.950 . S
C2200 C2201 1.386 . S
C2200 C2202 1.391 . S
C2201 C2200 1.386 . S
C2201 C2205 1.393 . S
C2202 H2194 0.950 . S
C2202 C2200 1.391 . S
C2202 C2203 1.400 . S
C2203 C2202 1.400 . S
C2203 C2204 1.398 . S
C2203 C2209 1.491 . S
C2204 H2195 0.950 . S
C2204 C2203 1.398 . S
C2204 C2205 1.391 . S
C2205 H2193 0.950 . S
C2205 C2201 1.393 . S
C2205 C2204 1.391 . S
C2206 H2196 0.950 . S
C2206 C2207 1.386 . S
C2206 C2208 1.391 . S
C2207 C2206 1.386 . S
C2207 C2211 1.393 . S
C2208 H2197 0.950 . S
C2208 C2206 1.391 . S
C2208 C2209 1.400 . S
C2209 C2203 1.491 . S
C2209 C2208 1.400 . S
C2209 C2210 1.398 . S
C2210 H2198 0.950 . S
C2210 C2209 1.398 . S
C2210 C2211 1.391 . S
C2211 H2199 0.950 . S
C2211 C2207 1.393 . S
C2211 C2210 1.391 . S
H2212 C2220 0.950 . S
H2213 C2225 0.950 . S
H2214 C2222 0.950 . S
H2215 C2224 0.950 . S
H2216 C2226 0.950 . S
H2217 C2228 0.950 . S
H2218 C2230 0.950 . S
H2219 C2231 0.950 . S
C2220 H2212 0.950 . S
C2220 C2221 1.386 . S
C2220 C2222 1.391 . S
C2221 C2220 1.386 . S
C2221 C2225 1.393 . S
C2222 H2214 0.950 . S
C2222 C2220 1.391 . S
C2222 C2223 1.400 . S
C2223 C2222 1.400 . S
C2223 C2224 1.398 . S
C2223 C2229 1.491 . S
C2224 H2215 0.950 . S
C2224 C2223 1.398 . S
C2224 C2225 1.391 . S
C2225 H2213 0.950 . S
C2225 C2221 1.393 . S
C2225 C2224 1.391 . S
C2226 H2216 0.950 . S
C2226 C2227 1.386 . S
C2226 C2228 1.391 . S
C2227 C2226 1.386 . S
C2227 C2231 1.393 . S
C2228 H2217 0.950 . S
C2228 C2226 1.391 . S
C2228 C2229 1.400 . S
C2229 C2223 1.491 . S
C2229 C2228 1.400 . S
C2229 C2230 1.398 . S
C2230 H2218 0.950 . S
C2230 C2229 1.398 . S
C2230 C2231 1.391 . S
C2231 H2219 0.950 . S
C2231 C2227 1.393 . S
C2231 C2230 1.391 . S
H2232 C2240 0.950 . S
H2233 C2245 0.950 . S
H2234 C2242 0.950 . S
H2235 C2244 0.950 . S
H2236 C2246 0.950 . S
H2237 C2248 0.950 . S
H2238 C2250 0.950 . S
H2239 C2251 0.950 . S
C2240 H2232 0.950 . S
C2240 C2241 1.386 . S
C2240 C2242 1.391 . S
C2241 C2240 1.386 . S
C2241 C2245 1.393 . S
C2242 H2234 0.950 . S
C2242 C2240 1.391 . S
C2242 C2243 1.400 . S
C2243 C2242 1.400 . S
C2243 C2244 1.398 . S
C2243 C2249 1.491 . S
C2244 H2235 0.950 . S
C2244 C2243 1.398 . S
C2244 C2245 1.391 . S
C2245 H2233 0.950 . S
C2245 C2241 1.393 . S
C2245 C2244 1.391 . S
C2246 H2236 0.950 . S
C2246 C2247 1.386 . S
C2246 C2248 1.391 . S
C2247 C2246 1.386 . S
C2247 C2251 1.393 . S
C2248 H2237 0.950 . S
C2248 C2246 1.391 . S
C2248 C2249 1.400 . S
C2249 C2243 1.491 . S
C2249 C2248 1.400 . S
C2249 C2250 1.398 . S
C2250 H2238 0.950 . S
C2250 C2249 1.398 . S
C2250 C2251 1.391 . S
C2251 H2239 0.950 . S
C2251 C2247 1.393 . S
C2251 C2250 1.391 . S
H2252 C2260 0.950 . S
H2253 C2265 0.950 . S
H2254 C2262 0.950 . S
H2255 C2264 0.950 . S
H2256 C2266 0.950 . S
H2257 C2268 0.950 . S
H2258 C2270 0.950 . S
H2259 C2271 0.950 . S
C2260 H2252 0.950 . S
C2260 C2261 1.386 . S
C2260 C2262 1.391 . S
C2261 C2260 1.386 . S
C2261 C2265 1.393 . S
C2262 H2254 0.950 . S
C2262 C2260 1.391 . S
C2262 C2263 1.400 . S
C2263 C2262 1.400 . S
C2263 C2264 1.398 . S
C2263 C2269 1.491 . S
C2264 H2255 0.950 . S
C2264 C2263 1.398 . S
C2264 C2265 1.391 . S
C2265 H2253 0.950 . S
C2265 C2261 1.393 . S
C2265 C2264 1.391 . S
C2266 H2256 0.950 . S
C2266 C2267 1.386 . S
C2266 C2268 1.391 . S
C2267 C2266 1.386 . S
C2267 C2271 1.393 . S
C2268 H2257 0.950 . S
C2268 C2266 1.391 . S
C2268 C2269 1.400 . S
C2269 C2263 1.491 . S
C2269 C2268 1.400 . S
C2269 C2270 1.398 . S
C2270 H2258 0.950 . S
C2270 C2269 1.398 . S
C2270 C2271 1.391 . S
C2271 H2259 0.950 . S
C2271 C2267 1.393 . S
C2271 C2270 1.391 . S
H2272 C2280 0.950 . S
H2273 C2285 0.950 . S
H2274 C2282 0.950 . S
H2275 C2284 0.950 . S
H2276 C2286 0.950 . S
H2277 C2288 0.950 . S
H2278 C2290 0.950 . S
H2279 C2291 0.950 . S
C2280 H2272 0.950 . S
C2280 C2281 1.386 . S
C2280 C2282 1.391 . S
C2281 C2280 1.386 . S
C2281 C2285 1.393 . S
C2282 H2274 0.950 . S
C2282 C2280 1.391 . S
C2282 C2283 1.400 . S
C2283 C2282 1.400 . S
C2283 C2284 1.398 . S
C2283 C2289 1.491 . S
C2284 H2275 0.950 . S
C2284 C2283 1.398 . S
C2284 C2285 1.391 . S
C2285 H2273 0.950 . S
C2285 C2281 1.393 . S
C2285 C2284 1.391 . S
C2286 H2276 0.950 . S
C2286 C2287 1.386 . S
C2286 C2288 1.391 . S
C2287 C2286 1.386 . S
C2287 C2291 1.393 . S
C2288 H2277 0.950 . S
C2288 C2286 1.391 . S
C2288 C2289 1.400 . S
C2289 C2283 1.491 . S
C2289 C2288 1.400 . S
C2289 C2290 1.398 . S
C2290 H2278 0.950 . S
C2290 C2289 1.398 . S
C2290 C2291 1.391 . S
C2291 H2279 0.950 . S
C2291 C2287 1.393 . S
C2291 C2290 1.391 . S
H2292 C2300 0.950 . S
H2293 C2305 0.950 . S
H2294 C2302 0.950 . S
H2295 C2304 0.950 . S
H2296 C2306 0.950 . S
H2297 C2308 0.950 . S
H2298 C2310 0.950 . S
H2299 C2311 0.950 . S
C2300 H2292 0.950 . S
C2300 C2301 1.386 . S
C2300 C2302 1.391 . S
C2301 C2300 1.386 . S
C2301 C2305 1.393 . S
C2302 H2294 0.950 . S
C2302 C2300 1.391 . S
C2302 C2303 1.400 . S
C2303 C2302 1.400 . S
C2303 C2304 1.398 . S
C2303 C2309 1.491 . S
C2304 H2295 0.950 . S
C2304 C2303 1.398 . S
C2304 C2305 1.391 . S
C2305 H2293 0.950 . S
C2305 C2301 1.393 . S
C2305 C2304 1.391 . S
C2306 H2296 0.950 . S
C2306 C2307 1.386 . S
C2306 C2308 1.391 . S
C2307 C2306 1.386 . S
C2307 C2311 1.393 . S
C2308 H2297 0.950 . S
C2308 C2306 1.391 . S
C2308 C2309 1.400 . S
C2309 C2303 1.491 . S
C2309 C2308 1.400 . S
C2309 C2310 1.398 . S
C2310 H2298 0.950 . S
C2310 C2309 1.398 . S
C2310 C2311 1.391 . S
C2311 H2299 0.950 . S
C2311 C2307 1.393 . S
C2311 C2310 1.391 . S
H2312 C2320 0.950 . S
H2313 C2325 0.950 . S
H2314 C2322 0.950 . S
H2315 C2324 0.950 . S
H2316 C2326 0.950 . S
H2317 C2328 0.950 . S
H2318 C2330 0.950 . S
H2319 C2331 0.950 . S
C2320 H2312 0.950 . S
C2320 C2321 1.386 . S
C2320 C2322 1.391 . S
C2321 C2320 1.386 . S
C2321 C2325 1.393 . S
C2322 H2314 0.950 . S
C2322 C2320 1.391 . S
C2322 C2323 1.400 . S
C2323 C2322 1.400 . S
C2323 C2324 1.398 . S
C2323 C2329 1.491 . S
C2324 H2315 0.950 . S
C2324 C2323 1.398 . S
C2324 C2325 1.391 . S
C2325 H2313 0.950 . S
C2325 C2321 1.393 . S
C2325 C2324 1.391 . S
C2326 H2316 0.950 . S
C2326 C2327 1.386 . S
C2326 C2328 1.391 . S
C2327 C2326 1.386 . S
C2327 C2331 1.393 . S
C2328 H2317 0.950 . S
C2328 C2326 1.391 . S
C2328 C2329 1.400 . S
C2329 C2323 1.491 . S
C2329 C2328 1.400 . S
C2329 C2330 1.398 . S
C2330 H2318 0.950 . S
C2330 C2329 1.398 . S
C2330 C2331 1.391 . S
C2331 H2319 0.950 . S
C2331 C2327 1.393 . S
C2331 C2330 1.391 . S
H2332 C2340 0.950 . S
H2333 C2345 0.950 . S
H2334 C2342 0.950 . S
H2335 C2344 0.950 . S
H2336 C2346 0.950 . S
H2337 C2348 0.950 . S
H2338 C2350 0.950 . S
H2339 C2351 0.950 . S
C2340 H2332 0.950 . S
C2340 C2341 1.386 . S
C2340 C2342 1.391 . S
C2341 C2340 1.386 . S
C2341 C2345 1.393 . S
C2342 H2334 0.950 . S
C2342 C2340 1.391 . S
C2342 C2343 1.400 . S
C2343 C2342 1.400 . S
C2343 C2344 1.398 . S
C2343 C2349 1.491 . S
C2344 H2335 0.950 . S
C2344 C2343 1.398 . S
C2344 C2345 1.391 . S
C2345 H2333 0.950 . S
C2345 C2341 1.393 . S
C2345 C2344 1.391 . S
C2346 H2336 0.950 . S
C2346 C2347 1.386 . S
C2346 C2348 1.391 . S
C2347 C2346 1.386 . S
C2347 C2351 1.393 . S
C2348 H2337 0.950 . S
C2348 C2346 1.391 . S
C2348 C2349 1.400 . S
C2349 C2343 1.491 . S
C2349 C2348 1.400 . S
C2349 C2350 1.398 . S
C2350 H2338 0.950 . S
C2350 C2349 1.398 . S
C2350 C2351 1.391 . S
C2351 H2339 0.950 . S
C2351 C2347 1.393 . S
C2351 C2350 1.391 . S
H2352 C2360 0.950 . S
H2353 C2365 0.950 . S
H2354 C2362 0.950 . S
H2355 C2364 0.950 . S
H2356 C2366 0.950 . S
H2357 C2368 0.950 . S
H2358 C2370 0.950 . S
H2359 C2371 0.950 . S
C2360 H2352 0.950 . S
C2360 C2361 1.386 . S
C2360 C2362 1.391 . S
C2361 C2360 1.386 . S
C2361 C2365 1.393 . S
C2362 H2354 0.950 . S
C2362 C2360 1.391 . S
C2362 C2363 1.400 . S
C2363 C2362 1.400 . S
C2363 C2364 1.398 . S
C2363 C2369 1.491 . S
C2364 H2355 0.950 . S
C2364 C2363 1.398 . S
C2364 C2365 1.391 . S
C2365 H2353 0.950 . S
C2365 C2361 1.393 . S
C2365 C2364 1.391 . S
C2366 H2356 0.950 . S
C2366 C2367 1.386 . S
C2366 C2368 1.391 . S
C2367 C2366 1.386 . S
C2367 C2371 1.393 . S
C2368 H2357 0.950 . S
C2368 C2366 1.391 . S
C2368 C2369 1.400 . S
C2369 C2363 1.491 . S
C2369 C2368 1.400 . S
C2369 C2370 1.398 . S
C2370 H2358 0.950 . S
C2370 C2369 1.398 . S
C2370 C2371 1.391 . S
C2371 H2359 0.950 . S
C2371 C2367 1.393 . S
C2371 C2370 1.391 . S
H2372 C2380 0.950 . S
H2373 C2385 0.950 . S
H2374 C2382 0.950 . S
H2375 C2384 0.950 . S
H2376 C2386 0.950 . S
H2377 C2388 0.950 . S
H2378 C2390 0.950 . S
H2379 C2391 0.950 . S
C2380 H2372 0.950 . S
C2380 C2381 1.386 . S
C2380 C2382 1.391 . S
C2381 C2380 1.386 . S
C2381 C2385 1.393 . S
C2382 H2374 0.950 . S
C2382 C2380 1.391 . S
C2382 C2383 1.400 . S
C2383 C2382 1.400 . S
C2383 C2384 1.398 . S
C2383 C2389 1.491 . S
C2384 H2375 0.950 . S
C2384 C2383 1.398 . S
C2384 C2385 1.391 . S
C2385 H2373 0.950 . S
C2385 C2381 1.393 . S
C2385 C2384 1.391 . S
C2386 H2376 0.950 . S
C2386 C2387 1.386 . S
C2386 C2388 1.391 . S
C2387 C2386 1.386 . S
C2387 C2391 1.393 . S
C2388 H2377 0.950 . S
C2388 C2386 1.391 . S
C2388 C2389 1.400 . S
C2389 C2383 1.491 . S
C2389 C2388 1.400 . S
C2389 C2390 1.398 . S
C2390 H2378 0.950 . S
C2390 C2389 1.398 . S
C2390 C2391 1.391 . S
C2391 H2379 0.950 . S
C2391 C2387 1.393 . S
C2391 C2390 1.391 . S
H2392 C2400 0.950 . S
H2393 C2405 0.950 . S
H2394 C2402 0.950 . S
H2395 C2404 0.950 . S
H2396 C2406 0.950 . S
H2397 C2408 0.950 . S
H2398 C2410 0.950 . S
H2399 C2411 0.950 . S
C2400 H2392 0.950 . S
C2400 C2401 1.386 . S
C2400 C2402 1.391 . S
C2401 C2400 1.386 . S
C2401 C2405 1.393 . S
C2402 H2394 0.950 . S
C2402 C2400 1.391 . S
C2402 C2403 1.400 . S
C2403 C2402 1.400 . S
C2403 C2404 1.398 . S
C2403 C2409 1.491 . S
C2404 H2395 0.950 . S
C2404 C2403 1.398 . S
C2404 C2405 1.391 . S
C2405 H2393 0.950 . S
C2405 C2401 1.393 . S
C2405 C2404 1.391 . S
C2406 H2396 0.950 . S
C2406 C2407 1.386 . S
C2406 C2408 1.391 . S
C2407 C2406 1.386 . S
C2407 C2411 1.393 . S
C2408 H2397 0.950 . S
C2408 C2406 1.391 . S
C2408 C2409 1.400 . S
C2409 C2403 1.491 . S
C2409 C2408 1.400 . S
C2409 C2410 1.398 . S
C2410 H2398 0.950 . S
C2410 C2409 1.398 . S
C2410 C2411 1.391 . S
C2411 H2399 0.950 . S
C2411 C2407 1.393 . S
C2411 C2410 1.391 . S
H2412 C2420 0.950 . S
H2413 C2425 0.950 . S
H2414 C2422 0.950 . S
H2415 C2424 0.950 . S
H2416 C2426 0.950 . S
H2417 C2428 0.950 . S
H2418 C2430 0.950 . S
H2419 C2431 0.950 . S
C2420 H2412 0.950 . S
C2420 C2421 1.386 . S
C2420 C2422 1.391 . S
C2421 C2420 1.386 . S
C2421 C2425 1.393 . S
C2422 H2414 0.950 . S
C2422 C2420 1.391 . S
C2422 C2423 1.400 . S
C2423 C2422 1.400 . S
C2423 C2424 1.398 . S
C2423 C2429 1.491 . S
C2424 H2415 0.950 . S
C2424 C2423 1.398 . S
C2424 C2425 1.391 . S
C2425 H2413 0.950 . S
C2425 C2421 1.393 . S
C2425 C2424 1.391 . S
C2426 H2416 0.950 . S
C2426 C2427 1.386 . S
C2426 C2428 1.391 . S
C2427 C2426 1.386 . S
C2427 C2431 1.393 . S
C2428 H2417 0.950 . S
C2428 C2426 1.391 . S
C2428 C2429 1.400 . S
C2429 C2423 1.491 . S
C2429 C2428 1.400 . S
C2429 C2430 1.398 . S
C2430 H2418 0.950 . S
C2430 C2429 1.398 . S
C2430 C2431 1.391 . S
C2431 H2419 0.950 . S
C2431 C2427 1.393 . S
C2431 C2430 1.391 . S
H2432 C2440 0.950 . S
H2433 C2445 0.950 . S
H2434 C2442 0.950 . S
H2435 C2444 0.950 . S
H2436 C2446 0.950 . S
H2437 C2448 0.950 . S
H2438 C2450 0.950 . S
H2439 C2451 0.950 . S
C2440 H2432 0.950 . S
C2440 C2441 1.386 . S
C2440 C2442 1.391 . S
C2441 C2440 1.386 . S
C2441 C2445 1.393 . S
C2442 H2434 0.950 . S
C2442 C2440 1.391 . S
C2442 C2443 1.400 . S
C2443 C2442 1.400 . S
C2443 C2444 1.398 . S
C2443 C2449 1.491 . S
C2444 H2435 0.950 . S
C2444 C2443 1.398 . S
C2444 C2445 1.391 . S
C2445 H2433 0.950 . S
C2445 C2441 1.393 . S
C2445 C2444 1.391 . S
C2446 H2436 0.950 . S
C2446 C2447 1.386 . S
C2446 C2448 1.391 . S
C2447 C2446 1.386 . S
C2447 C2451 1.393 . S
C2448 H2437 0.950 . S
C2448 C2446 1.391 . S
C2448 C2449 1.400 . S
C2449 C2443 1.491 . S
C2449 C2448 1.400 . S
C2449 C2450 1.398 . S
C2450 H2438 0.950 . S
C2450 C2449 1.398 . S
C2450 C2451 1.391 . S
C2451 H2439 0.950 . S
C2451 C2447 1.393 . S
C2451 C2450 1.391 . S
H2452 C2460 0.950 . S
H2453 C2465 0.950 . S
H2454 C2462 0.950 . S
H2455 C2464 0.950 . S
H2456 C2466 0.950 . S
H2457 C2468 0.950 . S
H2458 C2470 0.950 . S
H2459 C2471 0.950 . S
C2460 H2452 0.950 . S
C2460 C2461 1.386 . S
C2460 C2462 1.391 . S
C2461 C2460 1.386 . S
C2461 C2465 1.393 . S
C2462 H2454 0.950 . S
C2462 C2460 1.391 . S
C2462 C2463 1.400 . S
C2463 C2462 1.400 . S
C2463 C2464 1.398 . S
C2463 C2469 1.491 . S
C2464 H2455 0.950 . S
C2464 C2463 1.398 . S
C2464 C2465 1.391 . S
C2465 H2453 0.950 . S
C2465 C2461 1.393 . S
C2465 C2464 1.391 . S
C2466 H2456 0.950 . S
C2466 C2467 1.386 . S
C2466 C2468 1.391 . S
C2467 C2466 1.386 . S
C2467 C2471 1.393 . S
C2468 H2457 0.950 . S
C2468 C2466 1.391 . S
C2468 C2469 1.400 . S
C2469 C2463 1.491 . S
C2469 C2468 1.400 . S
C2469 C2470 1.398 . S
C2470 H2458 0.950 . S
C2470 C2469 1.398 . S
C2470 C2471 1.391 . S
C2471 H2459 0.950 . S
C2471 C2467 1.393 . S
C2471 C2470 1.391 . S
H2472 C2480 0.950 . S
H2473 C2485 0.950 . S
H2474 C2482 0.950 . S
H2475 C2484 0.950 . S
H2476 C2486 0.950 . S
H2477 C2488 0.950 . S
H2478 C2490 0.950 . S
H2479 C2491 0.950 . S
C2480 H2472 0.950 . S
C2480 C2481 1.386 . S
C2480 C2482 1.391 . S
C2481 C2480 1.386 . S
C2481 C2485 1.393 . S
C2482 H2474 0.950 . S
C2482 C2480 1.391 . S
C2482 C2483 1.400 . S
C2483 C2482 1.400 . S
C2483 C2484 1.398 . S
C2483 C2489 1.491 . S
C2484 H2475 0.950 . S
C2484 C2483 1.398 . S
C2484 C2485 1.391 . S
C2485 H2473 0.950 . S
C2485 C2481 1.393 . S
C2485 C2484 1.391 . S
C2486 H2476 0.950 . S
C2486 C2487 1.386 . S
C2486 C2488 1.391 . S
C2487 C2486 1.386 . S
C2487 C2491 1.393 . S
C2488 H2477 0.950 . S
C2488 C2486 1.391 . S
C2488 C2489 1.400 . S
C2489 C2483 1.491 . S
C2489 C2488 1.400 . S
C2489 C2490 1.398 . S
C2490 H2478 0.950 . S
C2490 C2489 1.398 . S
C2490 C2491 1.391 . S
C2491 H2479 0.950 . S
C2491 C2487 1.393 . S
C2491 C2490 1.391 . S
H2492 C2500 0.950 . S
H2493 C2505 0.950 . S
H2494 C2502 0.950 . S
H2495 C2504 0.950 . S
H2496 C2506 0.950 . S
H2497 C2508 0.950 . S
H2498 C2510 0.950 . S
H2499 C2511 0.950 . S
C2500 H2492 0.950 . S
C2500 C2501 1.386 . S
C2500 C2502 1.391 . S
C2501 C2500 1.386 . S
C2501 C2505 1.393 . S
C2502 H2494 0.950 . S
C2502 C2500 1.391 . S
C2502 C2503 1.400 . S
C2503 C2502 1.400 . S
C2503 C2504 1.398 . S
C2503 C2509 1.491 . S
C2504 H2495 0.950 . S
C2504 C2503 1.398 . S
C2504 C2505 1.391 . S
C2505 H2493 0.950 . S
C2505 C2501 1.393 . S
C2505 C2504 1.391 . S
C2506 H2496 0.950 . S
C2506 C2507 1.386 . S
C2506 C2508 1.391 . S
C2507 C2506 1.386 . S
C2507 C2511 1.393 . S
C2508 H2497 0.950 . S
C2508 C2506 1.391 . S
C2508 C2509 1.400 . S
C2509 C2503 1.491 . S
C2509 C2508 1.400 . S
C2509 C2510 1.398 . S
C2510 H2498 0.950 . S
C2510 C2509 1.398 . S
C2510 C2511 1.391 . S
C2511 H2499 0.950 . S
C2511 C2507 1.393 . S
C2511 C2510 1.391 . S
H2512 C2520 0.950 . S
H2513 C2525 0.950 . S
H2514 C2522 0.950 . S
H2515 C2524 0.950 . S
H2516 C2526 0.950 . S
H2517 C2528 0.950 . S
H2518 C2530 0.950 . S
H2519 C2531 0.950 . S
C2520 H2512 0.950 . S
C2520 C2521 1.386 . S
C2520 C2522 1.391 . S
C2521 C2520 1.386 . S
C2521 C2525 1.393 . S
C2522 H2514 0.950 . S
C2522 C2520 1.391 . S
C2522 C2523 1.400 . S
C2523 C2522 1.400 . S
C2523 C2524 1.398 . S
C2523 C2529 1.491 . S
C2524 H2515 0.950 . S
C2524 C2523 1.398 . S
C2524 C2525 1.391 . S
C2525 H2513 0.950 . S
C2525 C2521 1.393 . S
C2525 C2524 1.391 . S
C2526 H2516 0.950 . S
C2526 C2527 1.386 . S
C2526 C2528 1.391 . S
C2527 C2526 1.386 . S
C2527 C2531 1.393 . S
C2528 H2517 0.950 . S
C2528 C2526 1.391 . S
C2528 C2529 1.400 . S
C2529 C2523 1.491 . S
C2529 C2528 1.400 . S
C2529 C2530 1.398 . S
C2530 H2518 0.950 . S
C2530 C2529 1.398 . S
C2530 C2531 1.391 . S
C2531 H2519 0.950 . S
C2531 C2527 1.393 . S
C2531 C2530 1.391 . S
H2532 C2540 0.950 . S
H2533 C2545 0.950 . S
H2534 C2542 0.950 . S
H2535 C2544 0.950 . S
H2536 C2546 0.950 . S
H2537 C2548 0.950 . S
H2538 C2550 0.950 . S
H2539 C2551 0.950 . S
C2540 H2532 0.950 . S
C2540 C2541 1.386 . S
C2540 C2542 1.391 . S
C2541 C2540 1.386 . S
C2541 C2545 1.393 . S
C2542 H2534 0.950 . S
C2542 C2540 1.391 . S
C2542 C2543 1.400 . S
C2543 C2542 1.400 . S
C2543 C2544 1.398 . S
C2543 C2549 1.491 . S
C2544 H2535 0.950 . S
C2544 C2543 1.398 . S
C2544 C2545 1.391 . S
C2545 H2533 0.950 . S
C2545 C2541 1.393 . S
C2545 C2544 1.391 . S
C2546 H2536 0.950 . S
C2546 C2547 1.386 . S
C2546 C2548 1.391 . S
C2547 C2546 1.386 . S
C2547 C2551 1.393 . S
C2548 H2537 0.950 . S
C2548 C2546 1.391 . S
C2548 C2549 1.400 . S
C2549 C2543 1.491 . S
C2549 C2548 1.400 . S
C2549 C2550 1.398 . S
C2550 H2538 0.950 . S
C2550 C2549 1.398 . S
C2550 C2551 1.391 . S
C2551 H2539 0.950 . S
C2551 C2547 1.393 . S
C2551 C2550 1.391 . S
H2552 C2560 0.950 . S
H2553 C2565 0.950 . S
H2554 C2562 0.950 . S
H2555 C2564 0.950 . S
H2556 C2566 0.950 . S
H2557 C2568 0.950 . S
H2558 C2570 0.950 . S
H2559 C2571 0.950 . S
C2560 H2552 0.950 . S
C2560 C2561 1.386 . S
C2560 C2562 1.391 . S
C2561 C2560 1.386 . S
C2561 C2565 1.393 . S
C2562 H2554 0.950 . S
C2562 C2560 1.391 . S
C2562 C2563 1.400 . S
C2563 C2562 1.400 . S
C2563 C2564 1.398 . S
C2563 C2569 1.491 . S
C2564 H2555 0.950 . S
C2564 C2563 1.398 . S
C2564 C2565 1.391 . S
C2565 H2553 0.950 . S
C2565 C2561 1.393 . S
C2565 C2564 1.391 . S
C2566 H2556 0.950 . S
C2566 C2567 1.386 . S
C2566 C2568 1.391 . S
C2567 C2566 1.386 . S
C2567 C2571 1.393 . S
C2568 H2557 0.950 . S
C2568 C2566 1.391 . S
C2568 C2569 1.400 . S
C2569 C2563 1.491 . S
C2569 C2568 1.400 . S
C2569 C2570 1.398 . S
C2570 H2558 0.950 . S
C2570 C2569 1.398 . S
C2570 C2571 1.391 . S
C2571 H2559 0.950 . S
C2571 C2567 1.393 . S
C2571 C2570 1.391 . S
H2572 C2580 0.950 . S
H2573 C2585 0.950 . S
H2574 C2582 0.950 . S
H2575 C2584 0.950 . S
H2576 C2586 0.950 . S
H2577 C2588 0.950 . S
H2578 C2590 0.950 . S
H2579 C2591 0.950 . S
C2580 H2572 0.950 . S
C2580 C2581 1.386 . S
C2580 C2582 1.391 . S
C2581 C2580 1.386 . S
C2581 C2585 1.393 . S
C2582 H2574 0.950 . S
C2582 C2580 1.391 . S
C2582 C2583 1.400 . S
C2583 C2582 1.400 . S
C2583 C2584 1.398 . S
C2583 C2589 1.491 . S
C2584 H2575 0.950 . S
C2584 C2583 1.398 . S
C2584 C2585 1.391 . S
C2585 H2573 0.950 . S
C2585 C2581 1.393 . S
C2585 C2584 1.391 . S
C2586 H2576 0.950 . S
C2586 C2587 1.386 . S
C2586 C2588 1.391 . S
C2587 C2586 1.386 . S
C2587 C2591 1.393 . S
C2588 H2577 0.950 . S
C2588 C2586 1.391 . S
C2588 C2589 1.400 . S
C2589 C2583 1.491 . S
C2589 C2588 1.400 . S
C2589 C2590 1.398 . S
C2590 H2578 0.950 . S
C2590 C2589 1.398 . S
C2590 C2591 1.391 . S
C2591 H2579 0.950 . S
C2591 C2587 1.393 . S
C2591 C2590 1.391 . S
C681 C132 1.524 . S
C687 C6 1.507 . S
C701 C146 1.530 . S
C707 C20 1.528 . S
C721 C160 1.533 . S
C727 C34 1.520 . S
C741 C48 1.526 . S
C747 C118 1.532 . S
C761 C216 1.524 . S
C767 C62 1.507 . S
C781 C76 1.523 . S
C787 C174 1.507 . S
C801 C188 1.507 . S
C807 C90 1.515 . S
C821 C202 1.507 . S
C827 C104 1.521 . S
C841 C230 1.512 . S
C847 C258 1.509 . S
C861 C244 1.508 . S
C867 C314 1.525 . S
C881 C272 1.526 . S
C887 C328 1.508 . S
C901 C286 1.508 . S
C907 C300 1.527 . S
C921 C342 1.522 . S
C927 C468 1.533 . S
C941 C482 1.517 . S
C947 C356 1.507 . S
C961 C370 1.509 . S
C967 C496 1.528 . S
C981 C384 1.527 . S
C987 C454 1.509 . S
C1001 C552 1.507 . S
C1007 C398 1.524 . S
C1021 C510 1.528 . S
C1027 C412 1.509 . S
C1041 C524 1.533 . S
C1047 C426 1.520 . S
C1061 C538 1.530 . S
C1067 C440 1.511 . S
C1081 C566 1.516 . S
C1087 C594 1.507 . S
C1101 C580 1.510 . S
C1107 C650 1.529 . S
C1121 C608 1.532 . S
C1127 C664 1.515 . S
C1141 C636 1.511 . S
C1147 C622 1.530 . S
C1161 C121 1.346 . S
C1167 C8 1.455 . S
C1181 C135 1.353 . S
C1187 C22 1.452 . S
C1201 C36 1.453 . S
C1207 C149 1.362 . S
C1221 C50 1.452 . S
C1227 C163 1.342 . S
C1241 C64 1.453 . S
C1247 C177 1.366 . S
C1261 C78 1.455 . S
C1267 C191 1.377 . S
C1281 C92 1.452 . S
C1287 C205 1.352 . S
C1301 C219 1.376 . S
C1307 C106 1.455 . S
C1321 C120 1.456 . S
C1327 C233 1.352 . S
C1341 C331 1.354 . S
C1347 C134 1.456 . S
C1361 C148 1.456 . S
C1367 C303 1.350 . S
C1381 C162 1.453 . S
C1387 C317 1.369 . S
C1401 C176 1.453 . S
C1407 C247 1.367 . S
C1421 C190 1.457 . S
C1427 C261 1.374 . S
C1441 C204 1.454 . S
C1447 C275 1.344 . S
C1461 C289 1.372 . S
C1467 C218 1.454 . S
C1481 C9 1.356 . S
C1487 C232 1.452 . S
C1501 C246 1.454 . S
C1507 C65 1.374 . S
C1521 C260 1.456 . S
C1527 C79 1.376 . S
C1541 C274 1.456 . S
C1547 C93 1.355 . S
C1561 C107 1.374 . S
C1567 C288 1.454 . S
C1581 C302 1.452 . S
C1587 C37 1.353 . S
C1601 C316 1.457 . S
C1607 C51 1.366 . S
C1621 C23 1.377 . S
C1627 C330 1.456 . S
C1641 C457 1.345 . S
C1647 C344 1.452 . S
C1661 C358 1.452 . S
C1667 C471 1.351 . S
C1681 C372 1.452 . S
C1687 C485 1.345 . S
C1701 C499 1.377 . S
C1707 C386 1.456 . S
C1721 C513 1.376 . S
C1727 C400 1.455 . S
C1741 C414 1.457 . S
C1747 C527 1.372 . S
C1761 C541 1.359 . S
C1767 C428 1.456 . S
C1781 C555 1.374 . S
C1787 C442 1.457 . S
C1801 C456 1.454 . S
C1807 C569 1.372 . S
C1821 C470 1.452 . S
C1827 C667 1.355 . S
C1841 C484 1.453 . S
C1847 C639 1.364 . S
C1861 C653 1.370 . S
C1867 C498 1.454 . S
C1881 C512 1.456 . S
C1887 C583 1.377 . S
C1901 C526 1.453 . S
C1907 C597 1.342 . S
C1921 C611 1.374 . S
C1927 C540 1.454 . S
C1941 C625 1.341 . S
C1947 C554 1.453 . S
C1961 C568 1.456 . S
C1967 C345 1.376 . S
C1981 C582 1.454 . S
C1987 C401 1.374 . S
C2001 C415 1.373 . S
C2007 C596 1.454 . S
C2021 C610 1.453 . S
C2027 C429 1.341 . S
C2041 C624 1.452 . S
C2047 C443 1.359 . S
C2061 C373 1.376 . S
C2067 C638 1.456 . S
C2081 C652 1.453 . S
C2087 C387 1.342 . S
C2101 C359 1.345 . S
C2107 C666 1.452 . S
C2121 C441 1.618 . S
C2127 C7 1.636 . S
C2141 C21 1.616 . S
C2147 C399 1.642 . S
C2161 C413 1.624 . S
C2167 C35 1.627 . S
C2181 C427 1.621 . S
C2187 C49 1.631 . S
C2201 C63 1.647 . S
C2207 C357 1.634 . S
C2221 C371 1.620 . S
C2227 C77 1.633 . S
C2241 C385 1.620 . S
C2247 C91 1.632 . S
C2261 C105 1.642 . S
C2267 C343 1.616 . S
C2281 C623 1.616 . S
C2287 C119 1.644 . S
C2301 C133 1.629 . S
C2307 C581 1.622 . S
C2321 C147 1.633 . S
C2327 C595 1.619 . S
C2341 C609 1.638 . S
C2347 C161 1.617 . S
C2361 C665 1.632 . S
C2367 C175 1.648 . S
C2381 C637 1.618 . S
C2387 C189 1.636 . S
C2401 C203 1.646 . S
C2407 C651 1.616 . S
C2421 C567 1.628 . S
C2427 C217 1.650 . S
C2441 C231 1.640 . S
C2447 C553 1.616 . S
C2461 C469 1.644 . S
C2467 C245 1.638 . S
C2481 C259 1.630 . S
C2487 C483 1.649 . S
C2501 C497 1.621 . S
C2507 C273 1.651 . S
C2521 C455 1.636 . S
C2527 C287 1.618 . S
C2541 C301 1.635 . S
C2547 C525 1.647 . S
C2561 C539 1.650 . S
C2567 C315 1.620 . S
C2581 C511 1.650 . S
C2587 C329 1.618 . S
