# Generated by pormake.
# Topology sod, (4)-cn, num edge types: 1
# Building blocks:
#     Node 0, Type 0, BuildingBlock: KUFVIS_clean_sbu_0, # of connection points: 4
#     Node 1, Type 0, BuildingBlock: KUFVIS_clean_sbu_0, # of connection points: 4
#     Node 2, Type 0, BuildingBlock: KUFVIS_clean_sbu_0, # of connection points: 4
#     Node 3, Type 0, BuildingBlock: KUFVIS_clean_sbu_0, # of connection points: 4
#     Node 4, Type 0, BuildingBlock: KUFVIS_clean_sbu_0, # of connection points: 4
#     Node 5, Type 0, BuildingBlock: KUFVIS_clean_sbu_0, # of connection points: 4
#     Node 6, Type 0, BuildingBlock: KUFVIS_clean_sbu_0, # of connection points: 4
#     Node 7, Type 0, BuildingBlock: KUFVIS_clean_sbu_0, # of connection points: 4
#     Node 8, Type 0, BuildingBlock: KUFVIS_clean_sbu_0, # of connection points: 4
#     Node 9, Type 0, BuildingBlock: KUFVIS_clean_sbu_0, # of connection points: 4
#     Node 10, Type 0, BuildingBlock: KUFVIS_clean_sbu_0, # of connection points: 4
#     Node 11, Type 0, BuildingBlock: KUFVIS_clean_sbu_0, # of connection points: 4
#     Edge 12, Type (0, 0), BuildingBlock: KIFKEQ_clean_linker_1, # of connection points: 2
#     Edge 13, Type (0, 0), BuildingBlock: KIFKEQ_clean_linker_1, # of connection points: 2
#     Edge 14, Type (0, 0), BuildingBlock: KIFKEQ_clean_linker_1, # of connection points: 2
#     Edge 15, Type (0, 0), BuildingBlock: KIFKEQ_clean_linker_1, # of connection points: 2
#     Edge 16, Type (0, 0), BuildingBlock: KIFKEQ_clean_linker_1, # of connection points: 2
#     Edge 17, Type (0, 0), BuildingBlock: KIFKEQ_clean_linker_1, # of connection points: 2
#     Edge 18, Type (0, 0), BuildingBlock: KIFKEQ_clean_linker_1, # of connection points: 2
#     Edge 19, Type (0, 0), BuildingBlock: KIFKEQ_clean_linker_1, # of connection points: 2
#     Edge 20, Type (0, 0), BuildingBlock: KIFKEQ_clean_linker_1, # of connection points: 2
#     Edge 21, Type (0, 0), BuildingBlock: KIFKEQ_clean_linker_1, # of connection points: 2
#     Edge 22, Type (0, 0), BuildingBlock: KIFKEQ_clean_linker_1, # of connection points: 2
#     Edge 23, Type (0, 0), BuildingBlock: KIFKEQ_clean_linker_1, # of connection points: 2
#     Edge 24, Type (0, 0), BuildingBlock: KIFKEQ_clean_linker_1, # of connection points: 2
#     Edge 25, Type (0, 0), BuildingBlock: KIFKEQ_clean_linker_1, # of connection points: 2
#     Edge 26, Type (0, 0), BuildingBlock: KIFKEQ_clean_linker_1, # of connection points: 2
#     Edge 27, Type (0, 0), BuildingBlock: KIFKEQ_clean_linker_1, # of connection points: 2
#     Edge 28, Type (0, 0), BuildingBlock: KIFKEQ_clean_linker_1, # of connection points: 2
#     Edge 29, Type (0, 0), BuildingBlock: KIFKEQ_clean_linker_1, # of connection points: 2
#     Edge 30, Type (0, 0), BuildingBlock: KIFKEQ_clean_linker_1, # of connection points: 2
#     Edge 31, Type (0, 0), BuildingBlock: KIFKEQ_clean_linker_1, # of connection points: 2
#     Edge 32, Type (0, 0), BuildingBlock: KIFKEQ_clean_linker_1, # of connection points: 2
#     Edge 33, Type (0, 0), BuildingBlock: KIFKEQ_clean_linker_1, # of connection points: 2
#     Edge 34, Type (0, 0), BuildingBlock: KIFKEQ_clean_linker_1, # of connection points: 2
#     Edge 35, Type (0, 0), BuildingBlock: KIFKEQ_clean_linker_1, # of connection points: 2
# Relax obj value: 0.118
# Max RMSD: 0.164
# Mean RMSD: 0.150
data_MOF--net-sod--node1-KUFVIS_clean_sbu_0--edge1-KIFKEQ_clean_linker_1
_symmetry_space_group_name_H-M    P1
_symmetry_Int_Tables_number       1
_symmetry_cell_setting            triclinic
loop_
_symmetry_equiv_pos_as_xyz
'x, y, z'
_cell_length_a     42.50533
_cell_length_b     42.527035
_cell_length_c     42.925894
_cell_angle_alpha  91.251414
_cell_angle_beta   90.141467
_cell_angle_gamma 92.691557
loop_
_atom_site_label
_atom_site_type_symbol
_atom_site_fract_x
_atom_site_fract_y
_atom_site_fract_z
_atom_type_partial_charge
Mn0 Mn 0.0369 0.26556 0.5182 0.0
Mn1 Mn 0.96393 0.29008 0.5032 0.0
C2 C 0.9926 0.23262 0.52645 0.0
C3 C 0.08325 0.23956 0.50852 0.0
C4 C 1.00303 0.3141 0.55836 0.0
O5 O 0.04592 0.30166 0.48766 0.0
O6 O 0.99562 0.31538 0.47977 0.0
C7 C 0.95847 0.27165 0.43645 0.0
N8 N 0.94742 0.26976 0.46614 0.0
C9 C 0.90423 0.23465 0.44975 0.0
C10 C 0.91503 0.23635 0.41897 0.0
C11 C 0.94227 0.25495 0.4123 0.0
C12 C 0.92104 0.25225 0.47278 0.0
H13 H 0.97953 0.28573 0.43125 0.0
C14 C 0.02533 0.31862 0.4751 0.0
O15 O 0.08182 0.26194 0.52931 0.0
O16 O 0.05839 0.234 0.49114 0.0
N17 N 0.93135 0.26685 0.52451 0.0
C18 C 0.92569 0.26569 0.5557 0.0
C19 C 0.90032 0.24667 0.56654 0.0
C20 C 0.88116 0.22906 0.54521 0.0
C21 C 0.88723 0.231 0.51319 0.0
C22 C 0.91256 0.25065 0.50373 0.0
H23 H 0.94072 0.2788 0.57218 0.0
O24 O 0.01812 0.22941 0.54251 0.0
O25 O 0.99326 0.25588 0.50732 0.0
O26 O 0.02626 0.29729 0.55238 0.0
O27 O 0.97801 0.3129 0.54185 0.0
C28 C 0.87012 0.21303 0.49041 0.0
C29 C 0.87827 0.21515 0.45869 0.0
H30 H 0.90287 0.22311 0.40036 0.0
H31 H 0.95086 0.25624 0.38863 0.0
H32 H 0.89586 0.24518 0.59128 0.0
H33 H 0.86231 0.21364 0.55375 0.0
H34 H 0.85162 0.19643 0.4972 0.0
H35 H 0.86515 0.20077 0.44154 0.0
Mn36 Mn 0.78306 0.02447 0.51846 0.0
Mn37 Mn 0.74968 0.09482 0.52502 0.0
C38 C 0.81103 0.07051 0.50449 0.0
C39 C 0.81406 0.9827 0.53214 0.0
C40 C 0.73213 0.04729 0.47428 0.0
O41 O 0.74884 0.01558 0.55128 0.0
O42 O 0.72699 0.06305 0.55072 0.0
C43 C 0.76371 0.1094 0.59158 0.0
N44 N 0.76513 0.11766 0.56112 0.0
C45 C 0.78597 0.16967 0.57494 0.0
C46 C 0.78475 0.16176 0.60647 0.0
C47 C 0.77379 0.1314 0.6148 0.0
C48 C 0.77617 0.14658 0.55283 0.0
H49 H 0.7548 0.08629 0.5981 0.0
C50 C 0.72809 0.03477 0.56012 0.0
O51 O 0.79116 0.97925 0.51231 0.0
O52 O 0.81782 0.01014 0.54605 0.0
N53 N 0.76925 0.12807 0.50176 0.0
C54 C 0.77079 0.13114 0.47028 0.0
C55 C 0.78171 0.15994 0.45796 0.0
C56 C 0.79035 0.18536 0.47813 0.0
C57 C 0.78882 0.1815 0.51048 0.0
C58 C 0.77813 0.15216 0.52137 0.0
H59 H 0.76331 0.11189 0.45474 0.0
O60 O 0.81633 0.04367 0.49092 0.0
O61 O 0.78796 0.0701 0.52435 0.0
O62 O 0.74971 0.02643 0.48434 0.0
O63 O 0.73124 0.07455 0.48694 0.0
C64 C 0.79755 0.20556 0.53236 0.0
C65 C 0.79646 0.19955 0.56455 0.0
H66 H 0.79221 0.17876 0.62447 0.0
H67 H 0.77279 0.12511 0.63909 0.0
H68 H 0.783 0.1627 0.43299 0.0
H69 H 0.79842 0.20765 0.46853 0.0
H70 H 0.80574 0.2286 0.52465 0.0
H71 H 0.80387 0.21803 0.5811 0.0
Mn72 Mn 0.01744 0.78294 0.52687 0.0
Mn73 Mn 0.08422 0.74615 0.51006 0.0
C74 C 0.06707 0.80763 0.53627 0.0
C75 C 0.97597 0.81632 0.51852 0.0
C76 C 0.04233 0.72852 0.56427 0.0
O77 O 1.00211 0.74942 0.49418 0.0
O78 O 0.04875 0.72712 0.48534 0.0
C79 C 0.0924 0.76466 0.44435 0.0
N80 N 0.10377 0.76367 0.47398 0.0
C81 C 0.15499 0.78332 0.4579 0.0
C82 C 0.14389 0.78458 0.42719 0.0
C83 C 0.11234 0.77552 0.42045 0.0
C84 C 0.13374 0.77332 0.48088 0.0
H85 H 0.06842 0.75698 0.43899 0.0
C86 C 0.01924 0.72929 0.48048 0.0
O87 O 0.97402 0.79375 0.53822 0.0
O88 O 1.00158 0.81864 0.50199 0.0
N89 N 0.12055 0.76263 0.53225 0.0
C90 C 0.12706 0.7613 0.56326 0.0
C91 C 0.15748 0.7701 0.57407 0.0
C92 C 0.181 0.77935 0.55278 0.0
C93 C 0.17363 0.78064 0.52097 0.0
C94 C 0.14272 0.77246 0.51171 0.0
H95 H 0.1093 0.7532 0.57954 0.0
O96 O 0.0429 0.81513 0.55286 0.0
O97 O 0.06175 0.78501 0.51606 0.0
O98 O 0.02221 0.7489 0.55905 0.0
O99 O 0.06697 0.72579 0.54779 0.0
C100 C 0.19583 0.78924 0.49802 0.0
C101 C 0.18644 0.79097 0.46656 0.0
H102 H 0.15938 0.79235 0.4086 0.0
H103 H 0.10358 0.77638 0.3968 0.0
H104 H 0.16296 0.76912 0.59865 0.0
H105 H 0.20461 0.7855 0.56113 0.0
H106 H 0.22015 0.79496 0.50438 0.0
H107 H 0.20363 0.79813 0.4492 0.0
Mn108 Mn 0.26886 0.02622 0.51351 0.0
Mn109 Mn 0.29299 0.9536 0.52918 0.0
C110 C 0.23539 0.98162 0.50542 0.0
C111 C 0.24381 0.07331 0.52273 0.0
C112 C 0.31574 0.99021 0.47347 0.0
O113 O 0.30604 0.03615 0.54386 0.0
O114 O 0.31938 0.98598 0.55151 0.0
C115 C 0.27601 0.95238 0.59601 0.0
N116 N 0.27336 0.93958 0.5667 0.0
C117 C 0.23775 0.8981 0.58422 0.0
C118 C 0.2402 0.91071 0.61463 0.0
C119 C 0.25941 0.938 0.62054 0.0
C120 C 0.255 0.91335 0.56077 0.0
H121 H 0.29063 0.97344 0.60061 0.0
C122 C 0.32345 0.01572 0.55598 0.0
O123 O 0.26553 0.07073 0.50192 0.0
O124 O 0.23825 0.04913 0.54032 0.0
N125 N 0.26907 0.92007 0.50889 0.0
C126 C 0.2686 0.91158 0.4781 0.0
C127 C 0.25001 0.88515 0.4681 0.0
C128 C 0.2323 0.86777 0.48989 0.0
C129 C 0.23376 0.87653 0.52157 0.0
C130 C 0.25294 0.90288 0.53017 0.0
H131 H 0.28201 0.92509 0.46128 0.0
O132 O 0.23177 0.00672 0.48938 0.0
O133 O 0.25903 0.98297 0.52462 0.0
O134 O 0.29966 0.01398 0.47957 0.0
O135 O 0.31452 0.96561 0.49001 0.0
C136 C 0.21623 0.86081 0.5448 0.0
C137 C 0.21833 0.87143 0.57611 0.0
H138 H 0.22725 0.89981 0.63356 0.0
H139 H 0.26133 0.94796 0.64392 0.0
H140 H 0.24895 0.87848 0.44364 0.0
H141 H 0.21714 0.84826 0.48183 0.0
H142 H 0.20036 0.84113 0.53874 0.0
H143 H 0.20442 0.85928 0.59365 0.0
Mn144 Mn 0.52768 0.01926 0.25783 0.0
Mn145 Mn 0.52097 0.94428 0.28214 0.0
C146 C 0.54052 0.97753 0.22533 0.0
C147 C 0.51229 0.06343 0.23148 0.0
C148 C 0.57263 0.99048 0.30453 0.0
O149 O 0.49597 0.02259 0.29373 0.0
O150 O 0.49498 0.97168 0.30849 0.0
C151 C 0.45388 0.93055 0.26597 0.0
N152 N 0.48472 0.92372 0.26289 0.0
C153 C 0.47142 0.88056 0.22733 0.0
C154 C 0.43951 0.88705 0.23026 0.0
C155 C 0.43072 0.91217 0.24964 0.0
C156 C 0.49344 0.89954 0.24436 0.0
H157 H 0.44701 0.94993 0.28071 0.0
C158 C 0.48651 1.00015 0.31146 0.0
O159 O 0.53319 0.06557 0.25353 0.0
O160 O 0.49808 0.03601 0.22664 0.0
N161 N 0.54484 0.91576 0.25772 0.0
C162 C 0.5767 0.91392 0.25593 0.0
C163 C 0.58946 0.89061 0.23672 0.0
C164 C 0.56935 0.86946 0.21963 0.0
C165 C 0.53664 0.87177 0.22194 0.0
C166 C 0.52528 0.89529 0.24166 0.0
H167 H 0.59224 0.93025 0.26888 0.0
O168 O 0.55414 1.00518 0.22174 0.0
O169 O 0.52161 0.97496 0.24881 0.0
O170 O 0.56313 0.01328 0.28892 0.0
O171 O 0.55922 0.96299 0.30321 0.0
C172 C 0.51488 0.85207 0.20496 0.0
C173 C 0.4823 0.85647 0.20764 0.0
H174 H 0.42159 0.87309 0.21751 0.0
H175 H 0.40616 0.91743 0.2519 0.0
H176 H 0.61473 0.88906 0.23497 0.0
H177 H 0.57928 0.85174 0.20458 0.0
H178 H 0.52298 0.83376 0.18942 0.0
H179 H 0.46584 0.84148 0.19411 0.0
Mn180 Mn 0.02121 0.51896 0.26007 0.0
Mn181 Mn 0.94841 0.52459 0.29034 0.0
C182 C 0.97654 0.50416 0.23082 0.0
C183 C 0.0646 0.53459 0.22992 0.0
C184 C 0.99526 0.47776 0.31215 0.0
O185 O 0.02797 0.55236 0.2955 0.0
O186 O 0.97694 0.55737 0.31024 0.0
C187 C 0.92985 0.58687 0.26903 0.0
N188 N 0.92479 0.55504 0.26941 0.0
C189 C 0.87814 0.55773 0.23784 0.0
C190 C 0.8829 0.59055 0.23712 0.0
C191 C 0.9089 0.60517 0.25277 0.0
C192 C 0.8997 0.54075 0.25462 0.0
H193 H 0.94974 0.59817 0.28098 0.0
C194 C 0.00641 0.56549 0.31156 0.0
O195 O 0.0669 0.51473 0.25214 0.0
O196 O 0.03784 0.54795 0.22725 0.0
N197 N 0.91959 0.49391 0.27129 0.0
C198 C 0.91974 0.46192 0.27223 0.0
C199 C 0.89614 0.44363 0.25643 0.0
C200 C 0.87265 0.45839 0.23984 0.0
C201 C 0.87304 0.49135 0.23913 0.0
C202 C 0.89708 0.50835 0.25541 0.0
H203 H 0.93784 0.45043 0.28478 0.0
O204 O 1.003 0.49108 0.22515 0.0
O205 O 0.97679 0.5233 0.25461 0.0
O206 O 0.01576 0.48418 0.29158 0.0
O207 O 0.96958 0.49203 0.31429 0.0
C208 C 0.85083 0.50797 0.22244 0.0
C209 C 0.85327 0.54115 0.22196 0.0
H210 H 0.86693 0.60471 0.22439 0.0
H211 H 0.9128 0.63049 0.25226 0.0
H212 H 0.8961 0.41819 0.25695 0.0
H213 H 0.8546 0.44419 0.22752 0.0
H214 H 0.83195 0.49546 0.20965 0.0
H215 H 0.83618 0.55366 0.20889 0.0
Mn216 Mn 0.52408 0.02089 0.75945 0.0
Mn217 Mn 0.44994 0.0238 0.78679 0.0
C218 C 0.48112 0.00701 0.72755 0.0
C219 C 0.5695 0.03797 0.73298 0.0
C220 C 0.49667 0.97678 0.80821 0.0
O221 O 0.52853 0.05233 0.79691 0.0
O222 O 0.47667 0.05654 0.8089 0.0
C223 C 0.43044 0.08623 0.76682 0.0
N224 N 0.42625 0.0543 0.766 0.0
C225 C 0.38049 0.05684 0.73314 0.0
C226 C 0.38435 0.08976 0.73367 0.0
C227 C 0.40947 0.10451 0.75055 0.0
C228 C 0.40205 0.03987 0.74995 0.0
H229 H 0.44965 0.09762 0.77973 0.0
C230 C 0.50598 0.06477 0.81217 0.0
O231 O 0.56993 0.017 0.75429 0.0
O232 O 0.54307 0.05175 0.72913 0.0
N233 N 0.42278 0.99306 0.76559 0.0
C234 C 0.4238 0.96108 0.76545 0.0
C235 C 0.40119 0.94274 0.74834 0.0
C236 C 0.37778 0.95743 0.73159 0.0
C237 C 0.37725 0.99037 0.73201 0.0
C238 C 0.40034 0.00743 0.74954 0.0
H239 H 0.4418 0.94965 0.77817 0.0
O240 O 0.50813 0.99483 0.72233 0.0
O241 O 0.47988 0.02499 0.75213 0.0
O242 O 0.51741 0.98417 0.78826 0.0
O243 O 0.47098 0.99096 0.81069 0.0
C244 C 0.35503 0.00696 0.7153 0.0
C245 C 0.35654 0.04017 0.71603 0.0
H246 H 0.36835 0.10392 0.72097 0.0
H247 H 0.41269 0.12992 0.751 0.0
H248 H 0.40186 0.91733 0.74802 0.0
H249 H 0.36049 0.94321 0.71829 0.0
H250 H 0.33687 0.99441 0.70156 0.0
H251 H 0.33945 0.05266 0.70294 0.0
Mn252 Mn 0.02657 0.52436 0.75952 0.0
Mn253 Mn 0.01718 0.45004 0.78548 0.0
C254 C 0.0371 0.48133 0.72757 0.0
C255 C 0.01322 0.56946 0.73327 0.0
C256 C 0.07076 0.49473 0.80635 0.0
O257 O 0.99567 0.52972 0.79589 0.0
O258 O 0.99248 0.47901 0.81135 0.0
C259 C 0.94963 0.43822 0.77016 0.0
N260 N 0.98013 0.43018 0.76711 0.0
C261 C 0.96497 0.38588 0.73362 0.0
C262 C 0.93339 0.39362 0.73652 0.0
C263 C 0.92571 0.41993 0.75484 0.0
C264 C 0.98778 0.40488 0.74957 0.0
H265 H 0.94362 0.45848 0.78413 0.0
C266 C 0.98536 0.50792 0.81398 0.0
O267 O 0.03453 0.57022 0.75489 0.0
O268 O 0.99744 0.5428 0.72859 0.0
N269 N 0.03978 0.41997 0.76169 0.0
C270 C 0.07148 0.41695 0.7597 0.0
C271 C 0.0832 0.39235 0.74143 0.0
C272 C 0.06222 0.37109 0.7255 0.0
C273 C 0.02968 0.37461 0.72802 0.0
C274 C 0.01938 0.39943 0.74676 0.0
H275 H 0.08769 0.43331 0.77182 0.0
O276 O 0.05169 0.50838 0.7232 0.0
O277 O 0.01841 0.48 0.75133 0.0
O278 O 0.06213 0.51739 0.7901 0.0
O279 O 0.05621 0.46779 0.80593 0.0
C280 C 0.00711 0.35485 0.71219 0.0
C281 C 0.97478 0.36049 0.71496 0.0
H282 H 0.91489 0.37969 0.72457 0.0
H283 H 0.9014 0.42613 0.75708 0.0
H284 H 0.10834 0.38985 0.73951 0.0
H285 H 0.07135 0.35234 0.71118 0.0
H286 H 0.01438 0.33554 0.69742 0.0
H287 H 0.95768 0.34544 0.70228 0.0
Mn288 Mn 0.2819 0.51687 0.01811 0.0
Mn289 Mn 0.25722 0.59102 0.02481 0.0
C290 C 0.31491 0.55999 0.0049 0.0
C291 C 0.30825 0.47232 0.03236 0.0
C292 C 0.23492 0.54573 0.97343 0.0
O293 O 0.24503 0.51153 0.04941 0.0
O294 O 0.23113 0.56216 0.05027 0.0
C295 C 0.27409 0.6026 0.09117 0.0
N296 N 0.27675 0.6108 0.06076 0.0
C297 C 0.31311 0.65405 0.07402 0.0
C298 C 0.31066 0.6462 0.1055 0.0
C299 C 0.29104 0.62036 0.11411 0.0
C300 C 0.29544 0.63566 0.05224 0.0
H301 H 0.25927 0.58258 0.09788 0.0
C302 C 0.22733 0.53357 0.0587 0.0
O303 O 0.28594 0.47097 0.01174 0.0
O304 O 0.31327 0.4991 0.04722 0.0
N305 N 0.28103 0.6213 1.00135 0.0
C306 C 0.28143 0.6251 0.96992 0.0
C307 C 0.30025 0.64964 0.95738 0.0
C308 C 0.31839 0.6699 0.97729 0.0
C309 C 0.31705 0.66589 0.00962 0.0
C310 C 0.29747 0.64138 0.02079 0.0
H311 H 0.26778 0.60932 0.95453 0.0
O312 O 0.31855 0.53258 0.99193 0.0
O313 O 0.29144 0.56157 0.02401 0.0
O314 O 0.25079 0.52321 0.9829 0.0
O315 O 0.23592 0.57285 0.98686 0.0
C316 C 0.33523 0.68445 0.03112 0.0
C317 C 0.3331 0.67879 0.06329 0.0
H318 H 0.32395 0.65966 0.12322 0.0
H319 H 0.28913 0.61403 0.13834 0.0
H320 H 0.30121 0.65261 0.93242 0.0
H321 H 0.33376 0.68792 0.96739 0.0
H322 H 0.35184 0.70229 0.02308 0.0
H323 H 0.34751 0.69312 0.07948 0.0
Mn324 Mn 0.51804 0.27885 0.03066 0.0
Mn325 Mn 0.58348 0.24261 0.00819 0.0
C326 C 0.56775 0.3044 0.03566 0.0
C327 C 0.475 0.31069 0.02485 0.0
C328 C 0.54591 0.22482 0.06559 0.0
O329 O 0.50068 0.24374 1.00033 0.0
O330 O 0.54706 0.2246 0.98452 0.0
C331 C 0.58886 0.26351 0.943 0.0
N332 N 0.6015 0.26147 0.97202 0.0
C333 C 0.65177 0.28244 0.95464 0.0
C334 C 0.63934 0.28481 0.92453 0.0
C335 C 0.60764 0.27559 0.91877 0.0
C336 C 0.63164 0.27116 0.97803 0.0
H337 H 0.56472 0.25578 0.93838 0.0
C338 C 0.51706 0.2254 0.98339 0.0
O339 O 0.4757 0.28921 0.04565 0.0
O340 O 0.49874 0.3127 0.00576 0.0
N341 N 0.62068 0.25839 0.02941 0.0
C342 C 0.62849 0.25599 0.06003 0.0
C343 C 0.65924 0.26476 0.06989 0.0
C344 C 0.68176 0.27513 0.04803 0.0
C345 C 0.67307 0.27749 0.01665 0.0
C346 C 0.6419 0.26922 0.00838 0.0
H347 H 0.61151 0.24706 0.07669 0.0
O348 O 0.54469 0.3124 0.05353 0.0
O349 O 0.5612 0.2813 0.01624 0.0
O350 O 0.52692 0.24678 0.06358 0.0
O351 O 0.56762 0.22052 0.04572 0.0
C352 C 0.69419 0.28729 0.99316 0.0
C353 C 0.68345 0.29025 0.96227 0.0
H354 H 0.65393 0.29358 0.90566 0.0
H355 H 0.59786 0.27731 0.8956 0.0
H356 H 0.66575 0.26294 0.09415 0.0
H357 H 0.70563 0.28128 0.05562 0.0
H358 H 0.71872 0.29291 0.99869 0.0
H359 H 0.6998 0.29837 0.94453 0.0
Mn360 Mn 0.76566 0.52484 0.01559 0.0
Mn361 Mn 0.79234 0.45262 0.0282 0.0
C362 C 0.73429 0.47934 1.00455 0.0
C363 C 0.73779 0.56983 0.02686 0.0
C364 C 0.8146 0.49249 0.97462 0.0
O365 O 0.80156 0.53479 0.04742 0.0
O366 O 0.81754 0.48507 0.05166 0.0
C367 C 0.7752 0.44875 0.09487 0.0
N368 N 0.77304 0.43681 0.06519 0.0
C369 C 0.73858 0.39379 0.08132 0.0
C370 C 0.74053 0.40551 0.11208 0.0
C371 C 0.75891 0.43314 0.11887 0.0
C372 C 0.75543 0.41028 0.0584 0.0
H373 H 0.78917 0.47005 0.10018 0.0
C374 C 0.82011 0.51456 0.05812 0.0
O375 O 0.76037 0.56992 0.00667 0.0
O376 O 0.73299 0.54425 0.04256 0.0
N377 N 0.7696 0.41895 0.00684 0.0
C378 C 0.76969 0.41126 0.97587 0.0
C379 C 0.75212 0.38446 0.96507 0.0
C380 C 0.73484 0.36588 0.98624 0.0
C381 C 0.73564 0.37393 0.01811 0.0
C382 C 0.75384 0.40068 0.02753 0.0
H383 H 0.78282 0.42563 0.95953 0.0
O384 O 0.73004 0.50497 0.98954 0.0
O385 O 0.75744 0.4808 0.02428 0.0
O386 O 0.79817 0.51574 0.98199 0.0
O387 O 0.81342 0.46682 0.98955 0.0
C388 C 0.7185 0.35701 0.0408 0.0
C389 C 0.72007 0.36678 0.07238 0.0
H390 H 0.72784 0.39363 0.13062 0.0
H391 H 0.76045 0.44242 0.14253 0.0
H392 H 0.75159 0.37834 0.94046 0.0
H393 H 0.72067 0.34586 0.97761 0.0
H394 H 0.70335 0.33698 0.03418 0.0
H395 H 0.7065 0.35366 0.08949 0.0
Mn396 Mn 0.53137 0.764 0.01242 0.0
Mn397 Mn 0.46305 0.79682 0.99431 0.0
C398 C 0.48282 0.73759 0.02157 0.0
C399 C 0.57456 0.73263 1.00422 0.0
C400 C 0.5036 0.81858 0.04933 0.0
O401 O 0.54563 0.79743 0.98057 0.0
O402 O 0.49779 0.81595 0.96995 0.0
C403 C 0.45627 0.77401 0.92889 0.0
N404 N 0.44449 0.77645 0.95826 0.0
C405 C 0.39403 0.75423 0.94166 0.0
C406 C 0.40557 0.75138 0.91119 0.0
C407 C 0.43694 0.76103 0.90485 0.0
C408 C 0.41474 0.76626 0.96482 0.0
H409 H 0.48011 0.78218 0.92383 0.0
C410 C 0.52756 0.81563 0.96614 0.0
O411 O 0.5753 0.75582 0.02424 0.0
O412 O 0.54917 0.72853 0.98732 0.0
N413 N 0.42709 0.78043 0.0162 0.0
C414 C 0.42004 0.78397 0.04698 0.0
C415 C 0.38956 0.77553 0.05732 0.0
C416 C 0.3665 0.76442 0.03577 0.0
C417 C 0.37443 0.76083 1.00421 0.0
C418 C 0.40537 0.76883 0.99545 0.0
H419 H 0.43738 0.79367 0.06339 0.0
O420 O 0.50749 0.73164 0.03795 0.0
O421 O 0.48708 0.75931 1.00115 0.0
O422 O 0.52431 0.79843 0.04497 0.0
O423 O 0.47944 0.82005 0.03187 0.0
C424 C 0.35274 0.75006 0.98103 0.0
C425 C 0.36265 0.74627 0.94987 0.0
H426 H 0.39051 0.742 0.89248 0.0
H427 H 0.44601 0.75899 0.88139 0.0
H428 H 0.38364 0.77828 0.0817 0.0
H429 H 0.34282 0.75858 0.04373 0.0
H430 H 0.32845 0.74422 0.98701 0.0
H431 H 0.34587 0.73744 0.93237 0.0
H432 H 0.02115 0.38084 0.48522 0.0
H433 H 0.04605 0.31211 0.41545 0.0
H434 H 0.01674 0.42025 0.44514 0.0
H435 H 0.04123 0.35139 0.37493 0.0
H436 H 0.96239 0.46205 0.36503 0.0
H437 H 0.97649 0.42508 0.40476 0.0
H438 H 0.05929 0.40228 0.35241 0.0
H439 H 0.04511 0.439 0.31244 0.0
C440 C 0.02701 0.37462 0.46137 0.0
C441 C 0.03461 0.34371 0.45344 0.0
C442 C 0.02386 0.39697 0.43833 0.0
C443 C 0.02794 0.3888 0.40673 0.0
C444 C 0.038 0.3585 0.39904 0.0
C445 C 0.04118 0.33608 0.42224 0.0
C446 C 0.98351 0.44908 0.36184 0.0
C447 C 1.00258 0.45368 0.33547 0.0
C448 C 0.99181 0.42808 0.38481 0.0
C449 C 0.01931 0.41101 0.38201 0.0
C450 C 0.03798 0.41502 0.35532 0.0
C451 C 0.0298 0.43616 0.33241 0.0
H452 H 0.72699 0.9915 0.44092 0.0
H453 H 0.68924 0.08409 0.44647 0.0
H454 H 0.69097 0.97709 0.39821 0.0
H455 H 0.65279 0.06937 0.40423 0.0
H456 H 0.61026 0.04431 0.31009 0.0
H457 H 0.65049 0.05752 0.34913 0.0
H458 H 0.6353 0.96564 0.38889 0.0
H459 H 0.59534 0.95206 0.3493 0.0
C460 C 0.71107 0.00885 0.43306 0.0
C461 C 0.71108 0.03901 0.44728 0.0
C462 C 0.69024 1.00046 0.40864 0.0
C463 C 0.66888 0.02199 0.39776 0.0
C464 C 0.66919 0.05229 0.41169 0.0
C465 C 0.69002 0.0607 0.43609 0.0
C466 C 0.61561 0.02673 0.32695 0.0
C467 C 0.59931 0.99712 0.32657 0.0
C468 C 0.63859 0.03445 0.34952 0.0
C469 C 0.64594 0.01283 0.37243 0.0
C470 C 0.63044 0.98281 0.37147 0.0
C471 C 0.60742 0.97504 0.34879 0.0
H472 H 0.99155 0.62582 0.30431 0.0
H473 H 0.03677 0.56483 0.36758 0.0
H474 H 0.98864 0.66599 0.34512 0.0
H475 H 0.03604 0.60594 0.4084 0.0
H476 H 1.00155 0.66771 0.4854 0.0
H477 H 1.0003 0.62881 0.44266 0.0
H478 H 0.01361 0.70395 0.37696 0.0
H479 H 0.01287 0.74246 0.41973 0.0
C480 C 1.00177 0.62146 0.32682 0.0
C481 C 0.01446 0.59232 0.33281 0.0
C482 C 1.00019 0.64457 0.35032 0.0
C483 C 0.01154 0.63921 0.38046 0.0
C484 C 0.02619 0.61067 0.38579 0.0
C485 C 0.02741 0.58736 0.36225 0.0
C486 C 1.00253 0.67579 0.46163 0.0
C487 C 0.00637 0.70803 0.45572 0.0
C488 C 1.00278 0.65352 0.43714 0.0
C489 C 0.00765 0.66302 0.4062 0.0
C490 C 0.00956 0.69553 0.40029 0.0
C491 C 0.00879 0.71775 0.42478 0.0
H492 H 0.33051 0.04145 0.43772 0.0
H493 H 0.35335 0.94453 0.45025 0.0
H494 H 0.37221 0.04736 0.39927 0.0
H495 H 0.39446 0.95025 0.41113 0.0
H496 H 0.48755 0.97703 0.36936 0.0
H497 H 0.44543 0.976 0.40754 0.0
H498 H 0.39018 0.0326 0.34767 0.0
H499 H 0.43325 0.03433 0.30964 0.0
C500 C 0.34409 0.02121 0.43199 0.0
C501 C 0.33866 0.99253 0.4474 0.0
C502 C 0.36801 0.02464 0.4098 0.0
C503 C 0.38708 0.99948 0.40239 0.0
C504 C 0.38078 0.97042 0.41684 0.0
C505 C 0.35697 0.96702 0.43912 0.0
C506 C 0.46664 0.9898 0.36465 0.0
C507 C 0.46362 0.00575 0.33657 0.0
C508 C 0.44229 0.98885 0.38634 0.0
C509 C 0.41401 1.00348 0.38037 0.0
C510 C 0.41163 0.02103 0.35302 0.0
C511 C 0.43632 0.02223 0.33131 0.0
H512 H 0.97531 0.57444 0.6816 0.0
H513 H 0.04848 0.62452 0.73544 0.0
H514 H 0.98058 0.61445 0.64132 0.0
H515 H 0.05398 0.66375 0.69516 0.0
H516 H 0.08495 0.69476 0.59594 0.0
H517 H 0.0745 0.6583 0.63838 0.0
H518 H 0.97538 0.67538 0.63325 0.0
H519 H 0.98575 0.71225 0.59111 0.0
C520 C 0.99201 0.59423 0.68517 0.0
C521 C 0.01154 0.59616 0.7117 0.0
C522 C 0.9951 0.61705 0.66208 0.0
C523 C 0.01806 0.64189 0.66494 0.0
C524 C 0.03644 0.6446 0.69213 0.0
C525 C 0.03306 0.62218 0.71531 0.0
C526 C 0.06095 0.69082 0.60389 0.0
C527 C 0.03624 0.70655 0.59022 0.0
C528 C 0.05498 0.67006 0.62826 0.0
C529 C 0.02412 0.6641 0.63914 0.0
C530 C 0.99935 0.67947 0.62526 0.0
C531 C 1.00538 0.70071 0.60128 0.0
H532 H 0.45447 0.96116 0.68862 0.0
H533 H 0.45867 0.06129 0.70735 0.0
H534 H 0.41789 0.96859 0.64527 0.0
H535 H 0.42194 0.06878 0.66458 0.0
H536 H 0.32461 0.05477 0.60807 0.0
H537 H 0.36444 0.0549 0.64978 0.0
H538 H 0.42099 0.9946 0.59301 0.0
H539 H 0.38191 0.99507 0.55153 0.0
C540 C 0.44745 0.98466 0.6835 0.0
C541 C 0.45864 0.01052 0.70173 0.0
C542 C 0.42664 0.98901 0.65873 0.0
C543 C 0.41698 0.01933 0.65161 0.0
C544 C 0.4286 0.04516 0.6697 0.0
C545 C 0.44951 0.04082 0.69423 0.0
C546 C 0.34618 0.0427 0.60415 0.0
C547 C 0.35026 0.02498 0.57662 0.0
C548 C 0.36874 0.04232 0.62814 0.0
C549 C 0.39531 0.02386 0.625 0.0
C550 C 0.40039 0.00831 0.59646 0.0
C551 C 0.37822 0.00898 0.57256 0.0
H552 H 0.96701 0.36475 0.57031 0.0
H553 H 0.04751 0.31757 0.60478 0.0
H554 H 0.97626 0.40654 0.60936 0.0
H555 H 0.05612 0.35884 0.64454 0.0
H556 H 0.0825 0.45354 0.69238 0.0
H557 H 0.0739 0.41328 0.65091 0.0
H558 H 0.97327 0.41771 0.66333 0.0
H559 H 0.98208 0.45819 0.70364 0.0
C560 C 0.98637 0.36299 0.58653 0.0
C561 C 0.0065 0.33775 0.5843 0.0
C562 C 0.99172 0.38701 0.60899 0.0
C563 C 0.01716 0.38629 0.63001 0.0
C564 C 0.03678 0.36061 0.62829 0.0
C565 C 0.0316 0.33673 0.60567 0.0
C566 C 0.05866 0.4459 0.68591 0.0
C567 C 0.03297 0.45816 0.70166 0.0
C568 C 0.05365 0.42274 0.6624 0.0
C569 C 0.02284 0.41192 0.65393 0.0
C570 C 0.99728 0.4255 0.66892 0.0
C571 C 1.00231 0.44845 0.69231 0.0
H572 H 0.57446 0.07419 0.68069 0.0
H573 H 0.62372 0.0064 0.73342 0.0
H574 H 0.61345 0.07045 0.63926 0.0
H575 H 0.66146 1.00131 0.69165 0.0
H576 H 0.74031 0.01949 0.61993 0.0
H577 H 0.7037 0.02257 0.66355 0.0
H578 H 0.62755 0.03616 0.59889 0.0
H579 H 0.66473 0.03474 0.5558 0.0
C580 C 0.5938 0.05882 0.68363 0.0
C581 C 0.59588 0.04064 0.7104 0.0
C582 C 0.61592 0.05618 0.65962 0.0
C583 C 0.64043 0.03501 0.66162 0.0
C584 C 0.6432 0.01798 0.68912 0.0
C585 C 0.62139 0.02092 0.7132 0.0
C586 C 0.71553 0.022 0.61514 0.0
C587 C 0.70517 0.02627 0.58455 0.0
C588 C 0.69448 0.02411 0.64014 0.0
C589 C 0.66255 0.03025 0.63499 0.0
C590 C 0.65202 0.0324 0.60402 0.0
C591 C 0.67314 0.03083 0.57919 0.0
H592 H 0.43569 0.32279 0.0729 0.0
H593 H 0.45715 0.35048 0.9788 0.0
H594 H 0.39514 0.36142 0.07609 0.0
H595 H 0.41562 0.38881 0.98186 0.0
H596 H 0.31227 0.42234 0.99219 0.0
H597 H 0.35279 0.38367 0.98993 0.0
H598 H 0.39521 0.42448 0.07371 0.0
H599 H 0.35498 0.46412 0.07564 0.0
C600 C 0.43157 0.33694 0.05274 0.0
C601 C 0.44957 0.33345 0.02548 0.0
C602 C 0.40848 0.35921 0.05473 0.0
C603 C 0.40231 0.37811 0.0293 0.0
C604 C 0.41991 0.37442 1.0018 0.0
C605 C 0.44362 0.35254 1.00003 0.0
C606 C 0.32996 0.42297 0.01043 0.0
C607 C 0.33028 0.44632 0.03423 0.0
C608 C 0.35335 0.40096 0.00886 0.0
C609 C 0.37727 0.4013 0.03142 0.0
C610 C 0.37701 0.42378 0.05597 0.0
C611 C 0.35393 0.44634 0.05717 0.0
H612 H 0.34337 0.59087 0.95631 0.0
H613 H 0.34681 0.58191 0.05585 0.0
H614 H 0.38254 0.6342 0.95946 0.0
H615 H 0.38841 0.62251 0.05948 0.0
H616 H 0.44421 0.7141 0.06726 0.0
H617 H 0.40451 0.67144 0.06243 0.0
H618 H 0.42632 0.66176 0.96405 0.0
H619 H 0.46321 0.7065 0.96907 0.0
C620 C 0.35312 0.59794 0.97886 0.0
C621 C 0.34126 0.58402 0.00591 0.0
C622 C 0.37612 0.62276 0.98088 0.0
C623 C 0.38888 0.63341 0.01001 0.0
C624 C 0.37862 0.61698 0.03667 0.0
C625 C 0.35485 0.59312 0.03468 0.0
C626 C 0.43984 0.70301 0.0446 0.0
C627 C 0.45646 0.71374 0.01854 0.0
C628 C 0.41736 0.67788 0.04169 0.0
C629 C 0.41188 0.66169 0.01281 0.0
C630 C 0.42871 0.6731 0.98672 0.0
C631 C 0.45025 0.69896 0.98951 0.0
H632 H 0.60999 0.33042 0.07809 0.0
H633 H 0.58455 0.33038 0.98099 0.0
H634 H 0.65014 0.37185 0.06942 0.0
H635 H 0.62235 0.37361 0.97223 0.0
H636 H 0.70685 0.44143 0.95845 0.0
H637 H 0.66867 0.39757 0.96507 0.0
H638 H 0.66263 0.42202 0.06341 0.0
H639 H 0.70302 0.46326 0.05668 0.0
C640 C 0.61312 0.33944 0.05484 0.0
C641 C 0.59449 0.32706 0.0302 0.0
C642 C 0.63586 0.36373 0.04975 0.0
C643 C 0.63969 0.37726 0.02005 0.0
C644 C 0.62106 0.36412 0.99536 0.0
C645 C 0.59909 0.3392 1.00033 0.0
C646 C 0.69723 0.4371 0.98138 0.0
C647 C 0.70855 0.45492 0.0072 0.0
C648 C 0.67493 0.41205 0.98534 0.0
C649 C 0.66244 0.40507 0.01511 0.0
C650 C 0.6723 0.42499 0.04036 0.0
C651 C 0.6953 0.44916 0.03651 0.0
H652 H 0.67683 0.568 0.04741 0.0
H653 H 0.74819 0.62973 0.00661 0.0
H654 H 0.63784 0.60786 0.04003 0.0
H655 H 0.70936 0.66959 0.99958 0.0
H656 H 0.63482 0.74338 0.0246 0.0
H657 H 0.67492 0.7049 0.03179 0.0
H658 H 0.61197 0.63198 0.99223 0.0
H659 H 0.57177 0.67071 0.98469 0.0
C660 C 0.68435 0.59032 0.03751 0.0
C661 C 0.71564 0.59577 0.02774 0.0
C662 C 0.66193 0.61295 0.03289 0.0
C663 C 0.67046 0.64171 0.01888 0.0
C664 C 0.70206 0.64769 0.01043 0.0
C665 C 0.72432 0.62489 0.01456 0.0
C666 C 0.6297 0.71924 0.01694 0.0
C667 C 0.60017 0.71011 1.00393 0.0
C668 C 0.65267 0.69719 0.02112 0.0
C669 C 0.6465 0.66535 0.0129 0.0
C670 C 0.61725 0.6563 0.99916 0.0
C671 C 0.5944 0.67852 0.99447 0.0
H672 H 0.53779 0.87776 0.97661 0.0
H673 H 0.5397 0.80548 0.90486 0.0
H674 H 0.53283 0.91765 0.93701 0.0
H675 H 0.53476 0.8453 0.865 0.0
H676 H 0.54095 0.93251 0.80168 0.0
H677 H 0.55683 0.89443 0.83967 0.0
H678 H 0.48582 0.92631 0.90311 0.0
H679 H 0.46984 0.96455 0.86511 0.0
C680 C 0.53894 0.87068 0.95224 0.0
C681 C 0.53991 0.83867 0.94372 0.0
C682 C 0.53534 0.89339 0.92959 0.0
C683 C 0.53268 0.88454 0.89792 0.0
C684 C 0.53676 0.85289 0.8892 0.0
C685 C 0.54013 0.8301 0.91196 0.0
C686 C 0.52856 0.93135 0.82367 0.0
C687 C 0.50408 0.9517 0.83033 0.0
C688 C 0.53772 0.90947 0.84542 0.0
C689 C 0.52294 0.90764 0.87456 0.0
C690 C 0.49811 0.92757 0.88106 0.0
C691 C 0.48866 0.94922 0.85915 0.0
H692 H 0.19227 0.58467 0.94784 0.0
H693 H 0.22838 0.49163 0.93782 0.0
H694 H 0.15431 0.57179 0.90618 0.0
H695 H 0.19095 0.47911 0.89602 0.0
H696 H 0.09398 0.4557 0.85035 0.0
H697 H 0.13483 0.46853 0.88922 0.0
H698 H 0.14964 0.56096 0.8506 0.0
H699 H 0.1086 0.54847 0.81218 0.0
C700 C 0.1924 0.56163 0.93659 0.0
C701 C 0.21336 0.53921 0.94643 0.0
C702 C 0.17068 0.55426 0.91259 0.0
C703 C 0.1694 0.5243 0.89783 0.0
C704 C 0.19086 0.50219 0.9072 0.0
C705 C 0.21252 0.50953 0.93111 0.0
C706 C 0.10613 0.47864 0.84993 0.0
C707 C 0.09777 0.50103 0.82813 0.0
C708 C 0.12966 0.486 0.8722 0.0
C709 C 0.14542 0.51591 0.87322 0.0
C710 C 0.13763 0.53793 0.85089 0.0
C711 C 0.11418 0.53061 0.82866 0.0
H712 H 0.48915 0.12463 0.80655 0.0
H713 H 0.53516 0.06331 0.86891 0.0
H714 H 0.48441 0.16352 0.8482 0.0
H715 H 0.53269 0.10333 0.91068 0.0
H716 H 0.49849 0.16398 0.98856 0.0
H717 H 0.49687 0.12543 0.94545 0.0
H718 H 0.50848 0.2013 0.88035 0.0
H719 H 0.50808 0.23931 0.92339 0.0
C720 C 0.49907 0.11992 0.8291 0.0
C721 C 0.51257 0.09105 0.83452 0.0
C722 C 0.49647 0.14232 0.8531 0.0
C723 C 0.50767 0.13661 0.88321 0.0
C724 C 0.52296 0.10832 0.8881 0.0
C725 C 0.52517 0.08566 0.86402 0.0
C726 C 0.49883 0.17227 0.96486 0.0
C727 C 0.50246 0.20459 0.95919 0.0
C728 C 0.49893 0.1502 0.94014 0.0
C729 C 0.50337 0.16002 0.90924 0.0
C730 C 0.50475 0.19258 0.90361 0.0
C731 C 0.50414 0.21455 0.9283 0.0
H732 H 0.98856 0.48893 0.8732 0.0
H733 H 0.93105 0.54027 0.81099 0.0
H734 H 0.94644 0.48736 0.91146 0.0
H735 H 0.8881 0.53815 0.84925 0.0
H736 H 0.82727 0.54495 0.93967 0.0
H737 H 0.86927 0.55336 0.9017 0.0
H738 H 0.89644 0.45771 0.91316 0.0
H739 H 0.85496 0.44938 0.95145 0.0
C740 C 0.96703 0.50051 0.86806 0.0
C741 C 0.96302 0.51477 0.83922 0.0
C742 C 0.94272 0.49922 0.88978 0.0
C743 C 0.91356 0.51184 0.8831 0.0
C744 C 0.91025 0.52812 0.85509 0.0
C745 C 0.93486 0.52959 0.83328 0.0
C746 C 0.84202 0.52557 0.93394 0.0
C747 C 0.83781 0.4965 0.94894 0.0
C748 C 0.86609 0.53046 0.91209 0.0
C749 C 0.88658 0.50644 0.90476 0.0
C750 C 0.88158 0.47702 0.91884 0.0
C751 C 0.85757 0.47213 0.94064 0.0
H752 H 0.49196 0.05921 0.17109 0.0
H753 H 0.52931 0.12558 0.24088 0.0
H754 H 0.49961 0.09913 0.13125 0.0
H755 H 0.53647 0.16557 0.2011 0.0
H756 H 0.51698 0.23519 0.12137 0.0
H757 H 0.50501 0.19728 0.16214 0.0
H758 H 0.55083 0.12563 0.10867 0.0
H759 H 0.56322 0.16363 0.06792 0.0
C760 C 0.50094 0.08257 0.17809 0.0
C761 C 0.50997 0.08928 0.20915 0.0
C762 C 0.5057 0.10527 0.15521 0.0
C763 C 0.51902 0.13529 0.16303 0.0
C764 C 0.52617 0.14262 0.19441 0.0
C765 C 0.52196 0.11977 0.21718 0.0
C766 C 0.52472 0.2114 0.11838 0.0
C767 C 0.54112 0.20244 0.09139 0.0
C768 C 0.51785 0.18974 0.14174 0.0
C769 C 0.52669 0.15845 0.13842 0.0
C770 C 0.54337 0.14951 0.11163 0.0
C771 C 0.55076 0.17135 0.08848 0.0
H772 H 0.95504 0.55866 0.21015 0.0
H773 H 0.94797 0.45827 0.19309 0.0
H774 H 0.91777 0.56639 0.16792 0.0
H775 H 0.91113 0.46604 0.14994 0.0
H776 H 0.87914 0.49524 0.05445 0.0
H777 H 0.91713 0.49391 0.09685 0.0
H778 H 0.85817 0.55128 0.15408 0.0
H779 H 0.81924 0.55182 0.11151 0.0
C780 C 0.94507 0.53818 0.19759 0.0
C781 C 0.95355 0.50774 0.20544 0.0
C782 C 0.92388 0.54268 0.17335 0.0
C783 C 0.91146 0.51687 0.15578 0.0
C784 C 0.92044 0.48639 0.16317 0.0
C785 C 0.94141 0.48187 0.18777 0.0
C786 C 0.87462 0.50831 0.07582 0.0
C787 C 0.84622 0.52362 0.07973 0.0
C788 C 0.89618 0.50715 0.1002 0.0
C789 C 0.89013 0.52167 0.12902 0.0
C790 C 0.86315 0.53952 0.13217 0.0
C791 C 0.84114 0.5403 0.10771 0.0
H792 H 0.47041 0.87111 0.06205 0.0
H793 H 0.54877 0.81963 0.09507 0.0
H794 H 0.48082 0.91106 0.10276 0.0
H795 H 0.55858 0.85918 0.13626 0.0
H796 H 0.58606 0.95166 0.18877 0.0
H797 H 0.57746 0.91383 0.14506 0.0
H798 H 0.47685 0.91735 0.15806 0.0
H799 H 0.4856 0.95526 0.20071 0.0
C800 C 0.48967 0.86812 0.07812 0.0
C801 C 0.50871 0.84209 0.07519 0.0
C802 C 0.49563 0.89104 0.10153 0.0
C803 C 0.52067 0.88844 0.12271 0.0
C804 C 0.53952 0.86227 0.11997 0.0
C805 C 0.53366 0.83942 0.09649 0.0
C806 C 0.56224 0.94432 0.18198 0.0
C807 C 0.53652 0.95557 0.19846 0.0
C808 C 0.55724 0.9226 0.15717 0.0
C809 C 0.52642 0.91239 0.14814 0.0
C810 C 0.50085 0.92484 0.16406 0.0
C811 C 0.50586 0.94628 0.18877 0.0
H812 H 0.17454 0.56596 0.06267 0.0
H813 H 0.22063 0.48947 0.10552 0.0
H814 H 0.13667 0.56672 0.10399 0.0
H815 H 0.18054 0.4886 0.14676 0.0
H816 H 0.12665 0.52049 0.23407 0.0
H817 H 0.16448 0.51649 0.19158 0.0
H818 H 0.09341 0.54464 0.12687 0.0
H819 H 0.05677 0.5506 0.16954 0.0
C820 C 0.17615 0.54864 0.08069 0.0
C821 C 0.20095 0.52784 0.08087 0.0
C822 C 0.154 0.54889 0.10447 0.0
C823 C 0.15525 0.52782 0.12913 0.0
C824 C 0.17907 0.50565 0.12853 0.0
C825 C 0.20177 0.5057 0.10462 0.0
C826 C 0.11949 0.52653 0.2108 0.0
C827 C 0.08894 0.53653 0.20527 0.0
C828 C 0.141 0.52366 0.18628 0.0
C829 C 0.13228 0.53012 0.15548 0.0
C830 C 0.10157 0.54014 0.15018 0.0
C831 C 0.08039 0.54369 0.17475 0.0
H832 H 0.80412 0.92055 0.51769 0.0
H833 H 0.876 0.98827 0.55088 0.0
H834 H 0.84308 0.8805 0.51325 0.0
H835 H 0.9153 0.94791 0.54638 0.0
H836 H 0.98024 0.87672 0.49669 0.0
H837 H 0.9411 0.91711 0.50247 0.0
H838 H 0.8774 0.84956 0.54621 0.0
H839 H 0.91621 0.80952 0.54047 0.0
C840 C 0.8282 0.92674 0.52458 0.0
C841 C 0.83691 0.95755 0.53484 0.0
C842 C 0.85056 0.90376 0.52196 0.0
C843 C 0.88238 0.91104 0.52919 0.0
C844 C 0.89104 0.94167 0.54026 0.0
C845 C 0.86847 0.96465 0.54328 0.0
C846 C 0.95768 0.87045 0.50708 0.0
C847 C 0.95128 0.83987 0.51796 0.0
C848 C 0.93544 0.89366 0.51078 0.0
C849 C 0.9062 0.88662 0.52503 0.0
C850 C 0.89958 0.85578 0.53503 0.0
C851 C 0.92186 0.83279 0.5317 0.0
H852 H 0.96345 0.19903 0.57285 0.0
H853 H 0.96989 0.20522 0.47311 0.0
H854 H 0.92182 0.1578 0.56705 0.0
H855 H 0.92717 0.16592 0.46673 0.0
H856 H 0.85588 0.08399 0.46061 0.0
H857 H 0.90272 0.11868 0.46639 0.0
H858 H 0.87046 0.14866 0.55748 0.0
H859 H 0.82673 0.11051 0.55308 0.0
C860 C 0.95567 0.19164 0.54967 0.0
C861 C 0.96864 0.20634 0.52347 0.0
C862 C 0.93148 0.1682 0.54618 0.0
C863 C 0.91971 0.15892 0.51634 0.0
C864 C 0.93491 0.17206 0.49018 0.0
C865 C 0.95921 0.19518 0.49376 0.0
C866 C 0.85881 0.09828 0.48172 0.0
C867 C 0.83662 0.09557 0.50578 0.0
C868 C 0.88575 0.11845 0.48511 0.0
C869 C 0.89103 0.13697 0.51253 0.0
C870 C 0.86819 0.1346 0.53623 0.0
C871 C 0.84202 0.11358 0.53322 0.0
H872 H 0.10722 0.83555 0.57998 0.0
H873 H 0.08523 0.83332 0.48202 0.0
H874 H 0.14738 0.87712 0.5718 0.0
H875 H 0.12266 0.87669 0.47367 0.0
H876 H 0.20701 0.94396 0.45991 0.0
H877 H 0.16806 0.90109 0.46682 0.0
H878 H 0.16265 0.92625 0.56509 0.0
H879 H 0.20399 0.96653 0.55799 0.0
C880 C 0.11101 0.84419 0.55668 0.0
C881 C 0.09342 0.83106 0.53164 0.0
C882 C 0.13379 0.86858 0.55182 0.0
C883 C 0.13865 0.88148 0.52193 0.0
C884 C 0.12079 0.86774 0.49697 0.0
C885 C 0.09892 0.84271 0.50172 0.0
C886 C 0.19738 0.94 0.48291 0.0
C887 C 0.20924 0.95768 0.50856 0.0
C888 C 0.17455 0.9155 0.48705 0.0
C889 C 0.16191 0.90894 0.51687 0.0
C890 C 0.1723 0.92883 0.54198 0.0
C891 C 0.19589 0.95245 0.53794 0.0
H892 H 0.09829 0.19448 0.46473 0.0
H893 H 0.12803 0.23582 0.55346 0.0
H894 H 0.13912 0.15577 0.46899 0.0
H895 H 0.16789 0.19673 0.55796 0.0
H896 H 0.2003 0.09087 0.56652 0.0
H897 H 0.16308 0.13312 0.56237 0.0
H898 H 0.20278 0.15837 0.47348 0.0
H899 H 0.24037 0.11713 0.47786 0.0
C900 C 0.1137 0.19555 0.48489 0.0
C901 C 0.11 0.21836 0.50861 0.0
C902 C 0.13696 0.17337 0.48739 0.0
C903 C 0.15641 0.17316 0.51397 0.0
C904 C 0.15303 0.19622 0.53739 0.0
C905 C 0.13035 0.21876 0.53459 0.0
C906 C 0.2014 0.10578 0.54638 0.0
C907 C 0.22341 0.10071 0.52265 0.0
C908 C 0.18009 0.12986 0.54396 0.0
C909 C 0.17996 0.14876 0.51745 0.0
C910 C 0.20222 0.14397 0.494 0.0
C911 C 0.2239 0.12047 0.49672 0.0
loop_
_geom_bond_atom_site_label_1
_geom_bond_atom_site_label_2
_geom_bond_distance
_geom_bond_site_symmetry_2
_ccdc_geom_bond_type
Mn0 O5 2.095 . S
Mn0 O15 2.162 . S
Mn0 O16 2.297 . S
Mn0 O24 2.385 1_455 S
Mn0 O25 2.209 1_455 S
Mn0 O26 2.094 . S
Mn1 O6 2.121 . S
Mn1 N8 2.257 . S
Mn1 N17 2.282 . S
Mn1 O25 2.215 . S
Mn1 O27 2.117 . S
C2 O24 1.234 . S
C2 O25 1.283 . S
C3 O15 1.281 . S
C3 O16 1.236 . S
C4 O26 1.240 . S
C4 O27 1.264 1_455 S
O5 Mn0 2.095 . S
O5 C14 1.250 . S
O6 Mn1 2.121 . S
O6 C14 1.258 1_655 S
C7 N8 1.326 . S
C7 C11 1.460 . S
C7 H13 0.929 . S
N8 Mn1 2.257 . S
N8 C7 1.326 . S
N8 C12 1.362 . S
C9 C10 1.258 . S
C9 C12 1.431 . S
C9 C29 1.449 . S
C10 C9 1.258 . S
C10 C11 1.477 . S
C10 H30 0.931 . S
C11 C7 1.460 . S
C11 C10 1.477 . S
C11 H31 0.930 . S
C12 N8 1.362 . S
C12 C9 1.431 . S
C12 C22 1.476 . S
H13 C7 0.929 . S
C14 O5 1.250 . S
C14 O6 1.258 1_455 S
O15 Mn0 2.162 . S
O15 C3 1.281 . S
O16 Mn0 2.297 . S
O16 C3 1.236 . S
N17 Mn1 2.282 . S
N17 C18 1.328 . S
N17 C22 1.318 . S
C18 N17 1.328 . S
C18 C19 1.457 . S
C18 H23 0.929 . S
C19 C18 1.457 . S
C19 C20 1.291 . S
C19 H32 0.931 . S
C20 C19 1.291 . S
C20 C21 1.373 . S
C20 H33 0.929 . S
C21 C20 1.373 . S
C21 C22 1.396 . S
C21 C28 1.403 . S
C22 C12 1.476 . S
C22 N17 1.318 . S
C22 C21 1.396 . S
H23 C18 0.929 . S
O24 Mn0 2.385 1_655 S
O24 C2 1.234 . S
O25 Mn0 2.209 1_655 S
O25 Mn1 2.215 . S
O25 C2 1.283 . S
O26 Mn0 2.094 . S
O26 C4 1.240 . S
O27 Mn1 2.117 . S
O27 C4 1.264 1_655 S
C28 C21 1.403 . S
C28 C29 1.399 . S
C28 H34 0.929 . S
C29 C9 1.449 . S
C29 C28 1.399 . S
C29 H35 0.930 . S
H30 C10 0.931 . S
H31 C11 0.930 . S
H32 C19 0.931 . S
H33 C20 0.929 . S
H34 C28 0.929 . S
H35 C29 0.930 . S
Mn36 O41 2.095 . S
Mn36 O51 2.162 1_545 S
Mn36 O52 2.297 1_545 S
Mn36 O60 2.385 . S
Mn36 O61 2.209 . S
Mn36 O62 2.094 . S
Mn37 O42 2.121 . S
Mn37 N44 2.257 . S
Mn37 N53 2.282 . S
Mn37 O61 2.215 . S
Mn37 O63 2.117 . S
C38 O60 1.234 . S
C38 O61 1.283 . S
C39 O51 1.281 . S
C39 O52 1.236 . S
C40 O62 1.240 . S
C40 O63 1.264 . S
O41 Mn36 2.095 . S
O41 C50 1.250 . S
O42 Mn37 2.121 . S
O42 C50 1.258 . S
C43 N44 1.326 . S
C43 C47 1.460 . S
C43 H49 0.929 . S
N44 Mn37 2.257 . S
N44 C43 1.326 . S
N44 C48 1.362 . S
C45 C46 1.258 . S
C45 C48 1.431 . S
C45 C65 1.449 . S
C46 C45 1.258 . S
C46 C47 1.477 . S
C46 H66 0.931 . S
C47 C43 1.460 . S
C47 C46 1.477 . S
C47 H67 0.930 . S
C48 N44 1.362 . S
C48 C45 1.431 . S
C48 C58 1.476 . S
H49 C43 0.929 . S
C50 O41 1.250 . S
C50 O42 1.258 . S
O51 Mn36 2.162 1_565 S
O51 C39 1.281 . S
O52 Mn36 2.297 1_565 S
O52 C39 1.236 . S
N53 Mn37 2.282 . S
N53 C54 1.328 . S
N53 C58 1.318 . S
C54 N53 1.328 . S
C54 C55 1.457 . S
C54 H59 0.929 . S
C55 C54 1.457 . S
C55 C56 1.291 . S
C55 H68 0.931 . S
C56 C55 1.291 . S
C56 C57 1.373 . S
C56 H69 0.929 . S
C57 C56 1.373 . S
C57 C58 1.396 . S
C57 C64 1.403 . S
C58 C48 1.476 . S
C58 N53 1.318 . S
C58 C57 1.396 . S
H59 C54 0.929 . S
O60 Mn36 2.385 . S
O60 C38 1.234 . S
O61 Mn36 2.209 . S
O61 Mn37 2.215 . S
O61 C38 1.283 . S
O62 Mn36 2.094 . S
O62 C40 1.240 . S
O63 Mn37 2.117 . S
O63 C40 1.264 . S
C64 C57 1.403 . S
C64 C65 1.399 . S
C64 H70 0.929 . S
C65 C45 1.449 . S
C65 C64 1.399 . S
C65 H71 0.930 . S
H66 C46 0.931 . S
H67 C47 0.930 . S
H68 C55 0.931 . S
H69 C56 0.929 . S
H70 C64 0.929 . S
H71 C65 0.930 . S
Mn72 O77 2.095 . S
Mn72 O87 2.162 1_455 S
Mn72 O88 2.297 1_455 S
Mn72 O96 2.385 . S
Mn72 O97 2.209 . S
Mn72 O98 2.094 . S
Mn73 O78 2.121 . S
Mn73 N80 2.257 . S
Mn73 N89 2.282 . S
Mn73 O97 2.215 . S
Mn73 O99 2.117 . S
C74 O96 1.234 . S
C74 O97 1.283 . S
C75 O87 1.281 . S
C75 O88 1.236 . S
C76 O98 1.240 . S
C76 O99 1.264 . S
O77 Mn72 2.095 . S
O77 C86 1.250 . S
O78 Mn73 2.121 . S
O78 C86 1.258 . S
C79 N80 1.326 . S
C79 C83 1.460 . S
C79 H85 0.929 . S
N80 Mn73 2.257 . S
N80 C79 1.326 . S
N80 C84 1.362 . S
C81 C82 1.258 . S
C81 C84 1.431 . S
C81 C101 1.449 . S
C82 C81 1.258 . S
C82 C83 1.477 . S
C82 H102 0.931 . S
C83 C79 1.460 . S
C83 C82 1.477 . S
C83 H103 0.930 . S
C84 N80 1.362 . S
C84 C81 1.431 . S
C84 C94 1.476 . S
H85 C79 0.929 . S
C86 O77 1.250 . S
C86 O78 1.258 . S
O87 Mn72 2.162 1_655 S
O87 C75 1.281 . S
O88 Mn72 2.297 1_655 S
O88 C75 1.236 . S
N89 Mn73 2.282 . S
N89 C90 1.328 . S
N89 C94 1.318 . S
C90 N89 1.328 . S
C90 C91 1.457 . S
C90 H95 0.929 . S
C91 C90 1.457 . S
C91 C92 1.291 . S
C91 H104 0.931 . S
C92 C91 1.291 . S
C92 C93 1.373 . S
C92 H105 0.929 . S
C93 C92 1.373 . S
C93 C94 1.396 . S
C93 C100 1.403 . S
C94 C84 1.476 . S
C94 N89 1.318 . S
C94 C93 1.396 . S
H95 C90 0.929 . S
O96 Mn72 2.385 . S
O96 C74 1.234 . S
O97 Mn72 2.209 . S
O97 Mn73 2.215 . S
O97 C74 1.283 . S
O98 Mn72 2.094 . S
O98 C76 1.240 . S
O99 Mn73 2.117 . S
O99 C76 1.264 . S
C100 C93 1.403 . S
C100 C101 1.399 . S
C100 H106 0.929 . S
C101 C81 1.449 . S
C101 C100 1.399 . S
C101 H107 0.930 . S
H102 C82 0.931 . S
H103 C83 0.930 . S
H104 C91 0.931 . S
H105 C92 0.929 . S
H106 C100 0.929 . S
H107 C101 0.930 . S
Mn108 O113 2.095 . S
Mn108 O123 2.162 . S
Mn108 O124 2.297 . S
Mn108 O132 2.385 1_545 S
Mn108 O133 2.209 1_545 S
Mn108 O134 2.094 . S
Mn109 O114 2.121 . S
Mn109 N116 2.257 . S
Mn109 N125 2.282 . S
Mn109 O133 2.215 . S
Mn109 O135 2.117 . S
C110 O132 1.234 . S
C110 O133 1.283 . S
C111 O123 1.281 . S
C111 O124 1.236 . S
C112 O134 1.240 . S
C112 O135 1.264 1_545 S
O113 Mn108 2.095 . S
O113 C122 1.250 . S
O114 Mn109 2.121 . S
O114 C122 1.258 1_565 S
C115 N116 1.326 . S
C115 C119 1.460 . S
C115 H121 0.929 . S
N116 Mn109 2.257 . S
N116 C115 1.326 . S
N116 C120 1.362 . S
C117 C118 1.258 . S
C117 C120 1.431 . S
C117 C137 1.449 . S
C118 C117 1.258 . S
C118 C119 1.477 . S
C118 H138 0.931 . S
C119 C115 1.460 . S
C119 C118 1.477 . S
C119 H139 0.930 . S
C120 N116 1.362 . S
C120 C117 1.431 . S
C120 C130 1.476 . S
H121 C115 0.929 . S
C122 O113 1.250 . S
C122 O114 1.258 1_545 S
O123 Mn108 2.162 . S
O123 C111 1.281 . S
O124 Mn108 2.297 . S
O124 C111 1.236 . S
N125 Mn109 2.282 . S
N125 C126 1.328 . S
N125 C130 1.318 . S
C126 N125 1.328 . S
C126 C127 1.457 . S
C126 H131 0.929 . S
C127 C126 1.457 . S
C127 C128 1.291 . S
C127 H140 0.931 . S
C128 C127 1.291 . S
C128 C129 1.373 . S
C128 H141 0.929 . S
C129 C128 1.373 . S
C129 C130 1.396 . S
C129 C136 1.403 . S
C130 C120 1.476 . S
C130 N125 1.318 . S
C130 C129 1.396 . S
H131 C126 0.929 . S
O132 Mn108 2.385 1_565 S
O132 C110 1.234 . S
O133 Mn108 2.209 1_565 S
O133 Mn109 2.215 . S
O133 C110 1.283 . S
O134 Mn108 2.094 . S
O134 C112 1.240 . S
O135 Mn109 2.117 . S
O135 C112 1.264 1_565 S
C136 C129 1.403 . S
C136 C137 1.399 . S
C136 H142 0.929 . S
C137 C117 1.449 . S
C137 C136 1.399 . S
C137 H143 0.930 . S
H138 C118 0.931 . S
H139 C119 0.930 . S
H140 C127 0.931 . S
H141 C128 0.929 . S
H142 C136 0.929 . S
H143 C137 0.930 . S
Mn144 O149 2.095 . S
Mn144 O159 2.162 . S
Mn144 O160 2.297 . S
Mn144 O168 2.385 1_545 S
Mn144 O169 2.209 1_545 S
Mn144 O170 2.094 . S
Mn145 O150 2.121 . S
Mn145 N152 2.257 . S
Mn145 N161 2.282 . S
Mn145 O169 2.215 . S
Mn145 O171 2.117 . S
C146 O168 1.234 . S
C146 O169 1.283 . S
C147 O159 1.281 . S
C147 O160 1.236 . S
C148 O170 1.240 . S
C148 O171 1.264 1_545 S
O149 Mn144 2.095 . S
O149 C158 1.250 . S
O150 Mn145 2.121 . S
O150 C158 1.258 1_565 S
C151 N152 1.326 . S
C151 C155 1.460 . S
C151 H157 0.929 . S
N152 Mn145 2.257 . S
N152 C151 1.326 . S
N152 C156 1.362 . S
C153 C154 1.258 . S
C153 C156 1.431 . S
C153 C173 1.449 . S
C154 C153 1.258 . S
C154 C155 1.477 . S
C154 H174 0.931 . S
C155 C151 1.460 . S
C155 C154 1.477 . S
C155 H175 0.930 . S
C156 N152 1.362 . S
C156 C153 1.431 . S
C156 C166 1.476 . S
H157 C151 0.929 . S
C158 O149 1.250 . S
C158 O150 1.258 1_545 S
O159 Mn144 2.162 . S
O159 C147 1.281 . S
O160 Mn144 2.297 . S
O160 C147 1.236 . S
N161 Mn145 2.282 . S
N161 C162 1.328 . S
N161 C166 1.318 . S
C162 N161 1.328 . S
C162 C163 1.457 . S
C162 H167 0.929 . S
C163 C162 1.457 . S
C163 C164 1.291 . S
C163 H176 0.931 . S
C164 C163 1.291 . S
C164 C165 1.373 . S
C164 H177 0.929 . S
C165 C164 1.373 . S
C165 C166 1.396 . S
C165 C172 1.403 . S
C166 C156 1.476 . S
C166 N161 1.318 . S
C166 C165 1.396 . S
H167 C162 0.929 . S
O168 Mn144 2.385 1_565 S
O168 C146 1.234 . S
O169 Mn144 2.209 1_565 S
O169 Mn145 2.215 . S
O169 C146 1.283 . S
O170 Mn144 2.094 . S
O170 C148 1.240 . S
O171 Mn145 2.117 . S
O171 C148 1.264 1_565 S
C172 C165 1.403 . S
C172 C173 1.399 . S
C172 H178 0.929 . S
C173 C153 1.449 . S
C173 C172 1.399 . S
C173 H179 0.930 . S
H174 C154 0.931 . S
H175 C155 0.930 . S
H176 C163 0.931 . S
H177 C164 0.929 . S
H178 C172 0.929 . S
H179 C173 0.930 . S
Mn180 O185 2.095 . S
Mn180 O195 2.162 . S
Mn180 O196 2.297 . S
Mn180 O204 2.385 1_455 S
Mn180 O205 2.209 1_455 S
Mn180 O206 2.094 . S
Mn181 O186 2.121 . S
Mn181 N188 2.257 . S
Mn181 N197 2.282 . S
Mn181 O205 2.215 . S
Mn181 O207 2.117 . S
C182 O204 1.234 . S
C182 O205 1.283 . S
C183 O195 1.281 . S
C183 O196 1.236 . S
C184 O206 1.240 . S
C184 O207 1.264 1_455 S
O185 Mn180 2.095 . S
O185 C194 1.250 . S
O186 Mn181 2.121 . S
O186 C194 1.258 1_655 S
C187 N188 1.326 . S
C187 C191 1.460 . S
C187 H193 0.929 . S
N188 Mn181 2.257 . S
N188 C187 1.326 . S
N188 C192 1.362 . S
C189 C190 1.258 . S
C189 C192 1.431 . S
C189 C209 1.449 . S
C190 C189 1.258 . S
C190 C191 1.477 . S
C190 H210 0.931 . S
C191 C187 1.460 . S
C191 C190 1.477 . S
C191 H211 0.930 . S
C192 N188 1.362 . S
C192 C189 1.431 . S
C192 C202 1.476 . S
H193 C187 0.929 . S
C194 O185 1.250 . S
C194 O186 1.258 1_455 S
O195 Mn180 2.162 . S
O195 C183 1.281 . S
O196 Mn180 2.297 . S
O196 C183 1.236 . S
N197 Mn181 2.282 . S
N197 C198 1.328 . S
N197 C202 1.318 . S
C198 N197 1.328 . S
C198 C199 1.457 . S
C198 H203 0.929 . S
C199 C198 1.457 . S
C199 C200 1.291 . S
C199 H212 0.931 . S
C200 C199 1.291 . S
C200 C201 1.373 . S
C200 H213 0.929 . S
C201 C200 1.373 . S
C201 C202 1.396 . S
C201 C208 1.403 . S
C202 C192 1.476 . S
C202 N197 1.318 . S
C202 C201 1.396 . S
H203 C198 0.929 . S
O204 Mn180 2.385 1_655 S
O204 C182 1.234 . S
O205 Mn180 2.209 1_655 S
O205 Mn181 2.215 . S
O205 C182 1.283 . S
O206 Mn180 2.094 . S
O206 C184 1.240 . S
O207 Mn181 2.117 . S
O207 C184 1.264 1_655 S
C208 C201 1.403 . S
C208 C209 1.399 . S
C208 H214 0.929 . S
C209 C189 1.449 . S
C209 C208 1.399 . S
C209 H215 0.930 . S
H210 C190 0.931 . S
H211 C191 0.930 . S
H212 C199 0.931 . S
H213 C200 0.929 . S
H214 C208 0.929 . S
H215 C209 0.930 . S
Mn216 O221 2.095 . S
Mn216 O231 2.159 1_545 S
Mn216 O232 2.297 . S
Mn216 O240 2.385 1_545 S
Mn216 O241 2.209 . S
Mn216 O242 2.094 1_545 S
Mn217 O222 2.121 . S
Mn217 N224 2.257 . S
Mn217 N233 2.282 1_545 S
Mn217 O241 2.215 . S
Mn217 O243 2.117 1_545 S
C218 O240 1.234 1_545 S
C218 O241 1.283 . S
C219 O231 1.268 1_545 S
C219 O232 1.236 . S
C220 O242 1.240 . S
C220 O243 1.264 . S
O221 Mn216 2.095 . S
O221 C230 1.250 . S
O222 Mn217 2.121 . S
O222 C230 1.258 . S
C223 N224 1.326 . S
C223 C227 1.460 . S
C223 H229 0.929 . S
N224 Mn217 2.257 . S
N224 C223 1.326 . S
N224 C228 1.362 . S
C225 C226 1.258 . S
C225 C228 1.431 . S
C225 C245 1.449 . S
C226 C225 1.258 . S
C226 C227 1.477 . S
C226 H246 0.931 . S
C227 C223 1.460 . S
C227 C226 1.477 . S
C227 H247 0.930 . S
C228 N224 1.362 . S
C228 C225 1.431 . S
C228 C238 1.476 . S
H229 C223 0.929 . S
C230 O221 1.250 . S
C230 O222 1.258 . S
O231 Mn216 2.159 1_565 S
O231 C219 1.268 1_565 S
O232 Mn216 2.297 . S
O232 C219 1.236 . S
N233 Mn217 2.282 1_565 S
N233 C234 1.328 . S
N233 C238 1.318 1_565 S
C234 N233 1.328 . S
C234 C235 1.457 . S
C234 H239 0.929 . S
C235 C234 1.457 . S
C235 C236 1.291 . S
C235 H248 0.931 . S
C236 C235 1.291 . S
C236 C237 1.373 . S
C236 H249 0.929 . S
C237 C236 1.373 . S
C237 C238 1.396 1_565 S
C237 C244 1.403 1_565 S
C238 C228 1.476 . S
C238 N233 1.318 1_545 S
C238 C237 1.396 1_545 S
H239 C234 0.929 . S
O240 Mn216 2.385 1_565 S
O240 C218 1.234 1_565 S
O241 Mn216 2.209 . S
O241 Mn217 2.215 . S
O241 C218 1.283 . S
O242 Mn216 2.094 1_565 S
O242 C220 1.240 . S
O243 Mn217 2.117 1_565 S
O243 C220 1.264 . S
C244 C237 1.403 1_545 S
C244 C245 1.399 . S
C244 H250 0.929 1_545 S
C245 C225 1.449 . S
C245 C244 1.399 . S
C245 H251 0.930 . S
H246 C226 0.931 . S
H247 C227 0.930 . S
H248 C235 0.931 . S
H249 C236 0.929 . S
H250 C244 0.929 1_565 S
H251 C245 0.930 . S
Mn252 O257 2.095 1_455 S
Mn252 O267 2.162 . S
Mn252 O268 2.297 1_455 S
Mn252 O276 2.385 . S
Mn252 O277 2.209 . S
Mn252 O278 2.094 . S
Mn253 O258 2.121 1_455 S
Mn253 N260 2.257 1_455 S
Mn253 N269 2.282 . S
Mn253 O277 2.215 . S
Mn253 O279 2.117 . S
C254 O276 1.234 . S
C254 O277 1.283 . S
C255 O267 1.281 . S
C255 O268 1.236 1_455 S
C256 O278 1.240 . S
C256 O279 1.264 . S
O257 Mn252 2.095 1_655 S
O257 C266 1.250 . S
O258 Mn253 2.121 1_655 S
O258 C266 1.258 . S
C259 N260 1.326 . S
C259 C263 1.460 . S
C259 H265 0.929 . S
N260 Mn253 2.257 1_655 S
N260 C259 1.326 . S
N260 C264 1.362 . S
C261 C262 1.258 . S
C261 C264 1.431 . S
C261 C281 1.449 . S
C262 C261 1.258 . S
C262 C263 1.477 . S
C262 H282 0.931 . S
C263 C259 1.460 . S
C263 C262 1.477 . S
C263 H283 0.930 . S
C264 N260 1.362 . S
C264 C261 1.431 . S
C264 C274 1.476 1_655 S
H265 C259 0.929 . S
C266 O257 1.250 . S
C266 O258 1.258 . S
O267 Mn252 2.162 . S
O267 C255 1.281 . S
O268 Mn252 2.297 1_655 S
O268 C255 1.236 1_655 S
N269 Mn253 2.282 . S
N269 C270 1.328 . S
N269 C274 1.318 . S
C270 N269 1.328 . S
C270 C271 1.457 . S
C270 H275 0.929 . S
C271 C270 1.457 . S
C271 C272 1.291 . S
C271 H284 0.931 . S
C272 C271 1.291 . S
C272 C273 1.373 . S
C272 H285 0.929 . S
C273 C272 1.373 . S
C273 C274 1.396 . S
C273 C280 1.403 . S
C274 C264 1.476 1_455 S
C274 N269 1.318 . S
C274 C273 1.396 . S
H275 C270 0.929 . S
O276 Mn252 2.385 . S
O276 C254 1.234 . S
O277 Mn252 2.209 . S
O277 Mn253 2.215 . S
O277 C254 1.283 . S
O278 Mn252 2.094 . S
O278 C256 1.240 . S
O279 Mn253 2.117 . S
O279 C256 1.264 . S
C280 C273 1.403 . S
C280 C281 1.399 1_455 S
C280 H286 0.929 . S
C281 C261 1.449 . S
C281 C280 1.399 1_655 S
C281 H287 0.930 . S
H282 C262 0.931 . S
H283 C263 0.930 . S
H284 C271 0.931 . S
H285 C272 0.929 . S
H286 C280 0.929 . S
H287 C281 0.930 . S
Mn288 O293 2.095 . S
Mn288 O303 2.162 1_554 S
Mn288 O304 2.297 . S
Mn288 O312 2.385 1_554 S
Mn288 O313 2.209 . S
Mn288 O314 2.094 1_554 S
Mn289 O294 2.121 . S
Mn289 N296 2.257 . S
Mn289 N305 2.282 1_554 S
Mn289 O313 2.215 . S
Mn289 O315 2.117 1_554 S
C290 O312 1.224 1_554 S
C290 O313 1.292 . S
C291 O303 1.281 1_554 S
C291 O304 1.236 . S
C292 O314 1.240 . S
C292 O315 1.264 . S
O293 Mn288 2.095 . S
O293 C302 1.250 . S
O294 Mn289 2.121 . S
O294 C302 1.258 . S
C295 N296 1.326 . S
C295 C299 1.460 . S
C295 H301 0.929 . S
N296 Mn289 2.257 . S
N296 C295 1.326 . S
N296 C300 1.362 . S
C297 C298 1.258 . S
C297 C300 1.431 . S
C297 C317 1.449 . S
C298 C297 1.258 . S
C298 C299 1.477 . S
C298 H318 0.931 . S
C299 C295 1.460 . S
C299 C298 1.477 . S
C299 H319 0.930 . S
C300 N296 1.362 . S
C300 C297 1.431 . S
C300 C310 1.476 . S
H301 C295 0.929 . S
C302 O293 1.250 . S
C302 O294 1.258 . S
O303 Mn288 2.162 1_556 S
O303 C291 1.281 1_556 S
O304 Mn288 2.297 . S
O304 C291 1.236 . S
N305 Mn289 2.282 1_556 S
N305 C306 1.328 . S
N305 C310 1.318 1_556 S
C306 N305 1.328 . S
C306 C307 1.457 . S
C306 H311 0.929 . S
C307 C306 1.457 . S
C307 C308 1.291 . S
C307 H320 0.931 . S
C308 C307 1.291 . S
C308 C309 1.373 . S
C308 H321 0.929 . S
C309 C308 1.373 . S
C309 C310 1.396 1_556 S
C309 C316 1.403 1_556 S
C310 C300 1.476 . S
C310 N305 1.318 1_554 S
C310 C309 1.396 1_554 S
H311 C306 0.929 . S
O312 Mn288 2.385 1_556 S
O312 C290 1.224 1_556 S
O313 Mn288 2.209 . S
O313 Mn289 2.215 . S
O313 C290 1.292 . S
O314 Mn288 2.094 1_556 S
O314 C292 1.240 . S
O315 Mn289 2.117 1_556 S
O315 C292 1.264 . S
C316 C309 1.403 1_554 S
C316 C317 1.399 . S
C316 H322 0.924 1_554 S
C317 C297 1.449 . S
C317 C316 1.399 . S
C317 H323 0.930 . S
H318 C298 0.931 . S
H319 C299 0.930 . S
H320 C307 0.931 . S
H321 C308 0.929 . S
H322 C316 0.924 1_556 S
H323 C317 0.930 . S
Mn324 O329 2.095 1_554 S
Mn324 O339 2.162 . S
Mn324 O340 2.297 1_554 S
Mn324 O348 2.385 . S
Mn324 O349 2.209 1_554 S
Mn324 O350 2.094 . S
Mn325 O330 2.121 . S
Mn325 N332 2.257 . S
Mn325 N341 2.282 1_556 S
Mn325 O349 2.215 . S
Mn325 O351 2.117 1_556 S
C326 O348 1.234 . S
C326 O349 1.283 1_554 S
C327 O339 1.281 1_556 S
C327 O340 1.236 . S
C328 O350 1.240 . S
C328 O351 1.264 . S
O329 Mn324 2.095 1_556 S
O329 C338 1.250 . S
O330 Mn325 2.121 . S
O330 C338 1.258 . S
C331 N332 1.326 . S
C331 C335 1.460 . S
C331 H337 0.929 . S
N332 Mn325 2.257 . S
N332 C331 1.326 . S
N332 C336 1.362 . S
C333 C334 1.258 . S
C333 C336 1.431 . S
C333 C353 1.449 . S
C334 C333 1.258 . S
C334 C335 1.477 . S
C334 H354 0.931 . S
C335 C331 1.460 . S
C335 C334 1.477 . S
C335 H355 0.930 . S
C336 N332 1.362 . S
C336 C333 1.431 . S
C336 C346 1.476 1_556 S
H337 C331 0.929 . S
C338 O329 1.250 . S
C338 O330 1.258 . S
O339 Mn324 2.162 . S
O339 C327 1.281 1_554 S
O340 Mn324 2.297 1_556 S
O340 C327 1.236 . S
N341 Mn325 2.282 1_554 S
N341 C342 1.328 . S
N341 C346 1.318 . S
C342 N341 1.328 . S
C342 C343 1.457 . S
C342 H347 0.929 . S
C343 C342 1.457 . S
C343 C344 1.291 . S
C343 H356 0.931 . S
C344 C343 1.291 . S
C344 C345 1.373 . S
C344 H357 0.929 . S
C345 C344 1.373 . S
C345 C346 1.396 . S
C345 C352 1.403 . S
C346 C336 1.476 1_554 S
C346 N341 1.318 . S
C346 C345 1.396 . S
H347 C342 0.929 . S
O348 Mn324 2.385 . S
O348 C326 1.234 . S
O349 Mn324 2.209 1_556 S
O349 Mn325 2.215 . S
O349 C326 1.283 1_556 S
O350 Mn324 2.094 . S
O350 C328 1.240 . S
O351 Mn325 2.117 1_554 S
O351 C328 1.264 . S
C352 C345 1.403 . S
C352 C353 1.399 1_554 S
C352 H358 0.929 . S
C353 C333 1.449 . S
C353 C352 1.399 1_556 S
C353 H359 0.930 . S
H354 C334 0.931 . S
H355 C335 0.930 . S
H356 C343 0.931 . S
H357 C344 0.929 . S
H358 C352 0.929 . S
H359 C353 0.930 . S
Mn360 O365 2.095 . S
Mn360 O375 2.162 1_554 S
Mn360 O376 2.297 . S
Mn360 O384 2.385 1_554 S
Mn360 O385 2.209 . S
Mn360 O386 2.094 1_554 S
Mn361 O366 2.121 . S
Mn361 N368 2.257 . S
Mn361 N377 2.282 1_554 S
Mn361 O385 2.215 . S
Mn361 O387 2.117 1_554 S
C362 O384 1.214 1_554 S
C362 O385 1.302 . S
C363 O375 1.281 1_554 S
C363 O376 1.236 . S
C364 O386 1.240 . S
C364 O387 1.264 . S
O365 Mn360 2.095 . S
O365 C374 1.250 . S
O366 Mn361 2.121 . S
O366 C374 1.258 . S
C367 N368 1.326 . S
C367 C371 1.460 . S
C367 H373 0.929 . S
N368 Mn361 2.257 . S
N368 C367 1.326 . S
N368 C372 1.362 . S
C369 C370 1.258 . S
C369 C372 1.431 . S
C369 C389 1.449 . S
C370 C369 1.258 . S
C370 C371 1.477 . S
C370 H390 0.931 . S
C371 C367 1.460 . S
C371 C370 1.477 . S
C371 H391 0.930 . S
C372 N368 1.362 . S
C372 C369 1.431 . S
C372 C382 1.502 . S
H373 C367 0.929 . S
C374 O365 1.250 . S
C374 O366 1.258 . S
O375 Mn360 2.162 1_556 S
O375 C363 1.281 1_556 S
O376 Mn360 2.297 . S
O376 C363 1.236 . S
N377 Mn361 2.282 1_556 S
N377 C378 1.328 . S
N377 C382 1.305 1_556 S
C378 N377 1.328 . S
C378 C379 1.457 . S
C378 H383 0.929 . S
C379 C378 1.457 . S
C379 C380 1.291 . S
C379 H392 0.931 . S
C380 C379 1.291 . S
C380 C381 1.373 . S
C380 H393 0.929 . S
C381 C380 1.373 . S
C381 C382 1.384 1_556 S
C381 C388 1.403 1_556 S
C382 C372 1.502 . S
C382 N377 1.305 1_554 S
C382 C381 1.384 1_554 S
H383 C378 0.929 . S
O384 Mn360 2.385 1_556 S
O384 C362 1.214 1_556 S
O385 Mn360 2.209 . S
O385 Mn361 2.215 . S
O385 C362 1.302 . S
O386 Mn360 2.094 1_556 S
O386 C364 1.240 . S
O387 Mn361 2.117 1_556 S
O387 C364 1.264 . S
C388 C381 1.403 1_554 S
C388 C389 1.399 . S
C388 H394 0.929 1_554 S
C389 C369 1.449 . S
C389 C388 1.399 . S
C389 H395 0.930 . S
H390 C370 0.931 . S
H391 C371 0.930 . S
H392 C379 0.931 . S
H393 C380 0.929 . S
H394 C388 0.929 1_556 S
H395 C389 0.930 . S
Mn396 O401 2.095 1_554 S
Mn396 O411 2.162 . S
Mn396 O412 2.297 1_554 S
Mn396 O420 2.385 . S
Mn396 O421 2.209 . S
Mn396 O422 2.094 . S
Mn397 O402 2.121 1_554 S
Mn397 N404 2.257 1_554 S
Mn397 N413 2.282 . S
Mn397 O421 2.215 . S
Mn397 O423 2.117 . S
C398 O420 1.234 . S
C398 O421 1.283 . S
C399 O411 1.281 . S
C399 O412 1.236 1_554 S
C400 O422 1.240 . S
C400 O423 1.264 . S
O401 Mn396 2.095 1_556 S
O401 C410 1.250 . S
O402 Mn397 2.121 1_556 S
O402 C410 1.258 . S
C403 N404 1.326 . S
C403 C407 1.460 . S
C403 H409 0.929 . S
N404 Mn397 2.257 1_556 S
N404 C403 1.326 . S
N404 C408 1.362 . S
C405 C406 1.258 . S
C405 C408 1.431 . S
C405 C425 1.449 . S
C406 C405 1.258 . S
C406 C407 1.477 . S
C406 H426 0.931 . S
C407 C403 1.460 . S
C407 C406 1.477 . S
C407 H427 0.930 . S
C408 N404 1.362 . S
C408 C405 1.431 . S
C408 C418 1.476 1_556 S
H409 C403 0.929 . S
C410 O401 1.250 . S
C410 O402 1.258 . S
O411 Mn396 2.162 . S
O411 C399 1.281 . S
O412 Mn396 2.297 1_556 S
O412 C399 1.236 1_556 S
N413 Mn397 2.282 . S
N413 C414 1.328 . S
N413 C418 1.318 . S
C414 N413 1.328 . S
C414 C415 1.457 . S
C414 H419 0.929 . S
C415 C414 1.457 . S
C415 C416 1.291 . S
C415 H428 0.931 . S
C416 C415 1.291 . S
C416 C417 1.373 . S
C416 H429 0.929 . S
C417 C416 1.373 . S
C417 C418 1.396 . S
C417 C424 1.403 . S
C418 C408 1.476 1_554 S
C418 N413 1.318 . S
C418 C417 1.396 . S
H419 C414 0.929 . S
O420 Mn396 2.385 . S
O420 C398 1.234 . S
O421 Mn396 2.209 . S
O421 Mn397 2.215 . S
O421 C398 1.283 . S
O422 Mn396 2.094 . S
O422 C400 1.240 . S
O423 Mn397 2.117 . S
O423 C400 1.264 . S
C424 C417 1.403 . S
C424 C425 1.399 1_554 S
C424 H430 0.929 . S
C425 C405 1.449 . S
C425 C424 1.399 1_556 S
C425 H431 0.930 . S
H426 C406 0.931 . S
H427 C407 0.930 . S
H428 C415 0.931 . S
H429 C416 0.929 . S
H430 C424 0.929 . S
H431 C425 0.930 . S
H432 C440 0.950 . S
H433 C445 0.950 . S
H434 C442 0.950 . S
H435 C444 0.950 . S
H436 C446 0.950 . S
H437 C448 0.950 . S
H438 C450 0.950 . S
H439 C451 0.950 . S
C440 H432 0.950 . S
C440 C441 1.386 . S
C440 C442 1.391 . S
C441 C440 1.386 . S
C441 C445 1.393 1_455 S
C442 H434 0.950 . S
C442 C440 1.391 . S
C442 C443 1.400 . S
C443 C442 1.400 . S
C443 C444 1.398 1_455 S
C443 C449 1.491 . S
C444 H435 0.950 . S
C444 C443 1.398 1_655 S
C444 C445 1.391 . S
C445 H433 0.950 . S
C445 C441 1.393 1_655 S
C445 C444 1.391 . S
C446 H436 0.950 . S
C446 C447 1.386 1_655 S
C446 C448 1.391 . S
C447 C446 1.386 1_455 S
C447 C451 1.393 . S
C448 H437 0.950 . S
C448 C446 1.391 . S
C448 C449 1.400 1_655 S
C449 C443 1.491 . S
C449 C448 1.400 1_455 S
C449 C450 1.398 . S
C450 H438 0.950 . S
C450 C449 1.398 . S
C450 C451 1.391 . S
C451 H439 0.950 . S
C451 C447 1.393 . S
C451 C450 1.391 . S
H452 C460 0.950 1_565 S
H453 C465 0.950 . S
H454 C462 0.950 1_565 S
H455 C464 0.950 . S
H456 C466 0.950 . S
H457 C468 0.950 . S
H458 C470 0.950 . S
H459 C471 0.950 . S
C460 H452 0.950 1_545 S
C460 C461 1.386 . S
C460 C462 1.391 . S
C461 C460 1.386 . S
C461 C465 1.393 . S
C462 H454 0.950 1_545 S
C462 C460 1.391 . S
C462 C463 1.400 . S
C463 C462 1.400 . S
C463 C464 1.398 . S
C463 C469 1.491 . S
C464 H455 0.950 . S
C464 C463 1.398 . S
C464 C465 1.391 . S
C465 H453 0.950 . S
C465 C461 1.393 . S
C465 C464 1.391 . S
C466 H456 0.950 . S
C466 C467 1.386 . S
C466 C468 1.391 . S
C467 C466 1.386 . S
C467 C471 1.393 1_545 S
C468 H457 0.950 . S
C468 C466 1.391 . S
C468 C469 1.400 . S
C469 C463 1.491 . S
C469 C468 1.400 . S
C469 C470 1.398 1_545 S
C470 H458 0.950 . S
C470 C469 1.398 1_565 S
C470 C471 1.391 . S
C471 H459 0.950 . S
C471 C467 1.393 1_565 S
C471 C470 1.391 . S
H472 C480 0.950 . S
H473 C485 0.950 . S
H474 C482 0.950 . S
H475 C484 0.950 . S
H476 C486 0.950 . S
H477 C488 0.950 . S
H478 C490 0.950 . S
H479 C491 0.950 . S
C480 H472 0.950 . S
C480 C481 1.386 . S
C480 C482 1.391 . S
C481 C480 1.386 . S
C481 C485 1.393 . S
C482 H474 0.950 . S
C482 C480 1.391 . S
C482 C483 1.400 . S
C483 C482 1.400 . S
C483 C484 1.398 . S
C483 C489 1.491 . S
C484 H475 0.950 . S
C484 C483 1.398 . S
C484 C485 1.391 . S
C485 H473 0.950 . S
C485 C481 1.393 . S
C485 C484 1.391 . S
C486 H476 0.950 . S
C486 C487 1.386 . S
C486 C488 1.391 . S
C487 C486 1.386 . S
C487 C491 1.393 . S
C488 H477 0.950 . S
C488 C486 1.391 . S
C488 C489 1.400 . S
C489 C483 1.491 . S
C489 C488 1.400 . S
C489 C490 1.398 . S
C490 H478 0.950 . S
C490 C489 1.398 . S
C490 C491 1.391 . S
C491 H479 0.950 . S
C491 C487 1.393 . S
C491 C490 1.391 . S
H492 C500 0.950 . S
H493 C505 0.944 1_565 S
H494 C502 0.950 . S
H495 C504 0.950 . S
H496 C506 0.950 . S
H497 C508 0.950 . S
H498 C510 0.950 . S
H499 C511 0.950 . S
C500 H492 0.950 . S
C500 C501 1.386 . S
C500 C502 1.391 . S
C501 C500 1.386 . S
C501 C505 1.397 . S
C502 H494 0.950 . S
C502 C500 1.391 . S
C502 C503 1.400 . S
C503 C502 1.400 . S
C503 C504 1.398 . S
C503 C509 1.491 . S
C504 H495 0.950 . S
C504 C503 1.398 . S
C504 C505 1.393 . S
C505 H493 0.944 1_545 S
C505 C501 1.397 . S
C505 C504 1.393 . S
C506 H496 0.950 . S
C506 C507 1.386 . S
C506 C508 1.391 . S
C507 C506 1.386 . S
C507 C511 1.393 . S
C508 H497 0.950 . S
C508 C506 1.391 . S
C508 C509 1.400 . S
C509 C503 1.491 . S
C509 C508 1.400 . S
C509 C510 1.398 . S
C510 H498 0.950 . S
C510 C509 1.398 . S
C510 C511 1.391 . S
C511 H499 0.950 . S
C511 C507 1.393 . S
C511 C510 1.391 . S
H512 C520 0.950 . S
H513 C525 0.950 . S
H514 C522 0.950 . S
H515 C524 0.950 . S
H516 C526 0.950 . S
H517 C528 0.950 . S
H518 C530 0.950 . S
H519 C531 0.950 . S
C520 H512 0.950 . S
C520 C521 1.386 1_655 S
C520 C522 1.391 . S
C521 C520 1.386 1_455 S
C521 C525 1.393 . S
C522 H514 0.950 . S
C522 C520 1.391 . S
C522 C523 1.400 1_655 S
C523 C522 1.400 1_455 S
C523 C524 1.398 . S
C523 C529 1.491 . S
C524 H515 0.950 . S
C524 C523 1.398 . S
C524 C525 1.391 . S
C525 H513 0.950 . S
C525 C521 1.393 . S
C525 C524 1.391 . S
C526 H516 0.950 . S
C526 C527 1.386 . S
C526 C528 1.391 . S
C527 C526 1.386 . S
C527 C531 1.393 1_455 S
C528 H517 0.950 . S
C528 C526 1.391 . S
C528 C529 1.400 . S
C529 C523 1.491 . S
C529 C528 1.400 . S
C529 C530 1.398 1_455 S
C530 H518 0.950 . S
C530 C529 1.398 1_655 S
C530 C531 1.391 . S
C531 H519 0.950 . S
C531 C527 1.393 1_655 S
C531 C530 1.391 . S
H532 C540 0.950 . S
H533 C545 0.950 . S
H534 C542 0.950 . S
H535 C544 0.950 . S
H536 C546 0.950 . S
H537 C548 0.950 . S
H538 C550 0.950 . S
H539 C551 0.950 . S
C540 H532 0.950 . S
C540 C541 1.386 1_565 S
C540 C542 1.391 . S
C541 C540 1.386 1_545 S
C541 C545 1.393 . S
C542 H534 0.950 . S
C542 C540 1.391 . S
C542 C543 1.400 1_565 S
C543 C542 1.400 1_545 S
C543 C544 1.398 . S
C543 C549 1.491 . S
C544 H535 0.950 . S
C544 C543 1.398 . S
C544 C545 1.391 . S
C545 H533 0.950 . S
C545 C541 1.393 . S
C545 C544 1.391 . S
C546 H536 0.950 . S
C546 C547 1.386 . S
C546 C548 1.391 . S
C547 C546 1.386 . S
C547 C551 1.393 1_545 S
C548 H537 0.950 . S
C548 C546 1.391 . S
C548 C549 1.400 . S
C549 C543 1.491 . S
C549 C548 1.400 . S
C549 C550 1.398 1_545 S
C550 H538 0.950 . S
C550 C549 1.398 1_565 S
C550 C551 1.391 . S
C551 H539 0.950 . S
C551 C547 1.393 1_565 S
C551 C550 1.391 . S
H552 C560 0.950 . S
H553 C565 0.950 . S
H554 C562 0.950 . S
H555 C564 0.950 . S
H556 C566 0.950 . S
H557 C568 0.950 . S
H558 C570 0.950 . S
H559 C571 0.950 . S
C560 H552 0.950 . S
C560 C561 1.386 1_655 S
C560 C562 1.391 . S
C561 C560 1.386 1_455 S
C561 C565 1.393 . S
C562 H554 0.950 . S
C562 C560 1.391 . S
C562 C563 1.400 1_655 S
C563 C562 1.400 1_455 S
C563 C564 1.398 . S
C563 C569 1.491 . S
C564 H555 0.950 . S
C564 C563 1.398 . S
C564 C565 1.391 . S
C565 H553 0.950 . S
C565 C561 1.393 . S
C565 C564 1.391 . S
C566 H556 0.950 . S
C566 C567 1.386 . S
C566 C568 1.391 . S
C567 C566 1.386 . S
C567 C571 1.393 1_455 S
C568 H557 0.950 . S
C568 C566 1.391 . S
C568 C569 1.400 . S
C569 C563 1.491 . S
C569 C568 1.400 . S
C569 C570 1.398 1_455 S
C570 H558 0.950 . S
C570 C569 1.398 1_655 S
C570 C571 1.391 . S
C571 H559 0.950 . S
C571 C567 1.393 1_655 S
C571 C570 1.391 . S
H572 C580 0.950 . S
H573 C585 0.950 . S
H574 C582 0.950 . S
H575 C584 0.950 . S
H576 C586 0.950 . S
H577 C588 0.950 . S
H578 C590 0.950 . S
H579 C591 0.950 . S
C580 H572 0.950 . S
C580 C581 1.386 . S
C580 C582 1.391 . S
C581 C580 1.386 . S
C581 C585 1.393 . S
C582 H574 0.950 . S
C582 C580 1.391 . S
C582 C583 1.400 . S
C583 C582 1.400 . S
C583 C584 1.398 . S
C583 C589 1.491 . S
C584 H575 0.950 . S
C584 C583 1.398 . S
C584 C585 1.391 . S
C585 H573 0.950 . S
C585 C581 1.393 . S
C585 C584 1.391 . S
C586 H576 0.950 . S
C586 C587 1.386 . S
C586 C588 1.391 . S
C587 C586 1.386 . S
C587 C591 1.393 . S
C588 H577 0.950 . S
C588 C586 1.391 . S
C588 C589 1.400 . S
C589 C583 1.491 . S
C589 C588 1.400 . S
C589 C590 1.398 . S
C590 H578 0.950 . S
C590 C589 1.398 . S
C590 C591 1.391 . S
C591 H579 0.950 . S
C591 C587 1.393 . S
C591 C590 1.391 . S
H592 C600 0.950 . S
H593 C605 0.950 . S
H594 C602 0.950 . S
H595 C604 0.950 . S
H596 C606 0.950 . S
H597 C608 0.950 . S
H598 C610 0.950 . S
H599 C611 0.950 . S
C600 H592 0.950 . S
C600 C601 1.386 1_554 S
C600 C602 1.391 . S
C601 C600 1.386 1_556 S
C601 C605 1.393 . S
C602 H594 0.950 . S
C602 C600 1.391 . S
C602 C603 1.400 . S
C603 C602 1.400 . S
C603 C604 1.398 1_554 S
C603 C609 1.491 . S
C604 H595 0.950 . S
C604 C603 1.398 1_556 S
C604 C605 1.391 . S
C605 H593 0.950 . S
C605 C601 1.393 . S
C605 C604 1.391 . S
C606 H596 0.950 . S
C606 C607 1.386 1_556 S
C606 C608 1.391 . S
C607 C606 1.386 1_554 S
C607 C611 1.393 . S
C608 H597 0.950 . S
C608 C606 1.391 . S
C608 C609 1.400 1_556 S
C609 C603 1.491 . S
C609 C608 1.400 1_554 S
C609 C610 1.398 . S
C610 H598 0.950 . S
C610 C609 1.398 . S
C610 C611 1.391 . S
C611 H599 0.950 . S
C611 C607 1.393 . S
C611 C610 1.391 . S
H612 C620 0.950 . S
H613 C625 0.950 . S
H614 C622 0.950 . S
H615 C624 0.950 . S
H616 C626 0.950 . S
H617 C628 0.950 . S
H618 C630 0.967 . S
H619 C631 0.950 1_556 S
C620 H612 0.950 . S
C620 C621 1.386 1_556 S
C620 C622 1.391 . S
C621 C620 1.386 1_554 S
C621 C625 1.393 . S
C622 H614 0.950 . S
C622 C620 1.391 . S
C622 C623 1.400 1_556 S
C623 C622 1.400 1_554 S
C623 C624 1.398 . S
C623 C629 1.491 . S
C624 H615 0.950 . S
C624 C623 1.398 . S
C624 C625 1.391 . S
C625 H613 0.950 . S
C625 C621 1.393 . S
C625 C624 1.391 . S
C626 H616 0.950 . S
C626 C627 1.386 . S
C626 C628 1.391 . S
C627 C626 1.386 . S
C627 C631 1.393 . S
C628 H617 0.950 . S
C628 C626 1.391 . S
C628 C629 1.400 . S
C629 C623 1.491 . S
C629 C628 1.400 . S
C629 C630 1.385 1_554 S
C630 H618 0.967 . S
C630 C629 1.385 1_556 S
C630 C631 1.388 1_556 S
C631 H619 0.950 1_554 S
C631 C627 1.393 . S
C631 C630 1.388 1_554 S
H632 C640 0.950 . S
H633 C645 0.950 . S
H634 C642 0.950 . S
H635 C644 0.950 . S
H636 C646 0.950 . S
H637 C648 0.950 . S
H638 C650 0.950 . S
H639 C651 0.950 . S
C640 H632 0.950 . S
C640 C641 1.386 . S
C640 C642 1.391 . S
C641 C640 1.386 . S
C641 C645 1.393 1_554 S
C642 H634 0.950 . S
C642 C640 1.391 . S
C642 C643 1.400 . S
C643 C642 1.400 . S
C643 C644 1.398 1_554 S
C643 C649 1.491 . S
C644 H635 0.950 . S
C644 C643 1.398 1_556 S
C644 C645 1.391 . S
C645 H633 0.950 . S
C645 C641 1.393 1_556 S
C645 C644 1.391 . S
C646 H636 0.950 . S
C646 C647 1.386 1_556 S
C646 C648 1.391 . S
C647 C646 1.386 1_554 S
C647 C651 1.393 . S
C648 H637 0.950 . S
C648 C646 1.391 . S
C648 C649 1.400 1_556 S
C649 C643 1.491 . S
C649 C648 1.400 1_554 S
C649 C650 1.398 . S
C650 H638 0.950 . S
C650 C649 1.398 . S
C650 C651 1.391 . S
C651 H639 0.950 . S
C651 C647 1.393 . S
C651 C650 1.391 . S
H652 C660 0.950 1_556 S
H653 C665 0.950 . S
H654 C662 0.960 . S
H655 C664 0.950 . S
H656 C666 0.950 . S
H657 C668 0.950 . S
H658 C670 0.950 . S
H659 C671 0.950 . S
C660 H652 0.950 1_554 S
C660 C661 1.386 . S
C660 C662 1.389 1_554 S
C661 C660 1.386 . S
C661 C665 1.393 . S
C662 H654 0.960 . S
C662 C660 1.389 1_556 S
C662 C663 1.392 1_556 S
C663 C662 1.392 1_554 S
C663 C664 1.398 . S
C663 C669 1.491 . S
C664 H655 0.950 . S
C664 C663 1.398 . S
C664 C665 1.391 . S
C665 H653 0.950 . S
C665 C661 1.393 . S
C665 C664 1.391 . S
C666 H656 0.950 . S
C666 C667 1.386 . S
C666 C668 1.391 . S
C667 C666 1.386 . S
C667 C671 1.393 1_554 S
C668 H657 0.950 . S
C668 C666 1.391 . S
C668 C669 1.400 . S
C669 C663 1.491 . S
C669 C668 1.400 . S
C669 C670 1.398 1_554 S
C670 H658 0.950 . S
C670 C669 1.398 1_556 S
C670 C671 1.391 . S
C671 H659 0.950 . S
C671 C667 1.393 1_556 S
C671 C670 1.391 . S
H672 C680 0.950 . S
H673 C685 0.950 . S
H674 C682 0.950 . S
H675 C684 0.950 . S
H676 C686 0.950 . S
H677 C688 0.950 . S
H678 C690 0.950 . S
H679 C691 0.950 . S
C680 H672 0.950 . S
C680 C681 1.386 . S
C680 C682 1.391 . S
C681 C680 1.386 . S
C681 C685 1.393 . S
C682 H674 0.950 . S
C682 C680 1.391 . S
C682 C683 1.400 . S
C683 C682 1.400 . S
C683 C684 1.398 . S
C683 C689 1.491 . S
C684 H675 0.950 . S
C684 C683 1.398 . S
C684 C685 1.391 . S
C685 H673 0.950 . S
C685 C681 1.393 . S
C685 C684 1.391 . S
C686 H676 0.950 . S
C686 C687 1.386 . S
C686 C688 1.391 . S
C687 C686 1.386 . S
C687 C691 1.393 . S
C688 H677 0.950 . S
C688 C686 1.391 . S
C688 C689 1.400 . S
C689 C683 1.491 . S
C689 C688 1.400 . S
C689 C690 1.398 . S
C690 H678 0.950 . S
C690 C689 1.398 . S
C690 C691 1.391 . S
C691 H679 0.950 . S
C691 C687 1.393 . S
C691 C690 1.391 . S
H692 C700 0.950 . S
H693 C705 0.950 . S
H694 C702 0.950 . S
H695 C704 0.950 . S
H696 C706 0.950 . S
H697 C708 0.950 . S
H698 C710 0.950 . S
H699 C711 0.950 . S
C700 H692 0.950 . S
C700 C701 1.386 . S
C700 C702 1.391 . S
C701 C700 1.386 . S
C701 C705 1.393 . S
C702 H694 0.950 . S
C702 C700 1.391 . S
C702 C703 1.400 . S
C703 C702 1.400 . S
C703 C704 1.398 . S
C703 C709 1.491 . S
C704 H695 0.950 . S
C704 C703 1.398 . S
C704 C705 1.391 . S
C705 H693 0.950 . S
C705 C701 1.393 . S
C705 C704 1.391 . S
C706 H696 0.950 . S
C706 C707 1.386 . S
C706 C708 1.391 . S
C707 C706 1.386 . S
C707 C711 1.393 . S
C708 H697 0.950 . S
C708 C706 1.391 . S
C708 C709 1.400 . S
C709 C703 1.491 . S
C709 C708 1.400 . S
C709 C710 1.398 . S
C710 H698 0.950 . S
C710 C709 1.398 . S
C710 C711 1.391 . S
C711 H699 0.950 . S
C711 C707 1.393 . S
C711 C710 1.391 . S
H712 C720 0.950 . S
H713 C725 0.950 . S
H714 C722 0.950 . S
H715 C724 0.950 . S
H716 C726 0.950 . S
H717 C728 0.950 . S
H718 C730 0.950 . S
H719 C731 0.950 . S
C720 H712 0.950 . S
C720 C721 1.386 . S
C720 C722 1.391 . S
C721 C720 1.386 . S
C721 C725 1.393 . S
C722 H714 0.950 . S
C722 C720 1.391 . S
C722 C723 1.400 . S
C723 C722 1.400 . S
C723 C724 1.398 . S
C723 C729 1.491 . S
C724 H715 0.950 . S
C724 C723 1.398 . S
C724 C725 1.391 . S
C725 H713 0.950 . S
C725 C721 1.393 . S
C725 C724 1.391 . S
C726 H716 0.950 . S
C726 C727 1.386 . S
C726 C728 1.391 . S
C727 C726 1.386 . S
C727 C731 1.393 . S
C728 H717 0.950 . S
C728 C726 1.391 . S
C728 C729 1.400 . S
C729 C723 1.491 . S
C729 C728 1.400 . S
C729 C730 1.398 . S
C730 H718 0.950 . S
C730 C729 1.398 . S
C730 C731 1.391 . S
C731 H719 0.950 . S
C731 C727 1.393 . S
C731 C730 1.391 . S
H732 C740 0.950 . S
H733 C745 0.950 . S
H734 C742 0.950 . S
H735 C744 0.950 . S
H736 C746 0.950 . S
H737 C748 0.950 . S
H738 C750 0.950 . S
H739 C751 0.950 . S
C740 H732 0.950 . S
C740 C741 1.386 . S
C740 C742 1.391 . S
C741 C740 1.386 . S
C741 C745 1.393 . S
C742 H734 0.950 . S
C742 C740 1.391 . S
C742 C743 1.400 . S
C743 C742 1.400 . S
C743 C744 1.398 . S
C743 C749 1.491 . S
C744 H735 0.950 . S
C744 C743 1.398 . S
C744 C745 1.391 . S
C745 H733 0.950 . S
C745 C741 1.393 . S
C745 C744 1.391 . S
C746 H736 0.950 . S
C746 C747 1.386 . S
C746 C748 1.391 . S
C747 C746 1.386 . S
C747 C751 1.393 . S
C748 H737 0.950 . S
C748 C746 1.391 . S
C748 C749 1.400 . S
C749 C743 1.491 . S
C749 C748 1.400 . S
C749 C750 1.398 . S
C750 H738 0.950 . S
C750 C749 1.398 . S
C750 C751 1.391 . S
C751 H739 0.950 . S
C751 C747 1.393 . S
C751 C750 1.391 . S
H752 C760 0.950 . S
H753 C765 0.950 . S
H754 C762 0.950 . S
H755 C764 0.950 . S
H756 C766 0.950 . S
H757 C768 0.950 . S
H758 C770 0.950 . S
H759 C771 0.950 . S
C760 H752 0.950 . S
C760 C761 1.386 . S
C760 C762 1.391 . S
C761 C760 1.386 . S
C761 C765 1.393 . S
C762 H754 0.950 . S
C762 C760 1.391 . S
C762 C763 1.400 . S
C763 C762 1.400 . S
C763 C764 1.398 . S
C763 C769 1.491 . S
C764 H755 0.950 . S
C764 C763 1.398 . S
C764 C765 1.391 . S
C765 H753 0.950 . S
C765 C761 1.393 . S
C765 C764 1.391 . S
C766 H756 0.950 . S
C766 C767 1.386 . S
C766 C768 1.391 . S
C767 C766 1.386 . S
C767 C771 1.393 . S
C768 H757 0.950 . S
C768 C766 1.391 . S
C768 C769 1.400 . S
C769 C763 1.491 . S
C769 C768 1.400 . S
C769 C770 1.398 . S
C770 H758 0.950 . S
C770 C769 1.398 . S
C770 C771 1.391 . S
C771 H759 0.950 . S
C771 C767 1.393 . S
C771 C770 1.391 . S
H772 C780 0.950 . S
H773 C785 0.950 . S
H774 C782 0.950 . S
H775 C784 0.950 . S
H776 C786 0.950 . S
H777 C788 0.950 . S
H778 C790 0.950 . S
H779 C791 0.950 . S
C780 H772 0.950 . S
C780 C781 1.386 . S
C780 C782 1.391 . S
C781 C780 1.386 . S
C781 C785 1.393 . S
C782 H774 0.950 . S
C782 C780 1.391 . S
C782 C783 1.400 . S
C783 C782 1.400 . S
C783 C784 1.398 . S
C783 C789 1.491 . S
C784 H775 0.950 . S
C784 C783 1.398 . S
C784 C785 1.391 . S
C785 H773 0.950 . S
C785 C781 1.393 . S
C785 C784 1.391 . S
C786 H776 0.950 . S
C786 C787 1.386 . S
C786 C788 1.391 . S
C787 C786 1.386 . S
C787 C791 1.393 . S
C788 H777 0.950 . S
C788 C786 1.391 . S
C788 C789 1.400 . S
C789 C783 1.491 . S
C789 C788 1.400 . S
C789 C790 1.398 . S
C790 H778 0.950 . S
C790 C789 1.398 . S
C790 C791 1.391 . S
C791 H779 0.950 . S
C791 C787 1.393 . S
C791 C790 1.391 . S
H792 C800 0.950 . S
H793 C805 0.950 . S
H794 C802 0.950 . S
H795 C804 0.950 . S
H796 C806 0.950 . S
H797 C808 0.950 . S
H798 C810 0.950 . S
H799 C811 0.950 . S
C800 H792 0.950 . S
C800 C801 1.386 . S
C800 C802 1.391 . S
C801 C800 1.386 . S
C801 C805 1.393 . S
C802 H794 0.950 . S
C802 C800 1.391 . S
C802 C803 1.400 . S
C803 C802 1.400 . S
C803 C804 1.398 . S
C803 C809 1.491 . S
C804 H795 0.950 . S
C804 C803 1.398 . S
C804 C805 1.391 . S
C805 H793 0.950 . S
C805 C801 1.393 . S
C805 C804 1.391 . S
C806 H796 0.950 . S
C806 C807 1.386 . S
C806 C808 1.391 . S
C807 C806 1.386 . S
C807 C811 1.393 . S
C808 H797 0.950 . S
C808 C806 1.391 . S
C808 C809 1.400 . S
C809 C803 1.491 . S
C809 C808 1.400 . S
C809 C810 1.398 . S
C810 H798 0.950 . S
C810 C809 1.398 . S
C810 C811 1.391 . S
C811 H799 0.950 . S
C811 C807 1.393 . S
C811 C810 1.391 . S
H812 C820 0.950 . S
H813 C825 0.950 . S
H814 C822 0.950 . S
H815 C824 0.950 . S
H816 C826 0.950 . S
H817 C828 0.950 . S
H818 C830 0.950 . S
H819 C831 0.950 . S
C820 H812 0.950 . S
C820 C821 1.386 . S
C820 C822 1.391 . S
C821 C820 1.386 . S
C821 C825 1.393 . S
C822 H814 0.950 . S
C822 C820 1.391 . S
C822 C823 1.400 . S
C823 C822 1.400 . S
C823 C824 1.398 . S
C823 C829 1.491 . S
C824 H815 0.950 . S
C824 C823 1.398 . S
C824 C825 1.391 . S
C825 H813 0.950 . S
C825 C821 1.393 . S
C825 C824 1.391 . S
C826 H816 0.950 . S
C826 C827 1.386 . S
C826 C828 1.391 . S
C827 C826 1.386 . S
C827 C831 1.393 . S
C828 H817 0.950 . S
C828 C826 1.391 . S
C828 C829 1.400 . S
C829 C823 1.491 . S
C829 C828 1.400 . S
C829 C830 1.398 . S
C830 H818 0.950 . S
C830 C829 1.398 . S
C830 C831 1.391 . S
C831 H819 0.950 . S
C831 C827 1.393 . S
C831 C830 1.391 . S
H832 C840 0.950 . S
H833 C845 0.950 . S
H834 C842 0.950 . S
H835 C844 0.950 . S
H836 C846 0.950 . S
H837 C848 0.950 . S
H838 C850 0.950 . S
H839 C851 0.950 . S
C840 H832 0.950 . S
C840 C841 1.386 . S
C840 C842 1.391 . S
C841 C840 1.386 . S
C841 C845 1.393 . S
C842 H834 0.950 . S
C842 C840 1.391 . S
C842 C843 1.400 . S
C843 C842 1.400 . S
C843 C844 1.398 . S
C843 C849 1.491 . S
C844 H835 0.950 . S
C844 C843 1.398 . S
C844 C845 1.391 . S
C845 H833 0.950 . S
C845 C841 1.393 . S
C845 C844 1.391 . S
C846 H836 0.950 . S
C846 C847 1.386 . S
C846 C848 1.391 . S
C847 C846 1.386 . S
C847 C851 1.393 . S
C848 H837 0.950 . S
C848 C846 1.391 . S
C848 C849 1.400 . S
C849 C843 1.491 . S
C849 C848 1.400 . S
C849 C850 1.398 . S
C850 H838 0.950 . S
C850 C849 1.398 . S
C850 C851 1.391 . S
C851 H839 0.950 . S
C851 C847 1.393 . S
C851 C850 1.391 . S
H852 C860 0.950 . S
H853 C865 0.950 . S
H854 C862 0.950 . S
H855 C864 0.950 . S
H856 C866 0.950 . S
H857 C868 0.950 . S
H858 C870 0.950 . S
H859 C871 0.950 . S
C860 H852 0.950 . S
C860 C861 1.386 . S
C860 C862 1.391 . S
C861 C860 1.386 . S
C861 C865 1.393 . S
C862 H854 0.950 . S
C862 C860 1.391 . S
C862 C863 1.400 . S
C863 C862 1.400 . S
C863 C864 1.398 . S
C863 C869 1.491 . S
C864 H855 0.950 . S
C864 C863 1.398 . S
C864 C865 1.391 . S
C865 H853 0.950 . S
C865 C861 1.393 . S
C865 C864 1.391 . S
C866 H856 0.950 . S
C866 C867 1.386 . S
C866 C868 1.391 . S
C867 C866 1.386 . S
C867 C871 1.393 . S
C868 H857 0.950 . S
C868 C866 1.391 . S
C868 C869 1.400 . S
C869 C863 1.491 . S
C869 C868 1.400 . S
C869 C870 1.398 . S
C870 H858 0.950 . S
C870 C869 1.398 . S
C870 C871 1.391 . S
C871 H859 0.950 . S
C871 C867 1.393 . S
C871 C870 1.391 . S
H872 C880 0.950 . S
H873 C885 0.950 . S
H874 C882 0.950 . S
H875 C884 0.950 . S
H876 C886 0.950 . S
H877 C888 0.950 . S
H878 C890 0.950 . S
H879 C891 0.950 . S
C880 H872 0.950 . S
C880 C881 1.386 . S
C880 C882 1.391 . S
C881 C880 1.386 . S
C881 C885 1.393 . S
C882 H874 0.950 . S
C882 C880 1.391 . S
C882 C883 1.400 . S
C883 C882 1.400 . S
C883 C884 1.398 . S
C883 C889 1.491 . S
C884 H875 0.950 . S
C884 C883 1.398 . S
C884 C885 1.391 . S
C885 H873 0.950 . S
C885 C881 1.393 . S
C885 C884 1.391 . S
C886 H876 0.950 . S
C886 C887 1.386 . S
C886 C888 1.391 . S
C887 C886 1.386 . S
C887 C891 1.393 . S
C888 H877 0.950 . S
C888 C886 1.391 . S
C888 C889 1.400 . S
C889 C883 1.491 . S
C889 C888 1.400 . S
C889 C890 1.398 . S
C890 H878 0.950 . S
C890 C889 1.398 . S
C890 C891 1.391 . S
C891 H879 0.950 . S
C891 C887 1.393 . S
C891 C890 1.391 . S
H892 C900 0.950 . S
H893 C905 0.950 . S
H894 C902 0.950 . S
H895 C904 0.950 . S
H896 C906 0.950 . S
H897 C908 0.950 . S
H898 C910 0.950 . S
H899 C911 0.950 . S
C900 H892 0.950 . S
C900 C901 1.386 . S
C900 C902 1.391 . S
C901 C900 1.386 . S
C901 C905 1.393 . S
C902 H894 0.950 . S
C902 C900 1.391 . S
C902 C903 1.400 . S
C903 C902 1.400 . S
C903 C904 1.398 . S
C903 C909 1.491 . S
C904 H895 0.950 . S
C904 C903 1.398 . S
C904 C905 1.391 . S
C905 H893 0.950 . S
C905 C901 1.393 . S
C905 C904 1.391 . S
C906 H896 0.950 . S
C906 C907 1.386 . S
C906 C908 1.391 . S
C907 C906 1.386 . S
C907 C911 1.393 . S
C908 H897 0.950 . S
C908 C906 1.391 . S
C908 C909 1.400 . S
C909 C903 1.491 . S
C909 C908 1.400 . S
C909 C910 1.398 . S
C910 H898 0.950 . S
C910 C909 1.398 . S
C910 C911 1.391 . S
C911 H899 0.950 . S
C911 C907 1.393 . S
C911 C910 1.391 . S
C441 C14 1.434 . S
C447 C184 1.517 . S
C461 C40 1.255 . S
C467 C148 1.260 . S
C481 C194 1.336 . S
C487 C86 1.334 . S
C501 C112 1.389 . S
C507 C158 1.288 . S
C521 C255 1.353 . S
C527 C76 1.359 . S
C541 C218 1.573 . S
C547 C122 1.470 . S
C561 C4 1.346 . S
C567 C254 1.337 . S
C581 C219 1.451 . S
C587 C50 1.372 . S
C601 C327 1.411 . S
C607 C291 1.412 . S
C621 C290 1.330 . S
C627 C398 1.322 . S
C641 C326 1.389 . S
C647 C362 1.383 . S
C661 C363 1.510 . S
C667 C399 1.512 . S
C681 C410 1.435 . S
C687 C220 1.524 . S
C701 C292 1.259 . S
C707 C256 1.253 . S
C721 C230 1.338 . S
C727 C338 1.332 . S
C741 C266 1.317 . S
C747 C364 1.391 . S
C761 C147 1.361 . S
C767 C328 1.365 . S
C781 C182 1.566 . S
C787 C374 1.466 . S
C801 C400 1.346 . S
C807 C146 1.339 . S
C821 C302 1.350 . S
C827 C183 1.445 . S
C841 C39 1.404 . S
C847 C75 1.402 . S
C861 C2 1.330 . S
C867 C38 1.321 . S
C881 C74 1.389 . S
C887 C110 1.380 . S
C901 C3 1.507 . S
C907 C111 1.506 . S
