# Generated by pormake.
# Topology umh, (4)-cn, num edge types: 1
# Building blocks:
#     Node 0, Type 0, BuildingBlock: MUDLON_clean_sbu_0, # of connection points: 4
#     Node 1, Type 0, BuildingBlock: MUDLON_clean_sbu_0, # of connection points: 4
#     Node 2, Type 0, BuildingBlock: MUDLON_clean_sbu_0, # of connection points: 4
#     Node 3, Type 0, BuildingBlock: MUDLON_clean_sbu_0, # of connection points: 4
#     Node 4, Type 0, BuildingBlock: MUDLON_clean_sbu_0, # of connection points: 4
#     Node 5, Type 0, BuildingBlock: MUDLON_clean_sbu_0, # of connection points: 4
#     Node 6, Type 0, BuildingBlock: MUDLON_clean_sbu_0, # of connection points: 4
#     Node 7, Type 0, BuildingBlock: MUDLON_clean_sbu_0, # of connection points: 4
#     Node 8, Type 0, BuildingBlock: MUDLON_clean_sbu_0, # of connection points: 4
#     Node 9, Type 0, BuildingBlock: MUDLON_clean_sbu_0, # of connection points: 4
#     Node 10, Type 0, BuildingBlock: MUDLON_clean_sbu_0, # of connection points: 4
#     Node 11, Type 0, BuildingBlock: MUDLON_clean_sbu_0, # of connection points: 4
#     Node 12, Type 0, BuildingBlock: MUDLON_clean_sbu_0, # of connection points: 4
#     Node 13, Type 0, BuildingBlock: MUDLON_clean_sbu_0, # of connection points: 4
#     Node 14, Type 0, BuildingBlock: MUDLON_clean_sbu_0, # of connection points: 4
#     Node 15, Type 0, BuildingBlock: MUDLON_clean_sbu_0, # of connection points: 4
#     Edge 16, Type (0, 0), BuildingBlock: XIVTED_clean_linker_0, # of connection points: 2
#     Edge 17, Type (0, 0), BuildingBlock: XIVTED_clean_linker_0, # of connection points: 2
#     Edge 18, Type (0, 0), BuildingBlock: XIVTED_clean_linker_0, # of connection points: 2
#     Edge 19, Type (0, 0), BuildingBlock: XIVTED_clean_linker_0, # of connection points: 2
#     Edge 20, Type (0, 0), BuildingBlock: XIVTED_clean_linker_0, # of connection points: 2
#     Edge 21, Type (0, 0), BuildingBlock: XIVTED_clean_linker_0, # of connection points: 2
#     Edge 22, Type (0, 0), BuildingBlock: XIVTED_clean_linker_0, # of connection points: 2
#     Edge 23, Type (0, 0), BuildingBlock: XIVTED_clean_linker_0, # of connection points: 2
#     Edge 24, Type (0, 0), BuildingBlock: XIVTED_clean_linker_0, # of connection points: 2
#     Edge 25, Type (0, 0), BuildingBlock: XIVTED_clean_linker_0, # of connection points: 2
#     Edge 26, Type (0, 0), BuildingBlock: XIVTED_clean_linker_0, # of connection points: 2
#     Edge 27, Type (0, 0), BuildingBlock: XIVTED_clean_linker_0, # of connection points: 2
#     Edge 28, Type (0, 0), BuildingBlock: XIVTED_clean_linker_0, # of connection points: 2
#     Edge 29, Type (0, 0), BuildingBlock: XIVTED_clean_linker_0, # of connection points: 2
#     Edge 30, Type (0, 0), BuildingBlock: XIVTED_clean_linker_0, # of connection points: 2
#     Edge 31, Type (0, 0), BuildingBlock: XIVTED_clean_linker_0, # of connection points: 2
#     Edge 32, Type (0, 0), BuildingBlock: XIVTED_clean_linker_0, # of connection points: 2
#     Edge 33, Type (0, 0), BuildingBlock: XIVTED_clean_linker_0, # of connection points: 2
#     Edge 34, Type (0, 0), BuildingBlock: XIVTED_clean_linker_0, # of connection points: 2
#     Edge 35, Type (0, 0), BuildingBlock: XIVTED_clean_linker_0, # of connection points: 2
#     Edge 36, Type (0, 0), BuildingBlock: XIVTED_clean_linker_0, # of connection points: 2
#     Edge 37, Type (0, 0), BuildingBlock: XIVTED_clean_linker_0, # of connection points: 2
#     Edge 38, Type (0, 0), BuildingBlock: XIVTED_clean_linker_0, # of connection points: 2
#     Edge 39, Type (0, 0), BuildingBlock: XIVTED_clean_linker_0, # of connection points: 2
#     Edge 40, Type (0, 0), BuildingBlock: XIVTED_clean_linker_0, # of connection points: 2
#     Edge 41, Type (0, 0), BuildingBlock: XIVTED_clean_linker_0, # of connection points: 2
#     Edge 42, Type (0, 0), BuildingBlock: XIVTED_clean_linker_0, # of connection points: 2
#     Edge 43, Type (0, 0), BuildingBlock: XIVTED_clean_linker_0, # of connection points: 2
#     Edge 44, Type (0, 0), BuildingBlock: XIVTED_clean_linker_0, # of connection points: 2
#     Edge 45, Type (0, 0), BuildingBlock: XIVTED_clean_linker_0, # of connection points: 2
#     Edge 46, Type (0, 0), BuildingBlock: XIVTED_clean_linker_0, # of connection points: 2
#     Edge 47, Type (0, 0), BuildingBlock: XIVTED_clean_linker_0, # of connection points: 2
# Relax obj value: 0.037
# Max RMSD: 0.081
# Mean RMSD: 0.081
data_MOF--net-umh--node1-MUDLON_clean_sbu_0--edge1-XIVTED_clean_linker_0
_symmetry_space_group_name_H-M    P1
_symmetry_Int_Tables_number       1
_symmetry_cell_setting            triclinic
loop_
_symmetry_equiv_pos_as_xyz
'x, y, z'
_cell_length_a     42.37092
_cell_length_b     42.569945
_cell_length_c     54.99525
_cell_angle_alpha  90.04389
_cell_angle_beta   89.951666
_cell_angle_gamma 89.974805
loop_
_atom_site_label
_atom_site_type_symbol
_atom_site_fract_x
_atom_site_fract_y
_atom_site_fract_z
_atom_type_partial_charge
Mg0 Mg 0.35896 0.10312 0.17919 0.0
C1 C 0.3668 0.12317 0.12756 0.0
O2 O 0.37182 0.14943 0.1395 0.0
C3 C 0.33211 0.06435 0.2196 0.0
O4 O 0.36085 0.06952 0.22761 0.0
C5 C 0.43029 0.09379 0.17865 0.0
O6 O 0.42782 0.11059 0.15872 0.0
O7 O 0.40584 0.08935 0.19162 0.0
O8 O 0.35948 0.0986 0.13954 0.0
O9 O 0.34393 0.15136 0.18682 0.0
C10 C 0.31865 0.15599 0.19889 0.0
O11 O 0.3045 0.13192 0.20903 0.0
O12 O 0.32506 0.07323 0.19816 0.0
Mg13 Mg 0.39382 0.34852 0.66905 0.0
C14 C 0.38874 0.37005 0.61869 0.0
O15 O 0.3762 0.3927 0.63177 0.0
C16 C 0.42446 0.32175 0.71348 0.0
O17 O 0.41689 0.35015 0.72083 0.0
C18 C 0.4376 0.39883 0.68269 0.0
O19 O 0.45581 0.37402 0.68035 0.0
O20 O 0.40803 0.3958 0.6795 0.0
O21 O 0.40036 0.34638 0.6297 0.0
O22 O 0.34445 0.33594 0.6735 0.0
C23 C 0.3349 0.32035 0.69181 0.0
O24 O 0.35366 0.31708 0.71062 0.0
O25 O 0.41929 0.31429 0.69138 0.0
Mg26 Mg 0.14371 0.40014 0.17067 0.0
C27 C 0.12531 0.41875 0.11856 0.0
O28 O 0.10763 0.43944 0.12994 0.0
C29 C 0.17087 0.43376 0.21261 0.0
O30 O 0.14316 0.42444 0.22055 0.0
C31 C 0.07125 0.40579 0.17261 0.0
O32 O 0.07246 0.38649 0.15397 0.0
O33 O 0.0967 0.41306 0.1835 0.0
O34 O 0.14404 0.40164 0.13087 0.0
O35 O 0.161 0.35356 0.17989 0.0
C36 C 0.18944 0.35041 0.17277 0.0
O37 O 0.20257 0.37377 0.16086 0.0
O38 O 0.17764 0.4293 0.19029 0.0
Mg39 Mg 0.09893 0.13814 0.67299 0.0
C40 C 0.07509 0.12226 0.62108 0.0
O41 O 0.05449 0.10461 0.63257 0.0
C42 C 0.06987 0.16514 0.717 0.0
O43 O 0.0789 0.13698 0.72386 0.0
C44 C 0.08847 0.06631 0.6748 0.0
O45 O 0.1053 0.06606 0.65473 0.0
O46 O 0.08441 0.09208 0.68608 0.0
O47 O 0.09348 0.13977 0.63336 0.0
O48 O 0.14749 0.15157 0.68075 0.0
C49 C 0.16397 0.16235 0.6633 0.0
O50 O 0.15306 0.15993 0.64105 0.0
O51 O 0.07313 0.1727 0.69471 0.0
Mg52 Mg 0.35675 0.39672 0.38593 0.0
C53 C 0.36139 0.37527 0.43697 0.0
O54 O 0.36802 0.34999 0.42424 0.0
C55 C 0.33256 0.42835 0.34202 0.0
O56 O 0.35942 0.416 0.33482 0.0
C57 C 0.42809 0.40569 0.38978 0.0
O58 O 0.42381 0.38985 0.41 0.0
O59 O 0.40483 0.40955 0.37547 0.0
O60 O 0.35415 0.40038 0.42563 0.0
O61 O 0.33992 0.34953 0.37758 0.0
C62 C 0.30992 0.34786 0.37853 0.0
O63 O 0.29388 0.37358 0.38325 0.0
O64 O 0.32519 0.42633 0.36443 0.0
Mg65 Mg 0.10298 0.3513 0.89256 0.0
C66 C 0.07774 0.36828 0.94351 0.0
O67 O 0.05815 0.3861 0.93117 0.0
C68 C 0.07371 0.32557 0.84802 0.0
O69 O 0.08332 0.35359 0.84132 0.0
C70 C 0.09504 0.42347 0.89099 0.0
O71 O 0.11174 0.42314 0.91111 0.0
O72 O 0.09045 0.3979 0.87957 0.0
O73 O 0.09607 0.34978 0.93202 0.0
O74 O 0.15148 0.33668 0.8868 0.0
C75 C 0.17038 0.33627 0.90473 0.0
O76 O 0.1619 0.35013 0.92507 0.0
O77 O 0.07685 0.31766 0.87025 0.0
Mg78 Mg 0.14001 0.09808 0.39349 0.0
C79 C 0.11728 0.08011 0.44382 0.0
O80 O 0.09464 0.06775 0.43062 0.0
C81 C 0.17178 0.08026 0.34885 0.0
O82 O 0.15126 0.10214 0.34297 0.0
C83 C 0.0863 0.0654 0.36709 0.0
O84 O 0.11025 0.04987 0.35788 0.0
O85 O 0.0916 0.08805 0.38167 0.0
O86 O 0.14103 0.09211 0.43308 0.0
O87 O 0.15695 0.1457 0.38734 0.0
C88 C 0.18664 0.1477 0.39062 0.0
O89 O 0.202 0.12249 0.39768 0.0
O90 O 0.17294 0.07118 0.37091 0.0
Mg91 Mg 0.39685 0.14235 0.8958 0.0
C92 C 0.40323 0.12092 0.94687 0.0
O93 O 0.39455 0.09536 0.93529 0.0
C94 C 0.41298 0.16931 0.84872 0.0
O95 O 0.39298 0.14652 0.844 0.0
C96 C 0.43166 0.08837 0.87302 0.0
O97 O 0.44903 0.11214 0.86581 0.0
O98 O 0.4066 0.09384 0.88508 0.0
O99 O 0.40844 0.14574 0.93454 0.0
O100 O 0.3483 0.15865 0.89228 0.0
C101 C 0.33265 0.16562 0.91129 0.0
O102 O 0.3439 0.15749 0.93261 0.0
O103 O 0.42124 0.17383 0.87072 0.0
Mg104 Mg 0.64682 0.90056 0.89464 0.0
C105 C 0.63641 0.88301 0.94558 0.0
O106 O 0.62562 0.8593 0.93272 0.0
C107 C 0.70414 0.92997 0.86722 0.0
O108 O 0.72157 0.91396 0.88255 0.0
C109 C 0.57518 0.91229 0.89682 0.0
O110 O 0.579 0.90612 0.92 0.0
O111 O 0.59852 0.90921 0.88241 0.0
O112 O 0.64835 0.90637 0.93432 0.0
O113 O 0.66533 0.85367 0.88798 0.0
C114 C 0.69033 0.84769 0.89994 0.0
O115 O 0.70083 0.86875 0.91541 0.0
O116 O 0.67435 0.93075 0.87022 0.0
Mg117 Mg 0.59891 0.64418 0.39217 0.0
C118 C 0.64567 0.69242 0.38643 0.0
O119 O 0.62178 0.70497 0.39821 0.0
C120 C 0.58895 0.57344 0.39523 0.0
O121 O 0.60162 0.57785 0.41675 0.0
C122 C 0.56263 0.66826 0.35055 0.0
O123 O 0.57304 0.64084 0.34304 0.0
O124 O 0.56718 0.67589 0.37268 0.0
O125 O 0.64403 0.6635 0.38057 0.0
O126 O 0.59927 0.64521 0.43217 0.0
C127 C 0.62639 0.64173 0.44185 0.0
O128 O 0.6511 0.63897 0.42757 0.0
O129 O 0.58716 0.59652 0.38061 0.0
Mg130 Mg 0.85584 0.59512 0.89858 0.0
C131 C 0.87575 0.57706 0.94952 0.0
O132 O 0.89972 0.56595 0.93703 0.0
C133 C 0.82942 0.57832 0.85139 0.0
O134 O 0.85192 0.5988 0.84701 0.0
C135 C 0.91053 0.56063 0.87658 0.0
O136 O 0.88676 0.54311 0.86949 0.0
O137 O 0.90489 0.58559 0.88856 0.0
O138 O 0.85206 0.58794 0.93801 0.0
O139 O 0.84055 0.6434 0.89347 0.0
C140 C 0.81066 0.64596 0.89206 0.0
O141 O 0.79335 0.62046 0.89374 0.0
O142 O 0.82495 0.56962 0.87331 0.0
Mg143 Mg 0.89468 0.85406 0.3893 0.0
C144 C 0.84 0.82256 0.36408 0.0
O145 O 0.86343 0.81072 0.35141 0.0
C146 C 0.90861 0.91827 0.36314 0.0
O147 O 0.89344 0.90712 0.34418 0.0
C148 C 0.93665 0.82674 0.34963 0.0
O149 O 0.93743 0.85645 0.34334 0.0
O150 O 0.92322 0.81923 0.36954 0.0
O151 O 0.84582 0.84381 0.37976 0.0
O152 O 0.89566 0.85072 0.42894 0.0
C153 C 0.87813 0.8709 0.43953 0.0
O154 O 0.86182 0.89049 0.42601 0.0
O155 O 0.91108 0.90171 0.38227 0.0
Mg156 Mg 0.64658 0.59917 0.67379 0.0
C157 C 0.66299 0.61149 0.62106 0.0
O158 O 0.68299 0.6307 0.63165 0.0
C159 C 0.67653 0.56369 0.71498 0.0
O160 O 0.64679 0.56384 0.72174 0.0
C161 C 0.57657 0.58294 0.67403 0.0
O162 O 0.57733 0.59722 0.65286 0.0
O163 O 0.60137 0.58242 0.68702 0.0
O164 O 0.64623 0.59347 0.63425 0.0
O165 O 0.65556 0.64884 0.67968 0.0
C166 C 0.67492 0.6575 0.69604 0.0
O167 O 0.68546 0.63664 0.71163 0.0
O168 O 0.68363 0.57466 0.69411 0.0
Mg169 Mg 0.89641 0.63965 0.17798 0.0
C170 C 0.84287 0.67731 0.19971 0.0
O171 O 0.86692 0.6908 0.21049 0.0
C172 C 0.90356 0.56777 0.17666 0.0
O173 O 0.884 0.57007 0.15821 0.0
C174 C 0.93248 0.66385 0.2203 0.0
O175 O 0.92433 0.63543 0.22715 0.0
O176 O 0.92626 0.67229 0.19858 0.0
O177 O 0.84779 0.65332 0.18635 0.0
O178 O 0.89873 0.64128 0.13818 0.0
C179 C 0.91784 0.62438 0.12598 0.0
O180 O 0.93984 0.60862 0.13757 0.0
O181 O 0.9104 0.59232 0.18875 0.0
Mg182 Mg 0.84877 0.90319 0.67234 0.0
C183 C 0.86231 0.88954 0.62179 0.0
O184 O 0.87855 0.86937 0.63484 0.0
C185 C 0.79383 0.93186 0.7013 0.0
O186 O 0.77672 0.91498 0.6863 0.0
C187 C 0.90854 0.92343 0.69844 0.0
O188 O 0.88794 0.93159 0.71517 0.0
O189 O 0.89893 0.90882 0.67969 0.0
O190 O 0.84529 0.90966 0.63294 0.0
O191 O 0.82961 0.85677 0.6796 0.0
C192 C 0.80571 0.84951 0.66677 0.0
O193 O 0.79651 0.86899 0.64968 0.0
O194 O 0.82345 0.93383 0.69774 0.0
Mg195 Mg 0.5983 0.85355 0.17819 0.0
C196 C 0.6473 0.80706 0.17956 0.0
O197 O 0.62329 0.79452 0.16796 0.0
C198 C 0.59004 0.92513 0.17677 0.0
O199 O 0.60495 0.92204 0.15597 0.0
C200 C 0.5648 0.82912 0.22126 0.0
O201 O 0.57542 0.85659 0.22843 0.0
O202 O 0.56856 0.82135 0.19906 0.0
O203 O 0.64486 0.83535 0.18689 0.0
O204 O 0.59522 0.85227 0.13839 0.0
C205 C 0.6198 0.86199 0.12731 0.0
O206 O 0.64443 0.87039 0.14028 0.0
O207 O 0.58629 0.90109 0.1902 0.0
H208 H 0.4091 0.17169 0.97768 0.0
H209 H 0.36409 0.07216 0.0968 0.0
H210 H 0.39348 0.0715 0.97757 0.0
H211 H 0.38209 0.17196 0.09749 0.0
H212 H 0.37528 0.07139 0.05311 0.0
H213 H 0.40087 0.17214 1.02179 0.0
C214 C 0.40431 0.14975 0.98693 0.0
C215 C 0.40191 0.12154 0.97384 0.0
C216 C 0.37676 0.09346 0.06283 0.0
C217 C 0.39206 0.12191 1.0243 0.0
C218 C 0.37025 0.09392 0.08778 0.0
C219 C 0.37209 0.12216 0.10088 0.0
C220 C 0.38516 0.12144 0.05085 0.0
C221 C 0.38034 0.14961 0.08819 0.0
C222 C 0.39944 0.15003 1.01212 0.0
C223 C 0.39546 0.09385 0.98684 0.0
N224 N 0.38655 0.14857 0.06394 0.0
N225 N 0.39062 0.09476 1.01126 0.0
H226 H 0.37893 0.32549 0.46514 0.0
H227 H 0.36956 0.4196 0.5909 0.0
H228 H 0.35252 0.42323 0.47008 0.0
H229 H 0.40326 0.32419 0.58504 0.0
H230 H 0.36302 0.42131 0.54688 0.0
H231 H 0.38704 0.32445 0.50898 0.0
C232 C 0.37471 0.34678 0.47544 0.0
C233 C 0.36498 0.37454 0.46381 0.0
C234 C 0.37196 0.40003 0.55516 0.0
C235 C 0.37441 0.37344 0.5143 0.0
C236 C 0.37575 0.39899 0.58035 0.0
C237 C 0.38692 0.37164 0.59177 0.0
C238 C 0.37924 0.37346 0.54112 0.0
C239 C 0.39461 0.34578 0.57706 0.0
C240 C 0.37947 0.34615 0.50053 0.0
C241 C 0.35997 0.40131 0.47822 0.0
N242 N 0.39048 0.34728 0.55253 0.0
N243 N 0.36474 0.40009 0.5027 0.0
H244 H 0.04633 0.40957 0.97324 0.0
H245 H 0.15532 0.37543 0.08953 0.0
H246 H 0.12044 0.33997 0.97407 0.0
H247 H 0.08274 0.44657 0.0878 0.0
H248 H 0.14284 0.36192 0.04738 0.0
H249 H 0.05834 0.42227 1.01557 0.0
C250 C 0.06491 0.39669 0.98237 0.0
C251 C 0.08238 0.37363 0.96998 0.0
C252 C 0.12972 0.38057 0.05619 0.0
C253 C 0.09657 0.38841 1.01854 0.0
C254 C 0.13694 0.38841 0.08025 0.0
C255 C 0.12009 0.41223 0.09231 0.0
C256 C 0.10539 0.39656 0.044 0.0
C257 C 0.09643 0.4281 0.0793 0.0
C258 C 0.07189 0.40411 1.00655 0.0
C259 C 0.10629 0.35788 0.98283 0.0
N260 N 0.08974 0.41993 0.05594 0.0
N261 N 0.11274 0.36564 1.00632 0.0
H262 H 0.1204 0.14971 0.59231 0.0
H263 H 0.07041 0.05536 0.47216 0.0
H264 H 0.04226 0.0848 0.58931 0.0
H265 H 0.15299 0.11444 0.47617 0.0
H266 H 0.05962 0.0663 0.51492 0.0
H267 H 0.13173 0.13857 0.54956 0.0
C268 C 0.10541 0.13333 0.58264 0.0
C269 C 0.08029 0.11818 0.59452 0.0
C270 C 0.08021 0.07677 0.50653 0.0
C271 C 0.09341 0.10507 0.54547 0.0
C272 C 0.08648 0.07044 0.48207 0.0
C273 C 0.11267 0.084 0.47046 0.0
C274 C 0.10015 0.097 0.5196 0.0
C275 C 0.13258 0.10338 0.48434 0.0
C276 C 0.11204 0.12685 0.55822 0.0
C277 C 0.06184 0.09708 0.58097 0.0
N278 N 0.12581 0.10943 0.50811 0.0
N279 N 0.0688 0.09114 0.55725 0.0
H280 H 0.57816 0.83915 0.09312 0.0
H281 H 0.6659 0.92013 0.97991 0.0
H282 H 0.66342 0.89379 0.10034 0.0
H283 H 0.59942 0.84396 0.97249 0.0
H284 H 0.66081 0.91616 1.02434 0.0
H285 H 0.58114 0.84587 0.04884 0.0
C286 C 0.59744 0.85258 0.08543 0.0
C287 C 0.62066 0.86574 0.10048 0.0
C288 C 0.64733 0.90038 1.01292 0.0
C289 C 0.62407 0.8738 0.04991 0.0
C290 C 0.65016 0.90272 0.98759 0.0
C291 C 0.63323 0.88224 0.97245 0.0
C292 C 0.62711 0.8777 1.02313 0.0
C293 C 0.61315 0.86009 0.98342 0.0
C294 C 0.59917 0.85638 0.06017 0.0
C295 C 0.64511 0.88299 0.08947 0.0
N296 N 0.61062 0.85845 1.00801 0.0
N297 N 0.64613 0.88658 0.06492 0.0
H298 H 0.61297 0.58878 0.5944 0.0
H299 H 0.68058 0.65032 0.46737 0.0
H300 H 0.70033 0.64 0.58709 0.0
H301 H 0.58251 0.62612 0.47704 0.0
H302 H 0.68938 0.64206 0.51067 0.0
H303 H 0.60285 0.59691 0.55089 0.0
C304 C 0.63018 0.60144 0.58362 0.0
C305 C 0.6576 0.61368 0.59444 0.0
C306 C 0.66587 0.63868 0.50342 0.0
C307 C 0.64606 0.62315 0.54472 0.0
C308 C 0.6608 0.64338 0.47865 0.0
C309 C 0.63072 0.63895 0.46853 0.0
C310 C 0.64082 0.629 0.51834 0.0
C311 C 0.60602 0.63 0.48411 0.0
C312 C 0.62424 0.60628 0.55885 0.0
C313 C 0.67888 0.63014 0.5796 0.0
N314 N 0.61166 0.62507 0.50824 0.0
N315 N 0.67271 0.6343 0.55556 0.0
H316 H 0.83699 0.61004 0.98077 0.0
H317 H 0.95315 0.58844 0.09484 0.0
H318 H 0.92256 0.55504 0.97913 0.0
H319 H 0.86981 0.64672 0.09701 0.0
H320 H 0.94155 0.57551 0.05256 0.0
H321 H 0.84702 0.62214 1.02369 0.0
C322 C 0.85765 0.60017 0.98947 0.0
C323 C 0.87898 0.58152 0.97623 0.0
C324 C 0.92582 0.59123 0.06221 0.0
C325 C 0.89083 0.59563 1.02531 0.0
C326 C 0.93253 0.59875 0.0864 0.0
C327 C 0.91249 0.61878 0.0996 0.0
C328 C 0.89878 0.60369 0.05099 0.0
C329 C 0.88602 0.63127 0.08758 0.0
C330 C 0.86349 0.60728 1.01395 0.0
C331 C 0.90547 0.56958 0.9885 0.0
N332 N 0.87989 0.62346 0.06402 0.0
N333 N 0.91067 0.57693 1.01223 0.0
H334 H 0.90861 0.83504 0.47397 0.0
H335 H 0.83131 0.92588 0.58768 0.0
H336 H 0.84272 0.91179 0.46652 0.0
H337 H 0.89726 0.84906 0.59436 0.0
H338 H 0.83499 0.92134 0.54325 0.0
H339 H 0.90457 0.83988 0.51825 0.0
C340 C 0.89329 0.85287 0.48161 0.0
C341 C 0.87601 0.87301 0.46645 0.0
C342 C 0.84865 0.9055 0.55448 0.0
C343 C 0.87125 0.87876 0.51719 0.0
C344 C 0.84656 0.90812 0.57985 0.0
C345 C 0.86398 0.88786 0.59483 0.0
C346 C 0.86831 0.88246 0.54404 0.0
C347 C 0.88335 0.86524 0.58362 0.0
C348 C 0.89098 0.85566 0.50692 0.0
C349 C 0.85652 0.89572 0.47745 0.0
N350 N 0.88496 0.86317 0.559 0.0
N351 N 0.85469 0.89797 0.50208 0.0
H352 H 0.17268 0.29842 0.19977 0.0
H353 H 0.33682 0.20987 0.1752 0.0
H354 H 0.24953 0.3377 0.15814 0.0
H355 H 0.26282 0.17208 0.22056 0.0
H356 H 0.30588 0.25792 0.17024 0.0
H357 H 0.20556 0.25233 0.20849 0.0
C358 C 0.19639 0.29735 0.19244 0.0
C359 C 0.20829 0.32193 0.17814 0.0
C360 C 0.2965 0.23921 0.18144 0.0
C361 C 0.24607 0.26943 0.1881 0.0
C362 C 0.31427 0.2118 0.18436 0.0
C363 C 0.30237 0.1868 0.19821 0.0
C364 C 0.26655 0.24161 0.19234 0.0
C365 C 0.27291 0.19067 0.20962 0.0
C366 C 0.2152 0.27111 0.19749 0.0
C367 C 0.23927 0.31934 0.16921 0.0
N368 N 0.25592 0.21741 0.20628 0.0
N369 N 0.257 0.2936 0.17429 0.0
H370 H 0.30785 0.2829 0.72667 0.0
H371 H 0.20075 0.19256 0.63002 0.0
H372 H 0.29831 0.31058 0.65151 0.0
H373 H 0.18925 0.17992 0.70742 0.0
H374 H 0.24073 0.23232 0.63783 0.0
H375 H 0.26686 0.24315 0.72045 0.0
C376 C 0.29685 0.28096 0.70897 0.0
C377 C 0.30666 0.30007 0.68956 0.0
C378 C 0.22955 0.22082 0.65313 0.0
C379 C 0.26029 0.25421 0.68224 0.0
C380 C 0.20686 0.19787 0.6487 0.0
C381 C 0.19143 0.18294 0.6681 0.0
C382 C 0.23715 0.22891 0.67717 0.0
C383 C 0.2005 0.19085 0.69191 0.0
C384 C 0.27357 0.25815 0.70542 0.0
C385 C 0.29158 0.29643 0.66702 0.0
N386 N 0.22273 0.21339 0.69579 0.0
N387 N 0.26942 0.27374 0.66393 0.0
H388 H 0.33422 0.28784 0.37901 0.0
H389 H 0.16332 0.2062 0.37894 0.0
H390 H 0.24656 0.33908 0.37377 0.0
H391 H 0.25033 0.15646 0.39256 0.0
H392 H 0.19374 0.25459 0.37305 0.0
H393 H 0.30419 0.23861 0.37965 0.0
C394 C 0.30872 0.28872 0.37773 0.0
C395 C 0.29289 0.31761 0.37652 0.0
C396 C 0.20614 0.23303 0.37727 0.0
C397 C 0.25837 0.26151 0.37737 0.0
C398 C 0.18877 0.20543 0.38064 0.0
C399 C 0.20424 0.17728 0.38642 0.0
C400 C 0.23922 0.23243 0.37961 0.0
C401 C 0.23732 0.17764 0.3883 0.0
C402 C 0.29156 0.26065 0.37821 0.0
C403 C 0.25978 0.31737 0.37495 0.0
N404 N 0.25366 0.20474 0.38496 0.0
N405 N 0.24365 0.28982 0.37553 0.0
H406 H 0.2967 0.18775 0.94877 0.0
H407 H 0.21238 0.32542 0.94147 0.0
H408 H 0.30857 0.1957 0.87102 0.0
H409 H 0.1903 0.29698 0.86804 0.0
H410 H 0.25157 0.28365 0.94363 0.0
H411 H 0.25866 0.23054 0.94758 0.0
C412 C 0.29124 0.19842 0.9314 0.0
C413 C 0.30618 0.1883 0.91 0.0
C414 C 0.23793 0.28627 0.92713 0.0
C415 C 0.26332 0.23831 0.90864 0.0
C416 C 0.21586 0.31049 0.92573 0.0
C417 C 0.19765 0.31448 0.90466 0.0
C418 C 0.24178 0.26568 0.90735 0.0
C419 C 0.20359 0.29461 0.88474 0.0
C420 C 0.26984 0.22327 0.9308 0.0
C421 C 0.29778 0.20285 0.888 0.0
N422 N 0.22507 0.27095 0.88661 0.0
N423 N 0.27693 0.22721 0.88789 0.0
H424 H 0.67203 0.79412 0.87576 0.0
H425 H 0.83563 0.70467 0.89993 0.0
H426 H 0.74988 0.83462 0.91548 0.0
H427 H 0.7497 0.65731 0.87919 0.0
H428 H 0.80703 0.75478 0.89942 0.0
H429 H 0.7027 0.7456 0.87092 0.0
C430 C 0.69556 0.79284 0.88338 0.0
C431 C 0.70831 0.81832 0.89622 0.0
C432 C 0.79453 0.73339 0.89486 0.0
C433 C 0.74354 0.76321 0.89058 0.0
C434 C 0.81087 0.70486 0.89504 0.0
C435 C 0.79494 0.6768 0.88982 0.0
C436 C 0.76217 0.73381 0.88918 0.0
C437 C 0.76283 0.67836 0.8836 0.0
C438 C 0.71303 0.76519 0.88064 0.0
C439 C 0.73897 0.81545 0.90566 0.0
N440 N 0.74749 0.70636 0.88351 0.0
N441 N 0.75552 0.78842 0.90265 0.0
H442 H 0.69853 0.67679 0.35972 0.0
H443 H 0.78611 0.83895 0.38877 0.0
H444 H 0.65619 0.753 0.40005 0.0
H445 H 0.82297 0.76994 0.33865 0.0
H446 H 0.73762 0.80822 0.39214 0.0
H447 H 0.74426 0.71048 0.3513 0.0
C448 C 0.69882 0.70055 0.36676 0.0
C449 C 0.67355 0.71201 0.38069 0.0
C450 C 0.75619 0.79994 0.38021 0.0
C451 C 0.72563 0.75063 0.37116 0.0
C452 C 0.78386 0.81757 0.37822 0.0
C453 C 0.80876 0.80694 0.36354 0.0
C454 C 0.75348 0.77131 0.36761 0.0
C455 C 0.80446 0.77902 0.35027 0.0
C456 C 0.72484 0.71981 0.36189 0.0
C457 C 0.67512 0.74307 0.38928 0.0
N458 N 0.77752 0.76201 0.35283 0.0
N459 N 0.70072 0.76117 0.38448 0.0
H460 H 0.81355 0.80637 0.70355 0.0
H461 H 0.6633 0.70461 0.6633 0.0
H462 H 0.7538 0.82869 0.64239 0.0
H463 H 0.72224 0.68102 0.72465 0.0
H464 H 0.69437 0.75219 0.65717 0.0
H465 H 0.77945 0.76142 0.71273 0.0
C466 C 0.79338 0.80175 0.692 0.0
C467 C 0.78659 0.82128 0.67213 0.0
C468 C 0.70038 0.73675 0.67211 0.0
C469 C 0.74735 0.77015 0.68265 0.0
C470 C 0.68249 0.70963 0.6757 0.0
C471 C 0.69027 0.68865 0.69443 0.0
C472 C 0.72633 0.74293 0.68728 0.0
C473 C 0.71545 0.69644 0.70992 0.0
C474 C 0.77384 0.77619 0.69731 0.0
C475 C 0.76003 0.81428 0.65787 0.0
N476 N 0.73274 0.72281 0.70587 0.0
N477 N 0.74144 0.78934 0.6634 0.0
H478 H 0.7887 0.66064 0.1754 0.0
H479 H 0.70017 0.82231 0.20626 0.0
H480 H 0.82639 0.73087 0.22405 0.0
H481 H 0.65926 0.74774 0.16339 0.0
H482 H 0.74643 0.78898 0.21356 0.0
H483 H 0.74024 0.69153 0.17194 0.0
C484 C 0.78666 0.68233 0.18559 0.0
C485 C 0.81177 0.69324 0.1999 0.0
C486 C 0.72726 0.77993 0.20261 0.0
C487 C 0.75652 0.72899 0.19577 0.0
C488 C 0.70092 0.799 0.19837 0.0
C489 C 0.67584 0.78787 0.18414 0.0
C490 C 0.72854 0.74959 0.19246 0.0
C491 C 0.67802 0.75738 0.17446 0.0
C492 C 0.75902 0.70006 0.18354 0.0
C493 C 0.80774 0.72158 0.21268 0.0
N494 N 0.70389 0.7394 0.17873 0.0
N495 N 0.7808 0.73858 0.21015 0.0
H496 H 0.2294 0.051 0.35462 0.0
H497 H 0.268 0.06312 0.2123 0.0
H498 H 0.16365 0.08239 0.29992 0.0
H499 H 0.33886 0.04615 0.2671 0.0
H500 H 0.22722 0.05877 0.24353 0.0
H501 H 0.26742 0.03833 0.32225 0.0
C502 C 0.22278 0.05471 0.33582 0.0
C503 C 0.19351 0.06813 0.32996 0.0
C504 C 0.25168 0.05557 0.24868 0.0
C505 C 0.23669 0.05378 0.29295 0.0
C506 C 0.27499 0.05788 0.2308 0.0
C507 C 0.30699 0.05547 0.23711 0.0
C508 C 0.26035 0.05087 0.27309 0.0
C509 C 0.31453 0.04857 0.26142 0.0
C510 C 0.24449 0.04761 0.31737 0.0
C511 C 0.18613 0.07251 0.30531 0.0
N512 N 0.29144 0.04691 0.27858 0.0
N513 N 0.20761 0.06558 0.28778 0.0
H514 H 0.42533 0.25752 0.70828 0.0
H515 H 0.44097 0.22761 0.85167 0.0
H516 H 0.44188 0.33113 0.76074 0.0
H517 H 0.40877 0.1583 0.80006 0.0
H518 H 0.45175 0.26359 0.8178 0.0
H519 H 0.43 0.21869 0.74087 0.0
C520 C 0.43053 0.2655 0.72655 0.0
C521 C 0.43281 0.29766 0.73183 0.0
C522 C 0.44265 0.24035 0.81391 0.0
C523 C 0.43787 0.25337 0.76928 0.0
C524 C 0.43661 0.2198 0.83323 0.0
C525 C 0.42357 0.19007 0.82871 0.0
C526 C 0.43579 0.23099 0.78995 0.0
C527 C 0.41841 0.18116 0.80444 0.0
C528 C 0.43301 0.24332 0.74519 0.0
C529 C 0.43956 0.3066 0.75588 0.0
N530 N 0.42431 0.20157 0.78603 0.0
N531 N 0.44153 0.28463 0.77373 0.0
H532 H 0.23483 0.44108 0.20554 0.0
H533 H 0.27004 0.44409 0.3484 0.0
H534 H 0.1626 0.4476 0.26069 0.0
H535 H 0.3423 0.43669 0.29333 0.0
H536 H 0.231 0.45357 0.31643 0.0
H537 H 0.27501 0.44772 0.23712 0.0
C538 C 0.22737 0.44449 0.2242 0.0
C539 C 0.19527 0.4434 0.23047 0.0
C540 C 0.25548 0.45028 0.31136 0.0
C541 C 0.24116 0.45061 0.2668 0.0
C542 C 0.27781 0.44499 0.32965 0.0
C543 C 0.30947 0.43922 0.32356 0.0
C544 C 0.26482 0.44971 0.2868 0.0
C545 C 0.31811 0.44066 0.2989 0.0
C546 C 0.25034 0.44813 0.24227 0.0
C547 C 0.18706 0.44792 0.255 0.0
N548 N 0.29591 0.44541 0.28145 0.0
N549 N 0.20981 0.45095 0.27226 0.0
H550 H 0.05787 0.15462 0.76508 0.0
H551 H 0.06256 0.33671 0.79989 0.0
H552 H 0.06263 0.22921 0.7121 0.0
H553 H 0.06354 0.2619 0.85281 0.0
H554 H 0.05452 0.29804 0.76775 0.0
H555 H 0.05179 0.19368 0.7972 0.0
C556 C 0.05723 0.17924 0.76012 0.0
C557 C 0.06113 0.18862 0.73581 0.0
C558 C 0.05614 0.29006 0.7864 0.0
C559 C 0.0544 0.23364 0.77273 0.0
C560 C 0.0607 0.31216 0.80483 0.0
C561 C 0.06409 0.30255 0.82914 0.0
C562 C 0.05506 0.25798 0.79219 0.0
C563 C 0.06121 0.27041 0.83435 0.0
C564 C 0.05381 0.20156 0.77854 0.0
C565 C 0.05984 0.22086 0.73056 0.0
N566 N 0.0572 0.24926 0.81601 0.0
N567 N 0.05694 0.24221 0.7489 0.0
H568 H 0.76676 0.93504 0.85498 0.0
H569 H 0.73134 0.93651 0.71372 0.0
H570 H 0.67322 0.94879 0.82584 0.0
H571 H 0.82491 0.94989 0.74285 0.0
H572 H 0.7095 0.94424 0.75446 0.0
H573 H 0.78869 0.94371 0.81437 0.0
C574 C 0.75084 0.9404 0.84015 0.0
C575 C 0.71804 0.94088 0.84387 0.0
C576 C 0.73478 0.946 0.7519 0.0
C577 C 0.74302 0.9503 0.79714 0.0
C578 C 0.74728 0.94161 0.7286 0.0
C579 C 0.78005 0.94229 0.72482 0.0
C580 C 0.75519 0.95059 0.77172 0.0
C581 C 0.79951 0.94907 0.74485 0.0
C582 C 0.7634 0.94534 0.81693 0.0
C583 C 0.69863 0.94805 0.8239 0.0
N584 N 0.78684 0.95243 0.76746 0.0
N585 N 0.71136 0.95196 0.80137 0.0
H586 H 0.54786 0.65779 0.30291 0.0
H587 H 0.55188 0.84009 0.26918 0.0
H588 H 0.55414 0.73206 0.35613 0.0
H589 H 0.55394 0.76563 0.2159 0.0
H590 H 0.54309 0.80121 0.30102 0.0
H591 H 0.54033 0.69704 0.27114 0.0
C592 C 0.54715 0.68236 0.30801 0.0
C593 C 0.55202 0.69162 0.33226 0.0
C594 C 0.54506 0.79336 0.28235 0.0
C595 C 0.54369 0.73685 0.29575 0.0
C596 C 0.55003 0.81557 0.26409 0.0
C597 C 0.55404 0.80612 0.23979 0.0
C598 C 0.54419 0.76131 0.27639 0.0
C599 C 0.55113 0.77402 0.23436 0.0
C600 C 0.54293 0.70479 0.28979 0.0
C601 C 0.5506 0.72381 0.33771 0.0
N602 N 0.54677 0.75275 0.25255 0.0
N603 N 0.54697 0.74527 0.31956 0.0
H604 H 0.77148 0.54876 0.85354 0.0
H605 H 0.74072 0.57158 0.71077 0.0
H606 H 0.84028 0.58487 0.80289 0.0
H607 H 0.66892 0.54133 0.7613 0.0
H608 H 0.7797 0.56867 0.74344 0.0
H609 H 0.73575 0.53836 0.8193 0.0
C610 C 0.77924 0.55407 0.83523 0.0
C611 C 0.80878 0.568 0.83112 0.0
C612 C 0.75548 0.56231 0.74733 0.0
C613 C 0.76808 0.55632 0.79191 0.0
C614 C 0.73322 0.56382 0.72861 0.0
C615 C 0.70139 0.55701 0.73329 0.0
C616 C 0.74591 0.55401 0.77098 0.0
C617 C 0.69313 0.54709 0.75685 0.0
C618 C 0.75882 0.54825 0.8157 0.0
C619 C 0.81759 0.57445 0.80699 0.0
N620 N 0.71514 0.54621 0.77484 0.0
N621 N 0.79731 0.56878 0.7884 0.0
H622 H 0.95704 0.8353 0.30283 0.0
H623 H 0.9441 0.65312 0.26844 0.0
H624 H 0.93491 0.76239 0.35462 0.0
H625 H 0.94269 0.72754 0.21518 0.0
H626 H 0.95182 0.69211 0.3004 0.0
H627 H 0.96279 0.79536 0.27121 0.0
C628 C 0.95387 0.81086 0.3077 0.0
C629 C 0.94519 0.80228 0.33147 0.0
C630 C 0.95016 0.69991 0.28171 0.0
C631 C 0.95169 0.75637 0.29515 0.0
C632 C 0.94587 0.67764 0.26336 0.0
C633 C 0.9424 0.68703 0.23901 0.0
C634 C 0.95114 0.73194 0.27577 0.0
C635 C 0.9451 0.71918 0.23367 0.0
C636 C 0.95703 0.78807 0.28955 0.0
C637 C 0.94147 0.77017 0.33658 0.0
N638 N 0.94905 0.74049 0.25192 0.0
N639 N 0.94452 0.74844 0.31854 0.0
H640 H 0.48582 0.09495 0.15313 0.0
H641 H 0.54947 0.93736 0.21464 0.0
H642 H 0.44095 0.05005 0.21443 0.0
H643 H 0.59109 0.98025 0.15115 0.0
H644 H 0.5151 0.98315 0.21923 0.0
H645 H 0.5298 0.0582 0.15663 0.0
C646 C 0.48541 0.07768 0.16757 0.0
C647 C 0.45939 0.07536 0.18329 0.0
C648 C 0.53204 0.98272 0.20448 0.0
C649 C 0.50966 0.03287 0.18725 0.0
C650 C 0.55177 0.9566 0.20188 0.0
C651 C 0.57294 0.95471 0.18227 0.0
C652 C 0.53343 0.00714 0.18732 0.0
C653 C 0.57492 0.98047 0.16639 0.0
C654 C 0.51054 0.05661 0.16953 0.0
C655 C 0.46035 0.05258 0.20176 0.0
N656 N 0.55517 0.00541 0.16911 0.0
N657 N 0.48485 0.03198 0.20303 0.0
H658 H 0.52027 0.57574 0.64988 0.0
H659 H 0.49054 0.41055 0.70871 0.0
H660 H 0.5717 0.54269 0.71261 0.0
H661 H 0.41831 0.45686 0.66675 0.0
H662 H 0.51931 0.46003 0.71144 0.0
H663 H 0.48096 0.53449 0.65667 0.0
C664 C 0.52302 0.56021 0.66533 0.0
C665 C 0.54963 0.56238 0.68045 0.0
C666 C 0.49692 0.45961 0.70196 0.0
C667 C 0.50499 0.51498 0.6881 0.0
C668 C 0.48056 0.43134 0.70034 0.0
C669 C 0.45217 0.42968 0.68737 0.0
C670 C 0.48526 0.48631 0.68997 0.0
C671 C 0.44014 0.45727 0.67696 0.0
C672 C 0.50054 0.5367 0.6692 0.0
C673 C 0.55181 0.54173 0.70028 0.0
N674 N 0.45709 0.48442 0.67807 0.0
N675 N 0.53012 0.51858 0.70326 0.0
H676 H 0.06056 0.4477 0.20958 0.0
H677 H 0.90191 0.5133 0.14991 0.0
H678 H 0.01527 0.40513 0.14749 0.0
H679 H 0.94824 0.55594 0.21152 0.0
H680 H 0.9387 0.46915 0.15237 0.0
H681 H 0.01541 0.48284 0.21418 0.0
C682 C 0.04093 0.44541 0.1971 0.0
C683 C 0.04193 0.4236 0.17794 0.0
C684 C 0.94057 0.48797 0.16555 0.0
C685 C 0.99014 0.46413 0.18297 0.0
C686 C 0.91947 0.51318 0.16421 0.0
C687 C 0.92216 0.53861 0.18036 0.0
C688 C 0.96462 0.48817 0.18314 0.0
C689 C 0.9454 0.53704 0.19853 0.0
C690 C 0.01513 0.46557 0.19972 0.0
C691 C 0.01565 0.42166 0.16244 0.0
N692 N 0.9659 0.51247 0.19925 0.0
N693 N 0.99103 0.44192 0.16512 0.0
H694 H 0.93564 0.9593 0.73412 0.0
H695 H 0.07916 0.01174 0.64912 0.0
H696 H 0.95513 0.91823 0.6639 0.0
H697 H 0.05357 0.05795 0.71619 0.0
H698 H 0.04036 0.9707 0.65788 0.0
H699 H 0.98506 0.98854 0.73148 0.0
C700 C 0.95053 0.95601 0.7183 0.0
C701 C 0.94092 0.93661 0.69904 0.0
C702 C 0.04357 0.98959 0.67084 0.0
C703 C 0.99752 0.97036 0.69578 0.0
C704 C 0.06582 0.01298 0.6659 0.0
C705 C 0.06935 0.03859 0.68178 0.0
C706 C 0.02472 0.9918 0.69182 0.0
C707 C 0.05141 0.03888 0.70327 0.0
C708 C 0.97875 0.97282 0.71677 0.0
C709 C 0.96139 0.93315 0.67909 0.0
N710 N 0.02967 0.01607 0.70752 0.0
N711 N 0.9885 0.95018 0.67784 0.0
H712 H 0.55221 0.55926 0.35554 0.0
H713 H 0.48122 0.40535 0.4181 0.0
H714 H 0.58635 0.52007 0.42295 0.0
H715 H 0.44216 0.44796 0.35359 0.0
H716 H 0.52562 0.44176 0.41601 0.0
H717 H 0.51779 0.51361 0.35056 0.0
C718 C 0.55287 0.54085 0.36911 0.0
C719 C 0.57195 0.54375 0.38988 0.0
C720 C 0.50755 0.44292 0.40212 0.0
C721 C 0.53236 0.49148 0.38434 0.0
C722 C 0.48218 0.42204 0.40326 0.0
C723 C 0.45763 0.42383 0.38618 0.0
C724 C 0.50841 0.46592 0.38383 0.0
C725 C 0.46038 0.44586 0.36728 0.0
C726 C 0.53311 0.51481 0.36628 0.0
C727 C 0.57184 0.51904 0.40678 0.0
N728 N 0.48507 0.46628 0.36679 0.0
N729 N 0.55211 0.49416 0.40377 0.0
H730 H 0.08616 0.47776 0.91728 0.0
H731 H 0.93164 0.51913 0.84271 0.0
H732 H 0.05931 0.43233 0.85022 0.0
H733 H 0.96301 0.57393 0.90409 0.0
H734 H 0.98229 0.49205 0.84219 0.0
H735 H 0.04592 0.51795 0.90997 0.0
C736 C 0.0723 0.47658 0.90077 0.0
C737 C 0.07578 0.45131 0.88454 0.0
C738 C 0.97841 0.51031 0.85558 0.0
C739 C 0.02947 0.49701 0.87623 0.0
C740 C 0.94944 0.52579 0.85587 0.0
C741 C 0.94302 0.54856 0.87362 0.0
C742 C 0.00103 0.51717 0.87348 0.0
C743 C 0.96702 0.55645 0.89012 0.0
C744 C 0.04924 0.4995 0.89665 0.0
C745 C 0.05718 0.45108 0.86343 0.0
N746 N 0.99481 0.54036 0.88993 0.0
N747 N 0.03457 0.47327 0.86008 0.0
H748 H 0.93242 0.94636 0.3222 0.0
H749 H 0.03524 0.07063 0.39753 0.0
H750 H 0.92773 0.95643 0.40018 0.0
H751 H 0.06441 0.03101 0.32887 0.0
H752 H 0.98569 0.04099 0.39468 0.0
H753 H 0.97075 0.98954 0.32077 0.0
C754 C 0.9389 0.95811 0.33894 0.0
C755 C 0.92719 0.94759 0.36137 0.0
C756 C 0.00274 0.0393 0.38005 0.0
C757 C 0.97077 0.99691 0.35985 0.0
C758 C 0.03089 0.05633 0.38158 0.0
C759 C 0.05406 0.05298 0.36352 0.0
C760 C 0.99762 0.0192 0.36015 0.0
C761 C 0.04728 0.03397 0.34332 0.0
C762 C 0.96087 0.98259 0.33812 0.0
C763 C 0.9365 0.96358 0.38253 0.0
N764 N 0.01977 0.01764 0.34224 0.0
N765 N 0.95788 0.98731 0.38128 0.0
H766 H 0.52035 0.92203 0.92218 0.0
H767 H 0.47505 0.06715 0.84037 0.0
H768 H 0.5648 0.94188 0.85323 0.0
H769 H 0.418 0.03664 0.9009 0.0
H770 H 0.50369 0.01747 0.8418 0.0
H771 H 0.47841 0.95916 0.91207 0.0
C772 C 0.521 0.93374 0.90471 0.0
C773 C 0.54648 0.92923 0.88873 0.0
C774 C 0.48455 0.02131 0.85451 0.0
C775 C 0.4987 0.97213 0.87718 0.0
C776 C 0.46818 0.04971 0.8537 0.0
C777 C 0.44439 0.05617 0.87073 0.0
C778 C 0.47752 -0.00062 0.87281 0.0
C779 C 0.43628 0.03265 0.88748 0.0
C780 C 0.49701 0.95497 0.89894 0.0
C781 C 0.54585 0.94483 0.86625 0.0
N782 N 0.45325 0.00552 0.88841 0.0
N783 N 0.52269 0.96601 0.86135 0.0
loop_
_geom_bond_atom_site_label_1
_geom_bond_atom_site_label_2
_geom_bond_distance
_geom_bond_site_symmetry_2
_ccdc_geom_bond_type
Mg0 O7 2.141 . S
Mg0 O8 2.048 . S
Mg0 O9 2.048 . S
Mg0 O12 2.141 . S
C1 O2 1.313 . S
C1 O8 1.195 . S
O2 C1 1.313 . S
C3 O4 1.245 . S
C3 O12 1.289 . S
O4 C3 1.245 . S
C5 O6 1.245 . S
C5 O7 1.289 . S
O6 C5 1.245 . S
O7 Mg0 2.141 . S
O7 C5 1.289 . S
O8 Mg0 2.048 . S
O8 C1 1.195 . S
O9 Mg0 2.048 . S
O9 C10 1.195 . S
C10 O9 1.195 . S
C10 O11 1.313 . S
O11 C10 1.313 . S
O12 Mg0 2.141 . S
O12 C3 1.289 . S
Mg13 O20 2.141 . S
Mg13 O21 2.048 . S
Mg13 O22 2.048 . S
Mg13 O25 2.141 . S
C14 O15 1.313 . S
C14 O21 1.195 . S
O15 C14 1.313 . S
C16 O17 1.245 . S
C16 O25 1.289 . S
O17 C16 1.245 . S
C18 O19 1.245 . S
C18 O20 1.289 . S
O19 C18 1.245 . S
O20 Mg13 2.141 . S
O20 C18 1.289 . S
O21 Mg13 2.048 . S
O21 C14 1.195 . S
O22 Mg13 2.048 . S
O22 C23 1.195 . S
C23 O22 1.195 . S
C23 O24 1.313 . S
O24 C23 1.313 . S
O25 Mg13 2.141 . S
O25 C16 1.289 . S
Mg26 O33 2.141 . S
Mg26 O34 2.048 . S
Mg26 O35 2.048 . S
Mg26 O38 2.141 . S
C27 O28 1.313 . S
C27 O34 1.195 . S
O28 C27 1.313 . S
C29 O30 1.245 . S
C29 O38 1.289 . S
O30 C29 1.245 . S
C31 O32 1.245 . S
C31 O33 1.289 . S
O32 C31 1.245 . S
O33 Mg26 2.141 . S
O33 C31 1.289 . S
O34 Mg26 2.048 . S
O34 C27 1.195 . S
O35 Mg26 2.048 . S
O35 C36 1.195 . S
C36 O35 1.195 . S
C36 O37 1.313 . S
O37 C36 1.313 . S
O38 Mg26 2.141 . S
O38 C29 1.289 . S
Mg39 O46 2.141 . S
Mg39 O47 2.048 . S
Mg39 O48 2.048 . S
Mg39 O51 2.141 . S
C40 O41 1.313 . S
C40 O47 1.195 . S
O41 C40 1.313 . S
C42 O43 1.245 . S
C42 O51 1.289 . S
O43 C42 1.245 . S
C44 O45 1.245 . S
C44 O46 1.289 . S
O45 C44 1.245 . S
O46 Mg39 2.141 . S
O46 C44 1.289 . S
O47 Mg39 2.048 . S
O47 C40 1.195 . S
O48 Mg39 2.048 . S
O48 C49 1.195 . S
C49 O48 1.195 . S
C49 O50 1.313 . S
O50 C49 1.313 . S
O51 Mg39 2.141 . S
O51 C42 1.289 . S
Mg52 O59 2.141 . S
Mg52 O60 2.048 . S
Mg52 O61 2.048 . S
Mg52 O64 2.141 . S
C53 O54 1.313 . S
C53 O60 1.195 . S
O54 C53 1.313 . S
C55 O56 1.245 . S
C55 O64 1.289 . S
O56 C55 1.245 . S
C57 O58 1.245 . S
C57 O59 1.289 . S
O58 C57 1.245 . S
O59 Mg52 2.141 . S
O59 C57 1.289 . S
O60 Mg52 2.048 . S
O60 C53 1.195 . S
O61 Mg52 2.048 . S
O61 C62 1.195 . S
C62 O61 1.195 . S
C62 O63 1.313 . S
O63 C62 1.313 . S
O64 Mg52 2.141 . S
O64 C55 1.289 . S
Mg65 O72 2.141 . S
Mg65 O73 2.048 . S
Mg65 O74 2.048 . S
Mg65 O77 2.141 . S
C66 O67 1.313 . S
C66 O73 1.195 . S
O67 C66 1.313 . S
C68 O69 1.245 . S
C68 O77 1.289 . S
O69 C68 1.245 . S
C70 O71 1.245 . S
C70 O72 1.289 . S
O71 C70 1.245 . S
O72 Mg65 2.141 . S
O72 C70 1.289 . S
O73 Mg65 2.048 . S
O73 C66 1.195 . S
O74 Mg65 2.048 . S
O74 C75 1.195 . S
C75 O74 1.195 . S
C75 O76 1.313 . S
O76 C75 1.313 . S
O77 Mg65 2.141 . S
O77 C68 1.289 . S
Mg78 O85 2.141 . S
Mg78 O86 2.048 . S
Mg78 O87 2.048 . S
Mg78 O90 2.141 . S
C79 O80 1.313 . S
C79 O86 1.195 . S
O80 C79 1.313 . S
C81 O82 1.245 . S
C81 O90 1.289 . S
O82 C81 1.245 . S
C83 O84 1.245 . S
C83 O85 1.289 . S
O84 C83 1.245 . S
O85 Mg78 2.141 . S
O85 C83 1.289 . S
O86 Mg78 2.048 . S
O86 C79 1.195 . S
O87 Mg78 2.048 . S
O87 C88 1.195 . S
C88 O87 1.195 . S
C88 O89 1.313 . S
O89 C88 1.313 . S
O90 Mg78 2.141 . S
O90 C81 1.289 . S
Mg91 O98 2.141 . S
Mg91 O99 2.048 . S
Mg91 O100 2.048 . S
Mg91 O103 2.141 . S
C92 O93 1.313 . S
C92 O99 1.195 . S
O93 C92 1.313 . S
C94 O95 1.245 . S
C94 O103 1.289 . S
O95 C94 1.245 . S
C96 O97 1.245 . S
C96 O98 1.289 . S
O97 C96 1.245 . S
O98 Mg91 2.141 . S
O98 C96 1.289 . S
O99 Mg91 2.048 . S
O99 C92 1.195 . S
O100 Mg91 2.048 . S
O100 C101 1.195 . S
C101 O100 1.195 . S
C101 O102 1.313 . S
O102 C101 1.313 . S
O103 Mg91 2.141 . S
O103 C94 1.289 . S
Mg104 O111 2.141 . S
Mg104 O112 2.048 . S
Mg104 O113 2.048 . S
Mg104 O116 2.141 . S
C105 O106 1.313 . S
C105 O112 1.195 . S
O106 C105 1.313 . S
C107 O108 1.245 . S
C107 O116 1.289 . S
O108 C107 1.245 . S
C109 O110 1.245 . S
C109 O111 1.289 . S
O110 C109 1.245 . S
O111 Mg104 2.141 . S
O111 C109 1.289 . S
O112 Mg104 2.048 . S
O112 C105 1.195 . S
O113 Mg104 2.048 . S
O113 C114 1.195 . S
C114 O113 1.195 . S
C114 O115 1.313 . S
O115 C114 1.313 . S
O116 Mg104 2.141 . S
O116 C107 1.289 . S
Mg117 O124 2.141 . S
Mg117 O125 2.048 . S
Mg117 O126 2.048 . S
Mg117 O129 2.141 . S
C118 O119 1.313 . S
C118 O125 1.195 . S
O119 C118 1.313 . S
C120 O121 1.245 . S
C120 O129 1.289 . S
O121 C120 1.245 . S
C122 O123 1.245 . S
C122 O124 1.289 . S
O123 C122 1.245 . S
O124 Mg117 2.141 . S
O124 C122 1.289 . S
O125 Mg117 2.048 . S
O125 C118 1.195 . S
O126 Mg117 2.048 . S
O126 C127 1.195 . S
C127 O126 1.195 . S
C127 O128 1.313 . S
O128 C127 1.313 . S
O129 Mg117 2.141 . S
O129 C120 1.289 . S
Mg130 O137 2.141 . S
Mg130 O138 2.048 . S
Mg130 O139 2.048 . S
Mg130 O142 2.141 . S
C131 O132 1.313 . S
C131 O138 1.195 . S
O132 C131 1.313 . S
C133 O134 1.245 . S
C133 O142 1.289 . S
O134 C133 1.245 . S
C135 O136 1.245 . S
C135 O137 1.289 . S
O136 C135 1.245 . S
O137 Mg130 2.141 . S
O137 C135 1.289 . S
O138 Mg130 2.048 . S
O138 C131 1.195 . S
O139 Mg130 2.048 . S
O139 C140 1.195 . S
C140 O139 1.195 . S
C140 O141 1.313 . S
O141 C140 1.313 . S
O142 Mg130 2.141 . S
O142 C133 1.289 . S
Mg143 O150 2.141 . S
Mg143 O151 2.048 . S
Mg143 O152 2.048 . S
Mg143 O155 2.141 . S
C144 O145 1.313 . S
C144 O151 1.195 . S
O145 C144 1.313 . S
C146 O147 1.245 . S
C146 O155 1.289 . S
O147 C146 1.245 . S
C148 O149 1.245 . S
C148 O150 1.289 . S
O149 C148 1.245 . S
O150 Mg143 2.141 . S
O150 C148 1.289 . S
O151 Mg143 2.048 . S
O151 C144 1.195 . S
O152 Mg143 2.048 . S
O152 C153 1.195 . S
C153 O152 1.195 . S
C153 O154 1.313 . S
O154 C153 1.313 . S
O155 Mg143 2.141 . S
O155 C146 1.289 . S
Mg156 O163 2.141 . S
Mg156 O164 2.048 . S
Mg156 O165 2.048 . S
Mg156 O168 2.141 . S
C157 O158 1.313 . S
C157 O164 1.195 . S
O158 C157 1.313 . S
C159 O160 1.245 . S
C159 O168 1.289 . S
O160 C159 1.245 . S
C161 O162 1.245 . S
C161 O163 1.289 . S
O162 C161 1.245 . S
O163 Mg156 2.141 . S
O163 C161 1.289 . S
O164 Mg156 2.048 . S
O164 C157 1.195 . S
O165 Mg156 2.048 . S
O165 C166 1.195 . S
C166 O165 1.195 . S
C166 O167 1.313 . S
O167 C166 1.313 . S
O168 Mg156 2.141 . S
O168 C159 1.289 . S
Mg169 O176 2.141 . S
Mg169 O177 2.048 . S
Mg169 O178 2.048 . S
Mg169 O181 2.141 . S
C170 O171 1.313 . S
C170 O177 1.195 . S
O171 C170 1.313 . S
C172 O173 1.245 . S
C172 O181 1.289 . S
O173 C172 1.245 . S
C174 O175 1.245 . S
C174 O176 1.289 . S
O175 C174 1.245 . S
O176 Mg169 2.141 . S
O176 C174 1.289 . S
O177 Mg169 2.048 . S
O177 C170 1.195 . S
O178 Mg169 2.048 . S
O178 C179 1.195 . S
C179 O178 1.195 . S
C179 O180 1.313 . S
O180 C179 1.313 . S
O181 Mg169 2.141 . S
O181 C172 1.289 . S
Mg182 O189 2.141 . S
Mg182 O190 2.048 . S
Mg182 O191 2.048 . S
Mg182 O194 2.141 . S
C183 O184 1.313 . S
C183 O190 1.195 . S
O184 C183 1.313 . S
C185 O186 1.245 . S
C185 O194 1.289 . S
O186 C185 1.245 . S
C187 O188 1.245 . S
C187 O189 1.289 . S
O188 C187 1.245 . S
O189 Mg182 2.141 . S
O189 C187 1.289 . S
O190 Mg182 2.048 . S
O190 C183 1.195 . S
O191 Mg182 2.048 . S
O191 C192 1.195 . S
C192 O191 1.195 . S
C192 O193 1.313 . S
O193 C192 1.313 . S
O194 Mg182 2.141 . S
O194 C185 1.289 . S
Mg195 O202 2.141 . S
Mg195 O203 2.048 . S
Mg195 O204 2.048 . S
Mg195 O207 2.141 . S
C196 O197 1.313 . S
C196 O203 1.195 . S
O197 C196 1.313 . S
C198 O199 1.245 . S
C198 O207 1.289 . S
O199 C198 1.245 . S
C200 O201 1.245 . S
C200 O202 1.289 . S
O201 C200 1.245 . S
O202 Mg195 2.141 . S
O202 C200 1.289 . S
O203 Mg195 2.048 . S
O203 C196 1.195 . S
O204 Mg195 2.048 . S
O204 C205 1.195 . S
C205 O204 1.195 . S
C205 O206 1.313 . S
O206 C205 1.313 . S
O207 Mg195 2.141 . S
O207 C198 1.289 . S
H208 C214 0.930 . S
H209 C218 0.930 . S
H210 C223 0.929 . S
H211 C221 0.929 . S
H212 C216 0.929 . S
H213 C222 0.929 . S
C214 H208 0.930 . S
C214 C215 1.367 . S
C214 C222 1.378 . S
C215 C214 1.367 . S
C215 C223 1.433 . S
C216 H212 0.929 . S
C216 C218 1.378 . S
C216 C220 1.350 . S
C217 C220 1.463 1_556 S
C217 C222 1.350 . S
C217 N225 1.427 . S
C218 H209 0.930 . S
C218 C216 1.378 . S
C218 C219 1.367 . S
C219 C218 1.367 . S
C219 C221 1.433 . S
C220 C216 1.350 . S
C220 C217 1.463 1_554 S
C220 N224 1.427 . S
C221 H211 0.929 . S
C221 C219 1.433 . S
C221 N224 1.384 . S
C222 H213 0.929 . S
C222 C214 1.378 . S
C222 C217 1.350 . S
C223 H210 0.929 . S
C223 C215 1.433 . S
C223 N225 1.384 . S
N224 C220 1.427 . S
N224 C221 1.384 . S
N225 C217 1.427 . S
N225 C223 1.384 . S
H226 C232 0.930 . S
H227 C236 0.930 . S
H228 C241 0.929 . S
H229 C239 0.929 . S
H230 C234 0.929 . S
H231 C240 0.929 . S
C232 H226 0.930 . S
C232 C233 1.367 . S
C232 C240 1.378 . S
C233 C232 1.367 . S
C233 C241 1.433 . S
C234 H230 0.929 . S
C234 C236 1.378 . S
C234 C238 1.350 . S
C235 C238 1.463 . S
C235 C240 1.350 . S
C235 N243 1.427 . S
C236 H227 0.930 . S
C236 C234 1.378 . S
C236 C237 1.367 . S
C237 C236 1.367 . S
C237 C239 1.433 . S
C238 C234 1.350 . S
C238 C235 1.463 . S
C238 N242 1.427 . S
C239 H229 0.929 . S
C239 C237 1.433 . S
C239 N242 1.384 . S
C240 H231 0.929 . S
C240 C232 1.378 . S
C240 C235 1.350 . S
C241 H228 0.929 . S
C241 C233 1.433 . S
C241 N243 1.384 . S
N242 C238 1.427 . S
N242 C239 1.384 . S
N243 C235 1.427 . S
N243 C241 1.384 . S
H244 C250 0.930 . S
H245 C254 0.930 . S
H246 C259 0.929 . S
H247 C257 0.929 . S
H248 C252 0.929 . S
H249 C258 0.929 . S
C250 H244 0.930 . S
C250 C251 1.367 . S
C250 C258 1.378 . S
C251 C250 1.367 . S
C251 C259 1.433 . S
C252 H248 0.929 . S
C252 C254 1.378 . S
C252 C256 1.350 . S
C253 C256 1.463 1_556 S
C253 C258 1.350 . S
C253 N261 1.427 . S
C254 H245 0.930 . S
C254 C252 1.378 . S
C254 C255 1.367 . S
C255 C254 1.367 . S
C255 C257 1.433 . S
C256 C252 1.350 . S
C256 C253 1.463 1_554 S
C256 N260 1.427 . S
C257 H247 0.929 . S
C257 C255 1.433 . S
C257 N260 1.384 . S
C258 H249 0.929 . S
C258 C250 1.378 . S
C258 C253 1.350 . S
C259 H246 0.929 . S
C259 C251 1.433 . S
C259 N261 1.384 . S
N260 C256 1.427 . S
N260 C257 1.384 . S
N261 C253 1.427 . S
N261 C259 1.384 . S
H262 C268 0.930 . S
H263 C272 0.930 . S
H264 C277 0.929 . S
H265 C275 0.929 . S
H266 C270 0.929 . S
H267 C276 0.929 . S
C268 H262 0.930 . S
C268 C269 1.367 . S
C268 C276 1.378 . S
C269 C268 1.367 . S
C269 C277 1.433 . S
C270 H266 0.929 . S
C270 C272 1.378 . S
C270 C274 1.350 . S
C271 C274 1.463 . S
C271 C276 1.350 . S
C271 N279 1.427 . S
C272 H263 0.930 . S
C272 C270 1.378 . S
C272 C273 1.367 . S
C273 C272 1.367 . S
C273 C275 1.433 . S
C274 C270 1.350 . S
C274 C271 1.463 . S
C274 N278 1.427 . S
C275 H265 0.929 . S
C275 C273 1.433 . S
C275 N278 1.384 . S
C276 H267 0.929 . S
C276 C268 1.378 . S
C276 C271 1.350 . S
C277 H264 0.929 . S
C277 C269 1.433 . S
C277 N279 1.384 . S
N278 C274 1.427 . S
N278 C275 1.384 . S
N279 C271 1.427 . S
N279 C277 1.384 . S
H280 C286 0.930 . S
H281 C290 0.930 . S
H282 C295 0.929 . S
H283 C293 0.929 . S
H284 C288 0.929 . S
H285 C294 0.929 . S
C286 H280 0.930 . S
C286 C287 1.367 . S
C286 C294 1.378 . S
C287 C286 1.367 . S
C287 C295 1.433 . S
C288 H284 0.929 . S
C288 C290 1.378 . S
C288 C292 1.350 . S
C289 C292 1.463 1_554 S
C289 C294 1.350 . S
C289 N297 1.427 . S
C290 H281 0.930 . S
C290 C288 1.378 . S
C290 C291 1.367 . S
C291 C290 1.367 . S
C291 C293 1.433 . S
C292 C288 1.350 . S
C292 C289 1.463 1_556 S
C292 N296 1.427 . S
C293 H283 0.929 . S
C293 C291 1.433 . S
C293 N296 1.384 . S
C294 H285 0.929 . S
C294 C286 1.378 . S
C294 C289 1.350 . S
C295 H282 0.929 . S
C295 C287 1.433 . S
C295 N297 1.384 . S
N296 C292 1.427 . S
N296 C293 1.384 . S
N297 C289 1.427 . S
N297 C295 1.384 . S
H298 C304 0.930 . S
H299 C308 0.930 . S
H300 C313 0.929 . S
H301 C311 0.929 . S
H302 C306 0.929 . S
H303 C312 0.929 . S
C304 H298 0.930 . S
C304 C305 1.367 . S
C304 C312 1.378 . S
C305 C304 1.367 . S
C305 C313 1.433 . S
C306 H302 0.929 . S
C306 C308 1.378 . S
C306 C310 1.350 . S
C307 C310 1.463 . S
C307 C312 1.350 . S
C307 N315 1.427 . S
C308 H299 0.930 . S
C308 C306 1.378 . S
C308 C309 1.367 . S
C309 C308 1.367 . S
C309 C311 1.433 . S
C310 C306 1.350 . S
C310 C307 1.463 . S
C310 N314 1.427 . S
C311 H301 0.929 . S
C311 C309 1.433 . S
C311 N314 1.384 . S
C312 H303 0.929 . S
C312 C304 1.378 . S
C312 C307 1.350 . S
C313 H300 0.929 . S
C313 C305 1.433 . S
C313 N315 1.384 . S
N314 C310 1.427 . S
N314 C311 1.384 . S
N315 C307 1.427 . S
N315 C313 1.384 . S
H316 C322 0.930 . S
H317 C326 0.930 . S
H318 C331 0.929 . S
H319 C329 0.929 . S
H320 C324 0.929 . S
H321 C330 0.929 . S
C322 H316 0.930 . S
C322 C323 1.367 . S
C322 C330 1.378 . S
C323 C322 1.367 . S
C323 C331 1.433 . S
C324 H320 0.929 . S
C324 C326 1.378 . S
C324 C328 1.350 . S
C325 C328 1.463 1_556 S
C325 C330 1.350 . S
C325 N333 1.427 . S
C326 H317 0.930 . S
C326 C324 1.378 . S
C326 C327 1.367 . S
C327 C326 1.367 . S
C327 C329 1.433 . S
C328 C324 1.350 . S
C328 C325 1.463 1_554 S
C328 N332 1.427 . S
C329 H319 0.929 . S
C329 C327 1.433 . S
C329 N332 1.384 . S
C330 H321 0.929 . S
C330 C322 1.378 . S
C330 C325 1.350 . S
C331 H318 0.929 . S
C331 C323 1.433 . S
C331 N333 1.384 . S
N332 C328 1.427 . S
N332 C329 1.384 . S
N333 C325 1.427 . S
N333 C331 1.384 . S
H334 C340 0.930 . S
H335 C344 0.930 . S
H336 C349 0.929 . S
H337 C347 0.929 . S
H338 C342 0.929 . S
H339 C348 0.929 . S
C340 H334 0.930 . S
C340 C341 1.367 . S
C340 C348 1.378 . S
C341 C340 1.367 . S
C341 C349 1.433 . S
C342 H338 0.929 . S
C342 C344 1.378 . S
C342 C346 1.350 . S
C343 C346 1.463 . S
C343 C348 1.350 . S
C343 N351 1.427 . S
C344 H335 0.930 . S
C344 C342 1.378 . S
C344 C345 1.367 . S
C345 C344 1.367 . S
C345 C347 1.433 . S
C346 C342 1.350 . S
C346 C343 1.463 . S
C346 N350 1.427 . S
C347 H337 0.929 . S
C347 C345 1.433 . S
C347 N350 1.384 . S
C348 H339 0.929 . S
C348 C340 1.378 . S
C348 C343 1.350 . S
C349 H336 0.929 . S
C349 C341 1.433 . S
C349 N351 1.384 . S
N350 C346 1.427 . S
N350 C347 1.384 . S
N351 C343 1.427 . S
N351 C349 1.384 . S
H352 C358 0.930 . S
H353 C362 0.930 . S
H354 C367 0.929 . S
H355 C365 0.929 . S
H356 C360 0.929 . S
H357 C366 0.929 . S
C358 H352 0.930 . S
C358 C359 1.367 . S
C358 C366 1.378 . S
C359 C358 1.367 . S
C359 C367 1.433 . S
C360 H356 0.929 . S
C360 C362 1.378 . S
C360 C364 1.350 . S
C361 C364 1.463 . S
C361 C366 1.350 . S
C361 N369 1.427 . S
C362 H353 0.930 . S
C362 C360 1.378 . S
C362 C363 1.367 . S
C363 C362 1.367 . S
C363 C365 1.433 . S
C364 C360 1.350 . S
C364 C361 1.463 . S
C364 N368 1.427 . S
C365 H355 0.929 . S
C365 C363 1.433 . S
C365 N368 1.384 . S
C366 H357 0.929 . S
C366 C358 1.378 . S
C366 C361 1.350 . S
C367 H354 0.929 . S
C367 C359 1.433 . S
C367 N369 1.384 . S
N368 C364 1.427 . S
N368 C365 1.384 . S
N369 C361 1.427 . S
N369 C367 1.384 . S
H370 C376 0.930 . S
H371 C380 0.930 . S
H372 C385 0.929 . S
H373 C383 0.929 . S
H374 C378 0.929 . S
H375 C384 0.929 . S
C376 H370 0.930 . S
C376 C377 1.367 . S
C376 C384 1.378 . S
C377 C376 1.367 . S
C377 C385 1.433 . S
C378 H374 0.929 . S
C378 C380 1.378 . S
C378 C382 1.350 . S
C379 C382 1.463 . S
C379 C384 1.350 . S
C379 N387 1.427 . S
C380 H371 0.930 . S
C380 C378 1.378 . S
C380 C381 1.367 . S
C381 C380 1.367 . S
C381 C383 1.433 . S
C382 C378 1.350 . S
C382 C379 1.463 . S
C382 N386 1.427 . S
C383 H373 0.929 . S
C383 C381 1.433 . S
C383 N386 1.384 . S
C384 H375 0.929 . S
C384 C376 1.378 . S
C384 C379 1.350 . S
C385 H372 0.929 . S
C385 C377 1.433 . S
C385 N387 1.384 . S
N386 C382 1.427 . S
N386 C383 1.384 . S
N387 C379 1.427 . S
N387 C385 1.384 . S
H388 C394 0.930 . S
H389 C398 0.930 . S
H390 C403 0.929 . S
H391 C401 0.929 . S
H392 C396 0.929 . S
H393 C402 0.929 . S
C394 H388 0.930 . S
C394 C395 1.367 . S
C394 C402 1.378 . S
C395 C394 1.367 . S
C395 C403 1.433 . S
C396 H392 0.929 . S
C396 C398 1.378 . S
C396 C400 1.350 . S
C397 C400 1.463 . S
C397 C402 1.350 . S
C397 N405 1.427 . S
C398 H389 0.930 . S
C398 C396 1.378 . S
C398 C399 1.367 . S
C399 C398 1.367 . S
C399 C401 1.433 . S
C400 C396 1.350 . S
C400 C397 1.463 . S
C400 N404 1.427 . S
C401 H391 0.929 . S
C401 C399 1.433 . S
C401 N404 1.384 . S
C402 H393 0.929 . S
C402 C394 1.378 . S
C402 C397 1.350 . S
C403 H390 0.929 . S
C403 C395 1.433 . S
C403 N405 1.384 . S
N404 C400 1.427 . S
N404 C401 1.384 . S
N405 C397 1.427 . S
N405 C403 1.384 . S
H406 C412 0.930 . S
H407 C416 0.930 . S
H408 C421 0.929 . S
H409 C419 0.929 . S
H410 C414 0.929 . S
H411 C420 0.929 . S
C412 H406 0.930 . S
C412 C413 1.367 . S
C412 C420 1.378 . S
C413 C412 1.367 . S
C413 C421 1.433 . S
C414 H410 0.929 . S
C414 C416 1.378 . S
C414 C418 1.350 . S
C415 C418 1.463 . S
C415 C420 1.350 . S
C415 N423 1.427 . S
C416 H407 0.930 . S
C416 C414 1.378 . S
C416 C417 1.367 . S
C417 C416 1.367 . S
C417 C419 1.433 . S
C418 C414 1.350 . S
C418 C415 1.463 . S
C418 N422 1.427 . S
C419 H409 0.929 . S
C419 C417 1.433 . S
C419 N422 1.384 . S
C420 H411 0.929 . S
C420 C412 1.378 . S
C420 C415 1.350 . S
C421 H408 0.929 . S
C421 C413 1.433 . S
C421 N423 1.384 . S
N422 C418 1.427 . S
N422 C419 1.384 . S
N423 C415 1.427 . S
N423 C421 1.384 . S
H424 C430 0.930 . S
H425 C434 0.930 . S
H426 C439 0.929 . S
H427 C437 0.929 . S
H428 C432 0.929 . S
H429 C438 0.929 . S
C430 H424 0.930 . S
C430 C431 1.367 . S
C430 C438 1.378 . S
C431 C430 1.367 . S
C431 C439 1.433 . S
C432 H428 0.929 . S
C432 C434 1.378 . S
C432 C436 1.350 . S
C433 C436 1.463 . S
C433 C438 1.350 . S
C433 N441 1.427 . S
C434 H425 0.930 . S
C434 C432 1.378 . S
C434 C435 1.367 . S
C435 C434 1.367 . S
C435 C437 1.433 . S
C436 C432 1.350 . S
C436 C433 1.463 . S
C436 N440 1.427 . S
C437 H427 0.929 . S
C437 C435 1.433 . S
C437 N440 1.384 . S
C438 H429 0.929 . S
C438 C430 1.378 . S
C438 C433 1.350 . S
C439 H426 0.929 . S
C439 C431 1.433 . S
C439 N441 1.384 . S
N440 C436 1.427 . S
N440 C437 1.384 . S
N441 C433 1.427 . S
N441 C439 1.384 . S
H442 C448 0.930 . S
H443 C452 0.930 . S
H444 C457 0.929 . S
H445 C455 0.929 . S
H446 C450 0.929 . S
H447 C456 0.929 . S
C448 H442 0.930 . S
C448 C449 1.367 . S
C448 C456 1.378 . S
C449 C448 1.367 . S
C449 C457 1.433 . S
C450 H446 0.929 . S
C450 C452 1.378 . S
C450 C454 1.350 . S
C451 C454 1.463 . S
C451 C456 1.350 . S
C451 N459 1.427 . S
C452 H443 0.930 . S
C452 C450 1.378 . S
C452 C453 1.367 . S
C453 C452 1.367 . S
C453 C455 1.433 . S
C454 C450 1.350 . S
C454 C451 1.463 . S
C454 N458 1.427 . S
C455 H445 0.929 . S
C455 C453 1.433 . S
C455 N458 1.384 . S
C456 H447 0.929 . S
C456 C448 1.378 . S
C456 C451 1.350 . S
C457 H444 0.929 . S
C457 C449 1.433 . S
C457 N459 1.384 . S
N458 C454 1.427 . S
N458 C455 1.384 . S
N459 C451 1.427 . S
N459 C457 1.384 . S
H460 C466 0.930 . S
H461 C470 0.930 . S
H462 C475 0.929 . S
H463 C473 0.929 . S
H464 C468 0.929 . S
H465 C474 0.929 . S
C466 H460 0.930 . S
C466 C467 1.367 . S
C466 C474 1.378 . S
C467 C466 1.367 . S
C467 C475 1.433 . S
C468 H464 0.929 . S
C468 C470 1.378 . S
C468 C472 1.350 . S
C469 C472 1.463 . S
C469 C474 1.350 . S
C469 N477 1.427 . S
C470 H461 0.930 . S
C470 C468 1.378 . S
C470 C471 1.367 . S
C471 C470 1.367 . S
C471 C473 1.433 . S
C472 C468 1.350 . S
C472 C469 1.463 . S
C472 N476 1.427 . S
C473 H463 0.929 . S
C473 C471 1.433 . S
C473 N476 1.384 . S
C474 H465 0.929 . S
C474 C466 1.378 . S
C474 C469 1.350 . S
C475 H462 0.929 . S
C475 C467 1.433 . S
C475 N477 1.384 . S
N476 C472 1.427 . S
N476 C473 1.384 . S
N477 C469 1.427 . S
N477 C475 1.384 . S
H478 C484 0.930 . S
H479 C488 0.930 . S
H480 C493 0.929 . S
H481 C491 0.929 . S
H482 C486 0.929 . S
H483 C492 0.929 . S
C484 H478 0.930 . S
C484 C485 1.367 . S
C484 C492 1.378 . S
C485 C484 1.367 . S
C485 C493 1.433 . S
C486 H482 0.929 . S
C486 C488 1.378 . S
C486 C490 1.350 . S
C487 C490 1.463 . S
C487 C492 1.350 . S
C487 N495 1.427 . S
C488 H479 0.930 . S
C488 C486 1.378 . S
C488 C489 1.367 . S
C489 C488 1.367 . S
C489 C491 1.433 . S
C490 C486 1.350 . S
C490 C487 1.463 . S
C490 N494 1.427 . S
C491 H481 0.929 . S
C491 C489 1.433 . S
C491 N494 1.384 . S
C492 H483 0.929 . S
C492 C484 1.378 . S
C492 C487 1.350 . S
C493 H480 0.929 . S
C493 C485 1.433 . S
C493 N495 1.384 . S
N494 C490 1.427 . S
N494 C491 1.384 . S
N495 C487 1.427 . S
N495 C493 1.384 . S
H496 C502 0.930 . S
H497 C506 0.930 . S
H498 C511 0.929 . S
H499 C509 0.929 . S
H500 C504 0.929 . S
H501 C510 0.929 . S
C502 H496 0.930 . S
C502 C503 1.367 . S
C502 C510 1.378 . S
C503 C502 1.367 . S
C503 C511 1.433 . S
C504 H500 0.929 . S
C504 C506 1.378 . S
C504 C508 1.350 . S
C505 C508 1.463 . S
C505 C510 1.350 . S
C505 N513 1.427 . S
C506 H497 0.930 . S
C506 C504 1.378 . S
C506 C507 1.367 . S
C507 C506 1.367 . S
C507 C509 1.433 . S
C508 C504 1.350 . S
C508 C505 1.463 . S
C508 N512 1.427 . S
C509 H499 0.929 . S
C509 C507 1.433 . S
C509 N512 1.384 . S
C510 H501 0.929 . S
C510 C502 1.378 . S
C510 C505 1.350 . S
C511 H498 0.929 . S
C511 C503 1.433 . S
C511 N513 1.384 . S
N512 C508 1.427 . S
N512 C509 1.384 . S
N513 C505 1.427 . S
N513 C511 1.384 . S
H514 C520 0.930 . S
H515 C524 0.930 . S
H516 C529 0.929 . S
H517 C527 0.929 . S
H518 C522 0.929 . S
H519 C528 0.929 . S
C520 H514 0.930 . S
C520 C521 1.367 . S
C520 C528 1.378 . S
C521 C520 1.367 . S
C521 C529 1.433 . S
C522 H518 0.929 . S
C522 C524 1.378 . S
C522 C526 1.350 . S
C523 C526 1.463 . S
C523 C528 1.350 . S
C523 N531 1.427 . S
C524 H515 0.930 . S
C524 C522 1.378 . S
C524 C525 1.367 . S
C525 C524 1.367 . S
C525 C527 1.433 . S
C526 C522 1.350 . S
C526 C523 1.463 . S
C526 N530 1.427 . S
C527 H517 0.929 . S
C527 C525 1.433 . S
C527 N530 1.384 . S
C528 H519 0.929 . S
C528 C520 1.378 . S
C528 C523 1.350 . S
C529 H516 0.929 . S
C529 C521 1.433 . S
C529 N531 1.384 . S
N530 C526 1.427 . S
N530 C527 1.384 . S
N531 C523 1.427 . S
N531 C529 1.384 . S
H532 C538 0.930 . S
H533 C542 0.930 . S
H534 C547 0.929 . S
H535 C545 0.929 . S
H536 C540 0.929 . S
H537 C546 0.929 . S
C538 H532 0.930 . S
C538 C539 1.367 . S
C538 C546 1.378 . S
C539 C538 1.367 . S
C539 C547 1.433 . S
C540 H536 0.929 . S
C540 C542 1.378 . S
C540 C544 1.350 . S
C541 C544 1.463 . S
C541 C546 1.350 . S
C541 N549 1.427 . S
C542 H533 0.930 . S
C542 C540 1.378 . S
C542 C543 1.367 . S
C543 C542 1.367 . S
C543 C545 1.433 . S
C544 C540 1.350 . S
C544 C541 1.463 . S
C544 N548 1.427 . S
C545 H535 0.929 . S
C545 C543 1.433 . S
C545 N548 1.384 . S
C546 H537 0.929 . S
C546 C538 1.378 . S
C546 C541 1.350 . S
C547 H534 0.929 . S
C547 C539 1.433 . S
C547 N549 1.384 . S
N548 C544 1.427 . S
N548 C545 1.384 . S
N549 C541 1.427 . S
N549 C547 1.384 . S
H550 C556 0.930 . S
H551 C560 0.930 . S
H552 C565 0.929 . S
H553 C563 0.929 . S
H554 C558 0.929 . S
H555 C564 0.929 . S
C556 H550 0.930 . S
C556 C557 1.367 . S
C556 C564 1.378 . S
C557 C556 1.367 . S
C557 C565 1.433 . S
C558 H554 0.929 . S
C558 C560 1.378 . S
C558 C562 1.350 . S
C559 C562 1.463 . S
C559 C564 1.350 . S
C559 N567 1.427 . S
C560 H551 0.930 . S
C560 C558 1.378 . S
C560 C561 1.367 . S
C561 C560 1.367 . S
C561 C563 1.433 . S
C562 C558 1.350 . S
C562 C559 1.463 . S
C562 N566 1.427 . S
C563 H553 0.929 . S
C563 C561 1.433 . S
C563 N566 1.384 . S
C564 H555 0.929 . S
C564 C556 1.378 . S
C564 C559 1.350 . S
C565 H552 0.929 . S
C565 C557 1.433 . S
C565 N567 1.384 . S
N566 C562 1.427 . S
N566 C563 1.384 . S
N567 C559 1.427 . S
N567 C565 1.384 . S
H568 C574 0.930 . S
H569 C578 0.930 . S
H570 C583 0.929 . S
H571 C581 0.929 . S
H572 C576 0.929 . S
H573 C582 0.929 . S
C574 H568 0.930 . S
C574 C575 1.367 . S
C574 C582 1.378 . S
C575 C574 1.367 . S
C575 C583 1.433 . S
C576 H572 0.929 . S
C576 C578 1.378 . S
C576 C580 1.350 . S
C577 C580 1.463 . S
C577 C582 1.350 . S
C577 N585 1.427 . S
C578 H569 0.930 . S
C578 C576 1.378 . S
C578 C579 1.367 . S
C579 C578 1.367 . S
C579 C581 1.433 . S
C580 C576 1.350 . S
C580 C577 1.463 . S
C580 N584 1.427 . S
C581 H571 0.929 . S
C581 C579 1.433 . S
C581 N584 1.384 . S
C582 H573 0.929 . S
C582 C574 1.378 . S
C582 C577 1.350 . S
C583 H570 0.929 . S
C583 C575 1.433 . S
C583 N585 1.384 . S
N584 C580 1.427 . S
N584 C581 1.384 . S
N585 C577 1.427 . S
N585 C583 1.384 . S
H586 C592 0.930 . S
H587 C596 0.930 . S
H588 C601 0.929 . S
H589 C599 0.929 . S
H590 C594 0.929 . S
H591 C600 0.929 . S
C592 H586 0.930 . S
C592 C593 1.367 . S
C592 C600 1.378 . S
C593 C592 1.367 . S
C593 C601 1.433 . S
C594 H590 0.929 . S
C594 C596 1.378 . S
C594 C598 1.350 . S
C595 C598 1.463 . S
C595 C600 1.350 . S
C595 N603 1.427 . S
C596 H587 0.930 . S
C596 C594 1.378 . S
C596 C597 1.367 . S
C597 C596 1.367 . S
C597 C599 1.433 . S
C598 C594 1.350 . S
C598 C595 1.463 . S
C598 N602 1.427 . S
C599 H589 0.929 . S
C599 C597 1.433 . S
C599 N602 1.384 . S
C600 H591 0.929 . S
C600 C592 1.378 . S
C600 C595 1.350 . S
C601 H588 0.929 . S
C601 C593 1.433 . S
C601 N603 1.384 . S
N602 C598 1.427 . S
N602 C599 1.384 . S
N603 C595 1.427 . S
N603 C601 1.384 . S
H604 C610 0.930 . S
H605 C614 0.930 . S
H606 C619 0.929 . S
H607 C617 0.929 . S
H608 C612 0.929 . S
H609 C618 0.929 . S
C610 H604 0.930 . S
C610 C611 1.367 . S
C610 C618 1.378 . S
C611 C610 1.367 . S
C611 C619 1.433 . S
C612 H608 0.929 . S
C612 C614 1.378 . S
C612 C616 1.350 . S
C613 C616 1.463 . S
C613 C618 1.350 . S
C613 N621 1.427 . S
C614 H605 0.930 . S
C614 C612 1.378 . S
C614 C615 1.367 . S
C615 C614 1.367 . S
C615 C617 1.433 . S
C616 C612 1.350 . S
C616 C613 1.463 . S
C616 N620 1.427 . S
C617 H607 0.929 . S
C617 C615 1.433 . S
C617 N620 1.384 . S
C618 H609 0.929 . S
C618 C610 1.378 . S
C618 C613 1.350 . S
C619 H606 0.929 . S
C619 C611 1.433 . S
C619 N621 1.384 . S
N620 C616 1.427 . S
N620 C617 1.384 . S
N621 C613 1.427 . S
N621 C619 1.384 . S
H622 C628 0.930 . S
H623 C632 0.930 . S
H624 C637 0.929 . S
H625 C635 0.929 . S
H626 C630 0.929 . S
H627 C636 0.929 . S
C628 H622 0.930 . S
C628 C629 1.367 . S
C628 C636 1.378 . S
C629 C628 1.367 . S
C629 C637 1.433 . S
C630 H626 0.929 . S
C630 C632 1.378 . S
C630 C634 1.350 . S
C631 C634 1.463 . S
C631 C636 1.350 . S
C631 N639 1.427 . S
C632 H623 0.930 . S
C632 C630 1.378 . S
C632 C633 1.367 . S
C633 C632 1.367 . S
C633 C635 1.433 . S
C634 C630 1.350 . S
C634 C631 1.463 . S
C634 N638 1.427 . S
C635 H625 0.929 . S
C635 C633 1.433 . S
C635 N638 1.384 . S
C636 H627 0.929 . S
C636 C628 1.378 . S
C636 C631 1.350 . S
C637 H624 0.929 . S
C637 C629 1.433 . S
C637 N639 1.384 . S
N638 C634 1.427 . S
N638 C635 1.384 . S
N639 C631 1.427 . S
N639 C637 1.384 . S
H640 C646 0.930 1_545 S
H641 C650 0.930 . S
H642 C655 0.929 . S
H643 C653 0.929 . S
H644 C648 0.929 . S
H645 C654 0.929 . S
C646 H640 0.930 1_565 S
C646 C647 1.367 . S
C646 C654 1.378 . S
C647 C646 1.367 . S
C647 C655 1.433 . S
C648 H644 0.929 . S
C648 C650 1.378 . S
C648 C652 1.350 . S
C649 C652 1.463 . S
C649 C654 1.350 . S
C649 N657 1.427 . S
C650 H641 0.930 . S
C650 C648 1.378 . S
C650 C651 1.367 . S
C651 C650 1.367 . S
C651 C653 1.433 . S
C652 C648 1.350 . S
C652 C649 1.463 . S
C652 N656 1.427 . S
C653 H643 0.929 . S
C653 C651 1.433 . S
C653 N656 1.384 . S
C654 H645 0.929 . S
C654 C646 1.378 . S
C654 C649 1.350 . S
C655 H642 0.929 . S
C655 C647 1.433 . S
C655 N657 1.384 . S
N656 C652 1.427 . S
N656 C653 1.384 . S
N657 C649 1.427 . S
N657 C655 1.384 . S
H658 C664 0.930 . S
H659 C668 0.930 . S
H660 C673 0.929 . S
H661 C671 0.929 . S
H662 C666 0.929 . S
H663 C672 0.929 . S
C664 H658 0.930 . S
C664 C665 1.367 . S
C664 C672 1.378 . S
C665 C664 1.367 . S
C665 C673 1.433 . S
C666 H662 0.929 . S
C666 C668 1.378 . S
C666 C670 1.350 . S
C667 C670 1.463 . S
C667 C672 1.350 . S
C667 N675 1.427 . S
C668 H659 0.930 . S
C668 C666 1.378 . S
C668 C669 1.367 . S
C669 C668 1.367 . S
C669 C671 1.433 . S
C670 C666 1.350 . S
C670 C667 1.463 . S
C670 N674 1.427 . S
C671 H661 0.929 . S
C671 C669 1.433 . S
C671 N674 1.384 . S
C672 H663 0.929 . S
C672 C664 1.378 . S
C672 C667 1.350 . S
C673 H660 0.929 . S
C673 C665 1.433 . S
C673 N675 1.384 . S
N674 C670 1.427 . S
N674 C671 1.384 . S
N675 C667 1.427 . S
N675 C673 1.384 . S
H676 C682 0.930 . S
H677 C686 0.930 1_655 S
H678 C691 0.929 . S
H679 C689 0.929 . S
H680 C684 0.929 . S
H681 C690 0.929 . S
C682 H676 0.930 . S
C682 C683 1.367 . S
C682 C690 1.378 . S
C683 C682 1.367 . S
C683 C691 1.433 . S
C684 H680 0.929 . S
C684 C686 1.378 . S
C684 C688 1.350 . S
C685 C688 1.463 . S
C685 C690 1.350 . S
C685 N693 1.427 . S
C686 H677 0.930 1_455 S
C686 C684 1.378 . S
C686 C687 1.367 . S
C687 C686 1.367 . S
C687 C689 1.433 . S
C688 C684 1.350 . S
C688 C685 1.463 . S
C688 N692 1.427 . S
C689 H679 0.929 . S
C689 C687 1.433 . S
C689 N692 1.384 . S
C690 H681 0.929 . S
C690 C682 1.378 . S
C690 C685 1.350 . S
C691 H678 0.929 . S
C691 C683 1.433 . S
C691 N693 1.384 . S
N692 C688 1.427 . S
N692 C689 1.384 . S
N693 C685 1.427 . S
N693 C691 1.384 . S
H694 C700 0.930 . S
H695 C704 0.930 1_455 S
H696 C709 0.929 1_565 S
H697 C707 0.929 . S
H698 C702 0.929 . S
H699 C708 0.929 . S
C700 H694 0.930 . S
C700 C701 1.367 . S
C700 C708 1.378 . S
C701 C700 1.367 . S
C701 C709 1.433 . S
C702 H698 0.929 . S
C702 C704 1.378 . S
C702 C706 1.350 . S
C703 C706 1.463 . S
C703 C708 1.350 . S
C703 N711 1.427 . S
C704 H695 0.930 1_655 S
C704 C702 1.378 . S
C704 C705 1.367 . S
C705 C704 1.367 . S
C705 C707 1.433 . S
C706 C702 1.350 . S
C706 C703 1.463 . S
C706 N710 1.427 . S
C707 H697 0.929 . S
C707 C705 1.433 . S
C707 N710 1.384 . S
C708 H699 0.929 . S
C708 C700 1.378 . S
C708 C703 1.350 . S
C709 H696 0.929 1_545 S
C709 C701 1.433 . S
C709 N711 1.384 . S
N710 C706 1.427 . S
N710 C707 1.384 . S
N711 C703 1.427 . S
N711 C709 1.384 . S
H712 C718 0.930 . S
H713 C722 0.930 . S
H714 C727 0.929 . S
H715 C725 0.929 . S
H716 C720 0.929 . S
H717 C726 0.929 . S
C718 H712 0.930 . S
C718 C719 1.367 . S
C718 C726 1.378 . S
C719 C718 1.367 . S
C719 C727 1.433 . S
C720 H716 0.929 . S
C720 C722 1.378 . S
C720 C724 1.350 . S
C721 C724 1.463 . S
C721 C726 1.350 . S
C721 N729 1.427 . S
C722 H713 0.930 . S
C722 C720 1.378 . S
C722 C723 1.367 . S
C723 C722 1.367 . S
C723 C725 1.433 . S
C724 C720 1.350 . S
C724 C721 1.463 . S
C724 N728 1.427 . S
C725 H715 0.929 . S
C725 C723 1.433 . S
C725 N728 1.384 . S
C726 H717 0.929 . S
C726 C718 1.378 . S
C726 C721 1.350 . S
C727 H714 0.929 . S
C727 C719 1.433 . S
C727 N729 1.384 . S
N728 C724 1.427 . S
N728 C725 1.384 . S
N729 C721 1.427 . S
N729 C727 1.384 . S
H730 C736 0.936 . S
H731 C740 0.930 . S
H732 C745 0.929 . S
H733 C743 0.929 . S
H734 C738 0.929 . S
H735 C744 0.929 . S
C736 H730 0.936 . S
C736 C737 1.367 . S
C736 C744 1.378 . S
C737 C736 1.367 . S
C737 C745 1.433 . S
C738 H734 0.929 . S
C738 C740 1.378 . S
C738 C742 1.350 . S
C739 C742 1.463 . S
C739 C744 1.350 . S
C739 N747 1.427 . S
C740 H731 0.930 . S
C740 C738 1.378 . S
C740 C741 1.367 . S
C741 C740 1.367 . S
C741 C743 1.433 . S
C742 C738 1.350 . S
C742 C739 1.463 . S
C742 N746 1.427 . S
C743 H733 0.929 . S
C743 C741 1.433 . S
C743 N746 1.384 . S
C744 H735 0.929 . S
C744 C736 1.378 . S
C744 C739 1.350 . S
C745 H732 0.929 . S
C745 C737 1.433 . S
C745 N747 1.384 . S
N746 C742 1.427 . S
N746 C743 1.384 . S
N747 C739 1.427 . S
N747 C745 1.384 . S
H748 C754 0.930 . S
H749 C758 0.930 . S
H750 C763 0.929 . S
H751 C761 0.929 . S
H752 C756 0.929 . S
H753 C762 0.929 . S
C754 H748 0.930 . S
C754 C755 1.367 . S
C754 C762 1.378 . S
C755 C754 1.367 . S
C755 C763 1.433 . S
C756 H752 0.929 . S
C756 C758 1.378 . S
C756 C760 1.350 . S
C757 C760 1.463 . S
C757 C762 1.350 . S
C757 N765 1.427 . S
C758 H749 0.930 . S
C758 C756 1.378 . S
C758 C759 1.367 . S
C759 C758 1.367 . S
C759 C761 1.433 . S
C760 C756 1.350 . S
C760 C757 1.463 . S
C760 N764 1.427 . S
C761 H751 0.929 . S
C761 C759 1.433 . S
C761 N764 1.384 . S
C762 H753 0.929 . S
C762 C754 1.378 . S
C762 C757 1.350 . S
C763 H750 0.929 . S
C763 C755 1.433 . S
C763 N765 1.384 . S
N764 C760 1.427 . S
N764 C761 1.384 . S
N765 C757 1.427 . S
N765 C763 1.384 . S
H766 C772 0.930 . S
H767 C776 0.930 . S
H768 C781 0.929 . S
H769 C779 0.929 . S
H770 C774 0.929 . S
H771 C780 0.929 . S
C772 H766 0.930 . S
C772 C773 1.367 . S
C772 C780 1.378 . S
C773 C772 1.367 . S
C773 C781 1.433 . S
C774 H770 0.929 . S
C774 C776 1.378 . S
C774 C778 1.350 . S
C775 C778 1.463 . S
C775 C780 1.350 . S
C775 N783 1.427 . S
C776 H767 0.930 . S
C776 C774 1.378 . S
C776 C777 1.367 . S
C777 C776 1.367 . S
C777 C779 1.433 . S
C778 C774 1.350 . S
C778 C775 1.463 . S
C778 N782 1.427 . S
C779 H769 0.929 . S
C779 C777 1.433 . S
C779 N782 1.384 . S
C780 H771 0.929 . S
C780 C772 1.378 . S
C780 C775 1.350 . S
C781 H768 0.929 . S
C781 C773 1.433 . S
C781 N783 1.384 . S
N782 C778 1.427 . S
N782 C779 1.384 . S
N783 C775 1.427 . S
N783 C781 1.384 . S
C215 C92 1.580 . S
C219 C1 1.582 . S
C233 C53 1.574 . S
C237 C14 1.574 . S
C251 C66 1.580 . S
C255 C27 1.577 . S
C269 C40 1.578 . S
C273 C79 1.581 . S
C287 C205 1.578 . S
C291 C105 1.603 . S
C305 C157 1.602 . S
C309 C127 1.574 . S
C323 C131 1.599 . S
C327 C179 1.575 . S
C341 C153 1.583 . S
C345 C183 1.601 . S
C359 C36 1.515 . S
C363 C10 1.515 . S
C377 C23 1.502 . S
C381 C49 1.502 . S
C395 C62 1.517 . S
C399 C88 1.517 . S
C413 C101 1.502 . S
C417 C75 1.502 . S
C431 C114 1.559 . S
C435 C140 1.562 . S
C449 C118 1.513 . S
C453 C144 1.513 . S
C467 C192 1.559 . S
C471 C166 1.561 . S
C485 C170 1.511 . S
C489 C196 1.511 . S
C503 C81 1.578 . S
C507 C3 1.576 . S
C521 C16 1.577 . S
C525 C94 1.577 . S
C539 C29 1.573 . S
C543 C55 1.578 . S
C557 C42 1.572 . S
C561 C68 1.570 . S
C575 C107 1.586 . S
C579 C185 1.586 . S
C593 C122 1.576 . S
C597 C200 1.570 . S
C611 C133 1.588 . S
C615 C159 1.588 . S
C629 C148 1.573 . S
C633 C174 1.570 . S
C647 C5 1.631 1_565 S
C651 C198 1.634 . S
C665 C161 1.673 . S
C669 C18 1.632 . S
C683 C31 1.637 . S
C687 C172 1.627 1_455 S
C701 C187 1.674 1_545 S
C705 C44 1.630 1_655 S
C719 C120 1.637 . S
C723 C57 1.627 . S
C737 C70 1.631 1_655 S
C741 C135 1.674 . S
C755 C146 1.631 1_455 S
C759 C83 1.633 1_565 S
C773 C109 1.673 1_545 S
C777 C96 1.631 . S
