# Generated by pormake.
# Topology uox, (4)-cn, num edge types: 1
# Building blocks:
#     Node 0, Type 0, BuildingBlock: CEKHIL_clean_sbu_0, # of connection points: 4
#     Node 1, Type 0, BuildingBlock: CEKHIL_clean_sbu_0, # of connection points: 4
#     Node 2, Type 0, BuildingBlock: CEKHIL_clean_sbu_0, # of connection points: 4
#     Node 3, Type 0, BuildingBlock: CEKHIL_clean_sbu_0, # of connection points: 4
#     Node 4, Type 0, BuildingBlock: CEKHIL_clean_sbu_0, # of connection points: 4
#     Node 5, Type 0, BuildingBlock: CEKHIL_clean_sbu_0, # of connection points: 4
#     Node 6, Type 0, BuildingBlock: CEKHIL_clean_sbu_0, # of connection points: 4
#     Node 7, Type 0, BuildingBlock: CEKHIL_clean_sbu_0, # of connection points: 4
#     Node 8, Type 0, BuildingBlock: CEKHIL_clean_sbu_0, # of connection points: 4
#     Node 9, Type 0, BuildingBlock: CEKHIL_clean_sbu_0, # of connection points: 4
#     Node 10, Type 0, BuildingBlock: CEKHIL_clean_sbu_0, # of connection points: 4
#     Node 11, Type 0, BuildingBlock: CEKHIL_clean_sbu_0, # of connection points: 4
#     Node 12, Type 0, BuildingBlock: CEKHIL_clean_sbu_0, # of connection points: 4
#     Node 13, Type 0, BuildingBlock: CEKHIL_clean_sbu_0, # of connection points: 4
#     Node 14, Type 0, BuildingBlock: CEKHIL_clean_sbu_0, # of connection points: 4
#     Node 15, Type 0, BuildingBlock: CEKHIL_clean_sbu_0, # of connection points: 4
#     Node 16, Type 0, BuildingBlock: CEKHIL_clean_sbu_0, # of connection points: 4
#     Node 17, Type 0, BuildingBlock: CEKHIL_clean_sbu_0, # of connection points: 4
#     Node 18, Type 0, BuildingBlock: CEKHIL_clean_sbu_0, # of connection points: 4
#     Node 19, Type 0, BuildingBlock: CEKHIL_clean_sbu_0, # of connection points: 4
#     Node 20, Type 0, BuildingBlock: CEKHIL_clean_sbu_0, # of connection points: 4
#     Node 21, Type 0, BuildingBlock: CEKHIL_clean_sbu_0, # of connection points: 4
#     Node 22, Type 0, BuildingBlock: CEKHIL_clean_sbu_0, # of connection points: 4
#     Node 23, Type 0, BuildingBlock: CEKHIL_clean_sbu_0, # of connection points: 4
#     Node 24, Type 0, BuildingBlock: CEKHIL_clean_sbu_0, # of connection points: 4
#     Node 25, Type 0, BuildingBlock: CEKHIL_clean_sbu_0, # of connection points: 4
#     Node 26, Type 0, BuildingBlock: CEKHIL_clean_sbu_0, # of connection points: 4
#     Node 27, Type 0, BuildingBlock: CEKHIL_clean_sbu_0, # of connection points: 4
#     Node 28, Type 0, BuildingBlock: CEKHIL_clean_sbu_0, # of connection points: 4
#     Node 29, Type 0, BuildingBlock: CEKHIL_clean_sbu_0, # of connection points: 4
#     Node 30, Type 0, BuildingBlock: CEKHIL_clean_sbu_0, # of connection points: 4
#     Node 31, Type 0, BuildingBlock: CEKHIL_clean_sbu_0, # of connection points: 4
#     Edge 32, Type (0, 0), BuildingBlock: MIFKUJ_clean_linker_0, # of connection points: 2
#     Edge 33, Type (0, 0), BuildingBlock: MIFKUJ_clean_linker_0, # of connection points: 2
#     Edge 34, Type (0, 0), BuildingBlock: MIFKUJ_clean_linker_0, # of connection points: 2
#     Edge 35, Type (0, 0), BuildingBlock: MIFKUJ_clean_linker_0, # of connection points: 2
#     Edge 36, Type (0, 0), BuildingBlock: MIFKUJ_clean_linker_0, # of connection points: 2
#     Edge 37, Type (0, 0), BuildingBlock: MIFKUJ_clean_linker_0, # of connection points: 2
#     Edge 38, Type (0, 0), BuildingBlock: MIFKUJ_clean_linker_0, # of connection points: 2
#     Edge 39, Type (0, 0), BuildingBlock: MIFKUJ_clean_linker_0, # of connection points: 2
#     Edge 40, Type (0, 0), BuildingBlock: MIFKUJ_clean_linker_0, # of connection points: 2
#     Edge 41, Type (0, 0), BuildingBlock: MIFKUJ_clean_linker_0, # of connection points: 2
#     Edge 42, Type (0, 0), BuildingBlock: MIFKUJ_clean_linker_0, # of connection points: 2
#     Edge 43, Type (0, 0), BuildingBlock: MIFKUJ_clean_linker_0, # of connection points: 2
#     Edge 44, Type (0, 0), BuildingBlock: MIFKUJ_clean_linker_0, # of connection points: 2
#     Edge 45, Type (0, 0), BuildingBlock: MIFKUJ_clean_linker_0, # of connection points: 2
#     Edge 46, Type (0, 0), BuildingBlock: MIFKUJ_clean_linker_0, # of connection points: 2
#     Edge 47, Type (0, 0), BuildingBlock: MIFKUJ_clean_linker_0, # of connection points: 2
#     Edge 48, Type (0, 0), BuildingBlock: MIFKUJ_clean_linker_0, # of connection points: 2
#     Edge 49, Type (0, 0), BuildingBlock: MIFKUJ_clean_linker_0, # of connection points: 2
#     Edge 50, Type (0, 0), BuildingBlock: MIFKUJ_clean_linker_0, # of connection points: 2
#     Edge 51, Type (0, 0), BuildingBlock: MIFKUJ_clean_linker_0, # of connection points: 2
#     Edge 52, Type (0, 0), BuildingBlock: MIFKUJ_clean_linker_0, # of connection points: 2
#     Edge 53, Type (0, 0), BuildingBlock: MIFKUJ_clean_linker_0, # of connection points: 2
#     Edge 54, Type (0, 0), BuildingBlock: MIFKUJ_clean_linker_0, # of connection points: 2
#     Edge 55, Type (0, 0), BuildingBlock: MIFKUJ_clean_linker_0, # of connection points: 2
#     Edge 56, Type (0, 0), BuildingBlock: MIFKUJ_clean_linker_0, # of connection points: 2
#     Edge 57, Type (0, 0), BuildingBlock: MIFKUJ_clean_linker_0, # of connection points: 2
#     Edge 58, Type (0, 0), BuildingBlock: MIFKUJ_clean_linker_0, # of connection points: 2
#     Edge 59, Type (0, 0), BuildingBlock: MIFKUJ_clean_linker_0, # of connection points: 2
#     Edge 60, Type (0, 0), BuildingBlock: MIFKUJ_clean_linker_0, # of connection points: 2
#     Edge 61, Type (0, 0), BuildingBlock: MIFKUJ_clean_linker_0, # of connection points: 2
#     Edge 62, Type (0, 0), BuildingBlock: MIFKUJ_clean_linker_0, # of connection points: 2
#     Edge 63, Type (0, 0), BuildingBlock: MIFKUJ_clean_linker_0, # of connection points: 2
#     Edge 64, Type (0, 0), BuildingBlock: MIFKUJ_clean_linker_0, # of connection points: 2
#     Edge 65, Type (0, 0), BuildingBlock: MIFKUJ_clean_linker_0, # of connection points: 2
#     Edge 66, Type (0, 0), BuildingBlock: MIFKUJ_clean_linker_0, # of connection points: 2
#     Edge 67, Type (0, 0), BuildingBlock: MIFKUJ_clean_linker_0, # of connection points: 2
#     Edge 68, Type (0, 0), BuildingBlock: MIFKUJ_clean_linker_0, # of connection points: 2
#     Edge 69, Type (0, 0), BuildingBlock: MIFKUJ_clean_linker_0, # of connection points: 2
#     Edge 70, Type (0, 0), BuildingBlock: MIFKUJ_clean_linker_0, # of connection points: 2
#     Edge 71, Type (0, 0), BuildingBlock: MIFKUJ_clean_linker_0, # of connection points: 2
#     Edge 72, Type (0, 0), BuildingBlock: MIFKUJ_clean_linker_0, # of connection points: 2
#     Edge 73, Type (0, 0), BuildingBlock: MIFKUJ_clean_linker_0, # of connection points: 2
#     Edge 74, Type (0, 0), BuildingBlock: MIFKUJ_clean_linker_0, # of connection points: 2
#     Edge 75, Type (0, 0), BuildingBlock: MIFKUJ_clean_linker_0, # of connection points: 2
#     Edge 76, Type (0, 0), BuildingBlock: MIFKUJ_clean_linker_0, # of connection points: 2
#     Edge 77, Type (0, 0), BuildingBlock: MIFKUJ_clean_linker_0, # of connection points: 2
#     Edge 78, Type (0, 0), BuildingBlock: MIFKUJ_clean_linker_0, # of connection points: 2
#     Edge 79, Type (0, 0), BuildingBlock: MIFKUJ_clean_linker_0, # of connection points: 2
#     Edge 80, Type (0, 0), BuildingBlock: MIFKUJ_clean_linker_0, # of connection points: 2
#     Edge 81, Type (0, 0), BuildingBlock: MIFKUJ_clean_linker_0, # of connection points: 2
#     Edge 82, Type (0, 0), BuildingBlock: MIFKUJ_clean_linker_0, # of connection points: 2
#     Edge 83, Type (0, 0), BuildingBlock: MIFKUJ_clean_linker_0, # of connection points: 2
#     Edge 84, Type (0, 0), BuildingBlock: MIFKUJ_clean_linker_0, # of connection points: 2
#     Edge 85, Type (0, 0), BuildingBlock: MIFKUJ_clean_linker_0, # of connection points: 2
#     Edge 86, Type (0, 0), BuildingBlock: MIFKUJ_clean_linker_0, # of connection points: 2
#     Edge 87, Type (0, 0), BuildingBlock: MIFKUJ_clean_linker_0, # of connection points: 2
#     Edge 88, Type (0, 0), BuildingBlock: MIFKUJ_clean_linker_0, # of connection points: 2
#     Edge 89, Type (0, 0), BuildingBlock: MIFKUJ_clean_linker_0, # of connection points: 2
#     Edge 90, Type (0, 0), BuildingBlock: MIFKUJ_clean_linker_0, # of connection points: 2
#     Edge 91, Type (0, 0), BuildingBlock: MIFKUJ_clean_linker_0, # of connection points: 2
#     Edge 92, Type (0, 0), BuildingBlock: MIFKUJ_clean_linker_0, # of connection points: 2
#     Edge 93, Type (0, 0), BuildingBlock: MIFKUJ_clean_linker_0, # of connection points: 2
#     Edge 94, Type (0, 0), BuildingBlock: MIFKUJ_clean_linker_0, # of connection points: 2
#     Edge 95, Type (0, 0), BuildingBlock: MIFKUJ_clean_linker_0, # of connection points: 2
# Relax obj value: 0.061
# Max RMSD: 0.089
# Mean RMSD: 0.089
data_MOF--net-uox--node1-CEKHIL_clean_sbu_0--edge1-MIFKUJ_clean_linker_0
_symmetry_space_group_name_H-M    P1
_symmetry_Int_Tables_number       1
_symmetry_cell_setting            triclinic
loop_
_symmetry_equiv_pos_as_xyz
'x, y, z'
_cell_length_a     59.755417
_cell_length_b     59.752023
_cell_length_c     99.532943
_cell_angle_alpha  90.000856
_cell_angle_beta   89.99943
_cell_angle_gamma 89.997692
loop_
_atom_site_label
_atom_site_type_symbol
_atom_site_fract_x
_atom_site_fract_y
_atom_site_fract_z
_atom_type_partial_charge
Co0 Co 0.41721 0.05252 0.16275 0.0
O1 O 0.42403 0.02933 0.17566 0.0
O2 O 0.39936 0.05644 0.17885 0.0
C3 C 0.45293 0.06163 0.15758 0.0
O4 O 0.40629 0.07984 0.15215 0.0
Co5 Co 0.43112 0.04806 0.13276 0.0
O6 O 0.42354 0.0803 0.13208 0.0
C7 C 0.39205 0.02277 0.14283 0.0
C8 C 0.4096 0.0389 0.18354 0.0
C9 C 0.4113 0.08956 0.14097 0.0
O10 O 0.39355 0.03269 0.15431 0.0
O11 O 0.40619 0.02564 0.13332 0.0
O12 O 0.44352 0.06961 0.16832 0.0
O13 O 0.44139 0.0468 0.15116 0.0
Co14 Co 0.19939 0.16899 0.41311 0.0
O15 O 0.22235 0.17611 0.4261 0.0
O16 O 0.19596 0.15065 0.42908 0.0
C17 C 0.18945 0.2046 0.40824 0.0
O18 O 0.17234 0.15769 0.4024 0.0
Co19 Co 0.20358 0.18365 0.38326 0.0
O20 O 0.17144 0.17564 0.38256 0.0
C21 C 0.22964 0.14482 0.39296 0.0
C22 C 0.21319 0.16128 0.43388 0.0
C23 C 0.16244 0.16293 0.39131 0.0
O24 O 0.2198 0.14596 0.40448 0.0
O25 O 0.22641 0.15906 0.38354 0.0
O26 O 0.18166 0.19473 0.41889 0.0
O27 O 0.20456 0.19358 0.40174 0.0
Co28 Co 0.08101 0.94994 0.66287 0.0
O29 O 0.07359 0.97368 0.67526 0.0
O30 O 0.09879 0.94739 0.67912 0.0
C31 C 0.04549 0.94011 0.6577 0.0
O32 O 0.09238 0.92211 0.65293 0.0
Co33 Co 0.06761 0.95244 0.63273 0.0
O34 O 0.0748 0.92006 0.633 0.0
C35 C 0.10608 0.97895 0.64248 0.0
C36 C 0.08811 0.96496 0.68342 0.0
C37 C 0.08711 0.91148 0.64209 0.0
O38 O 0.10455 0.96957 0.65412 0.0
O39 O 0.09211 0.97537 0.63296 0.0
O40 O 0.05481 0.93286 0.66866 0.0
O41 O 0.05699 0.95466 0.65103 0.0
Co42 Co 0.30269 0.83367 0.91336 0.0
O43 O 0.27994 0.82696 0.92653 0.0
O44 O 0.30672 0.85207 0.92927 0.0
C45 C 0.31198 0.79793 0.90843 0.0
O46 O 0.32964 0.84434 0.90236 0.0
Co47 Co 0.29694 0.81876 0.8836 0.0
O48 O 0.32915 0.82661 0.88242 0.0
C49 C 0.27093 0.85709 0.89388 0.0
C50 C 0.28943 0.84171 0.93422 0.0
C51 C 0.33888 0.83895 0.89109 0.0
O52 O 0.28249 0.85698 0.90483 0.0
O53 O 0.27289 0.84209 0.88477 0.0
O54 O 0.32018 0.80765 0.91902 0.0
O55 O 0.29681 0.80917 0.90213 0.0
Co56 Co 0.42096 0.94912 0.3415 0.0
O57 O 0.42773 0.97217 0.32848 0.0
O58 O 0.40234 0.94565 0.32569 0.0
C59 C 0.45667 0.93927 0.34619 0.0
O60 O 0.40998 0.92193 0.35217 0.0
Co61 Co 0.4361 0.95297 0.37129 0.0
O62 O 0.42857 0.92068 0.37179 0.0
C63 C 0.39717 0.97923 0.36186 0.0
C64 C 0.41277 0.96294 0.32081 0.0
C65 C 0.41569 0.91178 0.36309 0.0
O66 O 0.39798 0.96938 0.35033 0.0
O67 O 0.41167 0.97596 0.37114 0.0
O68 O 0.44673 0.93152 0.33555 0.0
O69 O 0.44566 0.95431 0.35276 0.0
Co70 Co 0.30265 0.17024 0.59211 0.0
O71 O 0.27934 0.17766 0.57938 0.0
O72 O 0.30576 0.15241 0.57594 0.0
C73 C 0.3124 0.20576 0.59741 0.0
O74 O 0.33009 0.1587 0.6023 0.0
Co75 Co 0.29994 0.1837 0.6222 0.0
O76 O 0.33241 0.17682 0.62203 0.0
C77 C 0.27354 0.14509 0.61238 0.0
C78 C 0.28837 0.16306 0.57137 0.0
C79 C 0.34085 0.16421 0.61304 0.0
O80 O 0.28265 0.14678 0.60067 0.0
O81 O 0.27733 0.15892 0.62195 0.0
O82 O 0.32008 0.19639 0.58656 0.0
O83 O 0.29762 0.1943 0.6039 0.0
Co84 Co 0.08277 0.0558 0.84167 0.0
O85 O 0.07498 0.03278 0.82887 0.0
O86 O 0.10041 0.05901 0.82541 0.0
C87 C 0.04742 0.06574 0.84723 0.0
O88 O 0.09452 0.0829 0.85209 0.0
Co89 Co 0.06966 0.05128 0.87182 0.0
O90 O 0.0785 0.08326 0.87255 0.0
C91 C 0.10647 0.02393 0.86091 0.0
C92 C 0.08951 0.04178 0.82081 0.0
C93 C 0.09029 0.09251 0.86343 0.0
O94 O 0.10625 0.0355 0.84997 0.0
O95 O 0.09191 0.02629 0.87024 0.0
O96 O 0.05656 0.07341 0.83632 0.0
O97 O 0.0589 0.05074 0.85352 0.0
Co98 Co 0.19648 0.83221 0.09149 0.0
O99 O 0.22002 0.82482 0.07892 0.0
O100 O 0.19406 0.85058 0.0755 0.0
C101 C 0.18595 0.79669 0.09624 0.0
O102 O 0.16908 0.84396 0.10164 0.0
Co103 Co 0.19858 0.81759 0.12144 0.0
O104 O 0.1665 0.82605 0.12144 0.0
C105 C 0.22599 0.85584 0.11217 0.0
C106 C 0.21144 0.83982 0.07101 0.0
C107 C 0.15837 0.83893 0.11248 0.0
O108 O 0.21667 0.85498 0.1005 0.0
O109 O 0.22205 0.84158 0.12148 0.0
O110 O 0.17874 0.80658 0.08545 0.0
O111 O 0.20078 0.80764 0.103 0.0
Co112 Co 0.58282 0.94398 0.84077 0.0
O113 O 0.57545 0.96673 0.8277 0.0
O114 O 0.60161 0.94099 0.82497 0.0
C115 C 0.54732 0.93342 0.84548 0.0
O116 O 0.59442 0.91715 0.85155 0.0
Co117 Co 0.56766 0.94803 0.87055 0.0
O118 O 0.57629 0.91603 0.87133 0.0
C119 C 0.60575 0.97518 0.86092 0.0
C120 C 0.5907 0.95796 0.82005 0.0
C121 C 0.5892 0.90719 0.86262 0.0
O122 O 0.60531 0.96483 0.84954 0.0
O123 O 0.59121 0.97191 0.87017 0.0
O124 O 0.55742 0.92579 0.83486 0.0
O125 O 0.55804 0.9487 0.85201 0.0
Co126 Co 0.80306 0.83097 0.59205 0.0
O127 O 0.78104 0.82223 0.57886 0.0
O128 O 0.80522 0.84986 0.57621 0.0
C129 C 0.81544 0.7961 0.59692 0.0
O130 O 0.82897 0.84403 0.60297 0.0
Co131 Co 0.79881 0.81575 0.62181 0.0
O132 O 0.83003 0.82691 0.62308 0.0
C133 C 0.76919 0.85124 0.61151 0.0
C134 C 0.78899 0.83795 0.57122 0.0
C135 C 0.83861 0.83985 0.61429 0.0
O136 O 0.78088 0.85234 0.60063 0.0
O137 O 0.77242 0.8364 0.62058 0.0
O138 O 0.82278 0.80656 0.58636 0.0
O139 O 0.79944 0.80601 0.60329 0.0
Co140 Co 0.91955 0.05337 0.34213 0.0
O141 O 0.92777 0.03128 0.32886 0.0
O142 O 0.90101 0.05641 0.32621 0.0
C143 C 0.95466 0.06476 0.34721 0.0
O144 O 0.90712 0.07946 0.35317 0.0
Co145 Co 0.93437 0.04812 0.37192 0.0
O146 O 0.92371 0.07947 0.37345 0.0
C147 C 0.89816 0.01972 0.36127 0.0
C148 C 0.91246 0.03989 0.32119 0.0
C149 C 0.9112 0.08862 0.36465 0.0
O150 O 0.89746 0.03167 0.35048 0.0
O151 O 0.91303 0.02233 0.3704 0.0
O152 O 0.94454 0.07248 0.33663 0.0
O153 O 0.94429 0.0489 0.35344 0.0
Co154 Co 0.69555 0.17056 0.09153 0.0
O155 O 0.71817 0.17877 0.07855 0.0
O156 O 0.69305 0.1521 0.07556 0.0
C157 C 0.68424 0.20579 0.09649 0.0
O158 O 0.66895 0.15803 0.10213 0.0
Co159 Co 0.69889 0.18516 0.12145 0.0
O160 O 0.66726 0.17538 0.12214 0.0
C161 C 0.72631 0.14726 0.11178 0.0
C162 C 0.70976 0.16352 0.07074 0.0
C163 C 0.65888 0.16246 0.11329 0.0
O164 O 0.71679 0.14828 0.10016 0.0
O165 O 0.72239 0.16124 0.12124 0.0
O166 O 0.67686 0.19575 0.08579 0.0
O167 O 0.69965 0.19521 0.103 0.0
Co168 Co 0.58021 0.05016 0.66275 0.0
O169 O 0.57158 0.02858 0.6762 0.0
O170 O 0.59936 0.05272 0.67846 0.0
C171 C 0.54536 0.06243 0.65788 0.0
O172 O 0.59305 0.07574 0.65144 0.0
Co173 Co 0.56451 0.04487 0.63312 0.0
O174 O 0.57466 0.0764 0.63172 0.0
C175 C 0.6006 0.01598 0.64347 0.0
C176 C 0.58745 0.03667 0.68366 0.0
C177 C 0.58798 0.08526 0.64021 0.0
O178 O 0.60147 0.02772 0.65433 0.0
O179 O 0.5858 0.019 0.63434 0.0
O180 O 0.55592 0.07011 0.66833 0.0
O181 O 0.55515 0.04617 0.6517 0.0
Co182 Co 0.69896 0.83142 0.41294 0.0
O183 O 0.72142 0.82331 0.42599 0.0
O184 O 0.69639 0.8501 0.42884 0.0
C185 C 0.68769 0.79622 0.40804 0.0
O186 O 0.67247 0.84367 0.40215 0.0
Co187 Co 0.70306 0.8164 0.38311 0.0
O188 O 0.67118 0.82565 0.38232 0.0
C189 C 0.73159 0.85303 0.39324 0.0
C190 C 0.71306 0.83866 0.43372 0.0
C191 C 0.66247 0.8386 0.39106 0.0
O192 O 0.72032 0.85352 0.40429 0.0
O193 O 0.72849 0.83826 0.3841 0.0
O194 O 0.68011 0.80636 0.41867 0.0
O195 O 0.70326 0.80669 0.40163 0.0
Co196 Co 0.91847 0.95151 0.16246 0.0
O197 O 0.92658 0.97478 0.17502 0.0
O198 O 0.90074 0.94906 0.17873 0.0
C199 C 0.95373 0.94098 0.15711 0.0
O200 O 0.90626 0.92421 0.15239 0.0
Co201 Co 0.93178 0.95389 0.13232 0.0
O202 O 0.9242 0.92158 0.1326 0.0
C203 C 0.89412 0.98145 0.14228 0.0
C204 C 0.91189 0.96625 0.18315 0.0
C205 C 0.91151 0.91336 0.14163 0.0
O206 O 0.8954 0.97192 0.15389 0.0
O207 O 0.90796 0.97753 0.13274 0.0
O208 O 0.94428 0.93358 0.16801 0.0
O209 O 0.94252 0.95592 0.1506 0.0
Co210 Co 0.80108 0.16693 0.9126 0.0
O211 O 0.77738 0.17486 0.92494 0.0
O212 O 0.80333 0.14935 0.92893 0.0
C213 C 0.81146 0.20228 0.9073 0.0
O214 O 0.82873 0.15486 0.90281 0.0
Co215 Co 0.79973 0.17996 0.88239 0.0
O216 O 0.83221 0.17336 0.88325 0.0
C217 C 0.77274 0.14159 0.89201 0.0
C218 C 0.78593 0.16035 0.93319 0.0
C219 C 0.84006 0.1605 0.8923 0.0
O220 O 0.78114 0.14359 0.90389 0.0
O221 O 0.7772 0.15506 0.88236 0.0
O222 O 0.81853 0.19295 0.9183 0.0
O223 O 0.79686 0.19088 0.90061 0.0
Co224 Co 0.91823 0.54861 0.66007 0.0
O225 O 0.92593 0.52551 0.67283 0.0
O226 O 0.89967 0.55098 0.67604 0.0
C227 C 0.95359 0.55954 0.65532 0.0
O228 O 0.90643 0.57576 0.64962 0.0
Co229 Co 0.93306 0.54546 0.63019 0.0
O230 O 0.9252 0.57766 0.63007 0.0
C231 C 0.89455 0.51864 0.63951 0.0
C232 C 0.91076 0.53391 0.68069 0.0
C233 C 0.91213 0.58622 0.63879 0.0
O234 O 0.89572 0.52791 0.6512 0.0
O235 O 0.90856 0.52255 0.63007 0.0
O236 O 0.94355 0.5668 0.66605 0.0
O237 O 0.94293 0.54432 0.64869 0.0
Co238 Co 0.70192 0.66754 0.91303 0.0
O239 O 0.72479 0.67384 0.92621 0.0
O240 O 0.69793 0.64868 0.92873 0.0
C241 C 0.69232 0.70336 0.90855 0.0
O242 O 0.67497 0.65708 0.90193 0.0
Co243 Co 0.70749 0.68341 0.88342 0.0
O244 O 0.67573 0.67428 0.88181 0.0
C245 C 0.73368 0.64482 0.89322 0.0
C246 C 0.71528 0.65886 0.93372 0.0
C247 C 0.66602 0.66194 0.89049 0.0
O248 O 0.72223 0.64462 0.90421 0.0
O249 O 0.73154 0.66006 0.88427 0.0
O250 O 0.68435 0.69324 0.91906 0.0
O251 O 0.70754 0.69247 0.90206 0.0
Co252 Co 0.58316 0.45056 0.16346 0.0
O253 O 0.57507 0.47214 0.17703 0.0
O254 O 0.60227 0.44734 0.17914 0.0
C255 C 0.5481 0.43889 0.15861 0.0
O256 O 0.59544 0.42494 0.15195 0.0
Co257 Co 0.56734 0.45684 0.1339 0.0
O258 O 0.57786 0.42553 0.13195 0.0
C259 C 0.60427 0.48456 0.1443 0.0
C260 C 0.59073 0.46356 0.18445 0.0
C261 C 0.59081 0.41613 0.14043 0.0
O262 O 0.60486 0.47265 0.1551 0.0
O263 O 0.58931 0.48211 0.13521 0.0
O264 O 0.55858 0.43102 0.16903 0.0
O265 O 0.55807 0.45511 0.15248 0.0
Co266 Co 0.80375 0.33313 0.41277 0.0
O267 O 0.78102 0.32437 0.42552 0.0
O268 O 0.80589 0.35113 0.42897 0.0
C269 C 0.81517 0.29814 0.40744 0.0
O270 O 0.8305 0.34598 0.40244 0.0
Co271 Co 0.80061 0.31967 0.38267 0.0
O272 O 0.83259 0.32841 0.3825 0.0
C273 C 0.77291 0.35698 0.39279 0.0
C274 C 0.78919 0.33942 0.43354 0.0
C275 C 0.84093 0.34119 0.39145 0.0
O276 O 0.78258 0.35565 0.40435 0.0
O277 O 0.77684 0.34333 0.38316 0.0
O278 O 0.82241 0.30783 0.41829 0.0
O279 O 0.79981 0.3089 0.40099 0.0
Co280 Co 0.91829 0.44386 0.83906 0.0
O281 O 0.92631 0.46586 0.82573 0.0
O282 O 0.89982 0.44044 0.82308 0.0
C283 C 0.95354 0.43313 0.84416 0.0
O284 O 0.9061 0.4179 0.8503 0.0
Co285 Co 0.9332 0.44989 0.86874 0.0
O286 O 0.92292 0.41841 0.87052 0.0
C287 C 0.89688 0.47784 0.85789 0.0
C288 C 0.91107 0.45714 0.81807 0.0
C289 C 0.9104 0.40897 0.86182 0.0
O290 O 0.89598 0.46545 0.84729 0.0
O291 O 0.91197 0.47575 0.86693 0.0
O292 O 0.94342 0.42477 0.83375 0.0
O293 O 0.94303 0.44901 0.85026 0.0
Co294 Co 0.80462 0.67086 0.09172 0.0
O295 O 0.7825 0.67835 0.07829 0.0
O296 O 0.80838 0.65219 0.07593 0.0
C297 C 0.81511 0.70628 0.09673 0.0
O298 O 0.83074 0.65904 0.10297 0.0
Co299 Co 0.79879 0.68599 0.12142 0.0
O300 O 0.83029 0.67585 0.12318 0.0
C301 C 0.7711 0.6492 0.11077 0.0
C302 C 0.79158 0.66308 0.07079 0.0
C303 C 0.83971 0.66335 0.11447 0.0
O304 O 0.78327 0.64845 0.10007 0.0
O305 O 0.77331 0.66429 0.11981 0.0
O306 O 0.82331 0.6962 0.08625 0.0
O307 O 0.79938 0.69561 0.10289 0.0
Co308 Co 0.58143 0.5526 0.34232 0.0
O309 O 0.57408 0.52964 0.32937 0.0
O310 O 0.60049 0.55511 0.3266 0.0
C311 C 0.54593 0.56339 0.34677 0.0
O312 O 0.59303 0.57964 0.3529 0.0
Co313 Co 0.56592 0.54964 0.37208 0.0
O314 O 0.57414 0.58177 0.37239 0.0
C315 C 0.60425 0.52227 0.36298 0.0
C316 C 0.58951 0.53815 0.32174 0.0
C317 C 0.58737 0.59017 0.3637 0.0
O318 O 0.60371 0.5319 0.35138 0.0
O319 O 0.58981 0.52608 0.3722 0.0
O320 O 0.55619 0.57077 0.33614 0.0
O321 O 0.55652 0.54826 0.3535 0.0
Co322 Co 0.69434 0.32938 0.59063 0.0
O323 O 0.71612 0.32021 0.57741 0.0
O324 O 0.692 0.34788 0.57462 0.0
C325 C 0.68224 0.29458 0.59593 0.0
O326 O 0.66851 0.34271 0.60156 0.0
Co327 Co 0.6989 0.31507 0.62052 0.0
O328 O 0.66746 0.32547 0.62163 0.0
C329 C 0.72729 0.35157 0.61008 0.0
C330 C 0.70811 0.33575 0.56969 0.0
C331 C 0.65883 0.33841 0.61287 0.0
O332 O 0.71657 0.35111 0.59883 0.0
O333 O 0.72374 0.33754 0.61957 0.0
O334 O 0.67463 0.30471 0.58531 0.0
O335 O 0.69825 0.30479 0.60211 0.0
Co336 Co 0.08376 0.4487 0.34209 0.0
O337 O 0.07643 0.47172 0.32918 0.0
O338 O 0.10209 0.44554 0.3261 0.0
C339 C 0.04821 0.43851 0.34699 0.0
O340 O 0.09537 0.42166 0.35269 0.0
Co341 Co 0.06899 0.45234 0.37198 0.0
O342 O 0.07756 0.42031 0.37257 0.0
C343 C 0.10697 0.47961 0.36219 0.0
C344 C 0.09135 0.46276 0.32138 0.0
C345 C 0.09032 0.41157 0.36374 0.0
O346 O 0.10656 0.46929 0.3508 0.0
O347 O 0.09246 0.47628 0.37145 0.0
O348 O 0.05807 0.43076 0.33633 0.0
O349 O 0.05921 0.45361 0.35349 0.0
Co350 Co 0.30429 0.33365 0.09213 0.0
O351 O 0.28148 0.32574 0.07925 0.0
O352 O 0.30682 0.35217 0.07616 0.0
C353 C 0.31504 0.29825 0.09701 0.0
O354 O 0.33128 0.34559 0.10267 0.0
Co355 Co 0.3009 0.31899 0.12203 0.0
O356 O 0.33311 0.32683 0.12222 0.0
C357 C 0.2738 0.35716 0.11244 0.0
C358 C 0.28996 0.34089 0.07141 0.0
C359 C 0.34171 0.33989 0.11351 0.0
O360 O 0.28342 0.35619 0.10085 0.0
O361 O 0.27756 0.34306 0.12186 0.0
O362 O 0.32256 0.30823 0.08632 0.0
O363 O 0.29983 0.30905 0.10356 0.0
Co364 Co 0.42075 0.55556 0.84227 0.0
O365 O 0.42868 0.53246 0.82952 0.0
O366 O 0.40219 0.5577 0.82633 0.0
C367 C 0.45603 0.56689 0.84704 0.0
O368 O 0.40849 0.58257 0.85258 0.0
Co369 Co 0.4355 0.55297 0.8722 0.0
O370 O 0.42599 0.58476 0.87254 0.0
C371 C 0.39882 0.52404 0.86251 0.0
C372 C 0.41344 0.54076 0.82167 0.0
C373 C 0.41319 0.59301 0.86357 0.0
O374 O 0.39848 0.53467 0.85123 0.0
O375 O 0.4135 0.52766 0.87164 0.0
O376 O 0.44602 0.57392 0.83624 0.0
O377 O 0.4454 0.55175 0.85373 0.0
Co378 Co 0.19695 0.67026 0.59183 0.0
O379 O 0.22017 0.67834 0.5792 0.0
O380 O 0.19445 0.65247 0.57558 0.0
C381 C 0.18646 0.7055 0.59723 0.0
O382 O 0.16964 0.65813 0.60194 0.0
Co383 Co 0.19952 0.68343 0.622 0.0
O384 O 0.16724 0.67579 0.62182 0.0
C385 C 0.2264 0.64532 0.61206 0.0
C386 C 0.21162 0.66359 0.57111 0.0
C387 C 0.15891 0.66323 0.61277 0.0
O388 O 0.21731 0.64709 0.60035 0.0
O389 O 0.22241 0.65892 0.62171 0.0
O390 O 0.1791 0.69613 0.5863 0.0
O391 O 0.20141 0.69425 0.60372 0.0
Co392 Co 0.08189 0.55275 0.16343 0.0
O393 O 0.07496 0.5299 0.17653 0.0
O394 O 0.1007 0.5561 0.1792 0.0
C395 C 0.04623 0.56292 0.15888 0.0
O396 O 0.09307 0.57968 0.15256 0.0
Co397 Co 0.06648 0.54843 0.13372 0.0
O398 O 0.07455 0.58056 0.1329 0.0
C399 C 0.10532 0.52215 0.14316 0.0
C400 C 0.09008 0.53898 0.18415 0.0
C401 C 0.08754 0.58954 0.1415 0.0
O402 O 0.10458 0.5322 0.15462 0.0
O403 O 0.09081 0.52532 0.13388 0.0
O404 O 0.05639 0.57065 0.16944 0.0
O405 O 0.057 0.54772 0.15229 0.0
Co406 Co 0.19855 0.33511 0.91352 0.0
O407 O 0.21985 0.32558 0.9269 0.0
O408 O 0.19563 0.35319 0.92967 0.0
C409 C 0.18648 0.30059 0.90764 0.0
O410 O 0.17315 0.34859 0.90236 0.0
Co411 Co 0.20516 0.3216 0.88355 0.0
O412 O 0.1751 0.33513 0.88121 0.0
C413 C 0.23373 0.35646 0.89533 0.0
C414 C 0.21157 0.34092 0.93468 0.0
C415 C 0.16534 0.34651 0.89033 0.0
O416 O 0.22102 0.35711 0.9058 0.0
O417 O 0.23159 0.34184 0.88602 0.0
O418 O 0.17863 0.31034 0.91832 0.0
O419 O 0.20283 0.31087 0.90184 0.0
Co420 Co 0.41804 0.44999 0.66335 0.0
O421 O 0.426 0.47351 0.67579 0.0
O422 O 0.40031 0.44769 0.67964 0.0
C423 C 0.45339 0.43958 0.6581 0.0
O424 O 0.40601 0.42247 0.6534 0.0
Co425 Co 0.43149 0.45198 0.63318 0.0
O426 O 0.42394 0.41968 0.63361 0.0
C427 C 0.39361 0.47946 0.64296 0.0
C428 C 0.4114 0.46497 0.68398 0.0
C429 C 0.41127 0.41153 0.64267 0.0
O430 O 0.39484 0.47013 0.65463 0.0
O431 O 0.40756 0.47549 0.63349 0.0
O432 O 0.444 0.43239 0.66905 0.0
O433 O 0.44207 0.4543 0.65147 0.0
Co434 Co 0.30299 0.67116 0.41291 0.0
O435 O 0.2804 0.67938 0.42586 0.0
O436 O 0.30532 0.65254 0.42887 0.0
C437 C 0.31444 0.70632 0.40808 0.0
O438 O 0.32962 0.65882 0.40222 0.0
Co439 Co 0.29931 0.68608 0.38306 0.0
O440 O 0.33124 0.67725 0.38254 0.0
C441 C 0.27237 0.64778 0.39257 0.0
C442 C 0.28867 0.66409 0.43367 0.0
C443 C 0.33978 0.66407 0.39121 0.0
O444 O 0.28175 0.64897 0.40422 0.0
O445 O 0.27626 0.66173 0.38308 0.0
O446 O 0.32177 0.69613 0.41875 0.0
O447 O 0.2989 0.69594 0.40156 0.0
H448 H 0.42231 0.00422 0.3105 0.0
H449 H 0.41808 0.01685 0.28717 0.0
H450 H 0.39114 0.95246 0.27629 0.0
H451 H 0.39466 0.93991 0.29969 0.0
H452 H 0.43143 0.97238 0.26036 0.0
H453 H 0.35573 0.98722 0.27592 0.0
H454 H 0.32834 0.00401 0.29147 0.0
H455 H 0.35383 0.06952 0.28251 0.0
H456 H 0.38161 0.05307 0.26705 0.0
H457 H 0.41006 0.99577 0.19236 0.0
H458 H 0.40672 0.9824 0.21549 0.0
H459 H 0.39991 0.05059 0.2293 0.0
H460 H 0.40136 0.06372 0.20601 0.0
H461 H 0.37593 0.02803 0.2443 0.0
H462 H 0.45174 0.01708 0.23056 0.0
H463 H 0.48276 0.00362 0.21635 0.0
H464 H 0.46256 0.93563 0.22327 0.0
H465 H 0.43124 0.9487 0.2374 0.0
C466 C 0.41525 0.99283 0.30317 0.0
C467 C 0.40879 0.97108 0.30693 0.0
C468 C 0.41283 1.00008 0.28986 0.0
C469 C 0.40431 0.98558 0.28003 0.0
C470 C 0.39771 0.9639 0.28375 0.0
C471 C 0.39966 0.9568 0.29712 0.0
C472 C 0.40321 0.99277 0.26576 0.0
C473 C 0.41909 0.98427 0.25675 0.0
C474 C 0.38773 0.00899 0.26125 0.0
C475 C 0.3709 0.01888 0.27044 0.0
C476 C 0.35564 0.00518 0.27736 0.0
C477 C 0.34001 0.01464 0.28614 0.0
C478 C 0.33938 0.03781 0.28801 0.0
C479 C 0.35435 0.05157 0.28107 0.0
C480 C 0.37002 0.04219 0.27229 0.0
C481 C 0.40759 0.00784 0.20035 0.0
C482 C 0.40606 0.03077 0.19743 0.0
C483 C 0.40592 1.00023 0.21362 0.0
C484 C 0.40379 0.01546 0.22434 0.0
C485 C 0.40164 0.03839 0.22132 0.0
C486 C 0.40251 0.04593 0.20799 0.0
C487 C 0.4042 0.00759 0.23865 0.0
C488 C 0.38827 0.01603 0.24776 0.0
C489 C 0.42016 0.99181 0.24338 0.0
C490 C 0.43901 0.98388 0.23492 0.0
C491 C 0.45383 0.99926 0.22898 0.0
C492 C 0.47148 0.99171 0.22095 0.0
C493 C 0.47459 0.96879 0.21888 0.0
C494 C 0.46011 0.95337 0.22487 0.0
C495 C 0.44242 0.96085 0.2329 0.0
H496 H 0.48826 0.96297 0.21266 0.0
H497 H 0.32728 0.0451 0.29481 0.0
H498 H 0.30858 0.14065 0.55061 0.0
H499 H 0.29553 0.13753 0.52729 0.0
H500 H 0.23579 0.17414 0.53749 0.0
H501 H 0.24886 0.17779 0.56072 0.0
H502 H 0.24398 0.12208 0.51787 0.0
H503 H 0.24655 0.20771 0.52312 0.0
H504 H 0.26788 0.24045 0.53121 0.0
H505 H 0.3265 0.21667 0.51072 0.0
H506 H 0.30551 0.18366 0.50267 0.0
H507 H 0.18994 0.14514 0.4555 0.0
H508 H 0.20259 0.14284 0.47884 0.0
H509 H 0.26798 0.16627 0.46687 0.0
H510 H 0.25488 0.16985 0.44371 0.0
H511 H 0.25845 0.18672 0.48781 0.0
H512 H 0.25456 0.10889 0.47684 0.0
H513 H 0.23746 0.0739 0.46864 0.0
H514 H 0.18707 0.07813 0.49929 0.0
H515 H 0.20371 0.1133 0.50758 0.0
C516 C 0.29257 0.14788 0.54792 0.0
C517 C 0.27981 0.15956 0.55752 0.0
C518 C 0.28515 0.14607 0.5346 0.0
C519 C 0.26477 0.15571 0.53067 0.0
C520 C 0.25164 0.16672 0.54031 0.0
C521 C 0.25915 0.16878 0.55358 0.0
C522 C 0.25766 0.15525 0.51638 0.0
C523 C 0.24687 0.13623 0.51127 0.0
C524 C 0.26213 0.17337 0.50772 0.0
C525 C 0.27458 0.19323 0.51243 0.0
C526 C 0.26402 0.20944 0.52043 0.0
C527 C 0.27604 0.22803 0.52499 0.0
C528 C 0.29855 0.23061 0.52151 0.0
C529 C 0.30908 0.21463 0.51343 0.0
C530 C 0.29715 0.19599 0.50888 0.0
C531 C 0.20708 0.14957 0.45785 0.0
C532 C 0.22143 0.15766 0.44777 0.0
C533 C 0.21438 0.14813 0.47122 0.0
C534 C 0.23643 0.15408 0.47473 0.0
C535 C 0.25089 0.16164 0.46454 0.0
C536 C 0.24342 0.1636 0.45126 0.0
C537 C 0.24415 0.15356 0.48905 0.0
C538 C 0.25529 0.17242 0.49425 0.0
C539 C 0.24027 0.13502 0.49769 0.0
C540 C 0.23027 0.11384 0.49275 0.0
C541 C 0.23974 0.10244 0.48178 0.0
C542 C 0.23015 0.08256 0.47712 0.0
C543 C 0.21116 0.07383 0.48342 0.0
C544 C 0.20176 0.08493 0.49441 0.0
C545 C 0.21128 0.10482 0.4991 0.0
H546 H 0.20375 0.05844 0.47979 0.0
H547 H 0.30782 0.24502 0.52505 0.0
H548 H 0.11498 0.05988 0.80057 0.0
H549 H 0.11715 0.0475 0.77711 0.0
H550 H 0.07335 0.99215 0.78616 0.0
H551 H 0.07076 0.00464 0.80947 0.0
H552 H 0.13091 0.01078 0.76413 0.0
H553 H 0.03827 0.9829 0.76029 0.0
H554 H 0.00173 0.9921 0.77044 0.0
H555 H 0.02495 0.05844 0.77943 0.0
H556 H 0.0615 0.04973 0.76917 0.0
H557 H 0.11276 0.94716 0.70412 0.0
H558 H 0.11554 0.96103 0.72723 0.0
H559 H 0.07377 0.01735 0.71687 0.0
H560 H 0.07051 0.0033 0.69392 0.0
H561 H 0.05973 1.00061 0.73922 0.0
H562 H 0.13143 0.02235 0.72245 0.0
H563 H 0.16811 0.0171 0.71155 0.0
H564 H 0.18711 0.97023 0.74219 0.0
H565 H 0.1504 0.97497 0.75319 0.0
C566 C 0.10594 0.04498 0.79758 0.0
C567 C 0.09253 0.03337 0.80688 0.0
C568 C 0.10724 0.03789 0.78416 0.0
C569 C 0.09514 0.01908 0.77978 0.0
C570 C 0.0825 0.00696 0.7892 0.0
C571 C 0.0811 0.01409 0.80256 0.0
C572 C 0.09497 0.01257 0.7653 0.0
C573 C 0.11535 0.00852 0.75869 0.0
C574 C 0.07472 0.01006 0.75805 0.0
C575 C 0.05269 0.01557 0.76408 0.0
C576 C 0.03554 0.99947 0.76438 0.0
C577 C 0.01484 0.0046 0.77016 0.0
C578 C 0.01105 0.02582 0.77561 0.0
C579 C 0.02793 0.04198 0.77525 0.0
C580 C 0.04865 0.03695 0.76947 0.0
C581 C 0.10434 0.96261 0.70674 0.0
C582 C 0.09139 0.9741 0.69717 0.0
C583 C 0.10601 0.97058 0.71996 0.0
C584 C 0.09497 0.99036 0.72384 0.0
C585 C 0.08238 0.00202 0.7142 0.0
C586 C 0.08059 0.994 0.70104 0.0
C587 C 0.09567 0.99846 0.73804 0.0
C588 C 0.07534 0.0028 0.74463 0.0
C589 C 0.11599 0.00172 0.74514 0.0
C590 C 0.13808 0.99886 0.73857 0.0
C591 C 0.14336 0.01079 0.72681 0.0
C592 C 0.16417 0.00793 0.72062 0.0
C593 C 0.17991 0.9933 0.72615 0.0
C594 C 0.17489 0.98153 0.73791 0.0
C595 C 0.1541 0.98432 0.74413 0.0
H596 H 0.19601 0.99111 0.72135 0.0
H597 H 0.99502 0.02974 0.78009 0.0
H598 H 0.24939 0.82926 0.94505 0.0
H599 H 0.2372 0.83272 0.96846 0.0
H600 H 0.29944 0.86501 0.97854 0.0
H601 H 0.31159 0.86217 0.95501 0.0
H602 H 0.27245 0.81615 0.99278 0.0
H603 H 0.27763 0.89919 0.98542 0.0
H604 H 0.26832 0.93231 0.9717 0.0
H605 H 0.19857 0.91521 0.97355 0.0
H606 H 0.20758 0.88181 0.98713 0.0
H607 H 0.25372 0.83141 0.06202 0.0
H608 H 0.26812 0.83539 0.03916 0.0
H609 H 0.20357 0.85934 0.02601 0.0
H610 H 0.18959 0.85666 0.04908 0.0
H611 H 0.23244 0.88081 0.01281 0.0
H612 H 0.22339 0.80262 0.02141 0.0
H613 H 0.2282 0.76689 0.03348 0.0
H614 H 0.29928 0.77044 0.02754 0.0
H615 H 0.29492 0.80635 0.01558 0.0
C616 C 0.26039 0.83738 0.9522 0.0
C617 C 0.28145 0.84548 0.94816 0.0
C618 C 0.25337 0.83935 0.96556 0.0
C619 C 0.26734 0.84928 0.97519 0.0
C620 C 0.2883 0.85757 0.97121 0.0
C621 C 0.2952 0.85593 0.95777 0.0
C622 C 0.26044 0.84961 0.98951 0.0
C623 C 0.26408 0.83041 0.99729 0.0
C624 C 0.24868 0.86781 0.99515 0.0
C625 C 0.2433 0.88792 0.98711 0.0
C626 C 0.26035 0.90239 0.98277 0.0
C627 C 0.25512 0.92123 0.97506 0.0
C628 C 0.23287 0.92582 0.97171 0.0
C629 C 0.2158 0.91162 0.97612 0.0
C630 C 0.22096 0.89274 0.98383 0.0
C631 C 0.24267 0.83771 0.05426 0.0
C632 C 0.22049 0.84358 0.05732 0.0
C633 C 0.25086 0.83983 0.04115 0.0
C634 C 0.23682 0.8471 0.03067 0.0
C635 C 0.2148 0.85361 0.03383 0.0
C636 C 0.20678 0.85203 0.04703 0.0
C637 C 0.24489 0.84742 0.01643 0.0
C638 C 0.24116 0.86659 0.00852 0.0
C639 C 0.25618 0.8289 0.01057 0.0
C640 C 0.25885 0.80728 0.01772 0.0
C641 C 0.24006 0.79585 0.02276 0.0
C642 C 0.2427 0.77556 0.02957 0.0
C643 C 0.26404 0.76644 0.03131 0.0
C644 C 0.28277 0.77755 0.0262 0.0
C645 C 0.28023 0.79786 0.0194 0.0
H646 H 0.26605 0.75073 0.03659 0.0
H647 H 0.22885 0.94042 0.96574 0.0
H648 H 0.61817 0.94042 0.80059 0.0
H649 H 0.62286 0.95352 0.7774 0.0
H650 H 0.57645 0.00735 0.78497 0.0
H651 H 0.57185 0.99451 0.80809 0.0
H652 H 0.59362 0.95653 0.75741 0.0
H653 H 0.59037 0.05296 0.76666 0.0
H654 H 0.60278 0.08007 0.7838 0.0
H655 H 0.65347 0.03417 0.79707 0.0
H656 H 0.6416 0.00694 0.77988 0.0
H657 H 0.55923 0.01104 0.69861 0.0
H658 H 0.56437 0.99762 0.72151 0.0
H659 H 0.62929 0.02916 0.72302 0.0
H660 H 0.62373 0.04352 0.70016 0.0
H661 H 0.60993 0.03558 0.74571 0.0
H662 H 0.62224 0.97043 0.71933 0.0
H663 H 0.61422 0.94238 0.70181 0.0
H664 H 0.55385 0.92356 0.72229 0.0
H665 H 0.56133 0.95172 0.73985 0.0
C666 C 0.60914 0.95518 0.79735 0.0
C667 C 0.59466 0.96644 0.80621 0.0
C668 C 0.61177 0.9626 0.78407 0.0
C669 C 0.60016 0.98155 0.77942 0.0
C670 C 0.58588 0.99291 0.78833 0.0
C671 C 0.58319 0.98547 0.80156 0.0
C672 C 0.60219 0.98905 0.76517 0.0
C673 C 0.59729 0.97379 0.75486 0.0
C674 C 0.60758 0.01142 0.76175 0.0
C675 C 0.61493 0.02783 0.77205 0.0
C676 C 0.60422 0.04869 0.77319 0.0
C677 C 0.61115 0.06407 0.78293 0.0
C678 C 0.62885 0.05882 0.79154 0.0
C679 C 0.6397 0.03819 0.79042 0.0
C680 C 0.63286 0.02277 0.78069 0.0
C681 C 0.57466 0.01507 0.70378 0.0
C682 C 0.59114 0.02824 0.69752 0.0
C683 C 0.57766 0.00726 0.71689 0.0
C684 C 0.59745 0.01191 0.72399 0.0
C685 C 0.6139 0.02522 0.71778 0.0
C686 C 0.61074 0.03338 0.70469 0.0
C687 C 0.60058 0.00323 0.73796 0.0
C688 C 0.60644 0.01827 0.74823 0.0
C689 C 0.59671 0.98048 0.74131 0.0
C690 C 0.59229 0.96329 0.73087 0.0
C691 C 0.6072 0.96038 0.72007 0.0
C692 C 0.60275 0.94446 0.71013 0.0
C693 C 0.58353 0.93121 0.71093 0.0
C694 C 0.56874 0.93383 0.72169 0.0
C695 C 0.57309 0.94974 0.73165 0.0
H696 H 0.58011 0.91891 0.70322 0.0
H697 H 0.63418 0.07074 0.79908 0.0
H698 H 0.74539 0.81468 0.44661 0.0
H699 H 0.75794 0.81828 0.46982 0.0
H700 H 0.71321 0.87416 0.47551 0.0
H701 H 0.70009 0.87022 0.45228 0.0
H702 H 0.77848 0.8485 0.48385 0.0
H703 H 0.69472 0.87464 0.50806 0.0
H704 H 0.65414 0.87087 0.50404 0.0
H705 H 0.66547 0.81007 0.48206 0.0
H706 H 0.70607 0.81335 0.48609 0.0
H707 H 0.80055 0.87069 0.55307 0.0
H708 H 0.78735 0.87483 0.52988 0.0
H709 H 0.74544 0.81659 0.53473 0.0
H710 H 0.75805 0.81277 0.55792 0.0
H711 H 0.72343 0.84621 0.52112 0.0
H712 H 0.7976 0.81505 0.51837 0.0
H713 H 0.83832 0.81372 0.52234 0.0
H714 H 0.84641 0.87594 0.5013 0.0
H715 H 0.80567 0.87777 0.49736 0.0
C716 C 0.73824 0.82782 0.45276 0.0
C717 C 0.7216 0.84207 0.44759 0.0
C718 C 0.74553 0.82991 0.46606 0.0
C719 C 0.7364 0.84633 0.47454 0.0
C720 C 0.72027 0.86109 0.46928 0.0
C721 C 0.71284 0.8589 0.45597 0.0
C722 C 0.74345 0.84739 0.48893 0.0
C723 C 0.7664 0.84817 0.49199 0.0
C724 C 0.72781 0.84665 0.49964 0.0
C725 C 0.70343 0.84441 0.49724 0.0
C726 C 0.68853 0.86045 0.50239 0.0
C727 C 0.66553 0.8584 0.50011 0.0
C728 C 0.65724 0.84029 0.49275 0.0
C729 C 0.67192 0.82414 0.48771 0.0
C730 C 0.69493 0.8261 0.48997 0.0
C731 C 0.78841 0.85886 0.54921 0.0
C732 C 0.78044 0.84134 0.55735 0.0
C733 C 0.78094 0.86118 0.53592 0.0
C734 C 0.76557 0.84585 0.53043 0.0
C735 C 0.75725 0.82868 0.53867 0.0
C736 C 0.76457 0.82646 0.55195 0.0
C737 C 0.75847 0.84716 0.51605 0.0
C738 C 0.7355 0.84687 0.51299 0.0
C739 C 0.77411 0.84773 0.50534 0.0
C740 C 0.79858 0.84667 0.50771 0.0
C741 C 0.80805 0.82853 0.51468 0.0
C742 C 0.83113 0.82767 0.51691 0.0
C743 C 0.84494 0.84477 0.51212 0.0
C744 C 0.83569 0.86273 0.50504 0.0
C745 C 0.81261 0.86368 0.5028 0.0
H746 H 0.8628 0.84407 0.51385 0.0
H747 H 0.63943 0.83874 0.49099 0.0
H748 H 0.93117 0.00318 0.30936 0.0
H749 H 0.92823 0.99131 0.28596 0.0
H750 H 0.88397 0.04666 0.27774 0.0
H751 H 0.88643 0.05836 0.30132 0.0
H752 H 0.87025 0.01065 0.26436 0.0
H753 H 0.93981 0.04917 0.26952 0.0
H754 H 0.97649 0.05751 0.27972 0.0
H755 H 0.99946 0.99137 0.27 0.0
H756 H 0.9628 0.98253 0.2599 0.0
H757 H 0.93013 0.00412 0.19388 0.0
H758 H 0.92721 0.01779 0.21693 0.0
H759 H 0.8848 0.96182 0.22701 0.0
H760 H 0.8872 0.94838 0.2038 0.0
H761 H 0.94114 1.00075 0.23911 0.0
H762 H 0.85037 0.97536 0.25317 0.0
H763 H 0.81353 0.9712 0.24226 0.0
H764 H 0.83266 0.01861 0.21194 0.0
H765 H 0.86948 0.02328 0.22277 0.0
C766 C 0.92065 0.01276 0.30262 0.0
C767 C 0.90917 0.03184 0.3072 0.0
C768 C 0.91905 0.00598 0.2892 0.0
C769 C 0.90621 0.01831 0.27997 0.0
C770 C 0.89405 0.0369 0.28463 0.0
C771 C 0.89551 0.04361 0.29811 0.0
C772 C 0.90621 0.01223 0.26542 0.0
C773 C 0.88575 0.00845 0.25884 0.0
C774 C 0.92638 0.00983 0.25807 0.0
C775 C 0.94849 0.01513 0.26406 0.0
C776 C 0.95264 0.03636 0.26964 0.0
C777 C 0.97343 0.04118 0.27539 0.0
C778 C 0.99028 0.02497 0.27553 0.0
C779 C 0.98638 0.00391 0.26989 0.0
C780 C 0.96561 0.99898 0.26414 0.0
C781 C 0.91998 0.99482 0.20095 0.0
C782 C 0.90889 0.97515 0.19698 0.0
C783 C 0.91839 0.00263 0.21417 0.0
C784 C 0.9057 0.99095 0.22378 0.0
C785 C 0.8944 0.97139 0.21979 0.0
C786 C 0.89585 0.96366 0.20651 0.0
C787 C 0.90518 0.99879 0.23804 0.0
C788 C 0.9256 0.00288 0.24459 0.0
C789 C 0.88495 0.002 0.24523 0.0
C790 C 0.86277 0.99948 0.23871 0.0
C791 C 0.84668 0.98495 0.2442 0.0
C792 C 0.82581 0.9825 0.23803 0.0
C793 C 0.82079 0.99457 0.22639 0.0
C794 C 0.8366 0.00919 0.22093 0.0
C795 C 0.85749 0.01173 0.22707 0.0
H796 H 0.80462 0.99264 0.22163 0.0
H797 H 0.00636 0.02874 0.27999 0.0
H798 H 0.80561 0.13927 0.95461 0.0
H799 H 0.79195 0.13738 0.97776 0.0
H800 H 0.73198 0.17258 0.96605 0.0
H801 H 0.746 0.17527 0.94305 0.0
H802 H 0.74585 0.18982 0.98779 0.0
H803 H 0.73368 0.11415 0.97387 0.0
H804 H 0.74376 0.07734 0.96442 0.0
H805 H 0.79252 0.06806 0.99562 0.0
H806 H 0.78293 0.10494 0.00516 0.0
H807 H 0.69423 0.13444 0.05151 0.0
H808 H 0.70641 0.13144 0.02805 0.0
H809 H 0.75649 0.18208 0.03506 0.0
H810 H 0.74426 0.18536 0.05839 0.0
H811 H 0.74489 0.12072 0.01541 0.0
H812 H 0.76034 0.21571 0.00783 0.0
H813 H 0.74627 0.25171 0.01657 0.0
H814 H 0.68371 0.22078 0.02685 0.0
H815 H 0.69728 0.18469 0.018 0.0
C816 C 0.78942 0.14642 0.95695 0.0
C817 C 0.7769 0.15743 0.94698 0.0
C818 C 0.78155 0.14524 0.97021 0.0
C819 C 0.76076 0.15464 0.97373 0.0
C820 C 0.74808 0.16525 0.96368 0.0
C821 C 0.75608 0.16671 0.95049 0.0
C822 C 0.75263 0.15439 0.98795 0.0
C823 C 0.74566 0.17466 0.99378 0.0
C824 C 0.75198 0.13462 0.99583 0.0
C825 C 0.75772 0.1124 0.99016 0.0
C826 C 0.74666 0.10432 0.97866 0.0
C827 C 0.75227 0.08344 0.9733 0.0
C828 C 0.76881 0.07039 0.9794 0.0
C829 C 0.77973 0.07819 0.9909 0.0
C830 C 0.77419 0.09907 0.99629 0.0
C831 C 0.70793 0.14482 0.04807 0.0
C832 C 0.71814 0.16026 0.05682 0.0
C833 C 0.71493 0.14304 0.03466 0.0
C834 C 0.73218 0.15674 0.0297 0.0
C835 C 0.7429 0.17158 0.03856 0.0
C836 C 0.73592 0.17338 0.05194 0.0
C837 C 0.73848 0.15617 0.0152 0.0
C838 C 0.74512 0.13582 0.00936 0.0
C839 C 0.73833 0.17575 0.00717 0.0
C840 C 0.72993 0.19745 0.01238 0.0
C841 C 0.74355 0.21662 0.01191 0.0
C842 C 0.73567 0.23703 0.01689 0.0
C843 C 0.71414 0.23851 0.0223 0.0
C844 C 0.70041 0.21959 0.0227 0.0
C845 C 0.7082 0.19915 0.01772 0.0
H846 H 0.70808 0.25432 0.02616 0.0
H847 H 0.77313 0.05423 0.97523 0.0
H848 H 0.88297 0.55007 0.70046 0.0
H849 H 0.8801 0.53706 0.72379 0.0
H850 H 0.92768 0.48463 0.71538 0.0
H851 H 0.93086 0.49768 0.69222 0.0
H852 H 0.8681 0.49861 0.73635 0.0
H853 H 0.96253 0.47844 0.74179 0.0
H854 H 0.99868 0.49092 0.73243 0.0
H855 H 0.9704 0.55525 0.72338 0.0
H856 H 0.9342 0.54326 0.73285 0.0
H857 H 0.88786 0.43735 0.79735 0.0
H858 H 0.88489 0.45048 0.77406 0.0
H859 H 0.92287 0.50948 0.78433 0.0
H860 H 0.92649 0.49609 0.80736 0.0
H861 H 0.93858 0.49396 0.76253 0.0
H862 H 0.8643 0.50979 0.77793 0.0
H863 H 0.8276 0.50142 0.78808 0.0
H864 H 0.81447 0.45307 0.75715 0.0
H865 H 0.85124 0.46096 0.7469 0.0
C866 C 0.89268 0.53566 0.70356 0.0
C867 C 0.9073 0.52505 0.69449 0.0
C868 C 0.89097 0.52819 0.7169 0.0
C869 C 0.90391 0.51004 0.72143 0.0
C870 C 0.9178 0.49889 0.71221 0.0
C871 C 0.91955 0.50636 0.69894 0.0
C872 C 0.9038 0.50337 0.73588 0.0
C873 C 0.8835 0.49756 0.74209 0.0
C874 C 0.92381 0.50241 0.74349 0.0
C875 C 0.94559 0.50985 0.7379 0.0
C876 C 0.96405 0.49527 0.73784 0.0
C877 C 0.98455 0.50226 0.73251 0.0
C878 C 0.98681 0.52384 0.72727 0.0
C879 C 0.9686 0.53851 0.7274 0.0
C880 C 0.94809 0.53162 0.73273 0.0
C881 C 0.89539 0.4532 0.79464 0.0
C882 C 0.90748 0.46563 0.8042 0.0
C883 C 0.89362 0.46077 0.78132 0.0
C884 C 0.90355 0.4811 0.77736 0.0
C885 C 0.91515 0.4937 0.78703 0.0
C886 C 0.91716 0.48604 0.80025 0.0
C887 C 0.90288 0.48891 0.76308 0.0
C888 C 0.92312 0.49492 0.75686 0.0
C889 C 0.88274 0.49056 0.75561 0.0
C890 C 0.86061 0.48581 0.76173 0.0
C891 C 0.85366 0.49726 0.77335 0.0
C892 C 0.83283 0.49262 0.77911 0.0
C893 C 0.81874 0.47668 0.77328 0.0
C894 C 0.82542 0.46539 0.76166 0.0
C895 C 0.84624 0.46995 0.75587 0.0
H896 H 0.80262 0.47312 0.77776 0.0
H897 H 0.00268 0.52921 0.72314 0.0
H898 H 0.75091 0.6739 0.06015 0.0
H899 H 0.73827 0.66913 0.03689 0.0
H900 H 0.80161 0.63918 0.02662 0.0
H901 H 0.81417 0.64332 0.04999 0.0
H902 H 0.7846 0.67806 0.00968 0.0
H903 H 0.76313 0.60552 0.02736 0.0
H904 H 0.74402 0.58087 0.04359 0.0
H905 H 0.68089 0.61086 0.03356 0.0
H906 H 0.69968 0.63593 0.01741 0.0
H907 H 0.75837 0.65553 0.94227 0.0
H908 H 0.77179 0.65181 0.96537 0.0
H909 H 0.70348 0.65159 0.97959 0.0
H910 H 0.69017 0.65324 0.95633 0.0
H911 H 0.72401 0.62682 0.99503 0.0
H912 H 0.74168 0.7005 0.97961 0.0
H913 H 0.75776 0.72925 0.96467 0.0
H914 H 0.82366 0.70316 0.97178 0.0
H915 H 0.80794 0.67408 0.98664 0.0
C916 C 0.76208 0.6661 0.05297 0.0
C917 C 0.78354 0.65898 0.0569 0.0
C918 C 0.75481 0.66336 0.0397 0.0
C919 C 0.769 0.65379 0.03004 0.0
C920 C 0.7904 0.64656 0.03393 0.0
C921 C 0.79751 0.64887 0.04729 0.0
C922 C 0.76175 0.65223 0.01579 0.0
C923 C 0.77162 0.66661 0.00638 0.0
C924 C 0.74416 0.63798 0.01167 0.0
C925 C 0.73285 0.62274 0.02127 0.0
C926 C 0.7452 0.60699 0.0287 0.0
C927 C 0.73442 0.59291 0.03787 0.0
C928 C 0.71127 0.59433 0.03963 0.0
C929 C 0.69883 0.60979 0.0322 0.0
C930 C 0.70953 0.62392 0.02303 0.0
C931 C 0.74627 0.65435 0.95035 0.0
C932 C 0.72326 0.65473 0.94756 0.0
C933 C 0.75393 0.6525 0.9636 0.0
C934 C 0.73875 0.6522 0.97442 0.0
C935 C 0.71567 0.65189 0.97153 0.0
C936 C 0.70802 0.65286 0.95823 0.0
C937 C 0.74686 0.65274 0.98868 0.0
C938 C 0.7371 0.63824 0.99818 0.0
C939 C 0.76408 0.66748 0.99301 0.0
C940 C 0.7736 0.68499 0.98412 0.0
C941 C 0.75958 0.70082 0.97792 0.0
C942 C 0.76864 0.71718 0.96947 0.0
C943 C 0.79171 0.71799 0.96724 0.0
C944 C 0.80579 0.70249 0.97349 0.0
C945 C 0.79682 0.68608 0.98193 0.0
H946 H 0.79868 0.73067 0.9607 0.0
H947 H 0.70296 0.58342 0.04674 0.0
H948 H 0.56572 0.50619 0.30832 0.0
H949 H 0.57078 0.49332 0.28526 0.0
H950 H 0.62759 0.53726 0.28081 0.0
H951 H 0.62217 0.55072 0.30385 0.0
H952 H 0.6032 0.54022 0.25947 0.0
H953 H 0.63345 0.47903 0.28378 0.0
H954 H 0.63485 0.44939 0.301 0.0
H955 H 0.5773 0.41783 0.28345 0.0
H956 H 0.57535 0.44745 0.26623 0.0
H957 H 0.62289 0.45002 0.20249 0.0
H958 H 0.62787 0.46275 0.22575 0.0
H959 H 0.57135 0.50706 0.22135 0.0
H960 H 0.56667 0.49489 0.19816 0.0
H961 H 0.60269 0.45978 0.24713 0.0
H962 H 0.57665 0.55303 0.24011 0.0
H963 H 0.57961 0.5826 0.2229 0.0
H964 H 0.63707 0.55 0.20594 0.0
H965 H 0.63466 0.52041 0.22314 0.0
C966 C 0.57942 0.51302 0.30248 0.0
C967 C 0.59357 0.52947 0.30796 0.0
C968 C 0.58237 0.50553 0.28928 0.0
C969 C 0.59978 0.51403 0.28127 0.0
C970 C 0.61405 0.53038 0.28675 0.0
C971 C 0.61099 0.53802 0.29995 0.0
C972 C 0.60243 0.50646 0.26704 0.0
C973 C 0.60318 0.52262 0.2568 0.0
C974 C 0.60302 0.48349 0.26347 0.0
C975 C 0.60417 0.46556 0.27377 0.0
C976 C 0.621 0.46585 0.28365 0.0
C977 C 0.62191 0.44904 0.2934 0.0
C978 C 0.60615 0.43176 0.29333 0.0
C979 C 0.58949 0.43123 0.28349 0.0
C980 C 0.58849 0.44801 0.27372 0.0
C981 C 0.61167 0.46262 0.20646 0.0
C982 C 0.59446 0.47152 0.19843 0.0
C983 C 0.61448 0.46983 0.21978 0.0
C984 C 0.60018 0.48611 0.22532 0.0
C985 C 0.58294 0.49487 0.21729 0.0
C986 C 0.58021 0.48779 0.204 0.0
C987 C 0.60271 0.49355 0.23957 0.0
C988 C 0.6029 0.47737 0.24981 0.0
C989 C 0.6036 0.5165 0.24315 0.0
C990 C 0.60535 0.5344 0.23286 0.0
C991 C 0.58999 0.55223 0.23275 0.0
C992 C 0.59155 0.56898 0.22299 0.0
C993 C 0.60848 0.56815 0.21331 0.0
C994 C 0.62392 0.55059 0.21341 0.0
C995 C 0.62245 0.53381 0.22315 0.0
H996 H 0.60965 0.58112 0.20576 0.0
H997 H 0.60688 0.41876 0.30089 0.0
H998 H 0.72823 0.30454 0.55398 0.0
H999 H 0.74196 0.30864 0.53108 0.0
H1000 H 0.72195 0.37807 0.53115 0.0
H1001 H 0.70682 0.37351 0.55393 0.0
H1002 H 0.71341 0.36311 0.50803 0.0
H1003 H 0.77938 0.35937 0.53447 0.0
H1004 H 0.80547 0.34476 0.55155 0.0
H1005 H 0.81184 0.28337 0.52945 0.0
H1006 H 0.78557 0.2975 0.51231 0.0
H1007 H 0.79787 0.37327 0.45152 0.0
H1008 H 0.78419 0.37655 0.47476 0.0
H1009 H 0.74797 0.31467 0.47027 0.0
H1010 H 0.761 0.31152 0.44705 0.0
H1011 H 0.78732 0.33135 0.49561 0.0
H1012 H 0.71204 0.33734 0.47208 0.0
H1013 H 0.68899 0.35643 0.45498 0.0
H1014 H 0.70542 0.42013 0.47237 0.0
H1015 H 0.72887 0.40136 0.48943 0.0
C1016 C 0.7268 0.32071 0.54914 0.0
C1017 C 0.71661 0.33876 0.5558 0.0
C1018 C 0.73483 0.32311 0.53603 0.0
C1019 C 0.73366 0.34386 0.52939 0.0
C1020 C 0.72323 0.3619 0.536 0.0
C1021 C 0.71463 0.35932 0.54905 0.0
C1022 C 0.74297 0.3464 0.5155 0.0
C1023 C 0.72968 0.35633 0.50545 0.0
C1024 C 0.7644 0.33796 0.51193 0.0
C1025 C 0.78038 0.32945 0.52215 0.0
C1026 C 0.78626 0.34271 0.53328 0.0
C1027 C 0.80109 0.33452 0.54297 0.0
C1028 C 0.81028 0.31314 0.54159 0.0
C1029 C 0.80471 0.29993 0.5305 0.0
C1030 C 0.78987 0.30803 0.52079 0.0
C1031 C 0.78682 0.36048 0.45546 0.0
C1032 C 0.78046 0.34218 0.44742 0.0
C1033 C 0.77903 0.36239 0.46872 0.0
C1034 C 0.76492 0.34595 0.47416 0.0
C1035 C 0.75862 0.32767 0.46618 0.0
C1036 C 0.76611 0.32591 0.45292 0.0
C1037 C 0.75739 0.34718 0.48835 0.0
C1038 C 0.77112 0.33814 0.49838 0.0
C1039 C 0.73671 0.35687 0.49197 0.0
C1040 C 0.72237 0.368 0.48188 0.0
C1041 C 0.71089 0.35542 0.47216 0.0
C1042 C 0.69773 0.36617 0.4625 0.0
C1043 C 0.69581 0.38949 0.46256 0.0
C1044 C 0.70697 0.40208 0.47231 0.0
C1045 C 0.72019 0.3914 0.48197 0.0
H1046 H 0.68562 0.39778 0.45507 0.0
H1047 H 0.82174 0.30682 0.54911 0.0
H1048 H 0.08524 0.50526 0.31217 0.0
H1049 H 0.08869 0.51882 0.28911 0.0
H1050 H 0.1074 0.45249 0.27607 0.0
H1051 H 0.10546 0.43932 0.29935 0.0
H1052 H 0.12945 0.47912 0.2619 0.0
H1053 H 0.05164 0.47645 0.27261 0.0
H1054 H 0.01726 0.48412 0.28552 0.0
H1055 H 0.02571 0.55464 0.27896 0.0
H1056 H 0.06032 0.5474 0.26615 0.0
H1057 H 0.07831 0.49853 0.1948 0.0
H1058 H 0.08224 0.48603 0.21815 0.0
H1059 H 0.1135 0.5487 0.22844 0.0
H1060 H 0.11024 0.56112 0.20499 0.0
H1061 H 0.0669 0.52417 0.24336 0.0
H1062 H 0.148 0.52277 0.23267 0.0
H1063 H 0.17929 0.5108 0.21818 0.0
H1064 H 0.15978 0.44212 0.2231 0.0
H1065 H 0.12815 0.45376 0.23745 0.0
C1066 C 0.09031 0.49364 0.30439 0.0
C1067 C 0.09495 0.47121 0.30754 0.0
C1068 C 0.09208 0.50135 0.29115 0.0
C1069 C 0.09765 0.48659 0.28064 0.0
C1070 C 0.10297 0.46428 0.28389 0.0
C1071 C 0.10183 0.45672 0.29721 0.0
C1072 C 0.09748 0.49429 0.26632 0.0
C1073 C 0.11566 0.48888 0.25792 0.0
C1074 C 0.07952 0.50698 0.26087 0.0
C1075 C 0.05869 0.51139 0.26854 0.0
C1076 C 0.04624 0.4936 0.27399 0.0
C1077 C 0.02671 0.49787 0.28128 0.0
C1078 C 0.01934 0.51986 0.28309 0.0
C1079 C 0.03146 0.53762 0.27757 0.0
C1080 C 0.05102 0.53345 0.27029 0.0
C1081 C 0.08629 0.50955 0.20199 0.0
C1082 C 0.09401 0.53081 0.19804 0.0
C1083 C 0.08853 0.50237 0.21531 0.0
C1084 C 0.09826 0.51639 0.22498 0.0
C1085 C 0.10613 0.53755 0.22108 0.0
C1086 C 0.10429 0.5446 0.20769 0.0
C1087 C 0.09895 0.50936 0.23928 0.0
C1088 C 0.08073 0.51466 0.24754 0.0
C1089 C 0.1165 0.49612 0.24448 0.0
C1090 C 0.13558 0.48915 0.23597 0.0
C1091 C 0.15024 0.50515 0.23053 0.0
C1092 C 0.16807 0.49842 0.22238 0.0
C1093 C 0.17148 0.47572 0.21968 0.0
C1094 C 0.1571 0.4597 0.22517 0.0
C1095 C 0.13923 0.46635 0.23332 0.0
H1096 H 0.18529 0.47054 0.21337 0.0
H1097 H 0.00421 0.52313 0.28874 0.0
H1098 H 0.29917 0.37517 0.0538 0.0
H1099 H 0.28589 0.37914 0.03051 0.0
H1100 H 0.24904 0.31749 0.03425 0.0
H1101 H 0.26167 0.31365 0.05751 0.0
H1102 H 0.28844 0.33298 0.00947 0.0
H1103 H 0.21392 0.34246 0.03277 0.0
H1104 H 0.19108 0.36251 0.04956 0.0
H1105 H 0.20888 0.42533 0.03151 0.0
H1106 H 0.2321 0.40559 0.01475 0.0
H1107 H 0.22981 0.30887 0.95056 0.0
H1108 H 0.24301 0.31233 0.97362 0.0
H1109 H 0.22587 0.38253 0.97343 0.0
H1110 H 0.21115 0.37862 0.9505 0.0
H1111 H 0.21638 0.36811 0.99645 0.0
H1112 H 0.28264 0.36117 0.97052 0.0
H1113 H 0.3084 0.34529 0.95368 0.0
H1114 H 0.31151 0.28381 0.97593 0.0
H1115 H 0.28553 0.29921 0.99283 0.0
C1116 C 0.28807 0.36258 0.04969 0.0
C1117 C 0.28142 0.34414 0.05753 0.0
C1118 C 0.2805 0.36489 0.03641 0.0
C1119 C 0.26635 0.34869 0.03073 0.0
C1120 C 0.25974 0.33029 0.03851 0.0
C1121 C 0.267 0.32815 0.05181 0.0
C1122 C 0.25916 0.35024 0.01649 0.0
C1123 C 0.27264 0.34051 0.00657 0.0
C1124 C 0.23904 0.36088 0.01269 0.0
C1125 C 0.22493 0.3726 0.02266 0.0
C1126 C 0.21314 0.36055 0.03249 0.0
C1127 C 0.20009 0.37185 0.04197 0.0
C1128 C 0.19859 0.39519 0.04164 0.0
C1129 C 0.21009 0.40727 0.03179 0.0
C1130 C 0.22319 0.39603 0.0223 0.0
C1131 C 0.22887 0.32506 0.95542 0.0
C1132 C 0.21962 0.34352 0.94868 0.0
C1133 C 0.23662 0.3271 0.96861 0.0
C1134 C 0.23616 0.34787 0.97526 0.0
C1135 C 0.22661 0.36633 0.96857 0.0
C1136 C 0.21824 0.36412 0.95545 0.0
C1137 C 0.24528 0.35002 0.98922 0.0
C1138 C 0.23228 0.36061 0.99916 0.0
C1139 C 0.26621 0.34059 0.99297 0.0
C1140 C 0.28201 0.33131 0.9829 0.0
C1141 C 0.28873 0.34422 0.97179 0.0
C1142 C 0.30338 0.33531 0.96224 0.0
C1143 C 0.31156 0.31354 0.96372 0.0
C1144 C 0.30515 0.30067 0.97479 0.0
C1145 C 0.29049 0.30949 0.98437 0.0
H1146 H 0.32288 0.30667 0.95631 0.0
H1147 H 0.18848 0.40391 0.04898 0.0
H1148 H 0.43173 0.50327 0.8104 0.0
H1149 H 0.4286 0.49048 0.78716 0.0
H1150 H 0.38501 0.54603 0.77817 0.0
H1151 H 0.38762 0.5586 0.80155 0.0
H1152 H 0.37081 0.51011 0.76523 0.0
H1153 H 0.44134 0.54722 0.7701 0.0
H1154 H 0.47822 0.55485 0.78024 0.0
H1155 H 0.49948 0.48792 0.77107 0.0
H1156 H 0.4626 0.4798 0.76103 0.0
H1157 H 0.43024 0.50254 0.69475 0.0
H1158 H 0.4277 0.51606 0.71785 0.0
H1159 H 0.38444 0.46073 0.72788 0.0
H1160 H 0.38651 0.4474 0.70464 0.0
H1161 H 0.44147 0.49844 0.74003 0.0
H1162 H 0.35023 0.47503 0.75408 0.0
H1163 H 0.3133 0.47162 0.74317 0.0
H1164 H 0.33337 0.51867 0.71287 0.0
H1165 H 0.37029 0.52259 0.72369 0.0
C1166 C 0.42131 0.51268 0.80352 0.0
C1167 C 0.41006 0.53207 0.80782 0.0
C1168 C 0.41961 0.50538 0.79019 0.0
C1169 C 0.40691 0.5175 0.78079 0.0
C1170 C 0.39498 0.53641 0.78519 0.0
C1171 C 0.39652 0.54362 0.79857 0.0
C1172 C 0.4068 0.51093 0.7663 0.0
C1173 C 0.38627 0.50751 0.75973 0.0
C1174 C 0.42692 0.50798 0.75897 0.0
C1175 C 0.44915 0.51284 0.76493 0.0
C1176 C 0.45383 0.53408 0.77032 0.0
C1177 C 0.47474 0.53851 0.77604 0.0
C1178 C 0.49116 0.52187 0.77633 0.0
C1179 C 0.48673 0.50079 0.77086 0.0
C1180 C 0.46584 0.49627 0.76514 0.0
C1181 C 0.41998 0.49335 0.70182 0.0
C1182 C 0.40855 0.47388 0.69782 0.0
C1183 C 0.41862 0.50107 0.71507 0.0
C1184 C 0.40581 0.48953 0.72468 0.0
C1185 C 0.39416 0.47019 0.72067 0.0
C1186 C 0.39541 0.46252 0.70736 0.0
C1187 C 0.40548 0.4973 0.73895 0.0
C1188 C 0.42598 0.50094 0.74551 0.0
C1189 C 0.38533 0.50098 0.74614 0.0
C1190 C 0.3631 0.4989 0.73963 0.0
C1191 C 0.34673 0.4847 0.74512 0.0
C1192 C 0.3258 0.48268 0.73895 0.0
C1193 C 0.32102 0.49486 0.72731 0.0
C1194 C 0.33713 0.50917 0.72185 0.0
C1195 C 0.35806 0.51127 0.72799 0.0
H1196 H 0.30482 0.49326 0.72255 0.0
H1197 H 0.50734 0.52532 0.78076 0.0
H1198 H 0.24528 0.68684 0.55888 0.0
H1199 H 0.25824 0.68369 0.53569 0.0
H1200 H 0.21141 0.62995 0.5288 0.0
H1201 H 0.19797 0.63341 0.55197 0.0
H1202 H 0.27774 0.65308 0.52117 0.0
H1203 H 0.19278 0.63208 0.49642 0.0
H1204 H 0.15244 0.6381 0.50037 0.0
H1205 H 0.1671 0.69737 0.52313 0.0
H1206 H 0.20747 0.69185 0.51917 0.0
H1207 H 0.29941 0.6311 0.45186 0.0
H1208 H 0.28615 0.62741 0.47508 0.0
H1209 H 0.24607 0.68693 0.47021 0.0
H1210 H 0.25859 0.69019 0.44699 0.0
H1211 H 0.22316 0.65882 0.48379 0.0
H1212 H 0.29878 0.68613 0.48685 0.0
H1213 H 0.33954 0.68545 0.48296 0.0
H1214 H 0.34436 0.62262 0.50371 0.0
H1215 H 0.30356 0.6228 0.50758 0.0
C1216 C 0.23778 0.67426 0.55246 0.0
C1217 C 0.22046 0.66048 0.55727 0.0
C1218 C 0.24528 0.67242 0.53919 0.0
C1219 C 0.23568 0.65676 0.53038 0.0
C1220 C 0.21886 0.64245 0.53529 0.0
C1221 C 0.21124 0.64437 0.54858 0.0
C1222 C 0.24286 0.65601 0.516 0.0
C1223 C 0.26577 0.65419 0.513 0.0
C1224 C 0.22738 0.65781 0.50527 0.0
C1225 C 0.20314 0.66137 0.50764 0.0
C1226 C 0.18737 0.64641 0.50224 0.0
C1227 C 0.16451 0.64974 0.50448 0.0
C1228 C 0.15722 0.66806 0.51204 0.0
C1229 C 0.17277 0.68314 0.51733 0.0
C1230 C 0.19564 0.6799 0.5151 0.0
C1231 C 0.28766 0.64329 0.45573 0.0
C1232 C 0.28012 0.66097 0.44757 0.0
C1233 C 0.28016 0.64125 0.46904 0.0
C1234 C 0.2653 0.65707 0.47454 0.0
C1235 C 0.25747 0.67445 0.46628 0.0
C1236 C 0.26473 0.67634 0.45297 0.0
C1237 C 0.25808 0.65598 0.48892 0.0
C1238 C 0.23514 0.65741 0.49193 0.0
C1239 C 0.2736 0.65448 0.49967 0.0
C1240 C 0.29811 0.65436 0.49737 0.0
C1241 C 0.30852 0.67209 0.4905 0.0
C1242 C 0.33163 0.67181 0.48831 0.0
C1243 C 0.34452 0.65397 0.49305 0.0
C1244 C 0.33435 0.63641 0.50002 0.0
C1245 C 0.31124 0.6366 0.50222 0.0
H1246 H 0.36241 0.65379 0.49135 0.0
H1247 H 0.13952 0.67059 0.51377 0.0
H1248 H 0.37584 0.00933 0.11853 0.0
H1249 H 0.3458 0.98276 0.11402 0.0
H1250 H 0.33528 0.97423 0.15657 0.0
H1251 H 0.36541 0.00112 0.16124 0.0
H1252 H 0.33917 0.93362 0.14195 0.0
H1253 H 0.29789 0.00232 0.13981 0.0
H1254 H 0.29009 0.04084 0.13229 0.0
H1255 H 0.28578 0.01825 0.09142 0.0
H1256 H 0.29389 0.97961 0.09868 0.0
H1257 H 0.24174 0.86832 0.1368 0.0
H1258 H 0.26829 0.89786 0.14212 0.0
H1259 H 0.27331 0.9147 0.10008 0.0
H1260 H 0.24612 0.88531 0.09465 0.0
H1261 H 0.27182 0.95173 0.11488 0.0
H1262 H 0.31443 0.88408 0.11617 0.0
H1263 H 0.32349 0.84539 0.12287 0.0
H1264 H 0.32697 0.86566 0.1642 0.0
H1265 H 0.31762 0.90443 0.15777 0.0
C1266 C 0.36712 0.00191 0.12697 0.0
C1267 C 0.37309 0.00731 0.14027 0.0
C1268 C 0.34985 0.9868 0.12435 0.0
C1269 C 0.33824 0.97662 0.13495 0.0
C1270 C 0.34403 0.98198 0.14825 0.0
C1271 C 0.36117 0.99738 0.1509 0.0
C1272 C 0.3207 0.95973 0.13203 0.0
C1273 C 0.32423 0.93763 0.13625 0.0
C1274 C 0.30164 0.96487 0.12417 0.0
C1275 C 0.29671 0.98809 0.11978 0.0
C1276 C 0.29548 0.00559 0.12921 0.0
C1277 C 0.29096 0.02744 0.125 0.0
C1278 C 0.28749 0.032 0.11139 0.0
C1279 C 0.28849 0.0147 0.10196 0.0
C1280 C 0.29302 0.99281 0.10612 0.0
C1281 C 0.24846 0.87823 0.12863 0.0
C1282 C 0.24191 0.87424 0.11525 0.0
C1283 C 0.26373 0.89513 0.13171 0.0
C1284 C 0.27317 0.90826 0.12149 0.0
C1285 C 0.26634 0.90471 0.10814 0.0
C1286 C 0.25083 0.88788 0.10504 0.0
C1287 C 0.29024 0.92553 0.12482 0.0
C1288 C 0.28669 0.94769 0.12064 0.0
C1289 C 0.30945 0.92041 0.13259 0.0
C1290 C 0.31511 0.89711 0.1365 0.0
C1291 C 0.31696 0.88025 0.1267 0.0
C1292 C 0.32217 0.85831 0.13045 0.0
C1293 C 0.32574 0.85306 0.14396 0.0
C1294 C 0.32416 0.86975 0.15374 0.0
C1295 C 0.31893 0.89171 0.15005 0.0
H1296 H 0.32978 0.83607 0.14684 0.0
H1297 H 0.28399 0.04893 0.10815 0.0
H1298 H 0.24331 0.12942 0.3685 0.0
H1299 H 0.27005 0.09965 0.36369 0.0
H1300 H 0.27872 0.08809 0.40613 0.0
H1301 H 0.25165 0.11792 0.4111 0.0
H1302 H 0.31934 0.09239 0.39145 0.0
H1303 H 0.25054 0.05118 0.38908 0.0
H1304 H 0.21201 0.0436 0.38147 0.0
H1305 H 0.2347 0.04003 0.34059 0.0
H1306 H 0.27334 0.04792 0.34794 0.0
H1307 H 0.38429 0.99496 0.3864 0.0
H1308 H 0.35472 0.02153 0.39157 0.0
H1309 H 0.33826 0.02635 0.34947 0.0
H1310 H 0.36769 0.99908 0.34419 0.0
H1311 H 0.30108 0.02537 0.36411 0.0
H1312 H 0.36888 0.06755 0.3656 0.0
H1313 H 0.40759 0.07641 0.37234 0.0
H1314 H 0.38722 0.07994 0.41366 0.0
H1315 H 0.34843 0.07078 0.40718 0.0
C1316 C 0.25081 0.12054 0.37685 0.0
C1317 C 0.24536 0.12612 0.39021 0.0
C1318 C 0.26602 0.10343 0.37406 0.0
C1319 C 0.27628 0.09158 0.38454 0.0
C1320 C 0.27092 0.09702 0.3979 0.0
C1321 C 0.25542 0.114 0.40071 0.0
C1322 C 0.29318 0.0741 0.38145 0.0
C1323 C 0.3153 0.07752 0.38568 0.0
C1324 C 0.28802 0.05516 0.37349 0.0
C1325 C 0.26481 0.05036 0.36905 0.0
C1326 C 0.24729 0.04898 0.37845 0.0
C1327 C 0.22543 0.04459 0.37419 0.0
C1328 C 0.2209 0.04139 0.36055 0.0
C1329 C 0.23823 0.04253 0.35115 0.0
C1330 C 0.26011 0.04694 0.35536 0.0
C1331 C 0.37445 0.00163 0.37818 0.0
C1332 C 0.37858 0.99501 0.36483 0.0
C1333 C 0.35753 0.01693 0.38118 0.0
C1334 C 0.34453 0.02635 0.3709 0.0
C1335 C 0.34816 0.0194 0.35757 0.0
C1336 C 0.36502 0.00384 0.35456 0.0
C1337 C 0.32732 0.04356 0.37416 0.0
C1338 C 0.30516 0.04017 0.36993 0.0
C1339 C 0.33248 0.06271 0.38198 0.0
C1340 C 0.35579 0.06827 0.38592 0.0
C1341 C 0.37269 0.07004 0.37614 0.0
C1342 C 0.39464 0.07515 0.37991 0.0
C1343 C 0.39987 0.07868 0.39342 0.0
C1344 C 0.38315 0.07717 0.4032 0.0
C1345 C 0.36117 0.07204 0.39948 0.0
H1346 H 0.41687 0.08263 0.39632 0.0
H1347 H 0.20397 0.03799 0.35727 0.0
H1348 H 0.11981 0.99493 0.61811 0.0
H1349 H 0.14995 0.02123 0.61342 0.0
H1350 H 0.16534 0.02494 0.65568 0.0
H1351 H 0.13502 0.99846 0.66055 0.0
H1352 H 0.16233 0.06668 0.64345 0.0
H1353 H 0.19948 0.99687 0.63545 0.0
H1354 H 0.20406 0.95935 0.62551 0.0
H1355 H 0.20399 0.98801 0.58595 0.0
H1356 H 0.19907 0.02569 0.59564 0.0
H1357 H 0.26128 0.12885 0.63688 0.0
H1358 H 0.23468 0.0992 0.6419 0.0
H1359 H 0.22338 0.0891 0.59952 0.0
H1360 H 0.25072 0.11854 0.59436 0.0
H1361 H 0.22468 0.04994 0.61208 0.0
H1362 H 0.186 0.11905 0.61947 0.0
H1363 H 0.18017 0.15679 0.62887 0.0
H1364 H 0.18162 0.12981 0.66884 0.0
H1365 H 0.18776 0.09193 0.65969 0.0
C1366 C 0.12958 0.00124 0.62646 0.0
C1367 C 0.12491 0.99455 0.63974 0.0
C1368 C 0.14693 0.01621 0.62372 0.0
C1369 C 0.16003 0.02491 0.63417 0.0
C1370 C 0.15547 0.01835 0.64745 0.0
C1371 C 0.13818 0.00317 0.65021 0.0
C1372 C 0.17792 0.04145 0.63119 0.0
C1373 C 0.17619 0.06291 0.63678 0.0
C1374 C 0.19557 0.03673 0.62213 0.0
C1375 C 0.1987 0.0141 0.61627 0.0
C1376 C 0.20026 0.99516 0.62462 0.0
C1377 C 0.20295 0.97386 0.61903 0.0
C1378 C 0.20426 0.97129 0.6051 0.0
C1379 C 0.20295 0.99003 0.59674 0.0
C1380 C 0.20024 0.01136 0.60227 0.0
C1381 C 0.25318 0.12036 0.62858 0.0
C1382 C 0.25796 0.12629 0.6152 0.0
C1383 C 0.23789 0.1034 0.63149 0.0
C1384 C 0.22658 0.09222 0.62112 0.0
C1385 C 0.23178 0.09758 0.60771 0.0
C1386 C 0.24738 0.11443 0.60477 0.0
C1387 C 0.20914 0.07524 0.62436 0.0
C1388 C 0.21089 0.05371 0.6188 0.0
C1389 C 0.19135 0.07994 0.63336 0.0
C1390 C 0.18755 0.10269 0.63889 0.0
C1391 C 0.18524 0.12119 0.63027 0.0
C1392 C 0.18185 0.1426 0.63555 0.0
C1393 C 0.18058 0.1457 0.64945 0.0
C1394 C 0.18264 0.12738 0.65808 0.0
C1395 C 0.18605 0.10594 0.65285 0.0
H1396 H 0.17796 0.16229 0.65352 0.0
H1397 H 0.20634 0.95479 0.60079 0.0
H1398 H 0.10508 0.98685 0.87673 0.0
H1399 H 0.13548 0.96123 0.88211 0.0
H1400 H 0.17994 0.99875 0.85641 0.0
H1401 H 0.14909 0.02403 0.85052 0.0
H1402 H 0.18896 0.95729 0.85356 0.0
H1403 H 0.18113 0.00353 0.89179 0.0
H1404 H 0.16186 0.02326 0.91022 0.0
H1405 H 0.14187 0.96034 0.92726 0.0
H1406 H 0.16075 0.94023 0.90883 0.0
H1407 H 0.26945 0.89868 0.90575 0.0
H1408 H 0.24468 0.92996 0.89996 0.0
H1409 H 0.21129 0.88845 0.87069 0.0
H1410 H 0.23627 0.85759 0.87608 0.0
H1411 H 0.20234 0.93755 0.90132 0.0
H1412 H 0.19413 0.91712 0.84409 0.0
H1413 H 0.21745 0.90151 0.82592 0.0
H1414 H 0.27696 0.9203 0.8473 0.0
H1415 H 0.25401 0.93632 0.86551 0.0
C1416 C 0.1213 0.98962 0.87216 0.0
C1417 C 0.12472 0.00759 0.86328 0.0
C1418 C 0.13875 0.97503 0.87534 0.0
C1419 C 0.16025 0.97837 0.86999 0.0
C1420 C 0.16357 0.9959 0.86076 0.0
C1421 C 0.14593 0.01032 0.85738 0.0
C1422 C 0.17904 0.96339 0.87404 0.0
C1423 C 0.19192 0.95306 0.86401 0.0
C1424 C 0.18356 0.95838 0.8877 0.0
C1425 C 0.17224 0.97038 0.89886 0.0
C1426 C 0.17251 0.9939 0.89942 0.0
C1427 C 0.16167 0.00515 0.90988 0.0
C1428 C 0.15062 0.99306 0.91989 0.0
C1429 C 0.15043 0.96969 0.91949 0.0
C1430 C 0.16123 0.95835 0.90905 0.0
C1431 C 0.25679 0.89624 0.89811 0.0
C1432 C 0.25502 0.87569 0.89129 0.0
C1433 C 0.24264 0.91414 0.89479 0.0
C1434 C 0.22641 0.91178 0.88465 0.0
C1435 C 0.22409 0.89098 0.87825 0.0
C1436 C 0.23834 0.87325 0.88141 0.0
C1437 C 0.21159 0.93079 0.88081 0.0
C1438 C 0.1995 0.94192 0.89089 0.0
C1439 C 0.20839 0.93714 0.86722 0.0
C1440 C 0.22232 0.92777 0.85622 0.0
C1441 C 0.21219 0.91803 0.84488 0.0
C1442 C 0.22535 0.90909 0.83458 0.0
C1443 C 0.24867 0.90986 0.83547 0.0
C1444 C 0.25889 0.91965 0.84665 0.0
C1445 C 0.24581 0.92864 0.85697 0.0
H1446 H 0.25882 0.90291 0.82749 0.0
H1447 H 0.14223 0.0018 0.92798 0.0
H1448 H 0.76422 0.12247 0.86772 0.0
H1449 H 0.73761 0.09289 0.86245 0.0
H1450 H 0.71878 0.08896 0.90424 0.0
H1451 H 0.74626 0.11811 0.90968 0.0
H1452 H 0.72011 0.04868 0.89422 0.0
H1453 H 0.68636 0.11738 0.87984 0.0
H1454 H 0.68411 0.15335 0.86776 0.0
H1455 H 0.69186 0.11918 0.8301 0.0
H1456 H 0.69445 0.08302 0.84197 0.0
H1457 H 0.61522 0.99585 0.88476 0.0
H1458 H 0.64496 0.02246 0.88961 0.0
H1459 H 0.66774 0.01825 0.84859 0.0
H1460 H 0.63776 0.99148 0.84353 0.0
H1461 H 0.66488 0.06184 0.85782 0.0
H1462 H 0.69676 0.99253 0.87294 0.0
H1463 H 0.69732 0.95706 0.8856 0.0
H1464 H 0.69111 0.99323 0.92269 0.0
H1465 H 0.69017 0.02892 0.91024 0.0
C1466 C 0.75446 0.11531 0.87582 0.0
C1467 C 0.75718 0.12285 0.88911 0.0
C1468 C 0.73914 0.09843 0.87277 0.0
C1469 C 0.7257 0.08903 0.88287 0.0
C1470 C 0.72884 0.09603 0.89624 0.0
C1471 C 0.74452 0.11271 0.89934 0.0
C1472 C 0.70825 0.07215 0.8794 0.0
C1473 C 0.70787 0.05171 0.88638 0.0
C1474 C 0.69248 0.07581 0.86897 0.0
C1475 C 0.69081 0.09752 0.8618 0.0
C1476 C 0.68773 0.11756 0.86899 0.0
C1477 C 0.68638 0.13797 0.86218 0.0
C1478 C 0.6879 0.13856 0.84818 0.0
C1479 C 0.69071 0.11871 0.84095 0.0
C1480 C 0.6921 0.09824 0.84771 0.0
C1481 C 0.6265 1.00049 0.87671 0.0
C1482 C 0.62404 0.99142 0.86372 0.0
C1483 C 0.64362 0.01566 0.87956 0.0
C1484 C 0.65875 0.02215 0.86952 0.0
C1485 C 0.65629 0.01338 0.8565 0.0
C1486 C 0.63918 0.99804 0.85364 0.0
C1487 C 0.67678 0.03849 0.87264 0.0
C1488 C 0.67721 0.05882 0.86562 0.0
C1489 C 0.6924 0.03483 0.88312 0.0
C1490 C 0.69321 0.0134 0.89064 0.0
C1491 C 0.69535 0.99292 0.88379 0.0
C1492 C 0.69576 0.97277 0.89093 0.0
C1493 C 0.6942 0.97289 0.90493 0.0
C1494 C 0.6923 0.99316 0.91183 0.0
C1495 C 0.69185 0.01336 0.90474 0.0
H1496 H 0.69451 0.95727 0.91044 0.0
H1497 H 0.68685 0.15438 0.84292 0.0
H1498 H 0.59848 0.98112 0.62582 0.0
H1499 H 0.62725 0.95349 0.6208 0.0
H1500 H 0.67106 0.98422 0.64992 0.0
H1501 H 0.64191 0.01158 0.65534 0.0
H1502 H 0.66615 0.95673 0.61031 0.0
H1503 H 0.70698 0.94573 0.66267 0.0
H1504 H 0.69638 0.94787 0.6866 0.0
H1505 H 0.62828 0.93239 0.67646 0.0
H1506 H 0.63853 0.92987 0.6525 0.0
H1507 H 0.76663 0.89417 0.6018 0.0
H1508 H 0.73881 0.92273 0.60751 0.0
H1509 H 0.70385 0.87489 0.63233 0.0
H1510 H 0.73212 0.84676 0.62718 0.0
H1511 H 0.7047 0.91145 0.64505 0.0
H1512 H 0.68545 0.89215 0.59968 0.0
H1513 H 0.69205 0.88647 0.57545 0.0
H1514 H 0.7097 0.95575 0.5711 0.0
H1515 H 0.70347 0.96178 0.59535 0.0
C1516 C 0.61418 0.98196 0.63124 0.0
C1517 C 0.61786 0.99858 0.64101 0.0
C1518 C 0.63068 0.96616 0.62831 0.0
C1519 C 0.65136 0.96664 0.63498 0.0
C1520 C 0.65513 0.98322 0.64477 0.0
C1521 C 0.63845 0.99889 0.64786 0.0
C1522 C 0.66893 0.9499 0.6315 0.0
C1523 C 0.67459 0.94686 0.61792 0.0
C1524 C 0.67977 0.93673 0.64137 0.0
C1525 C 0.6735 0.93787 0.65578 0.0
C1526 C 0.68977 0.9427 0.66556 0.0
C1527 C 0.68381 0.944 0.67912 0.0
C1528 C 0.66165 0.94036 0.68304 0.0
C1529 C 0.64542 0.9353 0.67341 0.0
C1530 C 0.65129 0.93396 0.65983 0.0
C1531 C 0.75291 0.88974 0.6084 0.0
C1532 C 0.75157 0.8682 0.61403 0.0
C1533 C 0.73696 0.90607 0.61165 0.0
C1534 C 0.71901 0.90099 0.62029 0.0
C1535 C 0.71755 0.87936 0.62573 0.0
C1536 C 0.73369 0.86322 0.62271 0.0
C1537 C 0.7018 0.91811 0.62382 0.0
C1538 C 0.69631 0.92135 0.63742 0.0
C1539 C 0.69053 0.93091 0.61393 0.0
C1540 C 0.69422 0.92736 0.59935 0.0
C1541 C 0.69088 0.90614 0.59357 0.0
C1542 C 0.69454 0.90286 0.57984 0.0
C1543 C 0.70135 0.92072 0.57175 0.0
C1544 C 0.70446 0.94192 0.57738 0.0
C1545 C 0.70086 0.94528 0.59112 0.0
H1546 H 0.70418 0.91815 0.56112 0.0
H1547 H 0.65708 0.9414 0.69355 0.0
H1548 H 0.76651 0.85101 0.37567 0.0
H1549 H 0.79382 0.87999 0.37049 0.0
H1550 H 0.76214 0.9242 0.39902 0.0
H1551 H 0.73514 0.89479 0.40465 0.0
H1552 H 0.79076 0.9185 0.35964 0.0
H1553 H 0.79994 0.96113 0.4115 0.0
H1554 H 0.79705 0.95158 0.43557 0.0
H1555 H 0.81311 0.88311 0.42669 0.0
H1556 H 0.81637 0.89231 0.40261 0.0
H1557 H 0.85552 0.01799 0.351 0.0
H1558 H 0.82612 0.9909 0.3565 0.0
H1559 H 0.87226 0.95528 0.38212 0.0
H1560 H 0.90123 0.98273 0.37713 0.0
H1561 H 0.83522 0.95783 0.39445 0.0
H1562 H 0.85576 0.93664 0.34952 0.0
H1563 H 0.86228 0.94245 0.3253 0.0
H1564 H 0.79345 0.96114 0.32001 0.0
H1565 H 0.78659 0.9557 0.34425 0.0
C1566 C 0.76539 0.86685 0.38092 0.0
C1567 C 0.74865 0.87055 0.39061 0.0
C1568 C 0.781 0.88348 0.37789 0.0
C1569 C 0.78019 0.90433 0.38437 0.0
C1570 C 0.76342 0.90815 0.39403 0.0
C1571 C 0.74795 0.89133 0.39724 0.0
C1572 C 0.79693 0.9219 0.38089 0.0
C1573 C 0.80044 0.92713 0.36728 0.0
C1574 C 0.80981 0.93305 0.39078 0.0
C1575 C 0.80813 0.92737 0.40525 0.0
C1576 C 0.80292 0.94405 0.4147 0.0
C1577 C 0.80121 0.9387 0.42834 0.0
C1578 C 0.80481 0.91673 0.43265 0.0
C1579 C 0.81023 0.90009 0.42334 0.0
C1580 C 0.81199 0.90537 0.40969 0.0
C1581 C 0.8594 0.00427 0.35772 0.0
C1582 C 0.8807 0.00252 0.36363 0.0
C1583 C 0.84259 0.98876 0.36086 0.0
C1584 C 0.84694 0.97087 0.36969 0.0
C1585 C 0.86835 0.96897 0.37538 0.0
C1586 C 0.88497 0.98465 0.37246 0.0
C1587 C 0.8293 0.9542 0.37319 0.0
C1588 C 0.82549 0.94928 0.38681 0.0
C1589 C 0.81667 0.94279 0.36329 0.0
C1590 C 0.82073 0.94599 0.34871 0.0
C1591 C 0.84206 0.94214 0.34321 0.0
C1592 C 0.84581 0.94534 0.32948 0.0
C1593 C 0.82831 0.95222 0.32113 0.0
C1594 C 0.807 0.95585 0.32649 0.0
C1595 C 0.80317 0.95269 0.34022 0.0
H1596 H 0.83125 0.9547 0.3105 0.0
H1597 H 0.80345 0.91262 0.44321 0.0
H1598 H 0.73776 0.13064 0.13628 0.0
H1599 H 0.76472 0.10136 0.14147 0.0
H1600 H 0.77869 0.09321 0.09921 0.0
H1601 H 0.75087 0.12212 0.09389 0.0
H1602 H 0.77761 0.05389 0.11074 0.0
H1603 H 0.81438 0.12302 0.12111 0.0
H1604 H 0.81877 0.16009 0.13168 0.0
H1605 H 0.81466 0.13003 0.17079 0.0
H1606 H 0.80995 0.09281 0.16045 0.0
H1607 H 0.88227 0.99959 0.1181 0.0
H1608 H 0.85247 0.02621 0.11339 0.0
H1609 H 0.8341 0.02668 0.15528 0.0
H1610 H 0.86415 0.99989 0.16018 0.0
H1611 H 0.83708 0.06924 0.1443 0.0
H1612 H 0.80182 0.99949 0.13324 0.0
H1613 H 0.7987 0.96278 0.12209 0.0
H1614 H 0.80166 0.99466 0.08347 0.0
H1615 H 0.80512 0.03155 0.09439 0.0
C1616 C 0.74656 0.12266 0.12806 0.0
C1617 C 0.74234 0.12892 0.11466 0.0
C1618 C 0.76207 0.10594 0.13106 0.0
C1619 C 0.77421 0.09541 0.12077 0.0
C1620 C 0.76965 0.10118 0.10734 0.0
C1621 C 0.75378 0.11772 0.10431 0.0
C1622 C 0.79168 0.0785 0.12412 0.0
C1623 C 0.79078 0.05739 0.11794 0.0
C1624 C 0.80866 0.0828 0.13374 0.0
C1625 C 0.81161 0.10515 0.14 0.0
C1626 C 0.81426 0.12434 0.13196 0.0
C1627 C 0.81683 0.14537 0.13792 0.0
C1628 C 0.81694 0.14742 0.1519 0.0
C1629 C 0.81454 0.12842 0.15996 0.0
C1630 C 0.81195 0.10735 0.15406 0.0
C1631 C 0.87194 0.00526 0.12637 0.0
C1632 C 0.87568 0.99753 0.13956 0.0
C1633 C 0.85478 0.02043 0.12362 0.0
C1634 C 0.8409 0.02826 0.13395 0.0
C1635 C 0.84459 0.02076 0.14715 0.0
C1636 C 0.86173 0.00542 0.14992 0.0
C1637 C 0.82297 0.04474 0.13093 0.0
C1638 C 0.82384 0.06577 0.13714 0.0
C1639 C 0.80614 0.04044 0.12124 0.0
C1640 C 0.80392 0.01828 0.11465 0.0
C1641 C 0.80198 0.99866 0.12237 0.0
C1642 C 0.80012 0.97782 0.11609 0.0
C1643 C 0.80004 0.97638 0.10208 0.0
C1644 C 0.80175 0.99579 0.09432 0.0
C1645 C 0.80363 0.01668 0.10055 0.0
H1646 H 0.7986 0.96023 0.09723 0.0
H1647 H 0.81892 0.16372 0.15649 0.0
H1648 H 0.74299 0.3834 0.59237 0.0
H1649 H 0.77034 0.41306 0.59689 0.0
H1650 H 0.77689 0.38996 0.63774 0.0
H1651 H 0.74969 0.36053 0.63342 0.0
H1652 H 0.77262 0.43552 0.63637 0.0
H1653 H 0.81641 0.3775 0.61466 0.0
H1654 H 0.82503 0.35141 0.59617 0.0
H1655 H 0.83112 0.40663 0.56881 0.0
H1656 H 0.82225 0.43305 0.58712 0.0
H1657 H 0.87119 0.49223 0.6572 0.0
H1658 H 0.84205 0.46481 0.65186 0.0
H1659 H 0.84642 0.48277 0.60992 0.0
H1660 H 0.87621 0.50925 0.61513 0.0
H1661 H 0.84394 0.44073 0.61109 0.0
H1662 H 0.80138 0.49915 0.63178 0.0
H1663 H 0.79117 0.52636 0.64937 0.0
H1664 H 0.78077 0.47273 0.6774 0.0
H1665 H 0.79119 0.4452 0.66001 0.0
C1666 C 0.75027 0.38461 0.60231 0.0
C1667 C 0.74413 0.36946 0.6125 0.0
C1668 C 0.76593 0.40155 0.60487 0.0
C1669 C 0.77574 0.40366 0.61765 0.0
C1670 C 0.76952 0.38869 0.62782 0.0
C1671 C 0.754 0.37176 0.62528 0.0
C1672 C 0.79259 0.42131 0.62052 0.0
C1673 C 0.78832 0.43658 0.63093 0.0
C1674 C 0.81277 0.42307 0.61317 0.0
C1675 C 0.81845 0.40722 0.60223 0.0
C1676 C 0.81945 0.38406 0.60468 0.0
C1677 C 0.8244 0.36922 0.59424 0.0
C1678 C 0.82856 0.37735 0.58131 0.0
C1679 C 0.82787 0.40036 0.57882 0.0
C1680 C 0.8229 0.41527 0.58923 0.0
C1681 C 0.86582 0.49038 0.64686 0.0
C1682 C 0.87604 0.50286 0.63659 0.0
C1683 C 0.84906 0.47477 0.64381 0.0
C1684 C 0.84173 0.47183 0.63047 0.0
C1685 C 0.85177 0.48457 0.62027 0.0
C1686 C 0.86879 0.49978 0.62327 0.0
C1687 C 0.8241 0.45508 0.62703 0.0
C1688 C 0.82822 0.4399 0.61651 0.0
C1689 C 0.80361 0.45363 0.63415 0.0
C1690 C 0.79727 0.47013 0.64462 0.0
C1691 C 0.79706 0.49317 0.64172 0.0
C1692 C 0.79122 0.50865 0.65165 0.0
C1693 C 0.78538 0.50128 0.66451 0.0
C1694 C 0.78532 0.47841 0.66744 0.0
C1695 C 0.79117 0.46286 0.65755 0.0
H1696 H 0.78086 0.51329 0.67218 0.0
H1697 H 0.83235 0.36583 0.57323 0.0
H1698 H 0.9016 0.51892 0.86922 0.0
H1699 H 0.87215 0.5454 0.87521 0.0
H1700 H 0.82249 0.5004 0.85897 0.0
H1701 H 0.85224 0.47448 0.85218 0.0
H1702 H 0.80986 0.53939 0.85361 0.0
H1703 H 0.83442 0.50593 0.89442 0.0
H1704 H 0.86154 0.49362 0.91158 0.0
H1705 H 0.88102 0.56183 0.91845 0.0
H1706 H 0.85422 0.57454 0.90121 0.0
H1707 H 0.74103 0.60622 0.90778 0.0
H1708 H 0.76641 0.57533 0.90215 0.0
H1709 H 0.78822 0.61105 0.86685 0.0
H1710 H 0.76289 0.64157 0.8722 0.0
H1711 H 0.81043 0.57198 0.89947 0.0
H1712 H 0.7979 0.57599 0.84133 0.0
H1713 H 0.76772 0.5846 0.82523 0.0
H1714 H 0.71841 0.56827 0.85504 0.0
H1715 H 0.74827 0.55924 0.87125 0.0
C1716 C 0.8844 0.51481 0.8668 0.0
C1717 C 0.87916 0.49463 0.86029 0.0
C1718 C 0.86752 0.52985 0.87036 0.0
C1719 C 0.84493 0.52466 0.86796 0.0
C1720 C 0.83974 0.50479 0.86104 0.0
C1721 C 0.85673 0.48999 0.85713 0.0
C1722 C 0.82684 0.53996 0.87271 0.0
C1723 C 0.81001 0.54642 0.86366 0.0
C1724 C 0.82644 0.54871 0.88597 0.0
C1725 C 0.8424 0.54116 0.89646 0.0
C1726 C 0.84456 0.5183 0.89955 0.0
C1727 C 0.85987 0.51125 0.90929 0.0
C1728 C 0.87302 0.52693 0.91608 0.0
C1729 C 0.87083 0.5497 0.91318 0.0
C1730 C 0.85556 0.55684 0.90344 0.0
C1731 C 0.75124 0.6075 0.89883 0.0
C1732 C 0.74971 0.62636 0.8904 0.0
C1733 C 0.76576 0.58983 0.89563 0.0
C1734 C 0.77894 0.59067 0.88394 0.0
C1735 C 0.77786 0.60974 0.87575 0.0
C1736 C 0.76338 0.62728 0.87889 0.0
C1737 C 0.79404 0.57186 0.88023 0.0
C1738 C 0.81026 0.56476 0.88947 0.0
C1739 C 0.79342 0.56194 0.8673 0.0
C1740 C 0.77536 0.56713 0.85754 0.0
C1741 C 0.78063 0.57413 0.84443 0.0
C1742 C 0.76357 0.5791 0.83529 0.0
C1743 C 0.74117 0.57704 0.83912 0.0
C1744 C 0.73577 0.56994 0.8521 0.0
C1745 C 0.75276 0.56492 0.86127 0.0
H1746 H 0.72799 0.58091 0.83203 0.0
H1747 H 0.88488 0.52144 0.92361 0.0
H1748 H 0.73312 0.6523 0.12573 0.0
H1749 H 0.70668 0.62267 0.13128 0.0
H1750 H 0.74497 0.57596 0.10749 0.0
H1751 H 0.77104 0.60599 0.10139 0.0
H1752 H 0.70361 0.56731 0.10401 0.0
H1753 H 0.74792 0.57769 0.14303 0.0
H1754 H 0.76647 0.59839 0.16134 0.0
H1755 H 0.70254 0.6195 0.1764 0.0
H1756 H 0.6836 0.59918 0.15807 0.0
H1757 H 0.64529 0.48815 0.15666 0.0
H1758 H 0.67578 0.51386 0.15091 0.0
H1759 H 0.63403 0.54474 0.1208 0.0
H1760 H 0.60389 0.51885 0.12618 0.0
H1761 H 0.68178 0.55672 0.1517 0.0
H1762 H 0.6636 0.56131 0.09412 0.0
H1763 H 0.64912 0.5368 0.07617 0.0
H1764 H 0.66813 0.47875 0.09889 0.0
H1765 H 0.68301 0.50288 0.11688 0.0
C1766 C 0.73586 0.63575 0.12161 0.0
C1767 C 0.75428 0.63145 0.1132 0.0
C1768 C 0.72081 0.61875 0.12488 0.0
C1769 C 0.72412 0.59686 0.12014 0.0
C1770 C 0.7421 0.59265 0.11137 0.0
C1771 C 0.75699 0.60983 0.10787 0.0
C1772 C 0.70873 0.57851 0.12435 0.0
C1773 C 0.6989 0.56498 0.11444 0.0
C1774 C 0.70304 0.57488 0.13801 0.0
C1775 C 0.71435 0.58704 0.14911 0.0
C1776 C 0.73782 0.58686 0.1502 0.0
C1777 C 0.74841 0.59852 0.16058 0.0
C1778 C 0.73569 0.61029 0.17001 0.0
C1779 C 0.71236 0.61039 0.16909 0.0
C1780 C 0.70169 0.59878 0.15871 0.0
C1781 C 0.64258 0.50049 0.14886 0.0
C1782 C 0.6222 0.50126 0.14179 0.0
C1783 C 0.66004 0.51517 0.14557 0.0
C1784 C 0.65742 0.53095 0.13521 0.0
C1785 C 0.63674 0.53233 0.12856 0.0
C1786 C 0.61944 0.51755 0.13172 0.0
C1787 C 0.67612 0.54609 0.13131 0.0
C1788 C 0.68659 0.55898 0.14127 0.0
C1789 C 0.68298 0.54859 0.11775 0.0
C1790 C 0.67424 0.53394 0.10691 0.0
C1791 C 0.66478 0.54332 0.09526 0.0
C1792 C 0.65649 0.52949 0.08508 0.0
C1793 C 0.65764 0.50623 0.08641 0.0
C1794 C 0.66717 0.49676 0.0979 0.0
C1795 C 0.67551 0.51051 0.1081 0.0
H1796 H 0.6512 0.49556 0.07852 0.0
H1797 H 0.74392 0.61931 0.17804 0.0
H1798 H 0.75138 0.38372 0.41123 0.0
H1799 H 0.72382 0.41321 0.40668 0.0
H1800 H 0.73036 0.4013 0.36413 0.0
H1801 H 0.75769 0.3719 0.36853 0.0
H1802 H 0.73036 0.44696 0.37086 0.0
H1803 H 0.68678 0.38008 0.37987 0.0
H1804 H 0.67555 0.34765 0.39364 0.0
H1805 H 0.65644 0.39165 0.42577 0.0
H1806 H 0.66776 0.42434 0.41222 0.0
H1807 H 0.63363 0.50198 0.34549 0.0
H1808 H 0.66319 0.4751 0.35095 0.0
H1809 H 0.64628 0.48005 0.39299 0.0
H1810 H 0.61643 0.50625 0.3876 0.0
H1811 H 0.65244 0.43863 0.38732 0.0
H1812 H 0.69388 0.50549 0.37913 0.0
H1813 H 0.70622 0.53889 0.36662 0.0
H1814 H 0.73084 0.49714 0.33476 0.0
H1815 H 0.71836 0.46348 0.34701 0.0
C1816 C 0.74701 0.38744 0.40091 0.0
C1817 C 0.75665 0.37531 0.39026 0.0
C1818 C 0.73124 0.40426 0.39833 0.0
C1819 C 0.72498 0.40936 0.38506 0.0
C1820 C 0.73496 0.39766 0.37443 0.0
C1821 C 0.75049 0.38073 0.377 0.0
C1822 C 0.70756 0.42641 0.38217 0.0
C1823 C 0.71325 0.44509 0.37434 0.0
C1824 C 0.68543 0.42423 0.38703 0.0
C1825 C 0.6783 0.40462 0.39509 0.0
C1826 C 0.6803 0.38282 0.3899 0.0
C1827 C 0.67389 0.3644 0.39766 0.0
C1828 C 0.66533 0.36758 0.41058 0.0
C1829 C 0.66308 0.38921 0.41576 0.0
C1830 C 0.66946 0.40769 0.40804 0.0
C1831 C 0.63625 0.49738 0.35589 0.0
C1832 C 0.62259 0.50628 0.36608 0.0
C1833 C 0.65325 0.48207 0.35902 0.0
C1834 C 0.65718 0.47568 0.37243 0.0
C1835 C 0.64359 0.48462 0.38258 0.0
C1836 C 0.62649 0.49967 0.37946 0.0
C1837 C 0.67511 0.45934 0.37591 0.0
C1838 C 0.66953 0.4407 0.38386 0.0
C1839 C 0.69744 0.46178 0.37133 0.0
C1840 C 0.70497 0.48197 0.36393 0.0
C1841 C 0.70176 0.50343 0.36941 0.0
C1842 C 0.70881 0.52242 0.36237 0.0
C1843 C 0.71925 0.52014 0.34988 0.0
C1844 C 0.72272 0.49888 0.34442 0.0
C1845 C 0.71567 0.47984 0.35141 0.0
H1846 H 0.7247 0.53486 0.34445 0.0
H1847 H 0.66041 0.3533 0.41658 0.0
H1848 H 0.13919 0.49603 0.34494 0.0
H1849 H 0.16838 0.5236 0.35 0.0
H1850 H 0.14517 0.52746 0.39097 0.0
H1851 H 0.11591 0.50048 0.38601 0.0
H1852 H 0.15229 0.56774 0.38195 0.0
H1853 H 0.19352 0.49906 0.3822 0.0
H1854 H 0.2074 0.46319 0.37322 0.0
H1855 H 0.23898 0.49773 0.34048 0.0
H1856 H 0.22501 0.5338 0.34917 0.0
H1857 H 0.24732 0.62333 0.41047 0.0
H1858 H 0.22016 0.5937 0.40526 0.0
H1859 H 0.23507 0.60043 0.36307 0.0
H1860 H 0.26183 0.63017 0.36813 0.0
H1861 H 0.23282 0.55484 0.37262 0.0
H1862 H 0.19053 0.62366 0.37293 0.0
H1863 H 0.17709 0.65906 0.38278 0.0
H1864 H 0.14796 0.62299 0.41574 0.0
H1865 H 0.16154 0.58738 0.40618 0.0
C1866 C 0.14034 0.50271 0.35503 0.0
C1867 C 0.12511 0.496 0.36503 0.0
C1868 C 0.15711 0.51841 0.35793 0.0
C1869 C 0.15911 0.52752 0.37091 0.0
C1870 C 0.14396 0.52078 0.38088 0.0
C1871 C 0.12721 0.50525 0.37799 0.0
C1872 C 0.1766 0.54442 0.37417 0.0
C1873 C 0.16991 0.56473 0.38005 0.0
C1874 C 0.1996 0.54076 0.37152 0.0
C1875 C 0.208 0.51911 0.36625 0.0
C1876 C 0.20325 0.49899 0.37302 0.0
C1877 C 0.21117 0.47863 0.368 0.0
C1878 C 0.22401 0.47818 0.35627 0.0
C1879 C 0.229 0.4981 0.34956 0.0
C1880 C 0.2211 0.51851 0.35453 0.0
C1881 C 0.24487 0.61841 0.4001 0.0
C1882 C 0.25659 0.62922 0.38971 0.0
C1883 C 0.22936 0.60153 0.39714 0.0
C1884 C 0.2256 0.59495 0.38377 0.0
C1885 C 0.23775 0.60525 0.37344 0.0
C1886 C 0.25292 0.62234 0.37636 0.0
C1887 C 0.20842 0.57791 0.38044 0.0
C1888 C 0.21517 0.55769 0.37452 0.0
C1889 C 0.18549 0.58152 0.38318 0.0
C1890 C 0.17728 0.60289 0.38892 0.0
C1891 C 0.18145 0.6233 0.38235 0.0
C1892 C 0.17377 0.6434 0.38786 0.0
C1893 C 0.16174 0.64328 0.3999 0.0
C1894 C 0.15732 0.62306 0.40643 0.0
C1895 C 0.16499 0.60291 0.40096 0.0
H1896 H 0.1558 0.65886 0.40415 0.0
H1897 H 0.23013 0.4624 0.3524 0.0
H1898 H 0.26026 0.37218 0.13698 0.0
H1899 H 0.23307 0.40127 0.14204 0.0
H1900 H 0.2231 0.41271 0.09966 0.0
H1901 H 0.25107 0.38388 0.09448 0.0
H1902 H 0.22362 0.45129 0.11247 0.0
H1903 H 0.18514 0.38202 0.119 0.0
H1904 H 0.17909 0.34402 0.12796 0.0
H1905 H 0.17942 0.36987 0.16821 0.0
H1906 H 0.18578 0.40801 0.1595 0.0
H1907 H 0.11837 0.50592 0.11873 0.0
H1908 H 0.14835 0.47948 0.11385 0.0
H1909 H 0.1645 0.47578 0.156 0.0
H1910 H 0.13442 0.50247 0.16105 0.0
H1911 H 0.16089 0.43377 0.14341 0.0
H1912 H 0.19828 0.50382 0.13604 0.0
H1913 H 0.20299 0.54148 0.12633 0.0
H1914 H 0.20288 0.51351 0.0866 0.0
H1915 H 0.19783 0.47568 0.09606 0.0
C1916 C 0.25232 0.38083 0.12869 0.0
C1917 C 0.25769 0.37549 0.1153 0.0
C1918 C 0.23667 0.39746 0.13162 0.0
C1919 C 0.22559 0.40888 0.12124 0.0
C1920 C 0.23132 0.40405 0.10784 0.0
C1921 C 0.24728 0.38754 0.10489 0.0
C1922 C 0.20798 0.42569 0.12448 0.0
C1923 C 0.20975 0.44734 0.11909 0.0
C1924 C 0.19004 0.42075 0.13333 0.0
C1925 C 0.18614 0.39784 0.1386 0.0
C1926 C 0.18408 0.37958 0.12977 0.0
C1927 C 0.18057 0.35802 0.1348 0.0
C1928 C 0.17893 0.35452 0.14864 0.0
C1929 C 0.18073 0.3726 0.15749 0.0
C1930 C 0.18426 0.39419 0.15251 0.0
C1931 C 0.12827 0.49957 0.12701 0.0
C1932 C 0.12392 0.50634 0.14031 0.0
C1933 C 0.14551 0.48452 0.12416 0.0
C1934 C 0.15877 0.4758 0.13454 0.0
C1935 C 0.15449 0.48239 0.14784 0.0
C1936 C 0.13735 0.49768 0.1507 0.0
C1937 C 0.17662 0.45928 0.13144 0.0
C1938 C 0.17483 0.43768 0.13683 0.0
C1939 C 0.19434 0.46421 0.12247 0.0
C1940 C 0.19747 0.48693 0.11676 0.0
C1941 C 0.19907 0.50571 0.12523 0.0
C1942 C 0.20184 0.52709 0.11977 0.0
C1943 C 0.20318 0.52989 0.10586 0.0
C1944 C 0.20181 0.51131 0.09737 0.0
C1945 C 0.19902 0.4899 0.10278 0.0
H1946 H 0.20533 0.54646 0.10165 0.0
H1947 H 0.17621 0.33782 0.15252 0.0
H1948 H 0.39904 0.49267 0.88243 0.0
H1949 H 0.37026 0.46541 0.8879 0.0
H1950 H 0.32957 0.48986 0.85523 0.0
H1951 H 0.35879 0.51698 0.84941 0.0
H1952 H 0.32968 0.46894 0.89631 0.0
H1953 H 0.29708 0.44738 0.84318 0.0
H1954 H 0.31076 0.44613 0.81979 0.0
H1955 H 0.3779 0.43593 0.83391 0.0
H1956 H 0.36457 0.43683 0.85736 0.0
H1957 H 0.23246 0.40024 0.90348 0.0
H1958 H 0.25921 0.42988 0.89788 0.0
H1959 H 0.30083 0.38157 0.87747 0.0
H1960 H 0.27359 0.3523 0.88241 0.0
H1961 H 0.29902 0.41579 0.86279 0.0
H1962 H 0.31298 0.40539 0.91003 0.0
H1963 H 0.30296 0.4033 0.93404 0.0
H1964 H 0.28005 0.47139 0.93295 0.0
H1965 H 0.28969 0.47379 0.90888 0.0
C1966 C 0.38403 0.49229 0.87634 0.0
C1967 C 0.3813 0.50706 0.86544 0.0
C1968 C 0.36749 0.47669 0.87954 0.0
C1969 C 0.34771 0.47546 0.87199 0.0
C1970 C 0.34481 0.49023 0.86111 0.0
C1971 C 0.36153 0.50576 0.85779 0.0
C1972 C 0.33035 0.45857 0.87558 0.0
C1973 C 0.32293 0.45736 0.88896 0.0
C1974 C 0.32169 0.44321 0.86608 0.0
C1975 C 0.32985 0.44246 0.85201 0.0
C1976 C 0.31475 0.44482 0.84128 0.0
C1977 C 0.32244 0.44417 0.82802 0.0
C1978 C 0.34519 0.44104 0.82537 0.0
C1979 C 0.36029 0.43845 0.83598 0.0
C1980 C 0.35268 0.43906 0.84925 0.0
C1981 C 0.24746 0.39596 0.89794 0.0
C1982 C 0.25096 0.37396 0.8934 0.0
C1983 C 0.26278 0.41291 0.89474 0.0
C1984 C 0.28223 0.40803 0.88731 0.0
C1985 C 0.28593 0.38589 0.88311 0.0
C1986 C 0.27041 0.36911 0.88602 0.0
C1987 C 0.29857 0.42589 0.8836 0.0
C1988 C 0.30567 0.42741 0.87015 0.0
C1989 C 0.30749 0.44105 0.89314 0.0
C1990 C 0.30185 0.43969 0.90763 0.0
C1991 C 0.30568 0.41987 0.91489 0.0
C1992 C 0.30009 0.41863 0.92851 0.0
C1993 C 0.29082 0.43718 0.93501 0.0
C1994 C 0.2872 0.45703 0.9279 0.0
C1995 C 0.29274 0.45834 0.91428 0.0
H1996 H 0.28649 0.43619 0.94555 0.0
H1997 H 0.35112 0.44056 0.8151 0.0
H1998 H 0.38208 0.49713 0.61863 0.0
H1999 H 0.35259 0.52382 0.61359 0.0
H2000 H 0.33357 0.52521 0.65538 0.0
H2001 H 0.36304 0.49791 0.66056 0.0
H2002 H 0.29712 0.52448 0.63939 0.0
H2003 H 0.36413 0.56778 0.64176 0.0
H2004 H 0.40325 0.57784 0.6367 0.0
H2005 H 0.3868 0.58513 0.59493 0.0
H2006 H 0.34762 0.5748 0.59971 0.0
H2007 H 0.238 0.628 0.63642 0.0
H2008 H 0.26476 0.59821 0.64119 0.0
H2009 H 0.27751 0.5905 0.59881 0.0
H2010 H 0.25041 0.62032 0.59388 0.0
H2011 H 0.31666 0.59434 0.6151 0.0
H2012 H 0.24867 0.55184 0.61346 0.0
H2013 H 0.20955 0.54306 0.6193 0.0
H2014 H 0.22797 0.53576 0.66076 0.0
H2015 H 0.26717 0.54485 0.6552 0.0
C2016 C 0.37171 0.50305 0.62682 0.0
C2017 C 0.37515 0.49546 0.64006 0.0
C2018 C 0.35483 0.51841 0.62389 0.0
C2019 C 0.3411 0.52687 0.63413 0.0
C2020 C 0.34405 0.51899 0.64732 0.0
C2021 C 0.36094 0.50343 0.65027 0.0
C2022 C 0.3239 0.54409 0.63095 0.0
C2023 C 0.30144 0.53989 0.63425 0.0
C2024 C 0.32944 0.56404 0.62399 0.0
C2025 C 0.35298 0.5703 0.62108 0.0
C2026 C 0.36889 0.57135 0.63148 0.0
C2027 C 0.39107 0.57714 0.62866 0.0
C2028 C 0.39752 0.58207 0.6155 0.0
C2029 C 0.38178 0.58128 0.60512 0.0
C2030 C 0.35958 0.57548 0.60788 0.0
C2031 C 0.2464 0.61996 0.62807 0.0
C2032 C 0.24211 0.62661 0.61475 0.0
C2033 C 0.26162 0.60284 0.63084 0.0
C2034 C 0.27303 0.59209 0.62036 0.0
C2035 C 0.26881 0.59859 0.60704 0.0
C2036 C 0.25329 0.61555 0.60423 0.0
C2037 C 0.28994 0.57465 0.62347 0.0
C2038 C 0.31236 0.57888 0.62019 0.0
C2039 C 0.28437 0.55488 0.63056 0.0
C2040 C 0.26083 0.54925 0.63393 0.0
C2041 C 0.24436 0.54856 0.62384 0.0
C2042 C 0.22217 0.54349 0.6271 0.0
C2043 C 0.21627 0.53891 0.6404 0.0
C2044 C 0.23256 0.53933 0.65047 0.0
C2045 C 0.25477 0.54443 0.64726 0.0
H2046 H 0.19908 0.535 0.6429 0.0
H2047 H 0.4147 0.58655 0.61334 0.0
H2048 H 0.42181 0.11658 0.11977 0.0
H2049 H 0.40511 0.15224 0.11361 0.0
H2050 H 0.36235 0.14925 0.14848 0.0
H2051 H 0.37927 0.11341 0.15488 0.0
H2052 H 0.36313 0.1611 0.10685 0.0
H2053 H 0.3501 0.20366 0.15827 0.0
H2054 H 0.36703 0.20419 0.18089 0.0
H2055 H 0.43061 0.18567 0.16413 0.0
H2056 H 0.41414 0.18534 0.14141 0.0
H2057 H 0.30305 0.2752 0.11958 0.0
H2058 H 0.31865 0.23998 0.12791 0.0
H2059 H 0.3644 0.23821 0.0944 0.0
H2060 H 0.34866 0.27328 0.08592 0.0
H2061 H 0.35999 0.22827 0.13607 0.0
H2062 H 0.37264 0.18451 0.0847 0.0
H2063 H 0.35564 0.18413 0.06211 0.0
H2064 H 0.29273 0.20494 0.0788 0.0
H2065 H 0.30926 0.20515 0.1015 0.0
C2066 C 0.40894 0.12346 0.12622 0.0
C2067 C 0.40184 0.11198 0.13782 0.0
C2068 C 0.39936 0.1439 0.12264 0.0
C2069 C 0.38248 0.15349 0.13056 0.0
C2070 C 0.37553 0.14231 0.14227 0.0
C2071 C 0.38519 0.12179 0.14591 0.0
C2072 C 0.37184 0.17479 0.12618 0.0
C2073 C 0.36268 0.17585 0.1132 0.0
C2074 C 0.37064 0.19388 0.13458 0.0
C2075 C 0.3808 0.19421 0.14817 0.0
C2076 C 0.3677 0.19976 0.15942 0.0
C2077 C 0.37722 0.20002 0.17225 0.0
C2078 C 0.39986 0.19488 0.17395 0.0
C2079 C 0.41305 0.18955 0.16281 0.0
C2080 C 0.40362 0.18929 0.14995 0.0
C2081 C 0.3164 0.26728 0.11397 0.0
C2082 C 0.32453 0.27695 0.10204 0.0
C2083 C 0.32536 0.24719 0.11878 0.0
C2084 C 0.34254 0.2363 0.11172 0.0
C2085 C 0.3509 0.24611 0.09991 0.0
C2086 C 0.34194 0.26619 0.09508 0.0
C2087 C 0.35163 0.21464 0.11667 0.0
C2088 C 0.36039 0.21348 0.12975 0.0
C2089 C 0.35247 0.19541 0.10837 0.0
C2090 C 0.34227 0.19506 0.09478 0.0
C2091 C 0.35516 0.18892 0.08355 0.0
C2092 C 0.34561 0.18875 0.07073 0.0
C2093 C 0.32314 0.19457 0.06901 0.0
C2094 C 0.31015 0.20051 0.08013 0.0
C2095 C 0.31961 0.20069 0.09297 0.0
H2096 H 0.31579 0.19445 0.05908 0.0
H2097 H 0.40719 0.19508 0.18389 0.0
H2098 H 0.13529 0.17339 0.37015 0.0
H2099 H 0.09973 0.15648 0.36398 0.0
H2100 H 0.10321 0.11336 0.39867 0.0
H2101 H 0.13895 0.13048 0.40508 0.0
H2102 H 0.0911 0.11441 0.35709 0.0
H2103 H 0.04899 0.1008 0.40863 0.0
H2104 H 0.04842 0.11772 0.43125 0.0
H2105 H 0.06624 0.18148 0.41446 0.0
H2106 H 0.06663 0.16502 0.39175 0.0
H2107 H 0.97792 0.05273 0.36974 0.0
H2108 H 0.01293 0.06875 0.37815 0.0
H2109 H 0.01383 0.11519 0.34497 0.0
H2110 H 0.97898 0.09909 0.33643 0.0
H2111 H 0.02419 0.11042 0.38648 0.0
H2112 H 0.06737 0.12381 0.33503 0.0
H2113 H 0.06767 0.10698 0.31239 0.0
H2114 H 0.04767 0.04374 0.329 0.0
H2115 H 0.04756 0.06011 0.35174 0.0
C2116 C 0.12854 0.16039 0.37656 0.0
C2117 C 0.14013 0.15326 0.38811 0.0
C2118 C 0.10815 0.15069 0.37297 0.0
C2119 C 0.09873 0.13365 0.38084 0.0
C2120 C 0.11002 0.12666 0.3925 0.0
C2121 C 0.13049 0.13643 0.39614 0.0
C2122 C 0.07748 0.12288 0.37647 0.0
C2123 C 0.0764 0.11378 0.36348 0.0
C2124 C 0.05845 0.12146 0.38492 0.0
C2125 C 0.05811 0.13159 0.39851 0.0
C2126 C 0.05274 0.11844 0.40977 0.0
C2127 C 0.05245 0.12795 0.4226 0.0
C2128 C 0.05738 0.15064 0.4243 0.0
C2129 C 0.06253 0.16388 0.41315 0.0
C2130 C 0.06282 0.15446 0.40029 0.0
C2131 C 0.98559 0.06633 0.36422 0.0
C2132 C 0.97576 0.07454 0.35236 0.0
C2133 C 0.00556 0.07553 0.36907 0.0
C2134 C 0.01616 0.09301 0.36212 0.0
C2135 C 0.00616 0.10147 0.3504 0.0
C2136 C 0.9862 0.09229 0.34554 0.0
C2137 C 0.03777 0.10228 0.36704 0.0
C2138 C 0.03892 0.111 0.38013 0.0
C2139 C 0.05691 0.10337 0.35869 0.0
C2140 C 0.05725 0.09327 0.34507 0.0
C2141 C 0.06313 0.10629 0.33385 0.0
C2142 C 0.06325 0.09683 0.321 0.0
C2143 C 0.05762 0.07432 0.31926 0.0
C2144 C 0.05194 0.0612 0.33036 0.0
C2145 C 0.05182 0.07056 0.34323 0.0
H2146 H 0.0577 0.06704 0.3093 0.0
H2147 H 0.05715 0.15796 0.43424 0.0
H2148 H 0.12003 0.88914 0.65611 0.0
H2149 H 0.13663 0.85271 0.65068 0.0
H2150 H 0.09179 0.84614 0.61695 0.0
H2151 H 0.07495 0.88209 0.62239 0.0
H2152 H 0.09596 0.80703 0.62961 0.0
H2153 H 0.14615 0.86435 0.61306 0.0
H2154 H 0.17051 0.89749 0.61518 0.0
H2155 H 0.21158 0.86268 0.64375 0.0
H2156 H 0.18728 0.82941 0.64192 0.0
H2157 H 0.15143 0.7298 0.5872 0.0
H2158 H 0.13452 0.76351 0.59682 0.0
H2159 H 0.18203 0.76172 0.62943 0.0
H2160 H 0.1991 0.72811 0.61982 0.0
H2161 H 0.17724 0.80373 0.6196 0.0
H2162 H 0.12907 0.74516 0.63464 0.0
H2163 H 0.10508 0.71183 0.63229 0.0
H2164 H 0.06042 0.74851 0.60667 0.0
H2165 H 0.08431 0.78202 0.60872 0.0
C2166 C 0.11358 0.87985 0.64761 0.0
C2167 C 0.09633 0.88874 0.6396 0.0
C2168 C 0.12315 0.85906 0.64448 0.0
C2169 C 0.11569 0.84682 0.63327 0.0
C2170 C 0.0979 0.85527 0.62561 0.0
C2171 C 0.08837 0.87597 0.62871 0.0
C2172 C 0.12683 0.82565 0.62909 0.0
C2173 C 0.1137 0.80635 0.62734 0.0
C2174 C 0.15009 0.82456 0.62642 0.0
C2175 C 0.16476 0.8445 0.62747 0.0
C2176 C 0.16028 0.86383 0.61986 0.0
C2177 C 0.17409 0.88262 0.621 0.0
C2178 C 0.19254 0.88222 0.62962 0.0
C2179 C 0.19726 0.86298 0.6371 0.0
C2180 C 0.18348 0.84416 0.63601 0.0
C2181 C 0.15831 0.73662 0.5964 0.0
C2182 C 0.17657 0.72627 0.60276 0.0
C2183 C 0.14856 0.75582 0.60192 0.0
C2184 C 0.15684 0.765 0.61394 0.0
C2185 C 0.17532 0.75491 0.62018 0.0
C2186 C 0.18503 0.73567 0.61468 0.0
C2187 C 0.14631 0.78523 0.61991 0.0
C2188 C 0.15954 0.80433 0.622 0.0
C2189 C 0.12316 0.78612 0.6229 0.0
C2190 C 0.1086 0.76606 0.62175 0.0
C2191 C 0.11423 0.74609 0.62843 0.0
C2192 C 0.10064 0.72716 0.62716 0.0
C2193 C 0.08128 0.72802 0.6193 0.0
C2194 C 0.07543 0.74786 0.61274 0.0
C2195 C 0.08898 0.76684 0.61397 0.0
H2196 H 0.07079 0.71334 0.61833 0.0
H2197 H 0.20321 0.89678 0.63049 0.0
H2198 H 0.52582 0.94298 0.869 0.0
H2199 H 0.49111 0.92658 0.87753 0.0
H2200 H 0.48603 0.88573 0.84194 0.0
H2201 H 0.5208 0.90207 0.83334 0.0
H2202 H 0.44612 0.90566 0.8485 0.0
H2203 H 0.50304 0.86301 0.87063 0.0
H2204 H 0.53717 0.85786 0.8842 0.0
H2205 H 0.50531 0.88969 0.91782 0.0
H2206 H 0.47111 0.89543 0.90436 0.0
H2207 H 0.36417 0.8291 0.869 0.0
H2208 H 0.40006 0.84493 0.86248 0.0
H2209 H 0.40103 0.88486 0.89856 0.0
H2210 H 0.36492 0.86884 0.90533 0.0
H2211 H 0.44292 0.86636 0.8924 0.0
H2212 H 0.38598 0.90897 0.87009 0.0
H2213 H 0.35217 0.91448 0.85627 0.0
H2214 H 0.38447 0.88261 0.82281 0.0
H2215 H 0.41837 0.87661 0.8365 0.0
C2216 C 0.51733 0.93051 0.86298 0.0
C2217 C 0.52608 0.92378 0.8505 0.0
C2218 C 0.49753 0.92109 0.8679 0.0
C2219 C 0.48608 0.90478 0.86043 0.0
C2220 C 0.49461 0.89826 0.84787 0.0
C2221 C 0.5145 0.90758 0.84299 0.0
C2222 C 0.46509 0.89467 0.86565 0.0
C2223 C 0.44549 0.89683 0.85801 0.0
C2224 C 0.46417 0.88362 0.87824 0.0
C2225 C 0.48458 0.87986 0.88644 0.0
C2226 C 0.50336 0.86908 0.88089 0.0
C2227 C 0.52272 0.86603 0.88856 0.0
C2228 C 0.52343 0.87349 0.90185 0.0
C2229 C 0.50475 0.88395 0.90751 0.0
C2230 C 0.48537 0.8871 0.89987 0.0
C2231 C 0.37195 0.84118 0.87564 0.0
C2232 C 0.36142 0.84786 0.88765 0.0
C2233 C 0.39253 0.85023 0.87186 0.0
C2234 C 0.40307 0.86634 0.87992 0.0
C2235 C 0.39312 0.87251 0.89216 0.0
C2236 C 0.37244 0.86339 0.89599 0.0
C2237 C 0.42401 0.87725 0.87518 0.0
C2238 C 0.44357 0.87525 0.88291 0.0
C2239 C 0.42495 0.88845 0.86265 0.0
C2240 C 0.40464 0.89216 0.85436 0.0
C2241 C 0.38581 0.90298 0.85982 0.0
C2242 C 0.36664 0.90622 0.852 0.0
C2243 C 0.36616 0.89885 0.83868 0.0
C2244 C 0.38486 0.88829 0.83314 0.0
C2245 C 0.40407 0.88498 0.84092 0.0
H2246 H 0.3513 0.90138 0.83265 0.0
H2247 H 0.53844 0.87113 0.90778 0.0
H2248 H 0.30327 0.72974 0.38548 0.0
H2249 H 0.32064 0.76395 0.37691 0.0
H2250 H 0.36635 0.76417 0.41046 0.0
H2251 H 0.34885 0.7301 0.41918 0.0
H2252 H 0.34969 0.8051 0.40613 0.0
H2253 H 0.38321 0.74761 0.37929 0.0
H2254 H 0.38323 0.71479 0.36428 0.0
H2255 H 0.34784 0.75239 0.33427 0.0
H2256 H 0.3473 0.78536 0.3492 0.0
H2257 H 0.42806 0.88346 0.3833 0.0
H2258 H 0.41108 0.84796 0.3896 0.0
H2259 H 0.36493 0.85336 0.35645 0.0
H2260 H 0.38212 0.88903 0.34989 0.0
H2261 H 0.38075 0.8099 0.35997 0.0
H2262 H 0.34773 0.86756 0.38717 0.0
H2263 H 0.34808 0.90002 0.40246 0.0
H2264 H 0.38333 0.86143 0.43206 0.0
H2265 H 0.38347 0.82881 0.41686 0.0
C2266 C 0.31701 0.73708 0.39104 0.0
C2267 C 0.32471 0.72721 0.403 0.0
C2268 C 0.327 0.75658 0.38609 0.0
C2269 C 0.34498 0.76651 0.39295 0.0
C2270 C 0.35252 0.7568 0.40498 0.0
C2271 C 0.34253 0.73731 0.40994 0.0
C2272 C 0.35574 0.78718 0.38771 0.0
C2273 C 0.35673 0.80603 0.39609 0.0
C2274 C 0.36445 0.7886 0.3745 0.0
C2275 C 0.36502 0.7689 0.36542 0.0
C2276 C 0.37529 0.74884 0.36953 0.0
C2277 C 0.37541 0.73021 0.36104 0.0
C2278 C 0.36549 0.73148 0.34835 0.0
C2279 C 0.35549 0.75142 0.34411 0.0
C2280 C 0.35529 0.77009 0.35259 0.0
C2281 C 0.41438 0.87713 0.37726 0.0
C2282 C 0.40628 0.88932 0.36617 0.0
C2283 C 0.40467 0.85679 0.3809 0.0
C2284 C 0.38646 0.8482 0.37365 0.0
C2285 C 0.3789 0.85975 0.36223 0.0
C2286 C 0.38871 0.88016 0.35852 0.0
C2287 C 0.37484 0.82769 0.37844 0.0
C2288 C 0.37366 0.80893 0.36998 0.0
C2289 C 0.36601 0.82627 0.39162 0.0
C2290 C 0.36577 0.8458 0.40083 0.0
C2291 C 0.35569 0.86604 0.3969 0.0
C2292 C 0.35578 0.88446 0.40556 0.0
C2293 C 0.36576 0.8828 0.41821 0.0
C2294 C 0.37562 0.86269 0.42225 0.0
C2295 C 0.3756 0.84423 0.41363 0.0
H2296 H 0.36582 0.89709 0.4249 0.0
H2297 H 0.36559 0.71704 0.34179 0.0
H2298 H 0.37202 0.17898 0.63097 0.0
H2299 H 0.40822 0.16237 0.63632 0.0
H2300 H 0.39727 0.11141 0.60634 0.0
H2301 H 0.36093 0.12815 0.60082 0.0
H2302 H 0.40984 0.09367 0.63037 0.0
H2303 H 0.43521 0.15062 0.60119 0.0
H2304 H 0.44072 0.18812 0.59147 0.0
H2305 H 0.47209 0.2102 0.62794 0.0
H2306 H 0.46623 0.17299 0.63804 0.0
H2307 H 0.5196 0.04816 0.63696 0.0
H2308 H 0.4859 0.06575 0.62787 0.0
H2309 H 0.4909 0.11814 0.65753 0.0
H2310 H 0.52473 0.10063 0.66667 0.0
H2311 H 0.48214 0.13437 0.63199 0.0
H2312 H 0.45325 0.07724 0.6615 0.0
H2313 H 0.4495 0.03876 0.67017 0.0
H2314 H 0.42609 0.01655 0.63162 0.0
H2315 H 0.42999 0.05486 0.62267 0.0
C2316 C 0.37737 0.16438 0.6254 0.0
C2317 C 0.36351 0.15486 0.6155 0.0
C2318 C 0.39815 0.15496 0.62843 0.0
C2319 C 0.40552 0.13569 0.6217 0.0
C2320 C 0.39192 0.12631 0.61165 0.0
C2321 C 0.37119 0.13593 0.60848 0.0
C2322 C 0.42671 0.12462 0.62582 0.0
C2323 C 0.42572 0.10248 0.6305 0.0
C2324 C 0.44736 0.13625 0.62625 0.0
C2325 C 0.45004 0.159 0.62044 0.0
C2326 C 0.44295 0.16355 0.60724 0.0
C2327 C 0.4462 0.18475 0.60164 0.0
C2328 C 0.45677 0.20151 0.60908 0.0
C2329 C 0.46395 0.19717 0.62218 0.0
C2330 C 0.4606 0.17604 0.62786 0.0
C2331 C 0.51351 0.06339 0.64158 0.0
C2332 C 0.52475 0.07295 0.65258 0.0
C2333 C 0.49421 0.0734 0.63638 0.0
C2334 C 0.48578 0.09316 0.64209 0.0
C2335 C 0.49711 0.10288 0.65299 0.0
C2336 C 0.51636 0.0928 0.65824 0.0
C2337 C 0.46511 0.10365 0.6367 0.0
C2338 C 0.46623 0.12565 0.63181 0.0
C2339 C 0.44459 0.09189 0.63599 0.0
C2340 C 0.44214 0.06887 0.64138 0.0
C2341 C 0.44748 0.06412 0.65484 0.0
C2342 C 0.44529 0.04234 0.65981 0.0
C2343 C 0.43762 0.02521 0.65144 0.0
C2344 C 0.43206 0.02983 0.63809 0.0
C2345 C 0.43424 0.05157 0.63306 0.0
H2346 H 0.43594 0.00837 0.65531 0.0
H2347 H 0.45941 0.21786 0.60468 0.0
H2348 H 0.12099 0.11659 0.84864 0.0
H2349 H 0.13719 0.15317 0.85417 0.0
H2350 H 0.09729 0.15582 0.89024 0.0
H2351 H 0.08095 0.11963 0.88479 0.0
H2352 H 0.09724 0.19569 0.8774 0.0
H2353 H 0.1522 0.14078 0.89131 0.0
H2354 H 0.17805 0.10913 0.88781 0.0
H2355 H 0.21382 0.14699 0.85808 0.0
H2356 H 0.18798 0.17878 0.86129 0.0
H2357 H 0.15219 0.27565 0.91795 0.0
H2358 H 0.13587 0.2415 0.90858 0.0
H2359 H 0.18171 0.24485 0.87515 0.0
H2360 H 0.19839 0.27876 0.88461 0.0
H2361 H 0.17912 0.20324 0.88426 0.0
H2362 H 0.12658 0.25939 0.87157 0.0
H2363 H 0.10112 0.29136 0.87497 0.0
H2364 H 0.06081 0.25185 0.90167 0.0
H2365 H 0.08625 0.21974 0.89861 0.0
C2366 C 0.11559 0.12501 0.85771 0.0
C2367 C 0.09976 0.11502 0.8663 0.0
C2368 C 0.12492 0.14589 0.86088 0.0
C2369 C 0.11859 0.15716 0.87269 0.0
C2370 C 0.10243 0.14747 0.88108 0.0
C2371 C 0.09319 0.12666 0.87796 0.0
C2372 C 0.12904 0.17879 0.8766 0.0
C2373 C 0.11512 0.19731 0.87899 0.0
C2374 C 0.15244 0.18111 0.87832 0.0
C2375 C 0.16801 0.16204 0.87643 0.0
C2376 C 0.16547 0.14229 0.88395 0.0
C2377 C 0.18013 0.12434 0.88203 0.0
C2378 C 0.19752 0.12603 0.8727 0.0
C2379 C 0.20032 0.14569 0.86529 0.0
C2380 C 0.18567 0.16368 0.86716 0.0
C2381 C 0.15878 0.26912 0.9086 0.0
C2382 C 0.17654 0.27993 0.90201 0.0
C2383 C 0.14936 0.24965 0.90321 0.0
C2384 C 0.15735 0.24074 0.89105 0.0
C2385 C 0.17522 0.25142 0.88452 0.0
C2386 C 0.1847 0.27084 0.88993 0.0
C2387 C 0.14728 0.22008 0.88529 0.0
C2388 C 0.16125 0.20174 0.88254 0.0
C2389 C 0.12393 0.21798 0.88317 0.0
C2390 C 0.10845 0.2372 0.88494 0.0
C2391 C 0.11238 0.25755 0.87824 0.0
C2392 C 0.09794 0.2757 0.8801 0.0
C2393 C 0.07938 0.27365 0.88855 0.0
C2394 C 0.0752 0.25342 0.89514 0.0
C2395 C 0.08962 0.23523 0.89334 0.0
H2396 H 0.06822 0.28771 0.88998 0.0
H2397 H 0.20886 0.11211 0.87123 0.0
H2398 H 0.13921 0.87545 0.10018 0.0
H2399 H 0.10359 0.89352 0.1059 0.0
H2400 H 0.0918 0.84369 0.13643 0.0
H2401 H 0.12716 0.82559 0.13083 0.0
H2402 H 0.05388 0.85278 0.12148 0.0
H2403 H 0.11178 0.89371 0.14508 0.0
H2404 H 0.14661 0.9157 0.14665 0.0
H2405 H 0.11853 0.96596 0.12082 0.0
H2406 H 0.08363 0.94408 0.11895 0.0
H2407 H 0.97528 0.903 0.16534 0.0
H2408 H 0.00916 0.88636 0.15572 0.0
H2409 H 0.0132 0.94023 0.12699 0.0
H2410 H 0.97921 0.95686 0.13647 0.0
H2411 H 0.05426 0.93065 0.13883 0.0
H2412 H 0.99638 0.8921 0.11574 0.0
H2413 H 0.96149 0.87065 0.11297 0.0
H2414 H 0.98892 0.81695 0.13644 0.0
H2415 H 0.02395 0.83816 0.13942 0.0
C2416 C 0.12893 0.86823 0.10803 0.0
C2417 C 0.13615 0.84916 0.11511 0.0
C2418 C 0.10863 0.87863 0.11132 0.0
C2419 C 0.09514 0.87006 0.12168 0.0
C2420 C 0.10194 0.85061 0.12842 0.0
C2421 C 0.12225 0.84035 0.12523 0.0
C2422 C 0.07425 0.88159 0.12588 0.0
C2423 C 0.05399 0.86973 0.12538 0.0
C2424 C 0.07428 0.90395 0.13058 0.0
C2425 C 0.09521 0.91714 0.13175 0.0
C2426 C 0.11311 0.90935 0.13964 0.0
C2427 C 0.13285 0.92181 0.14061 0.0
C2428 C 0.13481 0.94218 0.13381 0.0
C2429 C 0.11701 0.95016 0.12606 0.0
C2430 C 0.09724 0.93774 0.12505 0.0
C2431 C 0.98343 0.91134 0.157 0.0
C2432 C 0.9746 0.93123 0.15166 0.0
C2433 C 0.00271 0.90176 0.15148 0.0
C2434 C 0.01361 0.91199 0.14058 0.0
C2435 C 0.00505 0.93206 0.13538 0.0
C2436 C 0.98561 0.9415 0.1408 0.0
C2437 C 0.03397 0.90168 0.13466 0.0
C2438 C 0.05411 0.91375 0.13484 0.0
C2439 C 0.03381 0.8796 0.12954 0.0
C2440 C 0.01269 0.86683 0.12794 0.0
C2441 C 0.99487 0.87582 0.12044 0.0
C2442 C 0.97506 0.8637 0.11883 0.0
C2443 C 0.97284 0.84255 0.12466 0.0
C2444 C 0.99054 0.83341 0.13202 0.0
C2445 C 0.01042 0.84544 0.13364 0.0
H2446 H 0.95746 0.83324 0.12338 0.0
H2447 H 0.1501 0.95181 0.13457 0.0
H2448 H 0.66028 0.7293 0.92037 0.0
H2449 H 0.64323 0.76351 0.91153 0.0
H2450 H 0.6854 0.75951 0.87644 0.0
H2451 H 0.70251 0.72527 0.88521 0.0
H2452 H 0.66151 0.80401 0.90501 0.0
H2453 H 0.65303 0.77855 0.84898 0.0
H2454 H 0.64993 0.74402 0.83552 0.0
H2455 H 0.62144 0.70956 0.86927 0.0
H2456 H 0.62346 0.74408 0.88276 0.0
H2457 H 0.6211 0.88353 0.84849 0.0
H2458 H 0.63914 0.84828 0.85509 0.0
H2459 H 0.59779 0.84546 0.89054 0.0
H2460 H 0.5798 0.88039 0.88414 0.0
H2461 H 0.62277 0.80468 0.86089 0.0
H2462 H 0.63043 0.82984 0.91677 0.0
H2463 H 0.63391 0.86406 0.93049 0.0
H2464 H 0.66446 0.89833 0.8973 0.0
H2465 H 0.66145 0.86425 0.88345 0.0
C2466 C 0.66598 0.73574 0.9108 0.0
C2467 C 0.68269 0.72455 0.90347 0.0
C2468 C 0.65626 0.75531 0.90577 0.0
C2469 C 0.66289 0.76395 0.89327 0.0
C2470 C 0.67983 0.753 0.88603 0.0
C2471 C 0.68964 0.73347 0.89108 0.0
C2472 C 0.65196 0.78434 0.88782 0.0
C2473 C 0.65285 0.80407 0.89542 0.0
C2474 C 0.64107 0.78453 0.87516 0.0
C2475 C 0.63873 0.76389 0.86694 0.0
C2476 C 0.6459 0.76368 0.85349 0.0
C2477 C 0.64427 0.74411 0.84584 0.0
C2478 C 0.6355 0.72461 0.85154 0.0
C2479 C 0.62817 0.72469 0.86486 0.0
C2480 C 0.62952 0.74428 0.8725 0.0
C2481 C 0.61573 0.87532 0.85764 0.0
C2482 C 0.59919 0.88503 0.86586 0.0
C2483 C 0.62601 0.85514 0.86137 0.0
C2484 C 0.62002 0.84443 0.8734 0.0
C2485 C 0.60292 0.85361 0.88132 0.0
C2486 C 0.59265 0.87366 0.87762 0.0
C2487 C 0.63222 0.82425 0.87815 0.0
C2488 C 0.63155 0.80459 0.87042 0.0
C2489 C 0.64329 0.82403 0.89072 0.0
C2490 C 0.64551 0.84454 0.89904 0.0
C2491 C 0.63798 0.84465 0.91242 0.0
C2492 C 0.63985 0.86403 0.92021 0.0
C2493 C 0.64933 0.88337 0.91476 0.0
C2494 C 0.65704 0.88336 0.9015 0.0
C2495 C 0.65522 0.86403 0.89367 0.0
H2496 H 0.65075 0.89836 0.9208 0.0
H2497 H 0.63436 0.70944 0.84563 0.0
H2498 H 0.01865 0.90875 0.66949 0.0
H2499 H 0.98431 0.89231 0.66049 0.0
H2500 H 0.99043 0.93311 0.62492 0.0
H2501 H 0.02458 0.94994 0.63399 0.0
H2502 H 0.9481 0.93237 0.63331 0.0
H2503 H 0.0042 0.87793 0.62427 0.0
H2504 H 0.03583 0.8529 0.62947 0.0
H2505 H 0.9948 0.81652 0.65735 0.0
H2506 H 0.96301 0.84159 0.6525 0.0
H2507 H 0.86294 0.86964 0.59897 0.0
H2508 H 0.89892 0.88699 0.6046 0.0
H2509 H 0.89965 0.8517 0.64239 0.0
H2510 H 0.86409 0.83416 0.63685 0.0
H2511 H 0.93998 0.84988 0.63045 0.0
H2512 H 0.88484 0.90723 0.64031 0.0
H2513 H 0.8538 0.93281 0.63473 0.0
H2514 H 0.89401 0.96366 0.60414 0.0
H2515 H 0.9252 0.93806 0.60944 0.0
C2516 C 0.01266 0.91426 0.65977 0.0
C2517 C 0.02437 0.93058 0.65244 0.0
C2518 C 0.99308 0.90477 0.6546 0.0
C2519 C 0.98494 0.91122 0.64193 0.0
C2520 C 0.9964 0.92781 0.6347 0.0
C2521 C 0.01595 0.93738 0.63989 0.0
C2522 C 0.96447 0.90063 0.63628 0.0
C2523 C 0.94646 0.91434 0.63248 0.0
C2524 C 0.96224 0.87709 0.63526 0.0
C2525 C 0.98125 0.86177 0.63809 0.0
C2526 C 0.00195 0.86468 0.63158 0.0
C2527 C 0.01991 0.85048 0.63446 0.0
C2528 C 0.01733 0.83315 0.64375 0.0
C2529 C 0.99677 0.82996 0.65016 0.0
C2530 C 0.97877 0.84416 0.64734 0.0
C2531 C 0.87076 0.86556 0.60848 0.0
C2532 C 0.86048 0.85054 0.61747 0.0
C2533 C 0.89131 0.87554 0.6117 0.0
C2534 C 0.90192 0.87078 0.62398 0.0
C2535 C 0.89183 0.85562 0.63286 0.0
C2536 C 0.87137 0.84566 0.62967 0.0
C2537 C 0.92344 0.8816 0.62777 0.0
C2538 C 0.9417 0.86791 0.63118 0.0
C2539 C 0.92596 0.90515 0.62831 0.0
C2540 C 0.90725 0.92058 0.62517 0.0
C2541 C 0.88699 0.91936 0.63233 0.0
C2542 C 0.86939 0.93388 0.62923 0.0
C2543 C 0.87191 0.9498 0.61906 0.0
C2544 C 0.89207 0.95129 0.612 0.0
C2545 C 0.90972 0.93679 0.61505 0.0
H2546 H 0.85826 0.96103 0.61667 0.0
H2547 H 0.03126 0.82217 0.64597 0.0
H2548 H 0.8075 0.27813 0.38318 0.0
H2549 H 0.82392 0.24354 0.37457 0.0
H2550 H 0.86106 0.23562 0.41145 0.0
H2551 H 0.84519 0.27063 0.41994 0.0
H2552 H 0.88693 0.22622 0.39093 0.0
H2553 H 0.81229 0.20489 0.40413 0.0
H2554 H 0.77109 0.20736 0.40423 0.0
H2555 H 0.7697 0.19506 0.36173 0.0
H2556 H 0.81093 0.19279 0.36136 0.0
H2557 H 0.91513 0.11216 0.38808 0.0
H2558 H 0.89882 0.14823 0.39373 0.0
H2559 H 0.8679 0.15162 0.35464 0.0
H2560 H 0.88401 0.11509 0.34888 0.0
H2561 H 0.8391 0.16421 0.37436 0.0
H2562 H 0.91398 0.18288 0.36165 0.0
H2563 H 0.95513 0.17977 0.36191 0.0
H2564 H 0.95607 0.19672 0.40383 0.0
H2565 H 0.91489 0.1996 0.40388 0.0
C2566 C 0.81916 0.26902 0.38946 0.0
C2567 C 0.82498 0.27706 0.40227 0.0
C2568 C 0.82847 0.24917 0.38455 0.0
C2569 C 0.8435 0.23672 0.39242 0.0
C2570 C 0.84948 0.24487 0.40517 0.0
C2571 C 0.84035 0.26485 0.41004 0.0
C2572 C 0.85309 0.21528 0.3874 0.0
C2573 C 0.87643 0.21258 0.38746 0.0
C2574 C 0.83949 0.19766 0.38247 0.0
C2575 C 0.8147 0.1989 0.3827 0.0
C2576 C 0.80321 0.20287 0.3948 0.0
C2577 C 0.77985 0.20421 0.3949 0.0
C2578 C 0.76779 0.20143 0.38299 0.0
C2579 C 0.77906 0.19724 0.37095 0.0
C2580 C 0.80242 0.19591 0.37078 0.0
C2581 C 0.9049 0.12048 0.38062 0.0
C2582 C 0.90099 0.11065 0.36797 0.0
C2583 C 0.89565 0.14123 0.38388 0.0
C2584 C 0.88241 0.15283 0.37455 0.0
C2585 C 0.87816 0.14301 0.36198 0.0
C2586 C 0.88742 0.12214 0.3587 0.0
C2587 C 0.87288 0.17506 0.3781 0.0
C2588 C 0.84958 0.17791 0.37776 0.0
C2589 C 0.88651 0.1928 0.38281 0.0
C2590 C 0.91132 0.19128 0.38279 0.0
C2591 C 0.92295 0.18579 0.37095 0.0
C2592 C 0.94628 0.18409 0.37104 0.0
C2593 C 0.9582 0.188 0.38288 0.0
C2594 C 0.94682 0.19368 0.39466 0.0
C2595 C 0.92348 0.19537 0.39463 0.0
H2596 H 0.97627 0.18666 0.38293 0.0
H2597 H 0.74971 0.20248 0.3831 0.0
H2598 H 0.6358 0.13088 0.09852 0.0
H2599 H 0.60085 0.11195 0.10471 0.0
H2600 H 0.59785 0.1505 0.1413 0.0
H2601 H 0.63255 0.16923 0.13534 0.0
H2602 H 0.59061 0.10714 0.14625 0.0
H2603 H 0.56396 0.16217 0.11453 0.0
H2604 H 0.56237 0.18133 0.09261 0.0
H2605 H 0.54401 0.11965 0.07341 0.0
H2606 H 0.54578 0.10005 0.09521 0.0
H2607 H 0.4797 0.09349 0.1689 0.0
H2608 H 0.51476 0.10862 0.16008 0.0
H2609 H 0.50965 0.06522 0.12558 0.0
H2610 H 0.47441 0.05012 0.1343 0.0
H2611 H 0.52185 0.1074 0.11832 0.0
H2612 H 0.54606 0.0529 0.15028 0.0
H2613 H 0.54735 0.03381 0.17223 0.0
H2614 H 0.57045 0.09429 0.19095 0.0
H2615 H 0.56899 0.11384 0.16914 0.0
C2616 C 0.62763 0.13541 0.10785 0.0
C2617 C 0.63712 0.15156 0.11643 0.0
C2618 C 0.60762 0.1246 0.11136 0.0
C2619 C 0.5967 0.12982 0.12347 0.0
C2620 C 0.60601 0.14609 0.13194 0.0
C2621 C 0.6259 0.15685 0.12847 0.0
C2622 C 0.57584 0.11814 0.12764 0.0
C2623 C 0.57553 0.10737 0.14018 0.0
C2624 C 0.55634 0.11783 0.11957 0.0
C2625 C 0.55527 0.12959 0.10647 0.0
C2626 C 0.55978 0.15265 0.10562 0.0
C2627 C 0.5588 0.1636 0.09322 0.0
C2628 C 0.55316 0.1517 0.08162 0.0
C2629 C 0.54842 0.12884 0.0824 0.0
C2630 C 0.5494 0.1178 0.09477 0.0
C2631 C 0.48606 0.08711 0.15945 0.0
C2632 C 0.47434 0.07053 0.15233 0.0
C2633 C 0.50613 0.09573 0.15443 0.0
C2634 C 0.51498 0.08788 0.14223 0.0
C2635 C 0.50317 0.0715 0.13502 0.0
C2636 C 0.48309 0.06283 0.14005 0.0
C2637 C 0.53653 0.09685 0.13705 0.0
C2638 C 0.537 0.10702 0.12433 0.0
C2639 C 0.55622 0.09661 0.14495 0.0
C2640 C 0.55724 0.08488 0.15808 0.0
C2641 C 0.55126 0.06217 0.15909 0.0
C2642 C 0.55205 0.05126 0.17151 0.0
C2643 C 0.55893 0.06284 0.18298 0.0
C2644 C 0.5651 0.08535 0.18205 0.0
C2645 C 0.56432 0.09635 0.16966 0.0
H2646 H 0.55953 0.05437 0.19258 0.0
H2647 H 0.55241 0.16021 0.07203 0.0
H2648 H 0.69491 0.2711 0.61817 0.0
H2649 H 0.67884 0.23637 0.62683 0.0
H2650 H 0.63133 0.23565 0.5942 0.0
H2651 H 0.64719 0.27063 0.58556 0.0
H2652 H 0.61138 0.22515 0.61771 0.0
H2653 H 0.67703 0.20171 0.59376 0.0
H2654 H 0.71712 0.2016 0.58791 0.0
H2655 H 0.7338 0.18234 0.62824 0.0
H2656 H 0.69379 0.18264 0.63439 0.0
H2657 H 0.57737 0.11223 0.61898 0.0
H2658 H 0.5934 0.14833 0.61306 0.0
H2659 H 0.63693 0.14505 0.64755 0.0
H2660 H 0.621 0.10855 0.65359 0.0
H2661 H 0.65915 0.15819 0.62464 0.0
H2662 H 0.59253 0.17932 0.64802 0.0
H2663 H 0.55221 0.1786 0.65326 0.0
H2664 H 0.53702 0.20166 0.61344 0.0
H2665 H 0.57725 0.20219 0.60788 0.0
C2666 C 0.68104 0.26357 0.61283 0.0
C2667 C 0.67239 0.27355 0.60114 0.0
C2668 C 0.67191 0.24366 0.61777 0.0
C2669 C 0.65403 0.23323 0.61109 0.0
C2670 C 0.64514 0.24336 0.59952 0.0
C2671 C 0.65427 0.2633 0.59456 0.0
C2672 C 0.64471 0.21171 0.61611 0.0
C2673 C 0.62178 0.21044 0.61909 0.0
C2674 C 0.65837 0.19265 0.61825 0.0
C2675 C 0.68243 0.19244 0.61458 0.0
C2676 C 0.68926 0.19764 0.60142 0.0
C2677 C 0.71196 0.19751 0.59804 0.0
C2678 C 0.728 0.19203 0.60771 0.0
C2679 C 0.72136 0.18662 0.62077 0.0
C2680 C 0.69867 0.18675 0.62421 0.0
C2681 C 0.59035 0.11908 0.62536 0.0
C2682 C 0.59788 0.10738 0.63679 0.0
C2683 C 0.59941 0.13985 0.62198 0.0
C2684 C 0.61617 0.14954 0.62994 0.0
C2685 C 0.62393 0.13791 0.6413 0.0
C2686 C 0.61477 0.11708 0.64474 0.0
C2687 C 0.6258 0.17159 0.62614 0.0
C2688 C 0.64878 0.17295 0.62337 0.0
C2689 C 0.61215 0.1907 0.62414 0.0
C2690 C 0.58793 0.19061 0.62749 0.0
C2691 C 0.58059 0.18408 0.64034 0.0
C2692 C 0.55775 0.18373 0.64338 0.0
C2693 C 0.54206 0.19003 0.63368 0.0
C2694 C 0.54919 0.19676 0.62094 0.0
C2695 C 0.57202 0.19712 0.61784 0.0
H2696 H 0.52437 0.18973 0.63604 0.0
H2697 H 0.74557 0.19194 0.60507 0.0
H2698 H 0.48063 0.90425 0.33588 0.0
H2699 H 0.51461 0.8873 0.34509 0.0
H2700 H 0.51405 0.93491 0.37767 0.0
H2701 H 0.48018 0.95207 0.36844 0.0
H2702 H 0.55565 0.92989 0.36756 0.0
H2703 H 0.4973 0.88184 0.38294 0.0
H2704 H 0.46387 0.85792 0.38086 0.0
H2705 H 0.4999 0.81315 0.35497 0.0
H2706 H 0.53349 0.83698 0.35674 0.0
H2707 H 0.64011 0.87201 0.40461 0.0
H2708 H 0.60411 0.88903 0.39868 0.0
H2709 H 0.59851 0.84459 0.3647 0.0
H2710 H 0.63416 0.82743 0.37057 0.0
H2711 H 0.55895 0.84856 0.37743 0.0
H2712 H 0.6163 0.89856 0.36089 0.0
H2713 H 0.64947 0.92289 0.36294 0.0
H2714 H 0.61474 0.96422 0.39142 0.0
H2715 H 0.58144 0.93995 0.38966 0.0
C2716 C 0.48778 0.91116 0.34498 0.0
C2717 C 0.47769 0.92947 0.35145 0.0
C2718 C 0.50714 0.90138 0.35028 0.0
C2719 C 0.51674 0.90965 0.36217 0.0
C2720 C 0.50692 0.9282 0.3685 0.0
C2721 C 0.48754 0.93797 0.36323 0.0
C2722 C 0.53708 0.899 0.36794 0.0
C2723 C 0.55625 0.91218 0.36993 0.0
C2724 C 0.53798 0.87583 0.37088 0.0
C2725 C 0.51787 0.86133 0.36988 0.0
C2726 C 0.49806 0.86699 0.37672 0.0
C2727 C 0.47908 0.85344 0.37561 0.0
C2728 C 0.47973 0.83408 0.36775 0.0
C2729 C 0.4994 0.82818 0.36103 0.0
C2730 C 0.51843 0.84169 0.3621 0.0
C2731 C 0.63116 0.86578 0.39592 0.0
C2732 C 0.6402 0.84848 0.388 0.0
C2733 C 0.61061 0.87558 0.39251 0.0
C2734 C 0.59872 0.86827 0.38113 0.0
C2735 C 0.60737 0.85056 0.37349 0.0
C2736 C 0.62788 0.84084 0.37684 0.0
C2737 C 0.5776 0.8794 0.37687 0.0
C2738 C 0.55828 0.86631 0.37517 0.0
C2739 C 0.57652 0.90267 0.37424 0.0
C2740 C 0.59649 0.9173 0.37526 0.0
C2741 C 0.6158 0.91274 0.36767 0.0
C2742 C 0.63461 0.92653 0.36876 0.0
C2743 C 0.63424 0.94505 0.37734 0.0
C2744 C 0.61502 0.94985 0.3848 0.0
C2745 C 0.59617 0.93609 0.38376 0.0
H2746 H 0.64881 0.95571 0.37817 0.0
H2747 H 0.46501 0.82361 0.3669 0.0
H2748 H 0.79848 0.73216 0.11698 0.0
H2749 H 0.81438 0.76667 0.12618 0.0
H2750 H 0.86904 0.76245 0.09801 0.0
H2751 H 0.85316 0.72795 0.08869 0.0
H2752 H 0.88275 0.77159 0.12443 0.0
H2753 H 0.82848 0.79877 0.0924 0.0
H2754 H 0.79089 0.80178 0.08234 0.0
H2755 H 0.7647 0.82643 0.11969 0.0
H2756 H 0.8021 0.82327 0.13003 0.0
H2757 H 0.92704 0.8814 0.12452 0.0
H2758 H 0.91046 0.84514 0.1193 0.0
H2759 H 0.85752 0.85782 0.14775 0.0
H2760 H 0.87428 0.89425 0.15317 0.0
H2761 H 0.84152 0.84364 0.12329 0.0
H2762 H 0.8955 0.82036 0.1549 0.0
H2763 H 0.93208 0.81606 0.16601 0.0
H2764 H 0.95803 0.78275 0.13112 0.0
H2765 H 0.9218 0.78743 0.11961 0.0
C2766 C 0.81385 0.73862 0.11271 0.0
C2767 C 0.82453 0.72739 0.10207 0.0
C2768 C 0.82289 0.75835 0.11797 0.0
C2769 C 0.84283 0.76719 0.11274 0.0
C2770 C 0.85363 0.75591 0.10219 0.0
C2771 C 0.84449 0.73627 0.09684 0.0
C2772 C 0.85248 0.78815 0.11829 0.0
C2773 C 0.87391 0.78744 0.12403 0.0
C2774 C 0.8405 0.80858 0.11825 0.0
C2775 C 0.81803 0.81055 0.11203 0.0
C2776 C 0.81467 0.80464 0.0985 0.0
C2777 C 0.7934 0.80642 0.09274 0.0
C2778 C 0.77541 0.81423 0.10038 0.0
C2779 C 0.77865 0.82035 0.11379 0.0
C2780 C 0.79988 0.81858 0.1196 0.0
C2781 C 0.91198 0.87643 0.12977 0.0
C2782 C 0.90197 0.89077 0.13924 0.0
C2783 C 0.90256 0.85563 0.12681 0.0
C2784 C 0.88279 0.84871 0.13317 0.0
C2785 C 0.87282 0.86283 0.14274 0.0
C2786 C 0.88245 0.88359 0.14586 0.0
C2787 C 0.87207 0.82724 0.12921 0.0
C2788 C 0.8504 0.82782 0.12377 0.0
C2789 C 0.88379 0.80664 0.12964 0.0
C2790 C 0.90593 0.80448 0.13632 0.0
C2791 C 0.90909 0.81243 0.1495 0.0
C2792 C 0.92976 0.80987 0.15589 0.0
C2793 C 0.94735 0.79913 0.14928 0.0
C2794 C 0.94435 0.79102 0.13624 0.0
C2795 C 0.92377 0.7937 0.12976 0.0
H2796 H 0.96331 0.79708 0.15427 0.0
H2797 H 0.75896 0.81559 0.0959 0.0
H2798 H 0.03113 0.06121 0.87272 0.0
H2799 H 0.99655 0.07686 0.88197 0.0
H2800 H 0.98113 0.10624 0.84351 0.0
H2801 H 0.01609 0.09113 0.83425 0.0
H2802 H 0.98225 0.12448 0.88213 0.0
H2803 H 0.92277 0.09559 0.84039 0.0
H2804 H 0.91983 0.06561 0.82343 0.0
H2805 H 0.95773 0.02155 0.8488 0.0
H2806 H 0.96061 0.05114 0.86598 0.0
H2807 H 0.8747 0.17928 0.87865 0.0
H2808 H 0.91093 0.16239 0.87321 0.0
H2809 H 0.89219 0.10268 0.89476 0.0
H2810 H 0.85608 0.11981 0.90063 0.0
H2811 H 0.90827 0.09747 0.86628 0.0
H2812 H 0.92771 0.13025 0.90894 0.0
H2813 H 0.93085 0.1609 0.9254 0.0
H2814 H 0.97335 0.19735 0.89836 0.0
H2815 H 0.97002 0.16715 0.88159 0.0
C2816 C 0.02044 0.07106 0.86623 0.0
C2817 C 0.02633 0.07496 0.85275 0.0
C2818 C 1.00074 0.08004 0.87155 0.0
C2819 C 0.98631 0.09265 0.86342 0.0
C2820 C 0.99206 0.0965 0.84994 0.0
C2821 C 0.012 0.08788 0.84467 0.0
C2822 C 0.96511 0.10156 0.869 0.0
C2823 C 0.96606 0.11859 0.87869 0.0
C2824 C 0.94405 0.09373 0.86455 0.0
C2825 C 0.94209 0.07566 0.8544 0.0
C2826 C 0.9304 0.07947 0.84236 0.0
C2827 C 0.92875 0.06255 0.83271 0.0
C2828 C 0.93865 0.04171 0.83502 0.0
C2829 C 0.95015 0.03772 0.847 0.0
C2830 C 0.95182 0.05458 0.85669 0.0
C2831 C 0.87842 0.16267 0.88238 0.0
C2832 C 0.86258 0.15086 0.89007 0.0
C2833 C 0.8991 0.15306 0.87927 0.0
C2834 C 0.90416 0.1313 0.88356 0.0
C2835 C 0.88853 0.11952 0.89137 0.0
C2836 C 0.868 0.12935 0.89477 0.0
C2837 C 0.92538 0.12057 0.87932 0.0
C2838 C 0.92444 0.1033 0.86979 0.0
C2839 C 0.94644 0.1283 0.88387 0.0
C2840 C 0.9484 0.14652 0.89394 0.0
C2841 C 0.9375 0.14491 0.90643 0.0
C2842 C 0.93935 0.1622 0.91583 0.0
C2843 C 0.95225 0.18109 0.91292 0.0
C2844 C 0.96336 0.18271 0.9006 0.0
C2845 C 0.96146 0.16553 0.89114 0.0
H2846 H 0.95366 0.19446 0.92021 0.0
H2847 H 0.93738 0.02864 0.82752 0.0
H2848 H 0.85118 0.77341 0.58645 0.0
H2849 H 0.86766 0.73846 0.5946 0.0
H2850 H 0.81906 0.73607 0.62662 0.0
H2851 H 0.80276 0.77123 0.61866 0.0
H2852 H 0.85986 0.7248 0.63577 0.0
H2853 H 0.81336 0.70333 0.59852 0.0
H2854 H 0.79957 0.70485 0.57518 0.0
H2855 H 0.86493 0.68741 0.56062 0.0
H2856 H 0.87918 0.68607 0.58387 0.0
H2857 H 0.87852 0.6089 0.65208 0.0
H2858 H 0.86213 0.64518 0.64603 0.0
H2859 H 0.90847 0.65087 0.61297 0.0
H2860 H 0.92454 0.61476 0.61874 0.0
H2861 H 0.86741 0.66019 0.60481 0.0
H2862 H 0.91433 0.6822 0.64169 0.0
H2863 H 0.9287 0.68089 0.6649 0.0
H2864 H 0.86345 0.69736 0.68004 0.0
H2865 H 0.84861 0.69847 0.65691 0.0
C2866 C 0.84401 0.76545 0.59523 0.0
C2867 C 0.82557 0.77501 0.60185 0.0
C2868 C 0.85341 0.74543 0.59986 0.0
C2869 C 0.84442 0.73444 0.61113 0.0
C2870 C 0.82627 0.7442 0.6179 0.0
C2871 C 0.81691 0.76425 0.6133 0.0
C2872 C 0.85376 0.71264 0.61573 0.0
C2873 C 0.86123 0.71057 0.62906 0.0
C2874 C 0.85595 0.69417 0.60692 0.0
C2875 C 0.84737 0.69479 0.59293 0.0
C2876 C 0.82482 0.69996 0.59034 0.0
C2877 C 0.81692 0.70077 0.57713 0.0
C2878 C 0.83138 0.69628 0.56643 0.0
C2879 C 0.85376 0.69091 0.56892 0.0
C2880 C 0.86175 0.6901 0.58211 0.0
C2881 C 0.8853 0.61795 0.64358 0.0
C2882 C 0.90278 0.60878 0.63587 0.0
C2883 C 0.87596 0.63873 0.64015 0.0
C2884 C 0.88408 0.65081 0.62903 0.0
C2885 C 0.90179 0.64185 0.62152 0.0
C2886 C 0.91101 0.62114 0.62488 0.0
C2887 C 0.87375 0.67238 0.62482 0.0
C2888 C 0.86601 0.67439 0.61156 0.0
C2889 C 0.87141 0.69077 0.63368 0.0
C2890 C 0.8803 0.69018 0.64758 0.0
C2891 C 0.903 0.68536 0.64998 0.0
C2892 C 0.91124 0.68469 0.66311 0.0
C2893 C 0.89698 0.68898 0.67394 0.0
C2894 C 0.87446 0.69401 0.67165 0.0
C2895 C 0.86613 0.69468 0.65853 0.0
H2896 H 0.90339 0.68845 0.68411 0.0
H2897 H 0.82523 0.69692 0.5562 0.0
H2898 H 0.64502 0.6637 0.86612 0.0
H2899 H 0.60899 0.64803 0.85987 0.0
H2900 H 0.59983 0.6236 0.90028 0.0
H2901 H 0.6365 0.63874 0.90659 0.0
H2902 H 0.58777 0.59264 0.88279 0.0
H2903 H 0.57109 0.67083 0.88792 0.0
H2904 H 0.57641 0.71128 0.88411 0.0
H2905 H 0.5661 0.70199 0.84179 0.0
H2906 H 0.56091 0.66145 0.84532 0.0
H2907 H 0.47417 0.56339 0.87213 0.0
H2908 H 0.50863 0.58033 0.88046 0.0
H2909 H 0.52069 0.60925 0.84139 0.0
H2910 H 0.48553 0.5932 0.8332 0.0
H2911 H 0.53054 0.63853 0.85945 0.0
H2912 H 0.54897 0.56048 0.85398 0.0
H2913 H 0.54419 0.51988 0.85746 0.0
H2914 H 0.55196 0.52871 0.90002 0.0
H2915 H 0.55653 0.5694 0.89681 0.0
C2916 C 0.63541 0.65506 0.87375 0.0
C2917 C 0.64374 0.65256 0.88691 0.0
C2918 C 0.61465 0.6462 0.87015 0.0
C2919 C 0.60141 0.63497 0.87965 0.0
C2920 C 0.60968 0.63229 0.89278 0.0
C2921 C 0.63064 0.64099 0.89638 0.0
C2922 C 0.57926 0.6256 0.8757 0.0
C2923 C 0.5751 0.60277 0.8779 0.0
C2924 C 0.56288 0.63865 0.869 0.0
C2925 C 0.56571 0.66308 0.86689 0.0
C2926 C 0.57003 0.6774 0.8778 0.0
C2927 C 0.57297 0.70035 0.87569 0.0
C2928 C 0.57155 0.7092 0.86273 0.0
C2929 C 0.56714 0.69512 0.85184 0.0
C2930 C 0.56415 0.67217 0.85389 0.0
C2931 C 0.48415 0.57336 0.86531 0.0
C2932 C 0.47717 0.57689 0.85199 0.0
C2933 C 0.50397 0.58294 0.87007 0.0
C2934 C 0.51761 0.59575 0.86151 0.0
C2935 C 0.51054 0.59941 0.84821 0.0
C2936 C 0.49047 0.59017 0.84351 0.0
C2937 C 0.53912 0.60548 0.86641 0.0
C2938 C 0.54315 0.6284 0.86441 0.0
C2939 C 0.55542 0.59249 0.87324 0.0
C2940 C 0.55289 0.568 0.87516 0.0
C2941 C 0.54953 0.55377 0.86409 0.0
C2942 C 0.54688 0.53075 0.86601 0.0
C2943 C 0.54772 0.52173 0.87896 0.0
C2944 C 0.55129 0.53572 0.89 0.0
C2945 C 0.55394 0.55876 0.88813 0.0
H2946 H 0.54565 0.50391 0.88043 0.0
H2947 H 0.57393 0.72696 0.86111 0.0
H2948 H 0.5866 0.39395 0.11654 0.0
H2949 H 0.60258 0.35809 0.11015 0.0
H2950 H 0.6335 0.35223 0.14915 0.0
H2951 H 0.61787 0.38862 0.15561 0.0
H2952 H 0.662 0.34 0.12938 0.0
H2953 H 0.58613 0.32246 0.14123 0.0
H2954 H 0.54517 0.32731 0.1404 0.0
H2955 H 0.54539 0.31252 0.09819 0.0
H2956 H 0.58641 0.3079 0.09872 0.0
H2957 H 0.69157 0.22599 0.12071 0.0
H2958 H 0.67543 0.26087 0.12904 0.0
H2959 H 0.63926 0.2689 0.09183 0.0
H2960 H 0.65479 0.23352 0.08363 0.0
H2961 H 0.61312 0.27952 0.11189 0.0
H2962 H 0.68834 0.29907 0.09942 0.0
H2963 H 0.72948 0.29575 0.0995 0.0
H2964 H 0.73062 0.30785 0.14202 0.0
H2965 H 0.68944 0.31096 0.14223 0.0
C2966 C 0.5968 0.38514 0.12382 0.0
C2967 C 0.60086 0.39425 0.13665 0.0
C2968 C 0.60585 0.36451 0.12014 0.0
C2969 C 0.61894 0.35224 0.12923 0.0
C2970 C 0.62336 0.36135 0.14198 0.0
C2971 C 0.61437 0.38214 0.14567 0.0
C2972 C 0.62806 0.33001 0.12531 0.0
C2973 C 0.65129 0.32662 0.12578 0.0
C2974 C 0.61414 0.31274 0.12027 0.0
C2975 C 0.58938 0.31496 0.12 0.0
C2976 C 0.57746 0.32032 0.13176 0.0
C2977 C 0.55423 0.32302 0.13135 0.0
C2978 C 0.54269 0.3202 0.11926 0.0
C2979 C 0.55435 0.31465 0.10756 0.0
C2980 C 0.57759 0.31197 0.10791 0.0
C2981 C 0.68018 0.23517 0.11429 0.0
C2982 C 0.67454 0.22704 0.10147 0.0
C2983 C 0.67102 0.2552 0.11905 0.0
C2984 C 0.65638 0.2678 0.111 0.0
C2985 C 0.65054 0.25955 0.09824 0.0
C2986 C 0.65949 0.23936 0.09353 0.0
C2987 C 0.64714 0.28952 0.11585 0.0
C2988 C 0.62386 0.29281 0.11557 0.0
C2989 C 0.66103 0.30676 0.12098 0.0
C2990 C 0.68579 0.30502 0.12086 0.0
C2991 C 0.69735 0.30087 0.1088 0.0
C2992 C 0.72068 0.29905 0.10879 0.0
C2993 C 0.73265 0.30153 0.12076 0.0
C2994 C 0.72132 0.3059 0.13276 0.0
C2995 C 0.69799 0.30771 0.13283 0.0
H2996 H 0.75071 0.30011 0.12073 0.0
H2997 H 0.52471 0.32236 0.11895 0.0
H2998 H 0.87069 0.32885 0.37205 0.0
H2999 H 0.90649 0.34593 0.36658 0.0
H3000 H 0.89797 0.39328 0.39886 0.0
H3001 H 0.86172 0.37625 0.40444 0.0
H3002 H 0.91146 0.41344 0.37524 0.0
H3003 H 0.93522 0.35219 0.40233 0.0
H3004 H 0.93689 0.31297 0.40995 0.0
H3005 H 0.96299 0.29299 0.37159 0.0
H3006 H 0.96117 0.33206 0.36366 0.0
H3007 H 0.02372 0.45317 0.36839 0.0
H3008 H 0.98916 0.43715 0.37739 0.0
H3009 H 0.99028 0.38641 0.34658 0.0
H3010 H 0.02493 0.40235 0.33752 0.0
H3011 H 0.9813 0.36891 0.37156 0.0
H3012 H 0.95487 0.42954 0.34405 0.0
H3013 H 0.9528 0.46865 0.33624 0.0
H3014 H 0.93161 0.48966 0.37549 0.0
H3015 H 0.93386 0.45068 0.38358 0.0
C3016 C 0.87636 0.34285 0.37806 0.0
C3017 C 0.86323 0.35119 0.38869 0.0
C3018 C 0.89696 0.35253 0.37495 0.0
C3019 C 0.90503 0.37076 0.38237 0.0
C3020 C 0.89207 0.37917 0.39302 0.0
C3021 C 0.87142 0.36936 0.39623 0.0
C3022 C 0.92669 0.38127 0.37862 0.0
C3023 C 0.92684 0.40383 0.3747 0.0
C3024 C 0.94665 0.36859 0.37762 0.0
C3025 C 0.94789 0.34506 0.38236 0.0
C3026 C 0.94116 0.33942 0.39547 0.0
C3027 C 0.94216 0.31721 0.39986 0.0
C3028 C 0.95 0.30049 0.39125 0.0
C3029 C 0.95691 0.30596 0.37824 0.0
C3030 C 0.95592 0.32814 0.3738 0.0
C3031 C 0.01658 0.43864 0.3635 0.0
C3032 C 0.027 0.42907 0.35221 0.0
C3033 C 0.99679 0.42953 0.36864 0.0
C3034 C 0.98704 0.41067 0.36261 0.0
C3035 C 0.99751 0.40098 0.35139 0.0
C3036 C 0.01724 0.41016 0.34619 0.0
C3037 C 0.96598 0.40098 0.36802 0.0
C3038 C 0.96597 0.37857 0.37224 0.0
C3039 C 0.94615 0.4138 0.3693 0.0
C3040 C 0.94478 0.43723 0.36446 0.0
C3041 C 0.94996 0.44253 0.35105 0.0
C3042 C 0.94872 0.46466 0.34656 0.0
C3043 C 0.94215 0.48164 0.35537 0.0
C3044 C 0.93674 0.4765 0.36868 0.0
C3045 C 0.93798 0.45438 0.37322 0.0
H3046 H 0.94119 0.49876 0.35188 0.0
H3047 H 0.95075 0.28331 0.39466 0.0
H3048 H 0.8801 0.38391 0.84732 0.0
H3049 H 0.86323 0.34806 0.85368 0.0
H3050 H 0.90071 0.34852 0.89071 0.0
H3051 H 0.91776 0.38401 0.88443 0.0
H3052 H 0.90173 0.30775 0.87927 0.0
H3053 H 0.84532 0.36303 0.88988 0.0
H3054 H 0.81956 0.39416 0.88483 0.0
H3055 H 0.78648 0.3539 0.85512 0.0
H3056 H 0.81225 0.32261 0.85988 0.0
H3057 H 0.84369 0.2285 0.91883 0.0
H3058 H 0.86029 0.26277 0.9098 0.0
H3059 H 0.81833 0.25761 0.87467 0.0
H3060 H 0.80138 0.22355 0.88375 0.0
H3061 H 0.81938 0.29968 0.88338 0.0
H3062 H 0.87417 0.24405 0.87299 0.0
H3063 H 0.89981 0.21261 0.87754 0.0
H3064 H 0.93563 0.25274 0.90612 0.0
H3065 H 0.91017 0.28446 0.90177 0.0
C3066 C 0.8848 0.37637 0.8568 0.0
C3067 C 0.90024 0.387 0.86537 0.0
C3068 C 0.87507 0.35589 0.86045 0.0
C3069 C 0.88055 0.34567 0.87274 0.0
C3070 C 0.89621 0.35605 0.88118 0.0
C3071 C 0.90589 0.37646 0.87757 0.0
C3072 C 0.86991 0.32428 0.87699 0.0
C3073 C 0.88373 0.30606 0.88028 0.0
C3074 C 0.8464 0.32181 0.87796 0.0
C3075 C 0.83087 0.34058 0.87513 0.0
C3076 C 0.83267 0.36088 0.8822 0.0
C3077 C 0.81805 0.37854 0.8794 0.0
C3078 C 0.80144 0.37604 0.86963 0.0
C3079 C 0.79938 0.35583 0.86267 0.0
C3080 C 0.81398 0.33813 0.86542 0.0
C3081 C 0.83797 0.23468 0.90919 0.0
C3082 C 0.82126 0.22328 0.90199 0.0
C3083 C 0.84757 0.25421 0.904 0.0
C3084 C 0.84079 0.26264 0.89145 0.0
C3085 C 0.82388 0.25143 0.88434 0.0
C3086 C 0.81424 0.23193 0.88954 0.0
C3087 C 0.85122 0.28325 0.88583 0.0
C3088 C 0.83737 0.30131 0.88228 0.0
C3089 C 0.8747 0.28554 0.88454 0.0
C3090 C 0.89014 0.26657 0.88714 0.0
C3091 C 0.88743 0.24613 0.88031 0.0
C3092 C 0.90193 0.22827 0.88284 0.0
C3093 C 0.91924 0.23064 0.89216 0.0
C3094 C 0.92218 0.25093 0.89892 0.0
C3095 C 0.90776 0.26888 0.8964 0.0
H3096 H 0.93041 0.21679 0.89411 0.0
H3097 H 0.79013 0.38973 0.86748 0.0
H3098 H 0.02443 0.55357 0.13538 0.0
H3099 H 0.98956 0.57006 0.1271 0.0
H3100 H 0.98482 0.61027 0.16298 0.0
H3101 H 0.0197 0.59386 0.17132 0.0
H3102 H 0.94476 0.59063 0.15639 0.0
H3103 H 0.00174 0.63375 0.13442 0.0
H3104 H 0.03573 0.6391 0.12076 0.0
H3105 H 0.00366 0.60749 0.08714 0.0
H3106 H 0.96954 0.60168 0.10068 0.0
H3107 H 0.86436 0.67003 0.13727 0.0
H3108 H 0.89935 0.6522 0.14373 0.0
H3109 H 0.89998 0.61524 0.10653 0.0
H3110 H 0.86483 0.63327 0.09983 0.0
H3111 H 0.94174 0.63149 0.11301 0.0
H3112 H 0.88408 0.5896 0.13503 0.0
H3113 H 0.85039 0.58427 0.14898 0.0
H3114 H 0.88409 0.61364 0.18276 0.0
H3115 H 0.91789 0.61943 0.16895 0.0
C3116 C 0.01596 0.5659 0.14152 0.0
C3117 C 0.02485 0.57245 0.154 0.0
C3118 C 0.99607 0.57536 0.13675 0.0
C3119 C 0.98467 0.59153 0.14437 0.0
C3120 C 0.99334 0.59783 0.15693 0.0
C3121 C 0.0133 0.58848 0.16166 0.0
C3122 C 0.9637 0.60187 0.13928 0.0
C3123 C 0.94415 0.59977 0.14698 0.0
C3124 C 0.9628 0.61332 0.12683 0.0
C3125 C 0.98316 0.61707 0.11861 0.0
C3126 C 0.00199 0.62779 0.12415 0.0
C3127 C 0.02128 0.63092 0.11642 0.0
C3128 C 0.02189 0.62356 0.10311 0.0
C3129 C 0.00317 0.61314 0.09747 0.0
C3130 C 0.98384 0.60994 0.10516 0.0
C3131 C 0.87185 0.65815 0.1304 0.0
C3132 C 0.86156 0.65298 0.11805 0.0
C3133 C 0.8919 0.64791 0.13415 0.0
C3134 C 0.90213 0.63211 0.12573 0.0
C3135 C 0.89233 0.62732 0.11322 0.0
C3136 C 0.87219 0.63761 0.10943 0.0
C3137 C 0.92282 0.62041 0.13019 0.0
C3138 C 0.94231 0.62224 0.12238 0.0
C3139 C 0.92371 0.60871 0.14256 0.0
C3140 C 0.90346 0.60512 0.15092 0.0
C3141 C 0.88426 0.59507 0.14541 0.0
C3142 C 0.86515 0.59194 0.15329 0.0
C3143 C 0.86509 0.59866 0.16674 0.0
C3144 C 0.88416 0.60846 0.17234 0.0
C3145 C 0.9033 0.61165 0.16449 0.0
H3146 H 0.85028 0.59622 0.17282 0.0
H3147 H 0.03685 0.62599 0.09715 0.0
H3148 H 0.62215 0.61148 0.35082 0.0
H3149 H 0.6391 0.64755 0.35669 0.0
H3150 H 0.59153 0.65554 0.38891 0.0
H3151 H 0.57453 0.61973 0.38317 0.0
H3152 H 0.5978 0.69469 0.37506 0.0
H3153 H 0.64336 0.63716 0.39548 0.0
H3154 H 0.66664 0.60308 0.39544 0.0
H3155 H 0.71294 0.63434 0.3683 0.0
H3156 H 0.68974 0.66852 0.36803 0.0
H3157 H 0.65082 0.77399 0.41743 0.0
H3158 H 0.63387 0.73994 0.40826 0.0
H3159 H 0.68487 0.73724 0.37764 0.0
H3160 H 0.70193 0.77123 0.38676 0.0
H3161 H 0.67758 0.6963 0.38888 0.0
H3162 H 0.63393 0.75478 0.3696 0.0
H3163 H 0.61113 0.78916 0.36961 0.0
H3164 H 0.56162 0.75675 0.39407 0.0
H3165 H 0.5843 0.72224 0.39439 0.0
C3166 C 0.61519 0.62098 0.35909 0.0
C3167 C 0.59707 0.61257 0.36657 0.0
C3168 C 0.62494 0.64157 0.36245 0.0
C3169 C 0.61671 0.65415 0.37332 0.0
C3170 C 0.59818 0.64614 0.3805 0.0
C3171 C 0.58854 0.62556 0.37722 0.0
C3172 C 0.62784 0.67522 0.37763 0.0
C3173 C 0.61519 0.69502 0.37818 0.0
C3174 C 0.65068 0.67577 0.3814 0.0
C3175 C 0.66469 0.65529 0.38161 0.0
C3176 C 0.65841 0.6367 0.38941 0.0
C3177 C 0.6716 0.61737 0.38946 0.0
C3178 C 0.69122 0.61652 0.38184 0.0
C3179 C 0.69772 0.63501 0.37418 0.0
C3180 C 0.68456 0.65436 0.37408 0.0
C3181 C 0.65845 0.76611 0.40877 0.0
C3182 C 0.67768 0.77531 0.40281 0.0
C3183 C 0.64869 0.74672 0.4035 0.0
C3184 C 0.65799 0.73616 0.39218 0.0
C3185 C 0.67741 0.74512 0.38636 0.0
C3186 C 0.68709 0.76457 0.39157 0.0
C3187 C 0.64748 0.71572 0.38646 0.0
C3188 C 0.66024 0.69604 0.38566 0.0
C3189 C 0.62478 0.71532 0.3824 0.0
C3190 C 0.61094 0.73597 0.38212 0.0
C3191 C 0.61827 0.75502 0.37507 0.0
C3192 C 0.60536 0.77454 0.37501 0.0
C3193 C 0.58498 0.77517 0.38187 0.0
C3194 C 0.57743 0.75625 0.38878 0.0
C3195 C 0.5903 0.73669 0.38889 0.0
H3196 H 0.57501 0.7903 0.38181 0.0
H3197 H 0.70141 0.60154 0.38189 0.0
H3198 H 0.63426 0.36834 0.59773 0.0
H3199 H 0.59842 0.38575 0.60366 0.0
H3200 H 0.59827 0.35007 0.64133 0.0
H3201 H 0.63363 0.33248 0.63549 0.0
H3202 H 0.55778 0.34858 0.62988 0.0
H3203 H 0.61342 0.40569 0.63922 0.0
H3204 H 0.64439 0.43116 0.63332 0.0
H3205 H 0.60337 0.46228 0.60322 0.0
H3206 H 0.57225 0.43678 0.60883 0.0
H3207 H 0.48006 0.40777 0.66968 0.0
H3208 H 0.51411 0.39103 0.66044 0.0
H3209 H 0.50782 0.43215 0.62501 0.0
H3210 H 0.47406 0.44929 0.63433 0.0
H3211 H 0.55009 0.43108 0.63298 0.0
H3212 H 0.49353 0.37667 0.62449 0.0
H3213 H 0.46208 0.3516 0.63002 0.0
H3214 H 0.50391 0.31537 0.65754 0.0
H3215 H 0.53554 0.34045 0.65233 0.0
C3216 C 0.62658 0.36417 0.60727 0.0
C3217 C 0.63697 0.34904 0.61613 0.0
C3218 C 0.60611 0.3742 0.61066 0.0
C3219 C 0.59571 0.36935 0.623 0.0
C3220 C 0.60591 0.35405 0.63175 0.0
C3221 C 0.62626 0.34406 0.62839 0.0
C3222 C 0.57434 0.38025 0.62703 0.0
C3223 C 0.55616 0.36662 0.63066 0.0
C3224 C 0.57194 0.4038 0.62766 0.0
C3225 C 0.59061 0.41917 0.62434 0.0
C3226 C 0.61107 0.41785 0.63127 0.0
C3227 C 0.62864 0.43231 0.628 0.0
C3228 C 0.62587 0.44829 0.61788 0.0
C3229 C 0.60551 0.44987 0.61104 0.0
C3230 C 0.5879 0.43543 0.61427 0.0
C3231 C 0.48596 0.41328 0.65994 0.0
C3232 C 0.47432 0.42978 0.65272 0.0
C3233 C 0.50537 0.40361 0.65463 0.0
C3234 C 0.51338 0.41008 0.64192 0.0
C3235 C 0.50196 0.42684 0.6348 0.0
C3236 C 0.48262 0.43658 0.64014 0.0
C3237 C 0.53368 0.3994 0.6361 0.0
C3238 C 0.55162 0.41305 0.63211 0.0
C3239 C 0.5358 0.37586 0.63503 0.0
C3240 C 0.51687 0.36057 0.63809 0.0
C3241 C 0.49599 0.36346 0.63179 0.0
C3242 C 0.47813 0.34923 0.63486 0.0
C3243 C 0.48099 0.33193 0.64415 0.0
C3244 C 0.50173 0.32879 0.65035 0.0
C3245 C 0.51963 0.34299 0.64734 0.0
H3246 H 0.46714 0.32094 0.64651 0.0
H3247 H 0.63949 0.45947 0.61535 0.0
H3248 H 0.07882 0.38306 0.38403 0.0
H3249 H 0.09649 0.34788 0.39024 0.0
H3250 H 0.1422 0.35413 0.35693 0.0
H3251 H 0.1243 0.38952 0.35045 0.0
H3252 H 0.12725 0.31075 0.36013 0.0
H3253 H 0.15945 0.36763 0.38812 0.0
H3254 H 0.15882 0.39966 0.40374 0.0
H3255 H 0.12334 0.36013 0.4328 0.0
H3256 H 0.12348 0.32795 0.41727 0.0
H3257 H 0.20212 0.22806 0.38592 0.0
H3258 H 0.18613 0.26298 0.37737 0.0
H3259 H 0.13933 0.26402 0.41037 0.0
H3260 H 0.15548 0.22931 0.41908 0.0
H3261 H 0.15699 0.30447 0.40654 0.0
H3262 H 0.12343 0.24814 0.37865 0.0
H3263 H 0.12357 0.21578 0.36328 0.0
H3264 H 0.1609 0.2537 0.33428 0.0
H3265 H 0.16127 0.28621 0.34957 0.0
C3266 C 0.09259 0.37702 0.37795 0.0
C3267 C 0.1003 0.38935 0.36681 0.0
C3268 C 0.10271 0.35685 0.38155 0.0
C3269 C 0.12096 0.34856 0.37422 0.0
C3270 C 0.12821 0.36029 0.36278 0.0
C3271 C 0.11799 0.38053 0.35911 0.0
C3272 C 0.13272 0.328 0.37884 0.0
C3273 C 0.13409 0.30947 0.3702 0.0
C3274 C 0.14125 0.32617 0.39207 0.0
C3275 C 0.14133 0.34543 0.40149 0.0
C3276 C 0.15139 0.36582 0.39781 0.0
C3277 C 0.15114 0.38399 0.40665 0.0
C3278 C 0.14101 0.38195 0.41925 0.0
C3279 C 0.13117 0.3617 0.42304 0.0
C3280 C 0.13135 0.34348 0.41423 0.0
C3281 C 0.18844 0.23575 0.39136 0.0
C3282 C 0.18004 0.22592 0.40317 0.0
C3283 C 0.17924 0.25566 0.38643 0.0
C3284 C 0.16134 0.26603 0.39314 0.0
C3285 C 0.15311 0.25634 0.40501 0.0
C3286 C 0.16234 0.23647 0.40997 0.0
C3287 C 0.15128 0.28708 0.3879 0.0
C3288 C 0.15027 0.30573 0.39644 0.0
C3289 C 0.14303 0.28896 0.3746 0.0
C3290 C 0.14257 0.26954 0.36531 0.0
C3291 C 0.13181 0.24953 0.36903 0.0
C3292 C 0.13178 0.23117 0.36033 0.0
C3293 C 0.14229 0.23266 0.34782 0.0
C3294 C 0.15279 0.25256 0.34398 0.0
C3295 C 0.1529 0.27097 0.35266 0.0
H3296 H 0.14226 0.21843 0.3411 0.0
H3297 H 0.14083 0.39604 0.42608 0.0
H3298 H 0.37052 0.32693 0.13329 0.0
H3299 H 0.40621 0.34356 0.13942 0.0
H3300 H 0.40019 0.39072 0.10684 0.0
H3301 H 0.36418 0.37393 0.10046 0.0
H3302 H 0.44406 0.37383 0.11 0.0
H3303 H 0.38693 0.40736 0.13764 0.0
H3304 H 0.35462 0.40688 0.15306 0.0
H3305 H 0.39314 0.37032 0.18212 0.0
H3306 H 0.4256 0.37032 0.1668 0.0
H3307 H 0.52479 0.45047 0.13603 0.0
H3308 H 0.49068 0.43319 0.12726 0.0
H3309 H 0.49045 0.38669 0.16041 0.0
H3310 H 0.5245 0.40401 0.1693 0.0
H3311 H 0.44956 0.40418 0.1563 0.0
H3312 H 0.50652 0.37024 0.12955 0.0
H3313 H 0.53949 0.36988 0.11466 0.0
H3314 H 0.50239 0.40508 0.08437 0.0
H3315 H 0.46934 0.4062 0.09921 0.0
C3316 C 0.3767 0.34079 0.12734 0.0
C3317 C 0.36423 0.34928 0.11647 0.0
C3318 C 0.39719 0.35028 0.13088 0.0
C3319 C 0.4057 0.36862 0.12374 0.0
C3320 C 0.39386 0.37662 0.11253 0.0
C3321 C 0.37326 0.36704 0.10892 0.0
C3322 C 0.42641 0.37992 0.1285 0.0
C3323 C 0.4452 0.3808 0.12004 0.0
C3324 C 0.42806 0.38847 0.14174 0.0
C3325 C 0.40864 0.38869 0.15103 0.0
C3326 C 0.38846 0.3991 0.14729 0.0
C3327 C 0.37013 0.39893 0.15601 0.0
C3328 C 0.37181 0.38854 0.16855 0.0
C3329 C 0.39186 0.37835 0.1724 0.0
C3330 C 0.41024 0.37845 0.16371 0.0
C3331 C 0.51749 0.43656 0.14146 0.0
C3332 C 0.52733 0.4286 0.15337 0.0
C3333 C 0.49805 0.42663 0.13639 0.0
C3334 C 0.48811 0.4085 0.1431 0.0
C3335 C 0.49784 0.40064 0.15505 0.0
C3336 C 0.5173 0.41053 0.16011 0.0
C3337 C 0.46731 0.39805 0.13784 0.0
C3338 C 0.44847 0.39731 0.14623 0.0
C3339 C 0.46574 0.38947 0.1246 0.0
C3340 C 0.4855 0.38852 0.11556 0.0
C3341 C 0.50543 0.37808 0.11976 0.0
C3342 C 0.52413 0.37771 0.11132 0.0
C3343 C 0.52303 0.38744 0.09858 0.0
C3344 C 0.50322 0.39756 0.09425 0.0
C3345 C 0.4845 0.39809 0.10267 0.0
H3346 H 0.53752 0.38713 0.09206 0.0
H3347 H 0.35759 0.38842 0.17529 0.0
H3348 H 0.34798 0.77434 0.91769 0.0
H3349 H 0.3644 0.74046 0.90803 0.0
H3350 H 0.31383 0.7402 0.8771 0.0
H3351 H 0.29726 0.77408 0.88675 0.0
H3352 H 0.32075 0.69836 0.88752 0.0
H3353 H 0.3649 0.75732 0.86936 0.0
H3354 H 0.38765 0.79172 0.86998 0.0
H3355 H 0.43647 0.75866 0.89462 0.0
H3356 H 0.41387 0.72411 0.8943 0.0
H3357 H 0.37859 0.61368 0.85013 0.0
H3358 H 0.36081 0.64952 0.85566 0.0
H3359 H 0.40674 0.65829 0.88866 0.0
H3360 H 0.42461 0.62279 0.88321 0.0
H3361 H 0.40097 0.69708 0.87463 0.0
H3362 H 0.35446 0.63918 0.89414 0.0
H3363 H 0.33107 0.60519 0.89356 0.0
H3364 H 0.28619 0.63695 0.86578 0.0
H3365 H 0.3095 0.67105 0.86606 0.0
C3366 C 0.3403 0.76703 0.90887 0.0
C3367 C 0.32136 0.7769 0.90296 0.0
C3368 C 0.34976 0.74773 0.90332 0.0
C3369 C 0.34049 0.73795 0.89175 0.0
C3370 C 0.32128 0.7475 0.88601 0.0
C3371 C 0.31187 0.76687 0.89152 0.0
C3372 C 0.35095 0.71779 0.88567 0.0
C3373 C 0.33819 0.69818 0.88448 0.0
C3374 C 0.37374 0.71751 0.88181 0.0
C3375 C 0.38758 0.73816 0.8819 0.0
C3376 C 0.38041 0.75742 0.87499 0.0
C3377 C 0.39328 0.77695 0.87528 0.0
C3378 C 0.41345 0.77741 0.88238 0.0
C3379 C 0.42083 0.75829 0.88915 0.0
C3380 C 0.40801 0.73871 0.8889 0.0
C3381 C 0.385 0.62331 0.8585 0.0
C3382 C 0.40293 0.61522 0.86628 0.0
C3383 C 0.37477 0.64376 0.86168 0.0
C3384 C 0.38233 0.65649 0.87265 0.0
C3385 C 0.40062 0.64877 0.88015 0.0
C3386 C 0.41074 0.62835 0.87705 0.0
C3387 C 0.37088 0.67752 0.87671 0.0
C3388 C 0.38347 0.69733 0.87753 0.0
C3389 C 0.34789 0.67801 0.88015 0.0
C3390 C 0.33386 0.65755 0.88 0.0
C3391 C 0.3397 0.63884 0.88782 0.0
C3392 C 0.32645 0.61957 0.88756 0.0
C3393 C 0.3072 0.61888 0.8796 0.0
C3394 C 0.30113 0.63749 0.87192 0.0
C3395 C 0.31435 0.65679 0.87213 0.0
H3396 H 0.29695 0.60395 0.87942 0.0
H3397 H 0.42338 0.79256 0.8826 0.0
H3398 H 0.97623 0.59543 0.66558 0.0
H3399 H 0.01002 0.61309 0.6566 0.0
H3400 H 0.01171 0.56481 0.62439 0.0
H3401 H 0.97796 0.54699 0.63336 0.0
H3402 H 0.05303 0.5712 0.63546 0.0
H3403 H 0.99395 0.61694 0.61817 0.0
H3404 H 0.95966 0.63978 0.61957 0.0
H3405 H 0.99303 0.68617 0.6457 0.0
H3406 H 0.0275 0.6635 0.64457 0.0
H3407 H 0.13769 0.6293 0.59904 0.0
H3408 H 0.10159 0.612 0.60443 0.0
H3409 H 0.09319 0.65782 0.63753 0.0
H3410 H 0.12898 0.67522 0.63221 0.0
H3411 H 0.05426 0.6521 0.62418 0.0
H3412 H 0.11207 0.60519 0.64284 0.0
H3413 H 0.14624 0.58206 0.64212 0.0
H3414 H 0.11496 0.53767 0.61386 0.0
H3415 H 0.0807 0.56073 0.61428 0.0
C3416 C 0.98383 0.58854 0.6566 0.0
C3417 C 0.97442 0.56984 0.65017 0.0
C3418 C 0.00307 0.59872 0.65144 0.0
C3419 C 0.01326 0.59043 0.63973 0.0
C3420 C 0.00411 0.57152 0.63342 0.0
C3421 C 0.9848 0.56139 0.63855 0.0
C3422 C 0.03353 0.60144 0.63414 0.0
C3423 C 0.0532 0.5888 0.63277 0.0
C3424 C 0.03385 0.62449 0.63085 0.0
C3425 C 0.01327 0.6384 0.63138 0.0
C3426 C 0.99395 0.63194 0.62428 0.0
C3427 C 0.97448 0.64486 0.62502 0.0
C3428 C 0.97413 0.66435 0.63277 0.0
C3429 C 0.99331 0.67104 0.63972 0.0
C3430 C 0.01284 0.65819 0.63902 0.0
C3431 C 0.12807 0.63582 0.6074 0.0
C3432 C 0.13639 0.65352 0.61527 0.0
C3433 C 0.10747 0.62586 0.61049 0.0
C3434 C 0.0948 0.63343 0.6215 0.0
C3435 C 0.10266 0.65164 0.62902 0.0
C3436 C 0.12324 0.6615 0.62599 0.0
C3437 C 0.07382 0.6219 0.6256 0.0
C3438 C 0.05402 0.63445 0.62673 0.0
C3439 C 0.07338 0.59876 0.62869 0.0
C3440 C 0.09393 0.58483 0.62847 0.0
C3441 C 0.11255 0.5906 0.63639 0.0
C3442 C 0.13192 0.57749 0.63605 0.0
C3443 C 0.1328 0.55845 0.62791 0.0
C3444 C 0.11428 0.55244 0.62014 0.0
C3445 C 0.09487 0.56552 0.62042 0.0
H3446 H 0.14781 0.54832 0.62767 0.0
H3447 H 0.95902 0.6743 0.63335 0.0
H3448 H 0.12216 0.61182 0.15399 0.0
H3449 H 0.13935 0.64729 0.14715 0.0
H3450 H 0.09184 0.65306 0.11471 0.0
H3451 H 0.07494 0.61766 0.12126 0.0
H3452 H 0.13267 0.66104 0.10583 0.0
H3453 H 0.08845 0.68553 0.14357 0.0
H3454 H 0.07571 0.68527 0.16714 0.0
H3455 H 0.14242 0.70017 0.18043 0.0
H3456 H 0.15563 0.70023 0.15694 0.0
H3457 H 0.15064 0.77325 0.08585 0.0
H3458 H 0.13438 0.73846 0.09437 0.0
H3459 H 0.18328 0.73708 0.12625 0.0
H3460 H 0.19926 0.77217 0.11797 0.0
H3461 H 0.14348 0.72637 0.13587 0.0
H3462 H 0.18766 0.70269 0.09828 0.0
H3463 H 0.20068 0.70288 0.07476 0.0
H3464 H 0.13452 0.6861 0.06127 0.0
H3465 H 0.12103 0.6861 0.0847 0.0
C3466 C 0.11527 0.62074 0.14547 0.0
C3467 C 0.09721 0.61178 0.13816 0.0
C3468 C 0.12508 0.64106 0.14159 0.0
C3469 C 0.11686 0.65293 0.13042 0.0
C3470 C 0.09858 0.6442 0.1233 0.0
C3471 C 0.08889 0.62391 0.1271 0.0
C3472 C 0.12762 0.67405 0.12579 0.0
C3473 C 0.13478 0.67542 0.11237 0.0
C3474 C 0.131 0.69261 0.13439 0.0
C3475 C 0.12307 0.69265 0.14851 0.0
C3476 C 0.10044 0.68857 0.15153 0.0
C3477 C 0.09312 0.6885 0.16487 0.0
C3478 C 0.10826 0.69264 0.17528 0.0
C3479 C 0.13073 0.69693 0.17236 0.0
C3480 C 0.13813 0.69701 0.15904 0.0
C3481 C 0.15797 0.7655 0.09465 0.0
C3482 C 0.17631 0.77539 0.10119 0.0
C3483 C 0.1487 0.74556 0.09949 0.0
C3484 C 0.15778 0.73493 0.11086 0.0
C3485 C 0.17599 0.74491 0.11746 0.0
C3486 C 0.18516 0.76493 0.11268 0.0
C3487 C 0.14826 0.71345 0.11587 0.0
C3488 C 0.14141 0.71198 0.12934 0.0
C3489 C 0.1452 0.69473 0.10733 0.0
C3490 C 0.1533 0.69459 0.09324 0.0
C3491 C 0.17585 0.69919 0.09029 0.0
C3492 C 0.18332 0.69924 0.07698 0.0
C3493 C 0.16843 0.69456 0.06653 0.0
C3494 C 0.14604 0.68975 0.06937 0.0
C3495 C 0.13848 0.6897 0.08267 0.0
H3496 H 0.17424 0.69461 0.05623 0.0
H3497 H 0.10257 0.69257 0.1856 0.0
H3498 H 0.15504 0.36664 0.86673 0.0
H3499 H 0.11928 0.38268 0.85988 0.0
H3500 H 0.09109 0.36541 0.89847 0.0
H3501 H 0.12748 0.35065 0.90562 0.0
H3502 H 0.08244 0.3659 0.85522 0.0
H3503 H 0.04614 0.39712 0.90599 0.0
H3504 H 0.0594 0.41318 0.9274 0.0
H3505 H 0.11829 0.43818 0.90775 0.0
H3506 H 0.10525 0.42251 0.8862 0.0
H3507 H 0.96853 0.39004 0.8433 0.0
H3508 H 0.00367 0.37537 0.85238 0.0
H3509 H 0.0224 0.44203 0.86488 0.0
H3510 H 0.98649 0.45625 0.85678 0.0
H3511 H 0.03577 0.4169 0.88273 0.0
H3512 H 0.04377 0.41297 0.83492 0.0
H3513 H 0.03371 0.40243 0.81173 0.0
H3514 H 0.03751 0.33286 0.82229 0.0
H3515 H 0.04734 0.343 0.84559 0.0
C3516 C 0.14128 0.3666 0.87381 0.0
C3517 C 0.14404 0.35756 0.88673 0.0
C3518 C 0.12077 0.37565 0.86987 0.0
C3519 C 0.10232 0.37543 0.87863 0.0
C3520 C 0.10509 0.36635 0.89159 0.0
C3521 C 0.12587 0.35783 0.89568 0.0
C3522 C 0.08016 0.38397 0.87392 0.0
C3523 C 0.07231 0.37712 0.86125 0.0
C3524 C 0.06689 0.39885 0.88163 0.0
C3525 C 0.07483 0.40841 0.89453 0.0
C3526 C 0.06189 0.40609 0.90624 0.0
C3527 C 0.06937 0.41512 0.9184 0.0
C3528 C 0.08971 0.42662 0.91894 0.0
C3529 C 0.10258 0.42918 0.90732 0.0
C3530 C 0.09517 0.42021 0.89514 0.0
C3531 C 0.98022 0.40149 0.84799 0.0
C3532 C 0.97497 0.42428 0.84925 0.0
C3533 C 1.00038 0.39315 0.85312 0.0
C3534 C 0.01612 0.40761 0.85908 0.0
C3535 C 0.01068 0.43042 0.86037 0.0
C3536 C 0.99021 0.4386 0.85566 0.0
C3537 C 0.03825 0.39915 0.86393 0.0
C3538 C 0.04596 0.40579 0.87667 0.0
C3539 C 0.05193 0.38491 0.85603 0.0
C3540 C 0.04607 0.37875 0.84202 0.0
C3541 C 0.04233 0.39543 0.83231 0.0
C3542 C 0.03668 0.38953 0.81915 0.0
C3543 C 0.03492 0.36699 0.81555 0.0
C3544 C 0.03885 0.35031 0.8251 0.0
C3545 C 0.04448 0.35612 0.83828 0.0
H3546 H 0.03054 0.36246 0.80535 0.0
H3547 H 0.09548 0.43359 0.92837 0.0
H3548 H 0.35081 0.2272 0.58977 0.0
H3549 H 0.36711 0.26107 0.59962 0.0
H3550 H 0.31185 0.26549 0.62736 0.0
H3551 H 0.2956 0.23147 0.61767 0.0
H3552 H 0.32214 0.3064 0.61528 0.0
H3553 H 0.35922 0.24845 0.63931 0.0
H3554 H 0.38074 0.21375 0.64267 0.0
H3555 H 0.43604 0.24179 0.62086 0.0
H3556 H 0.41476 0.27659 0.61726 0.0
H3557 H 0.37402 0.3926 0.65428 0.0
H3558 H 0.35665 0.3566 0.64859 0.0
H3559 H 0.40919 0.34373 0.6199 0.0
H3560 H 0.42657 0.37947 0.62549 0.0
H3561 H 0.39873 0.3063 0.63456 0.0
H3562 H 0.35978 0.3636 0.60947 0.0
H3563 H 0.33805 0.39842 0.60689 0.0
H3564 H 0.2857 0.37125 0.63154 0.0
H3565 H 0.30728 0.33636 0.63442 0.0
C3566 C 0.34209 0.23543 0.59794 0.0
C3567 C 0.32191 0.22669 0.60294 0.0
C3568 C 0.35148 0.2547 0.6036 0.0
C3569 C 0.34076 0.26571 0.61429 0.0
C3570 C 0.32041 0.25724 0.61914 0.0
C3571 C 0.31117 0.2378 0.6136 0.0
C3572 C 0.35076 0.28616 0.6203 0.0
C3573 C 0.33874 0.30631 0.61969 0.0
C3574 C 0.3725 0.28609 0.62593 0.0
C3575 C 0.38526 0.26503 0.62786 0.0
C3576 C 0.37586 0.2471 0.63507 0.0
C3577 C 0.38802 0.2274 0.63702 0.0
C3578 C 0.40965 0.2254 0.63183 0.0
C3579 C 0.41921 0.24321 0.62477 0.0
C3580 C 0.40712 0.26297 0.62279 0.0
C3581 C 0.38198 0.38199 0.64687 0.0
C3582 C 0.40156 0.38902 0.64025 0.0
C3583 C 0.37199 0.36147 0.64358 0.0
C3584 C 0.38149 0.34759 0.6337 0.0
C3585 C 0.40152 0.35418 0.62752 0.0
C3586 C 0.41137 0.3747 0.63069 0.0
C3587 C 0.37026 0.32661 0.62934 0.0
C3588 C 0.38206 0.30634 0.63024 0.0
C3589 C 0.34827 0.32656 0.62404 0.0
C3590 C 0.33526 0.34749 0.62229 0.0
C3591 C 0.34372 0.36513 0.61443 0.0
C3592 C 0.33141 0.38486 0.6129 0.0
C3593 C 0.31054 0.38708 0.61908 0.0
C3594 C 0.30189 0.36953 0.62678 0.0
C3595 C 0.31415 0.34977 0.62836 0.0
H3596 H 0.30103 0.40236 0.61788 0.0
H3597 H 0.41902 0.21011 0.63336 0.0
H3598 H 0.52025 0.59551 0.33467 0.0
H3599 H 0.4856 0.6123 0.34314 0.0
H3600 H 0.48904 0.57036 0.37835 0.0
H3601 H 0.52365 0.55358 0.36998 0.0
H3602 H 0.44524 0.59357 0.34904 0.0
H3603 H 0.46907 0.60003 0.40524 0.0
H3604 H 0.50293 0.60473 0.41916 0.0
H3605 H 0.53582 0.63853 0.38661 0.0
H3606 H 0.50213 0.63422 0.37256 0.0
H3607 H 0.36328 0.63195 0.40531 0.0
H3608 H 0.39864 0.61403 0.39877 0.0
H3609 H 0.40158 0.6555 0.36337 0.0
H3610 H 0.36656 0.6733 0.36968 0.0
H3611 H 0.44175 0.6309 0.39355 0.0
H3612 H 0.41926 0.62409 0.33717 0.0
H3613 H 0.38573 0.62025 0.32288 0.0
H3614 H 0.35058 0.58846 0.35531 0.0
H3615 H 0.38397 0.59181 0.36972 0.0
C3616 C 0.51361 0.58986 0.34421 0.0
C3617 C 0.52471 0.57326 0.35167 0.0
C3618 C 0.4938 0.59943 0.34902 0.0
C3619 C 0.48484 0.59275 0.36144 0.0
C3620 C 0.4958 0.57601 0.36884 0.0
C3621 C 0.51554 0.56637 0.36401 0.0
C3622 C 0.46395 0.60314 0.36661 0.0
C3623 C 0.44456 0.60195 0.3587 0.0
C3624 C 0.4629 0.61361 0.37936 0.0
C3625 C 0.48314 0.61657 0.38781 0.0
C3626 C 0.48351 0.60852 0.40108 0.0
C3627 C 0.50269 0.61109 0.40898 0.0
C3628 C 0.52156 0.62182 0.40375 0.0
C3629 C 0.52126 0.63009 0.39062 0.0
C3630 C 0.50213 0.62756 0.38268 0.0
C3631 C 0.37152 0.63733 0.39618 0.0
C3632 C 0.36186 0.65391 0.38797 0.0
C3633 C 0.39175 0.6271 0.39247 0.0
C3634 C 0.40255 0.63319 0.38048 0.0
C3635 C 0.39335 0.65025 0.37255 0.0
C3636 C 0.37326 0.66044 0.37621 0.0
C3637 C 0.42312 0.62146 0.37592 0.0
C3638 C 0.44243 0.62239 0.38393 0.0
C3639 C 0.42415 0.61083 0.36321 0.0
C3640 C 0.40407 0.6084 0.35455 0.0
C3641 C 0.40441 0.61619 0.34123 0.0
C3642 C 0.38542 0.61411 0.33311 0.0
C3643 C 0.36602 0.60418 0.3382 0.0
C3644 C 0.36559 0.59622 0.35139 0.0
C3645 C 0.38453 0.59823 0.35954 0.0
H3646 H 0.35133 0.60261 0.3319 0.0
H3647 H 0.53639 0.62378 0.40988 0.0
loop_
_geom_bond_atom_site_label_1
_geom_bond_atom_site_label_2
_geom_bond_distance
_geom_bond_site_symmetry_2
_ccdc_geom_bond_type
Co0 O1 2.216 . S
Co0 O2 2.091 . S
Co0 O4 2.004 . S
Co0 O10 2.021 . S
Co0 O12 2.137 . S
Co0 O13 2.244 . S
O1 Co0 2.216 . S
O1 C8 1.247 . S
O2 Co0 2.091 . S
O2 C8 1.261 . S
C3 O12 1.247 . S
C3 O13 1.272 . S
O4 Co0 2.004 . S
O4 C9 1.259 . S
Co5 O6 2.061 . S
Co5 O11 2.052 . S
Co5 O13 2.135 . S
O6 Co5 2.061 . S
O6 C9 1.235 . S
C7 O10 1.238 . S
C7 O11 1.241 . S
C8 O1 1.247 . S
C8 O2 1.261 . S
C9 O4 1.259 . S
C9 O6 1.235 . S
O10 Co0 2.021 . S
O10 C7 1.238 . S
O11 Co5 2.052 . S
O11 C7 1.241 . S
O12 Co0 2.137 . S
O12 C3 1.247 . S
O13 Co0 2.244 . S
O13 C3 1.272 . S
O13 Co5 2.135 . S
Co14 O15 2.216 . S
Co14 O16 2.091 . S
Co14 O18 2.004 . S
Co14 O24 2.021 . S
Co14 O26 2.137 . S
Co14 O27 2.244 . S
O15 Co14 2.216 . S
O15 C22 1.247 . S
O16 Co14 2.091 . S
O16 C22 1.261 . S
C17 O26 1.247 . S
C17 O27 1.272 . S
O18 Co14 2.004 . S
O18 C23 1.259 . S
Co19 O20 2.061 . S
Co19 O25 2.052 . S
Co19 O27 2.135 . S
O20 Co19 2.061 . S
O20 C23 1.235 . S
C21 O24 1.238 . S
C21 O25 1.241 . S
C22 O15 1.247 . S
C22 O16 1.261 . S
C23 O18 1.259 . S
C23 O20 1.235 . S
O24 Co14 2.021 . S
O24 C21 1.238 . S
O25 Co19 2.052 . S
O25 C21 1.241 . S
O26 Co14 2.137 . S
O26 C17 1.247 . S
O27 Co14 2.244 . S
O27 C17 1.272 . S
O27 Co19 2.135 . S
Co28 O29 2.216 . S
Co28 O30 2.091 . S
Co28 O32 2.004 . S
Co28 O38 2.021 . S
Co28 O40 2.137 . S
Co28 O41 2.244 . S
O29 Co28 2.216 . S
O29 C36 1.247 . S
O30 Co28 2.091 . S
O30 C36 1.261 . S
C31 O40 1.247 . S
C31 O41 1.272 . S
O32 Co28 2.004 . S
O32 C37 1.259 . S
Co33 O34 2.061 . S
Co33 O39 2.052 . S
Co33 O41 2.135 . S
O34 Co33 2.061 . S
O34 C37 1.235 . S
C35 O38 1.238 . S
C35 O39 1.241 . S
C36 O29 1.247 . S
C36 O30 1.261 . S
C37 O32 1.259 . S
C37 O34 1.235 . S
O38 Co28 2.021 . S
O38 C35 1.238 . S
O39 Co33 2.052 . S
O39 C35 1.241 . S
O40 Co28 2.137 . S
O40 C31 1.247 . S
O41 Co28 2.244 . S
O41 C31 1.272 . S
O41 Co33 2.135 . S
Co42 O43 2.216 . S
Co42 O44 2.091 . S
Co42 O46 2.004 . S
Co42 O52 2.021 . S
Co42 O54 2.137 . S
Co42 O55 2.244 . S
O43 Co42 2.216 . S
O43 C50 1.247 . S
O44 Co42 2.091 . S
O44 C50 1.261 . S
C45 O54 1.247 . S
C45 O55 1.272 . S
O46 Co42 2.004 . S
O46 C51 1.259 . S
Co47 O48 2.061 . S
Co47 O53 2.052 . S
Co47 O55 2.135 . S
O48 Co47 2.061 . S
O48 C51 1.235 . S
C49 O52 1.238 . S
C49 O53 1.241 . S
C50 O43 1.247 . S
C50 O44 1.261 . S
C51 O46 1.259 . S
C51 O48 1.235 . S
O52 Co42 2.021 . S
O52 C49 1.238 . S
O53 Co47 2.052 . S
O53 C49 1.241 . S
O54 Co42 2.137 . S
O54 C45 1.247 . S
O55 Co42 2.244 . S
O55 C45 1.272 . S
O55 Co47 2.135 . S
Co56 O57 2.216 . S
Co56 O58 2.091 . S
Co56 O60 2.004 . S
Co56 O66 2.021 . S
Co56 O68 2.137 . S
Co56 O69 2.244 . S
O57 Co56 2.216 . S
O57 C64 1.247 . S
O58 Co56 2.091 . S
O58 C64 1.261 . S
C59 O68 1.247 . S
C59 O69 1.272 . S
O60 Co56 2.004 . S
O60 C65 1.259 . S
Co61 O62 2.061 . S
Co61 O67 2.052 . S
Co61 O69 2.135 . S
O62 Co61 2.061 . S
O62 C65 1.235 . S
C63 O66 1.238 . S
C63 O67 1.241 . S
C64 O57 1.247 . S
C64 O58 1.261 . S
C65 O60 1.259 . S
C65 O62 1.235 . S
O66 Co56 2.021 . S
O66 C63 1.238 . S
O67 Co61 2.052 . S
O67 C63 1.241 . S
O68 Co56 2.137 . S
O68 C59 1.247 . S
O69 Co56 2.244 . S
O69 C59 1.272 . S
O69 Co61 2.135 . S
Co70 O71 2.216 . S
Co70 O72 2.091 . S
Co70 O74 2.004 . S
Co70 O80 2.021 . S
Co70 O82 2.137 . S
Co70 O83 2.244 . S
O71 Co70 2.216 . S
O71 C78 1.247 . S
O72 Co70 2.091 . S
O72 C78 1.261 . S
C73 O82 1.247 . S
C73 O83 1.272 . S
O74 Co70 2.004 . S
O74 C79 1.259 . S
Co75 O76 2.061 . S
Co75 O81 2.052 . S
Co75 O83 2.135 . S
O76 Co75 2.061 . S
O76 C79 1.235 . S
C77 O80 1.238 . S
C77 O81 1.241 . S
C78 O71 1.247 . S
C78 O72 1.261 . S
C79 O74 1.259 . S
C79 O76 1.235 . S
O80 Co70 2.021 . S
O80 C77 1.238 . S
O81 Co75 2.052 . S
O81 C77 1.241 . S
O82 Co70 2.137 . S
O82 C73 1.247 . S
O83 Co70 2.244 . S
O83 C73 1.272 . S
O83 Co75 2.135 . S
Co84 O85 2.216 . S
Co84 O86 2.091 . S
Co84 O88 2.004 . S
Co84 O94 2.021 . S
Co84 O96 2.137 . S
Co84 O97 2.244 . S
O85 Co84 2.216 . S
O85 C92 1.247 . S
O86 Co84 2.091 . S
O86 C92 1.261 . S
C87 O96 1.247 . S
C87 O97 1.272 . S
O88 Co84 2.004 . S
O88 C93 1.259 . S
Co89 O90 2.061 . S
Co89 O95 2.052 . S
Co89 O97 2.135 . S
O90 Co89 2.061 . S
O90 C93 1.235 . S
C91 O94 1.238 . S
C91 O95 1.241 . S
C92 O85 1.247 . S
C92 O86 1.261 . S
C93 O88 1.259 . S
C93 O90 1.235 . S
O94 Co84 2.021 . S
O94 C91 1.238 . S
O95 Co89 2.052 . S
O95 C91 1.241 . S
O96 Co84 2.137 . S
O96 C87 1.247 . S
O97 Co84 2.244 . S
O97 C87 1.272 . S
O97 Co89 2.135 . S
Co98 O99 2.216 . S
Co98 O100 2.091 . S
Co98 O102 2.004 . S
Co98 O108 2.021 . S
Co98 O110 2.137 . S
Co98 O111 2.244 . S
O99 Co98 2.216 . S
O99 C106 1.247 . S
O100 Co98 2.091 . S
O100 C106 1.261 . S
C101 O110 1.247 . S
C101 O111 1.272 . S
O102 Co98 2.004 . S
O102 C107 1.259 . S
Co103 O104 2.061 . S
Co103 O109 2.052 . S
Co103 O111 2.135 . S
O104 Co103 2.061 . S
O104 C107 1.235 . S
C105 O108 1.238 . S
C105 O109 1.241 . S
C106 O99 1.247 . S
C106 O100 1.261 . S
C107 O102 1.259 . S
C107 O104 1.235 . S
O108 Co98 2.021 . S
O108 C105 1.238 . S
O109 Co103 2.052 . S
O109 C105 1.241 . S
O110 Co98 2.137 . S
O110 C101 1.247 . S
O111 Co98 2.244 . S
O111 C101 1.272 . S
O111 Co103 2.135 . S
Co112 O113 2.216 . S
Co112 O114 2.091 . S
Co112 O116 2.004 . S
Co112 O122 2.021 . S
Co112 O124 2.137 . S
Co112 O125 2.244 . S
O113 Co112 2.216 . S
O113 C120 1.247 . S
O114 Co112 2.091 . S
O114 C120 1.261 . S
C115 O124 1.247 . S
C115 O125 1.272 . S
O116 Co112 2.004 . S
O116 C121 1.259 . S
Co117 O118 2.061 . S
Co117 O123 2.052 . S
Co117 O125 2.135 . S
O118 Co117 2.061 . S
O118 C121 1.235 . S
C119 O122 1.238 . S
C119 O123 1.241 . S
C120 O113 1.247 . S
C120 O114 1.261 . S
C121 O116 1.259 . S
C121 O118 1.235 . S
O122 Co112 2.021 . S
O122 C119 1.238 . S
O123 Co117 2.052 . S
O123 C119 1.241 . S
O124 Co112 2.137 . S
O124 C115 1.247 . S
O125 Co112 2.244 . S
O125 C115 1.272 . S
O125 Co117 2.135 . S
Co126 O127 2.216 . S
Co126 O128 2.091 . S
Co126 O130 2.004 . S
Co126 O136 2.021 . S
Co126 O138 2.137 . S
Co126 O139 2.244 . S
O127 Co126 2.216 . S
O127 C134 1.247 . S
O128 Co126 2.091 . S
O128 C134 1.261 . S
C129 O138 1.247 . S
C129 O139 1.272 . S
O130 Co126 2.004 . S
O130 C135 1.259 . S
Co131 O132 2.061 . S
Co131 O137 2.052 . S
Co131 O139 2.135 . S
O132 Co131 2.061 . S
O132 C135 1.235 . S
C133 O136 1.238 . S
C133 O137 1.241 . S
C134 O127 1.247 . S
C134 O128 1.261 . S
C135 O130 1.259 . S
C135 O132 1.235 . S
O136 Co126 2.021 . S
O136 C133 1.238 . S
O137 Co131 2.052 . S
O137 C133 1.241 . S
O138 Co126 2.137 . S
O138 C129 1.247 . S
O139 Co126 2.244 . S
O139 C129 1.272 . S
O139 Co131 2.135 . S
Co140 O141 2.216 . S
Co140 O142 2.091 . S
Co140 O144 2.004 . S
Co140 O150 2.021 . S
Co140 O152 2.137 . S
Co140 O153 2.244 . S
O141 Co140 2.216 . S
O141 C148 1.247 . S
O142 Co140 2.091 . S
O142 C148 1.261 . S
C143 O152 1.247 . S
C143 O153 1.272 . S
O144 Co140 2.004 . S
O144 C149 1.259 . S
Co145 O146 2.061 . S
Co145 O151 2.052 . S
Co145 O153 2.135 . S
O146 Co145 2.061 . S
O146 C149 1.235 . S
C147 O150 1.238 . S
C147 O151 1.241 . S
C148 O141 1.247 . S
C148 O142 1.261 . S
C149 O144 1.259 . S
C149 O146 1.235 . S
O150 Co140 2.021 . S
O150 C147 1.238 . S
O151 Co145 2.052 . S
O151 C147 1.241 . S
O152 Co140 2.137 . S
O152 C143 1.247 . S
O153 Co140 2.244 . S
O153 C143 1.272 . S
O153 Co145 2.135 . S
Co154 O155 2.216 . S
Co154 O156 2.091 . S
Co154 O158 2.004 . S
Co154 O164 2.021 . S
Co154 O166 2.137 . S
Co154 O167 2.244 . S
O155 Co154 2.216 . S
O155 C162 1.247 . S
O156 Co154 2.091 . S
O156 C162 1.261 . S
C157 O166 1.247 . S
C157 O167 1.272 . S
O158 Co154 2.004 . S
O158 C163 1.259 . S
Co159 O160 2.061 . S
Co159 O165 2.052 . S
Co159 O167 2.135 . S
O160 Co159 2.061 . S
O160 C163 1.235 . S
C161 O164 1.238 . S
C161 O165 1.241 . S
C162 O155 1.247 . S
C162 O156 1.261 . S
C163 O158 1.259 . S
C163 O160 1.235 . S
O164 Co154 2.021 . S
O164 C161 1.238 . S
O165 Co159 2.052 . S
O165 C161 1.241 . S
O166 Co154 2.137 . S
O166 C157 1.247 . S
O167 Co154 2.244 . S
O167 C157 1.272 . S
O167 Co159 2.135 . S
Co168 O169 2.216 . S
Co168 O170 2.091 . S
Co168 O172 2.004 . S
Co168 O178 2.021 . S
Co168 O180 2.137 . S
Co168 O181 2.244 . S
O169 Co168 2.216 . S
O169 C176 1.247 . S
O170 Co168 2.091 . S
O170 C176 1.261 . S
C171 O180 1.247 . S
C171 O181 1.272 . S
O172 Co168 2.004 . S
O172 C177 1.259 . S
Co173 O174 2.061 . S
Co173 O179 2.052 . S
Co173 O181 2.135 . S
O174 Co173 2.061 . S
O174 C177 1.235 . S
C175 O178 1.238 . S
C175 O179 1.241 . S
C176 O169 1.247 . S
C176 O170 1.261 . S
C177 O172 1.259 . S
C177 O174 1.235 . S
O178 Co168 2.021 . S
O178 C175 1.238 . S
O179 Co173 2.052 . S
O179 C175 1.241 . S
O180 Co168 2.137 . S
O180 C171 1.247 . S
O181 Co168 2.244 . S
O181 C171 1.272 . S
O181 Co173 2.135 . S
Co182 O183 2.216 . S
Co182 O184 2.091 . S
Co182 O186 2.004 . S
Co182 O192 2.021 . S
Co182 O194 2.137 . S
Co182 O195 2.244 . S
O183 Co182 2.216 . S
O183 C190 1.247 . S
O184 Co182 2.091 . S
O184 C190 1.261 . S
C185 O194 1.247 . S
C185 O195 1.272 . S
O186 Co182 2.004 . S
O186 C191 1.259 . S
Co187 O188 2.061 . S
Co187 O193 2.052 . S
Co187 O195 2.135 . S
O188 Co187 2.061 . S
O188 C191 1.235 . S
C189 O192 1.238 . S
C189 O193 1.241 . S
C190 O183 1.247 . S
C190 O184 1.261 . S
C191 O186 1.259 . S
C191 O188 1.235 . S
O192 Co182 2.021 . S
O192 C189 1.238 . S
O193 Co187 2.052 . S
O193 C189 1.241 . S
O194 Co182 2.137 . S
O194 C185 1.247 . S
O195 Co182 2.244 . S
O195 C185 1.272 . S
O195 Co187 2.135 . S
Co196 O197 2.216 . S
Co196 O198 2.091 . S
Co196 O200 2.004 . S
Co196 O206 2.021 . S
Co196 O208 2.137 . S
Co196 O209 2.244 . S
O197 Co196 2.216 . S
O197 C204 1.247 . S
O198 Co196 2.091 . S
O198 C204 1.261 . S
C199 O208 1.247 . S
C199 O209 1.272 . S
O200 Co196 2.004 . S
O200 C205 1.259 . S
Co201 O202 2.061 . S
Co201 O207 2.052 . S
Co201 O209 2.135 . S
O202 Co201 2.061 . S
O202 C205 1.235 . S
C203 O206 1.238 . S
C203 O207 1.241 . S
C204 O197 1.247 . S
C204 O198 1.261 . S
C205 O200 1.259 . S
C205 O202 1.235 . S
O206 Co196 2.021 . S
O206 C203 1.238 . S
O207 Co201 2.052 . S
O207 C203 1.241 . S
O208 Co196 2.137 . S
O208 C199 1.247 . S
O209 Co196 2.244 . S
O209 C199 1.272 . S
O209 Co201 2.135 . S
Co210 O211 2.216 . S
Co210 O212 2.091 . S
Co210 O214 2.004 . S
Co210 O220 2.021 . S
Co210 O222 2.137 . S
Co210 O223 2.244 . S
O211 Co210 2.216 . S
O211 C218 1.247 . S
O212 Co210 2.091 . S
O212 C218 1.261 . S
C213 O222 1.247 . S
C213 O223 1.272 . S
O214 Co210 2.004 . S
O214 C219 1.259 . S
Co215 O216 2.061 . S
Co215 O221 2.052 . S
Co215 O223 2.135 . S
O216 Co215 2.061 . S
O216 C219 1.235 . S
C217 O220 1.238 . S
C217 O221 1.241 . S
C218 O211 1.247 . S
C218 O212 1.261 . S
C219 O214 1.259 . S
C219 O216 1.235 . S
O220 Co210 2.021 . S
O220 C217 1.238 . S
O221 Co215 2.052 . S
O221 C217 1.241 . S
O222 Co210 2.137 . S
O222 C213 1.247 . S
O223 Co210 2.244 . S
O223 C213 1.272 . S
O223 Co215 2.135 . S
Co224 O225 2.216 . S
Co224 O226 2.091 . S
Co224 O228 2.004 . S
Co224 O234 2.021 . S
Co224 O236 2.137 . S
Co224 O237 2.244 . S
O225 Co224 2.216 . S
O225 C232 1.247 . S
O226 Co224 2.091 . S
O226 C232 1.261 . S
C227 O236 1.247 . S
C227 O237 1.272 . S
O228 Co224 2.004 . S
O228 C233 1.259 . S
Co229 O230 2.061 . S
Co229 O235 2.052 . S
Co229 O237 2.135 . S
O230 Co229 2.061 . S
O230 C233 1.235 . S
C231 O234 1.238 . S
C231 O235 1.241 . S
C232 O225 1.247 . S
C232 O226 1.261 . S
C233 O228 1.259 . S
C233 O230 1.235 . S
O234 Co224 2.021 . S
O234 C231 1.238 . S
O235 Co229 2.052 . S
O235 C231 1.241 . S
O236 Co224 2.137 . S
O236 C227 1.247 . S
O237 Co224 2.244 . S
O237 C227 1.272 . S
O237 Co229 2.135 . S
Co238 O239 2.216 . S
Co238 O240 2.091 . S
Co238 O242 2.004 . S
Co238 O248 2.021 . S
Co238 O250 2.137 . S
Co238 O251 2.244 . S
O239 Co238 2.216 . S
O239 C246 1.247 . S
O240 Co238 2.091 . S
O240 C246 1.261 . S
C241 O250 1.247 . S
C241 O251 1.272 . S
O242 Co238 2.004 . S
O242 C247 1.259 . S
Co243 O244 2.061 . S
Co243 O249 2.052 . S
Co243 O251 2.135 . S
O244 Co243 2.061 . S
O244 C247 1.235 . S
C245 O248 1.238 . S
C245 O249 1.241 . S
C246 O239 1.247 . S
C246 O240 1.261 . S
C247 O242 1.259 . S
C247 O244 1.235 . S
O248 Co238 2.021 . S
O248 C245 1.238 . S
O249 Co243 2.052 . S
O249 C245 1.241 . S
O250 Co238 2.137 . S
O250 C241 1.247 . S
O251 Co238 2.244 . S
O251 C241 1.272 . S
O251 Co243 2.135 . S
Co252 O253 2.216 . S
Co252 O254 2.091 . S
Co252 O256 2.004 . S
Co252 O262 2.021 . S
Co252 O264 2.137 . S
Co252 O265 2.244 . S
O253 Co252 2.216 . S
O253 C260 1.247 . S
O254 Co252 2.091 . S
O254 C260 1.261 . S
C255 O264 1.247 . S
C255 O265 1.272 . S
O256 Co252 2.004 . S
O256 C261 1.259 . S
Co257 O258 2.061 . S
Co257 O263 2.052 . S
Co257 O265 2.135 . S
O258 Co257 2.061 . S
O258 C261 1.235 . S
C259 O262 1.238 . S
C259 O263 1.241 . S
C260 O253 1.247 . S
C260 O254 1.261 . S
C261 O256 1.259 . S
C261 O258 1.235 . S
O262 Co252 2.021 . S
O262 C259 1.238 . S
O263 Co257 2.052 . S
O263 C259 1.241 . S
O264 Co252 2.137 . S
O264 C255 1.247 . S
O265 Co252 2.244 . S
O265 C255 1.272 . S
O265 Co257 2.135 . S
Co266 O267 2.216 . S
Co266 O268 2.091 . S
Co266 O270 2.004 . S
Co266 O276 2.021 . S
Co266 O278 2.137 . S
Co266 O279 2.244 . S
O267 Co266 2.216 . S
O267 C274 1.247 . S
O268 Co266 2.091 . S
O268 C274 1.261 . S
C269 O278 1.247 . S
C269 O279 1.272 . S
O270 Co266 2.004 . S
O270 C275 1.259 . S
Co271 O272 2.061 . S
Co271 O277 2.052 . S
Co271 O279 2.135 . S
O272 Co271 2.061 . S
O272 C275 1.235 . S
C273 O276 1.238 . S
C273 O277 1.241 . S
C274 O267 1.247 . S
C274 O268 1.261 . S
C275 O270 1.259 . S
C275 O272 1.235 . S
O276 Co266 2.021 . S
O276 C273 1.238 . S
O277 Co271 2.052 . S
O277 C273 1.241 . S
O278 Co266 2.137 . S
O278 C269 1.247 . S
O279 Co266 2.244 . S
O279 C269 1.272 . S
O279 Co271 2.135 . S
Co280 O281 2.216 . S
Co280 O282 2.091 . S
Co280 O284 2.004 . S
Co280 O290 2.021 . S
Co280 O292 2.137 . S
Co280 O293 2.244 . S
O281 Co280 2.216 . S
O281 C288 1.247 . S
O282 Co280 2.091 . S
O282 C288 1.261 . S
C283 O292 1.247 . S
C283 O293 1.272 . S
O284 Co280 2.004 . S
O284 C289 1.259 . S
Co285 O286 2.061 . S
Co285 O291 2.052 . S
Co285 O293 2.135 . S
O286 Co285 2.061 . S
O286 C289 1.235 . S
C287 O290 1.238 . S
C287 O291 1.241 . S
C288 O281 1.247 . S
C288 O282 1.261 . S
C289 O284 1.259 . S
C289 O286 1.235 . S
O290 Co280 2.021 . S
O290 C287 1.238 . S
O291 Co285 2.052 . S
O291 C287 1.241 . S
O292 Co280 2.137 . S
O292 C283 1.247 . S
O293 Co280 2.244 . S
O293 C283 1.272 . S
O293 Co285 2.135 . S
Co294 O295 2.216 . S
Co294 O296 2.091 . S
Co294 O298 2.004 . S
Co294 O304 2.021 . S
Co294 O306 2.137 . S
Co294 O307 2.244 . S
O295 Co294 2.216 . S
O295 C302 1.247 . S
O296 Co294 2.091 . S
O296 C302 1.261 . S
C297 O306 1.247 . S
C297 O307 1.272 . S
O298 Co294 2.004 . S
O298 C303 1.259 . S
Co299 O300 2.061 . S
Co299 O305 2.052 . S
Co299 O307 2.135 . S
O300 Co299 2.061 . S
O300 C303 1.235 . S
C301 O304 1.238 . S
C301 O305 1.241 . S
C302 O295 1.247 . S
C302 O296 1.261 . S
C303 O298 1.259 . S
C303 O300 1.235 . S
O304 Co294 2.021 . S
O304 C301 1.238 . S
O305 Co299 2.052 . S
O305 C301 1.241 . S
O306 Co294 2.137 . S
O306 C297 1.247 . S
O307 Co294 2.244 . S
O307 C297 1.272 . S
O307 Co299 2.135 . S
Co308 O309 2.216 . S
Co308 O310 2.091 . S
Co308 O312 2.004 . S
Co308 O318 2.021 . S
Co308 O320 2.137 . S
Co308 O321 2.244 . S
O309 Co308 2.216 . S
O309 C316 1.247 . S
O310 Co308 2.091 . S
O310 C316 1.261 . S
C311 O320 1.247 . S
C311 O321 1.272 . S
O312 Co308 2.004 . S
O312 C317 1.259 . S
Co313 O314 2.061 . S
Co313 O319 2.052 . S
Co313 O321 2.135 . S
O314 Co313 2.061 . S
O314 C317 1.235 . S
C315 O318 1.238 . S
C315 O319 1.241 . S
C316 O309 1.247 . S
C316 O310 1.261 . S
C317 O312 1.259 . S
C317 O314 1.235 . S
O318 Co308 2.021 . S
O318 C315 1.238 . S
O319 Co313 2.052 . S
O319 C315 1.241 . S
O320 Co308 2.137 . S
O320 C311 1.247 . S
O321 Co308 2.244 . S
O321 C311 1.272 . S
O321 Co313 2.135 . S
Co322 O323 2.216 . S
Co322 O324 2.091 . S
Co322 O326 2.004 . S
Co322 O332 2.021 . S
Co322 O334 2.137 . S
Co322 O335 2.244 . S
O323 Co322 2.216 . S
O323 C330 1.247 . S
O324 Co322 2.091 . S
O324 C330 1.261 . S
C325 O334 1.247 . S
C325 O335 1.272 . S
O326 Co322 2.004 . S
O326 C331 1.259 . S
Co327 O328 2.061 . S
Co327 O333 2.052 . S
Co327 O335 2.135 . S
O328 Co327 2.061 . S
O328 C331 1.235 . S
C329 O332 1.238 . S
C329 O333 1.241 . S
C330 O323 1.247 . S
C330 O324 1.261 . S
C331 O326 1.259 . S
C331 O328 1.235 . S
O332 Co322 2.021 . S
O332 C329 1.238 . S
O333 Co327 2.052 . S
O333 C329 1.241 . S
O334 Co322 2.137 . S
O334 C325 1.247 . S
O335 Co322 2.244 . S
O335 C325 1.272 . S
O335 Co327 2.135 . S
Co336 O337 2.216 . S
Co336 O338 2.091 . S
Co336 O340 2.004 . S
Co336 O346 2.021 . S
Co336 O348 2.137 . S
Co336 O349 2.244 . S
O337 Co336 2.216 . S
O337 C344 1.247 . S
O338 Co336 2.091 . S
O338 C344 1.261 . S
C339 O348 1.247 . S
C339 O349 1.272 . S
O340 Co336 2.004 . S
O340 C345 1.259 . S
Co341 O342 2.061 . S
Co341 O347 2.052 . S
Co341 O349 2.135 . S
O342 Co341 2.061 . S
O342 C345 1.235 . S
C343 O346 1.238 . S
C343 O347 1.241 . S
C344 O337 1.247 . S
C344 O338 1.261 . S
C345 O340 1.259 . S
C345 O342 1.235 . S
O346 Co336 2.021 . S
O346 C343 1.238 . S
O347 Co341 2.052 . S
O347 C343 1.241 . S
O348 Co336 2.137 . S
O348 C339 1.247 . S
O349 Co336 2.244 . S
O349 C339 1.272 . S
O349 Co341 2.135 . S
Co350 O351 2.216 . S
Co350 O352 2.091 . S
Co350 O354 2.004 . S
Co350 O360 2.021 . S
Co350 O362 2.137 . S
Co350 O363 2.244 . S
O351 Co350 2.216 . S
O351 C358 1.247 . S
O352 Co350 2.091 . S
O352 C358 1.261 . S
C353 O362 1.247 . S
C353 O363 1.272 . S
O354 Co350 2.004 . S
O354 C359 1.259 . S
Co355 O356 2.061 . S
Co355 O361 2.052 . S
Co355 O363 2.135 . S
O356 Co355 2.061 . S
O356 C359 1.235 . S
C357 O360 1.238 . S
C357 O361 1.241 . S
C358 O351 1.247 . S
C358 O352 1.261 . S
C359 O354 1.259 . S
C359 O356 1.235 . S
O360 Co350 2.021 . S
O360 C357 1.238 . S
O361 Co355 2.052 . S
O361 C357 1.241 . S
O362 Co350 2.137 . S
O362 C353 1.247 . S
O363 Co350 2.244 . S
O363 C353 1.272 . S
O363 Co355 2.135 . S
Co364 O365 2.216 . S
Co364 O366 2.091 . S
Co364 O368 2.004 . S
Co364 O374 2.021 . S
Co364 O376 2.137 . S
Co364 O377 2.244 . S
O365 Co364 2.216 . S
O365 C372 1.247 . S
O366 Co364 2.091 . S
O366 C372 1.261 . S
C367 O376 1.247 . S
C367 O377 1.272 . S
O368 Co364 2.004 . S
O368 C373 1.259 . S
Co369 O370 2.061 . S
Co369 O375 2.052 . S
Co369 O377 2.135 . S
O370 Co369 2.061 . S
O370 C373 1.235 . S
C371 O374 1.238 . S
C371 O375 1.241 . S
C372 O365 1.247 . S
C372 O366 1.261 . S
C373 O368 1.259 . S
C373 O370 1.235 . S
O374 Co364 2.021 . S
O374 C371 1.238 . S
O375 Co369 2.052 . S
O375 C371 1.241 . S
O376 Co364 2.137 . S
O376 C367 1.247 . S
O377 Co364 2.244 . S
O377 C367 1.272 . S
O377 Co369 2.135 . S
Co378 O379 2.216 . S
Co378 O380 2.091 . S
Co378 O382 2.004 . S
Co378 O388 2.021 . S
Co378 O390 2.137 . S
Co378 O391 2.244 . S
O379 Co378 2.216 . S
O379 C386 1.247 . S
O380 Co378 2.091 . S
O380 C386 1.261 . S
C381 O390 1.247 . S
C381 O391 1.272 . S
O382 Co378 2.004 . S
O382 C387 1.259 . S
Co383 O384 2.061 . S
Co383 O389 2.052 . S
Co383 O391 2.135 . S
O384 Co383 2.061 . S
O384 C387 1.235 . S
C385 O388 1.238 . S
C385 O389 1.241 . S
C386 O379 1.247 . S
C386 O380 1.261 . S
C387 O382 1.259 . S
C387 O384 1.235 . S
O388 Co378 2.021 . S
O388 C385 1.238 . S
O389 Co383 2.052 . S
O389 C385 1.241 . S
O390 Co378 2.137 . S
O390 C381 1.247 . S
O391 Co378 2.244 . S
O391 C381 1.272 . S
O391 Co383 2.135 . S
Co392 O393 2.216 . S
Co392 O394 2.091 . S
Co392 O396 2.004 . S
Co392 O402 2.021 . S
Co392 O404 2.137 . S
Co392 O405 2.244 . S
O393 Co392 2.216 . S
O393 C400 1.247 . S
O394 Co392 2.091 . S
O394 C400 1.261 . S
C395 O404 1.247 . S
C395 O405 1.272 . S
O396 Co392 2.004 . S
O396 C401 1.259 . S
Co397 O398 2.061 . S
Co397 O403 2.052 . S
Co397 O405 2.135 . S
O398 Co397 2.061 . S
O398 C401 1.235 . S
C399 O402 1.238 . S
C399 O403 1.241 . S
C400 O393 1.247 . S
C400 O394 1.261 . S
C401 O396 1.259 . S
C401 O398 1.235 . S
O402 Co392 2.021 . S
O402 C399 1.238 . S
O403 Co397 2.052 . S
O403 C399 1.241 . S
O404 Co392 2.137 . S
O404 C395 1.247 . S
O405 Co392 2.244 . S
O405 C395 1.272 . S
O405 Co397 2.135 . S
Co406 O407 2.216 . S
Co406 O408 2.091 . S
Co406 O410 2.004 . S
Co406 O416 2.021 . S
Co406 O418 2.137 . S
Co406 O419 2.244 . S
O407 Co406 2.216 . S
O407 C414 1.247 . S
O408 Co406 2.091 . S
O408 C414 1.261 . S
C409 O418 1.247 . S
C409 O419 1.272 . S
O410 Co406 2.004 . S
O410 C415 1.259 . S
Co411 O412 2.061 . S
Co411 O417 2.052 . S
Co411 O419 2.135 . S
O412 Co411 2.061 . S
O412 C415 1.235 . S
C413 O416 1.238 . S
C413 O417 1.241 . S
C414 O407 1.247 . S
C414 O408 1.261 . S
C415 O410 1.259 . S
C415 O412 1.235 . S
O416 Co406 2.021 . S
O416 C413 1.238 . S
O417 Co411 2.052 . S
O417 C413 1.241 . S
O418 Co406 2.137 . S
O418 C409 1.247 . S
O419 Co406 2.244 . S
O419 C409 1.272 . S
O419 Co411 2.135 . S
Co420 O421 2.216 . S
Co420 O422 2.091 . S
Co420 O424 2.004 . S
Co420 O430 2.021 . S
Co420 O432 2.137 . S
Co420 O433 2.244 . S
O421 Co420 2.216 . S
O421 C428 1.247 . S
O422 Co420 2.091 . S
O422 C428 1.261 . S
C423 O432 1.247 . S
C423 O433 1.272 . S
O424 Co420 2.004 . S
O424 C429 1.259 . S
Co425 O426 2.061 . S
Co425 O431 2.052 . S
Co425 O433 2.135 . S
O426 Co425 2.061 . S
O426 C429 1.235 . S
C427 O430 1.238 . S
C427 O431 1.241 . S
C428 O421 1.247 . S
C428 O422 1.261 . S
C429 O424 1.259 . S
C429 O426 1.235 . S
O430 Co420 2.021 . S
O430 C427 1.238 . S
O431 Co425 2.052 . S
O431 C427 1.241 . S
O432 Co420 2.137 . S
O432 C423 1.247 . S
O433 Co420 2.244 . S
O433 C423 1.272 . S
O433 Co425 2.135 . S
Co434 O435 2.216 . S
Co434 O436 2.091 . S
Co434 O438 2.004 . S
Co434 O444 2.021 . S
Co434 O446 2.137 . S
Co434 O447 2.244 . S
O435 Co434 2.216 . S
O435 C442 1.247 . S
O436 Co434 2.091 . S
O436 C442 1.261 . S
C437 O446 1.247 . S
C437 O447 1.272 . S
O438 Co434 2.004 . S
O438 C443 1.259 . S
Co439 O440 2.061 . S
Co439 O445 2.052 . S
Co439 O447 2.135 . S
O440 Co439 2.061 . S
O440 C443 1.235 . S
C441 O444 1.238 . S
C441 O445 1.241 . S
C442 O435 1.247 . S
C442 O436 1.261 . S
C443 O438 1.259 . S
C443 O440 1.235 . S
O444 Co434 2.021 . S
O444 C441 1.238 . S
O445 Co439 2.052 . S
O445 C441 1.241 . S
O446 Co434 2.137 . S
O446 C437 1.247 . S
O447 Co434 2.244 . S
O447 C437 1.272 . S
O447 Co439 2.135 . S
H448 C466 0.951 . S
H449 C468 0.951 1_545 S
H450 C470 0.950 . S
H451 C471 0.950 . S
H452 C473 0.950 . S
H453 C476 0.950 . S
H454 C477 0.950 . S
H455 C479 0.950 . S
H456 C480 0.950 . S
H457 C481 0.951 . S
H458 C483 0.951 1_565 S
H459 C485 0.950 . S
H460 C486 0.950 . S
H461 C488 0.950 . S
H462 C491 0.950 . S
H463 C492 0.950 . S
H464 C494 0.950 . S
H465 C495 0.950 . S
C466 H448 0.951 . S
C466 C467 1.366 . S
C466 C468 1.388 . S
C467 C466 1.366 . S
C467 C471 1.385 . S
C468 H449 0.951 1_565 S
C468 C466 1.388 . S
C468 C469 1.366 . S
C469 C468 1.366 . S
C469 C470 1.414 . S
C469 C472 1.499 . S
C470 H450 0.950 . S
C470 C469 1.414 . S
C470 C471 1.374 . S
C471 H451 0.950 . S
C471 C467 1.385 . S
C471 C470 1.374 . S
C472 C469 1.499 . S
C472 C473 1.373 . S
C472 C474 1.389 1_565 S
C473 H452 0.950 . S
C473 C472 1.373 . S
C473 C489 1.377 . S
C474 C472 1.389 1_545 S
C474 C475 1.524 . S
C474 C488 1.377 . S
C475 C474 1.524 . S
C475 C476 1.397 . S
C475 C480 1.363 . S
C476 H453 0.950 . S
C476 C475 1.397 . S
C476 C477 1.334 . S
C477 H454 0.950 . S
C477 C476 1.334 . S
C477 C478 1.287 . S
C478 C477 1.287 . S
C478 C479 1.524 . S
C478 H497 0.913 . S
C479 H455 0.950 . S
C479 C478 1.524 . S
C479 C480 1.415 . S
C480 H456 0.950 . S
C480 C475 1.363 . S
C480 C479 1.415 . S
C481 H457 0.951 . S
C481 C482 1.366 . S
C481 C483 1.388 . S
C482 C481 1.366 . S
C482 C486 1.385 . S
C483 H458 0.951 1_545 S
C483 C481 1.388 . S
C483 C484 1.366 . S
C484 C483 1.366 . S
C484 C485 1.414 . S
C484 C487 1.499 . S
C485 H459 0.950 . S
C485 C484 1.414 . S
C485 C486 1.374 . S
C486 H460 0.950 . S
C486 C482 1.385 . S
C486 C485 1.374 . S
C487 C484 1.499 . S
C487 C488 1.373 . S
C487 C489 1.389 1_545 S
C488 H461 0.950 . S
C488 C474 1.377 . S
C488 C487 1.373 . S
C489 C473 1.377 . S
C489 C487 1.389 1_565 S
C489 C490 1.524 . S
C490 C489 1.524 . S
C490 C491 1.397 . S
C490 C495 1.363 . S
C491 H462 0.950 . S
C491 C490 1.397 . S
C491 C492 1.334 . S
C492 H463 0.950 . S
C492 C491 1.334 . S
C492 C493 1.287 . S
C493 C492 1.287 . S
C493 C494 1.524 . S
C493 H496 0.999 . S
C494 H464 0.950 . S
C494 C493 1.524 . S
C494 C495 1.415 . S
C495 H465 0.950 . S
C495 C490 1.363 . S
C495 C494 1.415 . S
H496 C493 0.999 . S
H497 C478 0.913 . S
H498 C516 0.951 . S
H499 C518 0.951 . S
H500 C520 0.950 . S
H501 C521 0.950 . S
H502 C523 0.950 . S
H503 C526 0.950 . S
H504 C527 0.950 . S
H505 C529 0.950 . S
H506 C530 0.950 . S
H507 C531 0.951 . S
H508 C533 0.951 . S
H509 C535 0.950 . S
H510 C536 0.950 . S
H511 C538 0.950 . S
H512 C541 0.950 . S
H513 C542 0.950 . S
H514 C544 0.950 . S
H515 C545 0.950 . S
C516 H498 0.951 . S
C516 C517 1.366 . S
C516 C518 1.388 . S
C517 C516 1.366 . S
C517 C521 1.385 . S
C518 H499 0.951 . S
C518 C516 1.388 . S
C518 C519 1.366 . S
C519 C518 1.366 . S
C519 C520 1.414 . S
C519 C522 1.499 . S
C520 H500 0.950 . S
C520 C519 1.414 . S
C520 C521 1.374 . S
C521 H501 0.950 . S
C521 C517 1.385 . S
C521 C520 1.374 . S
C522 C519 1.499 . S
C522 C523 1.373 . S
C522 C524 1.389 . S
C523 H502 0.950 . S
C523 C522 1.373 . S
C523 C539 1.377 . S
C524 C522 1.389 . S
C524 C525 1.524 . S
C524 C538 1.377 . S
C525 C524 1.524 . S
C525 C526 1.397 . S
C525 C530 1.363 . S
C526 H503 0.950 . S
C526 C525 1.397 . S
C526 C527 1.334 . S
C527 H504 0.950 . S
C527 C526 1.334 . S
C527 C528 1.287 . S
C528 C527 1.287 . S
C528 C529 1.524 . S
C528 H547 0.913 . S
C529 H505 0.950 . S
C529 C528 1.524 . S
C529 C530 1.415 . S
C530 H506 0.950 . S
C530 C525 1.363 . S
C530 C529 1.415 . S
C531 H507 0.951 . S
C531 C532 1.366 . S
C531 C533 1.388 . S
C532 C531 1.366 . S
C532 C536 1.385 . S
C533 H508 0.951 . S
C533 C531 1.388 . S
C533 C534 1.366 . S
C534 C533 1.366 . S
C534 C535 1.414 . S
C534 C537 1.499 . S
C535 H509 0.950 . S
C535 C534 1.414 . S
C535 C536 1.374 . S
C536 H510 0.950 . S
C536 C532 1.385 . S
C536 C535 1.374 . S
C537 C534 1.499 . S
C537 C538 1.373 . S
C537 C539 1.389 . S
C538 H511 0.950 . S
C538 C524 1.377 . S
C538 C537 1.373 . S
C539 C523 1.377 . S
C539 C537 1.389 . S
C539 C540 1.524 . S
C540 C539 1.524 . S
C540 C541 1.397 . S
C540 C545 1.363 . S
C541 H512 0.950 . S
C541 C540 1.397 . S
C541 C542 1.334 . S
C542 H513 0.950 . S
C542 C541 1.334 . S
C542 C543 1.287 . S
C543 C542 1.287 . S
C543 C544 1.524 . S
C543 H546 0.999 . S
C544 H514 0.950 . S
C544 C543 1.524 . S
C544 C545 1.415 . S
C545 H515 0.950 . S
C545 C540 1.363 . S
C545 C544 1.415 . S
H546 C543 0.999 . S
H547 C528 0.913 . S
H548 C566 0.951 . S
H549 C568 0.951 . S
H550 C570 0.950 1_565 S
H551 C571 0.942 1_565 S
H552 C573 0.950 . S
H553 C576 0.950 . S
H554 C577 0.950 . S
H555 C579 0.927 1_655 S
H556 C580 0.950 . S
H557 C581 0.951 . S
H558 C583 0.951 . S
H559 C585 0.950 1_545 S
H560 C586 0.942 1_545 S
H561 C588 0.950 . S
H562 C591 0.950 . S
H563 C592 0.950 . S
H564 C594 0.950 . S
H565 C595 0.950 . S
C566 H548 0.951 . S
C566 C567 1.366 . S
C566 C568 1.388 . S
C567 C566 1.366 . S
C567 C571 1.385 . S
C568 H549 0.951 . S
C568 C566 1.388 . S
C568 C569 1.366 . S
C569 C568 1.366 . S
C569 C570 1.414 . S
C569 C572 1.499 . S
C570 H550 0.950 1_545 S
C570 C569 1.414 . S
C570 C571 1.374 . S
C571 H551 0.942 1_545 S
C571 C567 1.385 . S
C571 C570 1.374 . S
C572 C569 1.499 . S
C572 C573 1.373 1_545 S
C572 C574 1.389 . S
C573 H552 0.950 . S
C573 C572 1.373 1_565 S
C573 C589 1.377 . S
C574 C572 1.389 . S
C574 C575 1.524 . S
C574 C588 1.377 . S
C575 C574 1.524 . S
C575 C576 1.397 1_545 S
C575 C580 1.363 . S
C576 H553 0.950 . S
C576 C575 1.397 1_565 S
C576 C577 1.334 . S
C577 H554 0.950 . S
C577 C576 1.334 . S
C577 C578 1.287 1_565 S
C578 C577 1.287 1_545 S
C578 C579 1.524 . S
C578 H597 0.913 1_455 S
C579 H555 0.927 1_455 S
C579 C578 1.524 . S
C579 C580 1.415 . S
C580 H556 0.950 . S
C580 C575 1.363 . S
C580 C579 1.415 . S
C581 H557 0.951 . S
C581 C582 1.366 . S
C581 C583 1.388 . S
C582 C581 1.366 . S
C582 C586 1.385 . S
C583 H558 0.951 . S
C583 C581 1.388 . S
C583 C584 1.366 . S
C584 C583 1.366 . S
C584 C585 1.414 . S
C584 C587 1.499 . S
C585 H559 0.950 1_565 S
C585 C584 1.414 . S
C585 C586 1.374 . S
C586 H560 0.942 1_565 S
C586 C582 1.385 . S
C586 C585 1.374 . S
C587 C584 1.499 . S
C587 C588 1.373 1_565 S
C587 C589 1.389 . S
C588 H561 0.950 . S
C588 C574 1.377 . S
C588 C587 1.373 1_545 S
C589 C573 1.377 . S
C589 C587 1.389 . S
C589 C590 1.524 . S
C590 C589 1.524 . S
C590 C591 1.397 1_565 S
C590 C595 1.363 . S
C591 H562 0.950 . S
C591 C590 1.397 1_545 S
C591 C592 1.334 . S
C592 H563 0.950 . S
C592 C591 1.334 . S
C592 C593 1.287 1_545 S
C593 C592 1.287 1_565 S
C593 C594 1.524 . S
C593 H596 0.999 . S
C594 H564 0.950 . S
C594 C593 1.524 . S
C594 C595 1.415 . S
C595 H565 0.950 . S
C595 C590 1.363 . S
C595 C594 1.415 . S
H596 C593 0.999 . S
H597 C578 0.913 1_655 S
H598 C616 0.951 . S
H599 C618 0.951 . S
H600 C620 0.950 . S
H601 C621 0.950 . S
H602 C623 0.950 . S
H603 C626 0.950 . S
H604 C627 0.950 . S
H605 C629 0.950 . S
H606 C630 0.950 . S
H607 C631 0.951 . S
H608 C633 0.951 . S
H609 C635 0.950 . S
H610 C636 0.950 . S
H611 C638 0.950 . S
H612 C641 0.950 . S
H613 C642 0.950 . S
H614 C644 0.950 . S
H615 C645 0.950 . S
C616 H598 0.951 . S
C616 C617 1.366 . S
C616 C618 1.388 . S
C617 C616 1.366 . S
C617 C621 1.385 . S
C618 H599 0.951 . S
C618 C616 1.388 . S
C618 C619 1.366 . S
C619 C618 1.366 . S
C619 C620 1.414 . S
C619 C622 1.499 . S
C620 H600 0.950 . S
C620 C619 1.414 . S
C620 C621 1.374 . S
C621 H601 0.950 . S
C621 C617 1.385 . S
C621 C620 1.374 . S
C622 C619 1.499 . S
C622 C623 1.373 . S
C622 C624 1.389 . S
C623 H602 0.950 . S
C623 C622 1.373 . S
C623 C639 1.377 1_556 S
C624 C622 1.389 . S
C624 C625 1.524 . S
C624 C638 1.377 1_556 S
C625 C624 1.524 . S
C625 C626 1.397 . S
C625 C630 1.363 . S
C626 H603 0.950 . S
C626 C625 1.397 . S
C626 C627 1.334 . S
C627 H604 0.950 . S
C627 C626 1.334 . S
C627 C628 1.287 . S
C628 C627 1.287 . S
C628 C629 1.524 . S
C628 H647 0.913 . S
C629 H605 0.950 . S
C629 C628 1.524 . S
C629 C630 1.415 . S
C630 H606 0.950 . S
C630 C625 1.363 . S
C630 C629 1.415 . S
C631 H607 0.951 . S
C631 C632 1.366 . S
C631 C633 1.388 . S
C632 C631 1.366 . S
C632 C636 1.385 . S
C633 H608 0.951 . S
C633 C631 1.388 . S
C633 C634 1.366 . S
C634 C633 1.366 . S
C634 C635 1.414 . S
C634 C637 1.499 . S
C635 H609 0.950 . S
C635 C634 1.414 . S
C635 C636 1.374 . S
C636 H610 0.950 . S
C636 C632 1.385 . S
C636 C635 1.374 . S
C637 C634 1.499 . S
C637 C638 1.373 . S
C637 C639 1.389 . S
C638 H611 0.950 . S
C638 C624 1.377 1_554 S
C638 C637 1.373 . S
C639 C623 1.377 1_554 S
C639 C637 1.389 . S
C639 C640 1.524 . S
C640 C639 1.524 . S
C640 C641 1.397 . S
C640 C645 1.363 . S
C641 H612 0.950 . S
C641 C640 1.397 . S
C641 C642 1.334 . S
C642 H613 0.950 . S
C642 C641 1.334 . S
C642 C643 1.287 . S
C643 C642 1.287 . S
C643 C644 1.524 . S
C643 H646 0.999 . S
C644 H614 0.950 . S
C644 C643 1.524 . S
C644 C645 1.415 . S
C645 H615 0.950 . S
C645 C640 1.363 . S
C645 C644 1.415 . S
H646 C643 0.999 . S
H647 C628 0.913 . S
H648 C666 0.951 . S
H649 C668 0.951 . S
H650 C670 0.950 . S
H651 C671 0.950 . S
H652 C673 0.950 . S
H653 C676 0.950 . S
H654 C677 0.950 . S
H655 C679 0.950 . S
H656 C680 0.950 . S
H657 C681 0.951 . S
H658 C683 0.951 . S
H659 C685 0.950 . S
H660 C686 0.950 . S
H661 C688 0.950 . S
H662 C691 0.950 . S
H663 C692 0.950 . S
H664 C694 0.950 . S
H665 C695 0.950 . S
C666 H648 0.951 . S
C666 C667 1.366 . S
C666 C668 1.388 . S
C667 C666 1.366 . S
C667 C671 1.385 . S
C668 H649 0.951 . S
C668 C666 1.388 . S
C668 C669 1.366 . S
C669 C668 1.366 . S
C669 C670 1.414 . S
C669 C672 1.499 . S
C670 H650 0.950 . S
C670 C669 1.414 . S
C670 C671 1.374 . S
C671 H651 0.950 . S
C671 C667 1.385 . S
C671 C670 1.374 . S
C672 C669 1.499 . S
C672 C673 1.373 . S
C672 C674 1.389 1_565 S
C673 H652 0.950 . S
C673 C672 1.373 . S
C673 C689 1.377 . S
C674 C672 1.389 1_545 S
C674 C675 1.524 . S
C674 C688 1.377 . S
C675 C674 1.524 . S
C675 C676 1.397 . S
C675 C680 1.363 . S
C676 H653 0.950 . S
C676 C675 1.397 . S
C676 C677 1.334 . S
C677 H654 0.950 . S
C677 C676 1.334 . S
C677 C678 1.287 . S
C678 C677 1.287 . S
C678 C679 1.524 . S
C678 H697 0.913 . S
C679 H655 0.950 . S
C679 C678 1.524 . S
C679 C680 1.415 . S
C680 H656 0.950 . S
C680 C675 1.363 . S
C680 C679 1.415 . S
C681 H657 0.951 . S
C681 C682 1.366 . S
C681 C683 1.388 . S
C682 C681 1.366 . S
C682 C686 1.385 . S
C683 H658 0.951 . S
C683 C681 1.388 . S
C683 C684 1.366 . S
C684 C683 1.366 . S
C684 C685 1.414 . S
C684 C687 1.499 . S
C685 H659 0.950 . S
C685 C684 1.414 . S
C685 C686 1.374 . S
C686 H660 0.950 . S
C686 C682 1.385 . S
C686 C685 1.374 . S
C687 C684 1.499 . S
C687 C688 1.373 . S
C687 C689 1.389 1_545 S
C688 H661 0.950 . S
C688 C674 1.377 . S
C688 C687 1.373 . S
C689 C673 1.377 . S
C689 C687 1.389 1_565 S
C689 C690 1.524 . S
C690 C689 1.524 . S
C690 C691 1.397 . S
C690 C695 1.363 . S
C691 H662 0.950 . S
C691 C690 1.397 . S
C691 C692 1.334 . S
C692 H663 0.950 . S
C692 C691 1.334 . S
C692 C693 1.287 . S
C693 C692 1.287 . S
C693 C694 1.524 . S
C693 H696 0.999 . S
C694 H664 0.950 . S
C694 C693 1.524 . S
C694 C695 1.415 . S
C695 H665 0.950 . S
C695 C690 1.363 . S
C695 C694 1.415 . S
H696 C693 0.999 . S
H697 C678 0.913 . S
H698 C716 0.951 . S
H699 C718 0.951 . S
H700 C720 0.950 . S
H701 C721 0.950 . S
H702 C723 0.950 . S
H703 C726 0.950 . S
H704 C727 0.950 . S
H705 C729 0.950 . S
H706 C730 0.950 . S
H707 C731 0.951 . S
H708 C733 0.951 . S
H709 C735 0.950 . S
H710 C736 0.950 . S
H711 C738 0.950 . S
H712 C741 0.950 . S
H713 C742 0.950 . S
H714 C744 0.950 . S
H715 C745 0.950 . S
C716 H698 0.951 . S
C716 C717 1.366 . S
C716 C718 1.388 . S
C717 C716 1.366 . S
C717 C721 1.385 . S
C718 H699 0.951 . S
C718 C716 1.388 . S
C718 C719 1.366 . S
C719 C718 1.366 . S
C719 C720 1.414 . S
C719 C722 1.499 . S
C720 H700 0.950 . S
C720 C719 1.414 . S
C720 C721 1.374 . S
C721 H701 0.950 . S
C721 C717 1.385 . S
C721 C720 1.374 . S
C722 C719 1.499 . S
C722 C723 1.373 . S
C722 C724 1.389 . S
C723 H702 0.950 . S
C723 C722 1.373 . S
C723 C739 1.377 . S
C724 C722 1.389 . S
C724 C725 1.524 . S
C724 C738 1.377 . S
C725 C724 1.524 . S
C725 C726 1.397 . S
C725 C730 1.363 . S
C726 H703 0.950 . S
C726 C725 1.397 . S
C726 C727 1.334 . S
C727 H704 0.950 . S
C727 C726 1.334 . S
C727 C728 1.287 . S
C728 C727 1.287 . S
C728 C729 1.524 . S
C728 H747 0.913 . S
C729 H705 0.950 . S
C729 C728 1.524 . S
C729 C730 1.415 . S
C730 H706 0.950 . S
C730 C725 1.363 . S
C730 C729 1.415 . S
C731 H707 0.951 . S
C731 C732 1.366 . S
C731 C733 1.388 . S
C732 C731 1.366 . S
C732 C736 1.385 . S
C733 H708 0.951 . S
C733 C731 1.388 . S
C733 C734 1.366 . S
C734 C733 1.366 . S
C734 C735 1.414 . S
C734 C737 1.499 . S
C735 H709 0.950 . S
C735 C734 1.414 . S
C735 C736 1.374 . S
C736 H710 0.950 . S
C736 C732 1.385 . S
C736 C735 1.374 . S
C737 C734 1.499 . S
C737 C738 1.373 . S
C737 C739 1.389 . S
C738 H711 0.950 . S
C738 C724 1.377 . S
C738 C737 1.373 . S
C739 C723 1.377 . S
C739 C737 1.389 . S
C739 C740 1.524 . S
C740 C739 1.524 . S
C740 C741 1.397 . S
C740 C745 1.363 . S
C741 H712 0.950 . S
C741 C740 1.397 . S
C741 C742 1.334 . S
C742 H713 0.950 . S
C742 C741 1.334 . S
C742 C743 1.287 . S
C743 C742 1.287 . S
C743 C744 1.524 . S
C743 H746 0.999 . S
C744 H714 0.950 . S
C744 C743 1.524 . S
C744 C745 1.415 . S
C745 H715 0.950 . S
C745 C740 1.363 . S
C745 C744 1.415 . S
H746 C743 0.999 . S
H747 C728 0.913 . S
H748 C766 0.951 1_565 S
H749 C768 0.951 1_565 S
H750 C770 0.950 . S
H751 C771 0.950 . S
H752 C773 0.950 . S
H753 C776 0.950 . S
H754 C777 0.950 . S
H755 C779 0.950 . S
H756 C780 0.950 . S
H757 C781 0.951 1_545 S
H758 C783 0.951 1_545 S
H759 C785 0.950 . S
H760 C786 0.950 . S
H761 C788 0.950 . S
H762 C791 0.950 . S
H763 C792 0.950 . S
H764 C794 0.950 . S
H765 C795 0.950 . S
C766 H748 0.951 1_545 S
C766 C767 1.366 . S
C766 C768 1.388 . S
C767 C766 1.366 . S
C767 C771 1.385 . S
C768 H749 0.951 1_545 S
C768 C766 1.388 . S
C768 C769 1.366 . S
C769 C768 1.366 . S
C769 C770 1.414 . S
C769 C772 1.499 . S
C770 H750 0.950 . S
C770 C769 1.414 . S
C770 C771 1.374 . S
C771 H751 0.950 . S
C771 C767 1.385 . S
C771 C770 1.374 . S
C772 C769 1.499 . S
C772 C773 1.373 . S
C772 C774 1.385 1_545 S
C773 H752 0.950 . S
C773 C772 1.373 . S
C773 C789 1.381 . S
C774 C772 1.385 1_565 S
C774 C775 1.524 1_565 S
C774 C788 1.381 . S
C775 C774 1.524 1_545 S
C775 C776 1.404 . S
C775 C780 1.356 1_545 S
C776 H753 0.950 . S
C776 C775 1.404 . S
C776 C777 1.334 . S
C777 H754 0.950 . S
C777 C776 1.334 . S
C777 C778 1.287 . S
C778 C777 1.287 . S
C778 C779 1.524 1_545 S
C778 H797 0.913 1_655 S
C779 H755 0.950 . S
C779 C778 1.524 1_565 S
C779 C780 1.415 . S
C780 H756 0.950 . S
C780 C775 1.356 1_565 S
C780 C779 1.415 . S
C781 H757 0.951 1_565 S
C781 C782 1.366 . S
C781 C783 1.388 . S
C782 C781 1.366 . S
C782 C786 1.385 . S
C783 H758 0.951 1_565 S
C783 C781 1.388 . S
C783 C784 1.366 . S
C784 C783 1.366 . S
C784 C785 1.414 . S
C784 C787 1.499 . S
C785 H759 0.950 . S
C785 C784 1.414 . S
C785 C786 1.374 . S
C786 H760 0.950 . S
C786 C782 1.385 . S
C786 C785 1.374 . S
C787 C784 1.499 . S
C787 C788 1.373 . S
C787 C789 1.385 1_565 S
C788 H761 0.950 . S
C788 C774 1.381 . S
C788 C787 1.373 . S
C789 C773 1.381 . S
C789 C787 1.385 1_545 S
C789 C790 1.524 1_545 S
C790 C789 1.524 1_565 S
C790 C791 1.404 . S
C790 C795 1.356 1_565 S
C791 H762 0.950 . S
C791 C790 1.404 . S
C791 C792 1.334 . S
C792 H763 0.950 . S
C792 C791 1.334 . S
C792 C793 1.287 . S
C793 C792 1.287 . S
C793 C794 1.524 1_565 S
C793 H796 0.999 . S
C794 H764 0.950 . S
C794 C793 1.524 1_545 S
C794 C795 1.415 . S
C795 H765 0.950 . S
C795 C790 1.356 1_545 S
C795 C794 1.415 . S
H796 C793 0.999 . S
H797 C778 0.913 1_455 S
H798 C816 0.951 . S
H799 C818 0.951 . S
H800 C820 0.950 . S
H801 C821 0.950 . S
H802 C823 0.950 . S
H803 C826 0.950 . S
H804 C827 0.950 . S
H805 C829 0.947 . S
H806 C830 0.950 1_554 S
H807 C831 0.951 . S
H808 C833 0.951 . S
H809 C835 0.950 . S
H810 C836 0.950 . S
H811 C838 0.950 . S
H812 C841 0.950 . S
H813 C842 0.950 . S
H814 C844 0.947 . S
H815 C845 0.950 1_556 S
C816 H798 0.951 . S
C816 C817 1.366 . S
C816 C818 1.388 . S
C817 C816 1.366 . S
C817 C821 1.385 . S
C818 H799 0.951 . S
C818 C816 1.388 . S
C818 C819 1.366 . S
C819 C818 1.366 . S
C819 C820 1.414 . S
C819 C822 1.499 . S
C820 H800 0.950 . S
C820 C819 1.414 . S
C820 C821 1.374 . S
C821 H801 0.950 . S
C821 C817 1.385 . S
C821 C820 1.374 . S
C822 C819 1.499 . S
C822 C823 1.373 . S
C822 C824 1.389 . S
C823 H802 0.950 . S
C823 C822 1.373 . S
C823 C839 1.377 1_556 S
C824 C822 1.389 . S
C824 C825 1.524 . S
C824 C838 1.377 1_556 S
C825 C824 1.524 . S
C825 C826 1.397 . S
C825 C830 1.363 . S
C826 H803 0.950 . S
C826 C825 1.397 . S
C826 C827 1.334 . S
C827 H804 0.950 . S
C827 C826 1.334 . S
C827 C828 1.287 . S
C828 C827 1.287 . S
C828 C829 1.524 . S
C828 H847 0.913 . S
C829 H805 0.947 . S
C829 C828 1.524 . S
C829 C830 1.415 . S
C830 H806 0.950 1_556 S
C830 C825 1.363 . S
C830 C829 1.415 . S
C831 H807 0.951 . S
C831 C832 1.366 . S
C831 C833 1.388 . S
C832 C831 1.366 . S
C832 C836 1.385 . S
C833 H808 0.951 . S
C833 C831 1.388 . S
C833 C834 1.366 . S
C834 C833 1.366 . S
C834 C835 1.414 . S
C834 C837 1.499 . S
C835 H809 0.950 . S
C835 C834 1.414 . S
C835 C836 1.374 . S
C836 H810 0.950 . S
C836 C832 1.385 . S
C836 C835 1.374 . S
C837 C834 1.499 . S
C837 C838 1.373 . S
C837 C839 1.389 . S
C838 H811 0.950 . S
C838 C824 1.377 1_554 S
C838 C837 1.373 . S
C839 C823 1.377 1_554 S
C839 C837 1.389 . S
C839 C840 1.524 . S
C840 C839 1.524 . S
C840 C841 1.397 . S
C840 C845 1.363 . S
C841 H812 0.950 . S
C841 C840 1.397 . S
C841 C842 1.334 . S
C842 H813 0.950 . S
C842 C841 1.334 . S
C842 C843 1.287 . S
C843 C842 1.287 . S
C843 C844 1.524 . S
C843 H846 0.999 . S
C844 H814 0.947 . S
C844 C843 1.524 . S
C844 C845 1.415 . S
C845 H815 0.950 1_554 S
C845 C840 1.363 . S
C845 C844 1.415 . S
H846 C843 0.999 . S
H847 C828 0.913 . S
H848 C866 0.951 . S
H849 C868 0.951 . S
H850 C870 0.950 . S
H851 C871 0.950 . S
H852 C873 0.950 . S
H853 C876 0.950 . S
H854 C877 0.950 . S
H855 C879 0.950 . S
H856 C880 0.950 . S
H857 C881 0.951 . S
H858 C883 0.951 . S
H859 C885 0.950 . S
H860 C886 0.950 . S
H861 C888 0.950 . S
H862 C891 0.950 . S
H863 C892 0.950 . S
H864 C894 0.950 . S
H865 C895 0.950 . S
C866 H848 0.951 . S
C866 C867 1.366 . S
C866 C868 1.388 . S
C867 C866 1.366 . S
C867 C871 1.385 . S
C868 H849 0.951 . S
C868 C866 1.388 . S
C868 C869 1.366 . S
C869 C868 1.366 . S
C869 C870 1.414 . S
C869 C872 1.499 . S
C870 H850 0.950 . S
C870 C869 1.414 . S
C870 C871 1.374 . S
C871 H851 0.950 . S
C871 C867 1.385 . S
C871 C870 1.374 . S
C872 C869 1.499 . S
C872 C873 1.373 . S
C872 C874 1.389 . S
C873 H852 0.950 . S
C873 C872 1.373 . S
C873 C889 1.377 . S
C874 C872 1.389 . S
C874 C875 1.524 . S
C874 C888 1.377 . S
C875 C874 1.524 . S
C875 C876 1.397 . S
C875 C880 1.363 . S
C876 H853 0.950 . S
C876 C875 1.397 . S
C876 C877 1.334 . S
C877 H854 0.950 . S
C877 C876 1.334 . S
C877 C878 1.287 . S
C878 C877 1.287 . S
C878 C879 1.524 . S
C878 H897 0.946 . S
C879 H855 0.950 . S
C879 C878 1.524 . S
C879 C880 1.415 . S
C880 H856 0.950 . S
C880 C875 1.363 . S
C880 C879 1.415 . S
C881 H857 0.951 . S
C881 C882 1.366 . S
C881 C883 1.388 . S
C882 C881 1.366 . S
C882 C886 1.385 . S
C883 H858 0.951 . S
C883 C881 1.388 . S
C883 C884 1.366 . S
C884 C883 1.366 . S
C884 C885 1.414 . S
C884 C887 1.499 . S
C885 H859 0.950 . S
C885 C884 1.414 . S
C885 C886 1.374 . S
C886 H860 0.950 . S
C886 C882 1.385 . S
C886 C885 1.374 . S
C887 C884 1.499 . S
C887 C888 1.373 . S
C887 C889 1.389 . S
C888 H861 0.950 . S
C888 C874 1.377 . S
C888 C887 1.373 . S
C889 C873 1.377 . S
C889 C887 1.389 . S
C889 C890 1.524 . S
C890 C889 1.524 . S
C890 C891 1.397 . S
C890 C895 1.363 . S
C891 H862 0.950 . S
C891 C890 1.397 . S
C891 C892 1.334 . S
C892 H863 0.950 . S
C892 C891 1.334 . S
C892 C893 1.287 . S
C893 C892 1.287 . S
C893 C894 1.524 . S
C893 H896 0.999 . S
C894 H864 0.950 . S
C894 C893 1.524 . S
C894 C895 1.415 . S
C895 H865 0.950 . S
C895 C890 1.363 . S
C895 C894 1.415 . S
H896 C893 0.999 . S
H897 C878 0.946 . S
H898 C916 0.951 . S
H899 C918 0.951 . S
H900 C920 0.950 . S
H901 C921 0.950 . S
H902 C923 0.950 . S
H903 C926 0.950 . S
H904 C927 0.950 . S
H905 C929 0.950 . S
H906 C930 0.950 . S
H907 C931 0.951 . S
H908 C933 0.951 . S
H909 C935 0.950 . S
H910 C936 0.950 . S
H911 C938 0.950 . S
H912 C941 0.950 . S
H913 C942 0.950 . S
H914 C944 0.950 . S
H915 C945 0.950 . S
C916 H898 0.951 . S
C916 C917 1.366 . S
C916 C918 1.388 . S
C917 C916 1.366 . S
C917 C921 1.385 . S
C918 H899 0.951 . S
C918 C916 1.388 . S
C918 C919 1.366 . S
C919 C918 1.366 . S
C919 C920 1.414 . S
C919 C922 1.499 . S
C920 H900 0.950 . S
C920 C919 1.414 . S
C920 C921 1.374 . S
C921 H901 0.950 . S
C921 C917 1.385 . S
C921 C920 1.374 . S
C922 C919 1.499 . S
C922 C923 1.373 . S
C922 C924 1.389 . S
C923 H902 0.950 . S
C923 C922 1.373 . S
C923 C939 1.377 1_554 S
C924 C922 1.389 . S
C924 C925 1.524 . S
C924 C938 1.377 1_554 S
C925 C924 1.524 . S
C925 C926 1.397 . S
C925 C930 1.363 . S
C926 H903 0.950 . S
C926 C925 1.397 . S
C926 C927 1.334 . S
C927 H904 0.950 . S
C927 C926 1.334 . S
C927 C928 1.287 . S
C928 C927 1.287 . S
C928 C929 1.524 . S
C928 H947 0.913 . S
C929 H905 0.950 . S
C929 C928 1.524 . S
C929 C930 1.415 . S
C930 H906 0.950 . S
C930 C925 1.363 . S
C930 C929 1.415 . S
C931 H907 0.951 . S
C931 C932 1.366 . S
C931 C933 1.388 . S
C932 C931 1.366 . S
C932 C936 1.385 . S
C933 H908 0.951 . S
C933 C931 1.388 . S
C933 C934 1.366 . S
C934 C933 1.366 . S
C934 C935 1.414 . S
C934 C937 1.499 . S
C935 H909 0.950 . S
C935 C934 1.414 . S
C935 C936 1.374 . S
C936 H910 0.950 . S
C936 C932 1.385 . S
C936 C935 1.374 . S
C937 C934 1.499 . S
C937 C938 1.373 . S
C937 C939 1.389 . S
C938 H911 0.950 . S
C938 C924 1.377 1_556 S
C938 C937 1.373 . S
C939 C923 1.377 1_556 S
C939 C937 1.389 . S
C939 C940 1.524 . S
C940 C939 1.524 . S
C940 C941 1.397 . S
C940 C945 1.363 . S
C941 H912 0.950 . S
C941 C940 1.397 . S
C941 C942 1.334 . S
C942 H913 0.950 . S
C942 C941 1.334 . S
C942 C943 1.287 . S
C943 C942 1.287 . S
C943 C944 1.524 . S
C943 H946 0.999 . S
C944 H914 0.950 . S
C944 C943 1.524 . S
C944 C945 1.415 . S
C945 H915 0.950 . S
C945 C940 1.363 . S
C945 C944 1.415 . S
H946 C943 0.999 . S
H947 C928 0.913 . S
H948 C966 0.951 . S
H949 C968 0.951 . S
H950 C970 0.950 . S
H951 C971 0.950 . S
H952 C973 0.950 . S
H953 C976 0.950 . S
H954 C977 0.950 . S
H955 C979 0.950 . S
H956 C980 0.950 . S
H957 C981 0.951 . S
H958 C983 0.951 . S
H959 C985 0.950 . S
H960 C986 0.950 . S
H961 C988 0.950 . S
H962 C991 0.950 . S
H963 C992 0.950 . S
H964 C994 0.950 . S
H965 C995 0.950 . S
C966 H948 0.951 . S
C966 C967 1.366 . S
C966 C968 1.388 . S
C967 C966 1.366 . S
C967 C971 1.385 . S
C968 H949 0.951 . S
C968 C966 1.388 . S
C968 C969 1.366 . S
C969 C968 1.366 . S
C969 C970 1.414 . S
C969 C972 1.499 . S
C970 H950 0.950 . S
C970 C969 1.414 . S
C970 C971 1.374 . S
C971 H951 0.950 . S
C971 C967 1.385 . S
C971 C970 1.374 . S
C972 C969 1.499 . S
C972 C973 1.373 . S
C972 C974 1.389 . S
C973 H952 0.950 . S
C973 C972 1.373 . S
C973 C989 1.377 . S
C974 C972 1.389 . S
C974 C975 1.524 . S
C974 C988 1.377 . S
C975 C974 1.524 . S
C975 C976 1.397 . S
C975 C980 1.363 . S
C976 H953 0.950 . S
C976 C975 1.397 . S
C976 C977 1.334 . S
C977 H954 0.950 . S
C977 C976 1.334 . S
C977 C978 1.287 . S
C978 C977 1.287 . S
C978 C979 1.524 . S
C978 H997 0.913 . S
C979 H955 0.950 . S
C979 C978 1.524 . S
C979 C980 1.415 . S
C980 H956 0.950 . S
C980 C975 1.363 . S
C980 C979 1.415 . S
C981 H957 0.951 . S
C981 C982 1.366 . S
C981 C983 1.388 . S
C982 C981 1.366 . S
C982 C986 1.385 . S
C983 H958 0.951 . S
C983 C981 1.388 . S
C983 C984 1.366 . S
C984 C983 1.366 . S
C984 C985 1.414 . S
C984 C987 1.499 . S
C985 H959 0.950 . S
C985 C984 1.414 . S
C985 C986 1.374 . S
C986 H960 0.950 . S
C986 C982 1.385 . S
C986 C985 1.374 . S
C987 C984 1.499 . S
C987 C988 1.373 . S
C987 C989 1.389 . S
C988 H961 0.950 . S
C988 C974 1.377 . S
C988 C987 1.373 . S
C989 C973 1.377 . S
C989 C987 1.389 . S
C989 C990 1.524 . S
C990 C989 1.524 . S
C990 C991 1.397 . S
C990 C995 1.363 . S
C991 H962 0.950 . S
C991 C990 1.397 . S
C991 C992 1.334 . S
C992 H963 0.950 . S
C992 C991 1.334 . S
C992 C993 1.287 . S
C993 C992 1.287 . S
C993 C994 1.524 . S
C993 H996 0.999 . S
C994 H964 0.950 . S
C994 C993 1.524 . S
C994 C995 1.415 . S
C995 H965 0.950 . S
C995 C990 1.363 . S
C995 C994 1.415 . S
H996 C993 0.999 . S
H997 C978 0.913 . S
H998 C1016 0.951 . S
H999 C1018 0.951 . S
H1000 C1020 0.950 . S
H1001 C1021 0.950 . S
H1002 C1023 0.950 . S
H1003 C1026 0.950 . S
H1004 C1027 0.950 . S
H1005 C1029 0.950 . S
H1006 C1030 0.950 . S
H1007 C1031 0.951 . S
H1008 C1033 0.951 . S
H1009 C1035 0.950 . S
H1010 C1036 0.950 . S
H1011 C1038 0.950 . S
H1012 C1041 0.950 . S
H1013 C1042 0.950 . S
H1014 C1044 0.950 . S
H1015 C1045 0.950 . S
C1016 H998 0.951 . S
C1016 C1017 1.366 . S
C1016 C1018 1.388 . S
C1017 C1016 1.366 . S
C1017 C1021 1.385 . S
C1018 H999 0.951 . S
C1018 C1016 1.388 . S
C1018 C1019 1.366 . S
C1019 C1018 1.366 . S
C1019 C1020 1.414 . S
C1019 C1022 1.499 . S
C1020 H1000 0.950 . S
C1020 C1019 1.414 . S
C1020 C1021 1.374 . S
C1021 H1001 0.950 . S
C1021 C1017 1.385 . S
C1021 C1020 1.374 . S
C1022 C1019 1.499 . S
C1022 C1023 1.373 . S
C1022 C1024 1.389 . S
C1023 H1002 0.950 . S
C1023 C1022 1.373 . S
C1023 C1039 1.377 . S
C1024 C1022 1.389 . S
C1024 C1025 1.524 . S
C1024 C1038 1.377 . S
C1025 C1024 1.524 . S
C1025 C1026 1.397 . S
C1025 C1030 1.363 . S
C1026 H1003 0.950 . S
C1026 C1025 1.397 . S
C1026 C1027 1.334 . S
C1027 H1004 0.950 . S
C1027 C1026 1.334 . S
C1027 C1028 1.287 . S
C1028 C1027 1.287 . S
C1028 C1029 1.524 . S
C1028 H1047 0.913 . S
C1029 H1005 0.950 . S
C1029 C1028 1.524 . S
C1029 C1030 1.415 . S
C1030 H1006 0.950 . S
C1030 C1025 1.363 . S
C1030 C1029 1.415 . S
C1031 H1007 0.951 . S
C1031 C1032 1.366 . S
C1031 C1033 1.388 . S
C1032 C1031 1.366 . S
C1032 C1036 1.385 . S
C1033 H1008 0.951 . S
C1033 C1031 1.388 . S
C1033 C1034 1.366 . S
C1034 C1033 1.366 . S
C1034 C1035 1.414 . S
C1034 C1037 1.499 . S
C1035 H1009 0.950 . S
C1035 C1034 1.414 . S
C1035 C1036 1.374 . S
C1036 H1010 0.950 . S
C1036 C1032 1.385 . S
C1036 C1035 1.374 . S
C1037 C1034 1.499 . S
C1037 C1038 1.373 . S
C1037 C1039 1.389 . S
C1038 H1011 0.950 . S
C1038 C1024 1.377 . S
C1038 C1037 1.373 . S
C1039 C1023 1.377 . S
C1039 C1037 1.389 . S
C1039 C1040 1.524 . S
C1040 C1039 1.524 . S
C1040 C1041 1.397 . S
C1040 C1045 1.363 . S
C1041 H1012 0.950 . S
C1041 C1040 1.397 . S
C1041 C1042 1.334 . S
C1042 H1013 0.950 . S
C1042 C1041 1.334 . S
C1042 C1043 1.287 . S
C1043 C1042 1.287 . S
C1043 C1044 1.524 . S
C1043 H1046 0.999 . S
C1044 H1014 0.950 . S
C1044 C1043 1.524 . S
C1044 C1045 1.415 . S
C1045 H1015 0.950 . S
C1045 C1040 1.363 . S
C1045 C1044 1.415 . S
H1046 C1043 0.999 . S
H1047 C1028 0.913 . S
H1048 C1066 0.951 . S
H1049 C1068 0.951 . S
H1050 C1070 0.950 . S
H1051 C1071 0.950 . S
H1052 C1073 0.950 . S
H1053 C1076 0.950 . S
H1054 C1077 0.950 . S
H1055 C1079 0.950 . S
H1056 C1080 0.950 . S
H1057 C1081 0.951 . S
H1058 C1083 0.951 . S
H1059 C1085 0.950 . S
H1060 C1086 0.950 . S
H1061 C1088 0.950 . S
H1062 C1091 0.950 . S
H1063 C1092 0.950 . S
H1064 C1094 0.950 . S
H1065 C1095 0.950 . S
C1066 H1048 0.951 . S
C1066 C1067 1.366 . S
C1066 C1068 1.388 . S
C1067 C1066 1.366 . S
C1067 C1071 1.385 . S
C1068 H1049 0.951 . S
C1068 C1066 1.388 . S
C1068 C1069 1.366 . S
C1069 C1068 1.366 . S
C1069 C1070 1.414 . S
C1069 C1072 1.499 . S
C1070 H1050 0.950 . S
C1070 C1069 1.414 . S
C1070 C1071 1.374 . S
C1071 H1051 0.950 . S
C1071 C1067 1.385 . S
C1071 C1070 1.374 . S
C1072 C1069 1.499 . S
C1072 C1073 1.373 . S
C1072 C1074 1.389 . S
C1073 H1052 0.950 . S
C1073 C1072 1.373 . S
C1073 C1089 1.377 . S
C1074 C1072 1.389 . S
C1074 C1075 1.524 . S
C1074 C1088 1.377 . S
C1075 C1074 1.524 . S
C1075 C1076 1.397 . S
C1075 C1080 1.363 . S
C1076 H1053 0.950 . S
C1076 C1075 1.397 . S
C1076 C1077 1.334 . S
C1077 H1054 0.950 . S
C1077 C1076 1.334 . S
C1077 C1078 1.287 . S
C1078 C1077 1.287 . S
C1078 C1079 1.524 . S
C1078 H1097 0.913 . S
C1079 H1055 0.950 . S
C1079 C1078 1.524 . S
C1079 C1080 1.415 . S
C1080 H1056 0.950 . S
C1080 C1075 1.363 . S
C1080 C1079 1.415 . S
C1081 H1057 0.951 . S
C1081 C1082 1.366 . S
C1081 C1083 1.388 . S
C1082 C1081 1.366 . S
C1082 C1086 1.385 . S
C1083 H1058 0.951 . S
C1083 C1081 1.388 . S
C1083 C1084 1.366 . S
C1084 C1083 1.366 . S
C1084 C1085 1.414 . S
C1084 C1087 1.499 . S
C1085 H1059 0.950 . S
C1085 C1084 1.414 . S
C1085 C1086 1.374 . S
C1086 H1060 0.950 . S
C1086 C1082 1.385 . S
C1086 C1085 1.374 . S
C1087 C1084 1.499 . S
C1087 C1088 1.373 . S
C1087 C1089 1.389 . S
C1088 H1061 0.950 . S
C1088 C1074 1.377 . S
C1088 C1087 1.373 . S
C1089 C1073 1.377 . S
C1089 C1087 1.389 . S
C1089 C1090 1.524 . S
C1090 C1089 1.524 . S
C1090 C1091 1.397 . S
C1090 C1095 1.363 . S
C1091 H1062 0.950 . S
C1091 C1090 1.397 . S
C1091 C1092 1.334 . S
C1092 H1063 0.950 . S
C1092 C1091 1.334 . S
C1092 C1093 1.287 . S
C1093 C1092 1.287 . S
C1093 C1094 1.524 . S
C1093 H1096 0.999 . S
C1094 H1064 0.950 . S
C1094 C1093 1.524 . S
C1094 C1095 1.415 . S
C1095 H1065 0.950 . S
C1095 C1090 1.363 . S
C1095 C1094 1.415 . S
H1096 C1093 0.999 . S
H1097 C1078 0.913 . S
H1098 C1116 0.951 . S
H1099 C1118 0.951 . S
H1100 C1120 0.950 . S
H1101 C1121 0.950 . S
H1102 C1123 0.950 . S
H1103 C1126 0.950 . S
H1104 C1127 0.950 . S
H1105 C1129 0.950 . S
H1106 C1130 0.950 . S
H1107 C1131 0.951 . S
H1108 C1133 0.951 . S
H1109 C1135 0.950 . S
H1110 C1136 0.950 . S
H1111 C1138 0.950 . S
H1112 C1141 0.950 . S
H1113 C1142 0.950 . S
H1114 C1144 0.950 . S
H1115 C1145 0.950 . S
C1116 H1098 0.951 . S
C1116 C1117 1.366 . S
C1116 C1118 1.388 . S
C1117 C1116 1.366 . S
C1117 C1121 1.385 . S
C1118 H1099 0.951 . S
C1118 C1116 1.388 . S
C1118 C1119 1.366 . S
C1119 C1118 1.366 . S
C1119 C1120 1.414 . S
C1119 C1122 1.499 . S
C1120 H1100 0.950 . S
C1120 C1119 1.414 . S
C1120 C1121 1.374 . S
C1121 H1101 0.950 . S
C1121 C1117 1.385 . S
C1121 C1120 1.374 . S
C1122 C1119 1.499 . S
C1122 C1123 1.373 . S
C1122 C1124 1.389 . S
C1123 H1102 0.950 . S
C1123 C1122 1.373 . S
C1123 C1139 1.377 1_554 S
C1124 C1122 1.389 . S
C1124 C1125 1.524 . S
C1124 C1138 1.377 1_554 S
C1125 C1124 1.524 . S
C1125 C1126 1.397 . S
C1125 C1130 1.363 . S
C1126 H1103 0.950 . S
C1126 C1125 1.397 . S
C1126 C1127 1.334 . S
C1127 H1104 0.950 . S
C1127 C1126 1.334 . S
C1127 C1128 1.287 . S
C1128 C1127 1.287 . S
C1128 C1129 1.524 . S
C1128 H1147 0.913 . S
C1129 H1105 0.950 . S
C1129 C1128 1.524 . S
C1129 C1130 1.415 . S
C1130 H1106 0.950 . S
C1130 C1125 1.363 . S
C1130 C1129 1.415 . S
C1131 H1107 0.951 . S
C1131 C1132 1.366 . S
C1131 C1133 1.388 . S
C1132 C1131 1.366 . S
C1132 C1136 1.385 . S
C1133 H1108 0.951 . S
C1133 C1131 1.388 . S
C1133 C1134 1.366 . S
C1134 C1133 1.366 . S
C1134 C1135 1.414 . S
C1134 C1137 1.499 . S
C1135 H1109 0.950 . S
C1135 C1134 1.414 . S
C1135 C1136 1.374 . S
C1136 H1110 0.950 . S
C1136 C1132 1.385 . S
C1136 C1135 1.374 . S
C1137 C1134 1.499 . S
C1137 C1138 1.373 . S
C1137 C1139 1.389 . S
C1138 H1111 0.950 . S
C1138 C1124 1.377 1_556 S
C1138 C1137 1.373 . S
C1139 C1123 1.377 1_556 S
C1139 C1137 1.389 . S
C1139 C1140 1.524 . S
C1140 C1139 1.524 . S
C1140 C1141 1.397 . S
C1140 C1145 1.363 . S
C1141 H1112 0.950 . S
C1141 C1140 1.397 . S
C1141 C1142 1.334 . S
C1142 H1113 0.950 . S
C1142 C1141 1.334 . S
C1142 C1143 1.287 . S
C1143 C1142 1.287 . S
C1143 C1144 1.524 . S
C1143 H1146 0.999 . S
C1144 H1114 0.950 . S
C1144 C1143 1.524 . S
C1144 C1145 1.415 . S
C1145 H1115 0.950 . S
C1145 C1140 1.363 . S
C1145 C1144 1.415 . S
H1146 C1143 0.999 . S
H1147 C1128 0.913 . S
H1148 C1166 0.951 . S
H1149 C1168 0.951 . S
H1150 C1170 0.950 . S
H1151 C1171 0.950 . S
H1152 C1173 0.950 . S
H1153 C1176 0.950 . S
H1154 C1177 0.950 . S
H1155 C1179 0.950 . S
H1156 C1180 0.950 . S
H1157 C1181 0.951 . S
H1158 C1183 0.951 . S
H1159 C1185 0.950 . S
H1160 C1186 0.950 . S
H1161 C1188 0.950 . S
H1162 C1191 0.950 . S
H1163 C1192 0.950 . S
H1164 C1194 0.950 . S
H1165 C1195 0.950 . S
C1166 H1148 0.951 . S
C1166 C1167 1.366 . S
C1166 C1168 1.388 . S
C1167 C1166 1.366 . S
C1167 C1171 1.385 . S
C1168 H1149 0.951 . S
C1168 C1166 1.388 . S
C1168 C1169 1.366 . S
C1169 C1168 1.366 . S
C1169 C1170 1.414 . S
C1169 C1172 1.499 . S
C1170 H1150 0.950 . S
C1170 C1169 1.414 . S
C1170 C1171 1.374 . S
C1171 H1151 0.950 . S
C1171 C1167 1.385 . S
C1171 C1170 1.374 . S
C1172 C1169 1.499 . S
C1172 C1173 1.373 . S
C1172 C1174 1.389 . S
C1173 H1152 0.950 . S
C1173 C1172 1.373 . S
C1173 C1189 1.377 . S
C1174 C1172 1.389 . S
C1174 C1175 1.524 . S
C1174 C1188 1.377 . S
C1175 C1174 1.524 . S
C1175 C1176 1.397 . S
C1175 C1180 1.363 . S
C1176 H1153 0.950 . S
C1176 C1175 1.397 . S
C1176 C1177 1.334 . S
C1177 H1154 0.950 . S
C1177 C1176 1.334 . S
C1177 C1178 1.287 . S
C1178 C1177 1.287 . S
C1178 C1179 1.524 . S
C1178 H1197 0.913 . S
C1179 H1155 0.950 . S
C1179 C1178 1.524 . S
C1179 C1180 1.415 . S
C1180 H1156 0.950 . S
C1180 C1175 1.363 . S
C1180 C1179 1.415 . S
C1181 H1157 0.951 . S
C1181 C1182 1.366 . S
C1181 C1183 1.388 . S
C1182 C1181 1.366 . S
C1182 C1186 1.385 . S
C1183 H1158 0.951 . S
C1183 C1181 1.388 . S
C1183 C1184 1.366 . S
C1184 C1183 1.366 . S
C1184 C1185 1.414 . S
C1184 C1187 1.499 . S
C1185 H1159 0.950 . S
C1185 C1184 1.414 . S
C1185 C1186 1.374 . S
C1186 H1160 0.950 . S
C1186 C1182 1.385 . S
C1186 C1185 1.374 . S
C1187 C1184 1.499 . S
C1187 C1188 1.373 . S
C1187 C1189 1.389 . S
C1188 H1161 0.950 . S
C1188 C1174 1.377 . S
C1188 C1187 1.373 . S
C1189 C1173 1.377 . S
C1189 C1187 1.389 . S
C1189 C1190 1.524 . S
C1190 C1189 1.524 . S
C1190 C1191 1.397 . S
C1190 C1195 1.363 . S
C1191 H1162 0.950 . S
C1191 C1190 1.397 . S
C1191 C1192 1.334 . S
C1192 H1163 0.950 . S
C1192 C1191 1.334 . S
C1192 C1193 1.287 . S
C1193 C1192 1.287 . S
C1193 C1194 1.524 . S
C1193 H1196 0.999 . S
C1194 H1164 0.950 . S
C1194 C1193 1.524 . S
C1194 C1195 1.415 . S
C1195 H1165 0.950 . S
C1195 C1190 1.363 . S
C1195 C1194 1.415 . S
H1196 C1193 0.999 . S
H1197 C1178 0.913 . S
H1198 C1216 0.951 . S
H1199 C1218 0.951 . S
H1200 C1220 0.950 . S
H1201 C1221 0.950 . S
H1202 C1223 0.950 . S
H1203 C1226 0.950 . S
H1204 C1227 0.950 . S
H1205 C1229 0.950 . S
H1206 C1230 0.950 . S
H1207 C1231 0.951 . S
H1208 C1233 0.951 . S
H1209 C1235 0.950 . S
H1210 C1236 0.950 . S
H1211 C1238 0.950 . S
H1212 C1241 0.950 . S
H1213 C1242 0.950 . S
H1214 C1244 0.950 . S
H1215 C1245 0.950 . S
C1216 H1198 0.951 . S
C1216 C1217 1.366 . S
C1216 C1218 1.388 . S
C1217 C1216 1.366 . S
C1217 C1221 1.385 . S
C1218 H1199 0.951 . S
C1218 C1216 1.388 . S
C1218 C1219 1.366 . S
C1219 C1218 1.366 . S
C1219 C1220 1.414 . S
C1219 C1222 1.499 . S
C1220 H1200 0.950 . S
C1220 C1219 1.414 . S
C1220 C1221 1.374 . S
C1221 H1201 0.950 . S
C1221 C1217 1.385 . S
C1221 C1220 1.374 . S
C1222 C1219 1.499 . S
C1222 C1223 1.373 . S
C1222 C1224 1.389 . S
C1223 H1202 0.950 . S
C1223 C1222 1.373 . S
C1223 C1239 1.377 . S
C1224 C1222 1.389 . S
C1224 C1225 1.524 . S
C1224 C1238 1.377 . S
C1225 C1224 1.524 . S
C1225 C1226 1.397 . S
C1225 C1230 1.363 . S
C1226 H1203 0.950 . S
C1226 C1225 1.397 . S
C1226 C1227 1.334 . S
C1227 H1204 0.950 . S
C1227 C1226 1.334 . S
C1227 C1228 1.287 . S
C1228 C1227 1.287 . S
C1228 C1229 1.524 . S
C1228 H1247 0.913 . S
C1229 H1205 0.950 . S
C1229 C1228 1.524 . S
C1229 C1230 1.415 . S
C1230 H1206 0.950 . S
C1230 C1225 1.363 . S
C1230 C1229 1.415 . S
C1231 H1207 0.951 . S
C1231 C1232 1.366 . S
C1231 C1233 1.388 . S
C1232 C1231 1.366 . S
C1232 C1236 1.385 . S
C1233 H1208 0.951 . S
C1233 C1231 1.388 . S
C1233 C1234 1.366 . S
C1234 C1233 1.366 . S
C1234 C1235 1.414 . S
C1234 C1237 1.499 . S
C1235 H1209 0.950 . S
C1235 C1234 1.414 . S
C1235 C1236 1.374 . S
C1236 H1210 0.950 . S
C1236 C1232 1.385 . S
C1236 C1235 1.374 . S
C1237 C1234 1.499 . S
C1237 C1238 1.373 . S
C1237 C1239 1.389 . S
C1238 H1211 0.950 . S
C1238 C1224 1.377 . S
C1238 C1237 1.373 . S
C1239 C1223 1.377 . S
C1239 C1237 1.389 . S
C1239 C1240 1.524 . S
C1240 C1239 1.524 . S
C1240 C1241 1.397 . S
C1240 C1245 1.363 . S
C1241 H1212 0.950 . S
C1241 C1240 1.397 . S
C1241 C1242 1.334 . S
C1242 H1213 0.950 . S
C1242 C1241 1.334 . S
C1242 C1243 1.287 . S
C1243 C1242 1.287 . S
C1243 C1244 1.524 . S
C1243 H1246 0.999 . S
C1244 H1214 0.950 . S
C1244 C1243 1.524 . S
C1244 C1245 1.415 . S
C1245 H1215 0.950 . S
C1245 C1240 1.363 . S
C1245 C1244 1.415 . S
H1246 C1243 0.999 . S
H1247 C1228 0.913 . S
H1248 C1266 0.951 . S
H1249 C1268 0.951 . S
H1250 C1270 0.950 . S
H1251 C1271 0.950 . S
H1252 C1273 0.950 . S
H1253 C1276 0.950 . S
H1254 C1277 0.950 . S
H1255 C1279 0.950 . S
H1256 C1280 0.950 1_565 S
H1257 C1281 0.951 . S
H1258 C1283 0.951 . S
H1259 C1285 0.950 . S
H1260 C1286 0.950 . S
H1261 C1288 0.950 . S
H1262 C1291 0.950 . S
H1263 C1292 0.950 . S
H1264 C1294 0.950 . S
H1265 C1295 0.950 . S
C1266 H1248 0.951 . S
C1266 C1267 1.366 . S
C1266 C1268 1.388 1_545 S
C1267 C1266 1.366 . S
C1267 C1271 1.385 1_545 S
C1268 H1249 0.951 . S
C1268 C1266 1.388 1_565 S
C1268 C1269 1.366 . S
C1269 C1268 1.366 . S
C1269 C1270 1.414 . S
C1269 C1272 1.499 . S
C1270 H1250 0.950 . S
C1270 C1269 1.414 . S
C1270 C1271 1.374 . S
C1271 H1251 0.950 . S
C1271 C1267 1.385 1_565 S
C1271 C1270 1.374 . S
C1272 C1269 1.499 . S
C1272 C1273 1.373 . S
C1272 C1274 1.389 . S
C1273 H1252 0.950 . S
C1273 C1272 1.373 . S
C1273 C1289 1.377 . S
C1274 C1272 1.389 . S
C1274 C1275 1.524 . S
C1274 C1288 1.377 . S
C1275 C1274 1.524 . S
C1275 C1276 1.397 1_565 S
C1275 C1280 1.363 1_565 S
C1276 H1253 0.950 . S
C1276 C1275 1.397 1_545 S
C1276 C1277 1.334 . S
C1277 H1254 0.950 . S
C1277 C1276 1.334 . S
C1277 C1278 1.287 . S
C1278 C1277 1.287 . S
C1278 C1279 1.524 . S
C1278 H1297 0.913 . S
C1279 H1255 0.950 . S
C1279 C1278 1.524 . S
C1279 C1280 1.415 . S
C1280 H1256 0.950 1_545 S
C1280 C1275 1.363 1_545 S
C1280 C1279 1.415 . S
C1281 H1257 0.951 . S
C1281 C1282 1.366 . S
C1281 C1283 1.388 . S
C1282 C1281 1.366 . S
C1282 C1286 1.385 . S
C1283 H1258 0.951 . S
C1283 C1281 1.388 . S
C1283 C1284 1.366 . S
C1284 C1283 1.366 . S
C1284 C1285 1.414 . S
C1284 C1287 1.499 . S
C1285 H1259 0.950 . S
C1285 C1284 1.414 . S
C1285 C1286 1.374 . S
C1286 H1260 0.950 . S
C1286 C1282 1.385 . S
C1286 C1285 1.374 . S
C1287 C1284 1.499 . S
C1287 C1288 1.373 . S
C1287 C1289 1.389 . S
C1288 H1261 0.950 . S
C1288 C1274 1.377 . S
C1288 C1287 1.373 . S
C1289 C1273 1.377 . S
C1289 C1287 1.389 . S
C1289 C1290 1.524 . S
C1290 C1289 1.524 . S
C1290 C1291 1.397 . S
C1290 C1295 1.363 . S
C1291 H1262 0.950 . S
C1291 C1290 1.397 . S
C1291 C1292 1.334 . S
C1292 H1263 0.950 . S
C1292 C1291 1.334 . S
C1292 C1293 1.287 . S
C1293 C1292 1.287 . S
C1293 C1294 1.524 . S
C1293 H1296 0.999 . S
C1294 H1264 0.950 . S
C1294 C1293 1.524 . S
C1294 C1295 1.415 . S
C1295 H1265 0.950 . S
C1295 C1290 1.363 . S
C1295 C1294 1.415 . S
H1296 C1293 0.999 . S
H1297 C1278 0.913 . S
H1298 C1316 0.951 . S
H1299 C1318 0.951 . S
H1300 C1320 0.950 . S
H1301 C1321 0.950 . S
H1302 C1323 0.950 . S
H1303 C1326 0.950 . S
H1304 C1327 0.950 . S
H1305 C1329 0.950 . S
H1306 C1330 0.950 . S
H1307 C1331 0.951 . S
H1308 C1333 0.951 . S
H1309 C1335 0.950 . S
H1310 C1336 0.950 . S
H1311 C1338 0.950 . S
H1312 C1341 0.950 . S
H1313 C1342 0.950 . S
H1314 C1344 0.950 . S
H1315 C1345 0.950 . S
C1316 H1298 0.951 . S
C1316 C1317 1.366 . S
C1316 C1318 1.388 . S
C1317 C1316 1.366 . S
C1317 C1321 1.385 . S
C1318 H1299 0.951 . S
C1318 C1316 1.388 . S
C1318 C1319 1.366 . S
C1319 C1318 1.366 . S
C1319 C1320 1.414 . S
C1319 C1322 1.499 . S
C1320 H1300 0.950 . S
C1320 C1319 1.414 . S
C1320 C1321 1.374 . S
C1321 H1301 0.950 . S
C1321 C1317 1.385 . S
C1321 C1320 1.374 . S
C1322 C1319 1.499 . S
C1322 C1323 1.373 . S
C1322 C1324 1.389 . S
C1323 H1302 0.950 . S
C1323 C1322 1.373 . S
C1323 C1339 1.377 . S
C1324 C1322 1.389 . S
C1324 C1325 1.524 . S
C1324 C1338 1.377 . S
C1325 C1324 1.524 . S
C1325 C1326 1.397 . S
C1325 C1330 1.363 . S
C1326 H1303 0.950 . S
C1326 C1325 1.397 . S
C1326 C1327 1.334 . S
C1327 H1304 0.950 . S
C1327 C1326 1.334 . S
C1327 C1328 1.287 . S
C1328 C1327 1.287 . S
C1328 C1329 1.524 . S
C1328 H1347 0.913 . S
C1329 H1305 0.950 . S
C1329 C1328 1.524 . S
C1329 C1330 1.415 . S
C1330 H1306 0.950 . S
C1330 C1325 1.363 . S
C1330 C1329 1.415 . S
C1331 H1307 0.951 . S
C1331 C1332 1.366 . S
C1331 C1333 1.388 1_565 S
C1332 C1331 1.366 . S
C1332 C1336 1.385 . S
C1333 H1308 0.951 . S
C1333 C1331 1.388 1_545 S
C1333 C1334 1.366 . S
C1334 C1333 1.366 . S
C1334 C1335 1.414 . S
C1334 C1337 1.499 . S
C1335 H1309 0.950 . S
C1335 C1334 1.414 . S
C1335 C1336 1.374 1_545 S
C1336 H1310 0.950 . S
C1336 C1332 1.385 . S
C1336 C1335 1.374 1_565 S
C1337 C1334 1.499 . S
C1337 C1338 1.373 . S
C1337 C1339 1.389 . S
C1338 H1311 0.950 . S
C1338 C1324 1.377 . S
C1338 C1337 1.373 . S
C1339 C1323 1.377 . S
C1339 C1337 1.389 . S
C1339 C1340 1.524 . S
C1340 C1339 1.524 . S
C1340 C1341 1.397 . S
C1340 C1345 1.363 . S
C1341 H1312 0.950 . S
C1341 C1340 1.397 . S
C1341 C1342 1.334 . S
C1342 H1313 0.950 . S
C1342 C1341 1.334 . S
C1342 C1343 1.287 . S
C1343 C1342 1.287 . S
C1343 C1344 1.524 . S
C1343 H1346 0.999 . S
C1344 H1314 0.950 . S
C1344 C1343 1.524 . S
C1344 C1345 1.415 . S
C1345 H1315 0.950 . S
C1345 C1340 1.363 . S
C1345 C1344 1.415 . S
H1346 C1343 0.999 . S
H1347 C1328 0.913 . S
H1348 C1366 0.951 . S
H1349 C1368 0.951 . S
H1350 C1370 0.950 . S
H1351 C1371 0.950 . S
H1352 C1373 0.950 . S
H1353 C1376 0.950 . S
H1354 C1377 0.950 . S
H1355 C1379 0.950 . S
H1356 C1380 0.950 . S
H1357 C1381 0.951 . S
H1358 C1383 0.951 . S
H1359 C1385 0.950 . S
H1360 C1386 0.950 . S
H1361 C1388 0.950 . S
H1362 C1391 0.950 . S
H1363 C1392 0.950 . S
H1364 C1394 0.950 . S
H1365 C1395 0.950 . S
C1366 H1348 0.951 . S
C1366 C1367 1.366 . S
C1366 C1368 1.388 1_565 S
C1367 C1366 1.366 . S
C1367 C1371 1.385 . S
C1368 H1349 0.951 . S
C1368 C1366 1.388 1_545 S
C1368 C1369 1.366 . S
C1369 C1368 1.366 . S
C1369 C1370 1.414 . S
C1369 C1372 1.499 . S
C1370 H1350 0.950 . S
C1370 C1369 1.414 . S
C1370 C1371 1.374 1_545 S
C1371 H1351 0.950 . S
C1371 C1367 1.385 . S
C1371 C1370 1.374 1_565 S
C1372 C1369 1.499 . S
C1372 C1373 1.373 . S
C1372 C1374 1.389 . S
C1373 H1352 0.950 . S
C1373 C1372 1.373 . S
C1373 C1389 1.377 . S
C1374 C1372 1.389 . S
C1374 C1375 1.524 . S
C1374 C1388 1.377 . S
C1375 C1374 1.524 . S
C1375 C1376 1.397 1_545 S
C1375 C1380 1.363 . S
C1376 H1353 0.950 . S
C1376 C1375 1.397 1_565 S
C1376 C1377 1.334 . S
C1377 H1354 0.950 . S
C1377 C1376 1.334 . S
C1377 C1378 1.287 . S
C1378 C1377 1.287 . S
C1378 C1379 1.524 . S
C1378 H1397 0.913 . S
C1379 H1355 0.950 . S
C1379 C1378 1.524 . S
C1379 C1380 1.415 1_565 S
C1380 H1356 0.950 . S
C1380 C1375 1.363 . S
C1380 C1379 1.415 1_545 S
C1381 H1357 0.951 . S
C1381 C1382 1.366 . S
C1381 C1383 1.388 . S
C1382 C1381 1.366 . S
C1382 C1386 1.385 . S
C1383 H1358 0.951 . S
C1383 C1381 1.388 . S
C1383 C1384 1.366 . S
C1384 C1383 1.366 . S
C1384 C1385 1.414 . S
C1384 C1387 1.499 . S
C1385 H1359 0.950 . S
C1385 C1384 1.414 . S
C1385 C1386 1.374 . S
C1386 H1360 0.950 . S
C1386 C1382 1.385 . S
C1386 C1385 1.374 . S
C1387 C1384 1.499 . S
C1387 C1388 1.373 . S
C1387 C1389 1.389 . S
C1388 H1361 0.950 . S
C1388 C1374 1.377 . S
C1388 C1387 1.373 . S
C1389 C1373 1.377 . S
C1389 C1387 1.389 . S
C1389 C1390 1.524 . S
C1390 C1389 1.524 . S
C1390 C1391 1.397 . S
C1390 C1395 1.363 . S
C1391 H1362 0.950 . S
C1391 C1390 1.397 . S
C1391 C1392 1.334 . S
C1392 H1363 0.950 . S
C1392 C1391 1.334 . S
C1392 C1393 1.287 . S
C1393 C1392 1.287 . S
C1393 C1394 1.524 . S
C1393 H1396 0.999 . S
C1394 H1364 0.950 . S
C1394 C1393 1.524 . S
C1394 C1395 1.415 . S
C1395 H1365 0.950 . S
C1395 C1390 1.363 . S
C1395 C1394 1.415 . S
H1396 C1393 0.999 . S
H1397 C1378 0.913 . S
H1398 C1416 0.951 . S
H1399 C1418 0.951 . S
H1400 C1420 0.950 . S
H1401 C1421 0.950 . S
H1402 C1423 0.950 . S
H1403 C1426 0.950 . S
H1404 C1427 0.950 1_545 S
H1405 C1429 0.950 . S
H1406 C1430 0.950 . S
H1407 C1431 0.951 . S
H1408 C1433 0.951 . S
H1409 C1435 0.950 . S
H1410 C1436 0.950 . S
H1411 C1438 0.950 . S
H1412 C1441 0.950 . S
H1413 C1442 0.950 . S
H1414 C1444 0.950 . S
H1415 C1445 0.950 . S
C1416 H1398 0.951 . S
C1416 C1417 1.366 1_565 S
C1416 C1418 1.388 . S
C1417 C1416 1.366 1_545 S
C1417 C1421 1.385 . S
C1418 H1399 0.951 . S
C1418 C1416 1.388 . S
C1418 C1419 1.366 . S
C1419 C1418 1.366 . S
C1419 C1420 1.414 1_565 S
C1419 C1422 1.499 . S
C1420 H1400 0.950 . S
C1420 C1419 1.414 1_545 S
C1420 C1421 1.374 . S
C1421 H1401 0.950 . S
C1421 C1417 1.385 . S
C1421 C1420 1.374 . S
C1422 C1419 1.499 . S
C1422 C1423 1.373 . S
C1422 C1424 1.389 . S
C1423 H1402 0.950 . S
C1423 C1422 1.373 . S
C1423 C1439 1.377 . S
C1424 C1422 1.389 . S
C1424 C1425 1.524 . S
C1424 C1438 1.377 . S
C1425 C1424 1.524 . S
C1425 C1426 1.397 . S
C1425 C1430 1.363 . S
C1426 H1403 0.950 . S
C1426 C1425 1.397 . S
C1426 C1427 1.334 . S
C1427 H1404 0.950 1_565 S
C1427 C1426 1.334 . S
C1427 C1428 1.287 . S
C1428 C1427 1.287 . S
C1428 C1429 1.524 . S
C1428 H1447 0.913 . S
C1429 H1405 0.950 . S
C1429 C1428 1.524 . S
C1429 C1430 1.415 . S
C1430 H1406 0.950 . S
C1430 C1425 1.363 . S
C1430 C1429 1.415 . S
C1431 H1407 0.951 . S
C1431 C1432 1.366 . S
C1431 C1433 1.388 . S
C1432 C1431 1.366 . S
C1432 C1436 1.385 . S
C1433 H1408 0.951 . S
C1433 C1431 1.388 . S
C1433 C1434 1.366 . S
C1434 C1433 1.366 . S
C1434 C1435 1.414 . S
C1434 C1437 1.499 . S
C1435 H1409 0.950 . S
C1435 C1434 1.414 . S
C1435 C1436 1.374 . S
C1436 H1410 0.950 . S
C1436 C1432 1.385 . S
C1436 C1435 1.374 . S
C1437 C1434 1.499 . S
C1437 C1438 1.373 . S
C1437 C1439 1.389 . S
C1438 H1411 0.950 . S
C1438 C1424 1.377 . S
C1438 C1437 1.373 . S
C1439 C1423 1.377 . S
C1439 C1437 1.389 . S
C1439 C1440 1.524 . S
C1440 C1439 1.524 . S
C1440 C1441 1.397 . S
C1440 C1445 1.363 . S
C1441 H1412 0.950 . S
C1441 C1440 1.397 . S
C1441 C1442 1.334 . S
C1442 H1413 0.950 . S
C1442 C1441 1.334 . S
C1442 C1443 1.287 . S
C1443 C1442 1.287 . S
C1443 C1444 1.524 . S
C1443 H1446 0.999 . S
C1444 H1414 0.950 . S
C1444 C1443 1.524 . S
C1444 C1445 1.415 . S
C1445 H1415 0.950 . S
C1445 C1440 1.363 . S
C1445 C1444 1.415 . S
H1446 C1443 0.999 . S
H1447 C1428 0.913 . S
H1448 C1466 0.951 . S
H1449 C1468 0.951 . S
H1450 C1470 0.950 . S
H1451 C1471 0.950 . S
H1452 C1473 0.950 . S
H1453 C1476 0.950 . S
H1454 C1477 0.950 . S
H1455 C1479 0.950 . S
H1456 C1480 0.950 . S
H1457 C1481 0.951 . S
H1458 C1483 0.951 . S
H1459 C1485 0.950 . S
H1460 C1486 0.950 . S
H1461 C1488 0.950 . S
H1462 C1491 0.929 1_565 S
H1463 C1492 0.950 . S
H1464 C1494 0.950 . S
H1465 C1495 0.950 . S
C1466 H1448 0.951 . S
C1466 C1467 1.366 . S
C1466 C1468 1.388 . S
C1467 C1466 1.366 . S
C1467 C1471 1.385 . S
C1468 H1449 0.951 . S
C1468 C1466 1.388 . S
C1468 C1469 1.366 . S
C1469 C1468 1.366 . S
C1469 C1470 1.414 . S
C1469 C1472 1.499 . S
C1470 H1450 0.950 . S
C1470 C1469 1.414 . S
C1470 C1471 1.374 . S
C1471 H1451 0.950 . S
C1471 C1467 1.385 . S
C1471 C1470 1.374 . S
C1472 C1469 1.499 . S
C1472 C1473 1.373 . S
C1472 C1474 1.389 . S
C1473 H1452 0.950 . S
C1473 C1472 1.373 . S
C1473 C1489 1.377 . S
C1474 C1472 1.389 . S
C1474 C1475 1.524 . S
C1474 C1488 1.377 . S
C1475 C1474 1.524 . S
C1475 C1476 1.397 . S
C1475 C1480 1.363 . S
C1476 H1453 0.950 . S
C1476 C1475 1.397 . S
C1476 C1477 1.334 . S
C1477 H1454 0.950 . S
C1477 C1476 1.334 . S
C1477 C1478 1.287 . S
C1478 C1477 1.287 . S
C1478 C1479 1.524 . S
C1478 H1497 0.913 . S
C1479 H1455 0.950 . S
C1479 C1478 1.524 . S
C1479 C1480 1.415 . S
C1480 H1456 0.950 . S
C1480 C1475 1.363 . S
C1480 C1479 1.415 . S
C1481 H1457 0.951 . S
C1481 C1482 1.366 1_545 S
C1481 C1483 1.388 . S
C1482 C1481 1.366 1_565 S
C1482 C1486 1.385 . S
C1483 H1458 0.951 . S
C1483 C1481 1.388 . S
C1483 C1484 1.366 . S
C1484 C1483 1.366 . S
C1484 C1485 1.416 1_545 S
C1484 C1487 1.499 . S
C1485 H1459 0.950 . S
C1485 C1484 1.416 1_565 S
C1485 C1486 1.372 . S
C1486 H1460 0.950 . S
C1486 C1482 1.385 . S
C1486 C1485 1.372 . S
C1487 C1484 1.499 . S
C1487 C1488 1.373 . S
C1487 C1489 1.389 . S
C1488 H1461 0.950 . S
C1488 C1474 1.377 . S
C1488 C1487 1.373 . S
C1489 C1473 1.377 . S
C1489 C1487 1.389 . S
C1489 C1490 1.524 . S
C1490 C1489 1.524 . S
C1490 C1491 1.397 . S
C1490 C1495 1.363 . S
C1491 H1462 0.929 1_545 S
C1491 C1490 1.397 . S
C1491 C1492 1.334 1_545 S
C1492 H1463 0.950 . S
C1492 C1491 1.334 1_565 S
C1492 C1493 1.287 1_565 S
C1493 C1492 1.287 1_545 S
C1493 C1494 1.524 . S
C1493 H1496 0.999 . S
C1494 H1464 0.950 . S
C1494 C1493 1.524 . S
C1494 C1495 1.415 . S
C1495 H1465 0.950 . S
C1495 C1490 1.363 . S
C1495 C1494 1.415 . S
H1496 C1493 0.999 . S
H1497 C1478 0.913 . S
H1498 C1516 0.951 . S
H1499 C1518 0.951 . S
H1500 C1520 0.950 . S
H1501 C1521 0.950 . S
H1502 C1523 0.950 . S
H1503 C1526 0.950 . S
H1504 C1527 0.950 . S
H1505 C1529 0.950 . S
H1506 C1530 0.950 . S
H1507 C1531 0.951 . S
H1508 C1533 0.951 . S
H1509 C1535 0.950 . S
H1510 C1536 0.950 . S
H1511 C1538 0.950 . S
H1512 C1541 0.950 . S
H1513 C1542 0.950 . S
H1514 C1544 0.950 . S
H1515 C1545 0.950 . S
C1516 H1498 0.951 . S
C1516 C1517 1.366 1_565 S
C1516 C1518 1.388 . S
C1517 C1516 1.366 1_545 S
C1517 C1521 1.385 . S
C1518 H1499 0.951 . S
C1518 C1516 1.388 . S
C1518 C1519 1.366 . S
C1519 C1518 1.366 . S
C1519 C1520 1.414 1_565 S
C1519 C1522 1.499 . S
C1520 H1500 0.950 . S
C1520 C1519 1.414 1_545 S
C1520 C1521 1.374 . S
C1521 H1501 0.950 . S
C1521 C1517 1.385 . S
C1521 C1520 1.374 . S
C1522 C1519 1.499 . S
C1522 C1523 1.373 . S
C1522 C1524 1.389 . S
C1523 H1502 0.950 . S
C1523 C1522 1.373 . S
C1523 C1539 1.377 . S
C1524 C1522 1.389 . S
C1524 C1525 1.524 . S
C1524 C1538 1.377 . S
C1525 C1524 1.524 . S
C1525 C1526 1.397 . S
C1525 C1530 1.363 . S
C1526 H1503 0.950 . S
C1526 C1525 1.397 . S
C1526 C1527 1.334 . S
C1527 H1504 0.950 . S
C1527 C1526 1.334 . S
C1527 C1528 1.287 . S
C1528 C1527 1.287 . S
C1528 C1529 1.524 . S
C1528 H1547 0.913 . S
C1529 H1505 0.950 . S
C1529 C1528 1.524 . S
C1529 C1530 1.415 . S
C1530 H1506 0.950 . S
C1530 C1525 1.363 . S
C1530 C1529 1.415 . S
C1531 H1507 0.951 . S
C1531 C1532 1.366 . S
C1531 C1533 1.388 . S
C1532 C1531 1.366 . S
C1532 C1536 1.385 . S
C1533 H1508 0.951 . S
C1533 C1531 1.388 . S
C1533 C1534 1.366 . S
C1534 C1533 1.366 . S
C1534 C1535 1.414 . S
C1534 C1537 1.499 . S
C1535 H1509 0.950 . S
C1535 C1534 1.414 . S
C1535 C1536 1.374 . S
C1536 H1510 0.950 . S
C1536 C1532 1.385 . S
C1536 C1535 1.374 . S
C1537 C1534 1.499 . S
C1537 C1538 1.373 . S
C1537 C1539 1.389 . S
C1538 H1511 0.950 . S
C1538 C1524 1.377 . S
C1538 C1537 1.373 . S
C1539 C1523 1.377 . S
C1539 C1537 1.389 . S
C1539 C1540 1.524 . S
C1540 C1539 1.524 . S
C1540 C1541 1.397 . S
C1540 C1545 1.363 . S
C1541 H1512 0.950 . S
C1541 C1540 1.397 . S
C1541 C1542 1.334 . S
C1542 H1513 0.950 . S
C1542 C1541 1.334 . S
C1542 C1543 1.287 . S
C1543 C1542 1.287 . S
C1543 C1544 1.524 . S
C1543 H1546 0.999 . S
C1544 H1514 0.950 . S
C1544 C1543 1.524 . S
C1544 C1545 1.415 . S
C1545 H1515 0.950 . S
C1545 C1540 1.363 . S
C1545 C1544 1.415 . S
H1546 C1543 0.999 . S
H1547 C1528 0.913 . S
H1548 C1566 0.951 . S
H1549 C1568 0.951 . S
H1550 C1570 0.950 . S
H1551 C1571 0.950 . S
H1552 C1573 0.950 . S
H1553 C1576 0.950 . S
H1554 C1577 0.950 . S
H1555 C1579 0.950 . S
H1556 C1580 0.950 . S
H1557 C1581 0.951 . S
H1558 C1583 0.959 . S
H1559 C1585 0.950 . S
H1560 C1586 0.950 . S
H1561 C1588 0.950 . S
H1562 C1591 0.950 . S
H1563 C1592 0.950 . S
H1564 C1594 0.950 . S
H1565 C1595 0.950 . S
C1566 H1548 0.951 . S
C1566 C1567 1.366 . S
C1566 C1568 1.388 . S
C1567 C1566 1.366 . S
C1567 C1571 1.385 . S
C1568 H1549 0.951 . S
C1568 C1566 1.388 . S
C1568 C1569 1.366 . S
C1569 C1568 1.366 . S
C1569 C1570 1.414 . S
C1569 C1572 1.499 . S
C1570 H1550 0.950 . S
C1570 C1569 1.414 . S
C1570 C1571 1.374 . S
C1571 H1551 0.950 . S
C1571 C1567 1.385 . S
C1571 C1570 1.374 . S
C1572 C1569 1.499 . S
C1572 C1573 1.373 . S
C1572 C1574 1.389 . S
C1573 H1552 0.950 . S
C1573 C1572 1.373 . S
C1573 C1589 1.377 . S
C1574 C1572 1.389 . S
C1574 C1575 1.524 . S
C1574 C1588 1.377 . S
C1575 C1574 1.524 . S
C1575 C1576 1.397 . S
C1575 C1580 1.363 . S
C1576 H1553 0.950 . S
C1576 C1575 1.397 . S
C1576 C1577 1.334 . S
C1577 H1554 0.950 . S
C1577 C1576 1.334 . S
C1577 C1578 1.287 . S
C1578 C1577 1.287 . S
C1578 C1579 1.524 . S
C1578 H1597 0.913 . S
C1579 H1555 0.950 . S
C1579 C1578 1.524 . S
C1579 C1580 1.415 . S
C1580 H1556 0.950 . S
C1580 C1575 1.363 . S
C1580 C1579 1.415 . S
C1581 H1557 0.951 . S
C1581 C1582 1.366 . S
C1581 C1583 1.415 . S
C1582 C1581 1.366 . S
C1582 C1586 1.385 1_545 S
C1583 H1558 0.959 . S
C1583 C1581 1.415 . S
C1583 C1584 1.332 1_545 S
C1584 C1583 1.332 1_565 S
C1584 C1585 1.414 . S
C1584 C1587 1.499 . S
C1585 H1559 0.950 . S
C1585 C1584 1.414 . S
C1585 C1586 1.374 . S
C1586 H1560 0.950 . S
C1586 C1582 1.385 1_565 S
C1586 C1585 1.374 . S
C1587 C1584 1.499 . S
C1587 C1588 1.373 . S
C1587 C1589 1.389 . S
C1588 H1561 0.950 . S
C1588 C1574 1.377 . S
C1588 C1587 1.373 . S
C1589 C1573 1.377 . S
C1589 C1587 1.389 . S
C1589 C1590 1.524 . S
C1590 C1589 1.524 . S
C1590 C1591 1.397 . S
C1590 C1595 1.363 . S
C1591 H1562 0.950 . S
C1591 C1590 1.397 . S
C1591 C1592 1.334 . S
C1592 H1563 0.950 . S
C1592 C1591 1.334 . S
C1592 C1593 1.287 . S
C1593 C1592 1.287 . S
C1593 C1594 1.524 . S
C1593 H1596 0.999 . S
C1594 H1564 0.950 . S
C1594 C1593 1.524 . S
C1594 C1595 1.415 . S
C1595 H1565 0.950 . S
C1595 C1590 1.363 . S
C1595 C1594 1.415 . S
H1596 C1593 0.999 . S
H1597 C1578 0.913 . S
H1598 C1616 0.951 . S
H1599 C1618 0.951 . S
H1600 C1620 0.950 . S
H1601 C1621 0.950 . S
H1602 C1623 0.950 . S
H1603 C1626 0.950 . S
H1604 C1627 0.950 . S
H1605 C1629 0.950 . S
H1606 C1630 0.950 . S
H1607 C1631 0.949 1_565 S
H1608 C1633 0.951 . S
H1609 C1635 0.950 . S
H1610 C1636 0.950 . S
H1611 C1638 0.950 . S
H1612 C1641 0.950 . S
H1613 C1642 0.950 . S
H1614 C1644 0.950 . S
H1615 C1645 0.950 . S
C1616 H1598 0.951 . S
C1616 C1617 1.366 . S
C1616 C1618 1.388 . S
C1617 C1616 1.366 . S
C1617 C1621 1.385 . S
C1618 H1599 0.951 . S
C1618 C1616 1.388 . S
C1618 C1619 1.366 . S
C1619 C1618 1.366 . S
C1619 C1620 1.414 . S
C1619 C1622 1.499 . S
C1620 H1600 0.950 . S
C1620 C1619 1.414 . S
C1620 C1621 1.374 . S
C1621 H1601 0.950 . S
C1621 C1617 1.385 . S
C1621 C1620 1.374 . S
C1622 C1619 1.499 . S
C1622 C1623 1.373 . S
C1622 C1624 1.389 . S
C1623 H1602 0.950 . S
C1623 C1622 1.373 . S
C1623 C1639 1.377 . S
C1624 C1622 1.389 . S
C1624 C1625 1.524 . S
C1624 C1638 1.377 . S
C1625 C1624 1.524 . S
C1625 C1626 1.397 . S
C1625 C1630 1.363 . S
C1626 H1603 0.950 . S
C1626 C1625 1.397 . S
C1626 C1627 1.334 . S
C1627 H1604 0.950 . S
C1627 C1626 1.334 . S
C1627 C1628 1.287 . S
C1628 C1627 1.287 . S
C1628 C1629 1.524 . S
C1628 H1647 0.913 . S
C1629 H1605 0.950 . S
C1629 C1628 1.524 . S
C1629 C1630 1.415 . S
C1630 H1606 0.950 . S
C1630 C1625 1.363 . S
C1630 C1629 1.415 . S
C1631 H1607 0.949 1_545 S
C1631 C1632 1.353 1_545 S
C1631 C1633 1.403 . S
C1632 C1631 1.353 1_565 S
C1632 C1636 1.385 . S
C1633 H1608 0.951 . S
C1633 C1631 1.403 . S
C1633 C1634 1.366 . S
C1634 C1633 1.366 . S
C1634 C1635 1.414 . S
C1634 C1637 1.499 . S
C1635 H1609 0.950 . S
C1635 C1634 1.414 . S
C1635 C1636 1.374 1_545 S
C1636 H1610 0.950 . S
C1636 C1632 1.385 . S
C1636 C1635 1.374 1_565 S
C1637 C1634 1.499 . S
C1637 C1638 1.373 . S
C1637 C1639 1.389 . S
C1638 H1611 0.950 . S
C1638 C1624 1.377 . S
C1638 C1637 1.373 . S
C1639 C1623 1.377 . S
C1639 C1637 1.389 . S
C1639 C1640 1.524 . S
C1640 C1639 1.524 . S
C1640 C1641 1.397 1_545 S
C1640 C1645 1.363 . S
C1641 H1612 0.950 . S
C1641 C1640 1.397 1_565 S
C1641 C1642 1.334 . S
C1642 H1613 0.950 . S
C1642 C1641 1.334 . S
C1642 C1643 1.287 . S
C1643 C1642 1.287 . S
C1643 C1644 1.524 1_565 S
C1643 H1646 0.999 . S
C1644 H1614 0.950 . S
C1644 C1643 1.524 1_545 S
C1644 C1645 1.415 . S
C1645 H1615 0.950 . S
C1645 C1640 1.363 . S
C1645 C1644 1.415 . S
H1646 C1643 0.999 . S
H1647 C1628 0.913 . S
H1648 C1666 0.951 . S
H1649 C1668 0.951 . S
H1650 C1670 0.950 . S
H1651 C1671 0.950 . S
H1652 C1673 0.950 . S
H1653 C1676 0.950 . S
H1654 C1677 0.950 . S
H1655 C1679 0.950 . S
H1656 C1680 0.950 . S
H1657 C1681 0.951 . S
H1658 C1683 0.951 . S
H1659 C1685 0.950 . S
H1660 C1686 0.950 . S
H1661 C1688 0.950 . S
H1662 C1691 0.950 . S
H1663 C1692 0.950 . S
H1664 C1694 0.950 . S
H1665 C1695 0.950 . S
C1666 H1648 0.951 . S
C1666 C1667 1.366 . S
C1666 C1668 1.388 . S
C1667 C1666 1.366 . S
C1667 C1671 1.385 . S
C1668 H1649 0.951 . S
C1668 C1666 1.388 . S
C1668 C1669 1.366 . S
C1669 C1668 1.366 . S
C1669 C1670 1.414 . S
C1669 C1672 1.499 . S
C1670 H1650 0.950 . S
C1670 C1669 1.414 . S
C1670 C1671 1.374 . S
C1671 H1651 0.950 . S
C1671 C1667 1.385 . S
C1671 C1670 1.374 . S
C1672 C1669 1.499 . S
C1672 C1673 1.373 . S
C1672 C1674 1.389 . S
C1673 H1652 0.950 . S
C1673 C1672 1.373 . S
C1673 C1689 1.377 . S
C1674 C1672 1.389 . S
C1674 C1675 1.524 . S
C1674 C1688 1.377 . S
C1675 C1674 1.524 . S
C1675 C1676 1.397 . S
C1675 C1680 1.363 . S
C1676 H1653 0.950 . S
C1676 C1675 1.397 . S
C1676 C1677 1.334 . S
C1677 H1654 0.950 . S
C1677 C1676 1.334 . S
C1677 C1678 1.287 . S
C1678 C1677 1.287 . S
C1678 C1679 1.524 . S
C1678 H1697 0.913 . S
C1679 H1655 0.950 . S
C1679 C1678 1.524 . S
C1679 C1680 1.415 . S
C1680 H1656 0.950 . S
C1680 C1675 1.363 . S
C1680 C1679 1.415 . S
C1681 H1657 0.951 . S
C1681 C1682 1.366 . S
C1681 C1683 1.388 . S
C1682 C1681 1.366 . S
C1682 C1686 1.385 . S
C1683 H1658 0.951 . S
C1683 C1681 1.388 . S
C1683 C1684 1.366 . S
C1684 C1683 1.366 . S
C1684 C1685 1.414 . S
C1684 C1687 1.499 . S
C1685 H1659 0.950 . S
C1685 C1684 1.414 . S
C1685 C1686 1.374 . S
C1686 H1660 0.950 . S
C1686 C1682 1.385 . S
C1686 C1685 1.374 . S
C1687 C1684 1.499 . S
C1687 C1688 1.373 . S
C1687 C1689 1.389 . S
C1688 H1661 0.950 . S
C1688 C1674 1.377 . S
C1688 C1687 1.373 . S
C1689 C1673 1.377 . S
C1689 C1687 1.389 . S
C1689 C1690 1.524 . S
C1690 C1689 1.524 . S
C1690 C1691 1.397 . S
C1690 C1695 1.363 . S
C1691 H1662 0.950 . S
C1691 C1690 1.397 . S
C1691 C1692 1.334 . S
C1692 H1663 0.950 . S
C1692 C1691 1.334 . S
C1692 C1693 1.287 . S
C1693 C1692 1.287 . S
C1693 C1694 1.524 . S
C1693 H1696 0.999 . S
C1694 H1664 0.950 . S
C1694 C1693 1.524 . S
C1694 C1695 1.415 . S
C1695 H1665 0.950 . S
C1695 C1690 1.363 . S
C1695 C1694 1.415 . S
H1696 C1693 0.999 . S
H1697 C1678 0.913 . S
H1698 C1716 0.951 . S
H1699 C1718 0.951 . S
H1700 C1720 0.950 . S
H1701 C1721 0.950 . S
H1702 C1723 0.950 . S
H1703 C1726 0.950 . S
H1704 C1727 0.950 . S
H1705 C1729 0.950 . S
H1706 C1730 0.950 . S
H1707 C1731 0.951 . S
H1708 C1733 0.951 . S
H1709 C1735 0.950 . S
H1710 C1736 0.950 . S
H1711 C1738 0.950 . S
H1712 C1741 0.950 . S
H1713 C1742 0.950 . S
H1714 C1744 0.950 . S
H1715 C1745 0.950 . S
C1716 H1698 0.951 . S
C1716 C1717 1.366 . S
C1716 C1718 1.388 . S
C1717 C1716 1.366 . S
C1717 C1721 1.385 . S
C1718 H1699 0.951 . S
C1718 C1716 1.388 . S
C1718 C1719 1.366 . S
C1719 C1718 1.366 . S
C1719 C1720 1.414 . S
C1719 C1722 1.499 . S
C1720 H1700 0.950 . S
C1720 C1719 1.414 . S
C1720 C1721 1.374 . S
C1721 H1701 0.950 . S
C1721 C1717 1.385 . S
C1721 C1720 1.374 . S
C1722 C1719 1.499 . S
C1722 C1723 1.373 . S
C1722 C1724 1.389 . S
C1723 H1702 0.950 . S
C1723 C1722 1.373 . S
C1723 C1739 1.377 . S
C1724 C1722 1.389 . S
C1724 C1725 1.524 . S
C1724 C1738 1.377 . S
C1725 C1724 1.524 . S
C1725 C1726 1.397 . S
C1725 C1730 1.363 . S
C1726 H1703 0.950 . S
C1726 C1725 1.397 . S
C1726 C1727 1.334 . S
C1727 H1704 0.950 . S
C1727 C1726 1.334 . S
C1727 C1728 1.287 . S
C1728 C1727 1.287 . S
C1728 C1729 1.524 . S
C1728 H1747 0.913 . S
C1729 H1705 0.950 . S
C1729 C1728 1.524 . S
C1729 C1730 1.415 . S
C1730 H1706 0.950 . S
C1730 C1725 1.363 . S
C1730 C1729 1.415 . S
C1731 H1707 0.951 . S
C1731 C1732 1.366 . S
C1731 C1733 1.388 . S
C1732 C1731 1.366 . S
C1732 C1736 1.385 . S
C1733 H1708 0.951 . S
C1733 C1731 1.388 . S
C1733 C1734 1.366 . S
C1734 C1733 1.366 . S
C1734 C1735 1.414 . S
C1734 C1737 1.499 . S
C1735 H1709 0.950 . S
C1735 C1734 1.414 . S
C1735 C1736 1.374 . S
C1736 H1710 0.950 . S
C1736 C1732 1.385 . S
C1736 C1735 1.374 . S
C1737 C1734 1.499 . S
C1737 C1738 1.373 . S
C1737 C1739 1.389 . S
C1738 H1711 0.950 . S
C1738 C1724 1.377 . S
C1738 C1737 1.373 . S
C1739 C1723 1.377 . S
C1739 C1737 1.389 . S
C1739 C1740 1.524 . S
C1740 C1739 1.524 . S
C1740 C1741 1.397 . S
C1740 C1745 1.363 . S
C1741 H1712 0.950 . S
C1741 C1740 1.397 . S
C1741 C1742 1.334 . S
C1742 H1713 0.950 . S
C1742 C1741 1.334 . S
C1742 C1743 1.287 . S
C1743 C1742 1.287 . S
C1743 C1744 1.524 . S
C1743 H1746 0.999 . S
C1744 H1714 0.950 . S
C1744 C1743 1.524 . S
C1744 C1745 1.415 . S
C1745 H1715 0.950 . S
C1745 C1740 1.363 . S
C1745 C1744 1.415 . S
H1746 C1743 0.999 . S
H1747 C1728 0.913 . S
H1748 C1766 0.951 . S
H1749 C1768 0.951 . S
H1750 C1770 0.950 . S
H1751 C1771 0.950 . S
H1752 C1773 0.950 . S
H1753 C1776 0.950 . S
H1754 C1777 0.950 . S
H1755 C1779 0.950 . S
H1756 C1780 0.950 . S
H1757 C1781 0.951 . S
H1758 C1783 0.951 . S
H1759 C1785 0.950 . S
H1760 C1786 0.950 . S
H1761 C1788 0.950 . S
H1762 C1791 0.950 . S
H1763 C1792 0.950 . S
H1764 C1794 0.950 . S
H1765 C1795 0.950 . S
C1766 H1748 0.951 . S
C1766 C1767 1.366 . S
C1766 C1768 1.388 . S
C1767 C1766 1.366 . S
C1767 C1771 1.385 . S
C1768 H1749 0.951 . S
C1768 C1766 1.388 . S
C1768 C1769 1.366 . S
C1769 C1768 1.366 . S
C1769 C1770 1.414 . S
C1769 C1772 1.499 . S
C1770 H1750 0.950 . S
C1770 C1769 1.414 . S
C1770 C1771 1.374 . S
C1771 H1751 0.950 . S
C1771 C1767 1.385 . S
C1771 C1770 1.374 . S
C1772 C1769 1.499 . S
C1772 C1773 1.373 . S
C1772 C1774 1.389 . S
C1773 H1752 0.950 . S
C1773 C1772 1.373 . S
C1773 C1789 1.377 . S
C1774 C1772 1.389 . S
C1774 C1775 1.524 . S
C1774 C1788 1.377 . S
C1775 C1774 1.524 . S
C1775 C1776 1.397 . S
C1775 C1780 1.363 . S
C1776 H1753 0.950 . S
C1776 C1775 1.397 . S
C1776 C1777 1.334 . S
C1777 H1754 0.950 . S
C1777 C1776 1.334 . S
C1777 C1778 1.287 . S
C1778 C1777 1.287 . S
C1778 C1779 1.524 . S
C1778 H1797 0.913 . S
C1779 H1755 0.950 . S
C1779 C1778 1.524 . S
C1779 C1780 1.415 . S
C1780 H1756 0.950 . S
C1780 C1775 1.363 . S
C1780 C1779 1.415 . S
C1781 H1757 0.951 . S
C1781 C1782 1.366 . S
C1781 C1783 1.388 . S
C1782 C1781 1.366 . S
C1782 C1786 1.385 . S
C1783 H1758 0.951 . S
C1783 C1781 1.388 . S
C1783 C1784 1.366 . S
C1784 C1783 1.366 . S
C1784 C1785 1.414 . S
C1784 C1787 1.499 . S
C1785 H1759 0.950 . S
C1785 C1784 1.414 . S
C1785 C1786 1.374 . S
C1786 H1760 0.950 . S
C1786 C1782 1.385 . S
C1786 C1785 1.374 . S
C1787 C1784 1.499 . S
C1787 C1788 1.373 . S
C1787 C1789 1.389 . S
C1788 H1761 0.950 . S
C1788 C1774 1.377 . S
C1788 C1787 1.373 . S
C1789 C1773 1.377 . S
C1789 C1787 1.389 . S
C1789 C1790 1.524 . S
C1790 C1789 1.524 . S
C1790 C1791 1.397 . S
C1790 C1795 1.363 . S
C1791 H1762 0.950 . S
C1791 C1790 1.397 . S
C1791 C1792 1.334 . S
C1792 H1763 0.950 . S
C1792 C1791 1.334 . S
C1792 C1793 1.287 . S
C1793 C1792 1.287 . S
C1793 C1794 1.524 . S
C1793 H1796 0.999 . S
C1794 H1764 0.950 . S
C1794 C1793 1.524 . S
C1794 C1795 1.415 . S
C1795 H1765 0.950 . S
C1795 C1790 1.363 . S
C1795 C1794 1.415 . S
H1796 C1793 0.999 . S
H1797 C1778 0.913 . S
H1798 C1816 0.951 . S
H1799 C1818 0.951 . S
H1800 C1820 0.950 . S
H1801 C1821 0.950 . S
H1802 C1823 0.950 . S
H1803 C1826 0.950 . S
H1804 C1827 0.950 . S
H1805 C1829 0.950 . S
H1806 C1830 0.950 . S
H1807 C1831 0.951 . S
H1808 C1833 0.951 . S
H1809 C1835 0.950 . S
H1810 C1836 0.950 . S
H1811 C1838 0.950 . S
H1812 C1841 0.950 . S
H1813 C1842 0.950 . S
H1814 C1844 0.950 . S
H1815 C1845 0.950 . S
C1816 H1798 0.951 . S
C1816 C1817 1.366 . S
C1816 C1818 1.388 . S
C1817 C1816 1.366 . S
C1817 C1821 1.385 . S
C1818 H1799 0.951 . S
C1818 C1816 1.388 . S
C1818 C1819 1.366 . S
C1819 C1818 1.366 . S
C1819 C1820 1.414 . S
C1819 C1822 1.499 . S
C1820 H1800 0.950 . S
C1820 C1819 1.414 . S
C1820 C1821 1.374 . S
C1821 H1801 0.950 . S
C1821 C1817 1.385 . S
C1821 C1820 1.374 . S
C1822 C1819 1.499 . S
C1822 C1823 1.373 . S
C1822 C1824 1.389 . S
C1823 H1802 0.950 . S
C1823 C1822 1.373 . S
C1823 C1839 1.377 . S
C1824 C1822 1.389 . S
C1824 C1825 1.524 . S
C1824 C1838 1.377 . S
C1825 C1824 1.524 . S
C1825 C1826 1.397 . S
C1825 C1830 1.363 . S
C1826 H1803 0.950 . S
C1826 C1825 1.397 . S
C1826 C1827 1.334 . S
C1827 H1804 0.950 . S
C1827 C1826 1.334 . S
C1827 C1828 1.287 . S
C1828 C1827 1.287 . S
C1828 C1829 1.524 . S
C1828 H1847 0.913 . S
C1829 H1805 0.950 . S
C1829 C1828 1.524 . S
C1829 C1830 1.415 . S
C1830 H1806 0.950 . S
C1830 C1825 1.363 . S
C1830 C1829 1.415 . S
C1831 H1807 0.951 . S
C1831 C1832 1.366 . S
C1831 C1833 1.388 . S
C1832 C1831 1.366 . S
C1832 C1836 1.385 . S
C1833 H1808 0.951 . S
C1833 C1831 1.388 . S
C1833 C1834 1.366 . S
C1834 C1833 1.366 . S
C1834 C1835 1.414 . S
C1834 C1837 1.499 . S
C1835 H1809 0.950 . S
C1835 C1834 1.414 . S
C1835 C1836 1.374 . S
C1836 H1810 0.950 . S
C1836 C1832 1.385 . S
C1836 C1835 1.374 . S
C1837 C1834 1.499 . S
C1837 C1838 1.373 . S
C1837 C1839 1.389 . S
C1838 H1811 0.950 . S
C1838 C1824 1.377 . S
C1838 C1837 1.373 . S
C1839 C1823 1.377 . S
C1839 C1837 1.389 . S
C1839 C1840 1.524 . S
C1840 C1839 1.524 . S
C1840 C1841 1.397 . S
C1840 C1845 1.363 . S
C1841 H1812 0.950 . S
C1841 C1840 1.397 . S
C1841 C1842 1.334 . S
C1842 H1813 0.950 . S
C1842 C1841 1.334 . S
C1842 C1843 1.287 . S
C1843 C1842 1.287 . S
C1843 C1844 1.524 . S
C1843 H1846 0.999 . S
C1844 H1814 0.950 . S
C1844 C1843 1.524 . S
C1844 C1845 1.415 . S
C1845 H1815 0.950 . S
C1845 C1840 1.363 . S
C1845 C1844 1.415 . S
H1846 C1843 0.999 . S
H1847 C1828 0.913 . S
H1848 C1866 0.951 . S
H1849 C1868 0.951 . S
H1850 C1870 0.950 . S
H1851 C1871 0.950 . S
H1852 C1873 0.950 . S
H1853 C1876 0.950 . S
H1854 C1877 0.950 . S
H1855 C1879 0.950 . S
H1856 C1880 0.950 . S
H1857 C1881 0.951 . S
H1858 C1883 0.951 . S
H1859 C1885 0.950 . S
H1860 C1886 0.950 . S
H1861 C1888 0.950 . S
H1862 C1891 0.950 . S
H1863 C1892 0.950 . S
H1864 C1894 0.950 . S
H1865 C1895 0.950 . S
C1866 H1848 0.951 . S
C1866 C1867 1.366 . S
C1866 C1868 1.388 . S
C1867 C1866 1.366 . S
C1867 C1871 1.385 . S
C1868 H1849 0.951 . S
C1868 C1866 1.388 . S
C1868 C1869 1.366 . S
C1869 C1868 1.366 . S
C1869 C1870 1.414 . S
C1869 C1872 1.499 . S
C1870 H1850 0.950 . S
C1870 C1869 1.414 . S
C1870 C1871 1.374 . S
C1871 H1851 0.950 . S
C1871 C1867 1.385 . S
C1871 C1870 1.374 . S
C1872 C1869 1.499 . S
C1872 C1873 1.373 . S
C1872 C1874 1.389 . S
C1873 H1852 0.950 . S
C1873 C1872 1.373 . S
C1873 C1889 1.377 . S
C1874 C1872 1.389 . S
C1874 C1875 1.524 . S
C1874 C1888 1.377 . S
C1875 C1874 1.524 . S
C1875 C1876 1.397 . S
C1875 C1880 1.363 . S
C1876 H1853 0.950 . S
C1876 C1875 1.397 . S
C1876 C1877 1.334 . S
C1877 H1854 0.950 . S
C1877 C1876 1.334 . S
C1877 C1878 1.287 . S
C1878 C1877 1.287 . S
C1878 C1879 1.524 . S
C1878 H1897 0.913 . S
C1879 H1855 0.950 . S
C1879 C1878 1.524 . S
C1879 C1880 1.415 . S
C1880 H1856 0.950 . S
C1880 C1875 1.363 . S
C1880 C1879 1.415 . S
C1881 H1857 0.951 . S
C1881 C1882 1.366 . S
C1881 C1883 1.388 . S
C1882 C1881 1.366 . S
C1882 C1886 1.385 . S
C1883 H1858 0.951 . S
C1883 C1881 1.388 . S
C1883 C1884 1.366 . S
C1884 C1883 1.366 . S
C1884 C1885 1.414 . S
C1884 C1887 1.499 . S
C1885 H1859 0.950 . S
C1885 C1884 1.414 . S
C1885 C1886 1.374 . S
C1886 H1860 0.950 . S
C1886 C1882 1.385 . S
C1886 C1885 1.374 . S
C1887 C1884 1.499 . S
C1887 C1888 1.373 . S
C1887 C1889 1.389 . S
C1888 H1861 0.950 . S
C1888 C1874 1.377 . S
C1888 C1887 1.373 . S
C1889 C1873 1.377 . S
C1889 C1887 1.389 . S
C1889 C1890 1.524 . S
C1890 C1889 1.524 . S
C1890 C1891 1.397 . S
C1890 C1895 1.363 . S
C1891 H1862 0.950 . S
C1891 C1890 1.397 . S
C1891 C1892 1.334 . S
C1892 H1863 0.950 . S
C1892 C1891 1.334 . S
C1892 C1893 1.287 . S
C1893 C1892 1.287 . S
C1893 C1894 1.524 . S
C1893 H1896 0.999 . S
C1894 H1864 0.950 . S
C1894 C1893 1.524 . S
C1894 C1895 1.415 . S
C1895 H1865 0.950 . S
C1895 C1890 1.363 . S
C1895 C1894 1.415 . S
H1896 C1893 0.999 . S
H1897 C1878 0.913 . S
H1898 C1916 0.951 . S
H1899 C1918 0.951 . S
H1900 C1920 0.950 . S
H1901 C1921 0.950 . S
H1902 C1923 0.950 . S
H1903 C1926 0.950 . S
H1904 C1927 0.950 . S
H1905 C1929 0.950 . S
H1906 C1930 0.950 . S
H1907 C1931 0.951 . S
H1908 C1933 0.951 . S
H1909 C1935 0.950 . S
H1910 C1936 0.950 . S
H1911 C1938 0.950 . S
H1912 C1941 0.950 . S
H1913 C1942 0.950 . S
H1914 C1944 0.950 . S
H1915 C1945 0.950 . S
C1916 H1898 0.951 . S
C1916 C1917 1.366 . S
C1916 C1918 1.388 . S
C1917 C1916 1.366 . S
C1917 C1921 1.385 . S
C1918 H1899 0.951 . S
C1918 C1916 1.388 . S
C1918 C1919 1.366 . S
C1919 C1918 1.366 . S
C1919 C1920 1.414 . S
C1919 C1922 1.499 . S
C1920 H1900 0.950 . S
C1920 C1919 1.414 . S
C1920 C1921 1.374 . S
C1921 H1901 0.950 . S
C1921 C1917 1.385 . S
C1921 C1920 1.374 . S
C1922 C1919 1.499 . S
C1922 C1923 1.373 . S
C1922 C1924 1.389 . S
C1923 H1902 0.950 . S
C1923 C1922 1.373 . S
C1923 C1939 1.377 . S
C1924 C1922 1.389 . S
C1924 C1925 1.524 . S
C1924 C1938 1.377 . S
C1925 C1924 1.524 . S
C1925 C1926 1.397 . S
C1925 C1930 1.363 . S
C1926 H1903 0.950 . S
C1926 C1925 1.397 . S
C1926 C1927 1.334 . S
C1927 H1904 0.950 . S
C1927 C1926 1.334 . S
C1927 C1928 1.287 . S
C1928 C1927 1.287 . S
C1928 C1929 1.524 . S
C1928 H1947 0.913 . S
C1929 H1905 0.950 . S
C1929 C1928 1.524 . S
C1929 C1930 1.415 . S
C1930 H1906 0.950 . S
C1930 C1925 1.363 . S
C1930 C1929 1.415 . S
C1931 H1907 0.951 . S
C1931 C1932 1.366 . S
C1931 C1933 1.388 . S
C1932 C1931 1.366 . S
C1932 C1936 1.385 . S
C1933 H1908 0.951 . S
C1933 C1931 1.388 . S
C1933 C1934 1.366 . S
C1934 C1933 1.366 . S
C1934 C1935 1.414 . S
C1934 C1937 1.499 . S
C1935 H1909 0.950 . S
C1935 C1934 1.414 . S
C1935 C1936 1.374 . S
C1936 H1910 0.950 . S
C1936 C1932 1.385 . S
C1936 C1935 1.374 . S
C1937 C1934 1.499 . S
C1937 C1938 1.373 . S
C1937 C1939 1.389 . S
C1938 H1911 0.950 . S
C1938 C1924 1.377 . S
C1938 C1937 1.373 . S
C1939 C1923 1.377 . S
C1939 C1937 1.389 . S
C1939 C1940 1.524 . S
C1940 C1939 1.524 . S
C1940 C1941 1.397 . S
C1940 C1945 1.363 . S
C1941 H1912 0.950 . S
C1941 C1940 1.397 . S
C1941 C1942 1.334 . S
C1942 H1913 0.950 . S
C1942 C1941 1.334 . S
C1942 C1943 1.287 . S
C1943 C1942 1.287 . S
C1943 C1944 1.524 . S
C1943 H1946 0.999 . S
C1944 H1914 0.950 . S
C1944 C1943 1.524 . S
C1944 C1945 1.415 . S
C1945 H1915 0.950 . S
C1945 C1940 1.363 . S
C1945 C1944 1.415 . S
H1946 C1943 0.999 . S
H1947 C1928 0.913 . S
H1948 C1966 0.951 . S
H1949 C1968 0.951 . S
H1950 C1970 0.950 . S
H1951 C1971 0.950 . S
H1952 C1973 0.950 . S
H1953 C1976 0.950 . S
H1954 C1977 0.950 . S
H1955 C1979 0.950 . S
H1956 C1980 0.950 . S
H1957 C1981 0.951 . S
H1958 C1983 0.951 . S
H1959 C1985 0.950 . S
H1960 C1986 0.950 . S
H1961 C1988 0.950 . S
H1962 C1991 0.950 . S
H1963 C1992 0.950 . S
H1964 C1994 0.950 . S
H1965 C1995 0.950 . S
C1966 H1948 0.951 . S
C1966 C1967 1.366 . S
C1966 C1968 1.388 . S
C1967 C1966 1.366 . S
C1967 C1971 1.385 . S
C1968 H1949 0.951 . S
C1968 C1966 1.388 . S
C1968 C1969 1.366 . S
C1969 C1968 1.366 . S
C1969 C1970 1.414 . S
C1969 C1972 1.499 . S
C1970 H1950 0.950 . S
C1970 C1969 1.414 . S
C1970 C1971 1.374 . S
C1971 H1951 0.950 . S
C1971 C1967 1.385 . S
C1971 C1970 1.374 . S
C1972 C1969 1.499 . S
C1972 C1973 1.373 . S
C1972 C1974 1.389 . S
C1973 H1952 0.950 . S
C1973 C1972 1.373 . S
C1973 C1989 1.377 . S
C1974 C1972 1.389 . S
C1974 C1975 1.524 . S
C1974 C1988 1.377 . S
C1975 C1974 1.524 . S
C1975 C1976 1.397 . S
C1975 C1980 1.363 . S
C1976 H1953 0.950 . S
C1976 C1975 1.397 . S
C1976 C1977 1.334 . S
C1977 H1954 0.950 . S
C1977 C1976 1.334 . S
C1977 C1978 1.287 . S
C1978 C1977 1.287 . S
C1978 C1979 1.524 . S
C1978 H1997 0.913 . S
C1979 H1955 0.950 . S
C1979 C1978 1.524 . S
C1979 C1980 1.415 . S
C1980 H1956 0.950 . S
C1980 C1975 1.363 . S
C1980 C1979 1.415 . S
C1981 H1957 0.951 . S
C1981 C1982 1.366 . S
C1981 C1983 1.388 . S
C1982 C1981 1.366 . S
C1982 C1986 1.385 . S
C1983 H1958 0.951 . S
C1983 C1981 1.388 . S
C1983 C1984 1.366 . S
C1984 C1983 1.366 . S
C1984 C1985 1.414 . S
C1984 C1987 1.499 . S
C1985 H1959 0.950 . S
C1985 C1984 1.414 . S
C1985 C1986 1.374 . S
C1986 H1960 0.950 . S
C1986 C1982 1.385 . S
C1986 C1985 1.374 . S
C1987 C1984 1.499 . S
C1987 C1988 1.373 . S
C1987 C1989 1.389 . S
C1988 H1961 0.950 . S
C1988 C1974 1.377 . S
C1988 C1987 1.373 . S
C1989 C1973 1.377 . S
C1989 C1987 1.389 . S
C1989 C1990 1.524 . S
C1990 C1989 1.524 . S
C1990 C1991 1.397 . S
C1990 C1995 1.363 . S
C1991 H1962 0.950 . S
C1991 C1990 1.397 . S
C1991 C1992 1.334 . S
C1992 H1963 0.950 . S
C1992 C1991 1.334 . S
C1992 C1993 1.287 . S
C1993 C1992 1.287 . S
C1993 C1994 1.524 . S
C1993 H1996 0.999 . S
C1994 H1964 0.950 . S
C1994 C1993 1.524 . S
C1994 C1995 1.415 . S
C1995 H1965 0.950 . S
C1995 C1990 1.363 . S
C1995 C1994 1.415 . S
H1996 C1993 0.999 . S
H1997 C1978 0.913 . S
H1998 C2016 0.951 . S
H1999 C2018 0.951 . S
H2000 C2020 0.950 . S
H2001 C2021 0.950 . S
H2002 C2023 0.950 . S
H2003 C2026 0.950 . S
H2004 C2027 0.950 . S
H2005 C2029 0.950 . S
H2006 C2030 0.950 . S
H2007 C2031 0.951 . S
H2008 C2033 0.951 . S
H2009 C2035 0.950 . S
H2010 C2036 0.950 . S
H2011 C2038 0.950 . S
H2012 C2041 0.950 . S
H2013 C2042 0.950 . S
H2014 C2044 0.950 . S
H2015 C2045 0.950 . S
C2016 H1998 0.951 . S
C2016 C2017 1.366 . S
C2016 C2018 1.388 . S
C2017 C2016 1.366 . S
C2017 C2021 1.385 . S
C2018 H1999 0.951 . S
C2018 C2016 1.388 . S
C2018 C2019 1.366 . S
C2019 C2018 1.366 . S
C2019 C2020 1.414 . S
C2019 C2022 1.499 . S
C2020 H2000 0.950 . S
C2020 C2019 1.414 . S
C2020 C2021 1.374 . S
C2021 H2001 0.950 . S
C2021 C2017 1.385 . S
C2021 C2020 1.374 . S
C2022 C2019 1.499 . S
C2022 C2023 1.373 . S
C2022 C2024 1.389 . S
C2023 H2002 0.950 . S
C2023 C2022 1.373 . S
C2023 C2039 1.377 . S
C2024 C2022 1.389 . S
C2024 C2025 1.524 . S
C2024 C2038 1.377 . S
C2025 C2024 1.524 . S
C2025 C2026 1.397 . S
C2025 C2030 1.363 . S
C2026 H2003 0.950 . S
C2026 C2025 1.397 . S
C2026 C2027 1.334 . S
C2027 H2004 0.950 . S
C2027 C2026 1.334 . S
C2027 C2028 1.287 . S
C2028 C2027 1.287 . S
C2028 C2029 1.524 . S
C2028 H2047 0.913 . S
C2029 H2005 0.950 . S
C2029 C2028 1.524 . S
C2029 C2030 1.415 . S
C2030 H2006 0.950 . S
C2030 C2025 1.363 . S
C2030 C2029 1.415 . S
C2031 H2007 0.951 . S
C2031 C2032 1.366 . S
C2031 C2033 1.388 . S
C2032 C2031 1.366 . S
C2032 C2036 1.385 . S
C2033 H2008 0.951 . S
C2033 C2031 1.388 . S
C2033 C2034 1.366 . S
C2034 C2033 1.366 . S
C2034 C2035 1.414 . S
C2034 C2037 1.499 . S
C2035 H2009 0.950 . S
C2035 C2034 1.414 . S
C2035 C2036 1.374 . S
C2036 H2010 0.950 . S
C2036 C2032 1.385 . S
C2036 C2035 1.374 . S
C2037 C2034 1.499 . S
C2037 C2038 1.373 . S
C2037 C2039 1.389 . S
C2038 H2011 0.950 . S
C2038 C2024 1.377 . S
C2038 C2037 1.373 . S
C2039 C2023 1.377 . S
C2039 C2037 1.389 . S
C2039 C2040 1.524 . S
C2040 C2039 1.524 . S
C2040 C2041 1.397 . S
C2040 C2045 1.363 . S
C2041 H2012 0.950 . S
C2041 C2040 1.397 . S
C2041 C2042 1.334 . S
C2042 H2013 0.950 . S
C2042 C2041 1.334 . S
C2042 C2043 1.287 . S
C2043 C2042 1.287 . S
C2043 C2044 1.524 . S
C2043 H2046 0.999 . S
C2044 H2014 0.950 . S
C2044 C2043 1.524 . S
C2044 C2045 1.415 . S
C2045 H2015 0.950 . S
C2045 C2040 1.363 . S
C2045 C2044 1.415 . S
H2046 C2043 0.999 . S
H2047 C2028 0.913 . S
H2048 C2066 0.951 . S
H2049 C2068 0.951 . S
H2050 C2070 0.950 . S
H2051 C2071 0.950 . S
H2052 C2073 0.950 . S
H2053 C2076 0.950 . S
H2054 C2077 0.950 . S
H2055 C2079 0.950 . S
H2056 C2080 0.950 . S
H2057 C2081 0.951 . S
H2058 C2083 0.951 . S
H2059 C2085 0.950 . S
H2060 C2086 0.950 . S
H2061 C2088 0.950 . S
H2062 C2091 0.950 . S
H2063 C2092 0.950 . S
H2064 C2094 0.950 . S
H2065 C2095 0.950 . S
C2066 H2048 0.951 . S
C2066 C2067 1.366 . S
C2066 C2068 1.388 . S
C2067 C2066 1.366 . S
C2067 C2071 1.385 . S
C2068 H2049 0.951 . S
C2068 C2066 1.388 . S
C2068 C2069 1.366 . S
C2069 C2068 1.366 . S
C2069 C2070 1.414 . S
C2069 C2072 1.499 . S
C2070 H2050 0.950 . S
C2070 C2069 1.414 . S
C2070 C2071 1.374 . S
C2071 H2051 0.950 . S
C2071 C2067 1.385 . S
C2071 C2070 1.374 . S
C2072 C2069 1.499 . S
C2072 C2073 1.373 . S
C2072 C2074 1.389 . S
C2073 H2052 0.950 . S
C2073 C2072 1.373 . S
C2073 C2089 1.377 . S
C2074 C2072 1.389 . S
C2074 C2075 1.524 . S
C2074 C2088 1.377 . S
C2075 C2074 1.524 . S
C2075 C2076 1.397 . S
C2075 C2080 1.363 . S
C2076 H2053 0.950 . S
C2076 C2075 1.397 . S
C2076 C2077 1.334 . S
C2077 H2054 0.950 . S
C2077 C2076 1.334 . S
C2077 C2078 1.287 . S
C2078 C2077 1.287 . S
C2078 C2079 1.524 . S
C2078 H2097 0.913 . S
C2079 H2055 0.950 . S
C2079 C2078 1.524 . S
C2079 C2080 1.415 . S
C2080 H2056 0.950 . S
C2080 C2075 1.363 . S
C2080 C2079 1.415 . S
C2081 H2057 0.951 . S
C2081 C2082 1.366 . S
C2081 C2083 1.388 . S
C2082 C2081 1.366 . S
C2082 C2086 1.385 . S
C2083 H2058 0.951 . S
C2083 C2081 1.388 . S
C2083 C2084 1.366 . S
C2084 C2083 1.366 . S
C2084 C2085 1.414 . S
C2084 C2087 1.499 . S
C2085 H2059 0.950 . S
C2085 C2084 1.414 . S
C2085 C2086 1.374 . S
C2086 H2060 0.950 . S
C2086 C2082 1.385 . S
C2086 C2085 1.374 . S
C2087 C2084 1.499 . S
C2087 C2088 1.373 . S
C2087 C2089 1.389 . S
C2088 H2061 0.950 . S
C2088 C2074 1.377 . S
C2088 C2087 1.373 . S
C2089 C2073 1.377 . S
C2089 C2087 1.389 . S
C2089 C2090 1.524 . S
C2090 C2089 1.524 . S
C2090 C2091 1.397 . S
C2090 C2095 1.363 . S
C2091 H2062 0.950 . S
C2091 C2090 1.397 . S
C2091 C2092 1.334 . S
C2092 H2063 0.950 . S
C2092 C2091 1.334 . S
C2092 C2093 1.287 . S
C2093 C2092 1.287 . S
C2093 C2094 1.524 . S
C2093 H2096 0.999 . S
C2094 H2064 0.950 . S
C2094 C2093 1.524 . S
C2094 C2095 1.415 . S
C2095 H2065 0.950 . S
C2095 C2090 1.363 . S
C2095 C2094 1.415 . S
H2096 C2093 0.999 . S
H2097 C2078 0.913 . S
H2098 C2116 0.951 . S
H2099 C2118 0.951 . S
H2100 C2120 0.950 . S
H2101 C2121 0.950 . S
H2102 C2123 0.950 . S
H2103 C2126 0.950 . S
H2104 C2127 0.950 . S
H2105 C2129 0.950 . S
H2106 C2130 0.950 . S
H2107 C2131 0.951 . S
H2108 C2133 0.951 . S
H2109 C2135 0.950 . S
H2110 C2136 0.950 . S
H2111 C2138 0.950 . S
H2112 C2141 0.950 . S
H2113 C2142 0.950 . S
H2114 C2144 0.950 . S
H2115 C2145 0.950 . S
C2116 H2098 0.951 . S
C2116 C2117 1.366 . S
C2116 C2118 1.388 . S
C2117 C2116 1.366 . S
C2117 C2121 1.385 . S
C2118 H2099 0.951 . S
C2118 C2116 1.388 . S
C2118 C2119 1.366 . S
C2119 C2118 1.366 . S
C2119 C2120 1.414 . S
C2119 C2122 1.499 . S
C2120 H2100 0.950 . S
C2120 C2119 1.414 . S
C2120 C2121 1.374 . S
C2121 H2101 0.950 . S
C2121 C2117 1.385 . S
C2121 C2120 1.374 . S
C2122 C2119 1.499 . S
C2122 C2123 1.373 . S
C2122 C2124 1.389 . S
C2123 H2102 0.950 . S
C2123 C2122 1.373 . S
C2123 C2139 1.377 . S
C2124 C2122 1.389 . S
C2124 C2125 1.524 . S
C2124 C2138 1.377 . S
C2125 C2124 1.524 . S
C2125 C2126 1.397 . S
C2125 C2130 1.363 . S
C2126 H2103 0.950 . S
C2126 C2125 1.397 . S
C2126 C2127 1.334 . S
C2127 H2104 0.950 . S
C2127 C2126 1.334 . S
C2127 C2128 1.287 . S
C2128 C2127 1.287 . S
C2128 C2129 1.524 . S
C2128 H2147 0.913 . S
C2129 H2105 0.950 . S
C2129 C2128 1.524 . S
C2129 C2130 1.415 . S
C2130 H2106 0.950 . S
C2130 C2125 1.363 . S
C2130 C2129 1.415 . S
C2131 H2107 0.951 . S
C2131 C2132 1.366 . S
C2131 C2133 1.388 1_655 S
C2132 C2131 1.366 . S
C2132 C2136 1.385 . S
C2133 H2108 0.951 . S
C2133 C2131 1.388 1_455 S
C2133 C2134 1.366 . S
C2134 C2133 1.366 . S
C2134 C2135 1.414 1_455 S
C2134 C2137 1.499 . S
C2135 H2109 0.950 . S
C2135 C2134 1.414 1_655 S
C2135 C2136 1.374 . S
C2136 H2110 0.950 . S
C2136 C2132 1.385 . S
C2136 C2135 1.374 . S
C2137 C2134 1.499 . S
C2137 C2138 1.373 . S
C2137 C2139 1.389 . S
C2138 H2111 0.950 . S
C2138 C2124 1.377 . S
C2138 C2137 1.373 . S
C2139 C2123 1.377 . S
C2139 C2137 1.389 . S
C2139 C2140 1.524 . S
C2140 C2139 1.524 . S
C2140 C2141 1.397 . S
C2140 C2145 1.363 . S
C2141 H2112 0.950 . S
C2141 C2140 1.397 . S
C2141 C2142 1.334 . S
C2142 H2113 0.950 . S
C2142 C2141 1.334 . S
C2142 C2143 1.287 . S
C2143 C2142 1.287 . S
C2143 C2144 1.524 . S
C2143 H2146 0.999 . S
C2144 H2114 0.950 . S
C2144 C2143 1.524 . S
C2144 C2145 1.415 . S
C2145 H2115 0.950 . S
C2145 C2140 1.363 . S
C2145 C2144 1.415 . S
H2146 C2143 0.999 . S
H2147 C2128 0.913 . S
H2148 C2166 0.951 . S
H2149 C2168 0.951 . S
H2150 C2170 0.950 . S
H2151 C2171 0.950 . S
H2152 C2173 0.950 . S
H2153 C2176 0.950 . S
H2154 C2177 0.950 . S
H2155 C2179 0.950 . S
H2156 C2180 0.950 . S
H2157 C2181 0.951 . S
H2158 C2183 0.951 . S
H2159 C2185 0.950 . S
H2160 C2186 0.950 . S
H2161 C2188 0.950 . S
H2162 C2191 0.950 . S
H2163 C2192 0.950 . S
H2164 C2194 0.950 . S
H2165 C2195 0.950 . S
C2166 H2148 0.951 . S
C2166 C2167 1.366 . S
C2166 C2168 1.388 . S
C2167 C2166 1.366 . S
C2167 C2171 1.385 . S
C2168 H2149 0.951 . S
C2168 C2166 1.388 . S
C2168 C2169 1.366 . S
C2169 C2168 1.366 . S
C2169 C2170 1.414 . S
C2169 C2172 1.499 . S
C2170 H2150 0.950 . S
C2170 C2169 1.414 . S
C2170 C2171 1.374 . S
C2171 H2151 0.950 . S
C2171 C2167 1.385 . S
C2171 C2170 1.374 . S
C2172 C2169 1.499 . S
C2172 C2173 1.373 . S
C2172 C2174 1.389 . S
C2173 H2152 0.950 . S
C2173 C2172 1.373 . S
C2173 C2189 1.377 . S
C2174 C2172 1.389 . S
C2174 C2175 1.524 . S
C2174 C2188 1.377 . S
C2175 C2174 1.524 . S
C2175 C2176 1.397 . S
C2175 C2180 1.363 . S
C2176 H2153 0.950 . S
C2176 C2175 1.397 . S
C2176 C2177 1.334 . S
C2177 H2154 0.950 . S
C2177 C2176 1.334 . S
C2177 C2178 1.287 . S
C2178 C2177 1.287 . S
C2178 C2179 1.524 . S
C2178 H2197 0.913 . S
C2179 H2155 0.950 . S
C2179 C2178 1.524 . S
C2179 C2180 1.415 . S
C2180 H2156 0.950 . S
C2180 C2175 1.363 . S
C2180 C2179 1.415 . S
C2181 H2157 0.951 . S
C2181 C2182 1.366 . S
C2181 C2183 1.388 . S
C2182 C2181 1.366 . S
C2182 C2186 1.385 . S
C2183 H2158 0.951 . S
C2183 C2181 1.388 . S
C2183 C2184 1.366 . S
C2184 C2183 1.366 . S
C2184 C2185 1.414 . S
C2184 C2187 1.499 . S
C2185 H2159 0.950 . S
C2185 C2184 1.414 . S
C2185 C2186 1.374 . S
C2186 H2160 0.950 . S
C2186 C2182 1.385 . S
C2186 C2185 1.374 . S
C2187 C2184 1.499 . S
C2187 C2188 1.373 . S
C2187 C2189 1.389 . S
C2188 H2161 0.950 . S
C2188 C2174 1.377 . S
C2188 C2187 1.373 . S
C2189 C2173 1.377 . S
C2189 C2187 1.389 . S
C2189 C2190 1.524 . S
C2190 C2189 1.524 . S
C2190 C2191 1.397 . S
C2190 C2195 1.363 . S
C2191 H2162 0.950 . S
C2191 C2190 1.397 . S
C2191 C2192 1.334 . S
C2192 H2163 0.950 . S
C2192 C2191 1.334 . S
C2192 C2193 1.287 . S
C2193 C2192 1.287 . S
C2193 C2194 1.524 . S
C2193 H2196 0.999 . S
C2194 H2164 0.950 . S
C2194 C2193 1.524 . S
C2194 C2195 1.415 . S
C2195 H2165 0.950 . S
C2195 C2190 1.363 . S
C2195 C2194 1.415 . S
H2196 C2193 0.999 . S
H2197 C2178 0.913 . S
H2198 C2216 0.951 . S
H2199 C2218 0.951 . S
H2200 C2220 0.950 . S
H2201 C2221 0.950 . S
H2202 C2223 0.950 . S
H2203 C2226 0.950 . S
H2204 C2227 0.950 . S
H2205 C2229 0.950 . S
H2206 C2230 0.950 . S
H2207 C2231 0.951 . S
H2208 C2233 0.951 . S
H2209 C2235 0.950 . S
H2210 C2236 0.950 . S
H2211 C2238 0.950 . S
H2212 C2241 0.950 . S
H2213 C2242 0.950 . S
H2214 C2244 0.950 . S
H2215 C2245 0.950 . S
C2216 H2198 0.951 . S
C2216 C2217 1.366 . S
C2216 C2218 1.388 . S
C2217 C2216 1.366 . S
C2217 C2221 1.385 . S
C2218 H2199 0.951 . S
C2218 C2216 1.388 . S
C2218 C2219 1.366 . S
C2219 C2218 1.366 . S
C2219 C2220 1.414 . S
C2219 C2222 1.499 . S
C2220 H2200 0.950 . S
C2220 C2219 1.414 . S
C2220 C2221 1.374 . S
C2221 H2201 0.950 . S
C2221 C2217 1.385 . S
C2221 C2220 1.374 . S
C2222 C2219 1.499 . S
C2222 C2223 1.373 . S
C2222 C2224 1.389 . S
C2223 H2202 0.950 . S
C2223 C2222 1.373 . S
C2223 C2239 1.377 . S
C2224 C2222 1.389 . S
C2224 C2225 1.524 . S
C2224 C2238 1.377 . S
C2225 C2224 1.524 . S
C2225 C2226 1.397 . S
C2225 C2230 1.363 . S
C2226 H2203 0.950 . S
C2226 C2225 1.397 . S
C2226 C2227 1.334 . S
C2227 H2204 0.950 . S
C2227 C2226 1.334 . S
C2227 C2228 1.287 . S
C2228 C2227 1.287 . S
C2228 C2229 1.524 . S
C2228 H2247 0.913 . S
C2229 H2205 0.950 . S
C2229 C2228 1.524 . S
C2229 C2230 1.415 . S
C2230 H2206 0.950 . S
C2230 C2225 1.363 . S
C2230 C2229 1.415 . S
C2231 H2207 0.951 . S
C2231 C2232 1.366 . S
C2231 C2233 1.388 . S
C2232 C2231 1.366 . S
C2232 C2236 1.385 . S
C2233 H2208 0.951 . S
C2233 C2231 1.388 . S
C2233 C2234 1.366 . S
C2234 C2233 1.366 . S
C2234 C2235 1.414 . S
C2234 C2237 1.499 . S
C2235 H2209 0.950 . S
C2235 C2234 1.414 . S
C2235 C2236 1.374 . S
C2236 H2210 0.950 . S
C2236 C2232 1.385 . S
C2236 C2235 1.374 . S
C2237 C2234 1.499 . S
C2237 C2238 1.373 . S
C2237 C2239 1.389 . S
C2238 H2211 0.950 . S
C2238 C2224 1.377 . S
C2238 C2237 1.373 . S
C2239 C2223 1.377 . S
C2239 C2237 1.389 . S
C2239 C2240 1.524 . S
C2240 C2239 1.524 . S
C2240 C2241 1.397 . S
C2240 C2245 1.363 . S
C2241 H2212 0.950 . S
C2241 C2240 1.397 . S
C2241 C2242 1.334 . S
C2242 H2213 0.950 . S
C2242 C2241 1.334 . S
C2242 C2243 1.287 . S
C2243 C2242 1.287 . S
C2243 C2244 1.524 . S
C2243 H2246 0.999 . S
C2244 H2214 0.950 . S
C2244 C2243 1.524 . S
C2244 C2245 1.415 . S
C2245 H2215 0.950 . S
C2245 C2240 1.363 . S
C2245 C2244 1.415 . S
H2246 C2243 0.999 . S
H2247 C2228 0.913 . S
H2248 C2266 0.951 . S
H2249 C2268 0.951 . S
H2250 C2270 0.950 . S
H2251 C2271 0.950 . S
H2252 C2273 0.950 . S
H2253 C2276 0.950 . S
H2254 C2277 0.950 . S
H2255 C2279 0.950 . S
H2256 C2280 0.950 . S
H2257 C2281 0.951 . S
H2258 C2283 0.951 . S
H2259 C2285 0.950 . S
H2260 C2286 0.950 . S
H2261 C2288 0.950 . S
H2262 C2291 0.950 . S
H2263 C2292 0.950 . S
H2264 C2294 0.950 . S
H2265 C2295 0.950 . S
C2266 H2248 0.951 . S
C2266 C2267 1.366 . S
C2266 C2268 1.388 . S
C2267 C2266 1.366 . S
C2267 C2271 1.385 . S
C2268 H2249 0.951 . S
C2268 C2266 1.388 . S
C2268 C2269 1.366 . S
C2269 C2268 1.366 . S
C2269 C2270 1.414 . S
C2269 C2272 1.499 . S
C2270 H2250 0.950 . S
C2270 C2269 1.414 . S
C2270 C2271 1.374 . S
C2271 H2251 0.950 . S
C2271 C2267 1.385 . S
C2271 C2270 1.374 . S
C2272 C2269 1.499 . S
C2272 C2273 1.373 . S
C2272 C2274 1.389 . S
C2273 H2252 0.950 . S
C2273 C2272 1.373 . S
C2273 C2289 1.377 . S
C2274 C2272 1.389 . S
C2274 C2275 1.524 . S
C2274 C2288 1.377 . S
C2275 C2274 1.524 . S
C2275 C2276 1.397 . S
C2275 C2280 1.363 . S
C2276 H2253 0.950 . S
C2276 C2275 1.397 . S
C2276 C2277 1.334 . S
C2277 H2254 0.950 . S
C2277 C2276 1.334 . S
C2277 C2278 1.287 . S
C2278 C2277 1.287 . S
C2278 C2279 1.524 . S
C2278 H2297 0.913 . S
C2279 H2255 0.950 . S
C2279 C2278 1.524 . S
C2279 C2280 1.415 . S
C2280 H2256 0.950 . S
C2280 C2275 1.363 . S
C2280 C2279 1.415 . S
C2281 H2257 0.951 . S
C2281 C2282 1.366 . S
C2281 C2283 1.388 . S
C2282 C2281 1.366 . S
C2282 C2286 1.385 . S
C2283 H2258 0.951 . S
C2283 C2281 1.388 . S
C2283 C2284 1.366 . S
C2284 C2283 1.366 . S
C2284 C2285 1.414 . S
C2284 C2287 1.499 . S
C2285 H2259 0.950 . S
C2285 C2284 1.414 . S
C2285 C2286 1.374 . S
C2286 H2260 0.950 . S
C2286 C2282 1.385 . S
C2286 C2285 1.374 . S
C2287 C2284 1.499 . S
C2287 C2288 1.373 . S
C2287 C2289 1.389 . S
C2288 H2261 0.950 . S
C2288 C2274 1.377 . S
C2288 C2287 1.373 . S
C2289 C2273 1.377 . S
C2289 C2287 1.389 . S
C2289 C2290 1.524 . S
C2290 C2289 1.524 . S
C2290 C2291 1.397 . S
C2290 C2295 1.363 . S
C2291 H2262 0.950 . S
C2291 C2290 1.397 . S
C2291 C2292 1.334 . S
C2292 H2263 0.950 . S
C2292 C2291 1.334 . S
C2292 C2293 1.287 . S
C2293 C2292 1.287 . S
C2293 C2294 1.524 . S
C2293 H2296 0.999 . S
C2294 H2264 0.950 . S
C2294 C2293 1.524 . S
C2294 C2295 1.415 . S
C2295 H2265 0.950 . S
C2295 C2290 1.363 . S
C2295 C2294 1.415 . S
H2296 C2293 0.999 . S
H2297 C2278 0.913 . S
H2298 C2316 0.951 . S
H2299 C2318 0.951 . S
H2300 C2320 0.950 . S
H2301 C2321 0.950 . S
H2302 C2323 0.950 . S
H2303 C2326 0.950 . S
H2304 C2327 0.950 . S
H2305 C2329 0.950 . S
H2306 C2330 0.950 . S
H2307 C2331 0.951 . S
H2308 C2333 0.951 . S
H2309 C2335 0.950 . S
H2310 C2336 0.950 . S
H2311 C2338 0.950 . S
H2312 C2341 0.950 . S
H2313 C2342 0.950 . S
H2314 C2344 0.950 . S
H2315 C2345 0.950 . S
C2316 H2298 0.951 . S
C2316 C2317 1.366 . S
C2316 C2318 1.388 . S
C2317 C2316 1.366 . S
C2317 C2321 1.385 . S
C2318 H2299 0.951 . S
C2318 C2316 1.388 . S
C2318 C2319 1.366 . S
C2319 C2318 1.366 . S
C2319 C2320 1.414 . S
C2319 C2322 1.499 . S
C2320 H2300 0.950 . S
C2320 C2319 1.414 . S
C2320 C2321 1.374 . S
C2321 H2301 0.950 . S
C2321 C2317 1.385 . S
C2321 C2320 1.374 . S
C2322 C2319 1.499 . S
C2322 C2323 1.373 . S
C2322 C2324 1.389 . S
C2323 H2302 0.950 . S
C2323 C2322 1.373 . S
C2323 C2339 1.377 . S
C2324 C2322 1.389 . S
C2324 C2325 1.524 . S
C2324 C2338 1.377 . S
C2325 C2324 1.524 . S
C2325 C2326 1.397 . S
C2325 C2330 1.363 . S
C2326 H2303 0.950 . S
C2326 C2325 1.397 . S
C2326 C2327 1.334 . S
C2327 H2304 0.950 . S
C2327 C2326 1.334 . S
C2327 C2328 1.287 . S
C2328 C2327 1.287 . S
C2328 C2329 1.524 . S
C2328 H2347 0.913 . S
C2329 H2305 0.950 . S
C2329 C2328 1.524 . S
C2329 C2330 1.415 . S
C2330 H2306 0.950 . S
C2330 C2325 1.363 . S
C2330 C2329 1.415 . S
C2331 H2307 0.951 . S
C2331 C2332 1.366 . S
C2331 C2333 1.388 . S
C2332 C2331 1.366 . S
C2332 C2336 1.385 . S
C2333 H2308 0.951 . S
C2333 C2331 1.388 . S
C2333 C2334 1.366 . S
C2334 C2333 1.366 . S
C2334 C2335 1.414 . S
C2334 C2337 1.499 . S
C2335 H2309 0.950 . S
C2335 C2334 1.414 . S
C2335 C2336 1.374 . S
C2336 H2310 0.950 . S
C2336 C2332 1.385 . S
C2336 C2335 1.374 . S
C2337 C2334 1.499 . S
C2337 C2338 1.373 . S
C2337 C2339 1.389 . S
C2338 H2311 0.950 . S
C2338 C2324 1.377 . S
C2338 C2337 1.373 . S
C2339 C2323 1.377 . S
C2339 C2337 1.389 . S
C2339 C2340 1.524 . S
C2340 C2339 1.524 . S
C2340 C2341 1.397 . S
C2340 C2345 1.363 . S
C2341 H2312 0.950 . S
C2341 C2340 1.397 . S
C2341 C2342 1.334 . S
C2342 H2313 0.950 . S
C2342 C2341 1.334 . S
C2342 C2343 1.287 . S
C2343 C2342 1.287 . S
C2343 C2344 1.524 . S
C2343 H2346 0.999 1_545 S
C2344 H2314 0.950 . S
C2344 C2343 1.524 . S
C2344 C2345 1.415 . S
C2345 H2315 0.950 . S
C2345 C2340 1.363 . S
C2345 C2344 1.415 . S
H2346 C2343 0.999 1_565 S
H2347 C2328 0.913 . S
H2348 C2366 0.951 . S
H2349 C2368 0.951 . S
H2350 C2370 0.950 . S
H2351 C2371 0.950 . S
H2352 C2373 0.950 . S
H2353 C2376 0.950 . S
H2354 C2377 0.950 . S
H2355 C2379 0.950 . S
H2356 C2380 0.950 . S
H2357 C2381 0.951 . S
H2358 C2383 0.951 . S
H2359 C2385 0.950 . S
H2360 C2386 0.950 . S
H2361 C2388 0.950 . S
H2362 C2391 0.950 . S
H2363 C2392 0.950 . S
H2364 C2394 0.950 . S
H2365 C2395 0.950 . S
C2366 H2348 0.951 . S
C2366 C2367 1.366 . S
C2366 C2368 1.388 . S
C2367 C2366 1.366 . S
C2367 C2371 1.385 . S
C2368 H2349 0.951 . S
C2368 C2366 1.388 . S
C2368 C2369 1.366 . S
C2369 C2368 1.366 . S
C2369 C2370 1.414 . S
C2369 C2372 1.499 . S
C2370 H2350 0.950 . S
C2370 C2369 1.414 . S
C2370 C2371 1.374 . S
C2371 H2351 0.950 . S
C2371 C2367 1.385 . S
C2371 C2370 1.374 . S
C2372 C2369 1.499 . S
C2372 C2373 1.373 . S
C2372 C2374 1.389 . S
C2373 H2352 0.950 . S
C2373 C2372 1.373 . S
C2373 C2389 1.377 . S
C2374 C2372 1.389 . S
C2374 C2375 1.524 . S
C2374 C2388 1.377 . S
C2375 C2374 1.524 . S
C2375 C2376 1.397 . S
C2375 C2380 1.363 . S
C2376 H2353 0.950 . S
C2376 C2375 1.397 . S
C2376 C2377 1.334 . S
C2377 H2354 0.950 . S
C2377 C2376 1.334 . S
C2377 C2378 1.287 . S
C2378 C2377 1.287 . S
C2378 C2379 1.524 . S
C2378 H2397 0.913 . S
C2379 H2355 0.950 . S
C2379 C2378 1.524 . S
C2379 C2380 1.415 . S
C2380 H2356 0.950 . S
C2380 C2375 1.363 . S
C2380 C2379 1.415 . S
C2381 H2357 0.951 . S
C2381 C2382 1.366 . S
C2381 C2383 1.388 . S
C2382 C2381 1.366 . S
C2382 C2386 1.385 . S
C2383 H2358 0.951 . S
C2383 C2381 1.388 . S
C2383 C2384 1.366 . S
C2384 C2383 1.366 . S
C2384 C2385 1.414 . S
C2384 C2387 1.499 . S
C2385 H2359 0.950 . S
C2385 C2384 1.414 . S
C2385 C2386 1.374 . S
C2386 H2360 0.950 . S
C2386 C2382 1.385 . S
C2386 C2385 1.374 . S
C2387 C2384 1.499 . S
C2387 C2388 1.373 . S
C2387 C2389 1.389 . S
C2388 H2361 0.950 . S
C2388 C2374 1.377 . S
C2388 C2387 1.373 . S
C2389 C2373 1.377 . S
C2389 C2387 1.389 . S
C2389 C2390 1.524 . S
C2390 C2389 1.524 . S
C2390 C2391 1.397 . S
C2390 C2395 1.363 . S
C2391 H2362 0.950 . S
C2391 C2390 1.397 . S
C2391 C2392 1.334 . S
C2392 H2363 0.950 . S
C2392 C2391 1.334 . S
C2392 C2393 1.287 . S
C2393 C2392 1.287 . S
C2393 C2394 1.524 . S
C2393 H2396 0.999 . S
C2394 H2364 0.950 . S
C2394 C2393 1.524 . S
C2394 C2395 1.415 . S
C2395 H2365 0.950 . S
C2395 C2390 1.363 . S
C2395 C2394 1.415 . S
H2396 C2393 0.999 . S
H2397 C2378 0.913 . S
H2398 C2416 0.951 . S
H2399 C2418 0.951 . S
H2400 C2420 0.950 . S
H2401 C2421 0.950 . S
H2402 C2423 0.950 . S
H2403 C2426 0.950 . S
H2404 C2427 0.950 . S
H2405 C2429 0.950 . S
H2406 C2430 0.950 . S
H2407 C2431 0.951 . S
H2408 C2433 0.951 . S
H2409 C2435 0.950 . S
H2410 C2436 0.950 . S
H2411 C2438 0.950 . S
H2412 C2441 0.952 . S
H2413 C2442 0.950 . S
H2414 C2444 0.950 . S
H2415 C2445 0.950 . S
C2416 H2398 0.951 . S
C2416 C2417 1.366 . S
C2416 C2418 1.388 . S
C2417 C2416 1.366 . S
C2417 C2421 1.385 . S
C2418 H2399 0.951 . S
C2418 C2416 1.388 . S
C2418 C2419 1.366 . S
C2419 C2418 1.366 . S
C2419 C2420 1.414 . S
C2419 C2422 1.499 . S
C2420 H2400 0.950 . S
C2420 C2419 1.414 . S
C2420 C2421 1.374 . S
C2421 H2401 0.950 . S
C2421 C2417 1.385 . S
C2421 C2420 1.374 . S
C2422 C2419 1.499 . S
C2422 C2423 1.373 . S
C2422 C2424 1.389 . S
C2423 H2402 0.950 . S
C2423 C2422 1.373 . S
C2423 C2439 1.377 . S
C2424 C2422 1.389 . S
C2424 C2425 1.524 . S
C2424 C2438 1.377 . S
C2425 C2424 1.524 . S
C2425 C2426 1.397 . S
C2425 C2430 1.363 . S
C2426 H2403 0.950 . S
C2426 C2425 1.397 . S
C2426 C2427 1.334 . S
C2427 H2404 0.950 . S
C2427 C2426 1.334 . S
C2427 C2428 1.287 . S
C2428 C2427 1.287 . S
C2428 C2429 1.524 . S
C2428 H2447 0.913 . S
C2429 H2405 0.950 . S
C2429 C2428 1.524 . S
C2429 C2430 1.415 . S
C2430 H2406 0.950 . S
C2430 C2425 1.363 . S
C2430 C2429 1.415 . S
C2431 H2407 0.951 . S
C2431 C2432 1.366 . S
C2431 C2433 1.388 . S
C2432 C2431 1.366 . S
C2432 C2436 1.385 . S
C2433 H2408 0.951 . S
C2433 C2431 1.388 . S
C2433 C2434 1.366 1_655 S
C2434 C2433 1.366 1_455 S
C2434 C2435 1.414 . S
C2434 C2437 1.499 . S
C2435 H2409 0.950 . S
C2435 C2434 1.414 . S
C2435 C2436 1.374 1_455 S
C2436 H2410 0.950 . S
C2436 C2432 1.385 . S
C2436 C2435 1.374 1_655 S
C2437 C2434 1.499 . S
C2437 C2438 1.373 . S
C2437 C2439 1.389 . S
C2438 H2411 0.950 . S
C2438 C2424 1.377 . S
C2438 C2437 1.373 . S
C2439 C2423 1.377 . S
C2439 C2437 1.389 . S
C2439 C2440 1.524 . S
C2440 C2439 1.524 . S
C2440 C2441 1.397 1_455 S
C2440 C2445 1.363 . S
C2441 H2412 0.952 . S
C2441 C2440 1.397 1_655 S
C2441 C2442 1.334 . S
C2442 H2413 0.950 . S
C2442 C2441 1.334 . S
C2442 C2443 1.287 . S
C2443 C2442 1.287 . S
C2443 C2444 1.524 . S
C2443 H2446 0.999 . S
C2444 H2414 0.950 . S
C2444 C2443 1.524 . S
C2444 C2445 1.415 1_655 S
C2445 H2415 0.950 . S
C2445 C2440 1.363 . S
C2445 C2444 1.415 1_455 S
H2446 C2443 0.999 . S
H2447 C2428 0.913 . S
H2448 C2466 0.951 . S
H2449 C2468 0.951 . S
H2450 C2470 0.950 . S
H2451 C2471 0.950 . S
H2452 C2473 0.950 . S
H2453 C2476 0.950 . S
H2454 C2477 0.950 . S
H2455 C2479 0.950 . S
H2456 C2480 0.950 . S
H2457 C2481 0.951 . S
H2458 C2483 0.951 . S
H2459 C2485 0.950 . S
H2460 C2486 0.950 . S
H2461 C2488 0.950 . S
H2462 C2491 0.950 . S
H2463 C2492 0.950 . S
H2464 C2494 0.950 . S
H2465 C2495 0.950 . S
C2466 H2448 0.951 . S
C2466 C2467 1.366 . S
C2466 C2468 1.388 . S
C2467 C2466 1.366 . S
C2467 C2471 1.385 . S
C2468 H2449 0.951 . S
C2468 C2466 1.388 . S
C2468 C2469 1.366 . S
C2469 C2468 1.366 . S
C2469 C2470 1.414 . S
C2469 C2472 1.499 . S
C2470 H2450 0.950 . S
C2470 C2469 1.414 . S
C2470 C2471 1.374 . S
C2471 H2451 0.950 . S
C2471 C2467 1.385 . S
C2471 C2470 1.374 . S
C2472 C2469 1.499 . S
C2472 C2473 1.373 . S
C2472 C2474 1.389 . S
C2473 H2452 0.950 . S
C2473 C2472 1.373 . S
C2473 C2489 1.377 . S
C2474 C2472 1.389 . S
C2474 C2475 1.524 . S
C2474 C2488 1.377 . S
C2475 C2474 1.524 . S
C2475 C2476 1.397 . S
C2475 C2480 1.363 . S
C2476 H2453 0.950 . S
C2476 C2475 1.397 . S
C2476 C2477 1.334 . S
C2477 H2454 0.950 . S
C2477 C2476 1.334 . S
C2477 C2478 1.287 . S
C2478 C2477 1.287 . S
C2478 C2479 1.524 . S
C2478 H2497 0.913 . S
C2479 H2455 0.950 . S
C2479 C2478 1.524 . S
C2479 C2480 1.415 . S
C2480 H2456 0.950 . S
C2480 C2475 1.363 . S
C2480 C2479 1.415 . S
C2481 H2457 0.951 . S
C2481 C2482 1.366 . S
C2481 C2483 1.388 . S
C2482 C2481 1.366 . S
C2482 C2486 1.385 . S
C2483 H2458 0.951 . S
C2483 C2481 1.388 . S
C2483 C2484 1.366 . S
C2484 C2483 1.366 . S
C2484 C2485 1.414 . S
C2484 C2487 1.499 . S
C2485 H2459 0.950 . S
C2485 C2484 1.414 . S
C2485 C2486 1.374 . S
C2486 H2460 0.950 . S
C2486 C2482 1.385 . S
C2486 C2485 1.374 . S
C2487 C2484 1.499 . S
C2487 C2488 1.373 . S
C2487 C2489 1.389 . S
C2488 H2461 0.950 . S
C2488 C2474 1.377 . S
C2488 C2487 1.373 . S
C2489 C2473 1.377 . S
C2489 C2487 1.389 . S
C2489 C2490 1.524 . S
C2490 C2489 1.524 . S
C2490 C2491 1.397 . S
C2490 C2495 1.363 . S
C2491 H2462 0.950 . S
C2491 C2490 1.397 . S
C2491 C2492 1.334 . S
C2492 H2463 0.950 . S
C2492 C2491 1.334 . S
C2492 C2493 1.287 . S
C2493 C2492 1.287 . S
C2493 C2494 1.524 . S
C2493 H2496 0.999 . S
C2494 H2464 0.950 . S
C2494 C2493 1.524 . S
C2494 C2495 1.415 . S
C2495 H2465 0.950 . S
C2495 C2490 1.363 . S
C2495 C2494 1.415 . S
H2496 C2493 0.999 . S
H2497 C2478 0.913 . S
H2498 C2516 0.951 . S
H2499 C2518 0.951 . S
H2500 C2520 0.950 . S
H2501 C2521 0.950 . S
H2502 C2523 0.950 . S
H2503 C2526 0.950 . S
H2504 C2527 0.924 1_455 S
H2505 C2529 0.950 . S
H2506 C2530 0.950 . S
H2507 C2531 0.951 . S
H2508 C2533 0.951 . S
H2509 C2535 0.950 . S
H2510 C2536 0.950 . S
H2511 C2538 0.950 . S
H2512 C2541 0.950 . S
H2513 C2542 0.950 . S
H2514 C2544 0.950 . S
H2515 C2545 0.950 . S
C2516 H2498 0.951 . S
C2516 C2517 1.366 . S
C2516 C2518 1.388 1_455 S
C2517 C2516 1.366 . S
C2517 C2521 1.385 . S
C2518 H2499 0.951 . S
C2518 C2516 1.388 1_655 S
C2518 C2519 1.366 . S
C2519 C2518 1.366 . S
C2519 C2520 1.414 1_655 S
C2519 C2522 1.499 . S
C2520 H2500 0.950 . S
C2520 C2519 1.414 1_455 S
C2520 C2521 1.374 . S
C2521 H2501 0.950 . S
C2521 C2517 1.385 . S
C2521 C2520 1.374 . S
C2522 C2519 1.499 . S
C2522 C2523 1.373 . S
C2522 C2524 1.389 . S
C2523 H2502 0.950 . S
C2523 C2522 1.373 . S
C2523 C2539 1.377 . S
C2524 C2522 1.389 . S
C2524 C2525 1.524 . S
C2524 C2538 1.377 . S
C2525 C2524 1.524 . S
C2525 C2526 1.397 . S
C2525 C2530 1.363 . S
C2526 H2503 0.950 . S
C2526 C2525 1.397 . S
C2526 C2527 1.334 . S
C2527 H2504 0.924 1_655 S
C2527 C2526 1.334 . S
C2527 C2528 1.287 . S
C2528 C2527 1.287 . S
C2528 C2529 1.524 . S
C2528 H2547 0.913 . S
C2529 H2505 0.950 . S
C2529 C2528 1.524 . S
C2529 C2530 1.415 . S
C2530 H2506 0.950 . S
C2530 C2525 1.363 . S
C2530 C2529 1.415 . S
C2531 H2507 0.951 . S
C2531 C2532 1.366 . S
C2531 C2533 1.388 . S
C2532 C2531 1.366 . S
C2532 C2536 1.385 . S
C2533 H2508 0.951 . S
C2533 C2531 1.388 . S
C2533 C2534 1.366 . S
C2534 C2533 1.366 . S
C2534 C2535 1.414 . S
C2534 C2537 1.499 . S
C2535 H2509 0.950 . S
C2535 C2534 1.414 . S
C2535 C2536 1.374 . S
C2536 H2510 0.950 . S
C2536 C2532 1.385 . S
C2536 C2535 1.374 . S
C2537 C2534 1.499 . S
C2537 C2538 1.373 . S
C2537 C2539 1.389 . S
C2538 H2511 0.950 . S
C2538 C2524 1.377 . S
C2538 C2537 1.373 . S
C2539 C2523 1.377 . S
C2539 C2537 1.389 . S
C2539 C2540 1.524 . S
C2540 C2539 1.524 . S
C2540 C2541 1.397 . S
C2540 C2545 1.363 . S
C2541 H2512 0.950 . S
C2541 C2540 1.397 . S
C2541 C2542 1.334 . S
C2542 H2513 0.950 . S
C2542 C2541 1.334 . S
C2542 C2543 1.287 . S
C2543 C2542 1.287 . S
C2543 C2544 1.524 . S
C2543 H2546 0.999 . S
C2544 H2514 0.950 . S
C2544 C2543 1.524 . S
C2544 C2545 1.415 . S
C2545 H2515 0.950 . S
C2545 C2540 1.363 . S
C2545 C2544 1.415 . S
H2546 C2543 0.999 . S
H2547 C2528 0.913 . S
H2548 C2566 0.951 . S
H2549 C2568 0.951 . S
H2550 C2570 0.950 . S
H2551 C2571 0.950 . S
H2552 C2573 0.950 . S
H2553 C2576 0.950 . S
H2554 C2577 0.950 . S
H2555 C2579 0.950 . S
H2556 C2580 0.950 . S
H2557 C2581 0.951 . S
H2558 C2583 0.951 . S
H2559 C2585 0.950 . S
H2560 C2586 0.950 . S
H2561 C2588 0.950 . S
H2562 C2591 0.950 . S
H2563 C2592 0.950 . S
H2564 C2594 0.950 . S
H2565 C2595 0.950 . S
C2566 H2548 0.951 . S
C2566 C2567 1.366 . S
C2566 C2568 1.388 . S
C2567 C2566 1.366 . S
C2567 C2571 1.385 . S
C2568 H2549 0.951 . S
C2568 C2566 1.388 . S
C2568 C2569 1.366 . S
C2569 C2568 1.366 . S
C2569 C2570 1.414 . S
C2569 C2572 1.499 . S
C2570 H2550 0.950 . S
C2570 C2569 1.414 . S
C2570 C2571 1.374 . S
C2571 H2551 0.950 . S
C2571 C2567 1.385 . S
C2571 C2570 1.374 . S
C2572 C2569 1.499 . S
C2572 C2573 1.373 . S
C2572 C2574 1.389 . S
C2573 H2552 0.950 . S
C2573 C2572 1.373 . S
C2573 C2589 1.377 . S
C2574 C2572 1.389 . S
C2574 C2575 1.524 . S
C2574 C2588 1.377 . S
C2575 C2574 1.524 . S
C2575 C2576 1.397 . S
C2575 C2580 1.363 . S
C2576 H2553 0.950 . S
C2576 C2575 1.397 . S
C2576 C2577 1.334 . S
C2577 H2554 0.950 . S
C2577 C2576 1.334 . S
C2577 C2578 1.287 . S
C2578 C2577 1.287 . S
C2578 C2579 1.524 . S
C2578 H2597 0.913 . S
C2579 H2555 0.950 . S
C2579 C2578 1.524 . S
C2579 C2580 1.415 . S
C2580 H2556 0.950 . S
C2580 C2575 1.363 . S
C2580 C2579 1.415 . S
C2581 H2557 0.951 . S
C2581 C2582 1.366 . S
C2581 C2583 1.388 . S
C2582 C2581 1.366 . S
C2582 C2586 1.385 . S
C2583 H2558 0.951 . S
C2583 C2581 1.388 . S
C2583 C2584 1.366 . S
C2584 C2583 1.366 . S
C2584 C2585 1.414 . S
C2584 C2587 1.499 . S
C2585 H2559 0.950 . S
C2585 C2584 1.414 . S
C2585 C2586 1.374 . S
C2586 H2560 0.950 . S
C2586 C2582 1.385 . S
C2586 C2585 1.374 . S
C2587 C2584 1.499 . S
C2587 C2588 1.373 . S
C2587 C2589 1.389 . S
C2588 H2561 0.950 . S
C2588 C2574 1.377 . S
C2588 C2587 1.373 . S
C2589 C2573 1.377 . S
C2589 C2587 1.389 . S
C2589 C2590 1.524 . S
C2590 C2589 1.524 . S
C2590 C2591 1.397 . S
C2590 C2595 1.363 . S
C2591 H2562 0.950 . S
C2591 C2590 1.397 . S
C2591 C2592 1.334 . S
C2592 H2563 0.950 . S
C2592 C2591 1.334 . S
C2592 C2593 1.287 . S
C2593 C2592 1.287 . S
C2593 C2594 1.524 . S
C2593 H2596 0.999 . S
C2594 H2564 0.950 . S
C2594 C2593 1.524 . S
C2594 C2595 1.415 . S
C2595 H2565 0.950 . S
C2595 C2590 1.363 . S
C2595 C2594 1.415 . S
H2596 C2593 0.999 . S
H2597 C2578 0.913 . S
H2598 C2616 0.951 . S
H2599 C2618 0.951 . S
H2600 C2620 0.950 . S
H2601 C2621 0.950 . S
H2602 C2623 0.950 . S
H2603 C2626 0.950 . S
H2604 C2627 0.950 . S
H2605 C2629 0.950 . S
H2606 C2630 0.950 . S
H2607 C2631 0.951 . S
H2608 C2633 0.951 . S
H2609 C2635 0.950 . S
H2610 C2636 0.950 . S
H2611 C2638 0.950 . S
H2612 C2641 0.950 . S
H2613 C2642 0.950 . S
H2614 C2644 0.950 . S
H2615 C2645 0.950 . S
C2616 H2598 0.951 . S
C2616 C2617 1.366 . S
C2616 C2618 1.388 . S
C2617 C2616 1.366 . S
C2617 C2621 1.385 . S
C2618 H2599 0.951 . S
C2618 C2616 1.388 . S
C2618 C2619 1.366 . S
C2619 C2618 1.366 . S
C2619 C2620 1.414 . S
C2619 C2622 1.499 . S
C2620 H2600 0.950 . S
C2620 C2619 1.414 . S
C2620 C2621 1.374 . S
C2621 H2601 0.950 . S
C2621 C2617 1.385 . S
C2621 C2620 1.374 . S
C2622 C2619 1.499 . S
C2622 C2623 1.373 . S
C2622 C2624 1.389 . S
C2623 H2602 0.950 . S
C2623 C2622 1.373 . S
C2623 C2639 1.377 . S
C2624 C2622 1.389 . S
C2624 C2625 1.524 . S
C2624 C2638 1.377 . S
C2625 C2624 1.524 . S
C2625 C2626 1.397 . S
C2625 C2630 1.363 . S
C2626 H2603 0.950 . S
C2626 C2625 1.397 . S
C2626 C2627 1.334 . S
C2627 H2604 0.950 . S
C2627 C2626 1.334 . S
C2627 C2628 1.287 . S
C2628 C2627 1.287 . S
C2628 C2629 1.524 . S
C2628 H2647 0.913 . S
C2629 H2605 0.950 . S
C2629 C2628 1.524 . S
C2629 C2630 1.415 . S
C2630 H2606 0.950 . S
C2630 C2625 1.363 . S
C2630 C2629 1.415 . S
C2631 H2607 0.951 . S
C2631 C2632 1.366 . S
C2631 C2633 1.388 . S
C2632 C2631 1.366 . S
C2632 C2636 1.385 . S
C2633 H2608 0.951 . S
C2633 C2631 1.388 . S
C2633 C2634 1.366 . S
C2634 C2633 1.366 . S
C2634 C2635 1.414 . S
C2634 C2637 1.499 . S
C2635 H2609 0.950 . S
C2635 C2634 1.414 . S
C2635 C2636 1.374 . S
C2636 H2610 0.950 . S
C2636 C2632 1.385 . S
C2636 C2635 1.374 . S
C2637 C2634 1.499 . S
C2637 C2638 1.373 . S
C2637 C2639 1.389 . S
C2638 H2611 0.950 . S
C2638 C2624 1.377 . S
C2638 C2637 1.373 . S
C2639 C2623 1.377 . S
C2639 C2637 1.389 . S
C2639 C2640 1.524 . S
C2640 C2639 1.524 . S
C2640 C2641 1.397 . S
C2640 C2645 1.363 . S
C2641 H2612 0.950 . S
C2641 C2640 1.397 . S
C2641 C2642 1.334 . S
C2642 H2613 0.950 . S
C2642 C2641 1.334 . S
C2642 C2643 1.287 . S
C2643 C2642 1.287 . S
C2643 C2644 1.524 . S
C2643 H2646 0.999 . S
C2644 H2614 0.950 . S
C2644 C2643 1.524 . S
C2644 C2645 1.415 . S
C2645 H2615 0.950 . S
C2645 C2640 1.363 . S
C2645 C2644 1.415 . S
H2646 C2643 0.999 . S
H2647 C2628 0.913 . S
H2648 C2666 0.951 . S
H2649 C2668 0.951 . S
H2650 C2670 0.950 . S
H2651 C2671 0.950 . S
H2652 C2673 0.950 . S
H2653 C2676 0.950 . S
H2654 C2677 0.950 . S
H2655 C2679 0.950 . S
H2656 C2680 0.950 . S
H2657 C2681 0.951 . S
H2658 C2683 0.951 . S
H2659 C2685 0.950 . S
H2660 C2686 0.950 . S
H2661 C2688 0.950 . S
H2662 C2691 0.950 . S
H2663 C2692 0.950 . S
H2664 C2694 0.950 . S
H2665 C2695 0.950 . S
C2666 H2648 0.951 . S
C2666 C2667 1.366 . S
C2666 C2668 1.388 . S
C2667 C2666 1.366 . S
C2667 C2671 1.385 . S
C2668 H2649 0.951 . S
C2668 C2666 1.388 . S
C2668 C2669 1.366 . S
C2669 C2668 1.366 . S
C2669 C2670 1.414 . S
C2669 C2672 1.499 . S
C2670 H2650 0.950 . S
C2670 C2669 1.414 . S
C2670 C2671 1.374 . S
C2671 H2651 0.950 . S
C2671 C2667 1.385 . S
C2671 C2670 1.374 . S
C2672 C2669 1.499 . S
C2672 C2673 1.373 . S
C2672 C2674 1.389 . S
C2673 H2652 0.950 . S
C2673 C2672 1.373 . S
C2673 C2689 1.377 . S
C2674 C2672 1.389 . S
C2674 C2675 1.524 . S
C2674 C2688 1.377 . S
C2675 C2674 1.524 . S
C2675 C2676 1.397 . S
C2675 C2680 1.363 . S
C2676 H2653 0.950 . S
C2676 C2675 1.397 . S
C2676 C2677 1.334 . S
C2677 H2654 0.950 . S
C2677 C2676 1.334 . S
C2677 C2678 1.287 . S
C2678 C2677 1.287 . S
C2678 C2679 1.524 . S
C2678 H2697 0.913 . S
C2679 H2655 0.950 . S
C2679 C2678 1.524 . S
C2679 C2680 1.415 . S
C2680 H2656 0.950 . S
C2680 C2675 1.363 . S
C2680 C2679 1.415 . S
C2681 H2657 0.951 . S
C2681 C2682 1.366 . S
C2681 C2683 1.388 . S
C2682 C2681 1.366 . S
C2682 C2686 1.385 . S
C2683 H2658 0.951 . S
C2683 C2681 1.388 . S
C2683 C2684 1.366 . S
C2684 C2683 1.366 . S
C2684 C2685 1.414 . S
C2684 C2687 1.499 . S
C2685 H2659 0.950 . S
C2685 C2684 1.414 . S
C2685 C2686 1.374 . S
C2686 H2660 0.950 . S
C2686 C2682 1.385 . S
C2686 C2685 1.374 . S
C2687 C2684 1.499 . S
C2687 C2688 1.373 . S
C2687 C2689 1.389 . S
C2688 H2661 0.950 . S
C2688 C2674 1.377 . S
C2688 C2687 1.373 . S
C2689 C2673 1.377 . S
C2689 C2687 1.389 . S
C2689 C2690 1.524 . S
C2690 C2689 1.524 . S
C2690 C2691 1.397 . S
C2690 C2695 1.363 . S
C2691 H2662 0.950 . S
C2691 C2690 1.397 . S
C2691 C2692 1.334 . S
C2692 H2663 0.950 . S
C2692 C2691 1.334 . S
C2692 C2693 1.287 . S
C2693 C2692 1.287 . S
C2693 C2694 1.524 . S
C2693 H2696 0.999 . S
C2694 H2664 0.950 . S
C2694 C2693 1.524 . S
C2694 C2695 1.415 . S
C2695 H2665 0.950 . S
C2695 C2690 1.363 . S
C2695 C2694 1.415 . S
H2696 C2693 0.999 . S
H2697 C2678 0.913 . S
H2698 C2716 0.951 . S
H2699 C2718 0.951 . S
H2700 C2720 0.950 . S
H2701 C2721 0.950 . S
H2702 C2723 0.950 . S
H2703 C2726 0.950 . S
H2704 C2727 0.950 . S
H2705 C2729 0.950 . S
H2706 C2730 0.950 . S
H2707 C2731 0.951 . S
H2708 C2733 0.951 . S
H2709 C2735 0.950 . S
H2710 C2736 0.950 . S
H2711 C2738 0.950 . S
H2712 C2741 0.950 . S
H2713 C2742 0.950 . S
H2714 C2744 0.950 . S
H2715 C2745 0.950 . S
C2716 H2698 0.951 . S
C2716 C2717 1.366 . S
C2716 C2718 1.388 . S
C2717 C2716 1.366 . S
C2717 C2721 1.385 . S
C2718 H2699 0.951 . S
C2718 C2716 1.388 . S
C2718 C2719 1.366 . S
C2719 C2718 1.366 . S
C2719 C2720 1.414 . S
C2719 C2722 1.499 . S
C2720 H2700 0.950 . S
C2720 C2719 1.414 . S
C2720 C2721 1.374 . S
C2721 H2701 0.950 . S
C2721 C2717 1.385 . S
C2721 C2720 1.374 . S
C2722 C2719 1.499 . S
C2722 C2723 1.373 . S
C2722 C2724 1.389 . S
C2723 H2702 0.950 . S
C2723 C2722 1.373 . S
C2723 C2739 1.377 . S
C2724 C2722 1.389 . S
C2724 C2725 1.524 . S
C2724 C2738 1.377 . S
C2725 C2724 1.524 . S
C2725 C2726 1.397 . S
C2725 C2730 1.363 . S
C2726 H2703 0.950 . S
C2726 C2725 1.397 . S
C2726 C2727 1.334 . S
C2727 H2704 0.950 . S
C2727 C2726 1.334 . S
C2727 C2728 1.287 . S
C2728 C2727 1.287 . S
C2728 C2729 1.524 . S
C2728 H2747 0.913 . S
C2729 H2705 0.950 . S
C2729 C2728 1.524 . S
C2729 C2730 1.415 . S
C2730 H2706 0.950 . S
C2730 C2725 1.363 . S
C2730 C2729 1.415 . S
C2731 H2707 0.951 . S
C2731 C2732 1.366 . S
C2731 C2733 1.388 . S
C2732 C2731 1.366 . S
C2732 C2736 1.385 . S
C2733 H2708 0.951 . S
C2733 C2731 1.388 . S
C2733 C2734 1.366 . S
C2734 C2733 1.366 . S
C2734 C2735 1.414 . S
C2734 C2737 1.499 . S
C2735 H2709 0.950 . S
C2735 C2734 1.414 . S
C2735 C2736 1.374 . S
C2736 H2710 0.950 . S
C2736 C2732 1.385 . S
C2736 C2735 1.374 . S
C2737 C2734 1.499 . S
C2737 C2738 1.373 . S
C2737 C2739 1.389 . S
C2738 H2711 0.950 . S
C2738 C2724 1.377 . S
C2738 C2737 1.373 . S
C2739 C2723 1.377 . S
C2739 C2737 1.389 . S
C2739 C2740 1.524 . S
C2740 C2739 1.524 . S
C2740 C2741 1.397 . S
C2740 C2745 1.363 . S
C2741 H2712 0.950 . S
C2741 C2740 1.397 . S
C2741 C2742 1.334 . S
C2742 H2713 0.950 . S
C2742 C2741 1.334 . S
C2742 C2743 1.287 . S
C2743 C2742 1.287 . S
C2743 C2744 1.524 . S
C2743 H2746 0.999 . S
C2744 H2714 0.950 . S
C2744 C2743 1.524 . S
C2744 C2745 1.415 . S
C2745 H2715 0.950 . S
C2745 C2740 1.363 . S
C2745 C2744 1.415 . S
H2746 C2743 0.999 . S
H2747 C2728 0.913 . S
H2748 C2766 0.951 . S
H2749 C2768 0.951 . S
H2750 C2770 0.950 . S
H2751 C2771 0.950 . S
H2752 C2773 0.950 . S
H2753 C2776 0.950 . S
H2754 C2777 0.950 . S
H2755 C2779 0.950 . S
H2756 C2780 0.950 . S
H2757 C2781 0.951 . S
H2758 C2783 0.951 . S
H2759 C2785 0.950 . S
H2760 C2786 0.950 . S
H2761 C2788 0.950 . S
H2762 C2791 0.950 . S
H2763 C2792 0.950 . S
H2764 C2794 0.950 . S
H2765 C2795 0.950 . S
C2766 H2748 0.951 . S
C2766 C2767 1.366 . S
C2766 C2768 1.388 . S
C2767 C2766 1.366 . S
C2767 C2771 1.385 . S
C2768 H2749 0.951 . S
C2768 C2766 1.388 . S
C2768 C2769 1.366 . S
C2769 C2768 1.366 . S
C2769 C2770 1.414 . S
C2769 C2772 1.499 . S
C2770 H2750 0.950 . S
C2770 C2769 1.414 . S
C2770 C2771 1.374 . S
C2771 H2751 0.950 . S
C2771 C2767 1.385 . S
C2771 C2770 1.374 . S
C2772 C2769 1.499 . S
C2772 C2773 1.373 . S
C2772 C2774 1.389 . S
C2773 H2752 0.950 . S
C2773 C2772 1.373 . S
C2773 C2789 1.377 . S
C2774 C2772 1.389 . S
C2774 C2775 1.524 . S
C2774 C2788 1.377 . S
C2775 C2774 1.524 . S
C2775 C2776 1.397 . S
C2775 C2780 1.363 . S
C2776 H2753 0.950 . S
C2776 C2775 1.397 . S
C2776 C2777 1.334 . S
C2777 H2754 0.950 . S
C2777 C2776 1.334 . S
C2777 C2778 1.287 . S
C2778 C2777 1.287 . S
C2778 C2779 1.524 . S
C2778 H2797 0.913 . S
C2779 H2755 0.950 . S
C2779 C2778 1.524 . S
C2779 C2780 1.415 . S
C2780 H2756 0.950 . S
C2780 C2775 1.363 . S
C2780 C2779 1.415 . S
C2781 H2757 0.951 . S
C2781 C2782 1.366 . S
C2781 C2783 1.388 . S
C2782 C2781 1.366 . S
C2782 C2786 1.385 . S
C2783 H2758 0.951 . S
C2783 C2781 1.388 . S
C2783 C2784 1.366 . S
C2784 C2783 1.366 . S
C2784 C2785 1.414 . S
C2784 C2787 1.499 . S
C2785 H2759 0.950 . S
C2785 C2784 1.414 . S
C2785 C2786 1.374 . S
C2786 H2760 0.950 . S
C2786 C2782 1.385 . S
C2786 C2785 1.374 . S
C2787 C2784 1.499 . S
C2787 C2788 1.373 . S
C2787 C2789 1.389 . S
C2788 H2761 0.950 . S
C2788 C2774 1.377 . S
C2788 C2787 1.373 . S
C2789 C2773 1.377 . S
C2789 C2787 1.389 . S
C2789 C2790 1.524 . S
C2790 C2789 1.524 . S
C2790 C2791 1.397 . S
C2790 C2795 1.363 . S
C2791 H2762 0.950 . S
C2791 C2790 1.397 . S
C2791 C2792 1.334 . S
C2792 H2763 0.950 . S
C2792 C2791 1.334 . S
C2792 C2793 1.287 . S
C2793 C2792 1.287 . S
C2793 C2794 1.524 . S
C2793 H2796 0.999 . S
C2794 H2764 0.950 . S
C2794 C2793 1.524 . S
C2794 C2795 1.415 . S
C2795 H2765 0.950 . S
C2795 C2790 1.363 . S
C2795 C2794 1.415 . S
H2796 C2793 0.999 . S
H2797 C2778 0.913 . S
H2798 C2816 0.951 . S
H2799 C2818 0.951 . S
H2800 C2820 0.950 . S
H2801 C2821 0.950 . S
H2802 C2823 0.950 . S
H2803 C2826 0.950 . S
H2804 C2827 0.950 . S
H2805 C2829 0.950 . S
H2806 C2830 0.950 . S
H2807 C2831 0.951 . S
H2808 C2833 0.951 . S
H2809 C2835 0.950 . S
H2810 C2836 0.950 . S
H2811 C2838 0.950 . S
H2812 C2841 0.950 . S
H2813 C2842 0.950 . S
H2814 C2844 0.950 . S
H2815 C2845 0.950 . S
C2816 H2798 0.951 . S
C2816 C2817 1.366 . S
C2816 C2818 1.388 1_455 S
C2817 C2816 1.366 . S
C2817 C2821 1.385 . S
C2818 H2799 0.951 . S
C2818 C2816 1.388 1_655 S
C2818 C2819 1.366 . S
C2819 C2818 1.366 . S
C2819 C2820 1.414 1_655 S
C2819 C2822 1.499 . S
C2820 H2800 0.950 . S
C2820 C2819 1.414 1_455 S
C2820 C2821 1.374 . S
C2821 H2801 0.950 . S
C2821 C2817 1.385 . S
C2821 C2820 1.374 . S
C2822 C2819 1.499 . S
C2822 C2823 1.373 . S
C2822 C2824 1.389 . S
C2823 H2802 0.950 . S
C2823 C2822 1.373 . S
C2823 C2839 1.377 . S
C2824 C2822 1.389 . S
C2824 C2825 1.524 . S
C2824 C2838 1.377 . S
C2825 C2824 1.524 . S
C2825 C2826 1.397 . S
C2825 C2830 1.363 . S
C2826 H2803 0.950 . S
C2826 C2825 1.397 . S
C2826 C2827 1.334 . S
C2827 H2804 0.950 . S
C2827 C2826 1.334 . S
C2827 C2828 1.287 . S
C2828 C2827 1.287 . S
C2828 C2829 1.524 . S
C2828 H2847 0.913 . S
C2829 H2805 0.950 . S
C2829 C2828 1.524 . S
C2829 C2830 1.415 . S
C2830 H2806 0.950 . S
C2830 C2825 1.363 . S
C2830 C2829 1.415 . S
C2831 H2807 0.951 . S
C2831 C2832 1.366 . S
C2831 C2833 1.388 . S
C2832 C2831 1.366 . S
C2832 C2836 1.385 . S
C2833 H2808 0.951 . S
C2833 C2831 1.388 . S
C2833 C2834 1.366 . S
C2834 C2833 1.366 . S
C2834 C2835 1.414 . S
C2834 C2837 1.499 . S
C2835 H2809 0.950 . S
C2835 C2834 1.414 . S
C2835 C2836 1.374 . S
C2836 H2810 0.950 . S
C2836 C2832 1.385 . S
C2836 C2835 1.374 . S
C2837 C2834 1.499 . S
C2837 C2838 1.373 . S
C2837 C2839 1.389 . S
C2838 H2811 0.950 . S
C2838 C2824 1.377 . S
C2838 C2837 1.373 . S
C2839 C2823 1.377 . S
C2839 C2837 1.389 . S
C2839 C2840 1.524 . S
C2840 C2839 1.524 . S
C2840 C2841 1.397 . S
C2840 C2845 1.363 . S
C2841 H2812 0.950 . S
C2841 C2840 1.397 . S
C2841 C2842 1.334 . S
C2842 H2813 0.950 . S
C2842 C2841 1.334 . S
C2842 C2843 1.287 . S
C2843 C2842 1.287 . S
C2843 C2844 1.524 . S
C2843 H2846 0.999 . S
C2844 H2814 0.950 . S
C2844 C2843 1.524 . S
C2844 C2845 1.415 . S
C2845 H2815 0.950 . S
C2845 C2840 1.363 . S
C2845 C2844 1.415 . S
H2846 C2843 0.999 . S
H2847 C2828 0.913 . S
H2848 C2866 0.951 . S
H2849 C2868 0.951 . S
H2850 C2870 0.950 . S
H2851 C2871 0.950 . S
H2852 C2873 0.950 . S
H2853 C2876 0.950 . S
H2854 C2877 0.950 . S
H2855 C2879 0.950 . S
H2856 C2880 0.950 . S
H2857 C2881 0.951 . S
H2858 C2883 0.951 . S
H2859 C2885 0.950 . S
H2860 C2886 0.950 . S
H2861 C2888 0.950 . S
H2862 C2891 0.950 . S
H2863 C2892 0.950 . S
H2864 C2894 0.950 . S
H2865 C2895 0.950 . S
C2866 H2848 0.951 . S
C2866 C2867 1.366 . S
C2866 C2868 1.388 . S
C2867 C2866 1.366 . S
C2867 C2871 1.385 . S
C2868 H2849 0.951 . S
C2868 C2866 1.388 . S
C2868 C2869 1.366 . S
C2869 C2868 1.366 . S
C2869 C2870 1.414 . S
C2869 C2872 1.499 . S
C2870 H2850 0.950 . S
C2870 C2869 1.414 . S
C2870 C2871 1.374 . S
C2871 H2851 0.950 . S
C2871 C2867 1.385 . S
C2871 C2870 1.374 . S
C2872 C2869 1.499 . S
C2872 C2873 1.373 . S
C2872 C2874 1.389 . S
C2873 H2852 0.950 . S
C2873 C2872 1.373 . S
C2873 C2889 1.377 . S
C2874 C2872 1.389 . S
C2874 C2875 1.524 . S
C2874 C2888 1.377 . S
C2875 C2874 1.524 . S
C2875 C2876 1.397 . S
C2875 C2880 1.363 . S
C2876 H2853 0.950 . S
C2876 C2875 1.397 . S
C2876 C2877 1.334 . S
C2877 H2854 0.950 . S
C2877 C2876 1.334 . S
C2877 C2878 1.287 . S
C2878 C2877 1.287 . S
C2878 C2879 1.524 . S
C2878 H2897 0.913 . S
C2879 H2855 0.950 . S
C2879 C2878 1.524 . S
C2879 C2880 1.415 . S
C2880 H2856 0.950 . S
C2880 C2875 1.363 . S
C2880 C2879 1.415 . S
C2881 H2857 0.951 . S
C2881 C2882 1.366 . S
C2881 C2883 1.388 . S
C2882 C2881 1.366 . S
C2882 C2886 1.385 . S
C2883 H2858 0.951 . S
C2883 C2881 1.388 . S
C2883 C2884 1.366 . S
C2884 C2883 1.366 . S
C2884 C2885 1.414 . S
C2884 C2887 1.499 . S
C2885 H2859 0.950 . S
C2885 C2884 1.414 . S
C2885 C2886 1.374 . S
C2886 H2860 0.950 . S
C2886 C2882 1.385 . S
C2886 C2885 1.374 . S
C2887 C2884 1.499 . S
C2887 C2888 1.373 . S
C2887 C2889 1.389 . S
C2888 H2861 0.950 . S
C2888 C2874 1.377 . S
C2888 C2887 1.373 . S
C2889 C2873 1.377 . S
C2889 C2887 1.389 . S
C2889 C2890 1.524 . S
C2890 C2889 1.524 . S
C2890 C2891 1.397 . S
C2890 C2895 1.363 . S
C2891 H2862 0.950 . S
C2891 C2890 1.397 . S
C2891 C2892 1.334 . S
C2892 H2863 0.950 . S
C2892 C2891 1.334 . S
C2892 C2893 1.287 . S
C2893 C2892 1.287 . S
C2893 C2894 1.524 . S
C2893 H2896 0.999 . S
C2894 H2864 0.950 . S
C2894 C2893 1.524 . S
C2894 C2895 1.415 . S
C2895 H2865 0.950 . S
C2895 C2890 1.363 . S
C2895 C2894 1.415 . S
H2896 C2893 0.999 . S
H2897 C2878 0.913 . S
H2898 C2916 0.951 . S
H2899 C2918 0.951 . S
H2900 C2920 0.950 . S
H2901 C2921 0.950 . S
H2902 C2923 0.950 . S
H2903 C2926 0.950 . S
H2904 C2927 0.950 . S
H2905 C2929 0.950 . S
H2906 C2930 0.950 . S
H2907 C2931 0.951 . S
H2908 C2933 0.951 . S
H2909 C2935 0.950 . S
H2910 C2936 0.950 . S
H2911 C2938 0.950 . S
H2912 C2941 0.950 . S
H2913 C2942 0.950 . S
H2914 C2944 0.950 . S
H2915 C2945 0.950 . S
C2916 H2898 0.951 . S
C2916 C2917 1.366 . S
C2916 C2918 1.388 . S
C2917 C2916 1.366 . S
C2917 C2921 1.385 . S
C2918 H2899 0.951 . S
C2918 C2916 1.388 . S
C2918 C2919 1.366 . S
C2919 C2918 1.366 . S
C2919 C2920 1.414 . S
C2919 C2922 1.499 . S
C2920 H2900 0.950 . S
C2920 C2919 1.414 . S
C2920 C2921 1.374 . S
C2921 H2901 0.950 . S
C2921 C2917 1.385 . S
C2921 C2920 1.374 . S
C2922 C2919 1.499 . S
C2922 C2923 1.373 . S
C2922 C2924 1.389 . S
C2923 H2902 0.950 . S
C2923 C2922 1.373 . S
C2923 C2939 1.377 . S
C2924 C2922 1.389 . S
C2924 C2925 1.524 . S
C2924 C2938 1.377 . S
C2925 C2924 1.524 . S
C2925 C2926 1.397 . S
C2925 C2930 1.363 . S
C2926 H2903 0.950 . S
C2926 C2925 1.397 . S
C2926 C2927 1.334 . S
C2927 H2904 0.950 . S
C2927 C2926 1.334 . S
C2927 C2928 1.287 . S
C2928 C2927 1.287 . S
C2928 C2929 1.524 . S
C2928 H2947 0.913 . S
C2929 H2905 0.950 . S
C2929 C2928 1.524 . S
C2929 C2930 1.415 . S
C2930 H2906 0.950 . S
C2930 C2925 1.363 . S
C2930 C2929 1.415 . S
C2931 H2907 0.951 . S
C2931 C2932 1.366 . S
C2931 C2933 1.388 . S
C2932 C2931 1.366 . S
C2932 C2936 1.385 . S
C2933 H2908 0.951 . S
C2933 C2931 1.388 . S
C2933 C2934 1.366 . S
C2934 C2933 1.366 . S
C2934 C2935 1.414 . S
C2934 C2937 1.499 . S
C2935 H2909 0.950 . S
C2935 C2934 1.414 . S
C2935 C2936 1.374 . S
C2936 H2910 0.950 . S
C2936 C2932 1.385 . S
C2936 C2935 1.374 . S
C2937 C2934 1.499 . S
C2937 C2938 1.373 . S
C2937 C2939 1.389 . S
C2938 H2911 0.950 . S
C2938 C2924 1.377 . S
C2938 C2937 1.373 . S
C2939 C2923 1.377 . S
C2939 C2937 1.389 . S
C2939 C2940 1.524 . S
C2940 C2939 1.524 . S
C2940 C2941 1.397 . S
C2940 C2945 1.363 . S
C2941 H2912 0.950 . S
C2941 C2940 1.397 . S
C2941 C2942 1.334 . S
C2942 H2913 0.950 . S
C2942 C2941 1.334 . S
C2942 C2943 1.287 . S
C2943 C2942 1.287 . S
C2943 C2944 1.524 . S
C2943 H2946 0.999 . S
C2944 H2914 0.950 . S
C2944 C2943 1.524 . S
C2944 C2945 1.415 . S
C2945 H2915 0.950 . S
C2945 C2940 1.363 . S
C2945 C2944 1.415 . S
H2946 C2943 0.999 . S
H2947 C2928 0.913 . S
H2948 C2966 0.951 . S
H2949 C2968 0.951 . S
H2950 C2970 0.950 . S
H2951 C2971 0.950 . S
H2952 C2973 0.950 . S
H2953 C2976 0.950 . S
H2954 C2977 0.950 . S
H2955 C2979 0.950 . S
H2956 C2980 0.950 . S
H2957 C2981 0.951 . S
H2958 C2983 0.951 . S
H2959 C2985 0.950 . S
H2960 C2986 0.950 . S
H2961 C2988 0.950 . S
H2962 C2991 0.950 . S
H2963 C2992 0.950 . S
H2964 C2994 0.950 . S
H2965 C2995 0.950 . S
C2966 H2948 0.951 . S
C2966 C2967 1.366 . S
C2966 C2968 1.388 . S
C2967 C2966 1.366 . S
C2967 C2971 1.385 . S
C2968 H2949 0.951 . S
C2968 C2966 1.388 . S
C2968 C2969 1.366 . S
C2969 C2968 1.366 . S
C2969 C2970 1.414 . S
C2969 C2972 1.499 . S
C2970 H2950 0.950 . S
C2970 C2969 1.414 . S
C2970 C2971 1.374 . S
C2971 H2951 0.950 . S
C2971 C2967 1.385 . S
C2971 C2970 1.374 . S
C2972 C2969 1.499 . S
C2972 C2973 1.373 . S
C2972 C2974 1.389 . S
C2973 H2952 0.950 . S
C2973 C2972 1.373 . S
C2973 C2989 1.377 . S
C2974 C2972 1.389 . S
C2974 C2975 1.524 . S
C2974 C2988 1.377 . S
C2975 C2974 1.524 . S
C2975 C2976 1.397 . S
C2975 C2980 1.363 . S
C2976 H2953 0.950 . S
C2976 C2975 1.397 . S
C2976 C2977 1.334 . S
C2977 H2954 0.950 . S
C2977 C2976 1.334 . S
C2977 C2978 1.287 . S
C2978 C2977 1.287 . S
C2978 C2979 1.524 . S
C2978 H2997 0.913 . S
C2979 H2955 0.950 . S
C2979 C2978 1.524 . S
C2979 C2980 1.415 . S
C2980 H2956 0.950 . S
C2980 C2975 1.363 . S
C2980 C2979 1.415 . S
C2981 H2957 0.951 . S
C2981 C2982 1.366 . S
C2981 C2983 1.388 . S
C2982 C2981 1.366 . S
C2982 C2986 1.385 . S
C2983 H2958 0.951 . S
C2983 C2981 1.388 . S
C2983 C2984 1.366 . S
C2984 C2983 1.366 . S
C2984 C2985 1.414 . S
C2984 C2987 1.499 . S
C2985 H2959 0.950 . S
C2985 C2984 1.414 . S
C2985 C2986 1.374 . S
C2986 H2960 0.950 . S
C2986 C2982 1.385 . S
C2986 C2985 1.374 . S
C2987 C2984 1.499 . S
C2987 C2988 1.373 . S
C2987 C2989 1.389 . S
C2988 H2961 0.950 . S
C2988 C2974 1.377 . S
C2988 C2987 1.373 . S
C2989 C2973 1.377 . S
C2989 C2987 1.389 . S
C2989 C2990 1.524 . S
C2990 C2989 1.524 . S
C2990 C2991 1.397 . S
C2990 C2995 1.363 . S
C2991 H2962 0.950 . S
C2991 C2990 1.397 . S
C2991 C2992 1.334 . S
C2992 H2963 0.950 . S
C2992 C2991 1.334 . S
C2992 C2993 1.287 . S
C2993 C2992 1.287 . S
C2993 C2994 1.524 . S
C2993 H2996 0.999 . S
C2994 H2964 0.950 . S
C2994 C2993 1.524 . S
C2994 C2995 1.415 . S
C2995 H2965 0.950 . S
C2995 C2990 1.363 . S
C2995 C2994 1.415 . S
H2996 C2993 0.999 . S
H2997 C2978 0.913 . S
H2998 C3016 0.951 . S
H2999 C3018 0.951 . S
H3000 C3020 0.950 . S
H3001 C3021 0.950 . S
H3002 C3023 0.950 . S
H3003 C3026 0.950 . S
H3004 C3027 0.950 . S
H3005 C3029 0.950 . S
H3006 C3030 0.950 . S
H3007 C3031 0.951 . S
H3008 C3033 0.951 . S
H3009 C3035 0.950 . S
H3010 C3036 0.950 . S
H3011 C3038 0.950 . S
H3012 C3041 0.950 . S
H3013 C3042 0.950 . S
H3014 C3044 0.950 . S
H3015 C3045 0.950 . S
C3016 H2998 0.951 . S
C3016 C3017 1.366 . S
C3016 C3018 1.388 . S
C3017 C3016 1.366 . S
C3017 C3021 1.385 . S
C3018 H2999 0.951 . S
C3018 C3016 1.388 . S
C3018 C3019 1.366 . S
C3019 C3018 1.366 . S
C3019 C3020 1.414 . S
C3019 C3022 1.499 . S
C3020 H3000 0.950 . S
C3020 C3019 1.414 . S
C3020 C3021 1.374 . S
C3021 H3001 0.950 . S
C3021 C3017 1.385 . S
C3021 C3020 1.374 . S
C3022 C3019 1.499 . S
C3022 C3023 1.373 . S
C3022 C3024 1.389 . S
C3023 H3002 0.950 . S
C3023 C3022 1.373 . S
C3023 C3039 1.377 . S
C3024 C3022 1.389 . S
C3024 C3025 1.524 . S
C3024 C3038 1.377 . S
C3025 C3024 1.524 . S
C3025 C3026 1.397 . S
C3025 C3030 1.363 . S
C3026 H3003 0.950 . S
C3026 C3025 1.397 . S
C3026 C3027 1.334 . S
C3027 H3004 0.950 . S
C3027 C3026 1.334 . S
C3027 C3028 1.287 . S
C3028 C3027 1.287 . S
C3028 C3029 1.524 . S
C3028 H3047 0.913 . S
C3029 H3005 0.950 . S
C3029 C3028 1.524 . S
C3029 C3030 1.415 . S
C3030 H3006 0.950 . S
C3030 C3025 1.363 . S
C3030 C3029 1.415 . S
C3031 H3007 0.951 . S
C3031 C3032 1.366 . S
C3031 C3033 1.388 1_455 S
C3032 C3031 1.366 . S
C3032 C3036 1.385 . S
C3033 H3008 0.951 . S
C3033 C3031 1.388 1_655 S
C3033 C3034 1.366 . S
C3034 C3033 1.366 . S
C3034 C3035 1.414 1_655 S
C3034 C3037 1.499 . S
C3035 H3009 0.950 . S
C3035 C3034 1.414 1_455 S
C3035 C3036 1.374 . S
C3036 H3010 0.950 . S
C3036 C3032 1.385 . S
C3036 C3035 1.374 . S
C3037 C3034 1.499 . S
C3037 C3038 1.373 . S
C3037 C3039 1.389 . S
C3038 H3011 0.950 . S
C3038 C3024 1.377 . S
C3038 C3037 1.373 . S
C3039 C3023 1.377 . S
C3039 C3037 1.389 . S
C3039 C3040 1.524 . S
C3040 C3039 1.524 . S
C3040 C3041 1.397 . S
C3040 C3045 1.363 . S
C3041 H3012 0.950 . S
C3041 C3040 1.397 . S
C3041 C3042 1.334 . S
C3042 H3013 0.950 . S
C3042 C3041 1.334 . S
C3042 C3043 1.287 . S
C3043 C3042 1.287 . S
C3043 C3044 1.524 . S
C3043 H3046 0.999 . S
C3044 H3014 0.950 . S
C3044 C3043 1.524 . S
C3044 C3045 1.415 . S
C3045 H3015 0.950 . S
C3045 C3040 1.363 . S
C3045 C3044 1.415 . S
H3046 C3043 0.999 . S
H3047 C3028 0.913 . S
H3048 C3066 0.951 . S
H3049 C3068 0.951 . S
H3050 C3070 0.950 . S
H3051 C3071 0.950 . S
H3052 C3073 0.950 . S
H3053 C3076 0.950 . S
H3054 C3077 0.950 . S
H3055 C3079 0.950 . S
H3056 C3080 0.950 . S
H3057 C3081 0.951 . S
H3058 C3083 0.951 . S
H3059 C3085 0.950 . S
H3060 C3086 0.950 . S
H3061 C3088 0.950 . S
H3062 C3091 0.950 . S
H3063 C3092 0.950 . S
H3064 C3094 0.950 . S
H3065 C3095 0.950 . S
C3066 H3048 0.951 . S
C3066 C3067 1.366 . S
C3066 C3068 1.388 . S
C3067 C3066 1.366 . S
C3067 C3071 1.385 . S
C3068 H3049 0.951 . S
C3068 C3066 1.388 . S
C3068 C3069 1.366 . S
C3069 C3068 1.366 . S
C3069 C3070 1.414 . S
C3069 C3072 1.499 . S
C3070 H3050 0.950 . S
C3070 C3069 1.414 . S
C3070 C3071 1.374 . S
C3071 H3051 0.950 . S
C3071 C3067 1.385 . S
C3071 C3070 1.374 . S
C3072 C3069 1.499 . S
C3072 C3073 1.373 . S
C3072 C3074 1.389 . S
C3073 H3052 0.950 . S
C3073 C3072 1.373 . S
C3073 C3089 1.377 . S
C3074 C3072 1.389 . S
C3074 C3075 1.524 . S
C3074 C3088 1.377 . S
C3075 C3074 1.524 . S
C3075 C3076 1.397 . S
C3075 C3080 1.363 . S
C3076 H3053 0.950 . S
C3076 C3075 1.397 . S
C3076 C3077 1.334 . S
C3077 H3054 0.950 . S
C3077 C3076 1.334 . S
C3077 C3078 1.287 . S
C3078 C3077 1.287 . S
C3078 C3079 1.524 . S
C3078 H3097 0.913 . S
C3079 H3055 0.950 . S
C3079 C3078 1.524 . S
C3079 C3080 1.415 . S
C3080 H3056 0.950 . S
C3080 C3075 1.363 . S
C3080 C3079 1.415 . S
C3081 H3057 0.951 . S
C3081 C3082 1.366 . S
C3081 C3083 1.388 . S
C3082 C3081 1.366 . S
C3082 C3086 1.385 . S
C3083 H3058 0.951 . S
C3083 C3081 1.388 . S
C3083 C3084 1.366 . S
C3084 C3083 1.366 . S
C3084 C3085 1.414 . S
C3084 C3087 1.499 . S
C3085 H3059 0.950 . S
C3085 C3084 1.414 . S
C3085 C3086 1.374 . S
C3086 H3060 0.950 . S
C3086 C3082 1.385 . S
C3086 C3085 1.374 . S
C3087 C3084 1.499 . S
C3087 C3088 1.373 . S
C3087 C3089 1.389 . S
C3088 H3061 0.950 . S
C3088 C3074 1.377 . S
C3088 C3087 1.373 . S
C3089 C3073 1.377 . S
C3089 C3087 1.389 . S
C3089 C3090 1.524 . S
C3090 C3089 1.524 . S
C3090 C3091 1.397 . S
C3090 C3095 1.363 . S
C3091 H3062 0.950 . S
C3091 C3090 1.397 . S
C3091 C3092 1.334 . S
C3092 H3063 0.950 . S
C3092 C3091 1.334 . S
C3092 C3093 1.287 . S
C3093 C3092 1.287 . S
C3093 C3094 1.524 . S
C3093 H3096 0.999 . S
C3094 H3064 0.950 . S
C3094 C3093 1.524 . S
C3094 C3095 1.415 . S
C3095 H3065 0.950 . S
C3095 C3090 1.363 . S
C3095 C3094 1.415 . S
H3096 C3093 0.999 . S
H3097 C3078 0.913 . S
H3098 C3116 0.951 . S
H3099 C3118 0.943 1_655 S
H3100 C3120 0.950 1_655 S
H3101 C3121 0.950 . S
H3102 C3123 0.950 . S
H3103 C3126 0.948 1_455 S
H3104 C3127 0.950 . S
H3105 C3129 0.950 . S
H3106 C3130 0.950 . S
H3107 C3131 0.951 . S
H3108 C3133 0.951 . S
H3109 C3135 0.950 . S
H3110 C3136 0.950 . S
H3111 C3138 0.950 . S
H3112 C3141 0.950 . S
H3113 C3142 0.950 . S
H3114 C3144 0.950 . S
H3115 C3145 0.950 . S
C3116 H3098 0.951 . S
C3116 C3117 1.366 . S
C3116 C3118 1.400 . S
C3117 C3116 1.366 . S
C3117 C3121 1.385 . S
C3118 H3099 0.943 1_455 S
C3118 C3116 1.400 . S
C3118 C3119 1.361 1_455 S
C3119 C3118 1.361 1_655 S
C3119 C3120 1.414 1_655 S
C3119 C3122 1.499 . S
C3120 H3100 0.950 1_455 S
C3120 C3119 1.414 1_455 S
C3120 C3121 1.374 . S
C3121 H3101 0.950 . S
C3121 C3117 1.385 . S
C3121 C3120 1.374 . S
C3122 C3119 1.499 . S
C3122 C3123 1.373 . S
C3122 C3124 1.389 . S
C3123 H3102 0.950 . S
C3123 C3122 1.373 . S
C3123 C3139 1.377 . S
C3124 C3122 1.389 . S
C3124 C3125 1.524 . S
C3124 C3138 1.377 . S
C3125 C3124 1.524 . S
C3125 C3126 1.406 . S
C3125 C3130 1.363 . S
C3126 H3103 0.948 1_655 S
C3126 C3125 1.406 . S
C3126 C3127 1.327 1_655 S
C3127 H3104 0.950 . S
C3127 C3126 1.327 1_455 S
C3127 C3128 1.287 . S
C3128 C3127 1.287 . S
C3128 C3129 1.524 1_455 S
C3128 H3147 0.913 . S
C3129 H3105 0.950 . S
C3129 C3128 1.524 1_655 S
C3129 C3130 1.415 . S
C3130 H3106 0.950 . S
C3130 C3125 1.363 . S
C3130 C3129 1.415 . S
C3131 H3107 0.951 . S
C3131 C3132 1.366 . S
C3131 C3133 1.388 . S
C3132 C3131 1.366 . S
C3132 C3136 1.385 . S
C3133 H3108 0.951 . S
C3133 C3131 1.388 . S
C3133 C3134 1.366 . S
C3134 C3133 1.366 . S
C3134 C3135 1.414 . S
C3134 C3137 1.499 . S
C3135 H3109 0.950 . S
C3135 C3134 1.414 . S
C3135 C3136 1.374 . S
C3136 H3110 0.950 . S
C3136 C3132 1.385 . S
C3136 C3135 1.374 . S
C3137 C3134 1.499 . S
C3137 C3138 1.373 . S
C3137 C3139 1.389 . S
C3138 H3111 0.950 . S
C3138 C3124 1.377 . S
C3138 C3137 1.373 . S
C3139 C3123 1.377 . S
C3139 C3137 1.389 . S
C3139 C3140 1.524 . S
C3140 C3139 1.524 . S
C3140 C3141 1.397 . S
C3140 C3145 1.363 . S
C3141 H3112 0.950 . S
C3141 C3140 1.397 . S
C3141 C3142 1.334 . S
C3142 H3113 0.950 . S
C3142 C3141 1.334 . S
C3142 C3143 1.287 . S
C3143 C3142 1.287 . S
C3143 C3144 1.524 . S
C3143 H3146 0.999 . S
C3144 H3114 0.950 . S
C3144 C3143 1.524 . S
C3144 C3145 1.415 . S
C3145 H3115 0.950 . S
C3145 C3140 1.363 . S
C3145 C3144 1.415 . S
H3146 C3143 0.999 . S
H3147 C3128 0.913 . S
H3148 C3166 0.951 . S
H3149 C3168 0.951 . S
H3150 C3170 0.950 . S
H3151 C3171 0.950 . S
H3152 C3173 0.950 . S
H3153 C3176 0.950 . S
H3154 C3177 0.950 . S
H3155 C3179 0.950 . S
H3156 C3180 0.950 . S
H3157 C3181 0.951 . S
H3158 C3183 0.951 . S
H3159 C3185 0.950 . S
H3160 C3186 0.950 . S
H3161 C3188 0.950 . S
H3162 C3191 0.950 . S
H3163 C3192 0.950 . S
H3164 C3194 0.950 . S
H3165 C3195 0.950 . S
C3166 H3148 0.951 . S
C3166 C3167 1.366 . S
C3166 C3168 1.388 . S
C3167 C3166 1.366 . S
C3167 C3171 1.385 . S
C3168 H3149 0.951 . S
C3168 C3166 1.388 . S
C3168 C3169 1.366 . S
C3169 C3168 1.366 . S
C3169 C3170 1.414 . S
C3169 C3172 1.499 . S
C3170 H3150 0.950 . S
C3170 C3169 1.414 . S
C3170 C3171 1.374 . S
C3171 H3151 0.950 . S
C3171 C3167 1.385 . S
C3171 C3170 1.374 . S
C3172 C3169 1.499 . S
C3172 C3173 1.373 . S
C3172 C3174 1.389 . S
C3173 H3152 0.950 . S
C3173 C3172 1.373 . S
C3173 C3189 1.377 . S
C3174 C3172 1.389 . S
C3174 C3175 1.524 . S
C3174 C3188 1.377 . S
C3175 C3174 1.524 . S
C3175 C3176 1.397 . S
C3175 C3180 1.363 . S
C3176 H3153 0.950 . S
C3176 C3175 1.397 . S
C3176 C3177 1.334 . S
C3177 H3154 0.950 . S
C3177 C3176 1.334 . S
C3177 C3178 1.287 . S
C3178 C3177 1.287 . S
C3178 C3179 1.524 . S
C3178 H3197 0.913 . S
C3179 H3155 0.950 . S
C3179 C3178 1.524 . S
C3179 C3180 1.415 . S
C3180 H3156 0.950 . S
C3180 C3175 1.363 . S
C3180 C3179 1.415 . S
C3181 H3157 0.951 . S
C3181 C3182 1.366 . S
C3181 C3183 1.388 . S
C3182 C3181 1.366 . S
C3182 C3186 1.385 . S
C3183 H3158 0.951 . S
C3183 C3181 1.388 . S
C3183 C3184 1.366 . S
C3184 C3183 1.366 . S
C3184 C3185 1.414 . S
C3184 C3187 1.499 . S
C3185 H3159 0.950 . S
C3185 C3184 1.414 . S
C3185 C3186 1.374 . S
C3186 H3160 0.950 . S
C3186 C3182 1.385 . S
C3186 C3185 1.374 . S
C3187 C3184 1.499 . S
C3187 C3188 1.373 . S
C3187 C3189 1.389 . S
C3188 H3161 0.950 . S
C3188 C3174 1.377 . S
C3188 C3187 1.373 . S
C3189 C3173 1.377 . S
C3189 C3187 1.389 . S
C3189 C3190 1.524 . S
C3190 C3189 1.524 . S
C3190 C3191 1.397 . S
C3190 C3195 1.363 . S
C3191 H3162 0.950 . S
C3191 C3190 1.397 . S
C3191 C3192 1.334 . S
C3192 H3163 0.950 . S
C3192 C3191 1.334 . S
C3192 C3193 1.287 . S
C3193 C3192 1.287 . S
C3193 C3194 1.524 . S
C3193 H3196 0.999 . S
C3194 H3164 0.950 . S
C3194 C3193 1.524 . S
C3194 C3195 1.415 . S
C3195 H3165 0.950 . S
C3195 C3190 1.363 . S
C3195 C3194 1.415 . S
H3196 C3193 0.999 . S
H3197 C3178 0.913 . S
H3198 C3216 0.951 . S
H3199 C3218 0.951 . S
H3200 C3220 0.950 . S
H3201 C3221 0.950 . S
H3202 C3223 0.950 . S
H3203 C3226 0.950 . S
H3204 C3227 0.950 . S
H3205 C3229 0.950 . S
H3206 C3230 0.950 . S
H3207 C3231 0.951 . S
H3208 C3233 0.951 . S
H3209 C3235 0.950 . S
H3210 C3236 0.950 . S
H3211 C3238 0.950 . S
H3212 C3241 0.950 . S
H3213 C3242 0.950 . S
H3214 C3244 0.950 . S
H3215 C3245 0.950 . S
C3216 H3198 0.951 . S
C3216 C3217 1.366 . S
C3216 C3218 1.388 . S
C3217 C3216 1.366 . S
C3217 C3221 1.385 . S
C3218 H3199 0.951 . S
C3218 C3216 1.388 . S
C3218 C3219 1.366 . S
C3219 C3218 1.366 . S
C3219 C3220 1.414 . S
C3219 C3222 1.499 . S
C3220 H3200 0.950 . S
C3220 C3219 1.414 . S
C3220 C3221 1.374 . S
C3221 H3201 0.950 . S
C3221 C3217 1.385 . S
C3221 C3220 1.374 . S
C3222 C3219 1.499 . S
C3222 C3223 1.373 . S
C3222 C3224 1.389 . S
C3223 H3202 0.950 . S
C3223 C3222 1.373 . S
C3223 C3239 1.377 . S
C3224 C3222 1.389 . S
C3224 C3225 1.524 . S
C3224 C3238 1.377 . S
C3225 C3224 1.524 . S
C3225 C3226 1.397 . S
C3225 C3230 1.363 . S
C3226 H3203 0.950 . S
C3226 C3225 1.397 . S
C3226 C3227 1.334 . S
C3227 H3204 0.950 . S
C3227 C3226 1.334 . S
C3227 C3228 1.287 . S
C3228 C3227 1.287 . S
C3228 C3229 1.524 . S
C3228 H3247 0.913 . S
C3229 H3205 0.950 . S
C3229 C3228 1.524 . S
C3229 C3230 1.415 . S
C3230 H3206 0.950 . S
C3230 C3225 1.363 . S
C3230 C3229 1.415 . S
C3231 H3207 0.951 . S
C3231 C3232 1.366 . S
C3231 C3233 1.388 . S
C3232 C3231 1.366 . S
C3232 C3236 1.385 . S
C3233 H3208 0.951 . S
C3233 C3231 1.388 . S
C3233 C3234 1.366 . S
C3234 C3233 1.366 . S
C3234 C3235 1.414 . S
C3234 C3237 1.499 . S
C3235 H3209 0.950 . S
C3235 C3234 1.414 . S
C3235 C3236 1.374 . S
C3236 H3210 0.950 . S
C3236 C3232 1.385 . S
C3236 C3235 1.374 . S
C3237 C3234 1.499 . S
C3237 C3238 1.373 . S
C3237 C3239 1.389 . S
C3238 H3211 0.950 . S
C3238 C3224 1.377 . S
C3238 C3237 1.373 . S
C3239 C3223 1.377 . S
C3239 C3237 1.389 . S
C3239 C3240 1.524 . S
C3240 C3239 1.524 . S
C3240 C3241 1.397 . S
C3240 C3245 1.363 . S
C3241 H3212 0.950 . S
C3241 C3240 1.397 . S
C3241 C3242 1.334 . S
C3242 H3213 0.950 . S
C3242 C3241 1.334 . S
C3242 C3243 1.287 . S
C3243 C3242 1.287 . S
C3243 C3244 1.524 . S
C3243 H3246 0.999 . S
C3244 H3214 0.950 . S
C3244 C3243 1.524 . S
C3244 C3245 1.415 . S
C3245 H3215 0.950 . S
C3245 C3240 1.363 . S
C3245 C3244 1.415 . S
H3246 C3243 0.999 . S
H3247 C3228 0.913 . S
H3248 C3266 0.951 . S
H3249 C3268 0.951 . S
H3250 C3270 0.950 . S
H3251 C3271 0.950 . S
H3252 C3273 0.950 . S
H3253 C3276 0.950 . S
H3254 C3277 0.950 . S
H3255 C3279 0.950 . S
H3256 C3280 0.950 . S
H3257 C3281 0.951 . S
H3258 C3283 0.951 . S
H3259 C3285 0.950 . S
H3260 C3286 0.950 . S
H3261 C3288 0.950 . S
H3262 C3291 0.950 . S
H3263 C3292 0.950 . S
H3264 C3294 0.950 . S
H3265 C3295 0.950 . S
C3266 H3248 0.951 . S
C3266 C3267 1.366 . S
C3266 C3268 1.388 . S
C3267 C3266 1.366 . S
C3267 C3271 1.385 . S
C3268 H3249 0.951 . S
C3268 C3266 1.388 . S
C3268 C3269 1.366 . S
C3269 C3268 1.366 . S
C3269 C3270 1.414 . S
C3269 C3272 1.499 . S
C3270 H3250 0.950 . S
C3270 C3269 1.414 . S
C3270 C3271 1.374 . S
C3271 H3251 0.950 . S
C3271 C3267 1.385 . S
C3271 C3270 1.374 . S
C3272 C3269 1.499 . S
C3272 C3273 1.373 . S
C3272 C3274 1.389 . S
C3273 H3252 0.950 . S
C3273 C3272 1.373 . S
C3273 C3289 1.377 . S
C3274 C3272 1.389 . S
C3274 C3275 1.524 . S
C3274 C3288 1.377 . S
C3275 C3274 1.524 . S
C3275 C3276 1.397 . S
C3275 C3280 1.363 . S
C3276 H3253 0.950 . S
C3276 C3275 1.397 . S
C3276 C3277 1.334 . S
C3277 H3254 0.950 . S
C3277 C3276 1.334 . S
C3277 C3278 1.287 . S
C3278 C3277 1.287 . S
C3278 C3279 1.524 . S
C3278 H3297 0.913 . S
C3279 H3255 0.950 . S
C3279 C3278 1.524 . S
C3279 C3280 1.415 . S
C3280 H3256 0.950 . S
C3280 C3275 1.363 . S
C3280 C3279 1.415 . S
C3281 H3257 0.951 . S
C3281 C3282 1.366 . S
C3281 C3283 1.388 . S
C3282 C3281 1.366 . S
C3282 C3286 1.385 . S
C3283 H3258 0.951 . S
C3283 C3281 1.388 . S
C3283 C3284 1.366 . S
C3284 C3283 1.366 . S
C3284 C3285 1.414 . S
C3284 C3287 1.499 . S
C3285 H3259 0.950 . S
C3285 C3284 1.414 . S
C3285 C3286 1.374 . S
C3286 H3260 0.950 . S
C3286 C3282 1.385 . S
C3286 C3285 1.374 . S
C3287 C3284 1.499 . S
C3287 C3288 1.373 . S
C3287 C3289 1.389 . S
C3288 H3261 0.950 . S
C3288 C3274 1.377 . S
C3288 C3287 1.373 . S
C3289 C3273 1.377 . S
C3289 C3287 1.389 . S
C3289 C3290 1.524 . S
C3290 C3289 1.524 . S
C3290 C3291 1.397 . S
C3290 C3295 1.363 . S
C3291 H3262 0.950 . S
C3291 C3290 1.397 . S
C3291 C3292 1.334 . S
C3292 H3263 0.950 . S
C3292 C3291 1.334 . S
C3292 C3293 1.287 . S
C3293 C3292 1.287 . S
C3293 C3294 1.524 . S
C3293 H3296 0.999 . S
C3294 H3264 0.950 . S
C3294 C3293 1.524 . S
C3294 C3295 1.415 . S
C3295 H3265 0.950 . S
C3295 C3290 1.363 . S
C3295 C3294 1.415 . S
H3296 C3293 0.999 . S
H3297 C3278 0.913 . S
H3298 C3316 0.951 . S
H3299 C3318 0.951 . S
H3300 C3320 0.950 . S
H3301 C3321 0.950 . S
H3302 C3323 0.950 . S
H3303 C3326 0.950 . S
H3304 C3327 0.950 . S
H3305 C3329 0.950 . S
H3306 C3330 0.950 . S
H3307 C3331 0.951 . S
H3308 C3333 0.951 . S
H3309 C3335 0.950 . S
H3310 C3336 0.950 . S
H3311 C3338 0.950 . S
H3312 C3341 0.950 . S
H3313 C3342 0.950 . S
H3314 C3344 0.950 . S
H3315 C3345 0.950 . S
C3316 H3298 0.951 . S
C3316 C3317 1.366 . S
C3316 C3318 1.388 . S
C3317 C3316 1.366 . S
C3317 C3321 1.385 . S
C3318 H3299 0.951 . S
C3318 C3316 1.388 . S
C3318 C3319 1.366 . S
C3319 C3318 1.366 . S
C3319 C3320 1.414 . S
C3319 C3322 1.499 . S
C3320 H3300 0.950 . S
C3320 C3319 1.414 . S
C3320 C3321 1.374 . S
C3321 H3301 0.950 . S
C3321 C3317 1.385 . S
C3321 C3320 1.374 . S
C3322 C3319 1.499 . S
C3322 C3323 1.373 . S
C3322 C3324 1.389 . S
C3323 H3302 0.950 . S
C3323 C3322 1.373 . S
C3323 C3339 1.377 . S
C3324 C3322 1.389 . S
C3324 C3325 1.524 . S
C3324 C3338 1.377 . S
C3325 C3324 1.524 . S
C3325 C3326 1.397 . S
C3325 C3330 1.363 . S
C3326 H3303 0.950 . S
C3326 C3325 1.397 . S
C3326 C3327 1.334 . S
C3327 H3304 0.950 . S
C3327 C3326 1.334 . S
C3327 C3328 1.287 . S
C3328 C3327 1.287 . S
C3328 C3329 1.524 . S
C3328 H3347 0.913 . S
C3329 H3305 0.950 . S
C3329 C3328 1.524 . S
C3329 C3330 1.415 . S
C3330 H3306 0.950 . S
C3330 C3325 1.363 . S
C3330 C3329 1.415 . S
C3331 H3307 0.951 . S
C3331 C3332 1.366 . S
C3331 C3333 1.388 . S
C3332 C3331 1.366 . S
C3332 C3336 1.385 . S
C3333 H3308 0.951 . S
C3333 C3331 1.388 . S
C3333 C3334 1.366 . S
C3334 C3333 1.366 . S
C3334 C3335 1.414 . S
C3334 C3337 1.499 . S
C3335 H3309 0.950 . S
C3335 C3334 1.414 . S
C3335 C3336 1.374 . S
C3336 H3310 0.950 . S
C3336 C3332 1.385 . S
C3336 C3335 1.374 . S
C3337 C3334 1.499 . S
C3337 C3338 1.373 . S
C3337 C3339 1.389 . S
C3338 H3311 0.950 . S
C3338 C3324 1.377 . S
C3338 C3337 1.373 . S
C3339 C3323 1.377 . S
C3339 C3337 1.389 . S
C3339 C3340 1.524 . S
C3340 C3339 1.524 . S
C3340 C3341 1.397 . S
C3340 C3345 1.363 . S
C3341 H3312 0.950 . S
C3341 C3340 1.397 . S
C3341 C3342 1.334 . S
C3342 H3313 0.950 . S
C3342 C3341 1.334 . S
C3342 C3343 1.287 . S
C3343 C3342 1.287 . S
C3343 C3344 1.524 . S
C3343 H3346 0.999 . S
C3344 H3314 0.950 . S
C3344 C3343 1.524 . S
C3344 C3345 1.415 . S
C3345 H3315 0.950 . S
C3345 C3340 1.363 . S
C3345 C3344 1.415 . S
H3346 C3343 0.999 . S
H3347 C3328 0.913 . S
H3348 C3366 0.951 . S
H3349 C3368 0.951 . S
H3350 C3370 0.950 . S
H3351 C3371 0.950 . S
H3352 C3373 0.950 . S
H3353 C3376 0.950 . S
H3354 C3377 0.950 . S
H3355 C3379 0.950 . S
H3356 C3380 0.950 . S
H3357 C3381 0.951 . S
H3358 C3383 0.951 . S
H3359 C3385 0.950 . S
H3360 C3386 0.950 . S
H3361 C3388 0.950 . S
H3362 C3391 0.950 . S
H3363 C3392 0.950 . S
H3364 C3394 0.950 . S
H3365 C3395 0.950 . S
C3366 H3348 0.951 . S
C3366 C3367 1.366 . S
C3366 C3368 1.388 . S
C3367 C3366 1.366 . S
C3367 C3371 1.385 . S
C3368 H3349 0.951 . S
C3368 C3366 1.388 . S
C3368 C3369 1.366 . S
C3369 C3368 1.366 . S
C3369 C3370 1.414 . S
C3369 C3372 1.499 . S
C3370 H3350 0.950 . S
C3370 C3369 1.414 . S
C3370 C3371 1.374 . S
C3371 H3351 0.950 . S
C3371 C3367 1.385 . S
C3371 C3370 1.374 . S
C3372 C3369 1.499 . S
C3372 C3373 1.373 . S
C3372 C3374 1.389 . S
C3373 H3352 0.950 . S
C3373 C3372 1.373 . S
C3373 C3389 1.377 . S
C3374 C3372 1.389 . S
C3374 C3375 1.524 . S
C3374 C3388 1.377 . S
C3375 C3374 1.524 . S
C3375 C3376 1.397 . S
C3375 C3380 1.363 . S
C3376 H3353 0.950 . S
C3376 C3375 1.397 . S
C3376 C3377 1.334 . S
C3377 H3354 0.950 . S
C3377 C3376 1.334 . S
C3377 C3378 1.287 . S
C3378 C3377 1.287 . S
C3378 C3379 1.524 . S
C3378 H3397 0.913 . S
C3379 H3355 0.950 . S
C3379 C3378 1.524 . S
C3379 C3380 1.415 . S
C3380 H3356 0.950 . S
C3380 C3375 1.363 . S
C3380 C3379 1.415 . S
C3381 H3357 0.951 . S
C3381 C3382 1.366 . S
C3381 C3383 1.388 . S
C3382 C3381 1.366 . S
C3382 C3386 1.385 . S
C3383 H3358 0.951 . S
C3383 C3381 1.388 . S
C3383 C3384 1.366 . S
C3384 C3383 1.366 . S
C3384 C3385 1.414 . S
C3384 C3387 1.499 . S
C3385 H3359 0.950 . S
C3385 C3384 1.414 . S
C3385 C3386 1.374 . S
C3386 H3360 0.950 . S
C3386 C3382 1.385 . S
C3386 C3385 1.374 . S
C3387 C3384 1.499 . S
C3387 C3388 1.373 . S
C3387 C3389 1.389 . S
C3388 H3361 0.950 . S
C3388 C3374 1.377 . S
C3388 C3387 1.373 . S
C3389 C3373 1.377 . S
C3389 C3387 1.389 . S
C3389 C3390 1.524 . S
C3390 C3389 1.524 . S
C3390 C3391 1.397 . S
C3390 C3395 1.363 . S
C3391 H3362 0.950 . S
C3391 C3390 1.397 . S
C3391 C3392 1.334 . S
C3392 H3363 0.950 . S
C3392 C3391 1.334 . S
C3392 C3393 1.287 . S
C3393 C3392 1.287 . S
C3393 C3394 1.524 . S
C3393 H3396 0.999 . S
C3394 H3364 0.950 . S
C3394 C3393 1.524 . S
C3394 C3395 1.415 . S
C3395 H3365 0.950 . S
C3395 C3390 1.363 . S
C3395 C3394 1.415 . S
H3396 C3393 0.999 . S
H3397 C3378 0.913 . S
H3398 C3416 0.951 . S
H3399 C3418 0.951 . S
H3400 C3420 0.950 . S
H3401 C3421 0.950 . S
H3402 C3423 0.950 . S
H3403 C3426 0.946 1_455 S
H3404 C3427 0.950 . S
H3405 C3429 0.950 . S
H3406 C3430 0.950 . S
H3407 C3431 0.951 . S
H3408 C3433 0.951 . S
H3409 C3435 0.950 . S
H3410 C3436 0.950 . S
H3411 C3438 0.950 . S
H3412 C3441 0.950 . S
H3413 C3442 0.950 . S
H3414 C3444 0.950 . S
H3415 C3445 0.950 . S
C3416 H3398 0.951 . S
C3416 C3417 1.366 . S
C3416 C3418 1.388 . S
C3417 C3416 1.366 . S
C3417 C3421 1.385 . S
C3418 H3399 0.951 . S
C3418 C3416 1.388 . S
C3418 C3419 1.366 1_655 S
C3419 C3418 1.366 1_455 S
C3419 C3420 1.414 . S
C3419 C3422 1.499 . S
C3420 H3400 0.950 . S
C3420 C3419 1.414 . S
C3420 C3421 1.374 1_455 S
C3421 H3401 0.950 . S
C3421 C3417 1.385 . S
C3421 C3420 1.374 1_655 S
C3422 C3419 1.499 . S
C3422 C3423 1.373 . S
C3422 C3424 1.389 . S
C3423 H3402 0.950 . S
C3423 C3422 1.373 . S
C3423 C3439 1.377 . S
C3424 C3422 1.389 . S
C3424 C3425 1.524 . S
C3424 C3438 1.377 . S
C3425 C3424 1.524 . S
C3425 C3426 1.397 1_455 S
C3425 C3430 1.363 . S
C3426 H3403 0.946 1_655 S
C3426 C3425 1.397 1_655 S
C3426 C3427 1.334 . S
C3427 H3404 0.950 . S
C3427 C3426 1.334 . S
C3427 C3428 1.287 . S
C3428 C3427 1.287 . S
C3428 C3429 1.524 . S
C3428 H3447 0.913 . S
C3429 H3405 0.950 . S
C3429 C3428 1.524 . S
C3429 C3430 1.415 1_655 S
C3430 H3406 0.950 . S
C3430 C3425 1.363 . S
C3430 C3429 1.415 1_455 S
C3431 H3407 0.951 . S
C3431 C3432 1.366 . S
C3431 C3433 1.388 . S
C3432 C3431 1.366 . S
C3432 C3436 1.385 . S
C3433 H3408 0.951 . S
C3433 C3431 1.388 . S
C3433 C3434 1.366 . S
C3434 C3433 1.366 . S
C3434 C3435 1.414 . S
C3434 C3437 1.499 . S
C3435 H3409 0.950 . S
C3435 C3434 1.414 . S
C3435 C3436 1.374 . S
C3436 H3410 0.950 . S
C3436 C3432 1.385 . S
C3436 C3435 1.374 . S
C3437 C3434 1.499 . S
C3437 C3438 1.373 . S
C3437 C3439 1.389 . S
C3438 H3411 0.950 . S
C3438 C3424 1.377 . S
C3438 C3437 1.373 . S
C3439 C3423 1.377 . S
C3439 C3437 1.389 . S
C3439 C3440 1.524 . S
C3440 C3439 1.524 . S
C3440 C3441 1.397 . S
C3440 C3445 1.363 . S
C3441 H3412 0.950 . S
C3441 C3440 1.397 . S
C3441 C3442 1.334 . S
C3442 H3413 0.950 . S
C3442 C3441 1.334 . S
C3442 C3443 1.287 . S
C3443 C3442 1.287 . S
C3443 C3444 1.524 . S
C3443 H3446 0.999 . S
C3444 H3414 0.950 . S
C3444 C3443 1.524 . S
C3444 C3445 1.415 . S
C3445 H3415 0.950 . S
C3445 C3440 1.363 . S
C3445 C3444 1.415 . S
H3446 C3443 0.999 . S
H3447 C3428 0.913 . S
H3448 C3466 0.951 . S
H3449 C3468 0.951 . S
H3450 C3470 0.950 . S
H3451 C3471 0.950 . S
H3452 C3473 0.950 . S
H3453 C3476 0.950 . S
H3454 C3477 0.950 . S
H3455 C3479 0.950 . S
H3456 C3480 0.950 . S
H3457 C3481 0.951 . S
H3458 C3483 0.951 . S
H3459 C3485 0.950 . S
H3460 C3486 0.950 . S
H3461 C3488 0.950 . S
H3462 C3491 0.950 . S
H3463 C3492 0.950 . S
H3464 C3494 0.950 . S
H3465 C3495 0.950 . S
C3466 H3448 0.951 . S
C3466 C3467 1.366 . S
C3466 C3468 1.388 . S
C3467 C3466 1.366 . S
C3467 C3471 1.385 . S
C3468 H3449 0.951 . S
C3468 C3466 1.388 . S
C3468 C3469 1.366 . S
C3469 C3468 1.366 . S
C3469 C3470 1.414 . S
C3469 C3472 1.499 . S
C3470 H3450 0.950 . S
C3470 C3469 1.414 . S
C3470 C3471 1.374 . S
C3471 H3451 0.950 . S
C3471 C3467 1.385 . S
C3471 C3470 1.374 . S
C3472 C3469 1.499 . S
C3472 C3473 1.373 . S
C3472 C3474 1.389 . S
C3473 H3452 0.950 . S
C3473 C3472 1.373 . S
C3473 C3489 1.377 . S
C3474 C3472 1.389 . S
C3474 C3475 1.524 . S
C3474 C3488 1.377 . S
C3475 C3474 1.524 . S
C3475 C3476 1.397 . S
C3475 C3480 1.363 . S
C3476 H3453 0.950 . S
C3476 C3475 1.397 . S
C3476 C3477 1.334 . S
C3477 H3454 0.950 . S
C3477 C3476 1.334 . S
C3477 C3478 1.287 . S
C3478 C3477 1.287 . S
C3478 C3479 1.524 . S
C3478 H3497 0.913 . S
C3479 H3455 0.950 . S
C3479 C3478 1.524 . S
C3479 C3480 1.415 . S
C3480 H3456 0.950 . S
C3480 C3475 1.363 . S
C3480 C3479 1.415 . S
C3481 H3457 0.951 . S
C3481 C3482 1.366 . S
C3481 C3483 1.388 . S
C3482 C3481 1.366 . S
C3482 C3486 1.385 . S
C3483 H3458 0.951 . S
C3483 C3481 1.388 . S
C3483 C3484 1.366 . S
C3484 C3483 1.366 . S
C3484 C3485 1.414 . S
C3484 C3487 1.499 . S
C3485 H3459 0.950 . S
C3485 C3484 1.414 . S
C3485 C3486 1.374 . S
C3486 H3460 0.950 . S
C3486 C3482 1.385 . S
C3486 C3485 1.374 . S
C3487 C3484 1.499 . S
C3487 C3488 1.373 . S
C3487 C3489 1.389 . S
C3488 H3461 0.950 . S
C3488 C3474 1.377 . S
C3488 C3487 1.373 . S
C3489 C3473 1.377 . S
C3489 C3487 1.389 . S
C3489 C3490 1.524 . S
C3490 C3489 1.524 . S
C3490 C3491 1.397 . S
C3490 C3495 1.363 . S
C3491 H3462 0.950 . S
C3491 C3490 1.397 . S
C3491 C3492 1.334 . S
C3492 H3463 0.950 . S
C3492 C3491 1.334 . S
C3492 C3493 1.287 . S
C3493 C3492 1.287 . S
C3493 C3494 1.524 . S
C3493 H3496 0.999 . S
C3494 H3464 0.950 . S
C3494 C3493 1.524 . S
C3494 C3495 1.415 . S
C3495 H3465 0.950 . S
C3495 C3490 1.363 . S
C3495 C3494 1.415 . S
H3496 C3493 0.999 . S
H3497 C3478 0.913 . S
H3498 C3516 0.951 . S
H3499 C3518 0.951 . S
H3500 C3520 0.950 . S
H3501 C3521 0.950 . S
H3502 C3523 0.950 . S
H3503 C3526 0.950 . S
H3504 C3527 0.950 . S
H3505 C3529 0.950 . S
H3506 C3530 0.950 . S
H3507 C3531 0.951 . S
H3508 C3533 0.951 . S
H3509 C3535 0.950 . S
H3510 C3536 0.950 . S
H3511 C3538 0.950 . S
H3512 C3541 0.950 . S
H3513 C3542 0.950 . S
H3514 C3544 0.950 . S
H3515 C3545 0.950 . S
C3516 H3498 0.951 . S
C3516 C3517 1.366 . S
C3516 C3518 1.388 . S
C3517 C3516 1.366 . S
C3517 C3521 1.385 . S
C3518 H3499 0.951 . S
C3518 C3516 1.388 . S
C3518 C3519 1.366 . S
C3519 C3518 1.366 . S
C3519 C3520 1.414 . S
C3519 C3522 1.499 . S
C3520 H3500 0.950 . S
C3520 C3519 1.414 . S
C3520 C3521 1.374 . S
C3521 H3501 0.950 . S
C3521 C3517 1.385 . S
C3521 C3520 1.374 . S
C3522 C3519 1.499 . S
C3522 C3523 1.373 . S
C3522 C3524 1.389 . S
C3523 H3502 0.950 . S
C3523 C3522 1.373 . S
C3523 C3539 1.377 . S
C3524 C3522 1.389 . S
C3524 C3525 1.524 . S
C3524 C3538 1.377 . S
C3525 C3524 1.524 . S
C3525 C3526 1.397 . S
C3525 C3530 1.363 . S
C3526 H3503 0.950 . S
C3526 C3525 1.397 . S
C3526 C3527 1.334 . S
C3527 H3504 0.950 . S
C3527 C3526 1.334 . S
C3527 C3528 1.287 . S
C3528 C3527 1.287 . S
C3528 C3529 1.524 . S
C3528 H3547 0.913 . S
C3529 H3505 0.950 . S
C3529 C3528 1.524 . S
C3529 C3530 1.415 . S
C3530 H3506 0.950 . S
C3530 C3525 1.363 . S
C3530 C3529 1.415 . S
C3531 H3507 0.951 . S
C3531 C3532 1.366 . S
C3531 C3533 1.388 . S
C3532 C3531 1.366 . S
C3532 C3536 1.385 . S
C3533 H3508 0.951 . S
C3533 C3531 1.388 . S
C3533 C3534 1.366 1_655 S
C3534 C3533 1.366 1_455 S
C3534 C3535 1.414 . S
C3534 C3537 1.499 . S
C3535 H3509 0.950 . S
C3535 C3534 1.414 . S
C3535 C3536 1.374 1_455 S
C3536 H3510 0.950 . S
C3536 C3532 1.385 . S
C3536 C3535 1.374 1_655 S
C3537 C3534 1.499 . S
C3537 C3538 1.373 . S
C3537 C3539 1.389 . S
C3538 H3511 0.950 . S
C3538 C3524 1.377 . S
C3538 C3537 1.373 . S
C3539 C3523 1.377 . S
C3539 C3537 1.389 . S
C3539 C3540 1.524 . S
C3540 C3539 1.524 . S
C3540 C3541 1.397 . S
C3540 C3545 1.363 . S
C3541 H3512 0.950 . S
C3541 C3540 1.397 . S
C3541 C3542 1.334 . S
C3542 H3513 0.950 . S
C3542 C3541 1.334 . S
C3542 C3543 1.287 . S
C3543 C3542 1.287 . S
C3543 C3544 1.524 . S
C3543 H3546 0.999 . S
C3544 H3514 0.950 . S
C3544 C3543 1.524 . S
C3544 C3545 1.415 . S
C3545 H3515 0.950 . S
C3545 C3540 1.363 . S
C3545 C3544 1.415 . S
H3546 C3543 0.999 . S
H3547 C3528 0.913 . S
H3548 C3566 0.951 . S
H3549 C3568 0.951 . S
H3550 C3570 0.950 . S
H3551 C3571 0.950 . S
H3552 C3573 0.950 . S
H3553 C3576 0.950 . S
H3554 C3577 0.950 . S
H3555 C3579 0.950 . S
H3556 C3580 0.950 . S
H3557 C3581 0.951 . S
H3558 C3583 0.951 . S
H3559 C3585 0.950 . S
H3560 C3586 0.950 . S
H3561 C3588 0.950 . S
H3562 C3591 0.950 . S
H3563 C3592 0.950 . S
H3564 C3594 0.950 . S
H3565 C3595 0.950 . S
C3566 H3548 0.951 . S
C3566 C3567 1.366 . S
C3566 C3568 1.388 . S
C3567 C3566 1.366 . S
C3567 C3571 1.385 . S
C3568 H3549 0.951 . S
C3568 C3566 1.388 . S
C3568 C3569 1.366 . S
C3569 C3568 1.366 . S
C3569 C3570 1.414 . S
C3569 C3572 1.499 . S
C3570 H3550 0.950 . S
C3570 C3569 1.414 . S
C3570 C3571 1.374 . S
C3571 H3551 0.950 . S
C3571 C3567 1.385 . S
C3571 C3570 1.374 . S
C3572 C3569 1.499 . S
C3572 C3573 1.373 . S
C3572 C3574 1.389 . S
C3573 H3552 0.950 . S
C3573 C3572 1.373 . S
C3573 C3589 1.377 . S
C3574 C3572 1.389 . S
C3574 C3575 1.524 . S
C3574 C3588 1.377 . S
C3575 C3574 1.524 . S
C3575 C3576 1.397 . S
C3575 C3580 1.363 . S
C3576 H3553 0.950 . S
C3576 C3575 1.397 . S
C3576 C3577 1.334 . S
C3577 H3554 0.950 . S
C3577 C3576 1.334 . S
C3577 C3578 1.287 . S
C3578 C3577 1.287 . S
C3578 C3579 1.524 . S
C3578 H3597 0.913 . S
C3579 H3555 0.950 . S
C3579 C3578 1.524 . S
C3579 C3580 1.415 . S
C3580 H3556 0.950 . S
C3580 C3575 1.363 . S
C3580 C3579 1.415 . S
C3581 H3557 0.951 . S
C3581 C3582 1.366 . S
C3581 C3583 1.388 . S
C3582 C3581 1.366 . S
C3582 C3586 1.385 . S
C3583 H3558 0.951 . S
C3583 C3581 1.388 . S
C3583 C3584 1.366 . S
C3584 C3583 1.366 . S
C3584 C3585 1.414 . S
C3584 C3587 1.499 . S
C3585 H3559 0.950 . S
C3585 C3584 1.414 . S
C3585 C3586 1.374 . S
C3586 H3560 0.950 . S
C3586 C3582 1.385 . S
C3586 C3585 1.374 . S
C3587 C3584 1.499 . S
C3587 C3588 1.373 . S
C3587 C3589 1.389 . S
C3588 H3561 0.950 . S
C3588 C3574 1.377 . S
C3588 C3587 1.373 . S
C3589 C3573 1.377 . S
C3589 C3587 1.389 . S
C3589 C3590 1.524 . S
C3590 C3589 1.524 . S
C3590 C3591 1.397 . S
C3590 C3595 1.363 . S
C3591 H3562 0.950 . S
C3591 C3590 1.397 . S
C3591 C3592 1.334 . S
C3592 H3563 0.950 . S
C3592 C3591 1.334 . S
C3592 C3593 1.287 . S
C3593 C3592 1.287 . S
C3593 C3594 1.524 . S
C3593 H3596 0.999 . S
C3594 H3564 0.950 . S
C3594 C3593 1.524 . S
C3594 C3595 1.415 . S
C3595 H3565 0.950 . S
C3595 C3590 1.363 . S
C3595 C3594 1.415 . S
H3596 C3593 0.999 . S
H3597 C3578 0.913 . S
H3598 C3616 0.951 . S
H3599 C3618 0.951 . S
H3600 C3620 0.950 . S
H3601 C3621 0.950 . S
H3602 C3623 0.950 . S
H3603 C3626 0.950 . S
H3604 C3627 0.950 . S
H3605 C3629 0.950 . S
H3606 C3630 0.950 . S
H3607 C3631 0.951 . S
H3608 C3633 0.951 . S
H3609 C3635 0.950 . S
H3610 C3636 0.950 . S
H3611 C3638 0.950 . S
H3612 C3641 0.950 . S
H3613 C3642 0.950 . S
H3614 C3644 0.950 . S
H3615 C3645 0.950 . S
C3616 H3598 0.951 . S
C3616 C3617 1.366 . S
C3616 C3618 1.388 . S
C3617 C3616 1.366 . S
C3617 C3621 1.385 . S
C3618 H3599 0.951 . S
C3618 C3616 1.388 . S
C3618 C3619 1.366 . S
C3619 C3618 1.366 . S
C3619 C3620 1.414 . S
C3619 C3622 1.499 . S
C3620 H3600 0.950 . S
C3620 C3619 1.414 . S
C3620 C3621 1.374 . S
C3621 H3601 0.950 . S
C3621 C3617 1.385 . S
C3621 C3620 1.374 . S
C3622 C3619 1.499 . S
C3622 C3623 1.373 . S
C3622 C3624 1.389 . S
C3623 H3602 0.950 . S
C3623 C3622 1.373 . S
C3623 C3639 1.377 . S
C3624 C3622 1.389 . S
C3624 C3625 1.524 . S
C3624 C3638 1.377 . S
C3625 C3624 1.524 . S
C3625 C3626 1.397 . S
C3625 C3630 1.363 . S
C3626 H3603 0.950 . S
C3626 C3625 1.397 . S
C3626 C3627 1.334 . S
C3627 H3604 0.950 . S
C3627 C3626 1.334 . S
C3627 C3628 1.287 . S
C3628 C3627 1.287 . S
C3628 C3629 1.524 . S
C3628 H3647 0.913 . S
C3629 H3605 0.950 . S
C3629 C3628 1.524 . S
C3629 C3630 1.415 . S
C3630 H3606 0.950 . S
C3630 C3625 1.363 . S
C3630 C3629 1.415 . S
C3631 H3607 0.951 . S
C3631 C3632 1.366 . S
C3631 C3633 1.388 . S
C3632 C3631 1.366 . S
C3632 C3636 1.385 . S
C3633 H3608 0.951 . S
C3633 C3631 1.388 . S
C3633 C3634 1.366 . S
C3634 C3633 1.366 . S
C3634 C3635 1.414 . S
C3634 C3637 1.499 . S
C3635 H3609 0.950 . S
C3635 C3634 1.414 . S
C3635 C3636 1.374 . S
C3636 H3610 0.950 . S
C3636 C3632 1.385 . S
C3636 C3635 1.374 . S
C3637 C3634 1.499 . S
C3637 C3638 1.373 . S
C3637 C3639 1.389 . S
C3638 H3611 0.950 . S
C3638 C3624 1.377 . S
C3638 C3637 1.373 . S
C3639 C3623 1.377 . S
C3639 C3637 1.389 . S
C3639 C3640 1.524 . S
C3640 C3639 1.524 . S
C3640 C3641 1.397 . S
C3640 C3645 1.363 . S
C3641 H3612 0.950 . S
C3641 C3640 1.397 . S
C3641 C3642 1.334 . S
C3642 H3613 0.950 . S
C3642 C3641 1.334 . S
C3642 C3643 1.287 . S
C3643 C3642 1.287 . S
C3643 C3644 1.524 . S
C3643 H3646 0.999 . S
C3644 H3614 0.950 . S
C3644 C3643 1.524 . S
C3644 C3645 1.415 . S
C3645 H3615 0.950 . S
C3645 C3640 1.363 . S
C3645 C3644 1.415 . S
H3646 C3643 0.999 . S
H3647 C3628 0.913 . S
C467 C64 1.513 . S
C482 C8 1.513 . S
C517 C78 1.513 . S
C532 C22 1.513 . S
C567 C92 1.513 . S
C582 C36 1.513 . S
C617 C50 1.513 . S
C632 C106 1.513 . S
C667 C120 1.513 . S
C682 C176 1.513 . S
C717 C190 1.513 . S
C732 C134 1.513 . S
C767 C148 1.513 . S
C782 C204 1.513 . S
C817 C218 1.513 . S
C832 C162 1.513 . S
C867 C232 1.513 . S
C882 C288 1.513 . S
C917 C302 1.513 . S
C932 C246 1.513 . S
C967 C316 1.513 . S
C982 C260 1.513 . S
C1017 C330 1.513 . S
C1032 C274 1.513 . S
C1067 C344 1.513 . S
C1082 C400 1.513 . S
C1117 C358 1.513 . S
C1132 C414 1.513 . S
C1167 C372 1.513 . S
C1182 C428 1.513 . S
C1217 C386 1.513 . S
C1232 C442 1.513 . S
C1267 C7 1.194 . S
C1282 C105 1.194 . S
C1317 C21 1.194 . S
C1332 C63 1.194 . S
C1367 C35 1.195 . S
C1382 C77 1.194 . S
C1417 C91 1.195 . S
C1432 C49 1.195 . S
C1467 C217 1.195 . S
C1482 C119 1.195 . S
C1517 C175 1.194 . S
C1532 C133 1.194 . S
C1567 C189 1.194 . S
C1582 C147 1.194 . S
C1617 C161 1.195 . S
C1632 C203 1.195 . S
C1667 C329 1.194 . S
C1682 C231 1.194 . S
C1717 C287 1.195 . S
C1732 C245 1.195 . S
C1767 C301 1.195 . S
C1782 C259 1.195 . S
C1817 C273 1.194 . S
C1832 C315 1.194 . S
C1867 C343 1.195 . S
C1882 C441 1.195 . S
C1917 C357 1.194 . S
C1932 C399 1.194 . S
C1967 C371 1.194 . S
C1982 C413 1.194 . S
C2017 C427 1.194 . S
C2032 C385 1.194 . S
C2067 C9 1.433 . S
C2082 C353 1.438 . S
C2117 C23 1.433 . S
C2132 C143 1.438 . S
C2167 C37 1.433 . S
C2182 C381 1.438 . S
C2217 C115 1.438 . S
C2232 C51 1.433 . S
C2267 C437 1.438 . S
C2282 C65 1.434 . S
C2317 C79 1.434 . S
C2332 C171 1.438 . S
C2367 C93 1.433 . S
C2382 C409 1.438 . S
C2417 C107 1.433 . S
C2432 C199 1.438 . S
C2467 C241 1.438 . S
C2482 C121 1.434 . S
C2517 C31 1.438 . S
C2532 C135 1.433 . S
C2567 C269 1.438 . S
C2582 C149 1.434 . S
C2617 C163 1.433 . S
C2632 C3 1.438 . S
C2667 C325 1.438 . S
C2682 C177 1.433 . S
C2717 C59 1.438 . S
C2732 C191 1.433 . S
C2767 C297 1.438 . S
C2782 C205 1.433 . S
C2817 C87 1.438 . S
C2832 C219 1.433 . S
C2867 C129 1.438 . S
C2882 C233 1.433 . S
C2917 C247 1.434 . S
C2932 C367 1.438 . S
C2967 C261 1.434 . S
C2982 C157 1.438 . S
C3017 C275 1.433 . S
C3032 C339 1.438 . S
C3067 C289 1.433 . S
C3082 C213 1.438 . S
C3117 C395 1.438 . S
C3132 C303 1.434 . S
C3167 C317 1.434 . S
C3182 C185 1.438 . S
C3217 C331 1.433 . S
C3232 C423 1.438 . S
C3267 C345 1.434 . S
C3282 C17 1.438 . S
C3317 C359 1.434 . S
C3332 C255 1.438 . S
C3367 C45 1.438 . S
C3382 C373 1.433 . S
C3417 C227 1.438 . S
C3432 C387 1.434 . S
C3467 C401 1.433 . S
C3482 C101 1.438 . S
C3517 C415 1.433 . S
C3532 C283 1.438 . S
C3567 C73 1.438 . S
C3582 C429 1.434 . S
C3617 C311 1.438 . S
C3632 C443 1.434 . S
