# Generated by pormake.
# Topology vbi, (5)-cn, num edge types: 1
# Building blocks:
#     Node 0, Type 0, BuildingBlock: XOMCOT_clean_sbu_0, # of connection points: 5
#     Node 1, Type 0, BuildingBlock: XOMCOT_clean_sbu_0, # of connection points: 5
#     Node 2, Type 0, BuildingBlock: XOMCOT_clean_sbu_0, # of connection points: 5
#     Node 3, Type 0, BuildingBlock: XOMCOT_clean_sbu_0, # of connection points: 5
#     Node 4, Type 0, BuildingBlock: XOMCOT_clean_sbu_0, # of connection points: 5
#     Node 5, Type 0, BuildingBlock: XOMCOT_clean_sbu_0, # of connection points: 5
#     Node 6, Type 0, BuildingBlock: XOMCOT_clean_sbu_0, # of connection points: 5
#     Node 7, Type 0, BuildingBlock: XOMCOT_clean_sbu_0, # of connection points: 5
#     Node 8, Type 0, BuildingBlock: XOMCOT_clean_sbu_0, # of connection points: 5
#     Node 9, Type 0, BuildingBlock: XOMCOT_clean_sbu_0, # of connection points: 5
#     Node 10, Type 0, BuildingBlock: XOMCOT_clean_sbu_0, # of connection points: 5
#     Node 11, Type 0, BuildingBlock: XOMCOT_clean_sbu_0, # of connection points: 5
#     Node 12, Type 0, BuildingBlock: XOMCOT_clean_sbu_0, # of connection points: 5
#     Node 13, Type 0, BuildingBlock: XOMCOT_clean_sbu_0, # of connection points: 5
#     Node 14, Type 0, BuildingBlock: XOMCOT_clean_sbu_0, # of connection points: 5
#     Node 15, Type 0, BuildingBlock: XOMCOT_clean_sbu_0, # of connection points: 5
#     Node 16, Type 0, BuildingBlock: XOMCOT_clean_sbu_0, # of connection points: 5
#     Node 17, Type 0, BuildingBlock: XOMCOT_clean_sbu_0, # of connection points: 5
#     Node 18, Type 0, BuildingBlock: XOMCOT_clean_sbu_0, # of connection points: 5
#     Node 19, Type 0, BuildingBlock: XOMCOT_clean_sbu_0, # of connection points: 5
#     Node 20, Type 0, BuildingBlock: XOMCOT_clean_sbu_0, # of connection points: 5
#     Node 21, Type 0, BuildingBlock: XOMCOT_clean_sbu_0, # of connection points: 5
#     Node 22, Type 0, BuildingBlock: XOMCOT_clean_sbu_0, # of connection points: 5
#     Node 23, Type 0, BuildingBlock: XOMCOT_clean_sbu_0, # of connection points: 5
#     Node 24, Type 0, BuildingBlock: XOMCOT_clean_sbu_0, # of connection points: 5
#     Node 25, Type 0, BuildingBlock: XOMCOT_clean_sbu_0, # of connection points: 5
#     Node 26, Type 0, BuildingBlock: XOMCOT_clean_sbu_0, # of connection points: 5
#     Node 27, Type 0, BuildingBlock: XOMCOT_clean_sbu_0, # of connection points: 5
#     Node 28, Type 0, BuildingBlock: XOMCOT_clean_sbu_0, # of connection points: 5
#     Node 29, Type 0, BuildingBlock: XOMCOT_clean_sbu_0, # of connection points: 5
#     Node 30, Type 0, BuildingBlock: XOMCOT_clean_sbu_0, # of connection points: 5
#     Node 31, Type 0, BuildingBlock: XOMCOT_clean_sbu_0, # of connection points: 5
#     Edge 32, Type (0, 0), BuildingBlock: OJICUG_clean_linker_0, # of connection points: 2
#     Edge 33, Type (0, 0), BuildingBlock: OJICUG_clean_linker_0, # of connection points: 2
#     Edge 34, Type (0, 0), BuildingBlock: OJICUG_clean_linker_0, # of connection points: 2
#     Edge 35, Type (0, 0), BuildingBlock: OJICUG_clean_linker_0, # of connection points: 2
#     Edge 36, Type (0, 0), BuildingBlock: OJICUG_clean_linker_0, # of connection points: 2
#     Edge 37, Type (0, 0), BuildingBlock: OJICUG_clean_linker_0, # of connection points: 2
#     Edge 38, Type (0, 0), BuildingBlock: OJICUG_clean_linker_0, # of connection points: 2
#     Edge 39, Type (0, 0), BuildingBlock: OJICUG_clean_linker_0, # of connection points: 2
#     Edge 40, Type (0, 0), BuildingBlock: OJICUG_clean_linker_0, # of connection points: 2
#     Edge 41, Type (0, 0), BuildingBlock: OJICUG_clean_linker_0, # of connection points: 2
#     Edge 42, Type (0, 0), BuildingBlock: OJICUG_clean_linker_0, # of connection points: 2
#     Edge 43, Type (0, 0), BuildingBlock: OJICUG_clean_linker_0, # of connection points: 2
#     Edge 44, Type (0, 0), BuildingBlock: OJICUG_clean_linker_0, # of connection points: 2
#     Edge 45, Type (0, 0), BuildingBlock: OJICUG_clean_linker_0, # of connection points: 2
#     Edge 46, Type (0, 0), BuildingBlock: OJICUG_clean_linker_0, # of connection points: 2
#     Edge 47, Type (0, 0), BuildingBlock: OJICUG_clean_linker_0, # of connection points: 2
#     Edge 48, Type (0, 0), BuildingBlock: OJICUG_clean_linker_0, # of connection points: 2
#     Edge 49, Type (0, 0), BuildingBlock: OJICUG_clean_linker_0, # of connection points: 2
#     Edge 50, Type (0, 0), BuildingBlock: OJICUG_clean_linker_0, # of connection points: 2
#     Edge 51, Type (0, 0), BuildingBlock: OJICUG_clean_linker_0, # of connection points: 2
#     Edge 52, Type (0, 0), BuildingBlock: OJICUG_clean_linker_0, # of connection points: 2
#     Edge 53, Type (0, 0), BuildingBlock: OJICUG_clean_linker_0, # of connection points: 2
#     Edge 54, Type (0, 0), BuildingBlock: OJICUG_clean_linker_0, # of connection points: 2
#     Edge 55, Type (0, 0), BuildingBlock: OJICUG_clean_linker_0, # of connection points: 2
#     Edge 56, Type (0, 0), BuildingBlock: OJICUG_clean_linker_0, # of connection points: 2
#     Edge 57, Type (0, 0), BuildingBlock: OJICUG_clean_linker_0, # of connection points: 2
#     Edge 58, Type (0, 0), BuildingBlock: OJICUG_clean_linker_0, # of connection points: 2
#     Edge 59, Type (0, 0), BuildingBlock: OJICUG_clean_linker_0, # of connection points: 2
#     Edge 60, Type (0, 0), BuildingBlock: OJICUG_clean_linker_0, # of connection points: 2
#     Edge 61, Type (0, 0), BuildingBlock: OJICUG_clean_linker_0, # of connection points: 2
#     Edge 62, Type (0, 0), BuildingBlock: OJICUG_clean_linker_0, # of connection points: 2
#     Edge 63, Type (0, 0), BuildingBlock: OJICUG_clean_linker_0, # of connection points: 2
#     Edge 64, Type (0, 0), BuildingBlock: OJICUG_clean_linker_0, # of connection points: 2
#     Edge 65, Type (0, 0), BuildingBlock: OJICUG_clean_linker_0, # of connection points: 2
#     Edge 66, Type (0, 0), BuildingBlock: OJICUG_clean_linker_0, # of connection points: 2
#     Edge 67, Type (0, 0), BuildingBlock: OJICUG_clean_linker_0, # of connection points: 2
#     Edge 68, Type (0, 0), BuildingBlock: OJICUG_clean_linker_0, # of connection points: 2
#     Edge 69, Type (0, 0), BuildingBlock: OJICUG_clean_linker_0, # of connection points: 2
#     Edge 70, Type (0, 0), BuildingBlock: OJICUG_clean_linker_0, # of connection points: 2
#     Edge 71, Type (0, 0), BuildingBlock: OJICUG_clean_linker_0, # of connection points: 2
#     Edge 72, Type (0, 0), BuildingBlock: OJICUG_clean_linker_0, # of connection points: 2
#     Edge 73, Type (0, 0), BuildingBlock: OJICUG_clean_linker_0, # of connection points: 2
#     Edge 74, Type (0, 0), BuildingBlock: OJICUG_clean_linker_0, # of connection points: 2
#     Edge 75, Type (0, 0), BuildingBlock: OJICUG_clean_linker_0, # of connection points: 2
#     Edge 76, Type (0, 0), BuildingBlock: OJICUG_clean_linker_0, # of connection points: 2
#     Edge 77, Type (0, 0), BuildingBlock: OJICUG_clean_linker_0, # of connection points: 2
#     Edge 78, Type (0, 0), BuildingBlock: OJICUG_clean_linker_0, # of connection points: 2
#     Edge 79, Type (0, 0), BuildingBlock: OJICUG_clean_linker_0, # of connection points: 2
#     Edge 80, Type (0, 0), BuildingBlock: OJICUG_clean_linker_0, # of connection points: 2
#     Edge 81, Type (0, 0), BuildingBlock: OJICUG_clean_linker_0, # of connection points: 2
#     Edge 82, Type (0, 0), BuildingBlock: OJICUG_clean_linker_0, # of connection points: 2
#     Edge 83, Type (0, 0), BuildingBlock: OJICUG_clean_linker_0, # of connection points: 2
#     Edge 84, Type (0, 0), BuildingBlock: OJICUG_clean_linker_0, # of connection points: 2
#     Edge 85, Type (0, 0), BuildingBlock: OJICUG_clean_linker_0, # of connection points: 2
#     Edge 86, Type (0, 0), BuildingBlock: OJICUG_clean_linker_0, # of connection points: 2
#     Edge 87, Type (0, 0), BuildingBlock: OJICUG_clean_linker_0, # of connection points: 2
#     Edge 88, Type (0, 0), BuildingBlock: OJICUG_clean_linker_0, # of connection points: 2
#     Edge 89, Type (0, 0), BuildingBlock: OJICUG_clean_linker_0, # of connection points: 2
#     Edge 90, Type (0, 0), BuildingBlock: OJICUG_clean_linker_0, # of connection points: 2
#     Edge 91, Type (0, 0), BuildingBlock: OJICUG_clean_linker_0, # of connection points: 2
#     Edge 92, Type (0, 0), BuildingBlock: OJICUG_clean_linker_0, # of connection points: 2
#     Edge 93, Type (0, 0), BuildingBlock: OJICUG_clean_linker_0, # of connection points: 2
#     Edge 94, Type (0, 0), BuildingBlock: OJICUG_clean_linker_0, # of connection points: 2
#     Edge 95, Type (0, 0), BuildingBlock: OJICUG_clean_linker_0, # of connection points: 2
#     Edge 96, Type (0, 0), BuildingBlock: OJICUG_clean_linker_0, # of connection points: 2
#     Edge 97, Type (0, 0), BuildingBlock: OJICUG_clean_linker_0, # of connection points: 2
#     Edge 98, Type (0, 0), BuildingBlock: OJICUG_clean_linker_0, # of connection points: 2
#     Edge 99, Type (0, 0), BuildingBlock: OJICUG_clean_linker_0, # of connection points: 2
#     Edge 100, Type (0, 0), BuildingBlock: OJICUG_clean_linker_0, # of connection points: 2
#     Edge 101, Type (0, 0), BuildingBlock: OJICUG_clean_linker_0, # of connection points: 2
#     Edge 102, Type (0, 0), BuildingBlock: OJICUG_clean_linker_0, # of connection points: 2
#     Edge 103, Type (0, 0), BuildingBlock: OJICUG_clean_linker_0, # of connection points: 2
#     Edge 104, Type (0, 0), BuildingBlock: OJICUG_clean_linker_0, # of connection points: 2
#     Edge 105, Type (0, 0), BuildingBlock: OJICUG_clean_linker_0, # of connection points: 2
#     Edge 106, Type (0, 0), BuildingBlock: OJICUG_clean_linker_0, # of connection points: 2
#     Edge 107, Type (0, 0), BuildingBlock: OJICUG_clean_linker_0, # of connection points: 2
#     Edge 108, Type (0, 0), BuildingBlock: OJICUG_clean_linker_0, # of connection points: 2
#     Edge 109, Type (0, 0), BuildingBlock: OJICUG_clean_linker_0, # of connection points: 2
#     Edge 110, Type (0, 0), BuildingBlock: OJICUG_clean_linker_0, # of connection points: 2
#     Edge 111, Type (0, 0), BuildingBlock: OJICUG_clean_linker_0, # of connection points: 2
# Relax obj value: 0.362
# Max RMSD: 0.173
# Mean RMSD: 0.173
data_MOF--net-vbi--node1-XOMCOT_clean_sbu_0--edge1-OJICUG_clean_linker_0
_symmetry_space_group_name_H-M    P1
_symmetry_Int_Tables_number       1
_symmetry_cell_setting            triclinic
loop_
_symmetry_equiv_pos_as_xyz
'x, y, z'
_cell_length_a     34.975287
_cell_length_b     27.214941
_cell_length_c     72.994335
_cell_angle_alpha  89.911304
_cell_angle_beta   90.101748
_cell_angle_gamma 90.044692
loop_
_atom_site_label
_atom_site_type_symbol
_atom_site_fract_x
_atom_site_fract_y
_atom_site_fract_z
_atom_type_partial_charge
Co0 Co 0.46194 0.16728 0.06209 0.0
C1 C 0.39051 0.13659 0.04282 0.0
C2 C 0.39187 0.21466 0.04614 0.0
C3 C 0.35679 0.2012 0.03877 0.0
N4 N 0.41326 0.17406 0.04869 0.0
N5 N 0.35572 0.15183 1.03681 0.0
H6 H 0.39875 0.09843 0.04345 0.0
H7 H 0.40024 0.25133 0.0501 0.0
C8 C 0.47723 0.28246 0.06018 0.0
O9 O 0.45089 0.29841 0.0715 0.0
N10 N 0.50888 0.15714 0.0757 0.0
C11 C 0.51105 0.1283 0.0907 0.0
C12 C 0.5484 0.12444 0.09598 0.0
C13 C 0.54534 0.16947 0.0717 0.0
N14 N 0.57 0.15022 0.08409 0.0
C15 C 0.40843 0.15127 0.0909 0.0
C16 C 0.44759 0.20665 0.11651 0.0
C17 C 0.42185 0.1707 0.12271 0.0
C18 C 0.40045 0.14493 0.10959 0.0
C19 C 0.4545 0.21212 0.09773 0.0
N20 N 0.43671 0.18245 0.08525 0.0
H21 H 0.39488 0.12697 0.08117 0.0
H22 H 0.47812 0.23511 0.0936 0.0
H23 H 0.48704 0.10996 0.09706 0.0
H24 H 0.55364 0.19099 0.05988 0.0
O25 O 0.45685 0.09634 0.06214 0.0
O26 O 0.48592 0.14088 0.04081 0.0
O27 O 0.47989 0.23669 0.05643 0.0
C28 C 0.47822 0.09785 0.04747 0.0
H29 H 0.33329 0.2259 1.03592 0.0
H30 H 0.55904 0.10255 0.10728 0.0
H31 H 0.46451 0.22771 0.12615 0.0
H32 H 0.38032 0.11677 0.11372 0.0
Co33 Co 0.83922 0.11622 0.06569 0.0
C34 C 0.91231 0.14774 0.04826 0.0
C35 C 0.89798 0.07406 0.04046 0.0
C36 C 0.93125 0.08797 1.03156 0.0
N37 N 0.88595 0.11162 0.05096 0.0
N38 N 0.94037 0.13439 1.03649 0.0
H39 H 0.91028 0.184 0.05419 0.0
H40 H 0.88335 0.03928 0.03901 0.0
C41 C 0.80086 1.01654 0.07023 0.0
O42 O 0.7885 0.02964 0.08647 0.0
N43 N 0.7935 0.12492 0.08042 0.0
C44 C 0.79201 0.14569 0.09717 0.0
C45 C 0.75464 0.15507 0.10152 0.0
C46 C 0.75676 0.12309 0.07464 0.0
N47 N 0.73244 0.14102 0.08735 0.0
C48 C 0.8895 0.14822 0.09406 0.0
C49 C 0.87429 0.073 0.11834 0.0
C50 C 0.8893 0.11726 0.12511 0.0
C51 C 0.89946 0.15371 0.11251 0.0
C52 C 0.86592 0.06843 0.09959 0.0
N53 N 0.86986 0.10774 0.08808 0.0
H54 H 0.89414 0.17907 0.08507 0.0
H55 H 0.85441 0.03428 0.09478 0.0
H56 H 0.81627 0.15625 0.10539 0.0
H57 H 0.74818 0.1098 0.06129 0.0
O58 O 0.84082 0.18695 0.06401 0.0
O59 O 0.81094 0.13795 0.04447 0.0
O60 O 0.8262 0.04288 0.06187 0.0
C61 C 0.81818 0.18235 0.04994 0.0
H62 H 0.94727 0.06562 1.02202 0.0
H63 H 0.74484 0.17315 0.11384 0.0
H64 H 0.86743 0.04309 0.12757 0.0
H65 H 0.91163 0.1882 0.11709 0.0
Co66 Co 0.46341 0.12148 0.26036 0.0
C67 C 0.38744 0.14482 0.27641 0.0
C68 C 0.40558 0.07306 0.28478 0.0
C69 C 0.37185 0.08467 0.29375 0.0
N70 N 0.41544 0.11082 0.27379 0.0
N71 N 0.36038 0.12992 0.28845 0.0
H72 H 0.38782 0.1812 0.27046 0.0
H73 H 0.4224 0.04026 0.28687 0.0
C74 C 0.48158 1.00731 0.26328 0.0
O75 O 0.4525 0.99019 0.25383 0.0
N76 N 0.5099 0.13531 0.2471 0.0
C77 C 0.51193 0.16342 0.23191 0.0
C78 C 0.5496 0.17047 0.22753 0.0
C79 C 0.54641 0.12661 0.25208 0.0
N80 N 0.57121 0.14749 0.24022 0.0
C81 C 0.41033 0.13313 0.23086 0.0
C82 C 0.45109 0.07709 0.20617 0.0
C83 C 0.424 0.11067 0.19941 0.0
C84 C 0.40201 0.13679 0.21213 0.0
C85 C 0.45819 0.07405 0.22504 0.0
N86 N 0.43936 0.1039 0.23707 0.0
H87 H 0.39614 0.15803 0.24005 0.0
H88 H 0.48226 0.05243 0.2296 0.0
H89 H 0.48763 0.17907 0.22483 0.0
H90 H 0.55457 0.10638 0.26424 0.0
O91 O 0.45457 0.1921 0.2603 0.0
O92 O 0.48542 0.14993 0.28172 0.0
O93 O 0.48503 0.05353 0.26603 0.0
C94 C 0.47524 0.19229 0.27522 0.0
H95 H 0.3575 0.06195 0.30379 0.0
H96 H 0.56031 0.19236 0.21625 0.0
H97 H 0.4686 0.05589 0.19686 0.0
H98 H 0.38101 0.1634 0.20759 0.0
Co99 Co 0.84181 0.16512 0.26249 0.0
C100 C 0.91679 0.13778 0.27891 0.0
C101 C 0.9025 0.21188 0.28596 0.0
C102 C 0.9365 0.1991 0.29459 0.0
N103 N 0.89006 0.17332 0.27603 0.0
N104 N 0.94559 0.15245 0.29003 0.0
H105 H 0.91471 0.10091 0.27351 0.0
H106 H 0.88759 0.24644 0.28731 0.0
C107 C 0.82397 0.27934 0.26422 0.0
O108 O 0.85033 0.29565 0.25295 0.0
N109 N 0.79502 0.15347 0.24905 0.0
C110 C 0.79253 0.12471 0.23407 0.0
C111 C 0.7549 0.12013 0.2292 0.0
C112 C 0.75869 0.16497 0.25346 0.0
N113 N 0.73368 0.14529 0.24138 0.0
C114 C 0.89621 0.15271 0.23357 0.0
C115 C 0.85533 0.20581 0.2079 0.0
C116 C 0.88343 0.17294 0.20184 0.0
C117 C 0.9054 0.14829 0.21498 0.0
C118 C 0.84767 0.21016 0.22667 0.0
N119 N 0.86654 0.18164 0.23922 0.0
H120 H 0.91039 0.1286 0.24309 0.0
H121 H 0.82304 0.23134 0.23074 0.0
H122 H 0.81651 0.10714 0.22742 0.0
H123 H 0.75074 0.18638 0.26534 0.0
O124 O 0.84853 0.09441 0.26244 0.0
O125 O 0.81872 0.13773 0.2838 0.0
O126 O 0.82208 0.23366 0.26823 0.0
C127 C 0.82746 0.09507 0.27721 0.0
H128 H 0.95299 0.22228 0.30369 0.0
H129 H 0.74384 0.09845 0.21795 0.0
H130 H 0.83759 0.22538 0.19814 0.0
H131 H 0.92711 0.12221 0.21084 0.0
Co132 Co 0.58912 0.8673 1.01104 0.0
C133 C 0.66405 0.89464 1.02746 0.0
C134 C 0.64891 0.82117 1.03514 0.0
C135 C 0.68274 0.83405 0.04387 0.0
N136 N 0.6371 0.85925 1.02476 0.0
N137 N 0.69235 0.88033 0.03895 0.0
H138 H 0.66228 0.93129 1.0218 0.0
H139 H 0.6336 0.78696 1.03679 0.0
C140 C 0.57238 0.75236 1.01359 0.0
O141 O 0.60009 0.73517 1.00332 0.0
N142 N 0.54268 0.87866 0.99735 0.0
C143 C 0.54057 0.90685 0.98218 0.0
C144 C 0.50301 0.91203 0.9773 0.0
C145 C 0.50623 0.86807 1.00184 0.0
N146 N 0.48147 0.88783 0.98966 0.0
C147 C 0.64262 0.88215 0.98195 0.0
C148 C 0.60398 0.8248 0.95681 0.0
C149 C 0.63014 0.85992 0.95034 0.0
C150 C 0.65114 0.88675 0.96328 0.0
C151 C 0.59668 0.82084 0.97563 0.0
N152 N 0.61436 0.8513 0.9879 0.0
H153 H 0.65585 0.90759 0.99129 0.0
H154 H 0.57306 0.79806 0.97993 0.0
H155 H 0.56472 0.92392 0.97546 0.0
H156 H 0.49803 0.84744 1.0139 0.0
O157 O 0.59546 0.93817 1.01115 0.0
O158 O 0.56542 0.89415 1.03229 0.0
O159 O 0.56955 0.79848 1.0166 0.0
C160 C 0.57412 0.93705 1.02583 0.0
H161 H 0.69866 0.81128 0.05336 0.0
H162 H 0.49223 0.93368 0.96596 0.0
H163 H 0.58722 0.80307 0.94731 0.0
H164 H 0.6714 0.91455 0.95895 0.0
Co165 Co 0.21163 0.91279 1.00985 0.0
C166 C 0.13619 0.88769 1.02603 0.0
C167 C 0.15352 0.95971 1.03445 0.0
C168 C 0.11982 0.94738 0.04334 0.0
N169 N 0.16385 0.92222 1.02349 0.0
N170 N 0.10886 0.90198 0.03799 0.0
H171 H 0.13698 0.8514 1.02006 0.0
H172 H 0.16994 0.99287 1.03653 0.0
C173 C 0.22878 0.02742 1.01288 0.0
O174 O 0.19948 0.04483 1.00365 0.0
N175 N 0.25788 0.90012 0.99629 0.0
C176 C 0.25967 0.87232 0.98105 0.0
C177 C 0.29723 0.86571 0.97644 0.0
C178 C 0.29445 0.90908 1.00108 0.0
N179 N 0.31904 0.88865 0.98904 0.0
C180 C 0.15843 0.89946 0.98051 0.0
C181 C 0.19766 0.9575 0.9558 0.0
C182 C 0.17148 0.92275 0.94907 0.0
C183 C 0.15015 0.89561 0.96178 0.0
C184 C 0.20475 0.96067 0.97466 0.0
N185 N 0.18678 0.92982 0.98669 0.0
H186 H 0.14494 0.87382 0.9897 0.0
H187 H 0.22833 0.9832 0.97919 0.0
H188 H 0.23529 0.85641 0.97412 0.0
H189 H 0.30283 0.92901 1.01326 0.0
O190 O 0.20393 0.84193 1.00998 0.0
O191 O 0.23464 0.88509 1.03112 0.0
O192 O 0.23244 0.98112 1.01535 0.0
C193 C 0.22507 0.84242 1.02476 0.0
H194 H 0.1051 0.96975 0.05334 0.0
H195 H 0.30775 0.84399 0.96511 0.0
H196 H 0.21464 0.97949 0.94648 0.0
H197 H 0.12986 0.8681 0.95725 0.0
Co198 Co 0.59155 0.91672 0.81305 0.0
C199 C 0.66373 0.88705 0.7946 0.0
C200 C 0.65977 0.96544 0.79575 0.0
C201 C 0.69481 0.95258 0.78825 0.0
N202 N 0.6401 0.9242 0.79975 0.0
N203 N 0.69746 0.90307 0.78767 0.0
H204 H 0.65682 0.84865 0.79624 0.0
H205 H 0.65013 1.00232 0.7986 0.0
C206 C 0.57547 0.03146 0.81104 0.0
O207 O 0.6019 0.04736 0.82238 0.0
N208 N 0.54465 0.90593 0.82643 0.0
C209 C 0.54232 0.87768 0.84159 0.0
C210 C 0.50471 0.87131 0.84602 0.0
C211 C 0.50818 0.91528 0.82149 0.0
N212 N 0.48327 0.89475 0.83341 0.0
C213 C 0.64519 0.90225 0.84201 0.0
C214 C 0.60522 0.95669 0.86751 0.0
C215 C 0.63148 0.92146 0.87378 0.0
C216 C 0.65325 0.89622 0.86071 0.0
C217 C 0.59827 0.96194 0.84871 0.0
N218 N 0.61649 0.93269 0.83627 0.0
H219 H 0.65908 0.87819 0.83235 0.0
H220 H 0.57434 0.98433 0.84452 0.0
H221 H 0.56641 0.86102 0.84851 0.0
H222 H 0.50012 0.9353 0.80926 0.0
O223 O 0.59727 0.84586 0.81332 0.0
O224 O 0.56804 0.88938 0.79173 0.0
O225 O 0.57291 0.98574 0.80718 0.0
C226 C 0.57596 0.84663 0.79859 0.0
H227 H 0.71714 0.97791 0.78422 0.0
H228 H 0.49388 0.84918 0.85721 0.0
H229 H 0.58796 0.97731 0.87711 0.0
H230 H 0.67378 0.86859 0.8649 0.0
Co231 Co 0.21294 0.86631 0.81203 0.0
C232 C 0.14173 0.8951 0.79243 0.0
C233 C 0.14286 0.81741 0.79687 0.0
C234 C 0.10755 0.83034 0.78962 0.0
N235 N 0.16449 0.85814 0.79865 0.0
N236 N 0.10666 0.87948 0.787 0.0
H237 H 0.15006 0.93327 0.79249 0.0
H238 H 0.15111 0.78117 0.8014 0.0
C239 C 0.22906 0.75153 0.81062 0.0
O240 O 0.2024 0.73589 0.82186 0.0
N241 N 0.25966 0.8777 0.82557 0.0
C242 C 0.26165 0.90626 0.84063 0.0
C243 C 0.29916 0.91286 0.84526 0.0
C244 C 0.29623 0.86838 0.82088 0.0
N245 N 0.32089 0.88923 0.83287 0.0
C246 C 0.15886 0.88105 0.84065 0.0
C247 C 0.19845 0.82698 0.86654 0.0
C248 C 0.17191 0.86208 0.87254 0.0
C249 C 0.15035 0.88715 0.85928 0.0
C250 C 0.20589 0.82172 0.84781 0.0
N251 N 0.18781 0.85075 0.83519 0.0
H252 H 0.14507 0.90487 0.83081 0.0
H253 H 0.22999 0.79945 0.84383 0.0
H254 H 0.2374 0.92293 0.84735 0.0
H255 H 0.30457 0.84812 0.80879 0.0
O256 O 0.20701 0.93719 0.81194 0.0
O257 O 0.23665 0.89331 0.79069 0.0
O258 O 0.23174 0.79717 0.80659 0.0
C259 C 0.22858 0.93619 0.79734 0.0
H260 H 0.08373 0.80562 0.78742 0.0
H261 H 0.30973 0.93521 0.85643 0.0
H262 H 0.21554 0.80649 0.8763 0.0
H263 H 0.12962 0.91466 0.86327 0.0
Co264 Co 0.46416 0.66638 0.56777 0.0
C265 C 0.39054 0.63668 0.55014 0.0
C266 C 0.40593 0.71021 0.54256 0.0
C267 C 0.37254 0.69733 0.53353 0.0
N268 N 0.4174 0.67212 0.553 0.0
N269 N 0.36275 0.65099 0.5383 0.0
H270 H 0.39198 0.60025 0.55601 0.0
H271 H 0.42102 0.7447 0.54123 0.0
C272 C 0.50419 0.7655 0.57159 0.0
O273 O 0.51665 0.75298 0.58792 0.0
N274 N 0.50992 0.65687 0.58252 0.0
C275 C 0.51124 0.63621 0.5993 0.0
C276 C 0.54864 0.6283 0.60406 0.0
C277 C 0.54684 0.65982 0.57707 0.0
N278 N 0.57114 0.64323 0.59013 0.0
C279 C 0.41328 0.63677 0.59616 0.0
C280 C 0.43035 0.7116 0.62027 0.0
C281 C 0.4143 0.66802 0.62714 0.0
C282 C 0.40324 0.63185 0.61461 0.0
C283 C 0.43885 0.7156 0.60153 0.0
N284 N 0.43389 0.67636 0.59011 0.0
H285 H 0.40779 0.6061 0.58723 0.0
H286 H 0.45122 0.74919 0.59664 0.0
H287 H 0.48685 0.62518 0.60734 0.0
H288 H 0.55555 0.67358 0.56381 0.0
O289 O 0.4611 0.59544 0.56641 0.0
O290 O 0.49167 0.64335 0.54672 0.0
O291 O 0.47838 0.73927 0.56351 0.0
C292 C 0.48328 0.59923 0.55219 0.0
H293 H 0.35688 0.72035 0.52403 0.0
H294 H 0.55828 0.61086 0.61657 0.0
H295 H 0.43793 0.74135 0.62942 0.0
H296 H 0.39027 0.5979 0.61926 0.0
Co297 Co 0.8411 0.61453 0.56615 0.0
C298 C 0.91415 0.64653 0.54865 0.0
C299 C 0.89967 0.57303 0.54069 0.0
C300 C 0.93318 0.58677 0.53196 0.0
N301 N 0.88757 0.61056 0.55118 0.0
N302 N 0.94243 0.63309 0.53698 0.0
H303 H 0.91227 0.68264 0.55472 0.0
H304 H 0.88506 0.53823 0.53921 0.0
C305 C 0.80363 0.51474 0.57085 0.0
O306 O 0.7929 0.52664 0.5875 0.0
N307 N 0.79561 0.62239 0.5812 0.0
C308 C 0.7945 0.64256 0.59805 0.0
C309 C 0.75717 0.64877 0.60315 0.0
C310 C 0.75853 0.61799 0.57607 0.0
N311 N 0.73444 0.63326 0.58939 0.0
C312 C 0.89138 0.64735 0.59438 0.0
C313 C 0.87865 0.57054 0.6183 0.0
C314 C 0.89269 0.61515 0.62525 0.0
C315 C 0.90171 0.65247 0.6128 0.0
C316 C 0.8699 0.56643 0.59958 0.0
N317 N 0.87245 0.60643 0.58831 0.0
H318 H 0.89508 0.67872 0.58555 0.0
H319 H 0.85927 0.53197 0.5946 0.0
H320 H 0.81888 0.65434 0.60595 0.0
H321 H 0.74952 0.60419 0.56286 0.0
O322 O 0.84209 0.68524 0.56443 0.0
O323 O 0.81209 0.6356 0.54513 0.0
O324 O 0.82855 0.54125 0.56233 0.0
C325 C 0.81926 0.68012 0.55046 0.0
H326 H 0.94939 0.56424 0.52256 0.0
H327 H 0.74764 0.66552 0.61578 0.0
H328 H 0.87278 0.53998 0.6274 0.0
H329 H 0.91313 0.68725 0.61751 0.0
Co330 Co 0.46322 0.61551 0.76416 0.0
C331 C 0.39154 0.64351 0.7833 0.0
C332 C 0.39363 0.56569 0.77931 0.0
C333 C 0.35807 0.57818 0.78631 0.0
N334 N 0.41479 0.6068 0.7774 0.0
N335 N 0.3566 0.62738 0.78862 0.0
H336 H 0.39933 0.68188 0.78303 0.0
H337 H 0.40242 0.52949 0.77498 0.0
C338 C 0.4814 0.50152 0.76538 0.0
O339 O 0.45655 0.48605 0.75317 0.0
N340 N 0.51001 0.62734 0.75081 0.0
C341 C 0.5122 0.65651 0.73589 0.0
C342 C 0.54974 0.66217 0.73116 0.0
C343 C 0.54648 0.61673 0.75534 0.0
N344 N 0.57124 0.63733 0.74338 0.0
C345 C 0.40797 0.6279 0.73572 0.0
C346 C 0.44903 0.57775 0.7094 0.0
C347 C 0.42043 0.61053 0.70374 0.0
C348 C 0.39832 0.63362 0.71719 0.0
C349 C 0.45726 0.57227 0.72807 0.0
N350 N 0.43832 0.59946 0.74092 0.0
H351 H 0.39356 0.65057 0.74567 0.0
H352 H 0.48235 0.5515 0.73184 0.0
H353 H 0.48804 0.67382 0.72923 0.0
H354 H 0.55469 0.59545 0.76726 0.0
O355 O 0.45669 0.68628 0.76402 0.0
O356 O 0.48645 0.64295 0.7855 0.0
O357 O 0.48251 0.5468 0.77001 0.0
C358 C 0.4781 0.68565 0.77872 0.0
H359 H 0.33444 0.55317 0.78852 0.0
H360 H 0.56053 0.68446 0.72002 0.0
H361 H 0.4668 0.5593 0.6994 0.0
H362 H 0.37613 0.65945 0.71337 0.0
Co363 Co 0.84179 0.66513 0.76218 0.0
C364 C 0.91416 0.6391 0.78116 0.0
C365 C 0.9101 0.71705 0.77788 0.0
C366 C 0.94573 0.70563 0.78513 0.0
N367 N 0.89016 0.67516 0.77537 0.0
N368 N 0.9484 0.65637 0.78698 0.0
H369 H 0.90738 0.60045 0.78055 0.0
H370 H 0.90039 0.75322 0.77395 0.0
C371 C 0.82329 0.77907 0.7632 0.0
O372 O 0.84856 0.79451 0.75121 0.0
N373 N 0.79495 0.65218 0.74898 0.0
C374 C 0.79267 0.62302 0.7341 0.0
C375 C 0.755 0.61581 0.72981 0.0
C376 C 0.75851 0.66128 0.75392 0.0
N377 N 0.73358 0.63967 0.74227 0.0
C378 C 0.89699 0.65372 0.73378 0.0
C379 C 0.85537 0.70321 0.70736 0.0
C380 C 0.88458 0.6713 0.7018 0.0
C381 C 0.90688 0.64853 0.71529 0.0
C382 C 0.84694 0.70826 0.726 0.0
N383 N 0.86622 0.68141 0.7389 0.0
H384 H 0.91166 0.6313 0.74377 0.0
H385 H 0.82162 0.72856 0.72975 0.0
H386 H 0.81685 0.60658 0.72723 0.0
H387 H 0.75049 0.68208 0.76593 0.0
O388 O 0.84928 0.59431 0.76226 0.0
O389 O 0.81929 0.6374 0.78361 0.0
O390 O 0.82183 0.7337 0.76777 0.0
C391 C 0.82829 0.59471 0.77706 0.0
H392 H 0.96855 0.73147 0.78789 0.0
H393 H 0.74414 0.59304 0.71882 0.0
H394 H 0.83743 0.72135 0.69731 0.0
H395 H 0.9295 0.62334 0.71153 0.0
Co396 Co 0.59028 0.36881 0.50932 0.0
C397 C 0.6638 0.39845 0.52685 0.0
C398 C 0.64687 0.32635 0.53554 0.0
C399 C 0.68029 0.33921 0.54451 0.0
N400 N 0.63639 0.36356 0.52445 0.0
N401 N 0.69103 0.38466 0.53906 0.0
H402 H 0.6631 0.43416 0.52035 0.0
H403 H 0.63105 0.29255 0.53734 0.0
C404 C 0.55341 0.26881 0.50385 0.0
O405 O 0.54323 0.28138 0.48717 0.0
N406 N 0.54493 0.37735 0.49418 0.0
C407 C 0.54378 0.39717 0.47725 0.0
C408 C 0.50643 0.40464 0.47232 0.0
C409 C 0.50792 0.37393 0.49943 0.0
N410 N 0.48375 0.39007 0.48623 0.0
C411 C 0.63958 0.40313 0.48111 0.0
C412 C 0.63421 0.32312 0.45821 0.0
C413 C 0.64657 0.36829 0.45076 0.0
C414 C 0.65134 0.40764 0.46293 0.0
C415 C 0.62234 0.32038 0.47658 0.0
N416 N 0.62193 0.36145 0.4873 0.0
H417 H 0.64142 0.43537 0.48959 0.0
H418 H 0.61229 0.28573 0.48177 0.0
H419 H 0.56814 0.4079 0.46916 0.0
H420 H 0.49904 0.36055 0.51272 0.0
O421 O 0.59191 0.43952 0.51137 0.0
O422 O 0.56122 0.38984 0.53034 0.0
O423 O 0.57758 0.29547 0.51278 0.0
C424 C 0.5692 0.43447 0.52531 0.0
H425 H 0.69529 0.3168 0.55445 0.0
H426 H 0.49698 0.4217 0.45971 0.0
H427 H 0.63224 0.29052 0.44979 0.0
H428 H 0.66112 0.44326 0.45832 0.0
Co429 Co 0.21413 0.42122 0.51057 0.0
C430 C 0.14291 0.38589 0.5289 0.0
C431 C 0.15049 0.4632 0.53295 0.0
C432 C 0.11598 0.44898 0.54061 0.0
N433 N 0.1676 0.42357 0.52561 0.0
N434 N 0.11094 0.40017 0.53804 0.0
H435 H 0.14802 0.34869 0.52442 0.0
H436 H 0.16155 0.50026 0.53234 0.0
C437 C 0.24954 0.52207 0.5059 0.0
O438 O 0.25926 0.51128 0.48901 0.0
N439 N 0.2595 0.41524 0.49529 0.0
C440 C 0.26051 0.39624 0.47824 0.0
C441 C 0.29778 0.39028 0.47304 0.0
C442 C 0.29663 0.41948 0.50036 0.0
N443 N 0.32063 0.40487 0.4869 0.0
C444 C 0.1644 0.38612 0.48271 0.0
C445 C 0.17087 0.46444 0.45899 0.0
C446 C 0.15886 0.41874 0.45187 0.0
C447 C 0.15338 0.38033 0.46445 0.0
C448 C 0.18201 0.46844 0.47747 0.0
N449 N 0.18208 0.42808 0.48859 0.0
H450 H 0.16208 0.35461 0.49159 0.0
H451 H 0.19191 0.50338 0.48241 0.0
H452 H 0.23614 0.38487 0.47027 0.0
H453 H 0.30574 0.43226 0.51371 0.0
O454 O 0.21477 0.35057 0.5121 0.0
O455 O 0.24404 0.40061 0.53146 0.0
O456 O 0.22531 0.49475 0.51452 0.0
C457 C 0.23781 0.35601 0.52594 0.0
H458 H 0.09572 0.47342 0.54706 0.0
H459 H 0.30716 0.37405 0.4603 0.0
H460 H 0.17319 0.49647 0.45027 0.0
H461 H 0.14366 0.34444 0.46014 0.0
Co462 Co 0.59158 0.4194 0.31452 0.0
C463 C 0.66224 0.38544 0.29547 0.0
C464 C 0.65553 0.4633 0.29281 0.0
C465 C 0.69011 0.4497 0.2851 0.0
N466 N 0.63784 0.42294 0.29932 0.0
N467 N 0.69461 0.40055 0.28684 0.0
H468 H 0.65675 0.34774 0.29928 0.0
H469 H 0.64494 0.50043 0.29414 0.0
C470 C 0.55697 0.52035 0.32024 0.0
O471 O 0.54628 0.50773 0.33683 0.0
N472 N 0.54643 0.41233 0.32991 0.0
C473 C 0.54568 0.39208 0.34678 0.0
C474 C 0.50847 0.38511 0.35197 0.0
C475 C 0.50922 0.41632 0.32492 0.0
N476 N 0.4854 0.40026 0.33827 0.0
C477 C 0.64248 0.38261 0.3415 0.0
C478 C 0.63505 0.45773 0.36656 0.0
C479 C 0.64792 0.4116 0.37261 0.0
C480 C 0.65389 0.3749 0.35958 0.0
C481 C 0.62367 0.4638 0.34818 0.0
N482 N 0.62409 0.42482 0.33639 0.0
H483 H 0.64518 0.35233 0.33211 0.0
H484 H 0.61292 0.49895 0.34392 0.0
H485 H 0.57024 0.38039 0.35458 0.0
H486 H 0.49992 0.42978 0.31169 0.0
O487 O 0.59093 0.34889 0.31249 0.0
O488 O 0.56122 0.39981 0.29358 0.0
O489 O 0.58075 0.49324 0.31131 0.0
C490 C 0.56761 0.3549 0.29879 0.0
H491 H 0.7109 0.4747 0.27931 0.0
H492 H 0.49929 0.36772 0.36456 0.0
H493 H 0.63124 0.48763 0.37615 0.0
H494 H 0.66489 0.33925 0.3636 0.0
Co495 Co 0.21554 0.36347 0.3156 0.0
C496 C 0.14475 0.39809 0.29653 0.0
C497 C 0.15104 0.32013 0.29405 0.0
C498 C 0.11663 0.33403 0.28617 0.0
N499 N 0.16891 0.36035 0.30055 0.0
N500 N 0.1124 0.38323 0.28778 0.0
H501 H 0.15045 0.4358 0.30022 0.0
H502 H 0.16146 0.28292 0.29543 0.0
C503 C 0.25065 0.26248 0.32084 0.0
O504 O 0.26197 0.27467 0.33738 0.0
N505 N 0.26109 0.37026 0.3308 0.0
C506 C 0.26231 0.39064 0.34762 0.0
C507 C 0.29967 0.39782 0.35259 0.0
C508 C 0.29816 0.36643 0.32562 0.0
N509 N 0.32235 0.38269 0.33879 0.0
C510 C 0.16492 0.39997 0.34262 0.0
C511 C 0.17376 0.32576 0.36805 0.0
C512 C 0.16033 0.37176 0.37392 0.0
C513 C 0.15379 0.40798 0.36071 0.0
C514 C 0.1849 0.31938 0.34967 0.0
N515 N 0.18361 0.35792 0.33764 0.0
H516 H 0.1617 0.42993 0.33309 0.0
H517 H 0.19618 0.28441 0.34558 0.0
H518 H 0.23795 0.40242 0.35549 0.0
H519 H 0.30707 0.35302 0.31235 0.0
O520 O 0.21627 0.434 0.31364 0.0
O521 O 0.24536 0.38319 0.29455 0.0
O522 O 0.22626 0.28962 0.31222 0.0
C523 C 0.23925 0.42803 0.29984 0.0
H524 H 0.09578 0.30922 0.2803 0.0
H525 H 0.30919 0.41538 0.36508 0.0
H526 H 0.1781 0.29621 0.37779 0.0
H527 H 0.1424 0.4435 0.36457 0.0
Co528 Co 0.96321 0.16386 0.56295 0.0
C529 C 0.89135 0.13547 0.54374 0.0
C530 C 0.89313 0.21327 0.54779 0.0
C531 C 0.85789 0.20058 0.54035 0.0
N532 N 0.9143 0.1723 0.54992 0.0
N533 N 0.85662 0.15137 0.53796 0.0
H534 H 0.89937 0.09721 0.54391 0.0
H535 H 0.9018 0.24959 0.55208 0.0
C536 C 0.98208 0.27761 0.56089 0.0
O537 O 0.95687 0.29347 0.5728 0.0
N538 N 1.01048 0.15227 0.57602 0.0
C539 C 1.01336 0.12363 0.59105 0.0
C540 C 0.05109 0.11934 0.59575 0.0
C541 C 0.04668 0.16399 0.57141 0.0
N542 N 0.07198 0.14457 0.58342 0.0
C543 C 0.90961 0.15282 0.59198 0.0
C544 C 0.95196 0.20456 0.61748 0.0
C545 C 0.92429 0.17117 0.62374 0.0
C546 C 0.90144 0.14734 0.61068 0.0
C547 C 0.95903 0.20926 0.59869 0.0
N548 N 0.93946 0.18136 0.58624 0.0
H549 H 0.89465 0.12976 0.5823 0.0
H550 H 0.98382 0.23006 0.5945 0.0
H551 H 0.98957 0.1061 0.59789 0.0
H552 H 0.05432 0.18549 0.55948 0.0
O553 O 0.95587 0.09308 0.56371 0.0
O554 O 0.98518 0.13498 0.54172 0.0
O555 O 0.98312 0.23216 0.55645 0.0
C556 C 0.97639 0.09271 0.54876 0.0
H557 H 0.83444 0.22556 0.53775 0.0
H558 H 0.06244 0.09791 0.60702 0.0
H559 H 0.97007 0.22409 0.62708 0.0
H560 H 0.87983 0.12112 0.61486 0.0
Co561 Co 0.34234 0.12328 0.56419 0.0
C562 C 0.41831 0.14705 0.54827 0.0
C563 C 0.39974 0.07597 0.53937 0.0
C564 C 0.43315 0.08829 0.53022 0.0
N565 N 0.39035 0.11287 0.5508 0.0
N566 N 0.44487 0.13312 0.53586 0.0
H567 H 0.41807 0.18309 0.55446 0.0
H568 H 0.38266 0.04347 0.53705 0.0
C569 C 0.32378 1.00931 0.56151 0.0
O570 O 0.35226 0.99223 0.57139 0.0
N571 N 0.29576 0.13696 0.57736 0.0
C572 C 0.29364 0.16534 0.59245 0.0
C573 C 0.25596 0.17213 0.59682 0.0
C574 C 0.25928 0.1278 0.57244 0.0
N575 N 0.23442 0.14868 0.58424 0.0
C576 C 0.39524 0.13477 0.59378 0.0
C577 C 0.35394 0.07908 0.61847 0.0
C578 C 0.38102 0.11263 0.62523 0.0
C579 C 0.40329 0.13856 0.61253 0.0
C580 C 0.34707 0.07595 0.59958 0.0
N581 N 0.36618 0.10562 0.58754 0.0
H582 H 0.40964 0.15957 0.5846 0.0
H583 H 0.32291 0.0545 0.59502 0.0
H584 H 0.3179 0.18131 0.59946 0.0
H585 H 0.25118 0.10716 0.56039 0.0
O586 O 0.35121 0.19383 0.56425 0.0
O587 O 0.3205 0.1517 0.54279 0.0
O588 O 0.32076 0.05544 0.55847 0.0
C589 C 0.33067 0.19402 0.54928 0.0
H590 H 0.44702 0.06647 0.51979 0.0
H591 H 0.24519 0.1941 0.60803 0.0
H592 H 0.33622 0.058 0.62776 0.0
H593 H 0.4243 0.16515 0.61708 0.0
Co594 Co 0.96411 0.11884 0.76112 0.0
C595 C 0.88893 0.14447 0.77735 0.0
C596 C 0.90574 0.07217 0.78572 0.0
C597 C 0.87192 0.08448 0.79447 0.0
N598 N 0.91645 0.10984 0.77487 0.0
N599 N 0.86128 0.13003 0.78913 0.0
H600 H 0.88998 0.18086 0.77143 0.0
H601 H 0.92189 0.0388 0.78776 0.0
C602 C 0.97958 1.00391 0.76393 0.0
O603 O 0.94978 0.98694 0.75496 0.0
N604 N 1.01028 0.13104 0.74741 0.0
C605 C 1.01198 0.15891 0.73214 0.0
C606 C 0.0495 0.16618 0.72761 0.0
C607 C 0.04689 0.12271 0.75228 0.0
N608 N 0.0714 0.14362 0.74028 0.0
C609 C 0.91093 0.13424 0.73187 0.0
C610 C 0.94872 0.07515 0.70708 0.0
C611 C 0.92325 0.11082 0.7004 0.0
C612 C 0.9026 0.13854 0.71316 0.0
C613 C 0.9559 0.0716 0.72593 0.0
N614 N 0.93868 0.10291 0.738 0.0
H615 H 0.89806 0.16025 0.74108 0.0
H616 H 0.97908 0.04831 0.73039 0.0
H617 H 0.98757 0.17476 0.72521 0.0
H618 H 0.05533 0.10312 0.76454 0.0
O619 O 0.95736 0.18964 0.76147 0.0
O620 O 0.98798 0.1456 0.78243 0.0
O621 O 0.98394 0.0501 0.76629 0.0
C622 C 0.97901 0.18853 0.77608 0.0
H623 H 0.85683 0.06196 0.80433 0.0
H624 H 0.0599 0.18829 0.71633 0.0
H625 H 0.96513 0.05266 0.69773 0.0
H626 H 0.88287 0.16676 0.70866 0.0
Co627 Co 0.34168 0.1676 0.76248 0.0
C628 C 0.41399 0.13839 0.78106 0.0
C629 C 0.41 0.21672 0.77951 0.0
C630 C 0.44534 0.2041 0.7868 0.0
N631 N 0.39015 0.17538 0.77589 0.0
N632 N 0.44802 0.15461 0.78763 0.0
H633 H 0.40707 0.09994 0.7796 0.0
H634 H 0.40036 0.2535 0.77645 0.0
C635 C 0.32549 0.28238 0.76426 0.0
O636 O 0.35226 0.29836 0.75314 0.0
N637 N 0.29497 0.15664 0.74893 0.0
C638 C 0.29276 0.12828 0.73383 0.0
C639 C 0.25522 0.12308 0.72897 0.0
C640 C 0.25852 0.16725 0.75342 0.0
N641 N 0.23374 0.14741 0.74127 0.0
C642 C 0.39537 0.15291 0.73368 0.0
C643 C 0.35582 0.20795 0.70807 0.0
C644 C 0.38198 0.1726 0.70188 0.0
C645 C 0.40354 0.14702 0.71501 0.0
C646 C 0.34871 0.21296 0.72684 0.0
N647 N 0.36676 0.18348 0.73933 0.0
H648 H 0.4091 0.12867 0.74338 0.0
H649 H 0.32481 0.23541 0.73095 0.0
H650 H 0.31685 0.11105 0.72716 0.0
H651 H 0.25034 0.18786 0.76545 0.0
O652 O 0.34748 0.09668 0.76242 0.0
O653 O 0.31801 0.14034 0.78377 0.0
O654 O 0.32285 0.23664 0.76811 0.0
C655 C 0.32605 0.09753 0.77707 0.0
H656 H 0.46788 0.22954 0.79045 0.0
H657 H 0.24442 0.10129 0.71769 0.0
H658 H 0.33876 0.22886 0.69843 0.0
H659 H 0.42397 0.11929 0.71088 0.0
Co660 Co 0.09249 0.86471 0.51103 0.0
C661 C 0.1628 0.89954 0.53031 0.0
C662 C 0.1586 0.82112 0.53139 0.0
C663 C 0.19313 0.83546 0.53908 0.0
N664 N 0.13934 0.86138 0.52591 0.0
N665 N 0.19604 0.885 0.53834 0.0
H666 H 0.15608 0.93737 0.52725 0.0
H667 H 0.14912 0.78372 0.5293 0.0
C668 C 0.05584 0.76445 0.50621 0.0
O669 O 0.04535 0.77641 0.48951 0.0
N670 N 0.04689 0.87189 0.49596 0.0
C671 C 0.04547 0.89184 0.47904 0.0
C672 C 1.00802 0.89883 0.47417 0.0
C673 C 1.00997 0.86826 0.50132 0.0
N674 N 0.98566 0.8841 0.48816 0.0
C675 C 0.14299 0.89953 0.48361 0.0
C676 C 0.133 0.82461 0.45865 0.0
C677 C 0.14651 0.87031 0.45244 0.0
C678 C 0.15368 0.90688 0.46541 0.0
C679 C 0.1223 0.81892 0.47714 0.0
N680 N 0.12402 0.85789 0.48892 0.0
H681 H 0.14682 0.92965 0.493 0.0
H682 H 0.11113 0.78411 0.48153 0.0
H683 H 0.06975 0.90314 0.47099 0.0
H684 H 1.00121 0.85494 0.51464 0.0
O685 O 0.09257 0.93533 0.51257 0.0
O686 O 0.06325 0.88563 0.53205 0.0
O687 O 0.08054 0.79113 0.51486 0.0
C688 C 0.06976 0.93019 0.52649 0.0
H689 H 0.21496 0.81078 0.54414 0.0
H690 H 0.99815 0.91565 0.46158 0.0
H691 H 0.12829 0.79475 0.44912 0.0
H692 H 0.16525 0.94215 0.46129 0.0
Co693 Co 0.71474 0.91219 0.51027 0.0
C694 C 0.63945 0.88599 0.52666 0.0
C695 C 0.65593 0.95872 0.53461 0.0
C696 C 0.62246 0.94607 0.54364 0.0
N697 N 0.6667 0.92101 0.52385 0.0
N698 N 0.61202 0.90021 0.5386 0.0
H699 H 0.64061 0.8495 0.52087 0.0
H700 H 0.67191 0.99232 0.53647 0.0
C701 C 0.73081 0.02708 0.51301 0.0
O702 O 0.70196 0.04407 0.50336 0.0
N703 N 0.76138 0.90008 0.4968 0.0
C704 C 0.76332 0.87156 0.48175 0.0
C705 C 0.80083 0.86601 0.47691 0.0
C706 C 0.79799 0.91063 0.50121 0.0
N707 N 0.82268 0.89047 0.4891 0.0
C708 C 0.6615 0.89794 0.48099 0.0
C709 C 0.70059 0.95543 0.45604 0.0
C710 C 0.6743 0.9206 0.44946 0.0
C711 C 0.65309 0.8937 0.46229 0.0
C712 C 0.70778 0.95903 0.47489 0.0
N713 N 0.68987 0.92847 0.48705 0.0
H714 H 0.64806 0.87253 0.49029 0.0
H715 H 0.73135 0.98172 0.47933 0.0
H716 H 0.73906 0.85453 0.4751 0.0
H717 H 0.80633 0.93159 0.51315 0.0
O718 O 0.70752 0.84137 0.51051 0.0
O719 O 0.73784 0.8852 0.53163 0.0
O720 O 0.73461 0.98089 0.51568 0.0
C721 C 0.7284 0.84237 0.52537 0.0
H722 H 0.60753 0.96859 0.55352 0.0
H723 H 0.8113 0.84388 0.46568 0.0
H724 H 0.71749 0.97722 0.44663 0.0
H725 H 0.63272 0.86615 0.45787 0.0
Co726 Co 0.09227 0.91713 0.31508 0.0
C727 C 0.16378 0.88302 0.29688 0.0
C728 C 0.1564 0.96052 0.29324 0.0
C729 C 0.19078 0.9465 0.28541 0.0
N730 N 0.13926 0.92061 0.30042 0.0
N731 N 0.19567 0.89754 0.28771 0.0
H732 H 0.15851 0.84565 0.30116 0.0
H733 H 0.14533 0.99754 0.29398 0.0
C734 C 0.05671 0.0177 0.3204 0.0
O735 O 0.04638 1.00513 0.33705 0.0
N736 N 0.04635 0.90992 0.32987 0.0
C737 C 0.04457 0.89041 0.34685 0.0
C738 C 1.00709 0.88204 0.35128 0.0
C739 C 1.00956 0.91236 0.32412 0.0
N740 N 0.98501 0.89564 0.337 0.0
C741 C 0.14076 0.88158 0.34344 0.0
C742 C 0.13478 0.96036 0.36688 0.0
C743 C 0.14645 0.91469 0.37418 0.0
C744 C 0.1516 0.87598 0.36175 0.0
C745 C 0.12377 0.96416 0.34837 0.0
N746 N 0.12347 0.92364 0.33737 0.0
H747 H 0.14311 0.84998 0.33465 0.0
H748 H 0.11436 0.9992 0.34329 0.0
H749 H 0.06863 0.88017 0.35525 0.0
H750 H 1.00112 0.92501 0.31065 0.0
O751 O 0.09224 0.84654 0.31331 0.0
O752 O 0.06328 0.89656 0.29383 0.0
O753 O 0.08069 0.9908 0.31147 0.0
C754 C 0.06961 0.85189 0.29931 0.0
H755 H 0.21095 0.97113 0.27895 0.0
H756 H 0.99715 0.86487 0.36378 0.0
H757 H 0.13276 0.99261 0.37547 0.0
H758 H 0.16108 0.84008 0.36619 0.0
Co759 Co 0.71405 0.86486 0.3124 0.0
C760 C 0.64291 0.89634 0.29302 0.0
C761 C 0.64352 0.8183 0.29655 0.0
C762 C 0.60852 0.8322 0.2892 0.0
N763 N 0.66535 0.8586 0.29896 0.0
N764 N 0.60791 0.88156 0.28711 0.0
H765 H 0.65149 0.9344 0.29354 0.0
H766 H 0.65153 0.78157 0.30063 0.0
C767 C 0.72917 0.74976 0.31028 0.0
O768 O 0.7029 0.73364 0.32163 0.0
N769 N 0.76108 0.87466 0.32605 0.0
C770 C 0.7631 0.903 0.34115 0.0
C771 C 0.80047 0.90795 0.34625 0.0
C772 C 0.79772 0.86377 0.3218 0.0
N773 N 0.82234 0.8834 0.33416 0.0
C774 C 0.66019 0.87993 0.34109 0.0
C775 C 0.69924 0.82448 0.36676 0.0
C776 C 0.67324 0.86008 0.3729 0.0
C777 C 0.6519 0.88586 0.35975 0.0
C778 C 0.70641 0.81936 0.34799 0.0
N779 N 0.68868 0.84911 0.33549 0.0
H780 H 0.64668 0.90429 0.33135 0.0
H781 H 0.73014 0.79659 0.3439 0.0
H782 H 0.73895 0.92055 0.34765 0.0
H783 H 0.80617 0.84317 0.30981 0.0
O784 O 0.70905 0.93573 0.31267 0.0
O785 O 0.73808 0.89175 0.2912 0.0
O786 O 0.73186 0.79558 0.30657 0.0
C787 C 0.73046 0.93457 0.29801 0.0
H788 H 0.58474 0.80781 0.28647 0.0
H789 H 0.8109 0.92992 0.35756 0.0
H790 H 0.71614 0.80347 0.37644 0.0
H791 H 0.6316 0.91376 0.36385 0.0
Co792 Co 0.96259 0.66644 0.06568 0.0
C793 C 0.89047 0.63458 0.04735 0.0
C794 C 0.89858 0.71218 0.04439 0.0
C795 C 0.8639 0.69922 1.03653 0.0
N796 N 0.91544 0.67154 0.05116 0.0
N797 N 0.85859 0.65024 0.03843 0.0
H798 H 0.89536 0.59679 0.05121 0.0
H799 H 0.91001 0.74898 0.04545 0.0
C800 C 1.00099 0.76624 0.06997 0.0
O801 O 1.01329 0.75347 0.0863 0.0
N802 N 1.00854 0.65768 0.08033 0.0
C803 C 1.01013 0.63702 0.09712 0.0
C804 C 0.04763 0.63006 0.10189 0.0
C805 C 0.0454 0.66159 0.0749 0.0
N806 N 0.06989 0.64559 0.08797 0.0
C807 C 0.91224 0.63518 0.09399 0.0
C808 C 0.92815 0.71012 0.11823 0.0
C809 C 0.91313 0.66589 0.12505 0.0
C810 C 0.90252 0.62961 0.11246 0.0
C811 C 0.93642 0.71465 0.09949 0.0
N812 N 0.93229 0.67534 0.08804 0.0
H813 H 0.90696 0.60472 0.08489 0.0
H814 H 0.94784 0.7488 0.09463 0.0
H815 H 0.98591 0.62542 0.10515 0.0
H816 H 0.05395 0.67563 0.06165 0.0
O817 O 0.96065 0.59549 0.06421 0.0
O818 O 0.99035 0.64416 0.0445 0.0
O819 O 0.97582 0.73962 0.06162 0.0
C820 C 0.98274 0.59981 0.04997 0.0
H821 H 0.84374 0.72446 1.03037 0.0
H822 H 0.05755 0.61289 0.1144 0.0
H823 H 0.93516 0.74002 0.12742 0.0
H824 H 0.89016 0.59523 0.11705 0.0
Co825 Co 0.33979 0.61543 0.06458 0.0
C826 C 0.41132 0.64676 0.04586 0.0
C827 C 0.40426 0.56881 0.04392 0.0
C828 C 0.43908 0.58181 1.03621 0.0
N829 N 0.38665 0.60968 0.04994 0.0
N830 N 0.44375 0.63105 1.03749 0.0
H831 H 0.40592 0.68468 0.04927 0.0
H832 H 0.39334 0.53188 0.04552 0.0
C833 C 0.3003 0.51807 0.07033 0.0
O834 O 0.29105 0.53167 0.087 0.0
N835 N 0.29423 0.62539 0.0794 0.0
C836 C 0.29319 0.64681 0.09604 0.0
C837 C 0.25589 0.65397 0.10101 0.0
C838 C 0.25716 0.62127 0.07424 0.0
N839 N 0.23313 0.63778 0.08736 0.0
C840 C 0.39017 0.64908 0.09259 0.0
C841 C 0.37636 0.57394 0.11711 0.0
C842 C 0.39045 0.61885 0.12374 0.0
C843 C 0.40011 0.65528 0.11102 0.0
C844 C 0.36795 0.5688 0.09841 0.0
N845 N 0.37079 0.60817 0.08686 0.0
H846 H 0.39465 0.67956 0.08338 0.0
H847 H 0.35746 0.53405 0.09362 0.0
H848 H 0.31764 0.65866 0.10388 0.0
H849 H 0.24811 0.60653 0.06117 0.0
O850 O 0.34134 0.68601 0.06235 0.0
O851 O 0.31119 0.63597 0.04329 0.0
O852 O 0.3264 0.54193 0.06151 0.0
C853 C 0.31844 0.68066 0.04842 0.0
H854 H 0.45982 0.5564 1.03068 0.0
H855 H 0.24641 0.67162 0.11347 0.0
H856 H 0.37023 0.54394 0.12642 0.0
H857 H 0.41183 0.69012 0.11549 0.0
Co858 Co 0.96364 0.61813 0.26227 0.0
C859 C 0.8912 0.64461 0.28112 0.0
C860 C 0.89462 0.56674 0.27748 0.0
C861 C 0.859 0.57843 0.28464 0.0
N862 N 0.91498 0.6084 0.27526 0.0
N863 N 0.85671 0.62766 0.28673 0.0
H864 H 0.89835 0.68317 0.28073 0.0
H865 H 0.90408 0.53061 0.2734 0.0
C866 C 0.984 0.50494 0.26382 0.0
O867 O 0.95959 0.48921 0.25146 0.0
N868 N 1.01073 0.63087 0.24929 0.0
C869 C 1.0134 0.66005 0.23439 0.0
C870 C 0.05111 0.66499 0.22977 0.0
C871 C 0.04701 0.6195 0.2539 0.0
N872 N 0.07217 0.63965 0.24203 0.0
C873 C 0.90858 0.62714 0.2336 0.0
C874 C 0.95148 0.57869 0.20751 0.0
C875 C 0.92175 0.60958 0.20171 0.0
C876 C 0.89883 0.63178 0.21504 0.0
C877 C 0.9598 0.5742 0.22621 0.0
N878 N 0.93981 0.60053 0.23894 0.0
H879 H 0.89334 0.64923 0.24344 0.0
H880 H 0.98548 0.55481 0.23011 0.0
H881 H 0.98946 0.67742 0.22758 0.0
H882 H 0.05481 0.59769 0.26574 0.0
O883 O 0.95559 0.68884 0.26169 0.0
O884 O 0.98541 0.64708 0.28359 0.0
O885 O 0.98419 0.55011 0.26865 0.0
C886 C 0.97616 0.68933 0.27666 0.0
H887 H 0.83594 0.55279 0.2872 0.0
H888 H 0.06232 0.68688 0.21861 0.0
H889 H 0.9699 0.56097 0.19761 0.0
H890 H 0.87578 0.6562 0.21111 0.0
Co891 Co 0.34273 0.66112 0.26136 0.0
C892 C 0.41888 0.63823 0.2773 0.0
C893 C 0.40135 0.71056 0.28515 0.0
C894 C 0.43546 0.69927 0.29395 0.0
N895 N 0.3909 0.6722 0.27461 0.0
N896 N 0.44653 0.65371 0.28891 0.0
H897 H 0.41825 0.60159 0.27163 0.0
H898 H 0.3848 0.74369 0.28699 0.0
C899 C 0.32298 0.77453 0.26355 0.0
O900 O 0.34996 0.79133 0.25273 0.0
N901 N 0.29596 0.64688 0.24833 0.0
C902 C 0.29367 0.61805 0.23336 0.0
C903 C 0.25594 0.61134 0.22898 0.0
C904 C 0.25955 0.65637 0.25318 0.0
N905 N 0.23457 0.63528 0.24144 0.0
C906 C 0.39665 0.65229 0.23209 0.0
C907 C 0.35361 0.70407 0.20686 0.0
C908 C 0.38281 0.67318 0.20053 0.0
C909 C 0.40577 0.64923 0.21346 0.0
C910 C 0.34603 0.70714 0.22567 0.0
N911 N 0.36611 0.67928 0.23798 0.0
H912 H 0.4118 0.62869 0.24144 0.0
H913 H 0.32085 0.7269 0.22998 0.0
H914 H 0.31787 0.60193 0.2264 0.0
H915 H 0.25157 0.67749 0.26513 0.0
O916 O 0.35205 0.59064 0.2612 0.0
O917 O 0.32152 0.63225 0.28279 0.0
O918 O 0.32097 0.72866 0.26726 0.0
C919 C 0.33181 0.59009 0.27622 0.0
H920 H 0.45043 0.72245 0.30363 0.0
H921 H 0.24501 0.5892 0.21783 0.0
H922 H 0.33511 0.72305 0.19727 0.0
H923 H 0.42832 0.62462 0.20912 0.0
Co924 Co 0.08913 0.36827 1.00787 0.0
C925 C 0.155 0.39741 1.03154 0.0
C926 C 0.16392 0.32721 1.01909 0.0
C927 C 0.19792 0.34255 1.02701 0.0
N928 N 0.13685 0.36174 1.02181 0.0
N929 N 0.19225 0.3868 1.03482 0.0
H930 H 0.14226 0.43225 1.03511 0.0
H931 H 0.16004 0.29476 1.01075 0.0
C932 C 0.04861 0.26969 1.00434 0.0
O933 O 0.03516 0.28296 0.98828 0.0
N934 N 0.0429 0.37835 0.99363 0.0
C935 C 0.04105 0.39927 0.97688 0.0
C936 C 1.00356 0.40855 0.97266 0.0
C937 C 1.00636 0.37661 0.99958 0.0
N938 N 0.98175 0.39435 0.98692 0.0
C939 C 0.14023 0.3974 0.97966 0.0
C940 C 0.12152 0.32467 0.95492 0.0
C941 C 0.13882 0.36788 0.94844 0.0
C942 C 0.15063 0.40294 0.96127 0.0
C943 C 0.11246 0.32015 0.97355 0.0
N944 N 0.11833 0.35853 0.98525 0.0
H945 H 0.14692 0.42673 0.98907 0.0
H946 H 0.09917 0.28687 0.97813 0.0
H947 H 0.06522 0.40962 0.96856 0.0
H948 H 0.99811 0.36299 1.01294 0.0
O949 O 0.09222 0.43926 1.00924 0.0
O950 O 0.06248 0.39131 1.02923 0.0
O951 O 0.07505 0.29539 1.0122 0.0
C952 C 0.07009 0.43546 1.02352 0.0
H953 H 0.22498 0.32332 1.02656 0.0
H954 H 0.99335 0.42629 0.96031 0.0
H955 H 0.1134 0.2957 0.94552 0.0
H956 H 0.16474 0.43642 0.95693 0.0
Co957 Co 0.71157 0.41566 1.01213 0.0
C958 C 0.63934 0.38828 1.03106 0.0
C959 C 0.64284 0.4663 1.02782 0.0
C960 C 0.6073 0.45432 1.03502 0.0
N961 N 0.6631 0.42474 1.02532 0.0
N962 N 0.60496 0.405 1.03687 0.0
H963 H 0.64643 0.34973 1.03044 0.0
H964 H 0.65228 0.50261 1.02389 0.0
C965 C 0.73062 0.52944 1.01365 0.0
O966 O 0.70597 0.54538 1.00143 0.0
N967 N 0.75839 0.40355 0.99884 0.0
C968 C 0.76053 0.37377 0.98414 0.0
C969 C 0.79787 0.37007 0.97885 0.0
C970 C 0.79474 0.41673 1.00264 0.0
N971 N 0.81938 0.397 0.99043 0.0
C972 C 0.65651 0.40468 0.98354 0.0
C973 C 0.69844 0.45477 0.95744 0.0
C974 C 0.66954 0.4226 0.95164 0.0
C975 C 0.64703 0.39954 0.96497 0.0
C976 C 0.7065 0.45967 0.97613 0.0
N977 N 0.6871 0.43253 0.98888 0.0
H978 H 0.64174 0.38202 0.99341 0.0
H979 H 0.73174 0.48002 0.98003 0.0
H980 H 0.73646 0.35524 0.97788 0.0
H981 H 0.80297 0.43958 1.01411 0.0
O982 O 0.70426 0.3448 1.01191 0.0
O983 O 0.73422 0.38757 1.03344 0.0
O984 O 0.73143 0.48404 1.01818 0.0
C985 C 0.72522 0.34502 1.02676 0.0
H986 H 0.58433 0.47986 1.03777 0.0
H987 H 0.80857 0.34787 0.96768 0.0
H988 H 0.71654 0.47314 0.94753 0.0
H989 H 0.62462 0.37414 0.96104 0.0
Co990 Co 0.09165 0.41973 0.81171 0.0
C991 C 0.16321 0.39002 0.79267 0.0
C992 C 0.16054 0.46824 0.79523 0.0
C993 C 0.19585 0.45537 0.78806 0.0
N994 N 0.13987 0.42715 0.79815 0.0
N995 N 0.19772 0.40594 0.78662 0.0
H996 H 0.15572 0.35164 0.79369 0.0
H997 H 0.15159 0.5049 0.79886 0.0
C998 C 0.07621 0.5345 0.81014 0.0
O999 O 0.10239 0.55004 0.82168 0.0
N1000 N 0.04503 0.4092 0.82546 0.0
C1001 C 0.04322 0.38035 0.84046 0.0
C1002 C 1.00593 0.376 0.84577 0.0
C1003 C 1.00844 0.42103 0.82148 0.0
N1004 N 0.98402 0.40145 0.83389 0.0
C1005 C 0.14702 0.40568 0.84 0.0
C1006 C 0.10797 0.45933 0.86608 0.0
C1007 C 0.13559 0.42536 0.87186 0.0
C1008 C 0.15677 0.40044 0.85853 0.0
C1009 C 0.09959 0.46417 0.84741 0.0
N1010 N 0.11745 0.43533 0.83472 0.0
H1011 H 0.16053 0.3818 0.83016 0.0
H1012 H 0.07505 0.48594 0.84357 0.0
H1013 H 0.06743 0.36236 0.84681 0.0
H1014 H 0.99988 0.44241 0.80965 0.0
O1015 O 0.09705 0.3488 0.81177 0.0
O1016 O 0.0673 0.39299 0.79052 0.0
O1017 O 0.07354 0.48893 0.80611 0.0
C1018 C 0.07533 0.35004 0.79717 0.0
H1019 H 0.21901 0.48049 0.78505 0.0
H1020 H 0.99555 0.35397 0.85708 0.0
H1021 H 0.09089 0.47911 0.87599 0.0
H1022 H 0.17813 0.37361 0.86248 0.0
Co1023 Co 0.71453 0.36503 0.81572 0.0
C1024 C 0.64235 0.39648 0.79748 0.0
C1025 C 0.65006 0.31875 0.79494 0.0
C1026 C 0.6151 0.33155 0.78732 0.0
N1027 N 0.66733 0.35959 0.80129 0.0
N1028 N 0.61006 0.38061 0.78899 0.0
H1029 H 0.64746 0.43437 0.8011 0.0
H1030 H 0.66133 0.28193 0.79622 0.0
C1031 C 0.75315 0.26579 0.82036 0.0
O1032 O 0.76577 0.2793 0.83653 0.0
N1033 N 0.7605 0.3743 0.83031 0.0
C1034 C 0.76211 0.39507 0.84707 0.0
C1035 C 0.7995 0.40475 0.85137 0.0
C1036 C 0.79718 0.37279 0.82449 0.0
N1037 N 0.82159 0.39089 0.83718 0.0
C1038 C 0.66407 0.39652 0.84392 0.0
C1039 C 0.67957 0.32177 0.86838 0.0
C1040 C 0.66412 0.36587 0.87503 0.0
C1041 C 0.65383 0.40206 0.86232 0.0
C1042 C 0.68838 0.31723 0.84971 0.0
N1043 N 0.68428 0.3564 0.83814 0.0
H1044 H 0.65892 0.4269 0.83475 0.0
H1045 H 0.70016 0.28319 0.845 0.0
H1046 H 0.73787 0.40534 0.85531 0.0
H1047 H 0.80565 0.35956 0.81113 0.0
O1048 O 0.71273 0.43582 0.81405 0.0
O1049 O 0.74231 0.38709 0.79441 0.0
O1050 O 0.72774 0.29189 0.81194 0.0
C1051 C 0.73515 0.43146 0.79993 0.0
H1052 H 0.59452 0.30618 0.78157 0.0
H1053 H 0.80938 0.42287 0.86369 0.0
H1054 H 0.68645 0.29198 0.87767 0.0
H1055 H 0.64121 0.43635 0.86678 0.0
C1056 C 0.52454 0.0598 1.02586 0.0
C1057 C 0.50048 0.05522 0.04121 0.0
H1058 H 0.56777 0.02659 1.00924 0.0
C1059 C 0.50275 1.01278 0.05205 0.0
H1060 H 0.52382 0.09249 1.01738 0.0
C1061 C 0.52854 0.97562 0.0476 0.0
C1062 C 0.55248 0.98008 1.0322 0.0
H1063 H 0.48524 1.00871 0.06418 0.0
H1064 H 0.52922 0.94293 0.05608 0.0
C1065 C 0.55032 0.02259 1.0214 0.0
C1066 C 0.77045 0.30597 0.0485 0.0
C1067 C 0.7454 0.3011 1.03352 0.0
H1068 H 0.81399 0.27313 0.06492 0.0
C1069 C 0.7449 0.25684 1.02368 0.0
H1070 H 0.77176 0.33971 0.05633 0.0
C1071 C 0.76947 0.21844 1.02862 0.0
C1072 C 0.79515 0.22404 0.04334 0.0
H1073 H 0.7263 0.25234 1.01192 0.0
H1074 H 0.76837 0.18445 1.02094 0.0
C1075 C 0.7952 0.26806 0.05326 0.0
C1076 C 0.54277 0.27028 0.3025 0.0
C1077 C 0.54367 0.31394 0.2923 0.0
H1078 H 0.5189 0.19888 0.30565 0.0
C1079 C 0.51873 0.31941 0.2773 0.0
H1080 H 0.5609 0.26534 0.31441 0.0
C1081 C 0.49434 0.28087 0.2722 0.0
C1082 C 0.49427 0.23677 0.28222 0.0
H1083 H 0.51836 0.35316 0.26942 0.0
H1084 H 0.47658 0.28499 0.26012 0.0
C1085 C 0.51817 0.23239 0.29763 0.0
C1086 C 0.80299 1.01014 0.2723 0.0
C1087 C 0.80578 0.05189 0.28343 0.0
H1088 H 0.77558 0.94104 0.2678 0.0
C1089 C 0.78216 0.05577 0.29895 0.0
H1090 H 0.82018 1.00666 0.26004 0.0
C1091 C 0.75597 0.01882 0.30317 0.0
C1092 C 0.75302 0.9772 0.29199 0.0
H1093 H 0.78335 0.08789 0.30768 0.0
H1094 H 0.7387 0.0224 0.3154 0.0
C1095 C 0.77682 0.97315 0.27654 0.0
C1096 C 0.26951 0.71594 1.02699 0.0
C1097 C 0.29523 0.722 0.04167 0.0
H1098 H 0.22622 0.74934 1.01019 0.0
C1099 C 0.29516 0.76625 0.05145 0.0
H1100 H 0.2685 0.68177 1.01942 0.0
C1101 C 0.27028 0.8039 0.0466 0.0
C1102 C 0.24521 0.79861 1.03166 0.0
H1103 H 0.31397 0.77169 0.06308 0.0
H1104 H 0.27151 0.8378 0.05434 0.0
C1105 C 0.24481 0.75414 1.02194 0.0
C1106 C 0.52881 0.80774 0.7775 0.0
C1107 C 0.55338 0.80374 0.79272 0.0
H1108 H 0.48467 0.7742 0.76144 0.0
C1109 C 0.55113 0.76192 0.80389 0.0
H1110 H 0.52948 0.83995 0.76876 0.0
C1111 C 0.52484 0.72483 0.79991 0.0
C1112 C 0.50034 0.72876 0.78466 0.0
H1113 H 0.56902 0.75831 0.81595 0.0
H1114 H 0.52419 0.69262 0.80864 0.0
C1115 C 0.50253 0.77063 0.77351 0.0
C1116 C 0.30202 1.01216 0.77221 0.0
C1117 C 0.30366 0.05453 0.78307 0.0
H1118 H 0.27574 0.94226 0.7678 0.0
C1119 C 0.27876 0.05879 0.79812 0.0
H1120 H 0.32021 1.00826 0.76031 0.0
C1121 C 0.25268 0.0215 0.8022 0.0
C1122 C 0.25102 0.97914 0.79134 0.0
H1123 H 0.27897 0.09137 0.80663 0.0
H1124 H 0.23449 0.0254 0.81411 0.0
C1125 C 0.27594 0.97485 0.7763 0.0
C1126 C 0.55448 0.5239 0.52566 0.0
C1127 C 0.54844 0.47676 0.53291 0.0
H1128 H 0.5379 0.59938 0.52577 0.0
C1129 C 0.51968 0.46973 0.54607 0.0
H1130 H 0.57615 0.53034 0.51534 0.0
C1131 C 0.49742 0.50928 0.55192 0.0
C1132 C 0.50351 0.55642 0.54466 0.0
H1133 H 0.51405 0.43362 0.55172 0.0
H1134 H 0.47578 0.50301 0.56227 0.0
C1135 C 0.5322 0.56333 0.53146 0.0
C1136 C 0.77136 0.71546 0.52863 0.0
C1137 C 0.79656 0.72158 0.5435 0.0
H1138 H 0.7291 0.74894 0.5113 0.0
C1139 C 0.79667 0.76613 0.55308 0.0
H1140 H 0.77027 0.68107 0.52119 0.0
C1141 C 0.77246 0.80409 0.5478 0.0
C1142 C 0.74793 0.79866 0.53266 0.0
H1143 H 0.81513 0.77158 0.56484 0.0
H1144 H 0.77379 0.83828 0.55536 0.0
C1145 C 0.74731 0.75386 0.52318 0.0
C1146 C 0.80903 0.50621 0.77414 0.0
C1147 C 0.80783 0.55082 0.78376 0.0
H1148 H 0.7862 0.4334 0.77149 0.0
C1149 C 0.78197 0.55591 0.79836 0.0
H1150 H 0.82823 0.5015 0.76265 0.0
C1151 C 0.75726 0.51781 0.80302 0.0
C1152 C 0.75809 0.47336 0.79335 0.0
H1153 H 0.78004 0.58994 0.80598 0.0
H1154 H 0.73787 0.52305 0.8144 0.0
C1155 C 0.78447 0.46765 0.77897 0.0
C1156 C 0.28635 0.32034 0.54747 0.0
C1157 C 0.26176 0.31504 0.53233 0.0
H1158 H 0.32844 0.28601 0.56468 0.0
C1159 C 0.26322 0.27186 0.52193 0.0
H1160 H 0.28627 0.35376 0.5555 0.0
C1161 C 0.28807 0.2342 0.52675 0.0
C1162 C 0.31162 0.23841 0.54229 0.0
H1163 H 0.24538 0.26716 0.50991 0.0
H1164 H 0.28779 0.20097 0.5186 0.0
C1165 C 0.31098 0.28207 0.5525 0.0
C1166 C 0.31188 0.50199 0.27292 0.0
C1167 C 0.31313 0.54545 0.28326 0.0
H1168 H 0.2867 0.43044 0.26991 0.0
C1169 C 0.29036 0.54933 0.29903 0.0
H1170 H 0.32874 0.4983 0.26057 0.0
C1171 C 0.26555 0.51171 0.30392 0.0
C1172 C 0.26336 0.4688 0.29339 0.0
H1173 H 0.29061 0.58234 0.3073 0.0
H1174 H 0.24828 0.51625 0.31611 0.0
C1175 C 0.28731 0.46368 0.27805 0.0
C1176 C 0.04574 1.01507 0.52255 0.0
C1177 C 0.04618 0.97151 0.53281 0.0
H1178 H 1.02188 0.0863 0.51901 0.0
C1179 C 1.0208 0.96622 0.54761 0.0
H1180 H 0.06428 0.01988 0.51081 0.0
C1181 C 0.99616 1.00467 0.55236 0.0
C1182 C 0.99631 0.04853 0.5422 0.0
H1183 H 1.02009 0.93255 0.55553 0.0
H1184 H 0.97788 1.00058 0.56423 0.0
C1185 C 1.0209 0.05291 0.52709 0.0
C1186 C 0.02829 0.31166 0.77588 0.0
C1187 C 0.05299 0.30719 0.79105 0.0
H1188 H 0.98449 0.27827 0.75956 0.0
C1189 C 0.0513 0.26463 0.80184 0.0
H1190 H 0.02854 0.34441 0.76743 0.0
C1191 C 1.02546 0.22726 0.79754 0.0
C1192 C 1.00084 0.23166 0.78235 0.0
H1193 H 0.06933 0.26059 0.81384 0.0
H1194 H 1.02525 0.19448 0.80598 0.0
C1195 C 1.00245 0.27429 0.77158 0.0
C1196 C 0.04496 0.76725 0.30325 0.0
C1197 C 0.04584 0.81068 0.29291 0.0
H1198 H 1.02076 0.69617 0.30677 0.0
C1199 C 1.02072 0.81591 0.27797 0.0
H1200 H 0.06324 0.76249 0.31512 0.0
C1201 C 0.99604 0.77747 0.27311 0.0
C1202 C 0.99584 0.73369 0.28333 0.0
H1203 H 1.02032 0.84949 0.26998 0.0
H1204 H 0.97804 0.78145 0.26111 0.0
C1205 C 1.02007 0.72946 0.29862 0.0
C1206 C 1.02124 0.47123 0.04442 0.0
C1207 C 0.04941 0.47812 1.03095 0.0
H1208 H 0.97736 0.5041 0.06069 0.0
C1209 C 0.05449 0.52501 1.0233 0.0
H1210 H 1.01628 0.43533 0.0504 0.0
C1211 C 0.03182 0.56429 1.02904 0.0
C1212 C 1.00363 0.55735 0.0425 0.0
H1213 H 0.07565 0.53128 1.01274 0.0
H1214 H 0.03673 0.6002 1.02307 0.0
C1215 C 0.99856 0.51045 0.05014 0.0
C1216 C 0.45628 0.14794 0.15168 0.0
C1217 C 0.42149 0.15555 0.1424 0.0
H1218 H 0.48423 0.12749 0.17665 0.0
C1219 C 0.38715 0.1464 0.15184 0.0
H1220 H 0.48328 0.15372 0.14475 0.0
C1221 C 0.3877 0.13118 0.17027 0.0
C1222 C 0.42261 0.12364 0.17951 0.0
H1223 H 0.3599 0.15167 0.14505 0.0
H1224 H 0.36083 0.12516 0.17728 0.0
C1225 C 0.45683 0.13206 0.16991 0.0
C1226 C 0.92197 0.14724 0.15394 0.0
C1227 C 0.88932 0.12842 0.14508 0.0
H1228 H 0.94594 0.17546 0.17902 0.0
C1229 C 0.85507 0.12466 0.15502 0.0
H1230 H 0.94864 0.15094 0.14655 0.0
C1231 C 0.85324 0.14008 0.17328 0.0
C1232 C 0.8858 0.1588 0.18218 0.0
H1233 H 0.82931 0.1111 0.14848 0.0
H1234 H 0.82635 0.13693 0.18055 0.0
C1235 C 0.92038 0.16152 0.17243 0.0
C1236 C 0.6665 0.89816 0.903 0.0
C1237 C 0.63204 0.90627 0.89347 0.0
H1238 H 0.69311 0.87735 0.92846 0.0
C1239 C 0.59737 0.89736 0.90264 0.0
H1240 H 0.69368 0.90445 0.89629 0.0
C1241 C 0.59705 0.88108 0.92083 0.0
C1242 C 0.63138 0.8736 0.9305 0.0
H1243 H 0.5703 0.90234 0.89565 0.0
H1244 H 0.56973 0.87539 0.92748 0.0
C1245 C 0.66617 0.88259 0.92139 0.0
C1246 C 0.20532 0.88628 0.90158 0.0
C1247 C 0.17087 0.87731 0.89219 0.0
H1248 H 0.23239 0.90799 0.9266 0.0
C1249 C 0.13618 0.88525 0.90147 0.0
H1250 H 0.23255 0.88145 0.89477 0.0
C1251 C 0.13609 0.90065 0.91986 0.0
C1252 C 0.17067 0.90958 0.9292 0.0
H1253 H 0.10917 0.8789 0.89459 0.0
H1254 H 0.10899 0.90571 0.92676 0.0
C1255 C 0.20522 0.90235 0.91977 0.0
C1256 C 0.38315 0.62332 0.67441 0.0
C1257 C 0.41772 0.62606 0.68422 0.0
H1258 H 0.35489 0.63411 0.64849 0.0
C1259 C 0.45016 0.64535 0.67543 0.0
H1260 H 0.35768 0.6089 0.68091 0.0
C1261 C 0.44832 0.66103 0.65719 0.0
C1262 C 0.41414 0.65704 0.64715 0.0
H1263 H 0.47705 0.64848 0.68274 0.0
H1264 H 0.47406 0.67479 0.65073 0.0
C1265 C 0.38153 0.63794 0.65594 0.0
C1266 C 0.92444 0.64649 0.65411 0.0
C1267 C 0.8925 0.62572 0.64525 0.0
H1268 H 0.94725 0.67655 0.67914 0.0
C1269 C 0.85845 0.61982 0.6552 0.0
H1270 H 0.95093 0.65185 0.6467 0.0
C1271 C 0.85603 0.63526 0.67343 0.0
C1272 C 0.88781 0.65618 0.68229 0.0
H1273 H 0.83319 0.60476 0.64866 0.0
H1274 H 0.82925 0.63066 0.68068 0.0
C1275 C 0.92229 0.66084 0.67257 0.0
C1276 C 0.67456 0.41334 0.42323 0.0
C1277 C 0.6506 0.37615 0.43044 0.0
H1278 H 0.69199 0.45451 0.39943 0.0
C1279 C 0.6274 0.34978 0.41809 0.0
H1280 H 0.69361 0.43393 0.43203 0.0
C1281 C 0.62749 0.36084 0.39937 0.0
C1282 C 0.6502 0.39915 0.39242 0.0
H1283 H 0.60784 0.32176 0.42287 0.0
H1284 H 0.60868 0.34042 0.39034 0.0
C1285 C 0.67391 0.42516 0.40449 0.0
C1286 C 0.17932 0.43545 0.41921 0.0
C1287 C 0.15586 0.40946 0.43157 0.0
H1288 H 0.19881 0.44384 0.39155 0.0
C1289 C 0.13254 0.37151 0.42441 0.0
H1290 H 0.19847 0.46399 0.42394 0.0
C1291 C 0.13391 0.35881 0.40576 0.0
C1292 C 0.15774 0.38463 0.39369 0.0
H1293 H 0.11333 0.35108 0.43318 0.0
H1294 H 0.11619 0.32904 0.40076 0.0
C1295 C 0.17993 0.42351 0.40057 0.0
C1296 C 0.88811 0.13455 0.67127 0.0
C1297 C 0.92254 0.12412 0.68052 0.0
H1298 H 0.86146 0.15739 0.64606 0.0
C1299 C 0.95715 0.12985 0.67097 0.0
H1300 H 0.86098 0.13066 0.67826 0.0
C1301 C 0.95744 0.14581 0.65275 0.0
C1302 C 0.92313 0.15624 0.64345 0.0
H1303 H 0.98424 0.12304 0.67772 0.0
H1304 H 0.9847 0.14938 0.64585 0.0
C1305 C 0.88838 0.14989 0.65286 0.0
C1306 C 0.34774 0.13407 0.65458 0.0
C1307 C 0.38211 0.12577 0.64511 0.0
H1308 H 0.32088 0.15551 0.67963 0.0
C1309 C 0.41687 0.13353 0.65445 0.0
H1310 H 0.32044 0.12935 0.64777 0.0
C1311 C 0.41713 0.14879 0.67285 0.0
C1312 C 0.38264 0.15771 0.68218 0.0
H1313 H 0.44385 0.12761 0.64754 0.0
H1314 H 0.44428 0.15419 0.67972 0.0
C1315 C 0.348 0.14993 0.67279 0.0
C1316 C 0.17194 0.85593 0.42051 0.0
C1317 C 0.14868 0.88248 0.43257 0.0
H1318 H 0.19173 0.84698 0.39303 0.0
C1319 C 0.12662 0.92137 0.42559 0.0
H1320 H 0.18955 0.82613 0.42558 0.0
C1321 C 0.12683 0.93263 0.40686 0.0
C1322 C 0.14974 0.90592 0.39452 0.0
H1323 H 0.10816 0.94225 0.43459 0.0
H1324 H 0.10781 0.96125 0.40208 0.0
C1325 C 0.17292 0.86794 0.40177 0.0
C1326 C 0.63837 0.89878 0.42037 0.0
C1327 C 0.67314 0.90726 0.42961 0.0
H1328 H 0.61095 0.87753 0.39517 0.0
C1329 C 0.70751 0.89955 0.42007 0.0
H1330 H 0.61141 0.90421 0.42735 0.0
C1331 C 0.70724 0.88351 0.40188 0.0
C1332 C 0.67259 0.87507 0.39258 0.0
H1333 H 0.73481 0.90487 0.42682 0.0
H1334 H 0.73434 0.87832 0.39498 0.0
C1335 C 0.6381 0.88344 0.40198 0.0
C1336 C 0.88159 0.63441 0.15395 0.0
C1337 C 0.91361 0.65466 0.14502 0.0
H1338 H 0.8588 0.60488 0.17907 0.0
C1339 C 0.94786 0.65997 0.15492 0.0
H1340 H 0.85492 0.62957 0.14661 0.0
C1341 C 0.95035 0.64462 0.17317 0.0
C1342 C 0.91848 0.62432 0.18212 0.0
H1343 H 0.97317 0.67466 0.14834 0.0
H1344 H 0.97726 0.64893 0.18038 0.0
C1345 C 0.88384 0.6201 0.17244 0.0
C1346 C 0.35341 0.64042 0.17179 0.0
C1347 C 0.38551 0.66004 0.1808 0.0
H1348 H 0.33032 0.61094 0.14691 0.0
C1349 C 0.42009 0.66421 0.17111 0.0
H1350 H 0.32656 0.63612 0.17901 0.0
C1351 C 0.42214 0.65027 0.1526 0.0
C1352 C 0.38999 0.63037 0.14367 0.0
H1353 H 0.44531 0.67887 0.17778 0.0
H1354 H 0.44881 0.65491 0.14527 0.0
C1355 C 0.35572 0.62537 0.15352 0.0
C1356 C 0.17285 0.39745 0.9199 0.0
C1357 C 0.13963 0.37953 0.92851 0.0
H1358 H 0.19789 0.42533 0.895 0.0
C1359 C 0.10561 0.3767 0.9183 0.0
H1360 H 0.1994 0.40029 0.92749 0.0
C1361 C 0.10454 0.39222 0.90004 0.0
C1362 C 0.13759 0.4102 0.89141 0.0
H1363 H 0.07944 0.36382 0.92462 0.0
H1364 H 0.07777 0.38991 0.89259 0.0
C1365 C 0.17198 0.41192 0.9014 0.0
C1366 C 0.69765 0.37218 0.9052 0.0
C1367 C 0.66375 0.37705 0.895 0.0
H1368 H 0.72602 0.38374 0.93089 0.0
C1369 C 0.63125 0.39683 0.90363 0.0
H1370 H 0.72331 0.35786 0.89886 0.0
C1371 C 0.6327 0.41118 0.92212 0.0
C1372 C 0.667 0.40748 0.93209 0.0
H1373 H 0.60483 0.40131 0.89605 0.0
H1374 H 0.60731 0.42609 0.92851 0.0
C1375 C 0.69934 0.38759 0.92345 0.0
C1376 C 0.63269 0.15296 0.06835 0.0
C1377 C 0.61105 0.1527 0.08454 0.0
H1378 H 0.68872 0.14936 0.0565 0.0
C1379 C 0.63005 0.15066 0.10147 0.0
H1380 H 0.61869 0.15423 0.05512 0.0
C1381 C 0.66964 0.14707 0.10229 0.0
C1382 C 0.69149 0.14582 0.08619 0.0
H1383 H 0.61412 0.15102 0.11418 0.0
H1384 H 0.68301 0.14403 0.11562 0.0
C1385 C 0.67266 0.14941 0.06916 0.0
C1386 C 0.67205 0.14767 0.25792 0.0
C1387 C 0.69271 0.14801 0.24143 0.0
H1388 H 0.61655 0.1466 0.27045 0.0
C1389 C 0.67282 0.14843 0.22473 0.0
H1390 H 0.68683 0.14689 0.27096 0.0
C1391 C 0.63308 0.14804 0.22443 0.0
C1392 C 0.61225 0.14704 0.24083 0.0
H1393 H 0.68809 0.14906 0.21185 0.0
H1394 H 0.6186 0.14785 0.21132 0.0
C1395 C 0.63202 0.14683 0.25762 0.0
C1396 C 0.38062 0.88785 0.97305 0.0
C1397 C 0.36006 0.8889 0.98953 0.0
H1398 H 0.43538 0.88577 0.96027 0.0
C1399 C 0.38006 0.88854 1.00625 0.0
H1400 H 0.36595 0.88848 0.95999 0.0
C1401 C 0.42007 0.88694 1.0064 0.0
C1402 C 0.44047 0.8863 0.98984 0.0
H1403 H 0.36479 0.88879 1.01913 0.0
H1404 H 0.43503 0.88722 1.0194 0.0
C1405 C 0.42034 0.88661 0.97321 0.0
C1406 C 0.42171 0.89359 0.84932 0.0
C1407 C 0.44225 0.89478 0.83284 0.0
H1408 H 0.36714 0.88965 0.86216 0.0
C1409 C 0.42227 0.89333 0.81612 0.0
H1410 H 0.43637 0.89502 0.86238 0.0
C1411 C 0.38226 0.89028 0.81599 0.0
C1412 C 0.36191 0.88922 0.83258 0.0
H1413 H 0.43757 0.89365 0.80324 0.0
H1414 H 0.36725 0.88965 0.80301 0.0
C1415 C 0.38209 0.8908 0.84919 0.0
C1416 C 0.6324 0.63986 0.57288 0.0
C1417 C 0.61236 0.64069 0.58959 0.0
H1418 H 0.68709 0.63696 0.55964 0.0
C1419 C 0.6333 0.63836 0.60601 0.0
H1420 H 0.61722 0.64112 0.55996 0.0
C1421 C 0.67298 0.63503 0.60582 0.0
C1422 C 0.69319 0.63461 0.58921 0.0
H1423 H 0.61913 0.6396 0.61916 0.0
H1424 H 0.68778 0.6326 0.61881 0.0
C1425 C 0.67244 0.63683 0.57269 0.0
C1426 C 0.63293 0.63719 0.76001 0.0
C1427 C 0.61222 0.63586 0.7435 0.0
H1428 H 0.68852 0.64021 0.77255 0.0
C1429 C 0.63202 0.63601 0.72682 0.0
H1430 H 0.61818 0.63761 0.77303 0.0
C1431 C 0.67169 0.63781 0.72653 0.0
C1432 C 0.69258 0.63963 0.74293 0.0
H1433 H 0.6167 0.63469 0.71392 0.0
H1434 H 0.68609 0.63829 0.71342 0.0
C1435 C 0.67295 0.6394 0.75972 0.0
C1436 C 0.38211 0.40157 0.47052 0.0
C1437 C 0.36186 0.40238 0.48712 0.0
H1438 H 0.43583 0.39527 0.45719 0.0
C1439 C 0.38251 0.39911 0.50364 0.0
H1440 H 0.36744 0.40477 0.45752 0.0
C1441 C 0.42249 0.39475 0.50346 0.0
C1442 C 0.44255 0.3935 0.48676 0.0
H1443 H 0.36785 0.3992 0.51668 0.0
H1444 H 0.43758 0.39283 0.51639 0.0
C1445 C 0.4217 0.39678 0.47034 0.0
C1446 C 0.38361 0.38889 0.32159 0.0
C1447 C 0.36354 0.38637 0.33828 0.0
H1448 H 0.43823 0.39522 0.30843 0.0
C1449 C 0.38436 0.38901 0.35472 0.0
H1450 H 0.36851 0.38748 0.30866 0.0
C1451 C 0.42392 0.39452 0.35459 0.0
C1452 C 0.44419 0.39681 0.33801 0.0
H1453 H 0.37017 0.38654 0.36785 0.0
H1454 H 0.43856 0.39721 0.36762 0.0
C1455 C 0.42356 0.39406 0.32146 0.0
C1456 C 0.17348 0.14703 0.56695 0.0
C1457 C 0.19339 0.14773 0.5837 0.0
H1458 H 0.11854 0.14627 0.55373 0.0
C1459 C 0.1727 0.14878 0.60014 0.0
H1460 H 0.18884 0.14675 0.55409 0.0
C1461 C 0.13296 0.14874 0.59992 0.0
C1462 C 0.11292 0.14782 0.58326 0.0
H1463 H 0.18728 0.14896 0.61323 0.0
H1464 H 0.11781 0.14943 0.61284 0.0
C1465 C 0.13344 0.14743 0.56673 0.0
C1466 C 0.13312 0.14633 0.72447 0.0
C1467 C 0.11241 0.1444 0.74089 0.0
H1468 H 0.18795 0.14987 0.71182 0.0
C1469 C 0.13223 0.14494 0.75766 0.0
H1470 H 0.11861 0.14559 0.71136 0.0
C1471 C 0.17222 0.1474 0.75792 0.0
C1472 C 0.19276 0.14875 0.7414 0.0
H1473 H 0.11683 0.14408 0.77051 0.0
H1474 H 0.18708 0.14709 0.77094 0.0
C1475 C 0.17279 0.14848 0.72473 0.0
C1476 C 0.8847 0.89408 0.50563 0.0
C1477 C 0.86384 0.89166 0.48917 0.0
H1478 H 0.94018 0.8934 0.51826 0.0
C1479 C 0.88377 0.88763 0.47257 0.0
H1480 H 0.87008 0.89685 0.51864 0.0
C1481 C 0.92347 0.88497 0.47235 0.0
C1482 C 0.94452 0.88659 0.48873 0.0
H1483 H 0.8686 0.88634 0.45964 0.0
H1484 H 0.93764 0.88084 0.45928 0.0
C1485 C 0.92476 0.89139 0.50542 0.0
C1486 C 0.92499 0.88668 0.31892 0.0
C1487 C 0.94398 0.89091 0.33589 0.0
H1488 H 0.8709 0.88041 0.30502 0.0
C1489 C 0.92223 0.88975 0.35203 0.0
H1490 H 0.94092 0.88668 0.30623 0.0
C1491 C 0.88268 0.88522 0.35132 0.0
C1492 C 0.86348 0.88231 0.33446 0.0
H1493 H 0.93564 0.89334 0.36532 0.0
H1494 H 0.86697 0.88466 0.36408 0.0
C1495 C 0.885 0.8823 0.31821 0.0
C1496 C 0.13113 0.64241 0.07077 0.0
C1497 C 0.1111 0.64404 0.08746 0.0
H1498 H 0.18585 0.63926 0.05758 0.0
C1499 C 0.132 0.64325 0.10391 0.0
H1500 H 0.11593 0.6425 0.05784 0.0
C1501 C 0.17169 0.64049 0.10376 0.0
C1502 C 0.1919 0.63907 0.08716 0.0
H1503 H 0.11775 0.64516 0.11702 0.0
H1504 H 0.18648 0.63914 0.11677 0.0
C1505 C 0.17119 0.6399 0.07062 0.0
C1506 C 0.17368 0.6371 0.25863 0.0
C1507 C 0.19356 0.63659 0.24191 0.0
H1508 H 0.11874 0.63766 0.27177 0.0
C1509 C 0.17287 0.63594 0.22544 0.0
H1510 H 0.18906 0.63709 0.27151 0.0
C1511 C 0.13313 0.63613 0.22559 0.0
C1512 C 0.11312 0.6367 0.24222 0.0
H1513 H 0.18748 0.6359 0.21238 0.0
H1514 H 0.11796 0.63571 0.21265 0.0
C1515 C 0.13364 0.63677 0.25878 0.0
C1516 C 0.92215 0.40146 1.00511 0.0
C1517 C 0.94077 0.39772 0.98808 0.0
H1518 H 0.86833 0.40472 1.01921 0.0
C1519 C 0.91872 0.39693 0.97201 0.0
H1520 H 0.9384 0.4029 1.01772 0.0
C1521 C 0.87905 0.39858 0.97287 0.0
C1522 C 0.86031 0.40085 0.98982 0.0
H1523 H 0.93202 0.39369 0.9587 0.0
H1524 H 0.86292 0.39736 0.96021 0.0
C1525 C 0.88215 0.4032 1.00596 0.0
C1526 C 0.92116 0.40362 0.81816 0.0
C1527 C 0.94296 0.40341 0.83435 0.0
H1528 H 0.86503 0.3997 0.80633 0.0
C1529 C 0.9241 0.40105 0.85128 0.0
H1530 H 0.93503 0.40513 0.80492 0.0
C1531 C 0.88452 0.39717 0.8521 0.0
C1532 C 0.86253 0.39591 0.836 0.0
H1533 H 0.94013 0.40144 0.86398 0.0
H1534 H 0.87128 0.39393 0.86543 0.0
C1535 C 0.8812 0.39976 0.81898 0.0
C1536 C 0.29269 0.14093 1.02071 0.0
C1537 C 0.3234 0.12134 1.031 0.0
H1538 H 0.23908 0.12751 1.00698 0.0
C1539 C 0.32161 0.07106 1.03562 0.0
H1540 H 0.29276 0.17922 1.01672 0.0
C1541 C 0.2908 0.04146 1.03002 0.0
C1542 C 0.26037 0.06073 1.01954 0.0
H1543 H 0.34386 0.05424 0.04379 0.0
H1544 H 0.291 1.00307 1.03394 0.0
C1545 C 0.26171 0.11112 1.01507 0.0
C1546 C 1.01241 0.19003 1.00388 0.0
C1547 C 0.02751 0.22948 1.01406 0.0
H1548 H 0.97354 0.12914 1.0029 0.0
C1549 C 1.01534 0.23498 1.03232 0.0
H1550 H 1.02058 0.18512 0.98969 0.0
C1551 C 0.98742 0.20332 0.03983 0.0
C1552 C 0.97137 0.16481 1.02938 0.0
H1553 H 1.02561 0.26559 0.04043 0.0
H1554 H 0.97783 0.20959 0.05372 0.0
C1555 C 0.98519 0.15793 1.01146 0.0
C1556 C 0.2894 0.18465 0.32169 0.0
C1557 C 0.27265 0.22275 0.31134 0.0
H1558 H 0.32977 0.1254 0.32265 0.0
C1559 C 0.28315 0.22715 0.29279 0.0
H1560 H 0.28239 0.18042 0.33605 0.0
C1561 C 0.31113 0.19599 0.28515 0.0
C1562 C 0.32893 0.15904 0.29574 0.0
H1563 H 0.27146 0.25653 0.28447 0.0
H1564 H 0.31943 0.20151 0.27102 0.0
C1565 C 0.31675 0.15302 0.31398 0.0
C1566 C 0.99329 0.08495 0.28594 0.0
C1567 C 0.97728 0.12264 0.29676 0.0
H1568 H 0.03194 0.02343 0.28459 0.0
C1569 C 0.99156 0.12881 0.31465 0.0
H1570 H 0.98331 0.07932 0.27205 0.0
C1571 C 1.01922 0.09657 0.32185 0.0
C1572 C 0.03427 0.05785 0.31128 0.0
H1573 H 0.97993 0.15705 0.32344 0.0
H1574 H 0.02787 0.1009 0.33602 0.0
C1575 C 1.02164 0.0533 0.29304 0.0
C1576 C 0.76435 0.937 0.07135 0.0
C1577 C 0.77965 0.97582 0.06087 0.0
H1578 H 0.72528 0.87623 0.07268 0.0
C1579 C 0.76793 0.98008 0.04247 0.0
H1580 H 0.77228 0.93294 0.08563 0.0
C1581 C 0.74009 0.94806 1.03514 0.0
C1582 C 0.72371 0.91037 0.04589 0.0
H1583 H 0.77845 1.01005 1.03409 0.0
H1584 H 0.73073 0.9535 1.02114 0.0
C1585 C 0.73721 0.90446 0.06393 0.0
C1586 C 0.06029 0.83513 1.03444 0.0
C1587 C 0.07759 0.8722 0.04514 0.0
H1588 H 1.02146 0.77363 1.03361 0.0
C1589 C 0.0652 0.87761 0.06336 0.0
H1590 H 0.06877 0.8301 1.02031 0.0
C1591 C 0.03824 0.84517 0.07096 0.0
C1592 C 1.0221 0.80688 0.06052 0.0
H1593 H 0.07785 0.90531 0.0721 0.0
H1594 H 0.03114 0.84886 0.08533 0.0
C1595 C 0.03269 0.80315 0.04198 0.0
C1596 C 0.73445 0.82472 0.78848 0.0
C1597 C 0.73001 0.87318 0.78198 0.0
H1598 H 0.76684 0.75807 0.78803 0.0
C1599 C 0.75802 0.89139 0.76982 0.0
H1600 H 0.71432 0.80929 0.79813 0.0
C1601 C 0.78879 0.86167 0.76402 0.0
C1602 C 0.79262 0.81287 0.77028 0.0
H1603 H 0.75576 0.92832 0.76442 0.0
H1604 H 0.80917 0.87671 0.75437 0.0
C1605 C 0.76509 0.79522 0.78275 0.0
C1606 C 0.04164 0.98948 0.78077 0.0
C1607 C 1.01103 0.97033 0.77041 0.0
H1608 H 0.09492 0.97659 0.79426 0.0
C1609 C 1.01215 0.92001 0.76588 0.0
H1610 H 0.04197 0.02779 0.78476 0.0
C1611 C 0.04322 0.89017 0.77133 0.0
C1612 C 0.07417 0.90977 0.78143 0.0
H1613 H 0.98931 0.90378 0.75788 0.0
H1614 H 0.04326 0.85191 0.76733 0.0
C1615 C 0.07251 0.95989 0.78617 0.0
C1616 C 0.31449 0.58335 0.54133 0.0
C1617 C 0.33122 0.6217 0.53104 0.0
H1618 H 0.27459 0.52291 0.5418 0.0
C1619 C 0.31729 0.62985 0.51318 0.0
H1620 H 0.32413 0.57613 0.55517 0.0
C1621 C 0.28905 0.59932 0.50553 0.0
C1622 C 0.27308 0.56015 0.51558 0.0
H1623 H 0.32945 0.65856 0.50473 0.0
H1624 H 0.28058 0.6054 0.49143 0.0
C1625 C 0.28559 0.55326 0.53376 0.0
C1626 C 0.98916 0.65525 0.51257 0.0
C1627 C 0.97414 0.66294 0.53023 0.0
H1628 H 1.02679 0.6806 0.49136 0.0
C1629 C 0.99002 0.70136 0.54079 0.0
H1630 H 0.97772 0.62653 0.50391 0.0
C1631 C 1.01909 0.73199 0.53365 0.0
C1632 C 0.03264 0.72555 0.51564 0.0
H1633 H 0.97956 0.70826 0.55448 0.0
H1634 H 0.02932 0.76245 0.54184 0.0
C1635 C 1.01756 0.68629 0.50536 0.0
C1636 C 0.3207 0.70639 0.7877 0.0
C1637 C 0.3237 0.65733 0.7937 0.0
H1638 H 0.28894 0.77348 0.78788 0.0
C1639 C 0.29384 0.63847 0.80465 0.0
H1640 H 0.34232 0.72226 0.77892 0.0
C1641 C 0.26263 0.66826 0.80983 0.0
C1642 C 0.2602 0.71767 0.8041 0.0
H1643 H 0.295 0.60097 0.80957 0.0
H1644 H 0.24076 0.65276 0.8186 0.0
C1645 C 0.28959 0.73589 0.79276 0.0
C1646 C 0.04159 0.61701 0.80946 0.0
C1647 C 0.04539 0.56825 0.80322 0.0
H1648 H 1.00782 0.68318 0.80932 0.0
C1649 C 1.01744 0.55022 0.79103 0.0
H1650 H 0.06234 0.63228 0.81889 0.0
C1651 C 0.98625 0.57915 0.78566 0.0
C1652 C 0.98171 0.6274 0.79222 0.0
H1653 H 1.01922 0.51314 0.78573 0.0
H1654 H 0.96571 0.56347 0.77624 0.0
C1655 C 1.01023 0.64625 0.80398 0.0
C1656 C 0.73632 0.40667 0.5641 0.0
C1657 C 0.72274 0.41389 0.54612 0.0
H1658 H 0.77265 0.4322 0.5858 0.0
C1659 C 0.73988 0.45139 0.53556 0.0
H1660 H 0.72387 0.37864 0.57276 0.0
C1661 C 0.7687 0.48179 0.54301 0.0
C1662 C 0.78073 0.47594 0.56131 0.0
H1663 H 0.73052 0.45785 0.52162 0.0
H1664 H 0.77992 0.51164 0.53479 0.0
C1665 C 0.76452 0.43743 0.5716 0.0
C1666 C 0.05031 0.38768 0.55589 0.0
C1667 C 0.07785 0.37025 0.54331 0.0
H1668 H 0.99888 0.37317 0.57111 0.0
C1669 C 0.07215 0.32279 0.53604 0.0
H1670 H 0.0533 0.42361 0.56202 0.0
C1671 C 0.04072 0.29372 0.54135 0.0
C1672 C 1.01358 0.31086 0.55411 0.0
H1673 H 0.09188 0.30769 0.52617 0.0
H1674 H 0.038 0.25731 0.53552 0.0
C1675 C 1.01877 0.35856 0.56116 0.0
C1676 C 0.73333 0.32333 0.28863 0.0
C1677 C 0.72778 0.37104 0.28154 0.0
H1678 H 0.76749 0.25804 0.28909 0.0
C1679 C 0.75561 0.38915 0.26921 0.0
H1680 H 0.71341 0.3078 0.29835 0.0
C1681 C 0.78732 0.36035 0.26398 0.0
C1682 C 0.79232 0.31238 0.27085 0.0
H1683 H 0.75267 0.42535 0.26326 0.0
H1684 H 0.80747 0.37538 0.25422 0.0
C1685 C 0.76488 0.29464 0.28338 0.0
C1686 C 1.02094 0.42422 0.26384 0.0
C1687 C 1.01548 0.47195 0.27081 0.0
H1688 H 0.05563 0.35928 0.26337 0.0
C1689 C 0.04228 0.48936 0.28374 0.0
H1690 H 1.0013 0.40942 0.25377 0.0
C1691 C 0.07364 0.46051 0.2893 0.0
C1692 C 0.07954 0.41301 0.28215 0.0
H1693 H 0.03935 0.52579 0.28952 0.0
H1694 H 0.09312 0.4757 0.29932 0.0
C1695 C 0.05237 0.39529 0.2694 0.0
C1696 C 0.79148 0.04161 0.53103 0.0
C1697 C 0.76184 0.06066 0.52 0.0
H1698 H 0.84368 0.05456 0.54547 0.0
C1699 C 0.76356 0.11092 0.51533 0.0
H1700 H 0.79133 1.00337 0.53515 0.0
C1701 C 0.79428 0.14075 0.52126 0.0
C1702 C 0.8243 0.12123 0.53201 0.0
H1703 H 0.74148 0.1271 0.50683 0.0
H1704 H 0.79483 0.17893 0.51712 0.0
C1705 C 0.82201 0.0712 0.5369 0.0
C1706 C 0.4868 0.15912 0.51001 0.0
C1707 C 0.47584 0.16308 0.5285 0.0
H1708 H 0.51985 0.18888 0.48786 0.0
C1709 C 0.49431 0.1989 0.53934 0.0
H1710 H 0.47319 0.13241 0.50117 0.0
C1711 C 0.52183 0.2309 0.53174 0.0
C1712 C 0.53117 0.22855 0.51301 0.0
H1713 H 0.48691 0.20282 0.55365 0.0
H1714 H 0.53417 0.25923 0.54032 0.0
C1715 C 0.51369 0.19162 0.50236 0.0
C1716 C 0.81716 0.15435 0.81426 0.0
C1717 C 0.82986 0.15969 0.79609 0.0
H1718 H 0.78277 0.18326 0.83604 0.0
C1719 C 0.81275 0.19661 0.78522 0.0
H1720 H 0.82968 0.12673 0.8231 0.0
C1721 C 0.78502 0.22857 0.79258 0.0
C1722 C 0.77416 0.22497 0.81109 0.0
H1723 H 0.82149 0.20155 0.77112 0.0
H1724 H 0.77395 0.25803 0.7841 0.0
C1725 C 0.7901 0.1868 0.82169 0.0
C1726 C 0.48508 0.07635 0.78669 0.0
C1727 C 0.48098 0.12495 0.79302 0.0
H1728 H 0.5176 1.00983 0.78701 0.0
C1729 C 0.50978 0.14358 0.8047 0.0
H1730 H 0.46435 0.0606 0.77739 0.0
C1731 C 0.54099 0.1141 0.8102 0.0
C1732 C 0.54446 0.06514 0.80414 0.0
H1733 H 0.50782 0.18064 0.80994 0.0
H1734 H 0.56198 0.12942 0.81951 0.0
C1735 C 0.51614 0.0471 0.79213 0.0
C1736 C 0.23179 0.96487 0.53811 0.0
C1737 C 0.22857 0.91556 0.54391 0.0
H1738 H 0.26369 0.03211 0.53877 0.0
C1739 C 0.25813 0.89694 0.5552 0.0
H1740 H 0.21048 0.98105 0.52923 0.0
C1741 C 0.28933 0.9266 0.5606 0.0
C1742 C 0.29208 0.97601 0.55496 0.0
H1743 H 0.25707 0.85953 0.56018 0.0
H1744 H 0.31098 0.91094 0.56948 0.0
C1745 C 0.26282 0.99442 0.54354 0.0
C1746 C 0.56872 0.87641 0.56422 0.0
C1747 C 0.58106 0.87026 0.54602 0.0
H1748 H 0.53471 0.84868 0.5864 0.0
C1749 C 0.56383 0.83257 0.53559 0.0
H1750 H 0.58132 0.90458 0.57277 0.0
C1751 C 0.53621 0.80093 0.54336 0.0
C1752 C 0.52555 0.80557 0.56187 0.0
H1753 H 0.57228 0.82689 0.5215 0.0
H1754 H 0.52495 0.77103 0.53519 0.0
C1755 C 0.54179 0.84429 0.57206 0.0
C1756 C 0.28752 0.85639 0.2642 0.0
C1757 C 0.29163 0.80768 0.27044 0.0
H1758 H 0.25429 0.92253 0.26437 0.0
C1759 C 0.26389 0.78967 0.28276 0.0
H1760 H 0.30797 0.8717 0.25464 0.0
C1761 C 0.23298 0.81892 0.28845 0.0
C1762 C 0.22832 0.86748 0.28202 0.0
H1763 H 0.26582 0.75249 0.28799 0.0
H1764 H 0.21283 0.80303 0.29798 0.0
C1765 C 0.25643 0.88573 0.26985 0.0
C1766 C 0.51411 0.92337 0.26543 0.0
C1767 C 0.5131 0.97375 0.2699 0.0
H1768 H 0.54468 0.85496 0.26709 0.0
C1769 C 0.54373 0.99268 0.28033 0.0
H1770 H 0.49132 0.90722 0.25738 0.0
C1771 C 0.57439 0.96274 0.2859 0.0
C1772 C 0.57581 0.91246 0.2813 0.0
H1773 H 0.5442 0.03103 0.28424 0.0
H1774 H 0.59682 0.97929 0.29403 0.0
C1775 C 0.5449 0.89324 0.27105 0.0
C1776 C 0.79896 0.63896 1.01969 0.0
C1777 C 0.82552 0.62106 1.0327 0.0
H1778 H 0.74847 0.625 1.0036 0.0
C1779 C 0.81901 0.57371 0.03994 0.0
H1780 H 0.80271 0.6749 1.01361 0.0
C1781 C 0.78782 0.54505 1.03413 0.0
C1782 C 0.76172 0.56251 1.02088 0.0
H1783 H 0.83794 0.55842 0.05018 0.0
H1784 H 0.78448 0.50868 0.03995 0.0
C1785 C 0.76761 0.61019 1.01389 0.0
C1786 C 0.48163 0.70915 0.03812 0.0
C1787 C 0.47685 0.66048 1.0319 0.0
H1788 H 0.51485 0.77526 1.03757 0.0
C1789 C 0.50524 0.64154 1.02008 0.0
H1790 H 0.46134 0.72547 0.04745 0.0
C1791 C 0.53671 0.67047 1.01449 0.0
C1792 C 0.54085 0.71939 1.02048 0.0
H1793 H 0.50296 0.60455 1.0148 0.0
H1794 H 0.55737 0.65475 1.00516 0.0
C1795 C 0.51287 0.73796 1.0325 0.0
C1796 C 0.79457 0.63759 0.30344 0.0
C1797 C 0.82361 0.65689 0.2921 0.0
H1798 H 0.74217 0.6511 0.31809 0.0
C1799 C 0.81971 0.70584 0.28608 0.0
H1800 H 0.79643 0.60017 0.3084 0.0
C1801 C 0.78862 0.73484 0.29154 0.0
C1802 C 0.7601 0.71623 0.30328 0.0
H1803 H 0.84066 0.72203 0.27701 0.0
H1804 H 0.78733 0.7724 0.28665 0.0
C1805 C 0.76334 0.66688 0.30901 0.0
C1806 C 0.52404 0.5569 0.29251 0.0
C1807 C 0.53489 0.56056 0.31104 0.0
H1808 H 0.48724 0.58332 0.271 0.0
C1809 C 0.51848 0.59833 0.32161 0.0
H1810 H 0.53551 0.52784 0.28403 0.0
C1811 C 0.491 0.63029 0.31414 0.0
C1812 C 0.47838 0.62482 0.29594 0.0
H1813 H 0.52583 0.60199 0.33597 0.0
H1814 H 0.47813 0.65763 0.32293 0.0
C1815 C 0.49593 0.58833 0.28512 0.0
C1816 C 0.25834 0.42181 1.03732 0.0
C1817 C 0.22031 0.41821 0.0437 0.0
H1818 H 0.31355 0.45674 0.04033 0.0
C1819 C 0.2097 0.44688 0.0588 0.0
H1820 H 0.26735 0.40052 1.02559 0.0
C1821 C 0.23611 0.47794 0.06739 0.0
C1822 C 0.27404 0.48236 0.061 0.0
H1823 H 0.18082 0.44499 0.06408 0.0
H1824 H 0.22632 0.49948 0.07893 0.0
C1825 C 0.28479 0.4541 0.04571 0.0
C1826 C 0.51163 0.36525 0.05913 0.0
C1827 C 0.50824 0.31609 0.05326 0.0
H1828 H 0.54488 0.43189 0.0587 0.0
C1829 C 0.53667 0.29776 0.04144 0.0
H1830 H 0.49054 0.38081 0.06828 0.0
C1831 C 0.56782 0.32686 1.03605 0.0
C1832 C 0.57186 0.37561 0.0422 0.0
H1833 H 0.53525 0.26036 1.03643 0.0
H1834 H 0.58869 0.3109 1.02691 0.0
C1835 C 0.54292 0.39463 0.05364 0.0
C1836 C 0.2652 0.29777 0.78239 0.0
C1837 C 0.29426 0.31602 0.77086 0.0
H1838 H 0.21273 0.3112 0.79649 0.0
C1839 C 0.29138 0.36526 0.76498 0.0
H1840 H 0.26621 0.26029 0.78737 0.0
C1841 C 0.26009 0.39483 0.77022 0.0
C1842 C 0.2306 0.37602 0.78141 0.0
H1843 H 0.31293 0.38077 0.75604 0.0
H1844 H 0.25864 0.43217 0.76515 0.0
C1845 C 0.23403 0.3271 0.78754 0.0
C1846 C 0.539 0.48542 0.78549 0.0
C1847 C 0.51257 0.46823 0.77236 0.0
H1848 H 0.58958 0.47182 0.80116 0.0
C1849 C 0.51827 0.42075 0.76521 0.0
H1850 H 0.5358 0.52162 0.79144 0.0
C1851 C 0.54982 0.39195 0.77072 0.0
C1852 C 0.57674 0.40968 0.78358 0.0
H1853 H 0.49886 0.40617 0.755 0.0
H1854 H 0.55347 0.35618 0.76454 0.0
C1855 C 0.57038 0.45675 0.791 0.0
loop_
_geom_bond_atom_site_label_1
_geom_bond_atom_site_label_2
_geom_bond_distance
_geom_bond_site_symmetry_2
_ccdc_geom_bond_type
Co0 N4 2.148 . S
Co0 N10 2.128 . S
Co0 N20 2.194 . S
Co0 O25 2.351 . S
Co0 O26 2.155 . S
Co0 O27 2.096 . S
C1 N4 1.301 . S
C1 N5 1.328 . S
C1 H6 0.930 . S
C2 C3 1.333 . S
C2 N4 1.317 . S
C2 H7 0.930 . S
C3 C2 1.333 . S
C3 N5 1.350 . S
C3 H29 0.910 1_554 S
N4 Co0 2.148 . S
N4 C1 1.301 . S
N4 C2 1.317 . S
N5 C1 1.328 . S
N5 C3 1.350 . S
H6 C1 0.930 . S
H7 C2 0.930 . S
C8 O9 1.224 . S
C8 O27 1.247 . S
O9 C8 1.224 . S
N10 Co0 2.128 . S
N10 C11 1.355 . S
N10 C13 1.311 . S
C11 N10 1.355 . S
C11 C12 1.363 . S
C11 H23 0.929 . S
C12 C11 1.363 . S
C12 N14 1.375 . S
C12 H30 0.931 . S
C13 N10 1.311 . S
C13 N14 1.347 . S
C13 H24 0.929 . S
N14 C12 1.375 . S
N14 C13 1.347 . S
C15 C18 1.365 . S
C15 N20 1.328 . S
C15 H21 0.929 . S
C16 C17 1.362 . S
C16 C19 1.378 . S
C16 H31 0.929 . S
C17 C16 1.362 . S
C17 C18 1.366 . S
C18 C15 1.365 . S
C18 C17 1.366 . S
C18 H32 0.930 . S
C19 C16 1.378 . S
C19 N20 1.315 . S
C19 H22 0.930 . S
N20 Co0 2.194 . S
N20 C15 1.328 . S
N20 C19 1.315 . S
H21 C15 0.929 . S
H22 C19 0.930 . S
H23 C11 0.929 . S
H24 C13 0.929 . S
O25 Co0 2.351 . S
O25 C28 1.244 . S
O26 Co0 2.155 . S
O26 C28 1.240 . S
O27 Co0 2.096 . S
O27 C8 1.247 . S
C28 O25 1.244 . S
C28 O26 1.240 . S
H29 C3 0.910 1_556 S
H30 C12 0.931 . S
H31 C16 0.929 . S
H32 C18 0.930 . S
Co33 N37 2.148 . S
Co33 N43 2.128 . S
Co33 N53 2.194 . S
Co33 O58 2.351 . S
Co33 O59 2.155 . S
Co33 O60 2.096 . S
C34 N37 1.301 . S
C34 N38 1.328 . S
C34 H39 0.930 . S
C35 C36 1.333 . S
C35 N37 1.317 . S
C35 H40 0.930 . S
C36 C35 1.333 . S
C36 N38 1.350 . S
C36 H62 0.910 1_554 S
N37 Co33 2.148 . S
N37 C34 1.301 . S
N37 C35 1.317 . S
N38 C34 1.328 . S
N38 C36 1.350 . S
H39 C34 0.930 . S
H40 C35 0.930 . S
C41 O42 1.224 . S
C41 O60 1.247 . S
O42 C41 1.224 . S
N43 Co33 2.128 . S
N43 C44 1.355 . S
N43 C46 1.311 . S
C44 N43 1.355 . S
C44 C45 1.363 . S
C44 H56 0.929 . S
C45 C44 1.363 . S
C45 N47 1.375 . S
C45 H63 0.931 . S
C46 N43 1.311 . S
C46 N47 1.347 . S
C46 H57 0.929 . S
N47 C45 1.375 . S
N47 C46 1.347 . S
C48 C51 1.365 . S
C48 N53 1.328 . S
C48 H54 0.929 . S
C49 C50 1.362 . S
C49 C52 1.378 . S
C49 H64 0.929 . S
C50 C49 1.362 . S
C50 C51 1.366 . S
C51 C48 1.365 . S
C51 C50 1.366 . S
C51 H65 0.930 . S
C52 C49 1.378 . S
C52 N53 1.315 . S
C52 H55 0.930 . S
N53 Co33 2.194 . S
N53 C48 1.328 . S
N53 C52 1.315 . S
H54 C48 0.929 . S
H55 C52 0.930 . S
H56 C44 0.929 . S
H57 C46 0.929 . S
O58 Co33 2.351 . S
O58 C61 1.244 . S
O59 Co33 2.155 . S
O59 C61 1.240 . S
O60 Co33 2.096 . S
O60 C41 1.247 . S
C61 O58 1.244 . S
C61 O59 1.240 . S
H62 C36 0.910 1_556 S
H63 C45 0.931 . S
H64 C49 0.929 . S
H65 C51 0.930 . S
Co66 N70 2.148 . S
Co66 N76 2.128 . S
Co66 N86 2.194 . S
Co66 O91 2.351 . S
Co66 O92 2.155 . S
Co66 O93 2.096 . S
C67 N70 1.301 . S
C67 N71 1.328 . S
C67 H72 0.930 . S
C68 C69 1.333 . S
C68 N70 1.317 . S
C68 H73 0.930 . S
C69 C68 1.333 . S
C69 N71 1.350 . S
C69 H95 0.931 . S
N70 Co66 2.148 . S
N70 C67 1.301 . S
N70 C68 1.317 . S
N71 C67 1.328 . S
N71 C69 1.350 . S
H72 C67 0.930 . S
H73 C68 0.930 . S
C74 O75 1.224 . S
C74 O93 1.247 . S
O75 C74 1.224 . S
N76 Co66 2.128 . S
N76 C77 1.355 . S
N76 C79 1.311 . S
C77 N76 1.355 . S
C77 C78 1.363 . S
C77 H89 0.929 . S
C78 C77 1.363 . S
C78 N80 1.375 . S
C78 H96 0.931 . S
C79 N76 1.311 . S
C79 N80 1.347 . S
C79 H90 0.929 . S
N80 C78 1.375 . S
N80 C79 1.347 . S
C81 C84 1.365 . S
C81 N86 1.328 . S
C81 H87 0.929 . S
C82 C83 1.362 . S
C82 C85 1.378 . S
C82 H97 0.929 . S
C83 C82 1.362 . S
C83 C84 1.366 . S
C84 C81 1.365 . S
C84 C83 1.366 . S
C84 H98 0.930 . S
C85 C82 1.378 . S
C85 N86 1.315 . S
C85 H88 0.930 . S
N86 Co66 2.194 . S
N86 C81 1.328 . S
N86 C85 1.315 . S
H87 C81 0.929 . S
H88 C85 0.930 . S
H89 C77 0.929 . S
H90 C79 0.929 . S
O91 Co66 2.351 . S
O91 C94 1.244 . S
O92 Co66 2.155 . S
O92 C94 1.240 . S
O93 Co66 2.096 . S
O93 C74 1.247 . S
C94 O91 1.244 . S
C94 O92 1.240 . S
H95 C69 0.931 . S
H96 C78 0.931 . S
H97 C82 0.929 . S
H98 C84 0.930 . S
Co99 N103 2.148 . S
Co99 N109 2.128 . S
Co99 N119 2.194 . S
Co99 O124 2.351 . S
Co99 O125 2.155 . S
Co99 O126 2.096 . S
C100 N103 1.301 . S
C100 N104 1.328 . S
C100 H105 0.930 . S
C101 C102 1.333 . S
C101 N103 1.317 . S
C101 H106 0.930 . S
C102 C101 1.333 . S
C102 N104 1.350 . S
C102 H128 0.931 . S
N103 Co99 2.148 . S
N103 C100 1.301 . S
N103 C101 1.317 . S
N104 C100 1.328 . S
N104 C102 1.350 . S
H105 C100 0.930 . S
H106 C101 0.930 . S
C107 O108 1.224 . S
C107 O126 1.247 . S
O108 C107 1.224 . S
N109 Co99 2.128 . S
N109 C110 1.355 . S
N109 C112 1.311 . S
C110 N109 1.355 . S
C110 C111 1.363 . S
C110 H122 0.929 . S
C111 C110 1.363 . S
C111 N113 1.375 . S
C111 H129 0.931 . S
C112 N109 1.311 . S
C112 N113 1.347 . S
C112 H123 0.929 . S
N113 C111 1.375 . S
N113 C112 1.347 . S
C114 C117 1.365 . S
C114 N119 1.328 . S
C114 H120 0.929 . S
C115 C116 1.362 . S
C115 C118 1.378 . S
C115 H130 0.929 . S
C116 C115 1.362 . S
C116 C117 1.366 . S
C117 C114 1.365 . S
C117 C116 1.366 . S
C117 H131 0.930 . S
C118 C115 1.378 . S
C118 N119 1.315 . S
C118 H121 0.930 . S
N119 Co99 2.194 . S
N119 C114 1.328 . S
N119 C118 1.315 . S
H120 C114 0.929 . S
H121 C118 0.930 . S
H122 C110 0.929 . S
H123 C112 0.929 . S
O124 Co99 2.351 . S
O124 C127 1.244 . S
O125 Co99 2.155 . S
O125 C127 1.240 . S
O126 Co99 2.096 . S
O126 C107 1.247 . S
C127 O124 1.244 . S
C127 O125 1.240 . S
H128 C102 0.931 . S
H129 C111 0.931 . S
H130 C115 0.929 . S
H131 C117 0.930 . S
Co132 N136 2.148 . S
Co132 N142 2.128 . S
Co132 N152 2.194 . S
Co132 O157 2.351 . S
Co132 O158 2.155 . S
Co132 O159 2.096 . S
C133 N136 1.301 . S
C133 N137 1.328 . S
C133 H138 0.930 . S
C134 C135 1.333 . S
C134 N136 1.317 . S
C134 H139 0.930 . S
C135 C134 1.333 . S
C135 N137 1.350 . S
C135 H161 0.910 1_556 S
N136 Co132 2.148 . S
N136 C133 1.301 . S
N136 C134 1.317 . S
N137 C133 1.328 . S
N137 C135 1.350 . S
H138 C133 0.930 . S
H139 C134 0.930 . S
C140 O141 1.224 . S
C140 O159 1.247 . S
O141 C140 1.224 . S
N142 Co132 2.128 . S
N142 C143 1.355 . S
N142 C145 1.311 . S
C143 N142 1.355 . S
C143 C144 1.363 . S
C143 H155 0.929 . S
C144 C143 1.363 . S
C144 N146 1.375 . S
C144 H162 0.931 . S
C145 N142 1.311 . S
C145 N146 1.347 . S
C145 H156 0.929 . S
N146 C144 1.375 . S
N146 C145 1.347 . S
C147 C150 1.365 . S
C147 N152 1.328 . S
C147 H153 0.929 . S
C148 C149 1.362 . S
C148 C151 1.378 . S
C148 H163 0.929 . S
C149 C148 1.362 . S
C149 C150 1.366 . S
C150 C147 1.365 . S
C150 C149 1.366 . S
C150 H164 0.930 . S
C151 C148 1.378 . S
C151 N152 1.315 . S
C151 H154 0.930 . S
N152 Co132 2.194 . S
N152 C147 1.328 . S
N152 C151 1.315 . S
H153 C147 0.929 . S
H154 C151 0.930 . S
H155 C143 0.929 . S
H156 C145 0.929 . S
O157 Co132 2.351 . S
O157 C160 1.244 . S
O158 Co132 2.155 . S
O158 C160 1.240 . S
O159 Co132 2.096 . S
O159 C140 1.247 . S
C160 O157 1.244 . S
C160 O158 1.240 . S
H161 C135 0.910 1_554 S
H162 C144 0.931 . S
H163 C148 0.929 . S
H164 C150 0.930 . S
Co165 N169 2.148 . S
Co165 N175 2.128 . S
Co165 N185 2.194 . S
Co165 O190 2.351 . S
Co165 O191 2.155 . S
Co165 O192 2.096 . S
C166 N169 1.301 . S
C166 N170 1.328 . S
C166 H171 0.930 . S
C167 C168 1.333 . S
C167 N169 1.317 . S
C167 H172 0.930 . S
C168 C167 1.333 . S
C168 N170 1.350 . S
C168 H194 0.910 1_556 S
N169 Co165 2.148 . S
N169 C166 1.301 . S
N169 C167 1.317 . S
N170 C166 1.328 . S
N170 C168 1.350 . S
H171 C166 0.930 . S
H172 C167 0.930 . S
C173 O174 1.224 . S
C173 O192 1.247 . S
O174 C173 1.224 . S
N175 Co165 2.128 . S
N175 C176 1.355 . S
N175 C178 1.311 . S
C176 N175 1.355 . S
C176 C177 1.363 . S
C176 H188 0.929 . S
C177 C176 1.363 . S
C177 N179 1.375 . S
C177 H195 0.931 . S
C178 N175 1.311 . S
C178 N179 1.347 . S
C178 H189 0.929 . S
N179 C177 1.375 . S
N179 C178 1.347 . S
C180 C183 1.365 . S
C180 N185 1.328 . S
C180 H186 0.929 . S
C181 C182 1.362 . S
C181 C184 1.378 . S
C181 H196 0.929 . S
C182 C181 1.362 . S
C182 C183 1.366 . S
C183 C180 1.365 . S
C183 C182 1.366 . S
C183 H197 0.930 . S
C184 C181 1.378 . S
C184 N185 1.315 . S
C184 H187 0.930 . S
N185 Co165 2.194 . S
N185 C180 1.328 . S
N185 C184 1.315 . S
H186 C180 0.929 . S
H187 C184 0.930 . S
H188 C176 0.929 . S
H189 C178 0.929 . S
O190 Co165 2.351 . S
O190 C193 1.244 . S
O191 Co165 2.155 . S
O191 C193 1.240 . S
O192 Co165 2.096 . S
O192 C173 1.247 . S
C193 O190 1.244 . S
C193 O191 1.240 . S
H194 C168 0.910 1_554 S
H195 C177 0.931 . S
H196 C181 0.929 . S
H197 C183 0.930 . S
Co198 N202 2.148 . S
Co198 N208 2.128 . S
Co198 N218 2.194 . S
Co198 O223 2.351 . S
Co198 O224 2.155 . S
Co198 O225 2.096 . S
C199 N202 1.301 . S
C199 N203 1.328 . S
C199 H204 0.930 . S
C200 C201 1.333 . S
C200 N202 1.317 . S
C200 H205 0.930 . S
C201 C200 1.333 . S
C201 N203 1.350 . S
C201 H227 0.931 . S
N202 Co198 2.148 . S
N202 C199 1.301 . S
N202 C200 1.317 . S
N203 C199 1.328 . S
N203 C201 1.350 . S
H204 C199 0.930 . S
H205 C200 0.930 . S
C206 O207 1.224 . S
C206 O225 1.247 . S
O207 C206 1.224 . S
N208 Co198 2.128 . S
N208 C209 1.355 . S
N208 C211 1.311 . S
C209 N208 1.355 . S
C209 C210 1.363 . S
C209 H221 0.929 . S
C210 C209 1.363 . S
C210 N212 1.375 . S
C210 H228 0.931 . S
C211 N208 1.311 . S
C211 N212 1.347 . S
C211 H222 0.929 . S
N212 C210 1.375 . S
N212 C211 1.347 . S
C213 C216 1.365 . S
C213 N218 1.328 . S
C213 H219 0.929 . S
C214 C215 1.362 . S
C214 C217 1.378 . S
C214 H229 0.929 . S
C215 C214 1.362 . S
C215 C216 1.366 . S
C216 C213 1.365 . S
C216 C215 1.366 . S
C216 H230 0.930 . S
C217 C214 1.378 . S
C217 N218 1.315 . S
C217 H220 0.930 . S
N218 Co198 2.194 . S
N218 C213 1.328 . S
N218 C217 1.315 . S
H219 C213 0.929 . S
H220 C217 0.930 . S
H221 C209 0.929 . S
H222 C211 0.929 . S
O223 Co198 2.351 . S
O223 C226 1.244 . S
O224 Co198 2.155 . S
O224 C226 1.240 . S
O225 Co198 2.096 . S
O225 C206 1.247 . S
C226 O223 1.244 . S
C226 O224 1.240 . S
H227 C201 0.931 . S
H228 C210 0.931 . S
H229 C214 0.929 . S
H230 C216 0.930 . S
Co231 N235 2.148 . S
Co231 N241 2.128 . S
Co231 N251 2.194 . S
Co231 O256 2.351 . S
Co231 O257 2.155 . S
Co231 O258 2.096 . S
C232 N235 1.301 . S
C232 N236 1.328 . S
C232 H237 0.930 . S
C233 C234 1.333 . S
C233 N235 1.317 . S
C233 H238 0.930 . S
C234 C233 1.333 . S
C234 N236 1.350 . S
C234 H260 0.931 . S
N235 Co231 2.148 . S
N235 C232 1.301 . S
N235 C233 1.317 . S
N236 C232 1.328 . S
N236 C234 1.350 . S
H237 C232 0.930 . S
H238 C233 0.930 . S
C239 O240 1.224 . S
C239 O258 1.247 . S
O240 C239 1.224 . S
N241 Co231 2.128 . S
N241 C242 1.355 . S
N241 C244 1.311 . S
C242 N241 1.355 . S
C242 C243 1.363 . S
C242 H254 0.929 . S
C243 C242 1.363 . S
C243 N245 1.375 . S
C243 H261 0.931 . S
C244 N241 1.311 . S
C244 N245 1.347 . S
C244 H255 0.929 . S
N245 C243 1.375 . S
N245 C244 1.347 . S
C246 C249 1.365 . S
C246 N251 1.328 . S
C246 H252 0.929 . S
C247 C248 1.362 . S
C247 C250 1.378 . S
C247 H262 0.929 . S
C248 C247 1.362 . S
C248 C249 1.366 . S
C249 C246 1.365 . S
C249 C248 1.366 . S
C249 H263 0.930 . S
C250 C247 1.378 . S
C250 N251 1.315 . S
C250 H253 0.930 . S
N251 Co231 2.194 . S
N251 C246 1.328 . S
N251 C250 1.315 . S
H252 C246 0.929 . S
H253 C250 0.930 . S
H254 C242 0.929 . S
H255 C244 0.929 . S
O256 Co231 2.351 . S
O256 C259 1.244 . S
O257 Co231 2.155 . S
O257 C259 1.240 . S
O258 Co231 2.096 . S
O258 C239 1.247 . S
C259 O256 1.244 . S
C259 O257 1.240 . S
H260 C234 0.931 . S
H261 C243 0.931 . S
H262 C247 0.929 . S
H263 C249 0.930 . S
Co264 N268 2.148 . S
Co264 N274 2.128 . S
Co264 N284 2.194 . S
Co264 O289 2.351 . S
Co264 O290 2.155 . S
Co264 O291 2.096 . S
C265 N268 1.301 . S
C265 N269 1.328 . S
C265 H270 0.930 . S
C266 C267 1.333 . S
C266 N268 1.317 . S
C266 H271 0.930 . S
C267 C266 1.333 . S
C267 N269 1.350 . S
C267 H293 0.931 . S
N268 Co264 2.148 . S
N268 C265 1.301 . S
N268 C266 1.317 . S
N269 C265 1.328 . S
N269 C267 1.350 . S
H270 C265 0.930 . S
H271 C266 0.930 . S
C272 O273 1.224 . S
C272 O291 1.247 . S
O273 C272 1.224 . S
N274 Co264 2.128 . S
N274 C275 1.355 . S
N274 C277 1.311 . S
C275 N274 1.355 . S
C275 C276 1.363 . S
C275 H287 0.929 . S
C276 C275 1.363 . S
C276 N278 1.375 . S
C276 H294 0.931 . S
C277 N274 1.311 . S
C277 N278 1.347 . S
C277 H288 0.929 . S
N278 C276 1.375 . S
N278 C277 1.347 . S
C279 C282 1.365 . S
C279 N284 1.328 . S
C279 H285 0.929 . S
C280 C281 1.362 . S
C280 C283 1.378 . S
C280 H295 0.929 . S
C281 C280 1.362 . S
C281 C282 1.366 . S
C282 C279 1.365 . S
C282 C281 1.366 . S
C282 H296 0.930 . S
C283 C280 1.378 . S
C283 N284 1.315 . S
C283 H286 0.930 . S
N284 Co264 2.194 . S
N284 C279 1.328 . S
N284 C283 1.315 . S
H285 C279 0.929 . S
H286 C283 0.930 . S
H287 C275 0.929 . S
H288 C277 0.929 . S
O289 Co264 2.351 . S
O289 C292 1.244 . S
O290 Co264 2.155 . S
O290 C292 1.240 . S
O291 Co264 2.096 . S
O291 C272 1.247 . S
C292 O289 1.244 . S
C292 O290 1.240 . S
H293 C267 0.931 . S
H294 C276 0.931 . S
H295 C280 0.929 . S
H296 C282 0.930 . S
Co297 N301 2.148 . S
Co297 N307 2.128 . S
Co297 N317 2.194 . S
Co297 O322 2.351 . S
Co297 O323 2.155 . S
Co297 O324 2.096 . S
C298 N301 1.301 . S
C298 N302 1.328 . S
C298 H303 0.930 . S
C299 C300 1.333 . S
C299 N301 1.317 . S
C299 H304 0.930 . S
C300 C299 1.333 . S
C300 N302 1.350 . S
C300 H326 0.931 . S
N301 Co297 2.148 . S
N301 C298 1.301 . S
N301 C299 1.317 . S
N302 C298 1.328 . S
N302 C300 1.350 . S
H303 C298 0.930 . S
H304 C299 0.930 . S
C305 O306 1.224 . S
C305 O324 1.247 . S
O306 C305 1.224 . S
N307 Co297 2.128 . S
N307 C308 1.355 . S
N307 C310 1.311 . S
C308 N307 1.355 . S
C308 C309 1.363 . S
C308 H320 0.929 . S
C309 C308 1.363 . S
C309 N311 1.375 . S
C309 H327 0.931 . S
C310 N307 1.311 . S
C310 N311 1.347 . S
C310 H321 0.929 . S
N311 C309 1.375 . S
N311 C310 1.347 . S
C312 C315 1.365 . S
C312 N317 1.328 . S
C312 H318 0.929 . S
C313 C314 1.362 . S
C313 C316 1.378 . S
C313 H328 0.929 . S
C314 C313 1.362 . S
C314 C315 1.366 . S
C315 C312 1.365 . S
C315 C314 1.366 . S
C315 H329 0.930 . S
C316 C313 1.378 . S
C316 N317 1.315 . S
C316 H319 0.930 . S
N317 Co297 2.194 . S
N317 C312 1.328 . S
N317 C316 1.315 . S
H318 C312 0.929 . S
H319 C316 0.930 . S
H320 C308 0.929 . S
H321 C310 0.929 . S
O322 Co297 2.351 . S
O322 C325 1.244 . S
O323 Co297 2.155 . S
O323 C325 1.240 . S
O324 Co297 2.096 . S
O324 C305 1.247 . S
C325 O322 1.244 . S
C325 O323 1.240 . S
H326 C300 0.931 . S
H327 C309 0.931 . S
H328 C313 0.929 . S
H329 C315 0.930 . S
Co330 N334 2.148 . S
Co330 N340 2.128 . S
Co330 N350 2.194 . S
Co330 O355 2.351 . S
Co330 O356 2.155 . S
Co330 O357 2.096 . S
C331 N334 1.301 . S
C331 N335 1.328 . S
C331 H336 0.930 . S
C332 C333 1.333 . S
C332 N334 1.317 . S
C332 H337 0.930 . S
C333 C332 1.333 . S
C333 N335 1.350 . S
C333 H359 0.931 . S
N334 Co330 2.148 . S
N334 C331 1.301 . S
N334 C332 1.317 . S
N335 C331 1.328 . S
N335 C333 1.350 . S
H336 C331 0.930 . S
H337 C332 0.930 . S
C338 O339 1.224 . S
C338 O357 1.247 . S
O339 C338 1.224 . S
N340 Co330 2.128 . S
N340 C341 1.355 . S
N340 C343 1.311 . S
C341 N340 1.355 . S
C341 C342 1.363 . S
C341 H353 0.929 . S
C342 C341 1.363 . S
C342 N344 1.375 . S
C342 H360 0.931 . S
C343 N340 1.311 . S
C343 N344 1.347 . S
C343 H354 0.929 . S
N344 C342 1.375 . S
N344 C343 1.347 . S
C345 C348 1.365 . S
C345 N350 1.328 . S
C345 H351 0.929 . S
C346 C347 1.362 . S
C346 C349 1.378 . S
C346 H361 0.929 . S
C347 C346 1.362 . S
C347 C348 1.366 . S
C348 C345 1.365 . S
C348 C347 1.366 . S
C348 H362 0.930 . S
C349 C346 1.378 . S
C349 N350 1.315 . S
C349 H352 0.930 . S
N350 Co330 2.194 . S
N350 C345 1.328 . S
N350 C349 1.315 . S
H351 C345 0.929 . S
H352 C349 0.930 . S
H353 C341 0.929 . S
H354 C343 0.929 . S
O355 Co330 2.351 . S
O355 C358 1.244 . S
O356 Co330 2.155 . S
O356 C358 1.240 . S
O357 Co330 2.096 . S
O357 C338 1.247 . S
C358 O355 1.244 . S
C358 O356 1.240 . S
H359 C333 0.931 . S
H360 C342 0.931 . S
H361 C346 0.929 . S
H362 C348 0.930 . S
Co363 N367 2.148 . S
Co363 N373 2.128 . S
Co363 N383 2.194 . S
Co363 O388 2.351 . S
Co363 O389 2.155 . S
Co363 O390 2.096 . S
C364 N367 1.301 . S
C364 N368 1.328 . S
C364 H369 0.930 . S
C365 C366 1.333 . S
C365 N367 1.317 . S
C365 H370 0.930 . S
C366 C365 1.333 . S
C366 N368 1.350 . S
C366 H392 0.931 . S
N367 Co363 2.148 . S
N367 C364 1.301 . S
N367 C365 1.317 . S
N368 C364 1.328 . S
N368 C366 1.350 . S
H369 C364 0.930 . S
H370 C365 0.930 . S
C371 O372 1.224 . S
C371 O390 1.247 . S
O372 C371 1.224 . S
N373 Co363 2.128 . S
N373 C374 1.355 . S
N373 C376 1.311 . S
C374 N373 1.355 . S
C374 C375 1.363 . S
C374 H386 0.929 . S
C375 C374 1.363 . S
C375 N377 1.375 . S
C375 H393 0.931 . S
C376 N373 1.311 . S
C376 N377 1.347 . S
C376 H387 0.929 . S
N377 C375 1.375 . S
N377 C376 1.347 . S
C378 C381 1.365 . S
C378 N383 1.328 . S
C378 H384 0.929 . S
C379 C380 1.362 . S
C379 C382 1.378 . S
C379 H394 0.929 . S
C380 C379 1.362 . S
C380 C381 1.366 . S
C381 C378 1.365 . S
C381 C380 1.366 . S
C381 H395 0.930 . S
C382 C379 1.378 . S
C382 N383 1.315 . S
C382 H385 0.930 . S
N383 Co363 2.194 . S
N383 C378 1.328 . S
N383 C382 1.315 . S
H384 C378 0.929 . S
H385 C382 0.930 . S
H386 C374 0.929 . S
H387 C376 0.929 . S
O388 Co363 2.351 . S
O388 C391 1.244 . S
O389 Co363 2.155 . S
O389 C391 1.240 . S
O390 Co363 2.096 . S
O390 C371 1.247 . S
C391 O388 1.244 . S
C391 O389 1.240 . S
H392 C366 0.931 . S
H393 C375 0.931 . S
H394 C379 0.929 . S
H395 C381 0.930 . S
Co396 N400 2.148 . S
Co396 N406 2.128 . S
Co396 N416 2.194 . S
Co396 O421 2.351 . S
Co396 O422 2.155 . S
Co396 O423 2.096 . S
C397 N400 1.301 . S
C397 N401 1.328 . S
C397 H402 0.930 . S
C398 C399 1.333 . S
C398 N400 1.317 . S
C398 H403 0.930 . S
C399 C398 1.333 . S
C399 N401 1.350 . S
C399 H425 0.931 . S
N400 Co396 2.148 . S
N400 C397 1.301 . S
N400 C398 1.317 . S
N401 C397 1.328 . S
N401 C399 1.350 . S
H402 C397 0.930 . S
H403 C398 0.930 . S
C404 O405 1.224 . S
C404 O423 1.247 . S
O405 C404 1.224 . S
N406 Co396 2.128 . S
N406 C407 1.355 . S
N406 C409 1.311 . S
C407 N406 1.355 . S
C407 C408 1.363 . S
C407 H419 0.929 . S
C408 C407 1.363 . S
C408 N410 1.375 . S
C408 H426 0.931 . S
C409 N406 1.311 . S
C409 N410 1.347 . S
C409 H420 0.929 . S
N410 C408 1.375 . S
N410 C409 1.347 . S
C411 C414 1.365 . S
C411 N416 1.328 . S
C411 H417 0.929 . S
C412 C413 1.362 . S
C412 C415 1.378 . S
C412 H427 0.929 . S
C413 C412 1.362 . S
C413 C414 1.366 . S
C414 C411 1.365 . S
C414 C413 1.366 . S
C414 H428 0.930 . S
C415 C412 1.378 . S
C415 N416 1.315 . S
C415 H418 0.930 . S
N416 Co396 2.194 . S
N416 C411 1.328 . S
N416 C415 1.315 . S
H417 C411 0.929 . S
H418 C415 0.930 . S
H419 C407 0.929 . S
H420 C409 0.929 . S
O421 Co396 2.351 . S
O421 C424 1.244 . S
O422 Co396 2.155 . S
O422 C424 1.240 . S
O423 Co396 2.096 . S
O423 C404 1.247 . S
C424 O421 1.244 . S
C424 O422 1.240 . S
H425 C399 0.931 . S
H426 C408 0.931 . S
H427 C412 0.929 . S
H428 C414 0.930 . S
Co429 N433 2.148 . S
Co429 N439 2.128 . S
Co429 N449 2.194 . S
Co429 O454 2.351 . S
Co429 O455 2.155 . S
Co429 O456 2.096 . S
C430 N433 1.301 . S
C430 N434 1.328 . S
C430 H435 0.930 . S
C431 C432 1.333 . S
C431 N433 1.317 . S
C431 H436 0.930 . S
C432 C431 1.333 . S
C432 N434 1.350 . S
C432 H458 0.931 . S
N433 Co429 2.148 . S
N433 C430 1.301 . S
N433 C431 1.317 . S
N434 C430 1.328 . S
N434 C432 1.350 . S
H435 C430 0.930 . S
H436 C431 0.930 . S
C437 O438 1.224 . S
C437 O456 1.247 . S
O438 C437 1.224 . S
N439 Co429 2.128 . S
N439 C440 1.355 . S
N439 C442 1.311 . S
C440 N439 1.355 . S
C440 C441 1.363 . S
C440 H452 0.929 . S
C441 C440 1.363 . S
C441 N443 1.375 . S
C441 H459 0.931 . S
C442 N439 1.311 . S
C442 N443 1.347 . S
C442 H453 0.929 . S
N443 C441 1.375 . S
N443 C442 1.347 . S
C444 C447 1.365 . S
C444 N449 1.328 . S
C444 H450 0.929 . S
C445 C446 1.362 . S
C445 C448 1.378 . S
C445 H460 0.929 . S
C446 C445 1.362 . S
C446 C447 1.366 . S
C447 C444 1.365 . S
C447 C446 1.366 . S
C447 H461 0.930 . S
C448 C445 1.378 . S
C448 N449 1.315 . S
C448 H451 0.930 . S
N449 Co429 2.194 . S
N449 C444 1.328 . S
N449 C448 1.315 . S
H450 C444 0.929 . S
H451 C448 0.930 . S
H452 C440 0.929 . S
H453 C442 0.929 . S
O454 Co429 2.351 . S
O454 C457 1.244 . S
O455 Co429 2.155 . S
O455 C457 1.240 . S
O456 Co429 2.096 . S
O456 C437 1.247 . S
C457 O454 1.244 . S
C457 O455 1.240 . S
H458 C432 0.931 . S
H459 C441 0.931 . S
H460 C445 0.929 . S
H461 C447 0.930 . S
Co462 N466 2.148 . S
Co462 N472 2.128 . S
Co462 N482 2.194 . S
Co462 O487 2.351 . S
Co462 O488 2.155 . S
Co462 O489 2.096 . S
C463 N466 1.301 . S
C463 N467 1.328 . S
C463 H468 0.930 . S
C464 C465 1.333 . S
C464 N466 1.317 . S
C464 H469 0.930 . S
C465 C464 1.333 . S
C465 N467 1.350 . S
C465 H491 0.931 . S
N466 Co462 2.148 . S
N466 C463 1.301 . S
N466 C464 1.317 . S
N467 C463 1.328 . S
N467 C465 1.350 . S
H468 C463 0.930 . S
H469 C464 0.930 . S
C470 O471 1.224 . S
C470 O489 1.247 . S
O471 C470 1.224 . S
N472 Co462 2.128 . S
N472 C473 1.355 . S
N472 C475 1.311 . S
C473 N472 1.355 . S
C473 C474 1.363 . S
C473 H485 0.929 . S
C474 C473 1.363 . S
C474 N476 1.375 . S
C474 H492 0.931 . S
C475 N472 1.311 . S
C475 N476 1.347 . S
C475 H486 0.929 . S
N476 C474 1.375 . S
N476 C475 1.347 . S
C477 C480 1.365 . S
C477 N482 1.328 . S
C477 H483 0.929 . S
C478 C479 1.362 . S
C478 C481 1.378 . S
C478 H493 0.929 . S
C479 C478 1.362 . S
C479 C480 1.366 . S
C480 C477 1.365 . S
C480 C479 1.366 . S
C480 H494 0.930 . S
C481 C478 1.378 . S
C481 N482 1.315 . S
C481 H484 0.930 . S
N482 Co462 2.194 . S
N482 C477 1.328 . S
N482 C481 1.315 . S
H483 C477 0.929 . S
H484 C481 0.930 . S
H485 C473 0.929 . S
H486 C475 0.929 . S
O487 Co462 2.351 . S
O487 C490 1.244 . S
O488 Co462 2.155 . S
O488 C490 1.240 . S
O489 Co462 2.096 . S
O489 C470 1.247 . S
C490 O487 1.244 . S
C490 O488 1.240 . S
H491 C465 0.931 . S
H492 C474 0.931 . S
H493 C478 0.929 . S
H494 C480 0.930 . S
Co495 N499 2.148 . S
Co495 N505 2.128 . S
Co495 N515 2.194 . S
Co495 O520 2.351 . S
Co495 O521 2.155 . S
Co495 O522 2.096 . S
C496 N499 1.301 . S
C496 N500 1.328 . S
C496 H501 0.930 . S
C497 C498 1.333 . S
C497 N499 1.317 . S
C497 H502 0.930 . S
C498 C497 1.333 . S
C498 N500 1.350 . S
C498 H524 0.931 . S
N499 Co495 2.148 . S
N499 C496 1.301 . S
N499 C497 1.317 . S
N500 C496 1.328 . S
N500 C498 1.350 . S
H501 C496 0.930 . S
H502 C497 0.930 . S
C503 O504 1.224 . S
C503 O522 1.247 . S
O504 C503 1.224 . S
N505 Co495 2.128 . S
N505 C506 1.355 . S
N505 C508 1.311 . S
C506 N505 1.355 . S
C506 C507 1.363 . S
C506 H518 0.929 . S
C507 C506 1.363 . S
C507 N509 1.375 . S
C507 H525 0.931 . S
C508 N505 1.311 . S
C508 N509 1.347 . S
C508 H519 0.929 . S
N509 C507 1.375 . S
N509 C508 1.347 . S
C510 C513 1.365 . S
C510 N515 1.328 . S
C510 H516 0.929 . S
C511 C512 1.362 . S
C511 C514 1.378 . S
C511 H526 0.929 . S
C512 C511 1.362 . S
C512 C513 1.366 . S
C513 C510 1.365 . S
C513 C512 1.366 . S
C513 H527 0.930 . S
C514 C511 1.378 . S
C514 N515 1.315 . S
C514 H517 0.930 . S
N515 Co495 2.194 . S
N515 C510 1.328 . S
N515 C514 1.315 . S
H516 C510 0.929 . S
H517 C514 0.930 . S
H518 C506 0.929 . S
H519 C508 0.929 . S
O520 Co495 2.351 . S
O520 C523 1.244 . S
O521 Co495 2.155 . S
O521 C523 1.240 . S
O522 Co495 2.096 . S
O522 C503 1.247 . S
C523 O520 1.244 . S
C523 O521 1.240 . S
H524 C498 0.931 . S
H525 C507 0.931 . S
H526 C511 0.929 . S
H527 C513 0.930 . S
Co528 N532 2.148 . S
Co528 N538 2.128 1_655 S
Co528 N548 2.194 . S
Co528 O553 2.351 . S
Co528 O554 2.155 . S
Co528 O555 2.096 . S
C529 N532 1.301 . S
C529 N533 1.328 . S
C529 H534 0.930 . S
C530 C531 1.333 . S
C530 N532 1.317 . S
C530 H535 0.930 . S
C531 C530 1.333 . S
C531 N533 1.350 . S
C531 H557 0.931 . S
N532 Co528 2.148 . S
N532 C529 1.301 . S
N532 C530 1.317 . S
N533 C529 1.328 . S
N533 C531 1.350 . S
H534 C529 0.930 . S
H535 C530 0.930 . S
C536 O537 1.224 . S
C536 O555 1.247 . S
O537 C536 1.224 . S
N538 Co528 2.128 1_455 S
N538 C539 1.355 . S
N538 C541 1.311 . S
C539 N538 1.355 . S
C539 C540 1.363 . S
C539 H551 0.929 . S
C540 C539 1.363 . S
C540 N542 1.375 . S
C540 H558 0.931 . S
C541 N538 1.311 . S
C541 N542 1.347 . S
C541 H552 0.929 . S
N542 C540 1.375 . S
N542 C541 1.347 . S
C543 C546 1.365 . S
C543 N548 1.328 . S
C543 H549 0.929 . S
C544 C545 1.362 . S
C544 C547 1.378 . S
C544 H559 0.929 . S
C545 C544 1.362 . S
C545 C546 1.366 . S
C546 C543 1.365 . S
C546 C545 1.366 . S
C546 H560 0.930 . S
C547 C544 1.378 . S
C547 N548 1.315 . S
C547 H550 0.930 . S
N548 Co528 2.194 . S
N548 C543 1.328 . S
N548 C547 1.315 . S
H549 C543 0.929 . S
H550 C547 0.930 . S
H551 C539 0.929 . S
H552 C541 0.929 . S
O553 Co528 2.351 . S
O553 C556 1.244 . S
O554 Co528 2.155 . S
O554 C556 1.240 . S
O555 Co528 2.096 . S
O555 C536 1.247 . S
C556 O553 1.244 . S
C556 O554 1.240 . S
H557 C531 0.931 . S
H558 C540 0.931 . S
H559 C544 0.929 . S
H560 C546 0.930 . S
Co561 N565 2.148 . S
Co561 N571 2.128 . S
Co561 N581 2.194 . S
Co561 O586 2.351 . S
Co561 O587 2.155 . S
Co561 O588 2.096 . S
C562 N565 1.301 . S
C562 N566 1.328 . S
C562 H567 0.930 . S
C563 C564 1.333 . S
C563 N565 1.317 . S
C563 H568 0.930 . S
C564 C563 1.333 . S
C564 N566 1.350 . S
C564 H590 0.931 . S
N565 Co561 2.148 . S
N565 C562 1.301 . S
N565 C563 1.317 . S
N566 C562 1.328 . S
N566 C564 1.350 . S
H567 C562 0.930 . S
H568 C563 0.930 . S
C569 O570 1.224 . S
C569 O588 1.247 . S
O570 C569 1.224 . S
N571 Co561 2.128 . S
N571 C572 1.355 . S
N571 C574 1.311 . S
C572 N571 1.355 . S
C572 C573 1.363 . S
C572 H584 0.929 . S
C573 C572 1.363 . S
C573 N575 1.375 . S
C573 H591 0.931 . S
C574 N571 1.311 . S
C574 N575 1.347 . S
C574 H585 0.929 . S
N575 C573 1.375 . S
N575 C574 1.347 . S
C576 C579 1.365 . S
C576 N581 1.328 . S
C576 H582 0.929 . S
C577 C578 1.362 . S
C577 C580 1.378 . S
C577 H592 0.929 . S
C578 C577 1.362 . S
C578 C579 1.366 . S
C579 C576 1.365 . S
C579 C578 1.366 . S
C579 H593 0.930 . S
C580 C577 1.378 . S
C580 N581 1.315 . S
C580 H583 0.930 . S
N581 Co561 2.194 . S
N581 C576 1.328 . S
N581 C580 1.315 . S
H582 C576 0.929 . S
H583 C580 0.930 . S
H584 C572 0.929 . S
H585 C574 0.929 . S
O586 Co561 2.351 . S
O586 C589 1.244 . S
O587 Co561 2.155 . S
O587 C589 1.240 . S
O588 Co561 2.096 . S
O588 C569 1.247 . S
C589 O586 1.244 . S
C589 O587 1.240 . S
H590 C564 0.931 . S
H591 C573 0.931 . S
H592 C577 0.929 . S
H593 C579 0.930 . S
Co594 N598 2.148 . S
Co594 N604 2.128 1_655 S
Co594 N614 2.194 . S
Co594 O619 2.351 . S
Co594 O620 2.155 . S
Co594 O621 2.096 . S
C595 N598 1.301 . S
C595 N599 1.328 . S
C595 H600 0.930 . S
C596 C597 1.333 . S
C596 N598 1.317 . S
C596 H601 0.930 . S
C597 C596 1.333 . S
C597 N599 1.350 . S
C597 H623 0.931 . S
N598 Co594 2.148 . S
N598 C595 1.301 . S
N598 C596 1.317 . S
N599 C595 1.328 . S
N599 C597 1.350 . S
H600 C595 0.930 . S
H601 C596 0.930 . S
C602 O603 1.224 . S
C602 O621 1.247 . S
O603 C602 1.224 . S
N604 Co594 2.128 1_455 S
N604 C605 1.355 . S
N604 C607 1.311 . S
C605 N604 1.355 . S
C605 C606 1.363 . S
C605 H617 0.929 . S
C606 C605 1.363 . S
C606 N608 1.375 . S
C606 H624 0.931 . S
C607 N604 1.311 . S
C607 N608 1.347 . S
C607 H618 0.929 . S
N608 C606 1.375 . S
N608 C607 1.347 . S
C609 C612 1.365 . S
C609 N614 1.328 . S
C609 H615 0.929 . S
C610 C611 1.362 . S
C610 C613 1.378 . S
C610 H625 0.929 . S
C611 C610 1.362 . S
C611 C612 1.366 . S
C612 C609 1.365 . S
C612 C611 1.366 . S
C612 H626 0.930 . S
C613 C610 1.378 . S
C613 N614 1.315 . S
C613 H616 0.930 . S
N614 Co594 2.194 . S
N614 C609 1.328 . S
N614 C613 1.315 . S
H615 C609 0.929 . S
H616 C613 0.930 . S
H617 C605 0.929 . S
H618 C607 0.929 . S
O619 Co594 2.351 . S
O619 C622 1.244 . S
O620 Co594 2.155 . S
O620 C622 1.240 . S
O621 Co594 2.096 . S
O621 C602 1.247 . S
C622 O619 1.244 . S
C622 O620 1.240 . S
H623 C597 0.931 . S
H624 C606 0.931 . S
H625 C610 0.929 . S
H626 C612 0.930 . S
Co627 N631 2.148 . S
Co627 N637 2.128 . S
Co627 N647 2.194 . S
Co627 O652 2.351 . S
Co627 O653 2.155 . S
Co627 O654 2.096 . S
C628 N631 1.301 . S
C628 N632 1.328 . S
C628 H633 0.930 . S
C629 C630 1.333 . S
C629 N631 1.317 . S
C629 H634 0.930 . S
C630 C629 1.333 . S
C630 N632 1.350 . S
C630 H656 0.931 . S
N631 Co627 2.148 . S
N631 C628 1.301 . S
N631 C629 1.317 . S
N632 C628 1.328 . S
N632 C630 1.350 . S
H633 C628 0.930 . S
H634 C629 0.930 . S
C635 O636 1.224 . S
C635 O654 1.247 . S
O636 C635 1.224 . S
N637 Co627 2.128 . S
N637 C638 1.355 . S
N637 C640 1.311 . S
C638 N637 1.355 . S
C638 C639 1.363 . S
C638 H650 0.929 . S
C639 C638 1.363 . S
C639 N641 1.375 . S
C639 H657 0.931 . S
C640 N637 1.311 . S
C640 N641 1.347 . S
C640 H651 0.929 . S
N641 C639 1.375 . S
N641 C640 1.347 . S
C642 C645 1.365 . S
C642 N647 1.328 . S
C642 H648 0.929 . S
C643 C644 1.362 . S
C643 C646 1.378 . S
C643 H658 0.929 . S
C644 C643 1.362 . S
C644 C645 1.366 . S
C645 C642 1.365 . S
C645 C644 1.366 . S
C645 H659 0.930 . S
C646 C643 1.378 . S
C646 N647 1.315 . S
C646 H649 0.930 . S
N647 Co627 2.194 . S
N647 C642 1.328 . S
N647 C646 1.315 . S
H648 C642 0.929 . S
H649 C646 0.930 . S
H650 C638 0.929 . S
H651 C640 0.929 . S
O652 Co627 2.351 . S
O652 C655 1.244 . S
O653 Co627 2.155 . S
O653 C655 1.240 . S
O654 Co627 2.096 . S
O654 C635 1.247 . S
C655 O652 1.244 . S
C655 O653 1.240 . S
H656 C630 0.931 . S
H657 C639 0.931 . S
H658 C643 0.929 . S
H659 C645 0.930 . S
Co660 N664 2.148 . S
Co660 N670 2.128 1_455 S
Co660 N680 2.194 . S
Co660 O685 2.351 . S
Co660 O686 2.155 . S
Co660 O687 2.096 . S
C661 N664 1.301 . S
C661 N665 1.328 . S
C661 H666 0.930 . S
C662 C663 1.333 . S
C662 N664 1.317 . S
C662 H667 0.930 . S
C663 C662 1.333 . S
C663 N665 1.350 . S
C663 H689 0.931 . S
N664 Co660 2.148 . S
N664 C661 1.301 . S
N664 C662 1.317 . S
N665 C661 1.328 . S
N665 C663 1.350 . S
H666 C661 0.930 . S
H667 C662 0.930 . S
C668 O669 1.224 . S
C668 O687 1.247 . S
O669 C668 1.224 . S
N670 Co660 2.128 1_655 S
N670 C671 1.355 . S
N670 C673 1.311 . S
C671 N670 1.355 . S
C671 C672 1.363 . S
C671 H683 0.929 . S
C672 C671 1.363 . S
C672 N674 1.375 . S
C672 H690 0.931 . S
C673 N670 1.311 . S
C673 N674 1.347 . S
C673 H684 0.929 . S
N674 C672 1.375 . S
N674 C673 1.347 . S
C675 C678 1.365 . S
C675 N680 1.328 . S
C675 H681 0.929 . S
C676 C677 1.362 . S
C676 C679 1.378 . S
C676 H691 0.929 . S
C677 C676 1.362 . S
C677 C678 1.366 . S
C678 C675 1.365 . S
C678 C677 1.366 . S
C678 H692 0.930 . S
C679 C676 1.378 . S
C679 N680 1.315 . S
C679 H682 0.930 . S
N680 Co660 2.194 . S
N680 C675 1.328 . S
N680 C679 1.315 . S
H681 C675 0.929 . S
H682 C679 0.930 . S
H683 C671 0.929 . S
H684 C673 0.929 . S
O685 Co660 2.351 . S
O685 C688 1.244 . S
O686 Co660 2.155 . S
O686 C688 1.240 . S
O687 Co660 2.096 . S
O687 C668 1.247 . S
C688 O685 1.244 . S
C688 O686 1.240 . S
H689 C663 0.931 . S
H690 C672 0.931 . S
H691 C676 0.929 . S
H692 C678 0.930 . S
Co693 N697 2.148 . S
Co693 N703 2.128 . S
Co693 N713 2.194 . S
Co693 O718 2.351 . S
Co693 O719 2.155 . S
Co693 O720 2.096 . S
C694 N697 1.301 . S
C694 N698 1.328 . S
C694 H699 0.930 . S
C695 C696 1.333 . S
C695 N697 1.317 . S
C695 H700 0.930 . S
C696 C695 1.333 . S
C696 N698 1.350 . S
C696 H722 0.931 . S
N697 Co693 2.148 . S
N697 C694 1.301 . S
N697 C695 1.317 . S
N698 C694 1.328 . S
N698 C696 1.350 . S
H699 C694 0.930 . S
H700 C695 0.930 . S
C701 O702 1.224 . S
C701 O720 1.247 . S
O702 C701 1.224 . S
N703 Co693 2.128 . S
N703 C704 1.355 . S
N703 C706 1.311 . S
C704 N703 1.355 . S
C704 C705 1.363 . S
C704 H716 0.929 . S
C705 C704 1.363 . S
C705 N707 1.375 . S
C705 H723 0.931 . S
C706 N703 1.311 . S
C706 N707 1.347 . S
C706 H717 0.929 . S
N707 C705 1.375 . S
N707 C706 1.347 . S
C708 C711 1.365 . S
C708 N713 1.328 . S
C708 H714 0.929 . S
C709 C710 1.362 . S
C709 C712 1.378 . S
C709 H724 0.929 . S
C710 C709 1.362 . S
C710 C711 1.366 . S
C711 C708 1.365 . S
C711 C710 1.366 . S
C711 H725 0.930 . S
C712 C709 1.378 . S
C712 N713 1.315 . S
C712 H715 0.930 . S
N713 Co693 2.194 . S
N713 C708 1.328 . S
N713 C712 1.315 . S
H714 C708 0.929 . S
H715 C712 0.930 . S
H716 C704 0.929 . S
H717 C706 0.929 . S
O718 Co693 2.351 . S
O718 C721 1.244 . S
O719 Co693 2.155 . S
O719 C721 1.240 . S
O720 Co693 2.096 . S
O720 C701 1.247 . S
C721 O718 1.244 . S
C721 O719 1.240 . S
H722 C696 0.931 . S
H723 C705 0.931 . S
H724 C709 0.929 . S
H725 C711 0.930 . S
Co726 N730 2.148 . S
Co726 N736 2.128 1_455 S
Co726 N746 2.194 . S
Co726 O751 2.351 . S
Co726 O752 2.155 . S
Co726 O753 2.096 . S
C727 N730 1.301 . S
C727 N731 1.328 . S
C727 H732 0.930 . S
C728 C729 1.333 . S
C728 N730 1.317 . S
C728 H733 0.930 . S
C729 C728 1.333 . S
C729 N731 1.350 . S
C729 H755 0.931 . S
N730 Co726 2.148 . S
N730 C727 1.301 . S
N730 C728 1.317 . S
N731 C727 1.328 . S
N731 C729 1.350 . S
H732 C727 0.930 . S
H733 C728 0.930 . S
C734 O735 1.224 . S
C734 O753 1.247 . S
O735 C734 1.224 . S
N736 Co726 2.128 1_655 S
N736 C737 1.355 . S
N736 C739 1.311 . S
C737 N736 1.355 . S
C737 C738 1.363 . S
C737 H749 0.929 . S
C738 C737 1.363 . S
C738 N740 1.375 . S
C738 H756 0.931 . S
C739 N736 1.311 . S
C739 N740 1.347 . S
C739 H750 0.929 . S
N740 C738 1.375 . S
N740 C739 1.347 . S
C741 C744 1.365 . S
C741 N746 1.328 . S
C741 H747 0.929 . S
C742 C743 1.362 . S
C742 C745 1.378 . S
C742 H757 0.929 . S
C743 C742 1.362 . S
C743 C744 1.366 . S
C744 C741 1.365 . S
C744 C743 1.366 . S
C744 H758 0.930 . S
C745 C742 1.378 . S
C745 N746 1.315 . S
C745 H748 0.930 . S
N746 Co726 2.194 . S
N746 C741 1.328 . S
N746 C745 1.315 . S
H747 C741 0.929 . S
H748 C745 0.930 . S
H749 C737 0.929 . S
H750 C739 0.929 . S
O751 Co726 2.351 . S
O751 C754 1.244 . S
O752 Co726 2.155 . S
O752 C754 1.240 . S
O753 Co726 2.096 . S
O753 C734 1.247 . S
C754 O751 1.244 . S
C754 O752 1.240 . S
H755 C729 0.931 . S
H756 C738 0.931 . S
H757 C742 0.929 . S
H758 C744 0.930 . S
Co759 N763 2.148 . S
Co759 N769 2.128 . S
Co759 N779 2.194 . S
Co759 O784 2.351 . S
Co759 O785 2.155 . S
Co759 O786 2.096 . S
C760 N763 1.301 . S
C760 N764 1.328 . S
C760 H765 0.930 . S
C761 C762 1.333 . S
C761 N763 1.317 . S
C761 H766 0.930 . S
C762 C761 1.333 . S
C762 N764 1.350 . S
C762 H788 0.931 . S
N763 Co759 2.148 . S
N763 C760 1.301 . S
N763 C761 1.317 . S
N764 C760 1.328 . S
N764 C762 1.350 . S
H765 C760 0.930 . S
H766 C761 0.930 . S
C767 O768 1.224 . S
C767 O786 1.247 . S
O768 C767 1.224 . S
N769 Co759 2.128 . S
N769 C770 1.355 . S
N769 C772 1.311 . S
C770 N769 1.355 . S
C770 C771 1.363 . S
C770 H782 0.929 . S
C771 C770 1.363 . S
C771 N773 1.375 . S
C771 H789 0.931 . S
C772 N769 1.311 . S
C772 N773 1.347 . S
C772 H783 0.929 . S
N773 C771 1.375 . S
N773 C772 1.347 . S
C774 C777 1.365 . S
C774 N779 1.328 . S
C774 H780 0.929 . S
C775 C776 1.362 . S
C775 C778 1.378 . S
C775 H790 0.929 . S
C776 C775 1.362 . S
C776 C777 1.366 . S
C777 C774 1.365 . S
C777 C776 1.366 . S
C777 H791 0.930 . S
C778 C775 1.378 . S
C778 N779 1.315 . S
C778 H781 0.930 . S
N779 Co759 2.194 . S
N779 C774 1.328 . S
N779 C778 1.315 . S
H780 C774 0.929 . S
H781 C778 0.930 . S
H782 C770 0.929 . S
H783 C772 0.929 . S
O784 Co759 2.351 . S
O784 C787 1.244 . S
O785 Co759 2.155 . S
O785 C787 1.240 . S
O786 Co759 2.096 . S
O786 C767 1.247 . S
C787 O784 1.244 . S
C787 O785 1.240 . S
H788 C762 0.931 . S
H789 C771 0.931 . S
H790 C775 0.929 . S
H791 C777 0.930 . S
Co792 N796 2.148 . S
Co792 N802 2.128 1_655 S
Co792 N812 2.194 . S
Co792 O817 2.351 . S
Co792 O818 2.155 . S
Co792 O819 2.096 . S
C793 N796 1.301 . S
C793 N797 1.328 . S
C793 H798 0.930 . S
C794 C795 1.333 . S
C794 N796 1.317 . S
C794 H799 0.930 . S
C795 C794 1.333 . S
C795 N797 1.350 . S
C795 H821 0.910 1_554 S
N796 Co792 2.148 . S
N796 C793 1.301 . S
N796 C794 1.317 . S
N797 C793 1.328 . S
N797 C795 1.350 . S
H798 C793 0.930 . S
H799 C794 0.930 . S
C800 O801 1.224 . S
C800 O819 1.247 . S
O801 C800 1.224 . S
N802 Co792 2.128 1_455 S
N802 C803 1.355 . S
N802 C805 1.311 . S
C803 N802 1.355 . S
C803 C804 1.363 . S
C803 H815 0.929 . S
C804 C803 1.363 . S
C804 N806 1.375 . S
C804 H822 0.931 . S
C805 N802 1.311 . S
C805 N806 1.347 . S
C805 H816 0.929 . S
N806 C804 1.375 . S
N806 C805 1.347 . S
C807 C810 1.365 . S
C807 N812 1.328 . S
C807 H813 0.929 . S
C808 C809 1.362 . S
C808 C811 1.378 . S
C808 H823 0.929 . S
C809 C808 1.362 . S
C809 C810 1.366 . S
C810 C807 1.365 . S
C810 C809 1.366 . S
C810 H824 0.930 . S
C811 C808 1.378 . S
C811 N812 1.315 . S
C811 H814 0.930 . S
N812 Co792 2.194 . S
N812 C807 1.328 . S
N812 C811 1.315 . S
H813 C807 0.929 . S
H814 C811 0.930 . S
H815 C803 0.929 . S
H816 C805 0.929 . S
O817 Co792 2.351 . S
O817 C820 1.244 . S
O818 Co792 2.155 . S
O818 C820 1.240 . S
O819 Co792 2.096 . S
O819 C800 1.247 . S
C820 O817 1.244 . S
C820 O818 1.240 . S
H821 C795 0.910 1_556 S
H822 C804 0.931 . S
H823 C808 0.929 . S
H824 C810 0.930 . S
Co825 N829 2.148 . S
Co825 N835 2.128 . S
Co825 N845 2.194 . S
Co825 O850 2.351 . S
Co825 O851 2.155 . S
Co825 O852 2.096 . S
C826 N829 1.301 . S
C826 N830 1.328 . S
C826 H831 0.930 . S
C827 C828 1.333 . S
C827 N829 1.317 . S
C827 H832 0.930 . S
C828 C827 1.333 . S
C828 N830 1.350 . S
C828 H854 0.910 1_554 S
N829 Co825 2.148 . S
N829 C826 1.301 . S
N829 C827 1.317 . S
N830 C826 1.328 . S
N830 C828 1.350 . S
H831 C826 0.930 . S
H832 C827 0.930 . S
C833 O834 1.224 . S
C833 O852 1.247 . S
O834 C833 1.224 . S
N835 Co825 2.128 . S
N835 C836 1.355 . S
N835 C838 1.311 . S
C836 N835 1.355 . S
C836 C837 1.363 . S
C836 H848 0.929 . S
C837 C836 1.363 . S
C837 N839 1.375 . S
C837 H855 0.931 . S
C838 N835 1.311 . S
C838 N839 1.347 . S
C838 H849 0.929 . S
N839 C837 1.375 . S
N839 C838 1.347 . S
C840 C843 1.365 . S
C840 N845 1.328 . S
C840 H846 0.929 . S
C841 C842 1.362 . S
C841 C844 1.378 . S
C841 H856 0.929 . S
C842 C841 1.362 . S
C842 C843 1.366 . S
C843 C840 1.365 . S
C843 C842 1.366 . S
C843 H857 0.930 . S
C844 C841 1.378 . S
C844 N845 1.315 . S
C844 H847 0.930 . S
N845 Co825 2.194 . S
N845 C840 1.328 . S
N845 C844 1.315 . S
H846 C840 0.929 . S
H847 C844 0.930 . S
H848 C836 0.929 . S
H849 C838 0.929 . S
O850 Co825 2.351 . S
O850 C853 1.244 . S
O851 Co825 2.155 . S
O851 C853 1.240 . S
O852 Co825 2.096 . S
O852 C833 1.247 . S
C853 O850 1.244 . S
C853 O851 1.240 . S
H854 C828 0.910 1_556 S
H855 C837 0.931 . S
H856 C841 0.929 . S
H857 C843 0.930 . S
Co858 N862 2.148 . S
Co858 N868 2.128 1_655 S
Co858 N878 2.194 . S
Co858 O883 2.351 . S
Co858 O884 2.155 . S
Co858 O885 2.096 . S
C859 N862 1.301 . S
C859 N863 1.328 . S
C859 H864 0.930 . S
C860 C861 1.333 . S
C860 N862 1.317 . S
C860 H865 0.930 . S
C861 C860 1.333 . S
C861 N863 1.350 . S
C861 H887 0.931 . S
N862 Co858 2.148 . S
N862 C859 1.301 . S
N862 C860 1.317 . S
N863 C859 1.328 . S
N863 C861 1.350 . S
H864 C859 0.930 . S
H865 C860 0.930 . S
C866 O867 1.224 . S
C866 O885 1.247 . S
O867 C866 1.224 . S
N868 Co858 2.128 1_455 S
N868 C869 1.355 . S
N868 C871 1.311 . S
C869 N868 1.355 . S
C869 C870 1.363 . S
C869 H881 0.929 . S
C870 C869 1.363 . S
C870 N872 1.375 . S
C870 H888 0.931 . S
C871 N868 1.311 . S
C871 N872 1.347 . S
C871 H882 0.929 . S
N872 C870 1.375 . S
N872 C871 1.347 . S
C873 C876 1.365 . S
C873 N878 1.328 . S
C873 H879 0.929 . S
C874 C875 1.362 . S
C874 C877 1.378 . S
C874 H889 0.929 . S
C875 C874 1.362 . S
C875 C876 1.366 . S
C876 C873 1.365 . S
C876 C875 1.366 . S
C876 H890 0.930 . S
C877 C874 1.378 . S
C877 N878 1.315 . S
C877 H880 0.930 . S
N878 Co858 2.194 . S
N878 C873 1.328 . S
N878 C877 1.315 . S
H879 C873 0.929 . S
H880 C877 0.930 . S
H881 C869 0.929 . S
H882 C871 0.929 . S
O883 Co858 2.351 . S
O883 C886 1.244 . S
O884 Co858 2.155 . S
O884 C886 1.240 . S
O885 Co858 2.096 . S
O885 C866 1.247 . S
C886 O883 1.244 . S
C886 O884 1.240 . S
H887 C861 0.931 . S
H888 C870 0.931 . S
H889 C874 0.929 . S
H890 C876 0.930 . S
Co891 N895 2.148 . S
Co891 N901 2.128 . S
Co891 N911 2.194 . S
Co891 O916 2.351 . S
Co891 O917 2.155 . S
Co891 O918 2.096 . S
C892 N895 1.301 . S
C892 N896 1.328 . S
C892 H897 0.930 . S
C893 C894 1.333 . S
C893 N895 1.317 . S
C893 H898 0.930 . S
C894 C893 1.333 . S
C894 N896 1.350 . S
C894 H920 0.931 . S
N895 Co891 2.148 . S
N895 C892 1.301 . S
N895 C893 1.317 . S
N896 C892 1.328 . S
N896 C894 1.350 . S
H897 C892 0.930 . S
H898 C893 0.930 . S
C899 O900 1.224 . S
C899 O918 1.247 . S
O900 C899 1.224 . S
N901 Co891 2.128 . S
N901 C902 1.355 . S
N901 C904 1.311 . S
C902 N901 1.355 . S
C902 C903 1.363 . S
C902 H914 0.929 . S
C903 C902 1.363 . S
C903 N905 1.375 . S
C903 H921 0.931 . S
C904 N901 1.311 . S
C904 N905 1.347 . S
C904 H915 0.929 . S
N905 C903 1.375 . S
N905 C904 1.347 . S
C906 C909 1.365 . S
C906 N911 1.328 . S
C906 H912 0.929 . S
C907 C908 1.362 . S
C907 C910 1.378 . S
C907 H922 0.929 . S
C908 C907 1.362 . S
C908 C909 1.366 . S
C909 C906 1.365 . S
C909 C908 1.366 . S
C909 H923 0.930 . S
C910 C907 1.378 . S
C910 N911 1.315 . S
C910 H913 0.930 . S
N911 Co891 2.194 . S
N911 C906 1.328 . S
N911 C910 1.315 . S
H912 C906 0.929 . S
H913 C910 0.930 . S
H914 C902 0.929 . S
H915 C904 0.929 . S
O916 Co891 2.351 . S
O916 C919 1.244 . S
O917 Co891 2.155 . S
O917 C919 1.240 . S
O918 Co891 2.096 . S
O918 C899 1.247 . S
C919 O916 1.244 . S
C919 O917 1.240 . S
H920 C894 0.931 . S
H921 C903 0.931 . S
H922 C907 0.929 . S
H923 C909 0.930 . S
Co924 N928 2.148 . S
Co924 N934 2.128 1_455 S
Co924 N944 2.194 . S
Co924 O949 2.351 . S
Co924 O950 2.155 . S
Co924 O951 2.096 . S
C925 N928 1.301 . S
C925 N929 1.328 . S
C925 H930 0.930 . S
C926 C927 1.333 . S
C926 N928 1.317 . S
C926 H931 0.930 . S
C927 C926 1.333 . S
C927 N929 1.350 . S
C927 H953 0.911 1_556 S
N928 Co924 2.148 . S
N928 C925 1.301 . S
N928 C926 1.317 . S
N929 C925 1.328 . S
N929 C927 1.350 . S
H930 C925 0.930 . S
H931 C926 0.930 . S
C932 O933 1.224 . S
C932 O951 1.247 . S
O933 C932 1.224 . S
N934 Co924 2.128 1_655 S
N934 C935 1.355 . S
N934 C937 1.311 . S
C935 N934 1.355 . S
C935 C936 1.363 . S
C935 H947 0.929 . S
C936 C935 1.363 . S
C936 N938 1.375 . S
C936 H954 0.931 . S
C937 N934 1.311 . S
C937 N938 1.347 . S
C937 H948 0.929 . S
N938 C936 1.375 . S
N938 C937 1.347 . S
C939 C942 1.365 . S
C939 N944 1.328 . S
C939 H945 0.929 . S
C940 C941 1.362 . S
C940 C943 1.378 . S
C940 H955 0.929 . S
C941 C940 1.362 . S
C941 C942 1.366 . S
C942 C939 1.365 . S
C942 C941 1.366 . S
C942 H956 0.930 . S
C943 C940 1.378 . S
C943 N944 1.315 . S
C943 H946 0.930 . S
N944 Co924 2.194 . S
N944 C939 1.328 . S
N944 C943 1.315 . S
H945 C939 0.929 . S
H946 C943 0.930 . S
H947 C935 0.929 . S
H948 C937 0.929 . S
O949 Co924 2.351 . S
O949 C952 1.244 . S
O950 Co924 2.155 . S
O950 C952 1.240 . S
O951 Co924 2.096 . S
O951 C932 1.247 . S
C952 O949 1.244 . S
C952 O950 1.240 . S
H953 C927 0.911 1_554 S
H954 C936 0.931 . S
H955 C940 0.929 . S
H956 C942 0.930 . S
Co957 N961 2.148 . S
Co957 N967 2.128 . S
Co957 N977 2.194 . S
Co957 O982 2.351 . S
Co957 O983 2.155 . S
Co957 O984 2.096 . S
C958 N961 1.301 . S
C958 N962 1.328 . S
C958 H963 0.930 . S
C959 C960 1.333 . S
C959 N961 1.317 . S
C959 H964 0.930 . S
C960 C959 1.333 . S
C960 N962 1.350 . S
C960 H986 0.910 1_556 S
N961 Co957 2.148 . S
N961 C958 1.301 . S
N961 C959 1.317 . S
N962 C958 1.328 . S
N962 C960 1.350 . S
H963 C958 0.930 . S
H964 C959 0.930 . S
C965 O966 1.224 . S
C965 O984 1.247 . S
O966 C965 1.224 . S
N967 Co957 2.128 . S
N967 C968 1.355 . S
N967 C970 1.311 . S
C968 N967 1.355 . S
C968 C969 1.363 . S
C968 H980 0.929 . S
C969 C968 1.363 . S
C969 N971 1.375 . S
C969 H987 0.931 . S
C970 N967 1.311 . S
C970 N971 1.347 . S
C970 H981 0.929 . S
N971 C969 1.375 . S
N971 C970 1.347 . S
C972 C975 1.365 . S
C972 N977 1.328 . S
C972 H978 0.929 . S
C973 C974 1.362 . S
C973 C976 1.378 . S
C973 H988 0.929 . S
C974 C973 1.362 . S
C974 C975 1.366 . S
C975 C972 1.365 . S
C975 C974 1.366 . S
C975 H989 0.930 . S
C976 C973 1.378 . S
C976 N977 1.315 . S
C976 H979 0.930 . S
N977 Co957 2.194 . S
N977 C972 1.328 . S
N977 C976 1.315 . S
H978 C972 0.929 . S
H979 C976 0.930 . S
H980 C968 0.929 . S
H981 C970 0.929 . S
O982 Co957 2.351 . S
O982 C985 1.244 . S
O983 Co957 2.155 . S
O983 C985 1.240 . S
O984 Co957 2.096 . S
O984 C965 1.247 . S
C985 O982 1.244 . S
C985 O983 1.240 . S
H986 C960 0.910 1_554 S
H987 C969 0.931 . S
H988 C973 0.929 . S
H989 C975 0.930 . S
Co990 N994 2.148 . S
Co990 N1000 2.128 1_455 S
Co990 N1010 2.194 . S
Co990 O1015 2.351 . S
Co990 O1016 2.155 . S
Co990 O1017 2.096 . S
C991 N994 1.301 . S
C991 N995 1.328 . S
C991 H996 0.930 . S
C992 C993 1.333 . S
C992 N994 1.317 . S
C992 H997 0.930 . S
C993 C992 1.333 . S
C993 N995 1.350 . S
C993 H1019 0.931 . S
N994 Co990 2.148 . S
N994 C991 1.301 . S
N994 C992 1.317 . S
N995 C991 1.328 . S
N995 C993 1.350 . S
H996 C991 0.930 . S
H997 C992 0.930 . S
C998 O999 1.224 . S
C998 O1017 1.247 . S
O999 C998 1.224 . S
N1000 Co990 2.128 1_655 S
N1000 C1001 1.355 . S
N1000 C1003 1.311 . S
C1001 N1000 1.355 . S
C1001 C1002 1.363 . S
C1001 H1013 0.929 . S
C1002 C1001 1.363 . S
C1002 N1004 1.375 . S
C1002 H1020 0.931 . S
C1003 N1000 1.311 . S
C1003 N1004 1.347 . S
C1003 H1014 0.929 . S
N1004 C1002 1.375 . S
N1004 C1003 1.347 . S
C1005 C1008 1.365 . S
C1005 N1010 1.328 . S
C1005 H1011 0.929 . S
C1006 C1007 1.362 . S
C1006 C1009 1.378 . S
C1006 H1021 0.929 . S
C1007 C1006 1.362 . S
C1007 C1008 1.366 . S
C1008 C1005 1.365 . S
C1008 C1007 1.366 . S
C1008 H1022 0.930 . S
C1009 C1006 1.378 . S
C1009 N1010 1.315 . S
C1009 H1012 0.930 . S
N1010 Co990 2.194 . S
N1010 C1005 1.328 . S
N1010 C1009 1.315 . S
H1011 C1005 0.929 . S
H1012 C1009 0.930 . S
H1013 C1001 0.929 . S
H1014 C1003 0.929 . S
O1015 Co990 2.351 . S
O1015 C1018 1.244 . S
O1016 Co990 2.155 . S
O1016 C1018 1.240 . S
O1017 Co990 2.096 . S
O1017 C998 1.247 . S
C1018 O1015 1.244 . S
C1018 O1016 1.240 . S
H1019 C993 0.931 . S
H1020 C1002 0.931 . S
H1021 C1006 0.929 . S
H1022 C1008 0.930 . S
Co1023 N1027 2.148 . S
Co1023 N1033 2.128 . S
Co1023 N1043 2.194 . S
Co1023 O1048 2.351 . S
Co1023 O1049 2.155 . S
Co1023 O1050 2.096 . S
C1024 N1027 1.301 . S
C1024 N1028 1.328 . S
C1024 H1029 0.930 . S
C1025 C1026 1.333 . S
C1025 N1027 1.317 . S
C1025 H1030 0.930 . S
C1026 C1025 1.333 . S
C1026 N1028 1.350 . S
C1026 H1052 0.931 . S
N1027 Co1023 2.148 . S
N1027 C1024 1.301 . S
N1027 C1025 1.317 . S
N1028 C1024 1.328 . S
N1028 C1026 1.350 . S
H1029 C1024 0.930 . S
H1030 C1025 0.930 . S
C1031 O1032 1.224 . S
C1031 O1050 1.247 . S
O1032 C1031 1.224 . S
N1033 Co1023 2.128 . S
N1033 C1034 1.355 . S
N1033 C1036 1.311 . S
C1034 N1033 1.355 . S
C1034 C1035 1.363 . S
C1034 H1046 0.929 . S
C1035 C1034 1.363 . S
C1035 N1037 1.375 . S
C1035 H1053 0.931 . S
C1036 N1033 1.311 . S
C1036 N1037 1.347 . S
C1036 H1047 0.929 . S
N1037 C1035 1.375 . S
N1037 C1036 1.347 . S
C1038 C1041 1.365 . S
C1038 N1043 1.328 . S
C1038 H1044 0.929 . S
C1039 C1040 1.362 . S
C1039 C1042 1.378 . S
C1039 H1054 0.929 . S
C1040 C1039 1.362 . S
C1040 C1041 1.366 . S
C1041 C1038 1.365 . S
C1041 C1040 1.366 . S
C1041 H1055 0.930 . S
C1042 C1039 1.378 . S
C1042 N1043 1.315 . S
C1042 H1045 0.930 . S
N1043 Co1023 2.194 . S
N1043 C1038 1.328 . S
N1043 C1042 1.315 . S
H1044 C1038 0.929 . S
H1045 C1042 0.930 . S
H1046 C1034 0.929 . S
H1047 C1036 0.929 . S
O1048 Co1023 2.351 . S
O1048 C1051 1.244 . S
O1049 Co1023 2.155 . S
O1049 C1051 1.240 . S
O1050 Co1023 2.096 . S
O1050 C1031 1.247 . S
C1051 O1048 1.244 . S
C1051 O1049 1.240 . S
H1052 C1026 0.931 . S
H1053 C1035 0.931 . S
H1054 C1039 0.929 . S
H1055 C1041 0.930 . S
C1056 C1057 1.387 1_556 S
C1056 H1060 0.950 . S
C1056 C1065 1.390 1_545 S
C1057 C1056 1.387 1_554 S
C1057 C1059 1.387 . S
H1058 C1065 0.950 . S
C1059 C1057 1.387 . S
C1059 C1061 1.390 1_545 S
C1059 H1063 0.950 . S
H1060 C1056 0.950 . S
C1061 C1059 1.390 1_565 S
C1061 C1062 1.387 1_554 S
C1061 H1064 0.950 . S
C1062 C1061 1.387 1_556 S
C1062 C1065 1.387 . S
H1063 C1059 0.950 . S
H1064 C1061 0.950 . S
C1065 C1056 1.390 1_565 S
C1065 H1058 0.950 . S
C1065 C1062 1.387 . S
C1066 C1067 1.387 1_554 S
C1066 H1070 0.950 . S
C1066 C1075 1.390 . S
C1067 C1066 1.387 1_556 S
C1067 C1069 1.387 . S
H1068 C1075 0.950 . S
C1069 C1067 1.387 . S
C1069 C1071 1.390 . S
C1069 H1073 0.950 . S
H1070 C1066 0.950 . S
C1071 C1069 1.390 . S
C1071 C1072 1.387 1_556 S
C1071 H1074 0.950 . S
C1072 C1071 1.387 1_554 S
C1072 C1075 1.387 . S
H1073 C1069 0.950 . S
H1074 C1071 0.950 . S
C1075 C1066 1.390 . S
C1075 H1068 0.950 . S
C1075 C1072 1.387 . S
C1076 C1077 1.387 . S
C1076 H1080 0.950 . S
C1076 C1085 1.390 . S
C1077 C1076 1.387 . S
C1077 C1079 1.387 . S
H1078 C1085 0.950 . S
C1079 C1077 1.387 . S
C1079 C1081 1.390 . S
C1079 H1083 0.950 . S
H1080 C1076 0.950 . S
C1081 C1079 1.390 . S
C1081 C1082 1.387 . S
C1081 H1084 0.950 . S
C1082 C1081 1.387 . S
C1082 C1085 1.387 . S
H1083 C1079 0.950 . S
H1084 C1081 0.950 . S
C1085 C1076 1.390 . S
C1085 H1078 0.950 . S
C1085 C1082 1.387 . S
C1086 C1087 1.387 1_565 S
C1086 H1090 0.950 . S
C1086 C1095 1.390 . S
C1087 C1086 1.387 1_545 S
C1087 C1089 1.387 . S
H1088 C1095 0.950 . S
C1089 C1087 1.387 . S
C1089 C1091 1.390 . S
C1089 H1093 0.950 . S
H1090 C1086 0.950 . S
C1091 C1089 1.390 . S
C1091 C1092 1.387 1_545 S
C1091 H1094 0.950 . S
C1092 C1091 1.387 1_565 S
C1092 C1095 1.387 . S
H1093 C1089 0.950 . S
H1094 C1091 0.950 . S
C1095 C1086 1.390 . S
C1095 H1088 0.950 . S
C1095 C1092 1.387 . S
C1096 C1097 1.387 1_556 S
C1096 H1100 0.950 . S
C1096 C1105 1.390 . S
C1097 C1096 1.387 1_554 S
C1097 C1099 1.387 . S
H1098 C1105 0.950 . S
C1099 C1097 1.387 . S
C1099 C1101 1.390 . S
C1099 H1103 0.950 . S
H1100 C1096 0.950 . S
C1101 C1099 1.390 . S
C1101 C1102 1.387 1_554 S
C1101 H1104 0.950 . S
C1102 C1101 1.387 1_556 S
C1102 C1105 1.387 . S
H1103 C1099 0.950 . S
H1104 C1101 0.950 . S
C1105 C1096 1.390 . S
C1105 H1098 0.950 . S
C1105 C1102 1.387 . S
C1106 C1107 1.387 . S
C1106 H1110 0.950 . S
C1106 C1115 1.390 . S
C1107 C1106 1.387 . S
C1107 C1109 1.387 . S
H1108 C1115 0.950 . S
C1109 C1107 1.387 . S
C1109 C1111 1.390 . S
C1109 H1113 0.950 . S
H1110 C1106 0.950 . S
C1111 C1109 1.390 . S
C1111 C1112 1.387 . S
C1111 H1114 0.950 . S
C1112 C1111 1.387 . S
C1112 C1115 1.387 . S
H1113 C1109 0.950 . S
H1114 C1111 0.950 . S
C1115 C1106 1.390 . S
C1115 H1108 0.950 . S
C1115 C1112 1.387 . S
C1116 C1117 1.387 . S
C1116 H1120 0.950 . S
C1116 C1125 1.390 1_545 S
C1117 C1116 1.387 . S
C1117 C1119 1.387 . S
H1118 C1125 0.950 . S
C1119 C1117 1.387 . S
C1119 C1121 1.390 1_545 S
C1119 H1123 0.950 . S
H1120 C1116 0.950 . S
C1121 C1119 1.390 1_565 S
C1121 C1122 1.387 . S
C1121 H1124 0.950 . S
C1122 C1121 1.387 . S
C1122 C1125 1.387 . S
H1123 C1119 0.950 . S
H1124 C1121 0.950 . S
C1125 C1116 1.390 1_565 S
C1125 H1118 0.950 . S
C1125 C1122 1.387 . S
C1126 C1127 1.387 . S
C1126 H1130 0.950 . S
C1126 C1135 1.390 . S
C1127 C1126 1.387 . S
C1127 C1129 1.387 . S
H1128 C1135 0.950 . S
C1129 C1127 1.387 . S
C1129 C1131 1.390 . S
C1129 H1133 0.950 . S
H1130 C1126 0.950 . S
C1131 C1129 1.390 . S
C1131 C1132 1.387 . S
C1131 H1134 0.950 . S
C1132 C1131 1.387 . S
C1132 C1135 1.387 . S
H1133 C1129 0.950 . S
H1134 C1131 0.950 . S
C1135 C1126 1.390 . S
C1135 H1128 0.950 . S
C1135 C1132 1.387 . S
C1136 C1137 1.387 . S
C1136 H1140 0.950 . S
C1136 C1145 1.390 . S
C1137 C1136 1.387 . S
C1137 C1139 1.387 . S
H1138 C1145 0.950 . S
C1139 C1137 1.387 . S
C1139 C1141 1.390 . S
C1139 H1143 0.950 . S
H1140 C1136 0.950 . S
C1141 C1139 1.390 . S
C1141 C1142 1.387 . S
C1141 H1144 0.950 . S
C1142 C1141 1.387 . S
C1142 C1145 1.387 . S
H1143 C1139 0.950 . S
H1144 C1141 0.950 . S
C1145 C1136 1.390 . S
C1145 H1138 0.950 . S
C1145 C1142 1.387 . S
C1146 C1147 1.387 . S
C1146 H1150 0.950 . S
C1146 C1155 1.390 . S
C1147 C1146 1.387 . S
C1147 C1149 1.387 . S
H1148 C1155 0.950 . S
C1149 C1147 1.387 . S
C1149 C1151 1.390 . S
C1149 H1153 0.950 . S
H1150 C1146 0.950 . S
C1151 C1149 1.390 . S
C1151 C1152 1.387 . S
C1151 H1154 0.950 . S
C1152 C1151 1.387 . S
C1152 C1155 1.387 . S
H1153 C1149 0.950 . S
H1154 C1151 0.950 . S
C1155 C1146 1.390 . S
C1155 H1148 0.950 . S
C1155 C1152 1.387 . S
C1156 C1157 1.387 . S
C1156 H1160 0.950 . S
C1156 C1165 1.390 . S
C1157 C1156 1.387 . S
C1157 C1159 1.387 . S
H1158 C1165 0.950 . S
C1159 C1157 1.387 . S
C1159 C1161 1.390 . S
C1159 H1163 0.950 . S
H1160 C1156 0.950 . S
C1161 C1159 1.390 . S
C1161 C1162 1.387 . S
C1161 H1164 0.950 . S
C1162 C1161 1.387 . S
C1162 C1165 1.387 . S
H1163 C1159 0.950 . S
H1164 C1161 0.950 . S
C1165 C1156 1.390 . S
C1165 H1158 0.950 . S
C1165 C1162 1.387 . S
C1166 C1167 1.387 . S
C1166 H1170 0.950 . S
C1166 C1175 1.390 . S
C1167 C1166 1.387 . S
C1167 C1169 1.387 . S
H1168 C1175 0.950 . S
C1169 C1167 1.387 . S
C1169 C1171 1.390 . S
C1169 H1173 0.950 . S
H1170 C1166 0.950 . S
C1171 C1169 1.390 . S
C1171 C1172 1.387 . S
C1171 H1174 0.950 . S
C1172 C1171 1.387 . S
C1172 C1175 1.387 . S
H1173 C1169 0.950 . S
H1174 C1171 0.950 . S
C1175 C1166 1.390 . S
C1175 H1168 0.950 . S
C1175 C1172 1.387 . S
C1176 C1177 1.387 1_545 S
C1176 H1180 0.950 . S
C1176 C1185 1.390 1_455 S
C1177 C1176 1.387 1_565 S
C1177 C1179 1.387 . S
H1178 C1185 0.950 . S
C1179 C1177 1.387 . S
C1179 C1181 1.390 1_455 S
C1179 H1183 0.950 . S
H1180 C1176 0.950 . S
C1181 C1179 1.390 1_655 S
C1181 C1182 1.387 1_565 S
C1181 H1184 0.950 . S
C1182 C1181 1.387 1_545 S
C1182 C1185 1.387 . S
H1183 C1179 0.950 . S
H1184 C1181 0.950 . S
C1185 C1176 1.390 1_655 S
C1185 H1178 0.950 . S
C1185 C1182 1.387 . S
C1186 C1187 1.387 . S
C1186 H1190 0.950 . S
C1186 C1195 1.390 1_455 S
C1187 C1186 1.387 . S
C1187 C1189 1.387 . S
H1188 C1195 0.950 . S
C1189 C1187 1.387 . S
C1189 C1191 1.390 1_455 S
C1189 H1193 0.950 . S
H1190 C1186 0.950 . S
C1191 C1189 1.390 1_655 S
C1191 C1192 1.387 . S
C1191 H1194 0.950 . S
C1192 C1191 1.387 . S
C1192 C1195 1.387 . S
H1193 C1189 0.950 . S
H1194 C1191 0.950 . S
C1195 C1186 1.390 1_655 S
C1195 H1188 0.950 . S
C1195 C1192 1.387 . S
C1196 C1197 1.387 1_655 S
C1196 H1200 0.950 . S
C1196 C1205 1.390 . S
C1197 C1196 1.387 1_455 S
C1197 C1199 1.387 . S
H1198 C1205 0.950 . S
C1199 C1197 1.387 . S
C1199 C1201 1.390 . S
C1199 H1203 0.950 . S
H1200 C1196 0.950 . S
C1201 C1199 1.390 . S
C1201 C1202 1.387 1_455 S
C1201 H1204 0.950 . S
C1202 C1201 1.387 1_655 S
C1202 C1205 1.387 . S
H1203 C1199 0.950 . S
H1204 C1201 0.950 . S
C1205 C1196 1.390 . S
C1205 H1198 0.950 . S
C1205 C1202 1.387 . S
C1206 C1207 1.387 1_554 S
C1206 H1210 0.950 . S
C1206 C1215 1.390 1_455 S
C1207 C1206 1.387 1_556 S
C1207 C1209 1.387 . S
H1208 C1215 0.950 . S
C1209 C1207 1.387 . S
C1209 C1211 1.390 1_455 S
C1209 H1213 0.950 . S
H1210 C1206 0.950 . S
C1211 C1209 1.390 1_655 S
C1211 C1212 1.387 1_556 S
C1211 H1214 0.950 . S
C1212 C1211 1.387 1_554 S
C1212 C1215 1.387 . S
H1213 C1209 0.950 . S
H1214 C1211 0.950 . S
C1215 C1206 1.390 1_655 S
C1215 H1208 0.950 . S
C1215 C1212 1.387 . S
C1216 C1217 1.387 . S
C1216 H1220 0.950 . S
C1216 C1225 1.390 . S
C1217 C1216 1.387 . S
C1217 C1219 1.387 . S
H1218 C1225 0.950 . S
C1219 C1217 1.387 . S
C1219 C1221 1.390 . S
C1219 H1223 0.950 . S
H1220 C1216 0.950 . S
C1221 C1219 1.390 . S
C1221 C1222 1.387 . S
C1221 H1224 0.950 . S
C1222 C1221 1.387 . S
C1222 C1225 1.387 . S
H1223 C1219 0.950 . S
H1224 C1221 0.950 . S
C1225 C1216 1.390 . S
C1225 H1218 0.950 . S
C1225 C1222 1.387 . S
C1226 C1227 1.387 . S
C1226 H1230 0.950 . S
C1226 C1235 1.390 . S
C1227 C1226 1.387 . S
C1227 C1229 1.387 . S
H1228 C1235 0.950 . S
C1229 C1227 1.387 . S
C1229 C1231 1.390 . S
C1229 H1233 0.950 . S
H1230 C1226 0.950 . S
C1231 C1229 1.390 . S
C1231 C1232 1.387 . S
C1231 H1234 0.950 . S
C1232 C1231 1.387 . S
C1232 C1235 1.387 . S
H1233 C1229 0.950 . S
H1234 C1231 0.950 . S
C1235 C1226 1.390 . S
C1235 H1228 0.950 . S
C1235 C1232 1.387 . S
C1236 C1237 1.387 . S
C1236 H1240 0.950 . S
C1236 C1245 1.390 . S
C1237 C1236 1.387 . S
C1237 C1239 1.387 . S
H1238 C1245 0.950 . S
C1239 C1237 1.387 . S
C1239 C1241 1.390 . S
C1239 H1243 0.950 . S
H1240 C1236 0.950 . S
C1241 C1239 1.390 . S
C1241 C1242 1.387 . S
C1241 H1244 0.950 . S
C1242 C1241 1.387 . S
C1242 C1245 1.387 . S
H1243 C1239 0.950 . S
H1244 C1241 0.950 . S
C1245 C1236 1.390 . S
C1245 H1238 0.950 . S
C1245 C1242 1.387 . S
C1246 C1247 1.387 . S
C1246 H1250 0.950 . S
C1246 C1255 1.390 . S
C1247 C1246 1.387 . S
C1247 C1249 1.387 . S
H1248 C1255 0.950 . S
C1249 C1247 1.387 . S
C1249 C1251 1.390 . S
C1249 H1253 0.950 . S
H1250 C1246 0.950 . S
C1251 C1249 1.390 . S
C1251 C1252 1.387 . S
C1251 H1254 0.950 . S
C1252 C1251 1.387 . S
C1252 C1255 1.387 . S
H1253 C1249 0.950 . S
H1254 C1251 0.950 . S
C1255 C1246 1.390 . S
C1255 H1248 0.950 . S
C1255 C1252 1.387 . S
C1256 C1257 1.387 . S
C1256 H1260 0.950 . S
C1256 C1265 1.390 . S
C1257 C1256 1.387 . S
C1257 C1259 1.387 . S
H1258 C1265 0.950 . S
C1259 C1257 1.387 . S
C1259 C1261 1.390 . S
C1259 H1263 0.950 . S
H1260 C1256 0.950 . S
C1261 C1259 1.390 . S
C1261 C1262 1.387 . S
C1261 H1264 0.950 . S
C1262 C1261 1.387 . S
C1262 C1265 1.387 . S
H1263 C1259 0.950 . S
H1264 C1261 0.950 . S
C1265 C1256 1.390 . S
C1265 H1258 0.950 . S
C1265 C1262 1.387 . S
C1266 C1267 1.387 . S
C1266 H1270 0.950 . S
C1266 C1275 1.390 . S
C1267 C1266 1.387 . S
C1267 C1269 1.387 . S
H1268 C1275 0.950 . S
C1269 C1267 1.387 . S
C1269 C1271 1.390 . S
C1269 H1273 0.950 . S
H1270 C1266 0.950 . S
C1271 C1269 1.390 . S
C1271 C1272 1.387 . S
C1271 H1274 0.950 . S
C1272 C1271 1.387 . S
C1272 C1275 1.387 . S
H1273 C1269 0.950 . S
H1274 C1271 0.950 . S
C1275 C1266 1.390 . S
C1275 H1268 0.950 . S
C1275 C1272 1.387 . S
C1276 C1277 1.387 . S
C1276 H1280 0.950 . S
C1276 C1285 1.390 . S
C1277 C1276 1.387 . S
C1277 C1279 1.387 . S
H1278 C1285 0.950 . S
C1279 C1277 1.387 . S
C1279 C1281 1.390 . S
C1279 H1283 0.950 . S
H1280 C1276 0.950 . S
C1281 C1279 1.390 . S
C1281 C1282 1.387 . S
C1281 H1284 0.950 . S
C1282 C1281 1.387 . S
C1282 C1285 1.387 . S
H1283 C1279 0.950 . S
H1284 C1281 0.950 . S
C1285 C1276 1.390 . S
C1285 H1278 0.950 . S
C1285 C1282 1.387 . S
C1286 C1287 1.387 . S
C1286 H1290 0.950 . S
C1286 C1295 1.390 . S
C1287 C1286 1.387 . S
C1287 C1289 1.387 . S
H1288 C1295 0.950 . S
C1289 C1287 1.387 . S
C1289 C1291 1.390 . S
C1289 H1293 0.950 . S
H1290 C1286 0.950 . S
C1291 C1289 1.390 . S
C1291 C1292 1.387 . S
C1291 H1294 0.950 . S
C1292 C1291 1.387 . S
C1292 C1295 1.387 . S
H1293 C1289 0.950 . S
H1294 C1291 0.950 . S
C1295 C1286 1.390 . S
C1295 H1288 0.950 . S
C1295 C1292 1.387 . S
C1296 C1297 1.387 . S
C1296 H1300 0.950 . S
C1296 C1305 1.390 . S
C1297 C1296 1.387 . S
C1297 C1299 1.387 . S
H1298 C1305 0.950 . S
C1299 C1297 1.387 . S
C1299 C1301 1.390 . S
C1299 H1303 0.950 . S
H1300 C1296 0.950 . S
C1301 C1299 1.390 . S
C1301 C1302 1.387 . S
C1301 H1304 0.950 . S
C1302 C1301 1.387 . S
C1302 C1305 1.387 . S
H1303 C1299 0.950 . S
H1304 C1301 0.950 . S
C1305 C1296 1.390 . S
C1305 H1298 0.950 . S
C1305 C1302 1.387 . S
C1306 C1307 1.387 . S
C1306 H1310 0.950 . S
C1306 C1315 1.390 . S
C1307 C1306 1.387 . S
C1307 C1309 1.387 . S
H1308 C1315 0.950 . S
C1309 C1307 1.387 . S
C1309 C1311 1.390 . S
C1309 H1313 0.950 . S
H1310 C1306 0.950 . S
C1311 C1309 1.390 . S
C1311 C1312 1.387 . S
C1311 H1314 0.950 . S
C1312 C1311 1.387 . S
C1312 C1315 1.387 . S
H1313 C1309 0.950 . S
H1314 C1311 0.950 . S
C1315 C1306 1.390 . S
C1315 H1308 0.950 . S
C1315 C1312 1.387 . S
C1316 C1317 1.387 . S
C1316 H1320 0.950 . S
C1316 C1325 1.390 . S
C1317 C1316 1.387 . S
C1317 C1319 1.387 . S
H1318 C1325 0.950 . S
C1319 C1317 1.387 . S
C1319 C1321 1.390 . S
C1319 H1323 0.950 . S
H1320 C1316 0.950 . S
C1321 C1319 1.390 . S
C1321 C1322 1.387 . S
C1321 H1324 0.950 . S
C1322 C1321 1.387 . S
C1322 C1325 1.387 . S
H1323 C1319 0.950 . S
H1324 C1321 0.950 . S
C1325 C1316 1.390 . S
C1325 H1318 0.950 . S
C1325 C1322 1.387 . S
C1326 C1327 1.387 . S
C1326 H1330 0.950 . S
C1326 C1335 1.390 . S
C1327 C1326 1.387 . S
C1327 C1329 1.387 . S
H1328 C1335 0.950 . S
C1329 C1327 1.387 . S
C1329 C1331 1.390 . S
C1329 H1333 0.950 . S
H1330 C1326 0.950 . S
C1331 C1329 1.390 . S
C1331 C1332 1.387 . S
C1331 H1334 0.950 . S
C1332 C1331 1.387 . S
C1332 C1335 1.387 . S
H1333 C1329 0.950 . S
H1334 C1331 0.950 . S
C1335 C1326 1.390 . S
C1335 H1328 0.950 . S
C1335 C1332 1.387 . S
C1336 C1337 1.387 . S
C1336 H1340 0.950 . S
C1336 C1345 1.390 . S
C1337 C1336 1.387 . S
C1337 C1339 1.387 . S
H1338 C1345 0.950 . S
C1339 C1337 1.387 . S
C1339 C1341 1.390 . S
C1339 H1343 0.950 . S
H1340 C1336 0.950 . S
C1341 C1339 1.390 . S
C1341 C1342 1.387 . S
C1341 H1344 0.950 . S
C1342 C1341 1.387 . S
C1342 C1345 1.387 . S
H1343 C1339 0.950 . S
H1344 C1341 0.950 . S
C1345 C1336 1.390 . S
C1345 H1338 0.950 . S
C1345 C1342 1.387 . S
C1346 C1347 1.387 . S
C1346 H1350 0.950 . S
C1346 C1355 1.390 . S
C1347 C1346 1.387 . S
C1347 C1349 1.387 . S
H1348 C1355 0.950 . S
C1349 C1347 1.387 . S
C1349 C1351 1.390 . S
C1349 H1353 0.950 . S
H1350 C1346 0.950 . S
C1351 C1349 1.390 . S
C1351 C1352 1.387 . S
C1351 H1354 0.950 . S
C1352 C1351 1.387 . S
C1352 C1355 1.387 . S
H1353 C1349 0.950 . S
H1354 C1351 0.950 . S
C1355 C1346 1.390 . S
C1355 H1348 0.950 . S
C1355 C1352 1.387 . S
C1356 C1357 1.387 . S
C1356 H1360 0.950 . S
C1356 C1365 1.390 . S
C1357 C1356 1.387 . S
C1357 C1359 1.387 . S
H1358 C1365 0.950 . S
C1359 C1357 1.387 . S
C1359 C1361 1.390 . S
C1359 H1363 0.950 . S
H1360 C1356 0.950 . S
C1361 C1359 1.390 . S
C1361 C1362 1.387 . S
C1361 H1364 0.950 . S
C1362 C1361 1.387 . S
C1362 C1365 1.387 . S
H1363 C1359 0.950 . S
H1364 C1361 0.950 . S
C1365 C1356 1.390 . S
C1365 H1358 0.950 . S
C1365 C1362 1.387 . S
C1366 C1367 1.387 . S
C1366 H1370 0.950 . S
C1366 C1375 1.390 . S
C1367 C1366 1.387 . S
C1367 C1369 1.387 . S
H1368 C1375 0.950 . S
C1369 C1367 1.387 . S
C1369 C1371 1.390 . S
C1369 H1373 0.950 . S
H1370 C1366 0.950 . S
C1371 C1369 1.390 . S
C1371 C1372 1.387 . S
C1371 H1374 0.950 . S
C1372 C1371 1.387 . S
C1372 C1375 1.387 . S
H1373 C1369 0.950 . S
H1374 C1371 0.950 . S
C1375 C1366 1.390 . S
C1375 H1368 0.950 . S
C1375 C1372 1.387 . S
C1376 C1377 1.387 . S
C1376 H1380 0.950 . S
C1376 C1385 1.390 . S
C1377 C1376 1.387 . S
C1377 C1379 1.387 . S
H1378 C1385 0.950 . S
C1379 C1377 1.387 . S
C1379 C1381 1.390 . S
C1379 H1383 0.950 . S
H1380 C1376 0.950 . S
C1381 C1379 1.390 . S
C1381 C1382 1.387 . S
C1381 H1384 0.950 . S
C1382 C1381 1.387 . S
C1382 C1385 1.387 . S
H1383 C1379 0.950 . S
H1384 C1381 0.950 . S
C1385 C1376 1.390 . S
C1385 H1378 0.950 . S
C1385 C1382 1.387 . S
C1386 C1387 1.387 . S
C1386 H1390 0.950 . S
C1386 C1395 1.390 . S
C1387 C1386 1.387 . S
C1387 C1389 1.387 . S
H1388 C1395 0.950 . S
C1389 C1387 1.387 . S
C1389 C1391 1.390 . S
C1389 H1393 0.950 . S
H1390 C1386 0.950 . S
C1391 C1389 1.390 . S
C1391 C1392 1.387 . S
C1391 H1394 0.950 . S
C1392 C1391 1.387 . S
C1392 C1395 1.387 . S
H1393 C1389 0.950 . S
H1394 C1391 0.950 . S
C1395 C1386 1.390 . S
C1395 H1388 0.950 . S
C1395 C1392 1.387 . S
C1396 C1397 1.387 . S
C1396 H1400 0.950 . S
C1396 C1405 1.390 . S
C1397 C1396 1.387 . S
C1397 C1399 1.387 . S
H1398 C1405 0.950 . S
C1399 C1397 1.387 . S
C1399 C1401 1.390 . S
C1399 H1403 0.950 . S
H1400 C1396 0.950 . S
C1401 C1399 1.390 . S
C1401 C1402 1.387 . S
C1401 H1404 0.950 . S
C1402 C1401 1.387 . S
C1402 C1405 1.387 . S
H1403 C1399 0.950 . S
H1404 C1401 0.950 . S
C1405 C1396 1.390 . S
C1405 H1398 0.950 . S
C1405 C1402 1.387 . S
C1406 C1407 1.387 . S
C1406 H1410 0.950 . S
C1406 C1415 1.390 . S
C1407 C1406 1.387 . S
C1407 C1409 1.387 . S
H1408 C1415 0.950 . S
C1409 C1407 1.387 . S
C1409 C1411 1.390 . S
C1409 H1413 0.950 . S
H1410 C1406 0.950 . S
C1411 C1409 1.390 . S
C1411 C1412 1.387 . S
C1411 H1414 0.950 . S
C1412 C1411 1.387 . S
C1412 C1415 1.387 . S
H1413 C1409 0.950 . S
H1414 C1411 0.950 . S
C1415 C1406 1.390 . S
C1415 H1408 0.950 . S
C1415 C1412 1.387 . S
C1416 C1417 1.387 . S
C1416 H1420 0.950 . S
C1416 C1425 1.390 . S
C1417 C1416 1.387 . S
C1417 C1419 1.387 . S
H1418 C1425 0.950 . S
C1419 C1417 1.387 . S
C1419 C1421 1.390 . S
C1419 H1423 0.950 . S
H1420 C1416 0.950 . S
C1421 C1419 1.390 . S
C1421 C1422 1.387 . S
C1421 H1424 0.950 . S
C1422 C1421 1.387 . S
C1422 C1425 1.387 . S
H1423 C1419 0.950 . S
H1424 C1421 0.950 . S
C1425 C1416 1.390 . S
C1425 H1418 0.950 . S
C1425 C1422 1.387 . S
C1426 C1427 1.387 . S
C1426 H1430 0.950 . S
C1426 C1435 1.390 . S
C1427 C1426 1.387 . S
C1427 C1429 1.387 . S
H1428 C1435 0.950 . S
C1429 C1427 1.387 . S
C1429 C1431 1.390 . S
C1429 H1433 0.950 . S
H1430 C1426 0.950 . S
C1431 C1429 1.390 . S
C1431 C1432 1.387 . S
C1431 H1434 0.950 . S
C1432 C1431 1.387 . S
C1432 C1435 1.387 . S
H1433 C1429 0.950 . S
H1434 C1431 0.950 . S
C1435 C1426 1.390 . S
C1435 H1428 0.950 . S
C1435 C1432 1.387 . S
C1436 C1437 1.387 . S
C1436 H1440 0.950 . S
C1436 C1445 1.390 . S
C1437 C1436 1.387 . S
C1437 C1439 1.387 . S
H1438 C1445 0.950 . S
C1439 C1437 1.387 . S
C1439 C1441 1.390 . S
C1439 H1443 0.950 . S
H1440 C1436 0.950 . S
C1441 C1439 1.390 . S
C1441 C1442 1.387 . S
C1441 H1444 0.950 . S
C1442 C1441 1.387 . S
C1442 C1445 1.387 . S
H1443 C1439 0.950 . S
H1444 C1441 0.950 . S
C1445 C1436 1.390 . S
C1445 H1438 0.950 . S
C1445 C1442 1.387 . S
C1446 C1447 1.387 . S
C1446 H1450 0.950 . S
C1446 C1455 1.390 . S
C1447 C1446 1.387 . S
C1447 C1449 1.387 . S
H1448 C1455 0.950 . S
C1449 C1447 1.387 . S
C1449 C1451 1.390 . S
C1449 H1453 0.950 . S
H1450 C1446 0.950 . S
C1451 C1449 1.390 . S
C1451 C1452 1.387 . S
C1451 H1454 0.950 . S
C1452 C1451 1.387 . S
C1452 C1455 1.387 . S
H1453 C1449 0.950 . S
H1454 C1451 0.950 . S
C1455 C1446 1.390 . S
C1455 H1448 0.950 . S
C1455 C1452 1.387 . S
C1456 C1457 1.387 . S
C1456 H1460 0.950 . S
C1456 C1465 1.390 . S
C1457 C1456 1.387 . S
C1457 C1459 1.387 . S
H1458 C1465 0.950 . S
C1459 C1457 1.387 . S
C1459 C1461 1.390 . S
C1459 H1463 0.950 . S
H1460 C1456 0.950 . S
C1461 C1459 1.390 . S
C1461 C1462 1.387 . S
C1461 H1464 0.950 . S
C1462 C1461 1.387 . S
C1462 C1465 1.387 . S
H1463 C1459 0.950 . S
H1464 C1461 0.950 . S
C1465 C1456 1.390 . S
C1465 H1458 0.950 . S
C1465 C1462 1.387 . S
C1466 C1467 1.387 . S
C1466 H1470 0.950 . S
C1466 C1475 1.390 . S
C1467 C1466 1.387 . S
C1467 C1469 1.387 . S
H1468 C1475 0.950 . S
C1469 C1467 1.387 . S
C1469 C1471 1.390 . S
C1469 H1473 0.950 . S
H1470 C1466 0.950 . S
C1471 C1469 1.390 . S
C1471 C1472 1.387 . S
C1471 H1474 0.950 . S
C1472 C1471 1.387 . S
C1472 C1475 1.387 . S
H1473 C1469 0.950 . S
H1474 C1471 0.950 . S
C1475 C1466 1.390 . S
C1475 H1468 0.950 . S
C1475 C1472 1.387 . S
C1476 C1477 1.387 . S
C1476 H1480 0.950 . S
C1476 C1485 1.390 . S
C1477 C1476 1.387 . S
C1477 C1479 1.387 . S
H1478 C1485 0.950 . S
C1479 C1477 1.387 . S
C1479 C1481 1.390 . S
C1479 H1483 0.950 . S
H1480 C1476 0.950 . S
C1481 C1479 1.390 . S
C1481 C1482 1.387 . S
C1481 H1484 0.950 . S
C1482 C1481 1.387 . S
C1482 C1485 1.387 . S
H1483 C1479 0.950 . S
H1484 C1481 0.950 . S
C1485 C1476 1.390 . S
C1485 H1478 0.950 . S
C1485 C1482 1.387 . S
C1486 C1487 1.387 . S
C1486 H1490 0.950 . S
C1486 C1495 1.390 . S
C1487 C1486 1.387 . S
C1487 C1489 1.387 . S
H1488 C1495 0.950 . S
C1489 C1487 1.387 . S
C1489 C1491 1.390 . S
C1489 H1493 0.950 . S
H1490 C1486 0.950 . S
C1491 C1489 1.390 . S
C1491 C1492 1.387 . S
C1491 H1494 0.950 . S
C1492 C1491 1.387 . S
C1492 C1495 1.387 . S
H1493 C1489 0.950 . S
H1494 C1491 0.950 . S
C1495 C1486 1.390 . S
C1495 H1488 0.950 . S
C1495 C1492 1.387 . S
C1496 C1497 1.387 . S
C1496 H1500 0.950 . S
C1496 C1505 1.390 . S
C1497 C1496 1.387 . S
C1497 C1499 1.387 . S
H1498 C1505 0.950 . S
C1499 C1497 1.387 . S
C1499 C1501 1.390 . S
C1499 H1503 0.950 . S
H1500 C1496 0.950 . S
C1501 C1499 1.390 . S
C1501 C1502 1.387 . S
C1501 H1504 0.950 . S
C1502 C1501 1.387 . S
C1502 C1505 1.387 . S
H1503 C1499 0.950 . S
H1504 C1501 0.950 . S
C1505 C1496 1.390 . S
C1505 H1498 0.950 . S
C1505 C1502 1.387 . S
C1506 C1507 1.387 . S
C1506 H1510 0.950 . S
C1506 C1515 1.390 . S
C1507 C1506 1.387 . S
C1507 C1509 1.387 . S
H1508 C1515 0.950 . S
C1509 C1507 1.387 . S
C1509 C1511 1.390 . S
C1509 H1513 0.950 . S
H1510 C1506 0.950 . S
C1511 C1509 1.390 . S
C1511 C1512 1.387 . S
C1511 H1514 0.950 . S
C1512 C1511 1.387 . S
C1512 C1515 1.387 . S
H1513 C1509 0.950 . S
H1514 C1511 0.950 . S
C1515 C1506 1.390 . S
C1515 H1508 0.950 . S
C1515 C1512 1.387 . S
C1516 C1517 1.387 . S
C1516 H1520 0.950 . S
C1516 C1525 1.390 . S
C1517 C1516 1.387 . S
C1517 C1519 1.387 . S
H1518 C1525 0.950 . S
C1519 C1517 1.387 . S
C1519 C1521 1.390 . S
C1519 H1523 0.950 . S
H1520 C1516 0.950 . S
C1521 C1519 1.390 . S
C1521 C1522 1.387 . S
C1521 H1524 0.950 . S
C1522 C1521 1.387 . S
C1522 C1525 1.387 . S
H1523 C1519 0.950 . S
H1524 C1521 0.950 . S
C1525 C1516 1.390 . S
C1525 H1518 0.950 . S
C1525 C1522 1.387 . S
C1526 C1527 1.387 . S
C1526 H1530 0.950 . S
C1526 C1535 1.390 . S
C1527 C1526 1.387 . S
C1527 C1529 1.387 . S
H1528 C1535 0.950 . S
C1529 C1527 1.387 . S
C1529 C1531 1.390 . S
C1529 H1533 0.950 . S
H1530 C1526 0.950 . S
C1531 C1529 1.390 . S
C1531 C1532 1.387 . S
C1531 H1534 0.950 . S
C1532 C1531 1.387 . S
C1532 C1535 1.387 . S
H1533 C1529 0.950 . S
H1534 C1531 0.950 . S
C1535 C1526 1.390 . S
C1535 H1528 0.950 . S
C1535 C1532 1.387 . S
C1536 C1537 1.387 1_556 S
C1536 H1540 0.950 . S
C1536 C1545 1.390 . S
C1537 C1536 1.387 1_554 S
C1537 C1539 1.387 . S
H1538 C1545 0.950 . S
C1539 C1537 1.387 . S
C1539 C1541 1.390 . S
C1539 H1543 0.950 . S
H1540 C1536 0.950 . S
C1541 C1539 1.390 . S
C1541 C1542 1.387 1_554 S
C1541 H1544 0.950 . S
C1542 C1541 1.387 1_556 S
C1542 C1545 1.387 . S
H1543 C1539 0.950 . S
H1544 C1541 0.950 . S
C1545 C1536 1.390 . S
C1545 H1538 0.950 . S
C1545 C1542 1.387 . S
C1546 C1547 1.387 . S
C1546 H1550 0.950 . S
C1546 C1555 1.390 . S
C1547 C1546 1.387 . S
C1547 C1549 1.387 1_556 S
H1548 C1555 0.950 . S
C1549 C1547 1.387 1_554 S
C1549 C1551 1.390 . S
C1549 H1553 0.950 . S
H1550 C1546 0.950 . S
C1551 C1549 1.390 . S
C1551 C1552 1.387 . S
C1551 H1554 0.950 . S
C1552 C1551 1.387 . S
C1552 C1555 1.387 1_554 S
H1553 C1549 0.950 . S
H1554 C1551 0.950 . S
C1555 C1546 1.390 . S
C1555 H1548 0.950 . S
C1555 C1552 1.387 1_556 S
C1556 C1557 1.387 . S
C1556 H1560 0.950 . S
C1556 C1565 1.390 . S
C1557 C1556 1.387 . S
C1557 C1559 1.387 . S
H1558 C1565 0.950 . S
C1559 C1557 1.387 . S
C1559 C1561 1.390 . S
C1559 H1563 0.950 . S
H1560 C1556 0.950 . S
C1561 C1559 1.390 . S
C1561 C1562 1.387 . S
C1561 H1564 0.950 . S
C1562 C1561 1.387 . S
C1562 C1565 1.387 . S
H1563 C1559 0.950 . S
H1564 C1561 0.950 . S
C1565 C1556 1.390 . S
C1565 H1558 0.950 . S
C1565 C1562 1.387 . S
C1566 C1567 1.387 . S
C1566 H1570 0.950 . S
C1566 C1575 1.390 . S
C1567 C1566 1.387 . S
C1567 C1569 1.387 . S
H1568 C1575 0.950 . S
C1569 C1567 1.387 . S
C1569 C1571 1.390 . S
C1569 H1573 0.950 . S
H1570 C1566 0.950 . S
C1571 C1569 1.390 . S
C1571 C1572 1.387 . S
C1571 H1574 0.950 . S
C1572 C1571 1.387 . S
C1572 C1575 1.387 . S
H1573 C1569 0.950 . S
H1574 C1571 0.950 . S
C1575 C1566 1.390 . S
C1575 H1568 0.950 . S
C1575 C1572 1.387 . S
C1576 C1577 1.387 . S
C1576 H1580 0.950 . S
C1576 C1585 1.390 . S
C1577 C1576 1.387 . S
C1577 C1579 1.387 1_554 S
H1578 C1585 0.950 . S
C1579 C1577 1.387 1_556 S
C1579 C1581 1.390 . S
C1579 H1583 0.950 . S
H1580 C1576 0.950 . S
C1581 C1579 1.390 . S
C1581 C1582 1.387 . S
C1581 H1584 0.950 . S
C1582 C1581 1.387 . S
C1582 C1585 1.387 1_556 S
H1583 C1579 0.950 . S
H1584 C1581 0.950 . S
C1585 C1576 1.390 . S
C1585 H1578 0.950 . S
C1585 C1582 1.387 1_554 S
C1586 C1587 1.387 . S
C1586 H1590 0.950 . S
C1586 C1595 1.390 . S
C1587 C1586 1.387 . S
C1587 C1589 1.387 1_556 S
H1588 C1595 0.950 . S
C1589 C1587 1.387 1_554 S
C1589 C1591 1.390 . S
C1589 H1593 0.950 . S
H1590 C1586 0.950 . S
C1591 C1589 1.390 . S
C1591 C1592 1.387 . S
C1591 H1594 0.950 . S
C1592 C1591 1.387 . S
C1592 C1595 1.387 1_554 S
H1593 C1589 0.950 . S
H1594 C1591 0.950 . S
C1595 C1586 1.390 . S
C1595 H1588 0.950 . S
C1595 C1592 1.387 1_556 S
C1596 C1597 1.387 . S
C1596 H1600 0.950 . S
C1596 C1605 1.390 . S
C1597 C1596 1.387 . S
C1597 C1599 1.387 . S
H1598 C1605 0.950 . S
C1599 C1597 1.387 . S
C1599 C1601 1.390 . S
C1599 H1603 0.950 . S
H1600 C1596 0.950 . S
C1601 C1599 1.390 . S
C1601 C1602 1.387 . S
C1601 H1604 0.950 . S
C1602 C1601 1.387 . S
C1602 C1605 1.387 . S
H1603 C1599 0.950 . S
H1604 C1601 0.950 . S
C1605 C1596 1.390 . S
C1605 H1598 0.950 . S
C1605 C1602 1.387 . S
C1606 C1607 1.387 1_655 S
C1606 H1610 0.952 . S
C1606 C1615 1.388 1_655 S
C1607 C1606 1.387 1_455 S
C1607 C1609 1.387 . S
H1608 C1615 0.950 . S
C1609 C1607 1.387 . S
C1609 C1611 1.390 . S
C1609 H1613 0.950 . S
H1610 C1606 0.952 . S
C1611 C1609 1.390 . S
C1611 C1612 1.387 . S
C1611 H1614 0.950 . S
C1612 C1611 1.387 . S
C1612 C1615 1.387 . S
H1613 C1609 0.950 . S
H1614 C1611 0.950 . S
C1615 C1606 1.388 1_455 S
C1615 H1608 0.950 . S
C1615 C1612 1.387 . S
C1616 C1617 1.387 . S
C1616 H1620 0.950 . S
C1616 C1625 1.390 . S
C1617 C1616 1.387 . S
C1617 C1619 1.387 . S
H1618 C1625 0.950 . S
C1619 C1617 1.387 . S
C1619 C1621 1.390 . S
C1619 H1623 0.950 . S
H1620 C1616 0.950 . S
C1621 C1619 1.390 . S
C1621 C1622 1.387 . S
C1621 H1624 0.950 . S
C1622 C1621 1.387 . S
C1622 C1625 1.387 . S
H1623 C1619 0.950 . S
H1624 C1621 0.950 . S
C1625 C1616 1.390 . S
C1625 H1618 0.950 . S
C1625 C1622 1.387 . S
C1626 C1627 1.387 . S
C1626 H1630 0.950 . S
C1626 C1635 1.390 . S
C1627 C1626 1.387 . S
C1627 C1629 1.387 . S
H1628 C1635 0.950 . S
C1629 C1627 1.387 . S
C1629 C1631 1.390 . S
C1629 H1633 0.950 . S
H1630 C1626 0.950 . S
C1631 C1629 1.390 . S
C1631 C1632 1.387 . S
C1631 H1634 0.950 . S
C1632 C1631 1.387 . S
C1632 C1635 1.387 . S
H1633 C1629 0.950 . S
H1634 C1631 0.950 . S
C1635 C1626 1.390 . S
C1635 H1628 0.950 . S
C1635 C1632 1.387 . S
C1636 C1637 1.387 . S
C1636 H1640 0.950 . S
C1636 C1645 1.390 . S
C1637 C1636 1.387 . S
C1637 C1639 1.387 . S
H1638 C1645 0.950 . S
C1639 C1637 1.387 . S
C1639 C1641 1.390 . S
C1639 H1643 0.950 . S
H1640 C1636 0.950 . S
C1641 C1639 1.390 . S
C1641 C1642 1.387 . S
C1641 H1644 0.950 . S
C1642 C1641 1.387 . S
C1642 C1645 1.387 . S
H1643 C1639 0.950 . S
H1644 C1641 0.950 . S
C1645 C1636 1.390 . S
C1645 H1638 0.950 . S
C1645 C1642 1.387 . S
C1646 C1647 1.387 . S
C1646 H1650 0.950 . S
C1646 C1655 1.390 . S
C1647 C1646 1.387 . S
C1647 C1649 1.387 . S
H1648 C1655 0.950 . S
C1649 C1647 1.387 . S
C1649 C1651 1.390 . S
C1649 H1653 0.950 . S
H1650 C1646 0.950 . S
C1651 C1649 1.390 . S
C1651 C1652 1.387 . S
C1651 H1654 0.950 . S
C1652 C1651 1.387 . S
C1652 C1655 1.387 . S
H1653 C1649 0.950 . S
H1654 C1651 0.950 . S
C1655 C1646 1.390 . S
C1655 H1648 0.950 . S
C1655 C1652 1.387 . S
C1656 C1657 1.387 . S
C1656 H1660 0.950 . S
C1656 C1665 1.390 . S
C1657 C1656 1.387 . S
C1657 C1659 1.387 . S
H1658 C1665 0.950 . S
C1659 C1657 1.387 . S
C1659 C1661 1.390 . S
C1659 H1663 0.950 . S
H1660 C1656 0.950 . S
C1661 C1659 1.390 . S
C1661 C1662 1.387 . S
C1661 H1664 0.950 . S
C1662 C1661 1.387 . S
C1662 C1665 1.387 . S
H1663 C1659 0.950 . S
H1664 C1661 0.950 . S
C1665 C1656 1.390 . S
C1665 H1658 0.950 . S
C1665 C1662 1.387 . S
C1666 C1667 1.387 . S
C1666 H1670 0.950 . S
C1666 C1675 1.390 . S
C1667 C1666 1.387 . S
C1667 C1669 1.387 . S
H1668 C1675 0.950 . S
C1669 C1667 1.387 . S
C1669 C1671 1.390 . S
C1669 H1673 0.950 . S
H1670 C1666 0.950 . S
C1671 C1669 1.390 . S
C1671 C1672 1.387 . S
C1671 H1674 0.950 1_455 S
C1672 C1671 1.387 . S
C1672 C1675 1.387 . S
H1673 C1669 0.950 . S
H1674 C1671 0.950 1_655 S
C1675 C1666 1.390 . S
C1675 H1668 0.950 . S
C1675 C1672 1.387 . S
C1676 C1677 1.387 . S
C1676 H1680 0.950 . S
C1676 C1685 1.390 . S
C1677 C1676 1.387 . S
C1677 C1679 1.387 . S
H1678 C1685 0.950 . S
C1679 C1677 1.387 . S
C1679 C1681 1.390 . S
C1679 H1683 0.950 . S
H1680 C1676 0.950 . S
C1681 C1679 1.390 . S
C1681 C1682 1.387 . S
C1681 H1684 0.950 . S
C1682 C1681 1.387 . S
C1682 C1685 1.387 . S
H1683 C1679 0.950 . S
H1684 C1681 0.950 . S
C1685 C1676 1.390 . S
C1685 H1678 0.950 . S
C1685 C1682 1.387 . S
C1686 C1687 1.387 . S
C1686 H1690 0.950 . S
C1686 C1695 1.390 . S
C1687 C1686 1.387 . S
C1687 C1689 1.387 . S
H1688 C1695 0.950 . S
C1689 C1687 1.387 . S
C1689 C1691 1.390 . S
C1689 H1693 0.950 1_455 S
H1690 C1686 0.950 . S
C1691 C1689 1.390 . S
C1691 C1692 1.387 . S
C1691 H1694 0.950 . S
C1692 C1691 1.387 . S
C1692 C1695 1.387 . S
H1693 C1689 0.950 1_655 S
H1694 C1691 0.950 . S
C1695 C1686 1.390 . S
C1695 H1688 0.950 . S
C1695 C1692 1.387 . S
C1696 C1697 1.387 . S
C1696 H1700 0.950 . S
C1696 C1705 1.390 . S
C1697 C1696 1.387 . S
C1697 C1699 1.387 . S
H1698 C1705 0.950 . S
C1699 C1697 1.387 . S
C1699 C1701 1.390 . S
C1699 H1703 0.950 . S
H1700 C1696 0.950 . S
C1701 C1699 1.390 . S
C1701 C1702 1.387 . S
C1701 H1704 0.950 . S
C1702 C1701 1.387 . S
C1702 C1705 1.387 . S
H1703 C1699 0.950 . S
H1704 C1701 0.950 . S
C1705 C1696 1.390 . S
C1705 H1698 0.950 . S
C1705 C1702 1.387 . S
C1706 C1707 1.387 . S
C1706 H1710 0.950 . S
C1706 C1715 1.390 . S
C1707 C1706 1.387 . S
C1707 C1709 1.387 . S
H1708 C1715 0.950 . S
C1709 C1707 1.387 . S
C1709 C1711 1.390 . S
C1709 H1713 0.950 . S
H1710 C1706 0.950 . S
C1711 C1709 1.390 . S
C1711 C1712 1.387 . S
C1711 H1714 0.950 . S
C1712 C1711 1.387 . S
C1712 C1715 1.387 . S
H1713 C1709 0.950 . S
H1714 C1711 0.950 . S
C1715 C1706 1.390 . S
C1715 H1708 0.950 . S
C1715 C1712 1.387 . S
C1716 C1717 1.387 . S
C1716 H1720 0.950 . S
C1716 C1725 1.390 . S
C1717 C1716 1.387 . S
C1717 C1719 1.387 . S
H1718 C1725 0.950 . S
C1719 C1717 1.387 . S
C1719 C1721 1.390 . S
C1719 H1723 0.950 . S
H1720 C1716 0.950 . S
C1721 C1719 1.390 . S
C1721 C1722 1.387 . S
C1721 H1724 0.950 . S
C1722 C1721 1.387 . S
C1722 C1725 1.387 . S
H1723 C1719 0.950 . S
H1724 C1721 0.950 . S
C1725 C1716 1.390 . S
C1725 H1718 0.950 . S
C1725 C1722 1.387 . S
C1726 C1727 1.387 . S
C1726 H1730 0.950 . S
C1726 C1735 1.390 . S
C1727 C1726 1.387 . S
C1727 C1729 1.387 . S
H1728 C1735 0.950 . S
C1729 C1727 1.387 . S
C1729 C1731 1.390 . S
C1729 H1733 0.950 . S
H1730 C1726 0.950 . S
C1731 C1729 1.390 . S
C1731 C1732 1.387 . S
C1731 H1734 0.950 . S
C1732 C1731 1.387 . S
C1732 C1735 1.387 . S
H1733 C1729 0.950 . S
H1734 C1731 0.950 . S
C1735 C1726 1.390 . S
C1735 H1728 0.950 . S
C1735 C1732 1.387 . S
C1736 C1737 1.387 . S
C1736 H1740 0.950 . S
C1736 C1745 1.390 . S
C1737 C1736 1.387 . S
C1737 C1739 1.387 . S
H1738 C1745 0.950 1_545 S
C1739 C1737 1.387 . S
C1739 C1741 1.390 . S
C1739 H1743 0.950 . S
H1740 C1736 0.950 . S
C1741 C1739 1.390 . S
C1741 C1742 1.387 . S
C1741 H1744 0.950 . S
C1742 C1741 1.387 . S
C1742 C1745 1.387 . S
H1743 C1739 0.950 . S
H1744 C1741 0.950 . S
C1745 C1736 1.390 . S
C1745 H1738 0.950 1_565 S
C1745 C1742 1.387 . S
C1746 C1747 1.387 . S
C1746 H1750 0.950 . S
C1746 C1755 1.390 . S
C1747 C1746 1.387 . S
C1747 C1749 1.387 . S
H1748 C1755 0.950 . S
C1749 C1747 1.387 . S
C1749 C1751 1.390 . S
C1749 H1753 0.950 . S
H1750 C1746 0.950 . S
C1751 C1749 1.390 . S
C1751 C1752 1.387 . S
C1751 H1754 0.950 . S
C1752 C1751 1.387 . S
C1752 C1755 1.387 . S
H1753 C1749 0.950 . S
H1754 C1751 0.950 . S
C1755 C1746 1.390 . S
C1755 H1748 0.950 . S
C1755 C1752 1.387 . S
C1756 C1757 1.387 . S
C1756 H1760 0.950 . S
C1756 C1765 1.390 . S
C1757 C1756 1.387 . S
C1757 C1759 1.387 . S
H1758 C1765 0.950 . S
C1759 C1757 1.387 . S
C1759 C1761 1.390 . S
C1759 H1763 0.950 . S
H1760 C1756 0.950 . S
C1761 C1759 1.390 . S
C1761 C1762 1.387 . S
C1761 H1764 0.950 . S
C1762 C1761 1.387 . S
C1762 C1765 1.387 . S
H1763 C1759 0.950 . S
H1764 C1761 0.950 . S
C1765 C1756 1.390 . S
C1765 H1758 0.950 . S
C1765 C1762 1.387 . S
C1766 C1767 1.387 . S
C1766 H1770 0.950 . S
C1766 C1775 1.390 . S
C1767 C1766 1.387 . S
C1767 C1769 1.387 . S
H1768 C1775 0.950 . S
C1769 C1767 1.387 . S
C1769 C1771 1.390 . S
C1769 H1773 0.950 1_565 S
H1770 C1766 0.950 . S
C1771 C1769 1.390 . S
C1771 C1772 1.387 . S
C1771 H1774 0.950 . S
C1772 C1771 1.387 . S
C1772 C1775 1.387 . S
H1773 C1769 0.950 1_545 S
H1774 C1771 0.950 . S
C1775 C1766 1.390 . S
C1775 H1768 0.950 . S
C1775 C1772 1.387 . S
C1776 C1777 1.387 1_556 S
C1776 H1780 0.950 . S
C1776 C1785 1.390 . S
C1777 C1776 1.387 1_554 S
C1777 C1779 1.387 . S
H1778 C1785 0.950 . S
C1779 C1777 1.387 . S
C1779 C1781 1.390 . S
C1779 H1783 0.950 . S
H1780 C1776 0.950 . S
C1781 C1779 1.390 . S
C1781 C1782 1.387 1_554 S
C1781 H1784 0.950 . S
C1782 C1781 1.387 1_556 S
C1782 C1785 1.387 . S
H1783 C1779 0.950 . S
H1784 C1781 0.950 . S
C1785 C1776 1.390 . S
C1785 H1778 0.950 . S
C1785 C1782 1.387 . S
C1786 C1787 1.387 . S
C1786 H1790 0.950 . S
C1786 C1795 1.390 . S
C1787 C1786 1.387 . S
C1787 C1789 1.387 1_554 S
H1788 C1795 0.950 . S
C1789 C1787 1.387 1_556 S
C1789 C1791 1.390 . S
C1789 H1793 0.950 . S
H1790 C1786 0.950 . S
C1791 C1789 1.390 . S
C1791 C1792 1.387 . S
C1791 H1794 0.950 . S
C1792 C1791 1.387 . S
C1792 C1795 1.387 1_556 S
H1793 C1789 0.950 . S
H1794 C1791 0.950 . S
C1795 C1786 1.390 . S
C1795 H1788 0.950 . S
C1795 C1792 1.387 1_554 S
C1796 C1797 1.387 . S
C1796 H1800 0.950 . S
C1796 C1805 1.390 . S
C1797 C1796 1.387 . S
C1797 C1799 1.387 . S
H1798 C1805 0.950 . S
C1799 C1797 1.387 . S
C1799 C1801 1.390 . S
C1799 H1803 0.950 . S
H1800 C1796 0.950 . S
C1801 C1799 1.390 . S
C1801 C1802 1.387 . S
C1801 H1804 0.950 . S
C1802 C1801 1.387 . S
C1802 C1805 1.387 . S
H1803 C1799 0.950 . S
H1804 C1801 0.950 . S
C1805 C1796 1.390 . S
C1805 H1798 0.950 . S
C1805 C1802 1.387 . S
C1806 C1807 1.387 . S
C1806 H1810 0.950 . S
C1806 C1815 1.390 . S
C1807 C1806 1.387 . S
C1807 C1809 1.387 . S
H1808 C1815 0.950 . S
C1809 C1807 1.387 . S
C1809 C1811 1.390 . S
C1809 H1813 0.950 . S
H1810 C1806 0.950 . S
C1811 C1809 1.390 . S
C1811 C1812 1.387 . S
C1811 H1814 0.950 . S
C1812 C1811 1.387 . S
C1812 C1815 1.387 . S
H1813 C1809 0.950 . S
H1814 C1811 0.950 . S
C1815 C1806 1.390 . S
C1815 H1808 0.950 . S
C1815 C1812 1.387 . S
C1816 C1817 1.387 . S
C1816 H1820 0.950 . S
C1816 C1825 1.390 . S
C1817 C1816 1.387 . S
C1817 C1819 1.387 1_556 S
H1818 C1825 0.950 . S
C1819 C1817 1.387 1_554 S
C1819 C1821 1.390 . S
C1819 H1823 0.950 . S
H1820 C1816 0.950 . S
C1821 C1819 1.390 . S
C1821 C1822 1.387 . S
C1821 H1824 0.950 . S
C1822 C1821 1.387 . S
C1822 C1825 1.387 1_554 S
H1823 C1819 0.950 . S
H1824 C1821 0.950 . S
C1825 C1816 1.390 . S
C1825 H1818 0.950 . S
C1825 C1822 1.387 1_556 S
C1826 C1827 1.387 . S
C1826 H1830 0.950 . S
C1826 C1835 1.390 . S
C1827 C1826 1.387 . S
C1827 C1829 1.387 1_554 S
H1828 C1835 0.950 . S
C1829 C1827 1.387 1_556 S
C1829 C1831 1.390 . S
C1829 H1833 0.950 . S
H1830 C1826 0.950 . S
C1831 C1829 1.390 . S
C1831 C1832 1.387 . S
C1831 H1834 0.950 . S
C1832 C1831 1.387 . S
C1832 C1835 1.387 1_556 S
H1833 C1829 0.950 . S
H1834 C1831 0.950 . S
C1835 C1826 1.390 . S
C1835 H1828 0.950 . S
C1835 C1832 1.387 1_554 S
C1836 C1837 1.387 . S
C1836 H1840 0.950 . S
C1836 C1845 1.390 . S
C1837 C1836 1.387 . S
C1837 C1839 1.387 . S
H1838 C1845 0.950 . S
C1839 C1837 1.387 . S
C1839 C1841 1.390 . S
C1839 H1843 0.950 . S
H1840 C1836 0.950 . S
C1841 C1839 1.390 . S
C1841 C1842 1.387 . S
C1841 H1844 0.950 . S
C1842 C1841 1.387 . S
C1842 C1845 1.387 . S
H1843 C1839 0.950 . S
H1844 C1841 0.950 . S
C1845 C1836 1.390 . S
C1845 H1838 0.950 . S
C1845 C1842 1.387 . S
C1846 C1847 1.387 . S
C1846 H1850 0.950 . S
C1846 C1855 1.390 . S
C1847 C1846 1.387 . S
C1847 C1849 1.387 . S
H1848 C1855 0.950 . S
C1849 C1847 1.387 . S
C1849 C1851 1.390 . S
C1849 H1853 0.950 . S
H1850 C1846 0.950 . S
C1851 C1849 1.390 . S
C1851 C1852 1.387 . S
C1851 H1854 0.950 . S
C1852 C1851 1.387 . S
C1852 C1855 1.387 . S
H1853 C1849 0.950 . S
H1854 C1851 0.950 . S
C1855 C1846 1.390 . S
C1855 H1848 0.950 . S
C1855 C1852 1.387 . S
C1057 C28 1.231 . S
C1062 C160 1.231 . S
C1067 C985 1.227 . S
C1072 C61 1.227 . S
C1077 C490 1.232 . S
C1082 C94 1.232 . S
C1087 C127 1.226 . S
C1092 C787 1.226 . S
C1097 C853 1.232 . S
C1102 C193 1.232 . S
C1107 C226 1.226 . S
C1112 C358 1.226 . S
C1117 C655 1.227 . S
C1122 C259 1.227 . S
C1127 C424 1.232 . S
C1132 C292 1.232 . S
C1137 C325 1.232 . S
C1142 C721 1.232 . S
C1147 C391 1.228 . S
C1152 C1051 1.228 . S
C1157 C457 1.227 . S
C1162 C589 1.227 . S
C1167 C919 1.227 . S
C1172 C523 1.227 . S
C1177 C688 1.232 . S
C1182 C556 1.232 . S
C1187 C1018 1.226 . S
C1192 C622 1.226 . S
C1197 C754 1.231 . S
C1202 C886 1.231 . S
C1207 C952 1.226 . S
C1212 C820 1.226 . S
C1217 C17 1.711 . S
C1222 C83 1.711 . S
C1227 C50 1.713 . S
C1232 C116 1.713 . S
C1237 C215 1.711 . S
C1242 C149 1.711 . S
C1247 C248 1.713 . S
C1252 C182 1.713 . S
C1257 C347 1.713 . S
C1262 C281 1.713 . S
C1267 C314 1.713 . S
C1272 C380 1.713 . S
C1277 C413 1.711 . S
C1282 C479 1.711 . S
C1287 C446 1.713 . S
C1292 C512 1.713 . S
C1297 C611 1.713 . S
C1302 C545 1.713 . S
C1307 C578 1.711 . S
C1312 C644 1.711 . S
C1317 C677 1.711 . S
C1322 C743 1.711 . S
C1327 C710 1.711 . S
C1332 C776 1.711 . S
C1337 C809 1.713 . S
C1342 C875 1.713 . S
C1347 C908 1.711 . S
C1352 C842 1.711 . S
C1357 C941 1.711 . S
C1362 C1007 1.711 . S
C1367 C1040 1.714 . S
C1372 C974 1.714 . S
C1377 N14 0.964 . S
C1382 N47 0.964 . S
C1387 N113 0.964 . S
C1392 N80 0.964 . S
C1397 N179 0.964 . S
C1402 N146 0.964 . S
C1407 N212 0.964 . S
C1412 N245 0.964 . S
C1417 N278 0.964 . S
C1422 N311 0.964 . S
C1427 N344 0.964 . S
C1432 N377 0.964 . S
C1437 N443 0.964 . S
C1442 N410 0.964 . S
C1447 N509 0.972 . S
C1452 N476 0.972 . S
C1457 N575 0.964 . S
C1462 N542 0.964 . S
C1467 N608 0.972 . S
C1472 N641 0.972 . S
C1477 N707 0.972 . S
C1482 N674 0.972 . S
C1487 N740 0.972 . S
C1492 N773 0.972 . S
C1497 N806 0.964 . S
C1502 N839 0.964 . S
C1507 N905 0.964 . S
C1512 N872 0.964 . S
C1517 N938 0.972 . S
C1522 N971 0.972 . S
C1527 N1004 0.972 . S
C1532 N1037 0.972 . S
C1537 N5 1.990 . S
C1542 C173 1.986 1_545 S
C1547 C932 1.986 1_655 S
C1552 N38 1.990 . S
C1557 C503 1.986 . S
C1562 N71 1.990 . S
C1567 N104 1.988 . S
C1572 C734 1.988 1_645 S
C1577 C41 1.988 1_565 S
C1582 N137 1.988 . S
C1587 N170 1.990 . S
C1592 C800 1.986 1_455 S
C1597 N203 1.990 . S
C1602 C371 1.986 . S
C1607 C602 1.987 1_465 S
C1612 N236 1.989 . S
C1617 N269 1.988 . S
C1622 C437 1.988 . S
C1627 N302 1.990 . S
C1632 C668 1.986 1_655 S
C1637 N335 1.988 . S
C1642 C239 1.989 . S
C1647 C998 1.986 1_655 S
C1652 N368 1.990 . S
C1657 N401 1.988 . S
C1662 C305 1.988 . S
C1667 N434 1.988 . S
C1672 C536 1.988 1_455 S
C1677 N467 1.990 . S
C1682 C107 1.986 . S
C1687 C866 1.988 1_455 S
C1692 N500 1.988 . S
C1697 C701 1.988 1_545 S
C1702 N533 1.988 . S
C1707 N566 1.990 . S
C1712 C404 1.986 . S
C1717 N599 1.990 . S
C1722 C1031 1.986 . S
C1727 N632 1.989 . S
C1732 C206 1.987 1_545 S
C1737 N665 1.990 . S
C1742 C569 1.987 1_565 S
C1747 N698 1.988 . S
C1752 C272 1.988 . S
C1757 C899 1.988 . S
C1762 N731 1.988 . S
C1767 C74 1.988 1_565 S
C1772 N764 1.988 . S
C1777 N797 1.990 . S
C1782 C965 1.986 . S
C1787 N830 1.988 . S
C1792 C140 1.988 . S
C1797 N863 1.990 . S
C1802 C767 1.987 . S
C1807 C470 1.988 . S
C1812 N896 1.988 . S
C1817 N929 1.989 . S
C1822 C833 1.987 . S
C1827 C8 1.988 . S
C1832 N962 1.988 . S
C1837 C635 1.987 . S
C1842 N995 1.990 . S
C1847 C338 1.986 . S
C1852 N1028 1.990 . S
