# Generated by pormake.
# Topology une, (4)-cn, num edge types: 1
# Building blocks:
#     Node 0, Type 0, BuildingBlock: CEKHIL_clean_sbu_0, # of connection points: 4
#     Node 1, Type 0, BuildingBlock: CEKHIL_clean_sbu_0, # of connection points: 4
#     Node 2, Type 0, BuildingBlock: CEKHIL_clean_sbu_0, # of connection points: 4
#     Node 3, Type 0, BuildingBlock: CEKHIL_clean_sbu_0, # of connection points: 4
#     Node 4, Type 0, BuildingBlock: CEKHIL_clean_sbu_0, # of connection points: 4
#     Node 5, Type 0, BuildingBlock: CEKHIL_clean_sbu_0, # of connection points: 4
#     Node 6, Type 0, BuildingBlock: CEKHIL_clean_sbu_0, # of connection points: 4
#     Node 7, Type 0, BuildingBlock: CEKHIL_clean_sbu_0, # of connection points: 4
#     Node 8, Type 0, BuildingBlock: CEKHIL_clean_sbu_0, # of connection points: 4
#     Node 9, Type 0, BuildingBlock: CEKHIL_clean_sbu_0, # of connection points: 4
#     Node 10, Type 0, BuildingBlock: CEKHIL_clean_sbu_0, # of connection points: 4
#     Node 11, Type 0, BuildingBlock: CEKHIL_clean_sbu_0, # of connection points: 4
#     Node 12, Type 0, BuildingBlock: CEKHIL_clean_sbu_0, # of connection points: 4
#     Node 13, Type 0, BuildingBlock: CEKHIL_clean_sbu_0, # of connection points: 4
#     Node 14, Type 0, BuildingBlock: CEKHIL_clean_sbu_0, # of connection points: 4
#     Node 15, Type 0, BuildingBlock: CEKHIL_clean_sbu_0, # of connection points: 4
#     Node 16, Type 0, BuildingBlock: CEKHIL_clean_sbu_0, # of connection points: 4
#     Node 17, Type 0, BuildingBlock: CEKHIL_clean_sbu_0, # of connection points: 4
#     Edge 18, Type (0, 0), BuildingBlock: OJICUG_clean_linker_0, # of connection points: 2
#     Edge 19, Type (0, 0), BuildingBlock: OJICUG_clean_linker_0, # of connection points: 2
#     Edge 20, Type (0, 0), BuildingBlock: OJICUG_clean_linker_0, # of connection points: 2
#     Edge 21, Type (0, 0), BuildingBlock: OJICUG_clean_linker_0, # of connection points: 2
#     Edge 22, Type (0, 0), BuildingBlock: OJICUG_clean_linker_0, # of connection points: 2
#     Edge 23, Type (0, 0), BuildingBlock: OJICUG_clean_linker_0, # of connection points: 2
#     Edge 24, Type (0, 0), BuildingBlock: OJICUG_clean_linker_0, # of connection points: 2
#     Edge 25, Type (0, 0), BuildingBlock: OJICUG_clean_linker_0, # of connection points: 2
#     Edge 26, Type (0, 0), BuildingBlock: OJICUG_clean_linker_0, # of connection points: 2
#     Edge 27, Type (0, 0), BuildingBlock: OJICUG_clean_linker_0, # of connection points: 2
#     Edge 28, Type (0, 0), BuildingBlock: OJICUG_clean_linker_0, # of connection points: 2
#     Edge 29, Type (0, 0), BuildingBlock: OJICUG_clean_linker_0, # of connection points: 2
#     Edge 30, Type (0, 0), BuildingBlock: OJICUG_clean_linker_0, # of connection points: 2
#     Edge 31, Type (0, 0), BuildingBlock: OJICUG_clean_linker_0, # of connection points: 2
#     Edge 32, Type (0, 0), BuildingBlock: OJICUG_clean_linker_0, # of connection points: 2
#     Edge 33, Type (0, 0), BuildingBlock: OJICUG_clean_linker_0, # of connection points: 2
#     Edge 34, Type (0, 0), BuildingBlock: OJICUG_clean_linker_0, # of connection points: 2
#     Edge 35, Type (0, 0), BuildingBlock: OJICUG_clean_linker_0, # of connection points: 2
#     Edge 36, Type (0, 0), BuildingBlock: OJICUG_clean_linker_0, # of connection points: 2
#     Edge 37, Type (0, 0), BuildingBlock: OJICUG_clean_linker_0, # of connection points: 2
#     Edge 38, Type (0, 0), BuildingBlock: OJICUG_clean_linker_0, # of connection points: 2
#     Edge 39, Type (0, 0), BuildingBlock: OJICUG_clean_linker_0, # of connection points: 2
#     Edge 40, Type (0, 0), BuildingBlock: OJICUG_clean_linker_0, # of connection points: 2
#     Edge 41, Type (0, 0), BuildingBlock: OJICUG_clean_linker_0, # of connection points: 2
#     Edge 42, Type (0, 0), BuildingBlock: OJICUG_clean_linker_0, # of connection points: 2
#     Edge 43, Type (0, 0), BuildingBlock: OJICUG_clean_linker_0, # of connection points: 2
#     Edge 44, Type (0, 0), BuildingBlock: OJICUG_clean_linker_0, # of connection points: 2
#     Edge 45, Type (0, 0), BuildingBlock: OJICUG_clean_linker_0, # of connection points: 2
#     Edge 46, Type (0, 0), BuildingBlock: OJICUG_clean_linker_0, # of connection points: 2
#     Edge 47, Type (0, 0), BuildingBlock: OJICUG_clean_linker_0, # of connection points: 2
#     Edge 48, Type (0, 0), BuildingBlock: OJICUG_clean_linker_0, # of connection points: 2
#     Edge 49, Type (0, 0), BuildingBlock: OJICUG_clean_linker_0, # of connection points: 2
#     Edge 50, Type (0, 0), BuildingBlock: OJICUG_clean_linker_0, # of connection points: 2
#     Edge 51, Type (0, 0), BuildingBlock: OJICUG_clean_linker_0, # of connection points: 2
#     Edge 52, Type (0, 0), BuildingBlock: OJICUG_clean_linker_0, # of connection points: 2
#     Edge 53, Type (0, 0), BuildingBlock: OJICUG_clean_linker_0, # of connection points: 2
# Relax obj value: 0.260
# Max RMSD: 0.175
# Mean RMSD: 0.165
data_MOF--net-une--node1-CEKHIL_clean_sbu_0--edge1-OJICUG_clean_linker_0
_symmetry_space_group_name_H-M    P1
_symmetry_Int_Tables_number       1
_symmetry_cell_setting            triclinic
loop_
_symmetry_equiv_pos_as_xyz
'x, y, z'
_cell_length_a     27.564283
_cell_length_b     27.244971
_cell_length_c     36.749073
_cell_angle_alpha  90.029553
_cell_angle_beta   90.386838
_cell_angle_gamma 119.88828
loop_
_atom_site_label
_atom_site_type_symbol
_atom_site_fract_x
_atom_site_fract_y
_atom_site_fract_z
_atom_type_partial_charge
Co0 Co 0.35927 0.0574 0.10508 0.0
O1 O 0.38183 1.00011 0.11183 0.0
O2 O 0.42564 0.07542 0.07711 0.0
C3 C 0.33657 0.07268 0.16222 0.0
O4 O 0.35149 0.12462 0.09032 0.0
Co5 Co 0.23645 0.0306 0.11721 0.0
O6 O 0.27079 0.11401 0.11234 0.0
C7 C 0.26259 0.97812 0.05674 0.0
C8 C 0.41955 0.02686 0.08691 0.0
C9 C 0.31862 0.14388 0.09784 0.0
O10 O 0.31455 0.01291 0.06206 0.0
O11 O 0.22394 0.97504 0.07733 0.0
O12 O 0.38893 0.09564 0.15243 0.0
O13 O 0.30198 0.03407 0.14012 0.0
Co14 Co 0.92815 0.30749 0.05821 0.0
O15 O 0.86402 0.28003 0.0914 0.0
O16 O 0.93966 0.27377 0.10117 0.0
C17 C 0.94464 0.39396 0.03857 0.0
O18 O 1.00162 0.32819 0.03462 0.0
Co19 Co 0.92163 0.32264 0.9748 0.0
O20 O 1.00379 0.35111 0.97569 0.0
C21 C 0.84995 0.21544 1.01099 0.0
C22 C 0.88909 0.25887 0.11092 0.0
C23 C 0.02761 0.34743 1.0046 0.0
O24 O 0.8888 0.23094 0.03497 0.0
O25 O 0.8527 0.24817 0.98518 0.0
O26 O 0.96158 0.38865 0.07096 0.0
O27 O 0.91088 0.34662 1.02284 0.0
Co28 Co 0.73991 0.63022 0.09692 0.0
O29 O 0.65941 0.59227 0.10761 0.0
O30 O 0.69632 0.57221 0.06103 0.0
C31 C 0.78216 0.63734 0.15233 0.0
O32 O 0.81572 0.65569 0.07493 0.0
Co33 Co 0.82863 0.75063 0.12547 0.0
O34 O 0.88294 0.72986 0.106 0.0
C35 C 0.74375 0.73788 0.072 0.0
C36 C 0.65133 0.5649 0.07686 0.0
C37 C 0.86726 0.69002 0.08276 0.0
O38 O 0.7291 0.68567 0.06714 0.0
O39 O 0.78 0.77011 0.09557 0.0
O40 O 0.75832 0.58932 0.13446 0.0
O41 O 0.77138 0.6747 0.13918 0.0
Co42 Co 0.58043 0.89887 0.97608 0.0
O43 O 0.54447 0.8305 0.94519 0.0
O44 O 0.62203 0.90914 0.93197 0.0
C45 C 0.50925 0.91196 0.99675 0.0
O46 O 0.6324 0.97542 0.99705 0.0
Co47 Co 0.5648 0.89918 0.05999 0.0
O48 O 0.62515 0.98029 0.05759 0.0
C49 C 0.61715 0.83946 1.0284 0.0
C50 C 0.58838 0.85632 0.92424 0.0
C51 C 0.64736 1.00249 1.02723 0.0
O52 O 0.62532 0.86785 0.99915 0.0
O53 O 0.587 0.83978 0.05454 0.0
O54 O 0.52807 0.92659 0.96363 0.0
O55 O 0.52672 0.88169 1.01296 0.0
Co56 Co 0.08954 0.68449 0.93179 0.0
O57 O 0.13332 0.70322 0.88726 0.0
O58 O 0.0693 0.72707 0.89842 0.0
C59 C 0.06298 0.59215 0.94374 0.0
O60 O 0.03813 0.67572 0.97306 0.0
Co61 Co 0.13767 0.66065 1.00284 0.0
O62 O 0.06955 0.65578 1.02474 0.0
C63 C 0.18581 0.77596 0.97692 0.0
C64 C 0.10982 0.73275 0.87772 0.0
C65 C 0.03472 0.66499 1.00727 0.0
O66 O 0.14669 0.7589 0.95302 0.0
O67 O 0.19434 0.7425 0.99681 0.0
O68 O 0.03718 0.60452 0.91853 0.0
O69 O 0.11005 0.63479 0.95395 0.0
Co70 Co 0.3533 0.40646 0.97276 0.0
O71 O 0.34034 0.43598 0.92745 0.0
O72 O 0.31328 0.34623 0.93747 0.0
C73 C 0.44422 0.46868 0.98902 0.0
O74 O 0.35581 0.35812 1.01322 0.0
Co75 Co 0.37132 0.46877 0.04696 0.0
O76 O 0.37468 0.4029 0.06739 0.0
C77 C 0.26232 0.41913 1.01103 0.0
C78 C 0.31046 0.38323 0.91673 0.0
C79 C 0.36535 0.36066 0.04755 0.0
O80 O 0.27876 0.3938 0.98926 0.0
O81 O 0.29441 0.45521 0.03484 0.0
O82 O 0.43278 0.43127 0.96327 0.0
O83 O 0.40193 0.47402 0.99844 0.0
Co84 Co 0.02622 0.39004 0.4393 0.0
O85 O 0.05002 0.33375 0.44639 0.0
O86 O 0.09196 0.408 0.41063 0.0
C87 C 1.0048 0.4068 0.49645 0.0
O88 O 0.01693 0.45617 0.42396 0.0
Co89 Co 0.90328 0.36204 0.45262 0.0
O90 O 0.9366 0.44521 0.44692 0.0
C91 C 0.92855 0.30854 0.39236 0.0
C92 C 0.08685 0.36004 0.42091 0.0
C93 C 0.98387 0.47511 0.43175 0.0
O94 O 0.98056 0.34373 0.39708 0.0
O95 O 0.89023 0.30569 0.41318 0.0
O96 O 0.0569 0.43003 0.48605 0.0
O97 O 0.9699 0.36722 0.47501 0.0
Co98 Co 0.59219 0.64039 0.3913 0.0
O99 O 0.52766 0.61241 0.42424 0.0
O100 O 0.60388 0.6075 0.43461 0.0
C101 C 0.60773 0.72631 0.37114 0.0
O102 O 0.66613 0.66175 0.36813 0.0
Co103 Co 0.58626 0.6545 0.30776 0.0
O104 O 0.66848 0.68321 0.30892 0.0
C105 C 0.51516 0.54747 0.34431 0.0
C106 C 0.55306 0.59197 0.4441 0.0
C107 C 0.69226 0.68036 0.33809 0.0
O108 O 0.55396 0.56362 0.36838 0.0
O109 O 0.51768 0.57978 0.31828 0.0
O110 O 0.62456 0.72151 0.40368 0.0
O111 O 0.57457 0.67871 0.35546 0.0
Co112 Co 0.40443 0.96106 0.43198 0.0
O113 O 0.32398 0.925 0.44246 0.0
O114 O 0.36017 0.90144 0.39714 0.0
C115 C 0.44708 0.97072 0.48744 0.0
O116 O 0.48026 0.98395 0.4109 0.0
Co117 Co 0.49285 0.08324 0.45826 0.0
O118 O 0.54739 0.06621 0.43507 0.0
C119 C 0.40755 0.06731 0.40468 0.0
C120 C 0.31547 0.89599 0.41238 0.0
C121 C 0.53161 0.02241 0.41526 0.0
O122 O 0.39455 0.01546 0.40022 0.0
O123 O 0.44256 0.10031 0.42851 0.0
O124 O 0.42203 0.92157 0.47089 0.0
O125 O 0.43644 0.00766 0.47335 0.0
Co126 Co 0.2462 0.23051 0.30963 0.0
O127 O 0.2099 0.16246 0.27845 0.0
O128 O 0.28775 0.24098 0.26551 0.0
C129 C 0.17558 0.24425 0.3306 0.0
O130 O 0.29856 0.30672 0.33082 0.0
Co131 Co 0.23103 0.2302 0.39353 0.0
O132 O 0.2915 0.31133 0.39138 0.0
C133 C 0.28169 0.1693 0.36127 0.0
C134 C 0.25392 0.18828 0.25759 0.0
C135 C 0.31364 0.33367 0.36103 0.0
O136 O 0.29057 0.19863 0.33237 0.0
O137 O 0.25169 0.16969 0.3875 0.0
O138 O 0.19435 0.25895 0.29747 0.0
O139 O 0.19264 0.21346 0.3466 0.0
Co140 Co 0.75523 0.01796 0.26495 0.0
O141 O 0.79874 0.03559 0.22028 0.0
O142 O 0.73663 0.06191 0.23176 0.0
C143 C 0.72632 0.92472 0.27647 0.0
O144 O 0.70475 0.01167 0.30613 0.0
Co145 Co 0.79809 0.98934 0.33678 0.0
O146 O 0.72646 0.97904 0.35653 0.0
C147 C 0.85031 0.10641 0.31203 0.0
C148 C 0.77642 0.06629 0.21088 0.0
C149 C 0.69646 0.99496 0.33928 0.0
O150 O 0.81394 0.09131 0.28639 0.0
O151 O 0.85525 0.07155 0.33287 0.0
O152 O 0.70105 0.93835 0.2516 0.0
O153 O 0.77359 0.96658 0.28707 0.0
Co154 Co 0.01807 0.73867 0.30719 0.0
O155 O 1.00559 0.76869 0.26191 0.0
O156 O 0.97839 0.67884 0.27161 0.0
C157 C 0.10889 0.80066 0.32389 0.0
O158 O 0.0201 0.68978 0.34743 0.0
Co159 Co 0.03543 0.79997 0.38169 0.0
O160 O 0.03864 0.73384 0.40182 0.0
C161 C 0.9268 0.75107 0.34529 0.0
C162 C 0.97582 0.71606 0.25095 0.0
C163 C 0.02938 0.69183 0.38177 0.0
O164 O 0.94337 0.72593 0.32344 0.0
O165 O 0.95872 0.78679 0.36932 0.0
O166 O 0.09764 0.76352 0.29799 0.0
O167 O 0.06653 0.80593 0.33325 0.0
Co168 Co 0.69291 0.72485 0.77155 0.0
O169 O 0.71564 0.66771 0.77832 0.0
O170 O 0.75909 0.74279 0.74337 0.0
C171 C 0.67063 0.74047 0.82874 0.0
O172 O 0.68487 0.79191 0.75673 0.0
Co173 Co 0.57011 0.69784 0.78402 0.0
O174 O 0.60435 0.78123 0.77914 0.0
C175 C 0.5959 0.6452 0.72347 0.0
C176 C 0.75317 0.69433 0.75327 0.0
C177 C 0.65203 0.81113 0.76447 0.0
O178 O 0.64789 0.68 0.72869 0.0
O179 O 0.55735 0.64219 0.74414 0.0
O180 O 0.7229 0.76344 0.81877 0.0
O181 O 0.6359 0.70167 0.80678 0.0
Co182 Co 0.26067 0.97494 0.72551 0.0
O183 O 0.19633 0.94714 0.7586 0.0
O184 O 0.27218 0.94137 0.76854 0.0
C185 C 0.2769 0.0613 0.7058 0.0
O186 O 0.33434 0.99596 0.7021 0.0
Co187 Co 0.25454 0.99011 0.64207 0.0
O188 O 0.33674 0.01884 0.64315 0.0
C189 C 0.183 0.88278 0.67816 0.0
C190 C 0.2215 0.92616 0.77819 0.0
C191 C 0.36047 0.01525 0.67213 0.0
O192 O 0.22171 0.8984 0.70225 0.0
O193 O 0.18576 0.91549 0.65232 0.0
O194 O 0.29374 0.05608 0.73824 0.0
O195 O 0.24335 0.01391 0.69004 0.0
Co196 Co 0.07288 0.29699 0.76405 0.0
O197 O 0.99242 0.25897 0.77486 0.0
O198 O 0.02918 0.23912 0.72809 0.0
C199 C 0.11539 0.30393 0.81932 0.0
O200 O 0.14863 0.32263 0.74193 0.0
Co201 Co 0.16152 0.41735 0.79274 0.0
O202 O 0.21584 0.39678 0.77303 0.0
C203 C 0.07661 0.40472 0.73937 0.0
C204 C 0.98424 0.23176 0.74404 0.0
C205 C 0.20017 0.35702 0.74973 0.0
O206 O 0.06193 0.35252 0.73446 0.0
O207 O 0.11289 0.43691 0.76293 0.0
O208 O 0.09149 0.25597 0.80139 0.0
O209 O 0.10445 0.34128 0.80635 0.0
Co210 Co 0.91399 0.56591 0.6429 0.0
O211 O 0.87818 0.49749 0.61205 0.0
O212 O 0.95582 0.57607 0.5989 0.0
C213 C 0.84275 0.57908 0.66333 0.0
O214 O 0.96587 0.64247 0.66388 0.0
Co215 Co 0.89789 0.56628 0.72676 0.0
O216 O 0.95824 0.64739 0.72439 0.0
C217 C 0.95033 0.50648 0.69545 0.0
C218 C 0.9222 0.52324 0.59119 0.0
C219 C 0.98063 0.66956 0.69406 0.0
O220 O 0.95873 0.5349 0.66619 0.0
O221 O 0.92001 0.5068 0.72148 0.0
O222 O 0.86172 0.59366 0.63023 0.0
O223 O 0.86011 0.5488 0.67964 0.0
Co224 Co 0.42219 0.35147 0.59858 0.0
O225 O 0.46575 0.36996 0.55396 0.0
O226 O 0.40188 0.39398 0.56519 0.0
C227 C 0.39547 0.25912 0.61066 0.0
O228 O 0.37098 0.34293 0.63992 0.0
Co229 Co 0.47049 0.32773 0.66959 0.0
O230 O 0.40245 0.32295 0.69156 0.0
C231 C 0.51868 0.443 0.64357 0.0
C232 C 0.44224 0.39948 0.54441 0.0
C233 C 0.36763 0.33221 0.67413 0.0
O234 O 0.47952 0.42594 0.6197 0.0
O235 O 0.5272 0.40954 0.66347 0.0
O236 O 0.36965 0.27148 0.58545 0.0
O237 O 0.44263 0.30172 0.62077 0.0
Co238 Co 0.68594 0.07419 0.64032 0.0
O239 O 0.67268 0.10372 0.59508 0.0
O240 O 0.64576 0.01401 0.60509 0.0
C241 C 0.77691 0.13634 0.65645 0.0
O242 O 0.68868 0.02576 0.68063 0.0
Co243 Co 0.70418 0.13618 0.71464 0.0
O244 O 0.70772 0.07029 0.73488 0.0
C245 C 0.59514 0.08683 0.67883 0.0
C246 C 0.64273 0.05095 0.58441 0.0
C247 C 0.69837 0.02816 0.71493 0.0
O248 O 0.61149 0.06147 0.65701 0.0
O249 O 0.62729 0.12282 0.70265 0.0
O250 O 0.76536 0.09903 0.63062 0.0
O251 O 0.73467 0.14169 0.66603 0.0
C252 C 0.43921 0.94623 0.0751 0.0
C253 C 0.44521 0.99877 0.06496 0.0
H254 H 0.45413 0.87802 0.06176 0.0
C255 C 0.47084 0.0215 0.03116 0.0
H256 H 0.4191 0.92673 0.10047 0.0
C257 C 0.48961 0.9927 1.00834 0.0
C258 C 0.48404 0.94042 1.01868 0.0
H259 H 0.4756 0.06138 1.0219 0.0
H260 H 0.50951 0.01202 0.98288 0.0
C261 C 0.45881 0.91791 0.05256 0.0
C262 C 0.02982 0.48859 1.02319 0.0
C263 C 0.97403 0.44686 1.01608 0.0
H264 H 0.10205 0.56497 1.00551 0.0
C265 C 0.94844 0.45243 0.98414 0.0
H266 H 0.05155 0.48516 0.04686 0.0
C267 C 0.97729 0.49853 0.96036 0.0
C268 C 0.0332 0.54023 0.96732 0.0
H269 H 0.9058 0.42073 0.97737 0.0
H270 H 0.95561 0.50154 0.93653 0.0
C271 C 0.05903 0.5342 0.99907 0.0
C272 C 0.50334 0.52443 0.04377 0.0
C273 C 0.49707 0.49284 1.01181 0.0
H274 H 0.55534 0.57052 0.08967 0.0
C275 C 0.5408 0.48242 1.00306 0.0
H276 H 0.47076 0.53334 0.05172 0.0
C277 C 0.58943 0.50376 1.02499 0.0
C278 C 0.59595 0.53574 0.05678 0.0
H279 H 0.53772 0.45803 0.979 0.0
H280 H 0.62251 0.49583 1.01663 0.0
C281 C 0.55179 0.54532 0.06594 0.0
C282 C 0.13744 0.35407 0.36494 0.0
C283 C 0.11242 0.33182 0.39896 0.0
H284 H 0.17539 0.34403 0.31649 0.0
C285 C 0.10686 0.27954 0.40934 0.0
H286 H 0.14186 0.39373 0.35549 0.0
C287 C 0.12622 0.251 0.3868 0.0
C288 C 0.15081 0.27303 0.35269 0.0
H289 H 0.08721 0.26038 0.43489 0.0
H290 H 0.12183 0.21131 0.39616 0.0
C291 C 0.15601 0.32507 0.34213 0.0
C292 C 0.61075 0.78567 0.3173 0.0
C293 C 0.63707 0.77909 0.34854 0.0
H294 H 0.61734 0.83588 0.27033 0.0
C295 C 0.69354 0.81956 0.35478 0.0
H296 H 0.56756 0.75482 0.31118 0.0
C297 C 0.7227 0.86496 0.33056 0.0
C298 C 0.69615 0.87235 0.29966 0.0
H299 H 0.71583 0.81519 0.37781 0.0
H300 H 0.7663 0.89461 0.33632 0.0
C301 C 0.63956 0.83184 0.2935 0.0
C302 C 0.205 0.8135 0.3385 0.0
C303 C 0.16159 0.82461 0.34686 0.0
H304 H 0.28625 0.82607 0.35253 0.0
C305 C 0.16801 0.8567 0.3786 0.0
H306 H 0.20178 0.7887 0.31463 0.0
C307 C 0.21633 0.87744 0.4009 0.0
C308 C 0.26017 0.86714 0.39215 0.0
H309 H 0.13567 0.86613 0.38626 0.0
H310 H 0.22002 0.90303 0.42444 0.0
C311 C 0.25344 0.83461 0.36059 0.0
C312 C 0.82314 0.6599 0.67476 0.0
C313 C 0.81754 0.60764 0.68518 0.0
H314 H 0.80917 0.72865 0.68821 0.0
C315 C 0.79232 0.58524 0.71907 0.0
H316 H 0.84304 0.67914 0.64928 0.0
C317 C 0.77277 0.61365 0.74156 0.0
C318 C 0.77879 0.66617 0.73135 0.0
H319 H 0.78762 0.54537 0.72833 0.0
H320 H 0.75267 0.59423 0.76695 0.0
C321 C 0.80439 0.68878 0.69753 0.0
C322 C 0.30966 0.16568 0.62745 0.0
C323 C 0.36563 0.20731 0.63433 0.0
H324 H 0.23809 0.08802 0.64457 0.0
C325 C 0.39144 0.20133 0.66611 0.0
H326 H 0.28798 0.16865 0.6036 0.0
C327 C 0.36218 0.15584 0.69032 0.0
C328 C 0.30634 0.11417 0.68326 0.0
H329 H 0.43449 0.23204 0.67251 0.0
H330 H 0.38391 0.15242 0.71399 0.0
C331 C 0.28076 0.11968 0.6513 0.0
C332 C 0.87348 0.14987 0.67024 0.0
C333 C 0.82983 0.16031 0.67918 0.0
H334 H 0.95518 0.16306 0.6836 0.0
C335 C 0.83622 0.19171 0.71125 0.0
H336 H 0.8703 0.12562 0.64609 0.0
C337 C 0.88472 0.21239 0.73335 0.0
C338 C 0.92881 0.20279 0.72401 0.0
H339 H 0.8037 0.20063 0.71934 0.0
H340 H 0.88837 0.23744 0.75718 0.0
C341 C 0.92215 0.171 0.6921 0.0
C342 C 0.3494 0.15846 0.19736 0.0
C343 C 0.31604 0.10086 0.18839 0.0
H344 H 0.35561 0.23093 0.22453 0.0
C345 C 0.26044 0.07228 0.20127 0.0
H346 H 0.39184 0.18241 0.18743 0.0
C347 C 0.23929 0.10023 0.22296 0.0
C348 C 0.27267 0.15807 0.23167 0.0
H349 H 0.2331 0.02807 0.19452 0.0
H350 H 0.19689 0.07647 0.23297 0.0
C351 C 0.32801 0.18658 0.2183 0.0
C352 C 0.8856 0.18054 0.14945 0.0
C353 C 0.85936 0.211 0.13758 0.0
H354 H 0.88009 0.11102 0.18023 0.0
C355 C 0.80376 0.19106 0.14856 0.0
H356 H 0.92799 0.19354 0.14131 0.0
C357 C 0.77607 0.14313 0.17134 0.0
C358 C 0.8026 0.11282 0.18307 0.0
H359 H 0.78164 0.21247 0.1396 0.0
H360 H 0.73385 0.12998 0.17998 0.0
C361 C 0.8577 0.13227 0.17147 0.0
C362 C 0.90817 0.73222 0.21321 0.0
C363 C 0.93029 0.69724 0.22253 0.0
H364 H 0.8435 0.74011 0.18612 0.0
C365 C 0.90227 0.64108 0.209 0.0
H366 H 0.92725 0.77503 0.22377 0.0
C367 C 0.85394 0.62083 0.1867 0.0
C368 C 0.83136 0.65574 0.17795 0.0
H369 H 0.91735 0.6124 0.21605 0.0
H370 H 0.83424 0.57783 0.17643 0.0
C371 C 0.85933 0.71166 0.19181 0.0
C372 C 0.57371 0.76817 0.88973 0.0
C373 C 0.6071 0.82606 0.89834 0.0
H374 H 0.56739 0.69593 0.86133 0.0
C375 C 0.66235 0.85455 0.88483 0.0
H376 H 0.53137 0.74443 0.89984 0.0
C377 C 0.68363 0.82638 0.86383 0.0
C378 C 0.65025 0.76873 0.85495 0.0
H379 H 0.68995 0.89894 0.89097 0.0
H380 H 0.72601 0.85032 0.85378 0.0
C381 C 0.59475 0.74017 0.868 0.0
C382 C 0.19094 0.79974 0.83863 0.0
C383 C 0.13566 0.77962 0.85008 0.0
H384 H 0.26113 0.86162 0.80872 0.0
C385 C 0.10866 0.80947 0.83832 0.0
H386 H 0.21371 0.77888 0.8474 0.0
C387 C 0.13611 0.85758 0.81562 0.0
C388 C 0.1919 0.87814 0.80478 0.0
H389 H 0.0663 0.79581 0.84685 0.0
H390 H 0.11367 0.87862 0.80661 0.0
C391 C 0.21858 0.84815 0.81673 0.0
C392 C 0.24215 0.39904 0.87954 0.0
C393 C 0.26451 0.36418 0.88861 0.0
H394 H 0.17694 0.40669 0.85305 0.0
C395 C 0.23636 0.30797 0.87516 0.0
H396 H 0.2613 0.44188 0.89006 0.0
C397 C 0.1877 0.28759 0.85316 0.0
C398 C 0.16489 0.32239 0.84468 0.0
H399 H 0.25163 0.27938 0.88202 0.0
H400 H 0.16793 0.24457 0.84291 0.0
C401 C 0.19296 0.37833 0.8585 0.0
C402 C 0.92906 0.40667 0.53578 0.0
C403 C 0.98442 0.43533 0.52247 0.0
H404 H 0.86569 0.41096 0.56759 0.0
C405 C 0.01753 0.49319 0.53088 0.0
H406 H 0.9019 0.36226 0.52947 0.0
C407 C 0.99612 0.52145 0.55169 0.0
C408 C 0.94101 0.49286 0.56544 0.0
H409 H 0.05977 0.5172 0.52062 0.0
H410 H 0.02351 0.566 0.55749 0.0
C411 C 0.9079 0.43478 0.55728 0.0
C412 C 0.55053 0.51444 0.48296 0.0
C413 C 0.52364 0.54415 0.47086 0.0
H414 H 0.54602 0.4456 0.51394 0.0
C415 C 0.46787 0.52352 0.48175 0.0
H416 H 0.59307 0.52796 0.47492 0.0
C417 C 0.44064 0.47564 0.50466 0.0
C418 C 0.46785 0.44608 0.51658 0.0
H419 H 0.44527 0.54435 0.47262 0.0
H420 H 0.39828 0.46194 0.51323 0.0
C421 C 0.52311 0.46624 0.50506 0.0
C422 C 0.56726 0.97487 0.5441 0.0
C423 C 0.59669 0.03172 0.55632 0.0
H424 H 0.49762 0.91076 0.5131 0.0
C425 C 0.57565 0.06725 0.54598 0.0
H426 H 0.58149 0.94578 0.55192 0.0
C427 C 0.52648 0.04657 0.52487 0.0
C428 C 0.49697 0.98985 0.5125 0.0
H429 H 0.59588 0.1107 0.55548 0.0
H430 H 0.5115 0.07548 0.51835 0.0
C431 C 0.51851 0.9544 0.52224 0.0
C432 C 0.19654 0.90999 1.01087 0.0
C433 C 0.24836 0.9346 1.02879 0.0
H434 H 0.13715 0.84079 0.97848 0.0
C435 C 0.28416 0.91228 1.02352 0.0
H436 H 0.16857 0.92679 1.01443 0.0
C437 C 0.2658 0.86237 1.0038 0.0
C438 C 0.21222 0.83538 0.98816 0.0
H439 H 0.32445 0.93062 0.03715 0.0
H440 H 0.29196 0.84312 1.00267 0.0
C441 C 0.17896 0.86115 0.99011 0.0
C442 C 0.11571 0.36474 0.97416 0.0
C443 C 0.08822 0.36854 1.00504 0.0
H444 H 0.19261 0.37709 0.95215 0.0
C445 C 0.11894 0.39186 0.03735 0.0
H446 H 0.09297 0.34708 0.94895 0.0
C447 C 0.17596 0.41002 0.03904 0.0
C448 C 0.2031 0.40416 1.00865 0.0
H449 H 0.09879 0.39597 0.06145 0.0
H450 H 0.19836 0.42707 0.06443 0.0
C451 C 0.17259 0.38177 0.97609 0.0
C452 C 0.73828 0.81488 0.03986 0.0
C453 C 0.71143 0.75962 0.05354 0.0
H454 H 0.72818 0.88313 1.01995 0.0
C455 C 0.6528 0.72847 0.05514 0.0
H456 H 0.78353 0.83947 0.0387 0.0
C457 C 0.62152 0.75402 0.04588 0.0
C458 C 0.6486 0.8101 0.03374 0.0
H459 H 0.63151 0.68591 0.06606 0.0
H460 H 0.57651 0.73069 0.04918 0.0
C461 C 0.70682 0.83969 1.02932 0.0
C462 C 0.73662 0.08023 0.05335 0.0
C463 C 0.69587 0.05993 1.02571 0.0
H464 H 0.81858 0.14446 0.06977 0.0
C465 C 0.70589 0.09118 0.99349 0.0
H466 H 0.73021 0.0564 0.07818 0.0
C467 C 0.75627 0.14113 0.98852 0.0
C468 C 0.79798 0.16077 1.01557 0.0
H469 H 0.6751 0.07626 0.97168 0.0
H470 H 0.76262 0.16405 0.9633 0.0
C471 C 0.78751 0.13009 0.04821 0.0
C472 C 0.96041 0.69628 0.08134 0.0
C473 C 0.90971 0.68243 0.06391 0.0
H474 H 0.03956 0.7 0.07712 0.0
C475 C 0.89916 0.65991 1.02851 0.0
H476 H 0.96902 0.71299 0.10885 0.0
C477 C 0.9395 0.65303 1.01031 0.0
C478 C 0.9904 0.66733 1.02758 0.0
H479 H 0.8602 0.64875 1.01459 0.0
H480 H 0.93104 0.63684 0.98267 0.0
C481 C 1.0003 0.6882 0.06341 0.0
C482 C 0.33065 0.2879 0.09614 0.0
C483 C 0.36167 0.31032 0.06433 0.0
H484 H 0.29163 0.21615 0.13153 0.0
C485 C 0.3825 0.27999 0.04556 0.0
H486 H 0.31389 0.31062 0.11078 0.0
C487 C 0.37043 0.22669 0.0575 0.0
C488 C 0.33618 0.20244 0.08787 0.0
H489 H 0.40656 0.29677 1.02092 0.0
H490 H 0.3856 0.20338 0.04191 0.0
C491 C 0.31741 0.23384 0.10766 0.0
C492 C 0.86258 0.24088 0.34631 0.0
C493 C 0.91393 0.26454 0.36474 0.0
H494 H 0.80333 0.17256 0.31324 0.0
C495 C 0.94897 0.24121 0.36007 0.0
H496 H 0.83519 0.25845 0.34946 0.0
C497 C 0.93032 0.19137 0.3402 0.0
C498 C 0.87731 0.16558 0.32378 0.0
H499 H 0.98884 0.2588 0.37418 0.0
H500 H 0.95578 0.17131 0.33944 0.0
C501 C 0.84478 0.19217 0.32538 0.0
C502 C 0.83731 0.71412 0.31007 0.0
C503 C 0.86764 0.73636 0.34271 0.0
H504 H 0.75791 0.67979 0.28268 0.0
C505 C 0.84039 0.74239 0.37298 0.0
H506 H 0.85742 0.70934 0.2862 0.0
C507 C 0.78344 0.72456 0.37109 0.0
C508 C 0.75288 0.70136 0.33871 0.0
H509 H 0.86264 0.75935 0.39843 0.0
H510 H 0.76321 0.7288 0.39511 0.0
C511 C 0.7805 0.69738 0.30795 0.0
C512 C 0.37003 0.16681 0.35962 0.0
C513 C 0.3123 0.13891 0.36615 0.0
H514 H 0.44643 0.16538 0.36738 0.0
C515 C 0.28526 0.08377 0.38001 0.0
H516 H 0.39143 0.20947 0.3489 0.0
C517 C 0.31627 0.05781 0.38908 0.0
C518 C 0.37466 0.08771 0.38553 0.0
H519 H 0.24061 0.06164 0.38492 0.0
H520 H 0.29524 0.01631 0.40154 0.0
C521 C 0.4013 0.1417 0.36995 0.0
C522 C 0.4535 0.46198 0.3817 0.0
C523 C 0.4635 0.49257 0.34906 0.0
H524 H 0.39683 0.38809 0.41179 0.0
C525 C 0.42158 0.4726 0.32215 0.0
H526 H 0.48475 0.4766 0.40317 0.0
C527 C 0.37147 0.42245 0.32726 0.0
C528 C 0.36192 0.39125 0.35946 0.0
H529 H 0.42753 0.49544 0.29694 0.0
H530 H 0.3405 0.40733 0.30555 0.0
C531 C 0.40288 0.41185 0.38698 0.0
C532 C 0.65788 0.05422 0.36018 0.0
C533 C 0.65438 1.0011 0.35924 0.0
H534 H 0.62179 0.10282 0.37972 0.0
C535 C 0.611 0.95503 0.37724 0.0
H536 H 0.69157 0.09024 0.34653 0.0
C537 C 0.57038 0.96186 0.39531 0.0
C538 C 0.57411 0.01519 0.39643 0.0
H539 H 0.60802 0.91385 0.37668 0.0
H540 H 0.53649 0.9258 0.40877 0.0
C541 C 0.61841 0.06146 0.37917 0.0
C542 C 0.99528 0.61888 0.43028 0.0
C543 C 0.02567 0.64127 0.39824 0.0
H544 H 0.95714 0.54727 0.46583 0.0
C545 C 0.04603 0.61085 0.37907 0.0
H546 H 0.97889 0.64166 0.44524 0.0
C547 C 0.03422 0.55758 0.39091 0.0
C548 C 1.00072 0.53343 0.42159 0.0
H549 H 0.06962 0.62758 0.35426 0.0
H550 H 0.04913 0.53425 0.37508 0.0
C551 C 0.98232 0.56486 0.44171 0.0
C552 C 0.51193 0.52821 0.65691 0.0
C553 C 0.54517 0.50243 0.65482 0.0
H554 H 0.50166 0.59385 0.68134 0.0
C555 C 0.59881 0.52941 0.67037 0.0
H556 H 0.47008 0.50786 0.64534 0.0
C557 C 0.61727 0.57931 0.69013 0.0
C558 C 0.58151 0.60164 0.69553 0.0
H559 H 0.62495 0.51014 0.66915 0.0
H560 H 0.65761 0.59762 0.70369 0.0
C561 C 0.52961 0.57704 0.6777 0.0
C562 C 0.50865 0.07732 0.70688 0.0
C563 C 0.53597 0.07199 0.67641 0.0
H564 H 0.43133 0.06287 0.72928 0.0
C565 C 0.50567 0.05019 0.64372 0.0
H566 H 0.5309 0.09394 0.73237 0.0
C567 C 0.44879 0.03315 0.64173 0.0
C568 C 0.4211 0.03639 0.67267 0.0
H569 H 0.52586 0.04598 0.6197 0.0
H570 H 0.42622 0.01592 0.61641 0.0
C571 C 0.45163 0.05917 0.70512 0.0
C572 C 0.98574 0.39544 0.72247 0.0
C573 C 0.04437 0.42653 0.7209 0.0
H574 H 0.90952 0.39776 0.71638 0.0
C575 C 0.07131 0.48176 0.70718 0.0
H576 H 0.96439 0.35291 0.73342 0.0
C577 C 0.03993 0.50661 0.69656 0.0
C578 C 0.98171 0.47709 0.70093 0.0
H579 H 0.11656 0.50629 0.70605 0.0
H580 H 0.06135 0.55003 0.68715 0.0
C581 C 0.95454 0.42104 0.71312 0.0
C582 C 0.12054 0.79734 0.71529 0.0
C583 C 0.13113 0.82801 0.68264 0.0
H584 H 0.06318 0.72359 0.74519 0.0
C585 C 0.08959 0.80827 0.65548 0.0
H586 H 0.15148 0.81178 0.73693 0.0
C587 C 0.03925 0.75825 0.66036 0.0
C588 C 0.0291 0.72703 0.69259 0.0
H589 H 0.09603 0.83118 0.63024 0.0
H590 H 1.00859 0.74327 0.63846 0.0
C591 C 0.06969 0.7474 0.72034 0.0
C592 C 0.29334 0.36336 0.74826 0.0
C593 C 0.24264 0.34953 0.73083 0.0
H594 H 0.3725 0.3671 0.744 0.0
C595 C 0.23209 0.32709 0.69542 0.0
H596 H 0.30194 0.38 0.77579 0.0
C597 C 0.27244 0.32026 0.67719 0.0
C598 C 0.32334 0.33454 0.69446 0.0
H599 H 0.19312 0.31595 0.68151 0.0
H600 H 0.26398 0.30413 0.64954 0.0
C601 C 0.33324 0.35533 0.7303 0.0
C602 C 0.70357 0.89417 0.72424 0.0
C603 C 0.66949 0.86973 0.75466 0.0
H604 H 0.73949 0.96447 0.68782 0.0
C605 C 0.65085 0.90103 0.77469 0.0
H606 H 0.71866 0.87095 0.70847 0.0
C607 C 0.66401 0.95515 0.76337 0.0
C608 C 0.69485 0.97777 0.73151 0.0
H609 H 0.62521 0.8832 0.79861 0.0
H610 H 0.64733 0.97777 0.7782 0.0
C611 C 0.71558 0.94755 0.7125 0.0
loop_
_geom_bond_atom_site_label_1
_geom_bond_atom_site_label_2
_geom_bond_distance
_geom_bond_site_symmetry_2
_ccdc_geom_bond_type
Co0 O1 2.216 1_545 S
Co0 O2 2.091 . S
Co0 O4 2.004 . S
Co0 O10 2.021 1_545 S
Co0 O12 2.137 . S
Co0 O13 2.244 . S
O1 Co0 2.216 1_565 S
O1 C8 1.247 1_565 S
O2 Co0 2.091 . S
O2 C8 1.261 . S
C3 O12 1.247 . S
C3 O13 1.272 . S
O4 Co0 2.004 . S
O4 C9 1.259 . S
Co5 O6 2.061 . S
Co5 O11 2.052 1_545 S
Co5 O13 2.135 . S
O6 Co5 2.061 . S
O6 C9 1.235 . S
C7 O10 1.238 . S
C7 O11 1.241 . S
C8 O1 1.247 1_545 S
C8 O2 1.261 . S
C9 O4 1.259 . S
C9 O6 1.235 . S
O10 Co0 2.021 1_565 S
O10 C7 1.238 . S
O11 Co5 2.052 1_565 S
O11 C7 1.241 . S
O12 Co0 2.137 . S
O12 C3 1.247 . S
O13 Co0 2.244 . S
O13 C3 1.272 . S
O13 Co5 2.135 . S
Co14 O15 2.216 . S
Co14 O16 2.091 . S
Co14 O18 2.004 1_655 S
Co14 O24 2.021 . S
Co14 O26 2.137 . S
Co14 O27 2.244 . S
O15 Co14 2.216 . S
O15 C22 1.247 . S
O16 Co14 2.091 . S
O16 C22 1.261 . S
C17 O26 1.247 . S
C17 O27 1.272 . S
O18 Co14 2.004 1_455 S
O18 C23 1.259 . S
Co19 O20 2.061 1_655 S
Co19 O25 2.052 . S
Co19 O27 2.135 1_556 S
O20 Co19 2.061 1_455 S
O20 C23 1.235 1_556 S
C21 O24 1.238 . S
C21 O25 1.241 1_554 S
C22 O15 1.247 . S
C22 O16 1.261 . S
C23 O18 1.259 . S
C23 O20 1.235 1_554 S
O24 Co14 2.021 . S
O24 C21 1.238 . S
O25 Co19 2.052 . S
O25 C21 1.241 1_556 S
O26 Co14 2.137 . S
O26 C17 1.247 . S
O27 Co14 2.244 . S
O27 C17 1.272 . S
O27 Co19 2.135 1_554 S
Co28 O29 2.216 . S
Co28 O30 2.091 . S
Co28 O32 2.004 . S
Co28 O38 2.021 . S
Co28 O40 2.137 . S
Co28 O41 2.244 . S
O29 Co28 2.216 . S
O29 C36 1.247 . S
O30 Co28 2.091 . S
O30 C36 1.261 . S
C31 O40 1.247 . S
C31 O41 1.272 . S
O32 Co28 2.004 . S
O32 C37 1.259 . S
Co33 O34 2.061 . S
Co33 O39 2.052 . S
Co33 O41 2.135 . S
O34 Co33 2.061 . S
O34 C37 1.235 . S
C35 O38 1.238 . S
C35 O39 1.241 . S
C36 O29 1.247 . S
C36 O30 1.261 . S
C37 O32 1.259 . S
C37 O34 1.235 . S
O38 Co28 2.021 . S
O38 C35 1.238 . S
O39 Co33 2.052 . S
O39 C35 1.241 . S
O40 Co28 2.137 . S
O40 C31 1.247 . S
O41 Co28 2.244 . S
O41 C31 1.272 . S
O41 Co33 2.135 . S
Co42 O43 2.216 . S
Co42 O44 2.091 . S
Co42 O46 2.004 1_565 S
Co42 O52 2.021 . S
Co42 O54 2.137 . S
Co42 O55 2.244 . S
O43 Co42 2.216 . S
O43 C50 1.247 . S
O44 Co42 2.091 . S
O44 C50 1.261 . S
C45 O54 1.247 . S
C45 O55 1.272 . S
O46 Co42 2.004 1_545 S
O46 C51 1.259 . S
Co47 O48 2.061 1_565 S
Co47 O53 2.052 . S
Co47 O55 2.135 1_554 S
O48 Co47 2.061 1_545 S
O48 C51 1.235 1_554 S
C49 O52 1.238 . S
C49 O53 1.241 1_556 S
C50 O43 1.247 . S
C50 O44 1.261 . S
C51 O46 1.259 . S
C51 O48 1.235 1_556 S
O52 Co42 2.021 . S
O52 C49 1.238 . S
O53 Co47 2.052 . S
O53 C49 1.241 1_554 S
O54 Co42 2.137 . S
O54 C45 1.247 . S
O55 Co42 2.244 . S
O55 C45 1.272 . S
O55 Co47 2.135 1_556 S
Co56 O57 2.216 . S
Co56 O58 2.091 . S
Co56 O60 2.004 1_455 S
Co56 O66 2.021 . S
Co56 O68 2.137 . S
Co56 O69 2.244 . S
O57 Co56 2.216 . S
O57 C64 1.247 . S
O58 Co56 2.091 . S
O58 C64 1.261 . S
C59 O68 1.247 . S
C59 O69 1.272 . S
O60 Co56 2.004 1_655 S
O60 C65 1.259 . S
Co61 O62 2.061 1_455 S
Co61 O67 2.052 . S
Co61 O69 2.135 1_554 S
O62 Co61 2.061 1_655 S
O62 C65 1.235 1_554 S
C63 O66 1.238 . S
C63 O67 1.241 1_556 S
C64 O57 1.247 . S
C64 O58 1.261 . S
C65 O60 1.259 . S
C65 O62 1.235 1_556 S
O66 Co56 2.021 . S
O66 C63 1.238 . S
O67 Co61 2.052 . S
O67 C63 1.241 1_554 S
O68 Co56 2.137 . S
O68 C59 1.247 . S
O69 Co56 2.244 . S
O69 C59 1.272 . S
O69 Co61 2.135 1_556 S
Co70 O71 2.216 . S
Co70 O72 2.091 . S
Co70 O74 2.004 . S
Co70 O80 2.021 . S
Co70 O82 2.137 . S
Co70 O83 2.244 . S
O71 Co70 2.216 . S
O71 C78 1.247 . S
O72 Co70 2.091 . S
O72 C78 1.261 . S
C73 O82 1.247 . S
C73 O83 1.272 . S
O74 Co70 2.004 . S
O74 C79 1.259 . S
Co75 O76 2.061 . S
Co75 O81 2.052 . S
Co75 O83 2.135 1_554 S
O76 Co75 2.061 . S
O76 C79 1.235 1_554 S
C77 O80 1.238 . S
C77 O81 1.241 1_556 S
C78 O71 1.247 . S
C78 O72 1.261 . S
C79 O74 1.259 . S
C79 O76 1.235 1_556 S
O80 Co70 2.021 . S
O80 C77 1.238 . S
O81 Co75 2.052 . S
O81 C77 1.241 1_554 S
O82 Co70 2.137 . S
O82 C73 1.247 . S
O83 Co70 2.244 . S
O83 C73 1.272 . S
O83 Co75 2.135 1_556 S
Co84 O85 2.216 . S
Co84 O86 2.091 . S
Co84 O88 2.004 . S
Co84 O94 2.021 1_455 S
Co84 O96 2.137 . S
Co84 O97 2.244 1_455 S
O85 Co84 2.216 . S
O85 C92 1.247 . S
O86 Co84 2.091 . S
O86 C92 1.261 . S
C87 O96 1.247 . S
C87 O97 1.272 1_455 S
O88 Co84 2.004 . S
O88 C93 1.259 1_455 S
Co89 O90 2.061 . S
Co89 O95 2.052 . S
Co89 O97 2.135 . S
O90 Co89 2.061 . S
O90 C93 1.235 . S
C91 O94 1.238 . S
C91 O95 1.241 . S
C92 O85 1.247 . S
C92 O86 1.261 . S
C93 O88 1.259 1_655 S
C93 O90 1.235 . S
O94 Co84 2.021 1_655 S
O94 C91 1.238 . S
O95 Co89 2.052 . S
O95 C91 1.241 . S
O96 Co84 2.137 . S
O96 C87 1.247 . S
O97 Co84 2.244 1_655 S
O97 C87 1.272 1_655 S
O97 Co89 2.135 . S
Co98 O99 2.216 . S
Co98 O100 2.091 . S
Co98 O102 2.004 . S
Co98 O108 2.021 . S
Co98 O110 2.137 . S
Co98 O111 2.244 . S
O99 Co98 2.216 . S
O99 C106 1.247 . S
O100 Co98 2.091 . S
O100 C106 1.261 . S
C101 O110 1.247 . S
C101 O111 1.272 . S
O102 Co98 2.004 . S
O102 C107 1.259 . S
Co103 O104 2.061 . S
Co103 O109 2.052 . S
Co103 O111 2.135 . S
O104 Co103 2.061 . S
O104 C107 1.235 . S
C105 O108 1.238 . S
C105 O109 1.241 . S
C106 O99 1.247 . S
C106 O100 1.261 . S
C107 O102 1.259 . S
C107 O104 1.235 . S
O108 Co98 2.021 . S
O108 C105 1.238 . S
O109 Co103 2.052 . S
O109 C105 1.241 . S
O110 Co98 2.137 . S
O110 C101 1.247 . S
O111 Co98 2.244 . S
O111 C101 1.272 . S
O111 Co103 2.135 . S
Co112 O113 2.216 . S
Co112 O114 2.091 . S
Co112 O116 2.004 . S
Co112 O122 2.021 1_565 S
Co112 O124 2.137 . S
Co112 O125 2.244 1_565 S
O113 Co112 2.216 . S
O113 C120 1.247 . S
O114 Co112 2.091 . S
O114 C120 1.261 . S
C115 O124 1.247 . S
C115 O125 1.272 1_565 S
O116 Co112 2.004 . S
O116 C121 1.259 1_565 S
Co117 O118 2.061 . S
Co117 O123 2.052 . S
Co117 O125 2.135 . S
O118 Co117 2.061 . S
O118 C121 1.235 . S
C119 O122 1.238 . S
C119 O123 1.241 . S
C120 O113 1.247 . S
C120 O114 1.261 . S
C121 O116 1.259 1_545 S
C121 O118 1.235 . S
O122 Co112 2.021 1_545 S
O122 C119 1.238 . S
O123 Co117 2.052 . S
O123 C119 1.241 . S
O124 Co112 2.137 . S
O124 C115 1.247 . S
O125 Co112 2.244 1_545 S
O125 C115 1.272 1_545 S
O125 Co117 2.135 . S
Co126 O127 2.216 . S
Co126 O128 2.091 . S
Co126 O130 2.004 . S
Co126 O136 2.021 . S
Co126 O138 2.137 . S
Co126 O139 2.244 . S
O127 Co126 2.216 . S
O127 C134 1.247 . S
O128 Co126 2.091 . S
O128 C134 1.261 . S
C129 O138 1.247 . S
C129 O139 1.272 . S
O130 Co126 2.004 . S
O130 C135 1.259 . S
Co131 O132 2.061 . S
Co131 O137 2.052 . S
Co131 O139 2.135 . S
O132 Co131 2.061 . S
O132 C135 1.235 . S
C133 O136 1.238 . S
C133 O137 1.241 . S
C134 O127 1.247 . S
C134 O128 1.261 . S
C135 O130 1.259 . S
C135 O132 1.235 . S
O136 Co126 2.021 . S
O136 C133 1.238 . S
O137 Co131 2.052 . S
O137 C133 1.241 . S
O138 Co126 2.137 . S
O138 C129 1.247 . S
O139 Co126 2.244 . S
O139 C129 1.272 . S
O139 Co131 2.135 . S
Co140 O141 2.216 . S
Co140 O142 2.091 . S
Co140 O144 2.004 . S
Co140 O150 2.021 . S
Co140 O152 2.137 1_545 S
Co140 O153 2.244 1_545 S
O141 Co140 2.216 . S
O141 C148 1.247 . S
O142 Co140 2.091 . S
O142 C148 1.261 . S
C143 O152 1.247 . S
C143 O153 1.272 . S
O144 Co140 2.004 . S
O144 C149 1.259 . S
Co145 O146 2.061 . S
Co145 O151 2.052 . S
Co145 O153 2.135 1_545 S
O146 Co145 2.061 . S
O146 C149 1.235 . S
C147 O150 1.238 . S
C147 O151 1.241 . S
C148 O141 1.247 . S
C148 O142 1.261 . S
C149 O144 1.259 . S
C149 O146 1.235 . S
O150 Co140 2.021 . S
O150 C147 1.238 . S
O151 Co145 2.052 . S
O151 C147 1.241 . S
O152 Co140 2.137 1_565 S
O152 C143 1.247 . S
O153 Co140 2.244 1_565 S
O153 C143 1.272 . S
O153 Co145 2.135 1_565 S
Co154 O155 2.216 . S
Co154 O156 2.091 . S
Co154 O158 2.004 . S
Co154 O164 2.021 . S
Co154 O166 2.137 1_655 S
Co154 O167 2.244 . S
O155 Co154 2.216 . S
O155 C162 1.247 . S
O156 Co154 2.091 . S
O156 C162 1.261 . S
C157 O166 1.247 . S
C157 O167 1.272 1_455 S
O158 Co154 2.004 . S
O158 C163 1.259 . S
Co159 O160 2.061 . S
Co159 O165 2.052 . S
Co159 O167 2.135 . S
O160 Co159 2.061 . S
O160 C163 1.235 . S
C161 O164 1.238 . S
C161 O165 1.241 . S
C162 O155 1.247 . S
C162 O156 1.261 . S
C163 O158 1.259 . S
C163 O160 1.235 . S
O164 Co154 2.021 . S
O164 C161 1.238 . S
O165 Co159 2.052 . S
O165 C161 1.241 . S
O166 Co154 2.137 1_455 S
O166 C157 1.247 . S
O167 Co154 2.244 . S
O167 C157 1.272 1_655 S
O167 Co159 2.135 . S
Co168 O169 2.216 . S
Co168 O170 2.091 . S
Co168 O172 2.004 . S
Co168 O178 2.021 . S
Co168 O180 2.137 . S
Co168 O181 2.244 . S
O169 Co168 2.216 . S
O169 C176 1.247 . S
O170 Co168 2.091 . S
O170 C176 1.261 . S
C171 O180 1.247 . S
C171 O181 1.272 . S
O172 Co168 2.004 . S
O172 C177 1.259 . S
Co173 O174 2.061 . S
Co173 O179 2.052 . S
Co173 O181 2.135 . S
O174 Co173 2.061 . S
O174 C177 1.235 . S
C175 O178 1.238 . S
C175 O179 1.241 . S
C176 O169 1.247 . S
C176 O170 1.261 . S
C177 O172 1.259 . S
C177 O174 1.235 . S
O178 Co168 2.021 . S
O178 C175 1.238 . S
O179 Co173 2.052 . S
O179 C175 1.241 . S
O180 Co168 2.137 . S
O180 C171 1.247 . S
O181 Co168 2.244 . S
O181 C171 1.272 . S
O181 Co173 2.135 . S
Co182 O183 2.216 . S
Co182 O184 2.091 . S
Co182 O186 2.004 . S
Co182 O192 2.021 . S
Co182 O194 2.137 1_565 S
Co182 O195 2.244 1_565 S
O183 Co182 2.216 . S
O183 C190 1.247 . S
O184 Co182 2.091 . S
O184 C190 1.261 . S
C185 O194 1.247 . S
C185 O195 1.272 . S
O186 Co182 2.004 . S
O186 C191 1.259 . S
Co187 O188 2.061 . S
Co187 O193 2.052 . S
Co187 O195 2.135 1_565 S
O188 Co187 2.061 . S
O188 C191 1.235 . S
C189 O192 1.238 . S
C189 O193 1.241 . S
C190 O183 1.247 . S
C190 O184 1.261 . S
C191 O186 1.259 . S
C191 O188 1.235 . S
O192 Co182 2.021 . S
O192 C189 1.238 . S
O193 Co187 2.052 . S
O193 C189 1.241 . S
O194 Co182 2.137 1_545 S
O194 C185 1.247 . S
O195 Co182 2.244 1_545 S
O195 C185 1.272 . S
O195 Co187 2.135 1_545 S
Co196 O197 2.216 1_455 S
Co196 O198 2.091 1_455 S
Co196 O200 2.004 . S
Co196 O206 2.021 . S
Co196 O208 2.137 . S
Co196 O209 2.244 . S
O197 Co196 2.216 1_655 S
O197 C204 1.247 . S
O198 Co196 2.091 1_655 S
O198 C204 1.261 . S
C199 O208 1.247 . S
C199 O209 1.272 . S
O200 Co196 2.004 . S
O200 C205 1.259 . S
Co201 O202 2.061 . S
Co201 O207 2.052 . S
Co201 O209 2.135 . S
O202 Co201 2.061 . S
O202 C205 1.235 . S
C203 O206 1.238 . S
C203 O207 1.241 . S
C204 O197 1.247 . S
C204 O198 1.261 . S
C205 O200 1.259 . S
C205 O202 1.235 . S
O206 Co196 2.021 . S
O206 C203 1.238 . S
O207 Co201 2.052 . S
O207 C203 1.241 . S
O208 Co196 2.137 . S
O208 C199 1.247 . S
O209 Co196 2.244 . S
O209 C199 1.272 . S
O209 Co201 2.135 . S
Co210 O211 2.211 1_455 S
Co210 O212 2.098 . S
Co210 O214 2.012 . S
Co210 O220 2.036 . S
Co210 O222 2.118 1_455 S
Co210 O223 2.229 1_455 S
O211 Co210 2.211 1_655 S
O211 C218 1.247 . S
O212 Co210 2.098 . S
O212 C218 1.261 1_455 S
C213 O222 1.247 . S
C213 O223 1.272 . S
O214 Co210 2.012 . S
O214 C219 1.259 . S
Co215 O216 2.061 1_655 S
Co215 O221 2.052 . S
Co215 O223 2.135 . S
O216 Co215 2.061 1_455 S
O216 C219 1.235 . S
C217 O220 1.238 . S
C217 O221 1.241 1_455 S
C218 O211 1.247 . S
C218 O212 1.261 1_655 S
C219 O214 1.259 . S
C219 O216 1.235 . S
O220 Co210 2.036 . S
O220 C217 1.238 . S
O221 Co215 2.052 . S
O221 C217 1.241 1_655 S
O222 Co210 2.118 1_655 S
O222 C213 1.247 . S
O223 Co210 2.229 1_655 S
O223 C213 1.272 . S
O223 Co215 2.135 . S
Co224 O225 2.216 . S
Co224 O226 2.091 . S
Co224 O228 2.004 . S
Co224 O234 2.021 . S
Co224 O236 2.137 . S
Co224 O237 2.244 . S
O225 Co224 2.216 . S
O225 C232 1.247 . S
O226 Co224 2.091 . S
O226 C232 1.261 . S
C227 O236 1.247 . S
C227 O237 1.272 . S
O228 Co224 2.004 . S
O228 C233 1.259 . S
Co229 O230 2.061 . S
Co229 O235 2.052 . S
Co229 O237 2.135 . S
O230 Co229 2.061 . S
O230 C233 1.235 . S
C231 O234 1.238 . S
C231 O235 1.241 . S
C232 O225 1.247 . S
C232 O226 1.261 . S
C233 O228 1.259 . S
C233 O230 1.235 . S
O234 Co224 2.021 . S
O234 C231 1.238 . S
O235 Co229 2.052 . S
O235 C231 1.241 . S
O236 Co224 2.137 . S
O236 C227 1.247 . S
O237 Co224 2.244 . S
O237 C227 1.272 . S
O237 Co229 2.135 . S
Co238 O239 2.216 1_565 S
Co238 O240 2.091 . S
Co238 O242 2.004 . S
Co238 O248 2.021 . S
Co238 O250 2.137 1_565 S
Co238 O251 2.244 1_565 S
O239 Co238 2.216 1_545 S
O239 C246 1.247 . S
O240 Co238 2.091 . S
O240 C246 1.261 1_565 S
C241 O250 1.247 . S
C241 O251 1.272 . S
O242 Co238 2.004 . S
O242 C247 1.259 . S
Co243 O244 2.061 1_545 S
Co243 O249 2.052 . S
Co243 O251 2.135 . S
O244 Co243 2.061 1_565 S
O244 C247 1.235 . S
C245 O248 1.238 . S
C245 O249 1.241 1_565 S
C246 O239 1.247 . S
C246 O240 1.261 1_545 S
C247 O242 1.259 . S
C247 O244 1.235 . S
O248 Co238 2.021 . S
O248 C245 1.238 . S
O249 Co243 2.052 . S
O249 C245 1.241 1_545 S
O250 Co238 2.137 1_545 S
O250 C241 1.247 . S
O251 Co238 2.244 1_545 S
O251 C241 1.272 . S
O251 Co243 2.135 . S
C252 C253 1.387 1_566 S
C252 H256 0.950 . S
C252 C261 1.390 . S
C253 C252 1.387 1_544 S
C253 C255 1.387 . S
H254 C261 0.950 . S
C255 C253 1.387 . S
C255 C257 1.390 . S
C255 H259 0.950 . S
H256 C252 0.950 . S
C257 C255 1.390 . S
C257 C258 1.387 1_544 S
C257 H260 0.950 . S
C258 C257 1.387 1_566 S
C258 C261 1.387 . S
H259 C255 0.950 . S
H260 C257 0.950 . S
C261 C252 1.390 . S
C261 H254 0.950 . S
C261 C258 1.387 . S
C262 C263 1.387 1_455 S
C262 H266 0.950 . S
C262 C271 1.390 1_554 S
C263 C262 1.387 1_655 S
C263 C265 1.387 . S
H264 C271 0.950 . S
C265 C263 1.387 . S
C265 C267 1.390 1_554 S
C265 H269 0.950 . S
H266 C262 0.950 . S
C267 C265 1.390 1_556 S
C267 C268 1.387 1_655 S
C267 H270 0.950 . S
C268 C267 1.387 1_455 S
C268 C271 1.387 . S
H269 C265 0.950 . S
H270 C267 0.950 . S
C271 C262 1.390 1_556 S
C271 H264 0.950 . S
C271 C268 1.387 . S
C272 C273 1.387 1_554 S
C272 H276 0.950 . S
C272 C281 1.390 . S
C273 C272 1.387 1_556 S
C273 C275 1.387 . S
H274 C281 0.950 . S
C275 C273 1.387 . S
C275 C277 1.390 . S
C275 H279 0.950 . S
H276 C272 0.950 . S
C277 C275 1.390 . S
C277 C278 1.387 1_556 S
C277 H280 0.950 . S
C278 C277 1.387 1_554 S
C278 C281 1.387 . S
H279 C275 0.950 . S
H280 C277 0.950 . S
C281 C272 1.390 . S
C281 H274 0.950 . S
C281 C278 1.387 . S
C282 C283 1.387 . S
C282 H286 0.950 . S
C282 C291 1.390 . S
C283 C282 1.387 . S
C283 C285 1.387 . S
H284 C291 0.950 . S
C285 C283 1.387 . S
C285 C287 1.390 . S
C285 H289 0.950 . S
H286 C282 0.950 . S
C287 C285 1.390 . S
C287 C288 1.387 . S
C287 H290 0.950 . S
C288 C287 1.387 . S
C288 C291 1.387 . S
H289 C285 0.950 . S
H290 C287 0.950 . S
C291 C282 1.390 . S
C291 H284 0.950 . S
C291 C288 1.387 . S
C292 C293 1.387 . S
C292 H296 0.950 . S
C292 C301 1.390 . S
C293 C292 1.387 . S
C293 C295 1.387 . S
H294 C301 0.950 . S
C295 C293 1.387 . S
C295 C297 1.390 . S
C295 H299 0.950 . S
H296 C292 0.950 . S
C297 C295 1.390 . S
C297 C298 1.387 . S
C297 H300 0.950 . S
C298 C297 1.387 . S
C298 C301 1.387 . S
H299 C295 0.950 . S
H300 C297 0.950 . S
C301 C292 1.390 . S
C301 H294 0.950 . S
C301 C298 1.387 . S
C302 C303 1.387 . S
C302 H306 0.950 . S
C302 C311 1.390 . S
C303 C302 1.387 . S
C303 C305 1.387 . S
H304 C311 0.950 . S
C305 C303 1.387 . S
C305 C307 1.390 . S
C305 H309 0.950 . S
H306 C302 0.950 . S
C307 C305 1.390 . S
C307 C308 1.387 . S
C307 H310 0.950 . S
C308 C307 1.387 . S
C308 C311 1.387 . S
H309 C305 0.950 . S
H310 C307 0.950 . S
C311 C302 1.390 . S
C311 H304 0.950 . S
C311 C308 1.387 . S
C312 C313 1.387 . S
C312 H316 0.950 . S
C312 C321 1.390 . S
C313 C312 1.387 . S
C313 C315 1.387 . S
H314 C321 0.950 . S
C315 C313 1.387 . S
C315 C317 1.390 . S
C315 H319 0.950 . S
H316 C312 0.950 . S
C317 C315 1.390 . S
C317 C318 1.387 . S
C317 H320 0.950 . S
C318 C317 1.387 . S
C318 C321 1.387 . S
H319 C315 0.950 . S
H320 C317 0.950 . S
C321 C312 1.390 . S
C321 H314 0.950 . S
C321 C318 1.387 . S
C322 C323 1.387 . S
C322 H326 0.950 . S
C322 C331 1.390 . S
C323 C322 1.387 . S
C323 C325 1.387 . S
H324 C331 0.950 . S
C325 C323 1.387 . S
C325 C327 1.390 . S
C325 H329 0.950 . S
H326 C322 0.950 . S
C327 C325 1.390 . S
C327 C328 1.387 . S
C327 H330 0.950 . S
C328 C327 1.387 . S
C328 C331 1.387 . S
H329 C325 0.950 . S
H330 C327 0.950 . S
C331 C322 1.390 . S
C331 H324 0.950 . S
C331 C328 1.387 . S
C332 C333 1.387 . S
C332 H336 0.950 . S
C332 C341 1.390 . S
C333 C332 1.387 . S
C333 C335 1.387 . S
H334 C341 0.950 . S
C335 C333 1.387 . S
C335 C337 1.390 . S
C335 H339 0.950 . S
H336 C332 0.950 . S
C337 C335 1.390 . S
C337 C338 1.387 . S
C337 H340 0.950 . S
C338 C337 1.387 . S
C338 C341 1.387 . S
H339 C335 0.950 . S
H340 C337 0.950 . S
C341 C332 1.390 . S
C341 H334 0.950 . S
C341 C338 1.387 . S
C342 C343 1.387 . S
C342 H346 0.950 . S
C342 C351 1.390 . S
C343 C342 1.387 . S
C343 C345 1.387 . S
H344 C351 0.950 . S
C345 C343 1.387 . S
C345 C347 1.390 . S
C345 H349 0.950 . S
H346 C342 0.950 . S
C347 C345 1.390 . S
C347 C348 1.387 . S
C347 H350 0.950 . S
C348 C347 1.387 . S
C348 C351 1.387 . S
H349 C345 0.950 . S
H350 C347 0.950 . S
C351 C342 1.390 . S
C351 H344 0.950 . S
C351 C348 1.387 . S
C352 C353 1.387 . S
C352 H356 0.950 . S
C352 C361 1.390 . S
C353 C352 1.387 . S
C353 C355 1.387 . S
H354 C361 0.950 . S
C355 C353 1.387 . S
C355 C357 1.390 . S
C355 H359 0.950 . S
H356 C352 0.950 . S
C357 C355 1.390 . S
C357 C358 1.387 . S
C357 H360 0.950 . S
C358 C357 1.387 . S
C358 C361 1.387 . S
H359 C355 0.950 . S
H360 C357 0.950 . S
C361 C352 1.390 . S
C361 H354 0.950 . S
C361 C358 1.387 . S
C362 C363 1.387 . S
C362 H366 0.950 . S
C362 C371 1.390 . S
C363 C362 1.387 . S
C363 C365 1.387 . S
H364 C371 0.950 . S
C365 C363 1.387 . S
C365 C367 1.390 . S
C365 H369 0.950 . S
H366 C362 0.950 . S
C367 C365 1.390 . S
C367 C368 1.387 . S
C367 H370 0.950 . S
C368 C367 1.387 . S
C368 C371 1.387 . S
H369 C365 0.950 . S
H370 C367 0.950 . S
C371 C362 1.390 . S
C371 H364 0.950 . S
C371 C368 1.387 . S
C372 C373 1.387 . S
C372 H376 0.950 . S
C372 C381 1.390 . S
C373 C372 1.387 . S
C373 C375 1.387 . S
H374 C381 0.950 . S
C375 C373 1.387 . S
C375 C377 1.390 . S
C375 H379 0.950 . S
H376 C372 0.950 . S
C377 C375 1.390 . S
C377 C378 1.387 . S
C377 H380 0.950 . S
C378 C377 1.387 . S
C378 C381 1.387 . S
H379 C375 0.950 . S
H380 C377 0.950 . S
C381 C372 1.390 . S
C381 H374 0.950 . S
C381 C378 1.387 . S
C382 C383 1.387 . S
C382 H386 0.950 . S
C382 C391 1.390 . S
C383 C382 1.387 . S
C383 C385 1.387 . S
H384 C391 0.950 . S
C385 C383 1.387 . S
C385 C387 1.390 . S
C385 H389 0.950 . S
H386 C382 0.950 . S
C387 C385 1.390 . S
C387 C388 1.387 . S
C387 H390 0.950 . S
C388 C387 1.387 . S
C388 C391 1.387 . S
H389 C385 0.950 . S
H390 C387 0.950 . S
C391 C382 1.390 . S
C391 H384 0.950 . S
C391 C388 1.387 . S
C392 C393 1.387 . S
C392 H396 0.950 . S
C392 C401 1.390 . S
C393 C392 1.387 . S
C393 C395 1.387 . S
H394 C401 0.950 . S
C395 C393 1.387 . S
C395 C397 1.390 . S
C395 H399 0.950 . S
H396 C392 0.950 . S
C397 C395 1.390 . S
C397 C398 1.387 . S
C397 H400 0.950 . S
C398 C397 1.387 . S
C398 C401 1.387 . S
H399 C395 0.950 . S
H400 C397 0.950 . S
C401 C392 1.390 . S
C401 H394 0.950 . S
C401 C398 1.387 . S
C402 C403 1.387 1_655 S
C402 H406 0.950 . S
C402 C411 1.390 . S
C403 C402 1.387 1_455 S
C403 C405 1.387 . S
H404 C411 0.950 . S
C405 C403 1.387 . S
C405 C407 1.390 . S
C405 H409 0.950 . S
H406 C402 0.950 . S
C407 C405 1.390 . S
C407 C408 1.387 1_455 S
C407 H410 0.950 . S
C408 C407 1.387 1_655 S
C408 C411 1.387 . S
H409 C405 0.950 . S
H410 C407 0.950 . S
C411 C402 1.390 . S
C411 H404 0.950 . S
C411 C408 1.387 . S
C412 C413 1.387 . S
C412 H416 0.950 . S
C412 C421 1.390 . S
C413 C412 1.387 . S
C413 C415 1.387 . S
H414 C421 0.950 . S
C415 C413 1.387 . S
C415 C417 1.390 . S
C415 H419 0.950 . S
H416 C412 0.950 . S
C417 C415 1.390 . S
C417 C418 1.387 . S
C417 H420 0.950 . S
C418 C417 1.387 . S
C418 C421 1.387 . S
H419 C415 0.950 . S
H420 C417 0.950 . S
C421 C412 1.390 . S
C421 H414 0.950 . S
C421 C418 1.387 . S
C422 C423 1.387 1_565 S
C422 H426 0.950 . S
C422 C431 1.390 . S
C423 C422 1.387 1_545 S
C423 C425 1.387 . S
H424 C431 0.950 . S
C425 C423 1.387 . S
C425 C427 1.390 . S
C425 H429 0.950 . S
H426 C422 0.950 . S
C427 C425 1.390 . S
C427 C428 1.387 1_545 S
C427 H430 0.950 . S
C428 C427 1.387 1_565 S
C428 C431 1.387 . S
H429 C425 0.950 . S
H430 C427 0.950 . S
C431 C422 1.390 . S
C431 H424 0.950 . S
C431 C428 1.387 . S
C432 C433 1.387 . S
C432 H436 0.950 . S
C432 C441 1.390 1_554 S
C433 C432 1.387 . S
C433 C435 1.387 . S
H434 C441 0.950 . S
C435 C433 1.387 . S
C435 C437 1.390 . S
C435 H439 0.950 . S
H436 C432 0.950 . S
C437 C435 1.390 . S
C437 C438 1.387 1_554 S
C437 H440 0.950 . S
C438 C437 1.387 1_556 S
C438 C441 1.387 . S
H439 C435 0.950 . S
H440 C437 0.950 . S
C441 C432 1.390 1_556 S
C441 H434 0.950 . S
C441 C438 1.387 . S
C442 C443 1.387 . S
C442 H446 0.950 . S
C442 C451 1.390 1_554 S
C443 C442 1.387 . S
C443 C445 1.387 . S
H444 C451 0.950 . S
C445 C443 1.387 . S
C445 C447 1.390 1_554 S
C445 H449 0.950 . S
H446 C442 0.950 . S
C447 C445 1.390 1_556 S
C447 C448 1.387 . S
C447 H450 0.950 . S
C448 C447 1.387 . S
C448 C451 1.387 . S
H449 C445 0.950 . S
H450 C447 0.950 . S
C451 C442 1.390 1_556 S
C451 H444 0.950 . S
C451 C448 1.387 . S
C452 C453 1.387 . S
C452 H456 0.950 . S
C452 C461 1.390 . S
C453 C452 1.387 . S
C453 C455 1.387 1_554 S
H454 C461 0.950 . S
C455 C453 1.387 1_556 S
C455 C457 1.390 . S
C455 H459 0.950 . S
H456 C452 0.950 . S
C457 C455 1.390 . S
C457 C458 1.387 . S
C457 H460 0.950 . S
C458 C457 1.387 . S
C458 C461 1.387 1_556 S
H459 C455 0.950 . S
H460 C457 0.950 . S
C461 C452 1.390 . S
C461 H454 0.950 . S
C461 C458 1.387 1_554 S
C462 C463 1.387 1_554 S
C462 H466 0.950 . S
C462 C471 1.390 . S
C463 C462 1.387 1_556 S
C463 C465 1.387 . S
H464 C471 0.950 . S
C465 C463 1.387 . S
C465 C467 1.390 . S
C465 H469 0.950 . S
H466 C462 0.950 . S
C467 C465 1.390 . S
C467 C468 1.387 1_556 S
C467 H470 0.950 . S
C468 C467 1.387 1_554 S
C468 C471 1.387 . S
H469 C465 0.950 . S
H470 C467 0.950 . S
C471 C462 1.390 . S
C471 H464 0.950 . S
C471 C468 1.387 . S
C472 C473 1.387 . S
C472 H476 0.950 . S
C472 C481 1.390 . S
C473 C472 1.387 . S
C473 C475 1.387 1_554 S
H474 C481 0.950 . S
C475 C473 1.387 1_556 S
C475 C477 1.390 . S
C475 H479 0.950 . S
H476 C472 0.950 . S
C477 C475 1.390 . S
C477 C478 1.387 . S
C477 H480 0.950 . S
C478 C477 1.387 . S
C478 C481 1.387 1_556 S
H479 C475 0.950 . S
H480 C477 0.950 . S
C481 C472 1.390 . S
C481 H474 0.950 . S
C481 C478 1.387 1_554 S
C482 C483 1.387 . S
C482 H486 0.950 . S
C482 C491 1.390 . S
C483 C482 1.387 . S
C483 C485 1.387 1_556 S
H484 C491 0.950 . S
C485 C483 1.387 1_554 S
C485 C487 1.390 . S
C485 H489 0.950 . S
H486 C482 0.950 . S
C487 C485 1.390 . S
C487 C488 1.387 . S
C487 H490 0.950 . S
C488 C487 1.387 . S
C488 C491 1.387 1_554 S
H489 C485 0.950 . S
H490 C487 0.950 . S
C491 C482 1.390 . S
C491 H484 0.950 . S
C491 C488 1.387 1_556 S
C492 C493 1.387 . S
C492 H496 0.950 . S
C492 C501 1.390 . S
C493 C492 1.387 . S
C493 C495 1.387 . S
H494 C501 0.950 . S
C495 C493 1.387 . S
C495 C497 1.390 . S
C495 H499 0.950 . S
H496 C492 0.950 . S
C497 C495 1.390 . S
C497 C498 1.387 . S
C497 H500 0.950 . S
C498 C497 1.387 . S
C498 C501 1.387 . S
H499 C495 0.950 . S
H500 C497 0.950 . S
C501 C492 1.390 . S
C501 H494 0.950 . S
C501 C498 1.387 . S
C502 C503 1.387 . S
C502 H506 0.950 . S
C502 C511 1.390 . S
C503 C502 1.387 . S
C503 C505 1.387 . S
H504 C511 0.950 . S
C505 C503 1.387 . S
C505 C507 1.390 . S
C505 H509 0.950 . S
H506 C502 0.950 . S
C507 C505 1.390 . S
C507 C508 1.387 . S
C507 H510 0.950 . S
C508 C507 1.387 . S
C508 C511 1.387 . S
H509 C505 0.950 . S
H510 C507 0.950 . S
C511 C502 1.390 . S
C511 H504 0.950 . S
C511 C508 1.387 . S
C512 C513 1.387 . S
C512 H516 0.950 . S
C512 C521 1.390 . S
C513 C512 1.387 . S
C513 C515 1.387 . S
H514 C521 0.950 . S
C515 C513 1.387 . S
C515 C517 1.390 . S
C515 H519 0.950 . S
H516 C512 0.950 . S
C517 C515 1.390 . S
C517 C518 1.387 . S
C517 H520 0.950 . S
C518 C517 1.387 . S
C518 C521 1.387 . S
H519 C515 0.950 . S
H520 C517 0.950 . S
C521 C512 1.390 . S
C521 H514 0.950 . S
C521 C518 1.387 . S
C522 C523 1.387 . S
C522 H526 0.950 . S
C522 C531 1.390 . S
C523 C522 1.387 . S
C523 C525 1.387 . S
H524 C531 0.950 . S
C525 C523 1.387 . S
C525 C527 1.390 . S
C525 H529 0.950 . S
H526 C522 0.950 . S
C527 C525 1.390 . S
C527 C528 1.387 . S
C527 H530 0.950 . S
C528 C527 1.387 . S
C528 C531 1.387 . S
H529 C525 0.950 . S
H530 C527 0.950 . S
C531 C522 1.390 . S
C531 H524 0.950 . S
C531 C528 1.387 . S
C532 C533 1.387 . S
C532 H536 0.950 . S
C532 C541 1.390 . S
C533 C532 1.387 . S
C533 C535 1.387 1_545 S
H534 C541 0.950 . S
C535 C533 1.387 1_565 S
C535 C537 1.390 . S
C535 H539 0.950 . S
H536 C532 0.950 . S
C537 C535 1.390 . S
C537 C538 1.387 1_565 S
C537 H540 0.950 . S
C538 C537 1.387 1_545 S
C538 C541 1.387 . S
H539 C535 0.950 . S
H540 C537 0.950 . S
C541 C532 1.390 . S
C541 H534 0.950 . S
C541 C538 1.387 . S
C542 C543 1.387 . S
C542 H546 0.950 . S
C542 C551 1.390 . S
C543 C542 1.387 . S
C543 C545 1.387 . S
H544 C551 0.950 . S
C545 C543 1.387 . S
C545 C547 1.390 . S
C545 H549 0.950 . S
H546 C542 0.950 . S
C547 C545 1.390 . S
C547 C548 1.387 . S
C547 H550 0.950 . S
C548 C547 1.387 . S
C548 C551 1.387 . S
H549 C545 0.950 . S
H550 C547 0.950 . S
C551 C542 1.390 . S
C551 H544 0.950 . S
C551 C548 1.387 . S
C552 C553 1.387 . S
C552 H556 0.950 . S
C552 C561 1.390 . S
C553 C552 1.387 . S
C553 C555 1.387 . S
H554 C561 0.950 . S
C555 C553 1.387 . S
C555 C557 1.390 . S
C555 H559 0.950 . S
H556 C552 0.950 . S
C557 C555 1.390 . S
C557 C558 1.387 . S
C557 H560 0.950 . S
C558 C557 1.387 . S
C558 C561 1.387 . S
H559 C555 0.950 . S
H560 C557 0.950 . S
C561 C552 1.390 . S
C561 H554 0.950 . S
C561 C558 1.387 . S
C562 C563 1.387 1_545 S
C562 H566 0.950 . S
C562 C571 1.390 . S
C563 C562 1.387 1_565 S
C563 C565 1.387 . S
H564 C571 0.950 . S
C565 C563 1.387 . S
C565 C567 1.390 . S
C565 H569 0.950 . S
H566 C562 0.950 . S
C567 C565 1.390 . S
C567 C568 1.387 . S
C567 H570 0.950 . S
C568 C567 1.387 . S
C568 C571 1.387 1_565 S
H569 C565 0.950 . S
H570 C567 0.950 . S
C571 C562 1.390 . S
C571 H564 0.950 . S
C571 C568 1.387 1_545 S
C572 C573 1.383 1_655 S
C572 H576 0.950 . S
C572 C581 1.394 . S
C573 C572 1.383 1_455 S
C573 C575 1.387 . S
H574 C581 0.950 . S
C575 C573 1.387 . S
C575 C577 1.390 . S
C575 H579 0.950 . S
H576 C572 0.950 . S
C577 C575 1.390 . S
C577 C578 1.387 . S
C577 H580 0.950 . S
C578 C577 1.387 . S
C578 C581 1.387 1_455 S
H579 C575 0.950 . S
H580 C577 0.950 . S
C581 C572 1.394 . S
C581 H574 0.950 . S
C581 C578 1.387 1_655 S
C582 C583 1.387 . S
C582 H586 0.950 . S
C582 C591 1.390 . S
C583 C582 1.387 . S
C583 C585 1.387 . S
H584 C591 0.950 . S
C585 C583 1.387 . S
C585 C587 1.390 . S
C585 H589 0.950 . S
H586 C582 0.950 . S
C587 C585 1.390 . S
C587 C588 1.387 . S
C587 H590 0.950 . S
C588 C587 1.387 . S
C588 C591 1.387 . S
H589 C585 0.950 . S
H590 C587 0.950 . S
C591 C582 1.390 . S
C591 H584 0.950 . S
C591 C588 1.387 . S
C592 C593 1.387 . S
C592 H596 0.950 . S
C592 C601 1.390 . S
C593 C592 1.387 . S
C593 C595 1.387 . S
H594 C601 0.950 . S
C595 C593 1.387 . S
C595 C597 1.390 . S
C595 H599 0.950 . S
H596 C592 0.950 . S
C597 C595 1.390 . S
C597 C598 1.387 . S
C597 H600 0.950 . S
C598 C597 1.387 . S
C598 C601 1.387 . S
H599 C595 0.950 . S
H600 C597 0.950 . S
C601 C592 1.390 . S
C601 H594 0.950 . S
C601 C598 1.387 . S
C602 C603 1.387 . S
C602 H606 0.950 . S
C602 C611 1.390 . S
C603 C602 1.387 . S
C603 C605 1.387 . S
H604 C611 0.950 . S
C605 C603 1.387 . S
C605 C607 1.390 . S
C605 H609 0.950 . S
H606 C602 0.950 . S
C607 C605 1.390 . S
C607 C608 1.387 . S
C607 H610 0.950 . S
C608 C607 1.387 . S
C608 C611 1.387 . S
H609 C605 0.950 . S
H610 C607 0.950 . S
C611 C602 1.390 . S
C611 H604 0.950 . S
C611 C608 1.387 . S
C253 C8 2.008 . S
C258 C45 2.030 . S
C263 C17 1.974 . S
C268 C59 1.977 . S
C273 C73 1.962 . S
C278 C36 1.944 . S
C283 C92 2.001 . S
C288 C129 2.023 . S
C293 C101 1.972 . S
C298 C143 1.975 . S
C303 C157 1.955 . S
C308 C120 1.937 . S
C313 C213 2.025 . S
C318 C176 2.001 . S
C323 C227 1.975 . S
C328 C185 1.972 . S
C333 C241 1.956 . S
C338 C204 1.937 . S
C343 C3 1.755 . S
C348 C134 1.766 . S
C353 C22 1.741 . S
C358 C148 1.738 . S
C363 C162 1.721 . S
C368 C31 1.704 . S
C373 C50 1.764 . S
C378 C171 1.752 . S
C383 C64 1.738 . S
C388 C190 1.741 . S
C393 C78 1.721 . S
C398 C199 1.705 . S
C403 C87 1.761 . S
C408 C218 1.774 . S
C413 C106 1.745 . S
C418 C232 1.742 . S
C423 C246 1.717 . S
C428 C115 1.702 . S
C433 C7 0.756 . S
C438 C63 0.759 . S
C443 C23 0.736 . S
C448 C77 0.736 . S
C453 C35 0.740 . S
C458 C49 0.740 . S
C463 C51 0.798 . S
C468 C21 0.798 . S
C473 C37 0.826 . S
C478 C65 0.826 . S
C483 C79 0.828 . S
C488 C9 0.830 . S
C493 C91 0.773 . S
C498 C147 0.775 . S
C503 C161 0.735 . S
C508 C107 0.735 . S
C513 C133 0.741 . S
C518 C119 0.743 . S
C523 C105 0.795 . S
C528 C135 0.795 . S
C533 C149 0.830 . S
C538 C121 0.830 . S
C543 C163 0.823 . S
C548 C93 0.825 . S
C553 C231 0.754 . S
C558 C175 0.752 . S
C563 C245 0.736 . S
C568 C191 0.735 . S
C573 C203 0.731 . S
C578 C217 0.732 . S
C583 C189 0.811 . S
C588 C219 0.813 . S
C593 C205 0.827 . S
C598 C233 0.826 . S
C603 C177 0.833 . S
C608 C247 0.837 . S
