# Generated by pormake.
# Topology whd, (6)-cn, num edge types: 1
# Building blocks:
#     Node 0, Type 0, BuildingBlock: IZENUY_clean_sbu_0, # of connection points: 6
#     Node 1, Type 0, BuildingBlock: IZENUY_clean_sbu_0, # of connection points: 6
#     Node 2, Type 0, BuildingBlock: IZENUY_clean_sbu_0, # of connection points: 6
#     Node 3, Type 0, BuildingBlock: IZENUY_clean_sbu_0, # of connection points: 6
#     Node 4, Type 0, BuildingBlock: IZENUY_clean_sbu_0, # of connection points: 6
#     Node 5, Type 0, BuildingBlock: IZENUY_clean_sbu_0, # of connection points: 6
#     Node 6, Type 0, BuildingBlock: IZENUY_clean_sbu_0, # of connection points: 6
#     Node 7, Type 0, BuildingBlock: IZENUY_clean_sbu_0, # of connection points: 6
#     Node 8, Type 0, BuildingBlock: IZENUY_clean_sbu_0, # of connection points: 6
#     Node 9, Type 0, BuildingBlock: IZENUY_clean_sbu_0, # of connection points: 6
#     Node 10, Type 0, BuildingBlock: IZENUY_clean_sbu_0, # of connection points: 6
#     Node 11, Type 0, BuildingBlock: IZENUY_clean_sbu_0, # of connection points: 6
#     Node 12, Type 0, BuildingBlock: IZENUY_clean_sbu_0, # of connection points: 6
#     Node 13, Type 0, BuildingBlock: IZENUY_clean_sbu_0, # of connection points: 6
#     Node 14, Type 0, BuildingBlock: IZENUY_clean_sbu_0, # of connection points: 6
#     Node 15, Type 0, BuildingBlock: IZENUY_clean_sbu_0, # of connection points: 6
#     Edge 16, Type (0, 0), BuildingBlock: OJICUG_clean_linker_0, # of connection points: 2
#     Edge 17, Type (0, 0), BuildingBlock: OJICUG_clean_linker_0, # of connection points: 2
#     Edge 18, Type (0, 0), BuildingBlock: OJICUG_clean_linker_0, # of connection points: 2
#     Edge 19, Type (0, 0), BuildingBlock: OJICUG_clean_linker_0, # of connection points: 2
#     Edge 20, Type (0, 0), BuildingBlock: OJICUG_clean_linker_0, # of connection points: 2
#     Edge 21, Type (0, 0), BuildingBlock: OJICUG_clean_linker_0, # of connection points: 2
#     Edge 22, Type (0, 0), BuildingBlock: OJICUG_clean_linker_0, # of connection points: 2
#     Edge 23, Type (0, 0), BuildingBlock: OJICUG_clean_linker_0, # of connection points: 2
#     Edge 24, Type (0, 0), BuildingBlock: OJICUG_clean_linker_0, # of connection points: 2
#     Edge 25, Type (0, 0), BuildingBlock: OJICUG_clean_linker_0, # of connection points: 2
#     Edge 26, Type (0, 0), BuildingBlock: OJICUG_clean_linker_0, # of connection points: 2
#     Edge 27, Type (0, 0), BuildingBlock: OJICUG_clean_linker_0, # of connection points: 2
#     Edge 28, Type (0, 0), BuildingBlock: OJICUG_clean_linker_0, # of connection points: 2
#     Edge 29, Type (0, 0), BuildingBlock: OJICUG_clean_linker_0, # of connection points: 2
#     Edge 30, Type (0, 0), BuildingBlock: OJICUG_clean_linker_0, # of connection points: 2
#     Edge 31, Type (0, 0), BuildingBlock: OJICUG_clean_linker_0, # of connection points: 2
#     Edge 32, Type (0, 0), BuildingBlock: OJICUG_clean_linker_0, # of connection points: 2
#     Edge 33, Type (0, 0), BuildingBlock: OJICUG_clean_linker_0, # of connection points: 2
#     Edge 34, Type (0, 0), BuildingBlock: OJICUG_clean_linker_0, # of connection points: 2
#     Edge 35, Type (0, 0), BuildingBlock: OJICUG_clean_linker_0, # of connection points: 2
#     Edge 36, Type (0, 0), BuildingBlock: OJICUG_clean_linker_0, # of connection points: 2
#     Edge 37, Type (0, 0), BuildingBlock: OJICUG_clean_linker_0, # of connection points: 2
#     Edge 38, Type (0, 0), BuildingBlock: OJICUG_clean_linker_0, # of connection points: 2
#     Edge 39, Type (0, 0), BuildingBlock: OJICUG_clean_linker_0, # of connection points: 2
#     Edge 40, Type (0, 0), BuildingBlock: OJICUG_clean_linker_0, # of connection points: 2
#     Edge 41, Type (0, 0), BuildingBlock: OJICUG_clean_linker_0, # of connection points: 2
#     Edge 42, Type (0, 0), BuildingBlock: OJICUG_clean_linker_0, # of connection points: 2
#     Edge 43, Type (0, 0), BuildingBlock: OJICUG_clean_linker_0, # of connection points: 2
#     Edge 44, Type (0, 0), BuildingBlock: OJICUG_clean_linker_0, # of connection points: 2
#     Edge 45, Type (0, 0), BuildingBlock: OJICUG_clean_linker_0, # of connection points: 2
#     Edge 46, Type (0, 0), BuildingBlock: OJICUG_clean_linker_0, # of connection points: 2
#     Edge 47, Type (0, 0), BuildingBlock: OJICUG_clean_linker_0, # of connection points: 2
#     Edge 48, Type (0, 0), BuildingBlock: OJICUG_clean_linker_0, # of connection points: 2
#     Edge 49, Type (0, 0), BuildingBlock: OJICUG_clean_linker_0, # of connection points: 2
#     Edge 50, Type (0, 0), BuildingBlock: OJICUG_clean_linker_0, # of connection points: 2
#     Edge 51, Type (0, 0), BuildingBlock: OJICUG_clean_linker_0, # of connection points: 2
#     Edge 52, Type (0, 0), BuildingBlock: OJICUG_clean_linker_0, # of connection points: 2
#     Edge 53, Type (0, 0), BuildingBlock: OJICUG_clean_linker_0, # of connection points: 2
#     Edge 54, Type (0, 0), BuildingBlock: OJICUG_clean_linker_0, # of connection points: 2
#     Edge 55, Type (0, 0), BuildingBlock: OJICUG_clean_linker_0, # of connection points: 2
#     Edge 56, Type (0, 0), BuildingBlock: OJICUG_clean_linker_0, # of connection points: 2
#     Edge 57, Type (0, 0), BuildingBlock: OJICUG_clean_linker_0, # of connection points: 2
#     Edge 58, Type (0, 0), BuildingBlock: OJICUG_clean_linker_0, # of connection points: 2
#     Edge 59, Type (0, 0), BuildingBlock: OJICUG_clean_linker_0, # of connection points: 2
#     Edge 60, Type (0, 0), BuildingBlock: OJICUG_clean_linker_0, # of connection points: 2
#     Edge 61, Type (0, 0), BuildingBlock: OJICUG_clean_linker_0, # of connection points: 2
#     Edge 62, Type (0, 0), BuildingBlock: OJICUG_clean_linker_0, # of connection points: 2
#     Edge 63, Type (0, 0), BuildingBlock: OJICUG_clean_linker_0, # of connection points: 2
# Relax obj value: 0.275
# Max RMSD: 0.227
# Mean RMSD: 0.227
data_MOF--net-whd--node1-IZENUY_clean_sbu_0--edge1-OJICUG_clean_linker_0
_symmetry_space_group_name_H-M    P1
_symmetry_Int_Tables_number       1
_symmetry_cell_setting            triclinic
loop_
_symmetry_equiv_pos_as_xyz
'x, y, z'
_cell_length_a     37.556093
_cell_length_b     37.696572
_cell_length_c     21.758646
_cell_angle_alpha  90.004929
_cell_angle_beta   89.997276
_cell_angle_gamma 89.969374
loop_
_atom_site_label
_atom_site_type_symbol
_atom_site_fract_x
_atom_site_fract_y
_atom_site_fract_z
_atom_type_partial_charge
Fe0 Fe 0.17141 0.35529 0.34213 0.0
Fe1 Fe 0.1538 0.42948 0.38823 0.0
O2 O 0.18206 0.40103 0.3462 0.0
Fe3 Fe 0.22031 0.41786 0.30781 0.0
O4 O 0.21625 0.38692 0.24235 0.0
O5 O 0.1657 0.3588 0.2599 0.0
O6 O 0.12296 0.36102 0.34928 0.0
C7 C 0.1041 0.38727 0.33359 0.0
C8 C 0.24651 0.3546 0.35006 0.0
O9 O 0.11587 0.41833 0.33996 0.0
C10 C 0.21874 0.45609 0.42102 0.0
O11 O 0.17674 0.35022 0.42465 0.0
O12 O 0.1426 0.396 0.4462 0.0
O13 O 0.25014 0.38792 0.34938 0.0
O14 O 0.21745 0.34052 0.33388 0.0
C15 C 0.17212 0.47119 0.28447 0.0
O16 O 0.18985 0.44242 0.43837 0.0
O17 O 0.22984 0.45217 0.36631 0.0
C18 C 0.16033 0.36914 0.46327 0.0
O19 O 0.16026 0.46816 0.33858 0.0
O20 O 0.19398 0.449 0.26292 0.0
C21 C 0.18873 0.37079 0.22302 0.0
Fe22 Fe 0.35386 0.85699 0.65613 0.0
Fe23 Fe 0.41692 0.80857 0.69066 0.0
O24 O 0.39983 0.84658 0.65219 0.0
Fe25 Fe 0.42829 0.87482 0.6102 0.0
O26 O 0.41693 0.91254 0.65849 0.0
O27 O 0.35941 0.90532 0.6492 0.0
O28 O 0.35725 0.86264 0.73838 0.0
C29 C 0.36941 0.83977 0.77529 0.0
C30 C 0.3678 0.8682 0.53505 0.0
O31 O 0.38579 0.81244 0.75602 0.0
C32 C 0.45525 0.81021 0.57746 0.0
O33 O 0.33928 0.81102 0.66416 0.0
O34 O 0.38711 0.77868 0.64904 0.0
O35 O 0.39467 0.88594 0.55224 0.0
O36 O 0.34887 0.85174 0.57357 0.0
C37 C 0.47016 0.8568 0.71405 0.0
O38 O 0.45145 0.79922 0.63223 0.0
O39 O 0.44139 0.83894 0.56006 0.0
C40 C 0.35365 0.78212 0.64822 0.0
O41 O 0.44795 0.83499 0.73561 0.0
O42 O 0.46714 0.86849 0.65985 0.0
C43 C 0.3857 0.92417 0.66493 0.0
Fe44 Fe 0.80714 0.61093 0.30799 0.0
Fe45 Fe 0.85605 0.6735 0.34231 0.0
O46 O 0.8454 0.62776 0.34636 0.0
Fe47 Fe 0.87367 0.59931 0.38838 0.0
O48 O 0.8672 0.56063 0.33872 0.0
O49 O 0.83347 0.57979 0.26309 0.0
O50 O 0.8112 0.64187 0.24254 0.0
C51 C 0.83872 0.65799 0.2232 0.0
C52 C 0.80872 0.5727 0.42119 0.0
O53 O 0.86176 0.66999 0.26007 0.0
C54 C 0.86713 0.65964 0.46344 0.0
O55 O 0.77732 0.64088 0.34958 0.0
O56 O 0.81001 0.68827 0.33407 0.0
O57 O 0.83762 0.58637 0.43853 0.0
O58 O 0.79761 0.57663 0.36649 0.0
C59 C 0.92336 0.64152 0.33373 0.0
O60 O 0.85073 0.67856 0.42483 0.0
O61 O 0.88487 0.63279 0.44634 0.0
C62 C 0.78096 0.67419 0.35025 0.0
O63 O 0.90451 0.66777 0.34944 0.0
O64 O 0.91159 0.61046 0.34009 0.0
C65 C 0.85532 0.5576 0.28461 0.0
Fe66 Fe 0.61046 0.22016 0.69071 0.0
Fe67 Fe 0.59912 0.1539 0.61024 0.0
O68 O 0.62756 0.18216 0.65225 0.0
Fe69 Fe 0.67354 0.17175 0.65619 0.0
O70 O 0.67014 0.1661 0.73844 0.0
O71 O 0.64158 0.21629 0.75609 0.0
O72 O 0.57943 0.19373 0.73564 0.0
C73 C 0.55722 0.17193 0.71407 0.0
C74 C 0.67373 0.24662 0.6483 0.0
O75 O 0.56026 0.16024 0.65987 0.0
C76 C 0.65961 0.16053 0.5351 0.0
O77 O 0.57595 0.2295 0.63227 0.0
O78 O 0.58602 0.18978 0.5601 0.0
O79 O 0.68811 0.21772 0.66423 0.0
O80 O 0.64028 0.25005 0.64912 0.0
C81 C 0.6417 0.10457 0.66499 0.0
O82 O 0.63275 0.14278 0.5523 0.0
O83 O 0.67853 0.17699 0.57364 0.0
C84 C 0.57216 0.2185 0.57749 0.0
O85 O 0.61047 0.11619 0.65854 0.0
O86 O 0.66799 0.12342 0.64926 0.0
C87 C 0.65797 0.18897 0.77536 0.0
Fe88 Fe 0.17133 0.67354 0.65633 0.0
Fe89 Fe 0.15379 0.59935 0.61019 0.0
O90 O 0.18202 0.6278 0.65224 0.0
Fe91 Fe 0.22029 0.61095 0.69061 0.0
O92 O 0.21621 0.64189 0.75608 0.0
O93 O 0.16563 0.67002 0.73856 0.0
O94 O 0.12288 0.66781 0.64921 0.0
C95 C 0.10405 0.64155 0.66488 0.0
C96 C 0.24642 0.67421 0.64837 0.0
O97 O 0.11586 0.61048 0.65847 0.0
C98 C 0.21876 0.57274 0.57738 0.0
O99 O 0.17664 0.67862 0.57381 0.0
O100 O 0.14255 0.63284 0.55225 0.0
O101 O 0.25009 0.64089 0.64904 0.0
O102 O 0.21736 0.6883 0.66456 0.0
C103 C 0.17214 0.55764 0.71394 0.0
O104 O 0.18986 0.58644 0.56003 0.0
O105 O 0.22985 0.57664 0.6321 0.0
C106 C 0.16025 0.65971 0.53519 0.0
O107 O 0.1603 0.56067 0.65981 0.0
O108 O 0.19397 0.57982 0.73549 0.0
C109 C 0.18867 0.65802 0.77543 0.0
Fe110 Fe 0.59905 0.87496 0.38792 0.0
Fe111 Fe 0.67349 0.85702 0.34207 0.0
O112 O 0.62751 0.84666 0.34598 0.0
Fe113 Fe 0.61044 0.80865 0.30753 0.0
O114 O 0.57941 0.83508 0.26255 0.0
O115 O 0.56022 0.86866 0.33823 0.0
O116 O 0.61044 0.91265 0.33962 0.0
C117 C 0.64167 0.92424 0.33324 0.0
C118 C 0.57209 0.81037 0.4207 0.0
O119 O 0.66794 0.90535 0.34901 0.0
C120 C 0.6737 0.78216 0.35003 0.0
O121 O 0.63266 0.88603 0.44592 0.0
O122 O 0.67845 0.85177 0.42463 0.0
O123 O 0.57591 0.79935 0.36594 0.0
O124 O 0.58591 0.83911 0.43807 0.0
C125 C 0.65795 0.83981 0.2229 0.0
O126 O 0.68807 0.81104 0.33404 0.0
O127 O 0.64025 0.77876 0.34918 0.0
C128 C 0.65951 0.86826 0.46314 0.0
O129 O 0.67011 0.86267 0.25981 0.0
O130 O 0.64158 0.81249 0.24218 0.0
C131 C 0.55719 0.85691 0.28407 0.0
Fe132 Fe 0.85603 0.35524 0.65637 0.0
Fe133 Fe 0.87355 0.42943 0.61025 0.0
O134 O 0.84533 0.40098 0.6523 0.0
Fe135 Fe 0.80707 0.41782 0.6907 0.0
O136 O 0.81115 0.38688 0.75615 0.0
O137 O 0.86173 0.35876 0.7386 0.0
O138 O 0.90448 0.36098 0.64924 0.0
C139 C 0.9233 0.38724 0.66491 0.0
C140 C 0.78093 0.35456 0.64844 0.0
O141 O 0.91149 0.4183 0.65851 0.0
C142 C 0.80859 0.45604 0.57749 0.0
O143 O 0.85071 0.35016 0.57385 0.0
O144 O 0.88479 0.39594 0.5523 0.0
O145 O 0.77726 0.38788 0.64913 0.0
O146 O 0.81 0.34048 0.66461 0.0
C147 C 0.85521 0.47114 0.71403 0.0
O148 O 0.83748 0.44234 0.56012 0.0
O149 O 0.7975 0.45214 0.63221 0.0
C150 C 0.8671 0.36907 0.53523 0.0
O151 O 0.86705 0.46811 0.65989 0.0
O152 O 0.83338 0.44895 0.73559 0.0
C153 C 0.83869 0.37075 0.77548 0.0
Fe154 Fe 0.41701 0.22012 0.30748 0.0
Fe155 Fe 0.42838 0.15382 0.38788 0.0
O156 O 0.39992 0.18212 0.34593 0.0
Fe157 Fe 0.35395 0.17177 0.34202 0.0
O158 O 0.35733 0.16611 0.25976 0.0
O159 O 0.38588 0.21628 0.24212 0.0
O160 O 0.44804 0.19368 0.26251 0.0
C161 C 0.47026 0.17185 0.28404 0.0
C162 C 0.35375 0.24663 0.34997 0.0
O163 O 0.46722 0.16011 0.33821 0.0
C164 C 0.36791 0.16053 0.46309 0.0
O165 O 0.45153 0.22942 0.36591 0.0
O166 O 0.44151 0.18967 0.43804 0.0
O167 O 0.33938 0.21775 0.33399 0.0
O168 O 0.38721 0.25003 0.34912 0.0
C169 C 0.38576 0.10454 0.33317 0.0
O170 O 0.39476 0.14275 0.44586 0.0
O171 O 0.34898 0.17702 0.42458 0.0
C172 C 0.45535 0.2184 0.42067 0.0
O173 O 0.41699 0.11612 0.33957 0.0
O174 O 0.35948 0.12343 0.34894 0.0
C175 C 0.3695 0.18897 0.22285 0.0
Fe176 Fe 0.67128 0.85523 0.84207 0.0
Fe177 Fe 0.65368 0.92944 0.88815 0.0
O178 O 0.68194 0.90098 0.84613 0.0
Fe179 Fe 0.72021 0.91779 0.80776 0.0
O180 O 0.71615 0.88685 0.74231 0.0
O181 O 0.66558 0.85875 0.75983 0.0
O182 O 0.62283 0.86098 0.8492 0.0
C183 C 0.60398 0.88723 0.8335 0.0
C184 C 0.74637 0.85453 0.85005 0.0
O185 O 0.61576 0.9183 0.83987 0.0
C186 C 0.71864 0.95603 0.92096 0.0
O187 O 0.6766 0.85018 0.92459 0.0
O188 O 0.64247 0.89597 0.94612 0.0
O189 O 0.75002 0.88784 0.84936 0.0
O190 O 0.71731 0.84046 0.83383 0.0
C191 C 0.67204 0.97113 0.78438 0.0
O192 O 0.68973 0.94237 0.9383 0.0
O193 O 0.72974 0.9521 0.86625 0.0
C194 C 0.66019 0.8691 0.9632 0.0
O195 O 0.66016 0.96811 0.83848 0.0
O196 O 0.69389 0.94893 0.76285 0.0
C197 C 0.68862 0.87073 0.72296 0.0
Fe198 Fe 0.92835 0.37485 0.11043 0.0
Fe199 Fe 0.85393 0.35697 0.15636 0.0
O200 O 0.89991 0.34658 0.15242 0.0
Fe201 Fe 0.91702 0.30858 0.19086 0.0
O202 O 0.94805 0.33501 0.23581 0.0
O203 O 0.96721 0.36853 0.16006 0.0
O204 O 0.91698 0.41256 0.15875 0.0
C205 C 0.88574 0.42417 0.1652 0.0
C206 C 0.95534 0.31026 0.07764 0.0
O207 O 0.85946 0.4053 0.14946 0.0
C208 C 0.85376 0.2821 0.14843 0.0
O209 O 0.89471 0.38596 0.05249 0.0
O210 O 0.84895 0.35173 0.0738 0.0
O211 O 0.95154 0.29925 0.13241 0.0
O212 O 0.94147 0.33899 0.06027 0.0
C213 C 0.8695 0.33975 0.27552 0.0
O214 O 0.83938 0.311 0.16438 0.0
O215 O 0.88722 0.27868 0.14926 0.0
C216 C 0.86787 0.36821 0.03528 0.0
O217 O 0.85732 0.36262 0.23862 0.0
O218 O 0.8859 0.31244 0.25624 0.0
C219 C 0.97025 0.35683 0.21425 0.0
Fe220 Fe 0.37367 0.09931 0.88808 0.0
Fe221 Fe 0.30716 0.11095 0.80767 0.0
O222 O 0.34542 0.12777 0.84606 0.0
Fe223 Fe 0.35608 0.17351 0.84201 0.0
O224 O 0.40453 0.16776 0.84915 0.0
O225 O 0.4116 0.11045 0.83982 0.0
O226 O 0.3672 0.06064 0.83842 0.0
C227 C 0.35533 0.05761 0.7843 0.0
C228 C 0.36715 0.15965 0.96314 0.0
O229 O 0.33348 0.07981 0.76277 0.0
C230 C 0.28099 0.17421 0.84997 0.0
O231 O 0.33761 0.08638 0.93823 0.0
O232 O 0.29762 0.07664 0.86616 0.0
O233 O 0.35075 0.17857 0.92453 0.0
O234 O 0.38487 0.13278 0.94606 0.0
C235 C 0.33875 0.15801 0.7229 0.0
O236 O 0.27734 0.1409 0.84927 0.0
O237 O 0.31004 0.18828 0.83377 0.0
C238 C 0.30871 0.07271 0.92087 0.0
O239 O 0.31122 0.14189 0.74223 0.0
O240 O 0.36179 0.16999 0.75977 0.0
C241 C 0.42338 0.14151 0.83345 0.0
Fe242 Fe 0.11041 0.72022 0.19087 0.0
Fe243 Fe 0.09907 0.65395 0.11043 0.0
O244 O 0.12751 0.68221 0.1524 0.0
Fe245 Fe 0.17349 0.67182 0.15632 0.0
O246 O 0.1701 0.66617 0.23858 0.0
O247 O 0.14155 0.71636 0.25622 0.0
O248 O 0.07939 0.69379 0.23583 0.0
C249 C 0.05719 0.67198 0.21429 0.0
C250 C 0.17367 0.74669 0.1484 0.0
O251 O 0.06022 0.66027 0.16009 0.0
C252 C 0.15954 0.66059 0.03524 0.0
O253 O 0.07588 0.72955 0.13245 0.0
O254 O 0.08594 0.68981 0.06029 0.0
O255 O 0.18805 0.71779 0.16435 0.0
O256 O 0.14022 0.75011 0.14925 0.0
C257 C 0.14168 0.60462 0.16514 0.0
O258 O 0.13269 0.64284 0.05246 0.0
O259 O 0.17846 0.67706 0.07376 0.0
C260 C 0.07208 0.71854 0.07768 0.0
O261 O 0.11044 0.61624 0.15872 0.0
O262 O 0.16796 0.62349 0.1494 0.0
C263 C 0.15794 0.68903 0.2755 0.0
Fe264 Fe 0.65392 0.09932 0.11006 0.0
Fe265 Fe 0.7204 0.1109 0.19052 0.0
O266 O 0.68215 0.12775 0.15212 0.0
Fe267 Fe 0.67146 0.1735 0.1562 0.0
O268 O 0.62301 0.16777 0.14907 0.0
O269 O 0.61598 0.11046 0.15833 0.0
O270 O 0.66041 0.06063 0.15969 0.0
C271 C 0.67224 0.0576 0.21382 0.0
C272 C 0.66039 0.15967 0.03506 0.0
O273 O 0.69408 0.07978 0.23539 0.0
C274 C 0.74657 0.17416 0.14829 0.0
O275 O 0.68999 0.08639 0.05992 0.0
O276 O 0.72996 0.07659 0.13201 0.0
O277 O 0.67678 0.17857 0.07368 0.0
O278 O 0.64269 0.13281 0.05213 0.0
C279 C 0.68879 0.15798 0.27531 0.0
O280 O 0.75023 0.14084 0.14896 0.0
O281 O 0.71749 0.18825 0.16445 0.0
C282 C 0.71888 0.07268 0.07728 0.0
O283 O 0.71632 0.14184 0.25598 0.0
O284 O 0.66575 0.16998 0.23844 0.0
C285 C 0.60418 0.14152 0.16474 0.0
Fe286 Fe 0.17352 0.35705 0.84214 0.0
Fe287 Fe 0.11048 0.30868 0.80761 0.0
O288 O 0.12755 0.34668 0.84607 0.0
Fe289 Fe 0.09909 0.37496 0.88805 0.0
O290 O 0.11045 0.41266 0.83976 0.0
O291 O 0.16796 0.40538 0.84909 0.0
O292 O 0.17013 0.36271 0.75989 0.0
C293 C 0.15798 0.33985 0.72297 0.0
C294 C 0.15956 0.36828 0.96322 0.0
O295 O 0.14161 0.31253 0.74225 0.0
C296 C 0.07215 0.31037 0.92081 0.0
O297 O 0.18811 0.31107 0.8341 0.0
O298 O 0.14029 0.27878 0.84922 0.0
O299 O 0.1327 0.38604 0.94602 0.0
O300 O 0.1785 0.3518 0.9247 0.0
C301 C 0.05721 0.35693 0.78421 0.0
O302 O 0.07596 0.29936 0.86604 0.0
O303 O 0.08598 0.3391 0.93819 0.0
C304 C 0.17375 0.28219 0.85006 0.0
O305 O 0.07944 0.33511 0.76266 0.0
O306 O 0.06024 0.36865 0.83839 0.0
C307 C 0.14168 0.42426 0.83334 0.0
Fe308 Fe 0.30706 0.91786 0.19044 0.0
Fe309 Fe 0.356 0.85526 0.15614 0.0
O310 O 0.34532 0.901 0.15206 0.0
Fe311 Fe 0.37356 0.92944 0.11001 0.0
O312 O 0.36707 0.96813 0.15962 0.0
O313 O 0.33338 0.94899 0.23531 0.0
O314 O 0.31113 0.88694 0.25591 0.0
C315 C 0.33866 0.87079 0.27525 0.0
C316 C 0.30861 0.95606 0.0772 0.0
O317 O 0.3617 0.85878 0.23837 0.0
C318 C 0.36708 0.86908 0.035 0.0
O319 O 0.27724 0.88792 0.14889 0.0
O320 O 0.30997 0.84051 0.16437 0.0
O321 O 0.3375 0.94236 0.05985 0.0
O322 O 0.29751 0.95217 0.13192 0.0
C323 C 0.42329 0.88723 0.1647 0.0
O324 O 0.35069 0.85018 0.07362 0.0
O325 O 0.38479 0.89594 0.05207 0.0
C326 C 0.2809 0.8546 0.14823 0.0
O327 O 0.40445 0.86098 0.14902 0.0
O328 O 0.41149 0.91829 0.15829 0.0
C329 C 0.35522 0.97117 0.21375 0.0
Fe330 Fe 0.91689 0.72009 0.80777 0.0
Fe331 Fe 0.92831 0.65381 0.88817 0.0
O332 O 0.89983 0.68209 0.84623 0.0
Fe333 Fe 0.85386 0.67171 0.84232 0.0
O334 O 0.85725 0.66605 0.76006 0.0
O335 O 0.88576 0.71624 0.74243 0.0
O336 O 0.94794 0.69367 0.76279 0.0
C337 C 0.97016 0.67185 0.78431 0.0
C338 C 0.85362 0.74657 0.85026 0.0
O339 O 0.96714 0.66012 0.83849 0.0
C340 C 0.86784 0.66049 0.96339 0.0
O341 O 0.95142 0.72942 0.86618 0.0
O342 O 0.94142 0.68967 0.93832 0.0
O343 O 0.83927 0.71768 0.83429 0.0
O344 O 0.88708 0.74998 0.84942 0.0
C345 C 0.88571 0.6045 0.83348 0.0
O346 O 0.8947 0.64272 0.94616 0.0
O347 O 0.8489 0.67696 0.92488 0.0
C348 C 0.95524 0.7184 0.92094 0.0
O349 O 0.91694 0.6161 0.83987 0.0
O350 O 0.85943 0.62338 0.84925 0.0
C351 C 0.86939 0.68892 0.72315 0.0
C352 C 0.13079 0.52139 0.26061 0.0
C353 C 0.16295 0.50345 0.24906 0.0
H354 H 0.09853 0.56709 0.24209 0.0
C355 C 0.187 0.51789 0.20642 0.0
H356 H 0.11167 0.5108 0.29307 0.0
C357 C 0.17975 0.55045 0.17809 0.0
C358 C 0.14792 0.56876 0.19069 0.0
H359 H 0.21204 0.50474 0.19678 0.0
H360 H 0.19928 0.56152 0.14691 0.0
C361 C 0.12317 0.55352 0.23123 0.0
C362 C 0.51685 0.84226 0.79257 0.0
C363 C 0.50248 0.86605 0.74953 0.0
H364 H 0.56052 0.83016 0.85245 0.0
C365 C 0.52055 0.898 0.73766 0.0
H366 H 0.5036 0.81739 0.80248 0.0
C367 C 0.55276 0.90564 0.76712 0.0
C368 C 0.56795 0.88111 0.80802 0.0
H369 H 0.51 0.91693 0.7049 0.0
H370 H 0.56646 0.9301 0.75599 0.0
C371 C 0.54949 0.84952 0.82097 0.0
C372 C 0.90426 0.47527 0.2313 0.0
C373 C 0.8795 0.46003 0.19078 0.0
H374 H 0.91577 0.51799 0.29314 0.0
C375 C 0.84767 0.47834 0.17822 0.0
H376 H 0.92891 0.4617 0.24213 0.0
C377 C 0.84043 0.5109 0.20657 0.0
C378 C 0.86448 0.52533 0.24919 0.0
H379 H 0.82812 0.46726 0.14705 0.0
H380 H 0.81538 0.52404 0.19696 0.0
C381 C 0.89665 0.50739 0.2607 0.0
C382 C 0.47787 0.17922 0.82095 0.0
C383 C 0.45941 0.14763 0.80799 0.0
H384 H 0.52376 0.21135 0.80248 0.0
C385 C 0.47461 0.1231 0.76709 0.0
H386 H 0.46683 0.19859 0.85242 0.0
C387 C 0.50683 0.13073 0.73766 0.0
C388 C 0.52489 0.16268 0.74953 0.0
H389 H 0.46091 0.09864 0.75596 0.0
H390 H 0.51738 0.1118 0.7049 0.0
C391 C 0.51052 0.18648 0.79257 0.0
C392 C 0.18699 0.51095 0.79205 0.0
C393 C 0.16296 0.52539 0.74936 0.0
H394 H 0.19926 0.46733 0.85162 0.0
C395 C 0.13081 0.50747 0.73778 0.0
H396 H 0.21202 0.52408 0.8017 0.0
C397 C 0.12319 0.47536 0.76719 0.0
C398 C 0.14791 0.46012 0.80778 0.0
H399 H 0.11171 0.51807 0.7053 0.0
H400 H 0.09855 0.46181 0.75631 0.0
C401 C 0.17973 0.47841 0.8204 0.0
C402 C 0.50675 0.8981 0.26037 0.0
C403 C 0.52484 0.86613 0.2486 0.0
H404 H 0.46081 0.93018 0.242 0.0
C405 C 0.51047 0.84228 0.20568 0.0
H406 H 0.5173 0.91707 0.29305 0.0
C407 C 0.4778 0.84951 0.17731 0.0
C408 C 0.45932 0.88112 0.19016 0.0
H409 H 0.52373 0.81739 0.19585 0.0
H410 H 0.46677 0.8301 0.14593 0.0
C411 C 0.47452 0.9057 0.23095 0.0
C412 C 0.84765 0.55035 0.82055 0.0
C413 C 0.87947 0.56865 0.80791 0.0
H414 H 0.81536 0.50469 0.80186 0.0
C415 C 0.90419 0.5534 0.7673 0.0
H416 H 0.82814 0.56143 0.8518 0.0
C417 C 0.89655 0.52129 0.73788 0.0
C418 C 0.8644 0.50338 0.74947 0.0
H419 H 0.92883 0.56695 0.7564 0.0
H420 H 0.91565 0.51069 0.70537 0.0
C421 C 0.84039 0.51781 0.79219 0.0
C422 C 0.54965 0.17924 0.17731 0.0
C423 C 0.56814 0.14763 0.19018 0.0
H424 H 0.50372 0.21135 0.19581 0.0
C425 C 0.55294 0.12306 0.23098 0.0
H426 H 0.56069 0.19863 0.14591 0.0
C427 C 0.5207 0.13066 0.26038 0.0
C428 C 0.50261 0.16262 0.24859 0.0
H429 H 0.56665 0.09858 0.24205 0.0
H430 H 0.51014 0.1117 0.29306 0.0
C431 C 0.51698 0.18647 0.20565 0.0
C432 C 0.63074 0.02135 0.76047 0.0
C433 C 0.6629 1.0034 0.74895 0.0
H434 H 0.5985 0.06705 0.74189 0.0
C435 C 0.68697 0.01782 0.70634 0.0
H436 H 0.6116 1.01076 0.79289 0.0
C437 C 0.67974 0.05038 0.678 0.0
C438 C 0.64792 0.0687 0.69056 0.0
H439 H 0.71201 1.00466 0.69674 0.0
H440 H 0.6993 0.06145 0.64684 0.0
C441 C 0.62315 0.05347 0.73106 0.0
C442 C 0.04962 0.34954 0.32107 0.0
C443 C 0.06807 0.38114 0.30814 0.0
H444 H 1.00374 0.31739 0.3026 0.0
C445 C 0.05285 0.40567 0.26728 0.0
H446 H 0.06067 0.33016 0.35252 0.0
C447 C 0.02063 0.39804 0.23786 0.0
C448 C 1.00258 0.36608 0.24971 0.0
H449 H 0.06654 0.43014 0.25617 0.0
H450 H 1.01006 0.41697 0.20513 0.0
C451 C 0.01697 0.34227 0.29271 0.0
C452 C 0.40424 0.97527 0.73102 0.0
C453 C 0.37948 0.96004 0.69049 0.0
H454 H 0.41576 0.01798 0.79286 0.0
C455 C 0.34766 0.97836 0.6779 0.0
H456 H 0.42888 0.96168 0.74187 0.0
C457 C 0.34043 1.01093 0.70624 0.0
C458 C 0.36449 0.02535 0.74888 0.0
H459 H 0.32812 0.9673 0.64672 0.0
H460 H 0.3154 0.02408 0.69661 0.0
C461 C 0.39664 1.00739 0.76041 0.0
C462 C 1.00681 0.63076 0.23792 0.0
C463 C 0.02487 0.66272 0.24977 0.0
H464 H 0.96091 0.59865 0.25626 0.0
C465 C 1.01048 0.68652 0.29279 0.0
H466 H 0.01737 0.61183 0.20518 0.0
C467 C 0.97784 0.67926 0.32118 0.0
C468 C 0.95939 0.64765 0.30826 0.0
H469 H 0.02371 0.7114 0.30268 0.0
H470 H 0.96679 0.69863 0.35264 0.0
C471 C 0.9746 0.62312 0.26737 0.0
C472 C 0.68704 1.01091 0.29197 0.0
C473 C 0.66303 0.02535 0.24925 0.0
H474 H 0.69926 0.96728 0.35157 0.0
C475 C 0.63088 1.00745 0.23764 0.0
H476 H 0.71207 0.02403 0.30165 0.0
C477 C 0.62323 0.97535 0.26706 0.0
C478 C 0.64793 0.96009 0.30767 0.0
H479 H 0.61179 0.01806 0.20513 0.0
H480 H 0.59858 0.9618 0.25615 0.0
C481 C 0.67975 0.97837 0.32032 0.0
C482 C 0.97452 0.4057 0.73118 0.0
C483 C 0.95934 0.38114 0.69035 0.0
H484 H 0.0173 0.41706 0.79329 0.0
C485 C 0.97784 0.34954 0.67745 0.0
H486 H 0.9608 0.43017 0.74227 0.0
C487 C 1.0105 0.34231 0.7058 0.0
C488 C 0.02487 0.36615 0.74876 0.0
H489 H 0.96681 0.33015 0.64603 0.0
H490 H 0.02378 0.31744 0.69593 0.0
C491 C 1.00676 0.3981 0.76059 0.0
C492 C 0.34767 0.05042 0.32022 0.0
C493 C 0.3795 0.06869 0.30759 0.0
H494 H 0.31536 1.00476 0.30153 0.0
C495 C 0.40422 0.05342 0.267 0.0
H496 H 0.32815 0.06151 0.35144 0.0
C497 C 0.39658 0.02132 0.23759 0.0
C498 C 0.36442 1.00342 0.24918 0.0
H499 H 0.42887 0.06697 0.25612 0.0
H500 H 0.41568 1.0107 0.2051 0.0
C501 C 0.3404 0.01787 0.29187 0.0
C502 C 0.05284 0.62308 0.73118 0.0
C503 C 0.06802 0.64765 0.69036 0.0
H504 H 1.01007 0.61171 0.79332 0.0
C505 C 0.04952 0.67925 0.6775 0.0
H506 H 0.06656 0.59861 0.74224 0.0
C507 C 0.01686 0.68648 0.70588 0.0
C508 C 1.0025 0.66263 0.74884 0.0
H509 H 0.06054 0.69865 0.64609 0.0
H510 H 1.00359 0.71136 0.69604 0.0
C511 C 0.02061 0.63067 0.76062 0.0
C512 C 0.23461 0.54865 0.47457 0.0
C513 C 0.23288 0.544 0.53856 0.0
H514 H 0.23322 0.52352 0.38629 0.0
C515 C 0.23519 0.50959 0.56297 0.0
H516 H 0.23237 0.57495 0.45479 0.0
C517 C 0.2346 0.48016 0.52382 0.0
C518 C 0.23286 0.48482 0.45984 0.0
H519 H 0.23323 0.50531 0.61211 0.0
H520 H 0.23236 0.45387 0.54361 0.0
C521 C 0.23519 0.51922 0.43542 0.0
C522 C 0.4793 0.79439 0.47461 0.0
C523 C 0.48406 0.79617 0.53857 0.0
H524 H 0.5044 0.79579 0.38623 0.0
C525 C 0.51863 0.79394 0.56286 0.0
H526 H 0.45287 0.79655 0.45494 0.0
C527 C 0.54811 0.79456 0.5236 0.0
C528 C 0.54333 0.79628 0.45963 0.0
H529 H 0.52299 0.79592 0.61198 0.0
H530 H 0.57452 0.79686 0.54327 0.0
C531 C 0.50878 0.79386 0.43535 0.0
C532 C 0.79225 0.51921 0.56315 0.0
C533 C 0.79449 0.48481 0.5387 0.0
H534 H 0.79518 0.57493 0.54383 0.0
C535 C 0.79271 0.48016 0.47472 0.0
H536 H 0.79424 0.52348 0.61229 0.0
C537 C 0.79218 0.5096 0.43559 0.0
C538 C 0.79458 0.544 0.46003 0.0
H539 H 0.7949 0.45387 0.45492 0.0
H540 H 0.79411 0.50531 0.38645 0.0
C541 C 0.79287 0.54865 0.52402 0.0
C542 C 0.51866 0.23485 0.43534 0.0
C543 C 0.4841 0.23248 0.45962 0.0
H544 H 0.57456 0.23212 0.45494 0.0
C545 C 0.47932 0.23422 0.52358 0.0
H546 H 0.52304 0.23292 0.38622 0.0
C547 C 0.50879 0.23483 0.56285 0.0
C548 C 0.54336 0.23256 0.53857 0.0
H549 H 0.4529 0.23195 0.54324 0.0
H550 H 0.50442 0.23286 0.61197 0.0
C551 C 0.54814 0.23432 0.47461 0.0
C552 C 0.73515 1.0095 0.06293 0.0
C553 C 0.73296 0.04391 0.0385 0.0
H554 H 0.73215 0.95379 0.04359 0.0
C555 C 0.73474 0.04855 0.97451 0.0
H556 H 0.73315 1.00523 0.11207 0.0
C557 C 0.73524 0.01911 0.93538 0.0
C558 C 0.7328 0.98472 0.95981 0.0
H559 H 0.73259 0.07485 0.95472 0.0
H560 H 0.73332 0.0234 0.88624 0.0
C561 C 0.7345 0.98007 0.0238 0.0
C562 C 0.0187 0.29394 0.06298 0.0
C563 C 0.98413 0.29621 0.03871 0.0
H564 H 0.07459 0.29681 0.04338 0.0
C565 C 0.97936 0.29446 0.97475 0.0
H566 H 0.02307 0.2959 0.1121 0.0
C567 C 1.00883 0.29392 0.93548 0.0
C568 C 0.04339 0.29628 0.95975 0.0
H569 H 0.95293 0.29666 0.95509 0.0
H570 H 1.00445 0.29586 0.88636 0.0
C571 C 0.04817 0.29454 0.02371 0.0
C572 C 0.29284 0.04865 0.02367 0.0
C573 C 0.29458 0.04399 0.95969 0.0
H574 H 0.29418 0.02352 0.11195 0.0
C575 C 0.29223 1.00959 0.93526 0.0
H576 H 0.29511 0.07494 0.04345 0.0
C577 C 0.29277 0.98016 0.9744 0.0
C578 C 0.29451 0.98482 0.03839 0.0
H579 H 0.29419 1.0053 0.88612 0.0
H580 H 0.29499 0.95387 0.95461 0.0
C581 C 0.29222 0.01922 0.06281 0.0
C582 C 0.01855 0.73488 0.93558 0.0
C583 C 0.984 0.7325 0.95987 0.0
H584 H 0.07446 0.73217 0.95514 0.0
C585 C 0.97923 0.73423 0.02384 0.0
H586 H 0.02292 0.73295 0.88645 0.0
C587 C 1.00871 0.73485 0.06309 0.0
C588 C 0.04327 0.73259 0.03879 0.0
H589 H 0.95282 0.73195 0.04351 0.0
H590 H 1.00434 0.73288 0.11221 0.0
C591 C 0.04804 0.73436 0.97483 0.0
C592 C 0.14711 0.36669 0.13473 0.0
C593 C 0.18231 0.36756 0.15637 0.0
H594 H 0.11264 0.3669 0.05668 0.0
C595 C 0.2105 0.36764 0.11378 0.0
H596 H 0.12483 0.36694 0.16641 0.0
C597 C 0.20344 0.36691 0.05049 0.0
C598 C 0.16814 0.36732 0.02924 0.0
H599 H 0.23787 0.36835 0.12938 0.0
H600 H 0.22545 0.36706 0.01831 0.0
C601 C 0.14012 0.367 0.07192 0.0
C602 C 0.36555 0.88834 0.92626 0.0
C603 C 0.36608 0.86047 0.96902 0.0
H604 H 0.36528 0.90347 0.83173 0.0
C605 C 0.3658 0.82528 0.94787 0.0
H606 H 0.36534 0.91573 0.94143 0.0
C607 C 0.36647 0.81819 0.8846 0.0
C608 C 0.36618 0.84622 0.84193 0.0
H609 H 0.36611 0.80339 0.98011 0.0
H610 H 0.3673 0.7909 0.86907 0.0
C611 C 0.36517 0.88131 0.86347 0.0
C612 C 0.88731 0.66177 0.07206 0.0
C613 C 0.85928 0.66145 0.02941 0.0
H614 H 0.90261 0.66183 0.16655 0.0
C615 C 0.82398 0.66187 0.05068 0.0
H616 H 0.91478 0.66186 0.05681 0.0
C617 C 0.81694 0.66115 0.11398 0.0
C618 C 0.84513 0.66123 0.15655 0.0
H619 H 0.80197 0.66172 0.01852 0.0
H620 H 0.78956 0.66044 0.1296 0.0
C621 C 0.88033 0.66209 0.13489 0.0
C622 C 0.66194 0.14041 0.92632 0.0
C623 C 0.66138 0.16828 0.96908 0.0
H624 H 0.66222 0.12528 0.83179 0.0
C625 C 0.6616 0.20348 0.94794 0.0
H626 H 0.6622 0.11302 0.94147 0.0
C627 C 0.66091 0.21057 0.88467 0.0
C628 C 0.66122 0.18253 0.842 0.0
H629 H 0.66126 0.22537 0.98019 0.0
H630 H 0.66003 0.23785 0.86915 0.0
C631 C 0.6623 0.14744 0.86353 0.0
C632 C 0.14707 0.66216 0.86374 0.0
C633 C 0.18226 0.66126 0.84208 0.0
H634 H 0.11261 0.66198 0.94181 0.0
C635 C 0.21045 0.66118 0.88466 0.0
H636 H 0.12478 0.66191 0.83208 0.0
C637 C 0.20341 0.66192 0.94795 0.0
C638 C 0.1681 0.66153 0.96923 0.0
H639 H 0.23783 0.66045 0.86904 0.0
H640 H 0.22542 0.66176 0.98013 0.0
C641 C 0.14008 0.66187 0.92656 0.0
C642 C 0.66212 0.88134 0.13473 0.0
C643 C 0.66115 0.84626 0.15627 0.0
H644 H 0.66189 0.91576 0.05678 0.0
C645 C 0.66089 0.81822 0.1136 0.0
H646 H 0.662 0.90351 0.16648 0.0
C647 C 0.66152 0.82531 0.05033 0.0
C648 C 0.6612 0.8605 0.02918 0.0
H649 H 0.66009 0.79093 0.12912 0.0
H650 H 0.66123 0.80341 0.01808 0.0
C651 C 0.66171 0.88838 0.07194 0.0
C652 C 0.88031 0.36664 0.86377 0.0
C653 C 0.84511 0.36752 0.84213 0.0
H654 H 0.91478 0.36684 0.94182 0.0
C655 C 0.81693 0.36759 0.88473 0.0
H656 H 0.90259 0.3669 0.83209 0.0
C657 C 0.82398 0.36686 0.94802 0.0
C658 C 0.85929 0.36726 0.96927 0.0
H659 H 0.78955 0.36831 0.86913 0.0
H660 H 0.80198 0.36701 0.9802 0.0
C661 C 0.88731 0.36694 0.92659 0.0
C662 C 0.36591 0.20346 0.05027 0.0
C663 C 0.36616 0.16826 0.02912 0.0
H664 H 0.36743 0.23785 0.12906 0.0
C665 C 0.3656 0.1404 0.07188 0.0
H666 H 0.36623 0.22535 0.01802 0.0
C667 C 0.36523 0.14744 0.13467 0.0
C668 C 0.36627 0.18252 0.15621 0.0
H669 H 0.36537 0.11301 0.05672 0.0
H670 H 0.36531 0.12527 0.16641 0.0
C671 C 0.36657 0.21056 0.11354 0.0
C672 C 0.70336 0.86685 0.55044 0.0
C673 C 0.66806 0.8673 0.52916 0.0
H674 H 0.73778 0.86825 0.62935 0.0
C675 C 0.64003 0.86699 0.57183 0.0
H676 H 0.72538 0.86699 0.51827 0.0
C677 C 0.64701 0.86667 0.63465 0.0
C678 C 0.68221 0.86751 0.65631 0.0
H679 H 0.61256 0.86692 0.55657 0.0
H680 H 0.62473 0.86694 0.66631 0.0
C681 C 0.7104 0.86757 0.61373 0.0
C682 C 0.86589 0.32526 0.4481 0.0
C683 C 0.86612 0.36046 0.46925 0.0
H684 H 0.86745 0.29088 0.36931 0.0
C685 C 0.86555 0.38832 0.42649 0.0
H686 H 0.86623 0.30337 0.48035 0.0
C687 C 0.86519 0.38129 0.3637 0.0
C688 C 0.86626 0.3462 0.34216 0.0
H689 H 0.8653 0.41571 0.44165 0.0
H690 H 0.86527 0.40345 0.33196 0.0
C691 C 0.86658 0.31816 0.38483 0.0
C692 C 0.38037 0.16209 0.6346 0.0
C693 C 0.34517 0.16124 0.65624 0.0
H694 H 0.41484 0.16186 0.55653 0.0
C695 C 0.31698 0.16118 0.61366 0.0
H696 H 0.40265 0.16181 0.66627 0.0
C697 C 0.32404 0.16191 0.55037 0.0
C698 C 0.35934 0.16148 0.5291 0.0
H699 H 0.28961 0.16049 0.62927 0.0
H700 H 0.30203 0.16178 0.51819 0.0
C701 C 0.38736 0.16178 0.57178 0.0
C702 C 0.16152 0.70352 0.44808 0.0
C703 C 0.16124 0.66832 0.46921 0.0
H704 H 0.16002 0.73791 0.3693 0.0
C705 C 0.16179 0.64046 0.42644 0.0
H706 H 0.1612 0.72541 0.48033 0.0
C707 C 0.16217 0.64749 0.36365 0.0
C708 C 0.16115 0.68258 0.34213 0.0
H709 H 0.162 0.61307 0.44159 0.0
H710 H 0.16208 0.62533 0.3319 0.0
C711 C 0.16086 0.71062 0.38481 0.0
C712 C 0.70349 0.16186 0.44784 0.0
C713 C 0.66819 0.16148 0.46909 0.0
H714 H 0.73793 0.16039 0.36895 0.0
C715 C 0.64017 0.16182 0.42641 0.0
H716 H 0.7255 0.16169 0.48003 0.0
C717 C 0.64717 0.16212 0.3636 0.0
C718 C 0.68237 0.16122 0.34196 0.0
H719 H 0.61269 0.16194 0.44165 0.0
H720 H 0.62489 0.16188 0.33192 0.0
C721 C 0.71055 0.16112 0.38455 0.0
C722 C 0.16224 0.38137 0.6348 0.0
C723 C 0.16121 0.34629 0.65634 0.0
H724 H 0.16208 0.41579 0.55685 0.0
C725 C 0.16093 0.31825 0.61366 0.0
H726 H 0.16214 0.40354 0.66655 0.0
C727 C 0.1616 0.32534 0.5504 0.0
C728 C 0.16133 0.36054 0.52925 0.0
H729 H 0.16009 0.29096 0.62919 0.0
H730 H 0.16128 0.30345 0.51815 0.0
C731 C 0.16186 0.38841 0.57201 0.0
C732 C 0.38725 0.86687 0.42636 0.0
C733 C 0.35923 0.86725 0.46903 0.0
H734 H 0.40255 0.8668 0.33187 0.0
C735 C 0.32393 0.86692 0.44777 0.0
H736 H 0.41473 0.86671 0.4416 0.0
C737 C 0.31688 0.86766 0.38448 0.0
C738 C 0.34507 0.86753 0.3419 0.0
H739 H 0.30192 0.86712 0.47995 0.0
H740 H 0.2895 0.86844 0.36888 0.0
C741 C 0.38026 0.86658 0.36354 0.0
C742 C 0.86644 0.71052 0.61386 0.0
C743 C 0.86618 0.68247 0.65651 0.0
H744 H 0.8661 0.72533 0.51835 0.0
C745 C 0.8652 0.64739 0.63496 0.0
H746 H 0.86725 0.7378 0.6294 0.0
C747 C 0.8656 0.64036 0.57216 0.0
C748 C 0.86612 0.66824 0.52942 0.0
H749 H 0.86532 0.62522 0.66669 0.0
H750 H 0.86542 0.61298 0.55699 0.0
C751 C 0.8658 0.70343 0.55059 0.0
C752 C 0.29558 0.27017 0.38485 0.0
C753 C 0.32982 0.27713 0.36197 0.0
H754 H 0.24294 0.28951 0.40014 0.0
C755 C 0.33834 0.31199 0.34394 0.0
H756 H 0.28835 0.24375 0.40002 0.0
C757 C 0.31195 0.33859 0.344 0.0
C758 C 0.27689 0.33048 0.3621 0.0
H759 H 0.36454 0.31808 0.32604 0.0
H760 H 0.31834 0.36463 0.32611 0.0
C761 C 0.26953 0.29643 0.38493 0.0
C762 C 0.31187 0.69019 0.65428 0.0
C763 C 0.27679 0.69833 0.6363 0.0
H764 H 0.36447 0.71065 0.67208 0.0
C765 C 0.2694 0.73239 0.61353 0.0
H766 H 0.31828 0.66414 0.67212 0.0
C767 C 0.29544 0.75863 0.61353 0.0
C768 C 0.32971 0.75164 0.63628 0.0
H769 H 0.24279 0.73934 0.5984 0.0
H770 H 0.28818 0.78506 0.5984 0.0
C771 C 0.33825 0.71677 0.65426 0.0
C772 C 0.68912 0.7168 0.34409 0.0
C773 C 0.69764 0.75167 0.36206 0.0
H774 H 0.70912 0.66416 0.32633 0.0
C775 C 0.73188 0.75865 0.38493 0.0
H776 H 0.66292 0.7107 0.3262 0.0
C777 C 0.75793 0.73239 0.38504 0.0
C778 C 0.75057 0.69833 0.36227 0.0
H779 H 0.73911 0.78507 0.40006 0.0
H780 H 0.78451 0.73932 0.40024 0.0
C781 C 0.71551 0.69021 0.34418 0.0
C782 C 0.75797 0.29638 0.61359 0.0
C783 C 0.75057 0.33044 0.63637 0.0
H784 H 0.7392 0.2437 0.59846 0.0
C785 C 0.71549 0.33856 0.65438 0.0
H786 H 0.78457 0.28944 0.59844 0.0
C787 C 0.68911 0.31198 0.65437 0.0
C788 C 0.69767 0.27711 0.63638 0.0
H789 H 0.70907 0.36461 0.67223 0.0
H790 H 0.66289 0.31808 0.6722 0.0
C791 C 0.73193 0.27013 0.6136 0.0
C792 C 0.81181 0.83852 0.84417 0.0
C793 C 0.77674 0.8304 0.86216 0.0
H794 H 0.86443 0.81802 0.82638 0.0
C795 C 0.76936 0.79635 0.88496 0.0
H796 H 0.81821 0.86456 0.82631 0.0
C797 C 0.79541 0.7701 0.88497 0.0
C798 C 0.82967 0.77707 0.8622 0.0
H799 H 0.74276 0.78943 0.9001 0.0
H800 H 0.78817 0.74368 0.90012 0.0
C801 C 0.83821 0.81192 0.8442 0.0
C802 C 0.76956 0.23234 0.11351 0.0
C803 C 0.77694 0.19828 0.13628 0.0
H804 H 0.78833 0.28502 0.09846 0.0
C805 C 0.81201 0.19016 0.15436 0.0
H806 H 0.74296 0.23928 0.09831 0.0
C807 C 0.83838 0.21674 0.15443 0.0
C808 C 0.82983 0.25161 0.13644 0.0
H809 H 0.81841 0.16411 0.17221 0.0
H810 H 0.86459 0.21064 0.1723 0.0
C811 C 0.79559 0.25859 0.1136 0.0
C812 C 0.18915 0.21683 0.844 0.0
C813 C 0.19769 0.25169 0.86201 0.0
H814 H 0.20914 0.16419 0.82614 0.0
C815 C 0.23194 0.25865 0.88483 0.0
H816 H 0.16294 0.21074 0.82615 0.0
C817 C 0.25799 0.23239 0.88486 0.0
C818 C 0.25061 0.19834 0.86205 0.0
H819 H 0.23918 0.28507 0.89999 0.0
H820 H 0.28458 0.23931 0.90003 0.0
C821 C 0.21554 0.19023 0.84402 0.0
C822 C 0.18907 0.81204 0.15438 0.0
C823 C 0.19761 0.77717 0.1364 0.0
H824 H 0.20905 0.86468 0.17215 0.0
C825 C 0.23185 0.77017 0.11356 0.0
H826 H 0.16286 0.81815 0.17226 0.0
C827 C 0.25789 0.79642 0.11345 0.0
C828 C 0.25052 0.83048 0.13622 0.0
H829 H 0.2391 0.74374 0.09842 0.0
H830 H 0.28449 0.78947 0.09826 0.0
C831 C 0.21545 0.83862 0.1543 0.0
loop_
_geom_bond_atom_site_label_1
_geom_bond_atom_site_label_2
_geom_bond_distance
_geom_bond_site_symmetry_2
_ccdc_geom_bond_type
Fe0 O2 1.918 . S
Fe0 O5 1.997 . S
Fe0 O6 2.002 . S
Fe0 O11 1.976 . S
Fe0 O14 1.996 . S
Fe1 O2 1.918 . S
Fe1 O9 1.997 . S
Fe1 O12 1.996 . S
Fe1 O16 1.976 . S
Fe1 O19 2.002 . S
O2 Fe0 1.918 . S
O2 Fe1 1.918 . S
O2 Fe3 1.918 . S
Fe3 O2 1.918 . S
Fe3 O4 2.002 . S
Fe3 O13 1.976 . S
Fe3 O17 1.996 . S
Fe3 O20 1.997 . S
O4 Fe3 2.002 . S
O4 C21 1.295 . S
O5 Fe0 1.997 . S
O5 C21 1.235 . S
O6 Fe0 2.002 . S
O6 C7 1.295 . S
C7 O6 1.295 . S
C7 O9 1.235 . S
C8 O13 1.287 . S
C8 O14 1.255 . S
O9 Fe1 1.997 . S
O9 C7 1.235 . S
C10 O16 1.287 . S
C10 O17 1.255 . S
O11 Fe0 1.976 . S
O11 C18 1.287 . S
O12 Fe1 1.996 . S
O12 C18 1.255 . S
O13 Fe3 1.976 . S
O13 C8 1.287 . S
O14 Fe0 1.996 . S
O14 C8 1.255 . S
C15 O19 1.295 . S
C15 O20 1.235 . S
O16 Fe1 1.976 . S
O16 C10 1.287 . S
O17 Fe3 1.996 . S
O17 C10 1.255 . S
C18 O11 1.287 . S
C18 O12 1.255 . S
O19 Fe1 2.002 . S
O19 C15 1.295 . S
O20 Fe3 1.997 . S
O20 C15 1.235 . S
C21 O4 1.295 . S
C21 O5 1.235 . S
Fe22 O24 1.918 . S
Fe22 O27 1.997 . S
Fe22 O28 2.002 . S
Fe22 O33 1.976 . S
Fe22 O36 1.996 . S
Fe23 O24 1.918 . S
Fe23 O31 1.997 . S
Fe23 O34 1.996 . S
Fe23 O38 1.976 . S
Fe23 O41 2.002 . S
O24 Fe22 1.918 . S
O24 Fe23 1.918 . S
O24 Fe25 1.918 . S
Fe25 O24 1.918 . S
Fe25 O26 2.002 . S
Fe25 O35 1.976 . S
Fe25 O39 1.996 . S
Fe25 O42 1.997 . S
O26 Fe25 2.002 . S
O26 C43 1.295 . S
O27 Fe22 1.997 . S
O27 C43 1.235 . S
O28 Fe22 2.002 . S
O28 C29 1.295 . S
C29 O28 1.295 . S
C29 O31 1.235 . S
C30 O35 1.287 . S
C30 O36 1.255 . S
O31 Fe23 1.997 . S
O31 C29 1.235 . S
C32 O38 1.287 . S
C32 O39 1.255 . S
O33 Fe22 1.976 . S
O33 C40 1.287 . S
O34 Fe23 1.996 . S
O34 C40 1.255 . S
O35 Fe25 1.976 . S
O35 C30 1.287 . S
O36 Fe22 1.996 . S
O36 C30 1.255 . S
C37 O41 1.295 . S
C37 O42 1.235 . S
O38 Fe23 1.976 . S
O38 C32 1.287 . S
O39 Fe25 1.996 . S
O39 C32 1.255 . S
C40 O33 1.287 . S
C40 O34 1.255 . S
O41 Fe23 2.002 . S
O41 C37 1.295 . S
O42 Fe25 1.997 . S
O42 C37 1.235 . S
C43 O26 1.295 . S
C43 O27 1.235 . S
Fe44 O46 1.918 . S
Fe44 O49 1.997 . S
Fe44 O50 2.002 . S
Fe44 O55 1.976 . S
Fe44 O58 1.996 . S
Fe45 O46 1.918 . S
Fe45 O53 1.997 . S
Fe45 O56 1.996 . S
Fe45 O60 1.976 . S
Fe45 O63 2.002 . S
O46 Fe44 1.918 . S
O46 Fe45 1.918 . S
O46 Fe47 1.918 . S
Fe47 O46 1.918 . S
Fe47 O48 2.002 . S
Fe47 O57 1.976 . S
Fe47 O61 1.996 . S
Fe47 O64 1.997 . S
O48 Fe47 2.002 . S
O48 C65 1.295 . S
O49 Fe44 1.997 . S
O49 C65 1.235 . S
O50 Fe44 2.002 . S
O50 C51 1.295 . S
C51 O50 1.295 . S
C51 O53 1.235 . S
C52 O57 1.287 . S
C52 O58 1.255 . S
O53 Fe45 1.997 . S
O53 C51 1.235 . S
C54 O60 1.287 . S
C54 O61 1.255 . S
O55 Fe44 1.976 . S
O55 C62 1.287 . S
O56 Fe45 1.996 . S
O56 C62 1.255 . S
O57 Fe47 1.976 . S
O57 C52 1.287 . S
O58 Fe44 1.996 . S
O58 C52 1.255 . S
C59 O63 1.295 . S
C59 O64 1.235 . S
O60 Fe45 1.976 . S
O60 C54 1.287 . S
O61 Fe47 1.996 . S
O61 C54 1.255 . S
C62 O55 1.287 . S
C62 O56 1.255 . S
O63 Fe45 2.002 . S
O63 C59 1.295 . S
O64 Fe47 1.997 . S
O64 C59 1.235 . S
C65 O48 1.295 . S
C65 O49 1.235 . S
Fe66 O68 1.918 . S
Fe66 O71 1.997 . S
Fe66 O72 2.002 . S
Fe66 O77 1.976 . S
Fe66 O80 1.996 . S
Fe67 O68 1.918 . S
Fe67 O75 1.997 . S
Fe67 O78 1.996 . S
Fe67 O82 1.976 . S
Fe67 O85 2.002 . S
O68 Fe66 1.918 . S
O68 Fe67 1.918 . S
O68 Fe69 1.918 . S
Fe69 O68 1.918 . S
Fe69 O70 2.002 . S
Fe69 O79 1.976 . S
Fe69 O83 1.996 . S
Fe69 O86 1.997 . S
O70 Fe69 2.002 . S
O70 C87 1.295 . S
O71 Fe66 1.997 . S
O71 C87 1.235 . S
O72 Fe66 2.002 . S
O72 C73 1.295 . S
C73 O72 1.295 . S
C73 O75 1.235 . S
C74 O79 1.287 . S
C74 O80 1.255 . S
O75 Fe67 1.997 . S
O75 C73 1.235 . S
C76 O82 1.287 . S
C76 O83 1.255 . S
O77 Fe66 1.976 . S
O77 C84 1.287 . S
O78 Fe67 1.996 . S
O78 C84 1.255 . S
O79 Fe69 1.976 . S
O79 C74 1.287 . S
O80 Fe66 1.996 . S
O80 C74 1.255 . S
C81 O85 1.295 . S
C81 O86 1.235 . S
O82 Fe67 1.976 . S
O82 C76 1.287 . S
O83 Fe69 1.996 . S
O83 C76 1.255 . S
C84 O77 1.287 . S
C84 O78 1.255 . S
O85 Fe67 2.002 . S
O85 C81 1.295 . S
O86 Fe69 1.997 . S
O86 C81 1.235 . S
C87 O70 1.295 . S
C87 O71 1.235 . S
Fe88 O90 1.918 . S
Fe88 O93 1.997 . S
Fe88 O94 2.002 . S
Fe88 O99 1.976 . S
Fe88 O102 1.996 . S
Fe89 O90 1.918 . S
Fe89 O97 1.997 . S
Fe89 O100 1.996 . S
Fe89 O104 1.976 . S
Fe89 O107 2.002 . S
O90 Fe88 1.918 . S
O90 Fe89 1.918 . S
O90 Fe91 1.918 . S
Fe91 O90 1.918 . S
Fe91 O92 2.002 . S
Fe91 O101 1.976 . S
Fe91 O105 1.996 . S
Fe91 O108 1.997 . S
O92 Fe91 2.002 . S
O92 C109 1.295 . S
O93 Fe88 1.997 . S
O93 C109 1.235 . S
O94 Fe88 2.002 . S
O94 C95 1.295 . S
C95 O94 1.295 . S
C95 O97 1.235 . S
C96 O101 1.287 . S
C96 O102 1.255 . S
O97 Fe89 1.997 . S
O97 C95 1.235 . S
C98 O104 1.287 . S
C98 O105 1.255 . S
O99 Fe88 1.976 . S
O99 C106 1.287 . S
O100 Fe89 1.996 . S
O100 C106 1.255 . S
O101 Fe91 1.976 . S
O101 C96 1.287 . S
O102 Fe88 1.996 . S
O102 C96 1.255 . S
C103 O107 1.295 . S
C103 O108 1.235 . S
O104 Fe89 1.976 . S
O104 C98 1.287 . S
O105 Fe91 1.996 . S
O105 C98 1.255 . S
C106 O99 1.287 . S
C106 O100 1.255 . S
O107 Fe89 2.002 . S
O107 C103 1.295 . S
O108 Fe91 1.997 . S
O108 C103 1.235 . S
C109 O92 1.295 . S
C109 O93 1.235 . S
Fe110 O112 1.918 . S
Fe110 O115 1.997 . S
Fe110 O116 2.002 . S
Fe110 O121 1.976 . S
Fe110 O124 1.996 . S
Fe111 O112 1.918 . S
Fe111 O119 1.997 . S
Fe111 O122 1.996 . S
Fe111 O126 1.976 . S
Fe111 O129 2.002 . S
O112 Fe110 1.918 . S
O112 Fe111 1.918 . S
O112 Fe113 1.918 . S
Fe113 O112 1.918 . S
Fe113 O114 2.002 . S
Fe113 O123 1.976 . S
Fe113 O127 1.996 . S
Fe113 O130 1.997 . S
O114 Fe113 2.002 . S
O114 C131 1.295 . S
O115 Fe110 1.997 . S
O115 C131 1.235 . S
O116 Fe110 2.002 . S
O116 C117 1.295 . S
C117 O116 1.295 . S
C117 O119 1.235 . S
C118 O123 1.287 . S
C118 O124 1.255 . S
O119 Fe111 1.997 . S
O119 C117 1.235 . S
C120 O126 1.287 . S
C120 O127 1.255 . S
O121 Fe110 1.976 . S
O121 C128 1.287 . S
O122 Fe111 1.996 . S
O122 C128 1.255 . S
O123 Fe113 1.976 . S
O123 C118 1.287 . S
O124 Fe110 1.996 . S
O124 C118 1.255 . S
C125 O129 1.295 . S
C125 O130 1.235 . S
O126 Fe111 1.976 . S
O126 C120 1.287 . S
O127 Fe113 1.996 . S
O127 C120 1.255 . S
C128 O121 1.287 . S
C128 O122 1.255 . S
O129 Fe111 2.002 . S
O129 C125 1.295 . S
O130 Fe113 1.997 . S
O130 C125 1.235 . S
C131 O114 1.295 . S
C131 O115 1.235 . S
Fe132 O134 1.918 . S
Fe132 O137 1.997 . S
Fe132 O138 2.002 . S
Fe132 O143 1.976 . S
Fe132 O146 1.996 . S
Fe133 O134 1.918 . S
Fe133 O141 1.997 . S
Fe133 O144 1.996 . S
Fe133 O148 1.976 . S
Fe133 O151 2.002 . S
O134 Fe132 1.918 . S
O134 Fe133 1.918 . S
O134 Fe135 1.918 . S
Fe135 O134 1.918 . S
Fe135 O136 2.002 . S
Fe135 O145 1.976 . S
Fe135 O149 1.996 . S
Fe135 O152 1.997 . S
O136 Fe135 2.002 . S
O136 C153 1.295 . S
O137 Fe132 1.997 . S
O137 C153 1.235 . S
O138 Fe132 2.002 . S
O138 C139 1.295 . S
C139 O138 1.295 . S
C139 O141 1.235 . S
C140 O145 1.287 . S
C140 O146 1.255 . S
O141 Fe133 1.997 . S
O141 C139 1.235 . S
C142 O148 1.287 . S
C142 O149 1.255 . S
O143 Fe132 1.976 . S
O143 C150 1.287 . S
O144 Fe133 1.996 . S
O144 C150 1.255 . S
O145 Fe135 1.976 . S
O145 C140 1.287 . S
O146 Fe132 1.996 . S
O146 C140 1.255 . S
C147 O151 1.295 . S
C147 O152 1.235 . S
O148 Fe133 1.976 . S
O148 C142 1.287 . S
O149 Fe135 1.996 . S
O149 C142 1.255 . S
C150 O143 1.287 . S
C150 O144 1.255 . S
O151 Fe133 2.002 . S
O151 C147 1.295 . S
O152 Fe135 1.997 . S
O152 C147 1.235 . S
C153 O136 1.295 . S
C153 O137 1.235 . S
Fe154 O156 1.918 . S
Fe154 O159 1.997 . S
Fe154 O160 2.002 . S
Fe154 O165 1.976 . S
Fe154 O168 1.996 . S
Fe155 O156 1.918 . S
Fe155 O163 1.997 . S
Fe155 O166 1.996 . S
Fe155 O170 1.976 . S
Fe155 O173 2.002 . S
O156 Fe154 1.918 . S
O156 Fe155 1.918 . S
O156 Fe157 1.918 . S
Fe157 O156 1.918 . S
Fe157 O158 2.002 . S
Fe157 O167 1.976 . S
Fe157 O171 1.996 . S
Fe157 O174 1.997 . S
O158 Fe157 2.002 . S
O158 C175 1.295 . S
O159 Fe154 1.997 . S
O159 C175 1.235 . S
O160 Fe154 2.002 . S
O160 C161 1.295 . S
C161 O160 1.295 . S
C161 O163 1.235 . S
C162 O167 1.287 . S
C162 O168 1.255 . S
O163 Fe155 1.997 . S
O163 C161 1.235 . S
C164 O170 1.287 . S
C164 O171 1.255 . S
O165 Fe154 1.976 . S
O165 C172 1.287 . S
O166 Fe155 1.996 . S
O166 C172 1.255 . S
O167 Fe157 1.976 . S
O167 C162 1.287 . S
O168 Fe154 1.996 . S
O168 C162 1.255 . S
C169 O173 1.295 . S
C169 O174 1.235 . S
O170 Fe155 1.976 . S
O170 C164 1.287 . S
O171 Fe157 1.996 . S
O171 C164 1.255 . S
C172 O165 1.287 . S
C172 O166 1.255 . S
O173 Fe155 2.002 . S
O173 C169 1.295 . S
O174 Fe157 1.997 . S
O174 C169 1.235 . S
C175 O158 1.295 . S
C175 O159 1.235 . S
Fe176 O178 1.918 . S
Fe176 O181 1.997 . S
Fe176 O182 2.002 . S
Fe176 O187 1.976 . S
Fe176 O190 1.996 . S
Fe177 O178 1.918 . S
Fe177 O185 1.997 . S
Fe177 O188 1.996 . S
Fe177 O192 1.976 . S
Fe177 O195 2.002 . S
O178 Fe176 1.918 . S
O178 Fe177 1.918 . S
O178 Fe179 1.918 . S
Fe179 O178 1.918 . S
Fe179 O180 2.002 . S
Fe179 O189 1.976 . S
Fe179 O193 1.996 . S
Fe179 O196 1.997 . S
O180 Fe179 2.002 . S
O180 C197 1.295 . S
O181 Fe176 1.997 . S
O181 C197 1.235 . S
O182 Fe176 2.002 . S
O182 C183 1.295 . S
C183 O182 1.295 . S
C183 O185 1.235 . S
C184 O189 1.287 . S
C184 O190 1.255 . S
O185 Fe177 1.997 . S
O185 C183 1.235 . S
C186 O192 1.287 . S
C186 O193 1.255 . S
O187 Fe176 1.976 . S
O187 C194 1.287 . S
O188 Fe177 1.996 . S
O188 C194 1.255 . S
O189 Fe179 1.976 . S
O189 C184 1.287 . S
O190 Fe176 1.996 . S
O190 C184 1.255 . S
C191 O195 1.295 . S
C191 O196 1.235 . S
O192 Fe177 1.976 . S
O192 C186 1.287 . S
O193 Fe179 1.996 . S
O193 C186 1.255 . S
C194 O187 1.287 . S
C194 O188 1.255 . S
O195 Fe177 2.002 . S
O195 C191 1.295 . S
O196 Fe179 1.997 . S
O196 C191 1.235 . S
C197 O180 1.295 . S
C197 O181 1.235 . S
Fe198 O200 1.918 . S
Fe198 O203 1.997 . S
Fe198 O204 2.002 . S
Fe198 O209 1.976 . S
Fe198 O212 1.996 . S
Fe199 O200 1.918 . S
Fe199 O207 1.997 . S
Fe199 O210 1.996 . S
Fe199 O214 1.976 . S
Fe199 O217 2.002 . S
O200 Fe198 1.918 . S
O200 Fe199 1.918 . S
O200 Fe201 1.918 . S
Fe201 O200 1.918 . S
Fe201 O202 2.002 . S
Fe201 O211 1.976 . S
Fe201 O215 1.996 . S
Fe201 O218 1.997 . S
O202 Fe201 2.002 . S
O202 C219 1.295 . S
O203 Fe198 1.997 . S
O203 C219 1.235 . S
O204 Fe198 2.002 . S
O204 C205 1.295 . S
C205 O204 1.295 . S
C205 O207 1.235 . S
C206 O211 1.287 . S
C206 O212 1.255 . S
O207 Fe199 1.997 . S
O207 C205 1.235 . S
C208 O214 1.287 . S
C208 O215 1.255 . S
O209 Fe198 1.976 . S
O209 C216 1.287 . S
O210 Fe199 1.996 . S
O210 C216 1.255 . S
O211 Fe201 1.976 . S
O211 C206 1.287 . S
O212 Fe198 1.996 . S
O212 C206 1.255 . S
C213 O217 1.295 . S
C213 O218 1.235 . S
O214 Fe199 1.976 . S
O214 C208 1.287 . S
O215 Fe201 1.996 . S
O215 C208 1.255 . S
C216 O209 1.287 . S
C216 O210 1.255 . S
O217 Fe199 2.002 . S
O217 C213 1.295 . S
O218 Fe201 1.997 . S
O218 C213 1.235 . S
C219 O202 1.295 . S
C219 O203 1.235 . S
Fe220 O222 1.918 . S
Fe220 O225 1.997 . S
Fe220 O226 2.002 . S
Fe220 O231 1.976 . S
Fe220 O234 1.996 . S
Fe221 O222 1.918 . S
Fe221 O229 1.997 . S
Fe221 O232 1.996 . S
Fe221 O236 1.976 . S
Fe221 O239 2.002 . S
O222 Fe220 1.918 . S
O222 Fe221 1.918 . S
O222 Fe223 1.918 . S
Fe223 O222 1.918 . S
Fe223 O224 2.002 . S
Fe223 O233 1.976 . S
Fe223 O237 1.996 . S
Fe223 O240 1.997 . S
O224 Fe223 2.002 . S
O224 C241 1.295 . S
O225 Fe220 1.997 . S
O225 C241 1.235 . S
O226 Fe220 2.002 . S
O226 C227 1.295 . S
C227 O226 1.295 . S
C227 O229 1.235 . S
C228 O233 1.287 . S
C228 O234 1.255 . S
O229 Fe221 1.997 . S
O229 C227 1.235 . S
C230 O236 1.287 . S
C230 O237 1.255 . S
O231 Fe220 1.976 . S
O231 C238 1.287 . S
O232 Fe221 1.996 . S
O232 C238 1.255 . S
O233 Fe223 1.976 . S
O233 C228 1.287 . S
O234 Fe220 1.996 . S
O234 C228 1.255 . S
C235 O239 1.295 . S
C235 O240 1.235 . S
O236 Fe221 1.976 . S
O236 C230 1.287 . S
O237 Fe223 1.996 . S
O237 C230 1.255 . S
C238 O231 1.287 . S
C238 O232 1.255 . S
O239 Fe221 2.002 . S
O239 C235 1.295 . S
O240 Fe223 1.997 . S
O240 C235 1.235 . S
C241 O224 1.295 . S
C241 O225 1.235 . S
Fe242 O244 1.918 . S
Fe242 O247 1.997 . S
Fe242 O248 2.002 . S
Fe242 O253 1.976 . S
Fe242 O256 1.996 . S
Fe243 O244 1.918 . S
Fe243 O251 1.997 . S
Fe243 O254 1.996 . S
Fe243 O258 1.976 . S
Fe243 O261 2.002 . S
O244 Fe242 1.918 . S
O244 Fe243 1.918 . S
O244 Fe245 1.918 . S
Fe245 O244 1.918 . S
Fe245 O246 2.002 . S
Fe245 O255 1.976 . S
Fe245 O259 1.996 . S
Fe245 O262 1.997 . S
O246 Fe245 2.002 . S
O246 C263 1.295 . S
O247 Fe242 1.997 . S
O247 C263 1.235 . S
O248 Fe242 2.002 . S
O248 C249 1.295 . S
C249 O248 1.295 . S
C249 O251 1.235 . S
C250 O255 1.287 . S
C250 O256 1.255 . S
O251 Fe243 1.997 . S
O251 C249 1.235 . S
C252 O258 1.287 . S
C252 O259 1.255 . S
O253 Fe242 1.976 . S
O253 C260 1.287 . S
O254 Fe243 1.996 . S
O254 C260 1.255 . S
O255 Fe245 1.976 . S
O255 C250 1.287 . S
O256 Fe242 1.996 . S
O256 C250 1.255 . S
C257 O261 1.295 . S
C257 O262 1.235 . S
O258 Fe243 1.976 . S
O258 C252 1.287 . S
O259 Fe245 1.996 . S
O259 C252 1.255 . S
C260 O253 1.287 . S
C260 O254 1.255 . S
O261 Fe243 2.002 . S
O261 C257 1.295 . S
O262 Fe245 1.997 . S
O262 C257 1.235 . S
C263 O246 1.295 . S
C263 O247 1.235 . S
Fe264 O266 1.918 . S
Fe264 O269 1.997 . S
Fe264 O270 2.002 . S
Fe264 O275 1.976 . S
Fe264 O278 1.996 . S
Fe265 O266 1.918 . S
Fe265 O273 1.997 . S
Fe265 O276 1.996 . S
Fe265 O280 1.976 . S
Fe265 O283 2.002 . S
O266 Fe264 1.918 . S
O266 Fe265 1.918 . S
O266 Fe267 1.918 . S
Fe267 O266 1.918 . S
Fe267 O268 2.002 . S
Fe267 O277 1.976 . S
Fe267 O281 1.996 . S
Fe267 O284 1.997 . S
O268 Fe267 2.002 . S
O268 C285 1.295 . S
O269 Fe264 1.997 . S
O269 C285 1.235 . S
O270 Fe264 2.002 . S
O270 C271 1.295 . S
C271 O270 1.295 . S
C271 O273 1.235 . S
C272 O277 1.287 . S
C272 O278 1.255 . S
O273 Fe265 1.997 . S
O273 C271 1.235 . S
C274 O280 1.287 . S
C274 O281 1.255 . S
O275 Fe264 1.976 . S
O275 C282 1.287 . S
O276 Fe265 1.996 . S
O276 C282 1.255 . S
O277 Fe267 1.976 . S
O277 C272 1.287 . S
O278 Fe264 1.996 . S
O278 C272 1.255 . S
C279 O283 1.295 . S
C279 O284 1.235 . S
O280 Fe265 1.976 . S
O280 C274 1.287 . S
O281 Fe267 1.996 . S
O281 C274 1.255 . S
C282 O275 1.287 . S
C282 O276 1.255 . S
O283 Fe265 2.002 . S
O283 C279 1.295 . S
O284 Fe267 1.997 . S
O284 C279 1.235 . S
C285 O268 1.295 . S
C285 O269 1.235 . S
Fe286 O288 1.918 . S
Fe286 O291 1.997 . S
Fe286 O292 2.002 . S
Fe286 O297 1.976 . S
Fe286 O300 1.996 . S
Fe287 O288 1.918 . S
Fe287 O295 1.997 . S
Fe287 O298 1.996 . S
Fe287 O302 1.976 . S
Fe287 O305 2.002 . S
O288 Fe286 1.918 . S
O288 Fe287 1.918 . S
O288 Fe289 1.918 . S
Fe289 O288 1.918 . S
Fe289 O290 2.002 . S
Fe289 O299 1.976 . S
Fe289 O303 1.996 . S
Fe289 O306 1.997 . S
O290 Fe289 2.002 . S
O290 C307 1.295 . S
O291 Fe286 1.997 . S
O291 C307 1.235 . S
O292 Fe286 2.002 . S
O292 C293 1.295 . S
C293 O292 1.295 . S
C293 O295 1.235 . S
C294 O299 1.287 . S
C294 O300 1.255 . S
O295 Fe287 1.997 . S
O295 C293 1.235 . S
C296 O302 1.287 . S
C296 O303 1.255 . S
O297 Fe286 1.976 . S
O297 C304 1.287 . S
O298 Fe287 1.996 . S
O298 C304 1.255 . S
O299 Fe289 1.976 . S
O299 C294 1.287 . S
O300 Fe286 1.996 . S
O300 C294 1.255 . S
C301 O305 1.295 . S
C301 O306 1.235 . S
O302 Fe287 1.976 . S
O302 C296 1.287 . S
O303 Fe289 1.996 . S
O303 C296 1.255 . S
C304 O297 1.287 . S
C304 O298 1.255 . S
O305 Fe287 2.002 . S
O305 C301 1.295 . S
O306 Fe289 1.997 . S
O306 C301 1.235 . S
C307 O290 1.295 . S
C307 O291 1.235 . S
Fe308 O310 1.918 . S
Fe308 O313 1.997 . S
Fe308 O314 2.002 . S
Fe308 O319 1.976 . S
Fe308 O322 1.996 . S
Fe309 O310 1.918 . S
Fe309 O317 1.997 . S
Fe309 O320 1.996 . S
Fe309 O324 1.976 . S
Fe309 O327 2.002 . S
O310 Fe308 1.918 . S
O310 Fe309 1.918 . S
O310 Fe311 1.918 . S
Fe311 O310 1.918 . S
Fe311 O312 2.002 . S
Fe311 O321 1.976 . S
Fe311 O325 1.996 . S
Fe311 O328 1.997 . S
O312 Fe311 2.002 . S
O312 C329 1.295 . S
O313 Fe308 1.997 . S
O313 C329 1.235 . S
O314 Fe308 2.002 . S
O314 C315 1.295 . S
C315 O314 1.295 . S
C315 O317 1.235 . S
C316 O321 1.287 . S
C316 O322 1.255 . S
O317 Fe309 1.997 . S
O317 C315 1.235 . S
C318 O324 1.287 . S
C318 O325 1.255 . S
O319 Fe308 1.976 . S
O319 C326 1.287 . S
O320 Fe309 1.996 . S
O320 C326 1.255 . S
O321 Fe311 1.976 . S
O321 C316 1.287 . S
O322 Fe308 1.996 . S
O322 C316 1.255 . S
C323 O327 1.295 . S
C323 O328 1.235 . S
O324 Fe309 1.976 . S
O324 C318 1.287 . S
O325 Fe311 1.996 . S
O325 C318 1.255 . S
C326 O319 1.287 . S
C326 O320 1.255 . S
O327 Fe309 2.002 . S
O327 C323 1.295 . S
O328 Fe311 1.997 . S
O328 C323 1.235 . S
C329 O312 1.295 . S
C329 O313 1.235 . S
Fe330 O332 1.918 . S
Fe330 O335 1.997 . S
Fe330 O336 2.002 . S
Fe330 O341 1.976 . S
Fe330 O344 1.996 . S
Fe331 O332 1.918 . S
Fe331 O339 1.997 . S
Fe331 O342 1.996 . S
Fe331 O346 1.976 . S
Fe331 O349 2.002 . S
O332 Fe330 1.918 . S
O332 Fe331 1.918 . S
O332 Fe333 1.918 . S
Fe333 O332 1.918 . S
Fe333 O334 2.002 . S
Fe333 O343 1.976 . S
Fe333 O347 1.996 . S
Fe333 O350 1.997 . S
O334 Fe333 2.002 . S
O334 C351 1.295 . S
O335 Fe330 1.997 . S
O335 C351 1.235 . S
O336 Fe330 2.002 . S
O336 C337 1.295 . S
C337 O336 1.295 . S
C337 O339 1.235 . S
C338 O343 1.287 . S
C338 O344 1.255 . S
O339 Fe331 1.997 . S
O339 C337 1.235 . S
C340 O346 1.287 . S
C340 O347 1.255 . S
O341 Fe330 1.976 . S
O341 C348 1.287 . S
O342 Fe331 1.996 . S
O342 C348 1.255 . S
O343 Fe333 1.976 . S
O343 C338 1.287 . S
O344 Fe330 1.996 . S
O344 C338 1.255 . S
C345 O349 1.295 . S
C345 O350 1.235 . S
O346 Fe331 1.976 . S
O346 C340 1.287 . S
O347 Fe333 1.996 . S
O347 C340 1.255 . S
C348 O341 1.287 . S
C348 O342 1.255 . S
O349 Fe331 2.002 . S
O349 C345 1.295 . S
O350 Fe333 1.997 . S
O350 C345 1.235 . S
C351 O334 1.295 . S
C351 O335 1.235 . S
C352 C353 1.387 . S
C352 H356 0.950 . S
C352 C361 1.390 . S
C353 C352 1.387 . S
C353 C355 1.387 . S
H354 C361 0.950 . S
C355 C353 1.387 . S
C355 C357 1.390 . S
C355 H359 0.950 . S
H356 C352 0.950 . S
C357 C355 1.390 . S
C357 C358 1.387 . S
C357 H360 0.950 . S
C358 C357 1.387 . S
C358 C361 1.387 . S
H359 C355 0.950 . S
H360 C357 0.950 . S
C361 C352 1.390 . S
C361 H354 0.950 . S
C361 C358 1.387 . S
C362 C363 1.387 . S
C362 H366 0.950 . S
C362 C371 1.390 . S
C363 C362 1.387 . S
C363 C365 1.387 . S
H364 C371 0.950 . S
C365 C363 1.387 . S
C365 C367 1.390 . S
C365 H369 0.950 . S
H366 C362 0.950 . S
C367 C365 1.390 . S
C367 C368 1.387 . S
C367 H370 0.950 . S
C368 C367 1.387 . S
C368 C371 1.387 . S
H369 C365 0.950 . S
H370 C367 0.950 . S
C371 C362 1.390 . S
C371 H364 0.950 . S
C371 C368 1.387 . S
C372 C373 1.387 . S
C372 H376 0.950 . S
C372 C381 1.390 . S
C373 C372 1.387 . S
C373 C375 1.387 . S
H374 C381 0.950 . S
C375 C373 1.387 . S
C375 C377 1.390 . S
C375 H379 0.950 . S
H376 C372 0.950 . S
C377 C375 1.390 . S
C377 C378 1.387 . S
C377 H380 0.950 . S
C378 C377 1.387 . S
C378 C381 1.387 . S
H379 C375 0.950 . S
H380 C377 0.950 . S
C381 C372 1.390 . S
C381 H374 0.950 . S
C381 C378 1.387 . S
C382 C383 1.387 . S
C382 H386 0.950 . S
C382 C391 1.390 . S
C383 C382 1.387 . S
C383 C385 1.387 . S
H384 C391 0.950 . S
C385 C383 1.387 . S
C385 C387 1.390 . S
C385 H389 0.950 . S
H386 C382 0.950 . S
C387 C385 1.390 . S
C387 C388 1.387 . S
C387 H390 0.950 . S
C388 C387 1.387 . S
C388 C391 1.387 . S
H389 C385 0.950 . S
H390 C387 0.950 . S
C391 C382 1.390 . S
C391 H384 0.950 . S
C391 C388 1.387 . S
C392 C393 1.387 . S
C392 H396 0.950 . S
C392 C401 1.390 . S
C393 C392 1.387 . S
C393 C395 1.387 . S
H394 C401 0.950 . S
C395 C393 1.387 . S
C395 C397 1.390 . S
C395 H399 0.950 . S
H396 C392 0.950 . S
C397 C395 1.390 . S
C397 C398 1.387 . S
C397 H400 0.950 . S
C398 C397 1.387 . S
C398 C401 1.387 . S
H399 C395 0.950 . S
H400 C397 0.950 . S
C401 C392 1.390 . S
C401 H394 0.950 . S
C401 C398 1.387 . S
C402 C403 1.387 . S
C402 H406 0.950 . S
C402 C411 1.390 . S
C403 C402 1.387 . S
C403 C405 1.387 . S
H404 C411 0.950 . S
C405 C403 1.387 . S
C405 C407 1.390 . S
C405 H409 0.950 . S
H406 C402 0.950 . S
C407 C405 1.390 . S
C407 C408 1.387 . S
C407 H410 0.950 . S
C408 C407 1.387 . S
C408 C411 1.387 . S
H409 C405 0.950 . S
H410 C407 0.950 . S
C411 C402 1.390 . S
C411 H404 0.950 . S
C411 C408 1.387 . S
C412 C413 1.387 . S
C412 H416 0.950 . S
C412 C421 1.390 . S
C413 C412 1.387 . S
C413 C415 1.387 . S
H414 C421 0.950 . S
C415 C413 1.387 . S
C415 C417 1.390 . S
C415 H419 0.950 . S
H416 C412 0.950 . S
C417 C415 1.390 . S
C417 C418 1.387 . S
C417 H420 0.950 . S
C418 C417 1.387 . S
C418 C421 1.387 . S
H419 C415 0.950 . S
H420 C417 0.950 . S
C421 C412 1.390 . S
C421 H414 0.950 . S
C421 C418 1.387 . S
C422 C423 1.387 . S
C422 H426 0.950 . S
C422 C431 1.390 . S
C423 C422 1.387 . S
C423 C425 1.387 . S
H424 C431 0.950 . S
C425 C423 1.387 . S
C425 C427 1.390 . S
C425 H429 0.950 . S
H426 C422 0.950 . S
C427 C425 1.390 . S
C427 C428 1.387 . S
C427 H430 0.950 . S
C428 C427 1.387 . S
C428 C431 1.387 . S
H429 C425 0.950 . S
H430 C427 0.950 . S
C431 C422 1.390 . S
C431 H424 0.950 . S
C431 C428 1.387 . S
C432 C433 1.387 . S
C432 H436 0.950 . S
C432 C441 1.390 . S
C433 C432 1.387 . S
C433 C435 1.387 . S
H434 C441 0.950 . S
C435 C433 1.387 . S
C435 C437 1.390 . S
C435 H439 0.950 1_545 S
H436 C432 0.950 . S
C437 C435 1.390 . S
C437 C438 1.387 . S
C437 H440 0.950 . S
C438 C437 1.387 . S
C438 C441 1.387 . S
H439 C435 0.950 1_565 S
H440 C437 0.950 . S
C441 C432 1.390 . S
C441 H434 0.950 . S
C441 C438 1.387 . S
C442 C443 1.387 . S
C442 H446 0.950 . S
C442 C451 1.390 . S
C443 C442 1.387 . S
C443 C445 1.387 . S
H444 C451 0.950 . S
C445 C443 1.387 . S
C445 C447 1.390 . S
C445 H449 0.950 . S
H446 C442 0.950 . S
C447 C445 1.390 . S
C447 C448 1.387 . S
C447 H450 0.950 . S
C448 C447 1.387 . S
C448 C451 1.387 . S
H449 C445 0.950 . S
H450 C447 0.950 . S
C451 C442 1.390 . S
C451 H444 0.950 . S
C451 C448 1.387 . S
C452 C453 1.387 . S
C452 H456 0.950 . S
C452 C461 1.390 . S
C453 C452 1.387 . S
C453 C455 1.387 . S
H454 C461 0.950 1_545 S
C455 C453 1.387 . S
C455 C457 1.390 . S
C455 H459 0.950 . S
H456 C452 0.950 . S
C457 C455 1.390 . S
C457 C458 1.387 . S
C457 H460 0.950 . S
C458 C457 1.387 . S
C458 C461 1.387 . S
H459 C455 0.950 . S
H460 C457 0.950 . S
C461 C452 1.390 . S
C461 H454 0.950 1_565 S
C461 C458 1.387 . S
C462 C463 1.387 . S
C462 H466 0.950 . S
C462 C471 1.390 . S
C463 C462 1.387 . S
C463 C465 1.387 . S
H464 C471 0.950 . S
C465 C463 1.387 . S
C465 C467 1.390 . S
C465 H469 0.950 . S
H466 C462 0.950 . S
C467 C465 1.390 . S
C467 C468 1.387 . S
C467 H470 0.950 . S
C468 C467 1.387 . S
C468 C471 1.387 . S
H469 C465 0.950 . S
H470 C467 0.950 . S
C471 C462 1.390 . S
C471 H464 0.950 . S
C471 C468 1.387 . S
C472 C473 1.387 . S
C472 H476 0.950 . S
C472 C481 1.390 . S
C473 C472 1.387 . S
C473 C475 1.387 . S
H474 C481 0.950 . S
C475 C473 1.387 . S
C475 C477 1.390 . S
C475 H479 0.950 1_565 S
H476 C472 0.950 . S
C477 C475 1.390 . S
C477 C478 1.387 . S
C477 H480 0.950 . S
C478 C477 1.387 . S
C478 C481 1.387 . S
H479 C475 0.950 1_545 S
H480 C477 0.950 . S
C481 C472 1.390 . S
C481 H474 0.950 . S
C481 C478 1.387 . S
C482 C483 1.387 . S
C482 H486 0.950 . S
C482 C491 1.390 . S
C483 C482 1.387 . S
C483 C485 1.387 . S
H484 C491 0.950 . S
C485 C483 1.387 . S
C485 C487 1.390 . S
C485 H489 0.950 . S
H486 C482 0.950 . S
C487 C485 1.390 . S
C487 C488 1.387 . S
C487 H490 0.950 . S
C488 C487 1.387 . S
C488 C491 1.387 . S
H489 C485 0.950 . S
H490 C487 0.950 . S
C491 C482 1.390 . S
C491 H484 0.950 . S
C491 C488 1.387 . S
C492 C493 1.387 . S
C492 H496 0.950 . S
C492 C501 1.390 . S
C493 C492 1.387 . S
C493 C495 1.387 . S
H494 C501 0.950 . S
C495 C493 1.387 . S
C495 C497 1.390 . S
C495 H499 0.950 . S
H496 C492 0.950 . S
C497 C495 1.390 . S
C497 C498 1.387 . S
C497 H500 0.950 . S
C498 C497 1.387 . S
C498 C501 1.387 . S
H499 C495 0.950 . S
H500 C497 0.950 . S
C501 C492 1.390 . S
C501 H494 0.950 . S
C501 C498 1.387 . S
C502 C503 1.387 . S
C502 H506 0.950 . S
C502 C511 1.390 . S
C503 C502 1.387 . S
C503 C505 1.387 . S
H504 C511 0.950 . S
C505 C503 1.387 . S
C505 C507 1.390 . S
C505 H509 0.950 . S
H506 C502 0.950 . S
C507 C505 1.390 . S
C507 C508 1.387 . S
C507 H510 0.950 . S
C508 C507 1.387 . S
C508 C511 1.387 . S
H509 C505 0.950 . S
H510 C507 0.950 . S
C511 C502 1.390 . S
C511 H504 0.950 . S
C511 C508 1.387 . S
C512 C513 1.387 . S
C512 H516 0.950 . S
C512 C521 1.390 . S
C513 C512 1.387 . S
C513 C515 1.387 . S
H514 C521 0.950 . S
C515 C513 1.387 . S
C515 C517 1.390 . S
C515 H519 0.950 . S
H516 C512 0.950 . S
C517 C515 1.390 . S
C517 C518 1.387 . S
C517 H520 0.950 . S
C518 C517 1.387 . S
C518 C521 1.387 . S
H519 C515 0.950 . S
H520 C517 0.950 . S
C521 C512 1.390 . S
C521 H514 0.950 . S
C521 C518 1.387 . S
C522 C523 1.387 . S
C522 H526 0.950 . S
C522 C531 1.390 . S
C523 C522 1.387 . S
C523 C525 1.387 . S
H524 C531 0.950 . S
C525 C523 1.387 . S
C525 C527 1.390 . S
C525 H529 0.950 . S
H526 C522 0.950 . S
C527 C525 1.390 . S
C527 C528 1.387 . S
C527 H530 0.950 . S
C528 C527 1.387 . S
C528 C531 1.387 . S
H529 C525 0.950 . S
H530 C527 0.950 . S
C531 C522 1.390 . S
C531 H524 0.950 . S
C531 C528 1.387 . S
C532 C533 1.387 . S
C532 H536 0.950 . S
C532 C541 1.390 . S
C533 C532 1.387 . S
C533 C535 1.387 . S
H534 C541 0.950 . S
C535 C533 1.387 . S
C535 C537 1.390 . S
C535 H539 0.950 . S
H536 C532 0.950 . S
C537 C535 1.390 . S
C537 C538 1.387 . S
C537 H540 0.950 . S
C538 C537 1.387 . S
C538 C541 1.387 . S
H539 C535 0.950 . S
H540 C537 0.950 . S
C541 C532 1.390 . S
C541 H534 0.950 . S
C541 C538 1.387 . S
C542 C543 1.387 . S
C542 H546 0.950 . S
C542 C551 1.390 . S
C543 C542 1.387 . S
C543 C545 1.387 . S
H544 C551 0.950 . S
C545 C543 1.387 . S
C545 C547 1.390 . S
C545 H549 0.950 . S
H546 C542 0.950 . S
C547 C545 1.390 . S
C547 C548 1.387 . S
C547 H550 0.950 . S
C548 C547 1.387 . S
C548 C551 1.387 . S
H549 C545 0.950 . S
H550 C547 0.950 . S
C551 C542 1.390 . S
C551 H544 0.950 . S
C551 C548 1.387 . S
C552 C553 1.387 . S
C552 H556 0.950 . S
C552 C561 1.390 1_544 S
C553 C552 1.387 . S
C553 C555 1.387 . S
H554 C561 0.950 . S
C555 C553 1.387 . S
C555 C557 1.390 1_544 S
C555 H559 0.950 . S
H556 C552 0.950 . S
C557 C555 1.390 1_566 S
C557 C558 1.387 . S
C557 H560 0.950 . S
C558 C557 1.387 . S
C558 C561 1.387 . S
H559 C555 0.950 . S
H560 C557 0.950 . S
C561 C552 1.390 1_566 S
C561 H554 0.950 . S
C561 C558 1.387 . S
C562 C563 1.387 . S
C562 H566 0.950 . S
C562 C571 1.390 1_654 S
C563 C562 1.387 . S
C563 C565 1.387 . S
H564 C571 0.950 . S
C565 C563 1.387 . S
C565 C567 1.390 1_654 S
C565 H569 0.950 . S
H566 C562 0.950 . S
C567 C565 1.390 1_456 S
C567 C568 1.387 . S
C567 H570 0.950 . S
C568 C567 1.387 . S
C568 C571 1.387 . S
H569 C565 0.950 . S
H570 C567 0.950 . S
C571 C562 1.390 1_456 S
C571 H564 0.950 . S
C571 C568 1.387 . S
C572 C573 1.387 . S
C572 H576 0.950 . S
C572 C581 1.390 1_546 S
C573 C572 1.387 . S
C573 C575 1.387 . S
H574 C581 0.950 . S
C575 C573 1.387 . S
C575 C577 1.390 1_546 S
C575 H579 0.950 . S
H576 C572 0.950 . S
C577 C575 1.390 1_564 S
C577 C578 1.387 . S
C577 H580 0.950 . S
C578 C577 1.387 . S
C578 C581 1.387 . S
H579 C575 0.950 . S
H580 C577 0.950 . S
C581 C572 1.390 1_564 S
C581 H574 0.950 . S
C581 C578 1.387 . S
C582 C583 1.387 . S
C582 H586 0.950 . S
C582 C591 1.390 1_656 S
C583 C582 1.387 . S
C583 C585 1.387 . S
H584 C591 0.950 . S
C585 C583 1.387 . S
C585 C587 1.390 1_656 S
C585 H589 0.950 . S
H586 C582 0.950 . S
C587 C585 1.390 1_454 S
C587 C588 1.387 . S
C587 H590 0.950 . S
C588 C587 1.387 . S
C588 C591 1.387 . S
H589 C585 0.950 . S
H590 C587 0.950 . S
C591 C582 1.390 1_454 S
C591 H584 0.950 . S
C591 C588 1.387 . S
C592 C593 1.387 . S
C592 H596 0.950 . S
C592 C601 1.390 . S
C593 C592 1.387 . S
C593 C595 1.387 . S
H594 C601 0.950 . S
C595 C593 1.387 . S
C595 C597 1.390 . S
C595 H599 0.950 . S
H596 C592 0.950 . S
C597 C595 1.390 . S
C597 C598 1.387 . S
C597 H600 0.950 1_554 S
C598 C597 1.387 . S
C598 C601 1.387 . S
H599 C595 0.950 . S
H600 C597 0.950 1_556 S
C601 C592 1.390 . S
C601 H594 0.950 . S
C601 C598 1.387 . S
C602 C603 1.387 . S
C602 H606 0.950 . S
C602 C611 1.390 . S
C603 C602 1.387 . S
C603 C605 1.387 . S
H604 C611 0.950 . S
C605 C603 1.387 . S
C605 C607 1.390 . S
C605 H609 0.950 1_556 S
H606 C602 0.950 . S
C607 C605 1.390 . S
C607 C608 1.387 . S
C607 H610 0.950 . S
C608 C607 1.387 . S
C608 C611 1.387 . S
H609 C605 0.950 1_554 S
H610 C607 0.950 . S
C611 C602 1.390 . S
C611 H604 0.950 . S
C611 C608 1.387 . S
C612 C613 1.387 . S
C612 H616 0.950 . S
C612 C621 1.390 . S
C613 C612 1.387 . S
C613 C615 1.387 . S
H614 C621 0.950 . S
C615 C613 1.387 . S
C615 C617 1.390 . S
C615 H619 0.950 1_554 S
H616 C612 0.950 . S
C617 C615 1.390 . S
C617 C618 1.387 . S
C617 H620 0.950 . S
C618 C617 1.387 . S
C618 C621 1.387 . S
H619 C615 0.950 1_556 S
H620 C617 0.950 . S
C621 C612 1.390 . S
C621 H614 0.950 . S
C621 C618 1.387 . S
C622 C623 1.387 . S
C622 H626 0.950 . S
C622 C631 1.390 . S
C623 C622 1.387 . S
C623 C625 1.387 . S
H624 C631 0.950 . S
C625 C623 1.387 . S
C625 C627 1.390 . S
C625 H629 0.950 1_556 S
H626 C622 0.950 . S
C627 C625 1.390 . S
C627 C628 1.387 . S
C627 H630 0.950 . S
C628 C627 1.387 . S
C628 C631 1.387 . S
H629 C625 0.950 1_554 S
H630 C627 0.950 . S
C631 C622 1.390 . S
C631 H624 0.950 . S
C631 C628 1.387 . S
C632 C633 1.387 . S
C632 H636 0.950 . S
C632 C641 1.390 . S
C633 C632 1.387 . S
C633 C635 1.387 . S
H634 C641 0.950 . S
C635 C633 1.387 . S
C635 C637 1.390 . S
C635 H639 0.950 . S
H636 C632 0.950 . S
C637 C635 1.390 . S
C637 C638 1.387 . S
C637 H640 0.946 1_556 S
C638 C637 1.387 . S
C638 C641 1.387 . S
H639 C635 0.950 . S
H640 C637 0.946 1_554 S
C641 C632 1.390 . S
C641 H634 0.950 . S
C641 C638 1.387 . S
C642 C643 1.387 . S
C642 H646 0.950 . S
C642 C651 1.390 . S
C643 C642 1.387 . S
C643 C645 1.387 . S
H644 C651 0.950 . S
C645 C643 1.387 . S
C645 C647 1.390 . S
C645 H649 0.950 . S
H646 C642 0.950 . S
C647 C645 1.390 . S
C647 C648 1.387 . S
C647 H650 0.950 1_554 S
C648 C647 1.387 . S
C648 C651 1.387 . S
H649 C645 0.950 . S
H650 C647 0.950 1_556 S
C651 C642 1.390 . S
C651 H644 0.950 . S
C651 C648 1.387 . S
C652 C653 1.387 . S
C652 H656 0.950 . S
C652 C661 1.390 . S
C653 C652 1.387 . S
C653 C655 1.387 . S
H654 C661 0.950 . S
C655 C653 1.387 . S
C655 C657 1.390 . S
C655 H659 0.950 . S
H656 C652 0.950 . S
C657 C655 1.390 . S
C657 C658 1.387 . S
C657 H660 0.950 1_556 S
C658 C657 1.387 . S
C658 C661 1.387 . S
H659 C655 0.950 . S
H660 C657 0.950 1_554 S
C661 C652 1.390 . S
C661 H654 0.950 . S
C661 C658 1.387 . S
C662 C663 1.387 . S
C662 H666 0.950 . S
C662 C671 1.390 . S
C663 C662 1.387 . S
C663 C665 1.387 . S
H664 C671 0.950 . S
C665 C663 1.387 . S
C665 C667 1.390 . S
C665 H669 0.950 . S
H666 C662 0.950 . S
C667 C665 1.390 . S
C667 C668 1.387 . S
C667 H670 0.950 . S
C668 C667 1.387 . S
C668 C671 1.387 . S
H669 C665 0.950 . S
H670 C667 0.950 . S
C671 C662 1.390 . S
C671 H664 0.950 . S
C671 C668 1.387 . S
C672 C673 1.387 . S
C672 H676 0.950 . S
C672 C681 1.390 . S
C673 C672 1.387 . S
C673 C675 1.387 . S
H674 C681 0.950 . S
C675 C673 1.387 . S
C675 C677 1.390 . S
C675 H679 0.950 . S
H676 C672 0.950 . S
C677 C675 1.390 . S
C677 C678 1.387 . S
C677 H680 0.950 . S
C678 C677 1.387 . S
C678 C681 1.387 . S
H679 C675 0.950 . S
H680 C677 0.950 . S
C681 C672 1.390 . S
C681 H674 0.950 . S
C681 C678 1.387 . S
C682 C683 1.387 . S
C682 H686 0.950 . S
C682 C691 1.390 . S
C683 C682 1.387 . S
C683 C685 1.387 . S
H684 C691 0.950 . S
C685 C683 1.387 . S
C685 C687 1.390 . S
C685 H689 0.950 . S
H686 C682 0.950 . S
C687 C685 1.390 . S
C687 C688 1.387 . S
C687 H690 0.950 . S
C688 C687 1.387 . S
C688 C691 1.387 . S
H689 C685 0.950 . S
H690 C687 0.950 . S
C691 C682 1.390 . S
C691 H684 0.950 . S
C691 C688 1.387 . S
C692 C693 1.387 . S
C692 H696 0.950 . S
C692 C701 1.390 . S
C693 C692 1.387 . S
C693 C695 1.387 . S
H694 C701 0.950 . S
C695 C693 1.387 . S
C695 C697 1.390 . S
C695 H699 0.950 . S
H696 C692 0.950 . S
C697 C695 1.390 . S
C697 C698 1.387 . S
C697 H700 0.950 . S
C698 C697 1.387 . S
C698 C701 1.387 . S
H699 C695 0.950 . S
H700 C697 0.950 . S
C701 C692 1.390 . S
C701 H694 0.950 . S
C701 C698 1.387 . S
C702 C703 1.387 . S
C702 H706 0.950 . S
C702 C711 1.390 . S
C703 C702 1.387 . S
C703 C705 1.387 . S
H704 C711 0.950 . S
C705 C703 1.387 . S
C705 C707 1.390 . S
C705 H709 0.950 . S
H706 C702 0.950 . S
C707 C705 1.390 . S
C707 C708 1.387 . S
C707 H710 0.950 . S
C708 C707 1.387 . S
C708 C711 1.387 . S
H709 C705 0.950 . S
H710 C707 0.950 . S
C711 C702 1.390 . S
C711 H704 0.950 . S
C711 C708 1.387 . S
C712 C713 1.387 . S
C712 H716 0.950 . S
C712 C721 1.390 . S
C713 C712 1.387 . S
C713 C715 1.387 . S
H714 C721 0.950 . S
C715 C713 1.387 . S
C715 C717 1.390 . S
C715 H719 0.950 . S
H716 C712 0.950 . S
C717 C715 1.390 . S
C717 C718 1.387 . S
C717 H720 0.950 . S
C718 C717 1.387 . S
C718 C721 1.387 . S
H719 C715 0.950 . S
H720 C717 0.950 . S
C721 C712 1.390 . S
C721 H714 0.950 . S
C721 C718 1.387 . S
C722 C723 1.387 . S
C722 H726 0.950 . S
C722 C731 1.390 . S
C723 C722 1.387 . S
C723 C725 1.387 . S
H724 C731 0.950 . S
C725 C723 1.387 . S
C725 C727 1.390 . S
C725 H729 0.950 . S
H726 C722 0.950 . S
C727 C725 1.390 . S
C727 C728 1.387 . S
C727 H730 0.950 . S
C728 C727 1.387 . S
C728 C731 1.387 . S
H729 C725 0.950 . S
H730 C727 0.950 . S
C731 C722 1.390 . S
C731 H724 0.950 . S
C731 C728 1.387 . S
C732 C733 1.387 . S
C732 H736 0.950 . S
C732 C741 1.390 . S
C733 C732 1.387 . S
C733 C735 1.387 . S
H734 C741 0.950 . S
C735 C733 1.387 . S
C735 C737 1.390 . S
C735 H739 0.950 . S
H736 C732 0.950 . S
C737 C735 1.390 . S
C737 C738 1.387 . S
C737 H740 0.950 . S
C738 C737 1.387 . S
C738 C741 1.387 . S
H739 C735 0.950 . S
H740 C737 0.950 . S
C741 C732 1.390 . S
C741 H734 0.950 . S
C741 C738 1.387 . S
C742 C743 1.387 . S
C742 H746 0.950 . S
C742 C751 1.390 . S
C743 C742 1.387 . S
C743 C745 1.387 . S
H744 C751 0.950 . S
C745 C743 1.387 . S
C745 C747 1.390 . S
C745 H749 0.950 . S
H746 C742 0.950 . S
C747 C745 1.390 . S
C747 C748 1.387 . S
C747 H750 0.950 . S
C748 C747 1.387 . S
C748 C751 1.387 . S
H749 C745 0.950 . S
H750 C747 0.950 . S
C751 C742 1.390 . S
C751 H744 0.950 . S
C751 C748 1.387 . S
C752 C753 1.387 . S
C752 H756 0.950 . S
C752 C761 1.390 . S
C753 C752 1.387 . S
C753 C755 1.387 . S
H754 C761 0.950 . S
C755 C753 1.387 . S
C755 C757 1.390 . S
C755 H759 0.950 . S
H756 C752 0.950 . S
C757 C755 1.390 . S
C757 C758 1.387 . S
C757 H760 0.950 . S
C758 C757 1.387 . S
C758 C761 1.387 . S
H759 C755 0.950 . S
H760 C757 0.950 . S
C761 C752 1.390 . S
C761 H754 0.950 . S
C761 C758 1.387 . S
C762 C763 1.387 . S
C762 H766 0.950 . S
C762 C771 1.390 . S
C763 C762 1.387 . S
C763 C765 1.387 . S
H764 C771 0.950 . S
C765 C763 1.387 . S
C765 C767 1.390 . S
C765 H769 0.950 . S
H766 C762 0.950 . S
C767 C765 1.390 . S
C767 C768 1.387 . S
C767 H770 0.950 . S
C768 C767 1.387 . S
C768 C771 1.387 . S
H769 C765 0.950 . S
H770 C767 0.950 . S
C771 C762 1.390 . S
C771 H764 0.950 . S
C771 C768 1.387 . S
C772 C773 1.387 . S
C772 H776 0.950 . S
C772 C781 1.390 . S
C773 C772 1.387 . S
C773 C775 1.387 . S
H774 C781 0.950 . S
C775 C773 1.387 . S
C775 C777 1.390 . S
C775 H779 0.950 . S
H776 C772 0.950 . S
C777 C775 1.390 . S
C777 C778 1.387 . S
C777 H780 0.950 . S
C778 C777 1.387 . S
C778 C781 1.387 . S
H779 C775 0.950 . S
H780 C777 0.950 . S
C781 C772 1.390 . S
C781 H774 0.950 . S
C781 C778 1.387 . S
C782 C783 1.387 . S
C782 H786 0.950 . S
C782 C791 1.390 . S
C783 C782 1.387 . S
C783 C785 1.387 . S
H784 C791 0.950 . S
C785 C783 1.387 . S
C785 C787 1.390 . S
C785 H789 0.950 . S
H786 C782 0.950 . S
C787 C785 1.390 . S
C787 C788 1.387 . S
C787 H790 0.950 . S
C788 C787 1.387 . S
C788 C791 1.387 . S
H789 C785 0.950 . S
H790 C787 0.950 . S
C791 C782 1.390 . S
C791 H784 0.950 . S
C791 C788 1.387 . S
C792 C793 1.387 . S
C792 H796 0.950 . S
C792 C801 1.390 . S
C793 C792 1.387 . S
C793 C795 1.387 . S
H794 C801 0.950 . S
C795 C793 1.387 . S
C795 C797 1.390 . S
C795 H799 0.950 . S
H796 C792 0.950 . S
C797 C795 1.390 . S
C797 C798 1.387 . S
C797 H800 0.950 . S
C798 C797 1.387 . S
C798 C801 1.387 . S
H799 C795 0.950 . S
H800 C797 0.950 . S
C801 C792 1.390 . S
C801 H794 0.950 . S
C801 C798 1.387 . S
C802 C803 1.387 . S
C802 H806 0.950 . S
C802 C811 1.390 . S
C803 C802 1.387 . S
C803 C805 1.387 . S
H804 C811 0.950 . S
C805 C803 1.387 . S
C805 C807 1.390 . S
C805 H809 0.950 . S
H806 C802 0.950 . S
C807 C805 1.390 . S
C807 C808 1.387 . S
C807 H810 0.950 . S
C808 C807 1.387 . S
C808 C811 1.387 . S
H809 C805 0.950 . S
H810 C807 0.950 . S
C811 C802 1.390 . S
C811 H804 0.950 . S
C811 C808 1.387 . S
C812 C813 1.387 . S
C812 H816 0.950 . S
C812 C821 1.390 . S
C813 C812 1.387 . S
C813 C815 1.387 . S
H814 C821 0.950 . S
C815 C813 1.387 . S
C815 C817 1.390 . S
C815 H819 0.950 . S
H816 C812 0.950 . S
C817 C815 1.390 . S
C817 C818 1.387 . S
C817 H820 0.950 . S
C818 C817 1.387 . S
C818 C821 1.387 . S
H819 C815 0.950 . S
H820 C817 0.950 . S
C821 C812 1.390 . S
C821 H814 0.950 . S
C821 C818 1.387 . S
C822 C823 1.387 . S
C822 H826 0.950 . S
C822 C831 1.390 . S
C823 C822 1.387 . S
C823 C825 1.387 . S
H824 C831 0.950 . S
C825 C823 1.387 . S
C825 C827 1.390 . S
C825 H829 0.950 . S
H826 C822 0.950 . S
C827 C825 1.390 . S
C827 C828 1.387 . S
C827 H830 0.950 . S
C828 C827 1.387 . S
C828 C831 1.387 . S
H829 C825 0.950 . S
H830 C827 0.950 . S
C831 C822 1.390 . S
C831 H824 0.950 . S
C831 C828 1.387 . S
C353 C15 1.461 . S
C358 C257 1.476 . S
C363 C37 1.466 . S
C368 C183 1.476 . S
C373 C205 1.476 . S
C378 C65 1.460 . S
C383 C241 1.475 . S
C388 C73 1.466 . S
C393 C103 1.459 . S
C398 C307 1.475 . S
C403 C131 1.466 . S
C408 C323 1.477 . S
C413 C345 1.475 . S
C418 C147 1.460 . S
C423 C285 1.476 . S
C428 C161 1.466 . S
C433 C191 1.460 1_545 S
C438 C81 1.475 . S
C443 C7 1.476 . S
C448 C219 1.466 1_455 S
C453 C43 1.475 . S
C458 C227 1.461 1_565 S
C463 C249 1.465 1_655 S
C468 C59 1.476 . S
C473 C271 1.459 1_565 S
C478 C117 1.475 . S
C483 C139 1.476 . S
C488 C301 1.465 1_655 S
C493 C169 1.475 . S
C498 C329 1.459 1_545 S
C503 C95 1.476 . S
C508 C337 1.465 1_455 S
C513 C98 1.280 . S
C518 C10 1.280 . S
C523 C32 1.249 . S
C528 C118 1.249 . S
C533 C142 1.280 . S
C538 C52 1.280 . S
C543 C172 1.250 . S
C548 C84 1.250 . S
C553 C282 1.280 . S
C558 C186 1.280 . S
C563 C206 1.249 . S
C568 C296 1.249 . S
C573 C238 1.280 . S
C578 C316 1.280 . S
C583 C348 1.250 . S
C588 C260 1.250 . S
C593 C21 1.524 . S
C598 C294 1.548 1_554 S
C603 C318 1.544 1_556 S
C608 C29 1.513 . S
C613 C340 1.548 1_554 S
C618 C51 1.524 . S
C623 C272 1.544 1_556 S
C628 C87 1.513 . S
C633 C109 1.523 . S
C638 C252 1.548 1_556 S
C643 C125 1.514 . S
C648 C194 1.544 1_554 S
C653 C153 1.525 . S
C658 C216 1.548 1_556 S
C663 C228 1.543 1_554 S
C668 C175 1.515 . S
C673 C128 1.548 . S
C678 C197 1.523 . S
C683 C150 1.543 . S
C688 C213 1.514 . S
C693 C235 1.523 . S
C698 C164 1.548 . S
C703 C106 1.543 . S
C708 C263 1.515 . S
C713 C76 1.548 . S
C718 C279 1.523 . S
C723 C293 1.513 . S
C728 C18 1.544 . S
C733 C30 1.548 . S
C738 C315 1.525 . S
C743 C351 1.514 . S
C748 C54 1.543 . S
C753 C162 1.277 . S
C758 C8 1.270 . S
C763 C96 1.272 . S
C768 C40 1.276 . S
C773 C120 1.276 . S
C778 C62 1.272 . S
C783 C140 1.270 . S
C788 C74 1.277 . S
C793 C184 1.272 . S
C798 C338 1.276 . S
C803 C274 1.270 . S
C808 C208 1.277 . S
C813 C304 1.276 . S
C818 C230 1.272 . S
C823 C250 1.276 . S
C828 C326 1.272 . S
