# Generated by pormake.
# Topology fcu, (12)-cn, num edge types: 1
# Building blocks:
#     Node 0, Type 0, BuildingBlock: ENOWUB_clean_sbu_0, # of connection points: 12
#     Node 1, Type 0, BuildingBlock: ENOWUB_clean_sbu_0, # of connection points: 12
#     Node 2, Type 0, BuildingBlock: ENOWUB_clean_sbu_0, # of connection points: 12
#     Node 3, Type 0, BuildingBlock: ENOWUB_clean_sbu_0, # of connection points: 12
#     Edge 4, Type (0, 0), BuildingBlock: OJICUG_clean_linker_0, # of connection points: 2
#     Edge 5, Type (0, 0), BuildingBlock: OJICUG_clean_linker_0, # of connection points: 2
#     Edge 6, Type (0, 0), BuildingBlock: OJICUG_clean_linker_0, # of connection points: 2
#     Edge 7, Type (0, 0), BuildingBlock: OJICUG_clean_linker_0, # of connection points: 2
#     Edge 8, Type (0, 0), BuildingBlock: OJICUG_clean_linker_0, # of connection points: 2
#     Edge 9, Type (0, 0), BuildingBlock: OJICUG_clean_linker_0, # of connection points: 2
#     Edge 10, Type (0, 0), BuildingBlock: OJICUG_clean_linker_0, # of connection points: 2
#     Edge 11, Type (0, 0), BuildingBlock: OJICUG_clean_linker_0, # of connection points: 2
#     Edge 12, Type (0, 0), BuildingBlock: OJICUG_clean_linker_0, # of connection points: 2
#     Edge 13, Type (0, 0), BuildingBlock: OJICUG_clean_linker_0, # of connection points: 2
#     Edge 14, Type (0, 0), BuildingBlock: OJICUG_clean_linker_0, # of connection points: 2
#     Edge 15, Type (0, 0), BuildingBlock: OJICUG_clean_linker_0, # of connection points: 2
#     Edge 16, Type (0, 0), BuildingBlock: OJICUG_clean_linker_0, # of connection points: 2
#     Edge 17, Type (0, 0), BuildingBlock: OJICUG_clean_linker_0, # of connection points: 2
#     Edge 18, Type (0, 0), BuildingBlock: OJICUG_clean_linker_0, # of connection points: 2
#     Edge 19, Type (0, 0), BuildingBlock: OJICUG_clean_linker_0, # of connection points: 2
#     Edge 20, Type (0, 0), BuildingBlock: OJICUG_clean_linker_0, # of connection points: 2
#     Edge 21, Type (0, 0), BuildingBlock: OJICUG_clean_linker_0, # of connection points: 2
#     Edge 22, Type (0, 0), BuildingBlock: OJICUG_clean_linker_0, # of connection points: 2
#     Edge 23, Type (0, 0), BuildingBlock: OJICUG_clean_linker_0, # of connection points: 2
#     Edge 24, Type (0, 0), BuildingBlock: OJICUG_clean_linker_0, # of connection points: 2
#     Edge 25, Type (0, 0), BuildingBlock: OJICUG_clean_linker_0, # of connection points: 2
#     Edge 26, Type (0, 0), BuildingBlock: OJICUG_clean_linker_0, # of connection points: 2
#     Edge 27, Type (0, 0), BuildingBlock: OJICUG_clean_linker_0, # of connection points: 2
# Relax obj value: 0.000
# Max RMSD: 0.000
# Mean RMSD: 0.000
data_MOF--net-fcu--node1-ENOWUB_clean_sbu_0--edge1-OJICUG_clean_linker_0
_symmetry_space_group_name_H-M    P1
_symmetry_Int_Tables_number       1
_symmetry_cell_setting            triclinic
loop_
_symmetry_equiv_pos_as_xyz
'x, y, z'
_cell_length_a     21.695729
_cell_length_b     21.696899
_cell_length_c     21.695961
_cell_angle_alpha  90.000004
_cell_angle_beta   90.000002
_cell_angle_gamma 89.999998
loop_
_atom_site_label
_atom_site_type_symbol
_atom_site_fract_x
_atom_site_fract_y
_atom_site_fract_z
_atom_type_partial_charge
O0 O 0.15237 0.87726 -0.02266 0.0
O1 O 0.03989 0.91477 0.03987 0.0
O2 O 0.03988 0.03986 0.91477 0.0
O3 O 0.03989 0.91476 0.91478 0.0
O4 O 0.03987 0.03986 0.03986 0.0
Zr5 Zr 0.10156 -0.02268 -0.02268 0.0
Zr6 Zr -0.02266 -0.02268 0.10154 0.0
Zr7 Zr -0.02265 0.85309 -0.02267 0.0
O8 O 0.91478 0.03985 0.03986 0.0
O9 O 0.9148 0.91475 0.91477 0.0
O10 O 0.9148 0.91476 0.03988 0.0
Zr11 Zr -0.02268 0.10153 -0.02269 0.0
Zr12 Zr -0.02266 -0.0227 0.8531 0.0
Zr13 Zr 0.85311 -0.02271 -0.02268 0.0
O14 O 0.91478 0.03984 0.91477 0.0
O15 O 0.80229 0.07735 -0.02267 0.0
O16 O 0.80234 0.8772 -0.02267 0.0
O17 O 0.15234 0.07739 -0.02266 0.0
O18 O -0.02267 0.1523 0.87723 0.0
O19 O -0.02262 0.80231 0.07741 0.0
O20 O -0.02262 0.80231 0.87725 0.0
O21 O -0.02267 0.15233 0.07738 0.0
O22 O 0.87726 -0.02266 0.15233 0.0
O23 O 0.07741 -0.02268 0.80231 0.0
O24 O 0.87727 -0.02268 0.80231 0.0
O25 O 0.07742 -0.02266 0.15233 0.0
O26 O 0.87722 0.15229 -0.02267 0.0
O27 O 0.07743 0.80232 -0.02266 0.0
O28 O 0.87729 0.80228 -0.02266 0.0
O29 O 0.07739 0.15232 -0.02267 0.0
O30 O 0.15235 -0.02266 0.07739 0.0
O31 O 0.80233 -0.0227 0.87724 0.0
O32 O 0.80232 -0.0227 0.0774 0.0
O33 O 0.15235 -0.02266 0.87725 0.0
C34 C 0.134 0.82069 -0.02266 0.0
O35 O -0.02264 0.0774 0.15232 0.0
O36 O -0.02264 0.87725 0.15234 0.0
C37 C 0.82065 0.13392 -0.02266 0.0
C38 C 0.82071 0.82064 -0.02266 0.0
C39 C 0.13396 0.13396 -0.02266 0.0
C40 C -0.02265 0.13393 0.82066 0.0
C41 C -0.02262 0.82068 0.13398 0.0
C42 C -0.02262 0.82067 0.82068 0.0
C43 C -0.02265 0.13396 0.13396 0.0
C44 C 0.82069 -0.02268 0.13397 0.0
C45 C 0.13398 -0.02266 0.82068 0.0
C46 C 0.8207 -0.02268 0.82067 0.0
C47 C 0.13399 -0.02265 0.13396 0.0
O48 O -0.02264 0.87723 0.80231 0.0
O49 O -0.02264 0.07737 0.8023 0.0
O50 O 0.15235 0.37724 0.47733 0.0
O51 O 0.03988 0.41476 0.53988 0.0
O52 O 0.03989 0.53986 0.41479 0.0
O53 O 0.03989 0.41477 0.41479 0.0
O54 O 0.03988 0.53985 0.53989 0.0
Zr55 Zr 0.10156 0.47731 0.47734 0.0
Zr56 Zr -0.02267 0.47729 0.60156 0.0
Zr57 Zr -0.02266 0.35309 0.47732 0.0
O58 O 0.91478 0.53985 0.53988 0.0
O59 O 0.91479 0.41477 0.41478 0.0
O60 O 0.91478 0.41475 0.53987 0.0
Zr61 Zr -0.02266 0.60152 0.47734 0.0
Zr62 Zr -0.02265 0.47731 0.35311 0.0
Zr63 Zr 0.85311 0.47731 0.47732 0.0
O64 O 0.91479 0.53986 0.41478 0.0
O65 O 0.80232 0.57738 0.4773 0.0
O66 O 0.80232 0.37724 0.4773 0.0
O67 O 0.15235 0.57738 0.47733 0.0
O68 O -0.02264 0.65233 0.37728 0.0
O69 O -0.02265 0.3023 0.5774 0.0
O70 O -0.02264 0.3023 0.37725 0.0
O71 O -0.02265 0.6523 0.57743 0.0
O72 O 0.87725 0.47727 0.65234 0.0
O73 O 0.07743 0.4773 0.30234 0.0
O74 O 0.87728 0.4773 0.3023 0.0
O75 O 0.0774 0.47727 0.65235 0.0
O76 O 0.87726 0.65231 0.47733 0.0
O77 O 0.07741 0.30231 0.47731 0.0
O78 O 0.87725 0.30231 0.47731 0.0
O79 O 0.07741 0.65231 0.47733 0.0
O80 O 0.15234 0.47729 0.57741 0.0
O81 O 0.80234 0.47729 0.37724 0.0
O82 O 0.80232 0.47729 0.5774 0.0
O83 O 0.15237 0.47729 0.37728 0.0
C84 C 0.13399 0.32067 0.47732 0.0
O85 O -0.02265 0.57736 0.65236 0.0
O86 O -0.02265 0.37722 0.65234 0.0
C87 C 0.82068 0.63394 0.47731 0.0
C88 C 0.82068 0.32067 0.4773 0.0
C89 C 0.13398 0.63395 0.47733 0.0
C90 C -0.02262 0.63397 0.3207 0.0
C91 C -0.02264 0.32066 0.63397 0.0
C92 C -0.02262 0.32067 0.32068 0.0
C93 C -0.02264 0.63393 0.634 0.0
C94 C 0.82068 0.47727 0.63397 0.0
C95 C 0.134 0.47728 0.32071 0.0
C96 C 0.82071 0.47728 0.32067 0.0
C97 C 0.13397 0.47727 0.63398 0.0
O98 O -0.02262 0.37724 0.30232 0.0
O99 O -0.02262 0.5774 0.30233 0.0
O100 O 0.65235 -0.02266 0.37726 0.0
O101 O 0.53988 0.03988 0.4148 0.0
O102 O 0.53988 0.91475 0.53986 0.0
O103 O 0.53988 0.91479 0.41477 0.0
O104 O 0.53988 0.03985 0.53989 0.0
Zr105 Zr 0.60155 -0.02268 0.47733 0.0
Zr106 Zr 0.47733 0.10153 0.47736 0.0
Zr107 Zr 0.47733 -0.02265 0.35311 0.0
O108 O 0.41478 0.03984 0.53989 0.0
O109 O 0.41478 0.91479 0.41476 0.0
O110 O 0.41479 0.03987 0.4148 0.0
Zr111 Zr 0.47733 -0.02272 0.60155 0.0
Zr112 Zr 0.47733 0.8531 0.47729 0.0
Zr113 Zr 0.35311 -0.02268 0.47733 0.0
O114 O 0.41478 0.91475 0.53986 0.0
O115 O 0.30233 -0.02267 0.57741 0.0
O116 O 0.30232 -0.02266 0.37726 0.0
O117 O 0.65234 -0.02267 0.57741 0.0
O118 O 0.47731 0.87718 0.6523 0.0
O119 O 0.47732 0.07743 0.30235 0.0
O120 O 0.47732 0.87729 0.30228 0.0
O121 O 0.47731 0.07733 0.65238 0.0
O122 O 0.37725 0.15231 0.47735 0.0
O123 O 0.57741 0.80231 0.47726 0.0
O124 O 0.37724 0.80232 0.47726 0.0
O125 O 0.5774 0.15232 0.47735 0.0
O126 O 0.37727 -0.02272 0.65235 0.0
O127 O 0.57742 -0.02262 0.30232 0.0
O128 O 0.37725 -0.02262 0.30232 0.0
O129 O 0.5774 -0.02272 0.65235 0.0
O130 O 0.65234 0.07739 0.47732 0.0
O131 O 0.30231 0.87725 0.47731 0.0
O132 O 0.30231 0.07738 0.47732 0.0
O133 O 0.65235 0.87725 0.47731 0.0
C134 C 0.63399 -0.02263 0.32069 0.0
O135 O 0.47731 0.15228 0.57746 0.0
O136 O 0.47731 0.15235 0.3773 0.0
C137 C 0.3207 -0.02269 0.63398 0.0
C138 C 0.32068 -0.02264 0.32069 0.0
C139 C 0.63397 -0.02269 0.63398 0.0
C140 C 0.4773 0.82062 0.63393 0.0
C141 C 0.47731 0.134 0.32073 0.0
C142 C 0.47731 0.82072 0.32063 0.0
C143 C 0.4773 0.1339 0.63402 0.0
C144 C 0.32068 0.13395 0.47733 0.0
C145 C 0.63398 0.82068 0.47728 0.0
C146 C 0.32067 0.82068 0.47728 0.0
C147 C 0.63397 0.13396 0.47733 0.0
O148 O 0.47731 0.80235 0.3772 0.0
O149 O 0.47731 0.80226 0.57735 0.0
O150 O 0.65235 0.37725 -0.02262 0.0
O151 O 0.53986 0.41475 0.03988 0.0
O152 O 0.53987 0.53988 0.91482 0.0
O153 O 0.53989 0.41478 0.91478 0.0
O154 O 0.53985 0.53984 0.03991 0.0
Zr155 Zr 0.60154 0.47732 -0.02264 0.0
Zr156 Zr 0.47729 0.47727 0.10156 0.0
Zr157 Zr 0.47733 0.35309 -0.0227 0.0
O158 O 0.41475 0.53982 0.03989 0.0
O159 O 0.41479 0.41477 0.91476 0.0
O160 O 0.41477 0.41473 0.03985 0.0
Zr161 Zr 0.4773 0.60152 -0.02263 0.0
Zr162 Zr 0.47734 0.47734 0.85311 0.0
Zr163 Zr 0.3531 0.47729 -0.02269 0.0
O164 O 0.41477 0.53986 0.91479 0.0
O165 O 0.30228 0.57734 -0.02268 0.0
O166 O 0.30231 0.37722 -0.02269 0.0
O167 O 0.65231 0.5774 -0.02262 0.0
O168 O 0.47727 0.65235 0.87731 0.0
O169 O 0.47732 0.30226 0.07736 0.0
O170 O 0.47732 0.30233 0.87721 0.0
O171 O 0.47727 0.65226 0.07747 0.0
O172 O 0.37721 0.47724 0.15231 0.0
O173 O 0.57743 0.47733 0.80234 0.0
O174 O 0.37729 0.47733 0.80229 0.0
O175 O 0.57736 0.47724 0.15237 0.0
O176 O 0.37721 0.65228 -0.0226 0.0
O177 O 0.57742 0.30232 -0.02269 0.0
O178 O 0.37726 0.30229 -0.0227 0.0
O179 O 0.57737 0.65233 -0.0226 0.0
O180 O 0.6523 0.47731 0.07745 0.0
O181 O 0.30234 0.47727 0.87722 0.0
O182 O 0.30228 0.47726 0.07736 0.0
O183 O 0.65235 0.47732 0.87729 0.0
C184 C 0.63399 0.32068 -0.02265 0.0
O185 O 0.47727 0.57732 0.15239 0.0
O186 O 0.47727 0.37718 0.15231 0.0
C187 C 0.32064 0.63391 -0.02263 0.0
C188 C 0.32069 0.32065 -0.02269 0.0
C189 C 0.63394 0.63397 -0.0226 0.0
C190 C 0.4773 0.63399 0.82073 0.0
C191 C 0.47729 0.32062 0.13393 0.0
C192 C 0.47732 0.3207 0.82065 0.0
C193 C 0.47726 0.63389 0.13404 0.0
C194 C 0.32064 0.47724 0.13394 0.0
C195 C 0.63399 0.47732 0.82072 0.0
C196 C 0.32072 0.47729 0.82065 0.0
C197 C 0.63393 0.47727 0.13402 0.0
O198 O 0.47733 0.37728 0.80229 0.0
O199 O 0.47733 0.57743 0.80236 0.0
C200 C 0.92143 0.20454 0.20454 0.0
C201 C -0.02264 0.18164 0.18163 0.0
H202 H 0.87794 0.26746 0.26747 0.0
C203 C 0.0333 0.20454 0.20453 0.0
H204 H 0.87793 0.18718 0.18718 0.0
C205 C 0.0333 0.25009 0.25009 0.0
C206 C -0.02262 0.27299 0.273 0.0
H207 H 0.0768 0.18717 0.18716 0.0
H208 H 0.07681 0.26745 0.26745 0.0
C209 C 0.92144 0.2501 0.2501 0.0
C210 C 0.75012 0.92141 0.20456 0.0
C211 C 0.77302 -0.02266 0.18165 0.0
H212 H 0.6872 0.87793 0.26749 0.0
C213 C 0.75013 0.03327 0.20454 0.0
H214 H 0.76747 0.87791 0.1872 0.0
C215 C 0.70457 0.03328 0.25011 0.0
C216 C 0.68167 -0.02264 0.27301 0.0
H217 H 0.7675 0.07677 0.18717 0.0
H218 H 0.68722 0.07679 0.26747 0.0
C219 C 0.70456 0.92143 0.25012 0.0
C220 C 0.03331 0.75011 0.20456 0.0
C221 C -0.02262 0.77301 0.18167 0.0
H222 H 0.07682 0.68718 0.26749 0.0
C223 C 0.92145 0.75012 0.20457 0.0
H224 H 0.07682 0.76746 0.1872 0.0
C225 C 0.92145 0.70456 0.25014 0.0
C226 C -0.02262 0.68165 0.27303 0.0
H227 H 0.87795 0.76748 0.18722 0.0
H228 H 0.87795 0.6872 0.2675 0.0
C229 C 0.03331 0.70454 0.25013 0.0
C230 C 0.25011 0.03329 0.2501 0.0
C231 C 0.27301 -0.02263 0.27301 0.0
H232 H 0.1872 0.07679 0.18716 0.0
C233 C 0.25011 0.92143 0.25012 0.0
H234 H 0.26748 0.0768 0.26746 0.0
C235 C 0.20456 0.92143 0.20455 0.0
C236 C 0.18166 -0.02264 0.18164 0.0
H237 H 0.26747 0.87793 0.26749 0.0
H238 H 0.18719 0.87793 0.18719 0.0
C239 C 0.20456 0.03329 0.20453 0.0
C240 C 0.03331 0.75008 0.75011 0.0
C241 C -0.02262 0.77299 0.773 0.0
H242 H 0.0768 0.68713 0.6872 0.0
C243 C 0.92144 0.75009 0.75011 0.0
H244 H 0.07681 0.76744 0.76747 0.0
C245 C 0.92144 0.70451 0.70457 0.0
C246 C -0.02263 0.68161 0.68167 0.0
H247 H 0.87794 0.76746 0.76747 0.0
H248 H 0.87793 0.68715 0.68721 0.0
C249 C 0.0333 0.7045 0.70456 0.0
C250 C 0.20456 0.03327 0.75011 0.0
C251 C 0.18166 -0.02266 0.77301 0.0
H252 H 0.2675 0.07676 0.68718 0.0
C253 C 0.20456 0.92141 0.75012 0.0
H254 H 0.1872 0.07677 0.76746 0.0
C255 C 0.25013 0.9214 0.70456 0.0
C256 C 0.27302 -0.02268 0.68166 0.0
H257 H 0.1872 0.87791 0.76749 0.0
H258 H 0.26749 0.87789 0.68721 0.0
C259 C 0.25013 0.03326 0.70455 0.0
C260 C 0.92143 0.25008 0.70453 0.0
C261 C -0.02264 0.27297 0.68164 0.0
H262 H 0.87792 0.18715 0.76745 0.0
C263 C 0.03329 0.25007 0.70453 0.0
H264 H 0.87792 0.26744 0.68718 0.0
C265 C 0.03329 0.2045 0.75009 0.0
C266 C -0.02264 0.18161 0.77298 0.0
H267 H 0.0768 0.26743 0.68717 0.0
H268 H 0.07679 0.18714 0.76745 0.0
C269 C 0.92143 0.20451 0.75009 0.0
C270 C 0.70454 0.92139 0.70456 0.0
C271 C 0.68165 -0.02268 0.68166 0.0
H272 H 0.76747 0.87789 0.76748 0.0
C273 C 0.70456 0.03325 0.70454 0.0
H274 H 0.68717 0.87789 0.6872 0.0
C275 C 0.75013 0.03325 0.7501 0.0
C276 C 0.77302 -0.02268 0.773 0.0
H277 H 0.6872 0.07675 0.68718 0.0
H278 H 0.76749 0.07675 0.76745 0.0
C279 C 0.75011 0.92139 0.75011 0.0
C280 C 0.25011 0.25008 0.92139 0.0
C281 C 0.27301 0.27297 -0.02268 0.0
H282 H 0.18717 0.18716 0.8779 0.0
C283 C 0.25011 0.25009 0.03326 0.0
H284 H 0.26747 0.26743 0.87789 0.0
C285 C 0.20454 0.20453 0.03326 0.0
C286 C 0.18164 0.18164 -0.02266 0.0
H287 H 0.26748 0.26745 0.07676 0.0
H288 H 0.18718 0.18718 0.07677 0.0
C289 C 0.20454 0.20452 0.9214 0.0
C290 C 0.25009 0.70451 0.03329 0.0
C291 C 0.27296 0.68159 -0.02264 0.0
H292 H 0.18721 0.76748 0.07679 0.0
C293 C 0.25008 0.70449 0.92143 0.0
H294 H 0.26744 0.68715 0.0768 0.0
C295 C 0.20455 0.75008 0.92142 0.0
C296 C 0.18168 0.77301 -0.02265 0.0
H297 H 0.26742 0.68711 0.87793 0.0
H298 H 0.18719 0.76745 0.87792 0.0
C299 C 0.20456 0.7501 0.03329 0.0
C300 C 0.70456 0.2501 0.03328 0.0
C301 C 0.68167 0.273 -0.02265 0.0
H302 H 0.76745 0.18714 0.07678 0.0
C303 C 0.70454 0.25009 0.92142 0.0
H304 H 0.68721 0.26747 0.07678 0.0
C305 C 0.75008 0.2045 0.92141 0.0
C306 C 0.77297 0.18159 -0.02266 0.0
H307 H 0.68718 0.26745 0.87791 0.0
H308 H 0.76743 0.18713 0.87791 0.0
C309 C 0.75009 0.20451 0.03327 0.0
C310 C 0.75013 0.75008 0.0333 0.0
C311 C 0.77303 0.77296 -0.02264 0.0
H312 H 0.68718 0.6872 0.07682 0.0
C313 C 0.75011 0.75006 0.92144 0.0
H314 H 0.7675 0.76745 0.0768 0.0
C315 C 0.70453 0.70452 0.92145 0.0
C316 C 0.68162 0.68165 -0.02261 0.0
H317 H 0.76748 0.76741 0.87793 0.0
H318 H 0.68715 0.68716 0.87795 0.0
C319 C 0.70454 0.70455 0.03331 0.0
C320 C 0.70457 0.53323 0.75012 0.0
C321 C 0.68168 0.47731 0.77304 0.0
H322 H 0.76748 0.57671 0.68717 0.0
C323 C 0.70456 0.42137 0.75014 0.0
H324 H 0.68722 0.57674 0.76748 0.0
C325 C 0.75011 0.42136 0.70457 0.0
C326 C 0.773 0.47728 0.68165 0.0
H327 H 0.6872 0.37787 0.76752 0.0
H328 H 0.76746 0.37785 0.68721 0.0
C329 C 0.75012 0.53321 0.70455 0.0
C330 C 0.20456 0.42135 0.70455 0.0
C331 C 0.18165 0.47728 0.68165 0.0
H332 H 0.26751 0.37785 0.76745 0.0
C333 C 0.20457 0.53321 0.70453 0.0
H334 H 0.18719 0.37784 0.6872 0.0
C335 C 0.25015 0.53321 0.75007 0.0
C336 C 0.27305 0.47729 0.77297 0.0
H337 H 0.1872 0.57671 0.68717 0.0
H338 H 0.26752 0.57672 0.76742 0.0
C339 C 0.25014 0.42135 0.75009 0.0
C340 C 0.20455 0.42133 0.25013 0.0
C341 C 0.18167 0.47727 0.27303 0.0
H342 H 0.26743 0.37782 0.18717 0.0
C343 C 0.20456 0.53319 0.25011 0.0
H344 H 0.18719 0.37784 0.26751 0.0
C345 C 0.25008 0.53318 0.20451 0.0
C346 C 0.27296 0.47725 0.18161 0.0
H347 H 0.18721 0.5767 0.26747 0.0
H348 H 0.26744 0.57668 0.18714 0.0
C349 C 0.25008 0.42132 0.20454 0.0
C350 C 0.70451 0.42134 0.20459 0.0
C351 C 0.68161 0.47727 0.1817 0.0
H352 H 0.76747 0.37784 0.26749 0.0
C353 C 0.70452 0.5332 0.20457 0.0
H354 H 0.68714 0.37784 0.18724 0.0
C355 C 0.75011 0.5332 0.2501 0.0
C356 C 0.77302 0.47728 0.273 0.0
H357 H 0.68716 0.5767 0.18721 0.0
H358 H 0.76749 0.57671 0.26745 0.0
C359 C 0.7501 0.42134 0.25013 0.0
C360 C 0.2501 0.75009 0.42136 0.0
C361 C 0.27299 0.77301 0.47728 0.0
H362 H 0.18719 0.68715 0.37787 0.0
C363 C 0.2501 0.75012 0.53322 0.0
H364 H 0.26745 0.76745 0.37785 0.0
C365 C 0.20455 0.70455 0.53323 0.0
C366 C 0.18166 0.68163 0.47731 0.0
H367 H 0.26746 0.7675 0.57672 0.0
H368 H 0.18719 0.68719 0.57674 0.0
C369 C 0.20455 0.70452 0.42137 0.0
C370 C 0.20456 0.2501 0.53325 0.0
C371 C 0.18166 0.27299 0.47732 0.0
H372 H 0.26747 0.18717 0.57676 0.0
C373 C 0.20455 0.25009 0.42139 0.0
H374 H 0.1872 0.26747 0.57675 0.0
C375 C 0.25011 0.20452 0.42139 0.0
C376 C 0.273 0.18163 0.47732 0.0
H377 H 0.18719 0.26745 0.37788 0.0
H378 H 0.26747 0.18715 0.37789 0.0
C379 C 0.25011 0.20453 0.53325 0.0
C380 C 0.75011 0.70454 0.53322 0.0
C381 C 0.773 0.68162 0.4773 0.0
H382 H 0.6872 0.76748 0.57672 0.0
C383 C 0.75011 0.70451 0.42136 0.0
H384 H 0.76748 0.68719 0.57673 0.0
C385 C 0.70455 0.75008 0.42135 0.0
C386 C 0.68166 0.773 0.47728 0.0
H387 H 0.76746 0.68714 0.37786 0.0
H388 H 0.68719 0.76743 0.37785 0.0
C389 C 0.70456 0.75011 0.53321 0.0
C390 C 0.70454 0.20453 0.42138 0.0
C391 C 0.68165 0.18164 0.47732 0.0
H392 H 0.76745 0.26746 0.37787 0.0
C393 C 0.70455 0.20455 0.53325 0.0
H394 H 0.68717 0.18717 0.37788 0.0
C395 C 0.75011 0.25011 0.53324 0.0
C396 C 0.773 0.273 0.4773 0.0
H397 H 0.68719 0.18719 0.57675 0.0
H398 H 0.76747 0.26748 0.57674 0.0
C399 C 0.7501 0.2501 0.42137 0.0
C400 C 0.53324 0.2501 0.75009 0.0
C401 C 0.47731 0.27303 0.77297 0.0
H402 H 0.57674 0.18712 0.68723 0.0
C403 C 0.42138 0.25011 0.7501 0.0
H404 H 0.57675 0.26747 0.76744 0.0
C405 C 0.42137 0.2045 0.70458 0.0
C406 C 0.4773 0.18158 0.6817 0.0
H407 H 0.37788 0.26748 0.76745 0.0
H408 H 0.37787 0.18713 0.68724 0.0
C409 C 0.53324 0.2045 0.70458 0.0
C410 C 0.53323 0.75006 0.70452 0.0
C411 C 0.4773 0.77294 0.68161 0.0
H412 H 0.57673 0.68719 0.7675 0.0
C413 C 0.42137 0.75007 0.70453 0.0
H414 H 0.57673 0.7674 0.68715 0.0
C415 C 0.42136 0.70455 0.75014 0.0
C416 C 0.47729 0.68167 0.77305 0.0
H417 H 0.37786 0.76742 0.68716 0.0
H418 H 0.37786 0.68721 0.76751 0.0
C419 C 0.53322 0.70454 0.75013 0.0
C420 C 0.5332 0.70449 0.20458 0.0
C421 C 0.47727 0.68157 0.18172 0.0
H422 H 0.57673 0.76747 0.26742 0.0
C423 C 0.42134 0.7045 0.20459 0.0
H424 H 0.5767 0.6871 0.18723 0.0
C425 C 0.42135 0.75012 0.2501 0.0
C426 C 0.47729 0.77304 0.27296 0.0
H427 H 0.37783 0.68713 0.18725 0.0
H428 H 0.37785 0.7675 0.26745 0.0
C429 C 0.53322 0.7501 0.25008 0.0
C430 C 0.53323 0.20454 0.25012 0.0
C431 C 0.4773 0.18167 0.27305 0.0
H432 H 0.57672 0.26741 0.18714 0.0
C433 C 0.42136 0.20455 0.25014 0.0
H434 H 0.57673 0.18719 0.26749 0.0
C435 C 0.42136 0.25007 0.20453 0.0
C436 C 0.47729 0.27294 0.18161 0.0
H437 H 0.37786 0.1872 0.26752 0.0
H438 H 0.37785 0.26742 0.18717 0.0
C439 C 0.53322 0.25006 0.20452 0.0
loop_
_geom_bond_atom_site_label_1
_geom_bond_atom_site_label_2
_geom_bond_distance
_geom_bond_site_symmetry_2
_ccdc_geom_bond_type
O0 Zr5 2.207 1_565 S
O0 C34 1.295 . S
O1 Zr5 2.133 1_565 S
O1 Zr6 2.133 1_565 S
O1 Zr7 2.133 . S
O2 Zr5 2.133 1_556 S
O2 Zr11 2.133 1_556 S
O2 Zr12 2.133 . S
O3 Zr5 2.133 1_566 S
O3 Zr7 2.133 1_556 S
O3 Zr12 2.133 1_565 S
O4 Zr5 2.133 . S
O4 Zr6 2.133 . S
O4 Zr11 2.133 . S
Zr5 O0 2.207 1_545 S
Zr5 O1 2.133 1_545 S
Zr5 O2 2.133 1_554 S
Zr5 O3 2.133 1_544 S
Zr5 O4 2.133 . S
Zr5 O17 2.207 . S
Zr5 O30 2.207 . S
Zr5 O33 2.207 1_554 S
Zr6 O1 2.133 1_545 S
Zr6 O4 2.133 . S
Zr6 O8 2.133 1_455 S
Zr6 O10 2.133 1_445 S
Zr6 O22 2.207 1_455 S
Zr6 O25 2.207 . S
Zr6 O35 2.207 . S
Zr6 O36 2.207 1_545 S
Zr7 O1 2.133 . S
Zr7 O3 2.133 1_554 S
Zr7 O9 2.133 1_454 S
Zr7 O10 2.133 1_455 S
Zr7 O19 2.207 . S
Zr7 O20 2.207 1_554 S
Zr7 O27 2.207 . S
Zr7 O28 2.207 1_455 S
O8 Zr6 2.133 1_655 S
O8 Zr11 2.133 1_655 S
O8 Zr13 2.133 . S
O9 Zr7 2.133 1_656 S
O9 Zr12 2.133 1_665 S
O9 Zr13 2.133 1_566 S
O10 Zr6 2.133 1_665 S
O10 Zr7 2.133 1_655 S
O10 Zr13 2.133 1_565 S
Zr11 O2 2.133 1_554 S
Zr11 O4 2.133 . S
Zr11 O8 2.133 1_455 S
Zr11 O14 2.133 1_454 S
Zr11 O18 2.207 1_554 S
Zr11 O21 2.207 . S
Zr11 O26 2.207 1_455 S
Zr11 O29 2.207 . S
Zr12 O2 2.133 . S
Zr12 O3 2.133 1_545 S
Zr12 O9 2.133 1_445 S
Zr12 O14 2.133 1_455 S
Zr12 O23 2.207 . S
Zr12 O24 2.207 1_455 S
Zr12 O48 2.207 1_545 S
Zr12 O49 2.207 . S
Zr13 O8 2.133 . S
Zr13 O9 2.133 1_544 S
Zr13 O10 2.133 1_545 S
Zr13 O14 2.133 1_554 S
Zr13 O15 2.207 . S
Zr13 O16 2.207 1_545 S
Zr13 O31 2.207 1_554 S
Zr13 O32 2.207 . S
O14 Zr11 2.133 1_656 S
O14 Zr12 2.133 1_655 S
O14 Zr13 2.133 1_556 S
O15 Zr13 2.207 . S
O15 C37 1.295 . S
O16 Zr13 2.207 1_565 S
O16 C38 1.295 . S
O17 Zr5 2.207 . S
O17 C39 1.295 . S
O18 Zr11 2.207 1_556 S
O18 C40 1.295 . S
O19 Zr7 2.207 . S
O19 C41 1.295 . S
O20 Zr7 2.207 1_556 S
O20 C42 1.295 . S
O21 Zr11 2.207 . S
O21 C43 1.295 . S
O22 Zr6 2.207 1_655 S
O22 C44 1.295 . S
O23 Zr12 2.207 . S
O23 C45 1.295 . S
O24 Zr12 2.207 1_655 S
O24 C46 1.295 . S
O25 Zr6 2.207 . S
O25 C47 1.295 . S
O26 Zr11 2.207 1_655 S
O26 C37 1.295 . S
O27 Zr7 2.207 . S
O27 C34 1.295 . S
O28 Zr7 2.207 1_655 S
O28 C38 1.295 . S
O29 Zr11 2.207 . S
O29 C39 1.295 . S
O30 Zr5 2.207 . S
O30 C47 1.295 . S
O31 Zr13 2.207 1_556 S
O31 C46 1.295 . S
O32 Zr13 2.207 . S
O32 C44 1.295 . S
O33 Zr5 2.207 1_556 S
O33 C45 1.295 . S
C34 O0 1.295 . S
C34 O27 1.295 . S
O35 Zr6 2.207 . S
O35 C43 1.295 . S
O36 Zr6 2.207 1_565 S
O36 C41 1.295 . S
C37 O15 1.295 . S
C37 O26 1.295 . S
C38 O16 1.295 . S
C38 O28 1.295 . S
C39 O17 1.295 . S
C39 O29 1.295 . S
C40 O18 1.295 . S
C40 O49 1.295 . S
C41 O19 1.295 . S
C41 O36 1.295 . S
C42 O20 1.295 . S
C42 O48 1.295 . S
C43 O21 1.295 . S
C43 O35 1.295 . S
C44 O22 1.295 . S
C44 O32 1.295 . S
C45 O23 1.295 . S
C45 O33 1.295 . S
C46 O24 1.295 . S
C46 O31 1.295 . S
C47 O25 1.295 . S
C47 O30 1.295 . S
O48 Zr12 2.207 1_565 S
O48 C42 1.295 . S
O49 Zr12 2.207 . S
O49 C40 1.295 . S
O50 Zr55 2.207 . S
O50 C84 1.295 . S
O51 Zr55 2.133 . S
O51 Zr56 2.133 . S
O51 Zr57 2.133 . S
O52 Zr55 2.133 . S
O52 Zr61 2.133 . S
O52 Zr62 2.133 . S
O53 Zr55 2.133 . S
O53 Zr57 2.133 . S
O53 Zr62 2.133 . S
O54 Zr55 2.133 . S
O54 Zr56 2.133 . S
O54 Zr61 2.133 . S
Zr55 O50 2.207 . S
Zr55 O51 2.133 . S
Zr55 O52 2.133 . S
Zr55 O53 2.133 . S
Zr55 O54 2.133 . S
Zr55 O67 2.207 . S
Zr55 O80 2.207 . S
Zr55 O83 2.207 . S
Zr56 O51 2.133 . S
Zr56 O54 2.133 . S
Zr56 O58 2.133 1_455 S
Zr56 O60 2.133 1_455 S
Zr56 O72 2.207 1_455 S
Zr56 O75 2.207 . S
Zr56 O85 2.207 . S
Zr56 O86 2.207 . S
Zr57 O51 2.133 . S
Zr57 O53 2.133 . S
Zr57 O59 2.133 1_455 S
Zr57 O60 2.133 1_455 S
Zr57 O69 2.207 . S
Zr57 O70 2.207 . S
Zr57 O77 2.207 . S
Zr57 O78 2.207 1_455 S
O58 Zr56 2.133 1_655 S
O58 Zr61 2.133 1_655 S
O58 Zr63 2.133 . S
O59 Zr57 2.133 1_655 S
O59 Zr62 2.133 1_655 S
O59 Zr63 2.133 . S
O60 Zr56 2.133 1_655 S
O60 Zr57 2.133 1_655 S
O60 Zr63 2.133 . S
Zr61 O52 2.133 . S
Zr61 O54 2.133 . S
Zr61 O58 2.133 1_455 S
Zr61 O64 2.133 1_455 S
Zr61 O68 2.207 . S
Zr61 O71 2.207 . S
Zr61 O76 2.207 1_455 S
Zr61 O79 2.207 . S
Zr62 O52 2.133 . S
Zr62 O53 2.133 . S
Zr62 O59 2.133 1_455 S
Zr62 O64 2.133 1_455 S
Zr62 O73 2.207 . S
Zr62 O74 2.207 1_455 S
Zr62 O98 2.207 . S
Zr62 O99 2.207 . S
Zr63 O58 2.133 . S
Zr63 O59 2.133 . S
Zr63 O60 2.133 . S
Zr63 O64 2.133 . S
Zr63 O65 2.207 . S
Zr63 O66 2.207 . S
Zr63 O81 2.207 . S
Zr63 O82 2.207 . S
O64 Zr61 2.133 1_655 S
O64 Zr62 2.133 1_655 S
O64 Zr63 2.133 . S
O65 Zr63 2.207 . S
O65 C87 1.295 . S
O66 Zr63 2.207 . S
O66 C88 1.295 . S
O67 Zr55 2.207 . S
O67 C89 1.295 . S
O68 Zr61 2.207 . S
O68 C90 1.295 . S
O69 Zr57 2.207 . S
O69 C91 1.295 . S
O70 Zr57 2.207 . S
O70 C92 1.295 . S
O71 Zr61 2.207 . S
O71 C93 1.295 . S
O72 Zr56 2.207 1_655 S
O72 C94 1.295 . S
O73 Zr62 2.207 . S
O73 C95 1.295 . S
O74 Zr62 2.207 1_655 S
O74 C96 1.295 . S
O75 Zr56 2.207 . S
O75 C97 1.295 . S
O76 Zr61 2.207 1_655 S
O76 C87 1.295 . S
O77 Zr57 2.207 . S
O77 C84 1.295 . S
O78 Zr57 2.207 1_655 S
O78 C88 1.295 . S
O79 Zr61 2.207 . S
O79 C89 1.295 . S
O80 Zr55 2.207 . S
O80 C97 1.295 . S
O81 Zr63 2.207 . S
O81 C96 1.295 . S
O82 Zr63 2.207 . S
O82 C94 1.295 . S
O83 Zr55 2.207 . S
O83 C95 1.295 . S
C84 O50 1.295 . S
C84 O77 1.295 . S
O85 Zr56 2.207 . S
O85 C93 1.295 . S
O86 Zr56 2.207 . S
O86 C91 1.295 . S
C87 O65 1.295 . S
C87 O76 1.295 . S
C88 O66 1.295 . S
C88 O78 1.295 . S
C89 O67 1.295 . S
C89 O79 1.295 . S
C90 O68 1.295 . S
C90 O99 1.295 . S
C91 O69 1.295 . S
C91 O86 1.295 . S
C92 O70 1.295 . S
C92 O98 1.295 . S
C93 O71 1.295 . S
C93 O85 1.295 . S
C94 O72 1.295 . S
C94 O82 1.295 . S
C95 O73 1.295 . S
C95 O83 1.295 . S
C96 O74 1.295 . S
C96 O81 1.295 . S
C97 O75 1.295 . S
C97 O80 1.295 . S
O98 Zr62 2.207 . S
O98 C92 1.295 . S
O99 Zr62 2.207 . S
O99 C90 1.295 . S
O100 Zr105 2.207 . S
O100 C134 1.295 . S
O101 Zr105 2.133 . S
O101 Zr106 2.133 . S
O101 Zr107 2.133 . S
O102 Zr105 2.133 1_565 S
O102 Zr111 2.133 1_565 S
O102 Zr112 2.133 . S
O103 Zr105 2.133 1_565 S
O103 Zr107 2.133 1_565 S
O103 Zr112 2.133 . S
O104 Zr105 2.133 . S
O104 Zr106 2.133 . S
O104 Zr111 2.133 . S
Zr105 O100 2.207 . S
Zr105 O101 2.133 . S
Zr105 O102 2.133 1_545 S
Zr105 O103 2.133 1_545 S
Zr105 O104 2.133 . S
Zr105 O117 2.207 . S
Zr105 O130 2.207 . S
Zr105 O133 2.207 1_545 S
Zr106 O101 2.133 . S
Zr106 O104 2.133 . S
Zr106 O108 2.133 . S
Zr106 O110 2.133 . S
Zr106 O122 2.207 . S
Zr106 O125 2.207 . S
Zr106 O135 2.207 . S
Zr106 O136 2.207 . S
Zr107 O101 2.133 . S
Zr107 O103 2.133 1_545 S
Zr107 O109 2.133 1_545 S
Zr107 O110 2.133 . S
Zr107 O119 2.207 . S
Zr107 O120 2.207 1_545 S
Zr107 O127 2.207 . S
Zr107 O128 2.207 . S
O108 Zr106 2.133 . S
O108 Zr111 2.133 . S
O108 Zr113 2.133 . S
O109 Zr107 2.133 1_565 S
O109 Zr112 2.133 . S
O109 Zr113 2.133 1_565 S
O110 Zr106 2.133 . S
O110 Zr107 2.133 . S
O110 Zr113 2.133 . S
Zr111 O102 2.133 1_545 S
Zr111 O104 2.133 . S
Zr111 O108 2.133 . S
Zr111 O114 2.133 1_545 S
Zr111 O118 2.207 1_545 S
Zr111 O121 2.207 . S
Zr111 O126 2.207 . S
Zr111 O129 2.207 . S
Zr112 O102 2.133 . S
Zr112 O103 2.133 . S
Zr112 O109 2.133 . S
Zr112 O114 2.133 . S
Zr112 O123 2.207 . S
Zr112 O124 2.207 . S
Zr112 O148 2.207 . S
Zr112 O149 2.207 . S
Zr113 O108 2.133 . S
Zr113 O109 2.133 1_545 S
Zr113 O110 2.133 . S
Zr113 O114 2.133 1_545 S
Zr113 O115 2.207 . S
Zr113 O116 2.207 . S
Zr113 O131 2.207 1_545 S
Zr113 O132 2.207 . S
O114 Zr111 2.133 1_565 S
O114 Zr112 2.133 . S
O114 Zr113 2.133 1_565 S
O115 Zr113 2.207 . S
O115 C137 1.295 . S
O116 Zr113 2.207 . S
O116 C138 1.295 . S
O117 Zr105 2.207 . S
O117 C139 1.295 . S
O118 Zr111 2.207 1_565 S
O118 C140 1.295 . S
O119 Zr107 2.207 . S
O119 C141 1.295 . S
O120 Zr107 2.207 1_565 S
O120 C142 1.295 . S
O121 Zr111 2.207 . S
O121 C143 1.295 . S
O122 Zr106 2.207 . S
O122 C144 1.295 . S
O123 Zr112 2.207 . S
O123 C145 1.295 . S
O124 Zr112 2.207 . S
O124 C146 1.295 . S
O125 Zr106 2.207 . S
O125 C147 1.295 . S
O126 Zr111 2.207 . S
O126 C137 1.295 . S
O127 Zr107 2.207 . S
O127 C134 1.295 . S
O128 Zr107 2.207 . S
O128 C138 1.295 . S
O129 Zr111 2.207 . S
O129 C139 1.295 . S
O130 Zr105 2.207 . S
O130 C147 1.295 . S
O131 Zr113 2.207 1_565 S
O131 C146 1.295 . S
O132 Zr113 2.207 . S
O132 C144 1.295 . S
O133 Zr105 2.207 1_565 S
O133 C145 1.295 . S
C134 O100 1.295 . S
C134 O127 1.295 . S
O135 Zr106 2.207 . S
O135 C143 1.295 . S
O136 Zr106 2.207 . S
O136 C141 1.295 . S
C137 O115 1.295 . S
C137 O126 1.295 . S
C138 O116 1.295 . S
C138 O128 1.295 . S
C139 O117 1.295 . S
C139 O129 1.295 . S
C140 O118 1.295 . S
C140 O149 1.295 . S
C141 O119 1.295 . S
C141 O136 1.295 . S
C142 O120 1.295 . S
C142 O148 1.295 . S
C143 O121 1.295 . S
C143 O135 1.295 . S
C144 O122 1.295 . S
C144 O132 1.295 . S
C145 O123 1.295 . S
C145 O133 1.295 . S
C146 O124 1.295 . S
C146 O131 1.295 . S
C147 O125 1.295 . S
C147 O130 1.295 . S
O148 Zr112 2.207 . S
O148 C142 1.295 . S
O149 Zr112 2.207 . S
O149 C140 1.295 . S
O150 Zr155 2.207 . S
O150 C184 1.295 . S
O151 Zr155 2.133 . S
O151 Zr156 2.133 . S
O151 Zr157 2.133 . S
O152 Zr155 2.133 1_556 S
O152 Zr161 2.133 1_556 S
O152 Zr162 2.133 . S
O153 Zr155 2.133 1_556 S
O153 Zr157 2.133 1_556 S
O153 Zr162 2.133 . S
O154 Zr155 2.133 . S
O154 Zr156 2.133 . S
O154 Zr161 2.133 . S
Zr155 O150 2.207 . S
Zr155 O151 2.133 . S
Zr155 O152 2.133 1_554 S
Zr155 O153 2.133 1_554 S
Zr155 O154 2.133 . S
Zr155 O167 2.207 . S
Zr155 O180 2.207 . S
Zr155 O183 2.207 1_554 S
Zr156 O151 2.133 . S
Zr156 O154 2.133 . S
Zr156 O158 2.133 . S
Zr156 O160 2.133 . S
Zr156 O172 2.207 . S
Zr156 O175 2.207 . S
Zr156 O185 2.207 . S
Zr156 O186 2.207 . S
Zr157 O151 2.133 . S
Zr157 O153 2.133 1_554 S
Zr157 O159 2.133 1_554 S
Zr157 O160 2.133 . S
Zr157 O169 2.207 . S
Zr157 O170 2.207 1_554 S
Zr157 O177 2.207 . S
Zr157 O178 2.207 . S
O158 Zr156 2.133 . S
O158 Zr161 2.133 . S
O158 Zr163 2.133 . S
O159 Zr157 2.133 1_556 S
O159 Zr162 2.133 . S
O159 Zr163 2.133 1_556 S
O160 Zr156 2.133 . S
O160 Zr157 2.133 . S
O160 Zr163 2.133 . S
Zr161 O152 2.133 1_554 S
Zr161 O154 2.133 . S
Zr161 O158 2.133 . S
Zr161 O164 2.133 1_554 S
Zr161 O168 2.207 1_554 S
Zr161 O171 2.207 . S
Zr161 O176 2.207 . S
Zr161 O179 2.207 . S
Zr162 O152 2.133 . S
Zr162 O153 2.133 . S
Zr162 O159 2.133 . S
Zr162 O164 2.133 . S
Zr162 O173 2.207 . S
Zr162 O174 2.207 . S
Zr162 O198 2.207 . S
Zr162 O199 2.207 . S
Zr163 O158 2.133 . S
Zr163 O159 2.133 1_554 S
Zr163 O160 2.133 . S
Zr163 O164 2.133 1_554 S
Zr163 O165 2.207 . S
Zr163 O166 2.207 . S
Zr163 O181 2.207 1_554 S
Zr163 O182 2.207 . S
O164 Zr161 2.133 1_556 S
O164 Zr162 2.133 . S
O164 Zr163 2.133 1_556 S
O165 Zr163 2.207 . S
O165 C187 1.295 . S
O166 Zr163 2.207 . S
O166 C188 1.295 . S
O167 Zr155 2.207 . S
O167 C189 1.295 . S
O168 Zr161 2.207 1_556 S
O168 C190 1.295 . S
O169 Zr157 2.207 . S
O169 C191 1.295 . S
O170 Zr157 2.207 1_556 S
O170 C192 1.295 . S
O171 Zr161 2.207 . S
O171 C193 1.295 . S
O172 Zr156 2.207 . S
O172 C194 1.295 . S
O173 Zr162 2.207 . S
O173 C195 1.295 . S
O174 Zr162 2.207 . S
O174 C196 1.295 . S
O175 Zr156 2.207 . S
O175 C197 1.295 . S
O176 Zr161 2.207 . S
O176 C187 1.295 . S
O177 Zr157 2.207 . S
O177 C184 1.295 . S
O178 Zr157 2.207 . S
O178 C188 1.295 . S
O179 Zr161 2.207 . S
O179 C189 1.295 . S
O180 Zr155 2.207 . S
O180 C197 1.295 . S
O181 Zr163 2.207 1_556 S
O181 C196 1.295 . S
O182 Zr163 2.207 . S
O182 C194 1.295 . S
O183 Zr155 2.207 1_556 S
O183 C195 1.295 . S
C184 O150 1.295 . S
C184 O177 1.295 . S
O185 Zr156 2.207 . S
O185 C193 1.295 . S
O186 Zr156 2.207 . S
O186 C191 1.295 . S
C187 O165 1.295 . S
C187 O176 1.295 . S
C188 O166 1.295 . S
C188 O178 1.295 . S
C189 O167 1.295 . S
C189 O179 1.295 . S
C190 O168 1.295 . S
C190 O199 1.295 . S
C191 O169 1.295 . S
C191 O186 1.295 . S
C192 O170 1.295 . S
C192 O198 1.295 . S
C193 O171 1.295 . S
C193 O185 1.295 . S
C194 O172 1.295 . S
C194 O182 1.295 . S
C195 O173 1.295 . S
C195 O183 1.295 . S
C196 O174 1.295 . S
C196 O181 1.295 . S
C197 O175 1.295 . S
C197 O180 1.295 . S
O198 Zr162 2.207 . S
O198 C192 1.295 . S
O199 Zr162 2.207 . S
O199 C190 1.295 . S
C200 C201 1.387 1_655 S
C200 H204 0.950 . S
C200 C209 1.390 . S
C201 C200 1.387 1_455 S
C201 C203 1.387 . S
H202 C209 0.950 . S
C203 C201 1.387 . S
C203 C205 1.390 . S
C203 H207 0.950 . S
H204 C200 0.950 . S
C205 C203 1.390 . S
C205 C206 1.387 . S
C205 H208 0.950 . S
C206 C205 1.387 . S
C206 C209 1.387 1_455 S
H207 C203 0.950 . S
H208 C205 0.950 . S
C209 C200 1.390 . S
C209 H202 0.950 . S
C209 C206 1.387 1_655 S
C210 C211 1.387 1_565 S
C210 H214 0.950 . S
C210 C219 1.390 . S
C211 C210 1.387 1_545 S
C211 C213 1.387 . S
H212 C219 0.950 . S
C213 C211 1.387 . S
C213 C215 1.390 . S
C213 H217 0.950 . S
H214 C210 0.950 . S
C215 C213 1.390 . S
C215 C216 1.387 . S
C215 H218 0.950 . S
C216 C215 1.387 . S
C216 C219 1.387 1_545 S
H217 C213 0.950 . S
H218 C215 0.950 . S
C219 C210 1.390 . S
C219 H212 0.950 . S
C219 C216 1.387 1_565 S
C220 C221 1.387 . S
C220 H224 0.950 . S
C220 C229 1.390 . S
C221 C220 1.387 . S
C221 C223 1.387 1_455 S
H222 C229 0.950 . S
C223 C221 1.387 1_655 S
C223 C225 1.390 . S
C223 H227 0.950 . S
H224 C220 0.950 . S
C225 C223 1.390 . S
C225 C226 1.387 1_655 S
C225 H228 0.950 . S
C226 C225 1.387 1_455 S
C226 C229 1.387 . S
H227 C223 0.950 . S
H228 C225 0.950 . S
C229 C220 1.390 . S
C229 H222 0.950 . S
C229 C226 1.387 . S
C230 C231 1.387 . S
C230 H234 0.950 . S
C230 C239 1.390 . S
C231 C230 1.387 . S
C231 C233 1.387 1_545 S
H232 C239 0.950 . S
C233 C231 1.387 1_565 S
C233 C235 1.390 . S
C233 H237 0.950 . S
H234 C230 0.950 . S
C235 C233 1.390 . S
C235 C236 1.387 1_565 S
C235 H238 0.950 . S
C236 C235 1.387 1_545 S
C236 C239 1.387 . S
H237 C233 0.950 . S
H238 C235 0.950 . S
C239 C230 1.390 . S
C239 H232 0.950 . S
C239 C236 1.387 . S
C240 C241 1.387 . S
C240 H244 0.950 . S
C240 C249 1.390 . S
C241 C240 1.387 . S
C241 C243 1.387 1_455 S
H242 C249 0.950 . S
C243 C241 1.387 1_655 S
C243 C245 1.390 . S
C243 H247 0.950 . S
H244 C240 0.950 . S
C245 C243 1.390 . S
C245 C246 1.387 1_655 S
C245 H248 0.950 . S
C246 C245 1.387 1_455 S
C246 C249 1.387 . S
H247 C243 0.950 . S
H248 C245 0.950 . S
C249 C240 1.390 . S
C249 H242 0.950 . S
C249 C246 1.387 . S
C250 C251 1.387 . S
C250 H254 0.950 . S
C250 C259 1.390 . S
C251 C250 1.387 . S
C251 C253 1.387 1_545 S
H252 C259 0.950 . S
C253 C251 1.387 1_565 S
C253 C255 1.390 . S
C253 H257 0.950 . S
H254 C250 0.950 . S
C255 C253 1.390 . S
C255 C256 1.387 1_565 S
C255 H258 0.950 . S
C256 C255 1.387 1_545 S
C256 C259 1.387 . S
H257 C253 0.950 . S
H258 C255 0.950 . S
C259 C250 1.390 . S
C259 H252 0.950 . S
C259 C256 1.387 . S
C260 C261 1.387 1_655 S
C260 H264 0.950 . S
C260 C269 1.390 . S
C261 C260 1.387 1_455 S
C261 C263 1.387 . S
H262 C269 0.950 . S
C263 C261 1.387 . S
C263 C265 1.390 . S
C263 H267 0.950 . S
H264 C260 0.950 . S
C265 C263 1.390 . S
C265 C266 1.387 . S
C265 H268 0.950 . S
C266 C265 1.387 . S
C266 C269 1.387 1_455 S
H267 C263 0.950 . S
H268 C265 0.950 . S
C269 C260 1.390 . S
C269 H262 0.950 . S
C269 C266 1.387 1_655 S
C270 C271 1.387 1_565 S
C270 H274 0.950 . S
C270 C279 1.390 . S
C271 C270 1.387 1_545 S
C271 C273 1.387 . S
H272 C279 0.950 . S
C273 C271 1.387 . S
C273 C275 1.390 . S
C273 H277 0.950 . S
H274 C270 0.950 . S
C275 C273 1.390 . S
C275 C276 1.387 . S
C275 H278 0.950 . S
C276 C275 1.387 . S
C276 C279 1.387 1_545 S
H277 C273 0.950 . S
H278 C275 0.950 . S
C279 C270 1.390 . S
C279 H272 0.950 . S
C279 C276 1.387 1_565 S
C280 C281 1.387 1_556 S
C280 H284 0.950 . S
C280 C289 1.390 . S
C281 C280 1.387 1_554 S
C281 C283 1.387 . S
H282 C289 0.950 . S
C283 C281 1.387 . S
C283 C285 1.390 . S
C283 H287 0.950 . S
H284 C280 0.950 . S
C285 C283 1.390 . S
C285 C286 1.387 . S
C285 H288 0.950 . S
C286 C285 1.387 . S
C286 C289 1.387 1_554 S
H287 C283 0.950 . S
H288 C285 0.950 . S
C289 C280 1.390 . S
C289 H282 0.950 . S
C289 C286 1.387 1_556 S
C290 C291 1.387 . S
C290 H294 0.950 . S
C290 C299 1.390 . S
C291 C290 1.387 . S
C291 C293 1.387 1_554 S
H292 C299 0.950 . S
C293 C291 1.387 1_556 S
C293 C295 1.390 . S
C293 H297 0.950 . S
H294 C290 0.950 . S
C295 C293 1.390 . S
C295 C296 1.387 1_556 S
C295 H298 0.950 . S
C296 C295 1.387 1_554 S
C296 C299 1.387 . S
H297 C293 0.950 . S
H298 C295 0.950 . S
C299 C290 1.390 . S
C299 H292 0.950 . S
C299 C296 1.387 . S
C300 C301 1.387 . S
C300 H304 0.950 . S
C300 C309 1.390 . S
C301 C300 1.387 . S
C301 C303 1.387 1_554 S
H302 C309 0.950 . S
C303 C301 1.387 1_556 S
C303 C305 1.390 . S
C303 H307 0.950 . S
H304 C300 0.950 . S
C305 C303 1.390 . S
C305 C306 1.387 1_556 S
C305 H308 0.950 . S
C306 C305 1.387 1_554 S
C306 C309 1.387 . S
H307 C303 0.950 . S
H308 C305 0.950 . S
C309 C300 1.390 . S
C309 H302 0.950 . S
C309 C306 1.387 . S
C310 C311 1.387 . S
C310 H314 0.950 . S
C310 C319 1.390 . S
C311 C310 1.387 . S
C311 C313 1.387 1_554 S
H312 C319 0.950 . S
C313 C311 1.387 1_556 S
C313 C315 1.390 . S
C313 H317 0.950 . S
H314 C310 0.950 . S
C315 C313 1.390 . S
C315 C316 1.387 1_556 S
C315 H318 0.950 . S
C316 C315 1.387 1_554 S
C316 C319 1.387 . S
H317 C313 0.950 . S
H318 C315 0.950 . S
C319 C310 1.390 . S
C319 H312 0.950 . S
C319 C316 1.387 . S
C320 C321 1.387 . S
C320 H324 0.950 . S
C320 C329 1.390 . S
C321 C320 1.387 . S
C321 C323 1.387 . S
H322 C329 0.950 . S
C323 C321 1.387 . S
C323 C325 1.390 . S
C323 H327 0.950 . S
H324 C320 0.950 . S
C325 C323 1.390 . S
C325 C326 1.387 . S
C325 H328 0.950 . S
C326 C325 1.387 . S
C326 C329 1.387 . S
H327 C323 0.950 . S
H328 C325 0.950 . S
C329 C320 1.390 . S
C329 H322 0.950 . S
C329 C326 1.387 . S
C330 C331 1.387 . S
C330 H334 0.950 . S
C330 C339 1.390 . S
C331 C330 1.387 . S
C331 C333 1.387 . S
H332 C339 0.950 . S
C333 C331 1.387 . S
C333 C335 1.390 . S
C333 H337 0.950 . S
H334 C330 0.950 . S
C335 C333 1.390 . S
C335 C336 1.387 . S
C335 H338 0.950 . S
C336 C335 1.387 . S
C336 C339 1.387 . S
H337 C333 0.950 . S
H338 C335 0.950 . S
C339 C330 1.390 . S
C339 H332 0.950 . S
C339 C336 1.387 . S
C340 C341 1.387 . S
C340 H344 0.950 . S
C340 C349 1.390 . S
C341 C340 1.387 . S
C341 C343 1.387 . S
H342 C349 0.950 . S
C343 C341 1.387 . S
C343 C345 1.390 . S
C343 H347 0.950 . S
H344 C340 0.950 . S
C345 C343 1.390 . S
C345 C346 1.387 . S
C345 H348 0.950 . S
C346 C345 1.387 . S
C346 C349 1.387 . S
H347 C343 0.950 . S
H348 C345 0.950 . S
C349 C340 1.390 . S
C349 H342 0.950 . S
C349 C346 1.387 . S
C350 C351 1.387 . S
C350 H354 0.950 . S
C350 C359 1.390 . S
C351 C350 1.387 . S
C351 C353 1.387 . S
H352 C359 0.950 . S
C353 C351 1.387 . S
C353 C355 1.390 . S
C353 H357 0.950 . S
H354 C350 0.950 . S
C355 C353 1.390 . S
C355 C356 1.387 . S
C355 H358 0.950 . S
C356 C355 1.387 . S
C356 C359 1.387 . S
H357 C353 0.950 . S
H358 C355 0.950 . S
C359 C350 1.390 . S
C359 H352 0.950 . S
C359 C356 1.387 . S
C360 C361 1.387 . S
C360 H364 0.950 . S
C360 C369 1.390 . S
C361 C360 1.387 . S
C361 C363 1.387 . S
H362 C369 0.950 . S
C363 C361 1.387 . S
C363 C365 1.390 . S
C363 H367 0.950 . S
H364 C360 0.950 . S
C365 C363 1.390 . S
C365 C366 1.387 . S
C365 H368 0.950 . S
C366 C365 1.387 . S
C366 C369 1.387 . S
H367 C363 0.950 . S
H368 C365 0.950 . S
C369 C360 1.390 . S
C369 H362 0.950 . S
C369 C366 1.387 . S
C370 C371 1.387 . S
C370 H374 0.950 . S
C370 C379 1.390 . S
C371 C370 1.387 . S
C371 C373 1.387 . S
H372 C379 0.950 . S
C373 C371 1.387 . S
C373 C375 1.390 . S
C373 H377 0.950 . S
H374 C370 0.950 . S
C375 C373 1.390 . S
C375 C376 1.387 . S
C375 H378 0.950 . S
C376 C375 1.387 . S
C376 C379 1.387 . S
H377 C373 0.950 . S
H378 C375 0.950 . S
C379 C370 1.390 . S
C379 H372 0.950 . S
C379 C376 1.387 . S
C380 C381 1.387 . S
C380 H384 0.950 . S
C380 C389 1.390 . S
C381 C380 1.387 . S
C381 C383 1.387 . S
H382 C389 0.950 . S
C383 C381 1.387 . S
C383 C385 1.390 . S
C383 H387 0.950 . S
H384 C380 0.950 . S
C385 C383 1.390 . S
C385 C386 1.387 . S
C385 H388 0.950 . S
C386 C385 1.387 . S
C386 C389 1.387 . S
H387 C383 0.950 . S
H388 C385 0.950 . S
C389 C380 1.390 . S
C389 H382 0.950 . S
C389 C386 1.387 . S
C390 C391 1.387 . S
C390 H394 0.950 . S
C390 C399 1.390 . S
C391 C390 1.387 . S
C391 C393 1.387 . S
H392 C399 0.950 . S
C393 C391 1.387 . S
C393 C395 1.390 . S
C393 H397 0.950 . S
H394 C390 0.950 . S
C395 C393 1.390 . S
C395 C396 1.387 . S
C395 H398 0.950 . S
C396 C395 1.387 . S
C396 C399 1.387 . S
H397 C393 0.950 . S
H398 C395 0.950 . S
C399 C390 1.390 . S
C399 H392 0.950 . S
C399 C396 1.387 . S
C400 C401 1.387 . S
C400 H404 0.950 . S
C400 C409 1.390 . S
C401 C400 1.387 . S
C401 C403 1.387 . S
H402 C409 0.950 . S
C403 C401 1.387 . S
C403 C405 1.390 . S
C403 H407 0.950 . S
H404 C400 0.950 . S
C405 C403 1.390 . S
C405 C406 1.387 . S
C405 H408 0.950 . S
C406 C405 1.387 . S
C406 C409 1.387 . S
H407 C403 0.950 . S
H408 C405 0.950 . S
C409 C400 1.390 . S
C409 H402 0.950 . S
C409 C406 1.387 . S
C410 C411 1.387 . S
C410 H414 0.950 . S
C410 C419 1.390 . S
C411 C410 1.387 . S
C411 C413 1.387 . S
H412 C419 0.950 . S
C413 C411 1.387 . S
C413 C415 1.390 . S
C413 H417 0.950 . S
H414 C410 0.950 . S
C415 C413 1.390 . S
C415 C416 1.387 . S
C415 H418 0.950 . S
C416 C415 1.387 . S
C416 C419 1.387 . S
H417 C413 0.950 . S
H418 C415 0.950 . S
C419 C410 1.390 . S
C419 H412 0.950 . S
C419 C416 1.387 . S
C420 C421 1.387 . S
C420 H424 0.950 . S
C420 C429 1.390 . S
C421 C420 1.387 . S
C421 C423 1.387 . S
H422 C429 0.950 . S
C423 C421 1.387 . S
C423 C425 1.390 . S
C423 H427 0.950 . S
H424 C420 0.950 . S
C425 C423 1.390 . S
C425 C426 1.387 . S
C425 H428 0.950 . S
C426 C425 1.387 . S
C426 C429 1.387 . S
H427 C423 0.950 . S
H428 C425 0.950 . S
C429 C420 1.390 . S
C429 H422 0.950 . S
C429 C426 1.387 . S
C430 C431 1.387 . S
C430 H434 0.950 . S
C430 C439 1.390 . S
C431 C430 1.387 . S
C431 C433 1.387 . S
H432 C439 0.950 . S
C433 C431 1.387 . S
C433 C435 1.390 . S
C433 H437 0.950 . S
H434 C430 0.950 . S
C435 C433 1.390 . S
C435 C436 1.387 . S
C435 H438 0.950 . S
C436 C435 1.387 . S
C436 C439 1.387 . S
H437 C433 0.950 . S
H438 C435 0.950 . S
C439 C430 1.390 . S
C439 H432 0.950 . S
C439 C436 1.387 . S
C201 C43 1.500 . S
C206 C92 1.497 . S
C211 C44 1.500 . S
C216 C134 1.500 . S
C221 C41 1.500 . S
C226 C90 1.500 . S
C231 C138 1.500 . S
C236 C47 1.497 . S
C241 C42 1.500 . S
C246 C93 1.503 . S
C251 C45 1.500 . S
C256 C137 1.500 . S
C261 C91 1.500 . S
C266 C40 1.500 . S
C271 C139 1.500 . S
C276 C46 1.503 . S
C281 C188 1.500 . S
C286 C39 1.497 . S
C291 C187 1.500 . S
C296 C34 1.500 . S
C301 C184 1.500 . S
C306 C37 1.500 . S
C311 C38 1.500 . S
C316 C189 1.503 . S
C321 C195 1.500 . S
C326 C94 1.503 . S
C331 C97 1.500 . S
C336 C196 1.500 . S
C341 C95 1.500 . S
C346 C194 1.497 . S
C351 C197 1.500 . S
C356 C96 1.500 . S
C361 C146 1.500 . S
C366 C89 1.500 . S
C371 C84 1.500 . S
C376 C144 1.497 . S
C381 C87 1.500 . S
C386 C145 1.503 . S
C391 C147 1.500 . S
C396 C88 1.500 . S
C401 C192 1.500 . S
C406 C143 1.500 . S
C411 C140 1.500 . S
C416 C190 1.503 . S
C421 C193 1.500 . S
C426 C142 1.500 . S
C431 C141 1.500 . S
C436 C191 1.497 . S
