# Generated by pormake.
# Topology wjn, (5)-cn, num edge types: 1
# Building blocks:
#     Node 0, Type 0, BuildingBlock: BEQFEK_clean_sbu_0, # of connection points: 5
#     Node 1, Type 0, BuildingBlock: BEQFEK_clean_sbu_0, # of connection points: 5
#     Node 2, Type 0, BuildingBlock: BEQFEK_clean_sbu_0, # of connection points: 5
#     Node 3, Type 0, BuildingBlock: BEQFEK_clean_sbu_0, # of connection points: 5
#     Node 4, Type 0, BuildingBlock: BEQFEK_clean_sbu_0, # of connection points: 5
#     Node 5, Type 0, BuildingBlock: BEQFEK_clean_sbu_0, # of connection points: 5
#     Node 6, Type 0, BuildingBlock: BEQFEK_clean_sbu_0, # of connection points: 5
#     Node 7, Type 0, BuildingBlock: BEQFEK_clean_sbu_0, # of connection points: 5
#     Node 8, Type 0, BuildingBlock: BEQFEK_clean_sbu_0, # of connection points: 5
#     Node 9, Type 0, BuildingBlock: BEQFEK_clean_sbu_0, # of connection points: 5
#     Node 10, Type 0, BuildingBlock: BEQFEK_clean_sbu_0, # of connection points: 5
#     Node 11, Type 0, BuildingBlock: BEQFEK_clean_sbu_0, # of connection points: 5
#     Edge 12, Type (0, 0), BuildingBlock: UVAHIK_clean_linker_0, # of connection points: 2
#     Edge 13, Type (0, 0), BuildingBlock: UVAHIK_clean_linker_0, # of connection points: 2
#     Edge 14, Type (0, 0), BuildingBlock: UVAHIK_clean_linker_0, # of connection points: 2
#     Edge 15, Type (0, 0), BuildingBlock: UVAHIK_clean_linker_0, # of connection points: 2
#     Edge 16, Type (0, 0), BuildingBlock: UVAHIK_clean_linker_0, # of connection points: 2
#     Edge 17, Type (0, 0), BuildingBlock: UVAHIK_clean_linker_0, # of connection points: 2
#     Edge 18, Type (0, 0), BuildingBlock: UVAHIK_clean_linker_0, # of connection points: 2
#     Edge 19, Type (0, 0), BuildingBlock: UVAHIK_clean_linker_0, # of connection points: 2
#     Edge 20, Type (0, 0), BuildingBlock: UVAHIK_clean_linker_0, # of connection points: 2
#     Edge 21, Type (0, 0), BuildingBlock: UVAHIK_clean_linker_0, # of connection points: 2
#     Edge 22, Type (0, 0), BuildingBlock: UVAHIK_clean_linker_0, # of connection points: 2
#     Edge 23, Type (0, 0), BuildingBlock: UVAHIK_clean_linker_0, # of connection points: 2
#     Edge 24, Type (0, 0), BuildingBlock: UVAHIK_clean_linker_0, # of connection points: 2
#     Edge 25, Type (0, 0), BuildingBlock: UVAHIK_clean_linker_0, # of connection points: 2
#     Edge 26, Type (0, 0), BuildingBlock: UVAHIK_clean_linker_0, # of connection points: 2
#     Edge 27, Type (0, 0), BuildingBlock: UVAHIK_clean_linker_0, # of connection points: 2
#     Edge 28, Type (0, 0), BuildingBlock: UVAHIK_clean_linker_0, # of connection points: 2
#     Edge 29, Type (0, 0), BuildingBlock: UVAHIK_clean_linker_0, # of connection points: 2
#     Edge 30, Type (0, 0), BuildingBlock: UVAHIK_clean_linker_0, # of connection points: 2
#     Edge 31, Type (0, 0), BuildingBlock: UVAHIK_clean_linker_0, # of connection points: 2
#     Edge 32, Type (0, 0), BuildingBlock: UVAHIK_clean_linker_0, # of connection points: 2
#     Edge 33, Type (0, 0), BuildingBlock: UVAHIK_clean_linker_0, # of connection points: 2
#     Edge 34, Type (0, 0), BuildingBlock: UVAHIK_clean_linker_0, # of connection points: 2
#     Edge 35, Type (0, 0), BuildingBlock: UVAHIK_clean_linker_0, # of connection points: 2
#     Edge 36, Type (0, 0), BuildingBlock: UVAHIK_clean_linker_0, # of connection points: 2
#     Edge 37, Type (0, 0), BuildingBlock: UVAHIK_clean_linker_0, # of connection points: 2
#     Edge 38, Type (0, 0), BuildingBlock: UVAHIK_clean_linker_0, # of connection points: 2
#     Edge 39, Type (0, 0), BuildingBlock: UVAHIK_clean_linker_0, # of connection points: 2
#     Edge 40, Type (0, 0), BuildingBlock: UVAHIK_clean_linker_0, # of connection points: 2
#     Edge 41, Type (0, 0), BuildingBlock: UVAHIK_clean_linker_0, # of connection points: 2
# Relax obj value: 0.366
# Max RMSD: 0.190
# Mean RMSD: 0.190
data_MOF--net-wjn--node1-BEQFEK_clean_sbu_0--edge1-UVAHIK_clean_linker_0
_symmetry_space_group_name_H-M    P1
_symmetry_Int_Tables_number       1
_symmetry_cell_setting            triclinic
loop_
_symmetry_equiv_pos_as_xyz
'x, y, z'
_cell_length_a     43.173749
_cell_length_b     43.16439
_cell_length_c     97.639663
_cell_angle_alpha  90.014032
_cell_angle_beta   89.963578
_cell_angle_gamma 120.0125
loop_
_atom_site_label
_atom_site_type_symbol
_atom_site_fract_x
_atom_site_fract_y
_atom_site_fract_z
_atom_type_partial_charge
Co0 Co 0.14285 0.40635 0.10419 0.0
Co1 Co 0.2101 0.40655 0.11578 0.0
C2 C 0.1946 0.46336 0.12387 0.0
O3 O 0.16629 0.44778 0.1167 0.0
O4 O 0.21611 0.45128 0.12441 0.0
C5 C 0.11971 0.44361 0.08834 0.0
O6 O 0.15411 0.46678 0.08923 0.0
C7 C 0.28511 0.42914 0.12103 0.0
C8 C 0.28354 0.37739 0.1231 0.0
C9 C 0.30654 0.41407 0.12314 0.0
N10 N 0.25105 0.40259 0.11985 0.0
N11 N 0.25022 0.37172 0.12121 0.0
C12 C 0.29689 0.46781 0.11884 0.0
H13 H 0.27763 0.47053 0.11214 0.0
H14 H 0.32394 0.48216 0.11416 0.0
H15 H 0.29781 0.48032 0.12887 0.0
C16 C 0.17415 0.40246 0.07798 0.0
N17 N 0.17513 0.40493 0.09171 0.0
N18 N 0.20459 0.40656 0.09627 0.0
C19 C 0.22384 0.4062 0.08537 0.0
C20 C 0.20505 0.40375 0.07351 0.0
C21 C 0.14344 0.39706 0.06917 0.0
H22 H 0.11781 0.3815 0.07475 0.0
H23 H 0.14707 0.42349 0.06624 0.0
H24 H 0.14234 0.38266 0.0596 0.0
O25 O 0.11982 0.36208 0.11478 0.0
O26 O 0.16757 0.36421 0.12445 0.0
H27 H 0.25653 0.38536 0.09257 0.0
H28 H 0.26937 0.40662 0.07594 0.0
C29 C 0.25923 0.40793 0.08625 0.0
H30 H 0.2788 0.43322 0.09132 0.0
H31 H 0.227 0.34678 0.12051 0.0
O32 O 0.10735 0.41346 0.09423 0.0
C33 C 0.13374 0.34923 0.12282 0.0
Co34 Co 0.73107 0.14852 0.43761 0.0
Co35 Co 0.80135 0.2097 0.45019 0.0
C36 C 0.73011 0.1994 0.45849 0.0
O37 O 0.7148 0.17264 0.45051 0.0
O38 O 0.76408 0.21711 0.45949 0.0
C39 C 0.6682 0.12616 0.42271 0.0
O40 O 0.67575 0.15898 0.42551 0.0
C41 C 0.85563 0.28335 0.45564 0.0
C42 C 0.90412 0.27956 0.45933 0.0
C43 C 0.89187 0.3037 0.45849 0.0
N44 N 0.84687 0.24887 0.45489 0.0
N45 N 0.87585 0.24666 0.45722 0.0
C46 C 0.83027 0.29641 0.45229 0.0
H47 H 0.80847 0.27695 0.44556 0.0
H48 H 0.84445 0.32289 0.44716 0.0
H49 H 0.81814 0.29912 0.46191 0.0
C50 C 0.76786 0.18153 0.41187 0.0
N51 N 0.76622 0.18095 0.42562 0.0
N52 N 0.79621 0.20723 0.43061 0.0
C53 C 0.81789 0.22564 0.42001 0.0
C54 C 0.80031 0.20995 0.40786 0.0
C55 C 0.73986 0.15405 0.40264 0.0
H56 H 0.72985 0.12692 0.40694 0.0
H57 H 0.71727 0.15928 0.4018 0.0
H58 H 0.75038 0.15498 0.39219 0.0
O59 O 0.74952 0.12164 0.44759 0.0
O60 O 0.79849 0.16494 0.45752 0.0
H61 H 0.87068 0.24926 0.42835 0.0
H62 H 0.86866 0.2648 0.41132 0.0
C63 C 0.85505 0.2566 0.42141 0.0
H64 H 0.85399 0.27954 0.42599 0.0
H65 H 0.8765 0.22282 0.45703 0.0
O66 O 0.68871 0.11514 0.42706 0.0
C67 C 0.77666 0.13184 0.45531 0.0
Co68 Co 0.57571 0.72963 0.76988 0.0
Co69 Co 0.58635 0.80083 0.78221 0.0
C70 C 0.52327 0.73058 0.78992 0.0
O71 O 0.53361 0.71439 0.78189 0.0
O72 O 0.54122 0.76441 0.79134 0.0
C73 C 0.5361 0.66918 0.75363 0.0
O74 O 0.51281 0.68022 0.75468 0.0
C75 C 0.56829 0.85589 0.78791 0.0
C76 C 0.62114 0.90421 0.79093 0.0
C77 C 0.58477 0.89222 0.79062 0.0
N78 N 0.59366 0.84677 0.78676 0.0
N79 N 0.62522 0.87566 0.78868 0.0
C80 C 0.52949 0.83079 0.78508 0.0
H81 H 0.52629 0.80924 0.77801 0.0
H82 H 0.51673 0.84523 0.78055 0.0
H83 H 0.51572 0.81831 0.79484 0.0
C84 C 0.58477 0.76814 0.74401 0.0
N85 N 0.58158 0.7658 0.75773 0.0
N86 N 0.58477 0.79566 0.76265 0.0
C87 C 0.58923 0.81768 0.75203 0.0
C88 C 0.58929 0.80075 0.73995 0.0
C89 C 0.58529 0.74045 0.73491 0.0
H90 H 0.5996 0.7283 0.73999 0.0
H91 H 0.55741 0.71932 0.73272 0.0
H92 H 0.59851 0.75204 0.72498 0.0
O93 O 0.61969 0.74647 0.78073 0.0
O94 O 0.62693 0.7968 0.79 0.0
H95 H 0.59903 0.8678 0.74326 0.0
H96 H 0.57122 0.85335 0.75842 0.0
C97 C 0.59487 0.85464 0.7534 0.0
H98 H 0.61852 0.87087 0.75996 0.0
H99 H 0.64952 0.87602 0.78815 0.0
O100 O 0.56621 0.68677 0.75955 0.0
C101 C 0.63697 0.77384 0.78833 0.0
Co102 Co 0.84487 0.57756 0.10427 0.0
Co103 Co 0.7846 0.58874 0.11683 0.0
C104 C 0.79403 0.52701 0.1252 0.0
O105 O 0.81995 0.5368 0.11691 0.0
O106 O 0.77794 0.54479 0.12652 0.0
C107 C 0.86805 0.53712 0.08955 0.0
O108 O 0.8354 0.5115 0.09236 0.0
C109 C 0.71057 0.56966 0.12209 0.0
C110 C 0.71462 0.62237 0.12493 0.0
C111 C 0.69028 0.58603 0.12421 0.0
N112 N 0.74516 0.5952 0.12128 0.0
N113 N 0.74748 0.62663 0.12313 0.0
C114 C 0.69796 0.53042 0.12143 0.0
H115 H 0.70405 0.52372 0.11118 0.0
H116 H 0.66904 0.51367 0.12367 0.0
H117 H 0.71266 0.52384 0.12911 0.0
C118 C 0.81137 0.5802 0.07853 0.0
N119 N 0.81258 0.5804 0.09229 0.0
N120 N 0.78673 0.5849 0.09725 0.0
C121 C 0.76806 0.58755 0.0866 0.0
C122 C 0.78298 0.5842 0.07448 0.0
C123 C 0.83849 0.57894 0.06932 0.0
H124 H 0.86575 0.59606 0.0735 0.0
H125 H 0.83294 0.55099 0.06864 0.0
H126 H 0.83752 0.58824 0.05882 0.0
O127 O 0.87187 0.623 0.11431 0.0
O128 O 0.82947 0.63102 0.12377 0.0
H129 H 0.74502 0.6177 0.09452 0.0
H130 H 0.72859 0.59847 0.07777 0.0
C131 C 0.73726 0.59402 0.08793 0.0
H132 H 0.7145 0.57053 0.09285 0.0
H133 H 0.77141 0.65103 0.12285 0.0
O134 O 0.87851 0.56865 0.0938 0.0
C135 C 0.86237 0.64115 0.12169 0.0
Co136 Co 0.26073 0.85407 0.44007 0.0
Co137 Co 0.19128 0.78496 0.44902 0.0
C138 C 0.26123 0.80095 0.46032 0.0
O139 O 0.27577 0.83035 0.45377 0.0
O140 O 0.2279 0.77882 0.45922 0.0
C141 C 0.32375 0.87771 0.42624 0.0
O142 O 0.31198 0.84321 0.42723 0.0
C143 C 0.13807 0.70945 0.45356 0.0
C144 C 0.08722 0.70968 0.45138 0.0
C145 C 0.10117 0.68735 0.45358 0.0
N146 N 0.14552 0.74317 0.45122 0.0
N147 N 0.11503 0.74318 0.45001 0.0
C148 C 0.16604 0.69956 0.45658 0.0
H149 H 0.1848 0.70725 0.4478 0.0
H150 H 0.15448 0.67074 0.45887 0.0
H151 H 0.18163 0.71482 0.46565 0.0
C152 C 0.23358 0.82504 0.41272 0.0
N153 N 0.23099 0.82266 0.42643 0.0
N154 N 0.20256 0.79233 0.42991 0.0
C155 C 0.18689 0.77369 0.41836 0.0
C156 C 0.20644 0.79383 0.40712 0.0
C157 C 0.25909 0.85805 0.40495 0.0
H158 H 0.26653 0.88234 0.41112 0.0
H159 H 0.28347 0.85684 0.40237 0.0
H160 H 0.2469 0.85993 0.3952 0.0
O161 O 0.23606 0.8756 0.44918 0.0
O162 O 0.18845 0.82659 0.45723 0.0
H163 H 0.13108 0.73866 0.42174 0.0
H164 H 0.14922 0.72541 0.40768 0.0
C165 C 0.15462 0.7371 0.41812 0.0
H166 H 0.15866 0.71939 0.42522 0.0
H167 H 0.11324 0.76599 0.44806 0.0
O168 O 0.30543 0.89031 0.4315 0.0
C169 C 0.20718 0.8606 0.45606 0.0
Co170 Co 0.4215 0.26736 0.7698 0.0
Co171 Co 0.41092 0.19579 0.78194 0.0
C172 C 0.47293 0.26695 0.7902 0.0
O173 O 0.46304 0.28334 0.78208 0.0
O174 O 0.45513 0.23304 0.7914 0.0
C175 C 0.45995 0.33177 0.75505 0.0
O176 O 0.48691 0.32675 0.75779 0.0
C177 C 0.43004 0.14089 0.78704 0.0
C178 C 0.37733 0.09219 0.78989 0.0
C179 C 0.41367 0.10425 0.78921 0.0
N180 N 0.40449 0.14988 0.78619 0.0
N181 N 0.37305 0.12076 0.78802 0.0
C182 C 0.46926 0.16761 0.78648 0.0
H183 H 0.47597 0.18098 0.77633 0.0
H184 H 0.48608 0.15542 0.7885 0.0
H185 H 0.47573 0.18844 0.79435 0.0
C186 C 0.41763 0.23142 0.74383 0.0
N187 N 0.41796 0.23227 0.75759 0.0
N188 N 0.41366 0.20187 0.76239 0.0
C189 C 0.41057 0.18065 0.75165 0.0
C190 C 0.4134 0.19903 0.73961 0.0
C191 C 0.41884 0.26005 0.73479 0.0
H192 H 0.40138 0.26972 0.73902 0.0
H193 H 0.4467 0.28269 0.73429 0.0
H194 H 0.4099 0.2502 0.72422 0.0
O195 O 0.37685 0.24896 0.78041 0.0
O196 O 0.36944 0.19845 0.78954 0.0
H197 H 0.38064 0.12723 0.75935 0.0
H198 H 0.40021 0.13062 0.74261 0.0
C199 C 0.40439 0.14345 0.75282 0.0
H200 H 0.42787 0.14426 0.75777 0.0
H201 H 0.34868 0.12028 0.78774 0.0
O202 O 0.42894 0.30951 0.75945 0.0
C203 C 0.35931 0.22133 0.78786 0.0
Co204 Co 0.5875 0.85179 0.56395 0.0
Co205 Co 0.5864 0.78326 0.55303 0.0
C206 C 0.52971 0.79929 0.54482 0.0
O207 O 0.54561 0.82804 0.55174 0.0
O208 O 0.54166 0.77764 0.54445 0.0
C209 C 0.55129 0.8786 0.57863 0.0
O210 O 0.52576 0.84527 0.57692 0.0
C211 C 0.56348 0.70759 0.54816 0.0
C212 C 0.61527 0.70885 0.54735 0.0
C213 C 0.57862 0.68591 0.54689 0.0
N214 N 0.58999 0.74165 0.54958 0.0
N215 N 0.62087 0.74225 0.54897 0.0
C216 C 0.52476 0.6969 0.54724 0.0
H217 H 0.51599 0.70283 0.5571 0.0
H218 H 0.50751 0.6683 0.54458 0.0
H219 H 0.52137 0.71298 0.53917 0.0
C220 C 0.59066 0.82153 0.59046 0.0
N221 N 0.58858 0.81997 0.57672 0.0
N222 N 0.58678 0.79019 0.57246 0.0
C223 C 0.58679 0.77137 0.58355 0.0
C224 C 0.58915 0.79076 0.59524 0.0
C225 C 0.59532 0.85245 0.59897 0.0
H226 H 0.61261 0.87801 0.59358 0.0
H227 H 0.56876 0.84975 0.60089 0.0
H228 H 0.6075 0.85299 0.60904 0.0
O229 O 0.63117 0.87344 0.55299 0.0
O230 O 0.62895 0.82493 0.54408 0.0
H231 H 0.60792 0.73811 0.57744 0.0
H232 H 0.58364 0.72508 0.59346 0.0
C233 C 0.58442 0.73564 0.58302 0.0
H234 H 0.56001 0.71656 0.57734 0.0
H235 H 0.64577 0.76541 0.54991 0.0
O236 O 0.58211 0.88868 0.57368 0.0
C237 C 0.64393 0.85891 0.5452 0.0
Co238 Co 0.73094 0.58276 0.89836 0.0
Co239 Co 0.80271 0.59065 0.88776 0.0
C240 C 0.73239 0.52855 0.87943 0.0
O241 O 0.71586 0.53985 0.88681 0.0
O242 O 0.76635 0.54569 0.87865 0.0
C243 C 0.67014 0.54423 0.9141 0.0
O244 O 0.68242 0.52186 0.91373 0.0
C245 C 0.85691 0.5703 0.88353 0.0
C246 C 0.90655 0.62248 0.88121 0.0
C247 C 0.89358 0.58594 0.88169 0.0
N248 N 0.84872 0.59643 0.88436 0.0
N249 N 0.87842 0.62756 0.88288 0.0
C250 C 0.82935 0.53129 0.88356 0.0
H251 H 0.81238 0.52492 0.89285 0.0
H252 H 0.84115 0.51374 0.88298 0.0
H253 H 0.81178 0.52543 0.87451 0.0
C254 C 0.76681 0.59293 0.92499 0.0
N255 N 0.76572 0.58885 0.9113 0.0
N256 N 0.79531 0.5901 0.90713 0.0
C257 C 0.81565 0.59374 0.91822 0.0
C258 C 0.79813 0.59575 0.92982 0.0
C259 C 0.73899 0.59533 0.93336 0.0
H260 H 0.72737 0.60905 0.9275 0.0
H261 H 0.71753 0.56796 0.93608 0.0
H262 H 0.75037 0.61012 0.94305 0.0
O263 O 0.74951 0.62576 0.88682 0.0
O264 O 0.8006 0.63146 0.87905 0.0
H265 H 0.87008 0.61995 0.91158 0.0
H266 H 0.86268 0.59872 0.92817 0.0
C267 C 0.85145 0.59629 0.91774 0.0
H268 H 0.8489 0.57213 0.91268 0.0
H269 H 0.87953 0.65225 0.88318 0.0
O270 O 0.68727 0.57402 0.9079 0.0
C271 C 0.77788 0.64213 0.87965 0.0
Co272 Co 0.13855 0.73474 0.22781 0.0
Co273 Co 0.20902 0.80296 0.219 0.0
C274 C 0.19219 0.7318 0.20856 0.0
O275 O 0.16245 0.71797 0.21488 0.0
O276 O 0.21462 0.76512 0.20945 0.0
C277 C 0.10899 0.66958 0.24111 0.0
O278 O 0.142 0.67635 0.23945 0.0
C279 C 0.28513 0.85485 0.21484 0.0
C280 C 0.28589 0.90633 0.21638 0.0
C281 C 0.30776 0.89168 0.21464 0.0
N282 N 0.25152 0.84814 0.21684 0.0
N283 N 0.25212 0.87899 0.21767 0.0
C284 C 0.29444 0.82626 0.21227 0.0
H285 H 0.28607 0.80784 0.22118 0.0
H286 H 0.32329 0.83727 0.2102 0.0
H287 H 0.27938 0.81044 0.20321 0.0
C288 C 0.16682 0.76189 0.25524 0.0
N289 N 0.16949 0.76453 0.24153 0.0
N290 N 0.20023 0.79255 0.23813 0.0
C291 C 0.21874 0.80798 0.24973 0.0
C292 C 0.19814 0.78868 0.26092 0.0
C293 C 0.13383 0.73596 0.2629 0.0
H294 H 0.10954 0.72993 0.25699 0.0
H295 H 0.13437 0.71088 0.2647 0.0
H296 H 0.13253 0.74701 0.27302 0.0
O297 O 0.11885 0.75967 0.21766 0.0
O298 O 0.1688 0.80653 0.20992 0.0
H299 H 0.25553 0.8633 0.24607 0.0
H300 H 0.26705 0.84495 0.26056 0.0
C301 C 0.25588 0.8394 0.25004 0.0
H302 H 0.27336 0.83417 0.24326 0.0
H303 H 0.22951 0.88137 0.21929 0.0
O304 O 0.10015 0.69155 0.23645 0.0
C305 C 0.13468 0.78815 0.21056 0.0
Co306 Co 0.40754 0.14223 0.56418 0.0
Co307 Co 0.40214 0.20683 0.55289 0.0
C308 C 0.46312 0.19685 0.54499 0.0
O309 O 0.44992 0.16871 0.55228 0.0
O310 O 0.44768 0.21534 0.54414 0.0
C311 C 0.44683 0.12238 0.58035 0.0
O312 O 0.46802 0.15723 0.57971 0.0
C313 C 0.42232 0.28123 0.54818 0.0
C314 C 0.37006 0.27806 0.54524 0.0
C315 C 0.40654 0.30192 0.54579 0.0
N316 N 0.3964 0.2468 0.54894 0.0
N317 N 0.36522 0.245 0.54707 0.0
C318 C 0.46092 0.29393 0.551 0.0
H319 H 0.46354 0.27466 0.55773 0.0
H320 H 0.47407 0.32071 0.55591 0.0
H321 H 0.47474 0.29583 0.54119 0.0
C322 C 0.39786 0.16975 0.59045 0.0
N323 N 0.40227 0.17218 0.57678 0.0
N324 N 0.40216 0.20091 0.57235 0.0
C325 C 0.39899 0.21844 0.58328 0.0
C326 C 0.39609 0.19905 0.59502 0.0
C327 C 0.39425 0.13936 0.59905 0.0
H328 H 0.38082 0.11401 0.59318 0.0
H329 H 0.42122 0.14493 0.60222 0.0
H330 H 0.37862 0.13619 0.60848 0.0
O331 O 0.36417 0.11732 0.55301 0.0
O332 O 0.36081 0.16332 0.54442 0.0
H333 H 0.37488 0.24803 0.57589 0.0
H334 H 0.39419 0.26108 0.59281 0.0
C335 C 0.39754 0.25227 0.5825 0.0
H336 H 0.42257 0.27358 0.57782 0.0
H337 H 0.34062 0.22128 0.54734 0.0
O338 O 0.41695 0.10826 0.57415 0.0
C339 C 0.34874 0.12969 0.5455 0.0
Co340 Co 0.26294 0.41682 0.89753 0.0
Co341 Co 0.19058 0.40606 0.88645 0.0
C342 C 0.26039 0.46948 0.87816 0.0
O343 O 0.27741 0.45918 0.88576 0.0
O344 O 0.22643 0.45144 0.87725 0.0
C345 C 0.32709 0.4561 0.91208 0.0
O346 O 0.32016 0.48206 0.9099 0.0
C347 C 0.13527 0.42422 0.88155 0.0
C348 C 0.0866 0.37137 0.87904 0.0
C349 C 0.0988 0.40778 0.87921 0.0
N350 N 0.14431 0.39877 0.88262 0.0
N351 N 0.1152 0.36721 0.88102 0.0
C352 C 0.16072 0.46312 0.88406 0.0
H353 H 0.18242 0.46648 0.89107 0.0
H354 H 0.14666 0.47635 0.88853 0.0
H355 H 0.17294 0.47628 0.87418 0.0
C356 C 0.22702 0.40833 0.92399 0.0
N357 N 0.22779 0.41085 0.91026 0.0
N358 N 0.19735 0.40726 0.90587 0.0
C359 C 0.1764 0.40293 0.91685 0.0
C360 C 0.19469 0.4035 0.92862 0.0
C361 C 0.25632 0.40953 0.9326 0.0
H362 H 0.26649 0.39302 0.92784 0.0
H363 H 0.27852 0.43757 0.93331 0.0
H364 H 0.24708 0.39966 0.94314 0.0
O365 O 0.24554 0.37352 0.88616 0.0
O366 O 0.19412 0.3659 0.87799 0.0
H367 H 0.12243 0.37323 0.90976 0.0
H368 H 0.12725 0.39348 0.92644 0.0
C369 C 0.13931 0.39718 0.91609 0.0
H370 H 0.14002 0.42058 0.91109 0.0
H371 H 0.11476 0.34286 0.88153 0.0
O372 O 0.30594 0.42505 0.90743 0.0
C373 C 0.21759 0.35628 0.87885 0.0
Co374 Co 0.84576 0.26459 0.23221 0.0
Co375 Co 0.7846 0.19202 0.22108 0.0
C376 C 0.791 0.26124 0.21229 0.0
O377 O 0.81808 0.27818 0.21999 0.0
O378 O 0.77496 0.22728 0.21143 0.0
C379 C 0.86389 0.32488 0.24766 0.0
O380 O 0.82906 0.31103 0.24675 0.0
C381 C 0.71132 0.13621 0.21617 0.0
C382 C 0.71597 0.08788 0.21344 0.0
C383 C 0.69147 0.09973 0.2137 0.0
N384 N 0.74589 0.14552 0.21721 0.0
N385 N 0.74861 0.1166 0.21549 0.0
C386 C 0.69767 0.16146 0.21877 0.0
H387 H 0.71631 0.18355 0.22558 0.0
H388 H 0.67069 0.14732 0.22351 0.0
H389 H 0.69592 0.17321 0.20889 0.0
C390 C 0.81757 0.22896 0.25868 0.0
N391 N 0.81629 0.22953 0.24493 0.0
N392 N 0.78921 0.19924 0.24053 0.0
C393 C 0.77187 0.1787 0.25152 0.0
C394 C 0.78932 0.19718 0.26331 0.0
C395 C 0.84658 0.25717 0.26736 0.0
H396 H 0.8725 0.26948 0.26187 0.0
H397 H 0.83966 0.27804 0.26986 0.0
H398 H 0.84937 0.24578 0.27717 0.0
O399 O 0.87273 0.24742 0.22141 0.0
O400 O 0.82917 0.19578 0.21323 0.0
H401 H 0.74618 0.12468 0.24437 0.0
H402 H 0.73153 0.12997 0.26115 0.0
C403 C 0.73989 0.14199 0.2508 0.0
H404 H 0.71746 0.14342 0.24592 0.0
H405 H 0.77265 0.11639 0.21595 0.0
O406 O 0.87841 0.30887 0.24194 0.0
C407 C 0.86228 0.21919 0.21427 0.0
C408 C 0.6295 0.54212 0.11534 0.0
C409 C 0.65095 0.5695 0.12457 0.0
C410 C 0.59233 0.52599 0.11586 0.0
C411 C 0.51903 0.53983 0.12617 0.0
H412 H 0.46352 0.43616 0.12669 0.0
C413 C 0.36507 0.46358 0.13187 0.0
C414 C 0.34589 0.43225 0.1241 0.0
C415 C 0.40236 0.48064 0.13263 0.0
C416 C 0.47853 0.46511 0.12637 0.0
H417 H 0.65065 0.60334 0.14089 0.0
H418 H 0.58529 0.57541 0.14166 0.0
H419 H 0.52859 0.46607 0.12635 0.0
H420 H 0.3503 0.39391 0.11116 0.0
H421 H 0.41533 0.42408 0.11211 0.0
H422 H 0.4691 0.53902 0.12577 0.0
C423 C 0.59735 0.56596 0.13424 0.0
C424 C 0.51581 0.4822 0.12624 0.0
C425 C 0.63462 0.58184 0.13383 0.0
C426 C 0.36452 0.41801 0.11725 0.0
C427 C 0.40177 0.43524 0.11787 0.0
C428 C 0.48168 0.52273 0.12614 0.0
C429 C 0.57589 0.53753 0.12539 0.0
C430 C 0.5364 0.51969 0.12605 0.0
C431 C 0.42121 0.46678 0.12558 0.0
C432 C 0.46095 0.48513 0.12613 0.0
H433 H 0.64144 0.53333 0.10762 0.0
H434 H 0.57642 0.50474 0.10869 0.0
H435 H 0.53434 0.56879 0.12592 0.0
H436 H 0.35124 0.47461 0.13753 0.0
H437 H 0.41635 0.50444 0.13888 0.0
C438 C 0.04864 0.63202 0.46273 0.0
C439 C 0.08009 0.64806 0.45487 0.0
C440 C 0.02831 0.59479 0.46383 0.0
C441 C 0.0345 0.51326 0.46023 0.0
H442 H 0.93143 0.4655 0.45622 0.0
C443 C 0.94814 0.36052 0.45328 0.0
C444 C 0.91407 0.34302 0.45931 0.0
C445 C 0.96867 0.39782 0.45344 0.0
C446 C 0.96012 0.47841 0.45758 0.0
H447 H 0.11352 0.63791 0.44117 0.0
H448 H 0.07854 0.57292 0.44333 0.0
H449 H 0.96648 0.53059 0.45517 0.0
H450 H 0.87567 0.35045 0.47103 0.0
H451 H 0.91159 0.41557 0.47148 0.0
H452 H 0.02826 0.46122 0.46273 0.0
C453 C 0.07014 0.58909 0.44896 0.0
C454 C 0.98019 0.51571 0.45695 0.0
C455 C 0.09029 0.62626 0.4478 0.0
C456 C 0.9014 0.36335 0.46594 0.0
C457 C 0.92202 0.40064 0.4662 0.0
C458 C 0.01444 0.47598 0.46096 0.0
C459 C 0.03902 0.57297 0.45703 0.0
C460 C 0.0176 0.53348 0.45816 0.0
C461 C 0.95573 0.41836 0.45981 0.0
C462 C 0.97702 0.45808 0.45955 0.0
H463 H 0.04 0.6483 0.46814 0.0
H464 H 0.00447 0.58308 0.47014 0.0
H465 H 0.06328 0.52631 0.4614 0.0
H466 H 0.95851 0.3454 0.4481 0.0
H467 H 0.99432 0.41055 0.44828 0.0
C468 C 0.41808 0.05345 0.79932 0.0
C469 C 0.43028 0.08159 0.78983 0.0
C470 C 0.4342 0.03233 0.80006 0.0
C471 C 0.51831 0.03493 0.79274 0.0
H472 H 0.46204 0.93134 0.7926 0.0
C473 C 0.58295 0.94756 0.78505 0.0
C474 C 0.56794 0.91453 0.79181 0.0
C475 C 0.56613 0.968 0.78554 0.0
C476 C 0.47818 0.96024 0.7929 0.0
H477 H 0.46644 0.10757 0.77282 0.0
H478 H 0.49551 0.07163 0.77445 0.0
H479 H 0.43194 0.96643 0.79212 0.0
H480 H 0.52495 0.87778 0.80507 0.0
H481 H 0.49593 0.91381 0.80626 0.0
H482 H 0.56453 0.02908 0.79376 0.0
C483 C 0.47415 0.06651 0.78154 0.0
C484 C 0.46088 0.98026 0.79257 0.0
C485 C 0.45775 0.08725 0.7807 0.0
C486 C 0.53654 0.9028 0.79949 0.0
C487 C 0.51993 0.92343 0.80014 0.0
C488 C 0.5356 0.01496 0.79326 0.0
C489 C 0.46276 0.03909 0.79131 0.0
C490 C 0.48083 0.01777 0.79232 0.0
C491 C 0.53427 0.95609 0.79303 0.0
C492 C 0.51579 0.97735 0.79318 0.0
H493 H 0.39651 0.04821 0.80632 0.0
H494 H 0.42486 0.01123 0.80764 0.0
H495 H 0.53425 0.06387 0.79275 0.0
H496 H 0.60713 0.95708 0.77903 0.0
H497 H 0.57769 0.99271 0.77976 0.0
C498 C 0.57461 0.6301 0.53762 0.0
C499 C 0.56068 0.6465 0.54609 0.0
C500 C 0.55813 0.59282 0.53701 0.0
C501 C 0.47236 0.51105 0.54312 0.0
H502 H 0.52931 0.4647 0.5457 0.0
C503 C 0.40813 0.35906 0.55133 0.0
C504 C 0.42391 0.34126 0.54494 0.0
C505 C 0.42484 0.39634 0.55093 0.0
C506 C 0.51303 0.47719 0.54474 0.0
H507 H 0.5204 0.63691 0.56138 0.0
H508 H 0.49093 0.57184 0.55998 0.0
H509 H 0.55878 0.52986 0.54592 0.0
H510 H 0.46838 0.34813 0.53244 0.0
H511 H 0.4974 0.41321 0.53153 0.0
H512 H 0.42665 0.45861 0.54177 0.0
C513 C 0.51399 0.58777 0.55354 0.0
C514 C 0.52994 0.51451 0.54491 0.0
C515 C 0.53066 0.625 0.55425 0.0
C516 C 0.45617 0.36128 0.53779 0.0
C517 C 0.47275 0.39856 0.53727 0.0
C518 C 0.45547 0.47376 0.54282 0.0
C519 C 0.52748 0.5713 0.54488 0.0
C520 C 0.50974 0.53178 0.54422 0.0
C521 C 0.45745 0.41659 0.54394 0.0
C522 C 0.47555 0.45633 0.54375 0.0
H523 H 0.59805 0.64612 0.53137 0.0
H524 H 0.56908 0.5808 0.53024 0.0
H525 H 0.45619 0.52371 0.54237 0.0
H526 H 0.38325 0.34418 0.55693 0.0
H527 H 0.4125 0.40928 0.55635 0.0
C528 C 0.9093 0.54088 0.89009 0.0
C529 C 0.91533 0.56837 0.88091 0.0
C530 C 0.92908 0.52348 0.88908 0.0
C531 C 0.01383 0.53415 0.87734 0.0
H532 H 0.96302 0.43038 0.87691 0.0
C533 C 0.08823 0.45573 0.87005 0.0
C534 C 0.07668 0.42483 0.87802 0.0
C535 C 0.06798 0.47273 0.86944 0.0
C536 C 0.97768 0.45934 0.87718 0.0
H537 H 0.94832 0.6011 0.86415 0.0
H538 H 0.98363 0.571 0.86253 0.0
H539 H 0.92949 0.46197 0.87811 0.0
H540 H 0.03471 0.38677 0.89129 0.0
H541 H -0.00026 0.41694 0.89062 0.0
H542 H 0.06206 0.53175 0.87687 0.0
C543 C 0.963 0.56243 0.87029 0.0
C544 C 0.95844 0.47739 0.87782 0.0
C545 C 0.94285 0.57956 0.8712 0.0
C546 C 0.0441 0.41059 0.88507 0.0
C547 C 0.02404 0.42782 0.88461 0.0
C548 C 0.03313 0.51612 0.87688 0.0
C549 C 0.95589 0.53388 0.8791 0.0
C550 C 0.97635 0.51493 0.87797 0.0
C551 C 0.03588 0.45929 0.87688 0.0
C552 C 0.01529 0.47847 0.87686 0.0
H553 H 0.88942 0.53295 0.89811 0.0
H554 H 0.92372 0.50216 0.89622 0.0
H555 H 0.02825 0.56313 0.87757 0.0
H556 H 0.11286 0.46667 0.86424 0.0
H557 H 0.07748 0.49637 0.86311 0.0
C558 C 0.36394 0.94324 0.20556 0.0
C559 C 0.34712 0.91213 0.21358 0.0
C560 C 0.40123 0.96317 0.20476 0.0
C561 C 0.48219 0.95658 0.20998 0.0
H562 H 0.52989 0.05986 0.21322 0.0
C563 C 0.63435 0.04349 0.21868 0.0
C564 C 0.65229 0.07723 0.2124 0.0
C565 C 0.5971 0.0228 0.21806 0.0
C566 C 0.51701 0.0311 0.21208 0.0
H567 H 0.3559 0.8788 0.22783 0.0
H568 H 0.42102 0.91314 0.22623 0.0
H569 H 0.46478 0.02501 0.21356 0.0
H570 H 0.64578 0.11475 0.19971 0.0
H571 H 0.58079 0.0786 0.1985 0.0
H572 H 0.53435 0.96259 0.20847 0.0
C573 C 0.40543 0.92157 0.22024 0.0
C574 C 0.4797 0.01114 0.21231 0.0
C575 C 0.36818 0.90179 0.22109 0.0
C576 C 0.6325 0.08933 0.20502 0.0
C577 C 0.59529 0.06858 0.20432 0.0
C578 C 0.51951 0.97654 0.20968 0.0
C579 C 0.42235 0.95243 0.21205 0.0
C580 C 0.46191 0.97367 0.21135 0.0
C581 C 0.57709 0.03528 0.21098 0.0
C582 C 0.53738 0.01403 0.21082 0.0
H583 H 0.34823 0.95196 0.1998 0.0
H584 H 0.41355 0.98678 0.19833 0.0
H585 H 0.46916 0.92775 0.20904 0.0
H586 H 0.64906 0.03355 0.22441 0.0
H587 H 0.58395 0.99745 0.22342 0.0
C588 C 0.88531 0.49399 0.08039 0.0
C589 C 0.89254 0.52934 0.08174 0.0
C590 C 0.91053 0.48692 0.07447 0.0
C591 C 0.00741 0.53157 0.07129 0.0
H592 H 0.98549 0.44027 0.05562 0.0
C593 C 0.10991 0.48614 0.07421 0.0
C594 C 0.09589 0.45284 0.08078 0.0
C595 C 0.08708 0.49666 0.06843 0.0
C596 C 0.99209 0.46606 0.05984 0.0
H597 H 0.93006 0.58476 0.07679 0.0
H598 H 0.97387 0.57238 0.06619 0.0
H599 H 0.93989 0.45804 0.0557 0.0
H600 H 0.04723 0.40327 0.0855 0.0
H601 H 0.00737 0.42194 0.07571 0.0
H602 H 0.0588 0.53892 0.07608 0.0
C603 C 0.94922 0.55019 0.07006 0.0
C604 C 0.96601 0.4762 0.05993 0.0
C605 C 0.92418 0.55729 0.07614 0.0
C606 C 0.0588 0.42926 0.08063 0.0
C607 C 0.03597 0.4398 0.07487 0.0
C608 C 0.03345 0.52156 0.07113 0.0
C609 C 0.9433 0.51508 0.06965 0.0
C610 C 0.97288 0.50829 0.06626 0.0
C611 C 0.04983 0.47409 0.06913 0.0
C612 C 0.02551 0.48799 0.066 0.0
H613 H 0.861 0.47189 0.08454 0.0
H614 H 0.9052 0.4596 0.07449 0.0
H615 H 0.01363 0.55629 0.07639 0.0
H616 H 0.13846 0.50467 0.07396 0.0
H617 H 0.09849 0.52307 0.06392 0.0
C618 C 0.63181 0.07039 0.4092 0.0
C619 C 0.63582 0.10203 0.41492 0.0
C620 C 0.59937 0.0454 0.40331 0.0
C621 C 0.50762 0.02816 0.39458 0.0
H622 H 0.47934 0.93655 0.41149 0.0
C623 C 0.37078 0.93808 0.41819 0.0
C624 C 0.35682 0.90093 0.41859 0.0
C625 C 0.40355 0.96022 0.41185 0.0
C626 C 0.48677 0.96153 0.40633 0.0
H627 H 0.61027 0.13377 0.41805 0.0
H628 H 0.55325 0.08964 0.40838 0.0
H629 H 0.5419 0.98141 0.41045 0.0
H630 H 0.36472 0.8575 0.41175 0.0
H631 H 0.42203 0.89625 0.40072 0.0
H632 H 0.45174 0.0087 0.39145 0.0
C633 C 0.57519 0.08425 0.4081 0.0
C634 C 0.52283 0.98739 0.4057 0.0
C635 C 0.60779 0.10944 0.4138 0.0
C636 C 0.37514 0.88613 0.41183 0.0
C637 C 0.40786 0.90826 0.40546 0.0
C638 C 0.4714 0.00227 0.39528 0.0
C639 C 0.5702 0.05135 0.40326 0.0
C640 C 0.53354 0.0216 0.40043 0.0
C641 C 0.42289 0.94558 0.40577 0.0
C642 C 0.46061 0.96935 0.40175 0.0
H643 H 0.65336 0.06442 0.40965 0.0
H644 H 0.59662 0.02066 0.3994 0.0
H645 H 0.51512 0.054 0.39017 0.0
H646 H 0.35707 0.95022 0.4232 0.0
H647 H 0.41465 0.98892 0.41242 0.0
C648 C 0.49989 0.3924 0.74527 0.0
C649 C 0.46544 0.36289 0.74697 0.0
C650 C 0.50459 0.42352 0.73902 0.0
C651 C 0.45465 0.4703 0.73576 0.0
H652 H 0.54324 0.54255 0.71921 0.0
C653 C 0.49369 0.61648 0.73956 0.0
C654 C 0.52736 0.63667 0.74577 0.0
C655 C 0.48406 0.58363 0.73346 0.0
C656 C 0.51815 0.52253 0.72367 0.0
H657 H 0.40923 0.34128 0.74226 0.0
H658 H 0.4175 0.39544 0.73113 0.0
H659 H 0.52902 0.48018 0.7195 0.0
H660 H 0.57842 0.63983 0.74946 0.0
H661 H 0.56137 0.58229 0.73917 0.0
H662 H 0.44466 0.51259 0.74069 0.0
C663 C 0.44078 0.39495 0.73496 0.0
C664 C 0.51005 0.48689 0.72387 0.0
C665 C 0.43605 0.36399 0.74136 0.0
C666 C 0.5521 0.62466 0.74492 0.0
C667 C 0.54248 0.59185 0.73884 0.0
C668 C 0.46268 0.50579 0.73552 0.0
C669 C 0.47494 0.42554 0.73422 0.0
C670 C 0.4791 0.46076 0.73057 0.0
C671 C 0.50793 0.57043 0.73347 0.0
C672 C 0.49536 0.53253 0.73012 0.0
H673 H 0.52305 0.39217 0.74941 0.0
H674 H 0.53124 0.44667 0.73878 0.0
H675 H 0.43072 0.45102 0.74112 0.0
H676 H 0.47424 0.62534 0.73987 0.0
H677 H 0.45739 0.56785 0.72926 0.0
C678 C 0.57228 0.93683 0.59068 0.0
C679 C 0.54406 0.90389 0.58613 0.0
C680 C 0.5652 0.96198 0.5967 0.0
C681 C 0.49083 0.97632 0.6087 0.0
H682 H 0.54794 0.06821 0.59098 0.0
C683 C 0.43591 0.06278 0.58836 0.0
C684 C 0.45808 0.10009 0.58788 0.0
C685 C 0.4484 0.04144 0.59405 0.0
C686 C 0.5322 0.04312 0.59635 0.0
H687 H 0.48638 0.87045 0.58503 0.0
H688 H 0.47401 0.91467 0.59492 0.0
H689 H 0.56765 0.02479 0.5903 0.0
H690 H 0.5095 0.14459 0.59404 0.0
H691 H 0.53137 0.10719 0.60386 0.0
H692 H 0.45392 0.99411 0.61375 0.0
C693 C 0.5016 0.921 0.59421 0.0
C694 C 0.54356 0.01811 0.59599 0.0
C695 C 0.50868 0.89573 0.58838 0.0
C696 C 0.49199 0.11584 0.59406 0.0
C697 C 0.5045 0.09449 0.59973 0.0
C698 C 0.47928 0.00131 0.60895 0.0
C699 C 0.52979 0.95483 0.59809 0.0
C700 C 0.52219 0.98381 0.60159 0.0
C701 C 0.48329 0.05706 0.59934 0.0
C702 C 0.49914 0.03432 0.60225 0.0
H703 H 0.59984 0.9435 0.58931 0.0
H704 H 0.58751 0.98751 0.59981 0.0
H705 H 0.4742 0.95044 0.61341 0.0
H706 H 0.40949 0.04991 0.58381 0.0
H707 H 0.43157 0.01263 0.59347 0.0
C708 C 0.38749 0.49783 0.92158 0.0
C709 C 0.35898 0.46281 0.91989 0.0
C710 C 0.41929 0.50389 0.92764 0.0
C711 C 0.4698 0.45742 0.93071 0.0
H712 H 0.53959 0.54742 0.94713 0.0
C713 C 0.61742 0.50132 0.92801 0.0
C714 C 0.63693 0.53479 0.92158 0.0
C715 C 0.58405 0.49083 0.9338 0.0
C716 C 0.52025 0.52196 0.9427 0.0
H717 H 0.33983 0.40689 0.92437 0.0
H718 H 0.39514 0.41751 0.93522 0.0
H719 H 0.4765 0.53068 0.94682 0.0
H720 H 0.63824 0.58468 0.91713 0.0
H721 H 0.57976 0.56612 0.92694 0.0
H722 H 0.51348 0.44945 0.92594 0.0
C723 C 0.3934 0.44023 0.9315 0.0
C724 C 0.48421 0.51242 0.94248 0.0
C725 C 0.36177 0.43414 0.92527 0.0
C726 C 0.62362 0.55854 0.92187 0.0
C727 C 0.59029 0.54807 0.92766 0.0
C728 C 0.50568 0.46683 0.93101 0.0
C729 C 0.42299 0.47505 0.93227 0.0
C730 C 0.4589 0.4809 0.93585 0.0
C731 C 0.56967 0.51366 0.93327 0.0
C732 C 0.53147 0.49999 0.93639 0.0
H733 H 0.38595 0.52044 0.9176 0.0
H734 H 0.44163 0.53103 0.92788 0.0
H735 H 0.45122 0.43311 0.92539 0.0
H736 H 0.62725 0.48263 0.92813 0.0
H737 H 0.56884 0.4643 0.93818 0.0
C738 C 0.05092 0.63477 0.25351 0.0
C739 C 0.08312 0.63785 0.24885 0.0
C740 C 0.02559 0.60373 0.26016 0.0
C741 C 0.00976 0.51636 0.27423 0.0
H742 H 0.91747 0.48051 0.25677 0.0
C743 C 0.923 0.37376 0.25589 0.0
C744 C 0.88576 0.35877 0.25504 0.0
C745 C 0.94414 0.40787 0.26136 0.0
C746 C 0.94264 0.49022 0.2621 0.0
H747 H 0.11504 0.61192 0.24814 0.0
H748 H 0.07041 0.55727 0.25917 0.0
H749 H 0.96157 0.54325 0.25492 0.0
H750 H 0.8411 0.36622 0.26038 0.0
H751 H 0.87819 0.42602 0.26986 0.0
H752 H 0.99135 0.4623 0.28045 0.0
C753 C 0.06487 0.57899 0.25804 0.0
C754 C 0.96806 0.52637 0.26105 0.0
C755 C 0.09032 0.61016 0.25154 0.0
C756 C 0.86982 0.37736 0.26069 0.0
C757 C 0.89099 0.41151 0.26616 0.0
C758 C 0.98433 0.48005 0.27521 0.0
C759 C 0.03183 0.57505 0.26212 0.0
C760 C 0.00252 0.53948 0.26648 0.0
C761 C 0.92842 0.42759 0.26609 0.0
C762 C 0.95121 0.46641 0.26856 0.0
H763 H 0.04502 0.65609 0.25183 0.0
H764 H 0.00064 0.60174 0.26338 0.0
H765 H 0.0358 0.52588 0.27883 0.0
H766 H 0.93602 0.35988 0.25177 0.0
H767 H 0.97295 0.41968 0.26102 0.0
C768 C 0.23461 0.7177 0.19586 0.0
C769 C 0.19952 0.70851 0.19958 0.0
C770 C 0.24068 0.69519 0.18725 0.0
C771 C 0.20139 0.63332 0.15944 0.0
H772 H 0.24636 0.58015 0.17216 0.0
C773 C 0.17471 0.50486 0.13273 0.0
C774 C 0.20146 0.49544 0.13189 0.0
C775 C 0.18002 0.53442 0.14035 0.0
C776 C 0.23442 0.59531 0.16831 0.0
H777 H 0.14343 0.6687 0.19711 0.0
H778 H 0.15409 0.63035 0.18185 0.0
H779 H 0.24663 0.62653 0.18676 0.0
H780 H 0.25508 0.51011 0.13842 0.0
H781 H 0.26473 0.56258 0.15159 0.0
H782 H 0.18909 0.60269 0.14105 0.0
C783 C 0.1768 0.65461 0.18573 0.0
C784 C 0.23454 0.62176 0.1767 0.0
C785 C 0.17078 0.67654 0.1945 0.0
C786 C 0.2339 0.5166 0.13886 0.0
C787 C 0.23935 0.54657 0.14646 0.0
C788 C 0.20175 0.60743 0.15099 0.0
C789 C 0.21172 0.66369 0.18202 0.0
C790 C 0.21707 0.64017 0.17247 0.0
C791 C 0.21243 0.55589 0.14726 0.0
C792 C 0.21711 0.58711 0.15549 0.0
H793 H 0.25728 0.74206 0.19966 0.0
H794 H 0.26784 0.70265 0.18449 0.0
H795 H 0.18802 0.64745 0.15593 0.0
H796 H 0.14921 0.48909 0.12764 0.0
H797 H 0.15823 0.53999 0.141 0.0
C798 C 0.67049 0.1924 0.46437 0.0
C799 C 0.70745 0.2089 0.46695 0.0
C800 C 0.64827 0.19909 0.47274 0.0
C801 C 0.60852 0.22925 0.4883 0.0
H802 H 0.61927 0.22414 0.52751 0.0
C803 C 0.50849 0.23352 0.52686 0.0
C804 C 0.49622 0.20694 0.53705 0.0
C805 C 0.53812 0.24058 0.51873 0.0
C806 C 0.61594 0.22573 0.51659 0.0
H807 H 0.75009 0.24625 0.48023 0.0
H808 H 0.71104 0.25786 0.49496 0.0
H809 H 0.66359 0.22398 0.51203 0.0
H810 H 0.5065 0.16797 0.547 0.0
H811 H 0.55762 0.18012 0.53288 0.0
H812 H 0.56007 0.22943 0.49282 0.0
C813 C 0.69936 0.23955 0.48644 0.0
C814 C 0.64158 0.22602 0.50772 0.0
C815 C 0.72176 0.23304 0.47796 0.0
C816 C 0.51503 0.18854 0.53922 0.0
C817 C 0.54463 0.19572 0.53118 0.0
C818 C 0.58295 0.22908 0.49717 0.0
C819 C 0.66228 0.22238 0.48399 0.0
C820 C 0.63771 0.22689 0.49345 0.0
C821 C 0.55629 0.22145 0.5207 0.0
C822 C 0.58587 0.22642 0.51141 0.0
H823 H 0.65847 0.17374 0.45596 0.0
H824 H 0.61982 0.18501 0.47064 0.0
H825 H 0.60497 0.23042 0.47737 0.0
H826 H 0.49471 0.24827 0.52494 0.0
H827 H 0.54662 0.26081 0.51082 0.0
C828 C 0.48889 0.71795 0.81186 0.0
C829 C 0.49069 0.70904 0.79818 0.0
C830 C 0.45999 0.69479 0.82016 0.0
C831 C 0.38618 0.59909 0.8213 0.0
H832 H 0.35843 0.63125 0.85371 0.0
C833 C 0.26863 0.50405 0.85653 0.0
C834 C 0.28107 0.50165 0.86956 0.0
C835 C 0.29065 0.53192 0.84763 0.0
C836 C 0.36583 0.62204 0.84462 0.0
H837 H 0.46274 0.67036 0.78214 0.0
H838 H 0.41128 0.63133 0.79618 0.0
H839 H 0.40253 0.6753 0.83799 0.0
H840 H 0.3253 0.52762 0.88382 0.0
H841 H 0.36315 0.57705 0.86842 0.0
H842 H 0.34859 0.54585 0.82788 0.0
C843 C 0.43284 0.65503 0.80087 0.0
C844 C 0.39139 0.6472 0.83566 0.0
C845 C 0.46219 0.67763 0.79272 0.0
C846 C 0.31506 0.52875 0.87382 0.0
C847 C 0.33666 0.55707 0.86505 0.0
C848 C 0.36003 0.57411 0.83007 0.0
C849 C 0.43175 0.66259 0.81485 0.0
C850 C 0.40244 0.63611 0.82395 0.0
C851 C 0.32501 0.55837 0.85177 0.0
C852 C 0.35002 0.58531 0.8419 0.0
H853 H 0.51069 0.74192 0.81635 0.0
H854 H 0.46071 0.70159 0.83086 0.0
H855 H 0.39434 0.58907 0.81269 0.0
H856 H 0.24265 0.48344 0.85295 0.0
H857 H 0.2812 0.53242 0.8374 0.0
C858 C 0.78514 0.46568 0.12789 0.0
C859 C 0.7833 0.49461 0.13354 0.0
C860 C 0.7784 0.43623 0.13595 0.0
C861 C 0.74627 0.39492 0.17081 0.0
H862 H 0.80248 0.35018 0.162 0.0
C863 C 0.7861 0.31577 0.20821 0.0
C864 C 0.77974 0.28212 0.20371 0.0
C865 C 0.77962 0.33771 0.19956 0.0
C866 C 0.78628 0.36212 0.16448 0.0
H867 H 0.77233 0.51527 0.15196 0.0
H868 H 0.76268 0.46497 0.16634 0.0
H869 H 0.80543 0.3967 0.14717 0.0
H870 H 0.76074 0.24467 0.18678 0.0
H871 H 0.75068 0.28385 0.17142 0.0
H872 H 0.72943 0.36161 0.18876 0.0
C873 C 0.76797 0.4641 0.15555 0.0
C874 C 0.78771 0.38875 0.15592 0.0
C875 C 0.77369 0.49316 0.14734 0.0
C876 C 0.76569 0.27037 0.19053 0.0
C877 C 0.76007 0.29277 0.18174 0.0
C878 C 0.74558 0.36883 0.17956 0.0
C879 C 0.77082 0.43539 0.15003 0.0
C880 C 0.76782 0.40574 0.15895 0.0
C881 C 0.76744 0.32681 0.18614 0.0
C882 C 0.76564 0.35229 0.17646 0.0
H883 H 0.79204 0.46593 0.1172 0.0
H884 H 0.77965 0.41434 0.1311 0.0
H885 H 0.72999 0.40663 0.17343 0.0
H886 H 0.79686 0.32548 0.21833 0.0
H887 H 0.78573 0.36393 0.20315 0.0
C888 C 0.31501 0.82224 0.4752 0.0
C889 C 0.28375 0.79352 0.46967 0.0
C890 C 0.33662 0.81608 0.48409 0.0
C891 C 0.37038 0.75875 0.49248 0.0
H892 H 0.38845 0.8023 0.52849 0.0
C893 C 0.47649 0.75976 0.52983 0.0
C894 C 0.49729 0.79205 0.53695 0.0
C895 C 0.44624 0.75401 0.52237 0.0
C896 C 0.38397 0.79015 0.51844 0.0
H897 H 0.25095 0.73572 0.46897 0.0
H898 H 0.28985 0.72493 0.48434 0.0
H899 H 0.34343 0.80332 0.51376 0.0
H900 H 0.50255 0.84368 0.54165 0.0
H901 H 0.45118 0.83416 0.52853 0.0
H902 H 0.41253 0.74757 0.49677 0.0
C903 C 0.29701 0.75216 0.48184 0.0
C904 C 0.35793 0.79049 0.51009 0.0
C905 C 0.27478 0.75835 0.47314 0.0
C906 C 0.48714 0.81832 0.53642 0.0
C907 C 0.45729 0.81271 0.52895 0.0
C908 C 0.39697 0.7589 0.50079 0.0
C909 C 0.32792 0.78106 0.48746 0.0
C910 C 0.35146 0.77552 0.49693 0.0
C911 C 0.43624 0.78047 0.52186 0.0
C912 C 0.40481 0.77556 0.51373 0.0
H913 H 0.32261 0.84964 0.47278 0.0
H914 H 0.36042 0.83876 0.48826 0.0
H915 H 0.36593 0.74724 0.48232 0.0
H916 H 0.4835 0.73894 0.53003 0.0
H917 H 0.43058 0.72878 0.5171 0.0
C918 C 0.67656 0.47028 0.87495 0.0
C919 C 0.71129 0.49628 0.87093 0.0
C920 C 0.65495 0.4418 0.86625 0.0
C921 C 0.63388 0.42324 0.83121 0.0
H922 H 0.58935 0.32222 0.83978 0.0
C923 C 0.53407 0.31939 0.79342 0.0
C924 C 0.50488 0.28833 0.79876 0.0
C925 C 0.56283 0.34194 0.80181 0.0
C926 C 0.60106 0.35028 0.83726 0.0
H927 H 0.75093 0.51236 0.8548 0.0
H928 H 0.71242 0.46317 0.83934 0.0
H929 H 0.63257 0.36644 0.85568 0.0
H930 H 0.48299 0.25597 0.81695 0.0
H931 H 0.53194 0.29627 0.83187 0.0
H932 H 0.60105 0.40814 0.81342 0.0
C933 C 0.70238 0.46463 0.84935 0.0
C934 C 0.62611 0.37552 0.84633 0.0
C935 C 0.72436 0.49263 0.85819 0.0
C936 C 0.50537 0.27967 0.81257 0.0
C937 C 0.53366 0.30282 0.8211 0.0
C938 C 0.60824 0.39819 0.82232 0.0
C939 C 0.66737 0.43927 0.85325 0.0
C940 C 0.64266 0.41218 0.84337 0.0
C941 C 0.56261 0.33471 0.8159 0.0
C942 C 0.59128 0.36123 0.82519 0.0
H943 H 0.66581 0.47236 0.88472 0.0
H944 H 0.62794 0.42266 0.86942 0.0
H945 H 0.64594 0.45146 0.82883 0.0
H946 H 0.53451 0.32644 0.78274 0.0
H947 H 0.58498 0.36536 0.79721 0.0
C948 C 0.17268 0.36741 0.94985 0.0
C949 C 0.1838 0.39991 0.94306 0.0
C950 C 0.17265 0.36618 0.96415 0.0
C951 C 0.1807 0.41784 0.9957 0.0
H952 H 0.22566 0.36654 0.01051 0.0
C953 C 0.22562 0.43642 0.05162 0.0
C954 C 0.21505 0.40491 0.05904 0.0
C955 C 0.22416 0.43566 0.03734 0.0
C956 C 0.21284 0.38076 0.00655 0.0
H957 H 0.20226 0.45622 0.94561 0.0
H958 H 0.20189 0.45427 0.97063 0.0
H959 H 0.21328 0.36367 0.98601 0.0
H960 H 0.19597 0.34823 0.05761 0.0
H961 H 0.19375 0.34671 0.03253 0.0
H962 H 0.18043 0.4351 0.01621 0.0
C963 C 0.19275 0.42957 0.96501 0.0
C964 C 0.20552 0.37896 0.99252 0.0
C965 C 0.19279 0.43074 0.9507 0.0
C966 C 0.20512 0.37298 0.05201 0.0
C967 C 0.20361 0.37214 0.03768 0.0
C968 C 0.18804 0.41967 0.00971 0.0
C969 C 0.18396 0.39754 0.97189 0.0
C970 C 0.18951 0.39762 0.98692 0.0
C971 C 0.21173 0.40323 0.03023 0.0
C972 C 0.20445 0.40139 0.01528 0.0
H973 H 0.16631 0.34349 0.94408 0.0
H974 H 0.1652 0.34099 0.96915 0.0
H975 H 0.16796 0.43216 0.99176 0.0
H976 H 0.23266 0.46116 0.05691 0.0
H977 H 0.23124 0.46018 0.03189 0.0
C978 C 0.76636 0.20517 0.28538 0.0
C979 C 0.78067 0.18768 0.27782 0.0
C980 C 0.76862 0.20638 0.29965 0.0
C981 C 0.7897 0.16964 0.33028 0.0
H982 H 0.82241 0.26482 0.34474 0.0
C983 C 0.8283 0.20188 0.38699 0.0
C984 C 0.81222 0.2191 0.39358 0.0
C985 C 0.82903 0.20072 0.37268 0.0
C986 C 0.81315 0.23806 0.34088 0.0
H987 H 0.80724 0.1566 0.27899 0.0
H988 H 0.81095 0.15824 0.30405 0.0
H989 H 0.80976 0.25342 0.32037 0.0
H990 H 0.78553 0.24966 0.39069 0.0
H991 H 0.78726 0.24834 0.36571 0.0
H992 H 0.79283 0.15426 0.35084 0.0
C993 C 0.79757 0.17066 0.29902 0.0
C994 C 0.80567 0.23144 0.32693 0.0
C995 C 0.79522 0.16943 0.28471 0.0
C996 C 0.79892 0.23707 0.38576 0.0
C997 C 0.79974 0.23606 0.37147 0.0
C998 C 0.79716 0.17627 0.34426 0.0
C999 C 0.78562 0.19044 0.3066 0.0
C1000 C 0.79347 0.19707 0.32148 0.0
C1001 C 0.81354 0.21668 0.36477 0.0
C1002 C 0.80868 0.2105 0.34974 0.0
H1003 H 0.75567 0.21999 0.2802 0.0
H1004 H 0.75852 0.22122 0.3052 0.0
H1005 H 0.78023 0.14286 0.32641 0.0
H1006 H 0.83794 0.18716 0.3929 0.0
H1007 H 0.84027 0.18599 0.36783 0.0
C1008 C 0.55673 0.7715 0.61724 0.0
C1009 C 0.58809 0.78153 0.60979 0.0
C1010 C 0.55768 0.77348 0.63151 0.0
C1011 C 0.61299 0.78547 0.66225 0.0
H1012 H 0.56127 0.83007 0.67701 0.0
C1013 C 0.62584 0.82523 0.71894 0.0
C1014 C 0.59308 0.81299 0.72568 0.0
C1015 C 0.62729 0.8259 0.70463 0.0
C1016 C 0.57573 0.81747 0.67306 0.0
H1017 H 0.6447 0.80026 0.61117 0.0
H1018 H 0.64656 0.80349 0.63623 0.0
H1019 H 0.5583 0.81741 0.65257 0.0
H1020 H 0.5366 0.79349 0.72309 0.0
H1021 H 0.53898 0.79514 0.69807 0.0
H1022 H 0.63026 0.78539 0.68278 0.0
C1023 C 0.62108 0.79361 0.63111 0.0
C1024 C 0.57386 0.80998 0.65907 0.0
C1025 C 0.62006 0.79153 0.61679 0.0
C1026 C 0.56225 0.8038 0.71803 0.0
C1027 C 0.56366 0.80456 0.70373 0.0
C1028 C 0.61487 0.79298 0.67626 0.0
C1029 C 0.59015 0.78595 0.63858 0.0
C1030 C 0.59219 0.79359 0.65351 0.0
C1031 C 0.59594 0.81423 0.69687 0.0
C1032 C 0.59607 0.80887 0.68184 0.0
H1033 H 0.53197 0.76439 0.61196 0.0
H1034 H 0.53326 0.76672 0.63698 0.0
H1035 H 0.62724 0.77265 0.65831 0.0
H1036 H 0.64977 0.83176 0.72471 0.0
H1037 H 0.65264 0.834 0.69965 0.0
C1038 C 0.82028 0.63046 0.95138 0.0
C1039 C 0.80804 0.5981 0.94434 0.0
C1040 C 0.8198 0.63091 0.9657 0.0
C1041 C 0.80789 0.57618 0.99675 0.0
H1042 H 0.76725 0.63087 0.0122 0.0
C1043 C 0.76028 0.5544 0.05221 0.0
C1044 C 0.77314 0.58545 0.06016 0.0
C1045 C 0.76204 0.55666 0.03795 0.0
C1046 C 0.77883 0.61566 0.00805 0.0
H1047 H 0.78708 0.54123 0.94642 0.0
H1048 H 0.78643 0.54176 0.97144 0.0
H1049 H 0.78044 0.63497 0.98772 0.0
H1050 H 0.79617 0.64288 0.0597 0.0
H1051 H 0.79893 0.64702 0.03464 0.0
H1052 H 0.80596 0.5566 0.01702 0.0
C1053 C 0.79686 0.56693 0.96603 0.0
C1054 C 0.78663 0.61816 0.99404 0.0
C1055 C 0.79737 0.56655 0.95172 0.0
C1056 C 0.78536 0.61855 0.05369 0.0
C1057 C 0.78718 0.62087 0.03938 0.0
C1058 C 0.79999 0.57359 0.01071 0.0
C1059 C 0.80687 0.59892 0.97317 0.0
C1060 C 0.80104 0.59825 0.98821 0.0
C1061 C 0.77701 0.59009 0.0314 0.0
C1062 C 0.78504 0.59302 0.0165 0.0
H1063 H 0.82802 0.65497 0.9458 0.0
H1064 H 0.82824 0.65606 0.97089 0.0
H1065 H 0.81944 0.5609 0.99264 0.0
H1066 H 0.75133 0.5287 0.05705 0.0
H1067 H 0.75333 0.5324 0.03207 0.0
C1068 C 0.23195 0.7899 0.3849 0.0
C1069 C 0.20208 0.78507 0.39238 0.0
C1070 C 0.23135 0.78944 0.37064 0.0
C1071 C 0.17445 0.76055 0.34036 0.0
H1072 H 0.25561 0.84134 0.32296 0.0
C1073 C 0.20189 0.76228 0.28295 0.0
C1074 C 0.20697 0.79247 0.27565 0.0
C1075 C 0.20264 0.76254 0.29721 0.0
C1076 C 0.23275 0.81877 0.32769 0.0
H1077 H 0.14746 0.77396 0.39097 0.0
H1078 H 0.14591 0.77207 0.36578 0.0
H1079 H 0.25199 0.83722 0.34797 0.0
H1080 H 0.21886 0.84731 0.27736 0.0
H1081 H 0.22121 0.84824 0.30255 0.0
H1082 H 0.15545 0.74187 0.32007 0.0
C1083 C 0.16991 0.77657 0.37103 0.0
C1084 C 0.23077 0.81625 0.34196 0.0
C1085 C 0.17065 0.77737 0.38539 0.0
C1086 C 0.2152 0.82385 0.28281 0.0
C1087 C 0.21629 0.82425 0.29716 0.0
C1088 C 0.17668 0.76283 0.32608 0.0
C1089 C 0.20071 0.78379 0.36355 0.0
C1090 C 0.20176 0.78696 0.34843 0.0
C1091 C 0.20883 0.79316 0.30447 0.0
C1092 C 0.206 0.79179 0.31961 0.0
H1093 H 0.25639 0.79558 0.39011 0.0
H1094 H 0.25517 0.79431 0.36514 0.0
H1095 H 0.15185 0.73772 0.34508 0.0
H1096 H 0.1958 0.73786 0.27761 0.0
H1097 H 0.19757 0.73848 0.30258 0.0
C1098 C 0.37811 0.16738 0.71896 0.0
C1099 C 0.4115 0.18803 0.72524 0.0
C1100 C 0.37522 0.16683 0.70467 0.0
C1101 C 0.42195 0.22617 0.67569 0.0
H1102 H 0.35856 0.14505 0.65315 0.0
C1103 C 0.4264 0.22848 0.61664 0.0
C1104 C 0.39446 0.20765 0.60949 0.0
C1105 C 0.42662 0.22825 0.63095 0.0
C1106 C 0.37593 0.16811 0.65935 0.0
H1107 H 0.46817 0.22254 0.72181 0.0
H1108 H 0.4635 0.22071 0.69685 0.0
H1109 H 0.36355 0.13643 0.6776 0.0
H1110 H 0.3375 0.17169 0.61135 0.0
H1111 H 0.33746 0.17199 0.63644 0.0
H1112 H 0.43435 0.2579 0.65751 0.0
C1113 C 0.43944 0.2054 0.70286 0.0
C1114 C 0.37894 0.16308 0.67333 0.0
C1115 C 0.44225 0.20597 0.71711 0.0
C1116 C 0.36232 0.1884 0.61675 0.0
C1117 C 0.36247 0.18813 0.63107 0.0
C1118 C 0.41887 0.23122 0.66174 0.0
C1119 C 0.40574 0.18714 0.69651 0.0
C1120 C 0.4023 0.192 0.68163 0.0
C1121 C 0.39483 0.20699 0.63833 0.0
C1122 C 0.39605 0.20222 0.65337 0.0
H1123 H 0.35401 0.15407 0.72511 0.0
H1124 H 0.34888 0.1526 0.70008 0.0
H1125 H 0.43951 0.2492 0.68187 0.0
H1126 H 0.45155 0.24286 0.61118 0.0
H1127 H 0.45206 0.24283 0.63619 0.0
C1128 C 0.92571 0.23648 0.20919 0.0
C1129 C 0.88909 0.21515 0.2062 0.0
C1130 C 0.95145 0.23684 0.20043 0.0
C1131 C 0.96273 0.23035 0.16433 0.0
H1132 H 0.05452 0.24167 0.17469 0.0
C1133 C 0.07679 0.29181 0.12601 0.0
C1134 C 0.10948 0.31846 0.13138 0.0
C1135 C 0.05027 0.26692 0.13467 0.0
C1136 C 0.02908 0.23869 0.1716 0.0
H1137 H 0.85072 0.17562 0.19217 0.0
H1138 H 0.89587 0.17684 0.17669 0.0
H1139 H 0.00617 0.22003 0.19152 0.0
H1140 H 0.14123 0.33876 0.1498 0.0
H1141 H 0.09445 0.29677 0.16507 0.0
H1142 H 0.98576 0.25155 0.14489 0.0
C1143 C 0.90452 0.19319 0.18585 0.0
C1144 C 0.00135 0.22606 0.18123 0.0
C1145 C 0.87872 0.19247 0.19473 0.0
C1146 C 0.11624 0.3183 0.14542 0.0
C1147 C 0.08933 0.29402 0.15416 0.0
C1148 C 0.99049 0.24347 0.1548 0.0
C1149 C 0.94112 0.21618 0.18842 0.0
C1150 C 0.96823 0.22272 0.17778 0.0
C1151 C 0.05541 0.26896 0.14896 0.0
C1152 C 0.02444 0.24887 0.1584 0.0
H1153 H 0.93457 0.254 0.21803 0.0
H1154 H 0.97944 0.25505 0.20261 0.0
H1155 H 0.93767 0.22857 0.16142 0.0
H1156 H 0.07117 0.29116 0.11517 0.0
H1157 H 0.02505 0.24726 0.1302 0.0
C1158 C 0.67952 0.87009 0.52363 0.0
C1159 C 0.67445 0.88245 0.53628 0.0
C1160 C 0.70316 0.89431 0.51395 0.0
C1161 C 0.77331 0.98917 0.50802 0.0
H1162 H 0.71815 0.97938 0.47538 0.0
C1163 C 0.793 0.10955 0.47615 0.0
C1164 C 0.78095 0.10425 0.46255 0.0
C1165 C 0.79032 0.08095 0.48383 0.0
C1166 C 0.73469 0.98238 0.48417 0.0
H1167 H 0.69286 0.92915 0.54929 0.0
H1168 H 0.73407 0.97118 0.53249 0.0
H1169 H 0.6963 0.9306 0.49157 0.0
H1170 H 0.76025 0.06621 0.44584 0.0
H1171 H 0.75745 0.01687 0.45894 0.0
H1172 H 0.8113 0.04147 0.50076 0.0
C1173 C 0.71977 0.94295 0.52997 0.0
C1174 C 0.72199 0.9542 0.49351 0.0
C1175 C 0.6959 0.91888 0.53956 0.0
C1176 C 0.76916 0.0708 0.4564 0.0
C1177 C 0.76732 0.04248 0.46396 0.0
C1178 C 0.78633 0.0173 0.49856 0.0
C1179 C 0.72246 0.93116 0.51685 0.0
C1180 C 0.74044 0.95776 0.50576 0.0
C1181 C 0.7762 0.04666 0.47797 0.0
C1182 C 0.76648 0.01478 0.48675 0.0
H1183 H 0.66346 0.84215 0.52083 0.0
H1184 H 0.70496 0.88448 0.50394 0.0
H1185 H 0.78824 0.99249 0.51734 0.0
H1186 H 0.80213 0.13511 0.48113 0.0
H1187 H 0.79718 0.08533 0.49459 0.0
C1188 C 0.69004 0.76579 0.7902 0.0
C1189 C 0.66791 0.77741 0.79602 0.0
C1190 C 0.71606 0.76404 0.7981 0.0
C1191 C 0.75717 0.78268 0.83334 0.0
H1192 H 0.75801 0.69476 0.82616 0.0
C1193 C 0.7637 0.69002 0.87387 0.0
C1194 C 0.78254 0.67209 0.87089 0.0
C1195 C 0.76279 0.71384 0.86443 0.0
C1196 C 0.75883 0.71985 0.82816 0.0
H1197 H 0.65662 0.79809 0.81438 0.0
H1198 H 0.70031 0.79299 0.82846 0.0
H1199 H 0.73139 0.7161 0.80962 0.0
H1200 H 0.81735 0.66697 0.85616 0.0
H1201 H 0.81494 0.70803 0.83948 0.0
H1202 H 0.78197 0.78413 0.85257 0.0
C1203 C 0.6988 0.78639 0.8177 0.0
C1204 C 0.7436 0.7323 0.81862 0.0
C1205 C 0.67348 0.78911 0.80966 0.0
C1206 C 0.80252 0.68033 0.85872 0.0
C1207 C 0.80113 0.70375 0.84917 0.0
C1208 C 0.77183 0.76976 0.84302 0.0
C1209 C 0.71967 0.77269 0.81214 0.0
C1210 C 0.74155 0.76332 0.82124 0.0
C1211 C 0.7803 0.71978 0.85177 0.0
C1212 C 0.77188 0.7377 0.84066 0.0
H1213 H 0.6866 0.75716 0.77961 0.0
H1214 H 0.73237 0.75455 0.79329 0.0
H1215 H 0.75696 0.80712 0.83559 0.0
H1216 H 0.74831 0.68444 0.88322 0.0
H1217 H 0.74629 0.7256 0.86665 0.0
C1218 C 0.07623 0.78343 0.20489 0.0
C1219 C 0.11242 0.79676 0.20162 0.0
C1220 C 0.05251 0.78299 0.19509 0.0
C1221 C 0.04119 0.76849 0.15885 0.0
H1222 H 0.95422 0.77198 0.16484 0.0
C1223 C 0.92408 0.6938 0.12228 0.0
C1224 C 0.89054 0.67348 0.12854 0.0
C1225 C 0.95263 0.72108 0.12947 0.0
C1226 C 0.9783 0.77075 0.163 0.0
H1227 H 0.15291 0.82331 0.18597 0.0
H1228 H 0.11122 0.82214 0.16872 0.0
H1229 H 0.00341 0.80054 0.18124 0.0
H1230 H 0.85985 0.66691 0.14694 0.0
H1231 H 0.91003 0.71316 0.15982 0.0
H1232 H 0.01571 0.73649 0.14134 0.0
C1233 C 0.10126 0.81195 0.17888 0.0
C1234 C 0.00657 0.78739 0.17234 0.0
C1235 C 0.12514 0.81279 0.18877 0.0
C1236 C 0.88547 0.68226 0.14187 0.0
C1237 C 0.9143 0.70901 0.14922 0.0
C1238 C 0.01289 0.75152 0.14964 0.0
C1239 C 0.06445 0.79553 0.18177 0.0
C1240 C 0.03788 0.78547 0.17057 0.0
C1241 C 0.9486 0.72799 0.14326 0.0
C1242 C 0.98058 0.75141 0.1518 0.0
H1243 H 0.06574 0.77119 0.21477 0.0
H1244 H 0.02433 0.77001 0.19763 0.0
H1245 H 0.06468 0.76595 0.15731 0.0
H1246 H 0.92851 0.68793 0.11191 0.0
H1247 H 0.97825 0.73581 0.12436 0.0
C1248 C 0.29962 0.06758 0.54042 0.0
C1249 C 0.3175 0.10427 0.53726 0.0
C1250 C 0.27355 0.04271 0.53163 0.0
C1251 C 0.25652 0.03167 0.4954 0.0
H1252 H 0.17411 0.94156 0.50613 0.0
C1253 C 0.20347 0.91599 0.45815 0.0
C1254 C 0.19803 0.88394 0.46397 0.0
C1255 C 0.20421 0.94276 0.4664 0.0
C1256 C 0.19703 0.96656 0.50294 0.0
H1257 H 0.32023 0.14388 0.52289 0.0
H1258 H 0.27493 0.10019 0.50738 0.0
H1259 H 0.20185 0.99054 0.52265 0.0
H1260 H 0.18636 0.85336 0.4827 0.0
H1261 H 0.18944 0.90059 0.49728 0.0
H1262 H 0.25398 0.00748 0.47616 0.0
C1263 C 0.28122 0.09079 0.51668 0.0
C1264 C 0.21277 0.99465 0.51239 0.0
C1265 C 0.30709 0.11577 0.52556 0.0
C1266 C 0.19038 0.87782 0.47799 0.0
C1267 C 0.19207 0.905 0.48633 0.0
C1268 C 0.24115 0.00357 0.48603 0.0
C1269 C 0.26497 0.05394 0.51943 0.0
C1270 C 0.24342 0.02707 0.50884 0.0
C1271 C 0.2008 0.93851 0.48072 0.0
C1272 C 0.21195 0.97016 0.4898 0.0
H1273 H 0.30673 0.05786 0.54943 0.0
H1274 H 0.26179 0.01452 0.53398 0.0
H1275 H 0.2804 0.05612 0.4924 0.0
H1276 H 0.20908 0.9211 0.44731 0.0
H1277 H 0.20971 0.96765 0.46163 0.0
C1278 C 0.2342 0.30991 0.87334 0.0
C1279 C 0.21433 0.32668 0.8702 0.0
C1280 C 0.23607 0.28631 0.86405 0.0
C1281 C 0.2403 0.27869 0.82785 0.0
H1282 H 0.24158 0.19134 0.83577 0.0
C1283 C 0.30647 0.22976 0.78984 0.0
C1284 C 0.32841 0.21784 0.79559 0.0
C1285 C 0.28107 0.23233 0.79786 0.0
C1286 C 0.24157 0.21582 0.83339 0.0
H1287 H 0.17894 0.33009 0.85528 0.0
H1288 H 0.18307 0.28948 0.83886 0.0
H1289 H 0.2173 0.21538 0.85265 0.0
H1290 H 0.33997 0.19746 0.81396 0.0
H1291 H 0.29735 0.20392 0.82823 0.0
H1292 H 0.26718 0.28143 0.80926 0.0
C1293 C 0.19689 0.29446 0.84857 0.0
C1294 C 0.22735 0.22934 0.84302 0.0
C1295 C 0.19451 0.31761 0.85798 0.0
C1296 C 0.32319 0.20659 0.80929 0.0
C1297 C 0.29851 0.21014 0.81744 0.0
C1298 C 0.25514 0.26567 0.81837 0.0
C1299 C 0.21855 0.27945 0.85136 0.0
C1300 C 0.22735 0.26134 0.84044 0.0
C1301 C 0.27794 0.22425 0.81195 0.0
C1302 C 0.25687 0.23453 0.82113 0.0
H1303 H 0.24953 0.31616 0.88273 0.0
H1304 H 0.25318 0.27532 0.8664 0.0
H1305 H 0.24115 0.30373 0.8257 0.0
H1306 H 0.3097 0.23812 0.77922 0.0
H1307 H 0.26493 0.24206 0.7931 0.0
loop_
_geom_bond_atom_site_label_1
_geom_bond_atom_site_label_2
_geom_bond_distance
_geom_bond_site_symmetry_2
_ccdc_geom_bond_type
Co0 O3 1.970 . S
Co0 N17 1.989 . S
Co0 O25 1.967 . S
Co0 O32 1.920 . S
Co1 O4 1.966 . S
Co1 N10 2.022 . S
Co1 N18 1.993 . S
Co1 O26 1.941 . S
C2 O3 1.258 . S
C2 O4 1.263 . S
O3 Co0 1.970 . S
O3 C2 1.258 . S
O4 Co1 1.966 . S
O4 C2 1.263 . S
C5 O6 1.235 . S
C5 O32 1.289 . S
O6 C5 1.235 . S
C7 C9 1.400 . S
C7 N10 1.351 . S
C7 C12 1.501 . S
C8 C9 1.387 . S
C8 N11 1.341 . S
C9 C7 1.400 . S
C9 C8 1.387 . S
N10 Co1 2.022 . S
N10 C7 1.351 . S
N10 N11 1.365 . S
N11 C8 1.341 . S
N11 N10 1.365 . S
N11 H31 0.862 . S
C12 C7 1.501 . S
C12 H13 0.961 . S
C12 H14 0.961 . S
C12 H15 0.960 . S
H13 C12 0.961 . S
H14 C12 0.961 . S
H15 C12 0.960 . S
C16 N17 1.342 . S
C16 C20 1.401 . S
C16 C21 1.499 . S
N17 Co0 1.989 . S
N17 C16 1.342 . S
N17 N18 1.388 . S
N18 Co1 1.993 . S
N18 N17 1.388 . S
N18 C19 1.346 . S
C19 N18 1.346 . S
C19 C20 1.396 . S
C19 C29 1.510 . S
C20 C16 1.401 . S
C20 C19 1.396 . S
C21 C16 1.499 . S
C21 H22 0.959 . S
C21 H23 0.960 . S
C21 H24 0.961 . S
H22 C21 0.959 . S
H23 C21 0.960 . S
H24 C21 0.961 . S
O25 Co0 1.967 . S
O25 C33 1.258 . S
O26 Co1 1.941 . S
O26 C33 1.266 . S
H27 C29 0.959 . S
H28 C29 0.961 . S
C29 C19 1.510 . S
C29 H27 0.959 . S
C29 H28 0.961 . S
C29 H30 0.960 . S
H30 C29 0.960 . S
H31 N11 0.862 . S
O32 Co0 1.920 . S
O32 C5 1.289 . S
C33 O25 1.258 . S
C33 O26 1.266 . S
Co34 O37 1.970 . S
Co34 N51 1.989 . S
Co34 O59 1.967 . S
Co34 O66 1.920 . S
Co35 O38 1.966 . S
Co35 N44 2.022 . S
Co35 N52 1.993 . S
Co35 O60 1.941 . S
C36 O37 1.258 . S
C36 O38 1.263 . S
O37 Co34 1.970 . S
O37 C36 1.258 . S
O38 Co35 1.966 . S
O38 C36 1.263 . S
C39 O40 1.235 . S
C39 O66 1.289 . S
O40 C39 1.235 . S
C41 C43 1.400 . S
C41 N44 1.351 . S
C41 C46 1.501 . S
C42 C43 1.387 . S
C42 N45 1.341 . S
C43 C41 1.400 . S
C43 C42 1.387 . S
N44 Co35 2.022 . S
N44 C41 1.351 . S
N44 N45 1.365 . S
N45 C42 1.341 . S
N45 N44 1.365 . S
N45 H65 0.862 . S
C46 C41 1.501 . S
C46 H47 0.961 . S
C46 H48 0.961 . S
C46 H49 0.960 . S
H47 C46 0.961 . S
H48 C46 0.961 . S
H49 C46 0.960 . S
C50 N51 1.342 . S
C50 C54 1.401 . S
C50 C55 1.499 . S
N51 Co34 1.989 . S
N51 C50 1.342 . S
N51 N52 1.388 . S
N52 Co35 1.993 . S
N52 N51 1.388 . S
N52 C53 1.346 . S
C53 N52 1.346 . S
C53 C54 1.396 . S
C53 C63 1.510 . S
C54 C50 1.401 . S
C54 C53 1.396 . S
C55 C50 1.499 . S
C55 H56 0.959 . S
C55 H57 0.960 . S
C55 H58 0.961 . S
H56 C55 0.959 . S
H57 C55 0.960 . S
H58 C55 0.961 . S
O59 Co34 1.967 . S
O59 C67 1.258 . S
O60 Co35 1.941 . S
O60 C67 1.266 . S
H61 C63 0.959 . S
H62 C63 0.961 . S
C63 C53 1.510 . S
C63 H61 0.959 . S
C63 H62 0.961 . S
C63 H64 0.960 . S
H64 C63 0.960 . S
H65 N45 0.862 . S
O66 Co34 1.920 . S
O66 C39 1.289 . S
C67 O59 1.258 . S
C67 O60 1.266 . S
Co68 O71 1.970 . S
Co68 N85 1.989 . S
Co68 O93 1.967 . S
Co68 O100 1.920 . S
Co69 O72 1.966 . S
Co69 N78 2.022 . S
Co69 N86 1.993 . S
Co69 O94 1.941 . S
C70 O71 1.258 . S
C70 O72 1.263 . S
O71 Co68 1.970 . S
O71 C70 1.258 . S
O72 Co69 1.966 . S
O72 C70 1.263 . S
C73 O74 1.235 . S
C73 O100 1.289 . S
O74 C73 1.235 . S
C75 C77 1.400 . S
C75 N78 1.351 . S
C75 C80 1.501 . S
C76 C77 1.387 . S
C76 N79 1.341 . S
C77 C75 1.400 . S
C77 C76 1.387 . S
N78 Co69 2.022 . S
N78 C75 1.351 . S
N78 N79 1.365 . S
N79 C76 1.341 . S
N79 N78 1.365 . S
N79 H99 0.862 . S
C80 C75 1.501 . S
C80 H81 0.961 . S
C80 H82 0.961 . S
C80 H83 0.960 . S
H81 C80 0.961 . S
H82 C80 0.961 . S
H83 C80 0.960 . S
C84 N85 1.342 . S
C84 C88 1.401 . S
C84 C89 1.499 . S
N85 Co68 1.989 . S
N85 C84 1.342 . S
N85 N86 1.388 . S
N86 Co69 1.993 . S
N86 N85 1.388 . S
N86 C87 1.346 . S
C87 N86 1.346 . S
C87 C88 1.396 . S
C87 C97 1.510 . S
C88 C84 1.401 . S
C88 C87 1.396 . S
C89 C84 1.499 . S
C89 H90 0.959 . S
C89 H91 0.960 . S
C89 H92 0.961 . S
H90 C89 0.959 . S
H91 C89 0.960 . S
H92 C89 0.961 . S
O93 Co68 1.967 . S
O93 C101 1.258 . S
O94 Co69 1.941 . S
O94 C101 1.266 . S
H95 C97 0.959 . S
H96 C97 0.961 . S
C97 C87 1.510 . S
C97 H95 0.959 . S
C97 H96 0.961 . S
C97 H98 0.960 . S
H98 C97 0.960 . S
H99 N79 0.862 . S
O100 Co68 1.920 . S
O100 C73 1.289 . S
C101 O93 1.258 . S
C101 O94 1.266 . S
Co102 O105 1.970 . S
Co102 N119 1.989 . S
Co102 O127 1.967 . S
Co102 O134 1.920 . S
Co103 O106 1.966 . S
Co103 N112 2.022 . S
Co103 N120 1.993 . S
Co103 O128 1.941 . S
C104 O105 1.258 . S
C104 O106 1.263 . S
O105 Co102 1.970 . S
O105 C104 1.258 . S
O106 Co103 1.966 . S
O106 C104 1.263 . S
C107 O108 1.235 . S
C107 O134 1.289 . S
O108 C107 1.235 . S
C109 C111 1.400 . S
C109 N112 1.351 . S
C109 C114 1.501 . S
C110 C111 1.387 . S
C110 N113 1.341 . S
C111 C109 1.400 . S
C111 C110 1.387 . S
N112 Co103 2.022 . S
N112 C109 1.351 . S
N112 N113 1.365 . S
N113 C110 1.341 . S
N113 N112 1.365 . S
N113 H133 0.862 . S
C114 C109 1.501 . S
C114 H115 0.961 . S
C114 H116 0.961 . S
C114 H117 0.960 . S
H115 C114 0.961 . S
H116 C114 0.961 . S
H117 C114 0.960 . S
C118 N119 1.342 . S
C118 C122 1.401 . S
C118 C123 1.499 . S
N119 Co102 1.989 . S
N119 C118 1.342 . S
N119 N120 1.388 . S
N120 Co103 1.993 . S
N120 N119 1.388 . S
N120 C121 1.346 . S
C121 N120 1.346 . S
C121 C122 1.396 . S
C121 C131 1.510 . S
C122 C118 1.401 . S
C122 C121 1.396 . S
C123 C118 1.499 . S
C123 H124 0.959 . S
C123 H125 0.960 . S
C123 H126 0.961 . S
H124 C123 0.959 . S
H125 C123 0.960 . S
H126 C123 0.961 . S
O127 Co102 1.967 . S
O127 C135 1.258 . S
O128 Co103 1.941 . S
O128 C135 1.266 . S
H129 C131 0.959 . S
H130 C131 0.961 . S
C131 C121 1.510 . S
C131 H129 0.959 . S
C131 H130 0.961 . S
C131 H132 0.960 . S
H132 C131 0.960 . S
H133 N113 0.862 . S
O134 Co102 1.920 . S
O134 C107 1.289 . S
C135 O127 1.258 . S
C135 O128 1.266 . S
Co136 O139 1.970 . S
Co136 N153 1.989 . S
Co136 O161 1.967 . S
Co136 O168 1.920 . S
Co137 O140 1.966 . S
Co137 N146 2.022 . S
Co137 N154 1.993 . S
Co137 O162 1.941 . S
C138 O139 1.258 . S
C138 O140 1.263 . S
O139 Co136 1.970 . S
O139 C138 1.258 . S
O140 Co137 1.966 . S
O140 C138 1.263 . S
C141 O142 1.235 . S
C141 O168 1.289 . S
O142 C141 1.235 . S
C143 C145 1.400 . S
C143 N146 1.351 . S
C143 C148 1.501 . S
C144 C145 1.387 . S
C144 N147 1.341 . S
C145 C143 1.400 . S
C145 C144 1.387 . S
N146 Co137 2.022 . S
N146 C143 1.351 . S
N146 N147 1.365 . S
N147 C144 1.341 . S
N147 N146 1.365 . S
N147 H167 0.862 . S
C148 C143 1.501 . S
C148 H149 0.961 . S
C148 H150 0.961 . S
C148 H151 0.960 . S
H149 C148 0.961 . S
H150 C148 0.961 . S
H151 C148 0.960 . S
C152 N153 1.342 . S
C152 C156 1.401 . S
C152 C157 1.499 . S
N153 Co136 1.989 . S
N153 C152 1.342 . S
N153 N154 1.388 . S
N154 Co137 1.993 . S
N154 N153 1.388 . S
N154 C155 1.346 . S
C155 N154 1.346 . S
C155 C156 1.396 . S
C155 C165 1.510 . S
C156 C152 1.401 . S
C156 C155 1.396 . S
C157 C152 1.499 . S
C157 H158 0.959 . S
C157 H159 0.960 . S
C157 H160 0.961 . S
H158 C157 0.959 . S
H159 C157 0.960 . S
H160 C157 0.961 . S
O161 Co136 1.967 . S
O161 C169 1.258 . S
O162 Co137 1.941 . S
O162 C169 1.266 . S
H163 C165 0.959 . S
H164 C165 0.961 . S
C165 C155 1.510 . S
C165 H163 0.959 . S
C165 H164 0.961 . S
C165 H166 0.960 . S
H166 C165 0.960 . S
H167 N147 0.862 . S
O168 Co136 1.920 . S
O168 C141 1.289 . S
C169 O161 1.258 . S
C169 O162 1.266 . S
Co170 O173 1.970 . S
Co170 N187 1.989 . S
Co170 O195 1.967 . S
Co170 O202 1.920 . S
Co171 O174 1.966 . S
Co171 N180 2.022 . S
Co171 N188 1.993 . S
Co171 O196 1.941 . S
C172 O173 1.258 . S
C172 O174 1.263 . S
O173 Co170 1.970 . S
O173 C172 1.258 . S
O174 Co171 1.966 . S
O174 C172 1.263 . S
C175 O176 1.235 . S
C175 O202 1.289 . S
O176 C175 1.235 . S
C177 C179 1.400 . S
C177 N180 1.351 . S
C177 C182 1.501 . S
C178 C179 1.387 . S
C178 N181 1.341 . S
C179 C177 1.400 . S
C179 C178 1.387 . S
N180 Co171 2.022 . S
N180 C177 1.351 . S
N180 N181 1.365 . S
N181 C178 1.341 . S
N181 N180 1.365 . S
N181 H201 0.862 . S
C182 C177 1.501 . S
C182 H183 0.961 . S
C182 H184 0.961 . S
C182 H185 0.960 . S
H183 C182 0.961 . S
H184 C182 0.961 . S
H185 C182 0.960 . S
C186 N187 1.342 . S
C186 C190 1.401 . S
C186 C191 1.499 . S
N187 Co170 1.989 . S
N187 C186 1.342 . S
N187 N188 1.388 . S
N188 Co171 1.993 . S
N188 N187 1.388 . S
N188 C189 1.346 . S
C189 N188 1.346 . S
C189 C190 1.396 . S
C189 C199 1.510 . S
C190 C186 1.401 . S
C190 C189 1.396 . S
C191 C186 1.499 . S
C191 H192 0.959 . S
C191 H193 0.960 . S
C191 H194 0.961 . S
H192 C191 0.959 . S
H193 C191 0.960 . S
H194 C191 0.961 . S
O195 Co170 1.967 . S
O195 C203 1.258 . S
O196 Co171 1.941 . S
O196 C203 1.266 . S
H197 C199 0.959 . S
H198 C199 0.961 . S
C199 C189 1.510 . S
C199 H197 0.959 . S
C199 H198 0.961 . S
C199 H200 0.960 . S
H200 C199 0.960 . S
H201 N181 0.862 . S
O202 Co170 1.920 . S
O202 C175 1.289 . S
C203 O195 1.258 . S
C203 O196 1.266 . S
Co204 O207 1.970 . S
Co204 N221 1.989 . S
Co204 O229 1.967 . S
Co204 O236 1.920 . S
Co205 O208 1.966 . S
Co205 N214 2.022 . S
Co205 N222 1.993 . S
Co205 O230 1.941 . S
C206 O207 1.258 . S
C206 O208 1.263 . S
O207 Co204 1.970 . S
O207 C206 1.258 . S
O208 Co205 1.966 . S
O208 C206 1.263 . S
C209 O210 1.235 . S
C209 O236 1.289 . S
O210 C209 1.235 . S
C211 C213 1.400 . S
C211 N214 1.351 . S
C211 C216 1.501 . S
C212 C213 1.387 . S
C212 N215 1.341 . S
C213 C211 1.400 . S
C213 C212 1.387 . S
N214 Co205 2.022 . S
N214 C211 1.351 . S
N214 N215 1.365 . S
N215 C212 1.341 . S
N215 N214 1.365 . S
N215 H235 0.862 . S
C216 C211 1.501 . S
C216 H217 0.961 . S
C216 H218 0.961 . S
C216 H219 0.960 . S
H217 C216 0.961 . S
H218 C216 0.961 . S
H219 C216 0.960 . S
C220 N221 1.342 . S
C220 C224 1.401 . S
C220 C225 1.499 . S
N221 Co204 1.989 . S
N221 C220 1.342 . S
N221 N222 1.388 . S
N222 Co205 1.993 . S
N222 N221 1.388 . S
N222 C223 1.346 . S
C223 N222 1.346 . S
C223 C224 1.396 . S
C223 C233 1.510 . S
C224 C220 1.401 . S
C224 C223 1.396 . S
C225 C220 1.499 . S
C225 H226 0.959 . S
C225 H227 0.960 . S
C225 H228 0.961 . S
H226 C225 0.959 . S
H227 C225 0.960 . S
H228 C225 0.961 . S
O229 Co204 1.967 . S
O229 C237 1.258 . S
O230 Co205 1.941 . S
O230 C237 1.266 . S
H231 C233 0.959 . S
H232 C233 0.961 . S
C233 C223 1.510 . S
C233 H231 0.959 . S
C233 H232 0.961 . S
C233 H234 0.960 . S
H234 C233 0.960 . S
H235 N215 0.862 . S
O236 Co204 1.920 . S
O236 C209 1.289 . S
C237 O229 1.258 . S
C237 O230 1.266 . S
Co238 O241 1.970 . S
Co238 N255 1.989 . S
Co238 O263 1.967 . S
Co238 O270 1.920 . S
Co239 O242 1.966 . S
Co239 N248 2.022 . S
Co239 N256 1.993 . S
Co239 O264 1.941 . S
C240 O241 1.258 . S
C240 O242 1.263 . S
O241 Co238 1.970 . S
O241 C240 1.258 . S
O242 Co239 1.966 . S
O242 C240 1.263 . S
C243 O244 1.235 . S
C243 O270 1.289 . S
O244 C243 1.235 . S
C245 C247 1.400 . S
C245 N248 1.351 . S
C245 C250 1.501 . S
C246 C247 1.387 . S
C246 N249 1.341 . S
C247 C245 1.400 . S
C247 C246 1.387 . S
N248 Co239 2.022 . S
N248 C245 1.351 . S
N248 N249 1.365 . S
N249 C246 1.341 . S
N249 N248 1.365 . S
N249 H269 0.862 . S
C250 C245 1.501 . S
C250 H251 0.961 . S
C250 H252 0.961 . S
C250 H253 0.960 . S
H251 C250 0.961 . S
H252 C250 0.961 . S
H253 C250 0.960 . S
C254 N255 1.342 . S
C254 C258 1.401 . S
C254 C259 1.499 . S
N255 Co238 1.989 . S
N255 C254 1.342 . S
N255 N256 1.388 . S
N256 Co239 1.993 . S
N256 N255 1.388 . S
N256 C257 1.346 . S
C257 N256 1.346 . S
C257 C258 1.396 . S
C257 C267 1.510 . S
C258 C254 1.401 . S
C258 C257 1.396 . S
C259 C254 1.499 . S
C259 H260 0.959 . S
C259 H261 0.960 . S
C259 H262 0.961 . S
H260 C259 0.959 . S
H261 C259 0.960 . S
H262 C259 0.961 . S
O263 Co238 1.967 . S
O263 C271 1.258 . S
O264 Co239 1.941 . S
O264 C271 1.266 . S
H265 C267 0.959 . S
H266 C267 0.961 . S
C267 C257 1.510 . S
C267 H265 0.959 . S
C267 H266 0.961 . S
C267 H268 0.960 . S
H268 C267 0.960 . S
H269 N249 0.862 . S
O270 Co238 1.920 . S
O270 C243 1.289 . S
C271 O263 1.258 . S
C271 O264 1.266 . S
Co272 O275 1.970 . S
Co272 N289 1.989 . S
Co272 O297 1.967 . S
Co272 O304 1.920 . S
Co273 O276 1.966 . S
Co273 N282 2.022 . S
Co273 N290 1.993 . S
Co273 O298 1.941 . S
C274 O275 1.258 . S
C274 O276 1.263 . S
O275 Co272 1.970 . S
O275 C274 1.258 . S
O276 Co273 1.966 . S
O276 C274 1.263 . S
C277 O278 1.235 . S
C277 O304 1.289 . S
O278 C277 1.235 . S
C279 C281 1.400 . S
C279 N282 1.351 . S
C279 C284 1.501 . S
C280 C281 1.387 . S
C280 N283 1.341 . S
C281 C279 1.400 . S
C281 C280 1.387 . S
N282 Co273 2.022 . S
N282 C279 1.351 . S
N282 N283 1.365 . S
N283 C280 1.341 . S
N283 N282 1.365 . S
N283 H303 0.862 . S
C284 C279 1.501 . S
C284 H285 0.961 . S
C284 H286 0.961 . S
C284 H287 0.960 . S
H285 C284 0.961 . S
H286 C284 0.961 . S
H287 C284 0.960 . S
C288 N289 1.342 . S
C288 C292 1.401 . S
C288 C293 1.499 . S
N289 Co272 1.989 . S
N289 C288 1.342 . S
N289 N290 1.388 . S
N290 Co273 1.993 . S
N290 N289 1.388 . S
N290 C291 1.346 . S
C291 N290 1.346 . S
C291 C292 1.396 . S
C291 C301 1.510 . S
C292 C288 1.401 . S
C292 C291 1.396 . S
C293 C288 1.499 . S
C293 H294 0.959 . S
C293 H295 0.960 . S
C293 H296 0.961 . S
H294 C293 0.959 . S
H295 C293 0.960 . S
H296 C293 0.961 . S
O297 Co272 1.967 . S
O297 C305 1.258 . S
O298 Co273 1.941 . S
O298 C305 1.266 . S
H299 C301 0.959 . S
H300 C301 0.961 . S
C301 C291 1.510 . S
C301 H299 0.959 . S
C301 H300 0.961 . S
C301 H302 0.960 . S
H302 C301 0.960 . S
H303 N283 0.862 . S
O304 Co272 1.920 . S
O304 C277 1.289 . S
C305 O297 1.258 . S
C305 O298 1.266 . S
Co306 O309 1.970 . S
Co306 N323 1.989 . S
Co306 O331 1.967 . S
Co306 O338 1.920 . S
Co307 O310 1.966 . S
Co307 N316 2.022 . S
Co307 N324 1.993 . S
Co307 O332 1.941 . S
C308 O309 1.258 . S
C308 O310 1.263 . S
O309 Co306 1.970 . S
O309 C308 1.258 . S
O310 Co307 1.966 . S
O310 C308 1.263 . S
C311 O312 1.235 . S
C311 O338 1.289 . S
O312 C311 1.235 . S
C313 C315 1.400 . S
C313 N316 1.351 . S
C313 C318 1.501 . S
C314 C315 1.387 . S
C314 N317 1.341 . S
C315 C313 1.400 . S
C315 C314 1.387 . S
N316 Co307 2.022 . S
N316 C313 1.351 . S
N316 N317 1.365 . S
N317 C314 1.341 . S
N317 N316 1.365 . S
N317 H337 0.862 . S
C318 C313 1.501 . S
C318 H319 0.961 . S
C318 H320 0.961 . S
C318 H321 0.960 . S
H319 C318 0.961 . S
H320 C318 0.961 . S
H321 C318 0.960 . S
C322 N323 1.342 . S
C322 C326 1.401 . S
C322 C327 1.499 . S
N323 Co306 1.989 . S
N323 C322 1.342 . S
N323 N324 1.388 . S
N324 Co307 1.993 . S
N324 N323 1.388 . S
N324 C325 1.346 . S
C325 N324 1.346 . S
C325 C326 1.396 . S
C325 C335 1.510 . S
C326 C322 1.401 . S
C326 C325 1.396 . S
C327 C322 1.499 . S
C327 H328 0.959 . S
C327 H329 0.960 . S
C327 H330 0.961 . S
H328 C327 0.959 . S
H329 C327 0.960 . S
H330 C327 0.961 . S
O331 Co306 1.967 . S
O331 C339 1.258 . S
O332 Co307 1.941 . S
O332 C339 1.266 . S
H333 C335 0.959 . S
H334 C335 0.961 . S
C335 C325 1.510 . S
C335 H333 0.959 . S
C335 H334 0.961 . S
C335 H336 0.960 . S
H336 C335 0.960 . S
H337 N317 0.862 . S
O338 Co306 1.920 . S
O338 C311 1.289 . S
C339 O331 1.258 . S
C339 O332 1.266 . S
Co340 O343 1.970 . S
Co340 N357 1.989 . S
Co340 O365 1.967 . S
Co340 O372 1.920 . S
Co341 O344 1.966 . S
Co341 N350 2.022 . S
Co341 N358 1.993 . S
Co341 O366 1.941 . S
C342 O343 1.258 . S
C342 O344 1.263 . S
O343 Co340 1.970 . S
O343 C342 1.258 . S
O344 Co341 1.966 . S
O344 C342 1.263 . S
C345 O346 1.235 . S
C345 O372 1.289 . S
O346 C345 1.235 . S
C347 C349 1.400 . S
C347 N350 1.351 . S
C347 C352 1.501 . S
C348 C349 1.387 . S
C348 N351 1.341 . S
C349 C347 1.400 . S
C349 C348 1.387 . S
N350 Co341 2.022 . S
N350 C347 1.351 . S
N350 N351 1.365 . S
N351 C348 1.341 . S
N351 N350 1.365 . S
N351 H371 0.862 . S
C352 C347 1.501 . S
C352 H353 0.961 . S
C352 H354 0.961 . S
C352 H355 0.960 . S
H353 C352 0.961 . S
H354 C352 0.961 . S
H355 C352 0.960 . S
C356 N357 1.342 . S
C356 C360 1.401 . S
C356 C361 1.499 . S
N357 Co340 1.989 . S
N357 C356 1.342 . S
N357 N358 1.388 . S
N358 Co341 1.993 . S
N358 N357 1.388 . S
N358 C359 1.346 . S
C359 N358 1.346 . S
C359 C360 1.396 . S
C359 C369 1.510 . S
C360 C356 1.401 . S
C360 C359 1.396 . S
C361 C356 1.499 . S
C361 H362 0.959 . S
C361 H363 0.960 . S
C361 H364 0.961 . S
H362 C361 0.959 . S
H363 C361 0.960 . S
H364 C361 0.961 . S
O365 Co340 1.967 . S
O365 C373 1.258 . S
O366 Co341 1.941 . S
O366 C373 1.266 . S
H367 C369 0.959 . S
H368 C369 0.961 . S
C369 C359 1.510 . S
C369 H367 0.959 . S
C369 H368 0.961 . S
C369 H370 0.960 . S
H370 C369 0.960 . S
H371 N351 0.862 . S
O372 Co340 1.920 . S
O372 C345 1.289 . S
C373 O365 1.258 . S
C373 O366 1.266 . S
Co374 O377 1.970 . S
Co374 N391 1.989 . S
Co374 O399 1.967 . S
Co374 O406 1.920 . S
Co375 O378 1.966 . S
Co375 N384 2.022 . S
Co375 N392 1.993 . S
Co375 O400 1.941 . S
C376 O377 1.258 . S
C376 O378 1.263 . S
O377 Co374 1.970 . S
O377 C376 1.258 . S
O378 Co375 1.966 . S
O378 C376 1.263 . S
C379 O380 1.235 . S
C379 O406 1.289 . S
O380 C379 1.235 . S
C381 C383 1.400 . S
C381 N384 1.351 . S
C381 C386 1.501 . S
C382 C383 1.387 . S
C382 N385 1.341 . S
C383 C381 1.400 . S
C383 C382 1.387 . S
N384 Co375 2.022 . S
N384 C381 1.351 . S
N384 N385 1.365 . S
N385 C382 1.341 . S
N385 N384 1.365 . S
N385 H405 0.862 . S
C386 C381 1.501 . S
C386 H387 0.961 . S
C386 H388 0.961 . S
C386 H389 0.960 . S
H387 C386 0.961 . S
H388 C386 0.961 . S
H389 C386 0.960 . S
C390 N391 1.342 . S
C390 C394 1.401 . S
C390 C395 1.499 . S
N391 Co374 1.989 . S
N391 C390 1.342 . S
N391 N392 1.388 . S
N392 Co375 1.993 . S
N392 N391 1.388 . S
N392 C393 1.346 . S
C393 N392 1.346 . S
C393 C394 1.396 . S
C393 C403 1.510 . S
C394 C390 1.401 . S
C394 C393 1.396 . S
C395 C390 1.499 . S
C395 H396 0.959 . S
C395 H397 0.960 . S
C395 H398 0.961 . S
H396 C395 0.959 . S
H397 C395 0.960 . S
H398 C395 0.961 . S
O399 Co374 1.967 . S
O399 C407 1.258 . S
O400 Co375 1.941 . S
O400 C407 1.266 . S
H401 C403 0.959 . S
H402 C403 0.961 . S
C403 C393 1.510 . S
C403 H401 0.959 . S
C403 H402 0.961 . S
C403 H404 0.960 . S
H404 C403 0.960 . S
H405 N385 0.862 . S
O406 Co374 1.920 . S
O406 C379 1.289 . S
C407 O399 1.258 . S
C407 O400 1.266 . S
C408 C409 1.349 . S
C408 C410 1.327 . S
C408 H433 0.950 . S
C409 C408 1.349 . S
C409 C425 1.349 . S
C410 C408 1.327 . S
C410 C429 1.429 . S
C410 H434 0.950 . S
C411 C428 1.574 . S
C411 C430 1.368 . S
C411 H435 0.949 . S
H412 C416 0.949 . S
C413 C414 1.349 . S
C413 C415 1.327 . S
C413 H436 0.950 . S
C414 C413 1.349 . S
C414 C426 1.349 . S
C415 C413 1.327 . S
C415 C431 1.429 . S
C415 H437 0.950 . S
C416 H412 0.949 . S
C416 C424 1.574 . S
C416 C432 1.368 . S
H417 C425 0.950 . S
H418 C423 0.950 . S
H419 C424 0.949 . S
H420 C426 0.950 . S
H421 C427 0.950 . S
H422 C428 0.949 . S
C423 H418 0.950 . S
C423 C425 1.327 . S
C423 C429 1.429 . S
C424 C416 1.574 . S
C424 H419 0.949 . S
C424 C430 1.368 . S
C425 C409 1.349 . S
C425 H417 0.950 . S
C425 C423 1.327 . S
C426 C414 1.349 . S
C426 H420 0.950 . S
C426 C427 1.327 . S
C427 H421 0.950 . S
C427 C426 1.327 . S
C427 C431 1.429 . S
C428 C411 1.574 . S
C428 H422 0.949 . S
C428 C432 1.368 . S
C429 C410 1.429 . S
C429 C423 1.429 . S
C429 C430 1.523 . S
C430 C411 1.368 . S
C430 C424 1.368 . S
C430 C429 1.523 . S
C431 C415 1.429 . S
C431 C427 1.429 . S
C431 C432 1.523 . S
C432 C416 1.368 . S
C432 C428 1.368 . S
C432 C431 1.523 . S
H433 C408 0.950 . S
H434 C410 0.950 . S
H435 C411 0.949 . S
H436 C413 0.950 . S
H437 C415 0.950 . S
C438 C439 1.349 . S
C438 C440 1.327 . S
C438 H463 0.950 . S
C439 C438 1.349 . S
C439 C455 1.349 . S
C440 C438 1.327 . S
C440 C459 1.429 . S
C440 H464 0.950 . S
C441 C458 1.574 . S
C441 C460 1.368 . S
C441 H465 0.949 . S
H442 C446 0.949 . S
C443 C444 1.349 . S
C443 C445 1.327 . S
C443 H466 0.950 . S
C444 C443 1.349 . S
C444 C456 1.349 . S
C445 C443 1.327 . S
C445 C461 1.429 . S
C445 H467 0.950 . S
C446 H442 0.949 . S
C446 C454 1.574 . S
C446 C462 1.368 . S
H447 C455 0.950 . S
H448 C453 0.950 . S
H449 C454 0.949 . S
H450 C456 0.950 . S
H451 C457 0.950 . S
H452 C458 0.949 . S
C453 H448 0.950 . S
C453 C455 1.327 . S
C453 C459 1.429 . S
C454 C446 1.574 . S
C454 H449 0.949 . S
C454 C460 1.368 1_655 S
C455 C439 1.349 . S
C455 H447 0.950 . S
C455 C453 1.327 . S
C456 C444 1.349 . S
C456 H450 0.950 . S
C456 C457 1.327 . S
C457 H451 0.950 . S
C457 C456 1.327 . S
C457 C461 1.429 . S
C458 C441 1.574 . S
C458 H452 0.949 . S
C458 C462 1.368 1_455 S
C459 C440 1.429 . S
C459 C453 1.429 . S
C459 C460 1.523 . S
C460 C441 1.368 . S
C460 C454 1.368 1_455 S
C460 C459 1.523 . S
C461 C445 1.429 . S
C461 C457 1.429 . S
C461 C462 1.523 . S
C462 C446 1.368 . S
C462 C458 1.368 1_655 S
C462 C461 1.523 . S
H463 C438 0.950 . S
H464 C440 0.950 . S
H465 C441 0.949 . S
H466 C443 0.950 . S
H467 C445 0.950 . S
C468 C469 1.349 . S
C468 C470 1.327 . S
C468 H493 0.950 . S
C469 C468 1.349 . S
C469 C485 1.349 . S
C470 C468 1.327 . S
C470 C489 1.429 . S
C470 H494 0.950 . S
C471 C488 1.574 . S
C471 C490 1.368 . S
C471 H495 0.949 . S
H472 C476 0.949 . S
C473 C474 1.349 . S
C473 C475 1.327 . S
C473 H496 0.950 . S
C474 C473 1.349 . S
C474 C486 1.349 . S
C475 C473 1.327 . S
C475 C491 1.429 . S
C475 H497 0.950 . S
C476 H472 0.949 . S
C476 C484 1.574 . S
C476 C492 1.368 . S
H477 C485 0.950 . S
H478 C483 0.950 . S
H479 C484 0.949 . S
H480 C486 0.950 . S
H481 C487 0.950 . S
H482 C488 0.949 . S
C483 H478 0.950 . S
C483 C485 1.327 . S
C483 C489 1.429 . S
C484 C476 1.574 . S
C484 H479 0.949 . S
C484 C490 1.368 1_565 S
C485 C469 1.349 . S
C485 H477 0.950 . S
C485 C483 1.327 . S
C486 C474 1.349 . S
C486 H480 0.950 . S
C486 C487 1.327 . S
C487 H481 0.950 . S
C487 C486 1.327 . S
C487 C491 1.429 . S
C488 C471 1.574 . S
C488 H482 0.949 . S
C488 C492 1.368 1_545 S
C489 C470 1.429 . S
C489 C483 1.429 . S
C489 C490 1.523 . S
C490 C471 1.368 . S
C490 C484 1.368 1_545 S
C490 C489 1.523 . S
C491 C475 1.429 . S
C491 C487 1.429 . S
C491 C492 1.523 . S
C492 C476 1.368 . S
C492 C488 1.368 1_565 S
C492 C491 1.523 . S
H493 C468 0.950 . S
H494 C470 0.950 . S
H495 C471 0.949 . S
H496 C473 0.950 . S
H497 C475 0.950 . S
C498 C499 1.349 . S
C498 C500 1.327 . S
C498 H523 0.950 . S
C499 C498 1.349 . S
C499 C515 1.349 . S
C500 C498 1.327 . S
C500 C519 1.429 . S
C500 H524 0.950 . S
C501 C518 1.574 . S
C501 C520 1.368 . S
C501 H525 0.949 . S
H502 C506 0.949 . S
C503 C504 1.349 . S
C503 C505 1.327 . S
C503 H526 0.950 . S
C504 C503 1.349 . S
C504 C516 1.349 . S
C505 C503 1.327 . S
C505 C521 1.429 . S
C505 H527 0.950 . S
C506 H502 0.949 . S
C506 C514 1.574 . S
C506 C522 1.368 . S
H507 C515 0.950 . S
H508 C513 0.950 . S
H509 C514 0.949 . S
H510 C516 0.950 . S
H511 C517 0.950 . S
H512 C518 0.949 . S
C513 H508 0.950 . S
C513 C515 1.327 . S
C513 C519 1.429 . S
C514 C506 1.574 . S
C514 H509 0.949 . S
C514 C520 1.368 . S
C515 C499 1.349 . S
C515 H507 0.950 . S
C515 C513 1.327 . S
C516 C504 1.349 . S
C516 H510 0.950 . S
C516 C517 1.327 . S
C517 H511 0.950 . S
C517 C516 1.327 . S
C517 C521 1.429 . S
C518 C501 1.574 . S
C518 H512 0.949 . S
C518 C522 1.368 . S
C519 C500 1.429 . S
C519 C513 1.429 . S
C519 C520 1.523 . S
C520 C501 1.368 . S
C520 C514 1.368 . S
C520 C519 1.523 . S
C521 C505 1.429 . S
C521 C517 1.429 . S
C521 C522 1.523 . S
C522 C506 1.368 . S
C522 C518 1.368 . S
C522 C521 1.523 . S
H523 C498 0.950 . S
H524 C500 0.950 . S
H525 C501 0.949 . S
H526 C503 0.950 . S
H527 C505 0.950 . S
C528 C529 1.349 . S
C528 C530 1.327 . S
C528 H553 0.950 . S
C529 C528 1.349 . S
C529 C545 1.349 . S
C530 C528 1.327 . S
C530 C549 1.429 . S
C530 H554 0.950 . S
C531 C548 1.574 . S
C531 C550 1.368 1_455 S
C531 H555 0.949 . S
H532 C536 0.949 . S
C533 C534 1.349 . S
C533 C535 1.327 . S
C533 H556 0.950 . S
C534 C533 1.349 . S
C534 C546 1.349 . S
C535 C533 1.327 . S
C535 C551 1.429 . S
C535 H557 0.950 . S
C536 H532 0.949 . S
C536 C544 1.574 . S
C536 C552 1.368 1_655 S
H537 C545 0.950 . S
H538 C543 0.950 . S
H539 C544 0.949 . S
H540 C546 0.950 . S
H541 C547 0.950 . S
H542 C548 0.949 . S
C543 H538 0.950 . S
C543 C545 1.327 . S
C543 C549 1.429 . S
C544 C536 1.574 . S
C544 H539 0.949 . S
C544 C550 1.368 . S
C545 C529 1.349 . S
C545 H537 0.950 . S
C545 C543 1.327 . S
C546 C534 1.349 . S
C546 H540 0.950 . S
C546 C547 1.327 . S
C547 H541 0.950 . S
C547 C546 1.327 . S
C547 C551 1.429 . S
C548 C531 1.574 . S
C548 H542 0.949 . S
C548 C552 1.368 . S
C549 C530 1.429 . S
C549 C543 1.429 . S
C549 C550 1.523 . S
C550 C531 1.368 1_655 S
C550 C544 1.368 . S
C550 C549 1.523 . S
C551 C535 1.429 . S
C551 C547 1.429 . S
C551 C552 1.523 . S
C552 C536 1.368 1_455 S
C552 C548 1.368 . S
C552 C551 1.523 . S
H553 C528 0.950 . S
H554 C530 0.950 . S
H555 C531 0.949 . S
H556 C533 0.950 . S
H557 C535 0.950 . S
C558 C559 1.349 . S
C558 C560 1.327 . S
C558 H583 0.950 . S
C559 C558 1.349 . S
C559 C575 1.349 . S
C560 C558 1.327 . S
C560 C579 1.429 . S
C560 H584 0.950 . S
C561 C578 1.574 . S
C561 C580 1.368 . S
C561 H585 0.949 . S
H562 C566 0.949 . S
C563 C564 1.349 . S
C563 C565 1.327 . S
C563 H586 0.950 . S
C564 C563 1.349 . S
C564 C576 1.349 . S
C565 C563 1.327 . S
C565 C581 1.429 . S
C565 H587 0.950 . S
C566 H562 0.949 . S
C566 C574 1.574 . S
C566 C582 1.368 . S
H567 C575 0.950 . S
H568 C573 0.950 . S
H569 C574 0.949 . S
H570 C576 0.950 . S
H571 C577 0.950 . S
H572 C578 0.949 . S
C573 H568 0.950 . S
C573 C575 1.327 . S
C573 C579 1.429 . S
C574 C566 1.574 . S
C574 H569 0.949 . S
C574 C580 1.368 1_545 S
C575 C559 1.349 . S
C575 H567 0.950 . S
C575 C573 1.327 . S
C576 C564 1.349 . S
C576 H570 0.950 . S
C576 C577 1.327 . S
C577 H571 0.950 . S
C577 C576 1.327 . S
C577 C581 1.429 . S
C578 C561 1.574 . S
C578 H572 0.949 . S
C578 C582 1.368 1_565 S
C579 C560 1.429 . S
C579 C573 1.429 . S
C579 C580 1.523 . S
C580 C561 1.368 . S
C580 C574 1.368 1_565 S
C580 C579 1.523 . S
C581 C565 1.429 . S
C581 C577 1.429 . S
C581 C582 1.523 . S
C582 C566 1.368 . S
C582 C578 1.368 1_545 S
C582 C581 1.523 . S
H583 C558 0.950 . S
H584 C560 0.950 . S
H585 C561 0.949 . S
H586 C563 0.950 . S
H587 C565 0.950 . S
C588 C589 1.349 . S
C588 C590 1.327 . S
C588 H613 0.950 . S
C589 C588 1.349 . S
C589 C605 1.349 . S
C590 C588 1.327 . S
C590 C609 1.429 . S
C590 H614 0.950 . S
C591 C608 1.574 . S
C591 C610 1.368 1_455 S
C591 H615 0.949 . S
H592 C596 0.949 . S
C593 C594 1.349 . S
C593 C595 1.327 . S
C593 H616 0.950 . S
C594 C593 1.349 . S
C594 C606 1.349 . S
C595 C593 1.327 . S
C595 C611 1.429 . S
C595 H617 0.950 . S
C596 H592 0.949 . S
C596 C604 1.574 . S
C596 C612 1.368 1_655 S
H597 C605 0.950 . S
H598 C603 0.950 . S
H599 C604 0.949 . S
H600 C606 0.950 . S
H601 C607 0.950 . S
H602 C608 0.949 . S
C603 H598 0.950 . S
C603 C605 1.327 . S
C603 C609 1.429 . S
C604 C596 1.574 . S
C604 H599 0.949 . S
C604 C610 1.368 . S
C605 C589 1.349 . S
C605 H597 0.950 . S
C605 C603 1.327 . S
C606 C594 1.349 . S
C606 H600 0.950 . S
C606 C607 1.327 . S
C607 H601 0.950 . S
C607 C606 1.327 . S
C607 C611 1.429 . S
C608 C591 1.574 . S
C608 H602 0.949 . S
C608 C612 1.368 . S
C609 C590 1.429 . S
C609 C603 1.429 . S
C609 C610 1.523 . S
C610 C591 1.368 1_655 S
C610 C604 1.368 . S
C610 C609 1.523 . S
C611 C595 1.429 . S
C611 C607 1.429 . S
C611 C612 1.523 . S
C612 C596 1.368 1_455 S
C612 C608 1.368 . S
C612 C611 1.523 . S
H613 C588 0.950 . S
H614 C590 0.950 . S
H615 C591 0.949 . S
H616 C593 0.950 . S
H617 C595 0.950 . S
C618 C619 1.349 . S
C618 C620 1.327 . S
C618 H643 0.950 . S
C619 C618 1.349 . S
C619 C635 1.349 . S
C620 C618 1.327 . S
C620 C639 1.429 . S
C620 H644 0.950 . S
C621 C638 1.574 . S
C621 C640 1.368 . S
C621 H645 0.949 . S
H622 C626 0.949 . S
C623 C624 1.349 . S
C623 C625 1.327 . S
C623 H646 0.950 . S
C624 C623 1.349 . S
C624 C636 1.349 . S
C625 C623 1.327 . S
C625 C641 1.429 . S
C625 H647 0.950 . S
C626 H622 0.949 . S
C626 C634 1.574 . S
C626 C642 1.368 . S
H627 C635 0.950 . S
H628 C633 0.950 . S
H629 C634 0.949 . S
H630 C636 0.950 . S
H631 C637 0.950 . S
H632 C638 0.949 . S
C633 H628 0.950 . S
C633 C635 1.327 . S
C633 C639 1.429 . S
C634 C626 1.574 . S
C634 H629 0.949 . S
C634 C640 1.368 1_565 S
C635 C619 1.349 . S
C635 H627 0.950 . S
C635 C633 1.327 . S
C636 C624 1.349 . S
C636 H630 0.950 . S
C636 C637 1.327 . S
C637 H631 0.950 . S
C637 C636 1.327 . S
C637 C641 1.429 . S
C638 C621 1.574 . S
C638 H632 0.949 . S
C638 C642 1.368 1_545 S
C639 C620 1.429 . S
C639 C633 1.429 . S
C639 C640 1.523 . S
C640 C621 1.368 . S
C640 C634 1.368 1_545 S
C640 C639 1.523 . S
C641 C625 1.429 . S
C641 C637 1.429 . S
C641 C642 1.523 . S
C642 C626 1.368 . S
C642 C638 1.368 1_565 S
C642 C641 1.523 . S
H643 C618 0.950 . S
H644 C620 0.950 . S
H645 C621 0.949 . S
H646 C623 0.950 . S
H647 C625 0.950 . S
C648 C649 1.349 . S
C648 C650 1.327 . S
C648 H673 0.950 . S
C649 C648 1.349 . S
C649 C665 1.349 . S
C650 C648 1.327 . S
C650 C669 1.429 . S
C650 H674 0.950 . S
C651 C668 1.574 . S
C651 C670 1.368 . S
C651 H675 0.949 . S
H652 C656 0.949 . S
C653 C654 1.349 . S
C653 C655 1.327 . S
C653 H676 0.950 . S
C654 C653 1.349 . S
C654 C666 1.349 . S
C655 C653 1.327 . S
C655 C671 1.429 . S
C655 H677 0.950 . S
C656 H652 0.949 . S
C656 C664 1.574 . S
C656 C672 1.368 . S
H657 C665 0.950 . S
H658 C663 0.950 . S
H659 C664 0.949 . S
H660 C666 0.950 . S
H661 C667 0.950 . S
H662 C668 0.949 . S
C663 H658 0.950 . S
C663 C665 1.327 . S
C663 C669 1.429 . S
C664 C656 1.574 . S
C664 H659 0.949 . S
C664 C670 1.368 . S
C665 C649 1.349 . S
C665 H657 0.950 . S
C665 C663 1.327 . S
C666 C654 1.349 . S
C666 H660 0.950 . S
C666 C667 1.327 . S
C667 H661 0.950 . S
C667 C666 1.327 . S
C667 C671 1.429 . S
C668 C651 1.574 . S
C668 H662 0.949 . S
C668 C672 1.368 . S
C669 C650 1.429 . S
C669 C663 1.429 . S
C669 C670 1.523 . S
C670 C651 1.368 . S
C670 C664 1.368 . S
C670 C669 1.523 . S
C671 C655 1.429 . S
C671 C667 1.429 . S
C671 C672 1.523 . S
C672 C656 1.368 . S
C672 C668 1.368 . S
C672 C671 1.523 . S
H673 C648 0.950 . S
H674 C650 0.950 . S
H675 C651 0.949 . S
H676 C653 0.950 . S
H677 C655 0.950 . S
C678 C679 1.349 . S
C678 C680 1.327 . S
C678 H703 0.950 . S
C679 C678 1.349 . S
C679 C695 1.349 . S
C680 C678 1.327 . S
C680 C699 1.429 . S
C680 H704 0.950 . S
C681 C698 1.574 . S
C681 C700 1.368 . S
C681 H705 0.949 . S
H682 C686 0.949 . S
C683 C684 1.349 . S
C683 C685 1.327 . S
C683 H706 0.950 . S
C684 C683 1.349 . S
C684 C696 1.349 . S
C685 C683 1.327 . S
C685 C701 1.429 . S
C685 H707 0.950 . S
C686 H682 0.949 . S
C686 C694 1.574 . S
C686 C702 1.368 . S
H687 C695 0.950 . S
H688 C693 0.950 . S
H689 C694 0.949 . S
H690 C696 0.950 . S
H691 C697 0.950 . S
H692 C698 0.949 . S
C693 H688 0.950 . S
C693 C695 1.327 . S
C693 C699 1.429 . S
C694 C686 1.574 . S
C694 H689 0.949 . S
C694 C700 1.368 1_545 S
C695 C679 1.349 . S
C695 H687 0.950 . S
C695 C693 1.327 . S
C696 C684 1.349 . S
C696 H690 0.950 . S
C696 C697 1.327 . S
C697 H691 0.950 . S
C697 C696 1.327 . S
C697 C701 1.429 . S
C698 C681 1.574 . S
C698 H692 0.949 . S
C698 C702 1.368 1_565 S
C699 C680 1.429 . S
C699 C693 1.429 . S
C699 C700 1.523 . S
C700 C681 1.368 . S
C700 C694 1.368 1_565 S
C700 C699 1.523 . S
C701 C685 1.429 . S
C701 C697 1.429 . S
C701 C702 1.523 . S
C702 C686 1.368 . S
C702 C698 1.368 1_545 S
C702 C701 1.523 . S
H703 C678 0.950 . S
H704 C680 0.950 . S
H705 C681 0.949 . S
H706 C683 0.950 . S
H707 C685 0.950 . S
C708 C709 1.349 . S
C708 C710 1.327 . S
C708 H733 0.950 . S
C709 C708 1.349 . S
C709 C725 1.349 . S
C710 C708 1.327 . S
C710 C729 1.429 . S
C710 H734 0.950 . S
C711 C728 1.574 . S
C711 C730 1.368 . S
C711 H735 0.949 . S
H712 C716 0.949 . S
C713 C714 1.349 . S
C713 C715 1.327 . S
C713 H736 0.950 . S
C714 C713 1.349 . S
C714 C726 1.349 . S
C715 C713 1.327 . S
C715 C731 1.429 . S
C715 H737 0.950 . S
C716 H712 0.949 . S
C716 C724 1.574 . S
C716 C732 1.368 . S
H717 C725 0.950 . S
H718 C723 0.950 . S
H719 C724 0.949 . S
H720 C726 0.950 . S
H721 C727 0.950 . S
H722 C728 0.949 . S
C723 H718 0.950 . S
C723 C725 1.327 . S
C723 C729 1.429 . S
C724 C716 1.574 . S
C724 H719 0.949 . S
C724 C730 1.368 . S
C725 C709 1.349 . S
C725 H717 0.950 . S
C725 C723 1.327 . S
C726 C714 1.349 . S
C726 H720 0.950 . S
C726 C727 1.327 . S
C727 H721 0.950 . S
C727 C726 1.327 . S
C727 C731 1.429 . S
C728 C711 1.574 . S
C728 H722 0.949 . S
C728 C732 1.368 . S
C729 C710 1.429 . S
C729 C723 1.429 . S
C729 C730 1.523 . S
C730 C711 1.368 . S
C730 C724 1.368 . S
C730 C729 1.523 . S
C731 C715 1.429 . S
C731 C727 1.429 . S
C731 C732 1.523 . S
C732 C716 1.368 . S
C732 C728 1.368 . S
C732 C731 1.523 . S
H733 C708 0.950 . S
H734 C710 0.950 . S
H735 C711 0.949 . S
H736 C713 0.950 . S
H737 C715 0.950 . S
C738 C739 1.349 . S
C738 C740 1.327 . S
C738 H763 0.950 . S
C739 C738 1.349 . S
C739 C755 1.349 . S
C740 C738 1.327 . S
C740 C759 1.429 . S
C740 H764 0.950 . S
C741 C758 1.574 . S
C741 C760 1.368 . S
C741 H765 0.949 . S
H742 C746 0.949 . S
C743 C744 1.349 . S
C743 C745 1.327 . S
C743 H766 0.950 . S
C744 C743 1.349 . S
C744 C756 1.349 . S
C745 C743 1.327 . S
C745 C761 1.429 . S
C745 H767 0.950 . S
C746 H742 0.949 . S
C746 C754 1.574 . S
C746 C762 1.368 . S
H747 C755 0.950 . S
H748 C753 0.950 . S
H749 C754 0.949 . S
H750 C756 0.950 . S
H751 C757 0.950 . S
H752 C758 0.949 . S
C753 H748 0.950 . S
C753 C755 1.327 . S
C753 C759 1.429 . S
C754 C746 1.574 . S
C754 H749 0.949 . S
C754 C760 1.368 1_655 S
C755 C739 1.349 . S
C755 H747 0.950 . S
C755 C753 1.327 . S
C756 C744 1.349 . S
C756 H750 0.950 . S
C756 C757 1.327 . S
C757 H751 0.950 . S
C757 C756 1.327 . S
C757 C761 1.429 . S
C758 C741 1.574 . S
C758 H752 0.949 . S
C758 C762 1.368 1_455 S
C759 C740 1.429 . S
C759 C753 1.429 . S
C759 C760 1.523 . S
C760 C741 1.368 . S
C760 C754 1.368 1_455 S
C760 C759 1.523 . S
C761 C745 1.429 . S
C761 C757 1.429 . S
C761 C762 1.523 . S
C762 C746 1.368 . S
C762 C758 1.368 1_655 S
C762 C761 1.523 . S
H763 C738 0.950 . S
H764 C740 0.950 . S
H765 C741 0.949 . S
H766 C743 0.950 . S
H767 C745 0.950 . S
C768 C769 1.349 . S
C768 C770 1.327 . S
C768 H793 0.950 . S
C769 C768 1.349 . S
C769 C785 1.349 . S
C770 C768 1.327 . S
C770 C789 1.429 . S
C770 H794 0.950 . S
C771 C788 1.574 . S
C771 C790 1.368 . S
C771 H795 0.949 . S
H772 C776 0.949 . S
C773 C774 1.349 . S
C773 C775 1.327 . S
C773 H796 0.950 . S
C774 C773 1.349 . S
C774 C786 1.349 . S
C775 C773 1.327 . S
C775 C791 1.429 . S
C775 H797 0.950 . S
C776 H772 0.949 . S
C776 C784 1.574 . S
C776 C792 1.368 . S
H777 C785 0.950 . S
H778 C783 0.950 . S
H779 C784 0.949 . S
H780 C786 0.950 . S
H781 C787 0.950 . S
H782 C788 0.949 . S
C783 H778 0.950 . S
C783 C785 1.327 . S
C783 C789 1.429 . S
C784 C776 1.574 . S
C784 H779 0.949 . S
C784 C790 1.368 . S
C785 C769 1.349 . S
C785 H777 0.950 . S
C785 C783 1.327 . S
C786 C774 1.349 . S
C786 H780 0.950 . S
C786 C787 1.327 . S
C787 H781 0.950 . S
C787 C786 1.327 . S
C787 C791 1.429 . S
C788 C771 1.574 . S
C788 H782 0.949 . S
C788 C792 1.368 . S
C789 C770 1.429 . S
C789 C783 1.429 . S
C789 C790 1.523 . S
C790 C771 1.368 . S
C790 C784 1.368 . S
C790 C789 1.523 . S
C791 C775 1.429 . S
C791 C787 1.429 . S
C791 C792 1.523 . S
C792 C776 1.368 . S
C792 C788 1.368 . S
C792 C791 1.523 . S
H793 C768 0.950 . S
H794 C770 0.950 . S
H795 C771 0.949 . S
H796 C773 0.950 . S
H797 C775 0.950 . S
C798 C799 1.349 . S
C798 C800 1.327 . S
C798 H823 0.950 . S
C799 C798 1.349 . S
C799 C815 1.349 . S
C800 C798 1.327 . S
C800 C819 1.429 . S
C800 H824 0.950 . S
C801 C818 1.574 . S
C801 C820 1.368 . S
C801 H825 0.949 . S
H802 C806 0.949 . S
C803 C804 1.349 . S
C803 C805 1.327 . S
C803 H826 0.950 . S
C804 C803 1.349 . S
C804 C816 1.349 . S
C805 C803 1.327 . S
C805 C821 1.429 . S
C805 H827 0.950 . S
C806 H802 0.949 . S
C806 C814 1.574 . S
C806 C822 1.368 . S
H807 C815 0.950 . S
H808 C813 0.950 . S
H809 C814 0.949 . S
H810 C816 0.950 . S
H811 C817 0.950 . S
H812 C818 0.949 . S
C813 H808 0.950 . S
C813 C815 1.327 . S
C813 C819 1.429 . S
C814 C806 1.574 . S
C814 H809 0.949 . S
C814 C820 1.368 . S
C815 C799 1.349 . S
C815 H807 0.950 . S
C815 C813 1.327 . S
C816 C804 1.349 . S
C816 H810 0.950 . S
C816 C817 1.327 . S
C817 H811 0.950 . S
C817 C816 1.327 . S
C817 C821 1.429 . S
C818 C801 1.574 . S
C818 H812 0.949 . S
C818 C822 1.368 . S
C819 C800 1.429 . S
C819 C813 1.429 . S
C819 C820 1.523 . S
C820 C801 1.368 . S
C820 C814 1.368 . S
C820 C819 1.523 . S
C821 C805 1.429 . S
C821 C817 1.429 . S
C821 C822 1.523 . S
C822 C806 1.368 . S
C822 C818 1.368 . S
C822 C821 1.523 . S
H823 C798 0.950 . S
H824 C800 0.950 . S
H825 C801 0.949 . S
H826 C803 0.950 . S
H827 C805 0.950 . S
C828 C829 1.349 . S
C828 C830 1.327 . S
C828 H853 0.950 . S
C829 C828 1.349 . S
C829 C845 1.349 . S
C830 C828 1.327 . S
C830 C849 1.429 . S
C830 H854 0.950 . S
C831 C848 1.574 . S
C831 C850 1.368 . S
C831 H855 0.949 . S
H832 C836 0.949 . S
C833 C834 1.349 . S
C833 C835 1.327 . S
C833 H856 0.950 . S
C834 C833 1.349 . S
C834 C846 1.349 . S
C835 C833 1.327 . S
C835 C851 1.429 . S
C835 H857 0.950 . S
C836 H832 0.949 . S
C836 C844 1.574 . S
C836 C852 1.368 . S
H837 C845 0.950 . S
H838 C843 0.950 . S
H839 C844 0.949 . S
H840 C846 0.950 . S
H841 C847 0.950 . S
H842 C848 0.949 . S
C843 H838 0.950 . S
C843 C845 1.327 . S
C843 C849 1.429 . S
C844 C836 1.574 . S
C844 H839 0.949 . S
C844 C850 1.368 . S
C845 C829 1.349 . S
C845 H837 0.950 . S
C845 C843 1.327 . S
C846 C834 1.349 . S
C846 H840 0.950 . S
C846 C847 1.327 . S
C847 H841 0.950 . S
C847 C846 1.327 . S
C847 C851 1.429 . S
C848 C831 1.574 . S
C848 H842 0.949 . S
C848 C852 1.368 . S
C849 C830 1.429 . S
C849 C843 1.429 . S
C849 C850 1.523 . S
C850 C831 1.368 . S
C850 C844 1.368 . S
C850 C849 1.523 . S
C851 C835 1.429 . S
C851 C847 1.429 . S
C851 C852 1.523 . S
C852 C836 1.368 . S
C852 C848 1.368 . S
C852 C851 1.523 . S
H853 C828 0.950 . S
H854 C830 0.950 . S
H855 C831 0.949 . S
H856 C833 0.950 . S
H857 C835 0.950 . S
C858 C859 1.349 . S
C858 C860 1.327 . S
C858 H883 0.950 . S
C859 C858 1.349 . S
C859 C875 1.349 . S
C860 C858 1.327 . S
C860 C879 1.429 . S
C860 H884 0.950 . S
C861 C878 1.574 . S
C861 C880 1.368 . S
C861 H885 0.949 . S
H862 C866 0.949 . S
C863 C864 1.349 . S
C863 C865 1.327 . S
C863 H886 0.950 . S
C864 C863 1.349 . S
C864 C876 1.349 . S
C865 C863 1.327 . S
C865 C881 1.429 . S
C865 H887 0.950 . S
C866 H862 0.949 . S
C866 C874 1.574 . S
C866 C882 1.368 . S
H867 C875 0.950 . S
H868 C873 0.950 . S
H869 C874 0.949 . S
H870 C876 0.950 . S
H871 C877 0.950 . S
H872 C878 0.949 . S
C873 H868 0.950 . S
C873 C875 1.327 . S
C873 C879 1.429 . S
C874 C866 1.574 . S
C874 H869 0.949 . S
C874 C880 1.368 . S
C875 C859 1.349 . S
C875 H867 0.950 . S
C875 C873 1.327 . S
C876 C864 1.349 . S
C876 H870 0.950 . S
C876 C877 1.327 . S
C877 H871 0.950 . S
C877 C876 1.327 . S
C877 C881 1.429 . S
C878 C861 1.574 . S
C878 H872 0.949 . S
C878 C882 1.368 . S
C879 C860 1.429 . S
C879 C873 1.429 . S
C879 C880 1.523 . S
C880 C861 1.368 . S
C880 C874 1.368 . S
C880 C879 1.523 . S
C881 C865 1.429 . S
C881 C877 1.429 . S
C881 C882 1.523 . S
C882 C866 1.368 . S
C882 C878 1.368 . S
C882 C881 1.523 . S
H883 C858 0.950 . S
H884 C860 0.950 . S
H885 C861 0.949 . S
H886 C863 0.950 . S
H887 C865 0.950 . S
C888 C889 1.349 . S
C888 C890 1.327 . S
C888 H913 0.950 . S
C889 C888 1.349 . S
C889 C905 1.349 . S
C890 C888 1.327 . S
C890 C909 1.429 . S
C890 H914 0.950 . S
C891 C908 1.574 . S
C891 C910 1.368 . S
C891 H915 0.949 . S
H892 C896 0.949 . S
C893 C894 1.349 . S
C893 C895 1.327 . S
C893 H916 0.950 . S
C894 C893 1.349 . S
C894 C906 1.349 . S
C895 C893 1.327 . S
C895 C911 1.429 . S
C895 H917 0.950 . S
C896 H892 0.949 . S
C896 C904 1.574 . S
C896 C912 1.368 . S
H897 C905 0.950 . S
H898 C903 0.950 . S
H899 C904 0.949 . S
H900 C906 0.950 . S
H901 C907 0.950 . S
H902 C908 0.949 . S
C903 H898 0.950 . S
C903 C905 1.327 . S
C903 C909 1.429 . S
C904 C896 1.574 . S
C904 H899 0.949 . S
C904 C910 1.368 . S
C905 C889 1.349 . S
C905 H897 0.950 . S
C905 C903 1.327 . S
C906 C894 1.349 . S
C906 H900 0.950 . S
C906 C907 1.327 . S
C907 H901 0.950 . S
C907 C906 1.327 . S
C907 C911 1.429 . S
C908 C891 1.574 . S
C908 H902 0.949 . S
C908 C912 1.368 . S
C909 C890 1.429 . S
C909 C903 1.429 . S
C909 C910 1.523 . S
C910 C891 1.368 . S
C910 C904 1.368 . S
C910 C909 1.523 . S
C911 C895 1.429 . S
C911 C907 1.429 . S
C911 C912 1.523 . S
C912 C896 1.368 . S
C912 C908 1.368 . S
C912 C911 1.523 . S
H913 C888 0.950 . S
H914 C890 0.950 . S
H915 C891 0.949 . S
H916 C893 0.950 . S
H917 C895 0.950 . S
C918 C919 1.349 . S
C918 C920 1.327 . S
C918 H943 0.950 . S
C919 C918 1.349 . S
C919 C935 1.349 . S
C920 C918 1.327 . S
C920 C939 1.429 . S
C920 H944 0.950 . S
C921 C938 1.574 . S
C921 C940 1.368 . S
C921 H945 0.949 . S
H922 C926 0.949 . S
C923 C924 1.349 . S
C923 C925 1.327 . S
C923 H946 0.950 . S
C924 C923 1.349 . S
C924 C936 1.349 . S
C925 C923 1.327 . S
C925 C941 1.429 . S
C925 H947 0.950 . S
C926 H922 0.949 . S
C926 C934 1.574 . S
C926 C942 1.368 . S
H927 C935 0.950 . S
H928 C933 0.950 . S
H929 C934 0.949 . S
H930 C936 0.950 . S
H931 C937 0.950 . S
H932 C938 0.949 . S
C933 H928 0.950 . S
C933 C935 1.327 . S
C933 C939 1.429 . S
C934 C926 1.574 . S
C934 H929 0.949 . S
C934 C940 1.368 . S
C935 C919 1.349 . S
C935 H927 0.950 . S
C935 C933 1.327 . S
C936 C924 1.349 . S
C936 H930 0.950 . S
C936 C937 1.327 . S
C937 H931 0.950 . S
C937 C936 1.327 . S
C937 C941 1.429 . S
C938 C921 1.574 . S
C938 H932 0.949 . S
C938 C942 1.368 . S
C939 C920 1.429 . S
C939 C933 1.429 . S
C939 C940 1.523 . S
C940 C921 1.368 . S
C940 C934 1.368 . S
C940 C939 1.523 . S
C941 C925 1.429 . S
C941 C937 1.429 . S
C941 C942 1.523 . S
C942 C926 1.368 . S
C942 C938 1.368 . S
C942 C941 1.523 . S
H943 C918 0.950 . S
H944 C920 0.950 . S
H945 C921 0.949 . S
H946 C923 0.950 . S
H947 C925 0.950 . S
C948 C949 1.349 . S
C948 C950 1.327 . S
C948 H973 0.950 . S
C949 C948 1.349 . S
C949 C965 1.349 . S
C950 C948 1.327 . S
C950 C969 1.429 . S
C950 H974 0.950 . S
C951 C968 1.574 1_556 S
C951 C970 1.368 . S
C951 H975 0.949 . S
H952 C956 0.949 . S
C953 C954 1.349 . S
C953 C955 1.327 . S
C953 H976 0.950 . S
C954 C953 1.349 . S
C954 C966 1.349 . S
C955 C953 1.327 . S
C955 C971 1.429 . S
C955 H977 0.950 . S
C956 H952 0.949 . S
C956 C964 1.574 1_554 S
C956 C972 1.368 . S
H957 C965 0.950 . S
H958 C963 0.950 . S
H959 C964 0.949 . S
H960 C966 0.950 . S
H961 C967 0.950 . S
H962 C968 0.949 . S
C963 H958 0.950 . S
C963 C965 1.327 . S
C963 C969 1.429 . S
C964 C956 1.574 1_556 S
C964 H959 0.949 . S
C964 C970 1.368 . S
C965 C949 1.349 . S
C965 H957 0.950 . S
C965 C963 1.327 . S
C966 C954 1.349 . S
C966 H960 0.950 . S
C966 C967 1.327 . S
C967 H961 0.950 . S
C967 C966 1.327 . S
C967 C971 1.429 . S
C968 C951 1.574 1_554 S
C968 H962 0.949 . S
C968 C972 1.368 . S
C969 C950 1.429 . S
C969 C963 1.429 . S
C969 C970 1.523 . S
C970 C951 1.368 . S
C970 C964 1.368 . S
C970 C969 1.523 . S
C971 C955 1.429 . S
C971 C967 1.429 . S
C971 C972 1.523 . S
C972 C956 1.368 . S
C972 C968 1.368 . S
C972 C971 1.523 . S
H973 C948 0.950 . S
H974 C950 0.950 . S
H975 C951 0.949 . S
H976 C953 0.950 . S
H977 C955 0.950 . S
C978 C979 1.349 . S
C978 C980 1.327 . S
C978 H1003 0.950 . S
C979 C978 1.349 . S
C979 C995 1.349 . S
C980 C978 1.327 . S
C980 C999 1.429 . S
C980 H1004 0.950 . S
C981 C998 1.574 . S
C981 C1000 1.368 . S
C981 H1005 0.949 . S
H982 C986 0.949 . S
C983 C984 1.349 . S
C983 C985 1.327 . S
C983 H1006 0.950 . S
C984 C983 1.349 . S
C984 C996 1.349 . S
C985 C983 1.327 . S
C985 C1001 1.429 . S
C985 H1007 0.950 . S
C986 H982 0.949 . S
C986 C994 1.574 . S
C986 C1002 1.368 . S
H987 C995 0.950 . S
H988 C993 0.950 . S
H989 C994 0.949 . S
H990 C996 0.950 . S
H991 C997 0.950 . S
H992 C998 0.949 . S
C993 H988 0.950 . S
C993 C995 1.327 . S
C993 C999 1.429 . S
C994 C986 1.574 . S
C994 H989 0.949 . S
C994 C1000 1.368 . S
C995 C979 1.349 . S
C995 H987 0.950 . S
C995 C993 1.327 . S
C996 C984 1.349 . S
C996 H990 0.950 . S
C996 C997 1.327 . S
C997 H991 0.950 . S
C997 C996 1.327 . S
C997 C1001 1.429 . S
C998 C981 1.574 . S
C998 H992 0.949 . S
C998 C1002 1.368 . S
C999 C980 1.429 . S
C999 C993 1.429 . S
C999 C1000 1.523 . S
C1000 C981 1.368 . S
C1000 C994 1.368 . S
C1000 C999 1.523 . S
C1001 C985 1.429 . S
C1001 C997 1.429 . S
C1001 C1002 1.523 . S
C1002 C986 1.368 . S
C1002 C998 1.368 . S
C1002 C1001 1.523 . S
H1003 C978 0.950 . S
H1004 C980 0.950 . S
H1005 C981 0.949 . S
H1006 C983 0.950 . S
H1007 C985 0.950 . S
C1008 C1009 1.349 . S
C1008 C1010 1.327 . S
C1008 H1033 0.950 . S
C1009 C1008 1.349 . S
C1009 C1025 1.349 . S
C1010 C1008 1.327 . S
C1010 C1029 1.429 . S
C1010 H1034 0.950 . S
C1011 C1028 1.574 . S
C1011 C1030 1.368 . S
C1011 H1035 0.949 . S
H1012 C1016 0.949 . S
C1013 C1014 1.349 . S
C1013 C1015 1.327 . S
C1013 H1036 0.950 . S
C1014 C1013 1.349 . S
C1014 C1026 1.349 . S
C1015 C1013 1.327 . S
C1015 C1031 1.429 . S
C1015 H1037 0.950 . S
C1016 H1012 0.949 . S
C1016 C1024 1.574 . S
C1016 C1032 1.368 . S
H1017 C1025 0.950 . S
H1018 C1023 0.950 . S
H1019 C1024 0.949 . S
H1020 C1026 0.950 . S
H1021 C1027 0.950 . S
H1022 C1028 0.949 . S
C1023 H1018 0.950 . S
C1023 C1025 1.327 . S
C1023 C1029 1.429 . S
C1024 C1016 1.574 . S
C1024 H1019 0.949 . S
C1024 C1030 1.368 . S
C1025 C1009 1.349 . S
C1025 H1017 0.950 . S
C1025 C1023 1.327 . S
C1026 C1014 1.349 . S
C1026 H1020 0.950 . S
C1026 C1027 1.327 . S
C1027 H1021 0.950 . S
C1027 C1026 1.327 . S
C1027 C1031 1.429 . S
C1028 C1011 1.574 . S
C1028 H1022 0.949 . S
C1028 C1032 1.368 . S
C1029 C1010 1.429 . S
C1029 C1023 1.429 . S
C1029 C1030 1.523 . S
C1030 C1011 1.368 . S
C1030 C1024 1.368 . S
C1030 C1029 1.523 . S
C1031 C1015 1.429 . S
C1031 C1027 1.429 . S
C1031 C1032 1.523 . S
C1032 C1016 1.368 . S
C1032 C1028 1.368 . S
C1032 C1031 1.523 . S
H1033 C1008 0.950 . S
H1034 C1010 0.950 . S
H1035 C1011 0.949 . S
H1036 C1013 0.950 . S
H1037 C1015 0.950 . S
C1038 C1039 1.349 . S
C1038 C1040 1.327 . S
C1038 H1063 0.950 . S
C1039 C1038 1.349 . S
C1039 C1055 1.349 . S
C1040 C1038 1.327 . S
C1040 C1059 1.429 . S
C1040 H1064 0.950 . S
C1041 C1058 1.574 1_556 S
C1041 C1060 1.368 . S
C1041 H1065 0.949 . S
H1042 C1046 0.949 . S
C1043 C1044 1.349 . S
C1043 C1045 1.327 . S
C1043 H1066 0.950 . S
C1044 C1043 1.349 . S
C1044 C1056 1.349 . S
C1045 C1043 1.327 . S
C1045 C1061 1.429 . S
C1045 H1067 0.950 . S
C1046 H1042 0.949 . S
C1046 C1054 1.574 1_554 S
C1046 C1062 1.368 . S
H1047 C1055 0.950 . S
H1048 C1053 0.950 . S
H1049 C1054 0.949 . S
H1050 C1056 0.950 . S
H1051 C1057 0.950 . S
H1052 C1058 0.949 . S
C1053 H1048 0.950 . S
C1053 C1055 1.327 . S
C1053 C1059 1.429 . S
C1054 C1046 1.574 1_556 S
C1054 H1049 0.949 . S
C1054 C1060 1.368 . S
C1055 C1039 1.349 . S
C1055 H1047 0.950 . S
C1055 C1053 1.327 . S
C1056 C1044 1.349 . S
C1056 H1050 0.950 . S
C1056 C1057 1.327 . S
C1057 H1051 0.950 . S
C1057 C1056 1.327 . S
C1057 C1061 1.429 . S
C1058 C1041 1.574 1_554 S
C1058 H1052 0.949 . S
C1058 C1062 1.368 . S
C1059 C1040 1.429 . S
C1059 C1053 1.429 . S
C1059 C1060 1.523 . S
C1060 C1041 1.368 . S
C1060 C1054 1.368 . S
C1060 C1059 1.523 . S
C1061 C1045 1.429 . S
C1061 C1057 1.429 . S
C1061 C1062 1.523 . S
C1062 C1046 1.368 . S
C1062 C1058 1.368 . S
C1062 C1061 1.523 . S
H1063 C1038 0.950 . S
H1064 C1040 0.950 . S
H1065 C1041 0.949 . S
H1066 C1043 0.950 . S
H1067 C1045 0.950 . S
C1068 C1069 1.349 . S
C1068 C1070 1.327 . S
C1068 H1093 0.950 . S
C1069 C1068 1.349 . S
C1069 C1085 1.349 . S
C1070 C1068 1.327 . S
C1070 C1089 1.429 . S
C1070 H1094 0.950 . S
C1071 C1088 1.574 . S
C1071 C1090 1.368 . S
C1071 H1095 0.949 . S
H1072 C1076 0.949 . S
C1073 C1074 1.349 . S
C1073 C1075 1.327 . S
C1073 H1096 0.950 . S
C1074 C1073 1.349 . S
C1074 C1086 1.349 . S
C1075 C1073 1.327 . S
C1075 C1091 1.429 . S
C1075 H1097 0.950 . S
C1076 H1072 0.949 . S
C1076 C1084 1.574 . S
C1076 C1092 1.368 . S
H1077 C1085 0.950 . S
H1078 C1083 0.950 . S
H1079 C1084 0.949 . S
H1080 C1086 0.950 . S
H1081 C1087 0.950 . S
H1082 C1088 0.949 . S
C1083 H1078 0.950 . S
C1083 C1085 1.327 . S
C1083 C1089 1.429 . S
C1084 C1076 1.574 . S
C1084 H1079 0.949 . S
C1084 C1090 1.368 . S
C1085 C1069 1.349 . S
C1085 H1077 0.950 . S
C1085 C1083 1.327 . S
C1086 C1074 1.349 . S
C1086 H1080 0.950 . S
C1086 C1087 1.327 . S
C1087 H1081 0.950 . S
C1087 C1086 1.327 . S
C1087 C1091 1.429 . S
C1088 C1071 1.574 . S
C1088 H1082 0.949 . S
C1088 C1092 1.368 . S
C1089 C1070 1.429 . S
C1089 C1083 1.429 . S
C1089 C1090 1.523 . S
C1090 C1071 1.368 . S
C1090 C1084 1.368 . S
C1090 C1089 1.523 . S
C1091 C1075 1.429 . S
C1091 C1087 1.429 . S
C1091 C1092 1.523 . S
C1092 C1076 1.368 . S
C1092 C1088 1.368 . S
C1092 C1091 1.523 . S
H1093 C1068 0.950 . S
H1094 C1070 0.950 . S
H1095 C1071 0.949 . S
H1096 C1073 0.950 . S
H1097 C1075 0.950 . S
C1098 C1099 1.349 . S
C1098 C1100 1.327 . S
C1098 H1123 0.950 . S
C1099 C1098 1.349 . S
C1099 C1115 1.349 . S
C1100 C1098 1.327 . S
C1100 C1119 1.429 . S
C1100 H1124 0.950 . S
C1101 C1118 1.574 . S
C1101 C1120 1.368 . S
C1101 H1125 0.949 . S
H1102 C1106 0.949 . S
C1103 C1104 1.349 . S
C1103 C1105 1.327 . S
C1103 H1126 0.950 . S
C1104 C1103 1.349 . S
C1104 C1116 1.349 . S
C1105 C1103 1.327 . S
C1105 C1121 1.429 . S
C1105 H1127 0.950 . S
C1106 H1102 0.949 . S
C1106 C1114 1.574 . S
C1106 C1122 1.368 . S
H1107 C1115 0.950 . S
H1108 C1113 0.950 . S
H1109 C1114 0.949 . S
H1110 C1116 0.950 . S
H1111 C1117 0.950 . S
H1112 C1118 0.949 . S
C1113 H1108 0.950 . S
C1113 C1115 1.327 . S
C1113 C1119 1.429 . S
C1114 C1106 1.574 . S
C1114 H1109 0.949 . S
C1114 C1120 1.368 . S
C1115 C1099 1.349 . S
C1115 H1107 0.950 . S
C1115 C1113 1.327 . S
C1116 C1104 1.349 . S
C1116 H1110 0.950 . S
C1116 C1117 1.327 . S
C1117 H1111 0.950 . S
C1117 C1116 1.327 . S
C1117 C1121 1.429 . S
C1118 C1101 1.574 . S
C1118 H1112 0.949 . S
C1118 C1122 1.368 . S
C1119 C1100 1.429 . S
C1119 C1113 1.429 . S
C1119 C1120 1.523 . S
C1120 C1101 1.368 . S
C1120 C1114 1.368 . S
C1120 C1119 1.523 . S
C1121 C1105 1.429 . S
C1121 C1117 1.429 . S
C1121 C1122 1.523 . S
C1122 C1106 1.368 . S
C1122 C1118 1.368 . S
C1122 C1121 1.523 . S
H1123 C1098 0.950 . S
H1124 C1100 0.950 . S
H1125 C1101 0.949 . S
H1126 C1103 0.950 . S
H1127 C1105 0.950 . S
C1128 C1129 1.349 . S
C1128 C1130 1.327 . S
C1128 H1153 0.950 . S
C1129 C1128 1.349 . S
C1129 C1145 1.349 . S
C1130 C1128 1.327 . S
C1130 C1149 1.429 . S
C1130 H1154 0.950 . S
C1131 C1148 1.574 . S
C1131 C1150 1.368 . S
C1131 H1155 0.949 . S
H1132 C1136 0.949 . S
C1133 C1134 1.349 . S
C1133 C1135 1.327 . S
C1133 H1156 0.950 . S
C1134 C1133 1.349 . S
C1134 C1146 1.349 . S
C1135 C1133 1.327 . S
C1135 C1151 1.429 . S
C1135 H1157 0.950 . S
C1136 H1132 0.949 . S
C1136 C1144 1.574 . S
C1136 C1152 1.368 . S
H1137 C1145 0.950 . S
H1138 C1143 0.950 . S
H1139 C1144 0.949 . S
H1140 C1146 0.950 . S
H1141 C1147 0.950 . S
H1142 C1148 0.949 . S
C1143 H1138 0.950 . S
C1143 C1145 1.327 . S
C1143 C1149 1.429 . S
C1144 C1136 1.574 . S
C1144 H1139 0.949 . S
C1144 C1150 1.368 1_455 S
C1145 C1129 1.349 . S
C1145 H1137 0.950 . S
C1145 C1143 1.327 . S
C1146 C1134 1.349 . S
C1146 H1140 0.950 . S
C1146 C1147 1.327 . S
C1147 H1141 0.950 . S
C1147 C1146 1.327 . S
C1147 C1151 1.429 . S
C1148 C1131 1.574 . S
C1148 H1142 0.949 . S
C1148 C1152 1.368 1_655 S
C1149 C1130 1.429 . S
C1149 C1143 1.429 . S
C1149 C1150 1.523 . S
C1150 C1131 1.368 . S
C1150 C1144 1.368 1_655 S
C1150 C1149 1.523 . S
C1151 C1135 1.429 . S
C1151 C1147 1.429 . S
C1151 C1152 1.523 . S
C1152 C1136 1.368 . S
C1152 C1148 1.368 1_455 S
C1152 C1151 1.523 . S
H1153 C1128 0.950 . S
H1154 C1130 0.950 . S
H1155 C1131 0.949 . S
H1156 C1133 0.950 . S
H1157 C1135 0.950 . S
C1158 C1159 1.349 . S
C1158 C1160 1.327 . S
C1158 H1183 0.950 . S
C1159 C1158 1.349 . S
C1159 C1175 1.349 . S
C1160 C1158 1.327 . S
C1160 C1179 1.429 . S
C1160 H1184 0.950 . S
C1161 C1178 1.574 . S
C1161 C1180 1.368 1_545 S
C1161 H1185 0.957 . S
H1162 C1166 0.957 . S
C1163 C1164 1.349 . S
C1163 C1165 1.327 . S
C1163 H1186 0.950 . S
C1164 C1163 1.349 . S
C1164 C1176 1.349 . S
C1165 C1163 1.327 . S
C1165 C1181 1.429 . S
C1165 H1187 0.950 . S
C1166 H1162 0.957 . S
C1166 C1174 1.574 . S
C1166 C1182 1.368 1_565 S
H1167 C1175 0.950 . S
H1168 C1173 0.950 . S
H1169 C1174 0.949 . S
H1170 C1176 0.950 . S
H1171 C1177 0.950 . S
H1172 C1178 0.949 . S
C1173 H1168 0.950 . S
C1173 C1175 1.327 . S
C1173 C1179 1.429 . S
C1174 C1166 1.574 . S
C1174 H1169 0.949 . S
C1174 C1180 1.368 . S
C1175 C1159 1.349 . S
C1175 H1167 0.950 . S
C1175 C1173 1.327 . S
C1176 C1164 1.349 . S
C1176 H1170 0.950 . S
C1176 C1177 1.327 . S
C1177 H1171 0.950 . S
C1177 C1176 1.327 . S
C1177 C1181 1.429 . S
C1178 C1161 1.574 . S
C1178 H1172 0.949 . S
C1178 C1182 1.368 . S
C1179 C1160 1.429 . S
C1179 C1173 1.429 . S
C1179 C1180 1.523 . S
C1180 C1161 1.368 1_565 S
C1180 C1174 1.368 . S
C1180 C1179 1.523 . S
C1181 C1165 1.429 . S
C1181 C1177 1.429 . S
C1181 C1182 1.523 . S
C1182 C1166 1.368 1_545 S
C1182 C1178 1.368 . S
C1182 C1181 1.523 . S
H1183 C1158 0.950 . S
H1184 C1160 0.950 . S
H1185 C1161 0.957 . S
H1186 C1163 0.950 . S
H1187 C1165 0.950 . S
C1188 C1189 1.349 . S
C1188 C1190 1.327 . S
C1188 H1213 0.950 . S
C1189 C1188 1.349 . S
C1189 C1205 1.349 . S
C1190 C1188 1.327 . S
C1190 C1209 1.429 . S
C1190 H1214 0.950 . S
C1191 C1208 1.574 . S
C1191 C1210 1.368 . S
C1191 H1215 0.949 . S
H1192 C1196 0.949 . S
C1193 C1194 1.349 . S
C1193 C1195 1.327 . S
C1193 H1216 0.950 . S
C1194 C1193 1.349 . S
C1194 C1206 1.349 . S
C1195 C1193 1.327 . S
C1195 C1211 1.429 . S
C1195 H1217 0.950 . S
C1196 H1192 0.949 . S
C1196 C1204 1.574 . S
C1196 C1212 1.368 . S
H1197 C1205 0.950 . S
H1198 C1203 0.950 . S
H1199 C1204 0.949 . S
H1200 C1206 0.950 . S
H1201 C1207 0.950 . S
H1202 C1208 0.949 . S
C1203 H1198 0.950 . S
C1203 C1205 1.327 . S
C1203 C1209 1.429 . S
C1204 C1196 1.574 . S
C1204 H1199 0.949 . S
C1204 C1210 1.368 . S
C1205 C1189 1.349 . S
C1205 H1197 0.950 . S
C1205 C1203 1.327 . S
C1206 C1194 1.349 . S
C1206 H1200 0.950 . S
C1206 C1207 1.327 . S
C1207 H1201 0.950 . S
C1207 C1206 1.327 . S
C1207 C1211 1.429 . S
C1208 C1191 1.574 . S
C1208 H1202 0.949 . S
C1208 C1212 1.368 . S
C1209 C1190 1.429 . S
C1209 C1203 1.429 . S
C1209 C1210 1.523 . S
C1210 C1191 1.368 . S
C1210 C1204 1.368 . S
C1210 C1209 1.523 . S
C1211 C1195 1.429 . S
C1211 C1207 1.429 . S
C1211 C1212 1.523 . S
C1212 C1196 1.368 . S
C1212 C1208 1.368 . S
C1212 C1211 1.523 . S
H1213 C1188 0.950 . S
H1214 C1190 0.950 . S
H1215 C1191 0.949 . S
H1216 C1193 0.950 . S
H1217 C1195 0.950 . S
C1218 C1219 1.349 . S
C1218 C1220 1.327 . S
C1218 H1243 0.950 . S
C1219 C1218 1.349 . S
C1219 C1235 1.349 . S
C1220 C1218 1.327 . S
C1220 C1239 1.429 . S
C1220 H1244 0.950 . S
C1221 C1238 1.574 . S
C1221 C1240 1.368 . S
C1221 H1245 0.949 . S
H1222 C1226 0.949 . S
C1223 C1224 1.349 . S
C1223 C1225 1.327 . S
C1223 H1246 0.950 . S
C1224 C1223 1.349 . S
C1224 C1236 1.349 . S
C1225 C1223 1.327 . S
C1225 C1241 1.429 . S
C1225 H1247 0.950 . S
C1226 H1222 0.949 . S
C1226 C1234 1.574 . S
C1226 C1242 1.368 . S
H1227 C1235 0.950 . S
H1228 C1233 0.950 . S
H1229 C1234 0.949 . S
H1230 C1236 0.950 . S
H1231 C1237 0.950 . S
H1232 C1238 0.949 . S
C1233 H1228 0.950 . S
C1233 C1235 1.327 . S
C1233 C1239 1.429 . S
C1234 C1226 1.574 . S
C1234 H1229 0.949 . S
C1234 C1240 1.368 1_655 S
C1235 C1219 1.349 . S
C1235 H1227 0.950 . S
C1235 C1233 1.327 . S
C1236 C1224 1.349 . S
C1236 H1230 0.950 . S
C1236 C1237 1.327 . S
C1237 H1231 0.950 . S
C1237 C1236 1.327 . S
C1237 C1241 1.429 . S
C1238 C1221 1.574 . S
C1238 H1232 0.949 . S
C1238 C1242 1.368 1_455 S
C1239 C1220 1.429 . S
C1239 C1233 1.429 . S
C1239 C1240 1.523 . S
C1240 C1221 1.368 . S
C1240 C1234 1.368 1_455 S
C1240 C1239 1.523 . S
C1241 C1225 1.429 . S
C1241 C1237 1.429 . S
C1241 C1242 1.523 . S
C1242 C1226 1.368 . S
C1242 C1238 1.368 1_655 S
C1242 C1241 1.523 . S
H1243 C1218 0.950 . S
H1244 C1220 0.950 . S
H1245 C1221 0.949 . S
H1246 C1223 0.950 . S
H1247 C1225 0.950 . S
C1248 C1249 1.349 . S
C1248 C1250 1.327 . S
C1248 H1273 0.950 . S
C1249 C1248 1.349 . S
C1249 C1265 1.349 . S
C1250 C1248 1.327 . S
C1250 C1269 1.429 . S
C1250 H1274 0.950 . S
C1251 C1268 1.557 1_545 S
C1251 C1270 1.368 . S
C1251 H1275 0.949 . S
H1252 C1256 0.949 . S
C1253 C1254 1.349 . S
C1253 C1255 1.327 . S
C1253 H1276 0.950 . S
C1254 C1253 1.349 . S
C1254 C1266 1.349 . S
C1255 C1253 1.327 . S
C1255 C1271 1.429 . S
C1255 H1277 0.950 . S
C1256 H1252 0.949 . S
C1256 C1264 1.557 1_565 S
C1256 C1272 1.368 . S
H1257 C1265 0.950 . S
H1258 C1263 0.950 . S
H1259 C1264 0.956 . S
H1260 C1266 0.950 . S
H1261 C1267 0.950 . S
H1262 C1268 0.956 . S
C1263 H1258 0.950 . S
C1263 C1265 1.327 . S
C1263 C1269 1.429 . S
C1264 C1256 1.557 1_545 S
C1264 H1259 0.956 . S
C1264 C1270 1.378 . S
C1265 C1249 1.349 . S
C1265 H1257 0.950 . S
C1265 C1263 1.327 . S
C1266 C1254 1.349 . S
C1266 H1260 0.950 . S
C1266 C1267 1.327 . S
C1267 H1261 0.950 . S
C1267 C1266 1.327 . S
C1267 C1271 1.429 . S
C1268 C1251 1.557 1_565 S
C1268 H1262 0.956 . S
C1268 C1272 1.378 . S
C1269 C1250 1.429 . S
C1269 C1263 1.429 . S
C1269 C1270 1.523 . S
C1270 C1251 1.368 . S
C1270 C1264 1.378 . S
C1270 C1269 1.523 . S
C1271 C1255 1.429 . S
C1271 C1267 1.429 . S
C1271 C1272 1.523 . S
C1272 C1256 1.368 . S
C1272 C1268 1.378 . S
C1272 C1271 1.523 . S
H1273 C1248 0.950 . S
H1274 C1250 0.950 . S
H1275 C1251 0.949 . S
H1276 C1253 0.950 . S
H1277 C1255 0.950 . S
C1278 C1279 1.349 . S
C1278 C1280 1.327 . S
C1278 H1303 0.950 . S
C1279 C1278 1.349 . S
C1279 C1295 1.349 . S
C1280 C1278 1.327 . S
C1280 C1299 1.429 . S
C1280 H1304 0.950 . S
C1281 C1298 1.574 . S
C1281 C1300 1.368 . S
C1281 H1305 0.949 . S
H1282 C1286 0.949 . S
C1283 C1284 1.349 . S
C1283 C1285 1.327 . S
C1283 H1306 0.950 . S
C1284 C1283 1.349 . S
C1284 C1296 1.349 . S
C1285 C1283 1.327 . S
C1285 C1301 1.429 . S
C1285 H1307 0.950 . S
C1286 H1282 0.949 . S
C1286 C1294 1.574 . S
C1286 C1302 1.368 . S
H1287 C1295 0.950 . S
H1288 C1293 0.950 . S
H1289 C1294 0.949 . S
H1290 C1296 0.950 . S
H1291 C1297 0.950 . S
H1292 C1298 0.949 . S
C1293 H1288 0.950 . S
C1293 C1295 1.327 . S
C1293 C1299 1.429 . S
C1294 C1286 1.574 . S
C1294 H1289 0.949 . S
C1294 C1300 1.368 . S
C1295 C1279 1.349 . S
C1295 H1287 0.950 . S
C1295 C1293 1.327 . S
C1296 C1284 1.349 . S
C1296 H1290 0.950 . S
C1296 C1297 1.327 . S
C1297 H1291 0.950 . S
C1297 C1296 1.327 . S
C1297 C1301 1.429 . S
C1298 C1281 1.574 . S
C1298 H1292 0.949 . S
C1298 C1302 1.368 . S
C1299 C1280 1.429 . S
C1299 C1293 1.429 . S
C1299 C1300 1.523 . S
C1300 C1281 1.368 . S
C1300 C1294 1.368 . S
C1300 C1299 1.523 . S
C1301 C1285 1.429 . S
C1301 C1297 1.429 . S
C1301 C1302 1.523 . S
C1302 C1286 1.368 . S
C1302 C1298 1.368 . S
C1302 C1301 1.523 . S
H1303 C1278 0.950 . S
H1304 C1280 0.950 . S
H1305 C1281 0.949 . S
H1306 C1283 0.950 . S
H1307 C1285 0.950 . S
C409 C111 1.394 . S
C414 C9 1.394 . S
C439 C145 1.394 . S
C444 C43 1.394 . S
C469 C179 1.394 . S
C474 C77 1.394 . S
C499 C213 1.394 . S
C504 C315 1.394 . S
C529 C247 1.394 . S
C534 C349 1.394 . S
C559 C281 1.394 . S
C564 C383 1.394 . S
C589 C107 0.375 . S
C594 C5 0.375 . S
C619 C39 0.375 . S
C624 C141 0.375 . S
C649 C175 0.375 . S
C654 C73 0.375 . S
C679 C209 0.375 . S
C684 C311 0.375 . S
C709 C345 0.375 . S
C714 C243 0.375 . S
C739 C277 0.375 . S
C744 C379 0.375 . S
C769 C274 1.184 . S
C774 C2 1.184 . S
C799 C36 1.184 . S
C804 C308 1.184 . S
C829 C70 1.184 . S
C834 C342 1.184 . S
C859 C104 1.184 . S
C864 C376 1.184 . S
C889 C138 1.184 . S
C894 C206 1.184 . S
C919 C240 1.183 . S
C924 C172 1.183 . S
C949 C360 1.670 . S
C954 C20 1.670 . S
C979 C394 1.670 . S
C984 C54 1.670 . S
C1009 C224 1.670 . S
C1014 C88 1.670 . S
C1039 C258 1.670 . S
C1044 C122 1.670 . S
C1069 C156 1.671 . S
C1074 C292 1.671 . S
C1099 C190 1.671 . S
C1104 C326 1.671 . S
C1129 C407 0.953 . S
C1134 C33 0.953 . S
C1159 C237 0.953 . S
C1164 C67 0.953 . S
C1189 C101 0.953 . S
C1194 C271 0.953 . S
C1219 C305 0.953 . S
C1224 C135 0.953 . S
C1249 C339 0.953 . S
C1254 C169 0.953 . S
C1279 C373 0.953 . S
C1284 C203 0.953 . S
