# Generated by pormake.
# Topology kag, (6)-cn, num edge types: 1
# Building blocks:
#     Node 0, Type 0, BuildingBlock: NUHQIS_clean_sbu_0, # of connection points: 6
#     Node 1, Type 0, BuildingBlock: NUHQIS_clean_sbu_0, # of connection points: 6
#     Node 2, Type 0, BuildingBlock: NUHQIS_clean_sbu_0, # of connection points: 6
#     Edge 3, Type (0, 0), BuildingBlock: EZIPEK_clean_linker_0, # of connection points: 2
#     Edge 4, Type (0, 0), BuildingBlock: EZIPEK_clean_linker_0, # of connection points: 2
#     Edge 5, Type (0, 0), BuildingBlock: EZIPEK_clean_linker_0, # of connection points: 2
#     Edge 6, Type (0, 0), BuildingBlock: EZIPEK_clean_linker_0, # of connection points: 2
#     Edge 7, Type (0, 0), BuildingBlock: EZIPEK_clean_linker_0, # of connection points: 2
#     Edge 8, Type (0, 0), BuildingBlock: EZIPEK_clean_linker_0, # of connection points: 2
#     Edge 9, Type (0, 0), BuildingBlock: EZIPEK_clean_linker_0, # of connection points: 2
#     Edge 10, Type (0, 0), BuildingBlock: EZIPEK_clean_linker_0, # of connection points: 2
#     Edge 11, Type (0, 0), BuildingBlock: EZIPEK_clean_linker_0, # of connection points: 2
# Relax obj value: 0.121
# Max RMSD: 0.234
# Mean RMSD: 0.132
data_MOF--net-kag--node1-NUHQIS_clean_sbu_0--edge1-EZIPEK_clean_linker_0
_symmetry_space_group_name_H-M    P1
_symmetry_Int_Tables_number       1
_symmetry_cell_setting            triclinic
loop_
_symmetry_equiv_pos_as_xyz
'x, y, z'
_cell_length_a     41.025103
_cell_length_b     23.697576
_cell_length_c     11.235218
_cell_angle_alpha  87.407057
_cell_angle_beta   95.705448
_cell_angle_gamma 123.36217
loop_
_atom_site_label
_atom_site_type_symbol
_atom_site_fract_x
_atom_site_fract_y
_atom_site_fract_z
_atom_type_partial_charge
Tb0 Tb 0.05114 0.48617 0.98404 0.0
Eu1 Eu 1.03939 0.61233 0.97115 0.0
C2 C 0.04633 0.54755 0.21852 0.0
C3 C 0.96514 0.4561 0.97579 0.0
C4 C 0.10739 0.40817 -0.00346 0.0
C5 C 0.14975 0.36735 0.05019 0.0
C6 C 0.11295 0.35843 0.04655 0.0
C7 C 0.13929 0.46738 0.95201 0.0
C8 C 0.17601 0.47651 0.95642 0.0
C9 C 0.18139 0.42629 0.00441 0.0
C10 C 0.06874 0.39912 -0.00783 0.0
O11 O 1.03092 0.49147 0.79856 0.0
O12 O 0.05712 0.6049 0.79141 0.0
O13 O 0.10442 0.66137 0.01609 0.0
O14 O 0.10817 0.57532 0.94832 0.0
C15 C 0.04438 0.54754 0.73738 0.0
O16 O 1.01688 0.66682 0.87151 0.0
O17 O 0.04627 0.70124 0.04945 0.0
O18 O 1.02675 0.56933 0.1563 0.0
O19 O 0.06609 0.5288 0.16548 0.0
O20 O 0.98863 0.43541 0.01004 0.0
O21 O 0.97855 0.51817 0.9399 0.0
C22 C 0.12492 0.63824 0.98369 0.0
O23 O 0.062 0.42026 0.08579 0.0
O24 O 0.05804 0.41817 0.89391 0.0
C25 C 0.98986 0.70334 -0.00279 0.0
C26 C 0.91856 0.68534 0.04089 0.0
C27 C 0.94165 0.73227 0.95594 0.0
C28 C 0.9771 0.74109 0.93394 0.0
C29 C 0.96721 0.65774 0.08462 0.0
C30 C 0.93175 0.64882 0.10645 0.0
C31 C 1.0241 0.70554 0.96256 0.0
H32 H 0.15349 0.32806 0.08733 0.0
H33 H 0.08881 0.31261 0.08186 0.0
H34 H 0.1358 0.50635 0.9124 0.0
H35 H 0.20009 0.52222 0.92058 0.0
H36 H 0.93171 0.76077 0.90476 0.0
H37 H 0.99397 0.77583 0.86528 0.0
H38 H 0.97647 0.6278 0.13372 0.0
H39 H 0.91419 0.61243 0.17222 0.0
Tb40 Tb 0.59429 0.09727 0.98043 0.0
Eu41 Eu 0.49692 1.00615 0.96277 0.0
C42 C 0.54915 0.05221 0.21313 0.0
C43 C 0.546 0.93074 0.9734 0.0
C44 C 0.71175 0.20707 -0.01501 0.0
C45 C 0.77668 0.24406 0.08168 0.0
C46 C 0.73568 0.20597 0.08281 0.0
C47 C 0.72992 0.24693 0.8858 0.0
C48 C 0.77086 0.28473 0.88452 0.0
C49 C 0.79465 0.28374 0.98244 0.0
C50 C 0.66815 0.16599 -0.01527 0.0
O51 O 0.57356 0.05678 0.79811 0.0
O52 O 0.51426 1.04586 0.77719 0.0
O53 O 0.51371 0.11618 0.98087 0.0
O54 O 0.58004 0.17666 0.95928 0.0
C55 C 0.54425 0.0524 0.73051 0.0
O56 O 0.43896 0.92953 0.87496 0.0
O57 O 0.44352 0.978 0.04296 0.0
O58 O 0.5189 1.00141 0.15254 0.0
O59 O 0.57858 0.10188 0.15908 0.0
O60 O 0.57926 0.99062 -0.00215 0.0
O61 O 0.51236 0.92645 0.94889 0.0
C62 C 0.54742 0.17496 0.97052 0.0
O63 O 0.64919 0.1235 0.06864 0.0
O64 O 0.64542 0.17042 0.90038 0.0
C65 C 0.37704 0.8929 0.95969 0.0
C66 C 0.29448 0.81129 0.96636 0.0
C67 C 0.3118 0.81117 0.86464 0.0
C68 C 0.35269 0.85143 0.86144 0.0
C69 C 0.35948 0.89333 0.06088 0.0
C70 C 0.31867 0.85286 0.06424 0.0
C71 C 0.42052 0.93369 0.95911 0.0
H72 H 0.79443 0.2428 0.1585 0.0
H73 H 0.72273 0.17579 0.16048 0.0
H74 H 0.71247 0.24884 0.80874 0.0
H75 H 0.78405 0.31524 0.80735 0.0
H76 H 0.29366 0.77944 0.78817 0.0
H77 H 0.36523 0.84978 0.78231 0.0
H78 H 0.37732 0.92436 0.13833 0.0
H79 H 0.30593 0.85371 0.14355 0.0
Tb80 Tb 0.50086 0.50869 0.95575 0.0
Eu81 Eu 0.59494 0.60026 0.97881 0.0
C82 C 0.54592 0.5552 0.7278 0.0
C83 C 0.54827 0.43299 0.97019 0.0
C84 C 0.39365 0.4414 0.96016 0.0
C85 C 0.32362 0.38327 0.97318 0.0
C86 C 0.35638 0.38146 0.95807 0.0
C87 C 0.39803 0.50335 0.98108 0.0
C88 C 0.36513 0.5052 -0.00386 0.0
C89 C 0.32769 0.44514 -0.00933 0.0
C90 C 0.42682 0.43796 0.9332 0.0
O91 O 0.51771 0.54556 0.1407 0.0
O92 O 0.5778 0.55995 0.16373 0.0
O93 O 0.57909 0.67829 0.00299 0.0
O94 O 0.51391 0.61416 0.9352 0.0
C95 C 0.54742 0.55219 0.20959 0.0
O96 O 0.65212 0.66898 0.07494 0.0
O97 O 0.64825 0.64205 0.8896 0.0
O98 O 0.57368 0.60815 0.7897 0.0
O99 O 0.51887 0.50264 0.78279 0.0
O100 O 0.51563 0.43036 -0.0152 0.0
O101 O 0.58115 0.49236 0.95582 0.0
C102 C 0.54589 0.67391 0.96937 0.0
O103 O 0.44848 0.47942 0.85232 0.0
O104 O 0.44783 0.43398 0.02407 0.0
C105 C 0.70556 0.66898 0.00853 0.0
C106 C 0.77205 0.66234 0.04543 0.0
C107 C 0.74356 0.63281 0.12786 0.0
C108 C 0.71028 0.63585 0.10926 0.0
C109 C 0.73413 0.69817 0.92656 0.0
C110 C 0.76707 0.69474 0.94468 0.0
C111 C 0.67133 0.67388 -0.01512 0.0
H112 H 0.29491 0.33658 0.96828 0.0
H113 H 0.3525 0.3333 0.94178 0.0
H114 H 0.42663 0.55015 0.98283 0.0
H115 H 0.36868 0.55338 0.00905 0.0
H116 H 0.74714 0.60764 0.2061 0.0
H117 H 0.68843 0.61255 0.17324 0.0
H118 H 0.73093 0.72376 0.84828 0.0
H119 H 0.7889 0.71779 0.88051 0.0
C120 C 0.08123 0.58634 0.55174 0.0
C121 C 0.04512 0.54608 0.60459 0.0
C122 C 1.01129 0.49959 0.4056 0.0
C123 C 0.04649 0.54531 0.35177 0.0
N124 N 0.11409 0.63863 0.37216 0.0
N125 N 0.97464 0.4721 0.57934 0.0
C126 C 0.08128 0.59037 0.42453 0.0
C127 C 1.00983 0.50457 0.53082 0.0
N128 N 0.11573 0.6186 0.623 0.0
N129 N 0.97954 0.44968 0.33766 0.0
H130 H 0.97218 0.47525 0.66995 0.0
H131 H 0.94773 0.44711 0.52828 0.0
H132 H 0.97984 0.44358 0.24655 0.0
H133 H 0.95434 0.41054 0.37337 0.0
H134 H 0.14314 0.64286 0.59009 0.0
H135 H 0.11705 0.61581 0.71599 0.0
H136 H 0.13893 0.67792 0.41975 0.0
H137 H 0.11545 0.64273 0.27971 0.0
C138 C 0.5473 0.10466 0.40163 0.0
C139 C 0.54913 0.0538 0.34611 0.0
C140 C 0.54276 0.99788 0.5405 0.0
C141 C 0.54465 0.05202 0.59762 0.0
N142 N 0.55511 0.16257 0.58558 0.0
N143 N 0.55513 0.95813 0.36561 0.0
C144 C 0.54866 0.10699 0.52894 0.0
C145 C 0.54864 1.00205 0.41649 0.0
N146 N 0.54254 0.14903 0.33253 0.0
N147 N 0.53384 0.9412 0.60382 0.0
H148 H 0.56014 0.96031 0.27578 0.0
H149 H 0.55917 0.92369 0.4144 0.0
H150 H 0.52852 0.93578 0.69381 0.0
H151 H 0.52812 0.89721 0.56493 0.0
H152 H 0.53681 0.18254 0.36669 0.0
H153 H 0.54083 0.14836 0.23937 0.0
H154 H 0.56253 0.20727 0.54183 0.0
H155 H 0.55633 0.16617 0.6783 0.0
C156 C 0.5496 0.50517 0.53959 0.0
C157 C 0.54596 0.55401 0.59494 0.0
C158 C 0.54692 0.60531 0.39868 0.0
C159 C 0.54705 0.55292 0.34233 0.0
N160 N 0.54186 0.4465 0.35679 0.0
N161 N 0.5347 0.64387 0.57541 0.0
C162 C 0.54659 0.50106 0.41222 0.0
C163 C 0.5429 0.60234 0.52394 0.0
N164 N 0.55762 0.46452 0.60869 0.0
N165 N 0.55217 0.65937 0.33335 0.0
H166 H 0.53124 0.64294 0.66636 0.0
H167 H 0.52788 0.67503 0.52661 0.0
H168 H 0.55564 0.6638 0.24204 0.0
H169 H 0.55658 0.70262 0.3712 0.0
H170 H 0.56476 0.43301 0.57404 0.0
H171 H 0.56071 0.46665 0.70189 0.0
H172 H 0.53699 0.40354 0.40204 0.0
H173 H 0.5393 0.44143 0.26401 0.0
C174 C 0.23078 0.42534 0.89118 0.0
C175 C 0.21983 0.43431 0.00122 0.0
C176 C 0.28029 0.4521 0.10564 0.0
C177 C 0.29205 0.44651 -0.00547 0.0
N178 N 0.28298 0.44244 0.77904 0.0
N179 N 0.23686 0.46874 0.20869 0.0
C180 C 0.26862 0.43764 0.88644 0.0
C181 C 0.24543 0.45144 0.10732 0.0
N182 N 0.20444 0.40256 0.79214 0.0
N183 N 0.30175 0.45578 0.20966 0.0
H184 H 0.21149 0.46848 0.21307 0.0
H185 H 0.25626 0.48858 0.2853 0.0
H186 H 0.32784 0.45776 0.21157 0.0
H187 H 0.29243 0.45224 0.29414 0.0
H188 H 0.20912 0.38782 0.71307 0.0
H189 H 0.17637 0.39291 0.79173 0.0
H190 H 0.26911 0.44371 0.69711 0.0
H191 H 0.31063 0.45142 0.77209 0.0
C192 C 0.8583 0.30442 0.92151 0.0
C193 C 0.83847 0.32648 0.98289 0.0
C194 C 0.90194 0.42773 0.05281 0.0
C195 C 0.92167 0.40924 0.98205 0.0
N196 N 0.91772 0.3346 0.83421 0.0
N197 N 0.84094 0.41462 0.09048 0.0
C198 C 0.89961 0.34855 0.91281 0.0
C199 C 0.8602 0.3897 0.04389 0.0
N200 N 0.83772 0.24073 0.87315 0.0
N201 N 0.92307 0.48014 0.13288 0.0
H202 H 0.81047 0.388 0.08766 0.0
H203 H 0.85498 0.46396 0.12265 0.0
H204 H 0.95351 0.50841 0.14416 0.0
H205 H 0.91052 0.49131 0.19639 0.0
H206 H 0.8509 0.21874 0.83864 0.0
H207 H 0.8075 0.20771 0.87597 0.0
H208 H 0.90266 0.29535 0.77151 0.0
H209 H 0.94766 0.36569 0.82456 0.0
C210 C 0.52244 0.80876 0.04742 0.0
C211 C 0.54623 0.8649 0.97298 0.0
C212 C 0.57052 0.79682 0.89884 0.0
C213 C 0.54509 0.73925 0.96828 0.0
N214 N 0.49366 0.69021 0.10089 0.0
N215 N 0.58892 0.90647 0.81428 0.0
C216 C 0.52003 0.74535 0.03946 0.0
C217 C 0.56939 0.85722 0.89599 0.0
N218 N 0.5036 0.8172 0.13175 0.0
N219 N 0.59602 0.79395 0.83382 0.0
H220 H 0.58918 0.95072 0.80923 0.0
H221 H 0.60229 0.90159 0.74504 0.0
H222 H 0.59529 0.74982 0.82282 0.0
H223 H 0.61916 0.83591 0.7952 0.0
H224 H 0.48958 0.78257 0.19878 0.0
H225 H 0.50485 0.86189 0.14168 0.0
H226 H 0.47096 0.68708 0.14125 0.0
H227 H 0.49289 0.6455 0.10576 0.0
C228 C 0.84543 0.61785 -0.00144 0.0
C229 C 0.87987 0.67323 0.05795 0.0
C230 C 0.8423 0.71624 0.12415 0.0
C231 C 0.80795 0.66129 0.06388 0.0
N232 N 0.77438 0.55254 0.96611 0.0
N233 N 0.91038 0.76605 0.19864 0.0
C234 C 0.80876 0.60953 0.0086 0.0
C235 C 0.87803 0.71956 0.12779 0.0
N236 N 0.8481 0.57509 0.92837 0.0
N237 N 0.84098 0.76652 0.1738 0.0
H238 H 0.93707 0.76994 0.20254 0.0
H239 H 0.91007 0.79698 0.2608 0.0
H240 H 0.81499 0.76432 0.17728 0.0
H241 H 0.86576 0.81202 0.20594 0.0
H242 H 0.82493 0.53841 0.87191 0.0
H243 H 0.87432 0.57871 0.92079 0.0
H244 H 0.77241 0.50992 0.93528 0.0
H245 H 0.74712 0.54559 0.97077 0.0
C246 C 0.18518 0.74397 0.91272 0.0
C247 C 0.16842 0.68441 0.98277 0.0
C248 C 0.23396 0.70481 0.03206 0.0
C249 C 0.25098 0.76736 0.97123 0.0
N250 N 0.24356 0.85176 0.86896 0.0
N251 N 0.17772 0.61467 0.12682 0.0
C252 C 0.22677 0.78848 0.91614 0.0
C253 C 0.19308 0.66655 0.04715 0.0
N254 N 0.16148 0.75639 0.83787 0.0
N255 N 0.25672 0.68106 0.07293 0.0
H256 H 0.14822 0.58661 0.14302 0.0
H257 H 0.19473 0.60342 0.18507 0.0
H258 H 0.28682 0.70805 0.06524 0.0
H259 H 0.24533 0.63235 0.10521 0.0
H260 H 0.172 0.7946 0.7746 0.0
H261 H 0.13101 0.72483 0.83087 0.0
H262 H 0.22778 0.87309 0.83991 0.0
H263 H 0.2738 0.8852 0.86761 0.0
C264 C 0.523 0.31296 0.88573 0.0
C265 C 0.5482 0.36675 0.97006 0.0
C266 C 0.57353 0.29587 0.054 0.0
C267 C 0.5482 0.24194 0.96985 0.0
N268 N 0.50337 0.20599 0.7925 0.0
N269 N 0.59373 0.40367 0.14568 0.0
C270 C 0.52388 0.25236 0.88332 0.0
C271 C 0.57277 0.35666 0.05604 0.0
N272 N 0.49764 0.31949 0.80712 0.0
N273 N 0.59888 0.28932 0.13262 0.0
H274 H 0.59373 0.44745 0.1514 0.0
H275 H 0.60888 0.39775 0.2197 0.0
H276 H 0.59838 0.24492 0.14112 0.0
H277 H 0.62176 0.32849 0.18586 0.0
H278 H 0.47465 0.28017 0.75438 0.0
H279 H 0.49824 0.364 0.79828 0.0
H280 H 0.48863 0.21254 0.71804 0.0
H281 H 0.50357 0.16247 0.78587 0.0
loop_
_geom_bond_atom_site_label_1
_geom_bond_atom_site_label_2
_geom_bond_distance
_geom_bond_site_symmetry_2
_ccdc_geom_bond_type
Tb0 C10 2.825 . S
Tb0 O11 2.347 1_554 S
Tb0 O14 2.366 . S
Tb0 O19 2.418 . S
Tb0 O20 2.384 1_455 S
Tb0 O23 2.479 . S
Tb0 O24 2.471 1_554 S
Eu1 O12 2.418 . S
Eu1 O13 2.384 1_655 S
Eu1 O16 2.479 . S
Eu1 O17 2.471 1_556 S
Eu1 O18 2.347 1_556 S
Eu1 O21 2.366 . S
Eu1 C31 2.825 . S
C2 O18 1.259 1_455 S
C2 O19 1.265 . S
C3 O20 1.255 1_556 S
C3 O21 1.265 . S
C4 C6 1.380 1_556 S
C4 C7 1.374 . S
C4 C10 1.507 1_556 S
C5 C6 1.384 . S
C5 C9 1.387 1_554 S
C5 H32 0.930 . S
C6 C4 1.380 1_554 S
C6 C5 1.384 . S
C6 H33 0.931 . S
C7 C4 1.374 . S
C7 C8 1.390 . S
C7 H34 0.930 . S
C8 C7 1.390 . S
C8 C9 1.391 . S
C8 H35 0.930 . S
C9 C5 1.387 1_556 S
C9 C8 1.391 . S
C10 Tb0 2.825 . S
C10 C4 1.507 1_554 S
C10 O23 1.238 . S
C10 O24 1.247 1_554 S
O11 Tb0 2.347 1_556 S
O11 C15 1.259 1_455 S
O12 Eu1 2.418 . S
O12 C15 1.265 . S
O13 Eu1 2.384 1_455 S
O13 C22 1.255 1_556 S
O14 Tb0 2.366 . S
O14 C22 1.265 . S
C15 O11 1.259 1_655 S
C15 O12 1.265 . S
O16 Eu1 2.479 . S
O16 C31 1.238 . S
O17 Eu1 2.471 1_554 S
O17 C31 1.247 1_554 S
O18 Eu1 2.347 1_554 S
O18 C2 1.259 1_655 S
O19 Tb0 2.418 . S
O19 C2 1.265 . S
O20 Tb0 2.384 1_655 S
O20 C3 1.255 1_554 S
O21 Eu1 2.366 . S
O21 C3 1.265 . S
C22 O13 1.255 1_554 S
C22 O14 1.265 . S
O23 Tb0 2.479 . S
O23 C10 1.238 . S
O24 Tb0 2.471 1_556 S
O24 C10 1.247 1_556 S
C25 C28 1.380 1_554 S
C25 C29 1.374 . S
C25 C31 1.507 1_554 S
C26 C27 1.387 1_554 S
C26 C30 1.391 . S
C27 C26 1.387 1_556 S
C27 C28 1.384 . S
C27 H36 0.930 . S
C28 C25 1.380 1_556 S
C28 C27 1.384 . S
C28 H37 0.931 . S
C29 C25 1.374 . S
C29 C30 1.390 . S
C29 H38 0.930 . S
C30 C26 1.391 . S
C30 C29 1.390 . S
C30 H39 0.930 . S
C31 Eu1 2.825 . S
C31 O16 1.238 . S
C31 O17 1.247 1_556 S
C31 C25 1.507 1_556 S
H32 C5 0.930 . S
H33 C6 0.931 . S
H34 C7 0.930 . S
H35 C8 0.930 . S
H36 C27 0.930 . S
H37 C28 0.931 . S
H38 C29 0.930 . S
H39 C30 0.930 . S
Tb40 C50 2.825 . S
Tb40 O51 2.347 1_554 S
Tb40 O54 2.366 . S
Tb40 O59 2.418 . S
Tb40 O60 2.384 1_545 S
Tb40 O63 2.479 . S
Tb40 O64 2.471 1_554 S
Eu41 O52 2.418 . S
Eu41 O53 2.384 1_565 S
Eu41 O56 2.479 . S
Eu41 O57 2.471 1_556 S
Eu41 O58 2.347 1_556 S
Eu41 O61 2.366 . S
Eu41 C71 2.825 . S
C42 O58 1.259 1_545 S
C42 O59 1.265 . S
C43 O60 1.253 1_556 S
C43 O61 1.266 . S
C44 C46 1.380 . S
C44 C47 1.374 1_554 S
C44 C50 1.507 . S
C45 C46 1.384 . S
C45 C49 1.387 1_554 S
C45 H72 0.930 . S
C46 C44 1.380 . S
C46 C45 1.384 . S
C46 H73 0.931 . S
C47 C44 1.374 1_556 S
C47 C48 1.390 . S
C47 H74 0.930 . S
C48 C47 1.390 . S
C48 C49 1.391 . S
C48 H75 0.930 . S
C49 C45 1.387 1_556 S
C49 C48 1.391 . S
C50 Tb40 2.825 . S
C50 C44 1.507 . S
C50 O63 1.238 . S
C50 O64 1.247 1_554 S
O51 Tb40 2.347 1_556 S
O51 C55 1.259 1_545 S
O52 Eu41 2.418 . S
O52 C55 1.265 . S
O53 Eu41 2.384 1_545 S
O53 C62 1.255 1_556 S
O54 Tb40 2.366 . S
O54 C62 1.265 . S
C55 O51 1.259 1_565 S
C55 O52 1.265 . S
O56 Eu41 2.479 . S
O56 C71 1.238 . S
O57 Eu41 2.471 1_554 S
O57 C71 1.247 1_554 S
O58 Eu41 2.347 1_554 S
O58 C42 1.259 1_565 S
O59 Tb40 2.418 . S
O59 C42 1.265 . S
O60 Tb40 2.384 1_565 S
O60 C43 1.253 1_554 S
O61 Eu41 2.366 . S
O61 C43 1.266 . S
C62 O53 1.255 1_554 S
C62 O54 1.265 . S
O63 Tb40 2.479 . S
O63 C50 1.238 . S
O64 Tb40 2.471 1_556 S
O64 C50 1.247 1_556 S
C65 C68 1.380 . S
C65 C69 1.374 1_556 S
C65 C71 1.507 . S
C66 C67 1.387 1_554 S
C66 C70 1.391 . S
C67 C66 1.387 1_556 S
C67 C68 1.384 . S
C67 H76 0.930 . S
C68 C65 1.380 . S
C68 C67 1.384 . S
C68 H77 0.931 . S
C69 C65 1.374 1_554 S
C69 C70 1.390 . S
C69 H78 0.930 . S
C70 C66 1.391 . S
C70 C69 1.390 . S
C70 H79 0.930 . S
C71 Eu41 2.825 . S
C71 O56 1.238 . S
C71 O57 1.247 1_556 S
C71 C65 1.507 . S
H72 C45 0.930 . S
H73 C46 0.931 . S
H74 C47 0.930 . S
H75 C48 0.930 . S
H76 C67 0.930 . S
H77 C68 0.931 . S
H78 C69 0.930 . S
H79 C70 0.930 . S
Tb80 C90 2.825 . S
Tb80 O91 2.347 1_556 S
Tb80 O94 2.366 . S
Tb80 O99 2.418 . S
Tb80 O100 2.384 . S
Tb80 O103 2.479 . S
Tb80 O104 2.471 1_556 S
Eu81 O92 2.418 . S
Eu81 O93 2.384 . S
Eu81 O96 2.479 . S
Eu81 O97 2.471 1_554 S
Eu81 O98 2.347 1_554 S
Eu81 O101 2.366 . S
Eu81 C111 2.825 . S
C82 O98 1.259 . S
C82 O99 1.265 . S
C83 O100 1.255 1_554 S
C83 O101 1.265 . S
C84 C86 1.380 . S
C84 C87 1.374 1_556 S
C84 C90 1.507 . S
C85 C86 1.384 . S
C85 C89 1.387 1_556 S
C85 H112 0.930 . S
C86 C84 1.380 . S
C86 C85 1.384 . S
C86 H113 0.931 . S
C87 C84 1.374 1_554 S
C87 C88 1.390 . S
C87 H114 0.930 . S
C88 C87 1.390 . S
C88 C89 1.391 . S
C88 H115 0.930 . S
C89 C85 1.387 1_554 S
C89 C88 1.391 . S
C90 Tb80 2.825 . S
C90 C84 1.507 . S
C90 O103 1.238 . S
C90 O104 1.247 1_556 S
O91 Tb80 2.347 1_554 S
O91 C95 1.259 . S
O92 Eu81 2.418 . S
O92 C95 1.265 . S
O93 Eu81 2.384 . S
O93 C102 1.255 1_554 S
O94 Tb80 2.366 . S
O94 C102 1.265 . S
C95 O91 1.259 . S
C95 O92 1.265 . S
O96 Eu81 2.479 . S
O96 C111 1.238 . S
O97 Eu81 2.471 1_556 S
O97 C111 1.247 1_556 S
O98 Eu81 2.347 1_556 S
O98 C82 1.259 . S
O99 Tb80 2.418 . S
O99 C82 1.265 . S
O100 Tb80 2.384 . S
O100 C83 1.255 1_556 S
O101 Eu81 2.366 . S
O101 C83 1.265 . S
C102 O93 1.255 1_556 S
C102 O94 1.265 . S
O103 Tb80 2.479 . S
O103 C90 1.238 . S
O104 Tb80 2.471 1_554 S
O104 C90 1.247 1_554 S
C105 C108 1.380 . S
C105 C109 1.374 1_554 S
C105 C111 1.507 . S
C106 C107 1.387 1_556 S
C106 C110 1.391 . S
C107 C106 1.387 1_554 S
C107 C108 1.384 . S
C107 H116 0.930 . S
C108 C105 1.380 . S
C108 C107 1.384 . S
C108 H117 0.931 . S
C109 C105 1.374 1_556 S
C109 C110 1.390 . S
C109 H118 0.930 . S
C110 C106 1.391 . S
C110 C109 1.390 . S
C110 H119 0.930 . S
C111 Eu81 2.825 . S
C111 O96 1.238 . S
C111 O97 1.247 1_554 S
C111 C105 1.507 . S
H112 C85 0.930 . S
H113 C86 0.931 . S
H114 C87 0.930 . S
H115 C88 0.930 . S
H116 C107 0.930 . S
H117 C108 0.931 . S
H118 C109 0.930 . S
H119 C110 0.930 . S
C120 C121 1.355 . S
C120 C126 1.379 . S
C120 N128 1.356 . S
C121 C120 1.355 . S
C121 C127 1.364 . S
C122 C123 1.363 . S
C122 C127 1.382 . S
C122 N129 1.356 . S
C123 C122 1.363 . S
C123 C126 1.363 . S
N124 C126 1.356 . S
N124 H136 0.984 . S
N124 H137 0.985 . S
N125 C127 1.362 1_655 S
N125 H130 0.984 . S
N125 H131 0.985 . S
C126 C120 1.379 . S
C126 C123 1.363 . S
C126 N124 1.356 . S
C127 C121 1.364 . S
C127 C122 1.382 . S
C127 N125 1.362 1_455 S
N128 C120 1.356 . S
N128 H134 0.984 . S
N128 H135 0.984 . S
N129 C122 1.356 . S
N129 H132 0.984 . S
N129 H133 0.985 . S
H130 N125 0.984 . S
H131 N125 0.985 . S
H132 N129 0.984 . S
H133 N129 0.985 . S
H134 N128 0.984 . S
H135 N128 0.984 . S
H136 N124 0.984 . S
H137 N124 0.985 . S
C138 C139 1.363 1_545 S
C138 C144 1.379 . S
C138 N146 1.356 . S
C139 C138 1.363 1_565 S
C139 C145 1.363 . S
C140 C141 1.363 1_565 S
C140 C145 1.379 . S
C140 N147 1.356 . S
C141 C140 1.363 1_545 S
C141 C144 1.363 . S
N142 C144 1.356 . S
N142 H154 0.984 . S
N142 H155 0.985 . S
N143 C145 1.356 . S
N143 H148 0.984 . S
N143 H149 0.985 . S
C144 C138 1.379 . S
C144 C141 1.363 . S
C144 N142 1.356 . S
C145 C139 1.363 . S
C145 C140 1.379 . S
C145 N143 1.356 . S
N146 C138 1.356 . S
N146 H152 0.984 . S
N146 H153 0.984 . S
N147 C140 1.356 . S
N147 H150 0.984 . S
N147 H151 0.985 . S
H148 N143 0.984 . S
H149 N143 0.985 . S
H150 N147 0.984 . S
H151 N147 0.985 . S
H152 N146 0.984 . S
H153 N146 0.984 . S
H154 N142 0.984 . S
H155 N142 0.985 . S
C156 C157 1.363 . S
C156 C162 1.379 . S
C156 N164 1.356 . S
C157 C156 1.363 . S
C157 C163 1.363 . S
C158 C159 1.363 . S
C158 C163 1.379 . S
C158 N165 1.356 . S
C159 C158 1.363 . S
C159 C162 1.363 . S
N160 C162 1.356 . S
N160 H172 0.984 . S
N160 H173 0.985 . S
N161 C163 1.356 . S
N161 H166 0.984 . S
N161 H167 0.985 . S
C162 C156 1.379 . S
C162 C159 1.363 . S
C162 N160 1.356 . S
C163 C157 1.363 . S
C163 C158 1.379 . S
C163 N161 1.356 . S
N164 C156 1.356 . S
N164 H170 0.984 . S
N164 H171 0.984 . S
N165 C158 1.356 . S
N165 H168 0.984 . S
N165 H169 0.985 . S
H166 N161 0.984 . S
H167 N161 0.985 . S
H168 N165 0.984 . S
H169 N165 0.985 . S
H170 N164 0.984 . S
H171 N164 0.984 . S
H172 N160 0.984 . S
H173 N160 0.985 . S
C174 C175 1.363 . S
C174 C180 1.379 . S
C174 N182 1.356 . S
C175 C174 1.363 . S
C175 C181 1.363 1_556 S
C176 C177 1.363 . S
C176 C181 1.379 . S
C176 N183 1.356 . S
C177 C176 1.363 . S
C177 C180 1.363 1_554 S
N178 C180 1.356 . S
N178 H190 0.984 . S
N178 H191 0.985 . S
N179 C181 1.356 . S
N179 H184 0.984 . S
N179 H185 0.985 . S
C180 C174 1.379 . S
C180 C177 1.363 1_556 S
C180 N178 1.356 . S
C181 C175 1.363 1_554 S
C181 C176 1.379 . S
C181 N179 1.356 . S
N182 C174 1.356 . S
N182 H188 0.984 . S
N182 H189 0.984 . S
N183 C176 1.356 . S
N183 H186 0.984 . S
N183 H187 0.985 . S
H184 N179 0.984 . S
H185 N179 0.985 . S
H186 N183 0.984 . S
H187 N183 0.985 . S
H188 N182 0.984 . S
H189 N182 0.984 . S
H190 N178 0.984 . S
H191 N178 0.985 . S
C192 C193 1.363 . S
C192 C198 1.379 . S
C192 N200 1.356 . S
C193 C192 1.363 . S
C193 C199 1.363 1_556 S
C194 C195 1.363 1_554 S
C194 C199 1.379 . S
C194 N201 1.356 . S
C195 C194 1.363 1_556 S
C195 C198 1.363 . S
N196 C198 1.356 . S
N196 H208 0.984 . S
N196 H209 0.985 . S
N197 C199 1.356 . S
N197 H202 0.984 . S
N197 H203 0.985 . S
C198 C192 1.379 . S
C198 C195 1.363 . S
C198 N196 1.356 . S
C199 C193 1.363 1_554 S
C199 C194 1.379 . S
C199 N197 1.356 . S
N200 C192 1.356 . S
N200 H206 0.984 . S
N200 H207 0.984 . S
N201 C194 1.356 . S
N201 H204 0.984 . S
N201 H205 0.985 . S
H202 N197 0.984 . S
H203 N197 0.985 . S
H204 N201 0.984 . S
H205 N201 0.985 . S
H206 N200 0.984 . S
H207 N200 0.984 . S
H208 N196 0.984 . S
H209 N196 0.985 . S
C210 C211 1.363 1_554 S
C210 C216 1.379 . S
C210 N218 1.356 . S
C211 C210 1.363 1_556 S
C211 C217 1.363 . S
C212 C213 1.363 . S
C212 C217 1.379 . S
C212 N219 1.356 . S
C213 C212 1.363 . S
C213 C216 1.363 1_556 S
N214 C216 1.356 . S
N214 H226 0.984 . S
N214 H227 0.985 . S
N215 C217 1.356 . S
N215 H220 0.984 . S
N215 H221 0.985 . S
C216 C210 1.379 . S
C216 C213 1.363 1_554 S
C216 N214 1.356 . S
C217 C211 1.363 . S
C217 C212 1.379 . S
C217 N215 1.356 . S
N218 C210 1.356 . S
N218 H224 0.984 . S
N218 H225 0.984 . S
N219 C212 1.356 . S
N219 H222 0.984 . S
N219 H223 0.985 . S
H220 N215 0.984 . S
H221 N215 0.985 . S
H222 N219 0.984 . S
H223 N219 0.985 . S
H224 N218 0.984 . S
H225 N218 0.984 . S
H226 N214 0.984 . S
H227 N214 0.985 . S
C228 C229 1.363 1_556 S
C228 C234 1.379 . S
C228 N236 1.356 . S
C229 C228 1.363 1_554 S
C229 C235 1.363 . S
C230 C231 1.363 1_554 S
C230 C235 1.379 . S
C230 N237 1.356 . S
C231 C230 1.363 1_556 S
C231 C234 1.363 . S
N232 C234 1.356 . S
N232 H244 0.984 . S
N232 H245 0.985 . S
N233 C235 1.356 . S
N233 H238 0.984 . S
N233 H239 0.985 . S
C234 C228 1.379 . S
C234 C231 1.363 . S
C234 N232 1.356 . S
C235 C229 1.363 . S
C235 C230 1.379 . S
C235 N233 1.356 . S
N236 C228 1.356 . S
N236 H242 0.984 . S
N236 H243 0.984 . S
N237 C230 1.356 . S
N237 H240 0.984 . S
N237 H241 0.985 . S
H238 N233 0.984 . S
H239 N233 0.985 . S
H240 N237 0.984 . S
H241 N237 0.985 . S
H242 N236 0.984 . S
H243 N236 0.984 . S
H244 N232 0.984 . S
H245 N232 0.985 . S
C246 C247 1.363 1_556 S
C246 C252 1.379 . S
C246 N254 1.356 . S
C247 C246 1.363 1_554 S
C247 C253 1.363 . S
C248 C249 1.363 . S
C248 C253 1.379 . S
C248 N255 1.356 . S
C249 C248 1.363 . S
C249 C252 1.363 1_554 S
N250 C252 1.356 . S
N250 H262 0.984 . S
N250 H263 0.985 . S
N251 C253 1.356 . S
N251 H256 0.984 . S
N251 H257 0.985 . S
C252 C246 1.379 . S
C252 C249 1.363 1_556 S
C252 N250 1.356 . S
C253 C247 1.363 . S
C253 C248 1.379 . S
C253 N251 1.356 . S
N254 C246 1.356 . S
N254 H260 0.984 . S
N254 H261 0.984 . S
N255 C248 1.356 . S
N255 H258 0.984 . S
N255 H259 0.985 . S
H256 N251 0.984 . S
H257 N251 0.985 . S
H258 N255 0.984 . S
H259 N255 0.985 . S
H260 N254 0.984 . S
H261 N254 0.984 . S
H262 N250 0.984 . S
H263 N250 0.985 . S
C264 C265 1.363 1_556 S
C264 C270 1.379 . S
C264 N272 1.356 . S
C265 C264 1.363 1_554 S
C265 C271 1.363 . S
C266 C267 1.363 . S
C266 C271 1.379 . S
C266 N273 1.356 . S
C267 C266 1.363 . S
C267 C270 1.363 1_554 S
N268 C270 1.356 . S
N268 H280 0.984 . S
N268 H281 0.985 . S
N269 C271 1.356 . S
N269 H274 0.984 . S
N269 H275 0.985 . S
C270 C264 1.379 . S
C270 C267 1.363 1_556 S
C270 N268 1.356 . S
C271 C265 1.363 . S
C271 C266 1.379 . S
C271 N269 1.356 . S
N272 C264 1.356 . S
N272 H278 0.984 . S
N272 H279 0.984 . S
N273 C266 1.356 . S
N273 H276 0.984 . S
N273 H277 0.985 . S
H274 N269 0.984 . S
H275 N269 0.985 . S
H276 N273 0.984 . S
H277 N273 0.985 . S
H278 N272 0.984 . S
H279 N272 0.984 . S
H280 N268 0.984 . S
H281 N268 0.985 . S
C121 C15 1.464 1_455 S
C123 C2 1.470 . S
C139 C42 1.460 1_565 S
C141 C55 1.460 1_545 S
C157 C82 1.466 . S
C159 C95 1.466 . S
C175 C9 0.984 . S
C177 C89 0.966 . S
C193 C49 2.129 . S
C195 C3 2.272 . S
C211 C43 2.598 . S
C213 C102 2.653 . S
C229 C26 0.984 . S
C231 C106 0.966 . S
C247 C22 2.272 . S
C249 C66 2.129 . S
C265 C83 2.654 . S
C267 C62 2.597 . S
