# Generated by pormake.
# Topology sod-e, (6)-cn, num edge types: 1
# Building blocks:
#     Node 0, Type 0, BuildingBlock: MAKGUD_clean_sbu_1, # of connection points: 6
#     Node 1, Type 0, BuildingBlock: MAKGUD_clean_sbu_1, # of connection points: 6
#     Node 2, Type 0, BuildingBlock: MAKGUD_clean_sbu_1, # of connection points: 6
#     Node 3, Type 0, BuildingBlock: MAKGUD_clean_sbu_1, # of connection points: 6
#     Node 4, Type 0, BuildingBlock: MAKGUD_clean_sbu_1, # of connection points: 6
#     Node 5, Type 0, BuildingBlock: MAKGUD_clean_sbu_1, # of connection points: 6
#     Node 6, Type 0, BuildingBlock: MAKGUD_clean_sbu_1, # of connection points: 6
#     Node 7, Type 0, BuildingBlock: MAKGUD_clean_sbu_1, # of connection points: 6
#     Node 8, Type 0, BuildingBlock: MAKGUD_clean_sbu_1, # of connection points: 6
#     Node 9, Type 0, BuildingBlock: MAKGUD_clean_sbu_1, # of connection points: 6
#     Node 10, Type 0, BuildingBlock: MAKGUD_clean_sbu_1, # of connection points: 6
#     Node 11, Type 0, BuildingBlock: MAKGUD_clean_sbu_1, # of connection points: 6
#     Node 12, Type 0, BuildingBlock: MAKGUD_clean_sbu_1, # of connection points: 6
#     Node 13, Type 0, BuildingBlock: MAKGUD_clean_sbu_1, # of connection points: 6
#     Node 14, Type 0, BuildingBlock: MAKGUD_clean_sbu_1, # of connection points: 6
#     Node 15, Type 0, BuildingBlock: MAKGUD_clean_sbu_1, # of connection points: 6
#     Node 16, Type 0, BuildingBlock: MAKGUD_clean_sbu_1, # of connection points: 6
#     Node 17, Type 0, BuildingBlock: MAKGUD_clean_sbu_1, # of connection points: 6
#     Node 18, Type 0, BuildingBlock: MAKGUD_clean_sbu_1, # of connection points: 6
#     Node 19, Type 0, BuildingBlock: MAKGUD_clean_sbu_1, # of connection points: 6
#     Node 20, Type 0, BuildingBlock: MAKGUD_clean_sbu_1, # of connection points: 6
#     Node 21, Type 0, BuildingBlock: MAKGUD_clean_sbu_1, # of connection points: 6
#     Node 22, Type 0, BuildingBlock: MAKGUD_clean_sbu_1, # of connection points: 6
#     Node 23, Type 0, BuildingBlock: MAKGUD_clean_sbu_1, # of connection points: 6
#     Edge 24, Type (0, 0), BuildingBlock: OJICUG_clean_linker_0, # of connection points: 2
#     Edge 25, Type (0, 0), BuildingBlock: OJICUG_clean_linker_0, # of connection points: 2
#     Edge 26, Type (0, 0), BuildingBlock: OJICUG_clean_linker_0, # of connection points: 2
#     Edge 27, Type (0, 0), BuildingBlock: OJICUG_clean_linker_0, # of connection points: 2
#     Edge 28, Type (0, 0), BuildingBlock: OJICUG_clean_linker_0, # of connection points: 2
#     Edge 29, Type (0, 0), BuildingBlock: OJICUG_clean_linker_0, # of connection points: 2
#     Edge 30, Type (0, 0), BuildingBlock: OJICUG_clean_linker_0, # of connection points: 2
#     Edge 31, Type (0, 0), BuildingBlock: OJICUG_clean_linker_0, # of connection points: 2
#     Edge 32, Type (0, 0), BuildingBlock: OJICUG_clean_linker_0, # of connection points: 2
#     Edge 33, Type (0, 0), BuildingBlock: OJICUG_clean_linker_0, # of connection points: 2
#     Edge 34, Type (0, 0), BuildingBlock: OJICUG_clean_linker_0, # of connection points: 2
#     Edge 35, Type (0, 0), BuildingBlock: OJICUG_clean_linker_0, # of connection points: 2
#     Edge 36, Type (0, 0), BuildingBlock: OJICUG_clean_linker_0, # of connection points: 2
#     Edge 37, Type (0, 0), BuildingBlock: OJICUG_clean_linker_0, # of connection points: 2
#     Edge 38, Type (0, 0), BuildingBlock: OJICUG_clean_linker_0, # of connection points: 2
#     Edge 39, Type (0, 0), BuildingBlock: OJICUG_clean_linker_0, # of connection points: 2
#     Edge 40, Type (0, 0), BuildingBlock: OJICUG_clean_linker_0, # of connection points: 2
#     Edge 41, Type (0, 0), BuildingBlock: OJICUG_clean_linker_0, # of connection points: 2
#     Edge 42, Type (0, 0), BuildingBlock: OJICUG_clean_linker_0, # of connection points: 2
#     Edge 43, Type (0, 0), BuildingBlock: OJICUG_clean_linker_0, # of connection points: 2
#     Edge 44, Type (0, 0), BuildingBlock: OJICUG_clean_linker_0, # of connection points: 2
#     Edge 45, Type (0, 0), BuildingBlock: OJICUG_clean_linker_0, # of connection points: 2
#     Edge 46, Type (0, 0), BuildingBlock: OJICUG_clean_linker_0, # of connection points: 2
#     Edge 47, Type (0, 0), BuildingBlock: OJICUG_clean_linker_0, # of connection points: 2
#     Edge 48, Type (0, 0), BuildingBlock: OJICUG_clean_linker_0, # of connection points: 2
#     Edge 49, Type (0, 0), BuildingBlock: OJICUG_clean_linker_0, # of connection points: 2
#     Edge 50, Type (0, 0), BuildingBlock: OJICUG_clean_linker_0, # of connection points: 2
#     Edge 51, Type (0, 0), BuildingBlock: OJICUG_clean_linker_0, # of connection points: 2
#     Edge 52, Type (0, 0), BuildingBlock: OJICUG_clean_linker_0, # of connection points: 2
#     Edge 53, Type (0, 0), BuildingBlock: OJICUG_clean_linker_0, # of connection points: 2
#     Edge 54, Type (0, 0), BuildingBlock: OJICUG_clean_linker_0, # of connection points: 2
#     Edge 55, Type (0, 0), BuildingBlock: OJICUG_clean_linker_0, # of connection points: 2
#     Edge 56, Type (0, 0), BuildingBlock: OJICUG_clean_linker_0, # of connection points: 2
#     Edge 57, Type (0, 0), BuildingBlock: OJICUG_clean_linker_0, # of connection points: 2
#     Edge 58, Type (0, 0), BuildingBlock: OJICUG_clean_linker_0, # of connection points: 2
#     Edge 59, Type (0, 0), BuildingBlock: OJICUG_clean_linker_0, # of connection points: 2
#     Edge 60, Type (0, 0), BuildingBlock: OJICUG_clean_linker_0, # of connection points: 2
#     Edge 61, Type (0, 0), BuildingBlock: OJICUG_clean_linker_0, # of connection points: 2
#     Edge 62, Type (0, 0), BuildingBlock: OJICUG_clean_linker_0, # of connection points: 2
#     Edge 63, Type (0, 0), BuildingBlock: OJICUG_clean_linker_0, # of connection points: 2
#     Edge 64, Type (0, 0), BuildingBlock: OJICUG_clean_linker_0, # of connection points: 2
#     Edge 65, Type (0, 0), BuildingBlock: OJICUG_clean_linker_0, # of connection points: 2
#     Edge 66, Type (0, 0), BuildingBlock: OJICUG_clean_linker_0, # of connection points: 2
#     Edge 67, Type (0, 0), BuildingBlock: OJICUG_clean_linker_0, # of connection points: 2
#     Edge 68, Type (0, 0), BuildingBlock: OJICUG_clean_linker_0, # of connection points: 2
#     Edge 69, Type (0, 0), BuildingBlock: OJICUG_clean_linker_0, # of connection points: 2
#     Edge 70, Type (0, 0), BuildingBlock: OJICUG_clean_linker_0, # of connection points: 2
#     Edge 71, Type (0, 0), BuildingBlock: OJICUG_clean_linker_0, # of connection points: 2
#     Edge 72, Type (0, 0), BuildingBlock: OJICUG_clean_linker_0, # of connection points: 2
#     Edge 73, Type (0, 0), BuildingBlock: OJICUG_clean_linker_0, # of connection points: 2
#     Edge 74, Type (0, 0), BuildingBlock: OJICUG_clean_linker_0, # of connection points: 2
#     Edge 75, Type (0, 0), BuildingBlock: OJICUG_clean_linker_0, # of connection points: 2
#     Edge 76, Type (0, 0), BuildingBlock: OJICUG_clean_linker_0, # of connection points: 2
#     Edge 77, Type (0, 0), BuildingBlock: OJICUG_clean_linker_0, # of connection points: 2
#     Edge 78, Type (0, 0), BuildingBlock: OJICUG_clean_linker_0, # of connection points: 2
#     Edge 79, Type (0, 0), BuildingBlock: OJICUG_clean_linker_0, # of connection points: 2
#     Edge 80, Type (0, 0), BuildingBlock: OJICUG_clean_linker_0, # of connection points: 2
#     Edge 81, Type (0, 0), BuildingBlock: OJICUG_clean_linker_0, # of connection points: 2
#     Edge 82, Type (0, 0), BuildingBlock: OJICUG_clean_linker_0, # of connection points: 2
#     Edge 83, Type (0, 0), BuildingBlock: OJICUG_clean_linker_0, # of connection points: 2
#     Edge 84, Type (0, 0), BuildingBlock: OJICUG_clean_linker_0, # of connection points: 2
#     Edge 85, Type (0, 0), BuildingBlock: OJICUG_clean_linker_0, # of connection points: 2
#     Edge 86, Type (0, 0), BuildingBlock: OJICUG_clean_linker_0, # of connection points: 2
#     Edge 87, Type (0, 0), BuildingBlock: OJICUG_clean_linker_0, # of connection points: 2
#     Edge 88, Type (0, 0), BuildingBlock: OJICUG_clean_linker_0, # of connection points: 2
#     Edge 89, Type (0, 0), BuildingBlock: OJICUG_clean_linker_0, # of connection points: 2
#     Edge 90, Type (0, 0), BuildingBlock: OJICUG_clean_linker_0, # of connection points: 2
#     Edge 91, Type (0, 0), BuildingBlock: OJICUG_clean_linker_0, # of connection points: 2
#     Edge 92, Type (0, 0), BuildingBlock: OJICUG_clean_linker_0, # of connection points: 2
#     Edge 93, Type (0, 0), BuildingBlock: OJICUG_clean_linker_0, # of connection points: 2
#     Edge 94, Type (0, 0), BuildingBlock: OJICUG_clean_linker_0, # of connection points: 2
#     Edge 95, Type (0, 0), BuildingBlock: OJICUG_clean_linker_0, # of connection points: 2
# Relax obj value: 0.123
# Max RMSD: 0.229
# Mean RMSD: 0.178
data_MOF--net-sod-e--node1-MAKGUD_clean_sbu_1--edge1-OJICUG_clean_linker_0
_symmetry_space_group_name_H-M    P1
_symmetry_Int_Tables_number       1
_symmetry_cell_setting            triclinic
loop_
_symmetry_equiv_pos_as_xyz
'x, y, z'
_cell_length_a     44.418327
_cell_length_b     41.055505
_cell_length_c     40.76594
_cell_angle_alpha  89.988121
_cell_angle_beta   90.489895
_cell_angle_gamma 90.923416
loop_
_atom_site_label
_atom_site_type_symbol
_atom_site_fract_x
_atom_site_fract_y
_atom_site_fract_z
_atom_type_partial_charge
O0 O 0.14368 0.42552 0.35865 0.0
Tb1 Tb 0.12887 0.44199 0.40693 0.0
C2 C 0.1122 0.50424 0.44319 0.0
O3 O 0.14723 0.4227 0.4897 0.0
Tb4 Tb 0.10263 0.4449 0.48903 0.0
C5 C 0.09548 0.46406 0.55091 0.0
O6 O 0.14628 0.40017 0.43803 0.0
O7 O 1.07248 0.40254 0.48428 0.0
C8 C 1.04567 0.4048 0.4705 0.0
O9 O 1.039 0.43131 0.45412 0.0
O10 O 0.13511 0.48943 0.43007 0.0
O11 O 0.09162 0.48711 0.45889 0.0
O12 O 0.08365 0.45661 0.38463 0.0
C13 C 0.15747 0.4012 0.46876 0.0
C14 C 0.16757 0.44433 0.35737 0.0
O15 O 1.07482 0.45039 0.53263 0.0
O16 O 0.1201 0.46727 0.53417 0.0
C17 C 0.08126 0.46995 0.35443 0.0
O18 O 0.10577 0.47226 0.33681 0.0
O19 O 0.16959 0.46143 0.38411 0.0
O20 O 0.82451 1.044 0.4174 0.0
Tb21 Tb 0.77771 1.05191 0.43177 0.0
C22 C 0.73427 1.05114 0.49733 0.0
O23 O 0.71918 1.00725 0.42098 0.0
Tb24 Tb 0.69584 1.05105 0.43268 0.0
C25 C 0.63994 1.03218 0.42024 0.0
O26 O 0.75082 1.03198 0.38751 0.0
O27 O 0.69974 0.09983 0.4116 0.0
C28 C 0.69942 0.10437 0.3796 0.0
O29 O 0.70362 0.07931 0.36027 0.0
O30 O 0.75981 1.04523 0.4818 0.0
O31 O 0.70835 1.05759 0.4831 0.0
O32 O 0.79607 0.10201 0.44678 0.0
C33 C 0.73037 1.00805 0.39182 0.0
C34 C 0.82801 1.01687 0.4335 0.0
O35 O 0.65046 1.03922 0.44938 0.0
O36 O 0.66064 1.03652 0.39836 0.0
C37 C 0.82026 0.10457 0.467 0.0
O38 O 0.83229 0.07733 0.47715 0.0
O39 O 0.80275 1.00906 0.44763 0.0
O40 O 1.07114 0.7144 0.34623 0.0
Tb41 Tb 0.10104 0.7091 0.38825 0.0
C42 C 0.09789 0.64475 0.43091 0.0
O43 O 1.05251 0.73333 0.44533 0.0
Tb44 Tb 0.08798 0.70656 0.46818 0.0
C45 C 0.08175 0.70889 0.53254 0.0
O46 O 0.08739 0.75746 0.4131 0.0
O47 O 0.12868 0.73375 0.45489 0.0
C48 C 0.15283 0.73417 0.47385 0.0
O49 O 0.15495 0.71263 0.49753 0.0
O50 O 0.1154 0.66348 0.4126 0.0
O51 O 0.07868 0.65825 0.45048 0.0
O52 O 0.13405 0.69572 0.34753 0.0
C53 C 1.06187 0.75992 0.43099 0.0
C54 C 1.04904 0.69715 0.35827 0.0
O55 O 1.06741 0.72697 0.51168 0.0
O56 O 0.09931 0.68913 0.51717 0.0
C57 C 0.15725 0.67495 0.35025 0.0
O58 O 0.16648 0.66719 0.37986 0.0
O59 O 1.05645 0.68594 0.38704 0.0
O60 O 0.35409 0.12884 0.39844 0.0
Tb61 Tb 0.39361 0.09791 0.39467 0.0
C62 C 0.44019 0.08679 0.44933 0.0
O63 O 0.47084 0.10374 0.3567 0.0
Tb64 Tb 0.46425 0.06111 0.38635 0.0
C65 C 0.51563 1.03044 0.39186 0.0
O66 O 0.42217 0.12485 0.35549 0.0
O67 O 0.42508 1.03064 0.37445 0.0
C68 C 0.42642 1.00235 0.35914 0.0
O69 O 0.40121 0.98675 0.35184 0.0
O70 O 0.41518 0.07545 0.4365 0.0
O71 O 0.46401 0.08877 0.43116 0.0
O72 O 0.35921 1.0564 0.40147 0.0
C73 C 0.45178 0.1261 0.3473 0.0
C74 C 0.36523 0.14745 0.42161 0.0
O75 O 0.50569 1.04373 0.36492 0.0
O76 O 0.49587 1.03301 0.415 0.0
C77 C 0.34697 1.05078 0.43132 0.0
O78 O 0.35505 0.07045 0.45527 0.0
O79 O 0.39233 0.13834 0.42911 0.0
O80 O 1.05851 0.63404 0.72056 0.0
Tb81 Tb 1.07015 0.68297 0.73738 0.0
C82 C 1.02221 0.71802 0.76922 0.0
O83 O 1.05224 0.73787 0.68511 0.0
Tb84 Tb 1.05672 0.76921 0.72849 0.0
C85 C 1.01512 0.8127 0.71376 0.0
O86 O 0.08676 0.69708 0.69037 0.0
O87 O 0.10007 0.79113 0.70822 0.0
C88 C 0.09917 0.81402 0.6845 0.0
O89 O 1.07259 0.82367 0.67459 0.0
O90 O 1.02705 0.70522 0.74083 0.0
O91 O 1.03892 0.74468 0.77462 0.0
O92 O 0.11108 0.69534 0.76428 0.0
C93 C 1.07285 0.71883 0.67253 0.0
C94 C 1.05367 0.62262 0.74997 0.0
O95 O 1.01435 0.7821 0.70583 0.0
O96 O 1.0393 0.81879 0.73127 0.0
C97 C 0.11143 0.70002 0.79614 0.0
O98 O 0.08577 0.7025 0.81166 0.0
O99 O 1.06031 0.64444 0.77204 0.0
O100 O 0.44428 0.11917 0.78862 0.0
Tb101 Tb 0.44768 0.0939 0.74154 0.0
C102 C 0.4971 0.07165 0.69347 0.0
O103 O 0.42818 0.12227 0.66923 0.0
Tb104 Tb 0.43802 0.07291 0.65352 0.0
C105 C 0.44213 0.08112 0.58927 0.0
O106 O 0.40449 0.11039 0.7165 0.0
O107 O 0.40475 1.03332 0.65784 0.0
C108 C 0.37592 1.03924 0.66186 0.0
O109 O 0.36794 0.06854 0.67078 0.0
O110 O 0.48619 0.09681 0.70896 0.0
O111 O 0.4797 1.05398 0.67397 0.0
O112 O 0.46697 1.04907 0.76736 0.0
C113 C 0.40524 0.12732 0.68835 0.0
C114 C 0.46059 0.14437 0.77985 0.0
O115 O 0.41748 0.08159 0.60597 0.0
O116 O 0.46483 0.07544 0.60865 0.0
C117 C 0.48589 1.05115 0.79351 0.0
O118 O 0.49149 0.08015 0.80584 0.0
O119 O 0.46912 0.14086 0.74975 0.0
O120 O 0.13811 0.35765 0.72794 0.0
Tb121 Tb 0.11698 0.40523 0.73564 0.0
C122 C 0.09192 0.45644 0.69054 0.0
O123 O 0.10754 0.47335 0.77665 0.0
Tb124 Tb 1.06616 0.44856 0.75995 0.0
C125 C 1.02611 0.49369 0.77474 0.0
O126 O 0.13617 0.42818 0.7817 0.0
O127 O 1.05753 0.40014 0.77998 0.0
C128 C 1.03687 0.39417 0.80229 0.0
O129 O 1.03167 0.36405 0.8117 0.0
O130 O 0.11719 0.44704 0.70367 0.0
O131 O 1.06688 0.45179 0.70666 0.0
O132 O 1.07299 0.3824 0.71788 0.0
C133 C 0.13113 0.45914 0.78972 0.0
C134 C 0.15661 0.36765 0.70521 0.0
O135 O 1.04948 0.48593 0.79218 0.0
O136 O 1.024 0.47343 0.75031 0.0
C137 C 1.07102 0.37209 0.68669 0.0
O138 O 0.09444 0.37791 0.668 0.0
O139 O 0.15375 0.39886 0.70163 0.0
O140 O 0.81474 0.11022 0.70543 0.0
Tb141 Tb 0.77378 0.08175 0.69388 0.0
C142 C 0.72875 0.05962 0.6386 0.0
O143 O 0.70375 0.1071 0.71262 0.0
Tb144 Tb 0.6874 1.05817 0.7003 0.0
C145 C 0.62702 0.05976 0.69738 0.0
O146 O 0.74724 0.09542 0.73973 0.0
O147 O 0.69905 1.01983 0.73479 0.0
C148 C 0.70023 1.02687 0.76623 0.0
O149 O 0.69628 1.0571 0.7753 0.0
O150 O 0.74275 0.08462 0.65232 0.0
O151 O 0.70816 1.0427 0.65469 0.0
O152 O 0.80324 1.03958 0.6757 0.0
C153 C 0.72083 0.11124 0.73882 0.0
C154 C 0.80849 0.13465 0.6863 0.0
O155 O 0.64358 0.06581 0.72312 0.0
O156 O 0.64452 1.05289 0.67297 0.0
C157 C 0.8181 1.04058 0.64674 0.0
O158 O 0.81467 0.0668 0.62879 0.0
O159 O 0.78306 0.12895 0.67134 0.0
O160 O 0.43996 0.36099 0.08065 0.0
Tb161 Tb 0.44746 0.40294 0.04855 0.0
C162 C 0.49742 0.45169 1.02587 0.0
O163 O 0.42117 0.47762 0.07227 0.0
Tb164 Tb 0.44047 0.48845 1.02451 0.0
C165 C 0.45095 0.5524 1.02367 0.0
O166 O 0.40238 0.42752 0.05811 0.0
O167 O 0.40779 0.47284 0.98845 0.0
C168 C 0.41309 0.47837 0.9573 0.0
O169 O 0.43966 0.48986 0.94871 0.0
O170 O 0.4868 0.43523 0.05088 0.0
O171 O 0.47901 0.46456 1.0048 0.0
O172 O 0.46697 0.3669 1.01096 0.0
C173 C 0.3999 0.4554 0.07535 0.0
C174 C 0.453 0.37422 0.10623 0.0
O175 O 0.46661 0.53121 1.03992 0.0
O176 O 0.42937 0.53751 1.00761 0.0
C177 C 0.4968 0.36216 1.00608 0.0
O178 O 0.51586 0.38105 1.02222 0.0
O179 O 0.46337 0.40295 0.0989 0.0
O180 O 0.38276 0.73542 0.13695 0.0
Tb181 Tb 0.42155 0.73257 0.10466 0.0
C182 C 0.44819 0.68776 0.05581 0.0
O183 O 0.47591 0.79346 0.08722 0.0
Tb184 Tb 0.47699 0.75287 0.05241 0.0
C185 C 0.5231 0.71832 0.07258 0.0
O186 O 0.45454 0.76672 0.13056 0.0
O187 O 0.49168 0.78278 1.01156 0.0
C188 C 0.48516 0.81384 1.00935 0.0
O189 O 0.46363 0.82544 1.02768 0.0
O190 O 0.44762 0.69241 0.08752 0.0
O191 O 0.44726 0.71334 1.03645 0.0
O192 O 0.39057 0.72332 0.0605 0.0
C193 C 0.47337 0.7896 0.11921 0.0
C194 C 0.38976 0.71005 0.15454 0.0
O195 O 0.50195 0.7287 0.09149 0.0
O196 O 0.51889 0.7284 1.04272 0.0
C197 C 0.36977 0.69898 0.06107 0.0
O198 O 0.36619 0.6835 0.08897 0.0
O199 O 0.41452 0.69761 0.14382 0.0
O200 O 0.78302 0.44193 0.11431 0.0
Tb201 Tb 0.73952 0.45708 0.09426 0.0
C202 C 0.71492 0.52247 0.0727 0.0
O203 O 0.66432 0.43612 0.09391 0.0
Tb204 Tb 0.67754 0.46358 0.04988 0.0
C205 C 0.62238 0.48299 1.03481 0.0
O206 O 0.70928 0.41562 0.11133 0.0
O207 O 0.68612 0.42564 1.014 0.0
C208 C 0.69757 0.39709 1.02086 0.0
O209 O 0.71235 0.39306 0.04851 0.0
O210 O 0.71965 0.50503 0.09915 0.0
O211 O 0.70582 0.50744 0.04594 0.0
O212 O 0.76383 0.47072 0.04725 0.0
C213 C 0.67926 0.41536 0.11228 0.0
C214 C 0.78145 0.4592 0.14105 0.0
O215 O 0.6358 0.48704 0.06294 0.0
O216 O 0.64071 0.46922 1.01461 0.0
C217 C 0.78142 0.49772 0.04637 0.0
O218 O 0.7838 0.51479 0.07355 0.0
O219 O 0.75644 0.47509 0.14109 0.0
O220 O 0.65564 0.72023 0.11636 0.0
Tb221 Tb 0.69839 0.72051 0.0907 0.0
C222 C 0.71164 0.77485 1.03888 0.0
O223 O 0.74725 0.68044 0.05095 0.0
Tb224 Tb 0.76678 0.72897 0.06172 0.0
C225 C 0.80683 0.73679 1.01474 0.0
O226 O 0.72563 0.67833 0.1003 0.0
O227 O 0.79463 0.70955 0.10456 0.0
C228 C 0.81442 0.68574 0.09874 0.0
O229 O 0.81532 0.67491 0.06844 0.0
O230 O 0.69364 0.75021 0.04606 0.0
O231 O 0.73958 0.77457 0.0516 0.0
O232 O 0.71093 0.75183 0.13137 0.0
C233 C 0.73651 0.6629 0.07524 0.0
C234 C 0.64318 0.69701 0.09912 0.0
O235 O 0.78052 0.72289 1.01133 0.0
O236 O 0.81089 0.74595 0.04504 0.0
C237 C 0.70792 0.74053 0.16141 0.0
O238 O 0.70205 0.70933 0.16555 0.0
O239 O 0.66179 0.68733 0.0769 0.0
O240 O 0.63878 0.92827 0.86658 0.0
Tb241 Tb 0.61942 0.93708 0.91476 0.0
C242 C 0.62721 1.00733 0.94844 0.0
O243 O 0.6663 0.91594 0.98015 0.0
Tb244 Tb 0.63245 0.95015 0.99373 0.0
C245 C 0.62923 0.95383 0.05857 0.0
O246 O 0.63445 0.89084 0.94371 0.0
O247 O 0.59137 0.92496 0.97819 0.0
C248 C 0.58602 0.8967 0.99229 0.0
O249 O 0.6058 0.88548 1.01342 0.0
O250 O 0.60926 0.98719 0.93177 0.0
O251 O 0.6444 0.9959 0.97172 0.0
O252 O 0.5758 0.9475 0.8866 0.0
C253 C 0.65773 0.88901 0.96554 0.0
C254 C 0.66237 0.94719 0.87086 0.0
O255 O 0.65143 0.94154 1.0424 0.0
O256 O 0.60922 0.96487 1.03817 0.0
C257 C 0.57526 0.96903 0.86144 0.0
O258 O 0.60118 0.98134 0.85182 0.0
O259 O 0.66206 0.95945 0.90036 0.0
O260 O 0.30239 0.55816 0.90154 0.0
Tb261 Tb 0.25987 0.56985 0.92513 0.0
C262 C 0.23034 0.57689 0.99073 0.0
O263 O 0.18307 0.56014 0.90511 0.0
Tb264 Tb 0.19236 0.6033 0.9354 0.0
C265 C 0.13775 0.61509 0.95867 0.0
O266 O 0.22995 0.55206 0.88354 0.0
O267 O 0.20311 0.64483 0.90443 0.0
C268 C 0.20324 0.642 0.87235 0.0
O269 O 0.20889 0.61348 0.8595 0.0
O270 O 0.2391 0.55413 0.97061 0.0
O271 O 0.22111 0.60454 0.97856 0.0
O272 O 0.27861 0.61582 0.95018 0.0
C273 C 0.20039 0.54558 0.88374 0.0
C274 C 0.30549 0.53034 0.91648 0.0
O275 O 0.15428 0.59044 0.96648 0.0
O276 O 0.15223 0.63326 0.93789 0.0
C277 C 0.30805 0.62255 0.95572 0.0
O278 O 0.32797 0.60432 0.94126 0.0
O279 O 0.28345 0.52554 0.93672 0.0
O280 O 0.57228 0.21868 0.84797 0.0
Tb281 Tb 0.60132 0.21023 0.89055 0.0
C282 C 0.61746 0.14887 0.93719 0.0
O283 O 0.56956 0.2312 0.96253 0.0
Tb284 Tb 0.61365 0.21372 0.97779 0.0
C285 C 0.61118 0.21207 1.04309 0.0
O286 O 0.58728 0.25672 0.91727 0.0
O287 O 0.6422 0.25567 0.96626 0.0
C288 C 0.63407 0.28395 0.97816 0.0
O289 O 0.60858 0.28562 0.99409 0.0
O290 O 0.60195 0.1613 0.91257 0.0
O291 O 0.62971 0.16706 0.96048 0.0
O292 O 0.63682 0.19845 0.8515 0.0
C293 C 0.56787 0.25609 0.94252 0.0
C294 C 0.54903 0.20294 0.85969 0.0
O295 O 0.5896 0.20317 1.02316 0.0
O296 O 0.63448 0.22124 1.02623 0.0
C297 C 0.65622 0.17334 0.85212 0.0
O298 O 0.65863 0.15686 0.87957 0.0
O299 O 0.55561 0.19087 0.88821 0.0
O300 O 0.87501 0.65185 0.91495 0.0
Tb301 Tb 0.90729 0.61312 0.92043 0.0
C302 C 0.93666 0.56248 0.96227 0.0
O303 O 0.96367 0.59688 0.85765 0.0
Tb304 Tb 0.97164 0.56544 0.90002 0.0
C305 C 1.01668 0.59012 0.9355 0.0
O306 O 0.93658 0.63749 0.88246 0.0
O307 O 0.99033 0.52442 0.8741 0.0
C308 C 0.974 0.50143 0.85987 0.0
O309 O 0.94456 0.50381 0.8587 0.0
O310 O 0.93466 0.59406 0.95952 0.0
O311 O 0.94137 0.54485 0.93608 0.0
O312 O 0.86673 0.58351 0.93817 0.0
C313 C 0.95599 0.62776 0.85989 0.0
C314 C 0.88598 0.66966 0.93878 0.0
O315 O 1.01411 0.56015 0.92578 0.0
O316 O 0.99415 0.6069 0.92448 0.0
C317 C 0.86255 0.55139 0.94286 0.0
O318 O 0.88109 0.53109 0.92902 0.0
O319 O 0.90858 0.65516 0.95274 0.0
O320 O 0.59038 0.1695 0.21432 0.0
Tb321 Tb 0.60338 0.21057 0.24509 0.0
C322 C 0.5367 0.21537 0.27644 0.0
O323 O 0.56539 0.2423 0.18985 0.0
Tb324 Tb 0.55751 0.27542 0.22974 0.0
C325 C 0.50946 0.30561 0.20731 0.0
O326 O 0.61439 0.23956 0.2023 0.0
O327 O 0.59716 0.30846 0.21481 0.0
C328 C 0.59657 0.32303 0.18512 0.0
O329 O 0.57271 0.31683 0.16677 0.0
O330 O 0.55908 0.19797 0.26529 0.0
O331 O 0.53701 0.24774 0.27237 0.0
O332 O 0.63509 0.21363 0.28616 0.0
C333 C 0.59306 0.23928 0.17998 0.0
C334 C 0.6133 0.15172 0.22169 0.0
O335 O 0.51755 0.27655 0.19917 0.0
O336 O 0.52874 0.31813 0.22828 0.0
C337 C 0.62816 0.20004 0.31446 0.0
O338 O 0.59971 0.19371 0.32072 0.0
O339 O 0.63115 0.16782 0.24139 0.0
O340 O 0.94547 0.61398 0.28238 0.0
Tb341 Tb 0.95046 0.5898 0.23497 0.0
C342 C 0.99871 0.56457 0.18756 0.0
O343 O 0.92577 0.59956 0.1591 0.0
Tb344 Tb 0.93606 0.54782 0.1611 0.0
C345 C 0.93189 0.5321 0.09781 0.0
O346 O 0.9072 0.60582 0.21007 0.0
O347 O 0.90895 0.51182 0.18674 0.0
C348 C 0.88255 0.51913 0.19858 0.0
O349 O 0.87642 0.54984 0.20363 0.0
O350 O 0.98754 0.59123 0.20016 0.0
O351 O 0.981 0.53993 0.17971 0.0
O352 O 0.97047 0.54648 0.26226 0.0
C353 C 0.90575 0.6129 0.17812 0.0
C354 C 0.96218 0.6393 0.2751 0.0
O355 O 0.90958 0.53945 0.1166 0.0
O356 O 0.95673 0.53302 0.11491 0.0
C357 C 0.99066 0.55066 0.28698 0.0
O358 O 0.99738 0.58062 0.29587 0.0
O359 O 0.97179 0.63659 0.24524 0.0
O360 O 0.63334 0.83384 0.25953 0.0
Tb361 Tb 0.61719 0.88388 0.25304 0.0
C362 C 0.6088 0.92976 0.19555 0.0
O363 O 0.63197 0.96044 0.27667 0.0
Tb364 Tb 0.58545 0.95784 0.2581 0.0
C365 C 0.58261 1.02055 0.24582 0.0
O366 O 0.63494 0.90972 0.29851 0.0
O367 O 0.54391 0.9454 0.28345 0.0
C368 C 0.53999 0.95307 0.31444 0.0
O369 O 0.56359 0.96045 0.33272 0.0
O370 O 0.62962 0.91607 0.21328 0.0
O371 O 0.58344 0.93726 0.20933 0.0
O372 O 0.57214 0.86601 0.23151 0.0
C373 C 0.64438 0.94083 0.29806 0.0
C374 C 0.65675 0.83764 0.24066 0.0
O375 O 0.58715 1.00791 0.27456 0.0
O376 O 0.57803 0.99784 0.22424 0.0
C377 C 0.57047 0.85418 0.20065 0.0
O378 O 0.5956 0.85434 0.18389 0.0
O379 O 0.65755 0.86712 0.22941 0.0
O380 O 0.30838 0.59142 0.21249 0.0
Tb381 Tb 0.26525 0.57052 0.19577 0.0
C382 C 0.22891 0.56035 0.13124 0.0
O383 O 0.19421 0.59519 0.21388 0.0
Tb384 Tb 0.18557 0.54956 0.18774 0.0
C385 C 0.12705 0.55357 0.1734 0.0
O386 O 0.23727 0.58138 0.241 0.0
O387 O 0.18742 0.51339 0.22637 0.0
C388 C 0.21151 0.50265 0.24145 0.0
O389 O 0.23837 0.51419 0.23422 0.0
O390 O 0.24241 0.58222 0.14989 0.0
O391 O 0.21098 0.5383 0.1441 0.0
O392 O 0.2929 0.52834 0.17523 0.0
C393 C 0.21132 0.59777 0.24016 0.0
C394 C 0.30379 0.62019 0.20013 0.0
O395 O 0.14113 0.52687 0.18016 0.0
O396 O 0.14619 0.57778 0.17352 0.0
C397 C 0.30488 0.52883 0.14478 0.0
O398 O 0.29868 0.55395 0.12613 0.0
O399 O 0.27802 0.62051 0.18499 0.0
O400 O 0.9598 0.87567 0.58374 0.0
Tb401 Tb 0.96568 0.91612 0.54989 0.0
C402 C 1.02642 0.95559 0.55106 0.0
O403 O 0.94106 0.98061 0.59773 0.0
Tb404 Tb 0.9728 0.99908 0.56233 0.0
C405 C 0.9848 0.06188 0.57034 0.0
O406 O 0.92118 0.94286 0.56199 0.0
O407 O 0.94449 1.0007 0.5181 0.0
C408 C 0.93619 0.97721 0.49782 0.0
O409 O 0.94659 0.9477 0.50125 0.0
O410 O 1.00802 0.93875 0.53178 0.0
O411 O 1.01506 0.97582 0.57202 0.0
O412 O 0.97823 0.87769 0.51147 0.0
C413 C 0.91749 0.96401 0.58734 0.0
C414 C 0.97547 0.88884 0.60759 0.0
O415 O 0.97046 1.04359 0.59132 0.0
O416 O 0.99259 1.04467 0.54518 0.0
C417 C 1.00645 0.86561 0.51018 0.0
O418 O 1.02544 0.87521 0.53322 0.0
O419 O 0.9865 0.91698 0.59855 0.0
O420 O 0.88517 0.25225 0.61587 0.0
Tb421 Tb 0.92736 0.24842 0.58855 0.0
C422 C 0.97431 0.20024 0.5676 0.0
O423 O 0.9986 0.27886 0.58287 0.0
Tb424 Tb 0.98047 0.26729 0.53442 0.0
C425 C 1.02568 0.27436 0.49249 0.0
O426 O 0.95402 0.29233 0.60664 0.0
O427 O 0.9417 0.29663 0.52175 0.0
C428 C 0.94263 0.32446 0.50538 0.0
O429 O 0.91701 0.33768 0.49684 0.0
O430 O 0.96397 0.21507 0.59339 0.0
O431 O 0.97445 0.21492 0.53902 0.0
O432 O 0.90641 0.22337 0.54362 0.0
C433 C 0.98412 0.29419 0.60614 0.0
C434 C 0.89119 0.22905 0.6367 0.0
O435 O 1.00299 0.2543 0.48875 0.0
O436 O 1.02258 0.29022 0.51968 0.0
C437 C 0.87694 0.21537 0.54053 0.0
O438 O 0.8582 0.22812 0.56146 0.0
O439 O 0.91775 0.21793 0.63081 0.0
O440 O 0.2289 0.86167 0.52388 0.0
Tb441 Tb 0.21494 0.91198 0.53251 0.0
C442 C 0.15787 0.9504 0.5469 0.0
O443 O 0.23332 0.99096 0.51044 0.0
Tb444 Tb 0.21635 0.9896 0.5605 0.0
C445 C 0.20954 1.05229 0.57504 0.0
O446 O 0.25493 0.94102 0.51209 0.0
O447 O 0.2544 0.97463 0.59112 0.0
C448 C 0.28167 0.98522 0.58344 0.0
O449 O 0.28547 1.00024 0.55534 0.0
O450 O 0.17208 0.93574 0.52302 0.0
O451 O 0.1736 0.96473 0.57052 0.0
O452 O 0.19874 0.89616 0.58298 0.0
C453 C 0.25404 0.97129 0.49971 0.0
C454 C 0.21171 0.85644 0.49826 0.0
O455 O 0.19645 1.03695 0.55087 0.0
O456 O 0.22611 1.03219 0.5914 0.0
C457 C 0.18281 0.8682 0.58698 0.0
O458 O 0.1785 0.84959 0.56117 0.0
O459 O 0.19719 0.88293 0.49157 0.0
O460 O 0.15533 0.22787 0.51233 0.0
Tb461 Tb 0.19636 0.2489 0.53414 0.0
C462 C 0.24047 0.29911 0.52254 0.0
O463 O 0.24234 0.20891 0.58394 0.0
Tb464 Tb 0.27442 0.24667 0.56657 0.0
C465 C 0.30056 0.22602 0.512 0.0
O466 O 0.21351 0.20076 0.53733 0.0
O467 O 0.31051 0.23061 0.60367 0.0
C468 C 0.30713 0.20806 0.62758 0.0
O469 O 0.27963 0.19928 0.63554 0.0
O470 O 0.233 0.27154 0.50894 0.0
O471 O 0.2543 0.29615 0.55199 0.0
O472 O 0.19148 0.26733 0.58403 0.0
C473 C 0.22547 0.18994 0.56464 0.0
C474 C 0.14702 0.2544 0.49752 0.0
O475 O 0.27314 0.21894 0.52069 0.0
O476 O 0.31305 0.24509 0.53383 0.0
C477 C 0.18105 0.29682 0.58812 0.0
O478 O 0.17248 0.31336 0.56224 0.0
O479 O 0.16622 0.2777 0.50391 0.0
C480 C 0.11921 0.47537 0.60529 0.0
C481 C 0.0932 0.4687 0.58657 0.0
H482 H 0.13911 0.47694 0.65324 0.0
C483 C 1.06582 0.46257 0.60254 0.0
H484 H 0.14059 0.48024 0.59353 0.0
C485 C 1.06487 0.46097 0.63677 0.0
C486 C 0.0914 0.4651 0.65543 0.0
H487 H 1.04543 0.45741 0.58857 0.0
H488 H 1.04378 0.45445 0.6484 0.0
C489 C 0.11835 0.47342 0.63945 0.0
C490 C 0.71173 1.03412 0.55066 0.0
C491 C 0.73454 1.05077 0.53347 0.0
H492 H 0.69244 1.02297 0.59741 0.0
C493 C 0.75598 0.06931 0.55099 0.0
H494 H 0.69484 1.01979 0.53754 0.0
C495 C 0.75395 0.07218 0.58508 0.0
C496 C 0.7312 1.05549 0.60251 0.0
H497 H 0.77344 0.08281 0.53818 0.0
H498 H 0.76986 0.08811 0.59763 0.0
C499 C 0.71036 1.036 0.5849 0.0
C500 C 1.0589 0.73752 0.61622 0.0
C501 C 1.07561 0.71684 0.63664 0.0
H502 H 1.04767 0.75097 0.56694 0.0
C503 C 0.0946 0.69379 0.62243 0.0
H504 H 1.04424 0.75568 0.62642 0.0
C505 C 0.09649 0.69114 0.58846 0.0
C506 C 0.07949 0.71151 0.5682 0.0
H507 H 0.10791 0.67761 0.63747 0.0
H508 H 0.11122 0.67314 0.57809 0.0
C509 C 1.0608 0.73482 0.58222 0.0
C510 C 0.41653 0.09592 0.50295 0.0
C511 C 0.44256 0.08936 0.48511 0.0
H512 H 0.39617 0.09844 0.55 0.0
C513 C 0.46954 0.08273 0.50187 0.0
H514 H 0.39567 0.10187 0.49059 0.0
C515 C 0.46988 0.08086 0.53615 0.0
C516 C 0.44329 0.08573 0.55371 0.0
H517 H 0.48992 0.0776 0.48854 0.0
H518 H 0.49057 0.07463 0.54876 0.0
C519 C 0.41686 0.09406 0.53693 0.0
C520 C 0.56789 1.02492 0.37241 0.0
C521 C 0.54701 1.02206 0.39783 0.0
H522 H 0.61433 1.02973 0.35978 0.0
C523 C 0.55711 1.01727 0.43017 0.0
H524 H 0.56053 1.02859 0.34728 0.0
C525 C 0.58779 1.01874 0.43745 0.0
C526 C 0.60853 1.02442 0.41234 0.0
H527 H 0.54131 1.01493 0.45017 0.0
H528 H 0.59513 1.01717 0.4628 0.0
C529 C 0.59858 1.02577 0.3796 0.0
C530 C 0.08164 0.58977 0.4518 0.0
C531 C 0.10167 0.6087 0.43281 0.0
H532 H 1.06919 0.5426 0.46992 0.0
C533 C 0.12515 0.59279 0.41666 0.0
H534 H 1.06316 0.60096 0.46451 0.0
C535 C 0.12869 0.55891 0.41993 0.0
C536 C 0.10873 0.54015 0.43926 0.0
H537 H 0.14096 0.60649 0.40178 0.0
H538 H 0.14709 0.54746 0.40732 0.0
C539 C 0.08508 0.5561 0.45493 0.0
C540 C 0.54693 0.07767 0.72195 0.0
C541 C 0.53014 0.06662 0.69463 0.0
H542 H 0.59047 0.08373 0.7443 0.0
C543 C 0.54545 1.05224 0.66839 0.0
H544 H 0.53581 0.08862 0.74268 0.0
C545 C 0.57699 1.04994 0.66911 0.0
C546 C 0.59369 0.06138 0.69635 0.0
H547 H 0.53316 1.0436 0.64696 0.0
H548 H 0.58831 1.03931 0.64836 0.0
C549 C 0.57826 0.07483 0.72291 0.0
C550 C 1.01639 0.54057 0.7391 0.0
C551 C 1.019 0.52812 0.77109 0.0
H552 H 1.02714 0.58028 0.70699 0.0
C553 C 1.02701 0.54922 0.79689 0.0
H554 H 1.01004 0.52486 0.71875 0.0
C555 C 1.03708 0.58077 0.79006 0.0
C556 C 1.03908 0.59137 0.75743 0.0
H557 H 1.02911 0.54014 0.82175 0.0
H558 H 1.04532 0.59593 0.81007 0.0
C559 C 1.02691 0.57196 0.73221 0.0
C560 C 0.43741 0.60946 1.00814 0.0
C561 C 0.45394 0.58791 1.02784 0.0
H562 H 0.42365 0.65888 1.00081 0.0
C563 C 0.47134 0.6003 0.05397 0.0
H564 H 0.42394 0.60042 0.98771 0.0
C565 C 0.47044 0.63325 0.06189 0.0
C566 C 0.45269 0.65459 0.04337 0.0
H567 H 0.4844 0.58426 0.06945 0.0
H568 H 0.48293 0.6419 0.08321 0.0
C569 C 0.43719 0.64279 1.01559 0.0
C570 C 0.54147 0.47284 0.05725 0.0
C571 C 0.52856 0.46381 1.02705 0.0
H572 H 0.58136 0.48777 0.08299 0.0
C573 C 0.54574 0.46591 0.99841 0.0
H574 H 0.52838 0.47198 0.07955 0.0
C575 C 0.57628 0.47453 1.00039 0.0
C576 C 0.58955 0.48195 1.03093 0.0
H577 H 0.53598 0.45926 0.97485 0.0
H578 H 0.58977 0.47391 0.97839 0.0
C579 C 0.57165 0.48229 0.05911 0.0
C580 C 0.7239 0.57527 0.10268 0.0
C581 C 0.72154 0.55827 0.07283 0.0
H582 H 0.7304 0.62124 0.12671 0.0
C583 C 0.72594 0.5758 0.04346 0.0
H584 H 0.72086 0.56263 0.12577 0.0
C585 C 0.73208 0.60958 0.04401 0.0
C586 C 0.73339 0.62666 0.07392 0.0
H587 H 0.72468 0.5634 1.02002 0.0
H588 H 0.73492 0.62244 1.02102 0.0
C589 C 0.72944 0.60896 0.1032 0.0
C590 C 0.5924 0.70444 0.12189 0.0
C591 C 0.61075 0.69113 0.09766 0.0
H592 H 0.54889 0.72305 0.13282 0.0
C593 C 0.59783 0.67938 0.06839 0.0
H594 H 0.60201 0.71337 0.14477 0.0
C595 C 0.56781 0.68563 0.06129 0.0
C596 C 0.55051 0.70278 0.08382 0.0
H597 H 0.61159 0.66876 0.04949 0.0
H598 H 0.55887 0.67947 1.03722 0.0
C599 C 0.56213 0.71 0.11507 0.0
C600 C 0.64689 0.93493 0.11323 0.0
C601 C 0.62501 0.95043 0.0941 0.0
H602 H 0.65882 0.91604 0.16031 0.0
C603 C 0.59803 0.96003 0.10864 0.0
H604 H 0.66781 0.92714 0.10249 0.0
C605 C 0.59274 0.95352 0.14175 0.0
C606 C 0.61439 0.93735 0.16077 0.0
H607 H 0.58074 0.97187 0.09428 0.0
H608 H 0.5716 0.96083 0.15231 0.0
C609 C 0.64164 0.92845 0.14627 0.0
C610 C 0.23328 0.59522 0.08146 0.0
C611 C 0.23008 0.56405 0.09528 0.0
H612 H 0.23517 0.62367 1.03757 0.0
C613 C 0.22789 0.53682 0.07449 0.0
H614 H 0.23498 0.61665 0.09693 0.0
C615 C 0.22889 0.54078 1.04037 0.0
C616 C 0.23121 0.5721 1.02661 0.0
H617 H 0.22565 0.51251 0.08461 0.0
H618 H 0.22709 0.51946 1.02478 0.0
C619 C 0.23336 0.59924 0.04749 0.0
C620 C 0.63204 0.22704 0.09854 0.0
C621 C 0.60781 0.21617 0.07876 0.0
H622 H 0.64647 0.24276 0.14655 0.0
C623 C 0.57939 0.21162 0.09283 0.0
H624 H 0.65418 0.23086 0.08814 0.0
C625 C 0.57492 0.21885 0.12579 0.0
C626 C 0.59888 0.23038 0.14556 0.0
H627 H 0.56031 0.20335 0.07814 0.0
H628 H 0.55252 0.21561 0.1357 0.0
C629 C 0.62765 0.23388 0.13184 0.0
C630 C 0.90793 0.5572 1.01355 0.0
C631 C 0.93257 0.54782 0.99472 0.0
H632 H 0.88773 0.55787 0.06082 0.0
C633 C 0.95526 0.52905 1.00908 0.0
H634 H 0.89056 0.57232 1.00313 0.0
C635 C 0.95439 0.52198 1.0427 0.0
C636 C 0.93031 0.53275 0.0618 0.0
H637 H 0.9747 0.52209 0.99497 0.0
H638 H 0.97312 0.50953 0.05402 0.0
C639 C 0.90643 0.54904 0.04663 0.0
C640 C 1.06041 0.58242 0.97182 0.0
C641 C 1.04397 0.60305 0.95126 0.0
H642 H 0.10362 0.57108 0.99162 0.0
C643 C 1.05705 0.63232 0.94027 0.0
H644 H 1.05049 0.55984 0.98072 0.0
C645 C 0.08768 0.63853 0.94602 0.0
C646 C 0.10505 0.61563 0.96309 0.0
H647 H 1.04463 0.64846 0.92428 0.0
H648 H 0.09826 0.65946 0.93442 0.0
C649 C 0.09077 0.58888 0.97805 0.0
C650 C 0.63885 0.09845 0.96341 0.0
C651 C 0.62062 0.1126 0.93908 0.0
H652 H 0.65534 1.05479 0.98528 0.0
C653 C 0.60494 0.09164 0.91719 0.0
H654 H 0.65137 0.11357 0.98068 0.0
C655 C 0.60707 1.05756 0.91996 0.0
C656 C 0.6251 1.0435 0.94457 0.0
H657 H 0.59065 0.1015 0.89809 0.0
H658 H 0.59449 1.04225 0.90289 0.0
C659 C 0.64113 0.06451 0.96603 0.0
C660 C 1.04434 0.53159 0.17638 0.0
C661 C 1.03141 0.56216 0.18177 0.0
H662 H 0.08489 0.50496 0.1694 0.0
C663 C 1.05006 0.59012 0.1819 0.0
H664 H 1.03058 0.50957 0.17615 0.0
C665 C 0.08111 0.58747 0.17739 0.0
C666 C 0.09407 0.55678 0.1732 0.0
H667 H 1.04073 0.61402 0.18576 0.0
H668 H 0.09508 0.60933 0.17839 0.0
C669 C 1.07541 0.52891 0.17239 0.0
C670 C 0.61486 0.06854 0.25584 0.0
C671 C 0.5919 1.05345 0.23734 0.0
H672 H 0.64144 0.11148 0.26355 0.0
C673 C 0.58004 0.06888 0.20959 0.0
H674 H 0.62501 1.05641 0.27671 0.0
C675 C 0.58929 0.10059 0.20214 0.0
C676 C 0.61101 0.11641 0.22191 0.0
H677 H 0.56286 1.05698 0.19462 0.0
H678 H 0.57831 0.11334 0.1822 0.0
C679 C 0.62477 0.09968 0.24782 0.0
C680 C 0.99629 0.11515 0.54411 0.0
C681 C 0.98684 0.09748 0.57175 0.0
H682 H 0.9997 0.16188 0.52108 0.0
C683 C 0.97631 0.11407 0.59926 0.0
H684 H 1.00456 0.10279 0.5226 0.0
C685 C 0.97367 0.14783 0.59848 0.0
C686 C 0.98125 0.16541 0.57003 0.0
H687 H 0.96897 0.10088 0.62086 0.0
H688 H 0.96438 0.15989 0.61966 0.0
C689 C 0.99339 0.14891 0.54319 0.0
C690 C 0.10632 0.9351 0.52329 0.0
C691 C 0.12417 0.95081 0.54757 0.0
H692 H 1.0616 0.92422 0.50501 0.0
C693 C 0.10942 0.96738 0.57278 0.0
H694 H 0.11684 0.92201 0.5035 0.0
C695 C 0.07797 0.96857 0.57363 0.0
C696 C 1.05999 0.95317 0.54936 0.0
H697 H 0.12219 0.9797 0.59197 0.0
H698 H 1.06775 0.98172 0.59358 0.0
C699 C 1.0746 0.93625 0.52419 0.0
C700 C 0.18969 0.10645 0.56098 0.0
C701 C 0.21046 0.08787 0.57851 0.0
H702 H 0.17783 0.1535 0.54368 0.0
C703 C 0.23426 0.10359 0.59547 0.0
H704 H 0.17105 0.09488 0.54792 0.0
C705 C 0.23849 0.13737 0.59272 0.0
C706 C 0.21883 0.15566 0.57317 0.0
H707 H 0.25066 0.08959 0.60905 0.0
H708 H 0.25809 0.14868 0.60411 0.0
C709 C 0.19374 0.14001 0.55846 0.0
C710 C 0.09723 0.23311 0.47832 0.0
C711 C 0.11709 0.25958 0.48326 0.0
H712 H 1.05111 0.21754 0.47534 0.0
C713 C 0.10639 0.29146 0.48053 0.0
H714 H 0.10516 0.20833 0.47991 0.0
C715 C 1.07553 0.2967 0.47839 0.0
C716 C 1.05536 0.27011 0.47816 0.0
H717 H 0.12141 0.3123 0.48382 0.0
H718 H 1.06737 0.32133 0.48066 0.0
C719 C 1.06637 0.23841 0.47532 0.0
C720 C 0.21493 0.35646 0.52681 0.0
C721 C 0.22319 0.32873 0.50869 0.0
H722 H 0.18806 0.39985 0.52935 0.0
C723 C 0.21115 0.32694 0.47617 0.0
H724 H 0.22342 0.35954 0.55157 0.0
C725 C 0.19077 0.35012 0.46316 0.0
C726 C 0.18112 0.37684 0.48177 0.0
H727 H 0.21676 0.30655 0.46066 0.0
H728 H 0.18199 0.34653 0.43854 0.0
C729 C 0.19421 0.37969 0.5138 0.0
C730 C 0.83253 0.18947 0.50817 0.0
C731 C 0.86381 0.19003 0.51623 0.0
H732 H 0.79442 0.1638 0.48603 0.0
C733 C 0.88053 0.16364 0.50449 0.0
H734 H 0.81843 0.20891 0.51676 0.0
C735 C 0.86642 0.13734 0.48715 0.0
C736 C 0.83501 0.13627 0.47995 0.0
H737 H 0.90432 0.16233 0.51024 0.0
H738 H 0.88022 0.117 0.48019 0.0
C739 C 0.81852 0.16345 0.49019 0.0
C740 C 1.06424 0.8173 0.45795 0.0
C741 C 1.04734 0.79129 0.4441 0.0
H742 H 1.06501 0.86006 0.48869 0.0
C743 C 1.01574 0.79194 0.44994 0.0
H744 H 0.0885 0.81779 0.45541 0.0
C745 C 1.00185 0.81667 0.46909 0.0
C746 C 1.01898 0.84177 0.4843 0.0
H747 H 1.00161 0.7722 0.44066 0.0
H748 H 0.97787 0.81495 0.47349 0.0
C749 C 1.05047 0.84163 0.47762 0.0
C750 C 0.29227 1.03211 0.43896 0.0
C751 C 0.32318 1.02463 0.44009 0.0
H752 H 0.24724 1.0217 0.45568 0.0
C753 C 0.33076 0.997 0.45933 0.0
H754 H 0.28515 1.05375 0.42605 0.0
C755 C 0.30864 0.97808 0.47668 0.0
C756 C 0.27785 0.98652 0.47651 0.0
H757 H 0.35425 0.99097 0.4625 0.0
H758 H 0.31604 0.95813 0.49196 0.0
C759 C 0.27033 1.01366 0.45661 0.0
C760 C 0.16786 0.82335 0.62743 0.0
C761 C 0.16749 0.85681 0.61855 0.0
H762 H 0.14818 0.78378 0.65559 0.0
C763 C 0.14696 0.87636 0.63545 0.0
H764 H 0.18264 0.80706 0.61457 0.0
C765 C 0.12661 0.86266 0.65865 0.0
C766 C 0.12626 0.82897 0.6667 0.0
H767 H 0.14495 0.90182 0.62892 0.0
H768 H 0.10988 0.87836 0.6692 0.0
C769 C 0.14801 0.8098 0.65123 0.0
C770 C 0.38567 0.17023 0.64732 0.0
C771 C 0.38031 0.15 0.67517 0.0
H772 H 0.36847 0.20409 0.61119 0.0
C773 C 0.35091 0.15103 0.68796 0.0
H774 H 0.40771 0.17062 0.63618 0.0
C775 C 0.32806 0.17042 0.67315 0.0
C776 C 0.33333 0.19028 0.64499 0.0
H777 H 0.3452 0.1361 0.70898 0.0
H778 H 0.30578 0.16938 0.6837 0.0
C779 C 0.36294 0.1899 0.63276 0.0
C780 C 0.99417 0.339 0.65127 0.0
C781 C 1.0038 0.31292 0.63124 0.0
H782 H 1.00707 0.37817 0.68487 0.0
C783 C 1.03468 0.30531 0.63349 0.0
H784 H 0.9708 0.34608 0.65046 0.0
C785 C 1.05514 0.32336 0.65312 0.0
C786 C 1.04619 0.35014 0.67211 0.0
H787 H 1.04358 0.28547 0.61922 0.0
H788 H 0.07866 0.31677 0.6526 0.0
C789 C 1.01506 0.35739 0.67132 0.0
C790 C 0.84195 1.01005 0.59808 0.0
C791 C 0.83946 1.01434 0.63269 0.0
H792 H 0.86639 0.99049 0.55678 0.0
C793 C 0.86096 0.99747 0.65168 0.0
H794 H 0.82654 1.02269 0.58196 0.0
C795 C 0.88441 0.97904 0.63682 0.0
C796 C 0.88733 0.97543 0.60218 0.0
H797 H 0.86099 1.00022 0.67809 0.0
H798 H 0.90141 0.9687 0.65273 0.0
C799 C 0.86495 0.99102 0.58328 0.0
C800 C 0.50718 0.1621 0.28449 0.0
C801 C 0.5107 0.19553 0.29261 0.0
H802 H 0.4859 0.11564 0.29346 0.0
C803 C 0.49033 0.2072 0.31646 0.0
H804 H 0.52161 0.15141 0.26626 0.0
C805 C 0.46895 0.18583 0.33249 0.0
C806 C 0.46658 0.15203 0.32487 0.0
H807 H 0.4918 0.23248 0.32392 0.0
H808 H 0.45551 0.19547 0.35215 0.0
C809 C 0.486 0.14122 0.3 0.0
C810 C 1.03436 0.50644 0.35623 0.0
C811 C 1.05268 0.4845 0.33922 0.0
H812 H 1.00086 0.5439 0.35339 0.0
C813 C 1.04706 0.48165 0.30492 0.0
H814 H 1.03815 0.51042 0.38221 0.0
C815 C 1.02497 0.50045 0.28826 0.0
C816 C 1.00784 0.52372 0.30496 0.0
H817 H 1.06087 0.46568 0.29046 0.0
H818 H 1.02293 0.49842 0.26184 0.0
C819 C 1.01281 0.52586 0.33942 0.0
C820 C 0.69714 0.95933 0.37359 0.0
C821 C 0.71223 0.98905 0.36522 0.0
H822 H 0.66543 0.92074 0.36022 0.0
C823 C 0.70582 1.00118 0.33356 0.0
H824 H 0.70081 0.94889 0.39766 0.0
C825 C 0.68463 0.98514 0.31217 0.0
C826 C 0.66916 0.95568 0.32081 0.0
H827 H 0.7162 1.02386 0.3257 0.0
H828 H 0.68001 0.99632 0.28864 0.0
C829 C 0.67652 0.94289 0.35193 0.0
C830 C 0.16051 0.65765 0.28891 0.0
C831 C 0.17251 0.65783 0.32105 0.0
H832 H 0.16272 0.63946 0.23947 0.0
C833 C 0.19864 0.6386 0.32592 0.0
H834 H 0.14048 0.67143 0.28353 0.0
C835 C 0.21178 0.61996 0.30029 0.0
C836 C 0.19933 0.61921 0.26833 0.0
H837 H 0.20895 0.63747 0.35005 0.0
H838 H 0.23137 0.60553 0.30584 0.0
C839 C 0.17347 0.63883 0.26339 0.0
C840 C 0.52414 0.99857 0.8609 0.0
C841 C 0.54704 0.98223 0.84395 0.0
H842 H 0.48736 1.03242 0.85869 0.0
C843 C 0.54656 0.98578 0.80924 0.0
H844 H 0.52396 0.99794 0.88745 0.0
C845 C 0.5249 1.00514 0.79242 0.0
C846 C 0.50293 1.02275 0.80949 0.0
H847 H 0.56413 0.97473 0.79496 0.0
H848 H 0.5269 1.00826 0.76614 0.0
C849 C 0.50297 1.01864 0.84414 0.0
C850 C 0.13705 0.50608 0.83031 0.0
C851 C 0.15037 0.47951 0.81415 0.0
H852 H 0.1414 0.54641 0.86356 0.0
C853 C 0.18148 0.47507 0.82074 0.0
H854 H 0.11339 0.51095 0.82643 0.0
C855 C 0.19825 0.49655 0.84222 0.0
C856 C 0.18446 0.52295 0.85852 0.0
H857 H 0.19306 0.45534 0.80888 0.0
H858 H 0.22192 0.49209 0.84646 0.0
C859 C 0.15341 0.52683 0.85195 0.0
C860 C 0.68143 0.1503 0.76309 0.0
C861 C 0.70682 0.12997 0.76802 0.0
H862 H 0.64649 0.18013 0.78388 0.0
C863 C 0.71628 0.12652 0.80101 0.0
H864 H 0.67287 0.154 0.73844 0.0
C865 C 0.70054 0.14139 0.82743 0.0
C866 C 0.67485 0.16127 0.82252 0.0
H867 H 0.73527 0.11122 0.80667 0.0
H868 H 0.7084 0.13672 0.85217 0.0
C869 C 0.66608 0.16572 0.78945 0.0
C870 C 0.9973 0.70587 0.8264 0.0
C871 C 1.00469 0.6968 0.79401 0.0
H872 H 0.97565 0.69218 0.87205 0.0
C873 C 0.99419 0.66548 0.78381 0.0
H874 H 1.00436 0.72954 0.83558 0.0
C875 C 0.9786 0.64382 0.80482 0.0
C876 C 0.97111 0.65261 0.837 0.0
H877 H 0.99832 0.65709 0.75913 0.0
H878 H 0.97215 0.61996 0.79557 0.0
C879 C 0.98051 0.68432 0.84733 0.0
C880 C 0.35153 0.49077 0.14615 0.0
C881 C 0.32585 0.50302 0.1298 0.0
H882 H 0.39435 0.46649 0.14237 0.0
C883 C 0.32349 0.49519 0.09587 0.0
H884 H 0.35525 0.49669 0.17176 0.0
C885 C 0.34573 0.47701 0.07901 0.0
C886 C 0.37202 0.46593 0.09494 0.0
H887 H 0.30473 0.50444 0.08171 0.0
H888 H 0.34321 0.47351 0.05279 0.0
C889 C 0.3742 0.47319 0.12903 0.0
C890 C 0.36254 0.68435 0.99939 0.0
C891 C 0.35128 0.6859 1.0316 0.0
H892 H 0.35836 0.66329 0.9509 0.0
C893 C 0.32328 0.66953 1.03692 0.0
H894 H 0.38379 0.69625 0.99377 0.0
C895 C 0.30793 0.6515 1.01187 0.0
C896 C 0.32018 0.64809 0.9803 0.0
H897 H 0.31353 0.66962 0.06118 0.0
H898 H 0.2874 0.6384 1.01796 0.0
C899 C 0.34768 0.66533 0.97458 0.0
C900 C 0.55438 0.31762 0.94988 0.0
C901 C 0.54692 0.28417 0.9532 0.0
H902 H 0.54521 0.36743 0.96355 0.0
C903 C 0.5203 0.27733 0.97142 0.0
H904 H 0.57454 0.32464 0.93677 0.0
C905 C 0.50259 0.30221 0.98607 0.0
C906 C 0.51088 0.33553 0.98415 0.0
H907 H 0.51342 0.25221 0.97524 0.0
H908 H 0.48333 0.29503 1.00064 0.0
C909 C 0.5372 0.34244 0.96544 0.0
C910 C 0.8317 0.50386 0.96846 0.0
C911 C 0.83857 0.53777 0.96642 0.0
H912 H 0.80826 0.46455 0.99372 0.0
C913 C 0.8242 0.55782 0.98938 0.0
H914 H 0.84217 0.4872 0.95161 0.0
C915 C 0.80505 0.54462 1.01389 0.0
C916 C 0.79867 0.51073 1.01649 0.0
H917 H 0.8287 0.58382 0.98934 0.0
H918 H 0.79559 0.56126 1.0315 0.0
C919 C 0.81196 0.49066 0.99272 0.0
C920 C 0.67028 0.80073 1.00134 0.0
C921 C 0.69884 0.80325 1.01765 0.0
H922 H 0.63538 0.82357 0.97191 0.0
C923 C 0.71399 0.83349 1.0137 0.0
H924 H 0.65734 0.77824 1.00317 0.0
C925 C 0.70106 0.85977 0.99568 0.0
C926 C 0.6723 0.85762 0.97985 0.0
H927 H 0.73578 0.8373 1.0253 0.0
H928 H 0.71372 0.88251 0.99472 0.0
C929 C 0.65747 0.827 0.98285 0.0
C930 C 0.85502 0.64607 0.17532 0.0
C931 C 0.88225 0.63501 0.16127 0.0
H932 H 0.81235 0.67082 0.16789 0.0
C933 C 0.88683 0.64387 0.12813 0.0
H934 H 0.85003 0.63998 0.20055 0.0
C935 C 0.8655 0.6614 0.10967 0.0
C936 C 0.83791 0.67168 0.12283 0.0
H937 H 0.90708 0.63661 0.11567 0.0
H938 H 0.87062 0.66638 0.0842 0.0
C939 C 0.83326 0.66409 0.15647 0.0
C940 C 0.51941 0.82097 0.19658 0.0
C941 C 0.54194 0.84136 0.18254 0.0
H942 H 0.48068 0.78878 0.18864 0.0
C943 C 0.53963 0.84596 0.14817 0.0
H944 H 0.52022 0.81594 0.22264 0.0
C945 C 0.51689 0.83064 0.12869 0.0
C946 C 0.49499 0.80922 0.14214 0.0
H947 H 0.55622 0.86109 0.13582 0.0
H948 H 0.51724 0.83489 0.10248 0.0
C949 C 0.49657 0.80511 0.17679 0.0
C950 C 0.60896 0.37187 0.1492 0.0
C951 C 0.61975 0.34778 0.17094 0.0
H952 H 0.61773 0.41045 0.11521 0.0
C953 C 0.65162 0.34642 0.17414 0.0
H954 H 0.58493 0.3743 0.14538 0.0
C955 C 0.67134 0.36785 0.15581 0.0
C956 C 0.66003 0.39163 0.13361 0.0
H957 H 0.66141 0.32813 0.1899 0.0
H958 H 0.69544 0.36546 0.15877 0.0
C959 C 0.62825 0.393 0.1314 0.0
C960 C 0.97476 0.82601 0.67438 0.0
C961 C 0.99889 0.83685 0.69419 0.0
H962 H 0.94863 0.83408 0.63095 0.0
C963 C 1.01185 0.86774 0.68853 0.0
H964 H 0.96436 0.80229 0.67834 0.0
C965 C 1.00296 0.88587 0.66116 0.0
C966 C 0.98108 0.87321 0.63938 0.0
H967 H 1.03063 0.87652 0.70337 0.0
H968 H 1.0146 0.90864 0.65587 0.0
C969 C 0.966 0.844 0.64706 0.0
C970 C 0.32251 1.0186 0.65754 0.0
C971 C 0.35265 1.01705 0.64734 0.0
H972 H 0.27614 1.00818 0.64573 0.0
C973 C 0.35922 0.99896 0.61907 0.0
H974 H 0.31675 1.03251 0.67911 0.0
C975 C 0.33592 0.98572 0.5996 0.0
C976 C 0.30568 0.98933 0.60857 0.0
H977 H 0.38211 0.9976 0.6103 0.0
H978 H 0.34144 0.97458 0.57637 0.0
C979 C 0.29926 1.00447 0.63855 0.0
C980 C 0.16362 0.31336 0.67755 0.0
C981 C 0.16946 0.34712 0.67917 0.0
H982 H 0.16328 0.2704 0.64713 0.0
C983 C 0.18281 0.3627 0.65216 0.0
H984 H 0.15306 0.30079 0.6979 0.0
C985 C 0.18765 0.34574 0.62315 0.0
C986 C 0.18014 0.31253 0.62068 0.0
H987 H 0.1876 0.38867 0.65256 0.0
H988 H 0.19625 0.35899 0.60219 0.0
C989 C 0.16928 0.29604 0.64851 0.0
C990 C 0.83817 0.21238 0.64828 0.0
C991 C 0.86891 0.21063 0.65609 0.0
H992 H 0.79478 0.18914 0.65173 0.0
C993 C 0.87879 0.18637 0.67782 0.0
H994 H 0.83003 0.23068 0.6314 0.0
C995 C 0.85866 0.16269 0.68954 0.0
C996 C 0.82844 0.16275 0.67935 0.0
H997 H 0.90245 0.1845 0.68414 0.0
H998 H 0.86713 0.14325 0.70484 0.0
C999 C 0.81809 0.18844 0.65968 0.0
C1000 C 0.97397 0.35366 0.46376 0.0
C1001 C 0.97104 0.34127 0.49577 0.0
H1002 H 0.99998 0.38321 0.43059 0.0
C1003 C 0.99337 0.34919 0.51912 0.0
H1004 H 0.95663 0.34874 0.4455 0.0
C1005 C 1.01871 0.3681 0.51031 0.0
C1006 C 1.02142 0.38079 0.47836 0.0
H1007 H 0.99104 0.34117 0.5443 0.0
H1008 H 1.03542 0.37413 0.52894 0.0
C1009 C 0.99877 0.37334 0.4552 0.0
C1010 C 0.8834 1.02339 0.44248 0.0
C1011 C 0.85748 1.00334 0.44313 0.0
H1012 H 0.92874 1.0308 0.45977 0.0
C1013 C 0.85919 0.97249 0.45794 0.0
H1014 H 0.88268 1.04744 0.43158 0.0
C1015 C 0.8859 0.96259 0.47332 0.0
C1016 C 0.91101 0.98379 0.47492 0.0
H1017 H 0.83946 0.95668 0.459 0.0
H1018 H 0.88615 0.93943 0.48607 0.0
C1019 C 0.90975 1.01392 0.45868 0.0
C1020 C 0.1658 0.79095 0.45534 0.0
C1021 C 0.17312 0.76332 0.47401 0.0
H1022 H 0.17266 0.84225 0.44821 0.0
C1023 C 0.19722 0.76568 0.49658 0.0
H1024 H 0.14746 0.79006 0.43766 0.0
C1025 C 0.21179 0.79565 0.50246 0.0
C1026 C 0.20247 0.82383 0.48597 0.0
H1027 H 0.2036 0.74485 0.51124 0.0
H1028 H 0.22885 0.79715 0.52158 0.0
C1029 C 0.18026 0.82093 0.46136 0.0
C1030 C 0.3482 0.21198 0.48404 0.0
C1031 C 0.31665 0.21013 0.4851 0.0
H1032 H 0.38836 0.19329 0.4629 0.0
C1033 C 0.30103 0.19025 0.46243 0.0
H1034 H 0.36078 0.22709 0.50128 0.0
C1035 C 0.31683 0.17125 0.44009 0.0
C1036 C 0.34843 0.17155 0.44055 0.0
H1037 H 0.27667 0.18844 0.46279 0.0
H1038 H 0.30437 0.15506 0.42376 0.0
C1039 C 0.36397 0.19263 0.46212 0.0
C1040 C 0.67424 0.95179 0.81123 0.0
C1041 C 0.68008 0.96136 0.8438 0.0
H1042 H 0.67684 0.96508 0.76043 0.0
C1043 C 0.69831 0.98898 0.8498 0.0
H1044 H 0.66027 0.93053 0.80597 0.0
C1045 C 0.70744 1.00888 0.82386 0.0
C1046 C 0.69887 1.00121 0.7915 0.0
H1047 H 0.70329 0.99684 0.87465 0.0
H1048 H 0.71931 1.03152 0.82935 0.0
C1049 C 0.68377 0.97153 0.78516 0.0
C1050 C 0.16353 0.67799 0.79945 0.0
C1051 C 0.1395 0.69369 0.81481 0.0
H1052 H 0.20302 0.64933 0.80587 0.0
C1053 C 0.14071 0.69835 0.84892 0.0
H1054 H 0.16352 0.67425 0.77315 0.0
C1055 C 0.16382 0.68463 0.86761 0.0
C1056 C 0.18575 0.66542 0.85255 0.0
H1057 H 0.12274 0.71069 0.86143 0.0
H1058 H 0.16283 0.68665 0.89406 0.0
C1059 C 0.18629 0.66372 0.81818 0.0
C1060 C 0.49955 0.17424 0.85557 0.0
C1061 C 0.52124 0.19516 0.84157 0.0
H1062 H 0.46213 0.14187 0.84657 0.0
C1063 C 0.51798 0.20497 0.80886 0.0
H1064 H 0.50143 0.16673 0.88098 0.0
C1065 C 0.49535 0.191 0.78934 0.0
C1066 C 0.47593 0.16704 0.80236 0.0
H1067 H 0.53421 0.22145 0.79772 0.0
H1068 H 0.49479 0.19683 0.76341 0.0
C1069 C 0.47692 0.16023 0.83602 0.0
C1070 C 1.01875 0.46555 0.85615 0.0
C1071 C 0.98922 0.47278 0.84602 0.0
H1072 H 1.05688 0.4347 0.85007 0.0
C1073 C 0.97492 0.45275 0.82243 0.0
H1074 H 1.03024 0.4802 0.87462 0.0
C1075 C 0.99037 0.42686 0.80827 0.0
C1076 C 1.02023 0.42069 0.81755 0.0
H1077 H 0.95213 0.45758 0.81434 0.0
H1078 H 0.97924 0.41208 0.78963 0.0
C1079 C 1.03402 0.43956 0.8422 0.0
C1080 C 0.67524 0.16725 0.31706 0.0
C1081 C 0.65141 0.18227 0.33345 0.0
H1082 H 0.70905 0.13048 0.3188 0.0
C1083 C 0.64683 0.17492 0.36674 0.0
H1084 H 0.67914 0.17203 0.2913 0.0
C1085 C 0.66451 0.15167 0.38274 0.0
C1086 C 0.68654 0.13455 0.36549 0.0
H1087 H 0.62852 0.1859 0.37993 0.0
H1088 H 0.65926 0.14531 0.40786 0.0
C1089 C 0.69232 0.14331 0.33277 0.0
C1090 C 1.01742 0.7002 0.30808 0.0
C1091 C 1.02158 0.68822 0.33997 0.0
H1092 H 0.99411 0.69427 0.26236 0.0
C1093 C 1.00122 0.66499 0.35253 0.0
H1094 H 1.03259 0.7185 0.29805 0.0
C1095 C 0.9789 0.65139 0.33217 0.0
C1096 C 0.97705 0.6608 0.29912 0.0
H1097 H 1.00386 0.65569 0.37724 0.0
H1098 H 0.96508 0.6315 0.34143 0.0
C1099 C 0.99528 0.68653 0.28775 0.0
C1100 C 0.50189 0.96034 0.3591 0.0
C1101 C 0.50953 0.96195 0.32574 0.0
H1102 H 0.4691 0.97167 0.39585 0.0
C1103 C 0.48896 0.97569 0.30347 0.0
H1104 H 0.51727 0.94987 0.3768 0.0
C1105 C 0.46206 0.989 0.31451 0.0
C1106 C 0.4551 0.9887 0.34799 0.0
H1107 H 0.49421 0.97745 0.27762 0.0
H1108 H 0.44689 1.00004 0.29694 0.0
C1109 C 0.47459 0.97313 0.37004 0.0
C1110 C 0.18335 0.45748 0.26815 0.0
C1111 C 0.20666 0.48097 0.26971 0.0
H1112 H 0.15321 0.42649 0.295 0.0
C1113 C 0.22074 0.48765 0.29994 0.0
H1114 H 0.17218 0.45197 0.24502 0.0
C1115 C 0.20948 0.47349 0.32868 0.0
C1116 C 0.18443 0.45212 0.32734 0.0
H1117 H 0.23856 0.50591 0.30174 0.0
H1118 H 0.21907 0.48095 0.35208 0.0
C1119 C 0.17252 0.44288 0.29672 0.0
C1120 C 0.86034 0.72802 1.00213 0.0
C1121 C 0.83076 0.73247 0.99096 0.0
H1122 H 0.90187 0.70395 0.99348 0.0
C1123 C 0.8228 0.72401 0.9587 0.0
H1124 H 0.86692 0.73457 1.02696 0.0
C1125 C 0.84272 0.70661 0.93959 0.0
C1126 C 0.87053 0.69745 0.95284 0.0
H1127 H 0.80012 0.72769 0.94957 0.0
H1128 H 0.83505 0.69742 0.91599 0.0
C1129 C 0.88023 0.71035 0.98308 0.0
C1130 C 0.83544 0.45467 0.15715 0.0
C1131 C 0.80665 0.46644 0.16359 0.0
H1132 H 0.88276 0.46167 0.16447 0.0
C1133 C 0.80305 0.48981 0.18832 0.0
H1134 H 0.83871 0.43633 0.13847 0.0
C1135 C 0.82821 0.50448 0.20314 0.0
C1136 C 0.85726 0.49589 0.19343 0.0
H1137 H 0.78095 0.49887 0.19414 0.0
H1138 H 0.82489 0.5246 0.21985 0.0
C1139 C 0.86066 0.46918 0.17218 0.0
C1140 C 0.69796 0.82018 0.20451 0.0
C1141 C 0.67562 0.81175 0.22734 0.0
H1142 H 0.72614 0.80386 0.16574 0.0
C1143 C 0.66866 0.77879 0.23282 0.0
H1144 H 0.70402 0.84546 0.20007 0.0
C1145 C 0.68173 0.75484 0.21336 0.0
C1146 C 0.70156 0.76372 0.18798 0.0
H1147 H 0.65158 0.77171 0.25036 0.0
H1148 H 0.67428 0.72977 0.21636 0.0
C1149 C 0.71069 0.79639 0.18485 0.0
C1150 C 0.37809 0.66314 0.19082 0.0
C1151 C 0.36881 0.6921 0.1757 0.0
H1152 H 0.3642 0.61724 0.21116 0.0
C1153 C 0.33824 0.69993 0.17529 0.0
H1154 H 0.40166 0.65676 0.19158 0.0
C1155 C 0.31691 0.67724 0.18615 0.0
C1156 C 0.32603 0.64674 0.19783 0.0
H1157 H 0.33059 0.72218 0.16387 0.0
H1158 H 0.29324 0.68261 0.18314 0.0
C1159 C 0.35674 0.64056 0.202 0.0
C1160 C 0.45531 0.32399 0.13987 0.0
C1161 C 0.45993 0.35766 0.13706 0.0
H1162 H 0.46736 0.28075 0.16566 0.0
C1163 C 0.47529 0.37478 0.16208 0.0
H1164 H 0.44323 0.31041 0.121 0.0
C1165 C 0.48893 0.35791 0.18771 0.0
C1166 C 0.48739 0.32384 0.18827 0.0
H1167 H 0.4787 0.40093 0.16057 0.0
H1168 H 0.50288 0.37126 0.20518 0.0
C1169 C 0.46905 0.30711 0.16541 0.0
C1170 C 0.33246 0.48128 0.93428 0.0
C1171 C 0.33249 0.51042 0.91634 0.0
H1172 H 0.35907 0.44715 0.96077 0.0
C1173 C 0.35962 0.52296 0.9039 0.0
H1174 H 0.31165 0.47079 0.94351 0.0
C1175 C 0.38684 0.50919 0.91354 0.0
C1176 C 0.38686 0.48308 0.93585 0.0
H1177 H 0.36004 0.54523 0.88963 0.0
H1178 H 0.40765 0.52142 0.90671 0.0
C1179 C 0.35955 0.46764 0.94399 0.0
C1180 C 0.66034 0.37089 0.98251 0.0
C1181 C 0.68636 0.36824 1.00222 0.0
H1182 H 0.62318 0.34576 0.95951 0.0
C1183 C 0.69807 0.33711 1.00812 0.0
H1184 H 0.6506 0.3944 0.97743 0.0
C1185 C 0.68262 0.30916 0.99684 0.0
C1186 C 0.65502 0.312 0.98011 0.0
H1187 H 0.71806 0.33426 1.02318 0.0
H1188 H 0.69082 0.2854 1.00377 0.0
C1189 C 0.64457 0.34303 0.97208 0.0
C1190 C 0.53013 0.89097 0.9934 0.0
C1191 C 0.55824 0.87774 0.98631 0.0
H1192 H 0.4842 0.88076 1.00613 0.0
C1193 C 0.56033 0.84431 0.98013 0.0
H1194 H 0.52817 0.91675 0.99847 0.0
C1195 C 0.53528 0.82382 0.98389 0.0
C1196 C 0.50787 0.83633 0.99493 0.0
H1197 H 0.58183 0.8337 0.97453 0.0
H1198 H 0.53826 0.79785 0.98097 0.0
C1199 C 0.50505 0.87033 0.99787 0.0
loop_
_geom_bond_atom_site_label_1
_geom_bond_atom_site_label_2
_geom_bond_distance
_geom_bond_site_symmetry_2
_ccdc_geom_bond_type
O0 Tb1 2.506 . S
O0 C14 1.265 . S
Tb1 O0 2.506 . S
Tb1 O6 2.312 . S
Tb1 O10 2.271 . S
Tb1 O12 2.338 . S
Tb1 O19 2.441 . S
C2 O10 1.252 . S
C2 O11 1.253 . S
O3 Tb4 2.271 . S
O3 C13 1.252 . S
Tb4 O3 2.271 . S
Tb4 O7 2.338 1_455 S
Tb4 O11 2.312 . S
Tb4 O15 2.441 . S
Tb4 O16 2.506 . S
C5 O15 1.244 . S
C5 O16 1.265 . S
O6 Tb1 2.312 . S
O6 C13 1.253 . S
O7 Tb4 2.338 1_655 S
O7 C8 1.258 . S
C8 O7 1.258 . S
C8 O9 1.251 . S
O9 C8 1.251 . S
O10 Tb1 2.271 . S
O10 C2 1.252 . S
O11 C2 1.253 . S
O11 Tb4 2.312 . S
O12 Tb1 2.338 . S
O12 C17 1.258 . S
C13 O3 1.252 . S
C13 O6 1.253 . S
C14 O0 1.265 . S
C14 O19 1.244 . S
O15 Tb4 2.441 . S
O15 C5 1.244 . S
O16 Tb4 2.506 . S
O16 C5 1.265 . S
C17 O12 1.258 . S
C17 O18 1.251 1_455 S
O18 C17 1.251 1_655 S
O19 Tb1 2.441 . S
O19 C14 1.244 . S
O20 Tb21 2.506 . S
O20 C34 1.265 . S
Tb21 O20 2.506 . S
Tb21 O26 2.312 . S
Tb21 O30 2.271 . S
Tb21 O32 2.338 1_565 S
Tb21 O39 2.441 . S
C22 O30 1.252 1_545 S
C22 O31 1.253 . S
O23 Tb24 2.271 1_565 S
O23 C33 1.252 . S
Tb24 O23 2.271 1_545 S
Tb24 O27 2.338 . S
Tb24 O31 2.312 . S
Tb24 O35 2.441 1_545 S
Tb24 O36 2.506 . S
C25 O35 1.244 1_545 S
C25 O36 1.265 . S
O26 Tb21 2.312 . S
O26 C33 1.253 . S
O27 Tb24 2.338 . S
O27 C28 1.258 . S
C28 O27 1.258 . S
C28 O29 1.251 . S
O29 C28 1.251 . S
O30 Tb21 2.271 . S
O30 C22 1.252 1_565 S
O31 C22 1.253 . S
O31 Tb24 2.312 . S
O32 Tb21 2.338 1_545 S
O32 C37 1.258 . S
C33 O23 1.252 . S
C33 O26 1.253 . S
C34 O20 1.265 . S
C34 O39 1.244 . S
O35 Tb24 2.441 1_565 S
O35 C25 1.244 1_565 S
O36 Tb24 2.506 . S
O36 C25 1.265 . S
C37 O32 1.258 . S
C37 O38 1.251 . S
O38 C37 1.251 . S
O39 Tb21 2.441 . S
O39 C34 1.244 . S
O40 Tb41 2.506 1_655 S
O40 C54 1.265 . S
Tb41 O40 2.506 1_455 S
Tb41 O46 2.312 . S
Tb41 O50 2.271 . S
Tb41 O52 2.338 . S
Tb41 O59 2.441 1_455 S
C42 O50 1.252 . S
C42 O51 1.253 . S
O43 Tb44 2.271 . S
O43 C53 1.252 . S
Tb44 O43 2.271 . S
Tb44 O47 2.338 . S
Tb44 O51 2.312 . S
Tb44 O55 2.441 . S
Tb44 O56 2.506 . S
C45 O55 1.244 . S
C45 O56 1.265 . S
O46 Tb41 2.312 . S
O46 C53 1.253 . S
O47 Tb44 2.338 . S
O47 C48 1.258 . S
C48 O47 1.258 . S
C48 O49 1.251 . S
O49 C48 1.251 . S
O50 Tb41 2.271 . S
O50 C42 1.252 . S
O51 C42 1.253 . S
O51 Tb44 2.312 . S
O52 Tb41 2.338 . S
O52 C57 1.258 . S
C53 O43 1.252 . S
C53 O46 1.253 . S
C54 O40 1.265 . S
C54 O59 1.244 . S
O55 Tb44 2.441 . S
O55 C45 1.244 . S
O56 Tb44 2.506 . S
O56 C45 1.265 . S
C57 O52 1.258 . S
C57 O58 1.251 . S
O58 C57 1.251 . S
O59 Tb41 2.441 1_655 S
O59 C54 1.244 . S
O60 Tb61 2.506 . S
O60 C74 1.265 . S
Tb61 O60 2.506 . S
Tb61 O66 2.312 . S
Tb61 O70 2.271 . S
Tb61 O72 2.338 . S
Tb61 O79 2.441 . S
C62 O70 1.252 . S
C62 O71 1.253 . S
O63 Tb64 2.271 . S
O63 C73 1.252 . S
Tb64 O63 2.271 . S
Tb64 O67 2.338 1_545 S
Tb64 O71 2.312 . S
Tb64 O75 2.441 . S
Tb64 O76 2.506 . S
C65 O75 1.244 . S
C65 O76 1.265 . S
O66 Tb61 2.312 . S
O66 C73 1.253 . S
O67 Tb64 2.338 1_565 S
O67 C68 1.258 . S
C68 O67 1.258 . S
C68 O69 1.251 . S
O69 C68 1.251 . S
O70 Tb61 2.271 . S
O70 C62 1.252 . S
O71 C62 1.253 . S
O71 Tb64 2.312 . S
O72 Tb61 2.338 . S
O72 C77 1.258 . S
C73 O63 1.252 . S
C73 O66 1.253 . S
C74 O60 1.265 . S
C74 O79 1.244 . S
O75 Tb64 2.441 . S
O75 C65 1.244 . S
O76 Tb64 2.506 . S
O76 C65 1.265 . S
C77 O72 1.258 . S
C77 O78 1.251 1_545 S
O78 C77 1.251 1_565 S
O79 Tb61 2.441 . S
O79 C74 1.244 . S
O80 Tb81 2.506 . S
O80 C94 1.265 . S
Tb81 O80 2.506 . S
Tb81 O86 2.312 . S
Tb81 O90 2.271 1_455 S
Tb81 O92 2.338 . S
Tb81 O99 2.441 1_455 S
C82 O90 1.252 . S
C82 O91 1.253 . S
O83 Tb84 2.271 . S
O83 C93 1.252 1_655 S
Tb84 O83 2.271 . S
Tb84 O87 2.338 1_655 S
Tb84 O91 2.312 . S
Tb84 O95 2.441 . S
Tb84 O96 2.506 . S
C85 O95 1.244 . S
C85 O96 1.265 . S
O86 Tb81 2.312 . S
O86 C93 1.253 . S
O87 Tb84 2.338 1_455 S
O87 C88 1.258 . S
C88 O87 1.258 . S
C88 O89 1.251 . S
O89 C88 1.251 . S
O90 Tb81 2.271 1_655 S
O90 C82 1.252 . S
O91 C82 1.253 . S
O91 Tb84 2.312 . S
O92 Tb81 2.338 . S
O92 C97 1.258 . S
C93 O83 1.252 1_455 S
C93 O86 1.253 . S
C94 O80 1.265 . S
C94 O99 1.244 1_455 S
O95 Tb84 2.441 . S
O95 C85 1.244 . S
O96 Tb84 2.506 . S
O96 C85 1.265 . S
C97 O92 1.258 . S
C97 O98 1.251 . S
O98 C97 1.251 . S
O99 Tb81 2.441 1_655 S
O99 C94 1.244 1_655 S
O100 Tb101 2.506 . S
O100 C114 1.265 . S
Tb101 O100 2.506 . S
Tb101 O106 2.312 . S
Tb101 O110 2.271 . S
Tb101 O112 2.338 . S
Tb101 O119 2.441 . S
C102 O110 1.252 . S
C102 O111 1.253 . S
O103 Tb104 2.271 . S
O103 C113 1.252 . S
Tb104 O103 2.271 . S
Tb104 O107 2.338 1_545 S
Tb104 O111 2.312 . S
Tb104 O115 2.441 . S
Tb104 O116 2.506 . S
C105 O115 1.244 . S
C105 O116 1.265 . S
O106 Tb101 2.312 . S
O106 C113 1.253 . S
O107 Tb104 2.338 1_565 S
O107 C108 1.258 . S
C108 O107 1.258 . S
C108 O109 1.251 . S
O109 C108 1.251 . S
O110 Tb101 2.271 . S
O110 C102 1.252 . S
O111 C102 1.253 . S
O111 Tb104 2.312 . S
O112 Tb101 2.338 . S
O112 C117 1.258 1_545 S
C113 O103 1.252 . S
C113 O106 1.253 . S
C114 O100 1.265 . S
C114 O119 1.244 . S
O115 Tb104 2.441 . S
O115 C105 1.244 . S
O116 Tb104 2.506 . S
O116 C105 1.265 . S
C117 O112 1.258 1_565 S
C117 O118 1.251 . S
O118 C117 1.251 . S
O119 Tb101 2.441 . S
O119 C114 1.244 . S
O120 Tb121 2.506 . S
O120 C134 1.265 . S
Tb121 O120 2.506 . S
Tb121 O126 2.312 . S
Tb121 O130 2.271 . S
Tb121 O132 2.338 . S
Tb121 O139 2.441 . S
C122 O130 1.252 . S
C122 O131 1.253 . S
O123 Tb124 2.271 . S
O123 C133 1.252 . S
Tb124 O123 2.271 . S
Tb124 O127 2.338 1_455 S
Tb124 O131 2.312 . S
Tb124 O135 2.441 . S
Tb124 O136 2.506 1_455 S
C125 O135 1.244 . S
C125 O136 1.265 1_455 S
O126 Tb121 2.312 . S
O126 C133 1.253 . S
O127 Tb124 2.338 1_655 S
O127 C128 1.258 . S
C128 O127 1.258 . S
C128 O129 1.251 . S
O129 C128 1.251 . S
O130 Tb121 2.271 . S
O130 C122 1.252 . S
O131 C122 1.253 . S
O131 Tb124 2.312 . S
O132 Tb121 2.338 . S
O132 C137 1.258 1_455 S
C133 O123 1.252 . S
C133 O126 1.253 . S
C134 O120 1.265 . S
C134 O139 1.244 . S
O135 Tb124 2.441 . S
O135 C125 1.244 . S
O136 Tb124 2.506 1_655 S
O136 C125 1.265 1_655 S
C137 O132 1.258 1_655 S
C137 O138 1.251 . S
O138 C137 1.251 . S
O139 Tb121 2.441 . S
O139 C134 1.244 . S
O140 Tb141 2.506 . S
O140 C154 1.265 . S
Tb141 O140 2.506 . S
Tb141 O146 2.312 . S
Tb141 O150 2.271 . S
Tb141 O152 2.338 1_545 S
Tb141 O159 2.441 . S
C142 O150 1.252 1_565 S
C142 O151 1.253 . S
O143 Tb144 2.271 1_545 S
O143 C153 1.252 . S
Tb144 O143 2.271 1_565 S
Tb144 O147 2.338 . S
Tb144 O151 2.312 . S
Tb144 O155 2.441 1_565 S
Tb144 O156 2.506 . S
C145 O155 1.244 1_565 S
C145 O156 1.265 . S
O146 Tb141 2.312 . S
O146 C153 1.253 . S
O147 Tb144 2.338 . S
O147 C148 1.258 . S
C148 O147 1.258 . S
C148 O149 1.251 . S
O149 C148 1.251 . S
O150 Tb141 2.271 . S
O150 C142 1.252 1_545 S
O151 C142 1.253 . S
O151 Tb144 2.312 . S
O152 Tb141 2.338 1_565 S
O152 C157 1.258 . S
C153 O143 1.252 . S
C153 O146 1.253 . S
C154 O140 1.265 . S
C154 O159 1.244 . S
O155 Tb144 2.441 1_545 S
O155 C145 1.244 1_545 S
O156 Tb144 2.506 . S
O156 C145 1.265 . S
C157 O152 1.258 . S
C157 O158 1.251 . S
O158 C157 1.251 . S
O159 Tb141 2.441 . S
O159 C154 1.244 . S
O160 Tb161 2.506 . S
O160 C174 1.265 . S
Tb161 O160 2.506 . S
Tb161 O166 2.312 . S
Tb161 O170 2.271 . S
Tb161 O172 2.338 1_554 S
Tb161 O179 2.441 . S
C162 O170 1.252 1_556 S
C162 O171 1.253 . S
O163 Tb164 2.271 1_554 S
O163 C173 1.252 . S
Tb164 O163 2.271 1_556 S
Tb164 O167 2.338 . S
Tb164 O171 2.312 . S
Tb164 O175 2.441 1_556 S
Tb164 O176 2.506 . S
C165 O175 1.244 1_556 S
C165 O176 1.265 . S
O166 Tb161 2.312 . S
O166 C173 1.253 . S
O167 Tb164 2.338 . S
O167 C168 1.258 . S
C168 O167 1.258 . S
C168 O169 1.251 . S
O169 C168 1.251 . S
O170 Tb161 2.271 . S
O170 C162 1.252 1_554 S
O171 C162 1.253 . S
O171 Tb164 2.312 . S
O172 Tb161 2.338 1_556 S
O172 C177 1.258 . S
C173 O163 1.252 . S
C173 O166 1.253 . S
C174 O160 1.265 . S
C174 O179 1.244 . S
O175 Tb164 2.441 1_554 S
O175 C165 1.244 1_554 S
O176 Tb164 2.506 . S
O176 C165 1.265 . S
C177 O172 1.258 . S
C177 O178 1.251 . S
O178 C177 1.251 . S
O179 Tb161 2.441 . S
O179 C174 1.244 . S
O180 Tb181 2.506 . S
O180 C194 1.265 . S
Tb181 O180 2.506 . S
Tb181 O186 2.312 . S
Tb181 O190 2.271 . S
Tb181 O192 2.338 . S
Tb181 O199 2.441 . S
C182 O190 1.252 . S
C182 O191 1.253 . S
O183 Tb184 2.271 . S
O183 C193 1.252 . S
Tb184 O183 2.271 . S
Tb184 O187 2.338 1_554 S
Tb184 O191 2.312 . S
Tb184 O195 2.441 . S
Tb184 O196 2.506 . S
C185 O195 1.244 . S
C185 O196 1.265 . S
O186 Tb181 2.312 . S
O186 C193 1.253 . S
O187 Tb184 2.338 1_556 S
O187 C188 1.258 . S
C188 O187 1.258 . S
C188 O189 1.251 . S
O189 C188 1.251 . S
O190 Tb181 2.271 . S
O190 C182 1.252 . S
O191 C182 1.253 . S
O191 Tb184 2.312 . S
O192 Tb181 2.338 . S
O192 C197 1.258 . S
C193 O183 1.252 . S
C193 O186 1.253 . S
C194 O180 1.265 . S
C194 O199 1.244 . S
O195 Tb184 2.441 . S
O195 C185 1.244 . S
O196 Tb184 2.506 . S
O196 C185 1.265 . S
C197 O192 1.258 . S
C197 O198 1.251 1_554 S
O198 C197 1.251 1_556 S
O199 Tb181 2.441 . S
O199 C194 1.244 . S
O200 Tb201 2.506 . S
O200 C214 1.265 . S
Tb201 O200 2.506 . S
Tb201 O206 2.312 . S
Tb201 O210 2.271 . S
Tb201 O212 2.338 . S
Tb201 O219 2.441 . S
C202 O210 1.252 . S
C202 O211 1.253 . S
O203 Tb204 2.269 1_554 S
O203 C213 1.252 . S
Tb204 O203 2.269 1_556 S
Tb204 O207 2.340 . S
Tb204 O211 2.312 1_556 S
Tb204 O215 2.439 1_556 S
Tb204 O216 2.506 . S
C205 O215 1.244 . S
C205 O216 1.265 1_554 S
O206 Tb201 2.312 . S
O206 C213 1.253 . S
O207 Tb204 2.340 . S
O207 C208 1.258 . S
C208 O207 1.258 . S
C208 O209 1.251 . S
O209 C208 1.251 . S
O210 Tb201 2.271 . S
O210 C202 1.252 . S
O211 C202 1.253 . S
O211 Tb204 2.312 1_554 S
O212 Tb201 2.338 . S
O212 C217 1.258 1_554 S
C213 O203 1.252 . S
C213 O206 1.253 . S
C214 O200 1.265 . S
C214 O219 1.244 . S
O215 Tb204 2.439 1_554 S
O215 C205 1.244 . S
O216 Tb204 2.506 . S
O216 C205 1.265 1_556 S
C217 O212 1.258 1_556 S
C217 O218 1.251 . S
O218 C217 1.251 . S
O219 Tb201 2.441 . S
O219 C214 1.244 . S
O220 Tb221 2.506 . S
O220 C234 1.265 . S
Tb221 O220 2.506 . S
Tb221 O226 2.312 . S
Tb221 O230 2.271 . S
Tb221 O232 2.338 . S
Tb221 O239 2.441 . S
C222 O230 1.252 . S
C222 O231 1.253 1_554 S
O223 Tb224 2.271 1_554 S
O223 C233 1.252 . S
Tb224 O223 2.271 1_556 S
Tb224 O227 2.338 1_556 S
Tb224 O231 2.312 . S
Tb224 O235 2.441 . S
Tb224 O236 2.506 . S
C225 O235 1.244 . S
C225 O236 1.265 . S
O226 Tb221 2.312 . S
O226 C233 1.253 . S
O227 Tb224 2.338 1_554 S
O227 C228 1.258 . S
C228 O227 1.258 . S
C228 O229 1.251 . S
O229 C228 1.251 . S
O230 Tb221 2.271 . S
O230 C222 1.252 . S
O231 C222 1.253 1_556 S
O231 Tb224 2.312 . S
O232 Tb221 2.338 . S
O232 C237 1.258 . S
C233 O223 1.252 . S
C233 O226 1.253 . S
C234 O220 1.265 . S
C234 O239 1.244 . S
O235 Tb224 2.441 . S
O235 C225 1.244 . S
O236 Tb224 2.506 . S
O236 C225 1.265 . S
C237 O232 1.258 . S
C237 O238 1.251 . S
O238 C237 1.251 . S
O239 Tb221 2.441 . S
O239 C234 1.244 . S
O240 Tb241 2.506 . S
O240 C254 1.265 . S
Tb241 O240 2.506 . S
Tb241 O246 2.312 . S
Tb241 O250 2.271 . S
Tb241 O252 2.338 . S
Tb241 O259 2.441 . S
C242 O250 1.252 . S
C242 O251 1.253 . S
O243 Tb244 2.271 . S
O243 C253 1.252 . S
Tb244 O243 2.271 . S
Tb244 O247 2.338 . S
Tb244 O251 2.312 . S
Tb244 O255 2.441 1_556 S
Tb244 O256 2.506 1_556 S
C245 O255 1.244 . S
C245 O256 1.265 . S
O246 Tb241 2.312 . S
O246 C253 1.253 . S
O247 Tb244 2.338 . S
O247 C248 1.258 . S
C248 O247 1.258 . S
C248 O249 1.251 . S
O249 C248 1.251 . S
O250 Tb241 2.271 . S
O250 C242 1.252 . S
O251 C242 1.253 . S
O251 Tb244 2.312 . S
O252 Tb241 2.338 . S
O252 C257 1.258 . S
C253 O243 1.252 . S
C253 O246 1.253 . S
C254 O240 1.265 . S
C254 O259 1.244 . S
O255 Tb244 2.441 1_554 S
O255 C245 1.244 . S
O256 Tb244 2.506 1_554 S
O256 C245 1.265 . S
C257 O252 1.258 . S
C257 O258 1.251 . S
O258 C257 1.251 . S
O259 Tb241 2.441 . S
O259 C254 1.244 . S
O260 Tb261 2.506 . S
O260 C274 1.265 . S
Tb261 O260 2.506 . S
Tb261 O266 2.312 . S
Tb261 O270 2.271 . S
Tb261 O272 2.338 . S
Tb261 O279 2.441 . S
C262 O270 1.252 . S
C262 O271 1.253 . S
O263 Tb264 2.271 . S
O263 C273 1.252 . S
Tb264 O263 2.271 . S
Tb264 O267 2.338 . S
Tb264 O271 2.312 . S
Tb264 O275 2.441 . S
Tb264 O276 2.506 . S
C265 O275 1.244 . S
C265 O276 1.265 . S
O266 Tb261 2.312 . S
O266 C273 1.253 . S
O267 Tb264 2.338 . S
O267 C268 1.258 . S
C268 O267 1.258 . S
C268 O269 1.251 . S
O269 C268 1.251 . S
O270 Tb261 2.271 . S
O270 C262 1.252 . S
O271 C262 1.253 . S
O271 Tb264 2.312 . S
O272 Tb261 2.338 . S
O272 C277 1.258 . S
C273 O263 1.252 . S
C273 O266 1.253 . S
C274 O260 1.265 . S
C274 O279 1.244 . S
O275 Tb264 2.441 . S
O275 C265 1.244 . S
O276 Tb264 2.506 . S
O276 C265 1.265 . S
C277 O272 1.258 . S
C277 O278 1.251 . S
O278 C277 1.251 . S
O279 Tb261 2.441 . S
O279 C274 1.244 . S
O280 Tb281 2.506 . S
O280 C294 1.265 . S
Tb281 O280 2.506 . S
Tb281 O286 2.312 . S
Tb281 O290 2.271 . S
Tb281 O292 2.338 . S
Tb281 O299 2.441 . S
C282 O290 1.252 . S
C282 O291 1.253 . S
O283 Tb284 2.271 . S
O283 C293 1.252 . S
Tb284 O283 2.271 . S
Tb284 O287 2.338 . S
Tb284 O291 2.312 . S
Tb284 O295 2.441 . S
Tb284 O296 2.506 1_556 S
C285 O295 1.244 1_554 S
C285 O296 1.265 . S
O286 Tb281 2.312 . S
O286 C293 1.253 . S
O287 Tb284 2.338 . S
O287 C288 1.258 . S
C288 O287 1.258 . S
C288 O289 1.251 . S
O289 C288 1.251 . S
O290 Tb281 2.271 . S
O290 C282 1.252 . S
O291 C282 1.253 . S
O291 Tb284 2.312 . S
O292 Tb281 2.338 . S
O292 C297 1.258 . S
C293 O283 1.252 . S
C293 O286 1.253 . S
C294 O280 1.265 . S
C294 O299 1.244 . S
O295 Tb284 2.441 . S
O295 C285 1.244 1_556 S
O296 Tb284 2.506 1_554 S
O296 C285 1.265 . S
C297 O292 1.258 . S
C297 O298 1.251 . S
O298 C297 1.251 . S
O299 Tb281 2.441 . S
O299 C294 1.244 . S
O300 Tb301 2.506 . S
O300 C314 1.265 . S
Tb301 O300 2.506 . S
Tb301 O306 2.312 . S
Tb301 O310 2.271 . S
Tb301 O312 2.338 . S
Tb301 O319 2.441 . S
C302 O310 1.252 . S
C302 O311 1.253 . S
O303 Tb304 2.271 . S
O303 C313 1.252 . S
Tb304 O303 2.271 . S
Tb304 O307 2.338 . S
Tb304 O311 2.312 . S
Tb304 O315 2.441 . S
Tb304 O316 2.506 . S
C305 O315 1.244 . S
C305 O316 1.265 . S
O306 Tb301 2.312 . S
O306 C313 1.253 . S
O307 Tb304 2.338 . S
O307 C308 1.258 . S
C308 O307 1.258 . S
C308 O309 1.251 . S
O309 C308 1.251 . S
O310 Tb301 2.271 . S
O310 C302 1.252 . S
O311 C302 1.253 . S
O311 Tb304 2.312 . S
O312 Tb301 2.338 . S
O312 C317 1.258 . S
C313 O303 1.252 . S
C313 O306 1.253 . S
C314 O300 1.265 . S
C314 O319 1.244 . S
O315 Tb304 2.441 . S
O315 C305 1.244 . S
O316 Tb304 2.506 . S
O316 C305 1.265 . S
C317 O312 1.258 . S
C317 O318 1.251 . S
O318 C317 1.251 . S
O319 Tb301 2.441 . S
O319 C314 1.244 . S
O320 Tb321 2.506 . S
O320 C334 1.265 . S
Tb321 O320 2.506 . S
Tb321 O326 2.312 . S
Tb321 O330 2.271 . S
Tb321 O332 2.338 . S
Tb321 O339 2.441 . S
C322 O330 1.252 . S
C322 O331 1.253 . S
O323 Tb324 2.271 . S
O323 C333 1.252 . S
Tb324 O323 2.271 . S
Tb324 O327 2.338 . S
Tb324 O331 2.312 . S
Tb324 O335 2.441 . S
Tb324 O336 2.506 . S
C325 O335 1.244 . S
C325 O336 1.265 . S
O326 Tb321 2.312 . S
O326 C333 1.253 . S
O327 Tb324 2.338 . S
O327 C328 1.258 . S
C328 O327 1.258 . S
C328 O329 1.251 . S
O329 C328 1.251 . S
O330 Tb321 2.271 . S
O330 C322 1.252 . S
O331 C322 1.253 . S
O331 Tb324 2.312 . S
O332 Tb321 2.338 . S
O332 C337 1.258 . S
C333 O323 1.252 . S
C333 O326 1.253 . S
C334 O320 1.265 . S
C334 O339 1.244 . S
O335 Tb324 2.441 . S
O335 C325 1.244 . S
O336 Tb324 2.506 . S
O336 C325 1.265 . S
C337 O332 1.258 . S
C337 O338 1.251 . S
O338 C337 1.251 . S
O339 Tb321 2.441 . S
O339 C334 1.244 . S
O340 Tb341 2.506 . S
O340 C354 1.265 . S
Tb341 O340 2.506 . S
Tb341 O346 2.312 . S
Tb341 O350 2.271 . S
Tb341 O352 2.338 . S
Tb341 O359 2.441 . S
C342 O350 1.252 . S
C342 O351 1.253 . S
O343 Tb344 2.271 . S
O343 C353 1.252 . S
Tb344 O343 2.271 . S
Tb344 O347 2.338 . S
Tb344 O351 2.312 . S
Tb344 O355 2.441 . S
Tb344 O356 2.506 . S
C345 O355 1.244 . S
C345 O356 1.265 . S
O346 Tb341 2.312 . S
O346 C353 1.253 . S
O347 Tb344 2.338 . S
O347 C348 1.258 . S
C348 O347 1.258 . S
C348 O349 1.251 . S
O349 C348 1.251 . S
O350 Tb341 2.271 . S
O350 C342 1.252 . S
O351 C342 1.253 . S
O351 Tb344 2.312 . S
O352 Tb341 2.338 . S
O352 C357 1.258 . S
C353 O343 1.252 . S
C353 O346 1.253 . S
C354 O340 1.265 . S
C354 O359 1.244 . S
O355 Tb344 2.441 . S
O355 C345 1.244 . S
O356 Tb344 2.506 . S
O356 C345 1.265 . S
C357 O352 1.258 . S
C357 O358 1.251 . S
O358 C357 1.251 . S
O359 Tb341 2.441 . S
O359 C354 1.244 . S
O360 Tb361 2.506 . S
O360 C374 1.265 . S
Tb361 O360 2.506 . S
Tb361 O366 2.312 . S
Tb361 O370 2.271 . S
Tb361 O372 2.338 . S
Tb361 O379 2.441 . S
C362 O370 1.252 . S
C362 O371 1.253 . S
O363 Tb364 2.271 . S
O363 C373 1.252 . S
Tb364 O363 2.271 . S
Tb364 O367 2.338 . S
Tb364 O371 2.312 . S
Tb364 O375 2.441 . S
Tb364 O376 2.506 . S
C365 O375 1.244 . S
C365 O376 1.265 . S
O366 Tb361 2.312 . S
O366 C373 1.253 . S
O367 Tb364 2.338 . S
O367 C368 1.258 . S
C368 O367 1.258 . S
C368 O369 1.251 . S
O369 C368 1.251 . S
O370 Tb361 2.271 . S
O370 C362 1.252 . S
O371 C362 1.253 . S
O371 Tb364 2.312 . S
O372 Tb361 2.338 . S
O372 C377 1.258 . S
C373 O363 1.252 . S
C373 O366 1.253 . S
C374 O360 1.265 . S
C374 O379 1.244 . S
O375 Tb364 2.441 . S
O375 C365 1.244 . S
O376 Tb364 2.506 . S
O376 C365 1.265 . S
C377 O372 1.258 . S
C377 O378 1.251 . S
O378 C377 1.251 . S
O379 Tb361 2.441 . S
O379 C374 1.244 . S
O380 Tb381 2.506 . S
O380 C394 1.265 . S
Tb381 O380 2.506 . S
Tb381 O386 2.312 . S
Tb381 O390 2.271 . S
Tb381 O392 2.338 . S
Tb381 O399 2.441 . S
C382 O390 1.252 . S
C382 O391 1.253 . S
O383 Tb384 2.271 . S
O383 C393 1.252 . S
Tb384 O383 2.271 . S
Tb384 O387 2.338 . S
Tb384 O391 2.312 . S
Tb384 O395 2.441 . S
Tb384 O396 2.506 . S
C385 O395 1.244 . S
C385 O396 1.265 . S
O386 Tb381 2.312 . S
O386 C393 1.253 . S
O387 Tb384 2.338 . S
O387 C388 1.258 . S
C388 O387 1.258 . S
C388 O389 1.251 . S
O389 C388 1.251 . S
O390 Tb381 2.271 . S
O390 C382 1.252 . S
O391 C382 1.253 . S
O391 Tb384 2.312 . S
O392 Tb381 2.338 . S
O392 C397 1.258 . S
C393 O383 1.252 . S
C393 O386 1.253 . S
C394 O380 1.265 . S
C394 O399 1.244 . S
O395 Tb384 2.441 . S
O395 C385 1.244 . S
O396 Tb384 2.506 . S
O396 C385 1.265 . S
C397 O392 1.258 . S
C397 O398 1.251 . S
O398 C397 1.251 . S
O399 Tb381 2.441 . S
O399 C394 1.244 . S
O400 Tb401 2.506 . S
O400 C414 1.265 . S
Tb401 O400 2.506 . S
Tb401 O406 2.312 . S
Tb401 O410 2.271 . S
Tb401 O412 2.338 . S
Tb401 O419 2.441 . S
C402 O410 1.252 . S
C402 O411 1.253 . S
O403 Tb404 2.271 . S
O403 C413 1.252 . S
Tb404 O403 2.271 . S
Tb404 O407 2.338 . S
Tb404 O411 2.312 . S
Tb404 O415 2.441 . S
Tb404 O416 2.506 1_565 S
C405 O415 1.244 1_545 S
C405 O416 1.265 . S
O406 Tb401 2.312 . S
O406 C413 1.253 . S
O407 Tb404 2.338 . S
O407 C408 1.258 . S
C408 O407 1.258 . S
C408 O409 1.251 . S
O409 C408 1.251 . S
O410 Tb401 2.271 . S
O410 C402 1.252 . S
O411 C402 1.253 . S
O411 Tb404 2.312 . S
O412 Tb401 2.338 . S
O412 C417 1.258 . S
C413 O403 1.252 . S
C413 O406 1.253 . S
C414 O400 1.265 . S
C414 O419 1.244 . S
O415 Tb404 2.441 . S
O415 C405 1.244 1_565 S
O416 Tb404 2.506 1_545 S
O416 C405 1.265 . S
C417 O412 1.258 . S
C417 O418 1.251 . S
O418 C417 1.251 . S
O419 Tb401 2.441 . S
O419 C414 1.244 . S
O420 Tb421 2.506 . S
O420 C434 1.265 . S
Tb421 O420 2.506 . S
Tb421 O426 2.312 . S
Tb421 O430 2.271 . S
Tb421 O432 2.338 . S
Tb421 O439 2.441 . S
C422 O430 1.252 . S
C422 O431 1.253 . S
O423 Tb424 2.271 . S
O423 C433 1.252 . S
Tb424 O423 2.271 . S
Tb424 O427 2.338 . S
Tb424 O431 2.312 . S
Tb424 O435 2.441 . S
Tb424 O436 2.506 . S
C425 O435 1.244 . S
C425 O436 1.265 . S
O426 Tb421 2.312 . S
O426 C433 1.253 . S
O427 Tb424 2.338 . S
O427 C428 1.258 . S
C428 O427 1.258 . S
C428 O429 1.251 . S
O429 C428 1.251 . S
O430 Tb421 2.271 . S
O430 C422 1.252 . S
O431 C422 1.253 . S
O431 Tb424 2.312 . S
O432 Tb421 2.338 . S
O432 C437 1.258 . S
C433 O423 1.252 . S
C433 O426 1.253 . S
C434 O420 1.265 . S
C434 O439 1.244 . S
O435 Tb424 2.441 . S
O435 C425 1.244 . S
O436 Tb424 2.506 . S
O436 C425 1.265 . S
C437 O432 1.258 . S
C437 O438 1.251 . S
O438 C437 1.251 . S
O439 Tb421 2.441 . S
O439 C434 1.244 . S
O440 Tb441 2.506 . S
O440 C454 1.265 . S
Tb441 O440 2.506 . S
Tb441 O446 2.312 . S
Tb441 O450 2.271 . S
Tb441 O452 2.338 . S
Tb441 O459 2.441 . S
C442 O450 1.252 . S
C442 O451 1.253 . S
O443 Tb444 2.271 . S
O443 C453 1.252 . S
Tb444 O443 2.271 . S
Tb444 O447 2.338 . S
Tb444 O451 2.312 . S
Tb444 O455 2.441 1_565 S
Tb444 O456 2.506 1_565 S
C445 O455 1.244 . S
C445 O456 1.265 . S
O446 Tb441 2.312 . S
O446 C453 1.253 . S
O447 Tb444 2.338 . S
O447 C448 1.258 . S
C448 O447 1.258 . S
C448 O449 1.251 . S
O449 C448 1.251 . S
O450 Tb441 2.271 . S
O450 C442 1.252 . S
O451 C442 1.253 . S
O451 Tb444 2.312 . S
O452 Tb441 2.338 . S
O452 C457 1.258 . S
C453 O443 1.252 . S
C453 O446 1.253 . S
C454 O440 1.265 . S
C454 O459 1.244 . S
O455 Tb444 2.441 1_545 S
O455 C445 1.244 . S
O456 Tb444 2.506 1_545 S
O456 C445 1.265 . S
C457 O452 1.258 . S
C457 O458 1.251 . S
O458 C457 1.251 . S
O459 Tb441 2.441 . S
O459 C454 1.244 . S
O460 Tb461 2.506 . S
O460 C474 1.265 . S
Tb461 O460 2.506 . S
Tb461 O466 2.312 . S
Tb461 O470 2.271 . S
Tb461 O472 2.338 . S
Tb461 O479 2.441 . S
C462 O470 1.252 . S
C462 O471 1.253 . S
O463 Tb464 2.271 . S
O463 C473 1.252 . S
Tb464 O463 2.271 . S
Tb464 O467 2.338 . S
Tb464 O471 2.312 . S
Tb464 O475 2.441 . S
Tb464 O476 2.506 . S
C465 O475 1.244 . S
C465 O476 1.265 . S
O466 Tb461 2.312 . S
O466 C473 1.253 . S
O467 Tb464 2.338 . S
O467 C468 1.258 . S
C468 O467 1.258 . S
C468 O469 1.251 . S
O469 C468 1.251 . S
O470 Tb461 2.271 . S
O470 C462 1.252 . S
O471 C462 1.253 . S
O471 Tb464 2.312 . S
O472 Tb461 2.338 . S
O472 C477 1.258 . S
C473 O463 1.252 . S
C473 O466 1.253 . S
C474 O460 1.265 . S
C474 O479 1.244 . S
O475 Tb464 2.441 . S
O475 C465 1.244 . S
O476 Tb464 2.506 . S
O476 C465 1.265 . S
C477 O472 1.258 . S
C477 O478 1.251 . S
O478 C477 1.251 . S
O479 Tb461 2.441 . S
O479 C474 1.244 . S
C480 C481 1.387 . S
C480 H484 0.950 . S
C480 C489 1.390 . S
C481 C480 1.387 . S
C481 C483 1.387 . S
H482 C489 0.950 . S
C483 C481 1.387 . S
C483 C485 1.390 . S
C483 H487 0.950 . S
H484 C480 0.950 . S
C485 C483 1.390 . S
C485 C486 1.387 . S
C485 H488 0.950 . S
C486 C485 1.387 . S
C486 C489 1.387 . S
H487 C483 0.950 . S
H488 C485 0.950 . S
C489 C480 1.390 . S
C489 H482 0.950 . S
C489 C486 1.387 . S
C490 C491 1.387 . S
C490 H494 0.950 . S
C490 C499 1.390 . S
C491 C490 1.387 . S
C491 C493 1.387 1_545 S
H492 C499 0.950 . S
C493 C491 1.387 1_565 S
C493 C495 1.390 . S
C493 H497 0.950 . S
H494 C490 0.950 . S
C495 C493 1.390 . S
C495 C496 1.387 . S
C495 H498 0.950 . S
C496 C495 1.387 . S
C496 C499 1.387 1_565 S
H497 C493 0.950 . S
H498 C495 0.950 . S
C499 C490 1.390 . S
C499 H492 0.950 . S
C499 C496 1.387 1_545 S
C500 C501 1.387 . S
C500 H504 0.950 . S
C500 C509 1.390 . S
C501 C500 1.387 . S
C501 C503 1.387 . S
H502 C509 0.950 . S
C503 C501 1.387 . S
C503 C505 1.390 . S
C503 H507 0.950 . S
H504 C500 0.950 . S
C505 C503 1.390 . S
C505 C506 1.387 . S
C505 H508 0.950 . S
C506 C505 1.387 . S
C506 C509 1.387 . S
H507 C503 0.950 . S
H508 C505 0.950 . S
C509 C500 1.390 . S
C509 H502 0.950 . S
C509 C506 1.387 . S
C510 C511 1.387 . S
C510 H514 0.950 . S
C510 C519 1.390 . S
C511 C510 1.387 . S
C511 C513 1.387 . S
H512 C519 0.950 . S
C513 C511 1.387 . S
C513 C515 1.390 . S
C513 H517 0.933 1_545 S
H514 C510 0.950 . S
C515 C513 1.390 . S
C515 C516 1.387 . S
C515 H518 0.950 . S
C516 C515 1.387 . S
C516 C519 1.387 . S
H517 C513 0.933 1_565 S
H518 C515 0.950 . S
C519 C510 1.390 . S
C519 H512 0.950 . S
C519 C516 1.387 . S
C520 C521 1.387 . S
C520 H524 0.950 . S
C520 C529 1.390 . S
C521 C520 1.387 . S
C521 C523 1.387 1_545 S
H522 C529 0.950 . S
C523 C521 1.387 1_565 S
C523 C525 1.390 . S
C523 H527 0.950 . S
H524 C520 0.950 . S
C525 C523 1.390 . S
C525 C526 1.387 1_565 S
C525 H528 0.950 . S
C526 C525 1.387 1_545 S
C526 C529 1.387 . S
H527 C523 0.950 . S
H528 C525 0.950 . S
C529 C520 1.390 . S
C529 H522 0.950 . S
C529 C526 1.387 . S
C530 C531 1.387 . S
C530 H534 0.950 . S
C530 C539 1.390 . S
C531 C530 1.387 . S
C531 C533 1.387 . S
H532 C539 0.950 . S
C533 C531 1.387 . S
C533 C535 1.390 . S
C533 H537 0.950 . S
H534 C530 0.950 . S
C535 C533 1.390 . S
C535 C536 1.387 . S
C535 H538 0.950 . S
C536 C535 1.387 . S
C536 C539 1.387 . S
H537 C533 0.950 . S
H538 C535 0.950 . S
C539 C530 1.390 . S
C539 H532 0.950 . S
C539 C536 1.387 . S
C540 C541 1.387 . S
C540 H544 0.950 . S
C540 C549 1.390 . S
C541 C540 1.387 . S
C541 C543 1.387 1_545 S
H542 C549 0.950 . S
C543 C541 1.387 1_565 S
C543 C545 1.390 . S
C543 H547 0.950 . S
H544 C540 0.950 . S
C545 C543 1.390 . S
C545 C546 1.387 . S
C545 H548 0.950 . S
C546 C545 1.387 . S
C546 C549 1.387 1_565 S
H547 C543 0.950 . S
H548 C545 0.950 . S
C549 C540 1.390 . S
C549 H542 0.950 . S
C549 C546 1.387 1_545 S
C550 C551 1.387 . S
C550 H554 0.950 . S
C550 C559 1.390 . S
C551 C550 1.387 . S
C551 C553 1.387 1_455 S
H552 C559 0.950 . S
C553 C551 1.387 1_655 S
C553 C555 1.390 . S
C553 H557 0.950 . S
H554 C550 0.950 . S
C555 C553 1.390 . S
C555 C556 1.395 . S
C555 H558 0.950 . S
C556 C555 1.395 . S
C556 C559 1.376 1_655 S
H557 C553 0.950 . S
H558 C555 0.950 . S
C559 C550 1.390 . S
C559 H552 0.950 . S
C559 C556 1.376 1_455 S
C560 C561 1.387 1_556 S
C560 H564 0.950 . S
C560 C569 1.390 . S
C561 C560 1.387 1_554 S
C561 C563 1.387 . S
H562 C569 0.950 . S
C563 C561 1.387 . S
C563 C565 1.390 . S
C563 H567 0.950 . S
H564 C560 0.950 . S
C565 C563 1.390 . S
C565 C566 1.387 . S
C565 H568 0.950 . S
C566 C565 1.387 . S
C566 C569 1.387 1_554 S
H567 C563 0.950 . S
H568 C565 0.950 . S
C569 C560 1.390 . S
C569 H562 0.950 . S
C569 C566 1.387 1_556 S
C570 C571 1.387 1_554 S
C570 H574 0.949 1_554 S
C570 C579 1.391 . S
C571 C570 1.387 1_556 S
C571 C573 1.387 . S
H572 C579 0.950 . S
C573 C571 1.387 . S
C573 C575 1.390 1_556 S
C573 H577 0.950 . S
H574 C570 0.949 1_556 S
C575 C573 1.390 1_554 S
C575 C576 1.387 . S
C575 H578 0.950 . S
C576 C575 1.387 . S
C576 C579 1.387 . S
H577 C573 0.950 . S
H578 C575 0.950 . S
C579 C570 1.391 . S
C579 H572 0.950 . S
C579 C576 1.387 . S
C580 C581 1.387 . S
C580 H584 0.950 . S
C580 C589 1.390 . S
C581 C580 1.387 . S
C581 C583 1.387 1_554 S
H582 C589 0.950 . S
C583 C581 1.387 1_556 S
C583 C585 1.390 . S
C583 H587 0.950 . S
H584 C580 0.950 . S
C585 C583 1.390 . S
C585 C586 1.387 1_556 S
C585 H588 0.950 . S
C586 C585 1.387 1_554 S
C586 C589 1.387 . S
H587 C583 0.950 . S
H588 C585 0.950 . S
C589 C580 1.390 . S
C589 H582 0.950 . S
C589 C586 1.387 . S
C590 C591 1.387 . S
C590 H594 0.950 . S
C590 C599 1.390 . S
C591 C590 1.387 . S
C591 C593 1.387 . S
H592 C599 0.950 . S
C593 C591 1.387 . S
C593 C595 1.390 . S
C593 H597 0.950 . S
H594 C590 0.950 . S
C595 C593 1.390 . S
C595 C596 1.387 . S
C595 H598 0.950 . S
C596 C595 1.387 . S
C596 C599 1.387 . S
H597 C593 0.950 . S
H598 C595 0.950 . S
C599 C590 1.390 . S
C599 H592 0.950 . S
C599 C596 1.387 . S
C600 C601 1.387 . S
C600 H604 0.950 . S
C600 C609 1.390 . S
C601 C600 1.387 . S
C601 C603 1.387 . S
H602 C609 0.950 . S
C603 C601 1.387 . S
C603 C605 1.390 . S
C603 H607 0.950 . S
H604 C600 0.950 . S
C605 C603 1.390 . S
C605 C606 1.387 . S
C605 H608 0.950 . S
C606 C605 1.387 . S
C606 C609 1.387 . S
H607 C603 0.950 . S
H608 C605 0.950 . S
C609 C600 1.390 . S
C609 H602 0.950 . S
C609 C606 1.387 . S
C610 C611 1.387 . S
C610 H614 0.950 . S
C610 C619 1.390 . S
C611 C610 1.387 . S
C611 C613 1.387 . S
H612 C619 0.950 . S
C613 C611 1.387 . S
C613 C615 1.390 1_554 S
C613 H617 0.950 . S
H614 C610 0.950 . S
C615 C613 1.390 1_556 S
C615 C616 1.387 . S
C615 H618 0.950 . S
C616 C615 1.387 . S
C616 C619 1.387 1_556 S
H617 C613 0.950 . S
H618 C615 0.950 . S
C619 C610 1.390 . S
C619 H612 0.950 . S
C619 C616 1.387 1_554 S
C620 C621 1.387 . S
C620 H624 0.950 . S
C620 C629 1.390 . S
C621 C620 1.387 . S
C621 C623 1.387 . S
H622 C629 0.950 . S
C623 C621 1.387 . S
C623 C625 1.390 . S
C623 H627 0.950 . S
H624 C620 0.950 . S
C625 C623 1.390 . S
C625 C626 1.387 . S
C625 H628 0.950 . S
C626 C625 1.387 . S
C626 C629 1.387 . S
H627 C623 0.950 . S
H628 C625 0.950 . S
C629 C620 1.390 . S
C629 H622 0.950 . S
C629 C626 1.387 . S
C630 C631 1.387 . S
C630 H634 0.950 . S
C630 C639 1.390 . S
C631 C630 1.387 . S
C631 C633 1.387 . S
H632 C639 0.950 . S
C633 C631 1.387 . S
C633 C635 1.390 . S
C633 H637 0.950 . S
H634 C630 0.950 . S
C635 C633 1.390 . S
C635 C636 1.387 . S
C635 H638 0.950 . S
C636 C635 1.387 . S
C636 C639 1.387 . S
H637 C633 0.950 . S
H638 C635 0.950 . S
C639 C630 1.390 . S
C639 H632 0.950 . S
C639 C636 1.387 . S
C640 C641 1.387 . S
C640 H644 0.950 . S
C640 C649 1.390 1_655 S
C641 C640 1.387 . S
C641 C643 1.387 . S
H642 C649 0.950 . S
C643 C641 1.387 . S
C643 C645 1.390 1_655 S
C643 H647 0.950 . S
H644 C640 0.950 . S
C645 C643 1.390 1_455 S
C645 C646 1.387 . S
C645 H648 0.950 . S
C646 C645 1.387 . S
C646 C649 1.387 . S
H647 C643 0.950 . S
H648 C645 0.950 . S
C649 C640 1.390 1_455 S
C649 H642 0.950 . S
C649 C646 1.387 . S
C650 C651 1.387 . S
C650 H654 0.950 . S
C650 C659 1.390 . S
C651 C650 1.387 . S
C651 C653 1.387 . S
H652 C659 0.950 1_565 S
C653 C651 1.387 . S
C653 C655 1.390 1_545 S
C653 H657 0.950 . S
H654 C650 0.950 . S
C655 C653 1.390 1_565 S
C655 C656 1.387 . S
C655 H658 0.950 . S
C656 C655 1.387 . S
C656 C659 1.387 1_565 S
H657 C653 0.950 . S
H658 C655 0.950 . S
C659 C650 1.390 . S
C659 H652 0.950 1_545 S
C659 C656 1.387 1_545 S
C660 C661 1.387 . S
C660 H664 0.950 . S
C660 C669 1.390 . S
C661 C660 1.387 . S
C661 C663 1.387 . S
H662 C669 0.950 1_455 S
C663 C661 1.387 . S
C663 C665 1.390 . S
C663 H667 0.950 . S
H664 C660 0.950 . S
C665 C663 1.390 . S
C665 C666 1.387 1_655 S
C665 H668 0.950 . S
C666 C665 1.387 1_455 S
C666 C669 1.387 1_455 S
H667 C663 0.950 . S
H668 C665 0.950 . S
C669 C660 1.390 . S
C669 H662 0.950 1_655 S
C669 C666 1.387 1_655 S
C670 C671 1.387 1_545 S
C670 H674 0.950 1_545 S
C670 C679 1.390 . S
C671 C670 1.387 1_565 S
C671 C673 1.387 1_565 S
H672 C679 0.950 . S
C673 C671 1.387 1_545 S
C673 C675 1.390 . S
C673 H677 0.950 1_545 S
H674 C670 0.950 1_565 S
C675 C673 1.390 . S
C675 C676 1.387 . S
C675 H678 0.950 . S
C676 C675 1.387 . S
C676 C679 1.387 . S
H677 C673 0.950 1_565 S
H678 C675 0.950 . S
C679 C670 1.390 . S
C679 H672 0.950 . S
C679 C676 1.387 . S
C680 C681 1.387 . S
C680 H684 0.950 . S
C680 C689 1.390 . S
C681 C680 1.387 . S
C681 C683 1.387 . S
H682 C689 0.950 . S
C683 C681 1.387 . S
C683 C685 1.390 . S
C683 H687 0.950 . S
H684 C680 0.950 . S
C685 C683 1.390 . S
C685 C686 1.387 . S
C685 H688 0.950 . S
C686 C685 1.387 . S
C686 C689 1.387 . S
H687 C683 0.950 . S
H688 C685 0.950 . S
C689 C680 1.390 . S
C689 H682 0.950 . S
C689 C686 1.387 . S
C690 C691 1.387 . S
C690 H694 0.950 . S
C690 C699 1.384 1_455 S
C691 C690 1.387 . S
C691 C693 1.387 . S
H692 C699 0.953 . S
C693 C691 1.387 . S
C693 C695 1.390 . S
C693 H697 0.950 . S
H694 C690 0.950 . S
C695 C693 1.390 . S
C695 C696 1.387 1_455 S
C695 H698 0.950 1_455 S
C696 C695 1.387 1_655 S
C696 C699 1.390 . S
H697 C693 0.950 . S
H698 C695 0.950 1_655 S
C699 C690 1.384 1_655 S
C699 H692 0.953 . S
C699 C696 1.390 . S
C700 C701 1.387 . S
C700 H704 0.950 . S
C700 C709 1.390 . S
C701 C700 1.387 . S
C701 C703 1.387 . S
H702 C709 0.950 . S
C703 C701 1.387 . S
C703 C705 1.390 . S
C703 H707 0.950 . S
H704 C700 0.950 . S
C705 C703 1.390 . S
C705 C706 1.387 . S
C705 H708 0.950 . S
C706 C705 1.387 . S
C706 C709 1.387 . S
H707 C703 0.950 . S
H708 C705 0.950 . S
C709 C700 1.390 . S
C709 H702 0.950 . S
C709 C706 1.387 . S
C710 C711 1.387 . S
C710 H714 0.950 . S
C710 C719 1.390 . S
C711 C710 1.387 . S
C711 C713 1.387 . S
H712 C719 0.950 . S
C713 C711 1.387 . S
C713 C715 1.390 . S
C713 H717 0.950 . S
H714 C710 0.950 . S
C715 C713 1.390 . S
C715 C716 1.387 . S
C715 H718 0.950 . S
C716 C715 1.387 . S
C716 C719 1.387 . S
H717 C713 0.950 . S
H718 C715 0.950 . S
C719 C710 1.390 . S
C719 H712 0.950 . S
C719 C716 1.387 . S
C720 C721 1.387 . S
C720 H724 0.950 . S
C720 C729 1.390 . S
C721 C720 1.387 . S
C721 C723 1.387 . S
H722 C729 0.950 . S
C723 C721 1.387 . S
C723 C725 1.390 . S
C723 H727 0.950 . S
H724 C720 0.950 . S
C725 C723 1.390 . S
C725 C726 1.387 . S
C725 H728 0.950 . S
C726 C725 1.387 . S
C726 C729 1.387 . S
H727 C723 0.950 . S
H728 C725 0.950 . S
C729 C720 1.390 . S
C729 H722 0.950 . S
C729 C726 1.387 . S
C730 C731 1.387 . S
C730 H734 0.950 . S
C730 C739 1.390 . S
C731 C730 1.387 . S
C731 C733 1.387 . S
H732 C739 0.950 . S
C733 C731 1.387 . S
C733 C735 1.390 . S
C733 H737 0.950 . S
H734 C730 0.950 . S
C735 C733 1.390 . S
C735 C736 1.387 . S
C735 H738 0.950 . S
C736 C735 1.387 . S
C736 C739 1.387 . S
H737 C733 0.950 . S
H738 C735 0.950 . S
C739 C730 1.390 . S
C739 H732 0.950 . S
C739 C736 1.387 . S
C740 C741 1.387 . S
C740 H744 0.950 1_655 S
C740 C749 1.390 . S
C741 C740 1.387 . S
C741 C743 1.387 . S
H742 C749 0.950 . S
C743 C741 1.387 . S
C743 C745 1.390 . S
C743 H747 0.950 . S
H744 C740 0.950 1_455 S
C745 C743 1.390 . S
C745 C746 1.387 . S
C745 H748 0.950 . S
C746 C745 1.387 . S
C746 C749 1.387 . S
H747 C743 0.950 . S
H748 C745 0.950 . S
C749 C740 1.390 . S
C749 H742 0.950 . S
C749 C746 1.387 . S
C750 C751 1.387 1_545 S
C750 H754 0.950 . S
C750 C759 1.390 1_545 S
C751 C750 1.387 1_565 S
C751 C753 1.387 . S
H752 C759 0.950 . S
C753 C751 1.387 . S
C753 C755 1.390 . S
C753 H757 0.950 . S
H754 C750 0.950 . S
C755 C753 1.390 . S
C755 C756 1.387 . S
C755 H758 0.950 . S
C756 C755 1.387 . S
C756 C759 1.387 . S
H757 C753 0.950 . S
H758 C755 0.950 . S
C759 C750 1.390 1_565 S
C759 H752 0.950 . S
C759 C756 1.387 . S
C760 C761 1.387 . S
C760 H764 0.950 . S
C760 C769 1.390 . S
C761 C760 1.387 . S
C761 C763 1.387 . S
H762 C769 0.950 . S
C763 C761 1.387 . S
C763 C765 1.390 . S
C763 H767 0.950 . S
H764 C760 0.950 . S
C765 C763 1.390 . S
C765 C766 1.387 . S
C765 H768 0.950 . S
C766 C765 1.387 . S
C766 C769 1.387 . S
H767 C763 0.950 . S
H768 C765 0.950 . S
C769 C760 1.390 . S
C769 H762 0.950 . S
C769 C766 1.387 . S
C770 C771 1.387 . S
C770 H774 0.950 . S
C770 C779 1.390 . S
C771 C770 1.387 . S
C771 C773 1.387 . S
H772 C779 0.950 . S
C773 C771 1.387 . S
C773 C775 1.390 . S
C773 H777 0.950 . S
H774 C770 0.950 . S
C775 C773 1.390 . S
C775 C776 1.387 . S
C775 H778 0.950 . S
C776 C775 1.387 . S
C776 C779 1.387 . S
H777 C773 0.950 . S
H778 C775 0.950 . S
C779 C770 1.390 . S
C779 H772 0.950 . S
C779 C776 1.387 . S
C780 C781 1.387 . S
C780 H784 0.950 . S
C780 C789 1.390 . S
C781 C780 1.387 . S
C781 C783 1.387 . S
H782 C789 0.950 . S
C783 C781 1.387 . S
C783 C785 1.390 . S
C783 H787 0.950 . S
H784 C780 0.950 . S
C785 C783 1.390 . S
C785 C786 1.387 . S
C785 H788 0.950 . S
C786 C785 1.387 . S
C786 C789 1.387 . S
H787 C783 0.950 . S
H788 C785 0.950 . S
C789 C780 1.390 . S
C789 H782 0.950 . S
C789 C786 1.387 . S
C790 C791 1.387 . S
C790 H794 0.950 . S
C790 C799 1.390 . S
C791 C790 1.387 . S
C791 C793 1.387 . S
H792 C799 0.950 . S
C793 C791 1.387 . S
C793 C795 1.390 . S
C793 H797 0.950 . S
H794 C790 0.950 . S
C795 C793 1.390 . S
C795 C796 1.387 . S
C795 H798 0.950 . S
C796 C795 1.387 . S
C796 C799 1.387 . S
H797 C793 0.950 . S
H798 C795 0.950 . S
C799 C790 1.390 . S
C799 H792 0.950 . S
C799 C796 1.387 . S
C800 C801 1.387 . S
C800 H804 0.950 . S
C800 C809 1.390 . S
C801 C800 1.387 . S
C801 C803 1.387 . S
H802 C809 0.950 . S
C803 C801 1.387 . S
C803 C805 1.390 . S
C803 H807 0.950 . S
H804 C800 0.950 . S
C805 C803 1.390 . S
C805 C806 1.387 . S
C805 H808 0.950 . S
C806 C805 1.387 . S
C806 C809 1.387 . S
H807 C803 0.950 . S
H808 C805 0.950 . S
C809 C800 1.390 . S
C809 H802 0.950 . S
C809 C806 1.387 . S
C810 C811 1.387 . S
C810 H814 0.950 . S
C810 C819 1.390 . S
C811 C810 1.387 . S
C811 C813 1.387 . S
H812 C819 0.950 . S
C813 C811 1.387 . S
C813 C815 1.390 . S
C813 H817 0.950 . S
H814 C810 0.950 . S
C815 C813 1.390 . S
C815 C816 1.387 . S
C815 H818 0.950 . S
C816 C815 1.387 . S
C816 C819 1.387 . S
H817 C813 0.950 . S
H818 C815 0.950 . S
C819 C810 1.390 . S
C819 H812 0.950 . S
C819 C816 1.387 . S
C820 C821 1.387 . S
C820 H824 0.950 . S
C820 C829 1.390 . S
C821 C820 1.387 . S
C821 C823 1.387 . S
H822 C829 0.950 . S
C823 C821 1.387 . S
C823 C825 1.390 . S
C823 H827 0.950 . S
H824 C820 0.950 . S
C825 C823 1.390 . S
C825 C826 1.387 . S
C825 H828 0.950 . S
C826 C825 1.387 . S
C826 C829 1.387 . S
H827 C823 0.950 . S
H828 C825 0.950 . S
C829 C820 1.390 . S
C829 H822 0.950 . S
C829 C826 1.387 . S
C830 C831 1.387 . S
C830 H834 0.950 . S
C830 C839 1.390 . S
C831 C830 1.387 . S
C831 C833 1.387 . S
H832 C839 0.950 . S
C833 C831 1.387 . S
C833 C835 1.390 . S
C833 H837 0.950 . S
H834 C830 0.950 . S
C835 C833 1.390 . S
C835 C836 1.387 . S
C835 H838 0.950 . S
C836 C835 1.387 . S
C836 C839 1.387 . S
H837 C833 0.950 . S
H838 C835 0.950 . S
C839 C830 1.390 . S
C839 H832 0.950 . S
C839 C836 1.387 . S
C840 C841 1.387 . S
C840 H844 0.950 . S
C840 C849 1.390 . S
C841 C840 1.387 . S
C841 C843 1.387 . S
H842 C849 0.950 . S
C843 C841 1.387 . S
C843 C845 1.390 . S
C843 H847 0.950 . S
H844 C840 0.950 . S
C845 C843 1.390 . S
C845 C846 1.387 . S
C845 H848 0.950 . S
C846 C845 1.387 . S
C846 C849 1.387 . S
H847 C843 0.950 . S
H848 C845 0.950 . S
C849 C840 1.390 . S
C849 H842 0.950 . S
C849 C846 1.387 . S
C850 C851 1.387 . S
C850 H854 0.950 . S
C850 C859 1.390 . S
C851 C850 1.387 . S
C851 C853 1.387 . S
H852 C859 0.950 . S
C853 C851 1.387 . S
C853 C855 1.390 . S
C853 H857 0.950 . S
H854 C850 0.950 . S
C855 C853 1.390 . S
C855 C856 1.387 . S
C855 H858 0.950 . S
C856 C855 1.387 . S
C856 C859 1.387 . S
H857 C853 0.950 . S
H858 C855 0.950 . S
C859 C850 1.390 . S
C859 H852 0.950 . S
C859 C856 1.387 . S
C860 C861 1.387 . S
C860 H864 0.950 . S
C860 C869 1.390 . S
C861 C860 1.387 . S
C861 C863 1.387 . S
H862 C869 0.950 . S
C863 C861 1.387 . S
C863 C865 1.390 . S
C863 H867 0.950 . S
H864 C860 0.950 . S
C865 C863 1.390 . S
C865 C866 1.387 . S
C865 H868 0.950 . S
C866 C865 1.387 . S
C866 C869 1.387 . S
H867 C863 0.950 . S
H868 C865 0.950 . S
C869 C860 1.390 . S
C869 H862 0.950 . S
C869 C866 1.387 . S
C870 C871 1.387 . S
C870 H874 0.950 . S
C870 C879 1.390 . S
C871 C870 1.387 . S
C871 C873 1.387 . S
H872 C879 0.950 . S
C873 C871 1.387 . S
C873 C875 1.390 . S
C873 H877 0.950 . S
H874 C870 0.950 . S
C875 C873 1.390 . S
C875 C876 1.387 . S
C875 H878 0.950 . S
C876 C875 1.387 . S
C876 C879 1.387 . S
H877 C873 0.950 . S
H878 C875 0.950 . S
C879 C870 1.390 . S
C879 H872 0.950 . S
C879 C876 1.387 . S
C880 C881 1.387 . S
C880 H884 0.950 . S
C880 C889 1.390 . S
C881 C880 1.387 . S
C881 C883 1.387 . S
H882 C889 0.950 . S
C883 C881 1.387 . S
C883 C885 1.390 . S
C883 H887 0.950 . S
H884 C880 0.950 . S
C885 C883 1.390 . S
C885 C886 1.387 . S
C885 H888 0.950 . S
C886 C885 1.387 . S
C886 C889 1.387 . S
H887 C883 0.950 . S
H888 C885 0.950 . S
C889 C880 1.390 . S
C889 H882 0.950 . S
C889 C886 1.387 . S
C890 C891 1.387 . S
C890 H894 0.950 . S
C890 C899 1.390 . S
C891 C890 1.387 . S
C891 C893 1.387 . S
H892 C899 0.950 . S
C893 C891 1.387 . S
C893 C895 1.390 . S
C893 H897 0.950 . S
H894 C890 0.950 . S
C895 C893 1.390 . S
C895 C896 1.387 . S
C895 H898 0.950 . S
C896 C895 1.387 . S
C896 C899 1.387 . S
H897 C893 0.950 . S
H898 C895 0.950 . S
C899 C890 1.390 . S
C899 H892 0.950 . S
C899 C896 1.387 . S
C900 C901 1.387 . S
C900 H904 0.950 . S
C900 C909 1.390 . S
C901 C900 1.387 . S
C901 C903 1.387 . S
H902 C909 0.950 . S
C903 C901 1.387 . S
C903 C905 1.390 . S
C903 H907 0.950 . S
H904 C900 0.950 . S
C905 C903 1.390 . S
C905 C906 1.387 . S
C905 H908 0.950 . S
C906 C905 1.387 . S
C906 C909 1.387 . S
H907 C903 0.950 . S
H908 C905 0.950 . S
C909 C900 1.390 . S
C909 H902 0.950 . S
C909 C906 1.387 . S
C910 C911 1.387 . S
C910 H914 0.950 . S
C910 C919 1.390 . S
C911 C910 1.387 . S
C911 C913 1.387 . S
H912 C919 0.950 . S
C913 C911 1.387 . S
C913 C915 1.390 . S
C913 H917 0.950 . S
H914 C910 0.950 . S
C915 C913 1.390 . S
C915 C916 1.387 . S
C915 H918 0.950 . S
C916 C915 1.387 . S
C916 C919 1.387 . S
H917 C913 0.950 . S
H918 C915 0.950 . S
C919 C910 1.390 . S
C919 H912 0.950 . S
C919 C916 1.387 . S
C920 C921 1.387 . S
C920 H924 0.950 . S
C920 C929 1.390 . S
C921 C920 1.387 . S
C921 C923 1.387 . S
H922 C929 0.950 . S
C923 C921 1.387 . S
C923 C925 1.390 . S
C923 H927 0.950 . S
H924 C920 0.950 . S
C925 C923 1.390 . S
C925 C926 1.387 . S
C925 H928 0.950 . S
C926 C925 1.387 . S
C926 C929 1.387 . S
H927 C923 0.950 . S
H928 C925 0.950 . S
C929 C920 1.390 . S
C929 H922 0.950 . S
C929 C926 1.387 . S
C930 C931 1.387 . S
C930 H934 0.950 . S
C930 C939 1.390 . S
C931 C930 1.387 . S
C931 C933 1.387 . S
H932 C939 0.950 . S
C933 C931 1.387 . S
C933 C935 1.390 . S
C933 H937 0.950 . S
H934 C930 0.950 . S
C935 C933 1.390 . S
C935 C936 1.387 . S
C935 H938 0.950 . S
C936 C935 1.387 . S
C936 C939 1.387 . S
H937 C933 0.950 . S
H938 C935 0.950 . S
C939 C930 1.390 . S
C939 H932 0.950 . S
C939 C936 1.387 . S
C940 C941 1.387 . S
C940 H944 0.950 . S
C940 C949 1.390 . S
C941 C940 1.387 . S
C941 C943 1.387 . S
H942 C949 0.950 . S
C943 C941 1.387 . S
C943 C945 1.390 . S
C943 H947 0.950 . S
H944 C940 0.950 . S
C945 C943 1.390 . S
C945 C946 1.387 . S
C945 H948 0.950 . S
C946 C945 1.387 . S
C946 C949 1.387 . S
H947 C943 0.950 . S
H948 C945 0.950 . S
C949 C940 1.390 . S
C949 H942 0.950 . S
C949 C946 1.387 . S
C950 C951 1.387 . S
C950 H954 0.950 . S
C950 C959 1.390 . S
C951 C950 1.387 . S
C951 C953 1.387 . S
H952 C959 0.950 . S
C953 C951 1.387 . S
C953 C955 1.390 . S
C953 H957 0.950 . S
H954 C950 0.950 . S
C955 C953 1.390 . S
C955 C956 1.387 . S
C955 H958 0.950 . S
C956 C955 1.387 . S
C956 C959 1.387 . S
H957 C953 0.950 . S
H958 C955 0.950 . S
C959 C950 1.390 . S
C959 H952 0.950 . S
C959 C956 1.387 . S
C960 C961 1.387 . S
C960 H964 0.950 . S
C960 C969 1.390 . S
C961 C960 1.387 . S
C961 C963 1.387 . S
H962 C969 0.950 . S
C963 C961 1.387 . S
C963 C965 1.390 . S
C963 H967 0.950 . S
H964 C960 0.950 . S
C965 C963 1.390 . S
C965 C966 1.387 . S
C965 H968 0.950 . S
C966 C965 1.387 . S
C966 C969 1.387 . S
H967 C963 0.950 . S
H968 C965 0.950 . S
C969 C960 1.390 . S
C969 H962 0.950 . S
C969 C966 1.387 . S
C970 C971 1.387 1_545 S
C970 H974 0.950 . S
C970 C979 1.390 . S
C971 C970 1.387 1_565 S
C971 C973 1.387 . S
H972 C979 0.950 . S
C973 C971 1.387 . S
C973 C975 1.390 . S
C973 H977 0.950 . S
H974 C970 0.950 . S
C975 C973 1.390 . S
C975 C976 1.387 . S
C975 H978 0.950 . S
C976 C975 1.387 . S
C976 C979 1.387 1_565 S
H977 C973 0.950 . S
H978 C975 0.950 . S
C979 C970 1.390 . S
C979 H972 0.950 . S
C979 C976 1.387 1_545 S
C980 C981 1.387 . S
C980 H984 0.950 . S
C980 C989 1.390 . S
C981 C980 1.387 . S
C981 C983 1.387 . S
H982 C989 0.950 . S
C983 C981 1.387 . S
C983 C985 1.390 . S
C983 H987 0.950 . S
H984 C980 0.950 . S
C985 C983 1.390 . S
C985 C986 1.387 . S
C985 H988 0.950 . S
C986 C985 1.387 . S
C986 C989 1.387 . S
H987 C983 0.950 . S
H988 C985 0.950 . S
C989 C980 1.390 . S
C989 H982 0.950 . S
C989 C986 1.387 . S
C990 C991 1.387 . S
C990 H994 0.950 . S
C990 C999 1.390 . S
C991 C990 1.387 . S
C991 C993 1.387 . S
H992 C999 0.950 . S
C993 C991 1.387 . S
C993 C995 1.390 . S
C993 H997 0.950 . S
H994 C990 0.950 . S
C995 C993 1.390 . S
C995 C996 1.387 . S
C995 H998 0.950 . S
C996 C995 1.387 . S
C996 C999 1.387 . S
H997 C993 0.950 . S
H998 C995 0.950 . S
C999 C990 1.390 . S
C999 H992 0.950 . S
C999 C996 1.387 . S
C1000 C1001 1.387 . S
C1000 H1004 0.950 . S
C1000 C1009 1.390 . S
C1001 C1000 1.387 . S
C1001 C1003 1.387 . S
H1002 C1009 0.950 1_455 S
C1003 C1001 1.387 . S
C1003 C1005 1.390 . S
C1003 H1007 0.950 . S
H1004 C1000 0.950 . S
C1005 C1003 1.390 . S
C1005 C1006 1.387 . S
C1005 H1008 0.950 . S
C1006 C1005 1.387 . S
C1006 C1009 1.387 . S
H1007 C1003 0.950 . S
H1008 C1005 0.950 . S
C1009 C1000 1.390 . S
C1009 H1002 0.950 1_655 S
C1009 C1006 1.387 . S
C1010 C1011 1.387 . S
C1010 H1014 0.950 . S
C1010 C1019 1.390 . S
C1011 C1010 1.387 . S
C1011 C1013 1.387 . S
H1012 C1019 0.950 . S
C1013 C1011 1.387 . S
C1013 C1015 1.390 . S
C1013 H1017 0.950 . S
H1014 C1010 0.950 . S
C1015 C1013 1.390 . S
C1015 C1016 1.387 . S
C1015 H1018 0.950 . S
C1016 C1015 1.387 . S
C1016 C1019 1.387 . S
H1017 C1013 0.950 . S
H1018 C1015 0.950 . S
C1019 C1010 1.390 . S
C1019 H1012 0.950 . S
C1019 C1016 1.387 . S
C1020 C1021 1.387 . S
C1020 H1024 0.950 . S
C1020 C1029 1.390 . S
C1021 C1020 1.387 . S
C1021 C1023 1.387 . S
H1022 C1029 0.950 . S
C1023 C1021 1.387 . S
C1023 C1025 1.390 . S
C1023 H1027 0.950 . S
H1024 C1020 0.950 . S
C1025 C1023 1.390 . S
C1025 C1026 1.387 . S
C1025 H1028 0.950 . S
C1026 C1025 1.387 . S
C1026 C1029 1.387 . S
H1027 C1023 0.950 . S
H1028 C1025 0.950 . S
C1029 C1020 1.390 . S
C1029 H1022 0.950 . S
C1029 C1026 1.387 . S
C1030 C1031 1.387 . S
C1030 H1034 0.950 . S
C1030 C1039 1.390 . S
C1031 C1030 1.387 . S
C1031 C1033 1.387 . S
H1032 C1039 0.950 . S
C1033 C1031 1.387 . S
C1033 C1035 1.390 . S
C1033 H1037 0.950 . S
H1034 C1030 0.950 . S
C1035 C1033 1.390 . S
C1035 C1036 1.387 . S
C1035 H1038 0.950 . S
C1036 C1035 1.387 . S
C1036 C1039 1.387 . S
H1037 C1033 0.950 . S
H1038 C1035 0.950 . S
C1039 C1030 1.390 . S
C1039 H1032 0.950 . S
C1039 C1036 1.387 . S
C1040 C1041 1.387 . S
C1040 H1044 0.950 . S
C1040 C1049 1.390 . S
C1041 C1040 1.387 . S
C1041 C1043 1.387 . S
H1042 C1049 0.950 . S
C1043 C1041 1.387 . S
C1043 C1045 1.390 . S
C1043 H1047 0.950 . S
H1044 C1040 0.950 . S
C1045 C1043 1.390 . S
C1045 C1046 1.387 . S
C1045 H1048 0.950 . S
C1046 C1045 1.387 . S
C1046 C1049 1.387 . S
H1047 C1043 0.950 . S
H1048 C1045 0.950 . S
C1049 C1040 1.390 . S
C1049 H1042 0.950 . S
C1049 C1046 1.387 . S
C1050 C1051 1.387 . S
C1050 H1054 0.950 . S
C1050 C1059 1.390 . S
C1051 C1050 1.387 . S
C1051 C1053 1.387 . S
H1052 C1059 0.950 . S
C1053 C1051 1.387 . S
C1053 C1055 1.390 . S
C1053 H1057 0.950 . S
H1054 C1050 0.950 . S
C1055 C1053 1.390 . S
C1055 C1056 1.387 . S
C1055 H1058 0.950 . S
C1056 C1055 1.387 . S
C1056 C1059 1.387 . S
H1057 C1053 0.950 . S
H1058 C1055 0.950 . S
C1059 C1050 1.390 . S
C1059 H1052 0.950 . S
C1059 C1056 1.387 . S
C1060 C1061 1.387 . S
C1060 H1064 0.950 . S
C1060 C1069 1.390 . S
C1061 C1060 1.387 . S
C1061 C1063 1.387 . S
H1062 C1069 0.950 . S
C1063 C1061 1.387 . S
C1063 C1065 1.390 . S
C1063 H1067 0.950 . S
H1064 C1060 0.950 . S
C1065 C1063 1.390 . S
C1065 C1066 1.387 . S
C1065 H1068 0.950 . S
C1066 C1065 1.387 . S
C1066 C1069 1.387 . S
H1067 C1063 0.950 . S
H1068 C1065 0.950 . S
C1069 C1060 1.390 . S
C1069 H1062 0.950 . S
C1069 C1066 1.387 . S
C1070 C1071 1.387 . S
C1070 H1074 0.950 . S
C1070 C1079 1.390 . S
C1071 C1070 1.387 . S
C1071 C1073 1.387 . S
H1072 C1079 0.950 . S
C1073 C1071 1.387 . S
C1073 C1075 1.390 . S
C1073 H1077 0.950 . S
H1074 C1070 0.950 . S
C1075 C1073 1.390 . S
C1075 C1076 1.387 . S
C1075 H1078 0.950 . S
C1076 C1075 1.387 . S
C1076 C1079 1.387 . S
H1077 C1073 0.950 . S
H1078 C1075 0.950 . S
C1079 C1070 1.390 . S
C1079 H1072 0.950 . S
C1079 C1076 1.387 . S
C1080 C1081 1.387 . S
C1080 H1084 0.950 . S
C1080 C1089 1.390 . S
C1081 C1080 1.387 . S
C1081 C1083 1.387 . S
H1082 C1089 0.950 . S
C1083 C1081 1.387 . S
C1083 C1085 1.390 . S
C1083 H1087 0.950 . S
H1084 C1080 0.950 . S
C1085 C1083 1.390 . S
C1085 C1086 1.387 . S
C1085 H1088 0.950 . S
C1086 C1085 1.387 . S
C1086 C1089 1.387 . S
H1087 C1083 0.950 . S
H1088 C1085 0.950 . S
C1089 C1080 1.390 . S
C1089 H1082 0.950 . S
C1089 C1086 1.387 . S
C1090 C1091 1.387 . S
C1090 H1094 0.950 . S
C1090 C1099 1.390 . S
C1091 C1090 1.387 . S
C1091 C1093 1.387 . S
H1092 C1099 0.950 . S
C1093 C1091 1.387 . S
C1093 C1095 1.390 . S
C1093 H1097 0.950 . S
H1094 C1090 0.950 . S
C1095 C1093 1.390 . S
C1095 C1096 1.387 . S
C1095 H1098 0.950 . S
C1096 C1095 1.387 . S
C1096 C1099 1.387 . S
H1097 C1093 0.950 . S
H1098 C1095 0.950 . S
C1099 C1090 1.390 . S
C1099 H1092 0.950 . S
C1099 C1096 1.387 . S
C1100 C1101 1.387 . S
C1100 H1104 0.950 . S
C1100 C1109 1.390 . S
C1101 C1100 1.387 . S
C1101 C1103 1.387 . S
H1102 C1109 0.950 . S
C1103 C1101 1.387 . S
C1103 C1105 1.390 . S
C1103 H1107 0.950 . S
H1104 C1100 0.950 . S
C1105 C1103 1.390 . S
C1105 C1106 1.387 . S
C1105 H1108 0.950 . S
C1106 C1105 1.387 . S
C1106 C1109 1.387 . S
H1107 C1103 0.950 . S
H1108 C1105 0.950 . S
C1109 C1100 1.390 . S
C1109 H1102 0.950 . S
C1109 C1106 1.387 . S
C1110 C1111 1.387 . S
C1110 H1114 0.950 . S
C1110 C1119 1.390 . S
C1111 C1110 1.387 . S
C1111 C1113 1.387 . S
H1112 C1119 0.950 . S
C1113 C1111 1.387 . S
C1113 C1115 1.390 . S
C1113 H1117 0.950 . S
H1114 C1110 0.950 . S
C1115 C1113 1.390 . S
C1115 C1116 1.387 . S
C1115 H1118 0.950 . S
C1116 C1115 1.387 . S
C1116 C1119 1.387 . S
H1117 C1113 0.950 . S
H1118 C1115 0.950 . S
C1119 C1110 1.390 . S
C1119 H1112 0.950 . S
C1119 C1116 1.387 . S
C1120 C1121 1.387 . S
C1120 H1124 0.950 . S
C1120 C1129 1.390 . S
C1121 C1120 1.387 . S
C1121 C1123 1.387 . S
H1122 C1129 0.950 . S
C1123 C1121 1.387 . S
C1123 C1125 1.390 . S
C1123 H1127 0.950 . S
H1124 C1120 0.950 . S
C1125 C1123 1.390 . S
C1125 C1126 1.387 . S
C1125 H1128 0.950 . S
C1126 C1125 1.387 . S
C1126 C1129 1.387 . S
H1127 C1123 0.950 . S
H1128 C1125 0.950 . S
C1129 C1120 1.390 . S
C1129 H1122 0.950 . S
C1129 C1126 1.387 . S
C1130 C1131 1.387 . S
C1130 H1134 0.950 . S
C1130 C1139 1.390 . S
C1131 C1130 1.387 . S
C1131 C1133 1.387 . S
H1132 C1139 0.950 . S
C1133 C1131 1.387 . S
C1133 C1135 1.390 . S
C1133 H1137 0.950 . S
H1134 C1130 0.950 . S
C1135 C1133 1.390 . S
C1135 C1136 1.387 . S
C1135 H1138 0.950 . S
C1136 C1135 1.387 . S
C1136 C1139 1.387 . S
H1137 C1133 0.950 . S
H1138 C1135 0.950 . S
C1139 C1130 1.390 . S
C1139 H1132 0.950 . S
C1139 C1136 1.387 . S
C1140 C1141 1.387 . S
C1140 H1144 0.950 . S
C1140 C1149 1.390 . S
C1141 C1140 1.387 . S
C1141 C1143 1.387 . S
H1142 C1149 0.950 . S
C1143 C1141 1.387 . S
C1143 C1145 1.390 . S
C1143 H1147 0.950 . S
H1144 C1140 0.950 . S
C1145 C1143 1.390 . S
C1145 C1146 1.387 . S
C1145 H1148 0.950 . S
C1146 C1145 1.387 . S
C1146 C1149 1.387 . S
H1147 C1143 0.950 . S
H1148 C1145 0.950 . S
C1149 C1140 1.390 . S
C1149 H1142 0.950 . S
C1149 C1146 1.387 . S
C1150 C1151 1.387 . S
C1150 H1154 0.950 . S
C1150 C1159 1.390 . S
C1151 C1150 1.387 . S
C1151 C1153 1.387 . S
H1152 C1159 0.950 . S
C1153 C1151 1.387 . S
C1153 C1155 1.390 . S
C1153 H1157 0.950 . S
H1154 C1150 0.950 . S
C1155 C1153 1.390 . S
C1155 C1156 1.387 . S
C1155 H1158 0.950 . S
C1156 C1155 1.387 . S
C1156 C1159 1.387 . S
H1157 C1153 0.950 . S
H1158 C1155 0.950 . S
C1159 C1150 1.390 . S
C1159 H1152 0.950 . S
C1159 C1156 1.387 . S
C1160 C1161 1.387 . S
C1160 H1164 0.950 . S
C1160 C1169 1.390 . S
C1161 C1160 1.387 . S
C1161 C1163 1.387 . S
H1162 C1169 0.950 . S
C1163 C1161 1.387 . S
C1163 C1165 1.390 . S
C1163 H1167 0.950 . S
H1164 C1160 0.950 . S
C1165 C1163 1.390 . S
C1165 C1166 1.387 . S
C1165 H1168 0.950 . S
C1166 C1165 1.387 . S
C1166 C1169 1.387 . S
H1167 C1163 0.950 . S
H1168 C1165 0.950 . S
C1169 C1160 1.390 . S
C1169 H1162 0.950 . S
C1169 C1166 1.387 . S
C1170 C1171 1.387 . S
C1170 H1174 0.950 . S
C1170 C1179 1.390 . S
C1171 C1170 1.387 . S
C1171 C1173 1.387 . S
H1172 C1179 0.950 . S
C1173 C1171 1.387 . S
C1173 C1175 1.390 . S
C1173 H1177 0.950 . S
H1174 C1170 0.950 . S
C1175 C1173 1.390 . S
C1175 C1176 1.387 . S
C1175 H1178 0.950 . S
C1176 C1175 1.387 . S
C1176 C1179 1.387 . S
H1177 C1173 0.950 . S
H1178 C1175 0.950 . S
C1179 C1170 1.390 . S
C1179 H1172 0.950 . S
C1179 C1176 1.387 . S
C1180 C1181 1.387 . S
C1180 H1184 0.950 . S
C1180 C1189 1.390 . S
C1181 C1180 1.387 . S
C1181 C1183 1.387 . S
H1182 C1189 0.950 . S
C1183 C1181 1.387 . S
C1183 C1185 1.390 . S
C1183 H1187 0.950 . S
H1184 C1180 0.950 . S
C1185 C1183 1.390 . S
C1185 C1186 1.387 . S
C1185 H1188 0.950 . S
C1186 C1185 1.387 . S
C1186 C1189 1.387 . S
H1187 C1183 0.950 . S
H1188 C1185 0.950 . S
C1189 C1180 1.390 . S
C1189 H1182 0.950 . S
C1189 C1186 1.387 . S
C1190 C1191 1.387 1_554 S
C1190 H1194 0.950 . S
C1190 C1199 1.390 . S
C1191 C1190 1.387 1_556 S
C1191 C1193 1.387 . S
H1192 C1199 0.950 . S
C1193 C1191 1.387 . S
C1193 C1195 1.390 . S
C1193 H1197 0.950 . S
H1194 C1190 0.950 . S
C1195 C1193 1.390 . S
C1195 C1196 1.387 . S
C1195 H1198 0.950 . S
C1196 C1195 1.387 . S
C1196 C1199 1.387 1_556 S
H1197 C1193 0.950 . S
H1198 C1195 0.950 . S
C1199 C1190 1.390 . S
C1199 H1192 0.950 . S
C1199 C1196 1.387 1_554 S
C481 C5 1.613 . S
C486 C122 1.546 . S
C491 C22 2.080 . S
C496 C142 2.094 . S
C501 C93 1.645 . S
C506 C45 1.632 . S
C511 C62 1.174 . S
C516 C105 1.179 . S
C521 C65 1.072 . S
C526 C25 1.127 . S
C531 C42 2.363 . S
C536 C2 2.370 . S
C541 C102 1.896 . S
C546 C145 1.857 . S
C551 C125 0.733 . S
C556 C94 0.726 1_655 S
C561 C165 1.421 1_554 S
C566 C182 1.533 . S
C571 C162 1.416 . S
C576 C205 1.450 . S
C581 C202 2.388 . S
C586 C233 2.354 . S
C591 C234 0.686 . S
C596 C185 0.686 . S
C601 C245 1.620 . S
C606 C362 1.574 . S
C611 C382 2.060 . S
C616 C262 2.041 . S
C621 C285 1.583 . S
C626 C333 1.554 . S
C631 C302 1.287 . S
C636 C345 1.254 1_556 S
C641 C305 0.886 . S
C646 C265 0.934 . S
C651 C282 2.569 . S
C656 C242 2.588 . S
C661 C342 1.689 . S
C666 C385 1.649 . S
C671 C365 0.905 . S
C676 C334 0.915 . S
C681 C405 1.267 . S
C686 C422 1.323 . S
C691 C442 2.599 . S
C696 C402 2.587 . S
C701 C445 1.343 . S
C706 C473 1.285 . S
C711 C474 0.858 . S
C716 C425 0.888 1_455 S
C721 C462 2.884 . S
C726 C13 2.917 . S
C731 C437 2.330 . S
C736 C37 2.256 . S
C741 C53 2.709 1_655 S
C746 C417 2.716 . S
C751 C77 2.754 1_565 S
C756 C453 2.694 . S
C761 C457 2.287 . S
C766 C88 2.362 . S
C771 C113 2.521 . S
C776 C468 2.592 . S
C781 C433 2.277 . S
C786 C137 2.342 . S
C791 C157 2.944 . S
C796 C413 2.943 . S
C801 C322 2.744 . S
C806 C73 2.754 . S
C811 C17 2.207 1_655 S
C816 C357 2.320 . S
C821 C33 2.771 . S
C826 C373 2.750 . S
C831 C57 2.755 . S
C836 C393 2.746 . S
C841 C257 2.372 . S
C846 C117 2.463 . S
C851 C133 2.594 . S
C856 C273 2.617 . S
C861 C153 2.922 . S
C866 C297 2.933 . S
C871 C82 2.365 . S
C876 C313 2.378 . S
C881 C397 2.760 . S
C886 C173 2.737 . S
C891 C197 2.201 1_556 S
C896 C277 2.123 . S
C901 C293 2.654 . S
C906 C177 2.720 . S
C911 C317 2.255 . S
C916 C217 2.210 . S
C921 C222 3.074 1_556 S
C926 C253 3.091 . S
C931 C353 2.523 . S
C936 C228 2.542 . S
C941 C377 2.466 . S
C946 C193 2.414 . S
C951 C328 2.798 . S
C956 C213 2.710 . S
C961 C85 0.899 . S
C966 C414 0.865 . S
C971 C108 1.774 . S
C976 C448 1.726 . S
C981 C134 1.332 . S
C986 C477 1.171 . S
C991 C434 0.904 . S
C996 C154 0.880 . S
C1001 C428 1.269 . S
C1006 C8 1.195 . S
C1011 C34 1.279 . S
C1016 C408 1.266 . S
C1021 C48 1.320 . S
C1026 C454 1.315 . S
C1031 C465 1.077 . S
C1036 C74 1.076 . S
C1041 C254 1.225 . S
C1046 C148 1.195 . S
C1051 C97 1.295 . S
C1056 C268 1.295 . S
C1061 C294 0.782 . S
C1066 C114 0.785 . S
C1071 C308 1.262 . S
C1076 C128 1.309 . S
C1081 C337 1.404 . S
C1086 C28 1.351 . S
C1091 C54 0.825 . S
C1096 C354 0.838 . S
C1101 C368 1.309 . S
C1106 C68 1.334 . S
C1111 C388 1.190 . S
C1116 C14 1.205 . S
C1121 C225 0.755 . S
C1126 C314 0.756 . S
C1131 C214 1.305 . S
C1136 C348 1.312 . S
C1141 C374 1.357 . S
C1146 C237 1.200 . S
C1151 C194 0.889 . S
C1156 C394 0.862 . S
C1161 C174 1.002 . S
C1166 C325 1.026 . S
C1171 C274 0.900 . S
C1176 C168 0.897 . S
C1181 C208 1.712 . S
C1186 C288 1.771 . S
C1191 C248 1.275 . S
C1196 C188 1.335 . S
