# Generated by pormake.
# Topology une, (4)-cn, num edge types: 1
# Building blocks:
#     Node 0, Type 0, BuildingBlock: ICAMEG_clean_sbu_1, # of connection points: 4
#     Node 1, Type 0, BuildingBlock: ICAMEG_clean_sbu_1, # of connection points: 4
#     Node 2, Type 0, BuildingBlock: ICAMEG_clean_sbu_1, # of connection points: 4
#     Node 3, Type 0, BuildingBlock: ICAMEG_clean_sbu_1, # of connection points: 4
#     Node 4, Type 0, BuildingBlock: ICAMEG_clean_sbu_1, # of connection points: 4
#     Node 5, Type 0, BuildingBlock: ICAMEG_clean_sbu_1, # of connection points: 4
#     Node 6, Type 0, BuildingBlock: ICAMEG_clean_sbu_1, # of connection points: 4
#     Node 7, Type 0, BuildingBlock: ICAMEG_clean_sbu_1, # of connection points: 4
#     Node 8, Type 0, BuildingBlock: ICAMEG_clean_sbu_1, # of connection points: 4
#     Node 9, Type 0, BuildingBlock: ICAMEG_clean_sbu_1, # of connection points: 4
#     Node 10, Type 0, BuildingBlock: ICAMEG_clean_sbu_1, # of connection points: 4
#     Node 11, Type 0, BuildingBlock: ICAMEG_clean_sbu_1, # of connection points: 4
#     Node 12, Type 0, BuildingBlock: ICAMEG_clean_sbu_1, # of connection points: 4
#     Node 13, Type 0, BuildingBlock: ICAMEG_clean_sbu_1, # of connection points: 4
#     Node 14, Type 0, BuildingBlock: ICAMEG_clean_sbu_1, # of connection points: 4
#     Node 15, Type 0, BuildingBlock: ICAMEG_clean_sbu_1, # of connection points: 4
#     Node 16, Type 0, BuildingBlock: ICAMEG_clean_sbu_1, # of connection points: 4
#     Node 17, Type 0, BuildingBlock: ICAMEG_clean_sbu_1, # of connection points: 4
#     Edge 18, Type (0, 0), None
#     Edge 19, Type (0, 0), None
#     Edge 20, Type (0, 0), None
#     Edge 21, Type (0, 0), None
#     Edge 22, Type (0, 0), None
#     Edge 23, Type (0, 0), None
#     Edge 24, Type (0, 0), None
#     Edge 25, Type (0, 0), None
#     Edge 26, Type (0, 0), None
#     Edge 27, Type (0, 0), None
#     Edge 28, Type (0, 0), None
#     Edge 29, Type (0, 0), None
#     Edge 30, Type (0, 0), None
#     Edge 31, Type (0, 0), None
#     Edge 32, Type (0, 0), None
#     Edge 33, Type (0, 0), None
#     Edge 34, Type (0, 0), None
#     Edge 35, Type (0, 0), None
#     Edge 36, Type (0, 0), None
#     Edge 37, Type (0, 0), None
#     Edge 38, Type (0, 0), None
#     Edge 39, Type (0, 0), None
#     Edge 40, Type (0, 0), None
#     Edge 41, Type (0, 0), None
#     Edge 42, Type (0, 0), None
#     Edge 43, Type (0, 0), None
#     Edge 44, Type (0, 0), None
#     Edge 45, Type (0, 0), None
#     Edge 46, Type (0, 0), None
#     Edge 47, Type (0, 0), None
#     Edge 48, Type (0, 0), None
#     Edge 49, Type (0, 0), None
#     Edge 50, Type (0, 0), None
#     Edge 51, Type (0, 0), None
#     Edge 52, Type (0, 0), None
#     Edge 53, Type (0, 0), None
# Relax obj value: 0.341
# Max RMSD: 0.222
# Mean RMSD: 0.210
data_MOF--net-une--node1-ICAMEG_clean_sbu_1--edge1-none
_symmetry_space_group_name_H-M    P1
_symmetry_Int_Tables_number       1
_symmetry_cell_setting            triclinic
loop_
_symmetry_equiv_pos_as_xyz
'x, y, z'
_cell_length_a     19.250221
_cell_length_b     20.514426
_cell_length_c     32.206729
_cell_angle_alpha  89.649995
_cell_angle_beta   90.445273
_cell_angle_gamma 121.00945
loop_
_atom_site_label
_atom_site_type_symbol
_atom_site_fract_x
_atom_site_fract_y
_atom_site_fract_z
_atom_type_partial_charge
Co0 Co 0.35634 0.0746 -0.03808 0.0
Co1 Co 0.2945 -0.01234 0.05582 0.0
O2 O 0.3505 0.07628 0.02222 0.0
C3 C 0.2253 0.10377 0.95043 0.0
O4 O 0.18291 0.03939 0.93055 0.0
C5 C 0.25739 0.1031 0.12033 0.0
O6 O 0.32367 0.17006 0.1174 0.0
O7 O 0.36398 0.94311 0.0128 0.0
O8 O 0.42129 0.02223 -0.04212 0.0
H9 H 0.29919 0.78401 0.13654 0.0
H10 H 0.40604 0.24214 0.94977 0.0
O11 O 0.29422 0.1246 -0.03538 0.0
H12 H 0.59575 0.22871 0.04709 0.0
H13 H 0.29999 0.15594 0.82786 0.0
H14 H 0.32767 0.95986 0.89956 0.0
H15 H 0.51695 0.12417 -0.00076 0.0
H16 H 0.38488 0.18832 0.89085 0.0
O17 O 0.25424 0.04554 0.09943 0.0
H18 H 0.33368 0.87377 0.07695 0.0
H19 H 0.14997 0.91585 0.11429 0.0
H20 H 0.23883 0.92577 0.83922 0.0
H21 H 0.47635 0.34184 0.00033 0.0
H22 H 0.21993 0.02344 0.80406 0.0
H23 H 0.57109 0.33667 0.05008 0.0
O24 O 0.25294 0.97288 -0.04201 0.0
H25 H 0.08436 0.05334 0.01204 0.0
H26 H 0.12818 0.84333 0.0406 0.0
H27 H 0.00869 0.81892 0.00272 0.0
H28 H -0.01717 0.92383 -0.01228 0.0
H29 H 0.21838 0.0803 0.03526 0.0
H30 H 0.1138 0.82617 0.17209 0.0
H31 H 0.19247 0.76104 0.18241 0.0
O32 O 0.28184 0.91814 0.00953 0.0
C33 C 0.41203 0.96427 -0.02258 0.0
C34 C 0.26587 0.81186 0.13031 0.0
C35 C 0.16148 0.83554 0.15095 0.0
N36 N 0.24462 0.89971 0.0919 0.0
C37 C 0.28404 0.86127 0.09693 0.0
C38 C 0.18181 0.88554 0.11763 0.0
C39 C 0.20486 0.79925 0.15716 0.0
C40 C 0.44761 0.23731 -0.02993 0.0
N41 N 0.45478 0.174 -0.02961 0.0
C42 C 0.48666 0.2947 -0.00036 0.0
C43 C 0.53983 0.2916 0.02769 0.0
C44 C 0.55408 0.23173 0.02554 0.0
C45 C 0.51105 0.17347 -0.0033 0.0
C46 C 0.30468 0.11297 0.84432 0.0
C47 C 0.32263 0.0042 0.88424 0.0
C48 C 0.3537 0.131 0.87973 0.0
N49 N 0.3556 0.07494 0.9016 0.0
C50 C 0.26964 -0.0166 0.85058 0.0
C51 C 0.25953 0.03817 0.83082 0.0
C52 C 0.24162 0.9133 -0.02395 0.0
C53 C 0.09628 0.00777 0.01505 0.0
C54 C 0.12222 0.89117 0.03199 0.0
C55 C 0.05236 0.87637 0.01093 0.0
C56 C 0.03889 0.93516 0.00222 0.0
N57 N 0.18644 0.96416 0.03526 0.0
C58 C 0.1717 0.0221 0.02923 0.0
Co59 Co 0.82203 0.24661 0.93142 0.0
Co60 Co 0.90943 0.29328 0.02961 0.0
O61 O 0.81209 0.25379 -0.0081 0.0
C62 C 0.75122 0.07138 0.93516 0.0
O63 O 0.81842 0.07515 0.92364 0.0
C64 C 0.79231 0.1627 0.11059 0.0
O65 O 0.72288 0.15713 0.11878 0.0
O66 O -0.03115 0.39651 -0.01656 0.0
O67 O 0.89168 0.3675 0.92524 0.0
H68 H 0.06659 0.28043 0.15136 0.0
H69 H 0.64312 0.15181 0.95414 0.0
O70 O 0.74835 0.13181 0.93853 0.0
H71 H 0.66402 0.31467 0.83628 0.0
H72 H 0.78744 0.09703 0.80392 0.0
H73 H 0.95633 0.33201 0.87996 0.0
H74 H 0.78633 0.33858 0.87446 0.0
H75 H 0.73158 0.12987 0.86553 0.0
O76 O 0.83635 0.2119 0.08009 0.0
H77 H -0.02901 0.23005 0.09433 0.0
H78 H 0.03528 0.44982 0.05385 0.0
H79 H 0.01026 0.29652 0.82922 0.0
H80 H 0.52143 0.12417 0.91432 0.0
H81 H 0.92279 0.18566 0.78078 0.0
H82 H 0.53045 0.20973 0.85761 0.0
O83 O 0.91951 0.23857 0.94061 0.0
H84 H 0.82081 0.01979 -3e-05 0.0
H85 H 0.05711 0.2726 0.02555 0.0
H86 H 0.07548 0.16341 0.0212 0.0
H87 H 0.95507 0.03446 0.00776 0.0
H88 H 0.80622 0.13308 0.00774 0.0
H89 H 0.13135 0.50272 0.11482 0.0
H90 H 0.13792 0.41865 0.16527 0.0
O91 O -0.00721 0.33713 -0.01864 0.0
C92 C 0.95067 0.42031 0.94703 0.0
C93 C 0.06029 0.31853 0.13038 0.0
C94 C 0.09064 0.4431 0.11097 0.0
N95 N -0.00214 0.3368 0.06974 0.0
C96 C 0.00628 0.29012 0.09734 0.0
C97 C 0.04008 0.41298 0.07607 0.0
C98 C 0.09969 0.39552 0.13831 0.0
C99 C 0.64936 0.18854 0.92849 0.0
N100 N 0.72386 0.24804 0.9171 0.0
C101 C 0.57925 0.17276 0.90651 0.0
C102 C 0.58423 0.22031 0.8743 0.0
C103 C 0.65954 0.28065 0.86292 0.0
C104 C 0.72862 0.29413 0.88497 0.0
C105 C 0.82027 0.15095 0.81925 0.0
C106 C 0.91496 0.28249 0.8625 0.0
C107 C 0.78983 0.16994 0.85349 0.0
N108 N 0.83785 0.23561 0.87448 0.0
C109 C 0.9472 0.26215 0.83163 0.0
C110 C 0.89874 0.19962 0.80706 0.0
C111 C -0.01169 0.29382 0.95063 0.0
C112 C 0.87277 0.07522 0.00674 0.0
C113 C 0.00481 0.21732 0.02115 0.0
C114 C 0.01553 0.15524 0.0182 0.0
C115 C 0.94863 0.0835 0.0108 0.0
N116 N 0.9294 0.209 0.01839 0.0
C117 C 0.86446 0.13882 0.01094 0.0
Co118 Co 0.69262 0.59679 0.9518 0.0
Co119 Co 0.68082 0.64367 0.04956 0.0
O120 O 0.71949 0.59906 0.01059 0.0
C121 C 0.87151 0.6699 -0.04076 0.0
O122 O 0.88369 0.73513 -0.02784 0.0
C123 C 0.80334 0.66794 0.12521 0.0
O124 O 0.73958 0.61371 0.10591 0.0
O125 O 0.55706 0.5445 0.03174 0.0
O126 O 0.57028 0.55448 -0.03807 0.0
H127 H 0.46049 0.66233 0.12223 0.0
H128 H 0.77005 0.51774 -0.01184 0.0
O129 O 0.80635 0.62575 0.94003 0.0
H130 H 0.54017 0.32745 0.90466 0.0
H131 H 0.7852 0.65512 0.80826 0.0
H132 H 0.57886 0.62696 0.90619 0.0
H133 H 0.56442 0.45716 0.91254 0.0
H134 H 0.75673 0.57514 0.87196 0.0
O135 O 0.73739 0.61607 0.10319 0.0
H136 H 0.51679 0.61514 0.07005 0.0
H137 H 0.75179 0.75739 0.12094 0.0
H138 H 0.5879 0.6832 0.84113 0.0
H139 H 0.74209 0.38727 -0.01382 0.0
H140 H 0.70477 0.71252 0.79312 0.0
H141 H 0.62319 0.2922 0.94809 0.0
O142 O 0.72349 0.70627 0.95345 0.0
H143 H -0.02354 0.78888 0.08185 0.0
H144 H 0.74568 0.8139 0.04127 0.0
H145 H 0.87159 0.92761 0.06507 0.0
H146 H -0.01611 0.91238 0.09162 0.0
H147 H 0.85647 0.68298 0.04856 0.0
H148 H 0.69849 0.80411 0.172 0.0
H149 H 0.5534 0.75781 0.17317 0.0
O150 O 0.64324 0.68651 0.00584 0.0
C151 C 0.52245 0.5263 -0.00704 0.0
C152 C 0.52502 0.68552 0.12031 0.0
C153 C 0.65835 0.76485 0.14877 0.0
N154 N 0.6386 0.68572 0.08969 0.0
C155 C 0.55737 0.65906 0.09075 0.0
C156 C 0.68841 0.73759 0.11887 0.0
C157 C 0.57661 0.73962 0.14887 0.0
C158 C 0.7192 0.47625 -0.03005 0.0
N159 N 0.66911 0.49465 0.94937 0.0
C160 C 0.70473 0.40305 -0.03137 0.0
C161 C 0.63947 0.34974 0.94555 0.0
C162 C 0.59118 0.36942 0.92272 0.0
C163 C 0.60527 0.4424 0.92657 0.0
C164 C 0.7373 0.64468 0.82899 0.0
C165 C 0.62015 0.62629 0.88409 0.0
C166 C 0.72197 0.60122 0.86502 0.0
N167 N 0.67042 0.60001 0.8939 0.0
C168 C 0.62846 0.66322 0.84703 0.0
C169 C 0.69162 0.67762 0.82052 0.0
C170 C 0.68557 0.72753 -0.02396 0.0
C171 C 0.92667 0.79587 0.07218 0.0
C172 C 0.79696 0.80903 0.04846 0.0
C173 C 0.86753 0.87316 0.06315 0.0
C174 C 0.93045 0.86474 0.07801 0.0
N175 N 0.78914 0.73896 0.04921 0.0
C176 C 0.85836 0.73616 0.05294 0.0
Co177 Co 0.56287 0.85224 -0.02066 0.0
Co178 Co 0.54948 0.89373 0.8809 0.0
O179 O 0.5266 0.81851 0.92398 0.0
C180 C 0.68205 0.79578 -0.03272 0.0
O181 O 0.74665 0.86062 0.95704 0.0
C182 C 0.5109 0.76275 0.80624 0.0
O183 O 0.4459 0.71355 0.78563 0.0
O184 O 0.45777 0.90966 0.91415 0.0
O185 O 0.50048 0.90968 -0.01964 0.0
H186 H 0.62414 0.14848 0.82467 0.0
H187 H 0.49495 0.68114 -0.02309 0.0
O188 O 0.61717 0.79205 -0.02159 0.0
H189 H 0.32809 0.71855 0.07606 0.0
H190 H 0.72717 0.86739 0.09674 0.0
H191 H 0.61507 -0.00422 0.01821 0.0
H192 H 0.41868 0.82303 0.03035 0.0
H193 H 0.59964 0.7903 0.05502 0.0
O194 O 0.49756 0.80149 0.83599 0.0
H195 H 0.54837 0.0389 0.87275 0.0
H196 H 0.58491 0.90174 0.78919 0.0
H197 H 0.73551 0.06623 0.05692 0.0
H198 H 0.40923 0.57965 0.02533 0.0
H199 H 0.80367 -0.00169 0.08711 0.0
H200 H 0.32948 0.60019 0.07782 0.0
O201 O 0.66837 0.94198 -0.04146 0.0
H202 H 0.73771 0.79051 0.87916 0.0
H203 H 0.71137 0.01137 0.85363 0.0
H204 H 0.84046 0.02381 0.84847 0.0
H205 H 0.85703 0.91178 0.85781 0.0
H206 H 0.60374 0.77928 0.88479 0.0
H207 H 0.67087 0.00969 0.74582 0.0
H208 H 0.69349 0.13664 0.76446 0.0
O209 O 0.61489 -0.01381 0.91622 0.0
C210 C 0.45533 0.92173 0.95561 0.0
C211 C 0.61584 0.09393 0.81773 0.0
C212 C 0.64326 0.01674 0.77325 0.0
N213 N 0.56673 0.96432 0.83571 0.0
C214 C 0.57239 0.03175 0.84418 0.0
C215 C 0.59297 0.95473 0.79811 0.0
C216 C 0.65532 0.08735 0.78355 0.0
C217 C 0.46196 0.6925 -0.00021 0.0
N218 N 0.46806 0.76212 0.0024 0.0
C219 C 0.41234 0.63343 0.02683 0.0
C220 C 0.3657 0.6439 0.05538 0.0
C221 C 0.3653 0.71098 0.05465 0.0
C222 C 0.41697 0.76999 0.02812 0.0
C223 C 0.69823 0.89215 0.08064 0.0
C224 C 0.63565 0.96498 0.03675 0.0
C225 C 0.62683 0.85071 0.05805 0.0
N226 N 0.60207 0.88864 0.0332 0.0
C227 C 0.70711 0.00648 0.05785 0.0
C228 C 0.74205 0.9694 0.07666 0.0
C229 C 0.67404 -0.00297 0.93815 0.0
C230 C 0.73034 0.83731 0.8705 0.0
C231 C 0.71461 0.96105 0.85596 0.0
C232 C 0.78967 0.9683 0.85277 0.0
C233 C 0.79805 0.90598 0.85935 0.0
N234 N 0.64775 0.89387 0.86647 0.0
C235 C 0.65519 0.83219 0.87445 0.0
Co236 Co 0.09978 0.67568 -0.03176 0.0
Co237 Co 0.01116 0.65186 0.87445 0.0
O238 O 0.09893 0.7043 0.91148 0.0
C239 C 0.17654 0.8392 -0.03587 0.0
O240 O 0.11308 0.83202 0.94558 0.0
C241 C 0.14414 0.76902 0.7987 0.0
O242 O 0.21421 0.77869 0.78773 0.0
O243 O 0.00154 0.54047 0.892 0.0
O244 O 0.03158 0.56015 -0.04077 0.0
H245 H 0.74108 0.43785 0.83278 0.0
H246 H 0.23878 0.77777 0.91445 0.0
O247 O 0.17183 0.78294 -0.01746 0.0
H248 H 0.30959 0.5977 -0.03105 0.0
H249 H 0.21731 0.67228 0.10875 0.0
H250 H -0.02732 0.56844 0.02244 0.0
H251 H 0.17556 0.58501 -0.01159 0.0
H252 H 0.22522 0.72444 0.03679 0.0
O253 O 0.10183 0.70956 0.82524 0.0
H254 H 0.8585 0.50557 0.87854 0.0
H255 H -0.03028 0.68641 0.79205 0.0
H256 H -0.03323 0.51508 0.09081 0.0
H257 H 0.35933 0.78165 0.89 0.0
H258 H 0.08924 0.57796 0.13682 0.0
H259 H 0.39907 0.69511 0.92083 0.0
O260 O 0.00023 0.68326 -0.02243 0.0
H261 H 0.11401 0.93431 0.87706 0.0
H262 H 0.8762 0.6786 0.87011 0.0
H263 H 0.85677 0.78655 0.87934 0.0
H264 H -0.02291 0.91558 0.88649 0.0
H265 H 0.12917 0.82306 0.86944 0.0
H266 H 0.84931 0.62171 0.74649 0.0
H267 H 0.73946 0.49677 0.76623 0.0
O268 O 0.93351 0.61833 0.92103 0.0
C269 C -0.0019 0.51142 0.93039 0.0
C270 C 0.79252 0.49074 0.82285 0.0
C271 C 0.85458 0.59406 0.774 0.0
N272 N 0.92348 0.59791 0.83641 0.0
C273 C 0.85917 0.52992 0.84863 0.0
C274 C 0.92165 0.63047 0.7999 0.0
C275 C 0.79125 0.52349 0.78543 0.0
C276 C 0.25146 0.73606 0.92687 0.0
N277 N 0.19959 0.67989 0.95395 0.0
C278 C 0.32228 0.741 0.91352 0.0
C279 C 0.34384 0.69202 0.93026 0.0
C280 C 0.29229 0.63638 -0.04211 0.0
C281 C 0.21863 0.62963 -0.03121 0.0
C282 C 0.16479 0.65266 0.08941 0.0
C283 C 0.02755 0.5924 0.04083 0.0
C284 C 0.16823 0.67999 0.04921 0.0
N285 N 0.0998 0.6487 0.02539 0.0
C286 C 0.0233 0.56284 0.07998 0.0
C287 C 0.09166 0.59645 0.10514 0.0
C288 C 0.93982 0.65824 0.95242 0.0
C289 C 0.06108 0.87827 0.87458 0.0
C290 C 0.92773 0.73432 0.87015 0.0
C291 C 0.9169 0.79573 0.87585 0.0
C292 C -0.01561 0.86806 0.87943 0.0
N293 N 0.00278 0.7431 0.86886 0.0
C294 C 0.06915 0.81477 0.86926 0.0
Co295 Co 0.24416 0.40009 0.92183 0.0
Co296 Co 0.13188 0.21126 0.89872 0.0
O297 O 0.21739 0.29813 0.93193 0.0
C298 C 0.42349 0.4728 -0.01831 0.0
O299 O 0.37963 0.44572 0.01514 0.0
C300 C 0.19278 0.15092 -0.03992 0.0
O301 O 0.23493 0.21128 -0.01676 0.0
O302 O 0.05305 0.22573 0.93102 0.0
O303 O 0.12023 0.35424 0.9195 0.0
H304 H 0.92155 0.07718 0.78858 0.0
H305 H 0.21457 0.31001 0.00199 0.0
O306 O 0.38178 0.45426 0.94389 0.0
H307 H 0.20212 0.53418 0.03823 0.0
H308 H 0.41778 0.63165 0.84441 0.0
H309 H 0.14281 0.47142 0.89828 0.0
H310 H 0.18868 0.49003 -0.03492 0.0
H311 H 0.39105 0.5353 0.89357 0.0
O312 O 0.13195 0.14053 0.94 0.0
H313 H -0.02652 0.15677 0.85359 0.0
H314 H 0.12488 0.06975 0.87636 0.0
H315 H 0.16946 0.57289 0.84955 0.0
H316 H 0.184 0.32832 0.07212 0.0
H317 H 0.30652 0.6536 0.82068 0.0
H318 H 0.22251 0.46254 0.09087 0.0
O319 O 0.2341 0.37799 0.85589 0.0
H320 H 0.41248 0.34766 0.87243 0.0
H321 H 0.14708 0.1837 0.80847 0.0
H322 H 0.2528 0.28092 0.76669 0.0
H323 H 0.38483 0.36851 0.79768 0.0
H324 H 0.30539 0.25273 0.91309 0.0
H325 H 0.07052 -0.01453 0.81686 0.0
H326 H -0.0292 -0.00908 0.77154 0.0
O327 O 0.11497 0.27052 0.85601 0.0
C328 C 0.06006 0.2921 0.93492 0.0
C329 C -0.03402 0.07562 0.8085 0.0
C330 C 0.04715 0.02165 0.82493 0.0
N331 N 0.05337 0.12019 0.86817 0.0
C332 C -0.00544 0.11997 0.84476 0.0
C333 C 0.07543 0.06775 0.86004 0.0
C334 C -0.00758 0.02606 0.79888 0.0
C335 C 0.21524 0.36099 0.00869 0.0
N336 N 0.2278 0.4138 -0.0209 0.0
C337 C 0.20221 0.37269 0.04934 0.0
C338 C 0.21432 0.44317 0.05966 0.0
C339 C 0.20842 0.48698 0.02935 0.0
C340 C 0.20722 0.46595 -0.0114 0.0
C341 C 0.35759 0.5993 0.85677 0.0
C342 C 0.20451 0.5085 0.88856 0.0
C343 C 0.34243 0.54476 0.88675 0.0
N344 N 0.26667 0.4993 0.90272 0.0
C345 C 0.21845 0.56527 0.85984 0.0
C346 C 0.29547 0.6104 0.84346 0.0
C347 C 0.16462 0.32916 0.83703 0.0
C348 C 0.35536 0.31183 0.85739 0.0
C349 C 0.20616 0.21534 0.82265 0.0
C350 C 0.26545 0.27339 0.79861 0.0
C351 C 0.33957 0.32378 0.81663 0.0
N352 N 0.21689 0.21478 0.86482 0.0
C353 C 0.29347 0.25506 0.88069 0.0
Co354 Co 0.02287 0.40769 0.29525 0.0
Co355 Co -0.03896 0.32083 0.38916 0.0
O356 O 0.01707 0.4094 0.35555 0.0
C357 C 0.89195 0.43693 0.28368 0.0
O358 O 0.84956 0.37257 0.26379 0.0
C359 C 0.92401 0.43631 0.45372 0.0
O360 O -0.00964 0.50323 0.45087 0.0
O361 O 0.03051 0.27625 0.34615 0.0
O362 O 0.08781 0.35532 0.29121 0.0
H363 H -0.03432 0.11719 0.46989 0.0
H364 H 0.07255 0.57524 0.2831 0.0
O365 O -0.03922 0.45767 0.29795 0.0
H366 H 0.26208 0.56169 0.38051 0.0
H367 H -0.03371 0.48896 0.16121 0.0
H368 H -0.00572 0.29301 0.23288 0.0
H369 H 0.18348 0.45727 0.33256 0.0
H370 H 0.05109 0.52139 0.22421 0.0
O371 O 0.92083 0.37877 0.43278 0.0
H372 H 0.00013 0.20687 0.41028 0.0
H373 H 0.81652 0.24908 0.44764 0.0
H374 H 0.90558 0.2589 0.17249 0.0
H375 H 0.14268 0.67482 0.33374 0.0
H376 H 0.88649 0.35647 0.13735 0.0
H377 H 0.23729 0.66956 0.38355 0.0
O378 O 0.91945 0.30593 0.29133 0.0
H379 H 0.75118 0.3868 0.3453 0.0
H380 H 0.79459 0.17658 0.37397 0.0
H381 H 0.67517 0.15231 0.33602 0.0
H382 H 0.64952 0.25732 0.321 0.0
H383 H 0.8851 0.4136 0.36857 0.0
H384 H 0.78044 0.15951 0.50549 0.0
H385 H 0.85917 0.09444 0.51583 0.0
O386 O 0.9484 0.25129 0.3429 0.0
C387 C 0.07856 0.29738 0.31076 0.0
C388 C 0.93239 0.14506 0.46367 0.0
C389 C 0.82807 0.16883 0.48433 0.0
N390 N 0.91113 0.23289 0.42525 0.0
C391 C 0.95051 0.19442 0.43027 0.0
C392 C 0.84835 0.21876 0.45099 0.0
C393 C 0.87146 0.13255 0.49055 0.0
C394 C 0.11409 0.57038 0.30341 0.0
N395 N 0.1213 0.50709 0.30372 0.0
C396 C 0.15303 0.62771 0.33303 0.0
C397 C 0.20613 0.62456 0.36111 0.0
C398 C 0.22045 0.56474 0.35894 0.0
C399 C 0.17754 0.50654 0.33004 0.0
C400 C -0.02893 0.44603 0.17765 0.0
C401 C -0.01079 0.33734 0.21756 0.0
C402 C 0.02008 0.46408 0.21307 0.0
N403 N 0.0221 0.40806 0.23493 0.0
C404 C 0.93628 0.31651 0.18387 0.0
C405 C 0.92607 0.37124 0.16412 0.0
C406 C 0.90812 0.24638 0.30943 0.0
C407 C 0.76299 0.34117 0.34834 0.0
C408 C 0.78872 0.22446 0.36533 0.0
C409 C 0.7189 0.20973 0.34425 0.0
C410 C 0.70554 0.26858 0.33552 0.0
N411 N 0.85301 0.29741 0.3686 0.0
C412 C 0.83837 0.35541 0.36254 0.0
Co413 Co 0.48855 0.57975 0.26471 0.0
Co414 Co 0.57599 0.62643 0.36287 0.0
O415 O 0.47866 0.58695 0.32517 0.0
C416 C 0.41771 0.4045 0.26848 0.0
O417 O 0.48492 0.40826 0.25699 0.0
C418 C 0.45886 0.49592 0.4439 0.0
O419 O 0.38936 0.49015 0.45214 0.0
O420 O 0.6355 0.72963 0.31669 0.0
O421 O 0.55825 0.70068 0.25854 0.0
H422 H 0.73324 0.61356 0.48457 0.0
H423 H 0.30963 0.48489 0.28744 0.0
O424 O 0.41485 0.46493 0.27183 0.0
H425 H 0.33044 0.64804 0.16975 0.0
H426 H 0.4539 0.43014 0.13721 0.0
H427 H 0.62276 0.6651 0.21325 0.0
H428 H 0.45276 0.67189 0.2079 0.0
H429 H 0.39803 0.46297 0.19882 0.0
O430 O 0.50272 0.54517 0.41337 0.0
H431 H 0.6375 0.5632 0.42758 0.0
H432 H 0.70187 0.78296 0.38708 0.0
H433 H 0.67669 0.62961 0.16256 0.0
H434 H 0.18794 0.45721 0.24761 0.0
H435 H 0.5893 0.51874 0.1141 0.0
H436 H 0.19692 0.54289 0.19097 0.0
O437 O 0.58602 0.57166 0.27386 0.0
H438 H 0.48738 0.35289 0.3333 0.0
H439 H 0.72366 0.60575 0.35878 0.0
H440 H 0.74208 0.49659 0.3544 0.0
H441 H 0.62167 0.36761 0.34102 0.0
H442 H 0.47276 0.46618 0.34106 0.0
H443 H 0.79801 0.83586 0.44803 0.0
H444 H 0.80458 0.7518 0.49848 0.0
O445 O 0.65935 0.67021 0.3146 0.0
C446 C 0.61731 0.75347 0.2803 0.0
C447 C 0.72692 0.65166 0.4636 0.0
C448 C 0.75727 0.77623 0.44419 0.0
N449 N 0.6644 0.66994 0.403 0.0
C450 C 0.67283 0.62326 0.43059 0.0
C451 C 0.70667 0.74611 0.40931 0.0
C452 C 0.76633 0.72865 0.47153 0.0
C453 C 0.31586 0.52164 0.2618 0.0
N454 N 0.39035 0.58119 0.25044 0.0
C455 C 0.24575 0.50583 0.23981 0.0
C456 C 0.25071 0.55344 0.20764 0.0
C457 C 0.32599 0.61388 0.19632 0.0
C458 C 0.39507 0.62736 0.21836 0.0
C459 C 0.48672 0.48407 0.15254 0.0
C460 C 0.58139 0.6156 0.19578 0.0
C461 C 0.45627 0.50306 0.18677 0.0
N462 N 0.50428 0.56873 0.20776 0.0
C463 C 0.61363 0.59527 0.16492 0.0
C464 C 0.5652 0.53273 0.14035 0.0
C465 C 0.65483 0.62688 0.28388 0.0
C466 C 0.53933 0.40833 0.34004 0.0
C467 C 0.67137 0.55045 0.3544 0.0
C468 C 0.68211 0.48839 0.35144 0.0
C469 C 0.61521 0.41663 0.34407 0.0
N470 N 0.59594 0.54212 0.35168 0.0
C471 C 0.531 0.47192 0.34426 0.0
Co472 Co 0.3591 0.92978 0.28515 0.0
Co473 Co 0.34726 -0.02329 0.38289 0.0
O474 O 0.38587 0.93199 0.34396 0.0
C475 C 0.53799 0.0028 0.29263 0.0
O476 O 0.55016 0.06805 0.30549 0.0
C477 C 0.46985 0.00117 0.45856 0.0
O478 O 0.4061 0.94689 0.43929 0.0
O479 O 0.2235 0.87758 0.36506 0.0
O480 O 0.23676 0.88756 0.29524 0.0
H481 H 0.12692 -0.00463 0.45554 0.0
H482 H 0.43605 0.85041 0.32159 0.0
O483 O 0.47282 0.95858 0.27345 0.0
H484 H 0.20639 0.66056 0.23779 0.0
H485 H 0.45204 -0.01167 0.14167 0.0
H486 H 0.24556 0.9601 0.23952 0.0
H487 H 0.23104 0.79044 0.24553 0.0
H488 H 0.42337 0.90813 0.20528 0.0
O489 O 0.4039 0.94925 0.43656 0.0
H490 H 0.18323 0.94814 0.4034 0.0
H491 H 0.41824 0.09057 0.45423 0.0
H492 H 0.25499 0.01674 0.1746 0.0
H493 H 0.40779 0.71984 0.3196 0.0
H494 H 0.37195 0.04612 0.12663 0.0
H495 H 0.28901 0.62502 0.28136 0.0
O496 O 0.39008 0.03932 0.28683 0.0
H497 H 0.64295 0.12189 0.41511 0.0
H498 H 0.41217 0.14694 0.37458 0.0
H499 H 0.53812 0.26066 0.39834 0.0
H500 H 0.65042 0.24541 0.42488 0.0
H501 H 0.52289 0.01597 0.38188 0.0
H502 H 0.36494 0.13737 0.50524 0.0
H503 H 0.21984 0.09102 0.50641 0.0
O504 O 0.30967 0.0195 0.33915 0.0
C505 C 0.18892 0.8594 0.32627 0.0
C506 C 0.19145 0.0186 0.45361 0.0
C507 C 0.32479 0.09806 0.48203 0.0
N508 N 0.30505 0.01883 0.423 0.0
C509 C 0.22381 -0.00787 0.42407 0.0
C510 C 0.35486 0.07075 0.45216 0.0
C511 C 0.24305 0.07278 0.48214 0.0
C512 C 0.38524 0.80901 0.30333 0.0
N513 N 0.33538 0.82759 0.28267 0.0
C514 C 0.37061 0.73576 0.302 0.0
C515 C 0.3054 0.68259 0.27883 0.0
C516 C 0.25735 0.70244 0.25593 0.0
C517 C 0.27164 0.77549 0.25974 0.0
C518 C 0.40414 -0.02209 0.16239 0.0
C519 C 0.2869 0.95947 0.21745 0.0
C520 C 0.38866 0.9343 0.19838 0.0
N521 N 0.33707 0.93309 0.22724 0.0
C522 C 0.29545 -0.00335 0.18045 0.0
C523 C 0.35865 0.01107 0.15398 0.0
C524 C 0.35206 0.06054 0.30937 0.0
C525 C 0.59315 0.12889 0.40545 0.0
C526 C 0.46345 0.14206 0.38176 0.0
C527 C 0.53404 0.2062 0.39642 0.0
C528 C 0.59696 0.19777 0.41128 0.0
N529 N 0.45561 0.07199 0.38251 0.0
C530 C 0.52481 0.06917 0.38624 0.0
Co531 Co 0.22941 0.18533 0.31269 0.0
Co532 Co 0.21601 0.22681 0.21425 0.0
O533 O 0.19313 0.15159 0.25733 0.0
C534 C 0.34857 0.12882 0.30062 0.0
O535 O 0.41322 0.19367 0.29044 0.0
C536 C 0.17756 0.09584 0.1396 0.0
O537 O 0.11259 0.04662 0.11898 0.0
O538 O 0.12428 0.24273 0.2475 0.0
O539 O 0.16702 0.24278 0.31371 0.0
H540 H 0.29056 0.48153 0.15801 0.0
H541 H 0.16148 0.01421 0.31038 0.0
O542 O 0.28369 0.12511 0.31175 0.0
H543 H -0.00552 0.05174 0.40938 0.0
H544 H 0.3939 0.20065 0.43003 0.0
H545 H 0.28157 0.32888 0.35156 0.0
H546 H 0.08523 0.15621 0.36371 0.0
H547 H 0.26631 0.12347 0.38836 0.0
O548 O 0.16418 0.13456 0.16934 0.0
H549 H 0.21483 0.37194 0.20609 0.0
H550 H 0.25139 0.23481 0.12252 0.0
H551 H 0.40202 0.3994 0.39025 0.0
H552 H 0.07561 0.91274 0.35878 0.0
H553 H 0.4703 0.33155 0.42039 0.0
H554 H -0.00423 0.93334 0.41118 0.0
O555 O 0.3349 0.27508 0.29187 0.0
H556 H 0.4045 0.12391 0.21261 0.0
H557 H 0.37782 0.34452 0.18695 0.0
H558 H 0.507 0.35713 0.18184 0.0
H559 H 0.52374 0.24521 0.19126 0.0
H560 H 0.27045 0.11251 0.2182 0.0
H561 H 0.33727 0.34276 0.07913 0.0
H562 H 0.35991 0.4697 0.0978 0.0
O563 O 0.28138 0.31928 0.24957 0.0
C564 C 0.12185 0.25482 0.28896 0.0
C565 C 0.28225 0.42697 0.15106 0.0
C566 C 0.30968 0.34979 0.10657 0.0
N567 N 0.2332 0.29738 0.16904 0.0
C568 C 0.23884 0.36479 0.17751 0.0
C569 C 0.25941 0.28778 0.13143 0.0
C570 C 0.32174 0.42041 0.11688 0.0
C571 C 0.12847 0.02561 0.33323 0.0
N572 N 0.13459 0.09524 0.3358 0.0
C573 C 0.07877 0.96654 0.36026 0.0
C574 C 0.03208 -0.02296 0.38876 0.0
C575 C 0.03173 0.04415 0.38801 0.0
C576 C 0.08349 0.10315 0.36149 0.0
C577 C 0.3649 0.22536 0.41395 0.0
C578 C 0.30219 0.29811 0.37009 0.0
C579 C 0.29348 0.18388 0.39138 0.0
N580 N 0.26865 0.22177 0.36655 0.0
C581 C 0.37366 0.33965 0.39117 0.0
C582 C 0.40868 0.30261 0.40996 0.0
C583 C 0.34054 0.33014 0.27149 0.0
C584 C 0.39706 0.17064 0.2039 0.0
C585 C 0.38114 0.29425 0.18929 0.0
C586 C 0.45624 0.30159 0.18613 0.0
C587 C 0.46472 0.23934 0.19275 0.0
N588 N 0.31432 0.22704 0.19982 0.0
C589 C 0.32185 0.16543 0.20783 0.0
Co590 Co 0.76636 0.00877 0.30168 0.0
Co591 Co 0.67801 -0.01473 0.20784 0.0
O592 O 0.76565 0.03753 0.24495 0.0
C593 C 0.84301 0.17224 0.29758 0.0
O594 O 0.77951 0.165 0.27905 0.0
C595 C 0.81105 0.10259 0.13206 0.0
O596 O 0.88104 0.11214 0.12102 0.0
O597 O 0.6683 0.87378 0.22532 0.0
O598 O 0.6982 0.89327 0.29258 0.0
H599 H 0.40872 0.77105 0.16532 0.0
H600 H 0.9055 0.11097 0.24799 0.0
O601 O 0.83833 0.11602 0.31603 0.0
H602 H -0.02395 0.93063 0.30234 0.0
H603 H 0.8837 0.00534 0.44223 0.0
H604 H 0.63916 0.90135 0.35581 0.0
H605 H 0.84206 0.91803 0.32183 0.0
H606 H 0.89163 0.05751 0.37028 0.0
O607 O 0.76881 0.04324 0.15869 0.0
H608 H 0.52541 0.83887 0.21156 0.0
H609 H 0.63695 0.02053 0.12559 0.0
H610 H 0.63316 0.84802 0.4242 0.0
H611 H 0.02596 0.11472 0.22349 0.0
H612 H 0.7556 0.91087 0.47024 0.0
H613 H 0.06557 0.02807 0.25426 0.0
O614 O 0.66673 0.01625 0.31097 0.0
H615 H 0.78073 0.26769 0.21047 0.0
H616 H 0.54296 0.01192 0.20365 0.0
H617 H 0.5235 0.11984 0.21293 0.0
H618 H 0.6438 0.24891 0.22002 0.0
H619 H 0.79594 0.15649 0.20286 0.0
H620 H 0.51695 0.95612 0.07978 0.0
H621 H 0.40758 0.83064 0.09893 0.0
O622 O 0.60017 0.95147 0.25435 0.0
C623 C 0.66477 0.84462 0.2637 0.0
C624 C 0.46002 0.82427 0.15568 0.0
C625 C 0.52213 0.92822 0.10722 0.0
N626 N 0.59056 0.93159 0.16969 0.0
C627 C 0.52628 0.86342 0.18169 0.0
C628 C 0.58892 0.96449 0.13327 0.0
C629 C 0.45901 0.85735 0.11833 0.0
C630 C 0.91812 0.06922 0.26038 0.0
N631 N 0.8662 0.01302 0.28744 0.0
C632 C -0.0111 0.07409 0.24701 0.0
C633 C 0.01038 0.02503 0.26371 0.0
C634 C 0.9588 0.96937 0.29133 0.0
C635 C 0.88517 0.96268 0.30225 0.0
C636 C 0.83118 -0.01432 0.42287 0.0
C637 C 0.69401 0.92534 0.37423 0.0
C638 C 0.83465 0.01302 0.38267 0.0
N639 N 0.76625 -0.01832 0.35882 0.0
C640 C 0.68971 0.89579 0.41339 0.0
C641 C 0.75804 0.92941 0.43857 0.0
C642 C 0.60635 -0.0088 0.2858 0.0
C643 C 0.72781 0.21164 0.20805 0.0
C644 C 0.59449 0.06766 0.20369 0.0
C645 C 0.58364 0.12905 0.20941 0.0
C646 C 0.65111 0.2014 0.21296 0.0
N647 N 0.66957 0.07649 0.20236 0.0
C648 C 0.73591 0.14817 0.20272 0.0
Co649 Co 0.91065 0.73323 0.25509 0.0
Co650 Co 0.79854 0.54443 0.23189 0.0
O651 O 0.88394 0.63129 0.26513 0.0
C652 C 0.08996 0.80594 0.31499 0.0
O653 O 0.04609 0.77887 0.34844 0.0
C654 C 0.85957 0.48421 0.29321 0.0
O655 O 0.90178 0.54463 0.31633 0.0
O656 O 0.71963 0.55883 0.2642 0.0
O657 O 0.78674 0.68736 0.25273 0.0
H658 H 0.58793 0.41011 0.12188 0.0
H659 H 0.88108 0.643 0.33521 0.0
O660 O 0.04827 0.78741 0.27718 0.0
H661 H 0.86859 0.86709 0.3716 0.0
H662 H 0.08423 0.96468 0.17767 0.0
H663 H 0.80935 0.8047 0.2317 0.0
H664 H 0.85505 0.823 0.29844 0.0
H665 H 0.05737 0.868 0.2266 0.0
O666 O 0.79869 0.47375 0.27317 0.0
H667 H 0.64018 0.48997 0.18677 0.0
H668 H 0.79156 0.4029 0.20954 0.0
H669 H 0.83605 0.90636 0.1831 0.0
H670 H 0.85073 0.66128 0.40538 0.0
H671 H -0.02687 -0.01295 0.15419 0.0
H672 H 0.88913 0.79547 0.42418 0.0
O673 O 0.90061 0.71129 0.18915 0.0
H674 H 0.07837 0.68328 0.2055 0.0
H675 H 0.81361 0.51632 0.14167 0.0
H676 H 0.91858 0.61383 0.09975 0.0
H677 H 0.05027 0.70274 0.13061 0.0
H678 H -0.02759 0.58671 0.24612 0.0
H679 H 0.73685 0.31832 0.15016 0.0
H680 H 0.63688 0.32358 0.10494 0.0
O681 O 0.78162 0.60364 0.1892 0.0
C682 C 0.72659 0.62518 0.26812 0.0
C683 C 0.6324 0.40856 0.14178 0.0
C684 C 0.71355 0.35457 0.15822 0.0
N685 N 0.72003 0.45333 0.20136 0.0
C686 C 0.66117 0.45308 0.17797 0.0
C687 C 0.74204 0.40084 0.19326 0.0
C688 C 0.6587 0.35888 0.13221 0.0
C689 C 0.88177 0.69398 0.34195 0.0
N690 N 0.89426 0.74681 0.31238 0.0
C691 C 0.86886 0.70566 0.38262 0.0
C692 C 0.88093 0.77612 0.39297 0.0
C693 C 0.87492 0.81992 0.36269 0.0
C694 C 0.87363 0.79891 0.32193 0.0
C695 C 0.02408 0.93244 0.19008 0.0
C696 C 0.87105 0.84177 0.22196 0.0
C697 C 0.00888 0.87776 0.21997 0.0
N698 N 0.93317 0.83245 0.23604 0.0
C699 C 0.88502 0.89863 0.19331 0.0
C700 C -0.03798 0.94374 0.1769 0.0
C701 C 0.83121 0.66238 0.17027 0.0
C702 C 0.0216 0.64633 0.19042 0.0
C703 C 0.87269 0.54837 0.1558 0.0
C704 C 0.93154 0.60662 0.13167 0.0
C705 C 0.00548 0.6577 0.14961 0.0
N706 N 0.88363 0.54804 0.19797 0.0
C707 C -0.03972 0.58893 0.21373 0.0
Co708 Co 0.68975 0.74113 0.62849 0.0
Co709 Co 0.62743 0.65437 0.72235 0.0
O710 O 0.68391 0.74292 0.68878 0.0
C711 C 0.55893 0.77051 0.61681 0.0
O712 O 0.51644 0.70607 0.59701 0.0
C713 C 0.59071 0.77002 0.78695 0.0
O714 O 0.65708 0.83694 0.78417 0.0
O715 O 0.69696 0.60957 0.6795 0.0
O716 O 0.7546 0.68865 0.62459 0.0
H717 H 0.63138 0.45161 0.80416 0.0
H718 H 0.73961 0.90872 0.61628 0.0
O719 O 0.62774 0.7912 0.63109 0.0
H720 H 0.92864 0.89495 0.71395 0.0
H721 H 0.63244 0.82186 0.49457 0.0
H722 H 0.66156 0.62649 0.56617 0.0
H723 H 0.85031 0.79064 0.66589 0.0
H724 H 0.71765 0.85464 0.55743 0.0
O725 O 0.58752 0.71256 0.76594 0.0
H726 H 0.666 0.54029 0.744 0.0
H727 H 0.48216 0.583 0.78021 0.0
H728 H 0.57255 0.59202 0.50591 0.0
H729 H 0.8094 0.00812 0.66704 0.0
H730 H 0.55293 0.6893 0.47078 0.0
H731 H 0.90373 0.00275 0.71698 0.0
O732 O 0.58627 0.63941 0.62451 0.0
H733 H 0.41832 0.72143 0.67881 0.0
H734 H 0.4608 0.5105 0.70671 0.0
H735 H 0.34165 0.48695 0.6687 0.0
H736 H 0.31636 0.59229 0.65418 0.0
H737 H 0.55212 0.74769 0.70184 0.0
H738 H 0.44543 0.49398 0.83834 0.0
H739 H 0.52465 0.42989 0.8498 0.0
O740 O 0.61492 0.58475 0.67618 0.0
C741 C 0.74515 0.63066 0.64417 0.0
C742 C 0.59794 0.47922 0.7975 0.0
C743 C 0.4933 0.50312 0.8174 0.0
N744 N 0.57691 0.56648 0.75839 0.0
C745 C 0.61621 0.52801 0.76382 0.0
C746 C 0.51389 0.55266 0.78388 0.0
C747 C 0.53692 0.46724 0.82419 0.0
C748 C 0.78101 0.90379 0.63666 0.0
N749 N 0.78821 0.84049 0.63699 0.0
C750 C 0.81977 0.96103 0.66634 0.0
C751 C 0.87273 0.95782 0.69449 0.0
C752 C 0.88711 0.89804 0.69232 0.0
C753 C 0.84436 0.83991 0.66336 0.0
C754 C 0.63755 0.77906 0.51097 0.0
C755 C 0.65632 0.67071 0.55084 0.0
C756 C 0.68679 0.79733 0.5463 0.0
N757 N 0.6891 0.74145 0.56817 0.0
C758 C 0.60318 0.64967 0.51724 0.0
C759 C 0.59269 0.70423 0.49749 0.0
C760 C 0.57481 0.57985 0.64265 0.0
C761 C 0.42993 0.67567 0.68164 0.0
C762 C 0.45521 0.55856 0.69812 0.0
C763 C 0.3855 0.54422 0.67707 0.0
C764 C 0.37233 0.60327 0.66863 0.0
N765 N 0.51966 0.6314 0.70158 0.0
C766 C 0.50526 0.68959 0.69572 0.0
Co767 Co 0.15516 0.91309 0.59809 0.0
Co768 Co 0.24258 0.9598 0.69628 0.0
O769 O 0.14526 0.92029 0.65856 0.0
C770 C 0.08431 0.73782 0.6019 0.0
O771 O 0.15151 0.74157 0.59039 0.0
C772 C 0.12535 0.82908 0.77721 0.0
O773 O 0.0558 0.82332 0.78531 0.0
O774 O 0.30207 0.063 0.65009 0.0
O775 O 0.22488 0.03402 0.59191 0.0
H776 H 0.39972 0.94698 0.81806 0.0
H777 H -0.02379 0.81818 0.62078 0.0
O778 O 0.08146 0.79826 0.60523 0.0
H779 H -0.0029 -0.01868 0.50307 0.0
H780 H 0.12052 0.76336 0.47066 0.0
H781 H 0.28936 -0.00156 0.54661 0.0
H782 H 0.11939 0.00522 0.54127 0.0
H783 H 0.06465 0.79626 0.53224 0.0
O784 O 0.16943 0.87833 0.74673 0.0
H785 H 0.30404 0.89657 0.76105 0.0
H786 H 0.36863 0.11634 0.72042 0.0
H787 H 0.34327 0.96293 0.49592 0.0
H788 H 0.85457 0.79046 0.5809 0.0
H789 H 0.25588 0.85199 0.4475 0.0
H790 H 0.86357 0.87613 0.52425 0.0
O791 O 0.25266 0.90503 0.60725 0.0
H792 H 0.15429 0.68642 0.66659 0.0
H793 H 0.39033 0.93933 0.69224 0.0
H794 H 0.40892 0.83032 0.68791 0.0
H795 H 0.28859 0.70124 0.67445 0.0
H796 H 0.13953 0.79962 0.67436 0.0
H797 H 0.46485 0.16925 0.78133 0.0
H798 H 0.47126 0.08526 0.83187 0.0
O799 O 0.32596 0.00358 0.648 0.0
C800 C 0.28392 0.08683 0.61369 0.0
C801 C 0.39343 -0.01493 0.79707 0.0
C802 C 0.42396 0.10964 0.77756 0.0
N803 N 0.33098 0.00332 0.73642 0.0
C804 C 0.33936 0.95665 0.76405 0.0
C805 C 0.37334 0.07951 0.74268 0.0
C806 C 0.43294 0.06208 0.80494 0.0
C807 C -0.01754 0.85494 0.59514 0.0
N808 N 0.05696 0.91451 0.5838 0.0
C809 C 0.91238 0.8391 0.57313 0.0
C810 C 0.91735 0.88671 0.54095 0.0
C811 C -0.00736 0.94717 0.52964 0.0
C812 C 0.0617 0.96067 0.55172 0.0
C813 C 0.15333 0.81732 0.48596 0.0
C814 C 0.24798 0.94892 0.52916 0.0
C815 C 0.12288 0.83634 0.52018 0.0
N816 N 0.17089 0.90204 0.54115 0.0
C817 C 0.28022 0.92856 0.4983 0.0
C818 C 0.23179 0.86599 0.47376 0.0
C819 C 0.32147 0.96026 0.61727 0.0
C820 C 0.20619 0.74187 0.67338 0.0
C821 C 0.33809 0.88402 0.68784 0.0
C822 C 0.34892 0.82202 0.68489 0.0
C823 C 0.28208 0.75024 0.67748 0.0
N824 N 0.26264 0.8756 0.68506 0.0
C825 C 0.19777 0.8054 0.67759 0.0
Co826 Co 0.02581 0.26309 0.61854 0.0
Co827 Co 0.01408 0.31006 0.71629 0.0
O828 O 0.05255 0.26524 0.67735 0.0
C829 C 0.20474 0.33617 0.62594 0.0
O830 O 0.21687 0.40147 0.63869 0.0
C831 C 0.13699 0.33441 0.79185 0.0
O832 O 0.07311 0.28019 0.77262 0.0
O833 O 0.89022 0.21098 0.69845 0.0
O834 O 0.90348 0.22091 0.62862 0.0
H835 H 0.79401 0.32915 0.78895 0.0
H836 H 0.10272 0.18369 0.65499 0.0
O837 O 0.13951 0.29182 0.60684 0.0
H838 H 0.87319 -0.00605 0.57109 0.0
H839 H 0.1186 0.3215 0.47501 0.0
H840 H 0.9123 0.29347 0.57292 0.0
H841 H 0.89775 0.12378 0.57892 0.0
H842 H 0.09005 0.24144 0.53867 0.0
O843 O 0.07079 0.28259 0.76994 0.0
H844 H 0.85015 0.28171 0.73683 0.0
H845 H 0.08524 0.42392 0.78761 0.0
H846 H 0.92157 0.34993 0.50796 0.0
H847 H 0.07446 0.05312 0.65297 0.0
H848 H 0.03845 0.37922 0.45995 0.0
H849 H 0.95574 0.95835 0.61467 0.0
O850 O 0.05682 0.37266 0.62022 0.0
H851 H 0.31008 0.4549 0.74798 0.0
H852 H 0.07928 0.48037 0.70802 0.0
H853 H 0.20539 0.59391 0.73181 0.0
H854 H 0.31771 0.57844 0.75807 0.0
H855 H 0.18958 0.34901 0.71505 0.0
H856 H 0.0321 0.47106 0.83856 0.0
H857 H 0.88703 0.42487 0.83975 0.0
O858 O -0.02351 0.35287 0.67258 0.0
C859 C 0.85563 0.19278 0.65965 0.0
C860 C 0.85853 0.35231 0.787 0.0
C861 C -0.00807 0.43173 0.81536 0.0
N862 N -0.02799 0.35232 0.75639 0.0
C863 C 0.89079 0.32571 0.75747 0.0
C864 C 0.0219 0.40429 0.78552 0.0
C865 C 0.9102 0.40654 0.81549 0.0
C866 C 0.05192 0.14231 0.63672 0.0
N867 N 0.00207 0.16091 0.61606 0.0
C868 C 0.03729 0.06906 0.63537 0.0
C869 C -0.02787 0.01592 0.61216 0.0
C870 C 0.9241 0.0358 0.58926 0.0
C871 C 0.93835 0.10883 0.59311 0.0
C872 C 0.07073 0.31111 0.49575 0.0
C873 C 0.95359 0.29279 0.55084 0.0
C874 C 0.05533 0.26759 0.53176 0.0
N875 N 0.00378 0.26642 0.56063 0.0
C876 C -0.03795 0.32987 0.51382 0.0
C877 C 0.02521 0.34424 0.48732 0.0
C878 C 0.01887 0.39392 0.6428 0.0
C879 C 0.26024 0.46196 0.73851 0.0
C880 C 0.13051 0.47538 0.71515 0.0
C881 C 0.20122 0.53942 0.7298 0.0
C882 C 0.26415 0.53086 0.7445 0.0
N883 N 0.12251 0.40524 0.71586 0.0
C884 C 0.19165 0.40227 0.71944 0.0
Co885 Co 0.89609 0.51863 0.64617 0.0
Co886 Co 0.88264 0.56003 0.5477 0.0
O887 O 0.85982 0.48485 0.5908 0.0
C888 C 0.01536 0.46221 0.63407 0.0
O889 O 0.07997 0.52705 0.62385 0.0
C890 C 0.8442 0.42907 0.473 0.0
O891 O 0.77922 0.37995 0.45235 0.0
O892 O 0.7909 0.57595 0.58095 0.0
O893 O 0.83351 0.57592 0.64719 0.0
H894 H 0.95713 0.81472 0.4914 0.0
H895 H 0.82812 0.34761 0.64354 0.0
O896 O 0.95049 0.45849 0.64522 0.0
H897 H 0.66178 0.38472 0.74317 0.0
H898 H 0.06113 0.53431 0.76328 0.0
H899 H 0.94783 0.66204 0.68511 0.0
H900 H 0.75252 0.48953 0.6976 0.0
H901 H 0.93334 0.45693 0.72179 0.0
O902 O 0.83084 0.46779 0.50277 0.0
H903 H 0.8814 0.70513 0.5395 0.0
H904 H 0.91815 0.56804 0.45599 0.0
H905 H 0.06863 0.7328 0.72346 0.0
H906 H 0.74254 0.24595 0.69192 0.0
H907 H 0.13737 0.66525 0.75342 0.0
H908 H 0.66293 0.26628 0.74457 0.0
O909 O 0.00153 0.60844 0.62535 0.0
H910 H 0.07109 0.45708 0.54601 0.0
H911 H 0.04448 0.67776 0.52043 0.0
H912 H 0.17366 0.69036 0.51538 0.0
H913 H 0.19036 0.57841 0.52473 0.0
H914 H 0.93705 0.44571 0.55161 0.0
H915 H 0.00396 0.67596 0.41258 0.0
H916 H 0.0265 0.80288 0.43121 0.0
O917 O 0.94797 0.65253 0.58301 0.0
C918 C 0.7884 0.58801 0.62241 0.0
C919 C 0.94884 0.76016 0.48446 0.0
C920 C -0.02367 0.68299 0.44001 0.0
N921 N 0.89983 0.63059 0.50248 0.0
C922 C 0.90544 0.69799 0.51093 0.0
C923 C 0.9261 0.62099 0.46488 0.0
C924 C -0.01166 0.75359 0.4503 0.0
C925 C 0.79523 0.35889 0.66651 0.0
N926 N 0.80138 0.42851 0.66927 0.0
C927 C 0.74568 0.29972 0.69352 0.0
C928 C 0.69914 0.3101 0.72218 0.0
C929 C 0.69891 0.37726 0.72167 0.0
C930 C 0.75057 0.4364 0.69519 0.0
C931 C 0.03199 0.55894 0.74723 0.0
C932 C -0.03133 0.63138 0.70358 0.0
C933 C -0.0396 0.51732 0.7248 0.0
N934 N 0.93529 0.55507 0.70003 0.0
C935 C 0.04035 0.67306 0.72446 0.0
C936 C 0.07564 0.63618 0.74314 0.0
C937 C 0.00714 0.66345 0.60494 0.0
C938 C 0.06366 0.50384 0.53733 0.0
C939 C 0.04779 0.62748 0.52277 0.0
C940 C 0.12289 0.63482 0.51963 0.0
C941 C 0.13134 0.57254 0.52622 0.0
N942 N -0.01904 0.56026 0.53327 0.0
C943 C -0.01154 0.49863 0.54126 0.0
Co944 Co 0.43321 0.34224 0.63494 0.0
Co945 Co 0.34469 0.31857 0.54114 0.0
O946 O 0.43237 0.37086 0.5782 0.0
C947 C 0.50978 0.5057 0.63076 0.0
O948 O 0.44618 0.4984 0.61232 0.0
C949 C 0.47772 0.43586 0.46533 0.0
O950 O 0.5477 0.44541 0.45425 0.0
O951 O 0.33495 0.20709 0.55867 0.0
O952 O 0.36498 0.22668 0.62591 0.0
H953 H 0.07525 0.10434 0.49878 0.0
H954 H 0.57222 0.44424 0.58112 0.0
O955 O 0.50522 0.44952 0.64919 0.0
H956 H 0.64288 0.26414 0.63573 0.0
H957 H 0.55109 0.34005 0.77554 0.0
H958 H 0.30632 0.23489 0.68922 0.0
H959 H 0.50899 0.25163 0.65522 0.0
H960 H 0.55875 0.39161 0.70349 0.0
O961 O 0.43549 0.37649 0.49195 0.0
H962 H 0.19204 0.1722 0.54495 0.0
H963 H 0.30352 0.35366 0.45887 0.0
H964 H 0.30073 0.18171 0.75759 0.0
H965 H 0.69271 0.44797 0.55667 0.0
H966 H 0.42336 0.24481 0.8035 0.0
H967 H 0.73236 0.3614 0.58754 0.0
O968 O 0.33357 0.34973 0.64425 0.0
H969 H 0.44745 0.601 0.54373 0.0
H970 H 0.20963 0.34524 0.53696 0.0
H971 H 0.19022 0.45318 0.54623 0.0
H972 H 0.31054 0.58224 0.5533 0.0
H973 H 0.46263 0.48977 0.53614 0.0
H974 H 0.18346 0.2892 0.41311 0.0
H975 H 0.07408 0.16378 0.43233 0.0
O976 O 0.26692 0.28485 0.58767 0.0
C977 C 0.33144 0.17798 0.59706 0.0
C978 C 0.12656 0.15752 0.48909 0.0
C979 C 0.18865 0.26136 0.44056 0.0
N980 N 0.25717 0.26483 0.50303 0.0
C981 C 0.19288 0.1967 0.51507 0.0
C982 C 0.25548 0.29765 0.46659 0.0
C983 C 0.12553 0.19052 0.45172 0.0
C984 C 0.58488 0.40254 0.59356 0.0
N985 N 0.533 0.34643 0.62067 0.0
C986 C 0.65566 0.4074 0.58022 0.0
C987 C 0.67719 0.35841 0.59699 0.0
C988 C 0.62565 0.30286 0.62467 0.0
C989 C 0.55203 0.29619 0.63557 0.0
C990 C 0.49858 0.31989 0.75613 0.0
C991 C 0.36124 0.25899 0.70757 0.0
C992 C 0.50184 0.34702 0.71591 0.0
N993 N 0.43337 0.31539 0.69209 0.0
C994 C 0.35719 0.22952 0.74673 0.0
C995 C 0.42563 0.26328 0.77183 0.0
C996 C 0.27313 0.32462 0.61911 0.0
C997 C 0.39452 0.54495 0.54131 0.0
C998 C 0.26118 0.40097 0.53698 0.0
C999 C 0.25035 0.46238 0.5427 0.0
C1000 C 0.31783 0.53472 0.54623 0.0
N1001 N 0.33625 0.40979 0.53564 0.0
C1002 C 0.4026 0.48146 0.536 0.0
Co1003 Co 0.57732 0.0666 0.58845 0.0
Co1004 Co 0.46521 0.87783 0.56525 0.0
O1005 O 0.55063 0.96468 0.59847 0.0
C1006 C 0.75666 0.13927 0.64835 0.0
O1007 O 0.71278 0.11206 0.68178 0.0
C1008 C 0.52659 0.8178 0.62639 0.0
O1009 O 0.56865 0.87803 0.64966 0.0
O1010 O 0.38631 0.89221 0.5976 0.0
O1011 O 0.4534 0.02074 0.58612 0.0
H1012 H 0.25438 0.74331 0.45534 0.0
H1013 H 0.54769 -0.02367 0.66854 0.0
O1014 O 0.71497 0.12081 0.61054 0.0
H1015 H 0.53541 0.20053 0.70497 0.0
H1016 H 0.75076 0.29784 0.51091 0.0
H1017 H 0.47599 0.13808 0.5651 0.0
H1018 H 0.52191 0.15652 0.63181 0.0
H1019 H 0.72398 0.20133 0.55993 0.0
O1020 O 0.46549 0.80723 0.60652 0.0
H1021 H 0.30673 0.82324 0.52021 0.0
H1022 H 0.45833 0.73638 0.54285 0.0
H1023 H 0.50262 0.23961 0.51642 0.0
H1024 H 0.51736 -0.0054 0.73873 0.0
H1025 H 0.63964 0.32019 0.48742 0.0
H1026 H 0.55569 0.12874 0.75753 0.0
O1027 O 0.56719 0.04463 0.52249 0.0
H1028 H 0.74506 0.0166 0.53871 0.0
H1029 H 0.48017 0.84973 0.475 0.0
H1030 H 0.58513 0.94713 0.43302 0.0
H1031 H 0.7169 0.03604 0.46383 0.0
H1032 H 0.63918 0.92022 0.57938 0.0
H1033 H 0.40357 0.65178 0.48349 0.0
H1034 H 0.30343 0.65689 0.43833 0.0
O1035 O 0.44819 0.93699 0.52258 0.0
C1036 C 0.39324 0.95856 0.60152 0.0
C1037 C 0.29893 0.74184 0.47521 0.0
C1038 C 0.38024 0.68798 0.49157 0.0
N1039 N 0.38669 0.78671 0.53474 0.0
C1040 C 0.32775 0.78639 0.51139 0.0
C1041 C 0.40875 0.73426 0.5266 0.0
C1042 C 0.32529 0.69222 0.46561 0.0
C1043 C 0.54842 0.02733 0.67529 0.0
N1044 N 0.56096 0.0802 0.64573 0.0
C1045 C 0.53549 0.03899 0.71596 0.0
C1046 C 0.54754 0.10943 0.72632 0.0
C1047 C 0.54165 0.15331 0.69605 0.0
C1048 C 0.54042 0.13235 0.65529 0.0
C1049 C 0.69064 0.26567 0.52336 0.0
C1050 C 0.53767 0.17511 0.55533 0.0
C1051 C 0.67549 0.21108 0.55329 0.0
N1052 N 0.59981 0.16581 0.56939 0.0
C1053 C 0.5516 0.23191 0.52664 0.0
C1054 C 0.62857 0.27695 0.51018 0.0
C1055 C 0.49777 -0.0043 0.50363 0.0
C1056 C 0.68826 -0.02031 0.52365 0.0
C1057 C 0.53928 0.88177 0.4891 0.0
C1058 C 0.59812 0.93996 0.46494 0.0
C1059 C 0.6721 -0.00897 0.48285 0.0
N1060 N 0.55028 0.88148 0.53128 0.0
C1061 C 0.62696 0.92236 0.547 0.0
loop_
_geom_bond_atom_site_label_1
_geom_bond_atom_site_label_2
_geom_bond_distance
_geom_bond_site_symmetry_2
_ccdc_geom_bond_type
Co0 O2 2.143 1_556 S
Co0 O8 2.074 1_546 S
Co0 O11 2.093 . S
Co0 O24 2.097 1_545 S
Co0 N41 2.151 . S
Co0 N49 2.214 . S
Co1 O2 2.160 1_565 S
Co1 O7 2.058 . S
Co1 O17 2.057 1_565 S
Co1 O32 2.037 . S
Co1 N36 2.145 . S
Co1 N57 2.257 . S
O2 Co0 2.143 1_554 S
O2 Co1 2.160 1_545 S
C3 O4 1.278 1_556 S
C3 O11 1.224 . S
O4 C3 1.278 1_554 S
C5 O6 1.245 . S
C5 O17 1.232 . S
O6 C5 1.245 . S
O7 Co1 2.058 . S
O7 C33 1.269 . S
O8 Co0 2.074 1_564 S
O8 C33 1.257 . S
H9 C34 0.930 . S
H10 C40 0.930 . S
O11 Co0 2.093 . S
O11 C3 1.224 . S
H12 C44 0.929 . S
H13 C46 0.930 . S
H14 C47 0.930 . S
H15 C45 0.929 . S
H16 C48 0.928 . S
O17 Co1 2.057 1_545 S
O17 C5 1.232 . S
H18 C37 0.929 . S
H19 C38 0.929 . S
H20 C50 0.931 . S
H21 C42 0.929 . S
H22 C51 0.930 . S
H23 C43 0.931 . S
O24 Co0 2.097 1_565 S
O24 C52 1.214 1_556 S
H25 C53 0.929 . S
H26 C54 0.929 . S
H27 C55 0.930 1_655 S
H28 C56 0.929 1_655 S
H29 C58 0.930 . S
H30 C35 0.930 . S
H31 C39 0.930 . S
O32 Co1 2.037 . S
O32 C52 1.234 . S
C33 O7 1.269 . S
C33 O8 1.257 . S
C34 H9 0.930 . S
C34 C37 1.388 . S
C34 C39 1.418 . S
C35 H30 0.930 . S
C35 C38 1.404 . S
C35 C39 1.353 . S
N36 Co1 2.145 . S
N36 C37 1.397 . S
N36 C38 1.334 . S
C37 H18 0.929 . S
C37 C34 1.388 . S
C37 N36 1.397 . S
C38 H19 0.929 . S
C38 C35 1.404 . S
C38 N36 1.334 . S
C39 H31 0.930 . S
C39 C34 1.418 . S
C39 C35 1.353 . S
C40 H10 0.930 . S
C40 N41 1.330 1_554 S
C40 C42 1.446 . S
N41 Co0 2.151 . S
N41 C40 1.330 1_556 S
N41 C45 1.418 . S
C42 H21 0.929 . S
C42 C40 1.446 . S
C42 C43 1.332 1_554 S
C43 H23 0.931 . S
C43 C42 1.332 1_556 S
C43 C44 1.267 . S
C44 H12 0.929 . S
C44 C43 1.267 . S
C44 C45 1.251 . S
C45 H15 0.929 . S
C45 N41 1.418 . S
C45 C44 1.251 . S
C46 H13 0.930 . S
C46 C48 1.406 . S
C46 C51 1.261 . S
C47 H14 0.930 . S
C47 N49 1.325 1_565 S
C47 C50 1.357 . S
C48 H16 0.928 . S
C48 C46 1.406 . S
C48 N49 1.261 . S
N49 Co0 2.214 . S
N49 C47 1.325 1_545 S
N49 C48 1.261 . S
C50 H20 0.931 . S
C50 C47 1.357 . S
C50 C51 1.312 1_565 S
C51 H22 0.930 . S
C51 C46 1.261 . S
C51 C50 1.312 1_545 S
C52 O24 1.214 1_554 S
C52 O32 1.234 . S
C53 H25 0.929 . S
C53 C56 1.391 1_545 S
C53 C58 1.391 . S
C54 H26 0.929 . S
C54 C55 1.390 . S
C54 N57 1.391 . S
C55 H27 0.930 1_455 S
C55 C54 1.390 . S
C55 C56 1.392 . S
C56 H28 0.929 1_455 S
C56 C53 1.391 1_565 S
C56 C55 1.392 . S
N57 Co1 2.257 . S
N57 C54 1.391 . S
N57 C58 1.388 1_565 S
C58 H29 0.930 . S
C58 C53 1.391 . S
C58 N57 1.388 1_545 S
Co59 O61 2.143 1_556 S
Co59 O67 2.074 . S
Co59 O70 2.093 . S
Co59 O83 2.097 1_655 S
Co59 N100 2.151 . S
Co59 N108 2.214 . S
Co60 O61 2.160 . S
Co60 O66 2.058 . S
Co60 O76 2.057 . S
Co60 O91 2.037 1_655 S
Co60 N95 2.145 1_655 S
Co60 N116 2.257 1_655 S
O61 Co59 2.143 1_554 S
O61 Co60 2.160 . S
C62 O63 1.278 1_556 S
C62 O70 1.224 . S
O63 C62 1.278 1_554 S
C64 O65 1.245 . S
C64 O76 1.232 . S
O65 C64 1.245 . S
O66 Co60 2.058 . S
O66 C92 1.269 . S
O67 Co59 2.074 . S
O67 C92 1.257 1_556 S
H68 C93 0.930 . S
H69 C99 0.930 . S
O70 Co59 2.093 . S
O70 C62 1.224 . S
H71 C103 0.929 . S
H72 C105 0.930 . S
H73 C106 0.930 1_455 S
H74 C104 0.929 . S
H75 C107 0.928 . S
O76 Co60 2.057 . S
O76 C64 1.232 . S
H77 C96 0.929 . S
H78 C97 0.929 . S
H79 C109 0.931 1_455 S
H80 C101 0.929 . S
H81 C110 0.930 . S
H82 C102 0.931 . S
O83 Co59 2.097 1_455 S
O83 C111 1.214 . S
H84 C112 0.929 . S
H85 C113 0.929 . S
H86 C114 0.930 . S
H87 C115 0.929 . S
H88 C117 0.930 . S
H89 C94 0.930 . S
H90 C98 0.930 . S
O91 Co60 2.037 1_455 S
O91 C111 1.234 1_554 S
C92 O66 1.269 . S
C92 O67 1.257 1_554 S
C93 H68 0.930 . S
C93 C96 1.388 . S
C93 C98 1.418 . S
C94 H89 0.930 . S
C94 C97 1.404 . S
C94 C98 1.353 . S
N95 Co60 2.145 1_455 S
N95 C96 1.397 . S
N95 C97 1.334 . S
C96 H77 0.929 . S
C96 C93 1.388 . S
C96 N95 1.397 . S
C97 H78 0.929 . S
C97 C94 1.404 . S
C97 N95 1.334 . S
C98 H90 0.930 . S
C98 C93 1.418 . S
C98 C94 1.353 . S
C99 H69 0.930 . S
C99 N100 1.330 . S
C99 C101 1.446 . S
N100 Co59 2.151 . S
N100 C99 1.330 . S
N100 C104 1.418 . S
C101 H80 0.929 . S
C101 C99 1.446 . S
C101 C102 1.332 . S
C102 H82 0.931 . S
C102 C101 1.332 . S
C102 C103 1.267 . S
C103 H71 0.929 . S
C103 C102 1.267 . S
C103 C104 1.251 . S
C104 H74 0.929 . S
C104 N100 1.418 . S
C104 C103 1.251 . S
C105 H72 0.930 . S
C105 C107 1.406 . S
C105 C110 1.261 . S
C106 H73 0.930 1_655 S
C106 N108 1.325 . S
C106 C109 1.357 . S
C107 H75 0.928 . S
C107 C105 1.406 . S
C107 N108 1.261 . S
N108 Co59 2.214 . S
N108 C106 1.325 . S
N108 C107 1.261 . S
C109 H79 0.931 1_655 S
C109 C106 1.357 . S
C109 C110 1.312 . S
C110 H81 0.930 . S
C110 C105 1.261 . S
C110 C109 1.312 . S
C111 O83 1.214 . S
C111 O91 1.234 1_556 S
C112 H84 0.929 . S
C112 C115 1.391 1_655 S
C112 C117 1.391 . S
C113 H85 0.929 . S
C113 C114 1.390 . S
C113 N116 1.391 . S
C114 H86 0.930 . S
C114 C113 1.390 . S
C114 C115 1.392 . S
C115 H87 0.929 . S
C115 C112 1.391 1_455 S
C115 C114 1.392 . S
N116 Co60 2.257 1_455 S
N116 C113 1.391 . S
N116 C117 1.388 1_455 S
C117 H88 0.930 . S
C117 C112 1.391 . S
C117 N116 1.388 1_655 S
Co118 O120 2.143 . S
Co118 O126 2.074 . S
Co118 O129 2.093 1_554 S
Co118 O142 2.097 1_554 S
Co118 N159 2.151 . S
Co118 N167 2.214 1_554 S
Co119 O120 2.160 . S
Co119 O125 2.058 . S
Co119 O135 2.057 . S
Co119 O150 2.037 . S
Co119 N154 2.145 . S
Co119 N175 2.257 . S
O120 Co118 2.143 . S
O120 Co119 2.160 . S
C121 O122 1.278 . S
C121 O129 1.224 1_554 S
O122 C121 1.278 . S
C123 O124 1.245 . S
C123 O135 1.232 . S
O124 C123 1.245 . S
O125 Co119 2.058 . S
O125 C151 1.269 . S
O126 Co118 2.074 . S
O126 C151 1.257 . S
H127 C152 0.930 . S
H128 C158 0.930 . S
O129 Co118 2.093 1_556 S
O129 C121 1.224 1_556 S
H130 C162 0.929 . S
H131 C164 0.930 . S
H132 C165 0.930 . S
H133 C163 0.929 . S
H134 C166 0.928 . S
O135 Co119 2.057 . S
O135 C123 1.232 . S
H136 C155 0.929 . S
H137 C156 0.929 . S
H138 C168 0.931 . S
H139 C160 0.929 . S
H140 C169 0.930 . S
H141 C161 0.931 . S
O142 Co118 2.097 1_556 S
O142 C170 1.214 1_556 S
H143 C171 0.934 . S
H144 C172 0.929 . S
H145 C173 0.930 1_545 S
H146 C174 0.929 1_545 S
H147 C176 0.930 . S
H148 C153 0.930 . S
H149 C157 0.930 . S
O150 Co119 2.037 . S
O150 C170 1.234 . S
C151 O125 1.269 . S
C151 O126 1.257 . S
C152 H127 0.930 . S
C152 C155 1.388 . S
C152 C157 1.418 . S
C153 H148 0.930 . S
C153 C156 1.404 . S
C153 C157 1.353 . S
N154 Co119 2.145 . S
N154 C155 1.397 . S
N154 C156 1.334 . S
C155 H136 0.929 . S
C155 C152 1.388 . S
C155 N154 1.397 . S
C156 H137 0.929 . S
C156 C153 1.404 . S
C156 N154 1.334 . S
C157 H149 0.930 . S
C157 C152 1.418 . S
C157 C153 1.353 . S
C158 H128 0.930 . S
C158 N159 1.330 . S
C158 C160 1.446 . S
N159 Co118 2.151 . S
N159 C158 1.330 . S
N159 C163 1.418 1_554 S
C160 H139 0.929 . S
C160 C158 1.446 . S
C160 C161 1.332 . S
C161 H141 0.931 . S
C161 C160 1.332 . S
C161 C162 1.267 1_554 S
C162 H130 0.929 . S
C162 C161 1.267 1_556 S
C162 C163 1.251 . S
C163 H133 0.929 . S
C163 N159 1.418 1_556 S
C163 C162 1.251 . S
C164 H131 0.930 . S
C164 C166 1.406 . S
C164 C169 1.261 . S
C165 H132 0.930 . S
C165 N167 1.325 . S
C165 C168 1.357 . S
C166 H134 0.928 . S
C166 C164 1.406 . S
C166 N167 1.261 . S
N167 Co118 2.214 1_556 S
N167 C165 1.325 . S
N167 C166 1.261 . S
C168 H138 0.931 . S
C168 C165 1.357 . S
C168 C169 1.312 . S
C169 H140 0.930 . S
C169 C164 1.261 . S
C169 C168 1.312 . S
C170 O142 1.214 1_554 S
C170 O150 1.234 . S
C171 H143 0.934 . S
C171 C174 1.391 . S
C171 C176 1.391 . S
C172 H144 0.929 . S
C172 C173 1.390 . S
C172 N175 1.391 . S
C173 H145 0.930 1_565 S
C173 C172 1.390 . S
C173 C174 1.392 . S
C174 H146 0.929 1_565 S
C174 C171 1.391 . S
C174 C173 1.392 . S
N175 Co119 2.257 . S
N175 C172 1.391 . S
N175 C176 1.388 . S
C176 H147 0.930 . S
C176 C171 1.391 . S
C176 N175 1.388 . S
Co177 O179 2.143 1_554 S
Co177 O185 2.074 1_554 S
Co177 O188 2.093 . S
Co177 O201 2.097 . S
Co177 N218 2.151 . S
Co177 N226 2.214 . S
Co178 O179 2.160 . S
Co178 O184 2.058 . S
Co178 O194 2.057 . S
Co178 O209 2.037 1_565 S
Co178 N213 2.145 1_565 S
Co178 N234 2.257 . S
O179 Co177 2.143 1_556 S
O179 Co178 2.160 . S
C180 O181 1.278 1_554 S
C180 O188 1.224 . S
O181 C180 1.278 1_556 S
C182 O183 1.245 . S
C182 O194 1.232 . S
O183 C182 1.245 . S
O184 Co178 2.058 . S
O184 C210 1.269 . S
O185 Co177 2.074 1_556 S
O185 C210 1.257 . S
H186 C211 0.930 . S
H187 C217 0.930 . S
O188 Co177 2.093 . S
O188 C180 1.224 . S
H189 C221 0.929 . S
H190 C223 0.930 . S
H191 C224 0.930 1_545 S
H192 C222 0.929 . S
H193 C225 0.928 . S
O194 Co178 2.057 . S
O194 C182 1.232 . S
H195 C214 0.929 . S
H196 C215 0.929 . S
H197 C227 0.925 1_545 S
H198 C219 0.929 . S
H199 C228 0.930 . S
H200 C220 0.931 . S
O201 Co177 2.097 . S
O201 C229 1.214 1_564 S
H202 C230 0.929 . S
H203 C231 0.929 . S
H204 C232 0.930 1_455 S
H205 C233 0.929 1_455 S
H206 C235 0.930 . S
H207 C212 0.930 . S
H208 C216 0.930 . S
O209 Co178 2.037 1_545 S
O209 C229 1.234 . S
C210 O184 1.269 . S
C210 O185 1.257 . S
C211 H186 0.930 . S
C211 C214 1.388 . S
C211 C216 1.418 . S
C212 H207 0.930 . S
C212 C215 1.404 . S
C212 C216 1.353 . S
N213 Co178 2.145 1_545 S
N213 C214 1.397 . S
N213 C215 1.334 . S
C214 H195 0.929 . S
C214 C211 1.388 . S
C214 N213 1.397 . S
C215 H196 0.929 . S
C215 C212 1.404 . S
C215 N213 1.334 . S
C216 H208 0.930 . S
C216 C211 1.418 . S
C216 C212 1.353 . S
C217 H187 0.930 . S
C217 N218 1.330 . S
C217 C219 1.446 . S
N218 Co177 2.151 . S
N218 C217 1.330 . S
N218 C222 1.418 . S
C219 H198 0.929 . S
C219 C217 1.446 . S
C219 C220 1.332 . S
C220 H200 0.931 . S
C220 C219 1.332 . S
C220 C221 1.267 . S
C221 H189 0.929 . S
C221 C220 1.267 . S
C221 C222 1.251 . S
C222 H192 0.929 . S
C222 N218 1.418 . S
C222 C221 1.251 . S
C223 H190 0.930 . S
C223 C225 1.406 . S
C223 C228 1.261 . S
C224 H191 0.930 1_565 S
C224 N226 1.325 . S
C224 C227 1.360 . S
C225 H193 0.928 . S
C225 C223 1.406 . S
C225 N226 1.261 . S
N226 Co177 2.214 . S
N226 C224 1.325 . S
N226 C225 1.261 . S
C227 H197 0.925 1_565 S
C227 C224 1.360 . S
C227 C228 1.316 . S
C228 H199 0.930 . S
C228 C223 1.261 . S
C228 C227 1.316 . S
C229 O201 1.214 1_546 S
C229 O209 1.234 . S
C230 H202 0.929 . S
C230 C233 1.391 . S
C230 C235 1.391 . S
C231 H203 0.929 . S
C231 C232 1.390 . S
C231 N234 1.391 1_545 S
C232 H204 0.930 1_655 S
C232 C231 1.390 . S
C232 C233 1.392 1_545 S
C233 H205 0.929 1_655 S
C233 C230 1.391 . S
C233 C232 1.392 1_565 S
N234 Co178 2.257 . S
N234 C231 1.391 1_565 S
N234 C235 1.388 . S
C235 H206 0.930 . S
C235 C230 1.391 . S
C235 N234 1.388 . S
Co236 O238 2.143 1_554 S
Co236 O244 2.074 1_554 S
Co236 O247 2.093 . S
Co236 O260 2.097 . S
Co236 N277 2.153 . S
Co236 N285 2.214 . S
Co237 O238 2.160 . S
Co237 O243 2.058 . S
Co237 O253 2.057 . S
Co237 O268 2.037 1_455 S
Co237 N272 2.145 1_455 S
Co237 N293 2.257 1_455 S
O238 Co236 2.143 1_556 S
O238 Co237 2.160 . S
C239 O240 1.278 1_554 S
C239 O247 1.224 . S
O240 C239 1.278 1_556 S
C241 O242 1.245 . S
C241 O253 1.232 . S
O242 C241 1.245 . S
O243 Co237 2.058 . S
O243 C269 1.269 . S
O244 Co236 2.074 1_556 S
O244 C269 1.257 . S
H245 C270 0.930 . S
H246 C276 0.930 . S
O247 Co236 2.093 . S
O247 C239 1.224 . S
H248 C280 0.929 . S
H249 C282 0.930 . S
H250 C283 0.930 1_655 S
H251 C281 0.929 . S
H252 C284 0.928 . S
O253 Co237 2.057 . S
O253 C241 1.232 . S
H254 C273 0.929 . S
H255 C274 0.929 . S
H256 C286 0.931 1_655 S
H257 C278 0.929 . S
H258 C287 0.930 . S
H259 C279 0.931 . S
O260 Co236 2.097 . S
O260 C288 1.214 1_455 S
H261 C289 0.929 . S
H262 C290 0.929 . S
H263 C291 0.930 . S
H264 C292 0.929 . S
H265 C294 0.930 . S
H266 C271 0.930 . S
H267 C275 0.930 . S
O268 Co237 2.037 1_655 S
O268 C288 1.234 1_556 S
C269 O243 1.269 . S
C269 O244 1.257 . S
C270 H245 0.930 . S
C270 C273 1.388 . S
C270 C275 1.418 . S
C271 H266 0.930 . S
C271 C274 1.404 . S
C271 C275 1.353 . S
N272 Co237 2.145 1_655 S
N272 C273 1.397 . S
N272 C274 1.334 . S
C273 H254 0.929 . S
C273 C270 1.388 . S
C273 N272 1.397 . S
C274 H255 0.929 . S
C274 C271 1.404 . S
C274 N272 1.334 . S
C275 H267 0.930 . S
C275 C270 1.418 . S
C275 C271 1.353 . S
C276 H246 0.930 . S
C276 N277 1.324 1_556 S
C276 C278 1.446 . S
N277 Co236 2.153 . S
N277 C276 1.324 1_554 S
N277 C281 1.425 . S
C278 H257 0.929 . S
C278 C276 1.446 . S
C278 C279 1.329 1_556 S
C279 H259 0.931 . S
C279 C278 1.329 1_554 S
C279 C280 1.269 . S
C280 H248 0.929 . S
C280 C279 1.269 . S
C280 C281 1.251 . S
C281 H251 0.929 . S
C281 N277 1.425 . S
C281 C280 1.251 . S
C282 H249 0.930 . S
C282 C284 1.406 . S
C282 C287 1.261 . S
C283 H250 0.930 1_455 S
C283 N285 1.325 . S
C283 C286 1.357 . S
C284 H252 0.928 . S
C284 C282 1.406 . S
C284 N285 1.261 . S
N285 Co236 2.214 . S
N285 C283 1.325 . S
N285 C284 1.261 . S
C286 H256 0.931 1_455 S
C286 C283 1.357 . S
C286 C287 1.312 . S
C287 H258 0.930 . S
C287 C282 1.261 . S
C287 C286 1.312 . S
C288 O260 1.214 1_655 S
C288 O268 1.234 1_554 S
C289 H261 0.929 . S
C289 C292 1.391 1_455 S
C289 C294 1.391 . S
C290 H262 0.929 . S
C290 C291 1.390 . S
C290 N293 1.391 . S
C291 H263 0.930 . S
C291 C290 1.390 . S
C291 C292 1.392 . S
C292 H264 0.929 . S
C292 C289 1.391 1_655 S
C292 C291 1.392 . S
N293 Co237 2.257 1_655 S
N293 C290 1.391 . S
N293 C294 1.388 1_655 S
C294 H265 0.930 . S
C294 C289 1.391 . S
C294 N293 1.388 1_455 S
Co295 O297 2.143 . S
Co295 O303 2.074 . S
Co295 O306 2.093 . S
Co295 O319 2.097 . S
Co295 N336 2.151 1_556 S
Co295 N344 2.214 . S
Co296 O297 2.160 . S
Co296 O302 2.058 . S
Co296 O312 2.057 . S
Co296 O327 2.037 . S
Co296 N331 2.145 . S
Co296 N352 2.257 . S
O297 Co295 2.143 . S
O297 Co296 2.160 . S
C298 O299 1.278 . S
C298 O306 1.224 . S
O299 C298 1.278 . S
C300 O301 1.245 . S
C300 O312 1.232 1_554 S
O301 C300 1.245 . S
O302 Co296 2.058 . S
O302 C328 1.269 . S
O303 Co295 2.074 . S
O303 C328 1.257 . S
H304 C329 0.930 1_655 S
H305 C335 0.930 . S
O306 Co295 2.093 . S
O306 C298 1.224 . S
H307 C339 0.929 . S
H308 C341 0.928 1_554 S
H309 C342 0.930 . S
H310 C340 0.929 . S
H311 C343 0.928 1_554 S
O312 Co296 2.057 . S
O312 C300 1.232 1_556 S
H313 C332 0.929 . S
H314 C333 0.929 . S
H315 C345 0.931 . S
H316 C337 0.929 . S
H317 C346 0.930 . S
H318 C338 0.931 . S
O319 Co295 2.097 . S
O319 C347 1.214 . S
H320 C348 0.929 . S
H321 C349 0.929 . S
H322 C350 0.930 . S
H323 C351 0.929 . S
H324 C353 0.930 . S
H325 C330 0.930 1_565 S
H326 C334 0.930 1_565 S
O327 Co296 2.037 . S
O327 C347 1.234 . S
C328 O302 1.269 . S
C328 O303 1.257 . S
C329 H304 0.930 1_455 S
C329 C332 1.388 . S
C329 C334 1.418 . S
C330 H325 0.930 1_545 S
C330 C333 1.404 . S
C330 C334 1.353 . S
N331 Co296 2.145 . S
N331 C332 1.397 . S
N331 C333 1.334 . S
C332 H313 0.929 . S
C332 C329 1.388 . S
C332 N331 1.397 . S
C333 H314 0.929 . S
C333 C330 1.404 . S
C333 N331 1.334 . S
C334 H326 0.930 1_545 S
C334 C329 1.418 . S
C334 C330 1.353 . S
C335 H305 0.930 . S
C335 N336 1.330 . S
C335 C337 1.446 . S
N336 Co295 2.151 1_554 S
N336 C335 1.330 . S
N336 C340 1.418 . S
C337 H316 0.929 . S
C337 C335 1.446 . S
C337 C338 1.332 . S
C338 H318 0.931 . S
C338 C337 1.332 . S
C338 C339 1.267 . S
C339 H307 0.929 . S
C339 C338 1.267 . S
C339 C340 1.251 . S
C340 H310 0.929 . S
C340 N336 1.418 . S
C340 C339 1.251 . S
C341 H308 0.928 1_556 S
C341 C343 1.406 . S
C341 C346 1.261 . S
C342 H309 0.930 . S
C342 N344 1.325 . S
C342 C345 1.357 . S
C343 H311 0.928 1_556 S
C343 C341 1.406 . S
C343 N344 1.261 . S
N344 Co295 2.214 . S
N344 C342 1.325 . S
N344 C343 1.261 . S
C345 H315 0.931 . S
C345 C342 1.357 . S
C345 C346 1.312 . S
C346 H317 0.930 . S
C346 C341 1.261 . S
C346 C345 1.312 . S
C347 O319 1.214 . S
C347 O327 1.234 . S
C348 H320 0.929 . S
C348 C351 1.391 . S
C348 C353 1.391 . S
C349 H321 0.929 . S
C349 C350 1.390 . S
C349 N352 1.391 . S
C350 H322 0.930 . S
C350 C349 1.390 . S
C350 C351 1.392 . S
C351 H323 0.929 . S
C351 C348 1.391 . S
C351 C350 1.392 . S
N352 Co296 2.257 . S
N352 C349 1.391 . S
N352 C353 1.388 . S
C353 H324 0.930 . S
C353 C348 1.391 . S
C353 N352 1.388 . S
Co354 O356 2.143 . S
Co354 O362 2.074 . S
Co354 O365 2.093 1_455 S
Co354 O378 2.097 1_455 S
Co354 N395 2.151 . S
Co354 N403 2.214 . S
Co355 O356 2.160 1_655 S
Co355 O361 2.058 1_655 S
Co355 O371 2.057 1_655 S
Co355 O386 2.037 . S
Co355 N390 2.145 . S
Co355 N411 2.257 . S
O356 Co354 2.143 . S
O356 Co355 2.160 1_455 S
C357 O358 1.278 . S
C357 O365 1.224 . S
O358 C357 1.278 . S
C359 O360 1.245 . S
C359 O371 1.232 . S
O360 C359 1.245 . S
O361 Co355 2.058 1_455 S
O361 C387 1.269 . S
O362 Co354 2.074 . S
O362 C387 1.257 . S
H363 C388 0.930 1_565 S
H364 C394 0.930 . S
O365 Co354 2.093 1_655 S
O365 C357 1.224 . S
H366 C398 0.929 . S
H367 C400 0.930 . S
H368 C401 0.930 . S
H369 C399 0.929 . S
H370 C402 0.928 . S
O371 Co355 2.057 1_455 S
O371 C359 1.232 . S
H372 C391 0.929 . S
H373 C392 0.929 . S
H374 C404 0.931 . S
H375 C396 0.929 . S
H376 C405 0.930 . S
H377 C397 0.931 . S
O378 Co354 2.097 1_655 S
O378 C406 1.214 . S
H379 C407 0.929 . S
H380 C408 0.929 . S
H381 C409 0.930 . S
H382 C410 0.929 . S
H383 C412 0.930 . S
H384 C389 0.930 . S
H385 C393 0.930 1_565 S
O386 Co355 2.037 . S
O386 C406 1.234 . S
C387 O361 1.269 . S
C387 O362 1.257 . S
C388 H363 0.930 1_545 S
C388 C391 1.388 . S
C388 C393 1.418 . S
C389 H384 0.930 . S
C389 C392 1.404 . S
C389 C393 1.353 . S
N390 Co355 2.145 . S
N390 C391 1.397 . S
N390 C392 1.334 . S
C391 H372 0.929 . S
C391 C388 1.388 . S
C391 N390 1.397 . S
C392 H373 0.929 . S
C392 C389 1.404 . S
C392 N390 1.334 . S
C393 H385 0.930 1_545 S
C393 C388 1.418 . S
C393 C389 1.353 . S
C394 H364 0.930 . S
C394 N395 1.330 . S
C394 C396 1.446 . S
N395 Co354 2.151 . S
N395 C394 1.330 . S
N395 C399 1.418 . S
C396 H375 0.929 . S
C396 C394 1.446 . S
C396 C397 1.332 . S
C397 H377 0.931 . S
C397 C396 1.332 . S
C397 C398 1.267 . S
C398 H366 0.929 . S
C398 C397 1.267 . S
C398 C399 1.251 . S
C399 H369 0.929 . S
C399 N395 1.418 . S
C399 C398 1.251 . S
C400 H367 0.930 . S
C400 C402 1.406 . S
C400 C405 1.261 . S
C401 H368 0.930 . S
C401 N403 1.325 . S
C401 C404 1.357 . S
C402 H370 0.928 . S
C402 C400 1.406 . S
C402 N403 1.261 . S
N403 Co354 2.214 . S
N403 C401 1.325 . S
N403 C402 1.261 . S
C404 H374 0.931 . S
C404 C401 1.357 . S
C404 C405 1.312 . S
C405 H376 0.930 . S
C405 C400 1.261 . S
C405 C404 1.312 . S
C406 O378 1.214 . S
C406 O386 1.234 . S
C407 H379 0.929 . S
C407 C410 1.391 . S
C407 C412 1.391 . S
C408 H380 0.929 . S
C408 C409 1.390 . S
C408 N411 1.391 . S
C409 H381 0.930 . S
C409 C408 1.390 . S
C409 C410 1.392 . S
C410 H382 0.929 . S
C410 C407 1.391 . S
C410 C409 1.392 . S
N411 Co355 2.257 . S
N411 C408 1.391 . S
N411 C412 1.388 . S
C412 H383 0.930 . S
C412 C407 1.391 . S
C412 N411 1.388 . S
Co413 O415 2.143 . S
Co413 O421 2.074 . S
Co413 O424 2.093 . S
Co413 O437 2.097 . S
Co413 N454 2.151 . S
Co413 N462 2.214 . S
Co414 O415 2.160 . S
Co414 O420 2.058 . S
Co414 O430 2.057 . S
Co414 O445 2.037 . S
Co414 N449 2.145 . S
Co414 N470 2.257 . S
O415 Co413 2.143 . S
O415 Co414 2.160 . S
C416 O417 1.278 . S
C416 O424 1.224 . S
O417 C416 1.278 . S
C418 O419 1.245 . S
C418 O430 1.232 . S
O419 C418 1.245 . S
O420 Co414 2.058 . S
O420 C446 1.269 . S
O421 Co413 2.074 . S
O421 C446 1.257 . S
H422 C447 0.930 . S
H423 C453 0.930 . S
O424 Co413 2.093 . S
O424 C416 1.224 . S
H425 C457 0.929 . S
H426 C459 0.930 . S
H427 C460 0.930 . S
H428 C458 0.929 . S
H429 C461 0.928 . S
O430 Co414 2.057 . S
O430 C418 1.232 . S
H431 C450 0.929 . S
H432 C451 0.929 . S
H433 C463 0.931 . S
H434 C455 0.929 . S
H435 C464 0.930 . S
H436 C456 0.931 . S
O437 Co413 2.097 . S
O437 C465 1.214 . S
H438 C466 0.929 . S
H439 C467 0.929 . S
H440 C468 0.930 . S
H441 C469 0.929 . S
H442 C471 0.930 . S
H443 C448 0.930 . S
H444 C452 0.930 . S
O445 Co414 2.037 . S
O445 C465 1.234 . S
C446 O420 1.269 . S
C446 O421 1.257 . S
C447 H422 0.930 . S
C447 C450 1.388 . S
C447 C452 1.418 . S
C448 H443 0.930 . S
C448 C451 1.404 . S
C448 C452 1.353 . S
N449 Co414 2.145 . S
N449 C450 1.397 . S
N449 C451 1.334 . S
C450 H431 0.929 . S
C450 C447 1.388 . S
C450 N449 1.397 . S
C451 H432 0.929 . S
C451 C448 1.404 . S
C451 N449 1.334 . S
C452 H444 0.930 . S
C452 C447 1.418 . S
C452 C448 1.353 . S
C453 H423 0.930 . S
C453 N454 1.330 . S
C453 C455 1.446 . S
N454 Co413 2.151 . S
N454 C453 1.330 . S
N454 C458 1.418 . S
C455 H434 0.929 . S
C455 C453 1.446 . S
C455 C456 1.332 . S
C456 H436 0.931 . S
C456 C455 1.332 . S
C456 C457 1.267 . S
C457 H425 0.929 . S
C457 C456 1.267 . S
C457 C458 1.251 . S
C458 H428 0.929 . S
C458 N454 1.418 . S
C458 C457 1.251 . S
C459 H426 0.930 . S
C459 C461 1.406 . S
C459 C464 1.261 . S
C460 H427 0.930 . S
C460 N462 1.325 . S
C460 C463 1.357 . S
C461 H429 0.928 . S
C461 C459 1.406 . S
C461 N462 1.261 . S
N462 Co413 2.214 . S
N462 C460 1.325 . S
N462 C461 1.261 . S
C463 H433 0.931 . S
C463 C460 1.357 . S
C463 C464 1.312 . S
C464 H435 0.930 . S
C464 C459 1.261 . S
C464 C463 1.312 . S
C465 O437 1.214 . S
C465 O445 1.234 . S
C466 H438 0.929 . S
C466 C469 1.391 . S
C466 C471 1.391 . S
C467 H439 0.929 . S
C467 C468 1.390 . S
C467 N470 1.391 . S
C468 H440 0.930 . S
C468 C467 1.390 . S
C468 C469 1.392 . S
C469 H441 0.929 . S
C469 C466 1.391 . S
C469 C468 1.392 . S
N470 Co414 2.257 . S
N470 C467 1.391 . S
N470 C471 1.388 . S
C471 H442 0.930 . S
C471 C466 1.391 . S
C471 N470 1.388 . S
Co472 O474 2.143 . S
Co472 O480 2.074 . S
Co472 O483 2.093 1_565 S
Co472 O496 2.097 1_565 S
Co472 N513 2.151 . S
Co472 N521 2.214 . S
Co473 O474 2.160 1_545 S
Co473 O479 2.058 1_545 S
Co473 O489 2.057 1_545 S
Co473 O504 2.037 . S
Co473 N508 2.145 . S
Co473 N529 2.257 . S
O474 Co472 2.143 . S
O474 Co473 2.160 1_565 S
C475 O476 1.278 . S
C475 O483 1.224 . S
O476 C475 1.278 . S
C477 O478 1.245 . S
C477 O489 1.232 . S
O478 C477 1.245 . S
O479 Co473 2.058 1_565 S
O479 C505 1.269 . S
O480 Co472 2.074 . S
O480 C505 1.257 . S
H481 C506 0.930 . S
H482 C512 0.930 . S
O483 Co472 2.093 1_545 S
O483 C475 1.224 . S
H484 C516 0.929 . S
H485 C518 0.930 . S
H486 C519 0.930 . S
H487 C517 0.929 . S
H488 C520 0.928 . S
O489 Co473 2.057 1_565 S
O489 C477 1.232 . S
H490 C509 0.929 . S
H491 C510 0.929 . S
H492 C522 0.931 . S
H493 C514 0.929 . S
H494 C523 0.930 . S
H495 C515 0.931 . S
O496 Co472 2.097 1_545 S
O496 C524 1.214 . S
H497 C525 0.929 . S
H498 C526 0.929 . S
H499 C527 0.930 . S
H500 C528 0.929 . S
H501 C530 0.930 . S
H502 C507 0.930 . S
H503 C511 0.930 . S
O504 Co473 2.037 . S
O504 C524 1.234 . S
C505 O479 1.269 . S
C505 O480 1.257 . S
C506 H481 0.930 . S
C506 C509 1.388 . S
C506 C511 1.418 . S
C507 H502 0.930 . S
C507 C510 1.404 . S
C507 C511 1.353 . S
N508 Co473 2.145 . S
N508 C509 1.397 . S
N508 C510 1.334 . S
C509 H490 0.929 . S
C509 C506 1.388 . S
C509 N508 1.397 . S
C510 H491 0.929 . S
C510 C507 1.404 . S
C510 N508 1.334 . S
C511 H503 0.930 . S
C511 C506 1.418 . S
C511 C507 1.353 . S
C512 H482 0.930 . S
C512 N513 1.330 . S
C512 C514 1.446 . S
N513 Co472 2.151 . S
N513 C512 1.330 . S
N513 C517 1.418 . S
C514 H493 0.929 . S
C514 C512 1.446 . S
C514 C515 1.332 . S
C515 H495 0.931 . S
C515 C514 1.332 . S
C515 C516 1.267 . S
C516 H484 0.929 . S
C516 C515 1.267 . S
C516 C517 1.251 . S
C517 H487 0.929 . S
C517 N513 1.418 . S
C517 C516 1.251 . S
C518 H485 0.930 . S
C518 C520 1.406 . S
C518 C523 1.261 . S
C519 H486 0.930 . S
C519 N521 1.325 . S
C519 C522 1.357 . S
C520 H488 0.928 . S
C520 C518 1.406 . S
C520 N521 1.261 . S
N521 Co472 2.214 . S
N521 C519 1.325 . S
N521 C520 1.261 . S
C522 H492 0.931 . S
C522 C519 1.357 . S
C522 C523 1.312 . S
C523 H494 0.930 . S
C523 C518 1.261 . S
C523 C522 1.312 . S
C524 O496 1.214 . S
C524 O504 1.234 . S
C525 H497 0.929 . S
C525 C528 1.391 . S
C525 C530 1.391 . S
C526 H498 0.929 . S
C526 C527 1.390 . S
C526 N529 1.391 . S
C527 H499 0.930 . S
C527 C526 1.390 . S
C527 C528 1.392 . S
C528 H500 0.929 . S
C528 C525 1.391 . S
C528 C527 1.392 . S
N529 Co473 2.257 . S
N529 C526 1.391 . S
N529 C530 1.388 . S
C530 H501 0.930 . S
C530 C525 1.391 . S
C530 N529 1.388 . S
Co531 O533 2.143 . S
Co531 O539 2.074 . S
Co531 O542 2.093 . S
Co531 O555 2.097 . S
Co531 N572 2.151 . S
Co531 N580 2.214 . S
Co532 O533 2.160 . S
Co532 O538 2.058 . S
Co532 O548 2.057 . S
Co532 O563 2.037 . S
Co532 N567 2.145 . S
Co532 N588 2.257 . S
O533 Co531 2.143 . S
O533 Co532 2.160 . S
C534 O535 1.278 . S
C534 O542 1.224 . S
O535 C534 1.278 . S
C536 O537 1.245 . S
C536 O548 1.232 . S
O537 C536 1.245 . S
O538 Co532 2.058 . S
O538 C564 1.269 . S
O539 Co531 2.074 . S
O539 C564 1.257 . S
H540 C565 0.930 . S
H541 C571 0.930 . S
O542 Co531 2.093 . S
O542 C534 1.224 . S
H543 C575 0.929 1_655 S
H544 C577 0.930 . S
H545 C578 0.930 . S
H546 C576 0.929 . S
H547 C579 0.928 . S
O548 Co532 2.057 . S
O548 C536 1.232 . S
H549 C568 0.929 . S
H550 C569 0.929 . S
H551 C581 0.931 . S
H552 C573 0.929 . S
H553 C582 0.930 . S
H554 C574 0.931 1_655 S
O555 Co531 2.097 . S
O555 C583 1.214 . S
H556 C584 0.929 . S
H557 C585 0.929 . S
H558 C586 0.930 . S
H559 C587 0.929 . S
H560 C589 0.930 . S
H561 C566 0.930 . S
H562 C570 0.930 . S
O563 Co532 2.037 . S
O563 C583 1.234 . S
C564 O538 1.269 . S
C564 O539 1.257 . S
C565 H540 0.930 . S
C565 C568 1.388 . S
C565 C570 1.418 . S
C566 H561 0.930 . S
C566 C569 1.404 . S
C566 C570 1.353 . S
N567 Co532 2.145 . S
N567 C568 1.397 . S
N567 C569 1.334 . S
C568 H549 0.929 . S
C568 C565 1.388 . S
C568 N567 1.397 . S
C569 H550 0.929 . S
C569 C566 1.404 . S
C569 N567 1.334 . S
C570 H562 0.930 . S
C570 C565 1.418 . S
C570 C566 1.353 . S
C571 H541 0.930 . S
C571 N572 1.330 . S
C571 C573 1.446 1_545 S
N572 Co531 2.151 . S
N572 C571 1.330 . S
N572 C576 1.418 . S
C573 H552 0.929 . S
C573 C571 1.446 1_565 S
C573 C574 1.332 . S
C574 H554 0.931 1_455 S
C574 C573 1.332 . S
C574 C575 1.267 1_565 S
C575 H543 0.929 1_455 S
C575 C574 1.267 1_545 S
C575 C576 1.251 . S
C576 H546 0.929 . S
C576 N572 1.418 . S
C576 C575 1.251 . S
C577 H544 0.930 . S
C577 C579 1.406 . S
C577 C582 1.261 . S
C578 H545 0.930 . S
C578 N580 1.325 . S
C578 C581 1.357 . S
C579 H547 0.928 . S
C579 C577 1.406 . S
C579 N580 1.261 . S
N580 Co531 2.214 . S
N580 C578 1.325 . S
N580 C579 1.261 . S
C581 H551 0.931 . S
C581 C578 1.357 . S
C581 C582 1.312 . S
C582 H553 0.930 . S
C582 C577 1.261 . S
C582 C581 1.312 . S
C583 O555 1.214 . S
C583 O563 1.234 . S
C584 H556 0.929 . S
C584 C587 1.391 . S
C584 C589 1.391 . S
C585 H557 0.929 . S
C585 C586 1.390 . S
C585 N588 1.391 . S
C586 H558 0.930 . S
C586 C585 1.390 . S
C586 C587 1.392 . S
C587 H559 0.929 . S
C587 C584 1.391 . S
C587 C586 1.392 . S
N588 Co532 2.257 . S
N588 C585 1.391 . S
N588 C589 1.388 . S
C589 H560 0.930 . S
C589 C584 1.391 . S
C589 N588 1.388 . S
Co590 O592 2.143 . S
Co590 O598 2.074 1_545 S
Co590 O601 2.093 . S
Co590 O614 2.097 . S
Co590 N631 2.151 . S
Co590 N639 2.214 1_545 S
Co591 O592 2.160 . S
Co591 O597 2.058 1_545 S
Co591 O607 2.057 . S
Co591 O622 2.037 1_545 S
Co591 N626 2.145 1_545 S
Co591 N647 2.257 . S
O592 Co590 2.143 . S
O592 Co591 2.160 . S
C593 O594 1.278 . S
C593 O601 1.224 . S
O594 C593 1.278 . S
C595 O596 1.245 . S
C595 O607 1.232 . S
O596 C595 1.245 . S
O597 Co591 2.058 1_565 S
O597 C623 1.269 . S
O598 Co590 2.074 1_565 S
O598 C623 1.257 . S
H599 C624 0.930 . S
H600 C630 0.930 . S
O601 Co590 2.093 . S
O601 C593 1.224 . S
H602 C634 0.929 . S
H603 C636 0.930 . S
H604 C637 0.930 . S
H605 C635 0.929 . S
H606 C638 0.928 . S
O607 Co591 2.057 . S
O607 C595 1.232 . S
H608 C627 0.929 . S
H609 C628 0.929 1_545 S
H610 C640 0.931 . S
H611 C632 0.929 . S
H612 C641 0.930 . S
H613 C633 0.931 . S
O614 Co590 2.097 . S
O614 C642 1.214 . S
H615 C643 0.929 . S
H616 C644 0.929 . S
H617 C645 0.930 . S
H618 C646 0.929 . S
H619 C648 0.930 . S
H620 C625 0.930 . S
H621 C629 0.930 . S
O622 Co591 2.037 1_565 S
O622 C642 1.234 1_565 S
C623 O597 1.269 . S
C623 O598 1.257 . S
C624 H599 0.930 . S
C624 C627 1.388 . S
C624 C629 1.418 . S
C625 H620 0.930 . S
C625 C628 1.404 . S
C625 C629 1.353 . S
N626 Co591 2.145 1_565 S
N626 C627 1.397 . S
N626 C628 1.334 . S
C627 H608 0.929 . S
C627 C624 1.388 . S
C627 N626 1.397 . S
C628 H609 0.929 1_565 S
C628 C625 1.404 . S
C628 N626 1.334 . S
C629 H621 0.930 . S
C629 C624 1.418 . S
C629 C625 1.353 . S
C630 H600 0.930 . S
C630 N631 1.330 . S
C630 C632 1.446 1_655 S
N631 Co590 2.151 . S
N631 C630 1.330 . S
N631 C635 1.418 1_545 S
C632 H611 0.929 . S
C632 C630 1.446 1_455 S
C632 C633 1.332 . S
C633 H613 0.931 . S
C633 C632 1.332 . S
C633 C634 1.267 1_445 S
C634 H602 0.929 . S
C634 C633 1.267 1_665 S
C634 C635 1.251 . S
C635 H605 0.929 . S
C635 N631 1.418 1_565 S
C635 C634 1.251 . S
C636 H603 0.930 . S
C636 C638 1.406 1_565 S
C636 C641 1.261 . S
C637 H604 0.930 . S
C637 N639 1.325 . S
C637 C640 1.357 . S
C638 H606 0.928 . S
C638 C636 1.406 1_545 S
C638 N639 1.261 1_545 S
N639 Co590 2.214 1_565 S
N639 C637 1.325 . S
N639 C638 1.261 1_565 S
C640 H610 0.931 . S
C640 C637 1.357 . S
C640 C641 1.312 . S
C641 H612 0.930 . S
C641 C636 1.261 . S
C641 C640 1.312 . S
C642 O614 1.214 . S
C642 O622 1.234 1_545 S
C643 H615 0.929 . S
C643 C646 1.391 . S
C643 C648 1.391 . S
C644 H616 0.929 . S
C644 C645 1.390 . S
C644 N647 1.391 . S
C645 H617 0.930 . S
C645 C644 1.390 . S
C645 C646 1.392 . S
C646 H618 0.929 . S
C646 C643 1.391 . S
C646 C645 1.392 . S
N647 Co591 2.257 . S
N647 C644 1.391 . S
N647 C648 1.388 . S
C648 H619 0.930 . S
C648 C643 1.391 . S
C648 N647 1.388 . S
Co649 O651 2.143 . S
Co649 O657 2.074 . S
Co649 O660 2.093 1_655 S
Co649 O673 2.097 . S
Co649 N690 2.151 . S
Co649 N698 2.214 . S
Co650 O651 2.160 . S
Co650 O656 2.058 . S
Co650 O666 2.057 . S
Co650 O681 2.037 . S
Co650 N685 2.145 . S
Co650 N706 2.257 1_655 S
O651 Co649 2.143 . S
O651 Co650 2.160 . S
C652 O653 1.278 . S
C652 O660 1.224 . S
O653 C652 1.278 . S
C654 O655 1.245 . S
C654 O666 1.232 . S
O655 C654 1.245 . S
O656 Co650 2.058 . S
O656 C682 1.269 . S
O657 Co649 2.074 . S
O657 C682 1.257 . S
H658 C683 0.930 . S
H659 C689 0.930 . S
O660 Co649 2.093 1_455 S
O660 C652 1.224 . S
H661 C693 0.929 . S
H662 C695 0.930 . S
H663 C696 0.930 . S
H664 C694 0.929 . S
H665 C697 0.928 1_455 S
O666 Co650 2.057 . S
O666 C654 1.232 . S
H667 C686 0.929 . S
H668 C687 0.929 . S
H669 C699 0.931 . S
H670 C691 0.929 . S
H671 C700 0.929 . S
H672 C692 0.931 . S
O673 Co649 2.097 . S
O673 C701 1.214 . S
H674 C702 0.929 . S
H675 C703 0.929 . S
H676 C704 0.930 . S
H677 C705 0.929 . S
H678 C707 0.930 . S
H679 C684 0.930 . S
H680 C688 0.930 . S
O681 Co650 2.037 . S
O681 C701 1.234 . S
C682 O656 1.269 . S
C682 O657 1.257 . S
C683 H658 0.930 . S
C683 C686 1.388 . S
C683 C688 1.418 . S
C684 H679 0.930 . S
C684 C687 1.404 . S
C684 C688 1.353 . S
N685 Co650 2.145 . S
N685 C686 1.397 . S
N685 C687 1.334 . S
C686 H667 0.929 . S
C686 C683 1.388 . S
C686 N685 1.397 . S
C687 H668 0.929 . S
C687 C684 1.404 . S
C687 N685 1.334 . S
C688 H680 0.930 . S
C688 C683 1.418 . S
C688 C684 1.353 . S
C689 H659 0.930 . S
C689 N690 1.330 1_455 S
C689 C691 1.446 . S
N690 Co649 2.151 . S
N690 C689 1.330 1_655 S
N690 C694 1.418 . S
C691 H670 0.929 . S
C691 C689 1.446 . S
C691 C692 1.332 1_455 S
C692 H672 0.931 . S
C692 C691 1.332 1_655 S
C692 C693 1.267 . S
C693 H661 0.929 . S
C693 C692 1.267 . S
C693 C694 1.251 . S
C694 H664 0.929 . S
C694 N690 1.418 . S
C694 C693 1.251 . S
C695 H662 0.930 . S
C695 C697 1.406 1_545 S
C695 C700 1.261 . S
C696 H663 0.930 . S
C696 N698 1.325 . S
C696 C699 1.357 . S
C697 H665 0.928 1_655 S
C697 C695 1.406 1_565 S
C697 N698 1.261 . S
N698 Co649 2.214 . S
N698 C696 1.325 . S
N698 C697 1.261 . S
C699 H669 0.931 . S
C699 C696 1.357 . S
C699 C700 1.314 1_565 S
C700 H671 0.929 . S
C700 C695 1.261 . S
C700 C699 1.314 1_545 S
C701 O673 1.214 . S
C701 O681 1.234 . S
C702 H674 0.929 . S
C702 C705 1.391 . S
C702 C707 1.391 . S
C703 H675 0.929 . S
C703 C704 1.390 1_655 S
C703 N706 1.391 1_655 S
C704 H676 0.930 . S
C704 C703 1.390 1_455 S
C704 C705 1.392 . S
C705 H677 0.929 . S
C705 C702 1.391 . S
C705 C704 1.392 . S
N706 Co650 2.257 1_455 S
N706 C703 1.391 1_455 S
N706 C707 1.388 . S
C707 H678 0.930 . S
C707 C702 1.391 . S
C707 N706 1.388 . S
Co708 O710 2.143 . S
Co708 O716 2.074 . S
Co708 O719 2.093 . S
Co708 O732 2.097 . S
Co708 N749 2.151 . S
Co708 N757 2.214 . S
Co709 O710 2.160 . S
Co709 O715 2.058 . S
Co709 O725 2.057 . S
Co709 O740 2.037 . S
Co709 N744 2.145 . S
Co709 N765 2.257 . S
O710 Co708 2.143 . S
O710 Co709 2.160 . S
C711 O712 1.278 . S
C711 O719 1.224 . S
O712 C711 1.278 . S
C713 O714 1.245 . S
C713 O725 1.232 . S
O714 C713 1.245 . S
O715 Co709 2.058 . S
O715 C741 1.269 . S
O716 Co708 2.074 . S
O716 C741 1.257 . S
H717 C742 0.930 . S
H718 C748 0.930 . S
O719 Co708 2.093 . S
O719 C711 1.224 . S
H720 C752 0.929 1_455 S
H721 C754 0.930 . S
H722 C755 0.930 . S
H723 C753 0.929 . S
H724 C756 0.928 . S
O725 Co709 2.057 . S
O725 C713 1.232 . S
H726 C745 0.929 . S
H727 C746 0.929 . S
H728 C758 0.931 . S
H729 C750 0.929 1_545 S
H730 C759 0.930 . S
H731 C751 0.931 1_445 S
O732 Co708 2.097 . S
O732 C760 1.214 . S
H733 C761 0.929 . S
H734 C762 0.929 . S
H735 C763 0.930 . S
H736 C764 0.929 . S
H737 C766 0.930 . S
H738 C743 0.930 . S
H739 C747 0.930 . S
O740 Co709 2.037 . S
O740 C760 1.234 . S
C741 O715 1.269 . S
C741 O716 1.257 . S
C742 H717 0.930 . S
C742 C745 1.388 . S
C742 C747 1.418 . S
C743 H738 0.930 . S
C743 C746 1.404 . S
C743 C747 1.353 . S
N744 Co709 2.145 . S
N744 C745 1.397 . S
N744 C746 1.334 . S
C745 H726 0.929 . S
C745 C742 1.388 . S
C745 N744 1.397 . S
C746 H727 0.929 . S
C746 C743 1.404 . S
C746 N744 1.334 . S
C747 H739 0.930 . S
C747 C742 1.418 . S
C747 C743 1.353 . S
C748 H718 0.930 . S
C748 N749 1.330 . S
C748 C750 1.446 . S
N749 Co708 2.151 . S
N749 C748 1.330 . S
N749 C753 1.418 . S
C750 H729 0.929 1_565 S
C750 C748 1.446 . S
C750 C751 1.332 . S
C751 H731 0.931 1_665 S
C751 C750 1.332 . S
C751 C752 1.267 . S
C752 H720 0.929 1_655 S
C752 C751 1.267 . S
C752 C753 1.251 . S
C753 H723 0.929 . S
C753 N749 1.418 . S
C753 C752 1.251 . S
C754 H721 0.930 . S
C754 C756 1.406 . S
C754 C759 1.261 . S
C755 H722 0.930 . S
C755 N757 1.325 . S
C755 C758 1.357 . S
C756 H724 0.928 . S
C756 C754 1.406 . S
C756 N757 1.261 . S
N757 Co708 2.214 . S
N757 C755 1.325 . S
N757 C756 1.261 . S
C758 H728 0.931 . S
C758 C755 1.357 . S
C758 C759 1.312 . S
C759 H730 0.930 . S
C759 C754 1.261 . S
C759 C758 1.312 . S
C760 O732 1.214 . S
C760 O740 1.234 . S
C761 H733 0.929 . S
C761 C764 1.391 . S
C761 C766 1.391 . S
C762 H734 0.929 . S
C762 C763 1.390 . S
C762 N765 1.391 . S
C763 H735 0.930 . S
C763 C762 1.390 . S
C763 C764 1.392 . S
C764 H736 0.929 . S
C764 C761 1.391 . S
C764 C763 1.392 . S
N765 Co709 2.257 . S
N765 C762 1.391 . S
N765 C766 1.388 . S
C766 H737 0.930 . S
C766 C761 1.391 . S
C766 N765 1.388 . S
Co767 O769 2.143 . S
Co767 O775 2.074 1_565 S
Co767 O778 2.093 . S
Co767 O791 2.097 . S
Co767 N808 2.151 . S
Co767 N816 2.214 . S
Co768 O769 2.160 . S
Co768 O774 2.058 1_565 S
Co768 O784 2.057 . S
Co768 O799 2.037 . S
Co768 N803 2.145 1_565 S
Co768 N824 2.257 . S
O769 Co767 2.143 . S
O769 Co768 2.160 . S
C770 O771 1.278 . S
C770 O778 1.224 . S
O771 C770 1.278 . S
C772 O773 1.245 . S
C772 O784 1.232 . S
O773 C772 1.245 . S
O774 Co768 2.058 1_545 S
O774 C800 1.269 . S
O775 Co767 2.074 1_545 S
O775 C800 1.257 . S
H776 C801 0.930 . S
H777 C807 0.930 . S
O778 Co767 2.093 . S
O778 C770 1.224 . S
H779 C811 0.929 1_545 S
H780 C813 0.930 . S
H781 C814 0.930 . S
H782 C812 0.929 1_545 S
H783 C815 0.928 . S
O784 Co768 2.057 . S
O784 C772 1.232 . S
H785 C804 0.929 . S
H786 C805 0.929 1_565 S
H787 C817 0.931 . S
H788 C809 0.929 . S
H789 C818 0.930 . S
H790 C810 0.931 . S
O791 Co767 2.097 . S
O791 C819 1.214 . S
H792 C820 0.929 . S
H793 C821 0.929 . S
H794 C822 0.930 . S
H795 C823 0.929 . S
H796 C825 0.930 . S
H797 C802 0.930 . S
H798 C806 0.930 . S
O799 Co768 2.037 . S
O799 C819 1.234 . S
C800 O774 1.269 . S
C800 O775 1.257 . S
C801 H776 0.930 . S
C801 C804 1.388 . S
C801 C806 1.418 . S
C802 H797 0.930 . S
C802 C805 1.404 . S
C802 C806 1.353 . S
N803 Co768 2.145 1_545 S
N803 C804 1.397 . S
N803 C805 1.334 . S
C804 H785 0.929 . S
C804 C801 1.388 . S
C804 N803 1.397 . S
C805 H786 0.929 1_545 S
C805 C802 1.404 . S
C805 N803 1.334 . S
C806 H798 0.930 . S
C806 C801 1.418 . S
C806 C802 1.353 . S
C807 H777 0.930 . S
C807 N808 1.330 . S
C807 C809 1.446 1_455 S
N808 Co767 2.151 . S
N808 C807 1.330 . S
N808 C812 1.418 . S
C809 H788 0.929 . S
C809 C807 1.446 1_655 S
C809 C810 1.332 . S
C810 H790 0.931 . S
C810 C809 1.332 . S
C810 C811 1.267 1_655 S
C811 H779 0.929 1_565 S
C811 C810 1.267 1_455 S
C811 C812 1.251 . S
C812 H782 0.929 1_565 S
C812 N808 1.418 . S
C812 C811 1.251 . S
C813 H780 0.930 . S
C813 C815 1.406 . S
C813 C818 1.261 1_565 S
C814 H781 0.930 . S
C814 N816 1.325 1_545 S
C814 C817 1.357 . S
C815 H783 0.928 . S
C815 C813 1.406 . S
C815 N816 1.261 . S
N816 Co767 2.214 . S
N816 C814 1.325 1_565 S
N816 C815 1.261 . S
C817 H787 0.931 . S
C817 C814 1.357 . S
C817 C818 1.312 . S
C818 H789 0.930 . S
C818 C813 1.261 1_545 S
C818 C817 1.312 . S
C819 O791 1.214 . S
C819 O799 1.234 . S
C820 H792 0.929 . S
C820 C823 1.391 . S
C820 C825 1.391 . S
C821 H793 0.929 . S
C821 C822 1.390 . S
C821 N824 1.391 . S
C822 H794 0.930 . S
C822 C821 1.390 . S
C822 C823 1.392 . S
C823 H795 0.929 . S
C823 C820 1.391 . S
C823 C822 1.392 . S
N824 Co768 2.257 . S
N824 C821 1.391 . S
N824 C825 1.388 . S
C825 H796 0.930 . S
C825 C820 1.391 . S
C825 N824 1.388 . S
Co826 O828 2.143 . S
Co826 O834 2.074 1_455 S
Co826 O837 2.093 . S
Co826 O850 2.097 . S
Co826 N867 2.151 . S
Co826 N875 2.214 . S
Co827 O828 2.160 . S
Co827 O833 2.058 1_455 S
Co827 O843 2.057 . S
Co827 O858 2.037 . S
Co827 N862 2.145 1_455 S
Co827 N883 2.257 . S
O828 Co826 2.143 . S
O828 Co827 2.160 . S
C829 O830 1.278 . S
C829 O837 1.224 . S
O830 C829 1.278 . S
C831 O832 1.245 . S
C831 O843 1.232 . S
O832 C831 1.245 . S
O833 Co827 2.058 1_655 S
O833 C859 1.269 . S
O834 Co826 2.074 1_655 S
O834 C859 1.257 . S
H835 C860 0.930 . S
H836 C866 0.930 . S
O837 Co826 2.093 . S
O837 C829 1.224 . S
H838 C870 0.926 1_665 S
H839 C872 0.930 . S
H840 C873 0.930 . S
H841 C871 0.929 . S
H842 C874 0.928 . S
O843 Co827 2.057 . S
O843 C831 1.232 . S
H844 C863 0.929 . S
H845 C864 0.929 1_455 S
H846 C876 0.931 . S
H847 C868 0.929 . S
H848 C877 0.930 . S
H849 C869 0.931 1_565 S
O850 Co826 2.097 . S
O850 C878 1.214 . S
H851 C879 0.929 . S
H852 C880 0.929 . S
H853 C881 0.930 . S
H854 C882 0.929 . S
H855 C884 0.930 . S
H856 C861 0.930 . S
H857 C865 0.930 . S
O858 Co827 2.037 . S
O858 C878 1.234 . S
C859 O833 1.269 . S
C859 O834 1.257 . S
C860 H835 0.930 . S
C860 C863 1.388 . S
C860 C865 1.418 . S
C861 H856 0.930 . S
C861 C864 1.404 . S
C861 C865 1.353 . S
N862 Co827 2.145 1_655 S
N862 C863 1.397 . S
N862 C864 1.334 . S
C863 H844 0.929 . S
C863 C860 1.388 . S
C863 N862 1.397 . S
C864 H845 0.929 1_655 S
C864 C861 1.404 . S
C864 N862 1.334 . S
C865 H857 0.930 . S
C865 C860 1.418 . S
C865 C861 1.353 . S
C866 H836 0.930 . S
C866 N867 1.330 . S
C866 C868 1.446 . S
N867 Co826 2.151 . S
N867 C866 1.330 . S
N867 C871 1.418 1_455 S
C868 H847 0.929 . S
C868 C866 1.446 . S
C868 C869 1.332 . S
C869 H849 0.931 1_545 S
C869 C868 1.332 . S
C869 C870 1.273 . S
C870 H838 0.926 1_445 S
C870 C869 1.273 . S
C870 C871 1.248 1_455 S
C871 H841 0.929 . S
C871 N867 1.418 1_655 S
C871 C870 1.248 1_655 S
C872 H839 0.930 . S
C872 C874 1.406 . S
C872 C877 1.261 1_455 S
C873 H840 0.930 . S
C873 N875 1.325 1_655 S
C873 C876 1.357 . S
C874 H842 0.928 . S
C874 C872 1.406 . S
C874 N875 1.261 . S
N875 Co826 2.214 . S
N875 C873 1.325 1_455 S
N875 C874 1.261 . S
C876 H846 0.931 . S
C876 C873 1.357 . S
C876 C877 1.312 . S
C877 H848 0.930 . S
C877 C872 1.261 1_655 S
C877 C876 1.312 . S
C878 O850 1.214 . S
C878 O858 1.234 . S
C879 H851 0.929 . S
C879 C882 1.391 . S
C879 C884 1.391 . S
C880 H852 0.929 . S
C880 C881 1.390 . S
C880 N883 1.391 . S
C881 H853 0.930 . S
C881 C880 1.390 . S
C881 C882 1.392 . S
C882 H854 0.929 . S
C882 C879 1.391 . S
C882 C881 1.392 . S
N883 Co827 2.257 . S
N883 C880 1.391 . S
N883 C884 1.388 . S
C884 H855 0.930 . S
C884 C879 1.391 . S
C884 N883 1.388 . S
Co885 O887 2.143 . S
Co885 O893 2.074 . S
Co885 O896 2.093 1_655 S
Co885 O909 2.097 1_655 S
Co885 N926 2.151 . S
Co885 N934 2.214 . S
Co886 O887 2.160 1_455 S
Co886 O892 2.058 1_455 S
Co886 O902 2.057 1_455 S
Co886 O917 2.037 . S
Co886 N921 2.145 . S
Co886 N942 2.257 . S
O887 Co885 2.143 . S
O887 Co886 2.160 1_655 S
C888 O889 1.278 . S
C888 O896 1.224 . S
O889 C888 1.278 . S
C890 O891 1.245 . S
C890 O902 1.232 . S
O891 C890 1.245 . S
O892 Co886 2.058 1_655 S
O892 C918 1.269 . S
O893 Co885 2.074 . S
O893 C918 1.257 . S
H894 C919 0.930 . S
H895 C925 0.930 . S
O896 Co885 2.093 1_455 S
O896 C888 1.224 . S
H897 C929 0.929 . S
H898 C931 0.930 . S
H899 C932 0.930 . S
H900 C930 0.929 . S
H901 C933 0.928 . S
O902 Co886 2.057 1_655 S
O902 C890 1.232 . S
H903 C922 0.929 . S
H904 C923 0.929 . S
H905 C935 0.931 . S
H906 C927 0.929 . S
H907 C936 0.930 . S
H908 C928 0.931 . S
O909 Co885 2.097 1_455 S
O909 C937 1.214 . S
H910 C938 0.929 . S
H911 C939 0.929 . S
H912 C940 0.930 . S
H913 C941 0.929 . S
H914 C943 0.930 . S
H915 C920 0.930 . S
H916 C924 0.930 . S
O917 Co886 2.037 . S
O917 C937 1.234 . S
C918 O892 1.269 . S
C918 O893 1.257 . S
C919 H894 0.930 . S
C919 C922 1.388 . S
C919 C924 1.418 . S
C920 H915 0.930 . S
C920 C923 1.404 . S
C920 C924 1.353 . S
N921 Co886 2.145 . S
N921 C922 1.397 . S
N921 C923 1.334 . S
C922 H903 0.929 . S
C922 C919 1.388 . S
C922 N921 1.397 . S
C923 H904 0.929 . S
C923 C920 1.404 . S
C923 N921 1.334 . S
C924 H916 0.930 . S
C924 C919 1.418 . S
C924 C920 1.353 . S
C925 H895 0.930 . S
C925 N926 1.330 . S
C925 C927 1.446 . S
N926 Co885 2.151 . S
N926 C925 1.330 . S
N926 C930 1.418 . S
C927 H906 0.929 . S
C927 C925 1.446 . S
C927 C928 1.332 . S
C928 H908 0.931 . S
C928 C927 1.332 . S
C928 C929 1.267 . S
C929 H897 0.929 . S
C929 C928 1.267 . S
C929 C930 1.251 . S
C930 H900 0.929 . S
C930 N926 1.418 . S
C930 C929 1.251 . S
C931 H898 0.930 . S
C931 C933 1.406 . S
C931 C936 1.261 . S
C932 H899 0.930 . S
C932 N934 1.325 . S
C932 C935 1.357 . S
C933 H901 0.928 . S
C933 C931 1.406 . S
C933 N934 1.261 . S
N934 Co885 2.214 . S
N934 C932 1.325 . S
N934 C933 1.261 . S
C935 H905 0.931 . S
C935 C932 1.357 . S
C935 C936 1.312 . S
C936 H907 0.930 . S
C936 C931 1.261 . S
C936 C935 1.312 . S
C937 O909 1.214 . S
C937 O917 1.234 . S
C938 H910 0.929 . S
C938 C941 1.391 . S
C938 C943 1.391 . S
C939 H911 0.929 . S
C939 C940 1.390 . S
C939 N942 1.391 . S
C940 H912 0.930 . S
C940 C939 1.390 . S
C940 C941 1.392 . S
C941 H913 0.929 . S
C941 C938 1.391 . S
C941 C940 1.392 . S
N942 Co886 2.257 . S
N942 C939 1.391 . S
N942 C943 1.388 . S
C943 H914 0.930 . S
C943 C938 1.391 . S
C943 N942 1.388 . S
Co944 O946 2.143 . S
Co944 O952 2.074 . S
Co944 O955 2.093 . S
Co944 O968 2.097 . S
Co944 N985 2.151 . S
Co944 N993 2.214 . S
Co945 O946 2.160 . S
Co945 O951 2.058 . S
Co945 O961 2.057 . S
Co945 O976 2.037 . S
Co945 N980 2.145 . S
Co945 N1001 2.257 . S
O946 Co944 2.143 . S
O946 Co945 2.160 . S
C947 O948 1.278 . S
C947 O955 1.224 . S
O948 C947 1.278 . S
C949 O950 1.245 . S
C949 O961 1.232 . S
O950 C949 1.245 . S
O951 Co945 2.058 . S
O951 C977 1.269 . S
O952 Co944 2.074 . S
O952 C977 1.257 . S
H953 C978 0.930 . S
H954 C984 0.930 . S
O955 Co944 2.093 . S
O955 C947 1.224 . S
H956 C988 0.929 . S
H957 C990 0.930 . S
H958 C991 0.930 . S
H959 C989 0.929 . S
H960 C992 0.928 . S
O961 Co945 2.057 . S
O961 C949 1.232 . S
H962 C981 0.929 . S
H963 C982 0.929 . S
H964 C994 0.931 . S
H965 C986 0.929 . S
H966 C995 0.930 . S
H967 C987 0.931 . S
O968 Co944 2.097 . S
O968 C996 1.214 . S
H969 C997 0.929 . S
H970 C998 0.929 . S
H971 C999 0.930 . S
H972 C1000 0.929 . S
H973 C1002 0.930 . S
H974 C979 0.930 . S
H975 C983 0.930 . S
O976 Co945 2.037 . S
O976 C996 1.234 . S
C977 O951 1.269 . S
C977 O952 1.257 . S
C978 H953 0.930 . S
C978 C981 1.388 . S
C978 C983 1.418 . S
C979 H974 0.930 . S
C979 C982 1.404 . S
C979 C983 1.353 . S
N980 Co945 2.145 . S
N980 C981 1.397 . S
N980 C982 1.334 . S
C981 H962 0.929 . S
C981 C978 1.388 . S
C981 N980 1.397 . S
C982 H963 0.929 . S
C982 C979 1.404 . S
C982 N980 1.334 . S
C983 H975 0.930 . S
C983 C978 1.418 . S
C983 C979 1.353 . S
C984 H954 0.930 . S
C984 N985 1.330 . S
C984 C986 1.446 . S
N985 Co944 2.151 . S
N985 C984 1.330 . S
N985 C989 1.418 . S
C986 H965 0.929 . S
C986 C984 1.446 . S
C986 C987 1.332 . S
C987 H967 0.931 . S
C987 C986 1.332 . S
C987 C988 1.267 . S
C988 H956 0.929 . S
C988 C987 1.267 . S
C988 C989 1.251 . S
C989 H959 0.929 . S
C989 N985 1.418 . S
C989 C988 1.251 . S
C990 H957 0.930 . S
C990 C992 1.406 . S
C990 C995 1.261 . S
C991 H958 0.930 . S
C991 N993 1.325 . S
C991 C994 1.357 . S
C992 H960 0.928 . S
C992 C990 1.406 . S
C992 N993 1.261 . S
N993 Co944 2.214 . S
N993 C991 1.325 . S
N993 C992 1.261 . S
C994 H964 0.931 . S
C994 C991 1.357 . S
C994 C995 1.312 . S
C995 H966 0.930 . S
C995 C990 1.261 . S
C995 C994 1.312 . S
C996 O968 1.214 . S
C996 O976 1.234 . S
C997 H969 0.929 . S
C997 C1000 1.391 . S
C997 C1002 1.391 . S
C998 H970 0.929 . S
C998 C999 1.390 . S
C998 N1001 1.391 . S
C999 H971 0.930 . S
C999 C998 1.390 . S
C999 C1000 1.392 . S
C1000 H972 0.929 . S
C1000 C997 1.391 . S
C1000 C999 1.392 . S
N1001 Co945 2.257 . S
N1001 C998 1.391 . S
N1001 C1002 1.388 . S
C1002 H973 0.930 . S
C1002 C997 1.391 . S
C1002 N1001 1.388 . S
Co1003 O1005 2.143 . S
Co1003 O1011 2.074 . S
Co1003 O1014 2.093 . S
Co1003 O1027 2.097 . S
Co1003 N1044 2.151 . S
Co1003 N1052 2.214 . S
Co1004 O1005 2.160 1_565 S
Co1004 O1010 2.058 . S
Co1004 O1020 2.057 . S
Co1004 O1035 2.037 . S
Co1004 N1039 2.145 . S
Co1004 N1060 2.257 . S
O1005 Co1003 2.143 . S
O1005 Co1004 2.160 1_545 S
C1006 O1007 1.278 . S
C1006 O1014 1.224 . S
O1007 C1006 1.278 . S
C1008 O1009 1.245 . S
C1008 O1020 1.232 . S
O1009 C1008 1.245 . S
O1010 Co1004 2.058 . S
O1010 C1036 1.269 . S
O1011 Co1003 2.074 . S
O1011 C1036 1.257 1_545 S
H1012 C1037 0.930 . S
H1013 C1043 0.930 . S
O1014 Co1003 2.093 . S
O1014 C1006 1.224 . S
H1015 C1047 0.929 . S
H1016 C1049 0.930 . S
H1017 C1050 0.930 . S
H1018 C1048 0.929 . S
H1019 C1051 0.928 . S
O1020 Co1004 2.057 . S
O1020 C1008 1.232 . S
H1021 C1040 0.929 . S
H1022 C1041 0.929 . S
H1023 C1053 0.931 . S
H1024 C1045 0.929 . S
H1025 C1054 0.930 . S
H1026 C1046 0.931 . S
O1027 Co1003 2.097 . S
O1027 C1055 1.214 . S
H1028 C1056 0.929 . S
H1029 C1057 0.929 . S
H1030 C1058 0.930 . S
H1031 C1059 0.929 . S
H1032 C1061 0.930 . S
H1033 C1038 0.930 . S
H1034 C1042 0.930 . S
O1035 Co1004 2.037 . S
O1035 C1055 1.234 1_565 S
C1036 O1010 1.269 . S
C1036 O1011 1.257 1_565 S
C1037 H1012 0.930 . S
C1037 C1040 1.388 . S
C1037 C1042 1.418 . S
C1038 H1033 0.930 . S
C1038 C1041 1.404 . S
C1038 C1042 1.353 . S
N1039 Co1004 2.145 . S
N1039 C1040 1.397 . S
N1039 C1041 1.334 . S
C1040 H1021 0.929 . S
C1040 C1037 1.388 . S
C1040 N1039 1.397 . S
C1041 H1022 0.929 . S
C1041 C1038 1.404 . S
C1041 N1039 1.334 . S
C1042 H1034 0.930 . S
C1042 C1037 1.418 . S
C1042 C1038 1.353 . S
C1043 H1013 0.930 . S
C1043 N1044 1.330 . S
C1043 C1045 1.446 . S
N1044 Co1003 2.151 . S
N1044 C1043 1.330 . S
N1044 C1048 1.418 . S
C1045 H1024 0.929 . S
C1045 C1043 1.446 . S
C1045 C1046 1.332 . S
C1046 H1026 0.931 . S
C1046 C1045 1.332 . S
C1046 C1047 1.267 . S
C1047 H1015 0.929 . S
C1047 C1046 1.267 . S
C1047 C1048 1.251 . S
C1048 H1018 0.929 . S
C1048 N1044 1.418 . S
C1048 C1047 1.251 . S
C1049 H1016 0.930 . S
C1049 C1051 1.406 . S
C1049 C1054 1.261 . S
C1050 H1017 0.930 . S
C1050 N1052 1.325 . S
C1050 C1053 1.357 . S
C1051 H1019 0.928 . S
C1051 C1049 1.406 . S
C1051 N1052 1.261 . S
N1052 Co1003 2.214 . S
N1052 C1050 1.325 . S
N1052 C1051 1.261 . S
C1053 H1023 0.931 . S
C1053 C1050 1.357 . S
C1053 C1054 1.312 . S
C1054 H1025 0.930 . S
C1054 C1049 1.261 . S
C1054 C1053 1.312 . S
C1055 O1027 1.214 . S
C1055 O1035 1.234 1_545 S
C1056 H1028 0.929 . S
C1056 C1059 1.391 . S
C1056 C1061 1.391 . S
C1057 H1029 0.929 . S
C1057 C1058 1.390 . S
C1057 N1060 1.391 . S
C1058 H1030 0.930 . S
C1058 C1057 1.390 . S
C1058 C1059 1.392 . S
C1059 H1031 0.929 . S
C1059 C1056 1.391 . S
C1059 C1058 1.392 . S
N1060 Co1004 2.257 . S
N1060 C1057 1.391 . S
N1060 C1061 1.388 . S
C1061 H1032 0.930 . S
C1061 C1056 1.391 . S
C1061 N1060 1.388 . S
C33 C210 2.865 1_554 S
C92 C269 2.710 1_654 S
C298 C151 3.280 1_556 S
C387 C564 2.865 . S
C446 C623 2.710 . S
C652 C505 3.280 . S
C918 C741 2.865 . S
C977 C800 2.710 . S
C1006 C859 3.280 . S
C5 C536 2.913 . S
C64 C595 3.123 . S
C701 C123 2.825 . S
C182 C713 2.912 . S
C241 C772 3.123 . S
C347 C831 2.825 . S
C359 C890 2.912 1_455 S
C418 C949 3.123 . S
C1055 C477 2.825 1_545 S
C52 C239 0.400 . S
C111 C328 0.907 . S
C170 C180 0.654 . S
C229 C62 1.071 . S
C121 C288 1.089 . S
C300 C3 0.918 1_554 S
C406 C593 0.400 . S
C682 C465 0.907 . S
C534 C524 0.654 . S
C416 C583 1.071 . S
C642 C475 1.089 . S
C654 C357 0.919 . S
C947 C760 0.400 . S
C1036 C819 0.907 . S
C878 C888 0.654 . S
C770 C937 1.071 . S
C829 C996 1.089 . S
C711 C1008 0.919 . S
