# Generated by pormake.
# Topology bsn, (6)-cn, num edge types: 1
# Building blocks:
#     Node 0, Type 0, BuildingBlock: MIFKUJ_clean_sbu_0, # of connection points: 6
#     Node 1, Type 0, BuildingBlock: MIFKUJ_clean_sbu_0, # of connection points: 6
#     Node 2, Type 0, BuildingBlock: MIFKUJ_clean_sbu_0, # of connection points: 6
#     Node 3, Type 0, BuildingBlock: MIFKUJ_clean_sbu_0, # of connection points: 6
#     Edge 4, Type (0, 0), BuildingBlock: MIFKUJ_clean_linker_0, # of connection points: 2
#     Edge 5, Type (0, 0), BuildingBlock: MIFKUJ_clean_linker_0, # of connection points: 2
#     Edge 6, Type (0, 0), BuildingBlock: MIFKUJ_clean_linker_0, # of connection points: 2
#     Edge 7, Type (0, 0), BuildingBlock: MIFKUJ_clean_linker_0, # of connection points: 2
#     Edge 8, Type (0, 0), BuildingBlock: MIFKUJ_clean_linker_0, # of connection points: 2
#     Edge 9, Type (0, 0), BuildingBlock: MIFKUJ_clean_linker_0, # of connection points: 2
#     Edge 10, Type (0, 0), BuildingBlock: MIFKUJ_clean_linker_0, # of connection points: 2
#     Edge 11, Type (0, 0), BuildingBlock: MIFKUJ_clean_linker_0, # of connection points: 2
#     Edge 12, Type (0, 0), BuildingBlock: MIFKUJ_clean_linker_0, # of connection points: 2
#     Edge 13, Type (0, 0), BuildingBlock: MIFKUJ_clean_linker_0, # of connection points: 2
#     Edge 14, Type (0, 0), BuildingBlock: MIFKUJ_clean_linker_0, # of connection points: 2
#     Edge 15, Type (0, 0), BuildingBlock: MIFKUJ_clean_linker_0, # of connection points: 2
# Relax obj value: 0.300
# Max RMSD: 0.241
# Mean RMSD: 0.239
data_MOF--net-bsn--node1-MIFKUJ_clean_sbu_0--edge1-MIFKUJ_clean_linker_0
_symmetry_space_group_name_H-M    P1
_symmetry_Int_Tables_number       1
_symmetry_cell_setting            triclinic
loop_
_symmetry_equiv_pos_as_xyz
'x, y, z'
_cell_length_a     44.244073
_cell_length_b     44.331496
_cell_length_c     17.745262
_cell_angle_alpha  95.200163
_cell_angle_beta   94.803788
_cell_angle_gamma 89.865582
loop_
_atom_site_label
_atom_site_type_symbol
_atom_site_fract_x
_atom_site_fract_y
_atom_site_fract_z
_atom_type_partial_charge
Zn0 Zn 0.04358 0.29312 0.33892 0.0
Zn1 Zn 0.99215 0.21312 0.35766 0.0
C2 C 0.10814 0.29213 0.34761 0.0
O3 O 0.10386 0.30601 0.41447 0.0
C4 C 0.93258 0.2156 0.28716 0.0
O5 O 0.94641 0.20171 0.23131 0.0
O6 O 0.03268 0.33722 0.33295 0.0
O7 O 0.01205 0.26318 0.29075 0.0
O8 O 0.0072 0.21488 0.25506 0.0
C9 C 0.05084 0.35645 0.31219 0.0
O10 O 0.07581 0.34692 0.28287 0.0
O11 O 0.08512 0.28373 0.303 0.0
C12 C 0.97779 0.15606 0.41087 0.0
O13 O 0.95051 0.16784 0.40651 0.0
O14 O 1.00007 0.1717 0.39504 0.0
O15 O 0.01551 0.24648 0.41941 0.0
O16 O 0.04337 0.28713 0.45056 0.0
O17 O 0.94769 0.22311 0.35009 0.0
C18 C 0.01702 0.24087 0.24363 0.0
C19 C 0.02797 0.26532 0.47004 0.0
Zn20 Zn 0.05286 0.73498 0.59241 0.0
Zn21 Zn 0.97303 0.78808 0.61182 0.0
C22 C 0.03159 0.67264 0.57017 0.0
O23 O 0.01471 0.68155 0.62542 0.0
C24 C 0.96274 0.84869 0.57935 0.0
O25 O 0.93647 0.83633 0.5538 0.0
O26 O 0.09627 0.74859 0.6001 0.0
O27 O 0.02224 0.76245 0.5514 0.0
O28 O 0.97591 0.76837 0.50684 0.0
C29 C 0.11642 0.73478 0.56357 0.0
O30 O 0.10826 0.71365 0.50894 0.0
O31 O 0.04878 0.69176 0.5455 0.0
C32 C 0.91968 0.7921 0.69804 0.0
O33 O 0.93824 0.80579 0.75206 0.0
O34 O 0.92976 0.78279 0.63521 0.0
O35 O 1.002 0.76781 0.68829 0.0
O36 O 0.04273 0.73827 0.70011 0.0
O37 O 0.98299 0.83232 0.61015 0.0
C38 C 1.00155 0.75645 0.49876 0.0
C39 C 0.02162 0.75392 0.72908 0.0
Zn40 Zn 0.54191 0.7922 0.8361 0.0
Zn41 Zn 0.49137 0.71094 0.84499 0.0
C42 C 0.60654 0.78755 0.8519 0.0
O43 O 0.60165 0.79759 0.92177 0.0
C44 C 0.43107 0.71112 0.77762 0.0
O45 O 0.44453 0.69676 0.72177 0.0
O46 O 0.5316 0.8365 0.83019 0.0
O47 O 0.511 0.76254 0.78415 0.0
O48 O 0.50661 0.71475 0.7428 0.0
C49 C 0.55125 0.85563 0.81581 0.0
O50 O 0.57745 0.84587 0.7939 0.0
O51 O 0.58393 0.7828 0.80314 0.0
C52 C 0.48076 0.65727 0.91688 0.0
O53 O 0.45661 0.67271 0.93484 0.0
O54 O 0.50003 0.66941 0.8796 0.0
O55 O 0.51319 0.74402 0.91144 0.0
O56 O 0.53974 0.78532 0.94674 0.0
O57 O 0.44669 0.71957 0.83913 0.0
C58 C 0.51641 0.74114 0.73491 0.0
C59 C 0.52474 0.76275 0.96362 0.0
Zn60 Zn 0.55167 0.23287 0.10754 0.0
Zn61 Zn 0.472 0.28587 0.09077 0.0
C62 C 0.52907 0.17113 0.07747 0.0
O63 O 0.5095 0.18036 0.12625 0.0
C64 C 0.46242 0.34998 0.08657 0.0
O65 O 0.43392 0.3414 0.08343 0.0
O66 O 0.59551 0.24412 0.12825 0.0
O67 O 0.52659 0.26205 0.05166 0.0
O68 O 0.48203 0.26523 -0.00873 0.0
C69 C 0.61558 0.2353 0.08424 0.0
O70 O 0.60724 0.22075 0.01796 0.0
O71 O 0.54828 0.18988 0.05928 0.0
C72 C 0.41863 0.28656 0.17011 0.0
O73 O 0.43843 0.2965 0.22617 0.0
O74 O 0.42768 0.28022 0.10446 0.0
O75 O 0.49649 0.26543 0.17254 0.0
O76 O 0.53485 0.23651 0.20918 0.0
O77 O 0.48312 0.33018 0.09209 0.0
C78 C 0.50871 0.25466 -0.00643 0.0
C79 C 0.51184 0.25261 0.22403 0.0
H80 H 0.0851 0.40362 0.27669 0.0
H81 H 0.081 0.45714 0.32107 0.0
H82 H 1.00361 0.43701 0.44081 0.0
H83 H 0.00718 0.38351 0.39546 0.0
H84 H 0.99372 0.48676 0.37345 0.0
H85 H 0.07382 0.45038 0.53624 0.0
H86 H 0.12181 0.42493 0.57217 0.0
H87 H 0.17095 0.48789 0.45775 0.0
H88 H 0.12318 0.51352 0.42033 0.0
H89 H 0.99762 0.62606 0.61003 0.0
H90 H 1.00012 0.57239 0.56516 0.0
H91 H 0.06945 0.59215 0.4196 0.0
H92 H 0.06718 0.64592 0.4642 0.0
H93 H 0.08314 0.54251 0.50435 0.0
H94 H 0.99929 0.57821 0.34274 0.0
H95 H 0.95022 0.6036 0.31873 0.0
H96 H 0.90706 0.54068 0.4463 0.0
H97 H 0.95598 0.51513 0.47181 0.0
C98 C 0.06701 0.41059 0.31183 0.0
C99 C 0.04646 0.38925 0.33247 0.0
C100 C 0.06486 0.44119 0.33774 0.0
C101 C 0.04233 0.45103 0.38543 0.0
C102 C 0.02125 0.42993 0.40429 0.0
C103 C 0.02328 0.39934 0.37812 0.0
C104 C 0.04066 0.48336 0.41515 0.0
C105 C 0.0132 0.4988 0.40289 0.0
C106 C 0.06611 0.49923 0.45318 0.0
C107 C 0.09486 0.48366 0.47471 0.0
C108 C 0.09482 0.45862 0.51807 0.0
C109 C 0.12199 0.4442 0.53888 0.0
C110 C 0.1494 0.45473 0.51705 0.0
C111 C 0.14969 0.47973 0.4745 0.0
C112 C 0.12258 0.49423 0.45353 0.0
C113 C 0.0133 0.61906 0.56817 0.0
C114 C 0.03214 0.64032 0.54057 0.0
C115 C 0.01468 0.58837 0.54258 0.0
C116 C 0.03488 0.57835 0.48885 0.0
C117 C 0.05375 0.59945 0.46121 0.0
C118 C 0.0523 0.63018 0.48651 0.0
C119 C 0.03638 0.54581 0.46162 0.0
C120 C 0.06376 0.53037 0.47469 0.0
C121 C 0.01074 0.52978 0.42566 0.0
C122 C 0.98131 0.54493 0.40967 0.0
C123 C 0.97937 0.56992 0.36606 0.0
C124 C 0.95158 0.58431 0.35211 0.0
C125 C 0.92555 0.5738 0.3811 0.0
C126 C 0.92724 0.54881 0.42392 0.0
C127 C 0.95498 0.53434 0.43806 0.0
H128 H 0.90406 0.58499 0.37028 0.0
H129 H 0.17041 0.44355 0.53327 0.0
H130 H 0.62545 0.76977 0.71097 0.0
H131 H 0.67773 0.76781 0.67437 0.0
H132 H 0.71074 0.79612 0.90551 0.0
H133 H 0.6589 0.79831 0.94236 0.0
H134 H 0.73504 0.82959 0.80402 0.0
H135 H 0.71695 0.72291 0.83014 0.0
H136 H 0.68994 0.67418 0.79929 0.0
H137 H 0.70885 0.6744 0.56589 0.0
H138 H 0.73562 0.72336 0.5952 0.0
H139 H 0.89121 0.8052 0.82787 0.0
H140 H 0.83706 0.80154 0.84352 0.0
H141 H 0.82008 0.768 0.60788 0.0
H142 H 0.87435 0.77099 0.59208 0.0
H143 H 0.78588 0.73797 0.6941 0.0
H144 H 0.80545 0.84091 0.66244 0.0
H145 H 0.83237 0.88994 0.68539 0.0
H146 H 0.80927 0.89824 0.9166 0.0
H147 H 0.7826 0.849 0.89535 0.0
C148 C 0.64388 0.77535 0.75407 0.0
C149 C 0.63799 0.7843 0.82958 0.0
C150 C 0.67373 0.77414 0.73308 0.0
C151 C 0.69813 0.78178 0.78728 0.0
C152 C 0.69225 0.79023 0.86273 0.0
C153 C 0.66256 0.79139 0.88373 0.0
C154 C 0.72982 0.78223 0.76586 0.0
C155 C 0.74623 0.80947 0.78069 0.0
C156 C 0.74403 0.75635 0.73216 0.0
C157 C 0.72795 0.72695 0.71469 0.0
C158 C 0.7151 0.7127 0.77212 0.0
C159 C 0.69989 0.68501 0.75494 0.0
C160 C 0.6976 0.67125 0.68064 0.0
C161 C 0.71059 0.68511 0.62339 0.0
C162 C 0.72579 0.71282 0.64026 0.0
C163 C 0.876 0.79693 0.77942 0.0
C164 C 0.88707 0.78866 0.70859 0.0
C165 C 0.84503 0.79492 0.78837 0.0
C166 C 0.82445 0.78498 0.7265 0.0
C167 C 0.83552 0.77582 0.6563 0.0
C168 C 0.86655 0.77765 0.64738 0.0
C169 C 0.79134 0.78505 0.73508 0.0
C170 C 0.77464 0.75811 0.71712 0.0
C171 C 0.7766 0.81134 0.76462 0.0
C172 C 0.79222 0.84117 0.77745 0.0
C173 C 0.80626 0.85311 0.71831 0.0
C174 C 0.82147 0.88094 0.731 0.0
C175 C 0.82257 0.89717 0.80245 0.0
C176 C 0.8084 0.88563 0.8613 0.0
C177 C 0.79321 0.85778 0.84895 0.0
H178 H 0.83437 0.9187 0.81219 0.0
H179 H 0.68582 0.6498 0.66746 0.0
H180 H 0.51732 0.37383 0.05933 0.0
H181 H 0.52743 0.42559 0.02921 0.0
H182 H 0.43454 0.44952 0.06166 0.0
H183 H 0.42419 0.39807 0.09053 0.0
H184 H 0.45095 0.46501 0.92788 0.0
H185 H 0.49428 0.47365 0.19069 0.0
H186 H 0.52968 0.46031 0.29731 0.0
H187 H 0.60542 0.48042 0.17373 0.0
H188 H 0.57046 0.49354 0.06596 0.0
H189 H 0.43835 0.62193 0.96919 0.0
H190 H 0.44236 0.56869 -0.00739 0.0
H191 H 0.53428 0.56683 0.92858 0.0
H192 H 0.53043 0.62044 0.90428 0.0
H193 H 0.52643 0.53794 0.06216 0.0
H194 H 0.48447 0.53451 0.80642 0.0
H195 H 0.45032 0.54739 0.69709 0.0
H196 H 0.37369 0.51637 0.80243 0.0
H197 H 0.4073 0.50369 0.91296 0.0
C198 C 0.49918 0.39027 0.06099 0.0
C199 C 0.46987 0.38181 0.0767 0.0
C200 C 0.50502 0.41982 0.04388 0.0
C201 C 0.4817 0.44136 0.04298 0.0
C202 C 0.45279 0.43318 0.06145 0.0
C203 C 0.44693 0.40375 0.07808 0.0
C204 C 0.48643 0.47199 0.01864 0.0
C205 C 0.4673 0.48104 0.95766 0.0
C206 C 0.50878 0.49236 0.05516 0.0
C207 C 0.52974 0.48424 0.11986 0.0
C208 C 0.51848 0.47495 0.18593 0.0
C209 C 0.53847 0.4675 0.24666 0.0
C210 C 0.56978 0.46943 0.2422 0.0
C211 C 0.58116 0.47888 0.17706 0.0
C212 C 0.56127 0.48634 0.11617 0.0
C213 C 0.45952 0.61034 0.96038 0.0
C214 C 0.48406 0.62541 0.93468 0.0
C215 C 0.4617 0.57985 0.97346 0.0
C216 C 0.48849 0.5638 0.96151 0.0
C217 C 0.51338 0.57886 0.9378 0.0
C218 C 0.51111 0.60942 0.92387 0.0
C219 C 0.48996 0.53124 0.97388 0.0
C220 C 0.51034 0.52177 0.03193 0.0
C221 C 0.4689 0.5103 0.93435 0.0
C222 C 0.44845 0.51835 0.86839 0.0
C223 C 0.46031 0.53071 0.8067 0.0
C224 C 0.44104 0.53791 0.74439 0.0
C225 C 0.40985 0.53275 0.74288 0.0
C226 C 0.39786 0.52037 0.80369 0.0
C227 C 0.41702 0.51314 0.86616 0.0
H228 H 0.39498 0.53829 0.69453 0.0
H229 H 0.58521 0.46368 0.2893 0.0
H230 H 0.8975 0.2137 0.15381 0.0
H231 H 0.84321 0.22299 0.13498 0.0
H232 H 0.83896 0.24048 0.37695 0.0
H233 H 0.89376 0.23147 0.39651 0.0
H234 H 0.79372 0.19939 0.30214 0.0
H235 H 0.8313 0.29856 0.2839 0.0
H236 H 0.86494 0.33682 0.24181 0.0
H237 H 0.83204 0.31254 0.00976 0.0
H238 H 0.79842 0.27385 0.05038 0.0
H239 H 0.63957 0.24714 0.23066 0.0
H240 H 0.69312 0.24773 0.27783 0.0
H241 H 0.71837 0.22987 0.04858 0.0
H242 H 0.66475 0.22881 0.00079 0.0
H243 H 0.75245 0.27657 0.1359 0.0
H244 H 0.71952 0.174 0.15328 0.0
H245 H 0.68835 0.13332 0.19366 0.0
H246 H 0.71393 0.16277 0.42747 0.0
H247 H 0.74494 0.20393 0.38843 0.0
C248 C 0.88512 0.21966 0.2031 0.0
C249 C 0.89986 0.22192 0.27661 0.0
C250 C 0.85413 0.22506 0.1922 0.0
C251 C 0.83725 0.23264 0.25455 0.0
C252 C 0.85175 0.23477 0.32822 0.0
C253 C 0.88297 0.22972 0.33918 0.0
C254 C 0.80427 0.23741 0.24152 0.0
C255 C 0.78452 0.21673 0.26746 0.0
C256 C 0.79258 0.25969 0.19506 0.0
C257 C 0.81245 0.28318 0.1702 0.0
C258 C 0.83136 0.30125 0.22384 0.0
C259 C 0.85039 0.32305 0.20026 0.0
C260 C 0.85062 0.3271 0.12316 0.0
C261 C 0.83179 0.3094 0.06948 0.0
C262 C 0.81269 0.28757 0.09277 0.0
C263 C 0.65651 0.24361 0.19012 0.0
C264 C 0.64797 0.23797 0.11188 0.0
C265 C 0.68705 0.24377 0.21731 0.0
C266 C 0.70956 0.23865 0.16668 0.0
C267 C 0.70121 0.23383 0.08845 0.0
C268 C 0.67064 0.23321 0.06127 0.0
C269 C 0.7419 0.23811 0.19509 0.0
C270 C 0.76151 0.25963 0.17197 0.0
C271 C 0.75342 0.21659 0.24424 0.0
C272 C 0.73412 0.19239 0.26791 0.0
C273 C 0.71814 0.17209 0.21331 0.0
C274 C 0.7006 0.14887 0.23595 0.0
C275 C 0.69904 0.14555 0.31309 0.0
C276 C 0.71507 0.16543 0.36774 0.0
C277 C 0.73262 0.18872 0.34538 0.0
H278 H 0.68551 0.12751 0.33048 0.0
H279 H 0.86542 0.34395 0.10499 0.0
H280 H 0.37241 0.2625 0.07039 0.0
H281 H 0.3187 0.25882 0.09206 0.0
H282 H 0.33768 0.30201 0.319 0.0
H283 H 0.39135 0.30486 0.29864 0.0
H284 H 0.30143 0.25627 0.32215 0.0
H285 H 0.30484 0.33961 0.16387 0.0
H286 H 0.31577 0.36377 0.04917 0.0
H287 H 0.25672 0.30029 0.91151 0.0
H288 H 0.2457 0.27551 0.02533 0.0
H289 H 0.16109 0.31064 0.42766 0.0
H290 H 0.21241 0.30497 0.38873 0.0
H291 H 0.17762 0.25822 0.17541 0.0
H292 H 0.12576 0.26436 0.21356 0.0
H293 H 0.22021 0.29915 0.15426 0.0
H294 H 0.21304 0.21918 0.31524 0.0
H295 H 0.20198 0.19554 0.43051 0.0
H296 H 0.26836 0.25285 0.56341 0.0
H297 H 0.27956 0.27714 0.44915 0.0
C298 C 0.36511 0.27118 0.12493 0.0
C299 C 0.38614 0.28405 0.18275 0.0
C300 C 0.33437 0.26922 0.13708 0.0
C301 C 0.32402 0.28052 0.20682 0.0
C302 C 0.34507 0.29315 0.26469 0.0
C303 C 0.37579 0.29483 0.25289 0.0
C304 C 0.29143 0.27897 0.22071 0.0
C305 C 0.28372 0.26591 0.28579 0.0
C306 C 0.26814 0.29053 0.17166 0.0
C307 C 0.2747 0.30549 0.10312 0.0
C308 C 0.29435 0.33065 0.1091 0.0
C309 C 0.30053 0.34449 0.04424 0.0
C310 C 0.28701 0.33351 0.97308 0.0
C311 C 0.26721 0.30873 0.96666 0.0
C312 C 0.26097 0.2948 0.03134 0.0
C313 C 0.16425 0.29903 0.37254 0.0
C314 C 0.1393 0.28783 0.32389 0.0
C315 C 0.19369 0.29569 0.35046 0.0
C316 C 0.19895 0.28075 0.27962 0.0
C317 C 0.1741 0.26971 0.23049 0.0
C318 C 0.14451 0.27315 0.25248 0.0
C319 C 0.23045 0.27734 0.25704 0.0
C320 C 0.23791 0.28927 0.19019 0.0
C321 C 0.2536 0.2648 0.30451 0.0
C322 C 0.24698 0.25016 0.37353 0.0
C323 C 0.22514 0.22691 0.36911 0.0
C324 C 0.21887 0.21336 0.43429 0.0
C325 C 0.23441 0.22273 0.50426 0.0
C326 C 0.25632 0.24563 0.50917 0.0
C327 C 0.26267 0.25926 0.44418 0.0
H328 H 0.22952 0.21221 0.55463 0.0
H329 H 0.29182 0.34426 0.92296 0.0
H330 H 0.39554 0.71027 0.64503 0.0
H331 H 0.34166 0.72172 0.62745 0.0
H332 H 0.3383 0.73807 0.86987 0.0
H333 H 0.39284 0.72736 0.88813 0.0
H334 H 0.29192 0.69721 0.78962 0.0
H335 H 0.33005 0.79639 0.78888 0.0
H336 H 0.36358 0.83688 0.7573 0.0
H337 H 0.33283 0.81975 0.52133 0.0
H338 H 0.29938 0.77882 0.55136 0.0
H339 H 0.13884 0.75201 0.70861 0.0
H340 H 0.19191 0.75223 0.76041 0.0
H341 H 0.2197 0.72518 0.53721 0.0
H342 H 0.16646 0.72391 0.48514 0.0
H343 H 0.25271 0.77776 0.63115 0.0
H344 H 0.21972 0.67351 0.63578 0.0
H345 H 0.18806 0.63218 0.67103 0.0
H346 H 0.21012 0.66 0.90732 0.0
H347 H 0.24156 0.70184 0.87337 0.0
C348 C 0.38348 0.71648 0.69468 0.0
C349 C 0.39842 0.718 0.7679 0.0
C350 C 0.35272 0.72312 0.68451 0.0
C351 C 0.3362 0.73096 0.74734 0.0
C352 C 0.35084 0.73222 0.82077 0.0
C353 C 0.38189 0.72613 0.83099 0.0
C354 C 0.30334 0.73651 0.73478 0.0
C355 C 0.28318 0.71527 0.75671 0.0
C356 C 0.2922 0.75989 0.69113 0.0
C357 C 0.31237 0.78435 0.67234 0.0
C358 C 0.33064 0.80105 0.73015 0.0
C359 C 0.34958 0.82413 0.71255 0.0
C360 C 0.35038 0.83084 0.63733 0.0
C361 C 0.33219 0.81451 0.57957 0.0
C362 C 0.31319 0.79139 0.59687 0.0
C363 C 0.15627 0.74647 0.67032 0.0
C364 C 0.14859 0.73812 0.59264 0.0
C365 C 0.1865 0.74641 0.70018 0.0
C366 C 0.20952 0.73859 0.65259 0.0
C367 C 0.20209 0.73122 0.57466 0.0
C368 C 0.17178 0.73055 0.54503 0.0
C369 C 0.24145 0.73791 0.68399 0.0
C370 C 0.26136 0.76011 0.66553 0.0
C371 C 0.25228 0.71559 0.73156 0.0
C372 C 0.23247 0.69119 0.75198 0.0
C373 C 0.21738 0.67117 0.69522 0.0
C374 C 0.1996 0.64755 0.71498 0.0
C375 C 0.19694 0.64357 0.79137 0.0
C376 C 0.21209 0.66319 0.84817 0.0
C377 C 0.22987 0.68688 0.82869 0.0
H378 H 0.18326 0.6252 0.80653 0.0
H379 H 0.36506 0.84874 0.62381 0.0
H380 H 0.50494 0.88311 0.88866 0.0
H381 H 0.50062 0.93664 0.93263 0.0
H382 H 0.58309 0.95603 0.83216 0.0
H383 H 0.58793 0.9024 0.78933 0.0
H384 H 0.58355 0.98333 0.97331 0.0
H385 H 0.51282 0.97483 0.75019 0.0
H386 H 0.46923 0.95274 0.66803 0.0
H387 H 0.41054 0.97489 0.84566 0.0
H388 H 0.45388 0.99678 0.92921 0.0
H389 H 0.57074 0.1434 -0.01086 0.0
H390 H 0.57371 0.08965 0.94552 0.0
H391 H 0.49335 0.07185 0.0564 0.0
H392 H 0.49013 0.12561 0.10021 0.0
H393 H 0.49145 0.04359 0.91308 0.0
H394 H 0.56085 0.05291 0.13536 0.0
H395 H 0.60393 0.07431 0.22045 0.0
H396 H 0.66465 0.05014 0.04859 0.0
H397 H 0.62185 0.02895 0.962 0.0
C398 C 0.52195 0.89879 0.87497 0.0
C399 C 0.5467 0.88846 0.83507 0.0
C400 C 0.51946 0.92943 0.90024 0.0
C401 C 0.54142 0.95042 0.88523 0.0
C402 C 0.56591 0.94024 0.84451 0.0
C403 C 0.56852 0.90959 0.81961 0.0
C404 C 0.53915 0.98291 0.91309 0.0
C405 C 0.56359 0.99663 0.95922 0.0
C406 C 0.51276 1.00003 0.89665 0.0
C407 C 0.48663 0.98722 0.84613 0.0
C408 C 0.49065 0.97483 0.77186 0.0
C409 C 0.46599 0.96237 0.72503 0.0
C410 C 0.43715 0.96235 0.75166 0.0
C411 C 0.4329 0.9749 0.82512 0.0
C412 C 0.45749 0.98737 0.87219 0.0
C413 C 0.55361 0.1281 0.00408 0.0
C414 C 0.53018 0.13881 0.04822 0.0
C415 C 0.55546 0.09735 -0.02054 0.0
C416 C 0.53393 0.07672 -0.00157 0.0
C417 C 0.51023 0.08739 0.04131 0.0
C418 C 0.50844 0.11812 0.06631 0.0
C419 C 0.53594 0.04407 0.97259 0.0
C420 C 0.51143 0.0303 0.92704 0.0
C421 C 0.56223 0.0269 -0.01014 0.0
C422 C 0.58806 0.03963 0.04183 0.0
C423 C 0.58334 0.0524 0.11541 0.0
C424 C 0.60773 0.06444 0.16399 0.0
C425 C 0.637 0.06368 0.13985 0.0
C426 C 0.64196 0.05077 0.06716 0.0
C427 C 0.61764 0.03871 0.01833 0.0
H428 H 0.65584 0.07303 0.17753 0.0
H429 H 0.41808 0.95267 0.71535 0.0
H430 H 0.92275 0.89028 0.5272 0.0
H431 H 0.93352 0.94154 0.49752 0.0
H432 H 0.02792 0.9306 0.57205 0.0
H433 H 0.0172 0.87911 0.60325 0.0
H434 H 0.00814 0.9862 0.61928 0.0
H435 H 0.0073 0.92628 0.38506 0.0
H436 H 0.98908 0.88791 0.28207 0.0
H437 H 0.9085 0.9398 0.23821 0.0
H438 H 0.92603 0.97832 0.34163 0.0
H439 H 0.03098 0.1257 0.44285 0.0
H440 H 0.03652 0.07242 0.46967 0.0
H441 H 0.93928 0.06151 0.44396 0.0
H442 H 0.9335 0.11433 0.41811 0.0
H443 H 0.97192 0.01505 0.36345 0.0
H444 H 0.97288 0.07105 0.61506 0.0
H445 H 0.99438 0.10944 0.7143 0.0
H446 H 0.08016 0.06384 0.71833 0.0
H447 H 0.05924 0.02538 0.61833 0.0
C448 C 0.94581 0.89873 0.53763 0.0
C449 C 0.96918 0.88051 0.56689 0.0
C450 C 0.95196 0.92802 0.52026 0.0
C451 C 0.98166 0.93962 0.5309 0.0
C452 C 1.0049 0.92196 0.56279 0.0
C453 C 0.99873 0.89258 0.58056 0.0
C454 C 0.98799 0.97018 0.50803 0.0
C455 C 1.00081 0.99236 0.56286 0.0
C456 C 0.97864 0.97818 0.4342 0.0
C457 C 0.96791 0.95512 0.37162 0.0
C458 C 0.98558 0.92942 0.35387 0.0
C459 C 0.9754 0.90765 0.29532 0.0
C460 C 0.94762 0.91138 0.25373 0.0
C461 C 0.93001 0.93693 0.2705 0.0
C462 C 0.94009 0.95877 0.32903 0.0
C463 C 0.01082 0.11192 0.44315 0.0
C464 C 0.98179 0.12426 0.4287 0.0
C465 C 0.01403 0.08156 0.45841 0.0
C466 C 0.98828 0.06314 0.45871 0.0
C467 C 0.95941 0.07537 0.44372 0.0
C468 C 0.95617 0.10564 0.4294 0.0
C469 C 0.99083 0.03113 0.47554 0.0
C470 C 0.97977 0.00867 0.41934 0.0
C471 C 1.0023 0.02282 0.5475 0.0
C472 C 0.01462 0.04559 0.6086 0.0
C473 C 0.99639 0.06934 0.63673 0.0
C474 C 0.00845 0.09109 0.69318 0.0
C475 C 0.03865 0.08915 0.72238 0.0
C476 C 0.05679 0.06536 0.69552 0.0
C477 C 0.04484 0.04357 0.63901 0.0
H478 H 0.04797 0.10605 0.76595 0.0
H479 H 0.93977 0.89449 0.20845 0.0
H480 H 0.02684 0.29447 0.18583 0.0
H481 H 0.03148 0.30028 0.05181 0.0
H482 H 0.04137 0.20353 0.00827 0.0
H483 H 0.03693 0.19751 0.14191 0.0
H484 H 0.07221 0.23429 0.91419 0.0
H485 H 0.9736 0.23186 0.00514 0.0
H486 H 0.93226 0.24755 0.0847 0.0
H487 H 0.92983 0.33479 -0.00262 0.0
H488 H 0.97179 0.31993 0.9187 0.0
H489 H 0.01411 0.21494 0.53599 0.0
H490 H 0.0078 0.21152 0.67067 0.0
H491 H 0.01994 0.30829 0.71384 0.0
H492 H 0.02693 0.31184 0.57964 0.0
H493 H 0.97546 0.27635 0.80605 0.0
H494 H 0.07962 0.27635 0.72376 0.0
H495 H 0.11658 0.25584 0.63613 0.0
H496 H 0.10311 0.16656 0.70363 0.0
H497 H 0.06546 0.1865 0.79033 0.0
C498 C 0.03118 0.27458 0.14825 0.0
C499 C 0.03045 0.24542 0.17309 0.0
C500 C 0.03367 0.27794 0.07186 0.0
C501 C 0.03561 0.25219 0.02059 0.0
C502 C 0.03936 0.22355 0.04732 0.0
C503 C 0.03676 0.22016 0.1235 0.0
C504 C 0.02929 0.25432 0.93897 0.0
C505 C 0.05106 0.24341 0.89066 0.0
C506 C 1.00132 0.26578 0.90872 0.0
C507 C 0.97625 0.27492 0.95681 0.0
C508 C 0.96458 0.25455 0.00362 0.0
C509 C 0.94097 0.26326 0.04848 0.0
C510 C 0.92849 0.29217 0.04628 0.0
C511 C 0.9396 0.31243 -0.00078 0.0
C512 C 0.96335 0.30389 0.95458 0.0
C513 C 0.01501 0.23549 0.57421 0.0
C514 C 0.02201 0.26352 0.54888 0.0
C515 C 0.01096 0.23354 0.65042 0.0
C516 C 0.01355 0.25968 0.70117 0.0
C517 C 0.01782 0.28802 0.67474 0.0
C518 C 0.02242 0.28991 0.59884 0.0
C519 C 0.0186 0.25686 0.78247 0.0
C520 C 0.9966 0.26745 0.8303 0.0
C521 C 0.04601 0.24457 0.81248 0.0
C522 C 0.06963 0.23286 0.76307 0.0
C523 C 0.08444 0.25233 0.7196 0.0
C524 C 0.10548 0.24081 0.67005 0.0
C525 C 0.11218 0.20991 0.66426 0.0
C526 C 0.09789 0.19049 0.70815 0.0
C527 C 0.0767 0.20188 0.75748 0.0
H528 H 0.12847 0.20102 0.62587 0.0
H529 H 0.91016 0.29883 0.08088 0.0
H530 H 0.97148 0.75813 0.80829 0.0
H531 H 0.96996 0.75632 0.94535 0.0
H532 H 0.06789 0.75498 0.97195 0.0
H533 H 0.06936 0.75575 0.83487 0.0
H534 H 0.04656 0.7095 0.03147 0.0
H535 H 0.02635 0.81539 0.04881 0.0
H536 H 1.00165 0.86379 0.02353 0.0
H537 H 0.9174 0.83051 0.088 0.0
H538 H 0.94147 0.78176 0.11281 0.0
H539 H 0.05554 0.74491 0.43889 0.0
H540 H 0.06089 0.73322 0.30344 0.0
H541 H 0.96486 0.71496 0.26487 0.0
H542 H 0.95936 0.7266 0.39991 0.0
H543 H 0.98562 0.76955 0.21236 0.0
H544 H 0.00943 0.66342 0.19993 0.0
H545 H 0.0377 0.61788 0.23364 0.0
H546 H 0.11957 0.65579 0.16712 0.0
H547 H 0.0919 0.70177 0.13418 0.0
C548 C 0.9926 0.75799 0.84382 0.0
C549 C 0.02049 0.75644 0.81156 0.0
C550 C 0.99176 0.75716 0.92201 0.0
C551 C 0.01884 0.75537 0.96869 0.0
C552 C 0.04675 0.75599 0.93673 0.0
C553 C 0.04757 0.75627 0.85863 0.0
C554 C 0.01805 0.74872 0.04846 0.0
C555 C 0.0336 0.72295 0.07144 0.0
C556 C 1.00056 0.76585 0.09981 0.0
C557 C 0.98566 0.79472 0.08174 0.0
C558 C 1.00245 0.81821 0.05657 0.0
C559 C 0.98859 0.84577 0.04264 0.0
C560 C 0.95795 0.85019 0.05393 0.0
C561 C 0.94111 0.82704 0.07912 0.0
C562 C 0.95486 0.79944 0.09316 0.0
C563 C 0.03589 0.73686 0.40213 0.0
C564 C 0.00688 0.73772 0.42876 0.0
C565 C 0.03897 0.73014 0.32479 0.0
C566 C 0.01309 0.72406 0.27447 0.0
C567 C 0.98497 0.72002 0.30311 0.0
C568 C 0.98187 0.72679 0.38012 0.0
C569 C 0.0138 0.73025 0.19461 0.0
C570 C 0.99839 0.75609 0.17196 0.0
C571 C 0.03186 0.71359 0.1442 0.0
C572 C 0.04863 0.68618 0.16533 0.0
C573 C 0.03353 0.66221 0.19335 0.0
C574 C 0.04944 0.63627 0.21209 0.0
C575 C 0.08042 0.63397 0.20268 0.0
C576 C 0.09558 0.65761 0.17447 0.0
C577 C 0.07979 0.6836 0.15573 0.0
H578 H 0.09268 0.61385 0.21708 0.0
H579 H 0.9473 0.87158 0.04339 0.0
H580 H 0.50406 0.80742 0.05872 0.0
H581 H 0.49579 0.8048 0.19269 0.0
H582 H 0.52102 0.71039 0.17479 0.0
H583 H 0.52714 0.71251 0.03935 0.0
H584 H 0.48128 0.72379 0.28488 0.0
H585 H 0.57663 0.76424 0.20858 0.0
H586 H 0.60189 0.79991 0.13478 0.0
H587 H 0.56139 0.87494 0.25909 0.0
H588 H 0.53563 0.83963 0.33299 0.0
H589 H 0.54286 0.70049 0.63717 0.0
H590 H 0.54849 0.7073 0.5041 0.0
H591 H 0.52586 0.80183 0.54385 0.0
H592 H 0.52136 0.79548 0.67747 0.0
H593 H 0.56081 0.79143 0.4243 0.0
H594 H 0.46928 0.75248 0.50934 0.0
H595 H 0.44041 0.71801 0.57798 0.0
H596 H 0.46979 0.64178 0.43599 0.0
H597 H 0.49923 0.6759 0.36696 0.0
C598 C 0.50731 0.78608 0.08355 0.0
C599 C 0.51745 0.76046 0.04105 0.0
C600 C 0.50224 0.78448 0.1593 0.0
C601 C 0.50883 0.75769 0.19361 0.0
C602 C 0.51613 0.73133 0.14914 0.0
C603 C 0.52012 0.73265 0.07257 0.0
C604 C 0.51436 0.75861 0.27648 0.0
C605 C 0.49869 0.73843 0.31546 0.0
C606 C 0.53683 0.77812 0.31599 0.0
C607 C 0.55436 0.79937 0.27643 0.0
C608 C 0.57338 0.78837 0.22059 0.0
C609 C 0.58764 0.8085 0.1785 0.0
C610 C 0.58329 0.83967 0.19233 0.0
C611 C 0.56481 0.85079 0.24861 0.0
C612 C 0.55043 0.83075 0.29074 0.0
C613 C 0.54037 0.72297 0.61814 0.0
C614 C 0.53054 0.74722 0.66623 0.0
C615 C 0.54357 0.72683 0.54233 0.0
C616 C 0.53626 0.75473 0.51423 0.0
C617 C 0.53106 0.78002 0.56466 0.0
C618 C 0.52842 0.77631 0.64088 0.0
C619 C 0.52823 0.75608 0.43262 0.0
C620 C 0.54332 0.77682 0.39395 0.0
C621 C 0.50503 0.73724 0.39359 0.0
C622 C 0.48662 0.71672 0.43337 0.0
C623 C 0.46966 0.72836 0.4929 0.0
C624 C 0.4532 0.70887 0.53193 0.0
C625 C 0.45329 0.67768 0.51155 0.0
C626 C 0.46975 0.66594 0.45179 0.0
C627 C 0.48631 0.68535 0.41261 0.0
H628 H 0.44056 0.66262 0.54197 0.0
H629 H 0.59421 0.85522 0.15941 0.0
H630 H 0.47433 0.21915 0.29609 0.0
H631 H 0.47201 0.22089 0.43418 0.0
H632 H 0.53178 0.29867 0.46427 0.0
H633 H 0.53382 0.29702 0.32624 0.0
H634 H 0.55468 0.24615 0.52713 0.0
H635 H 0.46727 0.30842 0.5271 0.0
H636 H 0.41557 0.3248 0.48721 0.0
H637 H 0.37879 0.24359 0.55888 0.0
H638 H 0.43032 0.22642 0.59794 0.0
H639 H 0.5592 0.26858 0.92925 0.0
H640 H 0.56303 0.263 0.79293 0.0
H641 H 0.48705 0.20079 0.76546 0.0
H642 H 0.48177 0.2085 0.9018 0.0
H643 H 0.4723 0.24802 0.69996 0.0
H644 H 0.56149 0.18498 0.69587 0.0
H645 H 0.61391 0.16928 0.73117 0.0
H646 H 0.64789 0.25291 0.66603 0.0
H647 H 0.59569 0.26927 0.63119 0.0
C648 C 0.48598 0.23719 0.33245 0.0
C649 C 0.50442 0.25781 0.30218 0.0
C650 C 0.48458 0.23828 0.41082 0.0
C651 C 0.50189 0.25981 0.45882 0.0
C652 C 0.51832 0.28195 0.42775 0.0
C653 C 0.51951 0.28099 0.34945 0.0
C654 C 0.50749 0.25538 0.53981 0.0
C655 C 0.53684 0.24696 0.5657 0.0
C656 C 0.48389 0.25571 0.58837 0.0
C657 C 0.45278 0.26593 0.56463 0.0
C658 C 0.44822 0.29386 0.53357 0.0
C659 C 0.41891 0.30334 0.51128 0.0
C660 C 0.39392 0.2852 0.52026 0.0
C661 C 0.39818 0.25759 0.5518 0.0
C662 C 0.42744 0.24798 0.57407 0.0
C663 C 0.54434 0.25252 0.89445 0.0
C664 C 0.51972 0.23954 0.92474 0.0
C665 C 0.54656 0.24925 0.81624 0.0
C666 C 0.52482 0.23202 0.76855 0.0
C667 C 0.50363 0.21473 0.80111 0.0
C668 C 0.50073 0.2189 0.8789 0.0
C669 C 0.51955 0.23774 0.68761 0.0
C670 C 0.49023 0.24679 0.66168 0.0
C671 C 0.54325 0.23804 0.63896 0.0
C672 C 0.57462 0.22845 0.66158 0.0
C673 C 0.58011 0.20015 0.68983 0.0
C674 C 0.60981 0.1911 0.70954 0.0
C675 C 0.63421 0.21011 0.70102 0.0
C676 C 0.62898 0.23821 0.67269 0.0
C677 C 0.59935 0.24737 0.65287 0.0
H678 H 0.65717 0.20304 0.71622 0.0
H679 H 0.37125 0.29257 0.50294 0.0
loop_
_geom_bond_atom_site_label_1
_geom_bond_atom_site_label_2
_geom_bond_distance
_geom_bond_site_symmetry_2
_ccdc_geom_bond_type
Zn0 O6 1.969 . S
Zn0 O7 1.965 . S
Zn0 O11 2.024 . S
Zn0 O16 1.969 . S
Zn1 O8 1.969 . S
Zn1 O14 1.969 . S
Zn1 O15 1.965 1_655 S
Zn1 O17 2.024 . S
C2 O3 1.229 . S
C2 O11 1.058 . S
O3 C2 1.229 . S
C4 O5 1.229 . S
C4 O17 1.058 . S
O5 C4 1.229 . S
O6 Zn0 1.969 . S
O6 C9 1.267 . S
O7 Zn0 1.965 . S
O7 C18 1.260 . S
O8 Zn1 1.969 . S
O8 C18 1.258 1_655 S
C9 O6 1.267 . S
C9 O10 1.228 . S
O10 C9 1.228 . S
O11 Zn0 2.024 . S
O11 C2 1.058 . S
C12 O13 1.228 . S
C12 O14 1.267 . S
O13 C12 1.228 . S
O14 Zn1 1.969 . S
O14 C12 1.267 . S
O15 Zn1 1.965 1_455 S
O15 C19 1.260 . S
O16 Zn0 1.969 . S
O16 C19 1.258 . S
O17 Zn1 2.024 . S
O17 C4 1.058 . S
C18 O7 1.260 . S
C18 O8 1.258 1_455 S
C19 O15 1.260 . S
C19 O16 1.258 . S
Zn20 O26 1.969 . S
Zn20 O27 1.965 . S
Zn20 O31 2.024 . S
Zn20 O36 1.969 . S
Zn21 O28 1.969 . S
Zn21 O34 1.969 . S
Zn21 O35 1.965 . S
Zn21 O37 2.024 . S
C22 O23 1.229 . S
C22 O31 1.058 . S
O23 C22 1.229 . S
C24 O25 1.229 . S
C24 O37 1.058 . S
O25 C24 1.229 . S
O26 Zn20 1.969 . S
O26 C29 1.267 . S
O27 Zn20 1.965 . S
O27 C38 1.260 . S
O28 Zn21 1.969 . S
O28 C38 1.258 1_655 S
C29 O26 1.267 . S
C29 O30 1.228 . S
O30 C29 1.228 . S
O31 Zn20 2.024 . S
O31 C22 1.058 . S
C32 O33 1.228 . S
C32 O34 1.267 . S
O33 C32 1.228 . S
O34 Zn21 1.969 . S
O34 C32 1.267 . S
O35 Zn21 1.965 . S
O35 C39 1.260 1_655 S
O36 Zn20 1.969 . S
O36 C39 1.258 . S
O37 Zn21 2.024 . S
O37 C24 1.058 . S
C38 O27 1.260 . S
C38 O28 1.258 1_455 S
C39 O35 1.260 1_455 S
C39 O36 1.258 . S
Zn40 O46 1.969 . S
Zn40 O47 1.965 . S
Zn40 O51 2.024 . S
Zn40 O56 1.969 . S
Zn41 O48 1.969 . S
Zn41 O54 1.969 . S
Zn41 O55 1.965 . S
Zn41 O57 2.024 . S
C42 O43 1.229 . S
C42 O51 1.058 . S
O43 C42 1.229 . S
C44 O45 1.229 . S
C44 O57 1.058 . S
O45 C44 1.229 . S
O46 Zn40 1.969 . S
O46 C49 1.267 . S
O47 Zn40 1.965 . S
O47 C58 1.260 . S
O48 Zn41 1.969 . S
O48 C58 1.258 . S
C49 O46 1.267 . S
C49 O50 1.228 . S
O50 C49 1.228 . S
O51 Zn40 2.024 . S
O51 C42 1.058 . S
C52 O53 1.228 . S
C52 O54 1.267 . S
O53 C52 1.228 . S
O54 Zn41 1.969 . S
O54 C52 1.267 . S
O55 Zn41 1.965 . S
O55 C59 1.260 . S
O56 Zn40 1.969 . S
O56 C59 1.258 . S
O57 Zn41 2.024 . S
O57 C44 1.058 . S
C58 O47 1.260 . S
C58 O48 1.258 . S
C59 O55 1.260 . S
C59 O56 1.258 . S
Zn60 O66 1.969 . S
Zn60 O67 1.965 . S
Zn60 O71 2.024 . S
Zn60 O76 1.969 . S
Zn61 O68 1.969 . S
Zn61 O74 1.969 . S
Zn61 O75 1.965 . S
Zn61 O77 2.024 . S
C62 O63 1.229 . S
C62 O71 1.058 . S
O63 C62 1.229 . S
C64 O65 1.229 . S
C64 O77 1.058 . S
O65 C64 1.229 . S
O66 Zn60 1.969 . S
O66 C69 1.267 . S
O67 Zn60 1.965 . S
O67 C78 1.260 . S
O68 Zn61 1.969 . S
O68 C78 1.258 . S
C69 O66 1.267 . S
C69 O70 1.228 . S
O70 C69 1.228 . S
O71 Zn60 2.024 . S
O71 C62 1.058 . S
C72 O73 1.228 . S
C72 O74 1.267 . S
O73 C72 1.228 . S
O74 Zn61 1.969 . S
O74 C72 1.267 . S
O75 Zn61 1.965 . S
O75 C79 1.260 . S
O76 Zn60 1.969 . S
O76 C79 1.258 . S
O77 Zn61 2.024 . S
O77 C64 1.058 . S
C78 O67 1.260 . S
C78 O68 1.258 . S
C79 O75 1.260 . S
C79 O76 1.258 . S
H80 C98 0.951 . S
H81 C100 0.951 . S
H82 C102 0.950 1_655 S
H83 C103 0.927 1_655 S
H84 C105 0.950 1_655 S
H85 C108 0.950 . S
H86 C109 0.950 . S
H87 C111 0.950 . S
H88 C112 0.950 . S
H89 C113 0.951 1_655 S
H90 C115 0.951 1_655 S
H91 C117 0.950 . S
H92 C118 0.950 . S
H93 C120 0.950 . S
H94 C123 0.950 . S
H95 C124 0.950 . S
H96 C126 0.950 . S
H97 C127 0.950 . S
C98 H80 0.951 . S
C98 C99 1.366 . S
C98 C100 1.388 . S
C99 C98 1.366 . S
C99 C103 1.385 . S
C100 H81 0.951 . S
C100 C98 1.388 . S
C100 C101 1.366 . S
C101 C100 1.366 . S
C101 C102 1.414 . S
C101 C104 1.499 . S
C102 H82 0.950 1_455 S
C102 C101 1.414 . S
C102 C103 1.374 . S
C103 H83 0.927 1_455 S
C103 C99 1.385 . S
C103 C102 1.374 . S
C104 C101 1.499 . S
C104 C105 1.373 . S
C104 C106 1.389 . S
C105 H84 0.950 1_455 S
C105 C104 1.373 . S
C105 C121 1.377 . S
C106 C104 1.389 . S
C106 C107 1.524 . S
C106 C120 1.377 . S
C107 C106 1.524 . S
C107 C108 1.397 . S
C107 C112 1.363 . S
C108 H85 0.950 . S
C108 C107 1.397 . S
C108 C109 1.334 . S
C109 H86 0.950 . S
C109 C108 1.334 . S
C109 C110 1.287 . S
C110 C109 1.287 . S
C110 C111 1.524 . S
C110 H129 0.913 . S
C111 H87 0.950 . S
C111 C110 1.524 . S
C111 C112 1.415 . S
C112 H88 0.950 . S
C112 C107 1.363 . S
C112 C111 1.415 . S
C113 H89 0.951 1_455 S
C113 C114 1.366 . S
C113 C115 1.388 . S
C114 C113 1.366 . S
C114 C118 1.385 . S
C115 H90 0.951 1_455 S
C115 C113 1.388 . S
C115 C116 1.366 . S
C116 C115 1.366 . S
C116 C117 1.414 . S
C116 C119 1.499 . S
C117 H91 0.950 . S
C117 C116 1.414 . S
C117 C118 1.374 . S
C118 H92 0.950 . S
C118 C114 1.385 . S
C118 C117 1.374 . S
C119 C116 1.499 . S
C119 C120 1.373 . S
C119 C121 1.389 . S
C120 H93 0.950 . S
C120 C106 1.377 . S
C120 C119 1.373 . S
C121 C105 1.377 . S
C121 C119 1.389 . S
C121 C122 1.524 1_455 S
C122 C121 1.524 1_655 S
C122 C123 1.397 . S
C122 C127 1.363 . S
C123 H94 0.950 . S
C123 C122 1.397 . S
C123 C124 1.334 . S
C124 H95 0.950 . S
C124 C123 1.334 . S
C124 C125 1.287 . S
C125 C124 1.287 . S
C125 C126 1.524 . S
C125 H128 0.999 . S
C126 H96 0.950 . S
C126 C125 1.524 . S
C126 C127 1.415 . S
C127 H97 0.950 . S
C127 C122 1.363 . S
C127 C126 1.415 . S
H128 C125 0.999 . S
H129 C110 0.913 . S
H130 C148 0.951 . S
H131 C150 0.951 . S
H132 C152 0.950 . S
H133 C153 0.950 . S
H134 C155 0.950 . S
H135 C158 0.950 . S
H136 C159 0.950 . S
H137 C161 0.950 . S
H138 C162 0.950 . S
H139 C163 0.951 . S
H140 C165 0.951 . S
H141 C167 0.950 . S
H142 C168 0.950 . S
H143 C170 0.950 . S
H144 C173 0.950 . S
H145 C174 0.950 . S
H146 C176 0.950 . S
H147 C177 0.950 . S
C148 H130 0.951 . S
C148 C149 1.366 . S
C148 C150 1.388 . S
C149 C148 1.366 . S
C149 C153 1.385 . S
C150 H131 0.951 . S
C150 C148 1.388 . S
C150 C151 1.366 . S
C151 C150 1.366 . S
C151 C152 1.414 . S
C151 C154 1.499 . S
C152 H132 0.950 . S
C152 C151 1.414 . S
C152 C153 1.374 . S
C153 H133 0.950 . S
C153 C149 1.385 . S
C153 C152 1.374 . S
C154 C151 1.499 . S
C154 C155 1.373 . S
C154 C156 1.389 . S
C155 H134 0.950 . S
C155 C154 1.373 . S
C155 C171 1.377 . S
C156 C154 1.389 . S
C156 C157 1.524 . S
C156 C170 1.377 . S
C157 C156 1.524 . S
C157 C158 1.397 . S
C157 C162 1.363 . S
C158 H135 0.950 . S
C158 C157 1.397 . S
C158 C159 1.334 . S
C159 H136 0.950 . S
C159 C158 1.334 . S
C159 C160 1.287 . S
C160 C159 1.287 . S
C160 C161 1.524 . S
C160 H179 0.913 . S
C161 H137 0.950 . S
C161 C160 1.524 . S
C161 C162 1.415 . S
C162 H138 0.950 . S
C162 C157 1.363 . S
C162 C161 1.415 . S
C163 H139 0.951 . S
C163 C164 1.366 . S
C163 C165 1.388 . S
C164 C163 1.366 . S
C164 C168 1.385 . S
C165 H140 0.951 . S
C165 C163 1.388 . S
C165 C166 1.366 . S
C166 C165 1.366 . S
C166 C167 1.414 . S
C166 C169 1.499 . S
C167 H141 0.950 . S
C167 C166 1.414 . S
C167 C168 1.374 . S
C168 H142 0.950 . S
C168 C164 1.385 . S
C168 C167 1.374 . S
C169 C166 1.499 . S
C169 C170 1.373 . S
C169 C171 1.389 . S
C170 H143 0.950 . S
C170 C156 1.377 . S
C170 C169 1.373 . S
C171 C155 1.377 . S
C171 C169 1.389 . S
C171 C172 1.524 . S
C172 C171 1.524 . S
C172 C173 1.397 . S
C172 C177 1.363 . S
C173 H144 0.950 . S
C173 C172 1.397 . S
C173 C174 1.334 . S
C174 H145 0.950 . S
C174 C173 1.334 . S
C174 C175 1.287 . S
C175 C174 1.287 . S
C175 C176 1.524 . S
C175 H178 0.999 . S
C176 H146 0.950 . S
C176 C175 1.524 . S
C176 C177 1.415 . S
C177 H147 0.950 . S
C177 C172 1.363 . S
C177 C176 1.415 . S
H178 C175 0.999 . S
H179 C160 0.913 . S
H180 C198 0.951 . S
H181 C200 0.951 . S
H182 C202 0.950 . S
H183 C203 0.950 . S
H184 C205 0.950 . S
H185 C208 0.950 . S
H186 C209 0.950 . S
H187 C211 0.950 . S
H188 C212 0.950 . S
H189 C213 0.951 . S
H190 C215 0.951 . S
H191 C217 0.950 . S
H192 C218 0.950 . S
H193 C220 0.950 . S
H194 C223 0.950 . S
H195 C224 0.950 . S
H196 C226 0.950 . S
H197 C227 0.950 . S
C198 H180 0.951 . S
C198 C199 1.366 . S
C198 C200 1.388 . S
C199 C198 1.366 . S
C199 C203 1.385 . S
C200 H181 0.951 . S
C200 C198 1.388 . S
C200 C201 1.366 . S
C201 C200 1.366 . S
C201 C202 1.414 . S
C201 C204 1.499 . S
C202 H182 0.950 . S
C202 C201 1.414 . S
C202 C203 1.374 . S
C203 H183 0.950 . S
C203 C199 1.385 . S
C203 C202 1.374 . S
C204 C201 1.499 . S
C204 C205 1.373 1_554 S
C204 C206 1.389 . S
C205 H184 0.950 . S
C205 C204 1.373 1_556 S
C205 C221 1.377 . S
C206 C204 1.389 . S
C206 C207 1.524 . S
C206 C220 1.377 . S
C207 C206 1.524 . S
C207 C208 1.397 . S
C207 C212 1.363 . S
C208 H185 0.950 . S
C208 C207 1.397 . S
C208 C209 1.334 . S
C209 H186 0.950 . S
C209 C208 1.334 . S
C209 C210 1.287 . S
C210 C209 1.287 . S
C210 C211 1.524 . S
C210 H229 0.913 . S
C211 H187 0.950 . S
C211 C210 1.524 . S
C211 C212 1.415 . S
C212 H188 0.950 . S
C212 C207 1.363 . S
C212 C211 1.415 . S
C213 H189 0.951 . S
C213 C214 1.366 . S
C213 C215 1.388 . S
C214 C213 1.366 . S
C214 C218 1.385 . S
C215 H190 0.951 . S
C215 C213 1.388 . S
C215 C216 1.366 . S
C216 C215 1.366 . S
C216 C217 1.414 . S
C216 C219 1.499 . S
C217 H191 0.950 . S
C217 C216 1.414 . S
C217 C218 1.374 . S
C218 H192 0.950 . S
C218 C214 1.385 . S
C218 C217 1.374 . S
C219 C216 1.499 . S
C219 C220 1.373 1_556 S
C219 C221 1.389 . S
C220 H193 0.950 . S
C220 C206 1.377 . S
C220 C219 1.373 1_554 S
C221 C205 1.377 . S
C221 C219 1.389 . S
C221 C222 1.524 . S
C222 C221 1.524 . S
C222 C223 1.397 . S
C222 C227 1.363 . S
C223 H194 0.950 . S
C223 C222 1.397 . S
C223 C224 1.334 . S
C224 H195 0.950 . S
C224 C223 1.334 . S
C224 C225 1.287 . S
C225 C224 1.287 . S
C225 C226 1.524 . S
C225 H228 0.999 . S
C226 H196 0.950 . S
C226 C225 1.524 . S
C226 C227 1.415 . S
C227 H197 0.950 . S
C227 C222 1.363 . S
C227 C226 1.415 . S
H228 C225 0.999 . S
H229 C210 0.913 . S
H230 C248 0.951 . S
H231 C250 0.951 . S
H232 C252 0.950 . S
H233 C253 0.950 . S
H234 C255 0.950 . S
H235 C258 0.950 . S
H236 C259 0.950 . S
H237 C261 0.950 . S
H238 C262 0.950 . S
H239 C263 0.951 . S
H240 C265 0.951 . S
H241 C267 0.950 . S
H242 C268 0.950 . S
H243 C270 0.950 . S
H244 C273 0.950 . S
H245 C274 0.950 . S
H246 C276 0.950 . S
H247 C277 0.950 . S
C248 H230 0.951 . S
C248 C249 1.366 . S
C248 C250 1.388 . S
C249 C248 1.366 . S
C249 C253 1.385 . S
C250 H231 0.951 . S
C250 C248 1.388 . S
C250 C251 1.366 . S
C251 C250 1.366 . S
C251 C252 1.414 . S
C251 C254 1.499 . S
C252 H232 0.950 . S
C252 C251 1.414 . S
C252 C253 1.374 . S
C253 H233 0.950 . S
C253 C249 1.385 . S
C253 C252 1.374 . S
C254 C251 1.499 . S
C254 C255 1.373 . S
C254 C256 1.389 . S
C255 H234 0.950 . S
C255 C254 1.373 . S
C255 C271 1.377 . S
C256 C254 1.389 . S
C256 C257 1.524 . S
C256 C270 1.377 . S
C257 C256 1.524 . S
C257 C258 1.397 . S
C257 C262 1.363 . S
C258 H235 0.950 . S
C258 C257 1.397 . S
C258 C259 1.334 . S
C259 H236 0.950 . S
C259 C258 1.334 . S
C259 C260 1.287 . S
C260 C259 1.287 . S
C260 C261 1.524 . S
C260 H279 0.913 . S
C261 H237 0.950 . S
C261 C260 1.524 . S
C261 C262 1.415 . S
C262 H238 0.950 . S
C262 C257 1.363 . S
C262 C261 1.415 . S
C263 H239 0.951 . S
C263 C264 1.366 . S
C263 C265 1.388 . S
C264 C263 1.366 . S
C264 C268 1.385 . S
C265 H240 0.951 . S
C265 C263 1.388 . S
C265 C266 1.366 . S
C266 C265 1.366 . S
C266 C267 1.414 . S
C266 C269 1.499 . S
C267 H241 0.950 . S
C267 C266 1.414 . S
C267 C268 1.374 . S
C268 H242 0.950 . S
C268 C264 1.385 . S
C268 C267 1.374 . S
C269 C266 1.499 . S
C269 C270 1.373 . S
C269 C271 1.389 . S
C270 H243 0.950 . S
C270 C256 1.377 . S
C270 C269 1.373 . S
C271 C255 1.377 . S
C271 C269 1.389 . S
C271 C272 1.524 . S
C272 C271 1.524 . S
C272 C273 1.397 . S
C272 C277 1.363 . S
C273 H244 0.950 . S
C273 C272 1.397 . S
C273 C274 1.334 . S
C274 H245 0.950 . S
C274 C273 1.334 . S
C274 C275 1.287 . S
C275 C274 1.287 . S
C275 C276 1.524 . S
C275 H278 0.999 . S
C276 H246 0.950 . S
C276 C275 1.524 . S
C276 C277 1.415 . S
C277 H247 0.950 . S
C277 C272 1.363 . S
C277 C276 1.415 . S
H278 C275 0.999 . S
H279 C260 0.913 . S
H280 C298 0.951 . S
H281 C300 0.951 . S
H282 C302 0.950 . S
H283 C303 0.950 . S
H284 C305 0.950 . S
H285 C308 0.950 . S
H286 C309 0.950 . S
H287 C311 0.950 . S
H288 C312 0.950 . S
H289 C313 0.951 . S
H290 C315 0.951 . S
H291 C317 0.950 . S
H292 C318 0.950 . S
H293 C320 0.950 . S
H294 C323 0.950 . S
H295 C324 0.950 . S
H296 C326 0.950 . S
H297 C327 0.950 . S
C298 H280 0.951 . S
C298 C299 1.366 . S
C298 C300 1.388 . S
C299 C298 1.366 . S
C299 C303 1.385 . S
C300 H281 0.951 . S
C300 C298 1.388 . S
C300 C301 1.366 . S
C301 C300 1.366 . S
C301 C302 1.414 . S
C301 C304 1.499 . S
C302 H282 0.950 . S
C302 C301 1.414 . S
C302 C303 1.374 . S
C303 H283 0.950 . S
C303 C299 1.385 . S
C303 C302 1.374 . S
C304 C301 1.499 . S
C304 C305 1.373 . S
C304 C306 1.389 . S
C305 H284 0.950 . S
C305 C304 1.373 . S
C305 C321 1.377 . S
C306 C304 1.389 . S
C306 C307 1.524 . S
C306 C320 1.377 . S
C307 C306 1.524 . S
C307 C308 1.397 . S
C307 C312 1.363 . S
C308 H285 0.950 . S
C308 C307 1.397 . S
C308 C309 1.334 . S
C309 H286 0.950 . S
C309 C308 1.334 . S
C309 C310 1.287 1_554 S
C310 C309 1.287 1_556 S
C310 C311 1.524 . S
C310 H329 0.913 . S
C311 H287 0.950 . S
C311 C310 1.524 . S
C311 C312 1.415 1_556 S
C312 H288 0.950 . S
C312 C307 1.363 . S
C312 C311 1.415 1_554 S
C313 H289 0.951 . S
C313 C314 1.366 . S
C313 C315 1.388 . S
C314 C313 1.366 . S
C314 C318 1.385 . S
C315 H290 0.951 . S
C315 C313 1.388 . S
C315 C316 1.366 . S
C316 C315 1.366 . S
C316 C317 1.414 . S
C316 C319 1.499 . S
C317 H291 0.950 . S
C317 C316 1.414 . S
C317 C318 1.374 . S
C318 H292 0.950 . S
C318 C314 1.385 . S
C318 C317 1.374 . S
C319 C316 1.499 . S
C319 C320 1.373 . S
C319 C321 1.389 . S
C320 H293 0.950 . S
C320 C306 1.377 . S
C320 C319 1.373 . S
C321 C305 1.377 . S
C321 C319 1.389 . S
C321 C322 1.524 . S
C322 C321 1.524 . S
C322 C323 1.397 . S
C322 C327 1.363 . S
C323 H294 0.950 . S
C323 C322 1.397 . S
C323 C324 1.334 . S
C324 H295 0.950 . S
C324 C323 1.334 . S
C324 C325 1.287 . S
C325 C324 1.287 . S
C325 C326 1.524 . S
C325 H328 0.999 . S
C326 H296 0.950 . S
C326 C325 1.524 . S
C326 C327 1.415 . S
C327 H297 0.950 . S
C327 C322 1.363 . S
C327 C326 1.415 . S
H328 C325 0.999 . S
H329 C310 0.913 . S
H330 C348 0.951 . S
H331 C350 0.951 . S
H332 C352 0.950 . S
H333 C353 0.950 . S
H334 C355 0.950 . S
H335 C358 0.950 . S
H336 C359 0.950 . S
H337 C361 0.950 . S
H338 C362 0.950 . S
H339 C363 0.951 . S
H340 C365 0.951 . S
H341 C367 0.950 . S
H342 C368 0.950 . S
H343 C370 0.950 . S
H344 C373 0.950 . S
H345 C374 0.950 . S
H346 C376 0.950 . S
H347 C377 0.950 . S
C348 H330 0.951 . S
C348 C349 1.366 . S
C348 C350 1.388 . S
C349 C348 1.366 . S
C349 C353 1.385 . S
C350 H331 0.951 . S
C350 C348 1.388 . S
C350 C351 1.366 . S
C351 C350 1.366 . S
C351 C352 1.414 . S
C351 C354 1.499 . S
C352 H332 0.950 . S
C352 C351 1.414 . S
C352 C353 1.374 . S
C353 H333 0.950 . S
C353 C349 1.385 . S
C353 C352 1.374 . S
C354 C351 1.499 . S
C354 C355 1.373 . S
C354 C356 1.389 . S
C355 H334 0.950 . S
C355 C354 1.373 . S
C355 C371 1.377 . S
C356 C354 1.389 . S
C356 C357 1.524 . S
C356 C370 1.377 . S
C357 C356 1.524 . S
C357 C358 1.397 . S
C357 C362 1.363 . S
C358 H335 0.950 . S
C358 C357 1.397 . S
C358 C359 1.334 . S
C359 H336 0.950 . S
C359 C358 1.334 . S
C359 C360 1.287 . S
C360 C359 1.287 . S
C360 C361 1.524 . S
C360 H379 0.913 . S
C361 H337 0.950 . S
C361 C360 1.524 . S
C361 C362 1.415 . S
C362 H338 0.950 . S
C362 C357 1.363 . S
C362 C361 1.415 . S
C363 H339 0.951 . S
C363 C364 1.366 . S
C363 C365 1.388 . S
C364 C363 1.366 . S
C364 C368 1.385 . S
C365 H340 0.951 . S
C365 C363 1.388 . S
C365 C366 1.366 . S
C366 C365 1.366 . S
C366 C367 1.414 . S
C366 C369 1.499 . S
C367 H341 0.950 . S
C367 C366 1.414 . S
C367 C368 1.374 . S
C368 H342 0.950 . S
C368 C364 1.385 . S
C368 C367 1.374 . S
C369 C366 1.499 . S
C369 C370 1.373 . S
C369 C371 1.389 . S
C370 H343 0.950 . S
C370 C356 1.377 . S
C370 C369 1.373 . S
C371 C355 1.377 . S
C371 C369 1.389 . S
C371 C372 1.524 . S
C372 C371 1.524 . S
C372 C373 1.397 . S
C372 C377 1.363 . S
C373 H344 0.950 . S
C373 C372 1.397 . S
C373 C374 1.334 . S
C374 H345 0.950 . S
C374 C373 1.334 . S
C374 C375 1.287 . S
C375 C374 1.287 . S
C375 C376 1.524 . S
C375 H378 0.999 . S
C376 H346 0.950 . S
C376 C375 1.524 . S
C376 C377 1.415 . S
C377 H347 0.950 . S
C377 C372 1.363 . S
C377 C376 1.415 . S
H378 C375 0.999 . S
H379 C360 0.913 . S
H380 C398 0.951 . S
H381 C400 0.951 . S
H382 C402 0.950 . S
H383 C403 0.950 . S
H384 C405 0.950 . S
H385 C408 0.950 . S
H386 C409 0.950 . S
H387 C411 0.950 . S
H388 C412 0.950 . S
H389 C413 0.951 . S
H390 C415 0.951 . S
H391 C417 0.950 . S
H392 C418 0.950 . S
H393 C420 0.950 . S
H394 C423 0.950 . S
H395 C424 0.950 . S
H396 C426 0.950 . S
H397 C427 0.950 . S
C398 H380 0.951 . S
C398 C399 1.366 . S
C398 C400 1.388 . S
C399 C398 1.366 . S
C399 C403 1.385 . S
C400 H381 0.951 . S
C400 C398 1.388 . S
C400 C401 1.366 . S
C401 C400 1.366 . S
C401 C402 1.414 . S
C401 C404 1.499 . S
C402 H382 0.950 . S
C402 C401 1.414 . S
C402 C403 1.374 . S
C403 H383 0.950 . S
C403 C399 1.385 . S
C403 C402 1.374 . S
C404 C401 1.499 . S
C404 C405 1.373 1_556 S
C404 C406 1.389 . S
C405 H384 0.950 . S
C405 C404 1.373 1_554 S
C405 C421 1.377 1_565 S
C406 C404 1.389 . S
C406 C407 1.524 . S
C406 C420 1.377 1_565 S
C407 C406 1.524 . S
C407 C408 1.397 . S
C407 C412 1.363 . S
C408 H385 0.950 . S
C408 C407 1.397 . S
C408 C409 1.334 . S
C409 H386 0.950 . S
C409 C408 1.334 . S
C409 C410 1.287 . S
C410 C409 1.287 . S
C410 C411 1.524 . S
C410 H429 0.913 . S
C411 H387 0.950 . S
C411 C410 1.524 . S
C411 C412 1.415 . S
C412 H388 0.950 . S
C412 C407 1.363 . S
C412 C411 1.415 . S
C413 H389 0.951 . S
C413 C414 1.366 . S
C413 C415 1.388 . S
C414 C413 1.366 . S
C414 C418 1.385 . S
C415 H390 0.951 . S
C415 C413 1.388 . S
C415 C416 1.366 . S
C416 C415 1.366 . S
C416 C417 1.414 . S
C416 C419 1.499 . S
C417 H391 0.950 . S
C417 C416 1.414 . S
C417 C418 1.374 . S
C418 H392 0.950 . S
C418 C414 1.385 . S
C418 C417 1.374 . S
C419 C416 1.499 . S
C419 C420 1.373 1_554 S
C419 C421 1.389 . S
C420 H393 0.950 . S
C420 C406 1.377 1_545 S
C420 C419 1.373 1_556 S
C421 C405 1.377 1_545 S
C421 C419 1.389 . S
C421 C422 1.524 . S
C422 C421 1.524 . S
C422 C423 1.397 . S
C422 C427 1.363 . S
C423 H394 0.950 . S
C423 C422 1.397 . S
C423 C424 1.334 . S
C424 H395 0.950 . S
C424 C423 1.334 . S
C424 C425 1.287 . S
C425 C424 1.287 . S
C425 C426 1.524 . S
C425 H428 0.999 . S
C426 H396 0.950 . S
C426 C425 1.524 . S
C426 C427 1.415 . S
C427 H397 0.950 . S
C427 C422 1.363 . S
C427 C426 1.415 . S
H428 C425 0.999 . S
H429 C410 0.913 . S
H430 C448 0.951 . S
H431 C450 0.951 . S
H432 C452 0.950 . S
H433 C453 0.950 . S
H434 C455 0.947 1_455 S
H435 C458 0.950 . S
H436 C459 0.950 . S
H437 C461 0.950 . S
H438 C462 0.950 . S
H439 C463 0.951 . S
H440 C465 0.951 . S
H441 C467 0.950 . S
H442 C468 0.950 . S
H443 C470 0.950 . S
H444 C473 0.950 . S
H445 C474 0.950 1_655 S
H446 C476 0.950 . S
H447 C477 0.950 . S
C448 H430 0.951 . S
C448 C449 1.366 . S
C448 C450 1.388 . S
C449 C448 1.366 . S
C449 C453 1.385 1_655 S
C450 H431 0.951 . S
C450 C448 1.388 . S
C450 C451 1.366 . S
C451 C450 1.366 . S
C451 C452 1.414 1_655 S
C451 C454 1.499 . S
C452 H432 0.950 . S
C452 C451 1.414 1_455 S
C452 C453 1.374 . S
C453 H433 0.950 . S
C453 C449 1.385 1_455 S
C453 C452 1.374 . S
C454 C451 1.499 . S
C454 C455 1.376 . S
C454 C456 1.389 . S
C455 H434 0.947 1_655 S
C455 C454 1.376 . S
C455 C471 1.377 1_565 S
C456 C454 1.389 . S
C456 C457 1.524 . S
C456 C470 1.377 1_565 S
C457 C456 1.524 . S
C457 C458 1.397 . S
C457 C462 1.363 . S
C458 H435 0.950 . S
C458 C457 1.397 . S
C458 C459 1.334 . S
C459 H436 0.950 . S
C459 C458 1.334 . S
C459 C460 1.287 . S
C460 C459 1.287 . S
C460 C461 1.524 . S
C460 H479 0.913 . S
C461 H437 0.950 . S
C461 C460 1.524 . S
C461 C462 1.415 . S
C462 H438 0.950 . S
C462 C457 1.363 . S
C462 C461 1.415 . S
C463 H439 0.951 . S
C463 C464 1.366 1_455 S
C463 C465 1.388 . S
C464 C463 1.366 1_655 S
C464 C468 1.385 . S
C465 H440 0.951 . S
C465 C463 1.388 . S
C465 C466 1.366 1_455 S
C466 C465 1.366 1_655 S
C466 C467 1.414 . S
C466 C469 1.499 . S
C467 H441 0.950 . S
C467 C466 1.414 . S
C467 C468 1.374 . S
C468 H442 0.950 . S
C468 C464 1.385 . S
C468 C467 1.374 . S
C469 C466 1.499 . S
C469 C470 1.373 . S
C469 C471 1.389 . S
C470 H443 0.950 . S
C470 C456 1.377 1_545 S
C470 C469 1.373 . S
C471 C455 1.377 1_545 S
C471 C469 1.389 . S
C471 C472 1.524 1_655 S
C472 C471 1.524 1_455 S
C472 C473 1.397 1_455 S
C472 C477 1.363 . S
C473 H444 0.950 . S
C473 C472 1.397 1_655 S
C473 C474 1.334 1_655 S
C474 H445 0.950 1_455 S
C474 C473 1.334 1_455 S
C474 C475 1.287 . S
C475 C474 1.287 . S
C475 C476 1.524 . S
C475 H478 0.999 . S
C476 H446 0.950 . S
C476 C475 1.524 . S
C476 C477 1.415 . S
C477 H447 0.950 . S
C477 C472 1.363 . S
C477 C476 1.415 . S
H478 C475 0.999 . S
H479 C460 0.913 . S
H480 C498 0.950 1_655 S
H481 C500 0.951 . S
H482 C502 0.950 . S
H483 C503 0.950 . S
H484 C505 0.950 . S
H485 C508 0.950 . S
H486 C509 0.950 . S
H487 C511 0.950 . S
H488 C512 0.950 . S
H489 C513 0.951 . S
H490 C515 0.951 . S
H491 C517 0.950 . S
H492 C518 0.950 . S
H493 C520 0.950 . S
H494 C523 0.950 . S
H495 C524 0.950 . S
H496 C526 0.950 . S
H497 C527 0.950 . S
C498 H480 0.950 1_455 S
C498 C499 1.366 . S
C498 C500 1.388 . S
C499 C498 1.366 . S
C499 C503 1.385 . S
C500 H481 0.951 . S
C500 C498 1.388 . S
C500 C501 1.366 . S
C501 C500 1.366 . S
C501 C502 1.414 . S
C501 C504 1.499 1_554 S
C502 H482 0.950 . S
C502 C501 1.414 . S
C502 C503 1.374 . S
C503 H483 0.950 . S
C503 C499 1.385 . S
C503 C502 1.374 . S
C504 C501 1.499 1_556 S
C504 C505 1.373 . S
C504 C506 1.389 1_455 S
C505 H484 0.950 . S
C505 C504 1.373 . S
C505 C521 1.377 . S
C506 C504 1.389 1_655 S
C506 C507 1.524 . S
C506 C520 1.377 . S
C507 C506 1.524 . S
C507 C508 1.397 . S
C507 C512 1.363 . S
C508 H485 0.950 . S
C508 C507 1.397 . S
C508 C509 1.334 1_556 S
C509 H486 0.950 . S
C509 C508 1.334 1_554 S
C509 C510 1.287 1_554 S
C510 C509 1.287 1_556 S
C510 C511 1.524 . S
C510 H529 0.913 1_556 S
C511 H487 0.950 . S
C511 C510 1.524 . S
C511 C512 1.415 . S
C512 H488 0.950 . S
C512 C507 1.363 . S
C512 C511 1.415 . S
C513 H489 0.951 . S
C513 C514 1.366 . S
C513 C515 1.388 . S
C514 C513 1.366 . S
C514 C518 1.385 . S
C515 H490 0.951 . S
C515 C513 1.388 . S
C515 C516 1.366 . S
C516 C515 1.366 . S
C516 C517 1.414 . S
C516 C519 1.499 . S
C517 H491 0.950 . S
C517 C516 1.414 . S
C517 C518 1.374 . S
C518 H492 0.950 . S
C518 C514 1.385 . S
C518 C517 1.374 . S
C519 C516 1.499 . S
C519 C520 1.373 1_455 S
C519 C521 1.389 . S
C520 H493 0.950 . S
C520 C506 1.377 . S
C520 C519 1.373 1_655 S
C521 C505 1.377 . S
C521 C519 1.389 . S
C521 C522 1.524 . S
C522 C521 1.524 . S
C522 C523 1.397 . S
C522 C527 1.363 . S
C523 H494 0.950 . S
C523 C522 1.397 . S
C523 C524 1.334 . S
C524 H495 0.950 . S
C524 C523 1.334 . S
C524 C525 1.287 . S
C525 C524 1.287 . S
C525 C526 1.524 . S
C525 H528 0.999 . S
C526 H496 0.950 . S
C526 C525 1.524 . S
C526 C527 1.415 . S
C527 H497 0.950 . S
C527 C522 1.363 . S
C527 C526 1.415 . S
H528 C525 0.999 . S
H529 C510 0.913 1_554 S
H530 C548 0.951 . S
H531 C550 0.951 . S
H532 C552 0.950 . S
H533 C553 0.950 . S
H534 C555 0.950 . S
H535 C558 0.950 1_455 S
H536 C559 0.950 . S
H537 C561 0.950 . S
H538 C562 0.950 . S
H539 C563 0.951 . S
H540 C565 0.951 . S
H541 C567 0.950 . S
H542 C568 0.950 . S
H543 C570 0.950 . S
H544 C573 0.950 . S
H545 C574 0.950 . S
H546 C576 0.950 . S
H547 C577 0.950 . S
C548 H530 0.951 . S
C548 C549 1.366 1_655 S
C548 C550 1.388 . S
C549 C548 1.366 1_455 S
C549 C553 1.385 . S
C550 H531 0.951 . S
C550 C548 1.388 . S
C550 C551 1.366 1_655 S
C551 C550 1.366 1_455 S
C551 C552 1.414 . S
C551 C554 1.499 1_556 S
C552 H532 0.950 . S
C552 C551 1.414 . S
C552 C553 1.374 . S
C553 H533 0.950 . S
C553 C549 1.385 . S
C553 C552 1.374 . S
C554 C551 1.499 1_554 S
C554 C555 1.373 . S
C554 C556 1.389 1_455 S
C555 H534 0.950 . S
C555 C554 1.373 . S
C555 C571 1.377 . S
C556 C554 1.389 1_655 S
C556 C557 1.524 . S
C556 C570 1.377 . S
C557 C556 1.524 . S
C557 C558 1.397 . S
C557 C562 1.363 . S
C558 H535 0.950 1_655 S
C558 C557 1.397 . S
C558 C559 1.334 1_554 S
C559 H536 0.950 . S
C559 C558 1.334 1_556 S
C559 C560 1.287 1_556 S
C560 C559 1.287 1_554 S
C560 C561 1.524 . S
C560 H579 0.913 1_554 S
C561 H537 0.950 . S
C561 C560 1.524 . S
C561 C562 1.415 . S
C562 H538 0.950 . S
C562 C557 1.363 . S
C562 C561 1.415 . S
C563 H539 0.951 . S
C563 C564 1.366 . S
C563 C565 1.388 . S
C564 C563 1.366 . S
C564 C568 1.385 1_455 S
C565 H540 0.951 . S
C565 C563 1.388 . S
C565 C566 1.366 . S
C566 C565 1.366 . S
C566 C567 1.414 1_455 S
C566 C569 1.499 . S
C567 H541 0.950 . S
C567 C566 1.414 1_655 S
C567 C568 1.374 . S
C568 H542 0.950 . S
C568 C564 1.385 1_655 S
C568 C567 1.374 . S
C569 C566 1.499 . S
C569 C570 1.373 1_455 S
C569 C571 1.389 . S
C570 H543 0.950 . S
C570 C556 1.377 . S
C570 C569 1.373 1_655 S
C571 C555 1.377 . S
C571 C569 1.389 . S
C571 C572 1.524 . S
C572 C571 1.524 . S
C572 C573 1.397 . S
C572 C577 1.363 . S
C573 H544 0.950 . S
C573 C572 1.397 . S
C573 C574 1.334 . S
C574 H545 0.950 . S
C574 C573 1.334 . S
C574 C575 1.287 . S
C575 C574 1.287 . S
C575 C576 1.524 . S
C575 H578 0.999 . S
C576 H546 0.950 . S
C576 C575 1.524 . S
C576 C577 1.415 . S
C577 H547 0.950 . S
C577 C572 1.363 . S
C577 C576 1.415 . S
H578 C575 0.999 . S
H579 C560 0.913 1_556 S
H580 C598 0.951 . S
H581 C600 0.951 . S
H582 C602 0.950 . S
H583 C603 0.950 . S
H584 C605 0.950 . S
H585 C608 0.950 . S
H586 C609 0.950 . S
H587 C611 0.950 . S
H588 C612 0.950 . S
H589 C613 0.951 . S
H590 C615 0.951 . S
H591 C617 0.950 . S
H592 C618 0.950 . S
H593 C620 0.950 . S
H594 C623 0.950 . S
H595 C624 0.950 . S
H596 C626 0.950 . S
H597 C627 0.950 . S
C598 H580 0.951 . S
C598 C599 1.366 . S
C598 C600 1.388 . S
C599 C598 1.366 . S
C599 C603 1.385 . S
C600 H581 0.951 . S
C600 C598 1.388 . S
C600 C601 1.366 . S
C601 C600 1.366 . S
C601 C602 1.414 . S
C601 C604 1.499 . S
C602 H582 0.950 . S
C602 C601 1.414 . S
C602 C603 1.374 . S
C603 H583 0.950 . S
C603 C599 1.385 . S
C603 C602 1.374 . S
C604 C601 1.499 . S
C604 C605 1.373 . S
C604 C606 1.389 . S
C605 H584 0.950 . S
C605 C604 1.373 . S
C605 C621 1.377 . S
C606 C604 1.389 . S
C606 C607 1.524 . S
C606 C620 1.377 . S
C607 C606 1.524 . S
C607 C608 1.397 . S
C607 C612 1.363 . S
C608 H585 0.950 . S
C608 C607 1.397 . S
C608 C609 1.334 . S
C609 H586 0.950 . S
C609 C608 1.334 . S
C609 C610 1.287 . S
C610 C609 1.287 . S
C610 C611 1.524 . S
C610 H629 0.913 . S
C611 H587 0.950 . S
C611 C610 1.524 . S
C611 C612 1.415 . S
C612 H588 0.950 . S
C612 C607 1.363 . S
C612 C611 1.415 . S
C613 H589 0.951 . S
C613 C614 1.366 . S
C613 C615 1.388 . S
C614 C613 1.366 . S
C614 C618 1.385 . S
C615 H590 0.951 . S
C615 C613 1.388 . S
C615 C616 1.366 . S
C616 C615 1.366 . S
C616 C617 1.414 . S
C616 C619 1.499 . S
C617 H591 0.950 . S
C617 C616 1.414 . S
C617 C618 1.374 . S
C618 H592 0.950 . S
C618 C614 1.385 . S
C618 C617 1.374 . S
C619 C616 1.499 . S
C619 C620 1.373 . S
C619 C621 1.389 . S
C620 H593 0.950 . S
C620 C606 1.377 . S
C620 C619 1.373 . S
C621 C605 1.377 . S
C621 C619 1.389 . S
C621 C622 1.524 . S
C622 C621 1.524 . S
C622 C623 1.397 . S
C622 C627 1.363 . S
C623 H594 0.950 . S
C623 C622 1.397 . S
C623 C624 1.334 . S
C624 H595 0.950 . S
C624 C623 1.334 . S
C624 C625 1.287 . S
C625 C624 1.287 . S
C625 C626 1.524 . S
C625 H628 0.999 . S
C626 H596 0.950 . S
C626 C625 1.524 . S
C626 C627 1.415 . S
C627 H597 0.950 . S
C627 C622 1.363 . S
C627 C626 1.415 . S
H628 C625 0.999 . S
H629 C610 0.913 . S
H630 C648 0.951 . S
H631 C650 0.951 . S
H632 C652 0.950 . S
H633 C653 0.950 . S
H634 C655 0.950 . S
H635 C658 0.950 . S
H636 C659 0.950 . S
H637 C661 0.950 . S
H638 C662 0.950 . S
H639 C663 0.951 . S
H640 C665 0.951 . S
H641 C667 0.950 . S
H642 C668 0.950 . S
H643 C670 0.950 . S
H644 C673 0.950 . S
H645 C674 0.950 . S
H646 C676 0.950 . S
H647 C677 0.950 . S
C648 H630 0.951 . S
C648 C649 1.366 . S
C648 C650 1.388 . S
C649 C648 1.366 . S
C649 C653 1.385 . S
C650 H631 0.951 . S
C650 C648 1.388 . S
C650 C651 1.366 . S
C651 C650 1.366 . S
C651 C652 1.414 . S
C651 C654 1.499 . S
C652 H632 0.950 . S
C652 C651 1.414 . S
C652 C653 1.374 . S
C653 H633 0.950 . S
C653 C649 1.385 . S
C653 C652 1.374 . S
C654 C651 1.499 . S
C654 C655 1.373 . S
C654 C656 1.389 . S
C655 H634 0.950 . S
C655 C654 1.373 . S
C655 C671 1.377 . S
C656 C654 1.389 . S
C656 C657 1.524 . S
C656 C670 1.377 . S
C657 C656 1.524 . S
C657 C658 1.397 . S
C657 C662 1.363 . S
C658 H635 0.950 . S
C658 C657 1.397 . S
C658 C659 1.334 . S
C659 H636 0.950 . S
C659 C658 1.334 . S
C659 C660 1.287 . S
C660 C659 1.287 . S
C660 C661 1.524 . S
C660 H679 0.913 . S
C661 H637 0.950 . S
C661 C660 1.524 . S
C661 C662 1.415 . S
C662 H638 0.950 . S
C662 C657 1.363 . S
C662 C661 1.415 . S
C663 H639 0.951 . S
C663 C664 1.366 . S
C663 C665 1.388 . S
C664 C663 1.366 . S
C664 C668 1.385 . S
C665 H640 0.951 . S
C665 C663 1.388 . S
C665 C666 1.366 . S
C666 C665 1.366 . S
C666 C667 1.414 . S
C666 C669 1.499 . S
C667 H641 0.950 . S
C667 C666 1.414 . S
C667 C668 1.374 . S
C668 H642 0.950 . S
C668 C664 1.385 . S
C668 C667 1.374 . S
C669 C666 1.499 . S
C669 C670 1.373 . S
C669 C671 1.389 . S
C670 H643 0.950 . S
C670 C656 1.377 . S
C670 C669 1.373 . S
C671 C655 1.377 . S
C671 C669 1.389 . S
C671 C672 1.524 . S
C672 C671 1.524 . S
C672 C673 1.397 . S
C672 C677 1.363 . S
C673 H644 0.950 . S
C673 C672 1.397 . S
C673 C674 1.334 . S
C674 H645 0.950 . S
C674 C673 1.334 . S
C674 C675 1.287 . S
C675 C674 1.287 . S
C675 C676 1.524 . S
C675 H678 0.999 . S
C676 H646 0.950 . S
C676 C675 1.524 . S
C676 C677 1.415 . S
C677 H647 0.950 . S
C677 C672 1.363 . S
C677 C676 1.415 . S
H678 C675 0.999 . S
H679 C660 0.913 . S
C99 C9 1.784 . S
C114 C22 1.746 . S
C149 C42 1.934 . S
C164 C32 1.946 . S
C199 C64 1.895 . S
C214 C52 1.934 . S
C249 C4 1.707 . S
C264 C69 1.761 . S
C299 C72 1.945 . S
C314 C2 1.934 . S
C349 C44 1.707 . S
C364 C29 1.762 . S
C399 C49 1.783 . S
C414 C62 1.746 . S
C449 C24 1.896 . S
C464 C12 1.934 . S
C499 C18 0.784 . S
C514 C19 0.784 . S
C549 C39 0.779 . S
C564 C38 0.779 . S
C599 C59 0.784 1_554 S
C614 C58 0.784 . S
C649 C79 0.779 . S
C664 C78 0.779 1_556 S
