# Generated by pormake.
# Topology smu, (6)-cn, num edge types: 1
# Building blocks:
#     Node 0, Type 0, BuildingBlock: NUHQIS_clean_sbu_0, # of connection points: 6
#     Node 1, Type 0, BuildingBlock: NUHQIS_clean_sbu_0, # of connection points: 6
#     Node 2, Type 0, BuildingBlock: NUHQIS_clean_sbu_0, # of connection points: 6
#     Node 3, Type 0, BuildingBlock: NUHQIS_clean_sbu_0, # of connection points: 6
#     Node 4, Type 0, BuildingBlock: NUHQIS_clean_sbu_0, # of connection points: 6
#     Node 5, Type 0, BuildingBlock: NUHQIS_clean_sbu_0, # of connection points: 6
#     Edge 6, Type (0, 0), BuildingBlock: UVAHIK_clean_linker_0, # of connection points: 2
#     Edge 7, Type (0, 0), BuildingBlock: UVAHIK_clean_linker_0, # of connection points: 2
#     Edge 8, Type (0, 0), BuildingBlock: UVAHIK_clean_linker_0, # of connection points: 2
#     Edge 9, Type (0, 0), BuildingBlock: UVAHIK_clean_linker_0, # of connection points: 2
#     Edge 10, Type (0, 0), BuildingBlock: UVAHIK_clean_linker_0, # of connection points: 2
#     Edge 11, Type (0, 0), BuildingBlock: UVAHIK_clean_linker_0, # of connection points: 2
#     Edge 12, Type (0, 0), BuildingBlock: UVAHIK_clean_linker_0, # of connection points: 2
#     Edge 13, Type (0, 0), BuildingBlock: UVAHIK_clean_linker_0, # of connection points: 2
#     Edge 14, Type (0, 0), BuildingBlock: UVAHIK_clean_linker_0, # of connection points: 2
#     Edge 15, Type (0, 0), BuildingBlock: UVAHIK_clean_linker_0, # of connection points: 2
#     Edge 16, Type (0, 0), BuildingBlock: UVAHIK_clean_linker_0, # of connection points: 2
#     Edge 17, Type (0, 0), BuildingBlock: UVAHIK_clean_linker_0, # of connection points: 2
#     Edge 18, Type (0, 0), BuildingBlock: UVAHIK_clean_linker_0, # of connection points: 2
#     Edge 19, Type (0, 0), BuildingBlock: UVAHIK_clean_linker_0, # of connection points: 2
#     Edge 20, Type (0, 0), BuildingBlock: UVAHIK_clean_linker_0, # of connection points: 2
#     Edge 21, Type (0, 0), BuildingBlock: UVAHIK_clean_linker_0, # of connection points: 2
#     Edge 22, Type (0, 0), BuildingBlock: UVAHIK_clean_linker_0, # of connection points: 2
#     Edge 23, Type (0, 0), BuildingBlock: UVAHIK_clean_linker_0, # of connection points: 2
# Relax obj value: 0.213
# Max RMSD: 0.300
# Mean RMSD: 0.300
data_MOF--net-smu--node1-NUHQIS_clean_sbu_0--edge1-UVAHIK_clean_linker_0
_symmetry_space_group_name_H-M    P1
_symmetry_Int_Tables_number       1
_symmetry_cell_setting            triclinic
loop_
_symmetry_equiv_pos_as_xyz
'x, y, z'
_cell_length_a     47.96875
_cell_length_b     47.951966
_cell_length_c     35.996927
_cell_angle_alpha  89.695438
_cell_angle_beta   90.286267
_cell_angle_gamma 120.01654
loop_
_atom_site_label
_atom_site_type_symbol
_atom_site_fract_x
_atom_site_fract_y
_atom_site_fract_z
_atom_type_partial_charge
Tb0 Tb 0.32884 0.1192 0.25979 0.0
Eu1 Eu 0.37675 0.08882 0.25525 0.0
C2 C 0.34931 0.09618 0.33213 0.0
C3 C 0.40252 0.16298 0.25724 0.0
C4 C 0.27255 0.15521 0.25173 0.0
C5 C 0.22048 0.15049 0.26397 0.0
C6 C 0.24281 0.14035 0.27025 0.0
C7 C 0.27885 0.17954 0.22556 0.0
C8 C 0.25647 0.18968 0.21924 0.0
C9 C 0.22738 0.17588 0.23913 0.0
C10 C 0.29882 0.14987 0.26488 0.0
O11 O 0.33147 0.11059 0.19994 0.0
O12 O 0.34777 0.07289 0.2032 0.0
O13 O 0.3264 0.04617 0.26563 0.0
O14 O 0.29516 0.06895 0.24938 0.0
C15 C 0.33456 0.0871 0.18502 0.0
O16 O 0.40929 0.07923 0.22284 0.0
O17 O 0.40376 0.06839 0.28162 0.0
O18 O 0.37569 0.10167 0.31504 0.0
O19 O 0.3262 0.09776 0.31419 0.0
O20 O 0.37708 0.15462 0.27759 0.0
O21 O 0.40445 0.14103 0.238 0.0
C22 C 0.29833 0.04387 0.2576 0.0
O23 O 0.2913 0.12359 0.28338 0.0
O24 O 0.32388 0.15872 0.24364 0.0
C25 C 0.45548 0.08852 0.25559 0.0
C26 C 0.52348 0.12287 0.25824 0.0
C27 C 0.50654 0.08991 0.24911 0.0
C28 C 0.47285 0.07292 0.24779 0.0
C29 C 0.47216 0.12128 0.26511 0.0
C30 C 0.50583 0.13829 0.2665 0.0
C31 C 0.4202 0.07114 0.2517 0.0
H32 H 0.19855 0.13955 0.28017 0.0
H33 H 0.23743 0.12201 0.29115 0.0
H34 H 0.30172 0.19184 0.21121 0.0
H35 H 0.26235 0.20896 0.19951 0.0
H36 H 0.51933 0.07718 0.24311 0.0
H37 H 0.46038 0.04767 0.24026 0.0
H38 H 0.45911 0.13381 0.27088 0.0
H39 H 0.51805 0.16369 0.2732 0.0
Tb40 Tb 0.81177 0.69886 0.28753 0.0
Eu41 Eu 0.73416 0.65094 0.2709 0.0
C42 C 0.76006 0.68093 0.35001 0.0
C43 C 0.78219 0.62458 0.28493 0.0
C44 C 0.9028 0.75833 0.29585 0.0
C45 C 0.95394 0.79958 0.3212 0.0
C46 C 0.92143 0.77684 0.32593 0.0
C47 C 0.91681 0.76417 0.26038 0.0
C48 C 0.94941 0.78699 0.25561 0.0
C49 C 0.96856 0.80421 0.28623 0.0
C50 C 0.87101 0.73001 0.30361 0.0
O51 O 0.80529 0.70951 0.23013 0.0
O52 O 0.76203 0.65989 0.21767 0.0
O53 O 0.74125 0.70116 0.26299 0.0
O54 O 0.79532 0.73304 0.27928 0.0
C55 C 0.78444 0.68855 0.20644 0.0
O56 O 0.69419 0.62576 0.23179 0.0
O57 O 0.68597 0.61703 0.2908 0.0
O58 O 0.73795 0.67505 0.325 0.0
O59 O 0.78706 0.68178 0.34099 0.0
O60 O 0.80418 0.65217 0.27132 0.0
O61 O 0.75384 0.62019 0.29385 0.0
C62 C 0.76732 0.72944 0.26881 0.0
O63 O 0.84936 0.73434 0.32019 0.0
O64 O 0.85847 0.70749 0.27852 0.0
C65 C 0.65632 0.57298 0.25136 0.0
C66 C 0.62141 0.50516 0.24514 0.0
C67 C 0.60574 0.52326 0.24176 0.0
C68 C 0.62305 0.55686 0.24493 0.0
C69 C 0.67224 0.55519 0.25388 0.0
C70 C 0.65496 0.5216 0.25086 0.0
C71 C 0.67394 0.60802 0.25758 0.0
H72 H 0.96787 0.81289 0.34519 0.0
H73 H 0.9112 0.77263 0.35357 0.0
H74 H 0.90305 0.75011 0.23669 0.0
H75 H 0.95997 0.78992 0.22833 0.0
H76 H 0.57991 0.5114 0.23779 0.0
H77 H 0.61034 0.57019 0.24313 0.0
H78 H 0.69797 0.56727 0.25879 0.0
H79 H 0.66785 0.50848 0.25314 0.0
Tb80 Tb 0.90742 0.21765 0.26097 0.0
Eu81 Eu 0.93993 0.29602 0.27184 0.0
C82 C 0.9307 0.24923 0.33911 0.0
C83 C 0.86477 0.24934 0.26656 0.0
C84 C 0.87439 0.12586 0.25671 0.0
C85 C 0.85336 0.07656 0.2933 0.0
C86 C 0.86211 0.10905 0.29028 0.0
C87 C 0.87905 0.10991 0.22687 0.0
C88 C 0.87034 0.0775 0.22988 0.0
C89 C 0.85657 0.06016 0.26279 0.0
C90 C 0.87683 0.15748 0.25003 0.0
O91 O 0.91227 0.23944 0.20566 0.0
O92 O 0.95609 0.28891 0.21682 0.0
O93 O 0.98291 0.28798 0.2754 0.0
O94 O 0.95809 0.23308 0.26267 0.0
C95 C 0.93799 0.26581 0.19386 0.0
O96 O 0.95311 0.343 0.24828 0.0
O97 O 0.95844 0.33853 0.30744 0.0
O98 O 0.92408 0.27128 0.32739 0.0
O99 O 0.92952 0.22739 0.31614 0.0
O100 O 0.87062 0.22756 0.28035 0.0
O101 O 0.88832 0.27619 0.25313 0.0
C102 C 0.98383 0.26116 0.26968 0.0
O103 O 0.87137 0.1716 0.27759 0.0
O104 O 0.89954 0.17807 0.22825 0.0
C105 C 0.9421 0.37566 0.28697 0.0
C106 C 0.90789 0.40929 0.29368 0.0
C107 C 0.93301 0.41922 0.26781 0.0
C108 C 0.94997 0.40264 0.2646 0.0
C109 C 0.91723 0.36582 0.31316 0.0
C110 C 0.90044 0.38263 0.31665 0.0
C111 C 0.95856 0.35701 0.28054 0.0
H112 H 0.84329 0.06405 0.31922 0.0
H113 H 0.85791 0.12053 0.31372 0.0
H114 H 0.88786 0.12203 0.20043 0.0
H115 H 0.8728 0.0656 0.20566 0.0
H116 H 0.93961 0.43989 0.25004 0.0
H117 H 0.96894 0.41058 0.24411 0.0
H118 H 0.91035 0.34482 0.33046 0.0
H119 H 0.88107 0.37426 0.33665 0.0
Tb120 Tb 0.1208 0.32059 0.76487 0.0
Eu121 Eu 0.0936 0.37144 0.76827 0.0
C122 C 0.09322 0.33646 0.69217 0.0
C123 C 0.16725 0.39412 0.76953 0.0
C124 C 0.15488 0.26377 0.74671 0.0
C125 C 0.19468 0.24997 0.72595 0.0
C126 C 0.18616 0.27308 0.7347 0.0
C127 C 0.13165 0.23086 0.74757 0.0
C128 C 0.14016 0.2077 0.73875 0.0
C129 C 0.1721 0.21698 0.7292 0.0
C130 C 0.14915 0.28816 0.76448 0.0
O131 O 0.09999 0.31479 0.82013 0.0
O132 O 0.10665 0.36518 0.82668 0.0
O133 O 0.05069 0.32133 0.7784 0.0
O134 O 0.07012 0.29032 0.75231 0.0
C135 C 0.09967 0.33713 0.84082 0.0
O136 O 0.07724 0.39932 0.80015 0.0
O137 O 0.08161 0.40463 0.74053 0.0
O138 O 0.07883 0.34809 0.71257 0.0
O139 O 0.1146 0.32962 0.70625 0.0
O140 O 0.15763 0.3667 0.78661 0.0
O141 O 0.14611 0.39942 0.75277 0.0
C142 C 0.04647 0.29356 0.76593 0.0
O143 O 0.16039 0.31615 0.74829 0.0
O144 O 0.1217 0.2789 0.78095 0.0
C145 C 0.09435 0.45102 0.77504 0.0
C146 C 0.1275 0.51903 0.77837 0.0
C147 C 0.0937 0.50115 0.78114 0.0
C148 C 0.0773 0.46746 0.77941 0.0
C149 C 0.12808 0.46864 0.77295 0.0
C150 C 0.1445 0.50232 0.77452 0.0
C151 C 0.07682 0.41569 0.77136 0.0
H152 H 0.21953 0.25803 0.71905 0.0
H153 H 0.20466 0.29827 0.73429 0.0
H154 H 0.10735 0.2229 0.75684 0.0
H155 H 0.12203 0.18247 0.74087 0.0
H156 H 0.07982 0.51322 0.78368 0.0
H157 H 0.05125 0.45427 0.78095 0.0
H158 H 0.14168 0.45634 0.76968 0.0
H159 H 0.17053 0.51527 0.77277 0.0
Tb160 Tb 0.2244 0.90523 0.75599 0.0
Eu161 Eu 0.3031 0.93631 0.76005 0.0
C162 C 0.26727 0.92809 0.6836 0.0
C163 C 0.25489 0.86176 0.75901 0.0
C164 C 0.13186 0.86983 0.76077 0.0
C165 C 0.08058 0.86309 0.73974 0.0
C166 C 0.11318 0.87414 0.73368 0.0
C167 C 0.11761 0.85565 0.79497 0.0
C168 C 0.08488 0.84475 0.80116 0.0
C169 C 0.06584 0.84742 0.77308 0.0
C170 C 0.16377 0.87499 0.74983 0.0
O171 O 0.23585 0.9138 0.81584 0.0
O172 O 0.29011 0.95077 0.81296 0.0
O173 O 0.29441 0.97837 0.7488 0.0
O174 O 0.24106 0.95527 0.76733 0.0
C175 C 0.2629 0.93628 0.83129 0.0
O176 O 0.34612 0.94786 0.79234 0.0
O177 O 0.35012 0.95651 0.73313 0.0
O178 O 0.2882 0.92244 0.7006 0.0
O179 O 0.24302 0.92695 0.70174 0.0
O180 O 0.23709 0.86963 0.739 0.0
O181 O 0.27947 0.88408 0.77731 0.0
C182 C 0.26873 0.98043 0.75778 0.0
O183 O 0.18277 0.90077 0.73079 0.0
O184 O 0.1796 0.86661 0.7726 0.0
C185 C 0.38428 0.93981 0.76091 0.0
C186 C 0.42133 0.90887 0.7613 0.0
C187 C 0.43537 0.94169 0.77056 0.0
C188 C 0.417 0.95697 0.77036 0.0
C189 C 0.37015 0.90718 0.75125 0.0
C190 C 0.38853 0.89187 0.75131 0.0
C191 C 0.36474 0.95561 0.76339 0.0
H192 H 0.06663 0.86592 0.71782 0.0
H193 H 0.12341 0.88463 0.70692 0.0
H194 H 0.13128 0.85165 0.81624 0.0
H195 H 0.07412 0.83271 0.82711 0.0
H196 H 0.46063 0.95562 0.7779 0.0
H197 H 0.42828 0.98213 0.77805 0.0
H198 H 0.34478 0.89344 0.74424 0.0
H199 H 0.37685 0.86653 0.74444 0.0
Tb200 Tb 0.70963 0.8069 0.78287 0.0
Eu201 Eu 0.65848 0.72864 0.78296 0.0
C202 C 0.69249 0.76616 0.7091 0.0
C203 C 0.63587 0.77962 0.77661 0.0
C204 C 0.76738 0.89845 0.79646 0.0
C205 C 0.82117 0.94549 0.79296 0.0
C206 C 0.79963 0.91313 0.78482 0.0
C207 C 0.75769 0.91633 0.81828 0.0
C208 C 0.77918 0.94869 0.82629 0.0
C209 C 0.81082 0.96395 0.81257 0.0
C210 C 0.74283 0.86765 0.77969 0.0
O211 O 0.70118 0.79443 0.84236 0.0
O212 O 0.68057 0.73952 0.83946 0.0
O213 O 0.70879 0.73506 0.77781 0.0
O214 O 0.73952 0.78719 0.7999 0.0
C215 C 0.6932 0.76649 0.85826 0.0
O216 O 0.62425 0.68511 0.81267 0.0
O217 O 0.6318 0.68262 0.75386 0.0
O218 O 0.66451 0.74565 0.7236 0.0
O219 O 0.71523 0.78907 0.72932 0.0
O220 O 0.66353 0.79713 0.76003 0.0
O221 O 0.63052 0.75384 0.79501 0.0
C222 C 0.7362 0.75921 0.79045 0.0
O223 O 0.75184 0.84846 0.76539 0.0
O224 O 0.71461 0.85184 0.79543 0.0
C225 C 0.5793 0.64741 0.77816 0.0
C226 C 0.51143 0.60909 0.77229 0.0
C227 C 0.52834 0.60376 0.80096 0.0
C228 C 0.56181 0.62259 0.80372 0.0
C229 C 0.56267 0.6531 0.74957 0.0
C230 C 0.52908 0.63406 0.7466 0.0
C231 C 0.61456 0.66742 0.78288 0.0
H232 H 0.8453 0.95658 0.78173 0.0
H233 H 0.80776 0.90023 0.76745 0.0
H234 H 0.73295 0.90593 0.82735 0.0
H235 H 0.77061 0.96217 0.84188 0.0
H236 H 0.51568 0.58531 0.82176 0.0
H237 H 0.57408 0.61797 0.82621 0.0
H238 H 0.57557 0.67227 0.72959 0.0
H239 H 0.51701 0.63873 0.72398 0.0
C240 C 0.23471 0.94142 0.88822 0.0
C241 C 0.26316 0.94879 0.86917 0.0
C242 C 0.23615 0.95679 0.922 0.0
C243 C 0.29059 0.03066 0.97511 0.0
H244 H 0.24519 0.98238 0.06273 0.0
C245 C 0.31346 0.0902 0.12118 0.0
C246 C 0.3197 0.07298 0.14852 0.0
C247 C 0.30042 0.07594 0.08657 0.0
C248 C 0.25785 0.99628 0.03842 0.0
H249 H 0.31542 0.97723 0.87181 0.0
H250 H 0.31768 1.00349 0.92974 0.0
H251 H 0.23423 0.95509 1.00272 0.0
H252 H 0.31543 0.02668 0.16156 0.0
H253 H 0.29314 1.00235 0.10215 0.0
H254 H 0.31532 0.07148 1.01096 0.0
C255 C 0.29427 0.98644 0.91848 0.0
C256 C 0.25137 0.98066 1.00401 0.0
C257 C 0.29289 0.97105 0.88525 0.0
C258 C 0.3115 0.04097 0.14103 0.0
C259 C 0.2982 0.02673 0.10699 0.0
C260 C 0.29694 0.04631 1.00944 0.0
C261 C 0.26602 0.98001 0.93703 0.0
C262 C 0.26852 0.99742 0.9722 0.0
C263 C 0.29279 0.04402 0.07909 0.0
C264 C 0.28149 0.02906 0.04176 0.0
H265 H 0.21142 0.92453 0.87661 0.0
H266 H 0.21393 0.95117 0.93583 0.0
H267 H 0.30385 0.04438 0.95097 0.0
H268 H 0.31929 0.11478 0.1262 0.0
H269 H 0.29644 0.08988 0.06564 0.0
C270 C 0.73193 0.7757 0.65818 0.0
C271 C 0.69985 0.76093 0.67057 0.0
C272 C 0.73931 0.76804 0.62346 0.0
C273 C 0.70474 0.73406 0.53182 0.0
H274 H 0.77323 0.71353 0.52651 0.0
C275 C 0.72275 0.67774 0.40017 0.0
C276 C 0.75427 0.68748 0.38861 0.0
C277 C 0.71696 0.68651 0.43498 0.0
C278 C 0.75433 0.71961 0.52729 0.0
H279 H 0.65033 0.72719 0.65556 0.0
H280 H 0.6632 0.71432 0.59473 0.0
H281 H 0.76178 0.73078 0.58539 0.0
H282 H 0.80447 0.71358 0.40499 0.0
H283 H 0.79452 0.72963 0.46566 0.0
H284 H 0.6975 0.72355 0.47382 0.0
C285 C 0.68264 0.73175 0.61198 0.0
C286 C 0.74774 0.72946 0.56111 0.0
C287 C 0.67527 0.73909 0.64688 0.0
C288 C 0.77988 0.70549 0.4132 0.0
C289 C 0.77412 0.71466 0.44802 0.0
C290 C 0.71152 0.72456 0.49797 0.0
C291 C 0.71478 0.74575 0.60009 0.0
C292 C 0.72267 0.73652 0.56384 0.0
C293 C 0.74257 0.70572 0.45914 0.0
C294 C 0.73618 0.71682 0.49524 0.0
H295 H 0.75151 0.79248 0.67575 0.0
H296 H 0.76427 0.7795 0.61494 0.0
H297 H 0.68559 0.7398 0.53286 0.0
H298 H 0.7024 0.66354 0.38208 0.0
H299 H 0.69228 0.67831 0.44282 0.0
C300 C 0.96684 0.30147 0.14028 0.0
C301 C 0.94827 0.27009 0.15449 0.0
C302 C 0.98181 0.30686 0.10578 0.0
C303 C 0.98537 0.2684 1.018 0.0
H304 H 0.07214 0.34175 1.01526 0.0
C305 C 0.06977 0.2965 0.89104 0.0
C306 C 0.08635 0.32881 0.87906 0.0
C307 C 0.05339 0.28799 0.92501 0.0
C308 C 0.04788 0.32133 1.01542 0.0
H309 H 0.92964 0.21956 0.14284 0.0
H310 H 0.95625 0.22896 0.08223 0.0
H311 H 0.04111 0.32882 0.07232 0.0
H312 H 0.09935 0.37758 0.8941 0.0
H313 H 0.07117 0.36283 0.95342 0.0
H314 H 0.99245 0.26096 0.96089 0.0
C315 C 0.95894 0.24943 0.0978 0.0
C316 C 0.02997 0.31392 0.04816 0.0
C317 C 0.9436 0.24399 0.13245 0.0
C318 C 0.08702 0.35251 0.90248 0.0
C319 C 0.07087 0.34403 0.93657 0.0
C320 C 1.00341 0.27576 0.98518 0.0
C321 C 0.97903 0.28106 0.08457 0.0
C322 C 0.99828 0.28766 0.0498 0.0
C323 C 0.05342 0.31161 0.94801 0.0
C324 C 0.03476 0.30257 0.98338 0.0
H325 H 0.9706 0.3221 0.15639 0.0
H326 H 0.9962 0.33146 0.09608 0.0
H327 H 0.96103 0.24813 0.01815 0.0
H328 H 0.06849 0.27754 0.87362 0.0
H329 H 0.04052 0.26286 0.93316 0.0
C330 C 0.36512 0.07599 0.3885 0.0
C331 C 0.34341 0.08341 0.37078 0.0
C332 C 0.35734 0.05962 0.4226 0.0
C333 C 0.28638 1.00536 0.47976 0.0
H334 H 0.34994 0.02344 0.55674 0.0
C335 C 0.25283 0.94916 0.62706 0.0
C336 C 0.27378 0.94077 0.64492 0.0
C337 C 0.261 0.96522 0.59282 0.0
C338 C 0.33197 0.01777 0.53532 0.0
H339 H 0.29706 0.08066 0.3761 0.0
H340 H 0.28384 0.05279 0.43572 0.0
H341 H 0.36553 0.05598 0.50021 0.0
H342 H 0.31932 0.94175 0.63983 0.0
H343 H 0.33333 0.96939 0.57991 0.0
H344 H 0.2528 0.96725 0.51494 0.0
C345 C 0.3066 0.05896 0.42288 0.0
C346 C 0.34091 0.03651 0.50289 0.0
C347 C 0.31435 0.07527 0.3888 0.0
C348 C 0.30257 0.9478 0.62695 0.0
C349 C 0.31078 0.96396 0.59273 0.0
C350 C 0.27744 0.98667 0.51219 0.0
C351 C 0.32767 0.05029 0.43987 0.0
C352 C 0.31821 0.03062 0.4747 0.0
C353 C 0.29036 0.97339 0.57553 0.0
C354 C 0.30009 0.99265 0.54045 0.0
H355 H 0.38766 0.08171 0.37542 0.0
H356 H 0.37409 0.05319 0.43467 0.0
H357 H 0.26838 0.99964 0.45837 0.0
H358 H 0.23051 0.94427 0.64008 0.0
H359 H 0.24479 0.9723 0.58059 0.0
C360 C 0.68604 0.73496 0.91612 0.0
C361 C 0.70202 0.76475 0.89748 0.0
C362 C 0.69788 0.73028 0.94962 0.0
C363 C 0.75054 0.76853 0.03 0.0
H364 H 0.7549 0.68989 0.03119 0.0
C365 C 0.80045 0.73152 0.15728 0.0
C366 C 0.78247 0.69892 0.16793 0.0
C367 C 0.79457 0.74199 0.12316 0.0
C368 C 0.75364 0.71181 0.03158 0.0
H369 H 0.74204 0.81365 0.90075 0.0
H370 H 0.76263 0.80553 0.96018 0.0
H371 H 0.73573 0.70447 0.97584 0.0
H372 H 0.74498 0.65165 0.15017 0.0
H373 H 0.73474 0.66971 0.09127 0.0
H374 H 0.76763 0.77536 0.08627 0.0
C375 C 0.74091 0.78579 0.94845 0.0
C376 C 0.74268 0.72021 0.99975 0.0
C377 C 0.72903 0.7905 0.91456 0.0
C378 C 0.75946 0.6769 0.14294 0.0
C379 C 0.75363 0.68731 0.10893 0.0
C380 C 0.76133 0.75997 0.06213 0.0
C381 C 0.72605 0.75524 0.9656 0.0
C382 C 0.74035 0.7483 0.99877 0.0
C383 C 0.77068 0.72008 0.09877 0.0
C384 C 0.76241 0.73112 0.06358 0.0
H385 H 0.66498 0.71467 0.90399 0.0
H386 H 0.6854 0.7067 0.96256 0.0
H387 H 0.74901 0.79031 0.0301 0.0
H388 H 0.81827 0.74922 0.17585 0.0
H389 H 0.80849 0.76731 0.11611 0.0
C390 C 0.96031 0.23578 0.38765 0.0
C391 C 0.94439 0.25256 0.37708 0.0
C392 C 0.97775 0.24308 0.4211 0.0
C393 C 0.01975 0.31074 0.4866 0.0
H394 H 0.01915 0.24748 0.55459 0.0
C395 C 0.06629 0.34309 0.63604 0.0
C396 C 0.08256 0.32874 0.65286 0.0
C397 C 0.05259 0.33364 0.6008 0.0
C398 C 0.02002 0.26547 0.53558 0.0
H399 H 0.93297 0.28893 0.39456 0.0
H400 H 0.96285 0.30126 0.45262 0.0
H401 H 0.98728 0.2297 0.49726 0.0
H402 H 0.09771 0.29349 0.64525 0.0
H403 H 0.07374 0.27695 0.58309 0.0
H404 H 0.0522 0.34649 0.52464 0.0
C405 C 0.96247 0.28294 0.4348 0.0
C406 C 1.00164 0.25526 0.50279 0.0
C407 C 0.94506 0.27564 0.40157 0.0
C408 C 0.08555 0.30519 0.63297 0.0
C409 C 0.07152 0.29549 0.59755 0.0
C410 C 0.03812 0.3209 0.51914 0.0
C411 C 0.97975 0.26741 0.44457 0.0
C412 C 1.00074 0.27779 0.47831 0.0
C413 C 0.0546 0.30944 0.58119 0.0
C414 C 0.03798 0.29843 0.54452 0.0
H415 H 0.9605 0.21801 0.36937 0.0
H416 H 0.99079 0.23068 0.42776 0.0
H417 H 0.02035 0.32881 0.46791 0.0
H418 H 0.06349 0.3613 0.65047 0.0
H419 H 0.03942 0.34464 0.58945 0.0
C420 C 0.57699 0.13599 0.23115 0.0
C421 C 0.55938 0.14114 0.25872 0.0
C422 C 0.61067 0.15271 0.23187 0.0
C423 C 0.67904 0.1945 0.29636 0.0
H424 H 0.72936 0.22275 0.20579 0.0
C425 C 0.80798 0.21699 0.28838 0.0
C426 C 0.83117 0.24303 0.26735 0.0
C427 C 0.77584 0.2093 0.28818 0.0
C428 C 0.71571 0.21541 0.23138 0.0
H429 H 0.56358 0.16819 0.30857 0.0
H430 H 0.62233 0.19759 0.30962 0.0
H431 H 0.6711 0.2007 0.20298 0.0
H432 H 0.83871 0.28177 0.22998 0.0
H433 H 0.78203 0.26807 0.22941 0.0
H434 H 0.7235 0.20886 0.32471 0.0
C435 C 0.61005 0.18042 0.28755 0.0
C436 C 0.68227 0.20242 0.22973 0.0
C437 C 0.57635 0.16377 0.28677 0.0
C438 C 0.82144 0.26159 0.24649 0.0
C439 C 0.789 0.25364 0.24602 0.0
C440 C 0.71238 0.20735 0.29797 0.0
C441 C 0.62764 0.17497 0.26023 0.0
C442 C 0.66346 0.19129 0.26214 0.0
C443 C 0.76583 0.22729 0.26681 0.0
C444 C 0.73105 0.21738 0.26543 0.0
H445 H 0.56473 0.11907 0.20886 0.0
H446 H 0.62339 0.14762 0.21062 0.0
H447 H 0.66535 0.186 0.32183 0.0
H448 H 0.81452 0.20216 0.30486 0.0
H449 H 0.75863 0.18859 0.30407 0.0
C450 C 0.57722 0.45303 0.2187 0.0
C451 C 0.60263 0.46928 0.24415 0.0
C452 C 0.55863 0.41937 0.21906 0.0
C453 C 0.53371 0.34984 0.28158 0.0
H454 H 0.50306 0.29997 0.19094 0.0
C455 C 0.427 0.2198 0.2796 0.0
C456 C 0.4287 0.19715 0.25649 0.0
C457 C 0.45066 0.25231 0.27812 0.0
C458 C 0.51169 0.3135 0.21651 0.0
H459 H 0.62851 0.46269 0.28978 0.0
H460 H 0.59632 0.40404 0.29015 0.0
H461 H 0.5403 0.35803 0.1874 0.0
H462 H 0.45699 0.19097 0.21394 0.0
H463 H 0.49844 0.24802 0.21128 0.0
H464 H 0.50503 0.30546 0.3107 0.0
C465 C 0.59064 0.41735 0.27003 0.0
C466 C 0.53275 0.34682 0.21447 0.0
C467 C 0.60932 0.45098 0.26956 0.0
C468 C 0.45493 0.20779 0.23209 0.0
C469 C 0.47857 0.24048 0.23043 0.0
C470 C 0.51254 0.31662 0.2836 0.0
C471 C 0.56487 0.40112 0.24502 0.0
C472 C 0.54379 0.36545 0.24699 0.0
C473 C 0.47663 0.26313 0.25336 0.0
C474 C 0.50098 0.29808 0.2511 0.0
H475 H 0.57161 0.46635 0.19852 0.0
H476 H 0.5388 0.40768 0.19961 0.0
H477 H 0.54149 0.36345 0.30717 0.0
H478 H 0.40714 0.21252 0.2987 0.0
H479 H 0.44816 0.26912 0.29582 0.0
C480 C 0.87917 0.4354 0.26383 0.0
C481 C 0.88943 0.42659 0.29624 0.0
C482 C 0.8629 0.45274 0.26598 0.0
C483 C 0.85504 0.50976 0.32597 0.0
H484 H 0.78386 0.4935 0.2607 0.0
C485 C 0.82281 0.60675 0.28957 0.0
C486 C 0.7903 0.59869 0.28979 0.0
C487 C 0.8314 0.58311 0.29386 0.0
C488 C 0.80346 0.4981 0.27941 0.0
H489 H 0.89017 0.42871 0.35637 0.0
H490 H 0.86193 0.45927 0.36015 0.0
H491 H 0.80469 0.45609 0.26156 0.0
H492 H 0.74122 0.55921 0.29468 0.0
H493 H 0.75637 0.51741 0.30147 0.0
H494 H 0.85444 0.55216 0.34308 0.0
C495 C 0.8665 0.4527 0.33306 0.0
C496 C 0.81558 0.47687 0.27967 0.0
C497 C 0.88249 0.43503 0.33091 0.0
C498 C 0.76647 0.5662 0.29442 0.0
C499 C 0.77512 0.5423 0.29817 0.0
C500 C 0.84318 0.53111 0.3254 0.0
C501 C 0.85673 0.46197 0.30059 0.0
C502 C 0.84183 0.48273 0.30256 0.0
C503 C 0.80774 0.55061 0.29812 0.0
C504 C 0.81763 0.52584 0.30167 0.0
H505 H 0.88382 0.42893 0.23671 0.0
H506 H 0.85598 0.45974 0.24044 0.0
H507 H 0.87541 0.51512 0.34372 0.0
H508 H 0.84186 0.63152 0.28623 0.0
H509 H 0.85668 0.59025 0.2932 0.0
C510 C 0.13559 0.57179 0.80267 0.0
C511 C 0.14481 0.55495 0.77842 0.0
C512 C 0.15106 0.60547 0.80164 0.0
C513 C 0.19748 0.67417 0.7387 0.0
H514 H 0.21618 0.7251 0.82834 0.0
C515 C 0.22257 0.80481 0.73707 0.0
C516 C 0.2468 0.82756 0.76042 0.0
C517 C 0.21338 0.77224 0.73929 0.0
C518 C 0.21143 0.71127 0.80306 0.0
H519 H 0.17775 0.56051 0.73416 0.0
H520 H 0.20487 0.6192 0.73261 0.0
H521 H 0.19435 0.66692 0.83305 0.0
H522 H 0.28065 0.83382 0.80418 0.0
H523 H 0.26441 0.77662 0.80817 0.0
H524 H 0.21432 0.71837 0.70869 0.0
C525 C 0.18554 0.60633 0.75231 0.0
C526 C 0.1986 0.67788 0.80575 0.0
C527 C 0.1702 0.57268 0.75347 0.0
C528 C 0.26193 0.81694 0.78578 0.0
C529 C 0.2525 0.78416 0.78822 0.0
C530 C 0.2101 0.70746 0.73602 0.0
C531 C 0.17601 0.62316 0.77618 0.0
C532 C 0.19119 0.65888 0.77358 0.0
C533 C 0.22801 0.76142 0.76506 0.0
C534 C 0.2169 0.72639 0.76814 0.0
H535 H 0.11636 0.55893 0.82249 0.0
H536 H 0.1429 0.61761 0.8202 0.0
H537 H 0.19182 0.66028 0.71335 0.0
H538 H 0.21034 0.81205 0.71722 0.0
H539 H 0.19417 0.75537 0.72138 0.0
C540 C 0.43761 0.87048 0.7349 0.0
C541 C 0.44075 0.89242 0.76268 0.0
C542 C 0.45625 0.85547 0.73603 0.0
C543 C 0.50513 0.83551 0.79944 0.0
H544 H 0.54482 0.82971 0.70845 0.0
C545 C 0.5816 0.77236 0.79321 0.0
C546 C 0.61068 0.78892 0.77344 0.0
C547 C 0.55871 0.78239 0.79121 0.0
C548 C 0.53396 0.83118 0.73414 0.0
H549 H 0.4655 0.91506 0.81394 0.0
H550 H 0.49823 0.88926 0.81565 0.0
H551 H 0.50931 0.85244 0.70686 0.0
H552 H 0.63818 0.82877 0.73563 0.0
H553 H 0.59852 0.84612 0.73223 0.0
H554 H 0.53046 0.81497 0.82685 0.0
C555 C 0.48123 0.8835 0.79306 0.0
C556 C 0.51332 0.84393 0.73316 0.0
C557 C 0.46272 0.89862 0.79184 0.0
C558 C 0.61606 0.81536 0.7512 0.0
C559 C 0.59318 0.82524 0.74905 0.0
C560 C 0.52566 0.82261 0.80039 0.0
C561 C 0.47836 0.86184 0.76509 0.0
C562 C 0.49893 0.84662 0.76587 0.0
C563 C 0.56429 0.80905 0.76919 0.0
C564 C 0.54067 0.82066 0.76782 0.0
H565 H 0.42108 0.86529 0.71192 0.0
H566 H 0.45321 0.83871 0.7142 0.0
H567 H 0.49417 0.83687 0.82509 0.0
H568 H 0.57665 0.7519 0.81059 0.0
H569 H 0.53658 0.7692 0.80682 0.0
C570 C 0.2132 0.45011 0.75596 0.0
C571 C 0.20197 0.41889 0.77012 0.0
C572 C 0.24623 0.4729 0.75628 0.0
C573 C 0.32333 0.48927 0.80092 0.0
H574 H 0.36336 0.54611 0.71673 0.0
C575 C 0.46023 0.55576 0.77886 0.0
C576 C 0.47561 0.58872 0.76967 0.0
C577 C 0.42668 0.53689 0.77854 0.0
C578 C 0.35245 0.5306 0.74059 0.0
H579 H 0.21682 0.38712 0.79523 0.0
H580 H 0.27384 0.42623 0.79513 0.0
H581 H 0.30496 0.51009 0.71745 0.0
H582 H 0.46726 0.62732 0.7521 0.0
H583 H 0.40855 0.59402 0.75077 0.0
H584 H 0.37081 0.50916 0.82363 0.0
C585 C 0.25732 0.4336 0.7846 0.0
C586 C 0.31896 0.51001 0.74109 0.0
C587 C 0.22448 0.41101 0.78445 0.0
C588 C 0.45638 0.602 0.759 0.0
C589 C 0.4227 0.58296 0.75834 0.0
C590 C 0.3567 0.50958 0.80026 0.0
C591 C 0.26873 0.46492 0.77068 0.0
C592 C 0.30401 0.48869 0.77104 0.0
C593 C 0.40748 0.5503 0.76866 0.0
C594 C 0.37174 0.53015 0.76989 0.0
H595 H 0.1965 0.45698 0.74472 0.0
H596 H 0.25407 0.49685 0.74561 0.0
H597 H 0.31269 0.47387 0.82492 0.0
H598 H 0.47412 0.5444 0.78629 0.0
H599 H 0.41571 0.51164 0.78591 0.0
C600 C 0.17175 0.16867 0.23716 0.0
C601 C 0.20528 0.18921 0.2361 0.0
C602 C 0.15104 0.18126 0.23759 0.0
C603 C 0.1485 0.25502 0.26112 0.0
H604 H 0.06472 0.20805 0.21395 0.0
C605 C 0.04373 0.28728 0.25849 0.0
C606 C 1.0146 0.26106 0.27097 0.0
C607 C 0.07087 0.28373 0.25336 0.0
C608 C 0.08815 0.22155 0.22704 0.0
H609 H 0.24325 0.23928 0.2341 0.0
H610 H 0.20702 0.2612 0.23374 0.0
H611 H 0.10443 0.19148 0.2034 0.0
H612 H 0.99188 0.21174 0.29108 0.0
H613 H 0.03865 0.2057 0.28186 0.0
H614 H 0.13158 0.28493 0.28492 0.0
C615 C 0.19678 0.23532 0.23479 0.0
C616 C 0.11083 0.21193 0.22126 0.0
C617 C 0.21754 0.2227 0.23447 0.0
C618 C 1.01377 0.23222 0.28071 0.0
C619 C 0.04051 0.22868 0.27543 0.0
C620 C 0.12578 0.26488 0.26661 0.0
C621 C 0.16326 0.21476 0.23672 0.0
C622 C 0.14093 0.22786 0.23914 0.0
C623 C 0.06894 0.25394 0.26056 0.0
C624 C 0.0951 0.24758 0.25045 0.0
H625 H 0.16143 0.14278 0.23809 0.0
H626 H 0.12541 0.16463 0.23962 0.0
H627 H 0.17138 0.26776 0.2755 0.0
H628 H 0.045 0.30974 0.25073 0.0
H629 H 0.0927 0.3036 0.24201 0.0
C630 C 0.01724 0.8459 0.25157 0.0
C631 C 1.00398 0.8253 0.28234 0.0
C632 C 0.05063 0.86529 0.24795 0.0
C633 C 0.12595 0.90117 0.30298 0.0
H634 H 0.16591 0.91761 0.2059 0.0
C635 C 0.26232 0.98851 0.28345 0.0
C636 C 0.26875 0.01215 0.25641 0.0
C637 C 0.23172 0.96089 0.2854 0.0
C638 C 0.1551 0.91317 0.23322 0.0
H639 H 1.01547 0.80819 0.33283 0.0
H640 H 0.07357 0.8419 0.3265 0.0
H641 H 0.10846 0.87929 0.21211 0.0
H642 H 0.24943 0.02466 0.20871 0.0
H643 H 0.19654 0.97666 0.21179 0.0
H644 H 0.17248 0.93557 0.32393 0.0
C645 C 0.05822 0.84359 0.30553 0.0
C646 C 0.12216 0.89138 0.23675 0.0
C647 C 0.02488 0.82431 0.3092 0.0
C648 C 0.24497 1.00685 0.23001 0.0
C649 C 0.21473 0.97922 0.23161 0.0
C650 C 0.15892 0.9229 0.29945 0.0
C651 C 0.07154 0.86439 0.27492 0.0
C652 C 0.10703 0.88562 0.27155 0.0
C653 C 0.20741 0.95634 0.25992 0.0
C654 C 0.17371 0.92967 0.26441 0.0
H655 H 1.00179 0.8474 0.23057 0.0
H656 H 0.06003 0.88142 0.22433 0.0
H657 H 0.11506 0.89758 0.33016 0.0
H658 H 0.28027 0.99218 0.3042 0.0
H659 H 0.2268 0.94351 0.30737 0.0
C660 C 0.86003 1.01103 0.24666 0.0
C661 C 0.84361 0.02473 0.26414 0.0
C662 C 0.84656 0.97761 0.24519 0.0
C663 C 0.78685 0.90139 0.28929 0.0
H664 H 0.79569 0.86464 0.19744 0.0
C665 C 0.74265 0.76484 0.27421 0.0
C666 C 0.76701 0.75946 0.26089 0.0
C667 C 0.74604 0.79562 0.27135 0.0
C668 C 0.79293 0.87452 0.22326 0.0
H669 H 0.80018 0.01384 0.29419 0.0
H670 H 0.7769 0.95549 0.29201 0.0
H671 H 0.81455 0.92214 0.20061 0.0
H672 H 0.81281 0.781 0.23231 0.0
H673 H 0.81844 0.83402 0.22675 0.0
H674 H 0.76602 0.85375 0.31216 0.0
C675 C 0.80029 0.97068 0.27959 0.0
C676 C 0.8039 0.90748 0.22514 0.0
C677 C 0.81373 1.00415 0.28097 0.0
C678 C 0.79372 0.78458 0.24288 0.0
C679 C 0.79684 0.81493 0.23951 0.0
C680 C 0.77586 0.86831 0.2874 0.0
C681 C 0.81635 0.95702 0.2612 0.0
C682 C 0.8018 0.92148 0.25845 0.0
C683 C 0.77348 0.8211 0.25445 0.0
C684 C 0.77962 0.8547 0.25464 0.0
H685 H 0.88331 0.02614 0.23396 0.0
H686 H 0.85992 0.96789 0.23155 0.0
H687 H 0.78494 0.91144 0.31539 0.0
H688 H 0.72195 0.74582 0.28841 0.0
H689 H 0.72759 0.79968 0.28297 0.0
C690 C 0.20574 0.19573 0.70048 0.0
C691 C 0.18269 0.19267 0.72671 0.0
C692 C 0.21753 0.17424 0.70064 0.0
C693 C 0.19852 0.09387 0.73612 0.0
H694 H 0.29013 0.12584 0.72603 0.0
C695 C 0.25109 0.01698 0.78282 0.0
C696 C 0.26947 1.01153 0.75672 0.0
C697 C 0.24449 0.04189 0.77773 0.0
C698 C 0.26448 0.11661 0.72854 0.0
H699 H 0.15438 0.16478 0.77396 0.0
H700 H 0.17465 0.1275 0.77413 0.0
H701 H 0.26912 0.16284 0.71799 0.0
H702 H 0.29735 0.02917 0.7062 0.0
H703 H 0.28581 0.07337 0.69723 0.0
H704 H 0.19383 0.04795 0.74746 0.0
C705 C 0.18321 0.14604 0.75291 0.0
C706 C 0.25241 0.13769 0.72382 0.0
C707 C 0.17147 0.16742 0.75274 0.0
C708 C 0.28333 0.03309 0.72685 0.0
C709 C 0.27659 0.0582 0.72165 0.0
C710 C 0.21055 0.07299 0.74103 0.0
C711 C 0.2065 0.14922 0.72701 0.0
C712 C 0.21932 0.12665 0.72833 0.0
C713 C 0.25594 0.06187 0.74628 0.0
C714 C 0.2437 0.08422 0.7381 0.0
H715 H 0.21475 0.2148 0.6799 0.0
H716 H 0.23519 0.17715 0.68006 0.0
H717 H 0.17284 0.08434 0.73883 0.0
H718 H 0.24041 1.00088 0.80632 0.0
H719 H 0.22916 0.04464 0.79763 0.0
C720 C 1.00999 0.81331 0.74818 0.0
C721 C 0.03036 0.83211 0.77717 0.0
C722 C 0.97662 0.79925 0.75119 0.0
C723 C 0.91054 0.77886 0.81903 0.0
H724 H 0.86426 0.78033 0.73107 0.0
C725 C 0.78765 0.77273 0.82183 0.0
C726 C 0.76521 0.7561 0.7935 0.0
C727 C 0.81786 0.77513 0.82165 0.0
C728 C 0.87668 0.77913 0.75571 0.0
H729 H 0.03171 0.8505 0.83234 0.0
H730 H 0.97335 0.82669 0.83735 0.0
H731 H 0.9216 0.79925 0.72716 0.0
H732 H 0.75606 0.72768 0.74369 0.0
H733 H 0.80938 0.73218 0.74305 0.0
H734 H 0.86561 0.76 0.8478 0.0
C735 C 0.98311 0.82223 0.8125 0.0
C736 C 0.90965 0.79003 0.75353 0.0
C737 C 1.01658 0.83605 0.80961 0.0
C738 C 0.77288 0.74044 0.76597 0.0
C739 C 0.80343 0.74327 0.76546 0.0
C740 C 0.87759 0.7682 0.82126 0.0
C741 C 0.96268 0.80384 0.78316 0.0
C742 C 0.92715 0.79044 0.78526 0.0
C743 C 0.8265 0.76132 0.79284 0.0
C744 C 0.86039 0.76863 0.78972 0.0
H745 H 0.01989 0.80926 0.72314 0.0
H746 H 0.96175 0.78467 0.72839 0.0
H747 H 0.92303 0.77819 0.84387 0.0
H748 H 0.78227 0.78495 0.84347 0.0
H749 H 0.8351 0.7894 0.84296 0.0
C750 C 1.00475 0.23955 0.74357 0.0
C751 C 1.01514 0.26387 0.77045 0.0
C752 C 0.97839 0.20904 0.75046 0.0
C753 C 0.91272 0.15031 0.76774 0.0
H754 H 0.92032 0.10952 0.85762 0.0
C755 C 0.81893 0.01962 0.80659 0.0
C756 C 0.8317 0.99953 0.81498 0.0
C757 C 0.83891 0.05303 0.80479 0.0
C758 C 0.91783 0.12066 0.83252 0.0
H759 H 1.00595 0.27575 0.82531 0.0
H760 H 0.95994 0.2219 0.83774 0.0
H761 H 0.95816 0.16677 0.84636 0.0
H762 H 0.87529 0.99892 0.82948 0.0
H763 H 0.91027 0.05749 0.82657 0.0
H764 H 0.87284 0.10419 0.75349 0.0
C765 C 0.972 0.22669 0.81115 0.0
C766 C 0.93926 0.15344 0.82624 0.0
C767 C 0.99802 0.25752 0.8039 0.0
C768 C 0.86477 0.01375 0.82281 0.0
C769 C 0.88474 0.04726 0.82139 0.0
C770 C 0.89103 0.1177 0.77426 0.0
C771 C 0.96232 0.20203 0.78471 0.0
C772 C 0.93725 0.16843 0.79347 0.0
C773 C 0.87209 0.06718 0.81165 0.0
C774 C 0.89368 0.10239 0.80641 0.0
H775 H 0.01774 0.24383 0.71768 0.0
H776 H 0.97163 0.19045 0.72971 0.0
H777 H 0.91064 0.16128 0.74228 0.0
H778 H 0.79364 1.00946 0.79995 0.0
H779 H 0.82847 0.06779 0.79746 0.0
loop_
_geom_bond_atom_site_label_1
_geom_bond_atom_site_label_2
_geom_bond_distance
_geom_bond_site_symmetry_2
_ccdc_geom_bond_type
Tb0 C10 2.825 . S
Tb0 O11 2.347 . S
Tb0 O14 2.366 . S
Tb0 O19 2.418 . S
Tb0 O20 2.384 . S
Tb0 O23 2.479 . S
Tb0 O24 2.471 . S
Eu1 O12 2.418 . S
Eu1 O13 2.384 . S
Eu1 O16 2.479 . S
Eu1 O17 2.471 . S
Eu1 O18 2.347 . S
Eu1 O21 2.366 . S
Eu1 C31 2.825 . S
C2 O18 1.259 . S
C2 O19 1.265 . S
C3 O20 1.255 . S
C3 O21 1.265 . S
C4 C6 1.380 . S
C4 C7 1.374 . S
C4 C10 1.507 . S
C5 C6 1.384 . S
C5 C9 1.387 . S
C5 H32 0.930 . S
C6 C4 1.380 . S
C6 C5 1.384 . S
C6 H33 0.931 . S
C7 C4 1.374 . S
C7 C8 1.390 . S
C7 H34 0.930 . S
C8 C7 1.390 . S
C8 C9 1.391 . S
C8 H35 0.930 . S
C9 C5 1.387 . S
C9 C8 1.391 . S
C10 Tb0 2.825 . S
C10 C4 1.507 . S
C10 O23 1.238 . S
C10 O24 1.247 . S
O11 Tb0 2.347 . S
O11 C15 1.259 . S
O12 Eu1 2.418 . S
O12 C15 1.265 . S
O13 Eu1 2.384 . S
O13 C22 1.255 . S
O14 Tb0 2.366 . S
O14 C22 1.265 . S
C15 O11 1.259 . S
C15 O12 1.265 . S
O16 Eu1 2.479 . S
O16 C31 1.238 . S
O17 Eu1 2.471 . S
O17 C31 1.247 . S
O18 Eu1 2.347 . S
O18 C2 1.259 . S
O19 Tb0 2.418 . S
O19 C2 1.265 . S
O20 Tb0 2.384 . S
O20 C3 1.255 . S
O21 Eu1 2.366 . S
O21 C3 1.265 . S
C22 O13 1.255 . S
C22 O14 1.265 . S
O23 Tb0 2.479 . S
O23 C10 1.238 . S
O24 Tb0 2.471 . S
O24 C10 1.247 . S
C25 C28 1.380 . S
C25 C29 1.374 . S
C25 C31 1.507 . S
C26 C27 1.387 . S
C26 C30 1.391 . S
C27 C26 1.387 . S
C27 C28 1.384 . S
C27 H36 0.930 . S
C28 C25 1.380 . S
C28 C27 1.384 . S
C28 H37 0.931 . S
C29 C25 1.374 . S
C29 C30 1.390 . S
C29 H38 0.930 . S
C30 C26 1.391 . S
C30 C29 1.390 . S
C30 H39 0.930 . S
C31 Eu1 2.825 . S
C31 O16 1.238 . S
C31 O17 1.247 . S
C31 C25 1.507 . S
H32 C5 0.930 . S
H33 C6 0.931 . S
H34 C7 0.930 . S
H35 C8 0.930 . S
H36 C27 0.930 . S
H37 C28 0.931 . S
H38 C29 0.930 . S
H39 C30 0.930 . S
Tb40 C50 2.825 . S
Tb40 O51 2.347 . S
Tb40 O54 2.366 . S
Tb40 O59 2.418 . S
Tb40 O60 2.384 . S
Tb40 O63 2.479 . S
Tb40 O64 2.471 . S
Eu41 O52 2.418 . S
Eu41 O53 2.384 . S
Eu41 O56 2.479 . S
Eu41 O57 2.471 . S
Eu41 O58 2.347 . S
Eu41 O61 2.366 . S
Eu41 C71 2.825 . S
C42 O58 1.259 . S
C42 O59 1.265 . S
C43 O60 1.255 . S
C43 O61 1.265 . S
C44 C46 1.380 . S
C44 C47 1.374 . S
C44 C50 1.507 . S
C45 C46 1.384 . S
C45 C49 1.387 . S
C45 H72 0.930 . S
C46 C44 1.380 . S
C46 C45 1.384 . S
C46 H73 0.931 . S
C47 C44 1.374 . S
C47 C48 1.390 . S
C47 H74 0.930 . S
C48 C47 1.390 . S
C48 C49 1.391 . S
C48 H75 0.930 . S
C49 C45 1.387 . S
C49 C48 1.391 . S
C50 Tb40 2.825 . S
C50 C44 1.507 . S
C50 O63 1.238 . S
C50 O64 1.247 . S
O51 Tb40 2.347 . S
O51 C55 1.259 . S
O52 Eu41 2.418 . S
O52 C55 1.265 . S
O53 Eu41 2.384 . S
O53 C62 1.255 . S
O54 Tb40 2.366 . S
O54 C62 1.265 . S
C55 O51 1.259 . S
C55 O52 1.265 . S
O56 Eu41 2.479 . S
O56 C71 1.238 . S
O57 Eu41 2.471 . S
O57 C71 1.247 . S
O58 Eu41 2.347 . S
O58 C42 1.259 . S
O59 Tb40 2.418 . S
O59 C42 1.265 . S
O60 Tb40 2.384 . S
O60 C43 1.255 . S
O61 Eu41 2.366 . S
O61 C43 1.265 . S
C62 O53 1.255 . S
C62 O54 1.265 . S
O63 Tb40 2.479 . S
O63 C50 1.238 . S
O64 Tb40 2.471 . S
O64 C50 1.247 . S
C65 C68 1.380 . S
C65 C69 1.374 . S
C65 C71 1.507 . S
C66 C67 1.387 . S
C66 C70 1.391 . S
C67 C66 1.387 . S
C67 C68 1.384 . S
C67 H76 0.930 . S
C68 C65 1.380 . S
C68 C67 1.384 . S
C68 H77 0.931 . S
C69 C65 1.374 . S
C69 C70 1.390 . S
C69 H78 0.930 . S
C70 C66 1.391 . S
C70 C69 1.390 . S
C70 H79 0.930 . S
C71 Eu41 2.825 . S
C71 O56 1.238 . S
C71 O57 1.247 . S
C71 C65 1.507 . S
H72 C45 0.930 . S
H73 C46 0.931 . S
H74 C47 0.930 . S
H75 C48 0.930 . S
H76 C67 0.930 . S
H77 C68 0.931 . S
H78 C69 0.930 . S
H79 C70 0.930 . S
Tb80 C90 2.825 . S
Tb80 O91 2.347 . S
Tb80 O94 2.366 . S
Tb80 O99 2.418 . S
Tb80 O100 2.384 . S
Tb80 O103 2.479 . S
Tb80 O104 2.471 . S
Eu81 O92 2.418 . S
Eu81 O93 2.384 . S
Eu81 O96 2.479 . S
Eu81 O97 2.471 . S
Eu81 O98 2.347 . S
Eu81 O101 2.366 . S
Eu81 C111 2.825 . S
C82 O98 1.259 . S
C82 O99 1.265 . S
C83 O100 1.255 . S
C83 O101 1.265 . S
C84 C86 1.380 . S
C84 C87 1.374 . S
C84 C90 1.507 . S
C85 C86 1.384 . S
C85 C89 1.387 . S
C85 H112 0.930 . S
C86 C84 1.380 . S
C86 C85 1.384 . S
C86 H113 0.931 . S
C87 C84 1.374 . S
C87 C88 1.390 . S
C87 H114 0.930 . S
C88 C87 1.390 . S
C88 C89 1.391 . S
C88 H115 0.930 . S
C89 C85 1.387 . S
C89 C88 1.391 . S
C90 Tb80 2.825 . S
C90 C84 1.507 . S
C90 O103 1.238 . S
C90 O104 1.247 . S
O91 Tb80 2.347 . S
O91 C95 1.259 . S
O92 Eu81 2.418 . S
O92 C95 1.265 . S
O93 Eu81 2.384 . S
O93 C102 1.255 . S
O94 Tb80 2.366 . S
O94 C102 1.265 . S
C95 O91 1.259 . S
C95 O92 1.265 . S
O96 Eu81 2.479 . S
O96 C111 1.238 . S
O97 Eu81 2.471 . S
O97 C111 1.247 . S
O98 Eu81 2.347 . S
O98 C82 1.259 . S
O99 Tb80 2.418 . S
O99 C82 1.265 . S
O100 Tb80 2.384 . S
O100 C83 1.255 . S
O101 Eu81 2.366 . S
O101 C83 1.265 . S
C102 O93 1.255 . S
C102 O94 1.265 . S
O103 Tb80 2.479 . S
O103 C90 1.238 . S
O104 Tb80 2.471 . S
O104 C90 1.247 . S
C105 C108 1.380 . S
C105 C109 1.374 . S
C105 C111 1.507 . S
C106 C107 1.387 . S
C106 C110 1.391 . S
C107 C106 1.387 . S
C107 C108 1.384 . S
C107 H116 0.930 . S
C108 C105 1.380 . S
C108 C107 1.384 . S
C108 H117 0.931 . S
C109 C105 1.374 . S
C109 C110 1.390 . S
C109 H118 0.930 . S
C110 C106 1.391 . S
C110 C109 1.390 . S
C110 H119 0.930 . S
C111 Eu81 2.825 . S
C111 O96 1.238 . S
C111 O97 1.247 . S
C111 C105 1.507 . S
H112 C85 0.930 . S
H113 C86 0.931 . S
H114 C87 0.930 . S
H115 C88 0.930 . S
H116 C107 0.930 . S
H117 C108 0.931 . S
H118 C109 0.930 . S
H119 C110 0.930 . S
Tb120 C130 2.825 . S
Tb120 O131 2.347 . S
Tb120 O134 2.366 . S
Tb120 O139 2.418 . S
Tb120 O140 2.384 . S
Tb120 O143 2.479 . S
Tb120 O144 2.471 . S
Eu121 O132 2.418 . S
Eu121 O133 2.384 . S
Eu121 O136 2.479 . S
Eu121 O137 2.471 . S
Eu121 O138 2.347 . S
Eu121 O141 2.366 . S
Eu121 C151 2.825 . S
C122 O138 1.259 . S
C122 O139 1.265 . S
C123 O140 1.255 . S
C123 O141 1.265 . S
C124 C126 1.380 . S
C124 C127 1.374 . S
C124 C130 1.507 . S
C125 C126 1.384 . S
C125 C129 1.387 . S
C125 H152 0.930 . S
C126 C124 1.380 . S
C126 C125 1.384 . S
C126 H153 0.931 . S
C127 C124 1.374 . S
C127 C128 1.390 . S
C127 H154 0.930 . S
C128 C127 1.390 . S
C128 C129 1.391 . S
C128 H155 0.930 . S
C129 C125 1.387 . S
C129 C128 1.391 . S
C130 Tb120 2.825 . S
C130 C124 1.507 . S
C130 O143 1.238 . S
C130 O144 1.247 . S
O131 Tb120 2.347 . S
O131 C135 1.259 . S
O132 Eu121 2.418 . S
O132 C135 1.265 . S
O133 Eu121 2.384 . S
O133 C142 1.255 . S
O134 Tb120 2.366 . S
O134 C142 1.265 . S
C135 O131 1.259 . S
C135 O132 1.265 . S
O136 Eu121 2.479 . S
O136 C151 1.238 . S
O137 Eu121 2.471 . S
O137 C151 1.247 . S
O138 Eu121 2.347 . S
O138 C122 1.259 . S
O139 Tb120 2.418 . S
O139 C122 1.265 . S
O140 Tb120 2.384 . S
O140 C123 1.255 . S
O141 Eu121 2.366 . S
O141 C123 1.265 . S
C142 O133 1.255 . S
C142 O134 1.265 . S
O143 Tb120 2.479 . S
O143 C130 1.238 . S
O144 Tb120 2.471 . S
O144 C130 1.247 . S
C145 C148 1.380 . S
C145 C149 1.374 . S
C145 C151 1.507 . S
C146 C147 1.387 . S
C146 C150 1.391 . S
C147 C146 1.387 . S
C147 C148 1.384 . S
C147 H156 0.930 . S
C148 C145 1.380 . S
C148 C147 1.384 . S
C148 H157 0.931 . S
C149 C145 1.374 . S
C149 C150 1.390 . S
C149 H158 0.930 . S
C150 C146 1.391 . S
C150 C149 1.390 . S
C150 H159 0.930 . S
C151 Eu121 2.825 . S
C151 O136 1.238 . S
C151 O137 1.247 . S
C151 C145 1.507 . S
H152 C125 0.930 . S
H153 C126 0.931 . S
H154 C127 0.930 . S
H155 C128 0.930 . S
H156 C147 0.930 . S
H157 C148 0.931 . S
H158 C149 0.930 . S
H159 C150 0.930 . S
Tb160 C170 2.825 . S
Tb160 O171 2.347 . S
Tb160 O174 2.366 . S
Tb160 O179 2.418 . S
Tb160 O180 2.384 . S
Tb160 O183 2.479 . S
Tb160 O184 2.471 . S
Eu161 O172 2.418 . S
Eu161 O173 2.384 . S
Eu161 O176 2.479 . S
Eu161 O177 2.471 . S
Eu161 O178 2.347 . S
Eu161 O181 2.366 . S
Eu161 C191 2.825 . S
C162 O178 1.259 . S
C162 O179 1.265 . S
C163 O180 1.255 . S
C163 O181 1.265 . S
C164 C166 1.380 . S
C164 C167 1.374 . S
C164 C170 1.507 . S
C165 C166 1.384 . S
C165 C169 1.387 . S
C165 H192 0.930 . S
C166 C164 1.380 . S
C166 C165 1.384 . S
C166 H193 0.931 . S
C167 C164 1.374 . S
C167 C168 1.390 . S
C167 H194 0.930 . S
C168 C167 1.390 . S
C168 C169 1.391 . S
C168 H195 0.930 . S
C169 C165 1.387 . S
C169 C168 1.391 . S
C170 Tb160 2.825 . S
C170 C164 1.507 . S
C170 O183 1.238 . S
C170 O184 1.247 . S
O171 Tb160 2.347 . S
O171 C175 1.259 . S
O172 Eu161 2.418 . S
O172 C175 1.265 . S
O173 Eu161 2.384 . S
O173 C182 1.255 . S
O174 Tb160 2.366 . S
O174 C182 1.265 . S
C175 O171 1.259 . S
C175 O172 1.265 . S
O176 Eu161 2.479 . S
O176 C191 1.238 . S
O177 Eu161 2.471 . S
O177 C191 1.247 . S
O178 Eu161 2.347 . S
O178 C162 1.259 . S
O179 Tb160 2.418 . S
O179 C162 1.265 . S
O180 Tb160 2.384 . S
O180 C163 1.255 . S
O181 Eu161 2.366 . S
O181 C163 1.265 . S
C182 O173 1.255 . S
C182 O174 1.265 . S
O183 Tb160 2.479 . S
O183 C170 1.238 . S
O184 Tb160 2.471 . S
O184 C170 1.247 . S
C185 C188 1.380 . S
C185 C189 1.374 . S
C185 C191 1.507 . S
C186 C187 1.387 . S
C186 C190 1.391 . S
C187 C186 1.387 . S
C187 C188 1.384 . S
C187 H196 0.930 . S
C188 C185 1.380 . S
C188 C187 1.384 . S
C188 H197 0.931 . S
C189 C185 1.374 . S
C189 C190 1.390 . S
C189 H198 0.930 . S
C190 C186 1.391 . S
C190 C189 1.390 . S
C190 H199 0.930 . S
C191 Eu161 2.825 . S
C191 O176 1.238 . S
C191 O177 1.247 . S
C191 C185 1.507 . S
H192 C165 0.930 . S
H193 C166 0.931 . S
H194 C167 0.930 . S
H195 C168 0.930 . S
H196 C187 0.930 . S
H197 C188 0.931 . S
H198 C189 0.930 . S
H199 C190 0.930 . S
Tb200 C210 2.825 . S
Tb200 O211 2.347 . S
Tb200 O214 2.366 . S
Tb200 O219 2.418 . S
Tb200 O220 2.384 . S
Tb200 O223 2.479 . S
Tb200 O224 2.471 . S
Eu201 O212 2.418 . S
Eu201 O213 2.384 . S
Eu201 O216 2.479 . S
Eu201 O217 2.471 . S
Eu201 O218 2.347 . S
Eu201 O221 2.366 . S
Eu201 C231 2.825 . S
C202 O218 1.259 . S
C202 O219 1.265 . S
C203 O220 1.255 . S
C203 O221 1.265 . S
C204 C206 1.380 . S
C204 C207 1.374 . S
C204 C210 1.507 . S
C205 C206 1.384 . S
C205 C209 1.387 . S
C205 H232 0.930 . S
C206 C204 1.380 . S
C206 C205 1.384 . S
C206 H233 0.931 . S
C207 C204 1.374 . S
C207 C208 1.390 . S
C207 H234 0.930 . S
C208 C207 1.390 . S
C208 C209 1.391 . S
C208 H235 0.930 . S
C209 C205 1.387 . S
C209 C208 1.391 . S
C210 Tb200 2.825 . S
C210 C204 1.507 . S
C210 O223 1.238 . S
C210 O224 1.247 . S
O211 Tb200 2.347 . S
O211 C215 1.259 . S
O212 Eu201 2.418 . S
O212 C215 1.265 . S
O213 Eu201 2.384 . S
O213 C222 1.255 . S
O214 Tb200 2.366 . S
O214 C222 1.265 . S
C215 O211 1.259 . S
C215 O212 1.265 . S
O216 Eu201 2.479 . S
O216 C231 1.238 . S
O217 Eu201 2.471 . S
O217 C231 1.247 . S
O218 Eu201 2.347 . S
O218 C202 1.259 . S
O219 Tb200 2.418 . S
O219 C202 1.265 . S
O220 Tb200 2.384 . S
O220 C203 1.255 . S
O221 Eu201 2.366 . S
O221 C203 1.265 . S
C222 O213 1.255 . S
C222 O214 1.265 . S
O223 Tb200 2.479 . S
O223 C210 1.238 . S
O224 Tb200 2.471 . S
O224 C210 1.247 . S
C225 C228 1.380 . S
C225 C229 1.374 . S
C225 C231 1.507 . S
C226 C227 1.387 . S
C226 C230 1.391 . S
C227 C226 1.387 . S
C227 C228 1.384 . S
C227 H236 0.930 . S
C228 C225 1.380 . S
C228 C227 1.384 . S
C228 H237 0.931 . S
C229 C225 1.374 . S
C229 C230 1.390 . S
C229 H238 0.930 . S
C230 C226 1.391 . S
C230 C229 1.390 . S
C230 H239 0.930 . S
C231 Eu201 2.825 . S
C231 O216 1.238 . S
C231 O217 1.247 . S
C231 C225 1.507 . S
H232 C205 0.930 . S
H233 C206 0.931 . S
H234 C207 0.930 . S
H235 C208 0.930 . S
H236 C227 0.930 . S
H237 C228 0.931 . S
H238 C229 0.930 . S
H239 C230 0.930 . S
C240 C241 1.349 . S
C240 C242 1.327 . S
C240 H265 0.950 . S
C241 C240 1.349 . S
C241 C257 1.349 . S
C242 C240 1.327 . S
C242 C261 1.429 . S
C242 H266 0.950 . S
C243 C260 1.574 . S
C243 C262 1.368 1_545 S
C243 H267 0.949 . S
H244 C248 0.949 . S
C245 C246 1.349 . S
C245 C247 1.327 . S
C245 H268 0.950 . S
C246 C245 1.349 . S
C246 C258 1.349 . S
C247 C245 1.327 . S
C247 C263 1.429 . S
C247 H269 0.950 . S
C248 H244 0.949 . S
C248 C256 1.574 . S
C248 C264 1.368 1_565 S
H249 C257 0.950 . S
H250 C255 0.950 . S
H251 C256 0.949 . S
H252 C258 0.950 . S
H253 C259 0.950 . S
H254 C260 0.949 . S
C255 H250 0.950 . S
C255 C257 1.327 . S
C255 C261 1.429 . S
C256 C248 1.574 . S
C256 H251 0.949 . S
C256 C262 1.368 1_554 S
C257 C241 1.349 . S
C257 H249 0.950 . S
C257 C255 1.327 . S
C258 C246 1.349 . S
C258 H252 0.950 . S
C258 C259 1.327 . S
C259 H253 0.950 . S
C259 C258 1.327 . S
C259 C263 1.429 . S
C260 C243 1.574 . S
C260 H254 0.949 . S
C260 C264 1.368 1_556 S
C261 C242 1.429 . S
C261 C255 1.429 . S
C261 C262 1.523 . S
C262 C243 1.368 1_565 S
C262 C256 1.368 1_556 S
C262 C261 1.523 . S
C263 C247 1.429 . S
C263 C259 1.429 . S
C263 C264 1.523 . S
C264 C248 1.368 1_545 S
C264 C260 1.368 1_554 S
C264 C263 1.523 . S
H265 C240 0.950 . S
H266 C242 0.950 . S
H267 C243 0.949 . S
H268 C245 0.950 . S
H269 C247 0.950 . S
C270 C271 1.349 . S
C270 C272 1.327 . S
C270 H295 0.950 . S
C271 C270 1.349 . S
C271 C287 1.349 . S
C272 C270 1.327 . S
C272 C291 1.429 . S
C272 H296 0.950 . S
C273 C290 1.574 . S
C273 C292 1.368 . S
C273 H297 0.949 . S
H274 C278 0.949 . S
C275 C276 1.349 . S
C275 C277 1.327 . S
C275 H298 0.950 . S
C276 C275 1.349 . S
C276 C288 1.349 . S
C277 C275 1.327 . S
C277 C293 1.429 . S
C277 H299 0.950 . S
C278 H274 0.949 . S
C278 C286 1.574 . S
C278 C294 1.368 . S
H279 C287 0.950 . S
H280 C285 0.950 . S
H281 C286 0.949 . S
H282 C288 0.950 . S
H283 C289 0.950 . S
H284 C290 0.949 . S
C285 H280 0.950 . S
C285 C287 1.327 . S
C285 C291 1.429 . S
C286 C278 1.574 . S
C286 H281 0.949 . S
C286 C292 1.368 . S
C287 C271 1.349 . S
C287 H279 0.950 . S
C287 C285 1.327 . S
C288 C276 1.349 . S
C288 H282 0.950 . S
C288 C289 1.327 . S
C289 H283 0.950 . S
C289 C288 1.327 . S
C289 C293 1.429 . S
C290 C273 1.574 . S
C290 H284 0.949 . S
C290 C294 1.368 . S
C291 C272 1.429 . S
C291 C285 1.429 . S
C291 C292 1.523 . S
C292 C273 1.368 . S
C292 C286 1.368 . S
C292 C291 1.523 . S
C293 C277 1.429 . S
C293 C289 1.429 . S
C293 C294 1.523 . S
C294 C278 1.368 . S
C294 C290 1.368 . S
C294 C293 1.523 . S
H295 C270 0.950 . S
H296 C272 0.950 . S
H297 C273 0.949 . S
H298 C275 0.950 . S
H299 C277 0.950 . S
C300 C301 1.349 . S
C300 C302 1.327 . S
C300 H325 0.950 . S
C301 C300 1.349 . S
C301 C317 1.349 . S
C302 C300 1.327 . S
C302 C321 1.429 . S
C302 H326 0.950 . S
C303 C320 1.574 1_554 S
C303 C322 1.368 . S
C303 H327 0.949 . S
H304 C308 0.949 . S
C305 C306 1.349 . S
C305 C307 1.327 . S
C305 H328 0.950 . S
C306 C305 1.349 . S
C306 C318 1.349 . S
C307 C305 1.327 . S
C307 C323 1.429 . S
C307 H329 0.950 . S
C308 H304 0.949 . S
C308 C316 1.574 1_556 S
C308 C324 1.368 . S
H309 C317 0.950 . S
H310 C315 0.950 . S
H311 C316 0.949 . S
H312 C318 0.950 . S
H313 C319 0.950 . S
H314 C320 0.949 . S
C315 H310 0.950 . S
C315 C317 1.327 . S
C315 C321 1.429 . S
C316 C308 1.574 1_554 S
C316 H311 0.949 . S
C316 C322 1.368 1_455 S
C317 C301 1.349 . S
C317 H309 0.950 . S
C317 C315 1.327 . S
C318 C306 1.349 . S
C318 H312 0.950 . S
C318 C319 1.327 . S
C319 H313 0.950 . S
C319 C318 1.327 . S
C319 C323 1.429 . S
C320 C303 1.574 1_556 S
C320 H314 0.949 . S
C320 C324 1.368 1_655 S
C321 C302 1.429 . S
C321 C315 1.429 . S
C321 C322 1.523 . S
C322 C303 1.368 . S
C322 C316 1.368 1_655 S
C322 C321 1.523 . S
C323 C307 1.429 . S
C323 C319 1.429 . S
C323 C324 1.523 . S
C324 C308 1.368 . S
C324 C320 1.368 1_455 S
C324 C323 1.523 . S
H325 C300 0.950 . S
H326 C302 0.950 . S
H327 C303 0.949 . S
H328 C305 0.950 . S
H329 C307 0.950 . S
C330 C331 1.349 . S
C330 C332 1.327 . S
C330 H355 0.950 . S
C331 C330 1.349 . S
C331 C347 1.349 . S
C332 C330 1.327 . S
C332 C351 1.429 . S
C332 H356 0.950 . S
C333 C350 1.574 1_545 S
C333 C352 1.368 . S
C333 H357 0.949 . S
H334 C338 0.949 . S
C335 C336 1.349 . S
C335 C337 1.327 . S
C335 H358 0.950 . S
C336 C335 1.349 . S
C336 C348 1.349 . S
C337 C335 1.327 . S
C337 C353 1.429 . S
C337 H359 0.950 . S
C338 H334 0.949 . S
C338 C346 1.574 1_565 S
C338 C354 1.368 . S
H339 C347 0.950 . S
H340 C345 0.950 . S
H341 C346 0.949 . S
H342 C348 0.950 . S
H343 C349 0.950 . S
H344 C350 0.949 . S
C345 H340 0.950 . S
C345 C347 1.327 . S
C345 C351 1.429 . S
C346 C338 1.574 1_545 S
C346 H341 0.949 . S
C346 C352 1.368 . S
C347 C331 1.349 . S
C347 H339 0.950 . S
C347 C345 1.327 . S
C348 C336 1.349 . S
C348 H342 0.950 . S
C348 C349 1.327 . S
C349 H343 0.950 . S
C349 C348 1.327 . S
C349 C353 1.429 . S
C350 C333 1.574 1_565 S
C350 H344 0.949 . S
C350 C354 1.368 . S
C351 C332 1.429 . S
C351 C345 1.429 . S
C351 C352 1.523 . S
C352 C333 1.368 . S
C352 C346 1.368 . S
C352 C351 1.523 . S
C353 C337 1.429 . S
C353 C349 1.429 . S
C353 C354 1.523 . S
C354 C338 1.368 . S
C354 C350 1.368 . S
C354 C353 1.523 . S
H355 C330 0.950 . S
H356 C332 0.950 . S
H357 C333 0.949 . S
H358 C335 0.950 . S
H359 C337 0.950 . S
C360 C361 1.349 . S
C360 C362 1.327 . S
C360 H385 0.950 . S
C361 C360 1.349 . S
C361 C377 1.349 . S
C362 C360 1.327 . S
C362 C381 1.429 . S
C362 H386 0.950 . S
C363 C380 1.574 1_556 S
C363 C382 1.368 . S
C363 H387 0.949 . S
H364 C368 0.949 . S
C365 C366 1.349 . S
C365 C367 1.327 . S
C365 H388 0.950 . S
C366 C365 1.349 . S
C366 C378 1.349 . S
C367 C365 1.327 . S
C367 C383 1.429 . S
C367 H389 0.950 . S
C368 H364 0.949 . S
C368 C376 1.574 1_554 S
C368 C384 1.368 . S
H369 C377 0.950 . S
H370 C375 0.950 . S
H371 C376 0.949 . S
H372 C378 0.950 . S
H373 C379 0.950 . S
H374 C380 0.949 . S
C375 H370 0.950 . S
C375 C377 1.327 . S
C375 C381 1.429 . S
C376 C368 1.574 1_556 S
C376 H371 0.949 . S
C376 C382 1.368 . S
C377 C361 1.349 . S
C377 H369 0.950 . S
C377 C375 1.327 . S
C378 C366 1.349 . S
C378 H372 0.950 . S
C378 C379 1.327 . S
C379 H373 0.950 . S
C379 C378 1.327 . S
C379 C383 1.429 . S
C380 C363 1.574 1_554 S
C380 H374 0.949 . S
C380 C384 1.368 . S
C381 C362 1.429 . S
C381 C375 1.429 . S
C381 C382 1.523 . S
C382 C363 1.368 . S
C382 C376 1.368 . S
C382 C381 1.523 . S
C383 C367 1.429 . S
C383 C379 1.429 . S
C383 C384 1.523 . S
C384 C368 1.368 . S
C384 C380 1.368 . S
C384 C383 1.523 . S
H385 C360 0.950 . S
H386 C362 0.950 . S
H387 C363 0.949 . S
H388 C365 0.950 . S
H389 C367 0.950 . S
C390 C391 1.349 . S
C390 C392 1.327 . S
C390 H415 0.950 . S
C391 C390 1.349 . S
C391 C407 1.349 . S
C392 C390 1.327 . S
C392 C411 1.429 . S
C392 H416 0.950 . S
C393 C410 1.574 1_655 S
C393 C412 1.368 . S
C393 H417 0.949 . S
H394 C398 0.949 . S
C395 C396 1.349 . S
C395 C397 1.327 . S
C395 H418 0.950 . S
C396 C395 1.349 . S
C396 C408 1.349 . S
C397 C395 1.327 . S
C397 C413 1.429 . S
C397 H419 0.950 . S
C398 H394 0.949 . S
C398 C406 1.574 1_455 S
C398 C414 1.368 . S
H399 C407 0.950 . S
H400 C405 0.950 . S
H401 C406 0.949 . S
H402 C408 0.950 . S
H403 C409 0.950 . S
H404 C410 0.949 . S
C405 H400 0.950 . S
C405 C407 1.327 . S
C405 C411 1.429 . S
C406 C398 1.574 1_655 S
C406 H401 0.949 . S
C406 C412 1.368 . S
C407 C391 1.349 . S
C407 H399 0.950 . S
C407 C405 1.327 . S
C408 C396 1.349 . S
C408 H402 0.950 . S
C408 C409 1.327 . S
C409 H403 0.950 . S
C409 C408 1.327 . S
C409 C413 1.429 . S
C410 C393 1.574 1_455 S
C410 H404 0.949 . S
C410 C414 1.368 . S
C411 C392 1.429 . S
C411 C405 1.429 . S
C411 C412 1.523 . S
C412 C393 1.368 . S
C412 C406 1.368 . S
C412 C411 1.523 . S
C413 C397 1.429 . S
C413 C409 1.429 . S
C413 C414 1.523 . S
C414 C398 1.368 . S
C414 C410 1.368 . S
C414 C413 1.523 . S
H415 C390 0.950 . S
H416 C392 0.950 . S
H417 C393 0.949 . S
H418 C395 0.950 . S
H419 C397 0.950 . S
C420 C421 1.349 . S
C420 C422 1.327 . S
C420 H445 0.950 . S
C421 C420 1.349 . S
C421 C437 1.349 . S
C422 C420 1.327 . S
C422 C441 1.429 . S
C422 H446 0.950 . S
C423 C440 1.574 . S
C423 C442 1.368 . S
C423 H447 0.949 . S
H424 C428 0.949 . S
C425 C426 1.349 . S
C425 C427 1.327 . S
C425 H448 0.950 . S
C426 C425 1.349 . S
C426 C438 1.349 . S
C427 C425 1.327 . S
C427 C443 1.429 . S
C427 H449 0.950 . S
C428 H424 0.949 . S
C428 C436 1.574 . S
C428 C444 1.368 . S
H429 C437 0.950 . S
H430 C435 0.950 . S
H431 C436 0.949 . S
H432 C438 0.950 . S
H433 C439 0.950 . S
H434 C440 0.949 . S
C435 H430 0.950 . S
C435 C437 1.327 . S
C435 C441 1.429 . S
C436 C428 1.574 . S
C436 H431 0.949 . S
C436 C442 1.368 . S
C437 C421 1.349 . S
C437 H429 0.950 . S
C437 C435 1.327 . S
C438 C426 1.349 . S
C438 H432 0.950 . S
C438 C439 1.327 . S
C439 H433 0.950 . S
C439 C438 1.327 . S
C439 C443 1.429 . S
C440 C423 1.574 . S
C440 H434 0.949 . S
C440 C444 1.368 . S
C441 C422 1.429 . S
C441 C435 1.429 . S
C441 C442 1.523 . S
C442 C423 1.368 . S
C442 C436 1.368 . S
C442 C441 1.523 . S
C443 C427 1.429 . S
C443 C439 1.429 . S
C443 C444 1.523 . S
C444 C428 1.368 . S
C444 C440 1.368 . S
C444 C443 1.523 . S
H445 C420 0.950 . S
H446 C422 0.950 . S
H447 C423 0.949 . S
H448 C425 0.950 . S
H449 C427 0.950 . S
C450 C451 1.349 . S
C450 C452 1.327 . S
C450 H475 0.950 . S
C451 C450 1.349 . S
C451 C467 1.349 . S
C452 C450 1.327 . S
C452 C471 1.429 . S
C452 H476 0.950 . S
C453 C470 1.574 . S
C453 C472 1.368 . S
C453 H477 0.949 . S
H454 C458 0.949 . S
C455 C456 1.349 . S
C455 C457 1.327 . S
C455 H478 0.950 . S
C456 C455 1.349 . S
C456 C468 1.349 . S
C457 C455 1.327 . S
C457 C473 1.429 . S
C457 H479 0.950 . S
C458 H454 0.949 . S
C458 C466 1.574 . S
C458 C474 1.368 . S
H459 C467 0.950 . S
H460 C465 0.950 . S
H461 C466 0.949 . S
H462 C468 0.950 . S
H463 C469 0.950 . S
H464 C470 0.949 . S
C465 H460 0.950 . S
C465 C467 1.327 . S
C465 C471 1.429 . S
C466 C458 1.574 . S
C466 H461 0.949 . S
C466 C472 1.368 . S
C467 C451 1.349 . S
C467 H459 0.950 . S
C467 C465 1.327 . S
C468 C456 1.349 . S
C468 H462 0.950 . S
C468 C469 1.327 . S
C469 H463 0.950 . S
C469 C468 1.327 . S
C469 C473 1.429 . S
C470 C453 1.574 . S
C470 H464 0.949 . S
C470 C474 1.368 . S
C471 C452 1.429 . S
C471 C465 1.429 . S
C471 C472 1.523 . S
C472 C453 1.368 . S
C472 C466 1.368 . S
C472 C471 1.523 . S
C473 C457 1.429 . S
C473 C469 1.429 . S
C473 C474 1.523 . S
C474 C458 1.368 . S
C474 C470 1.368 . S
C474 C473 1.523 . S
H475 C450 0.950 . S
H476 C452 0.950 . S
H477 C453 0.949 . S
H478 C455 0.950 . S
H479 C457 0.950 . S
C480 C481 1.349 . S
C480 C482 1.327 . S
C480 H505 0.950 . S
C481 C480 1.349 . S
C481 C497 1.349 . S
C482 C480 1.327 . S
C482 C501 1.429 . S
C482 H506 0.950 . S
C483 C500 1.574 . S
C483 C502 1.368 . S
C483 H507 0.949 . S
H484 C488 0.949 . S
C485 C486 1.349 . S
C485 C487 1.327 . S
C485 H508 0.950 . S
C486 C485 1.349 . S
C486 C498 1.349 . S
C487 C485 1.327 . S
C487 C503 1.429 . S
C487 H509 0.950 . S
C488 H484 0.949 . S
C488 C496 1.574 . S
C488 C504 1.368 . S
H489 C497 0.950 . S
H490 C495 0.950 . S
H491 C496 0.949 . S
H492 C498 0.950 . S
H493 C499 0.950 . S
H494 C500 0.949 . S
C495 H490 0.950 . S
C495 C497 1.327 . S
C495 C501 1.429 . S
C496 C488 1.574 . S
C496 H491 0.949 . S
C496 C502 1.368 . S
C497 C481 1.349 . S
C497 H489 0.950 . S
C497 C495 1.327 . S
C498 C486 1.349 . S
C498 H492 0.950 . S
C498 C499 1.327 . S
C499 H493 0.950 . S
C499 C498 1.327 . S
C499 C503 1.429 . S
C500 C483 1.574 . S
C500 H494 0.949 . S
C500 C504 1.368 . S
C501 C482 1.429 . S
C501 C495 1.429 . S
C501 C502 1.523 . S
C502 C483 1.368 . S
C502 C496 1.368 . S
C502 C501 1.523 . S
C503 C487 1.429 . S
C503 C499 1.429 . S
C503 C504 1.523 . S
C504 C488 1.368 . S
C504 C500 1.368 . S
C504 C503 1.523 . S
H505 C480 0.950 . S
H506 C482 0.950 . S
H507 C483 0.949 . S
H508 C485 0.950 . S
H509 C487 0.950 . S
C510 C511 1.349 . S
C510 C512 1.327 . S
C510 H535 0.950 . S
C511 C510 1.349 . S
C511 C527 1.349 . S
C512 C510 1.327 . S
C512 C531 1.429 . S
C512 H536 0.950 . S
C513 C530 1.574 . S
C513 C532 1.368 . S
C513 H537 0.949 . S
H514 C518 0.949 . S
C515 C516 1.349 . S
C515 C517 1.327 . S
C515 H538 0.950 . S
C516 C515 1.349 . S
C516 C528 1.349 . S
C517 C515 1.327 . S
C517 C533 1.429 . S
C517 H539 0.950 . S
C518 H514 0.949 . S
C518 C526 1.574 . S
C518 C534 1.368 . S
H519 C527 0.950 . S
H520 C525 0.950 . S
H521 C526 0.949 . S
H522 C528 0.950 . S
H523 C529 0.950 . S
H524 C530 0.949 . S
C525 H520 0.950 . S
C525 C527 1.327 . S
C525 C531 1.429 . S
C526 C518 1.574 . S
C526 H521 0.949 . S
C526 C532 1.368 . S
C527 C511 1.349 . S
C527 H519 0.950 . S
C527 C525 1.327 . S
C528 C516 1.349 . S
C528 H522 0.950 . S
C528 C529 1.327 . S
C529 H523 0.950 . S
C529 C528 1.327 . S
C529 C533 1.429 . S
C530 C513 1.574 . S
C530 H524 0.949 . S
C530 C534 1.368 . S
C531 C512 1.429 . S
C531 C525 1.429 . S
C531 C532 1.523 . S
C532 C513 1.368 . S
C532 C526 1.368 . S
C532 C531 1.523 . S
C533 C517 1.429 . S
C533 C529 1.429 . S
C533 C534 1.523 . S
C534 C518 1.368 . S
C534 C530 1.368 . S
C534 C533 1.523 . S
H535 C510 0.950 . S
H536 C512 0.950 . S
H537 C513 0.949 . S
H538 C515 0.950 . S
H539 C517 0.950 . S
C540 C541 1.349 . S
C540 C542 1.327 . S
C540 H565 0.950 . S
C541 C540 1.349 . S
C541 C557 1.349 . S
C542 C540 1.327 . S
C542 C561 1.429 . S
C542 H566 0.950 . S
C543 C560 1.574 . S
C543 C562 1.368 . S
C543 H567 0.949 . S
H544 C548 0.949 . S
C545 C546 1.349 . S
C545 C547 1.327 . S
C545 H568 0.950 . S
C546 C545 1.349 . S
C546 C558 1.349 . S
C547 C545 1.327 . S
C547 C563 1.429 . S
C547 H569 0.950 . S
C548 H544 0.949 . S
C548 C556 1.574 . S
C548 C564 1.368 . S
H549 C557 0.950 . S
H550 C555 0.950 . S
H551 C556 0.949 . S
H552 C558 0.950 . S
H553 C559 0.950 . S
H554 C560 0.949 . S
C555 H550 0.950 . S
C555 C557 1.327 . S
C555 C561 1.429 . S
C556 C548 1.574 . S
C556 H551 0.949 . S
C556 C562 1.368 . S
C557 C541 1.349 . S
C557 H549 0.950 . S
C557 C555 1.327 . S
C558 C546 1.349 . S
C558 H552 0.950 . S
C558 C559 1.327 . S
C559 H553 0.950 . S
C559 C558 1.327 . S
C559 C563 1.429 . S
C560 C543 1.574 . S
C560 H554 0.949 . S
C560 C564 1.368 . S
C561 C542 1.429 . S
C561 C555 1.429 . S
C561 C562 1.523 . S
C562 C543 1.368 . S
C562 C556 1.368 . S
C562 C561 1.523 . S
C563 C547 1.429 . S
C563 C559 1.429 . S
C563 C564 1.523 . S
C564 C548 1.368 . S
C564 C560 1.368 . S
C564 C563 1.523 . S
H565 C540 0.950 . S
H566 C542 0.950 . S
H567 C543 0.949 . S
H568 C545 0.950 . S
H569 C547 0.950 . S
C570 C571 1.349 . S
C570 C572 1.327 . S
C570 H595 0.950 . S
C571 C570 1.349 . S
C571 C587 1.349 . S
C572 C570 1.327 . S
C572 C591 1.429 . S
C572 H596 0.950 . S
C573 C590 1.574 . S
C573 C592 1.368 . S
C573 H597 0.949 . S
H574 C578 0.949 . S
C575 C576 1.349 . S
C575 C577 1.327 . S
C575 H598 0.950 . S
C576 C575 1.349 . S
C576 C588 1.349 . S
C577 C575 1.327 . S
C577 C593 1.429 . S
C577 H599 0.950 . S
C578 H574 0.949 . S
C578 C586 1.574 . S
C578 C594 1.368 . S
H579 C587 0.950 . S
H580 C585 0.950 . S
H581 C586 0.949 . S
H582 C588 0.950 . S
H583 C589 0.950 . S
H584 C590 0.949 . S
C585 H580 0.950 . S
C585 C587 1.327 . S
C585 C591 1.429 . S
C586 C578 1.574 . S
C586 H581 0.949 . S
C586 C592 1.368 . S
C587 C571 1.349 . S
C587 H579 0.950 . S
C587 C585 1.327 . S
C588 C576 1.349 . S
C588 H582 0.950 . S
C588 C589 1.327 . S
C589 H583 0.950 . S
C589 C588 1.327 . S
C589 C593 1.429 . S
C590 C573 1.574 . S
C590 H584 0.949 . S
C590 C594 1.368 . S
C591 C572 1.429 . S
C591 C585 1.429 . S
C591 C592 1.523 . S
C592 C573 1.368 . S
C592 C586 1.368 . S
C592 C591 1.523 . S
C593 C577 1.429 . S
C593 C589 1.429 . S
C593 C594 1.523 . S
C594 C578 1.368 . S
C594 C590 1.368 . S
C594 C593 1.523 . S
H595 C570 0.950 . S
H596 C572 0.950 . S
H597 C573 0.949 . S
H598 C575 0.950 . S
H599 C577 0.950 . S
C600 C601 1.349 . S
C600 C602 1.327 . S
C600 H625 0.950 . S
C601 C600 1.349 . S
C601 C617 1.349 . S
C602 C600 1.327 . S
C602 C621 1.429 . S
C602 H626 0.950 . S
C603 C620 1.574 . S
C603 C622 1.368 . S
C603 H627 0.949 . S
H604 C608 0.949 1_655 S
C605 C606 1.349 . S
C605 C607 1.327 1_655 S
C605 H628 0.950 1_655 S
C606 C605 1.349 . S
C606 C618 1.349 . S
C607 C605 1.327 1_455 S
C607 C623 1.429 . S
C607 H629 0.950 . S
C608 H604 0.949 1_455 S
C608 C616 1.574 . S
C608 C624 1.368 . S
H609 C617 0.950 . S
H610 C615 0.950 . S
H611 C616 0.949 . S
H612 C618 0.950 . S
H613 C619 0.950 . S
H614 C620 0.949 . S
C615 H610 0.950 . S
C615 C617 1.327 . S
C615 C621 1.429 . S
C616 C608 1.574 . S
C616 H611 0.949 . S
C616 C622 1.368 . S
C617 C601 1.349 . S
C617 H609 0.950 . S
C617 C615 1.327 . S
C618 C606 1.349 . S
C618 H612 0.950 . S
C618 C619 1.327 . S
C619 H613 0.950 . S
C619 C618 1.327 . S
C619 C623 1.429 1_655 S
C620 C603 1.574 . S
C620 H614 0.949 . S
C620 C624 1.368 . S
C621 C602 1.429 . S
C621 C615 1.429 . S
C621 C622 1.523 . S
C622 C603 1.368 . S
C622 C616 1.368 . S
C622 C621 1.523 . S
C623 C607 1.429 . S
C623 C619 1.429 1_455 S
C623 C624 1.523 . S
C624 C608 1.368 . S
C624 C620 1.368 . S
C624 C623 1.523 . S
H625 C600 0.950 . S
H626 C602 0.950 . S
H627 C603 0.949 . S
H628 C605 0.950 1_455 S
H629 C607 0.950 . S
C630 C631 1.349 . S
C630 C632 1.327 1_655 S
C630 H655 0.950 . S
C631 C630 1.349 . S
C631 C647 1.349 . S
C632 C630 1.327 1_455 S
C632 C651 1.429 . S
C632 H656 0.950 . S
C633 C650 1.574 . S
C633 C652 1.368 . S
C633 H657 0.949 . S
H634 C638 0.949 . S
C635 C636 1.349 . S
C635 C637 1.327 1_545 S
C635 H658 0.950 . S
C636 C635 1.349 . S
C636 C648 1.349 . S
C637 C635 1.327 1_565 S
C637 C653 1.429 . S
C637 H659 0.950 . S
C638 H634 0.949 . S
C638 C646 1.574 . S
C638 C654 1.368 . S
H639 C647 0.950 . S
H640 C645 0.950 . S
H641 C646 0.949 . S
H642 C648 0.950 . S
H643 C649 0.950 . S
H644 C650 0.949 . S
C645 H640 0.950 . S
C645 C647 1.327 1_455 S
C645 C651 1.429 . S
C646 C638 1.574 . S
C646 H641 0.949 . S
C646 C652 1.368 . S
C647 C631 1.349 . S
C647 H639 0.950 . S
C647 C645 1.327 1_655 S
C648 C636 1.349 . S
C648 H642 0.950 . S
C648 C649 1.327 . S
C649 H643 0.950 . S
C649 C648 1.327 . S
C649 C653 1.429 1_545 S
C650 C633 1.574 . S
C650 H644 0.949 . S
C650 C654 1.368 . S
C651 C632 1.429 . S
C651 C645 1.429 . S
C651 C652 1.523 . S
C652 C633 1.368 . S
C652 C646 1.368 . S
C652 C651 1.523 . S
C653 C637 1.429 . S
C653 C649 1.429 1_565 S
C653 C654 1.523 . S
C654 C638 1.368 . S
C654 C650 1.368 . S
C654 C653 1.523 . S
H655 C630 0.950 . S
H656 C632 0.950 . S
H657 C633 0.949 . S
H658 C635 0.950 . S
H659 C637 0.950 . S
C660 C661 1.349 . S
C660 C662 1.327 1_545 S
C660 H685 0.950 . S
C661 C660 1.349 . S
C661 C677 1.349 . S
C662 C660 1.327 1_565 S
C662 C681 1.429 . S
C662 H686 0.950 . S
C663 C680 1.574 . S
C663 C682 1.368 . S
C663 H687 0.949 . S
H664 C668 0.949 . S
C665 C666 1.349 . S
C665 C667 1.327 . S
C665 H688 0.950 . S
C666 C665 1.349 . S
C666 C678 1.349 . S
C667 C665 1.327 . S
C667 C683 1.429 . S
C667 H689 0.950 . S
C668 H664 0.949 . S
C668 C676 1.574 . S
C668 C684 1.368 . S
H669 C677 0.950 . S
H670 C675 0.950 . S
H671 C676 0.949 . S
H672 C678 0.950 . S
H673 C679 0.950 . S
H674 C680 0.949 . S
C675 H670 0.950 . S
C675 C677 1.327 1_565 S
C675 C681 1.429 . S
C676 C668 1.574 . S
C676 H671 0.949 . S
C676 C682 1.368 . S
C677 C661 1.349 . S
C677 H669 0.950 . S
C677 C675 1.327 1_545 S
C678 C666 1.349 . S
C678 H672 0.950 . S
C678 C679 1.327 . S
C679 H673 0.950 . S
C679 C678 1.327 . S
C679 C683 1.429 . S
C680 C663 1.574 . S
C680 H674 0.949 . S
C680 C684 1.368 . S
C681 C662 1.429 . S
C681 C675 1.429 . S
C681 C682 1.523 . S
C682 C663 1.368 . S
C682 C676 1.368 . S
C682 C681 1.523 . S
C683 C667 1.429 . S
C683 C679 1.429 . S
C683 C684 1.523 . S
C684 C668 1.368 . S
C684 C680 1.368 . S
C684 C683 1.523 . S
H685 C660 0.950 . S
H686 C662 0.950 . S
H687 C663 0.949 . S
H688 C665 0.950 . S
H689 C667 0.950 . S
C690 C691 1.349 . S
C690 C692 1.327 . S
C690 H715 0.950 . S
C691 C690 1.349 . S
C691 C707 1.349 . S
C692 C690 1.327 . S
C692 C711 1.429 . S
C692 H716 0.950 . S
C693 C710 1.574 . S
C693 C712 1.368 . S
C693 H717 0.949 . S
H694 C698 0.949 . S
C695 C696 1.349 . S
C695 C697 1.327 . S
C695 H718 0.950 . S
C696 C695 1.349 . S
C696 C708 1.349 . S
C697 C695 1.327 . S
C697 C713 1.429 1_565 S
C697 H719 0.950 . S
C698 H694 0.949 . S
C698 C706 1.574 . S
C698 C714 1.368 . S
H699 C707 0.950 . S
H700 C705 0.950 . S
H701 C706 0.949 . S
H702 C708 0.950 . S
H703 C709 0.950 . S
H704 C710 0.949 . S
C705 H700 0.950 . S
C705 C707 1.327 . S
C705 C711 1.429 . S
C706 C698 1.574 . S
C706 H701 0.949 . S
C706 C712 1.368 . S
C707 C691 1.349 . S
C707 H699 0.950 . S
C707 C705 1.327 . S
C708 C696 1.349 . S
C708 H702 0.950 . S
C708 C709 1.327 1_565 S
C709 H703 0.950 . S
C709 C708 1.327 1_545 S
C709 C713 1.429 . S
C710 C693 1.574 . S
C710 H704 0.949 . S
C710 C714 1.368 . S
C711 C692 1.429 . S
C711 C705 1.429 . S
C711 C712 1.523 . S
C712 C693 1.368 . S
C712 C706 1.368 . S
C712 C711 1.523 . S
C713 C697 1.429 1_545 S
C713 C709 1.429 . S
C713 C714 1.523 . S
C714 C698 1.368 . S
C714 C710 1.368 . S
C714 C713 1.523 . S
H715 C690 0.950 . S
H716 C692 0.950 . S
H717 C693 0.949 . S
H718 C695 0.950 . S
H719 C697 0.950 . S
C720 C721 1.349 . S
C720 C722 1.327 1_455 S
C720 H745 0.950 . S
C721 C720 1.349 . S
C721 C737 1.349 . S
C722 C720 1.327 1_655 S
C722 C741 1.429 . S
C722 H746 0.950 . S
C723 C740 1.574 . S
C723 C742 1.368 . S
C723 H747 0.949 . S
H724 C728 0.949 . S
C725 C726 1.349 . S
C725 C727 1.327 . S
C725 H748 0.950 . S
C726 C725 1.349 . S
C726 C738 1.349 . S
C727 C725 1.327 . S
C727 C743 1.429 . S
C727 H749 0.950 . S
C728 H724 0.949 . S
C728 C736 1.574 . S
C728 C744 1.368 . S
H729 C737 0.950 . S
H730 C735 0.950 . S
H731 C736 0.949 . S
H732 C738 0.950 . S
H733 C739 0.950 . S
H734 C740 0.949 . S
C735 H730 0.950 . S
C735 C737 1.327 1_655 S
C735 C741 1.429 . S
C736 C728 1.574 . S
C736 H731 0.949 . S
C736 C742 1.368 . S
C737 C721 1.349 . S
C737 H729 0.950 . S
C737 C735 1.327 1_455 S
C738 C726 1.349 . S
C738 H732 0.950 . S
C738 C739 1.327 . S
C739 H733 0.950 . S
C739 C738 1.327 . S
C739 C743 1.429 . S
C740 C723 1.574 . S
C740 H734 0.949 . S
C740 C744 1.368 . S
C741 C722 1.429 . S
C741 C735 1.429 . S
C741 C742 1.523 . S
C742 C723 1.368 . S
C742 C736 1.368 . S
C742 C741 1.523 . S
C743 C727 1.429 . S
C743 C739 1.429 . S
C743 C744 1.523 . S
C744 C728 1.368 . S
C744 C740 1.368 . S
C744 C743 1.523 . S
H745 C720 0.950 . S
H746 C722 0.950 . S
H747 C723 0.949 . S
H748 C725 0.950 . S
H749 C727 0.950 . S
C750 C751 1.349 . S
C750 C752 1.327 . S
C750 H775 0.950 . S
C751 C750 1.349 . S
C751 C767 1.349 . S
C752 C750 1.327 . S
C752 C771 1.429 1_455 S
C752 H776 0.950 . S
C753 C770 1.574 . S
C753 C772 1.368 . S
C753 H777 0.949 . S
H754 C758 0.949 . S
C755 C756 1.349 . S
C755 C757 1.327 1_565 S
C755 H778 0.950 . S
C756 C755 1.349 . S
C756 C768 1.349 . S
C757 C755 1.327 1_545 S
C757 C773 1.429 . S
C757 H779 0.950 . S
C758 H754 0.949 . S
C758 C766 1.574 . S
C758 C774 1.368 . S
H759 C767 0.950 . S
H760 C765 0.950 . S
H761 C766 0.949 . S
H762 C768 0.950 . S
H763 C769 0.950 . S
H764 C770 0.949 . S
C765 H760 0.950 . S
C765 C767 1.327 1_655 S
C765 C771 1.429 . S
C766 C758 1.574 . S
C766 H761 0.949 . S
C766 C772 1.368 . S
C767 C751 1.349 . S
C767 H759 0.950 . S
C767 C765 1.327 1_455 S
C768 C756 1.349 . S
C768 H762 0.950 . S
C768 C769 1.327 1_565 S
C769 H763 0.950 . S
C769 C768 1.327 1_545 S
C769 C773 1.429 . S
C770 C753 1.574 . S
C770 H764 0.949 . S
C770 C774 1.368 . S
C771 C752 1.429 1_655 S
C771 C765 1.429 . S
C771 C772 1.523 . S
C772 C753 1.368 . S
C772 C766 1.368 . S
C772 C771 1.523 . S
C773 C757 1.429 . S
C773 C769 1.429 . S
C773 C774 1.523 . S
C774 C758 1.368 . S
C774 C770 1.368 . S
C774 C773 1.523 . S
H775 C750 0.950 . S
H776 C752 0.950 . S
H777 C753 0.949 . S
H778 C755 0.950 . S
H779 C757 0.950 . S
C241 C175 2.401 . S
C246 C15 2.401 . S
C271 C202 2.438 . S
C276 C42 2.438 . S
C301 C95 2.401 . S
C306 C135 2.401 . S
C331 C2 2.438 . S
C336 C162 2.438 . S
C361 C215 2.401 . S
C366 C55 2.401 . S
C391 C82 2.438 . S
C396 C122 2.438 . S
C421 C26 1.910 . S
C426 C83 1.873 . S
C451 C66 1.910 . S
C456 C3 1.873 . S
C481 C106 1.910 . S
C486 C43 1.873 . S
C511 C146 1.910 . S
C516 C163 1.873 . S
C541 C186 1.910 . S
C546 C203 1.873 . S
C571 C123 1.873 . S
C576 C226 1.910 . S
C601 C9 1.008 . S
C606 C102 1.044 . S
C631 C49 1.008 . S
C636 C22 1.044 . S
C661 C89 1.008 . S
C666 C62 1.044 . S
C691 C129 1.008 . S
C696 C182 1.044 . S
C721 C169 1.008 . S
C726 C222 1.044 . S
C751 C142 1.044 . S
C756 C209 1.008 . S
