# Generated by pormake.
# Topology fny, (5)-cn, num edge types: 1
# Building blocks:
#     Node 0, Type 0, BuildingBlock: XOMCOT_clean_sbu_0, # of connection points: 5
#     Node 1, Type 0, BuildingBlock: XOMCOT_clean_sbu_0, # of connection points: 5
#     Node 2, Type 0, BuildingBlock: XOMCOT_clean_sbu_0, # of connection points: 5
#     Node 3, Type 0, BuildingBlock: XOMCOT_clean_sbu_0, # of connection points: 5
#     Node 4, Type 0, BuildingBlock: XOMCOT_clean_sbu_0, # of connection points: 5
#     Node 5, Type 0, BuildingBlock: XOMCOT_clean_sbu_0, # of connection points: 5
#     Node 6, Type 0, BuildingBlock: XOMCOT_clean_sbu_0, # of connection points: 5
#     Node 7, Type 0, BuildingBlock: XOMCOT_clean_sbu_0, # of connection points: 5
#     Node 8, Type 0, BuildingBlock: XOMCOT_clean_sbu_0, # of connection points: 5
#     Node 9, Type 0, BuildingBlock: XOMCOT_clean_sbu_0, # of connection points: 5
#     Node 10, Type 0, BuildingBlock: XOMCOT_clean_sbu_0, # of connection points: 5
#     Node 11, Type 0, BuildingBlock: XOMCOT_clean_sbu_0, # of connection points: 5
#     Edge 12, Type (0, 0), BuildingBlock: XIVTED_clean_linker_0, # of connection points: 2
#     Edge 13, Type (0, 0), BuildingBlock: XIVTED_clean_linker_0, # of connection points: 2
#     Edge 14, Type (0, 0), BuildingBlock: XIVTED_clean_linker_0, # of connection points: 2
#     Edge 15, Type (0, 0), BuildingBlock: XIVTED_clean_linker_0, # of connection points: 2
#     Edge 16, Type (0, 0), BuildingBlock: XIVTED_clean_linker_0, # of connection points: 2
#     Edge 17, Type (0, 0), BuildingBlock: XIVTED_clean_linker_0, # of connection points: 2
#     Edge 18, Type (0, 0), BuildingBlock: XIVTED_clean_linker_0, # of connection points: 2
#     Edge 19, Type (0, 0), BuildingBlock: XIVTED_clean_linker_0, # of connection points: 2
#     Edge 20, Type (0, 0), BuildingBlock: XIVTED_clean_linker_0, # of connection points: 2
#     Edge 21, Type (0, 0), BuildingBlock: XIVTED_clean_linker_0, # of connection points: 2
#     Edge 22, Type (0, 0), BuildingBlock: XIVTED_clean_linker_0, # of connection points: 2
#     Edge 23, Type (0, 0), BuildingBlock: XIVTED_clean_linker_0, # of connection points: 2
#     Edge 24, Type (0, 0), BuildingBlock: XIVTED_clean_linker_0, # of connection points: 2
#     Edge 25, Type (0, 0), BuildingBlock: XIVTED_clean_linker_0, # of connection points: 2
#     Edge 26, Type (0, 0), BuildingBlock: XIVTED_clean_linker_0, # of connection points: 2
#     Edge 27, Type (0, 0), BuildingBlock: XIVTED_clean_linker_0, # of connection points: 2
#     Edge 28, Type (0, 0), BuildingBlock: XIVTED_clean_linker_0, # of connection points: 2
#     Edge 29, Type (0, 0), BuildingBlock: XIVTED_clean_linker_0, # of connection points: 2
#     Edge 30, Type (0, 0), BuildingBlock: XIVTED_clean_linker_0, # of connection points: 2
#     Edge 31, Type (0, 0), BuildingBlock: XIVTED_clean_linker_0, # of connection points: 2
#     Edge 32, Type (0, 0), BuildingBlock: XIVTED_clean_linker_0, # of connection points: 2
#     Edge 33, Type (0, 0), BuildingBlock: XIVTED_clean_linker_0, # of connection points: 2
#     Edge 34, Type (0, 0), BuildingBlock: XIVTED_clean_linker_0, # of connection points: 2
#     Edge 35, Type (0, 0), BuildingBlock: XIVTED_clean_linker_0, # of connection points: 2
#     Edge 36, Type (0, 0), BuildingBlock: XIVTED_clean_linker_0, # of connection points: 2
#     Edge 37, Type (0, 0), BuildingBlock: XIVTED_clean_linker_0, # of connection points: 2
#     Edge 38, Type (0, 0), BuildingBlock: XIVTED_clean_linker_0, # of connection points: 2
#     Edge 39, Type (0, 0), BuildingBlock: XIVTED_clean_linker_0, # of connection points: 2
#     Edge 40, Type (0, 0), BuildingBlock: XIVTED_clean_linker_0, # of connection points: 2
#     Edge 41, Type (0, 0), BuildingBlock: XIVTED_clean_linker_0, # of connection points: 2
# Relax obj value: 0.274
# Max RMSD: 0.233
# Mean RMSD: 0.233
data_MOF--net-fny--node1-XOMCOT_clean_sbu_0--edge1-XIVTED_clean_linker_0
_symmetry_space_group_name_H-M    P1
_symmetry_Int_Tables_number       1
_symmetry_cell_setting            triclinic
loop_
_symmetry_equiv_pos_as_xyz
'x, y, z'
_cell_length_a     61.044138
_cell_length_b     61.143139
_cell_length_c     24.537129
_cell_angle_alpha  90.086925
_cell_angle_beta   89.984692
_cell_angle_gamma 119.88709
loop_
_atom_site_label
_atom_site_type_symbol
_atom_site_fract_x
_atom_site_fract_y
_atom_site_fract_z
_atom_type_partial_charge
Co0 Co 0.35922 0.53625 0.27905 0.0
C1 C 0.41412 0.56525 0.29503 0.0
C2 C 0.39637 0.5835 0.3351 0.0
C3 C 0.42169 0.59609 0.34776 0.0
N4 N 0.3915 0.56361 0.30329 0.0
N5 N 0.43272 0.58417 0.32358 0.0
H6 H 0.41683 0.5516 0.27242 0.0
H7 H 0.38244 0.58775 0.35123 0.0
C8 C 0.37751 0.57108 0.18473 0.0
O9 O 0.37666 0.58745 0.21812 0.0
N10 N 0.32758 0.50926 0.25357 0.0
C11 C 0.31646 0.48451 0.26567 0.0
C12 C 0.29537 0.47169 0.23307 0.0
C13 C 0.31314 0.51135 0.21516 0.0
N14 N 0.29338 0.48874 0.20181 0.0
C15 C 0.38019 0.50704 0.32068 0.0
C16 C 0.38904 0.49092 0.22207 0.0
C17 C 0.39687 0.48438 0.27029 0.0
C18 C 0.39167 0.49222 0.32003 0.0
C19 C 0.37721 0.50556 0.22453 0.0
N20 N 0.37364 0.51409 0.27341 0.0
H21 H 0.37731 0.51358 0.35946 0.0
H22 H 0.3712 0.51016 0.18702 0.0
H23 H 0.32368 0.47628 0.29449 0.0
H24 H 0.31779 0.52894 0.19523 0.0
O25 O 0.34711 0.52845 0.35363 0.0
O26 O 0.34178 0.55467 0.3013 0.0
O27 O 0.36982 0.54858 0.20144 0.0
C28 C 0.33788 0.54335 0.34837 0.0
H29 H 0.43057 0.61091 0.37796 0.0
H30 H 0.28289 0.45147 0.23136 0.0
H31 H 0.39248 0.4853 0.18259 0.0
H32 H 0.39658 0.48716 0.35853 0.0
Co33 Co 0.83924 0.35859 0.79587 0.0
C34 C 0.86936 0.39996 0.86752 0.0
C35 C 0.84799 0.40995 0.8142 0.0
C36 C 0.86646 0.43159 0.83909 0.0
N37 N 0.85018 0.39026 0.83178 0.0
N38 N 0.88022 0.42521 0.87162 0.0
H39 H 0.87617 0.38873 0.88742 0.0
H40 H 0.83514 0.40903 0.78283 0.0
C41 C 0.84241 0.37319 0.67596 0.0
O42 O 0.85377 0.36019 0.66558 0.0
N43 N 0.82833 0.32659 0.76001 0.0
C44 C 0.83509 0.30908 0.77013 0.0
C45 C 0.82472 0.29065 0.73076 0.0
C46 C 0.81254 0.3176 0.71718 0.0
N47 N 0.81095 0.29637 0.69687 0.0
C48 C 0.8866 0.35935 0.80927 0.0
C49 C 0.91584 0.40212 0.74833 0.0
C50 C 0.92779 0.39078 0.77558 0.0
C51 C 0.91272 0.36907 0.80636 0.0
C52 C 0.88966 0.39182 0.75245 0.0
N53 N 0.87504 0.37008 0.78108 0.0
H54 H 0.87603 0.34416 0.83728 0.0
H55 H 0.88158 0.40243 0.73532 0.0
H56 H 0.84691 0.30944 0.80303 0.0
H57 H 0.80316 0.32701 0.69986 0.0
O58 O 0.83585 0.3425 0.86639 0.0
O59 O 0.80504 0.34493 0.8251 0.0
O60 O 0.83536 0.37414 0.72484 0.0
C61 C 0.8124 0.33713 0.86697 0.0
H62 H 0.87009 0.45056 0.83188 0.0
H63 H 0.82826 0.27509 0.72583 0.0
H64 H 0.92674 0.41957 0.72611 0.0
H65 H 0.92107 0.35989 0.82914 0.0
Co66 Co 0.49877 0.83071 0.28816 0.0
C67 C 0.48184 0.85916 0.35057 0.0
C68 C 0.45218 0.8338 0.29734 0.0
C69 C 0.44597 0.85111 0.31773 0.0
N70 N 0.47487 0.83923 0.31769 0.0
N71 N 0.46512 0.86739 0.3499 0.0
H72 H 0.49971 0.86844 0.37193 0.0
H73 H 0.4417 0.81945 0.26714 0.0
C74 C 0.49013 0.83093 0.1658 0.0
O75 O 0.51471 0.84272 0.15831 0.0
N76 N 0.52301 0.82223 0.2589 0.0
C77 C 0.54749 0.83148 0.27275 0.0
C78 C 0.55754 0.82019 0.2408 0.0
C79 C 0.51822 0.80444 0.22109 0.0
N80 N 0.53908 0.8033 0.20833 0.0
C81 C 0.54206 0.8804 0.3041 0.0
C82 C 0.52695 0.90576 0.23432 0.0
C83 C 0.54906 0.91979 0.26487 0.0
C84 C 0.55659 0.90669 0.29999 0.0
C85 C 0.51304 0.87951 0.23951 0.0
N86 N 0.52098 0.86684 0.27276 0.0
H87 H 0.54689 0.87129 0.33553 0.0
H88 H 0.49501 0.86977 0.21926 0.0
H89 H 0.5576 0.84518 0.30406 0.0
H90 H 0.50005 0.79331 0.2015 0.0
O91 O 0.51005 0.82912 0.3618 0.0
O92 O 0.4798 0.79658 0.31783 0.0
O93 O 0.4811 0.82462 0.21413 0.0
C94 C 0.49351 0.80516 0.36174 0.0
H95 H 0.42935 0.85232 0.30772 0.0
H96 H 0.57694 0.82424 0.24098 0.0
H97 H 0.52001 0.91501 0.20748 0.0
H98 H 0.57285 0.91675 0.32636 0.0
Co99 Co 0.68613 0.49449 0.79115 0.0
C100 C 0.63782 0.47884 0.84873 0.0
C101 C 0.64492 0.44811 0.83972 0.0
C102 C 0.62165 0.4393 0.86407 0.0
N103 N 0.65512 0.47303 0.83037 0.0
N104 N 0.61723 0.45876 0.86923 0.0
H105 H 0.63924 0.49691 0.84476 0.0
H106 H 0.65359 0.43701 0.82891 0.0
C107 C 0.64572 0.4661 0.70632 0.0
O108 O 0.6307 0.47074 0.73627 0.0
N109 N 0.71669 0.51563 0.75218 0.0
C110 C 0.73355 0.53999 0.76261 0.0
C111 C 0.74945 0.54978 0.71842 0.0
C112 C 0.72263 0.51077 0.70273 0.0
N113 N 0.74225 0.53138 0.68065 0.0
C114 C 0.67876 0.53556 0.82276 0.0
C115 C 0.65984 0.54152 0.72519 0.0
C116 C 0.65855 0.55435 0.77148 0.0
C117 C 0.66924 0.55206 0.82002 0.0
C118 C 0.6694 0.52493 0.72992 0.0
N119 N 0.67652 0.52038 0.77958 0.0
H120 H 0.68583 0.53342 0.86145 0.0
H121 H 0.67056 0.51552 0.69377 0.0
H122 H 0.73323 0.55032 0.79814 0.0
H123 H 0.71213 0.49276 0.68238 0.0
O124 O 0.70393 0.50677 0.86016 0.0
O125 O 0.70052 0.47376 0.81646 0.0
O126 O 0.66898 0.47531 0.72037 0.0
C127 C 0.70909 0.48862 0.85876 0.0
H128 H 0.6093 0.42021 0.8779 0.0
H129 H 0.76404 0.56925 0.7131 0.0
H130 H 0.65269 0.54352 0.68625 0.0
H131 H 0.66957 0.56239 0.85622 0.0
Co132 Co 0.21062 0.67351 0.28565 0.0
C133 C 0.18046 0.63139 0.35476 0.0
C134 C 0.20036 0.62142 0.2971 0.0
C135 C 0.18122 0.59959 0.31977 0.0
N136 N 0.1995 0.64126 0.3187 0.0
N137 N 0.16837 0.60601 0.35498 0.0
H138 H 0.17446 0.6427 0.37719 0.0
H139 H 0.21249 0.62244 0.26392 0.0
C140 C 0.20905 0.66331 0.16502 0.0
O141 O 0.19809 0.67703 0.15973 0.0
N142 N 0.22186 0.706 0.25262 0.0
C143 C 0.2118 0.72125 0.25427 0.0
C144 C 0.22388 0.74002 0.21627 0.0
C145 C 0.24082 0.71659 0.21643 0.0
N146 N 0.24172 0.73664 0.19156 0.0
C147 C 0.16235 0.6709 0.30065 0.0
C148 C 0.13467 0.62883 0.23631 0.0
C149 C 0.12171 0.63809 0.26705 0.0
C150 C 0.13596 0.65967 0.29898 0.0
C151 C 0.16098 0.6406 0.23906 0.0
N152 N 0.17482 0.66184 0.26994 0.0
H153 H 0.1725 0.68581 0.32981 0.0
H154 H 0.16978 0.63121 0.21934 0.0
H155 H 0.19603 0.71859 0.27868 0.0
H156 H 0.25224 0.7083 0.20524 0.0
O157 O 0.21339 0.68877 0.35687 0.0
O158 O 0.2445 0.68657 0.31644 0.0
O159 O 0.21532 0.65973 0.21275 0.0
C160 C 0.23685 0.69419 0.3582 0.0
H161 H 0.17638 0.58055 0.30889 0.0
H162 H 0.21833 0.75361 0.20441 0.0
H163 H 0.12453 0.61199 0.21163 0.0
H164 H 0.12675 0.66697 0.32503 0.0
Co165 Co 0.55322 0.19833 0.79973 0.0
C166 C 0.5662 0.16865 0.86818 0.0
C167 C 0.59641 0.18976 0.81221 0.0
C168 C 0.60011 0.17133 0.83574 0.0
N169 N 0.57494 0.18774 0.83247 0.0
N170 N 0.58063 0.15773 0.86982 0.0
H171 H 0.54852 0.16182 0.88971 0.0
H172 H 0.60753 0.2023 0.77966 0.0
C173 C 0.56301 0.19578 0.67933 0.0
O174 O 0.53842 0.18306 0.67193 0.0
N175 N 0.53106 0.20879 0.76737 0.0
C176 C 0.50716 0.20221 0.78146 0.0
C177 C 0.49836 0.21352 0.74619 0.0
C178 C 0.53694 0.22525 0.72619 0.0
N179 N 0.51714 0.22786 0.71149 0.0
C180 C 0.50745 0.15021 0.81157 0.0
C181 C 0.52216 0.12259 0.74762 0.0
C182 C 0.49898 0.1099 0.77488 0.0
C183 C 0.49173 0.12406 0.80738 0.0
C184 C 0.53744 0.14868 0.75355 0.0
N185 N 0.52967 0.16256 0.78336 0.0
H186 H 0.50239 0.16011 0.84063 0.0
H187 H 0.55618 0.15735 0.73646 0.0
H188 H 0.49667 0.19037 0.81516 0.0
H189 H 0.55503 0.23436 0.70573 0.0
O190 O 0.54054 0.20047 0.87121 0.0
O191 O 0.57328 0.23215 0.83113 0.0
O192 O 0.57203 0.20367 0.7272 0.0
C193 C 0.55807 0.22406 0.8729 0.0
H194 H 0.61521 0.16751 0.82648 0.0
H195 H 0.47956 0.21115 0.74555 0.0
H196 H 0.52908 0.11227 0.72412 0.0
H197 H 0.47432 0.11495 0.83051 0.0
Co198 Co 0.49989 0.67319 0.73905 0.0
C199 C 0.48789 0.6278 0.67441 0.0
C200 C 0.45536 0.63205 0.68396 0.0
C201 C 0.44932 0.61196 0.6495 0.0
N202 N 0.47977 0.6422 0.69885 0.0
N203 N 0.47 0.60956 0.64335 0.0
H204 H 0.50669 0.63078 0.67694 0.0
H205 H 0.44322 0.63953 0.69493 0.0
C206 C 0.46841 0.63316 0.82313 0.0
O207 O 0.47062 0.61662 0.79292 0.0
N208 N 0.52012 0.70394 0.77841 0.0
C209 C 0.54431 0.72133 0.76789 0.0
C210 C 0.55376 0.73743 0.81184 0.0
C211 C 0.51503 0.70976 0.8278 0.0
N212 N 0.53535 0.72986 0.84966 0.0
C213 C 0.54326 0.66805 0.71585 0.0
C214 C 0.54498 0.64626 0.8128 0.0
C215 C 0.56069 0.64717 0.76987 0.0
C216 C 0.56025 0.65919 0.72158 0.0
C217 C 0.52799 0.65512 0.80498 0.0
N218 N 0.52575 0.66389 0.75527 0.0
H219 H 0.54287 0.67635 0.67739 0.0
H220 H 0.51684 0.65486 0.83921 0.0
H221 H 0.55483 0.72133 0.73243 0.0
H222 H 0.49709 0.69892 0.84822 0.0
O223 O 0.51332 0.69086 0.67029 0.0
O224 O 0.47932 0.6871 0.71019 0.0
O225 O 0.4795 0.65643 0.80844 0.0
C226 C 0.49496 0.69578 0.66927 0.0
H227 H 0.43181 0.6014 0.62716 0.0
H228 H 0.5731 0.75244 0.81691 0.0
H229 H 0.54566 0.63865 0.85218 0.0
H230 H 0.572 0.66077 0.68712 0.0
Co231 Co 0.84198 0.49126 0.24365 0.0
C232 C 0.87098 0.47446 0.18232 0.0
C233 C 0.84464 0.44458 0.23363 0.0
C234 C 0.86176 0.43808 0.21349 0.0
N235 N 0.85078 0.46757 0.21434 0.0
N236 N 0.87864 0.4573 0.18241 0.0
H237 H 0.88063 0.49242 0.16155 0.0
H238 H 0.82975 0.43396 0.26264 0.0
C239 C 0.84223 0.48205 0.36621 0.0
O240 O 0.85398 0.5065 0.37503 0.0
N241 N 0.83324 0.51534 0.27274 0.0
C242 C 0.84163 0.53937 0.25682 0.0
C243 C 0.83057 0.54965 0.28879 0.0
C244 C 0.8161 0.51094 0.31187 0.0
N245 N 0.81462 0.53172 0.32335 0.0
C246 C 0.89138 0.53498 0.22839 0.0
C247 C 0.91728 0.52058 0.2984 0.0
C248 C 0.93102 0.54284 0.26829 0.0
C249 C 0.91763 0.54997 0.23302 0.0
C250 C 0.89102 0.50618 0.29266 0.0
N251 N 0.87808 0.51378 0.25933 0.0
H252 H 0.88212 0.53959 0.19689 0.0
H253 H 0.88152 0.4881 0.31261 0.0
H254 H 0.85442 0.54896 0.22376 0.0
H255 H 0.80552 0.49313 0.33293 0.0
O256 O 0.8403 0.5024 0.16992 0.0
O257 O 0.80785 0.47206 0.21375 0.0
O258 O 0.83596 0.47351 0.31748 0.0
C259 C 0.81635 0.48573 0.16986 0.0
H260 H 0.86227 0.42103 0.22258 0.0
H261 H 0.83401 0.5688 0.28696 0.0
H262 H 0.92677 0.51393 0.3253 0.0
H263 H 0.92748 0.56631 0.20691 0.0
Co264 Co 0.37083 0.8323 0.73394 0.0
C265 C 0.41303 0.86366 0.66554 0.0
C266 C 0.42302 0.84232 0.71888 0.0
C267 C 0.44474 0.86097 0.6946 0.0
N268 N 0.40326 0.84431 0.70066 0.0
N269 N 0.43834 0.87467 0.662 0.0
H270 H 0.40174 0.87028 0.64514 0.0
H271 H 0.42203 0.82936 0.74994 0.0
C272 C 0.3824 0.83219 0.85456 0.0
O273 O 0.36868 0.84283 0.86461 0.0
N274 N 0.338 0.82051 0.76649 0.0
C275 C 0.3206 0.82718 0.75374 0.0
C276 C 0.30042 0.81515 0.78849 0.0
C277 C 0.32735 0.80323 0.8062 0.0
N278 N 0.3049 0.80033 0.82174 0.0
C279 C 0.3722 0.88005 0.72461 0.0
C280 C 0.4135 0.90728 0.79143 0.0
C281 C 0.40332 0.92011 0.76351 0.0
C282 C 0.38236 0.90613 0.72979 0.0
C283 C 0.40299 0.88126 0.78451 0.0
N284 N 0.38196 0.86759 0.75289 0.0
H285 H 0.35768 0.87035 0.69459 0.0
H286 H 0.41307 0.87264 0.80182 0.0
H287 H 0.32205 0.83976 0.72154 0.0
H288 H 0.33647 0.79398 0.82555 0.0
O289 O 0.35578 0.83054 0.66295 0.0
O290 O 0.35807 0.79901 0.70048 0.0
O291 O 0.38491 0.82665 0.80527 0.0
C292 C 0.35044 0.80717 0.65974 0.0
H293 H 0.46375 0.86463 0.70191 0.0
H294 H 0.28405 0.8176 0.79019 0.0
H295 H 0.4304 0.91748 0.81595 0.0
H296 H 0.37428 0.91536 0.70628 0.0
Co297 Co 0.54787 0.35561 0.24771 0.0
C298 C 0.55836 0.39675 0.17662 0.0
C299 C 0.58865 0.40805 0.23373 0.0
C300 C 0.59084 0.42935 0.20923 0.0
N301 N 0.56804 0.38771 0.21345 0.0
N302 N 0.57134 0.42211 0.17424 0.0
H303 H 0.54102 0.38485 0.15481 0.0
H304 H 0.60013 0.40775 0.26692 0.0
C305 C 0.55713 0.36723 0.36782 0.0
O306 O 0.53252 0.35334 0.37375 0.0
N307 N 0.52751 0.32321 0.28193 0.0
C308 C 0.5025 0.3068 0.27835 0.0
C309 C 0.49615 0.28825 0.31675 0.0
C310 C 0.53617 0.3135 0.31962 0.0
N311 N 0.51732 0.29288 0.34353 0.0
C312 C 0.50119 0.3564 0.23435 0.0
C313 C 0.51488 0.39898 0.29642 0.0
C314 C 0.49192 0.38835 0.26791 0.0
C315 C 0.48512 0.36659 0.23685 0.0
C316 C 0.53024 0.38809 0.29319 0.0
N317 N 0.52315 0.36653 0.26368 0.0
H318 H 0.49662 0.34134 0.20575 0.0
H319 H 0.54874 0.39831 0.31138 0.0
H320 H 0.48931 0.3083 0.25181 0.0
H321 H 0.55576 0.32258 0.33204 0.0
O322 O 0.53512 0.33975 0.17718 0.0
O323 O 0.5691 0.34303 0.21645 0.0
O324 O 0.56675 0.37031 0.31991 0.0
C325 C 0.55352 0.33486 0.17527 0.0
H326 H 0.60502 0.44861 0.21837 0.0
H327 H 0.47713 0.27376 0.32702 0.0
H328 H 0.52175 0.41647 0.3188 0.0
H329 H 0.46784 0.3578 0.21322 0.0
Co330 Co 0.20494 0.53434 0.73986 0.0
C331 C 0.17012 0.5466 0.6815 0.0
C332 C 0.20652 0.57939 0.69242 0.0
C333 C 0.1909 0.58639 0.66651 0.0
N334 N 0.19335 0.55437 0.70182 0.0
N335 N 0.16797 0.56563 0.66002 0.0
H336 H 0.15479 0.52756 0.68265 0.0
H337 H 0.22603 0.59169 0.7038 0.0
C338 C 0.19636 0.56545 0.82433 0.0
O339 O 0.17657 0.5616 0.79579 0.0
N340 N 0.21617 0.51405 0.77716 0.0
C341 C 0.21254 0.49143 0.76071 0.0
C342 C 0.21831 0.4805 0.80321 0.0
C343 C 0.22404 0.51659 0.82915 0.0
N344 N 0.22525 0.49628 0.84631 0.0
C345 C 0.15669 0.49061 0.71833 0.0
C346 C 0.13285 0.49082 0.81372 0.0
C347 C 0.11813 0.47541 0.77052 0.0
C348 C 0.1307 0.47442 0.72359 0.0
C349 C 0.15896 0.50664 0.80676 0.0
N350 N 0.17008 0.5083 0.75736 0.0
H351 H 0.16546 0.49022 0.68052 0.0
H352 H 0.16982 0.51773 0.84103 0.0
H353 H 0.20475 0.48275 0.72175 0.0
H354 H 0.22798 0.53256 0.85461 0.0
O355 O 0.20852 0.52137 0.66971 0.0
O356 O 0.23893 0.55529 0.70902 0.0
O357 O 0.20906 0.55475 0.80993 0.0
C358 C 0.23155 0.53999 0.6674 0.0
H359 H 0.19633 0.60509 0.65181 0.0
H360 H 0.21608 0.4618 0.80334 0.0
H361 H 0.12425 0.49148 0.85181 0.0
H362 H 0.12043 0.46187 0.69019 0.0
Co363 Co 0.68106 0.1998 0.24528 0.0
C364 C 0.63714 0.17331 0.17846 0.0
C365 C 0.63101 0.19574 0.23691 0.0
C366 C 0.60793 0.17826 0.21507 0.0
N367 N 0.64917 0.19221 0.21424 0.0
N368 N 0.61199 0.16377 0.17971 0.0
H369 H 0.6465 0.16519 0.15555 0.0
H370 H 0.63388 0.20841 0.27041 0.0
C371 C 0.67019 0.19581 0.36636 0.0
O372 O 0.68133 0.18221 0.37049 0.0
N373 N 0.71316 0.20746 0.27652 0.0
C374 C 0.72811 0.19746 0.26636 0.0
C375 C 0.74845 0.2082 0.30131 0.0
C376 C 0.72529 0.225 0.3152 0.0
N377 N 0.7465 0.22544 0.33186 0.0
C378 C 0.67479 0.15034 0.2253 0.0
C379 C 0.63273 0.12364 0.29018 0.0
C380 C 0.64161 0.11022 0.25983 0.0
C381 C 0.66299 0.12398 0.22707 0.0
C382 C 0.64514 0.14997 0.28739 0.0
N383 N 0.66663 0.16329 0.25696 0.0
H384 H 0.68947 0.16011 0.19558 0.0
H385 H 0.63642 0.15936 0.30751 0.0
H386 H 0.72489 0.18337 0.23626 0.0
H387 H 0.71796 0.23626 0.33303 0.0
O388 O 0.69498 0.20272 0.17226 0.0
O389 O 0.69687 0.23453 0.21874 0.0
O390 O 0.66882 0.20459 0.31982 0.0
C391 C 0.70251 0.22669 0.17432 0.0
H392 H 0.58958 0.17534 0.22688 0.0
H393 H 0.76322 0.20338 0.30481 0.0
H394 H 0.61594 0.1139 0.31515 0.0
H395 H 0.66983 0.11442 0.20082 0.0
H396 H 0.3842 0.54331 0.10418 0.0
H397 H 0.46127 0.66142 0.90244 0.0
H398 H 0.39849 0.61844 0.13956 0.0
H399 H 0.44362 0.58534 0.86548 0.0
H400 H 0.43851 0.64634 0.9892 0.0
H401 H 0.40573 0.55846 0.01646 0.0
C402 C 0.39171 0.56295 0.09351 0.0
C403 C 0.38938 0.57953 0.12967 0.0
C404 C 0.43959 0.63295 0.96202 0.0
C405 C 0.41441 0.59719 0.02879 0.0
C406 C 0.45262 0.64158 0.91235 0.0
C407 C 0.45448 0.62471 0.87617 0.0
C408 C 0.42828 0.60722 0.97594 0.0
C409 C 0.44281 0.59916 0.89172 0.0
C410 C 0.40409 0.57164 0.0433 0.0
C411 C 0.39969 0.60486 0.11325 0.0
N412 N 0.43033 0.59128 0.94011 0.0
N413 N 0.41174 0.61287 0.06435 0.0
H414 H 0.83415 0.41359 0.68387 0.0
H415 H 0.83182 0.43276 0.36062 0.0
H416 H 0.84423 0.36711 0.56557 0.0
H417 H 0.84598 0.49142 0.47664 0.0
H418 H 0.82996 0.40559 0.43571 0.0
H419 H 0.83219 0.43928 0.60928 0.0
C420 C 0.83573 0.40861 0.6423 0.0
C421 C 0.83947 0.38813 0.63124 0.0
C422 C 0.83336 0.42437 0.4448 0.0
C423 C 0.83709 0.41751 0.54532 0.0
C424 C 0.83429 0.43991 0.40184 0.0
C425 C 0.83913 0.46456 0.41197 0.0
C426 C 0.83695 0.43329 0.49876 0.0
C427 C 0.84231 0.47265 0.46662 0.0
C428 C 0.83473 0.4234 0.59968 0.0
C429 C 0.8415 0.38277 0.57628 0.0
N430 N 0.84113 0.4571 0.5078 0.0
N431 N 0.84023 0.39727 0.53558 0.0
H432 H 0.50098 0.83495 0.05629 0.0
H433 H 0.37388 0.832 0.96422 0.0
H434 H 0.44062 0.82033 0.1679 0.0
H435 H 0.42365 0.82504 0.84965 0.0
H436 H 0.39887 0.82935 0.0392 0.0
H437 H 0.47397 0.83293 0.98028 0.0
C438 C 0.48201 0.83117 0.06492 0.0
C439 C 0.47316 0.82783 0.11891 0.0
C440 C 0.40427 0.82824 0.99769 0.0
C441 C 0.44211 0.8258 0.03163 0.0
C442 C 0.39001 0.8298 0.95471 0.0
C443 C 0.39662 0.82879 0.90025 0.0
C444 C 0.42566 0.82601 0.98652 0.0
C445 C 0.41773 0.82583 0.89079 0.0
C446 C 0.46656 0.82998 0.02137 0.0
C447 C 0.44832 0.82295 0.12722 0.0
N448 N 0.43159 0.8248 0.93336 0.0
N449 N 0.43382 0.82232 0.08427 0.0
H450 H 0.60812 0.40377 0.37403 0.0
H451 H 0.59664 0.43162 0.68857 0.0
H452 H 0.54198 0.36125 0.47385 0.0
H453 H 0.66945 0.46425 0.61027 0.0
H454 H 0.57706 0.40705 0.6072 0.0
H455 H 0.63165 0.42701 0.45618 0.0
C456 C 0.59858 0.39917 0.41304 0.0
C457 C 0.57286 0.3806 0.41663 0.0
C458 C 0.59735 0.41943 0.60743 0.0
C459 C 0.59965 0.40723 0.51065 0.0
C460 C 0.60861 0.43363 0.65413 0.0
C461 C 0.6348 0.4502 0.65652 0.0
C462 C 0.61213 0.42179 0.56156 0.0
C463 C 0.64921 0.45167 0.61038 0.0
C464 C 0.61203 0.41246 0.45992 0.0
C465 C 0.5616 0.37551 0.46848 0.0
N466 N 0.63766 0.43782 0.56454 0.0
N467 N 0.57493 0.38876 0.51289 0.0
H468 H 0.22123 0.62516 0.15792 0.0
H469 H 0.18723 0.60389 0.84007 0.0
H470 H 0.20276 0.67198 0.05889 0.0
H471 H 0.21929 0.56393 0.92168 0.0
H472 H 0.19337 0.62864 0.92188 0.0
H473 H 0.22148 0.60244 0.0749 0.0
C474 C 0.21746 0.63084 0.11887 0.0
C475 C 0.21169 0.65042 0.11572 0.0
C476 C 0.19928 0.61462 0.92227 0.0
C477 C 0.21184 0.62441 0.02067 0.0
C478 C 0.19571 0.60037 0.87533 0.0
C479 C 0.20266 0.58168 0.87383 0.0
C480 C 0.20961 0.61015 0.96922 0.0
C481 C 0.21376 0.57822 0.9209 0.0
C482 C 0.21758 0.61783 0.0715 0.0
C483 C 0.20698 0.65688 0.06384 0.0
N484 N 0.21664 0.59213 0.96696 0.0
N485 N 0.20701 0.64389 0.01888 0.0
H486 H 0.64369 0.15908 0.44097 0.0
H487 H 0.61041 0.235 0.65271 0.0
H488 H 0.66291 0.23502 0.39899 0.0
H489 H 0.55399 0.16029 0.60211 0.0
H490 H 0.63729 0.23654 0.57562 0.0
H491 H 0.6181 0.16009 0.51702 0.0
C492 C 0.64276 0.17609 0.44812 0.0
C493 C 0.65548 0.19702 0.41357 0.0
C494 C 0.61898 0.2199 0.58157 0.0
C495 C 0.62661 0.19842 0.50139 0.0
C496 C 0.60373 0.21896 0.62554 0.0
C497 C 0.57987 0.19754 0.63361 0.0
C498 C 0.61066 0.19894 0.54681 0.0
C499 C 0.57213 0.17726 0.59714 0.0
C500 C 0.62806 0.17658 0.49134 0.0
C501 C 0.65334 0.21846 0.42455 0.0
N502 N 0.58757 0.17831 0.55593 0.0
N503 N 0.63939 0.21874 0.46792 0.0
H504 H 0.60274 0.47112 0.14552 0.0
H505 H 0.57099 0.41906 0.89471 0.0
H506 H 0.52666 0.40952 0.1231 0.0
H507 H 0.61594 0.50017 0.90811 0.0
H508 H 0.54435 0.41921 0.96808 0.0
H509 H 0.59896 0.48961 0.06162 0.0
C510 C 0.58499 0.46168 0.12376 0.0
C511 C 0.56592 0.4375 0.13862 0.0
C512 C 0.55952 0.43713 0.95364 0.0
C513 C 0.56189 0.458 0.04128 0.0
C514 C 0.57503 0.43694 0.91221 0.0
C515 C 0.59695 0.45933 0.89802 0.0
C516 C 0.56674 0.4597 0.98219 0.0
C517 C 0.60019 0.48213 0.91959 0.0
C518 C 0.5827 0.47235 0.07561 0.0
C519 C 0.54285 0.42701 0.1102 0.0
N520 N 0.58581 0.48166 0.96207 0.0
N521 N 0.54182 0.4367 0.06126 0.0
H522 H 0.13432 0.61706 0.40169 0.0
H523 H 0.13066 0.52289 0.61164 0.0
H524 H 0.1511 0.55681 0.38128 0.0
H525 H 0.1564 0.60209 0.63508 0.0
H526 H 0.106 0.52244 0.53415 0.0
H527 H 0.11053 0.59658 0.48382 0.0
C528 C 0.13263 0.59927 0.41369 0.0
C529 C 0.14674 0.58978 0.38774 0.0
C530 C 0.11614 0.53964 0.55778 0.0
C531 C 0.11854 0.56587 0.47949 0.0
C532 C 0.13058 0.54009 0.60204 0.0
C533 C 0.14715 0.56313 0.62772 0.0
C534 C 0.11885 0.56239 0.53859 0.0
C535 C 0.14523 0.58434 0.61407 0.0
C536 C 0.11849 0.58732 0.45987 0.0
C537 C 0.14186 0.56561 0.40201 0.0
N538 N 0.13193 0.58368 0.56921 0.0
N539 N 0.12869 0.55475 0.4481 0.0
H540 H 0.61497 0.12215 0.15371 0.0
H541 H 0.6151 0.14559 0.9072 0.0
H542 H 0.56727 0.15517 0.13826 0.0
H543 H 0.53541 0.12053 0.90843 0.0
H544 H 0.60976 0.12194 0.98997 0.0
H545 H 0.59484 0.09624 0.07315 0.0
C546 C 0.59972 0.1234 0.1342 0.0
C547 C 0.59396 0.14212 0.14961 0.0
C548 C 0.59309 0.12063 0.97119 0.0
C549 C 0.57097 0.11259 0.05892 0.0
C550 C 0.59628 0.13442 0.92382 0.0
C551 C 0.57609 0.1367 0.9036 0.0
C552 C 0.56991 0.11027 0.99928 0.0
C553 C 0.55195 0.121 0.92563 0.0
C554 C 0.58807 0.10837 0.0888 0.0
C555 C 0.57303 0.14181 0.12579 0.0
N556 N 0.54967 0.10936 0.97398 0.0
N557 N 0.56272 0.12781 0.08024 0.0
H558 H 0.43664 0.5649 0.59709 0.0
H559 H 0.47786 0.62369 0.35265 0.0
H560 H 0.51443 0.62462 0.59019 0.0
H561 H 0.43568 0.54248 0.34921 0.0
H562 H 0.50121 0.62183 0.43118 0.0
H563 H 0.44167 0.55073 0.50733 0.0
C564 C 0.45495 0.57454 0.57743 0.0
C565 C 0.47471 0.59655 0.60008 0.0
C566 C 0.48767 0.6043 0.41181 0.0
C567 C 0.4806 0.58087 0.49747 0.0
C568 C 0.47439 0.60547 0.36683 0.0
C569 C 0.45388 0.58332 0.34667 0.0
C570 C 0.47934 0.58093 0.43759 0.0
C571 C 0.45057 0.56012 0.36533 0.0
C572 C 0.45799 0.56631 0.52648 0.0
C573 C 0.49836 0.60794 0.57377 0.0
N574 N 0.46226 0.55945 0.41174 0.0
N575 N 0.5004 0.60054 0.52286 0.0
H576 H 0.92153 0.50008 0.1524 0.0
H577 H 0.89415 0.47253 0.90747 0.0
H578 H 0.88462 0.41894 0.14376 0.0
H579 H 0.9161 0.41553 0.91305 0.0
H580 H 0.91863 0.4913 0.98909 0.0
H581 H 0.94573 0.50282 0.07083 0.0
C582 C 0.91898 0.48283 0.13419 0.0
C583 C 0.89955 0.45916 0.15178 0.0
C584 C 0.91901 0.47523 0.97149 0.0
C585 C 0.92739 0.46228 0.06018 0.0
C586 C 0.90469 0.46432 0.92482 0.0
C587 C 0.90131 0.4412 0.90605 0.0
C588 C 0.92885 0.46219 1.00049 0.0
C589 C 0.91635 0.43213 0.92908 0.0
C590 C 0.9331 0.48448 0.08822 0.0
C591 C 0.89843 0.43754 0.12964 0.0
N592 N 0.92855 0.44194 0.97678 0.0
N593 N 0.91163 0.43958 0.08367 0.0
H594 H 0.5086 0.91027 0.37598 0.0
H595 H 0.48519 0.88763 0.62426 0.0
H596 H 0.4276 0.8741 0.39082 0.0
H597 H 0.42877 0.91043 0.61999 0.0
H598 H 0.5027 0.91033 0.54022 0.0
H599 H 0.513 0.93588 0.45628 0.0
C600 C 0.49172 0.90822 0.39527 0.0
C601 C 0.46765 0.88873 0.37977 0.0
C602 C 0.48708 0.91133 0.55857 0.0
C603 C 0.47264 0.91806 0.46999 0.0
C604 C 0.47691 0.89805 0.60669 0.0
C605 C 0.45421 0.89535 0.62667 0.0
C606 C 0.47368 0.92077 0.52952 0.0
C607 C 0.44502 0.91019 0.60321 0.0
C608 C 0.4943 0.92309 0.44051 0.0
C609 C 0.44648 0.88806 0.40329 0.0
N610 N 0.45401 0.92129 0.55422 0.0
N611 N 0.44945 0.90201 0.44858 0.0
H612 H 0.21833 0.51559 0.9402 0.0
H613 H 0.27731 0.45119 0.12732 0.0
H614 H 0.24302 0.46539 0.87759 0.0
H615 H 0.27204 0.51637 0.17399 0.0
H616 H 0.25529 0.44879 0.04184 0.0
H617 H 0.22922 0.50912 0.03175 0.0
C618 C 0.22617 0.5033 0.94556 0.0
C619 C 0.23032 0.49146 0.90089 0.0
C620 C 0.25861 0.46336 0.07123 0.0
C621 C 0.2423 0.48355 1.00602 0.0
C622 C 0.27091 0.46457 0.12003 0.0
C623 C 0.27657 0.48414 0.1571 0.0
C624 C 0.25183 0.48174 0.0601 0.0
C625 C 0.26821 0.50122 0.14587 0.0
C626 C 0.23215 0.49943 0.998 0.0
C627 C 0.23963 0.47497 0.91081 0.0
N628 N 0.25641 0.49975 0.09813 0.0
N629 N 0.24553 0.47166 0.96237 0.0
H630 H 0.79693 0.24893 0.66231 0.0
H631 H 0.75861 0.27189 0.36651 0.0
H632 H 0.80459 0.31978 0.60943 0.0
H633 H 0.76539 0.20693 0.4068 0.0
H634 H 0.77577 0.28991 0.45586 0.0
H635 H 0.78459 0.23261 0.5696 0.0
C636 C 0.79594 0.26101 0.6314 0.0
C637 C 0.80162 0.28568 0.64394 0.0
C638 C 0.77383 0.27185 0.44501 0.0
C639 C 0.78763 0.26724 0.53809 0.0
C640 C 0.7641 0.26165 0.39409 0.0
C641 C 0.76058 0.23796 0.37972 0.0
C642 C 0.77973 0.25803 0.48198 0.0
C643 C 0.76806 0.22537 0.41643 0.0
C644 C 0.78898 0.25173 0.57851 0.0
C645 C 0.79987 0.30047 0.60228 0.0
N646 N 0.77701 0.23544 0.46636 0.0
N647 N 0.79302 0.291 0.55131 0.0
H648 H 0.57941 0.81991 0.14138 0.0
H649 H 0.5075 0.70384 0.93758 0.0
H650 H 0.50466 0.75732 0.17076 0.0
H651 H 0.56906 0.77638 0.88814 0.0
H652 H 0.51094 0.71988 0.02964 0.0
H653 H 0.58095 0.80025 0.0556 0.0
C654 C 0.56356 0.80175 0.13026 0.0
C655 C 0.54179 0.7902 0.16272 0.0
C656 C 0.52372 0.73226 0.99862 0.0
C657 C 0.54328 0.7679 0.06496 0.0
C658 C 0.52162 0.72322 0.94579 0.0
C659 C 0.53771 0.73897 0.9046 0.0
C660 C 0.54213 0.75716 1.0106 0.0
C661 C 0.55627 0.76361 0.91853 0.0
C662 C 0.56435 0.7907 0.08118 0.0
C663 C 0.52162 0.76688 0.14633 0.0
N664 N 0.5579 0.77202 0.97043 0.0
N665 N 0.52278 0.75652 0.09832 0.0
H666 H 0.71572 0.50377 0.59306 0.0
H667 H 0.83138 0.57292 0.38753 0.0
H668 H 0.78868 0.56504 0.64164 0.0
H669 H 0.76907 0.49756 0.36314 0.0
H670 H 0.81196 0.57567 0.47278 0.0
H671 H 0.73155 0.50653 0.50105 0.0
C672 C 0.73515 0.5177 0.5846 0.0
C673 C 0.75112 0.53381 0.62556 0.0
C674 C 0.80243 0.55867 0.44836 0.0
C675 C 0.76909 0.53745 0.5197 0.0
C676 C 0.81334 0.55718 0.39965 0.0
C677 C 0.80178 0.5349 0.36879 0.0
C678 C 0.77974 0.53782 0.46569 0.0
C679 C 0.77863 0.5149 0.38635 0.0
C680 C 0.74407 0.5194 0.53184 0.0
C681 C 0.7758 0.55219 0.61138 0.0
N682 N 0.76838 0.51677 0.43388 0.0
N683 N 0.78413 0.55341 0.55953 0.0
H684 H 0.25528 0.71362 0.11446 0.0
H685 H 0.28126 0.81705 0.88889 0.0
H686 H 0.25257 0.78167 0.14778 0.0
H687 H 0.30046 0.7585 0.86902 0.0
H688 H 0.26583 0.80153 0.98053 0.0
H689 H 0.26896 0.72814 0.02251 0.0
C690 C 0.25805 0.7319 0.10305 0.0
C691 C 0.25288 0.74656 0.13935 0.0
C692 C 0.27326 0.79198 0.95596 0.0
C693 C 0.26786 0.76289 0.03286 0.0
C694 C 0.28171 0.80058 0.90345 0.0
C695 C 0.29214 0.78898 0.87159 0.0
C696 C 0.27516 0.77158 0.97642 0.0
C697 C 0.29274 0.76803 0.89266 0.0
C698 C 0.2656 0.74003 0.05004 0.0
C699 C 0.25617 0.76972 0.12108 0.0
N700 N 0.28446 0.76003 0.94397 0.0
N701 N 0.26335 0.77715 0.06889 0.0
H702 H 0.47676 0.21072 0.64455 0.0
H703 H 0.55247 0.31683 0.42275 0.0
H704 H 0.55377 0.27046 0.66563 0.0
H705 H 0.48415 0.24705 0.38562 0.0
H706 H 0.55142 0.30203 0.51453 0.0
H707 H 0.47652 0.22674 0.55337 0.0
C708 C 0.49342 0.22753 0.63031 0.0
C709 C 0.51536 0.23934 0.66223 0.0
C710 C 0.53675 0.28985 0.48621 0.0
C711 C 0.51541 0.25735 0.55831 0.0
C712 C 0.53748 0.29815 0.43332 0.0
C713 C 0.51841 0.28305 0.39595 0.0
C714 C 0.51676 0.26637 0.50221 0.0
C715 C 0.4991 0.25935 0.41315 0.0
C716 C 0.49339 0.23644 0.57816 0.0
C717 C 0.5366 0.26078 0.64183 0.0
N718 N 0.49869 0.25174 0.46525 0.0
N719 N 0.53615 0.26907 0.59094 0.0
H720 H 0.74331 0.47158 0.85286 0.0
H721 H 0.76594 0.47115 0.17277 0.0
H722 H 0.70872 0.49881 0.96701 0.0
H723 H 0.82833 0.49567 0.06117 0.0
H724 H 0.73917 0.47033 0.09685 0.0
H725 H 0.7693 0.46956 0.9278 0.0
C726 C 0.74095 0.47682 0.8937 0.0
C727 C 0.72382 0.48542 0.9036 0.0
C728 C 0.75868 0.4757 0.08899 0.0
C729 C 0.75307 0.48265 0.98957 0.0
C730 C 0.77393 0.47605 0.13221 0.0
C731 C 0.79947 0.48353 0.12345 0.0
C732 C 0.76872 0.48213 0.03607 0.0
C733 C 0.8088 0.48988 0.0699 0.0
C734 C 0.75588 0.47581 0.93631 0.0
C735 C 0.72174 0.49217 0.9574 0.0
N736 N 0.79343 0.48883 0.02824 0.0
N737 N 0.73594 0.49042 0.99828 0.0
H738 H 0.2822 0.69841 0.39102 0.0
H739 H 0.31875 0.814 0.59245 0.0
H740 H 0.2311 0.72586 0.42794 0.0
H741 H 0.34581 0.76213 0.62313 0.0
H742 H 0.29147 0.78608 0.52011 0.0
H743 H 0.31036 0.72529 0.46466 0.0
C744 C 0.27688 0.71004 0.41454 0.0
C745 C 0.25414 0.70974 0.40329 0.0
C746 C 0.30342 0.78081 0.54253 0.0
C747 C 0.28656 0.74096 0.48671 0.0
C748 C 0.31915 0.79683 0.58371 0.0
C749 C 0.33468 0.79048 0.61411 0.0
C750 C 0.30348 0.75838 0.53036 0.0
C751 C 0.33414 0.76779 0.60092 0.0
C752 C 0.29292 0.72531 0.45663 0.0
C753 C 0.24829 0.72528 0.43522 0.0
N754 N 0.31897 0.75267 0.55979 0.0
N755 N 0.26445 0.74037 0.47484 0.0
H756 H 0.5158 0.30242 0.1075 0.0
H757 H 0.59819 0.26986 0.90658 0.0
H758 H 0.59497 0.33154 0.13994 0.0
H759 H 0.52016 0.21695 0.9425 0.0
H760 H 0.59829 0.29726 0.98077 0.0
H761 H 0.5178 0.27585 0.03515 0.0
C762 C 0.5337 0.30338 0.09921 0.0
C763 C 0.55525 0.3193 0.13011 0.0
C764 C 0.58122 0.27959 0.97241 0.0
C765 C 0.55771 0.28894 0.04622 0.0
C766 C 0.58111 0.26398 0.93 0.0
C767 C 0.55916 0.24095 0.9183 0.0
C768 C 0.55901 0.2725 1.00236 0.0
C769 C 0.53758 0.23438 0.95012 0.0
C770 C 0.53477 0.28808 0.05798 0.0
C771 C 0.57786 0.31952 0.11739 0.0
N772 N 0.53798 0.25012 0.99003 0.0
N773 N 0.57857 0.30476 0.07616 0.0
H774 H 0.34764 0.54403 0.45687 0.0
H775 H 0.21694 0.52477 0.5623 0.0
H776 H 0.29628 0.55008 0.34581 0.0
H777 H 0.28361 0.5626 0.66253 0.0
H778 H 0.24366 0.52875 0.48377 0.0
H779 H 0.32297 0.54598 0.53386 0.0
C780 C 0.33124 0.54596 0.44867 0.0
C781 C 0.32411 0.54702 0.39468 0.0
C782 C 0.25246 0.53632 0.52284 0.0
C783 C 0.29527 0.54852 0.48303 0.0
C784 C 0.23722 0.53396 0.56783 0.0
C785 C 0.24801 0.54337 0.61928 0.0
C786 C 0.27874 0.54752 0.52936 0.0
C787 C 0.27445 0.55517 0.62372 0.0
C788 C 0.31721 0.54712 0.49271 0.0
C789 C 0.30262 0.54944 0.38667 0.0
N790 N 0.28884 0.55656 0.57967 0.0
N791 N 0.28874 0.54969 0.43025 0.0
H792 H 0.73913 0.2767 0.18098 0.0
H793 H 0.76131 0.30346 0.86237 0.0
H794 H 0.70062 0.21642 0.06483 0.0
H795 H 0.82391 0.33613 0.97463 0.0
H796 H 0.73378 0.27687 0.93679 0.0
H797 H 0.76549 0.30432 0.10656 0.0
C798 C 0.736 0.26935 0.13978 0.0
C799 C 0.71762 0.24416 0.12922 0.0
C800 C 0.75352 0.29 0.94508 0.0
C801 C 0.74741 0.27588 0.04369 0.0
C802 C 0.7692 0.30528 0.90276 0.0
C803 C 0.79499 0.32208 0.91221 0.0
C804 C 0.76346 0.29205 0.99774 0.0
C805 C 0.80419 0.32342 0.96541 0.0
C806 C 0.75114 0.28509 0.09743 0.0
C807 C 0.71461 0.23566 0.07493 0.0
N808 N 0.78845 0.30884 1.00617 0.0
N809 N 0.72913 0.2515 0.03423 0.0
H810 H 0.50288 0.81727 0.47036 0.0
H811 H 0.50687 0.69566 0.56197 0.0
H812 H 0.47988 0.75501 0.35906 0.0
H813 H 0.47778 0.72986 0.6725 0.0
H814 H 0.50445 0.7212 0.48739 0.0
H815 H 0.50105 0.7898 0.54571 0.0
C816 C 0.49739 0.79781 0.46177 0.0
C817 C 0.4914 0.78842 0.40824 0.0
C818 C 0.4985 0.72303 0.52791 0.0
C819 C 0.48996 0.75708 0.49418 0.0
C820 C 0.49993 0.70853 0.57055 0.0
C821 C 0.4924 0.71051 0.62361 0.0
C822 C 0.49029 0.74039 0.53848 0.0
C823 C 0.48358 0.72755 0.6322 0.0
C824 C 0.49627 0.78215 0.50483 0.0
C825 C 0.48445 0.76302 0.39965 0.0
N826 N 0.48313 0.7421 0.59036 0.0
N827 N 0.4843 0.74839 0.44188 0.0
H828 H 0.43469 0.48923 0.33893 0.0
H829 H 0.4636 0.39184 0.18391 0.0
H830 H 0.39133 0.44673 0.19903 0.0
H831 H 0.48456 0.41412 0.35156 0.0
H832 H 0.43979 0.41426 0.18411 0.0
H833 H 0.4563 0.46486 0.33905 0.0
C834 C 0.42945 0.47463 0.30846 0.0
C835 C 0.41076 0.46994 0.26931 0.0
C836 C 0.44953 0.41411 0.22087 0.0
C837 C 0.43623 0.44226 0.26849 0.0
C838 C 0.46302 0.40113 0.22103 0.0
C839 C 0.47626 0.40095 0.26787 0.0
C840 C 0.44947 0.42736 0.26759 0.0
C841 C 0.47513 0.41398 0.31413 0.0
C842 C 0.44199 0.46079 0.30843 0.0
C843 C 0.40566 0.45126 0.22981 0.0
N844 N 0.46216 0.42672 0.31268 0.0
N845 N 0.41833 0.43816 0.23036 0.0
H846 H 0.08656 0.45071 0.85757 0.0
H847 H 0.95979 0.41264 0.68881 0.0
H848 H 0.0852 0.46907 0.68824 0.0
H849 H 0.95995 0.39554 0.85935 0.0
H850 H 1.0058 0.43254 0.68789 0.0
H851 H 0.0403 0.42961 0.8592 0.0
C852 C 0.07661 0.45032 0.82075 0.0
C853 C 0.08993 0.46159 0.7726 0.0
C854 C 0.99579 0.42438 0.72553 0.0
C855 C 0.03687 0.43735 0.77415 0.0
C856 C 0.96948 0.41309 0.72613 0.0
C857 C 0.95585 0.40232 0.77419 0.0
C858 C 1.00878 0.42504 0.77338 0.0
C859 C 0.96954 0.40324 0.82111 0.0
C860 C 0.05016 0.43817 0.82166 0.0
C861 C 0.07585 0.46025 0.72606 0.0
N862 N 0.99519 0.41442 0.81956 0.0
N863 N 0.05022 0.44843 0.72805 0.0
H864 H 0.59034 0.07775 0.25856 0.0
H865 H 0.60052 0.95189 0.26579 0.0
H866 H 0.66133 0.07838 0.26054 0.0
H867 H 0.52994 0.95203 0.26019 0.0
H868 H 0.62321 0.99807 0.26429 0.0
H869 H 0.56804 0.0317 0.25949 0.0
C870 C 0.60127 0.06822 0.25965 0.0
C871 C 0.62781 0.08206 0.25994 0.0
C872 C 0.60276 0.988 0.26322 0.0
C873 C 0.60226 0.02907 0.26027 0.0
C874 C 0.58977 0.9616 0.26431 0.0
C875 C 0.56323 0.94794 0.26284 0.0
C876 C 0.58916 1.00095 0.26092 0.0
C877 C 0.55038 0.96165 0.26042 0.0
C878 C 0.58849 0.04187 0.25978 0.0
C879 C 0.64089 0.06855 0.25999 0.0
N880 N 0.56343 0.98731 0.25964 0.0
N881 N 0.628 0.04285 0.26032 0.0
H882 H 0.55053 0.60436 0.82701 0.0
H883 H 0.66214 0.58955 0.69651 0.0
H884 H 0.60693 0.66111 0.72174 0.0
H885 H 0.62385 0.55203 0.84456 0.0
H886 H 0.63928 0.61322 0.69782 0.0
H887 H 0.5749 0.58267 0.82831 0.0
C888 C 0.56815 0.61255 0.80469 0.0
C889 C 0.57649 0.63475 0.77414 0.0
C890 C 0.636 0.59987 0.73009 0.0
C891 C 0.60419 0.60929 0.77417 0.0
C892 C 0.64891 0.58628 0.72916 0.0
C893 C 0.64501 0.56895 0.77068 0.0
C894 C 0.61873 0.59571 0.77225 0.0
C895 C 0.62769 0.56547 0.81214 0.0
C896 C 0.58197 0.59994 0.80511 0.0
C897 C 0.5993 0.64385 0.74504 0.0
N898 N 0.61511 0.57859 0.81171 0.0
N899 N 0.61221 0.631 0.74545 0.0
H900 H 0.08979 0.58697 0.27185 0.0
H901 H 0.96227 0.59439 0.26748 0.0
H902 H 0.08928 0.65726 0.2674 0.0
H903 H 0.96418 0.52483 0.27348 0.0
H904 H 1.00855 0.61791 0.26827 0.0
H905 H 0.04374 0.56415 0.27336 0.0
C906 C 0.08 0.59764 0.2707 0.0
C907 C 0.09353 0.62413 0.2688 0.0
C908 C 0.99883 0.59751 0.26963 0.0
C909 C 0.04047 0.59796 0.27139 0.0
C910 C 0.97239 0.58404 0.26896 0.0
C911 C 0.9592 0.55753 0.27063 0.0
C912 C 1.0123 0.58442 0.27174 0.0
C913 C 0.97341 0.54521 0.27307 0.0
C914 C 0.05363 0.58457 0.27199 0.0
C915 C 0.07969 0.63687 0.26897 0.0
N916 N 0.9991 0.55872 0.27341 0.0
N917 N 0.05394 0.62368 0.27 0.0
H918 H 0.4208 0.9505 0.8539 0.0
H919 H 0.48676 0.07938 0.68491 0.0
H920 H 0.4147 0.95346 0.67926 0.0
H921 H 0.47611 0.0767 0.85906 0.0
H922 H 0.46241 0.03321 0.68204 0.0
H923 H 0.44307 0.99671 0.85686 0.0
C924 C 0.4241 0.96089 0.81621 0.0
C925 C 0.41578 0.9481 0.7663 0.0
C926 C 0.46527 0.04272 0.72085 0.0
C927 C 0.4414 1.00098 0.76929 0.0
C928 C 0.47925 0.06906 0.72252 0.0
C929 C 0.4834 0.08192 0.77226 0.0
C930 C 0.45561 0.02905 0.76937 0.0
C931 C 0.4731 0.06758 0.81973 0.0
C932 C 0.43671 0.98724 0.81793 0.0
C933 C 0.42046 0.96252 0.71871 0.0
N934 N 0.45984 0.04194 0.81717 0.0
N935 N 0.43309 0.98816 0.72134 0.0
loop_
_geom_bond_atom_site_label_1
_geom_bond_atom_site_label_2
_geom_bond_distance
_geom_bond_site_symmetry_2
_ccdc_geom_bond_type
Co0 N4 2.148 . S
Co0 N10 2.128 . S
Co0 N20 2.194 . S
Co0 O25 2.351 . S
Co0 O26 2.155 . S
Co0 O27 2.096 . S
C1 N4 1.301 . S
C1 N5 1.328 . S
C1 H6 0.930 . S
C2 C3 1.333 . S
C2 N4 1.317 . S
C2 H7 0.930 . S
C3 C2 1.333 . S
C3 N5 1.350 . S
C3 H29 0.931 . S
N4 Co0 2.148 . S
N4 C1 1.301 . S
N4 C2 1.317 . S
N5 C1 1.328 . S
N5 C3 1.350 . S
H6 C1 0.930 . S
H7 C2 0.930 . S
C8 O9 1.224 . S
C8 O27 1.247 . S
O9 C8 1.224 . S
N10 Co0 2.128 . S
N10 C11 1.355 . S
N10 C13 1.311 . S
C11 N10 1.355 . S
C11 C12 1.363 . S
C11 H23 0.929 . S
C12 C11 1.363 . S
C12 N14 1.375 . S
C12 H30 0.931 . S
C13 N10 1.311 . S
C13 N14 1.347 . S
C13 H24 0.929 . S
N14 C12 1.375 . S
N14 C13 1.347 . S
C15 C18 1.365 . S
C15 N20 1.328 . S
C15 H21 0.929 . S
C16 C17 1.362 . S
C16 C19 1.378 . S
C16 H31 0.929 . S
C17 C16 1.362 . S
C17 C18 1.366 . S
C18 C15 1.365 . S
C18 C17 1.366 . S
C18 H32 0.930 . S
C19 C16 1.378 . S
C19 N20 1.315 . S
C19 H22 0.930 . S
N20 Co0 2.194 . S
N20 C15 1.328 . S
N20 C19 1.315 . S
H21 C15 0.929 . S
H22 C19 0.930 . S
H23 C11 0.929 . S
H24 C13 0.929 . S
O25 Co0 2.351 . S
O25 C28 1.244 . S
O26 Co0 2.155 . S
O26 C28 1.240 . S
O27 Co0 2.096 . S
O27 C8 1.247 . S
C28 O25 1.244 . S
C28 O26 1.240 . S
H29 C3 0.931 . S
H30 C12 0.931 . S
H31 C16 0.929 . S
H32 C18 0.930 . S
Co33 N37 2.148 . S
Co33 N43 2.128 . S
Co33 N53 2.194 . S
Co33 O58 2.351 . S
Co33 O59 2.155 . S
Co33 O60 2.096 . S
C34 N37 1.301 . S
C34 N38 1.328 . S
C34 H39 0.930 . S
C35 C36 1.333 . S
C35 N37 1.317 . S
C35 H40 0.930 . S
C36 C35 1.333 . S
C36 N38 1.350 . S
C36 H62 0.931 . S
N37 Co33 2.148 . S
N37 C34 1.301 . S
N37 C35 1.317 . S
N38 C34 1.328 . S
N38 C36 1.350 . S
H39 C34 0.930 . S
H40 C35 0.930 . S
C41 O42 1.224 . S
C41 O60 1.247 . S
O42 C41 1.224 . S
N43 Co33 2.128 . S
N43 C44 1.355 . S
N43 C46 1.311 . S
C44 N43 1.355 . S
C44 C45 1.363 . S
C44 H56 0.929 . S
C45 C44 1.363 . S
C45 N47 1.375 . S
C45 H63 0.931 . S
C46 N43 1.311 . S
C46 N47 1.347 . S
C46 H57 0.929 . S
N47 C45 1.375 . S
N47 C46 1.347 . S
C48 C51 1.365 . S
C48 N53 1.328 . S
C48 H54 0.929 . S
C49 C50 1.362 . S
C49 C52 1.378 . S
C49 H64 0.929 . S
C50 C49 1.362 . S
C50 C51 1.366 . S
C51 C48 1.365 . S
C51 C50 1.366 . S
C51 H65 0.930 . S
C52 C49 1.378 . S
C52 N53 1.315 . S
C52 H55 0.930 . S
N53 Co33 2.194 . S
N53 C48 1.328 . S
N53 C52 1.315 . S
H54 C48 0.929 . S
H55 C52 0.930 . S
H56 C44 0.929 . S
H57 C46 0.929 . S
O58 Co33 2.351 . S
O58 C61 1.244 . S
O59 Co33 2.155 . S
O59 C61 1.240 . S
O60 Co33 2.096 . S
O60 C41 1.247 . S
C61 O58 1.244 . S
C61 O59 1.240 . S
H62 C36 0.931 . S
H63 C45 0.931 . S
H64 C49 0.929 . S
H65 C51 0.930 . S
Co66 N70 2.148 . S
Co66 N76 2.128 . S
Co66 N86 2.194 . S
Co66 O91 2.351 . S
Co66 O92 2.155 . S
Co66 O93 2.096 . S
C67 N70 1.301 . S
C67 N71 1.328 . S
C67 H72 0.930 . S
C68 C69 1.333 . S
C68 N70 1.317 . S
C68 H73 0.930 . S
C69 C68 1.333 . S
C69 N71 1.350 . S
C69 H95 0.931 . S
N70 Co66 2.148 . S
N70 C67 1.301 . S
N70 C68 1.317 . S
N71 C67 1.328 . S
N71 C69 1.350 . S
H72 C67 0.930 . S
H73 C68 0.930 . S
C74 O75 1.224 . S
C74 O93 1.247 . S
O75 C74 1.224 . S
N76 Co66 2.128 . S
N76 C77 1.355 . S
N76 C79 1.311 . S
C77 N76 1.355 . S
C77 C78 1.363 . S
C77 H89 0.929 . S
C78 C77 1.363 . S
C78 N80 1.375 . S
C78 H96 0.931 . S
C79 N76 1.311 . S
C79 N80 1.347 . S
C79 H90 0.929 . S
N80 C78 1.375 . S
N80 C79 1.347 . S
C81 C84 1.365 . S
C81 N86 1.328 . S
C81 H87 0.929 . S
C82 C83 1.362 . S
C82 C85 1.378 . S
C82 H97 0.929 . S
C83 C82 1.362 . S
C83 C84 1.366 . S
C84 C81 1.365 . S
C84 C83 1.366 . S
C84 H98 0.930 . S
C85 C82 1.378 . S
C85 N86 1.315 . S
C85 H88 0.930 . S
N86 Co66 2.194 . S
N86 C81 1.328 . S
N86 C85 1.315 . S
H87 C81 0.929 . S
H88 C85 0.930 . S
H89 C77 0.929 . S
H90 C79 0.929 . S
O91 Co66 2.351 . S
O91 C94 1.244 . S
O92 Co66 2.155 . S
O92 C94 1.240 . S
O93 Co66 2.096 . S
O93 C74 1.247 . S
C94 O91 1.244 . S
C94 O92 1.240 . S
H95 C69 0.931 . S
H96 C78 0.931 . S
H97 C82 0.929 . S
H98 C84 0.930 . S
Co99 N103 2.148 . S
Co99 N109 2.128 . S
Co99 N119 2.194 . S
Co99 O124 2.351 . S
Co99 O125 2.155 . S
Co99 O126 2.096 . S
C100 N103 1.301 . S
C100 N104 1.328 . S
C100 H105 0.930 . S
C101 C102 1.333 . S
C101 N103 1.317 . S
C101 H106 0.930 . S
C102 C101 1.333 . S
C102 N104 1.350 . S
C102 H128 0.931 . S
N103 Co99 2.148 . S
N103 C100 1.301 . S
N103 C101 1.317 . S
N104 C100 1.328 . S
N104 C102 1.350 . S
H105 C100 0.930 . S
H106 C101 0.930 . S
C107 O108 1.224 . S
C107 O126 1.247 . S
O108 C107 1.224 . S
N109 Co99 2.128 . S
N109 C110 1.355 . S
N109 C112 1.311 . S
C110 N109 1.355 . S
C110 C111 1.363 . S
C110 H122 0.929 . S
C111 C110 1.363 . S
C111 N113 1.375 . S
C111 H129 0.931 . S
C112 N109 1.311 . S
C112 N113 1.347 . S
C112 H123 0.929 . S
N113 C111 1.375 . S
N113 C112 1.347 . S
C114 C117 1.365 . S
C114 N119 1.328 . S
C114 H120 0.929 . S
C115 C116 1.362 . S
C115 C118 1.378 . S
C115 H130 0.929 . S
C116 C115 1.362 . S
C116 C117 1.366 . S
C117 C114 1.365 . S
C117 C116 1.366 . S
C117 H131 0.930 . S
C118 C115 1.378 . S
C118 N119 1.315 . S
C118 H121 0.930 . S
N119 Co99 2.194 . S
N119 C114 1.328 . S
N119 C118 1.315 . S
H120 C114 0.929 . S
H121 C118 0.930 . S
H122 C110 0.929 . S
H123 C112 0.929 . S
O124 Co99 2.351 . S
O124 C127 1.244 . S
O125 Co99 2.155 . S
O125 C127 1.240 . S
O126 Co99 2.096 . S
O126 C107 1.247 . S
C127 O124 1.244 . S
C127 O125 1.240 . S
H128 C102 0.931 . S
H129 C111 0.931 . S
H130 C115 0.929 . S
H131 C117 0.930 . S
Co132 N136 2.148 . S
Co132 N142 2.128 . S
Co132 N152 2.194 . S
Co132 O157 2.351 . S
Co132 O158 2.155 . S
Co132 O159 2.096 . S
C133 N136 1.301 . S
C133 N137 1.328 . S
C133 H138 0.930 . S
C134 C135 1.333 . S
C134 N136 1.317 . S
C134 H139 0.930 . S
C135 C134 1.333 . S
C135 N137 1.350 . S
C135 H161 0.931 . S
N136 Co132 2.148 . S
N136 C133 1.301 . S
N136 C134 1.317 . S
N137 C133 1.328 . S
N137 C135 1.350 . S
H138 C133 0.930 . S
H139 C134 0.930 . S
C140 O141 1.224 . S
C140 O159 1.247 . S
O141 C140 1.224 . S
N142 Co132 2.128 . S
N142 C143 1.355 . S
N142 C145 1.311 . S
C143 N142 1.355 . S
C143 C144 1.363 . S
C143 H155 0.929 . S
C144 C143 1.363 . S
C144 N146 1.375 . S
C144 H162 0.931 . S
C145 N142 1.311 . S
C145 N146 1.347 . S
C145 H156 0.929 . S
N146 C144 1.375 . S
N146 C145 1.347 . S
C147 C150 1.365 . S
C147 N152 1.328 . S
C147 H153 0.929 . S
C148 C149 1.362 . S
C148 C151 1.378 . S
C148 H163 0.929 . S
C149 C148 1.362 . S
C149 C150 1.366 . S
C150 C147 1.365 . S
C150 C149 1.366 . S
C150 H164 0.930 . S
C151 C148 1.378 . S
C151 N152 1.315 . S
C151 H154 0.930 . S
N152 Co132 2.194 . S
N152 C147 1.328 . S
N152 C151 1.315 . S
H153 C147 0.929 . S
H154 C151 0.930 . S
H155 C143 0.929 . S
H156 C145 0.929 . S
O157 Co132 2.351 . S
O157 C160 1.244 . S
O158 Co132 2.155 . S
O158 C160 1.240 . S
O159 Co132 2.096 . S
O159 C140 1.247 . S
C160 O157 1.244 . S
C160 O158 1.240 . S
H161 C135 0.931 . S
H162 C144 0.931 . S
H163 C148 0.929 . S
H164 C150 0.930 . S
Co165 N169 2.148 . S
Co165 N175 2.128 . S
Co165 N185 2.194 . S
Co165 O190 2.351 . S
Co165 O191 2.155 . S
Co165 O192 2.096 . S
C166 N169 1.301 . S
C166 N170 1.328 . S
C166 H171 0.930 . S
C167 C168 1.333 . S
C167 N169 1.317 . S
C167 H172 0.930 . S
C168 C167 1.333 . S
C168 N170 1.350 . S
C168 H194 0.931 . S
N169 Co165 2.148 . S
N169 C166 1.301 . S
N169 C167 1.317 . S
N170 C166 1.328 . S
N170 C168 1.350 . S
H171 C166 0.930 . S
H172 C167 0.930 . S
C173 O174 1.224 . S
C173 O192 1.247 . S
O174 C173 1.224 . S
N175 Co165 2.128 . S
N175 C176 1.355 . S
N175 C178 1.311 . S
C176 N175 1.355 . S
C176 C177 1.363 . S
C176 H188 0.929 . S
C177 C176 1.363 . S
C177 N179 1.375 . S
C177 H195 0.931 . S
C178 N175 1.311 . S
C178 N179 1.347 . S
C178 H189 0.929 . S
N179 C177 1.375 . S
N179 C178 1.347 . S
C180 C183 1.365 . S
C180 N185 1.328 . S
C180 H186 0.929 . S
C181 C182 1.362 . S
C181 C184 1.378 . S
C181 H196 0.929 . S
C182 C181 1.362 . S
C182 C183 1.366 . S
C183 C180 1.365 . S
C183 C182 1.366 . S
C183 H197 0.930 . S
C184 C181 1.378 . S
C184 N185 1.315 . S
C184 H187 0.930 . S
N185 Co165 2.194 . S
N185 C180 1.328 . S
N185 C184 1.315 . S
H186 C180 0.929 . S
H187 C184 0.930 . S
H188 C176 0.929 . S
H189 C178 0.929 . S
O190 Co165 2.351 . S
O190 C193 1.244 . S
O191 Co165 2.155 . S
O191 C193 1.240 . S
O192 Co165 2.096 . S
O192 C173 1.247 . S
C193 O190 1.244 . S
C193 O191 1.240 . S
H194 C168 0.931 . S
H195 C177 0.931 . S
H196 C181 0.929 . S
H197 C183 0.930 . S
Co198 N202 2.148 . S
Co198 N208 2.128 . S
Co198 N218 2.194 . S
Co198 O223 2.351 . S
Co198 O224 2.155 . S
Co198 O225 2.096 . S
C199 N202 1.301 . S
C199 N203 1.328 . S
C199 H204 0.930 . S
C200 C201 1.333 . S
C200 N202 1.317 . S
C200 H205 0.930 . S
C201 C200 1.333 . S
C201 N203 1.350 . S
C201 H227 0.931 . S
N202 Co198 2.148 . S
N202 C199 1.301 . S
N202 C200 1.317 . S
N203 C199 1.328 . S
N203 C201 1.350 . S
H204 C199 0.930 . S
H205 C200 0.930 . S
C206 O207 1.224 . S
C206 O225 1.247 . S
O207 C206 1.224 . S
N208 Co198 2.128 . S
N208 C209 1.355 . S
N208 C211 1.311 . S
C209 N208 1.355 . S
C209 C210 1.363 . S
C209 H221 0.929 . S
C210 C209 1.363 . S
C210 N212 1.375 . S
C210 H228 0.931 . S
C211 N208 1.311 . S
C211 N212 1.347 . S
C211 H222 0.929 . S
N212 C210 1.375 . S
N212 C211 1.347 . S
C213 C216 1.365 . S
C213 N218 1.328 . S
C213 H219 0.929 . S
C214 C215 1.362 . S
C214 C217 1.378 . S
C214 H229 0.929 . S
C215 C214 1.362 . S
C215 C216 1.366 . S
C216 C213 1.365 . S
C216 C215 1.366 . S
C216 H230 0.930 . S
C217 C214 1.378 . S
C217 N218 1.315 . S
C217 H220 0.930 . S
N218 Co198 2.194 . S
N218 C213 1.328 . S
N218 C217 1.315 . S
H219 C213 0.929 . S
H220 C217 0.930 . S
H221 C209 0.929 . S
H222 C211 0.929 . S
O223 Co198 2.351 . S
O223 C226 1.244 . S
O224 Co198 2.155 . S
O224 C226 1.240 . S
O225 Co198 2.096 . S
O225 C206 1.247 . S
C226 O223 1.244 . S
C226 O224 1.240 . S
H227 C201 0.931 . S
H228 C210 0.931 . S
H229 C214 0.929 . S
H230 C216 0.930 . S
Co231 N235 2.148 . S
Co231 N241 2.128 . S
Co231 N251 2.194 . S
Co231 O256 2.351 . S
Co231 O257 2.155 . S
Co231 O258 2.096 . S
C232 N235 1.301 . S
C232 N236 1.328 . S
C232 H237 0.930 . S
C233 C234 1.333 . S
C233 N235 1.317 . S
C233 H238 0.930 . S
C234 C233 1.333 . S
C234 N236 1.350 . S
C234 H260 0.931 . S
N235 Co231 2.148 . S
N235 C232 1.301 . S
N235 C233 1.317 . S
N236 C232 1.328 . S
N236 C234 1.350 . S
H237 C232 0.930 . S
H238 C233 0.930 . S
C239 O240 1.224 . S
C239 O258 1.247 . S
O240 C239 1.224 . S
N241 Co231 2.128 . S
N241 C242 1.355 . S
N241 C244 1.311 . S
C242 N241 1.355 . S
C242 C243 1.363 . S
C242 H254 0.929 . S
C243 C242 1.363 . S
C243 N245 1.375 . S
C243 H261 0.931 . S
C244 N241 1.311 . S
C244 N245 1.347 . S
C244 H255 0.929 . S
N245 C243 1.375 . S
N245 C244 1.347 . S
C246 C249 1.365 . S
C246 N251 1.328 . S
C246 H252 0.929 . S
C247 C248 1.362 . S
C247 C250 1.378 . S
C247 H262 0.929 . S
C248 C247 1.362 . S
C248 C249 1.366 . S
C249 C246 1.365 . S
C249 C248 1.366 . S
C249 H263 0.930 . S
C250 C247 1.378 . S
C250 N251 1.315 . S
C250 H253 0.930 . S
N251 Co231 2.194 . S
N251 C246 1.328 . S
N251 C250 1.315 . S
H252 C246 0.929 . S
H253 C250 0.930 . S
H254 C242 0.929 . S
H255 C244 0.929 . S
O256 Co231 2.351 . S
O256 C259 1.244 . S
O257 Co231 2.155 . S
O257 C259 1.240 . S
O258 Co231 2.096 . S
O258 C239 1.247 . S
C259 O256 1.244 . S
C259 O257 1.240 . S
H260 C234 0.931 . S
H261 C243 0.931 . S
H262 C247 0.929 . S
H263 C249 0.930 . S
Co264 N268 2.148 . S
Co264 N274 2.128 . S
Co264 N284 2.194 . S
Co264 O289 2.351 . S
Co264 O290 2.155 . S
Co264 O291 2.096 . S
C265 N268 1.301 . S
C265 N269 1.328 . S
C265 H270 0.930 . S
C266 C267 1.333 . S
C266 N268 1.317 . S
C266 H271 0.930 . S
C267 C266 1.333 . S
C267 N269 1.350 . S
C267 H293 0.931 . S
N268 Co264 2.148 . S
N268 C265 1.301 . S
N268 C266 1.317 . S
N269 C265 1.328 . S
N269 C267 1.350 . S
H270 C265 0.930 . S
H271 C266 0.930 . S
C272 O273 1.224 . S
C272 O291 1.247 . S
O273 C272 1.224 . S
N274 Co264 2.128 . S
N274 C275 1.355 . S
N274 C277 1.311 . S
C275 N274 1.355 . S
C275 C276 1.363 . S
C275 H287 0.929 . S
C276 C275 1.363 . S
C276 N278 1.375 . S
C276 H294 0.931 . S
C277 N274 1.311 . S
C277 N278 1.347 . S
C277 H288 0.929 . S
N278 C276 1.375 . S
N278 C277 1.347 . S
C279 C282 1.365 . S
C279 N284 1.328 . S
C279 H285 0.929 . S
C280 C281 1.362 . S
C280 C283 1.378 . S
C280 H295 0.929 . S
C281 C280 1.362 . S
C281 C282 1.366 . S
C282 C279 1.365 . S
C282 C281 1.366 . S
C282 H296 0.930 . S
C283 C280 1.378 . S
C283 N284 1.315 . S
C283 H286 0.930 . S
N284 Co264 2.194 . S
N284 C279 1.328 . S
N284 C283 1.315 . S
H285 C279 0.929 . S
H286 C283 0.930 . S
H287 C275 0.929 . S
H288 C277 0.929 . S
O289 Co264 2.351 . S
O289 C292 1.244 . S
O290 Co264 2.155 . S
O290 C292 1.240 . S
O291 Co264 2.096 . S
O291 C272 1.247 . S
C292 O289 1.244 . S
C292 O290 1.240 . S
H293 C267 0.931 . S
H294 C276 0.931 . S
H295 C280 0.929 . S
H296 C282 0.930 . S
Co297 N301 2.148 . S
Co297 N307 2.128 . S
Co297 N317 2.194 . S
Co297 O322 2.351 . S
Co297 O323 2.155 . S
Co297 O324 2.096 . S
C298 N301 1.301 . S
C298 N302 1.328 . S
C298 H303 0.930 . S
C299 C300 1.333 . S
C299 N301 1.317 . S
C299 H304 0.930 . S
C300 C299 1.333 . S
C300 N302 1.350 . S
C300 H326 0.931 . S
N301 Co297 2.148 . S
N301 C298 1.301 . S
N301 C299 1.317 . S
N302 C298 1.328 . S
N302 C300 1.350 . S
H303 C298 0.930 . S
H304 C299 0.930 . S
C305 O306 1.224 . S
C305 O324 1.247 . S
O306 C305 1.224 . S
N307 Co297 2.128 . S
N307 C308 1.355 . S
N307 C310 1.311 . S
C308 N307 1.355 . S
C308 C309 1.363 . S
C308 H320 0.929 . S
C309 C308 1.363 . S
C309 N311 1.375 . S
C309 H327 0.931 . S
C310 N307 1.311 . S
C310 N311 1.347 . S
C310 H321 0.929 . S
N311 C309 1.375 . S
N311 C310 1.347 . S
C312 C315 1.365 . S
C312 N317 1.328 . S
C312 H318 0.929 . S
C313 C314 1.362 . S
C313 C316 1.378 . S
C313 H328 0.929 . S
C314 C313 1.362 . S
C314 C315 1.366 . S
C315 C312 1.365 . S
C315 C314 1.366 . S
C315 H329 0.930 . S
C316 C313 1.378 . S
C316 N317 1.315 . S
C316 H319 0.930 . S
N317 Co297 2.194 . S
N317 C312 1.328 . S
N317 C316 1.315 . S
H318 C312 0.929 . S
H319 C316 0.930 . S
H320 C308 0.929 . S
H321 C310 0.929 . S
O322 Co297 2.351 . S
O322 C325 1.244 . S
O323 Co297 2.155 . S
O323 C325 1.240 . S
O324 Co297 2.096 . S
O324 C305 1.247 . S
C325 O322 1.244 . S
C325 O323 1.240 . S
H326 C300 0.931 . S
H327 C309 0.931 . S
H328 C313 0.929 . S
H329 C315 0.930 . S
Co330 N334 2.148 . S
Co330 N340 2.128 . S
Co330 N350 2.194 . S
Co330 O355 2.351 . S
Co330 O356 2.155 . S
Co330 O357 2.096 . S
C331 N334 1.301 . S
C331 N335 1.328 . S
C331 H336 0.930 . S
C332 C333 1.333 . S
C332 N334 1.317 . S
C332 H337 0.930 . S
C333 C332 1.333 . S
C333 N335 1.350 . S
C333 H359 0.931 . S
N334 Co330 2.148 . S
N334 C331 1.301 . S
N334 C332 1.317 . S
N335 C331 1.328 . S
N335 C333 1.350 . S
H336 C331 0.930 . S
H337 C332 0.930 . S
C338 O339 1.224 . S
C338 O357 1.247 . S
O339 C338 1.224 . S
N340 Co330 2.128 . S
N340 C341 1.355 . S
N340 C343 1.311 . S
C341 N340 1.355 . S
C341 C342 1.363 . S
C341 H353 0.929 . S
C342 C341 1.363 . S
C342 N344 1.375 . S
C342 H360 0.931 . S
C343 N340 1.311 . S
C343 N344 1.347 . S
C343 H354 0.929 . S
N344 C342 1.375 . S
N344 C343 1.347 . S
C345 C348 1.365 . S
C345 N350 1.328 . S
C345 H351 0.929 . S
C346 C347 1.362 . S
C346 C349 1.378 . S
C346 H361 0.929 . S
C347 C346 1.362 . S
C347 C348 1.366 . S
C348 C345 1.365 . S
C348 C347 1.366 . S
C348 H362 0.930 . S
C349 C346 1.378 . S
C349 N350 1.315 . S
C349 H352 0.930 . S
N350 Co330 2.194 . S
N350 C345 1.328 . S
N350 C349 1.315 . S
H351 C345 0.929 . S
H352 C349 0.930 . S
H353 C341 0.929 . S
H354 C343 0.929 . S
O355 Co330 2.351 . S
O355 C358 1.244 . S
O356 Co330 2.155 . S
O356 C358 1.240 . S
O357 Co330 2.096 . S
O357 C338 1.247 . S
C358 O355 1.244 . S
C358 O356 1.240 . S
H359 C333 0.931 . S
H360 C342 0.931 . S
H361 C346 0.929 . S
H362 C348 0.930 . S
Co363 N367 2.148 . S
Co363 N373 2.128 . S
Co363 N383 2.194 . S
Co363 O388 2.351 . S
Co363 O389 2.155 . S
Co363 O390 2.096 . S
C364 N367 1.301 . S
C364 N368 1.328 . S
C364 H369 0.930 . S
C365 C366 1.333 . S
C365 N367 1.317 . S
C365 H370 0.930 . S
C366 C365 1.333 . S
C366 N368 1.350 . S
C366 H392 0.931 . S
N367 Co363 2.148 . S
N367 C364 1.301 . S
N367 C365 1.317 . S
N368 C364 1.328 . S
N368 C366 1.350 . S
H369 C364 0.930 . S
H370 C365 0.930 . S
C371 O372 1.224 . S
C371 O390 1.247 . S
O372 C371 1.224 . S
N373 Co363 2.128 . S
N373 C374 1.355 . S
N373 C376 1.311 . S
C374 N373 1.355 . S
C374 C375 1.363 . S
C374 H386 0.929 . S
C375 C374 1.363 . S
C375 N377 1.375 . S
C375 H393 0.931 . S
C376 N373 1.311 . S
C376 N377 1.347 . S
C376 H387 0.929 . S
N377 C375 1.375 . S
N377 C376 1.347 . S
C378 C381 1.365 . S
C378 N383 1.328 . S
C378 H384 0.929 . S
C379 C380 1.362 . S
C379 C382 1.378 . S
C379 H394 0.929 . S
C380 C379 1.362 . S
C380 C381 1.366 . S
C381 C378 1.365 . S
C381 C380 1.366 . S
C381 H395 0.930 . S
C382 C379 1.378 . S
C382 N383 1.315 . S
C382 H385 0.930 . S
N383 Co363 2.194 . S
N383 C378 1.328 . S
N383 C382 1.315 . S
H384 C378 0.929 . S
H385 C382 0.930 . S
H386 C374 0.929 . S
H387 C376 0.929 . S
O388 Co363 2.351 . S
O388 C391 1.244 . S
O389 Co363 2.155 . S
O389 C391 1.240 . S
O390 Co363 2.096 . S
O390 C371 1.247 . S
C391 O388 1.244 . S
C391 O389 1.240 . S
H392 C366 0.931 . S
H393 C375 0.931 . S
H394 C379 0.929 . S
H395 C381 0.930 . S
H396 C402 0.930 . S
H397 C406 0.930 . S
H398 C411 0.929 . S
H399 C409 0.929 . S
H400 C404 0.929 1_554 S
H401 C410 0.929 1_556 S
C402 H396 0.930 . S
C402 C403 1.367 . S
C402 C410 1.378 . S
C403 C402 1.367 . S
C403 C411 1.433 . S
C404 H400 0.929 1_556 S
C404 C406 1.378 . S
C404 C408 1.350 . S
C405 C408 1.463 1_554 S
C405 C410 1.350 . S
C405 N413 1.427 . S
C406 H397 0.930 . S
C406 C404 1.378 . S
C406 C407 1.367 . S
C407 C406 1.367 . S
C407 C409 1.433 . S
C408 C404 1.350 . S
C408 C405 1.463 1_556 S
C408 N412 1.427 . S
C409 H399 0.929 . S
C409 C407 1.433 . S
C409 N412 1.384 . S
C410 H401 0.929 1_554 S
C410 C402 1.378 . S
C410 C405 1.350 . S
C411 H398 0.929 . S
C411 C403 1.433 . S
C411 N413 1.384 . S
N412 C408 1.427 . S
N412 C409 1.384 . S
N413 C405 1.427 . S
N413 C411 1.384 . S
H414 C420 0.930 . S
H415 C424 0.930 . S
H416 C429 0.929 . S
H417 C427 0.929 . S
H418 C422 0.929 . S
H419 C428 0.929 . S
C420 H414 0.930 . S
C420 C421 1.367 . S
C420 C428 1.378 . S
C421 C420 1.367 . S
C421 C429 1.433 . S
C422 H418 0.929 . S
C422 C424 1.378 . S
C422 C426 1.350 . S
C423 C426 1.463 . S
C423 C428 1.350 . S
C423 N431 1.427 . S
C424 H415 0.930 . S
C424 C422 1.378 . S
C424 C425 1.367 . S
C425 C424 1.367 . S
C425 C427 1.433 . S
C426 C422 1.350 . S
C426 C423 1.463 . S
C426 N430 1.427 . S
C427 H417 0.929 . S
C427 C425 1.433 . S
C427 N430 1.384 . S
C428 H419 0.929 . S
C428 C420 1.378 . S
C428 C423 1.350 . S
C429 H416 0.929 . S
C429 C421 1.433 . S
C429 N431 1.384 . S
N430 C426 1.427 . S
N430 C427 1.384 . S
N431 C423 1.427 . S
N431 C429 1.384 . S
H432 C438 0.930 . S
H433 C442 0.930 . S
H434 C447 0.929 . S
H435 C445 0.929 . S
H436 C440 0.929 . S
H437 C446 0.929 . S
C438 H432 0.930 . S
C438 C439 1.367 . S
C438 C446 1.378 . S
C439 C438 1.367 . S
C439 C447 1.433 . S
C440 H436 0.929 . S
C440 C442 1.378 . S
C440 C444 1.350 . S
C441 C444 1.463 1_554 S
C441 C446 1.350 . S
C441 N449 1.427 . S
C442 H433 0.930 . S
C442 C440 1.378 . S
C442 C443 1.367 . S
C443 C442 1.367 . S
C443 C445 1.433 . S
C444 C440 1.350 . S
C444 C441 1.463 1_556 S
C444 N448 1.427 . S
C445 H435 0.929 . S
C445 C443 1.433 . S
C445 N448 1.384 . S
C446 H437 0.929 . S
C446 C438 1.378 . S
C446 C441 1.350 . S
C447 H434 0.929 . S
C447 C439 1.433 . S
C447 N449 1.384 . S
N448 C444 1.427 . S
N448 C445 1.384 . S
N449 C441 1.427 . S
N449 C447 1.384 . S
H450 C456 0.930 . S
H451 C460 0.930 . S
H452 C465 0.929 . S
H453 C463 0.929 . S
H454 C458 0.929 . S
H455 C464 0.929 . S
C456 H450 0.930 . S
C456 C457 1.367 . S
C456 C464 1.378 . S
C457 C456 1.367 . S
C457 C465 1.433 . S
C458 H454 0.929 . S
C458 C460 1.378 . S
C458 C462 1.350 . S
C459 C462 1.463 . S
C459 C464 1.350 . S
C459 N467 1.427 . S
C460 H451 0.930 . S
C460 C458 1.378 . S
C460 C461 1.367 . S
C461 C460 1.367 . S
C461 C463 1.433 . S
C462 C458 1.350 . S
C462 C459 1.463 . S
C462 N466 1.427 . S
C463 H453 0.929 . S
C463 C461 1.433 . S
C463 N466 1.384 . S
C464 H455 0.929 . S
C464 C456 1.378 . S
C464 C459 1.350 . S
C465 H452 0.929 . S
C465 C457 1.433 . S
C465 N467 1.384 . S
N466 C462 1.427 . S
N466 C463 1.384 . S
N467 C459 1.427 . S
N467 C465 1.384 . S
H468 C474 0.930 . S
H469 C478 0.930 . S
H470 C483 0.929 . S
H471 C481 0.929 . S
H472 C476 0.929 . S
H473 C482 0.929 . S
C474 H468 0.930 . S
C474 C475 1.367 . S
C474 C482 1.378 . S
C475 C474 1.367 . S
C475 C483 1.433 . S
C476 H472 0.929 . S
C476 C478 1.378 . S
C476 C480 1.350 . S
C477 C480 1.463 1_554 S
C477 C482 1.350 . S
C477 N485 1.427 . S
C478 H469 0.930 . S
C478 C476 1.378 . S
C478 C479 1.367 . S
C479 C478 1.367 . S
C479 C481 1.433 . S
C480 C476 1.350 . S
C480 C477 1.463 1_556 S
C480 N484 1.427 . S
C481 H471 0.929 . S
C481 C479 1.433 . S
C481 N484 1.384 . S
C482 H473 0.929 . S
C482 C474 1.378 . S
C482 C477 1.350 . S
C483 H470 0.929 . S
C483 C475 1.433 . S
C483 N485 1.384 . S
N484 C480 1.427 . S
N484 C481 1.384 . S
N485 C477 1.427 . S
N485 C483 1.384 . S
H486 C492 0.930 . S
H487 C496 0.930 . S
H488 C501 0.929 . S
H489 C499 0.929 . S
H490 C494 0.929 . S
H491 C500 0.929 . S
C492 H486 0.930 . S
C492 C493 1.367 . S
C492 C500 1.378 . S
C493 C492 1.367 . S
C493 C501 1.433 . S
C494 H490 0.929 . S
C494 C496 1.378 . S
C494 C498 1.350 . S
C495 C498 1.463 . S
C495 C500 1.350 . S
C495 N503 1.427 . S
C496 H487 0.930 . S
C496 C494 1.378 . S
C496 C497 1.367 . S
C497 C496 1.367 . S
C497 C499 1.433 . S
C498 C494 1.350 . S
C498 C495 1.463 . S
C498 N502 1.427 . S
C499 H489 0.929 . S
C499 C497 1.433 . S
C499 N502 1.384 . S
C500 H491 0.929 . S
C500 C492 1.378 . S
C500 C495 1.350 . S
C501 H488 0.929 . S
C501 C493 1.433 . S
C501 N503 1.384 . S
N502 C498 1.427 . S
N502 C499 1.384 . S
N503 C495 1.427 . S
N503 C501 1.384 . S
H504 C510 0.930 . S
H505 C514 0.930 . S
H506 C519 0.929 . S
H507 C517 0.929 . S
H508 C512 0.929 . S
H509 C518 0.929 . S
C510 H504 0.930 . S
C510 C511 1.367 . S
C510 C518 1.378 . S
C511 C510 1.367 . S
C511 C519 1.433 . S
C512 H508 0.929 . S
C512 C514 1.378 . S
C512 C516 1.350 . S
C513 C516 1.463 1_554 S
C513 C518 1.350 . S
C513 N521 1.427 . S
C514 H505 0.930 . S
C514 C512 1.378 . S
C514 C515 1.367 . S
C515 C514 1.367 . S
C515 C517 1.433 . S
C516 C512 1.350 . S
C516 C513 1.463 1_556 S
C516 N520 1.427 . S
C517 H507 0.929 . S
C517 C515 1.433 . S
C517 N520 1.384 . S
C518 H509 0.929 . S
C518 C510 1.378 . S
C518 C513 1.350 . S
C519 H506 0.929 . S
C519 C511 1.433 . S
C519 N521 1.384 . S
N520 C516 1.427 . S
N520 C517 1.384 . S
N521 C513 1.427 . S
N521 C519 1.384 . S
H522 C528 0.930 . S
H523 C532 0.930 . S
H524 C537 0.929 . S
H525 C535 0.929 . S
H526 C530 0.929 . S
H527 C536 0.929 . S
C528 H522 0.930 . S
C528 C529 1.367 . S
C528 C536 1.378 . S
C529 C528 1.367 . S
C529 C537 1.433 . S
C530 H526 0.929 . S
C530 C532 1.378 . S
C530 C534 1.350 . S
C531 C534 1.463 . S
C531 C536 1.350 . S
C531 N539 1.427 . S
C532 H523 0.930 . S
C532 C530 1.378 . S
C532 C533 1.367 . S
C533 C532 1.367 . S
C533 C535 1.433 . S
C534 C530 1.350 . S
C534 C531 1.463 . S
C534 N538 1.427 . S
C535 H525 0.929 . S
C535 C533 1.433 . S
C535 N538 1.384 . S
C536 H527 0.929 . S
C536 C528 1.378 . S
C536 C531 1.350 . S
C537 H524 0.929 . S
C537 C529 1.433 . S
C537 N539 1.384 . S
N538 C534 1.427 . S
N538 C535 1.384 . S
N539 C531 1.427 . S
N539 C537 1.384 . S
H540 C546 0.930 . S
H541 C550 0.930 . S
H542 C555 0.929 . S
H543 C553 0.929 . S
H544 C548 0.929 . S
H545 C554 0.929 . S
C546 H540 0.930 . S
C546 C547 1.367 . S
C546 C554 1.378 . S
C547 C546 1.367 . S
C547 C555 1.433 . S
C548 H544 0.929 . S
C548 C550 1.378 . S
C548 C552 1.350 . S
C549 C552 1.463 1_554 S
C549 C554 1.350 . S
C549 N557 1.427 . S
C550 H541 0.930 . S
C550 C548 1.378 . S
C550 C551 1.367 . S
C551 C550 1.367 . S
C551 C553 1.433 . S
C552 C548 1.350 . S
C552 C549 1.463 1_556 S
C552 N556 1.427 . S
C553 H543 0.929 . S
C553 C551 1.433 . S
C553 N556 1.384 . S
C554 H545 0.929 . S
C554 C546 1.378 . S
C554 C549 1.350 . S
C555 H542 0.929 . S
C555 C547 1.433 . S
C555 N557 1.384 . S
N556 C552 1.427 . S
N556 C553 1.384 . S
N557 C549 1.427 . S
N557 C555 1.384 . S
H558 C564 0.930 . S
H559 C568 0.930 . S
H560 C573 0.929 . S
H561 C571 0.929 . S
H562 C566 0.929 . S
H563 C572 0.929 . S
C564 H558 0.930 . S
C564 C565 1.367 . S
C564 C572 1.378 . S
C565 C564 1.367 . S
C565 C573 1.433 . S
C566 H562 0.929 . S
C566 C568 1.378 . S
C566 C570 1.350 . S
C567 C570 1.463 . S
C567 C572 1.350 . S
C567 N575 1.427 . S
C568 H559 0.930 . S
C568 C566 1.378 . S
C568 C569 1.367 . S
C569 C568 1.367 . S
C569 C571 1.433 . S
C570 C566 1.350 . S
C570 C567 1.463 . S
C570 N574 1.427 . S
C571 H561 0.929 . S
C571 C569 1.433 . S
C571 N574 1.384 . S
C572 H563 0.929 . S
C572 C564 1.378 . S
C572 C567 1.350 . S
C573 H560 0.929 . S
C573 C565 1.433 . S
C573 N575 1.384 . S
N574 C570 1.427 . S
N574 C571 1.384 . S
N575 C567 1.427 . S
N575 C573 1.384 . S
H576 C582 0.930 . S
H577 C586 0.930 . S
H578 C591 0.929 . S
H579 C589 0.929 . S
H580 C584 0.929 . S
H581 C590 0.929 . S
C582 H576 0.930 . S
C582 C583 1.367 . S
C582 C590 1.378 . S
C583 C582 1.367 . S
C583 C591 1.433 . S
C584 H580 0.929 . S
C584 C586 1.378 . S
C584 C588 1.350 . S
C585 C588 1.463 1_554 S
C585 C590 1.350 . S
C585 N593 1.427 . S
C586 H577 0.930 . S
C586 C584 1.378 . S
C586 C587 1.367 . S
C587 C586 1.367 . S
C587 C589 1.433 . S
C588 C584 1.350 . S
C588 C585 1.463 1_556 S
C588 N592 1.427 . S
C589 H579 0.929 . S
C589 C587 1.433 . S
C589 N592 1.384 . S
C590 H581 0.929 . S
C590 C582 1.378 . S
C590 C585 1.350 . S
C591 H578 0.929 . S
C591 C583 1.433 . S
C591 N593 1.384 . S
N592 C588 1.427 . S
N592 C589 1.384 . S
N593 C585 1.427 . S
N593 C591 1.384 . S
H594 C600 0.930 . S
H595 C604 0.930 . S
H596 C609 0.929 . S
H597 C607 0.929 . S
H598 C602 0.929 . S
H599 C608 0.929 . S
C600 H594 0.930 . S
C600 C601 1.367 . S
C600 C608 1.378 . S
C601 C600 1.367 . S
C601 C609 1.433 . S
C602 H598 0.929 . S
C602 C604 1.378 . S
C602 C606 1.350 . S
C603 C606 1.463 . S
C603 C608 1.350 . S
C603 N611 1.427 . S
C604 H595 0.930 . S
C604 C602 1.378 . S
C604 C605 1.367 . S
C605 C604 1.367 . S
C605 C607 1.433 . S
C606 C602 1.350 . S
C606 C603 1.463 . S
C606 N610 1.427 . S
C607 H597 0.929 . S
C607 C605 1.433 . S
C607 N610 1.384 . S
C608 H599 0.929 . S
C608 C600 1.378 . S
C608 C603 1.350 . S
C609 H596 0.929 . S
C609 C601 1.433 . S
C609 N611 1.384 . S
N610 C606 1.427 . S
N610 C607 1.384 . S
N611 C603 1.427 . S
N611 C609 1.384 . S
H612 C618 0.930 . S
H613 C622 0.930 . S
H614 C627 0.929 . S
H615 C625 0.929 . S
H616 C620 0.915 1_556 S
H617 C626 0.915 1_554 S
C618 H612 0.930 . S
C618 C619 1.367 . S
C618 C626 1.378 . S
C619 C618 1.367 . S
C619 C627 1.433 . S
C620 H616 0.915 1_554 S
C620 C622 1.378 . S
C620 C624 1.350 . S
C621 C624 1.463 1_556 S
C621 C626 1.350 . S
C621 N629 1.427 . S
C622 H613 0.930 . S
C622 C620 1.378 . S
C622 C623 1.367 . S
C623 C622 1.367 . S
C623 C625 1.433 . S
C624 C620 1.350 . S
C624 C621 1.463 1_554 S
C624 N628 1.427 . S
C625 H615 0.929 . S
C625 C623 1.433 . S
C625 N628 1.384 . S
C626 H617 0.915 1_556 S
C626 C618 1.378 . S
C626 C621 1.350 . S
C627 H614 0.929 . S
C627 C619 1.433 . S
C627 N629 1.384 . S
N628 C624 1.427 . S
N628 C625 1.384 . S
N629 C621 1.427 . S
N629 C627 1.384 . S
H630 C636 0.930 . S
H631 C640 0.930 . S
H632 C645 0.929 . S
H633 C643 0.929 . S
H634 C638 0.929 . S
H635 C644 0.929 . S
C636 H630 0.930 . S
C636 C637 1.367 . S
C636 C644 1.378 . S
C637 C636 1.367 . S
C637 C645 1.433 . S
C638 H634 0.929 . S
C638 C640 1.378 . S
C638 C642 1.350 . S
C639 C642 1.463 . S
C639 C644 1.350 . S
C639 N647 1.427 . S
C640 H631 0.930 . S
C640 C638 1.378 . S
C640 C641 1.367 . S
C641 C640 1.367 . S
C641 C643 1.433 . S
C642 C638 1.350 . S
C642 C639 1.463 . S
C642 N646 1.427 . S
C643 H633 0.929 . S
C643 C641 1.433 . S
C643 N646 1.384 . S
C644 H635 0.929 . S
C644 C636 1.378 . S
C644 C639 1.350 . S
C645 H632 0.929 . S
C645 C637 1.433 . S
C645 N647 1.384 . S
N646 C642 1.427 . S
N646 C643 1.384 . S
N647 C639 1.427 . S
N647 C645 1.384 . S
H648 C654 0.930 . S
H649 C658 0.930 . S
H650 C663 0.929 . S
H651 C661 0.929 . S
H652 C656 0.929 1_554 S
H653 C662 0.929 1_556 S
C654 H648 0.930 . S
C654 C655 1.367 . S
C654 C662 1.378 . S
C655 C654 1.367 . S
C655 C663 1.433 . S
C656 H652 0.929 1_556 S
C656 C658 1.378 . S
C656 C660 1.350 . S
C657 C660 1.463 1_554 S
C657 C662 1.350 . S
C657 N665 1.427 . S
C658 H649 0.930 . S
C658 C656 1.378 . S
C658 C659 1.367 . S
C659 C658 1.367 . S
C659 C661 1.433 . S
C660 C656 1.350 . S
C660 C657 1.463 1_556 S
C660 N664 1.427 . S
C661 H651 0.929 . S
C661 C659 1.433 . S
C661 N664 1.384 . S
C662 H653 0.929 1_554 S
C662 C654 1.378 . S
C662 C657 1.350 . S
C663 H650 0.929 . S
C663 C655 1.433 . S
C663 N665 1.384 . S
N664 C660 1.427 . S
N664 C661 1.384 . S
N665 C657 1.427 . S
N665 C663 1.384 . S
H666 C672 0.930 . S
H667 C676 0.930 . S
H668 C681 0.929 . S
H669 C679 0.929 . S
H670 C674 0.929 . S
H671 C680 0.929 . S
C672 H666 0.930 . S
C672 C673 1.367 . S
C672 C680 1.378 . S
C673 C672 1.367 . S
C673 C681 1.433 . S
C674 H670 0.929 . S
C674 C676 1.378 . S
C674 C678 1.350 . S
C675 C678 1.463 . S
C675 C680 1.350 . S
C675 N683 1.427 . S
C676 H667 0.930 . S
C676 C674 1.378 . S
C676 C677 1.367 . S
C677 C676 1.367 . S
C677 C679 1.433 . S
C678 C674 1.350 . S
C678 C675 1.463 . S
C678 N682 1.427 . S
C679 H669 0.929 . S
C679 C677 1.433 . S
C679 N682 1.384 . S
C680 H671 0.929 . S
C680 C672 1.378 . S
C680 C675 1.350 . S
C681 H668 0.929 . S
C681 C673 1.433 . S
C681 N683 1.384 . S
N682 C678 1.427 . S
N682 C679 1.384 . S
N683 C675 1.427 . S
N683 C681 1.384 . S
H684 C690 0.930 . S
H685 C694 0.930 . S
H686 C699 0.929 . S
H687 C697 0.929 . S
H688 C692 0.929 1_554 S
H689 C698 0.929 1_556 S
C690 H684 0.930 . S
C690 C691 1.367 . S
C690 C698 1.378 . S
C691 C690 1.367 . S
C691 C699 1.433 . S
C692 H688 0.929 1_556 S
C692 C694 1.378 . S
C692 C696 1.350 . S
C693 C696 1.463 1_554 S
C693 C698 1.350 . S
C693 N701 1.427 . S
C694 H685 0.930 . S
C694 C692 1.378 . S
C694 C695 1.367 . S
C695 C694 1.367 . S
C695 C697 1.433 . S
C696 C692 1.350 . S
C696 C693 1.463 1_556 S
C696 N700 1.427 . S
C697 H687 0.929 . S
C697 C695 1.433 . S
C697 N700 1.384 . S
C698 H689 0.929 1_554 S
C698 C690 1.378 . S
C698 C693 1.350 . S
C699 H686 0.929 . S
C699 C691 1.433 . S
C699 N701 1.384 . S
N700 C696 1.427 . S
N700 C697 1.384 . S
N701 C693 1.427 . S
N701 C699 1.384 . S
H702 C708 0.930 . S
H703 C712 0.930 . S
H704 C717 0.929 . S
H705 C715 0.929 . S
H706 C710 0.929 . S
H707 C716 0.929 . S
C708 H702 0.930 . S
C708 C709 1.367 . S
C708 C716 1.378 . S
C709 C708 1.367 . S
C709 C717 1.433 . S
C710 H706 0.929 . S
C710 C712 1.378 . S
C710 C714 1.350 . S
C711 C714 1.463 . S
C711 C716 1.350 . S
C711 N719 1.427 . S
C712 H703 0.930 . S
C712 C710 1.378 . S
C712 C713 1.367 . S
C713 C712 1.367 . S
C713 C715 1.433 . S
C714 C710 1.350 . S
C714 C711 1.463 . S
C714 N718 1.427 . S
C715 H705 0.929 . S
C715 C713 1.433 . S
C715 N718 1.384 . S
C716 H707 0.929 . S
C716 C708 1.378 . S
C716 C711 1.350 . S
C717 H704 0.929 . S
C717 C709 1.433 . S
C717 N719 1.384 . S
N718 C714 1.427 . S
N718 C715 1.384 . S
N719 C711 1.427 . S
N719 C717 1.384 . S
H720 C726 0.930 . S
H721 C730 0.930 . S
H722 C735 0.929 . S
H723 C733 0.929 . S
H724 C728 0.929 . S
H725 C734 0.929 . S
C726 H720 0.930 . S
C726 C727 1.367 . S
C726 C734 1.378 . S
C727 C726 1.367 . S
C727 C735 1.433 . S
C728 H724 0.929 . S
C728 C730 1.378 . S
C728 C732 1.350 . S
C729 C732 1.463 1_556 S
C729 C734 1.350 . S
C729 N737 1.427 . S
C730 H721 0.930 . S
C730 C728 1.378 . S
C730 C731 1.367 . S
C731 C730 1.367 . S
C731 C733 1.433 . S
C732 C728 1.350 . S
C732 C729 1.463 1_554 S
C732 N736 1.427 . S
C733 H723 0.929 . S
C733 C731 1.433 . S
C733 N736 1.384 . S
C734 H725 0.929 . S
C734 C726 1.378 . S
C734 C729 1.350 . S
C735 H722 0.929 . S
C735 C727 1.433 . S
C735 N737 1.384 . S
N736 C732 1.427 . S
N736 C733 1.384 . S
N737 C729 1.427 . S
N737 C735 1.384 . S
H738 C744 0.930 . S
H739 C748 0.930 . S
H740 C753 0.929 . S
H741 C751 0.929 . S
H742 C746 0.929 . S
H743 C752 0.929 . S
C744 H738 0.930 . S
C744 C745 1.367 . S
C744 C752 1.378 . S
C745 C744 1.367 . S
C745 C753 1.433 . S
C746 H742 0.929 . S
C746 C748 1.378 . S
C746 C750 1.350 . S
C747 C750 1.463 . S
C747 C752 1.350 . S
C747 N755 1.427 . S
C748 H739 0.930 . S
C748 C746 1.378 . S
C748 C749 1.367 . S
C749 C748 1.367 . S
C749 C751 1.433 . S
C750 C746 1.350 . S
C750 C747 1.463 . S
C750 N754 1.427 . S
C751 H741 0.929 . S
C751 C749 1.433 . S
C751 N754 1.384 . S
C752 H743 0.929 . S
C752 C744 1.378 . S
C752 C747 1.350 . S
C753 H740 0.929 . S
C753 C745 1.433 . S
C753 N755 1.384 . S
N754 C750 1.427 . S
N754 C751 1.384 . S
N755 C747 1.427 . S
N755 C753 1.384 . S
H756 C762 0.930 . S
H757 C766 0.930 . S
H758 C771 0.929 . S
H759 C769 0.929 . S
H760 C764 0.929 . S
H761 C770 0.929 . S
C762 H756 0.930 . S
C762 C763 1.367 . S
C762 C770 1.378 . S
C763 C762 1.367 . S
C763 C771 1.433 . S
C764 H760 0.929 . S
C764 C766 1.378 . S
C764 C768 1.350 . S
C765 C768 1.463 1_554 S
C765 C770 1.350 . S
C765 N773 1.427 . S
C766 H757 0.930 . S
C766 C764 1.378 . S
C766 C767 1.367 . S
C767 C766 1.367 . S
C767 C769 1.433 . S
C768 C764 1.350 . S
C768 C765 1.463 1_556 S
C768 N772 1.427 . S
C769 H759 0.929 . S
C769 C767 1.433 . S
C769 N772 1.384 . S
C770 H761 0.929 . S
C770 C762 1.378 . S
C770 C765 1.350 . S
C771 H758 0.929 . S
C771 C763 1.433 . S
C771 N773 1.384 . S
N772 C768 1.427 . S
N772 C769 1.384 . S
N773 C765 1.427 . S
N773 C771 1.384 . S
H774 C780 0.930 . S
H775 C784 0.930 . S
H776 C789 0.929 . S
H777 C787 0.929 . S
H778 C782 0.929 . S
H779 C788 0.929 . S
C780 H774 0.930 . S
C780 C781 1.367 . S
C780 C788 1.378 . S
C781 C780 1.367 . S
C781 C789 1.433 . S
C782 H778 0.929 . S
C782 C784 1.378 . S
C782 C786 1.350 . S
C783 C786 1.463 . S
C783 C788 1.350 . S
C783 N791 1.427 . S
C784 H775 0.930 . S
C784 C782 1.378 . S
C784 C785 1.367 . S
C785 C784 1.367 . S
C785 C787 1.433 . S
C786 C782 1.350 . S
C786 C783 1.463 . S
C786 N790 1.427 . S
C787 H777 0.929 . S
C787 C785 1.433 . S
C787 N790 1.384 . S
C788 H779 0.929 . S
C788 C780 1.378 . S
C788 C783 1.350 . S
C789 H776 0.929 . S
C789 C781 1.433 . S
C789 N791 1.384 . S
N790 C786 1.427 . S
N790 C787 1.384 . S
N791 C783 1.427 . S
N791 C789 1.384 . S
H792 C798 0.930 . S
H793 C802 0.930 . S
H794 C807 0.929 . S
H795 C805 0.929 . S
H796 C800 0.929 . S
H797 C806 0.929 . S
C798 H792 0.930 . S
C798 C799 1.367 . S
C798 C806 1.378 . S
C799 C798 1.367 . S
C799 C807 1.433 . S
C800 H796 0.929 . S
C800 C802 1.378 . S
C800 C804 1.350 . S
C801 C804 1.463 1_554 S
C801 C806 1.350 . S
C801 N809 1.427 . S
C802 H793 0.930 . S
C802 C800 1.378 . S
C802 C803 1.367 . S
C803 C802 1.367 . S
C803 C805 1.433 . S
C804 C800 1.350 . S
C804 C801 1.463 1_556 S
C804 N808 1.427 . S
C805 H795 0.929 . S
C805 C803 1.433 . S
C805 N808 1.384 . S
C806 H797 0.929 . S
C806 C798 1.378 . S
C806 C801 1.350 . S
C807 H794 0.929 . S
C807 C799 1.433 . S
C807 N809 1.384 . S
N808 C804 1.427 . S
N808 C805 1.384 . S
N809 C801 1.427 . S
N809 C807 1.384 . S
H810 C816 0.930 . S
H811 C820 0.930 . S
H812 C825 0.929 . S
H813 C823 0.929 . S
H814 C818 0.929 . S
H815 C824 0.929 . S
C816 H810 0.930 . S
C816 C817 1.367 . S
C816 C824 1.378 . S
C817 C816 1.367 . S
C817 C825 1.433 . S
C818 H814 0.929 . S
C818 C820 1.378 . S
C818 C822 1.350 . S
C819 C822 1.463 . S
C819 C824 1.350 . S
C819 N827 1.427 . S
C820 H811 0.930 . S
C820 C818 1.378 . S
C820 C821 1.367 . S
C821 C820 1.367 . S
C821 C823 1.433 . S
C822 C818 1.350 . S
C822 C819 1.463 . S
C822 N826 1.427 . S
C823 H813 0.929 . S
C823 C821 1.433 . S
C823 N826 1.384 . S
C824 H815 0.929 . S
C824 C816 1.378 . S
C824 C819 1.350 . S
C825 H812 0.929 . S
C825 C817 1.433 . S
C825 N827 1.384 . S
N826 C822 1.427 . S
N826 C823 1.384 . S
N827 C819 1.427 . S
N827 C825 1.384 . S
H828 C834 0.930 . S
H829 C838 0.930 . S
H830 C843 0.929 . S
H831 C841 0.929 . S
H832 C836 0.929 . S
H833 C842 0.929 . S
C834 H828 0.930 . S
C834 C835 1.367 . S
C834 C842 1.378 . S
C835 C834 1.367 . S
C835 C843 1.433 . S
C836 H832 0.929 . S
C836 C838 1.378 . S
C836 C840 1.350 . S
C837 C840 1.463 . S
C837 C842 1.350 . S
C837 N845 1.427 . S
C838 H829 0.930 . S
C838 C836 1.378 . S
C838 C839 1.367 . S
C839 C838 1.367 . S
C839 C841 1.433 . S
C840 C836 1.350 . S
C840 C837 1.463 . S
C840 N844 1.427 . S
C841 H831 0.929 . S
C841 C839 1.433 . S
C841 N844 1.384 . S
C842 H833 0.929 . S
C842 C834 1.378 . S
C842 C837 1.350 . S
C843 H830 0.929 . S
C843 C835 1.433 . S
C843 N845 1.384 . S
N844 C840 1.427 . S
N844 C841 1.384 . S
N845 C837 1.427 . S
N845 C843 1.384 . S
H846 C852 0.930 . S
H847 C856 0.930 . S
H848 C861 0.929 . S
H849 C859 0.929 . S
H850 C854 0.929 . S
H851 C860 0.929 . S
C852 H846 0.930 . S
C852 C853 1.367 . S
C852 C860 1.378 . S
C853 C852 1.367 . S
C853 C861 1.433 . S
C854 H850 0.929 . S
C854 C856 1.378 . S
C854 C858 1.350 . S
C855 C858 1.463 1_455 S
C855 C860 1.350 . S
C855 N863 1.427 . S
C856 H847 0.930 . S
C856 C854 1.378 . S
C856 C857 1.367 . S
C857 C856 1.367 . S
C857 C859 1.433 . S
C858 C854 1.350 . S
C858 C855 1.463 1_655 S
C858 N862 1.427 . S
C859 H849 0.929 . S
C859 C857 1.433 . S
C859 N862 1.384 . S
C860 H851 0.929 . S
C860 C852 1.378 . S
C860 C855 1.350 . S
C861 H848 0.929 . S
C861 C853 1.433 . S
C861 N863 1.384 . S
N862 C858 1.427 . S
N862 C859 1.384 . S
N863 C855 1.427 . S
N863 C861 1.384 . S
H864 C870 0.930 . S
H865 C874 0.930 . S
H866 C879 0.929 . S
H867 C877 0.929 . S
H868 C872 0.929 . S
H869 C878 0.929 . S
C870 H864 0.930 . S
C870 C871 1.367 . S
C870 C878 1.378 . S
C871 C870 1.367 . S
C871 C879 1.433 . S
C872 H868 0.929 . S
C872 C874 1.378 . S
C872 C876 1.350 . S
C873 C876 1.463 1_545 S
C873 C878 1.350 . S
C873 N881 1.427 . S
C874 H865 0.930 . S
C874 C872 1.378 . S
C874 C875 1.367 . S
C875 C874 1.367 . S
C875 C877 1.433 . S
C876 C872 1.350 . S
C876 C873 1.463 1_565 S
C876 N880 1.427 . S
C877 H867 0.929 . S
C877 C875 1.433 . S
C877 N880 1.384 . S
C878 H869 0.929 . S
C878 C870 1.378 . S
C878 C873 1.350 . S
C879 H866 0.929 . S
C879 C871 1.433 . S
C879 N881 1.384 . S
N880 C876 1.427 . S
N880 C877 1.384 . S
N881 C873 1.427 . S
N881 C879 1.384 . S
H882 C888 0.930 . S
H883 C892 0.930 . S
H884 C897 0.929 . S
H885 C895 0.929 . S
H886 C890 0.929 . S
H887 C896 0.929 . S
C888 H882 0.930 . S
C888 C889 1.367 . S
C888 C896 1.378 . S
C889 C888 1.367 . S
C889 C897 1.433 . S
C890 H886 0.929 . S
C890 C892 1.378 . S
C890 C894 1.350 . S
C891 C894 1.463 . S
C891 C896 1.350 . S
C891 N899 1.427 . S
C892 H883 0.930 . S
C892 C890 1.378 . S
C892 C893 1.367 . S
C893 C892 1.367 . S
C893 C895 1.433 . S
C894 C890 1.350 . S
C894 C891 1.463 . S
C894 N898 1.427 . S
C895 H885 0.929 . S
C895 C893 1.433 . S
C895 N898 1.384 . S
C896 H887 0.929 . S
C896 C888 1.378 . S
C896 C891 1.350 . S
C897 H884 0.929 . S
C897 C889 1.433 . S
C897 N899 1.384 . S
N898 C894 1.427 . S
N898 C895 1.384 . S
N899 C891 1.427 . S
N899 C897 1.384 . S
H900 C906 0.930 . S
H901 C910 0.930 . S
H902 C915 0.929 . S
H903 C913 0.929 . S
H904 C908 0.929 . S
H905 C914 0.929 . S
C906 H900 0.930 . S
C906 C907 1.367 . S
C906 C914 1.378 . S
C907 C906 1.367 . S
C907 C915 1.433 . S
C908 H904 0.929 . S
C908 C910 1.378 . S
C908 C912 1.350 . S
C909 C912 1.463 1_455 S
C909 C914 1.350 . S
C909 N917 1.427 . S
C910 H901 0.930 . S
C910 C908 1.378 . S
C910 C911 1.367 . S
C911 C910 1.367 . S
C911 C913 1.433 . S
C912 C908 1.350 . S
C912 C909 1.463 1_655 S
C912 N916 1.427 . S
C913 H903 0.929 . S
C913 C911 1.433 . S
C913 N916 1.384 . S
C914 H905 0.929 . S
C914 C906 1.378 . S
C914 C909 1.350 . S
C915 H902 0.929 . S
C915 C907 1.433 . S
C915 N917 1.384 . S
N916 C912 1.427 . S
N916 C913 1.384 . S
N917 C909 1.427 . S
N917 C915 1.384 . S
H918 C924 0.930 . S
H919 C928 0.930 . S
H920 C933 0.929 . S
H921 C931 0.929 . S
H922 C926 0.929 . S
H923 C932 0.929 . S
C924 H918 0.930 . S
C924 C925 1.367 . S
C924 C932 1.378 . S
C925 C924 1.367 . S
C925 C933 1.433 . S
C926 H922 0.929 . S
C926 C928 1.378 . S
C926 C930 1.350 . S
C927 C930 1.463 1_565 S
C927 C932 1.350 . S
C927 N935 1.427 . S
C928 H919 0.930 . S
C928 C926 1.378 . S
C928 C929 1.367 . S
C929 C928 1.367 . S
C929 C931 1.433 . S
C930 C926 1.350 . S
C930 C927 1.463 1_545 S
C930 N934 1.427 . S
C931 H921 0.929 . S
C931 C929 1.433 . S
C931 N934 1.384 . S
C932 H923 0.929 . S
C932 C924 1.378 . S
C932 C927 1.350 . S
C933 H920 0.929 . S
C933 C925 1.433 . S
C933 N935 1.384 . S
N934 C930 1.427 . S
N934 C931 1.384 . S
N935 C927 1.427 . S
N935 C933 1.384 . S
C403 C8 2.324 . S
C407 C206 2.325 . S
C421 C41 2.327 . S
C425 C239 2.326 . S
C439 C74 2.322 . S
C443 C272 2.328 . S
C457 C305 2.324 . S
C461 C107 2.328 . S
C475 C140 2.324 . S
C479 C338 2.328 . S
C493 C371 2.322 . S
C497 C173 2.328 . S
C511 N302 0.842 . S
C515 N104 0.845 . S
C529 N137 0.871 . S
C533 N335 0.866 . S
C547 N368 0.850 . S
C551 N170 0.863 . S
C565 N203 0.844 . S
C569 N5 0.843 . S
C583 N236 0.845 . S
C587 N38 0.856 . S
C601 N71 0.853 . S
C605 N269 0.865 . S
C619 N344 0.845 . S
C623 N14 0.846 . S
C637 N47 0.839 . S
C641 N377 0.838 . S
C655 N80 0.849 . S
C659 N212 0.848 . S
C673 N113 0.841 . S
C677 N245 0.842 . S
C691 N146 0.846 . S
C695 N278 0.848 . S
C709 N179 0.847 . S
C713 N311 0.846 . S
C727 C127 1.846 . S
C731 C259 1.846 . S
C745 C160 1.842 . S
C749 C292 1.843 . S
C763 C325 1.844 . S
C767 C193 1.843 . S
C781 C28 1.841 . S
C785 C358 1.841 . S
C799 C391 1.846 . S
C803 C61 1.846 . S
C817 C94 1.841 . S
C821 C226 1.841 . S
C835 C17 1.297 . S
C839 C314 1.298 . S
C853 C347 1.302 . S
C857 C50 1.298 . S
C871 C380 1.293 . S
C875 C83 1.304 . S
C889 C215 1.294 . S
C893 C116 1.304 . S
C907 C149 1.293 . S
C911 C248 1.304 . S
C925 C281 1.300 . S
C929 C182 1.299 . S
