# Generated by pormake.
# Topology nov, (5)-cn, num edge types: 1
# Building blocks:
#     Node 0, Type 0, BuildingBlock: XOMCOT_clean_sbu_1, # of connection points: 5
#     Node 1, Type 0, BuildingBlock: XOMCOT_clean_sbu_1, # of connection points: 5
#     Node 2, Type 0, BuildingBlock: XOMCOT_clean_sbu_1, # of connection points: 5
#     Node 3, Type 0, BuildingBlock: XOMCOT_clean_sbu_1, # of connection points: 5
#     Node 4, Type 0, BuildingBlock: XOMCOT_clean_sbu_1, # of connection points: 5
#     Node 5, Type 0, BuildingBlock: XOMCOT_clean_sbu_1, # of connection points: 5
#     Node 6, Type 0, BuildingBlock: XOMCOT_clean_sbu_1, # of connection points: 5
#     Node 7, Type 0, BuildingBlock: XOMCOT_clean_sbu_1, # of connection points: 5
#     Edge 8, Type (0, 0), BuildingBlock: EZIPEK_clean_linker_0, # of connection points: 2
#     Edge 9, Type (0, 0), BuildingBlock: EZIPEK_clean_linker_0, # of connection points: 2
#     Edge 10, Type (0, 0), BuildingBlock: EZIPEK_clean_linker_0, # of connection points: 2
#     Edge 11, Type (0, 0), BuildingBlock: EZIPEK_clean_linker_0, # of connection points: 2
#     Edge 12, Type (0, 0), BuildingBlock: EZIPEK_clean_linker_0, # of connection points: 2
#     Edge 13, Type (0, 0), BuildingBlock: EZIPEK_clean_linker_0, # of connection points: 2
#     Edge 14, Type (0, 0), BuildingBlock: EZIPEK_clean_linker_0, # of connection points: 2
#     Edge 15, Type (0, 0), BuildingBlock: EZIPEK_clean_linker_0, # of connection points: 2
#     Edge 16, Type (0, 0), BuildingBlock: EZIPEK_clean_linker_0, # of connection points: 2
#     Edge 17, Type (0, 0), BuildingBlock: EZIPEK_clean_linker_0, # of connection points: 2
#     Edge 18, Type (0, 0), BuildingBlock: EZIPEK_clean_linker_0, # of connection points: 2
#     Edge 19, Type (0, 0), BuildingBlock: EZIPEK_clean_linker_0, # of connection points: 2
#     Edge 20, Type (0, 0), BuildingBlock: EZIPEK_clean_linker_0, # of connection points: 2
#     Edge 21, Type (0, 0), BuildingBlock: EZIPEK_clean_linker_0, # of connection points: 2
#     Edge 22, Type (0, 0), BuildingBlock: EZIPEK_clean_linker_0, # of connection points: 2
#     Edge 23, Type (0, 0), BuildingBlock: EZIPEK_clean_linker_0, # of connection points: 2
#     Edge 24, Type (0, 0), BuildingBlock: EZIPEK_clean_linker_0, # of connection points: 2
#     Edge 25, Type (0, 0), BuildingBlock: EZIPEK_clean_linker_0, # of connection points: 2
#     Edge 26, Type (0, 0), BuildingBlock: EZIPEK_clean_linker_0, # of connection points: 2
#     Edge 27, Type (0, 0), BuildingBlock: EZIPEK_clean_linker_0, # of connection points: 2
# Relax obj value: 0.125
# Max RMSD: 0.160
# Mean RMSD: 0.160
data_MOF--net-nov--node1-XOMCOT_clean_sbu_1--edge1-EZIPEK_clean_linker_0
_symmetry_space_group_name_H-M    P1
_symmetry_Int_Tables_number       1
_symmetry_cell_setting            triclinic
loop_
_symmetry_equiv_pos_as_xyz
'x, y, z'
_cell_length_a     19.25377
_cell_length_b     41.5128
_cell_length_c     21.964262
_cell_angle_alpha  90.604078
_cell_angle_beta   89.982692
_cell_angle_gamma 91.164289
loop_
_atom_site_label
_atom_site_type_symbol
_atom_site_fract_x
_atom_site_fract_y
_atom_site_fract_z
_atom_type_partial_charge
C0 C 0.10928 0.13291 0.02734 0.0
C1 C 0.10433 0.10352 0.99858 0.0
N2 N 0.05644 0.08535 0.02776 0.0
N3 N 0.06538 0.13342 0.07511 0.0
C4 C 1.03271 0.10423 0.0737 0.0
H5 H 0.14489 0.15236 0.01568 0.0
Co6 Co 0.06778 0.16783 0.13031 0.0
C7 C 0.948 0.13952 0.20284 0.0
O8 O 0.98642 0.1185 0.23088 0.0
N9 N 0.07134 0.20271 0.18507 0.0
C10 C 1.03868 0.24408 0.2428 0.0
C11 C 1.01869 0.22281 0.19742 0.0
C12 C 0.12313 0.21252 0.223 0.0
N13 N 0.10416 0.23744 0.25872 0.0
O14 O 0.11528 0.14156 0.18846 0.0
H15 H 0.9681 0.22148 0.17603 0.0
H16 H 0.17299 0.20121 0.22604 0.0
O17 O 0.97488 0.1575 0.16202 0.0
C18 C 0.18031 0.14142 0.17625 0.0
O19 O 0.20204 0.15741 0.12835 0.0
N20 N 1.02981 0.19384 0.07134 0.0
C21 C 0.99845 0.22945 0.96927 0.0
C22 C 0.94768 0.20927 0.99548 0.0
C23 C 0.96492 0.19108 0.04642 0.0
C24 C 0.07827 0.21457 0.04807 0.0
C25 C 0.06369 0.23262 0.99694 0.0
H26 H 0.92729 0.17396 0.06393 0.0
H27 H 0.12969 0.21591 0.06791 0.0
H28 H 0.99503 0.09631 0.10715 0.0
H29 H 0.13512 0.09562 0.96016 0.0
H30 H 1.00687 0.26218 0.26423 0.0
H31 H 0.89676 0.20643 0.97495 0.0
H32 H 0.10392 0.24807 0.97775 0.0
C33 C 0.65991 0.91558 0.59357 0.0
C34 C 0.66756 0.94571 0.56887 0.0
N35 N 0.60512 0.95957 0.56925 0.0
N36 N 0.59277 0.91038 0.60941 0.0
C37 C 0.56081 0.93796 0.59456 0.0
H38 H 0.70032 0.89799 0.59743 0.0
Co39 Co 0.55537 0.87071 0.6362 0.0
C40 C 0.66202 0.88561 0.73104 0.0
O41 O 0.63763 0.91486 0.73422 0.0
N42 N 0.51883 0.83149 0.6633 0.0
C43 C 0.46757 0.78317 0.67095 0.0
C44 C 0.48606 0.80764 0.6316 0.0
C45 C 0.51871 0.82137 0.72151 0.0
N46 N 0.48819 0.79212 0.72726 0.0
O47 O 0.49901 0.89147 0.69635 0.0
H48 H 0.47673 0.80793 0.58306 0.0
H49 H 0.54126 0.83502 0.75911 0.0
O50 O 0.63469 0.86621 0.69179 0.0
C51 C 0.43941 0.89495 0.6717 0.0
O52 O 0.43483 0.89165 0.61224 0.0
N53 N 0.60119 0.84944 0.57306 0.0
C54 C 0.6278 0.81059 0.47223 0.0
C55 C 0.66073 0.80486 0.52804 0.0
C56 C 0.64619 0.82462 0.57854 0.0
C57 C 0.57264 0.85641 0.51815 0.0
C58 C 0.58562 0.83742 0.46704 0.0
H59 H 0.66653 0.81847 0.62255 0.0
H60 H 0.53544 0.8755 0.51503 0.0
H61 H 0.50576 0.94183 0.59906 0.0
H62 H 0.71458 0.95619 0.54978 0.0
H63 H 0.44201 0.76049 0.65921 0.0
H64 H 0.6931 0.78405 0.53347 0.0
H65 H 0.55911 0.84234 0.42473 0.0
C66 C 0.13642 0.91219 0.95725 0.0
C67 C 0.12956 0.94242 0.98144 0.0
N68 N 0.07118 0.95503 0.95916 0.0
N69 N 0.08312 0.90544 0.91908 0.0
C70 C 1.04363 0.93212 0.92132 0.0
H71 H 0.17839 0.89612 0.96673 0.0
Co72 Co 0.0819 0.86623 0.87643 0.0
C73 C 0.93711 0.85538 0.82731 0.0
O74 O 0.94266 0.82488 0.84116 0.0
N75 N 0.08573 0.82555 0.83389 0.0
C76 C 0.08123 0.7731 0.80944 0.0
C77 C 0.07095 0.79555 0.85481 0.0
C78 C 0.10739 0.82003 0.77596 0.0
N79 N 0.10422 0.78856 0.75973 0.0
O80 O 0.1295 0.88735 0.80991 0.0
H81 H 1.0519 0.78988 0.89973 0.0
H82 H 0.12429 0.83857 0.74538 0.0
O83 O 0.98792 0.87508 0.8397 0.0
C84 C 0.19521 0.88668 0.81828 0.0
O85 O 0.21834 0.87102 0.86555 0.0
N86 N 1.04448 0.84644 0.94576 0.0
C87 C 1.0181 0.81403 0.05395 0.0
C88 C 0.96332 0.82664 0.02023 0.0
C89 C 0.97795 0.84405 0.9673 0.0
C90 C 0.09815 0.83523 0.97928 0.0
C91 C 0.08632 0.81947 0.03386 0.0
H92 H 0.93561 0.85508 0.94423 0.0
H93 H 0.15075 0.83809 0.96262 0.0
H94 H 0.99703 0.93517 0.89487 0.0
H95 H 0.16473 0.95436 0.01329 0.0
H96 H 0.07249 0.74732 0.81261 0.0
H97 H 0.90997 0.82321 0.03483 0.0
H98 H 0.13009 0.81044 0.05904 0.0
C99 C 0.60225 0.10038 0.34944 0.0
C100 C 0.61167 0.0716 0.37788 0.0
N101 N 0.58233 0.07343 0.43314 0.0
N102 N 0.56794 0.12078 0.38678 0.0
C103 C 0.55539 0.10315 0.43747 0.0
H104 H 0.61746 0.10546 0.3031 0.0
Co105 Co 0.54114 0.16235 0.3618 0.0
C106 C 0.67368 0.17949 0.282 0.0
O107 O 0.66598 0.21038 0.27255 0.0
N108 N 0.51401 0.20277 0.33517 0.0
C109 C 0.46836 0.25154 0.33049 0.0
C110 C 0.48197 0.22591 0.36778 0.0
C111 C 0.51714 0.21436 0.27798 0.0
N112 N 0.49129 0.2442 0.27427 0.0
O113 O 0.48658 0.14335 0.29668 0.0
H114 H 0.46923 0.22429 0.41559 0.0
H115 H 0.53818 0.20124 0.23957 0.0
O116 O 0.62858 0.16358 0.31305 0.0
C117 C 0.42863 0.13319 0.31863 0.0
O118 O 0.42342 0.13 0.37793 0.0
N119 N 0.58485 0.18204 0.42989 0.0
C120 C 0.61059 0.22041 0.53322 0.0
C121 C 0.6504 0.22455 0.48027 0.0
C122 C 0.63665 0.20507 0.4289 0.0
C123 C 0.54574 0.17804 0.48111 0.0
C124 C 0.55882 0.19629 0.53362 0.0
H125 H 0.66433 0.21033 0.38763 0.0
H126 H 0.49996 0.16263 0.47966 0.0
H127 H 0.52519 0.11108 0.476 0.0
H128 H 0.63598 0.05048 0.35879 0.0
H129 H 0.44484 0.27403 0.34369 0.0
H130 H 0.68964 0.24356 0.47786 0.0
H131 H 0.52566 0.19305 0.57304 0.0
C132 C 0.60377 0.63608 0.02132 0.0
C133 C 0.61004 0.60609 0.99534 0.0
N134 N 0.57703 0.58451 0.031 0.0
N135 N 0.56677 0.63372 0.07328 0.0
C136 C 0.55167 0.60184 0.07835 0.0
H137 H 0.6268 0.65823 0.00445 0.0
Co138 Co 0.55799 0.66907 0.1263 0.0
C139 C 0.41045 0.63726 0.14876 0.0
O140 O 0.40739 0.61625 0.10372 0.0
N141 N 0.55105 0.70453 0.17953 0.0
C142 C 0.50485 0.74304 0.23686 0.0
C143 C 0.49325 0.72176 0.18941 0.0
C144 C 0.5976 0.71633 0.22064 0.0
N145 N 0.57036 0.73945 0.25644 0.0
O146 O 0.60566 0.6455 0.18891 0.0
H147 H 0.4446 0.71805 0.16546 0.0
H148 H 0.64944 0.70739 0.22616 0.0
O149 O 0.46466 0.65529 0.15652 0.0
C150 C 0.67139 0.64705 0.17997 0.0
O151 O 0.69425 0.66226 0.13154 0.0
N152 N 0.51943 0.69322 0.0627 0.0
C153 C 0.49238 0.72613 0.95543 0.0
C154 C 0.45228 0.69895 0.97127 0.0
C155 C 0.46698 0.68266 0.02518 0.0
C156 C 0.55764 0.72014 0.04838 0.0
C157 C 0.54456 0.73713 0.99525 0.0
H158 H 0.44 0.6603 0.03393 0.0
H159 H 0.60123 0.7275 0.07666 0.0
H160 H 0.5255 0.5913 0.11716 0.0
H161 H 0.63775 0.60038 0.95383 0.0
H162 H 0.46711 0.75871 0.25763 0.0
H163 H 0.4127 0.68942 0.94062 0.0
H164 H 0.5773 0.7577 0.98371 0.0
C165 C 0.11967 0.40432 0.52551 0.0
C166 C 0.11683 0.43553 0.50633 0.0
N167 N 0.10426 0.45429 0.55494 0.0
N168 N 0.10952 0.40315 0.58652 0.0
C169 C 0.1001 0.43438 0.60302 0.0
H170 H 0.12594 0.38387 0.49545 0.0
Co171 Co 0.09889 0.36535 0.63421 0.0
C172 C 0.23648 0.39513 0.68177 0.0
O173 O 0.23459 0.42154 0.64962 0.0
N174 N 0.08925 0.32822 0.6812 0.0
C175 C 0.11955 0.28598 0.73585 0.0
C176 C 0.14061 0.30729 0.69197 0.0
C177 C 1.03701 0.31877 0.71855 0.0
N178 N 0.05485 0.29354 0.75286 0.0
O179 O 1.04255 0.38789 0.69304 0.0
H180 H 0.19183 0.30855 0.67186 0.0
H181 H 0.98887 0.33131 0.72407 0.0
O182 O 0.18693 0.37415 0.67814 0.0
C183 C 0.98174 0.39197 0.67079 0.0
O184 O 0.97372 0.38977 0.61146 0.0
N185 N 0.14227 0.34117 0.57429 0.0
C186 C 0.17243 0.30382 0.47254 0.0
C187 C 0.2264 0.31927 0.50555 0.0
C188 C 0.20999 0.33831 0.55679 0.0
C189 C 0.09022 0.3254 0.54371 0.0
C190 C 0.10404 0.30679 0.49269 0.0
H191 H 0.25088 0.35091 0.58146 0.0
H192 H 1.03704 0.32818 0.55848 0.0
H193 H 0.08832 0.44235 0.64887 0.0
H194 H 0.12092 0.4438 0.45984 0.0
H195 H 0.15052 0.26745 0.75616 0.0
H196 H 0.27992 0.31712 0.49118 0.0
H197 H 0.06129 0.29508 0.46847 0.0
C198 C 0.68399 0.41224 0.95572 0.0
C199 C 0.67781 0.44245 0.98054 0.0
N200 N 0.61463 0.45348 0.96644 0.0
N201 N 0.62576 0.40422 0.92467 0.0
C202 C 0.58349 0.42962 0.93297 0.0
H203 H 0.72854 0.39702 0.95992 0.0
Co204 Co 0.61958 0.36524 0.88203 0.0
C205 C 0.47691 0.36036 0.82741 0.0
O206 O 0.47495 0.32961 0.84102 0.0
N207 N 0.61732 0.32529 0.83862 0.0
C208 C 0.63354 0.27429 0.80964 0.0
C209 C 0.63356 0.29551 0.85802 0.0
C210 C 0.60849 0.32127 0.77772 0.0
N211 N 0.61815 0.29059 0.75914 0.0
O212 O 0.67366 0.38411 0.81639 0.0
H213 H 0.64785 0.28919 0.90364 0.0
H214 H 0.59552 0.34049 0.74734 0.0
O215 O 0.53024 0.37781 0.84277 0.0
C216 C 0.73849 0.37856 0.82194 0.0
O217 O 0.75881 0.36101 0.86776 0.0
N218 N 0.57504 0.34697 0.94993 0.0
C219 C 0.5319 0.31832 0.0582 0.0
C220 C 0.48618 0.33732 0.02493 0.0
C221 C 0.50942 0.35206 0.97115 0.0
C222 C 0.62141 0.33126 0.98513 0.0
C223 C 0.6006 0.31594 0.03834 0.0
H224 H 0.47575 0.36838 0.94818 0.0
H225 H 0.67526 0.33039 0.97122 0.0
H226 H 0.53156 0.43086 0.91441 0.0
H227 H 0.71673 0.45544 0.00723 0.0
H228 H 0.64662 0.24906 0.81092 0.0
H229 H 0.43371 0.34107 0.04088 0.0
H230 H 0.63812 0.30264 0.06427 0.0
C231 C 0.05743 0.59223 0.36018 0.0
C232 C 0.06511 0.56421 0.39157 0.0
N233 N 0.06107 0.57122 0.4512 0.0
N234 N 1.04847 0.61695 0.39976 0.0
C235 C 1.05096 0.60323 0.45544 0.0
H236 H 0.05919 0.5945 0.3112 0.0
Co237 Co 1.03859 0.65927 0.3724 0.0
C238 C 0.17216 0.66926 0.29836 0.0
O239 O 0.17451 0.7005 0.30814 0.0
N240 N 1.02902 0.70142 0.3422 0.0
C241 C 1.03001 0.75459 0.32894 0.0
C242 C 1.03647 0.73034 0.37061 0.0
C243 C 1.01568 0.70898 0.28357 0.0
N244 N 1.01669 0.74107 0.27419 0.0
O245 O 0.97558 0.64376 0.30892 0.0
H246 H 1.04738 0.73396 0.41826 0.0
H247 H 1.00819 0.69131 0.24747 0.0
O248 O 0.1226 0.65208 0.32079 0.0
C249 C 0.91501 0.63775 0.33069 0.0
O250 O 0.90781 0.63667 0.39014 0.0
N251 N 0.08901 0.67554 0.44041 0.0
C252 C 0.12304 0.71176 0.54455 0.0
C253 C 0.17343 0.70571 0.49993 0.0
C254 C 0.15537 0.6873 0.44795 0.0
C255 C 1.04099 0.67993 0.48527 0.0
C256 C 0.05688 0.69779 0.53762 0.0
H257 H 0.19376 0.68447 0.41325 0.0
H258 H 0.98831 0.6711 0.47841 0.0
H259 H 1.04638 0.61613 0.49818 0.0
H260 H 0.07399 0.54052 0.37236 0.0
H261 H 1.03561 0.78021 0.33793 0.0
H262 H 0.22505 0.71639 0.50384 0.0
H263 H 1.01658 0.70211 0.57099 0.0
C264 C 1.03846 1.01096 0.93191 0.0
C265 C 1.04616 0.98653 0.97589 0.0
C266 C 1.04999 0.02739 0.05714 0.0
C267 C 1.04081 0.05188 0.0134 0.0
N268 N 1.00283 0.06566 0.91295 0.0
N269 N 1.03347 0.9708 0.08022 0.0
C270 C 1.02663 0.04307 0.95201 0.0
C271 C 1.04238 0.99466 0.03857 0.0
N272 N 1.0478 1.00431 0.87153 0.0
N273 N 0.0722 0.03486 0.11469 0.0
H274 H 1.02667 0.94669 0.06706 0.0
H275 H 1.02531 0.97539 0.1264 0.0
H276 H 0.08416 0.05822 0.12934 0.0
H277 H 0.08593 0.01741 0.146 0.0
H278 H 1.04991 0.02213 0.83848 0.0
H279 H 0.05942 0.98148 0.85494 0.0
H280 H 0.98666 0.06015 0.8687 0.0
H281 H 0.99236 0.08911 0.92738 0.0
C282 C 0.53685 0.01945 0.4575 0.0
C283 C 0.57615 0.04713 0.47508 0.0
C284 C 0.61887 0.01864 0.56417 0.0
C285 C 0.58891 0.98962 0.54084 0.0
N286 N 0.52599 0.96134 0.46107 0.0
N287 N 0.65772 0.07339 0.54293 0.0
C288 C 0.54864 0.98975 0.48679 0.0
C289 C 0.61732 0.04702 0.52845 0.0
N290 N 0.48854 0.0218 0.41239 0.0
N291 N 0.64846 0.01884 0.62064 0.0
H292 H 0.6573 0.09448 0.51758 0.0
H293 H 0.69464 0.0737 0.57757 0.0
H294 H 0.64943 0.99827 0.64753 0.0
H295 H 0.66631 0.03971 0.64277 0.0
H296 H 0.45372 1.00322 0.40072 0.0
H297 H 0.47896 0.04357 0.39084 0.0
H298 H 0.50249 0.95976 0.41842 0.0
H299 H 0.53617 0.93896 0.47971 0.0
C300 C 0.55066 0.53898 0.96085 0.0
C301 C 0.57249 0.55013 0.01919 0.0
C302 C 0.59542 0.49435 0.04669 0.0
C303 C 0.58913 0.48469 0.98478 0.0
N304 N 0.56916 0.49994 0.88043 0.0
N305 N 0.62592 0.53806 0.11567 0.0
C306 C 0.56794 0.50742 0.94106 0.0
C307 C 0.59673 0.52769 0.06217 0.0
N308 N 0.51328 0.55865 0.92449 0.0
N309 N 0.6005 0.4715 0.09055 0.0
H310 H 0.63225 0.56229 0.12733 0.0
H311 H 0.65038 0.52263 0.14563 0.0
H312 H 0.5973 0.44691 0.08025 0.0
H313 H 0.59994 0.47699 0.13697 0.0
H314 H 0.49134 0.55095 0.88334 0.0
H315 H 0.4978 0.58143 0.93902 0.0
H316 H 0.56073 0.5169 0.84671 0.0
H317 H 0.58521 0.47781 0.86346 0.0
C318 C 0.14813 0.50965 0.5445 0.0
C319 C 0.09102 0.48816 0.55194 0.0
C320 C 1.01165 0.52938 0.51695 0.0
C321 C 0.06979 0.5482 0.49877 0.0
N322 N 0.19224 0.55945 0.49985 0.0
N323 N 0.96816 0.47734 0.55181 0.0
C324 C 0.13781 0.53964 0.51551 0.0
C325 C 1.02229 0.49836 0.54175 0.0
N326 N 0.21219 0.50043 0.56337 0.0
N327 N 0.94671 0.54103 0.50795 0.0
H328 H 0.97519 0.45477 0.57097 0.0
H329 H 0.91685 0.4817 0.54028 0.0
H330 H 0.93901 0.56363 0.48897 0.0
H331 H 0.9012 0.52966 0.52267 0.0
H332 H 0.25659 0.5151 0.56214 0.0
H333 H 0.21958 0.47828 0.58422 0.0
H334 H 0.24421 0.55383 0.5055 0.0
H335 H 0.18476 0.58181 0.47982 0.0
C336 C 0.30403 0.14819 0.30515 0.0
C337 C 0.36326 0.13212 0.28199 0.0
C338 C 0.2938 0.11405 0.19369 0.0
C339 C 0.23459 0.12947 0.21861 0.0
N340 N 0.17901 0.14813 0.31041 0.0
N341 N 0.41014 0.09394 0.2104 0.0
C342 C 0.23809 0.14209 0.27844 0.0
C343 C 0.35694 0.11323 0.22797 0.0
N344 N 0.31094 0.17111 0.35001 0.0
N345 N 0.28945 0.10044 0.1369 0.0
H346 H 0.45657 0.09276 0.23465 0.0
H347 H 0.40635 0.07731 0.17468 0.0
H348 H 0.2424 0.09812 0.11346 0.0
H349 H 0.33229 0.09237 0.11262 0.0
H350 H 0.26982 0.18535 0.36417 0.0
H351 H 0.35891 0.17877 0.36747 0.0
H352 H 0.1801 0.15444 0.35647 0.0
H353 H 0.1296 0.14237 0.29388 0.0
C354 C 0.31288 0.88036 0.68737 0.0
C355 C 0.37389 0.89728 0.70796 0.0
C356 C 0.30824 0.91579 0.79715 0.0
C357 C 0.24764 0.8996 0.77437 0.0
N358 N 0.18779 0.88158 0.68374 0.0
N359 N 0.42255 0.93855 0.77461 0.0
C360 C 0.24825 0.88708 0.71465 0.0
C361 C 0.36962 0.91736 0.76061 0.0
N362 N 0.31648 0.85589 0.64547 0.0
N363 N 0.30698 0.92949 0.8539 0.0
H364 H 0.46672 0.94129 0.74756 0.0
H365 H 0.41958 0.95562 0.80954 0.0
H366 H 0.26115 0.93119 0.87906 0.0
H367 H 0.35132 0.93812 0.87638 0.0
H368 H 0.27321 0.84173 0.63323 0.0
H369 H 0.36317 0.8467 0.62976 0.0
H370 H 0.18669 0.87385 0.63839 0.0
H371 H 0.14007 0.8889 0.7009 0.0
C372 C 0.83356 0.84508 0.7598 0.0
C373 C 0.86815 0.86578 0.80247 0.0
C374 C 0.76215 0.89854 0.80692 0.0
C375 C 0.72777 0.87683 0.76511 0.0
N376 N 0.72301 0.82067 0.73469 0.0
N377 N 0.85601 0.90739 0.87927 0.0
C378 C 0.76103 0.8475 0.75092 0.0
C379 C 0.83027 0.8915 0.82911 0.0
N380 N 0.86965 0.82277 0.72729 0.0
N381 N 0.72871 0.92488 0.82894 0.0
H382 H 0.90291 0.90184 0.89945 0.0
H383 H 0.82797 0.9239 0.90485 0.0
H384 H 0.67482 0.92631 0.83023 0.0
H385 H 0.75475 0.94464 0.84857 0.0
H386 H 0.84705 0.80904 0.69221 0.0
H387 H 0.92319 0.82054 0.73097 0.0
H388 H 0.74529 0.79824 0.72766 0.0
H389 H 0.66911 0.81951 0.73862 0.0
C390 C 0.79253 0.15806 0.30604 0.0
C391 C 0.74007 0.16419 0.26241 0.0
C392 C 0.81988 0.1467 0.18129 0.0
C393 C 0.87534 0.14583 0.22397 0.0
N394 N 0.91595 0.15753 0.3262 0.0
N395 N 0.70491 0.16607 0.15728 0.0
C396 C 0.86202 0.15307 0.28628 0.0
C397 C 0.75416 0.15902 0.1996 0.0
N398 N 0.77644 0.15695 0.36653 0.0
N399 N 0.82917 0.13458 0.12387 0.0
H400 H 0.65503 0.17328 0.1691 0.0
H401 H 0.71478 0.16651 0.11067 0.0
H402 H 0.8756 0.12433 0.10981 0.0
H403 H 0.78913 0.13177 0.09228 0.0
H404 H 0.81133 0.14954 0.39957 0.0
H405 H 0.72629 0.15982 0.38298 0.0
H406 H 0.90941 0.16632 0.37039 0.0
H407 H 0.96795 0.15596 0.31362 0.0
C408 C 0.79387 0.65658 0.31087 0.0
C409 C 0.85083 0.63747 0.2922 0.0
C410 C 0.78204 0.61848 0.20402 0.0
C411 C 0.72431 0.63645 0.22504 0.0
N412 N 0.66925 0.6622 0.31083 0.0
N413 N 0.89328 0.59483 0.22776 0.0
C414 C 0.72806 0.65189 0.28268 0.0
C415 C 0.84328 0.61676 0.24066 0.0
N416 N 0.80339 0.68091 0.35266 0.0
N417 N 0.77841 0.60333 0.14857 0.0
H418 H 0.93815 0.59276 0.25388 0.0
H419 H 0.88769 0.57695 0.19442 0.0
H420 H 0.73268 0.60199 0.12307 0.0
H421 H 0.82109 0.59324 0.127 0.0
H422 H 0.76488 0.69735 0.36332 0.0
H423 H 0.85187 0.68729 0.37077 0.0
H424 H 0.66921 0.67155 0.35507 0.0
H425 H 0.61979 0.65773 0.29319 0.0
C426 C 0.86144 0.37021 0.69212 0.0
C427 C 0.91787 0.39114 0.70947 0.0
C428 C 0.84975 0.40889 0.79786 0.0
C429 C 0.79226 0.38957 0.77743 0.0
N430 N 0.73714 0.36164 0.6935 0.0
N431 N 0.95984 0.43523 0.77258 0.0
C432 C 0.796 0.37359 0.72059 0.0
C433 C 0.91043 0.41195 0.76064 0.0
N434 N 0.87098 0.3455 0.65148 0.0
N435 N 0.84639 0.42413 0.85311 0.0
H436 H 1.00418 0.43838 0.74585 0.0
H437 H 0.95411 0.45311 0.80572 0.0
H438 H 0.8008 0.4246 0.8787 0.0
H439 H 0.88911 0.43523 0.87425 0.0
H440 H 0.83275 0.32799 0.64218 0.0
H441 H 0.91917 0.33981 0.63315 0.0
H442 H 0.73654 0.3514 0.64996 0.0
H443 H 0.6882 0.36643 0.71087 0.0
C444 C 0.34772 0.3701 0.81722 0.0
C445 C 0.41641 0.3738 0.79345 0.0
C446 C 0.36673 0.39037 0.69545 0.0
C447 C 0.29863 0.38878 0.72064 0.0
N448 N 0.22633 0.38425 0.80983 0.0
N449 N 0.49091 0.39369 0.7129 0.0
C450 C 0.28974 0.38064 0.78277 0.0
C451 C 0.42575 0.38621 0.73378 0.0
N452 N 0.33726 0.35612 0.8726 0.0
N453 N 0.37525 0.39363 0.63398 0.0
H454 H 0.53594 0.39006 0.7378 0.0
H455 H 0.50003 0.40625 0.67278 0.0
H456 H 0.334 0.39569 0.6037 0.0
H457 H 0.42279 0.391 0.61204 0.0
H458 H 0.2885 0.3487 0.88827 0.0
H459 H 0.37745 0.35003 0.90162 0.0
H460 H 0.21817 0.38207 0.85649 0.0
H461 H 0.18307 0.39266 0.78679 0.0
C462 C 0.22287 0.65455 0.19673 0.0
C463 C 0.22848 0.65444 0.26089 0.0
C464 C 0.35039 0.63756 0.25149 0.0
C465 C 0.34734 0.64236 0.18751 0.0
N466 N 0.28193 0.6593 0.09992 0.0
N467 N 0.29424 0.64241 0.35041 0.0
C468 C 0.28367 0.65153 0.1602 0.0
C469 C 0.29139 0.64484 0.28856 0.0
N470 N 0.15875 0.65665 0.17065 0.0
N471 N 0.40881 0.62487 0.27636 0.0
H472 H 0.24964 0.64256 0.37721 0.0
H473 H 0.33994 0.6401 0.37508 0.0
H474 H 0.45232 0.61895 0.25057 0.0
H475 H 0.4131 0.61812 0.32163 0.0
H476 H 0.14984 0.65368 0.12414 0.0
H477 H 0.11337 0.65809 0.19647 0.0
H478 H 0.23934 0.66974 0.07927 0.0
H479 H 0.3251 0.65817 0.07151 0.0
C480 C 1.01236 0.29701 0.85913 0.0
C481 C 1.01829 0.27962 0.80351 0.0
C482 C 0.99021 0.22913 0.85499 0.0
C483 C 0.98705 0.24636 0.9111 0.0
N484 N 0.97179 0.29675 0.96377 0.0
N485 N 0.99256 0.23205 0.74458 0.0
C486 C 0.98951 0.28046 0.91189 0.0
C487 C 0.99955 0.2466 0.80031 0.0
N488 N 1.034 0.3285 0.86281 0.0
N489 N 0.98975 0.19621 0.85424 0.0
H490 H 0.99971 0.2448 0.70424 0.0
H491 H 0.97349 0.20859 0.73841 0.0
H492 H 0.98277 0.1824 0.89316 0.0
H493 H 1.00034 0.18252 0.81546 0.0
H494 H 1.03823 0.34127 0.90376 0.0
H495 H 0.05274 0.34135 0.82561 0.0
H496 H 0.96708 0.32169 0.96593 0.0
H497 H 0.95504 0.28482 1.00291 0.0
C498 C 0.66467 0.79496 0.36661 0.0
C499 C 0.62857 0.78691 0.42088 0.0
C500 C 0.57224 0.74099 0.36832 0.0
C501 C 0.59847 0.75257 0.31237 0.0
N502 N 0.67034 0.78957 0.25628 0.0
N503 N 0.54604 0.7527 0.47396 0.0
C504 C 0.64603 0.77897 0.31107 0.0
C505 C 0.58286 0.7596 0.42229 0.0
N506 N 0.71628 0.81802 0.36859 0.0
N507 N 0.5368 0.71217 0.36929 0.0
H508 H 0.55282 0.76532 0.51486 0.0
H509 H 0.50565 0.73567 0.47554 0.0
H510 H 0.52798 0.69835 0.32999 0.0
H511 H 0.52183 0.70061 0.40918 0.0
H512 H 0.74851 0.82348 0.33192 0.0
H513 H 0.73063 0.82986 0.40897 0.0
H514 H 0.69972 0.81066 0.25086 0.0
H515 H 0.65793 0.77781 0.21537 0.0
C516 C 0.97147 0.8048 0.16097 0.0
C517 C 1.00606 0.79334 0.10808 0.0
C518 C 1.04926 0.74807 0.16551 0.0
C519 C 1.00994 0.75762 0.21696 0.0
N520 N 0.91664 0.78972 0.25606 0.0
N521 N 0.05585 0.74777 0.05593 0.0
C522 C 0.96549 0.78434 0.21233 0.0
C523 C 1.0372 0.76274 0.10896 0.0
N524 N 0.9478 0.83556 0.1639 0.0
N525 N 0.10234 0.72713 0.17117 0.0
H526 H 1.04534 0.75737 0.01325 0.0
H527 H 0.0744 0.72433 0.05463 0.0
H528 H 0.11823 0.71863 0.21306 0.0
H529 H 0.13617 0.72187 0.13549 0.0
H530 H 0.92815 0.84569 0.2038 0.0
H531 H 0.95378 0.85189 0.12852 0.0
H532 H 0.87931 0.80743 0.25227 0.0
H533 H 0.90856 0.77408 0.29236 0.0
C534 C 0.68128 0.26425 0.67509 0.0
C535 C 0.61943 0.2779 0.69771 0.0
C536 C 0.55987 0.26209 0.60324 0.0
C537 C 0.6174 0.24296 0.58643 0.0
N538 N 0.73195 0.22377 0.6096 0.0
N539 N 0.49744 0.2877 0.68576 0.0
C540 C 0.67835 0.24374 0.62284 0.0
C541 C 0.55815 0.27662 0.66212 0.0
N542 N 0.74295 0.27149 0.70319 0.0
N543 N 0.5075 0.26678 0.5625 0.0
H544 H 0.49405 0.2979 0.72917 0.0
H545 H 0.44951 0.28434 0.66439 0.0
H546 H 0.50817 0.25724 0.51836 0.0
H547 H 0.46739 0.28279 0.57024 0.0
H548 H 0.79087 0.26462 0.68586 0.0
H549 H 0.74646 0.28738 0.74026 0.0
H550 H 0.77435 0.22097 0.63838 0.0
H551 H 0.73153 0.20801 0.57234 0.0
C552 C 0.53904 0.75184 0.79462 0.0
C553 C 0.48504 0.77334 0.78191 0.0
C554 C 0.43307 0.76318 0.88212 0.0
C555 C 0.4862 0.74085 0.89417 0.0
N556 N 0.58143 0.70896 0.85792 0.0
N557 N 0.3758 0.79662 0.80752 0.0
C558 C 0.53671 0.73367 0.8491 0.0
C559 C 0.43033 0.77803 0.82392 0.0
N560 N 0.59385 0.74977 0.75535 0.0
N561 N 0.38702 0.77097 0.92704 0.0
H562 H 0.37381 0.8081 0.76552 0.0
H563 H 0.33074 0.79894 0.83323 0.0
H564 H 0.38704 0.76014 0.96968 0.0
H565 H 0.35134 0.78935 0.92356 0.0
H566 H 0.6391 0.73751 0.76501 0.0
H567 H 0.59607 0.7623 0.71444 0.0
H568 H 0.61482 0.70042 0.82444 0.0
H569 H 0.58117 0.69503 0.89719 0.0
C570 C 0.16573 0.25104 0.41924 0.0
C571 C 0.1836 0.28422 0.41651 0.0
C572 C 0.17283 0.28183 0.30531 0.0
C573 C 0.14071 0.25106 0.31023 0.0
N574 N 0.10057 0.20704 0.3721 0.0
N575 N 0.20683 0.33167 0.35698 0.0
C576 C 0.13689 0.23546 0.3671 0.0
C577 C 0.18973 0.29962 0.35928 0.0
N578 N 0.174 0.235 0.4726 0.0
N579 N 0.1854 0.29407 0.24887 0.0
H580 H 0.22118 0.34509 0.3955 0.0
H581 H 0.20413 0.34525 0.3175 0.0
H582 H 0.17212 0.28132 0.20918 0.0
H583 H 0.21366 0.31531 0.24139 0.0
H584 H 0.16679 0.21017 0.47646 0.0
H585 H 0.19486 0.24636 0.51132 0.0
H586 H 0.08941 0.19621 0.41362 0.0
H587 H 0.07723 0.19544 0.33483 0.0
C588 C 0.46767 0.27398 0.1145 0.0
C589 C 0.51082 0.30218 0.11584 0.0
C590 C 0.53977 0.29226 0.22257 0.0
C591 C 0.49447 0.26495 0.22209 0.0
N592 N 0.40464 0.2334 0.17287 0.0
N593 N 0.57336 0.34255 0.17477 0.0
C594 C 0.45492 0.25699 0.16955 0.0
C595 C 0.54201 0.31276 0.17124 0.0
N596 N 0.44177 0.26254 0.06036 0.0
N597 N 0.58377 0.2975 0.27058 0.0
H598 H 0.575 0.35833 0.13808 0.0
H599 H 0.59142 0.35281 0.21541 0.0
H600 H 0.58534 0.2823 0.30801 0.0
H601 H 0.62316 0.31508 0.2707 0.0
H602 H 0.41651 0.24024 0.05553 0.0
H603 H 0.44962 0.27434 0.01919 0.0
H604 H 0.36935 0.2283 0.138 0.0
H605 H 0.39444 0.22082 0.2129 0.0
C606 C 0.16964 0.72653 0.64921 0.0
C607 C 0.13491 0.73542 0.59526 0.0
C608 C 0.08809 0.78278 0.64724 0.0
C609 C 0.12171 0.77369 0.70186 0.0
N610 N 0.21257 0.74374 0.74856 0.0
N611 N 0.08267 0.77739 0.53738 0.0
C612 C 0.16844 0.74767 0.70072 0.0
C613 C 0.10144 0.76544 0.59254 0.0
N614 N 0.20124 0.69744 0.65209 0.0
N615 N 1.04001 0.80647 0.64789 0.0
H616 H 0.09392 0.76554 0.49659 0.0
H617 H 0.0636 0.80047 0.53176 0.0
H618 H 1.02819 0.81991 0.68644 0.0
H619 H 1.0078 0.81114 0.61106 0.0
H620 H 0.22067 0.68808 0.69232 0.0
H621 H 0.20448 0.68185 0.61469 0.0
H622 H 0.25192 0.72688 0.74857 0.0
H623 H 0.21443 0.7598 0.78543 0.0
loop_
_geom_bond_atom_site_label_1
_geom_bond_atom_site_label_2
_geom_bond_distance
_geom_bond_site_symmetry_2
_ccdc_geom_bond_type
C0 C1 1.351 . S
C0 N3 1.368 . S
C0 H5 0.931 . S
C1 C0 1.351 . S
C1 N2 1.373 . S
C1 H29 0.930 . S
N2 C1 1.373 . S
N2 C4 1.340 1_455 S
N3 C0 1.368 . S
N3 C4 1.321 1_455 S
N3 Co6 2.135 . S
C4 N2 1.340 1_655 S
C4 N3 1.321 1_655 S
C4 H28 0.930 . S
H5 C0 0.931 . S
Co6 N3 2.135 . S
Co6 N9 2.121 1_455 S
Co6 O14 2.055 . S
Co6 O17 2.039 1_455 S
Co6 N20 2.140 . S
C7 O8 1.227 . S
C7 O17 1.265 . S
O8 C7 1.227 . S
N9 Co6 2.121 1_655 S
N9 C11 1.375 . S
N9 C12 1.313 1_655 S
C10 C11 1.338 . S
C10 N13 1.377 1_655 S
C10 H30 0.930 . S
C11 N9 1.375 . S
C11 C10 1.338 . S
C11 H15 0.931 . S
C12 N9 1.313 1_455 S
C12 N13 1.344 . S
C12 H16 0.930 . S
N13 C10 1.377 1_455 S
N13 C12 1.344 . S
O14 Co6 2.055 . S
O14 C18 1.253 . S
H15 C11 0.931 . S
H16 C12 0.930 . S
O17 Co6 2.039 1_655 S
O17 C7 1.265 . S
C18 O14 1.253 . S
C18 O19 1.227 . S
O19 C18 1.227 . S
N20 Co6 2.140 . S
N20 C23 1.346 1_455 S
N20 C24 1.345 . S
C21 C22 1.387 1_455 S
C21 C25 1.391 . S
C22 C21 1.387 1_655 S
C22 C23 1.369 . S
C22 H31 0.929 1_554 S
C23 N20 1.346 1_655 S
C23 C22 1.369 . S
C23 H26 0.928 . S
C24 N20 1.345 . S
C24 C25 1.371 . S
C24 H27 0.931 . S
C25 C21 1.391 . S
C25 C24 1.371 . S
C25 H32 0.930 . S
H26 C23 0.928 . S
H27 C24 0.931 . S
H28 C4 0.930 . S
H29 C1 0.930 . S
H30 C10 0.930 . S
H31 C22 0.929 1_556 S
H32 C25 0.930 . S
C33 C34 1.351 . S
C33 N36 1.368 . S
C33 H38 0.931 . S
C34 C33 1.351 . S
C34 N35 1.373 . S
C34 H62 0.930 . S
N35 C34 1.373 . S
N35 C37 1.340 . S
N36 C33 1.368 . S
N36 C37 1.321 . S
N36 Co39 2.135 . S
C37 N35 1.340 . S
C37 N36 1.321 . S
C37 H61 0.930 . S
H38 C33 0.931 . S
Co39 N36 2.135 . S
Co39 N42 2.121 . S
Co39 O47 2.055 . S
Co39 O50 2.039 . S
Co39 N53 2.140 . S
C40 O41 1.227 . S
C40 O50 1.265 . S
O41 C40 1.227 . S
N42 Co39 2.121 . S
N42 C44 1.375 . S
N42 C45 1.313 . S
C43 C44 1.338 . S
C43 N46 1.377 . S
C43 H63 0.930 . S
C44 N42 1.375 . S
C44 C43 1.338 . S
C44 H48 0.931 . S
C45 N42 1.313 . S
C45 N46 1.344 . S
C45 H49 0.930 . S
N46 C43 1.377 . S
N46 C45 1.344 . S
O47 Co39 2.055 . S
O47 C51 1.253 . S
H48 C44 0.931 . S
H49 C45 0.930 . S
O50 Co39 2.039 . S
O50 C40 1.265 . S
C51 O47 1.253 . S
C51 O52 1.227 . S
O52 C51 1.227 . S
N53 Co39 2.140 . S
N53 C56 1.346 . S
N53 C57 1.345 . S
C54 C55 1.387 . S
C54 C58 1.391 . S
C55 C54 1.387 . S
C55 C56 1.369 . S
C55 H64 0.929 . S
C56 N53 1.346 . S
C56 C55 1.369 . S
C56 H59 0.928 . S
C57 N53 1.345 . S
C57 C58 1.371 . S
C57 H60 0.931 . S
C58 C54 1.391 . S
C58 C57 1.371 . S
C58 H65 0.930 . S
H59 C56 0.928 . S
H60 C57 0.931 . S
H61 C37 0.930 . S
H62 C34 0.930 . S
H63 C43 0.930 . S
H64 C55 0.929 . S
H65 C58 0.930 . S
C66 C67 1.351 . S
C66 N69 1.368 . S
C66 H71 0.931 . S
C67 C66 1.351 . S
C67 N68 1.373 . S
C67 H95 0.930 . S
N68 C67 1.373 . S
N68 C70 1.340 1_455 S
N69 C66 1.368 . S
N69 C70 1.321 1_455 S
N69 Co72 2.135 . S
C70 N68 1.340 1_655 S
C70 N69 1.321 1_655 S
C70 H94 0.930 . S
H71 C66 0.931 . S
Co72 N69 2.135 . S
Co72 N75 2.121 1_455 S
Co72 O80 2.055 . S
Co72 O83 2.039 1_455 S
Co72 N86 2.140 . S
C73 O74 1.227 . S
C73 O83 1.265 . S
O74 C73 1.227 . S
N75 Co72 2.121 1_655 S
N75 C77 1.375 . S
N75 C78 1.313 1_655 S
C76 C77 1.338 . S
C76 N79 1.377 1_655 S
C76 H96 0.930 . S
C77 N75 1.375 . S
C77 C76 1.338 . S
C77 H81 0.931 . S
C78 N75 1.313 1_455 S
C78 N79 1.344 . S
C78 H82 0.930 . S
N79 C76 1.377 1_455 S
N79 C78 1.344 . S
O80 Co72 2.055 . S
O80 C84 1.253 . S
H81 C77 0.931 . S
H82 C78 0.930 . S
O83 Co72 2.039 1_655 S
O83 C73 1.265 . S
C84 O80 1.253 . S
C84 O85 1.227 . S
O85 C84 1.227 . S
N86 Co72 2.140 . S
N86 C89 1.346 1_455 S
N86 C90 1.345 . S
C87 C88 1.387 1_455 S
C87 C91 1.391 . S
C88 C87 1.387 1_655 S
C88 C89 1.369 . S
C88 H97 0.929 1_556 S
C89 N86 1.346 1_655 S
C89 C88 1.369 . S
C89 H92 0.928 . S
C90 N86 1.345 . S
C90 C91 1.371 . S
C90 H93 0.931 . S
C91 C87 1.391 . S
C91 C90 1.371 . S
C91 H98 0.930 . S
H92 C89 0.928 . S
H93 C90 0.931 . S
H94 C70 0.930 . S
H95 C67 0.930 . S
H96 C76 0.930 . S
H97 C88 0.929 1_554 S
H98 C91 0.930 . S
C99 C100 1.351 . S
C99 N102 1.368 . S
C99 H104 0.931 . S
C100 C99 1.351 . S
C100 N101 1.373 . S
C100 H128 0.930 . S
N101 C100 1.373 . S
N101 C103 1.340 . S
N102 C99 1.368 . S
N102 C103 1.321 . S
N102 Co105 2.135 . S
C103 N101 1.340 . S
C103 N102 1.321 . S
C103 H127 0.930 . S
H104 C99 0.931 . S
Co105 N102 2.135 . S
Co105 N108 2.121 . S
Co105 O113 2.055 . S
Co105 O116 2.039 . S
Co105 N119 2.140 . S
C106 O107 1.227 . S
C106 O116 1.265 . S
O107 C106 1.227 . S
N108 Co105 2.121 . S
N108 C110 1.375 . S
N108 C111 1.313 . S
C109 C110 1.338 . S
C109 N112 1.377 . S
C109 H129 0.930 . S
C110 N108 1.375 . S
C110 C109 1.338 . S
C110 H114 0.931 . S
C111 N108 1.313 . S
C111 N112 1.344 . S
C111 H115 0.930 . S
N112 C109 1.377 . S
N112 C111 1.344 . S
O113 Co105 2.055 . S
O113 C117 1.253 . S
H114 C110 0.931 . S
H115 C111 0.930 . S
O116 Co105 2.039 . S
O116 C106 1.265 . S
C117 O113 1.253 . S
C117 O118 1.227 . S
O118 C117 1.227 . S
N119 Co105 2.140 . S
N119 C122 1.346 . S
N119 C123 1.345 . S
C120 C121 1.387 . S
C120 C124 1.391 . S
C121 C120 1.387 . S
C121 C122 1.369 . S
C121 H130 0.929 . S
C122 N119 1.346 . S
C122 C121 1.369 . S
C122 H125 0.928 . S
C123 N119 1.345 . S
C123 C124 1.371 . S
C123 H126 0.931 . S
C124 C120 1.391 . S
C124 C123 1.371 . S
C124 H131 0.930 . S
H125 C122 0.928 . S
H126 C123 0.931 . S
H127 C103 0.930 . S
H128 C100 0.930 . S
H129 C109 0.930 . S
H130 C121 0.929 . S
H131 C124 0.930 . S
C132 C133 1.351 . S
C132 N135 1.368 . S
C132 H137 0.931 . S
C133 C132 1.351 . S
C133 N134 1.373 . S
C133 H161 0.930 . S
N134 C133 1.373 . S
N134 C136 1.340 . S
N135 C132 1.368 . S
N135 C136 1.321 . S
N135 Co138 2.135 . S
C136 N134 1.340 . S
C136 N135 1.321 . S
C136 H160 0.930 . S
H137 C132 0.931 . S
Co138 N135 2.135 . S
Co138 N141 2.121 . S
Co138 O146 2.055 . S
Co138 O149 2.039 . S
Co138 N152 2.140 . S
C139 O140 1.227 . S
C139 O149 1.265 . S
O140 C139 1.227 . S
N141 Co138 2.121 . S
N141 C143 1.375 . S
N141 C144 1.313 . S
C142 C143 1.338 . S
C142 N145 1.377 . S
C142 H162 0.930 . S
C143 N141 1.375 . S
C143 C142 1.338 . S
C143 H147 0.931 . S
C144 N141 1.313 . S
C144 N145 1.344 . S
C144 H148 0.930 . S
N145 C142 1.377 . S
N145 C144 1.344 . S
O146 Co138 2.055 . S
O146 C150 1.253 . S
H147 C143 0.931 . S
H148 C144 0.930 . S
O149 Co138 2.039 . S
O149 C139 1.265 . S
C150 O146 1.253 . S
C150 O151 1.227 . S
O151 C150 1.227 . S
N152 Co138 2.140 . S
N152 C155 1.346 . S
N152 C156 1.345 . S
C153 C154 1.387 . S
C153 C157 1.391 . S
C154 C153 1.387 . S
C154 C155 1.369 . S
C154 H163 0.929 1_554 S
C155 N152 1.346 . S
C155 C154 1.369 . S
C155 H158 0.928 . S
C156 N152 1.345 . S
C156 C157 1.371 . S
C156 H159 0.931 . S
C157 C153 1.391 . S
C157 C156 1.371 . S
C157 H164 0.930 . S
H158 C155 0.928 . S
H159 C156 0.931 . S
H160 C136 0.930 . S
H161 C133 0.930 . S
H162 C142 0.930 . S
H163 C154 0.929 1_556 S
H164 C157 0.930 . S
C165 C166 1.351 . S
C165 N168 1.368 1_655 S
C165 H170 0.931 . S
C166 C165 1.351 . S
C166 N167 1.373 1_655 S
C166 H194 0.930 . S
N167 C166 1.373 1_455 S
N167 C169 1.340 . S
N168 C165 1.368 1_455 S
N168 C169 1.321 . S
N168 Co171 2.135 . S
C169 N167 1.340 . S
C169 N168 1.321 . S
C169 H193 0.930 . S
H170 C165 0.931 . S
Co171 N168 2.135 . S
Co171 N174 2.121 . S
Co171 O179 2.055 1_455 S
Co171 O182 2.039 . S
Co171 N185 2.140 . S
C172 O173 1.227 . S
C172 O182 1.265 . S
O173 C172 1.227 . S
N174 Co171 2.121 . S
N174 C176 1.375 . S
N174 C177 1.313 1_455 S
C175 C176 1.338 . S
C175 N178 1.377 . S
C175 H195 0.930 . S
C176 N174 1.375 . S
C176 C175 1.338 . S
C176 H180 0.931 . S
C177 N174 1.313 1_655 S
C177 N178 1.344 1_655 S
C177 H181 0.930 . S
N178 C175 1.377 . S
N178 C177 1.344 1_455 S
O179 Co171 2.055 1_655 S
O179 C183 1.253 . S
H180 C176 0.931 . S
H181 C177 0.930 . S
O182 Co171 2.039 . S
O182 C172 1.265 . S
C183 O179 1.253 . S
C183 O184 1.227 . S
O184 C183 1.227 . S
N185 Co171 2.140 . S
N185 C188 1.346 . S
N185 C189 1.345 1_455 S
C186 C187 1.387 . S
C186 C190 1.391 1_455 S
C187 C186 1.387 . S
C187 C188 1.369 . S
C187 H196 0.929 . S
C188 N185 1.346 . S
C188 C187 1.369 . S
C188 H191 0.928 . S
C189 N185 1.345 1_655 S
C189 C190 1.371 . S
C189 H192 0.931 . S
C190 C186 1.391 1_655 S
C190 C189 1.371 . S
C190 H197 0.930 . S
H191 C188 0.928 . S
H192 C189 0.931 . S
H193 C169 0.930 . S
H194 C166 0.930 . S
H195 C175 0.930 . S
H196 C187 0.929 . S
H197 C190 0.930 . S
C198 C199 1.351 . S
C198 N201 1.368 . S
C198 H203 0.931 . S
C199 C198 1.351 . S
C199 N200 1.373 . S
C199 H227 0.930 . S
N200 C199 1.373 . S
N200 C202 1.340 . S
N201 C198 1.368 . S
N201 C202 1.321 . S
N201 Co204 2.135 . S
C202 N200 1.340 . S
C202 N201 1.321 . S
C202 H226 0.930 . S
H203 C198 0.931 . S
Co204 N201 2.135 . S
Co204 N207 2.121 . S
Co204 O212 2.055 . S
Co204 O215 2.039 . S
Co204 N218 2.140 . S
C205 O206 1.227 . S
C205 O215 1.265 . S
O206 C205 1.227 . S
N207 Co204 2.121 . S
N207 C209 1.375 . S
N207 C210 1.313 . S
C208 C209 1.338 . S
C208 N211 1.377 . S
C208 H228 0.930 . S
C209 N207 1.375 . S
C209 C208 1.338 . S
C209 H213 0.931 . S
C210 N207 1.313 . S
C210 N211 1.344 . S
C210 H214 0.930 . S
N211 C208 1.377 . S
N211 C210 1.344 . S
O212 Co204 2.055 . S
O212 C216 1.253 . S
H213 C209 0.931 . S
H214 C210 0.930 . S
O215 Co204 2.039 . S
O215 C205 1.265 . S
C216 O212 1.253 . S
C216 O217 1.227 . S
O217 C216 1.227 . S
N218 Co204 2.140 . S
N218 C221 1.346 . S
N218 C222 1.345 . S
C219 C220 1.387 . S
C219 C223 1.391 . S
C220 C219 1.387 . S
C220 C221 1.369 . S
C220 H229 0.929 1_556 S
C221 N218 1.346 . S
C221 C220 1.369 . S
C221 H224 0.928 . S
C222 N218 1.345 . S
C222 C223 1.371 . S
C222 H225 0.931 . S
C223 C219 1.391 . S
C223 C222 1.371 . S
C223 H230 0.930 . S
H224 C221 0.928 . S
H225 C222 0.931 . S
H226 C202 0.930 . S
H227 C199 0.930 . S
H228 C208 0.930 . S
H229 C220 0.929 1_554 S
H230 C223 0.930 . S
C231 C232 1.351 . S
C231 N234 1.368 1_655 S
C231 H236 0.931 . S
C232 C231 1.351 . S
C232 N233 1.373 1_655 S
C232 H260 0.930 . S
N233 C232 1.373 1_455 S
N233 C235 1.340 . S
N234 C231 1.368 1_455 S
N234 C235 1.321 . S
N234 Co237 2.135 . S
C235 N233 1.340 . S
C235 N234 1.321 . S
C235 H259 0.930 . S
H236 C231 0.931 . S
Co237 N234 2.135 . S
Co237 N240 2.121 . S
Co237 O245 2.055 1_455 S
Co237 O248 2.039 . S
Co237 N251 2.140 . S
C238 O239 1.227 . S
C238 O248 1.265 . S
O239 C238 1.227 . S
N240 Co237 2.121 . S
N240 C242 1.375 . S
N240 C243 1.313 1_455 S
C241 C242 1.338 . S
C241 N244 1.377 . S
C241 H261 0.930 . S
C242 N240 1.375 . S
C242 C241 1.338 . S
C242 H246 0.931 . S
C243 N240 1.313 1_655 S
C243 N244 1.344 1_655 S
C243 H247 0.930 . S
N244 C241 1.377 . S
N244 C243 1.344 1_455 S
O245 Co237 2.055 1_655 S
O245 C249 1.253 . S
H246 C242 0.931 . S
H247 C243 0.930 . S
O248 Co237 2.039 . S
O248 C238 1.265 . S
C249 O245 1.253 . S
C249 O250 1.227 . S
O250 C249 1.227 . S
N251 Co237 2.140 . S
N251 C254 1.346 . S
N251 C255 1.345 1_455 S
C252 C253 1.387 . S
C252 C256 1.391 1_455 S
C253 C252 1.387 . S
C253 C254 1.369 . S
C253 H262 0.929 . S
C254 N251 1.346 . S
C254 C253 1.369 . S
C254 H257 0.928 . S
C255 N251 1.345 1_655 S
C255 C256 1.371 . S
C255 H258 0.931 . S
C256 C252 1.391 1_655 S
C256 C255 1.371 . S
C256 H263 0.930 . S
H257 C254 0.928 . S
H258 C255 0.931 . S
H259 C235 0.930 . S
H260 C232 0.930 . S
H261 C241 0.930 . S
H262 C253 0.929 . S
H263 C256 0.930 . S
C264 C265 1.363 1_455 S
C264 C270 1.379 1_566 S
C264 N272 1.356 . S
C265 C264 1.363 1_655 S
C265 C271 1.363 . S
C266 C267 1.363 . S
C266 C271 1.379 1_544 S
C266 N273 1.356 . S
C267 C266 1.363 . S
C267 C270 1.363 1_655 S
N268 C270 1.356 . S
N268 H280 0.984 1_554 S
N268 H281 0.985 . S
N269 C271 1.356 . S
N269 H274 0.984 . S
N269 H275 0.985 1_556 S
C270 C264 1.379 1_544 S
C270 C267 1.363 1_455 S
C270 N268 1.356 . S
C271 C265 1.363 . S
C271 C266 1.379 1_566 S
C271 N269 1.356 . S
N272 C264 1.356 . S
N272 H278 0.984 . S
N272 H279 0.984 . S
N273 C266 1.356 . S
N273 H276 0.984 . S
N273 H277 0.985 . S
H274 N269 0.984 . S
H275 N269 0.985 1_554 S
H276 N273 0.984 . S
H277 N273 0.985 . S
H278 N272 0.984 . S
H279 N272 0.984 . S
H280 N268 0.984 1_556 S
H281 N268 0.985 . S
C282 C283 1.363 . S
C282 C288 1.379 1_545 S
C282 N290 1.356 . S
C283 C282 1.363 . S
C283 C289 1.363 . S
C284 C285 1.363 . S
C284 C289 1.379 1_565 S
C284 N291 1.356 . S
C285 C284 1.363 . S
C285 C288 1.363 . S
N286 C288 1.356 . S
N286 H298 0.984 1_565 S
N286 H299 0.985 . S
N287 C289 1.356 . S
N287 H292 0.984 . S
N287 H293 0.985 1_545 S
C288 C282 1.379 1_565 S
C288 C285 1.363 . S
C288 N286 1.356 . S
C289 C283 1.363 . S
C289 C284 1.379 1_545 S
C289 N287 1.356 . S
N290 C282 1.356 . S
N290 H296 0.984 . S
N290 H297 0.984 . S
N291 C284 1.356 . S
N291 H294 0.984 . S
N291 H295 0.985 . S
H292 N287 0.984 . S
H293 N287 0.985 1_565 S
H294 N291 0.984 . S
H295 N291 0.985 . S
H296 N290 0.984 . S
H297 N290 0.984 . S
H298 N286 0.984 1_545 S
H299 N286 0.985 . S
C300 C301 1.363 1_556 S
C300 C306 1.379 . S
C300 N308 1.356 . S
C301 C300 1.363 1_554 S
C301 C307 1.363 . S
C302 C303 1.363 1_554 S
C302 C307 1.379 . S
C302 N309 1.356 . S
C303 C302 1.363 1_556 S
C303 C306 1.363 . S
N304 C306 1.356 . S
N304 H316 0.984 . S
N304 H317 0.985 . S
N305 C307 1.356 . S
N305 H310 0.984 . S
N305 H311 0.985 . S
C306 C300 1.379 . S
C306 C303 1.363 . S
C306 N304 1.356 . S
C307 C301 1.363 . S
C307 C302 1.379 . S
C307 N305 1.356 . S
N308 C300 1.356 . S
N308 H314 0.984 . S
N308 H315 0.984 . S
N309 C302 1.356 . S
N309 H312 0.984 . S
N309 H313 0.985 . S
H310 N305 0.984 . S
H311 N305 0.985 . S
H312 N309 0.984 . S
H313 N309 0.985 . S
H314 N308 0.984 . S
H315 N308 0.984 . S
H316 N304 0.984 . S
H317 N304 0.985 . S
C318 C319 1.363 . S
C318 C324 1.379 . S
C318 N326 1.356 . S
C319 C318 1.363 . S
C319 C325 1.363 . S
C320 C321 1.363 . S
C320 C325 1.379 . S
C320 N327 1.356 . S
C321 C320 1.363 . S
C321 C324 1.363 . S
N322 C324 1.356 . S
N322 H334 0.984 . S
N322 H335 0.985 . S
N323 C325 1.356 . S
N323 H328 0.984 . S
N323 H329 0.981 1_455 S
C324 C318 1.379 . S
C324 C321 1.363 . S
C324 N322 1.356 . S
C325 C319 1.363 . S
C325 C320 1.379 . S
C325 N323 1.356 . S
N326 C318 1.356 . S
N326 H332 0.984 . S
N326 H333 0.984 . S
N327 C320 1.356 . S
N327 H330 0.984 . S
N327 H331 0.981 1_455 S
H328 N323 0.984 . S
H329 N323 0.981 1_655 S
H330 N327 0.984 . S
H331 N327 0.981 1_655 S
H332 N326 0.984 . S
H333 N326 0.984 . S
H334 N322 0.984 . S
H335 N322 0.985 . S
C336 C337 1.363 . S
C336 C342 1.379 . S
C336 N344 1.356 . S
C337 C336 1.363 . S
C337 C343 1.363 . S
C338 C339 1.363 . S
C338 C343 1.379 . S
C338 N345 1.356 . S
C339 C338 1.363 . S
C339 C342 1.363 . S
N340 C342 1.356 . S
N340 H352 0.984 . S
N340 H353 0.985 . S
N341 C343 1.356 . S
N341 H346 0.984 . S
N341 H347 0.985 . S
C342 C336 1.379 . S
C342 C339 1.363 . S
C342 N340 1.356 . S
C343 C337 1.363 . S
C343 C338 1.379 . S
C343 N341 1.356 . S
N344 C336 1.356 . S
N344 H350 0.984 . S
N344 H351 0.984 . S
N345 C338 1.356 . S
N345 H348 0.984 . S
N345 H349 0.985 . S
H346 N341 0.984 . S
H347 N341 0.985 . S
H348 N345 0.984 . S
H349 N345 0.985 . S
H350 N344 0.984 . S
H351 N344 0.984 . S
H352 N340 0.984 . S
H353 N340 0.985 . S
C354 C355 1.363 . S
C354 C360 1.379 . S
C354 N362 1.356 . S
C355 C354 1.363 . S
C355 C361 1.363 . S
C356 C357 1.363 . S
C356 C361 1.379 . S
C356 N363 1.356 . S
C357 C356 1.363 . S
C357 C360 1.363 . S
N358 C360 1.356 . S
N358 H370 0.984 . S
N358 H371 0.985 . S
N359 C361 1.356 . S
N359 H364 0.984 . S
N359 H365 0.985 . S
C360 C354 1.379 . S
C360 C357 1.363 . S
C360 N358 1.356 . S
C361 C355 1.363 . S
C361 C356 1.379 . S
C361 N359 1.356 . S
N362 C354 1.356 . S
N362 H368 0.984 . S
N362 H369 0.984 . S
N363 C356 1.356 . S
N363 H366 0.984 . S
N363 H367 0.985 . S
H364 N359 0.984 . S
H365 N359 0.985 . S
H366 N363 0.984 . S
H367 N363 0.985 . S
H368 N362 0.984 . S
H369 N362 0.984 . S
H370 N358 0.984 . S
H371 N358 0.985 . S
C372 C373 1.363 . S
C372 C378 1.379 . S
C372 N380 1.356 . S
C373 C372 1.363 . S
C373 C379 1.363 . S
C374 C375 1.363 . S
C374 C379 1.379 . S
C374 N381 1.356 . S
C375 C374 1.363 . S
C375 C378 1.363 . S
N376 C378 1.356 . S
N376 H388 0.984 . S
N376 H389 0.985 . S
N377 C379 1.356 . S
N377 H382 0.984 . S
N377 H383 0.985 . S
C378 C372 1.379 . S
C378 C375 1.363 . S
C378 N376 1.356 . S
C379 C373 1.363 . S
C379 C374 1.379 . S
C379 N377 1.356 . S
N380 C372 1.356 . S
N380 H386 0.984 . S
N380 H387 0.984 . S
N381 C374 1.356 . S
N381 H384 0.984 . S
N381 H385 0.985 . S
H382 N377 0.984 . S
H383 N377 0.985 . S
H384 N381 0.984 . S
H385 N381 0.985 . S
H386 N380 0.984 . S
H387 N380 0.984 . S
H388 N376 0.984 . S
H389 N376 0.985 . S
C390 C391 1.363 . S
C390 C396 1.379 . S
C390 N398 1.356 . S
C391 C390 1.363 . S
C391 C397 1.363 . S
C392 C393 1.363 . S
C392 C397 1.379 . S
C392 N399 1.356 . S
C393 C392 1.363 . S
C393 C396 1.363 . S
N394 C396 1.356 . S
N394 H406 0.984 . S
N394 H407 0.985 . S
N395 C397 1.356 . S
N395 H400 0.984 . S
N395 H401 0.985 . S
C396 C390 1.379 . S
C396 C393 1.363 . S
C396 N394 1.356 . S
C397 C391 1.363 . S
C397 C392 1.379 . S
C397 N395 1.356 . S
N398 C390 1.356 . S
N398 H404 0.984 . S
N398 H405 0.984 . S
N399 C392 1.356 . S
N399 H402 0.984 . S
N399 H403 0.985 . S
H400 N395 0.984 . S
H401 N395 0.985 . S
H402 N399 0.984 . S
H403 N399 0.985 . S
H404 N398 0.984 . S
H405 N398 0.984 . S
H406 N394 0.984 . S
H407 N394 0.985 . S
C408 C409 1.363 . S
C408 C414 1.379 . S
C408 N416 1.356 . S
C409 C408 1.363 . S
C409 C415 1.363 . S
C410 C411 1.363 . S
C410 C415 1.379 . S
C410 N417 1.356 . S
C411 C410 1.363 . S
C411 C414 1.363 . S
N412 C414 1.356 . S
N412 H424 0.984 . S
N412 H425 0.985 . S
N413 C415 1.356 . S
N413 H418 0.984 . S
N413 H419 0.985 . S
C414 C408 1.379 . S
C414 C411 1.363 . S
C414 N412 1.356 . S
C415 C409 1.363 . S
C415 C410 1.379 . S
C415 N413 1.356 . S
N416 C408 1.356 . S
N416 H422 0.984 . S
N416 H423 0.984 . S
N417 C410 1.356 . S
N417 H420 0.984 . S
N417 H421 0.985 . S
H418 N413 0.984 . S
H419 N413 0.985 . S
H420 N417 0.984 . S
H421 N417 0.985 . S
H422 N416 0.984 . S
H423 N416 0.984 . S
H424 N412 0.984 . S
H425 N412 0.985 . S
C426 C427 1.363 . S
C426 C432 1.379 . S
C426 N434 1.356 . S
C427 C426 1.363 . S
C427 C433 1.363 . S
C428 C429 1.363 . S
C428 C433 1.379 . S
C428 N435 1.356 . S
C429 C428 1.363 . S
C429 C432 1.363 . S
N430 C432 1.356 . S
N430 H442 0.984 . S
N430 H443 0.985 . S
N431 C433 1.356 . S
N431 H436 0.984 . S
N431 H437 0.985 . S
C432 C426 1.379 . S
C432 C429 1.363 . S
C432 N430 1.356 . S
C433 C427 1.363 . S
C433 C428 1.379 . S
C433 N431 1.356 . S
N434 C426 1.356 . S
N434 H440 0.984 . S
N434 H441 0.984 . S
N435 C428 1.356 . S
N435 H438 0.984 . S
N435 H439 0.985 . S
H436 N431 0.984 . S
H437 N431 0.985 . S
H438 N435 0.984 . S
H439 N435 0.985 . S
H440 N434 0.984 . S
H441 N434 0.984 . S
H442 N430 0.984 . S
H443 N430 0.985 . S
C444 C445 1.363 . S
C444 C450 1.379 . S
C444 N452 1.356 . S
C445 C444 1.363 . S
C445 C451 1.363 . S
C446 C447 1.363 . S
C446 C451 1.379 . S
C446 N453 1.356 . S
C447 C446 1.363 . S
C447 C450 1.363 . S
N448 C450 1.356 . S
N448 H460 0.984 . S
N448 H461 0.985 . S
N449 C451 1.356 . S
N449 H454 0.984 . S
N449 H455 0.985 . S
C450 C444 1.379 . S
C450 C447 1.363 . S
C450 N448 1.356 . S
C451 C445 1.363 . S
C451 C446 1.379 . S
C451 N449 1.356 . S
N452 C444 1.356 . S
N452 H458 0.984 . S
N452 H459 0.984 . S
N453 C446 1.356 . S
N453 H456 0.984 . S
N453 H457 0.985 . S
H454 N449 0.984 . S
H455 N449 0.985 . S
H456 N453 0.984 . S
H457 N453 0.985 . S
H458 N452 0.984 . S
H459 N452 0.984 . S
H460 N448 0.984 . S
H461 N448 0.985 . S
C462 C463 1.363 . S
C462 C468 1.379 . S
C462 N470 1.356 . S
C463 C462 1.363 . S
C463 C469 1.363 . S
C464 C465 1.363 . S
C464 C469 1.379 . S
C464 N471 1.356 . S
C465 C464 1.363 . S
C465 C468 1.363 . S
N466 C468 1.356 . S
N466 H478 0.984 . S
N466 H479 0.985 . S
N467 C469 1.356 . S
N467 H472 0.984 . S
N467 H473 0.985 . S
C468 C462 1.379 . S
C468 C465 1.363 . S
C468 N466 1.356 . S
C469 C463 1.363 . S
C469 C464 1.379 . S
C469 N467 1.356 . S
N470 C462 1.356 . S
N470 H476 0.984 . S
N470 H477 0.984 . S
N471 C464 1.356 . S
N471 H474 0.984 . S
N471 H475 0.985 . S
H472 N467 0.984 . S
H473 N467 0.985 . S
H474 N471 0.984 . S
H475 N471 0.985 . S
H476 N470 0.984 . S
H477 N470 0.984 . S
H478 N466 0.984 . S
H479 N466 0.985 . S
C480 C481 1.362 1_455 S
C480 C486 1.379 . S
C480 N488 1.356 . S
C481 C480 1.362 1_655 S
C481 C487 1.364 . S
C482 C483 1.361 1_655 S
C482 C487 1.379 . S
C482 N489 1.356 . S
C483 C482 1.361 1_455 S
C483 C486 1.366 . S
N484 C486 1.356 1_554 S
N484 H496 0.984 . S
N484 H497 0.985 . S
N485 C487 1.356 . S
N485 H490 0.984 . S
N485 H491 0.985 . S
C486 C480 1.379 . S
C486 C483 1.366 . S
C486 N484 1.356 1_556 S
C487 C481 1.364 . S
C487 C482 1.379 . S
C487 N485 1.356 . S
N488 C480 1.356 . S
N488 H494 0.984 . S
N488 H495 0.984 . S
N489 C482 1.356 . S
N489 H492 0.984 . S
N489 H493 0.985 . S
H490 N485 0.984 . S
H491 N485 0.985 . S
H492 N489 0.984 . S
H493 N489 0.985 . S
H494 N488 0.984 . S
H495 N488 0.984 . S
H496 N484 0.984 . S
H497 N484 0.985 . S
C498 C499 1.363 . S
C498 C504 1.379 . S
C498 N506 1.356 . S
C499 C498 1.363 . S
C499 C505 1.363 . S
C500 C501 1.363 . S
C500 C505 1.379 . S
C500 N507 1.356 . S
C501 C500 1.363 . S
C501 C504 1.363 . S
N502 C504 1.356 . S
N502 H514 0.984 . S
N502 H515 0.985 . S
N503 C505 1.356 . S
N503 H508 0.984 . S
N503 H509 0.985 . S
C504 C498 1.379 . S
C504 C501 1.363 . S
C504 N502 1.356 . S
C505 C499 1.363 . S
C505 C500 1.379 . S
C505 N503 1.356 . S
N506 C498 1.356 . S
N506 H512 0.984 . S
N506 H513 0.984 . S
N507 C500 1.356 . S
N507 H510 0.984 . S
N507 H511 0.985 . S
H508 N503 0.984 . S
H509 N503 0.985 . S
H510 N507 0.984 . S
H511 N507 0.985 . S
H512 N506 0.984 . S
H513 N506 0.984 . S
H514 N502 0.984 . S
H515 N502 0.985 . S
C516 C517 1.373 . S
C516 C522 1.379 . S
C516 N524 1.356 . S
C517 C516 1.373 . S
C517 C523 1.353 1_455 S
C518 C519 1.366 . S
C518 C523 1.379 . S
C518 N525 1.356 . S
C519 C518 1.366 . S
C519 C522 1.360 1_655 S
N520 C522 1.356 . S
N520 H532 0.984 . S
N520 H533 0.985 . S
N521 C523 1.351 1_556 S
N521 H526 0.988 . S
N521 H527 0.986 . S
C522 C516 1.379 . S
C522 C519 1.360 1_455 S
C522 N520 1.356 . S
C523 C517 1.353 1_655 S
C523 C518 1.379 . S
C523 N521 1.351 1_554 S
N524 C516 1.356 . S
N524 H530 0.984 . S
N524 H531 0.984 . S
N525 C518 1.356 . S
N525 H528 0.984 . S
N525 H529 0.985 . S
H526 N521 0.988 . S
H527 N521 0.986 . S
H528 N525 0.984 . S
H529 N525 0.985 . S
H530 N524 0.984 . S
H531 N524 0.984 . S
H532 N520 0.984 . S
H533 N520 0.985 . S
C534 C535 1.363 . S
C534 C540 1.379 . S
C534 N542 1.356 . S
C535 C534 1.363 . S
C535 C541 1.363 . S
C536 C537 1.363 . S
C536 C541 1.379 . S
C536 N543 1.356 . S
C537 C536 1.363 . S
C537 C540 1.363 . S
N538 C540 1.356 . S
N538 H550 0.984 . S
N538 H551 0.985 . S
N539 C541 1.356 . S
N539 H544 0.984 . S
N539 H545 0.985 . S
C540 C534 1.379 . S
C540 C537 1.363 . S
C540 N538 1.356 . S
C541 C535 1.363 . S
C541 C536 1.379 . S
C541 N539 1.356 . S
N542 C534 1.356 . S
N542 H548 0.984 . S
N542 H549 0.984 . S
N543 C536 1.356 . S
N543 H546 0.984 . S
N543 H547 0.985 . S
H544 N539 0.984 . S
H545 N539 0.985 . S
H546 N543 0.984 . S
H547 N543 0.985 . S
H548 N542 0.984 . S
H549 N542 0.984 . S
H550 N538 0.984 . S
H551 N538 0.985 . S
C552 C553 1.363 . S
C552 C558 1.379 . S
C552 N560 1.356 . S
C553 C552 1.363 . S
C553 C559 1.363 . S
C554 C555 1.363 . S
C554 C559 1.379 . S
C554 N561 1.356 . S
C555 C554 1.363 . S
C555 C558 1.363 . S
N556 C558 1.356 . S
N556 H568 0.984 . S
N556 H569 0.985 1_556 S
N557 C559 1.356 . S
N557 H562 0.984 . S
N557 H563 0.985 . S
C558 C552 1.379 . S
C558 C555 1.363 . S
C558 N556 1.356 . S
C559 C553 1.363 . S
C559 C554 1.379 . S
C559 N557 1.356 . S
N560 C552 1.356 . S
N560 H566 0.984 . S
N560 H567 0.984 . S
N561 C554 1.356 . S
N561 H564 0.984 . S
N561 H565 0.985 . S
H562 N557 0.984 . S
H563 N557 0.985 . S
H564 N561 0.984 . S
H565 N561 0.985 . S
H566 N560 0.984 . S
H567 N560 0.984 . S
H568 N556 0.984 . S
H569 N556 0.985 1_554 S
C570 C571 1.363 . S
C570 C576 1.379 . S
C570 N578 1.356 . S
C571 C570 1.363 . S
C571 C577 1.363 1_455 S
C572 C573 1.363 1_655 S
C572 C577 1.379 . S
C572 N579 1.356 . S
C573 C572 1.363 1_455 S
C573 C576 1.363 . S
N574 C576 1.356 . S
N574 H586 0.984 . S
N574 H587 0.985 . S
N575 C577 1.356 . S
N575 H580 0.984 . S
N575 H581 0.985 . S
C576 C570 1.379 . S
C576 C573 1.363 . S
C576 N574 1.356 . S
C577 C571 1.363 1_655 S
C577 C572 1.379 . S
C577 N575 1.356 . S
N578 C570 1.356 . S
N578 H584 0.984 . S
N578 H585 0.984 . S
N579 C572 1.356 . S
N579 H582 0.984 . S
N579 H583 0.985 . S
H580 N575 0.984 . S
H581 N575 0.985 . S
H582 N579 0.984 . S
H583 N579 0.985 . S
H584 N578 0.984 . S
H585 N578 0.984 . S
H586 N574 0.984 . S
H587 N574 0.985 . S
C588 C589 1.363 . S
C588 C594 1.379 . S
C588 N596 1.356 . S
C589 C588 1.363 . S
C589 C595 1.363 . S
C590 C591 1.363 . S
C590 C595 1.379 . S
C590 N597 1.356 . S
C591 C590 1.363 . S
C591 C594 1.363 . S
N592 C594 1.356 . S
N592 H604 0.984 . S
N592 H605 0.985 . S
N593 C595 1.356 . S
N593 H598 0.984 . S
N593 H599 0.985 . S
C594 C588 1.379 . S
C594 C591 1.363 . S
C594 N592 1.356 . S
C595 C589 1.363 . S
C595 C590 1.379 . S
C595 N593 1.356 . S
N596 C588 1.356 . S
N596 H602 0.984 . S
N596 H603 0.984 . S
N597 C590 1.356 . S
N597 H600 0.984 . S
N597 H601 0.985 . S
H598 N593 0.984 . S
H599 N593 0.985 . S
H600 N597 0.984 . S
H601 N597 0.985 . S
H602 N596 0.984 . S
H603 N596 0.984 . S
H604 N592 0.984 . S
H605 N592 0.985 . S
C606 C607 1.363 1_655 S
C606 C612 1.379 . S
C606 N614 1.356 . S
C607 C606 1.363 1_455 S
C607 C613 1.363 . S
C608 C609 1.363 . S
C608 C613 1.379 . S
C608 N615 1.356 . S
C609 C608 1.363 . S
C609 C612 1.363 1_455 S
N610 C612 1.356 . S
N610 H622 0.984 . S
N610 H623 0.985 . S
N611 C613 1.356 . S
N611 H616 0.984 . S
N611 H617 0.985 . S
C612 C606 1.379 . S
C612 C609 1.363 1_655 S
C612 N610 1.356 . S
C613 C607 1.363 . S
C613 C608 1.379 . S
C613 N611 1.356 . S
N614 C606 1.356 . S
N614 H620 0.984 . S
N614 H621 0.984 . S
N615 C608 1.356 . S
N615 H618 0.984 . S
N615 H619 0.985 . S
H616 N611 0.984 . S
H617 N611 0.985 . S
H618 N615 0.984 . S
H619 N615 0.985 . S
H620 N614 0.984 . S
H621 N614 0.984 . S
H622 N610 0.984 . S
H623 N610 0.985 . S
C265 N68 1.413 1_655 S
C267 N2 1.413 1_655 S
C283 N101 1.413 . S
C285 N35 1.413 . S
C301 N134 1.413 . S
C303 N200 1.413 . S
C319 N167 1.413 . S
C321 N233 1.413 . S
C337 C117 1.534 . S
C339 C18 1.534 . S
C355 C51 1.534 . S
C357 C84 1.534 . S
C373 C73 1.348 . S
C375 C40 1.348 . S
C391 C106 1.348 . S
C393 C7 1.348 . S
C409 C249 1.534 . S
C411 C150 1.534 . S
C427 C183 1.534 . S
C429 C216 1.534 . S
C445 C205 1.348 . S
C447 C172 1.348 . S
C463 C238 1.348 . S
C465 C139 1.348 . S
C481 N178 1.487 1_655 S
C483 C21 1.545 1_556 S
C499 C54 1.544 . S
C501 N145 1.488 . S
C517 C87 1.545 1_554 S
C519 N244 1.487 1_655 S
C535 N211 1.488 . S
C537 C120 1.544 . S
C553 N46 1.488 . S
C555 C153 1.544 1_556 S
C571 C186 1.544 . S
C573 N13 1.488 . S
C589 C219 1.544 1_554 S
C591 N112 1.488 . S
C607 C252 1.544 . S
C609 N79 1.488 . S
