# Generated by pormake.
# Topology upb, (4)-cn, num edge types: 1
# Building blocks:
#     Node 0, Type 0, BuildingBlock: KUFVIS_clean_sbu_0, # of connection points: 4
#     Node 1, Type 0, BuildingBlock: KUFVIS_clean_sbu_0, # of connection points: 4
#     Node 2, Type 0, BuildingBlock: KUFVIS_clean_sbu_0, # of connection points: 4
#     Node 3, Type 0, BuildingBlock: KUFVIS_clean_sbu_0, # of connection points: 4
#     Node 4, Type 0, BuildingBlock: KUFVIS_clean_sbu_0, # of connection points: 4
#     Node 5, Type 0, BuildingBlock: KUFVIS_clean_sbu_0, # of connection points: 4
#     Node 6, Type 0, BuildingBlock: KUFVIS_clean_sbu_0, # of connection points: 4
#     Node 7, Type 0, BuildingBlock: KUFVIS_clean_sbu_0, # of connection points: 4
#     Node 8, Type 0, BuildingBlock: KUFVIS_clean_sbu_0, # of connection points: 4
#     Node 9, Type 0, BuildingBlock: KUFVIS_clean_sbu_0, # of connection points: 4
#     Node 10, Type 0, BuildingBlock: KUFVIS_clean_sbu_0, # of connection points: 4
#     Node 11, Type 0, BuildingBlock: KUFVIS_clean_sbu_0, # of connection points: 4
#     Node 12, Type 0, BuildingBlock: KUFVIS_clean_sbu_0, # of connection points: 4
#     Node 13, Type 0, BuildingBlock: KUFVIS_clean_sbu_0, # of connection points: 4
#     Node 14, Type 0, BuildingBlock: KUFVIS_clean_sbu_0, # of connection points: 4
#     Node 15, Type 0, BuildingBlock: KUFVIS_clean_sbu_0, # of connection points: 4
#     Edge 16, Type (0, 0), BuildingBlock: MIFKUJ_clean_linker_0, # of connection points: 2
#     Edge 17, Type (0, 0), BuildingBlock: MIFKUJ_clean_linker_0, # of connection points: 2
#     Edge 18, Type (0, 0), BuildingBlock: MIFKUJ_clean_linker_0, # of connection points: 2
#     Edge 19, Type (0, 0), BuildingBlock: MIFKUJ_clean_linker_0, # of connection points: 2
#     Edge 20, Type (0, 0), BuildingBlock: MIFKUJ_clean_linker_0, # of connection points: 2
#     Edge 21, Type (0, 0), BuildingBlock: MIFKUJ_clean_linker_0, # of connection points: 2
#     Edge 22, Type (0, 0), BuildingBlock: MIFKUJ_clean_linker_0, # of connection points: 2
#     Edge 23, Type (0, 0), BuildingBlock: MIFKUJ_clean_linker_0, # of connection points: 2
#     Edge 24, Type (0, 0), BuildingBlock: MIFKUJ_clean_linker_0, # of connection points: 2
#     Edge 25, Type (0, 0), BuildingBlock: MIFKUJ_clean_linker_0, # of connection points: 2
#     Edge 26, Type (0, 0), BuildingBlock: MIFKUJ_clean_linker_0, # of connection points: 2
#     Edge 27, Type (0, 0), BuildingBlock: MIFKUJ_clean_linker_0, # of connection points: 2
#     Edge 28, Type (0, 0), BuildingBlock: MIFKUJ_clean_linker_0, # of connection points: 2
#     Edge 29, Type (0, 0), BuildingBlock: MIFKUJ_clean_linker_0, # of connection points: 2
#     Edge 30, Type (0, 0), BuildingBlock: MIFKUJ_clean_linker_0, # of connection points: 2
#     Edge 31, Type (0, 0), BuildingBlock: MIFKUJ_clean_linker_0, # of connection points: 2
#     Edge 32, Type (0, 0), BuildingBlock: MIFKUJ_clean_linker_0, # of connection points: 2
#     Edge 33, Type (0, 0), BuildingBlock: MIFKUJ_clean_linker_0, # of connection points: 2
#     Edge 34, Type (0, 0), BuildingBlock: MIFKUJ_clean_linker_0, # of connection points: 2
#     Edge 35, Type (0, 0), BuildingBlock: MIFKUJ_clean_linker_0, # of connection points: 2
#     Edge 36, Type (0, 0), BuildingBlock: MIFKUJ_clean_linker_0, # of connection points: 2
#     Edge 37, Type (0, 0), BuildingBlock: MIFKUJ_clean_linker_0, # of connection points: 2
#     Edge 38, Type (0, 0), BuildingBlock: MIFKUJ_clean_linker_0, # of connection points: 2
#     Edge 39, Type (0, 0), BuildingBlock: MIFKUJ_clean_linker_0, # of connection points: 2
#     Edge 40, Type (0, 0), BuildingBlock: MIFKUJ_clean_linker_0, # of connection points: 2
#     Edge 41, Type (0, 0), BuildingBlock: MIFKUJ_clean_linker_0, # of connection points: 2
#     Edge 42, Type (0, 0), BuildingBlock: MIFKUJ_clean_linker_0, # of connection points: 2
#     Edge 43, Type (0, 0), BuildingBlock: MIFKUJ_clean_linker_0, # of connection points: 2
#     Edge 44, Type (0, 0), BuildingBlock: MIFKUJ_clean_linker_0, # of connection points: 2
#     Edge 45, Type (0, 0), BuildingBlock: MIFKUJ_clean_linker_0, # of connection points: 2
#     Edge 46, Type (0, 0), BuildingBlock: MIFKUJ_clean_linker_0, # of connection points: 2
#     Edge 47, Type (0, 0), BuildingBlock: MIFKUJ_clean_linker_0, # of connection points: 2
# Relax obj value: 0.214
# Max RMSD: 0.079
# Mean RMSD: 0.079
data_MOF--net-upb--node1-KUFVIS_clean_sbu_0--edge1-MIFKUJ_clean_linker_0
_symmetry_space_group_name_H-M    P1
_symmetry_Int_Tables_number       1
_symmetry_cell_setting            triclinic
loop_
_symmetry_equiv_pos_as_xyz
'x, y, z'
_cell_length_a     57.132333
_cell_length_b     57.142143
_cell_length_c     42.449958
_cell_angle_alpha  89.990992
_cell_angle_beta   90.002641
_cell_angle_gamma 90.000496
loop_
_atom_site_label
_atom_site_type_symbol
_atom_site_fract_x
_atom_site_fract_y
_atom_site_fract_z
_atom_type_partial_charge
Mn0 Mn 0.0287 0.21759 0.27897 0.0
Mn1 Mn 0.06939 0.21159 0.336 0.0
C2 C 0.021 0.23093 0.32915 0.0
C3 C 0.99805 0.20111 0.25093 0.0
C4 C 0.07199 0.24809 0.2842 0.0
O5 O 0.05152 0.19389 0.26064 0.0
O6 O 0.07501 0.18791 0.30268 0.0
C7 C 0.05539 0.16529 0.36099 0.0
N8 N 0.05979 0.18844 0.3658 0.0
C9 C 0.0512 0.18495 0.42112 0.0
C10 C 0.04676 0.16104 0.4168 0.0
C11 C 0.04875 0.15121 0.38659 0.0
C12 C 0.05768 0.19814 0.39472 0.0
H13 H 0.05687 0.15769 0.33777 0.0
C14 C 0.0682 0.18328 0.2746 0.0
O15 O 0.01008 0.21831 0.23916 0.0
O16 O 0.00385 0.19359 0.27864 0.0
N17 N 0.06596 0.23347 0.36986 0.0
C18 C 0.06973 0.25703 0.36974 0.0
C19 C 0.06798 0.26964 0.39803 0.0
C20 C 0.06259 0.2579 0.42618 0.0
C21 C 0.05897 0.23363 0.42578 0.0
C22 C 0.06115 0.22196 0.39691 0.0
H23 H 0.07406 0.26615 0.34825 0.0
O24 O 0.00878 0.23855 0.30553 0.0
O25 O 0.03687 0.2154 0.32272 0.0
O26 O 0.05204 0.24422 0.27171 0.0
O27 O 0.08035 0.23613 0.30701 0.0
C28 C 0.05303 0.2206 0.45281 0.0
C29 C 0.04902 0.1963 0.45045 0.0
H30 H 0.04157 0.15011 0.43645 0.0
H31 H 0.04512 0.13282 0.38309 0.0
H32 H 0.07083 0.28836 0.39816 0.0
H33 H 0.06123 0.2677 0.44793 0.0
H34 H 0.05121 0.22914 0.47546 0.0
H35 H 0.04406 0.18655 0.47129 0.0
Mn36 Mn 0.77638 0.03521 0.30095 0.0
Mn37 Mn 0.7818 0.07967 0.35297 0.0
C38 C 0.77142 0.02819 0.35397 0.0
C39 C 0.79444 0.00649 0.27071 0.0
C40 C 0.73805 0.07137 0.31418 0.0
O41 O 0.79226 0.06043 0.27505 0.0
O42 O 0.79592 0.08849 0.3119 0.0
C43 C 0.83338 0.07838 0.35913 0.0
N44 N 0.81179 0.0775 0.37266 0.0
C45 C 0.82852 0.07473 0.42452 0.0
C46 C 0.85095 0.07571 0.41117 0.0
C47 C 0.85339 0.07745 0.37831 0.0
C48 C 0.80925 0.07549 0.40418 0.0
H49 H 0.83534 0.07989 0.33391 0.0
C50 C 0.79887 0.08061 0.28399 0.0
O51 O 0.77395 0.01459 0.26304 0.0
O52 O 0.80416 0.01495 0.29582 0.0
N53 N 0.76921 0.07426 0.39411 0.0
C54 C 0.74635 0.07387 0.40328 0.0
C55 C 0.74089 0.07211 0.43546 0.0
C56 C 0.75894 0.07136 0.4579 0.0
C57 C 0.78232 0.07252 0.44797 0.0
C58 C 0.7867 0.07409 0.41558 0.0
H59 H 0.7324 0.07479 0.38617 0.0
O60 O 0.7634 0.01356 0.33326 0.0
O61 O 0.78293 0.04615 0.34315 0.0
O62 O 0.74517 0.05319 0.29942 0.0
O63 O 0.7505 0.08251 0.33422 0.0
C64 C 0.80145 0.07229 0.46893 0.0
C65 C 0.82453 0.07314 0.4572 0.0
H66 H 0.86642 0.07515 0.42591 0.0
H67 H 0.87063 0.07822 0.36782 0.0
H68 H 0.7228 0.07142 0.44296 0.0
H69 H 0.75466 0.06998 0.48269 0.0
H70 H 0.79861 0.07139 0.49413 0.0
H71 H 0.83908 0.07269 0.47355 0.0
Mn72 Mn 0.96675 0.78514 0.28029 0.0
Mn73 Mn 0.91849 0.78936 0.32603 0.0
C74 C 0.96897 0.77633 0.33327 0.0
C75 C 0.99927 0.80219 0.25681 0.0
C76 C 0.92734 0.74938 0.28092 0.0
O77 O 0.94442 0.80459 0.25343 0.0
O78 O 0.91445 0.8087 0.28769 0.0
C79 C 0.92227 0.8392 0.34428 0.0
N80 N 0.92058 0.81625 0.35259 0.0
C81 C 0.91905 0.82607 0.40765 0.0
C82 C 0.92067 0.84984 0.3997 0.0
C83 C 0.92241 0.85642 0.36788 0.0
C84 C 0.91919 0.80971 0.38312 0.0
H85 H 0.92347 0.8443 0.31982 0.0
C86 C 0.92446 0.81274 0.26128 0.0
O87 O 0.98999 0.78323 0.2455 0.0
O88 O 0.98941 0.81146 0.28136 0.0
N89 N 0.91985 0.77151 0.36412 0.0
C90 C 0.91948 0.74782 0.36784 0.0
C91 C 0.91842 0.73831 0.39831 0.0
C92 C 0.91732 0.75323 0.42457 0.0
C93 C 0.91733 0.77755 0.42012 0.0
C94 C 0.9186 0.78601 0.38922 0.0
H95 H 0.92001 0.73627 0.34772 0.0
O96 O 0.98474 0.76862 0.31389 0.0
O97 O 0.95265 0.78943 0.32124 0.0
O98 O 0.9477 0.75549 0.27191 0.0
O99 O 0.91478 0.76109 0.3001 0.0
C100 C 0.91624 0.79373 0.44511 0.0
C101 C 0.91738 0.81797 0.43892 0.0
H102 H 0.9207 0.86318 0.41783 0.0
H103 H 0.92373 0.87472 0.36157 0.0
H104 H 0.91833 0.71952 0.40154 0.0
H105 H 0.9165 0.74583 0.44804 0.0
H106 H 0.91482 0.78772 0.46924 0.0
H107 H 0.91701 0.8302 0.4584 0.0
Mn108 Mn 0.22845 0.9569 0.28952 0.0
Mn109 Mn 0.24087 0.90709 0.32909 0.0
C110 C 0.2378 0.95895 0.34247 0.0
C111 C 0.20131 0.98327 0.26979 0.0
C112 C 0.27428 0.93072 0.28357 0.0
O113 O 0.21569 0.93135 0.26107 0.0
O114 O 0.22103 0.89971 0.29193 0.0
C115 C 0.19371 0.89323 0.35123 0.0
N116 N 0.21651 0.89833 0.35755 0.0
C117 C 0.21155 0.88873 0.41234 0.0
C118 C 0.18802 0.88327 0.4064 0.0
C119 C 0.17905 0.88561 0.37573 0.0
C120 C 0.22533 0.89612 0.38696 0.0
H121 H 0.18678 0.89494 0.32766 0.0
C122 C 0.21287 0.9097 0.26723 0.0
O123 O 0.22192 0.98114 0.25727 0.0
O124 O 0.1964 0.97005 0.29378 0.0
N125 N 0.25959 0.91159 0.36591 0.0
C126 C 0.28186 0.91989 0.36823 0.0
C127 C 0.29325 0.91952 0.39751 0.0
C128 C 0.28166 0.91048 0.42403 0.0
C129 C 0.25855 0.90255 0.42124 0.0
C130 C 0.2482 0.9031 0.39137 0.0
H131 H 0.29096 0.92647 0.34785 0.0
O132 O 0.23978 0.97717 0.32438 0.0
O133 O 0.23006 0.93991 0.32909 0.0
O134 O 0.26211 0.94876 0.27751 0.0
O135 O 0.26749 0.91403 0.30122 0.0
C136 C 0.24523 0.89448 0.44698 0.0
C137 C 0.22172 0.88767 0.44256 0.0
H138 H 0.17663 0.87751 0.42527 0.0
H139 H 0.16089 0.88152 0.371 0.0
H140 H 0.31105 0.92581 0.39949 0.0
H141 H 0.29065 0.9098 0.44646 0.0
H142 H 0.25277 0.89389 0.47039 0.0
H143 H 0.21151 0.88196 0.46265 0.0
Mn144 Mn 0.03697 0.78471 0.71117 0.0
Mn145 Mn 0.07677 0.79456 0.65423 0.0
C146 C 0.02802 0.7754 0.65961 0.0
C147 C 0.00764 0.80012 0.74267 0.0
C148 C 0.07978 0.7546 0.70127 0.0
O149 O 0.06102 0.80603 0.73202 0.0
O150 O 0.08248 0.8164 0.68973 0.0
C151 C 0.06266 0.84209 0.63408 0.0
N152 N 0.06688 0.81924 0.62696 0.0
C153 C 0.0583 0.82582 0.57217 0.0
C154 C 0.05396 0.84946 0.57888 0.0
C155 C 0.05608 0.8576 0.60999 0.0
C156 C 0.06472 0.81118 0.59716 0.0
H157 H 0.06429 0.84839 0.65798 0.0
C158 C 0.07686 0.81839 0.71884 0.0
O159 O 0.01912 0.78161 0.75147 0.0
O160 O 0.01305 0.80939 0.7158 0.0
N161 N 0.07318 0.77458 0.61835 0.0
C162 C 0.07714 0.75112 0.61605 0.0
C163 C 0.07556 0.74015 0.58654 0.0
C164 C 0.07014 0.75342 0.55966 0.0
C165 C 0.06624 0.77756 0.56256 0.0
C166 C 0.06827 0.78756 0.59256 0.0
H167 H 0.0816 0.74084 0.63652 0.0
O168 O 0.01586 0.76653 0.6825 0.0
O169 O 0.04442 0.78993 0.66764 0.0
O170 O 0.05962 0.75704 0.71378 0.0
O171 O 0.08818 0.76854 0.68061 0.0
C172 C 0.06029 0.79206 0.53693 0.0
C173 C 0.05618 0.81614 0.54176 0.0
H174 H 0.04886 0.86147 0.56037 0.0
H175 H 0.05267 0.8758 0.61536 0.0
H176 H 0.07864 0.72153 0.58448 0.0
H177 H 0.06902 0.74489 0.53694 0.0
H178 H 0.05858 0.78482 0.51345 0.0
H179 H 0.05126 0.82703 0.52195 0.0
Mn180 Mn 0.21906 0.0403 0.71659 0.0
Mn181 Mn 0.22961 0.07785 0.65666 0.0
C182 C 0.22868 0.02615 0.66742 0.0
C183 C 0.19307 0.01756 0.74568 0.0
C184 C 0.26446 0.06793 0.7087 0.0
O185 O 0.20455 0.0704 0.7323 0.0
O186 O 0.21161 0.09391 0.6907 0.0
C187 C 0.18089 0.08509 0.63489 0.0
N188 N 0.20343 0.07885 0.62866 0.0
C189 C 0.19467 0.07301 0.57375 0.0
C190 C 0.1714 0.07952 0.57955 0.0
C191 C 0.16448 0.08552 0.61027 0.0
C192 C 0.21029 0.07307 0.59918 0.0
H193 H 0.17548 0.08968 0.65846 0.0
C194 C 0.20292 0.08998 0.71808 0.0
O195 O 0.21295 0.02421 0.75754 0.0
O196 O 0.18817 0.02468 0.71745 0.0
N197 N 0.24641 0.06471 0.62185 0.0
C198 C 0.26874 0.05637 0.62089 0.0
C199 C 0.27809 0.04858 0.59215 0.0
C200 C 0.26442 0.04949 0.56468 0.0
C201 C 0.24145 0.05803 0.56625 0.0
C202 C 0.23312 0.06571 0.59553 0.0
H203 H 0.27917 0.0553 0.64199 0.0
O204 O 0.23208 0.01341 0.69231 0.0
O205 O 0.21997 0.04691 0.67201 0.0
O206 O 0.25192 0.05356 0.7243 0.0
O207 O 0.25778 0.07786 0.68333 0.0
C208 C 0.22621 0.05843 0.54016 0.0
C209 C 0.20283 0.0659 0.54391 0.0
H210 H 0.15865 0.07972 0.56067 0.0
H211 H 0.14652 0.09045 0.61495 0.0
H212 H 0.29574 0.04174 0.59121 0.0
H213 H 0.2716 0.04321 0.54263 0.0
H214 H 0.23213 0.0525 0.51727 0.0
H215 H 0.19115 0.06567 0.52382 0.0
Mn216 Mn 0.9573 0.22071 0.70439 0.0
Mn217 Mn 0.90986 0.21656 0.65749 0.0
C218 C 0.95927 0.23305 0.65261 0.0
C219 C 0.99085 0.20374 0.72526 0.0
C220 C 0.91589 0.25396 0.7075 0.0
O221 O 0.936 0.19826 0.72846 0.0
O222 O 0.90708 0.194 0.69275 0.0
C223 C 0.91829 0.16903 0.63209 0.0
N224 N 0.91395 0.19218 0.62723 0.0
C225 C 0.91313 0.18678 0.57102 0.0
C226 C 0.91737 0.16284 0.57541 0.0
C227 C 0.9203 0.154 0.60604 0.0
C228 C 0.91185 0.201 0.59781 0.0
H229 H 0.92039 0.16219 0.65565 0.0
C230 C 0.91697 0.18889 0.71895 0.0
O231 O 0.98067 0.22119 0.73933 0.0
O232 O 0.98114 0.19588 0.69977 0.0
N233 N 0.91016 0.23741 0.62221 0.0
C234 C 0.90856 0.26121 0.6219 0.0
C235 C 0.90679 0.273 0.59298 0.0
C236 C 0.90628 0.2602 0.56474 0.0
C237 C 0.90771 0.23572 0.56568 0.0
C238 C 0.90963 0.22494 0.59517 0.0
H239 H 0.9086 0.27114 0.64354 0.0
O240 O 0.97447 0.24044 0.67302 0.0
O241 O 0.94374 0.21839 0.663 0.0
O242 O 0.93658 0.24857 0.71609 0.0
O243 O 0.90424 0.24245 0.68705 0.0
C244 C 0.9075 0.22159 0.5385 0.0
C245 C 0.91058 0.19717 0.54111 0.0
H246 H 0.9188 0.15115 0.55541 0.0
H247 H 0.92413 0.13565 0.60948 0.0
H248 H 0.90569 0.2919 0.59244 0.0
H249 H 0.90491 0.26936 0.54247 0.0
H250 H 0.90563 0.22941 0.51538 0.0
H251 H 0.91122 0.1866 0.51995 0.0
Mn252 Mn 0.77676 0.95522 0.73121 0.0
Mn253 Mn 0.76988 0.91141 0.67907 0.0
C254 C 0.76728 0.96379 0.67962 0.0
C255 C 0.80244 0.98037 0.75682 0.0
C256 C 0.73427 0.92388 0.72948 0.0
O257 O 0.79115 0.92697 0.75319 0.0
O258 O 0.79119 0.90102 0.71324 0.0
C259 C 0.81795 0.90821 0.65335 0.0
N260 N 0.79458 0.91144 0.64871 0.0
C261 C 0.80004 0.91513 0.5927 0.0
C262 C 0.82414 0.91171 0.59686 0.0
C263 C 0.83312 0.90829 0.62731 0.0
C264 C 0.78576 0.91485 0.61951 0.0
H265 H 0.82495 0.90559 0.67673 0.0
C266 C 0.79716 0.90743 0.74105 0.0
O267 O 0.78213 0.97547 0.76896 0.0
O268 O 0.80771 0.97054 0.73026 0.0
N269 N 0.74983 0.91949 0.64457 0.0
C270 C 0.72633 0.92361 0.64469 0.0
C271 C 0.7147 0.92784 0.61611 0.0
C272 C 0.72727 0.9276 0.58768 0.0
C273 C 0.7514 0.92316 0.5881 0.0
C274 C 0.76204 0.91897 0.61729 0.0
H275 H 0.71651 0.92367 0.66641 0.0
O276 O 0.76402 0.97928 0.7015 0.0
O277 O 0.77652 0.94414 0.68856 0.0
O278 O 0.74377 0.94272 0.73921 0.0
O279 O 0.74334 0.91032 0.70889 0.0
C280 C 0.76536 0.92295 0.56073 0.0
C281 C 0.78968 0.91907 0.56305 0.0
H282 H 0.83592 0.91182 0.57687 0.0
H283 H 0.8517 0.9057 0.63061 0.0
H284 H 0.69607 0.93127 0.61599 0.0
H285 H 0.71825 0.93096 0.5657 0.0
H286 H 0.75762 0.92596 0.5378 0.0
H287 H 0.80027 0.91931 0.54189 0.0
Mn288 Mn 0.54531 0.72078 0.77424 0.0
Mn289 Mn 0.5886 0.73306 0.82578 0.0
C290 C 0.53607 0.73043 0.82558 0.0
C291 C 0.52167 0.69318 0.74954 0.0
C292 C 0.57228 0.76637 0.77459 0.0
O293 O 0.57442 0.70801 0.75277 0.0
O294 O 0.60098 0.71286 0.79144 0.0
C295 C 0.59805 0.68583 0.85152 0.0
N296 N 0.59231 0.7087 0.85622 0.0
C297 C 0.59121 0.70327 0.91243 0.0
C298 C 0.5973 0.67971 0.9082 0.0
C299 C 0.60068 0.67095 0.8776 0.0
C300 C 0.58909 0.71734 0.88556 0.0
H301 H 0.60054 0.679 0.82804 0.0
C302 C 0.59476 0.70489 0.76446 0.0
O303 O 0.52568 0.71344 0.73673 0.0
O304 O 0.53179 0.68889 0.77628 0.0
N305 N 0.57871 0.75205 0.86048 0.0
C306 C 0.57055 0.77445 0.86029 0.0
C307 C 0.56488 0.7854 0.8889 0.0
C308 C 0.5678 0.77328 0.91742 0.0
C309 C 0.57637 0.75029 0.91705 0.0
C310 C 0.58184 0.74031 0.88782 0.0
H311 H 0.56822 0.78384 0.83848 0.0
O312 O 0.52051 0.73236 0.80345 0.0
O313 O 0.55651 0.72266 0.81705 0.0
O314 O 0.55515 0.75437 0.76433 0.0
O315 O 0.58623 0.75954 0.79617 0.0
C316 C 0.57899 0.73663 0.94447 0.0
C317 C 0.58644 0.71315 0.94216 0.0
H318 H 0.59912 0.66811 0.92823 0.0
H319 H 0.60522 0.65274 0.87414 0.0
H320 H 0.5582 0.80312 0.88897 0.0
H321 H 0.56315 0.78169 0.93941 0.0
H322 H 0.57485 0.74386 0.96739 0.0
H323 H 0.58792 0.70269 0.96335 0.0
Mn324 Mn 0.27907 0.54443 0.79215 0.0
Mn325 Mn 0.28849 0.59444 0.83221 0.0
C326 C 0.26434 0.5483 0.84261 0.0
C327 C 0.29337 0.50839 0.77597 0.0
C328 C 0.25205 0.58925 0.7805 0.0
O329 O 0.30427 0.56085 0.76653 0.0
O330 O 0.31269 0.59089 0.799 0.0
C331 C 0.33369 0.58255 0.86234 0.0
N332 N 0.31097 0.58954 0.86485 0.0
C333 C 0.31438 0.59343 0.92106 0.0
C334 C 0.33786 0.58645 0.91908 0.0
C335 C 0.34752 0.58089 0.88959 0.0
C336 C 0.30144 0.59472 0.8931 0.0
H337 H 0.34117 0.57828 0.83973 0.0
C338 C 0.31651 0.57849 0.77446 0.0
O339 O 0.27705 0.51898 0.76013 0.0
O340 O 0.30106 0.51855 0.80125 0.0
N341 N 0.26664 0.60007 0.86547 0.0
C342 C 0.24337 0.6051 0.86356 0.0
C343 C 0.23093 0.61047 0.89114 0.0
C344 C 0.24257 0.61095 0.92023 0.0
C345 C 0.26651 0.60569 0.92162 0.0
C346 C 0.27801 0.60047 0.8934 0.0
H347 H 0.23436 0.60503 0.8412 0.0
O348 O 0.25643 0.53223 0.82383 0.0
O349 O 0.28156 0.56089 0.83184 0.0
O350 O 0.25441 0.56732 0.77601 0.0
O351 O 0.26471 0.60109 0.79957 0.0
C352 C 0.27939 0.60529 0.9499 0.0
C353 C 0.30324 0.59896 0.9497 0.0
H354 H 0.34858 0.58515 0.94006 0.0
H355 H 0.3656 0.57537 0.88786 0.0
H356 H 0.21244 0.61437 0.89004 0.0
H357 H 0.23294 0.61541 0.94129 0.0
H358 H 0.27113 0.60974 0.97194 0.0
H359 H 0.31282 0.59835 0.9717 0.0
Mn360 Mn 0.45492 0.27458 0.81031 0.0
Mn361 Mn 0.41088 0.27523 0.86337 0.0
C362 C 0.46226 0.26449 0.86201 0.0
C363 C 0.48389 0.29423 0.78271 0.0
C364 C 0.4185 0.23561 0.81724 0.0
O365 O 0.42978 0.29328 0.78788 0.0
O366 O 0.40185 0.29336 0.8253 0.0
C367 C 0.41266 0.32576 0.87874 0.0
N368 N 0.41332 0.303 0.88823 0.0
C369 C 0.41735 0.31436 0.94253 0.0
C370 C 0.41655 0.33793 0.93338 0.0
C371 C 0.41426 0.34365 0.90132 0.0
C372 C 0.41566 0.29731 0.91895 0.0
H373 H 0.41095 0.33023 0.85413 0.0
C374 C 0.40969 0.29913 0.79816 0.0
O375 O 0.4751 0.27485 0.772 0.0
O376 O 0.47591 0.30216 0.80922 0.0
N377 N 0.41677 0.25868 0.90163 0.0
C378 C 0.41822 0.23514 0.90635 0.0
C379 C 0.42067 0.22649 0.9371 0.0
C380 C 0.42137 0.24213 0.96256 0.0
C381 C 0.41991 0.26625 0.95717 0.0
C382 C 0.4172 0.27383 0.92607 0.0
H383 H 0.41752 0.22306 0.88683 0.0
O384 O 0.47646 0.25822 0.83971 0.0
O385 O 0.44442 0.27727 0.85358 0.0
O386 O 0.4365 0.24417 0.80363 0.0
O387 O 0.40752 0.24596 0.83943 0.0
C388 C 0.42124 0.28305 0.98139 0.0
C389 C 0.42007 0.30711 0.97405 0.0
H390 H 0.41783 0.35178 0.95072 0.0
H391 H 0.41374 0.36179 0.89405 0.0
H392 H 0.42187 0.20784 0.94121 0.0
H393 H 0.42285 0.23548 0.98617 0.0
H394 H 0.42345 0.27767 0.00568 0.0
H395 H 0.4214 0.31989 0.99281 0.0
Mn396 Mn 0.71909 0.45969 0.79303 0.0
Mn397 Mn 0.71826 0.41638 0.84714 0.0
C398 C 0.73268 0.46652 0.84336 0.0
C399 C 0.69966 0.4904 0.7682 0.0
C400 C 0.75439 0.41979 0.79493 0.0
O401 O 0.69711 0.43567 0.77367 0.0
O402 O 0.69536 0.40933 0.81319 0.0
C403 C 0.67058 0.42382 0.87259 0.0
N404 N 0.69408 0.42202 0.87732 0.0
C405 C 0.68957 0.42817 0.9331 0.0
C406 C 0.6653 0.42991 0.92886 0.0
C407 C 0.65578 0.42782 0.89848 0.0
C408 C 0.70344 0.42417 0.90645 0.0
H409 H 0.66322 0.4223 0.84924 0.0
C410 C 0.68909 0.41698 0.78607 0.0
O411 O 0.7172 0.47995 0.75469 0.0
O412 O 0.69329 0.48266 0.79558 0.0
N413 N 0.73954 0.42094 0.88146 0.0
C414 C 0.76339 0.42008 0.88131 0.0
C415 C 0.77568 0.42239 0.90979 0.0
C416 C 0.76336 0.4254 0.93812 0.0
C417 C 0.73882 0.42606 0.93773 0.0
C418 C 0.72751 0.4234 0.90867 0.0
H419 H 0.77298 0.4177 0.85965 0.0
O420 O 0.73885 0.4802 0.82044 0.0
O421 O 0.71847 0.44961 0.83621 0.0
O422 O 0.7475 0.43911 0.78299 0.0
O423 O 0.74403 0.40964 0.81783 0.0
C424 C 0.72517 0.42961 0.96495 0.0
C425 C 0.70057 0.43075 0.96262 0.0
H426 H 0.65382 0.4331 0.94871 0.0
H427 H 0.63708 0.42936 0.89509 0.0
H428 H 0.79462 0.42187 0.90989 0.0
H429 H 0.77291 0.42729 0.96001 0.0
H430 H 0.73344 0.43185 0.98772 0.0
H431 H 0.69028 0.43388 0.98363 0.0
Mn432 Mn 0.55629 0.27871 0.21541 0.0
Mn433 Mn 0.60981 0.27064 0.18399 0.0
C434 C 0.55987 0.26513 0.16443 0.0
C435 C 0.52547 0.30372 0.22728 0.0
C436 C 0.58771 0.23759 0.23117 0.0
O437 O 0.57782 0.2966 0.24503 0.0
O438 O 0.61204 0.29373 0.21877 0.0
C439 C 0.6176 0.31756 0.15638 0.0
N440 N 0.61579 0.29395 0.15277 0.0
C441 C 0.62424 0.29675 0.09741 0.0
C442 C 0.62633 0.3211 0.10052 0.0
C443 C 0.62287 0.33155 0.13012 0.0
C444 C 0.61873 0.28375 0.12434 0.0
H445 H 0.61505 0.32564 0.17913 0.0
C446 C 0.59938 0.30169 0.24124 0.0
O447 O 0.52887 0.28462 0.24322 0.0
O448 O 0.53999 0.30826 0.20459 0.0
N449 N 0.60993 0.24879 0.14986 0.0
C450 C 0.60676 0.22516 0.15069 0.0
C451 C 0.60908 0.21211 0.12284 0.0
C452 C 0.61497 0.22343 0.09457 0.0
C453 C 0.61847 0.24772 0.09443 0.0
C454 C 0.61578 0.25983 0.12284 0.0
H455 H 0.60243 0.21631 0.17239 0.0
O456 O 0.54043 0.26233 0.17982 0.0
O457 O 0.5763 0.27645 0.17905 0.0
O458 O 0.56769 0.2473 0.23257 0.0
O459 O 0.6049 0.24556 0.21525 0.0
C460 C 0.62468 0.26035 0.06724 0.0
C461 C 0.62747 0.28487 0.06868 0.0
H462 H 0.6305 0.33193 0.08034 0.0
H463 H 0.62438 0.35033 0.1327 0.0
H464 H 0.60642 0.19336 0.12319 0.0
H465 H 0.61679 0.21331 0.07314 0.0
H466 H 0.62745 0.2513 0.04519 0.0
H467 H 0.63226 0.29443 0.04763 0.0
Mn468 Mn 0.72495 0.54281 0.21674 0.0
Mn469 Mn 0.72251 0.58524 0.16188 0.0
C470 C 0.73771 0.53541 0.16591 0.0
C471 C 0.70631 0.51277 0.24367 0.0
C472 C 0.75828 0.58394 0.21475 0.0
O473 O 0.70272 0.56697 0.23584 0.0
O474 O 0.69816 0.59112 0.19418 0.0
C475 C 0.67644 0.5743 0.13338 0.0
N476 N 0.69978 0.5784 0.1302 0.0
C477 C 0.69731 0.57546 0.07376 0.0
C478 C 0.6732 0.57146 0.07635 0.0
C479 C 0.66283 0.57037 0.1063 0.0
C480 C 0.71014 0.57832 0.10157 0.0
H481 H 0.66839 0.57382 0.15641 0.0
C482 C 0.69285 0.58422 0.22202 0.0
O483 O 0.72423 0.52348 0.25578 0.0
O484 O 0.69923 0.51958 0.21613 0.0
N485 N 0.74519 0.58151 0.12907 0.0
C486 C 0.769 0.58237 0.13087 0.0
C487 C 0.7823 0.58139 0.10308 0.0
C488 C 0.77102 0.58012 0.07374 0.0
C489 C 0.74652 0.57947 0.07248 0.0
C490 C 0.73419 0.58004 0.10096 0.0
H491 H 0.77779 0.58375 0.15329 0.0
O492 O 0.74443 0.52204 0.18893 0.0
O493 O 0.72358 0.55224 0.17339 0.0
O494 O 0.75325 0.56373 0.22548 0.0
O495 O 0.74684 0.59385 0.19262 0.0
C496 C 0.73383 0.57811 0.04409 0.0
C497 C 0.70922 0.57614 0.04474 0.0
H498 H 0.66258 0.5687 0.05554 0.0
H499 H 0.64438 0.56651 0.10833 0.0
H500 H 0.8012 0.58172 0.10422 0.0
H501 H 0.78135 0.5795 0.05236 0.0
H502 H 0.74286 0.57792 0.02165 0.0
H503 H 0.6997 0.57439 0.02279 0.0
Mn504 Mn 0.4512 0.71934 0.20045 0.0
Mn505 Mn 0.40544 0.72795 0.15167 0.0
C506 C 0.45837 0.73053 0.1489 0.0
C507 C 0.47758 0.69407 0.22442 0.0
C508 C 0.41942 0.76131 0.20398 0.0
O509 O 0.42383 0.70352 0.22277 0.0
O510 O 0.39656 0.70492 0.18449 0.0
C511 C 0.40008 0.68148 0.12175 0.0
N512 N 0.40322 0.70502 0.11912 0.0
C513 C 0.40118 0.70306 0.06256 0.0
C514 C 0.39788 0.67878 0.06465 0.0
C515 C 0.39739 0.66795 0.09437 0.0
C516 C 0.40364 0.71565 0.09066 0.0
H517 H 0.39961 0.67312 0.14457 0.0
C518 C 0.40403 0.69769 0.21124 0.0
O519 O 0.47201 0.7139 0.23727 0.0
O520 O 0.46767 0.68885 0.1978 0.0
N521 N 0.41193 0.74971 0.11856 0.0
C522 C 0.41732 0.77289 0.12059 0.0
C523 C 0.41912 0.78622 0.09292 0.0
C524 C 0.41524 0.77562 0.06354 0.0
C525 C 0.41015 0.75166 0.062 0.0
C526 C 0.40829 0.73933 0.09037 0.0
H527 H 0.42002 0.78121 0.14312 0.0
O528 O 0.47411 0.73349 0.17061 0.0
O529 O 0.43889 0.72073 0.15797 0.0
O530 O 0.4387 0.75173 0.21144 0.0
O531 O 0.40535 0.75293 0.18362 0.0
C532 C 0.40712 0.73947 0.03344 0.0
C533 C 0.40272 0.71517 0.03371 0.0
H534 H 0.39594 0.66826 0.04358 0.0
H535 H 0.39493 0.64922 0.09615 0.0
H536 H 0.42332 0.80466 0.09423 0.0
H537 H 0.41632 0.78602 0.04227 0.0
H538 H 0.40852 0.74855 0.01111 0.0
H539 H 0.40086 0.70591 0.01158 0.0
Mn540 Mn 0.27332 0.45335 0.18567 0.0
Mn541 Mn 0.27336 0.40651 0.1374 0.0
C542 C 0.25521 0.45576 0.13701 0.0
C543 C 0.29214 0.48634 0.20527 0.0
C544 C 0.24175 0.41114 0.19434 0.0
O545 O 0.29849 0.43226 0.20444 0.0
O546 O 0.29954 0.40386 0.16774 0.0
C547 C 0.31781 0.41524 0.10353 0.0
N548 N 0.2943 0.41133 0.10296 0.0
C549 C 0.29376 0.4117 0.04631 0.0
C550 C 0.31799 0.41559 0.04625 0.0
C551 C 0.33003 0.41752 0.075 0.0
C552 C 0.28249 0.40972 0.07547 0.0
H553 H 0.32713 0.41666 0.12559 0.0
C554 C 0.3073 0.41367 0.19276 0.0
O555 O 0.27632 0.47547 0.22165 0.0
O556 O 0.29697 0.47801 0.17758 0.0
N557 N 0.24904 0.40688 0.10653 0.0
C558 C 0.22547 0.40498 0.11075 0.0
C559 C 0.21078 0.40347 0.08433 0.0
C560 C 0.22049 0.40365 0.05395 0.0
C561 C 0.24476 0.40587 0.0502 0.0
C562 C 0.25853 0.40722 0.07737 0.0
H563 H 0.21794 0.40449 0.13407 0.0
O564 O 0.25006 0.47048 0.15926 0.0
O565 O 0.27132 0.44045 0.14368 0.0
O566 O 0.24747 0.4319 0.20197 0.0
O567 O 0.25102 0.39982 0.17163 0.0
C568 C 0.25583 0.4069 0.02059 0.0
C569 C 0.28028 0.41005 0.01862 0.0
H570 H 0.32749 0.41736 0.02429 0.0
H571 H 0.34867 0.4208 0.07513 0.0
H572 H 0.19205 0.40198 0.08733 0.0
H573 H 0.20914 0.40198 0.03373 0.0
H574 H 0.24572 0.40543 0.9992 0.0
H575 H 0.2885 0.41128 0.99569 0.0
H576 H 0.04721 0.14845 0.24117 0.0
H577 H 0.06535 0.1114 0.22462 0.0
H578 H 0.13257 0.13655 0.256 0.0
H579 H 0.11447 0.17311 0.27359 0.0
H580 H 0.12824 0.10593 0.19274 0.0
H581 H 0.11146 0.11061 0.3092 0.0
H582 H 0.08337 0.11724 0.35243 0.0
H583 H 0.03656 0.06666 0.31201 0.0
H584 H 0.06442 0.05985 0.26846 0.0
H585 H 0.21126 0.02556 0.24428 0.0
H586 H 0.18377 0.05647 0.2306 0.0
H587 H 0.12596 0.01068 0.2533 0.0
H588 H 0.15374 0.98033 0.26944 0.0
H589 H 0.11722 0.04789 0.27842 0.0
H590 H 0.13929 0.03239 0.17396 0.0
H591 H 0.16484 0.02424 0.12848 0.0
H592 H 0.19675 0.09188 0.13825 0.0
H593 H 0.17166 0.10033 0.18409 0.0
C594 C 0.06596 0.14627 0.24362 0.0
C595 C 0.07952 0.16344 0.25871 0.0
C596 C 0.07625 0.12519 0.23415 0.0
C597 C 0.10025 0.12144 0.23899 0.0
C598 C 0.11407 0.13932 0.25181 0.0
C599 C 0.10372 0.16007 0.262 0.0
C600 C 0.11041 0.09785 0.23594 0.0
C601 C 0.12588 0.09303 0.21121 0.0
C602 C 0.10644 0.08085 0.25939 0.0
C603 C 0.08984 0.0849 0.28555 0.0
C604 C 0.09509 0.10105 0.30947 0.0
C605 C 0.07924 0.10481 0.33403 0.0
C606 C 0.05814 0.09244 0.33491 0.0
C607 C 0.05288 0.07625 0.31127 0.0
C608 C 0.0687 0.07242 0.28668 0.0
C609 C 0.19267 0.02204 0.24592 0.0
C610 C 0.18454 0.00072 0.25807 0.0
C611 C 0.17688 0.03963 0.23771 0.0
C612 C 0.15262 0.03592 0.24029 0.0
C613 C 0.14454 0.01409 0.25111 0.0
C614 C 0.16037 0.99675 0.26033 0.0
C615 C 0.13604 0.05571 0.23547 0.0
C616 C 0.1193 0.06006 0.25901 0.0
C617 C 0.13842 0.07186 0.21024 0.0
C618 C 0.15361 0.06695 0.18261 0.0
C619 C 0.15185 0.04548 0.16655 0.0
C620 C 0.16625 0.04081 0.14068 0.0
C621 C 0.18242 0.05752 0.1305 0.0
C622 C 0.1842 0.07895 0.14615 0.0
C623 C 0.16985 0.08371 0.17205 0.0
H624 H 0.19355 0.05387 0.11047 0.0
H625 H 0.04589 0.0953 0.35396 0.0
H626 H 0.98667 0.15538 0.24678 0.0
H627 H 0.94871 0.13917 0.2314 0.0
H628 H 0.92462 0.20826 0.20655 0.0
H629 H 0.96311 0.22448 0.22071 0.0
H630 H 0.90263 0.18045 0.26169 0.0
H631 H 0.92001 0.17712 0.15152 0.0
H632 H 0.944 0.16734 0.1051 0.0
H633 H 0.93968 0.09432 0.12825 0.0
H634 H 0.91596 0.10367 0.17511 0.0
H635 H 0.79455 0.12707 0.27177 0.0
H636 H 0.82368 0.15208 0.24615 0.0
H637 H 0.86577 0.09119 0.22562 0.0
H638 H 0.83582 0.06613 0.24913 0.0
H639 H 0.87498 0.12209 0.18359 0.0
H640 H 0.87061 0.1229 0.29672 0.0
H641 H 0.85201 0.12824 0.34866 0.0
H642 H 0.83817 0.20029 0.32681 0.0
H643 H 0.85649 0.1953 0.27455 0.0
C644 C 0.97356 0.16694 0.23686 0.0
C645 C 0.97762 0.1911 0.2349 0.0
C646 C 0.95198 0.15768 0.22796 0.0
C647 C 0.93401 0.17254 0.21773 0.0
C648 C 0.93845 0.19654 0.21399 0.0
C649 C 0.96036 0.20575 0.22206 0.0
C650 C 0.90982 0.16353 0.2175 0.0
C651 C 0.89614 0.16828 0.2441 0.0
C652 C 0.90212 0.14687 0.19523 0.0
C653 C 0.91628 0.14113 0.16696 0.0
C654 C 0.92432 0.15899 0.14688 0.0
C655 C 0.93785 0.15351 0.12044 0.0
C656 C 0.94339 0.13022 0.11375 0.0
C657 C 0.93537 0.11235 0.13345 0.0
C658 C 0.92185 0.11773 0.15993 0.0
C659 C 0.80965 0.11906 0.26072 0.0
C660 C 0.81317 0.09481 0.26255 0.0
C661 C 0.82633 0.13332 0.24626 0.0
C662 C 0.84731 0.12361 0.23491 0.0
C663 C 0.84982 0.09914 0.23432 0.0
C664 C 0.83274 0.08481 0.24782 0.0
C665 C 0.86785 0.13875 0.22814 0.0
C666 C 0.88097 0.13493 0.20059 0.0
C667 C 0.87571 0.15561 0.25026 0.0
C668 C 0.86461 0.15865 0.28159 0.0
C669 C 0.86344 0.13983 0.30291 0.0
C670 C 0.85297 0.14279 0.3324 0.0
C671 C 0.84382 0.16456 0.34097 0.0
C672 C 0.84519 0.18342 0.32009 0.0
C673 C 0.85562 0.18055 0.29054 0.0
H674 H 0.83573 0.16682 0.36382 0.0
H675 H 0.95386 0.12602 0.09327 0.0
H676 H 0.77464 0.97347 0.2322 0.0
H677 H 0.79428 0.93912 0.20944 0.0
H678 H 0.8604 0.96368 0.24568 0.0
H679 H 0.84095 0.99762 0.2687 0.0
H680 H 0.86365 0.94131 0.18493 0.0
H681 H 0.83012 0.92968 0.2907 0.0
H682 H 0.79702 0.92923 0.32802 0.0
H683 H 0.76066 0.88004 0.26924 0.0
H684 H 0.79348 0.88047 0.23136 0.0
H685 H 0.93922 0.85588 0.24448 0.0
H686 H 0.91439 0.88745 0.22493 0.0
H687 H 0.85761 0.83842 0.21211 0.0
H688 H 0.88217 0.8072 0.23371 0.0
H689 H 0.84304 0.87039 0.24629 0.0
H690 H 0.88249 0.87301 0.14887 0.0
H691 H 0.91562 0.87312 0.11168 0.0
H692 H 0.94039 0.93774 0.15105 0.0
H693 H 0.90762 0.93788 0.18882 0.0
C694 C 0.79343 0.97175 0.23462 0.0
C695 C 0.80626 0.98794 0.25256 0.0
C696 C 0.80461 0.95221 0.22158 0.0
C697 C 0.82876 0.94888 0.226 0.0
C698 C 0.84179 0.966 0.24186 0.0
C699 C 0.83061 0.98525 0.25526 0.0
C700 C 0.84006 0.92622 0.21877 0.0
C701 C 0.85917 0.92564 0.19803 0.0
C702 C 0.83366 0.90571 0.23521 0.0
C703 C 0.81406 0.90535 0.25805 0.0
C704 C 0.81498 0.91892 0.28564 0.0
C705 C 0.79629 0.91865 0.3069 0.0
C706 C 0.77671 0.90468 0.30095 0.0
C707 C 0.77581 0.8909 0.27377 0.0
C708 C 0.79444 0.89115 0.2524 0.0
C709 C 0.92175 0.85176 0.23623 0.0
C710 C 0.91253 0.82926 0.24034 0.0
C711 C 0.90752 0.86979 0.22491 0.0
C712 C 0.88401 0.86542 0.21684 0.0
C713 C 0.8756 0.84232 0.21824 0.0
C714 C 0.88964 0.82446 0.23036 0.0
C715 C 0.86739 0.88528 0.21285 0.0
C716 C 0.84725 0.8855 0.23188 0.0
C717 C 0.87281 0.9053 0.19453 0.0
C718 C 0.89258 0.9054 0.17179 0.0
C719 C 0.89507 0.88718 0.14975 0.0
C720 C 0.91379 0.88721 0.12854 0.0
C721 C 0.9301 0.90541 0.12902 0.0
C722 C 0.92772 0.92365 0.15069 0.0
C723 C 0.90904 0.92372 0.17196 0.0
H724 H 0.94459 0.90539 0.11258 0.0
H725 H 0.76226 0.90447 0.31744 0.0
H726 H 0.03356 0.77889 0.22509 0.0
H727 H 0.0725 0.79381 0.21122 0.0
H728 H 0.0531 0.86218 0.24525 0.0
H729 H 0.01446 0.84723 0.26019 0.0
H730 H 0.08328 0.85661 0.18197 0.0
H731 H 0.07686 0.83774 0.29611 0.0
H732 H 0.06712 0.81 0.33872 0.0
H733 H 0.11481 0.75966 0.2997 0.0
H734 H 0.12453 0.78702 0.25658 0.0
H735 H 0.17455 0.92659 0.23711 0.0
H736 H 0.14103 0.90409 0.21944 0.0
H737 H 0.17901 0.83991 0.23619 0.0
H738 H 0.21218 0.86259 0.25608 0.0
H739 H 0.14153 0.83627 0.26422 0.0
H740 H 0.15689 0.8584 0.15935 0.0
H741 H 0.16706 0.8839 0.11457 0.0
H742 H 0.1048 0.92438 0.12997 0.0
H743 H 0.09439 0.89934 0.17514 0.0
C744 C 0.03745 0.79722 0.22897 0.0
C745 C 0.02113 0.81191 0.2439 0.0
C746 C 0.05962 0.80568 0.22098 0.0
C747 C 0.0655 0.82906 0.22713 0.0
C748 C 0.04871 0.84413 0.24011 0.0
C749 C 0.02677 0.83555 0.24881 0.0
C750 C 0.08995 0.83708 0.22429 0.0
C751 C 0.09618 0.85227 0.19978 0.0
C752 C 0.10682 0.83053 0.24688 0.0
C753 C 0.10118 0.81426 0.27297 0.0
C754 C 0.08509 0.82067 0.29648 0.0
C755 C 0.07961 0.80504 0.32074 0.0
C756 C 0.09028 0.78305 0.32186 0.0
C757 C 0.10651 0.77668 0.29877 0.0
C758 C 0.11201 0.79223 0.27442 0.0
C759 C 0.1761 0.90771 0.23601 0.0
C760 C 0.19593 0.89632 0.24814 0.0
C761 C 0.15686 0.89477 0.22568 0.0
C762 C 0.15735 0.87016 0.22626 0.0
C763 C 0.17806 0.85884 0.23569 0.0
C764 C 0.19708 0.87179 0.24689 0.0
C765 C 0.13527 0.85665 0.2221 0.0
C766 C 0.12922 0.84034 0.24555 0.0
C767 C 0.11882 0.86187 0.19804 0.0
C768 C 0.12491 0.877 0.17078 0.0
C769 C 0.14543 0.87282 0.15334 0.0
C770 C 0.15123 0.88719 0.12785 0.0
C771 C 0.1366 0.90576 0.11945 0.0
C772 C 0.11611 0.90997 0.13649 0.0
C773 C 0.11022 0.89566 0.16201 0.0
H774 H 0.14112 0.91687 0.09972 0.0
H775 H 0.08602 0.77098 0.34065 0.0
H776 H 0.11593 0.84273 0.70238 0.0
H777 H 0.13416 0.87495 0.73024 0.0
H778 H 0.08398 0.86803 0.80562 0.0
H779 H 0.06515 0.8356 0.77737 0.0
H780 H 0.0876 0.91234 0.78795 0.0
H781 H 0.14128 0.85615 0.82115 0.0
H782 H 0.16721 0.82175 0.81827 0.0
H783 H 0.21101 0.85731 0.75147 0.0
H784 H 0.18517 0.8918 0.75352 0.0
H785 H 0.20118 0.9937 0.80078 0.0
H786 H 0.17854 0.96054 0.82124 0.0
H787 H 0.12832 0.96959 0.74621 0.0
H788 H 0.15025 0.00279 0.72651 0.0
H789 H 0.17383 0.92173 0.79292 0.0
H790 H 0.07728 0.94814 0.75879 0.0
H791 H 0.05127 0.98212 0.76576 0.0
H792 H 0.09278 0.00561 0.8439 0.0
H793 H 0.11887 0.97157 0.83778 0.0
C794 C 0.10882 0.84779 0.72503 0.0
C795 C 0.08899 0.83659 0.73755 0.0
C796 C 0.11946 0.86613 0.74115 0.0
C797 C 0.11069 0.87368 0.7703 0.0
C798 C 0.09115 0.86233 0.78328 0.0
C799 C 0.08045 0.8438 0.76713 0.0
C800 C 0.12091 0.89487 0.78504 0.0
C801 C 0.10643 0.9144 0.78963 0.0
C802 C 0.1454 0.89725 0.78884 0.0
C803 C 0.16124 0.87663 0.78756 0.0
C804 C 0.15638 0.85662 0.80574 0.0
C805 C 0.17108 0.83709 0.80425 0.0
C806 C 0.19075 0.83735 0.78472 0.0
C807 C 0.19579 0.85716 0.76665 0.0
C808 C 0.18115 0.87674 0.76803 0.0
C809 C 0.1849 0.98901 0.78931 0.0
C810 C 0.17761 0.00068 0.76185 0.0
C811 C 0.172 0.97005 0.801 0.0
C812 C 0.15159 0.96258 0.78547 0.0
C813 C 0.14364 0.97523 0.75919 0.0
C814 C 0.1564 0.99414 0.74765 0.0
C815 C 0.14062 0.93964 0.79284 0.0
C816 C 0.15497 0.91969 0.7925 0.0
C817 C 0.11599 0.93684 0.79378 0.0
C818 C 0.10008 0.95722 0.79781 0.0
C819 C 0.08076 0.9604 0.77768 0.0
C820 C 0.06603 0.97973 0.78142 0.0
C821 C 0.07037 0.99602 0.80525 0.0
C822 C 0.08945 0.993 0.82541 0.0
C823 C 0.10424 0.9737 0.82179 0.0
H824 H 0.05895 0.01098 0.80808 0.0
H825 H 0.2021 0.82221 0.78359 0.0
H826 H 0.20239 0.13693 0.70526 0.0
H827 H 0.17173 0.16482 0.71945 0.0
H828 H 0.13707 0.11127 0.77399 0.0
H829 H 0.16811 0.08383 0.76121 0.0
H830 H 0.13082 0.16148 0.69967 0.0
H831 H 0.09778 0.13126 0.82411 0.0
H832 H 0.1147 0.12025 0.87542 0.0
H833 H 0.17729 0.15852 0.85357 0.0
H834 H 0.16064 0.17007 0.8023 0.0
H835 H 0.01169 0.1636 0.70598 0.0
H836 H 0.05178 0.15117 0.71598 0.0
H837 H 0.06213 0.21041 0.77736 0.0
H838 H 0.02159 0.22293 0.76771 0.0
H839 H 0.08502 0.16919 0.79844 0.0
H840 H 0.08111 0.21669 0.70694 0.0
H841 H 0.06502 0.23046 0.65631 0.0
H842 H 0.07993 0.16377 0.61428 0.0
H843 H 0.09577 0.14946 0.66479 0.0
C844 C 0.18861 0.13136 0.72111 0.0
C845 C 0.18756 0.10812 0.73187 0.0
C846 C 0.17107 0.14731 0.72919 0.0
C847 C 0.15198 0.14023 0.74778 0.0
C848 C 0.15178 0.11744 0.76021 0.0
C849 C 0.16953 0.10164 0.75266 0.0
C850 C 0.1306 0.155 0.74977 0.0
C851 C 0.12111 0.16347 0.72146 0.0
C852 C 0.11794 0.15812 0.7782 0.0
C853 C 0.12796 0.15146 0.80923 0.0
C854 C 0.11508 0.13748 0.83031 0.0
C855 C 0.12465 0.1311 0.85938 0.0
C856 C 0.14707 0.13865 0.86773 0.0
C857 C 0.15995 0.15264 0.84704 0.0
C858 C 0.15047 0.15907 0.81794 0.0
C859 C 0.02232 0.17381 0.72204 0.0
C860 C 0.01363 0.19441 0.73574 0.0
C861 C 0.04523 0.16669 0.7277 0.0
C862 C 0.06 0.18016 0.74687 0.0
C863 C 0.05098 0.19988 0.76236 0.0
C864 C 0.02787 0.20699 0.75681 0.0
C865 C 0.08522 0.17437 0.74826 0.0
C866 C 0.09524 0.16764 0.77701 0.0
C867 C 0.09872 0.17335 0.72039 0.0
C868 C 0.08954 0.18197 0.68974 0.0
C869 C 0.08084 0.20492 0.68695 0.0
C870 C 0.07177 0.21282 0.65827 0.0
C871 C 0.07143 0.19799 0.63211 0.0
C872 C 0.08021 0.17525 0.63456 0.0
C873 C 0.08927 0.16724 0.66321 0.0
H874 H 0.06438 0.20413 0.60993 0.0
H875 H 0.15445 0.13368 0.89024 0.0
H876 H 0.93814 0.15908 0.76105 0.0
H877 H 0.92137 0.12284 0.78257 0.0
H878 H 0.85487 0.13972 0.7403 0.0
H879 H 0.87136 0.17559 0.71863 0.0
H880 H 0.87844 0.10819 0.81889 0.0
H881 H 0.84106 0.0929 0.69573 0.0
H882 H 0.84797 0.10412 0.64038 0.0
H883 H 0.92121 0.11303 0.6598 0.0
H884 H 0.91474 0.10173 0.71515 0.0
H885 H 0.79124 0.01724 0.79517 0.0
H886 H 0.81581 0.0517 0.80498 0.0
H887 H 0.87375 0.01762 0.7587 0.0
H888 H 0.84928 0.98351 0.7484 0.0
H889 H 0.85916 0.05651 0.72862 0.0
H890 H 0.87911 0.03432 0.83379 0.0
H891 H 0.87147 0.02196 0.88847 0.0
H892 H 0.83323 0.08542 0.90535 0.0
H893 H 0.84034 0.09802 0.85061 0.0
C894 C 0.91977 0.15538 0.75716 0.0
C895 C 0.90617 0.16992 0.73766 0.0
C896 C 0.91022 0.13474 0.76955 0.0
C897 C 0.887 0.12856 0.76266 0.0
C898 C 0.87288 0.14414 0.74566 0.0
C899 C 0.88239 0.16456 0.73315 0.0
C900 C 0.87846 0.10451 0.76841 0.0
C901 C 0.87428 0.09675 0.79929 0.0
C902 C 0.87325 0.08963 0.74277 0.0
C903 C 0.87737 0.09667 0.7096 0.0
C904 C 0.85864 0.09725 0.68814 0.0
C905 C 0.86247 0.10363 0.65679 0.0
C906 C 0.88499 0.10933 0.64658 0.0
C907 C 0.90374 0.10872 0.66773 0.0
C908 C 0.89999 0.10239 0.69913 0.0
C909 C 0.80946 0.01682 0.78815 0.0
C910 C 0.81828 0.998 0.77048 0.0
C911 C 0.82351 0.03646 0.79388 0.0
C912 C 0.84654 0.03726 0.78233 0.0
C913 C 0.85599 0.01738 0.76769 0.0
C914 C 0.84196 0.99796 0.7617 0.0
C915 C 0.85887 0.05992 0.77918 0.0
C916 C 0.86356 0.06763 0.74849 0.0
C917 C 0.8644 0.07454 0.80504 0.0
C918 C 0.86011 0.06703 0.83798 0.0
C919 C 0.86889 0.04555 0.84906 0.0
C920 C 0.86469 0.03852 0.88009 0.0
C921 C 0.85183 0.05287 0.90035 0.0
C922 C 0.84318 0.07431 0.88963 0.0
C923 C 0.84732 0.08142 0.85861 0.0
H924 H 0.8486 0.04739 0.92437 0.0
H925 H 0.88788 0.1141 0.62223 0.0
H926 H 0.82018 0.91704 0.79653 0.0
H927 H 0.85536 0.89733 0.81609 0.0
H928 H 0.84877 0.84533 0.74316 0.0
H929 H 0.81362 0.86447 0.72366 0.0
H930 H 0.87215 0.84188 0.82618 0.0
H931 H 0.89752 0.86285 0.69988 0.0
H932 H 0.88799 0.89115 0.65791 0.0
H933 H 0.8729 0.9436 0.72746 0.0
H934 H 0.88311 0.91582 0.76976 0.0
H935 H 0.96978 0.77779 0.76742 0.0
H936 H 0.93377 0.79658 0.78594 0.0
H937 H 0.96728 0.86417 0.77913 0.0
H938 H 0.00258 0.84544 0.75869 0.0
H939 H 0.93116 0.86517 0.74633 0.0
H940 H 0.94504 0.84006 0.85125 0.0
H941 H 0.95475 0.81275 0.89427 0.0
H942 H 0.89394 0.77164 0.87262 0.0
H943 H 0.88403 0.7985 0.82916 0.0
C944 C 0.82569 0.90092 0.78534 0.0
C945 C 0.81437 0.89266 0.75803 0.0
C946 C 0.84571 0.88961 0.79675 0.0
C947 C 0.85463 0.87005 0.78087 0.0
C948 C 0.84204 0.86041 0.75572 0.0
C949 C 0.82203 0.87155 0.74445 0.0
C950 C 0.87921 0.86288 0.78525 0.0
C951 C 0.88528 0.84704 0.8091 0.0
C952 C 0.89625 0.87012 0.76325 0.0
C953 C 0.89075 0.88717 0.73795 0.0
C954 C 0.89228 0.88046 0.70618 0.0
C955 C 0.88679 0.89642 0.68234 0.0
C956 C 0.87971 0.91913 0.69001 0.0
C957 C 0.87829 0.92598 0.72154 0.0
C958 C 0.88395 0.91014 0.74545 0.0
C959 C 0.96957 0.79658 0.77089 0.0
C960 C 0.98868 0.81029 0.76151 0.0
C961 C 0.94905 0.80733 0.78164 0.0
C962 C 0.94771 0.83187 0.78391 0.0
C963 C 0.96776 0.84526 0.77734 0.0
C964 C 0.98793 0.83459 0.76575 0.0
C965 C 0.92468 0.84374 0.78738 0.0
C966 C 0.9186 0.86033 0.76437 0.0
C967 C 0.908 0.83749 0.81066 0.0
C968 C 0.91387 0.82125 0.83679 0.0
C969 C 0.93382 0.8251 0.8555 0.0
C970 C 0.93935 0.80971 0.88 0.0
C971 C 0.92499 0.79045 0.88615 0.0
C972 C 0.90505 0.78656 0.86783 0.0
C973 C 0.89945 0.80189 0.84329 0.0
H974 H 0.9293 0.77856 0.90513 0.0
H975 H 0.87538 0.93145 0.67153 0.0
H976 H 0.58882 0.68305 0.70724 0.0
H977 H 0.60992 0.64852 0.68857 0.0
H978 H 0.65711 0.65376 0.7676 0.0
H979 H 0.63686 0.68855 0.7857 0.0
H980 H 0.67926 0.63451 0.72012 0.0
H981 H 0.60375 0.62405 0.77237 0.0
H982 H 0.56106 0.62983 0.77689 0.0
H983 H 0.55102 0.5971 0.68684 0.0
H984 H 0.59371 0.59147 0.68159 0.0
H985 H 0.66312 0.51465 0.79262 0.0
H986 H 0.647 0.55153 0.77437 0.0
H987 H 0.6934 0.55032 0.69415 0.0
H988 H 0.71026 0.51333 0.71299 0.0
H989 H 0.62461 0.56714 0.72553 0.0
H990 H 0.70923 0.60752 0.67867 0.0
H991 H 0.75207 0.60284 0.68321 0.0
H992 H 0.744 0.57597 0.77708 0.0
H993 H 0.70117 0.58073 0.77316 0.0
C994 C 0.60416 0.67732 0.72009 0.0
C995 C 0.61074 0.68825 0.74848 0.0
C996 C 0.61618 0.65753 0.70939 0.0
C997 C 0.63466 0.64816 0.72719 0.0
C998 C 0.6428 0.66054 0.75355 0.0
C999 C 0.63104 0.68044 0.76401 0.0
C1000 C 0.6431 0.6239 0.72197 0.0
C1001 C 0.6673 0.61976 0.72062 0.0
C1002 C 0.62754 0.6046 0.72302 0.0
C1003 C 0.60189 0.6076 0.72641 0.0
C1004 C 0.59242 0.61818 0.75348 0.0
C1005 C 0.56825 0.62144 0.75617 0.0
C1006 C 0.55335 0.61389 0.73212 0.0
C1007 C 0.56259 0.60299 0.7054 0.0
C1008 C 0.58677 0.59978 0.70254 0.0
C1009 C 0.6698 0.52203 0.7709 0.0
C1010 C 0.68817 0.5112 0.75444 0.0
C1011 C 0.66043 0.54311 0.76035 0.0
C1012 C 0.6691 0.55386 0.73303 0.0
C1013 C 0.68663 0.54249 0.71552 0.0
C1014 C 0.69619 0.52135 0.72624 0.0
C1015 C 0.66081 0.57775 0.72494 0.0
C1016 C 0.63659 0.58182 0.7237 0.0
C1017 C 0.67636 0.59698 0.72271 0.0
C1018 C 0.70204 0.59417 0.72542 0.0
C1019 C 0.71664 0.60063 0.70025 0.0
C1020 C 0.7409 0.59797 0.70273 0.0
C1021 C 0.75074 0.58901 0.73036 0.0
C1022 C 0.73635 0.5828 0.75564 0.0
C1023 C 0.71209 0.58546 0.75329 0.0
H1024 H 0.76952 0.58695 0.73222 0.0
H1025 H 0.53464 0.6164 0.73423 0.0
H1026 H 0.49434 0.69877 0.69702 0.0
H1027 H 0.46113 0.67433 0.68123 0.0
H1028 H 0.47686 0.62613 0.75658 0.0
H1029 H 0.51022 0.65006 0.77195 0.0
H1030 H 0.45909 0.6031 0.70663 0.0
H1031 H 0.43995 0.67307 0.76798 0.0
H1032 H 0.43895 0.71572 0.77698 0.0
H1033 H 0.40098 0.72525 0.69061 0.0
H1034 H 0.40201 0.68264 0.68095 0.0
H1035 H 0.3606 0.5668 0.78962 0.0
H1036 H 0.39655 0.58136 0.76553 0.0
H1037 H 0.35586 0.61744 0.69486 0.0
H1038 H 0.31964 0.60302 0.71963 0.0
H1039 H 0.38483 0.64631 0.72357 0.0
H1040 H 0.39407 0.57304 0.67357 0.0
H1041 H 0.39433 0.53006 0.66866 0.0
H1042 H 0.45013 0.5257 0.73615 0.0
H1043 H 0.44999 0.56862 0.74188 0.0
C1044 C 0.49105 0.68266 0.7097 0.0
C1045 C 0.50457 0.67657 0.73613 0.0
C1046 C 0.47207 0.66873 0.70067 0.0
C1047 C 0.46624 0.64867 0.71814 0.0
C1048 C 0.48096 0.64157 0.74281 0.0
C1049 C 0.49994 0.65539 0.75174 0.0
C1050 C 0.44334 0.63686 0.71405 0.0
C1051 C 0.44279 0.61248 0.7101 0.0
C1052 C 0.42203 0.64923 0.71768 0.0
C1053 C 0.42133 0.67477 0.72354 0.0
C1054 C 0.43152 0.6843 0.75083 0.0
C1055 C 0.43094 0.70844 0.75606 0.0
C1056 C 0.41998 0.72319 0.73432 0.0
C1057 C 0.40952 0.71381 0.70737 0.0
C1058 C 0.4101 0.68968 0.702 0.0
C1059 C 0.35944 0.57737 0.7685 0.0
C1060 C 0.33761 0.58385 0.75631 0.0
C1061 C 0.37995 0.58552 0.75454 0.0
C1062 C 0.37895 0.60026 0.72808 0.0
C1063 C 0.35703 0.60592 0.71507 0.0
C1064 C 0.33643 0.5977 0.7291 0.0
C1065 C 0.40055 0.61232 0.71744 0.0
C1066 C 0.40091 0.63684 0.71876 0.0
C1067 C 0.42163 0.59999 0.71172 0.0
C1068 C 0.42198 0.57412 0.70818 0.0
C1069 C 0.40633 0.56293 0.6875 0.0
C1070 C 0.40646 0.53856 0.68456 0.0
C1071 C 0.42223 0.52516 0.70209 0.0
C1072 C 0.43794 0.53611 0.72255 0.0
C1073 C 0.43788 0.56047 0.7256 0.0
H1074 H 0.42229 0.5063 0.69979 0.0
H1075 H 0.41953 0.74188 0.73841 0.0
H1076 H 0.27108 0.47292 0.74486 0.0
H1077 H 0.2869 0.43375 0.73336 0.0
H1078 H 0.35358 0.45445 0.77195 0.0
H1079 H 0.3377 0.49309 0.78455 0.0
H1080 H 0.3514 0.42483 0.70869 0.0
H1081 H 0.32684 0.43034 0.82124 0.0
H1082 H 0.29662 0.43846 0.86131 0.0
H1083 H 0.25077 0.38849 0.81769 0.0
H1084 H 0.28067 0.38034 0.7771 0.0
H1085 H 0.42489 0.33877 0.77007 0.0
H1086 H 0.40079 0.3709 0.75099 0.0
H1087 H 0.33869 0.32891 0.76478 0.0
H1088 H 0.36291 0.29745 0.78649 0.0
H1089 H 0.33085 0.36617 0.79026 0.0
H1090 H 0.3593 0.3512 0.68809 0.0
H1091 H 0.38762 0.34239 0.64592 0.0
H1092 H 0.4227 0.4076 0.66311 0.0
H1093 H 0.39483 0.41667 0.70571 0.0
C1094 C 0.28919 0.46913 0.75043 0.0
C1095 C 0.30316 0.48581 0.76582 0.0
C1096 C 0.29818 0.44688 0.74378 0.0
C1097 C 0.3214 0.44142 0.75167 0.0
C1098 C 0.33568 0.4585 0.76547 0.0
C1099 C 0.32655 0.48043 0.77289 0.0
C1100 C 0.33024 0.41724 0.74926 0.0
C1101 C 0.34696 0.41179 0.72628 0.0
C1102 C 0.32364 0.40017 0.77152 0.0
C1103 C 0.30581 0.40497 0.79598 0.0
C1104 C 0.31022 0.42126 0.82005 0.0
C1105 C 0.29318 0.42583 0.84288 0.0
C1106 C 0.27175 0.41405 0.84199 0.0
C1107 C 0.26735 0.39764 0.81831 0.0
C1108 C 0.28433 0.39304 0.7954 0.0
C1109 C 0.40615 0.33622 0.76815 0.0
C1110 C 0.39567 0.31577 0.77971 0.0
C1111 C 0.39231 0.35456 0.75697 0.0
C1112 C 0.36777 0.35243 0.75602 0.0
C1113 C 0.35751 0.33115 0.76538 0.0
C1114 C 0.37132 0.31312 0.77762 0.0
C1115 C 0.35292 0.3734 0.74998 0.0
C1116 C 0.33501 0.3785 0.77167 0.0
C1117 C 0.35813 0.38986 0.72594 0.0
C1118 C 0.37497 0.38457 0.70023 0.0
C1119 C 0.37313 0.36361 0.68303 0.0
C1120 C 0.38911 0.35858 0.65902 0.0
C1121 C 0.40696 0.37442 0.65186 0.0
C1122 C 0.40885 0.39535 0.66867 0.0
C1123 C 0.39293 0.40047 0.69271 0.0
H1124 H 0.41931 0.37048 0.63327 0.0
H1125 H 0.25859 0.4176 0.85969 0.0
H1126 H 0.6567 0.43443 0.74483 0.0
H1127 H 0.62138 0.41452 0.72589 0.0
H1128 H 0.64371 0.35082 0.7713 0.0
H1129 H 0.67877 0.3706 0.7907 0.0
H1130 H 0.61887 0.34514 0.70969 0.0
H1131 H 0.61285 0.38359 0.81384 0.0
H1132 H 0.61611 0.41848 0.84767 0.0
H1133 H 0.56832 0.4556 0.7877 0.0
H1134 H 0.56496 0.4209 0.75329 0.0
H1135 H 0.52661 0.27687 0.76836 0.0
H1136 H 0.56088 0.29921 0.75174 0.0
H1137 H 0.51796 0.36118 0.74285 0.0
H1138 H 0.48421 0.33908 0.7623 0.0
H1139 H 0.55168 0.3728 0.77361 0.0
H1140 H 0.54866 0.33169 0.67733 0.0
H1141 H 0.54514 0.29824 0.64097 0.0
H1142 H 0.60809 0.26835 0.67882 0.0
H1143 H 0.61183 0.30143 0.71575 0.0
C1144 C 0.65439 0.41601 0.75002 0.0
C1145 C 0.6703 0.40412 0.76959 0.0
C1146 C 0.63426 0.40467 0.73913 0.0
C1147 C 0.62999 0.38125 0.7473 0.0
C1148 C 0.6468 0.36886 0.76461 0.0
C1149 C 0.6667 0.38025 0.77591 0.0
C1150 C 0.60658 0.37078 0.7428 0.0
C1151 C 0.60402 0.35109 0.72342 0.0
C1152 C 0.58714 0.37916 0.75994 0.0
C1153 C 0.58886 0.39981 0.78087 0.0
C1154 C 0.60316 0.39925 0.80779 0.0
C1155 C 0.60502 0.41898 0.82707 0.0
C1156 C 0.59252 0.43929 0.8198 0.0
C1157 C 0.57804 0.43987 0.79328 0.0
C1158 C 0.57613 0.42018 0.77389 0.0
C1159 C 0.52452 0.29514 0.76212 0.0
C1160 C 0.503 0.30639 0.76653 0.0
C1161 C 0.54406 0.30792 0.7523 0.0
C1162 C 0.54215 0.33198 0.74558 0.0
C1163 C 0.52006 0.34273 0.748 0.0
C1164 C 0.50075 0.33014 0.75895 0.0
C1165 C 0.56356 0.34646 0.74069 0.0
C1166 C 0.56596 0.36697 0.75871 0.0
C1167 C 0.58258 0.33903 0.72163 0.0
C1168 C 0.58046 0.31904 0.69945 0.0
C1169 C 0.56168 0.31791 0.67807 0.0
C1170 C 0.55965 0.29902 0.65732 0.0
C1171 C 0.57636 0.28117 0.65761 0.0
C1172 C 0.59516 0.2822 0.67861 0.0
C1173 C 0.59727 0.30104 0.69942 0.0
H1174 H 0.57476 0.26656 0.64153 0.0
H1175 H 0.59401 0.45455 0.83477 0.0
H1176 H 0.72602 0.48218 0.2853 0.0
H1177 H 0.70901 0.44524 0.30401 0.0
H1178 H 0.64432 0.4617 0.2566 0.0
H1179 H 0.66138 0.49821 0.23712 0.0
H1180 H 0.64108 0.43726 0.32071 0.0
H1181 H 0.67728 0.43371 0.21489 0.0
H1182 H 0.7109 0.4395 0.17924 0.0
H1183 H 0.75316 0.39497 0.23762 0.0
H1184 H 0.71983 0.38923 0.27387 0.0
H1185 H 0.57897 0.34228 0.25935 0.0
H1186 H 0.59896 0.37701 0.27873 0.0
H1187 H 0.66311 0.33747 0.28755 0.0
H1188 H 0.64336 0.30312 0.26575 0.0
H1189 H 0.67235 0.37214 0.25592 0.0
H1190 H 0.63287 0.36606 0.35315 0.0
H1191 H 0.6001 0.36006 0.39005 0.0
H1192 H 0.56562 0.42103 0.35344 0.0
H1193 H 0.598 0.42724 0.31599 0.0
C1194 C 0.70799 0.47815 0.27956 0.0
C1195 C 0.69505 0.49281 0.2595 0.0
C1196 C 0.6983 0.45714 0.29033 0.0
C1197 C 0.67544 0.45088 0.28169 0.0
C1198 C 0.66193 0.46638 0.2637 0.0
C1199 C 0.67175 0.48708 0.25237 0.0
C1200 C 0.66685 0.4268 0.28661 0.0
C1201 C 0.64785 0.42284 0.30681 0.0
C1202 C 0.67631 0.40803 0.26918 0.0
C1203 C 0.69621 0.4113 0.24725 0.0
C1204 C 0.69381 0.42533 0.22025 0.0
C1205 C 0.71279 0.42857 0.19992 0.0
C1206 C 0.73418 0.41767 0.20621 0.0
C1207 C 0.7366 0.40345 0.23281 0.0
C1208 C 0.71768 0.4002 0.25325 0.0
C1209 C 0.59714 0.34084 0.26643 0.0
C1210 C 0.60971 0.32015 0.26097 0.0
C1211 C 0.6086 0.36071 0.27776 0.0
C1212 C 0.63265 0.36 0.28486 0.0
C1213 C 0.64463 0.3386 0.28208 0.0
C1214 C 0.63334 0.31894 0.26977 0.0
C1215 C 0.64589 0.38215 0.28977 0.0
C1216 C 0.66582 0.38598 0.27102 0.0
C1217 C 0.63742 0.4006 0.30903 0.0
C1218 C 0.61788 0.39706 0.33164 0.0
C1219 C 0.61824 0.37812 0.35282 0.0
C1220 C 0.59974 0.37469 0.37386 0.0
C1221 C 0.58079 0.39014 0.37407 0.0
C1222 C 0.58033 0.40909 0.35327 0.0
C1223 C 0.59878 0.4126 0.33217 0.0
H1224 H 0.56647 0.38745 0.39037 0.0
H1225 H 0.74885 0.42019 0.19044 0.0
H1226 H 0.48542 0.64815 0.21149 0.0
H1227 H 0.51959 0.62503 0.22641 0.0
H1228 H 0.54549 0.68276 0.28192 0.0
H1229 H 0.51087 0.70571 0.26786 0.0
H1230 H 0.56 0.63871 0.20603 0.0
H1231 H 0.58821 0.66242 0.33368 0.0
H1232 H 0.56993 0.66981 0.38536 0.0
H1233 H 0.51051 0.6283 0.35868 0.0
H1234 H 0.52856 0.62037 0.30703 0.0
H1235 H 0.67882 0.62923 0.21436 0.0
H1236 H 0.64109 0.6459 0.22908 0.0
H1237 H 0.62295 0.58206 0.27742 0.0
H1238 H 0.6611 0.56529 0.2632 0.0
H1239 H 0.60321 0.62454 0.30564 0.0
H1240 H 0.60547 0.58371 0.20534 0.0
H1241 H 0.6204 0.57401 0.1526 0.0
H1242 H 0.61517 0.64622 0.12517 0.0
H1243 H 0.59993 0.65625 0.17789 0.0
C1244 C 0.49809 0.65568 0.22754 0.0
C1245 C 0.49575 0.67883 0.23808 0.0
C1246 C 0.51755 0.64243 0.23618 0.0
C1247 C 0.53518 0.6522 0.25514 0.0
C1248 C 0.532 0.67473 0.2676 0.0
C1249 C 0.5123 0.6879 0.25933 0.0
C1250 C 0.5584 0.64069 0.2567 0.0
C1251 C 0.56923 0.63546 0.22796 0.0
C1252 C 0.5706 0.6365 0.28522 0.0
C1253 C 0.55968 0.64098 0.31634 0.0
C1254 C 0.57129 0.65478 0.33888 0.0
C1255 C 0.56096 0.65908 0.36817 0.0
C1256 C 0.53904 0.64959 0.37526 0.0
C1257 C 0.52744 0.63572 0.35311 0.0
C1258 C 0.5377 0.63136 0.32379 0.0
C1259 C 0.66709 0.61895 0.22889 0.0
C1260 C 0.67273 0.59584 0.23724 0.0
C1261 C 0.64558 0.62853 0.23736 0.0
C1262 C 0.62914 0.61506 0.25388 0.0
C1263 C 0.63545 0.59272 0.26469 0.0
C1264 C 0.65721 0.58317 0.25651 0.0
C1265 C 0.60447 0.62292 0.255 0.0
C1266 C 0.59362 0.62763 0.28399 0.0
C1267 C 0.59189 0.6265 0.22677 0.0
C1268 C 0.60178 0.62072 0.19552 0.0
C1269 C 0.60772 0.59753 0.18813 0.0
C1270 C 0.61617 0.59197 0.15819 0.0
C1271 C 0.61886 0.60952 0.1355 0.0
C1272 C 0.6131 0.63266 0.14275 0.0
C1273 C 0.60448 0.63827 0.17261 0.0
H1274 H 0.62526 0.60524 0.11223 0.0
H1275 H 0.53107 0.65295 0.39795 0.0
H1276 H 0.35986 0.6831 0.19676 0.0
H1277 H 0.34044 0.64794 0.21511 0.0
H1278 H 0.39668 0.63534 0.28083 0.0
H1279 H 0.41674 0.67045 0.26184 0.0
H1280 H 0.39039 0.59854 0.24716 0.0
H1281 H 0.33946 0.64463 0.30721 0.0
H1282 H 0.31343 0.67753 0.32068 0.0
H1283 H 0.26513 0.65617 0.24875 0.0
H1284 H 0.291 0.62333 0.23448 0.0
H1285 H 0.28657 0.5076 0.26269 0.0
H1286 H 0.30619 0.54307 0.28174 0.0
H1287 H 0.34371 0.54826 0.19379 0.0
H1288 H 0.32465 0.51284 0.17496 0.0
H1289 H 0.30497 0.58656 0.26056 0.0
H1290 H 0.39653 0.56957 0.20295 0.0
H1291 H 0.42284 0.5361 0.19352 0.0
H1292 H 0.391 0.49862 0.26999 0.0
H1293 H 0.36474 0.53199 0.28024 0.0
C1294 C 0.36793 0.67323 0.21565 0.0
C1295 C 0.39005 0.67948 0.2275 0.0
C1296 C 0.35663 0.65315 0.22638 0.0
C1297 C 0.36701 0.63898 0.2495 0.0
C1298 C 0.38833 0.64602 0.26298 0.0
C1299 C 0.39974 0.66615 0.25215 0.0
C1300 C 0.3572 0.61535 0.25569 0.0
C1301 C 0.37176 0.59592 0.25065 0.0
C1302 C 0.33303 0.61179 0.26126 0.0
C1303 C 0.31724 0.63148 0.26975 0.0
C1304 C 0.32335 0.647 0.29413 0.0
C1305 C 0.30861 0.66565 0.30192 0.0
C1306 C 0.28764 0.66894 0.28558 0.0
C1307 C 0.28136 0.65357 0.26142 0.0
C1308 C 0.29604 0.6349 0.25352 0.0
C1309 C 0.29915 0.51624 0.24756 0.0
C1310 C 0.30412 0.50741 0.21735 0.0
C1311 C 0.31031 0.53649 0.25847 0.0
C1312 C 0.32668 0.5481 0.23941 0.0
C1313 C 0.33156 0.5393 0.20923 0.0
C1314 C 0.32051 0.5191 0.19839 0.0
C1315 C 0.33795 0.57015 0.24989 0.0
C1316 C 0.32367 0.58918 0.25806 0.0
C1317 C 0.36247 0.57329 0.24795 0.0
C1318 C 0.37859 0.55331 0.24229 0.0
C1319 C 0.39526 0.55428 0.21794 0.0
C1320 C 0.41014 0.53529 0.2124 0.0
C1321 C 0.40857 0.51524 0.23111 0.0
C1322 C 0.39216 0.51415 0.25546 0.0
C1323 C 0.37726 0.53309 0.26113 0.0
H1324 H 0.42008 0.50055 0.22675 0.0
H1325 H 0.27626 0.68339 0.29164 0.0
H1326 H 0.33709 0.4339 0.23586 0.0
H1327 H 0.37579 0.41939 0.25173 0.0
H1328 H 0.36456 0.3566 0.19751 0.0
H1329 H 0.3262 0.37074 0.18158 0.0
H1330 H 0.39423 0.37636 0.28003 0.0
H1331 H 0.41233 0.35101 0.15021 0.0
H1332 H 0.40061 0.36327 0.09678 0.0
H1333 H 0.38529 0.4323 0.13094 0.0
H1334 H 0.39742 0.42062 0.18444 0.0
H1335 H 0.48562 0.29344 0.26 0.0
H1336 H 0.45035 0.31744 0.26416 0.0
H1337 H 0.48497 0.37319 0.21374 0.0
H1338 H 0.5199 0.34889 0.20847 0.0
H1339 H 0.44602 0.36491 0.18745 0.0
H1340 H 0.46842 0.37789 0.29374 0.0
H1341 H 0.48139 0.36755 0.34736 0.0
H1342 H 0.41854 0.32775 0.36161 0.0
H1343 H 0.40532 0.33757 0.30791 0.0
C1344 C 0.34265 0.41677 0.22791 0.0
C1345 C 0.32871 0.40365 0.20703 0.0
C1346 C 0.36473 0.40852 0.23706 0.0
C1347 C 0.37306 0.38712 0.22537 0.0
C1348 C 0.35849 0.37329 0.20645 0.0
C1349 C 0.33657 0.38147 0.19731 0.0
C1350 C 0.39773 0.38006 0.22982 0.0
C1351 C 0.40572 0.37396 0.25994 0.0
C1352 C 0.41277 0.37756 0.2036 0.0
C1353 C 0.40563 0.38486 0.1714 0.0
C1354 C 0.40658 0.36884 0.1463 0.0
C1355 C 0.39987 0.37569 0.116 0.0
C1356 C 0.39221 0.39854 0.11049 0.0
C1357 C 0.39121 0.4146 0.13526 0.0
C1358 C 0.39799 0.40787 0.16559 0.0
C1359 C 0.48581 0.31096 0.25028 0.0
C1360 C 0.50537 0.31922 0.2336 0.0
C1361 C 0.46569 0.32476 0.25288 0.0
C1362 C 0.465 0.34722 0.23942 0.0
C1363 C 0.48504 0.3559 0.22422 0.0
C1364 C 0.50498 0.34199 0.22118 0.0
C1365 C 0.44263 0.36041 0.23769 0.0
C1366 C 0.43491 0.36762 0.20785 0.0
C1367 C 0.42812 0.36424 0.26429 0.0
C1368 C 0.43594 0.35837 0.29669 0.0
C1369 C 0.45743 0.3668 0.30822 0.0
C1370 C 0.46482 0.36106 0.33865 0.0
C1371 C 0.45081 0.34698 0.35786 0.0
C1372 C 0.42937 0.33866 0.3467 0.0
C1373 C 0.4219 0.34434 0.31628 0.0
H1374 H 0.45657 0.34254 0.38141 0.0
H1375 H 0.38715 0.4038 0.08697 0.0
H1376 H 0.11912 0.25229 0.2866 0.0
H1377 H 0.14246 0.28683 0.27512 0.0
H1378 H 0.08023 0.32415 0.24687 0.0
H1379 H 0.0566 0.28909 0.25768 0.0
H1380 H 0.11646 0.33431 0.20874 0.0
H1381 H 0.10343 0.33526 0.31791 0.0
H1382 H 0.10001 0.31922 0.37159 0.0
H1383 H 0.17353 0.30366 0.37225 0.0
H1384 H 0.17734 0.31919 0.31831 0.0
H1385 H 0.20015 0.43043 0.21167 0.0
H1386 H 0.16573 0.40948 0.23216 0.0
H1387 H 0.20576 0.34554 0.23526 0.0
H1388 H 0.23979 0.3661 0.21376 0.0
H1389 H 0.17272 0.35872 0.29169 0.0
H1390 H 0.17915 0.3482 0.17544 0.0
H1391 H 0.18109 0.36472 0.12182 0.0
H1392 H 0.11687 0.40193 0.1379 0.0
H1393 H 0.11475 0.38579 0.19181 0.0
C1394 C 0.11038 0.26777 0.27769 0.0
C1395 C 0.08604 0.26811 0.27331 0.0
C1396 C 0.12372 0.28754 0.27134 0.0
C1397 C 0.11296 0.30825 0.2611 0.0
C1398 C 0.08879 0.30839 0.25515 0.0
C1399 C 0.07537 0.28838 0.26118 0.0
C1400 C 0.12738 0.32951 0.25694 0.0
C1401 C 0.12829 0.34008 0.22716 0.0
C1402 C 0.14264 0.33727 0.28112 0.0
C1403 C 0.14065 0.32837 0.31394 0.0
C1404 C 0.11887 0.32833 0.32942 0.0
C1405 C 0.11685 0.3193 0.3599 0.0
C1406 C 0.13654 0.31041 0.37531 0.0
C1407 C 0.1583 0.31058 0.36029 0.0
C1408 C 0.1604 0.31953 0.32975 0.0
C1409 C 0.20165 0.41202 0.21741 0.0
C1410 C 0.22246 0.39976 0.21123 0.0
C1411 C 0.18206 0.40014 0.22899 0.0
C1412 C 0.18339 0.37608 0.23519 0.0
C1413 C 0.20457 0.36416 0.23074 0.0
C1414 C 0.22389 0.37585 0.2184 0.0
C1415 C 0.16235 0.3625 0.24327 0.0
C1416 C 0.16026 0.35344 0.27377 0.0
C1417 C 0.1457 0.35651 0.22004 0.0
C1418 C 0.14695 0.36605 0.18769 0.0
C1419 C 0.16558 0.36008 0.16762 0.0
C1420 C 0.16668 0.36934 0.13717 0.0
C1421 C 0.14915 0.38444 0.12649 0.0
C1422 C 0.13046 0.39027 0.14623 0.0
C1423 C 0.1293 0.38107 0.17671 0.0
H1424 H 0.14998 0.39155 0.10289 0.0
H1425 H 0.13493 0.3034 0.39891 0.0
H1426 H 0.70321 0.05263 0.27667 0.0
H1427 H 0.66451 0.06957 0.26594 0.0
H1428 H 0.68089 0.12783 0.32678 0.0
H1429 H 0.71871 0.111 0.33822 0.0
H1430 H 0.63713 0.11597 0.33504 0.0
H1431 H 0.68925 0.12843 0.24346 0.0
H1432 H 0.71299 0.11433 0.19873 0.0
H1433 H 0.65334 0.07779 0.16167 0.0
H1434 H 0.62934 0.09153 0.2064 0.0
H1435 H 0.6206 0.22723 0.27452 0.0
H1436 H 0.63163 0.1882 0.29302 0.0
H1437 H 0.57529 0.15792 0.23901 0.0
H1438 H 0.56364 0.19731 0.22134 0.0
H1439 H 0.62369 0.14219 0.22517 0.0
H1440 H 0.57019 0.14654 0.30967 0.0
H1441 H 0.54891 0.16496 0.35367 0.0
H1442 H 0.61338 0.17363 0.40431 0.0
H1443 H 0.63513 0.15561 0.36044 0.0
C1444 C 0.69842 0.06894 0.28793 0.0
C1445 C 0.71422 0.08054 0.30805 0.0
C1446 C 0.6763 0.07857 0.28182 0.0
C1447 C 0.66982 0.10003 0.29545 0.0
C1448 C 0.68534 0.11115 0.31618 0.0
C1449 C 0.70717 0.10155 0.32247 0.0
C1450 C 0.648 0.11247 0.28667 0.0
C1451 C 0.63395 0.1215 0.31097 0.0
C1452 C 0.64322 0.11896 0.25513 0.0
C1453 C 0.65764 0.1107 0.22841 0.0
C1454 C 0.68127 0.11726 0.22585 0.0
C1455 C 0.69475 0.10936 0.20051 0.0
C1456 C 0.6847 0.0951 0.17744 0.0
C1457 C 0.66112 0.08877 0.17961 0.0
C1458 C 0.64758 0.0966 0.20494 0.0
C1459 C 0.61011 0.2123 0.26756 0.0
C1460 C 0.59121 0.21507 0.2469 0.0
C1461 C 0.61635 0.19008 0.27809 0.0
C1462 C 0.60413 0.17028 0.2675 0.0
C1463 C 0.58469 0.17306 0.24768 0.0
C1464 C 0.57804 0.19546 0.23776 0.0
C1465 C 0.6142 0.14697 0.27383 0.0
C1466 C 0.62599 0.13583 0.24906 0.0
C1467 C 0.61725 0.13894 0.305 0.0
C1468 C 0.6043 0.14967 0.33169 0.0
C1469 C 0.57986 0.15248 0.33011 0.0
C1470 C 0.56771 0.16285 0.35505 0.0
C1471 C 0.57978 0.17045 0.38177 0.0
C1472 C 0.60404 0.16768 0.38362 0.0
C1473 C 0.61629 0.15734 0.35874 0.0
H1474 H 0.57034 0.17848 0.40105 0.0
H1475 H 0.69516 0.08901 0.15783 0.0
H1476 H 0.76813 0.63018 0.20909 0.0
H1477 H 0.80484 0.64978 0.2207 0.0
H1478 H 0.83328 0.58557 0.25791 0.0
H1479 H 0.79614 0.56551 0.24636 0.0
H1480 H 0.84509 0.6278 0.29324 0.0
H1481 H 0.85164 0.59775 0.18959 0.0
H1482 H 0.83839 0.58802 0.13594 0.0
H1483 H 0.82914 0.66103 0.11546 0.0
H1484 H 0.84214 0.67121 0.16913 0.0
H1485 H 0.94559 0.70546 0.28503 0.0
H1486 H 0.9251 0.66862 0.27254 0.0
H1487 H 0.86619 0.70814 0.23767 0.0
H1488 H 0.88618 0.74467 0.25103 0.0
H1489 H 0.88043 0.6668 0.20009 0.0
H1490 H 0.86355 0.69378 0.30843 0.0
H1491 H 0.87702 0.70414 0.36185 0.0
H1492 H 0.90692 0.63566 0.37274 0.0
H1493 H 0.894 0.62508 0.31907 0.0
C1494 C 0.78203 0.62018 0.22005 0.0
C1495 C 0.77932 0.5962 0.22643 0.0
C1496 C 0.80303 0.63142 0.22662 0.0
C1497 C 0.82186 0.61896 0.23949 0.0
C1498 C 0.81892 0.59537 0.24773 0.0
C1499 C 0.79772 0.58401 0.24119 0.0
C1500 C 0.84466 0.6309 0.24264 0.0
C1501 C 0.85335 0.63572 0.27284 0.0
C1502 C 0.85543 0.64115 0.21596 0.0
C1503 C 0.84786 0.63523 0.18344 0.0
C1504 C 0.84669 0.61174 0.1737 0.0
C1505 C 0.83922 0.60614 0.14327 0.0
C1506 C 0.8329 0.6239 0.1223 0.0
C1507 C 0.83408 0.6473 0.13171 0.0
C1508 C 0.84157 0.65299 0.16212 0.0
C1509 C 0.9285 0.7061 0.27401 0.0
C1510 C 0.91732 0.72764 0.26882 0.0
C1511 C 0.91686 0.68519 0.267 0.0
C1512 C 0.89423 0.68581 0.25418 0.0
C1513 C 0.88373 0.7074 0.24735 0.0
C1514 C 0.89506 0.72817 0.25503 0.0
C1515 C 0.88009 0.66442 0.25065 0.0
C1516 C 0.87293 0.65798 0.22035 0.0
C1517 C 0.87091 0.65258 0.27717 0.0
C1518 C 0.87808 0.65875 0.30966 0.0
C1519 C 0.87315 0.681 0.32214 0.0
C1520 C 0.88067 0.68691 0.35245 0.0
C1521 C 0.89288 0.67059 0.37065 0.0
C1522 C 0.89751 0.6483 0.35859 0.0
C1523 C 0.8901 0.64235 0.32823 0.0
H1524 H 0.8987 0.67519 0.39411 0.0
H1525 H 0.82711 0.61954 0.09875 0.0
H1526 H 0.28479 0.90976 0.22863 0.0
H1527 H 0.32267 0.89236 0.2158 0.0
H1528 H 0.35361 0.92675 0.29614 0.0
H1529 H 0.31564 0.94444 0.3087 0.0
H1530 H 0.37052 0.90059 0.20722 0.0
H1531 H 0.37846 0.88153 0.33882 0.0
H1532 H 0.35499 0.88067 0.3877 0.0
H1533 H 0.29281 0.86736 0.33378 0.0
H1534 H 0.31597 0.8678 0.28471 0.0
H1535 H 0.44735 0.79916 0.21574 0.0
H1536 H 0.43426 0.83819 0.23315 0.0
H1537 H 0.36373 0.81205 0.24229 0.0
H1538 H 0.37651 0.77357 0.22429 0.0
H1539 H 0.37901 0.84192 0.29275 0.0
H1540 H 0.37491 0.8362 0.1771 0.0
H1541 H 0.39359 0.82973 0.12546 0.0
H1542 H 0.44149 0.88609 0.14353 0.0
H1543 H 0.42312 0.89273 0.19548 0.0
C1544 C 0.29999 0.91459 0.24245 0.0
C1545 C 0.29751 0.92824 0.26962 0.0
C1546 C 0.32163 0.90468 0.23515 0.0
C1547 C 0.34083 0.90802 0.25532 0.0
C1548 C 0.33896 0.92393 0.28039 0.0
C1549 C 0.31732 0.93397 0.28756 0.0
C1550 C 0.36016 0.89087 0.25427 0.0
C1551 C 0.37298 0.88819 0.22629 0.0
C1552 C 0.3631 0.87444 0.27898 0.0
C1553 C 0.34888 0.87507 0.30816 0.0
C1554 C 0.35977 0.87853 0.33745 0.0
C1555 C 0.34654 0.87802 0.36516 0.0
C1556 C 0.32245 0.87389 0.36382 0.0
C1557 C 0.31148 0.87051 0.33476 0.0
C1558 C 0.32463 0.87094 0.307 0.0
C1559 C 0.42918 0.80177 0.22216 0.0
C1560 C 0.41285 0.78356 0.21873 0.0
C1561 C 0.42177 0.82396 0.23196 0.0
C1562 C 0.39809 0.82784 0.23902 0.0
C1563 C 0.38211 0.80928 0.23714 0.0
C1564 C 0.38937 0.7874 0.22676 0.0
C1565 C 0.38894 0.85145 0.2456 0.0
C1566 C 0.37784 0.85521 0.27453 0.0
C1567 C 0.38712 0.86844 0.22153 0.0
C1568 C 0.39785 0.86479 0.1902 0.0
C1569 C 0.38951 0.84711 0.17009 0.0
C1570 C 0.40003 0.84342 0.14079 0.0
C1571 C 0.4188 0.85741 0.13126 0.0
C1572 C 0.42699 0.87522 0.15098 0.0
C1573 C 0.41653 0.87897 0.18034 0.0
H1574 H 0.42695 0.8545 0.10858 0.0
H1575 H 0.3123 0.87322 0.38532 0.0
H1576 H 0.25036 0.63525 0.76445 0.0
H1577 H 0.21678 0.65691 0.74398 0.0
H1578 H 0.17627 0.59326 0.74118 0.0
H1579 H 0.21006 0.57127 0.76124 0.0
H1580 H 0.1875 0.65039 0.68788 0.0
H1581 H 0.12215 0.61135 0.77222 0.0
H1582 H 0.1206 0.5896 0.82248 0.0
H1583 H 0.18248 0.62512 0.8542 0.0
H1584 H 0.18438 0.647 0.80424 0.0
H1585 H 0.0653 0.71055 0.71787 0.0
H1586 H 0.09024 0.67588 0.72515 0.0
H1587 H 0.15166 0.71879 0.71202 0.0
H1588 H 0.12702 0.75295 0.70366 0.0
H1589 H 0.12348 0.66319 0.76508 0.0
H1590 H 0.19252 0.69275 0.67084 0.0
H1591 H 0.19273 0.71416 0.62042 0.0
H1592 H 0.12057 0.69634 0.60547 0.0
H1593 H 0.12003 0.67439 0.65544 0.0
C1594 C 0.23443 0.62579 0.75898 0.0
C1595 C 0.23277 0.60161 0.7645 0.0
C1596 C 0.21533 0.63815 0.74716 0.0
C1597 C 0.19412 0.62664 0.74121 0.0
C1598 C 0.19257 0.60237 0.74564 0.0
C1599 C 0.21186 0.58988 0.75698 0.0
C1600 C 0.17334 0.64068 0.73295 0.0
C1601 C 0.1734 0.65318 0.70457 0.0
C1602 C 0.15453 0.64347 0.75426 0.0
C1603 C 0.15353 0.63056 0.78443 0.0
C1604 C 0.13542 0.61447 0.78997 0.0
C1605 C 0.13451 0.6021 0.81837 0.0
C1606 C 0.15153 0.60585 0.84147 0.0
C1607 C 0.16945 0.62205 0.83624 0.0
C1608 C 0.17047 0.6344 0.80786 0.0
C1609 C 0.08415 0.7125 0.71685 0.0
C1610 C 0.09429 0.7343 0.70986 0.0
C1611 C 0.09833 0.69273 0.72088 0.0
C1612 C 0.12277 0.69465 0.71817 0.0
C1613 C 0.13283 0.71673 0.71311 0.0
C1614 C 0.11874 0.73628 0.70858 0.0
C1615 C 0.13814 0.67385 0.72052 0.0
C1616 C 0.13707 0.66 0.74776 0.0
C1617 C 0.15577 0.66948 0.69778 0.0
C1618 C 0.15623 0.68197 0.66704 0.0
C1619 C 0.17676 0.69317 0.65666 0.0
C1620 C 0.17692 0.70545 0.62817 0.0
C1621 C 0.15667 0.70664 0.60978 0.0
C1622 C 0.13624 0.69544 0.61975 0.0
C1623 C 0.136 0.68307 0.64816 0.0
H1624 H 0.15682 0.71622 0.58778 0.0
H1625 H 0.1508 0.59629 0.86346 0.0
H1626 H 0.43188 0.2097 0.76573 0.0
H1627 H 0.41465 0.1729 0.74734 0.0
H1628 H 0.36797 0.17256 0.82719 0.0
H1629 H 0.38505 0.20898 0.84587 0.0
H1630 H 0.38403 0.12808 0.81247 0.0
H1631 H 0.3504 0.19616 0.7593 0.0
H1632 H 0.35286 0.23181 0.72666 0.0
H1633 H 0.38334 0.19204 0.65126 0.0
H1634 H 0.38133 0.15621 0.68367 0.0
H1635 H 0.276 0.07692 0.76974 0.0
H1636 H 0.31112 0.09712 0.78821 0.0
H1637 H 0.34003 0.09435 0.69427 0.0
H1638 H 0.30438 0.07561 0.67553 0.0
H1639 H 0.3405 0.13603 0.71199 0.0
H1640 H 0.36603 0.06595 0.7612 0.0
H1641 H 0.36328 0.03027 0.79366 0.0
H1642 H 0.34886 0.07197 0.87552 0.0
H1643 H 0.35118 0.10789 0.8435 0.0
C1644 C 0.41815 0.20164 0.77958 0.0
C1645 C 0.4096 0.21251 0.807 0.0
C1646 C 0.40839 0.1806 0.76909 0.0
C1647 C 0.38995 0.17015 0.78584 0.0
C1648 C 0.38224 0.18031 0.814 0.0
C1649 C 0.39189 0.2013 0.82444 0.0
C1650 C 0.37679 0.15018 0.77259 0.0
C1651 C 0.37452 0.12963 0.79046 0.0
C1652 C 0.36494 0.15211 0.74351 0.0
C1653 C 0.36599 0.17361 0.72401 0.0
C1654 C 0.35778 0.19507 0.73584 0.0
C1655 C 0.35907 0.21529 0.71739 0.0
C1656 C 0.36832 0.21421 0.68695 0.0
C1657 C 0.37624 0.19287 0.67487 0.0
C1658 C 0.37502 0.17261 0.69326 0.0
C1659 C 0.29016 0.08006 0.75331 0.0
C1660 C 0.28745 0.0749 0.72121 0.0
C1661 C 0.31033 0.09149 0.76389 0.0
C1662 C 0.32834 0.09726 0.74265 0.0
C1663 C 0.32635 0.09025 0.71108 0.0
C1664 C 0.30598 0.07947 0.70038 0.0
C1665 C 0.34724 0.11369 0.75204 0.0
C1666 C 0.35049 0.13382 0.73352 0.0
C1667 C 0.36002 0.11121 0.78043 0.0
C1668 C 0.35866 0.08964 0.79986 0.0
C1669 C 0.36211 0.06752 0.78608 0.0
C1670 C 0.36066 0.04724 0.80442 0.0
C1671 C 0.35587 0.04885 0.83662 0.0
C1672 C 0.35258 0.07075 0.85057 0.0
C1673 C 0.354 0.09108 0.83234 0.0
H1674 H 0.35475 0.03313 0.85077 0.0
H1675 H 0.36931 0.22988 0.67269 0.0
H1676 H 0.86965 0.26448 0.70891 0.0
H1677 H 0.85177 0.30189 0.72156 0.0
H1678 H 0.91946 0.33034 0.74529 0.0
H1679 H 0.93769 0.29246 0.7329 0.0
H1680 H 0.88509 0.34445 0.78642 0.0
H1681 H 0.89722 0.34668 0.67746 0.0
H1682 H 0.89865 0.33113 0.62337 0.0
H1683 H 0.82396 0.32287 0.62349 0.0
H1684 H 0.82208 0.33802 0.6778 0.0
H1685 H 0.78465 0.43594 0.74913 0.0
H1686 H 0.82177 0.41799 0.73263 0.0
H1687 H 0.81029 0.36132 0.79797 0.0
H1688 H 0.77379 0.37885 0.8146 0.0
H1689 H 0.83025 0.37581 0.70603 0.0
H1690 H 0.85831 0.34473 0.8326 0.0
H1691 H 0.85784 0.36071 0.88651 0.0
H1692 H 0.85597 0.43063 0.84956 0.0
H1693 H 0.85685 0.41512 0.79541 0.0
C1694 C 0.88079 0.27858 0.71706 0.0
C1695 C 0.90511 0.2756 0.71962 0.0
C1696 C 0.87056 0.3 0.72409 0.0
C1697 C 0.88441 0.31902 0.73343 0.0
C1698 C 0.90856 0.31589 0.7377 0.0
C1699 C 0.91889 0.29426 0.7308 0.0
C1700 C 0.87307 0.34194 0.73851 0.0
C1701 C 0.8734 0.35166 0.76879 0.0
C1702 C 0.85872 0.35197 0.71491 0.0
C1703 C 0.85952 0.34354 0.68178 0.0
C1704 C 0.88109 0.34151 0.666 0.0
C1705 C 0.88198 0.33273 0.63529 0.0
C1706 C 0.86141 0.326 0.62 0.0
C1707 C 0.83988 0.32813 0.63535 0.0
C1708 C 0.83888 0.33688 0.66609 0.0
C1709 C 0.79008 0.41965 0.75994 0.0
C1710 C 0.77623 0.40889 0.78325 0.0
C1711 C 0.8113 0.40952 0.75059 0.0
C1712 C 0.81902 0.38867 0.76467 0.0
C1713 C 0.805 0.37778 0.78744 0.0
C1714 C 0.78394 0.38776 0.79669 0.0
C1715 C 0.84085 0.37695 0.75469 0.0
C1716 C 0.84258 0.36934 0.7234 0.0
C1717 C 0.8575 0.3693 0.77717 0.0
C1718 C 0.85764 0.37872 0.80984 0.0
C1719 C 0.85806 0.36352 0.83591 0.0
C1720 C 0.85765 0.3725 0.86655 0.0
C1721 C 0.85686 0.39666 0.87146 0.0
C1722 C 0.85654 0.41191 0.84573 0.0
C1723 C 0.85698 0.40303 0.81506 0.0
H1724 H 0.85648 0.40358 0.89519 0.0
H1725 H 0.86215 0.31913 0.59626 0.0
H1726 H 0.69439 0.94977 0.7266 0.0
H1727 H 0.65429 0.93548 0.73612 0.0
H1728 H 0.68222 0.86919 0.76701 0.0
H1729 H 0.72195 0.88309 0.75655 0.0
H1730 H 0.63734 0.89343 0.70353 0.0
H1731 H 0.64793 0.85172 0.82821 0.0
H1732 H 0.66564 0.86208 0.87928 0.0
H1733 H 0.65986 0.9351 0.85674 0.0
H1734 H 0.64178 0.92523 0.80573 0.0
H1735 H 0.60414 0.77891 0.73098 0.0
H1736 H 0.61841 0.81859 0.7212 0.0
H1737 H 0.56509 0.84625 0.78288 0.0
H1738 H 0.55058 0.80636 0.79223 0.0
H1739 H 0.60881 0.85694 0.80235 0.0
H1740 H 0.56619 0.86618 0.70865 0.0
H1741 H 0.54904 0.8554 0.65739 0.0
H1742 H 0.61781 0.8479 0.61791 0.0
H1743 H 0.63542 0.85826 0.66902 0.0
C1744 C 0.69183 0.93241 0.73629 0.0
C1745 C 0.71102 0.91748 0.74115 0.0
C1746 C 0.66904 0.92427 0.74152 0.0
C1747 C 0.66541 0.90139 0.75247 0.0
C1748 C 0.68473 0.88701 0.75895 0.0
C1749 C 0.70735 0.8949 0.75299 0.0
C1750 C 0.64178 0.89101 0.75376 0.0
C1751 C 0.63068 0.8858 0.72514 0.0
C1752 C 0.6329 0.88168 0.78214 0.0
C1753 C 0.64349 0.88771 0.81306 0.0
C1754 C 0.65024 0.87 0.83422 0.0
C1755 C 0.66041 0.87579 0.86315 0.0
C1756 C 0.66389 0.89923 0.87124 0.0
C1757 C 0.6572 0.91694 0.85042 0.0
C1758 C 0.64702 0.91126 0.82147 0.0
C1759 C 0.59487 0.7936 0.74124 0.0
C1760 C 0.57624 0.78986 0.76204 0.0
C1761 C 0.60295 0.81624 0.73566 0.0
C1762 C 0.59271 0.8354 0.75119 0.0
C1763 C 0.57308 0.83174 0.77046 0.0
C1764 C 0.56479 0.80905 0.77572 0.0
C1765 C 0.60542 0.85796 0.7518 0.0
C1766 C 0.61464 0.86532 0.78081 0.0
C1767 C 0.61256 0.86923 0.72375 0.0
C1768 C 0.60214 0.86303 0.69278 0.0
C1769 C 0.57768 0.86211 0.6891 0.0
C1770 C 0.56787 0.85608 0.66005 0.0
C1771 C 0.58233 0.85098 0.63441 0.0
C1772 C 0.60663 0.8519 0.63778 0.0
C1773 C 0.61654 0.85792 0.66678 0.0
H1774 H 0.57469 0.8463 0.61194 0.0
H1775 H 0.67178 0.90366 0.89364 0.0
H1776 H 0.00783 0.19831 0.37101 0.0
H1777 H 0.9944 0.2044 0.42499 0.0
H1778 H 0.00102 0.27914 0.4129 0.0
H1779 H 0.01486 0.27289 0.35853 0.0
H1780 H 0.02026 0.26399 0.46849 0.0
H1781 H 0.94792 0.25498 0.4148 0.0
H1782 H 0.91898 0.23722 0.379 0.0
H1783 H 0.91878 0.17452 0.43473 0.0
H1784 H 0.94804 0.1917 0.47057 0.0
H1785 H 0.96683 0.27413 0.62167 0.0
H1786 H 0.97552 0.27906 0.56525 0.0
H1787 H 0.97162 0.20418 0.55264 0.0
H1788 H 0.963 0.19938 0.60865 0.0
H1789 H 0.94798 0.22631 0.50789 0.0
H1790 H 0.02366 0.23197 0.55568 0.0
H1791 H 0.05369 0.24779 0.59156 0.0
H1792 H 0.04785 0.31515 0.54739 0.0
H1793 H 0.0175 0.2998 0.51154 0.0
C1794 C 0.0065 0.21601 0.38001 0.0
C1795 C 0.01293 0.23514 0.36132 0.0
C1796 C 0.9986 0.2195 0.41063 0.0
C1797 C 0.99656 0.24224 0.42282 0.0
C1798 C 0.00251 0.26148 0.40386 0.0
C1799 C 0.01035 0.25794 0.373 0.0
C1800 C 0.98883 0.24547 0.45573 0.0
C1801 C 0.00414 0.2563 0.47708 0.0
C1802 C 0.96796 0.2351 0.46688 0.0
C1803 C 0.95037 0.22461 0.44527 0.0
C1804 C 0.94189 0.23732 0.41928 0.0
C1805 C 0.92539 0.22736 0.39899 0.0
C1806 C 0.91708 0.20473 0.40454 0.0
C1807 C 0.92524 0.19203 0.43043 0.0
C1808 C 0.94178 0.20189 0.45076 0.0
C1809 C 0.96774 0.25886 0.60662 0.0
C1810 C 0.96354 0.23647 0.61892 0.0
C1811 C 0.97278 0.26164 0.57459 0.0
C1812 C 0.9742 0.24197 0.55481 0.0
C1813 C 0.97041 0.21959 0.56742 0.0
C1814 C 0.96534 0.21686 0.59928 0.0
C1815 C 0.97944 0.24441 0.52084 0.0
C1816 C 0.96368 0.23461 0.49929 0.0
C1817 C -8e-05 0.25555 0.50963 0.0
C1818 C 0.01805 0.26484 0.53127 0.0
C1819 C 0.02859 0.25022 0.55385 0.0
C1820 C 0.04571 0.25908 0.57413 0.0
C1821 C 0.0526 0.28248 0.57184 0.0
C1822 C 0.04244 0.29704 0.5492 0.0
C1823 C 0.02528 0.28828 0.5289 0.0
H1824 H 0.06588 0.2893 0.58754 0.0
H1825 H 0.90429 0.19706 0.38882 0.0
H1826 H 0.80264 0.9639 0.63775 0.0
H1827 H 0.80135 0.97651 0.5826 0.0
H1828 H 0.72798 0.99289 0.5924 0.0
H1829 H 0.72937 0.98045 0.64795 0.0
H1830 H 0.73985 0.96572 0.53777 0.0
H1831 H 0.76326 0.03589 0.5905 0.0
H1832 H 0.78705 0.06018 0.62625 0.0
H1833 H 0.8484 0.04549 0.57131 0.0
H1834 H 0.82507 0.02075 0.53552 0.0
H1835 H 0.73226 0.01936 0.38776 0.0
H1836 H 0.72979 0.00907 0.44365 0.0
H1837 H 0.80528 0.01069 0.44997 0.0
H1838 H 0.80748 0.02248 0.39456 0.0
H1839 H 0.78986 0.03008 0.49808 0.0
H1840 H 0.77021 0.9581 0.44838 0.0
H1841 H 0.74917 0.93114 0.41297 0.0
H1842 H 0.68482 0.94553 0.46151 0.0
H1843 H 0.70543 0.97284 0.49695 0.0
C1844 C 0.78624 0.97007 0.62797 0.0
C1845 C 0.76594 0.97069 0.64647 0.0
C1846 C 0.78556 0.97742 0.59668 0.0
C1847 C 0.76458 0.98565 0.58357 0.0
C1848 C 0.74429 0.98653 0.60218 0.0
C1849 C 0.74508 0.97946 0.63371 0.0
C1850 C 0.76399 0.99303 0.55025 0.0
C1851 C 0.75053 0.97998 0.529 0.0
C1852 C 0.77834 0.01134 0.53899 0.0
C1853 C 0.79244 0.02622 0.56053 0.0
C1854 C 0.78187 0.03762 0.58622 0.0
C1855 C 0.79527 0.05152 0.60646 0.0
C1856 C 0.81924 0.05431 0.60112 0.0
C1857 C 0.82984 0.04327 0.57546 0.0
C1858 C 0.81653 0.02931 0.55518 0.0
C1859 C 0.74823 0.01761 0.40132 0.0
C1860 C 0.76999 0.02231 0.38749 0.0
C1861 C 0.74687 0.01147 0.4331 0.0
C1862 C 0.76736 0.00876 0.45109 0.0
C1863 C 0.7892 0.01278 0.43675 0.0
C1864 C 0.79049 0.01954 0.4052 0.0
C1865 C 0.76609 0.0025 0.48505 0.0
C1866 C 0.77913 0.01583 0.50658 0.0
C1867 C 0.75181 0.98406 0.49645 0.0
C1868 C 0.73932 0.96775 0.47506 0.0
C1869 C 0.75153 0.95569 0.45132 0.0
C1870 C 0.73969 0.94031 0.43128 0.0
C1871 C 0.71566 0.93669 0.43492 0.0
C1872 C 0.70343 0.94839 0.45867 0.0
C1873 C 0.71518 0.96382 0.47875 0.0
H1874 H 0.70652 0.92476 0.41939 0.0
H1875 H 0.82958 0.06506 0.61683 0.0
H1876 H 0.01469 0.80999 0.62049 0.0
H1877 H 0.00158 0.80638 0.56585 0.0
H1878 H 0.00877 0.73129 0.57163 0.0
H1879 H 0.0222 0.73503 0.62653 0.0
H1880 H 0.02856 0.74848 0.51857 0.0
H1881 H 0.95533 0.75615 0.57056 0.0
H1882 H 0.92585 0.77311 0.60626 0.0
H1883 H 0.92664 0.83711 0.55326 0.0
H1884 H 0.95644 0.8207 0.51753 0.0
H1885 H 0.97749 0.73644 0.36607 0.0
H1886 H 0.98551 0.73295 0.42274 0.0
H1887 H 0.97859 0.80783 0.43265 0.0
H1888 H 0.97039 0.81119 0.3762 0.0
H1889 H 0.95637 0.78617 0.47878 0.0
H1890 H 0.03202 0.78153 0.43147 0.0
H1891 H 0.06252 0.76641 0.39578 0.0
H1892 H 0.05798 0.69889 0.43979 0.0
H1893 H 0.02718 0.71354 0.47547 0.0
C1894 C 0.01351 0.79275 0.60995 0.0
C1895 C 0.02002 0.77282 0.62703 0.0
C1896 C 0.00578 0.79066 0.57895 0.0
C1897 C 0.00406 0.76854 0.56475 0.0
C1898 C 0.01001 0.7485 0.58217 0.0
C1899 C 0.01764 0.75062 0.61336 0.0
C1900 C 0.99696 0.76668 0.53131 0.0
C1901 C 0.01255 0.75632 0.50991 0.0
C1902 C 0.97622 0.77724 0.51999 0.0
C1903 C 0.95833 0.78724 0.54153 0.0
C1904 C 0.9494 0.77392 0.56668 0.0
C1905 C 0.93259 0.78343 0.5869 0.0
C1906 C 0.92443 0.8062 0.58208 0.0
C1907 C 0.93301 0.81949 0.55699 0.0
C1908 C 0.94986 0.81008 0.53674 0.0
C1909 C 0.97755 0.75204 0.38056 0.0
C1910 C 0.97265 0.77397 0.3673 0.0
C1911 C 0.98224 0.75009 0.41277 0.0
C1912 C 0.98273 0.77015 0.43189 0.0
C1913 C 0.97813 0.79211 0.4184 0.0
C1914 C 0.97334 0.79402 0.38629 0.0
C1915 C 0.9881 0.76841 0.46596 0.0
C1916 C 0.97218 0.77805 0.48746 0.0
C1917 C 0.00863 0.75744 0.47732 0.0
C1918 C 0.02706 0.74854 0.45583 0.0
C1919 C 0.03735 0.76339 0.43332 0.0
C1920 C 0.05473 0.75492 0.41314 0.0
C1921 C 0.06212 0.73168 0.41543 0.0
C1922 C 0.05219 0.71688 0.43799 0.0
C1923 C 0.03478 0.72525 0.4582 0.0
H1924 H 0.07558 0.72515 0.3998 0.0
H1925 H 0.9114 0.81352 0.59775 0.0
H1926 H 0.19582 0.02939 0.62206 0.0
H1927 H 0.19816 0.01496 0.56837 0.0
H1928 H 0.26286 0.97941 0.59109 0.0
H1929 H 0.26181 0.99671 0.64387 0.0
H1930 H 0.26959 0.99527 0.54012 0.0
H1931 H 0.20426 0.95135 0.575 0.0
H1932 H 0.16607 0.94367 0.60004 0.0
H1933 H 0.13226 0.98847 0.53277 0.0
H1934 H 0.17029 0.99665 0.50755 0.0
H1935 H 0.20976 0.93958 0.38686 0.0
H1936 H 0.21207 0.94393 0.44355 0.0
H1937 H 0.264 0.99828 0.43065 0.0
H1938 H 0.2658 0.98893 0.37486 0.0
H1939 H 0.20018 0.97025 0.47906 0.0
H1940 H 0.28854 0.01898 0.49133 0.0
H1941 H 0.3291 0.01731 0.47134 0.0
H1942 H 0.32139 0.94385 0.45282 0.0
H1943 H 0.28068 0.94524 0.47277 0.0
C1944 C 0.21078 0.01892 0.61521 0.0
C1945 C 0.22934 0.01529 0.63615 0.0
C1946 C 0.2118 0.01 0.58473 0.0
C1947 C 0.23065 0.99584 0.57527 0.0
C1948 C 0.24833 0.99065 0.59734 0.0
C1949 C 0.24771 0.00038 0.62754 0.0
C1950 C 0.23264 0.98774 0.542 0.0
C1951 C 0.25446 0.98929 0.52696 0.0
C1952 C 0.21313 0.97964 0.52456 0.0
C1953 C 0.19015 0.9747 0.5395 0.0
C1954 C 0.18869 0.95964 0.56564 0.0
C1955 C 0.16707 0.9552 0.57986 0.0
C1956 C 0.14676 0.9656 0.56803 0.0
C1957 C 0.14801 0.98042 0.5419 0.0
C1958 C 0.16958 0.98493 0.5276 0.0
C1959 C 0.22316 0.95077 0.39662 0.0
C1960 C 0.23917 0.96206 0.37689 0.0
C1961 C 0.22383 0.95421 0.42912 0.0
C1962 C 0.23881 0.9711 0.4425 0.0
C1963 C 0.25346 0.98393 0.4221 0.0
C1964 C 0.25414 0.97895 0.38985 0.0
C1965 C 0.23754 0.9764 0.4771 0.0
C1966 C 0.21564 0.97511 0.49228 0.0
C1967 C 0.25736 0.98297 0.49529 0.0
C1968 C 0.28156 0.98223 0.4829 0.0
C1969 C 0.29551 0.0025 0.48287 0.0
C1970 C 0.31847 0.00163 0.47153 0.0
C1971 C 0.32773 0.98052 0.46054 0.0
C1972 C 0.31407 0.96023 0.46095 0.0
C1973 C 0.29106 0.96106 0.47212 0.0
H1974 H 0.34553 0.97985 0.45186 0.0
H1975 H 0.13004 0.96214 0.57908 0.0
H1976 H 0.54541 0.69917 0.87155 0.0
H1977 H 0.53459 0.70147 0.92685 0.0
H1978 H 0.49401 0.76371 0.90735 0.0
H1979 H 0.50818 0.76322 0.85292 0.0
H1980 H 0.509 0.77021 0.95906 0.0
H1981 H 0.47083 0.70235 0.91925 0.0
H1982 H 0.46707 0.66439 0.89206 0.0
H1983 H 0.51389 0.6329 0.95889 0.0
H1984 H 0.51814 0.67076 0.98627 0.0
H1985 H 0.44717 0.70165 0.10076 0.0
H1986 H 0.45689 0.70574 0.04561 0.0
H1987 H 0.50413 0.76221 0.06977 0.0
H1988 H 0.48889 0.76188 0.12332 0.0
H1989 H 0.48722 0.69733 0.01481 0.0
H1990 H 0.52864 0.78939 0.01127 0.0
H1991 H 0.52286 0.829 0.03317 0.0
H1992 H 0.44941 0.81542 0.04394 0.0
H1993 H 0.45485 0.77565 0.02187 0.0
C1994 C 0.53497 0.71383 0.87952 0.0
C1995 C 0.52875 0.73175 0.85868 0.0
C1996 C 0.52808 0.71476 0.91097 0.0
C1997 C 0.51301 0.73253 0.92162 0.0
C1998 C 0.5059 0.74995 0.90017 0.0
C1999 C 0.5138 0.74961 0.86899 0.0
C2000 C 0.5046 0.73288 0.95491 0.0
C2001 C 0.50374 0.7543 0.97107 0.0
C2002 C 0.49752 0.71229 0.97087 0.0
C2003 C 0.49493 0.68943 0.95464 0.0
C2004 C 0.4804 0.68735 0.92805 0.0
C2005 C 0.47818 0.66585 0.91262 0.0
C2006 C 0.49027 0.64626 0.92371 0.0
C2007 C 0.50455 0.6481 0.95032 0.0
C2008 C 0.50685 0.66956 0.96583 0.0
C2009 C 0.4578 0.71632 0.09354 0.0
C2010 C 0.46517 0.73293 0.11554 0.0
C2011 C 0.46446 0.71806 0.06206 0.0
C2012 C 0.481 0.73487 0.0523 0.0
C2013 C 0.49016 0.75016 0.0753 0.0
C2014 C 0.48179 0.74967 0.10631 0.0
C2015 C 0.48948 0.73504 0.01877 0.0
C2016 C 0.4913 0.71352 0.00274 0.0
C2017 C 0.49547 0.75581 0.00217 0.0
C2018 C 0.49215 0.77952 0.01549 0.0
C2019 C 0.51126 0.79487 0.01836 0.0
C2020 C 0.50807 0.8173 0.0308 0.0
C2021 C 0.48579 0.82463 0.04015 0.0
C2022 C 0.46666 0.80959 0.03695 0.0
C2023 C 0.46978 0.78712 0.02458 0.0
H2024 H 0.48334 0.84201 0.04975 0.0
H2025 H 0.48854 0.62964 0.91171 0.0
H2026 H 0.2196 0.54788 0.86346 0.0
H2027 H 0.20639 0.53788 0.91678 0.0
H2028 H 0.27797 0.53783 0.94886 0.0
H2029 H 0.29124 0.54652 0.89528 0.0
H2030 H 0.22561 0.49392 0.93818 0.0
H2031 H 0.27083 0.55532 0.03107 0.0
H2032 H 0.27162 0.59673 0.04743 0.0
H2033 H 0.20974 0.61015 0.99297 0.0
H2034 H 0.20874 0.56891 0.97599 0.0
H2035 H 0.28218 0.45778 0.08475 0.0
H2036 H 0.27115 0.47272 0.03293 0.0
H2037 H 0.20091 0.48473 0.0662 0.0
H2038 H 0.2115 0.46788 0.11758 0.0
H2039 H 0.23853 0.52532 0.04556 0.0
H2040 H 0.18951 0.46319 0.01488 0.0
H2041 H 0.174 0.42429 0.00121 0.0
H2042 H 0.22888 0.41513 0.93322 0.0
H2043 H 0.24492 0.4539 0.9468 0.0
C2044 C 0.2324 0.54654 0.88221 0.0
C2045 C 0.25639 0.54855 0.87558 0.0
C2046 C 0.22483 0.54102 0.91263 0.0
C2047 C 0.24117 0.53751 0.93685 0.0
C2048 C 0.26505 0.54107 0.93069 0.0
C2049 C 0.27263 0.54611 0.90012 0.0
C2050 C 0.23438 0.52444 0.96546 0.0
C2051 C 0.22827 0.50081 0.96173 0.0
C2052 C 0.23705 0.53368 0.99606 0.0
C2053 C 0.23986 0.55906 0.00202 0.0
C2054 C 0.25761 0.5672 0.0222 0.0
C2055 C 0.25801 0.59061 0.03174 0.0
C2056 C 0.24066 0.60604 0.02139 0.0
C2057 C 0.22316 0.59818 0.00097 0.0
C2058 C 0.22283 0.57484 0.99109 0.0
C2059 C 0.26402 0.46209 0.08036 0.0
C2060 C 0.24743 0.4607 0.10463 0.0
C2061 C 0.25777 0.47083 0.05084 0.0
C2062 C 0.23507 0.47928 0.04554 0.0
C2063 C 0.2183 0.4776 0.06956 0.0
C2064 C 0.22441 0.46819 0.09888 0.0
C2065 C 0.23109 0.4946 0.01809 0.0
C2066 C 0.23564 0.51853 0.022 0.0
C2067 C 0.22634 0.48576 0.98773 0.0
C2068 C 0.21866 0.46132 0.9823 0.0
C2069 C 0.19863 0.45267 0.99759 0.0
C2070 C 0.18955 0.43075 0.98955 0.0
C2071 C 0.20047 0.41722 0.96641 0.0
C2072 C 0.22045 0.42561 0.95118 0.0
C2073 C 0.22957 0.44754 0.95909 0.0
H2074 H 0.19343 0.40023 0.96028 0.0
H2075 H 0.24088 0.62411 0.02898 0.0
H2076 H 0.55354 0.22384 0.13432 0.0
H2077 H 0.54399 0.2186 0.07863 0.0
H2078 H 0.55311 0.29284 0.06361 0.0
H2079 H 0.56481 0.29745 0.11847 0.0
H2080 H 0.50683 0.23342 0.05875 0.0
H2081 H 0.55004 0.31103 0.00172 0.0
H2082 H 0.58799 0.3296 0.98932 0.0
H2083 H 0.6213 0.26226 0.98973 0.0
H2084 H 0.58374 0.24347 0.00377 0.0
H2085 H 0.46468 0.2965 0.90916 0.0
H2086 H 0.48169 0.29096 0.96166 0.0
H2087 H 0.49682 0.21905 0.93884 0.0
H2088 H 0.47818 0.22409 0.88737 0.0
H2089 H 0.53165 0.27297 0.96051 0.0
H2090 H 0.48523 0.1996 0.98367 0.0
H2091 H 0.44982 0.17642 0.99467 0.0
H2092 H 0.42653 0.22861 0.06035 0.0
H2093 H 0.46129 0.25267 0.04838 0.0
C2094 C 0.5546 0.23874 0.1186 0.0
C2095 C 0.5601 0.26095 0.13033 0.0
C2096 C 0.54905 0.23583 0.08681 0.0
C2097 C 0.54763 0.25531 0.06658 0.0
C2098 C 0.55461 0.27733 0.07807 0.0
C2099 C 0.56106 0.28005 0.10964 0.0
C2100 C 0.53434 0.2534 0.03646 0.0
C2101 C 0.51267 0.24169 0.03713 0.0
C2102 C 0.54128 0.26457 0.00822 0.0
C2103 C 0.56428 0.27597 0.00431 0.0
C2104 C 0.56561 0.3003 -0.00015 0.0
C2105 C 0.58702 0.31084 0.9926 0.0
C2106 C 0.60706 0.29711 0.98891 0.0
C2107 C 0.60579 0.27287 0.99295 0.0
C2108 C 0.58455 0.26231 0.00106 0.0
C2109 C 0.47041 0.2792 0.91615 0.0
C2110 C 0.46916 0.26043 0.89494 0.0
C2111 C 0.48025 0.27606 0.946 0.0
C2112 C 0.48962 0.25429 0.95473 0.0
C2113 C 0.4885 0.23556 0.93343 0.0
C2114 C 0.47821 0.23858 0.90384 0.0
C2115 C 0.50463 0.25273 0.98301 0.0
C2116 C 0.52629 0.26425 0.98207 0.0
C2117 C 0.49787 0.24099 0.01081 0.0
C2118 C 0.4754 0.22837 0.01413 0.0
C2119 C 0.47208 0.20663 0.99935 0.0
C2120 C 0.45226 0.19318 0.00609 0.0
C2121 C 0.4359 0.20104 0.02816 0.0
C2122 C 0.43918 0.22254 0.04322 0.0
C2123 C 0.45878 0.23623 0.03615 0.0
H2124 H 0.42069 0.19049 0.03356 0.0
H2125 H 0.62357 0.30525 0.98288 0.0
H2126 H 0.69951 0.47407 0.88687 0.0
H2127 H 0.70488 0.48599 0.94158 0.0
H2128 H 0.77964 0.4892 0.92727 0.0
H2129 H 0.77417 0.47661 0.8722 0.0
H2130 H 0.76828 0.46775 0.98334 0.0
H2131 H 0.74877 0.53882 0.93101 0.0
H2132 H 0.72658 0.56521 0.89609 0.0
H2133 H 0.66515 0.55576 0.95293 0.0
H2134 H 0.68683 0.52898 0.98789 0.0
H2135 H 0.77812 0.52609 0.13372 0.0
H2136 H 0.78139 0.51377 0.07831 0.0
H2137 H 0.70596 0.51308 0.07099 0.0
H2138 H 0.7029 0.52624 0.12546 0.0
H2139 H 0.72207 0.53431 0.02417 0.0
H2140 H 0.74103 0.4621 0.07409 0.0
H2141 H 0.76254 0.4353 0.10923 0.0
H2142 H 0.82595 0.4484 0.05785 0.0
H2143 H 0.80487 0.47556 0.02266 0.0
C2144 C 0.71708 0.47713 0.89556 0.0
C2145 C 0.7365 0.47382 0.87597 0.0
C2146 C 0.72014 0.48414 0.92664 0.0
C2147 C 0.74266 0.48858 0.93841 0.0
C2148 C 0.76215 0.48574 0.91862 0.0
C2149 C 0.75904 0.47868 0.88732 0.0
C2150 C 0.74541 0.49638 0.9714 0.0
C2151 C 0.75878 0.48278 0.99227 0.0
C2152 C 0.73261 0.51566 0.98301 0.0
C2153 C 0.71941 0.53171 0.96194 0.0
C2154 C 0.73047 0.54219 0.93591 0.0
C2155 C 0.71799 0.55725 0.91613 0.0
C2156 C 0.69446 0.56211 0.92224 0.0
C2157 C 0.68337 0.55195 0.94819 0.0
C2158 C 0.69575 0.53684 0.96801 0.0
C2159 C 0.76237 0.52326 0.12003 0.0
C2160 C 0.7403 0.52764 0.13322 0.0
C2161 C 0.76419 0.51604 0.08859 0.0
C2162 C 0.7439 0.51236 0.07046 0.0
C2163 C 0.72187 0.51594 0.08433 0.0
C2164 C 0.72011 0.52354 0.11536 0.0
C2165 C 0.74526 0.50624 0.03652 0.0
C2166 C 0.73241 0.51998 0.01536 0.0
C2167 C 0.75872 0.48734 0.02482 0.0
C2168 C 0.77144 0.47111 0.04602 0.0
C2169 C 0.75961 0.45945 0.07048 0.0
C2170 C 0.77172 0.44415 0.09036 0.0
C2171 C 0.79562 0.44022 0.08584 0.0
C2172 C 0.80745 0.45151 0.06137 0.0
C2173 C 0.79543 0.46685 0.04144 0.0
H2174 H 0.80496 0.42836 0.10125 0.0
H2175 H 0.68483 0.57379 0.90691 0.0
loop_
_geom_bond_atom_site_label_1
_geom_bond_atom_site_label_2
_geom_bond_distance
_geom_bond_site_symmetry_2
_ccdc_geom_bond_type
Mn0 O5 2.095 . S
Mn0 O15 2.162 1_455 S
Mn0 O16 2.274 1_455 S
Mn0 O24 2.385 . S
Mn0 O25 2.209 . S
Mn0 O26 2.094 . S
Mn1 O6 2.121 . S
Mn1 N8 2.257 . S
Mn1 N17 2.282 . S
Mn1 O25 2.215 . S
Mn1 O27 2.117 . S
C2 O24 1.234 . S
C2 O25 1.283 . S
C3 O15 1.281 . S
C3 O16 1.254 . S
C4 O26 1.240 . S
C4 O27 1.264 . S
O5 Mn0 2.095 . S
O5 C14 1.250 . S
O6 Mn1 2.121 . S
O6 C14 1.258 . S
C7 N8 1.326 . S
C7 C11 1.460 . S
C7 H13 0.929 . S
N8 Mn1 2.257 . S
N8 C7 1.326 . S
N8 C12 1.362 . S
C9 C10 1.258 . S
C9 C12 1.431 . S
C9 C29 1.449 . S
C10 C9 1.258 . S
C10 C11 1.477 . S
C10 H30 0.931 . S
C11 C7 1.460 . S
C11 C10 1.477 . S
C11 H31 0.930 . S
C12 N8 1.362 . S
C12 C9 1.431 . S
C12 C22 1.476 . S
H13 C7 0.929 . S
C14 O5 1.250 . S
C14 O6 1.258 . S
O15 Mn0 2.162 1_655 S
O15 C3 1.281 . S
O16 Mn0 2.274 1_655 S
O16 C3 1.254 . S
N17 Mn1 2.282 . S
N17 C18 1.328 . S
N17 C22 1.318 . S
C18 N17 1.328 . S
C18 C19 1.457 . S
C18 H23 0.929 . S
C19 C18 1.457 . S
C19 C20 1.291 . S
C19 H32 0.931 . S
C20 C19 1.291 . S
C20 C21 1.373 . S
C20 H33 0.929 . S
C21 C20 1.373 . S
C21 C22 1.396 . S
C21 C28 1.403 . S
C22 C12 1.476 . S
C22 N17 1.318 . S
C22 C21 1.396 . S
H23 C18 0.929 . S
O24 Mn0 2.385 . S
O24 C2 1.234 . S
O25 Mn0 2.209 . S
O25 Mn1 2.215 . S
O25 C2 1.283 . S
O26 Mn0 2.094 . S
O26 C4 1.240 . S
O27 Mn1 2.117 . S
O27 C4 1.264 . S
C28 C21 1.403 . S
C28 C29 1.399 . S
C28 H34 0.929 . S
C29 C9 1.449 . S
C29 C28 1.399 . S
C29 H35 0.930 . S
H30 C10 0.931 . S
H31 C11 0.930 . S
H32 C19 0.931 . S
H33 C20 0.929 . S
H34 C28 0.929 . S
H35 C29 0.930 . S
Mn36 O41 2.095 . S
Mn36 O51 2.162 1_545 S
Mn36 O52 2.274 1_545 S
Mn36 O60 2.385 . S
Mn36 O61 2.209 . S
Mn36 O62 2.094 . S
Mn37 O42 2.121 . S
Mn37 N44 2.257 . S
Mn37 N53 2.282 . S
Mn37 O61 2.215 . S
Mn37 O63 2.117 . S
C38 O60 1.234 . S
C38 O61 1.283 . S
C39 O51 1.281 . S
C39 O52 1.254 . S
C40 O62 1.240 . S
C40 O63 1.264 . S
O41 Mn36 2.095 . S
O41 C50 1.250 . S
O42 Mn37 2.121 . S
O42 C50 1.258 . S
C43 N44 1.326 . S
C43 C47 1.460 . S
C43 H49 0.929 . S
N44 Mn37 2.257 . S
N44 C43 1.326 . S
N44 C48 1.362 . S
C45 C46 1.258 . S
C45 C48 1.431 . S
C45 C65 1.449 . S
C46 C45 1.258 . S
C46 C47 1.477 . S
C46 H66 0.931 . S
C47 C43 1.460 . S
C47 C46 1.477 . S
C47 H67 0.930 . S
C48 N44 1.362 . S
C48 C45 1.431 . S
C48 C58 1.476 . S
H49 C43 0.929 . S
C50 O41 1.250 . S
C50 O42 1.258 . S
O51 Mn36 2.162 1_565 S
O51 C39 1.281 . S
O52 Mn36 2.274 1_565 S
O52 C39 1.254 . S
N53 Mn37 2.282 . S
N53 C54 1.328 . S
N53 C58 1.318 . S
C54 N53 1.328 . S
C54 C55 1.457 . S
C54 H59 0.929 . S
C55 C54 1.457 . S
C55 C56 1.291 . S
C55 H68 0.931 . S
C56 C55 1.291 . S
C56 C57 1.373 . S
C56 H69 0.929 . S
C57 C56 1.373 . S
C57 C58 1.396 . S
C57 C64 1.403 . S
C58 C48 1.476 . S
C58 N53 1.318 . S
C58 C57 1.396 . S
H59 C54 0.929 . S
O60 Mn36 2.385 . S
O60 C38 1.234 . S
O61 Mn36 2.209 . S
O61 Mn37 2.215 . S
O61 C38 1.283 . S
O62 Mn36 2.094 . S
O62 C40 1.240 . S
O63 Mn37 2.117 . S
O63 C40 1.264 . S
C64 C57 1.403 . S
C64 C65 1.399 . S
C64 H70 0.929 . S
C65 C45 1.449 . S
C65 C64 1.399 . S
C65 H71 0.930 . S
H66 C46 0.931 . S
H67 C47 0.930 . S
H68 C55 0.931 . S
H69 C56 0.929 . S
H70 C64 0.929 . S
H71 C65 0.930 . S
Mn72 O77 2.095 . S
Mn72 O87 2.162 1_655 S
Mn72 O88 2.274 1_655 S
Mn72 O96 2.385 . S
Mn72 O97 2.209 . S
Mn72 O98 2.094 . S
Mn73 O78 2.121 . S
Mn73 N80 2.257 . S
Mn73 N89 2.282 . S
Mn73 O97 2.215 . S
Mn73 O99 2.117 . S
C74 O96 1.234 . S
C74 O97 1.283 . S
C75 O87 1.281 . S
C75 O88 1.254 . S
C76 O98 1.240 . S
C76 O99 1.264 . S
O77 Mn72 2.095 . S
O77 C86 1.250 . S
O78 Mn73 2.121 . S
O78 C86 1.258 . S
C79 N80 1.326 . S
C79 C83 1.460 . S
C79 H85 0.929 . S
N80 Mn73 2.257 . S
N80 C79 1.326 . S
N80 C84 1.362 . S
C81 C82 1.258 . S
C81 C84 1.431 . S
C81 C101 1.449 . S
C82 C81 1.258 . S
C82 C83 1.477 . S
C82 H102 0.931 . S
C83 C79 1.460 . S
C83 C82 1.477 . S
C83 H103 0.930 . S
C84 N80 1.362 . S
C84 C81 1.431 . S
C84 C94 1.476 . S
H85 C79 0.929 . S
C86 O77 1.250 . S
C86 O78 1.258 . S
O87 Mn72 2.162 1_455 S
O87 C75 1.281 . S
O88 Mn72 2.274 1_455 S
O88 C75 1.254 . S
N89 Mn73 2.282 . S
N89 C90 1.328 . S
N89 C94 1.318 . S
C90 N89 1.328 . S
C90 C91 1.457 . S
C90 H95 0.929 . S
C91 C90 1.457 . S
C91 C92 1.291 . S
C91 H104 0.931 . S
C92 C91 1.291 . S
C92 C93 1.373 . S
C92 H105 0.929 . S
C93 C92 1.373 . S
C93 C94 1.396 . S
C93 C100 1.403 . S
C94 C84 1.476 . S
C94 N89 1.318 . S
C94 C93 1.396 . S
H95 C90 0.929 . S
O96 Mn72 2.385 . S
O96 C74 1.234 . S
O97 Mn72 2.209 . S
O97 Mn73 2.215 . S
O97 C74 1.283 . S
O98 Mn72 2.094 . S
O98 C76 1.240 . S
O99 Mn73 2.117 . S
O99 C76 1.264 . S
C100 C93 1.403 . S
C100 C101 1.399 . S
C100 H106 0.929 . S
C101 C81 1.449 . S
C101 C100 1.399 . S
C101 H107 0.930 . S
H102 C82 0.931 . S
H103 C83 0.930 . S
H104 C91 0.931 . S
H105 C92 0.929 . S
H106 C100 0.929 . S
H107 C101 0.930 . S
Mn108 O113 2.095 . S
Mn108 O123 2.162 1_565 S
Mn108 O124 2.274 1_565 S
Mn108 O132 2.385 . S
Mn108 O133 2.209 . S
Mn108 O134 2.094 . S
Mn109 O114 2.121 . S
Mn109 N116 2.257 . S
Mn109 N125 2.282 . S
Mn109 O133 2.215 . S
Mn109 O135 2.117 . S
C110 O132 1.234 . S
C110 O133 1.283 . S
C111 O123 1.281 . S
C111 O124 1.254 . S
C112 O134 1.240 . S
C112 O135 1.264 . S
O113 Mn108 2.095 . S
O113 C122 1.250 . S
O114 Mn109 2.121 . S
O114 C122 1.258 . S
C115 N116 1.326 . S
C115 C119 1.460 . S
C115 H121 0.929 . S
N116 Mn109 2.257 . S
N116 C115 1.326 . S
N116 C120 1.362 . S
C117 C118 1.258 . S
C117 C120 1.431 . S
C117 C137 1.449 . S
C118 C117 1.258 . S
C118 C119 1.477 . S
C118 H138 0.931 . S
C119 C115 1.460 . S
C119 C118 1.477 . S
C119 H139 0.930 . S
C120 N116 1.362 . S
C120 C117 1.431 . S
C120 C130 1.476 . S
H121 C115 0.929 . S
C122 O113 1.250 . S
C122 O114 1.258 . S
O123 Mn108 2.162 1_545 S
O123 C111 1.281 . S
O124 Mn108 2.274 1_545 S
O124 C111 1.254 . S
N125 Mn109 2.282 . S
N125 C126 1.328 . S
N125 C130 1.318 . S
C126 N125 1.328 . S
C126 C127 1.457 . S
C126 H131 0.929 . S
C127 C126 1.457 . S
C127 C128 1.291 . S
C127 H140 0.931 . S
C128 C127 1.291 . S
C128 C129 1.373 . S
C128 H141 0.929 . S
C129 C128 1.373 . S
C129 C130 1.396 . S
C129 C136 1.403 . S
C130 C120 1.476 . S
C130 N125 1.318 . S
C130 C129 1.396 . S
H131 C126 0.929 . S
O132 Mn108 2.385 . S
O132 C110 1.234 . S
O133 Mn108 2.209 . S
O133 Mn109 2.215 . S
O133 C110 1.283 . S
O134 Mn108 2.094 . S
O134 C112 1.240 . S
O135 Mn109 2.117 . S
O135 C112 1.264 . S
C136 C129 1.403 . S
C136 C137 1.399 . S
C136 H142 0.929 . S
C137 C117 1.449 . S
C137 C136 1.399 . S
C137 H143 0.930 . S
H138 C118 0.931 . S
H139 C119 0.930 . S
H140 C127 0.931 . S
H141 C128 0.929 . S
H142 C136 0.929 . S
H143 C137 0.930 . S
Mn144 O149 2.095 . S
Mn144 O159 2.162 1_455 S
Mn144 O160 2.274 1_455 S
Mn144 O168 2.385 . S
Mn144 O169 2.209 . S
Mn144 O170 2.094 . S
Mn145 O150 2.121 . S
Mn145 N152 2.257 . S
Mn145 N161 2.282 . S
Mn145 O169 2.215 . S
Mn145 O171 2.117 . S
C146 O168 1.234 . S
C146 O169 1.283 . S
C147 O159 1.281 . S
C147 O160 1.254 . S
C148 O170 1.240 . S
C148 O171 1.264 . S
O149 Mn144 2.095 . S
O149 C158 1.250 . S
O150 Mn145 2.121 . S
O150 C158 1.258 . S
C151 N152 1.326 . S
C151 C155 1.460 . S
C151 H157 0.929 . S
N152 Mn145 2.257 . S
N152 C151 1.326 . S
N152 C156 1.362 . S
C153 C154 1.258 . S
C153 C156 1.431 . S
C153 C173 1.449 . S
C154 C153 1.258 . S
C154 C155 1.477 . S
C154 H174 0.931 . S
C155 C151 1.460 . S
C155 C154 1.477 . S
C155 H175 0.930 . S
C156 N152 1.362 . S
C156 C153 1.431 . S
C156 C166 1.476 . S
H157 C151 0.929 . S
C158 O149 1.250 . S
C158 O150 1.258 . S
O159 Mn144 2.162 1_655 S
O159 C147 1.281 . S
O160 Mn144 2.274 1_655 S
O160 C147 1.254 . S
N161 Mn145 2.282 . S
N161 C162 1.328 . S
N161 C166 1.318 . S
C162 N161 1.328 . S
C162 C163 1.457 . S
C162 H167 0.929 . S
C163 C162 1.457 . S
C163 C164 1.291 . S
C163 H176 0.931 . S
C164 C163 1.291 . S
C164 C165 1.373 . S
C164 H177 0.929 . S
C165 C164 1.373 . S
C165 C166 1.396 . S
C165 C172 1.403 . S
C166 C156 1.476 . S
C166 N161 1.318 . S
C166 C165 1.396 . S
H167 C162 0.929 . S
O168 Mn144 2.385 . S
O168 C146 1.234 . S
O169 Mn144 2.209 . S
O169 Mn145 2.215 . S
O169 C146 1.283 . S
O170 Mn144 2.094 . S
O170 C148 1.240 . S
O171 Mn145 2.117 . S
O171 C148 1.264 . S
C172 C165 1.403 . S
C172 C173 1.399 . S
C172 H178 0.929 . S
C173 C153 1.449 . S
C173 C172 1.399 . S
C173 H179 0.930 . S
H174 C154 0.931 . S
H175 C155 0.930 . S
H176 C163 0.931 . S
H177 C164 0.929 . S
H178 C172 0.929 . S
H179 C173 0.930 . S
Mn180 O185 2.095 . S
Mn180 O195 2.162 1_545 S
Mn180 O196 2.274 1_545 S
Mn180 O204 2.385 . S
Mn180 O205 2.209 . S
Mn180 O206 2.094 . S
Mn181 O186 2.121 . S
Mn181 N188 2.257 . S
Mn181 N197 2.282 . S
Mn181 O205 2.215 . S
Mn181 O207 2.117 . S
C182 O204 1.234 . S
C182 O205 1.283 . S
C183 O195 1.281 . S
C183 O196 1.254 . S
C184 O206 1.240 . S
C184 O207 1.264 . S
O185 Mn180 2.095 . S
O185 C194 1.250 . S
O186 Mn181 2.121 . S
O186 C194 1.258 . S
C187 N188 1.326 . S
C187 C191 1.460 . S
C187 H193 0.929 . S
N188 Mn181 2.257 . S
N188 C187 1.326 . S
N188 C192 1.362 . S
C189 C190 1.258 . S
C189 C192 1.431 . S
C189 C209 1.449 . S
C190 C189 1.258 . S
C190 C191 1.477 . S
C190 H210 0.931 . S
C191 C187 1.460 . S
C191 C190 1.477 . S
C191 H211 0.930 . S
C192 N188 1.362 . S
C192 C189 1.431 . S
C192 C202 1.476 . S
H193 C187 0.929 . S
C194 O185 1.250 . S
C194 O186 1.258 . S
O195 Mn180 2.162 1_565 S
O195 C183 1.281 . S
O196 Mn180 2.274 1_565 S
O196 C183 1.254 . S
N197 Mn181 2.282 . S
N197 C198 1.328 . S
N197 C202 1.318 . S
C198 N197 1.328 . S
C198 C199 1.457 . S
C198 H203 0.929 . S
C199 C198 1.457 . S
C199 C200 1.291 . S
C199 H212 0.931 . S
C200 C199 1.291 . S
C200 C201 1.373 . S
C200 H213 0.929 . S
C201 C200 1.373 . S
C201 C202 1.396 . S
C201 C208 1.403 . S
C202 C192 1.476 . S
C202 N197 1.318 . S
C202 C201 1.396 . S
H203 C198 0.929 . S
O204 Mn180 2.385 . S
O204 C182 1.234 . S
O205 Mn180 2.209 . S
O205 Mn181 2.215 . S
O205 C182 1.283 . S
O206 Mn180 2.094 . S
O206 C184 1.240 . S
O207 Mn181 2.117 . S
O207 C184 1.264 . S
C208 C201 1.403 . S
C208 C209 1.399 . S
C208 H214 0.929 . S
C209 C189 1.449 . S
C209 C208 1.399 . S
C209 H215 0.930 . S
H210 C190 0.931 . S
H211 C191 0.930 . S
H212 C199 0.931 . S
H213 C200 0.929 . S
H214 C208 0.929 . S
H215 C209 0.930 . S
Mn216 O221 2.095 . S
Mn216 O231 2.162 1_655 S
Mn216 O232 2.274 1_655 S
Mn216 O240 2.385 . S
Mn216 O241 2.209 . S
Mn216 O242 2.094 . S
Mn217 O222 2.121 . S
Mn217 N224 2.257 . S
Mn217 N233 2.282 . S
Mn217 O241 2.215 . S
Mn217 O243 2.117 . S
C218 O240 1.234 . S
C218 O241 1.283 . S
C219 O231 1.281 . S
C219 O232 1.254 . S
C220 O242 1.240 . S
C220 O243 1.264 . S
O221 Mn216 2.095 . S
O221 C230 1.250 . S
O222 Mn217 2.121 . S
O222 C230 1.258 . S
C223 N224 1.326 . S
C223 C227 1.460 . S
C223 H229 0.929 . S
N224 Mn217 2.257 . S
N224 C223 1.326 . S
N224 C228 1.362 . S
C225 C226 1.258 . S
C225 C228 1.431 . S
C225 C245 1.449 . S
C226 C225 1.258 . S
C226 C227 1.477 . S
C226 H246 0.931 . S
C227 C223 1.460 . S
C227 C226 1.477 . S
C227 H247 0.930 . S
C228 N224 1.362 . S
C228 C225 1.431 . S
C228 C238 1.476 . S
H229 C223 0.929 . S
C230 O221 1.250 . S
C230 O222 1.258 . S
O231 Mn216 2.162 1_455 S
O231 C219 1.281 . S
O232 Mn216 2.274 1_455 S
O232 C219 1.254 . S
N233 Mn217 2.282 . S
N233 C234 1.328 . S
N233 C238 1.318 . S
C234 N233 1.328 . S
C234 C235 1.457 . S
C234 H239 0.929 . S
C235 C234 1.457 . S
C235 C236 1.291 . S
C235 H248 0.931 . S
C236 C235 1.291 . S
C236 C237 1.373 . S
C236 H249 0.929 . S
C237 C236 1.373 . S
C237 C238 1.396 . S
C237 C244 1.403 . S
C238 C228 1.476 . S
C238 N233 1.318 . S
C238 C237 1.396 . S
H239 C234 0.929 . S
O240 Mn216 2.385 . S
O240 C218 1.234 . S
O241 Mn216 2.209 . S
O241 Mn217 2.215 . S
O241 C218 1.283 . S
O242 Mn216 2.094 . S
O242 C220 1.240 . S
O243 Mn217 2.117 . S
O243 C220 1.264 . S
C244 C237 1.403 . S
C244 C245 1.399 . S
C244 H250 0.929 . S
C245 C225 1.449 . S
C245 C244 1.399 . S
C245 H251 0.930 . S
H246 C226 0.931 . S
H247 C227 0.930 . S
H248 C235 0.931 . S
H249 C236 0.929 . S
H250 C244 0.929 . S
H251 C245 0.930 . S
Mn252 O257 2.095 . S
Mn252 O267 2.162 1_565 S
Mn252 O268 2.274 1_565 S
Mn252 O276 2.385 . S
Mn252 O277 2.209 . S
Mn252 O278 2.094 . S
Mn253 O258 2.121 . S
Mn253 N260 2.257 . S
Mn253 N269 2.282 . S
Mn253 O277 2.215 . S
Mn253 O279 2.117 . S
C254 O276 1.234 . S
C254 O277 1.283 . S
C255 O267 1.281 . S
C255 O268 1.254 . S
C256 O278 1.240 . S
C256 O279 1.264 . S
O257 Mn252 2.095 . S
O257 C266 1.250 . S
O258 Mn253 2.121 . S
O258 C266 1.258 . S
C259 N260 1.326 . S
C259 C263 1.460 . S
C259 H265 0.929 . S
N260 Mn253 2.257 . S
N260 C259 1.326 . S
N260 C264 1.362 . S
C261 C262 1.258 . S
C261 C264 1.431 . S
C261 C281 1.449 . S
C262 C261 1.258 . S
C262 C263 1.477 . S
C262 H282 0.931 . S
C263 C259 1.460 . S
C263 C262 1.477 . S
C263 H283 0.930 . S
C264 N260 1.362 . S
C264 C261 1.431 . S
C264 C274 1.476 . S
H265 C259 0.929 . S
C266 O257 1.250 . S
C266 O258 1.258 . S
O267 Mn252 2.162 1_545 S
O267 C255 1.281 . S
O268 Mn252 2.274 1_545 S
O268 C255 1.254 . S
N269 Mn253 2.282 . S
N269 C270 1.328 . S
N269 C274 1.318 . S
C270 N269 1.328 . S
C270 C271 1.457 . S
C270 H275 0.929 . S
C271 C270 1.457 . S
C271 C272 1.291 . S
C271 H284 0.931 . S
C272 C271 1.291 . S
C272 C273 1.373 . S
C272 H285 0.929 . S
C273 C272 1.373 . S
C273 C274 1.396 . S
C273 C280 1.403 . S
C274 C264 1.476 . S
C274 N269 1.318 . S
C274 C273 1.396 . S
H275 C270 0.929 . S
O276 Mn252 2.385 . S
O276 C254 1.234 . S
O277 Mn252 2.209 . S
O277 Mn253 2.215 . S
O277 C254 1.283 . S
O278 Mn252 2.094 . S
O278 C256 1.240 . S
O279 Mn253 2.117 . S
O279 C256 1.264 . S
C280 C273 1.403 . S
C280 C281 1.399 . S
C280 H286 0.929 . S
C281 C261 1.449 . S
C281 C280 1.399 . S
C281 H287 0.930 . S
H282 C262 0.931 . S
H283 C263 0.930 . S
H284 C271 0.931 . S
H285 C272 0.929 . S
H286 C280 0.929 . S
H287 C281 0.930 . S
Mn288 O293 2.095 . S
Mn288 O303 2.162 . S
Mn288 O304 2.297 . S
Mn288 O312 2.385 . S
Mn288 O313 2.209 . S
Mn288 O314 2.094 . S
Mn289 O294 2.121 . S
Mn289 N296 2.257 . S
Mn289 N305 2.282 . S
Mn289 O313 2.215 . S
Mn289 O315 2.117 . S
C290 O312 1.234 . S
C290 O313 1.283 . S
C291 O303 1.281 . S
C291 O304 1.236 . S
C292 O314 1.240 . S
C292 O315 1.264 . S
O293 Mn288 2.095 . S
O293 C302 1.250 . S
O294 Mn289 2.121 . S
O294 C302 1.258 . S
C295 N296 1.326 . S
C295 C299 1.460 . S
C295 H301 0.929 . S
N296 Mn289 2.257 . S
N296 C295 1.326 . S
N296 C300 1.362 . S
C297 C298 1.258 . S
C297 C300 1.431 . S
C297 C317 1.449 . S
C298 C297 1.258 . S
C298 C299 1.477 . S
C298 H318 0.931 . S
C299 C295 1.460 . S
C299 C298 1.477 . S
C299 H319 0.930 . S
C300 N296 1.362 . S
C300 C297 1.431 . S
C300 C310 1.476 . S
H301 C295 0.929 . S
C302 O293 1.250 . S
C302 O294 1.258 . S
O303 Mn288 2.162 . S
O303 C291 1.281 . S
O304 Mn288 2.297 . S
O304 C291 1.236 . S
N305 Mn289 2.282 . S
N305 C306 1.328 . S
N305 C310 1.318 . S
C306 N305 1.328 . S
C306 C307 1.457 . S
C306 H311 0.929 . S
C307 C306 1.457 . S
C307 C308 1.291 . S
C307 H320 0.931 . S
C308 C307 1.291 . S
C308 C309 1.373 . S
C308 H321 0.929 . S
C309 C308 1.373 . S
C309 C310 1.396 . S
C309 C316 1.403 . S
C310 C300 1.476 . S
C310 N305 1.318 . S
C310 C309 1.396 . S
H311 C306 0.929 . S
O312 Mn288 2.385 . S
O312 C290 1.234 . S
O313 Mn288 2.209 . S
O313 Mn289 2.215 . S
O313 C290 1.283 . S
O314 Mn288 2.094 . S
O314 C292 1.240 . S
O315 Mn289 2.117 . S
O315 C292 1.264 . S
C316 C309 1.403 . S
C316 C317 1.399 . S
C316 H322 0.929 . S
C317 C297 1.449 . S
C317 C316 1.399 . S
C317 H323 0.930 . S
H318 C298 0.931 . S
H319 C299 0.930 . S
H320 C307 0.931 . S
H321 C308 0.929 . S
H322 C316 0.929 . S
H323 C317 0.930 . S
Mn324 O329 2.095 . S
Mn324 O339 2.162 . S
Mn324 O340 2.297 . S
Mn324 O348 2.385 . S
Mn324 O349 2.209 . S
Mn324 O350 2.094 . S
Mn325 O330 2.121 . S
Mn325 N332 2.257 . S
Mn325 N341 2.282 . S
Mn325 O349 2.215 . S
Mn325 O351 2.117 . S
C326 O348 1.234 . S
C326 O349 1.283 . S
C327 O339 1.281 . S
C327 O340 1.236 . S
C328 O350 1.240 . S
C328 O351 1.264 . S
O329 Mn324 2.095 . S
O329 C338 1.250 . S
O330 Mn325 2.121 . S
O330 C338 1.258 . S
C331 N332 1.326 . S
C331 C335 1.460 . S
C331 H337 0.929 . S
N332 Mn325 2.257 . S
N332 C331 1.326 . S
N332 C336 1.362 . S
C333 C334 1.258 . S
C333 C336 1.431 . S
C333 C353 1.449 . S
C334 C333 1.258 . S
C334 C335 1.477 . S
C334 H354 0.931 . S
C335 C331 1.460 . S
C335 C334 1.477 . S
C335 H355 0.930 . S
C336 N332 1.362 . S
C336 C333 1.431 . S
C336 C346 1.476 . S
H337 C331 0.929 . S
C338 O329 1.250 . S
C338 O330 1.258 . S
O339 Mn324 2.162 . S
O339 C327 1.281 . S
O340 Mn324 2.297 . S
O340 C327 1.236 . S
N341 Mn325 2.282 . S
N341 C342 1.328 . S
N341 C346 1.318 . S
C342 N341 1.328 . S
C342 C343 1.457 . S
C342 H347 0.929 . S
C343 C342 1.457 . S
C343 C344 1.291 . S
C343 H356 0.931 . S
C344 C343 1.291 . S
C344 C345 1.373 . S
C344 H357 0.929 . S
C345 C344 1.373 . S
C345 C346 1.396 . S
C345 C352 1.403 . S
C346 C336 1.476 . S
C346 N341 1.318 . S
C346 C345 1.396 . S
H347 C342 0.929 . S
O348 Mn324 2.385 . S
O348 C326 1.234 . S
O349 Mn324 2.209 . S
O349 Mn325 2.215 . S
O349 C326 1.283 . S
O350 Mn324 2.094 . S
O350 C328 1.240 . S
O351 Mn325 2.117 . S
O351 C328 1.264 . S
C352 C345 1.403 . S
C352 C353 1.399 . S
C352 H358 0.929 . S
C353 C333 1.449 . S
C353 C352 1.399 . S
C353 H359 0.930 . S
H354 C334 0.931 . S
H355 C335 0.930 . S
H356 C343 0.931 . S
H357 C344 0.929 . S
H358 C352 0.929 . S
H359 C353 0.930 . S
Mn360 O365 2.095 . S
Mn360 O375 2.162 . S
Mn360 O376 2.297 . S
Mn360 O384 2.385 . S
Mn360 O385 2.209 . S
Mn360 O386 2.094 . S
Mn361 O366 2.121 . S
Mn361 N368 2.257 . S
Mn361 N377 2.282 . S
Mn361 O385 2.215 . S
Mn361 O387 2.117 . S
C362 O384 1.234 . S
C362 O385 1.283 . S
C363 O375 1.281 . S
C363 O376 1.236 . S
C364 O386 1.240 . S
C364 O387 1.264 . S
O365 Mn360 2.095 . S
O365 C374 1.250 . S
O366 Mn361 2.121 . S
O366 C374 1.258 . S
C367 N368 1.326 . S
C367 C371 1.460 . S
C367 H373 0.929 . S
N368 Mn361 2.257 . S
N368 C367 1.326 . S
N368 C372 1.362 . S
C369 C370 1.258 . S
C369 C372 1.431 . S
C369 C389 1.449 . S
C370 C369 1.258 . S
C370 C371 1.477 . S
C370 H390 0.931 . S
C371 C367 1.460 . S
C371 C370 1.477 . S
C371 H391 0.930 . S
C372 N368 1.362 . S
C372 C369 1.431 . S
C372 C382 1.476 . S
H373 C367 0.929 . S
C374 O365 1.250 . S
C374 O366 1.258 . S
O375 Mn360 2.162 . S
O375 C363 1.281 . S
O376 Mn360 2.297 . S
O376 C363 1.236 . S
N377 Mn361 2.282 . S
N377 C378 1.328 . S
N377 C382 1.318 . S
C378 N377 1.328 . S
C378 C379 1.457 . S
C378 H383 0.929 . S
C379 C378 1.457 . S
C379 C380 1.291 . S
C379 H392 0.931 . S
C380 C379 1.291 . S
C380 C381 1.373 . S
C380 H393 0.929 . S
C381 C380 1.373 . S
C381 C382 1.396 . S
C381 C388 1.403 . S
C382 C372 1.476 . S
C382 N377 1.318 . S
C382 C381 1.396 . S
H383 C378 0.929 . S
O384 Mn360 2.385 . S
O384 C362 1.234 . S
O385 Mn360 2.209 . S
O385 Mn361 2.215 . S
O385 C362 1.283 . S
O386 Mn360 2.094 . S
O386 C364 1.240 . S
O387 Mn361 2.117 . S
O387 C364 1.264 . S
C388 C381 1.403 . S
C388 C389 1.399 . S
C388 H394 0.929 . S
C389 C369 1.449 . S
C389 C388 1.399 . S
C389 H395 0.930 . S
H390 C370 0.931 . S
H391 C371 0.930 . S
H392 C379 0.931 . S
H393 C380 0.929 . S
H394 C388 0.929 . S
H395 C389 0.930 . S
Mn396 O401 2.095 . S
Mn396 O411 2.162 . S
Mn396 O412 2.297 . S
Mn396 O420 2.385 . S
Mn396 O421 2.209 . S
Mn396 O422 2.094 . S
Mn397 O402 2.121 . S
Mn397 N404 2.257 . S
Mn397 N413 2.282 . S
Mn397 O421 2.215 . S
Mn397 O423 2.117 . S
C398 O420 1.234 . S
C398 O421 1.283 . S
C399 O411 1.281 . S
C399 O412 1.236 . S
C400 O422 1.240 . S
C400 O423 1.264 . S
O401 Mn396 2.095 . S
O401 C410 1.250 . S
O402 Mn397 2.121 . S
O402 C410 1.258 . S
C403 N404 1.326 . S
C403 C407 1.460 . S
C403 H409 0.929 . S
N404 Mn397 2.257 . S
N404 C403 1.326 . S
N404 C408 1.362 . S
C405 C406 1.258 . S
C405 C408 1.431 . S
C405 C425 1.449 . S
C406 C405 1.258 . S
C406 C407 1.477 . S
C406 H426 0.931 . S
C407 C403 1.460 . S
C407 C406 1.477 . S
C407 H427 0.930 . S
C408 N404 1.362 . S
C408 C405 1.431 . S
C408 C418 1.476 . S
H409 C403 0.929 . S
C410 O401 1.250 . S
C410 O402 1.258 . S
O411 Mn396 2.162 . S
O411 C399 1.281 . S
O412 Mn396 2.297 . S
O412 C399 1.236 . S
N413 Mn397 2.282 . S
N413 C414 1.328 . S
N413 C418 1.318 . S
C414 N413 1.328 . S
C414 C415 1.457 . S
C414 H419 0.929 . S
C415 C414 1.457 . S
C415 C416 1.291 . S
C415 H428 0.931 . S
C416 C415 1.291 . S
C416 C417 1.373 . S
C416 H429 0.929 . S
C417 C416 1.373 . S
C417 C418 1.396 . S
C417 C424 1.403 . S
C418 C408 1.476 . S
C418 N413 1.318 . S
C418 C417 1.396 . S
H419 C414 0.929 . S
O420 Mn396 2.385 . S
O420 C398 1.234 . S
O421 Mn396 2.209 . S
O421 Mn397 2.215 . S
O421 C398 1.283 . S
O422 Mn396 2.094 . S
O422 C400 1.240 . S
O423 Mn397 2.117 . S
O423 C400 1.264 . S
C424 C417 1.403 . S
C424 C425 1.399 . S
C424 H430 0.929 . S
C425 C405 1.449 . S
C425 C424 1.399 . S
C425 H431 0.930 . S
H426 C406 0.931 . S
H427 C407 0.930 . S
H428 C415 0.931 . S
H429 C416 0.929 . S
H430 C424 0.929 . S
H431 C425 0.930 . S
Mn432 O437 2.095 . S
Mn432 O447 2.162 . S
Mn432 O448 2.297 . S
Mn432 O456 2.385 . S
Mn432 O457 2.209 . S
Mn432 O458 2.094 . S
Mn433 O438 2.121 . S
Mn433 N440 2.257 . S
Mn433 N449 2.282 . S
Mn433 O457 2.215 . S
Mn433 O459 2.117 . S
C434 O456 1.234 . S
C434 O457 1.283 . S
C435 O447 1.281 . S
C435 O448 1.236 . S
C436 O458 1.240 . S
C436 O459 1.264 . S
O437 Mn432 2.095 . S
O437 C446 1.250 . S
O438 Mn433 2.121 . S
O438 C446 1.258 . S
C439 N440 1.326 . S
C439 C443 1.460 . S
C439 H445 0.929 . S
N440 Mn433 2.257 . S
N440 C439 1.326 . S
N440 C444 1.362 . S
C441 C442 1.258 . S
C441 C444 1.431 . S
C441 C461 1.449 . S
C442 C441 1.258 . S
C442 C443 1.477 . S
C442 H462 0.931 . S
C443 C439 1.460 . S
C443 C442 1.477 . S
C443 H463 0.930 . S
C444 N440 1.362 . S
C444 C441 1.431 . S
C444 C454 1.476 . S
H445 C439 0.929 . S
C446 O437 1.250 . S
C446 O438 1.258 . S
O447 Mn432 2.162 . S
O447 C435 1.281 . S
O448 Mn432 2.297 . S
O448 C435 1.236 . S
N449 Mn433 2.282 . S
N449 C450 1.328 . S
N449 C454 1.318 . S
C450 N449 1.328 . S
C450 C451 1.457 . S
C450 H455 0.929 . S
C451 C450 1.457 . S
C451 C452 1.291 . S
C451 H464 0.931 . S
C452 C451 1.291 . S
C452 C453 1.373 . S
C452 H465 0.929 . S
C453 C452 1.373 . S
C453 C454 1.396 . S
C453 C460 1.403 . S
C454 C444 1.476 . S
C454 N449 1.318 . S
C454 C453 1.396 . S
H455 C450 0.929 . S
O456 Mn432 2.385 . S
O456 C434 1.234 . S
O457 Mn432 2.209 . S
O457 Mn433 2.215 . S
O457 C434 1.283 . S
O458 Mn432 2.094 . S
O458 C436 1.240 . S
O459 Mn433 2.117 . S
O459 C436 1.264 . S
C460 C453 1.403 . S
C460 C461 1.399 . S
C460 H466 0.929 . S
C461 C441 1.449 . S
C461 C460 1.399 . S
C461 H467 0.930 . S
H462 C442 0.931 . S
H463 C443 0.930 . S
H464 C451 0.931 . S
H465 C452 0.929 . S
H466 C460 0.929 . S
H467 C461 0.930 . S
Mn468 O473 2.095 . S
Mn468 O483 2.162 . S
Mn468 O484 2.297 . S
Mn468 O492 2.385 . S
Mn468 O493 2.209 . S
Mn468 O494 2.094 . S
Mn469 O474 2.121 . S
Mn469 N476 2.257 . S
Mn469 N485 2.282 . S
Mn469 O493 2.215 . S
Mn469 O495 2.117 . S
C470 O492 1.234 . S
C470 O493 1.283 . S
C471 O483 1.281 . S
C471 O484 1.236 . S
C472 O494 1.240 . S
C472 O495 1.264 . S
O473 Mn468 2.095 . S
O473 C482 1.250 . S
O474 Mn469 2.121 . S
O474 C482 1.258 . S
C475 N476 1.326 . S
C475 C479 1.460 . S
C475 H481 0.929 . S
N476 Mn469 2.257 . S
N476 C475 1.326 . S
N476 C480 1.362 . S
C477 C478 1.258 . S
C477 C480 1.431 . S
C477 C497 1.449 . S
C478 C477 1.258 . S
C478 C479 1.477 . S
C478 H498 0.931 . S
C479 C475 1.460 . S
C479 C478 1.477 . S
C479 H499 0.930 . S
C480 N476 1.362 . S
C480 C477 1.431 . S
C480 C490 1.476 . S
H481 C475 0.929 . S
C482 O473 1.250 . S
C482 O474 1.258 . S
O483 Mn468 2.162 . S
O483 C471 1.281 . S
O484 Mn468 2.297 . S
O484 C471 1.236 . S
N485 Mn469 2.282 . S
N485 C486 1.328 . S
N485 C490 1.318 . S
C486 N485 1.328 . S
C486 C487 1.457 . S
C486 H491 0.929 . S
C487 C486 1.457 . S
C487 C488 1.291 . S
C487 H500 0.931 . S
C488 C487 1.291 . S
C488 C489 1.373 . S
C488 H501 0.929 . S
C489 C488 1.373 . S
C489 C490 1.396 . S
C489 C496 1.403 . S
C490 C480 1.476 . S
C490 N485 1.318 . S
C490 C489 1.396 . S
H491 C486 0.929 . S
O492 Mn468 2.385 . S
O492 C470 1.234 . S
O493 Mn468 2.209 . S
O493 Mn469 2.215 . S
O493 C470 1.283 . S
O494 Mn468 2.094 . S
O494 C472 1.240 . S
O495 Mn469 2.117 . S
O495 C472 1.264 . S
C496 C489 1.403 . S
C496 C497 1.399 . S
C496 H502 0.929 . S
C497 C477 1.449 . S
C497 C496 1.399 . S
C497 H503 0.930 . S
H498 C478 0.931 . S
H499 C479 0.930 . S
H500 C487 0.931 . S
H501 C488 0.929 . S
H502 C496 0.929 . S
H503 C497 0.930 . S
Mn504 O509 2.095 . S
Mn504 O519 2.162 . S
Mn504 O520 2.297 . S
Mn504 O528 2.385 . S
Mn504 O529 2.209 . S
Mn504 O530 2.094 . S
Mn505 O510 2.121 . S
Mn505 N512 2.257 . S
Mn505 N521 2.282 . S
Mn505 O529 2.215 . S
Mn505 O531 2.117 . S
C506 O528 1.234 . S
C506 O529 1.283 . S
C507 O519 1.281 . S
C507 O520 1.236 . S
C508 O530 1.240 . S
C508 O531 1.264 . S
O509 Mn504 2.095 . S
O509 C518 1.250 . S
O510 Mn505 2.121 . S
O510 C518 1.258 . S
C511 N512 1.326 . S
C511 C515 1.460 . S
C511 H517 0.929 . S
N512 Mn505 2.257 . S
N512 C511 1.326 . S
N512 C516 1.362 . S
C513 C514 1.258 . S
C513 C516 1.431 . S
C513 C533 1.449 . S
C514 C513 1.258 . S
C514 C515 1.477 . S
C514 H534 0.931 . S
C515 C511 1.460 . S
C515 C514 1.477 . S
C515 H535 0.930 . S
C516 N512 1.362 . S
C516 C513 1.431 . S
C516 C526 1.476 . S
H517 C511 0.929 . S
C518 O509 1.250 . S
C518 O510 1.258 . S
O519 Mn504 2.162 . S
O519 C507 1.281 . S
O520 Mn504 2.297 . S
O520 C507 1.236 . S
N521 Mn505 2.282 . S
N521 C522 1.328 . S
N521 C526 1.318 . S
C522 N521 1.328 . S
C522 C523 1.457 . S
C522 H527 0.929 . S
C523 C522 1.457 . S
C523 C524 1.291 . S
C523 H536 0.931 . S
C524 C523 1.291 . S
C524 C525 1.373 . S
C524 H537 0.929 . S
C525 C524 1.373 . S
C525 C526 1.396 . S
C525 C532 1.403 . S
C526 C516 1.476 . S
C526 N521 1.318 . S
C526 C525 1.396 . S
H527 C522 0.929 . S
O528 Mn504 2.385 . S
O528 C506 1.234 . S
O529 Mn504 2.209 . S
O529 Mn505 2.215 . S
O529 C506 1.283 . S
O530 Mn504 2.094 . S
O530 C508 1.240 . S
O531 Mn505 2.117 . S
O531 C508 1.264 . S
C532 C525 1.403 . S
C532 C533 1.399 . S
C532 H538 0.929 . S
C533 C513 1.449 . S
C533 C532 1.399 . S
C533 H539 0.930 . S
H534 C514 0.931 . S
H535 C515 0.930 . S
H536 C523 0.931 . S
H537 C524 0.929 . S
H538 C532 0.929 . S
H539 C533 0.930 . S
Mn540 O545 2.095 . S
Mn540 O555 2.162 . S
Mn540 O556 2.297 . S
Mn540 O564 2.385 . S
Mn540 O565 2.209 . S
Mn540 O566 2.094 . S
Mn541 O546 2.121 . S
Mn541 N548 2.257 . S
Mn541 N557 2.282 . S
Mn541 O565 2.215 . S
Mn541 O567 2.117 . S
C542 O564 1.234 . S
C542 O565 1.283 . S
C543 O555 1.281 . S
C543 O556 1.236 . S
C544 O566 1.240 . S
C544 O567 1.264 . S
O545 Mn540 2.095 . S
O545 C554 1.250 . S
O546 Mn541 2.121 . S
O546 C554 1.258 . S
C547 N548 1.326 . S
C547 C551 1.460 . S
C547 H553 0.929 . S
N548 Mn541 2.257 . S
N548 C547 1.326 . S
N548 C552 1.362 . S
C549 C550 1.258 . S
C549 C552 1.431 . S
C549 C569 1.449 . S
C550 C549 1.258 . S
C550 C551 1.477 . S
C550 H570 0.931 . S
C551 C547 1.460 . S
C551 C550 1.477 . S
C551 H571 0.930 . S
C552 N548 1.362 . S
C552 C549 1.431 . S
C552 C562 1.476 . S
H553 C547 0.929 . S
C554 O545 1.250 . S
C554 O546 1.258 . S
O555 Mn540 2.162 . S
O555 C543 1.281 . S
O556 Mn540 2.297 . S
O556 C543 1.236 . S
N557 Mn541 2.282 . S
N557 C558 1.328 . S
N557 C562 1.318 . S
C558 N557 1.328 . S
C558 C559 1.457 . S
C558 H563 0.929 . S
C559 C558 1.457 . S
C559 C560 1.291 . S
C559 H572 0.931 . S
C560 C559 1.291 . S
C560 C561 1.373 . S
C560 H573 0.929 . S
C561 C560 1.373 . S
C561 C562 1.396 . S
C561 C568 1.403 . S
C562 C552 1.476 . S
C562 N557 1.318 . S
C562 C561 1.396 . S
H563 C558 0.929 . S
O564 Mn540 2.385 . S
O564 C542 1.234 . S
O565 Mn540 2.209 . S
O565 Mn541 2.215 . S
O565 C542 1.283 . S
O566 Mn540 2.094 . S
O566 C544 1.240 . S
O567 Mn541 2.117 . S
O567 C544 1.264 . S
C568 C561 1.403 . S
C568 C569 1.399 . S
C568 H574 0.929 . S
C569 C549 1.449 . S
C569 C568 1.399 . S
C569 H575 0.930 . S
H570 C550 0.931 . S
H571 C551 0.930 . S
H572 C559 0.931 . S
H573 C560 0.929 . S
H574 C568 0.929 . S
H575 C569 0.930 . S
H576 C594 0.951 . S
H577 C596 0.951 . S
H578 C598 0.950 . S
H579 C599 0.950 . S
H580 C601 0.950 . S
H581 C604 0.950 . S
H582 C605 0.950 . S
H583 C607 0.950 . S
H584 C608 0.950 . S
H585 C609 0.951 . S
H586 C611 0.951 . S
H587 C613 0.950 . S
H588 C614 0.950 . S
H589 C616 0.950 . S
H590 C619 0.950 . S
H591 C620 0.950 . S
H592 C622 0.950 . S
H593 C623 0.950 . S
C594 H576 0.951 . S
C594 C595 1.366 . S
C594 C596 1.388 . S
C595 C594 1.366 . S
C595 C599 1.385 . S
C596 H577 0.951 . S
C596 C594 1.388 . S
C596 C597 1.366 . S
C597 C596 1.366 . S
C597 C598 1.414 . S
C597 C600 1.499 . S
C598 H578 0.950 . S
C598 C597 1.414 . S
C598 C599 1.374 . S
C599 H579 0.950 . S
C599 C595 1.385 . S
C599 C598 1.374 . S
C600 C597 1.499 . S
C600 C601 1.373 . S
C600 C602 1.389 . S
C601 H580 0.950 . S
C601 C600 1.373 . S
C601 C617 1.377 . S
C602 C600 1.389 . S
C602 C603 1.524 . S
C602 C616 1.377 . S
C603 C602 1.524 . S
C603 C604 1.397 . S
C603 C608 1.363 . S
C604 H581 0.950 . S
C604 C603 1.397 . S
C604 C605 1.334 . S
C605 H582 0.950 . S
C605 C604 1.334 . S
C605 C606 1.287 . S
C606 C605 1.287 . S
C606 C607 1.524 . S
C606 H625 0.913 . S
C607 H583 0.950 . S
C607 C606 1.524 . S
C607 C608 1.415 . S
C608 H584 0.950 . S
C608 C603 1.363 . S
C608 C607 1.415 . S
C609 H585 0.951 . S
C609 C610 1.366 . S
C609 C611 1.388 . S
C610 C609 1.366 . S
C610 C614 1.385 . S
C611 H586 0.951 . S
C611 C609 1.388 . S
C611 C612 1.366 . S
C612 C611 1.366 . S
C612 C613 1.414 . S
C612 C615 1.499 . S
C613 H587 0.950 . S
C613 C612 1.414 . S
C613 C614 1.374 . S
C614 H588 0.950 . S
C614 C610 1.385 . S
C614 C613 1.374 . S
C615 C612 1.499 . S
C615 C616 1.373 . S
C615 C617 1.389 . S
C616 H589 0.950 . S
C616 C602 1.377 . S
C616 C615 1.373 . S
C617 C601 1.377 . S
C617 C615 1.389 . S
C617 C618 1.524 . S
C618 C617 1.524 . S
C618 C619 1.397 . S
C618 C623 1.363 . S
C619 H590 0.950 . S
C619 C618 1.397 . S
C619 C620 1.334 . S
C620 H591 0.950 . S
C620 C619 1.334 . S
C620 C621 1.287 . S
C621 C620 1.287 . S
C621 C622 1.524 . S
C621 H624 0.999 . S
C622 H592 0.950 . S
C622 C621 1.524 . S
C622 C623 1.415 . S
C623 H593 0.950 . S
C623 C618 1.363 . S
C623 C622 1.415 . S
H624 C621 0.999 . S
H625 C606 0.913 . S
H626 C644 0.951 . S
H627 C646 0.951 . S
H628 C648 0.950 . S
H629 C649 0.950 . S
H630 C651 0.950 . S
H631 C654 0.950 . S
H632 C655 0.950 . S
H633 C657 0.950 . S
H634 C658 0.950 . S
H635 C659 0.951 . S
H636 C661 0.951 . S
H637 C663 0.950 . S
H638 C664 0.950 . S
H639 C666 0.950 . S
H640 C669 0.950 . S
H641 C670 0.950 . S
H642 C672 0.950 . S
H643 C673 0.950 . S
C644 H626 0.951 . S
C644 C645 1.366 . S
C644 C646 1.388 . S
C645 C644 1.366 . S
C645 C649 1.385 . S
C646 H627 0.951 . S
C646 C644 1.388 . S
C646 C647 1.366 . S
C647 C646 1.366 . S
C647 C648 1.414 . S
C647 C650 1.499 . S
C648 H628 0.950 . S
C648 C647 1.414 . S
C648 C649 1.374 . S
C649 H629 0.950 . S
C649 C645 1.385 . S
C649 C648 1.374 . S
C650 C647 1.499 . S
C650 C651 1.373 . S
C650 C652 1.389 . S
C651 H630 0.950 . S
C651 C650 1.373 . S
C651 C667 1.377 . S
C652 C650 1.389 . S
C652 C653 1.524 . S
C652 C666 1.377 . S
C653 C652 1.524 . S
C653 C654 1.397 . S
C653 C658 1.363 . S
C654 H631 0.950 . S
C654 C653 1.397 . S
C654 C655 1.334 . S
C655 H632 0.950 . S
C655 C654 1.334 . S
C655 C656 1.287 . S
C656 C655 1.287 . S
C656 C657 1.524 . S
C656 H675 0.913 . S
C657 H633 0.950 . S
C657 C656 1.524 . S
C657 C658 1.415 . S
C658 H634 0.950 . S
C658 C653 1.363 . S
C658 C657 1.415 . S
C659 H635 0.951 . S
C659 C660 1.366 . S
C659 C661 1.388 . S
C660 C659 1.366 . S
C660 C664 1.385 . S
C661 H636 0.951 . S
C661 C659 1.388 . S
C661 C662 1.366 . S
C662 C661 1.366 . S
C662 C663 1.414 . S
C662 C665 1.499 . S
C663 H637 0.950 . S
C663 C662 1.414 . S
C663 C664 1.374 . S
C664 H638 0.950 . S
C664 C660 1.385 . S
C664 C663 1.374 . S
C665 C662 1.499 . S
C665 C666 1.373 . S
C665 C667 1.389 . S
C666 H639 0.950 . S
C666 C652 1.377 . S
C666 C665 1.373 . S
C667 C651 1.377 . S
C667 C665 1.389 . S
C667 C668 1.524 . S
C668 C667 1.524 . S
C668 C669 1.397 . S
C668 C673 1.363 . S
C669 H640 0.950 . S
C669 C668 1.397 . S
C669 C670 1.334 . S
C670 H641 0.950 . S
C670 C669 1.334 . S
C670 C671 1.287 . S
C671 C670 1.287 . S
C671 C672 1.524 . S
C671 H674 0.999 . S
C672 H642 0.950 . S
C672 C671 1.524 . S
C672 C673 1.415 . S
C673 H643 0.950 . S
C673 C668 1.363 . S
C673 C672 1.415 . S
H674 C671 0.999 . S
H675 C656 0.913 . S
H676 C694 0.951 . S
H677 C696 0.951 . S
H678 C698 0.950 . S
H679 C699 0.950 . S
H680 C701 0.950 . S
H681 C704 0.950 . S
H682 C705 0.950 . S
H683 C707 0.950 . S
H684 C708 0.950 . S
H685 C709 0.951 . S
H686 C711 0.951 . S
H687 C713 0.950 . S
H688 C714 0.950 . S
H689 C716 0.950 . S
H690 C719 0.950 . S
H691 C720 0.950 . S
H692 C722 0.950 . S
H693 C723 0.950 . S
C694 H676 0.951 . S
C694 C695 1.366 . S
C694 C696 1.388 . S
C695 C694 1.366 . S
C695 C699 1.385 . S
C696 H677 0.951 . S
C696 C694 1.388 . S
C696 C697 1.366 . S
C697 C696 1.366 . S
C697 C698 1.414 . S
C697 C700 1.499 . S
C698 H678 0.950 . S
C698 C697 1.414 . S
C698 C699 1.374 . S
C699 H679 0.950 . S
C699 C695 1.385 . S
C699 C698 1.374 . S
C700 C697 1.499 . S
C700 C701 1.373 . S
C700 C702 1.389 . S
C701 H680 0.950 . S
C701 C700 1.373 . S
C701 C717 1.377 . S
C702 C700 1.389 . S
C702 C703 1.524 . S
C702 C716 1.377 . S
C703 C702 1.524 . S
C703 C704 1.397 . S
C703 C708 1.363 . S
C704 H681 0.950 . S
C704 C703 1.397 . S
C704 C705 1.334 . S
C705 H682 0.950 . S
C705 C704 1.334 . S
C705 C706 1.287 . S
C706 C705 1.287 . S
C706 C707 1.524 . S
C706 H725 0.913 . S
C707 H683 0.950 . S
C707 C706 1.524 . S
C707 C708 1.415 . S
C708 H684 0.950 . S
C708 C703 1.363 . S
C708 C707 1.415 . S
C709 H685 0.951 . S
C709 C710 1.366 . S
C709 C711 1.388 . S
C710 C709 1.366 . S
C710 C714 1.385 . S
C711 H686 0.951 . S
C711 C709 1.388 . S
C711 C712 1.366 . S
C712 C711 1.366 . S
C712 C713 1.414 . S
C712 C715 1.499 . S
C713 H687 0.950 . S
C713 C712 1.414 . S
C713 C714 1.374 . S
C714 H688 0.950 . S
C714 C710 1.385 . S
C714 C713 1.374 . S
C715 C712 1.499 . S
C715 C716 1.373 . S
C715 C717 1.389 . S
C716 H689 0.950 . S
C716 C702 1.377 . S
C716 C715 1.373 . S
C717 C701 1.377 . S
C717 C715 1.389 . S
C717 C718 1.524 . S
C718 C717 1.524 . S
C718 C719 1.397 . S
C718 C723 1.363 . S
C719 H690 0.950 . S
C719 C718 1.397 . S
C719 C720 1.334 . S
C720 H691 0.950 . S
C720 C719 1.334 . S
C720 C721 1.287 . S
C721 C720 1.287 . S
C721 C722 1.524 . S
C721 H724 0.999 . S
C722 H692 0.950 . S
C722 C721 1.524 . S
C722 C723 1.415 . S
C723 H693 0.950 . S
C723 C718 1.363 . S
C723 C722 1.415 . S
H724 C721 0.999 . S
H725 C706 0.913 . S
H726 C744 0.951 . S
H727 C746 0.951 . S
H728 C748 0.950 . S
H729 C749 0.950 . S
H730 C751 0.950 . S
H731 C754 0.950 . S
H732 C755 0.950 . S
H733 C757 0.950 . S
H734 C758 0.950 . S
H735 C759 0.951 . S
H736 C761 0.951 . S
H737 C763 0.950 . S
H738 C764 0.950 . S
H739 C766 0.950 . S
H740 C769 0.950 . S
H741 C770 0.950 . S
H742 C772 0.950 . S
H743 C773 0.950 . S
C744 H726 0.951 . S
C744 C745 1.366 . S
C744 C746 1.388 . S
C745 C744 1.366 . S
C745 C749 1.385 . S
C746 H727 0.951 . S
C746 C744 1.388 . S
C746 C747 1.366 . S
C747 C746 1.366 . S
C747 C748 1.414 . S
C747 C750 1.499 . S
C748 H728 0.950 . S
C748 C747 1.414 . S
C748 C749 1.374 . S
C749 H729 0.950 . S
C749 C745 1.385 . S
C749 C748 1.374 . S
C750 C747 1.499 . S
C750 C751 1.373 . S
C750 C752 1.389 . S
C751 H730 0.950 . S
C751 C750 1.373 . S
C751 C767 1.377 . S
C752 C750 1.389 . S
C752 C753 1.524 . S
C752 C766 1.377 . S
C753 C752 1.524 . S
C753 C754 1.397 . S
C753 C758 1.363 . S
C754 H731 0.950 . S
C754 C753 1.397 . S
C754 C755 1.334 . S
C755 H732 0.950 . S
C755 C754 1.334 . S
C755 C756 1.287 . S
C756 C755 1.287 . S
C756 C757 1.524 . S
C756 H775 0.913 . S
C757 H733 0.950 . S
C757 C756 1.524 . S
C757 C758 1.415 . S
C758 H734 0.950 . S
C758 C753 1.363 . S
C758 C757 1.415 . S
C759 H735 0.951 . S
C759 C760 1.366 . S
C759 C761 1.388 . S
C760 C759 1.366 . S
C760 C764 1.385 . S
C761 H736 0.951 . S
C761 C759 1.388 . S
C761 C762 1.366 . S
C762 C761 1.366 . S
C762 C763 1.414 . S
C762 C765 1.499 . S
C763 H737 0.950 . S
C763 C762 1.414 . S
C763 C764 1.374 . S
C764 H738 0.950 . S
C764 C760 1.385 . S
C764 C763 1.374 . S
C765 C762 1.499 . S
C765 C766 1.373 . S
C765 C767 1.389 . S
C766 H739 0.950 . S
C766 C752 1.377 . S
C766 C765 1.373 . S
C767 C751 1.377 . S
C767 C765 1.389 . S
C767 C768 1.524 . S
C768 C767 1.524 . S
C768 C769 1.397 . S
C768 C773 1.363 . S
C769 H740 0.950 . S
C769 C768 1.397 . S
C769 C770 1.334 . S
C770 H741 0.950 . S
C770 C769 1.334 . S
C770 C771 1.287 . S
C771 C770 1.287 . S
C771 C772 1.524 . S
C771 H774 0.999 . S
C772 H742 0.950 . S
C772 C771 1.524 . S
C772 C773 1.415 . S
C773 H743 0.950 . S
C773 C768 1.363 . S
C773 C772 1.415 . S
H774 C771 0.999 . S
H775 C756 0.913 . S
H776 C794 0.951 . S
H777 C796 0.951 . S
H778 C798 0.950 . S
H779 C799 0.950 . S
H780 C801 0.950 . S
H781 C804 0.950 . S
H782 C805 0.950 . S
H783 C807 0.950 . S
H784 C808 0.950 . S
H785 C809 0.951 . S
H786 C811 0.951 . S
H787 C813 0.950 . S
H788 C814 0.950 . S
H789 C816 0.950 . S
H790 C819 0.950 . S
H791 C820 0.950 . S
H792 C822 0.950 . S
H793 C823 0.950 . S
C794 H776 0.951 . S
C794 C795 1.366 . S
C794 C796 1.388 . S
C795 C794 1.366 . S
C795 C799 1.385 . S
C796 H777 0.951 . S
C796 C794 1.388 . S
C796 C797 1.366 . S
C797 C796 1.366 . S
C797 C798 1.414 . S
C797 C800 1.499 . S
C798 H778 0.950 . S
C798 C797 1.414 . S
C798 C799 1.374 . S
C799 H779 0.950 . S
C799 C795 1.385 . S
C799 C798 1.374 . S
C800 C797 1.499 . S
C800 C801 1.373 . S
C800 C802 1.389 . S
C801 H780 0.950 . S
C801 C800 1.373 . S
C801 C817 1.377 . S
C802 C800 1.389 . S
C802 C803 1.524 . S
C802 C816 1.377 . S
C803 C802 1.524 . S
C803 C804 1.397 . S
C803 C808 1.363 . S
C804 H781 0.950 . S
C804 C803 1.397 . S
C804 C805 1.334 . S
C805 H782 0.950 . S
C805 C804 1.334 . S
C805 C806 1.287 . S
C806 C805 1.287 . S
C806 C807 1.524 . S
C806 H825 0.913 . S
C807 H783 0.950 . S
C807 C806 1.524 . S
C807 C808 1.415 . S
C808 H784 0.950 . S
C808 C803 1.363 . S
C808 C807 1.415 . S
C809 H785 0.951 . S
C809 C810 1.366 . S
C809 C811 1.388 . S
C810 C809 1.366 . S
C810 C814 1.385 . S
C811 H786 0.951 . S
C811 C809 1.388 . S
C811 C812 1.366 . S
C812 C811 1.366 . S
C812 C813 1.414 . S
C812 C815 1.499 . S
C813 H787 0.950 . S
C813 C812 1.414 . S
C813 C814 1.374 . S
C814 H788 0.950 . S
C814 C810 1.385 . S
C814 C813 1.374 . S
C815 C812 1.499 . S
C815 C816 1.373 . S
C815 C817 1.389 . S
C816 H789 0.950 . S
C816 C802 1.377 . S
C816 C815 1.373 . S
C817 C801 1.377 . S
C817 C815 1.389 . S
C817 C818 1.524 . S
C818 C817 1.524 . S
C818 C819 1.397 . S
C818 C823 1.363 . S
C819 H790 0.950 . S
C819 C818 1.397 . S
C819 C820 1.334 . S
C820 H791 0.950 . S
C820 C819 1.334 . S
C820 C821 1.287 . S
C821 C820 1.287 . S
C821 C822 1.524 . S
C821 H824 0.999 . S
C822 H792 0.950 . S
C822 C821 1.524 . S
C822 C823 1.415 . S
C823 H793 0.950 . S
C823 C818 1.363 . S
C823 C822 1.415 . S
H824 C821 0.999 . S
H825 C806 0.913 . S
H826 C844 0.951 . S
H827 C846 0.951 . S
H828 C848 0.950 . S
H829 C849 0.950 . S
H830 C851 0.950 . S
H831 C854 0.950 . S
H832 C855 0.950 . S
H833 C857 0.950 . S
H834 C858 0.950 . S
H835 C859 0.951 . S
H836 C861 0.951 . S
H837 C863 0.950 . S
H838 C864 0.950 . S
H839 C866 0.950 . S
H840 C869 0.950 . S
H841 C870 0.950 . S
H842 C872 0.950 . S
H843 C873 0.950 . S
C844 H826 0.951 . S
C844 C845 1.366 . S
C844 C846 1.388 . S
C845 C844 1.366 . S
C845 C849 1.385 . S
C846 H827 0.951 . S
C846 C844 1.388 . S
C846 C847 1.366 . S
C847 C846 1.366 . S
C847 C848 1.414 . S
C847 C850 1.499 . S
C848 H828 0.950 . S
C848 C847 1.414 . S
C848 C849 1.374 . S
C849 H829 0.950 . S
C849 C845 1.385 . S
C849 C848 1.374 . S
C850 C847 1.499 . S
C850 C851 1.373 . S
C850 C852 1.389 . S
C851 H830 0.950 . S
C851 C850 1.373 . S
C851 C867 1.377 . S
C852 C850 1.389 . S
C852 C853 1.524 . S
C852 C866 1.377 . S
C853 C852 1.524 . S
C853 C854 1.397 . S
C853 C858 1.363 . S
C854 H831 0.950 . S
C854 C853 1.397 . S
C854 C855 1.334 . S
C855 H832 0.950 . S
C855 C854 1.334 . S
C855 C856 1.287 . S
C856 C855 1.287 . S
C856 C857 1.524 . S
C856 H875 0.913 . S
C857 H833 0.950 . S
C857 C856 1.524 . S
C857 C858 1.415 . S
C858 H834 0.950 . S
C858 C853 1.363 . S
C858 C857 1.415 . S
C859 H835 0.951 . S
C859 C860 1.366 . S
C859 C861 1.388 . S
C860 C859 1.366 . S
C860 C864 1.385 . S
C861 H836 0.951 . S
C861 C859 1.388 . S
C861 C862 1.366 . S
C862 C861 1.366 . S
C862 C863 1.414 . S
C862 C865 1.499 . S
C863 H837 0.950 . S
C863 C862 1.414 . S
C863 C864 1.374 . S
C864 H838 0.950 . S
C864 C860 1.385 . S
C864 C863 1.374 . S
C865 C862 1.499 . S
C865 C866 1.373 . S
C865 C867 1.389 . S
C866 H839 0.950 . S
C866 C852 1.377 . S
C866 C865 1.373 . S
C867 C851 1.377 . S
C867 C865 1.389 . S
C867 C868 1.524 . S
C868 C867 1.524 . S
C868 C869 1.397 . S
C868 C873 1.363 . S
C869 H840 0.950 . S
C869 C868 1.397 . S
C869 C870 1.334 . S
C870 H841 0.950 . S
C870 C869 1.334 . S
C870 C871 1.287 . S
C871 C870 1.287 . S
C871 C872 1.524 . S
C871 H874 0.999 . S
C872 H842 0.950 . S
C872 C871 1.524 . S
C872 C873 1.415 . S
C873 H843 0.950 . S
C873 C868 1.363 . S
C873 C872 1.415 . S
H874 C871 0.999 . S
H875 C856 0.913 . S
H876 C894 0.951 . S
H877 C896 0.951 . S
H878 C898 0.950 . S
H879 C899 0.950 . S
H880 C901 0.950 . S
H881 C904 0.950 . S
H882 C905 0.950 . S
H883 C907 0.950 . S
H884 C908 0.950 . S
H885 C909 0.951 . S
H886 C911 0.951 . S
H887 C913 0.950 . S
H888 C914 0.950 . S
H889 C916 0.950 . S
H890 C919 0.950 . S
H891 C920 0.950 . S
H892 C922 0.950 . S
H893 C923 0.950 . S
C894 H876 0.951 . S
C894 C895 1.366 . S
C894 C896 1.388 . S
C895 C894 1.366 . S
C895 C899 1.385 . S
C896 H877 0.951 . S
C896 C894 1.388 . S
C896 C897 1.366 . S
C897 C896 1.366 . S
C897 C898 1.414 . S
C897 C900 1.499 . S
C898 H878 0.950 . S
C898 C897 1.414 . S
C898 C899 1.374 . S
C899 H879 0.950 . S
C899 C895 1.385 . S
C899 C898 1.374 . S
C900 C897 1.499 . S
C900 C901 1.373 . S
C900 C902 1.389 . S
C901 H880 0.950 . S
C901 C900 1.373 . S
C901 C917 1.377 . S
C902 C900 1.389 . S
C902 C903 1.524 . S
C902 C916 1.377 . S
C903 C902 1.524 . S
C903 C904 1.397 . S
C903 C908 1.363 . S
C904 H881 0.950 . S
C904 C903 1.397 . S
C904 C905 1.334 . S
C905 H882 0.950 . S
C905 C904 1.334 . S
C905 C906 1.287 . S
C906 C905 1.287 . S
C906 C907 1.524 . S
C906 H925 0.913 . S
C907 H883 0.950 . S
C907 C906 1.524 . S
C907 C908 1.415 . S
C908 H884 0.950 . S
C908 C903 1.363 . S
C908 C907 1.415 . S
C909 H885 0.951 . S
C909 C910 1.366 . S
C909 C911 1.388 . S
C910 C909 1.366 . S
C910 C914 1.385 . S
C911 H886 0.951 . S
C911 C909 1.388 . S
C911 C912 1.366 . S
C912 C911 1.366 . S
C912 C913 1.414 . S
C912 C915 1.499 . S
C913 H887 0.950 . S
C913 C912 1.414 . S
C913 C914 1.374 . S
C914 H888 0.950 . S
C914 C910 1.385 . S
C914 C913 1.374 . S
C915 C912 1.499 . S
C915 C916 1.373 . S
C915 C917 1.389 . S
C916 H889 0.950 . S
C916 C902 1.377 . S
C916 C915 1.373 . S
C917 C901 1.377 . S
C917 C915 1.389 . S
C917 C918 1.524 . S
C918 C917 1.524 . S
C918 C919 1.397 . S
C918 C923 1.363 . S
C919 H890 0.950 . S
C919 C918 1.397 . S
C919 C920 1.334 . S
C920 H891 0.950 . S
C920 C919 1.334 . S
C920 C921 1.287 . S
C921 C920 1.287 . S
C921 C922 1.524 . S
C921 H924 0.999 . S
C922 H892 0.950 . S
C922 C921 1.524 . S
C922 C923 1.415 . S
C923 H893 0.950 . S
C923 C918 1.363 . S
C923 C922 1.415 . S
H924 C921 0.999 . S
H925 C906 0.913 . S
H926 C944 0.951 . S
H927 C946 0.951 . S
H928 C948 0.950 . S
H929 C949 0.950 . S
H930 C951 0.950 . S
H931 C954 0.950 . S
H932 C955 0.950 . S
H933 C957 0.950 . S
H934 C958 0.950 . S
H935 C959 0.951 . S
H936 C961 0.951 . S
H937 C963 0.950 . S
H938 C964 0.950 . S
H939 C966 0.950 . S
H940 C969 0.950 . S
H941 C970 0.950 . S
H942 C972 0.950 . S
H943 C973 0.950 . S
C944 H926 0.951 . S
C944 C945 1.366 . S
C944 C946 1.388 . S
C945 C944 1.366 . S
C945 C949 1.385 . S
C946 H927 0.951 . S
C946 C944 1.388 . S
C946 C947 1.366 . S
C947 C946 1.366 . S
C947 C948 1.414 . S
C947 C950 1.499 . S
C948 H928 0.950 . S
C948 C947 1.414 . S
C948 C949 1.374 . S
C949 H929 0.950 . S
C949 C945 1.385 . S
C949 C948 1.374 . S
C950 C947 1.499 . S
C950 C951 1.373 . S
C950 C952 1.389 . S
C951 H930 0.950 . S
C951 C950 1.373 . S
C951 C967 1.377 . S
C952 C950 1.389 . S
C952 C953 1.524 . S
C952 C966 1.377 . S
C953 C952 1.524 . S
C953 C954 1.397 . S
C953 C958 1.363 . S
C954 H931 0.950 . S
C954 C953 1.397 . S
C954 C955 1.334 . S
C955 H932 0.950 . S
C955 C954 1.334 . S
C955 C956 1.287 . S
C956 C955 1.287 . S
C956 C957 1.524 . S
C956 H975 0.913 . S
C957 H933 0.950 . S
C957 C956 1.524 . S
C957 C958 1.415 . S
C958 H934 0.950 . S
C958 C953 1.363 . S
C958 C957 1.415 . S
C959 H935 0.951 . S
C959 C960 1.366 . S
C959 C961 1.388 . S
C960 C959 1.366 . S
C960 C964 1.385 . S
C961 H936 0.951 . S
C961 C959 1.388 . S
C961 C962 1.366 . S
C962 C961 1.366 . S
C962 C963 1.414 . S
C962 C965 1.499 . S
C963 H937 0.950 . S
C963 C962 1.414 . S
C963 C964 1.374 . S
C964 H938 0.950 . S
C964 C960 1.385 . S
C964 C963 1.374 . S
C965 C962 1.499 . S
C965 C966 1.373 . S
C965 C967 1.389 . S
C966 H939 0.950 . S
C966 C952 1.377 . S
C966 C965 1.373 . S
C967 C951 1.377 . S
C967 C965 1.389 . S
C967 C968 1.524 . S
C968 C967 1.524 . S
C968 C969 1.397 . S
C968 C973 1.363 . S
C969 H940 0.950 . S
C969 C968 1.397 . S
C969 C970 1.334 . S
C970 H941 0.950 . S
C970 C969 1.334 . S
C970 C971 1.287 . S
C971 C970 1.287 . S
C971 C972 1.524 . S
C971 H974 0.999 . S
C972 H942 0.950 . S
C972 C971 1.524 . S
C972 C973 1.415 . S
C973 H943 0.950 . S
C973 C968 1.363 . S
C973 C972 1.415 . S
H974 C971 0.999 . S
H975 C956 0.913 . S
H976 C994 0.951 . S
H977 C996 0.951 . S
H978 C998 0.950 . S
H979 C999 0.950 . S
H980 C1001 0.950 . S
H981 C1004 0.950 . S
H982 C1005 0.950 . S
H983 C1007 0.950 . S
H984 C1008 0.950 . S
H985 C1009 0.951 . S
H986 C1011 0.951 . S
H987 C1013 0.950 . S
H988 C1014 0.950 . S
H989 C1016 0.950 . S
H990 C1019 0.950 . S
H991 C1020 0.950 . S
H992 C1022 0.950 . S
H993 C1023 0.950 . S
C994 H976 0.951 . S
C994 C995 1.366 . S
C994 C996 1.388 . S
C995 C994 1.366 . S
C995 C999 1.385 . S
C996 H977 0.951 . S
C996 C994 1.388 . S
C996 C997 1.366 . S
C997 C996 1.366 . S
C997 C998 1.414 . S
C997 C1000 1.499 . S
C998 H978 0.950 . S
C998 C997 1.414 . S
C998 C999 1.374 . S
C999 H979 0.950 . S
C999 C995 1.385 . S
C999 C998 1.374 . S
C1000 C997 1.499 . S
C1000 C1001 1.373 . S
C1000 C1002 1.389 . S
C1001 H980 0.950 . S
C1001 C1000 1.373 . S
C1001 C1017 1.377 . S
C1002 C1000 1.389 . S
C1002 C1003 1.524 . S
C1002 C1016 1.377 . S
C1003 C1002 1.524 . S
C1003 C1004 1.397 . S
C1003 C1008 1.363 . S
C1004 H981 0.950 . S
C1004 C1003 1.397 . S
C1004 C1005 1.334 . S
C1005 H982 0.950 . S
C1005 C1004 1.334 . S
C1005 C1006 1.287 . S
C1006 C1005 1.287 . S
C1006 C1007 1.524 . S
C1006 H1025 0.913 . S
C1007 H983 0.950 . S
C1007 C1006 1.524 . S
C1007 C1008 1.415 . S
C1008 H984 0.950 . S
C1008 C1003 1.363 . S
C1008 C1007 1.415 . S
C1009 H985 0.951 . S
C1009 C1010 1.366 . S
C1009 C1011 1.388 . S
C1010 C1009 1.366 . S
C1010 C1014 1.385 . S
C1011 H986 0.951 . S
C1011 C1009 1.388 . S
C1011 C1012 1.366 . S
C1012 C1011 1.366 . S
C1012 C1013 1.414 . S
C1012 C1015 1.499 . S
C1013 H987 0.950 . S
C1013 C1012 1.414 . S
C1013 C1014 1.374 . S
C1014 H988 0.950 . S
C1014 C1010 1.385 . S
C1014 C1013 1.374 . S
C1015 C1012 1.499 . S
C1015 C1016 1.373 . S
C1015 C1017 1.389 . S
C1016 H989 0.950 . S
C1016 C1002 1.377 . S
C1016 C1015 1.373 . S
C1017 C1001 1.377 . S
C1017 C1015 1.389 . S
C1017 C1018 1.524 . S
C1018 C1017 1.524 . S
C1018 C1019 1.397 . S
C1018 C1023 1.363 . S
C1019 H990 0.950 . S
C1019 C1018 1.397 . S
C1019 C1020 1.334 . S
C1020 H991 0.950 . S
C1020 C1019 1.334 . S
C1020 C1021 1.287 . S
C1021 C1020 1.287 . S
C1021 C1022 1.524 . S
C1021 H1024 0.999 . S
C1022 H992 0.950 . S
C1022 C1021 1.524 . S
C1022 C1023 1.415 . S
C1023 H993 0.950 . S
C1023 C1018 1.363 . S
C1023 C1022 1.415 . S
H1024 C1021 0.999 . S
H1025 C1006 0.913 . S
H1026 C1044 0.951 . S
H1027 C1046 0.951 . S
H1028 C1048 0.950 . S
H1029 C1049 0.950 . S
H1030 C1051 0.950 . S
H1031 C1054 0.950 . S
H1032 C1055 0.950 . S
H1033 C1057 0.950 . S
H1034 C1058 0.950 . S
H1035 C1059 0.951 . S
H1036 C1061 0.951 . S
H1037 C1063 0.950 . S
H1038 C1064 0.950 . S
H1039 C1066 0.950 . S
H1040 C1069 0.950 . S
H1041 C1070 0.950 . S
H1042 C1072 0.950 . S
H1043 C1073 0.950 . S
C1044 H1026 0.951 . S
C1044 C1045 1.366 . S
C1044 C1046 1.388 . S
C1045 C1044 1.366 . S
C1045 C1049 1.385 . S
C1046 H1027 0.951 . S
C1046 C1044 1.388 . S
C1046 C1047 1.366 . S
C1047 C1046 1.366 . S
C1047 C1048 1.414 . S
C1047 C1050 1.499 . S
C1048 H1028 0.950 . S
C1048 C1047 1.414 . S
C1048 C1049 1.374 . S
C1049 H1029 0.950 . S
C1049 C1045 1.385 . S
C1049 C1048 1.374 . S
C1050 C1047 1.499 . S
C1050 C1051 1.373 . S
C1050 C1052 1.389 . S
C1051 H1030 0.950 . S
C1051 C1050 1.373 . S
C1051 C1067 1.377 . S
C1052 C1050 1.389 . S
C1052 C1053 1.524 . S
C1052 C1066 1.377 . S
C1053 C1052 1.524 . S
C1053 C1054 1.397 . S
C1053 C1058 1.363 . S
C1054 H1031 0.950 . S
C1054 C1053 1.397 . S
C1054 C1055 1.334 . S
C1055 H1032 0.950 . S
C1055 C1054 1.334 . S
C1055 C1056 1.287 . S
C1056 C1055 1.287 . S
C1056 C1057 1.524 . S
C1056 H1075 0.913 . S
C1057 H1033 0.950 . S
C1057 C1056 1.524 . S
C1057 C1058 1.415 . S
C1058 H1034 0.950 . S
C1058 C1053 1.363 . S
C1058 C1057 1.415 . S
C1059 H1035 0.951 . S
C1059 C1060 1.366 . S
C1059 C1061 1.388 . S
C1060 C1059 1.366 . S
C1060 C1064 1.385 . S
C1061 H1036 0.951 . S
C1061 C1059 1.388 . S
C1061 C1062 1.366 . S
C1062 C1061 1.366 . S
C1062 C1063 1.414 . S
C1062 C1065 1.499 . S
C1063 H1037 0.950 . S
C1063 C1062 1.414 . S
C1063 C1064 1.374 . S
C1064 H1038 0.950 . S
C1064 C1060 1.385 . S
C1064 C1063 1.374 . S
C1065 C1062 1.499 . S
C1065 C1066 1.373 . S
C1065 C1067 1.389 . S
C1066 H1039 0.950 . S
C1066 C1052 1.377 . S
C1066 C1065 1.373 . S
C1067 C1051 1.377 . S
C1067 C1065 1.389 . S
C1067 C1068 1.524 . S
C1068 C1067 1.524 . S
C1068 C1069 1.397 . S
C1068 C1073 1.363 . S
C1069 H1040 0.950 . S
C1069 C1068 1.397 . S
C1069 C1070 1.334 . S
C1070 H1041 0.950 . S
C1070 C1069 1.334 . S
C1070 C1071 1.287 . S
C1071 C1070 1.287 . S
C1071 C1072 1.524 . S
C1071 H1074 0.999 . S
C1072 H1042 0.950 . S
C1072 C1071 1.524 . S
C1072 C1073 1.415 . S
C1073 H1043 0.950 . S
C1073 C1068 1.363 . S
C1073 C1072 1.415 . S
H1074 C1071 0.999 . S
H1075 C1056 0.913 . S
H1076 C1094 0.951 . S
H1077 C1096 0.951 . S
H1078 C1098 0.950 . S
H1079 C1099 0.950 . S
H1080 C1101 0.950 . S
H1081 C1104 0.950 . S
H1082 C1105 0.950 . S
H1083 C1107 0.950 . S
H1084 C1108 0.950 . S
H1085 C1109 0.951 . S
H1086 C1111 0.951 . S
H1087 C1113 0.950 . S
H1088 C1114 0.950 . S
H1089 C1116 0.950 . S
H1090 C1119 0.950 . S
H1091 C1120 0.950 . S
H1092 C1122 0.950 . S
H1093 C1123 0.950 . S
C1094 H1076 0.951 . S
C1094 C1095 1.366 . S
C1094 C1096 1.388 . S
C1095 C1094 1.366 . S
C1095 C1099 1.385 . S
C1096 H1077 0.951 . S
C1096 C1094 1.388 . S
C1096 C1097 1.366 . S
C1097 C1096 1.366 . S
C1097 C1098 1.414 . S
C1097 C1100 1.499 . S
C1098 H1078 0.950 . S
C1098 C1097 1.414 . S
C1098 C1099 1.374 . S
C1099 H1079 0.950 . S
C1099 C1095 1.385 . S
C1099 C1098 1.374 . S
C1100 C1097 1.499 . S
C1100 C1101 1.373 . S
C1100 C1102 1.389 . S
C1101 H1080 0.950 . S
C1101 C1100 1.373 . S
C1101 C1117 1.377 . S
C1102 C1100 1.389 . S
C1102 C1103 1.524 . S
C1102 C1116 1.377 . S
C1103 C1102 1.524 . S
C1103 C1104 1.397 . S
C1103 C1108 1.363 . S
C1104 H1081 0.950 . S
C1104 C1103 1.397 . S
C1104 C1105 1.334 . S
C1105 H1082 0.950 . S
C1105 C1104 1.334 . S
C1105 C1106 1.287 . S
C1106 C1105 1.287 . S
C1106 C1107 1.524 . S
C1106 H1125 0.913 . S
C1107 H1083 0.950 . S
C1107 C1106 1.524 . S
C1107 C1108 1.415 . S
C1108 H1084 0.950 . S
C1108 C1103 1.363 . S
C1108 C1107 1.415 . S
C1109 H1085 0.951 . S
C1109 C1110 1.366 . S
C1109 C1111 1.388 . S
C1110 C1109 1.366 . S
C1110 C1114 1.385 . S
C1111 H1086 0.951 . S
C1111 C1109 1.388 . S
C1111 C1112 1.366 . S
C1112 C1111 1.366 . S
C1112 C1113 1.414 . S
C1112 C1115 1.499 . S
C1113 H1087 0.950 . S
C1113 C1112 1.414 . S
C1113 C1114 1.374 . S
C1114 H1088 0.950 . S
C1114 C1110 1.385 . S
C1114 C1113 1.374 . S
C1115 C1112 1.499 . S
C1115 C1116 1.373 . S
C1115 C1117 1.389 . S
C1116 H1089 0.950 . S
C1116 C1102 1.377 . S
C1116 C1115 1.373 . S
C1117 C1101 1.377 . S
C1117 C1115 1.389 . S
C1117 C1118 1.524 . S
C1118 C1117 1.524 . S
C1118 C1119 1.397 . S
C1118 C1123 1.363 . S
C1119 H1090 0.950 . S
C1119 C1118 1.397 . S
C1119 C1120 1.334 . S
C1120 H1091 0.950 . S
C1120 C1119 1.334 . S
C1120 C1121 1.287 . S
C1121 C1120 1.287 . S
C1121 C1122 1.524 . S
C1121 H1124 0.999 . S
C1122 H1092 0.950 . S
C1122 C1121 1.524 . S
C1122 C1123 1.415 . S
C1123 H1093 0.950 . S
C1123 C1118 1.363 . S
C1123 C1122 1.415 . S
H1124 C1121 0.999 . S
H1125 C1106 0.913 . S
H1126 C1144 0.951 . S
H1127 C1146 0.951 . S
H1128 C1148 0.950 . S
H1129 C1149 0.950 . S
H1130 C1151 0.950 . S
H1131 C1154 0.950 . S
H1132 C1155 0.950 . S
H1133 C1157 0.950 . S
H1134 C1158 0.950 . S
H1135 C1159 0.951 . S
H1136 C1161 0.951 . S
H1137 C1163 0.950 . S
H1138 C1164 0.950 . S
H1139 C1166 0.950 . S
H1140 C1169 0.950 . S
H1141 C1170 0.950 . S
H1142 C1172 0.950 . S
H1143 C1173 0.950 . S
C1144 H1126 0.951 . S
C1144 C1145 1.366 . S
C1144 C1146 1.388 . S
C1145 C1144 1.366 . S
C1145 C1149 1.385 . S
C1146 H1127 0.951 . S
C1146 C1144 1.388 . S
C1146 C1147 1.366 . S
C1147 C1146 1.366 . S
C1147 C1148 1.414 . S
C1147 C1150 1.499 . S
C1148 H1128 0.950 . S
C1148 C1147 1.414 . S
C1148 C1149 1.374 . S
C1149 H1129 0.950 . S
C1149 C1145 1.385 . S
C1149 C1148 1.374 . S
C1150 C1147 1.499 . S
C1150 C1151 1.373 . S
C1150 C1152 1.389 . S
C1151 H1130 0.950 . S
C1151 C1150 1.373 . S
C1151 C1167 1.377 . S
C1152 C1150 1.389 . S
C1152 C1153 1.524 . S
C1152 C1166 1.377 . S
C1153 C1152 1.524 . S
C1153 C1154 1.397 . S
C1153 C1158 1.363 . S
C1154 H1131 0.950 . S
C1154 C1153 1.397 . S
C1154 C1155 1.334 . S
C1155 H1132 0.950 . S
C1155 C1154 1.334 . S
C1155 C1156 1.287 . S
C1156 C1155 1.287 . S
C1156 C1157 1.524 . S
C1156 H1175 0.913 . S
C1157 H1133 0.950 . S
C1157 C1156 1.524 . S
C1157 C1158 1.415 . S
C1158 H1134 0.950 . S
C1158 C1153 1.363 . S
C1158 C1157 1.415 . S
C1159 H1135 0.951 . S
C1159 C1160 1.366 . S
C1159 C1161 1.388 . S
C1160 C1159 1.366 . S
C1160 C1164 1.385 . S
C1161 H1136 0.951 . S
C1161 C1159 1.388 . S
C1161 C1162 1.366 . S
C1162 C1161 1.366 . S
C1162 C1163 1.414 . S
C1162 C1165 1.499 . S
C1163 H1137 0.950 . S
C1163 C1162 1.414 . S
C1163 C1164 1.374 . S
C1164 H1138 0.950 . S
C1164 C1160 1.385 . S
C1164 C1163 1.374 . S
C1165 C1162 1.499 . S
C1165 C1166 1.373 . S
C1165 C1167 1.389 . S
C1166 H1139 0.950 . S
C1166 C1152 1.377 . S
C1166 C1165 1.373 . S
C1167 C1151 1.377 . S
C1167 C1165 1.389 . S
C1167 C1168 1.524 . S
C1168 C1167 1.524 . S
C1168 C1169 1.397 . S
C1168 C1173 1.363 . S
C1169 H1140 0.950 . S
C1169 C1168 1.397 . S
C1169 C1170 1.334 . S
C1170 H1141 0.950 . S
C1170 C1169 1.334 . S
C1170 C1171 1.287 . S
C1171 C1170 1.287 . S
C1171 C1172 1.524 . S
C1171 H1174 0.999 . S
C1172 H1142 0.950 . S
C1172 C1171 1.524 . S
C1172 C1173 1.415 . S
C1173 H1143 0.950 . S
C1173 C1168 1.363 . S
C1173 C1172 1.415 . S
H1174 C1171 0.999 . S
H1175 C1156 0.913 . S
H1176 C1194 0.951 . S
H1177 C1196 0.951 . S
H1178 C1198 0.950 . S
H1179 C1199 0.950 . S
H1180 C1201 0.950 . S
H1181 C1204 0.950 . S
H1182 C1205 0.950 . S
H1183 C1207 0.950 . S
H1184 C1208 0.950 . S
H1185 C1209 0.951 . S
H1186 C1211 0.951 . S
H1187 C1213 0.950 . S
H1188 C1214 0.950 . S
H1189 C1216 0.950 . S
H1190 C1219 0.950 . S
H1191 C1220 0.950 . S
H1192 C1222 0.950 . S
H1193 C1223 0.950 . S
C1194 H1176 0.951 . S
C1194 C1195 1.366 . S
C1194 C1196 1.388 . S
C1195 C1194 1.366 . S
C1195 C1199 1.385 . S
C1196 H1177 0.951 . S
C1196 C1194 1.388 . S
C1196 C1197 1.366 . S
C1197 C1196 1.366 . S
C1197 C1198 1.414 . S
C1197 C1200 1.499 . S
C1198 H1178 0.950 . S
C1198 C1197 1.414 . S
C1198 C1199 1.374 . S
C1199 H1179 0.950 . S
C1199 C1195 1.385 . S
C1199 C1198 1.374 . S
C1200 C1197 1.499 . S
C1200 C1201 1.373 . S
C1200 C1202 1.389 . S
C1201 H1180 0.950 . S
C1201 C1200 1.373 . S
C1201 C1217 1.377 . S
C1202 C1200 1.389 . S
C1202 C1203 1.524 . S
C1202 C1216 1.377 . S
C1203 C1202 1.524 . S
C1203 C1204 1.397 . S
C1203 C1208 1.363 . S
C1204 H1181 0.950 . S
C1204 C1203 1.397 . S
C1204 C1205 1.334 . S
C1205 H1182 0.950 . S
C1205 C1204 1.334 . S
C1205 C1206 1.287 . S
C1206 C1205 1.287 . S
C1206 C1207 1.524 . S
C1206 H1225 0.913 . S
C1207 H1183 0.950 . S
C1207 C1206 1.524 . S
C1207 C1208 1.415 . S
C1208 H1184 0.950 . S
C1208 C1203 1.363 . S
C1208 C1207 1.415 . S
C1209 H1185 0.951 . S
C1209 C1210 1.366 . S
C1209 C1211 1.388 . S
C1210 C1209 1.366 . S
C1210 C1214 1.385 . S
C1211 H1186 0.951 . S
C1211 C1209 1.388 . S
C1211 C1212 1.366 . S
C1212 C1211 1.366 . S
C1212 C1213 1.414 . S
C1212 C1215 1.499 . S
C1213 H1187 0.950 . S
C1213 C1212 1.414 . S
C1213 C1214 1.374 . S
C1214 H1188 0.950 . S
C1214 C1210 1.385 . S
C1214 C1213 1.374 . S
C1215 C1212 1.499 . S
C1215 C1216 1.373 . S
C1215 C1217 1.389 . S
C1216 H1189 0.950 . S
C1216 C1202 1.377 . S
C1216 C1215 1.373 . S
C1217 C1201 1.377 . S
C1217 C1215 1.389 . S
C1217 C1218 1.524 . S
C1218 C1217 1.524 . S
C1218 C1219 1.397 . S
C1218 C1223 1.363 . S
C1219 H1190 0.950 . S
C1219 C1218 1.397 . S
C1219 C1220 1.334 . S
C1220 H1191 0.950 . S
C1220 C1219 1.334 . S
C1220 C1221 1.287 . S
C1221 C1220 1.287 . S
C1221 C1222 1.524 . S
C1221 H1224 0.999 . S
C1222 H1192 0.950 . S
C1222 C1221 1.524 . S
C1222 C1223 1.415 . S
C1223 H1193 0.950 . S
C1223 C1218 1.363 . S
C1223 C1222 1.415 . S
H1224 C1221 0.999 . S
H1225 C1206 0.913 . S
H1226 C1244 0.951 . S
H1227 C1246 0.951 . S
H1228 C1248 0.950 . S
H1229 C1249 0.950 . S
H1230 C1251 0.950 . S
H1231 C1254 0.950 . S
H1232 C1255 0.950 . S
H1233 C1257 0.950 . S
H1234 C1258 0.950 . S
H1235 C1259 0.951 . S
H1236 C1261 0.951 . S
H1237 C1263 0.950 . S
H1238 C1264 0.950 . S
H1239 C1266 0.950 . S
H1240 C1269 0.950 . S
H1241 C1270 0.950 . S
H1242 C1272 0.950 . S
H1243 C1273 0.950 . S
C1244 H1226 0.951 . S
C1244 C1245 1.366 . S
C1244 C1246 1.388 . S
C1245 C1244 1.366 . S
C1245 C1249 1.385 . S
C1246 H1227 0.951 . S
C1246 C1244 1.388 . S
C1246 C1247 1.366 . S
C1247 C1246 1.366 . S
C1247 C1248 1.414 . S
C1247 C1250 1.499 . S
C1248 H1228 0.950 . S
C1248 C1247 1.414 . S
C1248 C1249 1.374 . S
C1249 H1229 0.950 . S
C1249 C1245 1.385 . S
C1249 C1248 1.374 . S
C1250 C1247 1.499 . S
C1250 C1251 1.373 . S
C1250 C1252 1.389 . S
C1251 H1230 0.950 . S
C1251 C1250 1.373 . S
C1251 C1267 1.377 . S
C1252 C1250 1.389 . S
C1252 C1253 1.524 . S
C1252 C1266 1.377 . S
C1253 C1252 1.524 . S
C1253 C1254 1.397 . S
C1253 C1258 1.363 . S
C1254 H1231 0.950 . S
C1254 C1253 1.397 . S
C1254 C1255 1.334 . S
C1255 H1232 0.950 . S
C1255 C1254 1.334 . S
C1255 C1256 1.287 . S
C1256 C1255 1.287 . S
C1256 C1257 1.524 . S
C1256 H1275 0.913 . S
C1257 H1233 0.950 . S
C1257 C1256 1.524 . S
C1257 C1258 1.415 . S
C1258 H1234 0.950 . S
C1258 C1253 1.363 . S
C1258 C1257 1.415 . S
C1259 H1235 0.951 . S
C1259 C1260 1.366 . S
C1259 C1261 1.388 . S
C1260 C1259 1.366 . S
C1260 C1264 1.385 . S
C1261 H1236 0.951 . S
C1261 C1259 1.388 . S
C1261 C1262 1.366 . S
C1262 C1261 1.366 . S
C1262 C1263 1.414 . S
C1262 C1265 1.499 . S
C1263 H1237 0.950 . S
C1263 C1262 1.414 . S
C1263 C1264 1.374 . S
C1264 H1238 0.950 . S
C1264 C1260 1.385 . S
C1264 C1263 1.374 . S
C1265 C1262 1.499 . S
C1265 C1266 1.373 . S
C1265 C1267 1.389 . S
C1266 H1239 0.950 . S
C1266 C1252 1.377 . S
C1266 C1265 1.373 . S
C1267 C1251 1.377 . S
C1267 C1265 1.389 . S
C1267 C1268 1.524 . S
C1268 C1267 1.524 . S
C1268 C1269 1.397 . S
C1268 C1273 1.363 . S
C1269 H1240 0.950 . S
C1269 C1268 1.397 . S
C1269 C1270 1.334 . S
C1270 H1241 0.950 . S
C1270 C1269 1.334 . S
C1270 C1271 1.287 . S
C1271 C1270 1.287 . S
C1271 C1272 1.524 . S
C1271 H1274 0.999 . S
C1272 H1242 0.950 . S
C1272 C1271 1.524 . S
C1272 C1273 1.415 . S
C1273 H1243 0.950 . S
C1273 C1268 1.363 . S
C1273 C1272 1.415 . S
H1274 C1271 0.999 . S
H1275 C1256 0.913 . S
H1276 C1294 0.951 . S
H1277 C1296 0.951 . S
H1278 C1298 0.950 . S
H1279 C1299 0.950 . S
H1280 C1301 0.950 . S
H1281 C1304 0.950 . S
H1282 C1305 0.950 . S
H1283 C1307 0.950 . S
H1284 C1308 0.950 . S
H1285 C1309 0.951 . S
H1286 C1311 0.951 . S
H1287 C1313 0.950 . S
H1288 C1314 0.950 . S
H1289 C1316 0.950 . S
H1290 C1319 0.950 . S
H1291 C1320 0.950 . S
H1292 C1322 0.950 . S
H1293 C1323 0.950 . S
C1294 H1276 0.951 . S
C1294 C1295 1.366 . S
C1294 C1296 1.388 . S
C1295 C1294 1.366 . S
C1295 C1299 1.385 . S
C1296 H1277 0.951 . S
C1296 C1294 1.388 . S
C1296 C1297 1.366 . S
C1297 C1296 1.366 . S
C1297 C1298 1.414 . S
C1297 C1300 1.499 . S
C1298 H1278 0.950 . S
C1298 C1297 1.414 . S
C1298 C1299 1.374 . S
C1299 H1279 0.950 . S
C1299 C1295 1.385 . S
C1299 C1298 1.374 . S
C1300 C1297 1.499 . S
C1300 C1301 1.373 . S
C1300 C1302 1.389 . S
C1301 H1280 0.950 . S
C1301 C1300 1.373 . S
C1301 C1317 1.377 . S
C1302 C1300 1.389 . S
C1302 C1303 1.524 . S
C1302 C1316 1.377 . S
C1303 C1302 1.524 . S
C1303 C1304 1.397 . S
C1303 C1308 1.363 . S
C1304 H1281 0.950 . S
C1304 C1303 1.397 . S
C1304 C1305 1.334 . S
C1305 H1282 0.950 . S
C1305 C1304 1.334 . S
C1305 C1306 1.287 . S
C1306 C1305 1.287 . S
C1306 C1307 1.524 . S
C1306 H1325 0.913 . S
C1307 H1283 0.950 . S
C1307 C1306 1.524 . S
C1307 C1308 1.415 . S
C1308 H1284 0.950 . S
C1308 C1303 1.363 . S
C1308 C1307 1.415 . S
C1309 H1285 0.951 . S
C1309 C1310 1.366 . S
C1309 C1311 1.388 . S
C1310 C1309 1.366 . S
C1310 C1314 1.385 . S
C1311 H1286 0.951 . S
C1311 C1309 1.388 . S
C1311 C1312 1.366 . S
C1312 C1311 1.366 . S
C1312 C1313 1.414 . S
C1312 C1315 1.499 . S
C1313 H1287 0.950 . S
C1313 C1312 1.414 . S
C1313 C1314 1.374 . S
C1314 H1288 0.950 . S
C1314 C1310 1.385 . S
C1314 C1313 1.374 . S
C1315 C1312 1.499 . S
C1315 C1316 1.373 . S
C1315 C1317 1.389 . S
C1316 H1289 0.950 . S
C1316 C1302 1.377 . S
C1316 C1315 1.373 . S
C1317 C1301 1.377 . S
C1317 C1315 1.389 . S
C1317 C1318 1.524 . S
C1318 C1317 1.524 . S
C1318 C1319 1.397 . S
C1318 C1323 1.363 . S
C1319 H1290 0.950 . S
C1319 C1318 1.397 . S
C1319 C1320 1.334 . S
C1320 H1291 0.950 . S
C1320 C1319 1.334 . S
C1320 C1321 1.287 . S
C1321 C1320 1.287 . S
C1321 C1322 1.524 . S
C1321 H1324 0.999 . S
C1322 H1292 0.950 . S
C1322 C1321 1.524 . S
C1322 C1323 1.415 . S
C1323 H1293 0.950 . S
C1323 C1318 1.363 . S
C1323 C1322 1.415 . S
H1324 C1321 0.999 . S
H1325 C1306 0.913 . S
H1326 C1344 0.951 . S
H1327 C1346 0.951 . S
H1328 C1348 0.950 . S
H1329 C1349 0.950 . S
H1330 C1351 0.950 . S
H1331 C1354 0.950 . S
H1332 C1355 0.950 . S
H1333 C1357 0.950 . S
H1334 C1358 0.950 . S
H1335 C1359 0.951 . S
H1336 C1361 0.951 . S
H1337 C1363 0.950 . S
H1338 C1364 0.950 . S
H1339 C1366 0.950 . S
H1340 C1369 0.950 . S
H1341 C1370 0.950 . S
H1342 C1372 0.950 . S
H1343 C1373 0.950 . S
C1344 H1326 0.951 . S
C1344 C1345 1.366 . S
C1344 C1346 1.388 . S
C1345 C1344 1.366 . S
C1345 C1349 1.385 . S
C1346 H1327 0.951 . S
C1346 C1344 1.388 . S
C1346 C1347 1.366 . S
C1347 C1346 1.366 . S
C1347 C1348 1.414 . S
C1347 C1350 1.499 . S
C1348 H1328 0.950 . S
C1348 C1347 1.414 . S
C1348 C1349 1.374 . S
C1349 H1329 0.950 . S
C1349 C1345 1.385 . S
C1349 C1348 1.374 . S
C1350 C1347 1.499 . S
C1350 C1351 1.373 . S
C1350 C1352 1.389 . S
C1351 H1330 0.950 . S
C1351 C1350 1.373 . S
C1351 C1367 1.377 . S
C1352 C1350 1.389 . S
C1352 C1353 1.524 . S
C1352 C1366 1.377 . S
C1353 C1352 1.524 . S
C1353 C1354 1.397 . S
C1353 C1358 1.363 . S
C1354 H1331 0.950 . S
C1354 C1353 1.397 . S
C1354 C1355 1.334 . S
C1355 H1332 0.950 . S
C1355 C1354 1.334 . S
C1355 C1356 1.287 . S
C1356 C1355 1.287 . S
C1356 C1357 1.524 . S
C1356 H1375 0.913 . S
C1357 H1333 0.950 . S
C1357 C1356 1.524 . S
C1357 C1358 1.415 . S
C1358 H1334 0.950 . S
C1358 C1353 1.363 . S
C1358 C1357 1.415 . S
C1359 H1335 0.951 . S
C1359 C1360 1.366 . S
C1359 C1361 1.388 . S
C1360 C1359 1.366 . S
C1360 C1364 1.385 . S
C1361 H1336 0.951 . S
C1361 C1359 1.388 . S
C1361 C1362 1.366 . S
C1362 C1361 1.366 . S
C1362 C1363 1.414 . S
C1362 C1365 1.499 . S
C1363 H1337 0.950 . S
C1363 C1362 1.414 . S
C1363 C1364 1.374 . S
C1364 H1338 0.950 . S
C1364 C1360 1.385 . S
C1364 C1363 1.374 . S
C1365 C1362 1.499 . S
C1365 C1366 1.373 . S
C1365 C1367 1.389 . S
C1366 H1339 0.950 . S
C1366 C1352 1.377 . S
C1366 C1365 1.373 . S
C1367 C1351 1.377 . S
C1367 C1365 1.389 . S
C1367 C1368 1.524 . S
C1368 C1367 1.524 . S
C1368 C1369 1.397 . S
C1368 C1373 1.363 . S
C1369 H1340 0.950 . S
C1369 C1368 1.397 . S
C1369 C1370 1.334 . S
C1370 H1341 0.950 . S
C1370 C1369 1.334 . S
C1370 C1371 1.287 . S
C1371 C1370 1.287 . S
C1371 C1372 1.524 . S
C1371 H1374 0.999 . S
C1372 H1342 0.950 . S
C1372 C1371 1.524 . S
C1372 C1373 1.415 . S
C1373 H1343 0.950 . S
C1373 C1368 1.363 . S
C1373 C1372 1.415 . S
H1374 C1371 0.999 . S
H1375 C1356 0.913 . S
H1376 C1394 0.951 . S
H1377 C1396 0.951 . S
H1378 C1398 0.950 . S
H1379 C1399 0.950 . S
H1380 C1401 0.950 . S
H1381 C1404 0.950 . S
H1382 C1405 0.950 . S
H1383 C1407 0.950 . S
H1384 C1408 0.950 . S
H1385 C1409 0.951 . S
H1386 C1411 0.951 . S
H1387 C1413 0.950 . S
H1388 C1414 0.950 . S
H1389 C1416 0.950 . S
H1390 C1419 0.950 . S
H1391 C1420 0.950 . S
H1392 C1422 0.950 . S
H1393 C1423 0.950 . S
C1394 H1376 0.951 . S
C1394 C1395 1.366 . S
C1394 C1396 1.388 . S
C1395 C1394 1.366 . S
C1395 C1399 1.385 . S
C1396 H1377 0.951 . S
C1396 C1394 1.388 . S
C1396 C1397 1.366 . S
C1397 C1396 1.366 . S
C1397 C1398 1.414 . S
C1397 C1400 1.499 . S
C1398 H1378 0.950 . S
C1398 C1397 1.414 . S
C1398 C1399 1.374 . S
C1399 H1379 0.950 . S
C1399 C1395 1.385 . S
C1399 C1398 1.374 . S
C1400 C1397 1.499 . S
C1400 C1401 1.373 . S
C1400 C1402 1.389 . S
C1401 H1380 0.950 . S
C1401 C1400 1.373 . S
C1401 C1417 1.377 . S
C1402 C1400 1.389 . S
C1402 C1403 1.524 . S
C1402 C1416 1.377 . S
C1403 C1402 1.524 . S
C1403 C1404 1.397 . S
C1403 C1408 1.363 . S
C1404 H1381 0.950 . S
C1404 C1403 1.397 . S
C1404 C1405 1.334 . S
C1405 H1382 0.950 . S
C1405 C1404 1.334 . S
C1405 C1406 1.287 . S
C1406 C1405 1.287 . S
C1406 C1407 1.524 . S
C1406 H1425 0.913 . S
C1407 H1383 0.950 . S
C1407 C1406 1.524 . S
C1407 C1408 1.415 . S
C1408 H1384 0.950 . S
C1408 C1403 1.363 . S
C1408 C1407 1.415 . S
C1409 H1385 0.951 . S
C1409 C1410 1.366 . S
C1409 C1411 1.388 . S
C1410 C1409 1.366 . S
C1410 C1414 1.385 . S
C1411 H1386 0.951 . S
C1411 C1409 1.388 . S
C1411 C1412 1.366 . S
C1412 C1411 1.366 . S
C1412 C1413 1.414 . S
C1412 C1415 1.499 . S
C1413 H1387 0.950 . S
C1413 C1412 1.414 . S
C1413 C1414 1.374 . S
C1414 H1388 0.950 . S
C1414 C1410 1.385 . S
C1414 C1413 1.374 . S
C1415 C1412 1.499 . S
C1415 C1416 1.373 . S
C1415 C1417 1.389 . S
C1416 H1389 0.950 . S
C1416 C1402 1.377 . S
C1416 C1415 1.373 . S
C1417 C1401 1.377 . S
C1417 C1415 1.389 . S
C1417 C1418 1.524 . S
C1418 C1417 1.524 . S
C1418 C1419 1.397 . S
C1418 C1423 1.363 . S
C1419 H1390 0.950 . S
C1419 C1418 1.397 . S
C1419 C1420 1.334 . S
C1420 H1391 0.950 . S
C1420 C1419 1.334 . S
C1420 C1421 1.287 . S
C1421 C1420 1.287 . S
C1421 C1422 1.524 . S
C1421 H1424 0.999 . S
C1422 H1392 0.950 . S
C1422 C1421 1.524 . S
C1422 C1423 1.415 . S
C1423 H1393 0.950 . S
C1423 C1418 1.363 . S
C1423 C1422 1.415 . S
H1424 C1421 0.999 . S
H1425 C1406 0.913 . S
H1426 C1444 0.951 . S
H1427 C1446 0.951 . S
H1428 C1448 0.950 . S
H1429 C1449 0.950 . S
H1430 C1451 0.950 . S
H1431 C1454 0.950 . S
H1432 C1455 0.950 . S
H1433 C1457 0.950 . S
H1434 C1458 0.950 . S
H1435 C1459 0.951 . S
H1436 C1461 0.951 . S
H1437 C1463 0.950 . S
H1438 C1464 0.950 . S
H1439 C1466 0.950 . S
H1440 C1469 0.950 . S
H1441 C1470 0.950 . S
H1442 C1472 0.950 . S
H1443 C1473 0.950 . S
C1444 H1426 0.951 . S
C1444 C1445 1.366 . S
C1444 C1446 1.388 . S
C1445 C1444 1.366 . S
C1445 C1449 1.385 . S
C1446 H1427 0.951 . S
C1446 C1444 1.388 . S
C1446 C1447 1.366 . S
C1447 C1446 1.366 . S
C1447 C1448 1.414 . S
C1447 C1450 1.499 . S
C1448 H1428 0.950 . S
C1448 C1447 1.414 . S
C1448 C1449 1.374 . S
C1449 H1429 0.950 . S
C1449 C1445 1.385 . S
C1449 C1448 1.374 . S
C1450 C1447 1.499 . S
C1450 C1451 1.373 . S
C1450 C1452 1.389 . S
C1451 H1430 0.950 . S
C1451 C1450 1.373 . S
C1451 C1467 1.377 . S
C1452 C1450 1.389 . S
C1452 C1453 1.524 . S
C1452 C1466 1.377 . S
C1453 C1452 1.524 . S
C1453 C1454 1.397 . S
C1453 C1458 1.363 . S
C1454 H1431 0.950 . S
C1454 C1453 1.397 . S
C1454 C1455 1.334 . S
C1455 H1432 0.950 . S
C1455 C1454 1.334 . S
C1455 C1456 1.287 . S
C1456 C1455 1.287 . S
C1456 C1457 1.524 . S
C1456 H1475 0.913 . S
C1457 H1433 0.950 . S
C1457 C1456 1.524 . S
C1457 C1458 1.415 . S
C1458 H1434 0.950 . S
C1458 C1453 1.363 . S
C1458 C1457 1.415 . S
C1459 H1435 0.951 . S
C1459 C1460 1.366 . S
C1459 C1461 1.388 . S
C1460 C1459 1.366 . S
C1460 C1464 1.385 . S
C1461 H1436 0.951 . S
C1461 C1459 1.388 . S
C1461 C1462 1.366 . S
C1462 C1461 1.366 . S
C1462 C1463 1.414 . S
C1462 C1465 1.499 . S
C1463 H1437 0.950 . S
C1463 C1462 1.414 . S
C1463 C1464 1.374 . S
C1464 H1438 0.950 . S
C1464 C1460 1.385 . S
C1464 C1463 1.374 . S
C1465 C1462 1.499 . S
C1465 C1466 1.373 . S
C1465 C1467 1.389 . S
C1466 H1439 0.950 . S
C1466 C1452 1.377 . S
C1466 C1465 1.373 . S
C1467 C1451 1.377 . S
C1467 C1465 1.389 . S
C1467 C1468 1.524 . S
C1468 C1467 1.524 . S
C1468 C1469 1.397 . S
C1468 C1473 1.363 . S
C1469 H1440 0.950 . S
C1469 C1468 1.397 . S
C1469 C1470 1.334 . S
C1470 H1441 0.950 . S
C1470 C1469 1.334 . S
C1470 C1471 1.287 . S
C1471 C1470 1.287 . S
C1471 C1472 1.524 . S
C1471 H1474 0.999 . S
C1472 H1442 0.950 . S
C1472 C1471 1.524 . S
C1472 C1473 1.415 . S
C1473 H1443 0.950 . S
C1473 C1468 1.363 . S
C1473 C1472 1.415 . S
H1474 C1471 0.999 . S
H1475 C1456 0.913 . S
H1476 C1494 0.951 . S
H1477 C1496 0.951 . S
H1478 C1498 0.950 . S
H1479 C1499 0.950 . S
H1480 C1501 0.950 . S
H1481 C1504 0.950 . S
H1482 C1505 0.950 . S
H1483 C1507 0.950 . S
H1484 C1508 0.950 . S
H1485 C1509 0.951 . S
H1486 C1511 0.951 . S
H1487 C1513 0.950 . S
H1488 C1514 0.950 . S
H1489 C1516 0.950 . S
H1490 C1519 0.950 . S
H1491 C1520 0.950 . S
H1492 C1522 0.950 . S
H1493 C1523 0.950 . S
C1494 H1476 0.951 . S
C1494 C1495 1.366 . S
C1494 C1496 1.388 . S
C1495 C1494 1.366 . S
C1495 C1499 1.385 . S
C1496 H1477 0.951 . S
C1496 C1494 1.388 . S
C1496 C1497 1.366 . S
C1497 C1496 1.366 . S
C1497 C1498 1.414 . S
C1497 C1500 1.499 . S
C1498 H1478 0.950 . S
C1498 C1497 1.414 . S
C1498 C1499 1.374 . S
C1499 H1479 0.950 . S
C1499 C1495 1.385 . S
C1499 C1498 1.374 . S
C1500 C1497 1.499 . S
C1500 C1501 1.373 . S
C1500 C1502 1.389 . S
C1501 H1480 0.950 . S
C1501 C1500 1.373 . S
C1501 C1517 1.377 . S
C1502 C1500 1.389 . S
C1502 C1503 1.524 . S
C1502 C1516 1.377 . S
C1503 C1502 1.524 . S
C1503 C1504 1.397 . S
C1503 C1508 1.363 . S
C1504 H1481 0.950 . S
C1504 C1503 1.397 . S
C1504 C1505 1.334 . S
C1505 H1482 0.950 . S
C1505 C1504 1.334 . S
C1505 C1506 1.287 . S
C1506 C1505 1.287 . S
C1506 C1507 1.524 . S
C1506 H1525 0.913 . S
C1507 H1483 0.950 . S
C1507 C1506 1.524 . S
C1507 C1508 1.415 . S
C1508 H1484 0.950 . S
C1508 C1503 1.363 . S
C1508 C1507 1.415 . S
C1509 H1485 0.951 . S
C1509 C1510 1.366 . S
C1509 C1511 1.388 . S
C1510 C1509 1.366 . S
C1510 C1514 1.385 . S
C1511 H1486 0.951 . S
C1511 C1509 1.388 . S
C1511 C1512 1.366 . S
C1512 C1511 1.366 . S
C1512 C1513 1.414 . S
C1512 C1515 1.499 . S
C1513 H1487 0.950 . S
C1513 C1512 1.414 . S
C1513 C1514 1.374 . S
C1514 H1488 0.950 . S
C1514 C1510 1.385 . S
C1514 C1513 1.374 . S
C1515 C1512 1.499 . S
C1515 C1516 1.373 . S
C1515 C1517 1.389 . S
C1516 H1489 0.950 . S
C1516 C1502 1.377 . S
C1516 C1515 1.373 . S
C1517 C1501 1.377 . S
C1517 C1515 1.389 . S
C1517 C1518 1.524 . S
C1518 C1517 1.524 . S
C1518 C1519 1.397 . S
C1518 C1523 1.363 . S
C1519 H1490 0.950 . S
C1519 C1518 1.397 . S
C1519 C1520 1.334 . S
C1520 H1491 0.950 . S
C1520 C1519 1.334 . S
C1520 C1521 1.287 . S
C1521 C1520 1.287 . S
C1521 C1522 1.524 . S
C1521 H1524 0.999 . S
C1522 H1492 0.950 . S
C1522 C1521 1.524 . S
C1522 C1523 1.415 . S
C1523 H1493 0.950 . S
C1523 C1518 1.363 . S
C1523 C1522 1.415 . S
H1524 C1521 0.999 . S
H1525 C1506 0.913 . S
H1526 C1544 0.951 . S
H1527 C1546 0.951 . S
H1528 C1548 0.950 . S
H1529 C1549 0.950 . S
H1530 C1551 0.950 . S
H1531 C1554 0.950 . S
H1532 C1555 0.950 . S
H1533 C1557 0.950 . S
H1534 C1558 0.950 . S
H1535 C1559 0.951 . S
H1536 C1561 0.951 . S
H1537 C1563 0.950 . S
H1538 C1564 0.950 . S
H1539 C1566 0.950 . S
H1540 C1569 0.950 . S
H1541 C1570 0.950 . S
H1542 C1572 0.950 . S
H1543 C1573 0.950 . S
C1544 H1526 0.951 . S
C1544 C1545 1.366 . S
C1544 C1546 1.388 . S
C1545 C1544 1.366 . S
C1545 C1549 1.385 . S
C1546 H1527 0.951 . S
C1546 C1544 1.388 . S
C1546 C1547 1.366 . S
C1547 C1546 1.366 . S
C1547 C1548 1.414 . S
C1547 C1550 1.499 . S
C1548 H1528 0.950 . S
C1548 C1547 1.414 . S
C1548 C1549 1.374 . S
C1549 H1529 0.950 . S
C1549 C1545 1.385 . S
C1549 C1548 1.374 . S
C1550 C1547 1.499 . S
C1550 C1551 1.373 . S
C1550 C1552 1.389 . S
C1551 H1530 0.950 . S
C1551 C1550 1.373 . S
C1551 C1567 1.377 . S
C1552 C1550 1.389 . S
C1552 C1553 1.524 . S
C1552 C1566 1.377 . S
C1553 C1552 1.524 . S
C1553 C1554 1.397 . S
C1553 C1558 1.363 . S
C1554 H1531 0.950 . S
C1554 C1553 1.397 . S
C1554 C1555 1.334 . S
C1555 H1532 0.950 . S
C1555 C1554 1.334 . S
C1555 C1556 1.287 . S
C1556 C1555 1.287 . S
C1556 C1557 1.524 . S
C1556 H1575 0.913 . S
C1557 H1533 0.950 . S
C1557 C1556 1.524 . S
C1557 C1558 1.415 . S
C1558 H1534 0.950 . S
C1558 C1553 1.363 . S
C1558 C1557 1.415 . S
C1559 H1535 0.951 . S
C1559 C1560 1.366 . S
C1559 C1561 1.388 . S
C1560 C1559 1.366 . S
C1560 C1564 1.385 . S
C1561 H1536 0.951 . S
C1561 C1559 1.388 . S
C1561 C1562 1.366 . S
C1562 C1561 1.366 . S
C1562 C1563 1.414 . S
C1562 C1565 1.499 . S
C1563 H1537 0.950 . S
C1563 C1562 1.414 . S
C1563 C1564 1.374 . S
C1564 H1538 0.950 . S
C1564 C1560 1.385 . S
C1564 C1563 1.374 . S
C1565 C1562 1.499 . S
C1565 C1566 1.373 . S
C1565 C1567 1.389 . S
C1566 H1539 0.950 . S
C1566 C1552 1.377 . S
C1566 C1565 1.373 . S
C1567 C1551 1.377 . S
C1567 C1565 1.389 . S
C1567 C1568 1.524 . S
C1568 C1567 1.524 . S
C1568 C1569 1.397 . S
C1568 C1573 1.363 . S
C1569 H1540 0.950 . S
C1569 C1568 1.397 . S
C1569 C1570 1.334 . S
C1570 H1541 0.950 . S
C1570 C1569 1.334 . S
C1570 C1571 1.287 . S
C1571 C1570 1.287 . S
C1571 C1572 1.524 . S
C1571 H1574 0.999 . S
C1572 H1542 0.950 . S
C1572 C1571 1.524 . S
C1572 C1573 1.415 . S
C1573 H1543 0.950 . S
C1573 C1568 1.363 . S
C1573 C1572 1.415 . S
H1574 C1571 0.999 . S
H1575 C1556 0.913 . S
H1576 C1594 0.951 . S
H1577 C1596 0.951 . S
H1578 C1598 0.950 . S
H1579 C1599 0.950 . S
H1580 C1601 0.950 . S
H1581 C1604 0.950 . S
H1582 C1605 0.950 . S
H1583 C1607 0.950 . S
H1584 C1608 0.950 . S
H1585 C1609 0.951 . S
H1586 C1611 0.951 . S
H1587 C1613 0.950 . S
H1588 C1614 0.950 . S
H1589 C1616 0.950 . S
H1590 C1619 0.950 . S
H1591 C1620 0.950 . S
H1592 C1622 0.950 . S
H1593 C1623 0.950 . S
C1594 H1576 0.951 . S
C1594 C1595 1.366 . S
C1594 C1596 1.388 . S
C1595 C1594 1.366 . S
C1595 C1599 1.385 . S
C1596 H1577 0.951 . S
C1596 C1594 1.388 . S
C1596 C1597 1.366 . S
C1597 C1596 1.366 . S
C1597 C1598 1.414 . S
C1597 C1600 1.499 . S
C1598 H1578 0.950 . S
C1598 C1597 1.414 . S
C1598 C1599 1.374 . S
C1599 H1579 0.950 . S
C1599 C1595 1.385 . S
C1599 C1598 1.374 . S
C1600 C1597 1.499 . S
C1600 C1601 1.373 . S
C1600 C1602 1.389 . S
C1601 H1580 0.950 . S
C1601 C1600 1.373 . S
C1601 C1617 1.377 . S
C1602 C1600 1.389 . S
C1602 C1603 1.524 . S
C1602 C1616 1.377 . S
C1603 C1602 1.524 . S
C1603 C1604 1.397 . S
C1603 C1608 1.363 . S
C1604 H1581 0.950 . S
C1604 C1603 1.397 . S
C1604 C1605 1.334 . S
C1605 H1582 0.950 . S
C1605 C1604 1.334 . S
C1605 C1606 1.287 . S
C1606 C1605 1.287 . S
C1606 C1607 1.524 . S
C1606 H1625 0.913 . S
C1607 H1583 0.950 . S
C1607 C1606 1.524 . S
C1607 C1608 1.415 . S
C1608 H1584 0.950 . S
C1608 C1603 1.363 . S
C1608 C1607 1.415 . S
C1609 H1585 0.951 . S
C1609 C1610 1.366 . S
C1609 C1611 1.388 . S
C1610 C1609 1.366 . S
C1610 C1614 1.385 . S
C1611 H1586 0.951 . S
C1611 C1609 1.388 . S
C1611 C1612 1.366 . S
C1612 C1611 1.366 . S
C1612 C1613 1.414 . S
C1612 C1615 1.499 . S
C1613 H1587 0.950 . S
C1613 C1612 1.414 . S
C1613 C1614 1.374 . S
C1614 H1588 0.950 . S
C1614 C1610 1.385 . S
C1614 C1613 1.374 . S
C1615 C1612 1.499 . S
C1615 C1616 1.373 . S
C1615 C1617 1.389 . S
C1616 H1589 0.950 . S
C1616 C1602 1.377 . S
C1616 C1615 1.373 . S
C1617 C1601 1.377 . S
C1617 C1615 1.389 . S
C1617 C1618 1.524 . S
C1618 C1617 1.524 . S
C1618 C1619 1.397 . S
C1618 C1623 1.363 . S
C1619 H1590 0.950 . S
C1619 C1618 1.397 . S
C1619 C1620 1.334 . S
C1620 H1591 0.950 . S
C1620 C1619 1.334 . S
C1620 C1621 1.287 . S
C1621 C1620 1.287 . S
C1621 C1622 1.524 . S
C1621 H1624 0.999 . S
C1622 H1592 0.950 . S
C1622 C1621 1.524 . S
C1622 C1623 1.415 . S
C1623 H1593 0.950 . S
C1623 C1618 1.363 . S
C1623 C1622 1.415 . S
H1624 C1621 0.999 . S
H1625 C1606 0.913 . S
H1626 C1644 0.951 . S
H1627 C1646 0.951 . S
H1628 C1648 0.950 . S
H1629 C1649 0.950 . S
H1630 C1651 0.950 . S
H1631 C1654 0.950 . S
H1632 C1655 0.950 . S
H1633 C1657 0.950 . S
H1634 C1658 0.950 . S
H1635 C1659 0.951 . S
H1636 C1661 0.951 . S
H1637 C1663 0.950 . S
H1638 C1664 0.950 . S
H1639 C1666 0.950 . S
H1640 C1669 0.950 . S
H1641 C1670 0.950 . S
H1642 C1672 0.950 . S
H1643 C1673 0.950 . S
C1644 H1626 0.951 . S
C1644 C1645 1.366 . S
C1644 C1646 1.388 . S
C1645 C1644 1.366 . S
C1645 C1649 1.385 . S
C1646 H1627 0.951 . S
C1646 C1644 1.388 . S
C1646 C1647 1.366 . S
C1647 C1646 1.366 . S
C1647 C1648 1.414 . S
C1647 C1650 1.499 . S
C1648 H1628 0.950 . S
C1648 C1647 1.414 . S
C1648 C1649 1.374 . S
C1649 H1629 0.950 . S
C1649 C1645 1.385 . S
C1649 C1648 1.374 . S
C1650 C1647 1.499 . S
C1650 C1651 1.373 . S
C1650 C1652 1.389 . S
C1651 H1630 0.950 . S
C1651 C1650 1.373 . S
C1651 C1667 1.377 . S
C1652 C1650 1.389 . S
C1652 C1653 1.524 . S
C1652 C1666 1.377 . S
C1653 C1652 1.524 . S
C1653 C1654 1.397 . S
C1653 C1658 1.363 . S
C1654 H1631 0.950 . S
C1654 C1653 1.397 . S
C1654 C1655 1.334 . S
C1655 H1632 0.950 . S
C1655 C1654 1.334 . S
C1655 C1656 1.287 . S
C1656 C1655 1.287 . S
C1656 C1657 1.524 . S
C1656 H1675 0.913 . S
C1657 H1633 0.950 . S
C1657 C1656 1.524 . S
C1657 C1658 1.415 . S
C1658 H1634 0.950 . S
C1658 C1653 1.363 . S
C1658 C1657 1.415 . S
C1659 H1635 0.951 . S
C1659 C1660 1.366 . S
C1659 C1661 1.388 . S
C1660 C1659 1.366 . S
C1660 C1664 1.385 . S
C1661 H1636 0.951 . S
C1661 C1659 1.388 . S
C1661 C1662 1.366 . S
C1662 C1661 1.366 . S
C1662 C1663 1.414 . S
C1662 C1665 1.499 . S
C1663 H1637 0.950 . S
C1663 C1662 1.414 . S
C1663 C1664 1.374 . S
C1664 H1638 0.950 . S
C1664 C1660 1.385 . S
C1664 C1663 1.374 . S
C1665 C1662 1.499 . S
C1665 C1666 1.373 . S
C1665 C1667 1.389 . S
C1666 H1639 0.950 . S
C1666 C1652 1.377 . S
C1666 C1665 1.373 . S
C1667 C1651 1.377 . S
C1667 C1665 1.389 . S
C1667 C1668 1.524 . S
C1668 C1667 1.524 . S
C1668 C1669 1.397 . S
C1668 C1673 1.363 . S
C1669 H1640 0.950 . S
C1669 C1668 1.397 . S
C1669 C1670 1.334 . S
C1670 H1641 0.950 . S
C1670 C1669 1.334 . S
C1670 C1671 1.287 . S
C1671 C1670 1.287 . S
C1671 C1672 1.524 . S
C1671 H1674 0.999 . S
C1672 H1642 0.950 . S
C1672 C1671 1.524 . S
C1672 C1673 1.415 . S
C1673 H1643 0.950 . S
C1673 C1668 1.363 . S
C1673 C1672 1.415 . S
H1674 C1671 0.999 . S
H1675 C1656 0.913 . S
H1676 C1694 0.951 . S
H1677 C1696 0.951 . S
H1678 C1698 0.950 . S
H1679 C1699 0.950 . S
H1680 C1701 0.950 . S
H1681 C1704 0.950 . S
H1682 C1705 0.950 . S
H1683 C1707 0.950 . S
H1684 C1708 0.950 . S
H1685 C1709 0.951 . S
H1686 C1711 0.951 . S
H1687 C1713 0.950 . S
H1688 C1714 0.950 . S
H1689 C1716 0.950 . S
H1690 C1719 0.950 . S
H1691 C1720 0.950 . S
H1692 C1722 0.950 . S
H1693 C1723 0.950 . S
C1694 H1676 0.951 . S
C1694 C1695 1.366 . S
C1694 C1696 1.388 . S
C1695 C1694 1.366 . S
C1695 C1699 1.385 . S
C1696 H1677 0.951 . S
C1696 C1694 1.388 . S
C1696 C1697 1.366 . S
C1697 C1696 1.366 . S
C1697 C1698 1.414 . S
C1697 C1700 1.499 . S
C1698 H1678 0.950 . S
C1698 C1697 1.414 . S
C1698 C1699 1.374 . S
C1699 H1679 0.950 . S
C1699 C1695 1.385 . S
C1699 C1698 1.374 . S
C1700 C1697 1.499 . S
C1700 C1701 1.373 . S
C1700 C1702 1.389 . S
C1701 H1680 0.950 . S
C1701 C1700 1.373 . S
C1701 C1717 1.377 . S
C1702 C1700 1.389 . S
C1702 C1703 1.524 . S
C1702 C1716 1.377 . S
C1703 C1702 1.524 . S
C1703 C1704 1.397 . S
C1703 C1708 1.363 . S
C1704 H1681 0.950 . S
C1704 C1703 1.397 . S
C1704 C1705 1.334 . S
C1705 H1682 0.950 . S
C1705 C1704 1.334 . S
C1705 C1706 1.287 . S
C1706 C1705 1.287 . S
C1706 C1707 1.524 . S
C1706 H1725 0.913 . S
C1707 H1683 0.950 . S
C1707 C1706 1.524 . S
C1707 C1708 1.415 . S
C1708 H1684 0.950 . S
C1708 C1703 1.363 . S
C1708 C1707 1.415 . S
C1709 H1685 0.951 . S
C1709 C1710 1.366 . S
C1709 C1711 1.388 . S
C1710 C1709 1.366 . S
C1710 C1714 1.385 . S
C1711 H1686 0.951 . S
C1711 C1709 1.388 . S
C1711 C1712 1.366 . S
C1712 C1711 1.366 . S
C1712 C1713 1.414 . S
C1712 C1715 1.499 . S
C1713 H1687 0.950 . S
C1713 C1712 1.414 . S
C1713 C1714 1.374 . S
C1714 H1688 0.950 . S
C1714 C1710 1.385 . S
C1714 C1713 1.374 . S
C1715 C1712 1.499 . S
C1715 C1716 1.373 . S
C1715 C1717 1.389 . S
C1716 H1689 0.950 . S
C1716 C1702 1.377 . S
C1716 C1715 1.373 . S
C1717 C1701 1.377 . S
C1717 C1715 1.389 . S
C1717 C1718 1.524 . S
C1718 C1717 1.524 . S
C1718 C1719 1.397 . S
C1718 C1723 1.363 . S
C1719 H1690 0.950 . S
C1719 C1718 1.397 . S
C1719 C1720 1.334 . S
C1720 H1691 0.950 . S
C1720 C1719 1.334 . S
C1720 C1721 1.287 . S
C1721 C1720 1.287 . S
C1721 C1722 1.524 . S
C1721 H1724 0.999 . S
C1722 H1692 0.950 . S
C1722 C1721 1.524 . S
C1722 C1723 1.415 . S
C1723 H1693 0.950 . S
C1723 C1718 1.363 . S
C1723 C1722 1.415 . S
H1724 C1721 0.999 . S
H1725 C1706 0.913 . S
H1726 C1744 0.951 . S
H1727 C1746 0.951 . S
H1728 C1748 0.950 . S
H1729 C1749 0.950 . S
H1730 C1751 0.950 . S
H1731 C1754 0.950 . S
H1732 C1755 0.950 . S
H1733 C1757 0.950 . S
H1734 C1758 0.950 . S
H1735 C1759 0.951 . S
H1736 C1761 0.951 . S
H1737 C1763 0.950 . S
H1738 C1764 0.950 . S
H1739 C1766 0.950 . S
H1740 C1769 0.950 . S
H1741 C1770 0.950 . S
H1742 C1772 0.950 . S
H1743 C1773 0.950 . S
C1744 H1726 0.951 . S
C1744 C1745 1.366 . S
C1744 C1746 1.388 . S
C1745 C1744 1.366 . S
C1745 C1749 1.385 . S
C1746 H1727 0.951 . S
C1746 C1744 1.388 . S
C1746 C1747 1.366 . S
C1747 C1746 1.366 . S
C1747 C1748 1.414 . S
C1747 C1750 1.499 . S
C1748 H1728 0.950 . S
C1748 C1747 1.414 . S
C1748 C1749 1.374 . S
C1749 H1729 0.950 . S
C1749 C1745 1.385 . S
C1749 C1748 1.374 . S
C1750 C1747 1.499 . S
C1750 C1751 1.373 . S
C1750 C1752 1.389 . S
C1751 H1730 0.950 . S
C1751 C1750 1.373 . S
C1751 C1767 1.377 . S
C1752 C1750 1.389 . S
C1752 C1753 1.524 . S
C1752 C1766 1.377 . S
C1753 C1752 1.524 . S
C1753 C1754 1.397 . S
C1753 C1758 1.363 . S
C1754 H1731 0.950 . S
C1754 C1753 1.397 . S
C1754 C1755 1.334 . S
C1755 H1732 0.950 . S
C1755 C1754 1.334 . S
C1755 C1756 1.287 . S
C1756 C1755 1.287 . S
C1756 C1757 1.524 . S
C1756 H1775 0.913 . S
C1757 H1733 0.950 . S
C1757 C1756 1.524 . S
C1757 C1758 1.415 . S
C1758 H1734 0.950 . S
C1758 C1753 1.363 . S
C1758 C1757 1.415 . S
C1759 H1735 0.951 . S
C1759 C1760 1.366 . S
C1759 C1761 1.388 . S
C1760 C1759 1.366 . S
C1760 C1764 1.385 . S
C1761 H1736 0.951 . S
C1761 C1759 1.388 . S
C1761 C1762 1.366 . S
C1762 C1761 1.366 . S
C1762 C1763 1.414 . S
C1762 C1765 1.499 . S
C1763 H1737 0.950 . S
C1763 C1762 1.414 . S
C1763 C1764 1.374 . S
C1764 H1738 0.950 . S
C1764 C1760 1.385 . S
C1764 C1763 1.374 . S
C1765 C1762 1.499 . S
C1765 C1766 1.373 . S
C1765 C1767 1.389 . S
C1766 H1739 0.950 . S
C1766 C1752 1.377 . S
C1766 C1765 1.373 . S
C1767 C1751 1.377 . S
C1767 C1765 1.389 . S
C1767 C1768 1.524 . S
C1768 C1767 1.524 . S
C1768 C1769 1.397 . S
C1768 C1773 1.363 . S
C1769 H1740 0.950 . S
C1769 C1768 1.397 . S
C1769 C1770 1.334 . S
C1770 H1741 0.950 . S
C1770 C1769 1.334 . S
C1770 C1771 1.287 . S
C1771 C1770 1.287 . S
C1771 C1772 1.524 . S
C1771 H1774 0.999 . S
C1772 H1742 0.950 . S
C1772 C1771 1.524 . S
C1772 C1773 1.415 . S
C1773 H1743 0.950 . S
C1773 C1768 1.363 . S
C1773 C1772 1.415 . S
H1774 C1771 0.999 . S
H1775 C1756 0.913 . S
H1776 C1794 0.951 . S
H1777 C1796 0.951 . S
H1778 C1798 0.950 . S
H1779 C1799 0.950 . S
H1780 C1801 0.950 . S
H1781 C1804 0.950 . S
H1782 C1805 0.950 . S
H1783 C1807 0.950 . S
H1784 C1808 0.950 . S
H1785 C1809 0.951 . S
H1786 C1811 0.951 . S
H1787 C1813 0.950 . S
H1788 C1814 0.950 . S
H1789 C1816 0.950 . S
H1790 C1819 0.950 . S
H1791 C1820 0.950 . S
H1792 C1822 0.950 . S
H1793 C1823 0.950 . S
C1794 H1776 0.951 . S
C1794 C1795 1.366 . S
C1794 C1796 1.388 . S
C1795 C1794 1.366 . S
C1795 C1799 1.385 1_455 S
C1796 H1777 0.951 . S
C1796 C1794 1.388 . S
C1796 C1797 1.366 . S
C1797 C1796 1.366 . S
C1797 C1798 1.414 1_455 S
C1797 C1800 1.499 . S
C1798 H1778 0.950 . S
C1798 C1797 1.414 1_655 S
C1798 C1799 1.374 . S
C1799 H1779 0.950 . S
C1799 C1795 1.385 1_655 S
C1799 C1798 1.374 . S
C1800 C1797 1.499 . S
C1800 C1801 1.373 1_455 S
C1800 C1802 1.389 . S
C1801 H1780 0.950 . S
C1801 C1800 1.373 1_655 S
C1801 C1817 1.377 . S
C1802 C1800 1.389 . S
C1802 C1803 1.524 . S
C1802 C1816 1.377 . S
C1803 C1802 1.524 . S
C1803 C1804 1.397 1_455 S
C1803 C1808 1.363 . S
C1804 H1781 0.950 . S
C1804 C1803 1.397 1_655 S
C1804 C1805 1.334 . S
C1805 H1782 0.950 . S
C1805 C1804 1.334 . S
C1805 C1806 1.287 1_655 S
C1806 C1805 1.287 1_455 S
C1806 C1807 1.524 . S
C1806 H1825 0.913 . S
C1807 H1783 0.950 . S
C1807 C1806 1.524 . S
C1807 C1808 1.415 . S
C1808 H1784 0.950 . S
C1808 C1803 1.363 . S
C1808 C1807 1.415 . S
C1809 H1785 0.951 . S
C1809 C1810 1.366 . S
C1809 C1811 1.388 . S
C1810 C1809 1.366 . S
C1810 C1814 1.385 1_655 S
C1811 H1786 0.951 . S
C1811 C1809 1.388 . S
C1811 C1812 1.366 . S
C1812 C1811 1.366 . S
C1812 C1813 1.414 1_655 S
C1812 C1815 1.499 . S
C1813 H1787 0.950 . S
C1813 C1812 1.414 1_455 S
C1813 C1814 1.374 . S
C1814 H1788 0.950 . S
C1814 C1810 1.385 1_455 S
C1814 C1813 1.374 . S
C1815 C1812 1.499 . S
C1815 C1816 1.373 1_655 S
C1815 C1817 1.389 . S
C1816 H1789 0.950 . S
C1816 C1802 1.377 . S
C1816 C1815 1.373 1_455 S
C1817 C1801 1.377 . S
C1817 C1815 1.389 . S
C1817 C1818 1.524 . S
C1818 C1817 1.524 . S
C1818 C1819 1.397 1_655 S
C1818 C1823 1.363 . S
C1819 H1790 0.950 . S
C1819 C1818 1.397 1_455 S
C1819 C1820 1.334 . S
C1820 H1791 0.950 . S
C1820 C1819 1.334 . S
C1820 C1821 1.287 1_455 S
C1821 C1820 1.287 1_655 S
C1821 C1822 1.524 . S
C1821 H1824 0.999 . S
C1822 H1792 0.950 . S
C1822 C1821 1.524 . S
C1822 C1823 1.415 . S
C1823 H1793 0.950 . S
C1823 C1818 1.363 . S
C1823 C1822 1.415 . S
H1824 C1821 0.999 . S
H1825 C1806 0.913 . S
H1826 C1844 0.951 . S
H1827 C1846 0.951 . S
H1828 C1848 0.950 . S
H1829 C1849 0.950 . S
H1830 C1851 0.950 . S
H1831 C1854 0.950 1_545 S
H1832 C1855 0.950 . S
H1833 C1857 0.950 . S
H1834 C1858 0.950 . S
H1835 C1859 0.951 . S
H1836 C1861 0.951 . S
H1837 C1863 0.950 . S
H1838 C1864 0.950 . S
H1839 C1866 0.950 . S
H1840 C1869 0.950 1_565 S
H1841 C1870 0.950 . S
H1842 C1872 0.950 . S
H1843 C1873 0.950 . S
C1844 H1826 0.951 . S
C1844 C1845 1.366 . S
C1844 C1846 1.388 . S
C1845 C1844 1.366 . S
C1845 C1849 1.385 1_565 S
C1846 H1827 0.951 . S
C1846 C1844 1.388 . S
C1846 C1847 1.366 . S
C1847 C1846 1.366 . S
C1847 C1848 1.414 1_565 S
C1847 C1850 1.499 . S
C1848 H1828 0.950 . S
C1848 C1847 1.414 1_545 S
C1848 C1849 1.374 . S
C1849 H1829 0.950 . S
C1849 C1845 1.385 1_545 S
C1849 C1848 1.374 . S
C1850 C1847 1.499 . S
C1850 C1851 1.373 1_565 S
C1850 C1852 1.389 . S
C1851 H1830 0.950 . S
C1851 C1850 1.373 1_545 S
C1851 C1867 1.377 . S
C1852 C1850 1.389 . S
C1852 C1853 1.524 . S
C1852 C1866 1.377 . S
C1853 C1852 1.524 . S
C1853 C1854 1.397 . S
C1853 C1858 1.363 . S
C1854 H1831 0.950 1_565 S
C1854 C1853 1.397 . S
C1854 C1855 1.334 . S
C1855 H1832 0.950 . S
C1855 C1854 1.334 . S
C1855 C1856 1.287 . S
C1856 C1855 1.287 . S
C1856 C1857 1.524 . S
C1856 H1875 0.913 . S
C1857 H1833 0.950 . S
C1857 C1856 1.524 . S
C1857 C1858 1.415 . S
C1858 H1834 0.950 . S
C1858 C1853 1.363 . S
C1858 C1857 1.415 . S
C1859 H1835 0.951 . S
C1859 C1860 1.366 . S
C1859 C1861 1.388 . S
C1860 C1859 1.366 . S
C1860 C1864 1.385 1_545 S
C1861 H1836 0.951 . S
C1861 C1859 1.388 . S
C1861 C1862 1.366 . S
C1862 C1861 1.366 . S
C1862 C1863 1.414 1_545 S
C1862 C1865 1.499 . S
C1863 H1837 0.950 . S
C1863 C1862 1.414 1_565 S
C1863 C1864 1.374 . S
C1864 H1838 0.950 . S
C1864 C1860 1.385 1_565 S
C1864 C1863 1.374 . S
C1865 C1862 1.499 . S
C1865 C1866 1.373 1_545 S
C1865 C1867 1.389 . S
C1866 H1839 0.950 . S
C1866 C1852 1.377 . S
C1866 C1865 1.373 1_565 S
C1867 C1851 1.377 . S
C1867 C1865 1.389 . S
C1867 C1868 1.524 . S
C1868 C1867 1.524 . S
C1868 C1869 1.397 . S
C1868 C1873 1.363 . S
C1869 H1840 0.950 1_545 S
C1869 C1868 1.397 . S
C1869 C1870 1.334 . S
C1870 H1841 0.950 . S
C1870 C1869 1.334 . S
C1870 C1871 1.287 . S
C1871 C1870 1.287 . S
C1871 C1872 1.524 . S
C1871 H1874 0.999 . S
C1872 H1842 0.950 . S
C1872 C1871 1.524 . S
C1872 C1873 1.415 . S
C1873 H1843 0.950 . S
C1873 C1868 1.363 . S
C1873 C1872 1.415 . S
H1874 C1871 0.999 . S
H1875 C1856 0.913 . S
H1876 C1894 0.951 . S
H1877 C1896 0.951 . S
H1878 C1898 0.950 . S
H1879 C1899 0.950 . S
H1880 C1901 0.950 . S
H1881 C1904 0.950 . S
H1882 C1905 0.950 . S
H1883 C1907 0.950 . S
H1884 C1908 0.950 . S
H1885 C1909 0.951 . S
H1886 C1911 0.951 . S
H1887 C1913 0.950 . S
H1888 C1914 0.950 . S
H1889 C1916 0.950 . S
H1890 C1919 0.950 . S
H1891 C1920 0.950 . S
H1892 C1922 0.950 . S
H1893 C1923 0.950 . S
C1894 H1876 0.951 . S
C1894 C1895 1.366 . S
C1894 C1896 1.388 . S
C1895 C1894 1.366 . S
C1895 C1899 1.385 . S
C1896 H1877 0.951 . S
C1896 C1894 1.388 . S
C1896 C1897 1.366 . S
C1897 C1896 1.366 . S
C1897 C1898 1.414 . S
C1897 C1900 1.499 . S
C1898 H1878 0.950 . S
C1898 C1897 1.414 . S
C1898 C1899 1.374 . S
C1899 H1879 0.950 . S
C1899 C1895 1.385 . S
C1899 C1898 1.374 . S
C1900 C1897 1.499 . S
C1900 C1901 1.373 . S
C1900 C1902 1.389 1_455 S
C1901 H1880 0.950 . S
C1901 C1900 1.373 . S
C1901 C1917 1.377 . S
C1902 C1900 1.389 1_655 S
C1902 C1903 1.524 . S
C1902 C1916 1.377 . S
C1903 C1902 1.524 . S
C1903 C1904 1.397 . S
C1903 C1908 1.363 . S
C1904 H1881 0.950 . S
C1904 C1903 1.397 . S
C1904 C1905 1.334 . S
C1905 H1882 0.950 . S
C1905 C1904 1.334 . S
C1905 C1906 1.287 . S
C1906 C1905 1.287 . S
C1906 C1907 1.524 . S
C1906 H1925 0.913 . S
C1907 H1883 0.950 . S
C1907 C1906 1.524 . S
C1907 C1908 1.415 . S
C1908 H1884 0.950 . S
C1908 C1903 1.363 . S
C1908 C1907 1.415 . S
C1909 H1885 0.951 . S
C1909 C1910 1.366 . S
C1909 C1911 1.388 . S
C1910 C1909 1.366 . S
C1910 C1914 1.385 . S
C1911 H1886 0.951 . S
C1911 C1909 1.388 . S
C1911 C1912 1.366 . S
C1912 C1911 1.366 . S
C1912 C1913 1.414 . S
C1912 C1915 1.499 . S
C1913 H1887 0.950 . S
C1913 C1912 1.414 . S
C1913 C1914 1.374 . S
C1914 H1888 0.950 . S
C1914 C1910 1.385 . S
C1914 C1913 1.374 . S
C1915 C1912 1.499 . S
C1915 C1916 1.373 . S
C1915 C1917 1.389 1_655 S
C1916 H1889 0.950 . S
C1916 C1902 1.377 . S
C1916 C1915 1.373 . S
C1917 C1901 1.377 . S
C1917 C1915 1.389 1_455 S
C1917 C1918 1.524 . S
C1918 C1917 1.524 . S
C1918 C1919 1.397 . S
C1918 C1923 1.363 . S
C1919 H1890 0.950 . S
C1919 C1918 1.397 . S
C1919 C1920 1.334 . S
C1920 H1891 0.950 . S
C1920 C1919 1.334 . S
C1920 C1921 1.287 . S
C1921 C1920 1.287 . S
C1921 C1922 1.524 . S
C1921 H1924 0.999 . S
C1922 H1892 0.950 . S
C1922 C1921 1.524 . S
C1922 C1923 1.415 . S
C1923 H1893 0.950 . S
C1923 C1918 1.363 . S
C1923 C1922 1.415 . S
H1924 C1921 0.999 . S
H1925 C1906 0.913 . S
H1926 C1944 0.951 . S
H1927 C1946 0.951 . S
H1928 C1948 0.950 . S
H1929 C1949 0.950 . S
H1930 C1951 0.950 . S
H1931 C1954 0.950 . S
H1932 C1955 0.950 . S
H1933 C1957 0.950 . S
H1934 C1958 0.950 . S
H1935 C1959 0.951 . S
H1936 C1961 0.951 . S
H1937 C1963 0.950 . S
H1938 C1964 0.950 . S
H1939 C1966 0.950 . S
H1940 C1969 0.950 . S
H1941 C1970 0.950 . S
H1942 C1972 0.950 . S
H1943 C1973 0.950 . S
C1944 H1926 0.951 . S
C1944 C1945 1.366 . S
C1944 C1946 1.388 . S
C1945 C1944 1.366 . S
C1945 C1949 1.385 1_545 S
C1946 H1927 0.951 . S
C1946 C1944 1.388 . S
C1946 C1947 1.366 . S
C1947 C1946 1.366 . S
C1947 C1948 1.414 1_545 S
C1947 C1950 1.499 . S
C1948 H1928 0.950 . S
C1948 C1947 1.414 1_565 S
C1948 C1949 1.374 . S
C1949 H1929 0.950 . S
C1949 C1945 1.385 1_565 S
C1949 C1948 1.374 . S
C1950 C1947 1.499 . S
C1950 C1951 1.373 1_545 S
C1950 C1952 1.389 . S
C1951 H1930 0.950 . S
C1951 C1950 1.373 1_565 S
C1951 C1967 1.377 . S
C1952 C1950 1.389 . S
C1952 C1953 1.524 . S
C1952 C1966 1.377 . S
C1953 C1952 1.524 . S
C1953 C1954 1.397 . S
C1953 C1958 1.363 . S
C1954 H1931 0.950 . S
C1954 C1953 1.397 . S
C1954 C1955 1.334 . S
C1955 H1932 0.950 . S
C1955 C1954 1.334 . S
C1955 C1956 1.287 . S
C1956 C1955 1.287 . S
C1956 C1957 1.524 . S
C1956 H1975 0.913 . S
C1957 H1933 0.950 . S
C1957 C1956 1.524 . S
C1957 C1958 1.415 . S
C1958 H1934 0.950 . S
C1958 C1953 1.363 . S
C1958 C1957 1.415 . S
C1959 H1935 0.951 . S
C1959 C1960 1.366 . S
C1959 C1961 1.388 . S
C1960 C1959 1.366 . S
C1960 C1964 1.385 1_565 S
C1961 H1936 0.951 . S
C1961 C1959 1.388 . S
C1961 C1962 1.366 . S
C1962 C1961 1.366 . S
C1962 C1963 1.414 1_565 S
C1962 C1965 1.499 . S
C1963 H1937 0.950 . S
C1963 C1962 1.414 1_545 S
C1963 C1964 1.374 . S
C1964 H1938 0.950 . S
C1964 C1960 1.385 1_545 S
C1964 C1963 1.374 . S
C1965 C1962 1.499 . S
C1965 C1966 1.373 1_565 S
C1965 C1967 1.389 . S
C1966 H1939 0.950 . S
C1966 C1952 1.377 . S
C1966 C1965 1.373 1_545 S
C1967 C1951 1.377 . S
C1967 C1965 1.389 . S
C1967 C1968 1.524 . S
C1968 C1967 1.524 . S
C1968 C1969 1.397 . S
C1968 C1973 1.363 . S
C1969 H1940 0.950 . S
C1969 C1968 1.397 . S
C1969 C1970 1.334 . S
C1970 H1941 0.950 . S
C1970 C1969 1.334 . S
C1970 C1971 1.287 . S
C1971 C1970 1.287 . S
C1971 C1972 1.524 . S
C1971 H1974 0.999 . S
C1972 H1942 0.950 . S
C1972 C1971 1.524 . S
C1972 C1973 1.415 . S
C1973 H1943 0.950 . S
C1973 C1968 1.363 . S
C1973 C1972 1.415 . S
H1974 C1971 0.999 . S
H1975 C1956 0.913 . S
H1976 C1994 0.951 . S
H1977 C1996 0.951 . S
H1978 C1998 0.950 . S
H1979 C1999 0.950 . S
H1980 C2001 0.950 . S
H1981 C2004 0.950 . S
H1982 C2005 0.950 . S
H1983 C2007 0.950 . S
H1984 C2008 0.950 1_554 S
H1985 C2009 0.951 . S
H1986 C2011 0.951 . S
H1987 C2013 0.950 . S
H1988 C2014 0.950 . S
H1989 C2016 0.950 . S
H1990 C2019 0.950 . S
H1991 C2020 0.950 . S
H1992 C2022 0.950 . S
H1993 C2023 0.950 1_556 S
C1994 H1976 0.951 . S
C1994 C1995 1.366 . S
C1994 C1996 1.388 . S
C1995 C1994 1.366 . S
C1995 C1999 1.385 . S
C1996 H1977 0.951 . S
C1996 C1994 1.388 . S
C1996 C1997 1.366 . S
C1997 C1996 1.366 . S
C1997 C1998 1.414 . S
C1997 C2000 1.499 . S
C1998 H1978 0.950 . S
C1998 C1997 1.414 . S
C1998 C1999 1.374 . S
C1999 H1979 0.950 . S
C1999 C1995 1.385 . S
C1999 C1998 1.374 . S
C2000 C1997 1.499 . S
C2000 C2001 1.373 . S
C2000 C2002 1.389 . S
C2001 H1980 0.950 . S
C2001 C2000 1.373 . S
C2001 C2017 1.377 1_556 S
C2002 C2000 1.389 . S
C2002 C2003 1.524 . S
C2002 C2016 1.377 1_556 S
C2003 C2002 1.524 . S
C2003 C2004 1.397 . S
C2003 C2008 1.363 . S
C2004 H1981 0.950 . S
C2004 C2003 1.397 . S
C2004 C2005 1.334 . S
C2005 H1982 0.950 . S
C2005 C2004 1.334 . S
C2005 C2006 1.287 . S
C2006 C2005 1.287 . S
C2006 C2007 1.524 . S
C2006 H2025 0.913 . S
C2007 H1983 0.950 . S
C2007 C2006 1.524 . S
C2007 C2008 1.415 . S
C2008 H1984 0.950 1_556 S
C2008 C2003 1.363 . S
C2008 C2007 1.415 . S
C2009 H1985 0.951 . S
C2009 C2010 1.366 . S
C2009 C2011 1.388 . S
C2010 C2009 1.366 . S
C2010 C2014 1.385 . S
C2011 H1986 0.951 . S
C2011 C2009 1.388 . S
C2011 C2012 1.366 . S
C2012 C2011 1.366 . S
C2012 C2013 1.414 . S
C2012 C2015 1.499 . S
C2013 H1987 0.950 . S
C2013 C2012 1.414 . S
C2013 C2014 1.374 . S
C2014 H1988 0.950 . S
C2014 C2010 1.385 . S
C2014 C2013 1.374 . S
C2015 C2012 1.499 . S
C2015 C2016 1.373 . S
C2015 C2017 1.389 . S
C2016 H1989 0.950 . S
C2016 C2002 1.377 1_554 S
C2016 C2015 1.373 . S
C2017 C2001 1.377 1_554 S
C2017 C2015 1.389 . S
C2017 C2018 1.524 . S
C2018 C2017 1.524 . S
C2018 C2019 1.397 . S
C2018 C2023 1.363 . S
C2019 H1990 0.950 . S
C2019 C2018 1.397 . S
C2019 C2020 1.334 . S
C2020 H1991 0.950 . S
C2020 C2019 1.334 . S
C2020 C2021 1.287 . S
C2021 C2020 1.287 . S
C2021 C2022 1.524 . S
C2021 H2024 0.999 . S
C2022 H1992 0.950 . S
C2022 C2021 1.524 . S
C2022 C2023 1.415 . S
C2023 H1993 0.950 1_554 S
C2023 C2018 1.363 . S
C2023 C2022 1.415 . S
H2024 C2021 0.999 . S
H2025 C2006 0.913 . S
H2026 C2044 0.951 . S
H2027 C2046 0.951 . S
H2028 C2048 0.950 . S
H2029 C2049 0.950 . S
H2030 C2051 0.950 . S
H2031 C2054 0.950 . S
H2032 C2055 0.950 . S
H2033 C2057 0.950 . S
H2034 C2058 0.950 1_554 S
H2035 C2059 0.951 . S
H2036 C2061 0.951 . S
H2037 C2063 0.950 . S
H2038 C2064 0.950 . S
H2039 C2066 0.950 . S
H2040 C2069 0.950 . S
H2041 C2070 0.950 . S
H2042 C2072 0.950 . S
H2043 C2073 0.950 1_556 S
C2044 H2026 0.951 . S
C2044 C2045 1.366 . S
C2044 C2046 1.388 . S
C2045 C2044 1.366 . S
C2045 C2049 1.385 . S
C2046 H2027 0.951 . S
C2046 C2044 1.388 . S
C2046 C2047 1.366 . S
C2047 C2046 1.366 . S
C2047 C2048 1.414 . S
C2047 C2050 1.499 . S
C2048 H2028 0.950 . S
C2048 C2047 1.414 . S
C2048 C2049 1.374 . S
C2049 H2029 0.950 . S
C2049 C2045 1.385 . S
C2049 C2048 1.374 . S
C2050 C2047 1.499 . S
C2050 C2051 1.373 . S
C2050 C2052 1.389 . S
C2051 H2030 0.950 . S
C2051 C2050 1.373 . S
C2051 C2067 1.377 1_556 S
C2052 C2050 1.389 . S
C2052 C2053 1.524 . S
C2052 C2066 1.377 1_556 S
C2053 C2052 1.524 . S
C2053 C2054 1.397 . S
C2053 C2058 1.363 . S
C2054 H2031 0.950 . S
C2054 C2053 1.397 . S
C2054 C2055 1.334 . S
C2055 H2032 0.950 . S
C2055 C2054 1.334 . S
C2055 C2056 1.287 . S
C2056 C2055 1.287 . S
C2056 C2057 1.524 . S
C2056 H2075 0.913 . S
C2057 H2033 0.950 . S
C2057 C2056 1.524 . S
C2057 C2058 1.415 . S
C2058 H2034 0.950 1_556 S
C2058 C2053 1.363 . S
C2058 C2057 1.415 . S
C2059 H2035 0.951 . S
C2059 C2060 1.366 . S
C2059 C2061 1.388 . S
C2060 C2059 1.366 . S
C2060 C2064 1.385 . S
C2061 H2036 0.951 . S
C2061 C2059 1.388 . S
C2061 C2062 1.366 . S
C2062 C2061 1.366 . S
C2062 C2063 1.414 . S
C2062 C2065 1.499 . S
C2063 H2037 0.950 . S
C2063 C2062 1.414 . S
C2063 C2064 1.374 . S
C2064 H2038 0.950 . S
C2064 C2060 1.385 . S
C2064 C2063 1.374 . S
C2065 C2062 1.499 . S
C2065 C2066 1.373 . S
C2065 C2067 1.389 . S
C2066 H2039 0.950 . S
C2066 C2052 1.377 1_554 S
C2066 C2065 1.373 . S
C2067 C2051 1.377 1_554 S
C2067 C2065 1.389 . S
C2067 C2068 1.524 . S
C2068 C2067 1.524 . S
C2068 C2069 1.397 . S
C2068 C2073 1.363 . S
C2069 H2040 0.950 . S
C2069 C2068 1.397 . S
C2069 C2070 1.334 . S
C2070 H2041 0.950 . S
C2070 C2069 1.334 . S
C2070 C2071 1.287 . S
C2071 C2070 1.287 . S
C2071 C2072 1.524 . S
C2071 H2074 0.999 . S
C2072 H2042 0.950 . S
C2072 C2071 1.524 . S
C2072 C2073 1.415 . S
C2073 H2043 0.950 1_554 S
C2073 C2068 1.363 . S
C2073 C2072 1.415 . S
H2074 C2071 0.999 . S
H2075 C2056 0.913 . S
H2076 C2094 0.951 . S
H2077 C2096 0.951 . S
H2078 C2098 0.950 . S
H2079 C2099 0.950 . S
H2080 C2101 0.950 . S
H2081 C2104 0.950 . S
H2082 C2105 0.950 . S
H2083 C2107 0.950 . S
H2084 C2108 0.950 1_556 S
H2085 C2109 0.951 . S
H2086 C2111 0.951 . S
H2087 C2113 0.950 . S
H2088 C2114 0.950 . S
H2089 C2116 0.950 . S
H2090 C2119 0.950 . S
H2091 C2120 0.950 . S
H2092 C2122 0.950 . S
H2093 C2123 0.950 1_554 S
C2094 H2076 0.951 . S
C2094 C2095 1.366 . S
C2094 C2096 1.388 . S
C2095 C2094 1.366 . S
C2095 C2099 1.385 . S
C2096 H2077 0.951 . S
C2096 C2094 1.388 . S
C2096 C2097 1.366 . S
C2097 C2096 1.366 . S
C2097 C2098 1.414 . S
C2097 C2100 1.499 . S
C2098 H2078 0.950 . S
C2098 C2097 1.414 . S
C2098 C2099 1.374 . S
C2099 H2079 0.950 . S
C2099 C2095 1.385 . S
C2099 C2098 1.374 . S
C2100 C2097 1.499 . S
C2100 C2101 1.373 . S
C2100 C2102 1.389 . S
C2101 H2080 0.950 . S
C2101 C2100 1.373 . S
C2101 C2117 1.377 1_554 S
C2102 C2100 1.389 . S
C2102 C2103 1.524 . S
C2102 C2116 1.377 1_554 S
C2103 C2102 1.524 . S
C2103 C2104 1.397 . S
C2103 C2108 1.363 . S
C2104 H2081 0.950 . S
C2104 C2103 1.397 . S
C2104 C2105 1.334 . S
C2105 H2082 0.950 . S
C2105 C2104 1.334 . S
C2105 C2106 1.287 . S
C2106 C2105 1.287 . S
C2106 C2107 1.524 . S
C2106 H2125 0.913 . S
C2107 H2083 0.950 . S
C2107 C2106 1.524 . S
C2107 C2108 1.415 . S
C2108 H2084 0.950 1_554 S
C2108 C2103 1.363 . S
C2108 C2107 1.415 . S
C2109 H2085 0.951 . S
C2109 C2110 1.366 . S
C2109 C2111 1.388 . S
C2110 C2109 1.366 . S
C2110 C2114 1.385 . S
C2111 H2086 0.951 . S
C2111 C2109 1.388 . S
C2111 C2112 1.366 . S
C2112 C2111 1.366 . S
C2112 C2113 1.414 . S
C2112 C2115 1.499 . S
C2113 H2087 0.950 . S
C2113 C2112 1.414 . S
C2113 C2114 1.374 . S
C2114 H2088 0.950 . S
C2114 C2110 1.385 . S
C2114 C2113 1.374 . S
C2115 C2112 1.499 . S
C2115 C2116 1.373 . S
C2115 C2117 1.389 . S
C2116 H2089 0.950 . S
C2116 C2102 1.377 1_556 S
C2116 C2115 1.373 . S
C2117 C2101 1.377 1_556 S
C2117 C2115 1.389 . S
C2117 C2118 1.524 . S
C2118 C2117 1.524 . S
C2118 C2119 1.397 . S
C2118 C2123 1.363 . S
C2119 H2090 0.950 . S
C2119 C2118 1.397 . S
C2119 C2120 1.334 . S
C2120 H2091 0.950 . S
C2120 C2119 1.334 . S
C2120 C2121 1.287 . S
C2121 C2120 1.287 . S
C2121 C2122 1.524 . S
C2121 H2124 0.999 . S
C2122 H2092 0.950 . S
C2122 C2121 1.524 . S
C2122 C2123 1.415 . S
C2123 H2093 0.950 1_556 S
C2123 C2118 1.363 . S
C2123 C2122 1.415 . S
H2124 C2121 0.999 . S
H2125 C2106 0.913 . S
H2126 C2144 0.951 . S
H2127 C2146 0.951 . S
H2128 C2148 0.950 . S
H2129 C2149 0.950 . S
H2130 C2151 0.950 . S
H2131 C2154 0.950 . S
H2132 C2155 0.950 . S
H2133 C2157 0.950 . S
H2134 C2158 0.950 1_554 S
H2135 C2159 0.951 . S
H2136 C2161 0.951 . S
H2137 C2163 0.950 . S
H2138 C2164 0.950 . S
H2139 C2166 0.950 . S
H2140 C2169 0.950 . S
H2141 C2170 0.950 . S
H2142 C2172 0.950 . S
H2143 C2173 0.950 1_556 S
C2144 H2126 0.951 . S
C2144 C2145 1.366 . S
C2144 C2146 1.388 . S
C2145 C2144 1.366 . S
C2145 C2149 1.385 . S
C2146 H2127 0.951 . S
C2146 C2144 1.388 . S
C2146 C2147 1.366 . S
C2147 C2146 1.366 . S
C2147 C2148 1.414 . S
C2147 C2150 1.499 . S
C2148 H2128 0.950 . S
C2148 C2147 1.414 . S
C2148 C2149 1.374 . S
C2149 H2129 0.950 . S
C2149 C2145 1.385 . S
C2149 C2148 1.374 . S
C2150 C2147 1.499 . S
C2150 C2151 1.373 . S
C2150 C2152 1.389 . S
C2151 H2130 0.950 . S
C2151 C2150 1.373 . S
C2151 C2167 1.377 1_556 S
C2152 C2150 1.389 . S
C2152 C2153 1.524 . S
C2152 C2166 1.377 1_556 S
C2153 C2152 1.524 . S
C2153 C2154 1.397 . S
C2153 C2158 1.363 . S
C2154 H2131 0.950 . S
C2154 C2153 1.397 . S
C2154 C2155 1.334 . S
C2155 H2132 0.950 . S
C2155 C2154 1.334 . S
C2155 C2156 1.287 . S
C2156 C2155 1.287 . S
C2156 C2157 1.524 . S
C2156 H2175 0.913 . S
C2157 H2133 0.950 . S
C2157 C2156 1.524 . S
C2157 C2158 1.415 . S
C2158 H2134 0.950 1_556 S
C2158 C2153 1.363 . S
C2158 C2157 1.415 . S
C2159 H2135 0.951 . S
C2159 C2160 1.366 . S
C2159 C2161 1.388 . S
C2160 C2159 1.366 . S
C2160 C2164 1.385 . S
C2161 H2136 0.951 . S
C2161 C2159 1.388 . S
C2161 C2162 1.366 . S
C2162 C2161 1.366 . S
C2162 C2163 1.414 . S
C2162 C2165 1.499 . S
C2163 H2137 0.950 . S
C2163 C2162 1.414 . S
C2163 C2164 1.374 . S
C2164 H2138 0.950 . S
C2164 C2160 1.385 . S
C2164 C2163 1.374 . S
C2165 C2162 1.499 . S
C2165 C2166 1.373 . S
C2165 C2167 1.389 . S
C2166 H2139 0.950 . S
C2166 C2152 1.377 1_554 S
C2166 C2165 1.373 . S
C2167 C2151 1.377 1_554 S
C2167 C2165 1.389 . S
C2167 C2168 1.524 . S
C2168 C2167 1.524 . S
C2168 C2169 1.397 . S
C2168 C2173 1.363 . S
C2169 H2140 0.950 . S
C2169 C2168 1.397 . S
C2169 C2170 1.334 . S
C2170 H2141 0.950 . S
C2170 C2169 1.334 . S
C2170 C2171 1.287 . S
C2171 C2170 1.287 . S
C2171 C2172 1.524 . S
C2171 H2174 0.999 . S
C2172 H2142 0.950 . S
C2172 C2171 1.524 . S
C2172 C2173 1.415 . S
C2173 H2143 0.950 1_554 S
C2173 C2168 1.363 . S
C2173 C2172 1.415 . S
H2174 C2171 0.999 . S
H2175 C2156 0.913 . S
C595 C14 1.340 . S
C610 C111 1.372 . S
C645 C3 1.372 . S
C660 C50 1.340 . S
C695 C39 1.372 . S
C710 C86 1.338 . S
C745 C75 1.372 . S
C760 C122 1.339 . S
C795 C158 1.340 . S
C810 C183 1.372 . S
C845 C194 1.338 . S
C860 C219 1.372 . S
C895 C230 1.340 . S
C910 C255 1.372 . S
C945 C266 1.340 . S
C960 C147 1.372 . S
C995 C302 1.339 . S
C1010 C399 1.371 . S
C1045 C291 1.372 . S
C1060 C338 1.339 . S
C1095 C327 1.372 . S
C1110 C374 1.338 . S
C1145 C410 1.339 . S
C1160 C363 1.371 . S
C1195 C471 1.372 . S
C1210 C446 1.338 . S
C1245 C507 1.372 . S
C1260 C482 1.340 . S
C1295 C518 1.339 . S
C1310 C543 1.372 . S
C1345 C554 1.340 . S
C1360 C435 1.372 . S
C1395 C4 1.025 . S
C1410 C544 1.025 . S
C1445 C40 1.024 . S
C1460 C436 1.024 . S
C1495 C472 1.025 . S
C1510 C76 1.025 . S
C1545 C112 1.025 . S
C1560 C508 1.025 . S
C1595 C328 1.024 . S
C1610 C148 1.025 . S
C1645 C364 1.024 . S
C1660 C184 1.024 . S
C1695 C220 1.025 . S
C1710 C400 1.024 . S
C1745 C256 1.024 . S
C1760 C292 1.024 . S
C1795 C2 1.598 . S
C1810 C218 1.598 . S
C1845 C254 1.598 . S
C1860 C38 1.598 . S
C1895 C146 1.598 . S
C1910 C74 1.598 . S
C1945 C182 1.598 . S
C1960 C110 1.598 . S
C1995 C290 1.598 . S
C2010 C506 1.598 . S
C2045 C326 1.598 . S
C2060 C542 1.598 . S
C2095 C434 1.598 . S
C2110 C362 1.598 . S
C2145 C398 1.598 . S
C2160 C470 1.598 . S
