# Generated by pormake.
# Topology wgp, (5)-cn, num edge types: 1
# Building blocks:
#     Node 0, Type 0, BuildingBlock: BEQFEK_clean_sbu_0, # of connection points: 5
#     Node 1, Type 0, BuildingBlock: BEQFEK_clean_sbu_0, # of connection points: 5
#     Node 2, Type 0, BuildingBlock: BEQFEK_clean_sbu_0, # of connection points: 5
#     Node 3, Type 0, BuildingBlock: BEQFEK_clean_sbu_0, # of connection points: 5
#     Node 4, Type 0, BuildingBlock: BEQFEK_clean_sbu_0, # of connection points: 5
#     Node 5, Type 0, BuildingBlock: BEQFEK_clean_sbu_0, # of connection points: 5
#     Node 6, Type 0, BuildingBlock: BEQFEK_clean_sbu_0, # of connection points: 5
#     Node 7, Type 0, BuildingBlock: BEQFEK_clean_sbu_0, # of connection points: 5
#     Node 8, Type 0, BuildingBlock: BEQFEK_clean_sbu_0, # of connection points: 5
#     Node 9, Type 0, BuildingBlock: BEQFEK_clean_sbu_0, # of connection points: 5
#     Node 10, Type 0, BuildingBlock: BEQFEK_clean_sbu_0, # of connection points: 5
#     Node 11, Type 0, BuildingBlock: BEQFEK_clean_sbu_0, # of connection points: 5
#     Node 12, Type 0, BuildingBlock: BEQFEK_clean_sbu_0, # of connection points: 5
#     Node 13, Type 0, BuildingBlock: BEQFEK_clean_sbu_0, # of connection points: 5
#     Node 14, Type 0, BuildingBlock: BEQFEK_clean_sbu_0, # of connection points: 5
#     Node 15, Type 0, BuildingBlock: BEQFEK_clean_sbu_0, # of connection points: 5
#     Node 16, Type 0, BuildingBlock: BEQFEK_clean_sbu_0, # of connection points: 5
#     Node 17, Type 0, BuildingBlock: BEQFEK_clean_sbu_0, # of connection points: 5
#     Node 18, Type 0, BuildingBlock: BEQFEK_clean_sbu_0, # of connection points: 5
#     Node 19, Type 0, BuildingBlock: BEQFEK_clean_sbu_0, # of connection points: 5
#     Node 20, Type 0, BuildingBlock: BEQFEK_clean_sbu_0, # of connection points: 5
#     Node 21, Type 0, BuildingBlock: BEQFEK_clean_sbu_0, # of connection points: 5
#     Node 22, Type 0, BuildingBlock: BEQFEK_clean_sbu_0, # of connection points: 5
#     Node 23, Type 0, BuildingBlock: BEQFEK_clean_sbu_0, # of connection points: 5
#     Node 24, Type 0, BuildingBlock: BEQFEK_clean_sbu_0, # of connection points: 5
#     Node 25, Type 0, BuildingBlock: BEQFEK_clean_sbu_0, # of connection points: 5
#     Node 26, Type 0, BuildingBlock: BEQFEK_clean_sbu_0, # of connection points: 5
#     Node 27, Type 0, BuildingBlock: BEQFEK_clean_sbu_0, # of connection points: 5
#     Node 28, Type 0, BuildingBlock: BEQFEK_clean_sbu_0, # of connection points: 5
#     Node 29, Type 0, BuildingBlock: BEQFEK_clean_sbu_0, # of connection points: 5
#     Node 30, Type 0, BuildingBlock: BEQFEK_clean_sbu_0, # of connection points: 5
#     Node 31, Type 0, BuildingBlock: BEQFEK_clean_sbu_0, # of connection points: 5
#     Edge 32, Type (0, 0), BuildingBlock: KIFKEQ_clean_linker_1, # of connection points: 2
#     Edge 33, Type (0, 0), BuildingBlock: KIFKEQ_clean_linker_1, # of connection points: 2
#     Edge 34, Type (0, 0), BuildingBlock: KIFKEQ_clean_linker_1, # of connection points: 2
#     Edge 35, Type (0, 0), BuildingBlock: KIFKEQ_clean_linker_1, # of connection points: 2
#     Edge 36, Type (0, 0), BuildingBlock: KIFKEQ_clean_linker_1, # of connection points: 2
#     Edge 37, Type (0, 0), BuildingBlock: KIFKEQ_clean_linker_1, # of connection points: 2
#     Edge 38, Type (0, 0), BuildingBlock: KIFKEQ_clean_linker_1, # of connection points: 2
#     Edge 39, Type (0, 0), BuildingBlock: KIFKEQ_clean_linker_1, # of connection points: 2
#     Edge 40, Type (0, 0), BuildingBlock: KIFKEQ_clean_linker_1, # of connection points: 2
#     Edge 41, Type (0, 0), BuildingBlock: KIFKEQ_clean_linker_1, # of connection points: 2
#     Edge 42, Type (0, 0), BuildingBlock: KIFKEQ_clean_linker_1, # of connection points: 2
#     Edge 43, Type (0, 0), BuildingBlock: KIFKEQ_clean_linker_1, # of connection points: 2
#     Edge 44, Type (0, 0), BuildingBlock: KIFKEQ_clean_linker_1, # of connection points: 2
#     Edge 45, Type (0, 0), BuildingBlock: KIFKEQ_clean_linker_1, # of connection points: 2
#     Edge 46, Type (0, 0), BuildingBlock: KIFKEQ_clean_linker_1, # of connection points: 2
#     Edge 47, Type (0, 0), BuildingBlock: KIFKEQ_clean_linker_1, # of connection points: 2
#     Edge 48, Type (0, 0), BuildingBlock: KIFKEQ_clean_linker_1, # of connection points: 2
#     Edge 49, Type (0, 0), BuildingBlock: KIFKEQ_clean_linker_1, # of connection points: 2
#     Edge 50, Type (0, 0), BuildingBlock: KIFKEQ_clean_linker_1, # of connection points: 2
#     Edge 51, Type (0, 0), BuildingBlock: KIFKEQ_clean_linker_1, # of connection points: 2
#     Edge 52, Type (0, 0), BuildingBlock: KIFKEQ_clean_linker_1, # of connection points: 2
#     Edge 53, Type (0, 0), BuildingBlock: KIFKEQ_clean_linker_1, # of connection points: 2
#     Edge 54, Type (0, 0), BuildingBlock: KIFKEQ_clean_linker_1, # of connection points: 2
#     Edge 55, Type (0, 0), BuildingBlock: KIFKEQ_clean_linker_1, # of connection points: 2
#     Edge 56, Type (0, 0), BuildingBlock: KIFKEQ_clean_linker_1, # of connection points: 2
#     Edge 57, Type (0, 0), BuildingBlock: KIFKEQ_clean_linker_1, # of connection points: 2
#     Edge 58, Type (0, 0), BuildingBlock: KIFKEQ_clean_linker_1, # of connection points: 2
#     Edge 59, Type (0, 0), BuildingBlock: KIFKEQ_clean_linker_1, # of connection points: 2
#     Edge 60, Type (0, 0), BuildingBlock: KIFKEQ_clean_linker_1, # of connection points: 2
#     Edge 61, Type (0, 0), BuildingBlock: KIFKEQ_clean_linker_1, # of connection points: 2
#     Edge 62, Type (0, 0), BuildingBlock: KIFKEQ_clean_linker_1, # of connection points: 2
#     Edge 63, Type (0, 0), BuildingBlock: KIFKEQ_clean_linker_1, # of connection points: 2
#     Edge 64, Type (0, 0), BuildingBlock: KIFKEQ_clean_linker_1, # of connection points: 2
#     Edge 65, Type (0, 0), BuildingBlock: KIFKEQ_clean_linker_1, # of connection points: 2
#     Edge 66, Type (0, 0), BuildingBlock: KIFKEQ_clean_linker_1, # of connection points: 2
#     Edge 67, Type (0, 0), BuildingBlock: KIFKEQ_clean_linker_1, # of connection points: 2
#     Edge 68, Type (0, 0), BuildingBlock: KIFKEQ_clean_linker_1, # of connection points: 2
#     Edge 69, Type (0, 0), BuildingBlock: KIFKEQ_clean_linker_1, # of connection points: 2
#     Edge 70, Type (0, 0), BuildingBlock: KIFKEQ_clean_linker_1, # of connection points: 2
#     Edge 71, Type (0, 0), BuildingBlock: KIFKEQ_clean_linker_1, # of connection points: 2
#     Edge 72, Type (0, 0), BuildingBlock: KIFKEQ_clean_linker_1, # of connection points: 2
#     Edge 73, Type (0, 0), BuildingBlock: KIFKEQ_clean_linker_1, # of connection points: 2
#     Edge 74, Type (0, 0), BuildingBlock: KIFKEQ_clean_linker_1, # of connection points: 2
#     Edge 75, Type (0, 0), BuildingBlock: KIFKEQ_clean_linker_1, # of connection points: 2
#     Edge 76, Type (0, 0), BuildingBlock: KIFKEQ_clean_linker_1, # of connection points: 2
#     Edge 77, Type (0, 0), BuildingBlock: KIFKEQ_clean_linker_1, # of connection points: 2
#     Edge 78, Type (0, 0), BuildingBlock: KIFKEQ_clean_linker_1, # of connection points: 2
#     Edge 79, Type (0, 0), BuildingBlock: KIFKEQ_clean_linker_1, # of connection points: 2
#     Edge 80, Type (0, 0), BuildingBlock: KIFKEQ_clean_linker_1, # of connection points: 2
#     Edge 81, Type (0, 0), BuildingBlock: KIFKEQ_clean_linker_1, # of connection points: 2
#     Edge 82, Type (0, 0), BuildingBlock: KIFKEQ_clean_linker_1, # of connection points: 2
#     Edge 83, Type (0, 0), BuildingBlock: KIFKEQ_clean_linker_1, # of connection points: 2
#     Edge 84, Type (0, 0), BuildingBlock: KIFKEQ_clean_linker_1, # of connection points: 2
#     Edge 85, Type (0, 0), BuildingBlock: KIFKEQ_clean_linker_1, # of connection points: 2
#     Edge 86, Type (0, 0), BuildingBlock: KIFKEQ_clean_linker_1, # of connection points: 2
#     Edge 87, Type (0, 0), BuildingBlock: KIFKEQ_clean_linker_1, # of connection points: 2
#     Edge 88, Type (0, 0), BuildingBlock: KIFKEQ_clean_linker_1, # of connection points: 2
#     Edge 89, Type (0, 0), BuildingBlock: KIFKEQ_clean_linker_1, # of connection points: 2
#     Edge 90, Type (0, 0), BuildingBlock: KIFKEQ_clean_linker_1, # of connection points: 2
#     Edge 91, Type (0, 0), BuildingBlock: KIFKEQ_clean_linker_1, # of connection points: 2
#     Edge 92, Type (0, 0), BuildingBlock: KIFKEQ_clean_linker_1, # of connection points: 2
#     Edge 93, Type (0, 0), BuildingBlock: KIFKEQ_clean_linker_1, # of connection points: 2
#     Edge 94, Type (0, 0), BuildingBlock: KIFKEQ_clean_linker_1, # of connection points: 2
#     Edge 95, Type (0, 0), BuildingBlock: KIFKEQ_clean_linker_1, # of connection points: 2
#     Edge 96, Type (0, 0), BuildingBlock: KIFKEQ_clean_linker_1, # of connection points: 2
#     Edge 97, Type (0, 0), BuildingBlock: KIFKEQ_clean_linker_1, # of connection points: 2
#     Edge 98, Type (0, 0), BuildingBlock: KIFKEQ_clean_linker_1, # of connection points: 2
#     Edge 99, Type (0, 0), BuildingBlock: KIFKEQ_clean_linker_1, # of connection points: 2
#     Edge 100, Type (0, 0), BuildingBlock: KIFKEQ_clean_linker_1, # of connection points: 2
#     Edge 101, Type (0, 0), BuildingBlock: KIFKEQ_clean_linker_1, # of connection points: 2
#     Edge 102, Type (0, 0), BuildingBlock: KIFKEQ_clean_linker_1, # of connection points: 2
#     Edge 103, Type (0, 0), BuildingBlock: KIFKEQ_clean_linker_1, # of connection points: 2
#     Edge 104, Type (0, 0), BuildingBlock: KIFKEQ_clean_linker_1, # of connection points: 2
#     Edge 105, Type (0, 0), BuildingBlock: KIFKEQ_clean_linker_1, # of connection points: 2
#     Edge 106, Type (0, 0), BuildingBlock: KIFKEQ_clean_linker_1, # of connection points: 2
#     Edge 107, Type (0, 0), BuildingBlock: KIFKEQ_clean_linker_1, # of connection points: 2
#     Edge 108, Type (0, 0), BuildingBlock: KIFKEQ_clean_linker_1, # of connection points: 2
#     Edge 109, Type (0, 0), BuildingBlock: KIFKEQ_clean_linker_1, # of connection points: 2
#     Edge 110, Type (0, 0), BuildingBlock: KIFKEQ_clean_linker_1, # of connection points: 2
#     Edge 111, Type (0, 0), BuildingBlock: KIFKEQ_clean_linker_1, # of connection points: 2
# Relax obj value: 0.251
# Max RMSD: 0.168
# Mean RMSD: 0.168
data_MOF--net-wgp--node1-BEQFEK_clean_sbu_0--edge1-KIFKEQ_clean_linker_1
_symmetry_space_group_name_H-M    P1
_symmetry_Int_Tables_number       1
_symmetry_cell_setting            triclinic
loop_
_symmetry_equiv_pos_as_xyz
'x, y, z'
_cell_length_a     35.88668
_cell_length_b     35.855105
_cell_length_c     114.07743
_cell_angle_alpha  89.998208
_cell_angle_beta   89.975499
_cell_angle_gamma 89.973167
loop_
_atom_site_label
_atom_site_type_symbol
_atom_site_fract_x
_atom_site_fract_y
_atom_site_fract_z
_atom_type_partial_charge
Co0 Co 0.29602 0.18972 0.08274 0.0
Co1 Co 0.33941 0.11394 0.08121 0.0
C2 C 0.29661 0.14366 0.06067 0.0
O3 O 0.28607 0.17192 0.06656 0.0
O4 O 0.3178 0.11897 0.06515 0.0
C5 C 0.23654 0.24197 0.07917 0.0
O6 O 0.22573 0.21747 0.07133 0.0
C7 C 0.34546 0.03327 0.07884 0.0
C8 C 0.39667 0.02048 0.08881 0.0
C9 C 0.36741 1.00403 0.0828 0.0
N10 N 0.36091 0.06545 0.08239 0.0
N11 N 0.39189 0.0577 0.08816 0.0
C12 C 0.3081 0.03079 0.07306 0.0
H13 H 0.29153 0.05631 0.07484 0.0
H14 H 0.2926 0.00592 0.07618 0.0
H15 H 0.31208 0.02824 0.06344 0.0
C16 C 0.25899 0.15044 0.10253 0.0
N17 N 0.284 0.1519 0.09371 0.0
N18 N 0.30216 0.12002 0.09316 0.0
C19 C 0.28932 0.09736 0.10172 0.0
C20 C 0.26136 0.1157 0.10786 0.0
C21 C 0.23235 0.18124 0.10537 0.0
H22 H 0.24826 0.20675 0.10766 0.0
H23 H 0.21537 0.18765 0.0975 0.0
H24 H 0.21353 0.17373 0.11272 0.0
O25 O 0.34936 0.20484 0.0843 0.0
O26 O 0.37997 0.15114 0.08312 0.0
H27 H 0.29641 0.05026 0.1134 0.0
H28 H 0.29451 0.03916 0.09803 0.0
C29 C 0.30487 0.05965 0.10452 0.0
H30 H 0.33568 0.06044 0.10413 0.0
H31 H 0.40882 0.07772 0.09212 0.0
O32 O 0.26525 0.23515 0.08535 0.0
C33 C 0.37982 0.18651 0.08423 0.0
Co34 Co 0.06904 0.04847 0.3336 0.0
Co35 Co 0.14521 0.08968 0.33074 0.0
C36 C 0.11283 0.04582 0.31094 0.0
O37 O 0.08464 0.03752 0.3172 0.0
O38 O 0.13905 0.06587 0.31505 0.0
C39 C 0.01857 0.98704 0.33166 0.0
O40 O 0.04344 0.97425 0.32422 0.0
C41 C 0.22533 0.09767 0.32713 0.0
C42 C 0.23944 0.144 0.33909 0.0
C43 C 0.25514 0.11711 0.33189 0.0
N44 N 0.19364 0.11151 0.33163 0.0
N45 N 0.20216 0.13989 0.33852 0.0
C46 C 0.22659 0.06591 0.31861 0.0
H47 H 0.21337 0.04089 0.32254 0.0
H48 H 0.25541 0.05937 0.31577 0.0
H49 H 0.21021 0.07361 0.31075 0.0
C50 C 0.10854 0.01457 0.35387 0.0
N51 N 0.10739 0.03719 0.34442 0.0
N52 N 0.1399 0.05363 0.34313 0.0
C53 C 0.16307 0.04133 0.35163 0.0
C54 C 0.14394 0.01634 0.3588 0.0
C55 C 0.07554 0.99362 0.35845 0.0
H56 H 0.05031 0.0114 0.35792 0.0
H57 H 0.07088 0.96861 0.35291 0.0
H58 H 0.07969 0.98473 0.36767 0.0
O59 O 0.05426 0.10154 0.33494 0.0
O60 O 0.10808 0.13103 0.33251 0.0
H61 H 0.20626 0.08133 0.35461 0.0
H62 H 0.21858 0.03446 0.359 0.0
C63 C 0.20348 0.05135 0.35241 0.0
H64 H 0.21682 0.04624 0.34384 0.0
H65 H 0.18268 0.155 0.34338 0.0
O66 O 0.02437 0.0179 0.33683 0.0
C67 C 0.07294 0.13164 0.33419 0.0
Co68 Co 0.21172 0.8205 0.5833 0.0
Co69 Co 0.16798 0.89612 0.58216 0.0
C70 C 0.21167 0.86758 0.56154 0.0
O71 O 0.22284 0.83939 0.56734 0.0
O72 O 0.18967 0.89147 0.56607 0.0
C73 C 0.27198 0.7688 0.57996 0.0
O74 O 0.28365 0.79385 0.57241 0.0
C75 C 0.16041 0.97679 0.57939 0.0
C76 C 0.1115 0.98949 0.59047 0.0
C77 C 0.13901 0.00601 0.5837 0.0
N78 N 0.14635 0.94461 0.5835 0.0
N79 N 0.11667 0.95231 0.58993 0.0
C80 C 0.1965 0.97942 0.57285 0.0
H81 H 0.21403 0.95454 0.57459 0.0
H82 H 0.21206 0.00491 0.57538 0.0
H83 H 0.1906 0.98071 0.56331 0.0
C84 C 0.24598 0.85775 0.60399 0.0
N85 N 0.22266 0.85744 0.59471 0.0
N86 N 0.20487 0.8895 0.59417 0.0
C87 C 0.21641 0.91129 0.60313 0.0
C88 C 0.2428 0.89191 0.60968 0.0
C89 C 0.26915 0.82505 0.60763 0.0
H90 H 0.25197 0.79936 0.60742 0.0
H91 H 0.29234 0.82145 0.6013 0.0
H92 H 0.28077 0.82875 0.61657 0.0
O93 O 0.15836 0.80507 0.58421 0.0
O94 O 0.1274 0.85874 0.58408 0.0
H95 H 0.17303 0.95074 0.60662 0.0
H96 H 0.21776 0.96403 0.61258 0.0
C97 C 0.20353 0.95053 0.60509 0.0
H98 H 0.2096 0.96731 0.59719 0.0
H99 H 0.10102 0.93232 0.59439 0.0
O100 O 0.24243 0.77503 0.58581 0.0
C101 C 0.12781 0.82321 0.58456 0.0
Co102 Co 0.43841 0.95958 0.83406 0.0
Co103 Co 0.36179 0.91903 0.8313 0.0
C104 C 0.39416 0.96442 0.8117 0.0
O105 O 0.42229 0.9728 0.81797 0.0
O106 O 0.36835 0.94353 0.81568 0.0
C107 C 0.48969 0.02113 0.83373 0.0
O108 O 0.46247 0.03872 0.82836 0.0
C109 C 0.28112 0.91145 0.82774 0.0
C110 C 0.26819 0.86251 0.83879 0.0
C111 C 0.25184 0.88993 0.83194 0.0
N112 N 0.31315 0.8976 0.83203 0.0
N113 N 0.3053 0.86785 0.83841 0.0
C114 C 0.27855 0.94747 0.82113 0.0
H115 H 0.30348 0.96496 0.82279 0.0
H116 H 0.25318 0.96321 0.82368 0.0
H117 H 0.27704 0.94138 0.8116 0.0
C118 C 0.39946 0.99256 0.85473 0.0
N119 N 0.40049 0.97034 0.84519 0.0
N120 N 0.36788 0.95409 0.84388 0.0
C121 C 0.34488 0.9659 0.85249 0.0
C122 C 0.36414 0.99053 0.85972 0.0
C123 C 0.43231 0.0138 0.85927 0.0
H124 H 0.45795 0.99678 0.85833 0.0
H125 H 0.43581 0.03958 0.85401 0.0
H126 H 0.4286 0.02153 0.86862 0.0
O127 O 0.4523 0.90618 0.8345 0.0
O128 O 0.39806 0.87694 0.83291 0.0
H129 H 0.30178 0.92541 0.85499 0.0
H130 H 0.28964 0.97143 0.86024 0.0
C131 C 0.30448 0.95574 0.85331 0.0
H132 H 0.29072 0.96233 0.8449 0.0
H133 H 0.32512 0.85234 0.84299 0.0
O134 O 0.48458 0.98788 0.83724 0.0
C135 C 0.43341 0.87618 0.83399 0.0
Co136 Co 0.29318 0.8211 0.45501 0.0
Co137 Co 0.3371 0.89644 0.45685 0.0
C138 C 0.29228 0.86771 0.47703 0.0
O139 O 0.28173 0.83954 0.4711 0.0
O140 O 0.31426 0.89191 0.47269 0.0
C141 C 0.2325 0.76964 0.458 0.0
O142 O 0.22077 0.79434 0.46566 0.0
C143 C 0.34685 0.97697 0.45986 0.0
C144 C 0.39551 0.98845 0.44855 0.0
C145 C 0.36878 0.00565 0.45546 0.0
N146 N 0.35985 0.94445 0.45564 0.0
N147 N 0.38942 0.95143 0.44909 0.0
C148 C 0.31113 0.98055 0.46657 0.0
H149 H 0.29287 0.95618 0.4649 0.0
H150 H 0.29611 0.00645 0.46411 0.0
H151 H 0.31751 0.98165 0.47608 0.0
C152 C 0.26053 0.85943 0.43427 0.0
N153 N 0.28318 0.85855 0.4437 0.0
N154 N 0.30083 0.8906 0.44458 0.0
C155 C 0.28956 0.9131 0.43577 0.0
C156 C 0.26378 0.89407 0.42887 0.0
C157 C 0.23797 0.82682 0.4302 0.0
H158 H 0.25487 0.80098 0.43081 0.0
H159 H 0.21344 0.82353 0.43603 0.0
H160 H 0.22831 0.83046 0.42104 0.0
O161 O 0.34626 0.80503 0.45405 0.0
O162 O 0.37735 0.85839 0.45534 0.0
H163 H 0.33191 0.95384 0.43253 0.0
H164 H 0.28629 0.96753 0.42734 0.0
C165 C 0.3016 0.95285 0.43439 0.0
H166 H 0.29617 0.96802 0.44264 0.0
H167 H 0.4043 0.93107 0.44452 0.0
O168 O 0.26216 0.77606 0.45223 0.0
C169 C 0.37691 0.82297 0.45434 0.0
Co170 Co 0.43988 0.04832 0.70446 0.0
Co171 Co 0.36315 0.08937 0.70663 0.0
C172 C 0.39597 0.04802 0.72697 0.0
O173 O 0.42446 0.0394 0.72092 0.0
O174 O 0.3696 0.06716 0.72255 0.0
C175 C 0.49097 0.98827 0.70763 0.0
O176 O 0.46551 0.97692 0.71509 0.0
C177 C 0.28244 0.09194 0.70894 0.0
C178 C 0.26777 0.14482 0.70012 0.0
C179 C 0.25241 0.11334 0.70525 0.0
N180 N 0.314 0.10941 0.70582 0.0
N181 N 0.30511 0.14136 0.70075 0.0
C182 C 0.28168 0.05579 0.71553 0.0
H183 H 0.29409 0.03337 0.71008 0.0
H184 H 0.2531 0.04791 0.71825 0.0
H185 H 0.29899 0.05842 0.72352 0.0
C186 C 0.40015 0.01 0.685 0.0
N187 N 0.40145 0.03489 0.69387 0.0
N188 N 0.36934 0.05256 0.69454 0.0
C189 C 0.34674 0.03961 0.68598 0.0
C190 C 0.36529 0.01197 0.67976 0.0
C191 C 0.43137 0.98412 0.68194 0.0
H192 H 0.45667 1.00064 0.67986 0.0
H193 H 0.43783 0.96636 0.68963 0.0
H194 H 0.42429 0.96596 0.67439 0.0
O195 O 0.45353 0.10177 0.70248 0.0
O196 O 0.39935 0.13106 0.70455 0.0
H197 H 0.30083 0.04813 0.67399 0.0
H198 H 0.28813 0.0433 0.68914 0.0
C199 C 0.30914 0.0552 0.68309 0.0
H200 H 0.30935 0.08593 0.68402 0.0
H201 H 0.32449 0.16005 0.69729 0.0
O202 O 0.48529 0.01787 0.70174 0.0
C203 C 0.4345 0.13179 0.7029 0.0
Co204 Co 0.20825 0.18694 0.95439 0.0
Co205 Co 0.16582 0.11143 0.95684 0.0
C206 C 0.21221 0.14257 0.97652 0.0
O207 O 0.22225 0.17047 0.9704 0.0
O208 O 0.19001 0.11815 0.97243 0.0
C209 C 0.26973 0.23836 0.9547 0.0
O210 O 0.28759 0.21109 0.95996 0.0
C211 C 0.16289 0.03118 0.96022 0.0
C212 C 0.10842 0.01587 0.9526 0.0
C213 C 0.14018 1.00077 0.95768 0.0
N214 N 0.14544 0.06238 0.95672 0.0
N215 N 0.11263 0.05318 0.95235 0.0
C216 C 0.20216 0.03098 0.96469 0.0
H217 H 0.21654 0.05732 0.96235 0.0
H218 H 0.21798 0.0071 0.96101 0.0
H219 H 0.20178 0.02852 0.97439 0.0
C220 C 0.24134 0.14788 0.9338 0.0
N221 N 0.21861 0.14915 0.94321 0.0
N222 N 0.20063 0.11728 0.94412 0.0
C223 C 0.21123 0.09477 0.93521 0.0
C224 C 0.23758 0.11334 0.9284 0.0
C225 C 0.26477 0.17991 0.92975 0.0
H226 H 0.24856 0.20617 0.93034 0.0
H227 H 0.28939 0.18246 0.93557 0.0
H228 H 0.2744 0.17598 0.92059 0.0
O229 O 0.15462 0.20116 0.95376 0.0
O230 O 0.12407 0.14759 0.95531 0.0
H231 H 0.16673 0.05502 0.93418 0.0
H232 H 0.20639 0.04318 0.92519 0.0
C233 C 0.19755 0.05561 0.93361 0.0
H234 H 0.20908 0.03791 0.94066 0.0
H235 H 0.09371 0.07223 0.94883 0.0
O236 O 0.23649 0.23315 0.95123 0.0
C237 C 0.12415 0.18295 0.95418 0.0
Co238 Co 0.06786 0.96159 0.20371 0.0
Co239 Co 0.14403 0.91981 0.20592 0.0
C240 C 0.11232 0.96316 0.22608 0.0
O241 O 0.08412 0.97225 0.21995 0.0
O242 O 0.13814 0.94285 0.22181 0.0
C243 C 0.01701 0.02293 0.20581 0.0
O244 O 0.04261 0.03652 0.21284 0.0
C245 C 0.22455 0.91167 0.20912 0.0
C246 C 0.23698 0.86228 0.1982 0.0
C247 C 0.25359 0.88977 0.20495 0.0
N248 N 0.19237 0.8979 0.20494 0.0
N249 N 0.1999 0.86793 0.19862 0.0
C250 C 0.22744 0.94786 0.21561 0.0
H251 H 0.20259 0.96546 0.21392 0.0
H252 H 0.2529 0.96331 0.21298 0.0
H253 H 0.22902 0.94205 0.22515 0.0
C254 C 0.10668 0.996 0.18334 0.0
N255 N 0.10587 0.97308 0.19271 0.0
N256 N 0.13817 0.95595 0.19366 0.0
C257 C 0.16064 0.96758 0.18488 0.0
C258 C 0.14144 0.99332 0.17803 0.0
C259 C 0.07389 0.01817 0.1792 0.0
H260 H 0.04848 1.00061 0.17945 0.0
H261 H 0.06954 0.04212 0.1852 0.0
H262 H 0.07804 0.02875 0.17015 0.0
O263 O 0.05304 0.90838 0.2026 0.0
O264 O 0.10711 0.87858 0.20395 0.0
H265 H 0.2012 0.92483 0.1819 0.0
H266 H 0.21425 0.96973 0.17597 0.0
C267 C 0.20027 0.95539 0.18336 0.0
H268 H 0.21605 0.96192 0.19142 0.0
H269 H 0.17988 0.85241 0.19413 0.0
O270 O 0.02269 0.99183 0.20076 0.0
C271 C 0.07177 0.8782 0.20282 0.0
Co272 Co 0.7137 0.81839 0.95472 0.0
Co273 Co 0.67105 0.89427 0.95694 0.0
C274 C 0.71353 0.86213 0.9772 0.0
O275 O 0.72281 0.83387 0.97113 0.0
O276 O 0.69369 0.88803 0.97281 0.0
C277 C 0.77392 0.76731 0.95781 0.0
O278 O 0.78495 0.79232 0.96547 0.0
C279 C 0.66773 0.97501 0.95906 0.0
C280 C 0.6137 0.98887 0.95085 0.0
C281 C 0.6456 0.00473 0.95554 0.0
N282 N 0.65026 0.94315 0.95624 0.0
N283 N 0.61764 0.95155 0.95155 0.0
C284 C 0.7047 0.97641 0.96516 0.0
H285 H 0.72677 0.96576 0.95923 0.0
H286 H 0.71175 0.00499 0.96812 0.0
H287 H 0.70402 0.95798 0.97294 0.0
C288 C 0.75031 0.85882 0.93507 0.0
N289 N 0.72599 0.85713 0.94407 0.0
N290 N 0.70742 0.88874 0.94471 0.0
C291 C 0.71902 0.91132 0.93595 0.0
C292 C 0.74688 0.89336 0.92966 0.0
C293 C 0.77687 0.82817 0.93199 0.0
H294 H 0.76088 0.80298 0.92942 0.0
H295 H 0.79369 0.82094 0.93982 0.0
H296 H 0.79589 0.83627 0.92476 0.0
O297 O 0.66048 0.80372 0.95297 0.0
O298 O 0.63011 0.85735 0.95499 0.0
H299 H 0.70695 0.95536 0.92356 0.0
H300 H 0.71331 0.97015 0.93846 0.0
C301 C 0.70148 0.94791 0.93284 0.0
H302 H 0.67098 0.94659 0.9342 0.0
H303 H 0.59878 0.93185 0.94837 0.0
O304 O 0.74458 0.77336 0.95185 0.0
C305 C 0.6301 0.82212 0.95344 0.0
Co306 Co 0.93679 0.96169 0.70404 0.0
Co307 Co 0.86084 0.91999 0.70684 0.0
C308 C 0.89251 0.96431 0.7266 0.0
O309 O 0.92072 0.97274 0.72036 0.0
O310 O 0.86651 0.94395 0.72251 0.0
C311 C 0.9878 0.02289 0.70608 0.0
O312 O 0.96326 0.03569 0.71362 0.0
C313 C 0.78047 0.91035 0.71028 0.0
C314 C 0.76869 0.86165 0.699 0.0
C315 C 0.75171 0.88839 0.70597 0.0
N316 N 0.81282 0.89737 0.70596 0.0
N317 N 0.80567 0.86776 0.69944 0.0
C318 C 0.77706 0.94605 0.71702 0.0
H319 H 0.80153 0.96421 0.71541 0.0
H320 H 0.75131 0.96128 0.71455 0.0
H321 H 0.77576 0.93958 0.72653 0.0
C322 C 0.89718 0.99521 0.68374 0.0
N323 N 0.89845 0.97255 0.69316 0.0
N324 N 0.8661 0.95574 0.6944 0.0
C325 C 0.84296 0.96766 0.68584 0.0
C326 C 0.86191 0.99298 0.67874 0.0
C327 C 0.92994 0.01677 0.67927 0.0
H328 H 0.95536 0.99923 0.67971 0.0
H329 H 0.93435 0.04151 0.68495 0.0
H330 H 0.9257 0.02611 0.6701 0.0
O331 O 0.952 0.9087 0.70281 0.0
O332 O 0.89834 0.87896 0.70522 0.0
H333 H 0.80072 0.92646 0.6831 0.0
H334 H 0.7878 0.97248 0.67803 0.0
C335 C 0.80279 0.95675 0.68492 0.0
H336 H 0.78875 0.96265 0.69334 0.0
H337 H 0.82587 0.8529 0.69479 0.0
O338 O 0.9815 0.99229 0.70082 0.0
C339 C 0.93351 0.8785 0.7036 0.0
Co340 Co 0.79888 0.18746 0.4551 0.0
Co341 Co 0.84276 0.11198 0.45686 0.0
C342 C 0.79767 0.14145 0.47705 0.0
O343 O 0.78745 0.16977 0.47116 0.0
O344 O 0.81936 0.11703 0.47267 0.0
C345 C 0.7392 0.23961 0.45825 0.0
O346 O 0.72779 0.21484 0.46594 0.0
C347 C 0.84483 0.0312 0.45823 0.0
C348 C 0.90185 0.01713 0.45245 0.0
C349 C 0.86832 1.00156 0.45591 0.0
N350 N 0.86342 0.06303 0.45623 0.0
N351 N 0.89771 0.05451 0.45292 0.0
C352 C 0.80496 0.02934 0.46204 0.0
H353 H 0.79085 0.0565 0.46062 0.0
H354 H 0.79 0.00696 0.45725 0.0
H355 H 0.80396 0.02246 0.47152 0.0
C356 C 0.76377 0.14821 0.43499 0.0
N357 N 0.78802 0.14967 0.44401 0.0
N358 N 0.80713 0.11833 0.44445 0.0
C359 C 0.7961 0.09629 0.43549 0.0
C360 C 0.76793 0.11417 0.42932 0.0
C361 C 0.73626 0.17832 0.43225 0.0
H362 H 0.75146 0.20389 0.42958 0.0
H363 H 0.72009 0.18505 0.44027 0.0
H364 H 0.71673 0.16998 0.4252 0.0
O365 O 0.85245 0.20244 0.454 0.0
O366 O 0.88358 0.14902 0.45536 0.0
H367 H 0.84422 0.06074 0.43423 0.0
H368 H 0.8106 0.05445 0.42266 0.0
C369 C 0.81408 0.06012 0.43217 0.0
H370 H 0.80065 0.0371 0.43707 0.0
H371 H 0.9179 0.07416 0.45063 0.0
O372 O 0.76838 0.233 0.45226 0.0
C373 C 0.88311 0.18441 0.45428 0.0
Co374 Co 0.56572 0.04819 0.20491 0.0
Co375 Co 0.64251 0.08885 0.20776 0.0
C376 C 0.60938 0.046 0.2276 0.0
O377 O 0.58115 0.03793 0.22134 0.0
O378 O 0.63595 0.06552 0.22347 0.0
C379 C 0.51518 0.98723 0.20738 0.0
O380 O 0.5407 0.97506 0.2147 0.0
C381 C 0.72281 0.09615 0.21141 0.0
C382 C 0.73733 0.14272 0.1996 0.0
C383 C 0.7528 0.11562 0.20676 0.0
N384 N 0.69124 0.11021 0.20689 0.0
N385 N 0.70003 0.1387 0.20007 0.0
C386 C 0.72375 0.06433 0.21992 0.0
H387 H 0.71058 0.03937 0.21594 0.0
H388 H 0.75246 0.0577 0.22283 0.0
H389 H 0.70717 0.072 0.22774 0.0
C390 C 0.60533 0.01375 0.18472 0.0
N391 N 0.60426 0.03632 0.19418 0.0
N392 N 0.63685 0.05262 0.19547 0.0
C393 C 0.65995 0.04034 0.18695 0.0
C394 C 0.64071 0.01553 0.17978 0.0
C395 C 0.57228 0.99291 0.18015 0.0
H396 H 0.5471 0.01078 0.18068 0.0
H397 H 0.56751 0.96795 0.1857 0.0
H398 H 0.57645 0.98395 0.17093 0.0
O399 O 0.55162 0.10136 0.20335 0.0
O400 O 0.60572 0.13035 0.20584 0.0
H401 H 0.70308 0.08042 0.18396 0.0
H402 H 0.71534 0.03365 0.17945 0.0
C403 C 0.70035 0.0504 0.18611 0.0
H404 H 0.71387 0.0451 0.19464 0.0
H405 H 0.6807 0.15405 0.19523 0.0
O406 O 0.52064 0.01764 0.20191 0.0
C407 C 0.57063 0.13127 0.20407 0.0
Co408 Co 0.71041 0.1887 0.58309 0.0
Co409 Co 0.66751 0.11269 0.58113 0.0
C410 C 0.712 0.14227 0.56103 0.0
O411 O 0.72204 0.17053 0.567 0.0
O412 O 0.69034 0.11768 0.56531 0.0
C413 C 0.77072 0.24045 0.58013 0.0
O414 O 0.78271 0.2155 0.57259 0.0
C415 C 0.65887 0.03206 0.57803 0.0
C416 C 0.61052 0.01978 0.58939 0.0
C417 C 0.63743 1.00303 0.58243 0.0
N418 N 0.64544 0.06435 0.58229 0.0
N419 N 0.61605 0.05689 0.58886 0.0
C420 C 0.69457 0.02905 0.57128 0.0
H421 H 0.71254 0.05362 0.57297 0.0
H422 H 0.70995 1.00331 0.57368 0.0
H423 H 0.68812 0.02803 0.56177 0.0
C424 C 0.74359 0.15049 0.60375 0.0
N425 N 0.72092 0.15121 0.59433 0.0
N426 N 0.70372 0.11892 0.59339 0.0
C427 C 0.71533 0.09643 0.60216 0.0
C428 C 0.74083 0.11572 0.60908 0.0
C429 C 0.76574 0.18333 0.60786 0.0
H430 H 0.74852 0.20896 0.60728 0.0
H431 H 0.79025 0.18698 0.60204 0.0
H432 H 0.77542 0.17968 0.61702 0.0
O433 O 0.65714 0.20391 0.58412 0.0
O434 O 0.62677 0.15016 0.5827 0.0
H435 H 0.67361 0.05499 0.60534 0.0
H436 H 0.71943 0.04191 0.61049 0.0
C437 C 0.70389 0.05648 0.60347 0.0
H438 H 0.70957 0.04154 0.59519 0.0
H439 H 0.60093 0.07698 0.59347 0.0
O440 O 0.74099 0.23411 0.58587 0.0
C441 C 0.62675 0.18555 0.58381 0.0
Co442 Co 0.56834 0.96022 0.33501 0.0
Co443 Co 0.64423 0.91839 0.33208 0.0
C444 C 0.61015 0.96155 0.31224 0.0
O445 O 0.58232 0.97043 0.31855 0.0
O446 O 0.63647 0.94166 0.31636 0.0
C447 C 0.51778 0.02127 0.3331 0.0
O448 O 0.54313 0.03409 0.32583 0.0
C449 C 0.72471 0.91608 0.32932 0.0
C450 C 0.73985 0.86211 0.33737 0.0
C451 C 0.75494 0.89432 0.33262 0.0
N452 N 0.69332 0.89812 0.33232 0.0
N453 N 0.70247 0.86553 0.33692 0.0
C454 C 0.72519 0.9532 0.32327 0.0
H455 H 0.70614 0.95246 0.31565 0.0
H456 H 0.71481 0.97507 0.32933 0.0
H457 H 0.75341 0.96062 0.32008 0.0
C458 C 0.6097 0.99659 0.35447 0.0
N459 N 0.60761 0.97248 0.34542 0.0
N460 N 0.63933 0.95427 0.34448 0.0
C461 C 0.66244 0.96593 0.35309 0.0
C462 C 0.64465 0.99341 0.3596 0.0
C463 C 0.5791 0.02284 0.35784 0.0
H464 H 0.55374 0.00664 0.36008 0.0
H465 H 0.57233 0.04089 0.35024 0.0
H466 H 0.58699 0.04079 0.36535 0.0
O467 O 0.55427 0.90677 0.33664 0.0
O468 O 0.60795 0.87691 0.33416 0.0
H469 H 0.69854 0.91836 0.35443 0.0
H470 H 0.70771 0.9543 0.36506 0.0
C471 C 0.69952 0.94888 0.35584 0.0
H472 H 0.72103 0.96116 0.35004 0.0
H473 H 0.68327 0.84636 0.34022 0.0
O474 O 0.52348 0.9905 0.33835 0.0
C475 C 0.57287 0.87654 0.33595 0.0
Co476 Co 0.79622 0.82032 0.0848 0.0
Co477 Co 0.83741 0.89661 0.08199 0.0
C478 C 0.79348 0.86451 0.06223 0.0
O479 O 0.78521 0.83625 0.06847 0.0
O480 O 0.81356 0.89074 0.06632 0.0
C481 C 0.73453 0.76986 0.08304 0.0
O482 O 0.72077 0.79545 0.07603 0.0
C483 C 0.84694 0.97714 0.07855 0.0
C484 C 0.89551 0.98892 0.08986 0.0
C485 C 0.86887 0.00592 0.08287 0.0
N486 N 0.85984 0.94476 0.08289 0.0
N487 N 0.88937 0.95191 0.08943 0.0
C488 C 0.81137 0.98056 0.07176 0.0
H489 H 0.79323 0.95603 0.07333 0.0
H490 H 0.79611 0.00631 0.07423 0.0
H491 H 0.81799 0.98195 0.06227 0.0
C492 C 0.76245 0.85983 0.1051 0.0
N493 N 0.7851 0.85865 0.09567 0.0
N494 N 0.8017 0.89112 0.09442 0.0
C495 C 0.78965 0.91424 0.10297 0.0
C496 C 0.76448 0.89516 0.11008 0.0
C497 C 0.7411 0.82695 0.10959 0.0
H498 H 0.75859 0.80151 0.10903 0.0
H499 H 0.71614 0.82267 0.10401 0.0
H500 H 0.73212 0.83104 0.1188 0.0
O501 O 0.84923 0.80539 0.08601 0.0
O502 O 0.87858 0.85928 0.08356 0.0
H503 H 0.83053 0.95679 0.10575 0.0
H504 H 0.78438 0.96949 0.11074 0.0
C505 C 0.8003 0.95452 0.10388 0.0
H506 H 0.79449 0.96847 0.09544 0.0
H507 H 0.90417 0.9317 0.09408 0.0
O508 O 0.76588 0.7754 0.08792 0.0
C509 C 0.87927 0.82409 0.08518 0.0
Co510 Co 0.93843 0.04824 0.83371 0.0
Co511 Co 0.86234 0.09042 0.83161 0.0
C512 C 0.89359 0.04735 0.81138 0.0
O513 O 0.92222 0.03887 0.81738 0.0
O514 O 0.86747 0.06691 0.81579 0.0
C515 C 0.99017 0.98856 0.83029 0.0
O516 O 0.96533 0.97766 0.82257 0.0
C517 C 0.78158 0.09386 0.83001 0.0
C518 C 0.76853 0.15044 0.83646 0.0
C519 C 0.7524 0.11768 0.83254 0.0
N520 N 0.81369 0.11158 0.83229 0.0
N521 N 0.80578 0.14564 0.83598 0.0
C522 C 0.77901 0.05435 0.82587 0.0
H523 H 0.80558 0.03935 0.82746 0.0
H524 H 0.7557 0.03967 0.8303 0.0
H525 H 0.77322 0.0543 0.81631 0.0
C526 C 0.89888 0.01181 0.85354 0.0
N527 N 0.90014 0.03607 0.84452 0.0
N528 N 0.86844 0.0545 0.84396 0.0
C529 C 0.84624 0.04286 0.85281 0.0
C530 C 0.86455 0.01514 0.85908 0.0
C531 C 0.92966 0.98525 0.85648 0.0
H532 H 0.95469 1.00129 0.85915 0.0
H533 H 0.93706 0.96893 0.84856 0.0
H534 H 0.92166 0.96575 0.86359 0.0
O535 O 0.95301 0.10151 0.83536 0.0
O536 O 0.89932 0.13161 0.83325 0.0
H537 H 0.80984 0.09031 0.85413 0.0
H538 H 0.80303 0.0557 0.86538 0.0
C539 C 0.80952 0.05999 0.85596 0.0
H540 H 0.7872 0.04664 0.85073 0.0
H541 H 0.82574 0.16513 0.83856 0.0
O542 O 0.98376 0.01751 0.83642 0.0
C543 C 0.93452 0.13183 0.83481 0.0
Co544 Co 0.79746 0.69046 0.58329 0.0
Co545 Co 0.83874 0.61359 0.58133 0.0
C546 C 0.7959 0.64497 0.56106 0.0
O547 O 0.78715 0.67348 0.5671 0.0
O548 O 0.8159 0.61905 0.5654 0.0
C549 C 0.73692 0.74158 0.58036 0.0
O550 O 0.72485 0.71595 0.57306 0.0
C551 C 0.84552 0.53275 0.57836 0.0
C552 C 0.89457 0.51965 0.58931 0.0
C553 C 0.86681 0.50335 0.5826 0.0
N554 N 0.85987 0.56481 0.58246 0.0
N555 N 0.88964 0.55686 0.5888 0.0
C556 C 0.80932 0.53038 0.57187 0.0
H557 H 0.79206 0.55546 0.57358 0.0
H558 H 0.79355 0.50508 0.57447 0.0
H559 H 0.81511 0.52883 0.56232 0.0
C560 C 0.76261 0.65246 0.60372 0.0
N561 N 0.78562 0.65279 0.59436 0.0
N562 N 0.80254 0.62031 0.59354 0.0
C563 C 0.7907 0.59823 0.60239 0.0
C564 C 0.76505 0.61785 0.60916 0.0
C565 C 0.74055 0.68553 0.60771 0.0
H566 H 0.75834 0.71081 0.60747 0.0
H567 H 0.71695 0.68999 0.60158 0.0
H568 H 0.72954 0.68165 0.61671 0.0
O569 O 0.85077 0.70476 0.58443 0.0
O570 O 0.88028 0.65041 0.58318 0.0
H571 H 0.83315 0.55746 0.60549 0.0
H572 H 0.78827 0.54497 0.61153 0.0
C573 C 0.80262 0.55855 0.60407 0.0
H574 H 0.79587 0.54245 0.59608 0.0
H575 H 0.90553 0.57671 0.59324 0.0
O576 O 0.76704 0.736 0.58597 0.0
C577 C 0.88084 0.68584 0.58424 0.0
Co578 Co 0.56882 0.54563 0.8326 0.0
Co579 Co 0.64432 0.5892 0.83074 0.0
C580 C 0.6146 0.54426 0.8106 0.0
O581 O 0.58675 0.53337 0.81659 0.0
O582 O 0.63854 0.56659 0.81489 0.0
C583 C 0.51818 0.48458 0.83005 0.0
O584 O 0.54374 0.47221 0.82278 0.0
C585 C 0.72453 0.59591 0.82721 0.0
C586 C 0.73939 0.6431 0.83873 0.0
C587 C 0.75466 0.61543 0.83174 0.0
N588 N 0.69306 0.61049 0.83165 0.0
N589 N 0.70204 0.63932 0.83829 0.0
C590 C 0.72527 0.56339 0.81896 0.0
H591 H 0.71168 0.53896 0.82312 0.0
H592 H 0.75396 0.55611 0.81618 0.0
H593 H 0.70901 0.57052 0.811 0.0
C594 C 0.60703 0.51288 0.85336 0.0
N595 N 0.60625 0.53547 0.8439 0.0
N596 N 0.63847 0.55272 0.84294 0.0
C597 C 0.661 0.54119 0.8517 0.0
C598 C 0.64179 0.51574 0.85867 0.0
C599 C 0.57426 0.49074 0.85752 0.0
H600 H 0.54861 0.50788 0.85689 0.0
H601 H 0.57072 0.46603 0.85178 0.0
H602 H 0.5779 0.48132 0.86671 0.0
O603 O 0.5535 0.599 0.83327 0.0
O604 O 0.60711 0.62998 0.83272 0.0
H605 H 0.7025 0.58277 0.85493 0.0
H606 H 0.71564 0.53671 0.85989 0.0
C607 C 0.70095 0.55255 0.85295 0.0
H608 H 0.71566 0.54713 0.84462 0.0
H609 H 0.68282 0.65513 0.84303 0.0
O610 O 0.52368 0.51502 0.8355 0.0
C611 C 0.57163 0.62957 0.8334 0.0
Co612 Co 0.70982 0.31799 0.08387 0.0
Co613 Co 0.66963 0.39512 0.08134 0.0
C614 C 0.71168 0.36241 0.06127 0.0
O615 O 0.71969 0.3339 0.06743 0.0
O616 O 0.6925 0.38905 0.06554 0.0
C617 C 0.77069 0.2675 0.08112 0.0
O618 O 0.78285 0.29343 0.07394 0.0
C619 C 0.66203 0.47557 0.0779 0.0
C620 C 0.61606 0.48976 0.08998 0.0
C621 C 0.64266 0.50543 0.08268 0.0
N622 N 0.64838 0.44386 0.08246 0.0
N623 N 0.62025 0.45245 0.08944 0.0
C624 C 0.69334 0.47676 0.06922 0.0
H625 H 0.71849 0.46342 0.07301 0.0
H626 H 0.69981 0.50558 0.06635 0.0
H627 H 0.68522 0.46042 0.06139 0.0
C628 C 0.74533 0.35689 0.10403 0.0
N629 N 0.72229 0.35615 0.09469 0.0
N630 N 0.70618 0.38892 0.09352 0.0
C631 C 0.71908 0.41181 0.10201 0.0
C632 C 0.74412 0.39226 0.10903 0.0
C633 C 0.76621 0.32359 0.10843 0.0
H634 H 0.74833 0.29843 0.10784 0.0
H635 H 0.79105 0.31901 0.10281 0.0
H636 H 0.77534 0.32739 0.11764 0.0
O637 O 0.65662 0.30405 0.08552 0.0
O638 O 0.62799 0.35846 0.08318 0.0
H639 H 0.67966 0.45538 0.10529 0.0
H640 H 0.72684 0.46717 0.10944 0.0
C641 C 0.70947 0.45235 0.10291 0.0
H642 H 0.7142 0.46584 0.09434 0.0
H643 H 0.60525 0.43298 0.09433 0.0
O644 O 0.74029 0.27266 0.08662 0.0
C645 C 0.62684 0.32331 0.08487 0.0
Co646 Co 0.93812 0.46135 0.33414 0.0
Co647 Co 0.86209 0.41979 0.33119 0.0
C648 C 0.89453 0.46374 0.31146 0.0
O649 O 0.92261 0.47217 0.31775 0.0
O650 O 0.86828 0.44361 0.31552 0.0
C651 C 0.989 0.52283 0.33235 0.0
O652 O 0.96383 0.53646 0.32517 0.0
C653 C 0.78166 0.41003 0.32765 0.0
C654 C 0.76995 0.36129 0.33892 0.0
C655 C 0.75293 0.38799 0.33195 0.0
N656 N 0.81403 0.39715 0.33199 0.0
N657 N 0.80691 0.36751 0.3385 0.0
C658 C 0.7782 0.44567 0.32088 0.0
H659 H 0.80278 0.46376 0.3224 0.0
H660 H 0.75255 0.46098 0.32341 0.0
H661 H 0.7766 0.43909 0.31139 0.0
C662 C 0.8979 0.49517 0.35433 0.0
N663 N 0.89945 0.47245 0.34491 0.0
N664 N 0.86714 0.45562 0.34361 0.0
C665 C 0.84378 0.46755 0.35211 0.0
C666 C 0.86251 0.4929 0.35924 0.0
C667 C 0.93049 0.51685 0.35885 0.0
H668 H 0.95601 0.49945 0.35842 0.0
H669 H 0.93484 0.54167 0.3532 0.0
H670 H 0.92605 0.52608 0.36802 0.0
O671 O 0.95312 0.40832 0.33544 0.0
O672 O 0.89946 0.37871 0.3329 0.0
H673 H 0.80148 0.42631 0.35475 0.0
H674 H 0.78842 0.4723 0.35981 0.0
C675 C 0.80359 0.45662 0.35295 0.0
H676 H 0.78974 0.46256 0.34451 0.0
H677 H 0.82712 0.35271 0.34315 0.0
O678 O 0.98301 0.49173 0.33736 0.0
C679 C 0.93457 0.37816 0.33461 0.0
Co680 Co 0.79618 0.32033 0.95368 0.0
Co681 Co 0.83781 0.3963 0.9566 0.0
C682 C 0.79423 0.36395 0.97639 0.0
O683 O 0.78577 0.33588 0.9701 0.0
O684 O 0.81421 0.39029 0.97231 0.0
C685 C 0.73482 0.26969 0.95577 0.0
O686 O 0.72235 0.29426 0.96335 0.0
C687 C 0.8482 0.47667 0.96011 0.0
C688 C 0.8968 0.48803 0.94875 0.0
C689 C 0.87041 0.50525 0.95578 0.0
N690 N 0.86072 0.4442 0.95572 0.0
N691 N 0.89026 0.45109 0.94915 0.0
C692 C 0.81275 0.48038 0.96695 0.0
H693 H 0.79445 0.45594 0.96545 0.0
H694 H 0.79761 0.50619 0.96447 0.0
H695 H 0.8195 0.48186 0.97643 0.0
C696 C 0.76245 0.36043 0.93351 0.0
N697 N 0.78513 0.35899 0.94292 0.0
N698 N 0.80188 0.39136 0.94422 0.0
C699 C 0.78986 0.4147 0.93572 0.0
C700 C 0.76457 0.39585 0.92859 0.0
C701 C 0.74108 0.32765 0.92896 0.0
H702 H 0.75866 0.30224 0.9294 0.0
H703 H 0.71625 0.32311 0.93458 0.0
H704 H 0.73194 0.33199 0.91978 0.0
O705 O 0.84902 0.30504 0.9523 0.0
O706 O 0.87867 0.35869 0.9549 0.0
H707 H 0.83091 0.45708 0.93294 0.0
H708 H 0.78473 0.47013 0.92809 0.0
C709 C 0.80071 0.45494 0.93487 0.0
H710 H 0.79516 0.46873 0.94335 0.0
H711 H 0.90479 0.43076 0.94446 0.0
O712 O 0.76535 0.27581 0.95045 0.0
C713 C 0.87916 0.32356 0.95316 0.0
Co714 Co 0.9413 0.54658 0.20414 0.0
Co715 Co 0.86469 0.58802 0.20629 0.0
C716 C 0.89652 0.54544 0.22653 0.0
O717 O 0.92479 0.53643 0.22042 0.0
O718 O 0.87061 0.56548 0.22221 0.0
C719 C 0.99178 0.48566 0.20698 0.0
O720 O 0.96597 0.47359 0.21421 0.0
C721 C 0.78429 0.59537 0.20963 0.0
C722 C 0.77015 0.64201 0.19779 0.0
C723 C 0.75446 0.61496 0.20492 0.0
N724 N 0.81599 0.60934 0.20518 0.0
N725 N 0.80744 0.63785 0.19834 0.0
C726 C 0.78308 0.56355 0.21813 0.0
H727 H 0.79667 0.53868 0.21423 0.0
H728 H 0.75426 0.55673 0.2209 0.0
H729 H 0.79916 0.57133 0.22604 0.0
C730 C 0.90273 0.51178 0.18376 0.0
N731 N 0.90341 0.53475 0.19313 0.0
N732 N 0.87083 0.55128 0.19418 0.0
C733 C 0.84817 0.53886 0.18557 0.0
C734 C 0.86766 0.5136 0.1786 0.0
C735 C 0.93585 0.49034 0.17949 0.0
H736 H 0.96116 0.50799 0.18006 0.0
H737 H 0.94007 0.46568 0.18522 0.0
H738 H 0.93213 0.48085 0.17031 0.0
O739 O 0.95582 0.5998 0.2029 0.0
O740 O 0.90155 0.62937 0.2042 0.0
H741 H 0.80557 0.57928 0.18226 0.0
H742 H 0.79325 0.53258 0.17771 0.0
C743 C 0.80791 0.54926 0.18445 0.0
H744 H 0.79376 0.54418 0.1929 0.0
H745 H 0.82692 0.65318 0.19355 0.0
O746 O 0.98651 0.51595 0.20142 0.0
C747 C 0.93692 0.62989 0.20306 0.0
Co748 Co 0.70583 0.68902 0.4541 0.0
Co749 Co 0.66631 0.61176 0.45686 0.0
C750 C 0.7108 0.64438 0.47649 0.0
O751 O 0.71846 0.67292 0.47029 0.0
O752 O 0.69069 0.61812 0.47244 0.0
C753 C 0.76746 0.74008 0.45455 0.0
O754 O 0.78496 0.71237 0.4597 0.0
C755 C 0.66003 0.53088 0.46031 0.0
C756 C 0.61156 0.51713 0.44918 0.0
C757 C 0.63917 0.50122 0.45604 0.0
N758 N 0.64563 0.56273 0.45604 0.0
N759 N 0.61616 0.55438 0.44961 0.0
C760 C 0.69601 0.52889 0.46694 0.0
H761 H 0.71324 0.55394 0.46519 0.0
H762 H 0.71201 0.50357 0.4645 0.0
H763 H 0.68987 0.52768 0.47647 0.0
C764 C 0.73969 0.65061 0.4335 0.0
N765 N 0.71743 0.65125 0.44303 0.0
N766 N 0.70145 0.61845 0.44429 0.0
C767 C 0.71355 0.5957 0.43564 0.0
C768 C 0.73805 0.61534 0.42846 0.0
C769 C 0.7604 0.68384 0.42897 0.0
H770 H 0.74312 0.70927 0.42999 0.0
H771 H 0.78625 0.68754 0.43418 0.0
H772 H 0.76797 0.68039 0.4196 0.0
O773 O 0.65237 0.70223 0.45315 0.0
O774 O 0.62382 0.64785 0.45544 0.0
H775 H 0.67347 0.55229 0.43304 0.0
H776 H 0.71954 0.54068 0.42775 0.0
C777 C 0.70375 0.5552 0.43473 0.0
H778 H 0.71046 0.54125 0.4431 0.0
H779 H 0.60037 0.57397 0.44502 0.0
O780 O 0.7341 0.73543 0.45111 0.0
C781 C 0.62261 0.68308 0.45392 0.0
Co782 Co 0.56868 0.46245 0.70427 0.0
Co783 Co 0.64445 0.41908 0.70569 0.0
C784 C 0.61508 0.4619 0.72626 0.0
O785 O 0.58673 0.47241 0.72043 0.0
O786 O 0.63968 0.44069 0.72175 0.0
C787 C 0.51621 0.52173 0.70798 0.0
O788 O 0.54057 0.53246 0.71587 0.0
C789 C 0.72507 0.4126 0.70798 0.0
C790 C 0.73753 0.36178 0.69774 0.0
C791 C 0.75414 0.39068 0.70388 0.0
N792 N 0.69282 0.39746 0.70439 0.0
N793 N 0.70037 0.3667 0.69846 0.0
C794 C 0.72781 0.44969 0.71394 0.0
H795 H 0.70248 0.46658 0.71221 0.0
H796 H 0.75283 0.46513 0.71092 0.0
H797 H 0.73019 0.44522 0.72354 0.0
C798 C 0.60768 0.49972 0.68448 0.0
N799 N 0.60631 0.47454 0.69326 0.0
N800 N 0.63821 0.45644 0.69377 0.0
C801 C 0.66082 0.46953 0.68524 0.0
C802 C 0.64239 0.49755 0.67914 0.0
C803 C 0.57686 0.52639 0.68171 0.0
H804 H 0.55136 0.51047 0.67944 0.0
H805 H 0.57054 0.54331 0.6896 0.0
H806 H 0.58426 0.54529 0.67437 0.0
O807 O 0.55359 0.40906 0.70272 0.0
O808 O 0.60727 0.37848 0.70383 0.0
H809 H 0.70819 0.46318 0.67363 0.0
H810 H 0.7189 0.46441 0.68903 0.0
C811 C 0.69863 0.45426 0.68245 0.0
H812 H 0.69796 0.42341 0.68269 0.0
H813 H 0.68026 0.35004 0.69443 0.0
O814 O 0.52321 0.49318 0.70173 0.0
C815 C 0.57193 0.37859 0.70276 0.0
Co816 Co 0.21176 0.31931 0.45416 0.0
Co817 Co 0.17079 0.39629 0.45643 0.0
C818 C 0.21347 0.36492 0.47652 0.0
O819 O 0.22167 0.33627 0.47045 0.0
O820 O 0.19388 0.3912 0.47223 0.0
C821 C 0.27229 0.26816 0.45724 0.0
O822 O 0.28407 0.29358 0.46466 0.0
C823 C 0.16159 0.47709 0.4595 0.0
C824 C 0.1135 0.48883 0.44798 0.0
C825 C 0.1399 0.50588 0.45504 0.0
N826 N 0.14876 0.44465 0.45518 0.0
N827 N 0.11954 0.4518 0.4485 0.0
C828 C 0.19685 0.4805 0.46644 0.0
H829 H 0.21509 0.45599 0.46493 0.0
H830 H 0.21217 0.50628 0.46405 0.0
H831 H 0.18983 0.48178 0.47591 0.0
C832 C 0.24642 0.35767 0.4338 0.0
N833 N 0.22354 0.35713 0.44318 0.0
N834 N 0.20701 0.38975 0.44419 0.0
C835 C 0.2193 0.41229 0.43553 0.0
C836 C 0.24455 0.39269 0.42859 0.0
C837 C 0.26781 0.32444 0.42957 0.0
H838 H 0.25011 0.29916 0.43016 0.0
H839 H 0.2924 0.32021 0.43532 0.0
H840 H 0.27733 0.32805 0.42039 0.0
O841 O 0.15868 0.30485 0.45272 0.0
O842 O 0.12952 0.35906 0.45487 0.0
H843 H 0.17858 0.45467 0.43227 0.0
H844 H 0.22502 0.46706 0.42749 0.0
C845 C 0.20869 0.45251 0.43434 0.0
H846 H 0.21397 0.46695 0.44273 0.0
H847 H 0.10482 0.43154 0.44385 0.0
O848 O 0.24243 0.27393 0.45152 0.0
C849 C 0.12872 0.32382 0.45336 0.0
Co850 Co 0.43915 0.46212 0.20328 0.0
Co851 Co 0.36284 0.42106 0.20624 0.0
C852 C 0.39551 0.46462 0.22597 0.0
O853 O 0.42365 0.47288 0.21968 0.0
O854 O 0.36909 0.44474 0.2219 0.0
C855 C 0.48997 0.52359 0.20505 0.0
O856 O 0.46476 0.53722 0.21222 0.0
C857 C 0.28239 0.41113 0.20977 0.0
C858 C 0.27085 0.36253 0.19843 0.0
C859 C 0.25374 0.38904 0.20545 0.0
N860 N 0.31479 0.39845 0.20539 0.0
N861 N 0.30779 0.36889 0.19884 0.0
C862 C 0.27881 0.44662 0.21662 0.0
H863 H 0.30337 0.46478 0.21515 0.0
H864 H 0.25316 0.46194 0.2141 0.0
H865 H 0.27712 0.43983 0.22609 0.0
C866 C 0.39921 0.49609 0.1831 0.0
N867 N 0.40057 0.47342 0.19252 0.0
N868 N 0.36812 0.45688 0.19384 0.0
C869 C 0.34484 0.46898 0.18535 0.0
C870 C 0.36379 0.49411 0.1782 0.0
C871 C 0.432 0.51739 0.17853 0.0
H872 H 0.45738 0.4998 0.17901 0.0
H873 H 0.43651 0.54232 0.18411 0.0
H874 H 0.42769 0.52643 0.16933 0.0
O875 O 0.45393 0.40906 0.20196 0.0
O876 O 0.40002 0.37992 0.20454 0.0
H877 H 0.30219 0.42818 0.18264 0.0
H878 H 0.28944 0.47445 0.17776 0.0
C879 C 0.30456 0.4584 0.18455 0.0
H880 H 0.29087 0.46412 0.19303 0.0
H881 H 0.32804 0.35423 0.19416 0.0
O882 O 0.48406 0.49243 0.20007 0.0
C883 C 0.43512 0.37908 0.20282 0.0
Co884 Co 0.30072 0.68874 0.95393 0.0
Co885 Co 0.34146 0.61227 0.9565 0.0
C886 C 0.29655 0.64464 0.97624 0.0
O887 O 0.28864 0.67314 0.9701 0.0
O888 O 0.31661 0.61847 0.97209 0.0
C889 C 0.23904 0.73923 0.95484 0.0
O890 O 0.22173 0.71084 0.95968 0.0
C891 C 0.34234 0.53143 0.95816 0.0
C892 C 0.40001 0.51677 0.9532 0.0
C893 C 0.36594 0.50155 0.95626 0.0
N894 N 0.36139 0.56305 0.95625 0.0
N895 N 0.39604 0.55418 0.95344 0.0
C896 C 0.30219 0.53006 0.96168 0.0
H897 H 0.28845 0.55731 0.96006 0.0
H898 H 0.28734 0.50765 0.95689 0.0
H899 H 0.30045 0.52359 0.97118 0.0
C900 C 0.26582 0.64964 0.93363 0.0
N901 N 0.28899 0.65075 0.94294 0.0
N902 N 0.30697 0.61881 0.94375 0.0
C903 C 0.29612 0.59661 0.9348 0.0
C904 C 0.26934 0.6151 0.92822 0.0
C905 C 0.23997 0.68065 0.93032 0.0
H906 H 0.25587 0.70708 0.9296 0.0
H907 H 0.2189 0.68417 0.93734 0.0
H908 H 0.22524 0.67503 0.92198 0.0
O909 O 0.35429 0.70212 0.95281 0.0
O910 O 0.38369 0.64812 0.95509 0.0
H911 H 0.31031 0.55345 0.92238 0.0
H912 H 0.29845 0.53744 0.93679 0.0
C913 C 0.31314 0.55964 0.93187 0.0
H914 H 0.34307 0.55936 0.93421 0.0
H915 H 0.41666 0.57359 0.95136 0.0
O916 O 0.27227 0.73515 0.9512 0.0
C917 C 0.38435 0.68333 0.95353 0.0
Co918 Co 0.067 0.54857 0.70381 0.0
Co919 Co 0.14378 0.58933 0.70645 0.0
C920 C 0.11172 0.54555 0.72628 0.0
O921 O 0.08325 0.53747 0.72012 0.0
O922 O 0.13791 0.56552 0.72211 0.0
C923 C 0.01605 0.48767 0.70603 0.0
O924 O 0.0416 0.47476 0.71321 0.0
C925 C 0.22444 0.59713 0.70984 0.0
C926 C 0.23733 0.64578 0.69866 0.0
C927 C 0.25372 0.61854 0.70557 0.0
N928 N 0.19238 0.61089 0.70553 0.0
N929 N 0.20022 0.64045 0.69907 0.0
C930 C 0.22703 0.56127 0.71653 0.0
H931 H 0.20226 0.5436 0.71484 0.0
H932 H 0.25255 0.5456 0.71408 0.0
H933 H 0.22824 0.56757 0.72605 0.0
C934 C 0.10593 0.51452 0.68344 0.0
N935 N 0.10509 0.53715 0.69287 0.0
N936 N 0.13765 0.55362 0.69404 0.0
C937 C 0.16046 0.54153 0.68542 0.0
C938 C 0.1411 0.51647 0.67835 0.0
C939 C 0.0729 0.49324 0.67905 0.0
H940 H 0.04763 0.51098 0.67956 0.0
H941 H 0.06843 0.46852 0.68473 0.0
H942 H 0.07688 0.48388 0.66986 0.0
O943 O 0.05276 0.60181 0.70259 0.0
O944 O 0.10684 0.63097 0.70487 0.0
H945 H 0.20307 0.58234 0.68263 0.0
H946 H 0.21537 0.53631 0.67743 0.0
C947 C 0.20072 0.55203 0.6844 0.0
H948 H 0.21494 0.54579 0.69275 0.0
H949 H 0.18037 0.65585 0.69445 0.0
O950 O 0.02164 0.51844 0.70077 0.0
C951 C 0.07164 0.6318 0.70332 0.0
Co952 Co 0.20923 0.69104 0.08334 0.0
Co953 Co 0.16825 0.61429 0.08076 0.0
C954 C 0.21151 0.64636 0.06083 0.0
O955 O 0.21977 0.67481 0.06699 0.0
O956 O 0.19165 0.62015 0.06504 0.0
C957 C 0.27003 0.74198 0.08086 0.0
O958 O 0.2824 0.71654 0.07355 0.0
C959 C 0.16033 0.53361 0.07737 0.0
C960 C 0.11179 0.52072 0.08858 0.0
C961 C 0.13895 0.50432 0.08164 0.0
N962 N 0.14662 0.5657 0.08169 0.0
N963 N 0.11713 0.55787 0.08818 0.0
C964 C 0.19613 0.53101 0.07066 0.0
H965 H 0.21378 0.55582 0.07234 0.0
H966 H 0.2118 0.50549 0.0731 0.0
H967 H 0.1898 0.52979 0.06115 0.0
C968 C 0.24338 0.65197 0.10367 0.0
N969 N 0.22077 0.65283 0.09423 0.0
N970 N 0.2042 0.62029 0.09309 0.0
C971 C 0.21619 0.59748 0.10173 0.0
C972 C 0.24128 0.61682 0.10878 0.0
C973 C 0.26465 0.68503 0.10806 0.0
H974 H 0.2469 0.71031 0.10757 0.0
H975 H 0.2893 0.68954 0.10236 0.0
H976 H 0.27406 0.68103 0.11723 0.0
O977 O 0.1561 0.70542 0.08475 0.0
O978 O 0.12682 0.65135 0.08249 0.0
H979 H 0.17515 0.55514 0.1046 0.0
H980 H 0.2211 0.54261 0.10978 0.0
C981 C 0.20544 0.55727 0.1028 0.0
H982 H 0.21153 0.54288 0.09446 0.0
H983 H 0.10178 0.57774 0.09281 0.0
O984 O 0.23963 0.73633 0.08631 0.0
C985 C 0.12609 0.68657 0.0841 0.0
Co986 Co 0.0705 0.46111 0.83366 0.0
Co987 Co 0.1461 0.4185 0.83099 0.0
C988 C 0.11369 0.46185 0.811 0.0
O989 O 0.08561 0.47075 0.81722 0.0
O990 O 0.13985 0.44186 0.8152 0.0
C991 C 0.01852 0.52141 0.83117 0.0
O992 O 0.0427 0.53354 0.82341 0.0
C993 C 0.2265 0.41225 0.82807 0.0
C994 C 0.2393 0.35947 0.83723 0.0
C995 C 0.25569 0.38945 0.83155 0.0
N996 N 0.1944 0.39658 0.83157 0.0
N997 N 0.20214 0.36468 0.83685 0.0
C998 C 0.22902 0.45041 0.8228 0.0
H999 H 0.20357 0.46679 0.82481 0.0
H1000 H 0.25393 0.46541 0.82611 0.0
H1001 H 0.23153 0.44777 0.81314 0.0
C1002 C 0.11185 0.49748 0.85314 0.0
N1003 N 0.10962 0.47306 0.84417 0.0
N1004 N 0.14129 0.45474 0.84328 0.0
C1005 C 0.16457 0.46674 0.85179 0.0
C1006 C 0.14686 0.49444 0.85824 0.0
C1007 C 0.0814 0.5241 0.85635 0.0
H1008 H 0.0564 0.50813 0.8591 0.0
H1009 H 0.07371 0.54079 0.84854 0.0
H1010 H 0.08989 0.54331 0.86349 0.0
O1011 O 0.0556 0.40793 0.83534 0.0
O1012 O 0.10899 0.37763 0.83293 0.0
H1013 H 0.20084 0.4195 0.85345 0.0
H1014 H 0.2115 0.45711 0.86333 0.0
C1015 C 0.20202 0.45021 0.85433 0.0
H1016 H 0.22265 0.46135 0.84801 0.0
H1017 H 0.18218 0.34735 0.84066 0.0
O1018 O 0.02554 0.49169 0.83685 0.0
C1019 C 0.07391 0.37754 0.83468 0.0
Co1020 Co 0.29725 0.31946 0.58375 0.0
Co1021 Co 0.33826 0.39636 0.58134 0.0
C1022 C 0.29525 0.36472 0.56134 0.0
O1023 O 0.28703 0.33615 0.56745 0.0
O1024 O 0.31499 0.39094 0.56559 0.0
C1025 C 0.23687 0.26801 0.58085 0.0
O1026 O 0.22504 0.2931 0.57333 0.0
C1027 C 0.34684 0.4771 0.5781 0.0
C1028 C 0.39508 0.48941 0.58949 0.0
C1029 C 0.36834 0.50614 0.58248 0.0
N1030 N 0.36009 0.44483 0.58243 0.0
N1031 N 0.38941 0.45232 0.58903 0.0
C1032 C 0.31135 0.48012 0.57126 0.0
H1033 H 0.29337 0.4555 0.57286 0.0
H1034 H 0.29585 0.5058 0.57366 0.0
H1035 H 0.31808 0.48134 0.56177 0.0
C1036 C 0.2626 0.35831 0.60405 0.0
N1037 N 0.28556 0.35751 0.59469 0.0
N1038 N 0.30217 0.39006 0.59362 0.0
C1039 C 0.28989 0.4128 0.60223 0.0
C1040 C 0.26454 0.39342 0.60919 0.0
C1041 C 0.24097 0.3253 0.60829 0.0
H1042 H 0.25863 0.29994 0.60785 0.0
H1043 H 0.2166 0.32096 0.60246 0.0
H1044 H 0.2311 0.32922 0.61742 0.0
O1045 O 0.3504 0.30503 0.58513 0.0
O1046 O 0.37958 0.35919 0.58292 0.0
H1047 H 0.33076 0.45517 0.60528 0.0
H1048 H 0.28458 0.46766 0.61027 0.0
C1049 C 0.30056 0.45302 0.60336 0.0
H1050 H 0.29484 0.46741 0.59499 0.0
H1051 H 0.40441 0.43225 0.59368 0.0
O1052 O 0.2667 0.27409 0.58656 0.0
C1053 C 0.38038 0.32395 0.58446 0.0
Co1054 Co 0.4409 0.54673 0.33352 0.0
Co1055 Co 0.364 0.58755 0.33105 0.0
C1056 C 0.39688 0.54597 0.3109 0.0
O1057 O 0.4252 0.53748 0.31706 0.0
O1058 O 0.37036 0.56523 0.31519 0.0
C1059 C 0.49132 0.48582 0.33063 0.0
O1060 O 0.46551 0.47395 0.32337 0.0
C1061 C 0.28359 0.59474 0.3276 0.0
C1062 C 0.26916 0.64113 0.3395 0.0
C1063 C 0.25364 0.61416 0.33231 0.0
N1064 N 0.3152 0.60872 0.33211 0.0
N1065 N 0.30646 0.63708 0.33899 0.0
C1066 C 0.28258 0.5631 0.31903 0.0
H1067 H 0.29598 0.53811 0.32293 0.0
H1068 H 0.25383 0.55641 0.31618 0.0
H1069 H 0.29893 0.57099 0.31118 0.0
C1070 C 0.40181 0.51123 0.35361 0.0
N1071 N 0.4026 0.53422 0.34425 0.0
N1072 N 0.36997 0.55061 0.34312 0.0
C1073 C 0.34714 0.53799 0.35166 0.0
C1074 C 0.36659 0.51283 0.35867 0.0
C1075 C 0.43503 0.49025 0.35801 0.0
H1076 H 0.46014 0.50819 0.3575 0.0
H1077 H 0.43974 0.46555 0.35234 0.0
H1078 H 0.43111 0.48086 0.3672 0.0
O1079 O 0.45492 0.59981 0.33537 0.0
O1080 O 0.40075 0.62899 0.33316 0.0
H1081 H 0.30427 0.57817 0.35495 0.0
H1082 H 0.29205 0.53133 0.35938 0.0
C1083 C 0.3068 0.54819 0.35271 0.0
H1084 H 0.29289 0.54319 0.34422 0.0
H1085 H 0.32583 0.65237 0.34383 0.0
O1086 O 0.48608 0.51603 0.33624 0.0
C1087 C 0.43588 0.62977 0.33487 0.0
H1088 H 0.25427 0.14392 0.12997 0.0
H1089 H 0.21878 0.05327 0.10784 0.0
H1090 H 0.22232 0.11542 0.14667 0.0
H1091 H 0.18555 0.02525 0.12431 0.0
H1092 H 0.17239 0.96161 0.15867 0.0
H1093 H 0.19886 0.99274 0.14163 0.0
H1094 H 0.16493 0.09944 0.15574 0.0
H1095 H 0.1403 0.06794 0.17314 0.0
C1096 C 0.23895 0.11823 0.12867 0.0
C1097 C 0.23897 0.10065 0.11769 0.0
C1098 C 0.2205 0.1019 0.1382 0.0
C1099 C 0.20146 0.06776 0.13692 0.0
C1100 C 0.20054 0.05104 0.12575 0.0
C1101 C 0.2193 0.06718 0.11628 0.0
C1102 C 0.1708 0.99174 0.15813 0.0
C1103 C 0.1548 0.01242 0.16727 0.0
C1104 C 0.18554 0.00965 0.14828 0.0
C1105 C 0.18416 0.04877 0.14724 0.0
C1106 C 0.16709 0.06937 0.15629 0.0
C1107 C 0.1526 0.05137 0.16621 0.0
H1108 H 0.18256 0.04639 0.37706 0.0
H1109 H 0.13709 0.94237 0.36452 0.0
H1110 H 0.21093 0.01375 0.39364 0.0
H1111 H 0.16392 0.91 0.38155 0.0
H1112 H 0.1894 0.89097 0.42349 0.0
H1113 H 0.15799 0.9182 0.40634 0.0
H1114 H 0.26393 0.95666 0.39322 0.0
H1115 H 0.29546 0.92787 0.40995 0.0
C1116 C 0.17856 0.01656 0.37787 0.0
C1117 C 0.15817 0.99682 0.36939 0.0
C1118 C 0.19462 0.99797 0.38738 0.0
C1119 C 0.18976 0.95939 0.38879 0.0
C1120 C 0.16798 0.93979 0.38063 0.0
C1121 C 0.15257 0.95831 0.37094 0.0
C1122 C 0.20597 0.90459 0.41681 0.0
C1123 C 0.2448 0.90781 0.41812 0.0
C1124 C 0.18802 0.92023 0.40705 0.0
C1125 C 0.20859 0.93983 0.39858 0.0
C1126 C 0.24746 0.94207 0.39972 0.0
C1127 C 0.26541 0.92577 0.40931 0.0
H1128 H 0.21127 0.92018 0.62945 0.0
H1129 H 0.31762 0.89225 0.61422 0.0
H1130 H 0.24243 0.94666 0.64645 0.0
H1131 H 0.34925 0.91675 0.6316 0.0
H1132 H 0.39273 0.00602 0.65751 0.0
H1133 H 0.36432 0.97376 0.64087 0.0
H1134 H 0.27593 0.93455 0.66352 0.0
H1135 H 0.30374 0.96824 0.67991 0.0
C1136 C 0.24142 0.91943 0.62983 0.0
C1137 C 0.26206 0.90468 0.62047 0.0
C1138 C 0.25938 0.9342 0.63965 0.0
C1139 C 0.29855 0.93403 0.64048 0.0
C1140 C 0.31914 0.91802 0.63123 0.0
C1141 C 0.30107 0.90357 0.62132 0.0
C1142 C 0.36744 0.99011 0.65888 0.0
C1143 C 0.35031 0.98955 0.66993 0.0
C1144 C 0.35117 0.97146 0.64938 0.0
C1145 C 0.31755 0.9516 0.65076 0.0
C1146 C 0.30129 0.95016 0.662 0.0
C1147 C 0.31732 0.96918 0.67143 0.0
H1148 H 0.32626 0.96017 0.87808 0.0
H1149 H 0.37002 0.06465 0.86531 0.0
H1150 H 0.29647 0.99288 0.89444 0.0
H1151 H 0.34176 0.09711 0.88211 0.0
H1152 H 0.31276 0.1128 0.92463 0.0
H1153 H 0.34649 0.08536 0.90795 0.0
H1154 H 0.24196 0.05339 0.89228 0.0
H1155 H 0.20822 0.08257 0.90856 0.0
C1156 C 0.32967 0.9901 0.87882 0.0
C1157 C 0.34984 0.00998 0.87031 0.0
C1158 C 0.3128 0.00871 0.88818 0.0
C1159 C 0.31669 0.04743 0.88942 0.0
C1160 C 0.33843 0.06719 0.88129 0.0
C1161 C 0.35467 0.04863 0.87175 0.0
C1162 C 0.29705 0.10045 0.91751 0.0
C1163 C 0.25792 0.09907 0.91798 0.0
C1164 C 0.31631 0.08475 0.90802 0.0
C1165 C 0.29671 0.06699 0.89896 0.0
C1166 C 0.25761 0.06658 0.89926 0.0
C1167 C 0.2384 0.08298 0.90859 0.0
H1168 H 0.79962 0.97652 0.86053 0.0
H1169 H 0.89655 0.00718 0.88066 0.0
H1170 H 0.77356 0.94466 0.87764 0.0
H1171 H 0.87069 0.97512 0.89783 0.0
H1172 H 0.78559 0.95827 0.92844 0.0
H1173 H 0.81642 0.9855 0.91132 0.0
H1174 H 0.78509 0.88949 0.8907 0.0
H1175 H 0.75409 0.86244 0.90788 0.0
C1176 C 0.81542 0.97614 0.86862 0.0
C1177 C 0.85008 0.99413 0.8693 0.0
C1178 C 0.80066 0.95773 0.87839 0.0
C1179 C 0.82008 0.95732 0.88909 0.0
C1180 C 0.85497 0.97512 0.88972 0.0
C1181 C 0.8699 0.99321 0.8799 0.0
C1182 C 0.78563 0.94293 0.92025 0.0
C1183 C 0.76767 0.90826 0.91945 0.0
C1184 C 0.80343 0.95838 0.91048 0.0
C1185 C 0.80322 0.93965 0.89965 0.0
C1186 C 0.78554 0.90469 0.8989 0.0
C1187 C 0.76808 0.88907 0.90873 0.0
H1188 H 0.82477 0.96288 0.66019 0.0
H1189 H 0.8672 0.06731 0.67344 0.0
H1190 H 0.79612 0.99574 0.64369 0.0
H1191 H 0.84012 0.09994 0.6565 0.0
H1192 H 0.81519 0.11959 0.6144 0.0
H1193 H 0.84702 0.09226 0.63146 0.0
H1194 H 0.74159 0.05243 0.64459 0.0
H1195 H 0.70963 0.0813 0.62795 0.0
C1196 C 0.82805 0.99284 0.65955 0.0
C1197 C 0.84762 0.01264 0.6682 0.0
C1198 C 0.81185 0.01155 0.65009 0.0
C1199 C 0.81578 0.05031 0.64891 0.0
C1200 C 0.83679 0.07001 0.65724 0.0
C1201 C 0.85233 0.05135 0.66688 0.0
C1202 C 0.79882 0.10565 0.62107 0.0
C1203 C 0.76002 0.10205 0.61979 0.0
C1204 C 0.817 0.08995 0.63077 0.0
C1205 C 0.7967 0.06995 0.63921 0.0
C1206 C 0.75785 0.06736 0.6381 0.0
C1207 C 0.73965 0.08371 0.62858 0.0
H1208 H 0.61548 0.99944 0.38162 0.0
H1209 H 0.70882 0.03342 0.36035 0.0
H1210 H 0.64291 0.03121 0.39858 0.0
H1211 H 0.73648 0.065 0.37726 0.0
H1212 H 0.7578 0.14603 0.40779 0.0
H1213 H 0.72554 0.11915 0.39082 0.0
H1214 H 0.69907 0.02119 0.41122 0.0
H1215 H 0.73107 0.04825 0.42812 0.0
C1216 C 0.64166 0.0141 0.38057 0.0
C1217 C 0.66002 0.01423 0.36971 0.0
C1218 C 0.6575 0.03201 0.39027 0.0
C1219 C 0.69186 0.05065 0.38926 0.0
C1220 C 0.70981 0.05128 0.3783 0.0
C1221 C 0.69414 0.03305 0.36865 0.0
C1222 C 0.74465 0.11897 0.40863 0.0
C1223 C 0.74674 0.09919 0.41923 0.0
C1224 C 0.72647 0.10347 0.39892 0.0
C1225 C 0.70973 0.06805 0.39968 0.0
C1226 C 0.7113 0.04868 0.41038 0.0
C1227 C 0.7298 0.06401 0.42003 0.0
H1228 H 0.67821 0.04677 0.16152 0.0
H1229 H 0.63474 0.94166 0.17386 0.0
H1230 H 0.70738 0.01503 0.1449 0.0
H1231 H 0.66252 0.91008 0.15682 0.0
H1232 H 0.69028 0.88945 0.11544 0.0
H1233 H 0.65761 0.91645 0.13238 0.0
H1234 H 0.7616 0.96097 0.14514 0.0
H1235 H 0.79445 0.93251 0.12861 0.0
C1236 C 0.67478 0.01688 0.16063 0.0
C1237 C 0.65482 0.99656 0.16908 0.0
C1238 C 0.69132 0.9988 0.15112 0.0
C1239 C 0.68742 0.96013 0.14967 0.0
C1240 C 0.66588 0.93995 0.15777 0.0
C1241 C 0.64993 0.958 0.16746 0.0
C1242 C 0.70617 0.90444 0.12199 0.0
C1243 C 0.74481 0.90937 0.12064 0.0
C1244 C 0.6875 0.91993 0.13163 0.0
C1245 C 0.70711 0.94109 0.13995 0.0
C1246 C 0.74582 0.94518 0.13875 0.0
C1247 C 0.76453 0.92907 0.12928 0.0
H1248 H 0.69043 0.6191 0.61396 0.0
H1249 H 0.79655 0.58773 0.62865 0.0
H1250 H 0.65876 0.59461 0.63135 0.0
H1251 H 0.76528 0.56141 0.64569 0.0
H1252 H 0.70439 0.54073 0.67932 0.0
H1253 H 0.73237 0.57441 0.66294 0.0
H1254 H 0.64296 0.53712 0.6404 0.0
H1255 H 0.61447 0.50473 0.65702 0.0
C1256 C 0.70692 0.60702 0.62095 0.0
C1257 C 0.74585 0.60494 0.61994 0.0
C1258 C 0.68882 0.59261 0.63086 0.0
C1259 C 0.70932 0.57573 0.63996 0.0
C1260 C 0.74844 0.57457 0.63899 0.0
C1261 C 0.76643 0.58924 0.62916 0.0
C1262 C 0.69063 0.54021 0.67087 0.0
C1263 C 0.65738 0.52024 0.66938 0.0
C1264 C 0.70675 0.55923 0.66145 0.0
C1265 C 0.69025 0.55828 0.65025 0.0
C1266 C 0.65631 0.53897 0.64888 0.0
C1267 C 0.63999 0.52027 0.65837 0.0
H1268 H 0.79453 0.43376 0.91015 0.0
H1269 H 0.69041 0.39009 0.92319 0.0
H1270 H 0.7617 0.46222 0.89361 0.0
H1271 H 0.65783 0.41697 0.90622 0.0
H1272 H 0.63785 0.44147 0.86426 0.0
H1273 H 0.66522 0.41015 0.8814 0.0
H1274 H 0.70525 0.51605 0.89413 0.0
H1275 H 0.67636 0.54751 0.87741 0.0
C1276 C 0.76463 0.4302 0.90946 0.0
C1277 C 0.74492 0.41029 0.91806 0.0
C1278 C 0.74595 0.44629 0.89998 0.0
C1279 C 0.70729 0.44192 0.89872 0.0
C1280 C 0.68768 0.42064 0.90702 0.0
C1281 C 0.70631 0.40521 0.91667 0.0
C1282 C 0.65184 0.45806 0.87085 0.0
C1283 C 0.65548 0.49684 0.86943 0.0
C1284 C 0.66757 0.44016 0.8806 0.0
C1285 C 0.68765 0.46073 0.88896 0.0
C1286 C 0.69028 0.49957 0.88771 0.0
C1287 C 0.67391 0.51749 0.87814 0.0
H1288 H 0.8182 0.38502 0.11458 0.0
H1289 H 0.7146 0.43041 0.12747 0.0
H1290 H 0.85107 0.41206 0.13148 0.0
H1291 H 0.74765 0.45885 0.14394 0.0
H1292 H 0.83162 0.54433 0.15996 0.0
H1293 H 0.80275 0.51209 0.1434 0.0
H1294 H 0.84564 0.40719 0.15607 0.0
H1295 H 0.87313 0.43932 0.17305 0.0
C1296 C 0.80245 0.40048 0.12106 0.0
C1297 C 0.76393 0.4061 0.11962 0.0
C1298 C 0.82125 0.41601 0.13068 0.0
C1299 C 0.8019 0.43787 0.13889 0.0
C1300 C 0.76327 0.44253 0.13763 0.0
C1301 C 0.74443 0.42641 0.12819 0.0
C1302 C 0.83473 0.51436 0.15925 0.0
C1303 C 0.85399 0.49423 0.1679 0.0
C1304 C 0.81835 0.49599 0.14977 0.0
C1305 C 0.82173 0.45718 0.14855 0.0
C1306 C 0.84268 0.43716 0.15684 0.0
C1307 C 0.85846 0.45552 0.1665 0.0
H1308 H 0.82523 0.46254 0.37772 0.0
H1309 H 0.86719 0.56728 0.36458 0.0
H1310 H 0.79569 0.49516 0.39411 0.0
H1311 H 0.83911 0.59975 0.38139 0.0
H1312 H 0.812 0.62212 0.42285 0.0
H1313 H 0.84461 0.59479 0.40594 0.0
H1314 H 0.74078 0.54899 0.39351 0.0
H1315 H 0.70798 0.57776 0.41 0.0
C1316 C 0.82822 0.49253 0.37837 0.0
C1317 C 0.84789 0.51247 0.36977 0.0
C1318 C 0.81148 0.51112 0.38776 0.0
C1319 C 0.81492 0.54994 0.38892 0.0
C1320 C 0.8361 0.56978 0.38066 0.0
C1321 C 0.85222 0.55122 0.37109 0.0
C1322 C 0.79611 0.60682 0.41637 0.0
C1323 C 0.75757 0.60152 0.41782 0.0
C1324 C 0.81476 0.59113 0.40675 0.0
C1325 C 0.79519 0.56945 0.39855 0.0
C1326 C 0.75652 0.56517 0.39981 0.0
C1327 C 0.73784 0.58148 0.40926 0.0
H1328 H 0.31879 0.387 0.42323 0.0
H1329 H 0.21422 0.42842 0.40983 0.0
H1330 H 0.35126 0.41366 0.40618 0.0
H1331 H 0.24683 0.45651 0.39319 0.0
H1332 H 0.32999 0.54363 0.37718 0.0
H1333 H 0.3014 0.51147 0.39381 0.0
H1334 H 0.34544 0.40673 0.38139 0.0
H1335 H 0.37263 0.43874 0.36434 0.0
C1336 C 0.30277 0.4015 0.4166 0.0
C1337 C 0.26409 0.40616 0.41792 0.0
C1338 C 0.32132 0.41679 0.4069 0.0
C1339 C 0.3015 0.43743 0.3985 0.0
C1340 C 0.26274 0.4411 0.39965 0.0
C1341 C 0.24417 0.4252 0.40918 0.0
C1342 C 0.33338 0.51371 0.37796 0.0
C1343 C 0.35289 0.49357 0.36936 0.0
C1344 C 0.31717 0.4954 0.38748 0.0
C1345 C 0.32101 0.45667 0.38879 0.0
C1346 C 0.34214 0.43665 0.38055 0.0
C1347 C 0.35775 0.45494 0.37085 0.0
H1348 H 0.3694 0.56833 0.17276 0.0
H1349 H 0.32603 0.46393 0.15981 0.0
H1350 H 0.34185 0.60086 0.15588 0.0
H1351 H 0.29699 0.49666 0.14335 0.0
H1352 H 0.21053 0.58079 0.12743 0.0
H1353 H 0.24284 0.55193 0.14399 0.0
H1354 H 0.3476 0.59456 0.1312 0.0
H1355 H 0.31544 0.62195 0.11422 0.0
C1356 C 0.35424 0.55235 0.16627 0.0
C1357 C 0.34937 0.5137 0.16766 0.0
C1358 C 0.33843 0.57095 0.15667 0.0
C1359 C 0.31702 0.55123 0.14844 0.0
C1360 C 0.31299 0.5125 0.14968 0.0
C1361 C 0.32943 0.49386 0.1591 0.0
C1362 C 0.24049 0.58379 0.12811 0.0
C1363 C 0.26059 0.60296 0.11943 0.0
C1364 C 0.25889 0.56744 0.13759 0.0
C1365 C 0.29766 0.57082 0.13877 0.0
C1366 C 0.31766 0.59162 0.13045 0.0
C1367 C 0.29928 0.60734 0.12079 0.0
H1368 H 0.1169 0.50227 0.8801 0.0
H1369 H 0.21183 0.53327 0.85908 0.0
H1370 H 0.14429 0.5341 0.89704 0.0
H1371 H 0.23968 0.56457 0.876 0.0
H1372 H 0.26374 0.64505 0.90624 0.0
H1373 H 0.23166 0.6185 0.88921 0.0
H1374 H 0.19788 0.52401 0.91017 0.0
H1375 H 0.22938 0.55102 0.92717 0.0
C1376 C 0.14346 0.51625 0.8791 0.0
C1377 C 0.16227 0.51548 0.86832 0.0
C1378 C 0.15932 0.53417 0.8888 0.0
C1379 C 0.19423 0.55183 0.88788 0.0
C1380 C 0.2126 0.55162 0.87698 0.0
C1381 C 0.19683 0.53352 0.86732 0.0
C1382 C 0.24896 0.6189 0.9072 0.0
C1383 C 0.24869 0.60018 0.918 0.0
C1384 C 0.2309 0.60351 0.89745 0.0
C1385 C 0.21213 0.56915 0.89833 0.0
C1386 C 0.21161 0.55073 0.90922 0.0
C1387 C 0.22984 0.56602 0.91893 0.0
H1388 H 0.19009 0.38851 0.61431 0.0
H1389 H 0.29454 0.42927 0.62797 0.0
H1390 H 0.15725 0.41599 0.63116 0.0
H1391 H 0.26157 0.45821 0.64441 0.0
H1392 H 0.17765 0.54665 0.65971 0.0
H1393 H 0.2066 0.5138 0.64326 0.0
H1394 H 0.16309 0.40948 0.65615 0.0
H1395 H 0.13562 0.44216 0.67303 0.0
C1396 C 0.206 0.40303 0.62096 0.0
C1397 C 0.24477 0.40727 0.61977 0.0
C1398 C 0.18724 0.41881 0.63054 0.0
C1399 C 0.20693 0.43951 0.63895 0.0
C1400 C 0.24577 0.44275 0.63794 0.0
C1401 C 0.26454 0.42636 0.62853 0.0
C1402 C 0.17446 0.51668 0.65908 0.0
C1403 C 0.15503 0.49684 0.66776 0.0
C1404 C 0.19086 0.49798 0.64965 0.0
C1405 C 0.18725 0.45917 0.64854 0.0
C1406 C 0.16619 0.43944 0.65686 0.0
C1407 C 0.15043 0.45812 0.66646 0.0
H1408 H 0.27625 0.17114 0.98585 0.0
H1409 H 0.17882 0.10632 0.99479 0.0
H1410 H 0.29735 0.16758 1.00626 0.0
H1411 H 0.19951 0.10395 1.01526 0.0
H1412 H 0.23245 0.17015 0.051 0.0
H1413 H 0.21258 0.16618 0.03052 0.0
H1414 H 0.31308 0.10614 0.02192 0.0
H1415 H 0.33262 0.10893 0.04254 0.0
C1416 C 0.25941 0.1561 0.99216 0.0
C1417 C 0.22583 0.13907 0.98873 0.0
C1418 C 0.27158 0.15395 1.00379 0.0
C1419 C 0.24999 0.1355 1.01225 0.0
C1420 C 0.21658 0.11829 1.00885 0.0
C1421 C 0.20485 0.11961 0.99716 0.0
C1422 C 0.25021 0.15588 0.04477 0.0
C1423 C 0.28413 0.13991 0.04836 0.0
C1424 C 0.23875 0.1535 0.03308 0.0
C1425 C 0.26137 0.1359 0.02471 0.0
C1426 C 0.29524 0.11985 0.02826 0.0
C1427 C 0.3063 0.12137 0.04003 0.0
H1428 H 0.16978 0.05411 0.29499 0.0
H1429 H 0.05948 0.0073 0.29885 0.0
H1430 H 0.17108 0.03377 0.27456 0.0
H1431 H 0.06094 0.98707 0.27849 0.0
H1432 H 0.05824 0.99885 0.23864 0.0
H1433 H 0.05988 0.01806 0.25907 0.0
H1434 H 0.17191 0.97532 0.26225 0.0
H1435 H 0.17047 0.95603 0.24165 0.0
C1436 C 0.14591 0.03934 0.29154 0.0
C1437 C 0.11449 0.0325 0.29861 0.0
C1438 C 0.14675 0.02756 0.27983 0.0
C1439 C 0.11604 0.00899 0.27489 0.0
C1440 C 0.08485 1.00176 0.28199 0.0
C1441 C 0.08412 0.01323 0.2937 0.0
C1442 C 0.08334 0.99355 0.24364 0.0
C1443 C 0.1142 0.97572 0.23848 0.0
C1444 C 0.08415 0.00439 0.2554 0.0
C1445 C 0.11591 0.99797 0.26231 0.0
C1446 C 0.14709 0.98079 0.25713 0.0
C1447 C 0.14618 0.9696 0.24535 0.0
H1448 H 0.27624 0.84253 0.55172 0.0
H1449 H 0.17487 0.9021 0.54355 0.0
H1450 H 0.29543 0.84668 0.53117 0.0
H1451 H 0.19373 0.90508 0.52287 0.0
H1452 H 0.22842 0.84035 0.48682 0.0
H1453 H 0.20859 0.84461 0.50733 0.0
H1454 H 0.30778 0.90714 0.51559 0.0
H1455 H 0.32722 0.90402 0.495 0.0
C1456 C 0.25811 0.85656 0.54554 0.0
C1457 C 0.22401 0.87193 0.54923 0.0
C1458 C 0.26919 0.85904 0.53381 0.0
C1459 C 0.24599 0.87615 0.5255 0.0
C1460 C 0.21202 0.89175 0.52916 0.0
C1461 C 0.20135 0.89013 0.54096 0.0
C1462 C 0.24584 0.85529 0.49299 0.0
C1463 C 0.27943 0.87177 0.48931 0.0
C1464 C 0.23439 0.85786 0.50468 0.0
C1465 C 0.25671 0.87619 0.51297 0.0
C1466 C 0.29014 0.89288 0.50933 0.0
C1467 C 0.30116 0.89114 0.49756 0.0
H1468 H 0.44745 1.00335 0.79976 0.0
H1469 H 0.3369 0.95714 0.79583 0.0
H1470 H 0.44623 0.02397 0.77946 0.0
H1471 H 0.33592 0.97778 0.77537 0.0
H1472 H 0.33772 0.05566 0.7425 0.0
H1473 H 0.3357 0.03621 0.76305 0.0
H1474 H 0.44767 0.99313 0.76008 0.0
H1475 H 0.44988 0.01251 0.73967 0.0
C1476 C 0.4228 0.99764 0.79459 0.0
C1477 C 0.39235 0.97834 0.79944 0.0
C1478 C 0.42222 0.00932 0.78292 0.0
C1479 C 0.39112 1.00224 0.77578 0.0
C1480 C 0.36023 0.98379 0.78067 0.0
C1481 C 0.36089 0.97182 0.79237 0.0
C1482 C 0.36188 0.04199 0.74622 0.0
C1483 C 0.39401 0.0358 0.73941 0.0
C1484 C 0.36063 0.0307 0.75798 0.0
C1485 C 0.3916 0.01334 0.76321 0.0
C1486 C 0.42354 0.00692 0.75637 0.0
C1487 C 0.4247 0.01789 0.74462 0.0
H1488 H 0.74994 0.8088 0.98989 0.0
H1489 H 0.70446 0.92011 0.99275 0.0
H1490 H 0.76855 0.81106 1.01037 0.0
H1491 H 0.7231 0.92216 1.01337 0.0
H1492 H 0.80047 0.92207 0.04645 0.0
H1493 H 0.7809 0.9229 0.0259 0.0
H1494 H 0.73688 0.81148 0.02964 0.0
H1495 H 0.75646 0.81042 0.05004 0.0
C1496 C 0.74391 0.83381 0.99487 0.0
C1497 C 0.72555 0.86424 0.98964 0.0
C1498 C 0.75443 0.83499 1.00665 0.0
C1499 C 0.74708 0.86668 1.01351 0.0
C1500 C 0.72932 0.89742 1.00828 0.0
C1501 C 0.7185 0.89616 0.99648 0.0
C1502 C 0.78652 0.8978 0.04289 0.0
C1503 C 0.78028 0.86609 0.0499 0.0
C1504 C 0.77515 0.89837 0.03114 0.0
C1505 C 0.75761 0.86715 0.02613 0.0
C1506 C 0.75084 0.83576 0.03319 0.0
C1507 C 0.76192 0.83527 0.04492 0.0
H1508 H 0.94742 0.01172 0.79871 0.0
H1509 H 0.83503 0.05428 0.79594 0.0
H1510 H 0.9453 0.9923 0.77832 0.0
H1511 H 0.83315 0.03489 0.77536 0.0
H1512 H 0.83507 0.95666 0.74239 0.0
H1513 H 0.83371 0.97696 0.76287 0.0
H1514 H 0.94412 0.02316 0.75902 0.0
H1515 H 0.94574 1.0028 0.7387 0.0
C1516 C 0.92219 0.01695 0.79377 0.0
C1517 C 0.89144 0.03476 0.79899 0.0
C1518 C 0.92109 0.00597 0.78203 0.0
C1519 C 0.88918 0.01232 0.77518 0.0
C1520 C 0.85809 0.02947 0.78042 0.0
C1521 C 0.85925 0.04074 0.79219 0.0
C1522 C 0.85901 0.97123 0.74591 0.0
C1523 C 0.89062 0.97784 0.7389 0.0
C1524 C 0.85813 0.98304 0.75763 0.0
C1525 C 0.88892 1.00141 0.7626 0.0
C1526 C 0.92018 0.00855 0.75552 0.0
C1527 C 0.92099 0.99702 0.74383 0.0
H1528 H 0.77597 0.17024 0.55153 0.0
H1529 H 0.67811 0.10569 0.54291 0.0
H1530 H 0.79693 0.1659 0.53114 0.0
H1531 H 0.69869 0.10251 0.52242 0.0
H1532 H 0.73279 0.16742 0.48641 0.0
H1533 H 0.71217 0.16367 0.50684 0.0
H1534 H 0.81263 0.10422 0.51585 0.0
H1535 H 0.83292 0.10682 0.49531 0.0
C1536 C 0.75898 0.15513 0.54529 0.0
C1537 C 0.72535 0.13839 0.54881 0.0
C1538 C 0.77108 0.15251 0.53367 0.0
C1539 C 0.74937 0.13387 0.52529 0.0
C1540 C 0.71585 0.11699 0.52877 0.0
C1541 C 0.70419 0.11878 0.54046 0.0
C1542 C 0.75034 0.15327 0.49272 0.0
C1543 C 0.7845 0.13747 0.48928 0.0
C1544 C 0.73845 0.151 0.50437 0.0
C1545 C 0.76089 0.13369 0.51284 0.0
C1546 C 0.79493 0.1177 0.50943 0.0
C1547 C 0.80641 0.1191 0.49771 0.0
H1548 H 0.55564 0.99791 0.30004 0.0
H1549 H 0.66722 0.95391 0.29632 0.0
H1550 H 0.55662 0.01783 0.27965 0.0
H1551 H 0.668 0.9739 0.27583 0.0
H1552 H 0.66641 0.05356 0.24351 0.0
H1553 H 0.66762 0.03289 0.2639 0.0
H1554 H 0.55674 0.98788 0.26005 0.0
H1555 H 0.55537 0.00848 0.23972 0.0
C1556 C 0.58043 0.99248 0.29489 0.0
C1557 C 0.61134 0.97419 0.29985 0.0
C1558 C 0.58087 1.00374 0.28317 0.0
C1559 C 0.6123 0.99728 0.27611 0.0
C1560 C 0.64346 0.97948 0.28108 0.0
C1561 C 0.64292 0.96789 0.2928 0.0
C1562 C 0.64234 0.03914 0.24698 0.0
C1563 C 0.61078 0.03279 0.23994 0.0
C1564 C 0.64312 0.02715 0.25866 0.0
C1565 C 0.61223 0.00889 0.2636 0.0
C1566 C 0.58081 1.0023 0.25654 0.0
C1567 C 0.58014 0.01398 0.24486 0.0
H1568 H 0.80354 0.58675 0.54548 0.0
H1569 H 0.7592 0.69846 0.54856 0.0
H1570 H 0.78384 0.58496 0.52492 0.0
H1571 H 0.73951 0.69644 0.52821 0.0
H1572 H 0.749 0.69791 0.48858 0.0
H1573 H 0.77002 0.69614 0.50883 0.0
H1574 H 0.72562 0.58488 0.51257 0.0
H1575 H 0.70464 0.58641 0.49217 0.0
C1576 C 0.78955 0.61084 0.54181 0.0
C1577 C 0.78316 0.64281 0.54868 0.0
C1578 C 0.77812 0.60973 0.53005 0.0
C1579 C 0.76039 0.64068 0.52491 0.0
C1580 C 0.75364 0.67236 0.53184 0.0
C1581 C 0.76477 0.67339 0.54356 0.0
C1582 C 0.74376 0.67295 0.49367 0.0
C1583 C 0.72485 0.6424 0.48873 0.0
C1584 C 0.75568 0.67203 0.50532 0.0
C1585 C 0.74922 0.6405 0.51235 0.0
C1586 C 0.73117 0.60952 0.50736 0.0
C1587 C 0.71898 0.6105 0.49569 0.0
H1588 H 0.58874 0.52611 0.736 0.0
H1589 H 0.65004 0.42585 0.74433 0.0
H1590 H 0.59269 0.54579 0.7565 0.0
H1591 H 0.65285 0.44519 0.76496 0.0
H1592 H 0.58788 0.47988 0.80099 0.0
H1593 H 0.59215 0.4596 0.78053 0.0
H1594 H 0.6534 0.55939 0.77195 0.0
H1595 H 0.65028 0.5793 0.7925 0.0
C1596 C 0.60306 0.50831 0.74221 0.0
C1597 C 0.619 0.47439 0.73857 0.0
C1598 C 0.60545 0.51968 0.7539 0.0
C1599 C 0.62305 0.49695 0.76224 0.0
C1600 C 0.63915 0.46312 0.75865 0.0
C1601 C 0.63761 0.45217 0.74687 0.0
C1602 C 0.60254 0.49735 0.79477 0.0
C1603 C 0.61865 0.53124 0.79834 0.0
C1604 C 0.60512 0.48563 0.7831 0.0
C1605 C 0.62309 0.50799 0.77474 0.0
C1606 C 0.63942 0.54173 0.77828 0.0
C1607 C 0.63767 0.55302 0.79002 0.0
H1608 H 0.75826 0.30924 0.98864 0.0
H1609 H 0.80086 0.42144 0.9922 0.0
H1610 H 0.73858 0.31012 1.00905 0.0
H1611 H 0.78122 0.42209 1.01274 0.0
H1612 H 0.7034 0.41972 0.04545 0.0
H1613 H 0.72322 0.42121 0.02497 0.0
H1614 H 0.76872 0.31031 0.02853 0.0
H1615 H 0.74893 0.30863 0.04893 0.0
C1616 C 0.76341 0.33416 0.99376 0.0
C1617 C 0.78131 0.36523 0.98876 0.0
C1618 C 0.7523 0.33454 1.0055 0.0
C1619 C 0.75855 0.36607 1.01254 0.0
C1620 C 0.77583 0.39745 1.00752 0.0
C1621 C 0.78723 0.39699 0.99577 0.0
C1622 C 0.71775 0.3957 0.0419 0.0
C1623 C 0.72445 0.36404 0.04888 0.0
C1624 C 0.72924 0.39665 0.03016 0.0
C1625 C 0.74738 0.36582 0.02511 0.0
C1626 C 0.75435 0.33432 0.03211 0.0
C1627 C 0.74314 0.33347 0.04385 0.0
H1628 H 0.8367 0.45789 0.29576 0.0
H1629 H 0.94927 0.49942 0.29915 0.0
H1630 H 0.83589 0.47766 0.27524 0.0
H1631 H 0.94825 0.51915 0.27874 0.0
H1632 H 0.94929 0.50714 0.23891 0.0
H1633 H 0.94732 0.4879 0.25935 0.0
H1634 H 0.83761 0.53604 0.2629 0.0
H1635 H 0.83944 0.55543 0.24236 0.0
C1636 C 0.8612 0.47131 0.29216 0.0
C1637 C 0.89312 0.47686 0.29911 0.0
C1638 C 0.86064 0.4828 0.28042 0.0
C1639 C 0.8921 0.49974 0.27535 0.0
C1640 C 0.92376 0.50569 0.28234 0.0
C1641 C 0.92424 0.49454 0.29407 0.0
C1642 C 0.92463 0.51363 0.244 0.0
C1643 C 0.89452 0.53294 0.23894 0.0
C1644 C 0.92363 0.50273 0.25575 0.0
C1645 C 0.8924 0.51062 0.26276 0.0
C1646 C 0.86197 0.52935 0.2577 0.0
C1647 C 0.86309 0.54056 0.24593 0.0
H1648 H 0.25809 0.31124 0.54895 0.0
H1649 H 0.30271 0.42278 0.54575 0.0
H1650 H 0.23842 0.3132 0.52857 0.0
H1651 H 0.28311 0.42447 0.52522 0.0
H1652 H 0.25041 0.31134 0.48894 0.0
H1653 H 0.26988 0.31318 0.50933 0.0
H1654 H 0.22531 0.42455 0.51268 0.0
H1655 H 0.20589 0.42297 0.49212 0.0
C1656 C 0.26369 0.33624 0.54392 0.0
C1657 C 0.28222 0.36678 0.549 0.0
C1658 C 0.25256 0.33725 0.5322 0.0
C1659 C 0.25949 0.36885 0.52525 0.0
C1660 C 0.27724 0.39978 0.53037 0.0
C1661 C 0.28863 0.39871 0.54211 0.0
C1662 C 0.24477 0.33634 0.49397 0.0
C1663 C 0.22634 0.36694 0.48887 0.0
C1664 C 0.25578 0.33728 0.5057 0.0
C1665 C 0.24884 0.36887 0.51265 0.0
C1666 C 0.23118 0.39986 0.50753 0.0
C1667 C 0.2199 0.39886 0.49577 0.0
H1668 H 0.33791 0.4584 0.24172 0.0
H1669 H 0.4503 0.50035 0.23823 0.0
H1670 H 0.33724 0.47798 0.26226 0.0
H1671 H 0.4494 0.51997 0.25864 0.0
H1672 H 0.33997 0.5554 0.29503 0.0
H1673 H 0.33852 0.53606 0.27451 0.0
H1674 H 0.44881 0.48928 0.27809 0.0
H1675 H 0.45042 0.50855 0.29854 0.0
C1676 C 0.3624 0.47188 0.2453 0.0
C1677 C 0.39422 0.47762 0.23832 0.0
C1678 C 0.36193 0.48325 0.25705 0.0
C1679 C 0.39336 0.50031 0.26209 0.0
C1680 C 0.42495 0.50642 0.25507 0.0
C1681 C 0.42534 0.49534 0.24333 0.0
C1682 C 0.36385 0.54086 0.29147 0.0
C1683 C 0.39532 0.53362 0.29847 0.0
C1684 C 0.36294 0.52966 0.27972 0.0
C1685 C 0.39361 0.51129 0.27466 0.0
C1686 C 0.42493 0.50383 0.28168 0.0
C1687 C 0.42574 0.51474 0.29343 0.0
H1688 H 0.24843 0.70003 0.04841 0.0
H1689 H 0.20486 0.58807 0.04531 0.0
H1690 H 0.26879 0.69781 0.02809 0.0
H1691 H 0.22516 0.58609 0.02484 0.0
H1692 H 0.25878 0.69835 0.98836 0.0
H1693 H 0.23851 0.69708 1.00869 0.0
H1694 H 0.28328 0.58596 1.01253 0.0
H1695 H 0.30354 0.58699 0.99203 0.0
C1696 C 0.24319 0.67489 0.04341 0.0
C1697 C 0.22478 0.6443 0.04851 0.0
C1698 C 0.25472 0.67372 0.03172 0.0
C1699 C 0.24835 0.64189 0.02482 0.0
C1700 C 0.23064 0.61095 0.02995 0.0
C1701 C 0.21884 0.61219 0.04166 0.0
C1702 C 0.26428 0.67352 0.99349 0.0
C1703 C 0.28302 0.64283 0.98854 0.0
C1704 C 0.25282 0.67291 1.00518 0.0
C1705 C 0.25957 0.64156 1.01226 0.0
C1706 C 0.27754 0.61047 1.00728 0.0
C1707 C 0.28929 0.61115 0.99556 0.0
H1708 H 0.17115 0.45425 0.79519 0.0
H1709 H 0.05949 0.4982 0.79869 0.0
H1710 H 0.17208 0.47377 0.77463 0.0
H1711 H 0.06066 0.51776 0.77829 0.0
H1712 H 0.05827 0.50797 0.7386 0.0
H1713 H 0.06041 0.48742 0.75891 0.0
H1714 H 0.17172 0.53179 0.76229 0.0
H1715 H 0.16983 0.55226 0.74184 0.0
C1716 C 0.14688 0.46812 0.79161 0.0
C1717 C 0.11519 0.47446 0.7986 0.0
C1718 C 0.1475 0.47946 0.77984 0.0
C1719 C 0.11634 0.49708 0.77481 0.0
C1720 C 0.0849 0.50374 0.78185 0.0
C1721 C 0.08435 0.49269 0.79358 0.0
C1722 C 0.08331 0.51331 0.74362 0.0
C1723 C 0.1138 0.53201 0.73857 0.0
C1724 C 0.08444 0.50167 0.7553 0.0
C1725 C 0.11612 0.50822 0.76224 0.0
C1726 C 0.14698 0.52616 0.75715 0.0
C1727 C 0.14579 0.53807 0.74545 0.0
H1728 H 0.32429 0.77004 0.0666 0.0
H1729 H 0.25921 0.79602 0.09743 0.0
H1730 H 0.35211 0.83217 0.06726 0.0
H1731 H 0.28731 0.85806 0.09809 0.0
H1732 H 0.37096 0.95488 0.10088 0.0
H1733 H 0.35127 0.88946 0.10092 0.0
H1734 H 0.32443 0.89753 0.06411 0.0
H1735 H 0.344 0.96291 0.0641 0.0
C1736 C 0.31626 0.78882 0.07359 0.0
C1737 C 0.28938 0.77822 0.08192 0.0
C1738 C 0.33206 0.82441 0.07392 0.0
C1739 C 0.32173 0.84989 0.08269 0.0
C1740 C 0.29594 0.83884 0.09128 0.0
C1741 C 0.27974 0.80342 0.09086 0.0
C1742 C 0.36124 0.94245 0.09278 0.0
C1743 C 0.35858 0.96387 0.08251 0.0
C1744 C 0.34979 0.9052 0.09282 0.0
C1745 C 0.33622 0.88856 0.08253 0.0
C1746 C 0.33496 0.90964 0.07215 0.0
C1747 C 0.34585 0.94705 0.07216 0.0
H1748 H 0.46213 0.00578 0.34864 0.0
H1749 H 0.49145 0.08003 0.32026 0.0
H1750 H 0.39977 0.03249 0.34916 0.0
H1751 H 0.42867 0.10614 0.32059 0.0
H1752 H 0.31667 0.16152 0.33027 0.0
H1753 H 0.38216 0.14223 0.33177 0.0
H1754 H 0.34701 0.02777 0.33613 0.0
H1755 H 0.28236 0.04719 0.33509 0.0
C1756 C 0.45534 0.02797 0.34256 0.0
C1757 C 0.48155 0.04045 0.33431 0.0
C1758 C 0.41955 0.04315 0.34282 0.0
C1759 C 0.40911 0.071 0.33478 0.0
C1760 C 0.43591 0.08483 0.32693 0.0
C1761 C 0.47183 0.06974 0.3267 0.0
C1762 C 0.32321 0.13228 0.33149 0.0
C1763 C 0.29462 0.10568 0.33218 0.0
C1764 C 0.36056 0.12122 0.33233 0.0
C1765 C 0.36976 0.08347 0.33407 0.0
C1766 C 0.34094 0.05711 0.33491 0.0
C1767 C 0.30384 0.06813 0.33406 0.0
H1768 H 0.24695 0.2144 0.59759 0.0
H1769 H 0.1833 0.23948 0.56641 0.0
H1770 H 0.21865 0.15252 0.59836 0.0
H1771 H 0.15512 0.17754 0.5672 0.0
H1772 H 0.16038 0.04688 0.56462 0.0
H1773 H 0.18022 0.11214 0.56432 0.0
H1774 H 0.15605 0.12121 0.6013 0.0
H1775 H 0.13649 0.05586 0.6016 0.0
C1776 C 0.22669 0.20683 0.59096 0.0
C1777 C 0.21751 0.23175 0.58191 0.0
C1778 C 0.21035 0.17149 0.59144 0.0
C1779 C 0.18479 0.16021 0.58281 0.0
C1780 C 0.17498 0.18541 0.57391 0.0
C1781 C 0.19098 0.22092 0.5735 0.0
C1782 C 0.15923 0.06291 0.57266 0.0
C1783 C 0.14745 0.04629 0.58316 0.0
C1784 C 0.17025 0.10029 0.57247 0.0
C1785 C 0.16991 0.12164 0.58281 0.0
C1786 C 0.15696 0.10529 0.59324 0.0
C1787 C 0.14553 0.06803 0.59339 0.0
H1788 H 0.21071 0.91241 0.81303 0.0
H1789 H 0.2024 0.8868 0.84991 0.0
H1790 H 0.14559 0.93265 0.81298 0.0
H1791 H 0.13721 0.90662 0.84985 0.0
H1792 H 0.04411 0.99754 0.84698 0.0
H1793 H 0.106 0.96924 0.84738 0.0
H1794 H 0.08034 0.90785 0.81584 0.0
H1795 H 0.01844 0.93608 0.8154 0.0
C1796 C 0.19487 0.91096 0.82109 0.0
C1797 C 0.21163 0.8986 0.8315 0.0
C1798 C 0.15756 0.9222 0.82105 0.0
C1799 C 0.13647 0.92145 0.83144 0.0
C1800 C 0.15296 0.90788 0.84175 0.0
C1801 C 0.19012 0.89629 0.84176 0.0
C1802 C 0.05154 0.97776 0.84019 0.0
C1803 C 0.02645 0.96919 0.83113 0.0
C1804 C 0.08689 0.96141 0.84046 0.0
C1805 C 0.09798 0.93646 0.83162 0.0
C1806 C 0.07262 0.92726 0.82271 0.0
C1807 C 0.03713 0.94328 0.8225 0.0
H1808 H 0.26213 0.21376 0.44078 0.0
H1809 H 0.32603 0.24033 0.47177 0.0
H1810 H 0.29038 0.15184 0.44029 0.0
H1811 H 0.35422 0.17833 0.47126 0.0
H1812 H 0.34864 0.04766 0.47444 0.0
H1813 H 0.32936 0.11312 0.4745 0.0
H1814 H 0.35266 0.12026 0.43742 0.0
H1815 H 0.37158 0.05473 0.43736 0.0
C1816 C 0.28244 0.20651 0.44742 0.0
C1817 C 0.2917 0.23187 0.45634 0.0
C1818 C 0.29877 0.17114 0.4471 0.0
C1819 C 0.32441 0.16026 0.45576 0.0
C1820 C 0.33431 0.18589 0.46454 0.0
C1821 C 0.3183 0.22143 0.46478 0.0
C1822 C 0.34975 0.06333 0.46633 0.0
C1823 C 0.36103 0.0461 0.45587 0.0
C1824 C 0.33906 0.10082 0.46638 0.0
C1825 C 0.33925 0.12166 0.45594 0.0
C1826 C 0.35184 0.10473 0.44556 0.0
C1827 C 0.36292 0.06737 0.44555 0.0
H1828 H 0.0396 0.01069 0.68902 0.0
H1829 H 0.01823 0.07728 0.71987 0.0
H1830 H 0.10229 0.03633 0.68782 0.0
H1831 H 0.0814 0.10205 0.71891 0.0
H1832 H 0.19207 0.15757 0.70946 0.0
H1833 H 0.12614 0.14002 0.70839 0.0
H1834 H 0.15812 0.02784 0.69877 0.0
H1835 H 0.22324 0.04593 0.69927 0.0
C1836 C 0.04826 0.03094 0.69552 0.0
C1837 C 0.02415 0.04163 0.70462 0.0
C1838 C 0.08425 0.0455 0.69488 0.0
C1839 C 0.0971 0.07079 0.70339 0.0
C1840 C 0.07236 0.08282 0.71217 0.0
C1841 C 0.03618 0.06848 0.71275 0.0
C1842 C 0.18476 0.12922 0.70712 0.0
C1843 C 0.21268 0.10277 0.70484 0.0
C1844 C 0.14713 0.11911 0.70655 0.0
C1845 C 0.13682 0.08247 0.70355 0.0
C1846 C 0.16495 0.05638 0.70101 0.0
C1847 C 0.20238 0.06651 0.70154 0.0
H1848 H 0.16487 0.75644 0.95635 0.0
H1849 H 0.27411 0.80628 0.95338 0.0
H1850 H 0.13697 0.81891 0.9575 0.0
H1851 H 0.24626 0.86823 0.95484 0.0
H1852 H 0.18325 0.96399 0.974 0.0
H1853 H 0.2055 0.89978 0.97297 0.0
H1854 H 0.13739 0.88073 0.94242 0.0
H1855 H 0.11667 0.94576 0.94296 0.0
C1856 C 0.18284 0.78067 0.95591 0.0
C1857 C 0.22164 0.77654 0.95477 0.0
C1858 C 0.16689 0.81624 0.95656 0.0
C1859 C 0.18962 0.84807 0.95636 0.0
C1860 C 0.22829 0.84396 0.95511 0.0
C1861 C 0.24412 0.80856 0.9542 0.0
C1862 C 0.17352 0.94649 0.96692 0.0
C1863 C 0.14949 0.96052 0.95826 0.0
C1864 C 0.18589 0.90961 0.96644 0.0
C1865 C 0.1735 0.88574 0.95752 0.0
C1866 C 0.14738 0.89879 0.94935 0.0
C1867 C 0.13556 0.93595 0.94969 0.0
H1868 H 0.30325 0.88642 0.18704 0.0
H1869 H 0.2946 0.91134 0.22396 0.0
H1870 H 0.36864 0.90565 0.18724 0.0
H1871 H 0.35995 0.93081 0.22416 0.0
H1872 H 0.48729 0.93324 0.2218 0.0
H1873 H 0.42541 0.90493 0.22113 0.0
H1874 H 0.39958 0.96886 0.19011 0.0
H1875 H 0.46135 0.99733 0.19076 0.0
C1876 C 0.31552 0.89559 0.19522 0.0
C1877 C 0.29388 0.89792 0.20545 0.0
C1878 C 0.35278 0.90681 0.19531 0.0
C1879 C 0.36922 0.91995 0.20569 0.0
C1880 C 0.348 0.92066 0.21605 0.0
C1881 C 0.31058 0.90986 0.21592 0.0
C1882 C 0.46857 0.94095 0.21476 0.0
C1883 C 0.4791 0.96766 0.20636 0.0
C1884 C 0.43312 0.92488 0.21443 0.0
C1885 C 0.40773 0.9348 0.2056 0.0
C1886 C 0.41872 0.9605 0.19696 0.0
C1887 C 0.45399 0.97693 0.19738 0.0
H1888 H 0.71208 0.03445 0.94887 0.0
H1889 H 0.60116 0.06481 0.95997 0.0
H1890 H 0.72957 0.09973 0.94817 0.0
H1891 H 0.61805 0.13092 0.95868 0.0
H1892 H 0.68124 0.23909 0.96981 0.0
H1893 H 0.65643 0.17588 0.96891 0.0
H1894 H 0.72 0.15561 0.93735 0.0
H1895 H 0.74573 0.21831 0.93849 0.0
C1896 C 0.69152 0.05517 0.95129 0.0
C1897 C 0.65568 0.04459 0.95491 0.0
C1898 C 0.70129 0.0927 0.95064 0.0
C1899 C 0.67522 0.12065 0.95338 0.0
C1900 C 0.63894 0.11007 0.95668 0.0
C1901 C 0.62921 0.07233 0.95737 0.0
C1902 C 0.68953 0.22127 0.9626 0.0
C1903 C 0.71586 0.23344 0.95432 0.0
C1904 C 0.67517 0.18507 0.96205 0.0
C1905 C 0.68664 0.16047 0.95315 0.0
C1906 C 0.7113 0.17352 0.94449 0.0
C1907 C 0.7259 0.20952 0.9451 0.0
H1908 H 0.70277 0.88594 0.68787 0.0
H1909 H 0.70989 0.90879 0.72495 0.0
H1910 H 0.63754 0.90565 0.68789 0.0
H1911 H 0.64473 0.9289 0.72497 0.0
H1912 H 0.51785 0.93412 0.72218 0.0
H1913 H 0.57932 0.90493 0.72169 0.0
H1914 H 0.60701 0.96849 0.69074 0.0
H1915 H 0.54559 0.99775 0.6912 0.0
C1916 C 0.69019 0.89472 0.69605 0.0
C1917 C 0.71138 0.89638 0.70638 0.0
C1918 C 0.65301 0.90625 0.69604 0.0
C1919 C 0.63622 0.9191 0.70641 0.0
C1920 C 0.65695 0.91902 0.71686 0.0
C1921 C 0.69426 0.90784 0.71684 0.0
C1922 C 0.5369 0.9416 0.71519 0.0
C1923 C 0.52696 0.9684 0.70675 0.0
C1924 C 0.57212 0.92501 0.71496 0.0
C1925 C 0.59792 0.93454 0.7062 0.0
C1926 C 0.58754 0.96039 0.69754 0.0
C1927 C 0.55247 0.97729 0.69784 0.0
H1928 H 0.82739 0.9703 0.43872 0.0
H1929 H 0.88534 0.94486 0.47081 0.0
H1930 H 0.8062 0.90576 0.43733 0.0
H1931 H 0.86314 0.88029 0.46978 0.0
H1932 H 0.83917 0.75963 0.46005 0.0
H1933 H 0.86675 0.82185 0.45955 0.0
H1934 H 0.76246 0.86683 0.4469 0.0
H1935 H 0.73549 0.8048 0.44703 0.0
C1936 C 0.83552 0.95064 0.44547 0.0
C1937 C 0.85769 0.96216 0.45489 0.0
C1938 C 0.82326 0.9138 0.44473 0.0
C1939 C 0.83262 0.88782 0.4535 0.0
C1940 C 0.85572 0.89938 0.4628 0.0
C1941 C 0.86827 0.93628 0.46346 0.0
C1942 C 0.8223 0.78279 0.45706 0.0
C1943 C 0.78513 0.77725 0.45359 0.0
C1944 C 0.83802 0.8185 0.45685 0.0
C1945 C 0.81685 0.84944 0.45321 0.0
C1946 C 0.77986 0.84365 0.44957 0.0
C1947 C 0.76426 0.80802 0.44971 0.0
H1948 H 0.96122 0.00625 0.19047 0.0
H1949 H 0.98989 0.08139 0.21868 0.0
H1950 H 0.89843 0.03187 0.19005 0.0
H1951 H 0.92663 0.10643 0.21845 0.0
H1952 H 0.81395 0.16047 0.20859 0.0
H1953 H 0.87963 0.14172 0.20731 0.0
H1954 H 0.8456 0.02692 0.20298 0.0
H1955 H 0.78072 0.04583 0.20377 0.0
C1956 C 0.95418 0.02839 0.19654 0.0
C1957 C 0.98038 0.04147 0.2047 0.0
C1958 C 0.91813 0.04294 0.19635 0.0
C1959 C 0.90736 0.07075 0.20436 0.0
C1960 C 0.93409 0.08513 0.21214 0.0
C1961 C 0.9703 0.07067 0.2123 0.0
C1962 C 0.82077 0.13126 0.20743 0.0
C1963 C 0.79239 0.10444 0.20667 0.0
C1964 C 0.85823 0.12051 0.20672 0.0
C1965 C 0.86783 0.08282 0.20504 0.0
C1966 C 0.83924 0.05621 0.20416 0.0
C1967 C 0.802 0.06694 0.20486 0.0
H1968 H 0.74742 0.79622 0.59673 0.0
H1969 H 0.68247 0.76893 0.56601 0.0
H1970 H 0.71861 0.8579 0.59731 0.0
H1971 H 0.65376 0.83068 0.56661 0.0
H1972 H 0.65774 0.96139 0.5634 0.0
H1973 H 0.67798 0.8962 0.56327 0.0
H1974 H 0.65588 0.88868 0.60042 0.0
H1975 H 0.63596 0.95392 0.60053 0.0
C1976 C 0.72678 0.80326 0.59017 0.0
C1977 C 0.71736 0.77777 0.58129 0.0
C1978 C 0.71014 0.83849 0.59054 0.0
C1979 C 0.68404 0.84908 0.58197 0.0
C1980 C 0.67403 0.82333 0.57325 0.0
C1981 C 0.69033 0.78794 0.57296 0.0
C1982 C 0.65709 0.94569 0.5715 0.0
C1983 C 0.64582 0.96272 0.582 0.0
C1984 C 0.66834 0.90836 0.57142 0.0
C1985 C 0.66875 0.8875 0.58186 0.0
C1986 C 0.65622 0.90424 0.59228 0.0
C1987 C 0.64458 0.94142 0.59232 0.0
H1988 H 0.81548 0.85076 0.32798 0.0
H1989 H 0.78386 0.96138 0.33912 0.0
H1990 H 0.8813 0.86866 0.32905 0.0
H1991 H 0.84879 0.97987 0.33957 0.0
H1992 H 0.98839 0.93298 0.31771 0.0
H1993 H 0.92553 0.90746 0.31874 0.0
H1994 H 0.90493 0.97136 0.35022 0.0
H1995 H 0.96724 0.99785 0.34893 0.0
C1996 C 0.82265 0.87897 0.33053 0.0
C1997 C 0.79462 0.90506 0.33307 0.0
C1998 C 0.86022 0.88928 0.3311 0.0
C1999 C 0.87036 0.92576 0.33434 0.0
C2000 C 0.84213 0.95145 0.33714 0.0
C2001 C 0.80477 0.9411 0.33663 0.0
C2002 C 0.97056 0.94121 0.32493 0.0
C2003 C 0.98251 0.96783 0.33315 0.0
C2004 C 0.93457 0.92644 0.32555 0.0
C2005 C 0.90998 0.93776 0.33447 0.0
C2006 C 0.92282 0.96277 0.34306 0.0
C2007 C 0.9586 0.97781 0.34237 0.0
H2008 H 0.84872 0.04778 0.06386 0.0
H2009 H 0.8714 0.05498 0.10095 0.0
H2010 H 0.82913 0.11318 0.0638 0.0
H2011 H 0.85214 0.12039 0.10089 0.0
H2012 H 0.76041 0.21275 0.09744 0.0
H2013 H 0.78922 0.15108 0.0979 0.0
H2014 H 0.85389 0.17873 0.06719 0.0
H2015 H 0.82518 0.24052 0.06671 0.0
C2016 C 0.84972 0.06347 0.07197 0.0
C2017 C 0.86101 0.04631 0.08244 0.0
C2018 C 0.83885 0.10091 0.07192 0.0
C2019 C 0.83886 0.12171 0.08237 0.0
C2020 C 0.85149 0.10486 0.09275 0.0
C2021 C 0.86275 0.06758 0.09276 0.0
C2022 C 0.78103 0.20581 0.09085 0.0
C2023 C 0.79039 0.23141 0.08201 0.0
C2024 C 0.79766 0.1706 0.09116 0.0
C2025 C 0.8237 0.16014 0.08256 0.0
C2026 C 0.83368 0.18601 0.07386 0.0
C2027 C 0.81739 0.22141 0.07364 0.0
H2028 H 0.69681 0.13349 0.81715 0.0
H2029 H 0.7199 0.0792 0.85005 0.0
H2030 H 0.63187 0.11253 0.8182 0.0
H2031 H 0.65497 0.05921 0.85144 0.0
H2032 H 0.55337 0.98889 0.84192 0.0
H2033 H 0.61577 0.01489 0.8421 0.0
H2034 H 0.57318 0.11876 0.82829 0.0
H2035 H 0.51057 0.09216 0.82775 0.0
C2036 C 0.68763 0.11749 0.82467 0.0
C2037 C 0.71289 0.10766 0.8335 0.0
C2038 C 0.65053 0.10567 0.82534 0.0
C2039 C 0.6382 0.08399 0.83488 0.0
C2040 C 0.66361 0.07525 0.84387 0.0
C2041 C 0.70065 0.08684 0.84314 0.0
C2042 C 0.55718 0.01739 0.83901 0.0
C2043 C 0.52698 0.03839 0.83478 0.0
C2044 C 0.59302 0.03242 0.83917 0.0
C2045 C 0.59958 0.06896 0.83521 0.0
C2046 C 0.56921 0.09034 0.83125 0.0
C2047 C 0.53328 0.07519 0.83102 0.0
H2048 H 0.76029 0.29405 0.59686 0.0
H2049 H 0.8236 0.2696 0.56555 0.0
H2050 H 0.78777 0.35633 0.59752 0.0
H2051 H 0.85094 0.33193 0.56623 0.0
H2052 H 0.84451 0.46249 0.56362 0.0
H2053 H 0.82486 0.39715 0.5634 0.0
H2054 H 0.85032 0.38817 0.60029 0.0
H2055 H 0.86971 0.45357 0.60051 0.0
C2056 C 0.78029 0.30184 0.59019 0.0
C2057 C 0.78964 0.27696 0.58113 0.0
C2058 C 0.79616 0.33742 0.5906 0.0
C2059 C 0.82137 0.34897 0.58189 0.0
C2060 C 0.83133 0.32384 0.57298 0.0
C2061 C 0.81582 0.2881 0.57265 0.0
C2062 C 0.84594 0.44648 0.57166 0.0
C2063 C 0.8581 0.46311 0.58211 0.0
C2064 C 0.83504 0.40905 0.57151 0.0
C2065 C 0.83585 0.38769 0.58185 0.0
C2066 C 0.84906 0.4041 0.59223 0.0
C2067 C 0.86038 0.44138 0.59233 0.0
H2068 H 0.81595 0.65969 0.82914 0.0
H2069 H 0.78234 0.54589 0.83539 0.0
H2070 H 0.8816 0.6406 0.83009 0.0
H2071 H 0.84718 0.52658 0.8359 0.0
H2072 H 0.96428 0.5063 0.84728 0.0
H2073 H 0.90164 0.53224 0.84815 0.0
H2074 H 0.92692 0.60386 0.81874 0.0
H2075 H 0.98997 0.57851 0.81803 0.0
C2076 C 0.82267 0.63059 0.83057 0.0
C2077 C 0.7942 0.60407 0.83181 0.0
C2078 C 0.86012 0.61963 0.83108 0.0
C2079 C 0.86961 0.58205 0.83305 0.0
C2080 C 0.84092 0.55579 0.83448 0.0
C2081 C 0.8037 0.56671 0.83395 0.0
C2082 C 0.95664 0.52786 0.84107 0.0
C2083 C 0.98197 0.54003 0.8325 0.0
C2084 C 0.92066 0.5426 0.84154 0.0
C2085 C 0.90911 0.56972 0.8334 0.0
C2086 C 0.93499 0.58314 0.82517 0.0
C2087 C 0.97108 0.56847 0.82473 0.0
H2088 H 0.67578 0.74258 0.07037 0.0
H2089 H 0.75134 0.71443 0.09851 0.0
H2090 H 0.65078 0.67928 0.07079 0.0
H2091 H 0.72579 0.65161 0.09911 0.0
H2092 H 0.71229 0.53367 0.08544 0.0
H2093 H 0.73085 0.5987 0.08615 0.0
H2094 H 0.61586 0.63224 0.08214 0.0
H2095 H 0.59743 0.5664 0.08097 0.0
C2096 C 0.68659 0.7231 0.07678 0.0
C2097 C 0.71592 0.73332 0.08429 0.0
C2098 C 0.67216 0.68688 0.07705 0.0
C2099 C 0.68671 0.66028 0.08486 0.0
C2100 C 0.7146 0.67121 0.0928 0.0
C2101 C 0.72912 0.70727 0.09249 0.0
C2102 C 0.69105 0.55488 0.08441 0.0
C2103 C 0.65358 0.5451 0.08274 0.0
C2104 C 0.70159 0.59219 0.08507 0.0
C2105 C 0.67482 0.62068 0.08424 0.0
C2106 C 0.63717 0.61092 0.08268 0.0
C2107 C 0.62661 0.57336 0.08203 0.0
H2108 H 0.70403 0.38502 0.35006 0.0
H2109 H 0.71092 0.40859 0.31302 0.0
H2110 H 0.63866 0.40419 0.3501 0.0
H2111 H 0.64556 0.42812 0.31306 0.0
H2112 H 0.51836 0.43177 0.31606 0.0
H2113 H 0.58018 0.4032 0.31642 0.0
H2114 H 0.60774 0.46704 0.34731 0.0
H2115 H 0.54604 0.49571 0.34697 0.0
C2116 C 0.69138 0.39386 0.3419 0.0
C2117 C 0.71255 0.39586 0.33156 0.0
C2118 C 0.65411 0.40507 0.34195 0.0
C2119 C 0.63717 0.41792 0.33161 0.0
C2120 C 0.6579 0.41822 0.32115 0.0
C2121 C 0.69532 0.40739 0.32114 0.0
C2122 C 0.53746 0.43941 0.323 0.0
C2123 C 0.52742 0.46613 0.33146 0.0
C2124 C 0.57288 0.42319 0.32316 0.0
C2125 C 0.59873 0.433 0.33187 0.0
C2126 C 0.58824 0.45875 0.34055 0.0
C2127 C 0.55301 0.4753 0.34031 0.0
H2128 H 0.85034 0.54709 0.97482 0.0
H2129 H 0.87392 0.55455 0.93778 0.0
H2130 H 0.83126 0.6126 0.97491 0.0
H2131 H 0.85532 0.62013 0.93789 0.0
H2132 H 0.76458 0.71335 0.94116 0.0
H2133 H 0.79312 0.65158 0.94063 0.0
H2134 H 0.85601 0.67774 0.97183 0.0
H2135 H 0.82748 0.73955 0.9724 0.0
C2136 C 0.85165 0.56285 0.96673 0.0
C2137 C 0.863 0.54572 0.95626 0.0
C2138 C 0.84109 0.60037 0.9668 0.0
C2139 C 0.84154 0.62132 0.95638 0.0
C2140 C 0.8543 0.6045 0.94601 0.0
C2141 C 0.8652 0.56711 0.94597 0.0
C2142 C 0.78476 0.70607 0.94784 0.0
C2143 C 0.79361 0.73124 0.95685 0.0
C2144 C 0.80125 0.67079 0.9475 0.0
C2145 C 0.82668 0.65987 0.95621 0.0
C2146 C 0.83624 0.68535 0.96506 0.0
C2147 C 0.82004 0.72078 0.96534 0.0
H2148 H 0.69364 0.66021 0.20696 0.0
H2149 H 0.72608 0.54549 0.20179 0.0
H2150 H 0.6278 0.64191 0.20588 0.0
H2151 H 0.66106 0.527 0.20118 0.0
H2152 H 0.54477 0.507 0.18933 0.0
H2153 H 0.60758 0.53242 0.18856 0.0
H2154 H 0.58122 0.60672 0.21722 0.0
H2155 H 0.51793 0.58188 0.2178 0.0
C2156 C 0.68661 0.63108 0.20576 0.0
C2157 C 0.7148 0.60409 0.20484 0.0
C2158 C 0.64906 0.62059 0.20516 0.0
C2159 C 0.6392 0.58299 0.20345 0.0
C2160 C 0.66762 0.55623 0.20239 0.0
C2161 C 0.70493 0.5667 0.20298 0.0
C2162 C 0.55221 0.52904 0.19539 0.0
C2163 C 0.52653 0.5421 0.20372 0.0
C2164 C 0.58828 0.54349 0.19499 0.0
C2165 C 0.59959 0.57115 0.20296 0.0
C2166 C 0.57334 0.58553 0.21092 0.0
C2167 C 0.53712 0.57118 0.21128 0.0
H2168 H 0.7493 0.29366 0.44162 0.0
H2169 H 0.68602 0.26808 0.47285 0.0
H2170 H 0.72107 0.35564 0.44104 0.0
H2171 H 0.65791 0.33004 0.47224 0.0
H2172 H 0.66152 0.4604 0.47504 0.0
H2173 H 0.68248 0.39544 0.4752 0.0
H2174 H 0.65839 0.38673 0.43821 0.0
H2175 H 0.63777 0.45174 0.43805 0.0
C2176 C 0.72916 0.30113 0.4483 0.0
C2177 C 0.72003 0.27602 0.45731 0.0
C2178 C 0.71286 0.33654 0.44793 0.0
C2179 C 0.68741 0.34767 0.45662 0.0
C2180 C 0.67771 0.3223 0.46549 0.0
C2181 C 0.69367 0.28676 0.46579 0.0
C2182 C 0.66066 0.44451 0.46697 0.0
C2183 C 0.64853 0.46112 0.4565 0.0
C2184 C 0.67233 0.40731 0.46707 0.0
C2185 C 0.67228 0.38615 0.45669 0.0
C2186 C 0.65909 0.40252 0.4463 0.0
C2187 C 0.64704 0.43957 0.44623 0.0
H2188 H 0.80276 0.38873 0.68566 0.0
H2189 H 0.79567 0.4123 0.72269 0.0
H2190 H 0.86816 0.40835 0.68563 0.0
H2191 H 0.86107 0.43172 0.7227 0.0
H2192 H 0.98846 0.43187 0.71982 0.0
H2193 H 0.92634 0.40412 0.71907 0.0
H2194 H 0.89952 0.4722 0.68902 0.0
H2195 H 0.96152 0.50022 0.68978 0.0
C2196 C 0.81541 0.39765 0.69381 0.0
C2197 C 0.79429 0.39938 0.70416 0.0
C2198 C 0.85265 0.40906 0.69378 0.0
C2199 C 0.86955 0.42164 0.70415 0.0
C2200 C 0.84875 0.42196 0.7146 0.0
C2201 C 0.81135 0.41114 0.71458 0.0
C2202 C 0.96948 0.44065 0.71297 0.0
C2203 C 0.9798 0.46841 0.7049 0.0
C2204 C 0.9339 0.42488 0.71259 0.0
C2205 C 0.90817 0.43614 0.70402 0.0
C2206 C 0.91894 0.46284 0.69567 0.0
C2207 C 0.95434 0.479 0.69614 0.0
H2208 H 0.2432 0.71637 0.44121 0.0
H2209 H 0.17917 0.74034 0.47241 0.0
H2210 H 0.21599 0.65406 0.44044 0.0
H2211 H 0.15199 0.67794 0.47161 0.0
H2212 H 0.15953 0.54738 0.4742 0.0
H2213 H 0.17782 0.61309 0.47452 0.0
H2214 H 0.15457 0.62143 0.43747 0.0
H2215 H 0.13674 0.55564 0.43714 0.0
C2216 C 0.22306 0.70848 0.44783 0.0
C2217 C 0.2135 0.73321 0.4569 0.0
C2218 C 0.20733 0.67287 0.44735 0.0
C2219 C 0.18199 0.66113 0.45599 0.0
C2220 C 0.17172 0.68616 0.4649 0.0
C2221 C 0.18714 0.72194 0.46531 0.0
C2222 C 0.1583 0.56333 0.46615 0.0
C2223 C 0.14735 0.54637 0.45561 0.0
C2224 C 0.16839 0.60098 0.46635 0.0
C2225 C 0.16787 0.62227 0.456 0.0
C2226 C 0.15563 0.60557 0.44555 0.0
C2227 C 0.14519 0.56804 0.44538 0.0
H2228 H 0.04644 0.49587 0.19064 0.0
H2229 H 0.01901 0.43159 0.22151 0.0
H2230 H 0.10823 0.46744 0.19025 0.0
H2231 H 0.08093 0.40325 0.2211 0.0
H2232 H 0.21172 0.40927 0.22443 0.0
H2233 H 0.14626 0.42846 0.22445 0.0
H2234 H 0.1393 0.40469 0.1874 0.0
H2235 H 0.20477 0.38589 0.18738 0.0
C2236 C 0.05348 0.47543 0.19727 0.0
C2237 C 0.02793 0.4661 0.20613 0.0
C2238 C 0.08877 0.45901 0.19701 0.0
C2239 C 0.09936 0.43324 0.20567 0.0
C2240 C 0.07355 0.42327 0.21438 0.0
C2241 C 0.03807 0.43935 0.21456 0.0
C2242 C 0.19609 0.40804 0.21632 0.0
C2243 C 0.21334 0.39668 0.20587 0.0
C2244 C 0.15861 0.41867 0.21635 0.0
C2245 C 0.13785 0.41832 0.2059 0.0
C2246 C 0.15479 0.40561 0.19554 0.0
C2247 C 0.19212 0.39461 0.19555 0.0
H2248 H 0.23585 0.30269 0.94779 0.0
H2249 H 0.3416 0.25897 0.95961 0.0
H2250 H 0.26146 0.36521 0.94778 0.0
H2251 H 0.36789 0.32177 0.95915 0.0
H2252 H 0.38596 0.44442 0.97063 0.0
H2253 H 0.36483 0.37951 0.96955 0.0
H2254 H 0.30277 0.40569 0.93809 0.0
H2255 H 0.32273 0.47052 0.93959 0.0
C2256 C 0.26481 0.30635 0.95021 0.0
C2257 C 0.28666 0.27583 0.95374 0.0
C2258 C 0.27962 0.34229 0.95013 0.0
C2259 C 0.31682 0.34866 0.95345 0.0
C2260 C 0.33898 0.31798 0.95672 0.0
C2261 C 0.324 0.28195 0.9569 0.0
C2262 C 0.36788 0.43595 0.96351 0.0
C2263 C 0.35539 0.46213 0.95529 0.0
C2264 C 0.35597 0.39885 0.96281 0.0
C2265 C 0.33179 0.38735 0.95378 0.0
C2266 C 0.32061 0.41365 0.94532 0.0
C2267 C 0.33212 0.45069 0.94612 0.0
H2268 H 0.48691 0.57374 0.72285 0.0
H2269 H 0.46292 0.51259 0.69109 0.0
H2270 H 0.42482 0.60149 0.72222 0.0
H2271 H 0.40083 0.54036 0.6905 0.0
H2272 H 0.30363 0.62169 0.68772 0.0
H2273 H 0.36894 0.60232 0.68797 0.0
H2274 H 0.35977 0.57668 0.72485 0.0
H2275 H 0.29455 0.59653 0.72461 0.0
C2276 C 0.46855 0.56649 0.71568 0.0
C2277 C 0.47977 0.54081 0.70705 0.0
C2278 C 0.43293 0.58223 0.71536 0.0
C2279 C 0.40796 0.57298 0.70635 0.0
C2280 C 0.4196 0.54824 0.69751 0.0
C2281 C 0.45508 0.5322 0.69788 0.0
C2282 C 0.31575 0.61237 0.69591 0.0
C2283 C 0.29398 0.61006 0.70611 0.0
C2284 C 0.353 0.60103 0.69602 0.0
C2285 C 0.36933 0.5877 0.7064 0.0
C2286 C 0.34795 0.58694 0.71673 0.0
C2287 C 0.31058 0.59795 0.71658 0.0
H2288 H 0.24573 0.29543 0.09602 0.0
H2289 H 0.18421 0.27098 0.06438 0.0
H2290 H 0.21771 0.35746 0.09663 0.0
H2291 H 0.15623 0.33302 0.06503 0.0
H2292 H 0.16076 0.46343 0.06259 0.0
H2293 H 0.18078 0.39821 0.06234 0.0
H2294 H 0.15565 0.38911 0.09926 0.0
H2295 H 0.1361 0.45443 0.09952 0.0
C2296 C 0.22599 0.30316 0.08926 0.0
C2297 C 0.21734 0.27836 0.08012 0.0
C2298 C 0.2098 0.3386 0.08965 0.0
C2299 C 0.18489 0.35009 0.08085 0.0
C2300 C 0.17561 0.32501 0.07186 0.0
C2301 C 0.19149 0.28943 0.07154 0.0
C2302 C 0.15948 0.44742 0.07062 0.0
C2303 C 0.14746 0.46403 0.0811 0.0
C2304 C 0.17059 0.41004 0.07047 0.0
C2305 C 0.17003 0.38869 0.08081 0.0
C2306 C 0.15678 0.40503 0.09119 0.0
C2307 C 0.14534 0.44228 0.09132 0.0
H2308 H 0.48939 0.43243 0.81519 0.0
H2309 H 0.46482 0.49369 0.84689 0.0
H2310 H 0.42703 0.40513 0.81564 0.0
H2311 H 0.40258 0.46602 0.84737 0.0
H2312 H 0.30552 0.38228 0.8493 0.0
H2313 H 0.37107 0.4013 0.84937 0.0
H2314 H 0.36173 0.43462 0.81312 0.0
H2315 H 0.29618 0.41572 0.81308 0.0
C2316 C 0.47088 0.43967 0.82234 0.0
C2317 C 0.4819 0.46536 0.83097 0.0
C2318 C 0.43517 0.42419 0.82255 0.0
C2319 C 0.41006 0.43361 0.83151 0.0
C2320 C 0.42154 0.45814 0.8404 0.0
C2321 C 0.45705 0.47409 0.8401 0.0
C2322 C 0.31768 0.39328 0.84133 0.0
C2323 C 0.29587 0.39796 0.83122 0.0
C2324 C 0.35501 0.40434 0.84139 0.0
C2325 C 0.37131 0.41953 0.83127 0.0
C2326 C 0.34984 0.42283 0.82102 0.0
C2327 C 0.31235 0.41233 0.82102 0.0
H2328 H 0.37085 0.55581 0.60041 0.0
H2329 H 0.34787 0.54745 0.56337 0.0
H2330 H 0.35181 0.62129 0.60015 0.0
H2331 H 0.32841 0.61285 0.56311 0.0
H2332 H 0.32529 0.7402 0.56541 0.0
H2333 H 0.35322 0.6781 0.56607 0.0
H2334 H 0.28974 0.65292 0.59724 0.0
H2335 H 0.26177 0.71495 0.59661 0.0
C2336 C 0.36211 0.56814 0.59219 0.0
C2337 C 0.36027 0.54652 0.58194 0.0
C2338 C 0.35097 0.60547 0.59206 0.0
C2339 C 0.33833 0.62204 0.58164 0.0
C2340 C 0.33813 0.60084 0.57127 0.0
C2341 C 0.34891 0.56337 0.57143 0.0
C2342 C 0.31757 0.72157 0.57247 0.0
C2343 C 0.29117 0.73241 0.58093 0.0
C2344 C 0.33342 0.68596 0.57281 0.0
C2345 C 0.32356 0.66067 0.58168 0.0
C2346 C 0.2981 0.67195 0.59035 0.0
C2347 C 0.28193 0.70739 0.58995 0.0
H2348 H 0.01684 0.58136 0.31967 0.0
H2349 H 0.04414 0.50574 0.34789 0.0
H2350 H 0.08018 0.60606 0.32016 0.0
H2351 H 0.10703 0.53101 0.34856 0.0
H2352 H 0.22534 0.5445 0.3352 0.0
H2353 H 0.16033 0.52593 0.33582 0.0
H2354 H 0.12694 0.64096 0.33151 0.0
H2355 H 0.19273 0.65936 0.33042 0.0
C2356 C 0.03614 0.57046 0.32611 0.0
C2357 C 0.02564 0.54122 0.33363 0.0
C2358 C 0.0724 0.58473 0.32642 0.0
C2359 C 0.09879 0.57011 0.33428 0.0
C2360 C 0.08761 0.54226 0.34221 0.0
C2361 C 0.05149 0.52791 0.34187 0.0
C2362 C 0.20416 0.56573 0.33408 0.0
C2363 C 0.21399 0.6032 0.33234 0.0
C2364 C 0.16686 0.5552 0.33469 0.0
C2365 C 0.1384 0.58198 0.33374 0.0
C2366 C 0.14822 0.61963 0.33214 0.0
C2367 C 0.18576 0.63018 0.33154 0.0
H2368 H 0.55791 0.35089 0.0792 0.0
H2369 H 0.6128 0.25227 0.09244 0.0
H2370 H 0.49848 0.31815 0.07947 0.0
H2371 H 0.55325 0.21999 0.09318 0.0
H2372 H 0.44985 0.15919 0.0802 0.0
H2373 H 0.50867 0.19267 0.08079 0.0
H2374 H 0.45062 0.29296 0.09127 0.0
H2375 H 0.3915 0.2597 0.0902 0.0
C2376 C 0.55724 0.32236 0.08232 0.0
C2377 C 0.59022 0.30418 0.08573 0.0
C2378 C 0.52304 0.30358 0.08254 0.0
C2379 C 0.52086 0.26623 0.0863 0.0
C2380 C 0.5538 0.24842 0.08999 0.0
C2381 C 0.58802 0.26705 0.08964 0.0
C2382 C 0.44959 0.18836 0.08267 0.0
C2383 C 0.41585 0.20673 0.08512 0.0
C2384 C 0.48346 0.20759 0.08309 0.0
C2385 C 0.48464 0.24565 0.0861 0.0
C2386 C 0.45088 0.26387 0.08872 0.0
C2387 C 0.41692 0.24471 0.08818 0.0
H2388 H 0.00676 0.3655 0.34131 0.0
H2389 H 0.90762 0.30856 0.32945 0.0
H2390 H 0.03999 0.30634 0.34194 0.0
H2391 H 0.94121 0.24956 0.32967 0.0
H2392 H 1.0009 0.14427 0.34103 0.0
H2393 H 0.96779 0.20343 0.34188 0.0
H2394 H 0.06645 0.26042 0.32958 0.0
H2395 H 0.09996 0.20135 0.32915 0.0
C2396 C 0.99205 0.34037 0.33879 0.0
C2397 C 0.95447 0.34187 0.33532 0.0
C2398 C 0.01123 0.30639 0.33908 0.0
C2399 C 0.99346 0.273 0.33581 0.0
C2400 C 0.95575 0.27451 0.33242 0.0
C2401 C 0.93647 0.30846 0.33223 0.0
C2402 C 0.01562 0.16943 0.33855 0.0
C2403 C 0.05314 0.16797 0.335 0.0
C2404 C 0.9965 0.20342 0.33897 0.0
C2405 C 0.01426 0.23688 0.33575 0.0
C2406 C 0.05192 0.23541 0.3323 0.0
C2407 C 0.07115 0.20143 0.33198 0.0
H2408 H 0.0597 0.84979 0.59141 0.0
H2409 H 0.11483 0.74994 0.57926 0.0
H2410 H 1.00077 0.81633 0.59221 0.0
H2411 H 0.05565 0.71687 0.57945 0.0
H2412 H 0.94941 0.65693 0.58975 0.0
H2413 H 0.00883 0.6897 0.59071 0.0
H2414 H 0.95379 0.79205 0.58054 0.0
H2415 H 0.8944 0.75966 0.5802 0.0
C2416 C 0.05918 0.82071 0.58883 0.0
C2417 C 0.092 0.80258 0.58527 0.0
C2418 C 0.02525 0.8015 0.5892 0.0
C2419 C 0.02306 0.76376 0.58582 0.0
C2420 C 0.05608 0.74563 0.58232 0.0
C2421 C 0.09011 0.7647 0.58214 0.0
C2422 C 0.95005 0.68648 0.58778 0.0
C2423 C 0.91711 0.70566 0.58493 0.0
C2424 C 0.98423 0.70531 0.58825 0.0
C2425 C 0.98646 0.74371 0.58569 0.0
C2426 C 0.95336 0.76275 0.58282 0.0
C2427 C 0.91917 0.74406 0.58254 0.0
H2428 H 0.40483 0.80725 0.83926 0.0
H2429 H 0.50693 0.86297 0.82956 0.0
H2430 H 0.43787 0.74785 0.83992 0.0
H2431 H 0.53955 0.80366 0.82959 0.0
H2432 H 0.59812 0.69779 0.84016 0.0
H2433 H 0.5644 0.75662 0.8411 0.0
H2434 H 0.46501 0.7014 0.82852 0.0
H2435 H 0.49835 0.64233 0.82821 0.0
C2436 C 0.43428 0.80676 0.83718 0.0
C2437 C 0.45324 0.83988 0.8344 0.0
C2438 C 0.45327 0.77262 0.83748 0.0
C2439 C 0.49158 0.77063 0.83481 0.0
C2440 C 0.51035 0.8039 0.83196 0.0
C2441 C 0.49153 0.83804 0.83186 0.0
C2442 C 0.56902 0.69824 0.83764 0.0
C2443 C 0.55096 0.66536 0.8341 0.0
C2444 C 0.54965 0.73209 0.8381 0.0
C2445 C 0.51184 0.73414 0.83481 0.0
C2446 C 0.49383 0.70107 0.83132 0.0
C2447 C 0.51305 0.66711 0.83106 0.0
H2448 H 0.5535 0.65607 0.45982 0.0
H2449 H 0.60894 0.7543 0.44655 0.0
H2450 H 0.4943 0.6895 0.45973 0.0
H2451 H 0.54977 0.78719 0.446 0.0
H2452 H 0.44711 0.84932 0.45871 0.0
H2453 H 0.50553 0.81499 0.45841 0.0
H2454 H 0.4466 0.7153 0.44793 0.0
H2455 H 0.38791 0.74941 0.44869 0.0
C2456 C 0.55301 0.68465 0.45676 0.0
C2457 C 0.58607 0.70252 0.45327 0.0
C2458 C 0.51897 0.70383 0.45664 0.0
C2459 C 0.51706 0.74126 0.45292 0.0
C2460 C 0.5501 0.75874 0.44918 0.0
C2461 C 0.58412 0.73973 0.44942 0.0
C2462 C 0.44658 0.82009 0.45632 0.0
C2463 C 0.41272 0.80218 0.45374 0.0
C2464 C 0.48021 0.80037 0.45607 0.0
C2465 C 0.48104 0.76224 0.45311 0.0
C2466 C 0.44714 0.74442 0.45043 0.0
C2467 C 0.41343 0.76409 0.45079 0.0
H2468 H 0.40722 0.20119 0.70813 0.0
H2469 H 0.50576 0.14504 0.6954 0.0
H2470 H 0.4402 0.26046 0.70762 0.0
H2471 H 0.53832 0.20448 0.69441 0.0
H2472 H 0.59911 0.3086 0.70701 0.0
H2473 H 0.56561 0.24974 0.70654 0.0
H2474 H 0.46569 0.30763 0.6957 0.0
H2475 H 0.49895 0.36678 0.69666 0.0
C2476 C 0.43579 0.20154 0.70507 0.0
C2477 C 0.45387 0.16826 0.70187 0.0
C2478 C 0.45471 0.23566 0.70471 0.0
C2479 C 0.49211 0.23748 0.70101 0.0
C2480 C 0.50984 0.20422 0.69754 0.0
C2481 C 0.49105 0.17007 0.69803 0.0
C2482 C 0.57002 0.3088 0.70448 0.0
C2483 C 0.55174 0.34251 0.70191 0.0
C2484 C 0.55078 0.2749 0.70414 0.0
C2485 C 0.5128 0.27367 0.70107 0.0
C2486 C 0.49469 0.3074 0.69831 0.0
C2487 C 0.51386 0.34139 0.69878 0.0
H2488 H 0.89193 0.25175 0.94607 0.0
H2489 H 0.94844 0.34996 0.9589 0.0
H2490 H 0.95088 0.21821 0.94566 0.0
H2491 H 0.0072 0.31602 0.95893 0.0
H2492 H 0.11291 0.25589 0.94802 0.0
H2493 H 0.05421 0.28975 0.94703 0.0
H2494 H 0.99542 0.19072 0.95819 0.0
H2495 H 0.054 0.15651 0.95874 0.0
C2496 C 0.91692 0.26618 0.94884 0.0
C2497 C 0.91537 0.30358 0.95253 0.0
C2498 C 0.95077 0.24682 0.94869 0.0
C2499 C 0.98397 0.26421 0.95232 0.0
C2500 C 0.98242 0.30178 0.9559 0.0
C2501 C 0.94861 0.32125 0.95594 0.0
C2502 C 0.08745 0.24129 0.95024 0.0
C2503 C 0.08824 0.20344 0.95347 0.0
C2504 C 0.05372 0.26082 0.94973 0.0
C2505 C 0.01988 0.24313 0.95256 0.0
C2506 C 0.02073 0.2052 0.95576 0.0
C2507 C 0.05443 0.18557 0.95615 0.0
H2508 H 0.90827 0.69792 0.19685 0.0
H2509 H 0.01028 0.64394 0.20757 0.0
H2510 H 0.94076 0.75748 0.19583 0.0
H2511 H 0.04236 0.70356 0.20721 0.0
H2512 H 0.1002 0.81005 0.1967 0.0
H2513 H 0.06761 0.75056 0.19578 0.0
H2514 H 0.9661 0.80484 0.20711 0.0
H2515 H 0.99832 0.86443 0.20736 0.0
C2516 C 0.9376 0.69884 0.19907 0.0
C2517 C 0.95667 0.66616 0.20227 0.0
C2518 C 0.95627 0.7331 0.19857 0.0
C2519 C 0.99436 0.73571 0.20148 0.0
C2520 C 0.01332 0.70284 0.20467 0.0
C2521 C 0.99481 0.66853 0.20496 0.0
C2522 C 0.07086 0.80923 0.19893 0.0
C2523 C 0.05188 0.842 0.20209 0.0
C2524 C 0.05213 0.77501 0.19849 0.0
C2525 C 0.01405 0.77251 0.20143 0.0
C2526 C 0.99515 0.80547 0.20456 0.0
C2527 C 0.01372 0.83976 0.20479 0.0
H2528 H 0.39709 0.75505 0.94643 0.0
H2529 H 0.45382 0.65639 0.95886 0.0
H2530 H 0.4562 0.78806 0.94554 0.0
H2531 H 0.51287 0.68986 0.95842 0.0
H2532 H 0.61823 0.74951 0.94692 0.0
H2533 H 0.55927 0.71597 0.94616 0.0
H2534 H 0.50157 0.81514 0.9578 0.0
H2535 H 0.56026 0.84896 0.95813 0.0
C2536 C 0.42218 0.74042 0.94903 0.0
C2537 C 0.42064 0.70306 0.95275 0.0
C2538 C 0.45614 0.75947 0.94859 0.0
C2539 C 0.48947 0.74182 0.95197 0.0
C2540 C 0.48794 0.70429 0.95558 0.0
C2541 C 0.45399 0.6851 0.95591 0.0
C2542 C 0.59292 0.76422 0.94925 0.0
C2543 C 0.59405 0.80197 0.95258 0.0
C2544 C 0.55907 0.74488 0.9489 0.0
C2545 C 0.52548 0.76269 0.95196 0.0
C2546 C 0.52666 0.80056 0.9552 0.0
C2547 C 0.56045 0.81998 0.95545 0.0
H2548 H 0.99964 0.64488 0.69657 0.0
H2549 H 0.09894 0.70127 0.70855 0.0
H2550 H 0.96668 0.70414 0.69595 0.0
H2551 H 0.06557 0.76045 0.70836 0.0
H2552 H 0.00583 0.86605 0.69699 0.0
H2553 H 0.03909 0.80693 0.69623 0.0
H2554 H 0.94025 0.74983 0.70833 0.0
H2555 H 0.90663 0.8088 0.70867 0.0
C2556 C 0.01444 0.66992 0.69912 0.0
C2557 C 0.05198 0.66823 0.70263 0.0
C2558 C 0.99541 0.70396 0.69885 0.0
C2559 C 0.01326 0.73725 0.70217 0.0
C2560 C 0.05096 0.73557 0.70557 0.0
C2561 C 0.07011 0.70153 0.70575 0.0
C2562 C 0.99112 0.84086 0.69944 0.0
C2563 C 0.9535 0.84226 0.70289 0.0
C2564 C 0.01032 0.8069 0.69908 0.0
C2565 C 0.99252 0.77341 0.70226 0.0
C2566 C 0.9548 0.77485 0.70564 0.0
C2567 C 0.93551 0.80878 0.7059 0.0
H2568 H 0.95317 0.15814 0.45891 0.0
H2569 H 0.89429 0.25745 0.44808 0.0
H2570 H 0.01168 0.19222 0.45838 0.0
H2571 H 0.95308 0.29127 0.44708 0.0
H2572 H 0.05949 0.35106 0.45887 0.0
H2573 H 1.0004 0.31767 0.45883 0.0
H2574 H 0.05628 0.2191 0.44587 0.0
H2575 H 0.11546 0.25206 0.44637 0.0
C2576 C 0.95273 0.18718 0.45628 0.0
C2577 C 0.91894 0.20503 0.45356 0.0
C2578 C 0.98642 0.20674 0.45591 0.0
C2579 C 0.98735 0.24462 0.45266 0.0
C2580 C 0.95352 0.26235 0.44981 0.0
C2581 C 0.91975 0.24286 0.45031 0.0
C2582 C 0.05913 0.3223 0.45597 0.0
C2583 C 0.09231 0.30422 0.45268 0.0
C2584 C 0.02514 0.30314 0.45588 0.0
C2585 C 0.02337 0.2655 0.45239 0.0
C2586 C 0.05652 0.24776 0.44885 0.0
C2587 C 0.09053 0.26679 0.44906 0.0
H2588 H 0.49903 0.1445 0.19693 0.0
H2589 H 0.5983 0.20075 0.20901 0.0
H2590 H 0.46664 0.20402 0.19581 0.0
H2591 H 0.56551 0.26018 0.20831 0.0
H2592 H 0.50727 0.36562 0.19621 0.0
H2593 H 0.53989 0.30609 0.19572 0.0
H2594 H 0.44031 0.25057 0.20796 0.0
H2595 H 0.40735 0.30989 0.20803 0.0
C2596 C 0.51394 0.16956 0.1994 0.0
C2597 C 0.55129 0.16777 0.20308 0.0
C2598 C 0.49525 0.20375 0.19883 0.0
C2599 C 0.51329 0.23706 0.20203 0.0
C2600 C 0.5508 0.23527 0.20561 0.0
C2601 C 0.5696 0.20109 0.20608 0.0
C2602 C 0.49226 0.34068 0.19874 0.0
C2603 C 0.45465 0.34261 0.20217 0.0
C2604 C 0.51108 0.3065 0.19854 0.0
C2605 C 0.49289 0.27337 0.20185 0.0
C2606 C 0.45515 0.27532 0.20517 0.0
C2607 C 0.43624 0.30945 0.20528 0.0
H2608 H 0.61482 0.25836 0.59008 0.0
H2609 H 0.55693 0.15871 0.57908 0.0
H2610 H 0.55579 0.29176 0.59099 0.0
H2611 H 0.49812 0.19242 0.57953 0.0
H2612 H 0.39367 0.25205 0.59136 0.0
H2613 H 0.45294 0.21916 0.59191 0.0
H2614 H 0.50875 0.31795 0.57912 0.0
H2615 H 0.4496 0.35126 0.57904 0.0
C2616 C 0.58952 0.2436 0.58779 0.0
C2617 C 0.59069 0.20581 0.58451 0.0
C2618 C 0.5556 0.26286 0.58824 0.0
C2619 C 0.52197 0.24495 0.58531 0.0
C2620 C 0.52323 0.20708 0.58206 0.0
C2621 C 0.55708 0.18773 0.58173 0.0
C2622 C 0.41861 0.26684 0.58872 0.0
C2623 C 0.41679 0.30433 0.58514 0.0
C2624 C 0.45267 0.24785 0.58895 0.0
C2625 C 0.48583 0.26569 0.58549 0.0
C2626 C 0.48401 0.30335 0.58202 0.0
C2627 C 0.44997 0.32246 0.5819 0.0
H2628 H 0.50067 0.86392 0.34271 0.0
H2629 H 0.60007 0.80695 0.331 0.0
H2630 H 0.46756 0.80468 0.34338 0.0
H2631 H 0.56665 0.74797 0.33124 0.0
H2632 H 0.50735 0.64254 0.34217 0.0
H2633 H 0.54 0.70185 0.34341 0.0
H2634 H 0.44151 0.75875 0.3309 0.0
H2635 H 0.40844 0.69951 0.3301 0.0
C2636 C 0.51546 0.83877 0.34025 0.0
C2637 C 0.55306 0.84027 0.33679 0.0
C2638 C 0.49637 0.80476 0.34056 0.0
C2639 C 0.51427 0.77138 0.33732 0.0
C2640 C 0.55202 0.7729 0.33398 0.0
C2641 C 0.5712 0.80685 0.33378 0.0
C2642 C 0.49257 0.66772 0.33974 0.0
C2643 C 0.45526 0.66619 0.336 0.0
C2644 C 0.51141 0.70179 0.34037 0.0
C2645 C 0.49358 0.73525 0.33718 0.0
C2646 C 0.45607 0.73372 0.33359 0.0
C2647 C 0.43711 0.69966 0.33306 0.0
H2648 H 0.1133 0.75855 0.091 0.0
H2649 H 0.05648 0.65927 0.07915 0.0
H2650 H 0.05407 0.79143 0.09199 0.0
H2651 H 0.99733 0.69255 0.07972 0.0
H2652 H 0.89232 0.75176 0.09173 0.0
H2653 H 0.95155 0.7187 0.09218 0.0
H2654 H 0.00765 0.81798 0.07992 0.0
H2655 H 0.94859 0.8514 0.0799 0.0
C2656 C 0.08817 0.74375 0.08855 0.0
C2657 C 0.08973 0.70623 0.08498 0.0
C2658 C 0.05414 0.76273 0.08905 0.0
C2659 C 0.02074 0.74484 0.08588 0.0
C2660 C 0.0223 0.70718 0.0824 0.0
C2661 C 0.05632 0.68808 0.082 0.0
C2662 C 0.91732 0.76662 0.08919 0.0
C2663 C 0.91562 0.80429 0.08578 0.0
C2664 C 0.95134 0.74754 0.08936 0.0
C2665 C 0.98456 0.7655 0.08604 0.0
C2666 C 0.98284 0.80329 0.08272 0.0
C2667 C 0.94886 0.82247 0.08264 0.0
H2668 H 1.00178 0.36552 0.84162 0.0
H2669 H 0.10042 0.30767 0.82971 0.0
H2670 H 0.96833 0.30652 0.84252 0.0
H2671 H 0.06663 0.24889 0.83017 0.0
H2672 H 0.00674 0.14398 0.84156 0.0
H2673 H 0.04009 0.20301 0.84242 0.0
H2674 H 0.94143 0.26056 0.83035 0.0
H2675 H 0.90772 0.2017 0.82994 0.0
C2676 C 0.01633 0.34023 0.83915 0.0
C2677 C 0.05382 0.34142 0.83558 0.0
C2678 C 0.99703 0.30634 0.8396 0.0
C2679 C 0.0146 0.27275 0.83637 0.0
C2680 C 0.05224 0.27398 0.83291 0.0
C2681 C 0.07163 0.30781 0.83257 0.0
C2682 C 0.99209 0.16925 0.83914 0.0
C2683 C 0.95452 0.16801 0.83566 0.0
C2684 C 0.01133 0.20316 0.83956 0.0
C2685 C 0.99364 0.23674 0.8364 0.0
C2686 C 0.95591 0.23547 0.83303 0.0
C2687 C 0.93657 0.2016 0.83272 0.0
loop_
_geom_bond_atom_site_label_1
_geom_bond_atom_site_label_2
_geom_bond_distance
_geom_bond_site_symmetry_2
_ccdc_geom_bond_type
Co0 O3 1.970 . S
Co0 N17 1.989 . S
Co0 O25 1.967 . S
Co0 O32 1.920 . S
Co1 O4 1.966 . S
Co1 N10 2.022 . S
Co1 N18 1.993 . S
Co1 O26 1.941 . S
C2 O3 1.258 . S
C2 O4 1.263 . S
O3 Co0 1.970 . S
O3 C2 1.258 . S
O4 Co1 1.966 . S
O4 C2 1.263 . S
C5 O6 1.235 . S
C5 O32 1.289 . S
O6 C5 1.235 . S
C7 C9 1.400 . S
C7 N10 1.351 . S
C7 C12 1.501 . S
C8 C9 1.387 . S
C8 N11 1.341 . S
C9 C7 1.400 . S
C9 C8 1.387 . S
N10 Co1 2.022 . S
N10 C7 1.351 . S
N10 N11 1.365 . S
N11 C8 1.341 . S
N11 N10 1.365 . S
N11 H31 0.862 . S
C12 C7 1.501 . S
C12 H13 0.961 . S
C12 H14 0.961 . S
C12 H15 0.960 . S
H13 C12 0.961 . S
H14 C12 0.961 . S
H15 C12 0.960 . S
C16 N17 1.342 . S
C16 C20 1.401 . S
C16 C21 1.499 . S
N17 Co0 1.989 . S
N17 C16 1.342 . S
N17 N18 1.388 . S
N18 Co1 1.993 . S
N18 N17 1.388 . S
N18 C19 1.346 . S
C19 N18 1.346 . S
C19 C20 1.396 . S
C19 C29 1.510 . S
C20 C16 1.401 . S
C20 C19 1.396 . S
C21 C16 1.499 . S
C21 H22 0.959 . S
C21 H23 0.960 . S
C21 H24 0.961 . S
H22 C21 0.959 . S
H23 C21 0.960 . S
H24 C21 0.961 . S
O25 Co0 1.967 . S
O25 C33 1.258 . S
O26 Co1 1.941 . S
O26 C33 1.266 . S
H27 C29 0.959 . S
H28 C29 0.961 . S
C29 C19 1.510 . S
C29 H27 0.959 . S
C29 H28 0.961 . S
C29 H30 0.960 . S
H30 C29 0.960 . S
H31 N11 0.862 . S
O32 Co0 1.920 . S
O32 C5 1.289 . S
C33 O25 1.258 . S
C33 O26 1.266 . S
Co34 O37 1.970 . S
Co34 N51 1.989 1_545 S
Co34 O59 1.967 . S
Co34 O66 1.920 1_455 S
Co35 O38 1.966 . S
Co35 N44 2.022 . S
Co35 N52 1.993 . S
Co35 O60 1.941 . S
C36 O37 1.258 . S
C36 O38 1.263 . S
O37 Co34 1.970 . S
O37 C36 1.258 . S
O38 Co35 1.966 . S
O38 C36 1.263 . S
C39 O40 1.235 . S
C39 O66 1.289 1_565 S
O40 C39 1.235 . S
C41 C43 1.400 . S
C41 N44 1.351 . S
C41 C46 1.501 . S
C42 C43 1.387 . S
C42 N45 1.341 . S
C43 C41 1.400 . S
C43 C42 1.387 . S
N44 Co35 2.022 . S
N44 C41 1.351 . S
N44 N45 1.365 . S
N45 C42 1.341 . S
N45 N44 1.365 . S
N45 H65 0.862 . S
C46 C41 1.501 . S
C46 H47 0.961 . S
C46 H48 0.961 1_545 S
C46 H49 0.960 . S
H47 C46 0.961 . S
H48 C46 0.961 1_565 S
H49 C46 0.960 . S
C50 N51 1.342 . S
C50 C54 1.401 . S
C50 C55 1.499 . S
N51 Co34 1.989 1_565 S
N51 C50 1.342 . S
N51 N52 1.388 1_565 S
N52 Co35 1.993 . S
N52 N51 1.388 1_545 S
N52 C53 1.346 1_545 S
C53 N52 1.346 1_565 S
C53 C54 1.396 . S
C53 C63 1.510 . S
C54 C50 1.401 . S
C54 C53 1.396 . S
C55 C50 1.499 . S
C55 H56 0.959 1_455 S
C55 H57 0.960 . S
C55 H58 0.961 . S
H56 C55 0.959 1_655 S
H57 C55 0.960 . S
H58 C55 0.961 . S
O59 Co34 1.967 . S
O59 C67 1.258 . S
O60 Co35 1.941 . S
O60 C67 1.266 . S
H61 C63 0.959 . S
H62 C63 0.961 . S
C63 C53 1.510 . S
C63 H61 0.959 . S
C63 H62 0.961 . S
C63 H64 0.960 . S
H64 C63 0.960 . S
H65 N45 0.862 . S
O66 Co34 1.920 1_655 S
O66 C39 1.289 1_545 S
C67 O59 1.258 . S
C67 O60 1.266 . S
Co68 O71 1.970 . S
Co68 N85 1.989 . S
Co68 O93 1.967 . S
Co68 O100 1.920 . S
Co69 O72 1.966 . S
Co69 N78 2.022 . S
Co69 N86 1.993 . S
Co69 O94 1.941 . S
C70 O71 1.258 . S
C70 O72 1.263 . S
O71 Co68 1.970 . S
O71 C70 1.258 . S
O72 Co69 1.966 . S
O72 C70 1.263 . S
C73 O74 1.235 . S
C73 O100 1.289 . S
O74 C73 1.235 . S
C75 C77 1.400 . S
C75 N78 1.351 . S
C75 C80 1.501 . S
C76 C77 1.387 . S
C76 N79 1.341 . S
C77 C75 1.400 . S
C77 C76 1.387 . S
N78 Co69 2.022 . S
N78 C75 1.351 . S
N78 N79 1.365 . S
N79 C76 1.341 . S
N79 N78 1.365 . S
N79 H99 0.862 . S
C80 C75 1.501 . S
C80 H81 0.961 . S
C80 H82 0.961 . S
C80 H83 0.960 . S
H81 C80 0.961 . S
H82 C80 0.961 . S
H83 C80 0.960 . S
C84 N85 1.342 . S
C84 C88 1.401 . S
C84 C89 1.499 . S
N85 Co68 1.989 . S
N85 C84 1.342 . S
N85 N86 1.388 . S
N86 Co69 1.993 . S
N86 N85 1.388 . S
N86 C87 1.346 . S
C87 N86 1.346 . S
C87 C88 1.396 . S
C87 C97 1.510 . S
C88 C84 1.401 . S
C88 C87 1.396 . S
C89 C84 1.499 . S
C89 H90 0.959 . S
C89 H91 0.960 . S
C89 H92 0.961 . S
H90 C89 0.959 . S
H91 C89 0.960 . S
H92 C89 0.961 . S
O93 Co68 1.967 . S
O93 C101 1.258 . S
O94 Co69 1.941 . S
O94 C101 1.266 . S
H95 C97 0.959 . S
H96 C97 0.961 . S
C97 C87 1.510 . S
C97 H95 0.959 . S
C97 H96 0.961 . S
C97 H98 0.960 . S
H98 C97 0.960 . S
H99 N79 0.862 . S
O100 Co68 1.920 . S
O100 C73 1.289 . S
C101 O93 1.258 . S
C101 O94 1.266 . S
Co102 O105 1.970 . S
Co102 N119 1.989 1_565 S
Co102 O127 1.967 . S
Co102 O134 1.920 . S
Co103 O106 1.966 . S
Co103 N112 2.022 . S
Co103 N120 1.993 . S
Co103 O128 1.941 . S
C104 O105 1.258 . S
C104 O106 1.263 . S
O105 Co102 1.970 . S
O105 C104 1.258 . S
O106 Co103 1.966 . S
O106 C104 1.263 . S
C107 O108 1.235 . S
C107 O134 1.289 1_545 S
O108 C107 1.235 . S
C109 C111 1.400 . S
C109 N112 1.351 . S
C109 C114 1.501 . S
C110 C111 1.387 . S
C110 N113 1.341 . S
C111 C109 1.400 . S
C111 C110 1.387 . S
N112 Co103 2.022 . S
N112 C109 1.351 . S
N112 N113 1.365 . S
N113 C110 1.341 . S
N113 N112 1.365 . S
N113 H133 0.862 . S
C114 C109 1.501 . S
C114 H115 0.961 . S
C114 H116 0.961 1_565 S
C114 H117 0.960 . S
H115 C114 0.961 . S
H116 C114 0.961 1_545 S
H117 C114 0.960 . S
C118 N119 1.342 . S
C118 C122 1.401 . S
C118 C123 1.499 . S
N119 Co102 1.989 1_545 S
N119 C118 1.342 . S
N119 N120 1.388 1_545 S
N120 Co103 1.993 . S
N120 N119 1.388 1_565 S
N120 C121 1.346 1_565 S
C121 N120 1.346 1_545 S
C121 C122 1.396 . S
C121 C131 1.510 . S
C122 C118 1.401 . S
C122 C121 1.396 . S
C123 C118 1.499 . S
C123 H124 0.959 . S
C123 H125 0.960 . S
C123 H126 0.961 . S
H124 C123 0.959 . S
H125 C123 0.960 . S
H126 C123 0.961 . S
O127 Co102 1.967 . S
O127 C135 1.258 . S
O128 Co103 1.941 . S
O128 C135 1.266 . S
H129 C131 0.959 . S
H130 C131 0.961 . S
C131 C121 1.510 . S
C131 H129 0.959 . S
C131 H130 0.961 . S
C131 H132 0.960 . S
H132 C131 0.960 . S
H133 N113 0.862 . S
O134 Co102 1.920 . S
O134 C107 1.289 1_565 S
C135 O127 1.258 . S
C135 O128 1.266 . S
Co136 O139 1.970 . S
Co136 N153 1.989 . S
Co136 O161 1.967 . S
Co136 O168 1.920 . S
Co137 O140 1.966 . S
Co137 N146 2.022 . S
Co137 N154 1.993 . S
Co137 O162 1.941 . S
C138 O139 1.258 . S
C138 O140 1.263 . S
O139 Co136 1.970 . S
O139 C138 1.258 . S
O140 Co137 1.966 . S
O140 C138 1.263 . S
C141 O142 1.235 . S
C141 O168 1.289 . S
O142 C141 1.235 . S
C143 C145 1.400 . S
C143 N146 1.351 . S
C143 C148 1.501 . S
C144 C145 1.387 . S
C144 N147 1.341 . S
C145 C143 1.400 . S
C145 C144 1.387 . S
N146 Co137 2.022 . S
N146 C143 1.351 . S
N146 N147 1.365 . S
N147 C144 1.341 . S
N147 N146 1.365 . S
N147 H167 0.862 . S
C148 C143 1.501 . S
C148 H149 0.961 . S
C148 H150 0.961 . S
C148 H151 0.960 . S
H149 C148 0.961 . S
H150 C148 0.961 . S
H151 C148 0.960 . S
C152 N153 1.342 . S
C152 C156 1.401 . S
C152 C157 1.499 . S
N153 Co136 1.989 . S
N153 C152 1.342 . S
N153 N154 1.388 . S
N154 Co137 1.993 . S
N154 N153 1.388 . S
N154 C155 1.346 . S
C155 N154 1.346 . S
C155 C156 1.396 . S
C155 C165 1.510 . S
C156 C152 1.401 . S
C156 C155 1.396 . S
C157 C152 1.499 . S
C157 H158 0.959 . S
C157 H159 0.960 . S
C157 H160 0.961 . S
H158 C157 0.959 . S
H159 C157 0.960 . S
H160 C157 0.961 . S
O161 Co136 1.967 . S
O161 C169 1.258 . S
O162 Co137 1.941 . S
O162 C169 1.266 . S
H163 C165 0.959 . S
H164 C165 0.961 . S
C165 C155 1.510 . S
C165 H163 0.959 . S
C165 H164 0.961 . S
C165 H166 0.960 . S
H166 C165 0.960 . S
H167 N147 0.862 . S
O168 Co136 1.920 . S
O168 C141 1.289 . S
C169 O161 1.258 . S
C169 O162 1.266 . S
Co170 O173 1.970 . S
Co170 N187 1.989 1_545 S
Co170 O195 1.967 . S
Co170 O202 1.920 . S
Co171 O174 1.966 . S
Co171 N180 2.022 . S
Co171 N188 1.993 . S
Co171 O196 1.941 . S
C172 O173 1.258 . S
C172 O174 1.263 . S
O173 Co170 1.970 . S
O173 C172 1.258 . S
O174 Co171 1.966 . S
O174 C172 1.263 . S
C175 O176 1.235 . S
C175 O202 1.289 1_565 S
O176 C175 1.235 . S
C177 C179 1.400 . S
C177 N180 1.351 . S
C177 C182 1.501 . S
C178 C179 1.387 . S
C178 N181 1.341 . S
C179 C177 1.400 . S
C179 C178 1.387 . S
N180 Co171 2.022 . S
N180 C177 1.351 . S
N180 N181 1.365 . S
N181 C178 1.341 . S
N181 N180 1.365 . S
N181 H201 0.862 . S
C182 C177 1.501 . S
C182 H183 0.961 . S
C182 H184 0.961 1_545 S
C182 H185 0.960 . S
H183 C182 0.961 . S
H184 C182 0.961 1_565 S
H185 C182 0.960 . S
C186 N187 1.342 . S
C186 C190 1.401 . S
C186 C191 1.499 . S
N187 Co170 1.989 1_565 S
N187 C186 1.342 . S
N187 N188 1.388 1_565 S
N188 Co171 1.993 . S
N188 N187 1.388 1_545 S
N188 C189 1.346 1_545 S
C189 N188 1.346 1_565 S
C189 C190 1.396 . S
C189 C199 1.510 . S
C190 C186 1.401 . S
C190 C189 1.396 . S
C191 C186 1.499 . S
C191 H192 0.959 . S
C191 H193 0.960 . S
C191 H194 0.961 . S
H192 C191 0.959 . S
H193 C191 0.960 . S
H194 C191 0.961 . S
O195 Co170 1.967 . S
O195 C203 1.258 . S
O196 Co171 1.941 . S
O196 C203 1.266 . S
H197 C199 0.959 . S
H198 C199 0.961 . S
C199 C189 1.510 . S
C199 H197 0.959 . S
C199 H198 0.961 . S
C199 H200 0.960 . S
H200 C199 0.960 . S
H201 N181 0.862 . S
O202 Co170 1.920 . S
O202 C175 1.289 1_545 S
C203 O195 1.258 . S
C203 O196 1.266 . S
Co204 O207 1.970 . S
Co204 N221 1.989 . S
Co204 O229 1.967 . S
Co204 O236 1.920 . S
Co205 O208 1.966 . S
Co205 N214 2.022 . S
Co205 N222 1.993 . S
Co205 O230 1.941 . S
C206 O207 1.258 . S
C206 O208 1.263 . S
O207 Co204 1.970 . S
O207 C206 1.258 . S
O208 Co205 1.966 . S
O208 C206 1.263 . S
C209 O210 1.235 . S
C209 O236 1.289 . S
O210 C209 1.235 . S
C211 C213 1.400 . S
C211 N214 1.351 . S
C211 C216 1.501 . S
C212 C213 1.387 . S
C212 N215 1.341 . S
C213 C211 1.400 . S
C213 C212 1.387 . S
N214 Co205 2.022 . S
N214 C211 1.351 . S
N214 N215 1.365 . S
N215 C212 1.341 . S
N215 N214 1.365 . S
N215 H235 0.862 . S
C216 C211 1.501 . S
C216 H217 0.961 . S
C216 H218 0.961 . S
C216 H219 0.960 . S
H217 C216 0.961 . S
H218 C216 0.961 . S
H219 C216 0.960 . S
C220 N221 1.342 . S
C220 C224 1.401 . S
C220 C225 1.499 . S
N221 Co204 1.989 . S
N221 C220 1.342 . S
N221 N222 1.388 . S
N222 Co205 1.993 . S
N222 N221 1.388 . S
N222 C223 1.346 . S
C223 N222 1.346 . S
C223 C224 1.396 . S
C223 C233 1.510 . S
C224 C220 1.401 . S
C224 C223 1.396 . S
C225 C220 1.499 . S
C225 H226 0.959 . S
C225 H227 0.960 . S
C225 H228 0.961 . S
H226 C225 0.959 . S
H227 C225 0.960 . S
H228 C225 0.961 . S
O229 Co204 1.967 . S
O229 C237 1.258 . S
O230 Co205 1.941 . S
O230 C237 1.266 . S
H231 C233 0.959 . S
H232 C233 0.961 . S
C233 C223 1.510 . S
C233 H231 0.959 . S
C233 H232 0.961 . S
C233 H234 0.960 . S
H234 C233 0.960 . S
H235 N215 0.862 . S
O236 Co204 1.920 . S
O236 C209 1.289 . S
C237 O229 1.258 . S
C237 O230 1.266 . S
Co238 O241 1.970 . S
Co238 N255 1.989 1_565 S
Co238 O263 1.967 . S
Co238 O270 1.920 1_455 S
Co239 O242 1.966 . S
Co239 N248 2.022 . S
Co239 N256 1.993 . S
Co239 O264 1.941 . S
C240 O241 1.258 . S
C240 O242 1.263 . S
O241 Co238 1.970 . S
O241 C240 1.258 . S
O242 Co239 1.966 . S
O242 C240 1.263 . S
C243 O244 1.235 . S
C243 O270 1.289 1_545 S
O244 C243 1.235 . S
C245 C247 1.400 . S
C245 N248 1.351 . S
C245 C250 1.501 . S
C246 C247 1.387 . S
C246 N249 1.341 . S
C247 C245 1.400 . S
C247 C246 1.387 . S
N248 Co239 2.022 . S
N248 C245 1.351 . S
N248 N249 1.365 . S
N249 C246 1.341 . S
N249 N248 1.365 . S
N249 H269 0.862 . S
C250 C245 1.501 . S
C250 H251 0.961 . S
C250 H252 0.961 1_565 S
C250 H253 0.960 . S
H251 C250 0.961 . S
H252 C250 0.961 1_545 S
H253 C250 0.960 . S
C254 N255 1.342 . S
C254 C258 1.401 . S
C254 C259 1.499 . S
N255 Co238 1.989 1_545 S
N255 C254 1.342 . S
N255 N256 1.388 1_545 S
N256 Co239 1.993 . S
N256 N255 1.388 1_565 S
N256 C257 1.346 1_565 S
C257 N256 1.346 1_545 S
C257 C258 1.396 . S
C257 C267 1.510 . S
C258 C254 1.401 . S
C258 C257 1.396 . S
C259 C254 1.499 . S
C259 H260 0.959 1_455 S
C259 H261 0.960 . S
C259 H262 0.961 . S
H260 C259 0.959 1_655 S
H261 C259 0.960 . S
H262 C259 0.961 . S
O263 Co238 1.967 . S
O263 C271 1.258 . S
O264 Co239 1.941 . S
O264 C271 1.266 . S
H265 C267 0.959 . S
H266 C267 0.961 . S
C267 C257 1.510 . S
C267 H265 0.959 . S
C267 H266 0.961 . S
C267 H268 0.960 . S
H268 C267 0.960 . S
H269 N249 0.862 . S
O270 Co238 1.920 1_655 S
O270 C243 1.289 1_565 S
C271 O263 1.258 . S
C271 O264 1.266 . S
Co272 O275 1.970 . S
Co272 N289 1.989 . S
Co272 O297 1.967 . S
Co272 O304 1.920 . S
Co273 O276 1.966 . S
Co273 N282 2.022 . S
Co273 N290 1.993 . S
Co273 O298 1.941 . S
C274 O275 1.258 . S
C274 O276 1.263 . S
O275 Co272 1.970 . S
O275 C274 1.258 . S
O276 Co273 1.966 . S
O276 C274 1.263 . S
C277 O278 1.235 . S
C277 O304 1.289 . S
O278 C277 1.235 . S
C279 C281 1.400 . S
C279 N282 1.351 . S
C279 C284 1.501 . S
C280 C281 1.387 . S
C280 N283 1.341 . S
C281 C279 1.400 . S
C281 C280 1.387 . S
N282 Co273 2.022 . S
N282 C279 1.351 . S
N282 N283 1.365 . S
N283 C280 1.341 . S
N283 N282 1.365 . S
N283 H303 0.862 . S
C284 C279 1.501 . S
C284 H285 0.961 . S
C284 H286 0.961 . S
C284 H287 0.960 . S
H285 C284 0.961 . S
H286 C284 0.961 . S
H287 C284 0.960 . S
C288 N289 1.342 . S
C288 C292 1.401 . S
C288 C293 1.499 . S
N289 Co272 1.989 . S
N289 C288 1.342 . S
N289 N290 1.388 . S
N290 Co273 1.993 . S
N290 N289 1.388 . S
N290 C291 1.346 . S
C291 N290 1.346 . S
C291 C292 1.396 . S
C291 C301 1.510 . S
C292 C288 1.401 . S
C292 C291 1.396 . S
C293 C288 1.499 . S
C293 H294 0.959 . S
C293 H295 0.960 . S
C293 H296 0.961 . S
H294 C293 0.959 . S
H295 C293 0.960 . S
H296 C293 0.961 . S
O297 Co272 1.967 . S
O297 C305 1.258 . S
O298 Co273 1.941 . S
O298 C305 1.266 . S
H299 C301 0.959 . S
H300 C301 0.961 . S
C301 C291 1.510 . S
C301 H299 0.959 . S
C301 H300 0.961 . S
C301 H302 0.960 . S
H302 C301 0.960 . S
H303 N283 0.862 . S
O304 Co272 1.920 . S
O304 C277 1.289 . S
C305 O297 1.258 . S
C305 O298 1.266 . S
Co306 O309 1.970 . S
Co306 N323 1.989 1_565 S
Co306 O331 1.967 . S
Co306 O338 1.920 1_655 S
Co307 O310 1.966 . S
Co307 N316 2.022 . S
Co307 N324 1.993 . S
Co307 O332 1.941 . S
C308 O309 1.258 . S
C308 O310 1.263 . S
O309 Co306 1.970 . S
O309 C308 1.258 . S
O310 Co307 1.966 . S
O310 C308 1.263 . S
C311 O312 1.235 . S
C311 O338 1.289 1_545 S
O312 C311 1.235 . S
C313 C315 1.400 . S
C313 N316 1.351 . S
C313 C318 1.501 . S
C314 C315 1.387 . S
C314 N317 1.341 . S
C315 C313 1.400 . S
C315 C314 1.387 . S
N316 Co307 2.022 . S
N316 C313 1.351 . S
N316 N317 1.365 . S
N317 C314 1.341 . S
N317 N316 1.365 . S
N317 H337 0.862 . S
C318 C313 1.501 . S
C318 H319 0.961 . S
C318 H320 0.961 1_565 S
C318 H321 0.960 . S
H319 C318 0.961 . S
H320 C318 0.961 1_545 S
H321 C318 0.960 . S
C322 N323 1.342 . S
C322 C326 1.401 . S
C322 C327 1.499 . S
N323 Co306 1.989 1_545 S
N323 C322 1.342 . S
N323 N324 1.388 1_545 S
N324 Co307 1.993 . S
N324 N323 1.388 1_565 S
N324 C325 1.346 1_565 S
C325 N324 1.346 1_545 S
C325 C326 1.396 . S
C325 C335 1.510 . S
C326 C322 1.401 . S
C326 C325 1.396 . S
C327 C322 1.499 . S
C327 H328 0.959 1_655 S
C327 H329 0.960 . S
C327 H330 0.961 . S
H328 C327 0.959 1_455 S
H329 C327 0.960 . S
H330 C327 0.961 . S
O331 Co306 1.967 . S
O331 C339 1.258 . S
O332 Co307 1.941 . S
O332 C339 1.266 . S
H333 C335 0.959 . S
H334 C335 0.961 . S
C335 C325 1.510 . S
C335 H333 0.959 . S
C335 H334 0.961 . S
C335 H336 0.960 . S
H336 C335 0.960 . S
H337 N317 0.862 . S
O338 Co306 1.920 1_455 S
O338 C311 1.289 1_565 S
C339 O331 1.258 . S
C339 O332 1.266 . S
Co340 O343 1.970 . S
Co340 N357 1.989 . S
Co340 O365 1.967 . S
Co340 O372 1.920 . S
Co341 O344 1.966 . S
Co341 N350 2.022 . S
Co341 N358 1.993 . S
Co341 O366 1.941 . S
C342 O343 1.258 . S
C342 O344 1.263 . S
O343 Co340 1.970 . S
O343 C342 1.258 . S
O344 Co341 1.966 . S
O344 C342 1.263 . S
C345 O346 1.235 . S
C345 O372 1.289 . S
O346 C345 1.235 . S
C347 C349 1.400 . S
C347 N350 1.351 . S
C347 C352 1.501 . S
C348 C349 1.387 . S
C348 N351 1.341 . S
C349 C347 1.400 . S
C349 C348 1.387 . S
N350 Co341 2.022 . S
N350 C347 1.351 . S
N350 N351 1.365 . S
N351 C348 1.341 . S
N351 N350 1.365 . S
N351 H371 0.862 . S
C352 C347 1.501 . S
C352 H353 0.961 . S
C352 H354 0.961 . S
C352 H355 0.960 . S
H353 C352 0.961 . S
H354 C352 0.961 . S
H355 C352 0.960 . S
C356 N357 1.342 . S
C356 C360 1.401 . S
C356 C361 1.499 . S
N357 Co340 1.989 . S
N357 C356 1.342 . S
N357 N358 1.388 . S
N358 Co341 1.993 . S
N358 N357 1.388 . S
N358 C359 1.346 . S
C359 N358 1.346 . S
C359 C360 1.396 . S
C359 C369 1.510 . S
C360 C356 1.401 . S
C360 C359 1.396 . S
C361 C356 1.499 . S
C361 H362 0.959 . S
C361 H363 0.960 . S
C361 H364 0.961 . S
H362 C361 0.959 . S
H363 C361 0.960 . S
H364 C361 0.961 . S
O365 Co340 1.967 . S
O365 C373 1.258 . S
O366 Co341 1.941 . S
O366 C373 1.266 . S
H367 C369 0.959 . S
H368 C369 0.961 . S
C369 C359 1.510 . S
C369 H367 0.959 . S
C369 H368 0.961 . S
C369 H370 0.960 . S
H370 C369 0.960 . S
H371 N351 0.862 . S
O372 Co340 1.920 . S
O372 C345 1.289 . S
C373 O365 1.258 . S
C373 O366 1.266 . S
Co374 O377 1.970 . S
Co374 N391 1.989 1_545 S
Co374 O399 1.967 . S
Co374 O406 1.920 . S
Co375 O378 1.966 . S
Co375 N384 2.022 . S
Co375 N392 1.993 . S
Co375 O400 1.941 . S
C376 O377 1.258 . S
C376 O378 1.263 . S
O377 Co374 1.970 . S
O377 C376 1.258 . S
O378 Co375 1.966 . S
O378 C376 1.263 . S
C379 O380 1.235 . S
C379 O406 1.289 1_565 S
O380 C379 1.235 . S
C381 C383 1.400 . S
C381 N384 1.351 . S
C381 C386 1.501 . S
C382 C383 1.387 . S
C382 N385 1.341 . S
C383 C381 1.400 . S
C383 C382 1.387 . S
N384 Co375 2.022 . S
N384 C381 1.351 . S
N384 N385 1.365 . S
N385 C382 1.341 . S
N385 N384 1.365 . S
N385 H405 0.862 . S
C386 C381 1.501 . S
C386 H387 0.961 . S
C386 H388 0.961 1_545 S
C386 H389 0.960 . S
H387 C386 0.961 . S
H388 C386 0.961 1_565 S
H389 C386 0.960 . S
C390 N391 1.342 . S
C390 C394 1.401 . S
C390 C395 1.499 . S
N391 Co374 1.989 1_565 S
N391 C390 1.342 . S
N391 N392 1.388 1_565 S
N392 Co375 1.993 . S
N392 N391 1.388 1_545 S
N392 C393 1.346 1_545 S
C393 N392 1.346 1_565 S
C393 C394 1.396 . S
C393 C403 1.510 . S
C394 C390 1.401 . S
C394 C393 1.396 . S
C395 C390 1.499 . S
C395 H396 0.959 . S
C395 H397 0.960 . S
C395 H398 0.961 . S
H396 C395 0.959 . S
H397 C395 0.960 . S
H398 C395 0.961 . S
O399 Co374 1.967 . S
O399 C407 1.258 . S
O400 Co375 1.941 . S
O400 C407 1.266 . S
H401 C403 0.959 . S
H402 C403 0.961 . S
C403 C393 1.510 . S
C403 H401 0.959 . S
C403 H402 0.961 . S
C403 H404 0.960 . S
H404 C403 0.960 . S
H405 N385 0.862 . S
O406 Co374 1.920 . S
O406 C379 1.289 1_545 S
C407 O399 1.258 . S
C407 O400 1.266 . S
Co408 O411 1.970 . S
Co408 N425 1.989 . S
Co408 O433 1.967 . S
Co408 O440 1.920 . S
Co409 O412 1.966 . S
Co409 N418 2.022 . S
Co409 N426 1.993 . S
Co409 O434 1.941 . S
C410 O411 1.258 . S
C410 O412 1.263 . S
O411 Co408 1.970 . S
O411 C410 1.258 . S
O412 Co409 1.966 . S
O412 C410 1.263 . S
C413 O414 1.235 . S
C413 O440 1.289 . S
O414 C413 1.235 . S
C415 C417 1.400 . S
C415 N418 1.351 . S
C415 C420 1.501 . S
C416 C417 1.387 . S
C416 N419 1.341 . S
C417 C415 1.400 . S
C417 C416 1.387 . S
N418 Co409 2.022 . S
N418 C415 1.351 . S
N418 N419 1.365 . S
N419 C416 1.341 . S
N419 N418 1.365 . S
N419 H439 0.862 . S
C420 C415 1.501 . S
C420 H421 0.961 . S
C420 H422 0.961 . S
C420 H423 0.960 . S
H421 C420 0.961 . S
H422 C420 0.961 . S
H423 C420 0.960 . S
C424 N425 1.342 . S
C424 C428 1.401 . S
C424 C429 1.499 . S
N425 Co408 1.989 . S
N425 C424 1.342 . S
N425 N426 1.388 . S
N426 Co409 1.993 . S
N426 N425 1.388 . S
N426 C427 1.346 . S
C427 N426 1.346 . S
C427 C428 1.396 . S
C427 C437 1.510 . S
C428 C424 1.401 . S
C428 C427 1.396 . S
C429 C424 1.499 . S
C429 H430 0.959 . S
C429 H431 0.960 . S
C429 H432 0.961 . S
H430 C429 0.959 . S
H431 C429 0.960 . S
H432 C429 0.961 . S
O433 Co408 1.967 . S
O433 C441 1.258 . S
O434 Co409 1.941 . S
O434 C441 1.266 . S
H435 C437 0.959 . S
H436 C437 0.961 . S
C437 C427 1.510 . S
C437 H435 0.959 . S
C437 H436 0.961 . S
C437 H438 0.960 . S
H438 C437 0.960 . S
H439 N419 0.862 . S
O440 Co408 1.920 . S
O440 C413 1.289 . S
C441 O433 1.258 . S
C441 O434 1.266 . S
Co442 O445 1.970 . S
Co442 N459 1.989 1_565 S
Co442 O467 1.967 . S
Co442 O474 1.920 . S
Co443 O446 1.966 . S
Co443 N452 2.022 . S
Co443 N460 1.993 . S
Co443 O468 1.941 . S
C444 O445 1.258 . S
C444 O446 1.263 . S
O445 Co442 1.970 . S
O445 C444 1.258 . S
O446 Co443 1.966 . S
O446 C444 1.263 . S
C447 O448 1.235 . S
C447 O474 1.289 1_545 S
O448 C447 1.235 . S
C449 C451 1.400 . S
C449 N452 1.351 . S
C449 C454 1.501 . S
C450 C451 1.387 . S
C450 N453 1.341 . S
C451 C449 1.400 . S
C451 C450 1.387 . S
N452 Co443 2.022 . S
N452 C449 1.351 . S
N452 N453 1.365 . S
N453 C450 1.341 . S
N453 N452 1.365 . S
N453 H473 0.862 . S
C454 C449 1.501 . S
C454 H455 0.961 . S
C454 H456 0.961 1_565 S
C454 H457 0.960 . S
H455 C454 0.961 . S
H456 C454 0.961 1_545 S
H457 C454 0.960 . S
C458 N459 1.342 . S
C458 C462 1.401 . S
C458 C463 1.499 . S
N459 Co442 1.989 1_545 S
N459 C458 1.342 . S
N459 N460 1.388 1_545 S
N460 Co443 1.993 . S
N460 N459 1.388 1_565 S
N460 C461 1.346 1_565 S
C461 N460 1.346 1_545 S
C461 C462 1.396 . S
C461 C471 1.510 . S
C462 C458 1.401 . S
C462 C461 1.396 . S
C463 C458 1.499 . S
C463 H464 0.959 . S
C463 H465 0.960 . S
C463 H466 0.961 . S
H464 C463 0.959 . S
H465 C463 0.960 . S
H466 C463 0.961 . S
O467 Co442 1.967 . S
O467 C475 1.258 . S
O468 Co443 1.941 . S
O468 C475 1.266 . S
H469 C471 0.959 . S
H470 C471 0.961 . S
C471 C461 1.510 . S
C471 H469 0.959 . S
C471 H470 0.961 . S
C471 H472 0.960 . S
H472 C471 0.960 . S
H473 N453 0.862 . S
O474 Co442 1.920 . S
O474 C447 1.289 1_565 S
C475 O467 1.258 . S
C475 O468 1.266 . S
Co476 O479 1.970 . S
Co476 N493 1.989 . S
Co476 O501 1.967 . S
Co476 O508 1.920 . S
Co477 O480 1.966 . S
Co477 N486 2.022 . S
Co477 N494 1.993 . S
Co477 O502 1.941 . S
C478 O479 1.258 . S
C478 O480 1.263 . S
O479 Co476 1.970 . S
O479 C478 1.258 . S
O480 Co477 1.966 . S
O480 C478 1.263 . S
C481 O482 1.235 . S
C481 O508 1.289 . S
O482 C481 1.235 . S
C483 C485 1.400 . S
C483 N486 1.351 . S
C483 C488 1.501 . S
C484 C485 1.387 . S
C484 N487 1.341 . S
C485 C483 1.400 . S
C485 C484 1.387 . S
N486 Co477 2.022 . S
N486 C483 1.351 . S
N486 N487 1.365 . S
N487 C484 1.341 . S
N487 N486 1.365 . S
N487 H507 0.862 . S
C488 C483 1.501 . S
C488 H489 0.961 . S
C488 H490 0.961 . S
C488 H491 0.960 . S
H489 C488 0.961 . S
H490 C488 0.961 . S
H491 C488 0.960 . S
C492 N493 1.342 . S
C492 C496 1.401 . S
C492 C497 1.499 . S
N493 Co476 1.989 . S
N493 C492 1.342 . S
N493 N494 1.388 . S
N494 Co477 1.993 . S
N494 N493 1.388 . S
N494 C495 1.346 . S
C495 N494 1.346 . S
C495 C496 1.396 . S
C495 C505 1.510 . S
C496 C492 1.401 . S
C496 C495 1.396 . S
C497 C492 1.499 . S
C497 H498 0.959 . S
C497 H499 0.960 . S
C497 H500 0.961 . S
H498 C497 0.959 . S
H499 C497 0.960 . S
H500 C497 0.961 . S
O501 Co476 1.967 . S
O501 C509 1.258 . S
O502 Co477 1.941 . S
O502 C509 1.266 . S
H503 C505 0.959 . S
H504 C505 0.961 . S
C505 C495 1.510 . S
C505 H503 0.959 . S
C505 H504 0.961 . S
C505 H506 0.960 . S
H506 C505 0.960 . S
H507 N487 0.862 . S
O508 Co476 1.920 . S
O508 C481 1.289 . S
C509 O501 1.258 . S
C509 O502 1.266 . S
Co510 O513 1.970 . S
Co510 N527 1.989 1_545 S
Co510 O535 1.967 . S
Co510 O542 1.920 1_655 S
Co511 O514 1.966 . S
Co511 N520 2.022 . S
Co511 N528 1.993 . S
Co511 O536 1.941 . S
C512 O513 1.258 . S
C512 O514 1.263 . S
O513 Co510 1.970 . S
O513 C512 1.258 . S
O514 Co511 1.966 . S
O514 C512 1.263 . S
C515 O516 1.235 . S
C515 O542 1.289 1_565 S
O516 C515 1.235 . S
C517 C519 1.400 . S
C517 N520 1.351 . S
C517 C522 1.501 . S
C518 C519 1.387 . S
C518 N521 1.341 . S
C519 C517 1.400 . S
C519 C518 1.387 . S
N520 Co511 2.022 . S
N520 C517 1.351 . S
N520 N521 1.365 . S
N521 C518 1.341 . S
N521 N520 1.365 . S
N521 H541 0.862 . S
C522 C517 1.501 . S
C522 H523 0.961 . S
C522 H524 0.961 1_545 S
C522 H525 0.960 . S
H523 C522 0.961 . S
H524 C522 0.961 1_565 S
H525 C522 0.960 . S
C526 N527 1.342 . S
C526 C530 1.401 . S
C526 C531 1.499 . S
N527 Co510 1.989 1_565 S
N527 C526 1.342 . S
N527 N528 1.388 1_565 S
N528 Co511 1.993 . S
N528 N527 1.388 1_545 S
N528 C529 1.346 1_545 S
C529 N528 1.346 1_565 S
C529 C530 1.396 . S
C529 C539 1.510 . S
C530 C526 1.401 . S
C530 C529 1.396 . S
C531 C526 1.499 . S
C531 H532 0.959 1_655 S
C531 H533 0.960 . S
C531 H534 0.961 . S
H532 C531 0.959 1_455 S
H533 C531 0.960 . S
H534 C531 0.961 . S
O535 Co510 1.967 . S
O535 C543 1.258 . S
O536 Co511 1.941 . S
O536 C543 1.266 . S
H537 C539 0.959 . S
H538 C539 0.961 . S
C539 C529 1.510 . S
C539 H537 0.959 . S
C539 H538 0.961 . S
C539 H540 0.960 . S
H540 C539 0.960 . S
H541 N521 0.862 . S
O542 Co510 1.920 1_455 S
O542 C515 1.289 1_545 S
C543 O535 1.258 . S
C543 O536 1.266 . S
Co544 O547 1.970 . S
Co544 N561 1.989 . S
Co544 O569 1.967 . S
Co544 O576 1.920 . S
Co545 O548 1.966 . S
Co545 N554 2.022 . S
Co545 N562 1.993 . S
Co545 O570 1.941 . S
C546 O547 1.258 . S
C546 O548 1.263 . S
O547 Co544 1.970 . S
O547 C546 1.258 . S
O548 Co545 1.966 . S
O548 C546 1.263 . S
C549 O550 1.235 . S
C549 O576 1.289 . S
O550 C549 1.235 . S
C551 C553 1.400 . S
C551 N554 1.351 . S
C551 C556 1.501 . S
C552 C553 1.387 . S
C552 N555 1.341 . S
C553 C551 1.400 . S
C553 C552 1.387 . S
N554 Co545 2.022 . S
N554 C551 1.351 . S
N554 N555 1.365 . S
N555 C552 1.341 . S
N555 N554 1.365 . S
N555 H575 0.862 . S
C556 C551 1.501 . S
C556 H557 0.961 . S
C556 H558 0.961 . S
C556 H559 0.960 . S
H557 C556 0.961 . S
H558 C556 0.961 . S
H559 C556 0.960 . S
C560 N561 1.342 . S
C560 C564 1.401 . S
C560 C565 1.499 . S
N561 Co544 1.989 . S
N561 C560 1.342 . S
N561 N562 1.388 . S
N562 Co545 1.993 . S
N562 N561 1.388 . S
N562 C563 1.346 . S
C563 N562 1.346 . S
C563 C564 1.396 . S
C563 C573 1.510 . S
C564 C560 1.401 . S
C564 C563 1.396 . S
C565 C560 1.499 . S
C565 H566 0.959 . S
C565 H567 0.960 . S
C565 H568 0.961 . S
H566 C565 0.959 . S
H567 C565 0.960 . S
H568 C565 0.961 . S
O569 Co544 1.967 . S
O569 C577 1.258 . S
O570 Co545 1.941 . S
O570 C577 1.266 . S
H571 C573 0.959 . S
H572 C573 0.961 . S
C573 C563 1.510 . S
C573 H571 0.959 . S
C573 H572 0.961 . S
C573 H574 0.960 . S
H574 C573 0.960 . S
H575 N555 0.862 . S
O576 Co544 1.920 . S
O576 C549 1.289 . S
C577 O569 1.258 . S
C577 O570 1.266 . S
Co578 O581 1.970 . S
Co578 N595 1.989 . S
Co578 O603 1.967 . S
Co578 O610 1.920 . S
Co579 O582 1.966 . S
Co579 N588 2.022 . S
Co579 N596 1.993 . S
Co579 O604 1.941 . S
C580 O581 1.258 . S
C580 O582 1.263 . S
O581 Co578 1.970 . S
O581 C580 1.258 . S
O582 Co579 1.966 . S
O582 C580 1.263 . S
C583 O584 1.235 . S
C583 O610 1.289 . S
O584 C583 1.235 . S
C585 C587 1.400 . S
C585 N588 1.351 . S
C585 C590 1.501 . S
C586 C587 1.387 . S
C586 N589 1.341 . S
C587 C585 1.400 . S
C587 C586 1.387 . S
N588 Co579 2.022 . S
N588 C585 1.351 . S
N588 N589 1.365 . S
N589 C586 1.341 . S
N589 N588 1.365 . S
N589 H609 0.862 . S
C590 C585 1.501 . S
C590 H591 0.961 . S
C590 H592 0.961 . S
C590 H593 0.960 . S
H591 C590 0.961 . S
H592 C590 0.961 . S
H593 C590 0.960 . S
C594 N595 1.342 . S
C594 C598 1.401 . S
C594 C599 1.499 . S
N595 Co578 1.989 . S
N595 C594 1.342 . S
N595 N596 1.388 . S
N596 Co579 1.993 . S
N596 N595 1.388 . S
N596 C597 1.346 . S
C597 N596 1.346 . S
C597 C598 1.396 . S
C597 C607 1.510 . S
C598 C594 1.401 . S
C598 C597 1.396 . S
C599 C594 1.499 . S
C599 H600 0.959 . S
C599 H601 0.960 . S
C599 H602 0.961 . S
H600 C599 0.959 . S
H601 C599 0.960 . S
H602 C599 0.961 . S
O603 Co578 1.967 . S
O603 C611 1.258 . S
O604 Co579 1.941 . S
O604 C611 1.266 . S
H605 C607 0.959 . S
H606 C607 0.961 . S
C607 C597 1.510 . S
C607 H605 0.959 . S
C607 H606 0.961 . S
C607 H608 0.960 . S
H608 C607 0.960 . S
H609 N589 0.862 . S
O610 Co578 1.920 . S
O610 C583 1.289 . S
C611 O603 1.258 . S
C611 O604 1.266 . S
Co612 O615 1.970 . S
Co612 N629 1.989 . S
Co612 O637 1.967 . S
Co612 O644 1.920 . S
Co613 O616 1.966 . S
Co613 N622 2.022 . S
Co613 N630 1.993 . S
Co613 O638 1.941 . S
C614 O615 1.258 . S
C614 O616 1.263 . S
O615 Co612 1.970 . S
O615 C614 1.258 . S
O616 Co613 1.966 . S
O616 C614 1.263 . S
C617 O618 1.235 . S
C617 O644 1.289 . S
O618 C617 1.235 . S
C619 C621 1.400 . S
C619 N622 1.351 . S
C619 C624 1.501 . S
C620 C621 1.387 . S
C620 N623 1.341 . S
C621 C619 1.400 . S
C621 C620 1.387 . S
N622 Co613 2.022 . S
N622 C619 1.351 . S
N622 N623 1.365 . S
N623 C620 1.341 . S
N623 N622 1.365 . S
N623 H643 0.862 . S
C624 C619 1.501 . S
C624 H625 0.961 . S
C624 H626 0.961 . S
C624 H627 0.960 . S
H625 C624 0.961 . S
H626 C624 0.961 . S
H627 C624 0.960 . S
C628 N629 1.342 . S
C628 C632 1.401 . S
C628 C633 1.499 . S
N629 Co612 1.989 . S
N629 C628 1.342 . S
N629 N630 1.388 . S
N630 Co613 1.993 . S
N630 N629 1.388 . S
N630 C631 1.346 . S
C631 N630 1.346 . S
C631 C632 1.396 . S
C631 C641 1.510 . S
C632 C628 1.401 . S
C632 C631 1.396 . S
C633 C628 1.499 . S
C633 H634 0.959 . S
C633 H635 0.960 . S
C633 H636 0.961 . S
H634 C633 0.959 . S
H635 C633 0.960 . S
H636 C633 0.961 . S
O637 Co612 1.967 . S
O637 C645 1.258 . S
O638 Co613 1.941 . S
O638 C645 1.266 . S
H639 C641 0.959 . S
H640 C641 0.961 . S
C641 C631 1.510 . S
C641 H639 0.959 . S
C641 H640 0.961 . S
C641 H642 0.960 . S
H642 C641 0.960 . S
H643 N623 0.862 . S
O644 Co612 1.920 . S
O644 C617 1.289 . S
C645 O637 1.258 . S
C645 O638 1.266 . S
Co646 O649 1.970 . S
Co646 N663 1.989 . S
Co646 O671 1.967 . S
Co646 O678 1.920 1_655 S
Co647 O650 1.966 . S
Co647 N656 2.022 . S
Co647 N664 1.993 . S
Co647 O672 1.941 . S
C648 O649 1.258 . S
C648 O650 1.263 . S
O649 Co646 1.970 . S
O649 C648 1.258 . S
O650 Co647 1.966 . S
O650 C648 1.263 . S
C651 O652 1.235 . S
C651 O678 1.289 . S
O652 C651 1.235 . S
C653 C655 1.400 . S
C653 N656 1.351 . S
C653 C658 1.501 . S
C654 C655 1.387 . S
C654 N657 1.341 . S
C655 C653 1.400 . S
C655 C654 1.387 . S
N656 Co647 2.022 . S
N656 C653 1.351 . S
N656 N657 1.365 . S
N657 C654 1.341 . S
N657 N656 1.365 . S
N657 H677 0.862 . S
C658 C653 1.501 . S
C658 H659 0.961 . S
C658 H660 0.961 . S
C658 H661 0.960 . S
H659 C658 0.961 . S
H660 C658 0.961 . S
H661 C658 0.960 . S
C662 N663 1.342 . S
C662 C666 1.401 . S
C662 C667 1.499 . S
N663 Co646 1.989 . S
N663 C662 1.342 . S
N663 N664 1.388 . S
N664 Co647 1.993 . S
N664 N663 1.388 . S
N664 C665 1.346 . S
C665 N664 1.346 . S
C665 C666 1.396 . S
C665 C675 1.510 . S
C666 C662 1.401 . S
C666 C665 1.396 . S
C667 C662 1.499 . S
C667 H668 0.959 1_655 S
C667 H669 0.960 . S
C667 H670 0.961 . S
H668 C667 0.959 1_455 S
H669 C667 0.960 . S
H670 C667 0.961 . S
O671 Co646 1.967 . S
O671 C679 1.258 . S
O672 Co647 1.941 . S
O672 C679 1.266 . S
H673 C675 0.959 . S
H674 C675 0.961 . S
C675 C665 1.510 . S
C675 H673 0.959 . S
C675 H674 0.961 . S
C675 H676 0.960 . S
H676 C675 0.960 . S
H677 N657 0.862 . S
O678 Co646 1.920 1_455 S
O678 C651 1.289 . S
C679 O671 1.258 . S
C679 O672 1.266 . S
Co680 O683 1.970 . S
Co680 N697 1.989 . S
Co680 O705 1.967 . S
Co680 O712 1.920 . S
Co681 O684 1.966 . S
Co681 N690 2.022 . S
Co681 N698 1.993 . S
Co681 O706 1.941 . S
C682 O683 1.258 . S
C682 O684 1.263 . S
O683 Co680 1.970 . S
O683 C682 1.258 . S
O684 Co681 1.966 . S
O684 C682 1.263 . S
C685 O686 1.235 . S
C685 O712 1.289 . S
O686 C685 1.235 . S
C687 C689 1.400 . S
C687 N690 1.351 . S
C687 C692 1.501 . S
C688 C689 1.387 . S
C688 N691 1.341 . S
C689 C687 1.400 . S
C689 C688 1.387 . S
N690 Co681 2.022 . S
N690 C687 1.351 . S
N690 N691 1.365 . S
N691 C688 1.341 . S
N691 N690 1.365 . S
N691 H711 0.862 . S
C692 C687 1.501 . S
C692 H693 0.961 . S
C692 H694 0.961 . S
C692 H695 0.960 . S
H693 C692 0.961 . S
H694 C692 0.961 . S
H695 C692 0.960 . S
C696 N697 1.342 . S
C696 C700 1.401 . S
C696 C701 1.499 . S
N697 Co680 1.989 . S
N697 C696 1.342 . S
N697 N698 1.388 . S
N698 Co681 1.993 . S
N698 N697 1.388 . S
N698 C699 1.346 . S
C699 N698 1.346 . S
C699 C700 1.396 . S
C699 C709 1.510 . S
C700 C696 1.401 . S
C700 C699 1.396 . S
C701 C696 1.499 . S
C701 H702 0.959 . S
C701 H703 0.960 . S
C701 H704 0.961 . S
H702 C701 0.959 . S
H703 C701 0.960 . S
H704 C701 0.961 . S
O705 Co680 1.967 . S
O705 C713 1.258 . S
O706 Co681 1.941 . S
O706 C713 1.266 . S
H707 C709 0.959 . S
H708 C709 0.961 . S
C709 C699 1.510 . S
C709 H707 0.959 . S
C709 H708 0.961 . S
C709 H710 0.960 . S
H710 C709 0.960 . S
H711 N691 0.862 . S
O712 Co680 1.920 . S
O712 C685 1.289 . S
C713 O705 1.258 . S
C713 O706 1.266 . S
Co714 O717 1.970 . S
Co714 N731 1.989 . S
Co714 O739 1.967 . S
Co714 O746 1.920 1_655 S
Co715 O718 1.966 . S
Co715 N724 2.022 . S
Co715 N732 1.993 . S
Co715 O740 1.941 . S
C716 O717 1.258 . S
C716 O718 1.263 . S
O717 Co714 1.970 . S
O717 C716 1.258 . S
O718 Co715 1.966 . S
O718 C716 1.263 . S
C719 O720 1.235 . S
C719 O746 1.289 . S
O720 C719 1.235 . S
C721 C723 1.400 . S
C721 N724 1.351 . S
C721 C726 1.501 . S
C722 C723 1.387 . S
C722 N725 1.341 . S
C723 C721 1.400 . S
C723 C722 1.387 . S
N724 Co715 2.022 . S
N724 C721 1.351 . S
N724 N725 1.365 . S
N725 C722 1.341 . S
N725 N724 1.365 . S
N725 H745 0.862 . S
C726 C721 1.501 . S
C726 H727 0.961 . S
C726 H728 0.961 . S
C726 H729 0.960 . S
H727 C726 0.961 . S
H728 C726 0.961 . S
H729 C726 0.960 . S
C730 N731 1.342 . S
C730 C734 1.401 . S
C730 C735 1.499 . S
N731 Co714 1.989 . S
N731 C730 1.342 . S
N731 N732 1.388 . S
N732 Co715 1.993 . S
N732 N731 1.388 . S
N732 C733 1.346 . S
C733 N732 1.346 . S
C733 C734 1.396 . S
C733 C743 1.510 . S
C734 C730 1.401 . S
C734 C733 1.396 . S
C735 C730 1.499 . S
C735 H736 0.959 1_655 S
C735 H737 0.960 . S
C735 H738 0.961 . S
H736 C735 0.959 1_455 S
H737 C735 0.960 . S
H738 C735 0.961 . S
O739 Co714 1.967 . S
O739 C747 1.258 . S
O740 Co715 1.941 . S
O740 C747 1.266 . S
H741 C743 0.959 . S
H742 C743 0.961 . S
C743 C733 1.510 . S
C743 H741 0.959 . S
C743 H742 0.961 . S
C743 H744 0.960 . S
H744 C743 0.960 . S
H745 N725 0.862 . S
O746 Co714 1.920 1_455 S
O746 C719 1.289 . S
C747 O739 1.258 . S
C747 O740 1.266 . S
Co748 O751 1.970 . S
Co748 N765 1.989 . S
Co748 O773 1.967 . S
Co748 O780 1.920 . S
Co749 O752 1.966 . S
Co749 N758 2.022 . S
Co749 N766 1.993 . S
Co749 O774 1.941 . S
C750 O751 1.258 . S
C750 O752 1.263 . S
O751 Co748 1.970 . S
O751 C750 1.258 . S
O752 Co749 1.966 . S
O752 C750 1.263 . S
C753 O754 1.235 . S
C753 O780 1.289 . S
O754 C753 1.235 . S
C755 C757 1.400 . S
C755 N758 1.351 . S
C755 C760 1.501 . S
C756 C757 1.387 . S
C756 N759 1.341 . S
C757 C755 1.400 . S
C757 C756 1.387 . S
N758 Co749 2.022 . S
N758 C755 1.351 . S
N758 N759 1.365 . S
N759 C756 1.341 . S
N759 N758 1.365 . S
N759 H779 0.862 . S
C760 C755 1.501 . S
C760 H761 0.961 . S
C760 H762 0.961 . S
C760 H763 0.960 . S
H761 C760 0.961 . S
H762 C760 0.961 . S
H763 C760 0.960 . S
C764 N765 1.342 . S
C764 C768 1.401 . S
C764 C769 1.499 . S
N765 Co748 1.989 . S
N765 C764 1.342 . S
N765 N766 1.388 . S
N766 Co749 1.993 . S
N766 N765 1.388 . S
N766 C767 1.346 . S
C767 N766 1.346 . S
C767 C768 1.396 . S
C767 C777 1.510 . S
C768 C764 1.401 . S
C768 C767 1.396 . S
C769 C764 1.499 . S
C769 H770 0.959 . S
C769 H771 0.960 . S
C769 H772 0.961 . S
H770 C769 0.959 . S
H771 C769 0.960 . S
H772 C769 0.961 . S
O773 Co748 1.967 . S
O773 C781 1.258 . S
O774 Co749 1.941 . S
O774 C781 1.266 . S
H775 C777 0.959 . S
H776 C777 0.961 . S
C777 C767 1.510 . S
C777 H775 0.959 . S
C777 H776 0.961 . S
C777 H778 0.960 . S
H778 C777 0.960 . S
H779 N759 0.862 . S
O780 Co748 1.920 . S
O780 C753 1.289 . S
C781 O773 1.258 . S
C781 O774 1.266 . S
Co782 O785 1.970 . S
Co782 N799 1.989 . S
Co782 O807 1.967 . S
Co782 O814 1.920 . S
Co783 O786 1.966 . S
Co783 N792 2.022 . S
Co783 N800 1.993 . S
Co783 O808 1.941 . S
C784 O785 1.258 . S
C784 O786 1.263 . S
O785 Co782 1.970 . S
O785 C784 1.258 . S
O786 Co783 1.966 . S
O786 C784 1.263 . S
C787 O788 1.235 . S
C787 O814 1.289 . S
O788 C787 1.235 . S
C789 C791 1.400 . S
C789 N792 1.351 . S
C789 C794 1.501 . S
C790 C791 1.387 . S
C790 N793 1.341 . S
C791 C789 1.400 . S
C791 C790 1.387 . S
N792 Co783 2.022 . S
N792 C789 1.351 . S
N792 N793 1.365 . S
N793 C790 1.341 . S
N793 N792 1.365 . S
N793 H813 0.862 . S
C794 C789 1.501 . S
C794 H795 0.961 . S
C794 H796 0.961 . S
C794 H797 0.960 . S
H795 C794 0.961 . S
H796 C794 0.961 . S
H797 C794 0.960 . S
C798 N799 1.342 . S
C798 C802 1.401 . S
C798 C803 1.499 . S
N799 Co782 1.989 . S
N799 C798 1.342 . S
N799 N800 1.388 . S
N800 Co783 1.993 . S
N800 N799 1.388 . S
N800 C801 1.346 . S
C801 N800 1.346 . S
C801 C802 1.396 . S
C801 C811 1.510 . S
C802 C798 1.401 . S
C802 C801 1.396 . S
C803 C798 1.499 . S
C803 H804 0.959 . S
C803 H805 0.960 . S
C803 H806 0.961 . S
H804 C803 0.959 . S
H805 C803 0.960 . S
H806 C803 0.961 . S
O807 Co782 1.967 . S
O807 C815 1.258 . S
O808 Co783 1.941 . S
O808 C815 1.266 . S
H809 C811 0.959 . S
H810 C811 0.961 . S
C811 C801 1.510 . S
C811 H809 0.959 . S
C811 H810 0.961 . S
C811 H812 0.960 . S
H812 C811 0.960 . S
H813 N793 0.862 . S
O814 Co782 1.920 . S
O814 C787 1.289 . S
C815 O807 1.258 . S
C815 O808 1.266 . S
Co816 O819 1.970 . S
Co816 N833 1.989 . S
Co816 O841 1.967 . S
Co816 O848 1.920 . S
Co817 O820 1.966 . S
Co817 N826 2.022 . S
Co817 N834 1.993 . S
Co817 O842 1.941 . S
C818 O819 1.258 . S
C818 O820 1.263 . S
O819 Co816 1.970 . S
O819 C818 1.258 . S
O820 Co817 1.966 . S
O820 C818 1.263 . S
C821 O822 1.235 . S
C821 O848 1.289 . S
O822 C821 1.235 . S
C823 C825 1.400 . S
C823 N826 1.351 . S
C823 C828 1.501 . S
C824 C825 1.387 . S
C824 N827 1.341 . S
C825 C823 1.400 . S
C825 C824 1.387 . S
N826 Co817 2.022 . S
N826 C823 1.351 . S
N826 N827 1.365 . S
N827 C824 1.341 . S
N827 N826 1.365 . S
N827 H847 0.862 . S
C828 C823 1.501 . S
C828 H829 0.961 . S
C828 H830 0.961 . S
C828 H831 0.960 . S
H829 C828 0.961 . S
H830 C828 0.961 . S
H831 C828 0.960 . S
C832 N833 1.342 . S
C832 C836 1.401 . S
C832 C837 1.499 . S
N833 Co816 1.989 . S
N833 C832 1.342 . S
N833 N834 1.388 . S
N834 Co817 1.993 . S
N834 N833 1.388 . S
N834 C835 1.346 . S
C835 N834 1.346 . S
C835 C836 1.396 . S
C835 C845 1.510 . S
C836 C832 1.401 . S
C836 C835 1.396 . S
C837 C832 1.499 . S
C837 H838 0.959 . S
C837 H839 0.960 . S
C837 H840 0.961 . S
H838 C837 0.959 . S
H839 C837 0.960 . S
H840 C837 0.961 . S
O841 Co816 1.967 . S
O841 C849 1.258 . S
O842 Co817 1.941 . S
O842 C849 1.266 . S
H843 C845 0.959 . S
H844 C845 0.961 . S
C845 C835 1.510 . S
C845 H843 0.959 . S
C845 H844 0.961 . S
C845 H846 0.960 . S
H846 C845 0.960 . S
H847 N827 0.862 . S
O848 Co816 1.920 . S
O848 C821 1.289 . S
C849 O841 1.258 . S
C849 O842 1.266 . S
Co850 O853 1.970 . S
Co850 N867 1.989 . S
Co850 O875 1.967 . S
Co850 O882 1.920 . S
Co851 O854 1.966 . S
Co851 N860 2.022 . S
Co851 N868 1.993 . S
Co851 O876 1.941 . S
C852 O853 1.258 . S
C852 O854 1.263 . S
O853 Co850 1.970 . S
O853 C852 1.258 . S
O854 Co851 1.966 . S
O854 C852 1.263 . S
C855 O856 1.235 . S
C855 O882 1.289 . S
O856 C855 1.235 . S
C857 C859 1.400 . S
C857 N860 1.351 . S
C857 C862 1.501 . S
C858 C859 1.387 . S
C858 N861 1.341 . S
C859 C857 1.400 . S
C859 C858 1.387 . S
N860 Co851 2.022 . S
N860 C857 1.351 . S
N860 N861 1.365 . S
N861 C858 1.341 . S
N861 N860 1.365 . S
N861 H881 0.862 . S
C862 C857 1.501 . S
C862 H863 0.961 . S
C862 H864 0.961 . S
C862 H865 0.960 . S
H863 C862 0.961 . S
H864 C862 0.961 . S
H865 C862 0.960 . S
C866 N867 1.342 . S
C866 C870 1.401 . S
C866 C871 1.499 . S
N867 Co850 1.989 . S
N867 C866 1.342 . S
N867 N868 1.388 . S
N868 Co851 1.993 . S
N868 N867 1.388 . S
N868 C869 1.346 . S
C869 N868 1.346 . S
C869 C870 1.396 . S
C869 C879 1.510 . S
C870 C866 1.401 . S
C870 C869 1.396 . S
C871 C866 1.499 . S
C871 H872 0.959 . S
C871 H873 0.960 . S
C871 H874 0.961 . S
H872 C871 0.959 . S
H873 C871 0.960 . S
H874 C871 0.961 . S
O875 Co850 1.967 . S
O875 C883 1.258 . S
O876 Co851 1.941 . S
O876 C883 1.266 . S
H877 C879 0.959 . S
H878 C879 0.961 . S
C879 C869 1.510 . S
C879 H877 0.959 . S
C879 H878 0.961 . S
C879 H880 0.960 . S
H880 C879 0.960 . S
H881 N861 0.862 . S
O882 Co850 1.920 . S
O882 C855 1.289 . S
C883 O875 1.258 . S
C883 O876 1.266 . S
Co884 O887 1.970 . S
Co884 N901 1.989 . S
Co884 O909 1.967 . S
Co884 O916 1.920 . S
Co885 O888 1.966 . S
Co885 N894 2.022 . S
Co885 N902 1.993 . S
Co885 O910 1.941 . S
C886 O887 1.258 . S
C886 O888 1.263 . S
O887 Co884 1.970 . S
O887 C886 1.258 . S
O888 Co885 1.966 . S
O888 C886 1.263 . S
C889 O890 1.235 . S
C889 O916 1.289 . S
O890 C889 1.235 . S
C891 C893 1.400 . S
C891 N894 1.351 . S
C891 C896 1.501 . S
C892 C893 1.387 . S
C892 N895 1.341 . S
C893 C891 1.400 . S
C893 C892 1.387 . S
N894 Co885 2.022 . S
N894 C891 1.351 . S
N894 N895 1.365 . S
N895 C892 1.341 . S
N895 N894 1.365 . S
N895 H915 0.862 . S
C896 C891 1.501 . S
C896 H897 0.961 . S
C896 H898 0.961 . S
C896 H899 0.960 . S
H897 C896 0.961 . S
H898 C896 0.961 . S
H899 C896 0.960 . S
C900 N901 1.342 . S
C900 C904 1.401 . S
C900 C905 1.499 . S
N901 Co884 1.989 . S
N901 C900 1.342 . S
N901 N902 1.388 . S
N902 Co885 1.993 . S
N902 N901 1.388 . S
N902 C903 1.346 . S
C903 N902 1.346 . S
C903 C904 1.396 . S
C903 C913 1.510 . S
C904 C900 1.401 . S
C904 C903 1.396 . S
C905 C900 1.499 . S
C905 H906 0.959 . S
C905 H907 0.960 . S
C905 H908 0.961 . S
H906 C905 0.959 . S
H907 C905 0.960 . S
H908 C905 0.961 . S
O909 Co884 1.967 . S
O909 C917 1.258 . S
O910 Co885 1.941 . S
O910 C917 1.266 . S
H911 C913 0.959 . S
H912 C913 0.961 . S
C913 C903 1.510 . S
C913 H911 0.959 . S
C913 H912 0.961 . S
C913 H914 0.960 . S
H914 C913 0.960 . S
H915 N895 0.862 . S
O916 Co884 1.920 . S
O916 C889 1.289 . S
C917 O909 1.258 . S
C917 O910 1.266 . S
Co918 O921 1.970 . S
Co918 N935 1.989 . S
Co918 O943 1.967 . S
Co918 O950 1.920 1_455 S
Co919 O922 1.966 . S
Co919 N928 2.022 . S
Co919 N936 1.993 . S
Co919 O944 1.941 . S
C920 O921 1.258 . S
C920 O922 1.263 . S
O921 Co918 1.970 . S
O921 C920 1.258 . S
O922 Co919 1.966 . S
O922 C920 1.263 . S
C923 O924 1.235 . S
C923 O950 1.289 . S
O924 C923 1.235 . S
C925 C927 1.400 . S
C925 N928 1.351 . S
C925 C930 1.501 . S
C926 C927 1.387 . S
C926 N929 1.341 . S
C927 C925 1.400 . S
C927 C926 1.387 . S
N928 Co919 2.022 . S
N928 C925 1.351 . S
N928 N929 1.365 . S
N929 C926 1.341 . S
N929 N928 1.365 . S
N929 H949 0.862 . S
C930 C925 1.501 . S
C930 H931 0.961 . S
C930 H932 0.961 . S
C930 H933 0.960 . S
H931 C930 0.961 . S
H932 C930 0.961 . S
H933 C930 0.960 . S
C934 N935 1.342 . S
C934 C938 1.401 . S
C934 C939 1.499 . S
N935 Co918 1.989 . S
N935 C934 1.342 . S
N935 N936 1.388 . S
N936 Co919 1.993 . S
N936 N935 1.388 . S
N936 C937 1.346 . S
C937 N936 1.346 . S
C937 C938 1.396 . S
C937 C947 1.510 . S
C938 C934 1.401 . S
C938 C937 1.396 . S
C939 C934 1.499 . S
C939 H940 0.959 1_455 S
C939 H941 0.960 . S
C939 H942 0.961 . S
H940 C939 0.959 1_655 S
H941 C939 0.960 . S
H942 C939 0.961 . S
O943 Co918 1.967 . S
O943 C951 1.258 . S
O944 Co919 1.941 . S
O944 C951 1.266 . S
H945 C947 0.959 . S
H946 C947 0.961 . S
C947 C937 1.510 . S
C947 H945 0.959 . S
C947 H946 0.961 . S
C947 H948 0.960 . S
H948 C947 0.960 . S
H949 N929 0.862 . S
O950 Co918 1.920 1_655 S
O950 C923 1.289 . S
C951 O943 1.258 . S
C951 O944 1.266 . S
Co952 O955 1.970 . S
Co952 N969 1.989 . S
Co952 O977 1.967 . S
Co952 O984 1.920 . S
Co953 O956 1.966 . S
Co953 N962 2.022 . S
Co953 N970 1.993 . S
Co953 O978 1.941 . S
C954 O955 1.258 . S
C954 O956 1.263 . S
O955 Co952 1.970 . S
O955 C954 1.258 . S
O956 Co953 1.966 . S
O956 C954 1.263 . S
C957 O958 1.235 . S
C957 O984 1.289 . S
O958 C957 1.235 . S
C959 C961 1.400 . S
C959 N962 1.351 . S
C959 C964 1.501 . S
C960 C961 1.387 . S
C960 N963 1.341 . S
C961 C959 1.400 . S
C961 C960 1.387 . S
N962 Co953 2.022 . S
N962 C959 1.351 . S
N962 N963 1.365 . S
N963 C960 1.341 . S
N963 N962 1.365 . S
N963 H983 0.862 . S
C964 C959 1.501 . S
C964 H965 0.961 . S
C964 H966 0.961 . S
C964 H967 0.960 . S
H965 C964 0.961 . S
H966 C964 0.961 . S
H967 C964 0.960 . S
C968 N969 1.342 . S
C968 C972 1.401 . S
C968 C973 1.499 . S
N969 Co952 1.989 . S
N969 C968 1.342 . S
N969 N970 1.388 . S
N970 Co953 1.993 . S
N970 N969 1.388 . S
N970 C971 1.346 . S
C971 N970 1.346 . S
C971 C972 1.396 . S
C971 C981 1.510 . S
C972 C968 1.401 . S
C972 C971 1.396 . S
C973 C968 1.499 . S
C973 H974 0.959 . S
C973 H975 0.960 . S
C973 H976 0.961 . S
H974 C973 0.959 . S
H975 C973 0.960 . S
H976 C973 0.961 . S
O977 Co952 1.967 . S
O977 C985 1.258 . S
O978 Co953 1.941 . S
O978 C985 1.266 . S
H979 C981 0.959 . S
H980 C981 0.961 . S
C981 C971 1.510 . S
C981 H979 0.959 . S
C981 H980 0.961 . S
C981 H982 0.960 . S
H982 C981 0.960 . S
H983 N963 0.862 . S
O984 Co952 1.920 . S
O984 C957 1.289 . S
C985 O977 1.258 . S
C985 O978 1.266 . S
Co986 O989 1.970 . S
Co986 N1003 1.989 . S
Co986 O1011 1.967 . S
Co986 O1018 1.920 1_455 S
Co987 O990 1.966 . S
Co987 N996 2.022 . S
Co987 N1004 1.993 . S
Co987 O1012 1.941 . S
C988 O989 1.258 . S
C988 O990 1.263 . S
O989 Co986 1.970 . S
O989 C988 1.258 . S
O990 Co987 1.966 . S
O990 C988 1.263 . S
C991 O992 1.235 . S
C991 O1018 1.289 . S
O992 C991 1.235 . S
C993 C995 1.400 . S
C993 N996 1.351 . S
C993 C998 1.501 . S
C994 C995 1.387 . S
C994 N997 1.341 . S
C995 C993 1.400 . S
C995 C994 1.387 . S
N996 Co987 2.022 . S
N996 C993 1.351 . S
N996 N997 1.365 . S
N997 C994 1.341 . S
N997 N996 1.365 . S
N997 H1017 0.862 . S
C998 C993 1.501 . S
C998 H999 0.961 . S
C998 H1000 0.961 . S
C998 H1001 0.960 . S
H999 C998 0.961 . S
H1000 C998 0.961 . S
H1001 C998 0.960 . S
C1002 N1003 1.342 . S
C1002 C1006 1.401 . S
C1002 C1007 1.499 . S
N1003 Co986 1.989 . S
N1003 C1002 1.342 . S
N1003 N1004 1.388 . S
N1004 Co987 1.993 . S
N1004 N1003 1.388 . S
N1004 C1005 1.346 . S
C1005 N1004 1.346 . S
C1005 C1006 1.396 . S
C1005 C1015 1.510 . S
C1006 C1002 1.401 . S
C1006 C1005 1.396 . S
C1007 C1002 1.499 . S
C1007 H1008 0.959 1_455 S
C1007 H1009 0.960 . S
C1007 H1010 0.961 . S
H1008 C1007 0.959 1_655 S
H1009 C1007 0.960 . S
H1010 C1007 0.961 . S
O1011 Co986 1.967 . S
O1011 C1019 1.258 . S
O1012 Co987 1.941 . S
O1012 C1019 1.266 . S
H1013 C1015 0.959 . S
H1014 C1015 0.961 . S
C1015 C1005 1.510 . S
C1015 H1013 0.959 . S
C1015 H1014 0.961 . S
C1015 H1016 0.960 . S
H1016 C1015 0.960 . S
H1017 N997 0.862 . S
O1018 Co986 1.920 1_655 S
O1018 C991 1.289 . S
C1019 O1011 1.258 . S
C1019 O1012 1.266 . S
Co1020 O1023 1.970 . S
Co1020 N1037 1.989 . S
Co1020 O1045 1.967 . S
Co1020 O1052 1.920 . S
Co1021 O1024 1.966 . S
Co1021 N1030 2.022 . S
Co1021 N1038 1.993 . S
Co1021 O1046 1.941 . S
C1022 O1023 1.258 . S
C1022 O1024 1.263 . S
O1023 Co1020 1.970 . S
O1023 C1022 1.258 . S
O1024 Co1021 1.966 . S
O1024 C1022 1.263 . S
C1025 O1026 1.235 . S
C1025 O1052 1.289 . S
O1026 C1025 1.235 . S
C1027 C1029 1.400 . S
C1027 N1030 1.351 . S
C1027 C1032 1.501 . S
C1028 C1029 1.387 . S
C1028 N1031 1.341 . S
C1029 C1027 1.400 . S
C1029 C1028 1.387 . S
N1030 Co1021 2.022 . S
N1030 C1027 1.351 . S
N1030 N1031 1.365 . S
N1031 C1028 1.341 . S
N1031 N1030 1.365 . S
N1031 H1051 0.862 . S
C1032 C1027 1.501 . S
C1032 H1033 0.961 . S
C1032 H1034 0.961 . S
C1032 H1035 0.960 . S
H1033 C1032 0.961 . S
H1034 C1032 0.961 . S
H1035 C1032 0.960 . S
C1036 N1037 1.342 . S
C1036 C1040 1.401 . S
C1036 C1041 1.499 . S
N1037 Co1020 1.989 . S
N1037 C1036 1.342 . S
N1037 N1038 1.388 . S
N1038 Co1021 1.993 . S
N1038 N1037 1.388 . S
N1038 C1039 1.346 . S
C1039 N1038 1.346 . S
C1039 C1040 1.396 . S
C1039 C1049 1.510 . S
C1040 C1036 1.401 . S
C1040 C1039 1.396 . S
C1041 C1036 1.499 . S
C1041 H1042 0.959 . S
C1041 H1043 0.960 . S
C1041 H1044 0.961 . S
H1042 C1041 0.959 . S
H1043 C1041 0.960 . S
H1044 C1041 0.961 . S
O1045 Co1020 1.967 . S
O1045 C1053 1.258 . S
O1046 Co1021 1.941 . S
O1046 C1053 1.266 . S
H1047 C1049 0.959 . S
H1048 C1049 0.961 . S
C1049 C1039 1.510 . S
C1049 H1047 0.959 . S
C1049 H1048 0.961 . S
C1049 H1050 0.960 . S
H1050 C1049 0.960 . S
H1051 N1031 0.862 . S
O1052 Co1020 1.920 . S
O1052 C1025 1.289 . S
C1053 O1045 1.258 . S
C1053 O1046 1.266 . S
Co1054 O1057 1.970 . S
Co1054 N1071 1.989 . S
Co1054 O1079 1.967 . S
Co1054 O1086 1.920 . S
Co1055 O1058 1.966 . S
Co1055 N1064 2.022 . S
Co1055 N1072 1.993 . S
Co1055 O1080 1.941 . S
C1056 O1057 1.258 . S
C1056 O1058 1.263 . S
O1057 Co1054 1.970 . S
O1057 C1056 1.258 . S
O1058 Co1055 1.966 . S
O1058 C1056 1.263 . S
C1059 O1060 1.235 . S
C1059 O1086 1.289 . S
O1060 C1059 1.235 . S
C1061 C1063 1.400 . S
C1061 N1064 1.351 . S
C1061 C1066 1.501 . S
C1062 C1063 1.387 . S
C1062 N1065 1.341 . S
C1063 C1061 1.400 . S
C1063 C1062 1.387 . S
N1064 Co1055 2.022 . S
N1064 C1061 1.351 . S
N1064 N1065 1.365 . S
N1065 C1062 1.341 . S
N1065 N1064 1.365 . S
N1065 H1085 0.862 . S
C1066 C1061 1.501 . S
C1066 H1067 0.961 . S
C1066 H1068 0.961 . S
C1066 H1069 0.960 . S
H1067 C1066 0.961 . S
H1068 C1066 0.961 . S
H1069 C1066 0.960 . S
C1070 N1071 1.342 . S
C1070 C1074 1.401 . S
C1070 C1075 1.499 . S
N1071 Co1054 1.989 . S
N1071 C1070 1.342 . S
N1071 N1072 1.388 . S
N1072 Co1055 1.993 . S
N1072 N1071 1.388 . S
N1072 C1073 1.346 . S
C1073 N1072 1.346 . S
C1073 C1074 1.396 . S
C1073 C1083 1.510 . S
C1074 C1070 1.401 . S
C1074 C1073 1.396 . S
C1075 C1070 1.499 . S
C1075 H1076 0.959 . S
C1075 H1077 0.960 . S
C1075 H1078 0.961 . S
H1076 C1075 0.959 . S
H1077 C1075 0.960 . S
H1078 C1075 0.961 . S
O1079 Co1054 1.967 . S
O1079 C1087 1.258 . S
O1080 Co1055 1.941 . S
O1080 C1087 1.266 . S
H1081 C1083 0.959 . S
H1082 C1083 0.961 . S
C1083 C1073 1.510 . S
C1083 H1081 0.959 . S
C1083 H1082 0.961 . S
C1083 H1084 0.960 . S
H1084 C1083 0.960 . S
H1085 N1065 0.862 . S
O1086 Co1054 1.920 . S
O1086 C1059 1.289 . S
C1087 O1079 1.258 . S
C1087 O1080 1.266 . S
H1088 C1096 0.950 . S
H1089 C1101 0.950 . S
H1090 C1098 0.950 . S
H1091 C1100 0.950 . S
H1092 C1102 0.950 . S
H1093 C1104 0.950 . S
H1094 C1106 0.950 . S
H1095 C1107 0.950 . S
C1096 H1088 0.950 . S
C1096 C1097 1.386 . S
C1096 C1098 1.391 . S
C1097 C1096 1.386 . S
C1097 C1101 1.393 . S
C1098 H1090 0.950 . S
C1098 C1096 1.391 . S
C1098 C1099 1.400 . S
C1099 C1098 1.400 . S
C1099 C1100 1.398 . S
C1099 C1105 1.491 . S
C1100 H1091 0.950 . S
C1100 C1099 1.398 . S
C1100 C1101 1.391 . S
C1101 H1089 0.950 . S
C1101 C1097 1.393 . S
C1101 C1100 1.391 . S
C1102 H1092 0.950 . S
C1102 C1103 1.386 . S
C1102 C1104 1.391 . S
C1103 C1102 1.386 . S
C1103 C1107 1.393 . S
C1104 H1093 0.950 . S
C1104 C1102 1.391 . S
C1104 C1105 1.400 . S
C1105 C1099 1.491 . S
C1105 C1104 1.400 . S
C1105 C1106 1.398 . S
C1106 H1094 0.950 . S
C1106 C1105 1.398 . S
C1106 C1107 1.391 . S
C1107 H1095 0.950 . S
C1107 C1103 1.393 . S
C1107 C1106 1.391 . S
H1108 C1116 0.950 . S
H1109 C1121 0.950 . S
H1110 C1118 0.950 . S
H1111 C1120 0.950 . S
H1112 C1122 0.950 . S
H1113 C1124 0.950 . S
H1114 C1126 0.950 . S
H1115 C1127 0.950 . S
C1116 H1108 0.950 . S
C1116 C1117 1.386 . S
C1116 C1118 1.391 . S
C1117 C1116 1.386 . S
C1117 C1121 1.393 . S
C1118 H1110 0.950 . S
C1118 C1116 1.391 . S
C1118 C1119 1.400 . S
C1119 C1118 1.400 . S
C1119 C1120 1.398 . S
C1119 C1125 1.491 . S
C1120 H1111 0.950 . S
C1120 C1119 1.398 . S
C1120 C1121 1.391 . S
C1121 H1109 0.950 . S
C1121 C1117 1.393 . S
C1121 C1120 1.391 . S
C1122 H1112 0.950 . S
C1122 C1123 1.386 . S
C1122 C1124 1.391 . S
C1123 C1122 1.386 . S
C1123 C1127 1.393 . S
C1124 H1113 0.950 . S
C1124 C1122 1.391 . S
C1124 C1125 1.400 . S
C1125 C1119 1.491 . S
C1125 C1124 1.400 . S
C1125 C1126 1.398 . S
C1126 H1114 0.950 . S
C1126 C1125 1.398 . S
C1126 C1127 1.391 . S
C1127 H1115 0.950 . S
C1127 C1123 1.393 . S
C1127 C1126 1.391 . S
H1128 C1136 0.950 . S
H1129 C1141 0.950 . S
H1130 C1138 0.950 . S
H1131 C1140 0.950 . S
H1132 C1142 0.950 . S
H1133 C1144 0.950 . S
H1134 C1146 0.950 . S
H1135 C1147 0.950 . S
C1136 H1128 0.950 . S
C1136 C1137 1.386 . S
C1136 C1138 1.391 . S
C1137 C1136 1.386 . S
C1137 C1141 1.393 . S
C1138 H1130 0.950 . S
C1138 C1136 1.391 . S
C1138 C1139 1.400 . S
C1139 C1138 1.400 . S
C1139 C1140 1.398 . S
C1139 C1145 1.491 . S
C1140 H1131 0.950 . S
C1140 C1139 1.398 . S
C1140 C1141 1.391 . S
C1141 H1129 0.950 . S
C1141 C1137 1.393 . S
C1141 C1140 1.391 . S
C1142 H1132 0.950 . S
C1142 C1143 1.386 . S
C1142 C1144 1.391 . S
C1143 C1142 1.386 . S
C1143 C1147 1.393 . S
C1144 H1133 0.950 . S
C1144 C1142 1.391 . S
C1144 C1145 1.400 . S
C1145 C1139 1.491 . S
C1145 C1144 1.400 . S
C1145 C1146 1.398 . S
C1146 H1134 0.950 . S
C1146 C1145 1.398 . S
C1146 C1147 1.391 . S
C1147 H1135 0.950 . S
C1147 C1143 1.393 . S
C1147 C1146 1.391 . S
H1148 C1156 0.950 . S
H1149 C1161 0.950 . S
H1150 C1158 0.950 . S
H1151 C1160 0.950 . S
H1152 C1162 0.950 . S
H1153 C1164 0.950 . S
H1154 C1166 0.950 . S
H1155 C1167 0.950 . S
C1156 H1148 0.950 . S
C1156 C1157 1.386 . S
C1156 C1158 1.391 . S
C1157 C1156 1.386 . S
C1157 C1161 1.393 . S
C1158 H1150 0.950 . S
C1158 C1156 1.391 . S
C1158 C1159 1.400 . S
C1159 C1158 1.400 . S
C1159 C1160 1.398 . S
C1159 C1165 1.491 . S
C1160 H1151 0.950 . S
C1160 C1159 1.398 . S
C1160 C1161 1.391 . S
C1161 H1149 0.950 . S
C1161 C1157 1.393 . S
C1161 C1160 1.391 . S
C1162 H1152 0.950 . S
C1162 C1163 1.386 . S
C1162 C1164 1.391 . S
C1163 C1162 1.386 . S
C1163 C1167 1.393 . S
C1164 H1153 0.950 . S
C1164 C1162 1.391 . S
C1164 C1165 1.400 . S
C1165 C1159 1.491 . S
C1165 C1164 1.400 . S
C1165 C1166 1.398 . S
C1166 H1154 0.950 . S
C1166 C1165 1.398 . S
C1166 C1167 1.391 . S
C1167 H1155 0.950 . S
C1167 C1163 1.393 . S
C1167 C1166 1.391 . S
H1168 C1176 0.950 . S
H1169 C1181 0.950 . S
H1170 C1178 0.950 . S
H1171 C1180 0.950 . S
H1172 C1182 0.950 . S
H1173 C1184 0.950 . S
H1174 C1186 0.950 . S
H1175 C1187 0.950 . S
C1176 H1168 0.950 . S
C1176 C1177 1.386 . S
C1176 C1178 1.391 . S
C1177 C1176 1.386 . S
C1177 C1181 1.393 . S
C1178 H1170 0.950 . S
C1178 C1176 1.391 . S
C1178 C1179 1.400 . S
C1179 C1178 1.400 . S
C1179 C1180 1.398 . S
C1179 C1185 1.491 . S
C1180 H1171 0.950 . S
C1180 C1179 1.398 . S
C1180 C1181 1.391 . S
C1181 H1169 0.950 . S
C1181 C1177 1.393 . S
C1181 C1180 1.391 . S
C1182 H1172 0.950 . S
C1182 C1183 1.386 . S
C1182 C1184 1.391 . S
C1183 C1182 1.386 . S
C1183 C1187 1.393 . S
C1184 H1173 0.950 . S
C1184 C1182 1.391 . S
C1184 C1185 1.400 . S
C1185 C1179 1.491 . S
C1185 C1184 1.400 . S
C1185 C1186 1.398 . S
C1186 H1174 0.950 . S
C1186 C1185 1.398 . S
C1186 C1187 1.391 . S
C1187 H1175 0.950 . S
C1187 C1183 1.393 . S
C1187 C1186 1.391 . S
H1188 C1196 0.950 . S
H1189 C1201 0.950 . S
H1190 C1198 0.950 . S
H1191 C1200 0.950 . S
H1192 C1202 0.950 . S
H1193 C1204 0.950 . S
H1194 C1206 0.950 . S
H1195 C1207 0.950 . S
C1196 H1188 0.950 . S
C1196 C1197 1.386 . S
C1196 C1198 1.391 . S
C1197 C1196 1.386 . S
C1197 C1201 1.393 . S
C1198 H1190 0.950 . S
C1198 C1196 1.391 . S
C1198 C1199 1.400 . S
C1199 C1198 1.400 . S
C1199 C1200 1.398 . S
C1199 C1205 1.491 . S
C1200 H1191 0.950 . S
C1200 C1199 1.398 . S
C1200 C1201 1.391 . S
C1201 H1189 0.950 . S
C1201 C1197 1.393 . S
C1201 C1200 1.391 . S
C1202 H1192 0.950 . S
C1202 C1203 1.386 . S
C1202 C1204 1.391 . S
C1203 C1202 1.386 . S
C1203 C1207 1.393 . S
C1204 H1193 0.950 . S
C1204 C1202 1.391 . S
C1204 C1205 1.400 . S
C1205 C1199 1.491 . S
C1205 C1204 1.400 . S
C1205 C1206 1.398 . S
C1206 H1194 0.950 . S
C1206 C1205 1.398 . S
C1206 C1207 1.391 . S
C1207 H1195 0.950 . S
C1207 C1203 1.393 . S
C1207 C1206 1.391 . S
H1208 C1216 0.950 . S
H1209 C1221 0.950 . S
H1210 C1218 0.950 . S
H1211 C1220 0.950 . S
H1212 C1222 0.950 . S
H1213 C1224 0.950 . S
H1214 C1226 0.950 . S
H1215 C1227 0.950 . S
C1216 H1208 0.950 . S
C1216 C1217 1.386 . S
C1216 C1218 1.391 . S
C1217 C1216 1.386 . S
C1217 C1221 1.393 . S
C1218 H1210 0.950 . S
C1218 C1216 1.391 . S
C1218 C1219 1.400 . S
C1219 C1218 1.400 . S
C1219 C1220 1.398 . S
C1219 C1225 1.491 . S
C1220 H1211 0.950 . S
C1220 C1219 1.398 . S
C1220 C1221 1.391 . S
C1221 H1209 0.950 . S
C1221 C1217 1.393 . S
C1221 C1220 1.391 . S
C1222 H1212 0.950 . S
C1222 C1223 1.386 . S
C1222 C1224 1.391 . S
C1223 C1222 1.386 . S
C1223 C1227 1.393 . S
C1224 H1213 0.950 . S
C1224 C1222 1.391 . S
C1224 C1225 1.400 . S
C1225 C1219 1.491 . S
C1225 C1224 1.400 . S
C1225 C1226 1.398 . S
C1226 H1214 0.950 . S
C1226 C1225 1.398 . S
C1226 C1227 1.391 . S
C1227 H1215 0.950 . S
C1227 C1223 1.393 . S
C1227 C1226 1.391 . S
H1228 C1236 0.950 . S
H1229 C1241 0.950 . S
H1230 C1238 0.950 . S
H1231 C1240 0.950 . S
H1232 C1242 0.950 . S
H1233 C1244 0.950 . S
H1234 C1246 0.950 . S
H1235 C1247 0.950 . S
C1236 H1228 0.950 . S
C1236 C1237 1.386 . S
C1236 C1238 1.391 . S
C1237 C1236 1.386 . S
C1237 C1241 1.393 . S
C1238 H1230 0.950 . S
C1238 C1236 1.391 . S
C1238 C1239 1.400 . S
C1239 C1238 1.400 . S
C1239 C1240 1.398 . S
C1239 C1245 1.491 . S
C1240 H1231 0.950 . S
C1240 C1239 1.398 . S
C1240 C1241 1.391 . S
C1241 H1229 0.950 . S
C1241 C1237 1.393 . S
C1241 C1240 1.391 . S
C1242 H1232 0.950 . S
C1242 C1243 1.386 . S
C1242 C1244 1.391 . S
C1243 C1242 1.386 . S
C1243 C1247 1.393 . S
C1244 H1233 0.950 . S
C1244 C1242 1.391 . S
C1244 C1245 1.400 . S
C1245 C1239 1.491 . S
C1245 C1244 1.400 . S
C1245 C1246 1.398 . S
C1246 H1234 0.950 . S
C1246 C1245 1.398 . S
C1246 C1247 1.391 . S
C1247 H1235 0.950 . S
C1247 C1243 1.393 . S
C1247 C1246 1.391 . S
H1248 C1256 0.950 . S
H1249 C1261 0.950 . S
H1250 C1258 0.950 . S
H1251 C1260 0.950 . S
H1252 C1262 0.950 . S
H1253 C1264 0.950 . S
H1254 C1266 0.950 . S
H1255 C1267 0.950 . S
C1256 H1248 0.950 . S
C1256 C1257 1.386 . S
C1256 C1258 1.391 . S
C1257 C1256 1.386 . S
C1257 C1261 1.393 . S
C1258 H1250 0.950 . S
C1258 C1256 1.391 . S
C1258 C1259 1.400 . S
C1259 C1258 1.400 . S
C1259 C1260 1.398 . S
C1259 C1265 1.491 . S
C1260 H1251 0.950 . S
C1260 C1259 1.398 . S
C1260 C1261 1.391 . S
C1261 H1249 0.950 . S
C1261 C1257 1.393 . S
C1261 C1260 1.391 . S
C1262 H1252 0.950 . S
C1262 C1263 1.386 . S
C1262 C1264 1.391 . S
C1263 C1262 1.386 . S
C1263 C1267 1.393 . S
C1264 H1253 0.950 . S
C1264 C1262 1.391 . S
C1264 C1265 1.400 . S
C1265 C1259 1.491 . S
C1265 C1264 1.400 . S
C1265 C1266 1.398 . S
C1266 H1254 0.950 . S
C1266 C1265 1.398 . S
C1266 C1267 1.391 . S
C1267 H1255 0.950 . S
C1267 C1263 1.393 . S
C1267 C1266 1.391 . S
H1268 C1276 0.950 . S
H1269 C1281 0.950 . S
H1270 C1278 0.950 . S
H1271 C1280 0.950 . S
H1272 C1282 0.950 . S
H1273 C1284 0.950 . S
H1274 C1286 0.950 . S
H1275 C1287 0.950 . S
C1276 H1268 0.950 . S
C1276 C1277 1.386 . S
C1276 C1278 1.391 . S
C1277 C1276 1.386 . S
C1277 C1281 1.393 . S
C1278 H1270 0.950 . S
C1278 C1276 1.391 . S
C1278 C1279 1.400 . S
C1279 C1278 1.400 . S
C1279 C1280 1.398 . S
C1279 C1285 1.491 . S
C1280 H1271 0.950 . S
C1280 C1279 1.398 . S
C1280 C1281 1.391 . S
C1281 H1269 0.950 . S
C1281 C1277 1.393 . S
C1281 C1280 1.391 . S
C1282 H1272 0.950 . S
C1282 C1283 1.386 . S
C1282 C1284 1.391 . S
C1283 C1282 1.386 . S
C1283 C1287 1.393 . S
C1284 H1273 0.950 . S
C1284 C1282 1.391 . S
C1284 C1285 1.400 . S
C1285 C1279 1.491 . S
C1285 C1284 1.400 . S
C1285 C1286 1.398 . S
C1286 H1274 0.950 . S
C1286 C1285 1.398 . S
C1286 C1287 1.391 . S
C1287 H1275 0.950 . S
C1287 C1283 1.393 . S
C1287 C1286 1.391 . S
H1288 C1296 0.950 . S
H1289 C1301 0.950 . S
H1290 C1298 0.950 . S
H1291 C1300 0.950 . S
H1292 C1302 0.950 . S
H1293 C1304 0.950 . S
H1294 C1306 0.950 . S
H1295 C1307 0.950 . S
C1296 H1288 0.950 . S
C1296 C1297 1.386 . S
C1296 C1298 1.391 . S
C1297 C1296 1.386 . S
C1297 C1301 1.393 . S
C1298 H1290 0.950 . S
C1298 C1296 1.391 . S
C1298 C1299 1.400 . S
C1299 C1298 1.400 . S
C1299 C1300 1.398 . S
C1299 C1305 1.491 . S
C1300 H1291 0.950 . S
C1300 C1299 1.398 . S
C1300 C1301 1.391 . S
C1301 H1289 0.950 . S
C1301 C1297 1.393 . S
C1301 C1300 1.391 . S
C1302 H1292 0.950 . S
C1302 C1303 1.386 . S
C1302 C1304 1.391 . S
C1303 C1302 1.386 . S
C1303 C1307 1.393 . S
C1304 H1293 0.950 . S
C1304 C1302 1.391 . S
C1304 C1305 1.400 . S
C1305 C1299 1.491 . S
C1305 C1304 1.400 . S
C1305 C1306 1.398 . S
C1306 H1294 0.950 . S
C1306 C1305 1.398 . S
C1306 C1307 1.391 . S
C1307 H1295 0.950 . S
C1307 C1303 1.393 . S
C1307 C1306 1.391 . S
H1308 C1316 0.950 . S
H1309 C1321 0.950 . S
H1310 C1318 0.950 . S
H1311 C1320 0.950 . S
H1312 C1322 0.950 . S
H1313 C1324 0.950 . S
H1314 C1326 0.950 . S
H1315 C1327 0.950 . S
C1316 H1308 0.950 . S
C1316 C1317 1.386 . S
C1316 C1318 1.391 . S
C1317 C1316 1.386 . S
C1317 C1321 1.393 . S
C1318 H1310 0.950 . S
C1318 C1316 1.391 . S
C1318 C1319 1.400 . S
C1319 C1318 1.400 . S
C1319 C1320 1.398 . S
C1319 C1325 1.491 . S
C1320 H1311 0.950 . S
C1320 C1319 1.398 . S
C1320 C1321 1.391 . S
C1321 H1309 0.950 . S
C1321 C1317 1.393 . S
C1321 C1320 1.391 . S
C1322 H1312 0.950 . S
C1322 C1323 1.386 . S
C1322 C1324 1.391 . S
C1323 C1322 1.386 . S
C1323 C1327 1.393 . S
C1324 H1313 0.950 . S
C1324 C1322 1.391 . S
C1324 C1325 1.400 . S
C1325 C1319 1.491 . S
C1325 C1324 1.400 . S
C1325 C1326 1.398 . S
C1326 H1314 0.950 . S
C1326 C1325 1.398 . S
C1326 C1327 1.391 . S
C1327 H1315 0.950 . S
C1327 C1323 1.393 . S
C1327 C1326 1.391 . S
H1328 C1336 0.950 . S
H1329 C1341 0.950 . S
H1330 C1338 0.950 . S
H1331 C1340 0.950 . S
H1332 C1342 0.950 . S
H1333 C1344 0.950 . S
H1334 C1346 0.950 . S
H1335 C1347 0.950 . S
C1336 H1328 0.950 . S
C1336 C1337 1.386 . S
C1336 C1338 1.391 . S
C1337 C1336 1.386 . S
C1337 C1341 1.393 . S
C1338 H1330 0.950 . S
C1338 C1336 1.391 . S
C1338 C1339 1.400 . S
C1339 C1338 1.400 . S
C1339 C1340 1.398 . S
C1339 C1345 1.491 . S
C1340 H1331 0.950 . S
C1340 C1339 1.398 . S
C1340 C1341 1.391 . S
C1341 H1329 0.950 . S
C1341 C1337 1.393 . S
C1341 C1340 1.391 . S
C1342 H1332 0.950 . S
C1342 C1343 1.386 . S
C1342 C1344 1.391 . S
C1343 C1342 1.386 . S
C1343 C1347 1.393 . S
C1344 H1333 0.950 . S
C1344 C1342 1.391 . S
C1344 C1345 1.400 . S
C1345 C1339 1.491 . S
C1345 C1344 1.400 . S
C1345 C1346 1.398 . S
C1346 H1334 0.950 . S
C1346 C1345 1.398 . S
C1346 C1347 1.391 . S
C1347 H1335 0.950 . S
C1347 C1343 1.393 . S
C1347 C1346 1.391 . S
H1348 C1356 0.950 . S
H1349 C1361 0.950 . S
H1350 C1358 0.950 . S
H1351 C1360 0.950 . S
H1352 C1362 0.950 . S
H1353 C1364 0.950 . S
H1354 C1366 0.950 . S
H1355 C1367 0.950 . S
C1356 H1348 0.950 . S
C1356 C1357 1.386 . S
C1356 C1358 1.391 . S
C1357 C1356 1.386 . S
C1357 C1361 1.393 . S
C1358 H1350 0.950 . S
C1358 C1356 1.391 . S
C1358 C1359 1.400 . S
C1359 C1358 1.400 . S
C1359 C1360 1.398 . S
C1359 C1365 1.491 . S
C1360 H1351 0.950 . S
C1360 C1359 1.398 . S
C1360 C1361 1.391 . S
C1361 H1349 0.950 . S
C1361 C1357 1.393 . S
C1361 C1360 1.391 . S
C1362 H1352 0.950 . S
C1362 C1363 1.386 . S
C1362 C1364 1.391 . S
C1363 C1362 1.386 . S
C1363 C1367 1.393 . S
C1364 H1353 0.950 . S
C1364 C1362 1.391 . S
C1364 C1365 1.400 . S
C1365 C1359 1.491 . S
C1365 C1364 1.400 . S
C1365 C1366 1.398 . S
C1366 H1354 0.950 . S
C1366 C1365 1.398 . S
C1366 C1367 1.391 . S
C1367 H1355 0.950 . S
C1367 C1363 1.393 . S
C1367 C1366 1.391 . S
H1368 C1376 0.950 . S
H1369 C1381 0.950 . S
H1370 C1378 0.950 . S
H1371 C1380 0.950 . S
H1372 C1382 0.950 . S
H1373 C1384 0.950 . S
H1374 C1386 0.950 . S
H1375 C1387 0.950 . S
C1376 H1368 0.950 . S
C1376 C1377 1.386 . S
C1376 C1378 1.391 . S
C1377 C1376 1.386 . S
C1377 C1381 1.393 . S
C1378 H1370 0.950 . S
C1378 C1376 1.391 . S
C1378 C1379 1.400 . S
C1379 C1378 1.400 . S
C1379 C1380 1.398 . S
C1379 C1385 1.491 . S
C1380 H1371 0.950 . S
C1380 C1379 1.398 . S
C1380 C1381 1.391 . S
C1381 H1369 0.950 . S
C1381 C1377 1.393 . S
C1381 C1380 1.391 . S
C1382 H1372 0.950 . S
C1382 C1383 1.386 . S
C1382 C1384 1.391 . S
C1383 C1382 1.386 . S
C1383 C1387 1.393 . S
C1384 H1373 0.950 . S
C1384 C1382 1.391 . S
C1384 C1385 1.400 . S
C1385 C1379 1.491 . S
C1385 C1384 1.400 . S
C1385 C1386 1.398 . S
C1386 H1374 0.950 . S
C1386 C1385 1.398 . S
C1386 C1387 1.391 . S
C1387 H1375 0.950 . S
C1387 C1383 1.393 . S
C1387 C1386 1.391 . S
H1388 C1396 0.950 . S
H1389 C1401 0.950 . S
H1390 C1398 0.950 . S
H1391 C1400 0.950 . S
H1392 C1402 0.950 . S
H1393 C1404 0.950 . S
H1394 C1406 0.950 . S
H1395 C1407 0.950 . S
C1396 H1388 0.950 . S
C1396 C1397 1.386 . S
C1396 C1398 1.391 . S
C1397 C1396 1.386 . S
C1397 C1401 1.393 . S
C1398 H1390 0.950 . S
C1398 C1396 1.391 . S
C1398 C1399 1.400 . S
C1399 C1398 1.400 . S
C1399 C1400 1.398 . S
C1399 C1405 1.491 . S
C1400 H1391 0.950 . S
C1400 C1399 1.398 . S
C1400 C1401 1.391 . S
C1401 H1389 0.950 . S
C1401 C1397 1.393 . S
C1401 C1400 1.391 . S
C1402 H1392 0.950 . S
C1402 C1403 1.386 . S
C1402 C1404 1.391 . S
C1403 C1402 1.386 . S
C1403 C1407 1.393 . S
C1404 H1393 0.950 . S
C1404 C1402 1.391 . S
C1404 C1405 1.400 . S
C1405 C1399 1.491 . S
C1405 C1404 1.400 . S
C1405 C1406 1.398 . S
C1406 H1394 0.950 . S
C1406 C1405 1.398 . S
C1406 C1407 1.391 . S
C1407 H1395 0.950 . S
C1407 C1403 1.393 . S
C1407 C1406 1.391 . S
H1408 C1416 0.950 . S
H1409 C1421 0.950 . S
H1410 C1418 0.950 . S
H1411 C1420 0.950 . S
H1412 C1422 0.950 . S
H1413 C1424 0.950 . S
H1414 C1426 0.950 . S
H1415 C1427 0.950 . S
C1416 H1408 0.950 . S
C1416 C1417 1.386 . S
C1416 C1418 1.391 . S
C1417 C1416 1.386 . S
C1417 C1421 1.393 . S
C1418 H1410 0.950 . S
C1418 C1416 1.391 . S
C1418 C1419 1.400 . S
C1419 C1418 1.400 . S
C1419 C1420 1.398 . S
C1419 C1425 1.491 1_556 S
C1420 H1411 0.950 . S
C1420 C1419 1.398 . S
C1420 C1421 1.391 . S
C1421 H1409 0.950 . S
C1421 C1417 1.393 . S
C1421 C1420 1.391 . S
C1422 H1412 0.950 . S
C1422 C1423 1.386 . S
C1422 C1424 1.391 . S
C1423 C1422 1.386 . S
C1423 C1427 1.393 . S
C1424 H1413 0.950 . S
C1424 C1422 1.391 . S
C1424 C1425 1.400 . S
C1425 C1419 1.491 1_554 S
C1425 C1424 1.400 . S
C1425 C1426 1.398 . S
C1426 H1414 0.950 . S
C1426 C1425 1.398 . S
C1426 C1427 1.391 . S
C1427 H1415 0.950 . S
C1427 C1423 1.393 . S
C1427 C1426 1.391 . S
H1428 C1436 0.950 . S
H1429 C1441 0.950 . S
H1430 C1438 0.950 . S
H1431 C1440 0.950 . S
H1432 C1442 0.950 . S
H1433 C1444 0.950 . S
H1434 C1446 0.950 . S
H1435 C1447 0.950 . S
C1436 H1428 0.950 . S
C1436 C1437 1.386 . S
C1436 C1438 1.391 . S
C1437 C1436 1.386 . S
C1437 C1441 1.393 1_545 S
C1438 H1430 0.950 . S
C1438 C1436 1.391 . S
C1438 C1439 1.413 . S
C1439 C1438 1.413 . S
C1439 C1440 1.387 1_545 S
C1439 C1445 1.490 1_545 S
C1440 H1431 0.950 . S
C1440 C1439 1.387 1_565 S
C1440 C1441 1.391 . S
C1441 H1429 0.950 . S
C1441 C1437 1.393 1_565 S
C1441 C1440 1.391 . S
C1442 H1432 0.950 . S
C1442 C1443 1.386 . S
C1442 C1444 1.391 . S
C1443 C1442 1.386 . S
C1443 C1447 1.393 1_565 S
C1444 H1433 0.950 . S
C1444 C1442 1.391 . S
C1444 C1445 1.413 . S
C1445 C1439 1.490 1_565 S
C1445 C1444 1.413 . S
C1445 C1446 1.387 1_565 S
C1446 H1434 0.950 . S
C1446 C1445 1.387 1_545 S
C1446 C1447 1.391 . S
C1447 H1435 0.950 . S
C1447 C1443 1.393 1_545 S
C1447 C1446 1.391 . S
H1448 C1456 0.950 . S
H1449 C1461 0.950 . S
H1450 C1458 0.950 . S
H1451 C1460 0.950 . S
H1452 C1462 0.950 . S
H1453 C1464 0.950 . S
H1454 C1466 0.950 . S
H1455 C1467 0.950 . S
C1456 H1448 0.950 . S
C1456 C1457 1.386 . S
C1456 C1458 1.391 . S
C1457 C1456 1.386 . S
C1457 C1461 1.393 . S
C1458 H1450 0.950 . S
C1458 C1456 1.391 . S
C1458 C1459 1.400 . S
C1459 C1458 1.400 . S
C1459 C1460 1.398 . S
C1459 C1465 1.491 . S
C1460 H1451 0.950 . S
C1460 C1459 1.398 . S
C1460 C1461 1.391 . S
C1461 H1449 0.950 . S
C1461 C1457 1.393 . S
C1461 C1460 1.391 . S
C1462 H1452 0.950 . S
C1462 C1463 1.386 . S
C1462 C1464 1.391 . S
C1463 C1462 1.386 . S
C1463 C1467 1.393 . S
C1464 H1453 0.950 . S
C1464 C1462 1.391 . S
C1464 C1465 1.400 . S
C1465 C1459 1.491 . S
C1465 C1464 1.400 . S
C1465 C1466 1.398 . S
C1466 H1454 0.950 . S
C1466 C1465 1.398 . S
C1466 C1467 1.391 . S
C1467 H1455 0.950 . S
C1467 C1463 1.393 . S
C1467 C1466 1.391 . S
H1468 C1476 0.950 . S
H1469 C1481 0.950 . S
H1470 C1478 0.948 1_545 S
H1471 C1480 0.950 . S
H1472 C1482 0.950 . S
H1473 C1484 0.948 1_565 S
H1474 C1486 0.950 . S
H1475 C1487 0.950 . S
C1476 H1468 0.950 . S
C1476 C1477 1.386 . S
C1476 C1478 1.391 . S
C1477 C1476 1.386 . S
C1477 C1481 1.393 . S
C1478 H1470 0.948 1_565 S
C1478 C1476 1.391 . S
C1478 C1479 1.400 . S
C1479 C1478 1.400 . S
C1479 C1480 1.398 . S
C1479 C1485 1.491 1_565 S
C1480 H1471 0.950 . S
C1480 C1479 1.398 . S
C1480 C1481 1.391 . S
C1481 H1469 0.950 . S
C1481 C1477 1.393 . S
C1481 C1480 1.391 . S
C1482 H1472 0.950 . S
C1482 C1483 1.386 . S
C1482 C1484 1.391 . S
C1483 C1482 1.386 . S
C1483 C1487 1.393 . S
C1484 H1473 0.948 1_545 S
C1484 C1482 1.391 . S
C1484 C1485 1.400 . S
C1485 C1479 1.491 1_545 S
C1485 C1484 1.400 . S
C1485 C1486 1.398 . S
C1486 H1474 0.950 . S
C1486 C1485 1.398 . S
C1486 C1487 1.391 . S
C1487 H1475 0.950 . S
C1487 C1483 1.393 . S
C1487 C1486 1.391 . S
H1488 C1496 0.950 . S
H1489 C1501 0.950 . S
H1490 C1498 0.950 . S
H1491 C1500 0.950 . S
H1492 C1502 0.950 . S
H1493 C1504 0.950 . S
H1494 C1506 0.950 . S
H1495 C1507 0.950 . S
C1496 H1488 0.950 . S
C1496 C1497 1.386 . S
C1496 C1498 1.391 . S
C1497 C1496 1.386 . S
C1497 C1501 1.393 . S
C1498 H1490 0.950 . S
C1498 C1496 1.391 . S
C1498 C1499 1.400 . S
C1499 C1498 1.400 . S
C1499 C1500 1.398 . S
C1499 C1505 1.491 1_556 S
C1500 H1491 0.950 . S
C1500 C1499 1.398 . S
C1500 C1501 1.391 . S
C1501 H1489 0.950 . S
C1501 C1497 1.393 . S
C1501 C1500 1.391 . S
C1502 H1492 0.950 . S
C1502 C1503 1.386 . S
C1502 C1504 1.391 . S
C1503 C1502 1.386 . S
C1503 C1507 1.393 . S
C1504 H1493 0.950 . S
C1504 C1502 1.391 . S
C1504 C1505 1.400 . S
C1505 C1499 1.491 1_554 S
C1505 C1504 1.400 . S
C1505 C1506 1.398 . S
C1506 H1494 0.950 . S
C1506 C1505 1.398 . S
C1506 C1507 1.391 . S
C1507 H1495 0.950 . S
C1507 C1503 1.393 . S
C1507 C1506 1.391 . S
H1508 C1516 0.950 . S
H1509 C1521 0.950 . S
H1510 C1518 0.950 . S
H1511 C1520 0.950 . S
H1512 C1522 0.950 . S
H1513 C1524 0.950 . S
H1514 C1526 0.950 . S
H1515 C1527 0.950 . S
C1516 H1508 0.950 . S
C1516 C1517 1.386 . S
C1516 C1518 1.391 . S
C1517 C1516 1.386 . S
C1517 C1521 1.393 1_545 S
C1518 H1510 0.950 . S
C1518 C1516 1.391 . S
C1518 C1519 1.400 . S
C1519 C1518 1.400 . S
C1519 C1520 1.398 1_545 S
C1519 C1525 1.491 1_545 S
C1520 H1511 0.950 . S
C1520 C1519 1.398 1_565 S
C1520 C1521 1.391 . S
C1521 H1509 0.950 . S
C1521 C1517 1.393 1_565 S
C1521 C1520 1.391 . S
C1522 H1512 0.950 . S
C1522 C1523 1.386 . S
C1522 C1524 1.391 . S
C1523 C1522 1.386 . S
C1523 C1527 1.393 1_565 S
C1524 H1513 0.950 . S
C1524 C1522 1.391 . S
C1524 C1525 1.400 . S
C1525 C1519 1.491 1_565 S
C1525 C1524 1.400 . S
C1525 C1526 1.398 1_565 S
C1526 H1514 0.950 . S
C1526 C1525 1.398 1_545 S
C1526 C1527 1.391 . S
C1527 H1515 0.950 . S
C1527 C1523 1.393 1_545 S
C1527 C1526 1.391 . S
H1528 C1536 0.950 . S
H1529 C1541 0.950 . S
H1530 C1538 0.950 . S
H1531 C1540 0.950 . S
H1532 C1542 0.950 . S
H1533 C1544 0.950 . S
H1534 C1546 0.950 . S
H1535 C1547 0.950 . S
C1536 H1528 0.950 . S
C1536 C1537 1.386 . S
C1536 C1538 1.391 . S
C1537 C1536 1.386 . S
C1537 C1541 1.393 . S
C1538 H1530 0.950 . S
C1538 C1536 1.391 . S
C1538 C1539 1.400 . S
C1539 C1538 1.400 . S
C1539 C1540 1.398 . S
C1539 C1545 1.491 . S
C1540 H1531 0.950 . S
C1540 C1539 1.398 . S
C1540 C1541 1.391 . S
C1541 H1529 0.950 . S
C1541 C1537 1.393 . S
C1541 C1540 1.391 . S
C1542 H1532 0.950 . S
C1542 C1543 1.386 . S
C1542 C1544 1.391 . S
C1543 C1542 1.386 . S
C1543 C1547 1.393 . S
C1544 H1533 0.950 . S
C1544 C1542 1.391 . S
C1544 C1545 1.400 . S
C1545 C1539 1.491 . S
C1545 C1544 1.400 . S
C1545 C1546 1.398 . S
C1546 H1534 0.950 . S
C1546 C1545 1.398 . S
C1546 C1547 1.391 . S
C1547 H1535 0.950 . S
C1547 C1543 1.393 . S
C1547 C1546 1.391 . S
H1548 C1556 0.950 . S
H1549 C1561 0.950 . S
H1550 C1558 0.950 . S
H1551 C1560 0.950 . S
H1552 C1562 0.950 . S
H1553 C1564 0.950 . S
H1554 C1566 0.950 . S
H1555 C1567 0.950 . S
C1556 H1548 0.950 . S
C1556 C1557 1.386 1_545 S
C1556 C1558 1.391 . S
C1557 C1556 1.386 1_565 S
C1557 C1561 1.393 . S
C1558 H1550 0.950 . S
C1558 C1556 1.391 . S
C1558 C1559 1.380 1_545 S
C1559 C1558 1.380 1_565 S
C1559 C1560 1.420 . S
C1559 C1565 1.489 1_565 S
C1560 H1551 0.950 . S
C1560 C1559 1.420 . S
C1560 C1561 1.391 . S
C1561 H1549 0.950 . S
C1561 C1557 1.393 . S
C1561 C1560 1.391 . S
C1562 H1552 0.950 . S
C1562 C1563 1.386 1_565 S
C1562 C1564 1.391 . S
C1563 C1562 1.386 1_545 S
C1563 C1567 1.393 . S
C1564 H1553 0.950 . S
C1564 C1562 1.391 . S
C1564 C1565 1.380 1_565 S
C1565 C1559 1.489 1_545 S
C1565 C1564 1.380 1_545 S
C1565 C1566 1.420 . S
C1566 H1554 0.950 . S
C1566 C1565 1.420 . S
C1566 C1567 1.391 . S
C1567 H1555 0.950 . S
C1567 C1563 1.393 . S
C1567 C1566 1.391 . S
H1568 C1576 0.950 . S
H1569 C1581 0.950 . S
H1570 C1578 0.950 . S
H1571 C1580 0.950 . S
H1572 C1582 0.950 . S
H1573 C1584 0.950 . S
H1574 C1586 0.950 . S
H1575 C1587 0.950 . S
C1576 H1568 0.950 . S
C1576 C1577 1.386 . S
C1576 C1578 1.391 . S
C1577 C1576 1.386 . S
C1577 C1581 1.393 . S
C1578 H1570 0.950 . S
C1578 C1576 1.391 . S
C1578 C1579 1.400 . S
C1579 C1578 1.400 . S
C1579 C1580 1.398 . S
C1579 C1585 1.491 . S
C1580 H1571 0.950 . S
C1580 C1579 1.398 . S
C1580 C1581 1.391 . S
C1581 H1569 0.950 . S
C1581 C1577 1.393 . S
C1581 C1580 1.391 . S
C1582 H1572 0.950 . S
C1582 C1583 1.386 . S
C1582 C1584 1.391 . S
C1583 C1582 1.386 . S
C1583 C1587 1.393 . S
C1584 H1573 0.950 . S
C1584 C1582 1.391 . S
C1584 C1585 1.400 . S
C1585 C1579 1.491 . S
C1585 C1584 1.400 . S
C1585 C1586 1.398 . S
C1586 H1574 0.950 . S
C1586 C1585 1.398 . S
C1586 C1587 1.391 . S
C1587 H1575 0.950 . S
C1587 C1583 1.393 . S
C1587 C1586 1.391 . S
H1588 C1596 0.950 . S
H1589 C1601 0.950 . S
H1590 C1598 0.950 . S
H1591 C1600 0.950 . S
H1592 C1602 0.950 . S
H1593 C1604 0.950 . S
H1594 C1606 0.950 . S
H1595 C1607 0.950 . S
C1596 H1588 0.950 . S
C1596 C1597 1.386 . S
C1596 C1598 1.391 . S
C1597 C1596 1.386 . S
C1597 C1601 1.393 . S
C1598 H1590 0.950 . S
C1598 C1596 1.391 . S
C1598 C1599 1.400 . S
C1599 C1598 1.400 . S
C1599 C1600 1.398 . S
C1599 C1605 1.491 . S
C1600 H1591 0.950 . S
C1600 C1599 1.398 . S
C1600 C1601 1.391 . S
C1601 H1589 0.950 . S
C1601 C1597 1.393 . S
C1601 C1600 1.391 . S
C1602 H1592 0.950 . S
C1602 C1603 1.386 . S
C1602 C1604 1.391 . S
C1603 C1602 1.386 . S
C1603 C1607 1.393 . S
C1604 H1593 0.950 . S
C1604 C1602 1.391 . S
C1604 C1605 1.400 . S
C1605 C1599 1.491 . S
C1605 C1604 1.400 . S
C1605 C1606 1.398 . S
C1606 H1594 0.950 . S
C1606 C1605 1.398 . S
C1606 C1607 1.391 . S
C1607 H1595 0.950 . S
C1607 C1603 1.393 . S
C1607 C1606 1.391 . S
H1608 C1616 0.950 . S
H1609 C1621 0.950 . S
H1610 C1618 0.950 . S
H1611 C1620 0.950 . S
H1612 C1622 0.950 . S
H1613 C1624 0.950 . S
H1614 C1626 0.950 . S
H1615 C1627 0.950 . S
C1616 H1608 0.950 . S
C1616 C1617 1.386 . S
C1616 C1618 1.391 . S
C1617 C1616 1.386 . S
C1617 C1621 1.393 . S
C1618 H1610 0.950 . S
C1618 C1616 1.391 . S
C1618 C1619 1.400 . S
C1619 C1618 1.400 . S
C1619 C1620 1.398 . S
C1619 C1625 1.491 1_556 S
C1620 H1611 0.950 . S
C1620 C1619 1.398 . S
C1620 C1621 1.391 . S
C1621 H1609 0.950 . S
C1621 C1617 1.393 . S
C1621 C1620 1.391 . S
C1622 H1612 0.950 . S
C1622 C1623 1.386 . S
C1622 C1624 1.391 . S
C1623 C1622 1.386 . S
C1623 C1627 1.393 . S
C1624 H1613 0.950 . S
C1624 C1622 1.391 . S
C1624 C1625 1.400 . S
C1625 C1619 1.491 1_554 S
C1625 C1624 1.400 . S
C1625 C1626 1.398 . S
C1626 H1614 0.950 . S
C1626 C1625 1.398 . S
C1626 C1627 1.391 . S
C1627 H1615 0.950 . S
C1627 C1623 1.393 . S
C1627 C1626 1.391 . S
H1628 C1636 0.950 . S
H1629 C1641 0.950 . S
H1630 C1638 0.950 . S
H1631 C1640 0.950 . S
H1632 C1642 0.950 . S
H1633 C1644 0.950 . S
H1634 C1646 0.950 . S
H1635 C1647 0.950 . S
C1636 H1628 0.950 . S
C1636 C1637 1.386 . S
C1636 C1638 1.391 . S
C1637 C1636 1.386 . S
C1637 C1641 1.393 . S
C1638 H1630 0.950 . S
C1638 C1636 1.391 . S
C1638 C1639 1.400 . S
C1639 C1638 1.400 . S
C1639 C1640 1.398 . S
C1639 C1645 1.491 . S
C1640 H1631 0.950 . S
C1640 C1639 1.398 . S
C1640 C1641 1.391 . S
C1641 H1629 0.950 . S
C1641 C1637 1.393 . S
C1641 C1640 1.391 . S
C1642 H1632 0.950 . S
C1642 C1643 1.386 . S
C1642 C1644 1.391 . S
C1643 C1642 1.386 . S
C1643 C1647 1.393 . S
C1644 H1633 0.950 . S
C1644 C1642 1.391 . S
C1644 C1645 1.400 . S
C1645 C1639 1.491 . S
C1645 C1644 1.400 . S
C1645 C1646 1.398 . S
C1646 H1634 0.950 . S
C1646 C1645 1.398 . S
C1646 C1647 1.391 . S
C1647 H1635 0.950 . S
C1647 C1643 1.393 . S
C1647 C1646 1.391 . S
H1648 C1656 0.950 . S
H1649 C1661 0.950 . S
H1650 C1658 0.950 . S
H1651 C1660 0.950 . S
H1652 C1662 0.950 . S
H1653 C1664 0.950 . S
H1654 C1666 0.950 . S
H1655 C1667 0.950 . S
C1656 H1648 0.950 . S
C1656 C1657 1.386 . S
C1656 C1658 1.391 . S
C1657 C1656 1.386 . S
C1657 C1661 1.393 . S
C1658 H1650 0.950 . S
C1658 C1656 1.391 . S
C1658 C1659 1.400 . S
C1659 C1658 1.400 . S
C1659 C1660 1.398 . S
C1659 C1665 1.491 . S
C1660 H1651 0.950 . S
C1660 C1659 1.398 . S
C1660 C1661 1.391 . S
C1661 H1649 0.950 . S
C1661 C1657 1.393 . S
C1661 C1660 1.391 . S
C1662 H1652 0.950 . S
C1662 C1663 1.386 . S
C1662 C1664 1.391 . S
C1663 C1662 1.386 . S
C1663 C1667 1.393 . S
C1664 H1653 0.950 . S
C1664 C1662 1.391 . S
C1664 C1665 1.400 . S
C1665 C1659 1.491 . S
C1665 C1664 1.400 . S
C1665 C1666 1.398 . S
C1666 H1654 0.950 . S
C1666 C1665 1.398 . S
C1666 C1667 1.391 . S
C1667 H1655 0.950 . S
C1667 C1663 1.393 . S
C1667 C1666 1.391 . S
H1668 C1676 0.950 . S
H1669 C1681 0.950 . S
H1670 C1678 0.950 . S
H1671 C1680 0.950 . S
H1672 C1682 0.950 . S
H1673 C1684 0.950 . S
H1674 C1686 0.950 . S
H1675 C1687 0.950 . S
C1676 H1668 0.950 . S
C1676 C1677 1.386 . S
C1676 C1678 1.391 . S
C1677 C1676 1.386 . S
C1677 C1681 1.393 . S
C1678 H1670 0.950 . S
C1678 C1676 1.391 . S
C1678 C1679 1.400 . S
C1679 C1678 1.400 . S
C1679 C1680 1.398 . S
C1679 C1685 1.491 . S
C1680 H1671 0.950 . S
C1680 C1679 1.398 . S
C1680 C1681 1.391 . S
C1681 H1669 0.950 . S
C1681 C1677 1.393 . S
C1681 C1680 1.391 . S
C1682 H1672 0.950 . S
C1682 C1683 1.386 . S
C1682 C1684 1.391 . S
C1683 C1682 1.386 . S
C1683 C1687 1.393 . S
C1684 H1673 0.950 . S
C1684 C1682 1.391 . S
C1684 C1685 1.400 . S
C1685 C1679 1.491 . S
C1685 C1684 1.400 . S
C1685 C1686 1.398 . S
C1686 H1674 0.950 . S
C1686 C1685 1.398 . S
C1686 C1687 1.391 . S
C1687 H1675 0.950 . S
C1687 C1683 1.393 . S
C1687 C1686 1.391 . S
H1688 C1696 0.950 . S
H1689 C1701 0.950 . S
H1690 C1698 0.950 . S
H1691 C1700 0.950 . S
H1692 C1702 0.950 . S
H1693 C1704 0.950 . S
H1694 C1706 0.950 . S
H1695 C1707 0.950 . S
C1696 H1688 0.950 . S
C1696 C1697 1.386 . S
C1696 C1698 1.391 . S
C1697 C1696 1.386 . S
C1697 C1701 1.393 . S
C1698 H1690 0.950 . S
C1698 C1696 1.391 . S
C1698 C1699 1.400 . S
C1699 C1698 1.400 . S
C1699 C1700 1.398 . S
C1699 C1705 1.491 1_554 S
C1700 H1691 0.950 . S
C1700 C1699 1.398 . S
C1700 C1701 1.391 . S
C1701 H1689 0.950 . S
C1701 C1697 1.393 . S
C1701 C1700 1.391 . S
C1702 H1692 0.950 . S
C1702 C1703 1.386 . S
C1702 C1704 1.391 . S
C1703 C1702 1.386 . S
C1703 C1707 1.393 . S
C1704 H1693 0.950 . S
C1704 C1702 1.391 . S
C1704 C1705 1.400 . S
C1705 C1699 1.491 1_556 S
C1705 C1704 1.400 . S
C1705 C1706 1.398 . S
C1706 H1694 0.950 . S
C1706 C1705 1.398 . S
C1706 C1707 1.391 . S
C1707 H1695 0.950 . S
C1707 C1703 1.393 . S
C1707 C1706 1.391 . S
H1708 C1716 0.950 . S
H1709 C1721 0.950 . S
H1710 C1718 0.950 . S
H1711 C1720 0.950 . S
H1712 C1722 0.950 . S
H1713 C1724 0.950 . S
H1714 C1726 0.950 . S
H1715 C1727 0.950 . S
C1716 H1708 0.950 . S
C1716 C1717 1.386 . S
C1716 C1718 1.391 . S
C1717 C1716 1.386 . S
C1717 C1721 1.393 . S
C1718 H1710 0.950 . S
C1718 C1716 1.391 . S
C1718 C1719 1.400 . S
C1719 C1718 1.400 . S
C1719 C1720 1.398 . S
C1719 C1725 1.491 . S
C1720 H1711 0.950 . S
C1720 C1719 1.398 . S
C1720 C1721 1.391 . S
C1721 H1709 0.950 . S
C1721 C1717 1.393 . S
C1721 C1720 1.391 . S
C1722 H1712 0.950 . S
C1722 C1723 1.386 . S
C1722 C1724 1.391 . S
C1723 C1722 1.386 . S
C1723 C1727 1.393 . S
C1724 H1713 0.950 . S
C1724 C1722 1.391 . S
C1724 C1725 1.400 . S
C1725 C1719 1.491 . S
C1725 C1724 1.400 . S
C1725 C1726 1.398 . S
C1726 H1714 0.950 . S
C1726 C1725 1.398 . S
C1726 C1727 1.391 . S
C1727 H1715 0.950 . S
C1727 C1723 1.393 . S
C1727 C1726 1.391 . S
H1728 C1736 0.950 . S
H1729 C1741 0.950 . S
H1730 C1738 0.950 . S
H1731 C1740 0.950 . S
H1732 C1742 0.950 1_545 S
H1733 C1744 0.950 . S
H1734 C1746 0.950 . S
H1735 C1747 0.942 1_545 S
C1736 H1728 0.950 . S
C1736 C1737 1.386 . S
C1736 C1738 1.391 . S
C1737 C1736 1.386 . S
C1737 C1741 1.393 . S
C1738 H1730 0.950 . S
C1738 C1736 1.391 . S
C1738 C1739 1.400 . S
C1739 C1738 1.400 . S
C1739 C1740 1.398 . S
C1739 C1745 1.491 . S
C1740 H1731 0.950 . S
C1740 C1739 1.398 . S
C1740 C1741 1.391 . S
C1741 H1729 0.950 . S
C1741 C1737 1.393 . S
C1741 C1740 1.391 . S
C1742 H1732 0.950 1_565 S
C1742 C1743 1.386 1_565 S
C1742 C1744 1.391 . S
C1743 C1742 1.386 1_545 S
C1743 C1747 1.393 1_545 S
C1744 H1733 0.950 . S
C1744 C1742 1.391 . S
C1744 C1745 1.400 . S
C1745 C1739 1.491 . S
C1745 C1744 1.400 . S
C1745 C1746 1.398 . S
C1746 H1734 0.950 . S
C1746 C1745 1.398 . S
C1746 C1747 1.391 . S
C1747 H1735 0.942 1_565 S
C1747 C1743 1.393 1_565 S
C1747 C1746 1.391 . S
H1748 C1756 0.950 . S
H1749 C1761 0.950 . S
H1750 C1758 0.950 . S
H1751 C1760 0.950 . S
H1752 C1762 0.950 . S
H1753 C1764 0.950 . S
H1754 C1766 0.950 . S
H1755 C1767 0.950 . S
C1756 H1748 0.950 . S
C1756 C1757 1.386 . S
C1756 C1758 1.391 . S
C1757 C1756 1.386 . S
C1757 C1761 1.393 . S
C1758 H1750 0.950 . S
C1758 C1756 1.391 . S
C1758 C1759 1.400 . S
C1759 C1758 1.400 . S
C1759 C1760 1.398 . S
C1759 C1765 1.491 . S
C1760 H1751 0.950 . S
C1760 C1759 1.398 . S
C1760 C1761 1.391 . S
C1761 H1749 0.950 . S
C1761 C1757 1.393 . S
C1761 C1760 1.391 . S
C1762 H1752 0.950 . S
C1762 C1763 1.386 . S
C1762 C1764 1.391 . S
C1763 C1762 1.386 . S
C1763 C1767 1.393 . S
C1764 H1753 0.950 . S
C1764 C1762 1.391 . S
C1764 C1765 1.400 . S
C1765 C1759 1.491 . S
C1765 C1764 1.400 . S
C1765 C1766 1.398 . S
C1766 H1754 0.950 . S
C1766 C1765 1.398 . S
C1766 C1767 1.391 . S
C1767 H1755 0.950 . S
C1767 C1763 1.393 . S
C1767 C1766 1.391 . S
H1768 C1776 0.950 . S
H1769 C1781 0.950 . S
H1770 C1778 0.950 . S
H1771 C1780 0.950 . S
H1772 C1782 0.950 1_565 S
H1773 C1784 0.950 . S
H1774 C1786 0.950 . S
H1775 C1787 0.950 1_565 S
C1776 H1768 0.950 . S
C1776 C1777 1.386 . S
C1776 C1778 1.391 . S
C1777 C1776 1.386 . S
C1777 C1781 1.393 . S
C1778 H1770 0.950 . S
C1778 C1776 1.391 . S
C1778 C1779 1.400 . S
C1779 C1778 1.400 . S
C1779 C1780 1.398 . S
C1779 C1785 1.491 . S
C1780 H1771 0.950 . S
C1780 C1779 1.398 . S
C1780 C1781 1.391 . S
C1781 H1769 0.950 . S
C1781 C1777 1.393 . S
C1781 C1780 1.391 . S
C1782 H1772 0.950 1_545 S
C1782 C1783 1.386 1_545 S
C1782 C1784 1.391 . S
C1783 C1782 1.386 1_565 S
C1783 C1787 1.393 1_565 S
C1784 H1773 0.950 . S
C1784 C1782 1.391 . S
C1784 C1785 1.400 . S
C1785 C1779 1.491 . S
C1785 C1784 1.400 . S
C1785 C1786 1.398 . S
C1786 H1774 0.950 . S
C1786 C1785 1.398 . S
C1786 C1787 1.391 . S
C1787 H1775 0.950 1_545 S
C1787 C1783 1.393 1_545 S
C1787 C1786 1.391 . S
H1788 C1796 0.950 . S
H1789 C1801 0.950 . S
H1790 C1798 0.950 . S
H1791 C1800 0.950 . S
H1792 C1802 0.950 . S
H1793 C1804 0.950 . S
H1794 C1806 0.950 . S
H1795 C1807 0.950 . S
C1796 H1788 0.950 . S
C1796 C1797 1.386 . S
C1796 C1798 1.391 . S
C1797 C1796 1.386 . S
C1797 C1801 1.393 1_565 S
C1798 H1790 0.950 . S
C1798 C1796 1.391 . S
C1798 C1799 1.400 . S
C1799 C1798 1.400 . S
C1799 C1800 1.398 1_565 S
C1799 C1805 1.491 . S
C1800 H1791 0.950 . S
C1800 C1799 1.398 1_545 S
C1800 C1801 1.391 . S
C1801 H1789 0.950 . S
C1801 C1797 1.393 1_545 S
C1801 C1800 1.391 . S
C1802 H1792 0.950 . S
C1802 C1803 1.386 1_545 S
C1802 C1804 1.391 . S
C1803 C1802 1.386 1_565 S
C1803 C1807 1.393 . S
C1804 H1793 0.950 . S
C1804 C1802 1.391 . S
C1804 C1805 1.400 1_545 S
C1805 C1799 1.491 . S
C1805 C1804 1.400 1_565 S
C1805 C1806 1.398 . S
C1806 H1794 0.950 . S
C1806 C1805 1.398 . S
C1806 C1807 1.391 . S
C1807 H1795 0.950 . S
C1807 C1803 1.393 . S
C1807 C1806 1.391 . S
H1808 C1816 0.950 . S
H1809 C1821 0.950 . S
H1810 C1818 0.950 . S
H1811 C1820 0.950 . S
H1812 C1822 0.950 1_565 S
H1813 C1824 0.950 . S
H1814 C1826 0.950 . S
H1815 C1827 0.950 1_565 S
C1816 H1808 0.950 . S
C1816 C1817 1.386 . S
C1816 C1818 1.391 . S
C1817 C1816 1.386 . S
C1817 C1821 1.393 . S
C1818 H1810 0.950 . S
C1818 C1816 1.391 . S
C1818 C1819 1.400 . S
C1819 C1818 1.400 . S
C1819 C1820 1.398 . S
C1819 C1825 1.491 . S
C1820 H1811 0.950 . S
C1820 C1819 1.398 . S
C1820 C1821 1.391 . S
C1821 H1809 0.950 . S
C1821 C1817 1.393 . S
C1821 C1820 1.391 . S
C1822 H1812 0.950 1_545 S
C1822 C1823 1.386 1_545 S
C1822 C1824 1.391 . S
C1823 C1822 1.386 1_565 S
C1823 C1827 1.393 1_565 S
C1824 H1813 0.950 . S
C1824 C1822 1.391 . S
C1824 C1825 1.400 . S
C1825 C1819 1.491 . S
C1825 C1824 1.400 . S
C1825 C1826 1.398 . S
C1826 H1814 0.950 . S
C1826 C1825 1.398 . S
C1826 C1827 1.391 . S
C1827 H1815 0.950 1_545 S
C1827 C1823 1.393 1_545 S
C1827 C1826 1.391 . S
H1828 C1836 0.950 . S
H1829 C1841 0.950 . S
H1830 C1838 0.950 . S
H1831 C1840 0.950 . S
H1832 C1842 0.956 . S
H1833 C1844 0.950 . S
H1834 C1846 0.950 . S
H1835 C1847 0.950 . S
C1836 H1828 0.950 . S
C1836 C1837 1.386 . S
C1836 C1838 1.391 . S
C1837 C1836 1.386 . S
C1837 C1841 1.393 . S
C1838 H1830 0.950 . S
C1838 C1836 1.391 . S
C1838 C1839 1.400 . S
C1839 C1838 1.400 . S
C1839 C1840 1.398 . S
C1839 C1845 1.491 . S
C1840 H1831 0.950 . S
C1840 C1839 1.398 . S
C1840 C1841 1.391 . S
C1841 H1829 0.950 . S
C1841 C1837 1.393 . S
C1841 C1840 1.391 . S
C1842 H1832 0.956 . S
C1842 C1843 1.386 . S
C1842 C1844 1.391 . S
C1843 C1842 1.386 . S
C1843 C1847 1.393 . S
C1844 H1833 0.950 . S
C1844 C1842 1.391 . S
C1844 C1845 1.400 . S
C1845 C1839 1.491 . S
C1845 C1844 1.400 . S
C1845 C1846 1.398 . S
C1846 H1834 0.950 . S
C1846 C1845 1.398 . S
C1846 C1847 1.391 . S
C1847 H1835 0.950 . S
C1847 C1843 1.393 . S
C1847 C1846 1.391 . S
H1848 C1856 0.950 . S
H1849 C1861 0.950 . S
H1850 C1858 0.950 . S
H1851 C1860 0.950 . S
H1852 C1862 0.950 . S
H1853 C1864 0.950 . S
H1854 C1866 0.950 . S
H1855 C1867 0.950 1_545 S
C1856 H1848 0.950 . S
C1856 C1857 1.386 . S
C1856 C1858 1.391 . S
C1857 C1856 1.386 . S
C1857 C1861 1.393 . S
C1858 H1850 0.950 . S
C1858 C1856 1.391 . S
C1858 C1859 1.400 . S
C1859 C1858 1.400 . S
C1859 C1860 1.398 . S
C1859 C1865 1.491 . S
C1860 H1851 0.950 . S
C1860 C1859 1.398 . S
C1860 C1861 1.391 . S
C1861 H1849 0.950 . S
C1861 C1857 1.393 . S
C1861 C1860 1.391 . S
C1862 H1852 0.950 . S
C1862 C1863 1.386 1_565 S
C1862 C1864 1.391 . S
C1863 C1862 1.386 1_545 S
C1863 C1867 1.393 1_545 S
C1864 H1853 0.950 . S
C1864 C1862 1.391 . S
C1864 C1865 1.400 . S
C1865 C1859 1.491 . S
C1865 C1864 1.400 . S
C1865 C1866 1.398 . S
C1866 H1854 0.950 . S
C1866 C1865 1.398 . S
C1866 C1867 1.391 . S
C1867 H1855 0.950 1_565 S
C1867 C1863 1.393 1_565 S
C1867 C1866 1.391 . S
H1868 C1876 0.950 . S
H1869 C1881 0.950 . S
H1870 C1878 0.950 . S
H1871 C1880 0.950 . S
H1872 C1882 0.950 . S
H1873 C1884 0.950 . S
H1874 C1886 0.947 1_545 S
H1875 C1887 0.945 1_545 S
C1876 H1868 0.950 . S
C1876 C1877 1.386 1_545 S
C1876 C1878 1.391 . S
C1877 C1876 1.386 1_565 S
C1877 C1881 1.393 . S
C1878 H1870 0.950 . S
C1878 C1876 1.391 . S
C1878 C1879 1.400 1_545 S
C1879 C1878 1.400 1_565 S
C1879 C1880 1.398 . S
C1879 C1885 1.491 . S
C1880 H1871 0.950 . S
C1880 C1879 1.398 . S
C1880 C1881 1.391 . S
C1881 H1869 0.950 . S
C1881 C1877 1.393 . S
C1881 C1880 1.391 . S
C1882 H1872 0.950 . S
C1882 C1883 1.386 . S
C1882 C1884 1.391 . S
C1883 C1882 1.386 . S
C1883 C1887 1.398 . S
C1884 H1873 0.950 . S
C1884 C1882 1.391 . S
C1884 C1885 1.400 . S
C1885 C1879 1.491 . S
C1885 C1884 1.400 . S
C1885 C1886 1.401 . S
C1886 H1874 0.947 1_565 S
C1886 C1885 1.401 . S
C1886 C1887 1.391 . S
C1887 H1875 0.945 1_565 S
C1887 C1883 1.398 . S
C1887 C1886 1.391 . S
H1888 C1896 0.950 1_565 S
H1889 C1901 0.950 . S
H1890 C1898 0.950 . S
H1891 C1900 0.950 . S
H1892 C1902 0.950 . S
H1893 C1904 0.950 . S
H1894 C1906 0.950 . S
H1895 C1907 0.950 . S
C1896 H1888 0.950 1_545 S
C1896 C1897 1.386 1_545 S
C1896 C1898 1.391 . S
C1897 C1896 1.386 1_565 S
C1897 C1901 1.393 1_565 S
C1898 H1890 0.950 . S
C1898 C1896 1.391 . S
C1898 C1899 1.400 . S
C1899 C1898 1.400 . S
C1899 C1900 1.398 . S
C1899 C1905 1.491 . S
C1900 H1891 0.950 . S
C1900 C1899 1.398 . S
C1900 C1901 1.391 . S
C1901 H1889 0.950 . S
C1901 C1897 1.393 1_545 S
C1901 C1900 1.391 . S
C1902 H1892 0.950 . S
C1902 C1903 1.386 . S
C1902 C1904 1.391 . S
C1903 C1902 1.386 . S
C1903 C1907 1.393 . S
C1904 H1893 0.950 . S
C1904 C1902 1.391 . S
C1904 C1905 1.400 . S
C1905 C1899 1.491 . S
C1905 C1904 1.400 . S
C1905 C1906 1.398 . S
C1906 H1894 0.950 . S
C1906 C1905 1.398 . S
C1906 C1907 1.391 . S
C1907 H1895 0.950 . S
C1907 C1903 1.393 . S
C1907 C1906 1.391 . S
H1908 C1916 0.950 . S
H1909 C1921 0.950 . S
H1910 C1918 0.950 . S
H1911 C1920 0.950 . S
H1912 C1922 0.950 . S
H1913 C1924 0.950 . S
H1914 C1926 0.950 . S
H1915 C1927 0.950 . S
C1916 H1908 0.950 . S
C1916 C1917 1.386 1_545 S
C1916 C1918 1.391 . S
C1917 C1916 1.386 1_565 S
C1917 C1921 1.393 . S
C1918 H1910 0.950 . S
C1918 C1916 1.391 . S
C1918 C1919 1.400 1_545 S
C1919 C1918 1.400 1_565 S
C1919 C1920 1.398 . S
C1919 C1925 1.491 . S
C1920 H1911 0.950 . S
C1920 C1919 1.398 . S
C1920 C1921 1.391 . S
C1921 H1909 0.950 . S
C1921 C1917 1.393 . S
C1921 C1920 1.391 . S
C1922 H1912 0.950 . S
C1922 C1923 1.386 . S
C1922 C1924 1.391 . S
C1923 C1922 1.386 . S
C1923 C1927 1.393 1_565 S
C1924 H1913 0.950 . S
C1924 C1922 1.391 . S
C1924 C1925 1.400 . S
C1925 C1919 1.491 . S
C1925 C1924 1.400 . S
C1925 C1926 1.398 1_565 S
C1926 H1914 0.950 . S
C1926 C1925 1.398 1_545 S
C1926 C1927 1.391 . S
C1927 H1915 0.950 . S
C1927 C1923 1.393 1_545 S
C1927 C1926 1.391 . S
H1928 C1936 0.950 1_545 S
H1929 C1941 0.939 1_545 S
H1930 C1938 0.950 . S
H1931 C1940 0.950 . S
H1932 C1942 0.950 . S
H1933 C1944 0.950 . S
H1934 C1946 0.950 . S
H1935 C1947 0.950 . S
C1936 H1928 0.950 1_565 S
C1936 C1937 1.386 1_565 S
C1936 C1938 1.391 . S
C1937 C1936 1.386 1_545 S
C1937 C1941 1.393 1_545 S
C1938 H1930 0.950 . S
C1938 C1936 1.391 . S
C1938 C1939 1.400 . S
C1939 C1938 1.400 . S
C1939 C1940 1.398 . S
C1939 C1945 1.491 . S
C1940 H1931 0.950 . S
C1940 C1939 1.398 . S
C1940 C1941 1.391 . S
C1941 H1929 0.939 1_565 S
C1941 C1937 1.393 1_565 S
C1941 C1940 1.391 . S
C1942 H1932 0.950 . S
C1942 C1943 1.386 . S
C1942 C1944 1.391 . S
C1943 C1942 1.386 . S
C1943 C1947 1.393 . S
C1944 H1933 0.950 . S
C1944 C1942 1.391 . S
C1944 C1945 1.400 . S
C1945 C1939 1.491 . S
C1945 C1944 1.400 . S
C1945 C1946 1.398 . S
C1946 H1934 0.950 . S
C1946 C1945 1.398 . S
C1946 C1947 1.391 . S
C1947 H1935 0.950 . S
C1947 C1943 1.393 . S
C1947 C1946 1.391 . S
H1948 C1956 0.950 1_565 S
H1949 C1961 0.950 . S
H1950 C1958 0.950 1_565 S
H1951 C1960 0.950 . S
H1952 C1962 0.950 . S
H1953 C1964 0.950 . S
H1954 C1966 0.950 1_565 S
H1955 C1967 0.950 1_565 S
C1956 H1948 0.950 1_545 S
C1956 C1957 1.386 . S
C1956 C1958 1.391 . S
C1957 C1956 1.386 . S
C1957 C1961 1.393 . S
C1958 H1950 0.950 1_545 S
C1958 C1956 1.391 . S
C1958 C1959 1.400 . S
C1959 C1958 1.400 . S
C1959 C1960 1.398 . S
C1959 C1965 1.491 . S
C1960 H1951 0.950 . S
C1960 C1959 1.398 . S
C1960 C1961 1.391 . S
C1961 H1949 0.950 . S
C1961 C1957 1.393 . S
C1961 C1960 1.391 . S
C1962 H1952 0.950 . S
C1962 C1963 1.386 . S
C1962 C1964 1.391 . S
C1963 C1962 1.386 . S
C1963 C1967 1.393 . S
C1964 H1953 0.950 . S
C1964 C1962 1.391 . S
C1964 C1965 1.400 . S
C1965 C1959 1.491 . S
C1965 C1964 1.400 . S
C1965 C1966 1.398 . S
C1966 H1954 0.950 1_545 S
C1966 C1965 1.398 . S
C1966 C1967 1.391 . S
C1967 H1955 0.950 1_545 S
C1967 C1963 1.393 . S
C1967 C1966 1.391 . S
H1968 C1976 0.950 . S
H1969 C1981 0.950 . S
H1970 C1978 0.950 . S
H1971 C1980 0.950 . S
H1972 C1982 0.950 1_545 S
H1973 C1984 0.950 . S
H1974 C1986 0.950 . S
H1975 C1987 0.950 1_545 S
C1976 H1968 0.950 . S
C1976 C1977 1.386 . S
C1976 C1978 1.391 . S
C1977 C1976 1.386 . S
C1977 C1981 1.393 . S
C1978 H1970 0.950 . S
C1978 C1976 1.391 . S
C1978 C1979 1.400 . S
C1979 C1978 1.400 . S
C1979 C1980 1.398 . S
C1979 C1985 1.491 . S
C1980 H1971 0.950 . S
C1980 C1979 1.398 . S
C1980 C1981 1.391 . S
C1981 H1969 0.950 . S
C1981 C1977 1.393 . S
C1981 C1980 1.391 . S
C1982 H1972 0.950 1_565 S
C1982 C1983 1.386 1_565 S
C1982 C1984 1.391 . S
C1983 C1982 1.386 1_545 S
C1983 C1987 1.393 1_545 S
C1984 H1973 0.950 . S
C1984 C1982 1.391 . S
C1984 C1985 1.400 . S
C1985 C1979 1.491 . S
C1985 C1984 1.400 . S
C1985 C1986 1.398 . S
C1986 H1974 0.950 . S
C1986 C1985 1.398 . S
C1986 C1987 1.391 . S
C1987 H1975 0.950 1_565 S
C1987 C1983 1.393 1_565 S
C1987 C1986 1.391 . S
H1988 C1996 0.950 . S
H1989 C2001 0.950 . S
H1990 C1998 0.950 . S
H1991 C2000 0.950 . S
H1992 C2002 0.950 . S
H1993 C2004 0.950 . S
H1994 C2006 0.950 . S
H1995 C2007 0.950 . S
C1996 H1988 0.950 . S
C1996 C1997 1.386 . S
C1996 C1998 1.391 . S
C1997 C1996 1.386 . S
C1997 C2001 1.393 1_565 S
C1998 H1990 0.950 . S
C1998 C1996 1.391 . S
C1998 C1999 1.400 . S
C1999 C1998 1.400 . S
C1999 C2000 1.398 1_565 S
C1999 C2005 1.491 . S
C2000 H1991 0.950 . S
C2000 C1999 1.398 1_545 S
C2000 C2001 1.391 . S
C2001 H1989 0.950 . S
C2001 C1997 1.393 1_545 S
C2001 C2000 1.391 . S
C2002 H1992 0.950 . S
C2002 C2003 1.386 1_545 S
C2002 C2004 1.391 . S
C2003 C2002 1.386 1_565 S
C2003 C2007 1.393 . S
C2004 H1993 0.950 . S
C2004 C2002 1.391 . S
C2004 C2005 1.400 1_545 S
C2005 C1999 1.491 . S
C2005 C2004 1.400 1_565 S
C2005 C2006 1.398 . S
C2006 H1994 0.950 . S
C2006 C2005 1.398 . S
C2006 C2007 1.391 . S
C2007 H1995 0.950 . S
C2007 C2003 1.393 . S
C2007 C2006 1.391 . S
H2008 C2016 0.948 1_565 S
H2009 C2021 0.950 1_565 S
H2010 C2018 0.950 . S
H2011 C2020 0.950 . S
H2012 C2022 0.950 . S
H2013 C2024 0.950 . S
H2014 C2026 0.950 . S
H2015 C2027 0.950 . S
C2016 H2008 0.948 1_545 S
C2016 C2017 1.386 1_545 S
C2016 C2018 1.391 . S
C2017 C2016 1.386 1_565 S
C2017 C2021 1.393 1_565 S
C2018 H2010 0.950 . S
C2018 C2016 1.391 . S
C2018 C2019 1.400 . S
C2019 C2018 1.400 . S
C2019 C2020 1.398 . S
C2019 C2025 1.491 . S
C2020 H2011 0.950 . S
C2020 C2019 1.398 . S
C2020 C2021 1.391 . S
C2021 H2009 0.950 1_545 S
C2021 C2017 1.393 1_545 S
C2021 C2020 1.391 . S
C2022 H2012 0.950 . S
C2022 C2023 1.386 . S
C2022 C2024 1.391 . S
C2023 C2022 1.386 . S
C2023 C2027 1.393 . S
C2024 H2013 0.950 . S
C2024 C2022 1.391 . S
C2024 C2025 1.400 . S
C2025 C2019 1.491 . S
C2025 C2024 1.400 . S
C2025 C2026 1.398 . S
C2026 H2014 0.950 . S
C2026 C2025 1.398 . S
C2026 C2027 1.391 . S
C2027 H2015 0.950 . S
C2027 C2023 1.393 . S
C2027 C2026 1.391 . S
H2028 C2036 0.950 . S
H2029 C2041 0.950 . S
H2030 C2038 0.950 . S
H2031 C2040 0.950 . S
H2032 C2042 0.950 . S
H2033 C2044 0.950 . S
H2034 C2046 0.950 . S
H2035 C2047 0.950 . S
C2036 H2028 0.950 . S
C2036 C2037 1.386 . S
C2036 C2038 1.391 . S
C2037 C2036 1.386 . S
C2037 C2041 1.393 1_545 S
C2038 H2030 0.950 . S
C2038 C2036 1.391 . S
C2038 C2039 1.400 . S
C2039 C2038 1.400 . S
C2039 C2040 1.398 1_545 S
C2039 C2045 1.491 . S
C2040 H2031 0.950 . S
C2040 C2039 1.398 1_565 S
C2040 C2041 1.391 . S
C2041 H2029 0.950 . S
C2041 C2037 1.393 1_565 S
C2041 C2040 1.391 . S
C2042 H2032 0.950 . S
C2042 C2043 1.386 1_565 S
C2042 C2044 1.391 . S
C2043 C2042 1.386 1_545 S
C2043 C2047 1.393 . S
C2044 H2033 0.950 . S
C2044 C2042 1.391 . S
C2044 C2045 1.400 1_565 S
C2045 C2039 1.491 . S
C2045 C2044 1.400 1_545 S
C2045 C2046 1.398 . S
C2046 H2034 0.950 . S
C2046 C2045 1.398 . S
C2046 C2047 1.391 . S
C2047 H2035 0.950 . S
C2047 C2043 1.393 . S
C2047 C2046 1.391 . S
H2048 C2056 0.950 . S
H2049 C2061 0.950 . S
H2050 C2058 0.950 . S
H2051 C2060 0.950 . S
H2052 C2062 0.950 . S
H2053 C2064 0.950 . S
H2054 C2066 0.950 . S
H2055 C2067 0.950 . S
C2056 H2048 0.950 . S
C2056 C2057 1.386 . S
C2056 C2058 1.391 . S
C2057 C2056 1.386 . S
C2057 C2061 1.393 . S
C2058 H2050 0.950 . S
C2058 C2056 1.391 . S
C2058 C2059 1.400 . S
C2059 C2058 1.400 . S
C2059 C2060 1.398 . S
C2059 C2065 1.491 . S
C2060 H2051 0.950 . S
C2060 C2059 1.398 . S
C2060 C2061 1.391 . S
C2061 H2049 0.950 . S
C2061 C2057 1.393 . S
C2061 C2060 1.391 . S
C2062 H2052 0.950 . S
C2062 C2063 1.386 . S
C2062 C2064 1.391 . S
C2063 C2062 1.386 . S
C2063 C2067 1.393 . S
C2064 H2053 0.950 . S
C2064 C2062 1.391 . S
C2064 C2065 1.400 . S
C2065 C2059 1.491 . S
C2065 C2064 1.400 . S
C2065 C2066 1.398 . S
C2066 H2054 0.950 . S
C2066 C2065 1.398 . S
C2066 C2067 1.391 . S
C2067 H2055 0.950 . S
C2067 C2063 1.393 . S
C2067 C2066 1.391 . S
H2068 C2076 0.950 . S
H2069 C2081 0.950 . S
H2070 C2078 0.950 . S
H2071 C2080 0.950 . S
H2072 C2082 0.950 . S
H2073 C2084 0.950 . S
H2074 C2086 0.950 . S
H2075 C2087 0.950 . S
C2076 H2068 0.950 . S
C2076 C2077 1.386 . S
C2076 C2078 1.391 . S
C2077 C2076 1.386 . S
C2077 C2081 1.393 . S
C2078 H2070 0.950 . S
C2078 C2076 1.391 . S
C2078 C2079 1.400 . S
C2079 C2078 1.400 . S
C2079 C2080 1.398 . S
C2079 C2085 1.491 . S
C2080 H2071 0.950 . S
C2080 C2079 1.398 . S
C2080 C2081 1.391 . S
C2081 H2069 0.950 . S
C2081 C2077 1.393 . S
C2081 C2080 1.391 . S
C2082 H2072 0.950 . S
C2082 C2083 1.386 . S
C2082 C2084 1.391 . S
C2083 C2082 1.386 . S
C2083 C2087 1.393 . S
C2084 H2073 0.950 . S
C2084 C2082 1.391 . S
C2084 C2085 1.400 . S
C2085 C2079 1.491 . S
C2085 C2084 1.400 . S
C2085 C2086 1.398 . S
C2086 H2074 0.950 . S
C2086 C2085 1.398 . S
C2086 C2087 1.391 . S
C2087 H2075 0.950 . S
C2087 C2083 1.393 . S
C2087 C2086 1.391 . S
H2088 C2096 0.950 . S
H2089 C2101 0.950 . S
H2090 C2098 0.950 . S
H2091 C2100 0.950 . S
H2092 C2102 0.950 . S
H2093 C2104 0.950 . S
H2094 C2106 0.950 . S
H2095 C2107 0.950 . S
C2096 H2088 0.950 . S
C2096 C2097 1.386 . S
C2096 C2098 1.391 . S
C2097 C2096 1.386 . S
C2097 C2101 1.393 . S
C2098 H2090 0.950 . S
C2098 C2096 1.391 . S
C2098 C2099 1.400 . S
C2099 C2098 1.400 . S
C2099 C2100 1.398 . S
C2099 C2105 1.491 . S
C2100 H2091 0.950 . S
C2100 C2099 1.398 . S
C2100 C2101 1.391 . S
C2101 H2089 0.950 . S
C2101 C2097 1.393 . S
C2101 C2100 1.391 . S
C2102 H2092 0.950 . S
C2102 C2103 1.386 . S
C2102 C2104 1.391 . S
C2103 C2102 1.386 . S
C2103 C2107 1.393 . S
C2104 H2093 0.950 . S
C2104 C2102 1.391 . S
C2104 C2105 1.400 . S
C2105 C2099 1.491 . S
C2105 C2104 1.400 . S
C2105 C2106 1.398 . S
C2106 H2094 0.950 . S
C2106 C2105 1.398 . S
C2106 C2107 1.391 . S
C2107 H2095 0.950 . S
C2107 C2103 1.393 . S
C2107 C2106 1.391 . S
H2108 C2116 0.950 . S
H2109 C2121 0.950 . S
H2110 C2118 0.950 . S
H2111 C2120 0.950 . S
H2112 C2122 0.950 . S
H2113 C2124 0.950 . S
H2114 C2126 0.950 . S
H2115 C2127 0.950 . S
C2116 H2108 0.950 . S
C2116 C2117 1.386 . S
C2116 C2118 1.391 . S
C2117 C2116 1.386 . S
C2117 C2121 1.393 . S
C2118 H2110 0.950 . S
C2118 C2116 1.391 . S
C2118 C2119 1.400 . S
C2119 C2118 1.400 . S
C2119 C2120 1.398 . S
C2119 C2125 1.491 . S
C2120 H2111 0.950 . S
C2120 C2119 1.398 . S
C2120 C2121 1.391 . S
C2121 H2109 0.950 . S
C2121 C2117 1.393 . S
C2121 C2120 1.391 . S
C2122 H2112 0.950 . S
C2122 C2123 1.386 . S
C2122 C2124 1.391 . S
C2123 C2122 1.386 . S
C2123 C2127 1.393 . S
C2124 H2113 0.950 . S
C2124 C2122 1.391 . S
C2124 C2125 1.400 . S
C2125 C2119 1.491 . S
C2125 C2124 1.400 . S
C2125 C2126 1.398 . S
C2126 H2114 0.950 . S
C2126 C2125 1.398 . S
C2126 C2127 1.391 . S
C2127 H2115 0.950 . S
C2127 C2123 1.393 . S
C2127 C2126 1.391 . S
H2128 C2136 0.950 . S
H2129 C2141 0.950 . S
H2130 C2138 0.950 . S
H2131 C2140 0.950 . S
H2132 C2142 0.950 . S
H2133 C2144 0.950 . S
H2134 C2146 0.950 . S
H2135 C2147 0.950 . S
C2136 H2128 0.950 . S
C2136 C2137 1.386 . S
C2136 C2138 1.391 . S
C2137 C2136 1.386 . S
C2137 C2141 1.393 . S
C2138 H2130 0.950 . S
C2138 C2136 1.391 . S
C2138 C2139 1.400 . S
C2139 C2138 1.400 . S
C2139 C2140 1.398 . S
C2139 C2145 1.491 . S
C2140 H2131 0.950 . S
C2140 C2139 1.398 . S
C2140 C2141 1.391 . S
C2141 H2129 0.950 . S
C2141 C2137 1.393 . S
C2141 C2140 1.391 . S
C2142 H2132 0.950 . S
C2142 C2143 1.386 . S
C2142 C2144 1.391 . S
C2143 C2142 1.386 . S
C2143 C2147 1.393 . S
C2144 H2133 0.950 . S
C2144 C2142 1.391 . S
C2144 C2145 1.400 . S
C2145 C2139 1.491 . S
C2145 C2144 1.400 . S
C2145 C2146 1.398 . S
C2146 H2134 0.950 . S
C2146 C2145 1.398 . S
C2146 C2147 1.391 . S
C2147 H2135 0.950 . S
C2147 C2143 1.393 . S
C2147 C2146 1.391 . S
H2148 C2156 0.950 . S
H2149 C2161 0.950 . S
H2150 C2158 0.950 . S
H2151 C2160 0.950 . S
H2152 C2162 0.950 . S
H2153 C2164 0.950 . S
H2154 C2166 0.950 . S
H2155 C2167 0.950 . S
C2156 H2148 0.950 . S
C2156 C2157 1.386 . S
C2156 C2158 1.391 . S
C2157 C2156 1.386 . S
C2157 C2161 1.393 . S
C2158 H2150 0.950 . S
C2158 C2156 1.391 . S
C2158 C2159 1.400 . S
C2159 C2158 1.400 . S
C2159 C2160 1.398 . S
C2159 C2165 1.491 . S
C2160 H2151 0.950 . S
C2160 C2159 1.398 . S
C2160 C2161 1.391 . S
C2161 H2149 0.950 . S
C2161 C2157 1.393 . S
C2161 C2160 1.391 . S
C2162 H2152 0.950 . S
C2162 C2163 1.386 . S
C2162 C2164 1.391 . S
C2163 C2162 1.386 . S
C2163 C2167 1.393 . S
C2164 H2153 0.950 . S
C2164 C2162 1.391 . S
C2164 C2165 1.400 . S
C2165 C2159 1.491 . S
C2165 C2164 1.400 . S
C2165 C2166 1.398 . S
C2166 H2154 0.950 . S
C2166 C2165 1.398 . S
C2166 C2167 1.391 . S
C2167 H2155 0.950 . S
C2167 C2163 1.393 . S
C2167 C2166 1.391 . S
H2168 C2176 0.950 . S
H2169 C2181 0.950 . S
H2170 C2178 0.950 . S
H2171 C2180 0.950 . S
H2172 C2182 0.950 . S
H2173 C2184 0.950 . S
H2174 C2186 0.950 . S
H2175 C2187 0.950 . S
C2176 H2168 0.950 . S
C2176 C2177 1.386 . S
C2176 C2178 1.391 . S
C2177 C2176 1.386 . S
C2177 C2181 1.393 . S
C2178 H2170 0.950 . S
C2178 C2176 1.391 . S
C2178 C2179 1.400 . S
C2179 C2178 1.400 . S
C2179 C2180 1.398 . S
C2179 C2185 1.491 . S
C2180 H2171 0.950 . S
C2180 C2179 1.398 . S
C2180 C2181 1.391 . S
C2181 H2169 0.950 . S
C2181 C2177 1.393 . S
C2181 C2180 1.391 . S
C2182 H2172 0.950 . S
C2182 C2183 1.386 . S
C2182 C2184 1.391 . S
C2183 C2182 1.386 . S
C2183 C2187 1.393 . S
C2184 H2173 0.950 . S
C2184 C2182 1.391 . S
C2184 C2185 1.400 . S
C2185 C2179 1.491 . S
C2185 C2184 1.400 . S
C2185 C2186 1.398 . S
C2186 H2174 0.950 . S
C2186 C2185 1.398 . S
C2186 C2187 1.391 . S
C2187 H2175 0.950 . S
C2187 C2183 1.393 . S
C2187 C2186 1.391 . S
H2188 C2196 0.950 . S
H2189 C2201 0.950 . S
H2190 C2198 0.950 . S
H2191 C2200 0.950 . S
H2192 C2202 0.950 . S
H2193 C2204 0.950 . S
H2194 C2206 0.950 . S
H2195 C2207 0.950 . S
C2196 H2188 0.950 . S
C2196 C2197 1.386 . S
C2196 C2198 1.391 . S
C2197 C2196 1.386 . S
C2197 C2201 1.393 . S
C2198 H2190 0.950 . S
C2198 C2196 1.391 . S
C2198 C2199 1.400 . S
C2199 C2198 1.400 . S
C2199 C2200 1.398 . S
C2199 C2205 1.491 . S
C2200 H2191 0.950 . S
C2200 C2199 1.398 . S
C2200 C2201 1.391 . S
C2201 H2189 0.950 . S
C2201 C2197 1.393 . S
C2201 C2200 1.391 . S
C2202 H2192 0.950 . S
C2202 C2203 1.386 . S
C2202 C2204 1.391 . S
C2203 C2202 1.386 . S
C2203 C2207 1.393 . S
C2204 H2193 0.950 . S
C2204 C2202 1.391 . S
C2204 C2205 1.400 . S
C2205 C2199 1.491 . S
C2205 C2204 1.400 . S
C2205 C2206 1.398 . S
C2206 H2194 0.950 . S
C2206 C2205 1.398 . S
C2206 C2207 1.391 . S
C2207 H2195 0.950 . S
C2207 C2203 1.393 . S
C2207 C2206 1.391 . S
H2208 C2216 0.950 . S
H2209 C2221 0.950 . S
H2210 C2218 0.950 . S
H2211 C2220 0.950 . S
H2212 C2222 0.950 . S
H2213 C2224 0.950 . S
H2214 C2226 0.950 . S
H2215 C2227 0.950 . S
C2216 H2208 0.950 . S
C2216 C2217 1.386 . S
C2216 C2218 1.391 . S
C2217 C2216 1.386 . S
C2217 C2221 1.393 . S
C2218 H2210 0.950 . S
C2218 C2216 1.391 . S
C2218 C2219 1.400 . S
C2219 C2218 1.400 . S
C2219 C2220 1.398 . S
C2219 C2225 1.491 . S
C2220 H2211 0.950 . S
C2220 C2219 1.398 . S
C2220 C2221 1.391 . S
C2221 H2209 0.950 . S
C2221 C2217 1.393 . S
C2221 C2220 1.391 . S
C2222 H2212 0.950 . S
C2222 C2223 1.386 . S
C2222 C2224 1.391 . S
C2223 C2222 1.386 . S
C2223 C2227 1.393 . S
C2224 H2213 0.950 . S
C2224 C2222 1.391 . S
C2224 C2225 1.400 . S
C2225 C2219 1.491 . S
C2225 C2224 1.400 . S
C2225 C2226 1.398 . S
C2226 H2214 0.950 . S
C2226 C2225 1.398 . S
C2226 C2227 1.391 . S
C2227 H2215 0.950 . S
C2227 C2223 1.393 . S
C2227 C2226 1.391 . S
H2228 C2236 0.950 . S
H2229 C2241 0.950 . S
H2230 C2238 0.950 . S
H2231 C2240 0.950 . S
H2232 C2242 0.950 . S
H2233 C2244 0.950 . S
H2234 C2246 0.950 . S
H2235 C2247 0.950 . S
C2236 H2228 0.950 . S
C2236 C2237 1.386 . S
C2236 C2238 1.391 . S
C2237 C2236 1.386 . S
C2237 C2241 1.393 . S
C2238 H2230 0.950 . S
C2238 C2236 1.391 . S
C2238 C2239 1.400 . S
C2239 C2238 1.400 . S
C2239 C2240 1.398 . S
C2239 C2245 1.491 . S
C2240 H2231 0.950 . S
C2240 C2239 1.398 . S
C2240 C2241 1.391 . S
C2241 H2229 0.950 . S
C2241 C2237 1.393 . S
C2241 C2240 1.391 . S
C2242 H2232 0.950 . S
C2242 C2243 1.386 . S
C2242 C2244 1.391 . S
C2243 C2242 1.386 . S
C2243 C2247 1.393 . S
C2244 H2233 0.950 . S
C2244 C2242 1.391 . S
C2244 C2245 1.400 . S
C2245 C2239 1.491 . S
C2245 C2244 1.400 . S
C2245 C2246 1.398 . S
C2246 H2234 0.950 . S
C2246 C2245 1.398 . S
C2246 C2247 1.391 . S
C2247 H2235 0.950 . S
C2247 C2243 1.393 . S
C2247 C2246 1.391 . S
H2248 C2256 0.950 . S
H2249 C2261 0.950 . S
H2250 C2258 0.950 . S
H2251 C2260 0.950 . S
H2252 C2262 0.950 . S
H2253 C2264 0.950 . S
H2254 C2266 0.950 . S
H2255 C2267 0.950 . S
C2256 H2248 0.950 . S
C2256 C2257 1.386 . S
C2256 C2258 1.391 . S
C2257 C2256 1.386 . S
C2257 C2261 1.393 . S
C2258 H2250 0.950 . S
C2258 C2256 1.391 . S
C2258 C2259 1.400 . S
C2259 C2258 1.400 . S
C2259 C2260 1.398 . S
C2259 C2265 1.491 . S
C2260 H2251 0.950 . S
C2260 C2259 1.398 . S
C2260 C2261 1.391 . S
C2261 H2249 0.950 . S
C2261 C2257 1.393 . S
C2261 C2260 1.391 . S
C2262 H2252 0.950 . S
C2262 C2263 1.386 . S
C2262 C2264 1.391 . S
C2263 C2262 1.386 . S
C2263 C2267 1.393 . S
C2264 H2253 0.950 . S
C2264 C2262 1.391 . S
C2264 C2265 1.400 . S
C2265 C2259 1.491 . S
C2265 C2264 1.400 . S
C2265 C2266 1.398 . S
C2266 H2254 0.950 . S
C2266 C2265 1.398 . S
C2266 C2267 1.391 . S
C2267 H2255 0.950 . S
C2267 C2263 1.393 . S
C2267 C2266 1.391 . S
H2268 C2276 0.950 . S
H2269 C2281 0.950 . S
H2270 C2278 0.950 . S
H2271 C2280 0.950 . S
H2272 C2282 0.950 . S
H2273 C2284 0.950 . S
H2274 C2286 0.950 . S
H2275 C2287 0.950 . S
C2276 H2268 0.950 . S
C2276 C2277 1.386 . S
C2276 C2278 1.391 . S
C2277 C2276 1.386 . S
C2277 C2281 1.393 . S
C2278 H2270 0.950 . S
C2278 C2276 1.391 . S
C2278 C2279 1.400 . S
C2279 C2278 1.400 . S
C2279 C2280 1.398 . S
C2279 C2285 1.491 . S
C2280 H2271 0.950 . S
C2280 C2279 1.398 . S
C2280 C2281 1.391 . S
C2281 H2269 0.950 . S
C2281 C2277 1.393 . S
C2281 C2280 1.391 . S
C2282 H2272 0.950 . S
C2282 C2283 1.386 . S
C2282 C2284 1.391 . S
C2283 C2282 1.386 . S
C2283 C2287 1.393 . S
C2284 H2273 0.950 . S
C2284 C2282 1.391 . S
C2284 C2285 1.400 . S
C2285 C2279 1.491 . S
C2285 C2284 1.400 . S
C2285 C2286 1.398 . S
C2286 H2274 0.950 . S
C2286 C2285 1.398 . S
C2286 C2287 1.391 . S
C2287 H2275 0.950 . S
C2287 C2283 1.393 . S
C2287 C2286 1.391 . S
H2288 C2296 0.950 . S
H2289 C2301 0.950 . S
H2290 C2298 0.950 . S
H2291 C2300 0.950 . S
H2292 C2302 0.950 . S
H2293 C2304 0.950 . S
H2294 C2306 0.950 . S
H2295 C2307 0.950 . S
C2296 H2288 0.950 . S
C2296 C2297 1.386 . S
C2296 C2298 1.391 . S
C2297 C2296 1.386 . S
C2297 C2301 1.393 . S
C2298 H2290 0.950 . S
C2298 C2296 1.391 . S
C2298 C2299 1.400 . S
C2299 C2298 1.400 . S
C2299 C2300 1.398 . S
C2299 C2305 1.491 . S
C2300 H2291 0.950 . S
C2300 C2299 1.398 . S
C2300 C2301 1.391 . S
C2301 H2289 0.950 . S
C2301 C2297 1.393 . S
C2301 C2300 1.391 . S
C2302 H2292 0.950 . S
C2302 C2303 1.386 . S
C2302 C2304 1.391 . S
C2303 C2302 1.386 . S
C2303 C2307 1.393 . S
C2304 H2293 0.950 . S
C2304 C2302 1.391 . S
C2304 C2305 1.400 . S
C2305 C2299 1.491 . S
C2305 C2304 1.400 . S
C2305 C2306 1.398 . S
C2306 H2294 0.950 . S
C2306 C2305 1.398 . S
C2306 C2307 1.391 . S
C2307 H2295 0.950 . S
C2307 C2303 1.393 . S
C2307 C2306 1.391 . S
H2308 C2316 0.950 . S
H2309 C2321 0.950 . S
H2310 C2318 0.950 . S
H2311 C2320 0.950 . S
H2312 C2322 0.950 . S
H2313 C2324 0.950 . S
H2314 C2326 0.950 . S
H2315 C2327 0.950 . S
C2316 H2308 0.950 . S
C2316 C2317 1.386 . S
C2316 C2318 1.391 . S
C2317 C2316 1.386 . S
C2317 C2321 1.393 . S
C2318 H2310 0.950 . S
C2318 C2316 1.391 . S
C2318 C2319 1.400 . S
C2319 C2318 1.400 . S
C2319 C2320 1.398 . S
C2319 C2325 1.491 . S
C2320 H2311 0.950 . S
C2320 C2319 1.398 . S
C2320 C2321 1.391 . S
C2321 H2309 0.950 . S
C2321 C2317 1.393 . S
C2321 C2320 1.391 . S
C2322 H2312 0.950 . S
C2322 C2323 1.386 . S
C2322 C2324 1.391 . S
C2323 C2322 1.386 . S
C2323 C2327 1.393 . S
C2324 H2313 0.950 . S
C2324 C2322 1.391 . S
C2324 C2325 1.400 . S
C2325 C2319 1.491 . S
C2325 C2324 1.400 . S
C2325 C2326 1.398 . S
C2326 H2314 0.950 . S
C2326 C2325 1.398 . S
C2326 C2327 1.391 . S
C2327 H2315 0.950 . S
C2327 C2323 1.393 . S
C2327 C2326 1.391 . S
H2328 C2336 0.950 . S
H2329 C2341 0.950 . S
H2330 C2338 0.950 . S
H2331 C2340 0.950 . S
H2332 C2342 0.950 . S
H2333 C2344 0.950 . S
H2334 C2346 0.950 . S
H2335 C2347 0.950 . S
C2336 H2328 0.950 . S
C2336 C2337 1.386 . S
C2336 C2338 1.391 . S
C2337 C2336 1.386 . S
C2337 C2341 1.393 . S
C2338 H2330 0.950 . S
C2338 C2336 1.391 . S
C2338 C2339 1.400 . S
C2339 C2338 1.400 . S
C2339 C2340 1.398 . S
C2339 C2345 1.491 . S
C2340 H2331 0.950 . S
C2340 C2339 1.398 . S
C2340 C2341 1.391 . S
C2341 H2329 0.950 . S
C2341 C2337 1.393 . S
C2341 C2340 1.391 . S
C2342 H2332 0.950 . S
C2342 C2343 1.386 . S
C2342 C2344 1.391 . S
C2343 C2342 1.386 . S
C2343 C2347 1.393 . S
C2344 H2333 0.950 . S
C2344 C2342 1.391 . S
C2344 C2345 1.400 . S
C2345 C2339 1.491 . S
C2345 C2344 1.400 . S
C2345 C2346 1.398 . S
C2346 H2334 0.950 . S
C2346 C2345 1.398 . S
C2346 C2347 1.391 . S
C2347 H2335 0.950 . S
C2347 C2343 1.393 . S
C2347 C2346 1.391 . S
H2348 C2356 0.950 . S
H2349 C2361 0.950 . S
H2350 C2358 0.950 . S
H2351 C2360 0.950 . S
H2352 C2362 0.950 . S
H2353 C2364 0.950 . S
H2354 C2366 0.950 . S
H2355 C2367 0.950 . S
C2356 H2348 0.950 . S
C2356 C2357 1.386 . S
C2356 C2358 1.391 . S
C2357 C2356 1.386 . S
C2357 C2361 1.393 . S
C2358 H2350 0.950 . S
C2358 C2356 1.391 . S
C2358 C2359 1.400 . S
C2359 C2358 1.400 . S
C2359 C2360 1.398 . S
C2359 C2365 1.491 . S
C2360 H2351 0.950 . S
C2360 C2359 1.398 . S
C2360 C2361 1.391 . S
C2361 H2349 0.950 . S
C2361 C2357 1.393 . S
C2361 C2360 1.391 . S
C2362 H2352 0.950 . S
C2362 C2363 1.386 . S
C2362 C2364 1.391 . S
C2363 C2362 1.386 . S
C2363 C2367 1.393 . S
C2364 H2353 0.950 . S
C2364 C2362 1.391 . S
C2364 C2365 1.400 . S
C2365 C2359 1.491 . S
C2365 C2364 1.400 . S
C2365 C2366 1.398 . S
C2366 H2354 0.950 . S
C2366 C2365 1.398 . S
C2366 C2367 1.391 . S
C2367 H2355 0.950 . S
C2367 C2363 1.393 . S
C2367 C2366 1.391 . S
H2368 C2376 0.950 . S
H2369 C2381 0.950 . S
H2370 C2378 0.950 . S
H2371 C2380 0.950 . S
H2372 C2382 0.950 . S
H2373 C2384 0.950 . S
H2374 C2386 0.950 . S
H2375 C2387 0.950 . S
C2376 H2368 0.950 . S
C2376 C2377 1.386 . S
C2376 C2378 1.391 . S
C2377 C2376 1.386 . S
C2377 C2381 1.393 . S
C2378 H2370 0.950 . S
C2378 C2376 1.391 . S
C2378 C2379 1.400 . S
C2379 C2378 1.400 . S
C2379 C2380 1.398 . S
C2379 C2385 1.491 . S
C2380 H2371 0.950 . S
C2380 C2379 1.398 . S
C2380 C2381 1.391 . S
C2381 H2369 0.950 . S
C2381 C2377 1.393 . S
C2381 C2380 1.391 . S
C2382 H2372 0.950 . S
C2382 C2383 1.386 . S
C2382 C2384 1.391 . S
C2383 C2382 1.386 . S
C2383 C2387 1.393 . S
C2384 H2373 0.950 . S
C2384 C2382 1.391 . S
C2384 C2385 1.400 . S
C2385 C2379 1.491 . S
C2385 C2384 1.400 . S
C2385 C2386 1.398 . S
C2386 H2374 0.950 . S
C2386 C2385 1.398 . S
C2386 C2387 1.391 . S
C2387 H2375 0.950 . S
C2387 C2383 1.393 . S
C2387 C2386 1.391 . S
H2388 C2396 0.950 1_455 S
H2389 C2401 0.950 . S
H2390 C2398 0.950 . S
H2391 C2400 0.950 . S
H2392 C2402 0.950 1_655 S
H2393 C2404 0.950 . S
H2394 C2406 0.950 . S
H2395 C2407 0.950 . S
C2396 H2388 0.950 1_655 S
C2396 C2397 1.386 . S
C2396 C2398 1.391 1_655 S
C2397 C2396 1.386 . S
C2397 C2401 1.393 . S
C2398 H2390 0.950 . S
C2398 C2396 1.391 1_455 S
C2398 C2399 1.400 1_455 S
C2399 C2398 1.400 1_655 S
C2399 C2400 1.398 . S
C2399 C2405 1.491 1_655 S
C2400 H2391 0.950 . S
C2400 C2399 1.398 . S
C2400 C2401 1.391 . S
C2401 H2389 0.950 . S
C2401 C2397 1.393 . S
C2401 C2400 1.391 . S
C2402 H2392 0.950 1_455 S
C2402 C2403 1.386 . S
C2402 C2404 1.391 1_455 S
C2403 C2402 1.386 . S
C2403 C2407 1.393 . S
C2404 H2393 0.950 . S
C2404 C2402 1.391 1_655 S
C2404 C2405 1.400 1_655 S
C2405 C2399 1.491 1_455 S
C2405 C2404 1.400 1_455 S
C2405 C2406 1.398 . S
C2406 H2394 0.950 . S
C2406 C2405 1.398 . S
C2406 C2407 1.391 . S
C2407 H2395 0.950 . S
C2407 C2403 1.393 . S
C2407 C2406 1.391 . S
H2408 C2416 0.950 . S
H2409 C2421 0.950 . S
H2410 C2418 0.950 . S
H2411 C2420 0.950 . S
H2412 C2422 0.950 . S
H2413 C2424 0.950 . S
H2414 C2426 0.950 . S
H2415 C2427 0.950 . S
C2416 H2408 0.950 . S
C2416 C2417 1.386 . S
C2416 C2418 1.391 . S
C2417 C2416 1.386 . S
C2417 C2421 1.393 . S
C2418 H2410 0.950 . S
C2418 C2416 1.391 . S
C2418 C2419 1.400 . S
C2419 C2418 1.400 . S
C2419 C2420 1.398 . S
C2419 C2425 1.491 1_455 S
C2420 H2411 0.950 . S
C2420 C2419 1.398 . S
C2420 C2421 1.391 . S
C2421 H2409 0.950 . S
C2421 C2417 1.393 . S
C2421 C2420 1.391 . S
C2422 H2412 0.950 . S
C2422 C2423 1.386 . S
C2422 C2424 1.391 . S
C2423 C2422 1.386 . S
C2423 C2427 1.393 . S
C2424 H2413 0.950 . S
C2424 C2422 1.391 . S
C2424 C2425 1.400 . S
C2425 C2419 1.491 1_655 S
C2425 C2424 1.400 . S
C2425 C2426 1.398 . S
C2426 H2414 0.950 . S
C2426 C2425 1.398 . S
C2426 C2427 1.391 . S
C2427 H2415 0.950 . S
C2427 C2423 1.393 . S
C2427 C2426 1.391 . S
H2428 C2436 0.950 . S
H2429 C2441 0.950 . S
H2430 C2438 0.950 . S
H2431 C2440 0.950 . S
H2432 C2442 0.950 . S
H2433 C2444 0.950 . S
H2434 C2446 0.950 . S
H2435 C2447 0.950 . S
C2436 H2428 0.950 . S
C2436 C2437 1.386 . S
C2436 C2438 1.391 . S
C2437 C2436 1.386 . S
C2437 C2441 1.393 . S
C2438 H2430 0.950 . S
C2438 C2436 1.391 . S
C2438 C2439 1.400 . S
C2439 C2438 1.400 . S
C2439 C2440 1.398 . S
C2439 C2445 1.491 . S
C2440 H2431 0.950 . S
C2440 C2439 1.398 . S
C2440 C2441 1.391 . S
C2441 H2429 0.950 . S
C2441 C2437 1.393 . S
C2441 C2440 1.391 . S
C2442 H2432 0.950 . S
C2442 C2443 1.386 . S
C2442 C2444 1.391 . S
C2443 C2442 1.386 . S
C2443 C2447 1.393 . S
C2444 H2433 0.950 . S
C2444 C2442 1.391 . S
C2444 C2445 1.400 . S
C2445 C2439 1.491 . S
C2445 C2444 1.400 . S
C2445 C2446 1.398 . S
C2446 H2434 0.950 . S
C2446 C2445 1.398 . S
C2446 C2447 1.391 . S
C2447 H2435 0.950 . S
C2447 C2443 1.393 . S
C2447 C2446 1.391 . S
H2448 C2456 0.950 . S
H2449 C2461 0.950 . S
H2450 C2458 0.950 . S
H2451 C2460 0.950 . S
H2452 C2462 0.950 . S
H2453 C2464 0.950 . S
H2454 C2466 0.950 . S
H2455 C2467 0.950 . S
C2456 H2448 0.950 . S
C2456 C2457 1.386 . S
C2456 C2458 1.391 . S
C2457 C2456 1.386 . S
C2457 C2461 1.393 . S
C2458 H2450 0.950 . S
C2458 C2456 1.391 . S
C2458 C2459 1.400 . S
C2459 C2458 1.400 . S
C2459 C2460 1.398 . S
C2459 C2465 1.491 . S
C2460 H2451 0.950 . S
C2460 C2459 1.398 . S
C2460 C2461 1.391 . S
C2461 H2449 0.950 . S
C2461 C2457 1.393 . S
C2461 C2460 1.391 . S
C2462 H2452 0.950 . S
C2462 C2463 1.386 . S
C2462 C2464 1.391 . S
C2463 C2462 1.386 . S
C2463 C2467 1.393 . S
C2464 H2453 0.950 . S
C2464 C2462 1.391 . S
C2464 C2465 1.400 . S
C2465 C2459 1.491 . S
C2465 C2464 1.400 . S
C2465 C2466 1.398 . S
C2466 H2454 0.950 . S
C2466 C2465 1.398 . S
C2466 C2467 1.391 . S
C2467 H2455 0.950 . S
C2467 C2463 1.393 . S
C2467 C2466 1.391 . S
H2468 C2476 0.950 . S
H2469 C2481 0.950 . S
H2470 C2478 0.950 . S
H2471 C2480 0.950 . S
H2472 C2482 0.950 . S
H2473 C2484 0.950 . S
H2474 C2486 0.950 . S
H2475 C2487 0.950 . S
C2476 H2468 0.950 . S
C2476 C2477 1.386 . S
C2476 C2478 1.391 . S
C2477 C2476 1.386 . S
C2477 C2481 1.393 . S
C2478 H2470 0.950 . S
C2478 C2476 1.391 . S
C2478 C2479 1.400 . S
C2479 C2478 1.400 . S
C2479 C2480 1.398 . S
C2479 C2485 1.491 . S
C2480 H2471 0.950 . S
C2480 C2479 1.398 . S
C2480 C2481 1.391 . S
C2481 H2469 0.950 . S
C2481 C2477 1.393 . S
C2481 C2480 1.391 . S
C2482 H2472 0.950 . S
C2482 C2483 1.386 . S
C2482 C2484 1.391 . S
C2483 C2482 1.386 . S
C2483 C2487 1.393 . S
C2484 H2473 0.950 . S
C2484 C2482 1.391 . S
C2484 C2485 1.400 . S
C2485 C2479 1.491 . S
C2485 C2484 1.400 . S
C2485 C2486 1.398 . S
C2486 H2474 0.950 . S
C2486 C2485 1.398 . S
C2486 C2487 1.391 . S
C2487 H2475 0.950 . S
C2487 C2483 1.393 . S
C2487 C2486 1.391 . S
H2488 C2496 0.950 . S
H2489 C2501 0.950 . S
H2490 C2498 0.950 . S
H2491 C2500 0.950 . S
H2492 C2502 0.950 . S
H2493 C2504 0.950 . S
H2494 C2506 0.950 . S
H2495 C2507 0.950 . S
C2496 H2488 0.950 . S
C2496 C2497 1.386 . S
C2496 C2498 1.391 . S
C2497 C2496 1.386 . S
C2497 C2501 1.393 . S
C2498 H2490 0.950 . S
C2498 C2496 1.391 . S
C2498 C2499 1.400 . S
C2499 C2498 1.400 . S
C2499 C2500 1.398 . S
C2499 C2505 1.491 1_655 S
C2500 H2491 0.950 . S
C2500 C2499 1.398 . S
C2500 C2501 1.391 . S
C2501 H2489 0.950 . S
C2501 C2497 1.393 . S
C2501 C2500 1.391 . S
C2502 H2492 0.950 . S
C2502 C2503 1.386 . S
C2502 C2504 1.391 . S
C2503 C2502 1.386 . S
C2503 C2507 1.393 . S
C2504 H2493 0.950 . S
C2504 C2502 1.391 . S
C2504 C2505 1.400 . S
C2505 C2499 1.491 1_455 S
C2505 C2504 1.400 . S
C2505 C2506 1.398 . S
C2506 H2494 0.950 . S
C2506 C2505 1.398 . S
C2506 C2507 1.391 . S
C2507 H2495 0.950 . S
C2507 C2503 1.393 . S
C2507 C2506 1.391 . S
H2508 C2516 0.950 . S
H2509 C2521 0.950 . S
H2510 C2518 0.950 . S
H2511 C2520 0.957 . S
H2512 C2522 0.950 . S
H2513 C2524 0.950 . S
H2514 C2526 0.957 . S
H2515 C2527 0.950 . S
C2516 H2508 0.950 . S
C2516 C2517 1.386 . S
C2516 C2518 1.391 . S
C2517 C2516 1.386 . S
C2517 C2521 1.393 . S
C2518 H2510 0.950 . S
C2518 C2516 1.391 . S
C2518 C2519 1.400 . S
C2519 C2518 1.400 . S
C2519 C2520 1.396 1_655 S
C2519 C2525 1.491 1_655 S
C2520 H2511 0.957 . S
C2520 C2519 1.396 1_455 S
C2520 C2521 1.386 1_455 S
C2521 H2509 0.950 . S
C2521 C2517 1.393 . S
C2521 C2520 1.386 1_655 S
C2522 H2512 0.950 . S
C2522 C2523 1.386 . S
C2522 C2524 1.391 . S
C2523 C2522 1.386 . S
C2523 C2527 1.393 . S
C2524 H2513 0.950 . S
C2524 C2522 1.391 . S
C2524 C2525 1.400 . S
C2525 C2519 1.491 1_455 S
C2525 C2524 1.400 . S
C2525 C2526 1.396 1_455 S
C2526 H2514 0.957 . S
C2526 C2525 1.396 1_655 S
C2526 C2527 1.386 1_655 S
C2527 H2515 0.950 . S
C2527 C2523 1.393 . S
C2527 C2526 1.386 1_455 S
H2528 C2536 0.950 . S
H2529 C2541 0.950 . S
H2530 C2538 0.950 . S
H2531 C2540 0.950 . S
H2532 C2542 0.950 . S
H2533 C2544 0.950 . S
H2534 C2546 0.950 . S
H2535 C2547 0.950 . S
C2536 H2528 0.950 . S
C2536 C2537 1.386 . S
C2536 C2538 1.391 . S
C2537 C2536 1.386 . S
C2537 C2541 1.393 . S
C2538 H2530 0.950 . S
C2538 C2536 1.391 . S
C2538 C2539 1.400 . S
C2539 C2538 1.400 . S
C2539 C2540 1.398 . S
C2539 C2545 1.491 . S
C2540 H2531 0.950 . S
C2540 C2539 1.398 . S
C2540 C2541 1.391 . S
C2541 H2529 0.950 . S
C2541 C2537 1.393 . S
C2541 C2540 1.391 . S
C2542 H2532 0.950 . S
C2542 C2543 1.386 . S
C2542 C2544 1.391 . S
C2543 C2542 1.386 . S
C2543 C2547 1.393 . S
C2544 H2533 0.950 . S
C2544 C2542 1.391 . S
C2544 C2545 1.400 . S
C2545 C2539 1.491 . S
C2545 C2544 1.400 . S
C2545 C2546 1.398 . S
C2546 H2534 0.950 . S
C2546 C2545 1.398 . S
C2546 C2547 1.391 . S
C2547 H2535 0.950 . S
C2547 C2543 1.393 . S
C2547 C2546 1.391 . S
H2548 C2556 0.950 . S
H2549 C2561 0.950 . S
H2550 C2558 0.950 1_655 S
H2551 C2560 0.950 . S
H2552 C2562 0.950 . S
H2553 C2564 0.950 1_455 S
H2554 C2566 0.950 . S
H2555 C2567 0.950 . S
C2556 H2548 0.950 . S
C2556 C2557 1.386 . S
C2556 C2558 1.391 . S
C2557 C2556 1.386 . S
C2557 C2561 1.393 . S
C2558 H2550 0.950 1_455 S
C2558 C2556 1.391 . S
C2558 C2559 1.400 . S
C2559 C2558 1.400 . S
C2559 C2560 1.398 . S
C2559 C2565 1.491 1_455 S
C2560 H2551 0.950 . S
C2560 C2559 1.398 . S
C2560 C2561 1.391 . S
C2561 H2549 0.950 . S
C2561 C2557 1.393 . S
C2561 C2560 1.391 . S
C2562 H2552 0.950 . S
C2562 C2563 1.386 . S
C2562 C2564 1.391 . S
C2563 C2562 1.386 . S
C2563 C2567 1.393 . S
C2564 H2553 0.950 1_655 S
C2564 C2562 1.391 . S
C2564 C2565 1.400 . S
C2565 C2559 1.491 1_655 S
C2565 C2564 1.400 . S
C2565 C2566 1.398 . S
C2566 H2554 0.950 . S
C2566 C2565 1.398 . S
C2566 C2567 1.391 . S
C2567 H2555 0.950 . S
C2567 C2563 1.393 . S
C2567 C2566 1.391 . S
H2568 C2576 0.950 . S
H2569 C2581 0.950 . S
H2570 C2578 0.950 . S
H2571 C2580 0.950 . S
H2572 C2582 0.950 . S
H2573 C2584 0.950 . S
H2574 C2586 0.950 . S
H2575 C2587 0.950 . S
C2576 H2568 0.950 . S
C2576 C2577 1.386 . S
C2576 C2578 1.391 . S
C2577 C2576 1.386 . S
C2577 C2581 1.393 . S
C2578 H2570 0.950 . S
C2578 C2576 1.391 . S
C2578 C2579 1.400 . S
C2579 C2578 1.400 . S
C2579 C2580 1.398 . S
C2579 C2585 1.491 1_655 S
C2580 H2571 0.950 . S
C2580 C2579 1.398 . S
C2580 C2581 1.391 . S
C2581 H2569 0.950 . S
C2581 C2577 1.393 . S
C2581 C2580 1.391 . S
C2582 H2572 0.950 . S
C2582 C2583 1.386 . S
C2582 C2584 1.391 . S
C2583 C2582 1.386 . S
C2583 C2587 1.393 . S
C2584 H2573 0.950 . S
C2584 C2582 1.391 . S
C2584 C2585 1.400 . S
C2585 C2579 1.491 1_455 S
C2585 C2584 1.400 . S
C2585 C2586 1.398 . S
C2586 H2574 0.950 . S
C2586 C2585 1.398 . S
C2586 C2587 1.391 . S
C2587 H2575 0.950 . S
C2587 C2583 1.393 . S
C2587 C2586 1.391 . S
H2588 C2596 0.950 . S
H2589 C2601 0.950 . S
H2590 C2598 0.950 . S
H2591 C2600 0.950 . S
H2592 C2602 0.950 . S
H2593 C2604 0.950 . S
H2594 C2606 0.950 . S
H2595 C2607 0.950 . S
C2596 H2588 0.950 . S
C2596 C2597 1.386 . S
C2596 C2598 1.391 . S
C2597 C2596 1.386 . S
C2597 C2601 1.393 . S
C2598 H2590 0.950 . S
C2598 C2596 1.391 . S
C2598 C2599 1.400 . S
C2599 C2598 1.400 . S
C2599 C2600 1.398 . S
C2599 C2605 1.491 . S
C2600 H2591 0.950 . S
C2600 C2599 1.398 . S
C2600 C2601 1.391 . S
C2601 H2589 0.950 . S
C2601 C2597 1.393 . S
C2601 C2600 1.391 . S
C2602 H2592 0.950 . S
C2602 C2603 1.386 . S
C2602 C2604 1.391 . S
C2603 C2602 1.386 . S
C2603 C2607 1.393 . S
C2604 H2593 0.950 . S
C2604 C2602 1.391 . S
C2604 C2605 1.400 . S
C2605 C2599 1.491 . S
C2605 C2604 1.400 . S
C2605 C2606 1.398 . S
C2606 H2594 0.950 . S
C2606 C2605 1.398 . S
C2606 C2607 1.391 . S
C2607 H2595 0.950 . S
C2607 C2603 1.393 . S
C2607 C2606 1.391 . S
H2608 C2616 0.950 . S
H2609 C2621 0.950 . S
H2610 C2618 0.950 . S
H2611 C2620 0.950 . S
H2612 C2622 0.950 . S
H2613 C2624 0.950 . S
H2614 C2626 0.950 . S
H2615 C2627 0.950 . S
C2616 H2608 0.950 . S
C2616 C2617 1.386 . S
C2616 C2618 1.391 . S
C2617 C2616 1.386 . S
C2617 C2621 1.393 . S
C2618 H2610 0.950 . S
C2618 C2616 1.391 . S
C2618 C2619 1.400 . S
C2619 C2618 1.400 . S
C2619 C2620 1.398 . S
C2619 C2625 1.491 . S
C2620 H2611 0.950 . S
C2620 C2619 1.398 . S
C2620 C2621 1.391 . S
C2621 H2609 0.950 . S
C2621 C2617 1.393 . S
C2621 C2620 1.391 . S
C2622 H2612 0.950 . S
C2622 C2623 1.386 . S
C2622 C2624 1.391 . S
C2623 C2622 1.386 . S
C2623 C2627 1.393 . S
C2624 H2613 0.950 . S
C2624 C2622 1.391 . S
C2624 C2625 1.400 . S
C2625 C2619 1.491 . S
C2625 C2624 1.400 . S
C2625 C2626 1.398 . S
C2626 H2614 0.950 . S
C2626 C2625 1.398 . S
C2626 C2627 1.391 . S
C2627 H2615 0.950 . S
C2627 C2623 1.393 . S
C2627 C2626 1.391 . S
H2628 C2636 0.950 . S
H2629 C2641 0.950 . S
H2630 C2638 0.950 . S
H2631 C2640 0.950 . S
H2632 C2642 0.950 . S
H2633 C2644 0.950 . S
H2634 C2646 0.950 . S
H2635 C2647 0.950 . S
C2636 H2628 0.950 . S
C2636 C2637 1.386 . S
C2636 C2638 1.391 . S
C2637 C2636 1.386 . S
C2637 C2641 1.393 . S
C2638 H2630 0.950 . S
C2638 C2636 1.391 . S
C2638 C2639 1.400 . S
C2639 C2638 1.400 . S
C2639 C2640 1.398 . S
C2639 C2645 1.491 . S
C2640 H2631 0.950 . S
C2640 C2639 1.398 . S
C2640 C2641 1.391 . S
C2641 H2629 0.950 . S
C2641 C2637 1.393 . S
C2641 C2640 1.391 . S
C2642 H2632 0.950 . S
C2642 C2643 1.386 . S
C2642 C2644 1.391 . S
C2643 C2642 1.386 . S
C2643 C2647 1.393 . S
C2644 H2633 0.950 . S
C2644 C2642 1.391 . S
C2644 C2645 1.400 . S
C2645 C2639 1.491 . S
C2645 C2644 1.400 . S
C2645 C2646 1.398 . S
C2646 H2634 0.950 . S
C2646 C2645 1.398 . S
C2646 C2647 1.391 . S
C2647 H2635 0.950 . S
C2647 C2643 1.393 . S
C2647 C2646 1.391 . S
H2648 C2656 0.950 . S
H2649 C2661 0.950 . S
H2650 C2658 0.950 . S
H2651 C2660 0.950 . S
H2652 C2662 0.950 . S
H2653 C2664 0.950 . S
H2654 C2666 0.950 . S
H2655 C2667 0.950 . S
C2656 H2648 0.950 . S
C2656 C2657 1.386 . S
C2656 C2658 1.391 . S
C2657 C2656 1.386 . S
C2657 C2661 1.393 . S
C2658 H2650 0.950 . S
C2658 C2656 1.391 . S
C2658 C2659 1.400 . S
C2659 C2658 1.400 . S
C2659 C2660 1.398 . S
C2659 C2665 1.491 1_455 S
C2660 H2651 0.950 . S
C2660 C2659 1.398 . S
C2660 C2661 1.391 . S
C2661 H2649 0.950 . S
C2661 C2657 1.393 . S
C2661 C2660 1.391 . S
C2662 H2652 0.950 . S
C2662 C2663 1.386 . S
C2662 C2664 1.391 . S
C2663 C2662 1.386 . S
C2663 C2667 1.393 . S
C2664 H2653 0.950 . S
C2664 C2662 1.391 . S
C2664 C2665 1.400 . S
C2665 C2659 1.491 1_655 S
C2665 C2664 1.400 . S
C2665 C2666 1.398 . S
C2666 H2654 0.950 . S
C2666 C2665 1.398 . S
C2666 C2667 1.391 . S
C2667 H2655 0.950 . S
C2667 C2663 1.393 . S
C2667 C2666 1.391 . S
H2668 C2676 0.950 . S
H2669 C2681 0.950 . S
H2670 C2678 0.950 . S
H2671 C2680 0.950 . S
H2672 C2682 0.950 . S
H2673 C2684 0.950 . S
H2674 C2686 0.950 . S
H2675 C2687 0.950 . S
C2676 H2668 0.950 . S
C2676 C2677 1.386 1_655 S
C2676 C2678 1.391 . S
C2677 C2676 1.386 1_455 S
C2677 C2681 1.393 . S
C2678 H2670 0.950 . S
C2678 C2676 1.391 . S
C2678 C2679 1.400 1_655 S
C2679 C2678 1.400 1_455 S
C2679 C2680 1.398 . S
C2679 C2685 1.491 1_455 S
C2680 H2671 0.950 . S
C2680 C2679 1.398 . S
C2680 C2681 1.391 . S
C2681 H2669 0.950 . S
C2681 C2677 1.393 . S
C2681 C2680 1.391 . S
C2682 H2672 0.950 . S
C2682 C2683 1.386 1_455 S
C2682 C2684 1.391 . S
C2683 C2682 1.386 1_655 S
C2683 C2687 1.393 . S
C2684 H2673 0.950 . S
C2684 C2682 1.391 . S
C2684 C2685 1.400 1_455 S
C2685 C2679 1.491 1_655 S
C2685 C2684 1.400 1_655 S
C2685 C2686 1.398 . S
C2686 H2674 0.950 . S
C2686 C2685 1.398 . S
C2686 C2687 1.391 . S
C2687 H2675 0.950 . S
C2687 C2683 1.393 . S
C2687 C2686 1.391 . S
C1097 C20 1.807 . S
C1103 C258 1.802 . S
C1117 C54 1.815 . S
C1123 C156 1.816 . S
C1137 C88 1.813 . S
C1143 C190 1.807 . S
C1157 C122 1.816 . S
C1163 C224 1.814 . S
C1177 C530 1.815 . S
C1183 C292 1.809 . S
C1197 C326 1.803 . S
C1203 C428 1.802 . S
C1217 C462 1.806 . S
C1223 C360 1.812 . S
C1237 C394 1.801 . S
C1243 C496 1.804 . S
C1257 C564 1.803 . S
C1263 C802 1.808 . S
C1277 C700 1.813 . S
C1283 C598 1.816 . S
C1297 C632 1.803 . S
C1303 C734 1.802 . S
C1317 C666 1.816 . S
C1323 C768 1.814 . S
C1337 C836 1.816 . S
C1343 C1074 1.815 . S
C1357 C870 1.816 . S
C1363 C972 1.814 . S
C1377 C1006 1.804 . S
C1383 C904 1.809 . S
C1397 C1040 1.811 . S
C1403 C938 1.816 . S
C1417 C206 1.604 . S
C1423 C2 1.604 . S
C1437 C36 1.605 . S
C1443 C240 1.605 . S
C1457 C70 1.604 . S
C1463 C138 1.604 . S
C1477 C104 1.603 . S
C1483 C172 1.603 . S
C1497 C274 1.604 . S
C1503 C478 1.605 . S
C1517 C512 1.605 . S
C1523 C308 1.605 . S
C1537 C410 1.604 . S
C1543 C342 1.604 . S
C1557 C444 1.605 . S
C1563 C376 1.605 . S
C1577 C546 1.605 . S
C1583 C750 1.605 . S
C1597 C784 1.603 . S
C1603 C580 1.603 . S
C1617 C682 1.603 . S
C1623 C614 1.603 . S
C1637 C648 1.606 . S
C1643 C716 1.606 . S
C1657 C1022 1.603 . S
C1663 C818 1.603 . S
C1677 C852 1.604 . S
C1683 C1056 1.604 . S
C1697 C954 1.604 . S
C1703 C886 1.604 . S
C1717 C988 1.603 . S
C1723 C920 1.603 . S
C1737 C957 0.693 . S
C1743 C9 0.680 . S
C1757 C447 0.704 . S
C1763 C43 0.739 . S
C1777 C1025 0.717 . S
C1783 C77 0.730 . S
C1797 C111 0.696 . S
C1803 C515 0.689 . S
C1817 C821 0.716 . S
C1823 C145 0.744 . S
C1837 C311 0.699 . S
C1843 C179 0.730 . S
C1857 C889 0.694 . S
C1863 C213 0.720 . S
C1877 C247 0.746 . S
C1883 C379 0.713 . S
C1897 C281 0.697 . S
C1903 C685 0.708 . S
C1917 C315 0.689 . S
C1923 C175 0.689 . S
C1937 C349 0.680 . S
C1943 C753 0.693 . S
C1957 C243 0.696 . S
C1963 C383 0.680 . S
C1977 C549 0.689 . S
C1983 C417 0.697 . S
C1997 C451 0.715 . S
C2003 C39 0.714 . S
C2017 C485 0.746 . S
C2023 C617 0.713 . S
C2037 C519 0.736 . S
C2043 C107 0.718 . S
C2057 C413 0.715 . S
C2063 C553 0.745 . S
C2077 C587 0.681 . S
C2083 C991 0.697 . S
C2097 C481 0.705 . S
C2103 C621 0.690 . S
C2117 C655 0.745 . S
C2123 C1059 0.715 . S
C2137 C689 0.680 . S
C2143 C277 0.695 . S
C2157 C723 0.680 . S
C2163 C855 0.696 . S
C2177 C345 0.716 . S
C2183 C757 0.745 . S
C2197 C791 0.731 . S
C2203 C923 0.717 . S
C2217 C141 0.690 . S
C2223 C825 0.705 . S
C2237 C719 0.691 . S
C2243 C859 0.682 . S
C2257 C209 0.689 . S
C2263 C893 0.687 . S
C2277 C787 0.717 . S
C2283 C927 0.743 . S
C2297 C5 0.690 . S
C2303 C961 0.683 . S
C2317 C583 0.717 . S
C2323 C995 0.743 . S
C2337 C1029 0.688 . S
C2343 C73 0.689 . S
C2357 C651 0.700 . S
C2363 C1063 0.733 . S
C2377 C645 2.345 . S
C2383 C33 2.346 . S
C2397 C679 2.346 . S
C2403 C67 2.345 . S
C2417 C101 2.345 . S
C2423 C577 2.345 . S
C2437 C135 2.345 . S
C2443 C611 2.345 . S
C2457 C781 2.345 . S
C2463 C169 2.346 . S
C2477 C203 2.345 . S
C2483 C815 2.347 . S
C2497 C713 2.348 . S
C2503 C237 2.347 . S
C2517 C747 2.345 . S
C2523 C271 2.345 . S
C2537 C917 2.346 . S
C2543 C305 2.348 . S
C2557 C951 2.347 . S
C2563 C339 2.347 . S
C2577 C373 2.347 . S
C2583 C849 2.346 . S
C2597 C407 2.347 . S
C2603 C883 2.348 . S
C2617 C441 2.347 . S
C2623 C1053 2.348 . S
C2637 C475 2.345 . S
C2643 C1087 2.346 . S
C2657 C985 2.346 . S
C2663 C509 2.347 . S
C2677 C1019 2.346 . S
C2683 C543 2.347 . S
