# Generated by pormake.
# Topology lcy-e, (6)-cn, num edge types: 1
# Building blocks:
#     Node 0, Type 0, BuildingBlock: GEDQOX_clean_sbu_0, # of connection points: 6
#     Node 1, Type 0, BuildingBlock: GEDQOX_clean_sbu_0, # of connection points: 6
#     Node 2, Type 0, BuildingBlock: GEDQOX_clean_sbu_0, # of connection points: 6
#     Node 3, Type 0, BuildingBlock: GEDQOX_clean_sbu_0, # of connection points: 6
#     Node 4, Type 0, BuildingBlock: GEDQOX_clean_sbu_0, # of connection points: 6
#     Node 5, Type 0, BuildingBlock: GEDQOX_clean_sbu_0, # of connection points: 6
#     Node 6, Type 0, BuildingBlock: GEDQOX_clean_sbu_0, # of connection points: 6
#     Node 7, Type 0, BuildingBlock: GEDQOX_clean_sbu_0, # of connection points: 6
#     Node 8, Type 0, BuildingBlock: GEDQOX_clean_sbu_0, # of connection points: 6
#     Node 9, Type 0, BuildingBlock: GEDQOX_clean_sbu_0, # of connection points: 6
#     Node 10, Type 0, BuildingBlock: GEDQOX_clean_sbu_0, # of connection points: 6
#     Node 11, Type 0, BuildingBlock: GEDQOX_clean_sbu_0, # of connection points: 6
#     Edge 12, Type (0, 0), BuildingBlock: AJUNOK_clean_linker_0, # of connection points: 2
#     Edge 13, Type (0, 0), BuildingBlock: AJUNOK_clean_linker_0, # of connection points: 2
#     Edge 14, Type (0, 0), BuildingBlock: AJUNOK_clean_linker_0, # of connection points: 2
#     Edge 15, Type (0, 0), BuildingBlock: AJUNOK_clean_linker_0, # of connection points: 2
#     Edge 16, Type (0, 0), BuildingBlock: AJUNOK_clean_linker_0, # of connection points: 2
#     Edge 17, Type (0, 0), BuildingBlock: AJUNOK_clean_linker_0, # of connection points: 2
#     Edge 18, Type (0, 0), BuildingBlock: AJUNOK_clean_linker_0, # of connection points: 2
#     Edge 19, Type (0, 0), BuildingBlock: AJUNOK_clean_linker_0, # of connection points: 2
#     Edge 20, Type (0, 0), BuildingBlock: AJUNOK_clean_linker_0, # of connection points: 2
#     Edge 21, Type (0, 0), BuildingBlock: AJUNOK_clean_linker_0, # of connection points: 2
#     Edge 22, Type (0, 0), BuildingBlock: AJUNOK_clean_linker_0, # of connection points: 2
#     Edge 23, Type (0, 0), BuildingBlock: AJUNOK_clean_linker_0, # of connection points: 2
#     Edge 24, Type (0, 0), BuildingBlock: AJUNOK_clean_linker_0, # of connection points: 2
#     Edge 25, Type (0, 0), BuildingBlock: AJUNOK_clean_linker_0, # of connection points: 2
#     Edge 26, Type (0, 0), BuildingBlock: AJUNOK_clean_linker_0, # of connection points: 2
#     Edge 27, Type (0, 0), BuildingBlock: AJUNOK_clean_linker_0, # of connection points: 2
#     Edge 28, Type (0, 0), BuildingBlock: AJUNOK_clean_linker_0, # of connection points: 2
#     Edge 29, Type (0, 0), BuildingBlock: AJUNOK_clean_linker_0, # of connection points: 2
#     Edge 30, Type (0, 0), BuildingBlock: AJUNOK_clean_linker_0, # of connection points: 2
#     Edge 31, Type (0, 0), BuildingBlock: AJUNOK_clean_linker_0, # of connection points: 2
#     Edge 32, Type (0, 0), BuildingBlock: AJUNOK_clean_linker_0, # of connection points: 2
#     Edge 33, Type (0, 0), BuildingBlock: AJUNOK_clean_linker_0, # of connection points: 2
#     Edge 34, Type (0, 0), BuildingBlock: AJUNOK_clean_linker_0, # of connection points: 2
#     Edge 35, Type (0, 0), BuildingBlock: AJUNOK_clean_linker_0, # of connection points: 2
#     Edge 36, Type (0, 0), BuildingBlock: AJUNOK_clean_linker_0, # of connection points: 2
#     Edge 37, Type (0, 0), BuildingBlock: AJUNOK_clean_linker_0, # of connection points: 2
#     Edge 38, Type (0, 0), BuildingBlock: AJUNOK_clean_linker_0, # of connection points: 2
#     Edge 39, Type (0, 0), BuildingBlock: AJUNOK_clean_linker_0, # of connection points: 2
#     Edge 40, Type (0, 0), BuildingBlock: AJUNOK_clean_linker_0, # of connection points: 2
#     Edge 41, Type (0, 0), BuildingBlock: AJUNOK_clean_linker_0, # of connection points: 2
#     Edge 42, Type (0, 0), BuildingBlock: AJUNOK_clean_linker_0, # of connection points: 2
#     Edge 43, Type (0, 0), BuildingBlock: AJUNOK_clean_linker_0, # of connection points: 2
#     Edge 44, Type (0, 0), BuildingBlock: AJUNOK_clean_linker_0, # of connection points: 2
#     Edge 45, Type (0, 0), BuildingBlock: AJUNOK_clean_linker_0, # of connection points: 2
#     Edge 46, Type (0, 0), BuildingBlock: AJUNOK_clean_linker_0, # of connection points: 2
#     Edge 47, Type (0, 0), BuildingBlock: AJUNOK_clean_linker_0, # of connection points: 2
# Relax obj value: 0.431
# Max RMSD: 0.358
# Mean RMSD: 0.266
data_MOF--net-lcy-e--node1-GEDQOX_clean_sbu_0--edge1-AJUNOK_clean_linker_0
_symmetry_space_group_name_H-M    P1
_symmetry_Int_Tables_number       1
_symmetry_cell_setting            triclinic
loop_
_symmetry_equiv_pos_as_xyz
'x, y, z'
_cell_length_a     28.802505
_cell_length_b     35.575171
_cell_length_c     34.806854
_cell_angle_alpha  90.688839
_cell_angle_beta   85.903165
_cell_angle_gamma 73.59167
loop_
_atom_site_label
_atom_site_type_symbol
_atom_site_fract_x
_atom_site_fract_y
_atom_site_fract_z
_atom_type_partial_charge
Nd0 Nd 0.12251 0.23911 0.47415 0.0
Nd1 Nd 0.18616 0.26252 0.50754 0.0
C2 C 0.05293 0.20576 0.45338 0.0
C3 C 0.02033 0.1778 0.45706 0.0
C4 C 0.96962 0.19135 0.4666 0.0
C5 C 0.93901 0.16601 0.46525 0.0
C6 C 0.95721 0.12564 0.45396 0.0
C7 C 1.00799 0.11223 0.4444 0.0
C8 C 0.03856 0.13746 0.44598 0.0
C9 C 0.21404 0.21415 0.42848 0.0
C10 C 0.1748 0.18154 0.53861 0.0
C11 C 0.24671 0.29275 0.54215 0.0
C12 C 0.27202 0.32002 0.52676 0.0
C13 C 0.27782 0.32294 0.48657 0.0
C14 C 0.28017 0.35822 0.47078 0.0
C15 C 0.27766 0.39035 0.49509 0.0
C16 C 0.27699 0.38612 0.53513 0.0
C17 C 0.27437 0.35099 0.55094 0.0
C18 C 0.10315 0.26633 0.57099 0.0
C19 C 0.15342 0.30869 0.42665 0.0
O20 O 0.04269 0.24043 0.47079 0.0
O21 O 0.09963 0.19075 0.44685 0.0
O22 O 0.17167 0.22934 0.41591 0.0
O23 O 0.20775 0.2116 0.46479 0.0
O24 O 0.13955 0.19002 0.51591 0.0
O25 O 0.20305 0.20468 0.54081 0.0
O26 O 0.25973 0.25726 0.52705 0.0
O27 O 0.19994 0.30794 0.5449 0.0
O28 O 0.10828 0.27903 0.53614 0.0
O29 O 0.1098 0.27847 0.53555 0.0
O30 O 0.187 0.30028 0.45179 0.0
O31 O 0.11742 0.29213 0.43208 0.0
H32 H 0.95312 0.22204 0.47435 0.0
H33 H 0.90043 0.17872 0.47198 0.0
H34 H 0.02454 0.08181 0.43561 0.0
H35 H 0.07688 0.12523 0.43757 0.0
H36 H 0.2759 0.29929 0.46742 0.0
H37 H 0.28123 0.36099 0.43983 0.0
H38 H 0.27462 0.411 0.55423 0.0
H39 H 0.269 0.34947 0.58195 0.0
Nd40 Nd 1.00492 0.95346 0.72273 0.0
Nd41 Nd 0.97625 0.88582 0.73718 0.0
C42 C 0.01728 1.02364 0.70811 0.0
C43 C 0.0493 0.04105 0.6829 0.0
C44 C 0.03403 0.05725 0.64774 0.0
C45 C 0.06299 0.0752 0.62477 0.0
C46 C 0.10805 0.07746 0.63627 0.0
C47 C 0.12321 0.06165 0.67158 0.0
C48 C 0.09424 0.04359 0.6946 0.0
C49 C 0.07579 0.88831 0.69382 0.0
C50 C 0.9368 0.92589 0.65566 0.0
C51 C 0.96933 0.81468 0.75105 0.0
C52 C 1.00214 0.77909 0.76539 0.0
C53 C 0.05133 0.76591 0.75155 0.0
C54 C 0.08326 0.735 0.76909 0.0
C55 C 0.06657 0.71738 0.80104 0.0
C56 C 0.01687 0.72953 0.8135 0.0
C57 C 0.98496 0.76 0.79573 0.0
C58 C 0.90559 0.95239 0.76924 0.0
C59 C 0.05606 0.90342 0.79737 0.0
O60 O 0.98555 1.00992 0.69208 0.0
O61 O 0.037 1.00167 0.73557 0.0
O62 O 0.08438 0.91832 0.70964 0.0
O63 O 0.031 0.89416 0.69107 0.0
O64 O 0.95291 0.95482 0.6699 0.0
O65 O 0.94436 0.89361 0.67591 0.0
O66 O 0.98156 0.82545 0.71704 0.0
O67 O 0.95366 0.84407 0.77595 0.0
O68 O 0.89661 0.92443 0.74951 0.0
O69 O 0.95114 0.9454 0.77031 0.0
O70 O 0.03944 0.87586 0.78142 0.0
O71 O 0.04176 0.93893 0.78242 0.0
H72 H 0.99931 0.05656 0.63814 0.0
H73 H 0.04953 0.0881 0.59825 0.0
H74 H 0.15752 0.0632 0.68135 0.0
H75 H 0.10693 0.03194 0.72177 0.0
H76 H 0.0655 0.7803 0.72812 0.0
H77 H 0.12119 0.72581 0.75853 0.0
H78 H 1.003 0.7169 0.8384 0.0
H79 H 0.94723 0.76987 0.80685 0.0
Nd80 Nd 0.2881 0.86768 0.96572 0.0
Nd81 Nd 0.2431 0.81533 1.0114 0.0
C82 C 0.35253 0.90358 0.93685 0.0
C83 C 0.39553 0.91882 0.94117 0.0
C84 C 0.42713 0.90789 0.9708 0.0
C85 C 0.46752 0.92294 0.97305 0.0
C86 C 0.47752 0.94915 0.94559 0.0
C87 C 0.44639 0.95886 0.91545 0.0
C88 C 0.40604 0.94428 0.91352 0.0
C89 C 0.20404 0.87184 0.92442 0.0
C90 C 0.23773 0.90479 0.0494 0.0
C91 C 0.20509 0.76265 0.04926 0.0
C92 C 0.21918 0.72109 0.06603 0.0
C93 C 0.2292 0.68612 1.04292 0.0
C94 C 0.23765 0.64823 0.05927 0.0
C95 C 0.23602 0.6431 0.09971 0.0
C96 C 0.22719 0.67813 0.12258 0.0
C97 C 0.21879 0.71586 0.10629 0.0
C98 C 0.33541 0.81112 1.03387 0.0
C99 C 0.32185 0.77622 0.94336 0.0
O100 O 0.35912 0.86568 0.93425 0.0
O101 O 0.3105 0.92221 0.95456 0.0
O102 O 0.23744 0.88919 0.91805 0.0
O103 O 0.21403 0.8506 0.95515 0.0
O104 O 0.25986 0.91037 1.01661 0.0
O105 O 0.22319 0.87225 0.05388 0.0
O106 O 0.20661 0.76677 1.01203 0.0
O107 O 0.21675 0.79131 0.06615 0.0
O108 O 0.32049 0.78107 1.02589 0.0
O109 O 0.30359 0.8414 1.02463 0.0
O110 O 0.27988 0.77537 0.95973 0.0
O111 O 0.33692 0.80733 0.94689 0.0
H112 H 0.42068 0.88772 0.99212 0.0
H113 H 0.49052 0.91448 0.99661 0.0
H114 H 0.45335 0.97769 0.89288 0.0
H115 H 0.38305 0.95275 0.88994 0.0
H116 H 0.22968 0.68797 1.01188 0.0
H117 H 0.24416 0.62286 1.03999 0.0
H118 H 0.22686 0.67663 0.15362 0.0
H119 H 0.21122 0.7413 0.12562 0.0
Nd120 Nd 0.44866 0.11054 0.24445 0.0
Nd121 Nd 0.5037 0.15378 0.26941 0.0
C122 C 0.40349 0.0627 0.21261 0.0
C123 C 0.37413 0.03923 0.19397 0.0
C124 C 0.38707 0.99792 0.19381 0.0
C125 C 0.35981 0.97668 0.17496 0.0
C126 C 0.31812 0.99596 0.15594 0.0
C127 C 0.30496 0.0374 0.15706 0.0
C128 C 0.33241 0.05847 0.17542 0.0
C129 C 0.40716 0.19263 0.2349 0.0
C130 C 0.53853 0.11735 0.18237 0.0
C131 C 0.54286 0.20701 0.29571 0.0
C132 C 0.52413 0.24741 0.31002 0.0
C133 C 0.4771 0.26932 0.30266 0.0
C134 C 0.45403 0.30319 0.32475 0.0
C135 C 0.47768 0.31481 0.35471 0.0
C136 C 0.52686 0.29545 0.35856 0.0
C137 C 0.54996 0.26173 0.33629 0.0
C138 C 0.55631 0.07696 0.28494 0.0
C139 C 0.39949 0.15432 0.32399 0.0
O140 O 0.43032 0.0521 0.24163 0.0
O141 O 0.40245 0.09748 0.20078 0.0
O142 O 0.38421 0.16899 0.24914 0.0
O143 O 0.45033 0.17275 0.2257 0.0
O144 O 0.50905 0.09605 0.19273 0.0
O145 O 0.54034 0.14569 0.20649 0.0
O146 O 0.53873 0.20105 0.25935 0.0
O147 O 0.53018 0.18136 0.31738 0.0
O148 O 0.57142 0.10102 0.26347 0.0
O149 O 0.50941 0.09134 0.29054 0.0
O150 O 0.43231 0.17369 0.31486 0.0
O151 O 0.40198 0.12295 0.30259 0.0
H152 H 0.41898 0.98189 0.20758 0.0
H153 H 0.37253 0.94503 0.17449 0.0
H154 H 0.2731 0.05394 0.14357 0.0
H155 H 0.32075 0.0902 0.17505 0.0
H156 H 0.45683 0.25845 0.28231 0.0
H157 H 0.41606 0.31761 0.32145 0.0
H158 H 0.54567 0.30336 0.38185 0.0
H159 H 0.58633 0.24494 0.34212 0.0
Nd160 Nd 0.59811 0.39667 0.63032 0.0
Nd161 Nd 0.50892 0.37625 0.62157 0.0
C162 C 0.68233 0.41255 0.62405 0.0
C163 C 0.71301 0.42487 0.65048 0.0
C164 C 0.73027 0.4021 0.68185 0.0
C165 C 0.76042 0.41371 0.70599 0.0
C166 C 0.77346 0.44842 0.69942 0.0
C167 C 0.75447 0.47208 0.66908 0.0
C168 C 0.72463 0.46021 0.64459 0.0
C169 C 0.51452 0.45696 0.65218 0.0
C170 C 0.56413 0.35362 0.70173 0.0
C171 C 0.42126 0.36784 0.62176 0.0
C172 C 0.39338 0.3709 0.58774 0.0
C173 C 0.38638 0.40477 0.56596 0.0
C174 C 0.3879 0.40171 0.526 0.0
C175 C 0.39616 0.36485 0.50747 0.0
C176 C 0.39476 0.33244 0.52984 0.0
C177 C 0.39196 0.33578 0.56982 0.0
C178 C 0.58716 0.31921 0.5893 0.0
C179 C 0.55178 0.41641 0.55045 0.0
O180 O 0.67833 0.37699 0.6271 0.0
O181 O 0.64125 0.4384 0.61893 0.0
O182 O 0.55252 0.44815 0.67203 0.0
O183 O 0.52231 0.43401 0.62366 0.0
O184 O 0.60175 0.36319 0.68578 0.0
O185 O 0.52258 0.36217 0.68532 0.0
O186 O 0.42913 0.4001 0.63451 0.0
O187 O 0.46059 0.33829 0.61918 0.0
O188 O 0.54736 0.3336 0.57253 0.0
O189 O 0.5857 0.33665 0.62161 0.0
O190 O 0.51035 0.41617 0.56937 0.0
O191 O 0.59229 0.39707 0.5649 0.0
H192 H 0.72132 0.37496 0.68738 0.0
H193 H 0.77509 0.39468 0.72893 0.0
H194 H 0.7636 0.49918 0.66379 0.0
H195 H 0.71105 0.4784 0.62078 0.0
H196 H 0.38591 0.43266 0.57908 0.0
H197 H 0.38625 0.42774 0.50977 0.0
H198 H 0.4002 0.30363 0.51673 0.0
H199 H 0.39643 0.30942 0.58617 0.0
Nd200 Nd 1.00914 0.36333 0.82709 0.0
Nd201 Nd 0.04999 0.41542 0.78898 0.0
C202 C 0.96528 0.30951 0.85276 0.0
C203 C 0.93951 0.28002 0.86815 0.0
C204 C 0.95371 0.24053 0.85467 0.0
C205 C 0.9301 0.2131 0.86942 0.0
C206 C 0.89156 0.22369 0.89871 0.0
C207 C 0.87807 0.26301 0.91279 0.0
C208 C 0.90126 0.29062 0.89763 0.0
C209 C 1.00301 0.42966 0.87819 0.0
C210 C 0.93938 0.43059 0.78034 0.0
C211 C 0.09771 0.46619 0.7692 0.0
C212 C 0.12562 0.49405 0.75922 0.0
C213 C 0.16734 0.49314 0.77813 0.0
C214 C 0.19294 0.5205 0.76994 0.0
C215 C 0.17771 0.54893 0.74224 0.0
C216 C 0.13521 0.5503 0.72404 0.0
C217 C 0.10926 0.52323 0.73262 0.0
C218 C 0.04907 0.35953 0.7296 0.0
C219 C 0.1055 0.36829 0.8614 0.0
O220 O 1.00834 0.3001 0.83416 0.0
O221 O 0.94526 0.34734 0.85589 0.0
O222 O 1.00911 0.39361 0.88793 0.0
O223 O 0.99651 0.43059 0.84219 0.0
O224 O 0.94905 0.39361 0.78929 0.0
O225 O 0.97166 0.44979 0.78314 0.0
O226 O 0.05065 0.47463 0.76843 0.0
O227 O 0.11932 0.43025 0.77828 0.0
O228 O 0.03922 0.3971 0.72758 0.0
O229 O 0.05778 0.35075 0.76565 0.0
O230 O 0.09796 0.39923 0.84005 0.0
O231 O 0.08131 0.34281 0.85539 0.0
H232 H 0.98309 0.23074 0.83238 0.0
H233 H 0.9423 0.18325 0.85783 0.0
H234 H 0.84865 0.27277 0.93505 0.0
H235 H 0.88926 0.32045 0.90929 0.0
H236 H 0.17989 0.47149 0.79954 0.0
H237 H 0.22494 0.5192 0.78504 0.0
H238 H 0.12277 0.57163 0.70234 0.0
H239 H 0.0768 0.52476 0.71805 0.0
Nd240 Nd 0.91511 0.60864 0.08117 0.0
Nd241 Nd 1.00128 0.62857 0.05664 0.0
C242 C 0.82871 0.59783 0.08992 0.0
C243 C 0.79055 0.61087 0.12103 0.0
C244 C 0.74277 0.62918 0.11246 0.0
C245 C 0.70737 0.64541 0.14217 0.0
C246 C 0.71968 0.64294 0.18046 0.0
C247 C 0.76735 0.62453 0.18899 0.0
C248 C 0.80267 0.60878 0.15947 0.0
C249 C 0.98876 0.57603 0.12706 0.0
C250 C 0.93531 0.67541 0.1368 0.0
C251 C 0.08858 0.63925 0.0461 0.0
C252 C 0.11989 0.63791 1.01042 0.0
C253 C 0.13246 0.60476 0.98521 0.0
C254 C 0.14707 0.60802 0.94657 0.0
C255 C 0.14837 0.6446 0.93243 0.0
C256 C 0.14195 0.67625 0.95893 0.0
C257 C 0.12832 0.67275 0.99766 0.0
C258 C 0.9218 0.68025 1.02664 0.0
C259 C 0.97674 0.56053 1.00069 0.0
O260 O 0.83757 0.62591 0.06929 0.0
O261 O 0.86806 0.5717 0.09902 0.0
O262 O 0.94367 0.5898 0.14002 0.0
O263 O 0.99313 0.57701 0.09046 0.0
O264 O 0.90131 0.65978 0.12637 0.0
O265 O 0.97872 0.66484 0.1168 0.0
O266 O 0.08145 0.6062 0.05689 0.0
O267 O 0.04847 0.66796 0.04883 0.0
O268 O 0.96247 0.66346 1.00657 0.0
O269 O 0.92351 0.6664 0.05988 0.0
O270 O 1.00792 0.58129 1.00566 0.0
O271 O 0.93818 0.56693 1.02562 0.0
H272 H 0.7332 0.63162 0.08287 0.0
H273 H 0.67057 0.6598 0.13538 0.0
H274 H 0.77739 0.62303 0.21848 0.0
H275 H 0.83961 0.59574 0.16675 0.0
H276 H 0.12689 0.57724 0.99431 0.0
H277 H 0.15255 0.58293 0.92705 0.0
H278 H 0.14184 0.7051 0.94937 0.0
H279 H 0.1193 0.69858 1.01666 0.0
Nd280 Nd 0.55795 0.72387 0.39809 0.0
Nd281 Nd 0.49965 0.77683 0.35608 0.0
C282 C 0.59541 0.66884 0.44729 0.0
C283 C 0.58658 0.63132 0.45841 0.0
C284 C 0.55328 0.61651 0.43991 0.0
C285 C 0.54543 0.58072 0.45064 0.0
C286 C 0.57064 0.55916 0.48019 0.0
C287 C 0.60369 0.57442 0.4987 0.0
C288 C 0.61153 0.61007 0.48793 0.0
C289 C 0.59442 0.79022 0.3959 0.0
C290 C 0.45401 0.76911 0.43812 0.0
C291 C 0.46108 0.82574 0.30125 0.0
C292 C 0.446 0.82203 0.26108 0.0
C293 C 0.47176 0.83253 0.22898 0.0
C294 C 0.45734 0.83021 0.19133 0.0
C295 C 0.41641 0.8175 0.18444 0.0
C296 C 0.3909 0.80669 0.21659 0.0
C297 C 0.40532 0.80899 0.25421 0.0
C298 C 0.4656 0.71014 0.35652 0.0
C299 C 0.59128 0.71255 0.31222 0.0
O300 O 0.61448 0.67001 0.41235 0.0
O301 O 0.56046 0.7005 0.4571 0.0
O302 O 0.61868 0.7539 0.38939 0.0
O303 O 0.54908 0.79207 0.40088 0.0
O304 O 0.4865 0.73527 0.4327 0.0
O305 O 0.45567 0.79757 0.41468 0.0
O306 O 0.50733 0.81466 0.30636 0.0
O307 O 0.4357 0.81614 0.33 0.0
O308 O 0.43921 0.74603 0.36031 0.0
O309 O 0.51018 0.70948 0.3529 0.0
O310 O 0.56657 0.74973 0.31344 0.0
O311 O 0.58734 0.69166 0.34201 0.0
H312 H 0.53356 0.63254 0.41703 0.0
H313 H 0.52031 0.56964 0.43537 0.0
H314 H 0.62336 0.55883 0.52181 0.0
H315 H 0.63716 0.62106 0.5027 0.0
H316 H 0.50323 0.84267 0.23298 0.0
H317 H 0.47874 0.83799 0.16753 0.0
H318 H 0.35909 0.79696 0.21276 0.0
H319 H 0.38427 0.80069 0.27795 0.0
Nd320 Nd 0.21624 0.41201 0.20245 0.0
Nd321 Nd 0.25431 0.45805 0.24932 0.0
C322 C 0.19832 0.37939 0.1379 0.0
C323 C 0.1826 0.38407 0.09787 0.0
C324 C 0.20847 0.39851 0.06853 0.0
C325 C 0.19742 0.39707 1.02993 0.0
C326 C 0.16017 0.38123 1.01961 0.0
C327 C 0.13345 0.36793 0.04922 0.0
C328 C 0.14453 0.36934 0.08775 0.0
C329 C 0.19866 0.38318 0.27667 0.0
C330 C 0.13862 0.49211 0.22359 0.0
C331 C 0.29238 0.49909 0.29759 0.0
C332 C 0.31516 0.53227 0.30276 0.0
C333 C 0.30294 0.55677 0.33624 0.0
C334 C 0.32853 0.58421 0.34433 0.0
C335 C 0.36788 0.58807 0.31947 0.0
C336 C 0.37961 0.56391 0.28559 0.0
C337 C 0.35385 0.53656 0.27743 0.0
C338 C 0.26333 0.48424 0.17392 0.0
C339 C 0.31507 0.36488 0.22899 0.0
O340 O 0.24069 0.38381 0.14451 0.0
O341 O 0.16589 0.39132 0.16705 0.0
O342 O 0.18978 0.37039 0.24381 0.0
O343 O 0.21899 0.41082 0.27091 0.0
O344 O 0.14441 0.45705 0.20925 0.0
O345 O 0.17402 0.49987 0.24257 0.0
O346 O 0.2454 0.50564 0.29565 0.0
O347 O 0.31714 0.46913 0.27565 0.0
O348 O 0.29928 0.47185 0.19536 0.0
O349 O 0.22808 0.47364 0.19007 0.0
O350 O 0.30022 0.39141 0.25773 0.0
O351 O 0.2947 0.37385 0.19695 0.0
H352 H 0.23827 0.40981 0.07516 0.0
H353 H 0.21927 0.40712 1.008 0.0
H354 H 0.1042 0.35597 1.04252 0.0
H355 H 0.12418 0.35771 0.1096 0.0
H356 H 0.27419 0.55401 0.35686 0.0
H357 H 0.31807 0.60191 0.37076 0.0
H358 H 0.40864 0.56626 0.26507 0.0
H359 H 0.36493 0.51821 0.25145 0.0
Nd360 Nd 0.6758 0.09305 0.94545 0.0
Nd361 Nd 0.73998 0.04024 0.97818 0.0
C362 C 0.62175 0.15659 0.91358 0.0
C363 C 0.62064 0.18444 0.88205 0.0
C364 C 0.62398 0.17233 0.84309 0.0
C365 C 0.61675 0.19998 0.81415 0.0
C366 C 0.60585 0.24028 0.82354 0.0
C367 C 0.60467 0.25217 0.86231 0.0
C368 C 0.61173 0.22456 0.89126 0.0
C369 C 0.64495 0.09086 1.02469 0.0
C370 C 0.77414 0.11583 0.95065 0.0
C371 C 0.78696 0.97912 1.01855 0.0
C372 C 0.80287 0.93501 1.01524 0.0
C373 C 0.77049 0.91277 1.02493 0.0
C374 C 0.78652 0.87149 1.02426 0.0
C375 C 0.83557 0.85096 1.01425 0.0
C376 C 0.86764 0.87321 1.00363 0.0
C377 C 0.85162 0.9145 1.00429 0.0
C378 C 0.77585 0.03404 0.90191 0.0
C379 C 0.64233 1.01863 0.94611 0.0
O380 O 0.62148 0.1209 0.90467 0.0
O381 O 0.64899 0.15797 0.94167 0.0
O382 O 0.62048 0.08824 0.99569 0.0
O383 O 0.68724 0.09193 1.01187 0.0
O384 O 0.74093 0.11503 0.92733 0.0
O385 O 0.77668 0.09285 0.98094 0.0
O386 O 0.74075 0.99698 1.02437 0.0
O387 O 0.80858 0.99824 0.99521 0.0
O388 O 0.80041 0.03346 0.93146 0.0
O389 O 0.73072 0.03897 0.91254 0.0
O390 O 0.67682 1.00989 0.97059 0.0
O391 O 0.63955 0.04902 0.92494 0.0
H392 H 0.63098 0.14164 0.83497 0.0
H393 H 0.61889 0.18988 0.78441 0.0
H394 H 0.5964 0.28299 0.87039 0.0
H395 H 0.60871 0.23472 0.92105 0.0
H396 H 0.73268 0.92724 1.03349 0.0
H397 H 0.7603 0.85563 1.03172 0.0
H398 H 0.90564 0.85872 0.99586 0.0
H399 H 0.87777 0.93044 0.99685 0.0
Nd400 Nd 0.80868 0.93174 0.42196 0.0
Nd401 Nd 0.73118 0.98671 0.46683 0.0
C402 C 0.8649 0.88318 0.36569 0.0
C403 C 0.87196 0.85465 0.3312 0.0
C404 C 0.8337 0.84943 0.31051 0.0
C405 C 0.84249 0.82139 0.27922 0.0
C406 C 0.88988 0.79694 0.26751 0.0
C407 C 0.92781 0.80267 0.28846 0.0
C408 C 0.91903 0.8307 0.31941 0.0
C409 C 0.84067 0.92821 0.50055 0.0
C410 C 0.7089 0.90284 0.43948 0.0
C411 C 0.66696 0.03365 0.51742 0.0
C412 C 0.66051 0.07429 0.53199 0.0
C413 C 0.6959 0.08448 0.55248 0.0
C414 C 0.69063 0.12376 0.56299 0.0
C415 C 0.65019 0.15352 0.55281 0.0
C416 C 0.61468 0.14319 0.5328 0.0
C417 C 0.61965 0.10407 0.52271 0.0
C418 C 0.7161 1.00327 0.39057 0.0
C419 C 0.82938 1.01613 0.44313 0.0
O420 O 0.84706 0.92119 0.36218 0.0
O421 O 0.85303 0.87209 0.39978 0.0
O422 O 0.86258 0.90642 0.47073 0.0
O423 O 0.80097 0.94948 0.48852 0.0
O424 O 0.75344 0.89498 0.42306 0.0
O425 O 0.69211 0.93581 0.46106 0.0
O426 O 0.70425 1.00607 0.52754 0.0
O427 O 0.65978 0.0302 0.4812 0.0
O428 O 0.72183 1.02775 0.41651 0.0
O429 O 0.73027 0.96818 0.40364 0.0
O430 O 0.79028 1.02077 0.46739 0.0
O431 O 0.84068 0.98609 0.41763 0.0
H432 H 0.79687 0.86702 0.31848 0.0
H433 H 0.81185 0.81948 0.26388 0.0
H434 H 0.96475 0.78487 0.28142 0.0
H435 H 0.94957 0.83339 0.33455 0.0
H436 H 0.72806 0.06229 0.55973 0.0
H437 H 0.71865 0.13096 0.57824 0.0
H438 H 0.58291 0.16551 0.5249 0.0
H439 H 0.59189 0.09714 0.50688 0.0
Nd440 Nd 0.34266 0.7045 0.64438 0.0
Nd441 Nd 0.29591 0.67359 0.59104 0.0
C442 C 0.40167 0.72075 0.69221 0.0
C443 C 0.41558 0.70803 0.73024 0.0
C444 C 0.40341 0.67565 0.74602 0.0
C445 C 0.40474 0.6699 0.78551 0.0
C446 C 0.41728 0.69699 0.80943 0.0
C447 C 0.4342 0.72696 0.79258 0.0
C448 C 0.43348 0.73231 0.75315 0.0
C449 C 0.35066 0.73471 0.57204 0.0
C450 C 0.23585 0.75289 0.64231 0.0
C451 C 0.25257 0.66023 0.52989 0.0
C452 C 0.2433 0.62543 0.51301 0.0
C453 C 0.2599 0.6137 0.47457 0.0
C454 C 0.25853 0.57723 0.46015 0.0
C455 C 0.23998 0.55253 0.48401 0.0
C456 C 0.22213 0.56502 0.52206 0.0
C457 C 0.22367 0.6011 0.5364 0.0
C458 C 0.28283 0.63939 0.65895 0.0
C459 C 0.38965 0.61286 0.62364 0.0
O460 O 0.41618 0.6942 0.66439 0.0
O461 O 0.35641 0.74145 0.69114 0.0
O462 O 0.33826 0.75598 0.60331 0.0
O463 O 0.35731 0.69919 0.57946 0.0
O464 O 0.26854 0.74092 0.66711 0.0
O465 O 0.24248 0.7355 0.60773 0.0
O466 O 0.29818 0.65906 0.52896 0.0
O467 O 0.2291 0.67383 0.56297 0.0
O468 O 0.28941 0.62187 0.62534 0.0
O469 O 0.28104 0.67552 0.65667 0.0
O470 O 0.36395 0.61948 0.59306 0.0
O471 O 0.38217 0.64024 0.65059 0.0
H472 H 0.38922 0.65675 0.72846 0.0
H473 H 0.39156 0.64663 0.79775 0.0
H474 H 0.4429 0.74903 0.81007 0.0
H475 H 0.44268 0.75751 0.74119 0.0
H476 H 0.27591 0.63195 0.45633 0.0
H477 H 0.27331 0.5678 0.431 0.0
H478 H 0.20943 0.54592 0.5416 0.0
H479 H 0.21167 0.60897 0.56639 0.0
C480 C 0.3012 0.4459 0.46416 0.0
C481 C 0.26533 0.42996 0.48038 0.0
C482 C 0.29137 0.48654 0.46071 0.0
C483 C 0.245 0.51159 0.47233 0.0
H484 H 0.33764 0.42747 0.45689 0.0
H485 H 0.32118 0.49846 0.45243 0.0
S486 S 0.13566 0.48181 0.50448 0.0
N487 N 0.18016 0.44052 0.50071 0.0
N488 N 0.16052 0.51661 0.49115 0.0
C489 C 0.2073 0.49499 0.48255 0.0
C490 C 0.21779 0.45412 0.48758 0.0
C491 C 0.78938 0.99432 0.83766 0.0
C492 C 0.80356 1.01902 0.86359 0.0
C493 C 0.82151 0.9742 0.8062 0.0
C494 C 0.86914 0.97793 0.79921 0.0
H495 H 0.7544 0.98882 0.84283 0.0
H496 H 0.80955 0.95433 0.78812 0.0
S497 S 0.92198 0.04247 0.85593 0.0
N498 N 0.86766 0.04806 0.87791 0.0
N499 N 0.92637 1.01144 0.81932 0.0
C500 C 0.88235 1.00432 0.82363 0.0
C501 C 0.85011 1.02444 0.85553 0.0
C502 C 0.27743 0.56735 0.10319 0.0
C503 C 0.24229 0.60223 0.11801 0.0
C504 C 0.28412 0.52997 0.12086 0.0
C505 C 0.25559 0.52453 0.15422 0.0
H506 H 0.30088 0.56896 0.07791 0.0
H507 H 0.31205 0.50498 0.10805 0.0
S508 S 0.15788 0.60545 0.20494 0.0
N509 N 0.17762 0.62719 0.16827 0.0
N510 N 0.19132 0.55932 0.20146 0.0
C511 C 0.2205 0.55923 0.16915 0.0
C512 C 0.21359 0.59703 0.15122 0.0
C513 C 0.60699 1.01586 0.32226 0.0
C514 C 0.59229 0.05684 0.31522 0.0
C515 C 0.64682 0.9979 0.34548 0.0
C516 C 0.67538 1.01957 0.36253 0.0
H517 H 0.58825 0.9972 0.30912 0.0
H518 H 0.6552 0.96673 0.35004 0.0
S519 S 0.65404 0.12735 0.35256 0.0
N520 N 0.61163 0.11756 0.32819 0.0
N521 N 0.68466 0.08504 0.36903 0.0
C522 C 0.66097 0.06027 0.35518 0.0
C523 C 0.62053 0.07832 0.33249 0.0
C524 C 0.61926 0.26346 0.5422 0.0
C525 C 0.61502 0.27784 0.58047 0.0
C526 C 0.63367 0.22312 0.53332 0.0
C527 C 0.64427 0.19554 0.56239 0.0
H528 H 0.60875 0.28354 0.5191 0.0
H529 H 0.63439 0.21339 0.5036 0.0
S530 S 0.64232 0.21792 0.66696 0.0
N531 N 0.62592 0.26136 0.6475 0.0
N532 N 0.6527 0.18539 0.63077 0.0
C533 C 0.64337 0.20946 0.60052 0.0
C534 C 0.62882 0.2507 0.60959 0.0
C535 C 0.18648 0.61506 0.72397 0.0
C536 C 0.20803 0.57485 0.7296 0.0
C537 C 0.21286 0.63814 0.70499 0.0
C538 C 0.26149 0.6216 0.69105 0.0
H539 H 0.14832 0.62822 0.73244 0.0
H540 H 0.19396 0.66797 0.6983 0.0
S541 S 0.33609 0.51929 0.70155 0.0
N542 N 0.28215 0.52067 0.7221 0.0
N543 N 0.3313 0.56414 0.68709 0.0
C544 C 0.28432 0.58248 0.69919 0.0
C545 C 0.25772 0.55902 0.71832 0.0
C546 C 0.88626 0.78404 0.98663 0.0
C547 C 0.85377 0.80677 1.01612 0.0
C548 C 0.90602 0.74299 0.98907 0.0
C549 C 0.89438 0.72256 1.02117 0.0
H550 H 0.89703 0.79819 0.96153 0.0
H551 H 0.93183 0.72737 0.96608 0.0
S552 S 0.81099 0.76792 0.10642 0.0
N553 N 0.81125 0.80517 0.07868 0.0
N554 N 0.84668 0.72872 0.08272 0.0
C555 C 0.86076 0.74482 0.0503 0.0
C556 C 0.84099 0.78656 0.04795 0.0
C557 C 0.39241 0.68487 0.35088 0.0
C558 C 0.4435 0.67733 0.34697 0.0
C559 C 0.369 0.65613 0.34231 0.0
C560 C 0.39502 0.61799 0.32854 0.0
H561 H 0.36977 0.71358 0.36093 0.0
H562 H 0.32973 0.66426 0.34599 0.0
S563 S 0.52982 0.58202 0.31319 0.0
N564 N 0.51952 0.62798 0.3286 0.0
N565 N 0.47599 0.57424 0.31196 0.0
C566 C 0.44632 0.60988 0.32425 0.0
C567 C 0.47031 0.63925 0.33357 0.0
C568 C 0.41277 0.32162 0.40613 0.0
C569 C 0.44864 0.3368 0.38848 0.0
C570 C 0.39495 0.33192 0.44409 0.0
C571 C 0.41069 0.35895 0.46564 0.0
H572 H 0.40162 0.2987 0.39187 0.0
H573 H 0.37096 0.31647 0.45713 0.0
S574 S 0.50278 0.40866 0.43146 0.0
N575 N 0.49815 0.38129 0.39408 0.0
N576 N 0.46403 0.40144 0.46588 0.0
C577 C 0.4447 0.37616 0.44751 0.0
C578 C 0.46356 0.36506 0.40877 0.0
C579 C 0.07572 0.33319 0.61568 0.0
C580 C 0.08742 0.29173 0.61053 0.0
C581 C 0.06386 0.35331 0.65333 0.0
C582 C 0.0634 0.3343 0.68974 0.0
H583 H 0.07563 0.35063 0.5904 0.0
H584 H 0.05506 0.38498 0.6537 0.0
S585 S 0.09113 0.22578 0.69403 0.0
N586 N 0.09663 0.23281 0.64728 0.0
N587 N 0.07637 0.26966 0.71557 0.0
C588 C 0.07522 0.29291 0.68484 0.0
C589 C 0.08653 0.27241 0.64652 0.0
C590 C 0.08786 0.65742 0.83979 0.0
C591 C 0.10056 0.69001 0.82492 0.0
C592 C 0.10849 0.63918 0.87231 0.0
C593 C 0.14297 0.65267 0.8909 0.0
H594 H 0.05849 0.64833 0.82847 0.0
H595 H 0.09325 0.61729 0.88515 0.0
S596 S 0.19855 0.72944 0.85634 0.0
N597 N 0.15632 0.73013 0.82648 0.0
N598 N 0.19717 0.69416 0.88643 0.0
C599 C 0.1613 0.68115 0.87265 0.0
C600 C 0.13962 0.70026 0.83986 0.0
C601 C 0.38574 0.78255 0.13197 0.0
C602 C 0.40014 0.81525 0.1442 0.0
C603 C 0.36761 0.78055 0.09558 0.0
C604 C 0.36201 0.81147 0.06963 0.0
H605 H 0.38816 0.75821 0.15085 0.0
H606 H 0.3562 0.75497 0.08845 0.0
S607 S 0.39555 0.90331 0.08641 0.0
N608 N 0.40913 0.87879 0.12603 0.0
N609 N 0.37367 0.87548 0.05866 0.0
C610 C 0.37708 0.844 0.08108 0.0
C611 C 0.3965 0.84574 0.11789 0.0
C612 C 0.15562 0.31582 0.35222 0.0
C613 C 0.1616 0.3304 0.38913 0.0
C614 C 0.16766 0.33274 0.31697 0.0
C615 C 0.1863 0.36581 0.31573 0.0
H616 H 0.1426 0.29018 0.35034 0.0
H617 H 0.16249 0.31932 0.29013 0.0
S618 S 0.20325 0.41929 0.40318 0.0
N619 N 0.18448 0.38279 0.42111 0.0
N620 N 0.20613 0.41399 0.3559 0.0
C621 C 0.19113 0.38136 0.3523 0.0
C622 C 0.17924 0.36397 0.38831 0.0
C623 C 0.92018 0.89504 0.59039 0.0
C624 C 0.91134 0.92823 0.61622 0.0
C625 C 0.89781 0.89562 0.55436 0.0
C626 C 0.86275 0.92896 0.54116 0.0
H627 H 0.9458 0.86791 0.59775 0.0
H628 H 0.9081 0.86894 0.53658 0.0
S629 S 0.82392 1.02443 0.59688 0.0
N630 N 0.86365 0.9964 0.62409 0.0
N631 N 0.82081 0.99686 0.5591 0.0
C632 C 0.85284 0.96231 0.56694 0.0
C633 C 0.87695 0.9621 0.60318 0.0
C634 C 0.35132 0.70344 0.8609 0.0
C635 C 0.40025 0.70142 0.85071 0.0
C636 C 0.32692 0.7243 0.89411 0.0
C637 C 0.35066 0.744 0.91757 0.0
H638 H 0.33003 0.69302 0.84104 0.0
H639 H 0.28821 0.72854 0.89903 0.0
S640 S 0.48184 0.73702 0.91007 0.0
N641 N 0.4743 0.712 0.87189 0.0
N642 N 0.42782 0.75269 0.93378 0.0
C643 C 0.40103 0.73728 0.91087 0.0
C644 C 0.42609 0.71537 0.87754 0.0
C645 C 0.5529 0.09168 0.11204 0.0
C646 C 0.56826 0.10993 0.14309 0.0
C647 C 0.57826 0.08564 0.07487 0.0
C648 C 0.62148 0.09652 0.06619 0.0
H649 H 0.52008 0.0826 0.11618 0.0
H650 H 0.5635 0.07215 0.05245 0.0
S651 S 0.67961 0.14383 0.13707 0.0
N652 N 0.63113 0.13825 0.16208 0.0
N653 N 0.67899 0.1258 0.09317 0.0
C654 C 0.6381 0.11396 0.09711 0.0
C655 C 0.61159 0.12094 0.13499 0.0
C656 C 0.60642 0.32746 0.76076 0.0
C657 C 0.57097 0.32723 0.73497 0.0
C658 C 0.61707 0.29968 0.78969 0.0
C659 C 0.59357 0.27 0.79327 0.0
H660 H 0.62645 0.34903 0.75834 0.0
H661 H 0.64473 0.30086 0.80881 0.0
S662 S 0.49858 0.25587 0.73268 0.0
N663 N 0.51258 0.29446 0.715 0.0
N664 N 0.5329 0.24237 0.76893 0.0
C665 C 0.558 0.26952 0.76779 0.0
C666 C 0.54659 0.2981 0.73881 0.0
C667 C 0.14309 0.34253 0.96337 0.0
C668 C 0.14987 0.37756 0.97817 0.0
C669 C 0.13178 0.3388 0.92498 0.0
C670 C 0.12698 0.36985 0.89938 0.0
H671 H 0.1461 0.31776 0.98178 0.0
H672 H 0.12539 0.31166 0.91566 0.0
S673 S 0.13989 0.4685 0.92418 0.0
N674 N 0.1497 0.44429 0.96432 0.0
N675 N 0.13022 0.43731 0.89238 0.0
C676 C 0.13481 0.40486 0.91371 0.0
C677 C 0.14574 0.40871 0.95291 0.0
C678 C 0.94377 0.75764 0.2093 0.0
C679 C 0.9004 0.76587 0.23404 0.0
C680 C 0.95494 0.72869 0.17868 0.0
C681 C 0.9235 0.7059 0.17052 0.0
H682 H 0.9695 0.77415 0.2132 0.0
H683 H 0.98859 0.72444 0.16096 0.0
S684 S 0.80614 0.71323 0.22704 0.0
N685 N 0.82681 0.74631 0.24829 0.0
N686 N 0.84686 0.69352 0.19126 0.0
C687 C 0.88009 0.71361 0.19507 0.0
C688 C 0.86884 0.74294 0.22637 0.0
C689 C 0.3774 0.78495 0.5324 0.0
C690 C 0.367 0.74849 0.53483 0.0
C691 C 0.4009 0.79495 0.49866 0.0
C692 C 0.41298 0.76928 0.46617 0.0
H693 H 0.37064 0.80453 0.55753 0.0
H694 H 0.41312 0.82106 0.49917 0.0
S695 S 0.38774 0.673 0.45608 0.0
N696 N 0.36823 0.68829 0.50078 0.0
N697 N 0.40701 0.70856 0.437 0.0
C698 C 0.39773 0.73498 0.46717 0.0
C699 C 0.37636 0.72405 0.50165 0.0
C700 C 0.30881 0.18759 0.41683 0.0
C701 C 0.26201 0.19925 0.40243 0.0
C702 C 0.35293 0.17454 0.39204 0.0
C703 C 0.35309 0.17171 0.35127 0.0
H704 H 0.31152 0.18866 0.44766 0.0
H705 H 0.3872 0.16578 0.40511 0.0
S706 S 0.24123 0.19929 0.29807 0.0
N707 N 0.22026 0.20804 0.34364 0.0
N708 N 0.30074 0.18228 0.29847 0.0
C709 C 0.30652 0.18324 0.3368 0.0
C710 C 0.26205 0.19728 0.36175 0.0
C711 C 0.17309 0.1528 0.60381 0.0
C712 C 0.17645 0.14784 0.56349 0.0
C713 C 0.15398 0.1281 0.6277 0.0
C714 C 0.13771 0.09777 0.61191 0.0
H715 H 0.18091 0.17796 0.61674 0.0
H716 H 0.14852 0.13468 0.65843 0.0
S717 S 0.14834 0.0681 0.5084 0.0
N718 N 0.16906 0.10687 0.50927 0.0
N719 N 0.13387 0.06052 0.55383 0.0
C720 C 0.14583 0.09018 0.57192 0.0
C721 C 0.16523 0.1151 0.54783 0.0
C722 C 0.10288 0.85976 0.85339 0.0
C723 C 0.0918 0.89479 0.83145 0.0
C724 C 0.13617 0.85237 0.88411 0.0
C725 C 0.16177 0.8793 0.89548 0.0
H726 H 0.08577 0.83728 0.84665 0.0
H727 H 0.14283 0.82461 0.89822 0.0
S728 S 0.1481 0.9754 0.84803 0.0
N729 N 0.11159 0.95627 0.82507 0.0
N730 N 0.17174 0.94319 0.8801 0.0
C731 C 0.15067 0.91423 0.87363 0.0
C732 C 0.1169 0.92172 0.84291 0.0
C733 C 0.27177 0.98882 0.0978 0.0
C734 C 0.29023 0.97381 0.13277 0.0
C735 C 0.24946 0.96811 0.07363 0.0
C736 C 0.24437 0.93066 0.08236 0.0
H737 H 0.27672 1.01617 0.08766 0.0
H738 H 0.2389 0.98065 0.04626 0.0
S739 S 0.28072 0.8792 0.17238 0.0
N740 N 0.29648 0.92016 0.17677 0.0
N741 N 0.25679 0.88073 0.13047 0.0
C742 C 0.26006 0.91602 0.11818 0.0
C743 C 0.28254 0.93745 0.14328 0.0
C744 C 0.85049 0.44696 0.78194 0.0
C745 C 0.89443 0.44823 0.76274 0.0
C746 C 0.80914 0.4517 0.7618 0.0
C747 C 0.81119 0.4567 0.72176 0.0
H748 H 0.84901 0.43954 0.81203 0.0
H749 H 0.77654 0.44818 0.777 0.0
S750 S 0.9176 0.46521 0.65952 0.0
N751 N 0.93712 0.45867 0.70308 0.0
N752 N 0.85992 0.46586 0.66441 0.0
C753 C 0.85408 0.46127 0.703 0.0
C754 C 0.89582 0.45729 0.72378 0.0
C755 C 0.97614 0.46285 0.94621 0.0
C756 C 0.99526 0.46476 0.90773 0.0
C757 C 0.97012 0.49352 0.97489 0.0
C758 C 0.98465 0.52805 0.96814 0.0
H759 H 0.96506 0.43722 0.9544 0.0
H760 H 0.95446 0.48963 1.00326 0.0
S761 S 0.03917 0.54829 0.87304 0.0
N762 N 0.02908 0.50546 0.86509 0.0
N763 N 0.02055 0.56109 0.91863 0.0
C764 C 1.00484 0.53011 0.92996 0.0
C765 C 1.00936 0.49935 0.90021 0.0
C766 C 0.66146 0.70038 0.21487 0.0
C767 C 0.68333 0.65979 0.21205 0.0
C768 C 0.63093 0.71734 0.24729 0.0
C769 C 0.62161 0.69407 0.27762 0.0
H770 H 0.66928 0.71916 0.19253 0.0
H771 H 0.61547 0.74889 0.24891 0.0
S772 S 0.66771 0.58555 0.28148 0.0
N773 N 0.69202 0.5964 0.24023 0.0
N774 N 0.63451 0.62784 0.30133 0.0
C775 C 0.64222 0.65313 0.27426 0.0
C776 C 0.67321 0.63607 0.24135 0.0
C777 C 0.59999 0.45373 0.51242 0.0
C778 C 0.55417 0.44873 0.52393 0.0
C779 C 0.60464 0.48882 0.49697 0.0
C780 C 0.56377 0.52055 0.49174 0.0
H781 H 0.63301 0.43121 0.51743 0.0
H782 H 0.64083 0.49154 0.49015 0.0
S783 S 0.43521 0.52071 0.51088 0.0
N784 N 0.46673 0.47716 0.52437 0.0
N785 N 0.47557 0.54317 0.49534 0.0
C786 C 0.51759 0.51499 0.50012 0.0
C787 C 0.51279 0.47911 0.51611 0.0
C788 C 0.33386 0.30004 0.26434 0.0
C789 C 0.34459 0.32242 0.23343 0.0
C790 C 0.35408 0.25855 0.26462 0.0
C791 C 0.38707 0.23718 0.2345 0.0
H792 H 0.30777 0.31439 0.28772 0.0
H793 H 0.34368 0.24307 0.28881 0.0
S794 S 0.42878 0.28141 0.14739 0.0
N795 N 0.39103 0.31923 0.17185 0.0
N796 N 0.43039 0.24263 0.1735 0.0
C797 C 0.39942 0.25941 0.20423 0.0
C798 C 0.37784 0.30139 0.20338 0.0
C799 C 0.85438 0.1882 0.95235 0.0
C800 C 0.86407 0.19454 0.91269 0.0
C801 C 0.82788 0.16147 0.96505 0.0
C802 C 0.80856 0.14036 0.93875 0.0
H803 H 0.86743 0.20408 0.97388 0.0
H804 H 0.82104 0.15846 0.99568 0.0
S805 S 0.82218 0.14681 0.83178 0.0
N806 N 0.85149 0.17684 0.84764 0.0
N807 N 0.80149 0.1287 0.87061 0.0
C808 C 0.81814 0.14669 0.8991 0.0
C809 C 0.84574 0.17302 0.88636 0.0
C810 C 0.05745 0.5429 0.21728 0.0
C811 C 0.10425 0.52229 0.20168 0.0
C812 C 0.02066 0.56135 0.19307 0.0
C813 C 0.029 0.55921 0.15236 0.0
H814 H 0.04846 0.54299 0.24804 0.0
H815 H 0.98487 0.57618 0.20634 0.0
S816 S 0.14495 0.50839 0.09701 0.0
N817 N 0.15628 0.5013 0.14251 0.0
N818 N 0.0879 0.5352 0.09808 0.0
C819 C 0.07587 0.53974 0.13668 0.0
C820 C 0.11312 0.52147 0.16103 0.0
C821 C 0.62704 0.88294 0.43899 0.0
C822 C 0.67819 0.87447 0.43031 0.0
C823 C 0.59944 0.85695 0.42774 0.0
C824 C 0.62116 0.82078 0.40699 0.0
H825 H 0.60786 0.91014 0.45436 0.0
H826 H 0.56078 0.86527 0.43567 0.0
S827 S 0.75326 0.7841 0.37586 0.0
N828 N 0.7482 0.826 0.39885 0.0
N829 N 0.69792 0.77921 0.37793 0.0
C830 C 0.67201 0.8124 0.39807 0.0
C831 C 0.69981 0.8384 0.40952 0.0
C832 C 0.44423 0.50209 0.62287 0.0
C833 C 0.47992 0.49663 0.64974 0.0
C834 C 0.41606 0.53957 0.61385 0.0
C835 C 0.42199 0.57336 0.63156 0.0
H836 H 0.4386 0.47707 0.6079 0.0
H837 H 0.38896 0.542 0.59329 0.0
S838 S 0.50768 0.57533 0.70631 0.0
N839 N 0.51766 0.52825 0.6955 0.0
N840 N 0.46475 0.59877 0.67909 0.0
C841 C 0.45633 0.56829 0.65963 0.0
C842 C 0.48514 0.52999 0.66868 0.0
C843 C 0.19866 0.81366 0.68212 0.0
C844 C 0.19375 0.78712 0.65348 0.0
C845 C 0.16016 0.84614 0.69452 0.0
C846 C 0.11473 0.85325 0.67934 0.0
H847 H 0.23282 0.80959 0.695 0.0
H848 H 0.16603 0.86568 0.71661 0.0
S849 S 0.08204 0.79237 0.60439 0.0
N850 N 0.13961 0.76993 0.61029 0.0
N851 N 0.0664 0.83098 0.63445 0.0
C852 C 0.10878 0.82686 0.65098 0.0
C853 C 0.14855 0.79386 0.63775 0.0
C854 C 0.56644 0.94444 0.95625 0.0
C855 C 0.51939 0.967 0.94803 0.0
C856 C 0.60618 0.96081 0.95611 0.0
C857 C 0.60079 1.00038 0.94727 0.0
H858 H 0.57291 0.91363 0.96206 0.0
H859 H 0.6415 0.94216 0.96218 0.0
S860 S 0.48397 0.0738 0.93012 0.0
N861 N 0.46937 0.03249 0.93577 0.0
N862 N 0.54294 0.06253 0.9343 0.0
C863 C 0.55355 1.02345 0.94055 0.0
C864 C 0.51333 1.00704 0.94122 0.0
C865 C 0.90141 0.04295 0.41896 0.0
C866 C 0.86134 0.04458 0.44582 0.0
C867 C 0.9316 0.06861 0.42175 0.0
C868 C 0.92399 0.09796 0.45155 0.0
H869 H 0.90974 1.02152 0.39527 0.0
H870 H 0.9611 0.06557 0.39978 0.0
S871 S 0.8266 0.11346 0.53148 0.0
N872 N 0.81772 0.07794 0.50463 0.0
N873 N 0.87362 0.12472 0.50997 0.0
C874 C 0.8844 0.09951 0.47886 0.0
C875 C 0.85368 0.07345 0.47602 0.0
loop_
_geom_bond_atom_site_label_1
_geom_bond_atom_site_label_2
_geom_bond_distance
_geom_bond_site_symmetry_2
_ccdc_geom_bond_type
Nd0 C2 2.836 1_455 S
Nd0 O20 2.500 1_455 S
Nd0 O21 2.492 . S
Nd0 O22 2.487 . S
Nd0 O23 2.682 . S
Nd0 O24 2.410 . S
Nd0 O29 2.414 . S
Nd0 O31 2.424 . S
Nd1 C11 2.836 . S
Nd1 O23 2.414 . S
Nd1 O25 2.424 . S
Nd1 O26 2.500 . S
Nd1 O27 2.492 . S
Nd1 O28 2.487 . S
Nd1 O29 2.682 . S
Nd1 O30 2.410 . S
C2 Nd0 2.836 1_655 S
C2 C3 1.498 . S
C2 O20 1.258 . S
C2 O21 1.239 1_655 S
C3 C2 1.498 . S
C3 C4 1.366 . S
C3 C8 1.407 . S
C4 C3 1.366 . S
C4 C5 1.392 . S
C4 H32 0.930 . S
C5 C4 1.392 . S
C5 C6 1.398 . S
C5 H33 0.929 . S
C6 C5 1.398 . S
C6 C7 1.352 . S
C7 C6 1.352 . S
C7 C8 1.384 . S
C7 H34 0.930 . S
C8 C3 1.407 . S
C8 C7 1.384 . S
C8 H35 0.929 . S
C9 O22 1.241 . S
C9 O23 1.273 . S
C10 O24 1.251 . S
C10 O25 1.268 . S
C11 Nd1 2.836 . S
C11 C12 1.498 . S
C11 O26 1.258 . S
C11 O27 1.239 . S
C12 C11 1.498 . S
C12 C13 1.366 . S
C12 C17 1.407 . S
C13 C12 1.366 . S
C13 C14 1.392 . S
C13 H36 0.930 . S
C14 C13 1.392 . S
C14 C15 1.398 . S
C14 H37 0.929 . S
C15 C14 1.398 . S
C15 C16 1.352 . S
C16 C15 1.352 . S
C16 C17 1.384 . S
C16 H38 0.930 . S
C17 C12 1.407 . S
C17 C16 1.384 . S
C17 H39 0.929 . S
C18 O28 1.241 . S
C18 O29 1.273 . S
C19 O30 1.251 . S
C19 O31 1.268 . S
O20 Nd0 2.500 1_655 S
O20 C2 1.258 . S
O21 Nd0 2.492 . S
O21 C2 1.239 1_455 S
O22 Nd0 2.487 . S
O22 C9 1.241 . S
O23 Nd0 2.682 . S
O23 Nd1 2.414 . S
O23 C9 1.273 . S
O24 Nd0 2.410 . S
O24 C10 1.251 . S
O25 Nd1 2.424 . S
O25 C10 1.268 . S
O26 Nd1 2.500 . S
O26 C11 1.258 . S
O27 Nd1 2.492 . S
O27 C11 1.239 . S
O28 Nd1 2.487 . S
O28 C18 1.241 . S
O29 Nd0 2.414 . S
O29 Nd1 2.682 . S
O29 C18 1.273 . S
O30 Nd1 2.410 . S
O30 C19 1.251 . S
O31 Nd0 2.424 . S
O31 C19 1.268 . S
H32 C4 0.930 . S
H33 C5 0.929 . S
H34 C7 0.930 . S
H35 C8 0.929 . S
H36 C13 0.930 . S
H37 C14 0.929 . S
H38 C16 0.930 . S
H39 C17 0.929 . S
Nd40 C42 2.836 . S
Nd40 O60 2.500 . S
Nd40 O61 2.492 . S
Nd40 O62 2.487 . S
Nd40 O63 2.682 . S
Nd40 O64 2.410 . S
Nd40 O69 2.414 . S
Nd40 O71 2.424 . S
Nd41 C51 2.836 . S
Nd41 O63 2.414 . S
Nd41 O65 2.424 . S
Nd41 O66 2.500 . S
Nd41 O67 2.492 . S
Nd41 O68 2.487 1_455 S
Nd41 O69 2.682 . S
Nd41 O70 2.410 . S
C42 Nd40 2.836 . S
C42 C43 1.498 . S
C42 O60 1.258 . S
C42 O61 1.239 . S
C43 C42 1.498 . S
C43 C44 1.366 . S
C43 C48 1.407 . S
C44 C43 1.366 . S
C44 C45 1.392 1_565 S
C44 H72 0.930 . S
C45 C44 1.392 1_545 S
C45 C46 1.398 . S
C45 H73 0.929 . S
C46 C45 1.398 . S
C46 C47 1.352 1_545 S
C47 C46 1.352 1_565 S
C47 C48 1.384 . S
C47 H74 0.930 . S
C48 C43 1.407 . S
C48 C47 1.384 . S
C48 H75 0.929 . S
C49 O62 1.241 . S
C49 O63 1.273 . S
C50 O64 1.251 . S
C50 O65 1.268 . S
C51 Nd41 2.836 . S
C51 C52 1.498 . S
C51 O66 1.258 . S
C51 O67 1.239 . S
C52 C51 1.498 . S
C52 C53 1.366 . S
C52 C57 1.407 . S
C53 C52 1.366 . S
C53 C54 1.392 . S
C53 H76 0.930 . S
C54 C53 1.392 . S
C54 C55 1.398 . S
C54 H77 0.929 . S
C55 C54 1.398 . S
C55 C56 1.352 . S
C56 C55 1.352 . S
C56 C57 1.384 . S
C56 H78 0.930 1_455 S
C57 C52 1.407 . S
C57 C56 1.384 . S
C57 H79 0.929 1_455 S
C58 O68 1.256 . S
C58 O69 1.254 1_655 S
C59 O70 1.251 . S
C59 O71 1.268 . S
O60 Nd40 2.500 . S
O60 C42 1.258 . S
O61 Nd40 2.492 . S
O61 C42 1.239 . S
O62 Nd40 2.487 . S
O62 C49 1.241 . S
O63 Nd40 2.682 . S
O63 Nd41 2.414 . S
O63 C49 1.273 . S
O64 Nd40 2.410 . S
O64 C50 1.251 . S
O65 Nd41 2.424 . S
O65 C50 1.268 . S
O66 Nd41 2.500 . S
O66 C51 1.258 . S
O67 Nd41 2.492 . S
O67 C51 1.239 . S
O68 Nd41 2.487 1_655 S
O68 C58 1.256 . S
O69 Nd40 2.414 . S
O69 Nd41 2.682 . S
O69 C58 1.254 1_455 S
O70 Nd41 2.410 . S
O70 C59 1.251 . S
O71 Nd40 2.424 . S
O71 C59 1.268 . S
H72 C44 0.930 . S
H73 C45 0.929 . S
H74 C47 0.930 . S
H75 C48 0.929 . S
H76 C53 0.930 . S
H77 C54 0.929 . S
H78 C56 0.930 1_655 S
H79 C57 0.929 1_655 S
Nd80 C82 2.836 . S
Nd80 O100 2.500 . S
Nd80 O101 2.492 . S
Nd80 O102 2.487 . S
Nd80 O103 2.682 . S
Nd80 O104 2.410 . S
Nd80 O109 2.414 . S
Nd80 O111 2.424 . S
Nd81 C91 2.836 . S
Nd81 O103 2.414 . S
Nd81 O105 2.424 . S
Nd81 O106 2.500 . S
Nd81 O107 2.492 . S
Nd81 O108 2.487 1_556 S
Nd81 O109 2.682 . S
Nd81 O110 2.410 . S
C82 Nd80 2.836 . S
C82 C83 1.498 . S
C82 O100 1.258 . S
C82 O101 1.239 . S
C83 C82 1.498 . S
C83 C84 1.366 . S
C83 C88 1.407 . S
C84 C83 1.366 . S
C84 C85 1.392 . S
C84 H112 0.930 . S
C85 C84 1.392 . S
C85 C86 1.398 . S
C85 H113 0.929 . S
C86 C85 1.398 . S
C86 C87 1.352 . S
C87 C86 1.352 . S
C87 C88 1.384 . S
C87 H114 0.930 . S
C88 C83 1.407 . S
C88 C87 1.384 . S
C88 H115 0.929 . S
C89 O102 1.241 . S
C89 O103 1.273 . S
C90 O104 1.251 . S
C90 O105 1.268 . S
C91 Nd81 2.836 . S
C91 C92 1.498 . S
C91 O106 1.258 . S
C91 O107 1.239 . S
C92 C91 1.498 . S
C92 C93 1.366 . S
C92 C97 1.412 . S
C93 C92 1.366 . S
C93 C94 1.392 . S
C93 H116 0.930 . S
C94 C93 1.392 . S
C94 C95 1.398 . S
C94 H117 0.929 . S
C95 C94 1.398 . S
C95 C96 1.354 . S
C96 C95 1.354 . S
C96 C97 1.385 . S
C96 H118 0.928 1_556 S
C97 C92 1.412 . S
C97 C96 1.385 . S
C97 H119 0.924 1_556 S
C98 O108 1.241 1_556 S
C98 O109 1.273 . S
C99 O110 1.251 . S
C99 O111 1.268 . S
O100 Nd80 2.500 . S
O100 C82 1.258 . S
O101 Nd80 2.492 . S
O101 C82 1.239 . S
O102 Nd80 2.487 . S
O102 C89 1.241 . S
O103 Nd80 2.682 . S
O103 Nd81 2.414 . S
O103 C89 1.273 . S
O104 Nd80 2.410 . S
O104 C90 1.251 . S
O105 Nd81 2.424 . S
O105 C90 1.268 . S
O106 Nd81 2.500 . S
O106 C91 1.258 . S
O107 Nd81 2.492 . S
O107 C91 1.239 . S
O108 Nd81 2.487 1_554 S
O108 C98 1.241 1_554 S
O109 Nd80 2.414 . S
O109 Nd81 2.682 . S
O109 C98 1.273 . S
O110 Nd81 2.410 . S
O110 C99 1.251 . S
O111 Nd80 2.424 . S
O111 C99 1.268 . S
H112 C84 0.930 . S
H113 C85 0.929 . S
H114 C87 0.930 . S
H115 C88 0.929 . S
H116 C93 0.930 . S
H117 C94 0.929 . S
H118 C96 0.928 1_554 S
H119 C97 0.924 1_554 S
Nd120 C122 2.836 . S
Nd120 O140 2.500 . S
Nd120 O141 2.492 . S
Nd120 O142 2.487 . S
Nd120 O143 2.682 . S
Nd120 O144 2.410 . S
Nd120 O149 2.414 . S
Nd120 O151 2.424 . S
Nd121 C131 2.836 . S
Nd121 O143 2.414 . S
Nd121 O145 2.424 . S
Nd121 O146 2.500 . S
Nd121 O147 2.492 . S
Nd121 O148 2.487 . S
Nd121 O149 2.682 . S
Nd121 O150 2.410 . S
C122 Nd120 2.836 . S
C122 C123 1.498 . S
C122 O140 1.258 . S
C122 O141 1.239 . S
C123 C122 1.498 . S
C123 C124 1.366 . S
C123 C128 1.407 . S
C124 C123 1.366 . S
C124 C125 1.392 . S
C124 H152 0.930 . S
C125 C124 1.392 . S
C125 C126 1.398 1_554 S
C125 H153 0.929 1_545 S
C126 C125 1.398 1_556 S
C126 C127 1.352 1_556 S
C127 C126 1.352 1_554 S
C127 C128 1.384 . S
C127 H154 0.930 1_554 S
C128 C123 1.407 . S
C128 C127 1.384 . S
C128 H155 0.929 . S
C129 O142 1.241 . S
C129 O143 1.273 . S
C130 O144 1.251 . S
C130 O145 1.268 . S
C131 Nd121 2.836 . S
C131 C132 1.498 . S
C131 O146 1.258 . S
C131 O147 1.239 . S
C132 C131 1.498 . S
C132 C133 1.366 . S
C132 C137 1.407 . S
C133 C132 1.366 . S
C133 C134 1.392 . S
C133 H156 0.930 . S
C134 C133 1.392 . S
C134 C135 1.398 . S
C134 H157 0.929 . S
C135 C134 1.398 . S
C135 C136 1.352 . S
C136 C135 1.352 . S
C136 C137 1.384 . S
C136 H158 0.930 . S
C137 C132 1.407 . S
C137 C136 1.384 . S
C137 H159 0.929 . S
C138 O148 1.241 . S
C138 O149 1.273 . S
C139 O150 1.251 . S
C139 O151 1.268 . S
O140 Nd120 2.500 . S
O140 C122 1.258 . S
O141 Nd120 2.492 . S
O141 C122 1.239 . S
O142 Nd120 2.487 . S
O142 C129 1.241 . S
O143 Nd120 2.682 . S
O143 Nd121 2.414 . S
O143 C129 1.273 . S
O144 Nd120 2.410 . S
O144 C130 1.251 . S
O145 Nd121 2.424 . S
O145 C130 1.268 . S
O146 Nd121 2.500 . S
O146 C131 1.258 . S
O147 Nd121 2.492 . S
O147 C131 1.239 . S
O148 Nd121 2.487 . S
O148 C138 1.241 . S
O149 Nd120 2.414 . S
O149 Nd121 2.682 . S
O149 C138 1.273 . S
O150 Nd121 2.410 . S
O150 C139 1.251 . S
O151 Nd120 2.424 . S
O151 C139 1.268 . S
H152 C124 0.930 . S
H153 C125 0.929 1_565 S
H154 C127 0.930 1_556 S
H155 C128 0.929 . S
H156 C133 0.930 . S
H157 C134 0.929 . S
H158 C136 0.930 . S
H159 C137 0.929 . S
Nd160 C162 2.836 . S
Nd160 O180 2.500 . S
Nd160 O181 2.492 . S
Nd160 O182 2.487 . S
Nd160 O183 2.682 . S
Nd160 O184 2.410 . S
Nd160 O189 2.414 . S
Nd160 O191 2.424 . S
Nd161 C171 2.836 . S
Nd161 O183 2.414 . S
Nd161 O185 2.424 . S
Nd161 O186 2.500 . S
Nd161 O187 2.492 . S
Nd161 O188 2.487 . S
Nd161 O189 2.682 . S
Nd161 O190 2.410 . S
C162 Nd160 2.836 . S
C162 C163 1.498 . S
C162 O180 1.258 . S
C162 O181 1.239 . S
C163 C162 1.498 . S
C163 C164 1.366 . S
C163 C168 1.407 . S
C164 C163 1.366 . S
C164 C165 1.392 . S
C164 H192 0.930 . S
C165 C164 1.392 . S
C165 C166 1.398 . S
C165 H193 0.929 . S
C166 C165 1.398 . S
C166 C167 1.352 . S
C167 C166 1.352 . S
C167 C168 1.384 . S
C167 H194 0.930 . S
C168 C163 1.407 . S
C168 C167 1.384 . S
C168 H195 0.929 . S
C169 O182 1.241 . S
C169 O183 1.273 . S
C170 O184 1.251 . S
C170 O185 1.268 . S
C171 Nd161 2.836 . S
C171 C172 1.498 . S
C171 O186 1.258 . S
C171 O187 1.239 . S
C172 C171 1.498 . S
C172 C173 1.366 . S
C172 C177 1.407 . S
C173 C172 1.366 . S
C173 C174 1.392 . S
C173 H196 0.930 . S
C174 C173 1.392 . S
C174 C175 1.398 . S
C174 H197 0.929 . S
C175 C174 1.398 . S
C175 C176 1.352 . S
C176 C175 1.352 . S
C176 C177 1.384 . S
C176 H198 0.930 . S
C177 C172 1.407 . S
C177 C176 1.384 . S
C177 H199 0.929 . S
C178 O188 1.241 . S
C178 O189 1.273 . S
C179 O190 1.251 . S
C179 O191 1.268 . S
O180 Nd160 2.500 . S
O180 C162 1.258 . S
O181 Nd160 2.492 . S
O181 C162 1.239 . S
O182 Nd160 2.487 . S
O182 C169 1.241 . S
O183 Nd160 2.682 . S
O183 Nd161 2.414 . S
O183 C169 1.273 . S
O184 Nd160 2.410 . S
O184 C170 1.251 . S
O185 Nd161 2.424 . S
O185 C170 1.268 . S
O186 Nd161 2.500 . S
O186 C171 1.258 . S
O187 Nd161 2.492 . S
O187 C171 1.239 . S
O188 Nd161 2.487 . S
O188 C178 1.241 . S
O189 Nd160 2.414 . S
O189 Nd161 2.682 . S
O189 C178 1.273 . S
O190 Nd161 2.410 . S
O190 C179 1.251 . S
O191 Nd160 2.424 . S
O191 C179 1.268 . S
H192 C164 0.930 . S
H193 C165 0.929 . S
H194 C167 0.930 . S
H195 C168 0.929 . S
H196 C173 0.930 . S
H197 C174 0.929 . S
H198 C176 0.930 . S
H199 C177 0.929 . S
Nd200 C202 2.836 . S
Nd200 O220 2.500 . S
Nd200 O221 2.492 . S
Nd200 O222 2.487 . S
Nd200 O223 2.682 . S
Nd200 O224 2.410 . S
Nd200 O229 2.422 . S
Nd200 O231 2.424 1_655 S
Nd201 C211 2.836 1_655 S
Nd201 O223 2.414 . S
Nd201 O225 2.424 . S
Nd201 O226 2.500 1_655 S
Nd201 O227 2.492 1_655 S
Nd201 O228 2.487 1_655 S
Nd201 O229 2.676 . S
Nd201 O230 2.410 1_655 S
C202 Nd200 2.836 . S
C202 C203 1.498 . S
C202 O220 1.258 . S
C202 O221 1.239 . S
C203 C202 1.498 . S
C203 C204 1.366 . S
C203 C208 1.407 . S
C204 C203 1.366 . S
C204 C205 1.392 . S
C204 H232 0.930 . S
C205 C204 1.392 . S
C205 C206 1.398 . S
C205 H233 0.929 . S
C206 C205 1.398 . S
C206 C207 1.352 . S
C207 C206 1.352 . S
C207 C208 1.384 . S
C207 H234 0.930 . S
C208 C203 1.407 . S
C208 C207 1.384 . S
C208 H235 0.929 . S
C209 O222 1.241 . S
C209 O223 1.273 . S
C210 O224 1.251 . S
C210 O225 1.268 . S
C211 Nd201 2.836 1_455 S
C211 C212 1.498 . S
C211 O226 1.258 . S
C211 O227 1.239 . S
C212 C211 1.498 . S
C212 C213 1.366 . S
C212 C217 1.407 . S
C213 C212 1.366 . S
C213 C214 1.392 . S
C213 H236 0.930 . S
C214 C213 1.392 . S
C214 C215 1.398 . S
C214 H237 0.929 . S
C215 C214 1.398 . S
C215 C216 1.352 . S
C216 C215 1.352 . S
C216 C217 1.384 . S
C216 H238 0.930 . S
C217 C212 1.407 . S
C217 C216 1.384 . S
C217 H239 0.929 . S
C218 O228 1.241 . S
C218 O229 1.262 1_455 S
C219 O230 1.251 . S
C219 O231 1.268 . S
O220 Nd200 2.500 . S
O220 C202 1.258 . S
O221 Nd200 2.492 . S
O221 C202 1.239 . S
O222 Nd200 2.487 . S
O222 C209 1.241 . S
O223 Nd200 2.682 . S
O223 Nd201 2.414 . S
O223 C209 1.273 . S
O224 Nd200 2.410 . S
O224 C210 1.251 . S
O225 Nd201 2.424 . S
O225 C210 1.268 . S
O226 Nd201 2.500 1_455 S
O226 C211 1.258 . S
O227 Nd201 2.492 1_455 S
O227 C211 1.239 . S
O228 Nd201 2.487 1_455 S
O228 C218 1.241 . S
O229 Nd200 2.422 . S
O229 Nd201 2.676 . S
O229 C218 1.262 1_655 S
O230 Nd201 2.410 1_455 S
O230 C219 1.251 . S
O231 Nd200 2.424 1_455 S
O231 C219 1.268 . S
H232 C204 0.930 . S
H233 C205 0.929 . S
H234 C207 0.930 . S
H235 C208 0.929 . S
H236 C213 0.930 . S
H237 C214 0.929 . S
H238 C216 0.930 . S
H239 C217 0.929 . S
Nd240 C242 2.836 . S
Nd240 O260 2.500 . S
Nd240 O261 2.492 . S
Nd240 O262 2.487 . S
Nd240 O263 2.682 . S
Nd240 O264 2.410 . S
Nd240 O269 2.414 . S
Nd240 O271 2.424 . S
Nd241 C251 2.836 1_554 S
Nd241 O263 2.414 . S
Nd241 O265 2.424 . S
Nd241 O266 2.500 1_554 S
Nd241 O267 2.492 1_554 S
Nd241 O268 2.487 . S
Nd241 O269 2.682 . S
Nd241 O270 2.410 1_554 S
C242 Nd240 2.836 . S
C242 C243 1.498 . S
C242 O260 1.258 . S
C242 O261 1.239 . S
C243 C242 1.498 . S
C243 C244 1.366 . S
C243 C248 1.407 . S
C244 C243 1.366 . S
C244 C245 1.392 . S
C244 H272 0.930 . S
C245 C244 1.392 . S
C245 C246 1.398 . S
C245 H273 0.929 . S
C246 C245 1.398 . S
C246 C247 1.352 . S
C247 C246 1.352 . S
C247 C248 1.384 . S
C247 H274 0.930 . S
C248 C243 1.407 . S
C248 C247 1.384 . S
C248 H275 0.929 . S
C249 O262 1.241 . S
C249 O263 1.273 . S
C250 O264 1.251 . S
C250 O265 1.268 . S
C251 Nd241 2.836 1_556 S
C251 C252 1.498 1_655 S
C251 O266 1.258 . S
C251 O267 1.239 . S
C252 C251 1.498 1_455 S
C252 C253 1.366 . S
C252 C257 1.407 . S
C253 C252 1.366 . S
C253 C254 1.392 . S
C253 H276 0.930 . S
C254 C253 1.392 . S
C254 C255 1.398 . S
C254 H277 0.929 . S
C255 C254 1.398 . S
C255 C256 1.352 . S
C256 C255 1.352 . S
C256 C257 1.384 . S
C256 H278 0.930 . S
C257 C252 1.407 . S
C257 C256 1.384 . S
C257 H279 0.929 1_455 S
C258 O268 1.241 . S
C258 O269 1.273 . S
C259 O270 1.251 . S
C259 O271 1.268 1_556 S
O260 Nd240 2.500 . S
O260 C242 1.258 . S
O261 Nd240 2.492 . S
O261 C242 1.239 . S
O262 Nd240 2.487 . S
O262 C249 1.241 . S
O263 Nd240 2.682 . S
O263 Nd241 2.414 . S
O263 C249 1.273 . S
O264 Nd240 2.410 . S
O264 C250 1.251 . S
O265 Nd241 2.424 . S
O265 C250 1.268 . S
O266 Nd241 2.500 1_556 S
O266 C251 1.258 . S
O267 Nd241 2.492 1_556 S
O267 C251 1.239 . S
O268 Nd241 2.487 . S
O268 C258 1.241 . S
O269 Nd240 2.414 . S
O269 Nd241 2.682 . S
O269 C258 1.273 . S
O270 Nd241 2.410 1_556 S
O270 C259 1.251 . S
O271 Nd240 2.424 . S
O271 C259 1.268 1_554 S
H272 C244 0.930 . S
H273 C245 0.929 . S
H274 C247 0.930 . S
H275 C248 0.929 . S
H276 C253 0.930 . S
H277 C254 0.929 . S
H278 C256 0.930 . S
H279 C257 0.929 1_655 S
Nd280 C282 2.836 . S
Nd280 O300 2.500 . S
Nd280 O301 2.492 . S
Nd280 O302 2.487 . S
Nd280 O303 2.682 . S
Nd280 O304 2.410 . S
Nd280 O309 2.414 . S
Nd280 O311 2.424 . S
Nd281 C291 2.836 . S
Nd281 O303 2.414 . S
Nd281 O305 2.424 . S
Nd281 O306 2.500 . S
Nd281 O307 2.492 . S
Nd281 O308 2.487 . S
Nd281 O309 2.682 . S
Nd281 O310 2.410 . S
C282 Nd280 2.836 . S
C282 C283 1.498 . S
C282 O300 1.258 . S
C282 O301 1.239 . S
C283 C282 1.498 . S
C283 C284 1.366 . S
C283 C288 1.407 . S
C284 C283 1.366 . S
C284 C285 1.392 . S
C284 H312 0.930 . S
C285 C284 1.392 . S
C285 C286 1.398 . S
C285 H313 0.929 . S
C286 C285 1.398 . S
C286 C287 1.352 . S
C287 C286 1.352 . S
C287 C288 1.384 . S
C287 H314 0.930 . S
C288 C283 1.407 . S
C288 C287 1.384 . S
C288 H315 0.929 . S
C289 O302 1.241 . S
C289 O303 1.273 . S
C290 O304 1.251 . S
C290 O305 1.268 . S
C291 Nd281 2.836 . S
C291 C292 1.498 . S
C291 O306 1.258 . S
C291 O307 1.239 . S
C292 C291 1.498 . S
C292 C293 1.366 . S
C292 C297 1.407 . S
C293 C292 1.366 . S
C293 C294 1.392 . S
C293 H316 0.930 . S
C294 C293 1.392 . S
C294 C295 1.398 . S
C294 H317 0.929 . S
C295 C294 1.398 . S
C295 C296 1.352 . S
C296 C295 1.352 . S
C296 C297 1.384 . S
C296 H318 0.930 . S
C297 C292 1.407 . S
C297 C296 1.384 . S
C297 H319 0.929 . S
C298 O308 1.241 . S
C298 O309 1.273 . S
C299 O310 1.251 . S
C299 O311 1.268 . S
O300 Nd280 2.500 . S
O300 C282 1.258 . S
O301 Nd280 2.492 . S
O301 C282 1.239 . S
O302 Nd280 2.487 . S
O302 C289 1.241 . S
O303 Nd280 2.682 . S
O303 Nd281 2.414 . S
O303 C289 1.273 . S
O304 Nd280 2.410 . S
O304 C290 1.251 . S
O305 Nd281 2.424 . S
O305 C290 1.268 . S
O306 Nd281 2.500 . S
O306 C291 1.258 . S
O307 Nd281 2.492 . S
O307 C291 1.239 . S
O308 Nd281 2.487 . S
O308 C298 1.241 . S
O309 Nd280 2.414 . S
O309 Nd281 2.682 . S
O309 C298 1.273 . S
O310 Nd281 2.410 . S
O310 C299 1.251 . S
O311 Nd280 2.424 . S
O311 C299 1.268 . S
H312 C284 0.930 . S
H313 C285 0.929 . S
H314 C287 0.930 . S
H315 C288 0.929 . S
H316 C293 0.930 . S
H317 C294 0.929 . S
H318 C296 0.930 . S
H319 C297 0.929 . S
Nd320 C322 2.836 . S
Nd320 O340 2.500 . S
Nd320 O341 2.492 . S
Nd320 O342 2.487 . S
Nd320 O343 2.682 . S
Nd320 O344 2.410 . S
Nd320 O349 2.414 . S
Nd320 O351 2.424 . S
Nd321 C331 2.836 . S
Nd321 O343 2.414 . S
Nd321 O345 2.424 . S
Nd321 O346 2.500 . S
Nd321 O347 2.492 . S
Nd321 O348 2.487 . S
Nd321 O349 2.682 . S
Nd321 O350 2.410 . S
C322 Nd320 2.836 . S
C322 C323 1.498 . S
C322 O340 1.258 . S
C322 O341 1.239 . S
C323 C322 1.498 . S
C323 C324 1.366 1_554 S
C323 C328 1.407 . S
C324 C323 1.366 1_556 S
C324 C325 1.392 . S
C324 H352 0.930 . S
C325 C324 1.392 . S
C325 C326 1.398 . S
C325 H353 0.929 . S
C326 C325 1.398 . S
C326 C327 1.352 . S
C327 C326 1.352 . S
C327 C328 1.384 1_556 S
C327 H354 0.930 . S
C328 C323 1.407 . S
C328 C327 1.384 1_554 S
C328 H355 0.929 . S
C329 O342 1.241 . S
C329 O343 1.273 . S
C330 O344 1.251 . S
C330 O345 1.268 . S
C331 Nd321 2.836 . S
C331 C332 1.498 . S
C331 O346 1.258 . S
C331 O347 1.239 . S
C332 C331 1.498 . S
C332 C333 1.366 . S
C332 C337 1.407 . S
C333 C332 1.366 . S
C333 C334 1.392 . S
C333 H356 0.930 . S
C334 C333 1.392 . S
C334 C335 1.398 . S
C334 H357 0.929 . S
C335 C334 1.398 . S
C335 C336 1.352 . S
C336 C335 1.352 . S
C336 C337 1.384 . S
C336 H358 0.930 . S
C337 C332 1.407 . S
C337 C336 1.384 . S
C337 H359 0.929 . S
C338 O348 1.241 . S
C338 O349 1.273 . S
C339 O350 1.251 . S
C339 O351 1.268 . S
O340 Nd320 2.500 . S
O340 C322 1.258 . S
O341 Nd320 2.492 . S
O341 C322 1.239 . S
O342 Nd320 2.487 . S
O342 C329 1.241 . S
O343 Nd320 2.682 . S
O343 Nd321 2.414 . S
O343 C329 1.273 . S
O344 Nd320 2.410 . S
O344 C330 1.251 . S
O345 Nd321 2.424 . S
O345 C330 1.268 . S
O346 Nd321 2.500 . S
O346 C331 1.258 . S
O347 Nd321 2.492 . S
O347 C331 1.239 . S
O348 Nd321 2.487 . S
O348 C338 1.241 . S
O349 Nd320 2.414 . S
O349 Nd321 2.682 . S
O349 C338 1.273 . S
O350 Nd321 2.410 . S
O350 C339 1.251 . S
O351 Nd320 2.424 . S
O351 C339 1.268 . S
H352 C324 0.930 . S
H353 C325 0.929 . S
H354 C327 0.930 . S
H355 C328 0.929 . S
H356 C333 0.930 . S
H357 C334 0.929 . S
H358 C336 0.930 . S
H359 C337 0.929 . S
Nd360 C362 2.836 . S
Nd360 O380 2.500 . S
Nd360 O381 2.492 . S
Nd360 O382 2.487 . S
Nd360 O383 2.682 . S
Nd360 O384 2.410 . S
Nd360 O389 2.414 . S
Nd360 O391 2.424 . S
Nd361 C371 2.836 1_545 S
Nd361 O383 2.414 . S
Nd361 O385 2.424 . S
Nd361 O386 2.500 1_545 S
Nd361 O387 2.492 1_545 S
Nd361 O388 2.487 1_545 S
Nd361 O389 2.682 . S
Nd361 O390 2.410 1_545 S
C362 Nd360 2.836 . S
C362 C363 1.498 . S
C362 O380 1.258 . S
C362 O381 1.239 . S
C363 C362 1.498 . S
C363 C364 1.366 . S
C363 C368 1.407 . S
C364 C363 1.366 . S
C364 C365 1.392 . S
C364 H392 0.930 . S
C365 C364 1.392 . S
C365 C366 1.398 . S
C365 H393 0.929 . S
C366 C365 1.398 . S
C366 C367 1.352 . S
C367 C366 1.352 . S
C367 C368 1.384 . S
C367 H394 0.930 . S
C368 C363 1.407 . S
C368 C367 1.384 . S
C368 H395 0.929 . S
C369 O382 1.241 . S
C369 O383 1.273 . S
C370 O384 1.251 . S
C370 O385 1.268 . S
C371 Nd361 2.836 1_565 S
C371 C372 1.498 . S
C371 O386 1.258 . S
C371 O387 1.239 . S
C372 C371 1.498 . S
C372 C373 1.366 1_556 S
C372 C377 1.407 . S
C373 C372 1.366 1_554 S
C373 C374 1.392 . S
C373 H396 0.930 . S
C374 C373 1.392 . S
C374 C375 1.398 . S
C374 H397 0.929 . S
C375 C374 1.398 . S
C375 C376 1.352 . S
C376 C375 1.352 . S
C376 C377 1.384 1_554 S
C376 H398 0.929 1_554 S
C377 C372 1.407 . S
C377 C376 1.384 1_556 S
C377 H399 0.929 . S
C378 O388 1.241 1_545 S
C378 O389 1.273 . S
C379 O390 1.251 . S
C379 O391 1.268 1_565 S
O380 Nd360 2.500 . S
O380 C362 1.258 . S
O381 Nd360 2.492 . S
O381 C362 1.239 . S
O382 Nd360 2.487 . S
O382 C369 1.241 . S
O383 Nd360 2.682 . S
O383 Nd361 2.414 . S
O383 C369 1.273 . S
O384 Nd360 2.410 . S
O384 C370 1.251 . S
O385 Nd361 2.424 . S
O385 C370 1.268 . S
O386 Nd361 2.500 1_565 S
O386 C371 1.258 . S
O387 Nd361 2.492 1_565 S
O387 C371 1.239 . S
O388 Nd361 2.487 1_565 S
O388 C378 1.241 1_565 S
O389 Nd360 2.414 . S
O389 Nd361 2.682 . S
O389 C378 1.273 . S
O390 Nd361 2.410 1_565 S
O390 C379 1.251 . S
O391 Nd360 2.424 . S
O391 C379 1.268 1_545 S
H392 C364 0.930 . S
H393 C365 0.929 . S
H394 C367 0.930 . S
H395 C368 0.929 . S
H396 C373 0.930 . S
H397 C374 0.929 . S
H398 C376 0.929 1_556 S
H399 C377 0.929 . S
Nd400 C402 2.836 . S
Nd400 O420 2.500 . S
Nd400 O421 2.492 . S
Nd400 O422 2.487 . S
Nd400 O423 2.682 . S
Nd400 O424 2.410 . S
Nd400 O429 2.414 . S
Nd400 O431 2.424 . S
Nd401 C411 2.836 1_565 S
Nd401 O423 2.414 . S
Nd401 O425 2.424 . S
Nd401 O426 2.500 . S
Nd401 O427 2.492 1_565 S
Nd401 O428 2.487 . S
Nd401 O429 2.682 . S
Nd401 O430 2.410 . S
C402 Nd400 2.836 . S
C402 C403 1.498 . S
C402 O420 1.258 . S
C402 O421 1.239 . S
C403 C402 1.498 . S
C403 C404 1.366 . S
C403 C408 1.407 . S
C404 C403 1.366 . S
C404 C405 1.392 . S
C404 H432 0.930 . S
C405 C404 1.392 . S
C405 C406 1.398 . S
C405 H433 0.929 . S
C406 C405 1.398 . S
C406 C407 1.352 . S
C407 C406 1.352 . S
C407 C408 1.384 . S
C407 H434 0.930 . S
C408 C403 1.407 . S
C408 C407 1.384 . S
C408 H435 0.929 . S
C409 O422 1.241 . S
C409 O423 1.273 . S
C410 O424 1.251 . S
C410 O425 1.268 . S
C411 Nd401 2.836 1_545 S
C411 C412 1.498 . S
C411 O426 1.258 1_545 S
C411 O427 1.239 . S
C412 C411 1.498 . S
C412 C413 1.366 . S
C412 C417 1.407 . S
C413 C412 1.366 . S
C413 C414 1.392 . S
C413 H436 0.930 . S
C414 C413 1.392 . S
C414 C415 1.398 . S
C414 H437 0.929 . S
C415 C414 1.398 . S
C415 C416 1.352 . S
C416 C415 1.352 . S
C416 C417 1.384 . S
C416 H438 0.930 . S
C417 C412 1.407 . S
C417 C416 1.384 . S
C417 H439 0.929 . S
C418 O428 1.241 . S
C418 O429 1.273 . S
C419 O430 1.251 . S
C419 O431 1.268 . S
O420 Nd400 2.500 . S
O420 C402 1.258 . S
O421 Nd400 2.492 . S
O421 C402 1.239 . S
O422 Nd400 2.487 . S
O422 C409 1.241 . S
O423 Nd400 2.682 . S
O423 Nd401 2.414 . S
O423 C409 1.273 . S
O424 Nd400 2.410 . S
O424 C410 1.251 . S
O425 Nd401 2.424 . S
O425 C410 1.268 . S
O426 Nd401 2.500 . S
O426 C411 1.258 1_565 S
O427 Nd401 2.492 1_545 S
O427 C411 1.239 . S
O428 Nd401 2.487 . S
O428 C418 1.241 . S
O429 Nd400 2.414 . S
O429 Nd401 2.682 . S
O429 C418 1.273 . S
O430 Nd401 2.410 . S
O430 C419 1.251 . S
O431 Nd400 2.424 . S
O431 C419 1.268 . S
H432 C404 0.930 . S
H433 C405 0.929 . S
H434 C407 0.930 . S
H435 C408 0.929 . S
H436 C413 0.930 . S
H437 C414 0.929 . S
H438 C416 0.930 . S
H439 C417 0.929 . S
Nd440 C442 2.836 . S
Nd440 O460 2.500 . S
Nd440 O461 2.492 . S
Nd440 O462 2.487 . S
Nd440 O463 2.682 . S
Nd440 O464 2.410 . S
Nd440 O469 2.414 . S
Nd440 O471 2.424 . S
Nd441 C451 2.836 . S
Nd441 O463 2.414 . S
Nd441 O465 2.424 . S
Nd441 O466 2.500 . S
Nd441 O467 2.492 . S
Nd441 O468 2.487 . S
Nd441 O469 2.682 . S
Nd441 O470 2.410 . S
C442 Nd440 2.836 . S
C442 C443 1.498 . S
C442 O460 1.258 . S
C442 O461 1.239 . S
C443 C442 1.498 . S
C443 C444 1.366 . S
C443 C448 1.407 . S
C444 C443 1.366 . S
C444 C445 1.392 . S
C444 H472 0.930 . S
C445 C444 1.392 . S
C445 C446 1.398 . S
C445 H473 0.929 . S
C446 C445 1.398 . S
C446 C447 1.352 . S
C447 C446 1.352 . S
C447 C448 1.384 . S
C447 H474 0.930 . S
C448 C443 1.407 . S
C448 C447 1.384 . S
C448 H475 0.929 . S
C449 O462 1.241 . S
C449 O463 1.273 . S
C450 O464 1.251 . S
C450 O465 1.268 . S
C451 Nd441 2.836 . S
C451 C452 1.498 . S
C451 O466 1.258 . S
C451 O467 1.239 . S
C452 C451 1.498 . S
C452 C453 1.366 . S
C452 C457 1.407 . S
C453 C452 1.366 . S
C453 C454 1.392 . S
C453 H476 0.930 . S
C454 C453 1.392 . S
C454 C455 1.398 . S
C454 H477 0.929 . S
C455 C454 1.398 . S
C455 C456 1.352 . S
C456 C455 1.352 . S
C456 C457 1.384 . S
C456 H478 0.930 . S
C457 C452 1.407 . S
C457 C456 1.384 . S
C457 H479 0.929 . S
C458 O468 1.241 . S
C458 O469 1.273 . S
C459 O470 1.251 . S
C459 O471 1.268 . S
O460 Nd440 2.500 . S
O460 C442 1.258 . S
O461 Nd440 2.492 . S
O461 C442 1.239 . S
O462 Nd440 2.487 . S
O462 C449 1.241 . S
O463 Nd440 2.682 . S
O463 Nd441 2.414 . S
O463 C449 1.273 . S
O464 Nd440 2.410 . S
O464 C450 1.251 . S
O465 Nd441 2.424 . S
O465 C450 1.268 . S
O466 Nd441 2.500 . S
O466 C451 1.258 . S
O467 Nd441 2.492 . S
O467 C451 1.239 . S
O468 Nd441 2.487 . S
O468 C458 1.241 . S
O469 Nd440 2.414 . S
O469 Nd441 2.682 . S
O469 C458 1.273 . S
O470 Nd441 2.410 . S
O470 C459 1.251 . S
O471 Nd440 2.424 . S
O471 C459 1.268 . S
H472 C444 0.930 . S
H473 C445 0.929 . S
H474 C447 0.930 . S
H475 C448 0.929 . S
H476 C453 0.930 . S
H477 C454 0.929 . S
H478 C456 0.930 . S
H479 C457 0.929 . S
C480 C481 1.369 . S
C480 C482 1.419 . S
C480 H484 0.930 . S
C481 C480 1.369 . S
C481 C490 1.429 . S
C482 C480 1.419 . S
C482 C483 1.363 . S
C482 H485 0.929 . S
C483 C482 1.363 . S
C483 C489 1.428 . S
H484 C480 0.930 . S
H485 C482 0.929 . S
S486 N487 1.613 . S
S486 N488 1.610 . S
N487 S486 1.613 . S
N487 C490 1.350 . S
N488 S486 1.610 . S
N488 C489 1.351 . S
C489 C483 1.428 . S
C489 N488 1.351 . S
C489 C490 1.434 . S
C490 C481 1.429 . S
C490 N487 1.350 . S
C490 C489 1.434 . S
C491 C492 1.369 . S
C491 C493 1.419 . S
C491 H495 0.930 . S
C492 C491 1.369 . S
C492 C501 1.429 . S
C493 C491 1.419 . S
C493 C494 1.363 . S
C493 H496 0.929 . S
C494 C493 1.363 . S
C494 C500 1.428 . S
H495 C491 0.930 . S
H496 C493 0.929 . S
S497 N498 1.613 . S
S497 N499 1.610 . S
N498 S497 1.613 . S
N498 C501 1.350 . S
N499 S497 1.610 . S
N499 C500 1.351 . S
C500 C494 1.428 . S
C500 N499 1.351 . S
C500 C501 1.434 . S
C501 C492 1.429 . S
C501 N498 1.350 . S
C501 C500 1.434 . S
C502 C503 1.357 1_556 S
C502 C504 1.419 1_556 S
C502 H506 0.930 . S
C503 C502 1.357 1_554 S
C503 C512 1.458 . S
C504 C502 1.419 1_554 S
C504 C505 1.363 . S
C504 H507 0.929 1_554 S
C505 C504 1.363 . S
C505 C511 1.428 . S
H506 C502 0.930 . S
H507 C504 0.929 1_556 S
S508 N509 1.613 . S
S508 N510 1.610 . S
N509 S508 1.613 . S
N509 C512 1.350 . S
N510 S508 1.610 . S
N510 C511 1.351 . S
C511 C505 1.428 . S
C511 N510 1.351 . S
C511 C512 1.434 . S
C512 C503 1.458 . S
C512 N509 1.350 . S
C512 C511 1.434 . S
C513 C514 1.369 . S
C513 C515 1.419 1_545 S
C513 H517 0.930 . S
C514 C513 1.369 . S
C514 C523 1.429 . S
C515 C513 1.419 1_565 S
C515 C516 1.363 1_565 S
C515 H518 0.929 . S
C516 C515 1.363 1_545 S
C516 C522 1.428 . S
H517 C513 0.930 . S
H518 C515 0.929 . S
S519 N520 1.613 . S
S519 N521 1.610 . S
N520 S519 1.613 . S
N520 C523 1.350 . S
N521 S519 1.610 . S
N521 C522 1.351 . S
C522 C516 1.428 . S
C522 N521 1.351 . S
C522 C523 1.434 . S
C523 C514 1.429 . S
C523 N520 1.350 . S
C523 C522 1.434 . S
C524 C525 1.369 . S
C524 C526 1.419 . S
C524 H528 0.930 . S
C525 C524 1.369 . S
C525 C534 1.429 . S
C526 C524 1.419 . S
C526 C527 1.363 . S
C526 H529 0.929 . S
C527 C526 1.363 . S
C527 C533 1.428 . S
H528 C524 0.930 . S
H529 C526 0.929 . S
S530 N531 1.613 . S
S530 N532 1.610 . S
N531 S530 1.613 . S
N531 C534 1.350 . S
N532 S530 1.610 . S
N532 C533 1.351 . S
C533 C527 1.428 . S
C533 N532 1.351 . S
C533 C534 1.434 . S
C534 C525 1.429 . S
C534 N531 1.350 . S
C534 C533 1.434 . S
C535 C536 1.369 . S
C535 C537 1.419 . S
C535 H539 0.930 . S
C536 C535 1.369 . S
C536 C545 1.429 . S
C537 C535 1.419 . S
C537 C538 1.363 . S
C537 H540 0.929 . S
C538 C537 1.363 . S
C538 C544 1.428 . S
H539 C535 0.930 . S
H540 C537 0.929 . S
S541 N542 1.613 . S
S541 N543 1.610 . S
N542 S541 1.613 . S
N542 C545 1.350 . S
N543 S541 1.610 . S
N543 C544 1.351 . S
C544 C538 1.428 . S
C544 N543 1.351 . S
C544 C545 1.434 . S
C545 C536 1.429 . S
C545 N542 1.350 . S
C545 C544 1.434 . S
C546 C547 1.369 . S
C546 C548 1.420 . S
C546 H550 0.930 1_554 S
C547 C546 1.369 . S
C547 C556 1.429 . S
C548 C546 1.420 . S
C548 C549 1.368 . S
C548 H551 0.923 1_554 S
C549 C548 1.368 . S
C549 C555 1.428 . S
H550 C546 0.930 1_556 S
H551 C548 0.923 1_556 S
S552 N553 1.613 . S
S552 N554 1.610 . S
N553 S552 1.613 . S
N553 C556 1.350 . S
N554 S552 1.610 . S
N554 C555 1.351 . S
C555 C549 1.428 . S
C555 N554 1.351 . S
C555 C556 1.434 . S
C556 C547 1.429 . S
C556 N553 1.350 . S
C556 C555 1.434 . S
C557 C558 1.369 . S
C557 C559 1.419 . S
C557 H561 0.930 . S
C558 C557 1.369 . S
C558 C567 1.429 . S
C559 C557 1.419 . S
C559 C560 1.363 . S
C559 H562 0.929 . S
C560 C559 1.363 . S
C560 C566 1.428 . S
H561 C557 0.930 . S
H562 C559 0.929 . S
S563 N564 1.613 . S
S563 N565 1.610 . S
N564 S563 1.613 . S
N564 C567 1.350 . S
N565 S563 1.610 . S
N565 C566 1.351 . S
C566 C560 1.428 . S
C566 N565 1.351 . S
C566 C567 1.434 . S
C567 C558 1.429 . S
C567 N564 1.350 . S
C567 C566 1.434 . S
C568 C569 1.369 . S
C568 C570 1.419 . S
C568 H572 0.930 . S
C569 C568 1.369 . S
C569 C578 1.429 . S
C570 C568 1.419 . S
C570 C571 1.363 . S
C570 H573 0.929 . S
C571 C570 1.363 . S
C571 C577 1.428 . S
H572 C568 0.930 . S
H573 C570 0.929 . S
S574 N575 1.613 . S
S574 N576 1.610 . S
N575 S574 1.613 . S
N575 C578 1.350 . S
N576 S574 1.610 . S
N576 C577 1.351 . S
C577 C571 1.428 . S
C577 N576 1.351 . S
C577 C578 1.434 . S
C578 C569 1.429 . S
C578 N575 1.350 . S
C578 C577 1.434 . S
C579 C580 1.369 1_655 S
C579 C581 1.419 . S
C579 H583 0.930 . S
C580 C579 1.369 1_455 S
C580 C589 1.429 . S
C581 C579 1.419 . S
C581 C582 1.363 1_655 S
C581 H584 0.929 . S
C582 C581 1.363 1_455 S
C582 C588 1.428 . S
H583 C579 0.930 . S
H584 C581 0.929 . S
S585 N586 1.613 . S
S585 N587 1.610 . S
N586 S585 1.613 . S
N586 C589 1.350 . S
N587 S585 1.610 . S
N587 C588 1.351 . S
C588 C582 1.428 . S
C588 N587 1.351 . S
C588 C589 1.434 . S
C589 C580 1.429 . S
C589 N586 1.350 . S
C589 C588 1.434 . S
C590 C591 1.369 . S
C590 C592 1.419 . S
C590 H594 0.930 . S
C591 C590 1.369 . S
C591 C600 1.429 . S
C592 C590 1.419 . S
C592 C593 1.363 . S
C592 H595 0.929 . S
C593 C592 1.363 . S
C593 C599 1.428 . S
H594 C590 0.930 . S
H595 C592 0.929 . S
S596 N597 1.613 . S
S596 N598 1.610 . S
N597 S596 1.613 . S
N597 C600 1.350 . S
N598 S596 1.610 . S
N598 C599 1.351 . S
C599 C593 1.428 . S
C599 N598 1.351 . S
C599 C600 1.434 . S
C600 C591 1.429 . S
C600 N597 1.350 . S
C600 C599 1.434 . S
C601 C602 1.369 . S
C601 C603 1.419 . S
C601 H605 0.930 . S
C602 C601 1.369 . S
C602 C611 1.429 . S
C603 C601 1.419 . S
C603 C604 1.363 . S
C603 H606 0.929 . S
C604 C603 1.363 . S
C604 C610 1.428 . S
H605 C601 0.930 . S
H606 C603 0.929 . S
S607 N608 1.613 . S
S607 N609 1.610 . S
N608 S607 1.613 . S
N608 C611 1.350 . S
N609 S607 1.610 . S
N609 C610 1.351 . S
C610 C604 1.428 . S
C610 N609 1.351 . S
C610 C611 1.434 . S
C611 C602 1.429 . S
C611 N608 1.350 . S
C611 C610 1.434 . S
C612 C613 1.369 . S
C612 C614 1.419 . S
C612 H616 0.930 . S
C613 C612 1.369 . S
C613 C622 1.429 . S
C614 C612 1.419 . S
C614 C615 1.363 . S
C614 H617 0.929 . S
C615 C614 1.363 . S
C615 C621 1.428 . S
H616 C612 0.930 . S
H617 C614 0.929 . S
S618 N619 1.613 . S
S618 N620 1.610 . S
N619 S618 1.613 . S
N619 C622 1.350 . S
N620 S618 1.610 . S
N620 C621 1.351 . S
C621 C615 1.428 . S
C621 N620 1.351 . S
C621 C622 1.434 . S
C622 C613 1.429 . S
C622 N619 1.350 . S
C622 C621 1.434 . S
C623 C624 1.369 . S
C623 C625 1.419 . S
C623 H627 0.930 . S
C624 C623 1.369 . S
C624 C633 1.429 . S
C625 C623 1.419 . S
C625 C626 1.363 . S
C625 H628 0.929 . S
C626 C625 1.363 . S
C626 C632 1.428 . S
H627 C623 0.930 . S
H628 C625 0.929 . S
S629 N630 1.613 . S
S629 N631 1.610 . S
N630 S629 1.613 . S
N630 C633 1.350 . S
N631 S629 1.610 . S
N631 C632 1.351 . S
C632 C626 1.428 . S
C632 N631 1.351 . S
C632 C633 1.434 . S
C633 C624 1.429 . S
C633 N630 1.350 . S
C633 C632 1.434 . S
C634 C635 1.369 . S
C634 C636 1.419 . S
C634 H638 0.930 . S
C635 C634 1.369 . S
C635 C644 1.429 . S
C636 C634 1.419 . S
C636 C637 1.363 . S
C636 H639 0.929 . S
C637 C636 1.363 . S
C637 C643 1.428 . S
H638 C634 0.930 . S
H639 C636 0.929 . S
S640 N641 1.613 . S
S640 N642 1.610 . S
N641 S640 1.613 . S
N641 C644 1.350 . S
N642 S640 1.610 . S
N642 C643 1.351 . S
C643 C637 1.428 . S
C643 N642 1.351 . S
C643 C644 1.434 . S
C644 C635 1.429 . S
C644 N641 1.350 . S
C644 C643 1.434 . S
C645 C646 1.369 . S
C645 C647 1.419 1_554 S
C645 H649 0.930 . S
C646 C645 1.369 . S
C646 C655 1.429 . S
C647 C645 1.419 1_556 S
C647 C648 1.364 . S
C647 H650 0.929 . S
C648 C647 1.364 . S
C648 C654 1.420 1_556 S
H649 C645 0.930 . S
H650 C647 0.929 . S
S651 N652 1.613 . S
S651 N653 1.610 . S
N652 S651 1.613 . S
N652 C655 1.350 . S
N653 S651 1.610 . S
N653 C654 1.351 . S
C654 C648 1.420 1_554 S
C654 N653 1.351 . S
C654 C655 1.434 . S
C655 C646 1.429 . S
C655 N652 1.350 . S
C655 C654 1.434 . S
C656 C657 1.369 . S
C656 C658 1.419 . S
C656 H660 0.930 . S
C657 C656 1.369 . S
C657 C666 1.429 . S
C658 C656 1.419 . S
C658 C659 1.363 . S
C658 H661 0.929 . S
C659 C658 1.363 . S
C659 C665 1.428 . S
H660 C656 0.930 . S
H661 C658 0.929 . S
S662 N663 1.613 . S
S662 N664 1.610 . S
N663 S662 1.613 . S
N663 C666 1.350 . S
N664 S662 1.610 . S
N664 C665 1.351 . S
C665 C659 1.428 . S
C665 N664 1.351 . S
C665 C666 1.434 . S
C666 C657 1.429 . S
C666 N663 1.350 . S
C666 C665 1.434 . S
C667 C668 1.369 . S
C667 C669 1.419 . S
C667 H671 0.930 . S
C668 C667 1.369 . S
C668 C677 1.429 . S
C669 C667 1.419 . S
C669 C670 1.363 . S
C669 H672 0.929 . S
C670 C669 1.363 . S
C670 C676 1.428 . S
H671 C667 0.930 . S
H672 C669 0.929 . S
S673 N674 1.613 . S
S673 N675 1.610 . S
N674 S673 1.613 . S
N674 C677 1.350 . S
N675 S673 1.610 . S
N675 C676 1.351 . S
C676 C670 1.428 . S
C676 N675 1.351 . S
C676 C677 1.434 . S
C677 C668 1.429 . S
C677 N674 1.350 . S
C677 C676 1.434 . S
C678 C679 1.369 . S
C678 C680 1.419 . S
C678 H682 0.930 . S
C679 C678 1.369 . S
C679 C688 1.429 . S
C680 C678 1.419 . S
C680 C681 1.363 . S
C680 H683 0.929 . S
C681 C680 1.363 . S
C681 C687 1.428 . S
H682 C678 0.930 . S
H683 C680 0.929 . S
S684 N685 1.613 . S
S684 N686 1.610 . S
N685 S684 1.613 . S
N685 C688 1.350 . S
N686 S684 1.610 . S
N686 C687 1.351 . S
C687 C681 1.428 . S
C687 N686 1.351 . S
C687 C688 1.434 . S
C688 C679 1.429 . S
C688 N685 1.350 . S
C688 C687 1.434 . S
C689 C690 1.369 . S
C689 C691 1.419 . S
C689 H693 0.930 . S
C690 C689 1.369 . S
C690 C699 1.429 . S
C691 C689 1.419 . S
C691 C692 1.363 . S
C691 H694 0.929 . S
C692 C691 1.363 . S
C692 C698 1.428 . S
H693 C689 0.930 . S
H694 C691 0.929 . S
S695 N696 1.613 . S
S695 N697 1.610 . S
N696 S695 1.613 . S
N696 C699 1.350 . S
N697 S695 1.610 . S
N697 C698 1.351 . S
C698 C692 1.428 . S
C698 N697 1.351 . S
C698 C699 1.434 . S
C699 C690 1.429 . S
C699 N696 1.350 . S
C699 C698 1.434 . S
C700 C701 1.369 . S
C700 C702 1.419 . S
C700 H704 0.930 . S
C701 C700 1.369 . S
C701 C710 1.429 . S
C702 C700 1.419 . S
C702 C703 1.363 . S
C702 H705 0.929 . S
C703 C702 1.363 . S
C703 C709 1.428 . S
H704 C700 0.930 . S
H705 C702 0.929 . S
S706 N707 1.613 . S
S706 N708 1.610 . S
N707 S706 1.613 . S
N707 C710 1.350 . S
N708 S706 1.610 . S
N708 C709 1.351 . S
C709 C703 1.428 . S
C709 N708 1.351 . S
C709 C710 1.434 . S
C710 C701 1.429 . S
C710 N707 1.350 . S
C710 C709 1.434 . S
C711 C712 1.369 . S
C711 C713 1.419 . S
C711 H715 0.930 . S
C712 C711 1.369 . S
C712 C721 1.429 . S
C713 C711 1.419 . S
C713 C714 1.363 . S
C713 H716 0.929 . S
C714 C713 1.363 . S
C714 C720 1.428 . S
H715 C711 0.930 . S
H716 C713 0.929 . S
S717 N718 1.613 . S
S717 N719 1.610 . S
N718 S717 1.613 . S
N718 C721 1.350 . S
N719 S717 1.610 . S
N719 C720 1.351 . S
C720 C714 1.428 . S
C720 N719 1.351 . S
C720 C721 1.434 . S
C721 C712 1.429 . S
C721 N718 1.350 . S
C721 C720 1.434 . S
C722 C723 1.369 . S
C722 C724 1.419 . S
C722 H726 0.930 . S
C723 C722 1.369 . S
C723 C732 1.429 . S
C724 C722 1.419 . S
C724 C725 1.363 . S
C724 H727 0.929 . S
C725 C724 1.363 . S
C725 C731 1.428 . S
H726 C722 0.930 . S
H727 C724 0.929 . S
S728 N729 1.613 . S
S728 N730 1.610 . S
N729 S728 1.613 . S
N729 C732 1.350 . S
N730 S728 1.610 . S
N730 C731 1.351 . S
C731 C725 1.428 . S
C731 N730 1.351 . S
C731 C732 1.434 . S
C732 C723 1.429 . S
C732 N729 1.350 . S
C732 C731 1.434 . S
C733 C734 1.369 . S
C733 C735 1.419 . S
C733 H737 0.930 . S
C734 C733 1.369 . S
C734 C743 1.429 1_556 S
C735 C733 1.419 . S
C735 C736 1.363 . S
C735 H738 0.929 . S
C736 C735 1.363 . S
C736 C742 1.428 1_556 S
H737 C733 0.930 . S
H738 C735 0.929 . S
S739 N740 1.613 . S
S739 N741 1.610 . S
N740 S739 1.613 . S
N740 C743 1.350 . S
N741 S739 1.610 . S
N741 C742 1.351 . S
C742 C736 1.428 1_554 S
C742 N741 1.351 . S
C742 C743 1.434 . S
C743 C734 1.429 1_554 S
C743 N740 1.350 . S
C743 C742 1.434 . S
C744 C745 1.369 . S
C744 C746 1.419 . S
C744 H748 0.930 . S
C745 C744 1.369 . S
C745 C754 1.429 . S
C746 C744 1.419 . S
C746 C747 1.363 . S
C746 H749 0.929 . S
C747 C746 1.363 . S
C747 C753 1.428 . S
H748 C744 0.930 . S
H749 C746 0.929 . S
S750 N751 1.613 . S
S750 N752 1.610 . S
N751 S750 1.613 . S
N751 C754 1.350 . S
N752 S750 1.610 . S
N752 C753 1.351 . S
C753 C747 1.428 . S
C753 N752 1.351 . S
C753 C754 1.434 . S
C754 C745 1.429 . S
C754 N751 1.350 . S
C754 C753 1.434 . S
C755 C756 1.369 . S
C755 C757 1.419 . S
C755 H759 0.930 . S
C756 C755 1.369 . S
C756 C765 1.429 . S
C757 C755 1.419 . S
C757 C758 1.363 . S
C757 H760 0.929 . S
C758 C757 1.363 . S
C758 C764 1.428 . S
H759 C755 0.930 . S
H760 C757 0.929 . S
S761 N762 1.613 . S
S761 N763 1.610 . S
N762 S761 1.613 . S
N762 C765 1.350 . S
N763 S761 1.610 . S
N763 C764 1.351 . S
C764 C758 1.428 . S
C764 N763 1.351 . S
C764 C765 1.434 . S
C765 C756 1.429 . S
C765 N762 1.350 . S
C765 C764 1.434 . S
C766 C767 1.369 . S
C766 C768 1.419 . S
C766 H770 0.930 . S
C767 C766 1.369 . S
C767 C776 1.429 . S
C768 C766 1.419 . S
C768 C769 1.363 . S
C768 H771 0.929 . S
C769 C768 1.363 . S
C769 C775 1.428 . S
H770 C766 0.930 . S
H771 C768 0.929 . S
S772 N773 1.613 . S
S772 N774 1.610 . S
N773 S772 1.613 . S
N773 C776 1.350 . S
N774 S772 1.610 . S
N774 C775 1.351 . S
C775 C769 1.428 . S
C775 N774 1.351 . S
C775 C776 1.434 . S
C776 C767 1.429 . S
C776 N773 1.350 . S
C776 C775 1.434 . S
C777 C778 1.369 . S
C777 C779 1.419 . S
C777 H781 0.930 . S
C778 C777 1.369 . S
C778 C787 1.429 . S
C779 C777 1.419 . S
C779 C780 1.363 . S
C779 H782 0.929 . S
C780 C779 1.363 . S
C780 C786 1.428 . S
H781 C777 0.930 . S
H782 C779 0.929 . S
S783 N784 1.613 . S
S783 N785 1.610 . S
N784 S783 1.613 . S
N784 C787 1.350 . S
N785 S783 1.610 . S
N785 C786 1.351 . S
C786 C780 1.428 . S
C786 N785 1.351 . S
C786 C787 1.434 . S
C787 C778 1.429 . S
C787 N784 1.350 . S
C787 C786 1.434 . S
C788 C789 1.369 . S
C788 C790 1.419 . S
C788 H792 0.930 . S
C789 C788 1.369 . S
C789 C798 1.429 . S
C790 C788 1.419 . S
C790 C791 1.363 . S
C790 H793 0.929 . S
C791 C790 1.363 . S
C791 C797 1.428 . S
H792 C788 0.930 . S
H793 C790 0.929 . S
S794 N795 1.613 . S
S794 N796 1.610 . S
N795 S794 1.613 . S
N795 C798 1.350 . S
N796 S794 1.610 . S
N796 C797 1.351 . S
C797 C791 1.428 . S
C797 N796 1.351 . S
C797 C798 1.434 . S
C798 C789 1.429 . S
C798 N795 1.350 . S
C798 C797 1.434 . S
C799 C800 1.369 . S
C799 C801 1.419 . S
C799 H803 0.930 . S
C800 C799 1.369 . S
C800 C809 1.429 . S
C801 C799 1.419 . S
C801 C802 1.363 . S
C801 H804 0.929 . S
C802 C801 1.363 . S
C802 C808 1.428 . S
H803 C799 0.930 . S
H804 C801 0.929 . S
S805 N806 1.613 . S
S805 N807 1.610 . S
N806 S805 1.613 . S
N806 C809 1.350 . S
N807 S805 1.610 . S
N807 C808 1.351 . S
C808 C802 1.428 . S
C808 N807 1.351 . S
C808 C809 1.434 . S
C809 C800 1.429 . S
C809 N806 1.350 . S
C809 C808 1.434 . S
C810 C811 1.369 . S
C810 C812 1.419 1_455 S
C810 H814 0.930 . S
C811 C810 1.369 . S
C811 C820 1.429 . S
C812 C810 1.419 1_655 S
C812 C813 1.363 . S
C812 H815 0.929 . S
C813 C812 1.363 . S
C813 C819 1.428 1_655 S
H814 C810 0.930 . S
H815 C812 0.929 . S
S816 N817 1.613 1_556 S
S816 N818 1.610 1_556 S
N817 S816 1.613 1_554 S
N817 C820 1.350 . S
N818 S816 1.610 1_554 S
N818 C819 1.351 . S
C819 C813 1.428 1_455 S
C819 N818 1.351 . S
C819 C820 1.434 . S
C820 C811 1.429 . S
C820 N817 1.350 . S
C820 C819 1.434 . S
C821 C822 1.369 . S
C821 C823 1.419 . S
C821 H825 0.930 . S
C822 C821 1.369 . S
C822 C831 1.429 . S
C823 C821 1.419 . S
C823 C824 1.363 . S
C823 H826 0.929 . S
C824 C823 1.363 . S
C824 C830 1.428 . S
H825 C821 0.930 . S
H826 C823 0.929 . S
S827 N828 1.613 . S
S827 N829 1.610 . S
N828 S827 1.613 . S
N828 C831 1.350 . S
N829 S827 1.610 . S
N829 C830 1.351 . S
C830 C824 1.428 . S
C830 N829 1.351 . S
C830 C831 1.434 . S
C831 C822 1.429 . S
C831 N828 1.350 . S
C831 C830 1.434 . S
C832 C833 1.369 . S
C832 C834 1.419 . S
C832 H836 0.930 . S
C833 C832 1.369 . S
C833 C842 1.429 . S
C834 C832 1.419 . S
C834 C835 1.363 . S
C834 H837 0.929 . S
C835 C834 1.363 . S
C835 C841 1.428 . S
H836 C832 0.930 . S
H837 C834 0.929 . S
S838 N839 1.613 . S
S838 N840 1.610 . S
N839 S838 1.613 . S
N839 C842 1.350 . S
N840 S838 1.610 . S
N840 C841 1.351 . S
C841 C835 1.428 . S
C841 N840 1.351 . S
C841 C842 1.434 . S
C842 C833 1.429 . S
C842 N839 1.350 . S
C842 C841 1.434 . S
C843 C844 1.369 . S
C843 C845 1.419 . S
C843 H847 0.930 . S
C844 C843 1.369 . S
C844 C853 1.429 . S
C845 C843 1.419 . S
C845 C846 1.363 . S
C845 H848 0.929 . S
C846 C845 1.363 . S
C846 C852 1.428 . S
H847 C843 0.930 . S
H848 C845 0.929 . S
S849 N850 1.613 . S
S849 N851 1.610 . S
N850 S849 1.613 . S
N850 C853 1.350 . S
N851 S849 1.610 . S
N851 C852 1.351 . S
C852 C846 1.428 . S
C852 N851 1.351 . S
C852 C853 1.434 . S
C853 C844 1.429 . S
C853 N850 1.350 . S
C853 C852 1.434 . S
C854 C855 1.369 . S
C854 C856 1.419 . S
C854 H858 0.930 . S
C855 C854 1.369 . S
C855 C864 1.429 1_565 S
C856 C854 1.419 . S
C856 C857 1.363 . S
C856 H859 0.929 . S
C857 C856 1.363 . S
C857 C863 1.428 1_565 S
H858 C854 0.930 . S
H859 C856 0.929 . S
S860 N861 1.613 . S
S860 N862 1.610 . S
N861 S860 1.613 . S
N861 C864 1.350 . S
N862 S860 1.610 . S
N862 C863 1.351 . S
C863 C857 1.428 1_545 S
C863 N862 1.351 . S
C863 C864 1.434 . S
C864 C855 1.429 1_545 S
C864 N861 1.350 . S
C864 C863 1.434 . S
C865 C866 1.369 . S
C865 C867 1.419 . S
C865 H869 0.930 . S
C866 C865 1.369 . S
C866 C875 1.429 . S
C867 C865 1.419 . S
C867 C868 1.363 . S
C867 H870 0.929 . S
C868 C867 1.363 . S
C868 C874 1.428 . S
H869 C865 0.930 . S
H870 C867 0.929 . S
S871 N872 1.613 1_545 S
S871 N873 1.610 . S
N872 S871 1.613 1_565 S
N872 C875 1.350 1_565 S
N873 S871 1.610 . S
N873 C874 1.351 . S
C874 C868 1.428 . S
C874 N873 1.351 . S
C874 C875 1.434 . S
C875 C866 1.429 . S
C875 N872 1.350 1_545 S
C875 C874 1.434 . S
C481 C15 0.568 . S
C483 C455 0.592 . S
C492 C378 3.048 1_565 S
C494 C58 2.897 . S
C503 C95 2.610 1_554 S
C505 C338 2.762 . S
C514 C138 3.153 . S
C516 C418 3.309 1_545 S
C525 C178 1.612 . S
C527 C415 1.782 . S
C536 C215 1.566 . S
C538 C458 1.480 . S
C547 C375 2.000 . S
C549 C258 1.701 . S
C558 C298 2.195 . S
C560 C335 1.897 . S
C569 C135 1.790 . S
C571 C175 1.524 . S
C580 C18 3.597 . S
C582 C218 3.744 . S
C591 C55 0.797 . S
C593 C255 0.779 . S
C602 C295 2.130 . S
C604 C98 2.108 1_554 S
C613 C19 3.207 . S
C615 C329 3.283 . S
C624 C50 3.098 1_655 S
C626 C409 3.038 . S
C635 C446 1.190 . S
C637 C99 1.134 . S
C646 C130 2.136 . S
C648 C369 2.094 . S
C657 C170 1.156 . S
C659 C366 1.102 . S
C668 C326 1.454 . S
C670 C219 1.340 . S
C679 C406 1.731 . S
C681 C250 1.757 . S
C690 C449 2.110 . S
C692 C290 2.037 . S
C701 C9 2.379 . S
C703 C139 2.311 . S
C712 C10 1.715 . S
C714 C46 1.657 . S
C723 C59 3.164 . S
C725 C89 3.142 . S
C734 C126 1.955 1_565 S
C736 C90 2.066 . S
C745 C210 1.458 . S
C747 C166 1.302 . S
C756 C209 2.313 . S
C758 C259 2.321 . S
C767 C246 0.735 . S
C769 C299 0.730 . S
C778 C179 1.299 . S
C780 C286 1.317 . S
C789 C339 1.491 . S
C791 C129 1.741 . S
C800 C206 1.740 . S
C802 C370 1.772 . S
C811 C330 1.817 . S
C813 C249 1.828 . S
C822 C410 3.328 . S
C824 C289 3.265 . S
C833 C169 0.826 . S
C835 C459 0.827 . S
C844 C450 1.562 . S
C846 C49 1.589 . S
C855 C86 1.278 . S
C857 C379 1.246 . S
C866 C419 1.971 1_545 S
C868 C6 1.994 . S
