# Generated by pormake.
# Topology loh, (5)-cn, num edge types: 1
# Building blocks:
#     Node 0, Type 0, BuildingBlock: BEQFEK_clean_sbu_0, # of connection points: 5
#     Node 1, Type 0, BuildingBlock: BEQFEK_clean_sbu_0, # of connection points: 5
#     Node 2, Type 0, BuildingBlock: BEQFEK_clean_sbu_0, # of connection points: 5
#     Node 3, Type 0, BuildingBlock: BEQFEK_clean_sbu_0, # of connection points: 5
#     Node 4, Type 0, BuildingBlock: BEQFEK_clean_sbu_0, # of connection points: 5
#     Node 5, Type 0, BuildingBlock: BEQFEK_clean_sbu_0, # of connection points: 5
#     Node 6, Type 0, BuildingBlock: BEQFEK_clean_sbu_0, # of connection points: 5
#     Node 7, Type 0, BuildingBlock: BEQFEK_clean_sbu_0, # of connection points: 5
#     Edge 8, Type (0, 0), BuildingBlock: OJICUG_clean_linker_0, # of connection points: 2
#     Edge 9, Type (0, 0), BuildingBlock: OJICUG_clean_linker_0, # of connection points: 2
#     Edge 10, Type (0, 0), BuildingBlock: OJICUG_clean_linker_0, # of connection points: 2
#     Edge 11, Type (0, 0), BuildingBlock: OJICUG_clean_linker_0, # of connection points: 2
#     Edge 12, Type (0, 0), BuildingBlock: OJICUG_clean_linker_0, # of connection points: 2
#     Edge 13, Type (0, 0), BuildingBlock: OJICUG_clean_linker_0, # of connection points: 2
#     Edge 14, Type (0, 0), BuildingBlock: OJICUG_clean_linker_0, # of connection points: 2
#     Edge 15, Type (0, 0), BuildingBlock: OJICUG_clean_linker_0, # of connection points: 2
#     Edge 16, Type (0, 0), BuildingBlock: OJICUG_clean_linker_0, # of connection points: 2
#     Edge 17, Type (0, 0), BuildingBlock: OJICUG_clean_linker_0, # of connection points: 2
#     Edge 18, Type (0, 0), BuildingBlock: OJICUG_clean_linker_0, # of connection points: 2
#     Edge 19, Type (0, 0), BuildingBlock: OJICUG_clean_linker_0, # of connection points: 2
#     Edge 20, Type (0, 0), BuildingBlock: OJICUG_clean_linker_0, # of connection points: 2
#     Edge 21, Type (0, 0), BuildingBlock: OJICUG_clean_linker_0, # of connection points: 2
#     Edge 22, Type (0, 0), BuildingBlock: OJICUG_clean_linker_0, # of connection points: 2
#     Edge 23, Type (0, 0), BuildingBlock: OJICUG_clean_linker_0, # of connection points: 2
#     Edge 24, Type (0, 0), BuildingBlock: OJICUG_clean_linker_0, # of connection points: 2
#     Edge 25, Type (0, 0), BuildingBlock: OJICUG_clean_linker_0, # of connection points: 2
#     Edge 26, Type (0, 0), BuildingBlock: OJICUG_clean_linker_0, # of connection points: 2
#     Edge 27, Type (0, 0), BuildingBlock: OJICUG_clean_linker_0, # of connection points: 2
# Relax obj value: 0.196
# Max RMSD: 0.139
# Mean RMSD: 0.139
data_MOF--net-loh--node1-BEQFEK_clean_sbu_0--edge1-OJICUG_clean_linker_0
_symmetry_space_group_name_H-M    P1
_symmetry_Int_Tables_number       1
_symmetry_cell_setting            triclinic
loop_
_symmetry_equiv_pos_as_xyz
'x, y, z'
_cell_length_a     16.295447
_cell_length_b     21.689325
_cell_length_c     33.12009
_cell_angle_alpha  89.980508
_cell_angle_beta   90.190341
_cell_angle_gamma 90.248203
loop_
_atom_site_label
_atom_site_type_symbol
_atom_site_fract_x
_atom_site_fract_y
_atom_site_fract_z
_atom_type_partial_charge
Co0 Co 0.02687 0.38349 0.1252 0.0
Co1 Co 0.04859 0.24859 0.15498 0.0
C2 C 0.91845 0.27611 0.09741 0.0
O3 O 0.94906 0.32975 0.09777 0.0
O4 O 0.94473 0.23524 0.12192 0.0
C5 C 0.90162 0.46851 0.11686 0.0
O6 O 0.8584 0.423 0.13223 0.0
C7 C 0.03912 0.12706 0.19872 0.0
C8 C 0.16522 0.09308 0.19026 0.0
C9 C 0.0903 0.07658 0.20706 0.0
N10 N 0.08231 0.17009 0.17815 0.0
N11 N 0.1575 0.14903 0.17315 0.0
C12 C 0.95181 0.1362 0.21095 0.0
H13 H 0.93327 0.18485 0.20609 0.0
H14 H 0.94358 0.1237 0.24318 0.0
H15 H 0.91151 0.10626 0.19224 0.0
C16 C 0.0338 0.41245 0.20968 0.0
N17 N 0.03466 0.37011 0.18025 0.0
N18 N 0.0389 0.31424 0.19557 0.0
C19 C 0.03854 0.32018 0.2365 0.0
C20 C 0.03538 0.38297 0.24644 0.0
C21 C 0.03027 0.48064 0.20258 0.0
H22 H 0.06703 0.49307 0.17563 0.0
H23 H 0.96559 0.49423 0.19726 0.0
H24 H 0.0537 0.50682 0.229 0.0
O25 O 0.13123 0.37239 0.09818 0.0
O26 O 0.13629 0.27243 0.11315 0.0
H27 H 0.08206 0.23097 0.25405 0.0
H28 H 0.06135 0.28304 0.2958 0.0
C29 C 0.04073 0.26746 0.26547 0.0
H30 H 0.97811 0.24766 0.26816 0.0
H31 H 0.20374 0.17284 0.15789 0.0
O32 O 0.97931 0.4638 0.11474 0.0
C33 C 0.16384 0.31968 0.09398 0.0
Co34 Co 0.54637 0.67042 0.62048 0.0
Co35 Co 0.52303 0.80404 0.65312 0.0
C36 C 0.64822 0.77914 0.59143 0.0
O37 O 0.62092 0.7246 0.59224 0.0
O38 O 0.62119 0.81918 0.6162 0.0
C39 C 0.66928 0.58515 0.60734 0.0
O40 O 0.71496 0.62999 0.62194 0.0
C41 C 0.54386 0.92402 0.69757 0.0
C42 C 0.41551 0.95522 0.70092 0.0
C43 C 0.49487 0.97291 0.7113 0.0
N44 N 0.49519 0.88076 0.68025 0.0
N45 N 0.41863 0.90005 0.68244 0.0
C46 C 0.63526 0.91854 0.69925 0.0
H47 H 0.65663 0.88048 0.6797 0.0
H48 H 0.65459 0.908 0.73063 0.0
H49 H 0.66448 0.96245 0.68965 0.0
C50 C 0.54907 0.6385 0.7048 0.0
N51 N 0.54515 0.68161 0.67586 0.0
N52 N 0.53911 0.73684 0.69193 0.0
C53 C 0.54052 0.72983 0.73274 0.0
C54 C 0.54691 0.66692 0.74194 0.0
C55 C 0.5535 0.57057 0.69689 0.0
H56 H 0.51337 0.55825 0.67099 0.0
H57 H 0.61762 0.55824 0.68931 0.0
H58 H 0.53466 0.54327 0.72366 0.0
O59 O 0.43932 0.68367 0.59606 0.0
O60 O 0.4278 0.78189 0.61479 0.0
H61 H 0.48218 0.81169 0.75401 0.0
H62 H 0.52764 0.76449 0.79348 0.0
C63 C 0.53481 0.7818 0.76213 0.0
H64 H 0.59137 0.81025 0.76019 0.0
H65 H 0.36832 0.87569 0.671 0.0
O66 O 0.5915 0.59032 0.60747 0.0
C67 C 0.40158 0.73485 0.59488 0.0
Co68 Co 0.00342 0.66767 0.94974 0.0
Co69 Co 0.03125 0.80039 0.91548 0.0
C70 C 0.89748 0.77586 0.9736 0.0
O71 O 0.92356 0.72113 0.97406 0.0
O72 O 0.93041 0.81595 0.9505 0.0
C73 C 0.88736 0.58127 0.97098 0.0
O74 O 0.83712 0.61651 0.95035 0.0
C75 C 0.014 0.91915 0.86971 0.0
C76 C 0.14321 0.94949 0.86712 0.0
C77 C 0.06453 0.9675 0.85614 0.0
N78 N 0.06117 0.87587 0.8876 0.0
N79 N 0.13826 0.89458 0.88584 0.0
C80 C 0.92254 0.91422 0.86733 0.0
H81 H 0.89955 0.87702 0.88725 0.0
H82 H 0.90414 0.90259 0.83596 0.0
H83 H 0.89396 0.95864 0.87597 0.0
C84 C 0.00613 0.63288 0.86585 0.0
N85 N 0.00798 0.6768 0.89427 0.0
N86 N 0.01847 0.73143 0.87774 0.0
C87 C 0.02369 0.72318 0.83716 0.0
C88 C 0.01633 0.66014 0.82854 0.0
C89 C 0.99484 0.56562 0.87479 0.0
H90 H 0.03993 0.55114 0.89807 0.0
H91 H 0.93244 0.55808 0.88713 0.0
H92 H 0.00165 0.53634 0.84761 0.0
O93 O 0.10839 0.68502 0.97603 0.0
O94 O 0.12392 0.78172 0.95502 0.0
H95 H 0.09664 0.79869 0.81629 0.0
H96 H 0.04491 0.75595 0.77645 0.0
C97 C 0.03945 0.77396 0.80769 0.0
H98 H 0.98846 0.80761 0.80913 0.0
H99 H 0.18765 0.87006 0.8978 0.0
O100 O 0.96422 0.58644 0.9654 0.0
C101 C 0.14757 0.73581 0.97643 0.0
Co102 Co 0.54989 0.38503 0.44439 0.0
Co103 Co 0.5233 0.25063 0.41343 0.0
C104 C 0.66194 0.27795 0.46716 0.0
O105 O 0.63313 0.33199 0.468 0.0
O106 O 0.62939 0.23693 0.44451 0.0
C107 C 0.66869 0.47195 0.46095 0.0
O108 O 0.71664 0.4357 0.43994 0.0
C109 C 0.52847 0.13013 0.36885 0.0
C110 C 0.40215 0.09657 0.3788 0.0
C111 C 0.47595 0.07997 0.36112 0.0
N112 N 0.48715 0.17311 0.39003 0.0
N113 N 0.41181 0.15238 0.39588 0.0
C114 C 0.61519 0.13909 0.35542 0.0
H115 H 0.63433 0.1879 0.35946 0.0
H116 H 0.62171 0.1257 0.32325 0.0
H117 H 0.65619 0.10975 0.37401 0.0
C118 C 0.53741 0.41613 0.36022 0.0
N119 N 0.5378 0.37331 0.38935 0.0
N120 N 0.52976 0.31777 0.37375 0.0
C121 C 0.52515 0.32441 0.33297 0.0
C122 C 0.52974 0.38725 0.32338 0.0
C123 C 0.54599 0.48397 0.36777 0.0
H124 H 0.50697 0.49748 0.39364 0.0
H125 H 0.61081 0.49456 0.37552 0.0
H126 H 0.52849 0.5116 0.34092 0.0
O127 O 0.44812 0.37019 0.47357 0.0
O128 O 0.43857 0.27146 0.45633 0.0
H129 H 0.47419 0.23686 0.31608 0.0
H130 H 0.49419 0.2888 0.27409 0.0
C131 C 0.51671 0.27223 0.30383 0.0
H132 H 0.57759 0.25052 0.29963 0.0
H133 H 0.36683 0.17625 0.41178 0.0
O134 O 0.59138 0.46703 0.45682 0.0
C135 C 0.41382 0.31778 0.47691 0.0
Co136 Co 0.50979 0.88557 0.12366 0.0
Co137 Co 0.53136 0.75163 0.15509 0.0
C138 C 0.40327 0.77747 0.09601 0.0
O139 O 0.43317 0.83135 0.0959 0.0
O140 O 0.42912 0.73749 0.12122 0.0
C141 C 0.38684 0.97209 0.11094 0.0
O142 O 0.34002 0.92724 0.12447 0.0
C143 C 0.52032 0.63127 0.19933 0.0
C144 C 0.6457 0.59594 0.19061 0.0
C145 C 0.57053 0.58012 0.20746 0.0
N146 N 0.56431 0.67382 0.17883 0.0
N147 N 0.63907 0.65206 0.17372 0.0
C148 C 0.43297 0.6414 0.21114 0.0
H149 H 0.41457 0.68968 0.20477 0.0
H150 H 0.42475 0.63156 0.24376 0.0
H151 H 0.39261 0.61013 0.19342 0.0
C152 C 0.51237 0.91617 0.20812 0.0
N153 N 0.5146 0.87336 0.179 0.0
N154 N 0.52023 0.81787 0.19482 0.0
C155 C 0.52029 0.82447 0.23566 0.0
C156 C 0.51514 0.88729 0.2451 0.0
C157 C 0.50808 0.9842 0.20052 0.0
H158 H 0.54721 0.99663 0.1744 0.0
H159 H 0.44374 0.99685 0.19343 0.0
H160 H 0.52826 1.0111 0.22728 0.0
O161 O 0.6156 0.87357 0.09786 0.0
O162 O 0.62042 0.77432 0.11443 0.0
H163 H 0.56799 0.73671 0.25371 0.0
H164 H 0.54544 0.78888 0.29517 0.0
C165 C 0.52519 0.77232 0.265 0.0
H166 H 0.46352 0.75098 0.26799 0.0
H167 H 0.68561 0.67537 0.15835 0.0
O168 O 0.46448 0.9661 0.11165 0.0
C169 C 0.64871 0.82085 0.09491 0.0
Co170 Co 0.05159 0.16746 0.61882 0.0
Co171 Co 0.02577 0.30037 0.65257 0.0
C172 C 0.16308 0.2753 0.59759 0.0
O173 O 0.13453 0.22109 0.59615 0.0
O174 O 0.13035 0.31554 0.62046 0.0
C175 C 0.16928 0.08136 0.60098 0.0
O176 O 0.21685 0.11678 0.62318 0.0
C177 C 0.03976 0.41876 0.69909 0.0
C178 C 0.91103 0.44959 0.69817 0.0
C179 C 0.98861 0.46728 0.71144 0.0
N180 N 0.99394 0.37586 0.67972 0.0
N181 N 0.91712 0.39486 0.67938 0.0
C182 C 0.1306 0.41292 0.70421 0.0
H183 H 0.15439 0.37376 0.68635 0.0
H184 H 0.14512 0.40392 0.73642 0.0
H185 H 0.16165 0.45614 0.69465 0.0
C186 C 0.04173 0.13249 0.70249 0.0
N187 N 0.04256 0.17645 0.6741 0.0
N188 N 0.03348 0.23121 0.69052 0.0
C189 C 0.02695 0.22303 0.73106 0.0
C190 C 0.03148 0.15989 0.73973 0.0
C191 C 0.05247 0.06522 0.69362 0.0
H192 H 0.00997 0.05125 0.669 0.0
H193 H 0.11611 0.05736 0.68315 0.0
H194 H 0.04175 0.03566 0.72037 0.0
O195 O 0.94879 0.18455 0.5907 0.0
O196 O 0.93783 0.28231 0.6101 0.0
H197 H 0.95997 0.30177 0.75103 0.0
H198 H 0.0042 0.25605 0.79153 0.0
C199 C 0.01383 0.27413 0.76053 0.0
H200 H 0.06816 0.30511 0.76031 0.0
H201 H 0.86874 0.37064 0.66597 0.0
O202 O 0.09184 0.0865 0.60389 0.0
C203 C 0.91327 0.2365 0.58868 0.0
Co204 Co 0.5188 0.1728 0.9482 0.0
Co205 Co 0.54841 0.30599 0.91527 0.0
C206 C 0.41094 0.28093 0.9709 0.0
O207 O 0.43792 0.22646 0.97157 0.0
O208 O 0.44449 0.32146 0.94828 0.0
C209 C 0.39892 0.08739 0.9657 0.0
O210 O 0.35231 0.12318 0.94347 0.0
C211 C 0.53938 0.4245 0.86805 0.0
C212 C 0.66498 0.46022 0.87721 0.0
C213 C 0.59051 0.47511 0.85929 0.0
N214 N 0.58213 0.38301 0.89003 0.0
N215 N 0.65705 0.40505 0.89534 0.0
C216 C 0.45256 0.41383 0.85504 0.0
H217 H 0.43453 0.36505 0.86026 0.0
H218 H 0.44512 0.42534 0.82258 0.0
H219 H 0.41136 0.44372 0.87298 0.0
C220 C 0.52602 0.13883 0.86432 0.0
N221 N 0.52725 0.18269 0.8928 0.0
N222 N 0.53788 0.23749 0.87644 0.0
C223 C 0.54343 0.22923 0.83581 0.0
C224 C 0.53633 0.16614 0.82706 0.0
C225 C 0.51367 0.07162 0.87315 0.0
H226 H 0.55563 0.05731 0.89784 0.0
H227 H 0.44973 0.06411 0.88341 0.0
H228 H 0.52407 0.04206 0.84641 0.0
O229 O 0.62221 0.18837 0.97624 0.0
O230 O 0.63804 0.28556 0.95645 0.0
H231 H 0.6023 0.31384 0.81876 0.0
H232 H 0.58101 0.26148 0.77708 0.0
C233 C 0.55793 0.27997 0.80615 0.0
H234 H 0.49921 0.30421 0.80047 0.0
H235 H 0.70292 0.38255 0.91165 0.0
O236 O 0.47649 0.09201 0.96288 0.0
C237 C 0.66097 0.23927 0.97771 0.0
Co238 Co 0.04617 0.8823 0.44449 0.0
Co239 Co 0.02046 0.74818 0.41346 0.0
C240 C 0.14744 0.77392 0.47423 0.0
O241 O 0.12008 0.82828 0.47326 0.0
O242 O 0.12037 0.73361 0.44942 0.0
C243 C 0.17206 0.96691 0.45599 0.0
O244 O 0.21614 0.92131 0.44176 0.0
C245 C 0.03293 0.62736 0.36956 0.0
C246 C 0.90692 0.59166 0.37674 0.0
C247 C 0.98287 0.57605 0.3609 0.0
N248 N 0.9882 0.6699 0.38945 0.0
N249 N 0.91306 0.64787 0.39364 0.0
C250 C 0.12076 0.63767 0.35845 0.0
H251 H 0.13842 0.68657 0.36351 0.0
H252 H 0.1308 0.62537 0.32633 0.0
H253 H 0.16043 0.60826 0.37767 0.0
C254 C 0.04734 0.91228 0.35993 0.0
N255 N 0.04306 0.86959 0.38913 0.0
N256 N 0.03594 0.81409 0.37341 0.0
C257 C 0.03701 0.82063 0.33252 0.0
C258 C 0.04453 0.8834 0.32297 0.0
C259 C 0.05278 0.98033 0.36741 0.0
H260 H 0.01377 0.99302 0.39346 0.0
H261 H 0.11733 0.99283 0.37444 0.0
H262 H 0.03311 1.00721 0.34059 0.0
O263 O 0.93941 0.87103 0.46956 0.0
O264 O 0.92794 0.77229 0.45212 0.0
H265 H 0.98696 0.73313 0.31477 0.0
H266 H 0.00971 0.78525 0.27319 0.0
C267 C 0.03027 0.76852 0.30323 0.0
H268 H 0.0914 0.74684 0.29987 0.0
H269 H 0.86585 0.67107 0.40836 0.0
O270 O 0.09417 0.96229 0.4563 0.0
C271 C 0.90193 0.81959 0.47149 0.0
C272 C 0.32671 0.35403 1.014 0.0
C273 C 0.34288 0.29453 0.99939 0.0
H274 H 0.25786 0.40889 0.05596 0.0
C275 C 0.29891 0.2445 1.01598 0.0
H276 H 0.35972 0.39349 1.00216 0.0
C277 C 0.2434 0.25275 0.04732 0.0
C278 C 0.228 0.31171 0.06263 0.0
H279 H 0.3081 0.1981 1.0051 0.0
H280 H 0.21153 0.21269 0.0591 0.0
C281 C 0.26928 0.36258 0.0452 0.0
C282 C 0.31274 0.695 0.53772 0.0
C283 C 0.33132 0.7414 0.56637 0.0
H284 H 0.24075 0.66843 0.48582 0.0
C285 C 0.2864 0.79626 0.56522 0.0
H286 H 0.34637 0.65204 0.53761 0.0
C287 C 0.22635 0.80535 0.53575 0.0
C288 C 0.20954 0.76019 0.50609 0.0
H289 H 0.2985 0.83289 0.5867 0.0
H290 H 0.1935 0.84863 0.53614 0.0
C291 C 0.25248 0.70431 0.50786 0.0
C292 C 0.29568 0.70783 0.06403 0.0
C293 C 0.33983 0.76352 0.06483 0.0
H294 H 0.20059 0.65499 0.0352 0.0
C295 C 0.32348 0.8079 0.0347 0.0
H296 H 0.30707 0.67256 0.08648 0.0
C297 C 0.26309 0.79808 1.00548 0.0
C298 C 0.21724 0.74331 1.00517 0.0
H299 H 0.35719 0.85101 1.03364 0.0
H300 H 0.25165 0.83402 0.98347 0.0
C301 C 0.23496 0.69782 1.03447 0.0
C302 C 0.31047 0.35925 0.52688 0.0
C303 C 0.34964 0.30889 0.50811 0.0
H304 H 0.22042 0.38874 0.57028 0.0
C305 C 0.33095 0.24917 0.52133 0.0
H306 H 0.32439 0.40604 0.51767 0.0
C307 C 0.27402 0.23969 0.55191 0.0
C308 C 0.2321 0.28934 0.56977 0.0
H309 H 0.36105 0.20938 0.5084 0.0
H310 H 0.26213 0.19273 0.56116 0.0
C311 C 0.25173 0.34953 0.55733 0.0
C312 C 0.73458 0.75139 0.05295 0.0
C313 C 0.71448 0.81148 0.0646 0.0
H314 H 0.80335 0.69388 1.01421 0.0
C315 C 0.75264 0.8614 0.04453 0.0
H316 H 0.70559 0.71178 0.06696 0.0
C317 C 0.81078 0.85097 1.01393 0.0
C318 C 0.83091 0.79047 1.00267 0.0
H319 H 0.73775 0.90844 0.05252 0.0
H320 H 0.84064 0.88995 0.99966 0.0
C321 C 0.79093 0.74117 1.0223 0.0
C322 C 0.80996 0.19502 0.53817 0.0
C323 C 0.84808 0.24547 0.55776 0.0
H324 H 0.72111 0.1651 0.49388 0.0
C325 C 0.82796 0.30523 0.54529 0.0
H326 H 0.82489 0.1482 0.54677 0.0
C327 C 0.77101 0.31456 0.51447 0.0
C328 C 0.73053 0.26466 0.49563 0.0
H329 H 0.85723 0.34514 0.55886 0.0
H330 H 0.75823 0.36152 0.50569 0.0
C331 C 0.75129 0.20453 0.50753 0.0
C332 C 0.83679 0.3093 0.03729 0.0
C333 C 0.85377 0.26363 0.06651 0.0
H334 H 0.76423 0.3376 0.9868 0.0
C335 C 0.80927 0.20812 0.06495 0.0
H336 H 0.87061 0.35238 0.03679 0.0
C337 C 0.748 0.1994 0.03545 0.0
C338 C 0.73004 0.24601 1.00694 0.0
H339 H 0.82101 0.17189 0.0867 0.0
H340 H 0.71367 0.15653 0.03549 0.0
C341 C 0.77585 0.30077 1.00816 0.0
C342 C 0.75345 0.84947 0.55825 0.0
C343 C 0.71021 0.79341 0.55977 0.0
H344 H 0.84769 0.90218 0.52883 0.0
C345 C 0.72672 0.74845 0.53009 0.0
H346 H 0.74195 0.88518 0.58035 0.0
C347 C 0.78669 0.7579 0.50083 0.0
C348 C 0.83193 0.81291 0.49992 0.0
H349 H 0.69371 0.70501 0.52952 0.0
H350 H 0.79845 0.7214 0.47931 0.0
C351 C 0.81374 0.85915 0.52857 0.0
C352 C 0.09068 0.4454 0.30374 0.0
C353 C 0.02365 0.41554 0.28533 0.0
H354 H 0.13193 0.51737 0.34292 0.0
C355 C 0.94418 0.43417 0.29563 0.0
H356 H 0.15272 0.43282 0.29558 0.0
C357 C 0.93194 0.4844 0.32144 0.0
C358 C -0.00107 0.51793 0.33753 0.0
H359 H 0.89144 0.41319 0.28099 0.0
H360 H 0.86948 0.49906 0.32681 0.0
C361 C 0.07851 0.49557 0.3299 0.0
C362 C 0.488 0.60486 0.79851 0.0
C363 C 0.55646 0.63343 0.7807 0.0
H364 H 0.44359 0.53444 0.83807 0.0
C365 C 0.63503 0.61366 0.79195 0.0
H366 H 0.42661 0.61828 0.78957 0.0
C367 C 0.64506 0.56401 0.81852 0.0
C368 C 0.57669 0.53209 0.83437 0.0
H369 H 0.6888 0.63359 0.77776 0.0
H370 H 0.70692 0.54863 0.82485 0.0
C371 C 0.49795 0.55517 0.82538 0.0
C372 C 0.07841 0.53504 0.7571 0.0
C373 C 0.00524 0.52523 0.73517 0.0
H374 H 0.1404 0.5879 0.80277 0.0
C375 C 0.94265 0.56986 0.7389 0.0
H376 H 0.12834 0.5029 0.75617 0.0
C377 C 0.95003 0.61908 0.76617 0.0
C378 C 0.02061 0.62555 0.79002 0.0
H379 H 0.8855 0.56502 0.72241 0.0
H380 H 0.89797 0.6491 0.77089 0.0
C381 C 0.08602 0.58471 0.78394 0.0
C382 C 0.61391 0.43681 0.27038 0.0
C383 C 0.53589 0.42004 0.2843 0.0
H384 H 0.68565 0.49998 0.23588 0.0
C385 C 0.46723 0.45137 0.26903 0.0
H386 H 0.66805 0.41451 0.28252 0.0
C387 C 0.4769 0.50128 0.24237 0.0
C388 C 0.55577 0.52194 0.23113 0.0
H389 H 0.40642 0.44011 0.28001 0.0
H390 H 0.42229 0.52416 0.23196 0.0
C391 C 0.62374 0.48682 0.24409 0.0
C392 C 0.42772 0.94162 0.2944 0.0
C393 C 0.50587 0.92027 0.28393 0.0
H394 H 0.35747 1.0085 0.32629 0.0
C395 C 0.57487 0.9473 0.3024 0.0
H396 H 0.37363 0.92284 0.27968 0.0
C397 C 0.56606 0.99732 0.32899 0.0
C398 C 0.48801 1.02221 0.33698 0.0
H399 H 0.63596 0.93255 0.29409 0.0
H400 H 0.62078 1.01702 0.34219 0.0
C401 C 0.41885 0.99165 0.32068 0.0
C402 C 0.10695 0.07177 0.8297 0.0
C403 C 0.04593 1.02553 0.83309 0.0
H404 H 0.14926 0.15226 0.79793 0.0
C405 C 0.97265 0.03351 0.81104 0.0
H406 H 0.16405 0.06817 0.84633 0.0
C407 C 0.9635 0.0832 0.78437 0.0
C408 C 0.02774 0.12555 0.77839 0.0
H409 H 0.92426 0.99966 0.81155 0.0
H410 H 0.90926 0.08503 0.76539 0.0
C411 C 0.09817 0.12092 0.8025 0.0
C412 C 0.45493 0.07726 0.73835 0.0
C413 C 0.51533 0.0311 0.73411 0.0
H414 H 0.41517 0.15785 0.77052 0.0
C415 C 0.58997 0.03943 0.75508 0.0
H416 H 0.3968 0.07348 0.72258 0.0
C417 C 0.6011 0.08929 0.78154 0.0
C418 C 0.53767 0.13166 0.78834 0.0
H419 H 0.63817 1.00579 0.75385 0.0
H420 H 0.65646 0.0913 0.79972 0.0
C421 C 0.46575 0.12662 0.76529 0.0
C422 C 0.1443 0.98719 0.24746 0.0
C423 C 0.07621 1.0187 0.23113 0.0
H424 H 0.18725 0.91767 0.28839 0.0
C425 C -0.00262 0.99461 0.23911 0.0
H426 H 0.20623 1.00332 0.24191 0.0
C427 C 0.98693 0.9445 0.26562 0.0
C428 C 0.05498 0.91649 0.2841 0.0
H429 H 0.94327 1.01496 0.22598 0.0
H430 H 0.92535 0.93044 0.27389 0.0
C431 C 0.13377 0.93711 0.27368 0.0
C432 C 0.81489 0.5113 1.01869 0.0
C433 C 0.86343 0.56348 1.01168 0.0
H434 H 0.78456 0.44063 0.06123 0.0
C435 C 0.90096 0.59428 0.04417 0.0
H436 H 0.78473 0.48766 0.9939 0.0
C437 C 0.9008 0.5679 0.08229 0.0
C438 C 0.8637 0.51034 0.08795 0.0
H439 H 0.93732 0.63556 0.03923 0.0
H440 H 0.93878 0.58819 0.10575 0.0
C441 C 0.81419 0.485 0.05721 0.0
C442 C 0.66479 0.48616 0.57239 0.0
C443 C 0.70306 0.54345 0.57728 0.0
H444 H 0.6238 0.41857 0.53021 0.0
C445 C 0.74965 0.56863 0.54554 0.0
H446 H 0.62894 0.46607 0.59661 0.0
C447 C 0.74541 0.54212 0.50714 0.0
C448 C 0.69603 0.49004 0.50115 0.0
H449 H 0.77991 0.6129 0.54894 0.0
H450 H 0.77356 0.5655 0.48177 0.0
C451 C 0.66096 0.45967 0.53436 0.0
C452 C 0.31773 1.01744 1.00994 0.0
C453 C 0.3686 0.06898 1.00523 0.0
H454 H 0.27881 0.94658 0.05063 0.0
C455 C 0.4015 0.09873 0.03929 0.0
H456 H 0.29103 0.99467 0.98389 0.0
C457 C 0.39425 0.0719 0.07711 0.0
C458 C 0.35482 1.01484 0.08091 0.0
H459 H 0.43951 0.13957 0.0361 0.0
H460 H 0.42868 0.09134 0.10214 0.0
C461 C 0.31006 0.99059 0.04811 0.0
C462 C 0.252 0.98351 0.51805 0.0
C463 C 0.20766 1.00892 0.48558 0.0
H464 H 0.27251 0.98668 0.58217 0.0
C465 C 0.17166 0.06694 0.48963 0.0
H466 H 0.2807 0.93876 0.51528 0.0
C467 C 0.16694 0.09384 0.5275 0.0
C468 C 0.19883 0.06307 0.56135 0.0
H469 H 0.13759 0.08724 0.46483 0.0
H470 H 0.13112 0.13549 0.53098 0.0
C471 C 0.24669 1.01034 0.55629 0.0
loop_
_geom_bond_atom_site_label_1
_geom_bond_atom_site_label_2
_geom_bond_distance
_geom_bond_site_symmetry_2
_ccdc_geom_bond_type
Co0 O3 1.970 1_455 S
Co0 N17 1.989 . S
Co0 O25 1.967 . S
Co0 O32 1.920 . S
Co1 O4 1.966 1_455 S
Co1 N10 2.022 . S
Co1 N18 1.993 . S
Co1 O26 1.941 . S
C2 O3 1.258 . S
C2 O4 1.263 . S
O3 Co0 1.970 1_655 S
O3 C2 1.258 . S
O4 Co1 1.966 1_655 S
O4 C2 1.263 . S
C5 O6 1.235 . S
C5 O32 1.289 1_655 S
O6 C5 1.235 . S
C7 C9 1.400 1_655 S
C7 N10 1.351 1_655 S
C7 C12 1.501 . S
C8 C9 1.387 . S
C8 N11 1.341 . S
C9 C7 1.400 1_455 S
C9 C8 1.387 . S
N10 Co1 2.022 . S
N10 C7 1.351 1_455 S
N10 N11 1.365 . S
N11 C8 1.341 . S
N11 N10 1.365 . S
N11 H31 0.862 . S
C12 C7 1.501 . S
C12 H13 0.961 . S
C12 H14 0.961 . S
C12 H15 0.960 . S
H13 C12 0.961 . S
H14 C12 0.961 . S
H15 C12 0.960 . S
C16 N17 1.342 . S
C16 C20 1.401 . S
C16 C21 1.499 . S
N17 Co0 1.989 . S
N17 C16 1.342 . S
N17 N18 1.388 . S
N18 Co1 1.993 . S
N18 N17 1.388 . S
N18 C19 1.346 . S
C19 N18 1.346 . S
C19 C20 1.396 . S
C19 C29 1.510 . S
C20 C16 1.401 . S
C20 C19 1.396 . S
C21 C16 1.499 . S
C21 H22 0.959 . S
C21 H23 0.960 . S
C21 H24 0.961 . S
H22 C21 0.959 . S
H23 C21 0.960 . S
H24 C21 0.961 . S
O25 Co0 1.967 . S
O25 C33 1.258 . S
O26 Co1 1.941 . S
O26 C33 1.266 . S
H27 C29 0.959 . S
H28 C29 0.961 1_655 S
C29 C19 1.510 . S
C29 H27 0.959 . S
C29 H28 0.961 1_455 S
C29 H30 0.960 . S
H30 C29 0.960 . S
H31 N11 0.862 . S
O32 Co0 1.920 . S
O32 C5 1.289 1_455 S
C33 O25 1.258 . S
C33 O26 1.266 . S
Co34 O37 1.970 . S
Co34 N51 1.989 . S
Co34 O59 1.967 . S
Co34 O66 1.920 . S
Co35 O38 1.966 . S
Co35 N44 2.022 . S
Co35 N52 1.993 . S
Co35 O60 1.941 . S
C36 O37 1.258 . S
C36 O38 1.263 . S
O37 Co34 1.970 . S
O37 C36 1.258 . S
O38 Co35 1.966 . S
O38 C36 1.263 . S
C39 O40 1.235 . S
C39 O66 1.289 . S
O40 C39 1.235 . S
C41 C43 1.400 . S
C41 N44 1.351 . S
C41 C46 1.501 . S
C42 C43 1.387 . S
C42 N45 1.341 . S
C43 C41 1.400 . S
C43 C42 1.387 . S
N44 Co35 2.022 . S
N44 C41 1.351 . S
N44 N45 1.365 . S
N45 C42 1.341 . S
N45 N44 1.365 . S
N45 H65 0.862 . S
C46 C41 1.501 . S
C46 H47 0.961 . S
C46 H48 0.961 . S
C46 H49 0.960 . S
H47 C46 0.961 . S
H48 C46 0.961 . S
H49 C46 0.960 . S
C50 N51 1.342 . S
C50 C54 1.401 . S
C50 C55 1.499 . S
N51 Co34 1.989 . S
N51 C50 1.342 . S
N51 N52 1.388 . S
N52 Co35 1.993 . S
N52 N51 1.388 . S
N52 C53 1.346 . S
C53 N52 1.346 . S
C53 C54 1.396 . S
C53 C63 1.510 . S
C54 C50 1.401 . S
C54 C53 1.396 . S
C55 C50 1.499 . S
C55 H56 0.959 . S
C55 H57 0.960 . S
C55 H58 0.961 . S
H56 C55 0.959 . S
H57 C55 0.960 . S
H58 C55 0.961 . S
O59 Co34 1.967 . S
O59 C67 1.258 . S
O60 Co35 1.941 . S
O60 C67 1.266 . S
H61 C63 0.959 . S
H62 C63 0.961 . S
C63 C53 1.510 . S
C63 H61 0.959 . S
C63 H62 0.961 . S
C63 H64 0.960 . S
H64 C63 0.960 . S
H65 N45 0.862 . S
O66 Co34 1.920 . S
O66 C39 1.289 . S
C67 O59 1.258 . S
C67 O60 1.266 . S
Co68 O71 1.970 1_455 S
Co68 N85 1.989 . S
Co68 O93 1.967 . S
Co68 O100 1.920 . S
Co69 O72 1.966 1_455 S
Co69 N78 2.022 . S
Co69 N86 1.993 . S
Co69 O94 1.941 . S
C70 O71 1.258 . S
C70 O72 1.263 . S
O71 Co68 1.970 1_655 S
O71 C70 1.258 . S
O72 Co69 1.966 1_655 S
O72 C70 1.263 . S
C73 O74 1.235 . S
C73 O100 1.289 1_655 S
O74 C73 1.235 . S
C75 C77 1.400 1_655 S
C75 N78 1.351 1_655 S
C75 C80 1.501 . S
C76 C77 1.387 . S
C76 N79 1.341 . S
C77 C75 1.400 1_455 S
C77 C76 1.387 . S
N78 Co69 2.022 . S
N78 C75 1.351 1_455 S
N78 N79 1.365 . S
N79 C76 1.341 . S
N79 N78 1.365 . S
N79 H99 0.862 . S
C80 C75 1.501 . S
C80 H81 0.961 . S
C80 H82 0.961 . S
C80 H83 0.960 . S
H81 C80 0.961 . S
H82 C80 0.961 . S
H83 C80 0.960 . S
C84 N85 1.342 . S
C84 C88 1.401 . S
C84 C89 1.499 . S
N85 Co68 1.989 . S
N85 C84 1.342 . S
N85 N86 1.388 . S
N86 Co69 1.993 . S
N86 N85 1.388 . S
N86 C87 1.346 . S
C87 N86 1.346 . S
C87 C88 1.396 . S
C87 C97 1.510 . S
C88 C84 1.401 . S
C88 C87 1.396 . S
C89 C84 1.499 . S
C89 H90 0.959 . S
C89 H91 0.960 . S
C89 H92 0.961 . S
H90 C89 0.959 . S
H91 C89 0.960 . S
H92 C89 0.961 . S
O93 Co68 1.967 . S
O93 C101 1.258 . S
O94 Co69 1.941 . S
O94 C101 1.266 . S
H95 C97 0.959 . S
H96 C97 0.961 1_655 S
C97 C87 1.510 . S
C97 H95 0.959 . S
C97 H96 0.961 1_455 S
C97 H98 0.960 . S
H98 C97 0.960 . S
H99 N79 0.862 . S
O100 Co68 1.920 . S
O100 C73 1.289 1_455 S
C101 O93 1.258 . S
C101 O94 1.266 . S
Co102 O105 1.970 . S
Co102 N119 1.989 . S
Co102 O127 1.967 . S
Co102 O134 1.920 . S
Co103 O106 1.966 . S
Co103 N112 2.022 . S
Co103 N120 1.993 . S
Co103 O128 1.941 . S
C104 O105 1.258 . S
C104 O106 1.263 . S
O105 Co102 1.970 . S
O105 C104 1.258 . S
O106 Co103 1.966 . S
O106 C104 1.263 . S
C107 O108 1.235 . S
C107 O134 1.289 . S
O108 C107 1.235 . S
C109 C111 1.400 . S
C109 N112 1.351 . S
C109 C114 1.501 . S
C110 C111 1.387 . S
C110 N113 1.341 . S
C111 C109 1.400 . S
C111 C110 1.387 . S
N112 Co103 2.022 . S
N112 C109 1.351 . S
N112 N113 1.365 . S
N113 C110 1.341 . S
N113 N112 1.365 . S
N113 H133 0.862 . S
C114 C109 1.501 . S
C114 H115 0.961 . S
C114 H116 0.961 . S
C114 H117 0.960 . S
H115 C114 0.961 . S
H116 C114 0.961 . S
H117 C114 0.960 . S
C118 N119 1.342 . S
C118 C122 1.401 . S
C118 C123 1.499 . S
N119 Co102 1.989 . S
N119 C118 1.342 . S
N119 N120 1.388 . S
N120 Co103 1.993 . S
N120 N119 1.388 . S
N120 C121 1.346 . S
C121 N120 1.346 . S
C121 C122 1.396 . S
C121 C131 1.510 . S
C122 C118 1.401 . S
C122 C121 1.396 . S
C123 C118 1.499 . S
C123 H124 0.959 . S
C123 H125 0.960 . S
C123 H126 0.961 . S
H124 C123 0.959 . S
H125 C123 0.960 . S
H126 C123 0.961 . S
O127 Co102 1.967 . S
O127 C135 1.258 . S
O128 Co103 1.941 . S
O128 C135 1.266 . S
H129 C131 0.959 . S
H130 C131 0.961 . S
C131 C121 1.510 . S
C131 H129 0.959 . S
C131 H130 0.961 . S
C131 H132 0.960 . S
H132 C131 0.960 . S
H133 N113 0.862 . S
O134 Co102 1.920 . S
O134 C107 1.289 . S
C135 O127 1.258 . S
C135 O128 1.266 . S
Co136 O139 1.970 . S
Co136 N153 1.989 . S
Co136 O161 1.967 . S
Co136 O168 1.920 . S
Co137 O140 1.966 . S
Co137 N146 2.022 . S
Co137 N154 1.993 . S
Co137 O162 1.941 . S
C138 O139 1.258 . S
C138 O140 1.263 . S
O139 Co136 1.970 . S
O139 C138 1.258 . S
O140 Co137 1.966 . S
O140 C138 1.263 . S
C141 O142 1.235 . S
C141 O168 1.289 . S
O142 C141 1.235 . S
C143 C145 1.400 . S
C143 N146 1.351 . S
C143 C148 1.501 . S
C144 C145 1.387 . S
C144 N147 1.341 . S
C145 C143 1.400 . S
C145 C144 1.387 . S
N146 Co137 2.022 . S
N146 C143 1.351 . S
N146 N147 1.365 . S
N147 C144 1.341 . S
N147 N146 1.365 . S
N147 H167 0.862 . S
C148 C143 1.501 . S
C148 H149 0.961 . S
C148 H150 0.961 . S
C148 H151 0.960 . S
H149 C148 0.961 . S
H150 C148 0.961 . S
H151 C148 0.960 . S
C152 N153 1.342 . S
C152 C156 1.401 . S
C152 C157 1.499 . S
N153 Co136 1.989 . S
N153 C152 1.342 . S
N153 N154 1.388 . S
N154 Co137 1.993 . S
N154 N153 1.388 . S
N154 C155 1.346 . S
C155 N154 1.346 . S
C155 C156 1.396 . S
C155 C165 1.510 . S
C156 C152 1.401 . S
C156 C155 1.396 . S
C157 C152 1.499 . S
C157 H158 0.959 . S
C157 H159 0.960 . S
C157 H160 0.961 . S
H158 C157 0.959 . S
H159 C157 0.960 . S
H160 C157 0.961 . S
O161 Co136 1.967 . S
O161 C169 1.258 . S
O162 Co137 1.941 . S
O162 C169 1.266 . S
H163 C165 0.959 . S
H164 C165 0.961 . S
C165 C155 1.510 . S
C165 H163 0.959 . S
C165 H164 0.961 . S
C165 H166 0.960 . S
H166 C165 0.960 . S
H167 N147 0.862 . S
O168 Co136 1.920 . S
O168 C141 1.289 . S
C169 O161 1.258 . S
C169 O162 1.266 . S
Co170 O173 1.970 . S
Co170 N187 1.989 . S
Co170 O195 1.967 1_455 S
Co170 O202 1.920 . S
Co171 O174 1.966 . S
Co171 N180 2.022 . S
Co171 N188 1.993 . S
Co171 O196 1.941 1_455 S
C172 O173 1.258 . S
C172 O174 1.263 . S
O173 Co170 1.970 . S
O173 C172 1.258 . S
O174 Co171 1.966 . S
O174 C172 1.263 . S
C175 O176 1.235 . S
C175 O202 1.289 . S
O176 C175 1.235 . S
C177 C179 1.400 . S
C177 N180 1.351 . S
C177 C182 1.501 . S
C178 C179 1.387 1_655 S
C178 N181 1.341 . S
C179 C177 1.400 . S
C179 C178 1.387 1_455 S
N180 Co171 2.022 . S
N180 C177 1.351 . S
N180 N181 1.365 1_455 S
N181 C178 1.341 . S
N181 N180 1.365 1_655 S
N181 H201 0.862 . S
C182 C177 1.501 . S
C182 H183 0.961 . S
C182 H184 0.961 . S
C182 H185 0.960 . S
H183 C182 0.961 . S
H184 C182 0.961 . S
H185 C182 0.960 . S
C186 N187 1.342 . S
C186 C190 1.401 . S
C186 C191 1.499 . S
N187 Co170 1.989 . S
N187 C186 1.342 . S
N187 N188 1.388 . S
N188 Co171 1.993 . S
N188 N187 1.388 . S
N188 C189 1.346 . S
C189 N188 1.346 . S
C189 C190 1.396 . S
C189 C199 1.510 . S
C190 C186 1.401 . S
C190 C189 1.396 . S
C191 C186 1.499 . S
C191 H192 0.959 . S
C191 H193 0.960 . S
C191 H194 0.961 1_455 S
H192 C191 0.959 . S
H193 C191 0.960 . S
H194 C191 0.961 1_655 S
O195 Co170 1.967 1_655 S
O195 C203 1.258 . S
O196 Co171 1.941 1_655 S
O196 C203 1.266 . S
H197 C199 0.959 1_655 S
H198 C199 0.961 . S
C199 C189 1.510 . S
C199 H197 0.959 1_455 S
C199 H198 0.961 . S
C199 H200 0.960 . S
H200 C199 0.960 . S
H201 N181 0.862 . S
O202 Co170 1.920 . S
O202 C175 1.289 . S
C203 O195 1.258 . S
C203 O196 1.266 . S
Co204 O207 1.970 . S
Co204 N221 1.989 . S
Co204 O229 1.967 . S
Co204 O236 1.920 . S
Co205 O208 1.966 . S
Co205 N214 2.022 . S
Co205 N222 1.993 . S
Co205 O230 1.941 . S
C206 O207 1.258 . S
C206 O208 1.263 . S
O207 Co204 1.970 . S
O207 C206 1.258 . S
O208 Co205 1.966 . S
O208 C206 1.263 . S
C209 O210 1.235 . S
C209 O236 1.289 . S
O210 C209 1.235 . S
C211 C213 1.400 . S
C211 N214 1.351 . S
C211 C216 1.501 . S
C212 C213 1.387 . S
C212 N215 1.341 . S
C213 C211 1.400 . S
C213 C212 1.387 . S
N214 Co205 2.022 . S
N214 C211 1.351 . S
N214 N215 1.365 . S
N215 C212 1.341 . S
N215 N214 1.365 . S
N215 H235 0.862 . S
C216 C211 1.501 . S
C216 H217 0.961 . S
C216 H218 0.961 . S
C216 H219 0.960 . S
H217 C216 0.961 . S
H218 C216 0.961 . S
H219 C216 0.960 . S
C220 N221 1.342 . S
C220 C224 1.401 . S
C220 C225 1.499 . S
N221 Co204 1.989 . S
N221 C220 1.342 . S
N221 N222 1.388 . S
N222 Co205 1.993 . S
N222 N221 1.388 . S
N222 C223 1.346 . S
C223 N222 1.346 . S
C223 C224 1.396 . S
C223 C233 1.510 . S
C224 C220 1.401 . S
C224 C223 1.396 . S
C225 C220 1.499 . S
C225 H226 0.959 . S
C225 H227 0.960 . S
C225 H228 0.961 . S
H226 C225 0.959 . S
H227 C225 0.960 . S
H228 C225 0.961 . S
O229 Co204 1.967 . S
O229 C237 1.258 . S
O230 Co205 1.941 . S
O230 C237 1.266 . S
H231 C233 0.959 . S
H232 C233 0.961 . S
C233 C223 1.510 . S
C233 H231 0.959 . S
C233 H232 0.961 . S
C233 H234 0.960 . S
H234 C233 0.960 . S
H235 N215 0.862 . S
O236 Co204 1.920 . S
O236 C209 1.289 . S
C237 O229 1.258 . S
C237 O230 1.266 . S
Co238 O241 1.970 . S
Co238 N255 1.989 . S
Co238 O263 1.967 1_455 S
Co238 O270 1.920 . S
Co239 O242 1.966 . S
Co239 N248 2.022 . S
Co239 N256 1.993 . S
Co239 O264 1.941 1_455 S
C240 O241 1.258 . S
C240 O242 1.263 . S
O241 Co238 1.970 . S
O241 C240 1.258 . S
O242 Co239 1.966 . S
O242 C240 1.263 . S
C243 O244 1.235 . S
C243 O270 1.289 . S
O244 C243 1.235 . S
C245 C247 1.400 . S
C245 N248 1.351 . S
C245 C250 1.501 . S
C246 C247 1.387 1_655 S
C246 N249 1.341 . S
C247 C245 1.400 . S
C247 C246 1.387 1_455 S
N248 Co239 2.022 . S
N248 C245 1.351 . S
N248 N249 1.365 1_455 S
N249 C246 1.341 . S
N249 N248 1.365 1_655 S
N249 H269 0.862 . S
C250 C245 1.501 . S
C250 H251 0.961 . S
C250 H252 0.961 . S
C250 H253 0.960 . S
H251 C250 0.961 . S
H252 C250 0.961 . S
H253 C250 0.960 . S
C254 N255 1.342 . S
C254 C258 1.401 . S
C254 C259 1.499 . S
N255 Co238 1.989 . S
N255 C254 1.342 . S
N255 N256 1.388 . S
N256 Co239 1.993 . S
N256 N255 1.388 . S
N256 C257 1.346 . S
C257 N256 1.346 . S
C257 C258 1.396 . S
C257 C267 1.510 . S
C258 C254 1.401 . S
C258 C257 1.396 . S
C259 C254 1.499 . S
C259 H260 0.959 . S
C259 H261 0.960 . S
C259 H262 0.961 1_455 S
H260 C259 0.959 . S
H261 C259 0.960 . S
H262 C259 0.961 1_655 S
O263 Co238 1.967 1_655 S
O263 C271 1.258 . S
O264 Co239 1.941 1_655 S
O264 C271 1.266 . S
H265 C267 0.959 1_655 S
H266 C267 0.961 . S
C267 C257 1.510 . S
C267 H265 0.959 1_455 S
C267 H266 0.961 . S
C267 H268 0.960 . S
H268 C267 0.960 . S
H269 N249 0.862 . S
O270 Co238 1.920 . S
O270 C243 1.289 . S
C271 O263 1.258 . S
C271 O264 1.266 . S
C272 C273 1.387 . S
C272 H276 0.950 . S
C272 C281 1.390 1_556 S
C273 C272 1.387 . S
C273 C275 1.387 . S
H274 C281 0.950 . S
C275 C273 1.387 . S
C275 C277 1.390 1_556 S
C275 H279 0.950 . S
H276 C272 0.950 . S
C277 C275 1.390 1_554 S
C277 C278 1.387 . S
C277 H280 0.950 . S
C278 C277 1.387 . S
C278 C281 1.387 . S
H279 C275 0.950 . S
H280 C277 0.950 . S
C281 C272 1.390 1_554 S
C281 H274 0.950 . S
C281 C278 1.387 . S
C282 C283 1.387 . S
C282 H286 0.950 . S
C282 C291 1.390 . S
C283 C282 1.387 . S
C283 C285 1.387 . S
H284 C291 0.950 . S
C285 C283 1.387 . S
C285 C287 1.390 . S
C285 H289 0.950 . S
H286 C282 0.950 . S
C287 C285 1.390 . S
C287 C288 1.387 . S
C287 H290 0.950 . S
C288 C287 1.387 . S
C288 C291 1.387 . S
H289 C285 0.950 . S
H290 C287 0.950 . S
C291 C282 1.390 . S
C291 H284 0.950 . S
C291 C288 1.387 . S
C292 C293 1.387 . S
C292 H296 0.950 . S
C292 C301 1.390 1_554 S
C293 C292 1.387 . S
C293 C295 1.387 . S
H294 C301 0.950 . S
C295 C293 1.387 . S
C295 C297 1.390 1_554 S
C295 H299 0.950 . S
H296 C292 0.950 . S
C297 C295 1.390 1_556 S
C297 C298 1.387 . S
C297 H300 0.950 . S
C298 C297 1.387 . S
C298 C301 1.387 . S
H299 C295 0.950 . S
H300 C297 0.950 . S
C301 C292 1.390 1_556 S
C301 H294 0.950 . S
C301 C298 1.387 . S
C302 C303 1.387 . S
C302 H306 0.950 . S
C302 C311 1.390 . S
C303 C302 1.387 . S
C303 C305 1.387 . S
H304 C311 0.950 . S
C305 C303 1.387 . S
C305 C307 1.390 . S
C305 H309 0.950 . S
H306 C302 0.950 . S
C307 C305 1.390 . S
C307 C308 1.387 . S
C307 H310 0.950 . S
C308 C307 1.387 . S
C308 C311 1.387 . S
H309 C305 0.950 . S
H310 C307 0.950 . S
C311 C302 1.390 . S
C311 H304 0.950 . S
C311 C308 1.387 . S
C312 C313 1.387 . S
C312 H316 0.950 . S
C312 C321 1.390 1_554 S
C313 C312 1.387 . S
C313 C315 1.387 . S
H314 C321 0.950 . S
C315 C313 1.387 . S
C315 C317 1.390 1_554 S
C315 H319 0.950 . S
H316 C312 0.950 . S
C317 C315 1.390 1_556 S
C317 C318 1.387 . S
C317 H320 0.950 . S
C318 C317 1.387 . S
C318 C321 1.387 . S
H319 C315 0.950 . S
H320 C317 0.950 . S
C321 C312 1.390 1_556 S
C321 H314 0.950 . S
C321 C318 1.387 . S
C322 C323 1.387 . S
C322 H326 0.950 . S
C322 C331 1.390 . S
C323 C322 1.387 . S
C323 C325 1.387 . S
H324 C331 0.950 . S
C325 C323 1.387 . S
C325 C327 1.390 . S
C325 H329 0.950 . S
H326 C322 0.950 . S
C327 C325 1.390 . S
C327 C328 1.387 . S
C327 H330 0.950 . S
C328 C327 1.387 . S
C328 C331 1.387 . S
H329 C325 0.950 . S
H330 C327 0.950 . S
C331 C322 1.390 . S
C331 H324 0.950 . S
C331 C328 1.387 . S
C332 C333 1.387 . S
C332 H336 0.950 . S
C332 C341 1.390 1_554 S
C333 C332 1.387 . S
C333 C335 1.387 . S
H334 C341 0.950 . S
C335 C333 1.387 . S
C335 C337 1.390 1_554 S
C335 H339 0.950 . S
H336 C332 0.950 . S
C337 C335 1.390 1_556 S
C337 C338 1.387 . S
C337 H340 0.950 . S
C338 C337 1.387 . S
C338 C341 1.387 . S
H339 C335 0.950 . S
H340 C337 0.950 . S
C341 C332 1.390 1_556 S
C341 H334 0.950 . S
C341 C338 1.387 . S
C342 C343 1.387 . S
C342 H346 0.950 . S
C342 C351 1.390 . S
C343 C342 1.387 . S
C343 C345 1.387 . S
H344 C351 0.950 . S
C345 C343 1.387 . S
C345 C347 1.390 . S
C345 H349 0.950 . S
H346 C342 0.950 . S
C347 C345 1.390 . S
C347 C348 1.387 . S
C347 H350 0.950 . S
C348 C347 1.387 . S
C348 C351 1.387 . S
H349 C345 0.950 . S
H350 C347 0.950 . S
C351 C342 1.390 . S
C351 H344 0.950 . S
C351 C348 1.387 . S
C352 C353 1.387 . S
C352 H356 0.950 . S
C352 C361 1.390 . S
C353 C352 1.387 . S
C353 C355 1.387 . S
H354 C361 0.950 . S
C355 C353 1.387 . S
C355 C357 1.390 . S
C355 H359 0.950 1_455 S
H356 C352 0.950 . S
C357 C355 1.390 . S
C357 C358 1.387 . S
C357 H360 0.950 1_455 S
C358 C357 1.387 . S
C358 C361 1.387 . S
H359 C355 0.950 1_655 S
H360 C357 0.950 1_655 S
C361 C352 1.390 . S
C361 H354 0.950 . S
C361 C358 1.387 . S
C362 C363 1.387 . S
C362 H366 0.950 . S
C362 C371 1.390 . S
C363 C362 1.387 . S
C363 C365 1.387 . S
H364 C371 0.950 . S
C365 C363 1.387 . S
C365 C367 1.390 . S
C365 H369 0.950 . S
H366 C362 0.950 . S
C367 C365 1.390 . S
C367 C368 1.387 . S
C367 H370 0.950 . S
C368 C367 1.387 . S
C368 C371 1.387 . S
H369 C365 0.950 . S
H370 C367 0.950 . S
C371 C362 1.390 . S
C371 H364 0.950 . S
C371 C368 1.387 . S
C372 C373 1.387 . S
C372 H376 0.950 . S
C372 C381 1.390 . S
C373 C372 1.387 . S
C373 C375 1.387 . S
H374 C381 0.950 . S
C375 C373 1.387 . S
C375 C377 1.390 . S
C375 H379 0.950 1_455 S
H376 C372 0.950 . S
C377 C375 1.390 . S
C377 C378 1.387 . S
C377 H380 0.950 1_455 S
C378 C377 1.387 . S
C378 C381 1.387 . S
H379 C375 0.950 1_655 S
H380 C377 0.950 1_655 S
C381 C372 1.390 . S
C381 H374 0.950 . S
C381 C378 1.387 . S
C382 C383 1.387 . S
C382 H386 0.950 . S
C382 C391 1.390 . S
C383 C382 1.387 . S
C383 C385 1.387 . S
H384 C391 0.950 . S
C385 C383 1.387 . S
C385 C387 1.390 . S
C385 H389 0.950 . S
H386 C382 0.950 . S
C387 C385 1.390 . S
C387 C388 1.387 . S
C387 H390 0.950 . S
C388 C387 1.387 . S
C388 C391 1.387 . S
H389 C385 0.950 . S
H390 C387 0.950 . S
C391 C382 1.390 . S
C391 H384 0.950 . S
C391 C388 1.387 . S
C392 C393 1.387 . S
C392 H396 0.950 . S
C392 C401 1.390 1_565 S
C393 C392 1.387 . S
C393 C395 1.387 . S
H394 C401 0.950 . S
C395 C393 1.387 . S
C395 C397 1.390 1_565 S
C395 H399 0.950 . S
H396 C392 0.950 . S
C397 C395 1.390 1_545 S
C397 C398 1.387 . S
C397 H400 0.950 . S
C398 C397 1.387 . S
C398 C401 1.387 . S
H399 C395 0.950 . S
H400 C397 0.950 . S
C401 C392 1.390 1_545 S
C401 H394 0.950 . S
C401 C398 1.387 . S
C402 C403 1.387 1_455 S
C402 H406 0.950 . S
C402 C411 1.390 1_565 S
C403 C402 1.387 1_655 S
C403 C405 1.387 . S
H404 C411 0.950 . S
C405 C403 1.387 . S
C405 C407 1.390 1_565 S
C405 H409 0.950 . S
H406 C402 0.950 . S
C407 C405 1.390 1_545 S
C407 C408 1.387 . S
C407 H410 0.950 . S
C408 C407 1.387 . S
C408 C411 1.387 1_655 S
H409 C405 0.950 . S
H410 C407 0.950 . S
C411 C402 1.390 1_545 S
C411 H404 0.950 . S
C411 C408 1.387 1_455 S
C412 C413 1.387 . S
C412 H416 0.950 . S
C412 C421 1.390 1_565 S
C413 C412 1.387 . S
C413 C415 1.387 . S
H414 C421 0.950 . S
C415 C413 1.387 . S
C415 C417 1.390 1_565 S
C415 H419 0.950 . S
H416 C412 0.950 . S
C417 C415 1.390 1_545 S
C417 C418 1.387 . S
C417 H420 0.950 . S
C418 C417 1.387 . S
C418 C421 1.387 . S
H419 C415 0.950 . S
H420 C417 0.950 . S
C421 C412 1.390 1_545 S
C421 H414 0.950 . S
C421 C418 1.387 . S
C422 C423 1.387 1_455 S
C422 H426 0.950 . S
C422 C431 1.390 1_545 S
C423 C422 1.387 1_655 S
C423 C425 1.387 . S
H424 C431 0.950 . S
C425 C423 1.387 . S
C425 C427 1.390 1_545 S
C425 H429 0.950 . S
H426 C422 0.950 . S
C427 C425 1.390 1_565 S
C427 C428 1.387 . S
C427 H430 0.950 . S
C428 C427 1.387 . S
C428 C431 1.387 1_655 S
H429 C425 0.950 . S
H430 C427 0.950 . S
C431 C422 1.390 1_565 S
C431 H424 0.950 . S
C431 C428 1.387 1_455 S
C432 C433 1.387 . S
C432 H436 0.950 . S
C432 C441 1.390 1_556 S
C433 C432 1.387 . S
C433 C435 1.387 1_655 S
H434 C441 0.950 . S
C435 C433 1.387 1_455 S
C435 C437 1.390 1_556 S
C435 H439 0.950 . S
H436 C432 0.950 . S
C437 C435 1.390 1_554 S
C437 C438 1.387 1_455 S
C437 H440 0.950 . S
C438 C437 1.387 1_655 S
C438 C441 1.387 . S
H439 C435 0.950 . S
H440 C437 0.950 . S
C441 C432 1.390 1_554 S
C441 H434 0.950 . S
C441 C438 1.387 . S
C442 C443 1.387 . S
C442 H446 0.950 . S
C442 C451 1.390 . S
C443 C442 1.387 . S
C443 C445 1.387 . S
H444 C451 0.950 . S
C445 C443 1.387 . S
C445 C447 1.390 . S
C445 H449 0.950 . S
H446 C442 0.950 . S
C447 C445 1.390 . S
C447 C448 1.387 . S
C447 H450 0.950 . S
C448 C447 1.387 . S
C448 C451 1.387 . S
H449 C445 0.950 . S
H450 C447 0.950 . S
C451 C442 1.390 . S
C451 H444 0.950 . S
C451 C448 1.387 . S
C452 C453 1.387 . S
C452 H456 0.950 . S
C452 C461 1.390 1_546 S
C453 C452 1.387 . S
C453 C455 1.387 . S
H454 C461 0.950 . S
C455 C453 1.387 . S
C455 C457 1.390 1_546 S
C455 H459 0.950 . S
H456 C452 0.950 . S
C457 C455 1.390 1_564 S
C457 C458 1.387 . S
C457 H460 0.950 . S
C458 C457 1.387 . S
C458 C461 1.387 . S
H459 C455 0.950 . S
H460 C457 0.950 . S
C461 C452 1.390 1_564 S
C461 H454 0.950 . S
C461 C458 1.387 . S
C462 C463 1.387 . S
C462 H466 0.950 . S
C462 C471 1.390 1_565 S
C463 C462 1.387 . S
C463 C465 1.387 . S
H464 C471 0.950 . S
C465 C463 1.387 . S
C465 C467 1.390 1_565 S
C465 H469 0.950 1_455 S
H466 C462 0.950 . S
C467 C465 1.390 1_545 S
C467 C468 1.387 . S
C467 H470 0.950 1_455 S
C468 C467 1.387 . S
C468 C471 1.387 . S
H469 C465 0.950 1_655 S
H470 C467 0.950 1_655 S
C471 C462 1.390 1_545 S
C471 H464 0.950 . S
C471 C468 1.387 . S
C273 C206 1.630 . S
C278 C33 1.683 . S
C283 C67 1.683 . S
C288 C240 1.630 . S
C293 C138 1.631 . S
C298 C101 1.684 . S
C303 C135 1.683 . S
C308 C172 1.630 . S
C313 C169 1.685 . S
C318 C70 1.631 . S
C323 C203 1.683 . S
C328 C104 1.630 . S
C333 C2 1.631 . S
C338 C237 1.685 . S
C343 C36 1.630 . S
C348 C271 1.683 . S
C353 C20 1.885 . S
C358 C247 1.781 . S
C363 C54 1.885 . S
C368 C213 1.782 . S
C373 C179 1.781 . S
C378 C88 1.885 . S
C383 C122 1.883 . S
C388 C145 1.781 . S
C393 C156 1.884 . S
C398 C111 1.780 . S
C403 C77 1.781 1_655 S
C408 C190 1.883 1_655 S
C413 C43 1.781 . S
C418 C224 1.883 . S
C423 C9 1.781 1_655 S
C428 C258 1.883 1_655 S
C433 C73 0.365 . S
C438 C5 0.365 . S
C443 C39 0.373 . S
C448 C107 0.373 . S
C453 C209 0.365 . S
C458 C141 0.365 . S
C463 C243 0.365 . S
C468 C175 0.365 . S
