# Generated by pormake.
# Topology why, (6)-cn, num edge types: 1
# Building blocks:
#     Node 0, Type 0, BuildingBlock: FUNLAD_clean_sbu_0, # of connection points: 6
#     Node 1, Type 0, BuildingBlock: FUNLAD_clean_sbu_0, # of connection points: 6
#     Node 2, Type 0, BuildingBlock: FUNLAD_clean_sbu_0, # of connection points: 6
#     Node 3, Type 0, BuildingBlock: FUNLAD_clean_sbu_0, # of connection points: 6
#     Node 4, Type 0, BuildingBlock: FUNLAD_clean_sbu_0, # of connection points: 6
#     Node 5, Type 0, BuildingBlock: FUNLAD_clean_sbu_0, # of connection points: 6
#     Node 6, Type 0, BuildingBlock: FUNLAD_clean_sbu_0, # of connection points: 6
#     Node 7, Type 0, BuildingBlock: FUNLAD_clean_sbu_0, # of connection points: 6
#     Node 8, Type 0, BuildingBlock: FUNLAD_clean_sbu_0, # of connection points: 6
#     Node 9, Type 0, BuildingBlock: FUNLAD_clean_sbu_0, # of connection points: 6
#     Node 10, Type 0, BuildingBlock: FUNLAD_clean_sbu_0, # of connection points: 6
#     Node 11, Type 0, BuildingBlock: FUNLAD_clean_sbu_0, # of connection points: 6
#     Node 12, Type 0, BuildingBlock: FUNLAD_clean_sbu_0, # of connection points: 6
#     Node 13, Type 0, BuildingBlock: FUNLAD_clean_sbu_0, # of connection points: 6
#     Node 14, Type 0, BuildingBlock: FUNLAD_clean_sbu_0, # of connection points: 6
#     Node 15, Type 0, BuildingBlock: FUNLAD_clean_sbu_0, # of connection points: 6
#     Edge 16, Type (0, 0), BuildingBlock: AJUNOK_clean_linker_0, # of connection points: 2
#     Edge 17, Type (0, 0), BuildingBlock: AJUNOK_clean_linker_0, # of connection points: 2
#     Edge 18, Type (0, 0), BuildingBlock: AJUNOK_clean_linker_0, # of connection points: 2
#     Edge 19, Type (0, 0), BuildingBlock: AJUNOK_clean_linker_0, # of connection points: 2
#     Edge 20, Type (0, 0), BuildingBlock: AJUNOK_clean_linker_0, # of connection points: 2
#     Edge 21, Type (0, 0), BuildingBlock: AJUNOK_clean_linker_0, # of connection points: 2
#     Edge 22, Type (0, 0), BuildingBlock: AJUNOK_clean_linker_0, # of connection points: 2
#     Edge 23, Type (0, 0), BuildingBlock: AJUNOK_clean_linker_0, # of connection points: 2
#     Edge 24, Type (0, 0), BuildingBlock: AJUNOK_clean_linker_0, # of connection points: 2
#     Edge 25, Type (0, 0), BuildingBlock: AJUNOK_clean_linker_0, # of connection points: 2
#     Edge 26, Type (0, 0), BuildingBlock: AJUNOK_clean_linker_0, # of connection points: 2
#     Edge 27, Type (0, 0), BuildingBlock: AJUNOK_clean_linker_0, # of connection points: 2
#     Edge 28, Type (0, 0), BuildingBlock: AJUNOK_clean_linker_0, # of connection points: 2
#     Edge 29, Type (0, 0), BuildingBlock: AJUNOK_clean_linker_0, # of connection points: 2
#     Edge 30, Type (0, 0), BuildingBlock: AJUNOK_clean_linker_0, # of connection points: 2
#     Edge 31, Type (0, 0), BuildingBlock: AJUNOK_clean_linker_0, # of connection points: 2
#     Edge 32, Type (0, 0), BuildingBlock: AJUNOK_clean_linker_0, # of connection points: 2
#     Edge 33, Type (0, 0), BuildingBlock: AJUNOK_clean_linker_0, # of connection points: 2
#     Edge 34, Type (0, 0), BuildingBlock: AJUNOK_clean_linker_0, # of connection points: 2
#     Edge 35, Type (0, 0), BuildingBlock: AJUNOK_clean_linker_0, # of connection points: 2
#     Edge 36, Type (0, 0), BuildingBlock: AJUNOK_clean_linker_0, # of connection points: 2
#     Edge 37, Type (0, 0), BuildingBlock: AJUNOK_clean_linker_0, # of connection points: 2
#     Edge 38, Type (0, 0), BuildingBlock: AJUNOK_clean_linker_0, # of connection points: 2
#     Edge 39, Type (0, 0), BuildingBlock: AJUNOK_clean_linker_0, # of connection points: 2
#     Edge 40, Type (0, 0), BuildingBlock: AJUNOK_clean_linker_0, # of connection points: 2
#     Edge 41, Type (0, 0), BuildingBlock: AJUNOK_clean_linker_0, # of connection points: 2
#     Edge 42, Type (0, 0), BuildingBlock: AJUNOK_clean_linker_0, # of connection points: 2
#     Edge 43, Type (0, 0), BuildingBlock: AJUNOK_clean_linker_0, # of connection points: 2
#     Edge 44, Type (0, 0), BuildingBlock: AJUNOK_clean_linker_0, # of connection points: 2
#     Edge 45, Type (0, 0), BuildingBlock: AJUNOK_clean_linker_0, # of connection points: 2
#     Edge 46, Type (0, 0), BuildingBlock: AJUNOK_clean_linker_0, # of connection points: 2
#     Edge 47, Type (0, 0), BuildingBlock: AJUNOK_clean_linker_0, # of connection points: 2
#     Edge 48, Type (0, 0), BuildingBlock: AJUNOK_clean_linker_0, # of connection points: 2
#     Edge 49, Type (0, 0), BuildingBlock: AJUNOK_clean_linker_0, # of connection points: 2
#     Edge 50, Type (0, 0), BuildingBlock: AJUNOK_clean_linker_0, # of connection points: 2
#     Edge 51, Type (0, 0), BuildingBlock: AJUNOK_clean_linker_0, # of connection points: 2
#     Edge 52, Type (0, 0), BuildingBlock: AJUNOK_clean_linker_0, # of connection points: 2
#     Edge 53, Type (0, 0), BuildingBlock: AJUNOK_clean_linker_0, # of connection points: 2
#     Edge 54, Type (0, 0), BuildingBlock: AJUNOK_clean_linker_0, # of connection points: 2
#     Edge 55, Type (0, 0), BuildingBlock: AJUNOK_clean_linker_0, # of connection points: 2
#     Edge 56, Type (0, 0), BuildingBlock: AJUNOK_clean_linker_0, # of connection points: 2
#     Edge 57, Type (0, 0), BuildingBlock: AJUNOK_clean_linker_0, # of connection points: 2
#     Edge 58, Type (0, 0), BuildingBlock: AJUNOK_clean_linker_0, # of connection points: 2
#     Edge 59, Type (0, 0), BuildingBlock: AJUNOK_clean_linker_0, # of connection points: 2
#     Edge 60, Type (0, 0), BuildingBlock: AJUNOK_clean_linker_0, # of connection points: 2
#     Edge 61, Type (0, 0), BuildingBlock: AJUNOK_clean_linker_0, # of connection points: 2
#     Edge 62, Type (0, 0), BuildingBlock: AJUNOK_clean_linker_0, # of connection points: 2
#     Edge 63, Type (0, 0), BuildingBlock: AJUNOK_clean_linker_0, # of connection points: 2
# Relax obj value: 0.494
# Max RMSD: 0.190
# Mean RMSD: 0.190
data_MOF--net-why--node1-FUNLAD_clean_sbu_0--edge1-AJUNOK_clean_linker_0
_symmetry_space_group_name_H-M    P1
_symmetry_Int_Tables_number       1
_symmetry_cell_setting            triclinic
loop_
_symmetry_equiv_pos_as_xyz
'x, y, z'
_cell_length_a     38.258197
_cell_length_b     38.271763
_cell_length_c     24.114266
_cell_angle_alpha  89.975668
_cell_angle_beta   89.97892
_cell_angle_gamma 89.985201
loop_
_atom_site_label
_atom_site_type_symbol
_atom_site_fract_x
_atom_site_fract_y
_atom_site_fract_z
_atom_type_partial_charge
C0 C 0.32378 0.2476 0.19428 0.0
N1 N 0.37497 0.15019 0.18195 0.0
C2 C 0.38886 0.15283 0.23369 0.0
C3 C 0.39709 0.12276 0.26356 0.0
C4 C 0.39026 0.09002 0.24003 0.0
C5 C 0.37472 0.08801 0.18759 0.0
C6 C 0.36744 0.11865 0.15889 0.0
Zn7 Zn 0.36857 0.19351 0.13549 0.0
C8 C 0.30203 0.19221 0.0759 0.0
N9 N 0.35654 0.28482 0.03318 0.0
C10 C 0.3818 0.30993 0.03364 0.0
C11 C 0.33534 0.28114 0.98801 0.0
C12 C 0.34172 0.29997 0.93953 0.0
C13 C 0.37057 0.32244 0.93663 0.0
C14 C 0.38972 0.3286 0.9854 0.0
Zn15 Zn 0.36112 0.24249 0.08735 0.0
O16 O 0.33925 0.2183 0.20086 0.0
C17 C 0.43141 0.24057 0.14573 0.0
O18 O 0.3324 0.26673 0.15301 0.0
H19 H 0.31529 0.26144 0.98679 0.0
H20 H 0.39456 0.17826 0.25103 0.0
H21 H 0.39816 0.31354 0.06958 0.0
O22 O 0.41851 0.21198 0.16287 0.0
O23 O 0.41231 0.26047 0.1161 0.0
H24 H 0.35684 0.11718 0.11742 0.0
O25 O 0.38608 0.21663 0.02094 0.0
O26 O 0.39381 0.16842 0.06794 0.0
O27 O 0.31224 0.2223 0.06099 0.0
O28 O 0.32108 0.17404 0.10754 0.0
C29 C 0.39637 0.18517 0.02269 0.0
H30 H 0.40927 0.12496 0.30395 0.0
H31 H 0.36973 0.06301 0.16806 0.0
H32 H 0.3257 0.29501 0.90336 0.0
H33 H 0.41245 0.34541 0.98543 0.0
C34 C 0.51259 0.57283 0.44352 0.0
N35 N 0.60959 0.62418 0.43091 0.0
C36 C 0.60773 0.63665 0.48365 0.0
C37 C 0.63833 0.64496 0.51228 0.0
C38 C 0.67059 0.64031 0.48579 0.0
C39 C 0.67179 0.6254 0.4329 0.0
C40 C 0.64077 0.61757 0.40594 0.0
Zn41 Zn 0.56646 0.61812 0.38407 0.0
C42 C 0.56803 0.54927 0.32677 0.0
N43 N 0.47801 0.60235 0.27994 0.0
C44 C 0.44922 0.62313 0.28418 0.0
C45 C 0.48627 0.58666 0.23088 0.0
C46 C 0.4677 0.59439 0.1828 0.0
C47 C 0.44027 0.61857 0.18479 0.0
C48 C 0.42995 0.63177 0.23671 0.0
Zn49 Zn 0.51879 0.60729 0.33548 0.0
O50 O 0.54193 0.58836 0.44814 0.0
C51 C 0.51852 0.67933 0.39016 0.0
O52 O 0.4929 0.58048 0.40235 0.0
H53 H 0.50978 0.57129 0.2269 0.0
H54 H 0.58254 0.64154 0.5025 0.0
H55 H 0.44308 0.63571 0.3231 0.0
O56 O 0.5463 0.66768 0.41252 0.0
O57 O 0.50115 0.65904 0.35862 0.0
H58 H 0.64163 0.60765 0.36401 0.0
O59 O 0.54663 0.62969 0.26863 0.0
O60 O 0.59182 0.64508 0.31827 0.0
O61 O 0.53739 0.55834 0.31343 0.0
O62 O 0.5869 0.57007 0.35459 0.0
C63 C 0.57658 0.64361 0.27172 0.0
H64 H 0.6368 0.65663 0.55313 0.0
H65 H 0.69645 0.6215 0.41164 0.0
H66 H 0.4771 0.58421 0.14365 0.0
H67 H 0.40877 0.65045 0.23995 0.0
C68 C 0.18748 0.76486 0.6929 0.0
N69 N 0.13544 0.86134 0.67823 0.0
C70 C 0.12221 0.85771 0.73028 0.0
C71 C 0.1134 0.88717 0.76114 0.0
C72 C 0.11871 0.92032 0.73805 0.0
C73 C 0.13388 0.92338 0.68544 0.0
C74 C 0.14191 0.89329 0.65583 0.0
Zn75 Zn 0.14265 0.81868 0.63111 0.0
C76 C 0.20975 0.82013 0.57412 0.0
N77 N 0.1563 0.72782 0.53177 0.0
C78 C 0.13607 0.69871 0.53684 0.0
C79 C 0.17129 0.73619 0.48219 0.0
C80 C 0.16345 0.7173 0.43455 0.0
C81 C 0.13993 0.68937 0.43746 0.0
C82 C 0.12737 0.67906 0.48979 0.0
Zn83 Zn 0.1511 0.76897 0.5865 0.0
O84 O 0.17184 0.79421 0.69662 0.0
C85 C 0.08061 0.77017 0.64234 0.0
O86 O 0.17989 0.74469 0.65238 0.0
H87 H 0.18604 0.75999 0.47741 0.0
H88 H 0.11752 0.83195 0.74713 0.0
H89 H 0.12396 0.69253 0.57613 0.0
O90 O 0.09315 0.79925 0.65794 0.0
O91 O 0.10004 0.74978 0.61404 0.0
H92 H 0.15227 0.89547 0.61425 0.0
O93 O 0.12585 0.79466 0.51998 0.0
O94 O 0.11704 0.84375 0.5637 0.0
O95 O 0.2001 0.78954 0.5609 0.0
O96 O 0.18995 0.83892 0.60366 0.0
C97 C 0.11469 0.8258 0.51965 0.0
H98 H 0.10189 0.88415 0.80191 0.0
H99 H 0.13805 0.94873 0.66653 0.0
H100 H 0.17303 0.72677 0.39504 0.0
H101 H 0.10917 0.65752 0.49369 0.0
C102 C 0.99862 0.43871 0.94406 0.0
N103 N 0.90203 0.38676 0.92965 0.0
C104 C 0.90525 0.37237 0.98097 0.0
C105 C 0.8755 0.36332 0.01109 0.0
C106 C 0.84247 0.36954 0.98803 0.0
C107 C 0.83989 0.38595 0.9363 0.0
C108 C 0.87023 0.39423 0.90743 0.0
Zn109 Zn 0.94496 0.39433 0.88279 0.0
C110 C 0.94365 0.46133 0.82592 0.0
N111 N 0.03574 0.40755 0.7821 0.0
C112 C 0.06473 0.38706 0.78668 0.0
C113 C 0.02735 0.42271 0.73264 0.0
C114 C 0.04598 0.41481 0.68475 0.0
C115 C 0.07368 0.39101 0.68717 0.0
C116 C 0.0841 0.37826 0.73932 0.0
Zn117 Zn 0.99454 0.4023 0.8372 0.0
O118 O 0.96986 0.4221 0.94928 0.0
C119 C 0.99381 0.33204 0.89276 0.0
O120 O 0.0182 0.4319 0.90245 0.0
H121 H 1.00366 0.43764 0.72799 0.0
H122 H 0.93089 0.36692 0.99775 0.0
H123 H 0.07102 0.37482 0.82581 0.0
O124 O 0.96408 0.34377 0.90714 0.0
O125 O 0.0143 0.35212 0.86586 0.0
H126 H 0.86836 0.40555 0.86645 0.0
O127 O 0.96953 0.37638 0.77163 0.0
O128 O 0.91957 0.37029 0.81406 0.0
O129 O 0.9733 0.45036 0.81019 0.0
O130 O 0.92528 0.44263 0.85787 0.0
C131 C 0.93793 0.36674 0.77059 0.0
H132 H 0.87821 0.3509 0.05124 0.0
H133 H 0.81468 0.39088 0.91737 0.0
H134 H 0.03638 0.42454 0.64542 0.0
H135 H 0.1055 0.35985 0.74287 0.0
C136 C 0.61202 0.82213 0.97847 0.0
N137 N 0.65026 0.72198 0.96321 0.0
C138 C 0.67583 0.71939 0.00252 0.0
C139 C 0.66968 0.70139 0.05213 0.0
C140 C 0.63694 0.68595 0.06141 0.0
C141 C 0.61303 0.68503 0.01743 0.0
C142 C 0.62034 0.70288 0.9685 0.0
Zn143 Zn 0.6483 0.76615 0.9119 0.0
C144 C 0.57977 0.77124 0.84957 0.0
N145 N 0.63835 0.86106 0.82346 0.0
C146 C 0.64455 0.89237 0.84819 0.0
C147 C 0.62589 0.85886 0.77077 0.0
C148 C 0.61712 0.88907 0.74188 0.0
C149 C 0.62165 0.92155 0.76757 0.0
C150 C 0.6365 0.92326 0.82055 0.0
Zn151 Zn 0.64302 0.81683 0.86774 0.0
O152 O 0.62106 0.79027 0.97771 0.0
C153 C 0.70802 0.81483 0.93133 0.0
O154 O 0.6172 0.8407 0.93563 0.0
H155 H 0.62137 0.83358 0.75207 0.0
H156 H 0.70013 0.73333 0.99809 0.0
H157 H 0.65435 0.89336 0.89022 0.0
O158 O 0.69611 0.78506 0.94474 0.0
O159 O 0.69059 0.83428 0.89914 0.0
H160 H 0.60025 0.70357 0.93741 0.0
O161 O 0.67277 0.79308 0.80193 0.0
O162 O 0.67909 0.74366 0.84732 0.0
O163 O 0.59287 0.80066 0.83713 0.0
O164 O 0.59858 0.74972 0.87648 0.0
C165 C 0.68816 0.76368 0.80741 0.0
H166 H 0.68962 0.70128 0.08398 0.0
H167 H 0.58757 0.67301 0.02214 0.0
H168 H 0.60591 0.88712 0.70075 0.0
H169 H 0.64011 0.94808 0.84137 0.0
C170 C 0.43223 0.36517 0.72734 0.0
N171 N 0.5311 0.40602 0.71938 0.0
C172 C 0.52255 0.42009 0.76952 0.0
C173 C 0.54155 0.41155 0.81683 0.0
C174 C 0.56956 0.38814 0.8128 0.0
C175 C 0.58044 0.37725 0.75984 0.0
C176 C 0.56063 0.38653 0.71326 0.0
Zn177 Zn 0.4904 0.4014 0.66402 0.0
C178 C 0.49058 0.3303 0.60726 0.0
N179 N 0.40004 0.38557 0.56755 0.0
C180 C 0.36805 0.39225 0.58967 0.0
C181 C 0.4038 0.37305 0.51511 0.0
C182 C 0.37437 0.36508 0.48358 0.0
C183 C 0.34115 0.37046 0.50646 0.0
C184 C 0.33802 0.38503 0.55945 0.0
Zn185 Zn 0.44232 0.39166 0.61593 0.0
O186 O 0.46263 0.37809 0.7301 0.0
C187 C 0.44016 0.4594 0.67433 0.0
O188 O 0.41642 0.36465 0.68119 0.0
H189 H 0.42961 0.3682 0.49851 0.0
H190 H 0.49862 0.43469 0.77458 0.0
H191 H 0.36576 0.40203 0.63157 0.0
O192 O 0.47095 0.45059 0.68778 0.0
O193 O 0.42175 0.43891 0.64528 0.0
H194 H 0.56706 0.37543 0.67332 0.0
O195 O 0.46745 0.42224 0.55216 0.0
O196 O 0.51631 0.42877 0.59882 0.0
O197 O 0.46219 0.34241 0.58781 0.0
O198 O 0.50896 0.34984 0.63859 0.0
C199 C 0.4969 0.43748 0.55797 0.0
H200 H 0.53223 0.42048 0.85681 0.0
H201 H 0.60251 0.35979 0.75493 0.0
H202 H 0.37745 0.35397 0.44255 0.0
H203 H 0.31263 0.38916 0.57829 0.0
C204 C 0.89471 0.18367 0.47912 0.0
N205 N 0.85749 0.28351 0.46976 0.0
C206 C 0.84399 0.27498 0.52034 0.0
C207 C 0.85217 0.29452 0.56709 0.0
C208 C 0.87495 0.32292 0.56234 0.0
C209 C 0.8856 0.33356 0.50909 0.0
C210 C 0.87651 0.31328 0.46292 0.0
Zn211 Zn 0.86123 0.24245 0.41482 0.0
C212 C 0.93049 0.23973 0.35785 0.0
N213 N 0.87194 0.15033 0.32031 0.0
C214 C 0.8629 0.1188 0.34204 0.0
C215 C 0.88746 0.15309 0.26974 0.0
C216 C 0.89602 0.1231 0.23998 0.0
C217 C 0.88786 0.09033 0.26236 0.0
C218 C 0.87051 0.08824 0.31336 0.0
Zn219 Zn 0.86611 0.19326 0.36762 0.0
O220 O 0.88696 0.21584 0.47986 0.0
C221 C 0.79994 0.19429 0.42707 0.0
O222 O 0.88965 0.16648 0.43494 0.0
H223 H 0.89433 0.17851 0.25345 0.0
H224 H 0.83028 0.25069 0.52642 0.0
H225 H 0.85098 0.11726 0.38262 0.0
O226 O 0.81279 0.22316 0.44259 0.0
O227 O 0.81709 0.17532 0.39377 0.0
H228 H 0.88736 0.31958 0.42274 0.0
O229 O 0.8389 0.21937 0.30193 0.0
O230 O 0.83195 0.26748 0.35042 0.0
O231 O 0.91724 0.21081 0.34267 0.0
O232 O 0.91162 0.26079 0.38574 0.0
C233 C 0.82364 0.24872 0.3086 0.0
H234 H 0.84363 0.28524 0.60732 0.0
H235 H 0.90277 0.35581 0.50372 0.0
H236 H 0.90956 0.12536 0.20068 0.0
H237 H 0.86441 0.0632 0.332 0.0
C238 C 0.07567 0.64529 0.23015 0.0
N239 N 0.97488 0.60782 0.21649 0.0
C240 C 0.97746 0.58654 0.26176 0.0
C241 C 0.95827 0.59351 0.30966 0.0
C242 C 0.93673 0.6231 0.31192 0.0
C243 C 0.93154 0.64228 0.2629 0.0
C244 C 0.9504 0.63369 0.21517 0.0
Zn245 Zn 0.01799 0.61144 0.16383 0.0
C246 C 0.02209 0.68174 0.10611 0.0
N247 N 0.11142 0.62337 0.07193 0.0
C248 C 0.14271 0.61514 0.09528 0.0
C249 C 0.10923 0.6376 0.02036 0.0
C250 C 0.13955 0.64567 0.99112 0.0
C251 C 0.17206 0.63832 0.01507 0.0
C252 C 0.17361 0.62227 0.06717 0.0
Zn253 Zn 0.06768 0.6179 0.11738 0.0
O254 O 0.04394 0.6357 0.2313 0.0
C255 C 0.06624 0.55085 0.17562 0.0
O256 O 0.09269 0.6423 0.18526 0.0
H257 H 0.08398 0.64379 0.00276 0.0
H258 H 0.9966 0.56595 0.26355 0.0
H259 H 0.14376 0.60416 0.13657 0.0
O260 O 0.03646 0.56211 0.19014 0.0
O261 O 0.08568 0.56963 0.14544 0.0
H262 H 0.94753 0.65002 0.17902 0.0
O263 O 0.04296 0.58959 0.0513 0.0
O264 O 0.9938 0.58343 0.09745 0.0
O265 O 0.05073 0.66845 0.08993 0.0
O266 O 1.0015 0.66291 0.13489 0.0
C267 C 0.01337 0.57458 0.05685 0.0
H268 H 0.9624 0.57738 0.34601 0.0
H269 H 0.91546 0.66553 0.2623 0.0
H270 H 0.13773 0.6582 0.95093 0.0
H271 H 0.19846 0.61682 0.08693 0.0
C272 C 0.82348 0.74793 0.6934 0.0
N273 N 0.87321 0.65036 0.67896 0.0
C274 C 0.88509 0.6526 0.732 0.0
C275 C 0.8935 0.6223 0.76122 0.0
C276 C 0.8897 0.58985 0.73506 0.0
C277 C 0.87578 0.58823 0.68147 0.0
C278 C 0.86752 0.61903 0.65403 0.0
Zn279 Zn 0.86758 0.6937 0.63263 0.0
C280 C 0.80043 0.69396 0.57266 0.0
N281 N 0.85604 0.78475 0.53251 0.0
C282 C 0.87583 0.81402 0.53924 0.0
C283 C 0.84219 0.77668 0.48204 0.0
C284 C 0.85077 0.79602 0.43525 0.0
C285 C 0.87434 0.82377 0.43982 0.0
C286 C 0.88538 0.8341 0.49299 0.0
Zn287 Zn 0.85975 0.74307 0.58645 0.0
O288 O 0.83888 0.7185 0.69779 0.0
C289 C 0.93003 0.74109 0.64387 0.0
O290 O 0.83113 0.76769 0.65236 0.0
H291 H 0.82808 0.7527 0.47599 0.0
H292 H 0.88938 0.67792 0.75072 0.0
H293 H 0.88699 0.81999 0.57931 0.0
O294 O 0.91778 0.71197 0.66023 0.0
O295 O 0.91057 0.76096 0.61477 0.0
H296 H 0.8579 0.61794 0.61192 0.0
O297 O 0.8842 0.7167 0.51984 0.0
O298 O 0.89326 0.66834 0.56592 0.0
O299 O 0.81128 0.72411 0.55951 0.0
O300 O 0.81905 0.6748 0.60374 0.0
C301 C 0.89508 0.68549 0.52113 0.0
H302 H 0.9045 0.62425 0.8025 0.0
H303 H 0.8725 0.56343 0.66042 0.0
H304 H 0.84191 0.78692 0.3951 0.0
H305 H 0.90315 0.85587 0.49827 0.0
C306 C 0.01342 0.07421 0.94193 0.0
N307 N 0.11179 0.1242 0.93102 0.0
C308 C 0.10887 0.13951 0.98172 0.0
C309 C 0.13882 0.14836 0.01147 0.0
C310 C 0.17167 0.14067 0.98895 0.0
C311 C 0.17393 0.12368 0.93771 0.0
C312 C 0.14345 0.11581 0.90905 0.0
Zn313 Zn 0.06907 0.1177 0.8833 0.0
C314 C 0.06914 0.05066 0.82654 0.0
N315 N 0.97935 0.10623 0.78048 0.0
C316 C 0.94972 0.12566 0.78577 0.0
C317 C 0.9878 0.0911 0.73107 0.0
C318 C 0.9682 0.09783 0.68373 0.0
C319 C 0.93959 0.12051 0.68675 0.0
C320 C 0.92937 0.13328 0.739 0.0
Zn321 Zn 0.02007 0.11106 0.83583 0.0
O322 O 0.04306 0.08905 0.94827 0.0
C323 C 0.02188 0.18124 0.89169 0.0
O324 O 0.99438 0.08317 0.90078 0.0
H325 H 0.01199 0.07694 0.72623 0.0
H326 H 0.08337 0.14591 0.99817 0.0
H327 H 0.94352 0.13786 0.82498 0.0
O328 O 0.05032 0.16799 0.90901 0.0
O329 O 1.0017 0.16237 0.86216 0.0
H330 H 0.14516 0.10417 0.86831 0.0
O331 O 0.0473 0.13535 0.76978 0.0
O332 O 0.09553 0.14236 0.81663 0.0
O333 O 0.03941 0.06174 0.81152 0.0
O334 O 0.0884 0.06963 0.85667 0.0
C335 C 0.07891 0.14512 0.77138 0.0
H336 H 0.13644 0.16163 0.05097 0.0
H337 H 0.19904 0.11795 0.91897 0.0
H338 H 0.97759 0.08816 0.64423 0.0
H339 H 0.90734 0.15089 0.74294 0.0
C340 C 0.68876 0.26487 0.19344 0.0
N341 N 0.6378 0.36155 0.1785 0.0
C342 C 0.62466 0.35778 0.23057 0.0
C343 C 0.6165 0.38715 0.262 0.0
C344 C 0.62246 0.42035 0.23954 0.0
C345 C 0.6378 0.42356 0.1871 0.0
C346 C 0.64513 0.39352 0.15682 0.0
Zn347 Zn 0.6441 0.31879 0.13127 0.0
C348 C 0.71152 0.31885 0.0745 0.0
N349 N 0.65697 0.22726 0.03365 0.0
C350 C 0.63653 0.19838 0.03978 0.0
C351 C 0.67134 0.23528 0.98347 0.0
C352 C 0.66209 0.21666 0.9362 0.0
C353 C 0.63765 0.18961 0.94022 0.0
C354 C 0.62645 0.17902 0.99317 0.0
Zn355 Zn 0.6524 0.2687 0.08774 0.0
O356 O 0.67305 0.29419 0.19691 0.0
C357 C 0.58197 0.27017 0.14372 0.0
O358 O 0.6812 0.24451 0.1532 0.0
H359 H 0.68658 0.25872 0.97807 0.0
H360 H 0.61937 0.332 0.24689 0.0
H361 H 0.62522 0.19228 0.07971 0.0
O362 O 0.59383 0.29981 0.15822 0.0
O363 O 0.60181 0.24988 0.11605 0.0
H364 H 0.65551 0.39577 0.11526 0.0
O365 O 0.62694 0.29441 0.02128 0.0
O366 O 0.6188 0.34398 0.06403 0.0
O367 O 0.70116 0.2885 0.06145 0.0
O368 O 0.69201 0.33837 0.10339 0.0
C369 C 0.61608 0.32567 0.02041 0.0
H370 H 0.60457 0.38408 0.30247 0.0
H371 H 0.64229 0.44899 0.16867 0.0
H372 H 0.67127 0.22576 0.89621 0.0
H373 H 0.60818 0.15762 0.99805 0.0
C374 C 0.49888 0.93748 0.44331 0.0
N375 N 0.40184 0.8853 0.43212 0.0
C376 C 0.40438 0.87093 0.48357 0.0
C377 C 0.3742 0.86256 0.51316 0.0
C378 C 0.34152 0.86981 0.48965 0.0
C379 C 0.33965 0.88571 0.4375 0.0
C380 C 0.37034 0.89306 0.40907 0.0
Zn381 Zn 0.44487 0.89223 0.38511 0.0
C382 C 0.44245 0.95975 0.32631 0.0
N383 N 0.53375 0.90642 0.28089 0.0
C384 C 0.56241 0.88555 0.28603 0.0
C385 C 0.52555 0.92132 0.23117 0.0
C386 C 0.54364 0.91208 0.18329 0.0
C387 C 0.57022 0.88705 0.18633 0.0
C388 C 0.5811 0.87534 0.2388 0.0
Zn389 Zn 0.49277 0.90143 0.33584 0.0
O390 O 0.46962 0.92195 0.44975 0.0
C391 C 0.49332 0.83067 0.39296 0.0
O392 O 0.51793 0.92922 0.40173 0.0
H393 H 0.50231 0.93702 0.22669 0.0
H394 H 0.42978 0.86501 0.50088 0.0
H395 H 0.56871 0.87392 0.32563 0.0
O396 O 0.46494 0.8426 0.4127 0.0
O397 O 0.51132 0.85009 0.36096 0.0
H398 H 0.3689 0.90392 0.36776 0.0
O399 O 0.46609 0.8773 0.26961 0.0
O400 O 0.41939 0.8662 0.31845 0.0
O401 O 0.4729 0.95052 0.31166 0.0
O402 O 0.42442 0.93972 0.35672 0.0
C403 C 0.43532 0.8653 0.27234 0.0
H404 H 0.37626 0.85008 0.55336 0.0
H405 H 0.31469 0.89103 0.41801 0.0
H406 H 0.53446 0.92169 0.14361 0.0
H407 H 0.60209 0.85651 0.2428 0.0
C408 C 0.11589 0.32664 0.47887 0.0
N409 N 0.15752 0.22816 0.46919 0.0
C410 C 0.17245 0.23707 0.51855 0.0
C411 C 0.16557 0.21787 0.56631 0.0
C412 C 0.14303 0.18913 0.56375 0.0
C413 C 0.13063 0.17837 0.51156 0.0
C414 C 0.13833 0.19835 0.46439 0.0
Zn415 Zn 0.15152 0.26885 0.41377 0.0
C416 C 0.08105 0.26842 0.35832 0.0
N417 N 0.13485 0.36024 0.31896 0.0
C418 C 0.14202 0.39212 0.3411 0.0
C419 C 0.12008 0.35687 0.26794 0.0
C420 C 0.1104 0.38652 0.23805 0.0
C421 C 0.11644 0.41959 0.26103 0.0
C422 C 0.13317 0.42234 0.31245 0.0
Zn423 Zn 0.14278 0.31771 0.36661 0.0
O424 O 0.1264 0.29525 0.48029 0.0
C425 C 0.21034 0.31957 0.42219 0.0
O426 O 0.11804 0.34337 0.43364 0.0
H427 H 0.11478 0.33118 0.25128 0.0
H428 H 0.18641 0.26137 0.52303 0.0
H429 H 0.15352 0.39415 0.38191 0.0
O430 O 0.20012 0.28965 0.43778 0.0
O431 O 0.19066 0.33826 0.39225 0.0
H432 H 0.12627 0.19176 0.42525 0.0
O433 O 0.17138 0.29264 0.3012 0.0
O434 O 0.18034 0.24424 0.34821 0.0
O435 O 0.09279 0.29766 0.34172 0.0
O436 O 0.10093 0.24893 0.38738 0.0
C437 C 0.18764 0.2637 0.30667 0.0
H438 H 0.175 0.22769 0.60567 0.0
H439 H 0.11317 0.15621 0.50789 0.0
H440 H 0.09772 0.38372 0.19814 0.0
H441 H 0.13795 0.44758 0.33132 0.0
C442 C 0.93737 0.86591 0.23071 0.0
N443 N 0.03448 0.90854 0.21683 0.0
C444 C 0.02636 0.92328 0.26672 0.0
C445 C 0.04477 0.91425 0.31438 0.0
C446 C 0.07179 0.8897 0.31108 0.0
C447 C 0.08258 0.87824 0.25837 0.0
C448 C 0.0634 0.88806 0.21138 0.0
Zn449 Zn 0.99282 0.90279 0.16297 0.0
C450 C 0.99288 0.83222 0.10684 0.0
N451 N 0.89948 0.88477 0.07294 0.0
C452 C 0.86802 0.89133 0.09708 0.0
C453 C 0.90183 0.86994 0.02181 0.0
C454 C 0.87162 0.85962 0.99392 0.0
C455 C 0.839 0.86512 0.01892 0.0
C456 C 0.83724 0.8819 0.07039 0.0
Zn457 Zn 0.94313 0.89317 0.11821 0.0
O458 O 0.96833 0.87745 0.22994 0.0
C459 C 0.9408 0.96035 0.17573 0.0
O460 O 0.91925 0.86761 0.18676 0.0
H461 H 0.92719 0.86507 0.00352 0.0
H462 H 1.00292 0.93861 0.27167 0.0
H463 H 0.86678 0.90274 0.13803 0.0
O464 O 0.97157 0.95127 0.18901 0.0
O465 O 0.92248 0.94033 0.14584 0.0
H466 H 0.06965 0.87646 0.17175 0.0
O467 O 0.96672 0.92276 0.05167 0.0
O468 O 0.01595 0.93162 0.09669 0.0
O469 O 0.96326 0.84368 0.09149 0.0
O470 O 0.0126 0.8523 0.13511 0.0
C471 C 0.99585 0.93891 0.05594 0.0
H472 H 0.03553 0.92367 0.35413 0.0
H473 H 0.10399 0.85992 0.25398 0.0
H474 H 0.87366 0.84695 0.95389 0.0
H475 H 0.81238 0.88634 0.09076 0.0
C476 C 0.39716 0.68348 0.97731 0.0
N477 N 0.35543 0.78185 0.97108 0.0
C478 C 0.34082 0.77299 0.02076 0.0
C479 C 0.34819 0.79204 0.06843 0.0
C480 C 0.37102 0.82053 0.06558 0.0
C481 C 0.38331 0.83118 0.01324 0.0
C482 C 0.37502 0.81141 0.96611 0.0
Zn483 Zn 0.36015 0.74129 0.91495 0.0
C484 C 0.42945 0.74205 0.85478 0.0
N485 N 0.37447 0.65017 0.81842 0.0
C486 C 0.36714 0.61851 0.84127 0.0
C487 C 0.38792 0.65309 0.7664 0.0
C488 C 0.39576 0.62314 0.73593 0.0
C489 C 0.38901 0.59027 0.75922 0.0
C490 C 0.37405 0.58804 0.81205 0.0
Zn491 Zn 0.36803 0.69287 0.86624 0.0
O492 O 0.38641 0.71474 0.97973 0.0
C493 C 0.30202 0.69013 0.92721 0.0
O494 O 0.39448 0.66707 0.93186 0.0
H495 H 0.39351 0.67861 0.74929 0.0
H496 H 0.32662 0.74887 0.02554 0.0
H497 H 0.35697 0.61677 0.883 0.0
O498 O 0.31189 0.72035 0.94186 0.0
O499 O 0.32107 0.67224 0.89517 0.0
H500 H 0.38686 0.81798 0.92677 0.0
O501 O 0.33766 0.71808 0.80247 0.0
O502 O 0.33039 0.76616 0.85102 0.0
O503 O 0.41732 0.71299 0.83803 0.0
O504 O 0.4103 0.76111 0.88578 0.0
C505 C 0.32197 0.74722 0.80944 0.0
H506 H 0.33885 0.78232 0.10793 0.0
H507 H 0.40101 0.85313 0.00938 0.0
H508 H 0.40755 0.62551 0.69526 0.0
H509 H 0.36922 0.56297 0.83149 0.0
C510 C 0.57367 0.14621 0.7325 0.0
N511 N 0.47589 0.10443 0.71913 0.0
C512 C 0.48349 0.08834 0.7682 0.0
C513 C 0.46481 0.09622 0.81607 0.0
C514 C 0.43793 0.12095 0.81403 0.0
C515 C 0.42818 0.13462 0.76214 0.0
C516 C 0.44754 0.12581 0.71479 0.0
Zn517 Zn 0.51761 0.1095 0.66496 0.0
C518 C 0.5196 0.17966 0.60827 0.0
N519 N 0.61125 0.12433 0.57569 0.0
C520 C 0.64274 0.1203 0.60101 0.0
C521 C 0.60864 0.13514 0.52209 0.0
C522 C 0.63864 0.1441 0.49253 0.0
C523 C 0.6711 0.14194 0.519 0.0
C524 C 0.67326 0.12918 0.57322 0.0
Zn525 Zn 0.56787 0.11757 0.6214 0.0
O526 O 0.54261 0.13484 0.73203 0.0
C527 C 0.56855 0.05096 0.67938 0.0
O528 O 0.59182 0.14385 0.68869 0.0
H529 H 0.58321 0.13812 0.50309 0.0
H530 H 0.50662 0.07256 0.7727 0.0
H531 H 0.64412 0.11149 0.64355 0.0
O532 O 0.53782 0.06083 0.69114 0.0
O533 O 0.5881 0.07057 0.65076 0.0
H534 H 0.44186 0.13872 0.67597 0.0
O535 O 0.54429 0.08777 0.55598 0.0
O536 O 0.49404 0.08042 0.59862 0.0
O537 O 0.54869 0.1669 0.59289 0.0
O538 O 0.49896 0.16047 0.63657 0.0
C539 C 0.51478 0.07237 0.559 0.0
H540 H 0.47383 0.08568 0.85524 0.0
H541 H 0.40741 0.15374 0.75888 0.0
H542 H 0.63645 0.15416 0.45068 0.0
H543 H 0.69816 0.12741 0.59444 0.0
C544 C 0.48273 0.28219 0.15248 0.0
C545 C 0.46973 0.24777 0.15276 0.0
C546 C 0.519 0.28906 0.15287 0.0
C547 C 0.54397 0.26184 0.15178 0.0
H548 H 0.46475 0.30403 0.15101 0.0
H549 H 0.52749 0.31604 0.15139 0.0
S550 S 0.52388 0.16702 0.15262 0.0
N551 N 0.48514 0.18604 0.15361 0.0
N552 N 0.55279 0.19905 0.15211 0.0
C553 C 0.53133 0.22734 0.15286 0.0
C554 C 0.49445 0.22031 0.15395 0.0
C555 C 0.52205 0.73867 0.43736 0.0
C556 C 0.50971 0.71754 0.39341 0.0
C557 C 0.51669 0.77529 0.43787 0.0
C558 C 0.49956 0.79223 0.39376 0.0
H559 H 0.53613 0.72684 0.47151 0.0
H560 H 0.52637 0.79044 0.47254 0.0
S561 S 0.46334 0.74997 0.26794 0.0
N562 N 0.47976 0.71729 0.30428 0.0
N563 N 0.47064 0.78548 0.30502 0.0
C564 C 0.48726 0.7716 0.34974 0.0
C565 C 0.49207 0.73448 0.34958 0.0
C566 C 0.02923 0.72857 0.64978 0.0
C567 C 0.04233 0.76295 0.64994 0.0
C568 C 0.99295 0.72182 0.65122 0.0
C569 C 0.96809 0.74914 0.6512 0.0
H570 H 0.04713 0.70668 0.64761 0.0
H571 H 0.98431 0.69488 0.64969 0.0
S572 S 0.98837 0.84388 0.65254 0.0
N573 N 0.02705 0.82475 0.65203 0.0
N574 N 0.9594 0.81191 0.65252 0.0
C575 C 0.98081 0.78357 0.65221 0.0
C576 C 0.01769 0.79049 0.65219 0.0
C577 C 0.97433 0.26925 0.89983 0.0
C578 C 1.00182 0.29392 0.89974 0.0
C579 C 0.98081 0.23295 0.89865 0.0
C580 C 0.01509 0.21958 0.89905 0.0
H581 H 0.94743 0.27803 0.89826 0.0
H582 H 0.95878 0.21523 0.89655 0.0
S583 S 0.09644 0.27282 0.90145 0.0
N584 N 0.0647 0.30207 0.90116 0.0
N585 N 0.077 0.23429 0.90116 0.0
C586 C 0.04282 0.24397 0.90119 0.0
C587 C 0.03618 0.28092 0.90092 0.0
C588 C 0.52828 0.73031 0.83962 0.0
C589 C 0.54141 0.76464 0.84184 0.0
C590 C 0.49203 0.72353 0.84043 0.0
C591 C 0.46721 0.75071 0.84524 0.0
H592 H 0.54617 0.70838 0.83859 0.0
H593 H 0.48349 0.69655 0.84008 0.0
S594 S 0.48757 0.8454 0.85087 0.0
N595 N 0.52622 0.82637 0.84654 0.0
N596 N 0.45857 0.81344 0.85027 0.0
C597 C 0.47992 0.78518 0.84624 0.0
C598 C 0.51679 0.79217 0.84392 0.0
C599 C 0.47186 0.26746 0.59594 0.0
C600 C 0.49908 0.29228 0.60045 0.0
C601 C 0.4785 0.23116 0.59717 0.0
C602 C 0.51277 0.21801 0.60113 0.0
H603 H 0.44492 0.27612 0.59398 0.0
H604 H 0.45658 0.21328 0.59577 0.0
S605 S 0.59354 0.27171 0.61194 0.0
N606 N 0.56172 0.30078 0.60836 0.0
N607 N 0.57444 0.23309 0.60836 0.0
C608 C 0.54033 0.24258 0.60361 0.0
C609 C 0.53345 0.27947 0.60389 0.0
C610 C 0.98203 0.28062 0.34805 0.0
C611 C 0.96883 0.24633 0.35045 0.0
C612 C 0.0183 0.28725 0.34742 0.0
C613 C 0.04308 0.25995 0.35089 0.0
H614 H 0.96418 0.3026 0.34762 0.0
H615 H 0.02693 0.3142 0.34678 0.0
S616 S 0.02242 0.16534 0.35727 0.0
N617 N 0.9838 0.18455 0.35453 0.0
N618 N 0.05154 0.19717 0.35552 0.0
C619 C 0.03026 0.22553 0.35243 0.0
C620 C 0.99334 0.2187 0.3516 0.0
C621 C 0.98101 0.73316 0.09663 0.0
C622 C 0.01536 0.72006 0.09878 0.0
C623 C 0.97427 0.7694 0.09599 0.0
C624 C 1.0015 0.79427 0.09925 0.0
H625 H 0.95908 0.71526 0.09636 0.0
H626 H 0.94727 0.77794 0.09551 0.0
S627 S 0.09621 0.77383 0.10531 0.0
N628 N 0.07711 0.73517 0.10261 0.0
N629 N 0.06429 0.80287 0.10363 0.0
C630 C 0.03598 0.78153 0.10062 0.0
C631 C 0.04291 0.74464 0.09979 0.0
C632 C 0.20917 0.18885 0.02334 0.0
C633 C 0.20373 0.15286 0.0161 0.0
C634 C 0.24116 0.20145 0.04292 0.0
C635 C 0.26839 0.17836 0.0566 0.0
H636 H 0.18897 0.20739 0.01208 0.0
H637 H 0.24461 0.22942 0.04724 0.0
S638 S 0.26631 0.0816 0.04661 0.0
N639 N 0.22737 0.09426 0.02492 0.0
N640 N 0.28753 0.11777 0.0627 0.0
C641 C 0.26284 0.14221 0.05089 0.0
C642 C 0.23046 0.12948 0.03028 0.0
C643 C 0.63125 0.47848 0.28347 0.0
C644 C 0.60868 0.45151 0.26716 0.0
C645 C 0.61791 0.50979 0.3047 0.0
C646 C 0.58163 0.51516 0.30897 0.0
H647 H 0.65927 0.47552 0.27892 0.0
H648 H 0.63609 0.53029 0.31602 0.0
S649 S 0.51195 0.45169 0.27253 0.0
N650 N 0.54883 0.43137 0.25758 0.0
N651 N 0.52349 0.49027 0.29701 0.0
C652 C 0.5589 0.48793 0.29372 0.0
C653 C 0.57252 0.45603 0.27287 0.0
C654 C 0.30336 0.82234 0.52464 0.0
C655 C 0.3092 0.8582 0.51672 0.0
C656 C 0.27101 0.8102 0.54348 0.0
C657 C 0.24377 0.83363 0.55571 0.0
H658 H 0.32352 0.80353 0.51435 0.0
H659 H 0.26728 0.7823 0.54826 0.0
S660 S 0.24698 0.93028 0.54386 0.0
N661 N 0.28604 0.91707 0.52357 0.0
N662 N 0.22519 0.89446 0.56008 0.0
C663 C 0.24977 0.86969 0.5495 0.0
C664 C 0.28254 0.88194 0.52962 0.0
C665 C 0.92941 0.53892 0.73256 0.0
C666 C 0.90353 0.55794 0.76069 0.0
C667 C 0.94274 0.50801 0.75471 0.0
C668 C 0.93024 0.49487 0.80537 0.0
H669 H 0.93942 0.54804 0.69307 0.0
H670 H 0.96244 0.49398 0.73134 0.0
S671 S 0.86335 0.53588 0.89588 0.0
N672 N 0.86653 0.5625 0.84217 0.0
N673 N 0.89129 0.50382 0.88405 0.0
C674 C 0.90462 0.51394 0.83432 0.0
C675 C 0.89137 0.54572 0.81194 0.0
C676 C 0.74726 0.86277 0.96171 0.0
C677 C 0.7419 0.82691 0.95243 0.0
C678 C 0.77908 0.87506 0.98241 0.0
C679 C 0.80674 0.85194 0.99324 0.0
H680 H 0.72649 0.8814 0.95399 0.0
H681 H 0.78207 0.90277 0.99026 0.0
S682 S 0.80656 0.75594 0.97314 0.0
N683 N 0.7671 0.76857 0.95388 0.0
N684 N 0.82728 0.79184 0.9922 0.0
C685 C 0.80205 0.81616 0.9829 0.0
C686 C 0.76946 0.80356 0.96269 0.0
C687 C 0.43634 0.55346 0.7204 0.0
C688 C 0.40062 0.55819 0.73143 0.0
C689 C 0.44891 0.52135 0.7014 0.0
C690 C 0.42604 0.49322 0.69211 0.0
H691 H 0.45482 0.57429 0.72857 0.0
H692 H 0.47674 0.51846 0.69433 0.0
S693 S 0.32991 0.49327 0.71229 0.0
N694 N 0.34239 0.53299 0.73025 0.0
N695 N 0.36588 0.47252 0.69354 0.0
C696 C 0.39007 0.49807 0.70119 0.0
C697 C 0.37738 0.53063 0.72122 0.0
C698 C 0.71919 0.13888 0.44985 0.0
C699 C 0.70232 0.15663 0.49299 0.0
C700 C 0.75063 0.15158 0.42806 0.0
C701 C 0.76584 0.18253 0.4486 0.0
H702 H 0.70848 0.11468 0.43392 0.0
H703 H 0.76326 0.13677 0.39544 0.0
S704 S 0.72946 0.23942 0.55944 0.0
N705 N 0.70135 0.20689 0.55412 0.0
N706 N 0.76014 0.23138 0.51303 0.0
C707 C 0.74825 0.20101 0.49073 0.0
C708 C 0.71652 0.18786 0.51302 0.0
C709 C 0.12669 0.47893 0.22264 0.0
C710 C 0.10349 0.45139 0.23378 0.0
C711 C 0.11441 0.51087 0.20245 0.0
C712 C 0.07849 0.51643 0.19397 0.0
H713 H 0.15441 0.47588 0.23043 0.0
H714 H 0.13305 0.53167 0.19508 0.0
S715 S 0.0074 0.45189 0.21437 0.0
N716 N 0.04333 0.43099 0.2329 0.0
N717 N 0.02007 0.49137 0.19538 0.0
C718 C 0.05512 0.48883 0.20375 0.0
C719 C 0.0677 0.45614 0.2235 0.0
C720 C 0.71683 0.64168 0.55871 0.0
C721 C 0.70267 0.65501 0.50941 0.0
C722 C 0.74867 0.65443 0.5791 0.0
C723 C 0.76678 0.68121 0.55117 0.0
H724 H 0.70361 0.62088 0.58083 0.0
H725 H 0.75909 0.64332 0.61698 0.0
S726 S 0.73929 0.72515 0.42091 0.0
N727 N 0.70811 0.69648 0.43373 0.0
N728 N 0.76765 0.72074 0.47196 0.0
C729 C 0.75227 0.69508 0.50231 0.0
C730 C 0.72023 0.68187 0.48144 0.0
C731 C 0.11729 0.01111 0.79823 0.0
C732 C 0.0815 0.01633 0.80833 0.0
C733 C 0.12942 0.9794 0.77696 0.0
C734 C 0.10619 0.95182 0.76643 0.0
H735 H 0.13587 0.03206 0.80494 0.0
H736 H 0.157 0.97659 0.76775 0.0
S737 S 0.01049 0.95145 0.7903 0.0
N738 N 0.02324 0.99088 0.80932 0.0
N739 N 0.04622 0.93092 0.76982 0.0
C740 C 0.07057 0.95619 0.77851 0.0
C741 C 0.05815 0.98862 0.79933 0.0
C742 C 0.75108 0.36731 0.04674 0.0
C743 C 0.74585 0.33142 0.05603 0.0
C744 C 0.7829 0.37969 0.02609 0.0
C745 C 0.81063 0.35663 0.0153 0.0
H746 H 0.73011 0.38582 0.05385 0.0
H747 H 0.78572 0.40737 0.01775 0.0
S748 S 0.81098 0.26071 0.03639 0.0
N749 N 0.77146 0.27322 0.0555 0.0
N750 N 0.83151 0.29666 0.01708 0.0
C751 C 0.80619 0.3209 0.02627 0.0
C752 C 0.77366 0.30822 0.04651 0.0
C753 C 0.45094 0.02132 0.29669 0.0
C754 C 0.42815 0.9934 0.30791 0.0
C755 C 0.43816 0.05321 0.2771 0.0
C756 C 0.40229 0.05792 0.26733 0.0
H757 H 0.47886 0.01844 0.30279 0.0
H758 H 0.45654 0.07392 0.26768 0.0
S759 S 0.33175 0.99343 0.29128 0.0
N760 N 0.36793 0.97285 0.3094 0.0
N761 N 0.34405 0.03288 0.27145 0.0
C762 C 0.37916 0.03053 0.27924 0.0
C763 C 0.39207 0.99822 0.29995 0.0
C764 C 0.24966 0.36831 0.44882 0.0
C765 C 0.24477 0.33248 0.43881 0.0
C766 C 0.28158 0.38078 0.46883 0.0
C767 C 0.30965 0.35788 0.4781 0.0
H768 H 0.22832 0.38659 0.44317 0.0
H769 H 0.28413 0.40834 0.4783 0.0
S770 S 0.31095 0.26232 0.45342 0.0
N771 N 0.27104 0.27462 0.43613 0.0
N772 N 0.33131 0.29823 0.47332 0.0
C773 C 0.30558 0.32229 0.46582 0.0
C774 C 0.27298 0.30951 0.44629 0.0
C775 C 0.93633 0.05314 0.2282 0.0
C776 C 0.90029 0.05824 0.23553 0.0
C777 C 0.94925 0.02131 0.20855 0.0
C778 C 0.92645 0.99385 0.19489 0.0
H779 H 0.95469 0.0735 0.23942 0.0
H780 H 0.97727 0.01819 0.20423 0.0
S781 S 0.82962 0.99509 0.20486 0.0
N782 N 0.84191 0.0341 0.22667 0.0
N783 N 0.866 0.97419 0.18876 0.0
C784 C 0.89022 0.99906 0.20067 0.0
C785 C 0.87717 0.03131 0.22135 0.0
C786 C 0.20936 0.68632 0.97992 0.0
C787 C 0.20434 0.65039 0.98852 0.0
C788 C 0.24117 0.699 0.9599 0.0
C789 C 0.26866 0.67604 0.94707 0.0
H790 H 0.18889 0.70478 0.99028 0.0
H791 H 0.24426 0.72694 0.95446 0.0
S792 S 0.26784 0.57949 0.96097 0.0
N793 N 0.22873 0.59196 0.98219 0.0
N794 N 0.28863 0.61566 0.94339 0.0
C795 C 0.26361 0.63993 0.95427 0.0
C796 C 0.23138 0.62712 0.97543 0.0
C797 C 0.61759 0.01305 0.70994 0.0
C798 C 0.58168 0.01724 0.69935 0.0
C799 C 0.63057 0.98168 0.73133 0.0
C800 C 0.60812 0.95343 0.74152 0.0
H801 H 0.63564 0.03442 0.70301 0.0
H802 H 0.65824 0.97953 0.74031 0.0
S803 S 0.51242 0.95054 0.71833 0.0
N804 N 0.52409 0.99026 0.69902 0.0
N805 N 0.54871 0.93102 0.7387 0.0
C806 C 0.57236 0.95693 0.72984 0.0
C807 C 0.55906 0.98899 0.70889 0.0
C808 C 0.41647 0.18825 0.92423 0.0
C809 C 0.40777 0.16778 0.97078 0.0
C810 C 0.42485 0.17285 0.87326 0.0
C811 C 0.42467 0.13634 0.86655 0.0
H812 H 0.41699 0.21649 0.92714 0.0
H813 H 0.43246 0.18971 0.83923 0.0
S814 S 0.40137 0.071 0.9741 0.0
N815 N 0.39811 0.10898 0.00611 0.0
N816 N 0.41349 0.08012 0.90997 0.0
C817 C 0.41548 0.11554 0.91241 0.0
C818 C 0.40716 0.13121 0.96455 0.0
C819 C 0.58977 0.6339 0.17226 0.0
C820 C 0.59453 0.65415 0.22027 0.0
C821 C 0.60541 0.64323 0.12199 0.0
C822 C 0.62588 0.67363 0.11732 0.0
H823 H 0.57373 0.61057 0.17348 0.0
H824 H 0.60074 0.62685 0.08613 0.0
S825 S 0.64609 0.73568 0.2315 0.0
N826 N 0.62179 0.70525 0.26106 0.0
N827 N 0.65002 0.72403 0.16583 0.0
C828 C 0.63144 0.69378 0.16555 0.0
C829 C 0.61598 0.68378 0.21716 0.0
C830 C 0.09291 0.8935 0.40953 0.0
C831 C 0.08472 0.87297 0.36285 0.0
C832 C 0.10164 0.8781 0.46051 0.0
C833 C 0.1025 0.84155 0.46684 0.0
H834 H 0.09248 0.92174 0.40662 0.0
H835 H 0.10828 0.89502 0.49494 0.0
S836 S 0.08068 0.77605 0.3585 0.0
N837 N 0.07615 0.81414 0.32719 0.0
N838 N 0.09302 0.7852 0.42243 0.0
C839 C 0.09401 0.8207 0.4206 0.0
C840 C 0.0851 0.83639 0.36879 0.0
C841 C 0.87059 0.34484 0.66011 0.0
C842 C 0.8913 0.33712 0.61341 0.0
C843 C 0.88581 0.35363 0.71114 0.0
C844 C 0.92235 0.35497 0.71748 0.0
H845 H 0.84235 0.3437 0.65728 0.0
H846 H 0.86876 0.3597 0.74571 0.0
S847 S 0.98828 0.33541 0.60843 0.0
N848 N 0.95024 0.33019 0.57727 0.0
N849 N 0.97892 0.3471 0.67259 0.0
C850 C 0.94338 0.34728 0.67099 0.0
C851 C 0.92785 0.33835 0.61912 0.0
C852 C 0.60086 0.87466 0.03775 0.0
C853 C 0.59965 0.83814 0.03091 0.0
C854 C 0.59237 0.89027 0.08861 0.0
C855 C 0.58246 0.86996 0.13463 0.0
H856 H 0.609 0.89138 0.00386 0.0
H857 H 0.59356 0.91847 0.092 0.0
S858 S 0.57212 0.77353 0.13737 0.0
N859 N 0.58598 0.78221 0.07401 0.0
N860 N 0.56964 0.81165 0.16916 0.0
C861 C 0.58055 0.83349 0.12817 0.0
C862 C 0.58918 0.81757 0.07644 0.0
C863 C 0.3986 0.32254 0.78498 0.0
C864 C 0.41429 0.35538 0.779 0.0
C865 C 0.38369 0.31252 0.83574 0.0
C866 C 0.38326 0.33534 0.88185 0.0
H867 H 0.39901 0.30405 0.75096 0.0
H868 H 0.37352 0.28622 0.83931 0.0
S869 S 0.41671 0.42637 0.88346 0.0
N870 N 0.42629 0.4118 0.82084 0.0
N871 N 0.39679 0.39377 0.91535 0.0
C872 C 0.39738 0.369 0.875 0.0
C873 C 0.41321 0.37883 0.82377 0.0
C874 C 0.92304 0.17181 0.62866 0.0
C875 C 0.92497 0.13533 0.63478 0.0
C876 C 0.91389 0.18702 0.57793 0.0
C877 C 0.90636 0.16641 0.53103 0.0
H878 H 0.92972 0.18886 0.6629 0.0
H879 H 0.91292 0.21528 0.57555 0.0
S880 S 0.90566 0.06942 0.52626 0.0
N881 N 0.91711 0.07882 0.59057 0.0
N882 N 0.90013 0.10735 0.49482 0.0
C883 C 0.9077 0.12981 0.53677 0.0
C884 C 0.91691 0.11431 0.58868 0.0
C885 C 0.08805 0.6738 0.37965 0.0
C886 C 0.1246 0.67527 0.38548 0.0
C887 C 0.07256 0.66468 0.32906 0.0
C888 C 0.09298 0.65684 0.28206 0.0
H889 H 0.07119 0.68074 0.41403 0.0
H890 H 0.04429 0.66403 0.32679 0.0
S891 S 0.18999 0.65486 0.27655 0.0
N892 N 0.18089 0.66655 0.34086 0.0
N893 N 0.1519 0.64983 0.24545 0.0
C894 C 0.12962 0.65781 0.28751 0.0
C895 C 0.14538 0.66689 0.33923 0.0
C896 C 0.9369 0.65105 0.46349 0.0
C897 C 0.90476 0.66819 0.46899 0.0
C898 C 0.94658 0.63586 0.41285 0.0
C899 C 0.92404 0.63648 0.3664 0.0
H900 H 0.95509 0.65039 0.49791 0.0
H901 H 0.97244 0.6245 0.40974 0.0
S902 S 0.83465 0.67428 0.36342 0.0
N903 N 0.84926 0.68304 0.4263 0.0
N904 N 0.86649 0.65288 0.33198 0.0
C905 C 0.89103 0.65224 0.37269 0.0
C906 C 0.88162 0.66843 0.42381 0.0
C907 C 0.07602 0.16326 0.67197 0.0
C908 C 0.09637 0.1566 0.7195 0.0
C909 C 0.0915 0.17226 0.62134 0.0
C910 C 0.12801 0.17485 0.61591 0.0
H911 H 0.04776 0.16175 0.67381 0.0
H912 H 0.0746 0.17827 0.58658 0.0
S913 S 0.19333 0.15767 0.72632 0.0
N914 N 0.15522 0.15178 0.7571 0.0
N915 N 0.18428 0.16837 0.66155 0.0
C916 C 0.14877 0.16761 0.66269 0.0
C917 C 0.13299 0.1586 0.7145 0.0
C918 C 0.59162 0.39265 0.91058 0.0
C919 C 0.58364 0.37187 0.86413 0.0
C920 C 0.60136 0.37754 0.96131 0.0
C921 C 0.60343 0.34103 0.96759 0.0
H922 H 0.59019 0.42086 0.90774 0.0
H923 H 0.60767 0.39467 0.99563 0.0
S924 S 0.58299 0.27486 0.85952 0.0
N925 N 0.57684 0.31281 0.82846 0.0
N926 N 0.59556 0.28439 0.9232 0.0
C927 C 0.59529 0.31991 0.92148 0.0
C928 C 0.58536 0.33532 0.86993 0.0
C929 C 0.42274 0.83679 0.12312 0.0
C930 C 0.38621 0.83474 0.1176 0.0
C931 C 0.43825 0.84594 0.17363 0.0
C932 C 0.41789 0.85328 0.22089 0.0
H933 H 0.4396 0.8303 0.08851 0.0
H934 H 0.46653 0.84706 0.17564 0.0
S935 S 0.32096 0.85376 0.22743 0.0
N936 N 0.32995 0.84236 0.16293 0.0
N937 N 0.3591 0.85928 0.25822 0.0
C938 C 0.38128 0.85171 0.21586 0.0
C939 C 0.36546 0.84256 0.16419 0.0
C940 C 0.09715 0.32359 0.5781 0.0
C941 C 0.1046 0.34398 0.53091 0.0
C942 C 0.08858 0.33909 0.62894 0.0
C943 C 0.08734 0.37564 0.63486 0.0
H944 H 0.0977 0.29532 0.57578 0.0
H945 H 0.08189 0.32225 0.66347 0.0
S946 S 0.10712 0.44093 0.52547 0.0
N947 N 0.1116 0.40283 0.49418 0.0
N948 N 0.09598 0.43187 0.59006 0.0
C949 C 0.09538 0.39638 0.5884 0.0
C950 C 0.10386 0.3806 0.53641 0.0
C951 C 0.88534 0.85368 0.29063 0.0
C952 C 0.92187 0.8544 0.28399 0.0
C953 C 0.87014 0.84543 0.34191 0.0
C954 C 0.89085 0.83757 0.38854 0.0
H955 H 0.86829 0.85992 0.25615 0.0
H956 H 0.84189 0.84482 0.34498 0.0
S957 S 0.98782 0.83426 0.39255 0.0
N958 N 0.97844 0.84586 0.32833 0.0
N959 N 0.94982 0.8298 0.42419 0.0
C960 C 0.92742 0.83818 0.38247 0.0
C961 C 0.94292 0.84664 0.33035 0.0
C962 C 0.41731 0.68619 0.07573 0.0
C963 C 0.40913 0.66591 0.02876 0.0
C964 C 0.4261 0.67058 0.12637 0.0
C965 C 0.42688 0.63402 0.13236 0.0
H966 H 0.41703 0.71446 0.07344 0.0
H967 H 0.43319 0.68736 0.16076 0.0
S968 S 0.40528 0.56901 0.02353 0.0
N969 N 0.40101 0.60717 0.99228 0.0
N970 N 0.41719 0.5779 0.08781 0.0
C971 C 0.41826 0.61337 0.08608 0.0
C972 C 0.40951 0.62928 0.03426 0.0
C973 C 0.64133 0.16797 0.84228 0.0
C974 C 0.62082 0.17638 0.88886 0.0
C975 C 0.62589 0.15918 0.79144 0.0
C976 C 0.58933 0.15843 0.78523 0.0
H977 H 0.66958 0.16833 0.8451 0.0
H978 H 0.64281 0.15242 0.75703 0.0
S979 S 0.52389 0.18064 0.89351 0.0
N980 N 0.56202 0.1852 0.92469 0.0
N981 N 0.53297 0.16808 0.82964 0.0
C982 C 0.56849 0.16704 0.83141 0.0
C983 C 0.58422 0.17608 0.88309 0.0
C984 C 0.27974 0.23188 0.26878 0.0
C985 C 0.29015 0.25428 0.22521 0.0
C986 C 0.24609 0.23376 0.29272 0.0
C987 C 0.22083 0.25799 0.27414 0.0
H988 H 0.29767 0.21227 0.28435 0.0
H989 H 0.24016 0.21645 0.32697 0.0
S990 S 0.23389 0.32214 0.16004 0.0
N991 N 0.27157 0.30131 0.16399 0.0
N992 N 0.20882 0.30468 0.20835 0.0
C993 C 0.23077 0.2804 0.23031 0.0
C994 C 0.26514 0.27867 0.20621 0.0
C995 C 0.48284 0.51437 0.45808 0.0
C996 C 0.50666 0.53997 0.47669 0.0
C997 C 0.48115 0.48088 0.48259 0.0
C998 C 0.50338 0.47099 0.52671 0.0
H999 H 0.4658 0.51989 0.42333 0.0
H1000 H 0.46189 0.46262 0.46695 0.0
S1001 S 0.5698 0.52851 0.59259 0.0
N1002 N 0.55251 0.55302 0.54342 0.0
N1003 N 0.54952 0.49054 0.58876 0.0
C1004 C 0.52725 0.4964 0.54585 0.0
C1005 C 0.52876 0.53061 0.52123 0.0
C1006 C 0.24467 0.73338 0.7104 0.0
C1007 C 0.22012 0.75893 0.72664 0.0
C1008 C 0.27798 0.73101 0.73533 0.0
C1009 C 0.28871 0.75414 0.77771 0.0
H1010 H 0.23848 0.71538 0.6772 0.0
H1011 H 0.29536 0.71044 0.72146 0.0
S1012 S 0.2342 0.82549 0.83682 0.0
N1013 N 0.20904 0.80766 0.78902 0.0
N1014 N 0.27117 0.80328 0.83533 0.0
C1015 C 0.26437 0.77979 0.79448 0.0
C1016 C 0.23035 0.78209 0.7693 0.0
C1017 C 0.02961 0.53078 0.98261 0.0
C1018 C 0.00694 0.54098 0.02592 0.0
C1019 C 0.02811 0.49717 0.95867 0.0
C1020 C 1.00397 0.47175 0.97694 0.0
H1021 H 0.04914 0.54885 0.96724 0.0
H1022 H 0.04564 0.4914 0.92462 0.0
S1023 S 0.93957 0.48405 0.09088 0.0
N1024 N 0.96004 0.52193 0.08706 0.0
N1025 N 0.95729 0.45922 0.04252 0.0
C1026 C 0.98137 0.48142 0.02067 0.0
C1027 C 0.98275 0.51576 0.04484 0.0
C1028 C 0.7317 0.77962 0.73245 0.0
C1029 C 0.72188 0.7575 0.77669 0.0
C1030 C 0.7652 0.77787 0.70799 0.0
C1031 C 0.7908 0.75408 0.72677 0.0
H1032 H 0.71337 0.79875 0.71658 0.0
H1033 H 0.77068 0.79477 0.67304 0.0
S1034 S 0.77972 0.69179 0.84389 0.0
N1035 N 0.74165 0.7119 0.8397 0.0
N1036 N 0.80412 0.70878 0.79431 0.0
C1037 C 0.78158 0.73227 0.7717 0.0
C1038 C 0.74739 0.73385 0.79632 0.0
C1039 C 0.74676 0.23476 0.20919 0.0
C1040 C 0.72162 0.25939 0.22666 0.0
C1041 C 0.7802 0.23292 0.23368 0.0
C1042 C 0.79044 0.25568 0.27685 0.0
H1043 H 0.74093 0.21711 0.17537 0.0
H1044 H 0.79805 0.213 0.21893 0.0
S1045 S 0.7344 0.3248 0.3389 0.0
N1046 N 0.70952 0.307 0.29068 0.0
N1047 N 0.77192 0.30357 0.33632 0.0
C1048 C 0.76557 0.28051 0.29469 0.0
C1049 C 0.73142 0.28227 0.26991 0.0
C1050 C 0.02849 0.03032 0.01669 0.0
C1051 C 0.00622 0.04078 0.97304 0.0
C1052 C 0.02623 0.99685 0.04098 0.0
C1053 C 1.00164 0.97183 0.02286 0.0
H1054 H 0.04832 0.04806 0.03204 0.0
H1055 H 0.04355 0.99089 0.0752 0.0
S1056 S 0.93798 0.98488 0.90823 0.0
N1057 N 0.95921 0.02235 0.91169 0.0
N1058 N 0.95495 0.95993 0.95714 0.0
C1059 C 0.97939 0.98175 0.97889 0.0
C1060 C 0.98159 0.01594 0.95423 0.0
C1061 C 0.48454 0.01439 0.54287 0.0
C1062 C 0.50927 0.03951 0.52569 0.0
C1063 C 0.48269 0.98099 0.51817 0.0
C1064 C 0.50557 0.97075 0.47511 0.0
H1065 H 0.46681 0.02021 0.57664 0.0
H1066 H 0.46269 0.96315 0.5327 0.0
S1067 S 0.5749 0.02682 0.41361 0.0
N1068 N 0.55702 0.05162 0.46186 0.0
N1069 N 0.55363 0.98934 0.41595 0.0
C1070 C 0.53048 0.99564 0.45751 0.0
C1071 C 0.53222 0.02973 0.48247 0.0
loop_
_geom_bond_atom_site_label_1
_geom_bond_atom_site_label_2
_geom_bond_distance
_geom_bond_site_symmetry_2
_ccdc_geom_bond_type
C0 O16 1.251 . S
C0 O18 1.254 . S
N1 C2 1.333 . S
N1 C6 1.307 . S
N1 Zn7 2.020 . S
C2 N1 1.333 . S
C2 C3 1.379 . S
C2 H20 0.952 . S
C3 C2 1.379 . S
C3 C4 1.390 . S
C3 H30 0.949 . S
C4 C3 1.390 . S
C4 C5 1.357 . S
C5 C4 1.357 . S
C5 C6 1.370 . S
C5 H31 0.950 . S
C6 N1 1.307 . S
C6 C5 1.370 . S
C6 H24 0.948 . S
Zn7 N1 2.020 . S
Zn7 O16 2.039 . S
Zn7 O22 2.034 . S
Zn7 O26 2.025 . S
Zn7 O28 2.024 . S
C8 O27 1.246 . S
C8 O28 1.249 . S
N9 C10 1.307 . S
N9 C11 1.333 1_554 S
N9 Zn15 2.020 . S
C10 N9 1.307 . S
C10 C14 1.370 1_554 S
C10 H21 0.948 . S
C11 N9 1.333 1_556 S
C11 C12 1.379 . S
C11 H19 0.952 . S
C12 C11 1.379 . S
C12 C13 1.390 . S
C12 H32 0.949 . S
C13 C12 1.390 . S
C13 C14 1.357 . S
C14 C10 1.370 1_556 S
C14 C13 1.357 . S
C14 H33 0.950 1_556 S
Zn15 N9 2.020 . S
Zn15 O18 2.025 . S
Zn15 O23 2.024 . S
Zn15 O25 2.039 . S
Zn15 O27 2.034 . S
O16 C0 1.251 . S
O16 Zn7 2.039 . S
C17 O22 1.246 . S
C17 O23 1.249 . S
O18 C0 1.254 . S
O18 Zn15 2.025 . S
H19 C11 0.952 . S
H20 C2 0.952 . S
H21 C10 0.948 . S
O22 Zn7 2.034 . S
O22 C17 1.246 . S
O23 Zn15 2.024 . S
O23 C17 1.249 . S
H24 C6 0.948 . S
O25 Zn15 2.039 . S
O25 C29 1.251 . S
O26 Zn7 2.025 . S
O26 C29 1.254 . S
O27 C8 1.246 . S
O27 Zn15 2.034 . S
O28 Zn7 2.024 . S
O28 C8 1.249 . S
C29 O25 1.251 . S
C29 O26 1.254 . S
H30 C3 0.949 . S
H31 C5 0.950 . S
H32 C12 0.949 . S
H33 C14 0.950 1_554 S
C34 O50 1.251 . S
C34 O52 1.254 . S
N35 C36 1.333 . S
N35 C40 1.307 . S
N35 Zn41 2.020 . S
C36 N35 1.333 . S
C36 C37 1.379 . S
C36 H54 0.952 . S
C37 C36 1.379 . S
C37 C38 1.390 . S
C37 H64 0.949 . S
C38 C37 1.390 . S
C38 C39 1.357 . S
C39 C38 1.357 . S
C39 C40 1.370 . S
C39 H65 0.950 . S
C40 N35 1.307 . S
C40 C39 1.370 . S
C40 H58 0.948 . S
Zn41 N35 2.020 . S
Zn41 O50 2.039 . S
Zn41 O56 2.034 . S
Zn41 O60 2.025 . S
Zn41 O62 2.024 . S
C42 O61 1.246 . S
C42 O62 1.249 . S
N43 C44 1.307 . S
N43 C45 1.333 . S
N43 Zn49 2.020 . S
C44 N43 1.307 . S
C44 C48 1.370 . S
C44 H55 0.948 . S
C45 N43 1.333 . S
C45 C46 1.379 . S
C45 H53 0.952 . S
C46 C45 1.379 . S
C46 C47 1.390 . S
C46 H66 0.949 . S
C47 C46 1.390 . S
C47 C48 1.357 . S
C48 C44 1.370 . S
C48 C47 1.357 . S
C48 H67 0.950 . S
Zn49 N43 2.020 . S
Zn49 O52 2.025 . S
Zn49 O57 2.024 . S
Zn49 O59 2.039 . S
Zn49 O61 2.034 . S
O50 C34 1.251 . S
O50 Zn41 2.039 . S
C51 O56 1.246 . S
C51 O57 1.249 . S
O52 C34 1.254 . S
O52 Zn49 2.025 . S
H53 C45 0.952 . S
H54 C36 0.952 . S
H55 C44 0.948 . S
O56 Zn41 2.034 . S
O56 C51 1.246 . S
O57 Zn49 2.024 . S
O57 C51 1.249 . S
H58 C40 0.948 . S
O59 Zn49 2.039 . S
O59 C63 1.251 . S
O60 Zn41 2.025 . S
O60 C63 1.254 . S
O61 C42 1.246 . S
O61 Zn49 2.034 . S
O62 Zn41 2.024 . S
O62 C42 1.249 . S
C63 O59 1.251 . S
C63 O60 1.254 . S
H64 C37 0.949 . S
H65 C39 0.950 . S
H66 C46 0.949 . S
H67 C48 0.950 . S
C68 O84 1.251 . S
C68 O86 1.254 . S
N69 C70 1.333 . S
N69 C74 1.307 . S
N69 Zn75 2.020 . S
C70 N69 1.333 . S
C70 C71 1.379 . S
C70 H88 0.952 . S
C71 C70 1.379 . S
C71 C72 1.390 . S
C71 H98 0.949 . S
C72 C71 1.390 . S
C72 C73 1.357 . S
C73 C72 1.357 . S
C73 C74 1.370 . S
C73 H99 0.950 . S
C74 N69 1.307 . S
C74 C73 1.370 . S
C74 H92 0.948 . S
Zn75 N69 2.020 . S
Zn75 O84 2.039 . S
Zn75 O90 2.034 . S
Zn75 O94 2.025 . S
Zn75 O96 2.024 . S
C76 O95 1.246 . S
C76 O96 1.249 . S
N77 C78 1.307 . S
N77 C79 1.333 . S
N77 Zn83 2.020 . S
C78 N77 1.307 . S
C78 C82 1.370 . S
C78 H89 0.948 . S
C79 N77 1.333 . S
C79 C80 1.379 . S
C79 H87 0.952 . S
C80 C79 1.379 . S
C80 C81 1.390 . S
C80 H100 0.949 . S
C81 C80 1.390 . S
C81 C82 1.357 . S
C82 C78 1.370 . S
C82 C81 1.357 . S
C82 H101 0.950 . S
Zn83 N77 2.020 . S
Zn83 O86 2.025 . S
Zn83 O91 2.024 . S
Zn83 O93 2.039 . S
Zn83 O95 2.034 . S
O84 C68 1.251 . S
O84 Zn75 2.039 . S
C85 O90 1.246 . S
C85 O91 1.249 . S
O86 C68 1.254 . S
O86 Zn83 2.025 . S
H87 C79 0.952 . S
H88 C70 0.952 . S
H89 C78 0.948 . S
O90 Zn75 2.034 . S
O90 C85 1.246 . S
O91 Zn83 2.024 . S
O91 C85 1.249 . S
H92 C74 0.948 . S
O93 Zn83 2.039 . S
O93 C97 1.251 . S
O94 Zn75 2.025 . S
O94 C97 1.254 . S
O95 C76 1.246 . S
O95 Zn83 2.034 . S
O96 Zn75 2.024 . S
O96 C76 1.249 . S
C97 O93 1.251 . S
C97 O94 1.254 . S
H98 C71 0.949 . S
H99 C73 0.950 . S
H100 C80 0.949 . S
H101 C82 0.950 . S
C102 O118 1.251 . S
C102 O120 1.254 . S
N103 C104 1.333 . S
N103 C108 1.307 . S
N103 Zn109 2.020 . S
C104 N103 1.333 . S
C104 C105 1.379 1_556 S
C104 H122 0.952 . S
C105 C104 1.379 1_554 S
C105 C106 1.390 . S
C105 H132 0.949 . S
C106 C105 1.390 . S
C106 C107 1.357 1_554 S
C107 C106 1.357 1_556 S
C107 C108 1.370 . S
C107 H133 0.950 . S
C108 N103 1.307 . S
C108 C107 1.370 . S
C108 H126 0.948 . S
Zn109 N103 2.020 . S
Zn109 O118 2.039 . S
Zn109 O124 2.034 . S
Zn109 O128 2.025 . S
Zn109 O130 2.024 . S
C110 O129 1.246 . S
C110 O130 1.249 . S
N111 C112 1.307 . S
N111 C113 1.333 . S
N111 Zn117 2.020 1_455 S
C112 N111 1.307 . S
C112 C116 1.370 . S
C112 H123 0.948 . S
C113 N111 1.333 . S
C113 C114 1.379 . S
C113 H121 0.952 1_455 S
C114 C113 1.379 . S
C114 C115 1.390 . S
C114 H134 0.949 . S
C115 C114 1.390 . S
C115 C116 1.357 . S
C116 C112 1.370 . S
C116 C115 1.357 . S
C116 H135 0.950 . S
Zn117 N111 2.020 1_655 S
Zn117 O120 2.025 . S
Zn117 O125 2.024 . S
Zn117 O127 2.039 . S
Zn117 O129 2.034 . S
O118 C102 1.251 . S
O118 Zn109 2.039 . S
C119 O124 1.246 . S
C119 O125 1.249 . S
O120 C102 1.254 . S
O120 Zn117 2.025 . S
H121 C113 0.952 1_655 S
H122 C104 0.952 . S
H123 C112 0.948 . S
O124 Zn109 2.034 . S
O124 C119 1.246 . S
O125 Zn117 2.024 . S
O125 C119 1.249 . S
H126 C108 0.948 . S
O127 Zn117 2.039 . S
O127 C131 1.251 . S
O128 Zn109 2.025 . S
O128 C131 1.254 . S
O129 C110 1.246 . S
O129 Zn117 2.034 . S
O130 Zn109 2.024 . S
O130 C110 1.249 . S
C131 O127 1.251 . S
C131 O128 1.254 . S
H132 C105 0.949 . S
H133 C107 0.950 . S
H134 C114 0.949 . S
H135 C116 0.950 . S
C136 O152 1.251 . S
C136 O154 1.254 . S
N137 C138 1.333 1_556 S
N137 C142 1.307 . S
N137 Zn143 2.020 . S
C138 N137 1.333 1_554 S
C138 C139 1.379 . S
C138 H156 0.952 . S
C139 C138 1.379 . S
C139 C140 1.390 . S
C139 H166 0.949 . S
C140 C139 1.390 . S
C140 C141 1.357 . S
C141 C140 1.357 . S
C141 C142 1.370 1_554 S
C141 H167 0.950 1_554 S
C142 N137 1.307 . S
C142 C141 1.370 1_556 S
C142 H160 0.948 . S
Zn143 N137 2.020 . S
Zn143 O152 2.039 . S
Zn143 O158 2.034 . S
Zn143 O162 2.025 . S
Zn143 O164 2.024 . S
C144 O163 1.246 . S
C144 O164 1.249 . S
N145 C146 1.307 . S
N145 C147 1.333 . S
N145 Zn151 2.020 . S
C146 N145 1.307 . S
C146 C150 1.370 . S
C146 H157 0.948 . S
C147 N145 1.333 . S
C147 C148 1.379 . S
C147 H155 0.952 . S
C148 C147 1.379 . S
C148 C149 1.390 . S
C148 H168 0.949 . S
C149 C148 1.390 . S
C149 C150 1.357 . S
C150 C146 1.370 . S
C150 C149 1.357 . S
C150 H169 0.950 . S
Zn151 N145 2.020 . S
Zn151 O154 2.025 . S
Zn151 O159 2.024 . S
Zn151 O161 2.039 . S
Zn151 O163 2.034 . S
O152 C136 1.251 . S
O152 Zn143 2.039 . S
C153 O158 1.246 . S
C153 O159 1.249 . S
O154 C136 1.254 . S
O154 Zn151 2.025 . S
H155 C147 0.952 . S
H156 C138 0.952 . S
H157 C146 0.948 . S
O158 Zn143 2.034 . S
O158 C153 1.246 . S
O159 Zn151 2.024 . S
O159 C153 1.249 . S
H160 C142 0.948 . S
O161 Zn151 2.039 . S
O161 C165 1.251 . S
O162 Zn143 2.025 . S
O162 C165 1.254 . S
O163 C144 1.246 . S
O163 Zn151 2.034 . S
O164 Zn143 2.024 . S
O164 C144 1.249 . S
C165 O161 1.251 . S
C165 O162 1.254 . S
H166 C139 0.949 . S
H167 C141 0.950 1_556 S
H168 C148 0.949 . S
H169 C150 0.950 . S
C170 O186 1.251 . S
C170 O188 1.254 . S
N171 C172 1.333 . S
N171 C176 1.307 . S
N171 Zn177 2.020 . S
C172 N171 1.333 . S
C172 C173 1.379 . S
C172 H190 0.952 . S
C173 C172 1.379 . S
C173 C174 1.390 . S
C173 H200 0.949 . S
C174 C173 1.390 . S
C174 C175 1.357 . S
C175 C174 1.357 . S
C175 C176 1.370 . S
C175 H201 0.950 . S
C176 N171 1.307 . S
C176 C175 1.370 . S
C176 H194 0.948 . S
Zn177 N171 2.020 . S
Zn177 O186 2.039 . S
Zn177 O192 2.034 . S
Zn177 O196 2.025 . S
Zn177 O198 2.024 . S
C178 O197 1.246 . S
C178 O198 1.249 . S
N179 C180 1.307 . S
N179 C181 1.333 . S
N179 Zn185 2.020 . S
C180 N179 1.307 . S
C180 C184 1.370 . S
C180 H191 0.948 . S
C181 N179 1.333 . S
C181 C182 1.379 . S
C181 H189 0.952 . S
C182 C181 1.379 . S
C182 C183 1.390 . S
C182 H202 0.949 . S
C183 C182 1.390 . S
C183 C184 1.357 . S
C184 C180 1.370 . S
C184 C183 1.357 . S
C184 H203 0.950 . S
Zn185 N179 2.020 . S
Zn185 O188 2.025 . S
Zn185 O193 2.024 . S
Zn185 O195 2.039 . S
Zn185 O197 2.034 . S
O186 C170 1.251 . S
O186 Zn177 2.039 . S
C187 O192 1.246 . S
C187 O193 1.249 . S
O188 C170 1.254 . S
O188 Zn185 2.025 . S
H189 C181 0.952 . S
H190 C172 0.952 . S
H191 C180 0.948 . S
O192 Zn177 2.034 . S
O192 C187 1.246 . S
O193 Zn185 2.024 . S
O193 C187 1.249 . S
H194 C176 0.948 . S
O195 Zn185 2.039 . S
O195 C199 1.251 . S
O196 Zn177 2.025 . S
O196 C199 1.254 . S
O197 C178 1.246 . S
O197 Zn185 2.034 . S
O198 Zn177 2.024 . S
O198 C178 1.249 . S
C199 O195 1.251 . S
C199 O196 1.254 . S
H200 C173 0.949 . S
H201 C175 0.950 . S
H202 C182 0.949 . S
H203 C184 0.950 . S
C204 O220 1.251 . S
C204 O222 1.254 . S
N205 C206 1.333 . S
N205 C210 1.307 . S
N205 Zn211 2.020 . S
C206 N205 1.333 . S
C206 C207 1.379 . S
C206 H224 0.952 . S
C207 C206 1.379 . S
C207 C208 1.390 . S
C207 H234 0.949 . S
C208 C207 1.390 . S
C208 C209 1.357 . S
C209 C208 1.357 . S
C209 C210 1.370 . S
C209 H235 0.950 . S
C210 N205 1.307 . S
C210 C209 1.370 . S
C210 H228 0.948 . S
Zn211 N205 2.020 . S
Zn211 O220 2.039 . S
Zn211 O226 2.034 . S
Zn211 O230 2.025 . S
Zn211 O232 2.024 . S
C212 O231 1.246 . S
C212 O232 1.249 . S
N213 C214 1.307 . S
N213 C215 1.333 . S
N213 Zn219 2.020 . S
C214 N213 1.307 . S
C214 C218 1.370 . S
C214 H225 0.948 . S
C215 N213 1.333 . S
C215 C216 1.379 . S
C215 H223 0.952 . S
C216 C215 1.379 . S
C216 C217 1.390 . S
C216 H236 0.949 . S
C217 C216 1.390 . S
C217 C218 1.357 . S
C218 C214 1.370 . S
C218 C217 1.357 . S
C218 H237 0.950 . S
Zn219 N213 2.020 . S
Zn219 O222 2.025 . S
Zn219 O227 2.024 . S
Zn219 O229 2.039 . S
Zn219 O231 2.034 . S
O220 C204 1.251 . S
O220 Zn211 2.039 . S
C221 O226 1.246 . S
C221 O227 1.249 . S
O222 C204 1.254 . S
O222 Zn219 2.025 . S
H223 C215 0.952 . S
H224 C206 0.952 . S
H225 C214 0.948 . S
O226 Zn211 2.034 . S
O226 C221 1.246 . S
O227 Zn219 2.024 . S
O227 C221 1.249 . S
H228 C210 0.948 . S
O229 Zn219 2.039 . S
O229 C233 1.251 . S
O230 Zn211 2.025 . S
O230 C233 1.254 . S
O231 C212 1.246 . S
O231 Zn219 2.034 . S
O232 Zn211 2.024 . S
O232 C212 1.249 . S
C233 O229 1.251 . S
C233 O230 1.254 . S
H234 C207 0.949 . S
H235 C209 0.950 . S
H236 C216 0.949 . S
H237 C218 0.950 . S
C238 O254 1.251 . S
C238 O256 1.254 . S
N239 C240 1.333 . S
N239 C244 1.307 . S
N239 Zn245 2.020 1_655 S
C240 N239 1.333 . S
C240 C241 1.379 . S
C240 H258 0.952 1_655 S
C241 C240 1.379 . S
C241 C242 1.390 . S
C241 H268 0.949 . S
C242 C241 1.390 . S
C242 C243 1.357 . S
C243 C242 1.357 . S
C243 C244 1.370 . S
C243 H269 0.950 . S
C244 N239 1.307 . S
C244 C243 1.370 . S
C244 H262 0.948 . S
Zn245 N239 2.020 1_455 S
Zn245 O254 2.039 . S
Zn245 O260 2.034 . S
Zn245 O264 2.025 . S
Zn245 O266 2.024 . S
C246 O265 1.246 . S
C246 O266 1.249 . S
N247 C248 1.307 . S
N247 C249 1.333 . S
N247 Zn253 2.020 . S
C248 N247 1.307 . S
C248 C252 1.370 . S
C248 H259 0.948 . S
C249 N247 1.333 . S
C249 C250 1.379 1_554 S
C249 H257 0.952 . S
C250 C249 1.379 1_556 S
C250 C251 1.390 . S
C250 H270 0.949 . S
C251 C250 1.390 . S
C251 C252 1.357 1_556 S
C252 C248 1.370 . S
C252 C251 1.357 1_554 S
C252 H271 0.950 . S
Zn253 N247 2.020 . S
Zn253 O256 2.025 . S
Zn253 O261 2.024 . S
Zn253 O263 2.039 . S
Zn253 O265 2.034 . S
O254 C238 1.251 . S
O254 Zn245 2.039 . S
C255 O260 1.246 . S
C255 O261 1.249 . S
O256 C238 1.254 . S
O256 Zn253 2.025 . S
H257 C249 0.952 . S
H258 C240 0.952 1_455 S
H259 C248 0.948 . S
O260 Zn245 2.034 . S
O260 C255 1.246 . S
O261 Zn253 2.024 . S
O261 C255 1.249 . S
H262 C244 0.948 . S
O263 Zn253 2.039 . S
O263 C267 1.251 . S
O264 Zn245 2.025 . S
O264 C267 1.254 . S
O265 C246 1.246 . S
O265 Zn253 2.034 . S
O266 Zn245 2.024 . S
O266 C246 1.249 . S
C267 O263 1.251 . S
C267 O264 1.254 . S
H268 C241 0.949 . S
H269 C243 0.950 . S
H270 C250 0.949 . S
H271 C252 0.950 . S
C272 O288 1.251 . S
C272 O290 1.254 . S
N273 C274 1.333 . S
N273 C278 1.307 . S
N273 Zn279 2.020 . S
C274 N273 1.333 . S
C274 C275 1.379 . S
C274 H292 0.952 . S
C275 C274 1.379 . S
C275 C276 1.390 . S
C275 H302 0.949 . S
C276 C275 1.390 . S
C276 C277 1.357 . S
C277 C276 1.357 . S
C277 C278 1.370 . S
C277 H303 0.950 . S
C278 N273 1.307 . S
C278 C277 1.370 . S
C278 H296 0.948 . S
Zn279 N273 2.020 . S
Zn279 O288 2.039 . S
Zn279 O294 2.034 . S
Zn279 O298 2.025 . S
Zn279 O300 2.024 . S
C280 O299 1.246 . S
C280 O300 1.249 . S
N281 C282 1.307 . S
N281 C283 1.333 . S
N281 Zn287 2.020 . S
C282 N281 1.307 . S
C282 C286 1.370 . S
C282 H293 0.948 . S
C283 N281 1.333 . S
C283 C284 1.379 . S
C283 H291 0.952 . S
C284 C283 1.379 . S
C284 C285 1.390 . S
C284 H304 0.949 . S
C285 C284 1.390 . S
C285 C286 1.357 . S
C286 C282 1.370 . S
C286 C285 1.357 . S
C286 H305 0.950 . S
Zn287 N281 2.020 . S
Zn287 O290 2.025 . S
Zn287 O295 2.024 . S
Zn287 O297 2.039 . S
Zn287 O299 2.034 . S
O288 C272 1.251 . S
O288 Zn279 2.039 . S
C289 O294 1.246 . S
C289 O295 1.249 . S
O290 C272 1.254 . S
O290 Zn287 2.025 . S
H291 C283 0.952 . S
H292 C274 0.952 . S
H293 C282 0.948 . S
O294 Zn279 2.034 . S
O294 C289 1.246 . S
O295 Zn287 2.024 . S
O295 C289 1.249 . S
H296 C278 0.948 . S
O297 Zn287 2.039 . S
O297 C301 1.251 . S
O298 Zn279 2.025 . S
O298 C301 1.254 . S
O299 C280 1.246 . S
O299 Zn287 2.034 . S
O300 Zn279 2.024 . S
O300 C280 1.249 . S
C301 O297 1.251 . S
C301 O298 1.254 . S
H302 C275 0.949 . S
H303 C277 0.950 . S
H304 C284 0.949 . S
H305 C286 0.950 . S
C306 O322 1.251 . S
C306 O324 1.254 . S
N307 C308 1.333 . S
N307 C312 1.307 . S
N307 Zn313 2.020 . S
C308 N307 1.333 . S
C308 C309 1.379 1_556 S
C308 H326 0.952 . S
C309 C308 1.379 1_554 S
C309 C310 1.390 . S
C309 H336 0.949 . S
C310 C309 1.390 . S
C310 C311 1.357 1_554 S
C311 C310 1.357 1_556 S
C311 C312 1.370 . S
C311 H337 0.950 . S
C312 N307 1.307 . S
C312 C311 1.370 . S
C312 H330 0.948 . S
Zn313 N307 2.020 . S
Zn313 O322 2.039 . S
Zn313 O328 2.034 . S
Zn313 O332 2.025 . S
Zn313 O334 2.024 . S
C314 O333 1.246 . S
C314 O334 1.249 . S
N315 C316 1.307 . S
N315 C317 1.333 . S
N315 Zn321 2.020 1_655 S
C316 N315 1.307 . S
C316 C320 1.370 . S
C316 H327 0.948 . S
C317 N315 1.333 . S
C317 C318 1.379 . S
C317 H325 0.952 1_655 S
C318 C317 1.379 . S
C318 C319 1.390 . S
C318 H338 0.949 . S
C319 C318 1.390 . S
C319 C320 1.357 . S
C320 C316 1.370 . S
C320 C319 1.357 . S
C320 H339 0.950 . S
Zn321 N315 2.020 1_455 S
Zn321 O324 2.025 . S
Zn321 O329 2.024 . S
Zn321 O331 2.039 . S
Zn321 O333 2.034 . S
O322 C306 1.251 . S
O322 Zn313 2.039 . S
C323 O328 1.246 . S
C323 O329 1.249 . S
O324 C306 1.254 . S
O324 Zn321 2.025 . S
H325 C317 0.952 1_455 S
H326 C308 0.952 . S
H327 C316 0.948 . S
O328 Zn313 2.034 . S
O328 C323 1.246 . S
O329 Zn321 2.024 . S
O329 C323 1.249 . S
H330 C312 0.948 . S
O331 Zn321 2.039 . S
O331 C335 1.251 . S
O332 Zn313 2.025 . S
O332 C335 1.254 . S
O333 C314 1.246 . S
O333 Zn321 2.034 . S
O334 Zn313 2.024 . S
O334 C314 1.249 . S
C335 O331 1.251 . S
C335 O332 1.254 . S
H336 C309 0.949 . S
H337 C311 0.950 . S
H338 C318 0.949 . S
H339 C320 0.950 . S
C340 O356 1.251 . S
C340 O358 1.254 . S
N341 C342 1.333 . S
N341 C346 1.307 . S
N341 Zn347 2.020 . S
C342 N341 1.333 . S
C342 C343 1.379 . S
C342 H360 0.952 . S
C343 C342 1.379 . S
C343 C344 1.390 . S
C343 H370 0.949 . S
C344 C343 1.390 . S
C344 C345 1.357 . S
C345 C344 1.357 . S
C345 C346 1.370 . S
C345 H371 0.950 . S
C346 N341 1.307 . S
C346 C345 1.370 . S
C346 H364 0.948 . S
Zn347 N341 2.020 . S
Zn347 O356 2.039 . S
Zn347 O362 2.034 . S
Zn347 O366 2.025 . S
Zn347 O368 2.024 . S
C348 O367 1.246 . S
C348 O368 1.249 . S
N349 C350 1.307 . S
N349 C351 1.333 1_554 S
N349 Zn355 2.020 . S
C350 N349 1.307 . S
C350 C354 1.370 1_554 S
C350 H361 0.948 . S
C351 N349 1.333 1_556 S
C351 C352 1.379 . S
C351 H359 0.952 . S
C352 C351 1.379 . S
C352 C353 1.390 . S
C352 H372 0.949 . S
C353 C352 1.390 . S
C353 C354 1.357 . S
C354 C350 1.370 1_556 S
C354 C353 1.357 . S
C354 H373 0.950 1_556 S
Zn355 N349 2.020 . S
Zn355 O358 2.025 . S
Zn355 O363 2.024 . S
Zn355 O365 2.039 . S
Zn355 O367 2.034 . S
O356 C340 1.251 . S
O356 Zn347 2.039 . S
C357 O362 1.246 . S
C357 O363 1.249 . S
O358 C340 1.254 . S
O358 Zn355 2.025 . S
H359 C351 0.952 . S
H360 C342 0.952 . S
H361 C350 0.948 . S
O362 Zn347 2.034 . S
O362 C357 1.246 . S
O363 Zn355 2.024 . S
O363 C357 1.249 . S
H364 C346 0.948 . S
O365 Zn355 2.039 . S
O365 C369 1.251 . S
O366 Zn347 2.025 . S
O366 C369 1.254 . S
O367 C348 1.246 . S
O367 Zn355 2.034 . S
O368 Zn347 2.024 . S
O368 C348 1.249 . S
C369 O365 1.251 . S
C369 O366 1.254 . S
H370 C343 0.949 . S
H371 C345 0.950 . S
H372 C352 0.949 . S
H373 C354 0.950 1_554 S
C374 O390 1.251 . S
C374 O392 1.254 . S
N375 C376 1.333 . S
N375 C380 1.307 . S
N375 Zn381 2.020 . S
C376 N375 1.333 . S
C376 C377 1.379 . S
C376 H394 0.952 . S
C377 C376 1.379 . S
C377 C378 1.390 . S
C377 H404 0.949 . S
C378 C377 1.390 . S
C378 C379 1.357 . S
C379 C378 1.357 . S
C379 C380 1.370 . S
C379 H405 0.950 . S
C380 N375 1.307 . S
C380 C379 1.370 . S
C380 H398 0.948 . S
Zn381 N375 2.020 . S
Zn381 O390 2.039 . S
Zn381 O396 2.034 . S
Zn381 O400 2.025 . S
Zn381 O402 2.024 . S
C382 O401 1.246 . S
C382 O402 1.249 . S
N383 C384 1.307 . S
N383 C385 1.333 . S
N383 Zn389 2.020 . S
C384 N383 1.307 . S
C384 C388 1.370 . S
C384 H395 0.948 . S
C385 N383 1.333 . S
C385 C386 1.379 . S
C385 H393 0.952 . S
C386 C385 1.379 . S
C386 C387 1.390 . S
C386 H406 0.949 . S
C387 C386 1.390 . S
C387 C388 1.357 . S
C388 C384 1.370 . S
C388 C387 1.357 . S
C388 H407 0.950 . S
Zn389 N383 2.020 . S
Zn389 O392 2.025 . S
Zn389 O397 2.024 . S
Zn389 O399 2.039 . S
Zn389 O401 2.034 . S
O390 C374 1.251 . S
O390 Zn381 2.039 . S
C391 O396 1.246 . S
C391 O397 1.249 . S
O392 C374 1.254 . S
O392 Zn389 2.025 . S
H393 C385 0.952 . S
H394 C376 0.952 . S
H395 C384 0.948 . S
O396 Zn381 2.034 . S
O396 C391 1.246 . S
O397 Zn389 2.024 . S
O397 C391 1.249 . S
H398 C380 0.948 . S
O399 Zn389 2.039 . S
O399 C403 1.251 . S
O400 Zn381 2.025 . S
O400 C403 1.254 . S
O401 C382 1.246 . S
O401 Zn389 2.034 . S
O402 Zn381 2.024 . S
O402 C382 1.249 . S
C403 O399 1.251 . S
C403 O400 1.254 . S
H404 C377 0.949 . S
H405 C379 0.950 . S
H406 C386 0.949 . S
H407 C388 0.950 . S
C408 O424 1.251 . S
C408 O426 1.254 . S
N409 C410 1.333 . S
N409 C414 1.307 . S
N409 Zn415 2.020 . S
C410 N409 1.333 . S
C410 C411 1.379 . S
C410 H428 0.952 . S
C411 C410 1.379 . S
C411 C412 1.390 . S
C411 H438 0.949 . S
C412 C411 1.390 . S
C412 C413 1.357 . S
C413 C412 1.357 . S
C413 C414 1.370 . S
C413 H439 0.950 . S
C414 N409 1.307 . S
C414 C413 1.370 . S
C414 H432 0.948 . S
Zn415 N409 2.020 . S
Zn415 O424 2.039 . S
Zn415 O430 2.034 . S
Zn415 O434 2.025 . S
Zn415 O436 2.024 . S
C416 O435 1.246 . S
C416 O436 1.249 . S
N417 C418 1.307 . S
N417 C419 1.333 . S
N417 Zn423 2.020 . S
C418 N417 1.307 . S
C418 C422 1.370 . S
C418 H429 0.948 . S
C419 N417 1.333 . S
C419 C420 1.379 . S
C419 H427 0.952 . S
C420 C419 1.379 . S
C420 C421 1.390 . S
C420 H440 0.949 . S
C421 C420 1.390 . S
C421 C422 1.357 . S
C422 C418 1.370 . S
C422 C421 1.357 . S
C422 H441 0.950 . S
Zn423 N417 2.020 . S
Zn423 O426 2.025 . S
Zn423 O431 2.024 . S
Zn423 O433 2.039 . S
Zn423 O435 2.034 . S
O424 C408 1.251 . S
O424 Zn415 2.039 . S
C425 O430 1.246 . S
C425 O431 1.249 . S
O426 C408 1.254 . S
O426 Zn423 2.025 . S
H427 C419 0.952 . S
H428 C410 0.952 . S
H429 C418 0.948 . S
O430 Zn415 2.034 . S
O430 C425 1.246 . S
O431 Zn423 2.024 . S
O431 C425 1.249 . S
H432 C414 0.948 . S
O433 Zn423 2.039 . S
O433 C437 1.251 . S
O434 Zn415 2.025 . S
O434 C437 1.254 . S
O435 C416 1.246 . S
O435 Zn423 2.034 . S
O436 Zn415 2.024 . S
O436 C416 1.249 . S
C437 O433 1.251 . S
C437 O434 1.254 . S
H438 C411 0.949 . S
H439 C413 0.950 . S
H440 C420 0.949 . S
H441 C422 0.950 . S
C442 O458 1.251 . S
C442 O460 1.254 . S
N443 C444 1.333 . S
N443 C448 1.307 . S
N443 Zn449 2.020 1_455 S
C444 N443 1.333 . S
C444 C445 1.379 . S
C444 H462 0.952 1_455 S
C445 C444 1.379 . S
C445 C446 1.390 . S
C445 H472 0.949 . S
C446 C445 1.390 . S
C446 C447 1.357 . S
C447 C446 1.357 . S
C447 C448 1.370 . S
C447 H473 0.950 . S
C448 N443 1.307 . S
C448 C447 1.370 . S
C448 H466 0.948 . S
Zn449 N443 2.020 1_655 S
Zn449 O458 2.039 . S
Zn449 O464 2.034 . S
Zn449 O468 2.025 . S
Zn449 O470 2.024 . S
C450 O469 1.246 . S
C450 O470 1.249 . S
N451 C452 1.307 . S
N451 C453 1.333 . S
N451 Zn457 2.020 . S
C452 N451 1.307 . S
C452 C456 1.370 . S
C452 H463 0.948 . S
C453 N451 1.333 . S
C453 C454 1.379 1_554 S
C453 H461 0.952 . S
C454 C453 1.379 1_556 S
C454 C455 1.390 . S
C454 H474 0.949 . S
C455 C454 1.390 . S
C455 C456 1.357 1_556 S
C456 C452 1.370 . S
C456 C455 1.357 1_554 S
C456 H475 0.950 . S
Zn457 N451 2.020 . S
Zn457 O460 2.025 . S
Zn457 O465 2.024 . S
Zn457 O467 2.039 . S
Zn457 O469 2.034 . S
O458 C442 1.251 . S
O458 Zn449 2.039 . S
C459 O464 1.246 . S
C459 O465 1.249 . S
O460 C442 1.254 . S
O460 Zn457 2.025 . S
H461 C453 0.952 . S
H462 C444 0.952 1_655 S
H463 C452 0.948 . S
O464 Zn449 2.034 . S
O464 C459 1.246 . S
O465 Zn457 2.024 . S
O465 C459 1.249 . S
H466 C448 0.948 . S
O467 Zn457 2.039 . S
O467 C471 1.251 . S
O468 Zn449 2.025 . S
O468 C471 1.254 . S
O469 C450 1.246 . S
O469 Zn457 2.034 . S
O470 Zn449 2.024 . S
O470 C450 1.249 . S
C471 O467 1.251 . S
C471 O468 1.254 . S
H472 C445 0.949 . S
H473 C447 0.950 . S
H474 C454 0.949 . S
H475 C456 0.950 . S
C476 O492 1.251 . S
C476 O494 1.254 . S
N477 C478 1.333 1_556 S
N477 C482 1.307 . S
N477 Zn483 2.020 . S
C478 N477 1.333 1_554 S
C478 C479 1.379 . S
C478 H496 0.952 . S
C479 C478 1.379 . S
C479 C480 1.390 . S
C479 H506 0.949 . S
C480 C479 1.390 . S
C480 C481 1.357 . S
C481 C480 1.357 . S
C481 C482 1.370 1_554 S
C481 H507 0.950 1_554 S
C482 N477 1.307 . S
C482 C481 1.370 1_556 S
C482 H500 0.948 . S
Zn483 N477 2.020 . S
Zn483 O492 2.039 . S
Zn483 O498 2.034 . S
Zn483 O502 2.025 . S
Zn483 O504 2.024 . S
C484 O503 1.246 . S
C484 O504 1.249 . S
N485 C486 1.307 . S
N485 C487 1.333 . S
N485 Zn491 2.020 . S
C486 N485 1.307 . S
C486 C490 1.370 . S
C486 H497 0.948 . S
C487 N485 1.333 . S
C487 C488 1.379 . S
C487 H495 0.952 . S
C488 C487 1.379 . S
C488 C489 1.390 . S
C488 H508 0.949 . S
C489 C488 1.390 . S
C489 C490 1.357 . S
C490 C486 1.370 . S
C490 C489 1.357 . S
C490 H509 0.950 . S
Zn491 N485 2.020 . S
Zn491 O494 2.025 . S
Zn491 O499 2.024 . S
Zn491 O501 2.039 . S
Zn491 O503 2.034 . S
O492 C476 1.251 . S
O492 Zn483 2.039 . S
C493 O498 1.246 . S
C493 O499 1.249 . S
O494 C476 1.254 . S
O494 Zn491 2.025 . S
H495 C487 0.952 . S
H496 C478 0.952 . S
H497 C486 0.948 . S
O498 Zn483 2.034 . S
O498 C493 1.246 . S
O499 Zn491 2.024 . S
O499 C493 1.249 . S
H500 C482 0.948 . S
O501 Zn491 2.039 . S
O501 C505 1.251 . S
O502 Zn483 2.025 . S
O502 C505 1.254 . S
O503 C484 1.246 . S
O503 Zn491 2.034 . S
O504 Zn483 2.024 . S
O504 C484 1.249 . S
C505 O501 1.251 . S
C505 O502 1.254 . S
H506 C479 0.949 . S
H507 C481 0.950 1_556 S
H508 C488 0.949 . S
H509 C490 0.950 . S
C510 O526 1.251 . S
C510 O528 1.254 . S
N511 C512 1.333 . S
N511 C516 1.307 . S
N511 Zn517 2.020 . S
C512 N511 1.333 . S
C512 C513 1.379 . S
C512 H530 0.952 . S
C513 C512 1.379 . S
C513 C514 1.390 . S
C513 H540 0.949 . S
C514 C513 1.390 . S
C514 C515 1.357 . S
C515 C514 1.357 . S
C515 C516 1.370 . S
C515 H541 0.950 . S
C516 N511 1.307 . S
C516 C515 1.370 . S
C516 H534 0.948 . S
Zn517 N511 2.020 . S
Zn517 O526 2.039 . S
Zn517 O532 2.034 . S
Zn517 O536 2.025 . S
Zn517 O538 2.024 . S
C518 O537 1.246 . S
C518 O538 1.249 . S
N519 C520 1.307 . S
N519 C521 1.333 . S
N519 Zn525 2.020 . S
C520 N519 1.307 . S
C520 C524 1.370 . S
C520 H531 0.948 . S
C521 N519 1.333 . S
C521 C522 1.379 . S
C521 H529 0.952 . S
C522 C521 1.379 . S
C522 C523 1.390 . S
C522 H542 0.949 . S
C523 C522 1.390 . S
C523 C524 1.357 . S
C524 C520 1.370 . S
C524 C523 1.357 . S
C524 H543 0.950 . S
Zn525 N519 2.020 . S
Zn525 O528 2.025 . S
Zn525 O533 2.024 . S
Zn525 O535 2.039 . S
Zn525 O537 2.034 . S
O526 C510 1.251 . S
O526 Zn517 2.039 . S
C527 O532 1.246 . S
C527 O533 1.249 . S
O528 C510 1.254 . S
O528 Zn525 2.025 . S
H529 C521 0.952 . S
H530 C512 0.952 . S
H531 C520 0.948 . S
O532 Zn517 2.034 . S
O532 C527 1.246 . S
O533 Zn525 2.024 . S
O533 C527 1.249 . S
H534 C516 0.948 . S
O535 Zn525 2.039 . S
O535 C539 1.251 . S
O536 Zn517 2.025 . S
O536 C539 1.254 . S
O537 C518 1.246 . S
O537 Zn525 2.034 . S
O538 Zn517 2.024 . S
O538 C518 1.249 . S
C539 O535 1.251 . S
C539 O536 1.254 . S
H540 C513 0.949 . S
H541 C515 0.950 . S
H542 C522 0.949 . S
H543 C524 0.950 . S
C544 C545 1.369 . S
C544 C546 1.419 . S
C544 H548 0.930 . S
C545 C544 1.369 . S
C545 C554 1.429 . S
C546 C544 1.419 . S
C546 C547 1.363 . S
C546 H549 0.929 . S
C547 C546 1.363 . S
C547 C553 1.428 . S
H548 C544 0.930 . S
H549 C546 0.929 . S
S550 N551 1.613 . S
S550 N552 1.610 . S
N551 S550 1.613 . S
N551 C554 1.350 . S
N552 S550 1.610 . S
N552 C553 1.351 . S
C553 C547 1.428 . S
C553 N552 1.351 . S
C553 C554 1.434 . S
C554 C545 1.429 . S
C554 N551 1.350 . S
C554 C553 1.434 . S
C555 C556 1.369 . S
C555 C557 1.419 . S
C555 H559 0.930 . S
C556 C555 1.369 . S
C556 C565 1.429 . S
C557 C555 1.419 . S
C557 C558 1.363 . S
C557 H560 0.929 . S
C558 C557 1.363 . S
C558 C564 1.428 . S
H559 C555 0.930 . S
H560 C557 0.929 . S
S561 N562 1.613 . S
S561 N563 1.610 . S
N562 S561 1.613 . S
N562 C565 1.350 . S
N563 S561 1.610 . S
N563 C564 1.351 . S
C564 C558 1.428 . S
C564 N563 1.351 . S
C564 C565 1.434 . S
C565 C556 1.429 . S
C565 N562 1.350 . S
C565 C564 1.434 . S
C566 C567 1.369 . S
C566 C568 1.419 1_455 S
C566 H570 0.930 . S
C567 C566 1.369 . S
C567 C576 1.429 . S
C568 C566 1.419 1_655 S
C568 C569 1.363 . S
C568 H571 0.929 . S
C569 C568 1.363 . S
C569 C575 1.428 . S
H570 C566 0.930 . S
H571 C568 0.929 . S
S572 N573 1.613 1_655 S
S572 N574 1.610 . S
N573 S572 1.613 1_455 S
N573 C576 1.350 . S
N574 S572 1.610 . S
N574 C575 1.351 . S
C575 C569 1.428 . S
C575 N574 1.351 . S
C575 C576 1.434 1_655 S
C576 C567 1.429 . S
C576 N573 1.350 . S
C576 C575 1.434 1_455 S
C577 C578 1.369 . S
C577 C579 1.419 . S
C577 H581 0.930 . S
C578 C577 1.369 . S
C578 C587 1.429 1_655 S
C579 C577 1.419 . S
C579 C580 1.363 1_655 S
C579 H582 0.929 . S
C580 C579 1.363 1_455 S
C580 C586 1.428 . S
H581 C577 0.930 . S
H582 C579 0.929 . S
S583 N584 1.613 . S
S583 N585 1.610 . S
N584 S583 1.613 . S
N584 C587 1.350 . S
N585 S583 1.610 . S
N585 C586 1.351 . S
C586 C580 1.428 . S
C586 N585 1.351 . S
C586 C587 1.434 . S
C587 C578 1.429 1_455 S
C587 N584 1.350 . S
C587 C586 1.434 . S
C588 C589 1.369 . S
C588 C590 1.419 . S
C588 H592 0.930 . S
C589 C588 1.369 . S
C589 C598 1.429 . S
C590 C588 1.419 . S
C590 C591 1.363 . S
C590 H593 0.929 . S
C591 C590 1.363 . S
C591 C597 1.428 . S
H592 C588 0.930 . S
H593 C590 0.929 . S
S594 N595 1.613 . S
S594 N596 1.610 . S
N595 S594 1.613 . S
N595 C598 1.350 . S
N596 S594 1.610 . S
N596 C597 1.351 . S
C597 C591 1.428 . S
C597 N596 1.351 . S
C597 C598 1.434 . S
C598 C589 1.429 . S
C598 N595 1.350 . S
C598 C597 1.434 . S
C599 C600 1.369 . S
C599 C601 1.419 . S
C599 H603 0.930 . S
C600 C599 1.369 . S
C600 C609 1.429 . S
C601 C599 1.419 . S
C601 C602 1.363 . S
C601 H604 0.929 . S
C602 C601 1.363 . S
C602 C608 1.428 . S
H603 C599 0.930 . S
H604 C601 0.929 . S
S605 N606 1.613 . S
S605 N607 1.610 . S
N606 S605 1.613 . S
N606 C609 1.350 . S
N607 S605 1.610 . S
N607 C608 1.351 . S
C608 C602 1.428 . S
C608 N607 1.351 . S
C608 C609 1.434 . S
C609 C600 1.429 . S
C609 N606 1.350 . S
C609 C608 1.434 . S
C610 C611 1.369 . S
C610 C612 1.419 1_655 S
C610 H614 0.930 . S
C611 C610 1.369 . S
C611 C620 1.429 . S
C612 C610 1.419 1_455 S
C612 C613 1.363 . S
C612 H615 0.929 . S
C613 C612 1.363 . S
C613 C619 1.428 . S
H614 C610 0.930 . S
H615 C612 0.929 . S
S616 N617 1.613 1_455 S
S616 N618 1.610 . S
N617 S616 1.613 1_655 S
N617 C620 1.350 . S
N618 S616 1.610 . S
N618 C619 1.351 . S
C619 C613 1.428 . S
C619 N618 1.351 . S
C619 C620 1.434 1_455 S
C620 C611 1.429 . S
C620 N617 1.350 . S
C620 C619 1.434 1_655 S
C621 C622 1.369 1_655 S
C621 C623 1.419 . S
C621 H625 0.930 . S
C622 C621 1.369 1_455 S
C622 C631 1.429 . S
C623 C621 1.419 . S
C623 C624 1.363 . S
C623 H626 0.929 . S
C624 C623 1.363 . S
C624 C630 1.428 1_655 S
H625 C621 0.930 . S
H626 C623 0.929 . S
S627 N628 1.613 1_556 S
S627 N629 1.610 1_556 S
N628 S627 1.613 1_554 S
N628 C631 1.350 . S
N629 S627 1.610 1_554 S
N629 C630 1.351 . S
C630 C624 1.428 1_455 S
C630 N629 1.351 . S
C630 C631 1.434 . S
C631 C622 1.429 . S
C631 N628 1.350 . S
C631 C630 1.434 . S
C632 C633 1.369 . S
C632 C634 1.419 . S
C632 H636 0.930 . S
C633 C632 1.369 . S
C633 C642 1.429 1_554 S
C634 C632 1.419 . S
C634 C635 1.363 . S
C634 H637 0.929 . S
C635 C634 1.363 . S
C635 C641 1.428 1_554 S
H636 C632 0.930 . S
H637 C634 0.929 . S
S638 N639 1.613 . S
S638 N640 1.610 . S
N639 S638 1.613 . S
N639 C642 1.350 . S
N640 S638 1.610 . S
N640 C641 1.351 . S
C641 C635 1.428 1_556 S
C641 N640 1.351 . S
C641 C642 1.434 . S
C642 C633 1.429 1_556 S
C642 N639 1.350 . S
C642 C641 1.434 . S
C643 C644 1.369 . S
C643 C645 1.419 . S
C643 H647 0.930 . S
C644 C643 1.369 . S
C644 C653 1.429 . S
C645 C643 1.419 . S
C645 C646 1.363 . S
C645 H648 0.929 . S
C646 C645 1.363 . S
C646 C652 1.428 . S
H647 C643 0.930 . S
H648 C645 0.929 . S
S649 N650 1.613 . S
S649 N651 1.610 . S
N650 S649 1.613 . S
N650 C653 1.350 . S
N651 S649 1.610 . S
N651 C652 1.351 . S
C652 C646 1.428 . S
C652 N651 1.351 . S
C652 C653 1.434 . S
C653 C644 1.429 . S
C653 N650 1.350 . S
C653 C652 1.434 . S
C654 C655 1.369 . S
C654 C656 1.419 . S
C654 H658 0.930 . S
C655 C654 1.369 . S
C655 C664 1.429 . S
C656 C654 1.419 . S
C656 C657 1.363 . S
C656 H659 0.929 . S
C657 C656 1.363 . S
C657 C663 1.428 . S
H658 C654 0.930 . S
H659 C656 0.929 . S
S660 N661 1.613 . S
S660 N662 1.610 . S
N661 S660 1.613 . S
N661 C664 1.350 . S
N662 S660 1.610 . S
N662 C663 1.351 . S
C663 C657 1.428 . S
C663 N662 1.351 . S
C663 C664 1.434 . S
C664 C655 1.429 . S
C664 N661 1.350 . S
C664 C663 1.434 . S
C665 C666 1.369 . S
C665 C667 1.419 . S
C665 H669 0.930 . S
C666 C665 1.369 . S
C666 C675 1.429 . S
C667 C665 1.419 . S
C667 C668 1.363 . S
C667 H670 0.929 . S
C668 C667 1.363 . S
C668 C674 1.428 . S
H669 C665 0.930 . S
H670 C667 0.929 . S
S671 N672 1.613 . S
S671 N673 1.610 . S
N672 S671 1.613 . S
N672 C675 1.350 . S
N673 S671 1.610 . S
N673 C674 1.351 . S
C674 C668 1.428 . S
C674 N673 1.351 . S
C674 C675 1.434 . S
C675 C666 1.429 . S
C675 N672 1.350 . S
C675 C674 1.434 . S
C676 C677 1.369 . S
C676 C678 1.419 . S
C676 H680 0.930 . S
C677 C676 1.369 . S
C677 C686 1.429 . S
C678 C676 1.419 . S
C678 C679 1.363 . S
C678 H681 0.929 . S
C679 C678 1.363 . S
C679 C685 1.428 . S
H680 C676 0.930 . S
H681 C678 0.929 . S
S682 N683 1.613 . S
S682 N684 1.610 . S
N683 S682 1.613 . S
N683 C686 1.350 . S
N684 S682 1.610 . S
N684 C685 1.351 . S
C685 C679 1.428 . S
C685 N684 1.351 . S
C685 C686 1.434 . S
C686 C677 1.429 . S
C686 N683 1.350 . S
C686 C685 1.434 . S
C687 C688 1.369 . S
C687 C689 1.419 . S
C687 H691 0.930 . S
C688 C687 1.369 . S
C688 C697 1.429 . S
C689 C687 1.419 . S
C689 C690 1.363 . S
C689 H692 0.929 . S
C690 C689 1.363 . S
C690 C696 1.428 . S
H691 C687 0.930 . S
H692 C689 0.929 . S
S693 N694 1.613 . S
S693 N695 1.610 . S
N694 S693 1.613 . S
N694 C697 1.350 . S
N695 S693 1.610 . S
N695 C696 1.351 . S
C696 C690 1.428 . S
C696 N695 1.351 . S
C696 C697 1.434 . S
C697 C688 1.429 . S
C697 N694 1.350 . S
C697 C696 1.434 . S
C698 C699 1.369 . S
C698 C700 1.419 . S
C698 H702 0.930 . S
C699 C698 1.369 . S
C699 C708 1.429 . S
C700 C698 1.419 . S
C700 C701 1.363 . S
C700 H703 0.929 . S
C701 C700 1.363 . S
C701 C707 1.428 . S
H702 C698 0.930 . S
H703 C700 0.929 . S
S704 N705 1.613 . S
S704 N706 1.610 . S
N705 S704 1.613 . S
N705 C708 1.350 . S
N706 S704 1.610 . S
N706 C707 1.351 . S
C707 C701 1.428 . S
C707 N706 1.351 . S
C707 C708 1.434 . S
C708 C699 1.429 . S
C708 N705 1.350 . S
C708 C707 1.434 . S
C709 C710 1.369 . S
C709 C711 1.419 . S
C709 H713 0.930 . S
C710 C709 1.369 . S
C710 C719 1.429 . S
C711 C709 1.419 . S
C711 C712 1.363 . S
C711 H714 0.929 . S
C712 C711 1.363 . S
C712 C718 1.428 . S
H713 C709 0.930 . S
H714 C711 0.929 . S
S715 N716 1.613 . S
S715 N717 1.610 . S
N716 S715 1.613 . S
N716 C719 1.350 . S
N717 S715 1.610 . S
N717 C718 1.351 . S
C718 C712 1.428 . S
C718 N717 1.351 . S
C718 C719 1.434 . S
C719 C710 1.429 . S
C719 N716 1.350 . S
C719 C718 1.434 . S
C720 C721 1.369 . S
C720 C722 1.419 . S
C720 H724 0.930 . S
C721 C720 1.369 . S
C721 C730 1.429 . S
C722 C720 1.419 . S
C722 C723 1.363 . S
C722 H725 0.929 . S
C723 C722 1.363 . S
C723 C729 1.428 . S
H724 C720 0.930 . S
H725 C722 0.929 . S
S726 N727 1.613 . S
S726 N728 1.610 . S
N727 S726 1.613 . S
N727 C730 1.350 . S
N728 S726 1.610 . S
N728 C729 1.351 . S
C729 C723 1.428 . S
C729 N728 1.351 . S
C729 C730 1.434 . S
C730 C721 1.429 . S
C730 N727 1.350 . S
C730 C729 1.434 . S
C731 C732 1.369 . S
C731 C733 1.419 1_545 S
C731 H735 0.930 . S
C732 C731 1.369 . S
C732 C741 1.429 1_545 S
C733 C731 1.419 1_565 S
C733 C734 1.363 . S
C733 H736 0.929 . S
C734 C733 1.363 . S
C734 C740 1.428 . S
H735 C731 0.930 . S
H736 C733 0.929 . S
S737 N738 1.613 . S
S737 N739 1.610 . S
N738 S737 1.613 . S
N738 C741 1.350 . S
N739 S737 1.610 . S
N739 C740 1.351 . S
C740 C734 1.428 . S
C740 N739 1.351 . S
C740 C741 1.434 . S
C741 C732 1.429 1_565 S
C741 N738 1.350 . S
C741 C740 1.434 . S
C742 C743 1.369 . S
C742 C744 1.419 . S
C742 H746 0.930 . S
C743 C742 1.369 . S
C743 C752 1.429 . S
C744 C742 1.419 . S
C744 C745 1.363 . S
C744 H747 0.929 1_554 S
C745 C744 1.363 . S
C745 C751 1.428 . S
H746 C742 0.930 . S
H747 C744 0.929 1_556 S
S748 N749 1.613 . S
S748 N750 1.610 . S
N749 S748 1.613 . S
N749 C752 1.350 . S
N750 S748 1.610 . S
N750 C751 1.351 . S
C751 C745 1.428 . S
C751 N750 1.351 . S
C751 C752 1.434 . S
C752 C743 1.429 . S
C752 N749 1.350 . S
C752 C751 1.434 . S
C753 C754 1.369 1_545 S
C753 C755 1.419 . S
C753 H757 0.932 . S
C754 C753 1.369 1_565 S
C754 C763 1.429 . S
C755 C753 1.419 . S
C755 C756 1.363 . S
C755 H758 0.929 . S
C756 C755 1.363 . S
C756 C762 1.428 . S
H757 C753 0.932 . S
H758 C755 0.929 . S
S759 N760 1.613 . S
S759 N761 1.610 1_565 S
N760 S759 1.613 . S
N760 C763 1.350 . S
N761 S759 1.610 1_545 S
N761 C762 1.351 . S
C762 C756 1.428 . S
C762 N761 1.351 . S
C762 C763 1.434 1_545 S
C763 C754 1.429 . S
C763 N760 1.350 . S
C763 C762 1.434 1_565 S
C764 C765 1.369 . S
C764 C766 1.419 . S
C764 H768 0.930 . S
C765 C764 1.369 . S
C765 C774 1.429 . S
C766 C764 1.419 . S
C766 C767 1.363 . S
C766 H769 0.929 . S
C767 C766 1.363 . S
C767 C773 1.428 . S
H768 C764 0.930 . S
H769 C766 0.929 . S
S770 N771 1.613 . S
S770 N772 1.610 . S
N771 S770 1.613 . S
N771 C774 1.350 . S
N772 S770 1.610 . S
N772 C773 1.351 . S
C773 C767 1.428 . S
C773 N772 1.351 . S
C773 C774 1.434 . S
C774 C765 1.429 . S
C774 N771 1.350 . S
C774 C773 1.434 . S
C775 C776 1.369 . S
C775 C777 1.419 . S
C775 H779 0.930 . S
C776 C775 1.369 . S
C776 C785 1.429 . S
C777 C775 1.419 . S
C777 C778 1.363 1_545 S
C777 H780 0.927 1_545 S
C778 C777 1.363 1_565 S
C778 C784 1.428 . S
H779 C775 0.930 . S
H780 C777 0.927 1_565 S
S781 N782 1.613 1_565 S
S781 N783 1.610 . S
N782 S781 1.613 1_545 S
N782 C785 1.350 . S
N783 S781 1.610 . S
N783 C784 1.351 . S
C784 C778 1.428 . S
C784 N783 1.351 . S
C784 C785 1.434 1_565 S
C785 C776 1.429 . S
C785 N782 1.350 . S
C785 C784 1.434 1_545 S
C786 C787 1.369 . S
C786 C788 1.419 . S
C786 H790 0.930 1_556 S
C787 C786 1.369 . S
C787 C796 1.429 . S
C788 C786 1.419 . S
C788 C789 1.363 . S
C788 H791 0.929 1_556 S
C789 C788 1.363 . S
C789 C795 1.428 . S
H790 C786 0.930 1_554 S
H791 C788 0.929 1_554 S
S792 N793 1.613 . S
S792 N794 1.610 . S
N793 S792 1.613 . S
N793 C796 1.350 . S
N794 S792 1.610 . S
N794 C795 1.351 . S
C795 C789 1.428 . S
C795 N794 1.351 . S
C795 C796 1.434 . S
C796 C787 1.429 . S
C796 N793 1.350 . S
C796 C795 1.434 . S
C797 C798 1.369 . S
C797 C799 1.419 1_545 S
C797 H801 0.930 . S
C798 C797 1.369 . S
C798 C807 1.429 1_545 S
C799 C797 1.419 1_565 S
C799 C800 1.363 . S
C799 H802 0.929 . S
C800 C799 1.363 . S
C800 C806 1.428 . S
H801 C797 0.930 . S
H802 C799 0.929 . S
S803 N804 1.613 . S
S803 N805 1.610 . S
N804 S803 1.613 . S
N804 C807 1.350 . S
N805 S803 1.610 . S
N805 C806 1.351 . S
C806 C800 1.428 . S
C806 N805 1.351 . S
C806 C807 1.434 . S
C807 C798 1.429 1_565 S
C807 N804 1.350 . S
C807 C806 1.434 . S
C808 C809 1.369 . S
C808 C810 1.419 . S
C808 H812 0.930 . S
C809 C808 1.369 . S
C809 C818 1.429 . S
C810 C808 1.419 . S
C810 C811 1.363 . S
C810 H813 0.929 . S
C811 C810 1.363 . S
C811 C817 1.428 . S
H812 C808 0.930 . S
H813 C810 0.929 . S
S814 N815 1.613 1_556 S
S814 N816 1.610 . S
N815 S814 1.613 1_554 S
N815 C818 1.350 1_554 S
N816 S814 1.610 . S
N816 C817 1.351 . S
C817 C811 1.428 . S
C817 N816 1.351 . S
C817 C818 1.434 . S
C818 C809 1.429 . S
C818 N815 1.350 1_556 S
C818 C817 1.434 . S
C819 C820 1.369 . S
C819 C821 1.419 . S
C819 H823 0.930 . S
C820 C819 1.369 . S
C820 C829 1.429 . S
C821 C819 1.419 . S
C821 C822 1.363 . S
C821 H824 0.929 . S
C822 C821 1.363 . S
C822 C828 1.428 . S
H823 C819 0.930 . S
H824 C821 0.929 . S
S825 N826 1.613 . S
S825 N827 1.610 . S
N826 S825 1.613 . S
N826 C829 1.350 . S
N827 S825 1.610 . S
N827 C828 1.351 . S
C828 C822 1.428 . S
C828 N827 1.351 . S
C828 C829 1.434 . S
C829 C820 1.429 . S
C829 N826 1.350 . S
C829 C828 1.434 . S
C830 C831 1.369 . S
C830 C832 1.419 . S
C830 H834 0.930 . S
C831 C830 1.369 . S
C831 C840 1.429 . S
C832 C830 1.419 . S
C832 C833 1.363 . S
C832 H835 0.929 . S
C833 C832 1.363 . S
C833 C839 1.428 . S
H834 C830 0.930 . S
H835 C832 0.929 . S
S836 N837 1.613 . S
S836 N838 1.610 . S
N837 S836 1.613 . S
N837 C840 1.350 . S
N838 S836 1.610 . S
N838 C839 1.351 . S
C839 C833 1.428 . S
C839 N838 1.351 . S
C839 C840 1.434 . S
C840 C831 1.429 . S
C840 N837 1.350 . S
C840 C839 1.434 . S
C841 C842 1.369 . S
C841 C843 1.419 . S
C841 H845 0.930 . S
C842 C841 1.369 . S
C842 C851 1.429 . S
C843 C841 1.419 . S
C843 C844 1.363 . S
C843 H846 0.929 . S
C844 C843 1.363 . S
C844 C850 1.428 . S
H845 C841 0.930 . S
H846 C843 0.929 . S
S847 N848 1.613 . S
S847 N849 1.610 . S
N848 S847 1.613 . S
N848 C851 1.350 . S
N849 S847 1.610 . S
N849 C850 1.351 . S
C850 C844 1.428 . S
C850 N849 1.351 . S
C850 C851 1.434 . S
C851 C842 1.429 . S
C851 N848 1.350 . S
C851 C850 1.434 . S
C852 C853 1.369 . S
C852 C854 1.419 . S
C852 H856 0.930 . S
C853 C852 1.369 . S
C853 C862 1.429 . S
C854 C852 1.419 . S
C854 C855 1.363 . S
C854 H857 0.929 . S
C855 C854 1.363 . S
C855 C861 1.428 . S
H856 C852 0.930 . S
H857 C854 0.929 . S
S858 N859 1.613 . S
S858 N860 1.610 . S
N859 S858 1.613 . S
N859 C862 1.350 . S
N860 S858 1.610 . S
N860 C861 1.351 . S
C861 C855 1.428 . S
C861 N860 1.351 . S
C861 C862 1.434 . S
C862 C853 1.429 . S
C862 N859 1.350 . S
C862 C861 1.434 . S
C863 C864 1.369 . S
C863 C865 1.419 . S
C863 H867 0.930 . S
C864 C863 1.369 . S
C864 C873 1.429 . S
C865 C863 1.419 . S
C865 C866 1.363 . S
C865 H868 0.929 . S
C866 C865 1.363 . S
C866 C872 1.428 . S
H867 C863 0.930 . S
H868 C865 0.929 . S
S869 N870 1.613 . S
S869 N871 1.610 . S
N870 S869 1.613 . S
N870 C873 1.350 . S
N871 S869 1.610 . S
N871 C872 1.351 . S
C872 C866 1.428 . S
C872 N871 1.351 . S
C872 C873 1.434 . S
C873 C864 1.429 . S
C873 N870 1.350 . S
C873 C872 1.434 . S
C874 C875 1.369 . S
C874 C876 1.419 . S
C874 H878 0.930 . S
C875 C874 1.369 . S
C875 C884 1.429 . S
C876 C874 1.419 . S
C876 C877 1.363 . S
C876 H879 0.929 . S
C877 C876 1.363 . S
C877 C883 1.428 . S
H878 C874 0.930 . S
H879 C876 0.929 . S
S880 N881 1.613 . S
S880 N882 1.610 . S
N881 S880 1.613 . S
N881 C884 1.350 . S
N882 S880 1.610 . S
N882 C883 1.351 . S
C883 C877 1.428 . S
C883 N882 1.351 . S
C883 C884 1.434 . S
C884 C875 1.429 . S
C884 N881 1.350 . S
C884 C883 1.434 . S
C885 C886 1.369 . S
C885 C887 1.419 . S
C885 H889 0.930 . S
C886 C885 1.369 . S
C886 C895 1.429 . S
C887 C885 1.419 . S
C887 C888 1.363 . S
C887 H890 0.929 . S
C888 C887 1.363 . S
C888 C894 1.428 . S
H889 C885 0.930 . S
H890 C887 0.929 . S
S891 N892 1.613 . S
S891 N893 1.610 . S
N892 S891 1.613 . S
N892 C895 1.350 . S
N893 S891 1.610 . S
N893 C894 1.351 . S
C894 C888 1.428 . S
C894 N893 1.351 . S
C894 C895 1.434 . S
C895 C886 1.429 . S
C895 N892 1.350 . S
C895 C894 1.434 . S
C896 C897 1.369 . S
C896 C898 1.419 . S
C896 H900 0.930 . S
C897 C896 1.369 . S
C897 C906 1.429 . S
C898 C896 1.419 . S
C898 C899 1.363 . S
C898 H901 0.929 . S
C899 C898 1.363 . S
C899 C905 1.428 . S
H900 C896 0.930 . S
H901 C898 0.929 . S
S902 N903 1.613 . S
S902 N904 1.610 . S
N903 S902 1.613 . S
N903 C906 1.350 . S
N904 S902 1.610 . S
N904 C905 1.351 . S
C905 C899 1.428 . S
C905 N904 1.351 . S
C905 C906 1.434 . S
C906 C897 1.429 . S
C906 N903 1.350 . S
C906 C905 1.434 . S
C907 C908 1.369 . S
C907 C909 1.419 . S
C907 H911 0.930 . S
C908 C907 1.369 . S
C908 C917 1.429 . S
C909 C907 1.419 . S
C909 C910 1.363 . S
C909 H912 0.929 . S
C910 C909 1.363 . S
C910 C916 1.428 . S
H911 C907 0.930 . S
H912 C909 0.929 . S
S913 N914 1.613 . S
S913 N915 1.610 . S
N914 S913 1.613 . S
N914 C917 1.350 . S
N915 S913 1.610 . S
N915 C916 1.351 . S
C916 C910 1.428 . S
C916 N915 1.351 . S
C916 C917 1.434 . S
C917 C908 1.429 . S
C917 N914 1.350 . S
C917 C916 1.434 . S
C918 C919 1.369 . S
C918 C920 1.419 . S
C918 H922 0.930 . S
C919 C918 1.369 . S
C919 C928 1.429 . S
C920 C918 1.419 . S
C920 C921 1.363 . S
C920 H923 0.929 . S
C921 C920 1.363 . S
C921 C927 1.428 . S
H922 C918 0.930 . S
H923 C920 0.929 . S
S924 N925 1.613 . S
S924 N926 1.610 . S
N925 S924 1.613 . S
N925 C928 1.350 . S
N926 S924 1.610 . S
N926 C927 1.351 . S
C927 C921 1.428 . S
C927 N926 1.351 . S
C927 C928 1.434 . S
C928 C919 1.429 . S
C928 N925 1.350 . S
C928 C927 1.434 . S
C929 C930 1.369 . S
C929 C931 1.419 . S
C929 H933 0.930 . S
C930 C929 1.369 . S
C930 C939 1.429 . S
C931 C929 1.419 . S
C931 C932 1.363 . S
C931 H934 0.929 . S
C932 C931 1.363 . S
C932 C938 1.428 . S
H933 C929 0.930 . S
H934 C931 0.929 . S
S935 N936 1.613 . S
S935 N937 1.610 . S
N936 S935 1.613 . S
N936 C939 1.350 . S
N937 S935 1.610 . S
N937 C938 1.351 . S
C938 C932 1.428 . S
C938 N937 1.351 . S
C938 C939 1.434 . S
C939 C930 1.429 . S
C939 N936 1.350 . S
C939 C938 1.434 . S
C940 C941 1.369 . S
C940 C942 1.419 . S
C940 H944 0.930 . S
C941 C940 1.369 . S
C941 C950 1.429 . S
C942 C940 1.419 . S
C942 C943 1.363 . S
C942 H945 0.929 . S
C943 C942 1.363 . S
C943 C949 1.428 . S
H944 C940 0.930 . S
H945 C942 0.929 . S
S946 N947 1.613 . S
S946 N948 1.610 . S
N947 S946 1.613 . S
N947 C950 1.350 . S
N948 S946 1.610 . S
N948 C949 1.351 . S
C949 C943 1.428 . S
C949 N948 1.351 . S
C949 C950 1.434 . S
C950 C941 1.429 . S
C950 N947 1.350 . S
C950 C949 1.434 . S
C951 C952 1.369 . S
C951 C953 1.419 . S
C951 H955 0.930 . S
C952 C951 1.369 . S
C952 C961 1.429 . S
C953 C951 1.419 . S
C953 C954 1.363 . S
C953 H956 0.929 . S
C954 C953 1.363 . S
C954 C960 1.428 . S
H955 C951 0.930 . S
H956 C953 0.929 . S
S957 N958 1.613 . S
S957 N959 1.610 . S
N958 S957 1.613 . S
N958 C961 1.350 . S
N959 S957 1.610 . S
N959 C960 1.351 . S
C960 C954 1.428 . S
C960 N959 1.351 . S
C960 C961 1.434 . S
C961 C952 1.429 . S
C961 N958 1.350 . S
C961 C960 1.434 . S
C962 C963 1.369 . S
C962 C964 1.419 . S
C962 H966 0.930 . S
C963 C962 1.369 . S
C963 C972 1.429 . S
C964 C962 1.419 . S
C964 C965 1.363 . S
C964 H967 0.929 . S
C965 C964 1.363 . S
C965 C971 1.428 . S
H966 C962 0.930 . S
H967 C964 0.929 . S
S968 N969 1.613 . S
S968 N970 1.610 . S
N969 S968 1.613 . S
N969 C972 1.350 . S
N970 S968 1.610 . S
N970 C971 1.351 . S
C971 C965 1.428 . S
C971 N970 1.351 . S
C971 C972 1.434 . S
C972 C963 1.429 . S
C972 N969 1.350 . S
C972 C971 1.434 . S
C973 C974 1.369 . S
C973 C975 1.419 . S
C973 H977 0.930 . S
C974 C973 1.369 . S
C974 C983 1.429 . S
C975 C973 1.419 . S
C975 C976 1.363 . S
C975 H978 0.929 . S
C976 C975 1.363 . S
C976 C982 1.428 . S
H977 C973 0.930 . S
H978 C975 0.929 . S
S979 N980 1.613 . S
S979 N981 1.610 . S
N980 S979 1.613 . S
N980 C983 1.350 . S
N981 S979 1.610 . S
N981 C982 1.351 . S
C982 C976 1.428 . S
C982 N981 1.351 . S
C982 C983 1.434 . S
C983 C974 1.429 . S
C983 N980 1.350 . S
C983 C982 1.434 . S
C984 C985 1.369 . S
C984 C986 1.419 . S
C984 H988 0.930 . S
C985 C984 1.369 . S
C985 C994 1.429 . S
C986 C984 1.419 . S
C986 C987 1.363 . S
C986 H989 0.929 . S
C987 C986 1.363 . S
C987 C993 1.428 . S
H988 C984 0.930 . S
H989 C986 0.929 . S
S990 N991 1.613 . S
S990 N992 1.610 . S
N991 S990 1.613 . S
N991 C994 1.350 . S
N992 S990 1.610 . S
N992 C993 1.351 . S
C993 C987 1.428 . S
C993 N992 1.351 . S
C993 C994 1.434 . S
C994 C985 1.429 . S
C994 N991 1.350 . S
C994 C993 1.434 . S
C995 C996 1.369 . S
C995 C997 1.419 . S
C995 H999 0.930 . S
C996 C995 1.369 . S
C996 C1005 1.429 . S
C997 C995 1.419 . S
C997 C998 1.363 . S
C997 H1000 0.929 . S
C998 C997 1.363 . S
C998 C1004 1.428 . S
H999 C995 0.930 . S
H1000 C997 0.929 . S
S1001 N1002 1.613 . S
S1001 N1003 1.610 . S
N1002 S1001 1.613 . S
N1002 C1005 1.350 . S
N1003 S1001 1.610 . S
N1003 C1004 1.351 . S
C1004 C998 1.428 . S
C1004 N1003 1.351 . S
C1004 C1005 1.434 . S
C1005 C996 1.429 . S
C1005 N1002 1.350 . S
C1005 C1004 1.434 . S
C1006 C1007 1.369 . S
C1006 C1008 1.419 . S
C1006 H1010 0.930 . S
C1007 C1006 1.369 . S
C1007 C1016 1.429 . S
C1008 C1006 1.419 . S
C1008 C1009 1.363 . S
C1008 H1011 0.929 . S
C1009 C1008 1.363 . S
C1009 C1015 1.428 . S
H1010 C1006 0.930 . S
H1011 C1008 0.929 . S
S1012 N1013 1.613 . S
S1012 N1014 1.610 . S
N1013 S1012 1.613 . S
N1013 C1016 1.350 . S
N1014 S1012 1.610 . S
N1014 C1015 1.351 . S
C1015 C1009 1.428 . S
C1015 N1014 1.351 . S
C1015 C1016 1.434 . S
C1016 C1007 1.429 . S
C1016 N1013 1.350 . S
C1016 C1015 1.434 . S
C1017 C1018 1.369 1_556 S
C1017 C1019 1.419 . S
C1017 H1021 0.930 . S
C1018 C1017 1.369 1_554 S
C1018 C1027 1.429 1_455 S
C1019 C1017 1.419 . S
C1019 C1020 1.363 1_455 S
C1019 H1022 0.929 . S
C1020 C1019 1.363 1_655 S
C1020 C1026 1.428 1_556 S
H1021 C1017 0.930 . S
H1022 C1019 0.929 . S
S1023 N1024 1.613 . S
S1023 N1025 1.610 . S
N1024 S1023 1.613 . S
N1024 C1027 1.350 . S
N1025 S1023 1.610 . S
N1025 C1026 1.351 . S
C1026 C1020 1.428 1_554 S
C1026 N1025 1.351 . S
C1026 C1027 1.434 . S
C1027 C1018 1.429 1_655 S
C1027 N1024 1.350 . S
C1027 C1026 1.434 . S
C1028 C1029 1.369 . S
C1028 C1030 1.419 . S
C1028 H1032 0.930 . S
C1029 C1028 1.369 . S
C1029 C1038 1.429 . S
C1030 C1028 1.419 . S
C1030 C1031 1.363 . S
C1030 H1033 0.929 . S
C1031 C1030 1.363 . S
C1031 C1037 1.428 . S
H1032 C1028 0.930 . S
H1033 C1030 0.929 . S
S1034 N1035 1.613 . S
S1034 N1036 1.610 . S
N1035 S1034 1.613 . S
N1035 C1038 1.350 . S
N1036 S1034 1.610 . S
N1036 C1037 1.351 . S
C1037 C1031 1.428 . S
C1037 N1036 1.351 . S
C1037 C1038 1.434 . S
C1038 C1029 1.429 . S
C1038 N1035 1.350 . S
C1038 C1037 1.434 . S
C1039 C1040 1.369 . S
C1039 C1041 1.419 . S
C1039 H1043 0.930 . S
C1040 C1039 1.369 . S
C1040 C1049 1.429 . S
C1041 C1039 1.419 . S
C1041 C1042 1.363 . S
C1041 H1044 0.929 . S
C1042 C1041 1.363 . S
C1042 C1048 1.428 . S
H1043 C1039 0.930 . S
H1044 C1041 0.929 . S
S1045 N1046 1.613 . S
S1045 N1047 1.610 . S
N1046 S1045 1.613 . S
N1046 C1049 1.350 . S
N1047 S1045 1.610 . S
N1047 C1048 1.351 . S
C1048 C1042 1.428 . S
C1048 N1047 1.351 . S
C1048 C1049 1.434 . S
C1049 C1040 1.429 . S
C1049 N1046 1.350 . S
C1049 C1048 1.434 . S
C1050 C1051 1.369 . S
C1050 C1052 1.419 1_546 S
C1050 H1054 0.930 . S
C1051 C1050 1.369 . S
C1051 C1060 1.429 1_455 S
C1052 C1050 1.419 1_564 S
C1052 C1053 1.363 1_455 S
C1052 H1055 0.929 . S
C1053 C1052 1.363 1_655 S
C1053 C1059 1.428 . S
H1054 C1050 0.930 . S
H1055 C1052 0.929 . S
S1056 N1057 1.613 . S
S1056 N1058 1.610 1_546 S
N1057 S1056 1.613 . S
N1057 C1060 1.350 . S
N1058 S1056 1.610 1_564 S
N1058 C1059 1.351 . S
C1059 C1053 1.428 . S
C1059 N1058 1.351 . S
C1059 C1060 1.434 1_564 S
C1060 C1051 1.429 1_655 S
C1060 N1057 1.350 . S
C1060 C1059 1.434 1_546 S
C1061 C1062 1.369 . S
C1061 C1063 1.419 1_545 S
C1061 H1065 0.930 . S
C1062 C1061 1.369 . S
C1062 C1071 1.429 . S
C1063 C1061 1.419 1_565 S
C1063 C1064 1.363 . S
C1063 H1066 0.929 . S
C1064 C1063 1.363 . S
C1064 C1070 1.428 . S
H1065 C1061 0.930 . S
H1066 C1063 0.929 . S
S1067 N1068 1.613 . S
S1067 N1069 1.610 1_545 S
N1068 S1067 1.613 . S
N1068 C1071 1.350 . S
N1069 S1067 1.610 1_565 S
N1069 C1070 1.351 . S
C1070 C1064 1.428 . S
C1070 N1069 1.351 . S
C1070 C1071 1.434 1_565 S
C1071 C1062 1.429 . S
C1071 N1068 1.350 . S
C1071 C1070 1.434 1_545 S
C545 C17 1.984 . S
C547 C357 1.982 . S
C556 C51 1.982 . S
C558 C391 1.982 . S
C567 C85 1.986 . S
C569 C289 1.985 . S
C578 C119 1.984 . S
C580 C323 1.985 . S
C589 C144 1.985 . S
C591 C484 1.984 . S
C600 C178 1.985 . S
C602 C518 1.985 . S
C611 C212 1.985 . S
C613 C416 1.983 . S
C622 C246 1.986 . S
C624 C450 1.984 . S
C633 C310 1.114 . S
C635 C8 1.171 . S
C644 C344 1.107 . S
C646 C42 1.173 . S
C655 C378 1.121 . S
C657 C76 1.170 . S
C666 C276 1.122 . S
C668 C110 1.170 . S
C677 C153 1.174 . S
C679 C455 1.110 . S
C688 C489 1.112 . S
C690 C187 1.172 . S
C699 C523 1.108 . S
C701 C221 1.174 . S
C710 C421 1.113 . S
C712 C255 1.173 . S
C721 C38 1.110 . S
C723 C280 1.172 . S
C732 C314 1.173 . S
C734 C72 1.113 . S
C743 C348 1.172 . S
C745 C106 1.116 . S
C754 C382 1.172 . S
C756 C4 1.111 . S
C765 C425 1.172 . S
C767 C183 1.117 . S
C776 C217 1.109 . S
C778 C459 1.172 . S
C787 C251 1.119 . S
C789 C493 1.170 . S
C798 C527 1.173 . S
C800 C149 1.114 . S
C809 C29 1.559 1_556 S
C811 C514 1.460 . S
C820 C63 1.563 . S
C822 C140 1.453 . S
C831 C446 1.453 . S
C833 C97 1.559 . S
C842 C208 1.455 . S
C844 C131 1.558 . S
C853 C136 1.558 1_554 S
C855 C387 1.457 . S
C864 C170 1.554 . S
C866 C13 1.462 . S
C875 C319 1.453 . S
C877 C204 1.562 . S
C886 C81 1.454 . S
C888 C238 1.561 . S
C897 C301 1.554 . S
C899 C242 1.463 . S
C908 C335 1.563 . S
C910 C412 1.453 . S
C919 C174 1.456 . S
C921 C369 1.558 1_556 S
C930 C480 1.464 . S
C932 C403 1.555 . S
C941 C408 1.557 . S
C943 C115 1.462 . S
C952 C442 1.561 . S
C954 C285 1.453 . S
C963 C476 1.561 1_554 S
C965 C47 1.457 . S
C974 C353 1.463 . S
C976 C510 1.555 . S
C985 C0 2.148 . S
C987 C437 2.151 . S
C996 C34 2.149 . S
C998 C199 2.150 . S
C1007 C68 2.151 . S
C1009 C505 2.149 . S
C1018 C267 2.149 . S
C1020 C102 2.150 . S
C1029 C165 2.151 . S
C1031 C272 2.149 . S
C1040 C340 2.151 . S
C1042 C233 2.149 . S
C1051 C306 2.152 . S
C1053 C471 2.149 . S
C1062 C539 2.152 . S
C1064 C374 2.149 . S
