# Generated by pormake.
# Topology ung, (4)-cn, num edge types: 1
# Building blocks:
#     Node 0, Type 0, BuildingBlock: NAWXER_clean_sbu_0, # of connection points: 4
#     Node 1, Type 0, BuildingBlock: NAWXER_clean_sbu_0, # of connection points: 4
#     Node 2, Type 0, BuildingBlock: NAWXER_clean_sbu_0, # of connection points: 4
#     Node 3, Type 0, BuildingBlock: NAWXER_clean_sbu_0, # of connection points: 4
#     Node 4, Type 0, BuildingBlock: NAWXER_clean_sbu_0, # of connection points: 4
#     Node 5, Type 0, BuildingBlock: NAWXER_clean_sbu_0, # of connection points: 4
#     Node 6, Type 0, BuildingBlock: NAWXER_clean_sbu_0, # of connection points: 4
#     Node 7, Type 0, BuildingBlock: NAWXER_clean_sbu_0, # of connection points: 4
#     Node 8, Type 0, BuildingBlock: NAWXER_clean_sbu_0, # of connection points: 4
#     Node 9, Type 0, BuildingBlock: NAWXER_clean_sbu_0, # of connection points: 4
#     Node 10, Type 0, BuildingBlock: NAWXER_clean_sbu_0, # of connection points: 4
#     Node 11, Type 0, BuildingBlock: NAWXER_clean_sbu_0, # of connection points: 4
#     Node 12, Type 0, BuildingBlock: NAWXER_clean_sbu_0, # of connection points: 4
#     Node 13, Type 0, BuildingBlock: NAWXER_clean_sbu_0, # of connection points: 4
#     Node 14, Type 0, BuildingBlock: NAWXER_clean_sbu_0, # of connection points: 4
#     Node 15, Type 0, BuildingBlock: NAWXER_clean_sbu_0, # of connection points: 4
#     Node 16, Type 0, BuildingBlock: NAWXER_clean_sbu_0, # of connection points: 4
#     Node 17, Type 0, BuildingBlock: NAWXER_clean_sbu_0, # of connection points: 4
#     Edge 18, Type (0, 0), BuildingBlock: ZUJKAS_clean_linker_0, # of connection points: 2
#     Edge 19, Type (0, 0), BuildingBlock: ZUJKAS_clean_linker_0, # of connection points: 2
#     Edge 20, Type (0, 0), BuildingBlock: ZUJKAS_clean_linker_0, # of connection points: 2
#     Edge 21, Type (0, 0), BuildingBlock: ZUJKAS_clean_linker_0, # of connection points: 2
#     Edge 22, Type (0, 0), BuildingBlock: ZUJKAS_clean_linker_0, # of connection points: 2
#     Edge 23, Type (0, 0), BuildingBlock: ZUJKAS_clean_linker_0, # of connection points: 2
#     Edge 24, Type (0, 0), BuildingBlock: ZUJKAS_clean_linker_0, # of connection points: 2
#     Edge 25, Type (0, 0), BuildingBlock: ZUJKAS_clean_linker_0, # of connection points: 2
#     Edge 26, Type (0, 0), BuildingBlock: ZUJKAS_clean_linker_0, # of connection points: 2
#     Edge 27, Type (0, 0), BuildingBlock: ZUJKAS_clean_linker_0, # of connection points: 2
#     Edge 28, Type (0, 0), BuildingBlock: ZUJKAS_clean_linker_0, # of connection points: 2
#     Edge 29, Type (0, 0), BuildingBlock: ZUJKAS_clean_linker_0, # of connection points: 2
#     Edge 30, Type (0, 0), BuildingBlock: ZUJKAS_clean_linker_0, # of connection points: 2
#     Edge 31, Type (0, 0), BuildingBlock: ZUJKAS_clean_linker_0, # of connection points: 2
#     Edge 32, Type (0, 0), BuildingBlock: ZUJKAS_clean_linker_0, # of connection points: 2
#     Edge 33, Type (0, 0), BuildingBlock: ZUJKAS_clean_linker_0, # of connection points: 2
#     Edge 34, Type (0, 0), BuildingBlock: ZUJKAS_clean_linker_0, # of connection points: 2
#     Edge 35, Type (0, 0), BuildingBlock: ZUJKAS_clean_linker_0, # of connection points: 2
#     Edge 36, Type (0, 0), BuildingBlock: ZUJKAS_clean_linker_0, # of connection points: 2
#     Edge 37, Type (0, 0), BuildingBlock: ZUJKAS_clean_linker_0, # of connection points: 2
#     Edge 38, Type (0, 0), BuildingBlock: ZUJKAS_clean_linker_0, # of connection points: 2
#     Edge 39, Type (0, 0), BuildingBlock: ZUJKAS_clean_linker_0, # of connection points: 2
#     Edge 40, Type (0, 0), BuildingBlock: ZUJKAS_clean_linker_0, # of connection points: 2
#     Edge 41, Type (0, 0), BuildingBlock: ZUJKAS_clean_linker_0, # of connection points: 2
#     Edge 42, Type (0, 0), BuildingBlock: ZUJKAS_clean_linker_0, # of connection points: 2
#     Edge 43, Type (0, 0), BuildingBlock: ZUJKAS_clean_linker_0, # of connection points: 2
#     Edge 44, Type (0, 0), BuildingBlock: ZUJKAS_clean_linker_0, # of connection points: 2
#     Edge 45, Type (0, 0), BuildingBlock: ZUJKAS_clean_linker_0, # of connection points: 2
#     Edge 46, Type (0, 0), BuildingBlock: ZUJKAS_clean_linker_0, # of connection points: 2
#     Edge 47, Type (0, 0), BuildingBlock: ZUJKAS_clean_linker_0, # of connection points: 2
#     Edge 48, Type (0, 0), BuildingBlock: ZUJKAS_clean_linker_0, # of connection points: 2
#     Edge 49, Type (0, 0), BuildingBlock: ZUJKAS_clean_linker_0, # of connection points: 2
#     Edge 50, Type (0, 0), BuildingBlock: ZUJKAS_clean_linker_0, # of connection points: 2
#     Edge 51, Type (0, 0), BuildingBlock: ZUJKAS_clean_linker_0, # of connection points: 2
#     Edge 52, Type (0, 0), BuildingBlock: ZUJKAS_clean_linker_0, # of connection points: 2
#     Edge 53, Type (0, 0), BuildingBlock: ZUJKAS_clean_linker_0, # of connection points: 2
# Relax obj value: 0.020
# Max RMSD: 0.247
# Mean RMSD: 0.247
data_MOF--net-ung--node1-NAWXER_clean_sbu_0--edge1-ZUJKAS_clean_linker_0
_symmetry_space_group_name_H-M    P1
_symmetry_Int_Tables_number       1
_symmetry_cell_setting            triclinic
loop_
_symmetry_equiv_pos_as_xyz
'x, y, z'
_cell_length_a     101.29702
_cell_length_b     101.23047
_cell_length_c     27.847335
_cell_angle_alpha  89.96728
_cell_angle_beta   89.924099
_cell_angle_gamma 119.98089
loop_
_atom_site_label
_atom_site_type_symbol
_atom_site_fract_x
_atom_site_fract_y
_atom_site_fract_z
_atom_type_partial_charge
C0 C 0.08013 0.63127 0.32287 0.0
C1 C 0.06642 0.65875 0.20942 0.0
O2 O 0.06756 0.63086 0.3161 0.0
Zn3 Zn 0.07387 0.64509 0.26448 0.0
O4 O 0.09169 0.64011 0.29666 0.0
Zn5 Zn 0.09588 0.6561 0.23796 0.0
O6 O 0.11148 0.67509 0.2621 0.0
O7 O 0.08941 0.66689 0.29865 0.0
O8 O 0.08052 0.66264 0.20452 0.0
O9 O 0.0583 0.64855 0.23982 0.0
O10 O 0.07802 0.63327 0.20596 0.0
O11 O 0.1021 0.64817 0.18616 0.0
C12 C 0.1035 0.6771 0.29316 0.0
C13 C 0.08954 0.63599 0.1796 0.0
C14 C 0.48916 0.50588 0.29635 0.0
C15 C 0.5301 0.53347 0.18196 0.0
O16 O 0.49122 0.51623 0.26659 0.0
Zn17 Zn 0.5101 0.51961 0.24083 0.0
O18 O 0.49931 0.50187 0.30025 0.0
Zn19 Zn 0.52119 0.5085 0.26608 0.0
O20 O 0.53543 0.51634 0.31768 0.0
O21 O 0.52614 0.53123 0.29902 0.0
O22 O 0.53283 0.52457 0.20778 0.0
O23 O 0.51798 0.53391 0.18918 0.0
O24 O 0.50356 0.49776 0.20654 0.0
O25 O 0.51789 0.48967 0.24043 0.0
C26 C 0.535 0.52848 0.32484 0.0
C27 C 0.5076 0.48762 0.21055 0.0
C28 C 0.66056 0.0638 0.29869 0.0
C29 C 0.63292 0.07716 0.18487 0.0
O30 O 0.65028 0.05554 0.26884 0.0
Zn31 Zn 0.64678 0.07101 0.24351 0.0
O32 O 0.66447 0.07794 0.30291 0.0
Zn33 Zn 0.65775 0.09316 0.26909 0.0
O34 O 0.64975 0.0994 0.32085 0.0
O35 O 0.63503 0.07523 0.30186 0.0
O36 O 0.64174 0.08875 0.21081 0.0
O37 O 0.63252 0.0646 0.19192 0.0
O38 O 0.66858 0.08646 0.20918 0.0
O39 O 0.67657 0.1088 0.24347 0.0
C40 C 0.63766 0.08678 0.32785 0.0
C41 C 0.67866 0.10065 0.21331 0.0
C42 C 0.06541 0.48676 0.71248 0.0
C43 C 0.08053 0.52874 0.82327 0.0
O44 O 0.0794 0.49694 0.70527 0.0
Zn45 Zn 0.09527 0.51898 0.73707 0.0
O46 O 0.05777 0.48905 0.74412 0.0
Zn47 Zn 0.07361 0.50828 0.76607 0.0
O48 O 0.07718 0.52388 0.7067 0.0
O49 O 0.10104 0.53282 0.68459 0.0
O50 O 0.06788 0.51657 0.81791 0.0
O51 O 0.0918 0.53125 0.79596 0.0
O52 O 0.11106 0.51557 0.75973 0.0
O53 O 0.08942 0.50221 0.79897 0.0
C54 C 0.08846 0.53249 0.67918 0.0
C55 C 0.10339 0.5059 0.79198 0.0
C56 C 0.66041 0.6773 0.79236 0.0
C57 C 0.63295 0.63543 0.68159 0.0
O58 O 0.66414 0.66701 0.7989 0.0
Zn59 Zn 0.65764 0.6449 0.76657 0.0
O60 O 0.65044 0.67517 0.76116 0.0
Zn61 Zn 0.64682 0.65592 0.73866 0.0
O62 O 0.63496 0.64046 0.79834 0.0
O63 O 0.64958 0.63105 0.81915 0.0
O64 O 0.63265 0.64771 0.68708 0.0
O65 O 0.64168 0.63281 0.70851 0.0
O66 O 0.67658 0.64794 0.74218 0.0
O67 O 0.66863 0.66197 0.70543 0.0
C68 C 0.63753 0.63171 0.82543 0.0
C69 C 0.67873 0.65795 0.71095 0.0
C70 C 0.53062 0.07786 0.68558 0.0
C71 C 0.48906 0.06343 0.79835 0.0
O72 O 0.53318 0.08925 0.7123 0.0
Zn73 Zn 0.52122 0.09307 0.77114 0.0
O74 O 0.51849 0.06521 0.69175 0.0
Zn75 Zn 0.51031 0.07116 0.74359 0.0
O76 O 0.50416 0.0869 0.71017 0.0
O77 O 0.51788 0.1088 0.74769 0.0
O78 O 0.4912 0.05544 0.76763 0.0
O79 O 0.49925 0.07751 0.80376 0.0
O80 O 0.5352 0.09895 0.82328 0.0
O81 O 0.526 0.07495 0.8024 0.0
C82 C 0.50799 0.10096 0.71626 0.0
C83 C 0.53473 0.08631 0.82932 0.0
C84 C 0.74683 0.96468 0.6574 0.0
C85 C 0.73287 0.99197 0.54393 0.0
O86 O 0.73421 0.96415 0.65063 0.0
Zn87 Zn 0.74039 0.97835 0.59887 0.0
O88 O 0.75834 0.97354 0.63107 0.0
Zn89 Zn 0.7624 0.98941 0.57221 0.0
O90 O 0.77799 0.00844 0.59612 0.0
O91 O 0.75592 1.0002 0.63278 0.0
O92 O 0.74698 0.9959 0.53898 0.0
O93 O 0.72477 0.98176 0.57431 0.0
O94 O 0.74451 0.96656 0.54025 0.0
O95 O 0.76858 0.98146 0.52034 0.0
C96 C 0.76999 0.01045 0.62718 0.0
C97 C 0.75601 0.96929 0.51379 0.0
C98 C 0.15593 0.83866 0.63015 0.0
C99 C 0.19704 0.86566 0.51589 0.0
O100 O 0.15793 0.84869 0.59924 0.0
Zn101 Zn 0.17697 0.85209 0.57468 0.0
O102 O 0.16618 0.83483 0.63536 0.0
Zn103 Zn 0.18808 0.84127 0.60195 0.0
O104 O 0.20221 0.84948 0.65361 0.0
O105 O 0.19283 0.86415 0.63307 0.0
O106 O 0.1998 0.85697 0.54267 0.0
O107 O 0.18487 0.86607 0.52236 0.0
O108 O 0.17071 0.83009 0.54188 0.0
O109 O 0.18472 0.82216 0.57888 0.0
C110 C 0.20168 0.8616 0.65972 0.0
C111 C 0.17463 0.81993 0.548 0.0
C112 C 0.34558 0.43368 0.5456 0.0
C113 C 0.30432 0.41949 0.65939 0.0
O114 O 0.34357 0.44169 0.57653 0.0
Zn115 Zn 0.3245 0.42603 0.60095 0.0
O116 O 0.33533 0.4196 0.54032 0.0
Zn117 Zn 0.31343 0.40412 0.57364 0.0
O118 O 0.29934 0.39819 0.52186 0.0
O119 O 0.30868 0.42223 0.54241 0.0
O120 O 0.30163 0.40806 0.63269 0.0
O121 O 0.3165 0.43209 0.65305 0.0
O122 O 0.33074 0.4103 0.63391 0.0
O123 O 0.31677 0.38837 0.59689 0.0
C124 C 0.29986 0.41084 0.51573 0.0
C125 C 0.32683 0.39622 0.62784 0.0
C126 C 0.77014 0.83928 0.12652 0.0
C127 C 0.75522 0.86602 0.01414 0.0
O128 O 0.75615 0.83556 0.13336 0.0
Zn129 Zn 0.74034 0.84163 0.10056 0.0
O130 O 0.77783 0.849 0.09439 0.0
Zn131 Zn 0.76206 0.85247 0.07179 0.0
O132 O 0.75849 0.86453 0.13102 0.0
O133 O 0.73453 0.84981 0.15256 0.0
O134 O 0.76785 0.86647 0.01971 0.0
O135 O 0.74392 0.8573 0.04143 0.0
O136 O 0.72457 0.82241 0.07807 0.0
O137 O 0.74624 0.83057 0.03919 0.0
C138 C 0.74718 0.86196 0.15826 0.0
C139 C 0.73225 0.82032 0.04609 0.0
C140 C 0.32634 0.01064 0.12812 0.0
C141 C 0.29938 0.96924 0.01535 0.0
O142 O 0.33015 1.0004 0.13413 0.0
Zn143 Zn 0.32393 0.9785 0.10075 0.0
O144 O 0.31642 0.0086 0.09681 0.0
Zn145 Zn 0.31299 0.98949 0.07339 0.0
O146 O 0.30109 0.9737 0.13239 0.0
O147 O 0.31587 0.96442 0.15274 0.0
O148 O 0.29893 0.98141 0.02149 0.0
O149 O 0.30813 0.96659 0.04211 0.0
O150 O 0.34297 0.98183 0.07652 0.0
O151 O 0.3349 0.99582 0.04027 0.0
C152 C 0.30373 0.96491 0.1591 0.0
C153 C 0.34508 0.9919 0.04561 0.0
C154 C 0.17455 0.43426 0.04756 0.0
C155 C 0.20164 0.41984 0.15979 0.0
O156 O 0.17071 0.4202 0.04145 0.0
Zn157 Zn 0.17705 0.40455 0.07452 0.0
O158 O 0.18454 0.44212 0.07868 0.0
Zn159 Zn 0.18797 0.42644 0.10192 0.0
O160 O 0.19988 0.42261 0.04288 0.0
O161 O 0.18513 0.39857 0.02247 0.0
O162 O 0.20206 0.43244 0.15374 0.0
O163 O 0.19289 0.40844 0.13304 0.0
O164 O 0.15806 0.38878 0.09893 0.0
O165 O 0.1661 0.41083 0.1352 0.0
C166 C 0.19727 0.4112 0.01617 0.0
C167 C 0.15595 0.39672 0.12992 0.0
C168 C 0.41232 0.29759 0.99587 0.0
C169 C 0.39825 0.32469 0.8824 0.0
O170 O 0.39974 0.29717 0.98929 0.0
Zn171 Zn 0.40592 0.31129 0.93739 0.0
O172 O 0.42381 0.30637 0.96938 0.0
Zn173 Zn 0.42789 0.32226 0.91063 0.0
O174 O 0.44351 0.3413 0.93506 0.0
O175 O 0.42134 0.3332 0.97069 0.0
O176 O 0.41232 0.32854 0.87666 0.0
O177 O 0.3903 0.31471 0.91356 0.0
O178 O 0.41001 0.29946 0.87865 0.0
O179 O 0.43412 0.31429 0.85902 0.0
C180 C 0.43545 0.34339 0.96562 0.0
C181 C 0.42154 0.30215 0.85235 0.0
C182 C 0.82226 0.17245 0.96331 0.0
C183 C 0.8634 0.19913 0.84881 0.0
O184 O 0.82432 0.18246 0.93221 0.0
Zn185 Zn 0.8433 0.18568 0.90766 0.0
O186 O 0.83244 0.16853 0.96859 0.0
Zn187 Zn 0.85426 0.17474 0.93499 0.0
O188 O 0.86842 0.18285 0.98653 0.0
O189 O 0.85921 0.19768 0.96604 0.0
O190 O 0.86606 0.19036 0.87558 0.0
O191 O 0.85129 0.19966 0.85535 0.0
O192 O 0.83687 0.16363 0.87493 0.0
O193 O 0.85074 0.15557 0.91214 0.0
C194 C 0.86799 0.19504 0.99266 0.0
C195 C 0.84069 0.15339 0.8812 0.0
C196 C 0.99413 0.7308 0.96541 0.0
C197 C 0.96659 0.7444 0.85189 0.0
O198 O 0.98372 0.72254 0.9359 0.0
Zn199 Zn 0.9804 0.73812 0.9104 0.0
O200 O 0.9982 0.74499 0.96937 0.0
Zn201 Zn 0.99162 0.76032 0.93558 0.0
O202 O 0.98386 0.76677 0.98746 0.0
O203 O 0.96891 0.7426 0.96892 0.0
O204 O 0.97555 0.75599 0.8776 0.0
O205 O 0.96607 0.73178 0.85903 0.0
O206 O 1.00223 0.75332 0.87581 0.0
O207 O 0.01048 0.77578 0.9096 0.0
C208 C 0.97171 0.75423 0.99479 0.0
C209 C 0.01244 0.76748 0.87968 0.0
C210 C 0.39806 0.15331 0.38411 0.0
C211 C 0.41298 0.19504 0.49598 0.0
O212 O 0.41205 0.16357 0.37709 0.0
Zn213 Zn 0.42785 0.18554 0.40959 0.0
O214 O 0.39039 0.15543 0.41607 0.0
Zn215 Zn 0.40618 0.17464 0.43843 0.0
O216 O 0.40967 0.19025 0.37908 0.0
O217 O 0.43362 0.19947 0.35746 0.0
O218 O 0.40039 0.18281 0.49054 0.0
O219 O 0.42428 0.19766 0.46864 0.0
O220 O 0.44368 0.18217 0.43189 0.0
O221 O 0.42202 0.16849 0.47072 0.0
C222 C 0.42097 0.19897 0.35178 0.0
C223 C 0.43602 0.1723 0.46365 0.0
C224 C 0.99346 0.34332 0.46123 0.0
C225 C 0.96633 0.30199 0.34854 0.0
O226 O 0.99725 0.33306 0.4672 0.0
Zn227 Zn 0.99093 0.31114 0.43372 0.0
O228 O 0.98352 0.34129 0.43002 0.0
Zn229 Zn 0.98005 0.32218 0.4066 0.0
O230 O 0.96816 0.30642 0.4657 0.0
O231 O 0.98286 0.29702 0.48565 0.0
O232 O 0.96594 0.31418 0.35485 0.0
O233 O 0.97508 0.29928 0.37514 0.0
O234 O 0.00994 0.31441 0.40928 0.0
O235 O 1.00191 0.32847 0.37322 0.0
C236 C 0.97077 0.29758 0.49225 0.0
C237 C 0.01206 0.3245 0.37842 0.0
C238 C 0.84147 0.76806 0.38344 0.0
C239 C 0.86872 0.75346 0.49464 0.0
O240 O 0.83773 0.75404 0.37689 0.0
Zn241 Zn 0.84412 0.73836 0.40934 0.0
O242 O 0.85139 0.77587 0.41481 0.0
Zn243 Zn 0.85495 0.76018 0.4374 0.0
O244 O 0.86687 0.75661 0.37787 0.0
O245 O 0.85224 0.7326 0.35692 0.0
O246 O 0.86908 0.76606 0.48913 0.0
O247 O 0.85998 0.74214 0.46763 0.0
O248 O 0.82515 0.72248 0.43344 0.0
O249 O 0.83311 0.7444 0.47045 0.0
C250 C 0.86431 0.7453 0.35078 0.0
C251 C 0.823 0.7303 0.46477 0.0
H252 H 0.05879 0.52611 0.88668 0.0
H253 H 0.06066 0.54458 0.94629 0.0
H254 H 0.10713 0.57525 0.90356 0.0
H255 H 0.10544 0.55668 0.84371 0.0
H256 H 0.10252 0.57165 1.00437 0.0
H257 H 0.06081 0.58441 0.91794 0.0
H258 H 0.05377 0.56446 0.9279 0.0
H259 H 0.0693 0.57486 0.88678 0.0
C260 C 0.06944 0.53678 0.88976 0.0
C261 C 0.08196 0.53994 0.86015 0.0
C262 C 0.07044 0.54737 0.92375 0.0
C263 C 0.08393 0.5614 0.92872 0.0
C264 C 0.09657 0.56452 0.89997 0.0
H265 H 0.11176 0.63907 0.11741 0.0
H266 H 0.11036 0.62095 0.05713 0.0
C267 C 0.09558 0.5539 0.86582 0.0
C268 C 0.08482 0.57263 0.96463 0.0
H269 H 0.06864 0.59392 0.99702 0.0
C270 C 0.09521 0.57662 1.00263 0.0
C271 C 0.07519 0.57901 0.96236 0.0
C272 C 0.06423 0.5756 0.92134 0.0
C273 C 0.096 0.58659 0.03903 0.0
C274 C 0.08634 0.59294 0.03682 0.0
C275 C 0.07599 0.58898 0.99873 0.0
C276 C 0.08702 0.60396 0.07318 0.0
C277 C 0.10693 0.58996 0.08012 0.0
C278 C 0.0742 0.60063 0.10129 0.0
C279 C 0.07491 0.61104 0.13574 0.0
C280 C 0.08846 0.62501 0.14242 0.0
C281 C 0.10118 0.62839 0.11352 0.0
C282 C 0.10044 0.618 0.07918 0.0
H283 H 0.11041 0.58119 0.08332 0.0
H284 H 0.11735 0.60114 0.07382 0.0
H285 H 0.10179 0.59058 0.11469 0.0
H286 H 0.06369 0.58989 0.09693 0.0
H287 H 0.06491 0.6081 0.1573 0.0
H288 H 0.61001 0.62934 0.84795 0.0
H289 H 0.59178 0.61308 0.9096 0.0
H290 H 0.62173 0.59606 0.9488 0.0
H291 H 0.64002 0.61231 0.88805 0.0
H292 H 0.57713 0.58113 0.91749 0.0
H293 H 0.61261 0.60895 0.07805 0.0
H294 H 0.61701 0.61787 0.01957 0.0
H295 H 0.62187 0.60349 0.03376 0.0
C296 C 0.61276 0.62222 0.86995 0.0
C297 C 0.62651 0.6222 0.86319 0.0
C298 C 0.60233 0.61293 0.90508 0.0
C299 C 0.60552 0.60354 0.93426 0.0
C300 C 0.61918 0.60345 0.92742 0.0
H301 H 0.55771 0.5363 0.15815 0.0
H302 H 0.57575 0.55299 0.09685 0.0
C303 C 0.62959 0.61271 0.89241 0.0
C304 C 0.59436 0.59342 0.97077 0.0
H305 H 0.59007 0.58507 0.09064 0.0
C306 C 0.5799 0.58205 0.9554 0.0
C307 C 0.59805 0.5946 0.02016 0.0
C308 C 0.61318 0.60697 0.03904 0.0
C309 C 0.56914 0.57163 0.98799 0.0
C310 C 0.57285 0.57278 0.03735 0.0
C311 C 0.58729 0.58417 0.05274 0.0
C312 C 0.56181 0.56246 0.07377 0.0
C313 C 0.55401 0.55925 0.96916 0.0
C314 C 0.54808 0.56237 0.08139 0.0
C315 C 0.53777 0.55287 0.11626 0.0
C316 C 0.54102 0.54331 0.14449 0.0
C317 C 0.55483 0.54347 0.13694 0.0
C318 C 0.56516 0.55301 0.10199 0.0
H319 H 0.55447 0.55744 0.92998 0.0
H320 H 0.55032 0.54829 0.98808 0.0
H321 H 0.54525 0.5626 0.97532 0.0
H322 H 0.54541 0.5698 0.0607 0.0
H323 H 0.52729 0.55312 0.12125 0.0
H324 H 0.61331 0.05471 0.12426 0.0
H325 H 0.5967 0.0562 0.06372 0.0
H326 H 0.61354 0.10337 0.09975 0.0
H327 H 0.63015 0.10197 0.16105 0.0
H328 H 0.58151 0.08572 0.09363 0.0
H329 H 0.60914 0.07757 0.93294 0.0
H330 H 0.60392 0.06318 0.9783 0.0
H331 H 0.61825 0.08253 0.99101 0.0
C332 C 0.61357 0.06545 0.11924 0.0
C333 C 0.62312 0.07825 0.14744 0.0
C334 C 0.60412 0.06629 0.08438 0.0
C335 C 0.60407 0.07996 0.07672 0.0
C336 C 0.61349 0.09274 0.10492 0.0
H337 H 0.55426 0.10832 0.89114 0.0
H338 H 0.5706 0.10636 0.95158 0.0
C339 C 0.62298 0.09193 0.13986 0.0
C340 C 0.59379 0.08072 0.04033 0.0
H341 H 0.58549 0.0766 0.92053 0.0
C342 C 0.58242 0.08381 0.05575 0.0
C343 C 0.59495 0.07812 0.99098 0.0
C344 C 0.6073 0.07529 0.97212 0.0
C345 C 0.57203 0.08417 0.02321 0.0
C346 C 0.57322 0.08163 0.97383 0.0
C347 C 0.58456 0.07848 0.95843 0.0
C348 C 0.5631 0.08264 0.93738 0.0
C349 C 0.55968 0.08698 0.04211 0.0
C350 C 0.5537 0.07003 0.90847 0.0
C351 C 0.54436 0.07112 0.87352 0.0
C352 C 0.54436 0.08489 0.86669 0.0
C353 C 0.55388 0.09751 0.89559 0.0
C354 C 0.56319 0.0964 0.93041 0.0
H355 H 0.5577 0.08449 0.08116 0.0
H356 H 0.56316 0.09916 0.03665 0.0
H357 H 0.54878 0.07991 0.02279 0.0
H358 H 0.55355 0.05933 0.91309 0.0
H359 H 0.53721 0.06122 0.85178 0.0
H360 H 0.61029 0.06175 0.3522 0.0
H361 H 0.59207 0.06023 0.41298 0.0
H362 H 0.62178 0.10759 0.44807 0.0
H363 H 0.64011 0.10919 0.38805 0.0
H364 H 0.61047 0.08875 0.52858 0.0
H365 H 0.56398 0.07841 0.40186 0.0
H366 H 0.57094 0.06528 0.39644 0.0
H367 H 0.5833 0.08508 0.38226 0.0
C368 C 0.61295 0.07184 0.37284 0.0
C369 C 0.62664 0.0856 0.36508 0.0
C370 C 0.60248 0.07098 0.40735 0.0
C371 C 0.60547 0.08387 0.4345 0.0
C372 C 0.61921 0.09753 0.42735 0.0
H373 H 0.55798 0.10307 0.66216 0.0
H374 H 0.57635 0.1049 0.60136 0.0
C375 C 0.62967 0.09841 0.39294 0.0
C376 C 0.59441 0.08314 0.47089 0.0
H377 H 0.55814 0.07663 0.48487 0.0
C378 C 0.59904 0.08615 0.51905 0.0
C379 C 0.57953 0.07978 0.4583 0.0
C380 C 0.57413 0.07708 0.40687 0.0
C381 C 0.58909 0.08561 0.55516 0.0
C382 C 0.57419 0.08223 0.54258 0.0
C383 C 0.56957 0.07924 0.4944 0.0
C384 C 0.56307 0.08133 0.57901 0.0
C385 C 0.59447 0.08828 0.60659 0.0
C386 C 0.54935 0.06761 0.58572 0.0
C387 C 0.53882 0.06656 0.62009 0.0
C388 C 0.54175 0.07925 0.64842 0.0
C389 C 0.55541 0.09307 0.64115 0.0
C390 C 0.56596 0.09411 0.60663 0.0
H391 H 0.60466 0.08701 0.61156 0.0
H392 H 0.5976 0.10006 0.61714 0.0
H393 H 0.58532 0.08023 0.63115 0.0
H394 H 0.54687 0.05764 0.56464 0.0
H395 H 0.52841 0.05574 0.6246 0.0
H396 H 0.1047 0.6279 0.34517 0.0
H397 H 0.10585 0.61084 0.4055 0.0
H398 H 0.05924 0.59543 0.44549 0.0
H399 H 0.05791 0.61221 0.38523 0.0
H400 H 0.10099 0.60982 0.5053 0.0
H401 H 0.05885 0.55551 0.41909 0.0
H402 H 0.06752 0.57355 0.38781 0.0
H403 H 0.05203 0.56859 0.42892 0.0
C404 C 0.0947 0.62087 0.36676 0.0
C405 C 0.08119 0.62136 0.36011 0.0
C406 C 0.09537 0.61113 0.4012 0.0
C407 C 0.08254 0.60167 0.42934 0.0
C408 C 0.06916 0.60237 0.42341 0.0
H409 H 0.06372 0.53579 0.65872 0.0
H410 H 0.0622 0.55279 0.59883 0.0
C411 C 0.06846 0.61206 0.38907 0.0
C412 C 0.08317 0.59125 0.4656 0.0
H413 H 0.06673 0.55374 0.49799 0.0
C414 C 0.09357 0.59756 0.50359 0.0
C415 C 0.0734 0.57525 0.4634 0.0
C416 C 0.06241 0.56778 0.4224 0.0
C417 C 0.09431 0.58831 0.53988 0.0
C418 C 0.08456 0.57231 0.53763 0.0
C419 C 0.07413 0.56601 0.49971 0.0
C420 C 0.08536 0.5619 0.57352 0.0
C421 C 0.10533 0.59577 0.58081 0.0
C422 C 0.09876 0.56119 0.57841 0.0
C423 C 0.09966 0.55154 0.61242 0.0
C424 C 0.08712 0.54229 0.64214 0.0
C425 C 0.07358 0.54279 0.63652 0.0
C426 C 0.0727 0.55249 0.60235 0.0
H427 H 0.10889 0.60804 0.58419 0.0
H428 H 0.10024 0.58999 0.6154 0.0
H429 H 0.1157 0.59496 0.57416 0.0
H430 H 0.10855 0.56811 0.55581 0.0
H431 H 0.11024 0.55139 0.61547 0.0
H432 H 0.6135 0.63799 0.61955 0.0
H433 H 0.59687 0.61956 0.55992 0.0
H434 H 0.61314 0.58909 0.60049 0.0
H435 H 0.63003 0.6076 0.66027 0.0
H436 H 0.61206 0.59296 0.50006 0.0
H437 H 0.55746 0.5794 0.58775 0.0
H438 H 0.57021 0.5994 0.57817 0.0
H439 H 0.57551 0.58902 0.61873 0.0
C440 C 0.61356 0.62737 0.61598 0.0
C441 C 0.62306 0.62425 0.64492 0.0
C442 C 0.60396 0.6168 0.58201 0.0
C443 C 0.60357 0.60285 0.5764 0.0
C444 C 0.6132 0.59976 0.60457 0.0
H445 H 0.55437 0.52545 0.38605 0.0
H446 H 0.57099 0.54349 0.44662 0.0
C447 C 0.62284 0.61034 0.63868 0.0
C448 C 0.5933 0.59166 0.54036 0.0
H449 H 0.55587 0.57003 0.5085 0.0
C450 C 0.59977 0.58785 0.50203 0.0
C451 C 0.57728 0.58509 0.54295 0.0
C452 C 0.56966 0.58831 0.58432 0.0
C453 C 0.59065 0.57788 0.46561 0.0
C454 C 0.57462 0.57133 0.46814 0.0
C455 C 0.56816 0.57511 0.50656 0.0
C456 C 0.56435 0.56034 0.43167 0.0
C457 C 0.59828 0.57471 0.42417 0.0
C458 C 0.55475 0.56362 0.40407 0.0
C459 C 0.54512 0.55326 0.36949 0.0
C460 C 0.54487 0.53939 0.36213 0.0
C461 C 0.55433 0.53607 0.39048 0.0
C462 C 0.56393 0.54641 0.42498 0.0
H463 H 0.61049 0.58358 0.42091 0.0
H464 H 0.59767 0.56358 0.43009 0.0
H465 H 0.59247 0.57409 0.38976 0.0
H466 H 0.55484 0.57428 0.40895 0.0
H467 H 0.53795 0.55616 0.34837 0.0
H468 H 0.77219 0.88969 0.17985 0.0
H469 H 0.77404 0.90793 0.2412 0.0
H470 H 0.72723 0.87764 0.28148 0.0
H471 H 0.72531 0.85936 0.22105 0.0
H472 H 0.7564 0.92229 0.24934 0.0
H473 H 0.7495 0.88703 0.41022 0.0
H474 H 0.75404 0.88271 0.35169 0.0
H475 H 0.73475 0.87758 0.36626 0.0
C476 C 0.76233 0.88687 0.20201 0.0
C477 C 0.74863 0.87302 0.19566 0.0
C478 C 0.7634 0.89731 0.23697 0.0
C479 C 0.75084 0.89402 0.26638 0.0
C480 C 0.73716 0.88026 0.25991 0.0
H481 H 0.73127 0.94153 0.49107 0.0
H482 H 0.72986 0.92348 0.42975 0.0
C483 C 0.73607 0.86986 0.22508 0.0
C484 C 0.75179 0.90514 0.30281 0.0
H485 H 0.74783 0.90939 0.42274 0.0
C486 C 0.75464 0.91953 0.2873 0.0
C487 C 0.7494 0.90146 0.35227 0.0
C488 C 0.74689 0.88641 0.37127 0.0
C489 C 0.75487 0.93024 0.31983 0.0
C490 C 0.75242 0.92653 0.36926 0.0
C491 C 0.74961 0.91216 0.38479 0.0
C492 C 0.75315 0.93757 0.40564 0.0
C493 C 0.75738 0.94529 0.30086 0.0
C494 C 0.76674 0.95137 0.41269 0.0
C495 C 0.76758 0.96168 0.44753 0.0
C496 C 0.75486 0.95835 0.47634 0.0
C497 C 0.74125 0.94446 0.46939 0.0
C498 C 0.74043 0.93413 0.43444 0.0
H499 H 0.75495 0.94474 0.26178 0.0
H500 H 0.75008 0.94889 0.32008 0.0
H501 H 0.76946 0.95416 0.30649 0.0
H502 H 0.77678 0.95411 0.39157 0.0
H503 H 0.77827 0.97222 0.45204 0.0
H504 H 0.19364 0.88407 0.45145 0.0
H505 H 0.21174 0.9006 0.39062 0.0
H506 H 0.24346 0.88629 0.43469 0.0
H507 H 0.22528 0.86948 0.49545 0.0
H508 H 0.24099 0.92475 0.40396 0.0
H509 H 0.24149 0.88014 0.28928 0.0
H510 H 0.2271 0.8758 0.33454 0.0
H511 H 0.24567 0.87922 0.35143 0.0
C512 C 0.20442 0.88433 0.44812 0.0
C513 C 0.20798 0.87539 0.47827 0.0
C514 C 0.21476 0.89382 0.41331 0.0
C515 C 0.22887 0.89454 0.40771 0.0
C516 C 0.23251 0.88567 0.43776 0.0
H517 H 0.30697 0.94641 0.22358 0.0
H518 H 0.28877 0.9299 0.28418 0.0
C519 C 0.22214 0.87613 0.47262 0.0
C520 C 0.23987 0.90494 0.37128 0.0
H521 H 0.25953 0.90582 0.27048 0.0
C522 C 0.24501 0.92062 0.37465 0.0
C523 C 0.24507 0.89951 0.33308 0.0
C524 C 0.23947 0.88274 0.32643 0.0
C525 C 0.25544 0.93106 0.34135 0.0
C526 C 0.26066 0.92563 0.30318 0.0
C527 C 0.2555 0.90995 0.29978 0.0
C528 C 0.27172 0.93603 0.26687 0.0
C529 C 0.26105 0.94784 0.34801 0.0
C530 C 0.26815 0.94495 0.23677 0.0
C531 C 0.27859 0.9545 0.20203 0.0
C532 C 0.29272 0.95519 0.19655 0.0
C533 C 0.2962 0.94619 0.22676 0.0
C534 C 0.2858 0.93671 0.26145 0.0
H535 H 0.259 0.95043 0.38512 0.0
H536 H 0.27343 0.95477 0.34003 0.0
H537 H 0.25488 0.95137 0.32291 0.0
H538 H 0.25721 0.94438 0.2397 0.0
H539 H 0.27551 0.96119 0.17915 0.0
H540 H 0.28059 0.38891 0.45328 0.0
H541 H 0.26424 0.39082 0.39274 0.0
H542 H 0.2804 0.43752 0.43359 0.0
H543 H 0.29702 0.43578 0.49413 0.0
H544 H 0.24091 0.39742 0.4065 0.0
H545 H 0.28612 0.44023 0.28742 0.0
H546 H 0.28999 0.43 0.33322 0.0
H547 H 0.28758 0.44586 0.34924 0.0
C548 C 0.28076 0.39964 0.44932 0.0
C549 C 0.29017 0.41223 0.47849 0.0
C550 C 0.27138 0.40069 0.41469 0.0
C551 C 0.27123 0.41435 0.40826 0.0
C552 C 0.28055 0.42695 0.43735 0.0
H553 H 0.22089 0.44183 0.22215 0.0
H554 H 0.23728 0.43999 0.28274 0.0
C555 C 0.28999 0.42591 0.47209 0.0
C556 C 0.26099 0.41519 0.37189 0.0
H557 H 0.26067 0.43345 0.26915 0.0
C558 C 0.24522 0.40526 0.37636 0.0
C559 C 0.26665 0.42541 0.33263 0.0
C560 C 0.28351 0.4359 0.32491 0.0
C561 C 0.23493 0.40546 0.34303 0.0
C562 C 0.24059 0.41568 0.30375 0.0
C563 C 0.25636 0.42561 0.29929 0.0
C564 C 0.23035 0.41648 0.26731 0.0
C565 C 0.21806 0.39497 0.35075 0.0
C566 C 0.22106 0.40387 0.23825 0.0
C567 C 0.21161 0.40485 0.20348 0.0
C568 C 0.21137 0.41851 0.19702 0.0
C569 C 0.22075 0.43112 0.22615 0.0
C570 C 0.23016 0.43011 0.26081 0.0
H571 H 0.21546 0.39065 0.38825 0.0
H572 H 0.21159 0.40086 0.34238 0.0
H573 H 0.21401 0.385 0.32647 0.0
H574 H 0.22124 0.39331 0.24208 0.0
H575 H 0.2046 0.39497 0.18148 0.0
H576 H 0.19491 0.38898 0.95539 0.0
H577 H 0.21333 0.39069 0.89561 0.0
H578 H 0.24302 0.43796 0.93185 0.0
H579 H 0.22469 0.43631 0.99251 0.0
H580 H 0.22473 0.40952 0.81564 0.0
H581 H 0.27111 0.41983 0.94286 0.0
H582 H 0.25179 0.41321 0.9623 0.0
H583 H 0.26417 0.43299 0.94797 0.0
C584 C 0.20536 0.39976 0.95081 0.0
C585 C 0.20835 0.4125 0.97899 0.0
C586 C 0.21587 0.4007 0.91653 0.0
C587 C 0.22964 0.41437 0.90975 0.0
C588 C 0.23259 0.4272 0.93718 0.0
H589 H 0.30678 0.44179 0.72007 0.0
H590 H 0.28841 0.44018 0.77987 0.0
C591 C 0.22207 0.42627 0.97162 0.0
C592 C 0.24074 0.41513 0.87348 0.0
H593 H 0.27696 0.42142 0.85994 0.0
C594 C 0.23614 0.41208 0.82529 0.0
C595 C 0.2556 0.41844 0.88623 0.0
C596 C 0.26097 0.42118 0.93769 0.0
C597 C 0.24609 0.4125 0.78934 0.0
C598 C 0.26094 0.4158 0.80209 0.0
C599 C 0.26555 0.41886 0.85028 0.0
C600 C 0.27203 0.41651 0.76584 0.0
C601 C 0.24072 0.40976 0.73789 0.0
C602 C 0.26902 0.40365 0.73847 0.0
C603 C 0.27952 0.40452 0.70403 0.0
C604 C 0.29326 0.41826 0.6966 0.0
C605 C 0.29631 0.43103 0.72471 0.0
C606 C 0.28583 0.43014 0.759 0.0
H607 H 0.23061 0.41115 0.7327 0.0
H608 H 0.24991 0.4177 0.71325 0.0
H609 H 0.23747 0.39793 0.72765 0.0
H610 H 0.25858 0.39292 0.74386 0.0
H611 H 0.27686 0.39446 0.6832 0.0
H612 H 0.73035 0.86909 0.99357 0.0
H613 H 0.7286 0.88578 0.93319 0.0
H614 H 0.77506 0.90155 0.89038 0.0
H615 H 0.77699 0.88512 0.9507 0.0
H616 H 0.76878 0.92509 0.90474 0.0
H617 H 0.72543 0.88005 0.787 0.0
H618 H 0.72004 0.87868 0.84907 0.0
H619 H 0.73571 0.87606 0.83227 0.0
C620 C 0.74016 0.87604 0.97112 0.0
C621 C 0.75379 0.87572 0.97693 0.0
C622 C 0.73912 0.88553 0.93648 0.0
C623 C 0.75165 0.89477 0.90691 0.0
C624 C 0.76525 0.89448 0.91272 0.0
H625 H 0.77156 0.9616 0.6797 0.0
H626 H 0.773 0.94489 0.74066 0.0
C627 C 0.7663 0.88504 0.94723 0.0
C628 C 0.75083 0.90508 0.87065 0.0
H629 H 0.73255 0.90558 0.76832 0.0
C630 C 0.76088 0.92084 0.87482 0.0
C631 C 0.74053 0.89949 0.83167 0.0
C632 C 0.72989 0.88264 0.8243 0.0
C633 C 0.76077 0.93119 0.84145 0.0
C634 C 0.7505 0.9256 0.80239 0.0
C635 C 0.74042 0.90984 0.79828 0.0
C636 C 0.74983 0.9359 0.76575 0.0
C637 C 0.7714 0.94804 0.84891 0.0
C638 C 0.73626 0.93617 0.759 0.0
C639 C 0.73537 0.94561 0.72409 0.0
C640 C 0.74803 0.95494 0.69496 0.0
C641 C 0.76163 0.95463 0.70171 0.0
C642 C 0.7625 0.94514 0.73669 0.0
H643 H 0.77566 0.95063 0.88642 0.0
H644 H 0.78139 0.95196 0.82473 0.0
H645 H 0.76566 0.95465 0.84027 0.0
H646 H 0.72633 0.9291 0.7809 0.0
H647 H 0.7247 0.94553 0.71989 0.0
H648 H 0.29678 0.94163 0.99271 0.0
H649 H 0.28039 0.92348 0.93135 0.0
H650 H 0.26348 0.95361 0.89319 0.0
H651 H 0.27986 0.97183 0.95369 0.0
H652 H 0.24842 0.90893 0.92402 0.0
H653 H 0.27631 0.94466 0.76343 0.0
H654 H 0.28524 0.94893 0.82178 0.0
H655 H 0.27089 0.95385 0.8081 0.0
C656 C 0.28965 0.94444 0.97104 0.0
C657 C 0.2897 0.95823 0.97798 0.0
C658 C 0.28028 0.93405 0.93605 0.0
C659 C 0.2709 0.93732 0.90722 0.0
C660 C 0.27087 0.95101 0.91431 0.0
H661 H 0.20417 0.88919 0.68223 0.0
H662 H 0.22055 0.9074 0.74351 0.0
C663 C 0.2802 0.96138 0.94917 0.0
C664 C 0.26075 0.92623 0.87074 0.0
H665 H 0.25257 0.92204 0.75085 0.0
C666 C 0.24938 0.91175 0.88612 0.0
C667 C 0.26198 0.92998 0.82135 0.0
C668 C 0.27434 0.94515 0.8025 0.0
C669 C 0.23902 0.901 0.85352 0.0
C670 C 0.24024 0.90475 0.80413 0.0
C671 C 0.25161 0.91923 0.78876 0.0
C672 C 0.23012 0.89364 0.76765 0.0
C673 C 0.22666 0.88583 0.87237 0.0
C674 C 0.23022 0.87998 0.76059 0.0
C675 C 0.2209 0.86958 0.72578 0.0
C676 C 0.21135 0.87267 0.69698 0.0
C677 C 0.21134 0.88643 0.70389 0.0
C678 C 0.2207 0.89685 0.73882 0.0
H679 H 0.22469 0.88631 0.91143 0.0
H680 H 0.21576 0.88204 0.85307 0.0
H681 H 0.23012 0.87713 0.86678 0.0
H682 H 0.23764 0.87742 0.78171 0.0
H683 H 0.22128 0.85915 0.72129 0.0
H684 H 0.39683 0.27435 0.82955 0.0
H685 H 0.39561 0.25612 0.76919 0.0
H686 H 0.4424 0.287 0.7303 0.0
H687 H 0.44381 0.30513 0.79054 0.0
H688 H 0.40079 0.26015 0.66929 0.0
H689 H 0.44215 0.2471 0.7569 0.0
H690 H 0.43354 0.25656 0.78794 0.0
H691 H 0.44922 0.26708 0.74743 0.0
C692 C 0.40686 0.27724 0.80819 0.0
C693 C 0.42044 0.29116 0.81513 0.0
C694 C 0.40614 0.26683 0.77374 0.0
C695 C 0.419 0.2701 0.74589 0.0
C696 C 0.43246 0.28409 0.75213 0.0
H697 H 0.43784 0.22294 0.51712 0.0
H698 H 0.43938 0.24144 0.57699 0.0
C699 C 0.43319 0.29449 0.78646 0.0
C700 C 0.41833 0.25906 0.70961 0.0
H701 H 0.43447 0.23768 0.67773 0.0
C702 C 0.40809 0.25517 0.67125 0.0
C703 C 0.42793 0.25264 0.71213 0.0
C704 C 0.43874 0.25593 0.75352 0.0
C705 C 0.40734 0.2452 0.6349 0.0
C706 C 0.41693 0.23877 0.63746 0.0
C707 C 0.4272 0.24268 0.67576 0.0
C708 C 0.41611 0.22758 0.60151 0.0
C709 C 0.39651 0.24187 0.59357 0.0
C710 C 0.40263 0.21356 0.59616 0.0
C711 C 0.40171 0.20301 0.56217 0.0
C712 C 0.41431 0.20619 0.53291 0.0
C713 C 0.42793 0.22014 0.53895 0.0
C714 C 0.42882 0.23072 0.57311 0.0
H715 H 0.39311 0.2507 0.5901 0.0
H716 H 0.40168 0.24119 0.55915 0.0
H717 H 0.38603 0.23073 0.59981 0.0
H718 H 0.39279 0.21076 0.61841 0.0
H719 H 0.39107 0.19235 0.55878 0.0
H720 H 0.86064 0.21846 0.78664 0.0
H721 H 0.87883 0.23494 0.72601 0.0
H722 H 0.9092 0.21838 0.76451 0.0
H723 H 0.89107 0.20188 0.82601 0.0
H724 H 0.92351 0.25036 0.75706 0.0
H725 H 0.88815 0.2224 0.59637 0.0
H726 H 0.87879 0.22766 0.64093 0.0
H727 H 0.88387 0.21341 0.65473 0.0
C728 C 0.87114 0.21822 0.78215 0.0
C729 C 0.87436 0.20878 0.81113 0.0
C730 C 0.88149 0.2276 0.74721 0.0
C731 C 0.89525 0.22771 0.7402 0.0
C732 C 0.89858 0.21838 0.76915 0.0
H733 H 0.97347 0.27816 0.55421 0.0
H734 H 0.95527 0.26168 0.61481 0.0
C735 C 0.8882 0.20895 0.8042 0.0
C736 C 0.90634 0.23796 0.70373 0.0
H737 H 0.91062 0.24631 0.58386 0.0
C738 C 0.92075 0.24942 0.71915 0.0
C739 C 0.90265 0.23677 0.65433 0.0
C740 C 0.88758 0.22432 0.63542 0.0
C741 C 0.93148 0.2599 0.68658 0.0
C742 C 0.92779 0.25871 0.63718 0.0
C743 C 0.91339 0.24725 0.62177 0.0
C744 C 0.93888 0.26896 0.60072 0.0
C745 C 0.94655 0.27235 0.70549 0.0
C746 C 0.93557 0.27831 0.57185 0.0
C747 C 0.94596 0.28775 0.53682 0.0
C748 C 0.95979 0.2879 0.52983 0.0
C749 C 0.96299 0.27843 0.55873 0.0
C750 C 0.95263 0.26904 0.59366 0.0
H751 H 0.94599 0.27425 0.74455 0.0
H752 H 0.95535 0.26902 0.69991 0.0
H753 H 0.95026 0.28326 0.68621 0.0
H754 H 0.92497 0.27834 0.57653 0.0
H755 H 0.94311 0.29485 0.51508 0.0
H756 H 0.96416 0.76939 0.82768 0.0
H757 H 0.94749 0.77088 0.76688 0.0
H758 H 0.93006 0.72356 0.73156 0.0
H759 H 0.94674 0.72198 0.79165 0.0
H760 H 0.93774 0.74259 0.65108 0.0
H761 H 0.90114 0.75242 0.77785 0.0
H762 H 0.9212 0.76558 0.78364 0.0
H763 H 0.91379 0.74576 0.79735 0.0
C764 C 0.95678 0.75929 0.807 0.0
C765 C 0.95675 0.74555 0.81471 0.0
C766 C 0.9472 0.76015 0.77246 0.0
C767 C 0.93737 0.74726 0.74524 0.0
C768 C 0.93749 0.73361 0.75235 0.0
H769 H 0.87109 0.7283 0.51703 0.0
H770 H 0.8876 0.72641 0.57761 0.0
C771 C 0.94704 0.73274 0.7868 0.0
C772 C 0.92708 0.74799 0.70882 0.0
H773 H 0.89722 0.75433 0.69486 0.0
C774 C 0.92883 0.7451 0.66061 0.0
C775 C 0.91547 0.75124 0.72144 0.0
C776 C 0.91265 0.7538 0.77291 0.0
C777 C 0.91948 0.74568 0.62447 0.0
C778 C 0.90788 0.74896 0.63707 0.0
C779 C 0.90611 0.75181 0.68532 0.0
C780 C 0.89772 0.7499 0.60063 0.0
C781 C 0.92233 0.74316 0.57299 0.0
C782 C 0.89764 0.76361 0.59434 0.0
C783 C 0.88817 0.76469 0.5601 0.0
C784 C 0.8785 0.75206 0.53148 0.0
C785 C 0.87845 0.73826 0.53826 0.0
C786 C 0.88794 0.73718 0.57266 0.0
H787 H 0.93383 0.7445 0.56811 0.0
H788 H 0.91376 0.7314 0.56212 0.0
H789 H 0.92124 0.75125 0.54861 0.0
H790 H 0.90504 0.77353 0.61569 0.0
H791 H 0.8885 0.77549 0.55596 0.0
H792 H 0.89181 0.77048 0.32818 0.0
H793 H 0.91008 0.77245 0.26672 0.0
H794 H 0.88026 0.72543 0.22803 0.0
H795 H 0.86193 0.72338 0.28858 0.0
H796 H 0.92484 0.75527 0.25917 0.0
H797 H 0.88929 0.74728 0.09852 0.0
H798 H 0.88486 0.75181 0.15688 0.0
H799 H 0.88007 0.73258 0.14295 0.0
C800 C 0.8891 0.7606 0.30634 0.0
C801 C 0.87536 0.7468 0.31317 0.0
C802 C 0.89955 0.76174 0.27131 0.0
C803 C 0.89641 0.74915 0.24231 0.0
C804 C 0.88277 0.73537 0.24925 0.0
H805 H 0.94414 0.72949 0.01908 0.0
H806 H 0.92616 0.72823 0.0804 0.0
C807 C 0.87233 0.73422 0.28415 0.0
C808 C 0.90758 0.75019 0.20587 0.0
H809 H 0.91184 0.74595 0.08614 0.0
C810 C 0.92206 0.75335 0.22128 0.0
C811 C 0.90388 0.7476 0.1565 0.0
C812 C 0.88873 0.74476 0.13755 0.0
C813 C 0.93283 0.75367 0.18878 0.0
C814 C 0.92909 0.751 0.13945 0.0
C815 C 0.91464 0.74791 0.12401 0.0
C816 C 0.94013 0.75167 0.1031 0.0
C817 C 0.94798 0.7565 0.20768 0.0
C818 C 0.95386 0.7653 0.09527 0.0
C819 C 0.96413 0.76606 0.0604 0.0
C820 C 0.96085 0.75321 0.03236 0.0
C821 C 0.94704 0.73957 0.04014 0.0
C822 C 0.93675 0.73883 0.0751 0.0
H823 H 0.94753 0.75429 0.2469 0.0
H824 H 0.95169 0.74922 0.18894 0.0
H825 H 0.95671 0.76861 0.20132 0.0
H826 H 0.95655 0.77543 0.11577 0.0
H827 H 0.97461 0.77677 0.05522 0.0
H828 H 0.39595 0.20166 0.32988 0.0
H829 H 0.39415 0.21809 0.26848 0.0
H830 H 0.44102 0.23472 0.22881 0.0
H831 H 0.44289 0.21832 0.28924 0.0
H832 H 0.41172 0.25008 0.26049 0.0
H833 H 0.41899 0.22195 0.09978 0.0
H834 H 0.4144 0.21304 0.15827 0.0
H835 H 0.43368 0.22726 0.14393 0.0
C836 C 0.40583 0.20874 0.30784 0.0
C837 C 0.41954 0.2086 0.31435 0.0
C838 C 0.40479 0.21813 0.27285 0.0
C839 C 0.41738 0.22744 0.24359 0.0
C840 C 0.43107 0.22738 0.25024 0.0
H841 H 0.4371 0.29465 0.0189 0.0
H842 H 0.43851 0.27802 0.08032 0.0
C843 C 0.43212 0.21804 0.28508 0.0
C844 C 0.41646 0.23763 0.20712 0.0
H845 H 0.42063 0.24598 0.08726 0.0
C846 C 0.41355 0.24913 0.22257 0.0
C847 C 0.41896 0.23641 0.15771 0.0
C848 C 0.42154 0.22392 0.13877 0.0
C849 C 0.41337 0.25963 0.19002 0.0
C850 C 0.4159 0.25844 0.14063 0.0
C851 C 0.41878 0.24692 0.12517 0.0
C852 C 0.41519 0.26875 0.10421 0.0
C853 C 0.41079 0.27213 0.20893 0.0
C854 C 0.40158 0.26893 0.097 0.0
C855 C 0.40074 0.27838 0.0621 0.0
C856 C 0.41348 0.28782 0.03338 0.0
C857 C 0.4271 0.28758 0.0405 0.0
C858 C 0.42792 0.27807 0.07551 0.0
H859 H 0.41317 0.27399 0.24803 0.0
H860 H 0.41807 0.28305 0.18977 0.0
H861 H 0.3987 0.26888 0.20319 0.0
H862 H 0.39153 0.26159 0.11802 0.0
H863 H 0.39004 0.2782 0.05746 0.0
H864 H 0.96336 0.27421 0.3261 0.0
H865 H 0.94685 0.25615 0.26468 0.0
H866 H 0.93061 0.2868 0.22599 0.0
H867 H 0.94709 0.3049 0.28656 0.0
H868 H 0.91483 0.24207 0.25716 0.0
H869 H 0.94338 0.27746 0.09652 0.0
H870 H 0.95226 0.28159 0.15495 0.0
H871 H 0.9382 0.2869 0.14103 0.0
C872 C 0.95635 0.27714 0.3043 0.0
C873 C 0.95661 0.29104 0.31113 0.0
C874 C 0.94692 0.26681 0.26929 0.0
C875 C 0.93769 0.27025 0.24031 0.0
C876 C 0.93788 0.28406 0.24725 0.0
H877 H 0.87091 0.22282 0.01483 0.0
H878 H 0.88739 0.24094 0.07617 0.0
C879 C 0.94726 0.29436 0.28215 0.0
C880 C 0.92747 0.25923 0.20382 0.0
H881 H 0.91944 0.2551 0.08383 0.0
C882 C 0.91588 0.24487 0.21922 0.0
C883 C 0.92883 0.26297 0.1544 0.0
C884 C 0.94142 0.27801 0.13556 0.0
C885 C 0.90544 0.23421 0.1866 0.0
C886 C 0.9068 0.23794 0.13717 0.0
C887 C 0.91838 0.25231 0.12177 0.0
C888 C 0.89661 0.2269 0.10068 0.0
C889 C 0.89285 0.21916 0.20544 0.0
C890 C 0.89647 0.21312 0.09383 0.0
C891 C 0.8871 0.20278 0.05898 0.0
C892 C 0.87772 0.20605 0.02996 0.0
C893 C 0.87794 0.21993 0.03667 0.0
C894 C 0.88736 0.23029 0.07164 0.0
H895 H 0.89088 0.21972 0.24446 0.0
H896 H 0.88202 0.21557 0.18599 0.0
H897 H 0.89608 0.21028 0.20004 0.0
H898 H 0.90375 0.21041 0.11513 0.0
H899 H 0.8873 0.19225 0.05466 0.0
H900 H 0.12936 0.70368 0.27209 0.0
H901 H 0.14056 0.72763 0.31618 0.0
H902 H 0.10461 0.70711 0.42169 0.0
H903 H 0.09291 0.68314 0.37631 0.0
H904 H 0.11028 0.73497 0.4 0.0
H905 H 0.16523 0.73764 0.43576 0.0
H906 H 0.16135 0.73644 0.37268 0.0
H907 H 0.14904 0.72084 0.41161 0.0
C908 C 0.12387 0.7042 0.30485 0.0
C909 C 0.11033 0.69145 0.32103 0.0
C910 C 0.13034 0.7179 0.33019 0.0
C911 C 0.12367 0.71909 0.37296 0.0
C912 C 0.11003 0.70643 0.38896 0.0
H913 H 0.17341 0.79335 0.57251 0.0
H914 H 0.16016 0.76892 0.53119 0.0
C915 C 0.10338 0.69274 0.36311 0.0
C916 C 0.13084 0.73363 0.40032 0.0
H917 H 0.16462 0.76067 0.44836 0.0
C918 C 0.12213 0.74053 0.41098 0.0
C919 C 0.14624 0.74079 0.41534 0.0
C920 C 0.15594 0.73346 0.40872 0.0
C921 C 0.12846 0.75453 0.43546 0.0
C922 C 0.14408 0.76207 0.44816 0.0
C923 C 0.1527 0.75502 0.43809 0.0
C924 C 0.15168 0.777 0.47351 0.0
C925 C 0.11821 0.76084 0.44837 0.0
C926 C 0.15145 0.78979 0.45482 0.0
C927 C 0.15884 0.80379 0.47899 0.0
C928 C 0.16692 0.80532 0.52155 0.0
C929 C 0.16737 0.79258 0.53961 0.0
C930 C 0.15976 0.77858 0.51603 0.0
H931 H 0.10605 0.75171 0.44967 0.0
H932 H 0.12133 0.76669 0.4837 0.0
H933 H 0.11932 0.76921 0.42061 0.0
H934 H 0.1457 0.78902 0.42133 0.0
H935 H 0.15839 0.81344 0.46405 0.0
H936 H 0.47921 0.48099 0.35549 0.0
H937 H 0.4546 0.46718 0.39698 0.0
H938 H 0.44214 0.4993 0.34218 0.0
H939 H 0.4665 0.513 0.30018 0.0
H940 H 0.44155 0.47687 0.46597 0.0
H941 H 0.40622 0.45839 0.30126 0.0
H942 H 0.42658 0.46598 0.30012 0.0
H943 H 0.41893 0.47862 0.3037 0.0
C944 C 0.47124 0.48514 0.35239 0.0
C945 C 0.47478 0.49804 0.32423 0.0
C946 C 0.45718 0.47722 0.37604 0.0
C947 C 0.44642 0.48203 0.37178 0.0
C948 C 0.45012 0.49516 0.34493 0.0
H949 H 0.36946 0.46289 0.54953 0.0
H950 H 0.39379 0.47363 0.50727 0.0
C951 C 0.46411 0.50304 0.32121 0.0
C952 C 0.43139 0.47351 0.39593 0.0
H953 H 0.39306 0.45567 0.37516 0.0
C954 C 0.43094 0.47212 0.44612 0.0
C955 C 0.41756 0.46711 0.36988 0.0
C956 C 0.41729 0.46744 0.31573 0.0
C957 C 0.41703 0.46498 0.47111 0.0
C958 C 0.40324 0.45931 0.44523 0.0
C959 C 0.40366 0.46019 0.39494 0.0
C960 C 0.38828 0.45278 0.46985 0.0
C961 C 0.41722 0.46354 0.52501 0.0
C962 C 0.3769 0.43762 0.46154 0.0
C963 C 0.36289 0.43144 0.48546 0.0
C964 C 0.36 0.44036 0.51786 0.0
C965 C 0.37131 0.45566 0.52506 0.0
C966 C 0.38529 0.4618 0.50119 0.0
H967 H 0.42805 0.46447 0.53765 0.0
H968 H 0.41613 0.47287 0.54192 0.0
H969 H 0.40757 0.4525 0.53751 0.0
H970 H 0.37895 0.43051 0.43712 0.0
H971 H 0.35441 0.41963 0.47904 0.0
H972 H 0.74729 0.01585 0.48077 0.0
H973 H 0.73644 0.02969 0.43987 0.0
H974 H 0.69268 0.99964 0.50399 0.0
H975 H 0.70339 0.98588 0.54532 0.0
H976 H 0.7123 0.01935 0.37521 0.0
H977 H 0.7001 0.042 0.54017 0.0
H978 H 0.71241 0.03386 0.53994 0.0
H979 H 0.69204 0.02168 0.54116 0.0
C980 C 0.73535 0.01216 0.48607 0.0
C981 C 0.72624 0.99981 0.51656 0.0
C982 C 0.72918 0.0201 0.46274 0.0
C983 C 0.71384 0.01588 0.46972 0.0
C984 C 0.70464 1.00331 0.49905 0.0
H985 H 0.65429 0.03425 0.29926 0.0
H986 H 0.66811 0.02366 0.34079 0.0
C987 C 0.71077 0.99539 0.52236 0.0
C988 C 0.70732 0.02441 0.44577 0.0
H989 H 0.68847 0.04388 0.46784 0.0
C990 C 0.7072 0.02482 0.39543 0.0
C991 C 0.7009 0.03176 0.47224 0.0
C992 C 0.70148 0.03246 0.52637 0.0
C993 C 0.70032 0.03191 0.37081 0.0
C994 C 0.69317 0.03853 0.3973 0.0
C995 C 0.6938 0.03863 0.44763 0.0
C996 C 0.68459 0.045 0.37339 0.0
C997 C 0.70079 0.03225 0.31664 0.0
C998 C 0.68892 0.06042 0.37939 0.0
C999 C 0.68095 0.06652 0.35592 0.0
C1000 C 0.66846 0.05727 0.32628 0.0
C1001 C 0.66392 0.04174 0.32151 0.0
C1002 C 0.67187 0.03567 0.34496 0.0
H1003 H 0.71022 0.03074 0.30256 0.0
H1004 H 0.68992 0.02278 0.30258 0.0
H1005 H 0.70219 0.04315 0.30262 0.0
H1006 H 0.69864 0.06778 0.40156 0.0
H1007 H 0.68473 0.07852 0.36041 0.0
H1008 H 0.70122 0.13047 0.21049 0.0
H1009 H 0.72538 0.14152 0.16717 0.0
H1010 H 0.71304 0.09726 0.10986 0.0
H1011 H 0.68864 0.08608 0.15266 0.0
H1012 H 0.74825 0.1343 0.17687 0.0
H1013 H 0.72608 0.12439 0.99011 0.0
H1014 H 0.71446 0.12282 0.0414 0.0
H1015 H 0.71822 0.10768 0.02747 0.0
C1016 C 0.70355 0.12307 0.18837 0.0
C1017 C 0.69296 0.10738 0.18492 0.0
C1018 C 0.7174 0.12941 0.16373 0.0
C1019 C 0.72096 0.12025 0.13499 0.0
C1020 C 0.71041 0.10459 0.1312 0.0
H1021 H 0.81299 0.14914 0.0286 0.0
H1022 H 0.78858 0.13593 0.07131 0.0
C1023 C 0.69649 0.09822 0.1558 0.0
C1024 C 0.73592 0.12713 0.11019 0.0
H1025 H 0.75262 0.13457 0.99942 0.0
C1026 C 0.74923 0.13432 0.13807 0.0
C1027 C 0.73713 0.12725 0.05958 0.0
C1028 C 0.72323 0.12024 0.02774 0.0
C1029 C 0.76373 0.14173 0.11669 0.0
C1030 C 0.76495 0.14172 0.06611 0.0
C1031 C 0.75164 0.13445 0.03823 0.0
C1032 C 0.77988 0.14979 0.0412 0.0
C1033 C 0.7776 0.14988 0.14833 0.0
C1034 C 0.78301 0.16184 0.00974 0.0
C1035 C 0.79688 0.16935 0.98521 0.0
C1036 C 0.80792 0.16494 0.99146 0.0
C1037 C 0.80479 0.1529 0.02323 0.0
C1038 C 0.79086 0.14536 0.04777 0.0
H1039 H 0.7746 0.15175 0.18511 0.0
H1040 H 0.78321 0.1429 0.15134 0.0
H1041 H 0.78596 0.16109 0.13266 0.0
H1042 H 0.77468 0.16542 1.00414 0.0
H1043 H 0.79888 0.17855 0.96097 0.0
H1044 H 0.01905 0.74565 0.02417 0.0
H1045 H 0.03295 0.7348 0.06467 0.0
H1046 H 1.0009 0.69032 0.00945 0.0
H1047 H 0.98709 0.70102 0.96846 0.0
H1048 H 0.02332 0.71182 0.13319 0.0
H1049 H 0.04188 0.6956 0.96702 0.0
H1050 H 0.03426 0.70835 0.96678 0.0
H1051 H 0.02166 0.68806 0.96984 0.0
C1052 C 0.01493 0.73355 0.02078 0.0
C1053 C 1.00201 0.72423 0.9928 0.0
C1054 C 0.02291 0.72738 0.04386 0.0
C1055 C 0.01814 0.71182 0.03918 0.0
C1056 C 1.005 0.70243 0.01251 0.0
H1057 H 0.03719 0.65332 0.21306 0.0
H1058 H 0.02653 0.6671 0.17159 0.0
C1059 C 0.99705 0.70856 0.98939 0.0
C1060 C 0.02672 0.70528 0.06271 0.0
H1061 H 0.04466 0.68494 0.04034 0.0
C1062 C 0.02811 0.70606 0.11289 0.0
C1063 C 0.03317 0.69798 0.03608 0.0
C1064 C 0.03282 0.69756 0.98192 0.0
C1065 C 0.03527 0.69922 0.13731 0.0
C1066 C 0.04097 0.69121 0.11085 0.0
C1067 C 0.04011 0.69093 0.06056 0.0
C1068 C 0.04747 0.68267 0.13486 0.0
C1069 C 0.03667 0.70063 0.19124 0.0
C1070 C 0.06265 0.68651 0.12665 0.0
C1071 C 0.0688 0.67857 0.15015 0.0
C1072 C 0.0598 0.66659 0.18198 0.0
C1073 C 0.04447 0.66254 0.18902 0.0
C1074 C 0.03837 0.67047 0.1656 0.0
H1075 H 0.03569 0.71046 0.20444 0.0
H1076 H 0.02736 0.69012 0.20788 0.0
H1077 H 0.04772 0.702 0.20347 0.0
H1078 H 0.06982 0.69581 0.10268 0.0
H1079 H 0.08063 0.68197 0.14386 0.0
H1080 H 0.46495 0.36667 0.9641 0.0
H1081 H 0.47588 0.391 0.00632 0.0
H1082 H 0.4322 0.37745 0.07076 0.0
H1083 H 0.42114 0.35291 0.02898 0.0
H1084 H 0.46724 0.41315 0.99906 0.0
H1085 H 0.46135 0.39158 0.18602 0.0
H1086 H 0.45956 0.38006 0.1343 0.0
H1087 H 0.4441 0.38299 0.15134 0.0
C1088 C 0.45766 0.36877 0.98754 0.0
C1089 C 0.44217 0.3578 0.99329 0.0
C1090 C 0.46393 0.38272 0.01153 0.0
C1091 C 0.45489 0.38598 0.04193 0.0
C1092 C 0.43943 0.37506 0.04803 0.0
H1093 H 0.48315 0.47783 0.14979 0.0
H1094 H 0.46967 0.45334 0.10773 0.0
C1095 C 0.43313 0.36106 0.02403 0.0
C1096 C 0.46168 0.40099 0.06626 0.0
H1097 H 0.47067 0.41798 0.17645 0.0
C1098 C 0.46795 0.41423 0.03786 0.0
C1099 C 0.46269 0.40233 0.11683 0.0
C1100 C 0.45669 0.38852 0.14904 0.0
C1101 C 0.47531 0.42881 0.05867 0.0
C1102 C 0.47623 0.43015 0.10926 0.0
C1103 C 0.46985 0.4169 0.13766 0.0
C1104 C 0.48446 0.44516 0.13352 0.0
C1105 C 0.48246 0.44264 0.02637 0.0
C1106 C 0.49713 0.44862 0.16229 0.0
C1107 C 0.50479 0.46253 0.18645 0.0
C1108 C 0.49991 0.47328 0.1825 0.0
C1109 C 0.48727 0.46985 0.15331 0.0
C1110 C 0.47957 0.45588 0.12915 0.0
H1111 H 0.48371 0.43965 0.9889 0.0
H1112 H 0.47513 0.4479 0.02574 0.0
H1113 H 0.49386 0.45128 0.03992 0.0
H1114 H 0.50108 0.44051 0.16614 0.0
H1115 H 0.51446 0.46477 0.20863 0.0
H1116 H 0.00992 0.34946 0.54463 0.0
H1117 H 0.02216 0.37352 0.58952 0.0
H1118 H 0.00704 0.39395 0.48285 0.0
H1119 H 0.99432 0.36991 0.43922 0.0
H1120 H 0.04444 0.4013 0.56734 0.0
H1121 H 0.99225 0.40431 0.60174 0.0
H1122 H 0.99161 0.38742 0.57819 0.0
H1123 H 0.99501 0.40294 0.53877 0.0
C1124 C 0.00911 0.35906 0.53106 0.0
C1125 C 1.00097 0.35773 0.48878 0.0
C1126 C 0.01613 0.37281 0.55664 0.0
C1127 C 0.01522 0.38546 0.54017 0.0
C1128 C 0.00747 0.38423 0.49721 0.0
H1129 H 0.07494 0.47997 0.62853 0.0
H1130 H 0.0631 0.45542 0.58654 0.0
C1131 C 1.00026 0.37047 0.47214 0.0
C1132 C 0.02258 0.40006 0.5672 0.0
H1133 H 0.0159 0.42732 0.61407 0.0
C1134 C 0.03818 0.40693 0.57796 0.0
C1135 C 0.01437 0.40731 0.58175 0.0
C1136 C 0.99736 0.40003 0.57498 0.0
C1137 C 0.04585 0.42099 0.60205 0.0
C1138 C 0.0378 0.42863 0.61427 0.0
C1139 C 0.02215 0.4216 0.60415 0.0
C1140 C 0.04514 0.44363 0.6391 0.0
C1141 C 0.06238 0.42728 0.61508 0.0
C1142 C 0.03869 0.44537 0.68157 0.0
C1143 C 0.04517 0.45945 0.70477 0.0
C1144 C 0.05837 0.47209 0.68634 0.0
C1145 C 0.06484 0.4704 0.64376 0.0
C1146 C 0.05816 0.45633 0.62001 0.0
H1147 H 0.06538 0.41813 0.61677 0.0
H1148 H 0.06967 0.43557 0.58718 0.0
H1149 H 0.06508 0.43322 0.65026 0.0
H1150 H 0.02864 0.43579 0.69701 0.0
H1151 H 0.03996 0.46034 0.73767 0.0
H1152 H 0.68865 0.68189 0.64787 0.0
H1153 H 0.71317 0.69499 0.6058 0.0
H1154 H 0.72584 0.664 0.66887 0.0
H1155 H 0.70153 0.651 0.71151 0.0
H1156 H 0.74842 0.69427 0.67663 0.0
H1157 H 0.72689 0.68018 0.48952 0.0
H1158 H 0.71868 0.68914 0.52467 0.0
H1159 H 0.71516 0.67048 0.541 0.0
C1160 C 0.69659 0.67777 0.65243 0.0
C1161 C 0.6931 0.66536 0.68296 0.0
C1162 C 0.71058 0.68525 0.62825 0.0
C1163 C 0.72126 0.68037 0.63386 0.0
C1164 C 0.71775 0.66793 0.66401 0.0
H1165 H 0.80009 0.7006 0.46331 0.0
H1166 H 0.77579 0.68923 0.506 0.0
C1167 C 0.70382 0.66049 0.68825 0.0
C1168 C 0.73629 0.68841 0.60948 0.0
H1169 H 0.75332 0.69716 0.49918 0.0
C1170 C 0.74951 0.69494 0.63783 0.0
C1171 C 0.73765 0.68913 0.55888 0.0
C1172 C 0.72387 0.68175 0.52661 0.0
C1173 C 0.76408 0.70214 0.61692 0.0
C1174 C 0.76545 0.70304 0.56633 0.0
C1175 C 0.75223 0.69655 0.53798 0.0
C1176 C 0.78047 0.71007 0.54191 0.0
C1177 C 0.77787 0.70834 0.64914 0.0
C1178 C 0.7912 0.72558 0.54801 0.0
C1179 C 0.80518 0.73214 0.52377 0.0
C1180 C 0.80862 0.7233 0.49273 0.0
C1181 C 0.79784 0.70775 0.48697 0.0
C1182 C 0.78392 0.70122 0.51124 0.0
H1183 H 0.77483 0.7036 0.68608 0.0
H1184 H 0.78651 0.70575 0.63437 0.0
H1185 H 0.78314 0.72092 0.65157 0.0
H1186 H 0.78866 0.73268 0.57089 0.0
H1187 H 0.81318 0.74417 0.52873 0.0
H1188 H 0.46143 0.17122 0.43871 0.0
H1189 H 0.47274 0.15805 0.47984 0.0
H1190 H 0.43835 0.14349 0.59043 0.0
H1191 H 0.42651 0.15613 0.54797 0.0
H1192 H 0.48553 0.1625 0.56274 0.0
H1193 H 0.43601 0.10384 0.56136 0.0
H1194 H 0.4363 0.11916 0.52744 0.0
H1195 H 0.43178 0.11708 0.59056 0.0
C1196 C 0.45622 0.16518 0.47173 0.0
C1197 C 0.44304 0.16469 0.49006 0.0
C1198 C 0.4627 0.15763 0.49521 0.0
C1199 C 0.45628 0.14953 0.53786 0.0
C1200 C 0.44327 0.14926 0.55684 0.0
H1201 H 0.50731 0.12681 0.73798 0.0
H1202 H 0.49459 0.13814 0.69435 0.0
C1203 C 0.43659 0.15661 0.53282 0.0
C1204 C 0.46363 0.14191 0.56296 0.0
H1205 H 0.45702 0.10802 0.61056 0.0
C1206 C 0.47929 0.15055 0.57291 0.0
C1207 C 0.45558 0.12625 0.57552 0.0
C1208 C 0.43904 0.116 0.56272 0.0
C1209 C 0.48708 0.14407 0.59542 0.0
C1210 C 0.47888 0.12863 0.61026 0.0
C1211 C 0.46327 0.1199 0.59971 0.0
C1212 C 0.48628 0.12141 0.63726 0.0
C1213 C 0.50411 0.1538 0.60197 0.0
C1214 C 0.48532 0.10782 0.62089 0.0
C1215 C 0.49234 0.10109 0.64646 0.0
C1216 C 0.50054 0.10792 0.68863 0.0
C1217 C 0.50132 0.12141 0.70515 0.0
C1218 C 0.49411 0.12796 0.68008 0.0
H1219 H 0.50918 0.16317 0.57509 0.0
H1220 H 0.5065 0.1591 0.63811 0.0
H1221 H 0.50984 0.14693 0.59877 0.0
H1222 H 0.47924 0.10249 0.58811 0.0
H1223 H 0.49148 0.09066 0.63298 0.0
H1224 H 0.36841 0.98573 0.04772 0.0
H1225 H 0.39278 0.99912 0.00563 0.0
H1226 H 0.37907 0.02887 0.93927 0.0
H1227 H 0.35447 0.01539 0.98093 0.0
H1228 H 0.39276 0.01803 0.8755 0.0
H1229 H 0.42775 0.04168 0.03948 0.0
H1230 H 0.41548 0.02137 0.04162 0.0
H1231 H 0.40732 0.03357 0.03944 0.0
C1232 C 0.37052 0.99509 0.02412 0.0
C1233 C 0.3595 0.99954 0.01791 0.0
C1234 C 0.38452 1.0028 1.00034 0.0
C1235 C 0.38785 0.01518 0.97015 0.0
C1236 C 0.37676 0.01942 0.96279 0.0
H1237 H 0.47928 0.07781 0.86035 0.0
H1238 H 0.4546 0.06679 0.90137 0.0
C1239 C 0.36271 0.01169 0.98656 0.0
C1240 C 0.40287 0.02353 0.94585 0.0
H1241 H 0.44118 0.04323 0.96725 0.0
C1242 C 0.40335 0.02365 0.8955 0.0
C1243 C 0.41665 0.03105 0.97205 0.0
C1244 C 0.41682 0.03208 0.02613 0.0
C1245 C 0.41728 0.03065 0.87063 0.0
C1246 C 0.43108 0.03748 0.8969 0.0
C1247 C 0.43059 0.03783 0.94721 0.0
C1248 C 0.44613 0.04409 0.87282 0.0
C1249 C 0.41709 0.03073 0.81645 0.0
C1250 C 0.44967 0.0349 0.84414 0.0
C1251 C 0.46372 0.04114 0.82067 0.0
C1252 C 0.47458 0.05669 0.82574 0.0
C1253 C 0.47117 0.06579 0.85563 0.0
C1254 C 0.45707 0.05953 0.87903 0.0
H1255 H 0.40611 0.0291 0.80238 0.0
H1256 H 0.42652 0.04159 0.80191 0.0
H1257 H 0.41853 0.02123 0.80287 0.0
H1258 H 0.44154 0.02287 0.83983 0.0
H1259 H 0.466 0.03377 0.79823 0.0
H1260 H 0.09365 0.49014 0.87688 0.0
H1261 H 0.10553 0.47793 0.92164 0.0
H1262 H 0.14015 0.49186 0.81211 0.0
H1263 H 0.12878 0.50457 0.76854 0.0
H1264 H 0.11035 0.45521 0.90025 0.0
H1265 H 0.16628 0.50708 0.92856 0.0
H1266 H 0.15004 0.50788 0.90587 0.0
H1267 H 0.16161 0.50384 0.86604 0.0
C1268 C 0.10388 0.4907 0.86265 0.0
C1269 C 0.1104 0.49849 0.81956 0.0
C1270 C 0.11063 0.48369 0.88816 0.0
C1271 C 0.12395 0.48426 0.87081 0.0
C1272 C 0.1302 0.49169 0.8271 0.0
H1273 H 0.15786 0.42407 0.9645 0.0
H1274 H 0.14531 0.43582 0.921 0.0
C1275 C 0.12363 0.49889 0.80208 0.0
C1276 C 0.13118 0.47687 0.89779 0.0
H1277 H 0.16516 0.48332 0.94325 0.0
C1278 C 0.12231 0.46138 0.91002 0.0
C1279 C 0.14673 0.48496 0.91117 0.0
C1280 C 0.15666 0.50189 0.90269 0.0
C1281 C 0.12861 0.45371 0.93461 0.0
C1282 C 0.14435 0.46163 0.94587 0.0
C1283 C 0.15315 0.47717 0.9341 0.0
C1284 C 0.15189 0.45431 0.97163 0.0
C1285 C 0.11824 0.43733 0.94928 0.0
C1286 C 0.16023 0.46107 0.01354 0.0
C1287 C 0.16772 0.45462 0.03761 0.0
C1288 C 0.16692 0.44117 0.02063 0.0
C1289 C 0.15859 0.43438 0.97863 0.0
C1290 C 0.15129 0.44101 0.95401 0.0
H1291 H 0.10615 0.4345 0.9511 0.0
H1292 H 0.11902 0.4297 0.92224 0.0
H1293 H 0.12152 0.43488 0.9848 0.0
H1294 H 0.1609 0.47133 0.02785 0.0
H1295 H 0.17396 0.4601 0.07001 0.0
H1296 H 0.66165 0.70392 0.76824 0.0
H1297 H 0.67488 0.72829 0.80992 0.0
H1298 H 0.68936 0.70806 0.91926 0.0
H1299 H 0.67666 0.68369 0.87625 0.0
H1300 H 0.6704 0.73636 0.89348 0.0
H1301 H 0.72902 0.74542 0.89042 0.0
H1302 H 0.71369 0.73051 0.85635 0.0
H1303 H 0.71577 0.72788 0.9193 0.0
C1304 C 0.66769 0.70465 0.80109 0.0
C1305 C 0.66814 0.69188 0.81893 0.0
C1306 C 0.67527 0.71862 0.82488 0.0
C1307 C 0.68335 0.72014 0.86736 0.0
C1308 C 0.68359 0.70732 0.88581 0.0
H1309 H 0.70647 0.79381 0.06869 0.0
H1310 H 0.69501 0.76973 0.02522 0.0
C1311 C 0.67621 0.69336 0.86147 0.0
C1312 C 0.69097 0.73503 0.89285 0.0
H1313 H 0.72489 0.76221 0.94008 0.0
C1314 C 0.68234 0.74204 0.90341 0.0
C1315 C 0.70663 0.7426 0.90512 0.0
C1316 C 0.71686 0.7363 0.89177 0.0
C1317 C 0.68884 0.75628 0.92615 0.0
C1318 C 0.7043 0.76349 0.94057 0.0
C1319 C 0.713 0.7566 0.92952 0.0
C1320 C 0.71158 0.77811 0.96749 0.0
C1321 C 0.67913 0.76357 0.93334 0.0
C1322 C 0.7251 0.79072 0.95066 0.0
C1323 C 0.73189 0.80449 0.9761 0.0
C1324 C 0.7252 0.80589 0.01863 0.0
C1325 C 0.71177 0.7932 0.0356 0.0
C1326 C 0.70514 0.77941 0.01063 0.0
H1327 H 0.66968 0.75928 0.90685 0.0
H1328 H 0.67394 0.76067 0.96969 0.0
H1329 H 0.68597 0.77618 0.93007 0.0
H1330 H 0.73033 0.78996 0.91762 0.0
H1331 H 0.74228 0.81405 0.96226 0.0
H1332 H 0.79584 0.03703 0.60596 0.0
H1333 H 0.80694 0.06104 0.6497 0.0
H1334 H 0.77093 0.04058 0.75504 0.0
H1335 H 0.75933 0.01655 0.71003 0.0
H1336 H 0.77654 0.06841 0.73263 0.0
H1337 H 0.8315 0.07124 0.76962 0.0
H1338 H 0.82766 0.06994 0.7065 0.0
H1339 H 0.81536 0.05439 0.74556 0.0
C1340 C 0.79031 0.03758 0.63862 0.0
C1341 C 0.77679 0.02483 0.65486 0.0
C1342 C 0.79673 0.05132 0.66375 0.0
C1343 C 0.79001 0.05254 0.70636 0.0
C1344 C 0.77639 0.03988 0.72243 0.0
H1345 H 0.83925 0.12675 0.90608 0.0
H1346 H 0.82605 0.10234 0.86467 0.0
C1347 C 0.76979 0.02615 0.69679 0.0
C1348 C 0.79712 0.06711 0.73352 0.0
H1349 H 0.83079 0.09421 0.78192 0.0
C1350 C 0.78837 0.074 0.74381 0.0
C1351 C 0.8125 0.07431 0.74877 0.0
C1352 C 0.82223 0.067 0.74251 0.0
C1353 C 0.79463 0.08801 0.76818 0.0
C1354 C 0.81023 0.09557 0.78119 0.0
C1355 C 0.8189 0.08855 0.77144 0.0
C1356 C 0.81776 0.11048 0.80664 0.0
C1357 C 0.78435 0.09431 0.78069 0.0
C1358 C 0.81759 0.12329 0.78782 0.0
C1359 C 0.82495 0.13728 0.81204 0.0
C1360 C 0.83294 0.13878 0.85479 0.0
C1361 C 0.83329 0.12601 0.87303 0.0
C1362 C 0.82572 0.11202 0.8494 0.0
H1363 H 0.77219 0.08519 0.78167 0.0
H1364 H 0.78737 0.10013 0.81607 0.0
H1365 H 0.78555 0.1027 0.75289 0.0
H1366 H 0.81192 0.12254 0.75417 0.0
H1367 H 0.82458 0.14696 0.79697 0.0
H1368 H 0.14666 0.81503 0.69417 0.0
H1369 H 0.12207 0.80132 0.73578 0.0
H1370 H 0.10813 0.83107 0.67079 0.0
H1371 H 0.13249 0.84469 0.62874 0.0
H1372 H 0.10838 0.81183 0.80023 0.0
H1373 H 0.07318 0.78859 0.63648 0.0
H1374 H 0.09363 0.79678 0.63611 0.0
H1375 H 0.08538 0.80892 0.63475 0.0
C1376 C 0.13837 0.81868 0.68883 0.0
C1377 C 0.14151 0.8309 0.65788 0.0
C1378 C 0.12433 0.81081 0.71256 0.0
C1379 C 0.11317 0.81498 0.70556 0.0
C1380 C 0.11644 0.82742 0.67576 0.0
H1381 H 0.03564 0.79704 0.87811 0.0
H1382 H 0.05994 0.80755 0.83584 0.0
C1383 C 0.13043 0.83527 0.65203 0.0
C1384 C 0.09818 0.80653 0.72998 0.0
H1385 H 0.05984 0.78698 0.70908 0.0
C1386 C 0.09777 0.80628 0.78034 0.0
C1387 C 0.08436 0.79909 0.70394 0.0
C1388 C 0.08411 0.7982 0.64983 0.0
C1389 C 0.08387 0.79927 0.80538 0.0
C1390 C 0.07004 0.79256 0.7793 0.0
C1391 C 0.07045 0.79229 0.72897 0.0
C1392 C 0.05505 0.78613 0.80365 0.0
C1393 C 0.08412 0.79909 0.85955 0.0
C1394 C 0.04399 0.7707 0.79812 0.0
C1395 C 0.02998 0.76464 0.822 0.0
C1396 C 0.02678 0.77396 0.85161 0.0
C1397 C 0.03775 0.78951 0.8559 0.0
C1398 C 0.05171 0.79553 0.83203 0.0
H1399 H 0.09509 0.80064 0.87338 0.0
H1400 H 0.08274 0.8086 0.87345 0.0
H1401 H 0.07467 0.78823 0.87399 0.0
H1402 H 0.04631 0.76329 0.776 0.0
H1403 H 0.02178 0.75263 0.81788 0.0
H1404 H 0.34372 0.40643 0.71049 0.0
H1405 H 0.35645 0.39474 0.7533 0.0
H1406 H 0.34058 0.35918 0.64651 0.0
H1407 H 0.32734 0.37036 0.60506 0.0
H1408 H 0.33663 0.34722 0.73078 0.0
H1409 H 0.39555 0.39613 0.72205 0.0
H1410 H 0.38274 0.40092 0.75145 0.0
H1411 H 0.38008 0.39573 0.68889 0.0
C1412 C 0.34297 0.39612 0.69624 0.0
C1413 C 0.33451 0.38931 0.65447 0.0
C1414 C 0.35037 0.38953 0.72045 0.0
C1415 C 0.34975 0.37623 0.70263 0.0
C1416 C 0.34127 0.36945 0.66096 0.0
H1417 H 0.40828 0.34063 0.79782 0.0
H1418 H 0.39647 0.35286 0.75269 0.0
C1419 C 0.33368 0.37585 0.63731 0.0
C1420 C 0.35739 0.36895 0.72801 0.0
H1421 H 0.39148 0.37551 0.77323 0.0
C1422 C 0.34865 0.35341 0.73978 0.0
C1423 C 0.37314 0.37692 0.73903 0.0
C1424 C 0.38346 0.3933 0.72425 0.0
C1425 C 0.35514 0.34566 0.76259 0.0
C1426 C 0.3707 0.35381 0.7759 0.0
C1427 C 0.37951 0.3693 0.76355 0.0
C1428 C 0.37795 0.34649 0.80315 0.0
C1429 C 0.34526 0.32872 0.77106 0.0
C1430 C 0.37164 0.33907 0.8468 0.0
C1431 C 0.37816 0.33184 0.87198 0.0
C1432 C 0.3914 0.33223 0.85475 0.0
C1433 C 0.39803 0.34008 0.81182 0.0
C1434 C 0.39132 0.34709 0.78611 0.0
H1435 H 0.33569 0.3235 0.74505 0.0
H1436 H 0.35194 0.32278 0.76808 0.0
H1437 H 0.34025 0.32676 0.80762 0.0
H1438 H 0.36166 0.33889 0.8616 0.0
H1439 H 0.37293 0.32615 0.90543 0.0
H1440 H 0.0216 0.34816 0.31434 0.0
H1441 H 0.04605 0.36136 0.27183 0.0
H1442 H 0.05945 0.33118 0.33683 0.0
H1443 H 0.03522 0.31808 0.37983 0.0
H1444 H 0.08174 0.36177 0.34296 0.0
H1445 H 0.05986 0.34603 0.15664 0.0
H1446 H 0.05145 0.35493 0.19119 0.0
H1447 H 0.04836 0.33651 0.20869 0.0
C1448 C 0.0297 0.34425 0.31927 0.0
C1449 C 0.02643 0.33203 0.35039 0.0
C1450 C 0.04365 0.35178 0.29483 0.0
C1451 C 0.0545 0.34715 0.30085 0.0
C1452 C 0.05122 0.33492 0.33166 0.0
H1453 H 0.13316 0.36696 0.13025 0.0
H1454 H 0.10893 0.35574 0.17328 0.0
C1455 C 0.03733 0.32742 0.3561 0.0
C1456 C 0.06946 0.35522 0.2761 0.0
H1457 H 0.08625 0.36326 0.16542 0.0
C1458 C 0.08275 0.36214 0.30413 0.0
C1459 C 0.07072 0.35555 0.22548 0.0
C1460 C 0.05687 0.34776 0.19361 0.0
C1461 C 0.09728 0.36934 0.28292 0.0
C1462 C 0.09854 0.36982 0.23228 0.0
C1463 C 0.08525 0.36296 0.20425 0.0
C1464 C 0.11351 0.37678 0.20757 0.0
C1465 C 0.11114 0.37595 0.31488 0.0
C1466 C 0.12417 0.39237 0.21262 0.0
C1467 C 0.13812 0.39883 0.18821 0.0
C1468 C 0.14159 0.38984 0.158 0.0
C1469 C 0.13088 0.37423 0.15323 0.0
C1470 C 0.11699 0.36779 0.17771 0.0
H1471 H 0.10823 0.37149 0.35216 0.0
H1472 H 0.11986 0.3734 0.30057 0.0
H1473 H 0.11626 0.38853 0.31633 0.0
H1474 H 0.1216 0.39958 0.23482 0.0
H1475 H 0.14606 0.41091 0.19236 0.0
H1476 H 0.84041 0.79358 0.40693 0.0
H1477 H 0.82731 0.8048 0.36475 0.0
H1478 H 0.81269 0.76992 0.25604 0.0
H1479 H 0.82526 0.75819 0.29951 0.0
H1480 H 0.83184 0.81724 0.28085 0.0
H1481 H 0.77312 0.76785 0.28455 0.0
H1482 H 0.78841 0.76825 0.3188 0.0
H1483 H 0.7863 0.76342 0.25597 0.0
C1484 C 0.83436 0.78825 0.37411 0.0
C1485 C 0.83383 0.77497 0.35659 0.0
C1486 C 0.82686 0.79467 0.35003 0.0
C1487 C 0.81877 0.78808 0.30759 0.0
C1488 C 0.81846 0.77497 0.28945 0.0
H1489 H 0.79591 0.83847 0.10437 0.0
H1490 H 0.80733 0.8259 0.14844 0.0
C1491 C 0.82576 0.76835 0.31407 0.0
C1492 C 0.81121 0.79537 0.28182 0.0
H1493 H 0.77734 0.78868 0.23425 0.0
C1494 C 0.81989 0.81099 0.27092 0.0
C1495 C 0.79555 0.78732 0.26955 0.0
C1496 C 0.78526 0.77083 0.28327 0.0
C1497 C 0.81344 0.81873 0.24781 0.0
C1498 C 0.79799 0.81051 0.23339 0.0
C1499 C 0.78923 0.79495 0.2448 0.0
C1500 C 0.79076 0.81785 0.20614 0.0
C1501 C 0.82322 0.83572 0.24024 0.0
C1502 C 0.77724 0.817 0.22276 0.0
C1503 C 0.77047 0.82394 0.19698 0.0
C1504 C 0.77717 0.83194 0.15431 0.0
C1505 C 0.7906 0.83262 0.13755 0.0
C1506 C 0.7972 0.8255 0.16287 0.0
H1507 H 0.83266 0.84089 0.26672 0.0
H1508 H 0.82841 0.83791 0.2039 0.0
H1509 H 0.81642 0.84153 0.24321 0.0
H1510 H 0.772 0.81107 0.2559 0.0
H1511 H 0.76009 0.82316 0.21068 0.0
H1512 H 0.34267 0.01671 0.21173 0.0
H1513 H 0.35487 0.04072 0.25683 0.0
H1514 H 0.33994 0.06128 0.15003 0.0
H1515 H 0.32724 0.03728 0.10617 0.0
H1516 H 0.3772 0.06845 0.23511 0.0
H1517 H 0.32506 0.07165 0.26864 0.0
H1518 H 0.3244 0.05476 0.24496 0.0
H1519 H 0.32799 0.07038 0.20574 0.0
C1520 C 0.34189 0.02633 0.19817 0.0
C1521 C 0.33381 0.02504 0.15579 0.0
C1522 C 0.34889 0.04005 0.22387 0.0
C1523 C 0.34803 0.05273 0.20742 0.0
C1524 C 0.34033 0.05154 0.16437 0.0
H1525 H 0.40779 0.14691 0.29983 0.0
H1526 H 0.39599 0.1226 0.25651 0.0
C1527 C 0.33314 0.03781 0.13917 0.0
C1528 C 0.35539 0.0673 0.23464 0.0
H1529 H 0.34872 0.09449 0.28219 0.0
C1530 C 0.37095 0.0741 0.24577 0.0
C1531 C 0.34719 0.07457 0.24922 0.0
C1532 C 0.33021 0.06737 0.24198 0.0
C1533 C 0.3786 0.08806 0.27038 0.0
C1534 C 0.37057 0.0957 0.28277 0.0
C1535 C 0.35496 0.08878 0.27217 0.0
C1536 C 0.37787 0.11057 0.30838 0.0
C1537 C 0.39508 0.09425 0.2838 0.0
C1538 C 0.37132 0.11211 0.35093 0.0
C1539 C 0.37779 0.12606 0.37493 0.0
C1540 C 0.39107 0.13877 0.35721 0.0
C1541 C 0.39763 0.13728 0.31453 0.0
C1542 C 0.39098 0.12335 0.29001 0.0
H1543 H 0.39806 0.08507 0.28506 0.0
H1544 H 0.40247 0.10268 0.25637 0.0
H1545 H 0.39769 0.1 0.31929 0.0
H1546 H 0.36121 0.10247 0.36583 0.0
H1547 H 0.37249 0.12679 0.40786 0.0
loop_
_geom_bond_atom_site_label_1
_geom_bond_atom_site_label_2
_geom_bond_distance
_geom_bond_site_symmetry_2
_ccdc_geom_bond_type
C0 O2 1.247 . S
C0 O4 1.258 . S
C1 O8 1.247 . S
C1 O9 1.258 . S
O2 C0 1.247 . S
O2 Zn3 2.028 . S
Zn3 O2 2.028 . S
Zn3 O7 2.035 . S
Zn3 O9 2.035 . S
Zn3 O10 2.028 . S
O4 C0 1.258 . S
O4 Zn5 2.035 . S
Zn5 O4 2.035 . S
Zn5 O6 2.028 . S
Zn5 O8 2.028 . S
Zn5 O11 2.035 . S
O6 Zn5 2.028 . S
O6 C12 1.247 . S
O7 Zn3 2.035 . S
O7 C12 1.258 . S
O8 C1 1.247 . S
O8 Zn5 2.028 . S
O9 C1 1.258 . S
O9 Zn3 2.035 . S
O10 Zn3 2.028 . S
O10 C13 1.247 . S
O11 Zn5 2.035 . S
O11 C13 1.258 . S
C12 O6 1.247 . S
C12 O7 1.258 . S
C13 O10 1.247 . S
C13 O11 1.258 . S
C14 O16 1.247 . S
C14 O18 1.258 . S
C15 O22 1.247 . S
C15 O23 1.258 . S
O16 C14 1.247 . S
O16 Zn17 2.028 . S
Zn17 O16 2.028 . S
Zn17 O21 2.035 . S
Zn17 O23 2.035 . S
Zn17 O24 2.028 . S
O18 C14 1.258 . S
O18 Zn19 2.035 . S
Zn19 O18 2.035 . S
Zn19 O20 2.028 . S
Zn19 O22 2.028 . S
Zn19 O25 2.035 . S
O20 Zn19 2.028 . S
O20 C26 1.247 . S
O21 Zn17 2.035 . S
O21 C26 1.258 . S
O22 C15 1.247 . S
O22 Zn19 2.028 . S
O23 C15 1.258 . S
O23 Zn17 2.035 . S
O24 Zn17 2.028 . S
O24 C27 1.247 . S
O25 Zn19 2.035 . S
O25 C27 1.258 . S
C26 O20 1.247 . S
C26 O21 1.258 . S
C27 O24 1.247 . S
C27 O25 1.258 . S
C28 O30 1.247 . S
C28 O32 1.258 . S
C29 O36 1.247 . S
C29 O37 1.258 . S
O30 C28 1.247 . S
O30 Zn31 2.028 . S
Zn31 O30 2.028 . S
Zn31 O35 2.035 . S
Zn31 O37 2.035 . S
Zn31 O38 2.028 . S
O32 C28 1.258 . S
O32 Zn33 2.035 . S
Zn33 O32 2.035 . S
Zn33 O34 2.028 . S
Zn33 O36 2.028 . S
Zn33 O39 2.035 . S
O34 Zn33 2.028 . S
O34 C40 1.247 . S
O35 Zn31 2.035 . S
O35 C40 1.258 . S
O36 C29 1.247 . S
O36 Zn33 2.028 . S
O37 C29 1.258 . S
O37 Zn31 2.035 . S
O38 Zn31 2.028 . S
O38 C41 1.247 . S
O39 Zn33 2.035 . S
O39 C41 1.258 . S
C40 O34 1.247 . S
C40 O35 1.258 . S
C41 O38 1.247 . S
C41 O39 1.258 . S
C42 O44 1.247 . S
C42 O46 1.258 . S
C43 O50 1.247 . S
C43 O51 1.258 . S
O44 C42 1.247 . S
O44 Zn45 2.028 . S
Zn45 O44 2.028 . S
Zn45 O49 2.035 . S
Zn45 O51 2.035 . S
Zn45 O52 2.028 . S
O46 C42 1.258 . S
O46 Zn47 2.035 . S
Zn47 O46 2.035 . S
Zn47 O48 2.028 . S
Zn47 O50 2.028 . S
Zn47 O53 2.035 . S
O48 Zn47 2.028 . S
O48 C54 1.247 . S
O49 Zn45 2.035 . S
O49 C54 1.258 . S
O50 C43 1.247 . S
O50 Zn47 2.028 . S
O51 C43 1.258 . S
O51 Zn45 2.035 . S
O52 Zn45 2.028 . S
O52 C55 1.247 . S
O53 Zn47 2.035 . S
O53 C55 1.258 . S
C54 O48 1.247 . S
C54 O49 1.258 . S
C55 O52 1.247 . S
C55 O53 1.258 . S
C56 O58 1.247 . S
C56 O60 1.258 . S
C57 O64 1.247 . S
C57 O65 1.258 . S
O58 C56 1.247 . S
O58 Zn59 2.028 . S
Zn59 O58 2.028 . S
Zn59 O63 2.035 . S
Zn59 O65 2.035 . S
Zn59 O66 2.028 . S
O60 C56 1.258 . S
O60 Zn61 2.035 . S
Zn61 O60 2.035 . S
Zn61 O62 2.028 . S
Zn61 O64 2.028 . S
Zn61 O67 2.035 . S
O62 Zn61 2.028 . S
O62 C68 1.247 . S
O63 Zn59 2.035 . S
O63 C68 1.258 . S
O64 C57 1.247 . S
O64 Zn61 2.028 . S
O65 C57 1.258 . S
O65 Zn59 2.035 . S
O66 Zn59 2.028 . S
O66 C69 1.247 . S
O67 Zn61 2.035 . S
O67 C69 1.258 . S
C68 O62 1.247 . S
C68 O63 1.258 . S
C69 O66 1.247 . S
C69 O67 1.258 . S
C70 O72 1.247 . S
C70 O74 1.258 . S
C71 O78 1.247 . S
C71 O79 1.258 . S
O72 C70 1.247 . S
O72 Zn73 2.028 . S
Zn73 O72 2.028 . S
Zn73 O77 2.035 . S
Zn73 O79 2.035 . S
Zn73 O80 2.028 . S
O74 C70 1.258 . S
O74 Zn75 2.035 . S
Zn75 O74 2.035 . S
Zn75 O76 2.028 . S
Zn75 O78 2.028 . S
Zn75 O81 2.035 . S
O76 Zn75 2.028 . S
O76 C82 1.247 . S
O77 Zn73 2.035 . S
O77 C82 1.258 . S
O78 C71 1.247 . S
O78 Zn75 2.028 . S
O79 C71 1.258 . S
O79 Zn73 2.035 . S
O80 Zn73 2.028 . S
O80 C83 1.247 . S
O81 Zn75 2.035 . S
O81 C83 1.258 . S
C82 O76 1.247 . S
C82 O77 1.258 . S
C83 O80 1.247 . S
C83 O81 1.258 . S
C84 O86 1.247 . S
C84 O88 1.258 . S
C85 O92 1.247 . S
C85 O93 1.258 . S
O86 C84 1.247 . S
O86 Zn87 2.028 . S
Zn87 O86 2.028 . S
Zn87 O91 2.035 . S
Zn87 O93 2.035 . S
Zn87 O94 2.028 . S
O88 C84 1.258 . S
O88 Zn89 2.035 . S
Zn89 O88 2.035 . S
Zn89 O90 2.028 1_565 S
Zn89 O92 2.028 . S
Zn89 O95 2.035 . S
O90 Zn89 2.028 1_545 S
O90 C96 1.247 . S
O91 Zn87 2.035 . S
O91 C96 1.258 1_565 S
O92 C85 1.247 . S
O92 Zn89 2.028 . S
O93 C85 1.258 . S
O93 Zn87 2.035 . S
O94 Zn87 2.028 . S
O94 C97 1.247 . S
O95 Zn89 2.035 . S
O95 C97 1.258 . S
C96 O90 1.247 . S
C96 O91 1.258 1_545 S
C97 O94 1.247 . S
C97 O95 1.258 . S
C98 O100 1.247 . S
C98 O102 1.258 . S
C99 O106 1.247 . S
C99 O107 1.258 . S
O100 C98 1.247 . S
O100 Zn101 2.028 . S
Zn101 O100 2.028 . S
Zn101 O105 2.035 . S
Zn101 O107 2.035 . S
Zn101 O108 2.028 . S
O102 C98 1.258 . S
O102 Zn103 2.035 . S
Zn103 O102 2.035 . S
Zn103 O104 2.028 . S
Zn103 O106 2.028 . S
Zn103 O109 2.035 . S
O104 Zn103 2.028 . S
O104 C110 1.247 . S
O105 Zn101 2.035 . S
O105 C110 1.258 . S
O106 C99 1.247 . S
O106 Zn103 2.028 . S
O107 C99 1.258 . S
O107 Zn101 2.035 . S
O108 Zn101 2.028 . S
O108 C111 1.247 . S
O109 Zn103 2.035 . S
O109 C111 1.258 . S
C110 O104 1.247 . S
C110 O105 1.258 . S
C111 O108 1.247 . S
C111 O109 1.258 . S
C112 O114 1.247 . S
C112 O116 1.258 . S
C113 O120 1.247 . S
C113 O121 1.258 . S
O114 C112 1.247 . S
O114 Zn115 2.028 . S
Zn115 O114 2.028 . S
Zn115 O119 2.035 . S
Zn115 O121 2.035 . S
Zn115 O122 2.028 . S
O116 C112 1.258 . S
O116 Zn117 2.035 . S
Zn117 O116 2.035 . S
Zn117 O118 2.028 . S
Zn117 O120 2.028 . S
Zn117 O123 2.035 . S
O118 Zn117 2.028 . S
O118 C124 1.247 . S
O119 Zn115 2.035 . S
O119 C124 1.258 . S
O120 C113 1.247 . S
O120 Zn117 2.028 . S
O121 C113 1.258 . S
O121 Zn115 2.035 . S
O122 Zn115 2.028 . S
O122 C125 1.247 . S
O123 Zn117 2.035 . S
O123 C125 1.258 . S
C124 O118 1.247 . S
C124 O119 1.258 . S
C125 O122 1.247 . S
C125 O123 1.258 . S
C126 O128 1.247 . S
C126 O130 1.258 . S
C127 O134 1.247 . S
C127 O135 1.258 . S
O128 C126 1.247 . S
O128 Zn129 2.028 . S
Zn129 O128 2.028 . S
Zn129 O133 2.035 . S
Zn129 O135 2.035 . S
Zn129 O136 2.028 . S
O130 C126 1.258 . S
O130 Zn131 2.035 . S
Zn131 O130 2.035 . S
Zn131 O132 2.028 . S
Zn131 O134 2.028 . S
Zn131 O137 2.035 . S
O132 Zn131 2.028 . S
O132 C138 1.247 . S
O133 Zn129 2.035 . S
O133 C138 1.258 . S
O134 C127 1.247 . S
O134 Zn131 2.028 . S
O135 C127 1.258 . S
O135 Zn129 2.035 . S
O136 Zn129 2.028 . S
O136 C139 1.247 . S
O137 Zn131 2.035 . S
O137 C139 1.258 . S
C138 O132 1.247 . S
C138 O133 1.258 . S
C139 O136 1.247 . S
C139 O137 1.258 . S
C140 O142 1.247 1_545 S
C140 O144 1.258 . S
C141 O148 1.247 . S
C141 O149 1.258 . S
O142 C140 1.247 1_565 S
O142 Zn143 2.028 . S
Zn143 O142 2.028 . S
Zn143 O147 2.035 . S
Zn143 O149 2.035 . S
Zn143 O150 2.028 . S
O144 C140 1.258 . S
O144 Zn145 2.035 1_545 S
Zn145 O144 2.035 1_565 S
Zn145 O146 2.028 . S
Zn145 O148 2.028 . S
Zn145 O151 2.035 . S
O146 Zn145 2.028 . S
O146 C152 1.247 . S
O147 Zn143 2.035 . S
O147 C152 1.258 . S
O148 C141 1.247 . S
O148 Zn145 2.028 . S
O149 C141 1.258 . S
O149 Zn143 2.035 . S
O150 Zn143 2.028 . S
O150 C153 1.247 . S
O151 Zn145 2.035 . S
O151 C153 1.258 . S
C152 O146 1.247 . S
C152 O147 1.258 . S
C153 O150 1.247 . S
C153 O151 1.258 . S
C154 O156 1.247 . S
C154 O158 1.258 . S
C155 O162 1.247 . S
C155 O163 1.258 . S
O156 C154 1.247 . S
O156 Zn157 2.028 . S
Zn157 O156 2.028 . S
Zn157 O161 2.035 . S
Zn157 O163 2.035 . S
Zn157 O164 2.028 . S
O158 C154 1.258 . S
O158 Zn159 2.035 . S
Zn159 O158 2.035 . S
Zn159 O160 2.028 . S
Zn159 O162 2.028 . S
Zn159 O165 2.035 . S
O160 Zn159 2.028 . S
O160 C166 1.247 . S
O161 Zn157 2.035 . S
O161 C166 1.258 . S
O162 C155 1.247 . S
O162 Zn159 2.028 . S
O163 C155 1.258 . S
O163 Zn157 2.035 . S
O164 Zn157 2.028 . S
O164 C167 1.247 . S
O165 Zn159 2.035 . S
O165 C167 1.258 . S
C166 O160 1.247 . S
C166 O161 1.258 . S
C167 O164 1.247 . S
C167 O165 1.258 . S
C168 O170 1.247 . S
C168 O172 1.258 . S
C169 O176 1.247 . S
C169 O177 1.258 . S
O170 C168 1.247 . S
O170 Zn171 2.028 . S
Zn171 O170 2.028 . S
Zn171 O175 2.035 . S
Zn171 O177 2.035 . S
Zn171 O178 2.028 . S
O172 C168 1.258 . S
O172 Zn173 2.035 . S
Zn173 O172 2.035 . S
Zn173 O174 2.028 . S
Zn173 O176 2.028 . S
Zn173 O179 2.035 . S
O174 Zn173 2.028 . S
O174 C180 1.247 . S
O175 Zn171 2.035 . S
O175 C180 1.258 . S
O176 C169 1.247 . S
O176 Zn173 2.028 . S
O177 C169 1.258 . S
O177 Zn171 2.035 . S
O178 Zn171 2.028 . S
O178 C181 1.247 . S
O179 Zn173 2.035 . S
O179 C181 1.258 . S
C180 O174 1.247 . S
C180 O175 1.258 . S
C181 O178 1.247 . S
C181 O179 1.258 . S
C182 O184 1.247 . S
C182 O186 1.258 . S
C183 O190 1.247 . S
C183 O191 1.258 . S
O184 C182 1.247 . S
O184 Zn185 2.028 . S
Zn185 O184 2.028 . S
Zn185 O189 2.035 . S
Zn185 O191 2.035 . S
Zn185 O192 2.028 . S
O186 C182 1.258 . S
O186 Zn187 2.035 . S
Zn187 O186 2.035 . S
Zn187 O188 2.028 . S
Zn187 O190 2.028 . S
Zn187 O193 2.035 . S
O188 Zn187 2.028 . S
O188 C194 1.247 . S
O189 Zn185 2.035 . S
O189 C194 1.258 . S
O190 C183 1.247 . S
O190 Zn187 2.028 . S
O191 C183 1.258 . S
O191 Zn185 2.035 . S
O192 Zn185 2.028 . S
O192 C195 1.247 . S
O193 Zn187 2.035 . S
O193 C195 1.258 . S
C194 O188 1.247 . S
C194 O189 1.258 . S
C195 O192 1.247 . S
C195 O193 1.258 . S
C196 O198 1.247 . S
C196 O200 1.258 . S
C197 O204 1.247 . S
C197 O205 1.258 . S
O198 C196 1.247 . S
O198 Zn199 2.028 . S
Zn199 O198 2.028 . S
Zn199 O203 2.035 . S
Zn199 O205 2.035 . S
Zn199 O206 2.028 . S
O200 C196 1.258 . S
O200 Zn201 2.035 . S
Zn201 O200 2.035 . S
Zn201 O202 2.028 . S
Zn201 O204 2.028 . S
Zn201 O207 2.035 1_655 S
O202 Zn201 2.028 . S
O202 C208 1.247 . S
O203 Zn199 2.035 . S
O203 C208 1.258 . S
O204 C197 1.247 . S
O204 Zn201 2.028 . S
O205 C197 1.258 . S
O205 Zn199 2.035 . S
O206 Zn199 2.028 . S
O206 C209 1.247 1_655 S
O207 Zn201 2.035 1_455 S
O207 C209 1.258 . S
C208 O202 1.247 . S
C208 O203 1.258 . S
C209 O206 1.247 1_455 S
C209 O207 1.258 . S
C210 O212 1.247 . S
C210 O214 1.258 . S
C211 O218 1.247 . S
C211 O219 1.258 . S
O212 C210 1.247 . S
O212 Zn213 2.028 . S
Zn213 O212 2.028 . S
Zn213 O217 2.035 . S
Zn213 O219 2.035 . S
Zn213 O220 2.028 . S
O214 C210 1.258 . S
O214 Zn215 2.035 . S
Zn215 O214 2.035 . S
Zn215 O216 2.028 . S
Zn215 O218 2.028 . S
Zn215 O221 2.035 . S
O216 Zn215 2.028 . S
O216 C222 1.247 . S
O217 Zn213 2.035 . S
O217 C222 1.258 . S
O218 C211 1.247 . S
O218 Zn215 2.028 . S
O219 C211 1.258 . S
O219 Zn213 2.035 . S
O220 Zn213 2.028 . S
O220 C223 1.247 . S
O221 Zn215 2.035 . S
O221 C223 1.258 . S
C222 O216 1.247 . S
C222 O217 1.258 . S
C223 O220 1.247 . S
C223 O221 1.258 . S
C224 O226 1.247 . S
C224 O228 1.258 . S
C225 O232 1.247 . S
C225 O233 1.258 . S
O226 C224 1.247 . S
O226 Zn227 2.028 . S
Zn227 O226 2.028 . S
Zn227 O231 2.035 . S
Zn227 O233 2.035 . S
Zn227 O234 2.028 1_655 S
O228 C224 1.258 . S
O228 Zn229 2.035 . S
Zn229 O228 2.035 . S
Zn229 O230 2.028 . S
Zn229 O232 2.028 . S
Zn229 O235 2.035 . S
O230 Zn229 2.028 . S
O230 C236 1.247 . S
O231 Zn227 2.035 . S
O231 C236 1.258 . S
O232 C225 1.247 . S
O232 Zn229 2.028 . S
O233 C225 1.258 . S
O233 Zn227 2.035 . S
O234 Zn227 2.028 1_455 S
O234 C237 1.247 . S
O235 Zn229 2.035 . S
O235 C237 1.258 1_655 S
C236 O230 1.247 . S
C236 O231 1.258 . S
C237 O234 1.247 . S
C237 O235 1.258 1_455 S
C238 O240 1.247 . S
C238 O242 1.258 . S
C239 O246 1.247 . S
C239 O247 1.258 . S
O240 C238 1.247 . S
O240 Zn241 2.028 . S
Zn241 O240 2.028 . S
Zn241 O245 2.035 . S
Zn241 O247 2.035 . S
Zn241 O248 2.028 . S
O242 C238 1.258 . S
O242 Zn243 2.035 . S
Zn243 O242 2.035 . S
Zn243 O244 2.028 . S
Zn243 O246 2.028 . S
Zn243 O249 2.035 . S
O244 Zn243 2.028 . S
O244 C250 1.247 . S
O245 Zn241 2.035 . S
O245 C250 1.258 . S
O246 C239 1.247 . S
O246 Zn243 2.028 . S
O247 C239 1.258 . S
O247 Zn241 2.035 . S
O248 Zn241 2.028 . S
O248 C251 1.247 . S
O249 Zn243 2.035 . S
O249 C251 1.258 . S
C250 O244 1.247 . S
C250 O245 1.258 . S
C251 O248 1.247 . S
C251 O249 1.258 . S
H252 C260 0.929 . S
H253 C262 0.930 . S
H254 C264 0.930 . S
H255 C267 0.929 . S
H256 C270 0.930 . S
H257 C272 0.960 . S
H258 C272 0.960 . S
H259 C272 0.960 . S
C260 H252 0.929 . S
C260 C261 1.377 . S
C260 C262 1.384 . S
C261 C260 1.377 . S
C261 C267 1.390 . S
C262 H253 0.930 . S
C262 C260 1.384 . S
C262 C263 1.372 . S
C263 C262 1.372 . S
C263 C264 1.400 . S
C263 C268 1.490 . S
C264 H254 0.930 . S
C264 C263 1.400 . S
C264 C267 1.386 . S
H265 C281 0.930 . S
H266 C282 0.931 . S
C267 H255 0.929 . S
C267 C261 1.390 . S
C267 C264 1.386 . S
C268 C263 1.490 . S
C268 C270 1.395 . S
C268 C271 1.403 . S
H269 C275 0.930 . S
C270 H256 0.930 . S
C270 C268 1.395 . S
C270 C273 1.403 1_556 S
C271 C268 1.403 . S
C271 C272 1.524 . S
C271 C275 1.400 1_556 S
C272 H257 0.960 . S
C272 H258 0.960 . S
C272 H259 0.960 . S
C272 C271 1.524 . S
C273 C270 1.403 1_554 S
C273 C274 1.392 . S
C273 C277 1.495 . S
C274 C273 1.392 . S
C274 C275 1.385 . S
C274 C276 1.478 . S
C275 H269 0.930 . S
C275 C271 1.400 1_554 S
C275 C274 1.385 . S
C276 C274 1.478 . S
C276 C278 1.381 . S
C276 C282 1.383 . S
C277 C273 1.495 . S
C277 H283 0.959 . S
C277 H284 0.961 . S
C277 H285 0.960 . S
C278 C276 1.381 . S
C278 C279 1.394 . S
C278 H286 0.930 . S
C279 C278 1.394 . S
C279 C280 1.383 . S
C279 H287 0.929 . S
C280 C279 1.383 . S
C280 C281 1.377 . S
C281 H265 0.930 . S
C281 C280 1.377 . S
C281 C282 1.379 . S
C282 H266 0.931 . S
C282 C276 1.383 . S
C282 C281 1.379 . S
H283 C277 0.959 . S
H284 C277 0.961 . S
H285 C277 0.960 . S
H286 C278 0.930 . S
H287 C279 0.929 . S
H288 C296 0.929 . S
H289 C298 0.930 . S
H290 C300 0.930 . S
H291 C303 0.929 . S
H292 C306 0.930 . S
H293 C308 0.960 . S
H294 C308 0.960 . S
H295 C308 0.960 . S
C296 H288 0.929 . S
C296 C297 1.377 . S
C296 C298 1.384 . S
C297 C296 1.377 . S
C297 C303 1.390 . S
C298 H289 0.930 . S
C298 C296 1.384 . S
C298 C299 1.372 . S
C299 C298 1.372 . S
C299 C300 1.400 . S
C299 C304 1.490 . S
C300 H290 0.930 . S
C300 C299 1.400 . S
C300 C303 1.386 . S
H301 C317 0.930 . S
H302 C318 0.931 . S
C303 H291 0.929 . S
C303 C297 1.390 . S
C303 C300 1.386 . S
C304 C299 1.490 . S
C304 C306 1.395 . S
C304 C307 1.403 1_556 S
H305 C311 0.930 . S
C306 H292 0.930 . S
C306 C304 1.395 . S
C306 C309 1.403 . S
C307 C304 1.403 1_554 S
C307 C308 1.524 . S
C307 C311 1.400 . S
C308 H293 0.960 . S
C308 H294 0.960 . S
C308 H295 0.960 . S
C308 C307 1.524 . S
C309 C306 1.403 . S
C309 C310 1.392 1_556 S
C309 C313 1.495 . S
C310 C309 1.392 1_554 S
C310 C311 1.385 . S
C310 C312 1.478 . S
C311 H305 0.930 . S
C311 C307 1.400 . S
C311 C310 1.385 . S
C312 C310 1.478 . S
C312 C314 1.381 . S
C312 C318 1.383 . S
C313 C309 1.495 . S
C313 H319 0.959 . S
C313 H320 0.961 . S
C313 H321 0.960 . S
C314 C312 1.381 . S
C314 C315 1.394 . S
C314 H322 0.930 . S
C315 C314 1.394 . S
C315 C316 1.383 . S
C315 H323 0.929 . S
C316 C315 1.383 . S
C316 C317 1.377 . S
C317 H301 0.930 . S
C317 C316 1.377 . S
C317 C318 1.379 . S
C318 H302 0.931 . S
C318 C312 1.383 . S
C318 C317 1.379 . S
H319 C313 0.959 . S
H320 C313 0.961 . S
H321 C313 0.960 . S
H322 C314 0.930 . S
H323 C315 0.929 . S
H324 C332 0.929 . S
H325 C334 0.930 . S
H326 C336 0.930 . S
H327 C339 0.929 . S
H328 C342 0.930 . S
H329 C344 0.960 . S
H330 C344 0.960 1_554 S
H331 C344 0.960 . S
C332 H324 0.929 . S
C332 C333 1.377 . S
C332 C334 1.384 . S
C333 C332 1.377 . S
C333 C339 1.390 . S
C334 H325 0.930 . S
C334 C332 1.384 . S
C334 C335 1.372 . S
C335 C334 1.372 . S
C335 C336 1.400 . S
C335 C340 1.490 . S
C336 H326 0.930 . S
C336 C335 1.400 . S
C336 C339 1.386 . S
H337 C353 0.930 . S
H338 C354 0.931 . S
C339 H327 0.929 . S
C339 C333 1.390 . S
C339 C336 1.386 . S
C340 C335 1.490 . S
C340 C342 1.395 . S
C340 C343 1.403 1_554 S
H341 C347 0.930 . S
C342 H328 0.930 . S
C342 C340 1.395 . S
C342 C345 1.403 . S
C343 C340 1.403 1_556 S
C343 C344 1.524 . S
C343 C347 1.400 . S
C344 H329 0.960 . S
C344 H330 0.960 1_556 S
C344 H331 0.960 . S
C344 C343 1.524 . S
C345 C342 1.403 . S
C345 C346 1.392 1_554 S
C345 C349 1.495 . S
C346 C345 1.392 1_556 S
C346 C347 1.385 . S
C346 C348 1.478 . S
C347 H341 0.930 . S
C347 C343 1.400 . S
C347 C346 1.385 . S
C348 C346 1.478 . S
C348 C350 1.381 . S
C348 C354 1.383 . S
C349 C345 1.495 . S
C349 H355 0.959 . S
C349 H356 0.961 1_554 S
C349 H357 0.960 . S
C350 C348 1.381 . S
C350 C351 1.394 . S
C350 H358 0.930 . S
C351 C350 1.394 . S
C351 C352 1.383 . S
C351 H359 0.929 . S
C352 C351 1.383 . S
C352 C353 1.377 . S
C353 H337 0.930 . S
C353 C352 1.377 . S
C353 C354 1.379 . S
C354 H338 0.931 . S
C354 C348 1.383 . S
C354 C353 1.379 . S
H355 C349 0.959 . S
H356 C349 0.961 1_556 S
H357 C349 0.960 . S
H358 C350 0.930 . S
H359 C351 0.929 . S
H360 C368 0.929 . S
H361 C370 0.930 . S
H362 C372 0.930 . S
H363 C375 0.929 . S
H364 C378 0.930 . S
H365 C380 0.960 . S
H366 C380 0.960 . S
H367 C380 0.960 . S
C368 H360 0.929 . S
C368 C369 1.377 . S
C368 C370 1.384 . S
C369 C368 1.377 . S
C369 C375 1.390 . S
C370 H361 0.930 . S
C370 C368 1.384 . S
C370 C371 1.372 . S
C371 C370 1.372 . S
C371 C372 1.400 . S
C371 C376 1.490 . S
C372 H362 0.930 . S
C372 C371 1.400 . S
C372 C375 1.386 . S
H373 C389 0.930 . S
H374 C390 0.931 . S
C375 H363 0.929 . S
C375 C369 1.390 . S
C375 C372 1.386 . S
C376 C371 1.490 . S
C376 C378 1.395 . S
C376 C379 1.403 . S
H377 C383 0.930 . S
C378 H364 0.930 . S
C378 C376 1.395 . S
C378 C381 1.403 . S
C379 C376 1.403 . S
C379 C380 1.524 . S
C379 C383 1.400 . S
C380 H365 0.960 . S
C380 H366 0.960 . S
C380 H367 0.960 . S
C380 C379 1.524 . S
C381 C378 1.403 . S
C381 C382 1.392 . S
C381 C385 1.495 . S
C382 C381 1.392 . S
C382 C383 1.385 . S
C382 C384 1.478 . S
C383 H377 0.930 . S
C383 C379 1.400 . S
C383 C382 1.385 . S
C384 C382 1.478 . S
C384 C386 1.381 . S
C384 C390 1.383 . S
C385 C381 1.495 . S
C385 H391 0.959 . S
C385 H392 0.961 . S
C385 H393 0.960 . S
C386 C384 1.381 . S
C386 C387 1.394 . S
C386 H394 0.930 . S
C387 C386 1.394 . S
C387 C388 1.383 . S
C387 H395 0.929 . S
C388 C387 1.383 . S
C388 C389 1.377 . S
C389 H373 0.930 . S
C389 C388 1.377 . S
C389 C390 1.379 . S
C390 H374 0.931 . S
C390 C384 1.383 . S
C390 C389 1.379 . S
H391 C385 0.959 . S
H392 C385 0.961 . S
H393 C385 0.960 . S
H394 C386 0.930 . S
H395 C387 0.929 . S
H396 C404 0.929 . S
H397 C406 0.930 . S
H398 C408 0.930 . S
H399 C411 0.929 . S
H400 C414 0.930 . S
H401 C416 0.960 . S
H402 C416 0.960 . S
H403 C416 0.960 . S
C404 H396 0.929 . S
C404 C405 1.377 . S
C404 C406 1.384 . S
C405 C404 1.377 . S
C405 C411 1.390 . S
C406 H397 0.930 . S
C406 C404 1.384 . S
C406 C407 1.372 . S
C407 C406 1.372 . S
C407 C408 1.400 . S
C407 C412 1.490 . S
C408 H398 0.930 . S
C408 C407 1.400 . S
C408 C411 1.386 . S
H409 C425 0.930 . S
H410 C426 0.931 . S
C411 H399 0.929 . S
C411 C405 1.390 . S
C411 C408 1.386 . S
C412 C407 1.490 . S
C412 C414 1.395 . S
C412 C415 1.403 . S
H413 C419 0.930 . S
C414 H400 0.930 . S
C414 C412 1.395 . S
C414 C417 1.403 . S
C415 C412 1.403 . S
C415 C416 1.524 . S
C415 C419 1.400 . S
C416 H401 0.960 . S
C416 H402 0.960 . S
C416 H403 0.960 . S
C416 C415 1.524 . S
C417 C414 1.403 . S
C417 C418 1.392 . S
C417 C421 1.495 . S
C418 C417 1.392 . S
C418 C419 1.385 . S
C418 C420 1.478 . S
C419 H413 0.930 . S
C419 C415 1.400 . S
C419 C418 1.385 . S
C420 C418 1.478 . S
C420 C422 1.381 . S
C420 C426 1.383 . S
C421 C417 1.495 . S
C421 H427 0.959 . S
C421 H428 0.961 . S
C421 H429 0.960 . S
C422 C420 1.381 . S
C422 C423 1.394 . S
C422 H430 0.930 . S
C423 C422 1.394 . S
C423 C424 1.383 . S
C423 H431 0.929 . S
C424 C423 1.383 . S
C424 C425 1.377 . S
C425 H409 0.930 . S
C425 C424 1.377 . S
C425 C426 1.379 . S
C426 H410 0.931 . S
C426 C420 1.383 . S
C426 C425 1.379 . S
H427 C421 0.959 . S
H428 C421 0.961 . S
H429 C421 0.960 . S
H430 C422 0.930 . S
H431 C423 0.929 . S
H432 C440 0.929 . S
H433 C442 0.930 . S
H434 C444 0.930 . S
H435 C447 0.929 . S
H436 C450 0.930 . S
H437 C452 0.960 . S
H438 C452 0.960 . S
H439 C452 0.960 . S
C440 H432 0.929 . S
C440 C441 1.377 . S
C440 C442 1.384 . S
C441 C440 1.377 . S
C441 C447 1.390 . S
C442 H433 0.930 . S
C442 C440 1.384 . S
C442 C443 1.372 . S
C443 C442 1.372 . S
C443 C444 1.400 . S
C443 C448 1.490 . S
C444 H434 0.930 . S
C444 C443 1.400 . S
C444 C447 1.386 . S
H445 C461 0.930 . S
H446 C462 0.931 . S
C447 H435 0.929 . S
C447 C441 1.390 . S
C447 C444 1.386 . S
C448 C443 1.490 . S
C448 C450 1.395 . S
C448 C451 1.403 . S
H449 C455 0.930 . S
C450 H436 0.930 . S
C450 C448 1.395 . S
C450 C453 1.403 . S
C451 C448 1.403 . S
C451 C452 1.524 . S
C451 C455 1.400 . S
C452 H437 0.960 . S
C452 H438 0.960 . S
C452 H439 0.960 . S
C452 C451 1.524 . S
C453 C450 1.403 . S
C453 C454 1.392 . S
C453 C457 1.495 . S
C454 C453 1.392 . S
C454 C455 1.385 . S
C454 C456 1.478 . S
C455 H449 0.930 . S
C455 C451 1.400 . S
C455 C454 1.385 . S
C456 C454 1.478 . S
C456 C458 1.381 . S
C456 C462 1.383 . S
C457 C453 1.495 . S
C457 H463 0.959 . S
C457 H464 0.961 . S
C457 H465 0.960 . S
C458 C456 1.381 . S
C458 C459 1.394 . S
C458 H466 0.930 . S
C459 C458 1.394 . S
C459 C460 1.383 . S
C459 H467 0.929 . S
C460 C459 1.383 . S
C460 C461 1.377 . S
C461 H445 0.930 . S
C461 C460 1.377 . S
C461 C462 1.379 . S
C462 H446 0.931 . S
C462 C456 1.383 . S
C462 C461 1.379 . S
H463 C457 0.959 . S
H464 C457 0.961 . S
H465 C457 0.960 . S
H466 C458 0.930 . S
H467 C459 0.929 . S
H468 C476 0.929 . S
H469 C478 0.930 . S
H470 C480 0.930 . S
H471 C483 0.929 . S
H472 C486 0.930 . S
H473 C488 0.960 . S
H474 C488 0.960 . S
H475 C488 0.960 . S
C476 H468 0.929 . S
C476 C477 1.377 . S
C476 C478 1.384 . S
C477 C476 1.377 . S
C477 C483 1.390 . S
C478 H469 0.930 . S
C478 C476 1.384 . S
C478 C479 1.372 . S
C479 C478 1.372 . S
C479 C480 1.400 . S
C479 C484 1.490 . S
C480 H470 0.930 . S
C480 C479 1.400 . S
C480 C483 1.386 . S
H481 C497 0.930 . S
H482 C498 0.931 . S
C483 H471 0.929 . S
C483 C477 1.390 . S
C483 C480 1.386 . S
C484 C479 1.490 . S
C484 C486 1.395 . S
C484 C487 1.403 . S
H485 C491 0.930 . S
C486 H472 0.930 . S
C486 C484 1.395 . S
C486 C489 1.403 . S
C487 C484 1.403 . S
C487 C488 1.524 . S
C487 C491 1.400 . S
C488 H473 0.960 . S
C488 H474 0.960 . S
C488 H475 0.960 . S
C488 C487 1.524 . S
C489 C486 1.403 . S
C489 C490 1.392 . S
C489 C493 1.495 . S
C490 C489 1.392 . S
C490 C491 1.385 . S
C490 C492 1.478 . S
C491 H485 0.930 . S
C491 C487 1.400 . S
C491 C490 1.385 . S
C492 C490 1.478 . S
C492 C494 1.381 . S
C492 C498 1.383 . S
C493 C489 1.495 . S
C493 H499 0.959 . S
C493 H500 0.961 . S
C493 H501 0.960 . S
C494 C492 1.381 . S
C494 C495 1.394 . S
C494 H502 0.930 . S
C495 C494 1.394 . S
C495 C496 1.383 . S
C495 H503 0.929 . S
C496 C495 1.383 . S
C496 C497 1.377 . S
C497 H481 0.930 . S
C497 C496 1.377 . S
C497 C498 1.379 . S
C498 H482 0.931 . S
C498 C492 1.383 . S
C498 C497 1.379 . S
H499 C493 0.959 . S
H500 C493 0.961 . S
H501 C493 0.960 . S
H502 C494 0.930 . S
H503 C495 0.929 . S
H504 C512 0.929 . S
H505 C514 0.930 . S
H506 C516 0.930 . S
H507 C519 0.929 . S
H508 C522 0.930 . S
H509 C524 0.960 . S
H510 C524 0.960 . S
H511 C524 0.960 . S
C512 H504 0.929 . S
C512 C513 1.377 . S
C512 C514 1.384 . S
C513 C512 1.377 . S
C513 C519 1.390 . S
C514 H505 0.930 . S
C514 C512 1.384 . S
C514 C515 1.372 . S
C515 C514 1.372 . S
C515 C516 1.400 . S
C515 C520 1.490 . S
C516 H506 0.930 . S
C516 C515 1.400 . S
C516 C519 1.386 . S
H517 C533 0.930 . S
H518 C534 0.931 . S
C519 H507 0.929 . S
C519 C513 1.390 . S
C519 C516 1.386 . S
C520 C515 1.490 . S
C520 C522 1.395 . S
C520 C523 1.403 . S
H521 C527 0.930 . S
C522 H508 0.930 . S
C522 C520 1.395 . S
C522 C525 1.403 . S
C523 C520 1.403 . S
C523 C524 1.524 . S
C523 C527 1.400 . S
C524 H509 0.960 . S
C524 H510 0.960 . S
C524 H511 0.960 . S
C524 C523 1.524 . S
C525 C522 1.403 . S
C525 C526 1.392 . S
C525 C529 1.495 . S
C526 C525 1.392 . S
C526 C527 1.385 . S
C526 C528 1.478 . S
C527 H521 0.930 . S
C527 C523 1.400 . S
C527 C526 1.385 . S
C528 C526 1.478 . S
C528 C530 1.381 . S
C528 C534 1.383 . S
C529 C525 1.495 . S
C529 H535 0.959 . S
C529 H536 0.961 . S
C529 H537 0.960 . S
C530 C528 1.381 . S
C530 C531 1.394 . S
C530 H538 0.930 . S
C531 C530 1.394 . S
C531 C532 1.383 . S
C531 H539 0.929 . S
C532 C531 1.383 . S
C532 C533 1.377 . S
C533 H517 0.930 . S
C533 C532 1.377 . S
C533 C534 1.379 . S
C534 H518 0.931 . S
C534 C528 1.383 . S
C534 C533 1.379 . S
H535 C529 0.959 . S
H536 C529 0.961 . S
H537 C529 0.960 . S
H538 C530 0.930 . S
H539 C531 0.929 . S
H540 C548 0.929 . S
H541 C550 0.930 . S
H542 C552 0.930 . S
H543 C555 0.929 . S
H544 C558 0.930 . S
H545 C560 0.960 . S
H546 C560 0.960 . S
H547 C560 0.960 . S
C548 H540 0.929 . S
C548 C549 1.377 . S
C548 C550 1.384 . S
C549 C548 1.377 . S
C549 C555 1.390 . S
C550 H541 0.930 . S
C550 C548 1.384 . S
C550 C551 1.372 . S
C551 C550 1.372 . S
C551 C552 1.400 . S
C551 C556 1.490 . S
C552 H542 0.930 . S
C552 C551 1.400 . S
C552 C555 1.386 . S
H553 C569 0.930 . S
H554 C570 0.931 . S
C555 H543 0.929 . S
C555 C549 1.390 . S
C555 C552 1.386 . S
C556 C551 1.490 . S
C556 C558 1.395 . S
C556 C559 1.403 . S
H557 C563 0.930 . S
C558 H544 0.930 . S
C558 C556 1.395 . S
C558 C561 1.403 . S
C559 C556 1.403 . S
C559 C560 1.524 . S
C559 C563 1.400 . S
C560 H545 0.960 . S
C560 H546 0.960 . S
C560 H547 0.960 . S
C560 C559 1.524 . S
C561 C558 1.403 . S
C561 C562 1.392 . S
C561 C565 1.495 . S
C562 C561 1.392 . S
C562 C563 1.385 . S
C562 C564 1.478 . S
C563 H557 0.930 . S
C563 C559 1.400 . S
C563 C562 1.385 . S
C564 C562 1.478 . S
C564 C566 1.381 . S
C564 C570 1.383 . S
C565 C561 1.495 . S
C565 H571 0.959 . S
C565 H572 0.961 . S
C565 H573 0.960 . S
C566 C564 1.381 . S
C566 C567 1.394 . S
C566 H574 0.930 . S
C567 C566 1.394 . S
C567 C568 1.383 . S
C567 H575 0.929 . S
C568 C567 1.383 . S
C568 C569 1.377 . S
C569 H553 0.930 . S
C569 C568 1.377 . S
C569 C570 1.379 . S
C570 H554 0.931 . S
C570 C564 1.383 . S
C570 C569 1.379 . S
H571 C565 0.959 . S
H572 C565 0.961 . S
H573 C565 0.960 . S
H574 C566 0.930 . S
H575 C567 0.929 . S
H576 C584 0.929 1_554 S
H577 C586 0.930 . S
H578 C588 0.930 . S
H579 C591 0.929 . S
H580 C594 0.930 . S
H581 C596 0.960 . S
H582 C596 0.960 . S
H583 C596 0.960 . S
C584 H576 0.929 1_556 S
C584 C585 1.377 . S
C584 C586 1.384 . S
C585 C584 1.377 . S
C585 C591 1.390 . S
C586 H577 0.930 . S
C586 C584 1.384 . S
C586 C587 1.372 . S
C587 C586 1.372 . S
C587 C588 1.400 . S
C587 C592 1.490 . S
C588 H578 0.930 . S
C588 C587 1.400 . S
C588 C591 1.386 . S
H589 C605 0.930 . S
H590 C606 0.931 . S
C591 H579 0.929 . S
C591 C585 1.390 . S
C591 C588 1.386 . S
C592 C587 1.490 . S
C592 C594 1.395 . S
C592 C595 1.403 . S
H593 C599 0.930 . S
C594 H580 0.930 . S
C594 C592 1.395 . S
C594 C597 1.403 . S
C595 C592 1.403 . S
C595 C596 1.524 . S
C595 C599 1.400 . S
C596 H581 0.960 . S
C596 H582 0.960 . S
C596 H583 0.960 . S
C596 C595 1.524 . S
C597 C594 1.403 . S
C597 C598 1.392 . S
C597 C601 1.495 . S
C598 C597 1.392 . S
C598 C599 1.385 . S
C598 C600 1.478 . S
C599 H593 0.930 . S
C599 C595 1.400 . S
C599 C598 1.385 . S
C600 C598 1.478 . S
C600 C602 1.381 . S
C600 C606 1.383 . S
C601 C597 1.495 . S
C601 H607 0.959 . S
C601 H608 0.961 . S
C601 H609 0.960 . S
C602 C600 1.381 . S
C602 C603 1.394 . S
C602 H610 0.930 . S
C603 C602 1.394 . S
C603 C604 1.383 . S
C603 H611 0.929 . S
C604 C603 1.383 . S
C604 C605 1.377 . S
C605 H589 0.930 . S
C605 C604 1.377 . S
C605 C606 1.379 . S
C606 H590 0.931 . S
C606 C600 1.383 . S
C606 C605 1.379 . S
H607 C601 0.959 . S
H608 C601 0.961 . S
H609 C601 0.960 . S
H610 C602 0.930 . S
H611 C603 0.929 . S
H612 C620 0.929 1_554 S
H613 C622 0.930 . S
H614 C624 0.930 . S
H615 C627 0.929 . S
H616 C630 0.930 . S
H617 C632 0.960 . S
H618 C632 0.960 . S
H619 C632 0.960 . S
C620 H612 0.929 1_556 S
C620 C621 1.377 . S
C620 C622 1.384 . S
C621 C620 1.377 . S
C621 C627 1.390 . S
C622 H613 0.930 . S
C622 C620 1.384 . S
C622 C623 1.372 . S
C623 C622 1.372 . S
C623 C624 1.400 . S
C623 C628 1.490 . S
C624 H614 0.930 . S
C624 C623 1.400 . S
C624 C627 1.386 . S
H625 C641 0.930 . S
H626 C642 0.931 . S
C627 H615 0.929 . S
C627 C621 1.390 . S
C627 C624 1.386 . S
C628 C623 1.490 . S
C628 C630 1.395 . S
C628 C631 1.403 . S
H629 C635 0.930 . S
C630 H616 0.930 . S
C630 C628 1.395 . S
C630 C633 1.403 . S
C631 C628 1.403 . S
C631 C632 1.524 . S
C631 C635 1.400 . S
C632 H617 0.960 . S
C632 H618 0.960 . S
C632 H619 0.960 . S
C632 C631 1.524 . S
C633 C630 1.403 . S
C633 C634 1.392 . S
C633 C637 1.495 . S
C634 C633 1.392 . S
C634 C635 1.385 . S
C634 C636 1.478 . S
C635 H629 0.930 . S
C635 C631 1.400 . S
C635 C634 1.385 . S
C636 C634 1.478 . S
C636 C638 1.381 . S
C636 C642 1.383 . S
C637 C633 1.495 . S
C637 H643 0.959 . S
C637 H644 0.961 . S
C637 H645 0.960 . S
C638 C636 1.381 . S
C638 C639 1.394 . S
C638 H646 0.930 . S
C639 C638 1.394 . S
C639 C640 1.383 . S
C639 H647 0.929 . S
C640 C639 1.383 . S
C640 C641 1.377 . S
C641 H625 0.930 . S
C641 C640 1.377 . S
C641 C642 1.379 . S
C642 H626 0.931 . S
C642 C636 1.383 . S
C642 C641 1.379 . S
H643 C637 0.959 . S
H644 C637 0.961 . S
H645 C637 0.960 . S
H646 C638 0.930 . S
H647 C639 0.929 . S
H648 C656 0.929 . S
H649 C658 0.930 . S
H650 C660 0.930 . S
H651 C663 0.929 1_554 S
H652 C666 0.930 . S
H653 C668 0.960 . S
H654 C668 0.960 . S
H655 C668 0.960 . S
C656 H648 0.929 . S
C656 C657 1.377 . S
C656 C658 1.384 . S
C657 C656 1.377 . S
C657 C663 1.390 . S
C658 H649 0.930 . S
C658 C656 1.384 . S
C658 C659 1.372 . S
C659 C658 1.372 . S
C659 C660 1.400 . S
C659 C664 1.490 . S
C660 H650 0.930 . S
C660 C659 1.400 . S
C660 C663 1.386 . S
H661 C677 0.930 . S
H662 C678 0.931 . S
C663 H651 0.929 1_556 S
C663 C657 1.390 . S
C663 C660 1.386 . S
C664 C659 1.490 . S
C664 C666 1.395 . S
C664 C667 1.403 . S
H665 C671 0.930 . S
C666 H652 0.930 . S
C666 C664 1.395 . S
C666 C669 1.403 . S
C667 C664 1.403 . S
C667 C668 1.524 . S
C667 C671 1.400 . S
C668 H653 0.960 . S
C668 H654 0.960 . S
C668 H655 0.960 . S
C668 C667 1.524 . S
C669 C666 1.403 . S
C669 C670 1.392 . S
C669 C673 1.495 . S
C670 C669 1.392 . S
C670 C671 1.385 . S
C670 C672 1.478 . S
C671 H665 0.930 . S
C671 C667 1.400 . S
C671 C670 1.385 . S
C672 C670 1.478 . S
C672 C674 1.381 . S
C672 C678 1.383 . S
C673 C669 1.495 . S
C673 H679 0.959 . S
C673 H680 0.961 . S
C673 H681 0.960 . S
C674 C672 1.381 . S
C674 C675 1.394 . S
C674 H682 0.930 . S
C675 C674 1.394 . S
C675 C676 1.383 . S
C675 H683 0.929 . S
C676 C675 1.383 . S
C676 C677 1.377 . S
C677 H661 0.930 . S
C677 C676 1.377 . S
C677 C678 1.379 . S
C678 H662 0.931 . S
C678 C672 1.383 . S
C678 C677 1.379 . S
H679 C673 0.959 . S
H680 C673 0.961 . S
H681 C673 0.960 . S
H682 C674 0.930 . S
H683 C675 0.929 . S
H684 C692 0.929 . S
H685 C694 0.930 . S
H686 C696 0.930 . S
H687 C699 0.929 . S
H688 C702 0.930 . S
H689 C704 0.960 . S
H690 C704 0.960 . S
H691 C704 0.960 . S
C692 H684 0.929 . S
C692 C693 1.377 . S
C692 C694 1.384 . S
C693 C692 1.377 . S
C693 C699 1.390 . S
C694 H685 0.930 . S
C694 C692 1.384 . S
C694 C695 1.372 . S
C695 C694 1.372 . S
C695 C696 1.400 . S
C695 C700 1.490 . S
C696 H686 0.930 . S
C696 C695 1.400 . S
C696 C699 1.386 . S
H697 C713 0.930 . S
H698 C714 0.931 . S
C699 H687 0.929 . S
C699 C693 1.390 . S
C699 C696 1.386 . S
C700 C695 1.490 . S
C700 C702 1.395 . S
C700 C703 1.403 . S
H701 C707 0.930 . S
C702 H688 0.930 . S
C702 C700 1.395 . S
C702 C705 1.403 . S
C703 C700 1.403 . S
C703 C704 1.524 . S
C703 C707 1.400 . S
C704 H689 0.960 . S
C704 H690 0.960 . S
C704 H691 0.960 . S
C704 C703 1.524 . S
C705 C702 1.403 . S
C705 C706 1.392 . S
C705 C709 1.495 . S
C706 C705 1.392 . S
C706 C707 1.385 . S
C706 C708 1.478 . S
C707 H701 0.930 . S
C707 C703 1.400 . S
C707 C706 1.385 . S
C708 C706 1.478 . S
C708 C710 1.381 . S
C708 C714 1.383 . S
C709 C705 1.495 . S
C709 H715 0.959 . S
C709 H716 0.961 . S
C709 H717 0.960 . S
C710 C708 1.381 . S
C710 C711 1.394 . S
C710 H718 0.930 . S
C711 C710 1.394 . S
C711 C712 1.383 . S
C711 H719 0.929 . S
C712 C711 1.383 . S
C712 C713 1.377 . S
C713 H697 0.930 . S
C713 C712 1.377 . S
C713 C714 1.379 . S
C714 H698 0.931 . S
C714 C708 1.383 . S
C714 C713 1.379 . S
H715 C709 0.959 . S
H716 C709 0.961 . S
H717 C709 0.960 . S
H718 C710 0.930 . S
H719 C711 0.929 . S
H720 C728 0.929 . S
H721 C730 0.930 . S
H722 C732 0.930 . S
H723 C735 0.929 . S
H724 C738 0.930 . S
H725 C740 0.960 . S
H726 C740 0.960 . S
H727 C740 0.960 . S
C728 H720 0.929 . S
C728 C729 1.377 . S
C728 C730 1.384 . S
C729 C728 1.377 . S
C729 C735 1.390 . S
C730 H721 0.930 . S
C730 C728 1.384 . S
C730 C731 1.372 . S
C731 C730 1.372 . S
C731 C732 1.400 . S
C731 C736 1.490 . S
C732 H722 0.930 . S
C732 C731 1.400 . S
C732 C735 1.386 . S
H733 C749 0.930 . S
H734 C750 0.931 . S
C735 H723 0.929 . S
C735 C729 1.390 . S
C735 C732 1.386 . S
C736 C731 1.490 . S
C736 C738 1.395 . S
C736 C739 1.403 . S
H737 C743 0.930 . S
C738 H724 0.930 . S
C738 C736 1.395 . S
C738 C741 1.403 . S
C739 C736 1.403 . S
C739 C740 1.524 . S
C739 C743 1.400 . S
C740 H725 0.960 . S
C740 H726 0.960 . S
C740 H727 0.960 . S
C740 C739 1.524 . S
C741 C738 1.403 . S
C741 C742 1.392 . S
C741 C745 1.495 . S
C742 C741 1.392 . S
C742 C743 1.385 . S
C742 C744 1.478 . S
C743 H737 0.930 . S
C743 C739 1.400 . S
C743 C742 1.385 . S
C744 C742 1.478 . S
C744 C746 1.381 . S
C744 C750 1.383 . S
C745 C741 1.495 . S
C745 H751 0.959 . S
C745 H752 0.961 . S
C745 H753 0.960 . S
C746 C744 1.381 . S
C746 C747 1.394 . S
C746 H754 0.930 . S
C747 C746 1.394 . S
C747 C748 1.383 . S
C747 H755 0.929 . S
C748 C747 1.383 . S
C748 C749 1.377 . S
C749 H733 0.930 . S
C749 C748 1.377 . S
C749 C750 1.379 . S
C750 H734 0.931 . S
C750 C744 1.383 . S
C750 C749 1.379 . S
H751 C745 0.959 . S
H752 C745 0.961 . S
H753 C745 0.960 . S
H754 C746 0.930 . S
H755 C747 0.929 . S
H756 C764 0.929 . S
H757 C766 0.930 . S
H758 C768 0.930 . S
H759 C771 0.929 . S
H760 C774 0.930 . S
H761 C776 0.960 . S
H762 C776 0.960 . S
H763 C776 0.960 . S
C764 H756 0.929 . S
C764 C765 1.377 . S
C764 C766 1.384 . S
C765 C764 1.377 . S
C765 C771 1.390 . S
C766 H757 0.930 . S
C766 C764 1.384 . S
C766 C767 1.372 . S
C767 C766 1.372 . S
C767 C768 1.400 . S
C767 C772 1.490 . S
C768 H758 0.930 . S
C768 C767 1.400 . S
C768 C771 1.386 . S
H769 C785 0.930 . S
H770 C786 0.931 . S
C771 H759 0.929 . S
C771 C765 1.390 . S
C771 C768 1.386 . S
C772 C767 1.490 . S
C772 C774 1.395 . S
C772 C775 1.403 . S
H773 C779 0.930 . S
C774 H760 0.930 . S
C774 C772 1.395 . S
C774 C777 1.403 . S
C775 C772 1.403 . S
C775 C776 1.524 . S
C775 C779 1.400 . S
C776 H761 0.960 . S
C776 H762 0.960 . S
C776 H763 0.960 . S
C776 C775 1.524 . S
C777 C774 1.403 . S
C777 C778 1.392 . S
C777 C781 1.495 . S
C778 C777 1.392 . S
C778 C779 1.385 . S
C778 C780 1.478 . S
C779 H773 0.930 . S
C779 C775 1.400 . S
C779 C778 1.385 . S
C780 C778 1.478 . S
C780 C782 1.381 . S
C780 C786 1.383 . S
C781 C777 1.495 . S
C781 H787 0.959 . S
C781 H788 0.961 . S
C781 H789 0.960 . S
C782 C780 1.381 . S
C782 C783 1.394 . S
C782 H790 0.930 . S
C783 C782 1.394 . S
C783 C784 1.383 . S
C783 H791 0.929 . S
C784 C783 1.383 . S
C784 C785 1.377 . S
C785 H769 0.930 . S
C785 C784 1.377 . S
C785 C786 1.379 . S
C786 H770 0.931 . S
C786 C780 1.383 . S
C786 C785 1.379 . S
H787 C781 0.959 . S
H788 C781 0.961 . S
H789 C781 0.960 . S
H790 C782 0.930 . S
H791 C783 0.929 . S
H792 C800 0.929 . S
H793 C802 0.930 . S
H794 C804 0.930 . S
H795 C807 0.929 . S
H796 C810 0.930 . S
H797 C812 0.960 . S
H798 C812 0.960 . S
H799 C812 0.960 . S
C800 H792 0.929 . S
C800 C801 1.377 . S
C800 C802 1.384 . S
C801 C800 1.377 . S
C801 C807 1.390 . S
C802 H793 0.930 . S
C802 C800 1.384 . S
C802 C803 1.372 . S
C803 C802 1.372 . S
C803 C804 1.400 . S
C803 C808 1.490 . S
C804 H794 0.930 . S
C804 C803 1.400 . S
C804 C807 1.386 . S
H805 C821 0.930 . S
H806 C822 0.931 . S
C807 H795 0.929 . S
C807 C801 1.390 . S
C807 C804 1.386 . S
C808 C803 1.490 . S
C808 C810 1.395 . S
C808 C811 1.403 . S
H809 C815 0.930 . S
C810 H796 0.930 . S
C810 C808 1.395 . S
C810 C813 1.403 . S
C811 C808 1.403 . S
C811 C812 1.524 . S
C811 C815 1.400 . S
C812 H797 0.960 . S
C812 H798 0.960 . S
C812 H799 0.960 . S
C812 C811 1.524 . S
C813 C810 1.403 . S
C813 C814 1.392 . S
C813 C817 1.495 . S
C814 C813 1.392 . S
C814 C815 1.385 . S
C814 C816 1.478 . S
C815 H809 0.930 . S
C815 C811 1.400 . S
C815 C814 1.385 . S
C816 C814 1.478 . S
C816 C818 1.381 . S
C816 C822 1.383 . S
C817 C813 1.495 . S
C817 H823 0.959 . S
C817 H824 0.961 . S
C817 H825 0.960 . S
C818 C816 1.381 . S
C818 C819 1.394 . S
C818 H826 0.930 . S
C819 C818 1.394 . S
C819 C820 1.383 . S
C819 H827 0.929 1_554 S
C820 C819 1.383 . S
C820 C821 1.377 . S
C821 H805 0.930 . S
C821 C820 1.377 . S
C821 C822 1.379 . S
C822 H806 0.931 . S
C822 C816 1.383 . S
C822 C821 1.379 . S
H823 C817 0.959 . S
H824 C817 0.961 . S
H825 C817 0.960 . S
H826 C818 0.930 . S
H827 C819 0.929 1_556 S
H828 C836 0.929 . S
H829 C838 0.930 . S
H830 C840 0.930 . S
H831 C843 0.929 . S
H832 C846 0.930 . S
H833 C848 0.960 . S
H834 C848 0.960 . S
H835 C848 0.960 . S
C836 H828 0.929 . S
C836 C837 1.377 . S
C836 C838 1.384 . S
C837 C836 1.377 . S
C837 C843 1.390 . S
C838 H829 0.930 . S
C838 C836 1.384 . S
C838 C839 1.372 . S
C839 C838 1.372 . S
C839 C840 1.400 . S
C839 C844 1.490 . S
C840 H830 0.930 . S
C840 C839 1.400 . S
C840 C843 1.386 . S
H841 C857 0.930 . S
H842 C858 0.931 . S
C843 H831 0.929 . S
C843 C837 1.390 . S
C843 C840 1.386 . S
C844 C839 1.490 . S
C844 C846 1.395 . S
C844 C847 1.403 . S
H845 C851 0.930 . S
C846 H832 0.930 . S
C846 C844 1.395 . S
C846 C849 1.403 . S
C847 C844 1.403 . S
C847 C848 1.524 . S
C847 C851 1.400 . S
C848 H833 0.960 . S
C848 H834 0.960 . S
C848 H835 0.960 . S
C848 C847 1.524 . S
C849 C846 1.403 . S
C849 C850 1.392 . S
C849 C853 1.495 . S
C850 C849 1.392 . S
C850 C851 1.385 . S
C850 C852 1.478 . S
C851 H845 0.930 . S
C851 C847 1.400 . S
C851 C850 1.385 . S
C852 C850 1.478 . S
C852 C854 1.381 . S
C852 C858 1.383 . S
C853 C849 1.495 . S
C853 H859 0.959 . S
C853 H860 0.961 . S
C853 H861 0.960 . S
C854 C852 1.381 . S
C854 C855 1.394 . S
C854 H862 0.930 . S
C855 C854 1.394 . S
C855 C856 1.383 . S
C855 H863 0.929 1_554 S
C856 C855 1.383 . S
C856 C857 1.377 . S
C857 H841 0.930 . S
C857 C856 1.377 . S
C857 C858 1.379 . S
C858 H842 0.931 . S
C858 C852 1.383 . S
C858 C857 1.379 . S
H859 C853 0.959 . S
H860 C853 0.961 . S
H861 C853 0.960 . S
H862 C854 0.930 . S
H863 C855 0.929 1_556 S
H864 C872 0.929 . S
H865 C874 0.930 . S
H866 C876 0.930 . S
H867 C879 0.929 . S
H868 C882 0.930 . S
H869 C884 0.960 . S
H870 C884 0.960 . S
H871 C884 0.960 . S
C872 H864 0.929 . S
C872 C873 1.377 . S
C872 C874 1.384 . S
C873 C872 1.377 . S
C873 C879 1.390 . S
C874 H865 0.930 . S
C874 C872 1.384 . S
C874 C875 1.372 . S
C875 C874 1.372 . S
C875 C876 1.400 . S
C875 C880 1.490 . S
C876 H866 0.930 . S
C876 C875 1.400 . S
C876 C879 1.386 . S
H877 C893 0.930 . S
H878 C894 0.931 . S
C879 H867 0.929 . S
C879 C873 1.390 . S
C879 C876 1.386 . S
C880 C875 1.490 . S
C880 C882 1.395 . S
C880 C883 1.403 . S
H881 C887 0.930 . S
C882 H868 0.930 . S
C882 C880 1.395 . S
C882 C885 1.403 . S
C883 C880 1.403 . S
C883 C884 1.524 . S
C883 C887 1.400 . S
C884 H869 0.960 . S
C884 H870 0.960 . S
C884 H871 0.960 . S
C884 C883 1.524 . S
C885 C882 1.403 . S
C885 C886 1.392 . S
C885 C889 1.495 . S
C886 C885 1.392 . S
C886 C887 1.385 . S
C886 C888 1.478 . S
C887 H881 0.930 . S
C887 C883 1.400 . S
C887 C886 1.385 . S
C888 C886 1.478 . S
C888 C890 1.381 . S
C888 C894 1.383 . S
C889 C885 1.495 . S
C889 H895 0.959 . S
C889 H896 0.961 . S
C889 H897 0.960 . S
C890 C888 1.381 . S
C890 C891 1.394 . S
C890 H898 0.930 . S
C891 C890 1.394 . S
C891 C892 1.383 . S
C891 H899 0.929 . S
C892 C891 1.383 . S
C892 C893 1.377 . S
C893 H877 0.930 . S
C893 C892 1.377 . S
C893 C894 1.379 . S
C894 H878 0.931 . S
C894 C888 1.383 . S
C894 C893 1.379 . S
H895 C889 0.959 . S
H896 C889 0.961 . S
H897 C889 0.960 . S
H898 C890 0.930 . S
H899 C891 0.929 . S
H900 C908 0.929 . S
H901 C910 0.930 . S
H902 C912 0.930 . S
H903 C915 0.929 . S
H904 C918 0.930 . S
H905 C920 0.960 . S
H906 C920 0.960 . S
H907 C920 0.960 . S
C908 H900 0.929 . S
C908 C909 1.377 . S
C908 C910 1.384 . S
C909 C908 1.377 . S
C909 C915 1.390 . S
C910 H901 0.930 . S
C910 C908 1.384 . S
C910 C911 1.372 . S
C911 C910 1.372 . S
C911 C912 1.400 . S
C911 C916 1.490 . S
C912 H902 0.930 . S
C912 C911 1.400 . S
C912 C915 1.386 . S
H913 C929 0.930 . S
H914 C930 0.931 . S
C915 H903 0.929 . S
C915 C909 1.390 . S
C915 C912 1.386 . S
C916 C911 1.490 . S
C916 C918 1.395 . S
C916 C919 1.403 . S
H917 C923 0.930 . S
C918 H904 0.930 . S
C918 C916 1.395 . S
C918 C921 1.403 . S
C919 C916 1.403 . S
C919 C920 1.524 . S
C919 C923 1.400 . S
C920 H905 0.960 . S
C920 H906 0.960 . S
C920 H907 0.960 . S
C920 C919 1.524 . S
C921 C918 1.403 . S
C921 C922 1.392 . S
C921 C925 1.495 . S
C922 C921 1.392 . S
C922 C923 1.385 . S
C922 C924 1.478 . S
C923 H917 0.930 . S
C923 C919 1.400 . S
C923 C922 1.385 . S
C924 C922 1.478 . S
C924 C926 1.381 . S
C924 C930 1.383 . S
C925 C921 1.495 . S
C925 H931 0.959 . S
C925 H932 0.961 . S
C925 H933 0.960 . S
C926 C924 1.381 . S
C926 C927 1.394 . S
C926 H934 0.930 . S
C927 C926 1.394 . S
C927 C928 1.383 . S
C927 H935 0.929 . S
C928 C927 1.383 . S
C928 C929 1.377 . S
C929 H913 0.930 . S
C929 C928 1.377 . S
C929 C930 1.379 . S
C930 H914 0.931 . S
C930 C924 1.383 . S
C930 C929 1.379 . S
H931 C925 0.959 . S
H932 C925 0.961 . S
H933 C925 0.960 . S
H934 C926 0.930 . S
H935 C927 0.929 . S
H936 C944 0.929 . S
H937 C946 0.930 . S
H938 C948 0.930 . S
H939 C951 0.929 . S
H940 C954 0.930 . S
H941 C956 0.960 . S
H942 C956 0.960 . S
H943 C956 0.960 . S
C944 H936 0.929 . S
C944 C945 1.377 . S
C944 C946 1.384 . S
C945 C944 1.377 . S
C945 C951 1.390 . S
C946 H937 0.930 . S
C946 C944 1.384 . S
C946 C947 1.372 . S
C947 C946 1.372 . S
C947 C948 1.400 . S
C947 C952 1.490 . S
C948 H938 0.930 . S
C948 C947 1.400 . S
C948 C951 1.386 . S
H949 C965 0.930 . S
H950 C966 0.931 . S
C951 H939 0.929 . S
C951 C945 1.390 . S
C951 C948 1.386 . S
C952 C947 1.490 . S
C952 C954 1.395 . S
C952 C955 1.403 . S
H953 C959 0.930 . S
C954 H940 0.930 . S
C954 C952 1.395 . S
C954 C957 1.403 . S
C955 C952 1.403 . S
C955 C956 1.524 . S
C955 C959 1.400 . S
C956 H941 0.960 . S
C956 H942 0.960 . S
C956 H943 0.960 . S
C956 C955 1.524 . S
C957 C954 1.403 . S
C957 C958 1.392 . S
C957 C961 1.495 . S
C958 C957 1.392 . S
C958 C959 1.385 . S
C958 C960 1.478 . S
C959 H953 0.930 . S
C959 C955 1.400 . S
C959 C958 1.385 . S
C960 C958 1.478 . S
C960 C962 1.381 . S
C960 C966 1.383 . S
C961 C957 1.495 . S
C961 H967 0.959 . S
C961 H968 0.961 . S
C961 H969 0.960 . S
C962 C960 1.381 . S
C962 C963 1.394 . S
C962 H970 0.930 . S
C963 C962 1.394 . S
C963 C964 1.383 . S
C963 H971 0.929 . S
C964 C963 1.383 . S
C964 C965 1.377 . S
C965 H949 0.930 . S
C965 C964 1.377 . S
C965 C966 1.379 . S
C966 H950 0.931 . S
C966 C960 1.383 . S
C966 C965 1.379 . S
H967 C961 0.959 . S
H968 C961 0.961 . S
H969 C961 0.960 . S
H970 C962 0.930 . S
H971 C963 0.929 . S
H972 C980 0.929 . S
H973 C982 0.930 . S
H974 C984 0.930 . S
H975 C987 0.929 1_565 S
H976 C990 0.930 . S
H977 C992 0.960 . S
H978 C992 0.960 . S
H979 C992 0.960 . S
C980 H972 0.929 . S
C980 C981 1.377 . S
C980 C982 1.384 . S
C981 C980 1.377 . S
C981 C987 1.390 . S
C982 H973 0.930 . S
C982 C980 1.384 . S
C982 C983 1.372 . S
C983 C982 1.372 . S
C983 C984 1.400 . S
C983 C988 1.490 . S
C984 H974 0.930 . S
C984 C983 1.400 . S
C984 C987 1.386 . S
H985 C1001 0.930 . S
H986 C1002 0.931 . S
C987 H975 0.929 1_545 S
C987 C981 1.390 . S
C987 C984 1.386 . S
C988 C983 1.490 . S
C988 C990 1.395 . S
C988 C991 1.403 . S
H989 C995 0.930 . S
C990 H976 0.930 . S
C990 C988 1.395 . S
C990 C993 1.403 . S
C991 C988 1.403 . S
C991 C992 1.524 . S
C991 C995 1.400 . S
C992 H977 0.960 . S
C992 H978 0.960 . S
C992 H979 0.960 . S
C992 C991 1.524 . S
C993 C990 1.403 . S
C993 C994 1.392 . S
C993 C997 1.495 . S
C994 C993 1.392 . S
C994 C995 1.385 . S
C994 C996 1.478 . S
C995 H989 0.930 . S
C995 C991 1.400 . S
C995 C994 1.385 . S
C996 C994 1.478 . S
C996 C998 1.381 . S
C996 C1002 1.383 . S
C997 C993 1.495 . S
C997 H1003 0.959 . S
C997 H1004 0.961 . S
C997 H1005 0.960 . S
C998 C996 1.381 . S
C998 C999 1.394 . S
C998 H1006 0.930 . S
C999 C998 1.394 . S
C999 C1000 1.383 . S
C999 H1007 0.929 . S
C1000 C999 1.383 . S
C1000 C1001 1.377 . S
C1001 H985 0.930 . S
C1001 C1000 1.377 . S
C1001 C1002 1.379 . S
C1002 H986 0.931 . S
C1002 C996 1.383 . S
C1002 C1001 1.379 . S
H1003 C997 0.959 . S
H1004 C997 0.961 . S
H1005 C997 0.960 . S
H1006 C998 0.930 . S
H1007 C999 0.929 . S
H1008 C1016 0.929 . S
H1009 C1018 0.930 . S
H1010 C1020 0.930 . S
H1011 C1023 0.929 . S
H1012 C1026 0.930 . S
H1013 C1028 0.960 . S
H1014 C1028 0.960 . S
H1015 C1028 0.960 . S
C1016 H1008 0.929 . S
C1016 C1017 1.377 . S
C1016 C1018 1.384 . S
C1017 C1016 1.377 . S
C1017 C1023 1.390 . S
C1018 H1009 0.930 . S
C1018 C1016 1.384 . S
C1018 C1019 1.372 . S
C1019 C1018 1.372 . S
C1019 C1020 1.400 . S
C1019 C1024 1.490 . S
C1020 H1010 0.930 . S
C1020 C1019 1.400 . S
C1020 C1023 1.386 . S
H1021 C1037 0.930 . S
H1022 C1038 0.931 . S
C1023 H1011 0.929 . S
C1023 C1017 1.390 . S
C1023 C1020 1.386 . S
C1024 C1019 1.490 . S
C1024 C1026 1.395 . S
C1024 C1027 1.403 . S
H1025 C1031 0.930 . S
C1026 H1012 0.930 . S
C1026 C1024 1.395 . S
C1026 C1029 1.403 . S
C1027 C1024 1.403 . S
C1027 C1028 1.524 . S
C1027 C1031 1.400 . S
C1028 H1013 0.960 . S
C1028 H1014 0.960 . S
C1028 H1015 0.960 . S
C1028 C1027 1.524 . S
C1029 C1026 1.403 . S
C1029 C1030 1.392 . S
C1029 C1033 1.495 . S
C1030 C1029 1.392 . S
C1030 C1031 1.385 . S
C1030 C1032 1.478 . S
C1031 H1025 0.930 . S
C1031 C1027 1.400 . S
C1031 C1030 1.385 . S
C1032 C1030 1.478 . S
C1032 C1034 1.381 . S
C1032 C1038 1.383 . S
C1033 C1029 1.495 . S
C1033 H1039 0.959 . S
C1033 H1040 0.961 . S
C1033 H1041 0.960 . S
C1034 C1032 1.381 . S
C1034 C1035 1.394 1_554 S
C1034 H1042 0.930 . S
C1035 C1034 1.394 1_556 S
C1035 C1036 1.383 1_556 S
C1035 H1043 0.929 . S
C1036 C1035 1.383 1_554 S
C1036 C1037 1.377 . S
C1037 H1021 0.930 . S
C1037 C1036 1.377 . S
C1037 C1038 1.379 . S
C1038 H1022 0.931 . S
C1038 C1032 1.383 . S
C1038 C1037 1.379 . S
H1039 C1033 0.959 . S
H1040 C1033 0.961 . S
H1041 C1033 0.960 . S
H1042 C1034 0.930 . S
H1043 C1035 0.929 . S
H1044 C1052 0.929 . S
H1045 C1054 0.930 1_556 S
H1046 C1056 0.930 . S
H1047 C1059 0.929 . S
H1048 C1062 0.930 . S
H1049 C1064 0.960 . S
H1050 C1064 0.937 1_556 S
H1051 C1064 0.990 . S
C1052 H1044 0.929 . S
C1052 C1053 1.377 1_556 S
C1052 C1054 1.384 1_556 S
C1053 C1052 1.377 1_554 S
C1053 C1059 1.390 1_455 S
C1054 H1045 0.930 1_554 S
C1054 C1052 1.384 1_554 S
C1054 C1055 1.372 . S
C1055 C1054 1.372 . S
C1055 C1056 1.400 . S
C1055 C1060 1.490 . S
C1056 H1046 0.930 . S
C1056 C1055 1.400 . S
C1056 C1059 1.386 1_455 S
H1057 C1073 0.930 . S
H1058 C1074 0.931 . S
C1059 H1047 0.929 . S
C1059 C1053 1.390 1_655 S
C1059 C1056 1.386 1_655 S
C1060 C1055 1.490 . S
C1060 C1062 1.395 . S
C1060 C1063 1.403 . S
H1061 C1067 0.930 . S
C1062 H1048 0.930 . S
C1062 C1060 1.395 . S
C1062 C1065 1.403 . S
C1063 C1060 1.403 . S
C1063 C1064 1.524 . S
C1063 C1067 1.400 . S
C1064 H1049 0.960 . S
C1064 H1050 0.937 1_554 S
C1064 H1051 0.990 . S
C1064 C1063 1.524 . S
C1065 C1062 1.403 . S
C1065 C1066 1.392 . S
C1065 C1069 1.495 . S
C1066 C1065 1.392 . S
C1066 C1067 1.385 . S
C1066 C1068 1.478 . S
C1067 H1061 0.930 . S
C1067 C1063 1.400 . S
C1067 C1066 1.385 . S
C1068 C1066 1.478 . S
C1068 C1070 1.381 . S
C1068 C1074 1.383 . S
C1069 C1065 1.495 . S
C1069 H1075 0.959 . S
C1069 H1076 0.961 . S
C1069 H1077 0.960 . S
C1070 C1068 1.381 . S
C1070 C1071 1.394 . S
C1070 H1078 0.930 . S
C1071 C1070 1.394 . S
C1071 C1072 1.383 . S
C1071 H1079 0.929 . S
C1072 C1071 1.383 . S
C1072 C1073 1.377 . S
C1073 H1057 0.930 . S
C1073 C1072 1.377 . S
C1073 C1074 1.379 . S
C1074 H1058 0.931 . S
C1074 C1068 1.383 . S
C1074 C1073 1.379 . S
H1075 C1069 0.959 . S
H1076 C1069 0.961 . S
H1077 C1069 0.960 . S
H1078 C1070 0.930 . S
H1079 C1071 0.929 . S
H1080 C1088 0.929 . S
H1081 C1090 0.930 . S
H1082 C1092 0.930 . S
H1083 C1095 0.929 . S
H1084 C1098 0.930 . S
H1085 C1100 0.960 . S
H1086 C1100 0.960 . S
H1087 C1100 0.960 . S
C1088 H1080 0.929 . S
C1088 C1089 1.377 1_556 S
C1088 C1090 1.384 . S
C1089 C1088 1.377 1_554 S
C1089 C1095 1.390 . S
C1090 H1081 0.930 . S
C1090 C1088 1.384 . S
C1090 C1091 1.372 1_556 S
C1091 C1090 1.372 1_554 S
C1091 C1092 1.400 . S
C1091 C1096 1.490 . S
C1092 H1082 0.930 . S
C1092 C1091 1.400 . S
C1092 C1095 1.386 . S
H1093 C1109 0.930 . S
H1094 C1110 0.931 . S
C1095 H1083 0.929 . S
C1095 C1089 1.390 . S
C1095 C1092 1.386 . S
C1096 C1091 1.490 . S
C1096 C1098 1.395 . S
C1096 C1099 1.403 . S
H1097 C1103 0.930 . S
C1098 H1084 0.930 . S
C1098 C1096 1.395 . S
C1098 C1101 1.403 . S
C1099 C1096 1.403 . S
C1099 C1100 1.524 . S
C1099 C1103 1.400 . S
C1100 H1085 0.960 . S
C1100 H1086 0.960 . S
C1100 H1087 0.960 . S
C1100 C1099 1.524 . S
C1101 C1098 1.403 . S
C1101 C1102 1.392 . S
C1101 C1105 1.495 . S
C1102 C1101 1.392 . S
C1102 C1103 1.385 . S
C1102 C1104 1.478 . S
C1103 H1097 0.930 . S
C1103 C1099 1.400 . S
C1103 C1102 1.385 . S
C1104 C1102 1.478 . S
C1104 C1106 1.381 . S
C1104 C1110 1.383 . S
C1105 C1101 1.495 . S
C1105 H1111 0.959 1_554 S
C1105 H1112 0.961 . S
C1105 H1113 0.960 . S
C1106 C1104 1.381 . S
C1106 C1107 1.394 . S
C1106 H1114 0.930 . S
C1107 C1106 1.394 . S
C1107 C1108 1.383 . S
C1107 H1115 0.929 . S
C1108 C1107 1.383 . S
C1108 C1109 1.377 . S
C1109 H1093 0.930 . S
C1109 C1108 1.377 . S
C1109 C1110 1.379 . S
C1110 H1094 0.931 . S
C1110 C1104 1.383 . S
C1110 C1109 1.379 . S
H1111 C1105 0.959 1_556 S
H1112 C1105 0.961 . S
H1113 C1105 0.960 . S
H1114 C1106 0.930 . S
H1115 C1107 0.929 . S
H1116 C1124 0.929 . S
H1117 C1126 0.930 . S
H1118 C1128 0.930 . S
H1119 C1131 0.929 . S
H1120 C1134 0.930 . S
H1121 C1136 0.960 . S
H1122 C1136 1.007 . S
H1123 C1136 0.960 . S
C1124 H1116 0.929 . S
C1124 C1125 1.377 . S
C1124 C1126 1.384 . S
C1125 C1124 1.377 . S
C1125 C1131 1.390 . S
C1126 H1117 0.930 . S
C1126 C1124 1.384 . S
C1126 C1127 1.372 . S
C1127 C1126 1.372 . S
C1127 C1128 1.400 . S
C1127 C1132 1.490 . S
C1128 H1118 0.930 . S
C1128 C1127 1.400 . S
C1128 C1131 1.386 . S
H1129 C1145 0.930 . S
H1130 C1146 0.931 . S
C1131 H1119 0.929 . S
C1131 C1125 1.390 . S
C1131 C1128 1.386 . S
C1132 C1127 1.490 . S
C1132 C1134 1.395 . S
C1132 C1135 1.403 . S
H1133 C1139 0.930 . S
C1134 H1120 0.930 . S
C1134 C1132 1.395 . S
C1134 C1137 1.403 . S
C1135 C1132 1.403 . S
C1135 C1136 1.524 . S
C1135 C1139 1.400 . S
C1136 H1121 0.960 . S
C1136 H1122 1.007 . S
C1136 H1123 0.960 . S
C1136 C1135 1.524 . S
C1137 C1134 1.403 . S
C1137 C1138 1.392 . S
C1137 C1141 1.495 . S
C1138 C1137 1.392 . S
C1138 C1139 1.385 . S
C1138 C1140 1.478 . S
C1139 H1133 0.930 . S
C1139 C1135 1.400 . S
C1139 C1138 1.385 . S
C1140 C1138 1.478 . S
C1140 C1142 1.381 . S
C1140 C1146 1.383 . S
C1141 C1137 1.495 . S
C1141 H1147 0.959 . S
C1141 H1148 0.961 . S
C1141 H1149 0.960 . S
C1142 C1140 1.381 . S
C1142 C1143 1.394 . S
C1142 H1150 0.930 . S
C1143 C1142 1.394 . S
C1143 C1144 1.383 . S
C1143 H1151 0.929 . S
C1144 C1143 1.383 . S
C1144 C1145 1.377 . S
C1145 H1129 0.930 . S
C1145 C1144 1.377 . S
C1145 C1146 1.379 . S
C1146 H1130 0.931 . S
C1146 C1140 1.383 . S
C1146 C1145 1.379 . S
H1147 C1141 0.959 . S
H1148 C1141 0.961 . S
H1149 C1141 0.960 . S
H1150 C1142 0.930 . S
H1151 C1143 0.929 . S
H1152 C1160 0.929 . S
H1153 C1162 0.930 . S
H1154 C1164 0.930 . S
H1155 C1167 0.929 . S
H1156 C1170 0.930 . S
H1157 C1172 0.960 . S
H1158 C1172 0.960 . S
H1159 C1172 0.960 . S
C1160 H1152 0.929 . S
C1160 C1161 1.377 . S
C1160 C1162 1.384 . S
C1161 C1160 1.377 . S
C1161 C1167 1.390 . S
C1162 H1153 0.930 . S
C1162 C1160 1.384 . S
C1162 C1163 1.372 . S
C1163 C1162 1.372 . S
C1163 C1164 1.400 . S
C1163 C1168 1.490 . S
C1164 H1154 0.930 . S
C1164 C1163 1.400 . S
C1164 C1167 1.386 . S
H1165 C1181 0.930 . S
H1166 C1182 0.931 . S
C1167 H1155 0.929 . S
C1167 C1161 1.390 . S
C1167 C1164 1.386 . S
C1168 C1163 1.490 . S
C1168 C1170 1.395 . S
C1168 C1171 1.403 . S
H1169 C1175 0.930 . S
C1170 H1156 0.930 . S
C1170 C1168 1.395 . S
C1170 C1173 1.403 . S
C1171 C1168 1.403 . S
C1171 C1172 1.524 . S
C1171 C1175 1.400 . S
C1172 H1157 0.960 . S
C1172 H1158 0.960 . S
C1172 H1159 0.960 . S
C1172 C1171 1.524 . S
C1173 C1170 1.403 . S
C1173 C1174 1.392 . S
C1173 C1177 1.495 . S
C1174 C1173 1.392 . S
C1174 C1175 1.385 . S
C1174 C1176 1.478 . S
C1175 H1169 0.930 . S
C1175 C1171 1.400 . S
C1175 C1174 1.385 . S
C1176 C1174 1.478 . S
C1176 C1178 1.381 . S
C1176 C1182 1.383 . S
C1177 C1173 1.495 . S
C1177 H1183 0.959 . S
C1177 H1184 0.961 . S
C1177 H1185 0.960 . S
C1178 C1176 1.381 . S
C1178 C1179 1.394 . S
C1178 H1186 0.930 . S
C1179 C1178 1.394 . S
C1179 C1180 1.383 . S
C1179 H1187 0.929 . S
C1180 C1179 1.383 . S
C1180 C1181 1.377 . S
C1181 H1165 0.930 . S
C1181 C1180 1.377 . S
C1181 C1182 1.379 . S
C1182 H1166 0.931 . S
C1182 C1176 1.383 . S
C1182 C1181 1.379 . S
H1183 C1177 0.959 . S
H1184 C1177 0.961 . S
H1185 C1177 0.960 . S
H1186 C1178 0.930 . S
H1187 C1179 0.929 . S
H1188 C1196 0.929 . S
H1189 C1198 0.930 . S
H1190 C1200 0.930 . S
H1191 C1203 0.929 . S
H1192 C1206 0.930 . S
H1193 C1208 0.960 . S
H1194 C1208 0.960 . S
H1195 C1208 0.960 . S
C1196 H1188 0.929 . S
C1196 C1197 1.377 . S
C1196 C1198 1.384 . S
C1197 C1196 1.377 . S
C1197 C1203 1.390 . S
C1198 H1189 0.930 . S
C1198 C1196 1.384 . S
C1198 C1199 1.372 . S
C1199 C1198 1.372 . S
C1199 C1200 1.400 . S
C1199 C1204 1.490 . S
C1200 H1190 0.930 . S
C1200 C1199 1.400 . S
C1200 C1203 1.386 . S
H1201 C1217 0.930 . S
H1202 C1218 0.931 . S
C1203 H1191 0.929 . S
C1203 C1197 1.390 . S
C1203 C1200 1.386 . S
C1204 C1199 1.490 . S
C1204 C1206 1.395 . S
C1204 C1207 1.403 . S
H1205 C1211 0.930 . S
C1206 H1192 0.930 . S
C1206 C1204 1.395 . S
C1206 C1209 1.403 . S
C1207 C1204 1.403 . S
C1207 C1208 1.524 . S
C1207 C1211 1.400 . S
C1208 H1193 0.960 . S
C1208 H1194 0.960 . S
C1208 H1195 0.960 . S
C1208 C1207 1.524 . S
C1209 C1206 1.403 . S
C1209 C1210 1.392 . S
C1209 C1213 1.495 . S
C1210 C1209 1.392 . S
C1210 C1211 1.385 . S
C1210 C1212 1.478 . S
C1211 H1205 0.930 . S
C1211 C1207 1.400 . S
C1211 C1210 1.385 . S
C1212 C1210 1.478 . S
C1212 C1214 1.381 . S
C1212 C1218 1.383 . S
C1213 C1209 1.495 . S
C1213 H1219 0.959 . S
C1213 H1220 0.961 . S
C1213 H1221 0.960 . S
C1214 C1212 1.381 . S
C1214 C1215 1.394 . S
C1214 H1222 0.930 . S
C1215 C1214 1.394 . S
C1215 C1216 1.383 . S
C1215 H1223 0.929 . S
C1216 C1215 1.383 . S
C1216 C1217 1.377 . S
C1217 H1201 0.930 . S
C1217 C1216 1.377 . S
C1217 C1218 1.379 . S
C1218 H1202 0.931 . S
C1218 C1212 1.383 . S
C1218 C1217 1.379 . S
H1219 C1213 0.959 . S
H1220 C1213 0.961 . S
H1221 C1213 0.960 . S
H1222 C1214 0.930 . S
H1223 C1215 0.929 . S
H1224 C1232 0.937 . S
H1225 C1234 0.930 . S
H1226 C1236 0.930 . S
H1227 C1239 0.929 . S
H1228 C1242 0.930 . S
H1229 C1244 0.960 . S
H1230 C1244 0.960 1_554 S
H1231 C1244 0.960 . S
C1232 H1224 0.937 . S
C1232 C1233 1.370 1_564 S
C1232 C1234 1.384 1_564 S
C1233 C1232 1.370 1_546 S
C1233 C1239 1.390 . S
C1234 H1225 0.930 . S
C1234 C1232 1.384 1_546 S
C1234 C1235 1.372 . S
C1235 C1234 1.372 . S
C1235 C1236 1.400 . S
C1235 C1240 1.490 . S
C1236 H1226 0.930 . S
C1236 C1235 1.400 . S
C1236 C1239 1.386 . S
H1237 C1253 0.930 . S
H1238 C1254 0.931 . S
C1239 H1227 0.929 . S
C1239 C1233 1.390 . S
C1239 C1236 1.386 . S
C1240 C1235 1.490 . S
C1240 C1242 1.395 . S
C1240 C1243 1.403 . S
H1241 C1247 0.930 . S
C1242 H1228 0.930 . S
C1242 C1240 1.395 . S
C1242 C1245 1.403 . S
C1243 C1240 1.403 . S
C1243 C1244 1.524 . S
C1243 C1247 1.400 . S
C1244 H1229 0.960 . S
C1244 H1230 0.960 1_556 S
C1244 H1231 0.960 . S
C1244 C1243 1.524 . S
C1245 C1242 1.403 . S
C1245 C1246 1.392 . S
C1245 C1249 1.495 . S
C1246 C1245 1.392 . S
C1246 C1247 1.385 . S
C1246 C1248 1.478 . S
C1247 H1241 0.930 . S
C1247 C1243 1.400 . S
C1247 C1246 1.385 . S
C1248 C1246 1.478 . S
C1248 C1250 1.381 . S
C1248 C1254 1.383 . S
C1249 C1245 1.495 . S
C1249 H1255 0.959 . S
C1249 H1256 0.961 . S
C1249 H1257 0.960 . S
C1250 C1248 1.381 . S
C1250 C1251 1.394 . S
C1250 H1258 0.930 . S
C1251 C1250 1.394 . S
C1251 C1252 1.383 . S
C1251 H1259 0.929 . S
C1252 C1251 1.383 . S
C1252 C1253 1.377 . S
C1253 H1237 0.930 . S
C1253 C1252 1.377 . S
C1253 C1254 1.379 . S
C1254 H1238 0.931 . S
C1254 C1248 1.383 . S
C1254 C1253 1.379 . S
H1255 C1249 0.959 . S
H1256 C1249 0.961 . S
H1257 C1249 0.960 . S
H1258 C1250 0.930 . S
H1259 C1251 0.929 . S
H1260 C1268 0.929 . S
H1261 C1270 0.930 . S
H1262 C1272 0.930 . S
H1263 C1275 0.929 . S
H1264 C1278 0.930 . S
H1265 C1280 0.960 . S
H1266 C1280 0.960 . S
H1267 C1280 0.960 . S
C1268 H1260 0.929 . S
C1268 C1269 1.377 . S
C1268 C1270 1.384 . S
C1269 C1268 1.377 . S
C1269 C1275 1.390 . S
C1270 H1261 0.930 . S
C1270 C1268 1.384 . S
C1270 C1271 1.372 . S
C1271 C1270 1.372 . S
C1271 C1272 1.400 . S
C1271 C1276 1.490 . S
C1272 H1262 0.930 . S
C1272 C1271 1.400 . S
C1272 C1275 1.386 . S
H1273 C1289 0.930 . S
H1274 C1290 0.931 . S
C1275 H1263 0.929 . S
C1275 C1269 1.390 . S
C1275 C1272 1.386 . S
C1276 C1271 1.490 . S
C1276 C1278 1.395 . S
C1276 C1279 1.403 . S
H1277 C1283 0.930 . S
C1278 H1264 0.930 . S
C1278 C1276 1.395 . S
C1278 C1281 1.403 . S
C1279 C1276 1.403 . S
C1279 C1280 1.524 . S
C1279 C1283 1.400 . S
C1280 H1265 0.960 . S
C1280 H1266 0.960 . S
C1280 H1267 0.960 . S
C1280 C1279 1.524 . S
C1281 C1278 1.403 . S
C1281 C1282 1.392 . S
C1281 C1285 1.495 1_556 S
C1282 C1281 1.392 . S
C1282 C1283 1.385 . S
C1282 C1284 1.478 . S
C1283 H1277 0.930 . S
C1283 C1279 1.400 . S
C1283 C1282 1.385 . S
C1284 C1282 1.478 . S
C1284 C1286 1.381 1_556 S
C1284 C1290 1.383 . S
C1285 C1281 1.495 1_554 S
C1285 H1291 0.959 . S
C1285 H1292 0.961 . S
C1285 H1293 0.960 . S
C1286 C1284 1.381 1_554 S
C1286 C1287 1.394 . S
C1286 H1294 0.930 . S
C1287 C1286 1.394 . S
C1287 C1288 1.391 . S
C1287 H1295 0.929 . S
C1288 C1287 1.391 . S
C1288 C1289 1.364 1_554 S
C1289 H1273 0.930 . S
C1289 C1288 1.364 1_556 S
C1289 C1290 1.379 . S
C1290 H1274 0.931 . S
C1290 C1284 1.383 . S
C1290 C1289 1.379 . S
H1291 C1285 0.959 . S
H1292 C1285 0.961 . S
H1293 C1285 0.960 . S
H1294 C1286 0.930 . S
H1295 C1287 0.929 . S
H1296 C1304 0.929 . S
H1297 C1306 0.930 . S
H1298 C1308 0.930 . S
H1299 C1311 0.929 . S
H1300 C1314 0.930 . S
H1301 C1316 0.960 . S
H1302 C1316 0.960 . S
H1303 C1316 0.960 . S
C1304 H1296 0.929 . S
C1304 C1305 1.377 . S
C1304 C1306 1.384 . S
C1305 C1304 1.377 . S
C1305 C1311 1.390 . S
C1306 H1297 0.930 . S
C1306 C1304 1.384 . S
C1306 C1307 1.372 . S
C1307 C1306 1.372 . S
C1307 C1308 1.400 . S
C1307 C1312 1.490 . S
C1308 H1298 0.930 . S
C1308 C1307 1.400 . S
C1308 C1311 1.386 . S
H1309 C1325 0.930 . S
H1310 C1326 0.931 . S
C1311 H1299 0.929 . S
C1311 C1305 1.390 . S
C1311 C1308 1.386 . S
C1312 C1307 1.490 . S
C1312 C1314 1.395 . S
C1312 C1315 1.403 . S
H1313 C1319 0.930 . S
C1314 H1300 0.930 . S
C1314 C1312 1.395 . S
C1314 C1317 1.403 . S
C1315 C1312 1.403 . S
C1315 C1316 1.524 . S
C1315 C1319 1.400 . S
C1316 H1301 0.960 . S
C1316 H1302 0.960 . S
C1316 H1303 0.960 . S
C1316 C1315 1.524 . S
C1317 C1314 1.403 . S
C1317 C1318 1.392 . S
C1317 C1321 1.495 . S
C1318 C1317 1.392 . S
C1318 C1319 1.385 . S
C1318 C1320 1.478 . S
C1319 H1313 0.930 . S
C1319 C1315 1.400 . S
C1319 C1318 1.385 . S
C1320 C1318 1.478 . S
C1320 C1322 1.381 . S
C1320 C1326 1.383 1_556 S
C1321 C1317 1.495 . S
C1321 H1327 0.959 . S
C1321 H1328 0.961 . S
C1321 H1329 0.960 . S
C1322 C1320 1.381 . S
C1322 C1323 1.394 . S
C1322 H1330 0.930 . S
C1323 C1322 1.394 . S
C1323 C1324 1.383 . S
C1323 H1331 0.929 . S
C1324 C1323 1.383 . S
C1324 C1325 1.377 1_556 S
C1325 H1309 0.930 . S
C1325 C1324 1.377 1_554 S
C1325 C1326 1.379 . S
C1326 H1310 0.931 . S
C1326 C1320 1.383 1_554 S
C1326 C1325 1.379 . S
H1327 C1321 0.959 . S
H1328 C1321 0.961 . S
H1329 C1321 0.960 . S
H1330 C1322 0.930 . S
H1331 C1323 0.929 . S
H1332 C1340 0.929 . S
H1333 C1342 0.930 . S
H1334 C1344 0.930 . S
H1335 C1347 0.929 . S
H1336 C1350 0.930 . S
H1337 C1352 0.960 . S
H1338 C1352 0.960 . S
H1339 C1352 0.960 . S
C1340 H1332 0.929 . S
C1340 C1341 1.377 . S
C1340 C1342 1.384 . S
C1341 C1340 1.377 . S
C1341 C1347 1.390 . S
C1342 H1333 0.930 . S
C1342 C1340 1.384 . S
C1342 C1343 1.372 . S
C1343 C1342 1.372 . S
C1343 C1344 1.400 . S
C1343 C1348 1.490 . S
C1344 H1334 0.930 . S
C1344 C1343 1.400 . S
C1344 C1347 1.386 . S
H1345 C1361 0.930 . S
H1346 C1362 0.931 . S
C1347 H1335 0.929 . S
C1347 C1341 1.390 . S
C1347 C1344 1.386 . S
C1348 C1343 1.490 . S
C1348 C1350 1.395 . S
C1348 C1351 1.403 . S
H1349 C1355 0.930 . S
C1350 H1336 0.930 . S
C1350 C1348 1.395 . S
C1350 C1353 1.403 . S
C1351 C1348 1.403 . S
C1351 C1352 1.524 . S
C1351 C1355 1.400 . S
C1352 H1337 0.960 . S
C1352 H1338 0.960 . S
C1352 H1339 0.960 . S
C1352 C1351 1.524 . S
C1353 C1350 1.403 . S
C1353 C1354 1.392 . S
C1353 C1357 1.495 . S
C1354 C1353 1.392 . S
C1354 C1355 1.385 . S
C1354 C1356 1.478 . S
C1355 H1349 0.930 . S
C1355 C1351 1.400 . S
C1355 C1354 1.385 . S
C1356 C1354 1.478 . S
C1356 C1358 1.381 . S
C1356 C1362 1.383 . S
C1357 C1353 1.495 . S
C1357 H1363 0.959 . S
C1357 H1364 0.961 . S
C1357 H1365 0.960 . S
C1358 C1356 1.381 . S
C1358 C1359 1.394 . S
C1358 H1366 0.930 . S
C1359 C1358 1.394 . S
C1359 C1360 1.383 . S
C1359 H1367 0.929 . S
C1360 C1359 1.383 . S
C1360 C1361 1.377 . S
C1361 H1345 0.930 . S
C1361 C1360 1.377 . S
C1361 C1362 1.379 . S
C1362 H1346 0.931 . S
C1362 C1356 1.383 . S
C1362 C1361 1.379 . S
H1363 C1357 0.959 . S
H1364 C1357 0.961 . S
H1365 C1357 0.960 . S
H1366 C1358 0.930 . S
H1367 C1359 0.929 . S
H1368 C1376 0.929 . S
H1369 C1378 0.930 . S
H1370 C1380 0.930 . S
H1371 C1383 0.929 . S
H1372 C1386 0.930 . S
H1373 C1388 0.960 . S
H1374 C1388 0.960 . S
H1375 C1388 0.960 . S
C1376 H1368 0.929 . S
C1376 C1377 1.377 . S
C1376 C1378 1.384 . S
C1377 C1376 1.377 . S
C1377 C1383 1.390 . S
C1378 H1369 0.930 . S
C1378 C1376 1.384 . S
C1378 C1379 1.372 . S
C1379 C1378 1.372 . S
C1379 C1380 1.400 . S
C1379 C1384 1.490 . S
C1380 H1370 0.930 . S
C1380 C1379 1.400 . S
C1380 C1383 1.386 . S
H1381 C1397 0.930 . S
H1382 C1398 0.931 . S
C1383 H1371 0.929 . S
C1383 C1377 1.390 . S
C1383 C1380 1.386 . S
C1384 C1379 1.490 . S
C1384 C1386 1.395 . S
C1384 C1387 1.403 . S
H1385 C1391 0.930 . S
C1386 H1372 0.930 . S
C1386 C1384 1.395 . S
C1386 C1389 1.403 . S
C1387 C1384 1.403 . S
C1387 C1388 1.524 . S
C1387 C1391 1.400 . S
C1388 H1373 0.960 . S
C1388 H1374 0.960 . S
C1388 H1375 0.960 . S
C1388 C1387 1.524 . S
C1389 C1386 1.403 . S
C1389 C1390 1.392 . S
C1389 C1393 1.495 . S
C1390 C1389 1.392 . S
C1390 C1391 1.385 . S
C1390 C1392 1.478 . S
C1391 H1385 0.930 . S
C1391 C1387 1.400 . S
C1391 C1390 1.385 . S
C1392 C1390 1.478 . S
C1392 C1394 1.381 . S
C1392 C1398 1.383 . S
C1393 C1389 1.495 . S
C1393 H1399 0.959 . S
C1393 H1400 0.961 . S
C1393 H1401 0.960 . S
C1394 C1392 1.381 . S
C1394 C1395 1.394 . S
C1394 H1402 0.930 . S
C1395 C1394 1.394 . S
C1395 C1396 1.383 . S
C1395 H1403 0.929 . S
C1396 C1395 1.383 . S
C1396 C1397 1.377 . S
C1397 H1381 0.930 . S
C1397 C1396 1.377 . S
C1397 C1398 1.379 . S
C1398 H1382 0.931 . S
C1398 C1392 1.383 . S
C1398 C1397 1.379 . S
H1399 C1393 0.959 . S
H1400 C1393 0.961 . S
H1401 C1393 0.960 . S
H1402 C1394 0.930 . S
H1403 C1395 0.929 . S
H1404 C1412 0.929 . S
H1405 C1414 0.930 . S
H1406 C1416 0.930 . S
H1407 C1419 0.929 . S
H1408 C1422 0.930 . S
H1409 C1424 0.960 . S
H1410 C1424 0.960 . S
H1411 C1424 0.960 . S
C1412 H1404 0.929 . S
C1412 C1413 1.377 . S
C1412 C1414 1.384 . S
C1413 C1412 1.377 . S
C1413 C1419 1.390 . S
C1414 H1405 0.930 . S
C1414 C1412 1.384 . S
C1414 C1415 1.372 . S
C1415 C1414 1.372 . S
C1415 C1416 1.400 . S
C1415 C1420 1.490 . S
C1416 H1406 0.930 . S
C1416 C1415 1.400 . S
C1416 C1419 1.386 . S
H1417 C1433 0.930 . S
H1418 C1434 0.931 . S
C1419 H1407 0.929 . S
C1419 C1413 1.390 . S
C1419 C1416 1.386 . S
C1420 C1415 1.490 . S
C1420 C1422 1.395 . S
C1420 C1423 1.403 . S
H1421 C1427 0.930 . S
C1422 H1408 0.930 . S
C1422 C1420 1.395 . S
C1422 C1425 1.403 . S
C1423 C1420 1.403 . S
C1423 C1424 1.524 . S
C1423 C1427 1.400 . S
C1424 H1409 0.960 . S
C1424 H1410 0.960 . S
C1424 H1411 0.960 . S
C1424 C1423 1.524 . S
C1425 C1422 1.403 . S
C1425 C1426 1.392 . S
C1425 C1429 1.495 . S
C1426 C1425 1.392 . S
C1426 C1427 1.385 . S
C1426 C1428 1.478 . S
C1427 H1421 0.930 . S
C1427 C1423 1.400 . S
C1427 C1426 1.385 . S
C1428 C1426 1.478 . S
C1428 C1430 1.381 . S
C1428 C1434 1.383 . S
C1429 C1425 1.495 . S
C1429 H1435 0.959 . S
C1429 H1436 0.961 . S
C1429 H1437 0.960 . S
C1430 C1428 1.381 . S
C1430 C1431 1.394 . S
C1430 H1438 0.930 . S
C1431 C1430 1.394 . S
C1431 C1432 1.383 . S
C1431 H1439 0.929 . S
C1432 C1431 1.383 . S
C1432 C1433 1.377 . S
C1433 H1417 0.930 . S
C1433 C1432 1.377 . S
C1433 C1434 1.379 . S
C1434 H1418 0.931 . S
C1434 C1428 1.383 . S
C1434 C1433 1.379 . S
H1435 C1429 0.959 . S
H1436 C1429 0.961 . S
H1437 C1429 0.960 . S
H1438 C1430 0.930 . S
H1439 C1431 0.929 . S
H1440 C1448 0.929 . S
H1441 C1450 0.930 . S
H1442 C1452 0.930 . S
H1443 C1455 0.929 . S
H1444 C1458 0.930 . S
H1445 C1460 0.960 . S
H1446 C1460 0.960 . S
H1447 C1460 0.960 . S
C1448 H1440 0.929 . S
C1448 C1449 1.377 . S
C1448 C1450 1.384 . S
C1449 C1448 1.377 . S
C1449 C1455 1.390 . S
C1450 H1441 0.930 . S
C1450 C1448 1.384 . S
C1450 C1451 1.372 . S
C1451 C1450 1.372 . S
C1451 C1452 1.400 . S
C1451 C1456 1.490 . S
C1452 H1442 0.930 . S
C1452 C1451 1.400 . S
C1452 C1455 1.386 . S
H1453 C1469 0.930 . S
H1454 C1470 0.931 . S
C1455 H1443 0.929 . S
C1455 C1449 1.390 . S
C1455 C1452 1.386 . S
C1456 C1451 1.490 . S
C1456 C1458 1.395 . S
C1456 C1459 1.403 . S
H1457 C1463 0.930 . S
C1458 H1444 0.930 . S
C1458 C1456 1.395 . S
C1458 C1461 1.403 . S
C1459 C1456 1.403 . S
C1459 C1460 1.524 . S
C1459 C1463 1.400 . S
C1460 H1445 0.960 . S
C1460 H1446 0.960 . S
C1460 H1447 0.960 . S
C1460 C1459 1.524 . S
C1461 C1458 1.403 . S
C1461 C1462 1.392 . S
C1461 C1465 1.495 . S
C1462 C1461 1.392 . S
C1462 C1463 1.385 . S
C1462 C1464 1.478 . S
C1463 H1457 0.930 . S
C1463 C1459 1.400 . S
C1463 C1462 1.385 . S
C1464 C1462 1.478 . S
C1464 C1466 1.381 . S
C1464 C1470 1.383 . S
C1465 C1461 1.495 . S
C1465 H1471 0.959 . S
C1465 H1472 0.961 . S
C1465 H1473 0.960 . S
C1466 C1464 1.381 . S
C1466 C1467 1.394 . S
C1466 H1474 0.930 . S
C1467 C1466 1.394 . S
C1467 C1468 1.383 . S
C1467 H1475 0.929 . S
C1468 C1467 1.383 . S
C1468 C1469 1.377 . S
C1469 H1453 0.930 . S
C1469 C1468 1.377 . S
C1469 C1470 1.379 . S
C1470 H1454 0.931 . S
C1470 C1464 1.383 . S
C1470 C1469 1.379 . S
H1471 C1465 0.959 . S
H1472 C1465 0.961 . S
H1473 C1465 0.960 . S
H1474 C1466 0.930 . S
H1475 C1467 0.929 . S
H1476 C1484 0.929 . S
H1477 C1486 0.930 . S
H1478 C1488 0.930 . S
H1479 C1491 0.929 . S
H1480 C1494 0.930 . S
H1481 C1496 0.960 . S
H1482 C1496 0.960 . S
H1483 C1496 0.960 . S
C1484 H1476 0.929 . S
C1484 C1485 1.377 . S
C1484 C1486 1.384 . S
C1485 C1484 1.377 . S
C1485 C1491 1.390 . S
C1486 H1477 0.930 . S
C1486 C1484 1.384 . S
C1486 C1487 1.372 . S
C1487 C1486 1.372 . S
C1487 C1488 1.400 . S
C1487 C1492 1.490 . S
C1488 H1478 0.930 . S
C1488 C1487 1.400 . S
C1488 C1491 1.386 . S
H1489 C1505 0.930 . S
H1490 C1506 0.931 . S
C1491 H1479 0.929 . S
C1491 C1485 1.390 . S
C1491 C1488 1.386 . S
C1492 C1487 1.490 . S
C1492 C1494 1.395 . S
C1492 C1495 1.403 . S
H1493 C1499 0.930 . S
C1494 H1480 0.930 . S
C1494 C1492 1.395 . S
C1494 C1497 1.403 . S
C1495 C1492 1.403 . S
C1495 C1496 1.524 . S
C1495 C1499 1.400 . S
C1496 H1481 0.960 . S
C1496 H1482 0.960 . S
C1496 H1483 0.960 . S
C1496 C1495 1.524 . S
C1497 C1494 1.403 . S
C1497 C1498 1.392 . S
C1497 C1501 1.495 . S
C1498 C1497 1.392 . S
C1498 C1499 1.385 . S
C1498 C1500 1.478 . S
C1499 H1493 0.930 . S
C1499 C1495 1.400 . S
C1499 C1498 1.385 . S
C1500 C1498 1.478 . S
C1500 C1502 1.381 . S
C1500 C1506 1.383 . S
C1501 C1497 1.495 . S
C1501 H1507 0.959 . S
C1501 H1508 0.961 . S
C1501 H1509 0.960 . S
C1502 C1500 1.381 . S
C1502 C1503 1.394 . S
C1502 H1510 0.930 . S
C1503 C1502 1.394 . S
C1503 C1504 1.383 . S
C1503 H1511 0.929 . S
C1504 C1503 1.383 . S
C1504 C1505 1.377 . S
C1505 H1489 0.930 . S
C1505 C1504 1.377 . S
C1505 C1506 1.379 . S
C1506 H1490 0.931 . S
C1506 C1500 1.383 . S
C1506 C1505 1.379 . S
H1507 C1501 0.959 . S
H1508 C1501 0.961 . S
H1509 C1501 0.960 . S
H1510 C1502 0.930 . S
H1511 C1503 0.929 . S
H1512 C1520 0.929 . S
H1513 C1522 0.930 . S
H1514 C1524 0.930 . S
H1515 C1527 0.929 . S
H1516 C1530 0.930 . S
H1517 C1532 0.960 . S
H1518 C1532 0.960 . S
H1519 C1532 0.960 . S
C1520 H1512 0.929 . S
C1520 C1521 1.377 . S
C1520 C1522 1.384 . S
C1521 C1520 1.377 . S
C1521 C1527 1.390 . S
C1522 H1513 0.930 . S
C1522 C1520 1.384 . S
C1522 C1523 1.372 . S
C1523 C1522 1.372 . S
C1523 C1524 1.400 . S
C1523 C1528 1.490 . S
C1524 H1514 0.930 . S
C1524 C1523 1.400 . S
C1524 C1527 1.386 . S
H1525 C1541 0.930 . S
H1526 C1542 0.931 . S
C1527 H1515 0.929 . S
C1527 C1521 1.390 . S
C1527 C1524 1.386 . S
C1528 C1523 1.490 . S
C1528 C1530 1.395 . S
C1528 C1531 1.403 . S
H1529 C1535 0.930 . S
C1530 H1516 0.930 . S
C1530 C1528 1.395 . S
C1530 C1533 1.403 . S
C1531 C1528 1.403 . S
C1531 C1532 1.524 . S
C1531 C1535 1.400 . S
C1532 H1517 0.960 . S
C1532 H1518 0.960 . S
C1532 H1519 0.960 . S
C1532 C1531 1.524 . S
C1533 C1530 1.403 . S
C1533 C1534 1.392 . S
C1533 C1537 1.495 . S
C1534 C1533 1.392 . S
C1534 C1535 1.385 . S
C1534 C1536 1.478 . S
C1535 H1529 0.930 . S
C1535 C1531 1.400 . S
C1535 C1534 1.385 . S
C1536 C1534 1.478 . S
C1536 C1538 1.381 . S
C1536 C1542 1.383 . S
C1537 C1533 1.495 . S
C1537 H1543 0.959 . S
C1537 H1544 0.961 . S
C1537 H1545 0.960 . S
C1538 C1536 1.381 . S
C1538 C1539 1.394 . S
C1538 H1546 0.930 . S
C1539 C1538 1.394 . S
C1539 C1540 1.383 . S
C1539 H1547 0.929 . S
C1540 C1539 1.383 . S
C1540 C1541 1.377 . S
C1541 H1525 0.930 . S
C1541 C1540 1.377 . S
C1541 C1542 1.379 . S
C1542 H1526 0.931 . S
C1542 C1536 1.383 . S
C1542 C1541 1.379 . S
H1543 C1537 0.959 . S
H1544 C1537 0.961 . S
H1545 C1537 0.960 . S
H1546 C1538 0.930 . S
H1547 C1539 0.929 . S
C261 C43 1.917 . S
C280 C13 1.908 . S
C297 C68 1.922 . S
C316 C15 1.908 . S
C333 C29 1.918 . S
C352 C83 1.899 . S
C369 C40 1.922 . S
C388 C70 1.932 . S
C405 C0 1.918 . S
C424 C54 1.904 . S
C441 C57 1.916 . S
C460 C26 1.908 . S
C477 C138 1.922 . S
C496 C97 1.905 . S
C513 C99 1.923 . S
C532 C152 1.932 . S
C549 C124 1.915 . S
C568 C155 1.912 . S
C585 C166 1.925 1_556 S
C604 C113 1.930 . S
C621 C127 1.921 1_556 S
C640 C84 1.920 . S
C657 C141 1.916 1_556 S
C676 C110 1.900 . S
C693 C181 1.925 . S
C712 C211 1.914 . S
C729 C183 1.918 . S
C748 C236 1.904 . S
C765 C197 1.923 . S
C784 C239 1.925 . S
C801 C250 1.920 . S
C820 C208 1.901 1_554 S
C837 C222 1.919 . S
C856 C168 1.899 1_554 S
C873 C225 1.921 . S
C892 C194 1.906 1_554 S
C909 C12 1.607 . S
C928 C111 1.621 . S
C945 C14 1.608 . S
C964 C112 1.614 . S
C981 C85 1.613 1_545 S
C1000 C28 1.596 . S
C1017 C41 1.613 . S
C1036 C182 1.604 1_554 S
C1053 C196 1.608 1_454 S
C1072 C1 1.614 . S
C1089 C180 1.608 1_554 S
C1108 C27 1.621 . S
C1125 C224 1.611 1_455 S
C1144 C42 1.614 . S
C1161 C69 1.612 . S
C1180 C251 1.608 . S
C1197 C223 1.610 . S
C1216 C82 1.599 . S
C1233 C153 1.608 1_546 S
C1252 C71 1.593 . S
C1269 C55 1.608 . S
C1288 C154 1.616 . S
C1305 C56 1.612 . S
C1324 C139 1.599 1_556 S
C1341 C96 1.607 . S
C1360 C195 1.621 . S
C1377 C98 1.611 . S
C1396 C209 1.600 . S
C1413 C125 1.614 . S
C1432 C169 1.595 . S
C1449 C237 1.613 . S
C1468 C167 1.620 . S
C1485 C238 1.611 . S
C1504 C126 1.597 . S
C1521 C140 1.610 . S
C1540 C210 1.612 . S
