# Generated by pormake.
# Topology zfq, (5)-cn, num edge types: 1
# Building blocks:
#     Node 0, Type 0, BuildingBlock: BEQFEK_clean_sbu_0, # of connection points: 5
#     Node 1, Type 0, BuildingBlock: BEQFEK_clean_sbu_0, # of connection points: 5
#     Node 2, Type 0, BuildingBlock: BEQFEK_clean_sbu_0, # of connection points: 5
#     Node 3, Type 0, BuildingBlock: BEQFEK_clean_sbu_0, # of connection points: 5
#     Node 4, Type 0, BuildingBlock: BEQFEK_clean_sbu_0, # of connection points: 5
#     Node 5, Type 0, BuildingBlock: BEQFEK_clean_sbu_0, # of connection points: 5
#     Node 6, Type 0, BuildingBlock: BEQFEK_clean_sbu_0, # of connection points: 5
#     Node 7, Type 0, BuildingBlock: BEQFEK_clean_sbu_0, # of connection points: 5
#     Node 8, Type 0, BuildingBlock: BEQFEK_clean_sbu_0, # of connection points: 5
#     Node 9, Type 0, BuildingBlock: BEQFEK_clean_sbu_0, # of connection points: 5
#     Node 10, Type 0, BuildingBlock: BEQFEK_clean_sbu_0, # of connection points: 5
#     Node 11, Type 0, BuildingBlock: BEQFEK_clean_sbu_0, # of connection points: 5
#     Node 12, Type 0, BuildingBlock: BEQFEK_clean_sbu_0, # of connection points: 5
#     Node 13, Type 0, BuildingBlock: BEQFEK_clean_sbu_0, # of connection points: 5
#     Node 14, Type 0, BuildingBlock: BEQFEK_clean_sbu_0, # of connection points: 5
#     Node 15, Type 0, BuildingBlock: BEQFEK_clean_sbu_0, # of connection points: 5
#     Edge 16, Type (0, 0), BuildingBlock: MIFKUJ_clean_linker_0, # of connection points: 2
#     Edge 17, Type (0, 0), BuildingBlock: MIFKUJ_clean_linker_0, # of connection points: 2
#     Edge 18, Type (0, 0), BuildingBlock: MIFKUJ_clean_linker_0, # of connection points: 2
#     Edge 19, Type (0, 0), BuildingBlock: MIFKUJ_clean_linker_0, # of connection points: 2
#     Edge 20, Type (0, 0), BuildingBlock: MIFKUJ_clean_linker_0, # of connection points: 2
#     Edge 21, Type (0, 0), BuildingBlock: MIFKUJ_clean_linker_0, # of connection points: 2
#     Edge 22, Type (0, 0), BuildingBlock: MIFKUJ_clean_linker_0, # of connection points: 2
#     Edge 23, Type (0, 0), BuildingBlock: MIFKUJ_clean_linker_0, # of connection points: 2
#     Edge 24, Type (0, 0), BuildingBlock: MIFKUJ_clean_linker_0, # of connection points: 2
#     Edge 25, Type (0, 0), BuildingBlock: MIFKUJ_clean_linker_0, # of connection points: 2
#     Edge 26, Type (0, 0), BuildingBlock: MIFKUJ_clean_linker_0, # of connection points: 2
#     Edge 27, Type (0, 0), BuildingBlock: MIFKUJ_clean_linker_0, # of connection points: 2
#     Edge 28, Type (0, 0), BuildingBlock: MIFKUJ_clean_linker_0, # of connection points: 2
#     Edge 29, Type (0, 0), BuildingBlock: MIFKUJ_clean_linker_0, # of connection points: 2
#     Edge 30, Type (0, 0), BuildingBlock: MIFKUJ_clean_linker_0, # of connection points: 2
#     Edge 31, Type (0, 0), BuildingBlock: MIFKUJ_clean_linker_0, # of connection points: 2
#     Edge 32, Type (0, 0), BuildingBlock: MIFKUJ_clean_linker_0, # of connection points: 2
#     Edge 33, Type (0, 0), BuildingBlock: MIFKUJ_clean_linker_0, # of connection points: 2
#     Edge 34, Type (0, 0), BuildingBlock: MIFKUJ_clean_linker_0, # of connection points: 2
#     Edge 35, Type (0, 0), BuildingBlock: MIFKUJ_clean_linker_0, # of connection points: 2
#     Edge 36, Type (0, 0), BuildingBlock: MIFKUJ_clean_linker_0, # of connection points: 2
#     Edge 37, Type (0, 0), BuildingBlock: MIFKUJ_clean_linker_0, # of connection points: 2
#     Edge 38, Type (0, 0), BuildingBlock: MIFKUJ_clean_linker_0, # of connection points: 2
#     Edge 39, Type (0, 0), BuildingBlock: MIFKUJ_clean_linker_0, # of connection points: 2
#     Edge 40, Type (0, 0), BuildingBlock: MIFKUJ_clean_linker_0, # of connection points: 2
#     Edge 41, Type (0, 0), BuildingBlock: MIFKUJ_clean_linker_0, # of connection points: 2
#     Edge 42, Type (0, 0), BuildingBlock: MIFKUJ_clean_linker_0, # of connection points: 2
#     Edge 43, Type (0, 0), BuildingBlock: MIFKUJ_clean_linker_0, # of connection points: 2
#     Edge 44, Type (0, 0), BuildingBlock: MIFKUJ_clean_linker_0, # of connection points: 2
#     Edge 45, Type (0, 0), BuildingBlock: MIFKUJ_clean_linker_0, # of connection points: 2
#     Edge 46, Type (0, 0), BuildingBlock: MIFKUJ_clean_linker_0, # of connection points: 2
#     Edge 47, Type (0, 0), BuildingBlock: MIFKUJ_clean_linker_0, # of connection points: 2
#     Edge 48, Type (0, 0), BuildingBlock: MIFKUJ_clean_linker_0, # of connection points: 2
#     Edge 49, Type (0, 0), BuildingBlock: MIFKUJ_clean_linker_0, # of connection points: 2
#     Edge 50, Type (0, 0), BuildingBlock: MIFKUJ_clean_linker_0, # of connection points: 2
#     Edge 51, Type (0, 0), BuildingBlock: MIFKUJ_clean_linker_0, # of connection points: 2
#     Edge 52, Type (0, 0), BuildingBlock: MIFKUJ_clean_linker_0, # of connection points: 2
#     Edge 53, Type (0, 0), BuildingBlock: MIFKUJ_clean_linker_0, # of connection points: 2
#     Edge 54, Type (0, 0), BuildingBlock: MIFKUJ_clean_linker_0, # of connection points: 2
#     Edge 55, Type (0, 0), BuildingBlock: MIFKUJ_clean_linker_0, # of connection points: 2
# Relax obj value: 0.130
# Max RMSD: 0.183
# Mean RMSD: 0.183
data_MOF--net-zfq--node1-BEQFEK_clean_sbu_0--edge1-MIFKUJ_clean_linker_0
_symmetry_space_group_name_H-M    P1
_symmetry_Int_Tables_number       1
_symmetry_cell_setting            triclinic
loop_
_symmetry_equiv_pos_as_xyz
'x, y, z'
_cell_length_a     37.356289
_cell_length_b     37.360234
_cell_length_c     93.918446
_cell_angle_alpha  89.997073
_cell_angle_beta   89.996992
_cell_angle_gamma 89.980688
loop_
_atom_site_label
_atom_site_type_symbol
_atom_site_fract_x
_atom_site_fract_y
_atom_site_fract_z
_atom_type_partial_charge
Co0 Co 0.17518 0.17905 0.14521 0.0
Co1 Co 0.174 0.17857 0.11168 0.0
C2 C 0.13508 0.23457 0.12816 0.0
O3 O 0.14509 0.22079 0.13992 0.0
O4 O 0.14506 0.22153 0.11626 0.0
C5 C 0.1657 0.19736 0.17481 0.0
O6 O 0.13915 0.217 0.17001 0.0
C7 C 0.18539 0.20112 0.08192 0.0
C8 C 0.18731 0.14877 0.07099 0.0
C9 C 0.19001 0.18529 0.06865 0.0
N10 N 0.18027 0.17506 0.09159 0.0
N11 N 0.18111 0.14389 0.08495 0.0
C12 C 0.18847 0.23992 0.08563 0.0
H13 H 0.19636 0.2431 0.09695 0.0
H14 H 0.20831 0.25338 0.07865 0.0
H15 H 0.16206 0.25295 0.08408 0.0
C16 C 0.25311 0.17841 0.13983 0.0
N17 N 0.21905 0.1791 0.13517 0.0
N18 N 0.21889 0.17894 0.12116 0.0
C19 C 0.25299 0.17809 0.11645 0.0
C20 C 0.27575 0.1776 0.12813 0.0
C21 C 0.2635 0.18007 0.15522 0.0
H22 H 0.24923 0.20258 0.16042 0.0
H23 H 0.29274 0.18381 0.1566 0.0
H24 H 0.25509 0.15495 0.16056 0.0
O25 O 0.14748 0.13524 0.14096 0.0
O26 O 0.1458 0.13609 0.11734 0.0
H27 H 0.24894 0.15346 0.09596 0.0
H28 H 0.29265 0.17144 0.09977 0.0
C29 C 0.26347 0.17584 0.10109 0.0
H30 H 0.25579 0.20102 0.09564 0.0
H31 H 0.1781 0.1192 0.09002 0.0
O32 O 0.18441 0.17935 0.16606 0.0
C33 C 0.13726 0.12184 0.12918 0.0
Co34 Co 0.18731 0.82448 0.85268 0.0
Co35 Co 0.19016 0.82592 0.88626 0.0
C36 C 0.24514 0.86353 0.8691 0.0
O37 O 0.23016 0.85345 0.85759 0.0
O38 O 0.23301 0.85399 0.88118 0.0
C39 C 0.21447 0.80236 0.82542 0.0
O40 O 0.24154 0.79023 0.83294 0.0
C41 C 0.2118 0.81673 0.9167 0.0
C42 C 0.15852 0.81242 0.92677 0.0
C43 C 0.19481 0.81181 0.92975 0.0
N44 N 0.18655 0.81958 0.9065 0.0
N45 N 0.15483 0.81717 0.91265 0.0
C46 C 0.25118 0.81989 0.91403 0.0
H47 H 0.25645 0.8383 0.90506 0.0
H48 H 0.26208 0.79321 0.91119 0.0
H49 H 0.26531 0.82986 0.92364 0.0
C50 C 0.17973 0.7467 0.85841 0.0
N51 N 0.18538 0.78059 0.86276 0.0
N52 N 0.18869 0.78098 0.87672 0.0
C53 C 0.18658 0.74715 0.88163 0.0
C54 C 0.18047 0.72426 0.87021 0.0
C55 C 0.17009 0.7366 0.84347 0.0
H56 H 0.15525 0.75872 0.83826 0.0
H57 H 0.19493 0.73137 0.83734 0.0
H58 H 0.15335 0.71207 0.84327 0.0
O59 O 0.14497 0.85355 0.85719 0.0
O60 O 0.14807 0.85561 0.88079 0.0
H61 H 0.16727 0.74281 0.90299 0.0
H62 H 0.19878 0.70819 0.89805 0.0
C63 C 0.19203 0.73696 0.8969 0.0
H64 H 0.21415 0.75294 0.90146 0.0
H65 H 0.13057 0.81855 0.90717 0.0
O66 O 0.1883 0.81716 0.83176 0.0
C67 C 0.13306 0.86446 0.86912 0.0
Co68 Co 0.81113 0.8101 0.14736 0.0
Co69 Co 0.81217 0.80856 0.11372 0.0
C70 C 0.84557 0.75005 0.13103 0.0
O71 O 0.83659 0.76511 0.14268 0.0
O72 O 0.83727 0.76364 0.119 0.0
C73 C 0.80327 0.78627 0.17654 0.0
O74 O 0.80766 0.75408 0.17119 0.0
C75 C 0.81224 0.78941 0.08293 0.0
C76 C 0.78824 0.83826 0.07374 0.0
C77 C 0.80092 0.80458 0.07013 0.0
N78 N 0.80539 0.81268 0.09354 0.0
N79 N 0.79177 0.84206 0.08789 0.0
C80 C 0.83293 0.75553 0.08498 0.0
H81 H 0.85436 0.7601 0.09292 0.0
H82 H 0.81481 0.73438 0.08909 0.0
H83 H 0.84564 0.74647 0.07494 0.0
C84 C 0.73325 0.81457 0.14204 0.0
N85 N 0.76729 0.81326 0.13735 0.0
N86 N 0.76736 0.81153 0.12335 0.0
C87 C 0.73319 0.81096 0.1187 0.0
C88 C 0.7105 0.81315 0.13039 0.0
C89 C 0.72299 0.81418 0.15745 0.0
H90 H 0.73557 0.83729 0.16292 0.0
H91 H 0.73342 0.78938 0.16244 0.0
H92 H 0.69356 0.8152 0.15894 0.0
O93 O 0.84381 0.84975 0.14248 0.0
O94 O 0.84429 0.84858 0.11888 0.0
H95 H 0.72627 0.83506 0.09831 0.0
H96 H 0.69396 0.80116 0.10204 0.0
C97 C 0.72246 0.80855 0.10337 0.0
H98 H 0.73942 0.78864 0.09779 0.0
H99 H 0.78448 0.86463 0.09376 0.0
O100 O 0.80323 0.81316 0.16825 0.0
C101 C 0.85503 0.86174 0.13062 0.0
Co102 Co 0.81084 0.18411 0.85667 0.0
Co103 Co 0.81832 0.18259 0.89007 0.0
C104 C 0.75771 0.14576 0.87475 0.0
O105 O 0.76851 0.15606 0.86255 0.0
O106 O 0.77425 0.15465 0.88608 0.0
C107 C 0.78293 0.18752 0.8278 0.0
O108 O 0.75268 0.17661 0.83345 0.0
C109 C 0.79748 0.19571 0.91981 0.0
C110 C 0.84945 0.191 0.93089 0.0
C111 C 0.8134 0.19766 0.93316 0.0
N112 N 0.82299 0.18823 0.91016 0.0
N113 N 0.85393 0.18519 0.91686 0.0
C114 C 0.75931 0.20308 0.91602 0.0
H115 H 0.75731 0.21203 0.90477 0.0
H116 H 0.74778 0.22371 0.92318 0.0
H117 H 0.74358 0.17806 0.9172 0.0
C118 C 0.81571 0.26202 0.86212 0.0
N119 N 0.81413 0.22795 0.86674 0.0
N120 N 0.81856 0.22742 0.88064 0.0
C121 C 0.8241 0.2611 0.88528 0.0
C122 C 0.82244 0.28424 0.8737 0.0
C123 C 0.80956 0.27288 0.84697 0.0
H124 H 0.78715 0.25712 0.84245 0.0
H125 H 0.80306 0.30177 0.84608 0.0
H126 H 0.83397 0.26702 0.84066 0.0
O127 O 0.85369 0.15383 0.86021 0.0
O128 O 0.85928 0.15361 0.88374 0.0
H129 H 0.84562 0.29758 0.9011 0.0
H130 H 0.81016 0.26837 0.90715 0.0
C131 C 0.83421 0.27027 0.90027 0.0
H132 H 0.85436 0.25091 0.9042 0.0
H133 H 0.87821 0.17955 0.91183 0.0
O134 O 0.8099 0.19272 0.83579 0.0
C135 C 0.86988 0.14383 0.87147 0.0
Co136 Co 0.81885 0.19705 0.64671 0.0
Co137 Co 0.82137 0.19187 0.6132 0.0
C138 C 0.85629 0.2522 0.62927 0.0
O139 O 0.84577 0.2405 0.6413 0.0
O140 O 0.84822 0.23607 0.61776 0.0
C141 C 0.83435 0.20517 0.67611 0.0
O142 O 0.86675 0.21057 0.6711 0.0
C143 C 0.80682 0.21268 0.5833 0.0
C144 C 0.81579 0.16132 0.5722 0.0
C145 C 0.80612 0.19667 0.56991 0.0
N146 N 0.81598 0.18772 0.59299 0.0
N147 N 0.82143 0.15717 0.58625 0.0
C148 C 0.80042 0.25126 0.5868 0.0
H149 H 0.81374 0.25866 0.59689 0.0
H150 H 0.77129 0.2559 0.58814 0.0
H151 H 0.81029 0.26873 0.57808 0.0
C152 C 0.74159 0.18868 0.64098 0.0
N153 N 0.77555 0.19253 0.63645 0.0
N154 N 0.77642 0.18955 0.62249 0.0
C155 C 0.74302 0.18303 0.61772 0.0
C156 C 0.71995 0.18231 0.62928 0.0
C157 C 0.7307 0.18881 0.65631 0.0
H158 H 0.74526 0.16726 0.66202 0.0
H159 H 0.73848 0.21469 0.66121 0.0
H160 H 0.70147 0.18466 0.65761 0.0
O161 O 0.85047 0.15528 0.64313 0.0
O162 O 0.85173 0.15168 0.61952 0.0
H163 H 0.7501 0.15568 0.59789 0.0
H164 H 0.70473 0.17081 0.60101 0.0
C165 C 0.73344 0.17749 0.6024 0.0
H166 H 0.7392 0.2023 0.59638 0.0
H167 H 0.82893 0.13337 0.59126 0.0
O168 O 0.809 0.199 0.66743 0.0
C169 C 0.86149 0.14046 0.63172 0.0
Co170 Co 0.18732 0.17773 0.35539 0.0
Co171 Co 0.18147 0.17989 0.38882 0.0
C172 C 0.24148 0.14179 0.37413 0.0
O173 O 0.23026 0.15097 0.36185 0.0
O174 O 0.22516 0.15135 0.38541 0.0
C175 C 0.20549 0.16186 0.32637 0.0
O176 O 0.22084 0.13353 0.33199 0.0
C177 C 0.20125 0.19071 0.4189 0.0
C178 C 0.1481 0.197 0.42896 0.0
C179 C 0.18442 0.19656 0.43189 0.0
N180 N 0.17593 0.18824 0.40876 0.0
N181 N 0.14426 0.19193 0.41486 0.0
C182 C 0.2403 0.1849 0.41615 0.0
H183 H 0.2443 0.15731 0.4121 0.0
H184 H 0.2495 0.20363 0.40774 0.0
H185 H 0.25677 0.18821 0.42586 0.0
C186 C 0.18203 0.25612 0.35944 0.0
N187 N 0.18352 0.22257 0.36463 0.0
N188 N 0.18221 0.22372 0.37861 0.0
C189 C 0.18042 0.25817 0.38281 0.0
C190 C 0.18003 0.27991 0.37079 0.0
C191 C 0.18063 0.26478 0.34389 0.0
H192 H 0.16125 0.24678 0.33853 0.0
H193 H 0.20738 0.26 0.33911 0.0
H194 H 0.17254 0.29293 0.34198 0.0
O195 O 0.14476 0.14784 0.35928 0.0
O196 O 0.14028 0.15014 0.38283 0.0
H197 H 0.15548 0.26328 0.40319 0.0
H198 H 0.1865 0.299 0.39909 0.0
C199 C 0.18139 0.2699 0.39805 0.0
H200 H 0.20287 0.25528 0.40373 0.0
H201 H 0.11997 0.19092 0.40937 0.0
O202 O 0.19009 0.18435 0.33448 0.0
C203 C 0.12913 0.13902 0.3708 0.0
Co204 Co 0.17694 0.81364 0.64513 0.0
Co205 Co 0.16993 0.81622 0.61177 0.0
C206 C 0.13483 0.75861 0.6292 0.0
O207 O 0.14716 0.77145 0.64076 0.0
O208 O 0.1422 0.77287 0.61723 0.0
C209 C 0.19405 0.78449 0.67274 0.0
O210 O 0.19567 0.75386 0.6659 0.0
C211 C 0.18275 0.79282 0.58229 0.0
C212 C 0.16839 0.84143 0.57018 0.0
C213 C 0.18083 0.80668 0.56853 0.0
N214 N 0.17206 0.81827 0.59148 0.0
N215 N 0.16325 0.84714 0.58416 0.0
C216 C 0.19673 0.75715 0.58693 0.0
H217 H 0.20439 0.7579 0.59835 0.0
H218 H 0.22015 0.74923 0.58037 0.0
H219 H 0.1754 0.73676 0.5856 0.0
C220 C 0.25411 0.81719 0.63762 0.0
N221 N 0.21932 0.81502 0.63395 0.0
N222 N 0.21647 0.81756 0.62001 0.0
C223 C 0.24935 0.8225 0.6144 0.0
C224 C 0.27434 0.82226 0.62536 0.0
C225 C 0.2675 0.81286 0.65255 0.0
H226 H 0.25806 0.83566 0.65912 0.0
H227 H 0.25632 0.78795 0.65712 0.0
H228 H 0.29708 0.81108 0.65308 0.0
O229 O 0.14728 0.85699 0.64163 0.0
O230 O 0.14229 0.85821 0.61808 0.0
H231 H 0.23488 0.8484 0.59483 0.0
H232 H 0.28243 0.84474 0.59768 0.0
C233 C 0.25636 0.83096 0.59907 0.0
H234 H 0.25681 0.80575 0.59285 0.0
H235 H 0.15421 0.87097 0.58874 0.0
O236 O 0.18753 0.81306 0.66586 0.0
C237 C 0.13525 0.87128 0.63028 0.0
Co238 Co 0.80515 0.82214 0.35747 0.0
Co239 Co 0.81174 0.82148 0.39086 0.0
C240 C 0.75158 0.85917 0.37618 0.0
O241 O 0.76279 0.84961 0.36395 0.0
O242 O 0.76783 0.84988 0.38752 0.0
C243 C 0.79781 0.84086 0.32824 0.0
O244 O 0.79736 0.87345 0.33351 0.0
C245 C 0.79272 0.80875 0.42085 0.0
C246 C 0.84609 0.80289 0.43073 0.0
C247 C 0.80978 0.80172 0.43369 0.0
N248 N 0.81785 0.81376 0.4108 0.0
N249 N 0.84968 0.81065 0.41681 0.0
C250 C 0.75344 0.80718 0.4178 0.0
H251 H 0.74875 0.79999 0.40649 0.0
H252 H 0.74002 0.78739 0.42481 0.0
H253 H 0.74151 0.83392 0.41979 0.0
C254 C 0.81049 0.74404 0.36196 0.0
N255 N 0.80885 0.77776 0.36697 0.0
N256 N 0.81112 0.77718 0.38095 0.0
C257 C 0.81415 0.74292 0.3853 0.0
C258 C 0.81404 0.72083 0.37341 0.0
C259 C 0.81051 0.7347 0.34647 0.0
H260 H 0.83063 0.75135 0.34084 0.0
H261 H 0.78386 0.74095 0.34188 0.0
H262 H 0.81675 0.70603 0.34467 0.0
O263 O 0.84835 0.85167 0.36088 0.0
O264 O 0.85257 0.85107 0.38447 0.0
H265 H 0.8406 0.74114 0.40547 0.0
H266 H 0.8136 0.70206 0.40177 0.0
C267 C 0.81535 0.73153 0.40058 0.0
H268 H 0.79265 0.74377 0.40638 0.0
H269 H 0.87387 0.8129 0.41131 0.0
O270 O 0.80072 0.81443 0.33669 0.0
C271 C 0.86389 0.86125 0.37234 0.0
Co272 Co 0.67173 0.68681 0.64654 0.0
Co273 Co 0.67409 0.67716 0.61329 0.0
C274 C 0.63382 0.73748 0.62691 0.0
O275 O 0.64347 0.72809 0.63938 0.0
O276 O 0.64405 0.72023 0.61594 0.0
C277 C 0.68666 0.72079 0.67356 0.0
O278 O 0.69377 0.74921 0.66582 0.0
C279 C 0.6877 0.69502 0.58326 0.0
C280 C 0.69137 0.64133 0.57351 0.0
C281 C 0.69349 0.67753 0.5704 0.0
N282 N 0.68239 0.67024 0.59343 0.0
N283 N 0.68432 0.63822 0.5875 0.0
C284 C 0.68993 0.73432 0.58618 0.0
H285 H 0.69742 0.7391 0.59746 0.0
H286 H 0.70975 0.74728 0.57905 0.0
H287 H 0.66332 0.74662 0.58427 0.0
C288 C 0.75062 0.68124 0.64254 0.0
N289 N 0.71694 0.68281 0.63742 0.0
N290 N 0.71796 0.68002 0.62344 0.0
C291 C 0.75236 0.67731 0.61923 0.0
C292 C 0.77405 0.67784 0.63119 0.0
C293 C 0.76023 0.68333 0.65799 0.0
H294 H 0.75685 0.7113 0.66169 0.0
H295 H 0.78839 0.67523 0.65991 0.0
H296 H 0.74211 0.66594 0.66428 0.0
O297 O 0.64302 0.64305 0.64335 0.0
O298 O 0.64575 0.63568 0.61992 0.0
H299 H 0.79367 0.66963 0.6033 0.0
H300 H 0.75563 0.6961 0.59779 0.0
C301 C 0.76419 0.67259 0.60413 0.0
H302 H 0.75128 0.64845 0.59959 0.0
H303 H 0.68135 0.61422 0.59307 0.0
O304 O 0.67727 0.69194 0.66744 0.0
C305 C 0.63484 0.62572 0.63214 0.0
Co306 Co 0.68547 0.31958 0.35503 0.0
Co307 Co 0.67697 0.32005 0.3884 0.0
C308 C 0.73739 0.35836 0.37345 0.0
O309 O 0.72734 0.3483 0.36113 0.0
O310 O 0.72041 0.34885 0.38458 0.0
C311 C 0.71692 0.3076 0.32724 0.0
O312 O 0.74736 0.30583 0.33421 0.0
C313 C 0.6977 0.30344 0.418 0.0
C314 C 0.6479 0.3164 0.42959 0.0
C315 C 0.68273 0.30457 0.43157 0.0
N316 N 0.67274 0.31392 0.40854 0.0
N317 N 0.64305 0.32156 0.41555 0.0
C318 C 0.73551 0.2946 0.41406 0.0
H319 H 0.73882 0.26511 0.41374 0.0
H320 H 0.75436 0.30563 0.42207 0.0
H321 H 0.74215 0.30516 0.40337 0.0
C322 C 0.68138 0.24108 0.36023 0.0
N323 N 0.68241 0.27518 0.36489 0.0
N324 N 0.67738 0.2755 0.37877 0.0
C325 C 0.67198 0.24173 0.38332 0.0
C326 C 0.67459 0.21869 0.37175 0.0
C327 C 0.6883 0.2304 0.34512 0.0
H328 H 0.71356 0.2429 0.34147 0.0
H329 H 0.69085 0.20102 0.34387 0.0
H330 H 0.66628 0.24044 0.33827 0.0
O331 O 0.64179 0.3489 0.35851 0.0
O332 O 0.63586 0.34882 0.38204 0.0
H333 H 0.64219 0.25261 0.40237 0.0
H334 H 0.64755 0.20567 0.39855 0.0
C335 C 0.66091 0.23217 0.39817 0.0
H336 H 0.6849 0.23141 0.4051 0.0
H337 H 0.61954 0.33068 0.41075 0.0
O338 O 0.68796 0.31243 0.33409 0.0
C339 C 0.6253 0.35859 0.36976 0.0
Co340 Co 0.32365 0.29724 0.64751 0.0
Co341 Co 0.32391 0.30092 0.614 0.0
C342 C 0.36147 0.24223 0.6298 0.0
O343 O 0.35204 0.25468 0.64186 0.0
O344 O 0.35188 0.25727 0.61825 0.0
C345 C 0.34113 0.28949 0.67674 0.0
O346 O 0.37344 0.28509 0.67149 0.0
C347 C 0.31022 0.28026 0.58393 0.0
C348 C 0.31316 0.33304 0.57338 0.0
C349 C 0.30718 0.29705 0.57077 0.0
N350 N 0.31715 0.30536 0.59386 0.0
N351 N 0.31903 0.33677 0.58743 0.0
C352 C 0.30793 0.24094 0.58692 0.0
H353 H 0.32327 0.23388 0.59658 0.0
H354 H 0.2796 0.23341 0.58876 0.0
H355 H 0.31818 0.22527 0.57775 0.0
C356 C 0.24579 0.30255 0.64258 0.0
N357 N 0.27957 0.30001 0.63771 0.0
N358 N 0.27932 0.30153 0.62371 0.0
C359 C 0.24521 0.30504 0.61921 0.0
C360 C 0.22283 0.30581 0.63104 0.0
C361 C 0.23627 0.30443 0.65805 0.0
H362 H 0.25323 0.32483 0.66335 0.0
H363 H 0.24196 0.27819 0.66311 0.0
H364 H 0.20773 0.31147 0.6597 0.0
O365 O 0.35285 0.34029 0.6437 0.0
O366 O 0.35366 0.34221 0.62006 0.0
H367 H 0.24626 0.33061 0.59885 0.0
H368 H 0.20492 0.30708 0.60253 0.0
C369 C 0.23437 0.30653 0.60388 0.0
H370 H 0.2449 0.28265 0.59832 0.0
H371 H 0.3242 0.36086 0.59267 0.0
O372 O 0.31517 0.29481 0.66827 0.0
C373 C 0.36309 0.35472 0.63211 0.0
Co374 Co 0.30662 0.68261 0.35588 0.0
Co375 Co 0.31599 0.67982 0.38911 0.0
C376 C 0.2537 0.64493 0.37407 0.0
O377 O 0.26385 0.65566 0.36186 0.0
O378 O 0.27123 0.65287 0.38527 0.0
C379 C 0.29575 0.6666 0.32672 0.0
O380 O 0.28953 0.63461 0.33199 0.0
C381 C 0.29524 0.69395 0.41862 0.0
C382 C 0.3454 0.68315 0.43031 0.0
C383 C 0.30998 0.69325 0.43223 0.0
N384 N 0.3207 0.68453 0.40923 0.0
N385 N 0.35059 0.67799 0.41628 0.0
C386 C 0.25843 0.70539 0.4143 0.0
H387 H 0.25841 0.71455 0.40305 0.0
H388 H 0.24857 0.72717 0.42132 0.0
H389 H 0.23999 0.68222 0.41517 0.0
C390 C 0.31251 0.76021 0.36161 0.0
N391 N 0.31137 0.72601 0.36609 0.0
N392 N 0.31675 0.72504 0.37992 0.0
C393 C 0.32258 0.75859 0.38466 0.0
C394 C 0.31997 0.78211 0.37321 0.0
C395 C 0.30481 0.77146 0.34662 0.0
H396 H 0.2827 0.75504 0.34222 0.0
H397 H 0.29714 0.8001 0.34602 0.0
H398 H 0.32898 0.76689 0.34 0.0
O399 O 0.34888 0.65106 0.35883 0.0
O400 O 0.35587 0.64991 0.3823 0.0
H401 H 0.34689 0.79386 0.4002 0.0
H402 H 0.30926 0.76794 0.40646 0.0
C403 C 0.33341 0.76745 0.3996 0.0
H404 H 0.35191 0.74671 0.40371 0.0
H405 H 0.37455 0.6701 0.4115 0.0
O406 O 0.30347 0.69202 0.33516 0.0
C407 C 0.36539 0.64016 0.36988 0.0
Co408 Co 0.31104 0.68516 0.1458 0.0
Co409 Co 0.30834 0.68399 0.11225 0.0
C410 C 0.34544 0.74259 0.12793 0.0
O411 O 0.3372 0.72868 0.13988 0.0
O412 O 0.33548 0.72844 0.11623 0.0
C413 C 0.30864 0.71244 0.17468 0.0
O414 O 0.31645 0.74343 0.16885 0.0
C415 C 0.2969 0.70474 0.08219 0.0
C416 C 0.2849 0.65221 0.07248 0.0
C417 C 0.28791 0.68833 0.06941 0.0
N418 N 0.29909 0.67938 0.09233 0.0
N419 N 0.29222 0.64804 0.08641 0.0
C420 C 0.30027 0.74399 0.08504 0.0
H421 H 0.32884 0.75179 0.08417 0.0
H422 H 0.291 0.75019 0.09599 0.0
H423 H 0.28453 0.75984 0.07725 0.0
C424 C 0.23277 0.68054 0.14199 0.0
N425 N 0.26619 0.68211 0.13668 0.0
N426 N 0.2647 0.68234 0.12268 0.0
C427 C 0.23009 0.68125 0.11863 0.0
C428 C 0.20873 0.67994 0.13073 0.0
C429 C 0.22435 0.67843 0.15755 0.0
H430 H 0.24176 0.65807 0.16265 0.0
H431 H 0.23014 0.70468 0.16257 0.0
H432 H 0.19595 0.67126 0.15946 0.0
O433 O 0.34164 0.64384 0.14103 0.0
O434 O 0.34028 0.64348 0.11741 0.0
H435 H 0.22361 0.65841 0.09794 0.0
H436 H 0.18859 0.68943 0.1028 0.0
C437 C 0.21771 0.68391 0.10351 0.0
H438 H 0.23238 0.7057 0.09805 0.0
H439 H 0.29182 0.62384 0.09197 0.0
O440 O 0.30502 0.68503 0.1668 0.0
C441 C 0.35155 0.63072 0.12916 0.0
Co442 Co 0.69767 0.68137 0.85332 0.0
Co443 Co 0.69569 0.68444 0.88682 0.0
C444 C 0.7533 0.64495 0.87147 0.0
O445 O 0.74063 0.6538 0.85936 0.0
O446 O 0.73874 0.65545 0.88299 0.0
C447 C 0.72565 0.69933 0.82551 0.0
O448 O 0.75363 0.71103 0.83259 0.0
C449 C 0.71732 0.69521 0.91673 0.0
C450 C 0.6653 0.70776 0.92678 0.0
C451 C 0.7015 0.70423 0.92962 0.0
N452 N 0.69156 0.69353 0.90674 0.0
N453 N 0.66051 0.7007 0.91286 0.0
C454 C 0.75641 0.69131 0.91364 0.0
H455 H 0.76235 0.70095 0.90271 0.0
H456 H 0.77279 0.70643 0.92145 0.0
H457 H 0.76376 0.66258 0.91425 0.0
C458 C 0.69069 0.76029 0.85729 0.0
N459 N 0.69477 0.72676 0.86238 0.0
N460 N 0.6954 0.72795 0.87639 0.0
C461 C 0.69253 0.76228 0.88063 0.0
C462 C 0.68909 0.78379 0.86869 0.0
C463 C 0.68549 0.76943 0.84192 0.0
H464 H 0.66985 0.74816 0.83654 0.0
H465 H 0.71202 0.7716 0.83669 0.0
H466 H 0.67138 0.7954 0.8407 0.0
O467 O 0.65499 0.65224 0.858 0.0
O468 O 0.65392 0.65475 0.88161 0.0
H469 H 0.6686 0.76846 0.90115 0.0
H470 H 0.69969 0.80359 0.89658 0.0
C471 C 0.69438 0.77444 0.8958 0.0
H472 H 0.71604 0.75991 0.90141 0.0
H473 H 0.63611 0.70149 0.90745 0.0
O474 O 0.69928 0.68621 0.83229 0.0
C475 C 0.64094 0.64367 0.86988 0.0
Co476 Co 0.67576 0.31826 0.14729 0.0
Co477 Co 0.67643 0.31538 0.1138 0.0
C478 C 0.6383 0.25998 0.13038 0.0
O479 O 0.64773 0.27514 0.14195 0.0
O480 O 0.64821 0.27213 0.11834 0.0
C481 C 0.69725 0.29088 0.1745 0.0
O482 O 0.71032 0.26447 0.16687 0.0
C483 C 0.68722 0.29325 0.0838 0.0
C484 C 0.69895 0.34551 0.07381 0.0
C485 C 0.6964 0.30924 0.07095 0.0
N486 N 0.68465 0.319 0.09378 0.0
N487 N 0.69124 0.35018 0.08767 0.0
C488 C 0.68452 0.25408 0.08693 0.0
H489 H 0.69182 0.24868 0.09817 0.0
H490 H 0.70218 0.2384 0.07976 0.0
H491 H 0.65646 0.2453 0.08524 0.0
C492 C 0.75401 0.32591 0.14239 0.0
N493 N 0.72032 0.32054 0.13772 0.0
N494 N 0.72078 0.3167 0.12379 0.0
C495 C 0.75497 0.31798 0.11922 0.0
C496 C 0.77719 0.32431 0.13083 0.0
C497 C 0.76336 0.33579 0.15738 0.0
H498 H 0.7409 0.3505 0.16241 0.0
H499 H 0.76861 0.31107 0.16358 0.0
H500 H 0.78776 0.35271 0.15769 0.0
O501 O 0.64637 0.36023 0.14251 0.0
O502 O 0.64622 0.35746 0.1189 0.0
H503 H 0.76214 0.33558 0.09775 0.0
H504 H 0.79472 0.3029 0.10352 0.0
C505 C 0.7662 0.311 0.10417 0.0
H506 H 0.74968 0.28927 0.0996 0.0
H507 H 0.69148 0.37457 0.09308 0.0
O508 O 0.68191 0.31689 0.16826 0.0
C509 C 0.63628 0.37223 0.13048 0.0
Co510 Co 0.31988 0.3271 0.85702 0.0
Co511 Co 0.31971 0.32822 0.8905 0.0
C512 C 0.26367 0.36659 0.87361 0.0
O513 O 0.2777 0.35654 0.86191 0.0
O514 O 0.27667 0.35698 0.88557 0.0
C515 C 0.29383 0.3208 0.82814 0.0
O516 O 0.2625 0.3285 0.8337 0.0
C517 C 0.29489 0.31537 0.91981 0.0
C518 C 0.34619 0.31334 0.9315 0.0
C519 C 0.30952 0.30995 0.93323 0.0
N520 N 0.32174 0.3216 0.91061 0.0
N521 N 0.35228 0.32079 0.9177 0.0
C522 C 0.25653 0.31166 0.9155 0.0
H523 H 0.25456 0.30458 0.90405 0.0
H524 H 0.24294 0.29098 0.92204 0.0
H525 H 0.24271 0.33761 0.91719 0.0
C526 C 0.32149 0.24924 0.86224 0.0
N527 N 0.32011 0.28322 0.86696 0.0
N528 N 0.32006 0.28327 0.88097 0.0
C529 C 0.3214 0.24911 0.88562 0.0
C530 C 0.3225 0.22651 0.8739 0.0
C531 C 0.32033 0.23898 0.84684 0.0
H532 H 0.29655 0.25142 0.84179 0.0
H533 H 0.31886 0.20957 0.84535 0.0
H534 H 0.3445 0.24951 0.8414 0.0
O535 O 0.36284 0.3554 0.86164 0.0
O536 O 0.36248 0.35683 0.88525 0.0
H537 H 0.34545 0.25332 0.90622 0.0
H538 H 0.32844 0.20931 0.90219 0.0
C539 C 0.3235 0.23842 0.90095 0.0
H540 H 0.29802 0.24545 0.90632 0.0
H541 H 0.37739 0.32441 0.91303 0.0
O542 O 0.32108 0.31865 0.8362 0.0
C543 C 0.37638 0.36565 0.87338 0.0
H544 H 0.2155 0.1559 0.18844 0.0
H545 H 0.22586 0.15103 0.21408 0.0
H546 H 0.14308 0.22913 0.22183 0.0
H547 H 0.13258 0.2343 0.19621 0.0
H548 H 0.20325 0.24085 0.23823 0.0
H549 H 0.12532 0.14234 0.22626 0.0
H550 H 0.10754 0.08828 0.21297 0.0
H551 H 0.20201 0.03389 0.22749 0.0
H552 H 0.2206 0.08784 0.24072 0.0
H553 H 0.16789 0.21168 0.3112 0.0
H554 H 0.16497 0.21844 0.2854 0.0
H555 H 0.23927 0.13088 0.28033 0.0
H556 H 0.24137 0.12315 0.30617 0.0
H557 H 0.18693 0.12371 0.26226 0.0
H558 H 0.26417 0.22043 0.27511 0.0
H559 H 0.28294 0.27423 0.28835 0.0
H560 H 0.19221 0.33186 0.27213 0.0
H561 H 0.17262 0.27824 0.25894 0.0
C562 C 0.19956 0.17214 0.19558 0.0
C563 C 0.17303 0.19532 0.19028 0.0
C564 C 0.20547 0.16925 0.21024 0.0
C565 C 0.18499 0.18946 0.21985 0.0
C566 C 0.15914 0.21327 0.21458 0.0
C567 C 0.1531 0.21608 0.19994 0.0
C568 C 0.18992 0.18525 0.23543 0.0
C569 C 0.19936 0.21535 0.24353 0.0
C570 C 0.18578 0.15175 0.24225 0.0
C571 C 0.17453 0.11925 0.23436 0.0
C572 C 0.14244 0.11895 0.22653 0.0
C573 C 0.13219 0.08831 0.21902 0.0
C574 C 0.15368 0.05771 0.21935 0.0
C575 C 0.18542 0.05764 0.22722 0.0
C576 C 0.19581 0.08823 0.23474 0.0
C577 C 0.18377 0.19396 0.30461 0.0
C578 C 0.20493 0.16691 0.31074 0.0
C579 C 0.18224 0.198 0.28984 0.0
C580 C 0.20233 0.17553 0.28089 0.0
C581 C 0.22358 0.14858 0.287 0.0
C582 C 0.22483 0.14426 0.30178 0.0
C583 C 0.20015 0.1794 0.26516 0.0
C584 C 0.19114 0.14922 0.257 0.0
C585 C 0.20494 0.21281 0.25828 0.0
C586 C 0.21678 0.2452 0.26612 0.0
C587 C 0.24809 0.2445 0.27444 0.0
C588 C 0.25889 0.27498 0.28192 0.0
C589 C 0.23874 0.30642 0.2811 0.0
C590 C 0.20778 0.30748 0.27276 0.0
C591 C 0.19684 0.27706 0.26526 0.0
H592 H 0.24714 0.32999 0.28691 0.0
H593 H 0.1457 0.03401 0.21353 0.0
H594 H 0.22787 0.73541 0.68963 0.0
H595 H 0.23537 0.73733 0.71549 0.0
H596 H 0.17784 0.83752 0.71694 0.0
H597 H 0.17194 0.83656 0.69106 0.0
H598 H 0.22978 0.84187 0.73422 0.0
H599 H 0.13961 0.75258 0.72617 0.0
H600 H 0.11372 0.69761 0.71591 0.0
H601 H 0.19674 0.63487 0.73535 0.0
H602 H 0.22339 0.68956 0.74558 0.0
H603 H 0.1727 0.83874 0.80649 0.0
H604 H 0.17329 0.83432 0.7805 0.0
H605 H 0.25596 0.75398 0.78282 0.0
H606 H 0.25599 0.75861 0.80888 0.0
H607 H 0.19533 0.73783 0.76406 0.0
H608 H 0.2819 0.83054 0.77344 0.0
H609 H 0.30298 0.88687 0.78424 0.0
H610 H 0.21989 0.94486 0.76264 0.0
H611 H 0.19797 0.88876 0.75188 0.0
C612 C 0.21692 0.75786 0.69548 0.0
C613 C 0.19919 0.78575 0.68834 0.0
C614 C 0.22103 0.75885 0.71028 0.0
C615 C 0.20657 0.78724 0.71826 0.0
C616 C 0.18925 0.81532 0.71107 0.0
C617 C 0.18581 0.81471 0.69626 0.0
C618 C 0.20935 0.78787 0.73407 0.0
C619 C 0.22186 0.81918 0.74071 0.0
C620 C 0.19969 0.75811 0.74263 0.0
C621 C 0.18371 0.7252 0.7365 0.0
C622 C 0.15249 0.72709 0.72816 0.0
C623 C 0.13766 0.69598 0.72237 0.0
C624 C 0.15364 0.66278 0.72494 0.0
C625 C 0.18443 0.66061 0.73335 0.0
C626 C 0.19939 0.69165 0.73915 0.0
C627 C 0.19099 0.82008 0.80149 0.0
C628 C 0.21438 0.79908 0.80972 0.0
C629 C 0.19135 0.81768 0.78665 0.0
C630 C 0.2148 0.79397 0.77978 0.0
C631 C 0.23773 0.77247 0.78795 0.0
C632 C 0.23779 0.77525 0.80281 0.0
C633 C 0.21525 0.79184 0.76405 0.0
C634 C 0.20339 0.76031 0.75749 0.0
C635 C 0.2248 0.82159 0.75557 0.0
C636 C 0.2381 0.85539 0.76196 0.0
C637 C 0.26793 0.85525 0.77109 0.0
C638 C 0.28007 0.88716 0.77719 0.0
C639 C 0.26274 0.91941 0.77416 0.0
C640 C 0.23327 0.91985 0.76499 0.0
C641 C 0.221 0.88801 0.75888 0.0
H642 H 0.27218 0.94408 0.77889 0.0
H643 H 0.14211 0.63873 0.72045 0.0
H644 H 0.79306 0.89137 0.30723 0.0
H645 H 0.79157 0.88154 0.28151 0.0
H646 H 0.79643 0.76742 0.28827 0.0
H647 H 0.79849 0.77701 0.31399 0.0
H648 H 0.84242 0.78788 0.26794 0.0
H649 H 0.71821 0.80865 0.27851 0.0
H650 H 0.66698 0.84194 0.28846 0.0
H651 H 0.69132 0.93153 0.26152 0.0
H652 H 0.74302 0.89895 0.25154 0.0
H653 H 0.80254 0.73492 0.19734 0.0
H654 H 0.79909 0.74387 0.22309 0.0
H655 H 0.79297 0.85808 0.21678 0.0
H656 H 0.79575 0.84936 0.19102 0.0
H657 H 0.7469 0.83723 0.23691 0.0
H658 H 0.87127 0.81815 0.22675 0.0
H659 H 0.92357 0.78632 0.21692 0.0
H660 H 0.90009 0.69523 0.24319 0.0
H661 H 0.84733 0.72635 0.25303 0.0
C662 C 0.79368 0.86416 0.30325 0.0
C663 C 0.79587 0.83497 0.31267 0.0
C664 C 0.79267 0.85858 0.28854 0.0
C665 C 0.79353 0.82372 0.28296 0.0
C666 C 0.79571 0.79455 0.29234 0.0
C667 C 0.79679 0.80009 0.30705 0.0
C668 C 0.79305 0.81764 0.26734 0.0
C669 C 0.82123 0.7982 0.26118 0.0
C670 C 0.76593 0.83195 0.25847 0.0
C671 C 0.73468 0.85147 0.26437 0.0
C672 C 0.71279 0.83555 0.27478 0.0
C673 C 0.68364 0.85427 0.28041 0.0
C674 C 0.67595 0.88886 0.27565 0.0
C675 C 0.69734 0.90476 0.26521 0.0
C676 C 0.72654 0.88616 0.25955 0.0
C677 C 0.8003 0.76194 0.20142 0.0
C678 C 0.79966 0.79143 0.19212 0.0
C679 C 0.79848 0.76702 0.21615 0.0
C680 C 0.7963 0.80169 0.22188 0.0
C681 C 0.79473 0.8311 0.21261 0.0
C682 C 0.79644 0.82605 0.19788 0.0
C683 C 0.79621 0.80735 0.23753 0.0
C684 C 0.768 0.82679 0.24368 0.0
C685 C 0.8234 0.7932 0.2464 0.0
C686 C 0.85514 0.77444 0.24051 0.0
C687 C 0.87709 0.79122 0.23034 0.0
C688 C 0.90684 0.77333 0.22478 0.0
C689 C 0.91509 0.73874 0.2294 0.0
C690 C 0.89364 0.722 0.23961 0.0
C691 C 0.86382 0.73977 0.24519 0.0
H692 H 0.93814 0.72493 0.22508 0.0
H693 H 0.65338 0.90332 0.28003 0.0
H694 H 0.77126 0.19206 0.69003 0.0
H695 H 0.76094 0.19086 0.71574 0.0
H696 H 0.87168 0.21793 0.72305 0.0
H697 H 0.88238 0.2186 0.69739 0.0
H698 H 0.85139 0.16455 0.73999 0.0
H699 H 0.80446 0.27997 0.7273 0.0
H700 H 0.76659 0.3223 0.71392 0.0
H701 H 0.67214 0.26906 0.72909 0.0
H702 H 0.70949 0.22609 0.74241 0.0
H703 H 0.84191 0.20891 0.81283 0.0
H704 H 0.84851 0.21348 0.78704 0.0
H705 H 0.73854 0.18119 0.78153 0.0
H706 H 0.73156 0.17679 0.8074 0.0
H707 H 0.75688 0.23643 0.76369 0.0
H708 H 0.8038 0.12138 0.77648 0.0
H709 H 0.84164 0.07916 0.78993 0.0
H710 H 0.93614 0.13182 0.77449 0.0
H711 H 0.89883 0.1747 0.7611 0.0
C712 C 0.7934 0.1979 0.69711 0.0
C713 C 0.82766 0.20544 0.69166 0.0
C714 C 0.78741 0.19735 0.7118 0.0
C715 C 0.81546 0.20464 0.72133 0.0
C716 C 0.84964 0.21223 0.71591 0.0
C717 C 0.85569 0.21268 0.70122 0.0
C718 C 0.8095 0.20346 0.73696 0.0
C719 C 0.83105 0.18066 0.74518 0.0
C720 C 0.7823 0.22372 0.74371 0.0
C721 C 0.75979 0.24959 0.73574 0.0
C722 C 0.77563 0.27711 0.72769 0.0
C723 C 0.75425 0.30125 0.72013 0.0
C724 C 0.71699 0.29831 0.72062 0.0
C725 C 0.70101 0.27127 0.7287 0.0
C726 C 0.72227 0.24704 0.73627 0.0
C727 C 0.81904 0.20291 0.80617 0.0
C728 C 0.78627 0.19219 0.81219 0.0
C729 C 0.8229 0.20545 0.79141 0.0
C730 C 0.79417 0.19718 0.78237 0.0
C731 C 0.76109 0.18757 0.78833 0.0
C732 C 0.75719 0.18498 0.80311 0.0
C733 C 0.79901 0.1978 0.76669 0.0
C734 C 0.77721 0.22037 0.75847 0.0
C735 C 0.82598 0.17733 0.75992 0.0
C736 C 0.84851 0.15146 0.7679 0.0
C737 C 0.83265 0.12413 0.77604 0.0
C738 C 0.854 0.10005 0.78364 0.0
C739 C 0.89127 0.10286 0.7831 0.0
C740 C 0.90727 0.1297 0.77492 0.0
C741 C 0.88603 0.15388 0.76731 0.0
H742 H 0.90776 0.08419 0.78899 0.0
H743 H 0.70048 0.31703 0.71476 0.0
H744 H 0.72212 0.77056 0.68966 0.0
H745 H 0.73019 0.77054 0.71558 0.0
H746 H 0.66857 0.67327 0.71867 0.0
H747 H 0.66071 0.67283 0.69283 0.0
H748 H 0.6492 0.7276 0.7387 0.0
H749 H 0.75473 0.66711 0.72039 0.0
H750 H 0.80864 0.66343 0.7053 0.0
H751 H 0.85269 0.75557 0.72626 0.0
H752 H 0.79874 0.76015 0.74132 0.0
H753 H 0.682 0.6632 0.80728 0.0
H754 H 0.67739 0.67014 0.78153 0.0
H755 H 0.75938 0.75147 0.78256 0.0
H756 H 0.76517 0.74348 0.80836 0.0
H757 H 0.76938 0.71166 0.76032 0.0
H758 H 0.66824 0.77237 0.77933 0.0
H759 H 0.6143 0.78064 0.79409 0.0
H760 H 0.5618 0.69522 0.77176 0.0
H761 H 0.61564 0.68606 0.75699 0.0
C762 C 0.71019 0.74926 0.69587 0.0
C763 C 0.69084 0.72166 0.68921 0.0
C764 C 0.71491 0.74924 0.71066 0.0
C765 C 0.70007 0.72183 0.719 0.0
C766 C 0.6802 0.69466 0.7124 0.0
C767 C 0.67587 0.69439 0.69764 0.0
C768 C 0.70546 0.721 0.73461 0.0
C769 C 0.67539 0.72381 0.74346 0.0
C770 C 0.73984 0.71737 0.74075 0.0
C771 C 0.77254 0.7142 0.73188 0.0
C772 C 0.77579 0.68675 0.72171 0.0
C773 C 0.80637 0.68448 0.71317 0.0
C774 C 0.83403 0.70931 0.71479 0.0
C775 C 0.83122 0.73639 0.725 0.0
C776 C 0.80066 0.73882 0.73354 0.0
C777 C 0.69912 0.68252 0.80203 0.0
C778 C 0.72378 0.70297 0.80985 0.0
C779 C 0.69632 0.68662 0.7873 0.0
C780 C 0.71743 0.71195 0.78011 0.0
C781 C 0.74267 0.73188 0.78786 0.0
C782 C 0.74592 0.72733 0.8026 0.0
C783 C 0.71291 0.71754 0.76452 0.0
C784 C 0.74314 0.71573 0.75564 0.0
C785 C 0.67868 0.72277 0.75833 0.0
C786 C 0.6461 0.72835 0.76712 0.0
C787 C 0.64528 0.75519 0.77762 0.0
C788 C 0.61471 0.76006 0.78599 0.0
C789 C 0.58467 0.73843 0.78388 0.0
C790 C 0.5851 0.71194 0.77338 0.0
C791 C 0.61563 0.70692 0.765 0.0
H792 H 0.56103 0.74223 0.79037 0.0
H793 H 0.85768 0.70752 0.70817 0.0
H794 H 0.76831 0.27882 0.30993 0.0
H795 H 0.76651 0.27264 0.28401 0.0
H796 H 0.6625 0.32302 0.28324 0.0
H797 H 0.6635 0.3277 0.30916 0.0
H798 H 0.66143 0.27084 0.26583 0.0
H799 H 0.74373 0.36741 0.27378 0.0
H800 H 0.79687 0.39732 0.28384 0.0
H801 H 0.86522 0.31993 0.26373 0.0
H802 H 0.81242 0.28928 0.2537 0.0
H803 H 0.65855 0.32973 0.19368 0.0
H804 H 0.66362 0.32894 0.21966 0.0
H805 H 0.74899 0.25158 0.21679 0.0
H806 H 0.74367 0.25168 0.19075 0.0
H807 H 0.76152 0.31371 0.23559 0.0
H808 H 0.67574 0.22014 0.2265 0.0
H809 H 0.62098 0.19467 0.21592 0.0
H810 H 0.55713 0.27272 0.23787 0.0
H811 H 0.6116 0.29901 0.24842 0.0
C812 C 0.74508 0.28856 0.30421 0.0
C813 C 0.7161 0.30385 0.31157 0.0
C814 C 0.74414 0.28519 0.28938 0.0
C815 C 0.71462 0.29791 0.28159 0.0
C816 C 0.68558 0.31296 0.28897 0.0
C817 C 0.68622 0.31572 0.3038 0.0
C818 C 0.71367 0.29542 0.26577 0.0
C819 C 0.68322 0.2806 0.25926 0.0
C820 C 0.74233 0.30747 0.25711 0.0
C821 C 0.77411 0.32583 0.26313 0.0
C822 C 0.77008 0.35661 0.2716 0.0
C823 C 0.80014 0.37372 0.27727 0.0
C824 C 0.83439 0.36047 0.27446 0.0
C825 C 0.83867 0.33012 0.26593 0.0
C826 C 0.80869 0.31289 0.26023 0.0
C827 C 0.67842 0.31255 0.19857 0.0
C828 C 0.70066 0.29068 0.19019 0.0
C829 C 0.68121 0.31208 0.2134 0.0
C830 C 0.70657 0.2901 0.22009 0.0
C831 C 0.72923 0.26867 0.21178 0.0
C832 C 0.72605 0.26866 0.19693 0.0
C833 C 0.70924 0.28962 0.23581 0.0
C834 C 0.73995 0.30383 0.24225 0.0
C835 C 0.6806 0.27765 0.24441 0.0
C836 C 0.64779 0.26175 0.23814 0.0
C837 C 0.65006 0.23208 0.22897 0.0
C838 C 0.61906 0.21745 0.223 0.0
C839 C 0.5856 0.23213 0.22619 0.0
C840 C 0.58307 0.26141 0.23539 0.0
C841 C 0.61399 0.27616 0.24138 0.0
H842 H 0.56163 0.22076 0.22156 0.0
H843 H 0.85763 0.37375 0.27886 0.0
H844 H 0.24184 0.32506 0.80765 0.0
H845 H 0.249 0.31722 0.78195 0.0
H846 H 0.36144 0.29545 0.78786 0.0
H847 H 0.35464 0.30359 0.81351 0.0
H848 H 0.35066 0.34266 0.76669 0.0
H849 H 0.30317 0.22841 0.78043 0.0
H850 H 0.26001 0.18742 0.79178 0.0
H851 H 0.17643 0.22696 0.76461 0.0
H852 H 0.219 0.26858 0.75324 0.0
H853 H 0.39075 0.27909 0.69772 0.0
H854 H 0.38147 0.28199 0.72345 0.0
H855 H 0.26929 0.3037 0.71679 0.0
H856 H 0.27819 0.30032 0.69103 0.0
H857 H 0.27921 0.25642 0.73829 0.0
H858 H 0.32631 0.37099 0.72476 0.0
H859 H 0.36921 0.41236 0.71348 0.0
H860 H 0.45321 0.37258 0.74038 0.0
H861 H 0.4109 0.33059 0.75169 0.0
C862 C 0.26806 0.31845 0.80349 0.0
C863 C 0.29768 0.315 0.81263 0.0
C864 C 0.27207 0.31385 0.7888 0.0
C865 C 0.30571 0.30549 0.78301 0.0
C866 C 0.33526 0.30191 0.79211 0.0
C867 C 0.33128 0.30651 0.80678 0.0
C868 C 0.3104 0.30144 0.76741 0.0
C869 C 0.33539 0.32345 0.76051 0.0
C870 C 0.28981 0.27701 0.75931 0.0
C871 C 0.2642 0.25187 0.76608 0.0
C872 C 0.27552 0.22857 0.77696 0.0
C873 C 0.25118 0.20519 0.78338 0.0
C874 C 0.21548 0.20465 0.77894 0.0
C875 C 0.20408 0.22744 0.76805 0.0
C876 C 0.22831 0.25091 0.7616 0.0
C877 C 0.36406 0.28433 0.70172 0.0
C878 C 0.33526 0.28973 0.69232 0.0
C879 C 0.35883 0.28609 0.71643 0.0
C880 C 0.32478 0.29356 0.72202 0.0
C881 C 0.29579 0.29799 0.71269 0.0
C882 C 0.30097 0.29617 0.69797 0.0
C883 C 0.31962 0.29751 0.7376 0.0
C884 C 0.2945 0.27558 0.74449 0.0
C885 C 0.34005 0.32205 0.74571 0.0
C886 C 0.36551 0.3474 0.73897 0.0
C887 C 0.35399 0.37087 0.72819 0.0
C888 C 0.37819 0.39446 0.7218 0.0
C889 C 0.41393 0.39503 0.72618 0.0
C890 C 0.42553 0.37207 0.73698 0.0
C891 C 0.40145 0.34839 0.74339 0.0
H892 H 0.43263 0.41332 0.72122 0.0
H893 H 0.19667 0.18653 0.78393 0.0
H894 H 0.27882 0.61838 0.30591 0.0
H895 H 0.27942 0.62772 0.28018 0.0
H896 H 0.31191 0.73738 0.28646 0.0
H897 H 0.31078 0.72846 0.31227 0.0
H898 H 0.26146 0.73253 0.26611 0.0
H899 H 0.37255 0.6739 0.27672 0.0
H900 H 0.41117 0.62688 0.2869 0.0
H901 H 0.35923 0.54784 0.26094 0.0
H902 H 0.31993 0.59434 0.25074 0.0
H903 H 0.32038 0.76388 0.19492 0.0
H904 H 0.31648 0.75732 0.22078 0.0
H905 H 0.28461 0.64708 0.21568 0.0
H906 H 0.28896 0.65323 0.18985 0.0
H907 H 0.33527 0.65323 0.23553 0.0
H908 H 0.22405 0.71215 0.22492 0.0
H909 H 0.18569 0.75939 0.21474 0.0
H910 H 0.23829 0.83818 0.24062 0.0
H911 H 0.27732 0.79145 0.25081 0.0
C912 C 0.286 0.64453 0.30184 0.0
C913 C 0.29498 0.67261 0.31114 0.0
C914 C 0.28646 0.64979 0.28712 0.0
C915 C 0.29623 0.6831 0.28139 0.0
C916 C 0.30439 0.71143 0.29065 0.0
C917 C 0.30383 0.70624 0.3054 0.0
C918 C 0.29833 0.68821 0.26574 0.0
C919 C 0.27796 0.71551 0.25943 0.0
C920 C 0.31934 0.66555 0.25701 0.0
C921 C 0.34307 0.63756 0.26307 0.0
C922 C 0.36918 0.64645 0.27326 0.0
C923 C 0.39122 0.6199 0.27902 0.0
C924 C 0.3876 0.58438 0.2746 0.0
C925 C 0.36198 0.57536 0.26437 0.0
C926 C 0.33983 0.60181 0.25859 0.0
C927 C 0.31236 0.73829 0.1993 0.0
C928 C 0.30502 0.70907 0.19032 0.0
C929 C 0.31002 0.73462 0.21409 0.0
C930 C 0.29996 0.70178 0.22017 0.0
C931 C 0.29245 0.67265 0.21122 0.0
C932 C 0.29489 0.67625 0.19645 0.0
C933 C 0.29819 0.6974 0.23586 0.0
C934 C 0.31873 0.67026 0.24219 0.0
C935 C 0.27738 0.72024 0.2446 0.0
C936 C 0.25384 0.74835 0.23852 0.0
C937 C 0.22762 0.73959 0.22836 0.0
C938 C 0.20573 0.76626 0.2226 0.0
C939 C 0.20961 0.80178 0.227 0.0
C940 C 0.23534 0.81067 0.2372 0.0
C941 C 0.25734 0.78409 0.24298 0.0
H942 H 0.19263 0.82239 0.22253 0.0
H943 H 0.40468 0.56386 0.27907 0.0
H944 H 0.10376 0.09134 0.10633 0.0
H945 H 0.05753 0.04525 0.10667 0.0
H946 H 0.0677 0.03648 0.15227 0.0
H947 H 0.1141 0.0827 0.1521 0.0
H948 H 0.06067 0.97007 0.13849 0.0
H949 H 0.00228 0.08469 0.13972 0.0
H950 H 0.98931 0.14604 0.13153 0.0
H951 H 0.95401 0.10518 0.09117 0.0
H952 H 0.96729 0.04357 0.09905 0.0
H953 H 0.8946 0.88598 0.15313 0.0
H954 H 0.94476 0.92783 0.15253 0.0
H955 H 0.93098 0.94082 0.10723 0.0
H956 H 0.88057 0.89908 0.1077 0.0
H957 H 0.9403 0.0047 0.12082 0.0
H958 H 0.00367 0.89189 0.11825 0.0
H959 H 0.02013 0.83047 0.12541 0.0
H960 H 0.04458 0.86736 0.16758 0.0
H961 H 0.02941 0.92924 0.16053 0.0
C962 C 0.09655 0.07937 0.11644 0.0
C963 C 0.11244 0.09097 0.12921 0.0
C964 C 0.07002 0.05312 0.1166 0.0
C965 C 0.05891 0.03792 0.12951 0.0
C966 C 0.07587 0.04806 0.1422 0.0
C967 C 0.10232 0.07451 0.14208 0.0
C968 C 0.02849 0.01263 0.1298 0.0
C969 C 0.03424 0.97774 0.1348 0.0
C970 C 0.99424 0.02251 0.12468 0.0
C971 C 0.98614 0.05954 0.11993 0.0
C972 C 0.99205 0.0888 0.12905 0.0
C973 C 0.98459 0.12362 0.12448 0.0
C974 C 0.97093 0.12951 0.11083 0.0
C975 C 0.96464 0.10058 0.10174 0.0
C976 C 0.97211 0.0657 0.10626 0.0
C977 C 0.90197 0.89796 0.14304 0.0
C978 C 0.88349 0.88926 0.13046 0.0
C979 C 0.9309 0.92158 0.1427 0.0
C980 C 0.94186 0.93699 0.1298 0.0
C981 C 0.923 0.92905 0.11728 0.0
C982 C 0.89417 0.90527 0.11759 0.0
C983 C 0.97249 0.96207 0.12945 0.0
C984 C 0.96674 0.997 0.12449 0.0
C985 C 0.00674 0.95221 0.13454 0.0
C986 C 0.01509 0.91504 0.13892 0.0
C987 C 0.01236 0.88684 0.12907 0.0
C988 C 0.02158 0.85199 0.13309 0.0
C989 C 0.03294 0.84494 0.14698 0.0
C990 C 0.03562 0.87283 0.15684 0.0
C991 C 0.02701 0.90783 0.15281 0.0
H992 H 0.03985 0.81789 0.15007 0.0
H993 H 0.96514 0.15649 0.10731 0.0
H994 H 0.89189 0.10632 0.84799 0.0
H995 H 0.937 0.05893 0.84707 0.0
H996 H 0.96004 0.07494 0.89161 0.0
H997 H 0.91516 0.12239 0.89267 0.0
H998 H 0.02094 0.06574 0.8757 0.0
H999 H 0.90714 0.00806 0.8821 0.0
H1000 H 0.84428 0.99388 0.87644 0.0
H1001 H 0.87613 0.95302 0.83563 0.0
H1002 H 0.93918 0.96746 0.84097 0.0
H1003 H 0.10825 0.90304 0.89182 0.0
H1004 H 0.06351 0.95072 0.89153 0.0
H1005 H 0.04579 0.93293 0.84671 0.0
H1006 H 0.09053 0.88514 0.84685 0.0
H1007 H 0.98265 0.94325 0.86201 0.0
H1008 H 0.09714 0.00012 0.85608 0.0
H1009 H 0.15984 0.01405 0.86215 0.0
H1010 H 0.12636 0.05601 0.90258 0.0
H1011 H 0.06348 0.04192 0.89682 0.0
C1012 C 0.90686 0.1001 0.85756 0.0
C1013 C 0.89977 0.118 0.87043 0.0
C1014 C 0.93246 0.07287 0.85702 0.0
C1015 C 0.95143 0.06317 0.86932 0.0
C1016 C 0.94554 0.08199 0.88202 0.0
C1017 C 0.91983 0.10905 0.8826 0.0
C1018 C 0.97672 0.0327 0.8691 0.0
C1019 C 0.01252 0.03888 0.87285 0.0
C1020 C 0.96575 0.99785 0.86512 0.0
C1021 C 0.92783 0.98924 0.86187 0.0
C1022 C 0.90071 0.99638 0.87187 0.0
C1023 C 0.86504 0.98823 0.86873 0.0
C1024 C 0.8562 0.97266 0.85567 0.0
C1025 C 0.88302 0.96514 0.84573 0.0
C1026 C 0.91872 0.97329 0.84881 0.0
C1027 C 0.09457 0.90892 0.88192 0.0
C1028 C 0.10315 0.89042 0.86933 0.0
C1029 C 0.06916 0.93632 0.88177 0.0
C1030 C 0.05181 0.94562 0.86905 0.0
C1031 C 0.05907 0.9262 0.85661 0.0
C1032 C 0.08467 0.89895 0.85672 0.0
C1033 C 0.02681 0.97629 0.86867 0.0
C1034 C 0.99108 0.97014 0.86481 0.0
C1035 C 0.03781 0.01116 0.87258 0.0
C1036 C 0.07563 0.01961 0.87607 0.0
C1037 C 0.10317 0.01202 0.86631 0.0
C1038 C 0.13874 0.02001 0.86969 0.0
C1039 C 0.14708 0.0358 0.88276 0.0
C1040 C 0.11986 0.04373 0.89246 0.0
C1041 C 0.08425 0.03578 0.88914 0.0
H1042 H 0.17461 0.04193 0.88538 0.0
H1043 H 0.82859 0.96634 0.85325 0.0
H1044 H 0.89169 0.1036 0.60966 0.0
H1045 H 0.93821 0.05803 0.61087 0.0
H1046 H 0.93827 0.06505 0.65671 0.0
H1047 H 0.89199 0.11134 0.65563 0.0
H1048 H 0.0055 0.06495 0.64623 0.0
H1049 H 0.90031 0.99383 0.64028 0.0
H1050 H 0.84332 0.97534 0.62927 0.0
H1051 H 0.89753 0.9546 0.58981 0.0
H1052 H 0.95479 0.97345 0.60052 0.0
H1053 H 0.11009 0.90456 0.65434 0.0
H1054 H 0.06421 0.95117 0.65572 0.0
H1055 H 0.05794 0.9539 0.60987 0.0
H1056 H 0.10347 0.90731 0.60835 0.0
H1057 H 0.99247 0.94757 0.62208 0.0
H1058 H 0.09724 0.02122 0.62794 0.0
H1059 H 0.15407 0.03975 0.63907 0.0
H1060 H 0.10029 0.05509 0.67902 0.0
H1061 H 0.04319 0.03617 0.66816 0.0
C1062 C 0.90129 0.0953 0.62003 0.0
C1063 C 0.88792 0.11102 0.63256 0.0
C1064 C 0.92788 0.06916 0.62069 0.0
C1065 C 0.9414 0.05787 0.63389 0.0
C1066 C 0.92811 0.07335 0.64643 0.0
C1067 C 0.90152 0.09965 0.64578 0.0
C1068 C 0.96998 0.03041 0.63448 0.0
C1069 C 0.00247 0.03903 0.64116 0.0
C1070 C 0.96618 0.99688 0.62765 0.0
C1071 C 0.9318 0.98534 0.62118 0.0
C1072 C 0.90004 0.98558 0.62923 0.0
C1073 C 0.86769 0.97499 0.62304 0.0
C1074 C 0.86679 0.96388 0.60884 0.0
C1075 C 0.89826 0.96324 0.60081 0.0
C1076 C 0.93068 0.97384 0.60693 0.0
C1077 C 0.09929 0.91538 0.64454 0.0
C1078 C 0.11037 0.90206 0.63123 0.0
C1079 C 0.07311 0.94206 0.64535 0.0
C1080 C 0.05771 0.95595 0.63289 0.0
C1081 C 0.0694 0.9434 0.61961 0.0
C1082 C 0.09554 0.91683 0.61878 0.0
C1083 C 0.02817 0.98232 0.63362 0.0
C1084 C 0.99543 0.97342 0.62721 0.0
C1085 C 0.03174 0.01548 0.64074 0.0
C1086 C 0.06603 0.02689 0.64728 0.0
C1087 C 0.09759 0.02823 0.63913 0.0
C1088 C 0.12984 0.03887 0.64538 0.0
C1089 C 0.13081 0.04848 0.65976 0.0
C1090 C 0.09951 0.04757 0.66789 0.0
C1091 C 0.06719 0.03692 0.66169 0.0
H1092 H 0.1558 0.05672 0.66458 0.0
H1093 H 0.84172 0.95569 0.60408 0.0
H1094 H 0.10124 0.1052 0.34742 0.0
H1095 H 0.05619 0.05786 0.34705 0.0
H1096 H 0.04457 0.06622 0.39263 0.0
H1097 H 0.08985 0.1133 0.39316 0.0
H1098 H 0.05336 0.9976 0.38423 0.0
H1099 H 0.98016 0.09782 0.37043 0.0
H1100 H 0.96376 0.15032 0.35591 0.0
H1101 H 0.95893 0.08428 0.31854 0.0
H1102 H 0.97579 0.03144 0.33281 0.0
H1103 H 0.89701 0.89494 0.39453 0.0
H1104 H 0.94278 0.94121 0.39336 0.0
H1105 H 0.94523 0.93208 0.34757 0.0
H1106 H 0.8985 0.88631 0.3486 0.0
H1107 H 0.94259 -5e-05 0.35511 0.0
H1108 H 0.01401 0.89937 0.36879 0.0
H1109 H 0.03075 0.84664 0.38311 0.0
H1110 H 0.03985 0.91269 0.42035 0.0
H1111 H 0.02268 0.96576 0.40629 0.0
C1112 C 0.08881 0.09733 0.35736 0.0
C1113 C 0.09923 0.11305 0.37033 0.0
C1114 C 0.06301 0.07027 0.35712 0.0
C1115 C 0.04698 0.05862 0.36981 0.0
C1116 C 0.05671 0.07478 0.38272 0.0
C1117 C 0.0825 0.1018 0.38298 0.0
C1118 C 0.02114 0.02856 0.36973 0.0
C1119 C 0.02889 0.99826 0.37801 0.0
C1120 C 0.98987 0.02903 0.36125 0.0
C1121 C 0.97959 0.06075 0.35266 0.0
C1122 C 0.97588 0.09455 0.35909 0.0
C1123 C 0.96645 0.12436 0.35092 0.0
C1124 C 0.9604 0.12066 0.33631 0.0
C1125 C 0.96367 0.08712 0.32986 0.0
C1126 C 0.97313 0.05722 0.33799 0.0
C1127 C 0.9075 0.90241 0.3842 0.0
C1128 C 0.89409 0.88684 0.37165 0.0
C1129 C 0.93382 0.92884 0.38356 0.0
C1130 C 0.94775 0.93985 0.37039 0.0
C1131 C 0.93487 0.92397 0.35785 0.0
C1132 C 0.90827 0.8977 0.35846 0.0
C1133 C 0.97462 0.96902 0.36972 0.0
C1134 C 0.96712 -0.00085 0.36129 0.0
C1135 C 0.00623 0.96835 0.37803 0.0
C1136 C 0.01677 0.9365 0.3865 0.0
C1137 C 0.01934 0.90261 0.38005 0.0
C1138 C 0.02894 0.87267 0.38812 0.0
C1139 C 0.03628 0.8763 0.40264 0.0
C1140 C 0.03413 0.90991 0.40911 0.0
C1141 C 0.0245 0.93994 0.40109 0.0
H1142 H 0.04371 0.85308 0.40887 0.0
H1143 H 0.9531 0.14377 0.32999 0.0
H1144 H 0.40184 0.38282 0.61012 0.0
H1145 H 0.44846 0.4285 0.61142 0.0
H1146 H 0.42948 0.44047 0.65645 0.0
H1147 H 0.38285 0.3945 0.65533 0.0
H1148 H 0.43793 0.50609 0.64183 0.0
H1149 H 0.49785 0.39405 0.64737 0.0
H1150 H 0.51499 0.33201 0.64157 0.0
H1151 H 0.55805 0.36687 0.60152 0.0
H1152 H 0.54065 0.42912 0.60698 0.0
H1153 H 0.59811 0.60254 0.65563 0.0
H1154 H 0.55225 0.55598 0.65663 0.0
H1155 H 0.56841 0.53361 0.61204 0.0
H1156 H 0.61444 0.57993 0.61092 0.0
H1157 H 0.56167 0.47252 0.62791 0.0
H1158 H 0.49969 0.58463 0.6222 0.0
H1159 H 0.48362 0.64673 0.62839 0.0
H1160 H 0.44489 0.61167 0.66912 0.0
H1161 H 0.46123 0.54939 0.66324 0.0
C1162 C 0.40725 0.39538 0.62029 0.0
C1163 C 0.38873 0.38488 0.63264 0.0
C1164 C 0.43403 0.42135 0.62101 0.0
C1165 C 0.44261 0.43747 0.63406 0.0
C1166 C 0.42326 0.42818 0.6463 0.0
C1167 C 0.39669 0.4019 0.64563 0.0
C1168 C 0.47248 0.46335 0.63491 0.0
C1169 C 0.4651 0.49869 0.63899 0.0
C1170 C 0.50774 0.45368 0.63099 0.0
C1171 C 0.51761 0.4162 0.62753 0.0
C1172 C 0.51059 0.38844 0.63725 0.0
C1173 C 0.52043 0.35326 0.63405 0.0
C1174 C 0.53755 0.34554 0.62118 0.0
C1175 C 0.54476 0.37293 0.61148 0.0
C1176 C 0.53493 0.40817 0.61462 0.0
C1177 C 0.59224 0.58747 0.64606 0.0
C1178 C 0.60981 0.59513 0.63316 0.0
C1179 C 0.56587 0.56102 0.64665 0.0
C1180 C 0.55662 0.54178 0.63436 0.0
C1181 C 0.57509 0.54831 0.62163 0.0
C1182 C 0.60135 0.57483 0.62101 0.0
C1183 C 0.52709 0.5154 0.63466 0.0
C1184 C 0.53453 0.47992 0.63079 0.0
C1185 C 0.49192 0.52497 0.63879 0.0
C1186 C 0.48205 0.5624 0.64234 0.0
C1187 C 0.48804 0.5902 0.63253 0.0
C1188 C 0.47883 0.62543 0.63597 0.0
C1189 C 0.46334 0.63316 0.64916 0.0
C1190 C 0.45695 0.60566 0.65892 0.0
C1191 C 0.46616 0.57038 0.65553 0.0
H1192 H 0.4562 0.66045 0.6518 0.0
H1193 H 0.54537 0.31836 0.61878 0.0
H1194 H 0.40751 0.61246 0.39095 0.0
H1195 H 0.45228 0.56534 0.38888 0.0
H1196 H 0.43418 0.56006 0.34356 0.0
H1197 H 0.38879 0.60705 0.34554 0.0
H1198 H 0.43501 0.49434 0.35522 0.0
H1199 H 0.50998 0.59702 0.35633 0.0
H1200 H 0.53383 0.65457 0.36497 0.0
H1201 H 0.56359 0.60542 0.40456 0.0
H1202 H 0.53936 0.54768 0.39627 0.0
H1203 H 0.59184 0.38301 0.34561 0.0
H1204 H 0.54694 0.43064 0.34398 0.0
H1205 H 0.54681 0.44068 0.38972 0.0
H1206 H 0.59133 0.39316 0.3915 0.0
H1207 H 0.5573 0.50549 0.37533 0.0
H1208 H 0.47782 0.40359 0.37423 0.0
H1209 H 0.45504 0.34622 0.36495 0.0
H1210 H 0.43563 0.39487 0.32425 0.0
H1211 H 0.45879 0.45245 0.33324 0.0
C1212 C 0.41324 0.60161 0.3805 0.0
C1213 C 0.39464 0.61368 0.3684 0.0
C1214 C 0.43895 0.57471 0.37933 0.0
C1215 C 0.44681 0.55945 0.36604 0.0
C1216 C 0.42855 0.57157 0.35391 0.0
C1217 C 0.40278 0.59856 0.35506 0.0
C1218 C 0.47317 0.52993 0.36501 0.0
C1219 C 0.46198 0.49697 0.35937 0.0
C1220 C 0.50818 0.53326 0.37061 0.0
C1221 C 0.52253 0.56805 0.37571 0.0
C1222 C 0.52128 0.59854 0.36694 0.0
C1223 C 0.53493 0.6312 0.37176 0.0
C1224 C 0.55014 0.63367 0.38532 0.0
C1225 C 0.55176 0.60348 0.39407 0.0
C1226 C 0.53809 0.57077 0.38931 0.0
C1227 C 0.58191 0.39501 0.35533 0.0
C1228 C 0.5953 0.38434 0.36868 0.0
C1229 C 0.55626 0.42219 0.35437 0.0
C1230 C 0.54374 0.43917 0.36673 0.0
C1231 C 0.5563 0.42794 0.38006 0.0
C1232 C 0.58164 0.40064 0.38105 0.0
C1233 C 0.51884 0.46986 0.36583 0.0
C1234 C 0.53041 0.50305 0.37107 0.0
C1235 C 0.48435 0.4668 0.35977 0.0
C1236 C 0.47045 0.43221 0.35435 0.0
C1237 C 0.46903 0.40197 0.36326 0.0
C1238 C 0.45598 0.36943 0.35806 0.0
C1239 C 0.44401 0.36687 0.344 0.0
C1240 C 0.44498 0.39687 0.33512 0.0
C1241 C 0.45805 0.42947 0.34027 0.0
H1242 H 0.43389 0.34166 0.34 0.0
H1243 H 0.56073 0.65897 0.38902 0.0
H1244 H 0.60494 0.40667 0.15296 0.0
H1245 H 0.55682 0.45079 0.15215 0.0
H1246 H 0.55914 0.44863 0.10625 0.0
H1247 H 0.60756 0.40459 0.10691 0.0
H1248 H 0.55215 0.51685 0.11684 0.0
H1249 H 0.49628 0.40229 0.1234 0.0
H1250 H 0.48698 0.3438 0.13501 0.0
H1251 H 0.45994 0.39658 0.17417 0.0
H1252 H 0.46955 0.4554 0.16284 0.0
H1253 H 0.38368 0.59991 0.10599 0.0
H1254 H 0.43255 0.55646 0.10591 0.0
H1255 H 0.43137 0.55409 0.15182 0.0
H1256 H 0.38229 0.59728 0.15204 0.0
H1257 H 0.43723 0.48733 0.14064 0.0
H1258 H 0.4992 0.60045 0.13526 0.0
H1259 H 0.51274 0.6592 0.12453 0.0
H1260 H 0.52753 0.6095 0.08375 0.0
H1261 H 0.51509 0.55028 0.09432 0.0
C1262 C 0.59555 0.4158 0.14267 0.0
C1263 C 0.60997 0.40186 0.12999 0.0
C1264 C 0.56788 0.44089 0.14224 0.0
C1265 C 0.55403 0.45245 0.12915 0.0
C1266 C 0.56935 0.43985 0.11647 0.0
C1267 C 0.59701 0.41467 0.11687 0.0
C1268 C 0.52299 0.47708 0.12871 0.0
C1269 C 0.52685 0.51019 0.12186 0.0
C1270 C 0.49024 0.46861 0.13552 0.0
C1271 C 0.48399 0.43326 0.14231 0.0
C1272 C 0.48861 0.40142 0.13451 0.0
C1273 C 0.48325 0.36821 0.14104 0.0
C1274 C 0.47305 0.36648 0.15533 0.0
C1275 C 0.46794 0.39796 0.16311 0.0
C1276 C 0.4733 0.43125 0.15663 0.0
C1277 C 0.39355 0.58995 0.11608 0.0
C1278 C 0.37902 0.60212 0.12903 0.0
C1279 C 0.42169 0.56531 0.11601 0.0
C1280 C 0.43589 0.55245 0.12886 0.0
C1281 C 0.42084 0.56376 0.14178 0.0
C1282 C 0.39274 0.58843 0.14188 0.0
C1283 C 0.46648 0.52721 0.12884 0.0
C1284 C 0.4625 0.49393 0.13558 0.0
C1285 C 0.49915 0.53552 0.12198 0.0
C1286 C 0.50587 0.57106 0.11553 0.0
C1287 C 0.5051 0.60211 0.12398 0.0
C1288 C 0.51266 0.63547 0.11794 0.0
C1289 C 0.52053 0.63815 0.10344 0.0
C1290 C 0.52129 0.60741 0.09497 0.0
C1291 C 0.51423 0.57392 0.10099 0.0
H1292 H 0.52626 0.66403 0.09879 0.0
H1293 H 0.46899 0.34075 0.16038 0.0
H1294 H 0.41184 0.39482 0.89614 0.0
H1295 H 0.45723 0.44197 0.89561 0.0
H1296 H 0.45524 0.44096 0.84969 0.0
H1297 H 0.40979 0.3941 0.85008 0.0
H1298 H 0.52465 0.44719 0.88392 0.0
H1299 H 0.45947 0.52771 0.83812 0.0
H1300 H 0.39966 0.53784 0.82771 0.0
H1301 H 0.35066 0.51364 0.86793 0.0
H1302 H 0.41015 0.50389 0.87862 0.0
H1303 H 0.60603 0.61347 0.84719 0.0
H1304 H 0.56108 0.56592 0.84787 0.0
H1305 H 0.56307 0.56773 0.89377 0.0
H1306 H 0.60803 0.61506 0.89326 0.0
H1307 H 0.49364 0.56114 0.85966 0.0
H1308 H 0.55864 0.48084 0.9055 0.0
H1309 H 0.61838 0.47078 0.91598 0.0
H1310 H 0.66765 0.49467 0.87579 0.0
H1311 H 0.60822 0.50437 0.86502 0.0
C1312 C 0.42132 0.40432 0.88592 0.0
C1313 C 0.40691 0.3909 0.87315 0.0
C1314 C 0.44729 0.43123 0.88565 0.0
C1315 C 0.45908 0.4453 0.87262 0.0
C1316 C 0.44601 0.43083 0.85986 0.0
C1317 C 0.42014 0.40392 0.86012 0.0
C1318 C 0.48408 0.476 0.87234 0.0
C1319 C 0.51774 0.47227 0.87878 0.0
C1320 C 0.4752 0.50844 0.86539 0.0
C1321 C 0.43927 0.51468 0.85911 0.0
C1322 C 0.43593 0.52467 0.84475 0.0
C1323 C 0.40209 0.53034 0.8388 0.0
C1324 C 0.37138 0.52626 0.84714 0.0
C1325 C 0.37446 0.51664 0.86146 0.0
C1326 C 0.40823 0.511 0.86747 0.0
C1327 C 0.59666 0.60404 0.85744 0.0
C1328 C 0.61087 0.61789 0.87017 0.0
C1329 C 0.57096 0.57689 0.85779 0.0
C1330 C 0.55925 0.56298 0.87086 0.0
C1331 C 0.57223 0.57774 0.88358 0.0
C1332 C 0.59782 0.60493 0.88325 0.0
C1333 C 0.53423 0.5323 0.87121 0.0
C1334 C 0.50056 0.53606 0.8648 0.0
C1335 C 0.54309 0.4999 0.87819 0.0
C1336 C 0.57897 0.49372 0.88451 0.0
C1337 C 0.58222 0.48383 0.89889 0.0
C1338 C 0.61603 0.4782 0.90488 0.0
C1339 C 0.64679 0.48221 0.89657 0.0
C1340 C 0.64381 0.49172 0.88223 0.0
C1341 C 0.61007 0.49734 0.87619 0.0
H1342 H 0.67293 0.47786 0.90123 0.0
H1343 H 0.3452 0.53063 0.84251 0.0
H1344 H 0.24772 0.33716 0.94474 0.0
H1345 H 0.21956 0.31982 0.9674 0.0
H1346 H 0.30284 0.24174 0.97427 0.0
H1347 H 0.33119 0.25921 0.95185 0.0
H1348 H 0.22927 0.21675 0.97849 0.0
H1349 H 0.31012 0.31477 0.99106 0.0
H1350 H 0.3317 0.37698 0.98921 0.0
H1351 H 0.228 0.41587 0.00148 0.0
H1352 H 0.20568 0.35383 0.0032 0.0
H1353 H 0.23607 0.16073 0.04873 0.0
H1354 H 0.24868 0.18587 0.02532 0.0
H1355 H 0.17437 0.27195 0.03346 0.0
H1356 H 0.1622 0.24708 0.05716 0.0
H1357 H 0.23154 0.29734 0.02049 0.0
H1358 H 0.15157 0.20222 0.01128 0.0
H1359 H 0.12639 0.14135 0.01274 0.0
H1360 H 0.22119 0.09849 0.9933 0.0
H1361 H 0.2472 0.15905 0.99191 0.0
C1362 C 0.2597 0.31606 0.95104 0.0
C1363 C 0.29142 0.29927 0.94654 0.0
C1364 C 0.24376 0.30636 0.96398 0.0
C1365 C 0.25916 0.27949 0.97245 0.0
C1366 C 0.29054 0.26245 0.96785 0.0
C1367 C 0.30675 0.27254 0.95509 0.0
C1368 C 0.24321 0.26907 0.98625 0.0
C1369 C 0.22981 0.23425 0.98771 0.0
C1370 C 0.24262 0.29252 0.99806 0.0
C1371 C 0.25612 0.32972 0.99708 0.0
C1372 C 0.29183 0.3366 0.99322 0.0
C1373 C 0.30422 0.37182 0.99223 0.0
C1374 C 0.2812 0.40037 0.99518 0.0
C1375 C 0.24578 0.39374 0.99917 0.0
C1376 C 0.23325 0.35856 1.00016 0.0
C1377 C 0.22248 0.18507 0.04555 0.0
C1378 C 0.19834 0.20207 0.05479 0.0
C1379 C 0.22954 0.19933 0.03213 0.0
C1380 C 0.21192 0.23042 0.02749 0.0
C1381 C 0.18821 0.24789 0.0368 0.0
C1382 C 0.18144 0.23379 0.05036 0.0
C1383 C 0.21872 0.24438 0.01292 0.0
C1384 C 0.2303 0.2799 0.01127 0.0
C1385 C 0.21698 0.22175 1.00083 0.0
C1386 C 0.20143 0.1852 0.00157 0.0
C1387 C 0.16716 0.17979 0.0074 0.0
C1388 C 0.15272 0.14534 0.00821 0.0
C1389 C 0.1722 0.11606 0.00314 0.0
C1390 C 0.20613 0.12119 0.99722 0.0
C1391 C 0.22072 0.15559 0.9964 0.0
H1392 H 0.16097 0.08941 0.00377 0.0
H1393 H 0.29084 0.42762 0.99441 0.0
H1394 H 0.3264 0.74031 0.05564 0.0
H1395 H 0.31507 0.76495 0.03187 0.0
H1396 H 0.22139 0.69796 0.02803 0.0
H1397 H 0.23351 0.67247 0.05148 0.0
H1398 H 0.25499 0.69519 0.00469 0.0
H1399 H 0.21852 0.79171 0.03526 0.0
H1400 H 0.22593 0.83676 0.05422 0.0
H1401 H 0.3118 0.88562 0.03086 0.0
H1402 H 0.30521 0.84053 0.01184 0.0
H1403 H 0.16867 0.83419 0.95519 0.0
H1404 H 0.18936 0.81756 0.97899 0.0
H1405 H 0.27621 0.7574 0.96043 0.0
H1406 H 0.25477 0.77267 0.93663 0.0
H1407 H 0.24864 0.82545 0.99472 0.0
H1408 H 0.28644 0.68071 0.97885 0.0
H1409 H 0.27005 0.63568 0.96073 0.0
H1410 H 0.16613 0.68362 0.95643 0.0
H1411 H 0.18173 0.72859 0.97462 0.0
C1412 C 0.3032 0.73124 0.04975 0.0
C1413 C 0.28057 0.70482 0.05542 0.0
C1414 C 0.29672 0.7453 0.03617 0.0
C1415 C 0.26709 0.73366 0.02817 0.0
C1416 C 0.24448 0.70734 0.03393 0.0
C1417 C 0.25132 0.69286 0.04735 0.0
C1418 C 0.25979 0.74809 0.01368 0.0
C1419 C 0.2538 0.7237 0.00255 0.0
C1420 C 0.25775 0.78529 0.01082 0.0
C1421 C 0.26162 0.81253 0.0222 0.0
C1422 C 0.23914 0.81191 0.03422 0.0
C1423 C 0.24317 0.83747 0.04497 0.0
C1424 C 0.26938 0.86398 0.04377 0.0
C1425 C 0.29155 0.86503 0.03179 0.0
C1426 C 0.28767 0.8395 0.02102 0.0
C1427 C 0.19244 0.81776 0.95619 0.0
C1428 C 0.21034 0.80517 0.94402 0.0
C1429 C 0.20437 0.80849 0.9698 0.0
C1430 C 0.23424 0.78611 0.9715 0.0
C1431 C 0.253 0.7746 0.95937 0.0
C1432 C 0.24098 0.78376 0.94575 0.0
C1433 C 0.24379 0.7725 0.98587 0.0
C1434 C 0.25028 0.79698 0.99691 0.0
C1435 C 0.24512 0.73538 0.9888 0.0
C1436 C 0.23542 0.7082 0.97797 0.0
C1437 C 0.26008 0.68155 0.97406 0.0
C1438 C 0.25092 0.65606 0.96378 0.0
C1439 C 0.21711 0.65688 0.95742 0.0
C1440 C 0.19234 0.68311 0.96133 0.0
C1441 C 0.20134 0.70861 0.97161 0.0
H1442 H 0.21002 0.63713 0.94951 0.0
H1443 H 0.27246 0.88374 0.0521 0.0
H1444 H 0.68783 0.75891 0.94772 0.0
H1445 H 0.71406 0.76939 0.97127 0.0
H1446 H 0.77831 0.6742 0.96679 0.0
H1447 H 0.75275 0.664 0.94299 0.0
H1448 H 0.719 0.6996 0.99467 0.0
H1449 H 0.83249 0.71522 0.96802 0.0
H1450 H 0.86624 0.741 0.9479 0.0
H1451 H 0.83383 0.84668 0.96047 0.0
H1452 H 0.79941 0.82138 0.98053 0.0
H1453 H 0.79433 0.73366 0.06201 0.0
H1454 H 0.7886 0.71023 0.03796 0.0
H1455 H 0.79265 0.81775 0.02122 0.0
H1456 H 0.80221 0.84101 0.04513 0.0
H1457 H 0.82387 0.77806 0.00339 0.0
H1458 H 0.71138 0.76874 0.02843 0.0
H1459 H 0.67101 0.74929 0.04772 0.0
H1460 H 0.6932 0.63928 0.03782 0.0
H1461 H 0.73405 0.65812 0.01857 0.0
C1462 C 0.7078 0.74042 0.95171 0.0
C1463 C 0.71864 0.71092 0.94352 0.0
C1464 C 0.72275 0.74645 0.96511 0.0
C1465 C 0.7483 0.72276 0.97063 0.0
C1466 C 0.75899 0.69303 0.96256 0.0
C1467 C 0.74451 0.68733 0.949 0.0
C1468 C 0.76237 0.72877 0.98511 0.0
C1469 C 0.74246 0.71597 0.99667 0.0
C1470 C 0.79211 0.75118 0.98757 0.0
C1471 C 0.81307 0.76639 0.97564 0.0
C1472 C 0.83226 0.74391 0.96638 0.0
C1473 C 0.85158 0.75844 0.95502 0.0
C1474 C 0.85208 0.79545 0.95288 0.0
C1475 C 0.83336 0.81801 0.96212 0.0
C1476 C 0.81397 0.80359 0.97349 0.0
C1477 C 0.79577 0.75226 0.05322 0.0
C1478 C 0.79977 0.78924 0.05555 0.0
C1479 C 0.79155 0.73883 0.03942 0.0
C1480 C 0.78952 0.7622 0.02772 0.0
C1481 C 0.7942 0.79904 0.03001 0.0
C1482 C 0.79939 0.81236 0.04374 0.0
C1483 C 0.78049 0.74889 0.01321 0.0
C1484 C 0.80102 0.76074 0.00157 0.0
C1485 C 0.75072 0.72617 0.01067 0.0
C1486 C 0.72606 0.71483 0.02218 0.0
C1487 C 0.70781 0.74041 0.03043 0.0
C1488 C 0.68483 0.7295 0.04135 0.0
C1489 C 0.67964 0.69307 0.04403 0.0
C1490 C 0.69732 0.66748 0.03576 0.0
C1491 C 0.72037 0.67825 0.02484 0.0
H1492 H 0.66184 0.68468 0.05248 0.0
H1493 H 0.86705 0.80666 0.94407 0.0
H1494 H 0.84225 0.2379 0.95417 0.0
H1495 H 0.81784 0.24996 0.97777 0.0
H1496 H 0.72428 0.18715 0.96768 0.0
H1497 H 0.74849 0.17549 0.94385 0.0
H1498 H 0.70502 0.24513 0.9818 0.0
H1499 H 0.79027 0.1535 0.98941 0.0
H1500 H 0.84808 0.12199 0.9876 0.0
H1501 H 0.90012 0.20824 0.0096 0.0
H1502 H 0.84271 0.24055 0.01135 0.0
H1503 H 0.66168 0.25444 0.05718 0.0
H1504 H 0.67714 0.2283 0.03393 0.0
H1505 H 0.76711 0.30015 0.03065 0.0
H1506 H 0.75171 0.32639 0.05369 0.0
H1507 H 0.78269 0.22675 0.02405 0.0
H1508 H 0.6952 0.3201 0.01332 0.0
H1509 H 0.63582 0.34851 0.01536 0.0
H1510 H 0.58593 0.25262 0.99983 0.0
H1511 H 0.64504 0.22347 0.99788 0.0
C1512 C 0.81641 0.22675 0.95696 0.0
C1513 C 0.79714 0.20603 0.94713 0.0
C1514 C 0.80255 0.23349 0.97048 0.0
C1515 C 0.7695 0.2189 0.97462 0.0
C1516 C 0.74985 0.19865 0.96473 0.0
C1517 C 0.76359 0.1922 0.95109 0.0
C1518 C 0.75582 0.22513 0.98927 0.0
C1519 C 0.72175 0.2404 0.99106 0.0
C1520 C 0.77751 0.21891 0.0014 0.0
C1521 C 0.81217 0.19956 1.00043 0.0
C1522 C 0.81407 0.16588 0.99377 0.0
C1523 C 0.84678 0.14785 0.99277 0.0
C1524 C 0.87776 0.16313 0.99846 0.0
C1525 C 0.8761 0.19644 0.00519 0.0
C1526 C 0.84346 0.2146 0.00621 0.0
C1527 C 0.68496 0.26429 0.05154 0.0
C1528 C 0.70571 0.29221 0.05724 0.0
C1529 C 0.6936 0.24954 0.03826 0.0
C1530 C 0.72327 0.26233 0.03062 0.0
C1531 C 0.74419 0.28985 0.03641 0.0
C1532 C 0.73528 0.3049 0.04953 0.0
C1533 C 0.73262 0.24778 0.01644 0.0
C1534 C 0.76583 0.23083 0.01478 0.0
C1535 C 0.7099 0.25187 0.0045 0.0
C1536 C 0.67446 0.26947 0.00563 0.0
C1537 C 0.67153 0.30496 0.01047 0.0
C1538 C 0.63794 0.32122 0.01158 0.0
C1539 C 0.60711 0.30234 0.00777 0.0
C1540 C 0.60982 0.26719 0.0028 0.0
C1541 C 0.64336 0.25079 0.00169 0.0
H1542 H 0.58112 0.31497 0.00864 0.0
H1543 H 0.90306 0.14914 0.99767 0.0
H1544 H 0.83337 0.17842 0.5441 0.0
H1545 H 0.81532 0.20042 0.52068 0.0
H1546 H 0.73911 0.27152 0.54049 0.0
H1547 H 0.75567 0.24829 0.56382 0.0
H1548 H 0.70904 0.23829 0.51928 0.0
H1549 H 0.81855 0.3025 0.52519 0.0
H1550 H 0.88283 0.31057 0.53019 0.0
H1551 H 0.90941 0.24375 0.49452 0.0
H1552 H 0.84524 0.23486 0.48943 0.0
H1553 H 0.6678 0.33621 0.4569 0.0
H1554 H 0.69163 0.32125 0.48039 0.0
H1555 H 0.75777 0.23924 0.46164 0.0
H1556 H 0.73345 0.25337 0.43817 0.0
H1557 H 0.79388 0.28051 0.48226 0.0
H1558 H 0.68328 0.21529 0.47722 0.0
H1559 H 0.61876 0.20895 0.47228 0.0
H1560 H 0.59442 0.28045 0.50675 0.0
H1561 H 0.65886 0.28762 0.51176 0.0
C1562 C 0.81296 0.19896 0.54347 0.0
C1563 C 0.79665 0.21224 0.55589 0.0
C1564 C 0.80286 0.21173 0.53008 0.0
C1565 C 0.77632 0.23816 0.52881 0.0
C1566 C 0.75996 0.25143 0.5412 0.0
C1567 C 0.7699 0.23851 0.55459 0.0
C1568 C 0.76419 0.25042 0.51455 0.0
C1569 C 0.72758 0.24811 0.51129 0.0
C1570 C 0.78842 0.26246 0.50398 0.0
C1571 C 0.82705 0.26774 0.50701 0.0
C1572 C 0.83809 0.28928 0.51848 0.0
C1573 C 0.87451 0.29405 0.52132 0.0
C1574 C 0.90019 0.27761 0.5127 0.0
C1575 C 0.88949 0.25644 0.5012 0.0
C1576 C 0.85309 0.25155 0.49832 0.0
C1577 C 0.68757 0.31509 0.45774 0.0
C1578 C 0.69915 0.29643 0.44558 0.0
C1579 C 0.70117 0.30663 0.47117 0.0
C1580 C 0.72642 0.27911 0.47274 0.0
C1581 C 0.73857 0.26083 0.46062 0.0
C1582 C 0.72484 0.26919 0.44717 0.0
C1583 C 0.7389 0.2684 0.4871 0.0
C1584 C 0.77547 0.27089 0.49033 0.0
C1585 C 0.71466 0.25676 0.49771 0.0
C1586 C 0.6759 0.25227 0.49477 0.0
C1587 C 0.66418 0.22988 0.48367 0.0
C1588 C 0.62762 0.2261 0.48087 0.0
C1589 C 0.60251 0.24436 0.48917 0.0
C1590 C 0.6139 0.26637 0.50031 0.0
C1591 C 0.65044 0.27028 0.50315 0.0
H1592 H 0.57422 0.2414 0.48698 0.0
H1593 H 0.92837 0.28134 0.51492 0.0
H1594 H 0.24003 0.24058 0.43896 0.0
H1595 H 0.264 0.2522 0.46277 0.0
H1596 H 0.18725 0.17859 0.48071 0.0
H1597 H 0.16322 0.167 0.45687 0.0
H1598 H 0.1883 0.23905 0.49526 0.0
H1599 H 0.2768 0.15702 0.47824 0.0
H1600 H 0.32172 0.1332 0.46149 0.0
H1601 H 0.38469 0.22854 0.46638 0.0
H1602 H 0.33986 0.25319 0.483 0.0
H1603 H 0.25979 0.24289 0.56472 0.0
H1604 H 0.24277 0.22039 0.5413 0.0
H1605 H 0.31452 0.29587 0.52147 0.0
H1606 H 0.33277 0.31758 0.54497 0.0
H1607 H 0.31682 0.23092 0.50822 0.0
H1608 H 0.22645 0.31402 0.52405 0.0
H1609 H 0.18152 0.33787 0.54079 0.0
H1610 H 0.12205 0.23978 0.53801 0.0
H1611 H 0.16693 0.21515 0.5214 0.0
C1612 C 0.22896 0.22619 0.44795 0.0
C1613 C 0.20044 0.20218 0.44608 0.0
C1614 C 0.24254 0.23296 0.46155 0.0
C1615 C 0.22782 0.21581 0.47351 0.0
C1616 C 0.19916 0.19196 0.47163 0.0
C1617 C 0.18551 0.18532 0.45804 0.0
C1618 C 0.24101 0.22421 0.48803 0.0
C1619 C 0.21632 0.23665 0.49815 0.0
C1620 C 0.2777 0.22189 0.49172 0.0
C1621 C 0.30479 0.20709 0.48177 0.0
C1622 C 0.30008 0.17304 0.47566 0.0
C1623 C 0.32555 0.15936 0.4662 0.0
C1624 C 0.356 0.17938 0.46285 0.0
C1625 C 0.36107 0.21308 0.46897 0.0
C1626 C 0.33566 0.2269 0.47842 0.0
C1627 C 0.27285 0.25393 0.55543 0.0
C1628 C 0.29819 0.28155 0.55671 0.0
C1629 C 0.26268 0.2414 0.54202 0.0
C1630 C 0.27719 0.25664 0.52963 0.0
C1631 C 0.30306 0.28366 0.53089 0.0
C1632 C 0.31329 0.29616 0.5443 0.0
C1633 C 0.2641 0.24574 0.51537 0.0
C1634 C 0.28879 0.23298 0.50531 0.0
C1635 C 0.2274 0.24773 0.51172 0.0
C1636 C 0.20023 0.26262 0.5216 0.0
C1637 C 0.20392 0.29744 0.52709 0.0
C1638 C 0.17845 0.31112 0.53654 0.0
C1639 C 0.149 0.29032 0.54049 0.0
C1640 C 0.1449 0.25584 0.53496 0.0
C1641 C 0.17034 0.24202 0.52552 0.0
H1642 H 0.12931 0.30095 0.54782 0.0
H1643 H 0.37569 0.16874 0.45553 0.0
H1644 H 0.206 0.84139 0.54523 0.0
H1645 H 0.22258 0.81631 0.52219 0.0
H1646 H 0.19595 0.71056 0.5372 0.0
H1647 H 0.17826 0.73555 0.5602 0.0
H1648 H 0.2607 0.71229 0.52294 0.0
H1649 H 0.14063 0.7494 0.51499 0.0
H1650 H 0.08895 0.79045 0.51539 0.0
H1651 H 0.14481 0.8634 0.48793 0.0
H1652 H 0.19706 0.82303 0.48754 0.0
H1653 H 0.24044 0.68118 0.44091 0.0
H1654 H 0.21412 0.69484 0.4641 0.0
H1655 H 0.31576 0.73567 0.47859 0.0
H1656 H 0.34208 0.72274 0.45534 0.0
H1657 H 0.20616 0.75753 0.47823 0.0
H1658 H 0.32672 0.71446 0.51344 0.0
H1659 H 0.3755 0.66995 0.51305 0.0
H1660 H 0.3128 0.60184 0.48597 0.0
H1661 H 0.26346 0.64567 0.48636 0.0
C1662 C 0.20356 0.81278 0.54367 0.0
C1663 C 0.19145 0.79046 0.55472 0.0
C1664 C 0.21303 0.7985 0.53047 0.0
C1665 C 0.21039 0.7616 0.52797 0.0
C1666 C 0.19842 0.73911 0.53895 0.0
C1667 C 0.1887 0.75344 0.55218 0.0
C1668 C 0.22052 0.74678 0.51389 0.0
C1669 C 0.2487 0.72203 0.51316 0.0
C1670 C 0.20427 0.75891 0.50116 0.0
C1671 C 0.17288 0.78328 0.50132 0.0
C1672 C 0.14201 0.77432 0.50913 0.0
C1673 C 0.11259 0.79745 0.50933 0.0
C1674 C 0.11362 0.82954 0.50171 0.0
C1675 C 0.14405 0.83854 0.49383 0.0
C1676 C 0.17357 0.81552 0.4936 0.0
C1677 C 0.25702 0.69384 0.44888 0.0
C1678 C 0.29319 0.70166 0.44614 0.0
C1679 C 0.242 0.70125 0.46221 0.0
C1680 C 0.26302 0.71606 0.4731 0.0
C1681 C 0.29914 0.7238 0.4704 0.0
C1682 C 0.31412 0.71649 0.4571 0.0
C1683 C 0.24723 0.72403 0.48725 0.0
C1684 C 0.21799 0.74753 0.488 0.0
C1685 C 0.26213 0.71028 0.5 0.0
C1686 C 0.29151 0.68353 0.49984 0.0
C1687 C 0.32327 0.68991 0.50746 0.0
C1688 C 0.35104 0.66481 0.50723 0.0
C1689 C 0.34729 0.63313 0.49946 0.0
C1690 C 0.31572 0.62644 0.49194 0.0
C1691 C 0.28787 0.65143 0.49215 0.0
H1692 H 0.36883 0.61375 0.49929 0.0
H1693 H 0.09081 0.84741 0.50188 0.0
H1694 H 0.83333 0.75012 0.45164 0.0
H1695 H 0.80747 0.73196 0.47445 0.0
H1696 H 0.72519 0.81217 0.46995 0.0
H1697 H 0.75104 0.83051 0.44702 0.0
H1698 H 0.75927 0.80916 0.49764 0.0
H1699 H 0.70057 0.73258 0.46422 0.0
H1700 H 0.69765 0.69075 0.44395 0.0
H1701 H 0.76167 0.61484 0.46697 0.0
H1702 H 0.7655 0.65648 0.4873 0.0
H1703 H 0.66537 0.73755 0.55769 0.0
H1704 H 0.67971 0.76139 0.53409 0.0
H1705 H 0.75473 0.67507 0.52753 0.0
H1706 H 0.74008 0.65096 0.55099 0.0
H1707 H 0.7168 0.68449 0.50447 0.0
H1708 H 0.78116 0.76218 0.53658 0.0
H1709 H 0.78729 0.80415 0.5567 0.0
H1710 H 0.71549 0.87767 0.53621 0.0
H1711 H 0.70854 0.83587 0.51605 0.0
C1712 C 0.80974 0.7639 0.45552 0.0
C1713 C 0.79384 0.79133 0.44749 0.0
C1714 C 0.79495 0.75343 0.4685 0.0
C1715 C 0.76425 0.77051 0.47378 0.0
C1716 C 0.74877 0.79855 0.46598 0.0
C1717 C 0.76333 0.80875 0.45285 0.0
C1718 C 0.74858 0.75866 0.48747 0.0
C1719 C 0.7493 0.78213 0.49912 0.0
C1720 C 0.73625 0.72321 0.48937 0.0
C1721 C 0.73355 0.69781 0.47725 0.0
C1722 C 0.71425 0.70708 0.46492 0.0
C1723 C 0.7124 0.68339 0.45342 0.0
C1724 C 0.72953 0.65019 0.45416 0.0
C1725 C 0.74844 0.64058 0.46641 0.0
C1726 C 0.75043 0.66421 0.47793 0.0
C1727 C 0.68532 0.72402 0.5513 0.0
C1728 C 0.70216 0.6928 0.55629 0.0
C1729 C 0.69338 0.73756 0.53778 0.0
C1730 C 0.71868 0.72031 0.52908 0.0
C1731 C 0.73512 0.68887 0.53402 0.0
C1732 C 0.72682 0.67517 0.54744 0.0
C1733 C 0.72822 0.7347 0.51482 0.0
C1734 C 0.72631 0.71168 0.50302 0.0
C1735 C 0.7397 0.7705 0.51282 0.0
C1736 C 0.74401 0.79572 0.52489 0.0
C1737 C 0.76647 0.78718 0.53642 0.0
C1738 C 0.77012 0.81095 0.54782 0.0
C1739 C 0.75171 0.84351 0.54775 0.0
C1740 C 0.72968 0.85241 0.53626 0.0
C1741 C 0.72589 0.82869 0.52484 0.0
H1742 H 0.75457 0.86188 0.55659 0.0
H1743 H 0.7281 0.63189 0.44524 0.0
H1744 H 0.60741 0.23061 0.15405 0.0
H1745 H 0.54949 0.2007 0.15503 0.0
H1746 H 0.54568 0.19779 0.10916 0.0
H1747 H 0.60366 0.22779 0.10803 0.0
H1748 H 0.49332 0.2382 0.14404 0.0
H1749 H 0.48554 0.1303 0.09947 0.0
H1750 H 0.52308 0.08245 0.08926 0.0
H1751 H 0.5816 0.07455 0.12848 0.0
H1752 H 0.54412 0.12199 0.139 0.0
H1753 H 0.32051 0.22491 0.1154 0.0
H1754 H 0.3861 0.22611 0.11661 0.0
H1755 H 0.38509 0.13021 0.14219 0.0
H1756 H 0.31933 0.12899 0.14097 0.0
H1757 H 0.44015 0.13188 0.12049 0.0
H1758 H 0.39422 0.20264 0.15931 0.0
H1759 H 0.35592 0.2493 0.16995 0.0
H1760 H 0.40595 0.329 0.14371 0.0
H1761 H 0.44441 0.28276 0.13284 0.0
C1762 C 0.59491 0.22259 0.14415 0.0
C1763 C 0.6098 0.23242 0.13095 0.0
C1764 C 0.56175 0.20548 0.14475 0.0
C1765 C 0.54313 0.19747 0.13218 0.0
C1766 C 0.55967 0.20365 0.11899 0.0
C1767 C 0.59284 0.22092 0.11837 0.0
C1768 C 0.50443 0.18909 0.1328 0.0
C1769 C 0.48181 0.21472 0.13901 0.0
C1770 C 0.48941 0.15851 0.12623 0.0
C1771 C 0.51217 0.12997 0.11998 0.0
C1772 C 0.50634 0.11829 0.10594 0.0
C1773 C 0.52762 0.09123 0.10009 0.0
C1774 C 0.55477 0.07553 0.1082 0.0
C1775 C 0.56066 0.08683 0.12218 0.0
C1776 C 0.53945 0.11387 0.12808 0.0
C1777 C 0.33442 0.20391 0.12112 0.0
C1778 C 0.3152 0.17698 0.12816 0.0
C1779 C 0.37172 0.20461 0.12182 0.0
C1780 C 0.3903 0.17832 0.12954 0.0
C1781 C 0.37117 0.15064 0.13616 0.0
C1782 C 0.33379 0.1501 0.13555 0.0
C1783 C 0.42945 0.18134 0.13146 0.0
C1784 C 0.45194 0.155 0.12566 0.0
C1785 C 0.44456 0.21118 0.13847 0.0
C1786 C 0.42201 0.23919 0.1452 0.0
C1787 C 0.39695 0.23009 0.15577 0.0
C1788 C 0.37526 0.25648 0.16186 0.0
C1789 C 0.37852 0.2921 0.15751 0.0
C1790 C 0.40353 0.30141 0.14709 0.0
C1791 C 0.42533 0.27514 0.14098 0.0
H1792 H 0.36168 0.31248 0.16222 0.0
H1793 H 0.57118 0.05456 0.10366 0.0
H1794 H 0.14007 0.68474 0.88875 0.0
H1795 H 0.13661 0.61926 0.89036 0.0
H1796 H 0.20455 0.60992 0.85344 0.0
H1797 H 0.20979 0.6751 0.85226 0.0
H1798 H 0.14028 0.5609 0.85507 0.0
H1799 H 0.24314 0.60627 0.88233 0.0
H1800 H 0.26996 0.64281 0.90141 0.0
H1801 H 0.2057 0.58822 0.9325 0.0
H1802 H 0.17774 0.5522 0.91355 0.0
H1803 H 0.24352 0.40712 0.85089 0.0
H1804 H 0.21013 0.4626 0.8515 0.0
H1805 H 0.18609 0.44561 0.89597 0.0
H1806 H 0.22155 0.39055 0.8956 0.0
H1807 H 0.21244 0.50647 0.89376 0.0
H1808 H 0.11843 0.45235 0.86853 0.0
H1809 H 0.08795 0.41527 0.85053 0.0
H1810 H 0.12822 0.48302 0.81727 0.0
H1811 H 0.1594 0.52024 0.83503 0.0
C1812 C 0.15439 0.66867 0.88103 0.0
C1813 C 0.17562 0.68493 0.8705 0.0
C1814 C 0.152 0.63139 0.88186 0.0
C1815 C 0.17025 0.60995 0.87199 0.0
C1816 C 0.19001 0.62614 0.86106 0.0
C1817 C 0.19297 0.66333 0.8604 0.0
C1818 C 0.17192 0.57073 0.87377 0.0
C1819 C 0.15596 0.54872 0.8635 0.0
C1820 C 0.19103 0.55512 0.88516 0.0
C1821 C 0.2079 0.57698 0.8965 0.0
C1822 C 0.23434 0.60246 0.89321 0.0
C1823 C 0.24979 0.62307 0.90401 0.0
C1824 C 0.2394 0.61805 0.91816 0.0
C1825 C 0.21358 0.59235 0.92154 0.0
C1826 C 0.19787 0.57187 0.91077 0.0
C1827 C 0.23034 0.41454 0.86073 0.0
C1828 C 0.23569 0.39464 0.87326 0.0
C1829 C 0.21084 0.44633 0.86103 0.0
C1830 C 0.19531 0.45849 0.87377 0.0
C1831 C 0.19797 0.43698 0.88602 0.0
C1832 C 0.21815 0.40543 0.88579 0.0
C1833 C 0.18178 0.49589 0.87471 0.0
C1834 C 0.19568 0.51794 0.8855 0.0
C1835 C 0.16009 0.51133 0.86394 0.0
C1836 C 0.14139 0.48906 0.85315 0.0
C1837 C 0.121 0.45923 0.85737 0.0
C1838 C 0.10356 0.4382 0.84721 0.0
C1839 C 0.10617 0.44677 0.83277 0.0
C1840 C 0.12619 0.47643 0.82846 0.0
C1841 C 0.1437 0.49756 0.83858 0.0
H1842 H 0.09265 0.43044 0.82491 0.0
H1843 H 0.25149 0.63394 0.92651 0.0
H1844 H 0.37901 0.77175 0.10467 0.0
H1845 H 0.4384 0.79898 0.10497 0.0
H1846 H 0.43523 0.80341 0.15081 0.0
H1847 H 0.37589 0.77653 0.15069 0.0
H1848 H 0.48212 0.85677 0.11857 0.0
H1849 H 0.50444 0.74609 0.16019 0.0
H1850 H 0.47484 0.69072 0.1684 0.0
H1851 H 0.43052 0.67458 0.12672 0.0
H1852 H 0.46081 0.72912 0.11816 0.0
H1853 H 0.66462 0.86286 0.14112 0.0
H1854 H 0.59889 0.86123 0.14072 0.0
H1855 H 0.60255 0.75941 0.119 0.0
H1856 H 0.66801 0.76044 0.11998 0.0
H1857 H 0.55423 0.75697 0.13856 0.0
H1858 H 0.58435 0.83956 0.10143 0.0
H1859 H 0.61269 0.89287 0.09084 0.0
H1860 H 0.55268 0.96083 0.11896 0.0
H1861 H 0.52436 0.90784 0.12987 0.0
C1862 C 0.39018 0.77998 0.1148 0.0
C1863 C 0.37329 0.77075 0.12769 0.0
C1864 C 0.42411 0.79574 0.11493 0.0
C1865 C 0.44137 0.80228 0.12792 0.0
C1866 C 0.42236 0.79813 0.14068 0.0
C1867 C 0.38845 0.78257 0.14057 0.0
C1868 C 0.48079 0.80473 0.12834 0.0
C1869 C 0.49803 0.83521 0.12303 0.0
C1870 C 0.50132 0.77592 0.13374 0.0
C1871 C 0.48441 0.74206 0.13861 0.0
C1872 C 0.48857 0.73059 0.15276 0.0
C1873 C 0.47171 0.69932 0.15747 0.0
C1874 C 0.45064 0.67927 0.14811 0.0
C1875 C 0.44661 0.69028 0.13399 0.0
C1876 C 0.46371 0.72132 0.1292 0.0
C1877 C 0.65118 0.84014 0.13635 0.0
C1878 C 0.67105 0.81197 0.13042 0.0
C1879 C 0.61377 0.83933 0.13601 0.0
C1880 C 0.59578 0.81048 0.12961 0.0
C1881 C 0.6158 0.78203 0.12393 0.0
C1882 C 0.65312 0.78271 0.12439 0.0
C1883 C 0.55611 0.80942 0.12897 0.0
C1884 C 0.53862 0.7789 0.13422 0.0
C1885 C 0.53557 0.8378 0.12313 0.0
C1886 C 0.55251 0.8697 0.11657 0.0
C1887 C 0.57741 0.86585 0.10544 0.0
C1888 C 0.59344 0.89601 0.09936 0.0
C1889 C 0.58457 0.93021 0.10425 0.0
C1890 C 0.55957 0.93432 0.1152 0.0
C1891 C 0.54351 0.90423 0.12133 0.0
H1892 H 0.59699 0.95354 0.09953 0.0
H1893 H 0.43756 0.65512 0.15178 0.0
H1894 H 0.7716 0.60437 0.89445 0.0
H1895 H 0.80255 0.54744 0.89398 0.0
H1896 H 0.82925 0.5637 0.84971 0.0
H1897 H 0.79631 0.62024 0.84992 0.0
H1898 H 0.79876 0.50451 0.85161 0.0
H1899 H 0.89521 0.55261 0.87746 0.0
H1900 H 0.92715 0.58741 0.89577 0.0
H1901 H 0.88205 0.52114 0.92853 0.0
H1902 H 0.84939 0.48624 0.91044 0.0
H1903 H 0.86375 0.32353 0.85551 0.0
H1904 H 0.86933 0.38893 0.85451 0.0
H1905 H 0.80035 0.39841 0.89112 0.0
H1906 H 0.79321 0.33325 0.89173 0.0
H1907 H 0.86712 0.44513 0.89024 0.0
H1908 H 0.7612 0.40808 0.86277 0.0
H1909 H 0.73272 0.37257 0.84375 0.0
H1910 H 0.80316 0.41964 0.81285 0.0
H1911 H 0.83245 0.45501 0.83176 0.0
C1912 C 0.78497 0.5965 0.8847 0.0
C1913 C 0.78091 0.61658 0.87215 0.0
C1914 C 0.80303 0.56383 0.88448 0.0
C1915 C 0.81837 0.55101 0.8718 0.0
C1916 C 0.81741 0.5728 0.8596 0.0
C1917 C 0.79868 0.60522 0.85974 0.0
C1918 C 0.82964 0.51288 0.87079 0.0
C1919 C 0.81471 0.49193 0.85986 0.0
C1920 C 0.85013 0.49596 0.88158 0.0
C1921 C 0.8697 0.51685 0.89256 0.0
C1922 C 0.89189 0.54558 0.88857 0.0
C1923 C 0.91017 0.56531 0.89892 0.0
C1924 C 0.90661 0.55651 0.91331 0.0
C1925 C 0.8848 0.52791 0.91738 0.0
C1926 C 0.86645 0.50809 0.90707 0.0
C1927 C 0.84969 0.33963 0.8633 0.0
C1928 C 0.82779 0.32346 0.87363 0.0
C1929 C 0.85325 0.37683 0.86281 0.0
C1930 C 0.83543 0.39828 0.8728 0.0
C1931 C 0.81464 0.38215 0.88345 0.0
C1932 C 0.81055 0.34502 0.88377 0.0
C1933 C 0.8354 0.43762 0.87139 0.0
C1934 C 0.85226 0.4584 0.88184 0.0
C1935 C 0.81731 0.45456 0.86006 0.0
C1936 C 0.79927 0.43381 0.84869 0.0
C1937 C 0.7708 0.41061 0.85194 0.0
C1938 C 0.75449 0.39056 0.84118 0.0
C1939 C 0.7662 0.39376 0.82711 0.0
C1940 C 0.79417 0.41713 0.82376 0.0
C1941 C 0.81063 0.43719 0.83449 0.0
H1942 H 0.75355 0.3782 0.81879 0.0
H1943 H 0.92078 0.57182 0.9213 0.0
H1944 H 0.38431 0.20471 0.60646 0.0
H1945 H 0.44058 0.1719 0.60434 0.0
H1946 H 0.4589 0.18505 0.64941 0.0
H1947 H 0.40239 0.21672 0.65168 0.0
H1948 H 0.49907 0.20556 0.60801 0.0
H1949 H 0.52116 0.13078 0.66225 0.0
H1950 H 0.4876 0.09029 0.67809 0.0
H1951 H 0.42077 0.05825 0.64316 0.0
H1952 H 0.45423 0.09813 0.62704 0.0
H1953 H 0.6683 0.22919 0.63687 0.0
H1954 H 0.6033 0.22097 0.63501 0.0
H1955 H 0.61947 0.1134 0.61957 0.0
H1956 H 0.68474 0.12187 0.62124 0.0
H1957 H 0.56187 0.12306 0.64102 0.0
H1958 H 0.60223 0.16555 0.5961 0.0
H1959 H 0.63645 0.20454 0.57989 0.0
H1960 H 0.57662 0.2958 0.59426 0.0
H1961 H 0.54252 0.25738 0.61077 0.0
C1962 C 0.39968 0.19945 0.61601 0.0
C1963 C 0.38921 0.21397 0.62919 0.0
C1964 C 0.43188 0.18068 0.61478 0.0
C1965 C 0.45422 0.17623 0.62668 0.0
C1966 C 0.44205 0.18763 0.64008 0.0
C1967 C 0.40968 0.20604 0.64135 0.0
C1968 C 0.49249 0.16656 0.62476 0.0
C1969 C 0.51258 0.18696 0.61507 0.0
C1970 C 0.51027 0.14192 0.63379 0.0
C1971 C 0.49018 0.11762 0.64343 0.0
C1972 C 0.49947 0.11493 0.65791 0.0
C1973 C 0.48041 0.09212 0.66695 0.0
C1974 C 0.45204 0.07176 0.66164 0.0
C1975 C 0.44269 0.07412 0.64727 0.0
C1976 C 0.46166 0.09688 0.63818 0.0
C1977 C 0.65784 0.20375 0.63321 0.0
C1978 C 0.68107 0.17621 0.62911 0.0
C1979 C 0.62091 0.19906 0.63215 0.0
C1980 C 0.60679 0.16664 0.62709 0.0
C1981 C 0.62999 0.13854 0.62351 0.0
C1982 C 0.66703 0.14343 0.6244 0.0
C1983 C 0.56782 0.16338 0.62485 0.0
C1984 C 0.54791 0.14076 0.63374 0.0
C1985 C 0.55003 0.18557 0.61495 0.0
C1986 C 0.57007 0.20864 0.60481 0.0
C1987 C 0.59659 0.19398 0.59591 0.0
C1988 C 0.61594 0.21597 0.58665 0.0
C1989 C 0.60879 0.25265 0.58607 0.0
C1990 C 0.58219 0.26739 0.59473 0.0
C1991 C 0.56285 0.24553 0.60405 0.0
H1992 H 0.62379 0.26962 0.57889 0.0
H1993 H 0.43731 0.05412 0.66866 0.0
H1994 H 0.13453 0.32498 0.38476 0.0
H1995 H 0.13606 0.39055 0.38507 0.0
H1996 H 0.22432 0.38915 0.35539 0.0
H1997 H 0.22396 0.3237 0.35568 0.0
H1998 H 0.23898 0.43245 0.37581 0.0
H1999 H 0.13714 0.41416 0.34578 0.0
H2000 H 0.07801 0.3906 0.33886 0.0
H2001 H 0.02935 0.44539 0.37408 0.0
H2002 H 0.08832 0.46885 0.38136 0.0
H2003 H 0.21279 0.6178 0.35237 0.0
H2004 H 0.18531 0.55854 0.35211 0.0
H2005 H 0.20568 0.54756 0.39707 0.0
H2006 H 0.23296 0.60678 0.39752 0.0
H2007 H 0.13424 0.51203 0.36814 0.0
H2008 H 0.26271 0.47619 0.39833 0.0
H2009 H 0.32264 0.50175 0.40281 0.0
H2010 H 0.3195 0.55545 0.36241 0.0
H2011 H 0.25993 0.52963 0.35759 0.0
C2012 C 0.15424 0.33881 0.37833 0.0
C2013 C 0.17923 0.31945 0.37024 0.0
C2014 C 0.15485 0.37622 0.37838 0.0
C2015 C 0.18011 0.39485 0.37015 0.0
C2016 C 0.20458 0.3754 0.36182 0.0
C2017 C 0.20421 0.33805 0.3619 0.0
C2018 C 0.18261 0.43447 0.37082 0.0
C2019 C 0.21598 0.44966 0.37411 0.0
C2020 C 0.15272 0.45718 0.36852 0.0
C2021 C 0.11724 0.44297 0.3642 0.0
C2022 C 0.1139 0.42092 0.35213 0.0
C2023 C 0.08039 0.40764 0.34813 0.0
C2024 C 0.04996 0.41642 0.35604 0.0
C2025 C 0.05296 0.43856 0.36797 0.0
C2026 C 0.08642 0.45188 0.37204 0.0
C2027 C 0.21009 0.60349 0.36234 0.0
C2028 C 0.2261 0.61656 0.37488 0.0
C2029 C 0.19418 0.56965 0.36217 0.0
C2030 C 0.19424 0.54854 0.3745 0.0
C2031 C 0.20572 0.56347 0.38742 0.0
C2032 C 0.22141 0.59735 0.38763 0.0
C2033 C 0.19027 0.50934 0.37327 0.0
C2034 C 0.15692 0.49444 0.3699 0.0
C2035 C 0.2203 0.48674 0.37511 0.0
C2036 C 0.2567 0.50134 0.3777 0.0
C2037 C 0.27492 0.4933 0.39039 0.0
C2038 C 0.30881 0.50783 0.39298 0.0
C2039 C 0.32481 0.53031 0.38292 0.0
C2040 C 0.30704 0.53813 0.37021 0.0
C2041 C 0.27321 0.52356 0.36755 0.0
H2042 H 0.35099 0.54161 0.38496 0.0
H2043 H 0.02403 0.40615 0.35292 0.0
H2044 H 0.59223 0.75001 0.60359 0.0
H2045 H 0.5359 0.7822 0.603 0.0
H2046 H 0.55386 0.81943 0.64594 0.0
H2047 H 0.60976 0.78546 0.64684 0.0
H2048 H 0.49324 0.79076 0.64522 0.0
H2049 H 0.54607 0.8781 0.6157 0.0
H2050 H 0.58217 0.90308 0.59611 0.0
H2051 H 0.5125 0.8538 0.5655 0.0
H2052 H 0.47624 0.82806 0.58489 0.0
H2053 H 0.31768 0.86605 0.64102 0.0
H2054 H 0.38334 0.86821 0.64068 0.0
H2055 H 0.38479 0.792 0.6062 0.0
H2056 H 0.3193 0.78849 0.60694 0.0
H2057 H 0.4369 0.85397 0.60451 0.0
H2058 H 0.39382 0.7576 0.63571 0.0
H2059 H 0.35701 0.73599 0.65575 0.0
H2060 H 0.41023 0.80908 0.68398 0.0
H2061 H 0.44695 0.83154 0.66402 0.0
C2062 C 0.58482 0.76585 0.61279 0.0
C2063 C 0.60528 0.76471 0.62534 0.0
C2064 C 0.55252 0.78458 0.6124 0.0
C2065 C 0.54042 0.80344 0.62442 0.0
C2066 C 0.56243 0.80491 0.63655 0.0
C2067 C 0.59448 0.78558 0.63704 0.0
C2068 C 0.50284 0.81663 0.62499 0.0
C2069 C 0.48137 0.80554 0.63647 0.0
C2070 C 0.48684 0.83554 0.61354 0.0
C2071 C 0.5085 0.85099 0.60179 0.0
C2072 C 0.53856 0.87237 0.6048 0.0
C2073 C 0.55904 0.88671 0.59372 0.0
C2074 C 0.54966 0.88 0.57957 0.0
C2075 C 0.51973 0.85899 0.57647 0.0
C2076 C 0.49915 0.84458 0.5875 0.0
C2077 C 0.33208 0.84977 0.63338 0.0
C2078 C 0.3136 0.82658 0.62419 0.0
C2079 C 0.36943 0.85136 0.63309 0.0
C2080 C 0.38873 0.83027 0.62341 0.0
C2081 C 0.37025 0.80868 0.61366 0.0
C2082 C 0.33294 0.80664 0.61412 0.0
C2083 C 0.42807 0.82737 0.6245 0.0
C2084 C 0.44948 0.84017 0.61336 0.0
C2085 C 0.44425 0.8106 0.63633 0.0
C2086 C 0.42279 0.79652 0.64837 0.0
C2087 C 0.39746 0.76924 0.64618 0.0
C2088 C 0.37665 0.75681 0.65751 0.0
C2089 C 0.3812 0.77123 0.67112 0.0
C2090 C 0.40669 0.79799 0.67343 0.0
C2091 C 0.4275 0.81057 0.66211 0.0
H2092 H 0.36505 0.7616 0.67989 0.0
H2093 H 0.56556 0.89111 0.57101 0.0
H2094 H 0.76723 0.67501 0.36097 0.0
H2095 H 0.76777 0.60947 0.36207 0.0
H2096 H 0.86553 0.61262 0.38651 0.0
H2097 H 0.86527 0.67834 0.38522 0.0
H2098 H 0.86469 0.55725 0.36621 0.0
H2099 H 0.79176 0.60265 0.40409 0.0
H2100 H 0.74415 0.6398 0.41472 0.0
H2101 H 0.66556 0.58701 0.38879 0.0
H2102 H 0.7128 0.54986 0.37787 0.0
H2103 H 0.76357 0.38845 0.39786 0.0
H2104 H 0.79351 0.44622 0.39976 0.0
H2105 H 0.80248 0.45146 0.35403 0.0
H2106 H 0.77254 0.39365 0.35199 0.0
H2107 H 0.7579 0.50238 0.38877 0.0
H2108 H 0.87038 0.51179 0.34565 0.0
H2109 H 0.92053 0.47538 0.33659 0.0
H2110 H 0.92416 0.41724 0.37599 0.0
H2111 H 0.87439 0.45359 0.38537 0.0
C2112 C 0.78908 0.66161 0.36637 0.0
C2113 C 0.81604 0.68142 0.37311 0.0
C2114 C 0.78933 0.62431 0.36703 0.0
C2115 C 0.8165 0.60632 0.3745 0.0
C2116 C 0.84435 0.62606 0.38071 0.0
C2117 C 0.84404 0.66343 0.38006 0.0
C2118 C 0.81427 0.56715 0.37659 0.0
C2119 C 0.84145 0.54508 0.37115 0.0
C2120 C 0.78442 0.55156 0.38345 0.0
C2121 C 0.75587 0.57364 0.3901 0.0
C2122 C 0.76436 0.59912 0.40059 0.0
C2123 C 0.73744 0.62016 0.40668 0.0
C2124 C 0.70187 0.61581 0.40241 0.0
C2125 C 0.69314 0.59035 0.39208 0.0
C2126 C 0.71997 0.56927 0.38596 0.0
C2127 C 0.77293 0.40125 0.38821 0.0
C2128 C 0.76481 0.38683 0.37474 0.0
C2129 C 0.79009 0.43431 0.38933 0.0
C2130 C 0.79979 0.45331 0.37704 0.0
C2131 C 0.79534 0.43718 0.36366 0.0
C2132 C 0.77806 0.40412 0.36251 0.0
C2133 C 0.80782 0.49206 0.37799 0.0
C2134 C 0.78148 0.51426 0.38396 0.0
C2135 C 0.83866 0.50756 0.3718 0.0
C2136 C 0.86837 0.48526 0.36616 0.0
C2137 C 0.88191 0.4913 0.3524 0.0
C2138 C 0.91028 0.47065 0.3472 0.0
C2139 C 0.92546 0.44395 0.3557 0.0
C2140 C 0.91228 0.43783 0.3694 0.0
C2141 C 0.88391 0.45839 0.37465 0.0
H2142 H 0.94749 0.42806 0.35167 0.0
H2143 H 0.68107 0.63212 0.40713 0.0
H2144 H 0.11045 0.72351 0.65288 0.0
H2145 H 0.05356 0.69201 0.6552 0.0
H2146 H 0.03664 0.7012 0.60991 0.0
H2147 H 0.09362 0.7323 0.60745 0.0
H2148 H 0.99363 0.72618 0.64996 0.0
H2149 H 0.97681 0.63996 0.59842 0.0
H2150 H 0.01267 0.59837 0.58386 0.0
H2151 H 0.08 0.57581 0.6198 0.0
H2152 H 0.04429 0.61688 0.63464 0.0
H2153 H 0.82038 0.72801 0.62176 0.0
H2154 H 0.88596 0.72693 0.62338 0.0
H2155 H 0.88142 0.62268 0.64306 0.0
H2156 H 0.81555 0.6241 0.64166 0.0
H2157 H 0.93616 0.63265 0.62023 0.0
H2158 H 0.89627 0.68074 0.66449 0.0
H2159 H 0.85977 0.71975 0.67989 0.0
H2160 H 0.90754 0.81276 0.66091 0.0
H2161 H 0.94383 0.77428 0.64518 0.0
C2162 C 0.09522 0.71784 0.64333 0.0
C2163 C 0.1063 0.7311 0.63001 0.0
C2164 C 0.06263 0.69985 0.64469 0.0
C2165 C 0.04065 0.69453 0.63277 0.0
C2166 C 0.05323 0.70471 0.61927 0.0
C2167 C 0.08586 0.72267 0.61788 0.0
C2168 C 0.00261 0.68407 0.63464 0.0
C2169 C 0.98127 0.70533 0.6436 0.0
C2170 C 0.9864 0.65661 0.62649 0.0
C2171 C 0.00795 0.63173 0.61763 0.0
C2172 C 0.99915 0.62601 0.60325 0.0
C2173 C 0.01949 0.60254 0.59493 0.0
C2174 C 0.04865 0.58452 0.60089 0.0
C2175 C 0.05749 0.58989 0.61518 0.0
C2176 C 0.03725 0.61332 0.62354 0.0
C2177 C 0.83353 0.70489 0.62636 0.0
C2178 C 0.81337 0.67625 0.63168 0.0
C2179 C 0.87079 0.70424 0.62727 0.0
C2180 C 0.88835 0.67475 0.63336 0.0
C2181 C 0.86824 0.64558 0.6383 0.0
C2182 C 0.83085 0.64647 0.63757 0.0
C2183 C 0.92764 0.67561 0.6351 0.0
C2184 C 0.94894 0.65283 0.62679 0.0
C2185 C 0.94402 0.70127 0.64401 0.0
C2186 C 0.9226 0.7246 0.65358 0.0
C2187 C 0.8988 0.70951 0.66351 0.0
C2188 C 0.87817 0.73153 0.67232 0.0
C2189 C 0.88132 0.76871 0.67138 0.0
C2190 C 0.90514 0.78395 0.66163 0.0
C2191 C 0.92576 0.76204 0.65277 0.0
H2192 H 0.86533 0.78572 0.67821 0.0
H2193 H 0.06435 0.56637 0.59444 0.0
H2194 H 0.70227 0.87752 0.35585 0.0
H2195 H 0.66875 0.93369 0.35476 0.0
H2196 H 0.7064 0.9612 0.3968 0.0
H2197 H 0.73816 0.90452 0.39827 0.0
H2198 H 0.64536 0.9924 0.39277 0.0
H2199 H 0.75538 0.98113 0.36547 0.0
H2200 H 0.79399 0.9533 0.34725 0.0
H2201 H 0.71583 0.97689 0.31505 0.0
H2202 H 0.67655 0.00447 0.33315 0.0
H2203 H 0.70569 0.17184 0.39007 0.0
H2204 H 0.70006 0.10658 0.39037 0.0
H2205 H 0.6308 0.11119 0.35369 0.0
H2206 H 0.6349 0.17685 0.35378 0.0
H2207 H 0.69353 0.06268 0.35221 0.0
H2208 H 0.59158 0.08885 0.38119 0.0
H2209 H 0.55933 0.11882 0.40075 0.0
H2210 H 0.62955 0.06989 0.43126 0.0
H2211 H 0.66262 0.04006 0.41188 0.0
C2212 C 0.70231 0.89499 0.36505 0.0
C2213 C 0.72354 0.88701 0.377 0.0
C2214 C 0.68329 0.92716 0.3644 0.0
C2215 C 0.68619 0.95227 0.37548 0.0
C2216 C 0.70403 0.94248 0.38804 0.0
C2217 C 0.72233 0.90998 0.38885 0.0
C2218 C 0.67583 0.99026 0.37331 0.0
C2219 C 0.65572 0.00771 0.38387 0.0
C2220 C 0.68903 0.01032 0.36159 0.0
C2221 C 0.71289 0.99445 0.35067 0.0
C2222 C 0.74641 0.98025 0.35451 0.0
C2223 C 0.76839 0.96452 0.34421 0.0
C2224 C 0.75732 0.96323 0.33001 0.0
C2225 C 0.72432 0.97783 0.32607 0.0
C2226 C 0.70219 0.99352 0.33634 0.0
C2227 C 0.68881 0.15897 0.38222 0.0
C2228 C 0.67089 0.17927 0.37185 0.0
C2229 C 0.68565 0.12178 0.38239 0.0
C2230 C 0.66486 0.10425 0.3721 0.0
C2231 C 0.6469 0.12438 0.36172 0.0
C2232 C 0.64953 0.16172 0.36171 0.0
C2233 C 0.6639 0.06474 0.37184 0.0
C2234 C 0.68214 0.04713 0.36086 0.0
C2235 C 0.64979 0.0448 0.38333 0.0
C2236 C 0.62971 0.06235 0.39506 0.0
C2237 C 0.60032 0.08467 0.39206 0.0
C2238 C 0.58186 0.10161 0.40312 0.0
C2239 C 0.59241 0.0963 0.41724 0.0
C2240 C 0.6214 0.07397 0.42032 0.0
C2241 C 0.63998 0.05699 0.4093 0.0
H2242 H 0.57809 0.10945 0.42578 0.0
H2243 H 0.77435 0.951 0.32205 0.0
H2244 H 0.18102 0.35645 0.61832 0.0
H2245 H 0.11539 0.35925 0.61801 0.0
H2246 H 0.11084 0.26506 0.64459 0.0
H2247 H 0.17626 0.26153 0.64442 0.0
H2248 H 0.06641 0.25851 0.62332 0.0
H2249 H 0.09306 0.34983 0.65763 0.0
H2250 H 0.12166 0.40488 0.66658 0.0
H2251 H 0.06947 0.46624 0.63396 0.0
H2252 H 0.04093 0.41144 0.62468 0.0
H2253 H 0.88744 0.28691 0.65181 0.0
H2254 H 0.94751 0.31248 0.6517 0.0
H2255 H 0.95073 0.30445 0.60594 0.0
H2256 H 0.89069 0.27902 0.60587 0.0
H2257 H 0.99475 0.36518 0.63691 0.0
H2258 H 0.01812 0.24546 0.60027 0.0
H2259 H 0.98822 0.18905 0.59345 0.0
H2260 H 0.94078 0.18172 0.63499 0.0
H2261 H 0.97089 0.23771 0.64211 0.0
C2262 C 0.16585 0.33636 0.62403 0.0
C2263 C 0.18343 0.30865 0.63132 0.0
C2264 C 0.12847 0.33816 0.62398 0.0
C2265 C 0.1082 0.31251 0.63136 0.0
C2266 C 0.12592 0.28512 0.63881 0.0
C2267 C 0.16321 0.28321 0.63878 0.0
C2268 C 0.06854 0.31302 0.63085 0.0
C2269 C 0.05091 0.28193 0.62627 0.0
C2270 C 0.04814 0.34347 0.63478 0.0
C2271 C 0.06515 0.37647 0.64037 0.0
C2272 C 0.08791 0.37501 0.65229 0.0
C2273 C 0.10407 0.40618 0.65743 0.0
C2274 C 0.09746 0.43903 0.65082 0.0
C2275 C 0.0746 0.44078 0.63906 0.0
C2276 C 0.0584 0.40967 0.63386 0.0
C2277 C 0.90019 0.29204 0.64166 0.0
C2278 C 0.88478 0.27973 0.62888 0.0
C2279 C 0.93452 0.30687 0.64163 0.0
C2280 C 0.9537 0.30948 0.62885 0.0
C2281 C 0.93635 0.30225 0.61592 0.0
C2282 C 0.90201 0.28757 0.61593 0.0
C2283 C 0.99319 0.31092 0.62927 0.0
C2284 C 0.01058 0.3421 0.63384 0.0
C2285 C 0.01357 0.28032 0.62566 0.0
C2286 C 0.99641 0.24595 0.62165 0.0
C2287 C 0.00145 0.23169 0.60796 0.0
C2288 C 0.98447 0.1998 0.60404 0.0
C2289 C 0.96251 0.18189 0.61376 0.0
C2290 C 0.95769 0.19568 0.62746 0.0
C2291 C 0.9747 0.22749 0.63143 0.0
H2292 H 0.94932 0.15729 0.61069 0.0
H2293 H 0.11 0.46313 0.65481 0.0
H2294 H 0.28973 0.12141 0.35366 0.0
H2295 H 0.32336 0.06525 0.35321 0.0
H2296 H 0.28816 0.04203 0.39599 0.0
H2297 H 0.25622 0.09865 0.39679 0.0
H2298 H 0.34938 0.01056 0.39182 0.0
H2299 H 0.23729 0.0189 0.36576 0.0
H2300 H 0.19746 0.04534 0.34762 0.0
H2301 H 0.27315 0.01864 0.31487 0.0
H2302 H 0.31365 0.99247 0.33288 0.0
H2303 H 0.29154 0.82945 0.39215 0.0
H2304 H 0.29676 0.89476 0.39195 0.0
H2305 H 0.36131 0.88915 0.35395 0.0
H2306 H 0.35769 0.82357 0.35451 0.0
H2307 H 0.29848 0.93614 0.35301 0.0
H2308 H 0.40313 0.91371 0.3809 0.0
H2309 H 0.43762 0.88606 0.40038 0.0
H2310 H 0.36962 0.93696 0.43118 0.0
H2311 H 0.33433 0.96449 0.41188 0.0
C2312 C 0.29025 0.10492 0.36315 0.0
C2313 C 0.26962 0.11406 0.37514 0.0
C2314 C 0.30936 0.07275 0.36286 0.0
C2315 C 0.30717 0.04881 0.37437 0.0
C2316 C 0.28998 0.05984 0.38691 0.0
C2317 C 0.27157 0.09231 0.38733 0.0
C2318 C 0.31742 0.01063 0.37272 0.0
C2319 C 0.33841 0.99432 0.3833 0.0
C2320 C 0.30336 0.98938 0.36153 0.0
C2321 C 0.27863 0.00413 0.35066 0.0
C2322 C 0.24545 0.01877 0.35469 0.0
C2323 C 0.22279 0.03373 0.34444 0.0
C2324 C 0.23283 0.03378 0.33011 0.0
C2325 C 0.26546 0.01867 0.32599 0.0
C2326 C 0.28828 0.00377 0.3362 0.0
C2327 C 0.30749 0.84209 0.38394 0.0
C2328 C 0.32414 0.82151 0.37333 0.0
C2329 C 0.31037 0.87934 0.38381 0.0
C2330 C 0.32958 0.89662 0.37297 0.0
C2331 C 0.34644 0.87619 0.3624 0.0
C2332 C 0.34409 0.83886 0.36268 0.0
C2333 C 0.32973 0.93613 0.37225 0.0
C2334 C 0.31041 0.95257 0.36127 0.0
C2335 C 0.34458 0.95724 0.38325 0.0
C2336 C 0.36594 0.941 0.39492 0.0
C2337 C 0.39535 0.9188 0.39182 0.0
C2338 C 0.41508 0.90318 0.40284 0.0
C2339 C 0.40579 0.9097 0.41701 0.0
C2340 C 0.37679 0.93193 0.4202 0.0
C2341 C 0.35694 0.9476 0.40922 0.0
H2342 H 0.4211 0.89758 0.42553 0.0
H2343 H 0.2153 0.04546 0.32219 0.0
H2344 H 0.87591 0.71911 0.15459 0.0
H2345 H 0.93459 0.69055 0.1551 0.0
H2346 H 0.93595 0.68741 0.10924 0.0
H2347 H 0.87715 0.71544 0.10856 0.0
H2348 H 0.97979 0.63109 0.14012 0.0
H2349 H 0.00043 0.74632 0.10228 0.0
H2350 H 0.96878 0.80134 0.09487 0.0
H2351 H 0.92956 0.81574 0.13747 0.0
H2352 H 0.96151 0.76121 0.14515 0.0
H2353 H 0.16298 0.63402 0.1175 0.0
H2354 H 0.0973 0.63459 0.11834 0.0
H2355 H 0.10045 0.72567 0.14658 0.0
H2356 H 0.16601 0.72546 0.14553 0.0
H2357 H 0.0532 0.73566 0.12541 0.0
H2358 H 0.08091 0.64348 0.15921 0.0
H2359 H 0.10877 0.58755 0.16767 0.0
H2360 H 0.05089 0.52784 0.13612 0.0
H2361 H 0.02308 0.58352 0.12732 0.0
C2362 C 0.88785 0.7109 0.1446 0.0
C2363 C 0.8725 0.72097 0.1315 0.0
C2364 C 0.92136 0.69431 0.14494 0.0
C2365 C 0.93975 0.6877 0.13221 0.0
C2366 C 0.92214 0.69264 0.11918 0.0
C2367 C 0.88858 0.70899 0.11882 0.0
C2368 C 0.97915 0.68529 0.13242 0.0
C2369 C 0.996 0.65371 0.13683 0.0
C2370 C -1e-05 0.71529 0.12849 0.0
C2371 C 0.98309 0.7496 0.12423 0.0
C2372 C 0.98533 0.76145 0.11007 0.0
C2373 C 0.96725 0.79247 0.10582 0.0
C2374 C 0.94697 0.81188 0.11567 0.0
C2375 C 0.94507 0.80056 0.12983 0.0
C2376 C 0.96323 0.76967 0.13414 0.0
C2377 C 0.1495 0.6541 0.12387 0.0
C2378 C 0.16927 0.67967 0.13147 0.0
C2379 C 0.11211 0.65427 0.12442 0.0
C2380 C 0.09404 0.67999 0.13262 0.0
C2381 C 0.11389 0.70555 0.14022 0.0
C2382 C 0.15122 0.70532 0.13968 0.0
C2383 C 0.05442 0.68109 0.13295 0.0
C2384 C 0.03732 0.71275 0.12865 0.0
C2385 C 0.03355 0.65126 0.13722 0.0
C2386 C 0.05018 0.61773 0.14251 0.0
C2387 C 0.07435 0.61847 0.15399 0.0
C2388 C 0.0901 0.5868 0.15886 0.0
C2389 C 0.08168 0.55417 0.15241 0.0
C2390 C 0.05743 0.55314 0.14109 0.0
C2391 C 0.04164 0.58475 0.13616 0.0
H2392 H 0.09388 0.52968 0.1562 0.0
H2393 H 0.93295 0.8358 0.11234 0.0
H2394 H 0.72952 0.83203 0.85428 0.0
H2395 H 0.7265 0.8975 0.856 0.0
H2396 H 0.63553 0.88886 0.88409 0.0
H2397 H 0.63861 0.8233 0.88241 0.0
H2398 H 0.6321 0.94736 0.86305 0.0
H2399 H 0.70813 0.89717 0.89954 0.0
H2400 H 0.75722 0.85887 0.90826 0.0
H2401 H 0.83237 0.91724 0.88261 0.0
H2402 H 0.78353 0.95544 0.87352 0.0
H2403 H 0.73222 0.11206 0.89856 0.0
H2404 H 0.70266 0.05388 0.89915 0.0
H2405 H 0.69231 0.05586 0.85343 0.0
H2406 H 0.72161 0.11408 0.8527 0.0
H2407 H 0.73861 0.00016 0.8866 0.0
H2408 H 0.62719 0.99557 0.84331 0.0
H2409 H 0.57775 0.03336 0.83455 0.0
H2410 H 0.57181 0.08612 0.87509 0.0
H2411 H 0.62085 0.04832 0.88417 0.0
C2412 C 0.70851 0.84422 0.86058 0.0
C2413 C 0.68453 0.82296 0.86834 0.0
C2414 C 0.70679 0.88146 0.86156 0.0
C2415 C 0.6809 0.89783 0.87024 0.0
C2416 C 0.6556 0.87663 0.87733 0.0
C2417 C 0.65755 0.83936 0.87645 0.0
C2418 C 0.68281 0.93666 0.87306 0.0
C2419 C 0.65525 0.95909 0.86822 0.0
C2420 C 0.71268 0.95157 0.88011 0.0
C2421 C 0.74214 0.92896 0.88575 0.0
C2422 C 0.73507 0.90165 0.89567 0.0
C2423 C 0.76285 0.87998 0.90069 0.0
C2424 C 0.79788 0.88558 0.89598 0.0
C2425 C 0.80522 0.91291 0.88625 0.0
C2426 C 0.77751 0.93458 0.88116 0.0
C2427 C 0.72254 0.10079 0.88866 0.0
C2428 C 0.73015 0.11733 0.87554 0.0
C2429 C 0.70563 0.06748 0.88903 0.0
C2430 C 0.69573 0.05036 0.87633 0.0
C2431 C 0.69959 0.06864 0.86337 0.0
C2432 C 0.71654 0.10195 0.86298 0.0
C2433 C 0.68824 0.01144 0.8763 0.0
C2434 C 0.71504 0.98873 0.88161 0.0
C2435 C 0.65761 0.99649 0.86973 0.0
C2436 C 0.62794 0.01925 0.86439 0.0
C2437 C 0.61524 0.01512 0.85038 0.0
C2438 C 0.5873 0.03657 0.84535 0.0
C2439 C 0.57171 0.06219 0.85424 0.0
C2440 C 0.584 0.06636 0.8682 0.0
C2441 C 0.61193 0.04497 0.87328 0.0
H2442 H 0.55008 0.07877 0.85033 0.0
H2443 H 0.81936 0.86878 0.89988 0.0
H2444 H 0.81852 0.36267 0.11228 0.0
H2445 H 0.88408 0.36391 0.11095 0.0
H2446 H 0.89023 0.29807 0.14857 0.0
H2447 H 0.82483 0.29498 0.14948 0.0
H2448 H 0.94215 0.36181 0.14586 0.0
H2449 H 0.89565 0.25449 0.12154 0.0
H2450 H 0.85663 0.22594 0.10366 0.0
H2451 H 0.90578 0.28835 0.07061 0.0
H2452 H 0.9447 0.31769 0.08837 0.0
H2453 H 0.09519 0.25651 0.15087 0.0
H2454 H 0.03964 0.28991 0.15014 0.0
H2455 H 0.05467 0.30965 0.10524 0.0
H2456 H 0.10991 0.27455 0.10577 0.0
H2457 H 0.99344 0.28309 0.10852 0.0
H2458 H 0.05008 0.37992 0.13121 0.0
H2459 H 0.08835 0.41242 0.14823 0.0
H2460 H 0.02206 0.37725 0.18285 0.0
H2461 H 0.98362 0.34413 0.16608 0.0
C2462 C 0.83388 0.34839 0.12024 0.0
C2463 C 0.81663 0.3283 0.13087 0.0
C2464 C 0.87123 0.34952 0.11956 0.0
C2465 C 0.89179 0.33118 0.12969 0.0
C2466 C 0.87468 0.31269 0.14075 0.0
C2467 C 0.83737 0.31097 0.14126 0.0
C2468 C 0.93091 0.32784 0.12795 0.0
C2469 C 0.95364 0.34466 0.13774 0.0
C2470 C 0.94562 0.30669 0.11696 0.0
C2471 C 0.92272 0.28857 0.10628 0.0
C2472 C 0.89791 0.26232 0.11047 0.0
C2473 C 0.87585 0.24597 0.10036 0.0
C2474 C 0.87864 0.25542 0.08601 0.0
C2475 C 0.90359 0.28113 0.08173 0.0
C2476 C 0.92565 0.29762 0.09181 0.0
C2477 C 0.08734 0.26874 0.14089 0.0
C2478 C 0.10679 0.26236 0.12833 0.0
C2479 C 0.0555 0.28821 0.14051 0.0
C2480 C 0.04279 0.30253 0.12764 0.0
C2481 C 0.06376 0.29873 0.1153 0.0
C2482 C 0.09541 0.27873 0.11562 0.0
C2483 C 0.00546 0.31624 0.12676 0.0
C2484 C 0.98266 0.3012 0.11647 0.0
C2485 C 0.99091 0.33963 0.13716 0.0
C2486 C 0.01402 0.35937 0.14736 0.0
C2487 C 0.04379 0.37888 0.14246 0.0
C2488 C 0.06549 0.39747 0.15207 0.0
C2489 C 0.05766 0.39687 0.16661 0.0
C2490 C 0.02808 0.37771 0.17158 0.0
C2491 C 0.00627 0.35908 0.16202 0.0
H2492 H 0.0745 0.41128 0.17403 0.0
H2493 H 0.86153 0.24274 0.07819 0.0
H2494 H 0.27302 0.89561 0.84536 0.0
H2495 H 0.3025 0.9538 0.84451 0.0
H2496 H 0.30723 0.95598 0.89038 0.0
H2497 H 0.27795 0.89775 0.89137 0.0
H2498 H 0.26621 0.00935 0.85544 0.0
H2499 H 0.37203 0.0159 0.90086 0.0
H2500 H 0.41954 0.97802 0.91112 0.0
H2501 H 0.42954 0.92159 0.8715 0.0
H2502 H 0.38247 0.95945 0.86092 0.0
H2503 H 0.27532 0.18037 0.88592 0.0
H2504 H 0.27515 0.11484 0.88404 0.0
H2505 H 0.37284 0.11883 0.85959 0.0
H2506 H 0.37299 0.18446 0.86147 0.0
H2507 H 0.37062 0.06236 0.88035 0.0
H2508 H 0.3008 0.11139 0.842 0.0
H2509 H 0.25374 0.14935 0.83147 0.0
H2510 H 0.17362 0.09306 0.85543 0.0
H2511 H 0.22034 0.05521 0.86629 0.0
C2512 C 0.28141 0.90782 0.85527 0.0
C2513 C 0.27235 0.89235 0.86845 0.0
C2514 C 0.29824 0.94115 0.85475 0.0
C2515 C 0.30666 0.95939 0.86737 0.0
C2516 C 0.30114 0.94232 0.8805 0.0
C2517 C 0.28423 0.90899 0.88104 0.0
C2518 C 0.31487 0.99817 0.86696 0.0
C2519 C 0.2893 0.02085 0.86075 0.0
C2520 C 0.34496 0.01316 0.87389 0.0
C2521 C 0.37348 0.99038 0.88014 0.0
C2522 C 0.38447 0.99553 0.89431 0.0
C2523 C 0.41131 0.97403 0.90019 0.0
C2524 C 0.42749 0.94736 0.89198 0.0
C2525 C 0.4169 0.94217 0.87786 0.0
C2526 C 0.39008 0.9636 0.87193 0.0
C2527 C 0.29694 0.1671 0.88033 0.0
C2528 C 0.32403 0.18711 0.87375 0.0
C2529 C 0.29682 0.12984 0.87923 0.0
C2530 C 0.32387 0.11215 0.87159 0.0
C2531 C 0.3518 0.13206 0.86553 0.0
C2532 C 0.35175 0.16937 0.86653 0.0
C2533 C 0.3215 0.07313 0.86916 0.0
C2534 C 0.34792 0.05061 0.87488 0.0
C2535 C 0.29225 0.05811 0.86172 0.0
C2536 C 0.26411 0.08068 0.85507 0.0
C2537 C 0.27319 0.10731 0.84512 0.0
C2538 C 0.24657 0.12879 0.83907 0.0
C2539 C 0.21072 0.12368 0.8428 0.0
C2540 C 0.2014 0.09703 0.85256 0.0
C2541 C 0.22794 0.07556 0.85866 0.0
H2542 H 0.19015 0.14033 0.8381 0.0
H2543 H 0.44826 0.93074 0.89655 0.0
loop_
_geom_bond_atom_site_label_1
_geom_bond_atom_site_label_2
_geom_bond_distance
_geom_bond_site_symmetry_2
_ccdc_geom_bond_type
Co0 O3 1.970 . S
Co0 N17 1.989 . S
Co0 O25 1.967 . S
Co0 O32 1.920 . S
Co1 O4 1.966 . S
Co1 N10 2.022 . S
Co1 N18 1.993 . S
Co1 O26 1.941 . S
C2 O3 1.258 . S
C2 O4 1.263 . S
O3 Co0 1.970 . S
O3 C2 1.258 . S
O4 Co1 1.966 . S
O4 C2 1.263 . S
C5 O6 1.235 . S
C5 O32 1.289 . S
O6 C5 1.235 . S
C7 C9 1.400 . S
C7 N10 1.351 . S
C7 C12 1.501 . S
C8 C9 1.387 . S
C8 N11 1.341 . S
C9 C7 1.400 . S
C9 C8 1.387 . S
N10 Co1 2.022 . S
N10 C7 1.351 . S
N10 N11 1.365 . S
N11 C8 1.341 . S
N11 N10 1.365 . S
N11 H31 0.862 . S
C12 C7 1.501 . S
C12 H13 0.961 . S
C12 H14 0.961 . S
C12 H15 0.960 . S
H13 C12 0.961 . S
H14 C12 0.961 . S
H15 C12 0.960 . S
C16 N17 1.342 . S
C16 C20 1.401 . S
C16 C21 1.499 . S
N17 Co0 1.989 . S
N17 C16 1.342 . S
N17 N18 1.388 . S
N18 Co1 1.993 . S
N18 N17 1.388 . S
N18 C19 1.346 . S
C19 N18 1.346 . S
C19 C20 1.396 . S
C19 C29 1.510 . S
C20 C16 1.401 . S
C20 C19 1.396 . S
C21 C16 1.499 . S
C21 H22 0.959 . S
C21 H23 0.960 . S
C21 H24 0.961 . S
H22 C21 0.959 . S
H23 C21 0.960 . S
H24 C21 0.961 . S
O25 Co0 1.967 . S
O25 C33 1.258 . S
O26 Co1 1.941 . S
O26 C33 1.266 . S
H27 C29 0.959 . S
H28 C29 0.961 . S
C29 C19 1.510 . S
C29 H27 0.959 . S
C29 H28 0.961 . S
C29 H30 0.960 . S
H30 C29 0.960 . S
H31 N11 0.862 . S
O32 Co0 1.920 . S
O32 C5 1.289 . S
C33 O25 1.258 . S
C33 O26 1.266 . S
Co34 O37 1.970 . S
Co34 N51 1.989 . S
Co34 O59 1.967 . S
Co34 O66 1.920 . S
Co35 O38 1.966 . S
Co35 N44 2.022 . S
Co35 N52 1.993 . S
Co35 O60 1.941 . S
C36 O37 1.258 . S
C36 O38 1.263 . S
O37 Co34 1.970 . S
O37 C36 1.258 . S
O38 Co35 1.966 . S
O38 C36 1.263 . S
C39 O40 1.235 . S
C39 O66 1.289 . S
O40 C39 1.235 . S
C41 C43 1.400 . S
C41 N44 1.351 . S
C41 C46 1.501 . S
C42 C43 1.387 . S
C42 N45 1.341 . S
C43 C41 1.400 . S
C43 C42 1.387 . S
N44 Co35 2.022 . S
N44 C41 1.351 . S
N44 N45 1.365 . S
N45 C42 1.341 . S
N45 N44 1.365 . S
N45 H65 0.862 . S
C46 C41 1.501 . S
C46 H47 0.961 . S
C46 H48 0.961 . S
C46 H49 0.960 . S
H47 C46 0.961 . S
H48 C46 0.961 . S
H49 C46 0.960 . S
C50 N51 1.342 . S
C50 C54 1.401 . S
C50 C55 1.499 . S
N51 Co34 1.989 . S
N51 C50 1.342 . S
N51 N52 1.388 . S
N52 Co35 1.993 . S
N52 N51 1.388 . S
N52 C53 1.346 . S
C53 N52 1.346 . S
C53 C54 1.396 . S
C53 C63 1.510 . S
C54 C50 1.401 . S
C54 C53 1.396 . S
C55 C50 1.499 . S
C55 H56 0.959 . S
C55 H57 0.960 . S
C55 H58 0.961 . S
H56 C55 0.959 . S
H57 C55 0.960 . S
H58 C55 0.961 . S
O59 Co34 1.967 . S
O59 C67 1.258 . S
O60 Co35 1.941 . S
O60 C67 1.266 . S
H61 C63 0.959 . S
H62 C63 0.961 . S
C63 C53 1.510 . S
C63 H61 0.959 . S
C63 H62 0.961 . S
C63 H64 0.960 . S
H64 C63 0.960 . S
H65 N45 0.862 . S
O66 Co34 1.920 . S
O66 C39 1.289 . S
C67 O59 1.258 . S
C67 O60 1.266 . S
Co68 O71 1.970 . S
Co68 N85 1.989 . S
Co68 O93 1.967 . S
Co68 O100 1.920 . S
Co69 O72 1.966 . S
Co69 N78 2.022 . S
Co69 N86 1.993 . S
Co69 O94 1.941 . S
C70 O71 1.258 . S
C70 O72 1.263 . S
O71 Co68 1.970 . S
O71 C70 1.258 . S
O72 Co69 1.966 . S
O72 C70 1.263 . S
C73 O74 1.235 . S
C73 O100 1.289 . S
O74 C73 1.235 . S
C75 C77 1.400 . S
C75 N78 1.351 . S
C75 C80 1.501 . S
C76 C77 1.387 . S
C76 N79 1.341 . S
C77 C75 1.400 . S
C77 C76 1.387 . S
N78 Co69 2.022 . S
N78 C75 1.351 . S
N78 N79 1.365 . S
N79 C76 1.341 . S
N79 N78 1.365 . S
N79 H99 0.862 . S
C80 C75 1.501 . S
C80 H81 0.961 . S
C80 H82 0.961 . S
C80 H83 0.960 . S
H81 C80 0.961 . S
H82 C80 0.961 . S
H83 C80 0.960 . S
C84 N85 1.342 . S
C84 C88 1.401 . S
C84 C89 1.499 . S
N85 Co68 1.989 . S
N85 C84 1.342 . S
N85 N86 1.388 . S
N86 Co69 1.993 . S
N86 N85 1.388 . S
N86 C87 1.346 . S
C87 N86 1.346 . S
C87 C88 1.396 . S
C87 C97 1.510 . S
C88 C84 1.401 . S
C88 C87 1.396 . S
C89 C84 1.499 . S
C89 H90 0.959 . S
C89 H91 0.960 . S
C89 H92 0.961 . S
H90 C89 0.959 . S
H91 C89 0.960 . S
H92 C89 0.961 . S
O93 Co68 1.967 . S
O93 C101 1.258 . S
O94 Co69 1.941 . S
O94 C101 1.266 . S
H95 C97 0.959 . S
H96 C97 0.961 . S
C97 C87 1.510 . S
C97 H95 0.959 . S
C97 H96 0.961 . S
C97 H98 0.960 . S
H98 C97 0.960 . S
H99 N79 0.862 . S
O100 Co68 1.920 . S
O100 C73 1.289 . S
C101 O93 1.258 . S
C101 O94 1.266 . S
Co102 O105 1.970 . S
Co102 N119 1.989 . S
Co102 O127 1.967 . S
Co102 O134 1.920 . S
Co103 O106 1.966 . S
Co103 N112 2.022 . S
Co103 N120 1.993 . S
Co103 O128 1.941 . S
C104 O105 1.258 . S
C104 O106 1.263 . S
O105 Co102 1.970 . S
O105 C104 1.258 . S
O106 Co103 1.966 . S
O106 C104 1.263 . S
C107 O108 1.235 . S
C107 O134 1.289 . S
O108 C107 1.235 . S
C109 C111 1.400 . S
C109 N112 1.351 . S
C109 C114 1.501 . S
C110 C111 1.387 . S
C110 N113 1.341 . S
C111 C109 1.400 . S
C111 C110 1.387 . S
N112 Co103 2.022 . S
N112 C109 1.351 . S
N112 N113 1.365 . S
N113 C110 1.341 . S
N113 N112 1.365 . S
N113 H133 0.862 . S
C114 C109 1.501 . S
C114 H115 0.961 . S
C114 H116 0.961 . S
C114 H117 0.960 . S
H115 C114 0.961 . S
H116 C114 0.961 . S
H117 C114 0.960 . S
C118 N119 1.342 . S
C118 C122 1.401 . S
C118 C123 1.499 . S
N119 Co102 1.989 . S
N119 C118 1.342 . S
N119 N120 1.388 . S
N120 Co103 1.993 . S
N120 N119 1.388 . S
N120 C121 1.346 . S
C121 N120 1.346 . S
C121 C122 1.396 . S
C121 C131 1.510 . S
C122 C118 1.401 . S
C122 C121 1.396 . S
C123 C118 1.499 . S
C123 H124 0.959 . S
C123 H125 0.960 . S
C123 H126 0.961 . S
H124 C123 0.959 . S
H125 C123 0.960 . S
H126 C123 0.961 . S
O127 Co102 1.967 . S
O127 C135 1.258 . S
O128 Co103 1.941 . S
O128 C135 1.266 . S
H129 C131 0.959 . S
H130 C131 0.961 . S
C131 C121 1.510 . S
C131 H129 0.959 . S
C131 H130 0.961 . S
C131 H132 0.960 . S
H132 C131 0.960 . S
H133 N113 0.862 . S
O134 Co102 1.920 . S
O134 C107 1.289 . S
C135 O127 1.258 . S
C135 O128 1.266 . S
Co136 O139 1.970 . S
Co136 N153 1.989 . S
Co136 O161 1.967 . S
Co136 O168 1.920 . S
Co137 O140 1.966 . S
Co137 N146 2.022 . S
Co137 N154 1.993 . S
Co137 O162 1.941 . S
C138 O139 1.258 . S
C138 O140 1.263 . S
O139 Co136 1.970 . S
O139 C138 1.258 . S
O140 Co137 1.966 . S
O140 C138 1.263 . S
C141 O142 1.235 . S
C141 O168 1.289 . S
O142 C141 1.235 . S
C143 C145 1.400 . S
C143 N146 1.351 . S
C143 C148 1.501 . S
C144 C145 1.387 . S
C144 N147 1.341 . S
C145 C143 1.400 . S
C145 C144 1.387 . S
N146 Co137 2.022 . S
N146 C143 1.351 . S
N146 N147 1.365 . S
N147 C144 1.341 . S
N147 N146 1.365 . S
N147 H167 0.862 . S
C148 C143 1.501 . S
C148 H149 0.961 . S
C148 H150 0.961 . S
C148 H151 0.960 . S
H149 C148 0.961 . S
H150 C148 0.961 . S
H151 C148 0.960 . S
C152 N153 1.342 . S
C152 C156 1.401 . S
C152 C157 1.499 . S
N153 Co136 1.989 . S
N153 C152 1.342 . S
N153 N154 1.388 . S
N154 Co137 1.993 . S
N154 N153 1.388 . S
N154 C155 1.346 . S
C155 N154 1.346 . S
C155 C156 1.396 . S
C155 C165 1.510 . S
C156 C152 1.401 . S
C156 C155 1.396 . S
C157 C152 1.499 . S
C157 H158 0.959 . S
C157 H159 0.960 . S
C157 H160 0.961 . S
H158 C157 0.959 . S
H159 C157 0.960 . S
H160 C157 0.961 . S
O161 Co136 1.967 . S
O161 C169 1.258 . S
O162 Co137 1.941 . S
O162 C169 1.266 . S
H163 C165 0.959 . S
H164 C165 0.961 . S
C165 C155 1.510 . S
C165 H163 0.959 . S
C165 H164 0.961 . S
C165 H166 0.960 . S
H166 C165 0.960 . S
H167 N147 0.862 . S
O168 Co136 1.920 . S
O168 C141 1.289 . S
C169 O161 1.258 . S
C169 O162 1.266 . S
Co170 O173 1.970 . S
Co170 N187 1.989 . S
Co170 O195 1.967 . S
Co170 O202 1.920 . S
Co171 O174 1.966 . S
Co171 N180 2.022 . S
Co171 N188 1.993 . S
Co171 O196 1.941 . S
C172 O173 1.258 . S
C172 O174 1.263 . S
O173 Co170 1.970 . S
O173 C172 1.258 . S
O174 Co171 1.966 . S
O174 C172 1.263 . S
C175 O176 1.235 . S
C175 O202 1.289 . S
O176 C175 1.235 . S
C177 C179 1.400 . S
C177 N180 1.351 . S
C177 C182 1.501 . S
C178 C179 1.387 . S
C178 N181 1.341 . S
C179 C177 1.400 . S
C179 C178 1.387 . S
N180 Co171 2.022 . S
N180 C177 1.351 . S
N180 N181 1.365 . S
N181 C178 1.341 . S
N181 N180 1.365 . S
N181 H201 0.862 . S
C182 C177 1.501 . S
C182 H183 0.961 . S
C182 H184 0.961 . S
C182 H185 0.960 . S
H183 C182 0.961 . S
H184 C182 0.961 . S
H185 C182 0.960 . S
C186 N187 1.342 . S
C186 C190 1.401 . S
C186 C191 1.499 . S
N187 Co170 1.989 . S
N187 C186 1.342 . S
N187 N188 1.388 . S
N188 Co171 1.993 . S
N188 N187 1.388 . S
N188 C189 1.346 . S
C189 N188 1.346 . S
C189 C190 1.396 . S
C189 C199 1.510 . S
C190 C186 1.401 . S
C190 C189 1.396 . S
C191 C186 1.499 . S
C191 H192 0.959 . S
C191 H193 0.960 . S
C191 H194 0.961 . S
H192 C191 0.959 . S
H193 C191 0.960 . S
H194 C191 0.961 . S
O195 Co170 1.967 . S
O195 C203 1.258 . S
O196 Co171 1.941 . S
O196 C203 1.266 . S
H197 C199 0.959 . S
H198 C199 0.961 . S
C199 C189 1.510 . S
C199 H197 0.959 . S
C199 H198 0.961 . S
C199 H200 0.960 . S
H200 C199 0.960 . S
H201 N181 0.862 . S
O202 Co170 1.920 . S
O202 C175 1.289 . S
C203 O195 1.258 . S
C203 O196 1.266 . S
Co204 O207 1.970 . S
Co204 N221 1.989 . S
Co204 O229 1.967 . S
Co204 O236 1.920 . S
Co205 O208 1.966 . S
Co205 N214 2.022 . S
Co205 N222 1.993 . S
Co205 O230 1.941 . S
C206 O207 1.258 . S
C206 O208 1.263 . S
O207 Co204 1.970 . S
O207 C206 1.258 . S
O208 Co205 1.966 . S
O208 C206 1.263 . S
C209 O210 1.235 . S
C209 O236 1.289 . S
O210 C209 1.235 . S
C211 C213 1.400 . S
C211 N214 1.351 . S
C211 C216 1.501 . S
C212 C213 1.387 . S
C212 N215 1.341 . S
C213 C211 1.400 . S
C213 C212 1.387 . S
N214 Co205 2.022 . S
N214 C211 1.351 . S
N214 N215 1.365 . S
N215 C212 1.341 . S
N215 N214 1.365 . S
N215 H235 0.862 . S
C216 C211 1.501 . S
C216 H217 0.961 . S
C216 H218 0.961 . S
C216 H219 0.960 . S
H217 C216 0.961 . S
H218 C216 0.961 . S
H219 C216 0.960 . S
C220 N221 1.342 . S
C220 C224 1.401 . S
C220 C225 1.499 . S
N221 Co204 1.989 . S
N221 C220 1.342 . S
N221 N222 1.388 . S
N222 Co205 1.993 . S
N222 N221 1.388 . S
N222 C223 1.346 . S
C223 N222 1.346 . S
C223 C224 1.396 . S
C223 C233 1.510 . S
C224 C220 1.401 . S
C224 C223 1.396 . S
C225 C220 1.499 . S
C225 H226 0.959 . S
C225 H227 0.960 . S
C225 H228 0.961 . S
H226 C225 0.959 . S
H227 C225 0.960 . S
H228 C225 0.961 . S
O229 Co204 1.967 . S
O229 C237 1.258 . S
O230 Co205 1.941 . S
O230 C237 1.266 . S
H231 C233 0.959 . S
H232 C233 0.961 . S
C233 C223 1.510 . S
C233 H231 0.959 . S
C233 H232 0.961 . S
C233 H234 0.960 . S
H234 C233 0.960 . S
H235 N215 0.862 . S
O236 Co204 1.920 . S
O236 C209 1.289 . S
C237 O229 1.258 . S
C237 O230 1.266 . S
Co238 O241 1.970 . S
Co238 N255 1.989 . S
Co238 O263 1.967 . S
Co238 O270 1.920 . S
Co239 O242 1.966 . S
Co239 N248 2.022 . S
Co239 N256 1.993 . S
Co239 O264 1.941 . S
C240 O241 1.258 . S
C240 O242 1.263 . S
O241 Co238 1.970 . S
O241 C240 1.258 . S
O242 Co239 1.966 . S
O242 C240 1.263 . S
C243 O244 1.235 . S
C243 O270 1.289 . S
O244 C243 1.235 . S
C245 C247 1.400 . S
C245 N248 1.351 . S
C245 C250 1.501 . S
C246 C247 1.387 . S
C246 N249 1.341 . S
C247 C245 1.400 . S
C247 C246 1.387 . S
N248 Co239 2.022 . S
N248 C245 1.351 . S
N248 N249 1.365 . S
N249 C246 1.341 . S
N249 N248 1.365 . S
N249 H269 0.862 . S
C250 C245 1.501 . S
C250 H251 0.961 . S
C250 H252 0.961 . S
C250 H253 0.960 . S
H251 C250 0.961 . S
H252 C250 0.961 . S
H253 C250 0.960 . S
C254 N255 1.342 . S
C254 C258 1.401 . S
C254 C259 1.499 . S
N255 Co238 1.989 . S
N255 C254 1.342 . S
N255 N256 1.388 . S
N256 Co239 1.993 . S
N256 N255 1.388 . S
N256 C257 1.346 . S
C257 N256 1.346 . S
C257 C258 1.396 . S
C257 C267 1.510 . S
C258 C254 1.401 . S
C258 C257 1.396 . S
C259 C254 1.499 . S
C259 H260 0.959 . S
C259 H261 0.960 . S
C259 H262 0.961 . S
H260 C259 0.959 . S
H261 C259 0.960 . S
H262 C259 0.961 . S
O263 Co238 1.967 . S
O263 C271 1.258 . S
O264 Co239 1.941 . S
O264 C271 1.266 . S
H265 C267 0.959 . S
H266 C267 0.961 . S
C267 C257 1.510 . S
C267 H265 0.959 . S
C267 H266 0.961 . S
C267 H268 0.960 . S
H268 C267 0.960 . S
H269 N249 0.862 . S
O270 Co238 1.920 . S
O270 C243 1.289 . S
C271 O263 1.258 . S
C271 O264 1.266 . S
Co272 O275 1.970 . S
Co272 N289 1.989 . S
Co272 O297 1.967 . S
Co272 O304 1.920 . S
Co273 O276 1.966 . S
Co273 N282 2.022 . S
Co273 N290 1.993 . S
Co273 O298 1.941 . S
C274 O275 1.258 . S
C274 O276 1.263 . S
O275 Co272 1.970 . S
O275 C274 1.258 . S
O276 Co273 1.966 . S
O276 C274 1.263 . S
C277 O278 1.235 . S
C277 O304 1.289 . S
O278 C277 1.235 . S
C279 C281 1.400 . S
C279 N282 1.351 . S
C279 C284 1.501 . S
C280 C281 1.387 . S
C280 N283 1.341 . S
C281 C279 1.400 . S
C281 C280 1.387 . S
N282 Co273 2.022 . S
N282 C279 1.351 . S
N282 N283 1.365 . S
N283 C280 1.341 . S
N283 N282 1.365 . S
N283 H303 0.862 . S
C284 C279 1.501 . S
C284 H285 0.961 . S
C284 H286 0.961 . S
C284 H287 0.960 . S
H285 C284 0.961 . S
H286 C284 0.961 . S
H287 C284 0.960 . S
C288 N289 1.342 . S
C288 C292 1.401 . S
C288 C293 1.499 . S
N289 Co272 1.989 . S
N289 C288 1.342 . S
N289 N290 1.388 . S
N290 Co273 1.993 . S
N290 N289 1.388 . S
N290 C291 1.346 . S
C291 N290 1.346 . S
C291 C292 1.396 . S
C291 C301 1.510 . S
C292 C288 1.401 . S
C292 C291 1.396 . S
C293 C288 1.499 . S
C293 H294 0.959 . S
C293 H295 0.960 . S
C293 H296 0.961 . S
H294 C293 0.959 . S
H295 C293 0.960 . S
H296 C293 0.961 . S
O297 Co272 1.967 . S
O297 C305 1.258 . S
O298 Co273 1.941 . S
O298 C305 1.266 . S
H299 C301 0.959 . S
H300 C301 0.961 . S
C301 C291 1.510 . S
C301 H299 0.959 . S
C301 H300 0.961 . S
C301 H302 0.960 . S
H302 C301 0.960 . S
H303 N283 0.862 . S
O304 Co272 1.920 . S
O304 C277 1.289 . S
C305 O297 1.258 . S
C305 O298 1.266 . S
Co306 O309 1.970 . S
Co306 N323 1.989 . S
Co306 O331 1.967 . S
Co306 O338 1.920 . S
Co307 O310 1.966 . S
Co307 N316 2.022 . S
Co307 N324 1.993 . S
Co307 O332 1.941 . S
C308 O309 1.258 . S
C308 O310 1.263 . S
O309 Co306 1.970 . S
O309 C308 1.258 . S
O310 Co307 1.966 . S
O310 C308 1.263 . S
C311 O312 1.235 . S
C311 O338 1.289 . S
O312 C311 1.235 . S
C313 C315 1.400 . S
C313 N316 1.351 . S
C313 C318 1.501 . S
C314 C315 1.387 . S
C314 N317 1.341 . S
C315 C313 1.400 . S
C315 C314 1.387 . S
N316 Co307 2.022 . S
N316 C313 1.351 . S
N316 N317 1.365 . S
N317 C314 1.341 . S
N317 N316 1.365 . S
N317 H337 0.862 . S
C318 C313 1.501 . S
C318 H319 0.961 . S
C318 H320 0.961 . S
C318 H321 0.960 . S
H319 C318 0.961 . S
H320 C318 0.961 . S
H321 C318 0.960 . S
C322 N323 1.342 . S
C322 C326 1.401 . S
C322 C327 1.499 . S
N323 Co306 1.989 . S
N323 C322 1.342 . S
N323 N324 1.388 . S
N324 Co307 1.993 . S
N324 N323 1.388 . S
N324 C325 1.346 . S
C325 N324 1.346 . S
C325 C326 1.396 . S
C325 C335 1.510 . S
C326 C322 1.401 . S
C326 C325 1.396 . S
C327 C322 1.499 . S
C327 H328 0.959 . S
C327 H329 0.960 . S
C327 H330 0.961 . S
H328 C327 0.959 . S
H329 C327 0.960 . S
H330 C327 0.961 . S
O331 Co306 1.967 . S
O331 C339 1.258 . S
O332 Co307 1.941 . S
O332 C339 1.266 . S
H333 C335 0.959 . S
H334 C335 0.961 . S
C335 C325 1.510 . S
C335 H333 0.959 . S
C335 H334 0.961 . S
C335 H336 0.960 . S
H336 C335 0.960 . S
H337 N317 0.862 . S
O338 Co306 1.920 . S
O338 C311 1.289 . S
C339 O331 1.258 . S
C339 O332 1.266 . S
Co340 O343 1.970 . S
Co340 N357 1.989 . S
Co340 O365 1.967 . S
Co340 O372 1.920 . S
Co341 O344 1.966 . S
Co341 N350 2.022 . S
Co341 N358 1.993 . S
Co341 O366 1.941 . S
C342 O343 1.258 . S
C342 O344 1.263 . S
O343 Co340 1.970 . S
O343 C342 1.258 . S
O344 Co341 1.966 . S
O344 C342 1.263 . S
C345 O346 1.235 . S
C345 O372 1.289 . S
O346 C345 1.235 . S
C347 C349 1.400 . S
C347 N350 1.351 . S
C347 C352 1.501 . S
C348 C349 1.387 . S
C348 N351 1.341 . S
C349 C347 1.400 . S
C349 C348 1.387 . S
N350 Co341 2.022 . S
N350 C347 1.351 . S
N350 N351 1.365 . S
N351 C348 1.341 . S
N351 N350 1.365 . S
N351 H371 0.862 . S
C352 C347 1.501 . S
C352 H353 0.961 . S
C352 H354 0.961 . S
C352 H355 0.960 . S
H353 C352 0.961 . S
H354 C352 0.961 . S
H355 C352 0.960 . S
C356 N357 1.342 . S
C356 C360 1.401 . S
C356 C361 1.499 . S
N357 Co340 1.989 . S
N357 C356 1.342 . S
N357 N358 1.388 . S
N358 Co341 1.993 . S
N358 N357 1.388 . S
N358 C359 1.346 . S
C359 N358 1.346 . S
C359 C360 1.396 . S
C359 C369 1.510 . S
C360 C356 1.401 . S
C360 C359 1.396 . S
C361 C356 1.499 . S
C361 H362 0.959 . S
C361 H363 0.960 . S
C361 H364 0.961 . S
H362 C361 0.959 . S
H363 C361 0.960 . S
H364 C361 0.961 . S
O365 Co340 1.967 . S
O365 C373 1.258 . S
O366 Co341 1.941 . S
O366 C373 1.266 . S
H367 C369 0.959 . S
H368 C369 0.961 . S
C369 C359 1.510 . S
C369 H367 0.959 . S
C369 H368 0.961 . S
C369 H370 0.960 . S
H370 C369 0.960 . S
H371 N351 0.862 . S
O372 Co340 1.920 . S
O372 C345 1.289 . S
C373 O365 1.258 . S
C373 O366 1.266 . S
Co374 O377 1.970 . S
Co374 N391 1.989 . S
Co374 O399 1.967 . S
Co374 O406 1.920 . S
Co375 O378 1.966 . S
Co375 N384 2.022 . S
Co375 N392 1.993 . S
Co375 O400 1.941 . S
C376 O377 1.258 . S
C376 O378 1.263 . S
O377 Co374 1.970 . S
O377 C376 1.258 . S
O378 Co375 1.966 . S
O378 C376 1.263 . S
C379 O380 1.235 . S
C379 O406 1.289 . S
O380 C379 1.235 . S
C381 C383 1.400 . S
C381 N384 1.351 . S
C381 C386 1.501 . S
C382 C383 1.387 . S
C382 N385 1.341 . S
C383 C381 1.400 . S
C383 C382 1.387 . S
N384 Co375 2.022 . S
N384 C381 1.351 . S
N384 N385 1.365 . S
N385 C382 1.341 . S
N385 N384 1.365 . S
N385 H405 0.862 . S
C386 C381 1.501 . S
C386 H387 0.961 . S
C386 H388 0.961 . S
C386 H389 0.960 . S
H387 C386 0.961 . S
H388 C386 0.961 . S
H389 C386 0.960 . S
C390 N391 1.342 . S
C390 C394 1.401 . S
C390 C395 1.499 . S
N391 Co374 1.989 . S
N391 C390 1.342 . S
N391 N392 1.388 . S
N392 Co375 1.993 . S
N392 N391 1.388 . S
N392 C393 1.346 . S
C393 N392 1.346 . S
C393 C394 1.396 . S
C393 C403 1.510 . S
C394 C390 1.401 . S
C394 C393 1.396 . S
C395 C390 1.499 . S
C395 H396 0.959 . S
C395 H397 0.960 . S
C395 H398 0.961 . S
H396 C395 0.959 . S
H397 C395 0.960 . S
H398 C395 0.961 . S
O399 Co374 1.967 . S
O399 C407 1.258 . S
O400 Co375 1.941 . S
O400 C407 1.266 . S
H401 C403 0.959 . S
H402 C403 0.961 . S
C403 C393 1.510 . S
C403 H401 0.959 . S
C403 H402 0.961 . S
C403 H404 0.960 . S
H404 C403 0.960 . S
H405 N385 0.862 . S
O406 Co374 1.920 . S
O406 C379 1.289 . S
C407 O399 1.258 . S
C407 O400 1.266 . S
Co408 O411 1.970 . S
Co408 N425 1.989 . S
Co408 O433 1.967 . S
Co408 O440 1.920 . S
Co409 O412 1.966 . S
Co409 N418 2.022 . S
Co409 N426 1.993 . S
Co409 O434 1.941 . S
C410 O411 1.258 . S
C410 O412 1.263 . S
O411 Co408 1.970 . S
O411 C410 1.258 . S
O412 Co409 1.966 . S
O412 C410 1.263 . S
C413 O414 1.235 . S
C413 O440 1.289 . S
O414 C413 1.235 . S
C415 C417 1.400 . S
C415 N418 1.351 . S
C415 C420 1.501 . S
C416 C417 1.387 . S
C416 N419 1.341 . S
C417 C415 1.400 . S
C417 C416 1.387 . S
N418 Co409 2.022 . S
N418 C415 1.351 . S
N418 N419 1.365 . S
N419 C416 1.341 . S
N419 N418 1.365 . S
N419 H439 0.862 . S
C420 C415 1.501 . S
C420 H421 0.961 . S
C420 H422 0.961 . S
C420 H423 0.960 . S
H421 C420 0.961 . S
H422 C420 0.961 . S
H423 C420 0.960 . S
C424 N425 1.342 . S
C424 C428 1.401 . S
C424 C429 1.499 . S
N425 Co408 1.989 . S
N425 C424 1.342 . S
N425 N426 1.388 . S
N426 Co409 1.993 . S
N426 N425 1.388 . S
N426 C427 1.346 . S
C427 N426 1.346 . S
C427 C428 1.396 . S
C427 C437 1.510 . S
C428 C424 1.401 . S
C428 C427 1.396 . S
C429 C424 1.499 . S
C429 H430 0.959 . S
C429 H431 0.960 . S
C429 H432 0.961 . S
H430 C429 0.959 . S
H431 C429 0.960 . S
H432 C429 0.961 . S
O433 Co408 1.967 . S
O433 C441 1.258 . S
O434 Co409 1.941 . S
O434 C441 1.266 . S
H435 C437 0.959 . S
H436 C437 0.961 . S
C437 C427 1.510 . S
C437 H435 0.959 . S
C437 H436 0.961 . S
C437 H438 0.960 . S
H438 C437 0.960 . S
H439 N419 0.862 . S
O440 Co408 1.920 . S
O440 C413 1.289 . S
C441 O433 1.258 . S
C441 O434 1.266 . S
Co442 O445 1.970 . S
Co442 N459 1.989 . S
Co442 O467 1.967 . S
Co442 O474 1.920 . S
Co443 O446 1.966 . S
Co443 N452 2.022 . S
Co443 N460 1.993 . S
Co443 O468 1.941 . S
C444 O445 1.258 . S
C444 O446 1.263 . S
O445 Co442 1.970 . S
O445 C444 1.258 . S
O446 Co443 1.966 . S
O446 C444 1.263 . S
C447 O448 1.235 . S
C447 O474 1.289 . S
O448 C447 1.235 . S
C449 C451 1.400 . S
C449 N452 1.351 . S
C449 C454 1.501 . S
C450 C451 1.387 . S
C450 N453 1.341 . S
C451 C449 1.400 . S
C451 C450 1.387 . S
N452 Co443 2.022 . S
N452 C449 1.351 . S
N452 N453 1.365 . S
N453 C450 1.341 . S
N453 N452 1.365 . S
N453 H473 0.862 . S
C454 C449 1.501 . S
C454 H455 0.961 . S
C454 H456 0.961 . S
C454 H457 0.960 . S
H455 C454 0.961 . S
H456 C454 0.961 . S
H457 C454 0.960 . S
C458 N459 1.342 . S
C458 C462 1.401 . S
C458 C463 1.499 . S
N459 Co442 1.989 . S
N459 C458 1.342 . S
N459 N460 1.388 . S
N460 Co443 1.993 . S
N460 N459 1.388 . S
N460 C461 1.346 . S
C461 N460 1.346 . S
C461 C462 1.396 . S
C461 C471 1.510 . S
C462 C458 1.401 . S
C462 C461 1.396 . S
C463 C458 1.499 . S
C463 H464 0.959 . S
C463 H465 0.960 . S
C463 H466 0.961 . S
H464 C463 0.959 . S
H465 C463 0.960 . S
H466 C463 0.961 . S
O467 Co442 1.967 . S
O467 C475 1.258 . S
O468 Co443 1.941 . S
O468 C475 1.266 . S
H469 C471 0.959 . S
H470 C471 0.961 . S
C471 C461 1.510 . S
C471 H469 0.959 . S
C471 H470 0.961 . S
C471 H472 0.960 . S
H472 C471 0.960 . S
H473 N453 0.862 . S
O474 Co442 1.920 . S
O474 C447 1.289 . S
C475 O467 1.258 . S
C475 O468 1.266 . S
Co476 O479 1.970 . S
Co476 N493 1.989 . S
Co476 O501 1.967 . S
Co476 O508 1.920 . S
Co477 O480 1.966 . S
Co477 N486 2.022 . S
Co477 N494 1.993 . S
Co477 O502 1.941 . S
C478 O479 1.258 . S
C478 O480 1.263 . S
O479 Co476 1.970 . S
O479 C478 1.258 . S
O480 Co477 1.966 . S
O480 C478 1.263 . S
C481 O482 1.235 . S
C481 O508 1.289 . S
O482 C481 1.235 . S
C483 C485 1.400 . S
C483 N486 1.351 . S
C483 C488 1.501 . S
C484 C485 1.387 . S
C484 N487 1.341 . S
C485 C483 1.400 . S
C485 C484 1.387 . S
N486 Co477 2.022 . S
N486 C483 1.351 . S
N486 N487 1.365 . S
N487 C484 1.341 . S
N487 N486 1.365 . S
N487 H507 0.862 . S
C488 C483 1.501 . S
C488 H489 0.961 . S
C488 H490 0.961 . S
C488 H491 0.960 . S
H489 C488 0.961 . S
H490 C488 0.961 . S
H491 C488 0.960 . S
C492 N493 1.342 . S
C492 C496 1.401 . S
C492 C497 1.499 . S
N493 Co476 1.989 . S
N493 C492 1.342 . S
N493 N494 1.388 . S
N494 Co477 1.993 . S
N494 N493 1.388 . S
N494 C495 1.346 . S
C495 N494 1.346 . S
C495 C496 1.396 . S
C495 C505 1.510 . S
C496 C492 1.401 . S
C496 C495 1.396 . S
C497 C492 1.499 . S
C497 H498 0.959 . S
C497 H499 0.960 . S
C497 H500 0.961 . S
H498 C497 0.959 . S
H499 C497 0.960 . S
H500 C497 0.961 . S
O501 Co476 1.967 . S
O501 C509 1.258 . S
O502 Co477 1.941 . S
O502 C509 1.266 . S
H503 C505 0.959 . S
H504 C505 0.961 . S
C505 C495 1.510 . S
C505 H503 0.959 . S
C505 H504 0.961 . S
C505 H506 0.960 . S
H506 C505 0.960 . S
H507 N487 0.862 . S
O508 Co476 1.920 . S
O508 C481 1.289 . S
C509 O501 1.258 . S
C509 O502 1.266 . S
Co510 O513 1.970 . S
Co510 N527 1.989 . S
Co510 O535 1.967 . S
Co510 O542 1.920 . S
Co511 O514 1.966 . S
Co511 N520 2.022 . S
Co511 N528 1.993 . S
Co511 O536 1.941 . S
C512 O513 1.258 . S
C512 O514 1.263 . S
O513 Co510 1.970 . S
O513 C512 1.258 . S
O514 Co511 1.966 . S
O514 C512 1.263 . S
C515 O516 1.235 . S
C515 O542 1.289 . S
O516 C515 1.235 . S
C517 C519 1.400 . S
C517 N520 1.351 . S
C517 C522 1.501 . S
C518 C519 1.387 . S
C518 N521 1.341 . S
C519 C517 1.400 . S
C519 C518 1.387 . S
N520 Co511 2.022 . S
N520 C517 1.351 . S
N520 N521 1.365 . S
N521 C518 1.341 . S
N521 N520 1.365 . S
N521 H541 0.862 . S
C522 C517 1.501 . S
C522 H523 0.961 . S
C522 H524 0.961 . S
C522 H525 0.960 . S
H523 C522 0.961 . S
H524 C522 0.961 . S
H525 C522 0.960 . S
C526 N527 1.342 . S
C526 C530 1.401 . S
C526 C531 1.499 . S
N527 Co510 1.989 . S
N527 C526 1.342 . S
N527 N528 1.388 . S
N528 Co511 1.993 . S
N528 N527 1.388 . S
N528 C529 1.346 . S
C529 N528 1.346 . S
C529 C530 1.396 . S
C529 C539 1.510 . S
C530 C526 1.401 . S
C530 C529 1.396 . S
C531 C526 1.499 . S
C531 H532 0.959 . S
C531 H533 0.960 . S
C531 H534 0.961 . S
H532 C531 0.959 . S
H533 C531 0.960 . S
H534 C531 0.961 . S
O535 Co510 1.967 . S
O535 C543 1.258 . S
O536 Co511 1.941 . S
O536 C543 1.266 . S
H537 C539 0.959 . S
H538 C539 0.961 . S
C539 C529 1.510 . S
C539 H537 0.959 . S
C539 H538 0.961 . S
C539 H540 0.960 . S
H540 C539 0.960 . S
H541 N521 0.862 . S
O542 Co510 1.920 . S
O542 C515 1.289 . S
C543 O535 1.258 . S
C543 O536 1.266 . S
H544 C562 0.951 . S
H545 C564 0.951 . S
H546 C566 0.950 . S
H547 C567 0.950 . S
H548 C569 0.950 . S
H549 C572 0.950 . S
H550 C573 0.950 . S
H551 C575 0.950 . S
H552 C576 0.950 . S
H553 C577 0.951 . S
H554 C579 0.951 . S
H555 C581 0.950 . S
H556 C582 0.950 . S
H557 C584 0.950 . S
H558 C587 0.950 . S
H559 C588 0.950 . S
H560 C590 0.950 . S
H561 C591 0.950 . S
C562 H544 0.951 . S
C562 C563 1.366 . S
C562 C564 1.388 . S
C563 C562 1.366 . S
C563 C567 1.385 . S
C564 H545 0.951 . S
C564 C562 1.388 . S
C564 C565 1.366 . S
C565 C564 1.366 . S
C565 C566 1.414 . S
C565 C568 1.499 . S
C566 H546 0.950 . S
C566 C565 1.414 . S
C566 C567 1.374 . S
C567 H547 0.950 . S
C567 C563 1.385 . S
C567 C566 1.374 . S
C568 C565 1.499 . S
C568 C569 1.373 . S
C568 C570 1.389 . S
C569 H548 0.950 . S
C569 C568 1.373 . S
C569 C585 1.377 . S
C570 C568 1.389 . S
C570 C571 1.524 . S
C570 C584 1.377 . S
C571 C570 1.524 . S
C571 C572 1.397 . S
C571 C576 1.363 . S
C572 H549 0.950 . S
C572 C571 1.397 . S
C572 C573 1.334 . S
C573 H550 0.950 . S
C573 C572 1.334 . S
C573 C574 1.287 . S
C574 C573 1.287 . S
C574 C575 1.524 . S
C574 H593 0.913 . S
C575 H551 0.950 . S
C575 C574 1.524 . S
C575 C576 1.415 . S
C576 H552 0.950 . S
C576 C571 1.363 . S
C576 C575 1.415 . S
C577 H553 0.951 . S
C577 C578 1.366 . S
C577 C579 1.388 . S
C578 C577 1.366 . S
C578 C582 1.385 . S
C579 H554 0.951 . S
C579 C577 1.388 . S
C579 C580 1.366 . S
C580 C579 1.366 . S
C580 C581 1.414 . S
C580 C583 1.499 . S
C581 H555 0.950 . S
C581 C580 1.414 . S
C581 C582 1.374 . S
C582 H556 0.950 . S
C582 C578 1.385 . S
C582 C581 1.374 . S
C583 C580 1.499 . S
C583 C584 1.373 . S
C583 C585 1.389 . S
C584 H557 0.950 . S
C584 C570 1.377 . S
C584 C583 1.373 . S
C585 C569 1.377 . S
C585 C583 1.389 . S
C585 C586 1.524 . S
C586 C585 1.524 . S
C586 C587 1.397 . S
C586 C591 1.363 . S
C587 H558 0.950 . S
C587 C586 1.397 . S
C587 C588 1.334 . S
C588 H559 0.950 . S
C588 C587 1.334 . S
C588 C589 1.287 . S
C589 C588 1.287 . S
C589 C590 1.524 . S
C589 H592 0.999 . S
C590 H560 0.950 . S
C590 C589 1.524 . S
C590 C591 1.415 . S
C591 H561 0.950 . S
C591 C586 1.363 . S
C591 C590 1.415 . S
H592 C589 0.999 . S
H593 C574 0.913 . S
H594 C612 0.951 . S
H595 C614 0.951 . S
H596 C616 0.950 . S
H597 C617 0.950 . S
H598 C619 0.950 . S
H599 C622 0.950 . S
H600 C623 0.950 . S
H601 C625 0.950 . S
H602 C626 0.950 . S
H603 C627 0.951 . S
H604 C629 0.951 . S
H605 C631 0.950 . S
H606 C632 0.950 . S
H607 C634 0.950 . S
H608 C637 0.950 . S
H609 C638 0.950 . S
H610 C640 0.950 . S
H611 C641 0.950 . S
C612 H594 0.951 . S
C612 C613 1.366 . S
C612 C614 1.388 . S
C613 C612 1.366 . S
C613 C617 1.385 . S
C614 H595 0.951 . S
C614 C612 1.388 . S
C614 C615 1.366 . S
C615 C614 1.366 . S
C615 C616 1.414 . S
C615 C618 1.499 . S
C616 H596 0.950 . S
C616 C615 1.414 . S
C616 C617 1.374 . S
C617 H597 0.950 . S
C617 C613 1.385 . S
C617 C616 1.374 . S
C618 C615 1.499 . S
C618 C619 1.373 . S
C618 C620 1.389 . S
C619 H598 0.950 . S
C619 C618 1.373 . S
C619 C635 1.377 . S
C620 C618 1.389 . S
C620 C621 1.524 . S
C620 C634 1.377 . S
C621 C620 1.524 . S
C621 C622 1.397 . S
C621 C626 1.363 . S
C622 H599 0.950 . S
C622 C621 1.397 . S
C622 C623 1.334 . S
C623 H600 0.950 . S
C623 C622 1.334 . S
C623 C624 1.287 . S
C624 C623 1.287 . S
C624 C625 1.524 . S
C624 H643 0.913 . S
C625 H601 0.950 . S
C625 C624 1.524 . S
C625 C626 1.415 . S
C626 H602 0.950 . S
C626 C621 1.363 . S
C626 C625 1.415 . S
C627 H603 0.951 . S
C627 C628 1.366 . S
C627 C629 1.388 . S
C628 C627 1.366 . S
C628 C632 1.385 . S
C629 H604 0.951 . S
C629 C627 1.388 . S
C629 C630 1.366 . S
C630 C629 1.366 . S
C630 C631 1.414 . S
C630 C633 1.499 . S
C631 H605 0.950 . S
C631 C630 1.414 . S
C631 C632 1.374 . S
C632 H606 0.950 . S
C632 C628 1.385 . S
C632 C631 1.374 . S
C633 C630 1.499 . S
C633 C634 1.373 . S
C633 C635 1.389 . S
C634 H607 0.950 . S
C634 C620 1.377 . S
C634 C633 1.373 . S
C635 C619 1.377 . S
C635 C633 1.389 . S
C635 C636 1.524 . S
C636 C635 1.524 . S
C636 C637 1.397 . S
C636 C641 1.363 . S
C637 H608 0.950 . S
C637 C636 1.397 . S
C637 C638 1.334 . S
C638 H609 0.950 . S
C638 C637 1.334 . S
C638 C639 1.287 . S
C639 C638 1.287 . S
C639 C640 1.524 . S
C639 H642 0.999 . S
C640 H610 0.950 . S
C640 C639 1.524 . S
C640 C641 1.415 . S
C641 H611 0.950 . S
C641 C636 1.363 . S
C641 C640 1.415 . S
H642 C639 0.999 . S
H643 C624 0.913 . S
H644 C662 0.951 . S
H645 C664 0.951 . S
H646 C666 0.950 . S
H647 C667 0.950 . S
H648 C669 0.950 . S
H649 C672 0.950 . S
H650 C673 0.950 . S
H651 C675 0.950 . S
H652 C676 0.950 . S
H653 C677 0.951 . S
H654 C679 0.951 . S
H655 C681 0.950 . S
H656 C682 0.950 . S
H657 C684 0.950 . S
H658 C687 0.950 . S
H659 C688 0.950 . S
H660 C690 0.950 . S
H661 C691 0.950 . S
C662 H644 0.951 . S
C662 C663 1.366 . S
C662 C664 1.388 . S
C663 C662 1.366 . S
C663 C667 1.385 . S
C664 H645 0.951 . S
C664 C662 1.388 . S
C664 C665 1.366 . S
C665 C664 1.366 . S
C665 C666 1.414 . S
C665 C668 1.499 . S
C666 H646 0.950 . S
C666 C665 1.414 . S
C666 C667 1.374 . S
C667 H647 0.950 . S
C667 C663 1.385 . S
C667 C666 1.374 . S
C668 C665 1.499 . S
C668 C669 1.373 . S
C668 C670 1.389 . S
C669 H648 0.950 . S
C669 C668 1.373 . S
C669 C685 1.377 . S
C670 C668 1.389 . S
C670 C671 1.524 . S
C670 C684 1.377 . S
C671 C670 1.524 . S
C671 C672 1.397 . S
C671 C676 1.363 . S
C672 H649 0.950 . S
C672 C671 1.397 . S
C672 C673 1.334 . S
C673 H650 0.950 . S
C673 C672 1.334 . S
C673 C674 1.287 . S
C674 C673 1.287 . S
C674 C675 1.524 . S
C674 H693 0.913 . S
C675 H651 0.950 . S
C675 C674 1.524 . S
C675 C676 1.415 . S
C676 H652 0.950 . S
C676 C671 1.363 . S
C676 C675 1.415 . S
C677 H653 0.951 . S
C677 C678 1.366 . S
C677 C679 1.388 . S
C678 C677 1.366 . S
C678 C682 1.385 . S
C679 H654 0.951 . S
C679 C677 1.388 . S
C679 C680 1.366 . S
C680 C679 1.366 . S
C680 C681 1.414 . S
C680 C683 1.499 . S
C681 H655 0.950 . S
C681 C680 1.414 . S
C681 C682 1.374 . S
C682 H656 0.950 . S
C682 C678 1.385 . S
C682 C681 1.374 . S
C683 C680 1.499 . S
C683 C684 1.373 . S
C683 C685 1.389 . S
C684 H657 0.950 . S
C684 C670 1.377 . S
C684 C683 1.373 . S
C685 C669 1.377 . S
C685 C683 1.389 . S
C685 C686 1.524 . S
C686 C685 1.524 . S
C686 C687 1.397 . S
C686 C691 1.363 . S
C687 H658 0.950 . S
C687 C686 1.397 . S
C687 C688 1.334 . S
C688 H659 0.950 . S
C688 C687 1.334 . S
C688 C689 1.287 . S
C689 C688 1.287 . S
C689 C690 1.524 . S
C689 H692 0.999 . S
C690 H660 0.950 . S
C690 C689 1.524 . S
C690 C691 1.415 . S
C691 H661 0.950 . S
C691 C686 1.363 . S
C691 C690 1.415 . S
H692 C689 0.999 . S
H693 C674 0.913 . S
H694 C712 0.951 . S
H695 C714 0.951 . S
H696 C716 0.950 . S
H697 C717 0.950 . S
H698 C719 0.950 . S
H699 C722 0.950 . S
H700 C723 0.950 . S
H701 C725 0.950 . S
H702 C726 0.950 . S
H703 C727 0.951 . S
H704 C729 0.951 . S
H705 C731 0.950 . S
H706 C732 0.950 . S
H707 C734 0.950 . S
H708 C737 0.950 . S
H709 C738 0.950 . S
H710 C740 0.950 . S
H711 C741 0.950 . S
C712 H694 0.951 . S
C712 C713 1.366 . S
C712 C714 1.388 . S
C713 C712 1.366 . S
C713 C717 1.385 . S
C714 H695 0.951 . S
C714 C712 1.388 . S
C714 C715 1.366 . S
C715 C714 1.366 . S
C715 C716 1.414 . S
C715 C718 1.499 . S
C716 H696 0.950 . S
C716 C715 1.414 . S
C716 C717 1.374 . S
C717 H697 0.950 . S
C717 C713 1.385 . S
C717 C716 1.374 . S
C718 C715 1.499 . S
C718 C719 1.373 . S
C718 C720 1.389 . S
C719 H698 0.950 . S
C719 C718 1.373 . S
C719 C735 1.377 . S
C720 C718 1.389 . S
C720 C721 1.524 . S
C720 C734 1.377 . S
C721 C720 1.524 . S
C721 C722 1.397 . S
C721 C726 1.363 . S
C722 H699 0.950 . S
C722 C721 1.397 . S
C722 C723 1.334 . S
C723 H700 0.950 . S
C723 C722 1.334 . S
C723 C724 1.287 . S
C724 C723 1.287 . S
C724 C725 1.524 . S
C724 H743 0.913 . S
C725 H701 0.950 . S
C725 C724 1.524 . S
C725 C726 1.415 . S
C726 H702 0.950 . S
C726 C721 1.363 . S
C726 C725 1.415 . S
C727 H703 0.951 . S
C727 C728 1.366 . S
C727 C729 1.388 . S
C728 C727 1.366 . S
C728 C732 1.385 . S
C729 H704 0.951 . S
C729 C727 1.388 . S
C729 C730 1.366 . S
C730 C729 1.366 . S
C730 C731 1.414 . S
C730 C733 1.499 . S
C731 H705 0.950 . S
C731 C730 1.414 . S
C731 C732 1.374 . S
C732 H706 0.950 . S
C732 C728 1.385 . S
C732 C731 1.374 . S
C733 C730 1.499 . S
C733 C734 1.373 . S
C733 C735 1.389 . S
C734 H707 0.950 . S
C734 C720 1.377 . S
C734 C733 1.373 . S
C735 C719 1.377 . S
C735 C733 1.389 . S
C735 C736 1.524 . S
C736 C735 1.524 . S
C736 C737 1.397 . S
C736 C741 1.363 . S
C737 H708 0.950 . S
C737 C736 1.397 . S
C737 C738 1.334 . S
C738 H709 0.950 . S
C738 C737 1.334 . S
C738 C739 1.287 . S
C739 C738 1.287 . S
C739 C740 1.524 . S
C739 H742 0.999 . S
C740 H710 0.950 . S
C740 C739 1.524 . S
C740 C741 1.415 . S
C741 H711 0.950 . S
C741 C736 1.363 . S
C741 C740 1.415 . S
H742 C739 0.999 . S
H743 C724 0.913 . S
H744 C762 0.951 . S
H745 C764 0.951 . S
H746 C766 0.950 . S
H747 C767 0.950 . S
H748 C769 0.950 . S
H749 C772 0.950 . S
H750 C773 0.950 . S
H751 C775 0.950 . S
H752 C776 0.950 . S
H753 C777 0.951 . S
H754 C779 0.951 . S
H755 C781 0.950 . S
H756 C782 0.950 . S
H757 C784 0.950 . S
H758 C787 0.950 . S
H759 C788 0.950 . S
H760 C790 0.950 . S
H761 C791 0.950 . S
C762 H744 0.951 . S
C762 C763 1.366 . S
C762 C764 1.388 . S
C763 C762 1.366 . S
C763 C767 1.385 . S
C764 H745 0.951 . S
C764 C762 1.388 . S
C764 C765 1.366 . S
C765 C764 1.366 . S
C765 C766 1.414 . S
C765 C768 1.499 . S
C766 H746 0.950 . S
C766 C765 1.414 . S
C766 C767 1.374 . S
C767 H747 0.950 . S
C767 C763 1.385 . S
C767 C766 1.374 . S
C768 C765 1.499 . S
C768 C769 1.373 . S
C768 C770 1.389 . S
C769 H748 0.950 . S
C769 C768 1.373 . S
C769 C785 1.377 . S
C770 C768 1.389 . S
C770 C771 1.524 . S
C770 C784 1.377 . S
C771 C770 1.524 . S
C771 C772 1.397 . S
C771 C776 1.363 . S
C772 H749 0.950 . S
C772 C771 1.397 . S
C772 C773 1.334 . S
C773 H750 0.950 . S
C773 C772 1.334 . S
C773 C774 1.287 . S
C774 C773 1.287 . S
C774 C775 1.524 . S
C774 H793 0.913 . S
C775 H751 0.950 . S
C775 C774 1.524 . S
C775 C776 1.415 . S
C776 H752 0.950 . S
C776 C771 1.363 . S
C776 C775 1.415 . S
C777 H753 0.951 . S
C777 C778 1.366 . S
C777 C779 1.388 . S
C778 C777 1.366 . S
C778 C782 1.385 . S
C779 H754 0.951 . S
C779 C777 1.388 . S
C779 C780 1.366 . S
C780 C779 1.366 . S
C780 C781 1.414 . S
C780 C783 1.499 . S
C781 H755 0.950 . S
C781 C780 1.414 . S
C781 C782 1.374 . S
C782 H756 0.950 . S
C782 C778 1.385 . S
C782 C781 1.374 . S
C783 C780 1.499 . S
C783 C784 1.373 . S
C783 C785 1.389 . S
C784 H757 0.950 . S
C784 C770 1.377 . S
C784 C783 1.373 . S
C785 C769 1.377 . S
C785 C783 1.389 . S
C785 C786 1.524 . S
C786 C785 1.524 . S
C786 C787 1.397 . S
C786 C791 1.363 . S
C787 H758 0.950 . S
C787 C786 1.397 . S
C787 C788 1.334 . S
C788 H759 0.950 . S
C788 C787 1.334 . S
C788 C789 1.287 . S
C789 C788 1.287 . S
C789 C790 1.524 . S
C789 H792 0.999 . S
C790 H760 0.950 . S
C790 C789 1.524 . S
C790 C791 1.415 . S
C791 H761 0.950 . S
C791 C786 1.363 . S
C791 C790 1.415 . S
H792 C789 0.999 . S
H793 C774 0.913 . S
H794 C812 0.951 . S
H795 C814 0.951 . S
H796 C816 0.950 . S
H797 C817 0.950 . S
H798 C819 0.950 . S
H799 C822 0.950 . S
H800 C823 0.950 . S
H801 C825 0.950 . S
H802 C826 0.950 . S
H803 C827 0.951 . S
H804 C829 0.951 . S
H805 C831 0.950 . S
H806 C832 0.950 . S
H807 C834 0.950 . S
H808 C837 0.950 . S
H809 C838 0.950 . S
H810 C840 0.950 . S
H811 C841 0.950 . S
C812 H794 0.951 . S
C812 C813 1.366 . S
C812 C814 1.388 . S
C813 C812 1.366 . S
C813 C817 1.385 . S
C814 H795 0.951 . S
C814 C812 1.388 . S
C814 C815 1.366 . S
C815 C814 1.366 . S
C815 C816 1.414 . S
C815 C818 1.499 . S
C816 H796 0.950 . S
C816 C815 1.414 . S
C816 C817 1.374 . S
C817 H797 0.950 . S
C817 C813 1.385 . S
C817 C816 1.374 . S
C818 C815 1.499 . S
C818 C819 1.373 . S
C818 C820 1.389 . S
C819 H798 0.950 . S
C819 C818 1.373 . S
C819 C835 1.377 . S
C820 C818 1.389 . S
C820 C821 1.524 . S
C820 C834 1.377 . S
C821 C820 1.524 . S
C821 C822 1.397 . S
C821 C826 1.363 . S
C822 H799 0.950 . S
C822 C821 1.397 . S
C822 C823 1.334 . S
C823 H800 0.950 . S
C823 C822 1.334 . S
C823 C824 1.287 . S
C824 C823 1.287 . S
C824 C825 1.524 . S
C824 H843 0.913 . S
C825 H801 0.950 . S
C825 C824 1.524 . S
C825 C826 1.415 . S
C826 H802 0.950 . S
C826 C821 1.363 . S
C826 C825 1.415 . S
C827 H803 0.951 . S
C827 C828 1.366 . S
C827 C829 1.388 . S
C828 C827 1.366 . S
C828 C832 1.385 . S
C829 H804 0.951 . S
C829 C827 1.388 . S
C829 C830 1.366 . S
C830 C829 1.366 . S
C830 C831 1.414 . S
C830 C833 1.499 . S
C831 H805 0.950 . S
C831 C830 1.414 . S
C831 C832 1.374 . S
C832 H806 0.950 . S
C832 C828 1.385 . S
C832 C831 1.374 . S
C833 C830 1.499 . S
C833 C834 1.373 . S
C833 C835 1.389 . S
C834 H807 0.950 . S
C834 C820 1.377 . S
C834 C833 1.373 . S
C835 C819 1.377 . S
C835 C833 1.389 . S
C835 C836 1.524 . S
C836 C835 1.524 . S
C836 C837 1.397 . S
C836 C841 1.363 . S
C837 H808 0.950 . S
C837 C836 1.397 . S
C837 C838 1.334 . S
C838 H809 0.950 . S
C838 C837 1.334 . S
C838 C839 1.287 . S
C839 C838 1.287 . S
C839 C840 1.524 . S
C839 H842 0.999 . S
C840 H810 0.950 . S
C840 C839 1.524 . S
C840 C841 1.415 . S
C841 H811 0.950 . S
C841 C836 1.363 . S
C841 C840 1.415 . S
H842 C839 0.999 . S
H843 C824 0.913 . S
H844 C862 0.951 . S
H845 C864 0.951 . S
H846 C866 0.950 . S
H847 C867 0.950 . S
H848 C869 0.950 . S
H849 C872 0.950 . S
H850 C873 0.950 . S
H851 C875 0.950 . S
H852 C876 0.950 . S
H853 C877 0.951 . S
H854 C879 0.951 . S
H855 C881 0.950 . S
H856 C882 0.950 . S
H857 C884 0.950 . S
H858 C887 0.950 . S
H859 C888 0.950 . S
H860 C890 0.950 . S
H861 C891 0.950 . S
C862 H844 0.951 . S
C862 C863 1.366 . S
C862 C864 1.388 . S
C863 C862 1.366 . S
C863 C867 1.385 . S
C864 H845 0.951 . S
C864 C862 1.388 . S
C864 C865 1.366 . S
C865 C864 1.366 . S
C865 C866 1.414 . S
C865 C868 1.499 . S
C866 H846 0.950 . S
C866 C865 1.414 . S
C866 C867 1.374 . S
C867 H847 0.950 . S
C867 C863 1.385 . S
C867 C866 1.374 . S
C868 C865 1.499 . S
C868 C869 1.373 . S
C868 C870 1.389 . S
C869 H848 0.950 . S
C869 C868 1.373 . S
C869 C885 1.377 . S
C870 C868 1.389 . S
C870 C871 1.524 . S
C870 C884 1.377 . S
C871 C870 1.524 . S
C871 C872 1.397 . S
C871 C876 1.363 . S
C872 H849 0.950 . S
C872 C871 1.397 . S
C872 C873 1.334 . S
C873 H850 0.950 . S
C873 C872 1.334 . S
C873 C874 1.287 . S
C874 C873 1.287 . S
C874 C875 1.524 . S
C874 H893 0.913 . S
C875 H851 0.950 . S
C875 C874 1.524 . S
C875 C876 1.415 . S
C876 H852 0.950 . S
C876 C871 1.363 . S
C876 C875 1.415 . S
C877 H853 0.951 . S
C877 C878 1.366 . S
C877 C879 1.388 . S
C878 C877 1.366 . S
C878 C882 1.385 . S
C879 H854 0.951 . S
C879 C877 1.388 . S
C879 C880 1.366 . S
C880 C879 1.366 . S
C880 C881 1.414 . S
C880 C883 1.499 . S
C881 H855 0.950 . S
C881 C880 1.414 . S
C881 C882 1.374 . S
C882 H856 0.950 . S
C882 C878 1.385 . S
C882 C881 1.374 . S
C883 C880 1.499 . S
C883 C884 1.373 . S
C883 C885 1.389 . S
C884 H857 0.950 . S
C884 C870 1.377 . S
C884 C883 1.373 . S
C885 C869 1.377 . S
C885 C883 1.389 . S
C885 C886 1.524 . S
C886 C885 1.524 . S
C886 C887 1.397 . S
C886 C891 1.363 . S
C887 H858 0.950 . S
C887 C886 1.397 . S
C887 C888 1.334 . S
C888 H859 0.950 . S
C888 C887 1.334 . S
C888 C889 1.287 . S
C889 C888 1.287 . S
C889 C890 1.524 . S
C889 H892 0.999 . S
C890 H860 0.950 . S
C890 C889 1.524 . S
C890 C891 1.415 . S
C891 H861 0.950 . S
C891 C886 1.363 . S
C891 C890 1.415 . S
H892 C889 0.999 . S
H893 C874 0.913 . S
H894 C912 0.951 . S
H895 C914 0.951 . S
H896 C916 0.950 . S
H897 C917 0.950 . S
H898 C919 0.950 . S
H899 C922 0.950 . S
H900 C923 0.950 . S
H901 C925 0.950 . S
H902 C926 0.950 . S
H903 C927 0.951 . S
H904 C929 0.951 . S
H905 C931 0.950 . S
H906 C932 0.950 . S
H907 C934 0.950 . S
H908 C937 0.950 . S
H909 C938 0.950 . S
H910 C940 0.950 . S
H911 C941 0.950 . S
C912 H894 0.951 . S
C912 C913 1.366 . S
C912 C914 1.388 . S
C913 C912 1.366 . S
C913 C917 1.385 . S
C914 H895 0.951 . S
C914 C912 1.388 . S
C914 C915 1.366 . S
C915 C914 1.366 . S
C915 C916 1.414 . S
C915 C918 1.499 . S
C916 H896 0.950 . S
C916 C915 1.414 . S
C916 C917 1.374 . S
C917 H897 0.950 . S
C917 C913 1.385 . S
C917 C916 1.374 . S
C918 C915 1.499 . S
C918 C919 1.373 . S
C918 C920 1.389 . S
C919 H898 0.950 . S
C919 C918 1.373 . S
C919 C935 1.377 . S
C920 C918 1.389 . S
C920 C921 1.524 . S
C920 C934 1.377 . S
C921 C920 1.524 . S
C921 C922 1.397 . S
C921 C926 1.363 . S
C922 H899 0.950 . S
C922 C921 1.397 . S
C922 C923 1.334 . S
C923 H900 0.950 . S
C923 C922 1.334 . S
C923 C924 1.287 . S
C924 C923 1.287 . S
C924 C925 1.524 . S
C924 H943 0.913 . S
C925 H901 0.950 . S
C925 C924 1.524 . S
C925 C926 1.415 . S
C926 H902 0.950 . S
C926 C921 1.363 . S
C926 C925 1.415 . S
C927 H903 0.951 . S
C927 C928 1.366 . S
C927 C929 1.388 . S
C928 C927 1.366 . S
C928 C932 1.385 . S
C929 H904 0.951 . S
C929 C927 1.388 . S
C929 C930 1.366 . S
C930 C929 1.366 . S
C930 C931 1.414 . S
C930 C933 1.499 . S
C931 H905 0.950 . S
C931 C930 1.414 . S
C931 C932 1.374 . S
C932 H906 0.950 . S
C932 C928 1.385 . S
C932 C931 1.374 . S
C933 C930 1.499 . S
C933 C934 1.373 . S
C933 C935 1.389 . S
C934 H907 0.950 . S
C934 C920 1.377 . S
C934 C933 1.373 . S
C935 C919 1.377 . S
C935 C933 1.389 . S
C935 C936 1.524 . S
C936 C935 1.524 . S
C936 C937 1.397 . S
C936 C941 1.363 . S
C937 H908 0.950 . S
C937 C936 1.397 . S
C937 C938 1.334 . S
C938 H909 0.950 . S
C938 C937 1.334 . S
C938 C939 1.287 . S
C939 C938 1.287 . S
C939 C940 1.524 . S
C939 H942 0.999 . S
C940 H910 0.950 . S
C940 C939 1.524 . S
C940 C941 1.415 . S
C941 H911 0.950 . S
C941 C936 1.363 . S
C941 C940 1.415 . S
H942 C939 0.999 . S
H943 C924 0.913 . S
H944 C962 0.951 . S
H945 C964 0.951 . S
H946 C966 0.950 . S
H947 C967 0.950 . S
H948 C969 0.950 . S
H949 C972 0.950 1_455 S
H950 C973 0.950 . S
H951 C975 0.950 . S
H952 C976 0.950 . S
H953 C977 0.951 . S
H954 C979 0.951 . S
H955 C981 0.950 . S
H956 C982 0.950 . S
H957 C984 0.950 . S
H958 C987 0.950 1_655 S
H959 C988 0.950 . S
H960 C990 0.950 . S
H961 C991 0.950 . S
C962 H944 0.951 . S
C962 C963 1.366 . S
C962 C964 1.388 . S
C963 C962 1.366 . S
C963 C967 1.385 . S
C964 H945 0.951 . S
C964 C962 1.388 . S
C964 C965 1.366 . S
C965 C964 1.366 . S
C965 C966 1.414 . S
C965 C968 1.499 . S
C966 H946 0.950 . S
C966 C965 1.414 . S
C966 C967 1.374 . S
C967 H947 0.950 . S
C967 C963 1.385 . S
C967 C966 1.374 . S
C968 C965 1.499 . S
C968 C969 1.373 1_545 S
C968 C970 1.389 1_455 S
C969 H948 0.950 . S
C969 C968 1.373 1_565 S
C969 C985 1.377 . S
C970 C968 1.389 1_655 S
C970 C971 1.524 . S
C970 C984 1.377 . S
C971 C970 1.524 . S
C971 C972 1.397 . S
C971 C976 1.363 . S
C972 H949 0.950 1_655 S
C972 C971 1.397 . S
C972 C973 1.334 . S
C973 H950 0.950 . S
C973 C972 1.334 . S
C973 C974 1.287 . S
C974 C973 1.287 . S
C974 C975 1.524 . S
C974 H993 0.913 . S
C975 H951 0.950 . S
C975 C974 1.524 . S
C975 C976 1.415 . S
C976 H952 0.950 . S
C976 C971 1.363 . S
C976 C975 1.415 . S
C977 H953 0.951 . S
C977 C978 1.366 . S
C977 C979 1.388 . S
C978 C977 1.366 . S
C978 C982 1.385 . S
C979 H954 0.951 . S
C979 C977 1.388 . S
C979 C980 1.366 . S
C980 C979 1.366 . S
C980 C981 1.414 . S
C980 C983 1.499 . S
C981 H955 0.950 . S
C981 C980 1.414 . S
C981 C982 1.374 . S
C982 H956 0.950 . S
C982 C978 1.385 . S
C982 C981 1.374 . S
C983 C980 1.499 . S
C983 C984 1.373 1_565 S
C983 C985 1.389 1_655 S
C984 H957 0.950 . S
C984 C970 1.377 . S
C984 C983 1.373 1_545 S
C985 C969 1.377 . S
C985 C983 1.389 1_455 S
C985 C986 1.524 . S
C986 C985 1.524 . S
C986 C987 1.397 . S
C986 C991 1.363 . S
C987 H958 0.950 1_455 S
C987 C986 1.397 . S
C987 C988 1.334 . S
C988 H959 0.950 . S
C988 C987 1.334 . S
C988 C989 1.287 . S
C989 C988 1.287 . S
C989 C990 1.524 . S
C989 H992 0.999 . S
C990 H960 0.950 . S
C990 C989 1.524 . S
C990 C991 1.415 . S
C991 H961 0.950 . S
C991 C986 1.363 . S
C991 C990 1.415 . S
H992 C989 0.999 . S
H993 C974 0.913 . S
H994 C1012 0.951 . S
H995 C1014 0.951 . S
H996 C1016 0.950 . S
H997 C1017 0.950 . S
H998 C1019 0.950 . S
H999 C1022 0.950 . S
H1000 C1023 0.950 . S
H1001 C1025 0.950 . S
H1002 C1026 0.950 . S
H1003 C1027 0.951 . S
H1004 C1029 0.951 . S
H1005 C1031 0.950 . S
H1006 C1032 0.950 . S
H1007 C1034 0.950 . S
H1008 C1037 0.950 . S
H1009 C1038 0.950 . S
H1010 C1040 0.950 . S
H1011 C1041 0.950 . S
C1012 H994 0.951 . S
C1012 C1013 1.366 . S
C1012 C1014 1.388 . S
C1013 C1012 1.366 . S
C1013 C1017 1.385 . S
C1014 H995 0.951 . S
C1014 C1012 1.388 . S
C1014 C1015 1.366 . S
C1015 C1014 1.366 . S
C1015 C1016 1.414 . S
C1015 C1018 1.499 . S
C1016 H996 0.950 . S
C1016 C1015 1.414 . S
C1016 C1017 1.374 . S
C1017 H997 0.950 . S
C1017 C1013 1.385 . S
C1017 C1016 1.374 . S
C1018 C1015 1.499 . S
C1018 C1019 1.373 1_655 S
C1018 C1020 1.389 1_545 S
C1019 H998 0.950 . S
C1019 C1018 1.373 1_455 S
C1019 C1035 1.376 . S
C1020 C1018 1.389 1_565 S
C1020 C1021 1.524 . S
C1020 C1034 1.376 . S
C1021 C1020 1.524 . S
C1021 C1022 1.397 . S
C1021 C1026 1.363 . S
C1022 H999 0.950 . S
C1022 C1021 1.397 . S
C1022 C1023 1.334 . S
C1023 H1000 0.950 . S
C1023 C1022 1.334 . S
C1023 C1024 1.287 . S
C1024 C1023 1.287 . S
C1024 C1025 1.524 . S
C1024 H1043 0.913 . S
C1025 H1001 0.950 . S
C1025 C1024 1.524 . S
C1025 C1026 1.415 . S
C1026 H1002 0.950 . S
C1026 C1021 1.363 . S
C1026 C1025 1.415 . S
C1027 H1003 0.951 . S
C1027 C1028 1.366 . S
C1027 C1029 1.388 . S
C1028 C1027 1.366 . S
C1028 C1032 1.385 . S
C1029 H1004 0.951 . S
C1029 C1027 1.388 . S
C1029 C1030 1.366 . S
C1030 C1029 1.366 . S
C1030 C1031 1.414 . S
C1030 C1033 1.499 . S
C1031 H1005 0.950 . S
C1031 C1030 1.414 . S
C1031 C1032 1.374 . S
C1032 H1006 0.950 . S
C1032 C1028 1.385 . S
C1032 C1031 1.374 . S
C1033 C1030 1.499 . S
C1033 C1034 1.373 1_455 S
C1033 C1035 1.389 1_565 S
C1034 H1007 0.950 . S
C1034 C1020 1.376 . S
C1034 C1033 1.373 1_655 S
C1035 C1019 1.376 . S
C1035 C1033 1.389 1_545 S
C1035 C1036 1.524 . S
C1036 C1035 1.524 . S
C1036 C1037 1.397 . S
C1036 C1041 1.363 . S
C1037 H1008 0.950 . S
C1037 C1036 1.397 . S
C1037 C1038 1.334 . S
C1038 H1009 0.950 . S
C1038 C1037 1.334 . S
C1038 C1039 1.287 . S
C1039 C1038 1.287 . S
C1039 C1040 1.524 . S
C1039 H1042 0.999 . S
C1040 H1010 0.950 . S
C1040 C1039 1.524 . S
C1040 C1041 1.415 . S
C1041 H1011 0.950 . S
C1041 C1036 1.363 . S
C1041 C1040 1.415 . S
H1042 C1039 0.999 . S
H1043 C1024 0.913 . S
H1044 C1062 0.951 . S
H1045 C1064 0.951 . S
H1046 C1066 0.950 . S
H1047 C1067 0.950 . S
H1048 C1069 0.950 . S
H1049 C1072 0.950 . S
H1050 C1073 0.950 . S
H1051 C1075 0.950 . S
H1052 C1076 0.950 . S
H1053 C1077 0.951 . S
H1054 C1079 0.951 . S
H1055 C1081 0.950 . S
H1056 C1082 0.950 . S
H1057 C1084 0.950 . S
H1058 C1087 0.950 . S
H1059 C1088 0.950 . S
H1060 C1090 0.950 . S
H1061 C1091 0.950 . S
C1062 H1044 0.951 . S
C1062 C1063 1.366 . S
C1062 C1064 1.388 . S
C1063 C1062 1.366 . S
C1063 C1067 1.385 . S
C1064 H1045 0.951 . S
C1064 C1062 1.388 . S
C1064 C1065 1.366 . S
C1065 C1064 1.366 . S
C1065 C1066 1.414 . S
C1065 C1068 1.499 . S
C1066 H1046 0.950 . S
C1066 C1065 1.414 . S
C1066 C1067 1.374 . S
C1067 H1047 0.950 . S
C1067 C1063 1.385 . S
C1067 C1066 1.374 . S
C1068 C1065 1.499 . S
C1068 C1069 1.373 1_655 S
C1068 C1070 1.389 1_545 S
C1069 H1048 0.950 . S
C1069 C1068 1.373 1_455 S
C1069 C1085 1.377 . S
C1070 C1068 1.389 1_565 S
C1070 C1071 1.524 . S
C1070 C1084 1.377 . S
C1071 C1070 1.524 . S
C1071 C1072 1.397 . S
C1071 C1076 1.363 . S
C1072 H1049 0.950 . S
C1072 C1071 1.397 . S
C1072 C1073 1.334 . S
C1073 H1050 0.950 . S
C1073 C1072 1.334 . S
C1073 C1074 1.287 . S
C1074 C1073 1.287 . S
C1074 C1075 1.524 . S
C1074 H1093 0.913 . S
C1075 H1051 0.950 . S
C1075 C1074 1.524 . S
C1075 C1076 1.415 . S
C1076 H1052 0.950 . S
C1076 C1071 1.363 . S
C1076 C1075 1.415 . S
C1077 H1053 0.951 . S
C1077 C1078 1.366 . S
C1077 C1079 1.388 . S
C1078 C1077 1.366 . S
C1078 C1082 1.385 . S
C1079 H1054 0.951 . S
C1079 C1077 1.388 . S
C1079 C1080 1.366 . S
C1080 C1079 1.366 . S
C1080 C1081 1.414 . S
C1080 C1083 1.499 . S
C1081 H1055 0.950 . S
C1081 C1080 1.414 . S
C1081 C1082 1.374 . S
C1082 H1056 0.950 . S
C1082 C1078 1.385 . S
C1082 C1081 1.374 . S
C1083 C1080 1.499 . S
C1083 C1084 1.373 1_455 S
C1083 C1085 1.389 1_565 S
C1084 H1057 0.950 . S
C1084 C1070 1.377 . S
C1084 C1083 1.373 1_655 S
C1085 C1069 1.377 . S
C1085 C1083 1.389 1_545 S
C1085 C1086 1.524 . S
C1086 C1085 1.524 . S
C1086 C1087 1.397 . S
C1086 C1091 1.363 . S
C1087 H1058 0.950 . S
C1087 C1086 1.397 . S
C1087 C1088 1.334 . S
C1088 H1059 0.950 . S
C1088 C1087 1.334 . S
C1088 C1089 1.287 . S
C1089 C1088 1.287 . S
C1089 C1090 1.524 . S
C1089 H1092 0.999 . S
C1090 H1060 0.950 . S
C1090 C1089 1.524 . S
C1090 C1091 1.415 . S
C1091 H1061 0.950 . S
C1091 C1086 1.363 . S
C1091 C1090 1.415 . S
H1092 C1089 0.999 . S
H1093 C1074 0.913 . S
H1094 C1112 0.951 . S
H1095 C1114 0.951 . S
H1096 C1116 0.950 . S
H1097 C1117 0.950 . S
H1098 C1119 0.950 . S
H1099 C1122 0.950 . S
H1100 C1123 0.950 . S
H1101 C1125 0.950 . S
H1102 C1126 0.950 . S
H1103 C1127 0.951 . S
H1104 C1129 0.951 . S
H1105 C1131 0.950 . S
H1106 C1132 0.950 . S
H1107 C1134 0.950 . S
H1108 C1137 0.950 . S
H1109 C1138 0.950 . S
H1110 C1140 0.950 . S
H1111 C1141 0.950 . S
C1112 H1094 0.951 . S
C1112 C1113 1.366 . S
C1112 C1114 1.388 . S
C1113 C1112 1.366 . S
C1113 C1117 1.385 . S
C1114 H1095 0.951 . S
C1114 C1112 1.388 . S
C1114 C1115 1.366 . S
C1115 C1114 1.366 . S
C1115 C1116 1.414 . S
C1115 C1118 1.499 . S
C1116 H1096 0.950 . S
C1116 C1115 1.414 . S
C1116 C1117 1.374 . S
C1117 H1097 0.950 . S
C1117 C1113 1.385 . S
C1117 C1116 1.374 . S
C1118 C1115 1.499 . S
C1118 C1119 1.373 . S
C1118 C1120 1.389 . S
C1119 H1098 0.950 . S
C1119 C1118 1.373 . S
C1119 C1135 1.377 1_445 S
C1120 C1118 1.389 . S
C1120 C1121 1.524 . S
C1120 C1134 1.377 1_445 S
C1121 C1120 1.524 . S
C1121 C1122 1.397 . S
C1121 C1126 1.363 1_545 S
C1122 H1099 0.950 . S
C1122 C1121 1.397 . S
C1122 C1123 1.334 . S
C1123 H1100 0.950 . S
C1123 C1122 1.334 . S
C1123 C1124 1.287 . S
C1124 C1123 1.287 . S
C1124 C1125 1.524 1_545 S
C1124 H1143 0.913 . S
C1125 H1101 0.950 . S
C1125 C1124 1.524 1_565 S
C1125 C1126 1.415 . S
C1126 H1102 0.950 . S
C1126 C1121 1.363 1_565 S
C1126 C1125 1.415 . S
C1127 H1103 0.951 . S
C1127 C1128 1.366 . S
C1127 C1129 1.388 . S
C1128 C1127 1.366 . S
C1128 C1132 1.385 . S
C1129 H1104 0.951 . S
C1129 C1127 1.388 . S
C1129 C1130 1.366 . S
C1130 C1129 1.366 . S
C1130 C1131 1.414 . S
C1130 C1133 1.499 . S
C1131 H1105 0.950 . S
C1131 C1130 1.414 . S
C1131 C1132 1.374 . S
C1132 H1106 0.950 . S
C1132 C1128 1.385 . S
C1132 C1131 1.374 . S
C1133 C1130 1.499 . S
C1133 C1134 1.373 . S
C1133 C1135 1.389 . S
C1134 H1107 0.950 . S
C1134 C1120 1.377 1_665 S
C1134 C1133 1.373 . S
C1135 C1119 1.377 1_665 S
C1135 C1133 1.389 . S
C1135 C1136 1.524 . S
C1136 C1135 1.524 . S
C1136 C1137 1.397 . S
C1136 C1141 1.363 1_565 S
C1137 H1108 0.950 . S
C1137 C1136 1.397 . S
C1137 C1138 1.334 . S
C1138 H1109 0.950 . S
C1138 C1137 1.334 . S
C1138 C1139 1.287 . S
C1139 C1138 1.287 . S
C1139 C1140 1.524 1_565 S
C1139 H1142 0.999 . S
C1140 H1110 0.950 . S
C1140 C1139 1.524 1_545 S
C1140 C1141 1.415 . S
C1141 H1111 0.950 . S
C1141 C1136 1.363 1_545 S
C1141 C1140 1.415 . S
H1142 C1139 0.999 . S
H1143 C1124 0.913 . S
H1144 C1162 0.951 . S
H1145 C1164 0.951 . S
H1146 C1166 0.950 . S
H1147 C1167 0.950 . S
H1148 C1169 0.950 . S
H1149 C1172 0.950 . S
H1150 C1173 0.950 . S
H1151 C1175 0.950 . S
H1152 C1176 0.950 . S
H1153 C1177 0.951 . S
H1154 C1179 0.951 . S
H1155 C1181 0.950 . S
H1156 C1182 0.950 . S
H1157 C1184 0.950 . S
H1158 C1187 0.950 . S
H1159 C1188 0.950 . S
H1160 C1190 0.950 . S
H1161 C1191 0.950 . S
C1162 H1144 0.951 . S
C1162 C1163 1.366 . S
C1162 C1164 1.388 . S
C1163 C1162 1.366 . S
C1163 C1167 1.385 . S
C1164 H1145 0.951 . S
C1164 C1162 1.388 . S
C1164 C1165 1.366 . S
C1165 C1164 1.366 . S
C1165 C1166 1.414 . S
C1165 C1168 1.499 . S
C1166 H1146 0.950 . S
C1166 C1165 1.414 . S
C1166 C1167 1.374 . S
C1167 H1147 0.950 . S
C1167 C1163 1.385 . S
C1167 C1166 1.374 . S
C1168 C1165 1.499 . S
C1168 C1169 1.373 . S
C1168 C1170 1.389 . S
C1169 H1148 0.950 . S
C1169 C1168 1.373 . S
C1169 C1185 1.377 . S
C1170 C1168 1.389 . S
C1170 C1171 1.524 . S
C1170 C1184 1.377 . S
C1171 C1170 1.524 . S
C1171 C1172 1.397 . S
C1171 C1176 1.363 . S
C1172 H1149 0.950 . S
C1172 C1171 1.397 . S
C1172 C1173 1.334 . S
C1173 H1150 0.950 . S
C1173 C1172 1.334 . S
C1173 C1174 1.287 . S
C1174 C1173 1.287 . S
C1174 C1175 1.524 . S
C1174 H1193 0.913 . S
C1175 H1151 0.950 . S
C1175 C1174 1.524 . S
C1175 C1176 1.415 . S
C1176 H1152 0.950 . S
C1176 C1171 1.363 . S
C1176 C1175 1.415 . S
C1177 H1153 0.951 . S
C1177 C1178 1.366 . S
C1177 C1179 1.388 . S
C1178 C1177 1.366 . S
C1178 C1182 1.385 . S
C1179 H1154 0.951 . S
C1179 C1177 1.388 . S
C1179 C1180 1.366 . S
C1180 C1179 1.366 . S
C1180 C1181 1.414 . S
C1180 C1183 1.499 . S
C1181 H1155 0.950 . S
C1181 C1180 1.414 . S
C1181 C1182 1.374 . S
C1182 H1156 0.950 . S
C1182 C1178 1.385 . S
C1182 C1181 1.374 . S
C1183 C1180 1.499 . S
C1183 C1184 1.373 . S
C1183 C1185 1.389 . S
C1184 H1157 0.950 . S
C1184 C1170 1.377 . S
C1184 C1183 1.373 . S
C1185 C1169 1.377 . S
C1185 C1183 1.389 . S
C1185 C1186 1.524 . S
C1186 C1185 1.524 . S
C1186 C1187 1.397 . S
C1186 C1191 1.363 . S
C1187 H1158 0.950 . S
C1187 C1186 1.397 . S
C1187 C1188 1.334 . S
C1188 H1159 0.950 . S
C1188 C1187 1.334 . S
C1188 C1189 1.287 . S
C1189 C1188 1.287 . S
C1189 C1190 1.524 . S
C1189 H1192 0.999 . S
C1190 H1160 0.950 . S
C1190 C1189 1.524 . S
C1190 C1191 1.415 . S
C1191 H1161 0.950 . S
C1191 C1186 1.363 . S
C1191 C1190 1.415 . S
H1192 C1189 0.999 . S
H1193 C1174 0.913 . S
H1194 C1212 0.951 . S
H1195 C1214 0.951 . S
H1196 C1216 0.950 . S
H1197 C1217 0.950 . S
H1198 C1219 0.950 . S
H1199 C1222 0.950 . S
H1200 C1223 0.950 . S
H1201 C1225 0.950 . S
H1202 C1226 0.950 . S
H1203 C1227 0.951 . S
H1204 C1229 0.951 . S
H1205 C1231 0.950 . S
H1206 C1232 0.950 . S
H1207 C1234 0.950 . S
H1208 C1237 0.950 . S
H1209 C1238 0.950 . S
H1210 C1240 0.950 . S
H1211 C1241 0.950 . S
C1212 H1194 0.951 . S
C1212 C1213 1.366 . S
C1212 C1214 1.388 . S
C1213 C1212 1.366 . S
C1213 C1217 1.385 . S
C1214 H1195 0.951 . S
C1214 C1212 1.388 . S
C1214 C1215 1.366 . S
C1215 C1214 1.366 . S
C1215 C1216 1.414 . S
C1215 C1218 1.499 . S
C1216 H1196 0.950 . S
C1216 C1215 1.414 . S
C1216 C1217 1.374 . S
C1217 H1197 0.950 . S
C1217 C1213 1.385 . S
C1217 C1216 1.374 . S
C1218 C1215 1.499 . S
C1218 C1219 1.373 . S
C1218 C1220 1.389 . S
C1219 H1198 0.950 . S
C1219 C1218 1.373 . S
C1219 C1235 1.377 . S
C1220 C1218 1.389 . S
C1220 C1221 1.524 . S
C1220 C1234 1.377 . S
C1221 C1220 1.524 . S
C1221 C1222 1.397 . S
C1221 C1226 1.363 . S
C1222 H1199 0.950 . S
C1222 C1221 1.397 . S
C1222 C1223 1.334 . S
C1223 H1200 0.950 . S
C1223 C1222 1.334 . S
C1223 C1224 1.287 . S
C1224 C1223 1.287 . S
C1224 C1225 1.524 . S
C1224 H1243 0.913 . S
C1225 H1201 0.950 . S
C1225 C1224 1.524 . S
C1225 C1226 1.415 . S
C1226 H1202 0.950 . S
C1226 C1221 1.363 . S
C1226 C1225 1.415 . S
C1227 H1203 0.951 . S
C1227 C1228 1.366 . S
C1227 C1229 1.388 . S
C1228 C1227 1.366 . S
C1228 C1232 1.385 . S
C1229 H1204 0.951 . S
C1229 C1227 1.388 . S
C1229 C1230 1.366 . S
C1230 C1229 1.366 . S
C1230 C1231 1.414 . S
C1230 C1233 1.499 . S
C1231 H1205 0.950 . S
C1231 C1230 1.414 . S
C1231 C1232 1.374 . S
C1232 H1206 0.950 . S
C1232 C1228 1.385 . S
C1232 C1231 1.374 . S
C1233 C1230 1.499 . S
C1233 C1234 1.373 . S
C1233 C1235 1.389 . S
C1234 H1207 0.950 . S
C1234 C1220 1.377 . S
C1234 C1233 1.373 . S
C1235 C1219 1.377 . S
C1235 C1233 1.389 . S
C1235 C1236 1.524 . S
C1236 C1235 1.524 . S
C1236 C1237 1.397 . S
C1236 C1241 1.363 . S
C1237 H1208 0.950 . S
C1237 C1236 1.397 . S
C1237 C1238 1.334 . S
C1238 H1209 0.950 . S
C1238 C1237 1.334 . S
C1238 C1239 1.287 . S
C1239 C1238 1.287 . S
C1239 C1240 1.524 . S
C1239 H1242 0.999 . S
C1240 H1210 0.950 . S
C1240 C1239 1.524 . S
C1240 C1241 1.415 . S
C1241 H1211 0.950 . S
C1241 C1236 1.363 . S
C1241 C1240 1.415 . S
H1242 C1239 0.999 . S
H1243 C1224 0.913 . S
H1244 C1262 0.951 . S
H1245 C1264 0.951 . S
H1246 C1266 0.950 . S
H1247 C1267 0.950 . S
H1248 C1269 0.950 . S
H1249 C1272 0.950 . S
H1250 C1273 0.950 . S
H1251 C1275 0.950 . S
H1252 C1276 0.950 . S
H1253 C1277 0.951 . S
H1254 C1279 0.951 . S
H1255 C1281 0.950 . S
H1256 C1282 0.950 . S
H1257 C1284 0.950 . S
H1258 C1287 0.950 . S
H1259 C1288 0.950 . S
H1260 C1290 0.950 . S
H1261 C1291 0.950 . S
C1262 H1244 0.951 . S
C1262 C1263 1.366 . S
C1262 C1264 1.388 . S
C1263 C1262 1.366 . S
C1263 C1267 1.385 . S
C1264 H1245 0.951 . S
C1264 C1262 1.388 . S
C1264 C1265 1.366 . S
C1265 C1264 1.366 . S
C1265 C1266 1.414 . S
C1265 C1268 1.499 . S
C1266 H1246 0.950 . S
C1266 C1265 1.414 . S
C1266 C1267 1.374 . S
C1267 H1247 0.950 . S
C1267 C1263 1.385 . S
C1267 C1266 1.374 . S
C1268 C1265 1.499 . S
C1268 C1269 1.373 . S
C1268 C1270 1.389 . S
C1269 H1248 0.950 . S
C1269 C1268 1.373 . S
C1269 C1285 1.377 . S
C1270 C1268 1.389 . S
C1270 C1271 1.524 . S
C1270 C1284 1.377 . S
C1271 C1270 1.524 . S
C1271 C1272 1.397 . S
C1271 C1276 1.363 . S
C1272 H1249 0.950 . S
C1272 C1271 1.397 . S
C1272 C1273 1.334 . S
C1273 H1250 0.950 . S
C1273 C1272 1.334 . S
C1273 C1274 1.287 . S
C1274 C1273 1.287 . S
C1274 C1275 1.524 . S
C1274 H1293 0.913 . S
C1275 H1251 0.950 . S
C1275 C1274 1.524 . S
C1275 C1276 1.415 . S
C1276 H1252 0.950 . S
C1276 C1271 1.363 . S
C1276 C1275 1.415 . S
C1277 H1253 0.951 . S
C1277 C1278 1.366 . S
C1277 C1279 1.388 . S
C1278 C1277 1.366 . S
C1278 C1282 1.385 . S
C1279 H1254 0.951 . S
C1279 C1277 1.388 . S
C1279 C1280 1.366 . S
C1280 C1279 1.366 . S
C1280 C1281 1.414 . S
C1280 C1283 1.499 . S
C1281 H1255 0.950 . S
C1281 C1280 1.414 . S
C1281 C1282 1.374 . S
C1282 H1256 0.950 . S
C1282 C1278 1.385 . S
C1282 C1281 1.374 . S
C1283 C1280 1.499 . S
C1283 C1284 1.373 . S
C1283 C1285 1.389 . S
C1284 H1257 0.950 . S
C1284 C1270 1.377 . S
C1284 C1283 1.373 . S
C1285 C1269 1.377 . S
C1285 C1283 1.389 . S
C1285 C1286 1.524 . S
C1286 C1285 1.524 . S
C1286 C1287 1.397 . S
C1286 C1291 1.363 . S
C1287 H1258 0.950 . S
C1287 C1286 1.397 . S
C1287 C1288 1.334 . S
C1288 H1259 0.950 . S
C1288 C1287 1.334 . S
C1288 C1289 1.287 . S
C1289 C1288 1.287 . S
C1289 C1290 1.524 . S
C1289 H1292 0.999 . S
C1290 H1260 0.950 . S
C1290 C1289 1.524 . S
C1290 C1291 1.415 . S
C1291 H1261 0.950 . S
C1291 C1286 1.363 . S
C1291 C1290 1.415 . S
H1292 C1289 0.999 . S
H1293 C1274 0.913 . S
H1294 C1312 0.951 . S
H1295 C1314 0.951 . S
H1296 C1316 0.950 . S
H1297 C1317 0.950 . S
H1298 C1319 0.950 . S
H1299 C1322 0.950 . S
H1300 C1323 0.950 . S
H1301 C1325 0.950 . S
H1302 C1326 0.950 . S
H1303 C1327 0.951 . S
H1304 C1329 0.951 . S
H1305 C1331 0.950 . S
H1306 C1332 0.950 . S
H1307 C1334 0.950 . S
H1308 C1337 0.950 . S
H1309 C1338 0.950 . S
H1310 C1340 0.950 . S
H1311 C1341 0.950 . S
C1312 H1294 0.951 . S
C1312 C1313 1.366 . S
C1312 C1314 1.388 . S
C1313 C1312 1.366 . S
C1313 C1317 1.385 . S
C1314 H1295 0.951 . S
C1314 C1312 1.388 . S
C1314 C1315 1.366 . S
C1315 C1314 1.366 . S
C1315 C1316 1.414 . S
C1315 C1318 1.499 . S
C1316 H1296 0.950 . S
C1316 C1315 1.414 . S
C1316 C1317 1.374 . S
C1317 H1297 0.950 . S
C1317 C1313 1.385 . S
C1317 C1316 1.374 . S
C1318 C1315 1.499 . S
C1318 C1319 1.373 . S
C1318 C1320 1.389 . S
C1319 H1298 0.950 . S
C1319 C1318 1.373 . S
C1319 C1335 1.377 . S
C1320 C1318 1.389 . S
C1320 C1321 1.524 . S
C1320 C1334 1.377 . S
C1321 C1320 1.524 . S
C1321 C1322 1.397 . S
C1321 C1326 1.363 . S
C1322 H1299 0.950 . S
C1322 C1321 1.397 . S
C1322 C1323 1.334 . S
C1323 H1300 0.950 . S
C1323 C1322 1.334 . S
C1323 C1324 1.287 . S
C1324 C1323 1.287 . S
C1324 C1325 1.524 . S
C1324 H1343 0.913 . S
C1325 H1301 0.950 . S
C1325 C1324 1.524 . S
C1325 C1326 1.415 . S
C1326 H1302 0.950 . S
C1326 C1321 1.363 . S
C1326 C1325 1.415 . S
C1327 H1303 0.951 . S
C1327 C1328 1.366 . S
C1327 C1329 1.388 . S
C1328 C1327 1.366 . S
C1328 C1332 1.385 . S
C1329 H1304 0.951 . S
C1329 C1327 1.388 . S
C1329 C1330 1.366 . S
C1330 C1329 1.366 . S
C1330 C1331 1.414 . S
C1330 C1333 1.499 . S
C1331 H1305 0.950 . S
C1331 C1330 1.414 . S
C1331 C1332 1.374 . S
C1332 H1306 0.950 . S
C1332 C1328 1.385 . S
C1332 C1331 1.374 . S
C1333 C1330 1.499 . S
C1333 C1334 1.373 . S
C1333 C1335 1.389 . S
C1334 H1307 0.950 . S
C1334 C1320 1.377 . S
C1334 C1333 1.373 . S
C1335 C1319 1.377 . S
C1335 C1333 1.389 . S
C1335 C1336 1.524 . S
C1336 C1335 1.524 . S
C1336 C1337 1.397 . S
C1336 C1341 1.363 . S
C1337 H1308 0.950 . S
C1337 C1336 1.397 . S
C1337 C1338 1.334 . S
C1338 H1309 0.950 . S
C1338 C1337 1.334 . S
C1338 C1339 1.287 . S
C1339 C1338 1.287 . S
C1339 C1340 1.524 . S
C1339 H1342 0.999 . S
C1340 H1310 0.950 . S
C1340 C1339 1.524 . S
C1340 C1341 1.415 . S
C1341 H1311 0.950 . S
C1341 C1336 1.363 . S
C1341 C1340 1.415 . S
H1342 C1339 0.999 . S
H1343 C1324 0.913 . S
H1344 C1362 0.951 . S
H1345 C1364 0.951 . S
H1346 C1366 0.950 . S
H1347 C1367 0.950 . S
H1348 C1369 0.950 . S
H1349 C1372 0.950 . S
H1350 C1373 0.950 . S
H1351 C1375 0.967 . S
H1352 C1376 0.950 1_554 S
H1353 C1377 0.951 . S
H1354 C1379 0.951 . S
H1355 C1381 0.950 . S
H1356 C1382 0.950 . S
H1357 C1384 0.950 . S
H1358 C1387 0.950 . S
H1359 C1388 0.950 . S
H1360 C1390 0.967 . S
H1361 C1391 0.950 1_556 S
C1362 H1344 0.951 . S
C1362 C1363 1.366 . S
C1362 C1364 1.388 . S
C1363 C1362 1.366 . S
C1363 C1367 1.385 . S
C1364 H1345 0.951 . S
C1364 C1362 1.388 . S
C1364 C1365 1.366 . S
C1365 C1364 1.366 . S
C1365 C1366 1.414 . S
C1365 C1368 1.499 . S
C1366 H1346 0.950 . S
C1366 C1365 1.414 . S
C1366 C1367 1.374 . S
C1367 H1347 0.950 . S
C1367 C1363 1.385 . S
C1367 C1366 1.374 . S
C1368 C1365 1.499 . S
C1368 C1369 1.373 . S
C1368 C1370 1.389 . S
C1369 H1348 0.950 . S
C1369 C1368 1.373 . S
C1369 C1385 1.377 1_556 S
C1370 C1368 1.389 . S
C1370 C1371 1.524 . S
C1370 C1384 1.377 1_556 S
C1371 C1370 1.524 . S
C1371 C1372 1.397 . S
C1371 C1376 1.363 . S
C1372 H1349 0.950 . S
C1372 C1371 1.397 . S
C1372 C1373 1.334 . S
C1373 H1350 0.950 . S
C1373 C1372 1.334 . S
C1373 C1374 1.287 . S
C1374 C1373 1.287 . S
C1374 C1375 1.524 . S
C1374 H1393 0.913 . S
C1375 H1351 0.967 . S
C1375 C1374 1.524 . S
C1375 C1376 1.415 . S
C1376 H1352 0.950 1_556 S
C1376 C1371 1.363 . S
C1376 C1375 1.415 . S
C1377 H1353 0.951 . S
C1377 C1378 1.366 . S
C1377 C1379 1.388 . S
C1378 C1377 1.366 . S
C1378 C1382 1.385 . S
C1379 H1354 0.951 . S
C1379 C1377 1.388 . S
C1379 C1380 1.366 . S
C1380 C1379 1.366 . S
C1380 C1381 1.414 . S
C1380 C1383 1.499 . S
C1381 H1355 0.950 . S
C1381 C1380 1.414 . S
C1381 C1382 1.374 . S
C1382 H1356 0.950 . S
C1382 C1378 1.385 . S
C1382 C1381 1.374 . S
C1383 C1380 1.499 . S
C1383 C1384 1.373 . S
C1383 C1385 1.389 . S
C1384 H1357 0.950 . S
C1384 C1370 1.377 1_554 S
C1384 C1383 1.373 . S
C1385 C1369 1.377 1_554 S
C1385 C1383 1.389 . S
C1385 C1386 1.524 . S
C1386 C1385 1.524 . S
C1386 C1387 1.397 . S
C1386 C1391 1.363 . S
C1387 H1358 0.950 . S
C1387 C1386 1.397 . S
C1387 C1388 1.334 . S
C1388 H1359 0.950 . S
C1388 C1387 1.334 . S
C1388 C1389 1.287 . S
C1389 C1388 1.287 . S
C1389 C1390 1.524 . S
C1389 H1392 0.999 . S
C1390 H1360 0.967 . S
C1390 C1389 1.524 . S
C1390 C1391 1.415 . S
C1391 H1361 0.950 1_554 S
C1391 C1386 1.363 . S
C1391 C1390 1.415 . S
H1392 C1389 0.999 . S
H1393 C1374 0.913 . S
H1394 C1412 0.951 . S
H1395 C1414 0.951 . S
H1396 C1416 0.950 . S
H1397 C1417 0.950 . S
H1398 C1419 0.950 . S
H1399 C1422 0.950 . S
H1400 C1423 0.950 . S
H1401 C1425 0.950 . S
H1402 C1426 0.914 1_556 S
H1403 C1427 0.951 . S
H1404 C1429 0.951 . S
H1405 C1431 0.950 . S
H1406 C1432 0.950 . S
H1407 C1434 0.950 . S
H1408 C1437 0.950 . S
H1409 C1438 0.950 . S
H1410 C1440 0.950 . S
H1411 C1441 0.914 1_554 S
C1412 H1394 0.951 . S
C1412 C1413 1.366 . S
C1412 C1414 1.388 . S
C1413 C1412 1.366 . S
C1413 C1417 1.385 . S
C1414 H1395 0.951 . S
C1414 C1412 1.388 . S
C1414 C1415 1.366 . S
C1415 C1414 1.366 . S
C1415 C1416 1.414 . S
C1415 C1418 1.499 . S
C1416 H1396 0.950 . S
C1416 C1415 1.414 . S
C1416 C1417 1.374 . S
C1417 H1397 0.950 . S
C1417 C1413 1.385 . S
C1417 C1416 1.374 . S
C1418 C1415 1.499 . S
C1418 C1419 1.373 . S
C1418 C1420 1.389 . S
C1419 H1398 0.950 . S
C1419 C1418 1.373 . S
C1419 C1435 1.377 1_554 S
C1420 C1418 1.389 . S
C1420 C1421 1.524 . S
C1420 C1434 1.377 1_554 S
C1421 C1420 1.524 . S
C1421 C1422 1.397 . S
C1421 C1426 1.363 . S
C1422 H1399 0.950 . S
C1422 C1421 1.397 . S
C1422 C1423 1.334 . S
C1423 H1400 0.950 . S
C1423 C1422 1.334 . S
C1423 C1424 1.287 . S
C1424 C1423 1.287 . S
C1424 C1425 1.524 . S
C1424 H1443 0.913 . S
C1425 H1401 0.950 . S
C1425 C1424 1.524 . S
C1425 C1426 1.415 . S
C1426 H1402 0.914 1_554 S
C1426 C1421 1.363 . S
C1426 C1425 1.415 . S
C1427 H1403 0.951 . S
C1427 C1428 1.366 . S
C1427 C1429 1.388 . S
C1428 C1427 1.366 . S
C1428 C1432 1.385 . S
C1429 H1404 0.951 . S
C1429 C1427 1.388 . S
C1429 C1430 1.366 . S
C1430 C1429 1.366 . S
C1430 C1431 1.414 . S
C1430 C1433 1.499 . S
C1431 H1405 0.950 . S
C1431 C1430 1.414 . S
C1431 C1432 1.374 . S
C1432 H1406 0.950 . S
C1432 C1428 1.385 . S
C1432 C1431 1.374 . S
C1433 C1430 1.499 . S
C1433 C1434 1.373 . S
C1433 C1435 1.389 . S
C1434 H1407 0.950 . S
C1434 C1420 1.377 1_556 S
C1434 C1433 1.373 . S
C1435 C1419 1.377 1_556 S
C1435 C1433 1.389 . S
C1435 C1436 1.524 . S
C1436 C1435 1.524 . S
C1436 C1437 1.397 . S
C1436 C1441 1.363 . S
C1437 H1408 0.950 . S
C1437 C1436 1.397 . S
C1437 C1438 1.334 . S
C1438 H1409 0.950 . S
C1438 C1437 1.334 . S
C1438 C1439 1.287 . S
C1439 C1438 1.287 . S
C1439 C1440 1.524 . S
C1439 H1442 0.999 . S
C1440 H1410 0.950 . S
C1440 C1439 1.524 . S
C1440 C1441 1.415 . S
C1441 H1411 0.914 1_556 S
C1441 C1436 1.363 . S
C1441 C1440 1.415 . S
H1442 C1439 0.999 . S
H1443 C1424 0.913 . S
H1444 C1462 0.951 . S
H1445 C1464 0.951 . S
H1446 C1466 0.950 . S
H1447 C1467 0.950 . S
H1448 C1469 0.950 . S
H1449 C1472 0.950 . S
H1450 C1473 0.950 . S
H1451 C1475 0.950 . S
H1452 C1476 0.950 . S
H1453 C1477 0.951 . S
H1454 C1479 0.951 . S
H1455 C1481 0.950 . S
H1456 C1482 0.950 . S
H1457 C1484 0.950 . S
H1458 C1487 0.950 . S
H1459 C1488 0.950 . S
H1460 C1490 0.950 . S
H1461 C1491 0.950 . S
C1462 H1444 0.951 . S
C1462 C1463 1.366 . S
C1462 C1464 1.388 . S
C1463 C1462 1.366 . S
C1463 C1467 1.385 . S
C1464 H1445 0.951 . S
C1464 C1462 1.388 . S
C1464 C1465 1.366 . S
C1465 C1464 1.366 . S
C1465 C1466 1.414 . S
C1465 C1468 1.499 . S
C1466 H1446 0.950 . S
C1466 C1465 1.414 . S
C1466 C1467 1.374 . S
C1467 H1447 0.950 . S
C1467 C1463 1.385 . S
C1467 C1466 1.374 . S
C1468 C1465 1.499 . S
C1468 C1469 1.373 . S
C1468 C1470 1.389 . S
C1469 H1448 0.950 . S
C1469 C1468 1.373 . S
C1469 C1485 1.377 1_556 S
C1470 C1468 1.389 . S
C1470 C1471 1.524 . S
C1470 C1484 1.377 1_556 S
C1471 C1470 1.524 . S
C1471 C1472 1.397 . S
C1471 C1476 1.363 . S
C1472 H1449 0.950 . S
C1472 C1471 1.397 . S
C1472 C1473 1.334 . S
C1473 H1450 0.950 . S
C1473 C1472 1.334 . S
C1473 C1474 1.287 . S
C1474 C1473 1.287 . S
C1474 C1475 1.524 . S
C1474 H1493 0.913 . S
C1475 H1451 0.950 . S
C1475 C1474 1.524 . S
C1475 C1476 1.415 . S
C1476 H1452 0.950 . S
C1476 C1471 1.363 . S
C1476 C1475 1.415 . S
C1477 H1453 0.951 . S
C1477 C1478 1.366 . S
C1477 C1479 1.388 . S
C1478 C1477 1.366 . S
C1478 C1482 1.385 . S
C1479 H1454 0.951 . S
C1479 C1477 1.388 . S
C1479 C1480 1.366 . S
C1480 C1479 1.366 . S
C1480 C1481 1.414 . S
C1480 C1483 1.499 . S
C1481 H1455 0.950 . S
C1481 C1480 1.414 . S
C1481 C1482 1.374 . S
C1482 H1456 0.950 . S
C1482 C1478 1.385 . S
C1482 C1481 1.374 . S
C1483 C1480 1.499 . S
C1483 C1484 1.373 . S
C1483 C1485 1.389 . S
C1484 H1457 0.950 . S
C1484 C1470 1.377 1_554 S
C1484 C1483 1.373 . S
C1485 C1469 1.377 1_554 S
C1485 C1483 1.389 . S
C1485 C1486 1.524 . S
C1486 C1485 1.524 . S
C1486 C1487 1.397 . S
C1486 C1491 1.363 . S
C1487 H1458 0.950 . S
C1487 C1486 1.397 . S
C1487 C1488 1.334 . S
C1488 H1459 0.950 . S
C1488 C1487 1.334 . S
C1488 C1489 1.287 . S
C1489 C1488 1.287 . S
C1489 C1490 1.524 . S
C1489 H1492 0.999 . S
C1490 H1460 0.950 . S
C1490 C1489 1.524 . S
C1490 C1491 1.415 . S
C1491 H1461 0.950 . S
C1491 C1486 1.363 . S
C1491 C1490 1.415 . S
H1492 C1489 0.999 . S
H1493 C1474 0.913 . S
H1494 C1512 0.951 . S
H1495 C1514 0.951 . S
H1496 C1516 0.950 . S
H1497 C1517 0.950 . S
H1498 C1519 0.950 . S
H1499 C1522 0.950 . S
H1500 C1523 0.950 . S
H1501 C1525 0.943 1_554 S
H1502 C1526 0.934 1_554 S
H1503 C1527 0.951 . S
H1504 C1529 0.951 . S
H1505 C1531 0.950 . S
H1506 C1532 0.950 . S
H1507 C1534 0.950 . S
H1508 C1537 0.950 . S
H1509 C1538 0.950 . S
H1510 C1540 0.943 1_556 S
H1511 C1541 0.934 1_556 S
C1512 H1494 0.951 . S
C1512 C1513 1.366 . S
C1512 C1514 1.388 . S
C1513 C1512 1.366 . S
C1513 C1517 1.385 . S
C1514 H1495 0.951 . S
C1514 C1512 1.388 . S
C1514 C1515 1.366 . S
C1515 C1514 1.366 . S
C1515 C1516 1.414 . S
C1515 C1518 1.499 . S
C1516 H1496 0.950 . S
C1516 C1515 1.414 . S
C1516 C1517 1.374 . S
C1517 H1497 0.950 . S
C1517 C1513 1.385 . S
C1517 C1516 1.374 . S
C1518 C1515 1.499 . S
C1518 C1519 1.373 . S
C1518 C1520 1.389 . S
C1519 H1498 0.950 . S
C1519 C1518 1.373 . S
C1519 C1535 1.377 1_556 S
C1520 C1518 1.389 . S
C1520 C1521 1.524 . S
C1520 C1534 1.377 1_556 S
C1521 C1520 1.524 . S
C1521 C1522 1.397 . S
C1521 C1526 1.377 . S
C1522 H1499 0.950 . S
C1522 C1521 1.397 . S
C1522 C1523 1.334 . S
C1523 H1500 0.950 . S
C1523 C1522 1.334 . S
C1523 C1524 1.287 . S
C1524 C1523 1.287 . S
C1524 C1525 1.524 . S
C1524 H1543 0.913 . S
C1525 H1501 0.943 1_556 S
C1525 C1524 1.524 . S
C1525 C1526 1.419 . S
C1526 H1502 0.934 1_556 S
C1526 C1521 1.377 . S
C1526 C1525 1.419 . S
C1527 H1503 0.951 . S
C1527 C1528 1.366 . S
C1527 C1529 1.388 . S
C1528 C1527 1.366 . S
C1528 C1532 1.385 . S
C1529 H1504 0.951 . S
C1529 C1527 1.388 . S
C1529 C1530 1.366 . S
C1530 C1529 1.366 . S
C1530 C1531 1.414 . S
C1530 C1533 1.499 . S
C1531 H1505 0.950 . S
C1531 C1530 1.414 . S
C1531 C1532 1.374 . S
C1532 H1506 0.950 . S
C1532 C1528 1.385 . S
C1532 C1531 1.374 . S
C1533 C1530 1.499 . S
C1533 C1534 1.373 . S
C1533 C1535 1.389 . S
C1534 H1507 0.950 . S
C1534 C1520 1.377 1_554 S
C1534 C1533 1.373 . S
C1535 C1519 1.377 1_554 S
C1535 C1533 1.389 . S
C1535 C1536 1.524 . S
C1536 C1535 1.524 . S
C1536 C1537 1.397 . S
C1536 C1541 1.377 . S
C1537 H1508 0.950 . S
C1537 C1536 1.397 . S
C1537 C1538 1.334 . S
C1538 H1509 0.950 . S
C1538 C1537 1.334 . S
C1538 C1539 1.287 . S
C1539 C1538 1.287 . S
C1539 C1540 1.524 . S
C1539 H1542 0.999 . S
C1540 H1510 0.943 1_554 S
C1540 C1539 1.524 . S
C1540 C1541 1.419 . S
C1541 H1511 0.934 1_554 S
C1541 C1536 1.377 . S
C1541 C1540 1.419 . S
H1542 C1539 0.999 . S
H1543 C1524 0.913 . S
H1544 C1562 0.951 . S
H1545 C1564 0.951 . S
H1546 C1566 0.950 . S
H1547 C1567 0.950 . S
H1548 C1569 0.950 . S
H1549 C1572 0.950 . S
H1550 C1573 0.950 . S
H1551 C1575 0.950 . S
H1552 C1576 0.950 . S
H1553 C1577 0.951 . S
H1554 C1579 0.951 . S
H1555 C1581 0.950 . S
H1556 C1582 0.950 . S
H1557 C1584 0.950 . S
H1558 C1587 0.950 . S
H1559 C1588 0.950 . S
H1560 C1590 0.950 . S
H1561 C1591 0.950 . S
C1562 H1544 0.951 . S
C1562 C1563 1.366 . S
C1562 C1564 1.388 . S
C1563 C1562 1.366 . S
C1563 C1567 1.385 . S
C1564 H1545 0.951 . S
C1564 C1562 1.388 . S
C1564 C1565 1.366 . S
C1565 C1564 1.366 . S
C1565 C1566 1.414 . S
C1565 C1568 1.499 . S
C1566 H1546 0.950 . S
C1566 C1565 1.414 . S
C1566 C1567 1.374 . S
C1567 H1547 0.950 . S
C1567 C1563 1.385 . S
C1567 C1566 1.374 . S
C1568 C1565 1.499 . S
C1568 C1569 1.373 . S
C1568 C1570 1.389 . S
C1569 H1548 0.950 . S
C1569 C1568 1.373 . S
C1569 C1585 1.377 . S
C1570 C1568 1.389 . S
C1570 C1571 1.524 . S
C1570 C1584 1.377 . S
C1571 C1570 1.524 . S
C1571 C1572 1.397 . S
C1571 C1576 1.363 . S
C1572 H1549 0.950 . S
C1572 C1571 1.397 . S
C1572 C1573 1.334 . S
C1573 H1550 0.950 . S
C1573 C1572 1.334 . S
C1573 C1574 1.287 . S
C1574 C1573 1.287 . S
C1574 C1575 1.524 . S
C1574 H1593 0.913 . S
C1575 H1551 0.950 . S
C1575 C1574 1.524 . S
C1575 C1576 1.415 . S
C1576 H1552 0.950 . S
C1576 C1571 1.363 . S
C1576 C1575 1.415 . S
C1577 H1553 0.951 . S
C1577 C1578 1.366 . S
C1577 C1579 1.388 . S
C1578 C1577 1.366 . S
C1578 C1582 1.385 . S
C1579 H1554 0.951 . S
C1579 C1577 1.388 . S
C1579 C1580 1.366 . S
C1580 C1579 1.366 . S
C1580 C1581 1.414 . S
C1580 C1583 1.499 . S
C1581 H1555 0.950 . S
C1581 C1580 1.414 . S
C1581 C1582 1.374 . S
C1582 H1556 0.950 . S
C1582 C1578 1.385 . S
C1582 C1581 1.374 . S
C1583 C1580 1.499 . S
C1583 C1584 1.373 . S
C1583 C1585 1.389 . S
C1584 H1557 0.950 . S
C1584 C1570 1.377 . S
C1584 C1583 1.373 . S
C1585 C1569 1.377 . S
C1585 C1583 1.389 . S
C1585 C1586 1.524 . S
C1586 C1585 1.524 . S
C1586 C1587 1.397 . S
C1586 C1591 1.363 . S
C1587 H1558 0.950 . S
C1587 C1586 1.397 . S
C1587 C1588 1.334 . S
C1588 H1559 0.950 . S
C1588 C1587 1.334 . S
C1588 C1589 1.287 . S
C1589 C1588 1.287 . S
C1589 C1590 1.524 . S
C1589 H1592 0.999 . S
C1590 H1560 0.950 . S
C1590 C1589 1.524 . S
C1590 C1591 1.415 . S
C1591 H1561 0.950 . S
C1591 C1586 1.363 . S
C1591 C1590 1.415 . S
H1592 C1589 0.999 . S
H1593 C1574 0.913 . S
H1594 C1612 0.951 . S
H1595 C1614 0.951 . S
H1596 C1616 0.950 . S
H1597 C1617 0.950 . S
H1598 C1619 0.950 . S
H1599 C1622 0.950 . S
H1600 C1623 0.950 . S
H1601 C1625 0.950 . S
H1602 C1626 0.950 . S
H1603 C1627 0.951 . S
H1604 C1629 0.951 . S
H1605 C1631 0.950 . S
H1606 C1632 0.950 . S
H1607 C1634 0.950 . S
H1608 C1637 0.950 . S
H1609 C1638 0.950 . S
H1610 C1640 0.950 . S
H1611 C1641 0.950 . S
C1612 H1594 0.951 . S
C1612 C1613 1.366 . S
C1612 C1614 1.388 . S
C1613 C1612 1.366 . S
C1613 C1617 1.385 . S
C1614 H1595 0.951 . S
C1614 C1612 1.388 . S
C1614 C1615 1.366 . S
C1615 C1614 1.366 . S
C1615 C1616 1.414 . S
C1615 C1618 1.499 . S
C1616 H1596 0.950 . S
C1616 C1615 1.414 . S
C1616 C1617 1.374 . S
C1617 H1597 0.950 . S
C1617 C1613 1.385 . S
C1617 C1616 1.374 . S
C1618 C1615 1.499 . S
C1618 C1619 1.373 . S
C1618 C1620 1.389 . S
C1619 H1598 0.950 . S
C1619 C1618 1.373 . S
C1619 C1635 1.377 . S
C1620 C1618 1.389 . S
C1620 C1621 1.524 . S
C1620 C1634 1.377 . S
C1621 C1620 1.524 . S
C1621 C1622 1.397 . S
C1621 C1626 1.363 . S
C1622 H1599 0.950 . S
C1622 C1621 1.397 . S
C1622 C1623 1.334 . S
C1623 H1600 0.950 . S
C1623 C1622 1.334 . S
C1623 C1624 1.287 . S
C1624 C1623 1.287 . S
C1624 C1625 1.524 . S
C1624 H1643 0.913 . S
C1625 H1601 0.950 . S
C1625 C1624 1.524 . S
C1625 C1626 1.415 . S
C1626 H1602 0.950 . S
C1626 C1621 1.363 . S
C1626 C1625 1.415 . S
C1627 H1603 0.951 . S
C1627 C1628 1.366 . S
C1627 C1629 1.388 . S
C1628 C1627 1.366 . S
C1628 C1632 1.385 . S
C1629 H1604 0.951 . S
C1629 C1627 1.388 . S
C1629 C1630 1.366 . S
C1630 C1629 1.366 . S
C1630 C1631 1.414 . S
C1630 C1633 1.499 . S
C1631 H1605 0.950 . S
C1631 C1630 1.414 . S
C1631 C1632 1.374 . S
C1632 H1606 0.950 . S
C1632 C1628 1.385 . S
C1632 C1631 1.374 . S
C1633 C1630 1.499 . S
C1633 C1634 1.373 . S
C1633 C1635 1.389 . S
C1634 H1607 0.950 . S
C1634 C1620 1.377 . S
C1634 C1633 1.373 . S
C1635 C1619 1.377 . S
C1635 C1633 1.389 . S
C1635 C1636 1.524 . S
C1636 C1635 1.524 . S
C1636 C1637 1.397 . S
C1636 C1641 1.363 . S
C1637 H1608 0.950 . S
C1637 C1636 1.397 . S
C1637 C1638 1.334 . S
C1638 H1609 0.950 . S
C1638 C1637 1.334 . S
C1638 C1639 1.287 . S
C1639 C1638 1.287 . S
C1639 C1640 1.524 . S
C1639 H1642 0.999 . S
C1640 H1610 0.950 . S
C1640 C1639 1.524 . S
C1640 C1641 1.415 . S
C1641 H1611 0.950 . S
C1641 C1636 1.363 . S
C1641 C1640 1.415 . S
H1642 C1639 0.999 . S
H1643 C1624 0.913 . S
H1644 C1662 0.951 . S
H1645 C1664 0.951 . S
H1646 C1666 0.950 . S
H1647 C1667 0.950 . S
H1648 C1669 0.950 . S
H1649 C1672 0.950 . S
H1650 C1673 0.950 . S
H1651 C1675 0.950 . S
H1652 C1676 0.950 . S
H1653 C1677 0.951 . S
H1654 C1679 0.951 . S
H1655 C1681 0.950 . S
H1656 C1682 0.950 . S
H1657 C1684 0.950 . S
H1658 C1687 0.950 . S
H1659 C1688 0.950 . S
H1660 C1690 0.950 . S
H1661 C1691 0.950 . S
C1662 H1644 0.951 . S
C1662 C1663 1.366 . S
C1662 C1664 1.388 . S
C1663 C1662 1.366 . S
C1663 C1667 1.385 . S
C1664 H1645 0.951 . S
C1664 C1662 1.388 . S
C1664 C1665 1.366 . S
C1665 C1664 1.366 . S
C1665 C1666 1.414 . S
C1665 C1668 1.499 . S
C1666 H1646 0.950 . S
C1666 C1665 1.414 . S
C1666 C1667 1.374 . S
C1667 H1647 0.950 . S
C1667 C1663 1.385 . S
C1667 C1666 1.374 . S
C1668 C1665 1.499 . S
C1668 C1669 1.373 . S
C1668 C1670 1.389 . S
C1669 H1648 0.950 . S
C1669 C1668 1.373 . S
C1669 C1685 1.377 . S
C1670 C1668 1.389 . S
C1670 C1671 1.524 . S
C1670 C1684 1.377 . S
C1671 C1670 1.524 . S
C1671 C1672 1.397 . S
C1671 C1676 1.363 . S
C1672 H1649 0.950 . S
C1672 C1671 1.397 . S
C1672 C1673 1.334 . S
C1673 H1650 0.950 . S
C1673 C1672 1.334 . S
C1673 C1674 1.287 . S
C1674 C1673 1.287 . S
C1674 C1675 1.524 . S
C1674 H1693 0.913 . S
C1675 H1651 0.950 . S
C1675 C1674 1.524 . S
C1675 C1676 1.415 . S
C1676 H1652 0.950 . S
C1676 C1671 1.363 . S
C1676 C1675 1.415 . S
C1677 H1653 0.951 . S
C1677 C1678 1.366 . S
C1677 C1679 1.388 . S
C1678 C1677 1.366 . S
C1678 C1682 1.385 . S
C1679 H1654 0.951 . S
C1679 C1677 1.388 . S
C1679 C1680 1.366 . S
C1680 C1679 1.366 . S
C1680 C1681 1.414 . S
C1680 C1683 1.499 . S
C1681 H1655 0.950 . S
C1681 C1680 1.414 . S
C1681 C1682 1.374 . S
C1682 H1656 0.950 . S
C1682 C1678 1.385 . S
C1682 C1681 1.374 . S
C1683 C1680 1.499 . S
C1683 C1684 1.373 . S
C1683 C1685 1.389 . S
C1684 H1657 0.950 . S
C1684 C1670 1.377 . S
C1684 C1683 1.373 . S
C1685 C1669 1.377 . S
C1685 C1683 1.389 . S
C1685 C1686 1.524 . S
C1686 C1685 1.524 . S
C1686 C1687 1.397 . S
C1686 C1691 1.363 . S
C1687 H1658 0.950 . S
C1687 C1686 1.397 . S
C1687 C1688 1.334 . S
C1688 H1659 0.950 . S
C1688 C1687 1.334 . S
C1688 C1689 1.287 . S
C1689 C1688 1.287 . S
C1689 C1690 1.524 . S
C1689 H1692 0.999 . S
C1690 H1660 0.950 . S
C1690 C1689 1.524 . S
C1690 C1691 1.415 . S
C1691 H1661 0.950 . S
C1691 C1686 1.363 . S
C1691 C1690 1.415 . S
H1692 C1689 0.999 . S
H1693 C1674 0.913 . S
H1694 C1712 0.951 . S
H1695 C1714 0.951 . S
H1696 C1716 0.950 . S
H1697 C1717 0.950 . S
H1698 C1719 0.950 . S
H1699 C1722 0.950 . S
H1700 C1723 0.950 . S
H1701 C1725 0.950 . S
H1702 C1726 0.950 . S
H1703 C1727 0.951 . S
H1704 C1729 0.951 . S
H1705 C1731 0.950 . S
H1706 C1732 0.950 . S
H1707 C1734 0.950 . S
H1708 C1737 0.950 . S
H1709 C1738 0.950 . S
H1710 C1740 0.950 . S
H1711 C1741 0.950 . S
C1712 H1694 0.951 . S
C1712 C1713 1.366 . S
C1712 C1714 1.388 . S
C1713 C1712 1.366 . S
C1713 C1717 1.385 . S
C1714 H1695 0.951 . S
C1714 C1712 1.388 . S
C1714 C1715 1.366 . S
C1715 C1714 1.366 . S
C1715 C1716 1.414 . S
C1715 C1718 1.499 . S
C1716 H1696 0.950 . S
C1716 C1715 1.414 . S
C1716 C1717 1.374 . S
C1717 H1697 0.950 . S
C1717 C1713 1.385 . S
C1717 C1716 1.374 . S
C1718 C1715 1.499 . S
C1718 C1719 1.373 . S
C1718 C1720 1.389 . S
C1719 H1698 0.950 . S
C1719 C1718 1.373 . S
C1719 C1735 1.377 . S
C1720 C1718 1.389 . S
C1720 C1721 1.524 . S
C1720 C1734 1.377 . S
C1721 C1720 1.524 . S
C1721 C1722 1.397 . S
C1721 C1726 1.363 . S
C1722 H1699 0.950 . S
C1722 C1721 1.397 . S
C1722 C1723 1.334 . S
C1723 H1700 0.950 . S
C1723 C1722 1.334 . S
C1723 C1724 1.287 . S
C1724 C1723 1.287 . S
C1724 C1725 1.524 . S
C1724 H1743 0.913 . S
C1725 H1701 0.950 . S
C1725 C1724 1.524 . S
C1725 C1726 1.415 . S
C1726 H1702 0.950 . S
C1726 C1721 1.363 . S
C1726 C1725 1.415 . S
C1727 H1703 0.951 . S
C1727 C1728 1.366 . S
C1727 C1729 1.388 . S
C1728 C1727 1.366 . S
C1728 C1732 1.385 . S
C1729 H1704 0.951 . S
C1729 C1727 1.388 . S
C1729 C1730 1.366 . S
C1730 C1729 1.366 . S
C1730 C1731 1.414 . S
C1730 C1733 1.499 . S
C1731 H1705 0.950 . S
C1731 C1730 1.414 . S
C1731 C1732 1.374 . S
C1732 H1706 0.950 . S
C1732 C1728 1.385 . S
C1732 C1731 1.374 . S
C1733 C1730 1.499 . S
C1733 C1734 1.373 . S
C1733 C1735 1.389 . S
C1734 H1707 0.950 . S
C1734 C1720 1.377 . S
C1734 C1733 1.373 . S
C1735 C1719 1.377 . S
C1735 C1733 1.389 . S
C1735 C1736 1.524 . S
C1736 C1735 1.524 . S
C1736 C1737 1.397 . S
C1736 C1741 1.363 . S
C1737 H1708 0.950 . S
C1737 C1736 1.397 . S
C1737 C1738 1.334 . S
C1738 H1709 0.950 . S
C1738 C1737 1.334 . S
C1738 C1739 1.287 . S
C1739 C1738 1.287 . S
C1739 C1740 1.524 . S
C1739 H1742 0.999 . S
C1740 H1710 0.950 . S
C1740 C1739 1.524 . S
C1740 C1741 1.415 . S
C1741 H1711 0.950 . S
C1741 C1736 1.363 . S
C1741 C1740 1.415 . S
H1742 C1739 0.999 . S
H1743 C1724 0.913 . S
H1744 C1762 0.951 . S
H1745 C1764 0.951 . S
H1746 C1766 0.950 . S
H1747 C1767 0.950 . S
H1748 C1769 0.950 . S
H1749 C1772 0.950 . S
H1750 C1773 0.950 . S
H1751 C1775 0.950 . S
H1752 C1776 0.950 . S
H1753 C1777 0.951 . S
H1754 C1779 0.951 . S
H1755 C1781 0.950 . S
H1756 C1782 0.950 . S
H1757 C1784 0.950 . S
H1758 C1787 0.950 . S
H1759 C1788 0.950 . S
H1760 C1790 0.950 . S
H1761 C1791 0.950 . S
C1762 H1744 0.951 . S
C1762 C1763 1.366 . S
C1762 C1764 1.388 . S
C1763 C1762 1.366 . S
C1763 C1767 1.385 . S
C1764 H1745 0.951 . S
C1764 C1762 1.388 . S
C1764 C1765 1.366 . S
C1765 C1764 1.366 . S
C1765 C1766 1.414 . S
C1765 C1768 1.499 . S
C1766 H1746 0.950 . S
C1766 C1765 1.414 . S
C1766 C1767 1.374 . S
C1767 H1747 0.950 . S
C1767 C1763 1.385 . S
C1767 C1766 1.374 . S
C1768 C1765 1.499 . S
C1768 C1769 1.373 . S
C1768 C1770 1.389 . S
C1769 H1748 0.950 . S
C1769 C1768 1.373 . S
C1769 C1785 1.377 . S
C1770 C1768 1.389 . S
C1770 C1771 1.524 . S
C1770 C1784 1.377 . S
C1771 C1770 1.524 . S
C1771 C1772 1.397 . S
C1771 C1776 1.363 . S
C1772 H1749 0.950 . S
C1772 C1771 1.397 . S
C1772 C1773 1.334 . S
C1773 H1750 0.950 . S
C1773 C1772 1.334 . S
C1773 C1774 1.287 . S
C1774 C1773 1.287 . S
C1774 C1775 1.524 . S
C1774 H1793 0.913 . S
C1775 H1751 0.950 . S
C1775 C1774 1.524 . S
C1775 C1776 1.415 . S
C1776 H1752 0.950 . S
C1776 C1771 1.363 . S
C1776 C1775 1.415 . S
C1777 H1753 0.951 . S
C1777 C1778 1.366 . S
C1777 C1779 1.388 . S
C1778 C1777 1.366 . S
C1778 C1782 1.385 . S
C1779 H1754 0.951 . S
C1779 C1777 1.388 . S
C1779 C1780 1.366 . S
C1780 C1779 1.366 . S
C1780 C1781 1.414 . S
C1780 C1783 1.499 . S
C1781 H1755 0.950 . S
C1781 C1780 1.414 . S
C1781 C1782 1.374 . S
C1782 H1756 0.950 . S
C1782 C1778 1.385 . S
C1782 C1781 1.374 . S
C1783 C1780 1.499 . S
C1783 C1784 1.373 . S
C1783 C1785 1.389 . S
C1784 H1757 0.950 . S
C1784 C1770 1.377 . S
C1784 C1783 1.373 . S
C1785 C1769 1.377 . S
C1785 C1783 1.389 . S
C1785 C1786 1.524 . S
C1786 C1785 1.524 . S
C1786 C1787 1.397 . S
C1786 C1791 1.363 . S
C1787 H1758 0.950 . S
C1787 C1786 1.397 . S
C1787 C1788 1.334 . S
C1788 H1759 0.950 . S
C1788 C1787 1.334 . S
C1788 C1789 1.287 . S
C1789 C1788 1.287 . S
C1789 C1790 1.524 . S
C1789 H1792 0.999 . S
C1790 H1760 0.950 . S
C1790 C1789 1.524 . S
C1790 C1791 1.415 . S
C1791 H1761 0.950 . S
C1791 C1786 1.363 . S
C1791 C1790 1.415 . S
H1792 C1789 0.999 . S
H1793 C1774 0.913 . S
H1794 C1812 0.951 . S
H1795 C1814 0.951 . S
H1796 C1816 0.950 . S
H1797 C1817 0.950 . S
H1798 C1819 0.950 . S
H1799 C1822 0.950 . S
H1800 C1823 0.950 . S
H1801 C1825 0.950 . S
H1802 C1826 0.950 . S
H1803 C1827 0.951 . S
H1804 C1829 0.951 . S
H1805 C1831 0.950 . S
H1806 C1832 0.950 . S
H1807 C1834 0.950 . S
H1808 C1837 0.950 . S
H1809 C1838 0.950 . S
H1810 C1840 0.950 . S
H1811 C1841 0.950 . S
C1812 H1794 0.951 . S
C1812 C1813 1.366 . S
C1812 C1814 1.388 . S
C1813 C1812 1.366 . S
C1813 C1817 1.385 . S
C1814 H1795 0.951 . S
C1814 C1812 1.388 . S
C1814 C1815 1.366 . S
C1815 C1814 1.366 . S
C1815 C1816 1.414 . S
C1815 C1818 1.499 . S
C1816 H1796 0.950 . S
C1816 C1815 1.414 . S
C1816 C1817 1.374 . S
C1817 H1797 0.950 . S
C1817 C1813 1.385 . S
C1817 C1816 1.374 . S
C1818 C1815 1.499 . S
C1818 C1819 1.373 . S
C1818 C1820 1.389 . S
C1819 H1798 0.950 . S
C1819 C1818 1.373 . S
C1819 C1835 1.377 . S
C1820 C1818 1.389 . S
C1820 C1821 1.524 . S
C1820 C1834 1.377 . S
C1821 C1820 1.524 . S
C1821 C1822 1.397 . S
C1821 C1826 1.363 . S
C1822 H1799 0.950 . S
C1822 C1821 1.397 . S
C1822 C1823 1.334 . S
C1823 H1800 0.950 . S
C1823 C1822 1.334 . S
C1823 C1824 1.287 . S
C1824 C1823 1.287 . S
C1824 C1825 1.524 . S
C1824 H1843 0.913 . S
C1825 H1801 0.950 . S
C1825 C1824 1.524 . S
C1825 C1826 1.415 . S
C1826 H1802 0.950 . S
C1826 C1821 1.363 . S
C1826 C1825 1.415 . S
C1827 H1803 0.951 . S
C1827 C1828 1.366 . S
C1827 C1829 1.388 . S
C1828 C1827 1.366 . S
C1828 C1832 1.385 . S
C1829 H1804 0.951 . S
C1829 C1827 1.388 . S
C1829 C1830 1.366 . S
C1830 C1829 1.366 . S
C1830 C1831 1.414 . S
C1830 C1833 1.499 . S
C1831 H1805 0.950 . S
C1831 C1830 1.414 . S
C1831 C1832 1.374 . S
C1832 H1806 0.950 . S
C1832 C1828 1.385 . S
C1832 C1831 1.374 . S
C1833 C1830 1.499 . S
C1833 C1834 1.373 . S
C1833 C1835 1.389 . S
C1834 H1807 0.950 . S
C1834 C1820 1.377 . S
C1834 C1833 1.373 . S
C1835 C1819 1.377 . S
C1835 C1833 1.389 . S
C1835 C1836 1.524 . S
C1836 C1835 1.524 . S
C1836 C1837 1.397 . S
C1836 C1841 1.363 . S
C1837 H1808 0.950 . S
C1837 C1836 1.397 . S
C1837 C1838 1.334 . S
C1838 H1809 0.950 . S
C1838 C1837 1.334 . S
C1838 C1839 1.287 . S
C1839 C1838 1.287 . S
C1839 C1840 1.524 . S
C1839 H1842 0.999 . S
C1840 H1810 0.950 . S
C1840 C1839 1.524 . S
C1840 C1841 1.415 . S
C1841 H1811 0.950 . S
C1841 C1836 1.363 . S
C1841 C1840 1.415 . S
H1842 C1839 0.999 . S
H1843 C1824 0.913 . S
H1844 C1862 0.951 . S
H1845 C1864 0.951 . S
H1846 C1866 0.950 . S
H1847 C1867 0.950 . S
H1848 C1869 0.950 . S
H1849 C1872 0.950 . S
H1850 C1873 0.950 . S
H1851 C1875 0.950 . S
H1852 C1876 0.950 . S
H1853 C1877 0.951 . S
H1854 C1879 0.951 . S
H1855 C1881 0.950 . S
H1856 C1882 0.950 . S
H1857 C1884 0.950 . S
H1858 C1887 0.950 . S
H1859 C1888 0.950 . S
H1860 C1890 0.950 . S
H1861 C1891 0.950 . S
C1862 H1844 0.951 . S
C1862 C1863 1.366 . S
C1862 C1864 1.388 . S
C1863 C1862 1.366 . S
C1863 C1867 1.385 . S
C1864 H1845 0.951 . S
C1864 C1862 1.388 . S
C1864 C1865 1.366 . S
C1865 C1864 1.366 . S
C1865 C1866 1.414 . S
C1865 C1868 1.499 . S
C1866 H1846 0.950 . S
C1866 C1865 1.414 . S
C1866 C1867 1.374 . S
C1867 H1847 0.950 . S
C1867 C1863 1.385 . S
C1867 C1866 1.374 . S
C1868 C1865 1.499 . S
C1868 C1869 1.373 . S
C1868 C1870 1.389 . S
C1869 H1848 0.950 . S
C1869 C1868 1.373 . S
C1869 C1885 1.377 . S
C1870 C1868 1.389 . S
C1870 C1871 1.524 . S
C1870 C1884 1.377 . S
C1871 C1870 1.524 . S
C1871 C1872 1.397 . S
C1871 C1876 1.363 . S
C1872 H1849 0.950 . S
C1872 C1871 1.397 . S
C1872 C1873 1.334 . S
C1873 H1850 0.950 . S
C1873 C1872 1.334 . S
C1873 C1874 1.287 . S
C1874 C1873 1.287 . S
C1874 C1875 1.524 . S
C1874 H1893 0.913 . S
C1875 H1851 0.950 . S
C1875 C1874 1.524 . S
C1875 C1876 1.415 . S
C1876 H1852 0.950 . S
C1876 C1871 1.363 . S
C1876 C1875 1.415 . S
C1877 H1853 0.951 . S
C1877 C1878 1.366 . S
C1877 C1879 1.388 . S
C1878 C1877 1.366 . S
C1878 C1882 1.385 . S
C1879 H1854 0.951 . S
C1879 C1877 1.388 . S
C1879 C1880 1.366 . S
C1880 C1879 1.366 . S
C1880 C1881 1.414 . S
C1880 C1883 1.499 . S
C1881 H1855 0.950 . S
C1881 C1880 1.414 . S
C1881 C1882 1.374 . S
C1882 H1856 0.950 . S
C1882 C1878 1.385 . S
C1882 C1881 1.374 . S
C1883 C1880 1.499 . S
C1883 C1884 1.373 . S
C1883 C1885 1.389 . S
C1884 H1857 0.950 . S
C1884 C1870 1.377 . S
C1884 C1883 1.373 . S
C1885 C1869 1.377 . S
C1885 C1883 1.389 . S
C1885 C1886 1.524 . S
C1886 C1885 1.524 . S
C1886 C1887 1.397 . S
C1886 C1891 1.363 . S
C1887 H1858 0.950 . S
C1887 C1886 1.397 . S
C1887 C1888 1.334 . S
C1888 H1859 0.950 . S
C1888 C1887 1.334 . S
C1888 C1889 1.287 . S
C1889 C1888 1.287 . S
C1889 C1890 1.524 . S
C1889 H1892 0.999 . S
C1890 H1860 0.950 . S
C1890 C1889 1.524 . S
C1890 C1891 1.415 . S
C1891 H1861 0.950 . S
C1891 C1886 1.363 . S
C1891 C1890 1.415 . S
H1892 C1889 0.999 . S
H1893 C1874 0.913 . S
H1894 C1912 0.951 . S
H1895 C1914 0.951 . S
H1896 C1916 0.950 . S
H1897 C1917 0.950 . S
H1898 C1919 0.950 . S
H1899 C1922 0.950 . S
H1900 C1923 0.950 . S
H1901 C1925 0.950 . S
H1902 C1926 0.950 . S
H1903 C1927 0.951 . S
H1904 C1929 0.951 . S
H1905 C1931 0.950 . S
H1906 C1932 0.950 . S
H1907 C1934 0.950 . S
H1908 C1937 0.950 . S
H1909 C1938 0.950 . S
H1910 C1940 0.950 . S
H1911 C1941 0.950 . S
C1912 H1894 0.951 . S
C1912 C1913 1.366 . S
C1912 C1914 1.388 . S
C1913 C1912 1.366 . S
C1913 C1917 1.385 . S
C1914 H1895 0.951 . S
C1914 C1912 1.388 . S
C1914 C1915 1.366 . S
C1915 C1914 1.366 . S
C1915 C1916 1.414 . S
C1915 C1918 1.499 . S
C1916 H1896 0.950 . S
C1916 C1915 1.414 . S
C1916 C1917 1.374 . S
C1917 H1897 0.950 . S
C1917 C1913 1.385 . S
C1917 C1916 1.374 . S
C1918 C1915 1.499 . S
C1918 C1919 1.373 . S
C1918 C1920 1.389 . S
C1919 H1898 0.950 . S
C1919 C1918 1.373 . S
C1919 C1935 1.377 . S
C1920 C1918 1.389 . S
C1920 C1921 1.524 . S
C1920 C1934 1.377 . S
C1921 C1920 1.524 . S
C1921 C1922 1.397 . S
C1921 C1926 1.363 . S
C1922 H1899 0.950 . S
C1922 C1921 1.397 . S
C1922 C1923 1.334 . S
C1923 H1900 0.950 . S
C1923 C1922 1.334 . S
C1923 C1924 1.287 . S
C1924 C1923 1.287 . S
C1924 C1925 1.524 . S
C1924 H1943 0.913 . S
C1925 H1901 0.950 . S
C1925 C1924 1.524 . S
C1925 C1926 1.415 . S
C1926 H1902 0.950 . S
C1926 C1921 1.363 . S
C1926 C1925 1.415 . S
C1927 H1903 0.951 . S
C1927 C1928 1.366 . S
C1927 C1929 1.388 . S
C1928 C1927 1.366 . S
C1928 C1932 1.385 . S
C1929 H1904 0.951 . S
C1929 C1927 1.388 . S
C1929 C1930 1.366 . S
C1930 C1929 1.366 . S
C1930 C1931 1.414 . S
C1930 C1933 1.499 . S
C1931 H1905 0.950 . S
C1931 C1930 1.414 . S
C1931 C1932 1.374 . S
C1932 H1906 0.950 . S
C1932 C1928 1.385 . S
C1932 C1931 1.374 . S
C1933 C1930 1.499 . S
C1933 C1934 1.373 . S
C1933 C1935 1.389 . S
C1934 H1907 0.950 . S
C1934 C1920 1.377 . S
C1934 C1933 1.373 . S
C1935 C1919 1.377 . S
C1935 C1933 1.389 . S
C1935 C1936 1.524 . S
C1936 C1935 1.524 . S
C1936 C1937 1.397 . S
C1936 C1941 1.363 . S
C1937 H1908 0.950 . S
C1937 C1936 1.397 . S
C1937 C1938 1.334 . S
C1938 H1909 0.950 . S
C1938 C1937 1.334 . S
C1938 C1939 1.287 . S
C1939 C1938 1.287 . S
C1939 C1940 1.524 . S
C1939 H1942 0.999 . S
C1940 H1910 0.950 . S
C1940 C1939 1.524 . S
C1940 C1941 1.415 . S
C1941 H1911 0.950 . S
C1941 C1936 1.363 . S
C1941 C1940 1.415 . S
H1942 C1939 0.999 . S
H1943 C1924 0.913 . S
H1944 C1962 0.951 . S
H1945 C1964 0.951 . S
H1946 C1966 0.950 . S
H1947 C1967 0.950 . S
H1948 C1969 0.950 . S
H1949 C1972 0.950 . S
H1950 C1973 0.950 . S
H1951 C1975 0.950 . S
H1952 C1976 0.950 . S
H1953 C1977 0.951 . S
H1954 C1979 0.951 . S
H1955 C1981 0.950 . S
H1956 C1982 0.950 . S
H1957 C1984 0.950 . S
H1958 C1987 0.950 . S
H1959 C1988 0.950 . S
H1960 C1990 0.950 . S
H1961 C1991 0.950 . S
C1962 H1944 0.951 . S
C1962 C1963 1.366 . S
C1962 C1964 1.388 . S
C1963 C1962 1.366 . S
C1963 C1967 1.385 . S
C1964 H1945 0.951 . S
C1964 C1962 1.388 . S
C1964 C1965 1.366 . S
C1965 C1964 1.366 . S
C1965 C1966 1.414 . S
C1965 C1968 1.499 . S
C1966 H1946 0.950 . S
C1966 C1965 1.414 . S
C1966 C1967 1.374 . S
C1967 H1947 0.950 . S
C1967 C1963 1.385 . S
C1967 C1966 1.374 . S
C1968 C1965 1.499 . S
C1968 C1969 1.373 . S
C1968 C1970 1.389 . S
C1969 H1948 0.950 . S
C1969 C1968 1.373 . S
C1969 C1985 1.377 . S
C1970 C1968 1.389 . S
C1970 C1971 1.524 . S
C1970 C1984 1.377 . S
C1971 C1970 1.524 . S
C1971 C1972 1.397 . S
C1971 C1976 1.363 . S
C1972 H1949 0.950 . S
C1972 C1971 1.397 . S
C1972 C1973 1.334 . S
C1973 H1950 0.950 . S
C1973 C1972 1.334 . S
C1973 C1974 1.287 . S
C1974 C1973 1.287 . S
C1974 C1975 1.524 . S
C1974 H1993 0.913 . S
C1975 H1951 0.950 . S
C1975 C1974 1.524 . S
C1975 C1976 1.415 . S
C1976 H1952 0.950 . S
C1976 C1971 1.363 . S
C1976 C1975 1.415 . S
C1977 H1953 0.951 . S
C1977 C1978 1.366 . S
C1977 C1979 1.388 . S
C1978 C1977 1.366 . S
C1978 C1982 1.385 . S
C1979 H1954 0.951 . S
C1979 C1977 1.388 . S
C1979 C1980 1.366 . S
C1980 C1979 1.366 . S
C1980 C1981 1.414 . S
C1980 C1983 1.499 . S
C1981 H1955 0.950 . S
C1981 C1980 1.414 . S
C1981 C1982 1.374 . S
C1982 H1956 0.950 . S
C1982 C1978 1.385 . S
C1982 C1981 1.374 . S
C1983 C1980 1.499 . S
C1983 C1984 1.373 . S
C1983 C1985 1.389 . S
C1984 H1957 0.950 . S
C1984 C1970 1.377 . S
C1984 C1983 1.373 . S
C1985 C1969 1.377 . S
C1985 C1983 1.389 . S
C1985 C1986 1.524 . S
C1986 C1985 1.524 . S
C1986 C1987 1.397 . S
C1986 C1991 1.363 . S
C1987 H1958 0.950 . S
C1987 C1986 1.397 . S
C1987 C1988 1.334 . S
C1988 H1959 0.950 . S
C1988 C1987 1.334 . S
C1988 C1989 1.287 . S
C1989 C1988 1.287 . S
C1989 C1990 1.524 . S
C1989 H1992 0.999 . S
C1990 H1960 0.950 . S
C1990 C1989 1.524 . S
C1990 C1991 1.415 . S
C1991 H1961 0.950 . S
C1991 C1986 1.363 . S
C1991 C1990 1.415 . S
H1992 C1989 0.999 . S
H1993 C1974 0.913 . S
H1994 C2012 0.951 . S
H1995 C2014 0.951 . S
H1996 C2016 0.950 . S
H1997 C2017 0.950 . S
H1998 C2019 0.950 . S
H1999 C2022 0.950 . S
H2000 C2023 0.950 . S
H2001 C2025 0.950 . S
H2002 C2026 0.950 . S
H2003 C2027 0.951 . S
H2004 C2029 0.951 . S
H2005 C2031 0.950 . S
H2006 C2032 0.950 . S
H2007 C2034 0.950 . S
H2008 C2037 0.950 . S
H2009 C2038 0.950 . S
H2010 C2040 0.950 . S
H2011 C2041 0.950 . S
C2012 H1994 0.951 . S
C2012 C2013 1.366 . S
C2012 C2014 1.388 . S
C2013 C2012 1.366 . S
C2013 C2017 1.385 . S
C2014 H1995 0.951 . S
C2014 C2012 1.388 . S
C2014 C2015 1.366 . S
C2015 C2014 1.366 . S
C2015 C2016 1.414 . S
C2015 C2018 1.499 . S
C2016 H1996 0.950 . S
C2016 C2015 1.414 . S
C2016 C2017 1.374 . S
C2017 H1997 0.950 . S
C2017 C2013 1.385 . S
C2017 C2016 1.374 . S
C2018 C2015 1.499 . S
C2018 C2019 1.373 . S
C2018 C2020 1.389 . S
C2019 H1998 0.950 . S
C2019 C2018 1.373 . S
C2019 C2035 1.377 . S
C2020 C2018 1.389 . S
C2020 C2021 1.524 . S
C2020 C2034 1.377 . S
C2021 C2020 1.524 . S
C2021 C2022 1.397 . S
C2021 C2026 1.363 . S
C2022 H1999 0.950 . S
C2022 C2021 1.397 . S
C2022 C2023 1.334 . S
C2023 H2000 0.950 . S
C2023 C2022 1.334 . S
C2023 C2024 1.287 . S
C2024 C2023 1.287 . S
C2024 C2025 1.524 . S
C2024 H2043 0.913 . S
C2025 H2001 0.950 . S
C2025 C2024 1.524 . S
C2025 C2026 1.415 . S
C2026 H2002 0.950 . S
C2026 C2021 1.363 . S
C2026 C2025 1.415 . S
C2027 H2003 0.951 . S
C2027 C2028 1.366 . S
C2027 C2029 1.388 . S
C2028 C2027 1.366 . S
C2028 C2032 1.385 . S
C2029 H2004 0.951 . S
C2029 C2027 1.388 . S
C2029 C2030 1.366 . S
C2030 C2029 1.366 . S
C2030 C2031 1.414 . S
C2030 C2033 1.499 . S
C2031 H2005 0.950 . S
C2031 C2030 1.414 . S
C2031 C2032 1.374 . S
C2032 H2006 0.950 . S
C2032 C2028 1.385 . S
C2032 C2031 1.374 . S
C2033 C2030 1.499 . S
C2033 C2034 1.373 . S
C2033 C2035 1.389 . S
C2034 H2007 0.950 . S
C2034 C2020 1.377 . S
C2034 C2033 1.373 . S
C2035 C2019 1.377 . S
C2035 C2033 1.389 . S
C2035 C2036 1.524 . S
C2036 C2035 1.524 . S
C2036 C2037 1.397 . S
C2036 C2041 1.363 . S
C2037 H2008 0.950 . S
C2037 C2036 1.397 . S
C2037 C2038 1.334 . S
C2038 H2009 0.950 . S
C2038 C2037 1.334 . S
C2038 C2039 1.287 . S
C2039 C2038 1.287 . S
C2039 C2040 1.524 . S
C2039 H2042 0.999 . S
C2040 H2010 0.950 . S
C2040 C2039 1.524 . S
C2040 C2041 1.415 . S
C2041 H2011 0.950 . S
C2041 C2036 1.363 . S
C2041 C2040 1.415 . S
H2042 C2039 0.999 . S
H2043 C2024 0.913 . S
H2044 C2062 0.951 . S
H2045 C2064 0.951 . S
H2046 C2066 0.950 . S
H2047 C2067 0.950 . S
H2048 C2069 0.950 . S
H2049 C2072 0.950 . S
H2050 C2073 0.950 . S
H2051 C2075 0.950 . S
H2052 C2076 0.950 . S
H2053 C2077 0.951 . S
H2054 C2079 0.951 . S
H2055 C2081 0.950 . S
H2056 C2082 0.950 . S
H2057 C2084 0.950 . S
H2058 C2087 0.950 . S
H2059 C2088 0.950 . S
H2060 C2090 0.950 . S
H2061 C2091 0.950 . S
C2062 H2044 0.951 . S
C2062 C2063 1.366 . S
C2062 C2064 1.388 . S
C2063 C2062 1.366 . S
C2063 C2067 1.385 . S
C2064 H2045 0.951 . S
C2064 C2062 1.388 . S
C2064 C2065 1.366 . S
C2065 C2064 1.366 . S
C2065 C2066 1.414 . S
C2065 C2068 1.499 . S
C2066 H2046 0.950 . S
C2066 C2065 1.414 . S
C2066 C2067 1.374 . S
C2067 H2047 0.950 . S
C2067 C2063 1.385 . S
C2067 C2066 1.374 . S
C2068 C2065 1.499 . S
C2068 C2069 1.373 . S
C2068 C2070 1.389 . S
C2069 H2048 0.950 . S
C2069 C2068 1.373 . S
C2069 C2085 1.377 . S
C2070 C2068 1.389 . S
C2070 C2071 1.524 . S
C2070 C2084 1.377 . S
C2071 C2070 1.524 . S
C2071 C2072 1.397 . S
C2071 C2076 1.363 . S
C2072 H2049 0.950 . S
C2072 C2071 1.397 . S
C2072 C2073 1.334 . S
C2073 H2050 0.950 . S
C2073 C2072 1.334 . S
C2073 C2074 1.287 . S
C2074 C2073 1.287 . S
C2074 C2075 1.524 . S
C2074 H2093 0.913 . S
C2075 H2051 0.950 . S
C2075 C2074 1.524 . S
C2075 C2076 1.415 . S
C2076 H2052 0.950 . S
C2076 C2071 1.363 . S
C2076 C2075 1.415 . S
C2077 H2053 0.951 . S
C2077 C2078 1.366 . S
C2077 C2079 1.388 . S
C2078 C2077 1.366 . S
C2078 C2082 1.385 . S
C2079 H2054 0.951 . S
C2079 C2077 1.388 . S
C2079 C2080 1.366 . S
C2080 C2079 1.366 . S
C2080 C2081 1.414 . S
C2080 C2083 1.499 . S
C2081 H2055 0.950 . S
C2081 C2080 1.414 . S
C2081 C2082 1.374 . S
C2082 H2056 0.950 . S
C2082 C2078 1.385 . S
C2082 C2081 1.374 . S
C2083 C2080 1.499 . S
C2083 C2084 1.373 . S
C2083 C2085 1.389 . S
C2084 H2057 0.950 . S
C2084 C2070 1.377 . S
C2084 C2083 1.373 . S
C2085 C2069 1.377 . S
C2085 C2083 1.389 . S
C2085 C2086 1.524 . S
C2086 C2085 1.524 . S
C2086 C2087 1.397 . S
C2086 C2091 1.363 . S
C2087 H2058 0.950 . S
C2087 C2086 1.397 . S
C2087 C2088 1.334 . S
C2088 H2059 0.950 . S
C2088 C2087 1.334 . S
C2088 C2089 1.287 . S
C2089 C2088 1.287 . S
C2089 C2090 1.524 . S
C2089 H2092 0.999 . S
C2090 H2060 0.950 . S
C2090 C2089 1.524 . S
C2090 C2091 1.415 . S
C2091 H2061 0.950 . S
C2091 C2086 1.363 . S
C2091 C2090 1.415 . S
H2092 C2089 0.999 . S
H2093 C2074 0.913 . S
H2094 C2112 0.951 . S
H2095 C2114 0.951 . S
H2096 C2116 0.950 . S
H2097 C2117 0.950 . S
H2098 C2119 0.950 . S
H2099 C2122 0.950 . S
H2100 C2123 0.950 . S
H2101 C2125 0.950 . S
H2102 C2126 0.950 . S
H2103 C2127 0.951 . S
H2104 C2129 0.951 . S
H2105 C2131 0.950 . S
H2106 C2132 0.950 . S
H2107 C2134 0.950 . S
H2108 C2137 0.950 . S
H2109 C2138 0.950 . S
H2110 C2140 0.950 . S
H2111 C2141 0.950 . S
C2112 H2094 0.951 . S
C2112 C2113 1.366 . S
C2112 C2114 1.388 . S
C2113 C2112 1.366 . S
C2113 C2117 1.385 . S
C2114 H2095 0.951 . S
C2114 C2112 1.388 . S
C2114 C2115 1.366 . S
C2115 C2114 1.366 . S
C2115 C2116 1.414 . S
C2115 C2118 1.499 . S
C2116 H2096 0.950 . S
C2116 C2115 1.414 . S
C2116 C2117 1.374 . S
C2117 H2097 0.950 . S
C2117 C2113 1.385 . S
C2117 C2116 1.374 . S
C2118 C2115 1.499 . S
C2118 C2119 1.373 . S
C2118 C2120 1.389 . S
C2119 H2098 0.950 . S
C2119 C2118 1.373 . S
C2119 C2135 1.377 . S
C2120 C2118 1.389 . S
C2120 C2121 1.524 . S
C2120 C2134 1.377 . S
C2121 C2120 1.524 . S
C2121 C2122 1.397 . S
C2121 C2126 1.363 . S
C2122 H2099 0.950 . S
C2122 C2121 1.397 . S
C2122 C2123 1.334 . S
C2123 H2100 0.950 . S
C2123 C2122 1.334 . S
C2123 C2124 1.287 . S
C2124 C2123 1.287 . S
C2124 C2125 1.524 . S
C2124 H2143 0.913 . S
C2125 H2101 0.950 . S
C2125 C2124 1.524 . S
C2125 C2126 1.415 . S
C2126 H2102 0.950 . S
C2126 C2121 1.363 . S
C2126 C2125 1.415 . S
C2127 H2103 0.951 . S
C2127 C2128 1.366 . S
C2127 C2129 1.388 . S
C2128 C2127 1.366 . S
C2128 C2132 1.385 . S
C2129 H2104 0.951 . S
C2129 C2127 1.388 . S
C2129 C2130 1.366 . S
C2130 C2129 1.366 . S
C2130 C2131 1.414 . S
C2130 C2133 1.499 . S
C2131 H2105 0.950 . S
C2131 C2130 1.414 . S
C2131 C2132 1.374 . S
C2132 H2106 0.950 . S
C2132 C2128 1.385 . S
C2132 C2131 1.374 . S
C2133 C2130 1.499 . S
C2133 C2134 1.373 . S
C2133 C2135 1.389 . S
C2134 H2107 0.950 . S
C2134 C2120 1.377 . S
C2134 C2133 1.373 . S
C2135 C2119 1.377 . S
C2135 C2133 1.389 . S
C2135 C2136 1.524 . S
C2136 C2135 1.524 . S
C2136 C2137 1.397 . S
C2136 C2141 1.363 . S
C2137 H2108 0.950 . S
C2137 C2136 1.397 . S
C2137 C2138 1.334 . S
C2138 H2109 0.950 . S
C2138 C2137 1.334 . S
C2138 C2139 1.287 . S
C2139 C2138 1.287 . S
C2139 C2140 1.524 . S
C2139 H2142 0.999 . S
C2140 H2110 0.950 . S
C2140 C2139 1.524 . S
C2140 C2141 1.415 . S
C2141 H2111 0.950 . S
C2141 C2136 1.363 . S
C2141 C2140 1.415 . S
H2142 C2139 0.999 . S
H2143 C2124 0.913 . S
H2144 C2162 0.951 . S
H2145 C2164 0.951 1_655 S
H2146 C2166 0.950 1_655 S
H2147 C2167 0.950 . S
H2148 C2169 0.950 . S
H2149 C2172 0.950 . S
H2150 C2173 0.950 1_455 S
H2151 C2175 0.950 . S
H2152 C2176 0.950 . S
H2153 C2177 0.951 . S
H2154 C2179 0.951 . S
H2155 C2181 0.950 . S
H2156 C2182 0.950 . S
H2157 C2184 0.950 . S
H2158 C2187 0.950 . S
H2159 C2188 0.950 . S
H2160 C2190 0.950 . S
H2161 C2191 0.950 . S
C2162 H2144 0.951 . S
C2162 C2163 1.366 . S
C2162 C2164 1.388 . S
C2163 C2162 1.366 . S
C2163 C2167 1.385 . S
C2164 H2145 0.951 1_455 S
C2164 C2162 1.388 . S
C2164 C2165 1.366 1_455 S
C2165 C2164 1.366 1_655 S
C2165 C2166 1.414 1_655 S
C2165 C2168 1.499 . S
C2166 H2146 0.950 1_455 S
C2166 C2165 1.414 1_455 S
C2166 C2167 1.374 . S
C2167 H2147 0.950 . S
C2167 C2163 1.385 . S
C2167 C2166 1.374 . S
C2168 C2165 1.499 . S
C2168 C2169 1.373 . S
C2168 C2170 1.389 . S
C2169 H2148 0.950 . S
C2169 C2168 1.373 . S
C2169 C2185 1.377 . S
C2170 C2168 1.389 . S
C2170 C2171 1.524 . S
C2170 C2184 1.377 . S
C2171 C2170 1.524 . S
C2171 C2172 1.397 . S
C2171 C2176 1.363 . S
C2172 H2149 0.950 . S
C2172 C2171 1.397 . S
C2172 C2173 1.334 . S
C2173 H2150 0.950 1_655 S
C2173 C2172 1.334 . S
C2173 C2174 1.287 . S
C2174 C2173 1.287 . S
C2174 C2175 1.524 . S
C2174 H2193 0.913 . S
C2175 H2151 0.950 . S
C2175 C2174 1.524 . S
C2175 C2176 1.415 . S
C2176 H2152 0.950 . S
C2176 C2171 1.363 . S
C2176 C2175 1.415 . S
C2177 H2153 0.951 . S
C2177 C2178 1.366 . S
C2177 C2179 1.388 . S
C2178 C2177 1.366 . S
C2178 C2182 1.385 . S
C2179 H2154 0.951 . S
C2179 C2177 1.388 . S
C2179 C2180 1.366 . S
C2180 C2179 1.366 . S
C2180 C2181 1.414 . S
C2180 C2183 1.499 . S
C2181 H2155 0.950 . S
C2181 C2180 1.414 . S
C2181 C2182 1.374 . S
C2182 H2156 0.950 . S
C2182 C2178 1.385 . S
C2182 C2181 1.374 . S
C2183 C2180 1.499 . S
C2183 C2184 1.373 . S
C2183 C2185 1.389 . S
C2184 H2157 0.950 . S
C2184 C2170 1.377 . S
C2184 C2183 1.373 . S
C2185 C2169 1.377 . S
C2185 C2183 1.389 . S
C2185 C2186 1.524 . S
C2186 C2185 1.524 . S
C2186 C2187 1.397 . S
C2186 C2191 1.363 . S
C2187 H2158 0.950 . S
C2187 C2186 1.397 . S
C2187 C2188 1.334 . S
C2188 H2159 0.950 . S
C2188 C2187 1.334 . S
C2188 C2189 1.287 . S
C2189 C2188 1.287 . S
C2189 C2190 1.524 . S
C2189 H2192 0.999 . S
C2190 H2160 0.950 . S
C2190 C2189 1.524 . S
C2190 C2191 1.415 . S
C2191 H2161 0.950 . S
C2191 C2186 1.363 . S
C2191 C2190 1.415 . S
H2192 C2189 0.999 . S
H2193 C2174 0.913 . S
H2194 C2212 0.951 . S
H2195 C2214 0.951 1_545 S
H2196 C2216 0.950 1_545 S
H2197 C2217 0.950 . S
H2198 C2219 0.950 . S
H2199 C2222 0.950 . S
H2200 C2223 0.950 . S
H2201 C2225 0.950 . S
H2202 C2226 0.950 . S
H2203 C2227 0.951 . S
H2204 C2229 0.951 . S
H2205 C2231 0.950 . S
H2206 C2232 0.950 . S
H2207 C2234 0.950 . S
H2208 C2237 0.950 . S
H2209 C2238 0.950 . S
H2210 C2240 0.950 . S
H2211 C2241 0.950 . S
C2212 H2194 0.951 . S
C2212 C2213 1.366 . S
C2212 C2214 1.388 . S
C2213 C2212 1.366 . S
C2213 C2217 1.385 . S
C2214 H2195 0.951 1_565 S
C2214 C2212 1.388 . S
C2214 C2215 1.366 1_565 S
C2215 C2214 1.366 1_545 S
C2215 C2216 1.414 1_545 S
C2215 C2218 1.499 . S
C2216 H2196 0.950 1_565 S
C2216 C2215 1.414 1_565 S
C2216 C2217 1.374 . S
C2217 H2197 0.950 . S
C2217 C2213 1.385 . S
C2217 C2216 1.374 . S
C2218 C2215 1.499 . S
C2218 C2219 1.373 . S
C2218 C2220 1.389 . S
C2219 H2198 0.950 . S
C2219 C2218 1.373 . S
C2219 C2235 1.377 . S
C2220 C2218 1.389 . S
C2220 C2221 1.524 . S
C2220 C2234 1.377 . S
C2221 C2220 1.524 . S
C2221 C2222 1.397 . S
C2221 C2226 1.363 . S
C2222 H2199 0.950 . S
C2222 C2221 1.397 . S
C2222 C2223 1.334 . S
C2223 H2200 0.950 . S
C2223 C2222 1.334 . S
C2223 C2224 1.287 . S
C2224 C2223 1.287 . S
C2224 C2225 1.524 . S
C2224 H2243 0.913 . S
C2225 H2201 0.950 . S
C2225 C2224 1.524 . S
C2225 C2226 1.415 . S
C2226 H2202 0.950 . S
C2226 C2221 1.363 . S
C2226 C2225 1.415 . S
C2227 H2203 0.951 . S
C2227 C2228 1.366 . S
C2227 C2229 1.388 . S
C2228 C2227 1.366 . S
C2228 C2232 1.385 . S
C2229 H2204 0.951 . S
C2229 C2227 1.388 . S
C2229 C2230 1.366 . S
C2230 C2229 1.366 . S
C2230 C2231 1.414 . S
C2230 C2233 1.499 . S
C2231 H2205 0.950 . S
C2231 C2230 1.414 . S
C2231 C2232 1.374 . S
C2232 H2206 0.950 . S
C2232 C2228 1.385 . S
C2232 C2231 1.374 . S
C2233 C2230 1.499 . S
C2233 C2234 1.373 . S
C2233 C2235 1.389 . S
C2234 H2207 0.950 . S
C2234 C2220 1.377 . S
C2234 C2233 1.373 . S
C2235 C2219 1.377 . S
C2235 C2233 1.389 . S
C2235 C2236 1.524 . S
C2236 C2235 1.524 . S
C2236 C2237 1.397 . S
C2236 C2241 1.363 . S
C2237 H2208 0.950 . S
C2237 C2236 1.397 . S
C2237 C2238 1.334 . S
C2238 H2209 0.950 . S
C2238 C2237 1.334 . S
C2238 C2239 1.287 . S
C2239 C2238 1.287 . S
C2239 C2240 1.524 . S
C2239 H2242 0.999 . S
C2240 H2210 0.950 . S
C2240 C2239 1.524 . S
C2240 C2241 1.415 . S
C2241 H2211 0.950 . S
C2241 C2236 1.363 . S
C2241 C2240 1.415 . S
H2242 C2239 0.999 . S
H2243 C2224 0.913 . S
H2244 C2262 0.951 . S
H2245 C2264 0.951 . S
H2246 C2266 0.950 . S
H2247 C2267 0.950 . S
H2248 C2269 0.950 . S
H2249 C2272 0.950 . S
H2250 C2273 0.950 . S
H2251 C2275 0.950 . S
H2252 C2276 0.950 . S
H2253 C2277 0.951 . S
H2254 C2279 0.951 1_455 S
H2255 C2281 0.950 1_455 S
H2256 C2282 0.950 . S
H2257 C2284 0.950 . S
H2258 C2287 0.950 . S
H2259 C2288 0.950 . S
H2260 C2290 0.950 . S
H2261 C2291 0.950 . S
C2262 H2244 0.951 . S
C2262 C2263 1.366 . S
C2262 C2264 1.388 . S
C2263 C2262 1.366 . S
C2263 C2267 1.385 . S
C2264 H2245 0.951 . S
C2264 C2262 1.388 . S
C2264 C2265 1.366 . S
C2265 C2264 1.366 . S
C2265 C2266 1.414 . S
C2265 C2268 1.499 . S
C2266 H2246 0.950 . S
C2266 C2265 1.414 . S
C2266 C2267 1.374 . S
C2267 H2247 0.950 . S
C2267 C2263 1.385 . S
C2267 C2266 1.374 . S
C2268 C2265 1.499 . S
C2268 C2269 1.373 . S
C2268 C2270 1.389 . S
C2269 H2248 0.950 . S
C2269 C2268 1.373 . S
C2269 C2285 1.377 . S
C2270 C2268 1.389 . S
C2270 C2271 1.524 . S
C2270 C2284 1.377 . S
C2271 C2270 1.524 . S
C2271 C2272 1.397 . S
C2271 C2276 1.363 . S
C2272 H2249 0.950 . S
C2272 C2271 1.397 . S
C2272 C2273 1.334 . S
C2273 H2250 0.950 . S
C2273 C2272 1.334 . S
C2273 C2274 1.287 . S
C2274 C2273 1.287 . S
C2274 C2275 1.524 . S
C2274 H2293 0.913 . S
C2275 H2251 0.950 . S
C2275 C2274 1.524 . S
C2275 C2276 1.415 . S
C2276 H2252 0.950 . S
C2276 C2271 1.363 . S
C2276 C2275 1.415 . S
C2277 H2253 0.951 . S
C2277 C2278 1.366 . S
C2277 C2279 1.388 . S
C2278 C2277 1.366 . S
C2278 C2282 1.385 . S
C2279 H2254 0.951 1_655 S
C2279 C2277 1.388 . S
C2279 C2280 1.366 1_655 S
C2280 C2279 1.366 1_455 S
C2280 C2281 1.414 1_455 S
C2280 C2283 1.499 . S
C2281 H2255 0.950 1_655 S
C2281 C2280 1.414 1_655 S
C2281 C2282 1.374 . S
C2282 H2256 0.950 . S
C2282 C2278 1.385 . S
C2282 C2281 1.374 . S
C2283 C2280 1.499 . S
C2283 C2284 1.373 . S
C2283 C2285 1.389 . S
C2284 H2257 0.950 . S
C2284 C2270 1.377 . S
C2284 C2283 1.373 . S
C2285 C2269 1.377 . S
C2285 C2283 1.389 . S
C2285 C2286 1.524 . S
C2286 C2285 1.524 . S
C2286 C2287 1.397 . S
C2286 C2291 1.363 . S
C2287 H2258 0.950 . S
C2287 C2286 1.397 . S
C2287 C2288 1.334 . S
C2288 H2259 0.950 . S
C2288 C2287 1.334 . S
C2288 C2289 1.287 . S
C2289 C2288 1.287 . S
C2289 C2290 1.524 . S
C2289 H2292 0.999 . S
C2290 H2260 0.950 . S
C2290 C2289 1.524 . S
C2290 C2291 1.415 . S
C2291 H2261 0.950 . S
C2291 C2286 1.363 . S
C2291 C2290 1.415 . S
H2292 C2289 0.999 . S
H2293 C2274 0.913 . S
H2294 C2312 0.951 . S
H2295 C2314 0.951 1_565 S
H2296 C2316 0.950 1_565 S
H2297 C2317 0.950 . S
H2298 C2319 0.950 . S
H2299 C2322 0.950 . S
H2300 C2323 0.950 . S
H2301 C2325 0.950 . S
H2302 C2326 0.950 . S
H2303 C2327 0.951 . S
H2304 C2329 0.951 . S
H2305 C2331 0.950 . S
H2306 C2332 0.950 . S
H2307 C2334 0.950 . S
H2308 C2337 0.950 . S
H2309 C2338 0.950 . S
H2310 C2340 0.950 . S
H2311 C2341 0.950 . S
C2312 H2294 0.951 . S
C2312 C2313 1.366 . S
C2312 C2314 1.388 . S
C2313 C2312 1.366 . S
C2313 C2317 1.385 . S
C2314 H2295 0.951 1_545 S
C2314 C2312 1.388 . S
C2314 C2315 1.366 1_545 S
C2315 C2314 1.366 1_565 S
C2315 C2316 1.414 1_565 S
C2315 C2318 1.499 . S
C2316 H2296 0.950 1_545 S
C2316 C2315 1.414 1_545 S
C2316 C2317 1.374 . S
C2317 H2297 0.950 . S
C2317 C2313 1.385 . S
C2317 C2316 1.374 . S
C2318 C2315 1.499 . S
C2318 C2319 1.373 . S
C2318 C2320 1.389 . S
C2319 H2298 0.950 . S
C2319 C2318 1.373 . S
C2319 C2335 1.377 . S
C2320 C2318 1.389 . S
C2320 C2321 1.524 . S
C2320 C2334 1.377 . S
C2321 C2320 1.524 . S
C2321 C2322 1.397 . S
C2321 C2326 1.363 . S
C2322 H2299 0.950 . S
C2322 C2321 1.397 . S
C2322 C2323 1.334 . S
C2323 H2300 0.950 . S
C2323 C2322 1.334 . S
C2323 C2324 1.287 . S
C2324 C2323 1.287 . S
C2324 C2325 1.524 . S
C2324 H2343 0.913 . S
C2325 H2301 0.950 . S
C2325 C2324 1.524 . S
C2325 C2326 1.415 . S
C2326 H2302 0.950 . S
C2326 C2321 1.363 . S
C2326 C2325 1.415 . S
C2327 H2303 0.951 . S
C2327 C2328 1.366 . S
C2327 C2329 1.388 . S
C2328 C2327 1.366 . S
C2328 C2332 1.385 . S
C2329 H2304 0.951 . S
C2329 C2327 1.388 . S
C2329 C2330 1.366 . S
C2330 C2329 1.366 . S
C2330 C2331 1.414 . S
C2330 C2333 1.499 . S
C2331 H2305 0.950 . S
C2331 C2330 1.414 . S
C2331 C2332 1.374 . S
C2332 H2306 0.950 . S
C2332 C2328 1.385 . S
C2332 C2331 1.374 . S
C2333 C2330 1.499 . S
C2333 C2334 1.373 . S
C2333 C2335 1.389 . S
C2334 H2307 0.950 . S
C2334 C2320 1.377 . S
C2334 C2333 1.373 . S
C2335 C2319 1.377 . S
C2335 C2333 1.389 . S
C2335 C2336 1.524 . S
C2336 C2335 1.524 . S
C2336 C2337 1.397 . S
C2336 C2341 1.363 . S
C2337 H2308 0.950 . S
C2337 C2336 1.397 . S
C2337 C2338 1.334 . S
C2338 H2309 0.950 . S
C2338 C2337 1.334 . S
C2338 C2339 1.287 . S
C2339 C2338 1.287 . S
C2339 C2340 1.524 . S
C2339 H2342 0.999 . S
C2340 H2310 0.950 . S
C2340 C2339 1.524 . S
C2340 C2341 1.415 . S
C2341 H2311 0.950 . S
C2341 C2336 1.363 . S
C2341 C2340 1.415 . S
H2342 C2339 0.999 . S
H2343 C2324 0.913 . S
H2344 C2362 0.951 . S
H2345 C2364 0.951 1_455 S
H2346 C2366 0.950 1_455 S
H2347 C2367 0.950 . S
H2348 C2369 0.950 . S
H2349 C2372 0.950 . S
H2350 C2373 0.950 . S
H2351 C2375 0.950 . S
H2352 C2376 0.950 . S
H2353 C2377 0.951 . S
H2354 C2379 0.951 . S
H2355 C2381 0.950 . S
H2356 C2382 0.950 . S
H2357 C2384 0.950 . S
H2358 C2387 0.950 . S
H2359 C2388 0.950 . S
H2360 C2390 0.950 . S
H2361 C2391 0.950 . S
C2362 H2344 0.951 . S
C2362 C2363 1.366 . S
C2362 C2364 1.388 . S
C2363 C2362 1.366 . S
C2363 C2367 1.385 . S
C2364 H2345 0.951 1_655 S
C2364 C2362 1.388 . S
C2364 C2365 1.366 1_655 S
C2365 C2364 1.366 1_455 S
C2365 C2366 1.414 1_455 S
C2365 C2368 1.499 . S
C2366 H2346 0.950 1_655 S
C2366 C2365 1.414 1_655 S
C2366 C2367 1.374 . S
C2367 H2347 0.950 . S
C2367 C2363 1.385 . S
C2367 C2366 1.374 . S
C2368 C2365 1.499 . S
C2368 C2369 1.373 . S
C2368 C2370 1.389 . S
C2369 H2348 0.950 . S
C2369 C2368 1.373 . S
C2369 C2385 1.377 . S
C2370 C2368 1.389 . S
C2370 C2371 1.524 . S
C2370 C2384 1.377 . S
C2371 C2370 1.524 . S
C2371 C2372 1.397 . S
C2371 C2376 1.363 . S
C2372 H2349 0.950 . S
C2372 C2371 1.397 . S
C2372 C2373 1.334 . S
C2373 H2350 0.950 . S
C2373 C2372 1.334 . S
C2373 C2374 1.287 . S
C2374 C2373 1.287 . S
C2374 C2375 1.524 . S
C2374 H2393 0.913 . S
C2375 H2351 0.950 . S
C2375 C2374 1.524 . S
C2375 C2376 1.415 . S
C2376 H2352 0.950 . S
C2376 C2371 1.363 . S
C2376 C2375 1.415 . S
C2377 H2353 0.951 . S
C2377 C2378 1.366 . S
C2377 C2379 1.388 . S
C2378 C2377 1.366 . S
C2378 C2382 1.385 . S
C2379 H2354 0.951 . S
C2379 C2377 1.388 . S
C2379 C2380 1.366 . S
C2380 C2379 1.366 . S
C2380 C2381 1.414 . S
C2380 C2383 1.499 . S
C2381 H2355 0.950 . S
C2381 C2380 1.414 . S
C2381 C2382 1.374 . S
C2382 H2356 0.950 . S
C2382 C2378 1.385 . S
C2382 C2381 1.374 . S
C2383 C2380 1.499 . S
C2383 C2384 1.373 . S
C2383 C2385 1.389 . S
C2384 H2357 0.950 . S
C2384 C2370 1.377 . S
C2384 C2383 1.373 . S
C2385 C2369 1.377 . S
C2385 C2383 1.389 . S
C2385 C2386 1.524 . S
C2386 C2385 1.524 . S
C2386 C2387 1.397 . S
C2386 C2391 1.363 . S
C2387 H2358 0.950 . S
C2387 C2386 1.397 . S
C2387 C2388 1.334 . S
C2388 H2359 0.950 . S
C2388 C2387 1.334 . S
C2388 C2389 1.287 . S
C2389 C2388 1.287 . S
C2389 C2390 1.524 . S
C2389 H2392 0.999 . S
C2390 H2360 0.950 . S
C2390 C2389 1.524 . S
C2390 C2391 1.415 . S
C2391 H2361 0.950 . S
C2391 C2386 1.363 . S
C2391 C2390 1.415 . S
H2392 C2389 0.999 . S
H2393 C2374 0.913 . S
H2394 C2412 0.951 . S
H2395 C2414 0.951 . S
H2396 C2416 0.950 . S
H2397 C2417 0.950 . S
H2398 C2419 0.950 . S
H2399 C2422 0.950 . S
H2400 C2423 0.950 . S
H2401 C2425 0.950 . S
H2402 C2426 0.950 . S
H2403 C2427 0.951 . S
H2404 C2429 0.951 1_565 S
H2405 C2431 0.950 1_565 S
H2406 C2432 0.950 . S
H2407 C2434 0.950 . S
H2408 C2437 0.950 . S
H2409 C2438 0.950 1_545 S
H2410 C2440 0.950 . S
H2411 C2441 0.950 . S
C2412 H2394 0.951 . S
C2412 C2413 1.366 . S
C2412 C2414 1.388 . S
C2413 C2412 1.366 . S
C2413 C2417 1.385 . S
C2414 H2395 0.951 . S
C2414 C2412 1.388 . S
C2414 C2415 1.366 . S
C2415 C2414 1.366 . S
C2415 C2416 1.414 . S
C2415 C2418 1.499 . S
C2416 H2396 0.950 . S
C2416 C2415 1.414 . S
C2416 C2417 1.374 . S
C2417 H2397 0.950 . S
C2417 C2413 1.385 . S
C2417 C2416 1.374 . S
C2418 C2415 1.499 . S
C2418 C2419 1.373 . S
C2418 C2420 1.389 . S
C2419 H2398 0.950 . S
C2419 C2418 1.373 . S
C2419 C2435 1.377 . S
C2420 C2418 1.389 . S
C2420 C2421 1.524 . S
C2420 C2434 1.377 . S
C2421 C2420 1.524 . S
C2421 C2422 1.397 . S
C2421 C2426 1.363 . S
C2422 H2399 0.950 . S
C2422 C2421 1.397 . S
C2422 C2423 1.334 . S
C2423 H2400 0.950 . S
C2423 C2422 1.334 . S
C2423 C2424 1.287 . S
C2424 C2423 1.287 . S
C2424 C2425 1.524 . S
C2424 H2443 0.913 . S
C2425 H2401 0.950 . S
C2425 C2424 1.524 . S
C2425 C2426 1.415 . S
C2426 H2402 0.950 . S
C2426 C2421 1.363 . S
C2426 C2425 1.415 . S
C2427 H2403 0.951 . S
C2427 C2428 1.366 . S
C2427 C2429 1.388 . S
C2428 C2427 1.366 . S
C2428 C2432 1.385 . S
C2429 H2404 0.951 1_545 S
C2429 C2427 1.388 . S
C2429 C2430 1.366 1_545 S
C2430 C2429 1.366 1_565 S
C2430 C2431 1.414 1_565 S
C2430 C2433 1.499 . S
C2431 H2405 0.950 1_545 S
C2431 C2430 1.414 1_545 S
C2431 C2432 1.374 . S
C2432 H2406 0.950 . S
C2432 C2428 1.385 . S
C2432 C2431 1.374 . S
C2433 C2430 1.499 . S
C2433 C2434 1.373 . S
C2433 C2435 1.389 . S
C2434 H2407 0.950 . S
C2434 C2420 1.377 . S
C2434 C2433 1.373 . S
C2435 C2419 1.377 . S
C2435 C2433 1.389 . S
C2435 C2436 1.524 . S
C2436 C2435 1.524 . S
C2436 C2437 1.397 . S
C2436 C2441 1.363 . S
C2437 H2408 0.950 . S
C2437 C2436 1.397 . S
C2437 C2438 1.334 . S
C2438 H2409 0.950 1_565 S
C2438 C2437 1.334 . S
C2438 C2439 1.287 . S
C2439 C2438 1.287 . S
C2439 C2440 1.524 . S
C2439 H2442 0.999 . S
C2440 H2410 0.950 . S
C2440 C2439 1.524 . S
C2440 C2441 1.415 . S
C2441 H2411 0.950 . S
C2441 C2436 1.363 . S
C2441 C2440 1.415 . S
H2442 C2439 0.999 . S
H2443 C2424 0.913 . S
H2444 C2462 0.951 . S
H2445 C2464 0.951 . S
H2446 C2466 0.950 . S
H2447 C2467 0.950 . S
H2448 C2469 0.950 . S
H2449 C2472 0.950 . S
H2450 C2473 0.950 . S
H2451 C2475 0.950 . S
H2452 C2476 0.950 . S
H2453 C2477 0.951 . S
H2454 C2479 0.951 1_655 S
H2455 C2481 0.950 1_655 S
H2456 C2482 0.950 . S
H2457 C2484 0.950 . S
H2458 C2487 0.950 . S
H2459 C2488 0.950 1_455 S
H2460 C2490 0.950 . S
H2461 C2491 0.950 . S
C2462 H2444 0.951 . S
C2462 C2463 1.366 . S
C2462 C2464 1.388 . S
C2463 C2462 1.366 . S
C2463 C2467 1.385 . S
C2464 H2445 0.951 . S
C2464 C2462 1.388 . S
C2464 C2465 1.366 . S
C2465 C2464 1.366 . S
C2465 C2466 1.414 . S
C2465 C2468 1.499 . S
C2466 H2446 0.950 . S
C2466 C2465 1.414 . S
C2466 C2467 1.374 . S
C2467 H2447 0.950 . S
C2467 C2463 1.385 . S
C2467 C2466 1.374 . S
C2468 C2465 1.499 . S
C2468 C2469 1.373 . S
C2468 C2470 1.389 . S
C2469 H2448 0.950 . S
C2469 C2468 1.373 . S
C2469 C2485 1.377 . S
C2470 C2468 1.389 . S
C2470 C2471 1.524 . S
C2470 C2484 1.377 . S
C2471 C2470 1.524 . S
C2471 C2472 1.397 . S
C2471 C2476 1.363 . S
C2472 H2449 0.950 . S
C2472 C2471 1.397 . S
C2472 C2473 1.334 . S
C2473 H2450 0.950 . S
C2473 C2472 1.334 . S
C2473 C2474 1.287 . S
C2474 C2473 1.287 . S
C2474 C2475 1.524 . S
C2474 H2493 0.913 . S
C2475 H2451 0.950 . S
C2475 C2474 1.524 . S
C2475 C2476 1.415 . S
C2476 H2452 0.950 . S
C2476 C2471 1.363 . S
C2476 C2475 1.415 . S
C2477 H2453 0.951 . S
C2477 C2478 1.366 . S
C2477 C2479 1.388 . S
C2478 C2477 1.366 . S
C2478 C2482 1.385 . S
C2479 H2454 0.951 1_455 S
C2479 C2477 1.388 . S
C2479 C2480 1.366 1_455 S
C2480 C2479 1.366 1_655 S
C2480 C2481 1.414 1_655 S
C2480 C2483 1.499 . S
C2481 H2455 0.950 1_455 S
C2481 C2480 1.414 1_455 S
C2481 C2482 1.374 . S
C2482 H2456 0.950 . S
C2482 C2478 1.385 . S
C2482 C2481 1.374 . S
C2483 C2480 1.499 . S
C2483 C2484 1.373 . S
C2483 C2485 1.389 . S
C2484 H2457 0.950 . S
C2484 C2470 1.377 . S
C2484 C2483 1.373 . S
C2485 C2469 1.377 . S
C2485 C2483 1.389 . S
C2485 C2486 1.524 . S
C2486 C2485 1.524 . S
C2486 C2487 1.397 . S
C2486 C2491 1.363 . S
C2487 H2458 0.950 . S
C2487 C2486 1.397 . S
C2487 C2488 1.334 . S
C2488 H2459 0.950 1_655 S
C2488 C2487 1.334 . S
C2488 C2489 1.287 . S
C2489 C2488 1.287 . S
C2489 C2490 1.524 . S
C2489 H2492 0.999 . S
C2490 H2460 0.950 . S
C2490 C2489 1.524 . S
C2490 C2491 1.415 . S
C2491 H2461 0.950 . S
C2491 C2486 1.363 . S
C2491 C2490 1.415 . S
H2492 C2489 0.999 . S
H2493 C2474 0.913 . S
H2494 C2512 0.951 . S
H2495 C2514 0.951 1_545 S
H2496 C2516 0.950 1_545 S
H2497 C2517 0.950 . S
H2498 C2519 0.950 . S
H2499 C2522 0.950 . S
H2500 C2523 0.950 1_565 S
H2501 C2525 0.950 . S
H2502 C2526 0.950 . S
H2503 C2527 0.951 . S
H2504 C2529 0.951 . S
H2505 C2531 0.950 . S
H2506 C2532 0.950 . S
H2507 C2534 0.950 . S
H2508 C2537 0.950 . S
H2509 C2538 0.950 . S
H2510 C2540 0.950 . S
H2511 C2541 0.950 . S
C2512 H2494 0.951 . S
C2512 C2513 1.366 . S
C2512 C2514 1.388 . S
C2513 C2512 1.366 . S
C2513 C2517 1.385 . S
C2514 H2495 0.951 1_565 S
C2514 C2512 1.388 . S
C2514 C2515 1.366 1_565 S
C2515 C2514 1.366 1_545 S
C2515 C2516 1.414 1_545 S
C2515 C2518 1.499 . S
C2516 H2496 0.950 1_565 S
C2516 C2515 1.414 1_565 S
C2516 C2517 1.374 . S
C2517 H2497 0.950 . S
C2517 C2513 1.385 . S
C2517 C2516 1.374 . S
C2518 C2515 1.499 . S
C2518 C2519 1.373 . S
C2518 C2520 1.389 . S
C2519 H2498 0.950 . S
C2519 C2518 1.373 . S
C2519 C2535 1.377 . S
C2520 C2518 1.389 . S
C2520 C2521 1.524 . S
C2520 C2534 1.377 . S
C2521 C2520 1.524 . S
C2521 C2522 1.397 . S
C2521 C2526 1.363 . S
C2522 H2499 0.950 . S
C2522 C2521 1.397 . S
C2522 C2523 1.334 . S
C2523 H2500 0.950 1_545 S
C2523 C2522 1.334 . S
C2523 C2524 1.287 . S
C2524 C2523 1.287 . S
C2524 C2525 1.524 . S
C2524 H2543 0.913 . S
C2525 H2501 0.950 . S
C2525 C2524 1.524 . S
C2525 C2526 1.415 . S
C2526 H2502 0.950 . S
C2526 C2521 1.363 . S
C2526 C2525 1.415 . S
C2527 H2503 0.951 . S
C2527 C2528 1.366 . S
C2527 C2529 1.388 . S
C2528 C2527 1.366 . S
C2528 C2532 1.385 . S
C2529 H2504 0.951 . S
C2529 C2527 1.388 . S
C2529 C2530 1.366 . S
C2530 C2529 1.366 . S
C2530 C2531 1.414 . S
C2530 C2533 1.499 . S
C2531 H2505 0.950 . S
C2531 C2530 1.414 . S
C2531 C2532 1.374 . S
C2532 H2506 0.950 . S
C2532 C2528 1.385 . S
C2532 C2531 1.374 . S
C2533 C2530 1.499 . S
C2533 C2534 1.373 . S
C2533 C2535 1.389 . S
C2534 H2507 0.950 . S
C2534 C2520 1.377 . S
C2534 C2533 1.373 . S
C2535 C2519 1.377 . S
C2535 C2533 1.389 . S
C2535 C2536 1.524 . S
C2536 C2535 1.524 . S
C2536 C2537 1.397 . S
C2536 C2541 1.363 . S
C2537 H2508 0.950 . S
C2537 C2536 1.397 . S
C2537 C2538 1.334 . S
C2538 H2509 0.950 . S
C2538 C2537 1.334 . S
C2538 C2539 1.287 . S
C2539 C2538 1.287 . S
C2539 C2540 1.524 . S
C2539 H2542 0.999 . S
C2540 H2510 0.950 . S
C2540 C2539 1.524 . S
C2540 C2541 1.415 . S
C2541 H2511 0.950 . S
C2541 C2536 1.363 . S
C2541 C2540 1.415 . S
H2542 C2539 0.999 . S
H2543 C2524 0.913 . S
C563 C5 1.675 . S
C578 C175 1.675 . S
C613 C209 1.674 . S
C628 C39 1.674 . S
C663 C243 1.675 . S
C678 C73 1.674 . S
C713 C141 1.675 . S
C728 C107 1.675 . S
C763 C277 1.675 . S
C778 C447 1.675 . S
C813 C311 1.674 . S
C828 C481 1.674 . S
C863 C515 1.675 . S
C878 C345 1.674 . S
C913 C379 1.675 . S
C928 C413 1.675 . S
C963 C33 1.062 . S
C978 C101 1.062 . S
C1013 C135 1.062 . S
C1028 C67 1.062 . S
C1063 C169 1.061 . S
C1078 C237 1.061 . S
C1113 C203 1.061 . S
C1128 C271 1.061 . S
C1163 C373 1.062 . S
C1178 C305 1.062 . S
C1213 C407 1.061 . S
C1228 C339 1.061 . S
C1263 C509 1.061 . S
C1278 C441 1.061 . S
C1313 C543 1.062 . S
C1328 C475 1.062 . S
C1363 C519 1.567 . S
C1378 C9 1.567 . S
C1413 C417 1.566 . S
C1428 C43 1.567 . S
C1463 C451 1.566 . S
C1478 C77 1.566 . S
C1513 C111 1.567 . S
C1528 C485 1.567 . S
C1563 C145 1.566 . S
C1578 C315 1.567 . S
C1613 C179 1.566 . S
C1628 C349 1.567 . S
C1663 C213 1.567 . S
C1678 C383 1.567 . S
C1713 C247 1.567 . S
C1728 C281 1.567 . S
C1763 C478 0.796 . S
C1778 C20 0.801 . S
C1813 C54 0.801 . S
C1828 C512 0.797 . S
C1863 C410 0.797 . S
C1878 C88 0.801 . S
C1913 C444 0.796 . S
C1928 C122 0.801 . S
C1963 C342 0.796 . S
C1978 C156 0.801 . S
C2013 C190 0.801 . S
C2028 C376 0.797 . S
C2063 C274 0.797 . S
C2078 C224 0.801 . S
C2113 C258 0.801 . S
C2128 C308 0.796 . S
C2163 C206 0.796 . S
C2178 C292 0.801 . S
C2213 C240 0.797 . S
C2228 C326 0.801 . S
C2263 C360 0.801 . S
C2278 C138 0.797 . S
C2313 C172 0.797 . S
C2328 C394 0.801 . S
C2363 C70 0.797 . S
C2378 C428 0.801 . S
C2413 C462 0.801 . S
C2428 C104 0.796 . S
C2463 C496 0.801 . S
C2478 C2 0.796 . S
C2513 C36 0.796 . S
C2528 C530 0.801 . S
