# Generated by pormake.
# Topology upb, (4)-cn, num edge types: 1
# Building blocks:
#     Node 0, Type 0, BuildingBlock: CEKHIL_clean_sbu_0, # of connection points: 4
#     Node 1, Type 0, BuildingBlock: CEKHIL_clean_sbu_0, # of connection points: 4
#     Node 2, Type 0, BuildingBlock: CEKHIL_clean_sbu_0, # of connection points: 4
#     Node 3, Type 0, BuildingBlock: CEKHIL_clean_sbu_0, # of connection points: 4
#     Node 4, Type 0, BuildingBlock: CEKHIL_clean_sbu_0, # of connection points: 4
#     Node 5, Type 0, BuildingBlock: CEKHIL_clean_sbu_0, # of connection points: 4
#     Node 6, Type 0, BuildingBlock: CEKHIL_clean_sbu_0, # of connection points: 4
#     Node 7, Type 0, BuildingBlock: CEKHIL_clean_sbu_0, # of connection points: 4
#     Node 8, Type 0, BuildingBlock: CEKHIL_clean_sbu_0, # of connection points: 4
#     Node 9, Type 0, BuildingBlock: CEKHIL_clean_sbu_0, # of connection points: 4
#     Node 10, Type 0, BuildingBlock: CEKHIL_clean_sbu_0, # of connection points: 4
#     Node 11, Type 0, BuildingBlock: CEKHIL_clean_sbu_0, # of connection points: 4
#     Node 12, Type 0, BuildingBlock: CEKHIL_clean_sbu_0, # of connection points: 4
#     Node 13, Type 0, BuildingBlock: CEKHIL_clean_sbu_0, # of connection points: 4
#     Node 14, Type 0, BuildingBlock: CEKHIL_clean_sbu_0, # of connection points: 4
#     Node 15, Type 0, BuildingBlock: CEKHIL_clean_sbu_0, # of connection points: 4
#     Edge 16, Type (0, 0), BuildingBlock: XUDNAN_clean_linker_2, # of connection points: 2
#     Edge 17, Type (0, 0), BuildingBlock: XUDNAN_clean_linker_2, # of connection points: 2
#     Edge 18, Type (0, 0), BuildingBlock: XUDNAN_clean_linker_2, # of connection points: 2
#     Edge 19, Type (0, 0), BuildingBlock: XUDNAN_clean_linker_2, # of connection points: 2
#     Edge 20, Type (0, 0), BuildingBlock: XUDNAN_clean_linker_2, # of connection points: 2
#     Edge 21, Type (0, 0), BuildingBlock: XUDNAN_clean_linker_2, # of connection points: 2
#     Edge 22, Type (0, 0), BuildingBlock: XUDNAN_clean_linker_2, # of connection points: 2
#     Edge 23, Type (0, 0), BuildingBlock: XUDNAN_clean_linker_2, # of connection points: 2
#     Edge 24, Type (0, 0), BuildingBlock: XUDNAN_clean_linker_2, # of connection points: 2
#     Edge 25, Type (0, 0), BuildingBlock: XUDNAN_clean_linker_2, # of connection points: 2
#     Edge 26, Type (0, 0), BuildingBlock: XUDNAN_clean_linker_2, # of connection points: 2
#     Edge 27, Type (0, 0), BuildingBlock: XUDNAN_clean_linker_2, # of connection points: 2
#     Edge 28, Type (0, 0), BuildingBlock: XUDNAN_clean_linker_2, # of connection points: 2
#     Edge 29, Type (0, 0), BuildingBlock: XUDNAN_clean_linker_2, # of connection points: 2
#     Edge 30, Type (0, 0), BuildingBlock: XUDNAN_clean_linker_2, # of connection points: 2
#     Edge 31, Type (0, 0), BuildingBlock: XUDNAN_clean_linker_2, # of connection points: 2
#     Edge 32, Type (0, 0), BuildingBlock: XUDNAN_clean_linker_2, # of connection points: 2
#     Edge 33, Type (0, 0), BuildingBlock: XUDNAN_clean_linker_2, # of connection points: 2
#     Edge 34, Type (0, 0), BuildingBlock: XUDNAN_clean_linker_2, # of connection points: 2
#     Edge 35, Type (0, 0), BuildingBlock: XUDNAN_clean_linker_2, # of connection points: 2
#     Edge 36, Type (0, 0), BuildingBlock: XUDNAN_clean_linker_2, # of connection points: 2
#     Edge 37, Type (0, 0), BuildingBlock: XUDNAN_clean_linker_2, # of connection points: 2
#     Edge 38, Type (0, 0), BuildingBlock: XUDNAN_clean_linker_2, # of connection points: 2
#     Edge 39, Type (0, 0), BuildingBlock: XUDNAN_clean_linker_2, # of connection points: 2
#     Edge 40, Type (0, 0), BuildingBlock: XUDNAN_clean_linker_2, # of connection points: 2
#     Edge 41, Type (0, 0), BuildingBlock: XUDNAN_clean_linker_2, # of connection points: 2
#     Edge 42, Type (0, 0), BuildingBlock: XUDNAN_clean_linker_2, # of connection points: 2
#     Edge 43, Type (0, 0), BuildingBlock: XUDNAN_clean_linker_2, # of connection points: 2
#     Edge 44, Type (0, 0), BuildingBlock: XUDNAN_clean_linker_2, # of connection points: 2
#     Edge 45, Type (0, 0), BuildingBlock: XUDNAN_clean_linker_2, # of connection points: 2
#     Edge 46, Type (0, 0), BuildingBlock: XUDNAN_clean_linker_2, # of connection points: 2
#     Edge 47, Type (0, 0), BuildingBlock: XUDNAN_clean_linker_2, # of connection points: 2
# Relax obj value: 0.216
# Max RMSD: 0.061
# Mean RMSD: 0.061
data_MOF--net-upb--node1-CEKHIL_clean_sbu_0--edge1-XUDNAN_clean_linker_2
_symmetry_space_group_name_H-M    P1
_symmetry_Int_Tables_number       1
_symmetry_cell_setting            triclinic
loop_
_symmetry_equiv_pos_as_xyz
'x, y, z'
_cell_length_a     44.407127
_cell_length_b     44.352883
_cell_length_c     32.221835
_cell_angle_alpha  90.005154
_cell_angle_beta   90.05886
_cell_angle_gamma 90.013027
loop_
_atom_site_label
_atom_site_type_symbol
_atom_site_fract_x
_atom_site_fract_y
_atom_site_fract_z
_atom_type_partial_charge
Co0 Co 0.04179 0.22655 0.27476 0.0
O1 O 0.08097 0.24394 0.27853 0.0
O2 O 0.04808 0.25312 0.22808 0.0
C3 C 0.03142 0.23552 0.34175 0.0
O4 O -0.00161 0.21395 0.26234 0.0
Co5 Co 0.02378 0.1712 0.32709 0.0
O6 O 0.98291 0.18739 0.31759 0.0
C7 C 0.06202 0.16337 0.2526 0.0
C8 C 0.07406 0.2587 0.24518 0.0
C9 C 0.97739 0.20267 0.28505 0.0
O10 O 0.05898 0.19136 0.24313 0.0
O11 O 0.05078 0.15144 0.2853 0.0
O12 O 0.0272 0.25641 0.31413 0.0
O13 O 0.04271 0.21047 0.32845 0.0
Co14 Co 0.754 0.05573 0.29773 0.0
O15 O 0.7196 0.0813 0.30066 0.0
O16 O 0.73485 0.05766 0.24373 0.0
C17 C 0.74427 0.03034 0.35638 0.0
O18 O 0.78784 0.02626 0.28471 0.0
Co19 Co 0.80189 0.06039 0.36825 0.0
O20 O 0.81954 0.02504 0.33944 0.0
C21 C 0.79749 0.10818 0.30542 0.0
C22 C 0.71556 0.07557 0.26163 0.0
C23 C 0.81092 0.01559 0.30396 0.0
O24 O 0.78036 0.09136 0.28298 0.0
O25 O 0.80533 0.10128 0.34246 0.0
O26 O 0.73121 0.02228 0.322 0.0
O27 O 0.76 0.05468 0.35476 0.0
Co28 Co 0.95539 0.77831 0.3068 0.0
O29 O 0.91669 0.76767 0.32791 0.0
O30 O 0.93385 0.75447 0.26601 0.0
C31 C 0.97868 0.76489 0.36594 0.0
O32 O 0.99514 0.78464 0.27596 0.0
Co33 Co 0.99363 0.82738 0.34988 0.0
O34 O 0.02673 0.80544 0.32218 0.0
C35 C 0.94236 0.84481 0.29563 0.0
C36 C 0.91275 0.75258 0.294 0.0
C37 C 0.02183 0.79166 0.28821 0.0
O38 O 0.93851 0.81722 0.28435 0.0
O39 O 0.96196 0.85288 0.32268 0.0
O40 O 0.97298 0.74485 0.33766 0.0
O41 O 0.96941 0.79188 0.35815 0.0
Co42 Co 0.22736 0.95339 0.29797 0.0
O43 O 0.25435 0.92456 0.32113 0.0
O44 O 0.25847 0.94369 0.25774 0.0
C45 C 0.22878 0.982 0.35598 0.0
O46 O 0.20401 0.98527 0.26513 0.0
Co47 Co 0.16617 0.96302 0.34006 0.0
O48 O 0.16213 0.99683 0.30113 0.0
C49 C 0.17405 0.91152 0.28347 0.0
C50 C 0.2693 0.92645 0.2869 0.0
C51 C 0.17974 0.00067 0.27048 0.0
O52 O 0.2011 0.91997 0.27558 0.0
O53 O 0.15689 0.92482 0.30951 0.0
O54 O 0.24866 0.98515 0.32685 0.0
O55 O 0.20909 0.96092 0.34995 0.0
Co56 Co 0.04481 0.76312 0.72255 0.0
O57 O 0.081 0.7482 0.69875 0.0
O58 O 0.06278 0.73337 0.75944 0.0
C59 C 0.01947 0.75714 0.66254 0.0
O60 O 0.00644 0.77344 0.75487 0.0
Co61 Co 0.01577 0.82051 0.68599 0.0
O62 O 0.97959 0.80287 0.71173 0.0
C63 C 0.068 0.82568 0.7428 0.0
C64 C 0.08279 0.73023 0.73016 0.0
C65 C 0.98158 0.78594 0.74349 0.0
O66 O 0.06794 0.79707 0.74931 0.0
O67 O 0.04996 0.83888 0.71764 0.0
O68 O 0.02196 0.73498 0.68857 0.0
O69 O 0.03305 0.78178 0.67296 0.0
Co70 Co 0.23502 0.04629 0.71652 0.0
O71 O 0.2607 0.08001 0.7063 0.0
O72 O 0.26241 0.05135 0.76275 0.0
C73 C 0.24055 0.0268 0.65243 0.0
O74 O 0.21283 0.00873 0.73648 0.0
Co75 Co 0.17651 0.03832 0.66393 0.0
O76 O 0.17401 -0.00064 0.69314 0.0
C77 C 0.17779 0.08154 0.73391 0.0
C78 C 0.27332 0.07381 0.74154 0.0
C79 C 0.19045 0.9926 0.72418 0.0
O80 O 0.20453 0.07338 0.74427 0.0
O81 O 0.16381 0.07159 0.70197 0.0
O82 O 0.26049 0.02142 0.68099 0.0
O83 O 0.21934 0.04521 0.66255 0.0
Co84 Co 0.96064 0.22677 0.68998 0.0
O85 O 0.9296 0.24964 0.66372 0.0
O86 O 0.94377 0.25503 0.72934 0.0
C87 C 0.99315 0.2328 0.63702 0.0
O88 O 0.99337 0.20798 0.72609 0.0
Co89 Co 0.98216 0.168 0.64689 0.0
O90 O 0.01259 0.16808 0.69163 0.0
C91 C 0.92268 0.17062 0.68647 0.0
C92 C 0.92703 0.264 0.69847 0.0
C93 C 0.01221 0.1861 0.72243 0.0
O94 O 0.93033 0.19473 0.70606 0.0
O95 O 0.9388 0.15873 0.65794 0.0
O96 O 0.9908 0.25338 0.66549 0.0
O97 O 0.97464 0.21053 0.64029 0.0
Co98 Co 0.7707 0.93598 0.70231 0.0
O99 O 0.74451 0.90215 0.69821 0.0
O100 O 0.74226 0.93663 0.74796 0.0
C101 C 0.76605 0.94812 0.63512 0.0
O102 O 0.79353 0.97502 0.71413 0.0
Co103 Co 0.82956 0.93661 0.65116 0.0
O104 O 0.82628 0.98057 0.66149 0.0
C105 C 0.82391 0.89708 0.72437 0.0
C106 C 0.73117 0.91236 0.73099 0.0
C107 C 0.81155 0.99118 0.69213 0.0
O108 O 0.80001 0.9111 0.73584 0.0
O109 O 0.8374 0.90208 0.68996 0.0
O110 O 0.7464 0.95767 0.66182 0.0
O111 O 0.78658 0.93023 0.64914 0.0
Co112 Co 0.5458 0.72701 0.81362 0.0
O113 O 0.57768 0.75175 0.83368 0.0
O114 O 0.56042 0.75262 0.76904 0.0
C115 C 0.51606 0.73689 0.86825 0.0
O116 O 0.51138 0.70513 0.78404 0.0
Co117 Co 0.52604 0.67206 0.86759 0.0
O118 O 0.48936 0.6764 0.83315 0.0
C119 C 0.58297 0.67025 0.82016 0.0
C120 C 0.57809 0.76403 0.79732 0.0
C121 C 0.48931 0.68904 0.79762 0.0
O122 O 0.57541 0.69389 0.79938 0.0
O123 O 0.56774 0.66001 0.85081 0.0
O124 O 0.51678 0.75544 0.83714 0.0
O125 O 0.53452 0.71453 0.86635 0.0
Co126 Co 0.26662 0.53515 0.77321 0.0
O127 O 0.24766 0.5723 0.78862 0.0
O128 O 0.24066 0.54827 0.72892 0.0
C129 C 0.2577 0.51294 0.83471 0.0
O130 O 0.28077 0.49581 0.74713 0.0
Co131 Co 0.32239 0.51092 0.82037 0.0
O132 O 0.31302 0.47295 0.79081 0.0
C133 C 0.3279 0.56322 0.76408 0.0
C134 C 0.23401 0.57081 0.75308 0.0
C135 C 0.29629 0.47288 0.75873 0.0
O136 O 0.30156 0.55823 0.74906 0.0
O137 O 0.33899 0.54874 0.79486 0.0
O138 O 0.23706 0.51314 0.8061 0.0
O139 O 0.28222 0.52719 0.82601 0.0
Co140 Co 0.44954 0.27459 0.77409 0.0
O141 O 0.41487 0.25604 0.79837 0.0
O142 O 0.4418 0.23643 0.74701 0.0
C143 C 0.47013 0.28624 0.83576 0.0
O144 O 0.48827 0.28623 0.74364 0.0
Co145 Co 0.46326 0.3423 0.78906 0.0
O146 O 0.50346 0.33113 0.76885 0.0
C147 C 0.41597 0.32452 0.72933 0.0
C148 C 0.41976 0.23372 0.77337 0.0
C149 C 0.50795 0.30736 0.7477 0.0
O150 O 0.42288 0.29649 0.73314 0.0
O151 O 0.42833 0.34562 0.75037 0.0
O152 O 0.47382 0.25961 0.8198 0.0
O153 O 0.45295 0.30439 0.8152 0.0
Co154 Co 0.73891 0.43642 0.80452 0.0
O155 O 0.76541 0.40288 0.80481 0.0
O156 O 0.76217 0.43614 0.75353 0.0
C157 C 0.75047 0.45002 0.86953 0.0
O158 O 0.71469 0.47497 0.79579 0.0
Co159 Co 0.6861 0.43753 0.86703 0.0
O160 O 0.68665 0.48116 0.85326 0.0
C161 C 0.68433 0.39663 0.79488 0.0
C162 C 0.77512 0.41238 0.76932 0.0
C163 C 0.6981 0.4912 0.81972 0.0
O164 O 0.70651 0.41084 0.77833 0.0
O165 O 0.67472 0.40201 0.83161 0.0
O166 O 0.76711 0.45909 0.83891 0.0
O167 O 0.72887 0.43176 0.8604 0.0
Co168 Co 0.55438 0.27992 0.18627 0.0
O169 O 0.5856 0.25655 0.16089 0.0
O170 O 0.56148 0.24383 0.21851 0.0
C171 C 0.5294 0.28852 0.12674 0.0
O172 O 0.51953 0.29769 0.21963 0.0
Co173 Co 0.54606 0.34727 0.16028 0.0
O174 O 0.51008 0.34461 0.1959 0.0
C175 C 0.59802 0.3286 0.21081 0.0
C176 C 0.58133 0.23708 0.19026 0.0
C177 C 0.50408 0.32226 0.21932 0.0
O178 O 0.58557 0.30313 0.21928 0.0
O179 O 0.58739 0.34743 0.18458 0.0
O180 O 0.52537 0.26339 0.14668 0.0
O181 O 0.54976 0.30618 0.14155 0.0
Co182 Co 0.74217 0.55496 0.20499 0.0
O183 O 0.76462 0.59112 0.1974 0.0
O184 O 0.7611 0.56609 0.25694 0.0
C185 C 0.75917 0.53326 0.14676 0.0
O186 O 0.72212 0.51565 0.22274 0.0
Co187 Co 0.69424 0.53672 0.1393 0.0
O188 O 0.70048 0.49658 0.16529 0.0
C189 C 0.68235 0.58684 0.19744 0.0
C190 C 0.77207 0.58874 0.2361 0.0
C191 C 0.71035 0.49369 0.20226 0.0
O192 O 0.70523 0.57927 0.21961 0.0
O193 O 0.67587 0.57441 0.16266 0.0
O194 O 0.775 0.53142 0.18059 0.0
O195 O 0.73518 0.54948 0.14867 0.0
Co196 Co 0.43907 0.72673 0.22115 0.0
O197 O 0.40279 0.74911 0.21665 0.0
O198 O 0.43462 0.75257 0.26944 0.0
C199 C 0.45338 0.73718 0.15598 0.0
O200 O 0.47989 0.70728 0.23353 0.0
Co201 Co 0.44745 0.67163 0.16235 0.0
O202 O 0.49004 0.67785 0.17822 0.0
C203 C 0.40406 0.6695 0.23166 0.0
C204 C 0.4103 0.7622 0.25097 0.0
C205 C 0.49816 0.6916 0.21113 0.0
O206 O 0.41617 0.69282 0.24847 0.0
O207 O 0.41141 0.65944 0.19583 0.0
O208 O 0.45911 0.75612 0.18561 0.0
O209 O 0.4377 0.71385 0.16618 0.0
Co210 Co 0.26606 0.44455 0.19167 0.0
O211 O 0.24886 0.40908 0.16827 0.0
O212 O 0.23632 0.42815 0.22952 0.0
C213 C 0.26031 0.47035 0.1319 0.0
O214 O 0.27846 0.48218 0.22426 0.0
Co215 Co 0.32382 0.47155 0.15534 0.0
O216 O 0.30797 0.50862 0.1811 0.0
C217 C 0.32783 0.4202 0.21375 0.0
C218 C 0.2316 0.40822 0.20051 0.0
C219 C 0.29152 0.50681 0.21328 0.0
O220 O 0.29908 0.41994 0.21803 0.0
O221 O 0.34181 0.43838 0.18963 0.0
O222 O 0.23867 0.46877 0.15877 0.0
O223 O 0.28459 0.45568 0.14129 0.0
H224 H 0.0519 0.10617 0.22793 0.0
H225 H 0.11827 0.17738 0.22521 0.0
H226 H 0.15756 0.14042 0.20645 0.0
H227 H 0.08818 0.05825 0.27954 0.0
H228 H 0.07758 0.02392 0.25331 0.0
H229 H 0.0537 0.05618 0.24999 0.0
H230 H 0.05639 0.0545 0.16976 0.0
H231 H 0.08039 0.02176 0.17283 0.0
H232 H 0.09247 0.0545 0.14421 0.0
H233 H 0.19068 0.09556 0.21321 0.0
H234 H 0.21269 0.04861 0.24167 0.0
H235 H 0.12535 0.00588 0.23592 0.0
C236 C 0.07441 0.11402 0.22088 0.0
C237 C 0.08221 0.14436 0.22765 0.0
C238 C 0.11186 0.1542 0.21934 0.0
C239 C 0.13431 0.1333 0.20869 0.0
C240 C 0.12644 0.1029 0.20528 0.0
C241 C 0.09684 0.09344 0.20976 0.0
C242 C 0.09473 0.05946 0.21191 0.0
C243 C 0.0776 0.04889 0.25102 0.0
C244 C 0.08014 0.04681 0.17231 0.0
C245 C 0.12781 0.05149 0.21371 0.0
C246 C 0.1459 0.07659 0.20805 0.0
C247 C 0.1769 0.07553 0.21593 0.0
C248 C 0.18932 0.04878 0.23199 0.0
C249 C 0.17059 0.02381 0.24037 0.0
C250 C 0.14004 0.02468 0.22877 0.0
H251 H 0.92962 0.21404 0.33349 0.0
H252 H 0.95451 0.19139 0.20766 0.0
H253 H 0.90171 0.17724 0.1926 0.0
H254 H 0.89102 0.15553 0.35341 0.0
H255 H 0.86134 0.1719 0.38421 0.0
H256 H 0.8968 0.19071 0.3804 0.0
H257 H 0.87035 0.23893 0.35342 0.0
H258 H 0.83442 0.22019 0.35749 0.0
H259 H 0.8458 0.2368 0.30893 0.0
H260 H 0.85224 0.15106 0.19826 0.0
H261 H 0.81262 0.11667 0.22367 0.0
H262 H 0.81885 0.1573 0.34552 0.0
C263 C 0.92342 0.20769 0.30216 0.0
C264 C 0.94575 0.20395 0.27163 0.0
C265 C 0.93745 0.19493 0.23117 0.0
C266 C 0.9075 0.18684 0.22244 0.0
C267 C 0.88618 0.18867 0.25427 0.0
C268 C 0.89371 0.19972 0.29315 0.0
C269 C 0.86876 0.19442 0.32422 0.0
C270 C 0.88018 0.17708 0.36273 0.0
C271 C 0.85395 0.22437 0.33673 0.0
C272 C 0.84755 0.1756 0.29822 0.0
C273 C 0.85723 0.17351 0.25748 0.0
C274 C 0.84386 0.15338 0.22962 0.0
C275 C 0.82128 0.1339 0.24429 0.0
C276 C 0.81279 0.13439 0.28659 0.0
C277 C 0.8248 0.15673 0.31295 0.0
H278 H 0.87081 0.00546 0.31108 0.0
H279 H 0.7894 0.96879 0.2567 0.0
H280 H 0.81725 0.92249 0.23705 0.0
H281 H 0.92511 0.96963 0.23484 0.0
H282 H 0.95247 0.96394 0.27545 0.0
H283 H 0.92761 0.99605 0.27723 0.0
H284 H 0.9099 0.97999 0.35066 0.0
H285 H 0.93445 0.9479 0.34902 0.0
H286 H 0.89475 0.94266 0.35822 0.0
H287 H 0.85182 0.87688 0.23583 0.0
H288 H 0.88958 0.83747 0.25147 0.0
H289 H 0.94834 0.90558 0.30446 0.0
C290 C 0.85908 0.98804 0.2939 0.0
C291 C 0.82807 0.99056 0.28534 0.0
C292 C 0.81331 0.96734 0.26309 0.0
C293 C 0.82895 0.94101 0.25184 0.0
C294 C 0.85942 0.93874 0.26221 0.0
C295 C 0.87441 0.962 0.28205 0.0
C296 C 0.9062 0.95319 0.29352 0.0
C297 C 0.9292 0.97181 0.26877 0.0
C298 C 0.9116 0.95609 0.34063 0.0
C299 C 0.90618 0.92067 0.27971 0.0
C300 C 0.87932 0.91277 0.26091 0.0
C301 C 0.87321 0.88301 0.24957 0.0
C302 C 0.89479 0.86075 0.25862 0.0
C303 C 0.92195 0.8684 0.27925 0.0
C304 C 0.92792 0.89893 0.2885 0.0
H305 H 0.02986 0.83162 0.22807 0.0
H306 H 0.07139 0.7558 0.28907 0.0
H307 H 0.12147 0.77422 0.26857 0.0
H308 H 0.09806 0.85092 0.14988 0.0
H309 H 0.09091 0.89031 0.15946 0.0
H310 H 0.05995 0.86406 0.15636 0.0
H311 H 0.04173 0.88218 0.22828 0.0
H312 H 0.07266 0.90765 0.23225 0.0
H313 H 0.06691 0.87973 0.27217 0.0
H314 H 0.16448 0.80842 0.26731 0.0
H315 H 0.19405 0.85354 0.28664 0.0
H316 H 0.12502 0.91077 0.23451 0.0
C317 C 0.04954 0.81781 0.23379 0.0
C318 C 0.04702 0.79202 0.25893 0.0
C319 C 0.07298 0.77508 0.26855 0.0
C320 C 0.10157 0.78562 0.25718 0.0
C321 C 0.10375 0.81335 0.2368 0.0
C322 C 0.07821 0.82906 0.22441 0.0
C323 C 0.0857 0.86159 0.21417 0.0
C324 C 0.08354 0.86703 0.16717 0.0
C325 C 0.0656 0.88403 0.23822 0.0
C326 C 0.11814 0.86281 0.22847 0.0
C327 C 0.12881 0.83442 0.23868 0.0
C328 C 0.15672 0.83056 0.25813 0.0
C329 C 0.17338 0.85625 0.26916 0.0
C330 C 0.16159 0.88527 0.26171 0.0
C331 C 0.13442 0.88856 0.23967 0.0
H332 H 0.06174 0.88316 0.76856 0.0
H333 H 0.12693 0.8111 0.75797 0.0
H334 H 0.16811 0.84746 0.77113 0.0
H335 H 0.0961 0.93168 0.71136 0.0
H336 H 0.08729 0.96554 0.73982 0.0
H337 H 0.06328 0.93334 0.74423 0.0
H338 H 0.07017 0.93331 0.82409 0.0
H339 H 0.09418 0.96598 0.81998 0.0
H340 H 0.10752 0.93257 0.84601 0.0
H341 H 0.20163 0.89283 0.76504 0.0
H342 H 0.22313 0.94168 0.7419 0.0
H343 H 0.13602 0.98375 0.75692 0.0
C344 C 0.08463 0.8749 0.77104 0.0
C345 C 0.09132 0.84454 0.76239 0.0
C346 C 0.12141 0.83431 0.76515 0.0
C347 C 0.14491 0.85484 0.7726 0.0
C348 C 0.13773 0.88524 0.77822 0.0
C349 C 0.10811 0.89506 0.77854 0.0
C350 C 0.10614 0.92906 0.7781 0.0
C351 C 0.08713 0.94053 0.74118 0.0
C352 C 0.09378 0.94092 0.81952 0.0
C353 C 0.13904 0.93686 0.77323 0.0
C354 C 0.15717 0.9115 0.77488 0.0
C355 C 0.18784 0.91294 0.76518 0.0
C356 C 0.19992 0.94069 0.7521 0.0
C357 C 0.18111 0.96618 0.74827 0.0
C358 C 0.15079 0.96448 0.76055 0.0
H359 H 0.12604 0.0704 0.77287 0.0
H360 H 0.1911 0.14058 0.74917 0.0
H361 H 0.15395 0.17906 0.77059 0.0
H362 H 0.07183 0.09802 0.72556 0.0
H363 H 0.0409 0.08813 0.75918 0.0
H364 H 0.07485 0.06676 0.76118 0.0
H365 H 0.07972 0.07743 0.83983 0.0
H366 H 0.0453 0.099 0.8381 0.0
H367 H 0.0792 0.11572 0.85857 0.0
H368 H 0.10713 0.20858 0.7688 0.0
H369 H 0.05751 0.22474 0.74235 0.0
H370 H 0.02149 0.13621 0.76721 0.0
C371 C 0.13279 0.09382 0.7749 0.0
C372 C 0.16118 0.10279 0.76012 0.0
C373 C 0.16954 0.13344 0.76142 0.0
C374 C 0.14851 0.15537 0.77359 0.0
C375 C 0.11954 0.14608 0.78492 0.0
C376 C 0.11195 0.11577 0.78675 0.0
C377 C 0.07827 0.11145 0.7907 0.0
C378 C 0.06579 0.0899 0.75712 0.0
C379 C 0.07015 0.10025 0.83441 0.0
C380 C 0.06777 0.14358 0.78447 0.0
C381 C 0.09182 0.16353 0.78369 0.0
C382 C 0.08807 0.19346 0.771 0.0
C383 C 0.05976 0.20258 0.75614 0.0
C384 C 0.0359 0.18166 0.75356 0.0
C385 C 0.03943 0.15259 0.77027 0.0
H386 H 0.88335 0.14447 0.63424 0.0
H387 H 0.90192 0.15787 0.76476 0.0
H388 H 0.86472 0.11818 0.78235 0.0
H389 H 0.79998 0.12064 0.64679 0.0
H390 H 0.80433 0.09394 0.60505 0.0
H391 H 0.82481 0.12906 0.60412 0.0
H392 H 0.87472 0.0994 0.59602 0.0
H393 H 0.85462 0.06442 0.59753 0.0
H394 H 0.88456 0.07131 0.63418 0.0
H395 H 0.83536 0.0691 0.78394 0.0
H396 H 0.81689 0.01734 0.76932 0.0
H397 H 0.81844 0.03662 0.63764 0.0
C398 C 0.87847 0.13996 0.66658 0.0
C399 C 0.89519 0.15413 0.69818 0.0
C400 C 0.88886 0.1475 0.74019 0.0
C401 C 0.8678 0.12496 0.75037 0.0
C402 C 0.85293 0.10994 0.71816 0.0
C403 C 0.85756 0.11777 0.67704 0.0
C404 C 0.84266 0.09571 0.64775 0.0
C405 C 0.81638 0.11073 0.62457 0.0
C406 C 0.86552 0.0819 0.61715 0.0
C407 C 0.8313 0.07269 0.67848 0.0
C408 C 0.83638 0.08163 0.71904 0.0
C409 C 0.83056 0.06229 0.75237 0.0
C410 C 0.82012 0.03295 0.74386 0.0
C411 C 0.81641 0.0232 0.70238 0.0
C412 C 0.82107 0.04369 0.66963 0.0
H413 H 0.83003 0.83878 0.70512 0.0
H414 H 0.8488 0.90383 0.80136 0.0
H415 H 0.88374 0.86778 0.83478 0.0
H416 H 0.84591 0.76611 0.77457 0.0
H417 H 0.86196 0.748 0.72968 0.0
H418 H 0.83015 0.77295 0.72387 0.0
H419 H 0.85995 0.80448 0.67013 0.0
H420 H 0.89131 0.77973 0.67557 0.0
H421 H 0.89625 0.81961 0.68438 0.0
H422 H 0.92759 0.83437 0.84216 0.0
H423 H 0.97494 0.81029 0.82023 0.0
H424 H 0.92787 0.76424 0.72176 0.0
C425 C 0.8403 0.84449 0.73458 0.0
C426 C 0.83673 0.87359 0.75114 0.0
C427 C 0.85093 0.88125 0.78887 0.0
C428 C 0.87072 0.86082 0.80804 0.0
C429 C 0.87546 0.8327 0.78944 0.0
C430 C 0.85994 0.82425 0.75394 0.0
C431 C 0.87302 0.7959 0.73506 0.0
C432 C 0.85148 0.76916 0.74119 0.0
C433 C 0.88063 0.80026 0.68864 0.0
C434 C 0.90093 0.79225 0.76164 0.0
C435 C 0.90115 0.81261 0.79434 0.0
C436 C 0.92717 0.81754 0.81785 0.0
C437 C 0.95406 0.8035 0.80551 0.0
C438 C 0.95463 0.78514 0.76975 0.0
C439 C 0.92741 0.77745 0.75002 0.0
H440 H 0.62315 0.64504 0.87202 0.0
H441 H 0.60137 0.65432 0.74172 0.0
H442 H 0.638 0.6139 0.72485 0.0
H443 H 0.70583 0.6215 0.85728 0.0
H444 H 0.70282 0.59606 0.90071 0.0
H445 H 0.68181 0.63086 0.90046 0.0
H446 H 0.63257 0.60072 0.91235 0.0
H447 H 0.6532 0.56601 0.91201 0.0
H448 H 0.62236 0.57132 0.8763 0.0
H449 H 0.66827 0.56516 0.72485 0.0
H450 H 0.68909 0.51466 0.74154 0.0
H451 H 0.68988 0.53799 0.87207 0.0
C452 C 0.6271 0.63939 0.83977 0.0
C453 C 0.60972 0.65269 0.80812 0.0
C454 C 0.61493 0.64462 0.76629 0.0
C455 C 0.63564 0.62166 0.75652 0.0
C456 C 0.65128 0.60767 0.78893 0.0
C457 C 0.64765 0.6168 0.82971 0.0
C458 C 0.66355 0.59592 0.85959 0.0
C459 C 0.69008 0.61205 0.88075 0.0
C460 C 0.6416 0.58271 0.89189 0.0
C461 C 0.67458 0.57214 0.82976 0.0
C462 C 0.66825 0.57962 0.78898 0.0
C463 C 0.67396 0.55948 0.75657 0.0
C464 C 0.68573 0.53085 0.76627 0.0
C465 C 0.69089 0.52256 0.80809 0.0
C466 C 0.6861 0.54384 0.83984 0.0
H467 H 0.43167 0.69472 0.8202 0.0
H468 H 0.48841 0.66644 0.71854 0.0
H469 H 0.44526 0.63938 0.68709 0.0
H470 H 0.40175 0.63063 0.83863 0.0
H471 H 0.36407 0.64233 0.8518 0.0
H472 H 0.39466 0.66821 0.85769 0.0
H473 H 0.36796 0.70682 0.80996 0.0
H474 H 0.33671 0.68114 0.80441 0.0
H475 H 0.35552 0.69553 0.759 0.0
H476 H 0.40196 0.60368 0.67923 0.0
H477 H 0.36278 0.56534 0.6943 0.0
H478 H 0.33438 0.61664 0.80133 0.0
C479 C 0.43436 0.68429 0.79003 0.0
C480 C 0.46296 0.68284 0.77136 0.0
C481 C 0.46637 0.66831 0.73266 0.0
C482 C 0.44197 0.65281 0.71475 0.0
C483 C 0.41438 0.65267 0.73568 0.0
C484 C 0.41031 0.66877 0.77209 0.0
C485 C 0.38081 0.66085 0.79286 0.0
C486 C 0.38566 0.64983 0.83783 0.0
C487 C 0.35895 0.68768 0.79144 0.0
C488 C 0.37023 0.63571 0.7648 0.0
C489 C 0.38924 0.6319 0.73113 0.0
C490 C 0.38632 0.60718 0.70449 0.0
C491 C 0.36409 0.5855 0.7132 0.0
C492 C 0.34545 0.58872 0.74837 0.0
C493 C 0.34793 0.61447 0.77354 0.0
H494 H 0.3354 0.46585 0.69678 0.0
H495 H 0.26479 0.42051 0.76411 0.0
H496 H 0.28109 0.37172 0.73502 0.0
H497 H 0.34387 0.40402 0.60628 0.0
H498 H 0.38401 0.40993 0.60778 0.0
H499 H 0.3587 0.44126 0.61544 0.0
H500 H 0.38511 0.45352 0.68505 0.0
H501 H 0.41019 0.42268 0.67752 0.0
H502 H 0.3879 0.42458 0.72425 0.0
H503 H 0.31382 0.32907 0.72119 0.0
H504 H 0.36015 0.29973 0.73216 0.0
H505 H 0.41239 0.37083 0.67581 0.0
C506 C 0.32234 0.4457 0.70282 0.0
C507 C 0.29852 0.44662 0.73143 0.0
C508 C 0.28257 0.42008 0.74111 0.0
C509 C 0.2917 0.39232 0.72455 0.0
C510 C 0.31695 0.39156 0.69865 0.0
C511 C 0.33185 0.41782 0.6873 0.0
C512 C 0.36241 0.41093 0.66874 0.0
C513 C 0.36222 0.41688 0.62177 0.0
C514 C 0.38783 0.42893 0.69027 0.0
C515 C 0.36435 0.37744 0.67749 0.0
C516 C 0.33712 0.36623 0.69182 0.0
C517 C 0.33491 0.33729 0.70876 0.0
C518 C 0.36137 0.32058 0.71471 0.0
C519 C 0.38956 0.33328 0.70465 0.0
C520 C 0.39078 0.36074 0.68282 0.0
H521 H 0.66086 0.34418 0.82246 0.0
H522 H 0.6692 0.39961 0.71263 0.0
H523 H 0.63113 0.36815 0.67705 0.0
H524 H 0.64015 0.26958 0.76316 0.0
H525 H 0.61499 0.2595 0.80477 0.0
H526 H 0.64946 0.2795 0.81588 0.0
H527 H 0.61903 0.32114 0.85366 0.0
H528 H 0.58491 0.30126 0.84301 0.0
H529 H 0.58886 0.33989 0.82641 0.0
H530 H 0.58242 0.34314 0.66357 0.0
H531 H 0.52969 0.32725 0.67383 0.0
H532 H 0.55418 0.28413 0.78901 0.0
C533 C 0.65553 0.34874 0.79027 0.0
C534 C 0.66771 0.37416 0.77019 0.0
C535 C 0.66025 0.37995 0.72831 0.0
C536 C 0.63873 0.3621 0.70787 0.0
C537 C 0.6257 0.33804 0.72938 0.0
C538 C 0.63448 0.33085 0.76942 0.0
C539 C 0.614 0.30734 0.78837 0.0
C540 C 0.63065 0.27719 0.79332 0.0
C541 C 0.60092 0.3181 0.83024 0.0
C542 C 0.59014 0.30519 0.75493 0.0
C543 C 0.59782 0.32216 0.72036 0.0
C544 C 0.57672 0.32863 0.6894 0.0
C545 C 0.5468 0.31935 0.69521 0.0
C546 C 0.53846 0.30361 0.73148 0.0
C547 C 0.56067 0.29481 0.76013 0.0
H548 H 0.71773 0.43936 0.16647 0.0
H549 H 0.69199 0.4819 0.28185 0.0
H550 H 0.67275 0.43304 0.30774 0.0
H551 H 0.65729 0.40217 0.14998 0.0
H552 H 0.67321 0.3681 0.1287 0.0
H553 H 0.69403 0.40248 0.12612 0.0
H554 H 0.7387 0.3769 0.16415 0.0
H555 H 0.71758 0.34221 0.16713 0.0
H556 H 0.73268 0.35898 0.21367 0.0
H557 H 0.64242 0.38623 0.31092 0.0
H558 H 0.60453 0.34834 0.29023 0.0
H559 H 0.65163 0.33397 0.17488 0.0
C560 C 0.70925 0.43791 0.19792 0.0
C561 C 0.7062 0.46411 0.22223 0.0
C562 C 0.69478 0.46187 0.26301 0.0
C563 C 0.68392 0.43416 0.27794 0.0
C564 C 0.68548 0.40887 0.25211 0.0
C565 C 0.69864 0.41042 0.2132 0.0
C566 C 0.69297 0.38202 0.18839 0.0
C567 C 0.67848 0.38915 0.14589 0.0
C568 C 0.72223 0.36396 0.18305 0.0
C569 C 0.67147 0.36583 0.21717 0.0
C570 C 0.6684 0.38093 0.25462 0.0
C571 C 0.64554 0.37347 0.28262 0.0
C572 C 0.62418 0.35171 0.27087 0.0
C573 C 0.62589 0.33792 0.23147 0.0
C574 C 0.65085 0.34352 0.2058 0.0
H575 H 0.54563 0.69268 0.15992 0.0
H576 H 0.52147 0.68001 0.28879 0.0
H577 H 0.57272 0.66021 0.30319 0.0
H578 H 0.57846 0.6275 0.14632 0.0
H579 H 0.60828 0.6395 0.11219 0.0
H580 H 0.5741 0.66085 0.11485 0.0
H581 H 0.6041 0.70904 0.13382 0.0
H582 H 0.63869 0.68788 0.13055 0.0
H583 H 0.62978 0.70847 0.17718 0.0
H584 H 0.62234 0.63158 0.29923 0.0
H585 H 0.66398 0.59776 0.27754 0.0
H586 H 0.65365 0.62834 0.15072 0.0
C587 C 0.55163 0.68696 0.19156 0.0
C588 C 0.52991 0.68793 0.22333 0.0
C589 C 0.5381 0.67985 0.26424 0.0
C590 C 0.56713 0.66854 0.27257 0.0
C591 C 0.5876 0.6661 0.23977 0.0
C592 C 0.58025 0.6757 0.20015 0.0
C593 C 0.6039 0.66675 0.16882 0.0
C594 C 0.59036 0.6475 0.13354 0.0
C595 C 0.62008 0.6947 0.15159 0.0
C596 C 0.62458 0.64851 0.19617 0.0
C597 C 0.61558 0.64913 0.23727 0.0
C598 C 0.62995 0.63154 0.26733 0.0
C599 C 0.65352 0.61239 0.2548 0.0
C600 C 0.66179 0.61052 0.21248 0.0
C601 C 0.64772 0.62947 0.18328 0.0
H602 H 0.34811 0.66351 0.20288 0.0
H603 H 0.40586 0.63844 0.30505 0.0
H604 H 0.36881 0.59982 0.32685 0.0
H605 H 0.27125 0.6402 0.25575 0.0
H606 H 0.25797 0.62709 0.20604 0.0
H607 H 0.28205 0.65979 0.20908 0.0
H608 H 0.31919 0.63479 0.15756 0.0
H609 H 0.29544 0.60244 0.15438 0.0
H610 H 0.33432 0.59804 0.16948 0.0
H611 H 0.33571 0.55503 0.32299 0.0
H612 H 0.31287 0.50941 0.29236 0.0
H613 H 0.27556 0.563 0.19306 0.0
C614 C 0.3519 0.65095 0.23122 0.0
C615 C 0.37929 0.65392 0.25273 0.0
C616 C 0.38453 0.63676 0.28887 0.0
C617 C 0.36354 0.61485 0.3014 0.0
C618 C 0.33736 0.61091 0.27778 0.0
C619 C 0.33121 0.62909 0.24382 0.0
C620 C 0.30532 0.61684 0.21837 0.0
C621 C 0.2775 0.63719 0.22259 0.0
C622 C 0.31415 0.61275 0.17233 0.0
C623 C 0.30035 0.58701 0.24003 0.0
C624 C 0.31788 0.58457 0.27552 0.0
C625 C 0.32103 0.55708 0.29631 0.0
C626 C 0.3078 0.53121 0.27891 0.0
C627 C 0.29214 0.53312 0.24085 0.0
C628 C 0.28669 0.5615 0.22291 0.0
H629 H 0.37879 0.43125 0.25627 0.0
H630 H 0.31872 0.35941 0.21934 0.0
H631 H 0.35692 0.32171 0.24021 0.0
H632 H 0.43876 0.40771 0.21467 0.0
H633 H 0.46584 0.41766 0.25413 0.0
H634 H 0.43085 0.43735 0.25146 0.0
H635 H 0.41966 0.42335 0.32795 0.0
H636 H 0.45498 0.40337 0.33082 0.0
H637 H 0.42038 0.38441 0.34391 0.0
H638 H 0.40567 0.29436 0.24261 0.0
H639 H 0.45835 0.28129 0.22573 0.0
H640 H 0.48692 0.3701 0.26434 0.0
C641 C 0.37331 0.40749 0.25465 0.0
C642 C 0.34612 0.39801 0.23641 0.0
C643 C 0.33942 0.36694 0.23385 0.0
C644 C 0.36097 0.34543 0.24578 0.0
C645 C 0.38862 0.35548 0.26132 0.0
C646 C 0.39443 0.38592 0.26693 0.0
C647 C 0.4272 0.39149 0.27715 0.0
C648 C 0.44146 0.41487 0.24754 0.0
C649 C 0.43075 0.40122 0.32267 0.0
C650 C 0.43974 0.36017 0.27056 0.0
C651 C 0.41706 0.33931 0.26353 0.0
C652 C 0.42355 0.31015 0.24964 0.0
C653 C 0.45357 0.3028 0.24024 0.0
C654 C 0.47643 0.32475 0.24416 0.0
C655 C 0.46967 0.35291 0.26201 0.0
H656 H 0.11351 0.29096 0.29112 0.0
H657 H 0.07944 0.28011 0.16575 0.0
H658 H 0.11508 0.31935 0.14134 0.0
H659 H 0.12318 0.3727 0.28516 0.0
H660 H 0.15658 0.37227 0.31698 0.0
H661 H 0.12783 0.34411 0.3244 0.0
H662 H 0.16749 0.30195 0.31376 0.0
H663 H 0.19632 0.32992 0.30619 0.0
H664 H 0.18981 0.3016 0.26706 0.0
H665 H 0.15711 0.35572 0.13032 0.0
H666 H 0.20034 0.39043 0.13322 0.0
H667 H 0.20451 0.38037 0.26705 0.0
C668 C 0.11355 0.29687 0.2585 0.0
C669 C 0.09418 0.28242 0.23001 0.0
C670 C 0.09432 0.29099 0.18781 0.0
C671 C 0.11439 0.31317 0.17381 0.0
C672 C 0.13345 0.32678 0.20274 0.0
C673 C 0.13287 0.3193 0.24429 0.0
C674 C 0.15562 0.33728 0.26905 0.0
C675 C 0.13985 0.35781 0.30077 0.0
C676 C 0.17867 0.31643 0.29024 0.0
C677 C 0.1699 0.35544 0.23465 0.0
C678 C 0.15676 0.34895 0.19668 0.0
C679 C 0.16728 0.36132 0.15987 0.0
C680 C 0.19194 0.3808 0.16186 0.0
C681 C 0.20555 0.38795 0.20042 0.0
C682 C 0.19418 0.37546 0.23735 0.0
H683 H 0.66566 0.10056 0.29504 0.0
H684 H 0.7117 0.08669 0.178 0.0
H685 H 0.67643 0.12222 0.144 0.0
H686 H 0.58757 0.11273 0.25006 0.0
H687 H 0.57946 0.14088 0.28882 0.0
H688 H 0.60379 0.10959 0.30119 0.0
H689 H 0.64529 0.14713 0.32412 0.0
H690 H 0.62149 0.17847 0.31115 0.0
H691 H 0.6583 0.17532 0.28802 0.0
H692 H 0.64357 0.16626 0.12698 0.0
H693 H 0.61296 0.21261 0.12626 0.0
H694 H 0.58783 0.19723 0.25461 0.0
C695 C 0.66768 0.10422 0.26192 0.0
C696 C 0.69129 0.09101 0.239 0.0
C697 C 0.69351 0.09643 0.1959 0.0
C698 C 0.67361 0.11657 0.17643 0.0
C699 C 0.65145 0.13047 0.2005 0.0
C700 C 0.64799 0.12403 0.24217 0.0
C701 C 0.62468 0.14419 0.26225 0.0
C702 C 0.59724 0.12574 0.2764 0.0
C703 C 0.63828 0.16234 0.29849 0.0
C704 C 0.61685 0.1643 0.226 0.0
C705 C 0.63216 0.15573 0.19051 0.0
C706 C 0.6309 0.17271 0.15424 0.0
C707 C 0.61367 0.19914 0.15429 0.0
C708 C 0.59801 0.20838 0.19041 0.0
C709 C 0.59923 0.19043 0.22643 0.0
H710 H 0.81642 0.61882 0.19663 0.0
H711 H 0.77265 0.60955 0.31621 0.0
H712 H 0.80298 0.65229 0.34325 0.0
H713 H 0.89078 0.63689 0.23799 0.0
H714 H 0.89917 0.66252 0.19617 0.0
H715 H 0.87448 0.63095 0.18739 0.0
H716 H 0.83328 0.66753 0.16068 0.0
H717 H 0.8576 0.69929 0.17014 0.0
H718 H 0.82077 0.69795 0.19352 0.0
H719 H 0.835 0.69817 0.35467 0.0
H720 H 0.87224 0.73918 0.35443 0.0
H721 H 0.8971 0.7165 0.22786 0.0
C722 C 0.81343 0.62565 0.22865 0.0
C723 C 0.79219 0.61127 0.25446 0.0
C724 C 0.78898 0.62039 0.29621 0.0
C725 C 0.8059 0.64468 0.3116 0.0
C726 C 0.8261 0.65897 0.28487 0.0
C727 C 0.83043 0.64935 0.24458 0.0
C728 C 0.85401 0.66798 0.22245 0.0
C729 C 0.88122 0.64842 0.2103 0.0
C730 C 0.8406 0.68414 0.18446 0.0
C731 C 0.862 0.69007 0.25639 0.0
C732 C 0.84541 0.68465 0.29195 0.0
C733 C 0.84833 0.70244 0.32719 0.0
C734 C 0.86943 0.72583 0.32656 0.0
C735 C 0.88762 0.73099 0.29107 0.0
C736 C 0.88349 0.71313 0.25534 0.0
H737 H 0.28653 0.88934 0.22386 0.0
H738 H 0.3137 0.92427 0.34369 0.0
H739 H 0.35582 0.88793 0.3462 0.0
H740 H 0.29592 0.81518 0.24945 0.0
H741 H 0.30968 0.80261 0.19977 0.0
H742 H 0.28567 0.83517 0.2028 0.0
H743 H 0.32577 0.86765 0.16514 0.0
H744 H 0.34968 0.83497 0.16105 0.0
H745 H 0.36372 0.86889 0.18503 0.0
H746 H 0.39119 0.84382 0.33938 0.0
H747 H 0.41816 0.79647 0.32179 0.0
H748 H 0.36501 0.78925 0.20902 0.0
C749 C 0.30222 0.8901 0.24961 0.0
C750 C 0.29754 0.90976 0.28315 0.0
C751 C 0.31748 0.90946 0.31744 0.0
C752 C 0.34135 0.88894 0.31918 0.0
C753 C 0.3447 0.86876 0.28648 0.0
C754 C 0.32584 0.86933 0.25216 0.0
C755 C 0.33209 0.84316 0.22351 0.0
C756 C 0.30418 0.82284 0.21863 0.0
C757 C 0.3435 0.85434 0.18118 0.0
C758 C 0.35674 0.82746 0.2476 0.0
C759 C 0.36409 0.84268 0.28353 0.0
C760 C 0.38584 0.8318 0.31109 0.0
C761 C 0.40084 0.80485 0.30112 0.0
C762 C 0.39354 0.78912 0.26431 0.0
C763 C 0.37106 0.80061 0.23759 0.0
H764 H 0.20571 0.61051 0.80465 0.0
H765 H 0.21004 0.58089 0.67633 0.0
H766 H 0.17067 0.61785 0.6578 0.0
H767 H 0.12502 0.62115 0.80733 0.0
H768 H 0.1269 0.6539 0.84036 0.0
H769 H 0.1556 0.62529 0.84373 0.0
H770 H 0.19675 0.66554 0.83024 0.0
H771 H 0.16821 0.69429 0.82695 0.0
H772 H 0.19424 0.689 0.78468 0.0
H773 H 0.13325 0.65864 0.65265 0.0
H774 H 0.09754 0.7005 0.66076 0.0
H775 H 0.11475 0.70247 0.79339 0.0
C776 C 0.19845 0.61191 0.77261 0.0
C777 C 0.21098 0.59309 0.74173 0.0
C778 C 0.20071 0.59521 0.70031 0.0
C779 C 0.1784 0.61607 0.68956 0.0
C780 C 0.16647 0.63423 0.72076 0.0
C781 C 0.17592 0.63229 0.76147 0.0
C782 C 0.15911 0.65435 0.78897 0.0
C783 C 0.14056 0.63766 0.82205 0.0
C784 C 0.18088 0.67715 0.80887 0.0
C785 C 0.13897 0.6693 0.75714 0.0
C786 C 0.14381 0.65732 0.71804 0.0
C787 C 0.12908 0.66808 0.68307 0.0
C788 C 0.10898 0.69193 0.68805 0.0
C789 C 0.10355 0.70459 0.72772 0.0
C790 C 0.11838 0.69291 0.76288 0.0
H791 H 0.4006 0.19648 0.71108 0.0
H792 H 0.39828 0.20943 0.84436 0.0
H793 H 0.36565 0.16466 0.85179 0.0
H794 H 0.32464 0.17989 0.70183 0.0
H795 H 0.32872 0.15244 0.66096 0.0
H796 H 0.35618 0.18192 0.66675 0.0
H797 H 0.39862 0.14194 0.67206 0.0
H798 H 0.37118 0.11227 0.66631 0.0
H799 H 0.39604 0.11257 0.71056 0.0
H800 H 0.33027 0.12102 0.84438 0.0
H801 H 0.29066 0.08517 0.8217 0.0
H802 H 0.31338 0.10337 0.69326 0.0
C803 C 0.39377 0.18933 0.7418 0.0
C804 C 0.40202 0.20598 0.77718 0.0
C805 C 0.39208 0.19674 0.81691 0.0
C806 C 0.3738 0.17126 0.82148 0.0
C807 C 0.36546 0.15552 0.78592 0.0
C808 C 0.37491 0.16433 0.74679 0.0
C809 C 0.35967 0.14597 0.7133 0.0
C810 C 0.3412 0.16627 0.68401 0.0
C811 C 0.38276 0.12706 0.68914 0.0
C812 C 0.33955 0.12621 0.73964 0.0
C813 C 0.3438 0.13142 0.78149 0.0
C814 C 0.32687 0.11654 0.8117 0.0
C815 C 0.30451 0.09626 0.79865 0.0
C816 C 0.29903 0.09181 0.75589 0.0
C817 C 0.31714 0.10653 0.72621 0.0
H818 H 0.90445 0.29054 0.76857 0.0
H819 H 0.90427 0.29643 0.63415 0.0
H820 H 0.8693 0.33952 0.63749 0.0
H821 H 0.82751 0.30342 0.78046 0.0
H822 H 0.83096 0.325 0.82762 0.0
H823 H 0.85899 0.2973 0.81481 0.0
H824 H 0.90068 0.3381 0.82031 0.0
H825 H 0.87267 0.36599 0.83308 0.0
H826 H 0.89766 0.37206 0.78983 0.0
H827 H 0.83144 0.37982 0.65526 0.0
H828 H 0.79134 0.41152 0.68669 0.0
H829 H 0.81593 0.37771 0.80844 0.0
C830 C 0.89742 0.30125 0.73995 0.0
C831 C 0.907 0.29029 0.70121 0.0
C832 C 0.89699 0.30448 0.66426 0.0
C833 C 0.87735 0.32911 0.66578 0.0
C834 C 0.86791 0.3392 0.70448 0.0
C835 C 0.87753 0.32564 0.74089 0.0
C836 C 0.86194 0.33892 0.77822 0.0
C837 C 0.84377 0.31472 0.80162 0.0
C838 C 0.8846 0.35471 0.80705 0.0
C839 C 0.84156 0.36142 0.75701 0.0
C840 C 0.84562 0.36176 0.71457 0.0
C841 C 0.82819 0.37997 0.68854 0.0
C842 C 0.80556 0.39786 0.70651 0.0
C843 C 0.80053 0.39677 0.74976 0.0
C844 C 0.81919 0.37882 0.77516 0.0
H845 H 0.69922 0.86922 0.69098 0.0
H846 H 0.70243 0.92026 0.80587 0.0
H847 H 0.65899 0.89084 0.83226 0.0
H848 H 0.61646 0.86101 0.68596 0.0
H849 H 0.61913 0.82343 0.66497 0.0
H850 H 0.648 0.8508 0.65371 0.0
H851 H 0.68855 0.8142 0.68217 0.0
H852 H 0.65991 0.7868 0.69363 0.0
H853 H 0.68486 0.79959 0.73413 0.0
H854 H 0.62028 0.85194 0.84878 0.0
H855 H 0.58758 0.80727 0.85443 0.0
H856 H 0.60838 0.78269 0.72738 0.0
C857 C 0.69059 0.87455 0.72154 0.0
C858 C 0.7042 0.89687 0.74663 0.0
C859 C 0.69224 0.90323 0.78629 0.0
C860 C 0.66759 0.88672 0.80136 0.0
C861 C 0.65509 0.86444 0.776 0.0
C862 C 0.66601 0.85857 0.73677 0.0
C863 C 0.64995 0.83224 0.71663 0.0
C864 C 0.63233 0.84249 0.67803 0.0
C865 C 0.67214 0.80671 0.70605 0.0
C866 C 0.62896 0.82331 0.75136 0.0
C867 C 0.63215 0.84238 0.78516 0.0
C868 C 0.61719 0.83722 0.82232 0.0
C869 C 0.59887 0.81171 0.82527 0.0
C870 C 0.59555 0.79176 0.79122 0.0
C871 C 0.61022 0.79795 0.7535 0.0
H872 H 0.02427 0.19385 0.40282 0.0
H873 H 0.03111 0.2901 0.38089 0.0
H874 H 0.02968 0.29929 0.4566 0.0
H875 H 0.97099 0.19951 0.48417 0.0
H876 H 0.98609 0.16807 0.51288 0.0
H877 H 0.99028 0.1695 0.45742 0.0
H878 H 0.04812 0.16397 0.46613 0.0
H879 H 0.04408 0.16322 0.52177 0.0
H880 H 0.0684 0.19068 0.49777 0.0
H881 H 0.02667 0.29787 0.53438 0.0
H882 H 0.01318 0.28685 0.60717 0.0
H883 H 0.00646 0.1917 0.5774 0.0
C884 C 0.02559 0.21684 0.41403 0.0
C885 C 0.02797 0.24128 0.38633 0.0
C886 C 0.02916 0.2711 0.40183 0.0
C887 C 0.02874 0.2765 0.4447 0.0
C888 C 0.02691 0.25181 0.47133 0.0
C889 C 0.02477 0.22262 0.45655 0.0
C890 C 0.02015 0.20028 0.49135 0.0
C891 C 0.99009 0.18336 0.48615 0.0
C892 C 0.04678 0.17824 0.49442 0.0
C893 C 0.01945 0.22151 0.528 0.0
C894 C 0.02414 0.25106 0.51598 0.0
C895 C 0.02313 0.27481 0.54424 0.0
C896 C 0.01566 0.26833 0.58554 0.0
C897 C 0.0088 0.23844 0.59767 0.0
C898 C 0.01183 0.21471 0.5689 0.0
H899 H 0.75738 0.00283 0.59914 0.0
H900 H 0.76856 0.90779 0.57218 0.0
H901 H 0.76071 0.91792 0.49731 0.0
H902 H 0.70162 0.0203 0.52228 0.0
H903 H 0.71788 0.05623 0.50885 0.0
H904 H 0.72273 0.04129 0.56041 0.0
H905 H 0.78071 0.04562 0.55319 0.0
H906 H 0.77604 0.06093 0.50183 0.0
H907 H 0.79918 0.02803 0.50967 0.0
H908 H 0.74933 0.93843 0.42595 0.0
H909 H 0.74361 0.96885 0.36179 0.0
H910 H 0.7451 0.05067 0.43539 0.0
C911 C 0.75805 0.98426 0.57731 0.0
C912 C 0.76318 0.95457 0.59085 0.0
C913 C 0.76461 0.9307 0.56186 0.0
C914 C 0.75999 0.93621 0.51952 0.0
C915 C 0.75469 0.96578 0.50695 0.0
C916 C 0.75442 0.9895 0.53487 0.0
C917 C 0.75056 0.0194 0.51307 0.0
C918 C 0.72146 0.03522 0.52699 0.0
C919 C 0.77827 0.03968 0.51983 0.0
C920 C 0.74835 0.00876 0.46859 0.0
C921 C 0.7502 0.97773 0.46571 0.0
C922 C 0.74805 0.96276 0.42773 0.0
C923 C 0.74459 0.98009 0.39161 0.0
C924 C 0.74398 0.01189 0.39404 0.0
C925 C 0.74562 0.02631 0.43294 0.0
H926 H 0.01338 0.79941 0.60191 0.0
H927 H 0.00337 0.70369 0.62636 0.0
H928 H 0.99463 0.69458 0.55163 0.0
H929 H 0.95623 0.80408 0.52117 0.0
H930 H 0.97745 0.83129 0.49167 0.0
H931 H 0.98134 0.82982 0.54725 0.0
H932 H 0.03906 0.82335 0.53861 0.0
H933 H 0.03523 0.82399 0.48298 0.0
H934 H 0.05337 0.7925 0.508 0.0
H935 H 0.9901 0.6958 0.47353 0.0
H936 H 0.98269 0.70826 0.39937 0.0
H937 H 0.99591 0.80306 0.42735 0.0
C938 C 0.00885 0.77659 0.59167 0.0
C939 C 0.00908 0.75225 0.61975 0.0
C940 C 0.00313 0.72269 0.60525 0.0
C941 C -0.00159 0.71726 0.56288 0.0
C942 C -0.00044 0.74167 0.53574 0.0
C943 C 0.00407 0.7708 0.54967 0.0
C944 C 0.00417 0.79314 0.51431 0.0
C945 C 0.97825 0.81591 0.51887 0.0
C946 C 0.03478 0.80918 0.51079 0.0
C947 C -0.00098 0.77203 0.47825 0.0
C948 C 0.99672 0.74239 0.49108 0.0
C949 C 0.99174 0.71894 0.46311 0.0
C950 C 0.98782 0.72618 0.42108 0.0
C951 C 0.9887 0.7566 0.40784 0.0
C952 C 0.99516 0.7796 0.43666 0.0
H953 H 0.19656 0.01853 0.59428 0.0
H954 H 0.29315 0.01343 0.61345 0.0
H955 H 0.30039 0.00387 0.53855 0.0
H956 H 0.19347 0.95787 0.51719 0.0
H957 H 0.16403 0.97588 0.48769 0.0
H958 H 0.16665 0.98203 0.54283 0.0
H959 H 0.16862 0.03969 0.53002 0.0
H960 H 0.16661 0.03369 0.47479 0.0
H961 H 0.19733 0.05503 0.4966 0.0
H962 H 0.29744 -1e-05 0.46157 0.0
H963 H 0.28435 0.99138 0.38824 0.0
H964 H 0.1893 0.99411 0.4193 0.0
C965 C 0.21917 0.01501 0.58267 0.0
C966 C 0.24436 0.01682 0.60932 0.0
C967 C 0.27361 0.01194 0.5934 0.0
C968 C 0.27794 0.00678 0.55094 0.0
C969 C 0.2527 0.006 0.52524 0.0
C970 C 0.22384 0.00912 0.54056 0.0
C971 C 0.20057 0.00619 0.50636 0.0
C972 C 0.17997 0.97886 0.51397 0.0
C973 C 0.1822 0.03539 0.50168 0.0
C974 C 0.22093 0.00123 0.46934 0.0
C975 C 0.25092 0.00186 0.48091 0.0
C976 C 0.27406 -0.00092 0.45214 0.0
C977 C 0.26637 0.99453 0.41052 0.0
C978 C 0.23581 0.99217 0.39829 0.0
C979 C 0.21281 0.99587 0.42799 0.0
H980 H 0.49741 0.69599 0.92501 0.0
H981 H 0.49842 0.79173 0.89782 0.0
H982 H 0.48013 0.8025 0.96884 0.0
H983 H 0.42932 0.69744 0.99273 0.0
H984 H 0.44477 0.66888 0.02639 0.0
H985 H 0.45421 0.66909 0.97201 0.0
H986 H 0.51088 0.6702 0.99144 0.0
H987 H 0.50168 0.67079 0.04579 0.0
H988 H 0.52495 0.70009 0.02407 0.0
H989 H 0.47027 0.80275 0.0457 0.0
H990 H 0.46077 0.79223 0.12 0.0
H991 H 0.46336 0.6962 0.09492 0.0
C992 C 0.49294 0.71915 0.93367 0.0
C993 C 0.49923 0.74308 0.90632 0.0
C994 C 0.49336 0.77314 0.91847 0.0
C995 C 0.48319 0.77944 0.95871 0.0
C996 C 0.47849 0.75533 0.98569 0.0
C997 C 0.48238 0.72574 0.97331 0.0
C998 C 0.47695 0.70396 0.00855 0.0
C999 C 0.44968 0.68365 -0.00063 0.0
C1000 C 0.5053 0.68517 0.018 0.0
C1001 C 0.47032 0.72594 0.04309 0.0
C1002 C 0.47152 0.75547 0.02943 0.0
C1003 C 0.46856 0.77973 0.05658 0.0
C1004 C 0.46351 0.77357 0.09865 0.0
C1005 C 0.46114 0.74345 0.11272 0.0
C1006 C 0.46466 0.71942 0.08465 0.0
H1007 H 0.29883 0.49729 0.89359 0.0
H1008 H 0.20292 0.50771 0.87224 0.0
H1009 H 0.19341 0.50004 0.94711 0.0
H1010 H 0.29144 0.43821 0.97307 0.0
H1011 H 0.32322 0.45207 0.00222 0.0
H1012 H 0.3219 0.45708 0.94677 0.0
H1013 H 0.3292 0.5146 0.95692 0.0
H1014 H 0.3298 0.50986 0.01241 0.0
H1015 H 0.30306 0.53524 0.98892 0.0
H1016 H 0.19497 0.49598 0.02468 0.0
H1017 H 0.20627 0.48671 0.09853 0.0
H1018 H 0.30107 0.47656 0.06875 0.0
C1019 C 0.2758 0.49741 0.90464 0.0
C1020 C 0.25157 0.50309 0.87739 0.0
C1021 C 0.22173 0.5031 0.89271 0.0
C1022 C 0.21616 0.49906 0.93516 0.0
C1023 C 0.24067 0.49457 0.96148 0.0
C1024 C 0.26982 0.49293 0.94671 0.0
C1025 C 0.2921 0.48731 0.98144 0.0
C1026 C 0.3081 0.45685 0.97552 0.0
C1027 C 0.31487 0.51331 0.98512 0.0
C1028 C 0.27096 0.48659 0.01819 0.0
C1029 C 0.24145 0.49115 0.00604 0.0
C1030 C 0.21794 0.49203 0.03454 0.0
C1031 C 0.22464 0.48699 0.07644 0.0
C1032 C 0.25453 0.48079 0.08925 0.0
C1033 C 0.27801 0.48121 0.05981 0.0
H1034 H 0.5122 0.24724 0.06913 0.0
H1035 H 0.5176 0.34335 0.09259 0.0
H1036 H 0.5019 0.35359 0.02025 0.0
H1037 H 0.54495 0.25029 0.9708 0.0
H1038 H 0.52212 0.22093 0.94826 0.0
H1039 H 0.52959 0.22093 0.00317 0.0
H1040 H 0.47233 0.22035 0.01879 0.0
H1041 H 0.46467 0.2197 0.96389 0.0
H1042 H 0.4484 0.24871 0.99598 0.0
H1043 H 0.48804 0.35313 0.94457 0.0
H1044 H 0.47648 0.34189 0.87096 0.0
H1045 H 0.48436 0.24618 0.89652 0.0
C1046 C 0.50918 0.2704 0.05931 0.0
C1047 C 0.51561 0.29456 0.08626 0.0
C1048 C 0.51247 0.32461 0.07221 0.0
C1049 C 0.50363 0.33061 0.03129 0.0
C1050 C 0.49847 0.30626 0.00493 0.0
C1051 C 0.50105 0.27676 0.01838 0.0
C1052 C 0.49656 0.2547 0.98315 0.0
C1053 C 0.525 0.2356 0.97594 0.0
C1054 C 0.46883 0.23469 0.99092 0.0
C1055 C 0.49126 0.2764 0.94775 0.0
C1056 C 0.49212 0.30603 0.96096 0.0
C1057 C 0.48733 0.33002 0.93382 0.0
C1058 C 0.48093 0.32347 0.89216 0.0
C1059 C 0.47988 0.29325 0.87822 0.0
C1060 C 0.48551 0.26952 0.90627 0.0
H1061 H 0.75081 0.50561 0.90466 0.0
H1062 H 0.76452 0.41081 0.93059 0.0
H1063 H 0.77487 0.42273 0.00438 0.0
H1064 H 0.80553 0.53669 0.97936 0.0
H1065 H 0.78104 0.56731 0.99393 0.0
H1066 H 0.77915 0.55185 0.94226 0.0
H1067 H 0.72208 0.5417 0.9515 0.0
H1068 H 0.72372 0.55723 0.003 0.0
H1069 H 0.7094 0.51964 0.99511 0.0
H1070 H 0.78174 0.4449 0.07558 0.0
H1071 H 0.77783 0.47477 0.1405 0.0
H1072 H 0.75493 0.55402 0.06846 0.0
C1073 C 0.75664 0.48759 0.92591 0.0
C1074 C 0.75751 0.45747 0.91251 0.0
C1075 C 0.76412 0.43408 0.94083 0.0
C1076 C 0.77018 0.44065 0.98252 0.0
C1077 C 0.76901 0.47067 0.99515 0.0
C1078 C 0.76196 0.49371 0.9678 0.0
C1079 C 0.75856 0.52348 0.99008 0.0
C1080 C 0.78251 0.54617 0.97554 0.0
C1081 C 0.72654 0.53624 0.9846 0.0
C1082 C 0.76429 0.51348 0.03425 0.0
C1083 C 0.77108 0.48312 0.03648 0.0
C1084 C 0.77665 0.46874 0.07426 0.0
C1085 C 0.77457 0.48579 0.11083 0.0
C1086 C 0.76628 0.51649 0.10898 0.0
C1087 C 0.76148 0.53052 0.07034 0.0
loop_
_geom_bond_atom_site_label_1
_geom_bond_atom_site_label_2
_geom_bond_distance
_geom_bond_site_symmetry_2
_ccdc_geom_bond_type
Co0 O1 2.216 . S
Co0 O2 2.091 . S
Co0 O4 2.004 1_455 S
Co0 O10 2.021 . S
Co0 O12 2.137 . S
Co0 O13 2.244 . S
O1 Co0 2.216 . S
O1 C8 1.247 . S
O2 Co0 2.091 . S
O2 C8 1.261 . S
C3 O12 1.247 . S
C3 O13 1.272 . S
O4 Co0 2.004 1_655 S
O4 C9 1.259 . S
Co5 O6 2.061 1_455 S
Co5 O11 2.052 . S
Co5 O13 2.135 . S
O6 Co5 2.061 1_655 S
O6 C9 1.235 . S
C7 O10 1.238 . S
C7 O11 1.241 . S
C8 O1 1.247 . S
C8 O2 1.261 . S
C9 O4 1.259 . S
C9 O6 1.235 . S
O10 Co0 2.021 . S
O10 C7 1.238 . S
O11 Co5 2.052 . S
O11 C7 1.241 . S
O12 Co0 2.137 . S
O12 C3 1.247 . S
O13 Co0 2.244 . S
O13 C3 1.272 . S
O13 Co5 2.135 . S
Co14 O15 2.216 . S
Co14 O16 2.091 . S
Co14 O18 2.004 1_545 S
Co14 O24 2.021 . S
Co14 O26 2.137 . S
Co14 O27 2.244 . S
O15 Co14 2.216 . S
O15 C22 1.247 . S
O16 Co14 2.091 . S
O16 C22 1.261 . S
C17 O26 1.247 . S
C17 O27 1.272 . S
O18 Co14 2.004 1_565 S
O18 C23 1.259 . S
Co19 O20 2.061 1_545 S
Co19 O25 2.052 . S
Co19 O27 2.135 . S
O20 Co19 2.061 1_565 S
O20 C23 1.235 . S
C21 O24 1.238 . S
C21 O25 1.241 . S
C22 O15 1.247 . S
C22 O16 1.261 . S
C23 O18 1.259 . S
C23 O20 1.235 . S
O24 Co14 2.021 . S
O24 C21 1.238 . S
O25 Co19 2.052 . S
O25 C21 1.241 . S
O26 Co14 2.137 . S
O26 C17 1.247 . S
O27 Co14 2.244 . S
O27 C17 1.272 . S
O27 Co19 2.135 . S
Co28 O29 2.216 . S
Co28 O30 2.091 . S
Co28 O32 2.004 1_655 S
Co28 O38 2.021 . S
Co28 O40 2.137 . S
Co28 O41 2.244 . S
O29 Co28 2.216 . S
O29 C36 1.247 . S
O30 Co28 2.091 . S
O30 C36 1.261 . S
C31 O40 1.247 . S
C31 O41 1.272 . S
O32 Co28 2.004 1_455 S
O32 C37 1.259 . S
Co33 O34 2.061 1_655 S
Co33 O39 2.052 . S
Co33 O41 2.135 . S
O34 Co33 2.061 1_455 S
O34 C37 1.235 . S
C35 O38 1.238 . S
C35 O39 1.241 . S
C36 O29 1.247 . S
C36 O30 1.261 . S
C37 O32 1.259 . S
C37 O34 1.235 . S
O38 Co28 2.021 . S
O38 C35 1.238 . S
O39 Co33 2.052 . S
O39 C35 1.241 . S
O40 Co28 2.137 . S
O40 C31 1.247 . S
O41 Co28 2.244 . S
O41 C31 1.272 . S
O41 Co33 2.135 . S
Co42 O43 2.216 . S
Co42 O44 2.091 . S
Co42 O46 2.004 1_565 S
Co42 O52 2.021 . S
Co42 O54 2.137 . S
Co42 O55 2.244 . S
O43 Co42 2.216 . S
O43 C50 1.247 . S
O44 Co42 2.091 . S
O44 C50 1.261 . S
C45 O54 1.247 . S
C45 O55 1.272 . S
O46 Co42 2.004 1_545 S
O46 C51 1.259 . S
Co47 O48 2.061 1_565 S
Co47 O53 2.052 . S
Co47 O55 2.135 . S
O48 Co47 2.061 1_545 S
O48 C51 1.235 . S
C49 O52 1.238 . S
C49 O53 1.241 . S
C50 O43 1.247 . S
C50 O44 1.261 . S
C51 O46 1.259 . S
C51 O48 1.235 . S
O52 Co42 2.021 . S
O52 C49 1.238 . S
O53 Co47 2.052 . S
O53 C49 1.241 . S
O54 Co42 2.137 . S
O54 C45 1.247 . S
O55 Co42 2.244 . S
O55 C45 1.272 . S
O55 Co47 2.135 . S
Co56 O57 2.216 . S
Co56 O58 2.091 . S
Co56 O60 2.004 1_455 S
Co56 O66 2.021 . S
Co56 O68 2.137 . S
Co56 O69 2.244 . S
O57 Co56 2.216 . S
O57 C64 1.247 . S
O58 Co56 2.091 . S
O58 C64 1.261 . S
C59 O68 1.247 . S
C59 O69 1.272 . S
O60 Co56 2.004 1_655 S
O60 C65 1.259 . S
Co61 O62 2.061 1_455 S
Co61 O67 2.052 . S
Co61 O69 2.135 . S
O62 Co61 2.061 1_655 S
O62 C65 1.235 . S
C63 O66 1.238 . S
C63 O67 1.241 . S
C64 O57 1.247 . S
C64 O58 1.261 . S
C65 O60 1.259 . S
C65 O62 1.235 . S
O66 Co56 2.021 . S
O66 C63 1.238 . S
O67 Co61 2.052 . S
O67 C63 1.241 . S
O68 Co56 2.137 . S
O68 C59 1.247 . S
O69 Co56 2.244 . S
O69 C59 1.272 . S
O69 Co61 2.135 . S
Co70 O71 2.216 . S
Co70 O72 2.091 . S
Co70 O74 2.004 1_545 S
Co70 O80 2.021 . S
Co70 O82 2.137 . S
Co70 O83 2.244 . S
O71 Co70 2.216 . S
O71 C78 1.247 . S
O72 Co70 2.091 . S
O72 C78 1.261 . S
C73 O82 1.247 . S
C73 O83 1.272 . S
O74 Co70 2.004 1_565 S
O74 C79 1.259 . S
Co75 O76 2.061 1_545 S
Co75 O81 2.052 . S
Co75 O83 2.135 . S
O76 Co75 2.061 1_565 S
O76 C79 1.235 . S
C77 O80 1.238 . S
C77 O81 1.241 . S
C78 O71 1.247 . S
C78 O72 1.261 . S
C79 O74 1.259 . S
C79 O76 1.235 . S
O80 Co70 2.021 . S
O80 C77 1.238 . S
O81 Co75 2.052 . S
O81 C77 1.241 . S
O82 Co70 2.137 . S
O82 C73 1.247 . S
O83 Co70 2.244 . S
O83 C73 1.272 . S
O83 Co75 2.135 . S
Co84 O85 2.216 . S
Co84 O86 2.091 . S
Co84 O88 2.004 1_655 S
Co84 O94 2.021 . S
Co84 O96 2.137 . S
Co84 O97 2.244 . S
O85 Co84 2.216 . S
O85 C92 1.247 . S
O86 Co84 2.091 . S
O86 C92 1.261 . S
C87 O96 1.247 . S
C87 O97 1.272 . S
O88 Co84 2.004 1_455 S
O88 C93 1.259 . S
Co89 O90 2.061 1_655 S
Co89 O95 2.052 . S
Co89 O97 2.135 . S
O90 Co89 2.061 1_455 S
O90 C93 1.235 . S
C91 O94 1.238 . S
C91 O95 1.241 . S
C92 O85 1.247 . S
C92 O86 1.261 . S
C93 O88 1.259 . S
C93 O90 1.235 . S
O94 Co84 2.021 . S
O94 C91 1.238 . S
O95 Co89 2.052 . S
O95 C91 1.241 . S
O96 Co84 2.137 . S
O96 C87 1.247 . S
O97 Co84 2.244 . S
O97 C87 1.272 . S
O97 Co89 2.135 . S
Co98 O99 2.216 . S
Co98 O100 2.091 . S
Co98 O102 2.004 1_565 S
Co98 O108 2.021 . S
Co98 O110 2.137 . S
Co98 O111 2.244 . S
O99 Co98 2.216 . S
O99 C106 1.247 . S
O100 Co98 2.091 . S
O100 C106 1.261 . S
C101 O110 1.247 . S
C101 O111 1.272 . S
O102 Co98 2.004 1_545 S
O102 C107 1.259 . S
Co103 O104 2.061 1_565 S
Co103 O109 2.052 . S
Co103 O111 2.135 . S
O104 Co103 2.061 1_545 S
O104 C107 1.235 . S
C105 O108 1.238 . S
C105 O109 1.241 . S
C106 O99 1.247 . S
C106 O100 1.261 . S
C107 O102 1.259 . S
C107 O104 1.235 . S
O108 Co98 2.021 . S
O108 C105 1.238 . S
O109 Co103 2.052 . S
O109 C105 1.241 . S
O110 Co98 2.137 . S
O110 C101 1.247 . S
O111 Co98 2.244 . S
O111 C101 1.272 . S
O111 Co103 2.135 . S
Co112 O113 2.216 . S
Co112 O114 2.091 . S
Co112 O116 2.004 . S
Co112 O122 2.021 . S
Co112 O124 2.137 . S
Co112 O125 2.244 . S
O113 Co112 2.216 . S
O113 C120 1.247 . S
O114 Co112 2.091 . S
O114 C120 1.261 . S
C115 O124 1.247 . S
C115 O125 1.272 . S
O116 Co112 2.004 . S
O116 C121 1.259 . S
Co117 O118 2.061 . S
Co117 O123 2.052 . S
Co117 O125 2.135 . S
O118 Co117 2.061 . S
O118 C121 1.235 . S
C119 O122 1.238 . S
C119 O123 1.241 . S
C120 O113 1.247 . S
C120 O114 1.261 . S
C121 O116 1.259 . S
C121 O118 1.235 . S
O122 Co112 2.021 . S
O122 C119 1.238 . S
O123 Co117 2.052 . S
O123 C119 1.241 . S
O124 Co112 2.137 . S
O124 C115 1.247 . S
O125 Co112 2.244 . S
O125 C115 1.272 . S
O125 Co117 2.135 . S
Co126 O127 2.216 . S
Co126 O128 2.091 . S
Co126 O130 2.004 . S
Co126 O136 2.021 . S
Co126 O138 2.137 . S
Co126 O139 2.244 . S
O127 Co126 2.216 . S
O127 C134 1.247 . S
O128 Co126 2.091 . S
O128 C134 1.261 . S
C129 O138 1.247 . S
C129 O139 1.272 . S
O130 Co126 2.004 . S
O130 C135 1.259 . S
Co131 O132 2.061 . S
Co131 O137 2.052 . S
Co131 O139 2.135 . S
O132 Co131 2.061 . S
O132 C135 1.235 . S
C133 O136 1.238 . S
C133 O137 1.241 . S
C134 O127 1.247 . S
C134 O128 1.261 . S
C135 O130 1.259 . S
C135 O132 1.235 . S
O136 Co126 2.021 . S
O136 C133 1.238 . S
O137 Co131 2.052 . S
O137 C133 1.241 . S
O138 Co126 2.137 . S
O138 C129 1.247 . S
O139 Co126 2.244 . S
O139 C129 1.272 . S
O139 Co131 2.135 . S
Co140 O141 2.216 . S
Co140 O142 2.091 . S
Co140 O144 2.004 . S
Co140 O150 2.021 . S
Co140 O152 2.137 . S
Co140 O153 2.244 . S
O141 Co140 2.216 . S
O141 C148 1.247 . S
O142 Co140 2.091 . S
O142 C148 1.261 . S
C143 O152 1.247 . S
C143 O153 1.272 . S
O144 Co140 2.004 . S
O144 C149 1.259 . S
Co145 O146 2.061 . S
Co145 O151 2.052 . S
Co145 O153 2.135 . S
O146 Co145 2.061 . S
O146 C149 1.235 . S
C147 O150 1.238 . S
C147 O151 1.241 . S
C148 O141 1.247 . S
C148 O142 1.261 . S
C149 O144 1.259 . S
C149 O146 1.235 . S
O150 Co140 2.021 . S
O150 C147 1.238 . S
O151 Co145 2.052 . S
O151 C147 1.241 . S
O152 Co140 2.137 . S
O152 C143 1.247 . S
O153 Co140 2.244 . S
O153 C143 1.272 . S
O153 Co145 2.135 . S
Co154 O155 2.216 . S
Co154 O156 2.091 . S
Co154 O158 2.004 . S
Co154 O164 2.021 . S
Co154 O166 2.137 . S
Co154 O167 2.244 . S
O155 Co154 2.216 . S
O155 C162 1.247 . S
O156 Co154 2.091 . S
O156 C162 1.261 . S
C157 O166 1.247 . S
C157 O167 1.272 . S
O158 Co154 2.004 . S
O158 C163 1.259 . S
Co159 O160 2.061 . S
Co159 O165 2.052 . S
Co159 O167 2.135 . S
O160 Co159 2.061 . S
O160 C163 1.235 . S
C161 O164 1.238 . S
C161 O165 1.241 . S
C162 O155 1.247 . S
C162 O156 1.261 . S
C163 O158 1.259 . S
C163 O160 1.235 . S
O164 Co154 2.021 . S
O164 C161 1.238 . S
O165 Co159 2.052 . S
O165 C161 1.241 . S
O166 Co154 2.137 . S
O166 C157 1.247 . S
O167 Co154 2.244 . S
O167 C157 1.272 . S
O167 Co159 2.135 . S
Co168 O169 2.216 . S
Co168 O170 2.091 . S
Co168 O172 2.004 . S
Co168 O178 2.021 . S
Co168 O180 2.137 . S
Co168 O181 2.244 . S
O169 Co168 2.216 . S
O169 C176 1.247 . S
O170 Co168 2.091 . S
O170 C176 1.261 . S
C171 O180 1.247 . S
C171 O181 1.272 . S
O172 Co168 2.004 . S
O172 C177 1.259 . S
Co173 O174 2.061 . S
Co173 O179 2.052 . S
Co173 O181 2.135 . S
O174 Co173 2.061 . S
O174 C177 1.235 . S
C175 O178 1.238 . S
C175 O179 1.241 . S
C176 O169 1.247 . S
C176 O170 1.261 . S
C177 O172 1.259 . S
C177 O174 1.235 . S
O178 Co168 2.021 . S
O178 C175 1.238 . S
O179 Co173 2.052 . S
O179 C175 1.241 . S
O180 Co168 2.137 . S
O180 C171 1.247 . S
O181 Co168 2.244 . S
O181 C171 1.272 . S
O181 Co173 2.135 . S
Co182 O183 2.216 . S
Co182 O184 2.091 . S
Co182 O186 2.004 . S
Co182 O192 2.021 . S
Co182 O194 2.137 . S
Co182 O195 2.244 . S
O183 Co182 2.216 . S
O183 C190 1.247 . S
O184 Co182 2.091 . S
O184 C190 1.261 . S
C185 O194 1.247 . S
C185 O195 1.272 . S
O186 Co182 2.004 . S
O186 C191 1.259 . S
Co187 O188 2.061 . S
Co187 O193 2.052 . S
Co187 O195 2.135 . S
O188 Co187 2.061 . S
O188 C191 1.235 . S
C189 O192 1.238 . S
C189 O193 1.241 . S
C190 O183 1.247 . S
C190 O184 1.261 . S
C191 O186 1.259 . S
C191 O188 1.235 . S
O192 Co182 2.021 . S
O192 C189 1.238 . S
O193 Co187 2.052 . S
O193 C189 1.241 . S
O194 Co182 2.137 . S
O194 C185 1.247 . S
O195 Co182 2.244 . S
O195 C185 1.272 . S
O195 Co187 2.135 . S
Co196 O197 2.216 . S
Co196 O198 2.091 . S
Co196 O200 2.004 . S
Co196 O206 2.021 . S
Co196 O208 2.137 . S
Co196 O209 2.244 . S
O197 Co196 2.216 . S
O197 C204 1.247 . S
O198 Co196 2.091 . S
O198 C204 1.261 . S
C199 O208 1.247 . S
C199 O209 1.272 . S
O200 Co196 2.004 . S
O200 C205 1.259 . S
Co201 O202 2.061 . S
Co201 O207 2.052 . S
Co201 O209 2.135 . S
O202 Co201 2.061 . S
O202 C205 1.235 . S
C203 O206 1.238 . S
C203 O207 1.241 . S
C204 O197 1.247 . S
C204 O198 1.261 . S
C205 O200 1.259 . S
C205 O202 1.235 . S
O206 Co196 2.021 . S
O206 C203 1.238 . S
O207 Co201 2.052 . S
O207 C203 1.241 . S
O208 Co196 2.137 . S
O208 C199 1.247 . S
O209 Co196 2.244 . S
O209 C199 1.272 . S
O209 Co201 2.135 . S
Co210 O211 2.216 . S
Co210 O212 2.091 . S
Co210 O214 2.004 . S
Co210 O220 2.021 . S
Co210 O222 2.137 . S
Co210 O223 2.244 . S
O211 Co210 2.216 . S
O211 C218 1.247 . S
O212 Co210 2.091 . S
O212 C218 1.261 . S
C213 O222 1.247 . S
C213 O223 1.272 . S
O214 Co210 2.004 . S
O214 C219 1.259 . S
Co215 O216 2.061 . S
Co215 O221 2.052 . S
Co215 O223 2.135 . S
O216 Co215 2.061 . S
O216 C219 1.235 . S
C217 O220 1.238 . S
C217 O221 1.241 . S
C218 O211 1.247 . S
C218 O212 1.261 . S
C219 O214 1.259 . S
C219 O216 1.235 . S
O220 Co210 2.021 . S
O220 C217 1.238 . S
O221 Co215 2.052 . S
O221 C217 1.241 . S
O222 Co210 2.137 . S
O222 C213 1.247 . S
O223 Co210 2.244 . S
O223 C213 1.272 . S
O223 Co215 2.135 . S
H224 C236 0.930 . S
H225 C238 0.930 . S
H226 C239 0.930 . S
H227 C243 0.959 . S
H228 C243 0.959 . S
H229 C243 0.961 . S
H230 C244 0.960 . S
H231 C244 0.961 . S
H232 C244 0.959 . S
H233 C247 0.929 . S
H234 C248 0.931 . S
H235 C250 0.930 . S
C236 H224 0.930 . S
C236 C237 1.399 . S
C236 C241 1.399 . S
C237 C236 1.399 . S
C237 C238 1.376 . S
C238 H225 0.930 . S
C238 C237 1.376 . S
C238 C239 1.388 . S
C239 H226 0.930 . S
C239 C238 1.388 . S
C239 C240 1.390 . S
C240 C239 1.390 . S
C240 C241 1.394 . S
C240 C246 1.465 . S
C241 C236 1.399 . S
C241 C240 1.394 . S
C241 C242 1.516 . S
C242 C241 1.516 . S
C242 C243 1.502 . S
C242 C244 1.561 . S
C242 C245 1.526 . S
C243 H227 0.959 . S
C243 H228 0.959 . S
C243 H229 0.961 . S
C243 C242 1.502 . S
C244 H230 0.960 . S
C244 H231 0.961 . S
C244 H232 0.959 . S
C244 C242 1.561 . S
C245 C242 1.526 . S
C245 C246 1.396 . S
C245 C250 1.390 . S
C246 C240 1.465 . S
C246 C245 1.396 . S
C246 C247 1.399 . S
C247 H233 0.929 . S
C247 C246 1.399 . S
C247 C248 1.385 . S
C248 H234 0.931 . S
C248 C247 1.385 . S
C248 C249 1.389 . S
C249 C248 1.389 . S
C249 C250 1.387 . S
C250 H235 0.930 . S
C250 C245 1.390 . S
C250 C249 1.387 . S
H251 C263 0.930 . S
H252 C265 0.930 . S
H253 C266 0.930 . S
H254 C270 0.959 . S
H255 C270 0.959 . S
H256 C270 0.961 . S
H257 C271 0.960 . S
H258 C271 0.961 . S
H259 C271 0.959 . S
H260 C274 0.929 . S
H261 C275 0.931 . S
H262 C277 0.930 . S
C263 H251 0.930 . S
C263 C264 1.399 . S
C263 C268 1.399 . S
C264 C263 1.399 . S
C264 C265 1.376 . S
C265 H252 0.930 . S
C265 C264 1.376 . S
C265 C266 1.388 . S
C266 H253 0.930 . S
C266 C265 1.388 . S
C266 C267 1.390 . S
C267 C266 1.390 . S
C267 C268 1.394 . S
C267 C273 1.465 . S
C268 C263 1.399 . S
C268 C267 1.394 . S
C268 C269 1.516 . S
C269 C268 1.516 . S
C269 C270 1.502 . S
C269 C271 1.561 . S
C269 C272 1.526 . S
C270 H254 0.959 . S
C270 H255 0.959 . S
C270 H256 0.961 . S
C270 C269 1.502 . S
C271 H257 0.960 . S
C271 H258 0.961 . S
C271 H259 0.959 . S
C271 C269 1.561 . S
C272 C269 1.526 . S
C272 C273 1.396 . S
C272 C277 1.390 . S
C273 C267 1.465 . S
C273 C272 1.396 . S
C273 C274 1.399 . S
C274 H260 0.929 . S
C274 C273 1.399 . S
C274 C275 1.385 . S
C275 H261 0.931 . S
C275 C274 1.385 . S
C275 C276 1.389 . S
C276 C275 1.389 . S
C276 C277 1.387 . S
C277 H262 0.930 . S
C277 C272 1.390 . S
C277 C276 1.387 . S
H278 C290 0.930 . S
H279 C292 0.930 . S
H280 C293 0.930 . S
H281 C297 0.959 . S
H282 C297 0.959 . S
H283 C297 0.961 . S
H284 C298 0.960 . S
H285 C298 0.961 . S
H286 C298 0.959 . S
H287 C301 0.929 . S
H288 C302 0.931 . S
H289 C304 0.930 . S
C290 H278 0.930 . S
C290 C291 1.399 . S
C290 C295 1.399 . S
C291 C290 1.399 . S
C291 C292 1.376 . S
C292 H279 0.930 . S
C292 C291 1.376 . S
C292 C293 1.388 . S
C293 H280 0.930 . S
C293 C292 1.388 . S
C293 C294 1.390 . S
C294 C293 1.390 . S
C294 C295 1.394 . S
C294 C300 1.465 . S
C295 C290 1.399 . S
C295 C294 1.394 . S
C295 C296 1.516 . S
C296 C295 1.516 . S
C296 C297 1.502 . S
C296 C298 1.561 . S
C296 C299 1.526 . S
C297 H281 0.959 . S
C297 H282 0.959 . S
C297 H283 0.961 . S
C297 C296 1.502 . S
C298 H284 0.960 . S
C298 H285 0.961 . S
C298 H286 0.959 . S
C298 C296 1.561 . S
C299 C296 1.526 . S
C299 C300 1.396 . S
C299 C304 1.390 . S
C300 C294 1.465 . S
C300 C299 1.396 . S
C300 C301 1.399 . S
C301 H287 0.929 . S
C301 C300 1.399 . S
C301 C302 1.385 . S
C302 H288 0.931 . S
C302 C301 1.385 . S
C302 C303 1.389 . S
C303 C302 1.389 . S
C303 C304 1.387 . S
C304 H289 0.930 . S
C304 C299 1.390 . S
C304 C303 1.387 . S
H305 C317 0.930 . S
H306 C319 0.930 . S
H307 C320 0.930 . S
H308 C324 0.959 . S
H309 C324 0.959 . S
H310 C324 0.961 . S
H311 C325 0.960 . S
H312 C325 0.961 . S
H313 C325 0.959 . S
H314 C328 0.929 . S
H315 C329 0.931 . S
H316 C331 0.930 . S
C317 H305 0.930 . S
C317 C318 1.399 . S
C317 C322 1.399 . S
C318 C317 1.399 . S
C318 C319 1.376 . S
C319 H306 0.930 . S
C319 C318 1.376 . S
C319 C320 1.388 . S
C320 H307 0.930 . S
C320 C319 1.388 . S
C320 C321 1.390 . S
C321 C320 1.390 . S
C321 C322 1.394 . S
C321 C327 1.465 . S
C322 C317 1.399 . S
C322 C321 1.394 . S
C322 C323 1.516 . S
C323 C322 1.516 . S
C323 C324 1.502 . S
C323 C325 1.561 . S
C323 C326 1.526 . S
C324 H308 0.959 . S
C324 H309 0.959 . S
C324 H310 0.961 . S
C324 C323 1.502 . S
C325 H311 0.960 . S
C325 H312 0.961 . S
C325 H313 0.959 . S
C325 C323 1.561 . S
C326 C323 1.526 . S
C326 C327 1.396 . S
C326 C331 1.390 . S
C327 C321 1.465 . S
C327 C326 1.396 . S
C327 C328 1.399 . S
C328 H314 0.929 . S
C328 C327 1.399 . S
C328 C329 1.385 . S
C329 H315 0.931 . S
C329 C328 1.385 . S
C329 C330 1.389 . S
C330 C329 1.389 . S
C330 C331 1.387 . S
C331 H316 0.930 . S
C331 C326 1.390 . S
C331 C330 1.387 . S
H332 C344 0.930 . S
H333 C346 0.930 . S
H334 C347 0.930 . S
H335 C351 0.959 . S
H336 C351 0.959 . S
H337 C351 0.961 . S
H338 C352 0.960 . S
H339 C352 0.961 . S
H340 C352 0.959 . S
H341 C355 0.929 . S
H342 C356 0.931 . S
H343 C358 0.930 . S
C344 H332 0.930 . S
C344 C345 1.399 . S
C344 C349 1.399 . S
C345 C344 1.399 . S
C345 C346 1.376 . S
C346 H333 0.930 . S
C346 C345 1.376 . S
C346 C347 1.388 . S
C347 H334 0.930 . S
C347 C346 1.388 . S
C347 C348 1.390 . S
C348 C347 1.390 . S
C348 C349 1.394 . S
C348 C354 1.465 . S
C349 C344 1.399 . S
C349 C348 1.394 . S
C349 C350 1.516 . S
C350 C349 1.516 . S
C350 C351 1.502 . S
C350 C352 1.561 . S
C350 C353 1.526 . S
C351 H335 0.959 . S
C351 H336 0.959 . S
C351 H337 0.961 . S
C351 C350 1.502 . S
C352 H338 0.960 . S
C352 H339 0.961 . S
C352 H340 0.959 . S
C352 C350 1.561 . S
C353 C350 1.526 . S
C353 C354 1.396 . S
C353 C358 1.390 . S
C354 C348 1.465 . S
C354 C353 1.396 . S
C354 C355 1.399 . S
C355 H341 0.929 . S
C355 C354 1.399 . S
C355 C356 1.385 . S
C356 H342 0.931 . S
C356 C355 1.385 . S
C356 C357 1.389 . S
C357 C356 1.389 . S
C357 C358 1.387 . S
C358 H343 0.930 . S
C358 C353 1.390 . S
C358 C357 1.387 . S
H359 C371 0.930 . S
H360 C373 0.930 . S
H361 C374 0.930 . S
H362 C378 0.959 . S
H363 C378 0.959 . S
H364 C378 0.961 . S
H365 C379 0.960 . S
H366 C379 0.961 . S
H367 C379 0.959 . S
H368 C382 0.929 . S
H369 C383 0.931 . S
H370 C385 0.930 . S
C371 H359 0.930 . S
C371 C372 1.399 . S
C371 C376 1.399 . S
C372 C371 1.399 . S
C372 C373 1.376 . S
C373 H360 0.930 . S
C373 C372 1.376 . S
C373 C374 1.388 . S
C374 H361 0.930 . S
C374 C373 1.388 . S
C374 C375 1.390 . S
C375 C374 1.390 . S
C375 C376 1.394 . S
C375 C381 1.465 . S
C376 C371 1.399 . S
C376 C375 1.394 . S
C376 C377 1.516 . S
C377 C376 1.516 . S
C377 C378 1.502 . S
C377 C379 1.561 . S
C377 C380 1.526 . S
C378 H362 0.959 . S
C378 H363 0.959 . S
C378 H364 0.961 . S
C378 C377 1.502 . S
C379 H365 0.960 . S
C379 H366 0.961 . S
C379 H367 0.959 . S
C379 C377 1.561 . S
C380 C377 1.526 . S
C380 C381 1.396 . S
C380 C385 1.390 . S
C381 C375 1.465 . S
C381 C380 1.396 . S
C381 C382 1.399 . S
C382 H368 0.929 . S
C382 C381 1.399 . S
C382 C383 1.385 . S
C383 H369 0.931 . S
C383 C382 1.385 . S
C383 C384 1.389 . S
C384 C383 1.389 . S
C384 C385 1.387 . S
C385 H370 0.930 . S
C385 C380 1.390 . S
C385 C384 1.387 . S
H386 C398 0.930 . S
H387 C400 0.930 . S
H388 C401 0.930 . S
H389 C405 0.959 . S
H390 C405 0.959 . S
H391 C405 0.961 . S
H392 C406 0.960 . S
H393 C406 0.961 . S
H394 C406 0.959 . S
H395 C409 0.929 . S
H396 C410 0.931 . S
H397 C412 0.930 . S
C398 H386 0.930 . S
C398 C399 1.399 . S
C398 C403 1.399 . S
C399 C398 1.399 . S
C399 C400 1.376 . S
C400 H387 0.930 . S
C400 C399 1.376 . S
C400 C401 1.388 . S
C401 H388 0.930 . S
C401 C400 1.388 . S
C401 C402 1.390 . S
C402 C401 1.390 . S
C402 C403 1.394 . S
C402 C408 1.465 . S
C403 C398 1.399 . S
C403 C402 1.394 . S
C403 C404 1.516 . S
C404 C403 1.516 . S
C404 C405 1.502 . S
C404 C406 1.561 . S
C404 C407 1.526 . S
C405 H389 0.959 . S
C405 H390 0.959 . S
C405 H391 0.961 . S
C405 C404 1.502 . S
C406 H392 0.960 . S
C406 H393 0.961 . S
C406 H394 0.959 . S
C406 C404 1.561 . S
C407 C404 1.526 . S
C407 C408 1.396 . S
C407 C412 1.390 . S
C408 C402 1.465 . S
C408 C407 1.396 . S
C408 C409 1.399 . S
C409 H395 0.929 . S
C409 C408 1.399 . S
C409 C410 1.385 . S
C410 H396 0.931 . S
C410 C409 1.385 . S
C410 C411 1.389 . S
C411 C410 1.389 . S
C411 C412 1.387 . S
C412 H397 0.930 . S
C412 C407 1.390 . S
C412 C411 1.387 . S
H413 C425 0.930 . S
H414 C427 0.930 . S
H415 C428 0.930 . S
H416 C432 0.959 . S
H417 C432 0.959 . S
H418 C432 0.961 . S
H419 C433 0.960 . S
H420 C433 0.961 . S
H421 C433 0.959 . S
H422 C436 0.929 . S
H423 C437 0.931 . S
H424 C439 0.930 . S
C425 H413 0.930 . S
C425 C426 1.399 . S
C425 C430 1.399 . S
C426 C425 1.399 . S
C426 C427 1.376 . S
C427 H414 0.930 . S
C427 C426 1.376 . S
C427 C428 1.388 . S
C428 H415 0.930 . S
C428 C427 1.388 . S
C428 C429 1.390 . S
C429 C428 1.390 . S
C429 C430 1.394 . S
C429 C435 1.465 . S
C430 C425 1.399 . S
C430 C429 1.394 . S
C430 C431 1.516 . S
C431 C430 1.516 . S
C431 C432 1.502 . S
C431 C433 1.561 . S
C431 C434 1.526 . S
C432 H416 0.959 . S
C432 H417 0.959 . S
C432 H418 0.961 . S
C432 C431 1.502 . S
C433 H419 0.960 . S
C433 H420 0.961 . S
C433 H421 0.959 . S
C433 C431 1.561 . S
C434 C431 1.526 . S
C434 C435 1.396 . S
C434 C439 1.390 . S
C435 C429 1.465 . S
C435 C434 1.396 . S
C435 C436 1.399 . S
C436 H422 0.929 . S
C436 C435 1.399 . S
C436 C437 1.385 . S
C437 H423 0.931 . S
C437 C436 1.385 . S
C437 C438 1.389 . S
C438 C437 1.389 . S
C438 C439 1.387 . S
C439 H424 0.930 . S
C439 C434 1.390 . S
C439 C438 1.387 . S
H440 C452 0.930 . S
H441 C454 0.930 . S
H442 C455 0.930 . S
H443 C459 0.959 . S
H444 C459 0.959 . S
H445 C459 0.961 . S
H446 C460 0.960 . S
H447 C460 0.961 . S
H448 C460 0.959 . S
H449 C463 0.929 . S
H450 C464 0.931 . S
H451 C466 0.930 . S
C452 H440 0.930 . S
C452 C453 1.399 . S
C452 C457 1.399 . S
C453 C452 1.399 . S
C453 C454 1.376 . S
C454 H441 0.930 . S
C454 C453 1.376 . S
C454 C455 1.388 . S
C455 H442 0.930 . S
C455 C454 1.388 . S
C455 C456 1.390 . S
C456 C455 1.390 . S
C456 C457 1.394 . S
C456 C462 1.465 . S
C457 C452 1.399 . S
C457 C456 1.394 . S
C457 C458 1.516 . S
C458 C457 1.516 . S
C458 C459 1.502 . S
C458 C460 1.561 . S
C458 C461 1.526 . S
C459 H443 0.959 . S
C459 H444 0.959 . S
C459 H445 0.961 . S
C459 C458 1.502 . S
C460 H446 0.960 . S
C460 H447 0.961 . S
C460 H448 0.959 . S
C460 C458 1.561 . S
C461 C458 1.526 . S
C461 C462 1.396 . S
C461 C466 1.390 . S
C462 C456 1.465 . S
C462 C461 1.396 . S
C462 C463 1.399 . S
C463 H449 0.929 . S
C463 C462 1.399 . S
C463 C464 1.385 . S
C464 H450 0.931 . S
C464 C463 1.385 . S
C464 C465 1.389 . S
C465 C464 1.389 . S
C465 C466 1.387 . S
C466 H451 0.930 . S
C466 C461 1.390 . S
C466 C465 1.387 . S
H467 C479 0.930 . S
H468 C481 0.930 . S
H469 C482 0.930 . S
H470 C486 0.959 . S
H471 C486 0.959 . S
H472 C486 0.961 . S
H473 C487 0.960 . S
H474 C487 0.961 . S
H475 C487 0.959 . S
H476 C490 0.929 . S
H477 C491 0.931 . S
H478 C493 0.930 . S
C479 H467 0.930 . S
C479 C480 1.399 . S
C479 C484 1.399 . S
C480 C479 1.399 . S
C480 C481 1.376 . S
C481 H468 0.930 . S
C481 C480 1.376 . S
C481 C482 1.388 . S
C482 H469 0.930 . S
C482 C481 1.388 . S
C482 C483 1.390 . S
C483 C482 1.390 . S
C483 C484 1.394 . S
C483 C489 1.465 . S
C484 C479 1.399 . S
C484 C483 1.394 . S
C484 C485 1.516 . S
C485 C484 1.516 . S
C485 C486 1.502 . S
C485 C487 1.561 . S
C485 C488 1.526 . S
C486 H470 0.959 . S
C486 H471 0.959 . S
C486 H472 0.961 . S
C486 C485 1.502 . S
C487 H473 0.960 . S
C487 H474 0.961 . S
C487 H475 0.959 . S
C487 C485 1.561 . S
C488 C485 1.526 . S
C488 C489 1.396 . S
C488 C493 1.390 . S
C489 C483 1.465 . S
C489 C488 1.396 . S
C489 C490 1.399 . S
C490 H476 0.929 . S
C490 C489 1.399 . S
C490 C491 1.385 . S
C491 H477 0.931 . S
C491 C490 1.385 . S
C491 C492 1.389 . S
C492 C491 1.389 . S
C492 C493 1.387 . S
C493 H478 0.930 . S
C493 C488 1.390 . S
C493 C492 1.387 . S
H494 C506 0.930 . S
H495 C508 0.930 . S
H496 C509 0.930 . S
H497 C513 0.959 . S
H498 C513 0.959 . S
H499 C513 0.961 . S
H500 C514 0.960 . S
H501 C514 0.961 . S
H502 C514 0.959 . S
H503 C517 0.929 . S
H504 C518 0.931 . S
H505 C520 0.930 . S
C506 H494 0.930 . S
C506 C507 1.399 . S
C506 C511 1.399 . S
C507 C506 1.399 . S
C507 C508 1.376 . S
C508 H495 0.930 . S
C508 C507 1.376 . S
C508 C509 1.388 . S
C509 H496 0.930 . S
C509 C508 1.388 . S
C509 C510 1.390 . S
C510 C509 1.390 . S
C510 C511 1.394 . S
C510 C516 1.465 . S
C511 C506 1.399 . S
C511 C510 1.394 . S
C511 C512 1.516 . S
C512 C511 1.516 . S
C512 C513 1.502 . S
C512 C514 1.561 . S
C512 C515 1.526 . S
C513 H497 0.959 . S
C513 H498 0.959 . S
C513 H499 0.961 . S
C513 C512 1.502 . S
C514 H500 0.960 . S
C514 H501 0.961 . S
C514 H502 0.959 . S
C514 C512 1.561 . S
C515 C512 1.526 . S
C515 C516 1.396 . S
C515 C520 1.390 . S
C516 C510 1.465 . S
C516 C515 1.396 . S
C516 C517 1.399 . S
C517 H503 0.929 . S
C517 C516 1.399 . S
C517 C518 1.385 . S
C518 H504 0.931 . S
C518 C517 1.385 . S
C518 C519 1.389 . S
C519 C518 1.389 . S
C519 C520 1.387 . S
C520 H505 0.930 . S
C520 C515 1.390 . S
C520 C519 1.387 . S
H521 C533 0.930 . S
H522 C535 0.930 . S
H523 C536 0.930 . S
H524 C540 0.959 . S
H525 C540 0.959 . S
H526 C540 0.961 . S
H527 C541 0.960 . S
H528 C541 0.961 . S
H529 C541 0.959 . S
H530 C544 0.929 . S
H531 C545 0.931 . S
H532 C547 0.930 . S
C533 H521 0.930 . S
C533 C534 1.399 . S
C533 C538 1.399 . S
C534 C533 1.399 . S
C534 C535 1.376 . S
C535 H522 0.930 . S
C535 C534 1.376 . S
C535 C536 1.388 . S
C536 H523 0.930 . S
C536 C535 1.388 . S
C536 C537 1.390 . S
C537 C536 1.390 . S
C537 C538 1.394 . S
C537 C543 1.465 . S
C538 C533 1.399 . S
C538 C537 1.394 . S
C538 C539 1.516 . S
C539 C538 1.516 . S
C539 C540 1.502 . S
C539 C541 1.561 . S
C539 C542 1.526 . S
C540 H524 0.959 . S
C540 H525 0.959 . S
C540 H526 0.961 . S
C540 C539 1.502 . S
C541 H527 0.960 . S
C541 H528 0.961 . S
C541 H529 0.959 . S
C541 C539 1.561 . S
C542 C539 1.526 . S
C542 C543 1.396 . S
C542 C547 1.390 . S
C543 C537 1.465 . S
C543 C542 1.396 . S
C543 C544 1.399 . S
C544 H530 0.929 . S
C544 C543 1.399 . S
C544 C545 1.385 . S
C545 H531 0.931 . S
C545 C544 1.385 . S
C545 C546 1.389 . S
C546 C545 1.389 . S
C546 C547 1.387 . S
C547 H532 0.930 . S
C547 C542 1.390 . S
C547 C546 1.387 . S
H548 C560 0.930 . S
H549 C562 0.930 . S
H550 C563 0.930 . S
H551 C567 0.959 . S
H552 C567 0.959 . S
H553 C567 0.961 . S
H554 C568 0.960 . S
H555 C568 0.961 . S
H556 C568 0.959 . S
H557 C571 0.929 . S
H558 C572 0.931 . S
H559 C574 0.930 . S
C560 H548 0.930 . S
C560 C561 1.399 . S
C560 C565 1.399 . S
C561 C560 1.399 . S
C561 C562 1.376 . S
C562 H549 0.930 . S
C562 C561 1.376 . S
C562 C563 1.388 . S
C563 H550 0.930 . S
C563 C562 1.388 . S
C563 C564 1.390 . S
C564 C563 1.390 . S
C564 C565 1.394 . S
C564 C570 1.465 . S
C565 C560 1.399 . S
C565 C564 1.394 . S
C565 C566 1.516 . S
C566 C565 1.516 . S
C566 C567 1.502 . S
C566 C568 1.561 . S
C566 C569 1.526 . S
C567 H551 0.959 . S
C567 H552 0.959 . S
C567 H553 0.961 . S
C567 C566 1.502 . S
C568 H554 0.960 . S
C568 H555 0.961 . S
C568 H556 0.959 . S
C568 C566 1.561 . S
C569 C566 1.526 . S
C569 C570 1.396 . S
C569 C574 1.390 . S
C570 C564 1.465 . S
C570 C569 1.396 . S
C570 C571 1.399 . S
C571 H557 0.929 . S
C571 C570 1.399 . S
C571 C572 1.385 . S
C572 H558 0.931 . S
C572 C571 1.385 . S
C572 C573 1.389 . S
C573 C572 1.389 . S
C573 C574 1.387 . S
C574 H559 0.930 . S
C574 C569 1.390 . S
C574 C573 1.387 . S
H575 C587 0.930 . S
H576 C589 0.930 . S
H577 C590 0.930 . S
H578 C594 0.959 . S
H579 C594 0.959 . S
H580 C594 0.961 . S
H581 C595 0.960 . S
H582 C595 0.961 . S
H583 C595 0.959 . S
H584 C598 0.929 . S
H585 C599 0.931 . S
H586 C601 0.930 . S
C587 H575 0.930 . S
C587 C588 1.399 . S
C587 C592 1.399 . S
C588 C587 1.399 . S
C588 C589 1.376 . S
C589 H576 0.930 . S
C589 C588 1.376 . S
C589 C590 1.388 . S
C590 H577 0.930 . S
C590 C589 1.388 . S
C590 C591 1.390 . S
C591 C590 1.390 . S
C591 C592 1.394 . S
C591 C597 1.465 . S
C592 C587 1.399 . S
C592 C591 1.394 . S
C592 C593 1.516 . S
C593 C592 1.516 . S
C593 C594 1.502 . S
C593 C595 1.561 . S
C593 C596 1.526 . S
C594 H578 0.959 . S
C594 H579 0.959 . S
C594 H580 0.961 . S
C594 C593 1.502 . S
C595 H581 0.960 . S
C595 H582 0.961 . S
C595 H583 0.959 . S
C595 C593 1.561 . S
C596 C593 1.526 . S
C596 C597 1.396 . S
C596 C601 1.390 . S
C597 C591 1.465 . S
C597 C596 1.396 . S
C597 C598 1.399 . S
C598 H584 0.929 . S
C598 C597 1.399 . S
C598 C599 1.385 . S
C599 H585 0.931 . S
C599 C598 1.385 . S
C599 C600 1.389 . S
C600 C599 1.389 . S
C600 C601 1.387 . S
C601 H586 0.930 . S
C601 C596 1.390 . S
C601 C600 1.387 . S
H602 C614 0.930 . S
H603 C616 0.930 . S
H604 C617 0.930 . S
H605 C621 0.959 . S
H606 C621 0.959 . S
H607 C621 0.961 . S
H608 C622 0.960 . S
H609 C622 0.961 . S
H610 C622 0.959 . S
H611 C625 0.929 . S
H612 C626 0.931 . S
H613 C628 0.930 . S
C614 H602 0.930 . S
C614 C615 1.399 . S
C614 C619 1.399 . S
C615 C614 1.399 . S
C615 C616 1.376 . S
C616 H603 0.930 . S
C616 C615 1.376 . S
C616 C617 1.388 . S
C617 H604 0.930 . S
C617 C616 1.388 . S
C617 C618 1.390 . S
C618 C617 1.390 . S
C618 C619 1.394 . S
C618 C624 1.465 . S
C619 C614 1.399 . S
C619 C618 1.394 . S
C619 C620 1.516 . S
C620 C619 1.516 . S
C620 C621 1.502 . S
C620 C622 1.561 . S
C620 C623 1.526 . S
C621 H605 0.959 . S
C621 H606 0.959 . S
C621 H607 0.961 . S
C621 C620 1.502 . S
C622 H608 0.960 . S
C622 H609 0.961 . S
C622 H610 0.959 . S
C622 C620 1.561 . S
C623 C620 1.526 . S
C623 C624 1.396 . S
C623 C628 1.390 . S
C624 C618 1.465 . S
C624 C623 1.396 . S
C624 C625 1.399 . S
C625 H611 0.929 . S
C625 C624 1.399 . S
C625 C626 1.385 . S
C626 H612 0.931 . S
C626 C625 1.385 . S
C626 C627 1.389 . S
C627 C626 1.389 . S
C627 C628 1.387 . S
C628 H613 0.930 . S
C628 C623 1.390 . S
C628 C627 1.387 . S
H629 C641 0.930 . S
H630 C643 0.930 . S
H631 C644 0.930 . S
H632 C648 0.959 . S
H633 C648 0.959 . S
H634 C648 0.961 . S
H635 C649 0.960 . S
H636 C649 0.961 . S
H637 C649 0.959 . S
H638 C652 0.929 . S
H639 C653 0.931 . S
H640 C655 0.930 . S
C641 H629 0.930 . S
C641 C642 1.399 . S
C641 C646 1.399 . S
C642 C641 1.399 . S
C642 C643 1.376 . S
C643 H630 0.930 . S
C643 C642 1.376 . S
C643 C644 1.388 . S
C644 H631 0.930 . S
C644 C643 1.388 . S
C644 C645 1.390 . S
C645 C644 1.390 . S
C645 C646 1.394 . S
C645 C651 1.465 . S
C646 C641 1.399 . S
C646 C645 1.394 . S
C646 C647 1.516 . S
C647 C646 1.516 . S
C647 C648 1.502 . S
C647 C649 1.561 . S
C647 C650 1.526 . S
C648 H632 0.959 . S
C648 H633 0.959 . S
C648 H634 0.961 . S
C648 C647 1.502 . S
C649 H635 0.960 . S
C649 H636 0.961 . S
C649 H637 0.959 . S
C649 C647 1.561 . S
C650 C647 1.526 . S
C650 C651 1.396 . S
C650 C655 1.390 . S
C651 C645 1.465 . S
C651 C650 1.396 . S
C651 C652 1.399 . S
C652 H638 0.929 . S
C652 C651 1.399 . S
C652 C653 1.385 . S
C653 H639 0.931 . S
C653 C652 1.385 . S
C653 C654 1.389 . S
C654 C653 1.389 . S
C654 C655 1.387 . S
C655 H640 0.930 . S
C655 C650 1.390 . S
C655 C654 1.387 . S
H656 C668 0.930 . S
H657 C670 0.930 . S
H658 C671 0.930 . S
H659 C675 0.959 . S
H660 C675 0.959 . S
H661 C675 0.961 . S
H662 C676 0.960 . S
H663 C676 0.961 . S
H664 C676 0.959 . S
H665 C679 0.929 . S
H666 C680 0.931 . S
H667 C682 0.930 . S
C668 H656 0.930 . S
C668 C669 1.399 . S
C668 C673 1.399 . S
C669 C668 1.399 . S
C669 C670 1.376 . S
C670 H657 0.930 . S
C670 C669 1.376 . S
C670 C671 1.388 . S
C671 H658 0.930 . S
C671 C670 1.388 . S
C671 C672 1.390 . S
C672 C671 1.390 . S
C672 C673 1.394 . S
C672 C678 1.465 . S
C673 C668 1.399 . S
C673 C672 1.394 . S
C673 C674 1.516 . S
C674 C673 1.516 . S
C674 C675 1.502 . S
C674 C676 1.561 . S
C674 C677 1.526 . S
C675 H659 0.959 . S
C675 H660 0.959 . S
C675 H661 0.961 . S
C675 C674 1.502 . S
C676 H662 0.960 . S
C676 H663 0.961 . S
C676 H664 0.959 . S
C676 C674 1.561 . S
C677 C674 1.526 . S
C677 C678 1.396 . S
C677 C682 1.390 . S
C678 C672 1.465 . S
C678 C677 1.396 . S
C678 C679 1.399 . S
C679 H665 0.929 . S
C679 C678 1.399 . S
C679 C680 1.385 . S
C680 H666 0.931 . S
C680 C679 1.385 . S
C680 C681 1.389 . S
C681 C680 1.389 . S
C681 C682 1.387 . S
C682 H667 0.930 . S
C682 C677 1.390 . S
C682 C681 1.387 . S
H683 C695 0.930 . S
H684 C697 0.930 . S
H685 C698 0.930 . S
H686 C702 0.959 . S
H687 C702 0.959 . S
H688 C702 0.961 . S
H689 C703 0.960 . S
H690 C703 0.961 . S
H691 C703 0.959 . S
H692 C706 0.929 . S
H693 C707 0.931 . S
H694 C709 0.930 . S
C695 H683 0.930 . S
C695 C696 1.399 . S
C695 C700 1.399 . S
C696 C695 1.399 . S
C696 C697 1.376 . S
C697 H684 0.930 . S
C697 C696 1.376 . S
C697 C698 1.388 . S
C698 H685 0.930 . S
C698 C697 1.388 . S
C698 C699 1.390 . S
C699 C698 1.390 . S
C699 C700 1.394 . S
C699 C705 1.465 . S
C700 C695 1.399 . S
C700 C699 1.394 . S
C700 C701 1.516 . S
C701 C700 1.516 . S
C701 C702 1.502 . S
C701 C703 1.561 . S
C701 C704 1.526 . S
C702 H686 0.959 . S
C702 H687 0.959 . S
C702 H688 0.961 . S
C702 C701 1.502 . S
C703 H689 0.960 . S
C703 H690 0.961 . S
C703 H691 0.959 . S
C703 C701 1.561 . S
C704 C701 1.526 . S
C704 C705 1.396 . S
C704 C709 1.390 . S
C705 C699 1.465 . S
C705 C704 1.396 . S
C705 C706 1.399 . S
C706 H692 0.929 . S
C706 C705 1.399 . S
C706 C707 1.385 . S
C707 H693 0.931 . S
C707 C706 1.385 . S
C707 C708 1.389 . S
C708 C707 1.389 . S
C708 C709 1.387 . S
C709 H694 0.930 . S
C709 C704 1.390 . S
C709 C708 1.387 . S
H710 C722 0.930 . S
H711 C724 0.930 . S
H712 C725 0.930 . S
H713 C729 0.959 . S
H714 C729 0.959 . S
H715 C729 0.961 . S
H716 C730 0.960 . S
H717 C730 0.961 . S
H718 C730 0.959 . S
H719 C733 0.929 . S
H720 C734 0.931 . S
H721 C736 0.930 . S
C722 H710 0.930 . S
C722 C723 1.399 . S
C722 C727 1.399 . S
C723 C722 1.399 . S
C723 C724 1.376 . S
C724 H711 0.930 . S
C724 C723 1.376 . S
C724 C725 1.388 . S
C725 H712 0.930 . S
C725 C724 1.388 . S
C725 C726 1.390 . S
C726 C725 1.390 . S
C726 C727 1.394 . S
C726 C732 1.465 . S
C727 C722 1.399 . S
C727 C726 1.394 . S
C727 C728 1.516 . S
C728 C727 1.516 . S
C728 C729 1.502 . S
C728 C730 1.561 . S
C728 C731 1.526 . S
C729 H713 0.959 . S
C729 H714 0.959 . S
C729 H715 0.961 . S
C729 C728 1.502 . S
C730 H716 0.960 . S
C730 H717 0.961 . S
C730 H718 0.959 . S
C730 C728 1.561 . S
C731 C728 1.526 . S
C731 C732 1.396 . S
C731 C736 1.390 . S
C732 C726 1.465 . S
C732 C731 1.396 . S
C732 C733 1.399 . S
C733 H719 0.929 . S
C733 C732 1.399 . S
C733 C734 1.385 . S
C734 H720 0.931 . S
C734 C733 1.385 . S
C734 C735 1.389 . S
C735 C734 1.389 . S
C735 C736 1.387 . S
C736 H721 0.930 . S
C736 C731 1.390 . S
C736 C735 1.387 . S
H737 C749 0.930 . S
H738 C751 0.930 . S
H739 C752 0.930 . S
H740 C756 0.959 . S
H741 C756 0.959 . S
H742 C756 0.961 . S
H743 C757 0.960 . S
H744 C757 0.961 . S
H745 C757 0.959 . S
H746 C760 0.929 . S
H747 C761 0.931 . S
H748 C763 0.930 . S
C749 H737 0.930 . S
C749 C750 1.399 . S
C749 C754 1.399 . S
C750 C749 1.399 . S
C750 C751 1.376 . S
C751 H738 0.930 . S
C751 C750 1.376 . S
C751 C752 1.388 . S
C752 H739 0.930 . S
C752 C751 1.388 . S
C752 C753 1.390 . S
C753 C752 1.390 . S
C753 C754 1.394 . S
C753 C759 1.465 . S
C754 C749 1.399 . S
C754 C753 1.394 . S
C754 C755 1.516 . S
C755 C754 1.516 . S
C755 C756 1.502 . S
C755 C757 1.561 . S
C755 C758 1.526 . S
C756 H740 0.959 . S
C756 H741 0.959 . S
C756 H742 0.961 . S
C756 C755 1.502 . S
C757 H743 0.960 . S
C757 H744 0.961 . S
C757 H745 0.959 . S
C757 C755 1.561 . S
C758 C755 1.526 . S
C758 C759 1.396 . S
C758 C763 1.390 . S
C759 C753 1.465 . S
C759 C758 1.396 . S
C759 C760 1.399 . S
C760 H746 0.929 . S
C760 C759 1.399 . S
C760 C761 1.385 . S
C761 H747 0.931 . S
C761 C760 1.385 . S
C761 C762 1.389 . S
C762 C761 1.389 . S
C762 C763 1.387 . S
C763 H748 0.930 . S
C763 C758 1.390 . S
C763 C762 1.387 . S
H764 C776 0.930 . S
H765 C778 0.930 . S
H766 C779 0.930 . S
H767 C783 0.959 . S
H768 C783 0.959 . S
H769 C783 0.961 . S
H770 C784 0.960 . S
H771 C784 0.961 . S
H772 C784 0.959 . S
H773 C787 0.929 . S
H774 C788 0.931 . S
H775 C790 0.930 . S
C776 H764 0.930 . S
C776 C777 1.399 . S
C776 C781 1.399 . S
C777 C776 1.399 . S
C777 C778 1.376 . S
C778 H765 0.930 . S
C778 C777 1.376 . S
C778 C779 1.388 . S
C779 H766 0.930 . S
C779 C778 1.388 . S
C779 C780 1.390 . S
C780 C779 1.390 . S
C780 C781 1.394 . S
C780 C786 1.465 . S
C781 C776 1.399 . S
C781 C780 1.394 . S
C781 C782 1.516 . S
C782 C781 1.516 . S
C782 C783 1.502 . S
C782 C784 1.561 . S
C782 C785 1.526 . S
C783 H767 0.959 . S
C783 H768 0.959 . S
C783 H769 0.961 . S
C783 C782 1.502 . S
C784 H770 0.960 . S
C784 H771 0.961 . S
C784 H772 0.959 . S
C784 C782 1.561 . S
C785 C782 1.526 . S
C785 C786 1.396 . S
C785 C790 1.390 . S
C786 C780 1.465 . S
C786 C785 1.396 . S
C786 C787 1.399 . S
C787 H773 0.929 . S
C787 C786 1.399 . S
C787 C788 1.385 . S
C788 H774 0.931 . S
C788 C787 1.385 . S
C788 C789 1.389 . S
C789 C788 1.389 . S
C789 C790 1.387 . S
C790 H775 0.930 . S
C790 C785 1.390 . S
C790 C789 1.387 . S
H791 C803 0.930 . S
H792 C805 0.930 . S
H793 C806 0.930 . S
H794 C810 0.959 . S
H795 C810 0.959 . S
H796 C810 0.961 . S
H797 C811 0.960 . S
H798 C811 0.961 . S
H799 C811 0.959 . S
H800 C814 0.929 . S
H801 C815 0.931 . S
H802 C817 0.930 . S
C803 H791 0.930 . S
C803 C804 1.399 . S
C803 C808 1.399 . S
C804 C803 1.399 . S
C804 C805 1.376 . S
C805 H792 0.930 . S
C805 C804 1.376 . S
C805 C806 1.388 . S
C806 H793 0.930 . S
C806 C805 1.388 . S
C806 C807 1.390 . S
C807 C806 1.390 . S
C807 C808 1.394 . S
C807 C813 1.465 . S
C808 C803 1.399 . S
C808 C807 1.394 . S
C808 C809 1.516 . S
C809 C808 1.516 . S
C809 C810 1.502 . S
C809 C811 1.561 . S
C809 C812 1.526 . S
C810 H794 0.959 . S
C810 H795 0.959 . S
C810 H796 0.961 . S
C810 C809 1.502 . S
C811 H797 0.960 . S
C811 H798 0.961 . S
C811 H799 0.959 . S
C811 C809 1.561 . S
C812 C809 1.526 . S
C812 C813 1.396 . S
C812 C817 1.390 . S
C813 C807 1.465 . S
C813 C812 1.396 . S
C813 C814 1.399 . S
C814 H800 0.929 . S
C814 C813 1.399 . S
C814 C815 1.385 . S
C815 H801 0.931 . S
C815 C814 1.385 . S
C815 C816 1.389 . S
C816 C815 1.389 . S
C816 C817 1.387 . S
C817 H802 0.930 . S
C817 C812 1.390 . S
C817 C816 1.387 . S
H818 C830 0.930 . S
H819 C832 0.930 . S
H820 C833 0.930 . S
H821 C837 0.959 . S
H822 C837 0.959 . S
H823 C837 0.961 . S
H824 C838 0.960 . S
H825 C838 0.961 . S
H826 C838 0.959 . S
H827 C841 0.929 . S
H828 C842 0.931 . S
H829 C844 0.930 . S
C830 H818 0.930 . S
C830 C831 1.399 . S
C830 C835 1.399 . S
C831 C830 1.399 . S
C831 C832 1.376 . S
C832 H819 0.930 . S
C832 C831 1.376 . S
C832 C833 1.388 . S
C833 H820 0.930 . S
C833 C832 1.388 . S
C833 C834 1.390 . S
C834 C833 1.390 . S
C834 C835 1.394 . S
C834 C840 1.465 . S
C835 C830 1.399 . S
C835 C834 1.394 . S
C835 C836 1.516 . S
C836 C835 1.516 . S
C836 C837 1.502 . S
C836 C838 1.561 . S
C836 C839 1.526 . S
C837 H821 0.959 . S
C837 H822 0.959 . S
C837 H823 0.961 . S
C837 C836 1.502 . S
C838 H824 0.960 . S
C838 H825 0.961 . S
C838 H826 0.959 . S
C838 C836 1.561 . S
C839 C836 1.526 . S
C839 C840 1.396 . S
C839 C844 1.390 . S
C840 C834 1.465 . S
C840 C839 1.396 . S
C840 C841 1.399 . S
C841 H827 0.929 . S
C841 C840 1.399 . S
C841 C842 1.385 . S
C842 H828 0.931 . S
C842 C841 1.385 . S
C842 C843 1.389 . S
C843 C842 1.389 . S
C843 C844 1.387 . S
C844 H829 0.930 . S
C844 C839 1.390 . S
C844 C843 1.387 . S
H845 C857 0.930 . S
H846 C859 0.930 . S
H847 C860 0.930 . S
H848 C864 0.959 . S
H849 C864 0.959 . S
H850 C864 0.961 . S
H851 C865 0.960 . S
H852 C865 0.961 . S
H853 C865 0.959 . S
H854 C868 0.929 . S
H855 C869 0.931 . S
H856 C871 0.930 . S
C857 H845 0.930 . S
C857 C858 1.399 . S
C857 C862 1.399 . S
C858 C857 1.399 . S
C858 C859 1.376 . S
C859 H846 0.930 . S
C859 C858 1.376 . S
C859 C860 1.388 . S
C860 H847 0.930 . S
C860 C859 1.388 . S
C860 C861 1.390 . S
C861 C860 1.390 . S
C861 C862 1.394 . S
C861 C867 1.465 . S
C862 C857 1.399 . S
C862 C861 1.394 . S
C862 C863 1.516 . S
C863 C862 1.516 . S
C863 C864 1.502 . S
C863 C865 1.561 . S
C863 C866 1.526 . S
C864 H848 0.959 . S
C864 H849 0.959 . S
C864 H850 0.961 . S
C864 C863 1.502 . S
C865 H851 0.960 . S
C865 H852 0.961 . S
C865 H853 0.959 . S
C865 C863 1.561 . S
C866 C863 1.526 . S
C866 C867 1.396 . S
C866 C871 1.390 . S
C867 C861 1.465 . S
C867 C866 1.396 . S
C867 C868 1.399 . S
C868 H854 0.929 . S
C868 C867 1.399 . S
C868 C869 1.385 . S
C869 H855 0.931 . S
C869 C868 1.385 . S
C869 C870 1.389 . S
C870 C869 1.389 . S
C870 C871 1.387 . S
C871 H856 0.930 . S
C871 C866 1.390 . S
C871 C870 1.387 . S
H872 C884 0.930 1_655 S
H873 C886 0.930 . S
H874 C887 0.930 . S
H875 C891 0.959 . S
H876 C891 0.959 . S
H877 C891 0.961 . S
H878 C892 0.960 . S
H879 C892 0.961 . S
H880 C892 0.959 . S
H881 C895 0.929 . S
H882 C896 0.931 . S
H883 C898 0.930 . S
C884 H872 0.930 1_455 S
C884 C885 1.399 . S
C884 C889 1.399 . S
C885 C884 1.399 . S
C885 C886 1.376 . S
C886 H873 0.930 . S
C886 C885 1.376 . S
C886 C887 1.388 . S
C887 H874 0.930 . S
C887 C886 1.388 . S
C887 C888 1.390 . S
C888 C887 1.390 . S
C888 C889 1.394 . S
C888 C894 1.465 . S
C889 C884 1.399 . S
C889 C888 1.394 . S
C889 C890 1.516 1_455 S
C890 C889 1.516 1_655 S
C890 C891 1.502 . S
C890 C892 1.561 1_655 S
C890 C893 1.526 . S
C891 H875 0.959 . S
C891 H876 0.959 . S
C891 H877 0.961 . S
C891 C890 1.502 . S
C892 H878 0.960 . S
C892 H879 0.961 . S
C892 H880 0.959 . S
C892 C890 1.561 1_455 S
C893 C890 1.526 . S
C893 C894 1.396 1_655 S
C893 C898 1.390 . S
C894 C888 1.465 . S
C894 C893 1.396 1_455 S
C894 C895 1.399 . S
C895 H881 0.929 . S
C895 C894 1.399 . S
C895 C896 1.385 . S
C896 H882 0.931 . S
C896 C895 1.385 . S
C896 C897 1.389 1_455 S
C897 C896 1.389 1_655 S
C897 C898 1.387 . S
C898 H883 0.930 . S
C898 C893 1.390 . S
C898 C897 1.387 . S
H899 C911 0.930 . S
H900 C913 0.930 . S
H901 C914 0.930 . S
H902 C918 0.959 . S
H903 C918 0.959 . S
H904 C918 0.961 . S
H905 C919 0.960 . S
H906 C919 0.961 . S
H907 C919 0.959 . S
H908 C922 0.929 . S
H909 C923 0.931 . S
H910 C925 0.930 . S
C911 H899 0.930 . S
C911 C912 1.399 1_545 S
C911 C916 1.399 . S
C912 C911 1.399 1_565 S
C912 C913 1.376 . S
C913 H900 0.930 . S
C913 C912 1.376 . S
C913 C914 1.388 . S
C914 H901 0.930 . S
C914 C913 1.388 . S
C914 C915 1.390 . S
C915 C914 1.390 . S
C915 C916 1.394 1_565 S
C915 C921 1.465 . S
C916 C911 1.399 . S
C916 C915 1.394 1_545 S
C916 C917 1.516 . S
C917 C916 1.516 . S
C917 C918 1.502 . S
C917 C919 1.561 . S
C917 C920 1.526 . S
C918 H902 0.959 . S
C918 H903 0.959 . S
C918 H904 0.961 . S
C918 C917 1.502 . S
C919 H905 0.960 . S
C919 H906 0.961 . S
C919 H907 0.959 . S
C919 C917 1.561 . S
C920 C917 1.526 . S
C920 C921 1.396 1_545 S
C920 C925 1.390 . S
C921 C915 1.465 . S
C921 C920 1.396 1_565 S
C921 C922 1.399 . S
C922 H908 0.929 . S
C922 C921 1.399 . S
C922 C923 1.385 . S
C923 H909 0.931 . S
C923 C922 1.385 . S
C923 C924 1.389 1_565 S
C924 C923 1.389 1_545 S
C924 C925 1.387 . S
C925 H910 0.930 . S
C925 C920 1.390 . S
C925 C924 1.387 . S
H926 C938 0.930 . S
H927 C940 0.930 . S
H928 C941 0.930 . S
H929 C945 0.959 . S
H930 C945 0.959 . S
H931 C945 0.961 . S
H932 C946 0.960 . S
H933 C946 0.959 1_655 S
H934 C946 0.959 . S
H935 C949 0.929 . S
H936 C950 0.931 . S
H937 C952 0.930 . S
C938 H926 0.930 . S
C938 C939 1.399 1_655 S
C938 C943 1.399 . S
C939 C938 1.399 1_455 S
C939 C940 1.376 . S
C940 H927 0.930 . S
C940 C939 1.376 . S
C940 C941 1.388 . S
C941 H928 0.930 . S
C941 C940 1.388 . S
C941 C942 1.390 . S
C942 C941 1.390 . S
C942 C943 1.388 1_455 S
C942 C948 1.465 . S
C943 C938 1.399 . S
C943 C942 1.388 1_655 S
C943 C944 1.522 . S
C944 C943 1.522 . S
C944 C945 1.502 . S
C944 C946 1.561 1_655 S
C944 C947 1.526 . S
C945 H929 0.959 . S
C945 H930 0.959 . S
C945 H931 0.961 . S
C945 C944 1.502 . S
C946 H932 0.960 . S
C946 H933 0.959 1_455 S
C946 H934 0.959 . S
C946 C944 1.561 1_455 S
C947 C944 1.526 . S
C947 C948 1.396 1_655 S
C947 C952 1.390 . S
C948 C942 1.465 . S
C948 C947 1.396 1_455 S
C948 C949 1.399 . S
C949 H935 0.929 . S
C949 C948 1.399 . S
C949 C950 1.385 . S
C950 H936 0.931 . S
C950 C949 1.385 . S
C950 C951 1.389 1_455 S
C951 C950 1.389 1_655 S
C951 C952 1.387 . S
C952 H937 0.930 . S
C952 C947 1.390 . S
C952 C951 1.387 . S
H953 C965 0.930 . S
H954 C967 0.930 . S
H955 C968 0.930 . S
H956 C972 0.959 . S
H957 C972 0.959 . S
H958 C972 0.961 . S
H959 C973 0.960 . S
H960 C973 0.961 . S
H961 C973 0.959 . S
H962 C976 0.929 . S
H963 C977 0.931 . S
H964 C979 0.930 . S
C965 H953 0.930 . S
C965 C966 1.399 . S
C965 C970 1.399 . S
C966 C965 1.399 . S
C966 C967 1.376 1_545 S
C967 H954 0.930 . S
C967 C966 1.376 1_565 S
C967 C968 1.388 . S
C968 H955 0.930 . S
C968 C967 1.388 . S
C968 C969 1.390 . S
C969 C968 1.390 . S
C969 C970 1.394 1_565 S
C969 C975 1.465 . S
C970 C965 1.399 . S
C970 C969 1.394 1_545 S
C970 C971 1.516 . S
C971 C970 1.516 . S
C971 C972 1.502 . S
C971 C973 1.561 . S
C971 C974 1.526 . S
C972 H956 0.959 . S
C972 H957 0.959 . S
C972 H958 0.961 . S
C972 C971 1.502 . S
C973 H959 0.960 . S
C973 H960 0.961 . S
C973 H961 0.959 . S
C973 C971 1.561 . S
C974 C971 1.526 . S
C974 C975 1.396 1_545 S
C974 C979 1.390 . S
C975 C969 1.465 . S
C975 C974 1.396 1_565 S
C975 C976 1.399 . S
C976 H962 0.929 . S
C976 C975 1.399 . S
C976 C977 1.385 . S
C977 H963 0.931 . S
C977 C976 1.385 . S
C977 C978 1.389 . S
C978 C977 1.389 . S
C978 C979 1.387 1_565 S
C979 H964 0.930 . S
C979 C974 1.390 . S
C979 C978 1.387 1_545 S
H980 C992 0.930 . S
H981 C994 0.930 . S
H982 C995 0.930 . S
H983 C999 0.959 . S
H984 C999 0.959 1_554 S
H985 C999 0.961 . S
H986 C1000 0.959 . S
H987 C1000 0.962 1_554 S
H988 C1000 0.959 1_554 S
H989 C1003 0.929 . S
H990 C1004 0.931 . S
H991 C1006 0.930 . S
C992 H980 0.930 . S
C992 C993 1.399 . S
C992 C997 1.399 . S
C993 C992 1.399 . S
C993 C994 1.376 . S
C994 H981 0.930 . S
C994 C993 1.376 . S
C994 C995 1.388 . S
C995 H982 0.930 . S
C995 C994 1.388 . S
C995 C996 1.390 . S
C996 C995 1.390 . S
C996 C997 1.394 . S
C996 C1002 1.465 1_556 S
C997 C992 1.399 . S
C997 C996 1.394 . S
C997 C998 1.516 . S
C998 C997 1.516 . S
C998 C999 1.502 . S
C998 C1000 1.561 . S
C998 C1001 1.526 1_556 S
C999 H983 0.959 . S
C999 H984 0.959 1_556 S
C999 H985 0.961 . S
C999 C998 1.502 . S
C1000 H986 0.959 . S
C1000 H987 0.962 1_556 S
C1000 H988 0.959 1_556 S
C1000 C998 1.561 . S
C1001 C998 1.526 1_554 S
C1001 C1002 1.396 . S
C1001 C1006 1.390 . S
C1002 C996 1.465 1_554 S
C1002 C1001 1.396 . S
C1002 C1003 1.399 . S
C1003 H989 0.929 . S
C1003 C1002 1.399 . S
C1003 C1004 1.385 . S
C1004 H990 0.931 . S
C1004 C1003 1.385 . S
C1004 C1005 1.389 . S
C1005 C1004 1.389 . S
C1005 C1006 1.387 . S
C1006 H991 0.930 . S
C1006 C1001 1.390 . S
C1006 C1005 1.387 . S
H1007 C1019 0.930 . S
H1008 C1021 0.930 . S
H1009 C1022 0.930 . S
H1010 C1026 0.959 . S
H1011 C1026 0.959 1_554 S
H1012 C1026 0.961 . S
H1013 C1027 0.960 . S
H1014 C1027 0.961 1_554 S
H1015 C1027 0.959 . S
H1016 C1030 0.929 . S
H1017 C1031 0.931 . S
H1018 C1033 0.930 . S
C1019 H1007 0.930 . S
C1019 C1020 1.399 . S
C1019 C1024 1.399 . S
C1020 C1019 1.399 . S
C1020 C1021 1.376 . S
C1021 H1008 0.930 . S
C1021 C1020 1.376 . S
C1021 C1022 1.388 . S
C1022 H1009 0.930 . S
C1022 C1021 1.388 . S
C1022 C1023 1.390 . S
C1023 C1022 1.390 . S
C1023 C1024 1.394 . S
C1023 C1029 1.465 1_556 S
C1024 C1019 1.399 . S
C1024 C1023 1.394 . S
C1024 C1025 1.516 . S
C1025 C1024 1.516 . S
C1025 C1026 1.502 . S
C1025 C1027 1.561 . S
C1025 C1028 1.526 1_556 S
C1026 H1010 0.959 . S
C1026 H1011 0.959 1_556 S
C1026 H1012 0.961 . S
C1026 C1025 1.502 . S
C1027 H1013 0.960 . S
C1027 H1014 0.961 1_556 S
C1027 H1015 0.959 . S
C1027 C1025 1.561 . S
C1028 C1025 1.526 1_554 S
C1028 C1029 1.396 . S
C1028 C1033 1.390 . S
C1029 C1023 1.465 1_554 S
C1029 C1028 1.396 . S
C1029 C1030 1.399 . S
C1030 H1016 0.929 . S
C1030 C1029 1.399 . S
C1030 C1031 1.385 . S
C1031 H1017 0.931 . S
C1031 C1030 1.385 . S
C1031 C1032 1.389 . S
C1032 C1031 1.389 . S
C1032 C1033 1.387 . S
C1033 H1018 0.930 . S
C1033 C1028 1.390 . S
C1033 C1032 1.387 . S
H1034 C1046 0.930 . S
H1035 C1048 0.930 . S
H1036 C1049 0.930 . S
H1037 C1053 0.959 . S
H1038 C1053 0.959 . S
H1039 C1053 0.961 1_554 S
H1040 C1054 0.983 . S
H1041 C1054 0.938 1_556 S
H1042 C1054 0.961 . S
H1043 C1057 0.929 . S
H1044 C1058 0.931 . S
H1045 C1060 0.930 . S
C1046 H1034 0.930 . S
C1046 C1047 1.399 . S
C1046 C1051 1.399 . S
C1047 C1046 1.399 . S
C1047 C1048 1.376 . S
C1048 H1035 0.930 . S
C1048 C1047 1.376 . S
C1048 C1049 1.388 . S
C1049 H1036 0.930 . S
C1049 C1048 1.388 . S
C1049 C1050 1.390 . S
C1050 C1049 1.390 . S
C1050 C1051 1.394 . S
C1050 C1056 1.465 1_554 S
C1051 C1046 1.399 . S
C1051 C1050 1.394 . S
C1051 C1052 1.516 1_554 S
C1052 C1051 1.516 1_556 S
C1052 C1053 1.502 . S
C1052 C1054 1.559 1_556 S
C1052 C1055 1.526 . S
C1053 H1037 0.959 . S
C1053 H1038 0.959 . S
C1053 H1039 0.961 1_556 S
C1053 C1052 1.502 . S
C1054 H1040 0.983 . S
C1054 H1041 0.938 1_554 S
C1054 H1042 0.961 . S
C1054 C1052 1.559 1_554 S
C1055 C1052 1.526 . S
C1055 C1056 1.396 . S
C1055 C1060 1.390 . S
C1056 C1050 1.465 1_556 S
C1056 C1055 1.396 . S
C1056 C1057 1.399 . S
C1057 H1043 0.929 . S
C1057 C1056 1.399 . S
C1057 C1058 1.385 . S
C1058 H1044 0.931 . S
C1058 C1057 1.385 . S
C1058 C1059 1.389 . S
C1059 C1058 1.389 . S
C1059 C1060 1.387 . S
C1060 H1045 0.930 . S
C1060 C1055 1.390 . S
C1060 C1059 1.387 . S
H1061 C1073 0.930 . S
H1062 C1075 0.930 . S
H1063 C1076 0.930 . S
H1064 C1080 0.959 . S
H1065 C1080 0.959 1_554 S
H1066 C1080 0.961 . S
H1067 C1081 0.960 . S
H1068 C1081 0.961 1_554 S
H1069 C1081 0.959 . S
H1070 C1084 0.929 . S
H1071 C1085 0.931 . S
H1072 C1087 0.930 . S
C1073 H1061 0.930 . S
C1073 C1074 1.399 . S
C1073 C1078 1.399 . S
C1074 C1073 1.399 . S
C1074 C1075 1.376 . S
C1075 H1062 0.930 . S
C1075 C1074 1.376 . S
C1075 C1076 1.388 . S
C1076 H1063 0.930 . S
C1076 C1075 1.388 . S
C1076 C1077 1.390 . S
C1077 C1076 1.390 . S
C1077 C1078 1.394 . S
C1077 C1083 1.465 1_556 S
C1078 C1073 1.399 . S
C1078 C1077 1.394 . S
C1078 C1079 1.516 . S
C1079 C1078 1.516 . S
C1079 C1080 1.502 . S
C1079 C1081 1.561 . S
C1079 C1082 1.526 1_556 S
C1080 H1064 0.959 . S
C1080 H1065 0.959 1_556 S
C1080 H1066 0.961 . S
C1080 C1079 1.502 . S
C1081 H1067 0.960 . S
C1081 H1068 0.961 1_556 S
C1081 H1069 0.959 . S
C1081 C1079 1.561 . S
C1082 C1079 1.526 1_554 S
C1082 C1083 1.396 . S
C1082 C1087 1.390 . S
C1083 C1077 1.465 1_554 S
C1083 C1082 1.396 . S
C1083 C1084 1.399 . S
C1084 H1070 0.929 . S
C1084 C1083 1.399 . S
C1084 C1085 1.385 . S
C1085 H1071 0.931 . S
C1085 C1084 1.385 . S
C1085 C1086 1.389 . S
C1086 C1085 1.389 . S
C1086 C1087 1.387 . S
C1087 H1072 0.930 . S
C1087 C1082 1.390 . S
C1087 C1086 1.387 . S
C237 C7 1.439 . S
C249 C51 1.400 . S
C264 C9 1.454 . S
C276 C21 1.472 . S
C291 C23 1.447 . S
C303 C35 1.470 . S
C318 C37 1.354 . S
C330 C49 1.391 . S
C345 C63 1.413 . S
C357 C79 1.373 . S
C372 C77 1.424 . S
C384 C93 1.384 . S
C399 C91 1.435 . S
C411 C107 1.425 . S
C426 C105 1.414 . S
C438 C65 1.401 . S
C453 C119 1.446 . S
C465 C163 1.436 . S
C480 C121 1.451 . S
C492 C133 1.472 . S
C507 C135 1.357 . S
C519 C147 1.397 . S
C534 C161 1.431 . S
C546 C149 1.421 . S
C561 C191 1.455 . S
C573 C175 1.471 . S
C588 C205 1.453 . S
C600 C189 1.472 . S
C615 C203 1.456 . S
C627 C219 1.445 . S
C642 C217 1.472 . S
C654 C177 1.454 . S
C669 C8 1.252 . S
C681 C218 1.212 . S
C696 C22 1.256 . S
C708 C176 1.210 . S
C723 C190 1.251 . S
C735 C36 1.212 . S
C750 C50 1.246 . S
C762 C204 1.266 . S
C777 C134 1.264 . S
C789 C64 1.209 . S
C804 C148 1.220 . S
C816 C78 1.275 . S
C831 C92 1.226 . S
C843 C162 1.275 . S
C858 C106 1.268 . S
C870 C120 1.209 . S
C885 C3 1.623 . S
C897 C87 1.632 . S
C912 C101 1.608 . S
C924 C17 1.624 . S
C939 C59 1.621 . S
C951 C31 1.632 . S
C966 C73 1.632 . S
C978 C45 1.620 . S
C993 C115 1.619 . S
C1005 C199 1.632 . S
C1020 C129 1.607 . S
C1032 C213 1.621 . S
C1047 C171 1.618 . S
C1059 C143 1.607 . S
C1074 C157 1.607 . S
C1086 C185 1.622 . S
