# Generated by pormake.
# Topology wgf, (5)-cn, num edge types: 1
# Building blocks:
#     Node 0, Type 0, BuildingBlock: BEQFEK_clean_sbu_0, # of connection points: 5
#     Node 1, Type 0, BuildingBlock: BEQFEK_clean_sbu_0, # of connection points: 5
#     Node 2, Type 0, BuildingBlock: BEQFEK_clean_sbu_0, # of connection points: 5
#     Node 3, Type 0, BuildingBlock: BEQFEK_clean_sbu_0, # of connection points: 5
#     Node 4, Type 0, BuildingBlock: BEQFEK_clean_sbu_0, # of connection points: 5
#     Node 5, Type 0, BuildingBlock: BEQFEK_clean_sbu_0, # of connection points: 5
#     Node 6, Type 0, BuildingBlock: BEQFEK_clean_sbu_0, # of connection points: 5
#     Node 7, Type 0, BuildingBlock: BEQFEK_clean_sbu_0, # of connection points: 5
#     Node 8, Type 0, BuildingBlock: BEQFEK_clean_sbu_0, # of connection points: 5
#     Node 9, Type 0, BuildingBlock: BEQFEK_clean_sbu_0, # of connection points: 5
#     Node 10, Type 0, BuildingBlock: BEQFEK_clean_sbu_0, # of connection points: 5
#     Node 11, Type 0, BuildingBlock: BEQFEK_clean_sbu_0, # of connection points: 5
#     Node 12, Type 0, BuildingBlock: BEQFEK_clean_sbu_0, # of connection points: 5
#     Node 13, Type 0, BuildingBlock: BEQFEK_clean_sbu_0, # of connection points: 5
#     Node 14, Type 0, BuildingBlock: BEQFEK_clean_sbu_0, # of connection points: 5
#     Node 15, Type 0, BuildingBlock: BEQFEK_clean_sbu_0, # of connection points: 5
#     Node 16, Type 0, BuildingBlock: BEQFEK_clean_sbu_0, # of connection points: 5
#     Node 17, Type 0, BuildingBlock: BEQFEK_clean_sbu_0, # of connection points: 5
#     Node 18, Type 0, BuildingBlock: BEQFEK_clean_sbu_0, # of connection points: 5
#     Node 19, Type 0, BuildingBlock: BEQFEK_clean_sbu_0, # of connection points: 5
#     Node 20, Type 0, BuildingBlock: BEQFEK_clean_sbu_0, # of connection points: 5
#     Node 21, Type 0, BuildingBlock: BEQFEK_clean_sbu_0, # of connection points: 5
#     Node 22, Type 0, BuildingBlock: BEQFEK_clean_sbu_0, # of connection points: 5
#     Node 23, Type 0, BuildingBlock: BEQFEK_clean_sbu_0, # of connection points: 5
#     Node 24, Type 0, BuildingBlock: BEQFEK_clean_sbu_0, # of connection points: 5
#     Node 25, Type 0, BuildingBlock: BEQFEK_clean_sbu_0, # of connection points: 5
#     Node 26, Type 0, BuildingBlock: BEQFEK_clean_sbu_0, # of connection points: 5
#     Node 27, Type 0, BuildingBlock: BEQFEK_clean_sbu_0, # of connection points: 5
#     Node 28, Type 0, BuildingBlock: BEQFEK_clean_sbu_0, # of connection points: 5
#     Node 29, Type 0, BuildingBlock: BEQFEK_clean_sbu_0, # of connection points: 5
#     Node 30, Type 0, BuildingBlock: BEQFEK_clean_sbu_0, # of connection points: 5
#     Node 31, Type 0, BuildingBlock: BEQFEK_clean_sbu_0, # of connection points: 5
#     Edge 32, Type (0, 0), BuildingBlock: ZUJKAS_clean_linker_0, # of connection points: 2
#     Edge 33, Type (0, 0), BuildingBlock: ZUJKAS_clean_linker_0, # of connection points: 2
#     Edge 34, Type (0, 0), BuildingBlock: ZUJKAS_clean_linker_0, # of connection points: 2
#     Edge 35, Type (0, 0), BuildingBlock: ZUJKAS_clean_linker_0, # of connection points: 2
#     Edge 36, Type (0, 0), BuildingBlock: ZUJKAS_clean_linker_0, # of connection points: 2
#     Edge 37, Type (0, 0), BuildingBlock: ZUJKAS_clean_linker_0, # of connection points: 2
#     Edge 38, Type (0, 0), BuildingBlock: ZUJKAS_clean_linker_0, # of connection points: 2
#     Edge 39, Type (0, 0), BuildingBlock: ZUJKAS_clean_linker_0, # of connection points: 2
#     Edge 40, Type (0, 0), BuildingBlock: ZUJKAS_clean_linker_0, # of connection points: 2
#     Edge 41, Type (0, 0), BuildingBlock: ZUJKAS_clean_linker_0, # of connection points: 2
#     Edge 42, Type (0, 0), BuildingBlock: ZUJKAS_clean_linker_0, # of connection points: 2
#     Edge 43, Type (0, 0), BuildingBlock: ZUJKAS_clean_linker_0, # of connection points: 2
#     Edge 44, Type (0, 0), BuildingBlock: ZUJKAS_clean_linker_0, # of connection points: 2
#     Edge 45, Type (0, 0), BuildingBlock: ZUJKAS_clean_linker_0, # of connection points: 2
#     Edge 46, Type (0, 0), BuildingBlock: ZUJKAS_clean_linker_0, # of connection points: 2
#     Edge 47, Type (0, 0), BuildingBlock: ZUJKAS_clean_linker_0, # of connection points: 2
#     Edge 48, Type (0, 0), BuildingBlock: ZUJKAS_clean_linker_0, # of connection points: 2
#     Edge 49, Type (0, 0), BuildingBlock: ZUJKAS_clean_linker_0, # of connection points: 2
#     Edge 50, Type (0, 0), BuildingBlock: ZUJKAS_clean_linker_0, # of connection points: 2
#     Edge 51, Type (0, 0), BuildingBlock: ZUJKAS_clean_linker_0, # of connection points: 2
#     Edge 52, Type (0, 0), BuildingBlock: ZUJKAS_clean_linker_0, # of connection points: 2
#     Edge 53, Type (0, 0), BuildingBlock: ZUJKAS_clean_linker_0, # of connection points: 2
#     Edge 54, Type (0, 0), BuildingBlock: ZUJKAS_clean_linker_0, # of connection points: 2
#     Edge 55, Type (0, 0), BuildingBlock: ZUJKAS_clean_linker_0, # of connection points: 2
#     Edge 56, Type (0, 0), BuildingBlock: ZUJKAS_clean_linker_0, # of connection points: 2
#     Edge 57, Type (0, 0), BuildingBlock: ZUJKAS_clean_linker_0, # of connection points: 2
#     Edge 58, Type (0, 0), BuildingBlock: ZUJKAS_clean_linker_0, # of connection points: 2
#     Edge 59, Type (0, 0), BuildingBlock: ZUJKAS_clean_linker_0, # of connection points: 2
#     Edge 60, Type (0, 0), BuildingBlock: ZUJKAS_clean_linker_0, # of connection points: 2
#     Edge 61, Type (0, 0), BuildingBlock: ZUJKAS_clean_linker_0, # of connection points: 2
#     Edge 62, Type (0, 0), BuildingBlock: ZUJKAS_clean_linker_0, # of connection points: 2
#     Edge 63, Type (0, 0), BuildingBlock: ZUJKAS_clean_linker_0, # of connection points: 2
#     Edge 64, Type (0, 0), BuildingBlock: ZUJKAS_clean_linker_0, # of connection points: 2
#     Edge 65, Type (0, 0), BuildingBlock: ZUJKAS_clean_linker_0, # of connection points: 2
#     Edge 66, Type (0, 0), BuildingBlock: ZUJKAS_clean_linker_0, # of connection points: 2
#     Edge 67, Type (0, 0), BuildingBlock: ZUJKAS_clean_linker_0, # of connection points: 2
#     Edge 68, Type (0, 0), BuildingBlock: ZUJKAS_clean_linker_0, # of connection points: 2
#     Edge 69, Type (0, 0), BuildingBlock: ZUJKAS_clean_linker_0, # of connection points: 2
#     Edge 70, Type (0, 0), BuildingBlock: ZUJKAS_clean_linker_0, # of connection points: 2
#     Edge 71, Type (0, 0), BuildingBlock: ZUJKAS_clean_linker_0, # of connection points: 2
#     Edge 72, Type (0, 0), BuildingBlock: ZUJKAS_clean_linker_0, # of connection points: 2
#     Edge 73, Type (0, 0), BuildingBlock: ZUJKAS_clean_linker_0, # of connection points: 2
#     Edge 74, Type (0, 0), BuildingBlock: ZUJKAS_clean_linker_0, # of connection points: 2
#     Edge 75, Type (0, 0), BuildingBlock: ZUJKAS_clean_linker_0, # of connection points: 2
#     Edge 76, Type (0, 0), BuildingBlock: ZUJKAS_clean_linker_0, # of connection points: 2
#     Edge 77, Type (0, 0), BuildingBlock: ZUJKAS_clean_linker_0, # of connection points: 2
#     Edge 78, Type (0, 0), BuildingBlock: ZUJKAS_clean_linker_0, # of connection points: 2
#     Edge 79, Type (0, 0), BuildingBlock: ZUJKAS_clean_linker_0, # of connection points: 2
#     Edge 80, Type (0, 0), BuildingBlock: ZUJKAS_clean_linker_0, # of connection points: 2
#     Edge 81, Type (0, 0), BuildingBlock: ZUJKAS_clean_linker_0, # of connection points: 2
#     Edge 82, Type (0, 0), BuildingBlock: ZUJKAS_clean_linker_0, # of connection points: 2
#     Edge 83, Type (0, 0), BuildingBlock: ZUJKAS_clean_linker_0, # of connection points: 2
#     Edge 84, Type (0, 0), BuildingBlock: ZUJKAS_clean_linker_0, # of connection points: 2
#     Edge 85, Type (0, 0), BuildingBlock: ZUJKAS_clean_linker_0, # of connection points: 2
#     Edge 86, Type (0, 0), BuildingBlock: ZUJKAS_clean_linker_0, # of connection points: 2
#     Edge 87, Type (0, 0), BuildingBlock: ZUJKAS_clean_linker_0, # of connection points: 2
#     Edge 88, Type (0, 0), BuildingBlock: ZUJKAS_clean_linker_0, # of connection points: 2
#     Edge 89, Type (0, 0), BuildingBlock: ZUJKAS_clean_linker_0, # of connection points: 2
#     Edge 90, Type (0, 0), BuildingBlock: ZUJKAS_clean_linker_0, # of connection points: 2
#     Edge 91, Type (0, 0), BuildingBlock: ZUJKAS_clean_linker_0, # of connection points: 2
#     Edge 92, Type (0, 0), BuildingBlock: ZUJKAS_clean_linker_0, # of connection points: 2
#     Edge 93, Type (0, 0), BuildingBlock: ZUJKAS_clean_linker_0, # of connection points: 2
#     Edge 94, Type (0, 0), BuildingBlock: ZUJKAS_clean_linker_0, # of connection points: 2
#     Edge 95, Type (0, 0), BuildingBlock: ZUJKAS_clean_linker_0, # of connection points: 2
#     Edge 96, Type (0, 0), BuildingBlock: ZUJKAS_clean_linker_0, # of connection points: 2
#     Edge 97, Type (0, 0), BuildingBlock: ZUJKAS_clean_linker_0, # of connection points: 2
#     Edge 98, Type (0, 0), BuildingBlock: ZUJKAS_clean_linker_0, # of connection points: 2
#     Edge 99, Type (0, 0), BuildingBlock: ZUJKAS_clean_linker_0, # of connection points: 2
#     Edge 100, Type (0, 0), BuildingBlock: ZUJKAS_clean_linker_0, # of connection points: 2
#     Edge 101, Type (0, 0), BuildingBlock: ZUJKAS_clean_linker_0, # of connection points: 2
#     Edge 102, Type (0, 0), BuildingBlock: ZUJKAS_clean_linker_0, # of connection points: 2
#     Edge 103, Type (0, 0), BuildingBlock: ZUJKAS_clean_linker_0, # of connection points: 2
#     Edge 104, Type (0, 0), BuildingBlock: ZUJKAS_clean_linker_0, # of connection points: 2
#     Edge 105, Type (0, 0), BuildingBlock: ZUJKAS_clean_linker_0, # of connection points: 2
#     Edge 106, Type (0, 0), BuildingBlock: ZUJKAS_clean_linker_0, # of connection points: 2
#     Edge 107, Type (0, 0), BuildingBlock: ZUJKAS_clean_linker_0, # of connection points: 2
#     Edge 108, Type (0, 0), BuildingBlock: ZUJKAS_clean_linker_0, # of connection points: 2
#     Edge 109, Type (0, 0), BuildingBlock: ZUJKAS_clean_linker_0, # of connection points: 2
#     Edge 110, Type (0, 0), BuildingBlock: ZUJKAS_clean_linker_0, # of connection points: 2
#     Edge 111, Type (0, 0), BuildingBlock: ZUJKAS_clean_linker_0, # of connection points: 2
# Relax obj value: 0.543
# Max RMSD: 0.180
# Mean RMSD: 0.179
data_MOF--net-wgf--node1-BEQFEK_clean_sbu_0--edge1-ZUJKAS_clean_linker_0
_symmetry_space_group_name_H-M    P1
_symmetry_Int_Tables_number       1
_symmetry_cell_setting            triclinic
loop_
_symmetry_equiv_pos_as_xyz
'x, y, z'
_cell_length_a     104.9956
_cell_length_b     105.03181
_cell_length_c     31.385853
_cell_angle_alpha  90.000872
_cell_angle_beta   89.996175
_cell_angle_gamma 89.998792
loop_
_atom_site_label
_atom_site_type_symbol
_atom_site_fract_x
_atom_site_fract_y
_atom_site_fract_z
_atom_type_partial_charge
Co0 Co 0.06942 0.05613 0.06938 0.0
Co1 Co 0.05552 0.07849 0.02501 0.0
C2 C 0.04337 0.0648 0.09808 0.0
O3 O 0.05309 0.05757 0.1014 0.0
O4 O 0.04278 0.07336 0.06928 0.0
C5 C 0.0746 0.03095 0.10148 0.0
O6 O 0.06236 0.02878 0.09674 0.0
C7 C 0.03782 0.09354 0.97241 0.0
C8 C 0.05102 0.1081 0.9471 0.0
C9 C 0.03863 0.10372 0.94416 0.0
N10 N 0.04932 0.09182 0.9901 0.0
N11 N 0.05707 0.10074 0.97565 0.0
C12 C 0.02632 0.08578 0.98356 0.0
H13 H 0.02591 0.08438 0.01854 0.0
H14 H 0.02704 0.07623 0.96876 0.0
H15 H 0.01743 0.0905 0.97276 0.0
C16 C 0.06904 0.04549 0.98176 0.0
N17 N 0.06658 0.05484 0.00996 0.0
N18 N 0.06059 0.06421 0.99058 0.0
C19 C 0.05905 0.06102 0.94912 0.0
C20 C 0.0643 0.04904 0.94225 0.0
C21 C 0.07486 0.03295 0.99346 0.0
H22 H 0.06809 0.02761 0.01378 0.0
H23 H 0.07706 0.02704 0.9652 0.0
H24 H 0.08372 0.03457 0.0119 0.0
O25 O 0.08054 0.07053 0.0833 0.0
O26 O 0.07028 0.08649 0.05324 0.0
H27 H 0.05509 0.06592 0.88355 0.0
H28 H 0.04243 0.06911 0.92071 0.0
C29 C 0.05289 0.0693 0.91625 0.0
H30 H 0.05625 0.07924 0.91973 0.0
H31 H 0.06668 0.10145 0.98378 0.0
O32 O 0.07916 0.04163 0.0907 0.0
C33 C 0.07956 0.08229 0.07498 0.0
Co34 Co 0.19162 0.81458 0.31697 0.0
Co35 Co 0.16877 0.80201 0.27141 0.0
C36 C 0.18178 0.78865 0.34331 0.0
O37 O 0.18922 0.79816 0.34736 0.0
O38 O 0.17329 0.78841 0.31411 0.0
C39 C 0.21573 0.81761 0.35762 0.0
O40 O 0.21597 0.8051 0.35836 0.0
C41 C 0.15246 0.7866 0.21442 0.0
C42 C 0.13662 0.80012 0.20379 0.0
C43 C 0.14109 0.78824 0.19209 0.0
N44 N 0.15457 0.79713 0.23759 0.0
N45 N 0.14494 0.80504 0.23173 0.0
C46 C 0.16182 0.7759 0.21123 0.0
H47 H 0.17105 0.77863 0.22591 0.0
H48 H 0.16331 0.77318 0.17742 0.0
H49 H 0.15803 0.76751 0.22853 0.0
C50 C 0.20245 0.81463 0.23052 0.0
N51 N 0.19282 0.81219 0.25761 0.0
N52 N 0.18331 0.80686 0.23693 0.0
C53 C 0.18669 0.80582 0.19537 0.0
C54 C 0.19894 0.81069 0.19007 0.0
C55 C 0.21514 0.8197 0.24417 0.0
H56 H 0.21385 0.82922 0.25884 0.0
H57 H 0.21924 0.81328 0.26863 0.0
H58 H 0.22196 0.82043 0.21732 0.0
O59 O 0.17799 0.82642 0.33246 0.0
O60 O 0.16166 0.81678 0.30258 0.0
H61 H 0.16829 0.8029 0.16717 0.0
H62 H 0.18122 0.80447 0.12937 0.0
C63 C 0.1784 0.80057 0.16089 0.0
H64 H 0.17955 0.79009 0.15977 0.0
H65 H 0.14426 0.81405 0.24545 0.0
O66 O 0.20662 0.82324 0.33913 0.0
C67 C 0.16616 0.82578 0.32488 0.0
Co68 Co 0.43317 0.94208 0.56856 0.0
Co69 Co 0.44657 0.9214 0.51482 0.0
C70 C 0.45872 0.93065 0.59411 0.0
O71 O 0.449 0.9377 0.6003 0.0
O72 O 0.45969 0.92376 0.56072 0.0
C73 C 0.43068 0.9639 0.62056 0.0
O74 O 0.4432 0.96382 0.61977 0.0
C75 C 0.46199 0.90272 0.46567 0.0
C76 C 0.44767 0.89728 0.41731 0.0
C77 C 0.46001 0.89487 0.43052 0.0
N78 N 0.45131 0.90951 0.47229 0.0
N79 N 0.44277 0.90607 0.44363 0.0
C80 C 0.47333 0.90315 0.49449 0.0
H81 H 0.4702 0.90408 0.52806 0.0
H82 H 0.47919 0.91162 0.4865 0.0
H83 H 0.47921 0.89442 0.49132 0.0
C84 C 0.43489 0.95661 0.48817 0.0
N85 N 0.43668 0.94599 0.51136 0.0
N86 N 0.44272 0.93746 0.48833 0.0
C87 C 0.44524 0.94255 0.44967 0.0
C88 C 0.44024 0.95483 0.44818 0.0
C89 C 0.42895 0.96851 0.50538 0.0
H90 H 0.4194 0.96625 0.51847 0.0
H91 H 0.43489 0.97216 0.53194 0.0
H92 H 0.4281 0.97603 0.48078 0.0
O93 O 0.42098 0.92823 0.57353 0.0
O94 O 0.43121 0.913 0.53946 0.0
H95 H 0.44571 0.92884 0.39959 0.0
H96 H 0.4557 0.94246 0.39018 0.0
C97 C 0.45224 0.93576 0.41492 0.0
H98 H 0.46039 0.9304 0.42851 0.0
H99 H 0.43356 0.90978 0.44204 0.0
O100 O 0.42461 0.95601 0.59783 0.0
C101 C 0.42172 0.91679 0.56111 0.0
Co102 Co 0.30703 0.1845 0.81615 0.0
Co103 Co 0.33094 0.19638 0.77475 0.0
C104 C 0.31733 0.20967 0.84618 0.0
O105 O 0.30932 0.20057 0.84847 0.0
O106 O 0.32631 0.2095 0.8187 0.0
C107 C 0.28146 0.18132 0.84772 0.0
O108 O 0.2805 0.19379 0.84583 0.0
C109 C 0.34762 0.21253 0.72226 0.0
C110 C 0.36326 0.19908 0.70842 0.0
C111 C 0.3588 0.21115 0.69889 0.0
N112 N 0.34551 0.20169 0.74368 0.0
N113 N 0.35511 0.19384 0.73636 0.0
C114 C 0.33828 0.22329 0.72055 0.0
H115 H 0.32917 0.22056 0.73602 0.0
H116 H 0.33651 0.22619 0.68708 0.0
H117 H 0.34233 0.23161 0.73759 0.0
C118 C 0.29713 0.18604 0.72855 0.0
N119 N 0.30661 0.18754 0.75693 0.0
N120 N 0.31662 0.19253 0.7379 0.0
C121 C 0.31373 0.19419 0.69612 0.0
C122 C 0.3012 0.19034 0.68918 0.0
C123 C 0.28438 0.18045 0.73888 0.0
H124 H 0.28563 0.17169 0.75813 0.0
H125 H 0.27881 0.18741 0.75778 0.0
H126 H 0.27897 0.178 0.70964 0.0
O127 O 0.32012 0.17208 0.8315 0.0
O128 O 0.33722 0.18081 0.80322 0.0
H129 H 0.33247 0.19742 0.67092 0.0
H130 H 0.32008 0.19645 0.6312 0.0
C131 C 0.32246 0.19987 0.66365 0.0
H132 H 0.32129 0.21036 0.66386 0.0
H133 H 0.35574 0.18462 0.74839 0.0
O134 O 0.2916 0.17598 0.8353 0.0
C135 C 0.33198 0.17192 0.82422 0.0
Co136 Co 0.06655 0.94228 0.48745 0.0
Co137 Co 0.05383 0.92176 0.54421 0.0
C138 C 0.04062 0.93105 0.46641 0.0
O139 O 0.05009 0.93832 0.45926 0.0
O140 O 0.04036 0.92382 0.49915 0.0
C141 C 0.07622 0.95252 0.41688 0.0
O142 O 0.07149 0.94153 0.40459 0.0
C143 C 0.03852 0.90369 0.59615 0.0
C144 C 0.05307 0.89834 0.64386 0.0
C145 C 0.04057 0.89611 0.63194 0.0
N146 N 0.04928 0.91018 0.58803 0.0
N147 N 0.05797 0.90677 0.61625 0.0
C148 C 0.02702 0.90404 0.568 0.0
H149 H 0.03 0.90454 0.53418 0.0
H150 H 0.02138 0.91271 0.57531 0.0
H151 H 0.021 0.89547 0.5725 0.0
C152 C 0.06578 0.95719 0.567 0.0
N153 N 0.06379 0.94643 0.54479 0.0
N154 N 0.05806 0.93799 0.5691 0.0
C155 C 0.05604 0.94326 0.6078 0.0
C156 C 0.06097 0.95558 0.60784 0.0
C157 C 0.07136 0.96903 0.54811 0.0
H158 H 0.08154 0.96732 0.5406 0.0
H159 H 0.06642 0.97125 0.51776 0.0
H160 H 0.07053 0.97729 0.56994 0.0
O161 O 0.07845 0.92809 0.48165 0.0
O162 O 0.0689 0.91313 0.51909 0.0
H163 H 0.05642 0.92957 0.65795 0.0
H164 H 0.04675 0.94323 0.66956 0.0
C165 C 0.04967 0.93654 0.64406 0.0
H166 H 0.04123 0.93126 0.63228 0.0
H167 H 0.06726 0.91029 0.61674 0.0
O168 O 0.07487 0.95593 0.45542 0.0
C169 C 0.07801 0.91678 0.49546 0.0
Co170 Co 0.30517 0.81819 0.73692 0.0
Co171 Co 0.32676 0.80571 0.78903 0.0
C172 C 0.3155 0.792 0.71508 0.0
O173 O 0.30824 0.80153 0.70837 0.0
O174 O 0.32333 0.79193 0.74627 0.0
C175 C 0.29375 0.82979 0.6711 0.0
O176 O 0.30475 0.82605 0.65554 0.0
C177 C 0.34251 0.79008 0.84682 0.0
C178 C 0.35593 0.80475 0.87014 0.0
C179 C 0.35277 0.79203 0.87396 0.0
N180 N 0.33979 0.80117 0.82776 0.0
N181 N 0.34798 0.80984 0.8413 0.0
C182 C 0.33461 0.7783 0.84216 0.0
H183 H 0.32551 0.78047 0.82568 0.0
H184 H 0.33264 0.77408 0.8739 0.0
H185 H 0.33997 0.7712 0.82309 0.0
C186 C 0.29193 0.8177 0.81977 0.0
N187 N 0.30233 0.81581 0.79557 0.0
N188 N 0.31135 0.81048 0.81855 0.0
C189 C 0.30688 0.80881 0.8586 0.0
C190 C 0.2944 0.81335 0.86073 0.0
C191 C 0.27951 0.82244 0.80248 0.0
H192 H 0.27727 0.81738 0.77237 0.0
H193 H 0.27157 0.82101 0.82528 0.0
H194 H 0.2804 0.83273 0.79502 0.0
O195 O 0.31933 0.82997 0.72622 0.0
O196 O 0.33493 0.82019 0.75946 0.0
H197 H 0.30991 0.80492 0.92548 0.0
H198 H 0.31468 0.79245 0.88929 0.0
C199 C 0.31433 0.80291 0.89408 0.0
H200 H 0.32422 0.80659 0.89386 0.0
H201 H 0.34788 0.81937 0.83189 0.0
O202 O 0.29086 0.82673 0.70901 0.0
C203 C 0.33096 0.82922 0.7363 0.0
Co204 Co 0.43336 0.05652 0.99012 0.0
Co205 Co 0.4451 0.07997 0.03512 0.0
C206 C 0.45828 0.06779 0.96095 0.0
O207 O 0.44918 0.05982 0.95731 0.0
O208 O 0.45822 0.07619 0.99036 0.0
C209 C 0.42098 0.04283 0.93047 0.0
O210 O 0.42333 0.05368 0.9112 0.0
C211 C 0.46095 0.09614 0.09042 0.0
C212 C 0.44753 0.11186 0.10383 0.0
C213 C 0.45953 0.1073 0.11384 0.0
N214 N 0.45022 0.09418 0.06823 0.0
N215 N 0.44239 0.1038 0.07545 0.0
C216 C 0.47165 0.08674 0.09253 0.0
H217 H 0.46894 0.07769 0.07669 0.0
H218 H 0.47435 0.08489 0.12615 0.0
H219 H 0.48008 0.09077 0.07606 0.0
C220 C 0.43546 0.0453 0.07562 0.0
N221 N 0.43688 0.05517 0.04877 0.0
N222 N 0.44154 0.06505 0.06941 0.0
C223 C 0.44301 0.0617 0.11083 0.0
C224 C 0.43926 0.04907 0.11601 0.0
C225 C 0.43134 0.03229 0.06179 0.0
H226 H 0.43617 0.02975 0.03153 0.0
H227 H 0.43359 0.02496 0.08608 0.0
H228 H 0.42093 0.03237 0.05586 0.0
O229 O 0.42046 0.06966 0.97926 0.0
O230 O 0.42946 0.0865 0.00804 0.0
H231 H 0.44459 0.08042 0.13812 0.0
H232 H 0.4431 0.06765 0.17648 0.0
C233 C 0.44732 0.07047 0.14546 0.0
H234 H 0.45782 0.06985 0.14849 0.0
H235 H 0.43325 0.10455 0.06279 0.0
O236 O 0.42524 0.04111 0.96787 0.0
C237 C 0.42036 0.08144 0.98766 0.0
Co238 Co 0.19471 0.18463 0.23589 0.0
Co239 Co 0.17342 0.19617 0.2918 0.0
C240 C 0.18329 0.21063 0.21746 0.0
O241 O 0.19069 0.20132 0.20933 0.0
O242 O 0.17583 0.21036 0.24962 0.0
C243 C 0.20501 0.17489 0.16607 0.0
O244 O 0.19388 0.17938 0.15417 0.0
C245 C 0.15781 0.21085 0.35284 0.0
C246 C 0.14528 0.1955 0.37689 0.0
C247 C 0.14793 0.20833 0.38109 0.0
N248 N 0.16077 0.19998 0.33277 0.0
N249 N 0.15312 0.1909 0.34684 0.0
C250 C 0.16512 0.22298 0.34781 0.0
H251 H 0.15932 0.22987 0.32934 0.0
H252 H 0.17418 0.22125 0.3305 0.0
H253 H 0.16714 0.22723 0.37948 0.0
C254 C 0.20894 0.18494 0.31685 0.0
N255 N 0.19825 0.18677 0.29408 0.0
N256 N 0.18935 0.19168 0.31861 0.0
C257 C 0.19417 0.19308 0.35828 0.0
C258 C 0.20676 0.18884 0.35848 0.0
C259 C 0.22127 0.1806 0.29777 0.0
H260 H 0.22276 0.18537 0.26662 0.0
H261 H 0.22948 0.1827 0.31886 0.0
H262 H 0.22079 0.17019 0.29198 0.0
O263 O 0.1809 0.17237 0.22714 0.0
O264 O 0.1654 0.18154 0.26278 0.0
H265 H 0.19172 0.19625 0.4259 0.0
H266 H 0.18595 0.20878 0.39156 0.0
C267 C 0.18687 0.19832 0.39526 0.0
H268 H 0.17717 0.19416 0.3959 0.0
H269 H 0.1535 0.18144 0.33684 0.0
O270 O 0.20866 0.17672 0.20414 0.0
C271 C 0.16941 0.17266 0.23904 0.0
Co272 Co 0.94666 0.92935 0.98742 0.0
Co273 Co 0.92321 0.94127 0.03259 0.0
C274 C 0.93507 0.95369 0.95566 0.0
O275 O 0.94352 0.94501 0.95368 0.0
O276 O 0.92658 0.95356 0.98476 0.0
C277 C 0.96049 0.91829 0.92554 0.0
O278 O 0.95046 0.92278 0.90549 0.0
C279 C 0.90768 0.95881 0.08446 0.0
C280 C 0.89242 0.94578 0.10592 0.0
C281 C 0.89677 0.95817 0.10958 0.0
N282 N 0.90971 0.94726 0.06745 0.0
N283 N 0.90048 0.93957 0.08001 0.0
C284 C 0.91577 0.97022 0.07516 0.0
H285 H 0.91989 0.96952 0.04277 0.0
H286 H 0.92377 0.97062 0.09816 0.0
H287 H 0.91011 0.97911 0.07783 0.0
C288 C 0.95745 0.93067 0.07429 0.0
N289 N 0.94804 0.93291 0.04616 0.0
N290 N 0.93814 0.93775 0.06615 0.0
C291 C 0.94092 0.93854 0.10815 0.0
C292 C 0.95328 0.93409 0.11472 0.0
C293 C 0.97024 0.92555 0.06214 0.0
H294 H 0.97339 0.9299 0.0317 0.0
H295 H 0.97746 0.92751 0.0871 0.0
H296 H 0.9695 0.91511 0.05729 0.0
O297 O 0.93305 0.91683 0.97666 0.0
O298 O 0.91634 0.9254 0.00819 0.0
H299 H 0.93475 0.9393 0.17393 0.0
H300 H 0.93053 0.95286 0.14168 0.0
C301 C 0.93158 0.94237 0.14181 0.0
H302 H 0.92215 0.93808 0.13501 0.0
H303 H 0.89982 0.92998 0.07157 0.0
O304 O 0.96177 0.92063 0.96498 0.0
C305 C 0.92136 0.91649 0.98665 0.0
Co306 Co 0.81928 0.19545 0.7317 0.0
Co307 Co 0.80735 0.17254 0.78003 0.0
C308 C 0.79481 0.1835 0.70203 0.0
O309 O 0.80348 0.19194 0.69912 0.0
O310 O 0.79497 0.17527 0.73199 0.0
C311 C 0.82983 0.2089 0.66777 0.0
O312 O 0.82512 0.19882 0.64862 0.0
C313 C 0.79004 0.15649 0.83137 0.0
C314 C 0.80414 0.14465 0.86561 0.0
C315 C 0.79122 0.1471 0.86243 0.0
N316 N 0.80177 0.15959 0.81781 0.0
N317 N 0.81011 0.15231 0.83781 0.0
C318 C 0.77807 0.16224 0.81395 0.0
H319 H 0.77901 0.16373 0.77916 0.0
H320 H 0.77647 0.17167 0.82892 0.0
H321 H 0.76973 0.15602 0.8201 0.0
C322 C 0.8177 0.20729 0.81725 0.0
N323 N 0.81584 0.19748 0.79035 0.0
N324 N 0.81073 0.18789 0.81121 0.0
C325 C 0.80926 0.19131 0.85243 0.0
C326 C 0.8136 0.20374 0.85764 0.0
C327 C 0.82387 0.21956 0.80454 0.0
H328 H 0.83279 0.21753 0.78685 0.0
H329 H 0.8174 0.2248 0.78274 0.0
H330 H 0.82609 0.22561 0.83253 0.0
O331 O 0.83161 0.18165 0.72133 0.0
O332 O 0.82325 0.16545 0.75642 0.0
H333 H 0.80953 0.17452 0.89087 0.0
H334 H 0.80214 0.18807 0.91644 0.0
C335 C 0.8034 0.18298 0.88578 0.0
H336 H 0.79398 0.17964 0.87462 0.0
H337 H 0.81995 0.15288 0.83349 0.0
O338 O 0.82782 0.21037 0.70733 0.0
C339 C 0.83198 0.17013 0.73328 0.0
Co340 Co 0.55414 0.06748 0.49189 0.0
Co341 Co 0.57778 0.05491 0.53279 0.0
C342 C 0.56562 0.0437 0.45475 0.0
O343 O 0.5574 0.05262 0.45443 0.0
O344 O 0.57406 0.04309 0.48394 0.0
C345 C 0.52857 0.06993 0.4612 0.0
O346 O 0.52813 0.05745 0.46356 0.0
C347 C 0.5933 0.03682 0.5816 0.0
C348 C 0.60763 0.04979 0.60949 0.0
C349 C 0.60343 0.03729 0.61015 0.0
N350 N 0.59142 0.04858 0.56612 0.0
N351 N 0.6002 0.05622 0.58211 0.0
C352 C 0.58562 0.02549 0.56821 0.0
H353 H 0.58324 0.02618 0.53391 0.0
H354 H 0.57653 0.02529 0.58617 0.0
H355 H 0.59092 0.01651 0.5739 0.0
C356 C 0.5441 0.06522 0.57966 0.0
N357 N 0.55316 0.06307 0.55016 0.0
N358 N 0.56315 0.05784 0.56842 0.0
C359 C 0.56072 0.05654 0.61057 0.0
C360 C 0.54855 0.06119 0.61903 0.0
C361 C 0.53134 0.07088 0.56993 0.0
H362 H 0.52628 0.06462 0.54712 0.0
H363 H 0.5253 0.07187 0.59868 0.0
H364 H 0.53262 0.08034 0.55478 0.0
O365 O 0.5673 0.08044 0.4824 0.0
O366 O 0.58433 0.07123 0.51 0.0
H367 H 0.56686 0.05376 0.67581 0.0
H368 H 0.57182 0.04169 0.6385 0.0
C369 C 0.5702 0.05203 0.64278 0.0
H370 H 0.57939 0.05702 0.63793 0.0
H371 H 0.60075 0.06596 0.57586 0.0
O372 O 0.53853 0.07575 0.47301 0.0
C373 C 0.5791 0.08056 0.49107 0.0
Co374 Co 0.68247 0.8038 0.2471 0.0
Co375 Co 0.69348 0.82815 0.28796 0.0
C376 C 0.70579 0.81669 0.21086 0.0
O377 O 0.69737 0.80795 0.21057 0.0
O378 O 0.70578 0.82529 0.23966 0.0
C379 C 0.68081 0.77886 0.20977 0.0
O380 O 0.6933 0.77921 0.20739 0.0
C381 C 0.70953 0.84673 0.33367 0.0
C382 C 0.69463 0.85909 0.36145 0.0
C383 C 0.70767 0.85731 0.35944 0.0
N384 N 0.69808 0.84251 0.32099 0.0
N385 N 0.68925 0.85006 0.33713 0.0
C386 C 0.72179 0.84 0.32457 0.0
H387 H 0.71996 0.83027 0.31221 0.0
H388 H 0.72771 0.83947 0.35384 0.0
H389 H 0.72719 0.84544 0.30024 0.0
C390 C 0.68621 0.79359 0.33396 0.0
N391 N 0.68693 0.80306 0.3052 0.0
N392 N 0.69159 0.81332 0.32344 0.0
C393 C 0.69389 0.81068 0.36493 0.0
C394 C 0.69064 0.79803 0.37288 0.0
C395 C 0.68078 0.78071 0.32454 0.0
H396 H 0.67164 0.78178 0.30724 0.0
H397 H 0.68747 0.77543 0.30363 0.0
H398 H 0.67911 0.77513 0.35401 0.0
O399 O 0.66868 0.81604 0.23665 0.0
O400 O 0.67692 0.83351 0.26407 0.0
H401 H 0.69334 0.82858 0.39735 0.0
H402 H 0.70042 0.81582 0.42818 0.0
C403 C 0.69946 0.81998 0.39586 0.0
H404 H 0.70899 0.82297 0.38447 0.0
H405 H 0.67948 0.8488 0.33268 0.0
O406 O 0.67494 0.7879 0.22781 0.0
C407 C 0.66792 0.82783 0.24495 0.0
Co408 Co 0.94626 0.06657 0.57091 0.0
Co409 Co 0.92335 0.05389 0.52483 0.0
C410 C 0.93464 0.04241 0.60428 0.0
O411 O 0.94296 0.05123 0.60604 0.0
O412 O 0.92638 0.04212 0.57441 0.0
C413 C 0.95907 0.07932 0.63142 0.0
O414 O 0.94845 0.07588 0.65036 0.0
C415 C 0.9069 0.03586 0.47728 0.0
C416 C 0.89417 0.04954 0.44472 0.0
C417 C 0.89674 0.03668 0.44898 0.0
N418 N 0.91024 0.04774 0.48865 0.0
N419 N 0.90249 0.05583 0.46944 0.0
C420 C 0.91307 0.02408 0.49444 0.0
H421 H 0.91576 0.02547 0.52822 0.0
H422 H 0.9219 0.02209 0.47619 0.0
H423 H 0.9066 0.01576 0.49192 0.0
C424 C 0.958 0.06393 0.48567 0.0
N425 N 0.94822 0.06236 0.51287 0.0
N426 N 0.93861 0.05701 0.49278 0.0
C427 C 0.94199 0.05509 0.45174 0.0
C428 C 0.95444 0.05936 0.44588 0.0
C429 C 0.97024 0.07033 0.49744 0.0
H430 H 0.96815 0.07946 0.51378 0.0
H431 H 0.97553 0.0642 0.52017 0.0
H432 H 0.97628 0.07225 0.46916 0.0
O433 O 0.93242 0.07895 0.57926 0.0
O434 O 0.91611 0.06999 0.54658 0.0
H435 H 0.92507 0.05498 0.41394 0.0
H436 H 0.93859 0.04744 0.38853 0.0
C437 C 0.93358 0.04893 0.41923 0.0
H438 H 0.93028 0.0396 0.43144 0.0
H439 H 0.90303 0.0657 0.47267 0.0
O440 O 0.96116 0.07552 0.59368 0.0
C441 C 0.92083 0.07909 0.56796 0.0
Co442 Co 0.68156 0.19482 0.322 0.0
Co443 Co 0.69246 0.17085 0.27712 0.0
C444 C 0.70575 0.1822 0.35243 0.0
O445 O 0.69727 0.19085 0.35455 0.0
O446 O 0.70535 0.17366 0.32349 0.0
C447 C 0.6723 0.20968 0.38459 0.0
O448 O 0.67696 0.19978 0.40488 0.0
C449 C 0.70858 0.1534 0.22731 0.0
C450 C 0.69393 0.14064 0.20005 0.0
C451 C 0.70689 0.14302 0.20048 0.0
N452 N 0.69712 0.15694 0.24201 0.0
N453 N 0.68844 0.14915 0.22619 0.0
C454 C 0.7206 0.16064 0.23553 0.0
H455 H 0.71844 0.1702 0.24875 0.0
H456 H 0.7262 0.16163 0.2057 0.0
H457 H 0.72647 0.15533 0.25894 0.0
C458 C 0.68347 0.20549 0.23513 0.0
N459 N 0.68495 0.19592 0.26317 0.0
N460 N 0.68957 0.18587 0.24348 0.0
C461 C 0.69109 0.18876 0.20179 0.0
C462 C 0.68734 0.20133 0.19518 0.0
C463 C 0.67789 0.21816 0.24647 0.0
H464 H 0.669 0.21673 0.26492 0.0
H465 H 0.68469 0.2234 0.26711 0.0
H466 H 0.67575 0.22395 0.2178 0.0
O467 O 0.66842 0.18196 0.33407 0.0
O468 O 0.67646 0.16488 0.30327 0.0
H469 H 0.69051 0.17106 0.16817 0.0
H470 H 0.69691 0.18414 0.13727 0.0
C471 C 0.69645 0.17978 0.1694 0.0
H472 H 0.70619 0.17696 0.17912 0.0
H473 H 0.67869 0.14991 0.23211 0.0
O474 O 0.6739 0.21047 0.34461 0.0
C475 C 0.66775 0.17023 0.32479 0.0
Co476 Co 0.55217 0.92856 0.07698 0.0
Co477 Co 0.57601 0.93981 0.03274 0.0
C478 C 0.56431 0.95279 0.10844 0.0
O479 O 0.55592 0.94406 0.11086 0.0
O480 O 0.57269 0.95272 0.07894 0.0
C481 C 0.53792 0.91809 0.13874 0.0
O482 O 0.54793 0.92255 0.15895 0.0
C483 C 0.59268 0.95636 0.98184 0.0
C484 C 0.60714 0.94248 0.96014 0.0
C485 C 0.60357 0.95512 0.95719 0.0
N486 N 0.58999 0.94495 0.99877 0.0
N487 N 0.59877 0.93675 0.98624 0.0
C488 C 0.58425 0.96778 0.98586 0.0
H489 H 0.57477 0.96502 0.99845 0.0
H490 H 0.58317 0.97254 0.95448 0.0
H491 H 0.5887 0.97466 0.00816 0.0
C492 C 0.54143 0.93081 0.99008 0.0
N493 N 0.55099 0.93228 0.01819 0.0
N494 N 0.56115 0.9366 0.99839 0.0
C495 C 0.55844 0.93768 0.95641 0.0
C496 C 0.54579 0.93406 0.9496 0.0
C497 C 0.52822 0.92697 0.0026 0.0
H498 H 0.52586 0.93095 0.03437 0.0
H499 H 0.52109 0.93037 0.97913 0.0
H500 H 0.52772 0.91644 0.00468 0.0
O501 O 0.56521 0.91548 0.08808 0.0
O502 O 0.5823 0.92394 0.05876 0.0
H503 H 0.56506 0.93792 0.89107 0.0
H504 H 0.56924 0.95166 0.92271 0.0
C505 C 0.56805 0.94117 0.92317 0.0
H506 H 0.57736 0.9368 0.93088 0.0
H507 H 0.59882 0.92711 0.99433 0.0
O508 O 0.53677 0.92032 0.09919 0.0
C509 C 0.57699 0.91502 0.0794 0.0
Co510 Co 0.81567 0.80544 0.81574 0.0
Co511 Co 0.80442 0.82992 0.77602 0.0
C512 C 0.79194 0.81739 0.85145 0.0
O513 O 0.80043 0.80873 0.85147 0.0
O514 O 0.79207 0.82624 0.82356 0.0
C515 C 0.81711 0.77958 0.84472 0.0
O516 O 0.80461 0.77963 0.84236 0.0
C517 C 0.78755 0.84656 0.72637 0.0
C518 C 0.80134 0.86088 0.70314 0.0
C519 C 0.78876 0.85706 0.6996 0.0
N520 N 0.79898 0.84413 0.74364 0.0
N521 N 0.8071 0.85289 0.73042 0.0
C522 C 0.7758 0.83905 0.73653 0.0
H523 H 0.77593 0.83609 0.77042 0.0
H524 H 0.77559 0.83028 0.7169 0.0
H525 H 0.76708 0.84472 0.73034 0.0
C526 C 0.81404 0.79635 0.72669 0.0
N527 N 0.8119 0.8052 0.75687 0.0
N528 N 0.80724 0.81554 0.73909 0.0
C529 C 0.80638 0.81357 0.69653 0.0
C530 C 0.81067 0.80133 0.68732 0.0
C531 C 0.81902 0.78327 0.73579 0.0
H532 H 0.8285 0.78399 0.75119 0.0
H533 H 0.81247 0.77843 0.75821 0.0
H534 H 0.81976 0.77734 0.70669 0.0
O535 O 0.82896 0.81811 0.82858 0.0
O536 O 0.82068 0.83561 0.80106 0.0
H537 H 0.80772 0.83255 0.67197 0.0
H538 H 0.80497 0.82055 0.63178 0.0
C539 C 0.80267 0.82354 0.66481 0.0
H540 H 0.79229 0.8253 0.66706 0.0
H541 H 0.81674 0.85307 0.73849 0.0
O542 O 0.8233 0.78938 0.83358 0.0
C543 C 0.82959 0.82995 0.82082 0.0
Co544 Co 0.56275 0.55709 0.57691 0.0
Co545 Co 0.55202 0.57867 0.52026 0.0
C546 C 0.53685 0.56881 0.59348 0.0
O547 O 0.54588 0.56108 0.60164 0.0
O548 O 0.53758 0.57656 0.56214 0.0
C549 C 0.57145 0.54605 0.6474 0.0
O550 O 0.56673 0.55699 0.66026 0.0
C551 C 0.53776 0.59486 0.45959 0.0
C552 C 0.55373 0.6059 0.43217 0.0
C553 C 0.54068 0.60424 0.42993 0.0
N554 N 0.54862 0.59122 0.47851 0.0
N555 N 0.55808 0.598 0.46245 0.0
C556 C 0.52515 0.5886 0.46706 0.0
H557 H 0.519 0.5951 0.48585 0.0
H558 H 0.52636 0.57958 0.48501 0.0
H559 H 0.52034 0.58667 0.43624 0.0
C560 C 0.56286 0.54306 0.49544 0.0
N561 N 0.56109 0.55373 0.51835 0.0
N562 N 0.5564 0.56271 0.49373 0.0
C563 C 0.55507 0.55798 0.45391 0.0
C564 C 0.55906 0.54531 0.45373 0.0
C565 C 0.568 0.53093 0.51361 0.0
H566 H 0.57628 0.53305 0.53441 0.0
H567 H 0.56055 0.52638 0.53354 0.0
H568 H 0.57099 0.52422 0.4882 0.0
O569 O 0.57489 0.57087 0.58808 0.0
O570 O 0.56683 0.58637 0.54934 0.0
H571 H 0.55472 0.5739 0.41148 0.0
H572 H 0.54854 0.55935 0.38845 0.0
C573 C 0.54912 0.56516 0.41787 0.0
H574 H 0.53938 0.56811 0.42715 0.0
H575 H 0.5676 0.59696 0.47126 0.0
O576 O 0.57018 0.54289 0.6086 0.0
C577 C 0.57518 0.58226 0.575 0.0
Co578 Co 0.69124 0.315 0.81663 0.0
Co579 Co 0.66922 0.30133 0.76932 0.0
C580 C 0.68168 0.28895 0.84371 0.0
O581 O 0.68892 0.29863 0.8477 0.0
O582 O 0.67341 0.28834 0.81391 0.0
C583 C 0.71596 0.31843 0.85297 0.0
O584 O 0.71715 0.30607 0.84778 0.0
C585 C 0.65165 0.28452 0.72077 0.0
C586 C 0.64243 0.29899 0.67995 0.0
C587 C 0.64285 0.28602 0.68787 0.0
N588 N 0.65635 0.29605 0.73072 0.0
N589 N 0.6506 0.30465 0.70679 0.0
C590 C 0.65515 0.27259 0.74407 0.0
H591 H 0.65657 0.2747 0.77831 0.0
H592 H 0.66425 0.26885 0.73117 0.0
H593 H 0.6476 0.26527 0.74096 0.0
C594 C 0.70292 0.31435 0.73083 0.0
N595 N 0.69317 0.31217 0.75772 0.0
N596 N 0.68416 0.30587 0.73769 0.0
C597 C 0.68806 0.30355 0.69741 0.0
C598 C 0.70006 0.30894 0.69166 0.0
C599 C 0.71522 0.32044 0.74384 0.0
H600 H 0.71326 0.32918 0.76253 0.0
H601 H 0.72058 0.31372 0.76431 0.0
H602 H 0.72127 0.32288 0.71612 0.0
O603 O 0.67698 0.32638 0.82903 0.0
O604 O 0.66121 0.31625 0.79724 0.0
H605 H 0.67199 0.30174 0.65629 0.0
H606 H 0.68614 0.29414 0.63625 0.0
C607 C 0.68053 0.29616 0.6654 0.0
H608 H 0.67724 0.2871 0.67984 0.0
H609 H 0.65253 0.31439 0.70804 0.0
O610 O 0.70592 0.32393 0.84032 0.0
C611 C 0.66528 0.32548 0.81957 0.0
Co612 Co 0.93281 0.44179 0.06779 0.0
Co613 Co 0.94555 0.41863 0.02438 0.0
C614 C 0.9587 0.43277 0.09528 0.0
O615 O 0.94931 0.44043 0.0986 0.0
O616 O 0.95866 0.42384 0.0676 0.0
C617 C 0.92743 0.46772 0.09531 0.0
O618 O 0.93953 0.47036 0.08931 0.0
C619 C 0.96256 0.40284 0.97185 0.0
C620 C 0.94941 0.38733 0.95363 0.0
C621 C 0.96159 0.39195 0.94694 0.0
N622 N 0.95141 0.40461 0.9918 0.0
N623 N 0.94372 0.39511 0.98172 0.0
C624 C 0.97329 0.41221 0.97299 0.0
H625 H 0.97024 0.42123 0.98836 0.0
H626 H 0.97681 0.41417 0.94029 0.0
H627 H 0.98129 0.4081 0.99153 0.0
C628 C 0.93302 0.4517 0.97904 0.0
N629 N 0.93527 0.44244 0.0078 0.0
N630 N 0.9407 0.4327 0.98859 0.0
C631 C 0.94198 0.43552 0.94667 0.0
C632 C 0.93731 0.44773 0.93948 0.0
C633 C 0.92673 0.46414 0.98893 0.0
H634 H 0.91843 0.46255 0.01008 0.0
H635 H 0.93363 0.47043 0.00539 0.0
H636 H 0.92343 0.46898 0.9595 0.0
O637 O 0.92151 0.42779 0.08499 0.0
O638 O 0.93056 0.41138 0.05334 0.0
H639 H 0.94526 0.41703 0.91977 0.0
H640 H 0.94567 0.42988 0.88154 0.0
C641 C 0.94818 0.42704 0.9145 0.0
H642 H 0.95865 0.42776 0.91797 0.0
H643 H 0.93431 0.39432 0.99212 0.0
O644 O 0.92332 0.45663 0.08756 0.0
C645 C 0.92181 0.41601 0.07644 0.0
Co646 Co 0.80567 0.68493 0.32973 0.0
Co647 Co 0.82801 0.69578 0.27676 0.0
C648 C 0.8162 0.71122 0.34651 0.0
O649 O 0.8085 0.7021 0.35381 0.0
O650 O 0.82455 0.71038 0.31697 0.0
C651 C 0.79295 0.67692 0.3981 0.0
O652 O 0.80294 0.68283 0.41371 0.0
C653 C 0.84353 0.71017 0.21506 0.0
C654 C 0.85764 0.69548 0.19727 0.0
C655 C 0.85379 0.70778 0.1882 0.0
N656 N 0.8414 0.69971 0.23848 0.0
N657 N 0.85007 0.69109 0.22845 0.0
C658 C 0.83498 0.72157 0.21526 0.0
H659 H 0.84009 0.72971 0.22995 0.0
H660 H 0.82621 0.71965 0.23395 0.0
H661 H 0.83241 0.7243 0.18219 0.0
C662 C 0.79319 0.68368 0.24591 0.0
N663 N 0.80346 0.68593 0.27032 0.0
N664 N 0.81273 0.69058 0.24675 0.0
C665 C 0.80857 0.69127 0.20593 0.0
C666 C 0.79597 0.68705 0.2042 0.0
C667 C 0.78086 0.67858 0.26276 0.0
H668 H 0.78276 0.67015 0.28306 0.0
H669 H 0.77627 0.68594 0.28296 0.0
H670 H 0.77429 0.67582 0.2367 0.0
O671 O 0.81962 0.67346 0.34596 0.0
O672 O 0.83555 0.68145 0.30896 0.0
H673 H 0.82613 0.69368 0.17197 0.0
H674 H 0.81211 0.69409 0.13862 0.0
C675 C 0.81608 0.69684 0.17 0.0
H676 H 0.81578 0.70736 0.17239 0.0
H677 H 0.85044 0.68194 0.24135 0.0
O678 O 0.79108 0.67712 0.35819 0.0
C679 C 0.83123 0.67334 0.33516 0.0
Co680 Co 0.56736 0.44224 0.99369 0.0
Co681 Co 0.55272 0.42091 0.04078 0.0
C682 C 0.54147 0.43282 0.9635 0.0
O683 O 0.55137 0.43982 0.96015 0.0
O684 O 0.54028 0.42492 0.99423 0.0
C685 C 0.57194 0.46713 0.96006 0.0
O686 O 0.55976 0.4691 0.9671 0.0
C687 C 0.53549 0.40343 0.08824 0.0
C688 C 0.54974 0.39422 0.13002 0.0
C689 C 0.53686 0.39448 0.12068 0.0
N690 N 0.54704 0.40829 0.07954 0.0
N691 N 0.5555 0.40261 0.10421 0.0
C692 C 0.52365 0.40696 0.06447 0.0
H693 H 0.52589 0.40844 0.03034 0.0
H694 H 0.51987 0.41605 0.07735 0.0
H695 H 0.51629 0.39943 0.06731 0.0
C696 C 0.56569 0.45468 0.07857 0.0
N697 N 0.56376 0.44477 0.05206 0.0
N698 N 0.55712 0.43598 0.07192 0.0
C699 C 0.55438 0.44015 0.11162 0.0
C700 C 0.5597 0.45219 0.11711 0.0
C701 C 0.5734 0.46621 0.06767 0.0
H702 H 0.58156 0.46352 0.04712 0.0
H703 H 0.56733 0.47309 0.05024 0.0
H704 H 0.57707 0.47092 0.09687 0.0
O705 O 0.57876 0.4278 0.98431 0.0
O706 O 0.56779 0.41247 0.01525 0.0
H707 H 0.5514 0.42523 0.15667 0.0
H708 H 0.54248 0.43954 0.16794 0.0
C709 C 0.54596 0.43319 0.14221 0.0
H710 H 0.53771 0.4291 0.12495 0.0
H711 H 0.56523 0.40464 0.10387 0.0
O712 O 0.57683 0.45654 0.97004 0.0
C713 C 0.57744 0.41619 0.99426 0.0
Co714 Co 0.80511 0.31558 0.24122 0.0
Co715 Co 0.82723 0.30243 0.28974 0.0
C716 C 0.8158 0.29015 0.21297 0.0
O717 O 0.80818 0.29954 0.20917 0.0
O718 O 0.82389 0.2897 0.24337 0.0
C719 C 0.78047 0.31836 0.20374 0.0
O720 O 0.77968 0.30595 0.20835 0.0
C721 C 0.84568 0.28602 0.33617 0.0
C722 C 0.8536 0.30032 0.38055 0.0
C723 C 0.85431 0.28758 0.36953 0.0
N724 N 0.84004 0.29729 0.32876 0.0
N725 N 0.84499 0.30581 0.35487 0.0
C726 C 0.84333 0.27437 0.3099 0.0
H727 H 0.84202 0.27706 0.27607 0.0
H728 H 0.83446 0.26967 0.32096 0.0
H729 H 0.85141 0.26759 0.31214 0.0
C730 C 0.79291 0.31417 0.32629 0.0
N731 N 0.80284 0.31229 0.29987 0.0
N732 N 0.8119 0.30617 0.32028 0.0
C733 C 0.80787 0.30367 0.36029 0.0
C734 C 0.79573 0.30874 0.3655 0.0
C735 C 0.78059 0.32014 0.31299 0.0
H736 H 0.77544 0.31347 0.29174 0.0
H737 H 0.77436 0.32231 0.34052 0.0
H738 H 0.78251 0.32903 0.29499 0.0
O739 O 0.81908 0.32751 0.23057 0.0
O740 O 0.83479 0.31801 0.26487 0.0
H741 H 0.82341 0.30279 0.40395 0.0
H742 H 0.80969 0.29384 0.42073 0.0
C743 C 0.81553 0.2966 0.39279 0.0
H744 H 0.81979 0.28799 0.37808 0.0
H745 H 0.84229 0.31538 0.35564 0.0
O746 O 0.79028 0.32414 0.21709 0.0
C747 C 0.83062 0.32713 0.24227 0.0
Co748 Co 0.9301 0.55421 0.47974 0.0
Co749 Co 0.94334 0.57355 0.53943 0.0
C750 C 0.95625 0.56529 0.45991 0.0
O751 O 0.94657 0.55835 0.45196 0.0
O752 O 0.9568 0.57195 0.49393 0.0
C753 C 0.9203 0.54539 0.40731 0.0
O754 O 0.92512 0.55653 0.39723 0.0
C755 C 0.95858 0.59112 0.59325 0.0
C756 C 0.94418 0.59545 0.64267 0.0
C757 C 0.95649 0.59825 0.62998 0.0
N758 N 0.94798 0.58438 0.58508 0.0
N759 N 0.9394 0.58712 0.61447 0.0
C760 C 0.96996 0.59139 0.56455 0.0
H761 H 0.96683 0.59143 0.53082 0.0
H762 H 0.9757 0.58267 0.56989 0.0
H763 H 0.97593 0.59992 0.5705 0.0
C764 C 0.9308 0.53808 0.55722 0.0
N765 N 0.93285 0.54911 0.53647 0.0
N766 N 0.93883 0.55711 0.56175 0.0
C767 C 0.94093 0.5513 0.59952 0.0
C768 C 0.93588 0.53904 0.59802 0.0
C769 C 0.92401 0.52693 0.53812 0.0
H770 H 0.91604 0.53029 0.51783 0.0
H771 H 0.93074 0.52156 0.51765 0.0
H772 H 0.92024 0.52049 0.56313 0.0
O773 O 0.91852 0.56874 0.476 0.0
O774 O 0.92838 0.58283 0.51622 0.0
H775 H 0.94235 0.563 0.65493 0.0
H776 H 0.95287 0.54945 0.65528 0.0
C777 C 0.94863 0.55697 0.6349 0.0
H778 H 0.95633 0.56302 0.62173 0.0
H779 H 0.93023 0.5833 0.61514 0.0
O780 O 0.92162 0.54126 0.44506 0.0
C781 C 0.91922 0.57979 0.49187 0.0
Co782 Co 0.69502 0.68004 0.7374 0.0
Co783 Co 0.67305 0.69345 0.78508 0.0
C784 C 0.68601 0.70628 0.71168 0.0
O785 O 0.69332 0.69666 0.70688 0.0
O786 O 0.67762 0.70653 0.74117 0.0
C787 C 0.72036 0.67399 0.70521 0.0
O788 O 0.72354 0.68594 0.71151 0.0
C789 C 0.65699 0.71028 0.8383 0.0
C790 C 0.64291 0.69623 0.86152 0.0
C791 C 0.64643 0.70888 0.86461 0.0
N792 N 0.65957 0.69892 0.82073 0.0
N793 N 0.65096 0.69065 0.83405 0.0
C794 C 0.66524 0.72179 0.83314 0.0
H795 H 0.66009 0.729 0.81387 0.0
H796 H 0.67426 0.71931 0.8167 0.0
H797 H 0.66734 0.72607 0.86471 0.0
C798 C 0.70658 0.6803 0.82407 0.0
N799 N 0.69683 0.68252 0.79716 0.0
N800 N 0.68771 0.68852 0.81777 0.0
C801 C 0.69147 0.69039 0.85854 0.0
C802 C 0.70365 0.68534 0.86374 0.0
C803 C 0.71852 0.67335 0.81229 0.0
H804 H 0.71622 0.66521 0.79119 0.0
H805 H 0.72499 0.67993 0.79519 0.0
H806 H 0.72351 0.66972 0.84101 0.0
O807 O 0.68061 0.66893 0.72305 0.0
O808 O 0.66509 0.67866 0.75711 0.0
H809 H 0.67411 0.69423 0.89195 0.0
H810 H 0.68834 0.69731 0.92281 0.0
C811 C 0.68403 0.69784 0.89064 0.0
H812 H 0.68375 0.70795 0.88065 0.0
H813 H 0.65088 0.68103 0.8258 0.0
O814 O 0.70925 0.67025 0.71457 0.0
C815 C 0.669 0.66968 0.7336 0.0
Co816 Co 0.4455 0.4299 0.48247 0.0
Co817 Co 0.42335 0.44326 0.53052 0.0
C818 C 0.43422 0.45437 0.44987 0.0
O819 O 0.4423 0.44535 0.44756 0.0
O820 O 0.42621 0.4549 0.48046 0.0
C821 C 0.45732 0.41735 0.41964 0.0
O822 O 0.44679 0.42165 0.40213 0.0
C823 C 0.40732 0.46165 0.57837 0.0
C824 C 0.39473 0.44818 0.61249 0.0
C825 C 0.39723 0.461 0.60697 0.0
N826 N 0.41066 0.4497 0.56786 0.0
N827 N 0.40303 0.44173 0.58815 0.0
C828 C 0.41338 0.47334 0.56009 0.0
H829 H 0.41614 0.47169 0.52652 0.0
H830 H 0.42214 0.47559 0.57833 0.0
H831 H 0.4068 0.4816 0.56169 0.0
C832 C 0.45798 0.43223 0.56703 0.0
N833 N 0.44808 0.43408 0.54045 0.0
N834 N 0.4388 0.43979 0.56114 0.0
C835 C 0.44252 0.44172 0.60184 0.0
C836 C 0.45484 0.43702 0.60699 0.0
C837 C 0.46992 0.42539 0.55456 0.0
H838 H 0.46745 0.4166 0.5368 0.0
H839 H 0.47556 0.43157 0.53297 0.0
H840 H 0.47577 0.42283 0.5827 0.0
O841 O 0.43126 0.41787 0.47554 0.0
O842 O 0.41554 0.42728 0.5099 0.0
H843 H 0.42615 0.44234 0.64221 0.0
H844 H 0.43999 0.45023 0.66426 0.0
C845 C 0.43456 0.44832 0.63464 0.0
H846 H 0.43106 0.45747 0.62156 0.0
H847 H 0.40356 0.43184 0.58562 0.0
O848 O 0.45987 0.4205 0.45775 0.0
C849 C 0.4198 0.41804 0.48815 0.0
Co850 Co 0.31792 0.69446 0.24946 0.0
Co851 Co 0.30548 0.67084 0.29084 0.0
C852 C 0.29418 0.68266 0.21254 0.0
O853 O 0.3031 0.69088 0.21202 0.0
O854 O 0.29351 0.67433 0.2421 0.0
C855 C 0.32054 0.71913 0.2121 0.0
O856 O 0.30804 0.71899 0.2097 0.0
C857 C 0.28815 0.65435 0.34007 0.0
C858 C 0.30191 0.64028 0.36516 0.0
C859 C 0.28922 0.64384 0.36687 0.0
N860 N 0.29974 0.65698 0.32433 0.0
N861 N 0.30786 0.64839 0.3388 0.0
C862 C 0.27639 0.6616 0.32823 0.0
H863 H 0.27701 0.66485 0.29471 0.0
H864 H 0.27556 0.67018 0.34861 0.0
H865 H 0.26776 0.65562 0.33228 0.0
C866 C 0.31525 0.70481 0.33647 0.0
N867 N 0.31339 0.69555 0.3075 0.0
N868 N 0.30829 0.68556 0.32614 0.0
C869 C 0.30685 0.68817 0.36812 0.0
C870 C 0.31124 0.70048 0.37603 0.0
C871 C 0.32054 0.71767 0.32588 0.0
H872 H 0.31505 0.7218 0.29911 0.0
H873 H 0.32004 0.72431 0.35327 0.0
H874 H 0.33059 0.71664 0.31544 0.0
O875 O 0.33104 0.68146 0.24018 0.0
O876 O 0.32176 0.66448 0.26751 0.0
H877 H 0.30732 0.66953 0.39568 0.0
H878 H 0.30427 0.68212 0.43353 0.0
C879 C 0.30241 0.67875 0.40062 0.0
H880 H 0.29204 0.67718 0.39675 0.0
H881 H 0.31758 0.64833 0.33191 0.0
O882 O 0.32626 0.70998 0.23011 0.0
C883 C 0.33112 0.66966 0.24871 0.0
Co884 Co 0.0524 0.56959 0.98262 0.0
Co885 Co 0.07496 0.5566 0.02933 0.0
C886 C 0.06422 0.54511 0.95005 0.0
O887 O 0.05633 0.55431 0.94747 0.0
O888 O 0.07203 0.54432 0.98116 0.0
C889 C 0.03979 0.58191 0.92055 0.0
O890 O 0.05053 0.57847 0.90239 0.0
C891 C 0.09144 0.53955 0.08097 0.0
C892 C 0.10348 0.55404 0.11249 0.0
C893 C 0.10118 0.54108 0.11063 0.0
N894 N 0.08805 0.55114 0.06678 0.0
N895 N 0.09542 0.5597 0.08528 0.0
C896 C 0.08568 0.52738 0.0653 0.0
H897 H 0.08321 0.52823 0.0311 0.0
H898 H 0.07676 0.52543 0.08307 0.0
H899 H 0.09234 0.51929 0.06981 0.0
C900 C 0.04046 0.56752 0.06787 0.0
N901 N 0.05016 0.56547 0.04066 0.0
N902 N 0.05966 0.56004 0.06106 0.0
C903 C 0.05626 0.55848 0.10229 0.0
C904 C 0.04394 0.56314 0.10802 0.0
C905 C 0.02847 0.57436 0.05588 0.0
H906 H 0.03088 0.58306 0.03754 0.0
H907 H 0.02267 0.56812 0.03496 0.0
H908 H 0.02279 0.57708 0.08425 0.0
O909 O 0.06597 0.58224 0.9758 0.0
O910 O 0.08228 0.57248 0.00561 0.0
H911 H 0.07302 0.55843 0.14088 0.0
H912 H 0.05942 0.55088 0.16572 0.0
C913 C 0.06454 0.55236 0.13523 0.0
H914 H 0.06788 0.54303 0.12332 0.0
H915 H 0.09472 0.56949 0.08018 0.0
O916 O 0.03754 0.57827 0.95838 0.0
C917 C 0.07765 0.58194 0.98581 0.0
Co918 Co 0.18204 0.30624 0.75198 0.0
Co919 Co 0.19468 0.33019 0.79111 0.0
C920 C 0.20615 0.31695 0.71513 0.0
O921 O 0.1973 0.30866 0.7156 0.0
O922 O 0.2065 0.32585 0.74284 0.0
C923 C 0.17877 0.28104 0.71918 0.0
O924 O 0.19128 0.28069 0.71799 0.0
C925 C 0.21276 0.34678 0.83717 0.0
C926 C 0.19955 0.36153 0.86121 0.0
C927 C 0.21219 0.35775 0.86208 0.0
N928 N 0.20096 0.34417 0.82314 0.0
N929 N 0.19316 0.35312 0.83712 0.0
C930 C 0.22426 0.33911 0.82545 0.0
H931 H 0.22307 0.33488 0.79338 0.0
H932 H 0.22541 0.33118 0.84847 0.0
H933 H 0.23297 0.34509 0.82582 0.0
C934 C 0.1838 0.29706 0.84065 0.0
N935 N 0.18606 0.30587 0.81049 0.0
N936 N 0.19136 0.31594 0.82796 0.0
C937 C 0.19259 0.31382 0.8703 0.0
C938 C 0.18778 0.30178 0.87973 0.0
C939 C 0.17819 0.28423 0.83167 0.0
H940 H 0.16834 0.2854 0.8195 0.0
H941 H 0.18389 0.27947 0.80659 0.0
H942 H 0.17809 0.27804 0.86027 0.0
O943 O 0.16953 0.31962 0.73917 0.0
O944 O 0.17863 0.33673 0.76642 0.0
H945 H 0.19232 0.33264 0.89645 0.0
H946 H 0.19589 0.32032 0.93488 0.0
C947 C 0.19735 0.32348 0.9015 0.0
H948 H 0.20765 0.3251 0.89604 0.0
H949 H 0.18339 0.35331 0.8311 0.0
O950 O 0.17326 0.29072 0.7346 0.0
C951 C 0.16947 0.33149 0.74666 0.0
Co952 Co 0.44275 0.56675 0.06343 0.0
Co953 Co 0.41834 0.55555 0.02287 0.0
C954 C 0.43175 0.54238 0.09597 0.0
O955 O 0.44027 0.55101 0.09696 0.0
O956 O 0.42275 0.54277 0.06861 0.0
C957 C 0.46754 0.56999 0.10039 0.0
O958 O 0.46753 0.55755 0.10492 0.0
C959 C 0.40317 0.53914 0.96715 0.0
C960 C 0.38534 0.55023 0.96138 0.0
C961 C 0.39139 0.53933 0.9472 0.0
N962 N 0.4041 0.54956 0.99163 0.0
N963 N 0.39334 0.55604 0.98862 0.0
C964 C 0.4132 0.52904 0.96458 0.0
H965 H 0.42204 0.53219 0.98095 0.0
H966 H 0.41537 0.52658 0.93105 0.0
H967 H 0.4096 0.52028 0.98021 0.0
C968 C 0.45179 0.56621 0.97472 0.0
N969 N 0.44287 0.56368 0.00429 0.0
N970 N 0.43247 0.55944 0.98566 0.0
C971 C 0.43444 0.55948 0.94297 0.0
C972 C 0.44676 0.56372 0.93471 0.0
C973 C 0.46499 0.57062 0.98506 0.0
H974 H 0.46884 0.56488 0.01175 0.0
H975 H 0.4715 0.5697 0.9574 0.0
H976 H 0.46465 0.58072 0.99536 0.0
O977 O 0.42957 0.57924 0.07893 0.0
O978 O 0.41211 0.57124 0.05031 0.0
H979 H 0.42642 0.56199 0.88028 0.0
H980 H 0.42444 0.54646 0.90304 0.0
C981 C 0.42443 0.55677 0.91031 0.0
H982 H 0.41491 0.55956 0.92235 0.0
H983 H 0.3916 0.56465 0.00406 0.0
O984 O 0.45832 0.57533 0.0815 0.0
C985 C 0.4177 0.57984 0.07169 0.0
Co986 Co 0.18245 0.69486 0.8227 0.0
Co987 Co 0.19432 0.67125 0.77924 0.0
C988 C 0.20647 0.68231 0.85651 0.0
O989 O 0.19754 0.69053 0.85808 0.0
O990 O 0.207 0.67415 0.82636 0.0
C991 C 0.1708 0.70883 0.88255 0.0
O992 O 0.17339 0.69802 0.9018 0.0
C993 C 0.21014 0.65289 0.73126 0.0
C994 C 0.19497 0.64106 0.70247 0.0
C995 C 0.20804 0.64255 0.70461 0.0
N996 N 0.19878 0.65725 0.74434 0.0
N997 N 0.18978 0.65003 0.72752 0.0
C998 C 0.22254 0.65928 0.74089 0.0
H999 H 0.22092 0.669 0.75367 0.0
H1000 H 0.22852 0.65979 0.71176 0.0
H1001 H 0.22776 0.65361 0.76508 0.0
C1002 C 0.18503 0.70569 0.73611 0.0
N1003 N 0.18659 0.6962 0.76443 0.0
N1004 N 0.19157 0.68624 0.74524 0.0
C1005 C 0.19332 0.68912 0.70365 0.0
C1006 C 0.18928 0.70159 0.69647 0.0
C1007 C 0.1788 0.71812 0.74667 0.0
H1008 H 0.16996 0.71634 0.76507 0.0
H1009 H 0.1853 0.72379 0.76709 0.0
H1010 H 0.17641 0.72365 0.71766 0.0
O1011 O 0.169 0.68214 0.83172 0.0
O1012 O 0.17823 0.66512 0.80473 0.0
H1013 H 0.19265 0.67189 0.66758 0.0
H1014 H 0.20061 0.68488 0.64058 0.0
C1015 C 0.19904 0.6802 0.67182 0.0
H1016 H 0.20828 0.67664 0.68406 0.0
H1017 H 0.18005 0.65145 0.73218 0.0
O1018 O 0.17482 0.71052 0.84485 0.0
C1019 C 0.16893 0.67032 0.82372 0.0
Co1020 Co 0.05553 0.43204 0.56199 0.0
Co1021 Co 0.07933 0.44435 0.52134 0.0
C1022 C 0.06713 0.45619 0.59758 0.0
O1023 O 0.05902 0.44716 0.59827 0.0
O1024 O 0.07561 0.45679 0.56844 0.0
C1025 C 0.03006 0.42989 0.59524 0.0
O1026 O 0.0297 0.44239 0.59376 0.0
C1027 C 0.09701 0.46107 0.47438 0.0
C1028 C 0.11053 0.44676 0.44926 0.0
C1029 C 0.10781 0.45965 0.4492 0.0
N1030 N 0.09356 0.44951 0.48853 0.0
N1031 N 0.1018 0.44105 0.47398 0.0
C1032 C 0.08938 0.4729 0.4817 0.0
H1033 H 0.07975 0.47049 0.49388 0.0
H1034 H 0.08856 0.47845 0.45174 0.0
H1035 H 0.0943 0.47891 0.50568 0.0
C1036 C 0.04538 0.43498 0.4745 0.0
N1037 N 0.05471 0.43629 0.50359 0.0
N1038 N 0.06476 0.44144 0.48549 0.0
C1039 C 0.06213 0.44348 0.44384 0.0
C1040 C 0.04969 0.43955 0.43563 0.0
C1041 C 0.03274 0.42895 0.4835 0.0
H1042 H 0.03414 0.42012 0.50229 0.0
H1043 H 0.02688 0.43561 0.50266 0.0
H1044 H 0.02756 0.42658 0.45373 0.0
O1045 O 0.06839 0.4189 0.57328 0.0
O1046 O 0.08546 0.42828 0.54699 0.0
H1047 H 0.08032 0.44418 0.41323 0.0
H1048 H 0.06727 0.44962 0.38016 0.0
C1049 C 0.07118 0.44947 0.41297 0.0
H1050 H 0.07314 0.45938 0.42307 0.0
H1051 H 0.10121 0.43128 0.47978 0.0
O1052 O 0.0398 0.4241 0.58142 0.0
C1053 C 0.08027 0.41896 0.56597 0.0
Co1054 Co 0.31553 0.30424 0.31963 0.0
Co1055 Co 0.30346 0.32807 0.27755 0.0
C1056 C 0.29125 0.31535 0.35345 0.0
O1057 O 0.29995 0.30689 0.35406 0.0
O1058 O 0.29128 0.32416 0.3254 0.0
C1059 C 0.31834 0.27868 0.35116 0.0
O1060 O 0.30586 0.27802 0.34931 0.0
C1061 C 0.28594 0.34498 0.22994 0.0
C1062 C 0.29971 0.35914 0.20542 0.0
C1063 C 0.28694 0.35585 0.2047 0.0
N1064 N 0.29764 0.34197 0.24413 0.0
N1065 N 0.30577 0.35056 0.22976 0.0
C1066 C 0.27416 0.3378 0.24186 0.0
H1067 H 0.27522 0.33349 0.27385 0.0
H1068 H 0.27261 0.32996 0.21875 0.0
H1069 H 0.26571 0.34416 0.2417 0.0
C1070 C 0.31422 0.29453 0.23106 0.0
N1071 N 0.31202 0.30359 0.26051 0.0
N1072 N 0.30684 0.31357 0.24207 0.0
C1073 C 0.30564 0.31116 0.19992 0.0
C1074 C 0.31032 0.299 0.1915 0.0
C1075 C 0.31943 0.28161 0.24131 0.0
H1076 H 0.31308 0.27694 0.26474 0.0
H1077 H 0.32007 0.27539 0.2129 0.0
H1078 H 0.32898 0.28262 0.25601 0.0
O1079 O 0.32794 0.31769 0.33371 0.0
O1080 O 0.31944 0.33455 0.30264 0.0
H1081 H 0.30227 0.31721 0.13486 0.0
H1082 H 0.29062 0.32238 0.17357 0.0
C1083 C 0.3009 0.32062 0.168 0.0
H1084 H 0.30602 0.32976 0.17215 0.0
H1085 H 0.31554 0.35041 0.23587 0.0
O1086 O 0.32395 0.28869 0.33865 0.0
C1087 C 0.32824 0.32945 0.32451 0.0
H1088 H 0.04038 0.96538 0.64971 0.0
H1089 H 0.04032 0.98213 0.70437 0.0
H1090 H 0.08132 0.98405 0.69816 0.0
H1091 H 0.08136 0.96742 0.64329 0.0
H1092 H 0.05135 0.98305 0.78373 0.0
H1093 H 0.07143 0.02102 0.68117 0.0
H1094 H 0.06555 0.00618 0.6599 0.0
H1095 H 0.08119 0.00701 0.68313 0.0
C1096 C 0.04936 0.96932 0.66042 0.0
C1097 C 0.06088 0.96512 0.64259 0.0
C1098 C 0.04932 0.97892 0.69141 0.0
C1099 C 0.0608 0.98453 0.70482 0.0
C1100 C 0.07233 0.9801 0.6876 0.0
H1101 H 0.08391 0.03852 0.89765 0.0
H1102 H 0.0825 0.02328 0.83846 0.0
C1103 C 0.07236 0.97055 0.65655 0.0
C1104 C 0.06074 0.99485 0.73728 0.0
H1105 H 0.07048 0.02543 0.75567 0.0
C1106 C 0.05542 0.99235 0.77747 0.0
C1107 C 0.06604 0.00701 0.72906 0.0
C1108 C 0.07126 0.01054 0.68585 0.0
C1109 C 0.05561 0.00154 0.81004 0.0
C1110 C 0.06111 0.01361 0.80203 0.0
C1111 C 0.06629 0.01617 0.76173 0.0
C1112 C 0.06191 0.02354 0.8356 0.0
C1113 C 0.05025 0.99815 0.85318 0.0
C1114 C 0.05082 0.02902 0.85271 0.0
C1115 C 0.05163 0.03773 0.88637 0.0
C1116 C 0.06353 0.04105 0.90347 0.0
C1117 C 0.07463 0.03599 0.88515 0.0
C1118 C 0.07383 0.02732 0.85141 0.0
H1119 H 0.04877 0.98773 0.85673 0.0
H1120 H 0.05668 0.00147 0.87899 0.0
H1121 H 0.04091 0.00293 0.8574 0.0
H1122 H 0.04154 0.02638 0.8405 0.0
H1123 H 0.04295 0.04154 0.9 0.0
H1124 H 0.20677 0.79031 0.14287 0.0
H1125 H 0.22298 0.7902 0.08631 0.0
H1126 H 0.22551 0.83114 0.09388 0.0
H1127 H 0.20962 0.83118 0.1511 0.0
H1128 H 0.22524 0.80073 0.00779 0.0
H1129 H 0.26206 0.82127 0.1138 0.0
H1130 H 0.24694 0.81566 0.13357 0.0
H1131 H 0.24823 0.8312 0.10976 0.0
C1132 C 0.21069 0.79927 0.13192 0.0
C1133 C 0.20708 0.81074 0.15144 0.0
C1134 C 0.21998 0.79921 0.09978 0.0
C1135 C 0.22577 0.81063 0.08661 0.0
C1136 C 0.22152 0.82217 0.10436 0.0
H1137 H 0.28074 0.83283 0.89506 0.0
H1138 H 0.26431 0.83162 0.95062 0.0
C1139 C 0.21235 0.82221 0.1367 0.0
C1140 C 0.23642 0.81051 0.05511 0.0
H1141 H 0.26717 0.82033 0.03981 0.0
C1142 C 0.23443 0.80493 0.01495 0.0
C1143 C 0.2485 0.81588 0.06447 0.0
C1144 C 0.25162 0.82122 0.10789 0.0
C1145 C 0.24403 0.80494 0.98361 0.0
C1146 C 0.25594 0.81062 0.99267 0.0
C1147 C 0.258 0.81605 0.0329 0.0
C1148 C 0.26626 0.81132 0.96033 0.0
C1149 C 0.24133 0.79913 0.94061 0.0
C1150 C 0.273 0.80036 0.94805 0.0
C1151 C 0.28247 0.80107 0.91663 0.0
C1152 C 0.28528 0.81274 0.89682 0.0
C1153 C 0.27872 0.82373 0.90981 0.0
C1154 C 0.26934 0.82304 0.94145 0.0
H1155 H 0.23111 0.79666 0.93662 0.0
H1156 H 0.24415 0.8058 0.91483 0.0
H1157 H 0.24705 0.79032 0.93682 0.0
H1158 H 0.27084 0.79125 0.9625 0.0
H1159 H 0.28734 0.79245 0.90695 0.0
H1160 H 0.46133 0.96564 0.41248 0.0
H1161 H 0.46199 0.98262 0.35855 0.0
H1162 H 0.42096 0.98201 0.35114 0.0
H1163 H 0.42033 0.96528 0.40561 0.0
H1164 H 0.45384 0.9839 0.27676 0.0
H1165 H 0.42741 0.01923 0.37326 0.0
H1166 H 0.43345 0.00459 0.39554 0.0
H1167 H 0.41868 0.0047 0.3664 0.0
C1168 C 0.45249 0.9691 0.39896 0.0
C1169 C 0.44078 0.96422 0.41304 0.0
C1170 C 0.45286 0.97881 0.36835 0.0
C1171 C 0.44151 0.98382 0.35144 0.0
C1172 C 0.42983 0.97859 0.36454 0.0
H1173 H 0.41999 0.0351 0.15021 0.0
H1174 H 0.42123 0.01989 0.2094 0.0
C1175 C 0.42947 0.96896 0.3953 0.0
C1176 C 0.44186 0.99442 0.3199 0.0
H1177 H 0.43002 0.02414 0.29935 0.0
C1178 C 0.44875 0.99275 0.28193 0.0
C1179 C 0.43528 0.00603 0.32669 0.0
C1180 C 0.4284 0.00882 0.36787 0.0
C1181 C 0.44886 0.00216 0.25004 0.0
C1182 C 0.44196 0.01357 0.25636 0.0
C1183 C 0.43526 0.01536 0.29455 0.0
C1184 C 0.44112 0.02349 0.22276 0.0
C1185 C 0.45602 -0.0003 0.20918 0.0
C1186 C 0.4518 0.03081 0.21145 0.0
C1187 C 0.45107 0.03957 0.17784 0.0
C1188 C 0.43968 0.04105 0.15489 0.0
C1189 C 0.4289 0.03405 0.16727 0.0
C1190 C 0.4296 0.02539 0.20103 0.0
H1191 H 0.4593 0.98967 0.20666 0.0
H1192 H 0.44992 0.00193 0.18123 0.0
H1193 H 0.46448 0.00601 0.20779 0.0
H1194 H 0.46074 0.02957 0.22814 0.0
H1195 H 0.45952 0.04482 0.16875 0.0
H1196 H 0.2795 0.20408 0.68355 0.0
H1197 H 0.26411 0.20437 0.62485 0.0
H1198 H 0.28894 0.1804 0.55046 0.0
H1199 H 0.30435 0.17994 0.60968 0.0
H1200 H 0.27509 0.20431 0.5081 0.0
H1201 H 0.24474 0.16902 0.59307 0.0
H1202 H 0.25082 0.18222 0.62357 0.0
H1203 H 0.26162 0.1705 0.6031 0.0
C1204 C 0.28176 0.19905 0.65437 0.0
C1205 C 0.29309 0.19202 0.65096 0.0
C1206 C 0.27297 0.1992 0.62098 0.0
C1207 C 0.27537 0.19234 0.58352 0.0
C1208 C 0.28695 0.18578 0.57916 0.0
H1209 H 0.22153 0.16942 0.38748 0.0
H1210 H 0.23835 0.17037 0.44171 0.0
C1211 C 0.29576 0.18558 0.61278 0.0
C1212 C 0.26537 0.19144 0.55031 0.0
H1213 H 0.23643 0.17789 0.52979 0.0
C1214 C 0.26665 0.19852 0.51267 0.0
C1215 C 0.25442 0.18382 0.55641 0.0
C1216 C 0.25275 0.17587 0.59605 0.0
C1217 C 0.25712 0.19832 0.48114 0.0
C1218 C 0.24603 0.1909 0.48767 0.0
C1219 C 0.24488 0.18365 0.52501 0.0
C1220 C 0.2356 0.19035 0.45572 0.0
C1221 C 0.25903 0.20592 0.44088 0.0
C1222 C 0.22829 0.20119 0.44632 0.0
C1223 C 0.21864 0.20064 0.41556 0.0
C1224 C 0.21617 0.18923 0.39367 0.0
C1225 C 0.2233 0.17833 0.40382 0.0
C1226 C 0.23289 0.17887 0.43472 0.0
H1227 H 0.26911 0.20892 0.43681 0.0
H1228 H 0.2561 0.20031 0.41253 0.0
H1229 H 0.25303 0.2146 0.44217 0.0
H1230 H 0.2301 0.2101 0.46263 0.0
H1231 H 0.21332 0.20919 0.40809 0.0
H1232 H 0.90846 0.01606 0.41326 0.0
H1233 H 0.89985 0.00202 0.35895 0.0
H1234 H 0.86369 0.02137 0.36592 0.0
H1235 H 0.87221 0.03539 0.42164 0.0
H1236 H 0.87661 0.98586 0.35152 0.0
H1237 H 0.8786 0.02801 0.24328 0.0
H1238 H 0.88677 0.02802 0.29385 0.0
H1239 H 0.86972 0.02903 0.29227 0.0
C1240 C 0.89851 0.01697 0.40498 0.0
C1241 C 0.89094 0.02669 0.42231 0.0
C1242 C 0.89362 0.009 0.37355 0.0
C1243 C 0.88117 0.01072 0.3585 0.0
C1244 C 0.87333 0.01995 0.37722 0.0
H1245 H 0.87198 0.96119 0.13276 0.0
H1246 H 0.86367 0.97457 0.19064 0.0
C1247 C 0.87821 0.02792 0.40891 0.0
C1248 C 0.87732 0.00395 0.3195 0.0
H1249 H 0.87823 0.00784 0.2117 0.0
C1250 C 0.87646 0.99065 0.3209 0.0
C1251 C 0.8772 0.01031 0.27978 0.0
C1252 C 0.87814 0.02463 0.27679 0.0
C1253 C 0.87662 0.98344 0.28333 0.0
C1254 C 0.87769 0.98978 0.24381 0.0
C1255 C 0.87737 0.0031 0.24226 0.0
C1256 C 0.88196 0.98289 0.20561 0.0
C1257 C 0.87689 0.9691 0.28615 0.0
C1258 C 0.89489 0.9834 0.19477 0.0
C1259 C 0.89966 0.97576 0.16226 0.0
C1260 C 0.89152 0.96762 0.13955 0.0
C1261 C 0.87845 0.96747 0.14955 0.0
C1262 C 0.87368 0.97508 0.18243 0.0
H1263 H 0.87576 0.96565 0.31939 0.0
H1264 H 0.86913 0.96503 0.2664 0.0
H1265 H 0.88606 0.96548 0.27335 0.0
H1266 H 0.90142 0.98927 0.21292 0.0
H1267 H 0.90982 0.97574 0.15687 0.0
H1268 H 0.79066 0.12396 0.90121 0.0
H1269 H 0.77746 0.11768 0.96211 0.0
H1270 H 0.75742 0.15346 0.9545 0.0
H1271 H 0.77096 0.16007 0.89603 0.0
H1272 H 0.76811 0.14865 0.03281 0.0
H1273 H 0.73998 0.10698 0.97642 0.0
H1274 H 0.75695 0.10641 0.96872 0.0
H1275 H 0.74764 0.11789 0.94007 0.0
C1276 C 0.78322 0.13034 0.91198 0.0
C1277 C 0.78165 0.14238 0.89303 0.0
C1278 C 0.77566 0.12671 0.94656 0.0
C1279 C 0.76639 0.13506 0.96239 0.0
C1280 C 0.76446 0.14683 0.94237 0.0
H1281 H 0.70309 0.13802 0.11713 0.0
H1282 H 0.71916 0.13261 0.06415 0.0
C1283 C 0.77208 0.15052 0.9083 0.0
C1284 C 0.75961 0.13236 0.00253 0.0
H1285 H 0.73629 0.11402 0.04657 0.0
C1286 C 0.76125 0.14099 0.03615 0.0
C1287 C 0.7508 0.12228 0.0066 0.0
C1288 C 0.74862 0.11287 0.97104 0.0
C1289 C 0.75365 0.14042 0.07266 0.0
C1290 C 0.74447 0.1306 0.07625 0.0
C1291 C 0.7434 0.12145 0.04376 0.0
C1292 C 0.73458 0.13104 0.10968 0.0
C1293 C 0.75489 0.15091 0.10537 0.0
C1294 C 0.73781 0.13136 0.15309 0.0
C1295 C 0.72866 0.13475 0.18339 0.0
C1296 C 0.71617 0.13755 0.17057 0.0
C1297 C 0.7127 0.13599 0.12772 0.0
C1298 C 0.72186 0.13284 0.09746 0.0
H1299 H 0.76077 0.15897 0.09362 0.0
H1300 H 0.74539 0.15467 0.11441 0.0
H1301 H 0.75953 0.14708 0.13443 0.0
H1302 H 0.74751 0.12964 0.16325 0.0
H1303 H 0.73143 0.13554 0.21651 0.0
H1304 H 0.62665 0.03504 0.64796 0.0
H1305 H 0.6319 0.02247 0.71129 0.0
H1306 H 0.59425 0.00604 0.70944 0.0
H1307 H 0.58863 0.01922 0.64927 0.0
H1308 H 0.59994 0.01632 0.78473 0.0
H1309 H 0.63978 0.98518 0.73168 0.0
H1310 H 0.64197 0.00199 0.72403 0.0
H1311 H 0.62985 0.99376 0.69455 0.0
C1312 C 0.61959 0.02854 0.66061 0.0
C1313 C 0.60733 0.02789 0.64262 0.0
C1314 C 0.62264 0.02131 0.6966 0.0
C1315 C 0.61351 0.01322 0.7147 0.0
C1316 C 0.60147 0.01217 0.6957 0.0
H1317 H 0.60868 0.95087 0.8743 0.0
H1318 H 0.61421 0.96662 0.82035 0.0
C1319 C 0.59835 0.01954 0.66045 0.0
C1320 C 0.6158 0.00669 0.75565 0.0
H1321 H 0.63277 0.98283 0.80247 0.0
C1322 C 0.60718 0.00906 0.78886 0.0
C1323 C 0.62537 0.99738 0.76086 0.0
C1324 C 0.63474 0.99432 0.72587 0.0
C1325 C 0.60716 0.00166 0.82586 0.0
C1326 C 0.61646 0.99201 0.83063 0.0
C1327 C 0.6257 0.99027 0.79871 0.0
C1328 C 0.61544 0.98237 0.86478 0.0
C1329 C 0.59654 0.00364 0.8577 0.0
C1330 C 0.61477 0.98589 0.90791 0.0
C1331 C 0.61121 0.97694 0.93861 0.0
C1332 C 0.60873 0.96432 0.9266 0.0
C1333 C 0.6105 0.96059 0.88415 0.0
C1334 C 0.61373 0.96957 0.8534 0.0
H1335 H 0.58875 0.00965 0.84464 0.0
H1336 H 0.59238 0.9944 0.86773 0.0
H1337 H 0.60036 0.00851 0.88634 0.0
H1338 H 0.61644 0.99565 0.91753 0.0
H1339 H 0.61016 0.97991 0.97147 0.0
H1340 H 0.7876 0.8809 0.66572 0.0
H1341 H 0.77609 0.88747 0.60139 0.0
H1342 H 0.75907 0.85017 0.59316 0.0
H1343 H 0.77111 0.84331 0.6546 0.0
H1344 H 0.77094 0.85753 0.52002 0.0
H1345 H 0.73869 0.89587 0.5785 0.0
H1346 H 0.75544 0.89745 0.58942 0.0
H1347 H 0.7465 0.88494 0.61439 0.0
C1348 C 0.78119 0.8742 0.65059 0.0
C1349 C 0.78001 0.86168 0.66616 0.0
C1350 C 0.7746 0.87799 0.61401 0.0
C1351 C 0.76665 0.86934 0.59285 0.0
C1352 C 0.76511 0.85702 0.60928 0.0
H1353 H 0.70473 0.86225 0.443 0.0
H1354 H 0.72096 0.86925 0.49304 0.0
C1355 C 0.77182 0.85318 0.64521 0.0
C1356 C 0.76062 0.87247 0.55169 0.0
H1357 H 0.736 0.88905 0.50794 0.0
C1358 C 0.76342 0.86456 0.51695 0.0
C1359 C 0.75101 0.88179 0.54795 0.0
C1360 C 0.74763 0.89049 0.5845 0.0
C1361 C 0.75596 0.86473 0.48006 0.0
C1362 C 0.74576 0.87352 0.47722 0.0
C1363 C 0.74382 0.88233 0.51031 0.0
C1364 C 0.73559 0.8719 0.4451 0.0
C1365 C 0.75836 0.85469 0.4465 0.0
C1366 C 0.73824 0.87156 0.40124 0.0
C1367 C 0.72903 0.86717 0.37263 0.0
C1368 C 0.71698 0.86349 0.38757 0.0
C1369 C 0.714 0.86498 0.4308 0.0
C1370 C 0.72325 0.86905 0.45937 0.0
H1371 H 0.76529 0.84738 0.45728 0.0
H1372 H 0.74936 0.84978 0.4378 0.0
H1373 H 0.76229 0.85925 0.41747 0.0
H1374 H 0.74759 0.8741 0.38942 0.0
H1375 H 0.73139 0.86639 0.33915 0.0
H1376 H 0.54693 0.52245 0.45483 0.0
H1377 H 0.54653 0.50619 0.39872 0.0
H1378 H 0.56895 0.53062 0.31764 0.0
H1379 H 0.56947 0.54687 0.37407 0.0
H1380 H 0.53749 0.50802 0.31308 0.0
H1381 H 0.5891 0.49659 0.32095 0.0
H1382 H 0.58094 0.5052 0.36262 0.0
H1383 H 0.58539 0.51318 0.31424 0.0
C1384 C 0.55177 0.52432 0.425 0.0
C1385 C 0.55828 0.53586 0.41871 0.0
C1386 C 0.55151 0.51506 0.39298 0.0
C1387 C 0.55785 0.51712 0.35422 0.0
C1388 C 0.56415 0.52876 0.34755 0.0
H1389 H 0.55152 0.47673 0.11502 0.0
H1390 H 0.5506 0.49199 0.17393 0.0
C1391 C 0.56436 0.53806 0.37957 0.0
C1392 C 0.55783 0.50706 0.32087 0.0
H1393 H 0.57729 0.48697 0.26516 0.0
C1394 C 0.54618 0.5034 0.30264 0.0
C1395 C 0.56916 0.5009 0.30776 0.0
C1396 C 0.58187 0.50405 0.32758 0.0
C1397 C 0.5456 0.49396 0.27093 0.0
C1398 C 0.55698 0.48808 0.2569 0.0
C1399 C 0.56859 0.49153 0.27582 0.0
C1400 C 0.55707 0.47861 0.22169 0.0
C1401 C 0.5328 0.49028 0.25287 0.0
C1402 C 0.56111 0.46603 0.22885 0.0
C1403 C 0.56165 0.45729 0.19512 0.0
C1404 C 0.55834 0.46106 0.15364 0.0
C1405 C 0.5542 0.47361 0.14667 0.0
C1406 C 0.55359 0.4823 0.18033 0.0
H1407 H 0.52487 0.49327 0.27403 0.0
H1408 H 0.53149 0.495 0.22155 0.0
H1409 H 0.53221 0.47983 0.24785 0.0
H1410 H 0.5639 0.46301 0.2605 0.0
H1411 H 0.56495 0.44769 0.2012 0.0
H1412 H 0.71001 0.32841 0.64557 0.0
H1413 H 0.72635 0.32714 0.5898 0.0
H1414 H 0.72607 0.28617 0.59929 0.0
H1415 H 0.70972 0.28745 0.6552 0.0
H1416 H 0.75072 0.31592 0.60143 0.0
H1417 H 0.72395 0.29275 0.46969 0.0
H1418 H 0.71609 0.30042 0.514 0.0
H1419 H 0.72307 0.28493 0.52055 0.0
C1420 C 0.71332 0.31914 0.63517 0.0
C1421 C 0.70863 0.30803 0.65437 0.0
C1422 C 0.72265 0.31842 0.60349 0.0
C1423 C 0.72737 0.30656 0.5902 0.0
C1424 C 0.72242 0.29541 0.60855 0.0
H1425 H 0.78624 0.28735 0.40304 0.0
H1426 H 0.77039 0.28618 0.46061 0.0
C1427 C 0.71309 0.29614 0.64038 0.0
C1428 C 0.73801 0.30598 0.5591 0.0
H1429 H 0.746 0.29595 0.45909 0.0
C1430 C 0.74969 0.31156 0.57028 0.0
C1431 C 0.73668 0.30017 0.5187 0.0
C1432 C 0.72426 0.2943 0.50469 0.0
C1433 C 0.76009 0.31152 0.54213 0.0
C1434 C 0.75869 0.30598 0.50129 0.0
C1435 C 0.74707 0.30019 0.4904 0.0
C1436 C 0.76895 0.3066 0.46872 0.0
C1437 C 0.77252 0.31728 0.55661 0.0
C1438 C 0.77344 0.31844 0.45434 0.0
C1439 C 0.78253 0.31909 0.42187 0.0
C1440 C 0.78719 0.30792 0.4029 0.0
C1441 C 0.78287 0.29607 0.41763 0.0
C1442 C 0.77378 0.29541 0.45021 0.0
H1443 H 0.77324 0.31746 0.59193 0.0
H1444 H 0.78078 0.31193 0.54367 0.0
H1445 H 0.77311 0.32724 0.54507 0.0
H1446 H 0.76967 0.3272 0.46744 0.0
H1447 H 0.7857 0.32833 0.41078 0.0
H1448 H 0.94356 0.51432 0.58966 0.0
H1449 H 0.94391 0.49771 0.64463 0.0
H1450 H 0.92998 0.52472 0.73703 0.0
H1451 H 0.92941 0.54129 0.68191 0.0
H1452 H 0.95733 0.49745 0.72318 0.0
H1453 H 0.90504 0.49439 0.74733 0.0
H1454 H 0.91207 0.50194 0.70129 0.0
H1455 H 0.91148 0.51019 0.75141 0.0
C1456 C 0.94046 0.51667 0.62162 0.0
C1457 C 0.93634 0.52905 0.63149 0.0
C1458 C 0.94073 0.5072 0.65302 0.0
C1459 C 0.9368 0.50992 0.69479 0.0
C1460 C 0.93285 0.52234 0.70485 0.0
H1461 H 0.94987 0.4701 0.93101 0.0
H1462 H 0.95016 0.48439 0.8693 0.0
C1463 C 0.93263 0.53183 0.67348 0.0
C1464 C 0.93701 0.49981 0.72798 0.0
H1465 H 0.91802 0.48335 0.79722 0.0
C1466 C 0.94873 0.49432 0.73922 0.0
C1467 C 0.92577 0.4956 0.74847 0.0
C1468 C 0.91285 0.50073 0.73635 0.0
C1469 C 0.94955 0.48499 0.77128 0.0
C1470 C 0.93837 0.48114 0.7929 0.0
C1471 C 0.9266 0.48636 0.78079 0.0
C1472 C 0.93873 0.47209 0.82932 0.0
C1473 C 0.96237 0.47932 0.78168 0.0
C1474 C 0.93211 0.46046 0.82758 0.0
C1475 C 0.93195 0.45228 0.8629 0.0
C1476 C 0.93831 0.45567 0.90058 0.0
C1477 C 0.94498 0.46725 0.90216 0.0
C1478 C 0.94519 0.47538 0.86689 0.0
H1479 H 0.96927 0.48066 0.7552 0.0
H1480 H 0.96629 0.48409 0.81038 0.0
H1481 H 0.96154 0.46899 0.78864 0.0
H1482 H 0.92697 0.45778 0.79903 0.0
H1483 H 0.92658 0.44348 0.86122 0.0
H1484 H 0.77346 0.69976 0.20156 0.0
H1485 H 0.75756 0.69978 0.14441 0.0
H1486 H 0.78205 0.67597 0.06806 0.0
H1487 H 0.79785 0.67567 0.12588 0.0
H1488 H 0.75886 0.70792 0.06143 0.0
H1489 H 0.74866 0.65612 0.06757 0.0
H1490 H 0.75755 0.66423 0.10864 0.0
H1491 H 0.76516 0.65989 0.05943 0.0
C1492 C 0.77543 0.69453 0.17254 0.0
C1493 C 0.78686 0.6877 0.16807 0.0
C1494 C 0.76636 0.69457 0.13989 0.0
C1495 C 0.76849 0.68771 0.10214 0.0
C1496 C 0.78007 0.68113 0.09719 0.0
H1497 H 0.72737 0.69563 0.86352 0.0
H1498 H 0.74272 0.69649 0.92212 0.0
C1499 C 0.78916 0.68108 0.12996 0.0
C1500 C 0.75858 0.68752 0.06816 0.0
H1501 H 0.73923 0.66772 0.01078 0.0
C1502 C 0.75456 0.69913 0.05041 0.0
C1503 C 0.75278 0.67608 0.05426 0.0
C1504 C 0.75614 0.66337 0.07369 0.0
C1505 C 0.74511 0.69958 0.01867 0.0
C1506 C 0.73964 0.68809 0.0037 0.0
C1507 C 0.74348 0.67651 0.02202 0.0
C1508 C 0.73012 0.68787 0.96848 0.0
C1509 C 0.74094 0.71238 0.00192 0.0
C1510 C 0.71797 0.68253 0.97466 0.0
C1511 C 0.7092 0.68194 0.94098 0.0
C1512 C 0.71247 0.68662 0.90051 0.0
C1513 C 0.7246 0.69198 0.89445 0.0
C1514 C 0.73334 0.69256 0.92801 0.0
H1515 H 0.74321 0.72016 0.02471 0.0
H1516 H 0.74604 0.71441 0.9717 0.0
H1517 H 0.73055 0.71252 0.99536 0.0
H1518 H 0.7153 0.67875 0.00552 0.0
H1519 H 0.69998 0.67759 0.94628 0.0
H1520 H 0.40853 0.48207 0.64109 0.0
H1521 H 0.39921 0.49698 0.69152 0.0
H1522 H 0.36317 0.47746 0.68283 0.0
H1523 H 0.37244 0.4625 0.63135 0.0
H1524 H 0.37637 0.5133 0.69134 0.0
H1525 H 0.37514 0.47339 0.80889 0.0
H1526 H 0.3841 0.47213 0.76003 0.0
H1527 H 0.36703 0.47157 0.75874 0.0
C1528 C 0.39849 0.48125 0.64833 0.0
C1529 C 0.39115 0.47125 0.63175 0.0
C1530 C 0.39319 0.48972 0.67748 0.0
C1531 C 0.38054 0.48825 0.69089 0.0
C1532 C 0.37297 0.47868 0.6729 0.0
H1533 H 0.36879 0.52696 0.93705 0.0
H1534 H 0.36155 0.51532 0.87322 0.0
C1535 C 0.37827 0.47018 0.64361 0.0
C1536 C 0.37605 0.49586 0.72735 0.0
H1537 H 0.37429 0.49412 0.83564 0.0
C1538 C 0.3755 0.50912 0.7228 0.0
C1539 C 0.3748 0.49031 0.76822 0.0
C1540 C 0.37531 0.47608 0.77466 0.0
C1541 C 0.3749 0.51705 0.75859 0.0
C1542 C 0.37509 0.51152 0.79962 0.0
C1543 C 0.37424 0.49827 0.804 0.0
C1544 C 0.37877 0.519 0.83735 0.0
C1545 C 0.37494 0.53128 0.75231 0.0
C1546 C 0.39088 0.52462 0.83829 0.0
C1547 C 0.39503 0.53102 0.87447 0.0
C1548 C 0.38721 0.53176 0.91054 0.0
C1549 C 0.37502 0.52626 0.90965 0.0
C1550 C 0.37087 0.51974 0.87334 0.0
H1551 H 0.37028 0.53392 0.72176 0.0
H1552 H 0.36999 0.53622 0.77886 0.0
H1553 H 0.38493 0.53471 0.75107 0.0
H1554 H 0.39719 0.52395 0.81106 0.0
H1555 H 0.40425 0.53563 0.87382 0.0
H1556 H 0.28823 0.61983 0.39926 0.0
H1557 H 0.27634 0.61278 0.46217 0.0
H1558 H 0.25814 0.64953 0.46946 0.0
H1559 H 0.27049 0.65687 0.40925 0.0
H1560 H 0.27073 0.64222 0.54312 0.0
H1561 H 0.23869 0.60372 0.48445 0.0
H1562 H 0.2554 0.60269 0.47211 0.0
H1563 H 0.24595 0.61507 0.4487 0.0
C1564 C 0.28147 0.6263 0.41378 0.0
C1565 C 0.28011 0.63883 0.39851 0.0
C1566 C 0.27465 0.62223 0.44953 0.0
C1567 C 0.26632 0.63062 0.47014 0.0
C1568 C 0.26449 0.64289 0.45369 0.0
H1569 H 0.20491 0.63779 0.621 0.0
H1570 H 0.22095 0.6306 0.57061 0.0
C1571 C 0.2714 0.64702 0.41854 0.0
C1572 C 0.26037 0.62736 0.51125 0.0
H1573 H 0.23588 0.6106 0.55496 0.0
C1574 C 0.26324 0.63516 0.54617 0.0
C1575 C 0.25081 0.61799 0.5149 0.0
C1576 C 0.24743 0.60938 0.47812 0.0
C1577 C 0.25589 0.63483 0.58328 0.0
C1578 C 0.24571 0.62602 0.58604 0.0
C1579 C 0.24369 0.61732 0.55267 0.0
C1580 C 0.23558 0.6276 0.6183 0.0
C1581 C 0.25837 0.64475 0.61719 0.0
C1582 C 0.23829 0.6278 0.66213 0.0
C1583 C 0.22919 0.6323 0.69095 0.0
C1584 C 0.21721 0.63625 0.67624 0.0
C1585 C 0.21414 0.63487 0.63303 0.0
C1586 C 0.22328 0.63068 0.60425 0.0
H1587 H 0.26535 0.65205 0.60666 0.0
H1588 H 0.24941 0.64969 0.6261 0.0
H1589 H 0.26228 0.64007 0.64604 0.0
H1590 H 0.24761 0.62509 0.67375 0.0
H1591 H 0.2316 0.63296 0.72442 0.0
H1592 H 0.11465 0.45574 0.36744 0.0
H1593 H 0.12072 0.47166 0.31522 0.0
H1594 H 0.12047 0.50058 0.41304 0.0
H1595 H 0.11393 0.48456 0.46551 0.0
H1596 H 0.10586 0.50729 0.35243 0.0
H1597 H 0.15019 0.49178 0.27579 0.0
H1598 H 0.13948 0.47854 0.27602 0.0
H1599 H 0.14496 0.48513 0.32591 0.0
C1600 C 0.11621 0.46543 0.37807 0.0
C1601 C 0.11357 0.46902 0.42019 0.0
C1602 C 0.11986 0.47452 0.34823 0.0
C1603 C 0.12125 0.48732 0.36021 0.0
C1604 C 0.11949 0.49075 0.40311 0.0
H1605 H 0.12491 0.5412 0.14507 0.0
H1606 H 0.13216 0.52906 0.20726 0.0
C1607 C 0.11563 0.48165 0.43292 0.0
C1608 C 0.12202 0.49718 0.32665 0.0
H1609 H 0.13466 0.50258 0.22807 0.0
C1610 C 0.11244 0.50649 0.3259 0.0
C1611 C 0.13069 0.49635 0.29218 0.0
C1612 C 0.14198 0.48748 0.29288 0.0
C1613 C 0.11053 0.51412 0.29002 0.0
C1614 C 0.11818 0.51213 0.25359 0.0
C1615 C 0.12855 0.50375 0.25566 0.0
C1616 C 0.11484 0.51804 0.21253 0.0
C1617 C 0.09999 0.52389 0.29085 0.0
C1618 C 0.10297 0.5154 0.19404 0.0
C1619 C 0.09877 0.52234 0.15897 0.0
C1620 C 0.10651 0.53186 0.14124 0.0
C1621 C 0.11877 0.53387 0.15807 0.0
C1622 C 0.12293 0.52697 0.19347 0.0
H1623 H 0.09788 0.52703 0.32392 0.0
H1624 H 0.10248 0.53238 0.27145 0.0
H1625 H 0.09118 0.51961 0.27757 0.0
H1626 H 0.09667 0.50841 0.20819 0.0
H1627 H 0.08914 0.52081 0.14794 0.0
H1628 H 0.21362 0.38241 0.88805 0.0
H1629 H 0.22704 0.39107 0.94506 0.0
H1630 H 0.24575 0.35473 0.95739 0.0
H1631 H 0.23207 0.34586 0.90291 0.0
H1632 H 0.22629 0.3782 0.029 0.0
H1633 H 0.27508 0.38218 0.96333 0.0
H1634 H 0.26095 0.3832 0.93051 0.0
H1635 H 0.26694 0.36794 0.94703 0.0
C1636 C 0.22082 0.37636 0.90224 0.0
C1637 C 0.22194 0.3635 0.89007 0.0
C1638 C 0.22848 0.38134 0.93459 0.0
C1639 C 0.23751 0.37359 0.95464 0.0
C1640 C 0.23907 0.36096 0.94128 0.0
H1641 H 0.26646 0.34486 0.16433 0.0
H1642 H 0.25305 0.35438 0.11025 0.0
C1643 C 0.23128 0.35591 0.9096 0.0
C1644 C 0.24394 0.37773 0.99393 0.0
H1645 H 0.27343 0.3774 0.03885 0.0
C1646 C 0.2366 0.37853 0.03119 0.0
C1647 C 0.25734 0.37825 0.99651 0.0
C1648 C 0.26555 0.37797 0.95713 0.0
C1649 C 0.2424 0.37833 0.07137 0.0
C1650 C 0.25578 0.37734 0.07392 0.0
C1651 C 0.26314 0.37807 0.03669 0.0
C1652 C 0.26208 0.37287 0.11304 0.0
C1653 C 0.23418 0.37816 0.11074 0.0
C1654 C 0.27148 0.3802 0.13297 0.0
C1655 C 0.27901 0.37485 0.165 0.0
C1656 C 0.27737 0.36203 0.17701 0.0
C1657 C 0.26766 0.35488 0.15769 0.0
C1658 C 0.26003 0.36029 0.12627 0.0
H1659 H 0.22482 0.38278 0.10477 0.0
H1660 H 0.23238 0.36814 0.12022 0.0
H1661 H 0.23898 0.38306 0.13768 0.0
H1662 H 0.27331 0.38987 0.1226 0.0
H1663 H 0.28649 0.38058 0.17907 0.0
H1664 H 0.95841 0.08637 0.71437 0.0
H1665 H 0.97328 0.09992 0.75205 0.0
H1666 H 0.99448 0.10594 0.63591 0.0
H1667 H 0.97969 0.09187 0.59785 0.0
H1668 H 0.00969 0.09907 0.69525 0.0
H1669 H 0.98058 0.13661 0.76621 0.0
H1670 H 0.97244 0.12199 0.77658 0.0
H1671 H 0.97481 0.12713 0.72218 0.0
C1672 C 0.96613 0.09069 0.69659 0.0
C1673 C 0.96796 0.08798 0.65327 0.0
C1674 C 0.97451 0.09866 0.71806 0.0
C1675 C 0.98479 0.10431 0.69657 0.0
C1676 C 0.98649 0.10186 0.65294 0.0
H1677 H 0.03481 0.12711 0.90877 0.0
H1678 H 0.02355 0.13177 0.84173 0.0
C1679 C 0.97812 0.09374 0.6314 0.0
C1680 C 0.99476 0.11074 0.72196 0.0
H1681 H 0.99706 0.12693 0.81573 0.0
C1682 C 0.00709 0.10562 0.72051 0.0
C1683 C 0.99163 0.11964 0.7542 0.0
C1684 C 0.97916 0.12674 0.7544 0.0
C1685 C 0.01557 0.10752 0.75422 0.0
C1686 C 0.01146 0.11445 0.79023 0.0
C1687 C -0.0 0.12125 0.78859 0.0
C1688 C 0.01747 0.11232 0.83196 0.0
C1689 C 0.0284 0.10106 0.75291 0.0
C1690 C 0.01725 0.1 0.84909 0.0
C1691 C 0.02356 0.09734 0.88695 0.0
C1692 C 0.03 0.10703 0.90889 0.0
C1693 C 0.02976 0.11952 0.89264 0.0
C1694 C 0.02343 0.12218 0.85443 0.0
H1695 H 0.03192 0.10024 0.71963 0.0
H1696 H 0.03554 0.10633 0.77218 0.0
H1697 H 0.02749 0.09128 0.76599 0.0
H1698 H 0.01253 0.09231 0.83232 0.0
H1699 H 0.02397 0.08754 0.89746 0.0
H1700 H 0.14127 0.76228 0.18032 0.0
H1701 H 0.13792 0.75121 0.11284 0.0
H1702 H 0.12561 0.78629 0.05457 0.0
H1703 H 0.1295 0.79756 0.12131 0.0
H1704 H 0.11785 0.74876 0.04808 0.0
H1705 H 0.15993 0.77742 0.99615 0.0
H1706 H 0.15526 0.77661 0.05135 0.0
H1707 H 0.14595 0.78569 0.01424 0.0
C1708 C 0.13785 0.76763 0.15322 0.0
C1709 C 0.13628 0.78087 0.15545 0.0
C1710 C 0.1357 0.76126 0.11493 0.0
C1711 C 0.1318 0.76804 0.07868 0.0
C1712 C 0.1288 0.78098 0.08215 0.0
H1713 H 0.16192 0.73142 0.85023 0.0
H1714 H 0.14821 0.74692 0.88658 0.0
C1715 C 0.13104 0.78737 0.12034 0.0
C1716 C 0.13315 0.76199 0.03664 0.0
H1717 H 0.155 0.75933 0.95697 0.0
C1718 C 0.12573 0.75125 0.02733 0.0
C1719 C 0.14333 0.76541 0.0094 0.0
C1720 C 0.15164 0.77687 0.01811 0.0
C1721 C 0.12896 0.74318 0.99348 0.0
C1722 C 0.14003 0.74583 0.96937 0.0
C1723 C 0.14657 0.7573 0.97577 0.0
C1724 C 0.14655 0.73586 0.9445 0.0
C1725 C 0.12095 0.73152 0.98547 0.0
C1726 C 0.15026 0.72465 0.9653 0.0
C1727 C 0.15811 0.7159 0.94497 0.0
C1728 C 0.16253 0.71824 0.90349 0.0
C1729 C 0.1587 0.72941 0.88233 0.0
C1730 C 0.15079 0.73819 0.90282 0.0
H1731 H 0.11076 0.73349 0.99251 0.0
H1732 H 0.12181 0.72818 0.95201 0.0
H1733 H 0.12408 0.72376 0.00705 0.0
H1734 H 0.14751 0.72287 0.99803 0.0
H1735 H 0.16088 0.7074 0.96215 0.0
H1736 H 0.52176 0.90036 0.10413 0.0
H1737 H 0.50856 0.88494 0.14306 0.0
H1738 H 0.52123 0.90112 0.26217 0.0
H1739 H 0.53462 0.91614 0.22385 0.0
H1740 H 0.52135 0.87448 0.26239 0.0
H1741 H 0.47525 0.89389 0.20165 0.0
H1742 H 0.48685 0.88804 0.16434 0.0
H1743 H 0.48993 0.90243 0.19341 0.0
C1744 C 0.52162 0.90064 0.13863 0.0
C1745 C 0.52912 0.90948 0.16108 0.0
C1746 C 0.51414 0.89181 0.16075 0.0
C1747 C 0.51394 0.89189 0.20545 0.0
C1748 C 0.52138 0.90079 0.22765 0.0
H1749 H 0.48559 0.89892 0.41988 0.0
H1750 H 0.49891 0.88985 0.36498 0.0
C1751 C 0.52893 0.90945 0.20573 0.0
C1752 C 0.50553 0.88344 0.23039 0.0
H1753 H 0.47499 0.88322 0.26649 0.0
C1754 C 0.51112 0.87598 0.26251 0.0
C1755 C 0.49217 0.88511 0.22982 0.0
C1756 C 0.48562 0.8928 0.19561 0.0
C1757 C 0.50397 0.87182 0.2975 0.0
C1758 C 0.491 0.87522 0.30004 0.0
C1759 C 0.48502 0.88079 0.26463 0.0
C1760 C 0.48459 0.87676 0.34156 0.0
C1761 C 0.51059 0.86497 0.33339 0.0
C1762 C 0.47224 0.87206 0.34787 0.0
C1763 C 0.4646 0.87713 0.38009 0.0
C1764 C 0.46915 0.88709 0.406 0.0
C1765 C 0.48187 0.89099 0.4018 0.0
C1766 C 0.48954 0.88579 0.37007 0.0
H1767 H 0.51832 0.85879 0.32094 0.0
H1768 H 0.515 0.87208 0.35503 0.0
H1769 H 0.5038 0.85908 0.35208 0.0
H1770 H 0.4682 0.86523 0.32582 0.0
H1771 H 0.45482 0.87395 0.38261 0.0
H1772 H 0.36065 0.23695 0.68797 0.0
H1773 H 0.35902 0.24799 0.61935 0.0
H1774 H 0.36216 0.21206 0.55361 0.0
H1775 H 0.36399 0.20107 0.62159 0.0
H1776 H 0.37169 0.23277 0.50596 0.0
H1777 H 0.32314 0.24085 0.57126 0.0
H1778 H 0.33569 0.24764 0.60276 0.0
H1779 H 0.33458 0.23063 0.59695 0.0
C1780 C 0.36142 0.2315 0.65878 0.0
C1781 C 0.36203 0.21817 0.65987 0.0
C1782 C 0.36052 0.23779 0.61973 0.0
C1783 C 0.36008 0.23074 0.58174 0.0
C1784 C 0.36238 0.21763 0.58268 0.0
H1785 H 0.31019 0.25545 0.37976 0.0
H1786 H 0.32161 0.24127 0.42836 0.0
C1787 C 0.36342 0.21136 0.6216 0.0
C1788 C 0.35476 0.23643 0.54274 0.0
H1789 H 0.32749 0.24949 0.50373 0.0
C1790 C 0.36204 0.23647 0.50527 0.0
C1791 C 0.342 0.24071 0.54179 0.0
C1792 C 0.33333 0.23986 0.58017 0.0
C1793 C 0.35697 0.24111 0.46692 0.0
C1794 C 0.34442 0.24604 0.4666 0.0
C1795 C 0.3371 0.24569 0.50395 0.0
C1796 C 0.33887 0.25257 0.42931 0.0
C1797 C 0.36503 0.24051 0.42718 0.0
C1798 C 0.34498 0.2633 0.41243 0.0
C1799 C 0.33856 0.27128 0.38431 0.0
C1800 C 0.32579 0.26884 0.3734 0.0
C1801 C 0.31997 0.25763 0.38797 0.0
C1802 C 0.32649 0.24952 0.41563 0.0
H1803 H 0.37192 0.2325 0.42873 0.0
H1804 H 0.35909 0.23939 0.39815 0.0
H1805 H 0.37059 0.24945 0.42428 0.0
H1806 H 0.35439 0.26603 0.42323 0.0
H1807 H 0.34335 0.27982 0.3735 0.0
H1808 H 0.04569 0.87569 0.68235 0.0
H1809 H 0.03225 0.86744 0.73978 0.0
H1810 H 0.00167 0.89194 0.69871 0.0
H1811 H 0.01508 0.90063 0.64333 0.0
H1812 H 0.02481 0.88601 0.7983 0.0
H1813 H 0.98246 0.86023 0.74141 0.0
H1814 H 0.99728 0.86062 0.71191 0.0
H1815 H 0.98597 0.87345 0.7072 0.0
C1816 C 0.03593 0.87898 0.68468 0.0
C1817 C 0.03143 0.88874 0.65788 0.0
C1818 C 0.02826 0.87417 0.71728 0.0
C1819 C 0.01591 0.87891 0.72302 0.0
C1820 C 0.01104 0.88784 0.694 0.0
H1821 H 0.96345 0.91624 0.84028 0.0
H1822 H 0.97743 0.90186 0.80163 0.0
C1823 C 0.01876 0.8928 0.66197 0.0
C1824 C 0.00928 0.87737 0.76412 0.0
H1825 H 0.97881 0.87549 0.80021 0.0
C1826 C 0.01487 0.88322 0.7997 0.0
C1827 C 0.99643 0.87354 0.76591 0.0
C1828 C 0.99024 0.86648 0.72961 0.0
C1829 C 0.00741 0.88727 0.83414 0.0
C1830 C 0.99413 0.88503 0.83304 0.0
C1831 C 0.98897 0.8774 0.80057 0.0
C1832 C 0.98527 0.89297 0.85815 0.0
C1833 C 0.01352 0.89523 0.86857 0.0
C1834 C 0.98512 0.89284 0.90286 0.0
C1835 C 0.9773 0.90133 0.92517 0.0
C1836 C 0.96939 0.90985 0.90292 0.0
C1837 C 0.96945 0.90979 0.85826 0.0
C1838 C 0.97735 0.90149 0.83614 0.0
H1839 H 0.02381 0.89693 0.86256 0.0
H1840 H 0.00867 0.9046 0.8711 0.0
H1841 H 0.01258 0.89031 0.89968 0.0
H1842 H 0.99105 0.88624 0.92041 0.0
H1843 H 0.97727 0.90107 0.95967 0.0
H1844 H 0.31183 0.73919 0.16492 0.0
H1845 H 0.32376 0.75072 0.11032 0.0
H1846 H 0.358 0.73062 0.14549 0.0
H1847 H 0.34631 0.71934 0.201 0.0
H1848 H 0.36283 0.75541 0.12025 0.0
H1849 H 0.33264 0.72986 0.00405 0.0
H1850 H 0.32319 0.73884 0.04096 0.0
H1851 H 0.33289 0.72588 0.05997 0.0
C1852 C 0.32196 0.73745 0.16176 0.0
C1853 C 0.32806 0.72814 0.18647 0.0
C1854 C 0.32874 0.74398 0.13046 0.0
C1855 C 0.34162 0.74115 0.12316 0.0
C1856 C 0.34802 0.73277 0.15038 0.0
H1857 H 0.3592 0.76683 0.86877 0.0
H1858 H 0.36225 0.75229 0.929 0.0
C1859 C 0.34129 0.72634 0.18201 0.0
C1860 C 0.348 0.74601 0.08469 0.0
H1861 H 0.34378 0.74817 0.97767 0.0
C1862 C 0.35883 0.75372 0.08889 0.0
C1863 C 0.34317 0.7432 0.04374 0.0
C1864 C 0.33243 0.73386 0.03681 0.0
C1865 C 0.36421 0.75971 0.05325 0.0
C1866 C 0.35832 0.7582 0.01299 0.0
C1867 C 0.34825 0.74951 0.0085 0.0
C1868 C 0.36067 0.76701 0.97712 0.0
C1869 C 0.37592 0.76781 0.05936 0.0
C1870 C 0.35941 0.78015 0.98406 0.0
C1871 C 0.35785 0.78841 0.94984 0.0
C1872 C 0.35718 0.78362 0.90822 0.0
C1873 C 0.35943 0.77065 0.9008 0.0
C1874 C 0.36127 0.7624 0.93511 0.0
H1875 H 0.38234 0.76347 0.08346 0.0
H1876 H 0.38129 0.76908 0.02918 0.0
H1877 H 0.37306 0.7773 0.07164 0.0
H1878 H 0.3585 0.78396 0.01597 0.0
H1879 H 0.35611 0.79839 0.95626 0.0
H1880 H 0.52923 0.09483 0.43757 0.0
H1881 H 0.51497 0.10541 0.38821 0.0
H1882 H 0.49061 0.07231 0.38683 0.0
H1883 H 0.50525 0.06134 0.43503 0.0
H1884 H 0.49856 0.07772 0.31077 0.0
H1885 H 0.4812 0.12247 0.38247 0.0
H1886 H 0.49818 0.1214 0.38648 0.0
H1887 H 0.48835 0.10998 0.41392 0.0
C1888 C 0.52067 0.08988 0.42768 0.0
C1889 C 0.51848 0.07714 0.43942 0.0
C1890 C 0.51242 0.09604 0.3998 0.0
C1891 C 0.50168 0.0897 0.38402 0.0
C1892 C 0.49887 0.07737 0.39871 0.0
H1893 H 0.44953 0.11284 0.19093 0.0
H1894 H 0.46066 0.11161 0.25885 0.0
C1895 C 0.50724 0.0711 0.4261 0.0
C1896 C 0.49496 0.09488 0.34654 0.0
H1897 H 0.48133 0.12168 0.30522 0.0
C1898 C 0.49464 0.08728 0.30984 0.0
C1899 C 0.4899 0.10736 0.3453 0.0
C1900 C 0.48931 0.1157 0.38436 0.0
C1901 C 0.48955 0.09182 0.27172 0.0
C1902 C 0.48512 0.10453 0.26981 0.0
C1903 C 0.48514 0.11208 0.30664 0.0
C1904 C 0.47932 0.10948 0.2305 0.0
C1905 C 0.48874 0.08286 0.2341 0.0
C1906 C 0.4863 0.10967 0.19236 0.0
C1907 C 0.47993 0.11018 0.15339 0.0
C1908 C 0.4666 0.11069 0.15255 0.0
C1909 C 0.45983 0.11232 0.19079 0.0
C1910 C 0.46617 0.11165 0.22965 0.0
H1911 H 0.48982 0.07275 0.24387 0.0
H1912 H 0.47949 0.08391 0.21729 0.0
H1913 H 0.49649 0.08511 0.21126 0.0
H1914 H 0.49652 0.10827 0.19267 0.0
H1915 H 0.48533 0.10924 0.12416 0.0
H1916 H 0.14504 0.20147 0.46318 0.0
H1917 H 0.1421 0.2155 0.52371 0.0
H1918 H 0.13704 0.24742 0.43857 0.0
H1919 H 0.14058 0.23331 0.37749 0.0
H1920 H 0.15548 0.25189 0.48742 0.0
H1921 H 0.11746 0.23478 0.5924 0.0
H1922 H 0.12722 0.22136 0.57964 0.0
H1923 H 0.11868 0.22952 0.53776 0.0
C1924 C 0.14291 0.21141 0.45732 0.0
C1925 C 0.14335 0.21643 0.41596 0.0
C1926 C 0.14103 0.21942 0.49202 0.0
C1927 C 0.13923 0.23253 0.48584 0.0
C1928 C 0.13842 0.23733 0.44409 0.0
H1929 H 0.15298 0.28093 0.70849 0.0
H1930 H 0.14116 0.26925 0.65414 0.0
C1931 C 0.14057 0.22933 0.40931 0.0
C1932 C 0.14127 0.24125 0.52217 0.0
H1933 H 0.13664 0.24343 0.62958 0.0
C1934 C 0.15104 0.25028 0.51816 0.0
C1935 C 0.13543 0.23936 0.56234 0.0
C1936 C 0.12402 0.23081 0.568 0.0
C1937 C 0.15592 0.25657 0.55374 0.0
C1938 C 0.15116 0.25345 0.5945 0.0
C1939 C 0.14059 0.24538 0.59831 0.0
C1940 C 0.15743 0.25832 0.6331 0.0
C1941 C 0.16644 0.26619 0.54744 0.0
C1942 C 0.17027 0.2554 0.64077 0.0
C1943 C 0.17711 0.26214 0.67141 0.0
C1944 C 0.17113 0.27178 0.69495 0.0
C1945 C 0.15791 0.27368 0.69033 0.0
C1946 C 0.15111 0.267 0.65942 0.0
H1947 H 0.16632 0.2702 0.51468 0.0
H1948 H 0.16565 0.27415 0.5706 0.0
H1949 H 0.17579 0.26146 0.55223 0.0
H1950 H 0.17519 0.24848 0.62114 0.0
H1951 H 0.18722 0.26034 0.67469 0.0
H1952 H 0.9655 0.91304 0.14473 0.0
H1953 H 0.97842 0.91115 0.20943 0.0
H1954 H 0.97002 0.95024 0.24096 0.0
H1955 H 0.957 0.95209 0.17631 0.0
H1956 H -0.00031 0.92427 0.22773 0.0
H1957 H 0.96401 0.93283 0.35451 0.0
H1958 H 0.95958 0.92936 0.30014 0.0
H1959 H 0.96432 0.94521 0.3151 0.0
C1960 C 0.96635 0.92119 0.16568 0.0
C1961 C 0.9603 0.93273 0.15552 0.0
C1962 C 0.97369 0.92009 0.2027 0.0
C1963 C 0.97509 0.93049 0.23046 0.0
C1964 C 0.96885 0.94198 0.22068 0.0
H1965 H 0.03792 0.94622 0.39645 0.0
H1966 H 0.02155 0.94534 0.34168 0.0
C1967 C 0.96147 0.94306 0.18366 0.0
C1968 C 0.98387 0.92959 0.26763 0.0
H1969 H 0.98595 0.93404 0.37542 0.0
C1970 C 0.99663 0.92629 0.26005 0.0
C1971 C 0.97988 0.93206 0.30996 0.0
C1972 C 0.96617 0.93494 0.32057 0.0
C1973 C 0.00558 0.92581 0.29324 0.0
C1974 C 0.00175 0.92892 0.33521 0.0
C1975 C 0.9889 0.93178 0.34317 0.0
C1976 C 0.01114 0.92981 0.37054 0.0
C1977 C 0.0191 0.92198 0.28303 0.0
C1978 C 0.0105 0.92166 0.40598 0.0
C1979 C 0.0199 0.92215 0.43782 0.0
C1980 C 0.03005 0.93086 0.43477 0.0
C1981 C 0.03035 0.93929 0.39984 0.0
C1982 C 0.021 0.93878 0.36827 0.0
H1983 H 0.01965 0.91652 0.25277 0.0
H1984 H 0.025 0.93067 0.27937 0.0
H1985 H 0.02324 0.91612 0.30901 0.0
H1986 H 0.00291 0.91471 0.40849 0.0
H1987 H 0.01933 0.91556 0.46429 0.0
H1988 H 0.80299 0.22708 0.87002 0.0
H1989 H 0.80361 0.24019 0.9348 0.0
H1990 H 0.8253 0.21103 0.99871 0.0
H1991 H 0.82469 0.19789 0.93384 0.0
H1992 H 0.79501 0.23226 0.02234 0.0
H1993 H 0.84632 0.24533 0.01132 0.0
H1994 H 0.83732 0.24002 0.96559 0.0
H1995 H 0.84218 0.22879 0.00543 0.0
C1996 C 0.8079 0.2235 0.89793 0.0
C1997 C 0.8138 0.21151 0.89708 0.0
C1998 C 0.80822 0.23096 0.93486 0.0
C1999 C 0.81459 0.22662 0.97141 0.0
C2000 C 0.82043 0.21459 0.97072 0.0
H2001 H 0.82987 0.268 0.20959 0.0
H2002 H 0.82936 0.25156 0.15407 0.0
C2003 C 0.82002 0.20709 0.93384 0.0
C2004 C 0.81503 0.2347 0.01019 0.0
H2005 H 0.8348 0.25349 0.06953 0.0
C2006 C 0.80371 0.23686 0.03282 0.0
C2007 C 0.82641 0.24059 0.02399 0.0
C2008 C 0.83878 0.23868 0.00035 0.0
C2009 C 0.80345 0.24485 0.06875 0.0
C2010 C 0.81475 0.25115 0.08169 0.0
C2011 C 0.82614 0.24871 0.05963 0.0
C2012 C 0.81479 0.26083 0.11639 0.0
C2013 C 0.79108 0.24637 0.09267 0.0
C2014 C 0.80689 0.27157 0.11357 0.0
C2015 C 0.80711 0.28091 0.14524 0.0
C2016 C 0.81538 0.27986 0.18039 0.0
C2017 C 0.82336 0.26912 0.18311 0.0
C2018 C 0.82309 0.25971 0.15135 0.0
H2019 H 0.78478 0.23798 0.0881 0.0
H2020 H 0.79274 0.2477 0.12733 0.0
H2021 H 0.78596 0.25485 0.08036 0.0
H2022 H 0.80066 0.27285 0.0864 0.0
H2023 H 0.80089 0.28907 0.14173 0.0
H2024 H 0.53937 0.08278 0.65548 0.0
H2025 H 0.52598 0.08455 0.7192 0.0
H2026 H 0.5293 0.04406 0.73951 0.0
H2027 H 0.54274 0.04231 0.67561 0.0
H2028 H 0.5027 0.07246 0.72771 0.0
H2029 H 0.53515 0.05869 0.85945 0.0
H2030 H 0.54088 0.06339 0.80749 0.0
H2031 H 0.53474 0.04762 0.81583 0.0
C2032 C 0.53737 0.0743 0.67397 0.0
C2033 C 0.54196 0.0624 0.66061 0.0
C2034 C 0.52974 0.07531 0.71033 0.0
C2035 C 0.52667 0.06446 0.73431 0.0
C2036 C 0.5317 0.05261 0.72195 0.0
H2037 H 0.46048 0.05226 0.89142 0.0
H2038 H 0.47743 0.05184 0.83835 0.0
C2039 C 0.53934 0.0516 0.68545 0.0
C2040 C 0.5173 0.06541 0.76972 0.0
H2041 H 0.51301 0.05998 0.87621 0.0
C2042 C 0.50499 0.0698 0.76022 0.0
C2043 C 0.52031 0.06205 0.81221 0.0
C2044 C 0.53352 0.05778 0.8246 0.0
C2045 C 0.49554 0.07064 0.79175 0.0
C2046 C 0.49842 0.06687 0.83393 0.0
C2047 C 0.51081 0.06278 0.84378 0.0
C2048 C 0.48851 0.0668 0.86772 0.0
C2049 C 0.48254 0.07558 0.77971 0.0
C2050 C 0.48924 0.07518 0.9025 0.0
C2051 C 0.4795 0.07548 0.9331 0.0
C2052 C 0.46891 0.06732 0.92961 0.0
C2053 C 0.46842 0.05873 0.89518 0.0
C2054 C 0.47811 0.05848 0.86464 0.0
H2055 H 0.48273 0.08086 0.74904 0.0
H2056 H 0.47589 0.06744 0.77619 0.0
H2057 H 0.47872 0.08196 0.80487 0.0
H2058 H 0.49722 0.08166 0.90551 0.0
H2059 H 0.48023 0.08217 0.95925 0.0
H2060 H 0.67952 0.80311 0.44985 0.0
H2061 H 0.67945 0.78944 0.51361 0.0
H2062 H 0.70357 0.76242 0.44886 0.0
H2063 H 0.70367 0.77604 0.38547 0.0
H2064 H 0.67061 0.76361 0.51545 0.0
H2065 H 0.72112 0.76702 0.56565 0.0
H2066 H 0.71377 0.7785 0.53055 0.0
H2067 H 0.71896 0.76337 0.51019 0.0
C2068 C 0.685 0.79437 0.44972 0.0
C2069 C 0.69168 0.79064 0.413 0.0
C2070 C 0.68491 0.78655 0.48597 0.0
C2071 C 0.69162 0.77496 0.48621 0.0
C2072 C 0.69851 0.7714 0.44975 0.0
H2073 H 0.70104 0.70803 0.64055 0.0
H2074 H 0.70202 0.72534 0.58878 0.0
C2075 C 0.69853 0.77915 0.41352 0.0
C2076 C 0.6908 0.76615 0.52326 0.0
H2077 H 0.70892 0.7502 0.59626 0.0
C2078 C 0.67894 0.76079 0.53355 0.0
C2079 C 0.7017 0.76243 0.54665 0.0
C2080 C 0.7146 0.7682 0.53805 0.0
C2081 C 0.67777 0.75143 0.5654 0.0
C2082 C 0.68872 0.74754 0.58838 0.0
C2083 C 0.70053 0.75314 0.57871 0.0
C2084 C 0.68825 0.73724 0.62108 0.0
C2085 C 0.66491 0.74541 0.57277 0.0
C2086 C 0.68034 0.73821 0.65709 0.0
C2087 C 0.67969 0.72824 0.68677 0.0
C2088 C 0.68704 0.71714 0.68134 0.0
C2089 C 0.69521 0.71638 0.64584 0.0
C2090 C 0.6958 0.7263 0.61614 0.0
H2091 H 0.65834 0.74706 0.54556 0.0
H2092 H 0.66581 0.73499 0.57789 0.0
H2093 H 0.66051 0.74964 0.60162 0.0
H2094 H 0.67466 0.74667 0.66225 0.0
H2095 H 0.67338 0.72923 0.71387 0.0
H2096 H 0.04251 0.04927 0.16805 0.0
H2097 H 0.02591 0.04794 0.2221 0.0
H2098 H 0.00369 0.07588 0.15421 0.0
H2099 H 0.02047 0.07752 0.10023 0.0
H2100 H 0.00482 0.08122 0.23812 0.0
H2101 H 0.99187 0.0305 0.21878 0.0
H2102 H 0.00859 0.03253 0.22812 0.0
H2103 H 0.00152 0.03889 0.18035 0.0
C2104 C 0.03405 0.05506 0.16423 0.0
C2105 C 0.03285 0.06348 0.12955 0.0
C2106 C 0.0245 0.05421 0.19514 0.0
C2107 C 0.0134 0.06161 0.19191 0.0
C2108 C 0.01212 0.06999 0.15727 0.0
H2109 H 0.94867 0.06968 0.36834 0.0
H2110 H 0.96221 0.07026 0.30439 0.0
C2111 C 0.02172 0.07091 0.12637 0.0
C2112 C 0.00352 0.06108 0.22596 0.0
H2113 H 0.98494 0.04056 0.28344 0.0
C2114 C 0.00034 0.07236 0.2476 0.0
C2115 C 0.99764 0.04952 0.2384 0.0
C2116 C -3e-05 0.0372 0.21489 0.0
C2117 C 0.99184 0.0723 0.28225 0.0
C2118 C 0.98631 0.06068 0.29547 0.0
C2119 C 0.98925 0.04945 0.27336 0.0
C2120 C 0.97782 0.05994 0.33326 0.0
C2121 C 0.98916 0.08459 0.30547 0.0
C2122 C 0.98201 0.05373 0.3703 0.0
C2123 C 0.97431 0.0534 0.40668 0.0
C2124 C 0.96224 0.05917 0.40651 0.0
C2125 C 0.95792 0.06512 0.36913 0.0
C2126 C 0.96567 0.06552 0.33278 0.0
H2127 H 0.99573 0.09234 0.29562 0.0
H2128 H 0.97926 0.08766 0.29862 0.0
H2129 H 0.99001 0.08319 0.34043 0.0
H2130 H 0.99133 0.04933 0.37129 0.0
H2131 H 0.97781 0.04871 0.4351 0.0
H2132 H 0.66806 0.26652 0.84765 0.0
H2133 H 0.66889 0.25026 0.9038 0.0
H2134 H 0.69817 0.27157 0.96836 0.0
H2135 H 0.69747 0.28778 0.91284 0.0
H2136 H 0.69139 0.23555 0.93726 0.0
H2137 H 0.66838 0.26707 0.05677 0.0
H2138 H 0.66732 0.26993 0.00012 0.0
H2139 H 0.6816 0.27397 0.02857 0.0
C2140 C 0.67473 0.26772 0.87364 0.0
C2141 C 0.68262 0.27855 0.87578 0.0
C2142 C 0.6752 0.2584 0.90566 0.0
C2143 C 0.68348 0.25981 0.94047 0.0
C2144 C 0.6916 0.27039 0.94204 0.0
H2145 H 0.69924 0.22389 0.18139 0.0
H2146 H 0.69838 0.23724 0.11742 0.0
C2147 C 0.69119 0.27964 0.91011 0.0
C2148 C 0.68347 0.25048 0.97601 0.0
H2149 H 0.67727 0.24783 0.08242 0.0
C2150 C 0.68821 0.23816 0.96896 0.0
C2151 C 0.67933 0.25393 0.01727 0.0
C2152 C 0.67376 0.26691 0.02629 0.0
C2153 C 0.68934 0.22934 0.00256 0.0
C2154 C 0.68537 0.23288 0.04406 0.0
C2155 C 0.68038 0.24513 0.05073 0.0
C2156 C 0.68655 0.22422 0.08143 0.0
C2157 C 0.69519 0.2165 0.99364 0.0
C2158 C 0.68025 0.21242 0.08254 0.0
C2159 C 0.6808 0.20475 0.11907 0.0
C2160 C 0.68756 0.20884 0.1552 0.0
C2161 C 0.69396 0.22056 0.1539 0.0
C2162 C 0.69347 0.22817 0.11741 0.0
H2163 H 0.70071 0.2165 0.96342 0.0
H2164 H 0.7016 0.21354 0.02 0.0
H2165 H 0.68751 0.2093 0.99068 0.0
H2166 H 0.67461 0.20928 0.05563 0.0
H2167 H 0.67564 0.19583 0.1196 0.0
H2168 H 0.54543 0.95152 0.88442 0.0
H2169 H 0.5329 0.95074 0.8187 0.0
H2170 H 0.51654 0.91497 0.8584 0.0
H2171 H 0.52989 0.91518 0.92203 0.0
H2172 H 0.52049 0.914 0.77769 0.0
H2173 H 0.49655 0.95998 0.81018 0.0
H2174 H 0.51346 0.96165 0.80508 0.0
H2175 H 0.50691 0.9525 0.84843 0.0
C2176 C 0.53934 0.94338 0.87873 0.0
C2177 C 0.53855 0.93348 0.90877 0.0
C2178 C 0.53199 0.94305 0.84143 0.0
C2179 C 0.52342 0.93299 0.83394 0.0
C2180 C 0.52294 0.92292 0.8634 0.0
H2181 H 0.45616 0.93659 0.67796 0.0
H2182 H 0.47242 0.93664 0.73319 0.0
C2183 C 0.53048 0.92312 0.90014 0.0
C2184 C 0.5148 0.93292 0.79599 0.0
H2185 H 0.49218 0.95036 0.74376 0.0
C2186 C 0.51428 0.92195 0.77033 0.0
C2187 C 0.50655 0.94322 0.78646 0.0
C2188 C 0.50578 0.95494 0.81423 0.0
C2189 C 0.50566 0.92089 0.73613 0.0
C2190 C 0.49764 0.93131 0.72601 0.0
C2191 C 0.49835 0.94237 0.75116 0.0
C2192 C 0.4878 0.93075 0.6916 0.0
C2193 C 0.5049 0.90839 0.71255 0.0
C2194 C 0.49088 0.92736 0.64941 0.0
C2195 C 0.48144 0.92702 0.6177 0.0
C2196 C 0.46881 0.93044 0.6273 0.0
C2197 C 0.4658 0.93396 0.66935 0.0
C2198 C 0.47513 0.93402 0.70106 0.0
H2199 H 0.50883 0.90042 0.73178 0.0
H2200 H 0.49492 0.90604 0.70391 0.0
H2201 H 0.5106 0.90905 0.68286 0.0
H2202 H 0.50061 0.92515 0.64078 0.0
H2203 H 0.48408 0.92439 0.58552 0.0
H2204 H 0.7989 0.71607 0.40924 0.0
H2205 H 0.79872 0.73355 0.46006 0.0
H2206 H 0.832 0.74965 0.40037 0.0
H2207 H 0.83225 0.73208 0.34864 0.0
H2208 H 0.81894 0.73879 0.5166 0.0
H2209 H 0.80728 0.7805 0.4145 0.0
H2210 H 0.80419 0.7643 0.39803 0.0
H2211 H 0.82013 0.77046 0.39683 0.0
C2212 C 0.80614 0.72337 0.40637 0.0
C2213 C 0.81564 0.72259 0.37476 0.0
C2214 C 0.806 0.73338 0.43559 0.0
C2215 C 0.81529 0.74295 0.43396 0.0
C2216 C 0.82463 0.74246 0.40187 0.0
H2217 H 0.83221 0.79131 0.65276 0.0
H2218 H 0.83398 0.77818 0.58842 0.0
C2219 C 0.82479 0.73238 0.37243 0.0
C2220 C 0.81557 0.75282 0.46792 0.0
H2221 H 0.81131 0.78459 0.48743 0.0
C2222 C 0.81734 0.74882 0.51017 0.0
C2223 C 0.81336 0.76588 0.45952 0.0
C2224 C 0.81103 0.77061 0.41484 0.0
C2225 C 0.81691 0.75746 0.54425 0.0
C2226 C 0.81479 0.77053 0.53592 0.0
C2227 C 0.81302 0.77458 0.49368 0.0
C2228 C 0.81411 0.77995 0.57117 0.0
C2229 C 0.81842 0.75249 0.5891 0.0
C2230 C 0.80247 0.78574 0.58184 0.0
C2231 C 0.80145 0.79325 0.61866 0.0
C2232 C 0.81206 0.79505 0.64524 0.0
C2233 C 0.82386 0.7899 0.63305 0.0
C2234 C 0.82487 0.78241 0.59637 0.0
H2235 H 0.81732 0.74197 0.59068 0.0
H2236 H 0.82806 0.75495 0.60103 0.0
H2237 H 0.81132 0.75692 0.61073 0.0
H2238 H 0.79405 0.78399 0.56276 0.0
H2239 H 0.79227 0.79715 0.6274 0.0
H2240 H 0.54691 0.60578 0.34689 0.0
H2241 H 0.5325 0.60876 0.2875 0.0
H2242 H 0.50178 0.61691 0.37495 0.0
H2243 H 0.51626 0.61333 0.43503 0.0
H2244 H 0.49559 0.59823 0.32997 0.0
H2245 H 0.51396 0.63307 0.21597 0.0
H2246 H 0.52704 0.62293 0.22929 0.0
H2247 H 0.51968 0.63256 0.27022 0.0
C2248 C 0.53718 0.60862 0.35346 0.0
C2249 C 0.53256 0.60901 0.39534 0.0
C2250 C 0.52895 0.61051 0.31935 0.0
C2251 C 0.51603 0.61317 0.32656 0.0
C2252 C 0.51171 0.61485 0.36861 0.0
H2253 H 0.46814 0.59595 0.1044 0.0
H2254 H 0.47925 0.60881 0.15746 0.0
C2255 C 0.51992 0.61269 0.40286 0.0
C2256 C 0.50686 0.61105 0.29149 0.0
H2257 H 0.50464 0.61329 0.18327 0.0
C2258 C 0.49733 0.60189 0.29818 0.0
C2259 C 0.50885 0.61592 0.24994 0.0
C2260 C 0.51786 0.62678 0.24124 0.0
C2261 C 0.49075 0.5965 0.26403 0.0
C2262 C 0.49407 0.60008 0.22211 0.0
C2263 C 0.50254 0.61021 0.21549 0.0
C2264 C 0.48924 0.59287 0.1853 0.0
C2265 C 0.48067 0.5866 0.27312 0.0
C2266 C 0.49183 0.57979 0.182 0.0
C2267 C 0.48544 0.57237 0.15204 0.0
C2268 C 0.47647 0.57798 0.12477 0.0
C2269 C 0.47487 0.59131 0.12542 0.0
C2270 C 0.48121 0.5987 0.15563 0.0
H2271 H 0.47651 0.58789 0.30539 0.0
H2272 H 0.47287 0.587 0.24925 0.0
H2273 H 0.48505 0.57699 0.2719 0.0
H2274 H 0.49828 0.57521 0.20417 0.0
H2275 H 0.48699 0.56217 0.15195 0.0
H2276 H 0.62146 0.28871 0.63968 0.0
H2277 H 0.61512 0.27541 0.57917 0.0
H2278 H 0.6447 0.24858 0.61087 0.0
H2279 H 0.65164 0.26203 0.66852 0.0
H2280 H 0.63527 0.27139 0.51699 0.0
H2281 H 0.61441 0.22582 0.56943 0.0
H2282 H 0.6127 0.24046 0.5994 0.0
H2283 H 0.62693 0.231 0.60435 0.0
C2284 C 0.62635 0.27976 0.63455 0.0
C2285 C 0.63696 0.27639 0.65965 0.0
C2286 C 0.62264 0.27216 0.60017 0.0
C2287 C 0.62929 0.26092 0.59116 0.0
C2288 C 0.63918 0.25703 0.61817 0.0
H2289 H 0.67154 0.21369 0.46955 0.0
H2290 H 0.65648 0.22672 0.5091 0.0
C2291 C 0.6431 0.26475 0.65171 0.0
C2292 C 0.62826 0.25472 0.54923 0.0
H2293 H 0.62964 0.2246 0.50995 0.0
C2294 C 0.63351 0.26124 0.5144 0.0
C2295 C 0.6258 0.24157 0.54602 0.0
C2296 C 0.61951 0.23433 0.58174 0.0
C2297 C 0.63833 0.25457 0.47922 0.0
C2298 C 0.63751 0.24114 0.47894 0.0
C2299 C 0.63044 0.2349 0.51067 0.0
C2300 C 0.64637 0.2334 0.45323 0.0
C2301 C 0.6456 0.26176 0.44543 0.0
C2302 C 0.64586 0.23309 0.40858 0.0
C2303 C 0.65469 0.22579 0.38573 0.0
C2304 C 0.66396 0.21861 0.40743 0.0
C2305 C 0.66449 0.2191 0.45202 0.0
C2306 C 0.65582 0.22646 0.47464 0.0
H2307 H 0.64592 0.27216 0.45183 0.0
H2308 H 0.65552 0.25814 0.4434 0.0
H2309 H 0.64102 0.26026 0.41397 0.0
H2310 H 0.63858 0.23832 0.39154 0.0
H2311 H 0.65399 0.22544 0.35131 0.0
H2312 H 0.95339 0.38822 0.8666 0.0
H2313 H 0.96622 0.38884 0.80237 0.0
H2314 H 0.00047 0.38924 0.87859 0.0
H2315 H 0.98747 0.38918 0.94351 0.0
H2316 H -0.00017 0.40887 0.8309 0.0
H2317 H 0.98823 0.36827 0.72731 0.0
H2318 H 0.97371 0.37568 0.74395 0.0
H2319 H 0.98403 0.36845 0.78308 0.0
C2320 C 0.96367 0.38796 0.86968 0.0
C2321 C 0.9695 0.38884 0.90979 0.0
C2322 C 0.97102 0.38819 0.83283 0.0
C2323 C 0.98433 0.38899 0.83554 0.0
C2324 C 0.9902 0.38863 0.87579 0.0
H2325 H 0.03012 0.4044 0.61128 0.0
H2326 H 0.01842 0.39349 0.66731 0.0
C2327 C 0.98281 0.38863 0.91277 0.0
C2328 C 0.99166 0.39287 0.7975 0.0
H2329 H 0.99431 0.38798 0.6904 0.0
C2330 C 0.99884 0.40411 0.8004 0.0
C2331 C 0.99045 0.38667 0.75769 0.0
C2332 C 0.98379 0.37402 0.75303 0.0
C2333 C 0.00433 0.40964 0.76436 0.0
C2334 C 0.00215 0.40406 0.72402 0.0
C2335 C 0.99557 0.39246 0.72124 0.0
C2336 C 0.00719 0.40994 0.68483 0.0
C2337 C 0.01245 0.42139 0.77004 0.0
C2338 C 0.00415 0.42259 0.67442 0.0
C2339 C 0.01098 0.42897 0.64282 0.0
C2340 C 0.02078 0.42268 0.62085 0.0
C2341 C 0.02277 0.4096 0.62817 0.0
C2342 C 0.01607 0.4033 0.66012 0.0
H2343 H 0.01613 0.42219 0.80314 0.0
H2344 H 0.02069 0.42136 0.74784 0.0
H2345 H 0.00661 0.42998 0.76349 0.0
H2346 H 0.99701 0.42773 0.69243 0.0
H2347 H 0.00909 0.43897 0.63738 0.0
H2348 H 0.85761 0.73335 0.1775 0.0
H2349 H 0.85655 0.74474 0.10939 0.0
H2350 H 0.85552 0.7089 0.04235 0.0
H2351 H 0.85679 0.69753 0.10988 0.0
H2352 H 0.86709 0.7287 0.99502 0.0
H2353 H 0.81994 0.74172 0.06309 0.0
H2354 H 0.83332 0.74706 0.09387 0.0
H2355 H 0.83034 0.73029 0.08802 0.0
C2356 C 0.85752 0.72796 0.14811 0.0
C2357 C 0.85686 0.71463 0.14874 0.0
C2358 C 0.85698 0.73444 0.10935 0.0
C2359 C 0.85559 0.7276 0.0712 0.0
C2360 C 0.8565 0.71431 0.07156 0.0
H2361 H 0.80741 0.75685 0.87232 0.0
H2362 H 0.81794 0.74167 0.91973 0.0
C2363 C 0.8572 0.70784 0.11019 0.0
C2364 C 0.85076 0.73395 0.03267 0.0
H2365 H 0.8248 0.7498 0.99525 0.0
C2366 C 0.85786 0.73335 0.99487 0.0
C2367 C 0.83852 0.73957 0.0325 0.0
C2368 C 0.83001 0.73961 0.07137 0.0
C2369 C 0.85313 0.73857 0.95686 0.0
C2370 C 0.84112 0.74468 0.95724 0.0
C2371 C 0.83398 0.74505 0.99497 0.0
C2372 C 0.836 0.75165 0.92021 0.0
C2373 C 0.86094 0.73734 0.91674 0.0
C2374 C 0.84284 0.76194 0.90341 0.0
C2375 C 0.8369 0.77051 0.87604 0.0
C2376 C 0.82393 0.76908 0.8658 0.0
C2377 C 0.81736 0.75826 0.88006 0.0
C2378 C 0.82338 0.74958 0.90701 0.0
H2379 H 0.86722 0.72883 0.91799 0.0
H2380 H 0.85479 0.73666 0.88806 0.0
H2381 H 0.86713 0.74584 0.91344 0.0
H2382 H 0.85247 0.7639 0.91383 0.0
H2383 H 0.84226 0.77872 0.86535 0.0
H2384 H 0.51313 0.40336 0.14169 0.0
H2385 H 0.4995 0.3955 0.19805 0.0
H2386 H 0.52542 0.36444 0.22112 0.0
H2387 H 0.53898 0.37191 0.16261 0.0
H2388 H 0.48899 0.36801 0.2272 0.0
H2389 H 0.52635 0.39199 0.32489 0.0
H2390 H 0.52498 0.39598 0.26919 0.0
H2391 H 0.5304 0.38046 0.28451 0.0
C2392 C 0.51561 0.39443 0.15658 0.0
C2393 C 0.52708 0.38817 0.14709 0.0
C2394 C 0.50783 0.38999 0.18925 0.0
C2395 C 0.5115 0.37941 0.21352 0.0
C2396 C 0.52243 0.37257 0.20237 0.0
H2397 H 0.47627 0.40191 0.45064 0.0
H2398 H 0.48925 0.38674 0.40993 0.0
C2399 C 0.53016 0.3769 0.16917 0.0
C2400 C 0.50518 0.3775 0.25483 0.0
H2401 H 0.50546 0.39209 0.35149 0.0
C2402 C 0.49271 0.37279 0.25521 0.0
C2403 C 0.51019 0.38344 0.29157 0.0
C2404 C 0.52373 0.38825 0.29296 0.0
C2405 C 0.4846 0.37533 0.28963 0.0
C2406 C 0.48901 0.3832 0.32315 0.0
C2407 C 0.50199 0.38627 0.32542 0.0
C2408 C 0.4801 0.39074 0.34956 0.0
C2409 C 0.47114 0.37035 0.2882 0.0
C2410 C 0.47082 0.39817 0.32908 0.0
C2411 C 0.46346 0.40676 0.35206 0.0
C2412 C 0.46538 0.40832 0.39597 0.0
C2413 C 0.47467 0.40094 0.41671 0.0
C2414 C 0.48198 0.39219 0.39362 0.0
H2415 H 0.47097 0.36056 0.27483 0.0
H2416 H 0.46668 0.37022 0.3203 0.0
H2417 H 0.46534 0.37644 0.26677 0.0
H2418 H 0.46957 0.39771 0.29487 0.0
H2419 H 0.45644 0.41237 0.33513 0.0
H2420 H 0.84787 0.22516 0.69984 0.0
H2421 H 0.86291 0.23824 0.65886 0.0
H2422 H 0.84571 0.22508 0.54194 0.0
H2423 H 0.8311 0.21177 0.58232 0.0
H2424 H 0.87206 0.22502 0.53836 0.0
H2425 H 0.85363 0.27134 0.60054 0.0
H2426 H 0.85989 0.2599 0.63765 0.0
H2427 H 0.84522 0.25667 0.61033 0.0
C2428 C 0.84729 0.22516 0.66538 0.0
C2429 C 0.83829 0.21754 0.64414 0.0
C2430 C 0.8559 0.23258 0.64208 0.0
C2431 C 0.85541 0.23263 0.5974 0.0
C2432 C 0.84636 0.22506 0.57641 0.0
H2433 H 0.84756 0.26268 0.38399 0.0
H2434 H 0.85574 0.24887 0.43894 0.0
C2435 C 0.83793 0.21755 0.5995 0.0
C2436 C 0.86365 0.24095 0.57133 0.0
H2437 H 0.86429 0.27154 0.53565 0.0
C2438 C 0.87076 0.23527 0.53851 0.0
C2439 C 0.8622 0.25434 0.57213 0.0
C2440 C 0.85481 0.261 0.60688 0.0
C2441 C 0.87483 0.24239 0.50335 0.0
C2442 C 0.87178 0.25544 0.50144 0.0
C2443 C 0.86649 0.26146 0.53721 0.0
C2444 C 0.87031 0.26199 0.46022 0.0
C2445 C 0.88121 0.2357 0.46665 0.0
C2446 C 0.87609 0.2738 0.45287 0.0
C2447 C 0.87163 0.28166 0.42021 0.0
C2448 C 0.86114 0.27793 0.39515 0.0
C2449 C 0.85596 0.26573 0.40099 0.0
C2450 C 0.86061 0.25779 0.43289 0.0
H2451 H 0.88687 0.22743 0.47799 0.0
H2452 H 0.87382 0.23206 0.4445 0.0
H2453 H 0.88754 0.24228 0.44877 0.0
H2454 H 0.88344 0.27727 0.47413 0.0
H2455 H 0.87579 0.29103 0.41659 0.0
H2456 H 0.0401 0.58772 0.8365 0.0
H2457 H 0.02548 0.60132 0.79778 0.0
H2458 H 0.00527 0.60962 0.91434 0.0
H2459 H 0.01976 0.59549 0.9534 0.0
H2460 H 0.98954 0.60265 0.85682 0.0
H2461 H 0.01982 0.63814 0.77949 0.0
H2462 H 0.02702 0.62297 0.76998 0.0
H2463 H 0.02546 0.62878 0.82396 0.0
C2464 C 0.03265 0.59254 0.85409 0.0
C2465 C 0.031 0.59047 0.89788 0.0
C2466 C 0.02442 0.60054 0.832 0.0
C2467 C 0.01451 0.60687 0.85333 0.0
C2468 C 0.01299 0.60501 0.89737 0.0
H2469 H 0.95118 0.61905 0.67832 0.0
H2470 H 0.96451 0.62781 0.73536 0.0
C2471 C 0.02117 0.59685 0.91952 0.0
C2472 C 0.00468 0.61347 0.82783 0.0
H2473 H 0.00221 0.62926 0.73332 0.0
C2474 C 0.99214 0.60897 0.8309 0.0
C2475 C 0.00795 0.62194 0.79452 0.0
C2476 C 0.02079 0.62832 0.79226 0.0
C2477 C 0.98339 0.6111 0.79805 0.0
C2478 C 0.98736 0.61789 0.76149 0.0
C2479 C -0.00071 0.62386 0.76114 0.0
C2480 C 0.98073 0.61592 0.72072 0.0
C2481 C 0.97049 0.60476 0.80033 0.0
C2482 C 0.98573 0.60683 0.69258 0.0
C2483 C 0.97815 0.60173 0.66044 0.0
C2484 C 0.96551 0.60579 0.65564 0.0
C2485 C 0.96092 0.61575 0.68141 0.0
C2486 C 0.9685 0.62081 0.7138 0.0
H2487 H 0.96896 0.59973 0.83105 0.0
H2488 H 0.96289 0.61201 0.79654 0.0
H2489 H 0.96949 0.59777 0.774 0.0
H2490 H 0.99511 0.60283 0.69792 0.0
H2491 H 0.98187 0.59382 0.64218 0.0
H2492 H 0.64243 0.70248 0.9465 0.0
H2493 H 0.64092 0.71678 0.00669 0.0
H2494 H 0.63943 0.74898 0.92116 0.0
H2495 H 0.64155 0.7345 0.86028 0.0
H2496 H 0.65791 0.75184 0.97072 0.0
H2497 H 0.61827 0.73835 0.07453 0.0
H2498 H 0.62667 0.724 0.06231 0.0
H2499 H 0.61912 0.73291 0.02001 0.0
C2500 C 0.64134 0.71257 0.94041 0.0
C2501 C 0.64239 0.71746 0.89898 0.0
C2502 C 0.64031 0.72077 0.97496 0.0
C2503 C 0.63994 0.73399 0.96863 0.0
C2504 C 0.63971 0.73881 0.92681 0.0
H2505 H 0.65507 0.77852 0.19848 0.0
H2506 H 0.64357 0.76814 0.14085 0.0
C2507 C 0.64102 0.73057 0.89213 0.0
C2508 C 0.64275 0.74246 0.00507 0.0
H2509 H 0.63818 0.74483 0.11236 0.0
C2510 C 0.65332 0.75057 0.00138 0.0
C2511 C 0.63669 0.74107 0.04509 0.0
C2512 C 0.62447 0.7337 0.05041 0.0
C2513 C 0.65866 0.75639 0.03715 0.0
C2514 C 0.65362 0.7536 0.07785 0.0
C2515 C 0.64236 0.74648 0.08124 0.0
C2516 C 0.66002 0.75803 0.11694 0.0
C2517 C 0.66982 0.76527 0.0309 0.0
C2518 C 0.6729 0.7551 0.12416 0.0
C2519 C 0.6796 0.76118 0.1567 0.0
C2520 C 0.67341 0.77007 0.18284 0.0
C2521 C 0.66018 0.77187 0.17841 0.0
C2522 C 0.65355 0.76594 0.1455 0.0
H2523 H 0.66973 0.76957 0.99854 0.0
H2524 H 0.66978 0.77307 0.0548 0.0
H2525 H 0.67882 0.75983 0.03424 0.0
H2526 H 0.67793 0.74863 0.10319 0.0
H2527 H 0.68973 0.75945 0.15978 0.0
H2528 H 0.51829 0.42052 0.95996 0.0
H2529 H 0.50263 0.42111 0.90188 0.0
H2530 H 0.52647 0.4473 0.83256 0.0
H2531 H 0.54209 0.44685 0.89008 0.0
H2532 H 0.48998 0.44412 0.86199 0.0
H2533 H 0.52006 0.416 0.75074 0.0
H2534 H 0.52243 0.41581 0.80775 0.0
H2535 H 0.52781 0.42914 0.77681 0.0
C2536 C 0.52018 0.42645 0.93247 0.0
C2537 C 0.53152 0.43358 0.92974 0.0
C2538 C 0.51121 0.42678 0.89933 0.0
C2539 C 0.51346 0.43413 0.86272 0.0
C2540 C 0.52461 0.44145 0.86031 0.0
H2541 H 0.47893 0.44621 0.61575 0.0
H2542 H 0.49253 0.44562 0.67924 0.0
C2543 C 0.53352 0.4412 0.8934 0.0
C2544 C 0.50433 0.43407 0.82652 0.0
H2545 H 0.50148 0.4254 0.72205 0.0
C2546 C 0.49242 0.43995 0.83145 0.0
C2547 C 0.50758 0.42867 0.7867 0.0
C2548 C 0.52012 0.42195 0.78001 0.0
C2549 C 0.48381 0.44092 0.79717 0.0
C2550 C 0.48709 0.43558 0.75715 0.0
C2551 C 0.49895 0.42953 0.75258 0.0
C2552 C 0.47853 0.43633 0.71928 0.0
C2553 C 0.4715 0.44806 0.80379 0.0
C2554 C 0.46613 0.43128 0.7204 0.0
C2555 C 0.45834 0.4317 0.68415 0.0
C2556 C 0.46285 0.43702 0.64597 0.0
C2557 C 0.47524 0.44203 0.64479 0.0
C2558 C 0.483 0.44169 0.68105 0.0
H2559 H 0.47204 0.45454 0.83172 0.0
H2560 H 0.46898 0.45376 0.77521 0.0
H2561 H 0.46372 0.44114 0.80974 0.0
H2562 H 0.46255 0.42679 0.74905 0.0
H2563 H 0.44887 0.42761 0.68566 0.0
H2564 H 0.32968 0.76988 0.71602 0.0
H2565 H 0.32947 0.75266 0.66306 0.0
H2566 H 0.29998 0.77211 0.59322 0.0
H2567 H 0.30013 0.7893 0.64537 0.0
H2568 H 0.30873 0.73649 0.6325 0.0
H2569 H 0.32912 0.76714 0.50561 0.0
H2570 H 0.3297 0.77139 0.56131 0.0
H2571 H 0.3153 0.77368 0.53131 0.0
C2572 C 0.32311 0.77047 0.68949 0.0
C2573 C 0.31501 0.78107 0.68486 0.0
C2574 C 0.32299 0.7606 0.65932 0.0
C2575 C 0.31483 0.7612 0.62388 0.0
C2576 C 0.30649 0.77155 0.61993 0.0
H2577 H 0.29226 0.70548 0.43329 0.0
H2578 H 0.29353 0.71914 0.49677 0.0
C2579 C 0.30658 0.78137 0.64996 0.0
C2580 C 0.31522 0.75125 0.59017 0.0
H2581 H 0.32101 0.74706 0.48402 0.0
C2582 C 0.31149 0.73875 0.60007 0.0
C2583 C 0.31896 0.75419 0.548 0.0
C2584 C 0.32361 0.76729 0.53584 0.0
C2585 C 0.31108 0.7292 0.56858 0.0
C2586 C 0.31437 0.73228 0.52604 0.0
C2587 C 0.3184 0.74471 0.51652 0.0
C2588 C 0.31374 0.72285 0.49064 0.0
C2589 C 0.30725 0.71588 0.58116 0.0
C2590 C 0.32465 0.72035 0.4661 0.0
C2591 C 0.3239 0.71263 0.42989 0.0
C2592 C 0.31222 0.70732 0.41726 0.0
C2593 C 0.30139 0.70941 0.44258 0.0
C2594 C 0.30213 0.71717 0.47888 0.0
H2595 H 0.3084 0.71428 0.61594 0.0
H2596 H 0.29708 0.71439 0.57306 0.0
H2597 H 0.31298 0.70868 0.56373 0.0
H2598 H 0.3337 0.72462 0.47446 0.0
H2599 H 0.3324 0.71107 0.41105 0.0
H2600 H 0.97929 0.57805 0.46371 0.0
H2601 H 0.9958 0.57905 0.40806 0.0
H2602 H 0.9732 0.55458 0.32791 0.0
H2603 H 0.95682 0.55348 0.38256 0.0
H2604 H 0.00924 0.55723 0.36418 0.0
H2605 H 0.98053 0.58735 0.25524 0.0
H2606 H 0.97732 0.58625 0.31169 0.0
H2607 H 0.97225 0.57377 0.27639 0.0
C2608 C 0.97787 0.57286 0.43428 0.0
C2609 C 0.96667 0.56574 0.4277 0.0
C2610 C 0.98731 0.57343 0.40256 0.0
C2611 C 0.98564 0.56701 0.36366 0.0
C2612 C 0.97461 0.55974 0.35743 0.0
H2613 H 0.01989 0.55418 0.11965 0.0
H2614 H 0.00669 0.55558 0.18388 0.0
C2615 C 0.96526 0.5591 0.38895 0.0
C2616 C 0.99524 0.56783 0.32893 0.0
H2617 H 0.99864 0.5771 0.22523 0.0
C2618 C 0.00704 0.56173 0.33396 0.0
C2619 C 0.99232 0.57367 0.28953 0.0
C2620 C 0.97996 0.58074 0.28281 0.0
C2621 C 0.01575 0.5608 0.29992 0.0
C2622 C 0.01264 0.56633 0.26006 0.0
C2623 C 0.00101 0.57279 0.25562 0.0
C2624 C 0.02101 0.56511 0.22189 0.0
C2625 C 0.02792 0.55341 0.30635 0.0
C2626 C 0.03347 0.57001 0.22171 0.0
C2627 C 0.04103 0.56918 0.18497 0.0
C2628 C 0.03623 0.56353 0.14768 0.0
C2629 C 0.0238 0.55862 0.14794 0.0
C2630 C 0.01627 0.55941 0.18462 0.0
H2631 H 0.02748 0.54725 0.3351 0.0
H2632 H 0.03003 0.54736 0.27822 0.0
H2633 H 0.03593 0.56018 0.31055 0.0
H2634 H 0.03726 0.57471 0.24967 0.0
H2635 H 0.05053 0.57321 0.18537 0.0
H2636 H 0.16887 0.2326 0.22133 0.0
H2637 H 0.1685 0.25016 0.16947 0.0
H2638 H 0.19738 0.23125 0.09522 0.0
H2639 H 0.19783 0.21379 0.14616 0.0
H2640 H 0.18952 0.26644 0.13734 0.0
H2641 H 0.16699 0.23684 0.01178 0.0
H2642 H 0.16682 0.23243 0.0674 0.0
H2643 H 0.18085 0.2298 0.03576 0.0
C2644 C 0.17517 0.23221 0.19404 0.0
C2645 C 0.1833 0.2217 0.18784 0.0
C2646 C 0.17497 0.24226 0.16451 0.0
C2647 C 0.1828 0.24191 0.12823 0.0
C2648 C 0.19113 0.23163 0.12266 0.0
H2649 H 0.20652 0.29634 0.93731 0.0
H2650 H 0.20464 0.28312 0.00163 0.0
C2651 C 0.19137 0.22164 0.152 0.0
C2652 C 0.18215 0.25204 0.09526 0.0
H2653 H 0.17571 0.25665 0.98977 0.0
C2654 C 0.18639 0.26437 0.10516 0.0
C2655 C 0.17794 0.24934 0.05341 0.0
C2656 C 0.17278 0.23642 0.04139 0.0
C2657 C 0.18692 0.27396 0.07383 0.0
C2658 C 0.18325 0.27108 0.0315 0.0
C2659 C 0.17862 0.25885 0.0221 0.0
C2660 C 0.18425 0.28044 0.99603 0.0
C2661 C 0.19138 0.28709 0.08632 0.0
C2662 C 0.17345 0.2834 0.97157 0.0
C2663 C 0.17455 0.29086 0.93488 0.0
C2664 C 0.18647 0.29546 0.92173 0.0
C2665 C 0.19721 0.29297 0.94705 0.0
C2666 C 0.19612 0.28546 0.98382 0.0
H2667 H 0.19036 0.28873 0.12113 0.0
H2668 H 0.2016 0.28812 0.07804 0.0
H2669 H 0.18596 0.29456 0.06903 0.0
H2670 H 0.1642 0.27963 0.98025 0.0
H2671 H 0.16612 0.29272 0.91595 0.0
H2672 H 0.44928 0.54668 0.86944 0.0
H2673 H 0.46253 0.54898 0.80526 0.0
H2674 H 0.4718 0.58743 0.84216 0.0
H2675 H 0.45865 0.58512 0.90623 0.0
H2676 H 0.46352 0.56694 0.73534 0.0
H2677 H 0.50649 0.56897 0.83853 0.0
H2678 H 0.49114 0.56398 0.85824 0.0
H2679 H 0.49447 0.5806 0.85061 0.0
C2680 C 0.45397 0.55568 0.86334 0.0
C2681 C 0.45315 0.56565 0.89302 0.0
C2682 C 0.46154 0.55699 0.82676 0.0
C2683 C 0.46834 0.5683 0.81935 0.0
C2684 C 0.46683 0.57854 0.84764 0.0
H2685 H 0.51666 0.58572 0.59624 0.0
H2686 H 0.49919 0.58615 0.64844 0.0
C2687 C 0.45933 0.57722 0.88418 0.0
C2688 C 0.47778 0.56906 0.78409 0.0
H2689 H 0.50968 0.57181 0.76486 0.0
C2690 C 0.47361 0.56805 0.74168 0.0
C2691 C 0.49096 0.57038 0.79249 0.0
C2692 C 0.49609 0.57094 0.83739 0.0
C2693 C 0.4823 0.56833 0.70745 0.0
C2694 C 0.49547 0.56975 0.71594 0.0
C2695 C 0.49958 0.57082 0.75835 0.0
C2696 C 0.50533 0.5692 0.68191 0.0
C2697 C 0.4774 0.56672 0.66262 0.0
C2698 C 0.51457 0.55959 0.68338 0.0
C2699 C 0.52454 0.55937 0.65402 0.0
C2700 C 0.52559 0.5688 0.62231 0.0
C2701 C 0.51614 0.5783 0.62013 0.0
C2702 C 0.50611 0.57852 0.64982 0.0
H2703 H 0.46739 0.56328 0.66205 0.0
H2704 H 0.47778 0.57603 0.64596 0.0
H2705 H 0.48344 0.55991 0.6446 0.0
H2706 H 0.51418 0.5523 0.70779 0.0
H2707 H 0.53156 0.55186 0.65672 0.0
H2708 H 0.16778 0.7664 0.34762 0.0
H2709 H 0.16865 0.75001 0.40353 0.0
H2710 H 0.19864 0.77071 0.46657 0.0
H2711 H 0.19794 0.78699 0.41132 0.0
H2712 H 0.19244 0.73524 0.4371 0.0
H2713 H 0.16794 0.76622 0.55502 0.0
H2714 H 0.1665 0.76859 0.49819 0.0
H2715 H 0.18072 0.77344 0.52546 0.0
C2716 C 0.17463 0.76741 0.37318 0.0
C2717 C 0.18273 0.7781 0.37495 0.0
C2718 C 0.17512 0.75803 0.40506 0.0
C2719 C 0.18363 0.75922 0.43937 0.0
C2720 C 0.19193 0.76966 0.44057 0.0
H2721 H 0.1998 0.72484 0.68229 0.0
H2722 H 0.1984 0.73792 0.61781 0.0
C2723 C 0.19151 0.77897 0.40879 0.0
C2724 C 0.18368 0.74988 0.47496 0.0
H2725 H 0.17717 0.74724 0.58119 0.0
C2726 C 0.18899 0.73777 0.46854 0.0
C2727 C 0.17923 0.75325 0.51593 0.0
C2728 C 0.17318 0.76605 0.52427 0.0
C2729 C 0.19037 0.72909 0.5025 0.0
C2730 C 0.18608 0.73254 0.54375 0.0
C2731 C 0.18051 0.74458 0.54973 0.0
C2732 C 0.1876 0.72408 0.58161 0.0
C2733 C 0.19687 0.71652 0.49422 0.0
C2734 C 0.18208 0.71188 0.58286 0.0
C2735 C 0.18296 0.70436 0.61971 0.0
C2736 C 0.18925 0.70897 0.65609 0.0
C2737 C 0.19488 0.72108 0.65465 0.0
C2738 C 0.19407 0.72855 0.61785 0.0
H2739 H 0.20253 0.71673 0.46431 0.0
H2740 H 0.20328 0.71392 0.52098 0.0
H2741 H 0.18956 0.70896 0.49099 0.0
H2742 H 0.17678 0.7083 0.5558 0.0
H2743 H 0.17838 0.69512 0.62026 0.0
H2744 H 0.05525 0.42846 0.35901 0.0
H2745 H 0.04173 0.42794 0.29487 0.0
H2746 H 0.01386 0.45132 0.35864 0.0
H2747 H 0.02731 0.45182 0.4225 0.0
H2748 H 0.0156 0.41854 0.29363 0.0
H2749 H 0.01901 0.46884 0.24077 0.0
H2750 H 0.03062 0.46158 0.27565 0.0
H2751 H 0.01552 0.46674 0.2964 0.0
C2752 C 0.04634 0.43367 0.35886 0.0
C2753 C 0.04233 0.44026 0.3954 0.0
C2754 C 0.03862 0.43332 0.32241 0.0
C2755 C 0.02685 0.43971 0.32181 0.0
C2756 C 0.02298 0.4465 0.35811 0.0
H2757 H 0.96056 0.4485 0.16453 0.0
H2758 H 0.9778 0.44978 0.21645 0.0
C2759 C 0.03064 0.44675 0.39457 0.0
C2760 C 0.01819 0.43867 0.28449 0.0
H2761 H 0.00255 0.45635 0.20961 0.0
C2762 C 0.01286 0.42676 0.27483 0.0
C2763 C 0.01457 0.44942 0.26025 0.0
C2764 C 0.02029 0.46236 0.26843 0.0
C2765 C 0.0036 0.4254 0.24272 0.0
C2766 C -0.00018 0.43621 0.21879 0.0
C2767 C 0.00542 0.44806 0.22785 0.0
C2768 C 0.9896 0.43557 0.18585 0.0
C2769 C 0.99754 0.41252 0.23616 0.0
C2770 C 0.99053 0.42732 0.1507 0.0
C2771 C 0.98059 0.42648 0.12098 0.0
C2772 C 0.96957 0.434 0.12546 0.0
C2773 C 0.96886 0.44254 0.15999 0.0
C2774 C 0.97874 0.44329 0.18978 0.0
H2775 H 0.99905 0.40616 0.26399 0.0
H2776 H 0.98715 0.41342 0.23047 0.0
H2777 H 0.00189 0.40788 0.20791 0.0
H2778 H 0.99894 0.4215 0.14628 0.0
H2779 H 0.98153 0.4199 0.09459 0.0
H2780 H 0.29922 0.2131 0.90775 0.0
H2781 H 0.29797 0.22995 0.96103 0.0
H2782 H 0.33183 0.24727 0.90929 0.0
H2783 H 0.33312 0.23045 0.85529 0.0
H2784 H 0.31623 0.2354 0.02232 0.0
H2785 H 0.30713 0.27755 0.91977 0.0
H2786 H 0.30503 0.26142 0.90108 0.0
H2787 H 0.32072 0.26813 0.90494 0.0
C2788 C 0.30637 0.22053 0.90729 0.0
C2789 C 0.31629 0.22037 0.8771 0.0
C2790 C 0.30563 0.23018 0.93788 0.0
C2791 C 0.31472 0.23995 0.93897 0.0
C2792 C 0.32457 0.23995 0.90862 0.0
H2793 H 0.33147 0.28852 0.15582 0.0
H2794 H 0.33262 0.27488 0.09248 0.0
C2795 C 0.32533 0.23028 0.8779 0.0
C2796 C 0.31423 0.24966 0.97348 0.0
H2797 H 0.31095 0.28154 0.99321 0.0
C2798 C 0.31507 0.24549 0.0159 0.0
C2799 C 0.31262 0.26281 0.96513 0.0
C2800 C 0.31121 0.26779 0.92031 0.0
C2801 C 0.31448 0.25409 0.05009 0.0
C2802 C 0.31308 0.26724 0.04175 0.0
C2803 C 0.3121 0.27145 0.99943 0.0
C2804 C 0.31263 0.27665 0.077 0.0
C2805 C 0.31521 0.24905 0.09506 0.0
C2806 C 0.30108 0.28247 0.0885 0.0
C2807 C 0.3004 0.29021 0.12487 0.0
C2808 C 0.31126 0.29224 0.1501 0.0
C2809 C 0.32293 0.28695 0.13717 0.0
C2810 C 0.3236 0.27919 0.10104 0.0
H2811 H 0.31408 0.23854 0.09632 0.0
H2812 H 0.32461 0.25153 0.10893 0.0
H2813 H 0.30774 0.2535 0.11524 0.0
H2814 H 0.29251 0.28063 0.07031 0.0
H2815 H 0.29129 0.29417 0.13424 0.0
H2816 H 0.09819 0.03535 0.13466 0.0
H2817 H 0.10973 0.02183 0.1848 0.0
H2818 H 0.08125 0.99258 0.16992 0.0
H2819 H 0.06948 0.00612 0.1204 0.0
H2820 H 0.09471 0.01514 0.25889 0.0
H2821 H 0.11602 0.97284 0.18225 0.0
H2822 H 0.11386 0.98787 0.15488 0.0
H2823 H 0.10074 0.97698 0.16044 0.0
C2824 C 0.09456 0.02589 0.14109 0.0
C2825 C 0.08279 0.02185 0.1243 0.0
C2826 C 0.10124 0.01817 0.16949 0.0
C2827 C 0.0964 0.00621 0.18059 0.0
C2828 C 0.08524 0.00172 0.16103 0.0
H2829 H 0.07304 0.95252 0.33166 0.0
H2830 H 0.08345 0.96607 0.27956 0.0
C2831 C 0.07844 0.00951 0.13317 0.0
C2832 C 0.10098 -0.00031 0.21911 0.0
H2833 H 0.10747 0.96974 0.25373 0.0
C2834 C 0.09796 0.00533 0.25829 0.0
C2835 C 0.10538 0.98704 0.21782 0.0
C2836 C 0.10931 0.98085 0.17656 0.0
C2837 C 0.0973 0.99804 0.29555 0.0
C2838 C 0.10021 0.98489 0.29332 0.0
C2839 C 0.10507 0.97978 0.25522 0.0
C2840 C 0.0953 0.9759 0.3256 0.0
C2841 C 0.09205 0.00415 0.33542 0.0
C2842 C 0.09855 0.97685 0.36889 0.0
C2843 C 0.09225 0.96934 0.39906 0.0
C2844 C 0.08293 0.96057 0.38599 0.0
C2845 C 0.08016 0.95924 0.34256 0.0
C2846 C 0.0862 0.9669 0.31273 0.0
H2847 H 0.08891 0.01412 0.32995 0.0
H2848 H 0.08379 0.99864 0.34765 0.0
H2849 H 0.09951 0.00428 0.36043 0.0
H2850 H 0.10575 0.98352 0.3794 0.0
H2851 H 0.09469 0.97033 0.43243 0.0
H2852 H 0.2961 0.83448 0.58669 0.0
H2853 H 0.28042 0.8437 0.53974 0.0
H2854 H 0.25592 0.85154 0.6472 0.0
H2855 H 0.27156 0.84164 0.69471 0.0
H2856 H 0.24378 0.8384 0.59503 0.0
H2857 H 0.26523 0.87511 0.49587 0.0
H2858 H 0.27672 0.86255 0.49668 0.0
H2859 H 0.27243 0.87048 0.54585 0.0
C2860 C 0.28751 0.83839 0.6006 0.0
C2861 C 0.28491 0.83708 0.64419 0.0
C2862 C 0.27861 0.84396 0.57369 0.0
C2863 C 0.26703 0.84858 0.58986 0.0
C2864 C 0.26483 0.84814 0.63402 0.0
H2865 H 0.21567 0.84339 0.36968 0.0
H2866 H 0.22627 0.85502 0.42716 0.0
C2867 C 0.2737 0.84237 0.66103 0.0
C2868 C 0.25643 0.85073 0.55968 0.0
H2869 H 0.25295 0.85792 0.45443 0.0
C2870 C 0.24552 0.84317 0.56495 0.0
C2871 C 0.2583 0.85725 0.52069 0.0
C2872 C 0.26877 0.86691 0.51488 0.0
C2873 C 0.23775 0.84023 0.53024 0.0
C2874 C 0.24117 0.84479 0.48953 0.0
C2875 C 0.25074 0.854 0.48553 0.0
C2876 C 0.23626 0.83852 0.45107 0.0
C2877 C 0.22664 0.83132 0.53669 0.0
C2878 C 0.23899 0.82559 0.44441 0.0
C2879 C 0.23298 0.8189 0.41187 0.0
C2880 C 0.22418 0.82509 0.38543 0.0
C2881 C 0.22231 0.83832 0.38992 0.0
C2882 C 0.22832 0.845 0.42267 0.0
H2883 H 0.22278 0.83211 0.56955 0.0
H2884 H 0.21889 0.8333 0.51357 0.0
H2885 H 0.22989 0.82136 0.53201 0.0
H2886 H 0.24536 0.82054 0.46572 0.0
H2887 H 0.23471 0.80877 0.40893 0.0
H2888 H 0.41383 0.0428 0.84765 0.0
H2889 H 0.40485 0.02537 0.80763 0.0
H2890 H 0.40233 0.0028 0.9224 0.0
H2891 H 0.412 0.02027 0.96278 0.0
H2892 H 0.41467 0.99041 0.86877 0.0
H2893 H 0.37372 0.00691 0.77828 0.0
H2894 H 0.38516 0.01938 0.77248 0.0
H2895 H 0.37911 0.01547 0.82489 0.0
C2896 C 0.41113 0.03425 0.86469 0.0
C2897 C 0.41386 0.03279 0.90813 0.0
C2898 C 0.40571 0.02432 0.84182 0.0
C2899 C 0.40263 0.01279 0.86201 0.0
C2900 C 0.40452 0.01164 0.90618 0.0
H2901 H 0.40534 0.96247 0.64024 0.0
H2902 H 0.39486 0.97123 0.70341 0.0
C2903 C 0.41015 0.02156 0.9291 0.0
C2904 C 0.40047 0.00143 0.8351 0.0
H2905 H 0.39087 0.99554 0.73338 0.0
C2906 C 0.40901 0.99124 0.84 0.0
C2907 C 0.39276 0.002 0.79817 0.0
C2908 C 0.38208 0.01149 0.79364 0.0
C2909 C 0.41167 0.98312 0.80591 0.0
C2910 C 0.40588 0.98551 0.76611 0.0
C2911 C 0.39575 0.99415 0.76348 0.0
C2912 C 0.41172 0.98082 0.72646 0.0
C2913 C 0.42148 0.97277 0.81179 0.0
C2914 C 0.42446 0.98392 0.71759 0.0
C2915 C 0.43048 0.97897 0.68174 0.0
C2916 C 0.4238 0.97095 0.65391 0.0
C2917 C 0.41078 0.96857 0.66131 0.0
C2918 C 0.40477 0.97349 0.69742 0.0
H2919 H 0.42122 0.96899 0.84484 0.0
H2920 H 0.41996 0.9648 0.78912 0.0
H2921 H 0.43113 0.97679 0.80639 0.0
H2922 H 0.42984 0.98996 0.73901 0.0
H2923 H 0.44046 0.98109 0.67667 0.0
H2924 H 0.25965 0.18954 0.8863 0.0
H2925 H 0.24709 0.17773 0.93857 0.0
H2926 H 0.2696 0.14411 0.91553 0.0
H2927 H 0.28213 0.15572 0.86264 0.0
H2928 H 0.23745 0.14438 0.93627 0.0
H2929 H 0.27324 0.16494 0.04712 0.0
H2930 H 0.26844 0.17509 0.00374 0.0
H2931 H 0.27696 0.16063 0.99277 0.0
C2932 C 0.26169 0.17954 0.89131 0.0
C2933 C 0.27204 0.17365 0.87112 0.0
C2934 C 0.25449 0.1728 0.92101 0.0
C2935 C 0.25758 0.16014 0.93082 0.0
C2936 C 0.26713 0.15387 0.90808 0.0
H2937 H 0.22596 0.16005 0.18223 0.0
H2938 H 0.23927 0.14907 0.12952 0.0
C2939 C 0.27429 0.16058 0.87813 0.0
C2940 C 0.25223 0.15452 0.96962 0.0
H2941 H 0.25264 0.16067 0.07569 0.0
C2942 C 0.24093 0.14751 0.96709 0.0
C2943 C 0.25712 0.15815 0.00968 0.0
C2944 C 0.26968 0.16503 0.01379 0.0
C2945 C 0.2335 0.14553 0.00359 0.0
C2946 C 0.23731 0.15121 0.04248 0.0
C2947 C 0.24954 0.15651 0.04582 0.0
C2948 C 0.22791 0.15492 0.07529 0.0
C2949 C 0.22124 0.13816 0.99948 0.0
C2950 C 0.21708 0.16174 0.06243 0.0
C2951 C 0.20953 0.16793 0.09223 0.0
C2952 C 0.21277 0.16767 0.13555 0.0
C2953 C 0.22335 0.16051 0.14888 0.0
C2954 C 0.23086 0.15413 0.11891 0.0
H2955 H 0.22269 0.1297 0.9788 0.0
H2956 H 0.21759 0.13497 0.03092 0.0
H2957 H 0.21395 0.14422 0.98385 0.0
H2958 H 0.21486 0.16301 0.02901 0.0
H2959 H 0.20143 0.17337 0.08097 0.0
H2960 H 0.917 0.97226 0.94213 0.0
H2961 H 0.91574 0.98721 0.88229 0.0
H2962 H 0.95113 0.97258 0.83276 0.0
H2963 H 0.95237 0.95751 0.89171 0.0
H2964 H 0.93167 0.00626 0.85507 0.0
H2965 H 0.92778 0.96918 0.73038 0.0
H2966 H 0.92594 0.96569 0.78635 0.0
H2967 H 0.94158 0.96717 0.76341 0.0
C2968 C 0.92454 0.97225 0.9186 0.0
C2969 C 0.93473 0.96357 0.92165 0.0
C2970 C 0.9238 0.9808 0.88435 0.0
C2971 C 0.93319 0.98082 0.85242 0.0
C2972 C 0.94359 0.97251 0.85628 0.0
H2973 H 0.95146 0.03957 0.67017 0.0
H2974 H 0.95033 0.0247 0.72965 0.0
C2975 C 0.94432 0.96395 0.89032 0.0
C2976 C 0.93223 0.98959 0.81524 0.0
H2977 H 0.93232 0.99029 0.7063 0.0
C2978 C 0.93171 0.00276 0.82255 0.0
C2979 C 0.93205 0.98504 0.77274 0.0
C2980 C 0.93173 0.97099 0.76266 0.0
C2981 C 0.93148 0.0115 0.78861 0.0
C2982 C 0.93202 0.00697 0.74612 0.0
C2983 C 0.93207 0.99378 0.7388 0.0
C2984 C 0.93283 0.01575 0.70895 0.0
C2985 C 0.93055 0.02552 0.79864 0.0
C2986 C 0.92365 0.01536 0.67636 0.0
C2987 C 0.92434 0.0238 0.6418 0.0
C2988 C 0.93426 0.03279 0.63908 0.0
C2989 C 0.94362 0.03288 0.67125 0.0
C2990 C 0.94294 0.02443 0.70559 0.0
H2991 H 0.92635 0.02718 0.83067 0.0
H2992 H 0.94024 0.02974 0.79847 0.0
H2993 H 0.92468 0.0306 0.7746 0.0
H2994 H 0.91583 0.00866 0.67803 0.0
H2995 H 0.91698 0.02343 0.61765 0.0
H2996 H 0.77616 0.16537 0.6905 0.0
H2997 H 0.76124 0.16357 0.63064 0.0
H2998 H 0.77617 0.19829 0.57705 0.0
H2999 H 0.79116 0.20009 0.63602 0.0
H3000 H 0.74233 0.17959 0.6015 0.0
H3001 H 0.77938 0.17366 0.47756 0.0
H3002 H 0.7828 0.1723 0.53375 0.0
H3003 H 0.78168 0.18773 0.50908 0.0
C3004 C 0.77623 0.17266 0.66608 0.0
C3005 C 0.78495 0.18283 0.66803 0.0
C3006 C 0.76772 0.17159 0.63181 0.0
C3007 C 0.76779 0.18063 0.59878 0.0
C3008 C 0.77617 0.191 0.60148 0.0
H3009 H 0.70991 0.19952 0.41592 0.0
H3010 H 0.72496 0.19813 0.47481 0.0
C3011 C 0.78467 0.19207 0.63553 0.0
C3012 C 0.75903 0.17939 0.56172 0.0
H3013 H 0.75837 0.17857 0.4528 0.0
C3014 C 0.74584 0.17925 0.56902 0.0
C3015 C 0.76359 0.1787 0.51929 0.0
C3016 C 0.77764 0.17797 0.50937 0.0
C3017 C 0.73711 0.17898 0.53506 0.0
C3018 C 0.74168 0.17909 0.49258 0.0
C3019 C 0.75486 0.17868 0.4853 0.0
C3020 C 0.73293 0.18005 0.45542 0.0
C3021 C 0.72306 0.17857 0.54505 0.0
C3022 C 0.73276 0.17061 0.42368 0.0
C3023 C 0.7242 0.17142 0.38944 0.0
C3024 C 0.71568 0.18173 0.38624 0.0
C3025 C 0.71623 0.19137 0.4174 0.0
C3026 C 0.72477 0.19056 0.45141 0.0
H3027 H 0.72126 0.17469 0.57742 0.0
H3028 H 0.71915 0.18838 0.544 0.0
H3029 H 0.71782 0.17268 0.52147 0.0
H3030 H 0.73907 0.16247 0.42587 0.0
H3031 H 0.72407 0.16384 0.36604 0.0
H3032 H 0.55204 0.95243 0.18501 0.0
H3033 H 0.55276 0.96821 0.2417 0.0
H3034 H 0.57765 0.99169 0.16569 0.0
H3035 H 0.57736 0.97558 0.10895 0.0
H3036 H 0.58567 0.99109 0.24598 0.0
H3037 H 0.53404 0.00112 0.24783 0.0
H3038 H 0.5371 0.98452 0.25606 0.0
H3039 H 0.54142 0.99188 0.20622 0.0
C3040 C 0.55761 0.96099 0.18001 0.0
C3041 C 0.56455 0.96278 0.14209 0.0
C3042 C 0.55795 0.97007 0.21253 0.0
C3043 C 0.565 0.98133 0.20774 0.0
C3044 C 0.57205 0.98312 0.17009 0.0
H3045 H 0.55351 0.04573 0.3781 0.0
H3046 H 0.55413 0.03102 0.31814 0.0
C3047 C 0.57186 0.97393 0.1376 0.0
C3048 C 0.56519 0.99101 0.24256 0.0
H3049 H 0.54583 0.00816 0.30864 0.0
C3050 C 0.57696 0.99491 0.25943 0.0
C3051 C 0.55385 0.99621 0.25983 0.0
C3052 C 0.54091 0.99332 0.24122 0.0
C3053 C 0.57769 0.00359 0.29356 0.0
C3054 C 0.56632 0.00822 0.31237 0.0
C3055 C 0.55457 0.00451 0.29485 0.0
C3056 C 0.56629 0.01722 0.34926 0.0
C3057 C 0.59067 0.0079 0.30834 0.0
C3058 C 0.57282 0.01439 0.38728 0.0
C3059 C 0.57264 0.02294 0.42165 0.0
C3060 C 0.56568 0.03436 0.4191 0.0
C3061 C 0.55894 0.03701 0.38137 0.0
C3062 C 0.55929 0.02859 0.3469 0.0
H3063 H 0.59793 0.00675 0.28289 0.0
H3064 H 0.59054 0.01804 0.31841 0.0
H3065 H 0.59368 0.002 0.33587 0.0
H3066 H 0.57797 0.00552 0.39059 0.0
H3067 H 0.57786 0.02055 0.45032 0.0
H3068 H 0.70887 0.79945 0.14634 0.0
H3069 H 0.72355 0.80046 0.08624 0.0
H3070 H 0.73875 0.83584 0.13382 0.0
H3071 H 0.72415 0.83484 0.19473 0.0
H3072 H 0.72523 0.81877 0.02377 0.0
H3073 H 0.7709 0.81495 0.11209 0.0
H3074 H 0.75573 0.81136 0.1363 0.0
H3075 H 0.76066 0.82762 0.12954 0.0
C3076 C 0.71539 0.80742 0.14441 0.0
C3077 C 0.71531 0.81706 0.17564 0.0
C3078 C 0.72377 0.80799 0.10982 0.0
C3079 C 0.73234 0.81816 0.10555 0.0
C3080 C 0.73238 0.82778 0.13674 0.0
H3081 H 0.77343 0.83534 0.86787 0.0
H3082 H 0.75876 0.83607 0.92857 0.0
C3083 C 0.72399 0.82721 0.17152 0.0
C3084 C 0.74095 0.81875 0.06781 0.0
H3085 H 0.77227 0.81871 0.03792 0.0
C3086 C 0.73552 0.8188 0.02686 0.0
C3087 C 0.75438 0.81865 0.07178 0.0
C3088 C 0.76081 0.81803 0.11473 0.0
C3089 C 0.74312 0.81872 0.98991 0.0
C3090 C 0.75654 0.81878 0.99389 0.0
C3091 C 0.76198 0.81876 0.03483 0.0
C3092 C 0.76515 0.81829 0.95613 0.0
C3093 C 0.73669 0.81818 0.94695 0.0
C3094 C 0.77372 0.80813 0.95148 0.0
C3095 C 0.78214 0.80771 0.91696 0.0
C3096 C 0.78227 0.81749 0.88623 0.0
C3097 C 0.77356 0.82761 0.89068 0.0
C3098 C 0.76513 0.82802 0.92535 0.0
H3099 H 0.7266 0.8151 0.94954 0.0
H3100 H 0.73684 0.82779 0.93234 0.0
H3101 H 0.74177 0.81154 0.92525 0.0
H3102 H 0.77393 0.80052 0.97474 0.0
H3103 H 0.78869 0.79977 0.91477 0.0
H3104 H 0.56493 0.49087 0.93363 0.0
H3105 H 0.57612 0.50418 0.88198 0.0
H3106 H 0.60736 0.47755 0.87951 0.0
H3107 H 0.59634 0.46419 0.93156 0.0
H3108 H 0.60546 0.51371 0.87269 0.0
H3109 H 0.58655 0.47747 0.75905 0.0
H3110 H 0.57916 0.47917 0.81062 0.0
H3111 H 0.59499 0.47287 0.80667 0.0
C3112 C 0.57432 0.488 0.92302 0.0
C3113 C 0.57962 0.47637 0.93589 0.0
C3114 C 0.58074 0.49565 0.89382 0.0
C3115 C 0.59249 0.49174 0.87708 0.0
C3116 C 0.59831 0.48068 0.89237 0.0
H3117 H 0.58789 0.52654 0.62908 0.0
H3118 H 0.59976 0.51347 0.68031 0.0
C3119 C 0.59194 0.47306 0.92185 0.0
C3120 C 0.59716 0.49802 0.83837 0.0
H3121 H 0.58982 0.4981 0.733 0.0
C3122 C 0.60252 0.51018 0.84174 0.0
C3123 C 0.59366 0.49319 0.79805 0.0
C3124 C 0.5883 0.47994 0.79296 0.0
C3125 C 0.60302 0.51824 0.80623 0.0
C3126 C 0.5975 0.51413 0.76745 0.0
C3127 C 0.59385 0.50136 0.7629 0.0
C3128 C 0.5925 0.52331 0.73591 0.0
C3129 C 0.60864 0.53136 0.81142 0.0
C3130 C 0.58443 0.53308 0.75013 0.0
C3131 C 0.57774 0.54051 0.72117 0.0
C3132 C 0.57872 0.53814 0.67735 0.0
C3133 C 0.58688 0.52846 0.66282 0.0
C3134 C 0.59376 0.52111 0.69196 0.0
H3135 H 0.61729 0.53094 0.83174 0.0
H3136 H 0.61119 0.53568 0.78028 0.0
H3137 H 0.60166 0.5376 0.82787 0.0
H3138 H 0.5828 0.53462 0.78381 0.0
H3139 H 0.57148 0.54787 0.7333 0.0
H3140 H 0.71433 0.3433 0.87761 0.0
H3141 H 0.72621 0.35344 0.9352 0.0
H3142 H 0.74964 0.31989 0.94712 0.0
H3143 H 0.73782 0.30965 0.88978 0.0
H3144 H 0.72469 0.34174 0.01408 0.0
H3145 H 0.77501 0.34874 0.96956 0.0
H3146 H 0.76239 0.34773 0.93044 0.0
H3147 H 0.76943 0.33347 0.95206 0.0
C3148 C 0.72226 0.33821 0.8916 0.0
C3149 C 0.72499 0.32556 0.87983 0.0
C3150 C 0.72906 0.34407 0.92436 0.0
C3151 C 0.7388 0.33744 0.94518 0.0
C3152 C 0.74228 0.32526 0.93088 0.0
H3153 H 0.75907 0.309 0.16562 0.0
H3154 H 0.74695 0.31917 0.10885 0.0
C3155 C 0.73544 0.31936 0.89836 0.0
C3156 C 0.74356 0.34185 0.98677 0.0
H3157 H 0.77104 0.3425 0.04389 0.0
C3158 C 0.73481 0.3424 0.02059 0.0
C3159 C 0.75671 0.34296 0.9951 0.0
C3160 C 0.7664 0.34334 0.9597 0.0
C3161 C 0.739 0.34234 0.06291 0.0
C3162 C 0.75218 0.34166 0.07116 0.0
C3163 C 0.76089 0.34282 0.03742 0.0
C3164 C 0.75711 0.3371 0.11236 0.0
C3165 C 0.7293 0.34204 0.09831 0.0
C3166 C 0.76657 0.34394 0.13383 0.0
C3167 C 0.77354 0.33812 0.16624 0.0
C3168 C 0.77127 0.32531 0.17703 0.0
C3169 C 0.76109 0.31884 0.15781 0.0
C3170 C 0.75408 0.3247 0.12562 0.0
H3171 H 0.72049 0.3472 0.08895 0.0
H3172 H 0.72665 0.33201 0.105 0.0
H3173 H 0.73314 0.34633 0.12799 0.0
H3174 H 0.76908 0.35349 0.12377 0.0
H3175 H 0.78125 0.34342 0.18079 0.0
H3176 H 0.90101 0.52819 0.41836 0.0
H3177 H 0.89041 0.51565 0.36256 0.0
H3178 H 0.91471 0.53308 0.26797 0.0
H3179 H 0.92459 0.54607 0.32275 0.0
H3180 H 0.8915 0.52965 0.23646 0.0
H3181 H 0.90747 0.4849 0.31683 0.0
H3182 H 0.89634 0.49486 0.34456 0.0
H3183 H 0.91241 0.50026 0.33609 0.0
C3184 C 0.90396 0.52933 0.38551 0.0
C3185 C 0.91371 0.53789 0.37468 0.0
C3186 C 0.89792 0.5222 0.35376 0.0
C3187 C 0.90192 0.52326 0.31119 0.0
C3188 C 0.91139 0.53214 0.30052 0.0
H3189 H 0.93213 0.49273 0.11376 0.0
H3190 H 0.91919 0.50657 0.15893 0.0
C3191 C 0.91713 0.53948 0.33188 0.0
C3192 C 0.89756 0.51437 0.27773 0.0
H3193 H 0.90337 0.48405 0.2446 0.0
C3194 C 0.89371 0.51957 0.23849 0.0
C3195 C 0.90018 0.50117 0.28059 0.0
C3196 C 0.90438 0.49492 0.32162 0.0
C3197 C 0.89422 0.51235 0.20103 0.0
C3198 C 0.89839 0.49963 0.20338 0.0
C3199 C 0.90031 0.49391 0.2432 0.0
C3200 C 0.90379 0.49302 0.16623 0.0
C3201 C 0.8914 0.51862 0.15891 0.0
C3202 C 0.89921 0.48102 0.15456 0.0
C3203 C 0.90658 0.47311 0.12881 0.0
C3204 C 0.91875 0.47702 0.11516 0.0
C3205 C 0.92286 0.48943 0.12418 0.0
C3206 C 0.9154 0.49739 0.14951 0.0
H3207 H 0.88463 0.52667 0.16283 0.0
H3208 H 0.90038 0.52247 0.1454 0.0
H3209 H 0.88738 0.51167 0.13586 0.0
H3210 H 0.89035 0.47746 0.16767 0.0
H3211 H 0.90307 0.46363 0.12203 0.0
H3212 H 0.77805 0.65642 0.37725 0.0
H3213 H 0.76607 0.6428 0.42678 0.0
H3214 H 0.77805 0.66661 0.53156 0.0
H3215 H 0.79029 0.67979 0.48295 0.0
H3216 H 0.77944 0.64071 0.55068 0.0
H3217 H 0.73242 0.65336 0.47883 0.0
H3218 H 0.74438 0.6456 0.44709 0.0
H3219 H 0.74655 0.66188 0.4631 0.0
C3220 C 0.77803 0.65872 0.4109 0.0
C3221 C 0.78497 0.66919 0.42642 0.0
C3222 C 0.77126 0.65091 0.43907 0.0
C3223 C 0.77121 0.65368 0.48279 0.0
C3224 C 0.77813 0.66417 0.498 0.0
H3225 H 0.74524 0.67782 0.68321 0.0
H3226 H 0.75786 0.66479 0.63472 0.0
C3227 C 0.78501 0.67179 0.47017 0.0
C3228 C 0.76322 0.64667 0.51349 0.0
H3229 H 0.73305 0.6493 0.55167 0.0
C3230 C 0.76919 0.64205 0.55048 0.0
C3231 C 0.74983 0.64802 0.51273 0.0
C3232 C 0.74284 0.65247 0.47343 0.0
C3233 C 0.76245 0.6411 0.58881 0.0
C3234 C 0.74952 0.64468 0.58949 0.0
C3235 C 0.74309 0.64684 0.551 0.0
C3236 C 0.74364 0.64995 0.62825 0.0
C3237 C 0.76949 0.6377 0.62905 0.0
C3238 C 0.73163 0.64575 0.64145 0.0
C3239 C 0.72439 0.65321 0.66909 0.0
C3240 C 0.72899 0.6651 0.68316 0.0
C3241 C 0.74141 0.66879 0.67254 0.0
C3242 C 0.7487 0.66124 0.64531 0.0
H3243 H 0.77727 0.63082 0.62229 0.0
H3244 H 0.77389 0.64643 0.64255 0.0
H3245 H 0.76297 0.63357 0.65325 0.0
H3246 H 0.72752 0.63716 0.62815 0.0
H3247 H 0.71487 0.65004 0.67707 0.0
H3248 H 0.45034 0.53784 0.1551 0.0
H3249 H 0.45002 0.52264 0.21383 0.0
H3250 H 0.41317 0.50921 0.1732 0.0
H3251 H 0.41349 0.5243 0.11364 0.0
H3252 H 0.4331 0.52144 0.27986 0.0
H3253 H 0.43264 0.47607 0.18913 0.0
H3254 H 0.43639 0.49116 0.16461 0.0
H3255 H 0.4201 0.48692 0.17516 0.0
C3256 C 0.44221 0.53156 0.15819 0.0
C3257 C 0.43195 0.53231 0.1294 0.0
C3258 C 0.44203 0.52289 0.192 0.0
C3259 C 0.43162 0.5147 0.1979 0.0
C3260 C 0.42142 0.51526 0.16894 0.0
H3261 H 0.41708 0.47393 0.4381 0.0
H3262 H 0.4159 0.48875 0.3779 0.0
C3263 C 0.4216 0.52393 0.13491 0.0
C3264 C 0.43135 0.50595 0.2353 0.0
H3265 H 0.43007 0.47457 0.26391 0.0
C3266 C 0.43242 0.51119 0.27637 0.0
C3267 C 0.43057 0.49256 0.23079 0.0
C3268 C 0.42998 0.4863 0.18757 0.0
C3269 C 0.43277 0.50344 0.31292 0.0
C3270 C 0.43181 0.49006 0.30846 0.0
C3271 C 0.43071 0.48482 0.2674 0.0
C3272 C 0.43253 0.48128 0.3457 0.0
C3273 C 0.43457 0.50963 0.35588 0.0
C3274 C 0.44215 0.47202 0.3475 0.0
C3275 C 0.44281 0.4635 0.38169 0.0
C3276 C 0.43383 0.46399 0.41498 0.0
C3277 C 0.42422 0.47333 0.41328 0.0
C3278 C 0.42356 0.48185 0.3789 0.0
H3279 H 0.43828 0.5195 0.35294 0.0
H3280 H 0.42525 0.5101 0.3725 0.0
H3281 H 0.44123 0.50404 0.37599 0.0
H3282 H 0.44918 0.47137 0.32232 0.0
H3283 H 0.45034 0.45645 0.38172 0.0
H3284 H 0.29608 0.69502 0.13629 0.0
H3285 H 0.28145 0.69435 0.07614 0.0
H3286 H 0.25647 0.66948 0.14663 0.0
H3287 H 0.2714 0.66971 0.20679 0.0
H3288 H 0.25858 0.66154 0.06642 0.0
H3289 H 0.24881 0.71325 0.06353 0.0
H3290 H 0.26548 0.70999 0.05835 0.0
H3291 H 0.25727 0.70576 0.10675 0.0
C3292 C 0.28743 0.68947 0.1393 0.0
C3293 C 0.28488 0.68251 0.17671 0.0
C3294 C 0.27902 0.68915 0.10479 0.0
C3295 C 0.26767 0.68212 0.10701 0.0
C3296 C 0.26512 0.67506 0.14416 0.0
H3297 H 0.20449 0.69385 0.93397 0.0
H3298 H 0.21926 0.69302 0.99359 0.0
C3299 C 0.27364 0.67523 0.17862 0.0
C3300 C 0.25862 0.68201 0.07028 0.0
H3301 H 0.24219 0.70148 0.00254 0.0
C3302 C 0.25493 0.67027 0.05262 0.0
C3303 C 0.25368 0.69338 0.05245 0.0
C3304 C 0.25641 0.70629 0.07154 0.0
C3305 C 0.2466 0.6696 0.01749 0.0
C3306 C 0.2421 0.681 0.99855 0.0
C3307 C 0.24572 0.69272 0.01651 0.0
C3308 C 0.23311 0.6811 0.96163 0.0
C3309 C 0.24244 0.65666 0.00188 0.0
C3310 C 0.23591 0.67475 0.92324 0.0
C3311 C 0.22732 0.67506 0.88894 0.0
C3312 C 0.21587 0.68197 0.89201 0.0
C3313 C 0.21323 0.68849 0.93021 0.0
C3314 C 0.22169 0.68801 0.96451 0.0
H3315 H 0.24365 0.64926 0.02685 0.0
H3316 H 0.23231 0.65675 0.99173 0.0
H3317 H 0.24838 0.65388 0.97417 0.0
H3318 H 0.2448 0.66964 0.9196 0.0
H3319 H 0.22969 0.67 0.85992 0.0
H3320 H 0.05408 0.45475 0.67263 0.0
H3321 H 0.0541 0.46977 0.73165 0.0
H3322 H 0.07956 0.49438 0.66202 0.0
H3323 H 0.07996 0.47905 0.60298 0.0
H3324 H 0.08674 0.49272 0.7434 0.0
H3325 H 0.03502 0.50249 0.73974 0.0
H3326 H 0.03821 0.48585 0.74622 0.0
H3327 H 0.04296 0.49381 0.6979 0.0
C3328 C 0.05963 0.46339 0.66955 0.0
C3329 C 0.06693 0.46572 0.63271 0.0
C3330 C 0.05957 0.47203 0.70341 0.0
C3331 C 0.06658 0.4834 0.70108 0.0
C3332 C 0.07399 0.48573 0.66454 0.0
H3333 H 0.05327 0.54712 0.87149 0.0
H3334 H 0.05456 0.53231 0.81199 0.0
C3335 C 0.07418 0.47697 0.63072 0.0
C3336 C 0.06632 0.49266 0.73718 0.0
H3337 H 0.04614 0.50934 0.8019 0.0
C3338 C 0.07787 0.49643 0.756 0.0
C3339 C 0.05476 0.49767 0.75342 0.0
C3340 C 0.04206 0.49486 0.73298 0.0
C3341 C 0.07817 0.50487 0.79087 0.0
C3342 C 0.06657 0.50942 0.80833 0.0
C3343 C 0.05505 0.50577 0.78908 0.0
C3344 C 0.06609 0.51841 0.84521 0.0
C3345 C 0.09094 0.50907 0.80784 0.0
C3346 C 0.07204 0.51557 0.88427 0.0
C3347 C 0.07146 0.52416 0.9185 0.0
C3348 C 0.06468 0.53567 0.91466 0.0
C3349 C 0.05853 0.53834 0.87582 0.0
C3350 C 0.05927 0.52986 0.84159 0.0
H3351 H 0.09858 0.50785 0.78369 0.0
H3352 H 0.09073 0.51921 0.81788 0.0
H3353 H 0.09346 0.50316 0.83588 0.0
H3354 H 0.07706 0.50665 0.88846 0.0
H3355 H 0.07623 0.52176 0.948 0.0
H3356 H 0.22508 0.33429 0.69723 0.0
H3357 H 0.23928 0.33459 0.63522 0.0
H3358 H 0.22295 0.29931 0.59116 0.0
H3359 H 0.20865 0.29899 0.65244 0.0
H3360 H 0.25747 0.31758 0.6067 0.0
H3361 H 0.21883 0.32227 0.48746 0.0
H3362 H 0.21623 0.32465 0.54374 0.0
H3363 H 0.21688 0.3088 0.52207 0.0
C3364 C 0.22454 0.32655 0.67447 0.0
C3365 C 0.21562 0.31667 0.67977 0.0
C3366 C 0.23266 0.32675 0.63897 0.0
C3367 C 0.23198 0.31712 0.60796 0.0
C3368 C 0.22342 0.30702 0.614 0.0
H3369 H 0.28793 0.29755 0.41617 0.0
H3370 H 0.27346 0.29842 0.47689 0.0
C3371 C 0.21531 0.30682 0.64935 0.0
C3372 C 0.24027 0.31756 0.56944 0.0
H3373 H 0.23951 0.31746 0.46046 0.0
C3374 C 0.25354 0.31762 0.57474 0.0
C3375 C 0.23515 0.31782 0.52765 0.0
C3376 C 0.221 0.31851 0.51975 0.0
C3377 C 0.26182 0.31757 0.53951 0.0
C3378 C 0.25671 0.31724 0.49775 0.0
C3379 C 0.24344 0.31756 0.49242 0.0
C3380 C 0.26499 0.31644 0.45931 0.0
C3381 C 0.276 0.318 0.54738 0.0
C3382 C 0.26468 0.32601 0.42802 0.0
C3383 C 0.2729 0.3255 0.39282 0.0
C3384 C 0.28157 0.31537 0.38815 0.0
C3385 C 0.28148 0.30557 0.41878 0.0
C3386 C 0.27327 0.30608 0.45381 0.0
H3387 H 0.27824 0.32182 0.57954 0.0
H3388 H 0.27992 0.30821 0.54538 0.0
H3389 H 0.28088 0.32397 0.52317 0.0
H3390 H 0.25828 0.33404 0.43138 0.0
H3391 H 0.27267 0.3332 0.36989 0.0
H3392 H 0.17475 0.15218 0.18833 0.0
H3393 H 0.15982 0.13629 0.16123 0.0
H3394 H 0.12905 0.15484 0.22786 0.0
H3395 H 0.14392 0.17068 0.25578 0.0
H3396 H 0.12907 0.12832 0.23638 0.0
H3397 H 0.13357 0.14319 0.06717 0.0
H3398 H 0.1484 0.13939 0.0927 0.0
H3399 H 0.13928 0.15284 0.11076 0.0
C3400 C 0.16481 0.15287 0.19736 0.0
C3401 C 0.1605 0.16275 0.22399 0.0
C3402 C 0.1563 0.14382 0.18164 0.0
C3403 C 0.14333 0.14455 0.19199 0.0
C3404 C 0.13904 0.15419 0.21936 0.0
H3405 H 0.07986 0.10821 0.06697 0.0
H3406 H 0.09548 0.12306 0.09621 0.0
C3407 C 0.14754 0.16323 0.23521 0.0
C3408 C 0.1342 0.13529 0.17419 0.0
H3409 H 0.12153 0.12455 0.08081 0.0
C3410 C 0.1274 0.12748 0.20239 0.0
C3411 C 0.13198 0.13437 0.12987 0.0
C3412 C 0.13859 0.14296 0.09831 0.0
C3413 C 0.11845 0.11865 0.18736 0.0
C3414 C 0.11645 0.11752 0.14297 0.0
C3415 C 0.12319 0.1254 0.11481 0.0
C3416 C 0.10715 0.10843 0.1251 0.0
C3417 C 0.11102 0.11083 0.21913 0.0
C3418 C 0.10868 0.0953 0.13119 0.0
C3419 C 0.09975 0.08678 0.11468 0.0
C3420 C 0.0892 0.09127 0.0915 0.0
C3421 C 0.08785 0.10444 0.08477 0.0
C3422 C 0.09677 0.11294 0.10141 0.0
H3423 H 0.11139 0.11503 0.2516 0.0
H3424 H 0.1009 0.10993 0.20934 0.0
H3425 H 0.11517 0.10112 0.2208 0.0
H3426 H 0.11679 0.09164 0.14865 0.0
H3427 H 0.10112 0.07669 0.12017 0.0
H3428 H 0.14023 0.82694 0.31763 0.0
H3429 H 0.1259 0.84276 0.34853 0.0
H3430 H 0.15799 0.86239 0.40365 0.0
H3431 H 0.17243 0.84653 0.37332 0.0
H3432 H 0.13769 0.8586 0.4606 0.0
H3433 H 0.12131 0.87962 0.30785 0.0
H3434 H 0.11955 0.86263 0.31086 0.0
H3435 H 0.13521 0.86955 0.31153 0.0
C3436 C 0.14427 0.83465 0.33613 0.0
C3437 C 0.15749 0.8355 0.34282 0.0
C3438 C 0.13606 0.8437 0.35362 0.0
C3439 C 0.14092 0.85381 0.37784 0.0
C3440 C 0.15408 0.85467 0.38487 0.0
H3441 H 0.09914 0.92166 0.44749 0.0
H3442 H 0.11495 0.90646 0.42192 0.0
C3443 C 0.16231 0.84561 0.36743 0.0
C3444 C 0.13224 0.86339 0.39642 0.0
H3445 H 0.1101 0.88581 0.37023 0.0
C3446 C 0.13169 0.8646 0.44092 0.0
C3447 C 0.12456 0.87128 0.37055 0.0
C3448 C 0.12523 0.87083 0.32253 0.0
C3449 C 0.12344 0.87337 0.46032 0.0
C3450 C 0.11545 0.88095 0.43446 0.0
C3451 C 0.11617 0.87989 0.38995 0.0
C3452 C 0.10632 0.89017 0.4527 0.0
C3453 C 0.12348 0.87457 0.50823 0.0
C3454 C 0.09625 0.88604 0.47865 0.0
C3455 C 0.08719 0.89472 0.4935 0.0
C3456 C 0.088 0.90766 0.48229 0.0
C3457 C 0.09821 0.91177 0.45673 0.0
C3458 C 0.10726 0.9031 0.44204 0.0
H3459 H 0.13233 0.87059 0.5224 0.0
H3460 H 0.12255 0.88467 0.51813 0.0
H3461 H 0.11528 0.86921 0.52146 0.0
H3462 H 0.09523 0.87605 0.48656 0.0
H3463 H 0.07941 0.89124 0.51296 0.0
H3464 H 0.42122 0.8909 0.54968 0.0
H3465 H 0.40535 0.8759 0.57705 0.0
H3466 H 0.38371 0.90713 0.62914 0.0
H3467 H 0.39953 0.92215 0.60257 0.0
H3468 H 0.3885 0.88792 0.6875 0.0
H3469 H 0.36891 0.8685 0.53644 0.0
H3470 H 0.38596 0.86775 0.54092 0.0
H3471 H 0.37818 0.88297 0.53847 0.0
C3472 C 0.41301 0.89458 0.5665 0.0
C3473 C 0.41167 0.90772 0.57406 0.0
C3474 C 0.40393 0.88601 0.58195 0.0
C3475 C 0.39333 0.89044 0.60481 0.0
C3476 C 0.39183 0.90354 0.61154 0.0
H3477 H 0.32595 0.84919 0.68294 0.0
H3478 H 0.34121 0.86415 0.6521 0.0
C3479 C 0.40089 0.9121 0.59627 0.0
C3480 C 0.38415 0.88144 0.62402 0.0
H3481 H 0.36238 0.85838 0.60046 0.0
C3482 C 0.38276 0.88147 0.6685 0.0
C3483 C 0.37663 0.87315 0.59904 0.0
C3484 C 0.37737 0.87312 0.55104 0.0
C3485 C 0.37409 0.87334 0.68879 0.0
C3486 C 0.36678 0.86484 0.66391 0.0
C3487 C 0.36808 0.86487 0.61939 0.0
C3488 C 0.3576 0.85592 0.68347 0.0
C3489 C 0.37265 0.87409 0.73657 0.0
C3490 C 0.36181 0.84635 0.71126 0.0
C3491 C 0.35312 0.83781 0.72911 0.0
C3492 C 0.34008 0.83865 0.7192 0.0
C3493 C 0.33592 0.8483 0.69139 0.0
C3494 C 0.34461 0.85683 0.6736 0.0
H3495 H 0.37654 0.88314 0.74953 0.0
H3496 H 0.36249 0.87329 0.74601 0.0
H3497 H 0.37793 0.8661 0.75145 0.0
H3498 H 0.37183 0.84539 0.71871 0.0
H3499 H 0.35666 0.83046 0.75021 0.0
H3500 H 0.41699 0.10696 5e-05 0.0
H3501 H 0.39968 0.12025 0.97355 0.0
H3502 H 0.38212 0.0874 0.91567 0.0
H3503 H 0.39951 0.07398 0.94166 0.0
H3504 H 0.38436 0.10805 0.861 0.0
H3505 H 0.36273 0.12261 0.0144 0.0
H3506 H 0.37961 0.12529 0.0127 0.0
H3507 H 0.37354 0.1093 0.00991 0.0
C3508 C 0.40941 0.10251 0.98201 0.0
C3509 C 0.40962 0.0894 0.97302 0.0
C3510 C 0.39947 0.11011 0.96715 0.0
C3511 C 0.38954 0.10475 0.94332 0.0
C3512 C 0.38967 0.09167 0.93435 0.0
H3513 H 0.324 0.15131 0.87039 0.0
H3514 H 0.33701 0.13376 0.89738 0.0
C3515 C 0.39961 0.08404 0.94922 0.0
C3516 C 0.37947 0.113 0.92558 0.0
H3517 H 0.35746 0.13537 0.95341 0.0
C3518 C 0.37835 0.1139 0.88116 0.0
C3519 C 0.37152 0.12045 0.95201 0.0
C3520 C 0.3718 0.11929 -9e-05 0.0
C3521 C 0.36989 0.12256 0.86239 0.0
C3522 C 0.36258 0.13063 0.88884 0.0
C3523 C 0.36323 0.12927 0.93325 0.0
C3524 C 0.35465 0.14096 0.87116 0.0
C3525 C 0.36896 0.12309 0.81445 0.0
C3526 C 0.36032 0.15085 0.84791 0.0
C3527 C 0.35295 0.16088 0.83248 0.0
C3528 C 0.33977 0.16124 0.84029 0.0
C3529 C 0.33413 0.15132 0.86375 0.0
C3530 C 0.34152 0.14128 0.87919 0.0
H3531 H 0.37214 0.11403 0.79962 0.0
H3532 H 0.35905 0.1251 0.80405 0.0
H3533 H 0.37519 0.13083 0.80239 0.0
H3534 H 0.3705 0.15089 0.84223 0.0
H3535 H 0.35762 0.1684 0.81471 0.0
H3536 H 0.89599 0.91267 0.00138 0.0
H3537 H 0.8826 0.89557 0.97383 0.0
H3538 H 0.91515 0.8789 0.91121 0.0
H3539 H 0.92864 0.89609 0.93812 0.0
H3540 H 0.89437 0.8815 0.85833 0.0
H3541 H 0.88035 0.85829 0.00961 0.0
H3542 H 0.8775 0.87514 0.00999 0.0
H3543 H 0.89356 0.86926 0.00602 0.0
C3544 C 0.90035 0.90532 0.98209 0.0
C3545 C 0.91339 0.90575 0.97197 0.0
C3546 C 0.89269 0.89549 0.96663 0.0
C3547 C 0.89794 0.88587 0.94109 0.0
C3548 C 0.91096 0.8862 0.93117 0.0
H3549 H 0.85043 0.82126 0.86457 0.0
H3550 H 0.8684 0.83378 0.89123 0.0
C3551 C 0.91863 0.89603 0.94659 0.0
C3552 C 0.88962 0.87598 0.92251 0.0
H3553 H 0.86736 0.85366 0.94854 0.0
C3554 C 0.88859 0.87528 0.878 0.0
C3555 C 0.88225 0.86775 0.94824 0.0
C3556 C 0.88355 0.86753 0.99611 0.0
C3557 C 0.8799 0.86699 0.85855 0.0
C3558 C 0.87191 0.85939 0.8844 0.0
C3559 C 0.8734 0.85962 0.92882 0.0
C3560 C 0.86147 0.85168 0.86621 0.0
C3561 C 0.87927 0.86653 0.81055 0.0
C3562 C 0.85162 0.85764 0.84356 0.0
C3563 C 0.84136 0.85054 0.82827 0.0
C3564 C 0.84072 0.83735 0.83569 0.0
C3565 C 0.85065 0.8314 0.85826 0.0
C3566 C 0.86092 0.83852 0.87352 0.0
H3567 H 0.88837 0.8697 0.79591 0.0
H3568 H 0.87706 0.85677 0.79907 0.0
H3569 H 0.87163 0.87303 0.79935 0.0
H3570 H 0.85173 0.86784 0.83844 0.0
H3571 H 0.83386 0.85544 0.81118 0.0
H3572 H 0.92511 0.09561 0.63336 0.0
H3573 H 0.91061 0.11178 0.66107 0.0
H3574 H 0.88367 0.10297 0.5615 0.0
H3575 H 0.8979 0.08636 0.53471 0.0
H3576 H 0.90067 0.13289 0.63017 0.0
H3577 H 0.86172 0.09883 0.66461 0.0
H3578 H 0.87744 0.09369 0.64923 0.0
H3579 H 0.86618 0.09882 0.60948 0.0
C3580 C 0.91611 0.09714 0.61726 0.0
C3581 C 0.91256 0.08962 0.58217 0.0
C3582 C 0.90784 0.10639 0.63313 0.0
C3583 C 0.89593 0.10838 0.61398 0.0
C3584 C 0.89263 0.10132 0.57761 0.0
H3585 H 0.84705 0.17351 0.66344 0.0
H3586 H 0.86306 0.15888 0.63535 0.0
C3587 C 0.90081 0.0919 0.56216 0.0
C3588 C 0.88691 0.11769 0.63262 0.0
H3589 H 0.85668 0.12078 0.67096 0.0
C3590 C 0.89107 0.13024 0.63929 0.0
C3591 C 0.87447 0.11415 0.6453 0.0
C3592 C 0.86972 0.10061 0.64223 0.0
C3593 C 0.88307 0.13939 0.65787 0.0
C3594 C 0.87044 0.13599 0.6687 0.0
C3595 C 0.86634 0.12342 0.66235 0.0
C3596 C 0.86125 0.14524 0.68679 0.0
C3597 C 0.88838 0.15249 0.66663 0.0
C3598 C 0.85467 0.14232 0.72451 0.0
C3599 C 0.84529 0.15051 0.74003 0.0
C3600 C 0.84241 0.16185 0.71836 0.0
C3601 C 0.84918 0.16491 0.68111 0.0
C3602 C 0.8584 0.15659 0.66516 0.0
H3603 H 0.89892 0.15227 0.66972 0.0
H3604 H 0.88601 0.15888 0.63962 0.0
H3605 H 0.88432 0.15661 0.69624 0.0
H3606 H 0.85669 0.1336 0.74169 0.0
H3607 H 0.84024 0.14792 0.76887 0.0
H3608 H 0.66299 0.14507 0.30964 0.0
H3609 H 0.64575 0.13214 0.33859 0.0
H3610 H 0.63071 0.16494 0.40415 0.0
H3611 H 0.64804 0.178 0.37575 0.0
H3612 H 0.63324 0.14361 0.45591 0.0
H3613 H 0.60802 0.13154 0.3063 0.0
H3614 H 0.62477 0.12821 0.30381 0.0
H3615 H 0.61941 0.14438 0.30976 0.0
C3616 C 0.65596 0.14959 0.3299 0.0
C3617 C 0.65689 0.16258 0.34037 0.0
C3618 C 0.64607 0.1422 0.34618 0.0
C3619 C 0.63687 0.14764 0.37295 0.0
C3620 C 0.63768 0.16061 0.38327 0.0
H3621 H 0.57114 0.10228 0.45097 0.0
H3622 H 0.58428 0.11993 0.42571 0.0
C3623 C 0.64759 0.16804 0.36697 0.0
C3624 C 0.62688 0.13956 0.39208 0.0
H3625 H 0.60349 0.11835 0.36685 0.0
C3626 C 0.62661 0.13821 0.43654 0.0
C3627 C 0.61813 0.1327 0.36673 0.0
C3628 C 0.61748 0.13436 0.31903 0.0
C3629 C 0.61819 0.12968 0.45624 0.0
C3630 C 0.61003 0.12219 0.43065 0.0
C3631 C 0.60988 0.124 0.38635 0.0
C3632 C 0.60199 0.112 0.44883 0.0
C3633 C 0.61819 0.12869 0.5042 0.0
C3634 C 0.60763 0.1017 0.47016 0.0
C3635 C 0.60016 0.0916 0.48471 0.0
C3636 C 0.58693 0.09157 0.4778 0.0
C3637 C 0.5813 0.10199 0.45681 0.0
C3638 C 0.58878 0.11209 0.44236 0.0
H3639 H 0.62191 0.13752 0.5192 0.0
H3640 H 0.60847 0.12683 0.51661 0.0
H3641 H 0.62446 0.1207 0.514 0.0
H3642 H 0.61785 0.10131 0.47462 0.0
H3643 H 0.60481 0.08371 0.5006 0.0
H3644 H 0.66322 0.85317 0.25681 0.0
H3645 H 0.64524 0.8655 0.23007 0.0
H3646 H 0.62905 0.83156 0.17487 0.0
H3647 H 0.64713 0.8191 0.20101 0.0
H3648 H 0.63015 0.8516 0.11859 0.0
H3649 H 0.60842 0.86706 0.27069 0.0
H3650 H 0.62514 0.8705 0.2683 0.0
H3651 H 0.61982 0.85421 0.26764 0.0
C3652 C 0.65579 0.84827 0.23936 0.0
C3653 C 0.65662 0.83514 0.23103 0.0
C3654 C 0.64547 0.85533 0.22437 0.0
C3655 C 0.63573 0.8494 0.2011 0.0
C3656 C 0.63644 0.83628 0.19307 0.0
H3657 H 0.56914 0.89459 0.12689 0.0
H3658 H 0.58224 0.87712 0.15414 0.0
C3659 C 0.64677 0.82919 0.20804 0.0
C3660 C 0.62531 0.85711 0.18271 0.0
H3661 H 0.60276 0.87918 0.20847 0.0
C3662 C 0.62402 0.85749 0.13823 0.0
C3663 C 0.6172 0.86462 0.20843 0.0
C3664 C 0.61761 0.86399 0.25644 0.0
C3665 C 0.61527 0.86571 0.11868 0.0
C3666 C 0.60782 0.87389 0.14433 0.0
C3667 C 0.60862 0.87301 0.18886 0.0
C3668 C 0.59972 0.88396 0.12567 0.0
C3669 C 0.61421 0.86567 0.07074 0.0
C3670 C 0.60524 0.89359 0.10085 0.0
C3671 C 0.59781 0.90356 0.08522 0.0
C3672 C 0.58471 0.90414 0.09443 0.0
C3673 C 0.57919 0.89441 0.11912 0.0
C3674 C 0.58665 0.88443 0.13474 0.0
H3675 H 0.61736 0.85643 0.05709 0.0
H3676 H 0.60428 0.86755 0.06032 0.0
H3677 H 0.62043 0.87324 0.05747 0.0
H3678 H 0.61537 0.89356 0.09433 0.0
H3679 H 0.60239 0.91091 0.06648 0.0
H3680 H 0.6457 0.66401 0.76675 0.0
H3681 H 0.63038 0.64837 0.74064 0.0
H3682 H 0.65597 0.63852 0.63817 0.0
H3683 H 0.67158 0.65379 0.66524 0.0
H3684 H 0.61806 0.64764 0.66835 0.0
H3685 H 0.64719 0.60387 0.68142 0.0
H3686 H 0.65204 0.61878 0.70484 0.0
H3687 H 0.65469 0.61576 0.64904 0.0
C3688 C 0.64811 0.65843 0.73887 0.0
C3689 C 0.65986 0.66007 0.71814 0.0
C3690 C 0.63935 0.6495 0.72398 0.0
C3691 C 0.64211 0.64212 0.68785 0.0
C3692 C 0.65379 0.64383 0.66682 0.0
H3693 H 0.58318 0.60454 0.53904 0.0
H3694 H 0.59965 0.61895 0.5655 0.0
C3695 C 0.66266 0.65262 0.68214 0.0
C3696 C 0.63249 0.63308 0.67126 0.0
H3697 H 0.62791 0.60216 0.64165 0.0
C3698 C 0.62019 0.63767 0.66276 0.0
C3699 C 0.63523 0.62004 0.66453 0.0
C3700 C 0.64797 0.61429 0.67586 0.0
C3701 C 0.61058 0.62963 0.64745 0.0
C3702 C 0.61349 0.61672 0.63888 0.0
C3703 C 0.62575 0.61209 0.64772 0.0
C3704 C 0.60386 0.60778 0.62176 0.0
C3705 C 0.59735 0.63499 0.64176 0.0
C3706 C 0.60115 0.59644 0.6436 0.0
C3707 C 0.59196 0.58805 0.62803 0.0
C3708 C 0.58523 0.59091 0.59052 0.0
C3709 C 0.58809 0.60217 0.56833 0.0
C3710 C 0.59744 0.61046 0.58356 0.0
H3711 H 0.59585 0.6436 0.66173 0.0
H3712 H 0.59601 0.63782 0.60799 0.0
H3713 H 0.58995 0.62786 0.6501 0.0
H3714 H 0.60603 0.59416 0.67303 0.0
H3715 H 0.58995 0.57944 0.64583 0.0
H3716 H 0.67058 0.34624 0.86902 0.0
H3717 H 0.65549 0.36141 0.89944 0.0
H3718 H 0.62441 0.34151 0.83919 0.0
H3719 H 0.63943 0.32633 0.8081 0.0
H3720 H 0.62336 0.36812 0.83035 0.0
H3721 H 0.63102 0.35369 0.99859 0.0
H3722 H 0.64535 0.35773 0.97042 0.0
H3723 H 0.63621 0.3441 0.9541 0.0
C3724 C 0.66054 0.34508 0.86211 0.0
C3725 C 0.65621 0.33502 0.83632 0.0
C3726 C 0.65193 0.35372 0.87976 0.0
C3727 C 0.63885 0.35241 0.87217 0.0
C3728 C 0.63449 0.34259 0.84564 0.0
H3729 H 0.57728 0.39036 0.00632 0.0
H3730 H 0.59215 0.37476 0.97675 0.0
C3731 C 0.64309 0.33394 0.82792 0.0
C3732 C 0.62971 0.36139 0.89156 0.0
H3733 H 0.61878 0.37242 0.98708 0.0
C3734 C 0.62231 0.36905 0.86459 0.0
C3735 C 0.62827 0.36242 0.93623 0.0
C3736 C 0.63554 0.35397 0.9666 0.0
C3737 C 0.61367 0.37793 0.88118 0.0
C3738 C 0.61257 0.37928 0.92587 0.0
C3739 C 0.61977 0.37144 0.95284 0.0
C3740 C 0.60394 0.38877 0.94517 0.0
C3741 C 0.60568 0.38568 0.85078 0.0
C3742 C 0.60588 0.4018 0.93801 0.0
C3743 C 0.59742 0.41073 0.95478 0.0
C3744 C 0.5869 0.40678 0.97922 0.0
C3745 C 0.58525 0.39372 0.9875 0.0
C3746 C 0.59372 0.38479 0.97065 0.0
H3747 H 0.60531 0.3813 0.81857 0.0
H3748 H 0.5958 0.38676 0.86288 0.0
H3749 H 0.60989 0.39533 0.84755 0.0
H3750 H 0.61388 0.40504 0.91913 0.0
H3751 H 0.59904 0.42071 0.94804 0.0
H3752 H 0.82785 0.34299 0.17419 0.0
H3753 H 0.84318 0.35856 0.14744 0.0
H3754 H 0.86836 0.34994 0.25222 0.0
H3755 H 0.85332 0.33392 0.27805 0.0
H3756 H 0.85289 0.37965 0.17857 0.0
H3757 H 0.89193 0.34494 0.15386 0.0
H3758 H 0.87593 0.34008 0.16679 0.0
H3759 H 0.8866 0.34536 0.2081 0.0
C3760 C 0.83666 0.34443 0.19156 0.0
C3761 C 0.83947 0.33715 0.22792 0.0
C3762 C 0.8454 0.35333 0.17625 0.0
C3763 C 0.85704 0.35521 0.19728 0.0
C3764 C 0.85962 0.34835 0.2347 0.0
H3765 H 0.90689 0.41988 0.14648 0.0
H3766 H 0.891 0.40538 0.17634 0.0
C3767 C 0.85099 0.33927 0.24959 0.0
C3768 C 0.86648 0.36428 0.17973 0.0
H3769 H 0.89732 0.36679 0.14668 0.0
C3770 C 0.8626 0.37683 0.17142 0.0
C3771 C 0.87907 0.36053 0.16969 0.0
C3772 C 0.8836 0.34696 0.17463 0.0
C3773 C 0.87097 0.38576 0.15354 0.0
C3774 C 0.88372 0.38214 0.14524 0.0
C3775 C 0.88758 0.36958 0.15343 0.0
C3776 C 0.89319 0.39109 0.1271 0.0
C3777 C 0.86594 0.39882 0.14264 0.0
C3778 C 0.90001 0.3877 0.09032 0.0
C3779 C 0.90932 0.39581 0.07391 0.0
C3780 C 0.91188 0.40753 0.09367 0.0
C3781 C 0.905 0.41096 0.13032 0.0
C3782 C 0.89585 0.40273 0.14722 0.0
H3783 H 0.85544 0.39873 0.13834 0.0
H3784 H 0.86814 0.40547 0.16913 0.0
H3785 H 0.87037 0.40256 0.11306 0.0
H3786 H 0.89814 0.37876 0.07432 0.0
H3787 H 0.91445 0.39293 0.04553 0.0
H3788 H 0.85438 0.66573 0.30486 0.0
H3789 H 0.86861 0.64974 0.33528 0.0
H3790 H 0.84222 0.64377 0.4388 0.0
H3791 H 0.8277 0.65937 0.40757 0.0
H3792 H 0.8808 0.64905 0.40864 0.0
H3793 H 0.84785 0.60788 0.40108 0.0
H3794 H 0.84443 0.62281 0.37517 0.0
H3795 H 0.84155 0.62091 0.43137 0.0
C3796 C 0.85157 0.66096 0.33396 0.0
C3797 C 0.83987 0.66372 0.35363 0.0
C3798 C 0.85972 0.65183 0.35135 0.0
C3799 C 0.85639 0.64539 0.38893 0.0
C3800 C 0.84483 0.64834 0.40914 0.0
H3801 H 0.91372 0.60225 0.5323 0.0
H3802 H 0.89807 0.6183 0.51075 0.0
C3803 C 0.83657 0.65731 0.39137 0.0
C3804 C 0.86517 0.63578 0.4072 0.0
H3805 H 0.86719 0.60475 0.4387 0.0
C3806 C 0.87784 0.63935 0.41514 0.0
C3807 C 0.86131 0.62309 0.41527 0.0
C3808 C 0.84808 0.61839 0.40489 0.0
C3809 C 0.88679 0.63058 0.43052 0.0
C3810 C 0.88285 0.61798 0.43966 0.0
C3811 C 0.87016 0.61444 0.43211 0.0
C3812 C 0.8919 0.60809 0.45445 0.0
C3813 C 0.90047 0.63479 0.43526 0.0
C3814 C 0.89324 0.59678 0.43106 0.0
C3815 C 0.90193 0.5875 0.44381 0.0
C3816 C 0.90956 0.58938 0.48006 0.0
C3817 C 0.90807 0.6006 0.50396 0.0
C3818 C 0.8992 0.60982 0.49152 0.0
H3819 H 0.90252 0.64344 0.41603 0.0
H3820 H 0.90236 0.63714 0.46914 0.0
H3821 H 0.90715 0.62715 0.42538 0.0
H3822 H 0.88769 0.59522 0.40242 0.0
H3823 H 0.90287 0.57897 0.42465 0.0
H3824 H 0.39743 0.41109 0.52603 0.0
H3825 H 0.38268 0.39441 0.50309 0.0
H3826 H 0.40751 0.3854 0.39769 0.0
H3827 H 0.42254 0.4016 0.42163 0.0
H3828 H 0.36954 0.39308 0.43385 0.0
H3829 H 0.40031 0.35046 0.43912 0.0
H3830 H 0.40505 0.36542 0.46243 0.0
H3831 H 0.40721 0.36257 0.40625 0.0
C3832 C 0.39982 0.40541 0.49833 0.0
C3833 C 0.41116 0.4076 0.47573 0.0
C3834 C 0.39139 0.39589 0.48524 0.0
C3835 C 0.39407 0.38848 0.44907 0.0
C3836 C 0.40541 0.39068 0.42647 0.0
H3837 H 0.33616 0.35251 0.29453 0.0
H3838 H 0.35242 0.36642 0.32505 0.0
C3839 C 0.41395 0.40002 0.44 0.0
C3840 C 0.3846 0.37914 0.43317 0.0
H3841 H 0.38119 0.34864 0.39735 0.0
C3842 C 0.37206 0.38332 0.42635 0.0
C3843 C 0.38782 0.36634 0.42396 0.0
C3844 C 0.40079 0.3609 0.43379 0.0
C3845 C 0.36275 0.37518 0.40965 0.0
C3846 C 0.36618 0.36264 0.39779 0.0
C3847 C 0.37862 0.35833 0.40568 0.0
C3848 C 0.35697 0.35382 0.37751 0.0
C3849 C 0.34928 0.38008 0.40566 0.0
C3850 C 0.35463 0.3418 0.39542 0.0
C3851 C 0.34557 0.33368 0.37737 0.0
C3852 C 0.33861 0.33751 0.34133 0.0
C3853 C 0.34124 0.34938 0.32268 0.0
C3854 C 0.35046 0.35738 0.34029 0.0
H3855 H 0.34743 0.38798 0.42837 0.0
H3856 H 0.34779 0.38384 0.373 0.0
H3857 H 0.34221 0.37242 0.41159 0.0
H3858 H 0.3596 0.3388 0.42395 0.0
H3859 H 0.34374 0.32459 0.39245 0.0
H3860 H 0.33426 0.64404 0.25963 0.0
H3861 H 0.35146 0.63074 0.23221 0.0
H3862 H 0.36983 0.66391 0.17946 0.0
H3863 H 0.35257 0.67733 0.20625 0.0
H3864 H 0.36708 0.64447 0.12153 0.0
H3865 H 0.38824 0.62635 0.27134 0.0
H3866 H 0.37131 0.62409 0.2691 0.0
H3867 H 0.37774 0.63997 0.26988 0.0
C3868 C 0.34202 0.64855 0.24265 0.0
C3869 C 0.34202 0.66175 0.23503 0.0
C3870 C 0.3519 0.64094 0.22727 0.0
C3871 C 0.36199 0.64638 0.20436 0.0
C3872 C 0.36215 0.65956 0.19734 0.0
H3873 H 0.42627 0.59954 0.12109 0.0
H3874 H 0.41372 0.6169 0.1517 0.0
C3875 C 0.35227 0.6672 0.21266 0.0
C3876 C 0.3718 0.63814 0.18491 0.0
H3877 H 0.39315 0.61464 0.20764 0.0
C3878 C 0.37291 0.63807 0.14036 0.0
C3879 C 0.37951 0.62994 0.2096 0.0
C3880 C 0.37925 0.63016 0.25766 0.0
C3881 C 0.38112 0.62955 0.11969 0.0
C3882 C 0.38821 0.62079 0.14427 0.0
C3883 C 0.38757 0.62128 0.18889 0.0
C3884 C 0.39589 0.61064 0.12427 0.0
C3885 C 0.38205 0.62994 0.07173 0.0
C3886 C 0.38997 0.60136 0.09899 0.0
C3887 C 0.39708 0.59144 0.08146 0.0
C3888 C 0.41024 0.59058 0.08915 0.0
C3889 C 0.41615 0.59993 0.11446 0.0
C3890 C 0.40901 0.60985 0.13201 0.0
H3891 H 0.37908 0.63934 0.05892 0.0
H3892 H 0.39191 0.62791 0.06089 0.0
H3893 H 0.37564 0.6226 0.05804 0.0
H3894 H 0.37979 0.60168 0.09341 0.0
H3895 H 0.39221 0.58438 0.0623 0.0
H3896 H 0.10329 0.58435 0.99928 0.0
H3897 H 0.11731 0.60119 0.97314 0.0
H3898 H 0.08514 0.6203 0.91649 0.0
H3899 H 0.07104 0.60343 0.9419 0.0
H3900 H 0.10529 0.61723 0.861 0.0
H3901 H 0.12167 0.63788 0.01404 0.0
H3902 H 0.12372 0.62094 0.01105 0.0
H3903 H 0.10794 0.62758 0.01027 0.0
C3904 C 0.09916 0.5922 0.98165 0.0
C3905 C 0.08604 0.59254 0.97266 0.0
C3906 C 0.10718 0.60185 0.96697 0.0
C3907 C 0.10222 0.61206 0.94339 0.0
C3908 C 0.08912 0.61253 0.93484 0.0
H3909 H 0.1482 0.67781 0.87033 0.0
H3910 H 0.13097 0.66438 0.89739 0.0
C3911 C 0.08109 0.60288 0.94944 0.0
C3912 C 0.11082 0.6218 0.92533 0.0
H3913 H 0.13361 0.64353 0.95193 0.0
C3914 C 0.11139 0.62308 0.88086 0.0
C3915 C 0.11863 0.62952 0.95137 0.0
C3916 C 0.11789 0.62903 0.99935 0.0
C3917 C 0.11993 0.63158 0.86164 0.0
C3918 C 0.12821 0.6388 0.88762 0.0
C3919 C 0.12731 0.63787 0.93212 0.0
C3920 C 0.13822 0.64703 0.86928 0.0
C3921 C 0.12003 0.63273 0.81372 0.0
C3922 C 0.14798 0.64168 0.8446 0.0
C3923 C 0.15783 0.6493 0.82905 0.0
C3924 C 0.15812 0.66241 0.83816 0.0
C3925 C 0.14824 0.66776 0.86261 0.0
C3926 C 0.1384 0.66011 0.87817 0.0
H3927 H 0.11089 0.62947 0.79957 0.0
H3928 H 0.12179 0.64271 0.80365 0.0
H3929 H 0.12776 0.62669 0.80062 0.0
H3930 H 0.14814 0.63155 0.8381 0.0
H3931 H 0.1653 0.64487 0.81047 0.0
H3932 H 0.07275 0.39779 0.61039 0.0
H3933 H 0.08637 0.38115 0.64044 0.0
H3934 H 0.11949 0.39961 0.58763 0.0
H3935 H 0.106 0.41617 0.55698 0.0
H3936 H 0.11925 0.37296 0.57706 0.0
H3937 H 0.10951 0.38737 0.74451 0.0
H3938 H 0.09573 0.38383 0.71267 0.0
H3939 H 0.10549 0.39732 0.6996 0.0
C3940 C 0.08292 0.39827 0.6049 0.0
C3941 C 0.0883 0.40838 0.5816 0.0
C3942 C 0.09068 0.38879 0.62228 0.0
C3943 C 0.10393 0.3893 0.6168 0.0
C3944 C 0.10928 0.39911 0.59235 0.0
H3945 H 0.16648 0.35725 0.75427 0.0
H3946 H 0.14973 0.37044 0.72306 0.0
C3947 C 0.10155 0.40857 0.57493 0.0
C3948 C 0.11234 0.37984 0.63736 0.0
H3949 H 0.12306 0.36973 0.73428 0.0
C3950 C 0.12004 0.37217 0.61142 0.0
C3951 C 0.11339 0.37898 0.68219 0.0
C3952 C 0.10568 0.38737 0.71151 0.0
C3953 C 0.12892 0.36372 0.62915 0.0
C3954 C 0.12995 0.36283 0.67398 0.0
C3955 C 0.12214 0.3704 0.69993 0.0
C3956 C 0.13961 0.35465 0.69452 0.0
C3957 C 0.13742 0.35614 0.59981 0.0
C3958 C 0.13927 0.3414 0.68952 0.0
C3959 C 0.14884 0.33382 0.70721 0.0
C3960 C 0.15887 0.33939 0.7304 0.0
C3961 C 0.15893 0.35266 0.73646 0.0
C3962 C 0.14937 0.36021 0.71871 0.0
H3963 H 0.13727 0.3599 0.56672 0.0
H3964 H 0.14741 0.35619 0.61148 0.0
H3965 H 0.13411 0.34611 0.59895 0.0
H3966 H 0.13168 0.33693 0.67158 0.0
H3967 H 0.14846 0.32363 0.70218 0.0
loop_
_geom_bond_atom_site_label_1
_geom_bond_atom_site_label_2
_geom_bond_distance
_geom_bond_site_symmetry_2
_ccdc_geom_bond_type
Co0 O3 1.970 . S
Co0 N17 1.989 . S
Co0 O25 1.967 . S
Co0 O32 1.920 . S
Co1 O4 1.966 . S
Co1 N10 2.022 1_554 S
Co1 N18 1.993 1_554 S
Co1 O26 1.941 . S
C2 O3 1.258 . S
C2 O4 1.263 . S
O3 Co0 1.970 . S
O3 C2 1.258 . S
O4 Co1 1.966 . S
O4 C2 1.263 . S
C5 O6 1.235 . S
C5 O32 1.289 . S
O6 C5 1.235 . S
C7 C9 1.400 . S
C7 N10 1.351 . S
C7 C12 1.501 . S
C8 C9 1.387 . S
C8 N11 1.341 . S
C9 C7 1.400 . S
C9 C8 1.387 . S
N10 Co1 2.022 1_556 S
N10 C7 1.351 . S
N10 N11 1.365 . S
N11 C8 1.341 . S
N11 N10 1.365 . S
N11 H31 0.862 . S
C12 C7 1.501 . S
C12 H13 0.961 1_556 S
C12 H14 0.961 . S
C12 H15 0.960 . S
H13 C12 0.961 1_554 S
H14 C12 0.961 . S
H15 C12 0.960 . S
C16 N17 1.342 . S
C16 C20 1.401 1_554 S
C16 C21 1.499 . S
N17 Co0 1.989 . S
N17 C16 1.342 . S
N17 N18 1.388 1_554 S
N18 Co1 1.993 1_556 S
N18 N17 1.388 1_556 S
N18 C19 1.346 . S
C19 N18 1.346 . S
C19 C20 1.396 . S
C19 C29 1.510 . S
C20 C16 1.401 1_556 S
C20 C19 1.396 . S
C21 C16 1.499 . S
C21 H22 0.959 . S
C21 H23 0.960 . S
C21 H24 0.961 . S
H22 C21 0.959 . S
H23 C21 0.960 . S
H24 C21 0.961 . S
O25 Co0 1.967 . S
O25 C33 1.258 . S
O26 Co1 1.941 . S
O26 C33 1.266 . S
H27 C29 0.959 . S
H28 C29 0.961 . S
C29 C19 1.510 . S
C29 H27 0.959 . S
C29 H28 0.961 . S
C29 H30 0.960 . S
H30 C29 0.960 . S
H31 N11 0.862 . S
O32 Co0 1.920 . S
O32 C5 1.289 . S
C33 O25 1.258 . S
C33 O26 1.266 . S
Co34 O37 1.970 . S
Co34 N51 1.989 . S
Co34 O59 1.967 . S
Co34 O66 1.920 . S
Co35 O38 1.966 . S
Co35 N44 2.022 . S
Co35 N52 1.993 . S
Co35 O60 1.941 . S
C36 O37 1.258 . S
C36 O38 1.263 . S
O37 Co34 1.970 . S
O37 C36 1.258 . S
O38 Co35 1.966 . S
O38 C36 1.263 . S
C39 O40 1.235 . S
C39 O66 1.289 . S
O40 C39 1.235 . S
C41 C43 1.400 . S
C41 N44 1.351 . S
C41 C46 1.501 . S
C42 C43 1.387 . S
C42 N45 1.341 . S
C43 C41 1.400 . S
C43 C42 1.387 . S
N44 Co35 2.022 . S
N44 C41 1.351 . S
N44 N45 1.365 . S
N45 C42 1.341 . S
N45 N44 1.365 . S
N45 H65 0.862 . S
C46 C41 1.501 . S
C46 H47 0.961 . S
C46 H48 0.961 . S
C46 H49 0.960 . S
H47 C46 0.961 . S
H48 C46 0.961 . S
H49 C46 0.960 . S
C50 N51 1.342 . S
C50 C54 1.401 . S
C50 C55 1.499 . S
N51 Co34 1.989 . S
N51 C50 1.342 . S
N51 N52 1.388 . S
N52 Co35 1.993 . S
N52 N51 1.388 . S
N52 C53 1.346 . S
C53 N52 1.346 . S
C53 C54 1.396 . S
C53 C63 1.510 . S
C54 C50 1.401 . S
C54 C53 1.396 . S
C55 C50 1.499 . S
C55 H56 0.959 . S
C55 H57 0.960 . S
C55 H58 0.961 . S
H56 C55 0.959 . S
H57 C55 0.960 . S
H58 C55 0.961 . S
O59 Co34 1.967 . S
O59 C67 1.258 . S
O60 Co35 1.941 . S
O60 C67 1.266 . S
H61 C63 0.959 . S
H62 C63 0.961 . S
C63 C53 1.510 . S
C63 H61 0.959 . S
C63 H62 0.961 . S
C63 H64 0.960 . S
H64 C63 0.960 . S
H65 N45 0.862 . S
O66 Co34 1.920 . S
O66 C39 1.289 . S
C67 O59 1.258 . S
C67 O60 1.266 . S
Co68 O71 1.970 . S
Co68 N85 1.989 . S
Co68 O93 1.967 . S
Co68 O100 1.920 . S
Co69 O72 1.966 . S
Co69 N78 2.022 . S
Co69 N86 1.993 . S
Co69 O94 1.941 . S
C70 O71 1.258 . S
C70 O72 1.263 . S
O71 Co68 1.970 . S
O71 C70 1.258 . S
O72 Co69 1.966 . S
O72 C70 1.263 . S
C73 O74 1.235 . S
C73 O100 1.289 . S
O74 C73 1.235 . S
C75 C77 1.400 . S
C75 N78 1.351 . S
C75 C80 1.501 . S
C76 C77 1.387 . S
C76 N79 1.341 . S
C77 C75 1.400 . S
C77 C76 1.387 . S
N78 Co69 2.022 . S
N78 C75 1.351 . S
N78 N79 1.365 . S
N79 C76 1.341 . S
N79 N78 1.365 . S
N79 H99 0.862 . S
C80 C75 1.501 . S
C80 H81 0.961 . S
C80 H82 0.961 . S
C80 H83 0.960 . S
H81 C80 0.961 . S
H82 C80 0.961 . S
H83 C80 0.960 . S
C84 N85 1.342 . S
C84 C88 1.401 . S
C84 C89 1.499 . S
N85 Co68 1.989 . S
N85 C84 1.342 . S
N85 N86 1.388 . S
N86 Co69 1.993 . S
N86 N85 1.388 . S
N86 C87 1.346 . S
C87 N86 1.346 . S
C87 C88 1.396 . S
C87 C97 1.510 . S
C88 C84 1.401 . S
C88 C87 1.396 . S
C89 C84 1.499 . S
C89 H90 0.959 . S
C89 H91 0.960 . S
C89 H92 0.961 . S
H90 C89 0.959 . S
H91 C89 0.960 . S
H92 C89 0.961 . S
O93 Co68 1.967 . S
O93 C101 1.258 . S
O94 Co69 1.941 . S
O94 C101 1.266 . S
H95 C97 0.959 . S
H96 C97 0.961 . S
C97 C87 1.510 . S
C97 H95 0.959 . S
C97 H96 0.961 . S
C97 H98 0.960 . S
H98 C97 0.960 . S
H99 N79 0.862 . S
O100 Co68 1.920 . S
O100 C73 1.289 . S
C101 O93 1.258 . S
C101 O94 1.266 . S
Co102 O105 1.970 . S
Co102 N119 1.989 . S
Co102 O127 1.967 . S
Co102 O134 1.920 . S
Co103 O106 1.966 . S
Co103 N112 2.022 . S
Co103 N120 1.993 . S
Co103 O128 1.941 . S
C104 O105 1.258 . S
C104 O106 1.263 . S
O105 Co102 1.970 . S
O105 C104 1.258 . S
O106 Co103 1.966 . S
O106 C104 1.263 . S
C107 O108 1.235 . S
C107 O134 1.289 . S
O108 C107 1.235 . S
C109 C111 1.400 . S
C109 N112 1.351 . S
C109 C114 1.501 . S
C110 C111 1.387 . S
C110 N113 1.341 . S
C111 C109 1.400 . S
C111 C110 1.387 . S
N112 Co103 2.022 . S
N112 C109 1.351 . S
N112 N113 1.365 . S
N113 C110 1.341 . S
N113 N112 1.365 . S
N113 H133 0.862 . S
C114 C109 1.501 . S
C114 H115 0.961 . S
C114 H116 0.961 . S
C114 H117 0.960 . S
H115 C114 0.961 . S
H116 C114 0.961 . S
H117 C114 0.960 . S
C118 N119 1.342 . S
C118 C122 1.401 . S
C118 C123 1.499 . S
N119 Co102 1.989 . S
N119 C118 1.342 . S
N119 N120 1.388 . S
N120 Co103 1.993 . S
N120 N119 1.388 . S
N120 C121 1.346 . S
C121 N120 1.346 . S
C121 C122 1.396 . S
C121 C131 1.510 . S
C122 C118 1.401 . S
C122 C121 1.396 . S
C123 C118 1.499 . S
C123 H124 0.959 . S
C123 H125 0.960 . S
C123 H126 0.961 . S
H124 C123 0.959 . S
H125 C123 0.960 . S
H126 C123 0.961 . S
O127 Co102 1.967 . S
O127 C135 1.258 . S
O128 Co103 1.941 . S
O128 C135 1.266 . S
H129 C131 0.959 . S
H130 C131 0.961 . S
C131 C121 1.510 . S
C131 H129 0.959 . S
C131 H130 0.961 . S
C131 H132 0.960 . S
H132 C131 0.960 . S
H133 N113 0.862 . S
O134 Co102 1.920 . S
O134 C107 1.289 . S
C135 O127 1.258 . S
C135 O128 1.266 . S
Co136 O139 1.970 . S
Co136 N153 1.989 . S
Co136 O161 1.967 . S
Co136 O168 1.920 . S
Co137 O140 1.966 . S
Co137 N146 2.022 . S
Co137 N154 1.993 . S
Co137 O162 1.941 . S
C138 O139 1.258 . S
C138 O140 1.263 . S
O139 Co136 1.970 . S
O139 C138 1.258 . S
O140 Co137 1.966 . S
O140 C138 1.263 . S
C141 O142 1.235 . S
C141 O168 1.289 . S
O142 C141 1.235 . S
C143 C145 1.400 . S
C143 N146 1.351 . S
C143 C148 1.501 . S
C144 C145 1.387 . S
C144 N147 1.341 . S
C145 C143 1.400 . S
C145 C144 1.387 . S
N146 Co137 2.022 . S
N146 C143 1.351 . S
N146 N147 1.365 . S
N147 C144 1.341 . S
N147 N146 1.365 . S
N147 H167 0.862 . S
C148 C143 1.501 . S
C148 H149 0.961 . S
C148 H150 0.961 . S
C148 H151 0.960 . S
H149 C148 0.961 . S
H150 C148 0.961 . S
H151 C148 0.960 . S
C152 N153 1.342 . S
C152 C156 1.401 . S
C152 C157 1.499 . S
N153 Co136 1.989 . S
N153 C152 1.342 . S
N153 N154 1.388 . S
N154 Co137 1.993 . S
N154 N153 1.388 . S
N154 C155 1.346 . S
C155 N154 1.346 . S
C155 C156 1.396 . S
C155 C165 1.510 . S
C156 C152 1.401 . S
C156 C155 1.396 . S
C157 C152 1.499 . S
C157 H158 0.959 . S
C157 H159 0.960 . S
C157 H160 0.961 . S
H158 C157 0.959 . S
H159 C157 0.960 . S
H160 C157 0.961 . S
O161 Co136 1.967 . S
O161 C169 1.258 . S
O162 Co137 1.941 . S
O162 C169 1.266 . S
H163 C165 0.959 . S
H164 C165 0.961 . S
C165 C155 1.510 . S
C165 H163 0.959 . S
C165 H164 0.961 . S
C165 H166 0.960 . S
H166 C165 0.960 . S
H167 N147 0.862 . S
O168 Co136 1.920 . S
O168 C141 1.289 . S
C169 O161 1.258 . S
C169 O162 1.266 . S
Co170 O173 1.970 . S
Co170 N187 1.989 . S
Co170 O195 1.967 . S
Co170 O202 1.920 . S
Co171 O174 1.966 . S
Co171 N180 2.022 . S
Co171 N188 1.993 . S
Co171 O196 1.941 . S
C172 O173 1.258 . S
C172 O174 1.263 . S
O173 Co170 1.970 . S
O173 C172 1.258 . S
O174 Co171 1.966 . S
O174 C172 1.263 . S
C175 O176 1.235 . S
C175 O202 1.289 . S
O176 C175 1.235 . S
C177 C179 1.400 . S
C177 N180 1.351 . S
C177 C182 1.501 . S
C178 C179 1.387 . S
C178 N181 1.341 . S
C179 C177 1.400 . S
C179 C178 1.387 . S
N180 Co171 2.022 . S
N180 C177 1.351 . S
N180 N181 1.365 . S
N181 C178 1.341 . S
N181 N180 1.365 . S
N181 H201 0.862 . S
C182 C177 1.501 . S
C182 H183 0.961 . S
C182 H184 0.961 . S
C182 H185 0.960 . S
H183 C182 0.961 . S
H184 C182 0.961 . S
H185 C182 0.960 . S
C186 N187 1.342 . S
C186 C190 1.401 . S
C186 C191 1.499 . S
N187 Co170 1.989 . S
N187 C186 1.342 . S
N187 N188 1.388 . S
N188 Co171 1.993 . S
N188 N187 1.388 . S
N188 C189 1.346 . S
C189 N188 1.346 . S
C189 C190 1.396 . S
C189 C199 1.510 . S
C190 C186 1.401 . S
C190 C189 1.396 . S
C191 C186 1.499 . S
C191 H192 0.959 . S
C191 H193 0.960 . S
C191 H194 0.961 . S
H192 C191 0.959 . S
H193 C191 0.960 . S
H194 C191 0.961 . S
O195 Co170 1.967 . S
O195 C203 1.258 . S
O196 Co171 1.941 . S
O196 C203 1.266 . S
H197 C199 0.959 . S
H198 C199 0.961 . S
C199 C189 1.510 . S
C199 H197 0.959 . S
C199 H198 0.961 . S
C199 H200 0.960 . S
H200 C199 0.960 . S
H201 N181 0.862 . S
O202 Co170 1.920 . S
O202 C175 1.289 . S
C203 O195 1.258 . S
C203 O196 1.266 . S
Co204 O207 1.970 . S
Co204 N221 1.989 1_556 S
Co204 O229 1.967 . S
Co204 O236 1.920 . S
Co205 O208 1.966 1_554 S
Co205 N214 2.022 . S
Co205 N222 1.993 . S
Co205 O230 1.941 . S
C206 O207 1.258 . S
C206 O208 1.263 . S
O207 Co204 1.970 . S
O207 C206 1.258 . S
O208 Co205 1.966 1_556 S
O208 C206 1.263 . S
C209 O210 1.235 . S
C209 O236 1.289 . S
O210 C209 1.235 . S
C211 C213 1.400 . S
C211 N214 1.351 . S
C211 C216 1.501 . S
C212 C213 1.387 . S
C212 N215 1.341 . S
C213 C211 1.400 . S
C213 C212 1.387 . S
N214 Co205 2.022 . S
N214 C211 1.351 . S
N214 N215 1.365 . S
N215 C212 1.341 . S
N215 N214 1.365 . S
N215 H235 0.862 . S
C216 C211 1.501 . S
C216 H217 0.961 . S
C216 H218 0.961 . S
C216 H219 0.960 . S
H217 C216 0.961 . S
H218 C216 0.961 . S
H219 C216 0.960 . S
C220 N221 1.342 . S
C220 C224 1.401 . S
C220 C225 1.499 . S
N221 Co204 1.989 1_554 S
N221 C220 1.342 . S
N221 N222 1.388 . S
N222 Co205 1.993 . S
N222 N221 1.388 . S
N222 C223 1.346 . S
C223 N222 1.346 . S
C223 C224 1.396 . S
C223 C233 1.510 . S
C224 C220 1.401 . S
C224 C223 1.396 . S
C225 C220 1.499 . S
C225 H226 0.944 1_554 S
C225 H227 0.960 . S
C225 H228 0.961 . S
H226 C225 0.944 1_556 S
H227 C225 0.960 . S
H228 C225 0.961 . S
O229 Co204 1.967 . S
O229 C237 1.258 . S
O230 Co205 1.941 . S
O230 C237 1.266 1_554 S
H231 C233 0.959 . S
H232 C233 0.961 . S
C233 C223 1.510 . S
C233 H231 0.959 . S
C233 H232 0.961 . S
C233 H234 0.960 . S
H234 C233 0.960 . S
H235 N215 0.862 . S
O236 Co204 1.920 . S
O236 C209 1.289 . S
C237 O229 1.258 . S
C237 O230 1.266 1_556 S
Co238 O241 1.970 . S
Co238 N255 1.989 . S
Co238 O263 1.967 . S
Co238 O270 1.920 . S
Co239 O242 1.966 . S
Co239 N248 2.022 . S
Co239 N256 1.993 . S
Co239 O264 1.941 . S
C240 O241 1.258 . S
C240 O242 1.263 . S
O241 Co238 1.970 . S
O241 C240 1.258 . S
O242 Co239 1.966 . S
O242 C240 1.263 . S
C243 O244 1.235 . S
C243 O270 1.289 . S
O244 C243 1.235 . S
C245 C247 1.400 . S
C245 N248 1.351 . S
C245 C250 1.501 . S
C246 C247 1.387 . S
C246 N249 1.341 . S
C247 C245 1.400 . S
C247 C246 1.387 . S
N248 Co239 2.022 . S
N248 C245 1.351 . S
N248 N249 1.365 . S
N249 C246 1.341 . S
N249 N248 1.365 . S
N249 H269 0.862 . S
C250 C245 1.501 . S
C250 H251 0.961 . S
C250 H252 0.961 . S
C250 H253 0.960 . S
H251 C250 0.961 . S
H252 C250 0.961 . S
H253 C250 0.960 . S
C254 N255 1.342 . S
C254 C258 1.401 . S
C254 C259 1.499 . S
N255 Co238 1.989 . S
N255 C254 1.342 . S
N255 N256 1.388 . S
N256 Co239 1.993 . S
N256 N255 1.388 . S
N256 C257 1.346 . S
C257 N256 1.346 . S
C257 C258 1.396 . S
C257 C267 1.510 . S
C258 C254 1.401 . S
C258 C257 1.396 . S
C259 C254 1.499 . S
C259 H260 0.959 . S
C259 H261 0.960 . S
C259 H262 0.961 . S
H260 C259 0.959 . S
H261 C259 0.960 . S
H262 C259 0.961 . S
O263 Co238 1.967 . S
O263 C271 1.258 . S
O264 Co239 1.941 . S
O264 C271 1.266 . S
H265 C267 0.959 . S
H266 C267 0.961 . S
C267 C257 1.510 . S
C267 H265 0.959 . S
C267 H266 0.961 . S
C267 H268 0.960 . S
H268 C267 0.960 . S
H269 N249 0.862 . S
O270 Co238 1.920 . S
O270 C243 1.289 . S
C271 O263 1.258 . S
C271 O264 1.266 . S
Co272 O275 1.970 . S
Co272 N289 1.989 1_556 S
Co272 O297 1.967 . S
Co272 O304 1.920 . S
Co273 O276 1.966 1_554 S
Co273 N282 2.022 . S
Co273 N290 1.993 . S
Co273 O298 1.941 . S
C274 O275 1.258 . S
C274 O276 1.263 . S
O275 Co272 1.970 . S
O275 C274 1.258 . S
O276 Co273 1.966 1_556 S
O276 C274 1.263 . S
C277 O278 1.235 . S
C277 O304 1.289 . S
O278 C277 1.235 . S
C279 C281 1.400 . S
C279 N282 1.351 . S
C279 C284 1.501 . S
C280 C281 1.387 . S
C280 N283 1.341 . S
C281 C279 1.400 . S
C281 C280 1.387 . S
N282 Co273 2.022 . S
N282 C279 1.351 . S
N282 N283 1.365 . S
N283 C280 1.341 . S
N283 N282 1.365 . S
N283 H303 0.862 . S
C284 C279 1.501 . S
C284 H285 0.961 . S
C284 H286 0.961 . S
C284 H287 0.960 . S
H285 C284 0.961 . S
H286 C284 0.961 . S
H287 C284 0.960 . S
C288 N289 1.342 . S
C288 C292 1.401 . S
C288 C293 1.499 . S
N289 Co272 1.989 1_554 S
N289 C288 1.342 . S
N289 N290 1.388 . S
N290 Co273 1.993 . S
N290 N289 1.388 . S
N290 C291 1.346 . S
C291 N290 1.346 . S
C291 C292 1.396 . S
C291 C301 1.510 . S
C292 C288 1.401 . S
C292 C291 1.396 . S
C293 C288 1.499 . S
C293 H294 0.959 1_554 S
C293 H295 0.960 . S
C293 H296 0.961 . S
H294 C293 0.959 1_556 S
H295 C293 0.960 . S
H296 C293 0.961 . S
O297 Co272 1.967 . S
O297 C305 1.258 . S
O298 Co273 1.941 . S
O298 C305 1.266 1_554 S
H299 C301 0.959 . S
H300 C301 0.961 . S
C301 C291 1.510 . S
C301 H299 0.959 . S
C301 H300 0.961 . S
C301 H302 0.960 . S
H302 C301 0.960 . S
H303 N283 0.862 . S
O304 Co272 1.920 . S
O304 C277 1.289 . S
C305 O297 1.258 . S
C305 O298 1.266 1_556 S
Co306 O309 1.970 . S
Co306 N323 1.989 . S
Co306 O331 1.967 . S
Co306 O338 1.920 . S
Co307 O310 1.966 . S
Co307 N316 2.022 . S
Co307 N324 1.993 . S
Co307 O332 1.941 . S
C308 O309 1.258 . S
C308 O310 1.263 . S
O309 Co306 1.970 . S
O309 C308 1.258 . S
O310 Co307 1.966 . S
O310 C308 1.263 . S
C311 O312 1.235 . S
C311 O338 1.289 . S
O312 C311 1.235 . S
C313 C315 1.400 . S
C313 N316 1.351 . S
C313 C318 1.501 . S
C314 C315 1.387 . S
C314 N317 1.341 . S
C315 C313 1.400 . S
C315 C314 1.387 . S
N316 Co307 2.022 . S
N316 C313 1.351 . S
N316 N317 1.365 . S
N317 C314 1.341 . S
N317 N316 1.365 . S
N317 H337 0.862 . S
C318 C313 1.501 . S
C318 H319 0.961 . S
C318 H320 0.961 . S
C318 H321 0.960 . S
H319 C318 0.961 . S
H320 C318 0.961 . S
H321 C318 0.960 . S
C322 N323 1.342 . S
C322 C326 1.401 . S
C322 C327 1.499 . S
N323 Co306 1.989 . S
N323 C322 1.342 . S
N323 N324 1.388 . S
N324 Co307 1.993 . S
N324 N323 1.388 . S
N324 C325 1.346 . S
C325 N324 1.346 . S
C325 C326 1.396 . S
C325 C335 1.510 . S
C326 C322 1.401 . S
C326 C325 1.396 . S
C327 C322 1.499 . S
C327 H328 0.959 . S
C327 H329 0.960 . S
C327 H330 0.961 . S
H328 C327 0.959 . S
H329 C327 0.960 . S
H330 C327 0.961 . S
O331 Co306 1.967 . S
O331 C339 1.258 . S
O332 Co307 1.941 . S
O332 C339 1.266 . S
H333 C335 0.959 . S
H334 C335 0.961 . S
C335 C325 1.510 . S
C335 H333 0.959 . S
C335 H334 0.961 . S
C335 H336 0.960 . S
H336 C335 0.960 . S
H337 N317 0.862 . S
O338 Co306 1.920 . S
O338 C311 1.289 . S
C339 O331 1.258 . S
C339 O332 1.266 . S
Co340 O343 1.970 . S
Co340 N357 1.989 . S
Co340 O365 1.967 . S
Co340 O372 1.920 . S
Co341 O344 1.966 . S
Co341 N350 2.022 . S
Co341 N358 1.993 . S
Co341 O366 1.941 . S
C342 O343 1.258 . S
C342 O344 1.263 . S
O343 Co340 1.970 . S
O343 C342 1.258 . S
O344 Co341 1.966 . S
O344 C342 1.263 . S
C345 O346 1.235 . S
C345 O372 1.289 . S
O346 C345 1.235 . S
C347 C349 1.400 . S
C347 N350 1.351 . S
C347 C352 1.501 . S
C348 C349 1.387 . S
C348 N351 1.341 . S
C349 C347 1.400 . S
C349 C348 1.387 . S
N350 Co341 2.022 . S
N350 C347 1.351 . S
N350 N351 1.365 . S
N351 C348 1.341 . S
N351 N350 1.365 . S
N351 H371 0.862 . S
C352 C347 1.501 . S
C352 H353 0.961 . S
C352 H354 0.961 . S
C352 H355 0.960 . S
H353 C352 0.961 . S
H354 C352 0.961 . S
H355 C352 0.960 . S
C356 N357 1.342 . S
C356 C360 1.401 . S
C356 C361 1.499 . S
N357 Co340 1.989 . S
N357 C356 1.342 . S
N357 N358 1.388 . S
N358 Co341 1.993 . S
N358 N357 1.388 . S
N358 C359 1.346 . S
C359 N358 1.346 . S
C359 C360 1.396 . S
C359 C369 1.510 . S
C360 C356 1.401 . S
C360 C359 1.396 . S
C361 C356 1.499 . S
C361 H362 0.959 . S
C361 H363 0.960 . S
C361 H364 0.961 . S
H362 C361 0.959 . S
H363 C361 0.960 . S
H364 C361 0.961 . S
O365 Co340 1.967 . S
O365 C373 1.258 . S
O366 Co341 1.941 . S
O366 C373 1.266 . S
H367 C369 0.959 . S
H368 C369 0.961 . S
C369 C359 1.510 . S
C369 H367 0.959 . S
C369 H368 0.961 . S
C369 H370 0.960 . S
H370 C369 0.960 . S
H371 N351 0.862 . S
O372 Co340 1.920 . S
O372 C345 1.289 . S
C373 O365 1.258 . S
C373 O366 1.266 . S
Co374 O377 1.970 . S
Co374 N391 1.989 . S
Co374 O399 1.967 . S
Co374 O406 1.920 . S
Co375 O378 1.966 . S
Co375 N384 2.022 . S
Co375 N392 1.993 . S
Co375 O400 1.941 . S
C376 O377 1.258 . S
C376 O378 1.263 . S
O377 Co374 1.970 . S
O377 C376 1.258 . S
O378 Co375 1.966 . S
O378 C376 1.263 . S
C379 O380 1.235 . S
C379 O406 1.289 . S
O380 C379 1.235 . S
C381 C383 1.400 . S
C381 N384 1.351 . S
C381 C386 1.501 . S
C382 C383 1.387 . S
C382 N385 1.341 . S
C383 C381 1.400 . S
C383 C382 1.387 . S
N384 Co375 2.022 . S
N384 C381 1.351 . S
N384 N385 1.365 . S
N385 C382 1.341 . S
N385 N384 1.365 . S
N385 H405 0.862 . S
C386 C381 1.501 . S
C386 H387 0.961 . S
C386 H388 0.961 . S
C386 H389 0.960 . S
H387 C386 0.961 . S
H388 C386 0.961 . S
H389 C386 0.960 . S
C390 N391 1.342 . S
C390 C394 1.401 . S
C390 C395 1.499 . S
N391 Co374 1.989 . S
N391 C390 1.342 . S
N391 N392 1.388 . S
N392 Co375 1.993 . S
N392 N391 1.388 . S
N392 C393 1.346 . S
C393 N392 1.346 . S
C393 C394 1.396 . S
C393 C403 1.510 . S
C394 C390 1.401 . S
C394 C393 1.396 . S
C395 C390 1.499 . S
C395 H396 0.959 . S
C395 H397 0.960 . S
C395 H398 0.961 . S
H396 C395 0.959 . S
H397 C395 0.960 . S
H398 C395 0.961 . S
O399 Co374 1.967 . S
O399 C407 1.258 . S
O400 Co375 1.941 . S
O400 C407 1.266 . S
H401 C403 0.959 . S
H402 C403 0.961 . S
C403 C393 1.510 . S
C403 H401 0.959 . S
C403 H402 0.961 . S
C403 H404 0.960 . S
H404 C403 0.960 . S
H405 N385 0.862 . S
O406 Co374 1.920 . S
O406 C379 1.289 . S
C407 O399 1.258 . S
C407 O400 1.266 . S
Co408 O411 1.970 . S
Co408 N425 1.989 . S
Co408 O433 1.967 . S
Co408 O440 1.920 . S
Co409 O412 1.966 . S
Co409 N418 2.022 . S
Co409 N426 1.993 . S
Co409 O434 1.941 . S
C410 O411 1.258 . S
C410 O412 1.263 . S
O411 Co408 1.970 . S
O411 C410 1.258 . S
O412 Co409 1.966 . S
O412 C410 1.263 . S
C413 O414 1.235 . S
C413 O440 1.289 . S
O414 C413 1.235 . S
C415 C417 1.400 . S
C415 N418 1.351 . S
C415 C420 1.501 . S
C416 C417 1.387 . S
C416 N419 1.341 . S
C417 C415 1.400 . S
C417 C416 1.387 . S
N418 Co409 2.022 . S
N418 C415 1.351 . S
N418 N419 1.365 . S
N419 C416 1.341 . S
N419 N418 1.365 . S
N419 H439 0.862 . S
C420 C415 1.501 . S
C420 H421 0.961 . S
C420 H422 0.961 . S
C420 H423 0.960 . S
H421 C420 0.961 . S
H422 C420 0.961 . S
H423 C420 0.960 . S
C424 N425 1.342 . S
C424 C428 1.401 . S
C424 C429 1.499 . S
N425 Co408 1.989 . S
N425 C424 1.342 . S
N425 N426 1.388 . S
N426 Co409 1.993 . S
N426 N425 1.388 . S
N426 C427 1.346 . S
C427 N426 1.346 . S
C427 C428 1.396 . S
C427 C437 1.510 . S
C428 C424 1.401 . S
C428 C427 1.396 . S
C429 C424 1.499 . S
C429 H430 0.959 . S
C429 H431 0.960 . S
C429 H432 0.961 . S
H430 C429 0.959 . S
H431 C429 0.960 . S
H432 C429 0.961 . S
O433 Co408 1.967 . S
O433 C441 1.258 . S
O434 Co409 1.941 . S
O434 C441 1.266 . S
H435 C437 0.959 . S
H436 C437 0.961 . S
C437 C427 1.510 . S
C437 H435 0.959 . S
C437 H436 0.961 . S
C437 H438 0.960 . S
H438 C437 0.960 . S
H439 N419 0.862 . S
O440 Co408 1.920 . S
O440 C413 1.289 . S
C441 O433 1.258 . S
C441 O434 1.266 . S
Co442 O445 1.970 . S
Co442 N459 1.989 . S
Co442 O467 1.967 . S
Co442 O474 1.920 . S
Co443 O446 1.966 . S
Co443 N452 2.022 . S
Co443 N460 1.993 . S
Co443 O468 1.941 . S
C444 O445 1.258 . S
C444 O446 1.263 . S
O445 Co442 1.970 . S
O445 C444 1.258 . S
O446 Co443 1.966 . S
O446 C444 1.263 . S
C447 O448 1.235 . S
C447 O474 1.289 . S
O448 C447 1.235 . S
C449 C451 1.400 . S
C449 N452 1.351 . S
C449 C454 1.501 . S
C450 C451 1.387 . S
C450 N453 1.341 . S
C451 C449 1.400 . S
C451 C450 1.387 . S
N452 Co443 2.022 . S
N452 C449 1.351 . S
N452 N453 1.365 . S
N453 C450 1.341 . S
N453 N452 1.365 . S
N453 H473 0.862 . S
C454 C449 1.501 . S
C454 H455 0.961 . S
C454 H456 0.961 . S
C454 H457 0.960 . S
H455 C454 0.961 . S
H456 C454 0.961 . S
H457 C454 0.960 . S
C458 N459 1.342 . S
C458 C462 1.401 . S
C458 C463 1.499 . S
N459 Co442 1.989 . S
N459 C458 1.342 . S
N459 N460 1.388 . S
N460 Co443 1.993 . S
N460 N459 1.388 . S
N460 C461 1.346 . S
C461 N460 1.346 . S
C461 C462 1.396 . S
C461 C471 1.510 . S
C462 C458 1.401 . S
C462 C461 1.396 . S
C463 C458 1.499 . S
C463 H464 0.959 . S
C463 H465 0.960 . S
C463 H466 0.961 . S
H464 C463 0.959 . S
H465 C463 0.960 . S
H466 C463 0.961 . S
O467 Co442 1.967 . S
O467 C475 1.258 . S
O468 Co443 1.941 . S
O468 C475 1.266 . S
H469 C471 0.959 . S
H470 C471 0.961 . S
C471 C461 1.510 . S
C471 H469 0.959 . S
C471 H470 0.961 . S
C471 H472 0.960 . S
H472 C471 0.960 . S
H473 N453 0.862 . S
O474 Co442 1.920 . S
O474 C447 1.289 . S
C475 O467 1.258 . S
C475 O468 1.266 . S
Co476 O479 1.970 . S
Co476 N493 1.989 . S
Co476 O501 1.967 . S
Co476 O508 1.920 . S
Co477 O480 1.966 . S
Co477 N486 2.022 1_554 S
Co477 N494 1.993 1_554 S
Co477 O502 1.941 . S
C478 O479 1.258 . S
C478 O480 1.263 . S
O479 Co476 1.970 . S
O479 C478 1.258 . S
O480 Co477 1.966 . S
O480 C478 1.263 . S
C481 O482 1.235 . S
C481 O508 1.289 . S
O482 C481 1.235 . S
C483 C485 1.400 . S
C483 N486 1.351 . S
C483 C488 1.501 . S
C484 C485 1.387 . S
C484 N487 1.341 . S
C485 C483 1.400 . S
C485 C484 1.387 . S
N486 Co477 2.022 1_556 S
N486 C483 1.351 . S
N486 N487 1.365 . S
N487 C484 1.341 . S
N487 N486 1.365 . S
N487 H507 0.862 . S
C488 C483 1.501 . S
C488 H489 0.961 1_556 S
C488 H490 0.961 . S
C488 H491 0.960 . S
H489 C488 0.961 1_554 S
H490 C488 0.961 . S
H491 C488 0.960 . S
C492 N493 1.342 . S
C492 C496 1.401 1_554 S
C492 C497 1.499 . S
N493 Co476 1.989 . S
N493 C492 1.342 . S
N493 N494 1.388 1_554 S
N494 Co477 1.993 1_556 S
N494 N493 1.388 1_556 S
N494 C495 1.346 . S
C495 N494 1.346 . S
C495 C496 1.396 . S
C495 C505 1.510 . S
C496 C492 1.401 1_556 S
C496 C495 1.396 . S
C497 C492 1.499 . S
C497 H498 0.959 . S
C497 H499 0.960 . S
C497 H500 0.961 . S
H498 C497 0.959 . S
H499 C497 0.960 . S
H500 C497 0.961 . S
O501 Co476 1.967 . S
O501 C509 1.258 . S
O502 Co477 1.941 . S
O502 C509 1.266 . S
H503 C505 0.959 . S
H504 C505 0.961 . S
C505 C495 1.510 . S
C505 H503 0.959 . S
C505 H504 0.961 . S
C505 H506 0.960 . S
H506 C505 0.960 . S
H507 N487 0.862 . S
O508 Co476 1.920 . S
O508 C481 1.289 . S
C509 O501 1.258 . S
C509 O502 1.266 . S
Co510 O513 1.970 . S
Co510 N527 1.989 . S
Co510 O535 1.967 . S
Co510 O542 1.920 . S
Co511 O514 1.966 . S
Co511 N520 2.022 . S
Co511 N528 1.993 . S
Co511 O536 1.941 . S
C512 O513 1.258 . S
C512 O514 1.263 . S
O513 Co510 1.970 . S
O513 C512 1.258 . S
O514 Co511 1.966 . S
O514 C512 1.263 . S
C515 O516 1.235 . S
C515 O542 1.289 . S
O516 C515 1.235 . S
C517 C519 1.400 . S
C517 N520 1.351 . S
C517 C522 1.501 . S
C518 C519 1.387 . S
C518 N521 1.341 . S
C519 C517 1.400 . S
C519 C518 1.387 . S
N520 Co511 2.022 . S
N520 C517 1.351 . S
N520 N521 1.365 . S
N521 C518 1.341 . S
N521 N520 1.365 . S
N521 H541 0.862 . S
C522 C517 1.501 . S
C522 H523 0.961 . S
C522 H524 0.961 . S
C522 H525 0.960 . S
H523 C522 0.961 . S
H524 C522 0.961 . S
H525 C522 0.960 . S
C526 N527 1.342 . S
C526 C530 1.401 . S
C526 C531 1.499 . S
N527 Co510 1.989 . S
N527 C526 1.342 . S
N527 N528 1.388 . S
N528 Co511 1.993 . S
N528 N527 1.388 . S
N528 C529 1.346 . S
C529 N528 1.346 . S
C529 C530 1.396 . S
C529 C539 1.510 . S
C530 C526 1.401 . S
C530 C529 1.396 . S
C531 C526 1.499 . S
C531 H532 0.959 . S
C531 H533 0.960 . S
C531 H534 0.961 . S
H532 C531 0.959 . S
H533 C531 0.960 . S
H534 C531 0.961 . S
O535 Co510 1.967 . S
O535 C543 1.258 . S
O536 Co511 1.941 . S
O536 C543 1.266 . S
H537 C539 0.959 . S
H538 C539 0.961 . S
C539 C529 1.510 . S
C539 H537 0.959 . S
C539 H538 0.961 . S
C539 H540 0.960 . S
H540 C539 0.960 . S
H541 N521 0.862 . S
O542 Co510 1.920 . S
O542 C515 1.289 . S
C543 O535 1.258 . S
C543 O536 1.266 . S
Co544 O547 1.970 . S
Co544 N561 1.989 . S
Co544 O569 1.967 . S
Co544 O576 1.920 . S
Co545 O548 1.966 . S
Co545 N554 2.022 . S
Co545 N562 1.993 . S
Co545 O570 1.941 . S
C546 O547 1.258 . S
C546 O548 1.263 . S
O547 Co544 1.970 . S
O547 C546 1.258 . S
O548 Co545 1.966 . S
O548 C546 1.263 . S
C549 O550 1.235 . S
C549 O576 1.289 . S
O550 C549 1.235 . S
C551 C553 1.400 . S
C551 N554 1.351 . S
C551 C556 1.501 . S
C552 C553 1.387 . S
C552 N555 1.341 . S
C553 C551 1.400 . S
C553 C552 1.387 . S
N554 Co545 2.022 . S
N554 C551 1.351 . S
N554 N555 1.365 . S
N555 C552 1.341 . S
N555 N554 1.365 . S
N555 H575 0.862 . S
C556 C551 1.501 . S
C556 H557 0.961 . S
C556 H558 0.961 . S
C556 H559 0.960 . S
H557 C556 0.961 . S
H558 C556 0.961 . S
H559 C556 0.960 . S
C560 N561 1.342 . S
C560 C564 1.401 . S
C560 C565 1.499 . S
N561 Co544 1.989 . S
N561 C560 1.342 . S
N561 N562 1.388 . S
N562 Co545 1.993 . S
N562 N561 1.388 . S
N562 C563 1.346 . S
C563 N562 1.346 . S
C563 C564 1.396 . S
C563 C573 1.510 . S
C564 C560 1.401 . S
C564 C563 1.396 . S
C565 C560 1.499 . S
C565 H566 0.959 . S
C565 H567 0.960 . S
C565 H568 0.961 . S
H566 C565 0.959 . S
H567 C565 0.960 . S
H568 C565 0.961 . S
O569 Co544 1.967 . S
O569 C577 1.258 . S
O570 Co545 1.941 . S
O570 C577 1.266 . S
H571 C573 0.959 . S
H572 C573 0.961 . S
C573 C563 1.510 . S
C573 H571 0.959 . S
C573 H572 0.961 . S
C573 H574 0.960 . S
H574 C573 0.960 . S
H575 N555 0.862 . S
O576 Co544 1.920 . S
O576 C549 1.289 . S
C577 O569 1.258 . S
C577 O570 1.266 . S
Co578 O581 1.970 . S
Co578 N595 1.989 . S
Co578 O603 1.967 . S
Co578 O610 1.920 . S
Co579 O582 1.966 . S
Co579 N588 2.022 . S
Co579 N596 1.993 . S
Co579 O604 1.941 . S
C580 O581 1.258 . S
C580 O582 1.263 . S
O581 Co578 1.970 . S
O581 C580 1.258 . S
O582 Co579 1.966 . S
O582 C580 1.263 . S
C583 O584 1.235 . S
C583 O610 1.289 . S
O584 C583 1.235 . S
C585 C587 1.400 . S
C585 N588 1.351 . S
C585 C590 1.501 . S
C586 C587 1.387 . S
C586 N589 1.341 . S
C587 C585 1.400 . S
C587 C586 1.387 . S
N588 Co579 2.022 . S
N588 C585 1.351 . S
N588 N589 1.365 . S
N589 C586 1.341 . S
N589 N588 1.365 . S
N589 H609 0.862 . S
C590 C585 1.501 . S
C590 H591 0.961 . S
C590 H592 0.961 . S
C590 H593 0.960 . S
H591 C590 0.961 . S
H592 C590 0.961 . S
H593 C590 0.960 . S
C594 N595 1.342 . S
C594 C598 1.401 . S
C594 C599 1.499 . S
N595 Co578 1.989 . S
N595 C594 1.342 . S
N595 N596 1.388 . S
N596 Co579 1.993 . S
N596 N595 1.388 . S
N596 C597 1.346 . S
C597 N596 1.346 . S
C597 C598 1.396 . S
C597 C607 1.510 . S
C598 C594 1.401 . S
C598 C597 1.396 . S
C599 C594 1.499 . S
C599 H600 0.959 . S
C599 H601 0.960 . S
C599 H602 0.961 . S
H600 C599 0.959 . S
H601 C599 0.960 . S
H602 C599 0.961 . S
O603 Co578 1.967 . S
O603 C611 1.258 . S
O604 Co579 1.941 . S
O604 C611 1.266 . S
H605 C607 0.959 . S
H606 C607 0.961 . S
C607 C597 1.510 . S
C607 H605 0.959 . S
C607 H606 0.961 . S
C607 H608 0.960 . S
H608 C607 0.960 . S
H609 N589 0.862 . S
O610 Co578 1.920 . S
O610 C583 1.289 . S
C611 O603 1.258 . S
C611 O604 1.266 . S
Co612 O615 1.970 . S
Co612 N629 1.989 . S
Co612 O637 1.967 . S
Co612 O644 1.920 . S
Co613 O616 1.966 . S
Co613 N622 2.022 1_554 S
Co613 N630 1.993 1_554 S
Co613 O638 1.941 . S
C614 O615 1.258 . S
C614 O616 1.263 . S
O615 Co612 1.970 . S
O615 C614 1.258 . S
O616 Co613 1.966 . S
O616 C614 1.263 . S
C617 O618 1.235 . S
C617 O644 1.289 . S
O618 C617 1.235 . S
C619 C621 1.400 . S
C619 N622 1.351 . S
C619 C624 1.501 . S
C620 C621 1.387 . S
C620 N623 1.341 . S
C621 C619 1.400 . S
C621 C620 1.387 . S
N622 Co613 2.022 1_556 S
N622 C619 1.351 . S
N622 N623 1.365 . S
N623 C620 1.341 . S
N623 N622 1.365 . S
N623 H643 0.862 . S
C624 C619 1.501 . S
C624 H625 0.961 1_556 S
C624 H626 0.961 . S
C624 H627 0.960 . S
H625 C624 0.961 1_554 S
H626 C624 0.961 . S
H627 C624 0.960 . S
C628 N629 1.342 . S
C628 C632 1.401 1_554 S
C628 C633 1.499 . S
N629 Co612 1.989 . S
N629 C628 1.342 . S
N629 N630 1.388 1_554 S
N630 Co613 1.993 1_556 S
N630 N629 1.388 1_556 S
N630 C631 1.346 . S
C631 N630 1.346 . S
C631 C632 1.396 . S
C631 C641 1.510 . S
C632 C628 1.401 1_556 S
C632 C631 1.396 . S
C633 C628 1.499 . S
C633 H634 0.959 . S
C633 H635 0.960 . S
C633 H636 0.961 . S
H634 C633 0.959 . S
H635 C633 0.960 . S
H636 C633 0.961 . S
O637 Co612 1.967 . S
O637 C645 1.258 . S
O638 Co613 1.941 . S
O638 C645 1.266 . S
H639 C641 0.959 . S
H640 C641 0.961 . S
C641 C631 1.510 . S
C641 H639 0.959 . S
C641 H640 0.961 . S
C641 H642 0.960 . S
H642 C641 0.960 . S
H643 N623 0.862 . S
O644 Co612 1.920 . S
O644 C617 1.289 . S
C645 O637 1.258 . S
C645 O638 1.266 . S
Co646 O649 1.970 . S
Co646 N663 1.989 . S
Co646 O671 1.967 . S
Co646 O678 1.920 . S
Co647 O650 1.966 . S
Co647 N656 2.022 . S
Co647 N664 1.993 . S
Co647 O672 1.941 . S
C648 O649 1.258 . S
C648 O650 1.263 . S
O649 Co646 1.970 . S
O649 C648 1.258 . S
O650 Co647 1.966 . S
O650 C648 1.263 . S
C651 O652 1.235 . S
C651 O678 1.289 . S
O652 C651 1.235 . S
C653 C655 1.400 . S
C653 N656 1.351 . S
C653 C658 1.501 . S
C654 C655 1.387 . S
C654 N657 1.341 . S
C655 C653 1.400 . S
C655 C654 1.387 . S
N656 Co647 2.022 . S
N656 C653 1.351 . S
N656 N657 1.365 . S
N657 C654 1.341 . S
N657 N656 1.365 . S
N657 H677 0.862 . S
C658 C653 1.501 . S
C658 H659 0.961 . S
C658 H660 0.961 . S
C658 H661 0.960 . S
H659 C658 0.961 . S
H660 C658 0.961 . S
H661 C658 0.960 . S
C662 N663 1.342 . S
C662 C666 1.401 . S
C662 C667 1.499 . S
N663 Co646 1.989 . S
N663 C662 1.342 . S
N663 N664 1.388 . S
N664 Co647 1.993 . S
N664 N663 1.388 . S
N664 C665 1.346 . S
C665 N664 1.346 . S
C665 C666 1.396 . S
C665 C675 1.510 . S
C666 C662 1.401 . S
C666 C665 1.396 . S
C667 C662 1.499 . S
C667 H668 0.959 . S
C667 H669 0.960 . S
C667 H670 0.961 . S
H668 C667 0.959 . S
H669 C667 0.960 . S
H670 C667 0.961 . S
O671 Co646 1.967 . S
O671 C679 1.258 . S
O672 Co647 1.941 . S
O672 C679 1.266 . S
H673 C675 0.959 . S
H674 C675 0.961 . S
C675 C665 1.510 . S
C675 H673 0.959 . S
C675 H674 0.961 . S
C675 H676 0.960 . S
H676 C675 0.960 . S
H677 N657 0.862 . S
O678 Co646 1.920 . S
O678 C651 1.289 . S
C679 O671 1.258 . S
C679 O672 1.266 . S
Co680 O683 1.970 . S
Co680 N697 1.989 1_556 S
Co680 O705 1.967 . S
Co680 O712 1.920 . S
Co681 O684 1.966 1_554 S
Co681 N690 2.022 . S
Co681 N698 1.993 . S
Co681 O706 1.941 . S
C682 O683 1.258 . S
C682 O684 1.263 . S
O683 Co680 1.970 . S
O683 C682 1.258 . S
O684 Co681 1.966 1_556 S
O684 C682 1.263 . S
C685 O686 1.235 . S
C685 O712 1.289 . S
O686 C685 1.235 . S
C687 C689 1.400 . S
C687 N690 1.351 . S
C687 C692 1.501 . S
C688 C689 1.387 . S
C688 N691 1.341 . S
C689 C687 1.400 . S
C689 C688 1.387 . S
N690 Co681 2.022 . S
N690 C687 1.351 . S
N690 N691 1.365 . S
N691 C688 1.341 . S
N691 N690 1.365 . S
N691 H711 0.862 . S
C692 C687 1.501 . S
C692 H693 0.961 . S
C692 H694 0.961 . S
C692 H695 0.960 . S
H693 C692 0.961 . S
H694 C692 0.961 . S
H695 C692 0.960 . S
C696 N697 1.342 . S
C696 C700 1.401 . S
C696 C701 1.499 . S
N697 Co680 1.989 1_554 S
N697 C696 1.342 . S
N697 N698 1.388 . S
N698 Co681 1.993 . S
N698 N697 1.388 . S
N698 C699 1.346 . S
C699 N698 1.346 . S
C699 C700 1.396 . S
C699 C709 1.510 . S
C700 C696 1.401 . S
C700 C699 1.396 . S
C701 C696 1.499 . S
C701 H702 0.944 1_554 S
C701 H703 0.960 . S
C701 H704 0.961 . S
H702 C701 0.944 1_556 S
H703 C701 0.960 . S
H704 C701 0.961 . S
O705 Co680 1.967 . S
O705 C713 1.258 . S
O706 Co681 1.941 . S
O706 C713 1.266 1_554 S
H707 C709 0.959 . S
H708 C709 0.961 . S
C709 C699 1.510 . S
C709 H707 0.959 . S
C709 H708 0.961 . S
C709 H710 0.960 . S
H710 C709 0.960 . S
H711 N691 0.862 . S
O712 Co680 1.920 . S
O712 C685 1.289 . S
C713 O705 1.258 . S
C713 O706 1.266 1_556 S
Co714 O717 1.970 . S
Co714 N731 1.989 . S
Co714 O739 1.967 . S
Co714 O746 1.920 . S
Co715 O718 1.966 . S
Co715 N724 2.022 . S
Co715 N732 1.993 . S
Co715 O740 1.941 . S
C716 O717 1.258 . S
C716 O718 1.263 . S
O717 Co714 1.970 . S
O717 C716 1.258 . S
O718 Co715 1.966 . S
O718 C716 1.263 . S
C719 O720 1.235 . S
C719 O746 1.289 . S
O720 C719 1.235 . S
C721 C723 1.400 . S
C721 N724 1.351 . S
C721 C726 1.501 . S
C722 C723 1.387 . S
C722 N725 1.341 . S
C723 C721 1.400 . S
C723 C722 1.387 . S
N724 Co715 2.022 . S
N724 C721 1.351 . S
N724 N725 1.365 . S
N725 C722 1.341 . S
N725 N724 1.365 . S
N725 H745 0.862 . S
C726 C721 1.501 . S
C726 H727 0.961 . S
C726 H728 0.961 . S
C726 H729 0.960 . S
H727 C726 0.961 . S
H728 C726 0.961 . S
H729 C726 0.960 . S
C730 N731 1.342 . S
C730 C734 1.401 . S
C730 C735 1.499 . S
N731 Co714 1.989 . S
N731 C730 1.342 . S
N731 N732 1.388 . S
N732 Co715 1.993 . S
N732 N731 1.388 . S
N732 C733 1.346 . S
C733 N732 1.346 . S
C733 C734 1.396 . S
C733 C743 1.510 . S
C734 C730 1.401 . S
C734 C733 1.396 . S
C735 C730 1.499 . S
C735 H736 0.959 . S
C735 H737 0.960 . S
C735 H738 0.961 . S
H736 C735 0.959 . S
H737 C735 0.960 . S
H738 C735 0.961 . S
O739 Co714 1.967 . S
O739 C747 1.258 . S
O740 Co715 1.941 . S
O740 C747 1.266 . S
H741 C743 0.959 . S
H742 C743 0.961 . S
C743 C733 1.510 . S
C743 H741 0.959 . S
C743 H742 0.961 . S
C743 H744 0.960 . S
H744 C743 0.960 . S
H745 N725 0.862 . S
O746 Co714 1.920 . S
O746 C719 1.289 . S
C747 O739 1.258 . S
C747 O740 1.266 . S
Co748 O751 1.970 . S
Co748 N765 1.989 . S
Co748 O773 1.967 . S
Co748 O780 1.920 . S
Co749 O752 1.966 . S
Co749 N758 2.022 . S
Co749 N766 1.993 . S
Co749 O774 1.941 . S
C750 O751 1.258 . S
C750 O752 1.263 . S
O751 Co748 1.970 . S
O751 C750 1.258 . S
O752 Co749 1.966 . S
O752 C750 1.263 . S
C753 O754 1.235 . S
C753 O780 1.289 . S
O754 C753 1.235 . S
C755 C757 1.400 . S
C755 N758 1.351 . S
C755 C760 1.501 . S
C756 C757 1.387 . S
C756 N759 1.341 . S
C757 C755 1.400 . S
C757 C756 1.387 . S
N758 Co749 2.022 . S
N758 C755 1.351 . S
N758 N759 1.365 . S
N759 C756 1.341 . S
N759 N758 1.365 . S
N759 H779 0.862 . S
C760 C755 1.501 . S
C760 H761 0.961 . S
C760 H762 0.961 . S
C760 H763 0.960 . S
H761 C760 0.961 . S
H762 C760 0.961 . S
H763 C760 0.960 . S
C764 N765 1.342 . S
C764 C768 1.401 . S
C764 C769 1.499 . S
N765 Co748 1.989 . S
N765 C764 1.342 . S
N765 N766 1.388 . S
N766 Co749 1.993 . S
N766 N765 1.388 . S
N766 C767 1.346 . S
C767 N766 1.346 . S
C767 C768 1.396 . S
C767 C777 1.510 . S
C768 C764 1.401 . S
C768 C767 1.396 . S
C769 C764 1.499 . S
C769 H770 0.959 . S
C769 H771 0.960 . S
C769 H772 0.961 . S
H770 C769 0.959 . S
H771 C769 0.960 . S
H772 C769 0.961 . S
O773 Co748 1.967 . S
O773 C781 1.258 . S
O774 Co749 1.941 . S
O774 C781 1.266 . S
H775 C777 0.959 . S
H776 C777 0.961 . S
C777 C767 1.510 . S
C777 H775 0.959 . S
C777 H776 0.961 . S
C777 H778 0.960 . S
H778 C777 0.960 . S
H779 N759 0.862 . S
O780 Co748 1.920 . S
O780 C753 1.289 . S
C781 O773 1.258 . S
C781 O774 1.266 . S
Co782 O785 1.970 . S
Co782 N799 1.989 . S
Co782 O807 1.967 . S
Co782 O814 1.920 . S
Co783 O786 1.966 . S
Co783 N792 2.022 . S
Co783 N800 1.993 . S
Co783 O808 1.941 . S
C784 O785 1.258 . S
C784 O786 1.263 . S
O785 Co782 1.970 . S
O785 C784 1.258 . S
O786 Co783 1.966 . S
O786 C784 1.263 . S
C787 O788 1.235 . S
C787 O814 1.289 . S
O788 C787 1.235 . S
C789 C791 1.400 . S
C789 N792 1.351 . S
C789 C794 1.501 . S
C790 C791 1.387 . S
C790 N793 1.341 . S
C791 C789 1.400 . S
C791 C790 1.387 . S
N792 Co783 2.022 . S
N792 C789 1.351 . S
N792 N793 1.365 . S
N793 C790 1.341 . S
N793 N792 1.365 . S
N793 H813 0.862 . S
C794 C789 1.501 . S
C794 H795 0.961 . S
C794 H796 0.961 . S
C794 H797 0.960 . S
H795 C794 0.961 . S
H796 C794 0.961 . S
H797 C794 0.960 . S
C798 N799 1.342 . S
C798 C802 1.401 . S
C798 C803 1.499 . S
N799 Co782 1.989 . S
N799 C798 1.342 . S
N799 N800 1.388 . S
N800 Co783 1.993 . S
N800 N799 1.388 . S
N800 C801 1.346 . S
C801 N800 1.346 . S
C801 C802 1.396 . S
C801 C811 1.510 . S
C802 C798 1.401 . S
C802 C801 1.396 . S
C803 C798 1.499 . S
C803 H804 0.959 . S
C803 H805 0.960 . S
C803 H806 0.961 . S
H804 C803 0.959 . S
H805 C803 0.960 . S
H806 C803 0.961 . S
O807 Co782 1.967 . S
O807 C815 1.258 . S
O808 Co783 1.941 . S
O808 C815 1.266 . S
H809 C811 0.959 . S
H810 C811 0.961 . S
C811 C801 1.510 . S
C811 H809 0.959 . S
C811 H810 0.961 . S
C811 H812 0.960 . S
H812 C811 0.960 . S
H813 N793 0.862 . S
O814 Co782 1.920 . S
O814 C787 1.289 . S
C815 O807 1.258 . S
C815 O808 1.266 . S
Co816 O819 1.970 . S
Co816 N833 1.989 . S
Co816 O841 1.967 . S
Co816 O848 1.920 . S
Co817 O820 1.966 . S
Co817 N826 2.022 . S
Co817 N834 1.993 . S
Co817 O842 1.941 . S
C818 O819 1.258 . S
C818 O820 1.263 . S
O819 Co816 1.970 . S
O819 C818 1.258 . S
O820 Co817 1.966 . S
O820 C818 1.263 . S
C821 O822 1.235 . S
C821 O848 1.289 . S
O822 C821 1.235 . S
C823 C825 1.400 . S
C823 N826 1.351 . S
C823 C828 1.501 . S
C824 C825 1.387 . S
C824 N827 1.341 . S
C825 C823 1.400 . S
C825 C824 1.387 . S
N826 Co817 2.022 . S
N826 C823 1.351 . S
N826 N827 1.365 . S
N827 C824 1.341 . S
N827 N826 1.365 . S
N827 H847 0.862 . S
C828 C823 1.501 . S
C828 H829 0.961 . S
C828 H830 0.961 . S
C828 H831 0.960 . S
H829 C828 0.961 . S
H830 C828 0.961 . S
H831 C828 0.960 . S
C832 N833 1.342 . S
C832 C836 1.401 . S
C832 C837 1.499 . S
N833 Co816 1.989 . S
N833 C832 1.342 . S
N833 N834 1.388 . S
N834 Co817 1.993 . S
N834 N833 1.388 . S
N834 C835 1.346 . S
C835 N834 1.346 . S
C835 C836 1.396 . S
C835 C845 1.510 . S
C836 C832 1.401 . S
C836 C835 1.396 . S
C837 C832 1.499 . S
C837 H838 0.959 . S
C837 H839 0.960 . S
C837 H840 0.961 . S
H838 C837 0.959 . S
H839 C837 0.960 . S
H840 C837 0.961 . S
O841 Co816 1.967 . S
O841 C849 1.258 . S
O842 Co817 1.941 . S
O842 C849 1.266 . S
H843 C845 0.959 . S
H844 C845 0.961 . S
C845 C835 1.510 . S
C845 H843 0.959 . S
C845 H844 0.961 . S
C845 H846 0.960 . S
H846 C845 0.960 . S
H847 N827 0.862 . S
O848 Co816 1.920 . S
O848 C821 1.289 . S
C849 O841 1.258 . S
C849 O842 1.266 . S
Co850 O853 1.970 . S
Co850 N867 1.989 . S
Co850 O875 1.967 . S
Co850 O882 1.920 . S
Co851 O854 1.966 . S
Co851 N860 2.022 . S
Co851 N868 1.993 . S
Co851 O876 1.941 . S
C852 O853 1.258 . S
C852 O854 1.263 . S
O853 Co850 1.970 . S
O853 C852 1.258 . S
O854 Co851 1.966 . S
O854 C852 1.263 . S
C855 O856 1.235 . S
C855 O882 1.289 . S
O856 C855 1.235 . S
C857 C859 1.400 . S
C857 N860 1.351 . S
C857 C862 1.501 . S
C858 C859 1.387 . S
C858 N861 1.341 . S
C859 C857 1.400 . S
C859 C858 1.387 . S
N860 Co851 2.022 . S
N860 C857 1.351 . S
N860 N861 1.365 . S
N861 C858 1.341 . S
N861 N860 1.365 . S
N861 H881 0.862 . S
C862 C857 1.501 . S
C862 H863 0.961 . S
C862 H864 0.961 . S
C862 H865 0.960 . S
H863 C862 0.961 . S
H864 C862 0.961 . S
H865 C862 0.960 . S
C866 N867 1.342 . S
C866 C870 1.401 . S
C866 C871 1.499 . S
N867 Co850 1.989 . S
N867 C866 1.342 . S
N867 N868 1.388 . S
N868 Co851 1.993 . S
N868 N867 1.388 . S
N868 C869 1.346 . S
C869 N868 1.346 . S
C869 C870 1.396 . S
C869 C879 1.510 . S
C870 C866 1.401 . S
C870 C869 1.396 . S
C871 C866 1.499 . S
C871 H872 0.959 . S
C871 H873 0.960 . S
C871 H874 0.961 . S
H872 C871 0.959 . S
H873 C871 0.960 . S
H874 C871 0.961 . S
O875 Co850 1.967 . S
O875 C883 1.258 . S
O876 Co851 1.941 . S
O876 C883 1.266 . S
H877 C879 0.959 . S
H878 C879 0.961 . S
C879 C869 1.510 . S
C879 H877 0.959 . S
C879 H878 0.961 . S
C879 H880 0.960 . S
H880 C879 0.960 . S
H881 N861 0.862 . S
O882 Co850 1.920 . S
O882 C855 1.289 . S
C883 O875 1.258 . S
C883 O876 1.266 . S
Co884 O887 1.970 . S
Co884 N901 1.989 1_556 S
Co884 O909 1.967 . S
Co884 O916 1.920 . S
Co885 O888 1.966 1_554 S
Co885 N894 2.022 . S
Co885 N902 1.993 . S
Co885 O910 1.941 . S
C886 O887 1.258 . S
C886 O888 1.263 . S
O887 Co884 1.970 . S
O887 C886 1.258 . S
O888 Co885 1.966 1_556 S
O888 C886 1.263 . S
C889 O890 1.235 . S
C889 O916 1.289 . S
O890 C889 1.235 . S
C891 C893 1.400 . S
C891 N894 1.351 . S
C891 C896 1.501 . S
C892 C893 1.387 . S
C892 N895 1.341 . S
C893 C891 1.400 . S
C893 C892 1.387 . S
N894 Co885 2.022 . S
N894 C891 1.351 . S
N894 N895 1.365 . S
N895 C892 1.341 . S
N895 N894 1.365 . S
N895 H915 0.862 . S
C896 C891 1.501 . S
C896 H897 0.961 . S
C896 H898 0.961 . S
C896 H899 0.960 . S
H897 C896 0.961 . S
H898 C896 0.961 . S
H899 C896 0.960 . S
C900 N901 1.342 . S
C900 C904 1.401 . S
C900 C905 1.499 . S
N901 Co884 1.989 1_554 S
N901 C900 1.342 . S
N901 N902 1.388 . S
N902 Co885 1.993 . S
N902 N901 1.388 . S
N902 C903 1.346 . S
C903 N902 1.346 . S
C903 C904 1.396 . S
C903 C913 1.510 . S
C904 C900 1.401 . S
C904 C903 1.396 . S
C905 C900 1.499 . S
C905 H906 0.959 1_554 S
C905 H907 0.960 . S
C905 H908 0.961 . S
H906 C905 0.959 1_556 S
H907 C905 0.960 . S
H908 C905 0.961 . S
O909 Co884 1.967 . S
O909 C917 1.258 . S
O910 Co885 1.941 . S
O910 C917 1.266 1_554 S
H911 C913 0.959 . S
H912 C913 0.961 . S
C913 C903 1.510 . S
C913 H911 0.959 . S
C913 H912 0.961 . S
C913 H914 0.960 . S
H914 C913 0.960 . S
H915 N895 0.862 . S
O916 Co884 1.920 . S
O916 C889 1.289 . S
C917 O909 1.258 . S
C917 O910 1.266 1_556 S
Co918 O921 1.970 . S
Co918 N935 1.989 . S
Co918 O943 1.967 . S
Co918 O950 1.920 . S
Co919 O922 1.966 . S
Co919 N928 2.022 . S
Co919 N936 1.993 . S
Co919 O944 1.941 . S
C920 O921 1.258 . S
C920 O922 1.263 . S
O921 Co918 1.970 . S
O921 C920 1.258 . S
O922 Co919 1.966 . S
O922 C920 1.263 . S
C923 O924 1.235 . S
C923 O950 1.289 . S
O924 C923 1.235 . S
C925 C927 1.400 . S
C925 N928 1.351 . S
C925 C930 1.501 . S
C926 C927 1.387 . S
C926 N929 1.341 . S
C927 C925 1.400 . S
C927 C926 1.387 . S
N928 Co919 2.022 . S
N928 C925 1.351 . S
N928 N929 1.365 . S
N929 C926 1.341 . S
N929 N928 1.365 . S
N929 H949 0.862 . S
C930 C925 1.501 . S
C930 H931 0.961 . S
C930 H932 0.961 . S
C930 H933 0.960 . S
H931 C930 0.961 . S
H932 C930 0.961 . S
H933 C930 0.960 . S
C934 N935 1.342 . S
C934 C938 1.401 . S
C934 C939 1.499 . S
N935 Co918 1.989 . S
N935 C934 1.342 . S
N935 N936 1.388 . S
N936 Co919 1.993 . S
N936 N935 1.388 . S
N936 C937 1.346 . S
C937 N936 1.346 . S
C937 C938 1.396 . S
C937 C947 1.510 . S
C938 C934 1.401 . S
C938 C937 1.396 . S
C939 C934 1.499 . S
C939 H940 0.959 . S
C939 H941 0.960 . S
C939 H942 0.961 . S
H940 C939 0.959 . S
H941 C939 0.960 . S
H942 C939 0.961 . S
O943 Co918 1.967 . S
O943 C951 1.258 . S
O944 Co919 1.941 . S
O944 C951 1.266 . S
H945 C947 0.959 . S
H946 C947 0.961 . S
C947 C937 1.510 . S
C947 H945 0.959 . S
C947 H946 0.961 . S
C947 H948 0.960 . S
H948 C947 0.960 . S
H949 N929 0.862 . S
O950 Co918 1.920 . S
O950 C923 1.289 . S
C951 O943 1.258 . S
C951 O944 1.266 . S
Co952 O955 1.970 . S
Co952 N969 1.989 . S
Co952 O977 1.967 . S
Co952 O984 1.920 . S
Co953 O956 1.966 . S
Co953 N962 2.022 1_554 S
Co953 N970 1.993 1_554 S
Co953 O978 1.941 . S
C954 O955 1.258 . S
C954 O956 1.263 . S
O955 Co952 1.970 . S
O955 C954 1.258 . S
O956 Co953 1.966 . S
O956 C954 1.263 . S
C957 O958 1.235 . S
C957 O984 1.289 . S
O958 C957 1.235 . S
C959 C961 1.400 . S
C959 N962 1.351 . S
C959 C964 1.501 . S
C960 C961 1.387 . S
C960 N963 1.341 . S
C961 C959 1.400 . S
C961 C960 1.387 . S
N962 Co953 2.022 1_556 S
N962 C959 1.351 . S
N962 N963 1.365 . S
N963 C960 1.341 . S
N963 N962 1.365 . S
N963 H983 0.862 . S
C964 C959 1.501 . S
C964 H965 0.961 1_556 S
C964 H966 0.961 . S
C964 H967 0.960 . S
H965 C964 0.961 1_554 S
H966 C964 0.961 . S
H967 C964 0.960 . S
C968 N969 1.342 . S
C968 C972 1.401 1_554 S
C968 C973 1.499 . S
N969 Co952 1.989 . S
N969 C968 1.342 . S
N969 N970 1.388 1_554 S
N970 Co953 1.993 1_556 S
N970 N969 1.388 1_556 S
N970 C971 1.346 . S
C971 N970 1.346 . S
C971 C972 1.396 . S
C971 C981 1.510 . S
C972 C968 1.401 1_556 S
C972 C971 1.396 . S
C973 C968 1.499 . S
C973 H974 0.959 . S
C973 H975 0.960 . S
C973 H976 0.961 . S
H974 C973 0.959 . S
H975 C973 0.960 . S
H976 C973 0.961 . S
O977 Co952 1.967 . S
O977 C985 1.258 . S
O978 Co953 1.941 . S
O978 C985 1.266 . S
H979 C981 0.959 . S
H980 C981 0.961 . S
C981 C971 1.510 . S
C981 H979 0.959 . S
C981 H980 0.961 . S
C981 H982 0.960 . S
H982 C981 0.960 . S
H983 N963 0.862 . S
O984 Co952 1.920 . S
O984 C957 1.289 . S
C985 O977 1.258 . S
C985 O978 1.266 . S
Co986 O989 1.970 . S
Co986 N1003 1.989 . S
Co986 O1011 1.967 . S
Co986 O1018 1.920 . S
Co987 O990 1.966 . S
Co987 N996 2.022 . S
Co987 N1004 1.993 . S
Co987 O1012 1.941 . S
C988 O989 1.258 . S
C988 O990 1.263 . S
O989 Co986 1.970 . S
O989 C988 1.258 . S
O990 Co987 1.966 . S
O990 C988 1.263 . S
C991 O992 1.235 . S
C991 O1018 1.289 . S
O992 C991 1.235 . S
C993 C995 1.400 . S
C993 N996 1.351 . S
C993 C998 1.501 . S
C994 C995 1.387 . S
C994 N997 1.341 . S
C995 C993 1.400 . S
C995 C994 1.387 . S
N996 Co987 2.022 . S
N996 C993 1.351 . S
N996 N997 1.365 . S
N997 C994 1.341 . S
N997 N996 1.365 . S
N997 H1017 0.862 . S
C998 C993 1.501 . S
C998 H999 0.961 . S
C998 H1000 0.961 . S
C998 H1001 0.960 . S
H999 C998 0.961 . S
H1000 C998 0.961 . S
H1001 C998 0.960 . S
C1002 N1003 1.342 . S
C1002 C1006 1.401 . S
C1002 C1007 1.499 . S
N1003 Co986 1.989 . S
N1003 C1002 1.342 . S
N1003 N1004 1.388 . S
N1004 Co987 1.993 . S
N1004 N1003 1.388 . S
N1004 C1005 1.346 . S
C1005 N1004 1.346 . S
C1005 C1006 1.396 . S
C1005 C1015 1.510 . S
C1006 C1002 1.401 . S
C1006 C1005 1.396 . S
C1007 C1002 1.499 . S
C1007 H1008 0.959 . S
C1007 H1009 0.960 . S
C1007 H1010 0.961 . S
H1008 C1007 0.959 . S
H1009 C1007 0.960 . S
H1010 C1007 0.961 . S
O1011 Co986 1.967 . S
O1011 C1019 1.258 . S
O1012 Co987 1.941 . S
O1012 C1019 1.266 . S
H1013 C1015 0.959 . S
H1014 C1015 0.961 . S
C1015 C1005 1.510 . S
C1015 H1013 0.959 . S
C1015 H1014 0.961 . S
C1015 H1016 0.960 . S
H1016 C1015 0.960 . S
H1017 N997 0.862 . S
O1018 Co986 1.920 . S
O1018 C991 1.289 . S
C1019 O1011 1.258 . S
C1019 O1012 1.266 . S
Co1020 O1023 1.970 . S
Co1020 N1037 1.989 . S
Co1020 O1045 1.967 . S
Co1020 O1052 1.920 . S
Co1021 O1024 1.966 . S
Co1021 N1030 2.022 . S
Co1021 N1038 1.993 . S
Co1021 O1046 1.941 . S
C1022 O1023 1.258 . S
C1022 O1024 1.263 . S
O1023 Co1020 1.970 . S
O1023 C1022 1.258 . S
O1024 Co1021 1.966 . S
O1024 C1022 1.263 . S
C1025 O1026 1.235 . S
C1025 O1052 1.289 . S
O1026 C1025 1.235 . S
C1027 C1029 1.400 . S
C1027 N1030 1.351 . S
C1027 C1032 1.501 . S
C1028 C1029 1.387 . S
C1028 N1031 1.341 . S
C1029 C1027 1.400 . S
C1029 C1028 1.387 . S
N1030 Co1021 2.022 . S
N1030 C1027 1.351 . S
N1030 N1031 1.365 . S
N1031 C1028 1.341 . S
N1031 N1030 1.365 . S
N1031 H1051 0.862 . S
C1032 C1027 1.501 . S
C1032 H1033 0.961 . S
C1032 H1034 0.961 . S
C1032 H1035 0.960 . S
H1033 C1032 0.961 . S
H1034 C1032 0.961 . S
H1035 C1032 0.960 . S
C1036 N1037 1.342 . S
C1036 C1040 1.401 . S
C1036 C1041 1.499 . S
N1037 Co1020 1.989 . S
N1037 C1036 1.342 . S
N1037 N1038 1.388 . S
N1038 Co1021 1.993 . S
N1038 N1037 1.388 . S
N1038 C1039 1.346 . S
C1039 N1038 1.346 . S
C1039 C1040 1.396 . S
C1039 C1049 1.510 . S
C1040 C1036 1.401 . S
C1040 C1039 1.396 . S
C1041 C1036 1.499 . S
C1041 H1042 0.959 . S
C1041 H1043 0.960 . S
C1041 H1044 0.961 . S
H1042 C1041 0.959 . S
H1043 C1041 0.960 . S
H1044 C1041 0.961 . S
O1045 Co1020 1.967 . S
O1045 C1053 1.258 . S
O1046 Co1021 1.941 . S
O1046 C1053 1.266 . S
H1047 C1049 0.959 . S
H1048 C1049 0.961 . S
C1049 C1039 1.510 . S
C1049 H1047 0.959 . S
C1049 H1048 0.961 . S
C1049 H1050 0.960 . S
H1050 C1049 0.960 . S
H1051 N1031 0.862 . S
O1052 Co1020 1.920 . S
O1052 C1025 1.289 . S
C1053 O1045 1.258 . S
C1053 O1046 1.266 . S
Co1054 O1057 1.970 . S
Co1054 N1071 1.989 . S
Co1054 O1079 1.967 . S
Co1054 O1086 1.920 . S
Co1055 O1058 1.966 . S
Co1055 N1064 2.022 . S
Co1055 N1072 1.993 . S
Co1055 O1080 1.941 . S
C1056 O1057 1.258 . S
C1056 O1058 1.263 . S
O1057 Co1054 1.970 . S
O1057 C1056 1.258 . S
O1058 Co1055 1.966 . S
O1058 C1056 1.263 . S
C1059 O1060 1.235 . S
C1059 O1086 1.289 . S
O1060 C1059 1.235 . S
C1061 C1063 1.400 . S
C1061 N1064 1.351 . S
C1061 C1066 1.501 . S
C1062 C1063 1.387 . S
C1062 N1065 1.341 . S
C1063 C1061 1.400 . S
C1063 C1062 1.387 . S
N1064 Co1055 2.022 . S
N1064 C1061 1.351 . S
N1064 N1065 1.365 . S
N1065 C1062 1.341 . S
N1065 N1064 1.365 . S
N1065 H1085 0.862 . S
C1066 C1061 1.501 . S
C1066 H1067 0.961 . S
C1066 H1068 0.961 . S
C1066 H1069 0.960 . S
H1067 C1066 0.961 . S
H1068 C1066 0.961 . S
H1069 C1066 0.960 . S
C1070 N1071 1.342 . S
C1070 C1074 1.401 . S
C1070 C1075 1.499 . S
N1071 Co1054 1.989 . S
N1071 C1070 1.342 . S
N1071 N1072 1.388 . S
N1072 Co1055 1.993 . S
N1072 N1071 1.388 . S
N1072 C1073 1.346 . S
C1073 N1072 1.346 . S
C1073 C1074 1.396 . S
C1073 C1083 1.510 . S
C1074 C1070 1.401 . S
C1074 C1073 1.396 . S
C1075 C1070 1.499 . S
C1075 H1076 0.959 . S
C1075 H1077 0.960 . S
C1075 H1078 0.961 . S
H1076 C1075 0.959 . S
H1077 C1075 0.960 . S
H1078 C1075 0.961 . S
O1079 Co1054 1.967 . S
O1079 C1087 1.258 . S
O1080 Co1055 1.941 . S
O1080 C1087 1.266 . S
H1081 C1083 0.959 . S
H1082 C1083 0.961 . S
C1083 C1073 1.510 . S
C1083 H1081 0.959 . S
C1083 H1082 0.961 . S
C1083 H1084 0.960 . S
H1084 C1083 0.960 . S
H1085 N1065 0.862 . S
O1086 Co1054 1.920 . S
O1086 C1059 1.289 . S
C1087 O1079 1.258 . S
C1087 O1080 1.266 . S
H1088 C1096 0.929 . S
H1089 C1098 0.930 . S
H1090 C1100 0.930 . S
H1091 C1103 0.929 . S
H1092 C1106 0.930 . S
H1093 C1108 0.960 . S
H1094 C1108 0.960 . S
H1095 C1108 0.960 1_565 S
C1096 H1088 0.929 . S
C1096 C1097 1.377 . S
C1096 C1098 1.384 . S
C1097 C1096 1.377 . S
C1097 C1103 1.390 . S
C1098 H1089 0.930 . S
C1098 C1096 1.384 . S
C1098 C1099 1.372 . S
C1099 C1098 1.372 . S
C1099 C1100 1.400 . S
C1099 C1104 1.490 . S
C1100 H1090 0.930 . S
C1100 C1099 1.400 . S
C1100 C1103 1.386 . S
H1101 C1117 0.930 . S
H1102 C1118 0.931 . S
C1103 H1091 0.929 . S
C1103 C1097 1.390 . S
C1103 C1100 1.386 . S
C1104 C1099 1.490 . S
C1104 C1106 1.395 . S
C1104 C1107 1.403 1_565 S
H1105 C1111 0.930 . S
C1106 H1092 0.930 . S
C1106 C1104 1.395 . S
C1106 C1109 1.403 . S
C1107 C1104 1.403 1_545 S
C1107 C1108 1.524 . S
C1107 C1111 1.400 . S
C1108 H1093 0.960 . S
C1108 H1094 0.960 . S
C1108 H1095 0.960 1_545 S
C1108 C1107 1.524 . S
C1109 C1106 1.403 . S
C1109 C1110 1.392 1_565 S
C1109 C1113 1.495 . S
C1110 C1109 1.392 1_545 S
C1110 C1111 1.385 . S
C1110 C1112 1.478 . S
C1111 H1105 0.930 . S
C1111 C1107 1.400 . S
C1111 C1110 1.385 . S
C1112 C1110 1.478 . S
C1112 C1114 1.381 . S
C1112 C1118 1.383 . S
C1113 C1109 1.495 . S
C1113 H1119 0.959 . S
C1113 H1120 0.961 . S
C1113 H1121 0.960 1_565 S
C1114 C1112 1.381 . S
C1114 C1115 1.394 . S
C1114 H1122 0.930 . S
C1115 C1114 1.394 . S
C1115 C1116 1.383 . S
C1115 H1123 0.929 . S
C1116 C1115 1.383 . S
C1116 C1117 1.377 . S
C1117 H1101 0.930 . S
C1117 C1116 1.377 . S
C1117 C1118 1.379 . S
C1118 H1102 0.931 . S
C1118 C1112 1.383 . S
C1118 C1117 1.379 . S
H1119 C1113 0.959 . S
H1120 C1113 0.961 . S
H1121 C1113 0.960 1_545 S
H1122 C1114 0.930 . S
H1123 C1115 0.929 . S
H1124 C1132 0.929 . S
H1125 C1134 0.930 . S
H1126 C1136 0.930 . S
H1127 C1139 0.929 . S
H1128 C1142 0.930 . S
H1129 C1144 0.960 . S
H1130 C1144 0.960 . S
H1131 C1144 0.960 . S
C1132 H1124 0.929 . S
C1132 C1133 1.377 . S
C1132 C1134 1.384 . S
C1133 C1132 1.377 . S
C1133 C1139 1.390 . S
C1134 H1125 0.930 . S
C1134 C1132 1.384 . S
C1134 C1135 1.372 . S
C1135 C1134 1.372 . S
C1135 C1136 1.400 . S
C1135 C1140 1.490 . S
C1136 H1126 0.930 . S
C1136 C1135 1.400 . S
C1136 C1139 1.386 . S
H1137 C1153 0.930 . S
H1138 C1154 0.931 . S
C1139 H1127 0.929 . S
C1139 C1133 1.390 . S
C1139 C1136 1.386 . S
C1140 C1135 1.490 . S
C1140 C1142 1.395 . S
C1140 C1143 1.403 . S
H1141 C1147 0.930 . S
C1142 H1128 0.930 . S
C1142 C1140 1.395 . S
C1142 C1145 1.403 1_554 S
C1143 C1140 1.403 . S
C1143 C1144 1.524 . S
C1143 C1147 1.400 . S
C1144 H1129 0.960 . S
C1144 H1130 0.960 . S
C1144 H1131 0.960 . S
C1144 C1143 1.524 . S
C1145 C1142 1.403 1_556 S
C1145 C1146 1.392 . S
C1145 C1149 1.495 . S
C1146 C1145 1.392 . S
C1146 C1147 1.385 1_556 S
C1146 C1148 1.478 . S
C1147 H1141 0.930 . S
C1147 C1143 1.400 . S
C1147 C1146 1.385 1_554 S
C1148 C1146 1.478 . S
C1148 C1150 1.381 . S
C1148 C1154 1.383 . S
C1149 C1145 1.495 . S
C1149 H1155 0.959 . S
C1149 H1156 0.961 . S
C1149 H1157 0.960 . S
C1150 C1148 1.381 . S
C1150 C1151 1.394 . S
C1150 H1158 0.930 . S
C1151 C1150 1.394 . S
C1151 C1152 1.383 . S
C1151 H1159 0.929 . S
C1152 C1151 1.383 . S
C1152 C1153 1.377 . S
C1153 H1137 0.930 . S
C1153 C1152 1.377 . S
C1153 C1154 1.379 . S
C1154 H1138 0.931 . S
C1154 C1148 1.383 . S
C1154 C1153 1.379 . S
H1155 C1149 0.959 . S
H1156 C1149 0.961 . S
H1157 C1149 0.960 . S
H1158 C1150 0.930 . S
H1159 C1151 0.929 . S
H1160 C1168 0.929 . S
H1161 C1170 0.930 . S
H1162 C1172 0.930 . S
H1163 C1175 0.929 . S
H1164 C1178 0.930 . S
H1165 C1180 0.960 . S
H1166 C1180 0.960 . S
H1167 C1180 0.960 . S
C1168 H1160 0.929 . S
C1168 C1169 1.377 . S
C1168 C1170 1.384 . S
C1169 C1168 1.377 . S
C1169 C1175 1.390 . S
C1170 H1161 0.930 . S
C1170 C1168 1.384 . S
C1170 C1171 1.372 . S
C1171 C1170 1.372 . S
C1171 C1172 1.400 . S
C1171 C1176 1.490 . S
C1172 H1162 0.930 . S
C1172 C1171 1.400 . S
C1172 C1175 1.386 . S
H1173 C1189 0.930 . S
H1174 C1190 0.931 . S
C1175 H1163 0.929 . S
C1175 C1169 1.390 . S
C1175 C1172 1.386 . S
C1176 C1171 1.490 . S
C1176 C1178 1.395 . S
C1176 C1179 1.403 1_565 S
H1177 C1183 0.930 . S
C1178 H1164 0.930 . S
C1178 C1176 1.395 . S
C1178 C1181 1.403 . S
C1179 C1176 1.403 1_545 S
C1179 C1180 1.524 . S
C1179 C1183 1.400 . S
C1180 H1165 0.960 . S
C1180 H1166 0.960 . S
C1180 H1167 0.960 . S
C1180 C1179 1.524 . S
C1181 C1178 1.403 . S
C1181 C1182 1.392 1_565 S
C1181 C1185 1.495 . S
C1182 C1181 1.392 1_545 S
C1182 C1183 1.385 . S
C1182 C1184 1.478 . S
C1183 H1177 0.930 . S
C1183 C1179 1.400 . S
C1183 C1182 1.385 . S
C1184 C1182 1.478 . S
C1184 C1186 1.381 . S
C1184 C1190 1.383 . S
C1185 C1181 1.495 . S
C1185 H1191 0.959 . S
C1185 H1192 0.961 . S
C1185 H1193 0.960 . S
C1186 C1184 1.381 . S
C1186 C1187 1.394 . S
C1186 H1194 0.930 . S
C1187 C1186 1.394 . S
C1187 C1188 1.383 . S
C1187 H1195 0.929 . S
C1188 C1187 1.383 . S
C1188 C1189 1.377 . S
C1189 H1173 0.930 . S
C1189 C1188 1.377 . S
C1189 C1190 1.379 . S
C1190 H1174 0.931 . S
C1190 C1184 1.383 . S
C1190 C1189 1.379 . S
H1191 C1185 0.959 . S
H1192 C1185 0.961 . S
H1193 C1185 0.960 . S
H1194 C1186 0.930 . S
H1195 C1187 0.929 . S
H1196 C1204 0.929 . S
H1197 C1206 0.930 . S
H1198 C1208 0.930 . S
H1199 C1211 0.929 . S
H1200 C1214 0.930 . S
H1201 C1216 0.960 . S
H1202 C1216 0.960 . S
H1203 C1216 0.960 . S
C1204 H1196 0.929 . S
C1204 C1205 1.377 . S
C1204 C1206 1.384 . S
C1205 C1204 1.377 . S
C1205 C1211 1.390 . S
C1206 H1197 0.930 . S
C1206 C1204 1.384 . S
C1206 C1207 1.372 . S
C1207 C1206 1.372 . S
C1207 C1208 1.400 . S
C1207 C1212 1.490 . S
C1208 H1198 0.930 . S
C1208 C1207 1.400 . S
C1208 C1211 1.386 . S
H1209 C1225 0.930 . S
H1210 C1226 0.931 . S
C1211 H1199 0.929 . S
C1211 C1205 1.390 . S
C1211 C1208 1.386 . S
C1212 C1207 1.490 . S
C1212 C1214 1.395 . S
C1212 C1215 1.403 . S
H1213 C1219 0.930 . S
C1214 H1200 0.930 . S
C1214 C1212 1.395 . S
C1214 C1217 1.403 . S
C1215 C1212 1.403 . S
C1215 C1216 1.524 . S
C1215 C1219 1.400 . S
C1216 H1201 0.960 . S
C1216 H1202 0.960 . S
C1216 H1203 0.960 . S
C1216 C1215 1.524 . S
C1217 C1214 1.403 . S
C1217 C1218 1.392 . S
C1217 C1221 1.495 . S
C1218 C1217 1.392 . S
C1218 C1219 1.385 . S
C1218 C1220 1.478 . S
C1219 H1213 0.930 . S
C1219 C1215 1.400 . S
C1219 C1218 1.385 . S
C1220 C1218 1.478 . S
C1220 C1222 1.381 . S
C1220 C1226 1.383 . S
C1221 C1217 1.495 . S
C1221 H1227 0.959 . S
C1221 H1228 0.961 . S
C1221 H1229 0.960 . S
C1222 C1220 1.381 . S
C1222 C1223 1.394 . S
C1222 H1230 0.930 . S
C1223 C1222 1.394 . S
C1223 C1224 1.383 . S
C1223 H1231 0.929 . S
C1224 C1223 1.383 . S
C1224 C1225 1.377 . S
C1225 H1209 0.930 . S
C1225 C1224 1.377 . S
C1225 C1226 1.379 . S
C1226 H1210 0.931 . S
C1226 C1220 1.383 . S
C1226 C1225 1.379 . S
H1227 C1221 0.959 . S
H1228 C1221 0.961 . S
H1229 C1221 0.960 . S
H1230 C1222 0.930 . S
H1231 C1223 0.929 . S
H1232 C1240 0.929 . S
H1233 C1242 0.930 . S
H1234 C1244 0.930 . S
H1235 C1247 0.929 . S
H1236 C1250 0.930 . S
H1237 C1252 0.960 . S
H1238 C1252 0.960 . S
H1239 C1252 0.960 . S
C1240 H1232 0.929 . S
C1240 C1241 1.377 . S
C1240 C1242 1.384 . S
C1241 C1240 1.377 . S
C1241 C1247 1.390 . S
C1242 H1233 0.930 . S
C1242 C1240 1.384 . S
C1242 C1243 1.372 . S
C1243 C1242 1.372 . S
C1243 C1244 1.400 . S
C1243 C1248 1.490 . S
C1244 H1234 0.930 . S
C1244 C1243 1.400 . S
C1244 C1247 1.386 . S
H1245 C1261 0.930 . S
H1246 C1262 0.931 . S
C1247 H1235 0.929 . S
C1247 C1241 1.390 . S
C1247 C1244 1.386 . S
C1248 C1243 1.490 . S
C1248 C1250 1.395 1_545 S
C1248 C1251 1.403 . S
H1249 C1255 0.937 . S
C1250 H1236 0.930 . S
C1250 C1248 1.395 1_565 S
C1250 C1253 1.403 . S
C1251 C1248 1.403 . S
C1251 C1252 1.524 . S
C1251 C1255 1.438 . S
C1252 H1237 0.960 . S
C1252 H1238 0.960 . S
C1252 H1239 0.960 . S
C1252 C1251 1.524 . S
C1253 C1250 1.403 . S
C1253 C1254 1.392 . S
C1253 C1257 1.495 . S
C1254 C1253 1.392 . S
C1254 C1255 1.341 1_565 S
C1254 C1256 1.478 . S
C1255 H1249 0.937 . S
C1255 C1251 1.438 . S
C1255 C1254 1.341 1_545 S
C1256 C1254 1.478 . S
C1256 C1258 1.381 . S
C1256 C1262 1.383 . S
C1257 C1253 1.495 . S
C1257 H1263 0.959 . S
C1257 H1264 0.961 . S
C1257 H1265 0.960 . S
C1258 C1256 1.381 . S
C1258 C1259 1.394 . S
C1258 H1266 0.930 . S
C1259 C1258 1.394 . S
C1259 C1260 1.383 . S
C1259 H1267 0.929 . S
C1260 C1259 1.383 . S
C1260 C1261 1.377 . S
C1261 H1245 0.930 . S
C1261 C1260 1.377 . S
C1261 C1262 1.379 . S
C1262 H1246 0.931 . S
C1262 C1256 1.383 . S
C1262 C1261 1.379 . S
H1263 C1257 0.959 . S
H1264 C1257 0.961 . S
H1265 C1257 0.960 . S
H1266 C1258 0.930 . S
H1267 C1259 0.929 . S
H1268 C1276 0.929 . S
H1269 C1278 0.930 . S
H1270 C1280 0.930 . S
H1271 C1283 0.929 . S
H1272 C1286 0.930 . S
H1273 C1288 0.960 . S
H1274 C1288 0.960 . S
H1275 C1288 0.960 . S
C1276 H1268 0.929 . S
C1276 C1277 1.377 . S
C1276 C1278 1.384 . S
C1277 C1276 1.377 . S
C1277 C1283 1.390 . S
C1278 H1269 0.930 . S
C1278 C1276 1.384 . S
C1278 C1279 1.372 . S
C1279 C1278 1.372 . S
C1279 C1280 1.400 . S
C1279 C1284 1.490 1_556 S
C1280 H1270 0.930 . S
C1280 C1279 1.400 . S
C1280 C1283 1.386 . S
H1281 C1297 0.930 . S
H1282 C1298 0.931 . S
C1283 H1271 0.929 . S
C1283 C1277 1.390 . S
C1283 C1280 1.386 . S
C1284 C1279 1.490 1_554 S
C1284 C1286 1.395 . S
C1284 C1287 1.403 1_554 S
H1285 C1291 0.930 . S
C1286 H1272 0.930 . S
C1286 C1284 1.395 . S
C1286 C1289 1.403 . S
C1287 C1284 1.403 1_556 S
C1287 C1288 1.524 . S
C1287 C1291 1.400 1_556 S
C1288 H1273 0.960 . S
C1288 H1274 0.960 . S
C1288 H1275 0.960 . S
C1288 C1287 1.524 . S
C1289 C1286 1.403 . S
C1289 C1290 1.392 . S
C1289 C1293 1.495 . S
C1290 C1289 1.392 . S
C1290 C1291 1.385 . S
C1290 C1292 1.478 . S
C1291 H1285 0.930 . S
C1291 C1287 1.400 1_554 S
C1291 C1290 1.385 . S
C1292 C1290 1.478 . S
C1292 C1294 1.381 . S
C1292 C1298 1.383 . S
C1293 C1289 1.495 . S
C1293 H1299 0.959 . S
C1293 H1300 0.961 . S
C1293 H1301 0.960 . S
C1294 C1292 1.381 . S
C1294 C1295 1.394 . S
C1294 H1302 0.930 . S
C1295 C1294 1.394 . S
C1295 C1296 1.383 . S
C1295 H1303 0.929 . S
C1296 C1295 1.383 . S
C1296 C1297 1.377 . S
C1297 H1281 0.930 . S
C1297 C1296 1.377 . S
C1297 C1298 1.379 . S
C1298 H1282 0.931 . S
C1298 C1292 1.383 . S
C1298 C1297 1.379 . S
H1299 C1293 0.959 . S
H1300 C1293 0.961 . S
H1301 C1293 0.960 . S
H1302 C1294 0.930 . S
H1303 C1295 0.929 . S
H1304 C1312 0.929 . S
H1305 C1314 0.930 . S
H1306 C1316 0.930 . S
H1307 C1319 0.929 . S
H1308 C1322 0.930 . S
H1309 C1324 0.960 . S
H1310 C1324 0.960 . S
H1311 C1324 0.960 . S
C1312 H1304 0.929 . S
C1312 C1313 1.377 . S
C1312 C1314 1.384 . S
C1313 C1312 1.377 . S
C1313 C1319 1.390 . S
C1314 H1305 0.930 . S
C1314 C1312 1.384 . S
C1314 C1315 1.372 . S
C1315 C1314 1.372 . S
C1315 C1316 1.400 . S
C1315 C1320 1.490 . S
C1316 H1306 0.930 . S
C1316 C1315 1.400 . S
C1316 C1319 1.386 . S
H1317 C1333 0.930 . S
H1318 C1334 0.931 . S
C1319 H1307 0.929 . S
C1319 C1313 1.390 . S
C1319 C1316 1.386 . S
C1320 C1315 1.490 . S
C1320 C1322 1.395 . S
C1320 C1323 1.403 1_545 S
H1321 C1327 0.930 . S
C1322 H1308 0.930 . S
C1322 C1320 1.395 . S
C1322 C1325 1.403 . S
C1323 C1320 1.403 1_565 S
C1323 C1324 1.524 . S
C1323 C1327 1.400 . S
C1324 H1309 0.960 . S
C1324 H1310 0.960 . S
C1324 H1311 0.960 . S
C1324 C1323 1.524 . S
C1325 C1322 1.403 . S
C1325 C1326 1.392 1_545 S
C1325 C1329 1.495 . S
C1326 C1325 1.392 1_565 S
C1326 C1327 1.385 . S
C1326 C1328 1.478 . S
C1327 H1321 0.930 . S
C1327 C1323 1.400 . S
C1327 C1326 1.385 . S
C1328 C1326 1.478 . S
C1328 C1330 1.381 . S
C1328 C1334 1.383 . S
C1329 C1325 1.495 . S
C1329 H1335 0.959 . S
C1329 H1336 0.961 . S
C1329 H1337 0.960 . S
C1330 C1328 1.381 . S
C1330 C1331 1.394 . S
C1330 H1338 0.930 . S
C1331 C1330 1.394 . S
C1331 C1332 1.383 . S
C1331 H1339 0.929 . S
C1332 C1331 1.383 . S
C1332 C1333 1.377 . S
C1333 H1317 0.930 . S
C1333 C1332 1.377 . S
C1333 C1334 1.379 . S
C1334 H1318 0.931 . S
C1334 C1328 1.383 . S
C1334 C1333 1.379 . S
H1335 C1329 0.959 . S
H1336 C1329 0.961 . S
H1337 C1329 0.960 . S
H1338 C1330 0.930 . S
H1339 C1331 0.929 . S
H1340 C1348 0.929 . S
H1341 C1350 0.930 . S
H1342 C1352 0.930 . S
H1343 C1355 0.929 . S
H1344 C1358 0.930 . S
H1345 C1360 0.960 . S
H1346 C1360 0.960 . S
H1347 C1360 0.960 . S
C1348 H1340 0.929 . S
C1348 C1349 1.377 . S
C1348 C1350 1.384 . S
C1349 C1348 1.377 . S
C1349 C1355 1.390 . S
C1350 H1341 0.930 . S
C1350 C1348 1.384 . S
C1350 C1351 1.372 . S
C1351 C1350 1.372 . S
C1351 C1352 1.400 . S
C1351 C1356 1.490 . S
C1352 H1342 0.930 . S
C1352 C1351 1.400 . S
C1352 C1355 1.386 . S
H1353 C1369 0.930 . S
H1354 C1370 0.931 . S
C1355 H1343 0.929 . S
C1355 C1349 1.390 . S
C1355 C1352 1.386 . S
C1356 C1351 1.490 . S
C1356 C1358 1.395 . S
C1356 C1359 1.403 . S
H1357 C1363 0.930 . S
C1358 H1344 0.930 . S
C1358 C1356 1.395 . S
C1358 C1361 1.403 . S
C1359 C1356 1.403 . S
C1359 C1360 1.524 . S
C1359 C1363 1.400 . S
C1360 H1345 0.960 . S
C1360 H1346 0.960 . S
C1360 H1347 0.960 . S
C1360 C1359 1.524 . S
C1361 C1358 1.403 . S
C1361 C1362 1.392 . S
C1361 C1365 1.495 . S
C1362 C1361 1.392 . S
C1362 C1363 1.385 . S
C1362 C1364 1.478 . S
C1363 H1357 0.930 . S
C1363 C1359 1.400 . S
C1363 C1362 1.385 . S
C1364 C1362 1.478 . S
C1364 C1366 1.381 . S
C1364 C1370 1.383 . S
C1365 C1361 1.495 . S
C1365 H1371 0.959 . S
C1365 H1372 0.961 . S
C1365 H1373 0.960 . S
C1366 C1364 1.381 . S
C1366 C1367 1.394 . S
C1366 H1374 0.930 . S
C1367 C1366 1.394 . S
C1367 C1368 1.383 . S
C1367 H1375 0.929 . S
C1368 C1367 1.383 . S
C1368 C1369 1.377 . S
C1369 H1353 0.930 . S
C1369 C1368 1.377 . S
C1369 C1370 1.379 . S
C1370 H1354 0.931 . S
C1370 C1364 1.383 . S
C1370 C1369 1.379 . S
H1371 C1365 0.959 . S
H1372 C1365 0.961 . S
H1373 C1365 0.960 . S
H1374 C1366 0.930 . S
H1375 C1367 0.929 . S
H1376 C1384 0.929 . S
H1377 C1386 0.930 . S
H1378 C1388 0.930 . S
H1379 C1391 0.929 . S
H1380 C1394 0.930 . S
H1381 C1396 0.960 . S
H1382 C1396 0.960 . S
H1383 C1396 0.960 . S
C1384 H1376 0.929 . S
C1384 C1385 1.377 . S
C1384 C1386 1.384 . S
C1385 C1384 1.377 . S
C1385 C1391 1.390 . S
C1386 H1377 0.930 . S
C1386 C1384 1.384 . S
C1386 C1387 1.372 . S
C1387 C1386 1.372 . S
C1387 C1388 1.400 . S
C1387 C1392 1.490 . S
C1388 H1378 0.930 . S
C1388 C1387 1.400 . S
C1388 C1391 1.386 . S
H1389 C1405 0.930 . S
H1390 C1406 0.931 . S
C1391 H1379 0.929 . S
C1391 C1385 1.390 . S
C1391 C1388 1.386 . S
C1392 C1387 1.490 . S
C1392 C1394 1.395 . S
C1392 C1395 1.403 . S
H1393 C1399 0.930 . S
C1394 H1380 0.930 . S
C1394 C1392 1.395 . S
C1394 C1397 1.403 . S
C1395 C1392 1.403 . S
C1395 C1396 1.524 . S
C1395 C1399 1.400 . S
C1396 H1381 0.960 . S
C1396 H1382 0.960 . S
C1396 H1383 0.960 . S
C1396 C1395 1.524 . S
C1397 C1394 1.403 . S
C1397 C1398 1.392 . S
C1397 C1401 1.495 . S
C1398 C1397 1.392 . S
C1398 C1399 1.385 . S
C1398 C1400 1.478 . S
C1399 H1393 0.930 . S
C1399 C1395 1.400 . S
C1399 C1398 1.385 . S
C1400 C1398 1.478 . S
C1400 C1402 1.381 . S
C1400 C1406 1.383 . S
C1401 C1397 1.495 . S
C1401 H1407 0.959 . S
C1401 H1408 0.961 . S
C1401 H1409 0.960 . S
C1402 C1400 1.381 . S
C1402 C1403 1.394 . S
C1402 H1410 0.930 . S
C1403 C1402 1.394 . S
C1403 C1404 1.383 . S
C1403 H1411 0.929 . S
C1404 C1403 1.383 . S
C1404 C1405 1.377 . S
C1405 H1389 0.930 . S
C1405 C1404 1.377 . S
C1405 C1406 1.379 . S
C1406 H1390 0.931 . S
C1406 C1400 1.383 . S
C1406 C1405 1.379 . S
H1407 C1401 0.959 . S
H1408 C1401 0.961 . S
H1409 C1401 0.960 . S
H1410 C1402 0.930 . S
H1411 C1403 0.929 . S
H1412 C1420 0.929 . S
H1413 C1422 0.930 . S
H1414 C1424 0.930 . S
H1415 C1427 0.929 . S
H1416 C1430 0.930 . S
H1417 C1432 0.960 . S
H1418 C1432 0.960 . S
H1419 C1432 0.960 . S
C1420 H1412 0.929 . S
C1420 C1421 1.377 . S
C1420 C1422 1.384 . S
C1421 C1420 1.377 . S
C1421 C1427 1.390 . S
C1422 H1413 0.930 . S
C1422 C1420 1.384 . S
C1422 C1423 1.372 . S
C1423 C1422 1.372 . S
C1423 C1424 1.400 . S
C1423 C1428 1.490 . S
C1424 H1414 0.930 . S
C1424 C1423 1.400 . S
C1424 C1427 1.386 . S
H1425 C1441 0.930 . S
H1426 C1442 0.931 . S
C1427 H1415 0.929 . S
C1427 C1421 1.390 . S
C1427 C1424 1.386 . S
C1428 C1423 1.490 . S
C1428 C1430 1.395 . S
C1428 C1431 1.403 . S
H1429 C1435 0.930 . S
C1430 H1416 0.930 . S
C1430 C1428 1.395 . S
C1430 C1433 1.403 . S
C1431 C1428 1.403 . S
C1431 C1432 1.524 . S
C1431 C1435 1.400 . S
C1432 H1417 0.960 . S
C1432 H1418 0.960 . S
C1432 H1419 0.960 . S
C1432 C1431 1.524 . S
C1433 C1430 1.403 . S
C1433 C1434 1.392 . S
C1433 C1437 1.495 . S
C1434 C1433 1.392 . S
C1434 C1435 1.385 . S
C1434 C1436 1.478 . S
C1435 H1429 0.930 . S
C1435 C1431 1.400 . S
C1435 C1434 1.385 . S
C1436 C1434 1.478 . S
C1436 C1438 1.381 . S
C1436 C1442 1.383 . S
C1437 C1433 1.495 . S
C1437 H1443 0.959 . S
C1437 H1444 0.961 . S
C1437 H1445 0.960 . S
C1438 C1436 1.381 . S
C1438 C1439 1.394 . S
C1438 H1446 0.930 . S
C1439 C1438 1.394 . S
C1439 C1440 1.383 . S
C1439 H1447 0.929 . S
C1440 C1439 1.383 . S
C1440 C1441 1.377 . S
C1441 H1425 0.930 . S
C1441 C1440 1.377 . S
C1441 C1442 1.379 . S
C1442 H1426 0.931 . S
C1442 C1436 1.383 . S
C1442 C1441 1.379 . S
H1443 C1437 0.959 . S
H1444 C1437 0.961 . S
H1445 C1437 0.960 . S
H1446 C1438 0.930 . S
H1447 C1439 0.929 . S
H1448 C1456 0.929 . S
H1449 C1458 0.930 . S
H1450 C1460 0.930 . S
H1451 C1463 0.929 . S
H1452 C1466 0.930 . S
H1453 C1468 0.960 . S
H1454 C1468 0.960 . S
H1455 C1468 0.960 . S
C1456 H1448 0.929 . S
C1456 C1457 1.377 . S
C1456 C1458 1.384 . S
C1457 C1456 1.377 . S
C1457 C1463 1.390 . S
C1458 H1449 0.930 . S
C1458 C1456 1.384 . S
C1458 C1459 1.372 . S
C1459 C1458 1.372 . S
C1459 C1460 1.400 . S
C1459 C1464 1.490 . S
C1460 H1450 0.930 . S
C1460 C1459 1.400 . S
C1460 C1463 1.386 . S
H1461 C1477 0.930 . S
H1462 C1478 0.931 . S
C1463 H1451 0.929 . S
C1463 C1457 1.390 . S
C1463 C1460 1.386 . S
C1464 C1459 1.490 . S
C1464 C1466 1.395 . S
C1464 C1467 1.403 . S
H1465 C1471 0.930 . S
C1466 H1452 0.930 . S
C1466 C1464 1.395 . S
C1466 C1469 1.403 . S
C1467 C1464 1.403 . S
C1467 C1468 1.524 . S
C1467 C1471 1.400 . S
C1468 H1453 0.960 . S
C1468 H1454 0.960 . S
C1468 H1455 0.960 . S
C1468 C1467 1.524 . S
C1469 C1466 1.403 . S
C1469 C1470 1.392 . S
C1469 C1473 1.495 . S
C1470 C1469 1.392 . S
C1470 C1471 1.385 . S
C1470 C1472 1.478 . S
C1471 H1465 0.930 . S
C1471 C1467 1.400 . S
C1471 C1470 1.385 . S
C1472 C1470 1.478 . S
C1472 C1474 1.381 . S
C1472 C1478 1.383 . S
C1473 C1469 1.495 . S
C1473 H1479 0.959 . S
C1473 H1480 0.961 . S
C1473 H1481 0.960 . S
C1474 C1472 1.381 . S
C1474 C1475 1.394 . S
C1474 H1482 0.930 . S
C1475 C1474 1.394 . S
C1475 C1476 1.383 . S
C1475 H1483 0.929 . S
C1476 C1475 1.383 . S
C1476 C1477 1.377 . S
C1477 H1461 0.930 . S
C1477 C1476 1.377 . S
C1477 C1478 1.379 . S
C1478 H1462 0.931 . S
C1478 C1472 1.383 . S
C1478 C1477 1.379 . S
H1479 C1473 0.959 . S
H1480 C1473 0.961 . S
H1481 C1473 0.960 . S
H1482 C1474 0.930 . S
H1483 C1475 0.929 . S
H1484 C1492 0.929 . S
H1485 C1494 0.930 . S
H1486 C1496 0.930 . S
H1487 C1499 0.929 . S
H1488 C1502 0.930 . S
H1489 C1504 0.960 . S
H1490 C1504 0.960 . S
H1491 C1504 0.960 . S
C1492 H1484 0.929 . S
C1492 C1493 1.377 . S
C1492 C1494 1.384 . S
C1493 C1492 1.377 . S
C1493 C1499 1.390 . S
C1494 H1485 0.930 . S
C1494 C1492 1.384 . S
C1494 C1495 1.372 . S
C1495 C1494 1.372 . S
C1495 C1496 1.400 . S
C1495 C1500 1.490 . S
C1496 H1486 0.930 . S
C1496 C1495 1.400 . S
C1496 C1499 1.386 . S
H1497 C1513 0.930 . S
H1498 C1514 0.931 . S
C1499 H1487 0.929 . S
C1499 C1493 1.390 . S
C1499 C1496 1.386 . S
C1500 C1495 1.490 . S
C1500 C1502 1.395 . S
C1500 C1503 1.403 . S
H1501 C1507 0.930 . S
C1502 H1488 0.930 . S
C1502 C1500 1.395 . S
C1502 C1505 1.403 . S
C1503 C1500 1.403 . S
C1503 C1504 1.524 . S
C1503 C1507 1.400 . S
C1504 H1489 0.960 . S
C1504 H1490 0.960 . S
C1504 H1491 0.960 . S
C1504 C1503 1.524 . S
C1505 C1502 1.403 . S
C1505 C1506 1.392 1_554 S
C1505 C1509 1.495 1_554 S
C1506 C1505 1.392 1_556 S
C1506 C1507 1.385 1_556 S
C1506 C1508 1.478 . S
C1507 H1501 0.930 . S
C1507 C1503 1.400 . S
C1507 C1506 1.385 1_554 S
C1508 C1506 1.478 . S
C1508 C1510 1.381 . S
C1508 C1514 1.383 . S
C1509 C1505 1.495 1_556 S
C1509 H1515 0.959 1_556 S
C1509 H1516 0.961 . S
C1509 H1517 0.960 . S
C1510 C1508 1.381 . S
C1510 C1511 1.394 . S
C1510 H1518 0.930 . S
C1511 C1510 1.394 . S
C1511 C1512 1.383 . S
C1511 H1519 0.929 . S
C1512 C1511 1.383 . S
C1512 C1513 1.377 . S
C1513 H1497 0.930 . S
C1513 C1512 1.377 . S
C1513 C1514 1.379 . S
C1514 H1498 0.931 . S
C1514 C1508 1.383 . S
C1514 C1513 1.379 . S
H1515 C1509 0.959 1_554 S
H1516 C1509 0.961 . S
H1517 C1509 0.960 . S
H1518 C1510 0.930 . S
H1519 C1511 0.929 . S
H1520 C1528 0.929 . S
H1521 C1530 0.930 . S
H1522 C1532 0.930 . S
H1523 C1535 0.929 . S
H1524 C1538 0.930 . S
H1525 C1540 0.960 . S
H1526 C1540 0.960 . S
H1527 C1540 0.960 . S
C1528 H1520 0.929 . S
C1528 C1529 1.377 . S
C1528 C1530 1.384 . S
C1529 C1528 1.377 . S
C1529 C1535 1.390 . S
C1530 H1521 0.930 . S
C1530 C1528 1.384 . S
C1530 C1531 1.372 . S
C1531 C1530 1.372 . S
C1531 C1532 1.400 . S
C1531 C1536 1.490 . S
C1532 H1522 0.930 . S
C1532 C1531 1.400 . S
C1532 C1535 1.386 . S
H1533 C1549 0.930 . S
H1534 C1550 0.931 . S
C1535 H1523 0.929 . S
C1535 C1529 1.390 . S
C1535 C1532 1.386 . S
C1536 C1531 1.490 . S
C1536 C1538 1.395 . S
C1536 C1539 1.403 . S
H1537 C1543 0.930 . S
C1538 H1524 0.930 . S
C1538 C1536 1.395 . S
C1538 C1541 1.403 . S
C1539 C1536 1.403 . S
C1539 C1540 1.524 . S
C1539 C1543 1.400 . S
C1540 H1525 0.960 . S
C1540 H1526 0.960 . S
C1540 H1527 0.960 . S
C1540 C1539 1.524 . S
C1541 C1538 1.403 . S
C1541 C1542 1.392 . S
C1541 C1545 1.495 . S
C1542 C1541 1.392 . S
C1542 C1543 1.385 . S
C1542 C1544 1.478 . S
C1543 H1537 0.930 . S
C1543 C1539 1.400 . S
C1543 C1542 1.385 . S
C1544 C1542 1.478 . S
C1544 C1546 1.381 . S
C1544 C1550 1.383 . S
C1545 C1541 1.495 . S
C1545 H1551 0.959 . S
C1545 H1552 0.961 . S
C1545 H1553 0.960 . S
C1546 C1544 1.381 . S
C1546 C1547 1.394 . S
C1546 H1554 0.930 . S
C1547 C1546 1.394 . S
C1547 C1548 1.383 . S
C1547 H1555 0.929 . S
C1548 C1547 1.383 . S
C1548 C1549 1.377 . S
C1549 H1533 0.930 . S
C1549 C1548 1.377 . S
C1549 C1550 1.379 . S
C1550 H1534 0.931 . S
C1550 C1544 1.383 . S
C1550 C1549 1.379 . S
H1551 C1545 0.959 . S
H1552 C1545 0.961 . S
H1553 C1545 0.960 . S
H1554 C1546 0.930 . S
H1555 C1547 0.929 . S
H1556 C1564 0.929 . S
H1557 C1566 0.930 . S
H1558 C1568 0.930 . S
H1559 C1571 0.929 . S
H1560 C1574 0.930 . S
H1561 C1576 0.960 . S
H1562 C1576 0.960 . S
H1563 C1576 0.960 . S
C1564 H1556 0.929 . S
C1564 C1565 1.377 . S
C1564 C1566 1.384 . S
C1565 C1564 1.377 . S
C1565 C1571 1.390 . S
C1566 H1557 0.930 . S
C1566 C1564 1.384 . S
C1566 C1567 1.372 . S
C1567 C1566 1.372 . S
C1567 C1568 1.400 . S
C1567 C1572 1.490 . S
C1568 H1558 0.930 . S
C1568 C1567 1.400 . S
C1568 C1571 1.386 . S
H1569 C1585 0.930 . S
H1570 C1586 0.931 . S
C1571 H1559 0.929 . S
C1571 C1565 1.390 . S
C1571 C1568 1.386 . S
C1572 C1567 1.490 . S
C1572 C1574 1.395 . S
C1572 C1575 1.403 . S
H1573 C1579 0.930 . S
C1574 H1560 0.930 . S
C1574 C1572 1.395 . S
C1574 C1577 1.403 . S
C1575 C1572 1.403 . S
C1575 C1576 1.524 . S
C1575 C1579 1.400 . S
C1576 H1561 0.960 . S
C1576 H1562 0.960 . S
C1576 H1563 0.960 . S
C1576 C1575 1.524 . S
C1577 C1574 1.403 . S
C1577 C1578 1.392 . S
C1577 C1581 1.495 . S
C1578 C1577 1.392 . S
C1578 C1579 1.385 . S
C1578 C1580 1.478 . S
C1579 H1573 0.930 . S
C1579 C1575 1.400 . S
C1579 C1578 1.385 . S
C1580 C1578 1.478 . S
C1580 C1582 1.381 . S
C1580 C1586 1.383 . S
C1581 C1577 1.495 . S
C1581 H1587 0.959 . S
C1581 H1588 0.961 . S
C1581 H1589 0.960 . S
C1582 C1580 1.381 . S
C1582 C1583 1.394 . S
C1582 H1590 0.930 . S
C1583 C1582 1.394 . S
C1583 C1584 1.383 . S
C1583 H1591 0.929 . S
C1584 C1583 1.383 . S
C1584 C1585 1.377 . S
C1585 H1569 0.930 . S
C1585 C1584 1.377 . S
C1585 C1586 1.379 . S
C1586 H1570 0.931 . S
C1586 C1580 1.383 . S
C1586 C1585 1.379 . S
H1587 C1581 0.959 . S
H1588 C1581 0.961 . S
H1589 C1581 0.960 . S
H1590 C1582 0.930 . S
H1591 C1583 0.929 . S
H1592 C1600 0.929 . S
H1593 C1602 0.930 . S
H1594 C1604 0.930 . S
H1595 C1607 0.929 . S
H1596 C1610 0.930 . S
H1597 C1612 0.960 . S
H1598 C1612 0.960 . S
H1599 C1612 0.960 . S
C1600 H1592 0.929 . S
C1600 C1601 1.377 . S
C1600 C1602 1.384 . S
C1601 C1600 1.377 . S
C1601 C1607 1.390 . S
C1602 H1593 0.930 . S
C1602 C1600 1.384 . S
C1602 C1603 1.372 . S
C1603 C1602 1.372 . S
C1603 C1604 1.400 . S
C1603 C1608 1.490 . S
C1604 H1594 0.930 . S
C1604 C1603 1.400 . S
C1604 C1607 1.386 . S
H1605 C1621 0.930 . S
H1606 C1622 0.931 . S
C1607 H1595 0.929 . S
C1607 C1601 1.390 . S
C1607 C1604 1.386 . S
C1608 C1603 1.490 . S
C1608 C1610 1.395 . S
C1608 C1611 1.403 . S
H1609 C1615 0.930 . S
C1610 H1596 0.930 . S
C1610 C1608 1.395 . S
C1610 C1613 1.403 . S
C1611 C1608 1.403 . S
C1611 C1612 1.524 . S
C1611 C1615 1.400 . S
C1612 H1597 0.960 . S
C1612 H1598 0.960 . S
C1612 H1599 0.960 . S
C1612 C1611 1.524 . S
C1613 C1610 1.403 . S
C1613 C1614 1.392 . S
C1613 C1617 1.495 . S
C1614 C1613 1.392 . S
C1614 C1615 1.385 . S
C1614 C1616 1.478 . S
C1615 H1609 0.930 . S
C1615 C1611 1.400 . S
C1615 C1614 1.385 . S
C1616 C1614 1.478 . S
C1616 C1618 1.381 . S
C1616 C1622 1.383 . S
C1617 C1613 1.495 . S
C1617 H1623 0.959 . S
C1617 H1624 0.961 . S
C1617 H1625 0.960 . S
C1618 C1616 1.381 . S
C1618 C1619 1.394 . S
C1618 H1626 0.930 . S
C1619 C1618 1.394 . S
C1619 C1620 1.383 . S
C1619 H1627 0.929 . S
C1620 C1619 1.383 . S
C1620 C1621 1.377 . S
C1621 H1605 0.930 . S
C1621 C1620 1.377 . S
C1621 C1622 1.379 . S
C1622 H1606 0.931 . S
C1622 C1616 1.383 . S
C1622 C1621 1.379 . S
H1623 C1617 0.959 . S
H1624 C1617 0.961 . S
H1625 C1617 0.960 . S
H1626 C1618 0.930 . S
H1627 C1619 0.929 . S
H1628 C1636 0.929 . S
H1629 C1638 0.930 . S
H1630 C1640 0.930 . S
H1631 C1643 0.929 . S
H1632 C1646 0.930 . S
H1633 C1648 0.960 . S
H1634 C1648 0.960 . S
H1635 C1648 0.960 . S
C1636 H1628 0.929 . S
C1636 C1637 1.377 . S
C1636 C1638 1.384 . S
C1637 C1636 1.377 . S
C1637 C1643 1.390 . S
C1638 H1629 0.930 . S
C1638 C1636 1.384 . S
C1638 C1639 1.372 . S
C1639 C1638 1.372 . S
C1639 C1640 1.400 . S
C1639 C1644 1.490 1_556 S
C1640 H1630 0.930 . S
C1640 C1639 1.400 . S
C1640 C1643 1.386 . S
H1641 C1657 0.930 . S
H1642 C1658 0.931 . S
C1643 H1631 0.929 . S
C1643 C1637 1.390 . S
C1643 C1640 1.386 . S
C1644 C1639 1.490 1_554 S
C1644 C1646 1.395 . S
C1644 C1647 1.403 1_554 S
H1645 C1651 0.930 . S
C1646 H1632 0.930 . S
C1646 C1644 1.395 . S
C1646 C1649 1.403 . S
C1647 C1644 1.403 1_556 S
C1647 C1648 1.524 . S
C1647 C1651 1.400 1_556 S
C1648 H1633 0.960 . S
C1648 H1634 0.960 . S
C1648 H1635 0.960 . S
C1648 C1647 1.524 . S
C1649 C1646 1.403 . S
C1649 C1650 1.392 . S
C1649 C1653 1.495 . S
C1650 C1649 1.392 . S
C1650 C1651 1.385 . S
C1650 C1652 1.478 . S
C1651 H1645 0.930 . S
C1651 C1647 1.400 1_554 S
C1651 C1650 1.385 . S
C1652 C1650 1.478 . S
C1652 C1654 1.381 . S
C1652 C1658 1.383 . S
C1653 C1649 1.495 . S
C1653 H1659 0.959 . S
C1653 H1660 0.961 . S
C1653 H1661 0.960 . S
C1654 C1652 1.381 . S
C1654 C1655 1.394 . S
C1654 H1662 0.930 . S
C1655 C1654 1.394 . S
C1655 C1656 1.383 . S
C1655 H1663 0.929 . S
C1656 C1655 1.383 . S
C1656 C1657 1.377 . S
C1657 H1641 0.930 . S
C1657 C1656 1.377 . S
C1657 C1658 1.379 . S
C1658 H1642 0.931 . S
C1658 C1652 1.383 . S
C1658 C1657 1.379 . S
H1659 C1653 0.959 . S
H1660 C1653 0.961 . S
H1661 C1653 0.960 . S
H1662 C1654 0.930 . S
H1663 C1655 0.929 . S
H1664 C1672 0.929 . S
H1665 C1674 0.930 . S
H1666 C1676 0.930 . S
H1667 C1679 0.929 . S
H1668 C1682 0.935 . S
H1669 C1684 0.960 . S
H1670 C1684 0.960 . S
H1671 C1684 0.960 . S
C1672 H1664 0.929 . S
C1672 C1673 1.377 . S
C1672 C1674 1.384 . S
C1673 C1672 1.377 . S
C1673 C1679 1.390 . S
C1674 H1665 0.930 . S
C1674 C1672 1.384 . S
C1674 C1675 1.372 . S
C1675 C1674 1.372 . S
C1675 C1676 1.400 . S
C1675 C1680 1.490 . S
C1676 H1666 0.930 . S
C1676 C1675 1.400 . S
C1676 C1679 1.386 . S
H1677 C1693 0.930 . S
H1678 C1694 0.931 . S
C1679 H1667 0.929 . S
C1679 C1673 1.390 . S
C1679 C1676 1.386 . S
C1680 C1675 1.490 . S
C1680 C1682 1.346 1_655 S
C1680 C1683 1.403 . S
H1681 C1687 0.930 . S
C1682 H1668 0.935 . S
C1682 C1680 1.346 1_455 S
C1682 C1685 1.449 . S
C1683 C1680 1.403 . S
C1683 C1684 1.524 . S
C1683 C1687 1.400 . S
C1684 H1669 0.960 . S
C1684 H1670 0.960 . S
C1684 H1671 0.960 . S
C1684 C1683 1.524 . S
C1685 C1682 1.449 . S
C1685 C1686 1.392 . S
C1685 C1689 1.495 . S
C1686 C1685 1.392 . S
C1686 C1687 1.385 1_455 S
C1686 C1688 1.478 . S
C1687 H1681 0.930 . S
C1687 C1683 1.400 . S
C1687 C1686 1.385 1_655 S
C1688 C1686 1.478 . S
C1688 C1690 1.381 . S
C1688 C1694 1.383 . S
C1689 C1685 1.495 . S
C1689 H1695 0.959 . S
C1689 H1696 0.961 . S
C1689 H1697 0.960 . S
C1690 C1688 1.381 . S
C1690 C1691 1.394 . S
C1690 H1698 0.930 . S
C1691 C1690 1.394 . S
C1691 C1692 1.383 . S
C1691 H1699 0.929 . S
C1692 C1691 1.383 . S
C1692 C1693 1.377 . S
C1693 H1677 0.930 . S
C1693 C1692 1.377 . S
C1693 C1694 1.379 . S
C1694 H1678 0.931 . S
C1694 C1688 1.383 . S
C1694 C1693 1.379 . S
H1695 C1689 0.959 . S
H1696 C1689 0.961 . S
H1697 C1689 0.960 . S
H1698 C1690 0.930 . S
H1699 C1691 0.929 . S
H1700 C1708 0.929 . S
H1701 C1710 0.930 . S
H1702 C1712 0.930 . S
H1703 C1715 0.929 . S
H1704 C1718 0.930 . S
H1705 C1720 0.960 . S
H1706 C1720 0.960 . S
H1707 C1720 0.960 . S
C1708 H1700 0.929 . S
C1708 C1709 1.377 . S
C1708 C1710 1.384 . S
C1709 C1708 1.377 . S
C1709 C1715 1.390 . S
C1710 H1701 0.930 . S
C1710 C1708 1.384 . S
C1710 C1711 1.372 . S
C1711 C1710 1.372 . S
C1711 C1712 1.400 . S
C1711 C1716 1.490 . S
C1712 H1702 0.930 . S
C1712 C1711 1.400 . S
C1712 C1715 1.386 . S
H1713 C1729 0.930 . S
H1714 C1730 0.931 . S
C1715 H1703 0.929 . S
C1715 C1709 1.390 . S
C1715 C1712 1.386 . S
C1716 C1711 1.490 . S
C1716 C1718 1.395 . S
C1716 C1719 1.403 . S
H1717 C1723 0.930 1_556 S
C1718 H1704 0.930 . S
C1718 C1716 1.395 . S
C1718 C1721 1.403 . S
C1719 C1716 1.403 . S
C1719 C1720 1.524 . S
C1719 C1723 1.400 . S
C1720 H1705 0.960 . S
C1720 H1706 0.960 . S
C1720 H1707 0.960 . S
C1720 C1719 1.524 . S
C1721 C1718 1.403 . S
C1721 C1722 1.392 . S
C1721 C1725 1.495 . S
C1722 C1721 1.392 . S
C1722 C1723 1.385 . S
C1722 C1724 1.478 1_554 S
C1723 H1717 0.930 1_554 S
C1723 C1719 1.400 . S
C1723 C1722 1.385 . S
C1724 C1722 1.478 1_556 S
C1724 C1726 1.381 . S
C1724 C1730 1.383 . S
C1725 C1721 1.495 . S
C1725 H1731 0.959 . S
C1725 H1732 0.961 . S
C1725 H1733 0.960 . S
C1726 C1724 1.381 . S
C1726 C1727 1.394 . S
C1726 H1734 0.930 1_556 S
C1727 C1726 1.394 . S
C1727 C1728 1.383 . S
C1727 H1735 0.929 . S
C1728 C1727 1.383 . S
C1728 C1729 1.377 . S
C1729 H1713 0.930 . S
C1729 C1728 1.377 . S
C1729 C1730 1.379 . S
C1730 H1714 0.931 . S
C1730 C1724 1.383 . S
C1730 C1729 1.379 . S
H1731 C1725 0.959 . S
H1732 C1725 0.961 . S
H1733 C1725 0.960 . S
H1734 C1726 0.930 1_554 S
H1735 C1727 0.929 . S
H1736 C1744 0.929 . S
H1737 C1746 0.930 . S
H1738 C1748 0.930 . S
H1739 C1751 0.929 . S
H1740 C1754 0.930 . S
H1741 C1756 0.960 . S
H1742 C1756 0.960 . S
H1743 C1756 0.960 . S
C1744 H1736 0.929 . S
C1744 C1745 1.377 . S
C1744 C1746 1.384 . S
C1745 C1744 1.377 . S
C1745 C1751 1.390 . S
C1746 H1737 0.930 . S
C1746 C1744 1.384 . S
C1746 C1747 1.372 . S
C1747 C1746 1.372 . S
C1747 C1748 1.400 . S
C1747 C1752 1.490 . S
C1748 H1738 0.930 . S
C1748 C1747 1.400 . S
C1748 C1751 1.386 . S
H1749 C1765 0.930 . S
H1750 C1766 0.931 . S
C1751 H1739 0.929 . S
C1751 C1745 1.390 . S
C1751 C1748 1.386 . S
C1752 C1747 1.490 . S
C1752 C1754 1.395 . S
C1752 C1755 1.403 . S
H1753 C1759 0.930 . S
C1754 H1740 0.930 . S
C1754 C1752 1.395 . S
C1754 C1757 1.403 . S
C1755 C1752 1.403 . S
C1755 C1756 1.524 . S
C1755 C1759 1.400 . S
C1756 H1741 0.960 . S
C1756 H1742 0.960 . S
C1756 H1743 0.960 . S
C1756 C1755 1.524 . S
C1757 C1754 1.403 . S
C1757 C1758 1.392 . S
C1757 C1761 1.495 . S
C1758 C1757 1.392 . S
C1758 C1759 1.385 . S
C1758 C1760 1.478 . S
C1759 H1753 0.930 . S
C1759 C1755 1.400 . S
C1759 C1758 1.385 . S
C1760 C1758 1.478 . S
C1760 C1762 1.381 . S
C1760 C1766 1.383 . S
C1761 C1757 1.495 . S
C1761 H1767 0.959 . S
C1761 H1768 0.961 . S
C1761 H1769 0.960 . S
C1762 C1760 1.381 . S
C1762 C1763 1.394 . S
C1762 H1770 0.930 . S
C1763 C1762 1.394 . S
C1763 C1764 1.383 . S
C1763 H1771 0.929 . S
C1764 C1763 1.383 . S
C1764 C1765 1.377 . S
C1765 H1749 0.930 . S
C1765 C1764 1.377 . S
C1765 C1766 1.379 . S
C1766 H1750 0.931 . S
C1766 C1760 1.383 . S
C1766 C1765 1.379 . S
H1767 C1761 0.959 . S
H1768 C1761 0.961 . S
H1769 C1761 0.960 . S
H1770 C1762 0.930 . S
H1771 C1763 0.929 . S
H1772 C1780 0.929 . S
H1773 C1782 0.930 . S
H1774 C1784 0.930 . S
H1775 C1787 0.929 . S
H1776 C1790 0.930 . S
H1777 C1792 0.960 . S
H1778 C1792 0.960 . S
H1779 C1792 0.960 . S
C1780 H1772 0.929 . S
C1780 C1781 1.377 . S
C1780 C1782 1.384 . S
C1781 C1780 1.377 . S
C1781 C1787 1.390 . S
C1782 H1773 0.930 . S
C1782 C1780 1.384 . S
C1782 C1783 1.372 . S
C1783 C1782 1.372 . S
C1783 C1784 1.400 . S
C1783 C1788 1.490 . S
C1784 H1774 0.930 . S
C1784 C1783 1.400 . S
C1784 C1787 1.386 . S
H1785 C1801 0.930 . S
H1786 C1802 0.931 . S
C1787 H1775 0.929 . S
C1787 C1781 1.390 . S
C1787 C1784 1.386 . S
C1788 C1783 1.490 . S
C1788 C1790 1.395 . S
C1788 C1791 1.403 . S
H1789 C1795 0.930 . S
C1790 H1776 0.930 . S
C1790 C1788 1.395 . S
C1790 C1793 1.403 . S
C1791 C1788 1.403 . S
C1791 C1792 1.524 . S
C1791 C1795 1.400 . S
C1792 H1777 0.960 . S
C1792 H1778 0.960 . S
C1792 H1779 0.960 . S
C1792 C1791 1.524 . S
C1793 C1790 1.403 . S
C1793 C1794 1.392 . S
C1793 C1797 1.495 . S
C1794 C1793 1.392 . S
C1794 C1795 1.385 . S
C1794 C1796 1.478 . S
C1795 H1789 0.930 . S
C1795 C1791 1.400 . S
C1795 C1794 1.385 . S
C1796 C1794 1.478 . S
C1796 C1798 1.381 . S
C1796 C1802 1.383 . S
C1797 C1793 1.495 . S
C1797 H1803 0.959 . S
C1797 H1804 0.961 . S
C1797 H1805 0.960 . S
C1798 C1796 1.381 . S
C1798 C1799 1.394 . S
C1798 H1806 0.930 . S
C1799 C1798 1.394 . S
C1799 C1800 1.383 . S
C1799 H1807 0.929 . S
C1800 C1799 1.383 . S
C1800 C1801 1.377 . S
C1801 H1785 0.930 . S
C1801 C1800 1.377 . S
C1801 C1802 1.379 . S
C1802 H1786 0.931 . S
C1802 C1796 1.383 . S
C1802 C1801 1.379 . S
H1803 C1797 0.959 . S
H1804 C1797 0.961 . S
H1805 C1797 0.960 . S
H1806 C1798 0.930 . S
H1807 C1799 0.929 . S
H1808 C1816 0.929 . S
H1809 C1818 0.930 . S
H1810 C1820 0.930 . S
H1811 C1823 0.929 . S
H1812 C1826 0.930 . S
H1813 C1828 0.960 . S
H1814 C1828 1.015 . S
H1815 C1828 0.960 . S
C1816 H1808 0.929 . S
C1816 C1817 1.377 . S
C1816 C1818 1.384 . S
C1817 C1816 1.377 . S
C1817 C1823 1.390 . S
C1818 H1809 0.930 . S
C1818 C1816 1.384 . S
C1818 C1819 1.372 . S
C1819 C1818 1.372 . S
C1819 C1820 1.400 . S
C1819 C1824 1.490 . S
C1820 H1810 0.930 . S
C1820 C1819 1.400 . S
C1820 C1823 1.386 . S
H1821 C1837 0.930 . S
H1822 C1838 0.931 . S
C1823 H1811 0.929 . S
C1823 C1817 1.390 . S
C1823 C1820 1.386 . S
C1824 C1819 1.490 . S
C1824 C1826 1.395 . S
C1824 C1827 1.403 1_455 S
H1825 C1831 0.930 . S
C1826 H1812 0.930 . S
C1826 C1824 1.395 . S
C1826 C1829 1.403 . S
C1827 C1824 1.403 1_655 S
C1827 C1828 1.524 . S
C1827 C1831 1.400 . S
C1828 H1813 0.960 . S
C1828 H1814 1.015 . S
C1828 H1815 0.960 . S
C1828 C1827 1.524 . S
C1829 C1826 1.403 . S
C1829 C1830 1.392 1_455 S
C1829 C1833 1.495 . S
C1830 C1829 1.392 1_655 S
C1830 C1831 1.385 . S
C1830 C1832 1.478 . S
C1831 H1825 0.930 . S
C1831 C1827 1.400 . S
C1831 C1830 1.385 . S
C1832 C1830 1.478 . S
C1832 C1834 1.381 . S
C1832 C1838 1.383 . S
C1833 C1829 1.495 . S
C1833 H1839 0.959 . S
C1833 H1840 0.970 . S
C1833 H1841 0.960 . S
C1834 C1832 1.381 . S
C1834 C1835 1.394 . S
C1834 H1842 0.930 . S
C1835 C1834 1.394 . S
C1835 C1836 1.383 . S
C1835 H1843 0.929 . S
C1836 C1835 1.383 . S
C1836 C1837 1.377 . S
C1837 H1821 0.930 . S
C1837 C1836 1.377 . S
C1837 C1838 1.379 . S
C1838 H1822 0.931 . S
C1838 C1832 1.383 . S
C1838 C1837 1.379 . S
H1839 C1833 0.959 . S
H1840 C1833 0.970 . S
H1841 C1833 0.960 . S
H1842 C1834 0.930 . S
H1843 C1835 0.929 . S
H1844 C1852 0.929 . S
H1845 C1854 0.930 . S
H1846 C1856 0.930 . S
H1847 C1859 0.929 . S
H1848 C1862 0.930 . S
H1849 C1864 0.960 . S
H1850 C1864 0.957 1_554 S
H1851 C1864 0.960 1_554 S
C1852 H1844 0.929 . S
C1852 C1853 1.377 . S
C1852 C1854 1.384 . S
C1853 C1852 1.377 . S
C1853 C1859 1.390 . S
C1854 H1845 0.930 . S
C1854 C1852 1.384 . S
C1854 C1855 1.372 . S
C1855 C1854 1.372 . S
C1855 C1856 1.400 . S
C1855 C1860 1.490 . S
C1856 H1846 0.930 . S
C1856 C1855 1.400 . S
C1856 C1859 1.386 . S
H1857 C1873 0.930 . S
H1858 C1874 0.931 . S
C1859 H1847 0.929 . S
C1859 C1853 1.390 . S
C1859 C1856 1.386 . S
C1860 C1855 1.490 . S
C1860 C1862 1.395 . S
C1860 C1863 1.403 . S
H1861 C1867 0.930 . S
C1862 H1848 0.930 . S
C1862 C1860 1.395 . S
C1862 C1865 1.403 . S
C1863 C1860 1.403 . S
C1863 C1864 1.524 1_554 S
C1863 C1867 1.400 1_554 S
C1864 H1849 0.960 . S
C1864 H1850 0.957 1_556 S
C1864 H1851 0.960 1_556 S
C1864 C1863 1.524 1_556 S
C1865 C1862 1.403 . S
C1865 C1866 1.392 . S
C1865 C1869 1.495 . S
C1866 C1865 1.392 . S
C1866 C1867 1.385 1_554 S
C1866 C1868 1.478 1_554 S
C1867 H1861 0.930 . S
C1867 C1863 1.400 1_556 S
C1867 C1866 1.385 1_556 S
C1868 C1866 1.478 1_556 S
C1868 C1870 1.381 . S
C1868 C1874 1.383 . S
C1869 C1865 1.495 . S
C1869 H1875 0.959 . S
C1869 H1876 0.961 . S
C1869 H1877 0.960 . S
C1870 C1868 1.381 . S
C1870 C1871 1.394 . S
C1870 H1878 0.930 . S
C1871 C1870 1.394 . S
C1871 C1872 1.383 . S
C1871 H1879 0.929 . S
C1872 C1871 1.383 . S
C1872 C1873 1.377 . S
C1873 H1857 0.930 . S
C1873 C1872 1.377 . S
C1873 C1874 1.379 . S
C1874 H1858 0.931 . S
C1874 C1868 1.383 . S
C1874 C1873 1.379 . S
H1875 C1869 0.959 . S
H1876 C1869 0.961 . S
H1877 C1869 0.960 . S
H1878 C1870 0.930 . S
H1879 C1871 0.929 . S
H1880 C1888 0.929 . S
H1881 C1890 0.930 . S
H1882 C1892 0.930 . S
H1883 C1895 0.929 . S
H1884 C1898 0.930 . S
H1885 C1900 0.960 . S
H1886 C1900 0.960 . S
H1887 C1900 0.960 . S
C1888 H1880 0.929 . S
C1888 C1889 1.377 . S
C1888 C1890 1.384 . S
C1889 C1888 1.377 . S
C1889 C1895 1.390 . S
C1890 H1881 0.930 . S
C1890 C1888 1.384 . S
C1890 C1891 1.372 . S
C1891 C1890 1.372 . S
C1891 C1892 1.400 . S
C1891 C1896 1.490 . S
C1892 H1882 0.930 . S
C1892 C1891 1.400 . S
C1892 C1895 1.386 . S
H1893 C1909 0.930 . S
H1894 C1910 0.931 . S
C1895 H1883 0.929 . S
C1895 C1889 1.390 . S
C1895 C1892 1.386 . S
C1896 C1891 1.490 . S
C1896 C1898 1.395 . S
C1896 C1899 1.403 . S
H1897 C1903 0.930 . S
C1898 H1884 0.930 . S
C1898 C1896 1.395 . S
C1898 C1901 1.403 . S
C1899 C1896 1.403 . S
C1899 C1900 1.524 . S
C1899 C1903 1.400 . S
C1900 H1885 0.960 . S
C1900 H1886 0.960 . S
C1900 H1887 0.960 . S
C1900 C1899 1.524 . S
C1901 C1898 1.403 . S
C1901 C1902 1.392 . S
C1901 C1905 1.495 . S
C1902 C1901 1.392 . S
C1902 C1903 1.385 . S
C1902 C1904 1.478 . S
C1903 H1897 0.930 . S
C1903 C1899 1.400 . S
C1903 C1902 1.385 . S
C1904 C1902 1.478 . S
C1904 C1906 1.381 . S
C1904 C1910 1.383 . S
C1905 C1901 1.495 . S
C1905 H1911 0.959 . S
C1905 H1912 0.961 . S
C1905 H1913 0.960 . S
C1906 C1904 1.381 . S
C1906 C1907 1.394 . S
C1906 H1914 0.930 . S
C1907 C1906 1.394 . S
C1907 C1908 1.383 . S
C1907 H1915 0.929 . S
C1908 C1907 1.383 . S
C1908 C1909 1.377 . S
C1909 H1893 0.930 . S
C1909 C1908 1.377 . S
C1909 C1910 1.379 . S
C1910 H1894 0.931 . S
C1910 C1904 1.383 . S
C1910 C1909 1.379 . S
H1911 C1905 0.959 . S
H1912 C1905 0.961 . S
H1913 C1905 0.960 . S
H1914 C1906 0.930 . S
H1915 C1907 0.929 . S
H1916 C1924 0.929 . S
H1917 C1926 0.930 . S
H1918 C1928 0.930 . S
H1919 C1931 0.929 . S
H1920 C1934 0.930 . S
H1921 C1936 0.960 . S
H1922 C1936 0.960 . S
H1923 C1936 0.960 . S
C1924 H1916 0.929 . S
C1924 C1925 1.377 . S
C1924 C1926 1.384 . S
C1925 C1924 1.377 . S
C1925 C1931 1.390 . S
C1926 H1917 0.930 . S
C1926 C1924 1.384 . S
C1926 C1927 1.372 . S
C1927 C1926 1.372 . S
C1927 C1928 1.400 . S
C1927 C1932 1.490 . S
C1928 H1918 0.930 . S
C1928 C1927 1.400 . S
C1928 C1931 1.386 . S
H1929 C1945 0.930 . S
H1930 C1946 0.931 . S
C1931 H1919 0.929 . S
C1931 C1925 1.390 . S
C1931 C1928 1.386 . S
C1932 C1927 1.490 . S
C1932 C1934 1.395 . S
C1932 C1935 1.403 . S
H1933 C1939 0.930 . S
C1934 H1920 0.930 . S
C1934 C1932 1.395 . S
C1934 C1937 1.403 . S
C1935 C1932 1.403 . S
C1935 C1936 1.524 . S
C1935 C1939 1.400 . S
C1936 H1921 0.960 . S
C1936 H1922 0.960 . S
C1936 H1923 0.960 . S
C1936 C1935 1.524 . S
C1937 C1934 1.403 . S
C1937 C1938 1.392 . S
C1937 C1941 1.495 . S
C1938 C1937 1.392 . S
C1938 C1939 1.385 . S
C1938 C1940 1.478 . S
C1939 H1933 0.930 . S
C1939 C1935 1.400 . S
C1939 C1938 1.385 . S
C1940 C1938 1.478 . S
C1940 C1942 1.381 . S
C1940 C1946 1.383 . S
C1941 C1937 1.495 . S
C1941 H1947 0.959 . S
C1941 H1948 0.961 . S
C1941 H1949 0.960 . S
C1942 C1940 1.381 . S
C1942 C1943 1.394 . S
C1942 H1950 0.930 . S
C1943 C1942 1.394 . S
C1943 C1944 1.383 . S
C1943 H1951 0.929 . S
C1944 C1943 1.383 . S
C1944 C1945 1.377 . S
C1945 H1929 0.930 . S
C1945 C1944 1.377 . S
C1945 C1946 1.379 . S
C1946 H1930 0.931 . S
C1946 C1940 1.383 . S
C1946 C1945 1.379 . S
H1947 C1941 0.959 . S
H1948 C1941 0.961 . S
H1949 C1941 0.960 . S
H1950 C1942 0.930 . S
H1951 C1943 0.929 . S
H1952 C1960 0.929 . S
H1953 C1962 0.930 . S
H1954 C1964 0.930 . S
H1955 C1967 0.929 . S
H1956 C1970 0.930 . S
H1957 C1972 0.960 . S
H1958 C1972 0.960 . S
H1959 C1972 0.960 . S
C1960 H1952 0.929 . S
C1960 C1961 1.377 . S
C1960 C1962 1.384 . S
C1961 C1960 1.377 . S
C1961 C1967 1.390 . S
C1962 H1953 0.930 . S
C1962 C1960 1.384 . S
C1962 C1963 1.372 . S
C1963 C1962 1.372 . S
C1963 C1964 1.400 . S
C1963 C1968 1.490 . S
C1964 H1954 0.930 . S
C1964 C1963 1.400 . S
C1964 C1967 1.386 . S
H1965 C1981 0.930 . S
H1966 C1982 0.931 . S
C1967 H1955 0.929 . S
C1967 C1961 1.390 . S
C1967 C1964 1.386 . S
C1968 C1963 1.490 . S
C1968 C1970 1.395 1_655 S
C1968 C1971 1.403 . S
H1969 C1975 0.928 . S
C1970 H1956 0.930 . S
C1970 C1968 1.395 1_455 S
C1970 C1973 1.403 . S
C1971 C1968 1.403 . S
C1971 C1972 1.524 . S
C1971 C1975 1.400 1_655 S
C1972 H1957 0.960 . S
C1972 H1958 0.960 . S
C1972 H1959 0.960 . S
C1972 C1971 1.524 . S
C1973 C1970 1.403 . S
C1973 C1974 1.392 . S
C1973 C1977 1.495 . S
C1974 C1973 1.392 . S
C1974 C1975 1.385 . S
C1974 C1976 1.478 . S
C1975 H1969 0.928 . S
C1975 C1971 1.400 1_455 S
C1975 C1974 1.385 . S
C1976 C1974 1.478 . S
C1976 C1978 1.381 . S
C1976 C1982 1.383 . S
C1977 C1973 1.495 . S
C1977 H1983 0.959 . S
C1977 H1984 0.961 . S
C1977 H1985 0.960 . S
C1978 C1976 1.381 . S
C1978 C1979 1.394 . S
C1978 H1986 0.930 . S
C1979 C1978 1.394 . S
C1979 C1980 1.383 . S
C1979 H1987 0.929 . S
C1980 C1979 1.383 . S
C1980 C1981 1.377 . S
C1981 H1965 0.930 . S
C1981 C1980 1.377 . S
C1981 C1982 1.379 . S
C1982 H1966 0.931 . S
C1982 C1976 1.383 . S
C1982 C1981 1.379 . S
H1983 C1977 0.959 . S
H1984 C1977 0.961 . S
H1985 C1977 0.960 . S
H1986 C1978 0.930 . S
H1987 C1979 0.929 . S
H1988 C1996 0.929 . S
H1989 C1998 0.930 . S
H1990 C2000 0.930 . S
H1991 C2003 0.929 . S
H1992 C2006 0.930 . S
H1993 C2008 0.973 . S
H1994 C2008 0.960 . S
H1995 C2008 0.960 . S
C1996 H1988 0.929 . S
C1996 C1997 1.377 . S
C1996 C1998 1.384 . S
C1997 C1996 1.377 . S
C1997 C2003 1.390 . S
C1998 H1989 0.930 . S
C1998 C1996 1.384 . S
C1998 C1999 1.372 . S
C1999 C1998 1.372 . S
C1999 C2000 1.400 . S
C1999 C2004 1.490 . S
C2000 H1990 0.930 . S
C2000 C1999 1.400 . S
C2000 C2003 1.386 . S
H2001 C2017 0.930 . S
H2002 C2018 0.931 . S
C2003 H1991 0.929 . S
C2003 C1997 1.390 . S
C2003 C2000 1.386 . S
C2004 C1999 1.490 . S
C2004 C2006 1.395 1_556 S
C2004 C2007 1.403 1_556 S
H2005 C2011 0.930 . S
C2006 H1992 0.930 . S
C2006 C2004 1.395 1_554 S
C2006 C2009 1.403 . S
C2007 C2004 1.403 1_554 S
C2007 C2008 1.524 1_554 S
C2007 C2011 1.400 . S
C2008 H1993 0.973 . S
C2008 H1994 0.960 . S
C2008 H1995 0.960 . S
C2008 C2007 1.524 1_556 S
C2009 C2006 1.403 . S
C2009 C2010 1.392 . S
C2009 C2013 1.495 . S
C2010 C2009 1.392 . S
C2010 C2011 1.385 . S
C2010 C2012 1.478 . S
C2011 H2005 0.930 . S
C2011 C2007 1.400 . S
C2011 C2010 1.385 . S
C2012 C2010 1.478 . S
C2012 C2014 1.381 . S
C2012 C2018 1.383 . S
C2013 C2009 1.495 . S
C2013 H2019 0.959 . S
C2013 H2020 0.961 . S
C2013 H2021 0.960 . S
C2014 C2012 1.381 . S
C2014 C2015 1.394 . S
C2014 H2022 0.930 . S
C2015 C2014 1.394 . S
C2015 C2016 1.383 . S
C2015 H2023 0.929 . S
C2016 C2015 1.383 . S
C2016 C2017 1.377 . S
C2017 H2001 0.930 . S
C2017 C2016 1.377 . S
C2017 C2018 1.379 . S
C2018 H2002 0.931 . S
C2018 C2012 1.383 . S
C2018 C2017 1.379 . S
H2019 C2013 0.959 . S
H2020 C2013 0.961 . S
H2021 C2013 0.960 . S
H2022 C2014 0.930 . S
H2023 C2015 0.929 . S
H2024 C2032 0.929 . S
H2025 C2034 0.930 . S
H2026 C2036 0.930 . S
H2027 C2039 0.929 . S
H2028 C2042 0.930 . S
H2029 C2044 0.960 . S
H2030 C2044 0.960 . S
H2031 C2044 0.960 . S
C2032 H2024 0.929 . S
C2032 C2033 1.377 . S
C2032 C2034 1.384 . S
C2033 C2032 1.377 . S
C2033 C2039 1.390 . S
C2034 H2025 0.930 . S
C2034 C2032 1.384 . S
C2034 C2035 1.372 . S
C2035 C2034 1.372 . S
C2035 C2036 1.400 . S
C2035 C2040 1.490 . S
C2036 H2026 0.930 . S
C2036 C2035 1.400 . S
C2036 C2039 1.386 . S
H2037 C2053 0.930 . S
H2038 C2054 0.931 . S
C2039 H2027 0.929 . S
C2039 C2033 1.390 . S
C2039 C2036 1.386 . S
C2040 C2035 1.490 . S
C2040 C2042 1.395 . S
C2040 C2043 1.403 . S
H2041 C2047 0.930 . S
C2042 H2028 0.930 . S
C2042 C2040 1.395 . S
C2042 C2045 1.403 . S
C2043 C2040 1.403 . S
C2043 C2044 1.524 . S
C2043 C2047 1.400 . S
C2044 H2029 0.960 . S
C2044 H2030 0.960 . S
C2044 H2031 0.960 . S
C2044 C2043 1.524 . S
C2045 C2042 1.403 . S
C2045 C2046 1.392 . S
C2045 C2049 1.495 . S
C2046 C2045 1.392 . S
C2046 C2047 1.385 . S
C2046 C2048 1.478 . S
C2047 H2041 0.930 . S
C2047 C2043 1.400 . S
C2047 C2046 1.385 . S
C2048 C2046 1.478 . S
C2048 C2050 1.381 . S
C2048 C2054 1.383 . S
C2049 C2045 1.495 . S
C2049 H2055 0.959 . S
C2049 H2056 0.961 . S
C2049 H2057 0.960 . S
C2050 C2048 1.381 . S
C2050 C2051 1.394 . S
C2050 H2058 0.930 . S
C2051 C2050 1.394 . S
C2051 C2052 1.383 . S
C2051 H2059 0.929 . S
C2052 C2051 1.383 . S
C2052 C2053 1.377 . S
C2053 H2037 0.930 . S
C2053 C2052 1.377 . S
C2053 C2054 1.379 . S
C2054 H2038 0.931 . S
C2054 C2048 1.383 . S
C2054 C2053 1.379 . S
H2055 C2049 0.959 . S
H2056 C2049 0.961 . S
H2057 C2049 0.960 . S
H2058 C2050 0.930 . S
H2059 C2051 0.929 . S
H2060 C2068 0.929 . S
H2061 C2070 0.930 . S
H2062 C2072 0.930 . S
H2063 C2075 0.929 . S
H2064 C2078 0.930 . S
H2065 C2080 0.960 . S
H2066 C2080 0.960 . S
H2067 C2080 0.960 . S
C2068 H2060 0.929 . S
C2068 C2069 1.377 . S
C2068 C2070 1.384 . S
C2069 C2068 1.377 . S
C2069 C2075 1.390 . S
C2070 H2061 0.930 . S
C2070 C2068 1.384 . S
C2070 C2071 1.372 . S
C2071 C2070 1.372 . S
C2071 C2072 1.400 . S
C2071 C2076 1.490 . S
C2072 H2062 0.930 . S
C2072 C2071 1.400 . S
C2072 C2075 1.386 . S
H2073 C2089 0.930 . S
H2074 C2090 0.931 . S
C2075 H2063 0.929 . S
C2075 C2069 1.390 . S
C2075 C2072 1.386 . S
C2076 C2071 1.490 . S
C2076 C2078 1.395 . S
C2076 C2079 1.403 . S
H2077 C2083 0.930 . S
C2078 H2064 0.930 . S
C2078 C2076 1.395 . S
C2078 C2081 1.403 . S
C2079 C2076 1.403 . S
C2079 C2080 1.524 . S
C2079 C2083 1.400 . S
C2080 H2065 0.960 . S
C2080 H2066 0.960 . S
C2080 H2067 0.960 . S
C2080 C2079 1.524 . S
C2081 C2078 1.403 . S
C2081 C2082 1.392 . S
C2081 C2085 1.495 . S
C2082 C2081 1.392 . S
C2082 C2083 1.385 . S
C2082 C2084 1.478 . S
C2083 H2077 0.930 . S
C2083 C2079 1.400 . S
C2083 C2082 1.385 . S
C2084 C2082 1.478 . S
C2084 C2086 1.381 . S
C2084 C2090 1.383 . S
C2085 C2081 1.495 . S
C2085 H2091 0.959 . S
C2085 H2092 0.961 . S
C2085 H2093 0.960 . S
C2086 C2084 1.381 . S
C2086 C2087 1.394 . S
C2086 H2094 0.930 . S
C2087 C2086 1.394 . S
C2087 C2088 1.383 . S
C2087 H2095 0.929 . S
C2088 C2087 1.383 . S
C2088 C2089 1.377 . S
C2089 H2073 0.930 . S
C2089 C2088 1.377 . S
C2089 C2090 1.379 . S
C2090 H2074 0.931 . S
C2090 C2084 1.383 . S
C2090 C2089 1.379 . S
H2091 C2085 0.959 . S
H2092 C2085 0.961 . S
H2093 C2085 0.960 . S
H2094 C2086 0.930 . S
H2095 C2087 0.929 . S
H2096 C2104 0.929 . S
H2097 C2106 0.930 . S
H2098 C2108 0.930 . S
H2099 C2111 0.929 . S
H2100 C2114 0.930 . S
H2101 C2116 0.960 . S
H2102 C2116 0.960 . S
H2103 C2116 0.960 . S
C2104 H2096 0.929 . S
C2104 C2105 1.377 . S
C2104 C2106 1.384 . S
C2105 C2104 1.377 . S
C2105 C2111 1.390 . S
C2106 H2097 0.930 . S
C2106 C2104 1.384 . S
C2106 C2107 1.372 . S
C2107 C2106 1.372 . S
C2107 C2108 1.400 . S
C2107 C2112 1.490 . S
C2108 H2098 0.930 . S
C2108 C2107 1.400 . S
C2108 C2111 1.386 . S
H2109 C2125 0.930 . S
H2110 C2126 0.931 . S
C2111 H2099 0.929 . S
C2111 C2105 1.390 . S
C2111 C2108 1.386 . S
C2112 C2107 1.490 . S
C2112 C2114 1.395 . S
C2112 C2115 1.403 . S
H2113 C2119 0.930 . S
C2114 H2100 0.930 . S
C2114 C2112 1.395 . S
C2114 C2117 1.403 1_455 S
C2115 C2112 1.403 . S
C2115 C2116 1.524 . S
C2115 C2119 1.400 1_455 S
C2116 H2101 0.960 . S
C2116 H2102 0.960 . S
C2116 H2103 0.960 . S
C2116 C2115 1.524 . S
C2117 C2114 1.403 1_655 S
C2117 C2118 1.392 . S
C2117 C2121 1.495 . S
C2118 C2117 1.392 . S
C2118 C2119 1.385 . S
C2118 C2120 1.478 . S
C2119 H2113 0.930 . S
C2119 C2115 1.400 1_655 S
C2119 C2118 1.385 . S
C2120 C2118 1.478 . S
C2120 C2122 1.381 . S
C2120 C2126 1.383 . S
C2121 C2117 1.495 . S
C2121 H2127 0.959 . S
C2121 H2128 0.961 . S
C2121 H2129 0.960 . S
C2122 C2120 1.381 . S
C2122 C2123 1.394 . S
C2122 H2130 0.930 . S
C2123 C2122 1.394 . S
C2123 C2124 1.383 . S
C2123 H2131 0.929 . S
C2124 C2123 1.383 . S
C2124 C2125 1.377 . S
C2125 H2109 0.930 . S
C2125 C2124 1.377 . S
C2125 C2126 1.379 . S
C2126 H2110 0.931 . S
C2126 C2120 1.383 . S
C2126 C2125 1.379 . S
H2127 C2121 0.959 . S
H2128 C2121 0.961 . S
H2129 C2121 0.960 . S
H2130 C2122 0.930 . S
H2131 C2123 0.929 . S
H2132 C2140 0.929 . S
H2133 C2142 0.930 . S
H2134 C2144 0.946 . S
H2135 C2147 0.929 . S
H2136 C2150 0.930 . S
H2137 C2152 0.960 . S
H2138 C2152 0.960 . S
H2139 C2152 0.960 . S
C2140 H2132 0.929 . S
C2140 C2141 1.377 . S
C2140 C2142 1.384 . S
C2141 C2140 1.377 . S
C2141 C2147 1.390 . S
C2142 H2133 0.930 . S
C2142 C2140 1.384 . S
C2142 C2143 1.372 . S
C2143 C2142 1.372 . S
C2143 C2144 1.400 . S
C2143 C2148 1.490 . S
C2144 H2134 0.946 . S
C2144 C2143 1.400 . S
C2144 C2147 1.386 . S
H2145 C2161 0.930 . S
H2146 C2162 0.931 . S
C2147 H2135 0.929 . S
C2147 C2141 1.390 . S
C2147 C2144 1.386 . S
C2148 C2143 1.490 . S
C2148 C2150 1.395 . S
C2148 C2151 1.403 1_556 S
H2149 C2155 0.930 . S
C2150 H2136 0.930 . S
C2150 C2148 1.395 . S
C2150 C2153 1.403 1_556 S
C2151 C2148 1.403 1_554 S
C2151 C2152 1.524 . S
C2151 C2155 1.400 . S
C2152 H2137 0.960 . S
C2152 H2138 0.960 . S
C2152 H2139 0.960 . S
C2152 C2151 1.524 . S
C2153 C2150 1.403 1_554 S
C2153 C2154 1.392 . S
C2153 C2157 1.495 . S
C2154 C2153 1.392 . S
C2154 C2155 1.385 . S
C2154 C2156 1.478 . S
C2155 H2149 0.930 . S
C2155 C2151 1.400 . S
C2155 C2154 1.385 . S
C2156 C2154 1.478 . S
C2156 C2158 1.381 . S
C2156 C2162 1.383 . S
C2157 C2153 1.495 . S
C2157 H2163 0.959 1_554 S
C2157 H2164 0.961 . S
C2157 H2165 0.960 . S
C2158 C2156 1.381 . S
C2158 C2159 1.394 . S
C2158 H2166 0.930 . S
C2159 C2158 1.394 . S
C2159 C2160 1.383 . S
C2159 H2167 0.929 . S
C2160 C2159 1.383 . S
C2160 C2161 1.377 . S
C2161 H2145 0.930 . S
C2161 C2160 1.377 . S
C2161 C2162 1.379 . S
C2162 H2146 0.931 . S
C2162 C2156 1.383 . S
C2162 C2161 1.379 . S
H2163 C2157 0.959 1_556 S
H2164 C2157 0.961 . S
H2165 C2157 0.960 . S
H2166 C2158 0.930 . S
H2167 C2159 0.929 . S
H2168 C2176 0.929 . S
H2169 C2178 0.930 . S
H2170 C2180 0.930 . S
H2171 C2183 0.929 . S
H2172 C2186 0.930 . S
H2173 C2188 0.960 . S
H2174 C2188 0.960 . S
H2175 C2188 0.960 . S
C2176 H2168 0.929 . S
C2176 C2177 1.377 . S
C2176 C2178 1.384 . S
C2177 C2176 1.377 . S
C2177 C2183 1.390 . S
C2178 H2169 0.930 . S
C2178 C2176 1.384 . S
C2178 C2179 1.372 . S
C2179 C2178 1.372 . S
C2179 C2180 1.400 . S
C2179 C2184 1.490 . S
C2180 H2170 0.930 . S
C2180 C2179 1.400 . S
C2180 C2183 1.386 . S
H2181 C2197 0.930 . S
H2182 C2198 0.931 . S
C2183 H2171 0.929 . S
C2183 C2177 1.390 . S
C2183 C2180 1.386 . S
C2184 C2179 1.490 . S
C2184 C2186 1.395 . S
C2184 C2187 1.403 . S
H2185 C2191 0.930 . S
C2186 H2172 0.930 . S
C2186 C2184 1.395 . S
C2186 C2189 1.403 . S
C2187 C2184 1.403 . S
C2187 C2188 1.524 . S
C2187 C2191 1.400 . S
C2188 H2173 0.960 . S
C2188 H2174 0.960 . S
C2188 H2175 0.960 . S
C2188 C2187 1.524 . S
C2189 C2186 1.403 . S
C2189 C2190 1.392 . S
C2189 C2193 1.495 . S
C2190 C2189 1.392 . S
C2190 C2191 1.385 . S
C2190 C2192 1.478 . S
C2191 H2185 0.930 . S
C2191 C2187 1.400 . S
C2191 C2190 1.385 . S
C2192 C2190 1.478 . S
C2192 C2194 1.381 . S
C2192 C2198 1.383 . S
C2193 C2189 1.495 . S
C2193 H2199 0.959 . S
C2193 H2200 0.961 . S
C2193 H2201 0.960 . S
C2194 C2192 1.381 . S
C2194 C2195 1.394 . S
C2194 H2202 0.930 . S
C2195 C2194 1.394 . S
C2195 C2196 1.383 . S
C2195 H2203 0.929 . S
C2196 C2195 1.383 . S
C2196 C2197 1.377 . S
C2197 H2181 0.930 . S
C2197 C2196 1.377 . S
C2197 C2198 1.379 . S
C2198 H2182 0.931 . S
C2198 C2192 1.383 . S
C2198 C2197 1.379 . S
H2199 C2193 0.959 . S
H2200 C2193 0.961 . S
H2201 C2193 0.960 . S
H2202 C2194 0.930 . S
H2203 C2195 0.929 . S
H2204 C2212 0.929 . S
H2205 C2214 0.930 . S
H2206 C2216 0.930 . S
H2207 C2219 0.929 . S
H2208 C2222 0.930 . S
H2209 C2224 0.960 . S
H2210 C2224 0.960 . S
H2211 C2224 0.960 . S
C2212 H2204 0.929 . S
C2212 C2213 1.377 . S
C2212 C2214 1.384 . S
C2213 C2212 1.377 . S
C2213 C2219 1.390 . S
C2214 H2205 0.930 . S
C2214 C2212 1.384 . S
C2214 C2215 1.372 . S
C2215 C2214 1.372 . S
C2215 C2216 1.400 . S
C2215 C2220 1.490 . S
C2216 H2206 0.930 . S
C2216 C2215 1.400 . S
C2216 C2219 1.386 . S
H2217 C2233 0.930 . S
H2218 C2234 0.931 . S
C2219 H2207 0.929 . S
C2219 C2213 1.390 . S
C2219 C2216 1.386 . S
C2220 C2215 1.490 . S
C2220 C2222 1.395 . S
C2220 C2223 1.403 . S
H2221 C2227 0.930 . S
C2222 H2208 0.930 . S
C2222 C2220 1.395 . S
C2222 C2225 1.403 . S
C2223 C2220 1.403 . S
C2223 C2224 1.524 . S
C2223 C2227 1.400 . S
C2224 H2209 0.960 . S
C2224 H2210 0.960 . S
C2224 H2211 0.960 . S
C2224 C2223 1.524 . S
C2225 C2222 1.403 . S
C2225 C2226 1.392 . S
C2225 C2229 1.495 . S
C2226 C2225 1.392 . S
C2226 C2227 1.385 . S
C2226 C2228 1.478 . S
C2227 H2221 0.930 . S
C2227 C2223 1.400 . S
C2227 C2226 1.385 . S
C2228 C2226 1.478 . S
C2228 C2230 1.381 . S
C2228 C2234 1.383 . S
C2229 C2225 1.495 . S
C2229 H2235 0.959 . S
C2229 H2236 0.961 . S
C2229 H2237 0.960 . S
C2230 C2228 1.381 . S
C2230 C2231 1.394 . S
C2230 H2238 0.930 . S
C2231 C2230 1.394 . S
C2231 C2232 1.383 . S
C2231 H2239 0.929 . S
C2232 C2231 1.383 . S
C2232 C2233 1.377 . S
C2233 H2217 0.930 . S
C2233 C2232 1.377 . S
C2233 C2234 1.379 . S
C2234 H2218 0.931 . S
C2234 C2228 1.383 . S
C2234 C2233 1.379 . S
H2235 C2229 0.959 . S
H2236 C2229 0.961 . S
H2237 C2229 0.960 . S
H2238 C2230 0.930 . S
H2239 C2231 0.929 . S
H2240 C2248 0.929 . S
H2241 C2250 0.930 . S
H2242 C2252 0.930 . S
H2243 C2255 0.929 . S
H2244 C2258 0.930 . S
H2245 C2260 0.960 . S
H2246 C2260 0.960 . S
H2247 C2260 0.960 . S
C2248 H2240 0.929 . S
C2248 C2249 1.377 . S
C2248 C2250 1.384 . S
C2249 C2248 1.377 . S
C2249 C2255 1.390 . S
C2250 H2241 0.930 . S
C2250 C2248 1.384 . S
C2250 C2251 1.372 . S
C2251 C2250 1.372 . S
C2251 C2252 1.400 . S
C2251 C2256 1.490 . S
C2252 H2242 0.930 . S
C2252 C2251 1.400 . S
C2252 C2255 1.386 . S
H2253 C2269 0.930 . S
H2254 C2270 0.931 . S
C2255 H2243 0.929 . S
C2255 C2249 1.390 . S
C2255 C2252 1.386 . S
C2256 C2251 1.490 . S
C2256 C2258 1.395 . S
C2256 C2259 1.403 . S
H2257 C2263 0.930 . S
C2258 H2244 0.930 . S
C2258 C2256 1.395 . S
C2258 C2261 1.403 . S
C2259 C2256 1.403 . S
C2259 C2260 1.524 . S
C2259 C2263 1.400 . S
C2260 H2245 0.960 . S
C2260 H2246 0.960 . S
C2260 H2247 0.960 . S
C2260 C2259 1.524 . S
C2261 C2258 1.403 . S
C2261 C2262 1.392 . S
C2261 C2265 1.495 . S
C2262 C2261 1.392 . S
C2262 C2263 1.385 . S
C2262 C2264 1.478 . S
C2263 H2257 0.930 . S
C2263 C2259 1.400 . S
C2263 C2262 1.385 . S
C2264 C2262 1.478 . S
C2264 C2266 1.381 . S
C2264 C2270 1.383 . S
C2265 C2261 1.495 . S
C2265 H2271 0.959 . S
C2265 H2272 0.961 . S
C2265 H2273 0.960 . S
C2266 C2264 1.381 . S
C2266 C2267 1.394 . S
C2266 H2274 0.930 . S
C2267 C2266 1.394 . S
C2267 C2268 1.383 . S
C2267 H2275 0.929 . S
C2268 C2267 1.383 . S
C2268 C2269 1.377 . S
C2269 H2253 0.930 . S
C2269 C2268 1.377 . S
C2269 C2270 1.379 . S
C2270 H2254 0.931 . S
C2270 C2264 1.383 . S
C2270 C2269 1.379 . S
H2271 C2265 0.959 . S
H2272 C2265 0.961 . S
H2273 C2265 0.960 . S
H2274 C2266 0.930 . S
H2275 C2267 0.929 . S
H2276 C2284 0.929 . S
H2277 C2286 0.930 . S
H2278 C2288 0.930 . S
H2279 C2291 0.929 . S
H2280 C2294 0.930 . S
H2281 C2296 0.960 . S
H2282 C2296 0.960 . S
H2283 C2296 0.960 . S
C2284 H2276 0.929 . S
C2284 C2285 1.377 . S
C2284 C2286 1.384 . S
C2285 C2284 1.377 . S
C2285 C2291 1.390 . S
C2286 H2277 0.930 . S
C2286 C2284 1.384 . S
C2286 C2287 1.372 . S
C2287 C2286 1.372 . S
C2287 C2288 1.400 . S
C2287 C2292 1.490 . S
C2288 H2278 0.930 . S
C2288 C2287 1.400 . S
C2288 C2291 1.386 . S
H2289 C2305 0.930 . S
H2290 C2306 0.931 . S
C2291 H2279 0.929 . S
C2291 C2285 1.390 . S
C2291 C2288 1.386 . S
C2292 C2287 1.490 . S
C2292 C2294 1.395 . S
C2292 C2295 1.403 . S
H2293 C2299 0.930 . S
C2294 H2280 0.930 . S
C2294 C2292 1.395 . S
C2294 C2297 1.403 . S
C2295 C2292 1.403 . S
C2295 C2296 1.524 . S
C2295 C2299 1.400 . S
C2296 H2281 0.960 . S
C2296 H2282 0.960 . S
C2296 H2283 0.960 . S
C2296 C2295 1.524 . S
C2297 C2294 1.403 . S
C2297 C2298 1.392 . S
C2297 C2301 1.495 . S
C2298 C2297 1.392 . S
C2298 C2299 1.385 . S
C2298 C2300 1.478 . S
C2299 H2293 0.930 . S
C2299 C2295 1.400 . S
C2299 C2298 1.385 . S
C2300 C2298 1.478 . S
C2300 C2302 1.381 . S
C2300 C2306 1.383 . S
C2301 C2297 1.495 . S
C2301 H2307 0.959 . S
C2301 H2308 0.961 . S
C2301 H2309 0.960 . S
C2302 C2300 1.381 . S
C2302 C2303 1.394 . S
C2302 H2310 0.930 . S
C2303 C2302 1.394 . S
C2303 C2304 1.383 . S
C2303 H2311 0.929 . S
C2304 C2303 1.383 . S
C2304 C2305 1.377 . S
C2305 H2289 0.930 . S
C2305 C2304 1.377 . S
C2305 C2306 1.379 . S
C2306 H2290 0.931 . S
C2306 C2300 1.383 . S
C2306 C2305 1.379 . S
H2307 C2301 0.959 . S
H2308 C2301 0.961 . S
H2309 C2301 0.960 . S
H2310 C2302 0.930 . S
H2311 C2303 0.929 . S
H2312 C2320 0.929 . S
H2313 C2322 0.930 . S
H2314 C2324 0.930 . S
H2315 C2327 0.929 . S
H2316 C2330 0.930 . S
H2317 C2332 0.960 . S
H2318 C2332 0.960 . S
H2319 C2332 0.960 . S
C2320 H2312 0.929 . S
C2320 C2321 1.377 . S
C2320 C2322 1.384 . S
C2321 C2320 1.377 . S
C2321 C2327 1.390 . S
C2322 H2313 0.930 . S
C2322 C2320 1.384 . S
C2322 C2323 1.372 . S
C2323 C2322 1.372 . S
C2323 C2324 1.400 . S
C2323 C2328 1.490 . S
C2324 H2314 0.930 . S
C2324 C2323 1.400 . S
C2324 C2327 1.386 . S
H2325 C2341 0.930 . S
H2326 C2342 0.931 . S
C2327 H2315 0.929 . S
C2327 C2321 1.390 . S
C2327 C2324 1.386 . S
C2328 C2323 1.490 . S
C2328 C2330 1.395 . S
C2328 C2331 1.403 . S
H2329 C2335 0.930 . S
C2330 H2316 0.930 . S
C2330 C2328 1.395 . S
C2330 C2333 1.403 1_655 S
C2331 C2328 1.403 . S
C2331 C2332 1.524 . S
C2331 C2335 1.400 1_655 S
C2332 H2317 0.960 . S
C2332 H2318 0.960 . S
C2332 H2319 0.960 . S
C2332 C2331 1.524 . S
C2333 C2330 1.403 1_455 S
C2333 C2334 1.392 . S
C2333 C2337 1.495 . S
C2334 C2333 1.392 . S
C2334 C2335 1.385 . S
C2334 C2336 1.478 . S
C2335 H2329 0.930 . S
C2335 C2331 1.400 1_455 S
C2335 C2334 1.385 . S
C2336 C2334 1.478 . S
C2336 C2338 1.381 . S
C2336 C2342 1.383 . S
C2337 C2333 1.495 . S
C2337 H2343 0.959 . S
C2337 H2344 0.961 . S
C2337 H2345 0.960 . S
C2338 C2336 1.381 . S
C2338 C2339 1.394 . S
C2338 H2346 0.930 . S
C2339 C2338 1.394 . S
C2339 C2340 1.383 . S
C2339 H2347 0.929 . S
C2340 C2339 1.383 . S
C2340 C2341 1.377 . S
C2341 H2325 0.930 . S
C2341 C2340 1.377 . S
C2341 C2342 1.379 . S
C2342 H2326 0.931 . S
C2342 C2336 1.383 . S
C2342 C2341 1.379 . S
H2343 C2337 0.959 . S
H2344 C2337 0.961 . S
H2345 C2337 0.960 . S
H2346 C2338 0.930 . S
H2347 C2339 0.929 . S
H2348 C2356 0.929 . S
H2349 C2358 0.930 . S
H2350 C2360 0.930 . S
H2351 C2363 0.929 . S
H2352 C2366 0.930 . S
H2353 C2368 0.960 . S
H2354 C2368 0.960 . S
H2355 C2368 0.960 . S
C2356 H2348 0.929 . S
C2356 C2357 1.377 . S
C2356 C2358 1.384 . S
C2357 C2356 1.377 . S
C2357 C2363 1.390 . S
C2358 H2349 0.930 . S
C2358 C2356 1.384 . S
C2358 C2359 1.372 . S
C2359 C2358 1.372 . S
C2359 C2360 1.400 . S
C2359 C2364 1.490 . S
C2360 H2350 0.930 . S
C2360 C2359 1.400 . S
C2360 C2363 1.386 . S
H2361 C2377 0.930 . S
H2362 C2378 0.931 . S
C2363 H2351 0.929 . S
C2363 C2357 1.390 . S
C2363 C2360 1.386 . S
C2364 C2359 1.490 . S
C2364 C2366 1.395 . S
C2364 C2367 1.403 . S
H2365 C2371 0.930 . S
C2366 H2352 0.930 . S
C2366 C2364 1.395 . S
C2366 C2369 1.403 1_554 S
C2367 C2364 1.403 . S
C2367 C2368 1.524 . S
C2367 C2371 1.400 . S
C2368 H2353 0.960 . S
C2368 H2354 0.960 . S
C2368 H2355 0.960 . S
C2368 C2367 1.524 . S
C2369 C2366 1.403 1_556 S
C2369 C2370 1.392 . S
C2369 C2373 1.495 . S
C2370 C2369 1.392 . S
C2370 C2371 1.385 1_556 S
C2370 C2372 1.478 . S
C2371 H2365 0.930 . S
C2371 C2367 1.400 . S
C2371 C2370 1.385 1_554 S
C2372 C2370 1.478 . S
C2372 C2374 1.381 . S
C2372 C2378 1.383 . S
C2373 C2369 1.495 . S
C2373 H2379 0.959 . S
C2373 H2380 0.961 . S
C2373 H2381 0.960 . S
C2374 C2372 1.381 . S
C2374 C2375 1.394 . S
C2374 H2382 0.930 . S
C2375 C2374 1.394 . S
C2375 C2376 1.383 . S
C2375 H2383 0.929 . S
C2376 C2375 1.383 . S
C2376 C2377 1.377 . S
C2377 H2361 0.930 . S
C2377 C2376 1.377 . S
C2377 C2378 1.379 . S
C2378 H2362 0.931 . S
C2378 C2372 1.383 . S
C2378 C2377 1.379 . S
H2379 C2373 0.959 . S
H2380 C2373 0.961 . S
H2381 C2373 0.960 . S
H2382 C2374 0.930 . S
H2383 C2375 0.929 . S
H2384 C2392 0.929 . S
H2385 C2394 0.930 . S
H2386 C2396 0.930 . S
H2387 C2399 0.929 . S
H2388 C2402 0.930 . S
H2389 C2404 0.960 . S
H2390 C2404 0.960 . S
H2391 C2404 0.960 . S
C2392 H2384 0.929 . S
C2392 C2393 1.377 . S
C2392 C2394 1.384 . S
C2393 C2392 1.377 . S
C2393 C2399 1.390 . S
C2394 H2385 0.930 . S
C2394 C2392 1.384 . S
C2394 C2395 1.372 . S
C2395 C2394 1.372 . S
C2395 C2396 1.400 . S
C2395 C2400 1.490 . S
C2396 H2386 0.930 . S
C2396 C2395 1.400 . S
C2396 C2399 1.386 . S
H2397 C2413 0.930 . S
H2398 C2414 0.931 . S
C2399 H2387 0.929 . S
C2399 C2393 1.390 . S
C2399 C2396 1.386 . S
C2400 C2395 1.490 . S
C2400 C2402 1.395 . S
C2400 C2403 1.403 . S
H2401 C2407 0.930 . S
C2402 H2388 0.930 . S
C2402 C2400 1.395 . S
C2402 C2405 1.403 . S
C2403 C2400 1.403 . S
C2403 C2404 1.524 . S
C2403 C2407 1.400 . S
C2404 H2389 0.960 . S
C2404 H2390 0.960 . S
C2404 H2391 0.960 . S
C2404 C2403 1.524 . S
C2405 C2402 1.403 . S
C2405 C2406 1.392 . S
C2405 C2409 1.495 . S
C2406 C2405 1.392 . S
C2406 C2407 1.385 . S
C2406 C2408 1.478 . S
C2407 H2401 0.930 . S
C2407 C2403 1.400 . S
C2407 C2406 1.385 . S
C2408 C2406 1.478 . S
C2408 C2410 1.381 . S
C2408 C2414 1.383 . S
C2409 C2405 1.495 . S
C2409 H2415 0.959 . S
C2409 H2416 0.961 . S
C2409 H2417 0.960 . S
C2410 C2408 1.381 . S
C2410 C2411 1.394 . S
C2410 H2418 0.930 . S
C2411 C2410 1.394 . S
C2411 C2412 1.383 . S
C2411 H2419 0.929 . S
C2412 C2411 1.383 . S
C2412 C2413 1.377 . S
C2413 H2397 0.930 . S
C2413 C2412 1.377 . S
C2413 C2414 1.379 . S
C2414 H2398 0.931 . S
C2414 C2408 1.383 . S
C2414 C2413 1.379 . S
H2415 C2409 0.959 . S
H2416 C2409 0.961 . S
H2417 C2409 0.960 . S
H2418 C2410 0.930 . S
H2419 C2411 0.929 . S
H2420 C2428 0.929 . S
H2421 C2430 0.930 . S
H2422 C2432 0.930 . S
H2423 C2435 0.929 . S
H2424 C2438 0.930 . S
H2425 C2440 0.960 . S
H2426 C2440 0.960 . S
H2427 C2440 0.960 . S
C2428 H2420 0.929 . S
C2428 C2429 1.377 . S
C2428 C2430 1.384 . S
C2429 C2428 1.377 . S
C2429 C2435 1.390 . S
C2430 H2421 0.930 . S
C2430 C2428 1.384 . S
C2430 C2431 1.372 . S
C2431 C2430 1.372 . S
C2431 C2432 1.400 . S
C2431 C2436 1.490 . S
C2432 H2422 0.930 . S
C2432 C2431 1.400 . S
C2432 C2435 1.386 . S
H2433 C2449 0.930 . S
H2434 C2450 0.931 . S
C2435 H2423 0.929 . S
C2435 C2429 1.390 . S
C2435 C2432 1.386 . S
C2436 C2431 1.490 . S
C2436 C2438 1.395 . S
C2436 C2439 1.403 . S
H2437 C2443 0.930 . S
C2438 H2424 0.930 . S
C2438 C2436 1.395 . S
C2438 C2441 1.403 . S
C2439 C2436 1.403 . S
C2439 C2440 1.524 . S
C2439 C2443 1.400 . S
C2440 H2425 0.960 . S
C2440 H2426 0.960 . S
C2440 H2427 0.960 . S
C2440 C2439 1.524 . S
C2441 C2438 1.403 . S
C2441 C2442 1.392 . S
C2441 C2445 1.495 . S
C2442 C2441 1.392 . S
C2442 C2443 1.385 . S
C2442 C2444 1.478 . S
C2443 H2437 0.930 . S
C2443 C2439 1.400 . S
C2443 C2442 1.385 . S
C2444 C2442 1.478 . S
C2444 C2446 1.381 . S
C2444 C2450 1.383 . S
C2445 C2441 1.495 . S
C2445 H2451 0.959 . S
C2445 H2452 0.961 . S
C2445 H2453 0.960 . S
C2446 C2444 1.381 . S
C2446 C2447 1.394 . S
C2446 H2454 0.930 . S
C2447 C2446 1.394 . S
C2447 C2448 1.383 . S
C2447 H2455 0.929 . S
C2448 C2447 1.383 . S
C2448 C2449 1.377 . S
C2449 H2433 0.930 . S
C2449 C2448 1.377 . S
C2449 C2450 1.379 . S
C2450 H2434 0.931 . S
C2450 C2444 1.383 . S
C2450 C2449 1.379 . S
H2451 C2445 0.959 . S
H2452 C2445 0.961 . S
H2453 C2445 0.960 . S
H2454 C2446 0.930 . S
H2455 C2447 0.929 . S
H2456 C2464 0.929 . S
H2457 C2466 0.930 . S
H2458 C2468 0.930 . S
H2459 C2471 0.929 . S
H2460 C2474 0.929 . S
H2461 C2476 0.960 . S
H2462 C2476 0.960 . S
H2463 C2476 0.960 . S
C2464 H2456 0.929 . S
C2464 C2465 1.377 . S
C2464 C2466 1.384 . S
C2465 C2464 1.377 . S
C2465 C2471 1.390 . S
C2466 H2457 0.930 . S
C2466 C2464 1.384 . S
C2466 C2467 1.372 . S
C2467 C2466 1.372 . S
C2467 C2468 1.400 . S
C2467 C2472 1.490 . S
C2468 H2458 0.930 . S
C2468 C2467 1.400 . S
C2468 C2471 1.386 . S
H2469 C2485 0.930 . S
H2470 C2486 0.931 . S
C2471 H2459 0.929 . S
C2471 C2465 1.390 . S
C2471 C2468 1.386 . S
C2472 C2467 1.490 . S
C2472 C2474 1.393 1_455 S
C2472 C2475 1.403 . S
H2473 C2479 0.938 . S
C2474 H2460 0.929 . S
C2474 C2472 1.393 1_655 S
C2474 C2477 1.405 . S
C2475 C2472 1.403 . S
C2475 C2476 1.524 . S
C2475 C2479 1.475 . S
C2476 H2461 0.960 . S
C2476 H2462 0.960 . S
C2476 H2463 0.960 . S
C2476 C2475 1.524 . S
C2477 C2474 1.405 . S
C2477 C2478 1.392 . S
C2477 C2481 1.495 . S
C2478 C2477 1.392 . S
C2478 C2479 1.310 1_655 S
C2478 C2480 1.478 . S
C2479 H2473 0.938 . S
C2479 C2475 1.475 . S
C2479 C2478 1.310 1_455 S
C2480 C2478 1.478 . S
C2480 C2482 1.381 . S
C2480 C2486 1.383 . S
C2481 C2477 1.495 . S
C2481 H2487 0.959 . S
C2481 H2488 0.961 . S
C2481 H2489 0.960 . S
C2482 C2480 1.381 . S
C2482 C2483 1.394 . S
C2482 H2490 0.930 . S
C2483 C2482 1.394 . S
C2483 C2484 1.383 . S
C2483 H2491 0.929 . S
C2484 C2483 1.383 . S
C2484 C2485 1.377 . S
C2485 H2469 0.930 . S
C2485 C2484 1.377 . S
C2485 C2486 1.379 . S
C2486 H2470 0.931 . S
C2486 C2480 1.383 . S
C2486 C2485 1.379 . S
H2487 C2481 0.959 . S
H2488 C2481 0.961 . S
H2489 C2481 0.960 . S
H2490 C2482 0.930 . S
H2491 C2483 0.929 . S
H2492 C2500 0.929 . S
H2493 C2502 0.930 . S
H2494 C2504 0.930 . S
H2495 C2507 0.929 . S
H2496 C2510 0.930 . S
H2497 C2512 0.960 . S
H2498 C2512 0.960 . S
H2499 C2512 0.960 . S
C2500 H2492 0.929 . S
C2500 C2501 1.377 . S
C2500 C2502 1.384 . S
C2501 C2500 1.377 . S
C2501 C2507 1.390 . S
C2502 H2493 0.930 . S
C2502 C2500 1.384 . S
C2502 C2503 1.372 . S
C2503 C2502 1.372 . S
C2503 C2504 1.400 . S
C2503 C2508 1.497 . S
C2504 H2494 0.930 . S
C2504 C2503 1.400 . S
C2504 C2507 1.386 . S
H2505 C2521 0.930 . S
H2506 C2522 0.931 . S
C2507 H2495 0.929 . S
C2507 C2501 1.390 . S
C2507 C2504 1.386 . S
C2508 C2503 1.497 . S
C2508 C2510 1.398 . S
C2508 C2511 1.393 1_556 S
H2509 C2515 0.930 . S
C2510 H2496 0.930 . S
C2510 C2508 1.398 . S
C2510 C2513 1.403 1_556 S
C2511 C2508 1.393 1_554 S
C2511 C2512 1.524 . S
C2511 C2515 1.400 . S
C2512 H2497 0.960 . S
C2512 H2498 0.960 . S
C2512 H2499 0.960 . S
C2512 C2511 1.524 . S
C2513 C2510 1.403 1_554 S
C2513 C2514 1.392 . S
C2513 C2517 1.495 1_554 S
C2514 C2513 1.392 . S
C2514 C2515 1.385 . S
C2514 C2516 1.478 . S
C2515 H2509 0.930 . S
C2515 C2511 1.400 . S
C2515 C2514 1.385 . S
C2516 C2514 1.478 . S
C2516 C2518 1.381 . S
C2516 C2522 1.383 . S
C2517 C2513 1.495 1_556 S
C2517 H2523 0.959 . S
C2517 H2524 0.961 . S
C2517 H2525 0.960 1_556 S
C2518 C2516 1.381 . S
C2518 C2519 1.394 . S
C2518 H2526 0.930 . S
C2519 C2518 1.394 . S
C2519 C2520 1.383 . S
C2519 H2527 0.929 . S
C2520 C2519 1.383 . S
C2520 C2521 1.377 . S
C2521 H2505 0.930 . S
C2521 C2520 1.377 . S
C2521 C2522 1.379 . S
C2522 H2506 0.931 . S
C2522 C2516 1.383 . S
C2522 C2521 1.379 . S
H2523 C2517 0.959 . S
H2524 C2517 0.961 . S
H2525 C2517 0.960 1_554 S
H2526 C2518 0.930 . S
H2527 C2519 0.929 . S
H2528 C2536 0.929 . S
H2529 C2538 0.930 . S
H2530 C2540 0.930 . S
H2531 C2543 0.929 . S
H2532 C2546 0.930 . S
H2533 C2548 0.960 . S
H2534 C2548 0.960 . S
H2535 C2548 0.960 . S
C2536 H2528 0.929 . S
C2536 C2537 1.377 . S
C2536 C2538 1.384 . S
C2537 C2536 1.377 . S
C2537 C2543 1.390 . S
C2538 H2529 0.930 . S
C2538 C2536 1.384 . S
C2538 C2539 1.372 . S
C2539 C2538 1.372 . S
C2539 C2540 1.400 . S
C2539 C2544 1.490 . S
C2540 H2530 0.930 . S
C2540 C2539 1.400 . S
C2540 C2543 1.386 . S
H2541 C2557 0.930 . S
H2542 C2558 0.931 . S
C2543 H2531 0.929 . S
C2543 C2537 1.390 . S
C2543 C2540 1.386 . S
C2544 C2539 1.490 . S
C2544 C2546 1.395 . S
C2544 C2547 1.403 . S
H2545 C2551 0.930 . S
C2546 H2532 0.930 . S
C2546 C2544 1.395 . S
C2546 C2549 1.403 . S
C2547 C2544 1.403 . S
C2547 C2548 1.524 . S
C2547 C2551 1.400 . S
C2548 H2533 0.960 . S
C2548 H2534 0.960 . S
C2548 H2535 0.960 . S
C2548 C2547 1.524 . S
C2549 C2546 1.403 . S
C2549 C2550 1.392 . S
C2549 C2553 1.495 . S
C2550 C2549 1.392 . S
C2550 C2551 1.385 . S
C2550 C2552 1.478 . S
C2551 H2545 0.930 . S
C2551 C2547 1.400 . S
C2551 C2550 1.385 . S
C2552 C2550 1.478 . S
C2552 C2554 1.381 . S
C2552 C2558 1.383 . S
C2553 C2549 1.495 . S
C2553 H2559 0.959 . S
C2553 H2560 0.961 . S
C2553 H2561 0.960 . S
C2554 C2552 1.381 . S
C2554 C2555 1.394 . S
C2554 H2562 0.930 . S
C2555 C2554 1.394 . S
C2555 C2556 1.383 . S
C2555 H2563 0.929 . S
C2556 C2555 1.383 . S
C2556 C2557 1.377 . S
C2557 H2541 0.930 . S
C2557 C2556 1.377 . S
C2557 C2558 1.379 . S
C2558 H2542 0.931 . S
C2558 C2552 1.383 . S
C2558 C2557 1.379 . S
H2559 C2553 0.959 . S
H2560 C2553 0.961 . S
H2561 C2553 0.960 . S
H2562 C2554 0.930 . S
H2563 C2555 0.929 . S
H2564 C2572 0.929 . S
H2565 C2574 0.930 . S
H2566 C2576 0.930 . S
H2567 C2579 0.929 . S
H2568 C2582 0.930 . S
H2569 C2584 0.960 . S
H2570 C2584 0.960 . S
H2571 C2584 0.960 . S
C2572 H2564 0.929 . S
C2572 C2573 1.377 . S
C2572 C2574 1.384 . S
C2573 C2572 1.377 . S
C2573 C2579 1.390 . S
C2574 H2565 0.930 . S
C2574 C2572 1.384 . S
C2574 C2575 1.372 . S
C2575 C2574 1.372 . S
C2575 C2576 1.400 . S
C2575 C2580 1.490 . S
C2576 H2566 0.930 . S
C2576 C2575 1.400 . S
C2576 C2579 1.386 . S
H2577 C2593 0.930 . S
H2578 C2594 0.931 . S
C2579 H2567 0.929 . S
C2579 C2573 1.390 . S
C2579 C2576 1.386 . S
C2580 C2575 1.490 . S
C2580 C2582 1.395 . S
C2580 C2583 1.403 . S
H2581 C2587 0.930 . S
C2582 H2568 0.930 . S
C2582 C2580 1.395 . S
C2582 C2585 1.403 . S
C2583 C2580 1.403 . S
C2583 C2584 1.524 . S
C2583 C2587 1.400 . S
C2584 H2569 0.960 . S
C2584 H2570 0.960 . S
C2584 H2571 0.960 . S
C2584 C2583 1.524 . S
C2585 C2582 1.403 . S
C2585 C2586 1.392 . S
C2585 C2589 1.495 . S
C2586 C2585 1.392 . S
C2586 C2587 1.385 . S
C2586 C2588 1.478 . S
C2587 H2581 0.930 . S
C2587 C2583 1.400 . S
C2587 C2586 1.385 . S
C2588 C2586 1.478 . S
C2588 C2590 1.381 . S
C2588 C2594 1.383 . S
C2589 C2585 1.495 . S
C2589 H2595 0.959 . S
C2589 H2596 0.961 . S
C2589 H2597 0.960 . S
C2590 C2588 1.381 . S
C2590 C2591 1.394 . S
C2590 H2598 0.930 . S
C2591 C2590 1.394 . S
C2591 C2592 1.383 . S
C2591 H2599 0.929 . S
C2592 C2591 1.383 . S
C2592 C2593 1.377 . S
C2593 H2577 0.930 . S
C2593 C2592 1.377 . S
C2593 C2594 1.379 . S
C2594 H2578 0.931 . S
C2594 C2588 1.383 . S
C2594 C2593 1.379 . S
H2595 C2589 0.959 . S
H2596 C2589 0.961 . S
H2597 C2589 0.960 . S
H2598 C2590 0.930 . S
H2599 C2591 0.929 . S
H2600 C2608 0.929 . S
H2601 C2610 0.930 . S
H2602 C2612 0.930 . S
H2603 C2615 0.929 . S
H2604 C2618 0.930 . S
H2605 C2620 0.960 . S
H2606 C2620 0.960 . S
H2607 C2620 0.960 . S
C2608 H2600 0.929 . S
C2608 C2609 1.377 . S
C2608 C2610 1.384 . S
C2609 C2608 1.377 . S
C2609 C2615 1.390 . S
C2610 H2601 0.930 . S
C2610 C2608 1.384 . S
C2610 C2611 1.372 . S
C2611 C2610 1.372 . S
C2611 C2612 1.400 . S
C2611 C2616 1.490 . S
C2612 H2602 0.930 . S
C2612 C2611 1.400 . S
C2612 C2615 1.386 . S
H2613 C2629 0.930 . S
H2614 C2630 0.931 . S
C2615 H2603 0.929 . S
C2615 C2609 1.390 . S
C2615 C2612 1.386 . S
C2616 C2611 1.490 . S
C2616 C2618 1.395 . S
C2616 C2619 1.403 . S
H2617 C2623 0.930 . S
C2618 H2604 0.930 . S
C2618 C2616 1.395 . S
C2618 C2621 1.403 1_655 S
C2619 C2616 1.403 . S
C2619 C2620 1.524 . S
C2619 C2623 1.400 . S
C2620 H2605 0.960 . S
C2620 H2606 0.960 . S
C2620 H2607 0.960 . S
C2620 C2619 1.524 . S
C2621 C2618 1.403 1_455 S
C2621 C2622 1.392 . S
C2621 C2625 1.495 . S
C2622 C2621 1.392 . S
C2622 C2623 1.385 1_455 S
C2622 C2624 1.478 . S
C2623 H2617 0.930 . S
C2623 C2619 1.400 . S
C2623 C2622 1.385 1_655 S
C2624 C2622 1.478 . S
C2624 C2626 1.381 . S
C2624 C2630 1.383 . S
C2625 C2621 1.495 . S
C2625 H2631 0.959 . S
C2625 H2632 0.961 . S
C2625 H2633 0.960 . S
C2626 C2624 1.381 . S
C2626 C2627 1.394 . S
C2626 H2634 0.930 . S
C2627 C2626 1.394 . S
C2627 C2628 1.383 . S
C2627 H2635 0.929 . S
C2628 C2627 1.383 . S
C2628 C2629 1.377 . S
C2629 H2613 0.930 . S
C2629 C2628 1.377 . S
C2629 C2630 1.379 . S
C2630 H2614 0.931 . S
C2630 C2624 1.383 . S
C2630 C2629 1.379 . S
H2631 C2625 0.959 . S
H2632 C2625 0.961 . S
H2633 C2625 0.960 . S
H2634 C2626 0.930 . S
H2635 C2627 0.929 . S
H2636 C2644 0.929 . S
H2637 C2646 0.930 . S
H2638 C2648 0.930 . S
H2639 C2651 0.929 . S
H2640 C2654 0.930 . S
H2641 C2656 0.960 1_556 S
H2642 C2656 0.960 . S
H2643 C2656 0.960 . S
C2644 H2636 0.929 . S
C2644 C2645 1.377 . S
C2644 C2646 1.384 . S
C2645 C2644 1.377 . S
C2645 C2651 1.390 . S
C2646 H2637 0.930 . S
C2646 C2644 1.384 . S
C2646 C2647 1.372 . S
C2647 C2646 1.372 . S
C2647 C2648 1.400 . S
C2647 C2652 1.490 . S
C2648 H2638 0.930 . S
C2648 C2647 1.400 . S
C2648 C2651 1.386 . S
H2649 C2665 0.930 . S
H2650 C2666 0.931 . S
C2651 H2639 0.929 . S
C2651 C2645 1.390 . S
C2651 C2648 1.386 . S
C2652 C2647 1.490 . S
C2652 C2654 1.395 . S
C2652 C2655 1.403 . S
H2653 C2659 0.930 . S
C2654 H2640 0.930 . S
C2654 C2652 1.395 . S
C2654 C2657 1.403 . S
C2655 C2652 1.403 . S
C2655 C2656 1.524 . S
C2655 C2659 1.400 1_554 S
C2656 H2641 0.960 1_554 S
C2656 H2642 0.960 . S
C2656 H2643 0.960 . S
C2656 C2655 1.524 . S
C2657 C2654 1.403 . S
C2657 C2658 1.414 . S
C2657 C2661 1.495 . S
C2658 C2657 1.414 . S
C2658 C2659 1.380 1_554 S
C2658 C2660 1.460 1_554 S
C2659 H2653 0.930 . S
C2659 C2655 1.400 1_556 S
C2659 C2658 1.380 1_556 S
C2660 C2658 1.460 1_556 S
C2660 C2662 1.381 . S
C2660 C2666 1.383 . S
C2661 C2657 1.495 . S
C2661 H2667 0.959 . S
C2661 H2668 0.961 . S
C2661 H2669 0.960 . S
C2662 C2660 1.381 . S
C2662 C2663 1.394 . S
C2662 H2670 0.930 . S
C2663 C2662 1.394 . S
C2663 C2664 1.383 . S
C2663 H2671 0.929 . S
C2664 C2663 1.383 . S
C2664 C2665 1.377 . S
C2665 H2649 0.930 . S
C2665 C2664 1.377 . S
C2665 C2666 1.379 . S
C2666 H2650 0.931 . S
C2666 C2660 1.383 . S
C2666 C2665 1.379 . S
H2667 C2661 0.959 . S
H2668 C2661 0.961 . S
H2669 C2661 0.960 . S
H2670 C2662 0.930 . S
H2671 C2663 0.929 . S
H2672 C2680 0.929 . S
H2673 C2682 0.930 . S
H2674 C2684 0.930 . S
H2675 C2687 0.929 . S
H2676 C2690 0.930 . S
H2677 C2692 0.960 . S
H2678 C2692 0.960 . S
H2679 C2692 0.960 . S
C2680 H2672 0.929 . S
C2680 C2681 1.377 . S
C2680 C2682 1.384 . S
C2681 C2680 1.377 . S
C2681 C2687 1.390 . S
C2682 H2673 0.930 . S
C2682 C2680 1.384 . S
C2682 C2683 1.372 . S
C2683 C2682 1.372 . S
C2683 C2684 1.400 . S
C2683 C2688 1.490 . S
C2684 H2674 0.930 . S
C2684 C2683 1.400 . S
C2684 C2687 1.386 . S
H2685 C2701 0.930 . S
H2686 C2702 0.931 . S
C2687 H2675 0.929 . S
C2687 C2681 1.390 . S
C2687 C2684 1.386 . S
C2688 C2683 1.490 . S
C2688 C2690 1.395 . S
C2688 C2691 1.403 . S
H2689 C2695 0.930 . S
C2690 H2676 0.930 . S
C2690 C2688 1.395 . S
C2690 C2693 1.403 . S
C2691 C2688 1.403 . S
C2691 C2692 1.524 . S
C2691 C2695 1.400 . S
C2692 H2677 0.960 . S
C2692 H2678 0.960 . S
C2692 H2679 0.960 . S
C2692 C2691 1.524 . S
C2693 C2690 1.403 . S
C2693 C2694 1.392 . S
C2693 C2697 1.495 . S
C2694 C2693 1.392 . S
C2694 C2695 1.385 . S
C2694 C2696 1.478 . S
C2695 H2689 0.930 . S
C2695 C2691 1.400 . S
C2695 C2694 1.385 . S
C2696 C2694 1.478 . S
C2696 C2698 1.381 . S
C2696 C2702 1.383 . S
C2697 C2693 1.495 . S
C2697 H2703 0.959 . S
C2697 H2704 0.961 . S
C2697 H2705 0.960 . S
C2698 C2696 1.381 . S
C2698 C2699 1.394 . S
C2698 H2706 0.930 . S
C2699 C2698 1.394 . S
C2699 C2700 1.383 . S
C2699 H2707 0.929 . S
C2700 C2699 1.383 . S
C2700 C2701 1.377 . S
C2701 H2685 0.930 . S
C2701 C2700 1.377 . S
C2701 C2702 1.379 . S
C2702 H2686 0.931 . S
C2702 C2696 1.383 . S
C2702 C2701 1.379 . S
H2703 C2697 0.959 . S
H2704 C2697 0.961 . S
H2705 C2697 0.960 . S
H2706 C2698 0.930 . S
H2707 C2699 0.929 . S
H2708 C2716 0.929 . S
H2709 C2718 0.930 . S
H2710 C2720 0.930 . S
H2711 C2723 0.929 . S
H2712 C2726 0.930 . S
H2713 C2728 0.960 . S
H2714 C2728 0.960 . S
H2715 C2728 0.960 . S
C2716 H2708 0.929 . S
C2716 C2717 1.377 . S
C2716 C2718 1.384 . S
C2717 C2716 1.377 . S
C2717 C2723 1.390 . S
C2718 H2709 0.930 . S
C2718 C2716 1.384 . S
C2718 C2719 1.372 . S
C2719 C2718 1.372 . S
C2719 C2720 1.400 . S
C2719 C2724 1.490 . S
C2720 H2710 0.930 . S
C2720 C2719 1.400 . S
C2720 C2723 1.386 . S
H2721 C2737 0.930 . S
H2722 C2738 0.931 . S
C2723 H2711 0.929 . S
C2723 C2717 1.390 . S
C2723 C2720 1.386 . S
C2724 C2719 1.490 . S
C2724 C2726 1.395 . S
C2724 C2727 1.403 . S
H2725 C2731 0.930 . S
C2726 H2712 0.930 . S
C2726 C2724 1.395 . S
C2726 C2729 1.403 . S
C2727 C2724 1.403 . S
C2727 C2728 1.524 . S
C2727 C2731 1.400 . S
C2728 H2713 0.960 . S
C2728 H2714 0.960 . S
C2728 H2715 0.960 . S
C2728 C2727 1.524 . S
C2729 C2726 1.403 . S
C2729 C2730 1.392 . S
C2729 C2733 1.495 . S
C2730 C2729 1.392 . S
C2730 C2731 1.385 . S
C2730 C2732 1.478 . S
C2731 H2725 0.930 . S
C2731 C2727 1.400 . S
C2731 C2730 1.385 . S
C2732 C2730 1.478 . S
C2732 C2734 1.381 . S
C2732 C2738 1.383 . S
C2733 C2729 1.495 . S
C2733 H2739 0.959 . S
C2733 H2740 0.961 . S
C2733 H2741 0.960 . S
C2734 C2732 1.381 . S
C2734 C2735 1.394 . S
C2734 H2742 0.930 . S
C2735 C2734 1.394 . S
C2735 C2736 1.383 . S
C2735 H2743 0.929 . S
C2736 C2735 1.383 . S
C2736 C2737 1.377 . S
C2737 H2721 0.930 . S
C2737 C2736 1.377 . S
C2737 C2738 1.379 . S
C2738 H2722 0.931 . S
C2738 C2732 1.383 . S
C2738 C2737 1.379 . S
H2739 C2733 0.959 . S
H2740 C2733 0.961 . S
H2741 C2733 0.960 . S
H2742 C2734 0.930 . S
H2743 C2735 0.929 . S
H2744 C2752 0.929 . S
H2745 C2754 0.930 . S
H2746 C2756 0.930 . S
H2747 C2759 0.929 . S
H2748 C2762 0.930 . S
H2749 C2764 0.960 1_655 S
H2750 C2764 0.960 . S
H2751 C2764 0.960 1_655 S
C2752 H2744 0.929 . S
C2752 C2753 1.377 . S
C2752 C2754 1.384 . S
C2753 C2752 1.377 . S
C2753 C2759 1.390 . S
C2754 H2745 0.930 . S
C2754 C2752 1.384 . S
C2754 C2755 1.372 . S
C2755 C2754 1.372 . S
C2755 C2756 1.400 . S
C2755 C2760 1.490 . S
C2756 H2746 0.930 . S
C2756 C2755 1.400 . S
C2756 C2759 1.386 . S
H2757 C2773 0.930 . S
H2758 C2774 0.931 . S
C2759 H2747 0.929 . S
C2759 C2753 1.390 . S
C2759 C2756 1.386 . S
C2760 C2755 1.490 . S
C2760 C2762 1.395 . S
C2760 C2763 1.370 1_455 S
H2761 C2767 0.930 . S
C2762 H2748 0.930 . S
C2762 C2760 1.395 . S
C2762 C2765 1.403 1_455 S
C2763 C2760 1.370 1_655 S
C2763 C2764 1.517 1_655 S
C2763 C2767 1.443 . S
C2764 H2749 0.960 1_455 S
C2764 H2750 0.960 . S
C2764 H2751 0.960 1_455 S
C2764 C2763 1.517 1_455 S
C2765 C2762 1.403 1_655 S
C2765 C2766 1.392 . S
C2765 C2769 1.495 . S
C2766 C2765 1.392 . S
C2766 C2767 1.385 . S
C2766 C2768 1.478 . S
C2767 H2761 0.930 . S
C2767 C2763 1.443 . S
C2767 C2766 1.385 . S
C2768 C2766 1.478 . S
C2768 C2770 1.381 . S
C2768 C2774 1.383 . S
C2769 C2765 1.495 . S
C2769 H2775 0.971 . S
C2769 H2776 0.961 . S
C2769 H2777 0.960 . S
C2770 C2768 1.381 . S
C2770 C2771 1.394 . S
C2770 H2778 0.930 . S
C2771 C2770 1.394 . S
C2771 C2772 1.383 . S
C2771 H2779 0.929 . S
C2772 C2771 1.383 . S
C2772 C2773 1.377 . S
C2773 H2757 0.930 . S
C2773 C2772 1.377 . S
C2773 C2774 1.379 . S
C2774 H2758 0.931 . S
C2774 C2768 1.383 . S
C2774 C2773 1.379 . S
H2775 C2769 0.971 . S
H2776 C2769 0.961 . S
H2777 C2769 0.960 . S
H2778 C2770 0.930 . S
H2779 C2771 0.929 . S
H2780 C2788 0.929 . S
H2781 C2790 0.930 . S
H2782 C2792 0.930 . S
H2783 C2795 0.929 . S
H2784 C2798 0.930 . S
H2785 C2800 0.960 . S
H2786 C2800 0.960 . S
H2787 C2800 0.960 . S
C2788 H2780 0.929 . S
C2788 C2789 1.377 . S
C2788 C2790 1.384 . S
C2789 C2788 1.377 . S
C2789 C2795 1.390 . S
C2790 H2781 0.930 . S
C2790 C2788 1.384 . S
C2790 C2791 1.372 . S
C2791 C2790 1.372 . S
C2791 C2792 1.400 . S
C2791 C2796 1.503 . S
C2792 H2782 0.930 . S
C2792 C2791 1.400 . S
C2792 C2795 1.386 . S
H2793 C2809 0.930 . S
H2794 C2810 0.931 . S
C2795 H2783 0.929 . S
C2795 C2789 1.390 . S
C2795 C2792 1.386 . S
C2796 C2791 1.503 . S
C2796 C2798 1.382 1_556 S
C2796 C2799 1.403 1_556 S
H2797 C2803 0.930 . S
C2798 H2784 0.930 . S
C2798 C2796 1.382 1_554 S
C2798 C2801 1.403 . S
C2799 C2796 1.403 1_554 S
C2799 C2800 1.525 1_554 S
C2799 C2803 1.398 . S
C2800 H2785 0.960 . S
C2800 H2786 0.960 . S
C2800 H2787 0.960 . S
C2800 C2799 1.525 1_556 S
C2801 C2798 1.403 . S
C2801 C2802 1.392 . S
C2801 C2805 1.495 . S
C2802 C2801 1.392 . S
C2802 C2803 1.385 . S
C2802 C2804 1.478 . S
C2803 H2797 0.930 . S
C2803 C2799 1.398 . S
C2803 C2802 1.385 . S
C2804 C2802 1.478 . S
C2804 C2806 1.381 . S
C2804 C2810 1.383 . S
C2805 C2801 1.495 . S
C2805 H2811 0.959 . S
C2805 H2812 0.961 . S
C2805 H2813 0.960 . S
C2806 C2804 1.381 . S
C2806 C2807 1.394 . S
C2806 H2814 0.930 . S
C2807 C2806 1.394 . S
C2807 C2808 1.383 . S
C2807 H2815 0.929 . S
C2808 C2807 1.383 . S
C2808 C2809 1.377 . S
C2809 H2793 0.930 . S
C2809 C2808 1.377 . S
C2809 C2810 1.379 . S
C2810 H2794 0.931 . S
C2810 C2804 1.383 . S
C2810 C2809 1.379 . S
H2811 C2805 0.959 . S
H2812 C2805 0.961 . S
H2813 C2805 0.960 . S
H2814 C2806 0.930 . S
H2815 C2807 0.929 . S
H2816 C2824 0.929 . S
H2817 C2826 0.930 . S
H2818 C2828 0.930 . S
H2819 C2831 0.929 . S
H2820 C2834 0.930 . S
H2821 C2836 0.960 . S
H2822 C2836 0.960 1_545 S
H2823 C2836 0.966 . S
C2824 H2816 0.929 . S
C2824 C2825 1.377 . S
C2824 C2826 1.384 . S
C2825 C2824 1.377 . S
C2825 C2831 1.390 . S
C2826 H2817 0.930 . S
C2826 C2824 1.384 . S
C2826 C2827 1.372 . S
C2827 C2826 1.372 . S
C2827 C2828 1.400 . S
C2827 C2832 1.490 . S
C2828 H2818 0.930 . S
C2828 C2827 1.400 . S
C2828 C2831 1.386 . S
H2829 C2845 0.930 . S
H2830 C2846 0.931 . S
C2831 H2819 0.929 . S
C2831 C2825 1.390 . S
C2831 C2828 1.386 . S
C2832 C2827 1.490 . S
C2832 C2834 1.395 . S
C2832 C2835 1.403 . S
H2833 C2839 0.930 . S
C2834 H2820 0.930 . S
C2834 C2832 1.395 . S
C2834 C2837 1.403 . S
C2835 C2832 1.403 . S
C2835 C2836 1.524 1_545 S
C2835 C2839 1.400 1_545 S
C2836 H2821 0.960 . S
C2836 H2822 0.960 1_565 S
C2836 H2823 0.966 . S
C2836 C2835 1.524 1_565 S
C2837 C2834 1.403 . S
C2837 C2838 1.392 1_545 S
C2837 C2841 1.495 . S
C2838 C2837 1.392 1_565 S
C2838 C2839 1.385 . S
C2838 C2840 1.478 . S
C2839 H2833 0.930 . S
C2839 C2835 1.400 1_565 S
C2839 C2838 1.385 . S
C2840 C2838 1.478 . S
C2840 C2842 1.381 . S
C2840 C2846 1.383 . S
C2841 C2837 1.495 . S
C2841 H2847 0.959 . S
C2841 H2848 0.961 1_545 S
C2841 H2849 0.960 . S
C2842 C2840 1.381 . S
C2842 C2843 1.394 . S
C2842 H2850 0.930 . S
C2843 C2842 1.394 . S
C2843 C2844 1.383 . S
C2843 H2851 0.929 . S
C2844 C2843 1.383 . S
C2844 C2845 1.377 . S
C2845 H2829 0.930 . S
C2845 C2844 1.377 . S
C2845 C2846 1.379 . S
C2846 H2830 0.931 . S
C2846 C2840 1.383 . S
C2846 C2845 1.379 . S
H2847 C2841 0.959 . S
H2848 C2841 0.961 1_565 S
H2849 C2841 0.960 . S
H2850 C2842 0.930 . S
H2851 C2843 0.929 . S
H2852 C2860 0.929 . S
H2853 C2862 0.930 . S
H2854 C2864 0.930 . S
H2855 C2867 0.929 . S
H2856 C2870 0.930 . S
H2857 C2872 0.960 . S
H2858 C2872 0.960 . S
H2859 C2872 0.960 . S
C2860 H2852 0.929 . S
C2860 C2861 1.377 . S
C2860 C2862 1.384 . S
C2861 C2860 1.377 . S
C2861 C2867 1.390 . S
C2862 H2853 0.930 . S
C2862 C2860 1.384 . S
C2862 C2863 1.372 . S
C2863 C2862 1.372 . S
C2863 C2864 1.400 . S
C2863 C2868 1.490 . S
C2864 H2854 0.930 . S
C2864 C2863 1.400 . S
C2864 C2867 1.386 . S
H2865 C2881 0.930 . S
H2866 C2882 0.931 . S
C2867 H2855 0.929 . S
C2867 C2861 1.390 . S
C2867 C2864 1.386 . S
C2868 C2863 1.490 . S
C2868 C2870 1.395 . S
C2868 C2871 1.403 . S
H2869 C2875 0.930 . S
C2870 H2856 0.930 . S
C2870 C2868 1.395 . S
C2870 C2873 1.403 . S
C2871 C2868 1.403 . S
C2871 C2872 1.524 . S
C2871 C2875 1.400 . S
C2872 H2857 0.960 . S
C2872 H2858 0.960 . S
C2872 H2859 0.960 . S
C2872 C2871 1.524 . S
C2873 C2870 1.403 . S
C2873 C2874 1.392 . S
C2873 C2877 1.495 . S
C2874 C2873 1.392 . S
C2874 C2875 1.385 . S
C2874 C2876 1.478 . S
C2875 H2869 0.930 . S
C2875 C2871 1.400 . S
C2875 C2874 1.385 . S
C2876 C2874 1.478 . S
C2876 C2878 1.381 . S
C2876 C2882 1.383 . S
C2877 C2873 1.495 . S
C2877 H2883 0.959 . S
C2877 H2884 0.961 . S
C2877 H2885 0.960 . S
C2878 C2876 1.381 . S
C2878 C2879 1.394 . S
C2878 H2886 0.930 . S
C2879 C2878 1.394 . S
C2879 C2880 1.383 . S
C2879 H2887 0.929 . S
C2880 C2879 1.383 . S
C2880 C2881 1.377 . S
C2881 H2865 0.930 . S
C2881 C2880 1.377 . S
C2881 C2882 1.379 . S
C2882 H2866 0.931 . S
C2882 C2876 1.383 . S
C2882 C2881 1.379 . S
H2883 C2877 0.959 . S
H2884 C2877 0.961 . S
H2885 C2877 0.960 . S
H2886 C2878 0.930 . S
H2887 C2879 0.929 . S
H2888 C2896 0.929 . S
H2889 C2898 0.930 . S
H2890 C2900 0.930 . S
H2891 C2903 0.929 . S
H2892 C2906 0.930 . S
H2893 C2908 0.960 . S
H2894 C2908 0.960 . S
H2895 C2908 0.960 . S
C2896 H2888 0.929 . S
C2896 C2897 1.377 . S
C2896 C2898 1.384 . S
C2897 C2896 1.377 . S
C2897 C2903 1.390 . S
C2898 H2889 0.930 . S
C2898 C2896 1.384 . S
C2898 C2899 1.372 . S
C2899 C2898 1.372 . S
C2899 C2900 1.400 . S
C2899 C2904 1.490 . S
C2900 H2890 0.930 . S
C2900 C2899 1.400 . S
C2900 C2903 1.386 . S
H2901 C2917 0.930 . S
H2902 C2918 0.931 . S
C2903 H2891 0.929 . S
C2903 C2897 1.390 . S
C2903 C2900 1.386 . S
C2904 C2899 1.490 . S
C2904 C2906 1.395 . S
C2904 C2907 1.403 . S
H2905 C2911 0.930 . S
C2906 H2892 0.930 . S
C2906 C2904 1.395 . S
C2906 C2909 1.403 1_545 S
C2907 C2904 1.403 . S
C2907 C2908 1.524 . S
C2907 C2911 1.400 1_545 S
C2908 H2893 0.960 . S
C2908 H2894 0.960 . S
C2908 H2895 0.960 . S
C2908 C2907 1.524 . S
C2909 C2906 1.403 1_565 S
C2909 C2910 1.392 . S
C2909 C2913 1.495 . S
C2910 C2909 1.392 . S
C2910 C2911 1.385 . S
C2910 C2912 1.478 . S
C2911 H2905 0.930 . S
C2911 C2907 1.400 1_565 S
C2911 C2910 1.385 . S
C2912 C2910 1.478 . S
C2912 C2914 1.381 . S
C2912 C2918 1.383 . S
C2913 C2909 1.495 . S
C2913 H2919 0.959 . S
C2913 H2920 0.961 . S
C2913 H2921 0.960 . S
C2914 C2912 1.381 . S
C2914 C2915 1.394 . S
C2914 H2922 0.930 . S
C2915 C2914 1.394 . S
C2915 C2916 1.383 . S
C2915 H2923 0.929 . S
C2916 C2915 1.383 . S
C2916 C2917 1.377 . S
C2917 H2901 0.930 . S
C2917 C2916 1.377 . S
C2917 C2918 1.379 . S
C2918 H2902 0.931 . S
C2918 C2912 1.383 . S
C2918 C2917 1.379 . S
H2919 C2913 0.959 . S
H2920 C2913 0.961 . S
H2921 C2913 0.960 . S
H2922 C2914 0.930 . S
H2923 C2915 0.929 . S
H2924 C2932 0.929 . S
H2925 C2934 0.930 . S
H2926 C2936 0.930 . S
H2927 C2939 0.929 . S
H2928 C2942 0.930 . S
H2929 C2944 0.960 . S
H2930 C2944 0.960 . S
H2931 C2944 0.960 . S
C2932 H2924 0.929 . S
C2932 C2933 1.377 . S
C2932 C2934 1.384 . S
C2933 C2932 1.377 . S
C2933 C2939 1.390 . S
C2934 H2925 0.930 . S
C2934 C2932 1.384 . S
C2934 C2935 1.372 . S
C2935 C2934 1.372 . S
C2935 C2936 1.400 . S
C2935 C2940 1.498 . S
C2936 H2926 0.930 . S
C2936 C2935 1.400 . S
C2936 C2939 1.386 . S
H2937 C2953 0.930 . S
H2938 C2954 0.931 . S
C2939 H2927 0.929 . S
C2939 C2933 1.390 . S
C2939 C2936 1.386 . S
C2940 C2935 1.498 . S
C2940 C2942 1.400 . S
C2940 C2943 1.389 1_556 S
H2941 C2947 0.930 . S
C2942 H2928 0.930 . S
C2942 C2940 1.400 . S
C2942 C2945 1.403 1_556 S
C2943 C2940 1.389 1_554 S
C2943 C2944 1.524 . S
C2943 C2947 1.400 . S
C2944 H2929 0.960 . S
C2944 H2930 0.960 . S
C2944 H2931 0.960 . S
C2944 C2943 1.524 . S
C2945 C2942 1.403 1_554 S
C2945 C2946 1.392 . S
C2945 C2949 1.495 1_554 S
C2946 C2945 1.392 . S
C2946 C2947 1.385 . S
C2946 C2948 1.478 . S
C2947 H2941 0.930 . S
C2947 C2943 1.400 . S
C2947 C2946 1.385 . S
C2948 C2946 1.478 . S
C2948 C2950 1.381 . S
C2948 C2954 1.383 . S
C2949 C2945 1.495 1_556 S
C2949 H2955 0.959 . S
C2949 H2956 0.961 . S
C2949 H2957 0.960 1_556 S
C2950 C2948 1.381 . S
C2950 C2951 1.394 . S
C2950 H2958 0.930 . S
C2951 C2950 1.394 . S
C2951 C2952 1.383 . S
C2951 H2959 0.929 . S
C2952 C2951 1.383 . S
C2952 C2953 1.377 . S
C2953 H2937 0.930 . S
C2953 C2952 1.377 . S
C2953 C2954 1.379 . S
C2954 H2938 0.931 . S
C2954 C2948 1.383 . S
C2954 C2953 1.379 . S
H2955 C2949 0.959 . S
H2956 C2949 0.961 . S
H2957 C2949 0.960 1_554 S
H2958 C2950 0.930 . S
H2959 C2951 0.929 . S
H2960 C2968 0.929 . S
H2961 C2970 0.930 . S
H2962 C2972 0.930 . S
H2963 C2975 0.929 . S
H2964 C2978 0.930 . S
H2965 C2980 0.960 . S
H2966 C2980 0.960 . S
H2967 C2980 0.960 . S
C2968 H2960 0.929 . S
C2968 C2969 1.377 . S
C2968 C2970 1.384 . S
C2969 C2968 1.377 . S
C2969 C2975 1.390 . S
C2970 H2961 0.930 . S
C2970 C2968 1.384 . S
C2970 C2971 1.372 . S
C2971 C2970 1.372 . S
C2971 C2972 1.400 . S
C2971 C2976 1.490 . S
C2972 H2962 0.930 . S
C2972 C2971 1.400 . S
C2972 C2975 1.386 . S
H2973 C2989 0.930 . S
H2974 C2990 0.931 . S
C2975 H2963 0.929 . S
C2975 C2969 1.390 . S
C2975 C2972 1.386 . S
C2976 C2971 1.490 . S
C2976 C2978 1.395 1_565 S
C2976 C2979 1.403 . S
H2977 C2983 0.946 . S
C2978 H2964 0.930 . S
C2978 C2976 1.395 1_545 S
C2978 C2981 1.403 . S
C2979 C2976 1.403 . S
C2979 C2980 1.524 . S
C2979 C2983 1.465 . S
C2980 H2965 0.960 . S
C2980 H2966 0.960 . S
C2980 H2967 0.960 . S
C2980 C2979 1.524 . S
C2981 C2978 1.403 . S
C2981 C2982 1.392 . S
C2981 C2985 1.495 . S
C2982 C2981 1.392 . S
C2982 C2983 1.310 1_545 S
C2982 C2984 1.478 . S
C2983 H2977 0.946 . S
C2983 C2979 1.465 . S
C2983 C2982 1.310 1_565 S
C2984 C2982 1.478 . S
C2984 C2986 1.381 . S
C2984 C2990 1.383 . S
C2985 C2981 1.495 . S
C2985 H2991 0.959 . S
C2985 H2992 0.961 . S
C2985 H2993 0.960 . S
C2986 C2984 1.381 . S
C2986 C2987 1.394 . S
C2986 H2994 0.930 . S
C2987 C2986 1.394 . S
C2987 C2988 1.383 . S
C2987 H2995 0.929 . S
C2988 C2987 1.383 . S
C2988 C2989 1.377 . S
C2989 H2973 0.930 . S
C2989 C2988 1.377 . S
C2989 C2990 1.379 . S
C2990 H2974 0.931 . S
C2990 C2984 1.383 . S
C2990 C2989 1.379 . S
H2991 C2985 0.959 . S
H2992 C2985 0.961 . S
H2993 C2985 0.960 . S
H2994 C2986 0.930 . S
H2995 C2987 0.929 . S
H2996 C3004 0.929 . S
H2997 C3006 0.930 . S
H2998 C3008 0.930 . S
H2999 C3011 0.929 . S
H3000 C3014 0.930 . S
H3001 C3016 0.960 . S
H3002 C3016 0.960 . S
H3003 C3016 0.960 . S
C3004 H2996 0.929 . S
C3004 C3005 1.377 . S
C3004 C3006 1.384 . S
C3005 C3004 1.377 . S
C3005 C3011 1.390 . S
C3006 H2997 0.930 . S
C3006 C3004 1.384 . S
C3006 C3007 1.372 . S
C3007 C3006 1.372 . S
C3007 C3008 1.400 . S
C3007 C3012 1.490 . S
C3008 H2998 0.930 . S
C3008 C3007 1.400 . S
C3008 C3011 1.386 . S
H3009 C3025 0.930 . S
H3010 C3026 0.931 . S
C3011 H2999 0.929 . S
C3011 C3005 1.390 . S
C3011 C3008 1.386 . S
C3012 C3007 1.490 . S
C3012 C3014 1.395 . S
C3012 C3015 1.403 . S
H3013 C3019 0.930 . S
C3014 H3000 0.930 . S
C3014 C3012 1.395 . S
C3014 C3017 1.403 . S
C3015 C3012 1.403 . S
C3015 C3016 1.524 . S
C3015 C3019 1.400 . S
C3016 H3001 0.960 . S
C3016 H3002 0.960 . S
C3016 H3003 0.960 . S
C3016 C3015 1.524 . S
C3017 C3014 1.403 . S
C3017 C3018 1.392 . S
C3017 C3021 1.495 . S
C3018 C3017 1.392 . S
C3018 C3019 1.385 . S
C3018 C3020 1.478 . S
C3019 H3013 0.930 . S
C3019 C3015 1.400 . S
C3019 C3018 1.385 . S
C3020 C3018 1.478 . S
C3020 C3022 1.381 . S
C3020 C3026 1.383 . S
C3021 C3017 1.495 . S
C3021 H3027 0.959 . S
C3021 H3028 0.961 . S
C3021 H3029 0.960 . S
C3022 C3020 1.381 . S
C3022 C3023 1.394 . S
C3022 H3030 0.930 . S
C3023 C3022 1.394 . S
C3023 C3024 1.383 . S
C3023 H3031 0.929 . S
C3024 C3023 1.383 . S
C3024 C3025 1.377 . S
C3025 H3009 0.930 . S
C3025 C3024 1.377 . S
C3025 C3026 1.379 . S
C3026 H3010 0.931 . S
C3026 C3020 1.383 . S
C3026 C3025 1.379 . S
H3027 C3021 0.959 . S
H3028 C3021 0.961 . S
H3029 C3021 0.960 . S
H3030 C3022 0.930 . S
H3031 C3023 0.929 . S
H3032 C3040 0.929 . S
H3033 C3042 0.930 . S
H3034 C3044 0.930 . S
H3035 C3047 0.929 . S
H3036 C3050 0.930 . S
H3037 C3052 0.960 . S
H3038 C3052 0.960 . S
H3039 C3052 0.960 . S
C3040 H3032 0.929 . S
C3040 C3041 1.377 . S
C3040 C3042 1.384 . S
C3041 C3040 1.377 . S
C3041 C3047 1.390 . S
C3042 H3033 0.930 . S
C3042 C3040 1.384 . S
C3042 C3043 1.372 . S
C3043 C3042 1.372 . S
C3043 C3044 1.400 . S
C3043 C3048 1.490 . S
C3044 H3034 0.930 . S
C3044 C3043 1.400 . S
C3044 C3047 1.386 . S
H3045 C3061 0.930 . S
H3046 C3062 0.931 . S
C3047 H3035 0.929 . S
C3047 C3041 1.390 . S
C3047 C3044 1.386 . S
C3048 C3043 1.490 . S
C3048 C3050 1.395 . S
C3048 C3051 1.403 . S
H3049 C3055 0.930 . S
C3050 H3036 0.930 . S
C3050 C3048 1.395 . S
C3050 C3053 1.403 1_565 S
C3051 C3048 1.403 . S
C3051 C3052 1.524 . S
C3051 C3055 1.400 1_565 S
C3052 H3037 0.960 . S
C3052 H3038 0.960 . S
C3052 H3039 0.960 . S
C3052 C3051 1.524 . S
C3053 C3050 1.403 1_545 S
C3053 C3054 1.392 . S
C3053 C3057 1.495 . S
C3054 C3053 1.392 . S
C3054 C3055 1.385 . S
C3054 C3056 1.478 . S
C3055 H3049 0.930 . S
C3055 C3051 1.400 1_545 S
C3055 C3054 1.385 . S
C3056 C3054 1.478 . S
C3056 C3058 1.381 . S
C3056 C3062 1.383 . S
C3057 C3053 1.495 . S
C3057 H3063 0.959 . S
C3057 H3064 0.961 . S
C3057 H3065 0.960 . S
C3058 C3056 1.381 . S
C3058 C3059 1.394 . S
C3058 H3066 0.930 . S
C3059 C3058 1.394 . S
C3059 C3060 1.383 . S
C3059 H3067 0.929 . S
C3060 C3059 1.383 . S
C3060 C3061 1.377 . S
C3061 H3045 0.930 . S
C3061 C3060 1.377 . S
C3061 C3062 1.379 . S
C3062 H3046 0.931 . S
C3062 C3056 1.383 . S
C3062 C3061 1.379 . S
H3063 C3057 0.959 . S
H3064 C3057 0.961 . S
H3065 C3057 0.960 . S
H3066 C3058 0.930 . S
H3067 C3059 0.929 . S
H3068 C3076 0.929 . S
H3069 C3078 0.930 . S
H3070 C3080 0.930 . S
H3071 C3083 0.929 . S
H3072 C3086 0.930 . S
H3073 C3088 0.960 . S
H3074 C3088 0.960 . S
H3075 C3088 0.960 . S
C3076 H3068 0.929 . S
C3076 C3077 1.377 . S
C3076 C3078 1.384 . S
C3077 C3076 1.377 . S
C3077 C3083 1.390 . S
C3078 H3069 0.930 . S
C3078 C3076 1.384 . S
C3078 C3079 1.372 . S
C3079 C3078 1.372 . S
C3079 C3080 1.400 . S
C3079 C3084 1.490 . S
C3080 H3070 0.930 . S
C3080 C3079 1.400 . S
C3080 C3083 1.386 . S
H3081 C3097 0.930 . S
H3082 C3098 0.931 . S
C3083 H3071 0.929 . S
C3083 C3077 1.390 . S
C3083 C3080 1.386 . S
C3084 C3079 1.490 . S
C3084 C3086 1.395 . S
C3084 C3087 1.403 . S
H3085 C3091 0.930 . S
C3086 H3072 0.930 . S
C3086 C3084 1.395 . S
C3086 C3089 1.403 1_554 S
C3087 C3084 1.403 . S
C3087 C3088 1.524 . S
C3087 C3091 1.400 . S
C3088 H3073 0.960 . S
C3088 H3074 0.960 . S
C3088 H3075 0.960 . S
C3088 C3087 1.524 . S
C3089 C3086 1.403 1_556 S
C3089 C3090 1.392 . S
C3089 C3093 1.495 . S
C3090 C3089 1.392 . S
C3090 C3091 1.385 1_556 S
C3090 C3092 1.478 . S
C3091 H3085 0.930 . S
C3091 C3087 1.400 . S
C3091 C3090 1.385 1_554 S
C3092 C3090 1.478 . S
C3092 C3094 1.381 . S
C3092 C3098 1.383 . S
C3093 C3089 1.495 . S
C3093 H3099 0.959 . S
C3093 H3100 0.961 . S
C3093 H3101 0.960 . S
C3094 C3092 1.381 . S
C3094 C3095 1.394 . S
C3094 H3102 0.930 . S
C3095 C3094 1.394 . S
C3095 C3096 1.383 . S
C3095 H3103 0.929 . S
C3096 C3095 1.383 . S
C3096 C3097 1.377 . S
C3097 H3081 0.930 . S
C3097 C3096 1.377 . S
C3097 C3098 1.379 . S
C3098 H3082 0.931 . S
C3098 C3092 1.383 . S
C3098 C3097 1.379 . S
H3099 C3093 0.959 . S
H3100 C3093 0.961 . S
H3101 C3093 0.960 . S
H3102 C3094 0.930 . S
H3103 C3095 0.929 . S
H3104 C3112 0.929 . S
H3105 C3114 0.930 . S
H3106 C3116 0.930 . S
H3107 C3119 0.929 . S
H3108 C3122 0.930 . S
H3109 C3124 0.960 . S
H3110 C3124 0.960 . S
H3111 C3124 0.960 . S
C3112 H3104 0.929 . S
C3112 C3113 1.377 . S
C3112 C3114 1.384 . S
C3113 C3112 1.377 . S
C3113 C3119 1.390 . S
C3114 H3105 0.930 . S
C3114 C3112 1.384 . S
C3114 C3115 1.372 . S
C3115 C3114 1.372 . S
C3115 C3116 1.400 . S
C3115 C3120 1.490 . S
C3116 H3106 0.930 . S
C3116 C3115 1.400 . S
C3116 C3119 1.386 . S
H3117 C3133 0.930 . S
H3118 C3134 0.931 . S
C3119 H3107 0.929 . S
C3119 C3113 1.390 . S
C3119 C3116 1.386 . S
C3120 C3115 1.490 . S
C3120 C3122 1.395 . S
C3120 C3123 1.403 . S
H3121 C3127 0.930 . S
C3122 H3108 0.930 . S
C3122 C3120 1.395 . S
C3122 C3125 1.403 . S
C3123 C3120 1.403 . S
C3123 C3124 1.524 . S
C3123 C3127 1.400 . S
C3124 H3109 0.960 . S
C3124 H3110 0.960 . S
C3124 H3111 0.960 . S
C3124 C3123 1.524 . S
C3125 C3122 1.403 . S
C3125 C3126 1.392 . S
C3125 C3129 1.495 . S
C3126 C3125 1.392 . S
C3126 C3127 1.385 . S
C3126 C3128 1.478 . S
C3127 H3121 0.930 . S
C3127 C3123 1.400 . S
C3127 C3126 1.385 . S
C3128 C3126 1.478 . S
C3128 C3130 1.381 . S
C3128 C3134 1.383 . S
C3129 C3125 1.495 . S
C3129 H3135 0.959 . S
C3129 H3136 0.961 . S
C3129 H3137 0.960 . S
C3130 C3128 1.381 . S
C3130 C3131 1.394 . S
C3130 H3138 0.930 . S
C3131 C3130 1.394 . S
C3131 C3132 1.383 . S
C3131 H3139 0.929 . S
C3132 C3131 1.383 . S
C3132 C3133 1.377 . S
C3133 H3117 0.930 . S
C3133 C3132 1.377 . S
C3133 C3134 1.379 . S
C3134 H3118 0.931 . S
C3134 C3128 1.383 . S
C3134 C3133 1.379 . S
H3135 C3129 0.959 . S
H3136 C3129 0.961 . S
H3137 C3129 0.960 . S
H3138 C3130 0.930 . S
H3139 C3131 0.929 . S
H3140 C3148 0.929 . S
H3141 C3150 0.930 . S
H3142 C3152 0.930 . S
H3143 C3155 0.929 . S
H3144 C3158 0.930 . S
H3145 C3160 0.960 . S
H3146 C3160 0.960 . S
H3147 C3160 0.960 . S
C3148 H3140 0.929 . S
C3148 C3149 1.377 . S
C3148 C3150 1.384 . S
C3149 C3148 1.377 . S
C3149 C3155 1.390 . S
C3150 H3141 0.930 . S
C3150 C3148 1.384 . S
C3150 C3151 1.372 . S
C3151 C3150 1.372 . S
C3151 C3152 1.400 . S
C3151 C3156 1.490 1_556 S
C3152 H3142 0.930 . S
C3152 C3151 1.400 . S
C3152 C3155 1.386 . S
H3153 C3169 0.930 . S
H3154 C3170 0.931 . S
C3155 H3143 0.929 . S
C3155 C3149 1.390 . S
C3155 C3152 1.386 . S
C3156 C3151 1.490 1_554 S
C3156 C3158 1.395 . S
C3156 C3159 1.403 1_554 S
H3157 C3163 0.930 . S
C3158 H3144 0.930 . S
C3158 C3156 1.395 . S
C3158 C3161 1.403 . S
C3159 C3156 1.403 1_556 S
C3159 C3160 1.524 . S
C3159 C3163 1.400 1_556 S
C3160 H3145 0.960 . S
C3160 H3146 0.960 . S
C3160 H3147 0.960 . S
C3160 C3159 1.524 . S
C3161 C3158 1.403 . S
C3161 C3162 1.392 . S
C3161 C3165 1.495 . S
C3162 C3161 1.392 . S
C3162 C3163 1.385 . S
C3162 C3164 1.478 . S
C3163 H3157 0.930 . S
C3163 C3159 1.400 1_554 S
C3163 C3162 1.385 . S
C3164 C3162 1.478 . S
C3164 C3166 1.381 . S
C3164 C3170 1.383 . S
C3165 C3161 1.495 . S
C3165 H3171 0.959 . S
C3165 H3172 0.961 . S
C3165 H3173 0.960 . S
C3166 C3164 1.381 . S
C3166 C3167 1.394 . S
C3166 H3174 0.930 . S
C3167 C3166 1.394 . S
C3167 C3168 1.383 . S
C3167 H3175 0.929 . S
C3168 C3167 1.383 . S
C3168 C3169 1.377 . S
C3169 H3153 0.930 . S
C3169 C3168 1.377 . S
C3169 C3170 1.379 . S
C3170 H3154 0.931 . S
C3170 C3164 1.383 . S
C3170 C3169 1.379 . S
H3171 C3165 0.959 . S
H3172 C3165 0.961 . S
H3173 C3165 0.960 . S
H3174 C3166 0.930 . S
H3175 C3167 0.929 . S
H3176 C3184 0.929 . S
H3177 C3186 0.930 . S
H3178 C3188 0.930 . S
H3179 C3191 0.929 . S
H3180 C3194 0.930 . S
H3181 C3196 0.960 . S
H3182 C3196 0.960 . S
H3183 C3196 0.960 . S
C3184 H3176 0.929 . S
C3184 C3185 1.377 . S
C3184 C3186 1.384 . S
C3185 C3184 1.377 . S
C3185 C3191 1.390 . S
C3186 H3177 0.930 . S
C3186 C3184 1.384 . S
C3186 C3187 1.372 . S
C3187 C3186 1.372 . S
C3187 C3188 1.400 . S
C3187 C3192 1.490 . S
C3188 H3178 0.930 . S
C3188 C3187 1.400 . S
C3188 C3191 1.386 . S
H3189 C3205 0.930 . S
H3190 C3206 0.931 . S
C3191 H3179 0.929 . S
C3191 C3185 1.390 . S
C3191 C3188 1.386 . S
C3192 C3187 1.490 . S
C3192 C3194 1.395 . S
C3192 C3195 1.403 . S
H3193 C3199 0.930 . S
C3194 H3180 0.930 . S
C3194 C3192 1.395 . S
C3194 C3197 1.403 . S
C3195 C3192 1.403 . S
C3195 C3196 1.524 . S
C3195 C3199 1.400 . S
C3196 H3181 0.960 . S
C3196 H3182 0.960 . S
C3196 H3183 0.960 . S
C3196 C3195 1.524 . S
C3197 C3194 1.403 . S
C3197 C3198 1.392 . S
C3197 C3201 1.495 . S
C3198 C3197 1.392 . S
C3198 C3199 1.385 . S
C3198 C3200 1.478 . S
C3199 H3193 0.930 . S
C3199 C3195 1.400 . S
C3199 C3198 1.385 . S
C3200 C3198 1.478 . S
C3200 C3202 1.381 . S
C3200 C3206 1.383 . S
C3201 C3197 1.495 . S
C3201 H3207 0.959 . S
C3201 H3208 0.961 . S
C3201 H3209 0.960 . S
C3202 C3200 1.381 . S
C3202 C3203 1.394 . S
C3202 H3210 0.930 . S
C3203 C3202 1.394 . S
C3203 C3204 1.383 . S
C3203 H3211 0.929 . S
C3204 C3203 1.383 . S
C3204 C3205 1.377 . S
C3205 H3189 0.930 . S
C3205 C3204 1.377 . S
C3205 C3206 1.379 . S
C3206 H3190 0.931 . S
C3206 C3200 1.383 . S
C3206 C3205 1.379 . S
H3207 C3201 0.959 . S
H3208 C3201 0.961 . S
H3209 C3201 0.960 . S
H3210 C3202 0.930 . S
H3211 C3203 0.929 . S
H3212 C3220 0.929 . S
H3213 C3222 0.930 . S
H3214 C3224 0.930 . S
H3215 C3227 0.929 . S
H3216 C3230 0.930 . S
H3217 C3232 0.960 . S
H3218 C3232 0.960 . S
H3219 C3232 0.960 . S
C3220 H3212 0.929 . S
C3220 C3221 1.377 . S
C3220 C3222 1.384 . S
C3221 C3220 1.377 . S
C3221 C3227 1.390 . S
C3222 H3213 0.930 . S
C3222 C3220 1.384 . S
C3222 C3223 1.372 . S
C3223 C3222 1.372 . S
C3223 C3224 1.400 . S
C3223 C3228 1.490 . S
C3224 H3214 0.930 . S
C3224 C3223 1.400 . S
C3224 C3227 1.386 . S
H3225 C3241 0.930 . S
H3226 C3242 0.931 . S
C3227 H3215 0.929 . S
C3227 C3221 1.390 . S
C3227 C3224 1.386 . S
C3228 C3223 1.490 . S
C3228 C3230 1.395 . S
C3228 C3231 1.403 . S
H3229 C3235 0.930 . S
C3230 H3216 0.930 . S
C3230 C3228 1.395 . S
C3230 C3233 1.403 . S
C3231 C3228 1.403 . S
C3231 C3232 1.524 . S
C3231 C3235 1.400 . S
C3232 H3217 0.960 . S
C3232 H3218 0.960 . S
C3232 H3219 0.960 . S
C3232 C3231 1.524 . S
C3233 C3230 1.403 . S
C3233 C3234 1.392 . S
C3233 C3237 1.495 . S
C3234 C3233 1.392 . S
C3234 C3235 1.385 . S
C3234 C3236 1.478 . S
C3235 H3229 0.930 . S
C3235 C3231 1.400 . S
C3235 C3234 1.385 . S
C3236 C3234 1.478 . S
C3236 C3238 1.381 . S
C3236 C3242 1.383 . S
C3237 C3233 1.495 . S
C3237 H3243 0.959 . S
C3237 H3244 0.961 . S
C3237 H3245 0.960 . S
C3238 C3236 1.381 . S
C3238 C3239 1.394 . S
C3238 H3246 0.930 . S
C3239 C3238 1.394 . S
C3239 C3240 1.383 . S
C3239 H3247 0.929 . S
C3240 C3239 1.383 . S
C3240 C3241 1.377 . S
C3241 H3225 0.930 . S
C3241 C3240 1.377 . S
C3241 C3242 1.379 . S
C3242 H3226 0.931 . S
C3242 C3236 1.383 . S
C3242 C3241 1.379 . S
H3243 C3237 0.959 . S
H3244 C3237 0.961 . S
H3245 C3237 0.960 . S
H3246 C3238 0.930 . S
H3247 C3239 0.929 . S
H3248 C3256 0.929 . S
H3249 C3258 0.930 . S
H3250 C3260 0.930 . S
H3251 C3263 0.929 . S
H3252 C3266 0.930 . S
H3253 C3268 0.960 . S
H3254 C3268 0.960 . S
H3255 C3268 0.960 . S
C3256 H3248 0.929 . S
C3256 C3257 1.377 . S
C3256 C3258 1.384 . S
C3257 C3256 1.377 . S
C3257 C3263 1.390 . S
C3258 H3249 0.930 . S
C3258 C3256 1.384 . S
C3258 C3259 1.372 . S
C3259 C3258 1.372 . S
C3259 C3260 1.400 . S
C3259 C3264 1.490 . S
C3260 H3250 0.930 . S
C3260 C3259 1.400 . S
C3260 C3263 1.386 . S
H3261 C3277 0.930 . S
H3262 C3278 0.931 . S
C3263 H3251 0.929 . S
C3263 C3257 1.390 . S
C3263 C3260 1.386 . S
C3264 C3259 1.490 . S
C3264 C3266 1.395 . S
C3264 C3267 1.403 . S
H3265 C3271 0.930 . S
C3266 H3252 0.930 . S
C3266 C3264 1.395 . S
C3266 C3269 1.403 . S
C3267 C3264 1.403 . S
C3267 C3268 1.524 . S
C3267 C3271 1.400 . S
C3268 H3253 0.960 . S
C3268 H3254 0.960 . S
C3268 H3255 0.960 . S
C3268 C3267 1.524 . S
C3269 C3266 1.403 . S
C3269 C3270 1.392 . S
C3269 C3273 1.495 . S
C3270 C3269 1.392 . S
C3270 C3271 1.385 . S
C3270 C3272 1.478 . S
C3271 H3265 0.930 . S
C3271 C3267 1.400 . S
C3271 C3270 1.385 . S
C3272 C3270 1.478 . S
C3272 C3274 1.381 . S
C3272 C3278 1.383 . S
C3273 C3269 1.495 . S
C3273 H3279 0.959 . S
C3273 H3280 0.961 . S
C3273 H3281 0.960 . S
C3274 C3272 1.381 . S
C3274 C3275 1.394 . S
C3274 H3282 0.930 . S
C3275 C3274 1.394 . S
C3275 C3276 1.383 . S
C3275 H3283 0.929 . S
C3276 C3275 1.383 . S
C3276 C3277 1.377 . S
C3277 H3261 0.930 . S
C3277 C3276 1.377 . S
C3277 C3278 1.379 . S
C3278 H3262 0.931 . S
C3278 C3272 1.383 . S
C3278 C3277 1.379 . S
H3279 C3273 0.959 . S
H3280 C3273 0.961 . S
H3281 C3273 0.960 . S
H3282 C3274 0.930 . S
H3283 C3275 0.929 . S
H3284 C3292 0.929 . S
H3285 C3294 0.930 . S
H3286 C3296 0.930 . S
H3287 C3299 0.929 . S
H3288 C3302 0.930 . S
H3289 C3304 0.960 . S
H3290 C3304 0.960 . S
H3291 C3304 0.960 . S
C3292 H3284 0.929 . S
C3292 C3293 1.377 . S
C3292 C3294 1.384 . S
C3293 C3292 1.377 . S
C3293 C3299 1.390 . S
C3294 H3285 0.930 . S
C3294 C3292 1.384 . S
C3294 C3295 1.372 . S
C3295 C3294 1.372 . S
C3295 C3296 1.400 . S
C3295 C3300 1.490 . S
C3296 H3286 0.930 . S
C3296 C3295 1.400 . S
C3296 C3299 1.386 . S
H3297 C3313 0.930 . S
H3298 C3314 0.931 . S
C3299 H3287 0.929 . S
C3299 C3293 1.390 . S
C3299 C3296 1.386 . S
C3300 C3295 1.490 . S
C3300 C3302 1.395 . S
C3300 C3303 1.403 . S
H3301 C3307 0.930 1_556 S
C3302 H3288 0.930 . S
C3302 C3300 1.395 . S
C3302 C3305 1.403 . S
C3303 C3300 1.403 . S
C3303 C3304 1.524 . S
C3303 C3307 1.400 . S
C3304 H3289 0.960 . S
C3304 H3290 0.960 . S
C3304 H3291 0.960 . S
C3304 C3303 1.524 . S
C3305 C3302 1.403 . S
C3305 C3306 1.399 . S
C3305 C3309 1.495 . S
C3306 C3305 1.399 . S
C3306 C3307 1.385 . S
C3306 C3308 1.471 1_554 S
C3307 H3301 0.930 1_554 S
C3307 C3303 1.400 . S
C3307 C3306 1.385 . S
C3308 C3306 1.471 1_556 S
C3308 C3310 1.381 . S
C3308 C3314 1.383 . S
C3309 C3305 1.495 . S
C3309 H3315 0.959 . S
C3309 H3316 0.961 . S
C3309 H3317 0.960 . S
C3310 C3308 1.381 . S
C3310 C3311 1.394 . S
C3310 H3318 0.930 . S
C3311 C3310 1.394 . S
C3311 C3312 1.383 . S
C3311 H3319 0.929 . S
C3312 C3311 1.383 . S
C3312 C3313 1.377 . S
C3313 H3297 0.930 . S
C3313 C3312 1.377 . S
C3313 C3314 1.379 . S
C3314 H3298 0.931 . S
C3314 C3308 1.383 . S
C3314 C3313 1.379 . S
H3315 C3309 0.959 . S
H3316 C3309 0.961 . S
H3317 C3309 0.960 . S
H3318 C3310 0.930 . S
H3319 C3311 0.929 . S
H3320 C3328 0.929 . S
H3321 C3330 0.930 . S
H3322 C3332 0.930 . S
H3323 C3335 0.929 . S
H3324 C3338 0.930 . S
H3325 C3340 0.960 . S
H3326 C3340 0.960 . S
H3327 C3340 0.960 . S
C3328 H3320 0.929 . S
C3328 C3329 1.377 . S
C3328 C3330 1.384 . S
C3329 C3328 1.377 . S
C3329 C3335 1.390 . S
C3330 H3321 0.930 . S
C3330 C3328 1.384 . S
C3330 C3331 1.372 . S
C3331 C3330 1.372 . S
C3331 C3332 1.400 . S
C3331 C3336 1.490 . S
C3332 H3322 0.930 . S
C3332 C3331 1.400 . S
C3332 C3335 1.386 . S
H3333 C3349 0.930 . S
H3334 C3350 0.931 . S
C3335 H3323 0.929 . S
C3335 C3329 1.390 . S
C3335 C3332 1.386 . S
C3336 C3331 1.490 . S
C3336 C3338 1.395 . S
C3336 C3339 1.403 . S
H3337 C3343 0.930 . S
C3338 H3324 0.930 . S
C3338 C3336 1.395 . S
C3338 C3341 1.403 . S
C3339 C3336 1.403 . S
C3339 C3340 1.524 . S
C3339 C3343 1.400 . S
C3340 H3325 0.960 . S
C3340 H3326 0.960 . S
C3340 H3327 0.960 . S
C3340 C3339 1.524 . S
C3341 C3338 1.403 . S
C3341 C3342 1.392 . S
C3341 C3345 1.495 . S
C3342 C3341 1.392 . S
C3342 C3343 1.385 . S
C3342 C3344 1.478 . S
C3343 H3337 0.930 . S
C3343 C3339 1.400 . S
C3343 C3342 1.385 . S
C3344 C3342 1.478 . S
C3344 C3346 1.381 . S
C3344 C3350 1.383 . S
C3345 C3341 1.495 . S
C3345 H3351 0.959 . S
C3345 H3352 0.961 . S
C3345 H3353 0.960 . S
C3346 C3344 1.381 . S
C3346 C3347 1.394 . S
C3346 H3354 0.930 . S
C3347 C3346 1.394 . S
C3347 C3348 1.383 . S
C3347 H3355 0.929 . S
C3348 C3347 1.383 . S
C3348 C3349 1.377 . S
C3349 H3333 0.930 . S
C3349 C3348 1.377 . S
C3349 C3350 1.379 . S
C3350 H3334 0.931 . S
C3350 C3344 1.383 . S
C3350 C3349 1.379 . S
H3351 C3345 0.959 . S
H3352 C3345 0.961 . S
H3353 C3345 0.960 . S
H3354 C3346 0.930 . S
H3355 C3347 0.929 . S
H3356 C3364 0.929 . S
H3357 C3366 0.930 . S
H3358 C3368 0.930 . S
H3359 C3371 0.929 . S
H3360 C3374 0.930 . S
H3361 C3376 0.960 . S
H3362 C3376 0.960 . S
H3363 C3376 0.960 . S
C3364 H3356 0.929 . S
C3364 C3365 1.377 . S
C3364 C3366 1.384 . S
C3365 C3364 1.377 . S
C3365 C3371 1.390 . S
C3366 H3357 0.930 . S
C3366 C3364 1.384 . S
C3366 C3367 1.372 . S
C3367 C3366 1.372 . S
C3367 C3368 1.400 . S
C3367 C3372 1.490 . S
C3368 H3358 0.930 . S
C3368 C3367 1.400 . S
C3368 C3371 1.386 . S
H3369 C3385 0.930 . S
H3370 C3386 0.931 . S
C3371 H3359 0.929 . S
C3371 C3365 1.390 . S
C3371 C3368 1.386 . S
C3372 C3367 1.490 . S
C3372 C3374 1.395 . S
C3372 C3375 1.403 . S
H3373 C3379 0.930 . S
C3374 H3360 0.930 . S
C3374 C3372 1.395 . S
C3374 C3377 1.403 . S
C3375 C3372 1.403 . S
C3375 C3376 1.524 . S
C3375 C3379 1.400 . S
C3376 H3361 0.960 . S
C3376 H3362 0.960 . S
C3376 H3363 0.960 . S
C3376 C3375 1.524 . S
C3377 C3374 1.403 . S
C3377 C3378 1.392 . S
C3377 C3381 1.495 . S
C3378 C3377 1.392 . S
C3378 C3379 1.385 . S
C3378 C3380 1.478 . S
C3379 H3373 0.930 . S
C3379 C3375 1.400 . S
C3379 C3378 1.385 . S
C3380 C3378 1.478 . S
C3380 C3382 1.381 . S
C3380 C3386 1.383 . S
C3381 C3377 1.495 . S
C3381 H3387 0.959 . S
C3381 H3388 0.961 . S
C3381 H3389 0.960 . S
C3382 C3380 1.381 . S
C3382 C3383 1.394 . S
C3382 H3390 0.930 . S
C3383 C3382 1.394 . S
C3383 C3384 1.383 . S
C3383 H3391 0.929 . S
C3384 C3383 1.383 . S
C3384 C3385 1.377 . S
C3385 H3369 0.930 . S
C3385 C3384 1.377 . S
C3385 C3386 1.379 . S
C3386 H3370 0.931 . S
C3386 C3380 1.383 . S
C3386 C3385 1.379 . S
H3387 C3381 0.959 . S
H3388 C3381 0.961 . S
H3389 C3381 0.960 . S
H3390 C3382 0.930 . S
H3391 C3383 0.929 . S
H3392 C3400 0.929 . S
H3393 C3402 0.930 . S
H3394 C3404 0.930 . S
H3395 C3407 0.929 . S
H3396 C3410 0.930 . S
H3397 C3412 0.960 . S
H3398 C3412 0.960 . S
H3399 C3412 0.960 . S
C3400 H3392 0.929 . S
C3400 C3401 1.377 . S
C3400 C3402 1.384 . S
C3401 C3400 1.377 . S
C3401 C3407 1.390 . S
C3402 H3393 0.930 . S
C3402 C3400 1.384 . S
C3402 C3403 1.372 . S
C3403 C3402 1.372 . S
C3403 C3404 1.400 . S
C3403 C3408 1.490 . S
C3404 H3394 0.930 . S
C3404 C3403 1.400 . S
C3404 C3407 1.386 . S
H3405 C3421 0.930 . S
H3406 C3422 0.931 . S
C3407 H3395 0.929 . S
C3407 C3401 1.390 . S
C3407 C3404 1.386 . S
C3408 C3403 1.490 . S
C3408 C3410 1.395 . S
C3408 C3411 1.403 . S
H3409 C3415 0.930 . S
C3410 H3396 0.930 . S
C3410 C3408 1.395 . S
C3410 C3413 1.403 . S
C3411 C3408 1.403 . S
C3411 C3412 1.524 . S
C3411 C3415 1.400 . S
C3412 H3397 0.960 . S
C3412 H3398 0.960 . S
C3412 H3399 0.960 . S
C3412 C3411 1.524 . S
C3413 C3410 1.403 . S
C3413 C3414 1.392 . S
C3413 C3417 1.495 . S
C3414 C3413 1.392 . S
C3414 C3415 1.385 . S
C3414 C3416 1.478 . S
C3415 H3409 0.930 . S
C3415 C3411 1.400 . S
C3415 C3414 1.385 . S
C3416 C3414 1.478 . S
C3416 C3418 1.381 . S
C3416 C3422 1.383 . S
C3417 C3413 1.495 . S
C3417 H3423 0.959 . S
C3417 H3424 0.961 . S
C3417 H3425 0.960 . S
C3418 C3416 1.381 . S
C3418 C3419 1.394 . S
C3418 H3426 0.930 . S
C3419 C3418 1.394 . S
C3419 C3420 1.383 . S
C3419 H3427 0.929 . S
C3420 C3419 1.383 . S
C3420 C3421 1.377 . S
C3421 H3405 0.930 . S
C3421 C3420 1.377 . S
C3421 C3422 1.379 . S
C3422 H3406 0.931 . S
C3422 C3416 1.383 . S
C3422 C3421 1.379 . S
H3423 C3417 0.959 . S
H3424 C3417 0.961 . S
H3425 C3417 0.960 . S
H3426 C3418 0.930 . S
H3427 C3419 0.929 . S
H3428 C3436 0.929 . S
H3429 C3438 0.930 . S
H3430 C3440 0.930 . S
H3431 C3443 0.929 . S
H3432 C3446 0.930 . S
H3433 C3448 0.960 . S
H3434 C3448 0.960 . S
H3435 C3448 0.960 . S
C3436 H3428 0.929 . S
C3436 C3437 1.377 . S
C3436 C3438 1.384 . S
C3437 C3436 1.377 . S
C3437 C3443 1.390 . S
C3438 H3429 0.930 . S
C3438 C3436 1.384 . S
C3438 C3439 1.372 . S
C3439 C3438 1.372 . S
C3439 C3440 1.400 . S
C3439 C3444 1.490 . S
C3440 H3430 0.930 . S
C3440 C3439 1.400 . S
C3440 C3443 1.386 . S
H3441 C3457 0.930 . S
H3442 C3458 0.931 . S
C3443 H3431 0.929 . S
C3443 C3437 1.390 . S
C3443 C3440 1.386 . S
C3444 C3439 1.490 . S
C3444 C3446 1.395 . S
C3444 C3447 1.403 . S
H3445 C3451 0.930 . S
C3446 H3432 0.930 . S
C3446 C3444 1.395 . S
C3446 C3449 1.403 . S
C3447 C3444 1.403 . S
C3447 C3448 1.524 . S
C3447 C3451 1.400 . S
C3448 H3433 0.960 . S
C3448 H3434 0.960 . S
C3448 H3435 0.960 . S
C3448 C3447 1.524 . S
C3449 C3446 1.403 . S
C3449 C3450 1.392 . S
C3449 C3453 1.495 . S
C3450 C3449 1.392 . S
C3450 C3451 1.385 . S
C3450 C3452 1.478 . S
C3451 H3445 0.930 . S
C3451 C3447 1.400 . S
C3451 C3450 1.385 . S
C3452 C3450 1.478 . S
C3452 C3454 1.381 . S
C3452 C3458 1.383 . S
C3453 C3449 1.495 . S
C3453 H3459 0.959 . S
C3453 H3460 0.961 . S
C3453 H3461 0.960 . S
C3454 C3452 1.381 . S
C3454 C3455 1.394 . S
C3454 H3462 0.930 . S
C3455 C3454 1.394 . S
C3455 C3456 1.383 . S
C3455 H3463 0.929 . S
C3456 C3455 1.383 . S
C3456 C3457 1.377 . S
C3457 H3441 0.930 . S
C3457 C3456 1.377 . S
C3457 C3458 1.379 . S
C3458 H3442 0.931 . S
C3458 C3452 1.383 . S
C3458 C3457 1.379 . S
H3459 C3453 0.959 . S
H3460 C3453 0.961 . S
H3461 C3453 0.960 . S
H3462 C3454 0.930 . S
H3463 C3455 0.929 . S
H3464 C3472 0.929 . S
H3465 C3474 0.930 . S
H3466 C3476 0.930 . S
H3467 C3479 0.929 . S
H3468 C3482 0.930 . S
H3469 C3484 0.960 . S
H3470 C3484 0.960 . S
H3471 C3484 0.960 . S
C3472 H3464 0.929 . S
C3472 C3473 1.377 . S
C3472 C3474 1.384 . S
C3473 C3472 1.377 . S
C3473 C3479 1.390 . S
C3474 H3465 0.930 . S
C3474 C3472 1.384 . S
C3474 C3475 1.372 . S
C3475 C3474 1.372 . S
C3475 C3476 1.400 . S
C3475 C3480 1.490 . S
C3476 H3466 0.930 . S
C3476 C3475 1.400 . S
C3476 C3479 1.386 . S
H3477 C3493 0.930 . S
H3478 C3494 0.931 . S
C3479 H3467 0.929 . S
C3479 C3473 1.390 . S
C3479 C3476 1.386 . S
C3480 C3475 1.490 . S
C3480 C3482 1.395 . S
C3480 C3483 1.403 . S
H3481 C3487 0.930 . S
C3482 H3468 0.930 . S
C3482 C3480 1.395 . S
C3482 C3485 1.403 . S
C3483 C3480 1.403 . S
C3483 C3484 1.524 . S
C3483 C3487 1.400 . S
C3484 H3469 0.960 . S
C3484 H3470 0.960 . S
C3484 H3471 0.960 . S
C3484 C3483 1.524 . S
C3485 C3482 1.403 . S
C3485 C3486 1.392 . S
C3485 C3489 1.495 . S
C3486 C3485 1.392 . S
C3486 C3487 1.385 . S
C3486 C3488 1.478 . S
C3487 H3481 0.930 . S
C3487 C3483 1.400 . S
C3487 C3486 1.385 . S
C3488 C3486 1.478 . S
C3488 C3490 1.381 . S
C3488 C3494 1.383 . S
C3489 C3485 1.495 . S
C3489 H3495 0.959 . S
C3489 H3496 0.961 . S
C3489 H3497 0.960 . S
C3490 C3488 1.381 . S
C3490 C3491 1.394 . S
C3490 H3498 0.930 . S
C3491 C3490 1.394 . S
C3491 C3492 1.383 . S
C3491 H3499 0.929 . S
C3492 C3491 1.383 . S
C3492 C3493 1.377 . S
C3493 H3477 0.930 . S
C3493 C3492 1.377 . S
C3493 C3494 1.379 . S
C3494 H3478 0.931 . S
C3494 C3488 1.383 . S
C3494 C3493 1.379 . S
H3495 C3489 0.959 . S
H3496 C3489 0.961 . S
H3497 C3489 0.960 . S
H3498 C3490 0.930 . S
H3499 C3491 0.929 . S
H3500 C3508 0.929 . S
H3501 C3510 0.930 . S
H3502 C3512 0.930 . S
H3503 C3515 0.929 . S
H3504 C3518 0.930 . S
H3505 C3520 0.960 . S
H3506 C3520 0.960 1_554 S
H3507 C3520 0.960 1_554 S
C3508 H3500 0.929 . S
C3508 C3509 1.377 1_556 S
C3508 C3510 1.384 . S
C3509 C3508 1.377 1_554 S
C3509 C3515 1.390 . S
C3510 H3501 0.930 . S
C3510 C3508 1.384 . S
C3510 C3511 1.372 . S
C3511 C3510 1.372 . S
C3511 C3512 1.400 . S
C3511 C3516 1.490 . S
C3512 H3502 0.930 . S
C3512 C3511 1.400 . S
C3512 C3515 1.386 1_556 S
H3513 C3529 0.930 . S
H3514 C3530 0.931 . S
C3515 H3503 0.929 . S
C3515 C3509 1.390 . S
C3515 C3512 1.386 1_554 S
C3516 C3511 1.490 . S
C3516 C3518 1.395 . S
C3516 C3519 1.403 . S
H3517 C3523 0.930 . S
C3518 H3504 0.930 . S
C3518 C3516 1.395 . S
C3518 C3521 1.403 . S
C3519 C3516 1.403 . S
C3519 C3520 1.524 . S
C3519 C3523 1.400 . S
C3520 H3505 0.960 . S
C3520 H3506 0.960 1_556 S
C3520 H3507 0.960 1_556 S
C3520 C3519 1.524 . S
C3521 C3518 1.403 . S
C3521 C3522 1.392 . S
C3521 C3525 1.495 . S
C3522 C3521 1.392 . S
C3522 C3523 1.385 . S
C3522 C3524 1.478 . S
C3523 H3517 0.930 . S
C3523 C3519 1.400 . S
C3523 C3522 1.385 . S
C3524 C3522 1.478 . S
C3524 C3526 1.381 . S
C3524 C3530 1.383 . S
C3525 C3521 1.495 . S
C3525 H3531 0.959 . S
C3525 H3532 0.961 . S
C3525 H3533 0.960 . S
C3526 C3524 1.381 . S
C3526 C3527 1.394 . S
C3526 H3534 0.930 . S
C3527 C3526 1.394 . S
C3527 C3528 1.383 . S
C3527 H3535 0.929 . S
C3528 C3527 1.383 . S
C3528 C3529 1.377 . S
C3529 H3513 0.930 . S
C3529 C3528 1.377 . S
C3529 C3530 1.379 . S
C3530 H3514 0.931 . S
C3530 C3524 1.383 . S
C3530 C3529 1.379 . S
H3531 C3525 0.959 . S
H3532 C3525 0.961 . S
H3533 C3525 0.960 . S
H3534 C3526 0.930 . S
H3535 C3527 0.929 . S
H3536 C3544 0.929 . S
H3537 C3546 0.930 1_554 S
H3538 C3548 0.930 . S
H3539 C3551 0.929 . S
H3540 C3554 0.930 . S
H3541 C3556 0.960 . S
H3542 C3556 0.960 . S
H3543 C3556 0.960 . S
C3544 H3536 0.929 . S
C3544 C3545 1.375 1_554 S
C3544 C3546 1.384 1_554 S
C3545 C3544 1.375 1_556 S
C3545 C3551 1.395 . S
C3546 H3537 0.930 1_556 S
C3546 C3544 1.384 1_556 S
C3546 C3547 1.372 . S
C3547 C3546 1.372 . S
C3547 C3548 1.400 . S
C3547 C3552 1.490 . S
C3548 H3538 0.930 . S
C3548 C3547 1.400 . S
C3548 C3551 1.386 . S
H3549 C3565 0.930 . S
H3550 C3566 0.931 . S
C3551 H3539 0.929 . S
C3551 C3545 1.395 . S
C3551 C3548 1.386 . S
C3552 C3547 1.490 . S
C3552 C3554 1.395 . S
C3552 C3555 1.403 . S
H3553 C3559 0.930 . S
C3554 H3540 0.930 . S
C3554 C3552 1.395 . S
C3554 C3557 1.403 . S
C3555 C3552 1.403 . S
C3555 C3556 1.524 . S
C3555 C3559 1.400 . S
C3556 H3541 0.960 . S
C3556 H3542 0.960 . S
C3556 H3543 0.960 . S
C3556 C3555 1.524 . S
C3557 C3554 1.403 . S
C3557 C3558 1.392 . S
C3557 C3561 1.495 . S
C3558 C3557 1.392 . S
C3558 C3559 1.385 . S
C3558 C3560 1.478 . S
C3559 H3553 0.930 . S
C3559 C3555 1.400 . S
C3559 C3558 1.385 . S
C3560 C3558 1.478 . S
C3560 C3562 1.381 . S
C3560 C3566 1.383 . S
C3561 C3557 1.495 . S
C3561 H3567 0.959 . S
C3561 H3568 0.961 . S
C3561 H3569 0.960 . S
C3562 C3560 1.381 . S
C3562 C3563 1.394 . S
C3562 H3570 0.930 . S
C3563 C3562 1.394 . S
C3563 C3564 1.383 . S
C3563 H3571 0.929 . S
C3564 C3563 1.383 . S
C3564 C3565 1.377 . S
C3565 H3549 0.930 . S
C3565 C3564 1.377 . S
C3565 C3566 1.379 . S
C3566 H3550 0.931 . S
C3566 C3560 1.383 . S
C3566 C3565 1.379 . S
H3567 C3561 0.959 . S
H3568 C3561 0.961 . S
H3569 C3561 0.960 . S
H3570 C3562 0.930 . S
H3571 C3563 0.929 . S
H3572 C3580 0.929 . S
H3573 C3582 0.930 . S
H3574 C3584 0.930 . S
H3575 C3587 0.929 . S
H3576 C3590 0.930 . S
H3577 C3592 0.960 . S
H3578 C3592 0.960 . S
H3579 C3592 0.960 . S
C3580 H3572 0.929 . S
C3580 C3581 1.377 . S
C3580 C3582 1.384 . S
C3581 C3580 1.377 . S
C3581 C3587 1.390 . S
C3582 H3573 0.930 . S
C3582 C3580 1.384 . S
C3582 C3583 1.372 . S
C3583 C3582 1.372 . S
C3583 C3584 1.400 . S
C3583 C3588 1.490 . S
C3584 H3574 0.930 . S
C3584 C3583 1.400 . S
C3584 C3587 1.386 . S
H3585 C3601 0.930 . S
H3586 C3602 0.931 . S
C3587 H3575 0.929 . S
C3587 C3581 1.390 . S
C3587 C3584 1.386 . S
C3588 C3583 1.490 . S
C3588 C3590 1.395 . S
C3588 C3591 1.403 . S
H3589 C3595 0.930 . S
C3590 H3576 0.930 . S
C3590 C3588 1.395 . S
C3590 C3593 1.403 . S
C3591 C3588 1.403 . S
C3591 C3592 1.524 . S
C3591 C3595 1.400 . S
C3592 H3577 0.960 . S
C3592 H3578 0.960 . S
C3592 H3579 0.960 . S
C3592 C3591 1.524 . S
C3593 C3590 1.403 . S
C3593 C3594 1.392 . S
C3593 C3597 1.495 . S
C3594 C3593 1.392 . S
C3594 C3595 1.385 . S
C3594 C3596 1.478 . S
C3595 H3589 0.930 . S
C3595 C3591 1.400 . S
C3595 C3594 1.385 . S
C3596 C3594 1.478 . S
C3596 C3598 1.381 . S
C3596 C3602 1.383 . S
C3597 C3593 1.495 . S
C3597 H3603 0.959 . S
C3597 H3604 0.961 . S
C3597 H3605 0.960 . S
C3598 C3596 1.381 . S
C3598 C3599 1.394 . S
C3598 H3606 0.930 . S
C3599 C3598 1.394 . S
C3599 C3600 1.383 . S
C3599 H3607 0.929 . S
C3600 C3599 1.383 . S
C3600 C3601 1.377 . S
C3601 H3585 0.930 . S
C3601 C3600 1.377 . S
C3601 C3602 1.379 . S
C3602 H3586 0.931 . S
C3602 C3596 1.383 . S
C3602 C3601 1.379 . S
H3603 C3597 0.959 . S
H3604 C3597 0.961 . S
H3605 C3597 0.960 . S
H3606 C3598 0.930 . S
H3607 C3599 0.929 . S
H3608 C3616 0.929 . S
H3609 C3618 0.930 . S
H3610 C3620 0.930 . S
H3611 C3623 0.929 . S
H3612 C3626 0.930 . S
H3613 C3628 0.960 . S
H3614 C3628 0.960 . S
H3615 C3628 0.960 . S
C3616 H3608 0.929 . S
C3616 C3617 1.377 . S
C3616 C3618 1.384 . S
C3617 C3616 1.377 . S
C3617 C3623 1.390 . S
C3618 H3609 0.930 . S
C3618 C3616 1.384 . S
C3618 C3619 1.372 . S
C3619 C3618 1.372 . S
C3619 C3620 1.400 . S
C3619 C3624 1.490 . S
C3620 H3610 0.930 . S
C3620 C3619 1.400 . S
C3620 C3623 1.386 . S
H3621 C3637 0.930 . S
H3622 C3638 0.931 . S
C3623 H3611 0.929 . S
C3623 C3617 1.390 . S
C3623 C3620 1.386 . S
C3624 C3619 1.490 . S
C3624 C3626 1.395 . S
C3624 C3627 1.403 . S
H3625 C3631 0.930 . S
C3626 H3612 0.930 . S
C3626 C3624 1.395 . S
C3626 C3629 1.403 . S
C3627 C3624 1.403 . S
C3627 C3628 1.524 . S
C3627 C3631 1.400 . S
C3628 H3613 0.960 . S
C3628 H3614 0.960 . S
C3628 H3615 0.960 . S
C3628 C3627 1.524 . S
C3629 C3626 1.403 . S
C3629 C3630 1.392 . S
C3629 C3633 1.495 . S
C3630 C3629 1.392 . S
C3630 C3631 1.385 . S
C3630 C3632 1.478 . S
C3631 H3625 0.930 . S
C3631 C3627 1.400 . S
C3631 C3630 1.385 . S
C3632 C3630 1.478 . S
C3632 C3634 1.381 . S
C3632 C3638 1.383 . S
C3633 C3629 1.495 . S
C3633 H3639 0.959 . S
C3633 H3640 0.961 . S
C3633 H3641 0.960 . S
C3634 C3632 1.381 . S
C3634 C3635 1.394 . S
C3634 H3642 0.930 . S
C3635 C3634 1.394 . S
C3635 C3636 1.383 . S
C3635 H3643 0.929 . S
C3636 C3635 1.383 . S
C3636 C3637 1.377 . S
C3637 H3621 0.930 . S
C3637 C3636 1.377 . S
C3637 C3638 1.379 . S
C3638 H3622 0.931 . S
C3638 C3632 1.383 . S
C3638 C3637 1.379 . S
H3639 C3633 0.959 . S
H3640 C3633 0.961 . S
H3641 C3633 0.960 . S
H3642 C3634 0.930 . S
H3643 C3635 0.929 . S
H3644 C3652 0.929 . S
H3645 C3654 0.930 . S
H3646 C3656 0.930 . S
H3647 C3659 0.929 . S
H3648 C3662 0.930 . S
H3649 C3664 0.960 . S
H3650 C3664 0.960 . S
H3651 C3664 0.960 . S
C3652 H3644 0.929 . S
C3652 C3653 1.377 . S
C3652 C3654 1.384 . S
C3653 C3652 1.377 . S
C3653 C3659 1.390 . S
C3654 H3645 0.930 . S
C3654 C3652 1.384 . S
C3654 C3655 1.372 . S
C3655 C3654 1.372 . S
C3655 C3656 1.400 . S
C3655 C3660 1.490 . S
C3656 H3646 0.930 . S
C3656 C3655 1.400 . S
C3656 C3659 1.386 . S
H3657 C3673 0.930 . S
H3658 C3674 0.931 . S
C3659 H3647 0.929 . S
C3659 C3653 1.390 . S
C3659 C3656 1.386 . S
C3660 C3655 1.490 . S
C3660 C3662 1.395 . S
C3660 C3663 1.403 . S
H3661 C3667 0.930 . S
C3662 H3648 0.930 . S
C3662 C3660 1.395 . S
C3662 C3665 1.403 . S
C3663 C3660 1.403 . S
C3663 C3664 1.524 . S
C3663 C3667 1.400 . S
C3664 H3649 0.960 . S
C3664 H3650 0.960 . S
C3664 H3651 0.960 . S
C3664 C3663 1.524 . S
C3665 C3662 1.403 . S
C3665 C3666 1.392 . S
C3665 C3669 1.495 . S
C3666 C3665 1.392 . S
C3666 C3667 1.385 . S
C3666 C3668 1.478 . S
C3667 H3661 0.930 . S
C3667 C3663 1.400 . S
C3667 C3666 1.385 . S
C3668 C3666 1.478 . S
C3668 C3670 1.381 . S
C3668 C3674 1.383 . S
C3669 C3665 1.495 . S
C3669 H3675 0.959 . S
C3669 H3676 0.961 . S
C3669 H3677 0.960 . S
C3670 C3668 1.381 . S
C3670 C3671 1.394 . S
C3670 H3678 0.930 . S
C3671 C3670 1.394 . S
C3671 C3672 1.383 . S
C3671 H3679 0.929 . S
C3672 C3671 1.383 . S
C3672 C3673 1.377 . S
C3673 H3657 0.930 . S
C3673 C3672 1.377 . S
C3673 C3674 1.379 . S
C3674 H3658 0.931 . S
C3674 C3668 1.383 . S
C3674 C3673 1.379 . S
H3675 C3669 0.959 . S
H3676 C3669 0.961 . S
H3677 C3669 0.960 . S
H3678 C3670 0.930 . S
H3679 C3671 0.929 . S
H3680 C3688 0.929 . S
H3681 C3690 0.930 . S
H3682 C3692 0.930 . S
H3683 C3695 0.929 . S
H3684 C3698 0.930 . S
H3685 C3700 0.960 . S
H3686 C3700 0.960 . S
H3687 C3700 0.960 . S
C3688 H3680 0.929 . S
C3688 C3689 1.377 . S
C3688 C3690 1.384 . S
C3689 C3688 1.377 . S
C3689 C3695 1.390 . S
C3690 H3681 0.930 . S
C3690 C3688 1.384 . S
C3690 C3691 1.372 . S
C3691 C3690 1.372 . S
C3691 C3692 1.400 . S
C3691 C3696 1.490 . S
C3692 H3682 0.930 . S
C3692 C3691 1.400 . S
C3692 C3695 1.386 . S
H3693 C3709 0.930 . S
H3694 C3710 0.931 . S
C3695 H3683 0.929 . S
C3695 C3689 1.390 . S
C3695 C3692 1.386 . S
C3696 C3691 1.490 . S
C3696 C3698 1.395 . S
C3696 C3699 1.403 . S
H3697 C3703 0.930 . S
C3698 H3684 0.930 . S
C3698 C3696 1.395 . S
C3698 C3701 1.403 . S
C3699 C3696 1.403 . S
C3699 C3700 1.524 . S
C3699 C3703 1.400 . S
C3700 H3685 0.960 . S
C3700 H3686 0.960 . S
C3700 H3687 0.960 . S
C3700 C3699 1.524 . S
C3701 C3698 1.403 . S
C3701 C3702 1.392 . S
C3701 C3705 1.495 . S
C3702 C3701 1.392 . S
C3702 C3703 1.385 . S
C3702 C3704 1.478 . S
C3703 H3697 0.930 . S
C3703 C3699 1.400 . S
C3703 C3702 1.385 . S
C3704 C3702 1.478 . S
C3704 C3706 1.381 . S
C3704 C3710 1.383 . S
C3705 C3701 1.495 . S
C3705 H3711 0.959 . S
C3705 H3712 0.961 . S
C3705 H3713 0.960 . S
C3706 C3704 1.381 . S
C3706 C3707 1.394 . S
C3706 H3714 0.930 . S
C3707 C3706 1.394 . S
C3707 C3708 1.383 . S
C3707 H3715 0.929 . S
C3708 C3707 1.383 . S
C3708 C3709 1.377 . S
C3709 H3693 0.930 . S
C3709 C3708 1.377 . S
C3709 C3710 1.379 . S
C3710 H3694 0.931 . S
C3710 C3704 1.383 . S
C3710 C3709 1.379 . S
H3711 C3705 0.959 . S
H3712 C3705 0.961 . S
H3713 C3705 0.960 . S
H3714 C3706 0.930 . S
H3715 C3707 0.929 . S
H3716 C3724 0.929 . S
H3717 C3726 0.930 . S
H3718 C3728 0.930 . S
H3719 C3731 0.929 . S
H3720 C3734 0.930 . S
H3721 C3736 0.960 . S
H3722 C3736 0.960 . S
H3723 C3736 0.960 . S
C3724 H3716 0.929 . S
C3724 C3725 1.377 . S
C3724 C3726 1.384 . S
C3725 C3724 1.377 . S
C3725 C3731 1.390 . S
C3726 H3717 0.930 . S
C3726 C3724 1.384 . S
C3726 C3727 1.372 . S
C3727 C3726 1.372 . S
C3727 C3728 1.400 . S
C3727 C3732 1.490 . S
C3728 H3718 0.930 . S
C3728 C3727 1.400 . S
C3728 C3731 1.386 . S
H3729 C3745 0.930 . S
H3730 C3746 0.931 . S
C3731 H3719 0.929 . S
C3731 C3725 1.390 . S
C3731 C3728 1.386 . S
C3732 C3727 1.490 . S
C3732 C3734 1.395 . S
C3732 C3735 1.403 . S
H3733 C3739 0.930 . S
C3734 H3720 0.930 . S
C3734 C3732 1.395 . S
C3734 C3737 1.403 . S
C3735 C3732 1.403 . S
C3735 C3736 1.524 . S
C3735 C3739 1.400 . S
C3736 H3721 0.960 . S
C3736 H3722 0.960 . S
C3736 H3723 0.960 . S
C3736 C3735 1.524 . S
C3737 C3734 1.403 . S
C3737 C3738 1.392 . S
C3737 C3741 1.495 . S
C3738 C3737 1.392 . S
C3738 C3739 1.385 . S
C3738 C3740 1.478 . S
C3739 H3733 0.930 . S
C3739 C3735 1.400 . S
C3739 C3738 1.385 . S
C3740 C3738 1.478 . S
C3740 C3742 1.381 . S
C3740 C3746 1.383 . S
C3741 C3737 1.495 . S
C3741 H3747 0.959 . S
C3741 H3748 0.961 . S
C3741 H3749 0.960 . S
C3742 C3740 1.381 . S
C3742 C3743 1.394 . S
C3742 H3750 0.930 . S
C3743 C3742 1.394 . S
C3743 C3744 1.383 . S
C3743 H3751 0.929 1_556 S
C3744 C3743 1.383 . S
C3744 C3745 1.377 . S
C3745 H3729 0.930 . S
C3745 C3744 1.377 . S
C3745 C3746 1.379 . S
C3746 H3730 0.931 . S
C3746 C3740 1.383 . S
C3746 C3745 1.379 . S
H3747 C3741 0.959 . S
H3748 C3741 0.961 . S
H3749 C3741 0.960 . S
H3750 C3742 0.930 . S
H3751 C3743 0.929 1_554 S
H3752 C3760 0.929 . S
H3753 C3762 0.930 . S
H3754 C3764 0.930 . S
H3755 C3767 0.929 . S
H3756 C3770 0.930 . S
H3757 C3772 0.960 . S
H3758 C3772 0.960 . S
H3759 C3772 0.960 . S
C3760 H3752 0.929 . S
C3760 C3761 1.377 . S
C3760 C3762 1.384 . S
C3761 C3760 1.377 . S
C3761 C3767 1.390 . S
C3762 H3753 0.930 . S
C3762 C3760 1.384 . S
C3762 C3763 1.372 . S
C3763 C3762 1.372 . S
C3763 C3764 1.400 . S
C3763 C3768 1.490 . S
C3764 H3754 0.930 . S
C3764 C3763 1.400 . S
C3764 C3767 1.386 . S
H3765 C3781 0.930 . S
H3766 C3782 0.931 . S
C3767 H3755 0.929 . S
C3767 C3761 1.390 . S
C3767 C3764 1.386 . S
C3768 C3763 1.490 . S
C3768 C3770 1.395 . S
C3768 C3771 1.403 . S
H3769 C3775 0.930 . S
C3770 H3756 0.930 . S
C3770 C3768 1.395 . S
C3770 C3773 1.403 . S
C3771 C3768 1.403 . S
C3771 C3772 1.524 . S
C3771 C3775 1.400 . S
C3772 H3757 0.960 . S
C3772 H3758 0.960 . S
C3772 H3759 0.960 . S
C3772 C3771 1.524 . S
C3773 C3770 1.403 . S
C3773 C3774 1.392 . S
C3773 C3777 1.495 . S
C3774 C3773 1.392 . S
C3774 C3775 1.385 . S
C3774 C3776 1.478 . S
C3775 H3769 0.930 . S
C3775 C3771 1.400 . S
C3775 C3774 1.385 . S
C3776 C3774 1.478 . S
C3776 C3778 1.381 . S
C3776 C3782 1.383 . S
C3777 C3773 1.495 . S
C3777 H3783 0.959 . S
C3777 H3784 0.961 . S
C3777 H3785 0.960 . S
C3778 C3776 1.381 . S
C3778 C3779 1.394 . S
C3778 H3786 0.930 . S
C3779 C3778 1.394 . S
C3779 C3780 1.383 . S
C3779 H3787 0.929 . S
C3780 C3779 1.383 . S
C3780 C3781 1.377 . S
C3781 H3765 0.930 . S
C3781 C3780 1.377 . S
C3781 C3782 1.379 . S
C3782 H3766 0.931 . S
C3782 C3776 1.383 . S
C3782 C3781 1.379 . S
H3783 C3777 0.959 . S
H3784 C3777 0.961 . S
H3785 C3777 0.960 . S
H3786 C3778 0.930 . S
H3787 C3779 0.929 . S
H3788 C3796 0.929 . S
H3789 C3798 0.930 . S
H3790 C3800 0.930 . S
H3791 C3803 0.929 . S
H3792 C3806 0.930 . S
H3793 C3808 0.960 . S
H3794 C3808 0.960 . S
H3795 C3808 0.960 . S
C3796 H3788 0.929 . S
C3796 C3797 1.377 . S
C3796 C3798 1.384 . S
C3797 C3796 1.377 . S
C3797 C3803 1.390 . S
C3798 H3789 0.930 . S
C3798 C3796 1.384 . S
C3798 C3799 1.372 . S
C3799 C3798 1.372 . S
C3799 C3800 1.400 . S
C3799 C3804 1.490 . S
C3800 H3790 0.930 . S
C3800 C3799 1.400 . S
C3800 C3803 1.386 . S
H3801 C3817 0.930 . S
H3802 C3818 0.931 . S
C3803 H3791 0.929 . S
C3803 C3797 1.390 . S
C3803 C3800 1.386 . S
C3804 C3799 1.490 . S
C3804 C3806 1.395 . S
C3804 C3807 1.403 . S
H3805 C3811 0.930 . S
C3806 H3792 0.930 . S
C3806 C3804 1.395 . S
C3806 C3809 1.403 . S
C3807 C3804 1.403 . S
C3807 C3808 1.524 . S
C3807 C3811 1.400 . S
C3808 H3793 0.960 . S
C3808 H3794 0.960 . S
C3808 H3795 0.960 . S
C3808 C3807 1.524 . S
C3809 C3806 1.403 . S
C3809 C3810 1.392 . S
C3809 C3813 1.495 . S
C3810 C3809 1.392 . S
C3810 C3811 1.385 . S
C3810 C3812 1.478 . S
C3811 H3805 0.930 . S
C3811 C3807 1.400 . S
C3811 C3810 1.385 . S
C3812 C3810 1.478 . S
C3812 C3814 1.381 . S
C3812 C3818 1.383 . S
C3813 C3809 1.495 . S
C3813 H3819 0.959 . S
C3813 H3820 0.961 . S
C3813 H3821 0.960 . S
C3814 C3812 1.381 . S
C3814 C3815 1.394 . S
C3814 H3822 0.930 . S
C3815 C3814 1.394 . S
C3815 C3816 1.383 . S
C3815 H3823 0.929 . S
C3816 C3815 1.383 . S
C3816 C3817 1.377 . S
C3817 H3801 0.930 . S
C3817 C3816 1.377 . S
C3817 C3818 1.379 . S
C3818 H3802 0.931 . S
C3818 C3812 1.383 . S
C3818 C3817 1.379 . S
H3819 C3813 0.959 . S
H3820 C3813 0.961 . S
H3821 C3813 0.960 . S
H3822 C3814 0.930 . S
H3823 C3815 0.929 . S
H3824 C3832 0.929 . S
H3825 C3834 0.930 . S
H3826 C3836 0.930 . S
H3827 C3839 0.929 . S
H3828 C3842 0.930 . S
H3829 C3844 0.960 . S
H3830 C3844 0.960 . S
H3831 C3844 0.960 . S
C3832 H3824 0.929 . S
C3832 C3833 1.377 . S
C3832 C3834 1.384 . S
C3833 C3832 1.377 . S
C3833 C3839 1.390 . S
C3834 H3825 0.930 . S
C3834 C3832 1.384 . S
C3834 C3835 1.372 . S
C3835 C3834 1.372 . S
C3835 C3836 1.400 . S
C3835 C3840 1.490 . S
C3836 H3826 0.930 . S
C3836 C3835 1.400 . S
C3836 C3839 1.386 . S
H3837 C3853 0.930 . S
H3838 C3854 0.931 . S
C3839 H3827 0.929 . S
C3839 C3833 1.390 . S
C3839 C3836 1.386 . S
C3840 C3835 1.490 . S
C3840 C3842 1.395 . S
C3840 C3843 1.403 . S
H3841 C3847 0.930 . S
C3842 H3828 0.930 . S
C3842 C3840 1.395 . S
C3842 C3845 1.403 . S
C3843 C3840 1.403 . S
C3843 C3844 1.524 . S
C3843 C3847 1.400 . S
C3844 H3829 0.960 . S
C3844 H3830 0.960 . S
C3844 H3831 0.960 . S
C3844 C3843 1.524 . S
C3845 C3842 1.403 . S
C3845 C3846 1.392 . S
C3845 C3849 1.495 . S
C3846 C3845 1.392 . S
C3846 C3847 1.385 . S
C3846 C3848 1.478 . S
C3847 H3841 0.930 . S
C3847 C3843 1.400 . S
C3847 C3846 1.385 . S
C3848 C3846 1.478 . S
C3848 C3850 1.381 . S
C3848 C3854 1.383 . S
C3849 C3845 1.495 . S
C3849 H3855 0.959 . S
C3849 H3856 0.961 . S
C3849 H3857 0.960 . S
C3850 C3848 1.381 . S
C3850 C3851 1.394 . S
C3850 H3858 0.930 . S
C3851 C3850 1.394 . S
C3851 C3852 1.383 . S
C3851 H3859 0.929 . S
C3852 C3851 1.383 . S
C3852 C3853 1.377 . S
C3853 H3837 0.930 . S
C3853 C3852 1.377 . S
C3853 C3854 1.379 . S
C3854 H3838 0.931 . S
C3854 C3848 1.383 . S
C3854 C3853 1.379 . S
H3855 C3849 0.959 . S
H3856 C3849 0.961 . S
H3857 C3849 0.960 . S
H3858 C3850 0.930 . S
H3859 C3851 0.929 . S
H3860 C3868 0.929 . S
H3861 C3870 0.930 . S
H3862 C3872 0.930 . S
H3863 C3875 0.929 . S
H3864 C3878 0.930 . S
H3865 C3880 0.960 . S
H3866 C3880 0.960 . S
H3867 C3880 0.960 . S
C3868 H3860 0.929 . S
C3868 C3869 1.377 . S
C3868 C3870 1.384 . S
C3869 C3868 1.377 . S
C3869 C3875 1.390 . S
C3870 H3861 0.930 . S
C3870 C3868 1.384 . S
C3870 C3871 1.372 . S
C3871 C3870 1.372 . S
C3871 C3872 1.400 . S
C3871 C3876 1.490 . S
C3872 H3862 0.930 . S
C3872 C3871 1.400 . S
C3872 C3875 1.386 . S
H3873 C3889 0.930 . S
H3874 C3890 0.931 . S
C3875 H3863 0.929 . S
C3875 C3869 1.390 . S
C3875 C3872 1.386 . S
C3876 C3871 1.490 . S
C3876 C3878 1.395 . S
C3876 C3879 1.403 . S
H3877 C3883 0.930 . S
C3878 H3864 0.930 . S
C3878 C3876 1.395 . S
C3878 C3881 1.403 . S
C3879 C3876 1.403 . S
C3879 C3880 1.524 . S
C3879 C3883 1.400 . S
C3880 H3865 0.960 . S
C3880 H3866 0.960 . S
C3880 H3867 0.960 . S
C3880 C3879 1.524 . S
C3881 C3878 1.403 . S
C3881 C3882 1.392 . S
C3881 C3885 1.495 . S
C3882 C3881 1.392 . S
C3882 C3883 1.385 . S
C3882 C3884 1.478 . S
C3883 H3877 0.930 . S
C3883 C3879 1.400 . S
C3883 C3882 1.385 . S
C3884 C3882 1.478 . S
C3884 C3886 1.381 . S
C3884 C3890 1.383 . S
C3885 C3881 1.495 . S
C3885 H3891 0.959 . S
C3885 H3892 0.961 . S
C3885 H3893 0.960 . S
C3886 C3884 1.381 . S
C3886 C3887 1.394 . S
C3886 H3894 0.930 . S
C3887 C3886 1.394 . S
C3887 C3888 1.383 . S
C3887 H3895 0.929 . S
C3888 C3887 1.383 . S
C3888 C3889 1.377 . S
C3889 H3873 0.930 . S
C3889 C3888 1.377 . S
C3889 C3890 1.379 . S
C3890 H3874 0.931 . S
C3890 C3884 1.383 . S
C3890 C3889 1.379 . S
H3891 C3885 0.959 . S
H3892 C3885 0.961 . S
H3893 C3885 0.960 . S
H3894 C3886 0.930 . S
H3895 C3887 0.929 . S
H3896 C3904 0.929 . S
H3897 C3906 0.930 . S
H3898 C3908 0.930 1_554 S
H3899 C3911 0.929 . S
H3900 C3914 0.930 . S
H3901 C3916 0.960 . S
H3902 C3916 0.960 . S
H3903 C3916 0.960 1_554 S
C3904 H3896 0.929 . S
C3904 C3905 1.402 . S
C3904 C3906 1.384 . S
C3905 C3904 1.402 . S
C3905 C3911 1.380 1_556 S
C3906 H3897 0.930 . S
C3906 C3904 1.384 . S
C3906 C3907 1.372 . S
C3907 C3906 1.372 . S
C3907 C3908 1.400 . S
C3907 C3912 1.490 . S
C3908 H3898 0.930 1_556 S
C3908 C3907 1.400 . S
C3908 C3911 1.386 1_556 S
H3909 C3925 0.930 . S
H3910 C3926 0.931 . S
C3911 H3899 0.929 . S
C3911 C3905 1.380 1_554 S
C3911 C3908 1.386 1_554 S
C3912 C3907 1.490 . S
C3912 C3914 1.395 . S
C3912 C3915 1.403 . S
H3913 C3919 0.930 . S
C3914 H3900 0.930 . S
C3914 C3912 1.395 . S
C3914 C3917 1.403 . S
C3915 C3912 1.403 . S
C3915 C3916 1.524 . S
C3915 C3919 1.400 . S
C3916 H3901 0.960 . S
C3916 H3902 0.960 . S
C3916 H3903 0.960 1_556 S
C3916 C3915 1.524 . S
C3917 C3914 1.403 . S
C3917 C3918 1.392 . S
C3917 C3921 1.495 . S
C3918 C3917 1.392 . S
C3918 C3919 1.385 . S
C3918 C3920 1.478 . S
C3919 H3913 0.930 . S
C3919 C3915 1.400 . S
C3919 C3918 1.385 . S
C3920 C3918 1.478 . S
C3920 C3922 1.381 . S
C3920 C3926 1.383 . S
C3921 C3917 1.495 . S
C3921 H3927 0.959 . S
C3921 H3928 0.961 . S
C3921 H3929 0.960 . S
C3922 C3920 1.381 . S
C3922 C3923 1.394 . S
C3922 H3930 0.930 . S
C3923 C3922 1.394 . S
C3923 C3924 1.383 . S
C3923 H3931 0.929 . S
C3924 C3923 1.383 . S
C3924 C3925 1.377 . S
C3925 H3909 0.930 . S
C3925 C3924 1.377 . S
C3925 C3926 1.379 . S
C3926 H3910 0.931 . S
C3926 C3920 1.383 . S
C3926 C3925 1.379 . S
H3927 C3921 0.959 . S
H3928 C3921 0.961 . S
H3929 C3921 0.960 . S
H3930 C3922 0.930 . S
H3931 C3923 0.929 . S
H3932 C3940 0.929 . S
H3933 C3942 0.930 . S
H3934 C3944 0.930 . S
H3935 C3947 0.929 . S
H3936 C3950 0.930 . S
H3937 C3952 0.960 . S
H3938 C3952 0.960 . S
H3939 C3952 0.960 . S
C3940 H3932 0.929 . S
C3940 C3941 1.377 . S
C3940 C3942 1.384 . S
C3941 C3940 1.377 . S
C3941 C3947 1.390 . S
C3942 H3933 0.930 . S
C3942 C3940 1.384 . S
C3942 C3943 1.372 . S
C3943 C3942 1.372 . S
C3943 C3944 1.400 . S
C3943 C3948 1.490 . S
C3944 H3934 0.930 . S
C3944 C3943 1.400 . S
C3944 C3947 1.386 . S
H3945 C3961 0.930 . S
H3946 C3962 0.931 . S
C3947 H3935 0.929 . S
C3947 C3941 1.390 . S
C3947 C3944 1.386 . S
C3948 C3943 1.490 . S
C3948 C3950 1.395 . S
C3948 C3951 1.403 . S
H3949 C3955 0.930 . S
C3950 H3936 0.930 . S
C3950 C3948 1.395 . S
C3950 C3953 1.403 . S
C3951 C3948 1.403 . S
C3951 C3952 1.524 . S
C3951 C3955 1.400 . S
C3952 H3937 0.960 . S
C3952 H3938 0.960 . S
C3952 H3939 0.960 . S
C3952 C3951 1.524 . S
C3953 C3950 1.403 . S
C3953 C3954 1.392 . S
C3953 C3957 1.495 . S
C3954 C3953 1.392 . S
C3954 C3955 1.385 . S
C3954 C3956 1.478 . S
C3955 H3949 0.930 . S
C3955 C3951 1.400 . S
C3955 C3954 1.385 . S
C3956 C3954 1.478 . S
C3956 C3958 1.381 . S
C3956 C3962 1.383 . S
C3957 C3953 1.495 . S
C3957 H3963 0.959 . S
C3957 H3964 0.961 . S
C3957 H3965 0.960 . S
C3958 C3956 1.381 . S
C3958 C3959 1.394 . S
C3958 H3966 0.930 . S
C3959 C3958 1.394 . S
C3959 C3960 1.383 . S
C3959 H3967 0.929 . S
C3960 C3959 1.383 . S
C3960 C3961 1.377 . S
C3961 H3945 0.930 . S
C3961 C3960 1.377 . S
C3961 C3962 1.379 . S
C3962 H3946 0.931 . S
C3962 C3956 1.383 . S
C3962 C3961 1.379 . S
H3963 C3957 0.959 . S
H3964 C3957 0.961 . S
H3965 C3957 0.960 . S
H3966 C3958 0.930 . S
H3967 C3959 0.929 . S
C1097 C156 2.164 . S
C1116 C20 2.153 . S
C1133 C54 2.165 . S
C1152 C190 2.152 . S
C1169 C88 2.164 . S
C1188 C224 2.154 . S
C1205 C122 2.165 . S
C1224 C258 2.152 . S
C1241 C417 0.779 . S
C1260 C281 0.761 . S
C1277 C315 0.785 . S
C1296 C451 0.802 . S
C1313 C349 0.784 . S
C1332 C485 0.800 . S
C1349 C519 0.783 . S
C1368 C383 0.795 . S
C1385 C564 2.167 . S
C1404 C700 2.156 . S
C1421 C598 2.167 . S
C1440 C734 2.169 . S
C1457 C768 2.167 . S
C1476 C632 2.155 . S
C1493 C666 2.166 . S
C1512 C802 2.151 . S
C1529 C825 0.779 . S
C1548 C961 0.760 . S
C1565 C859 0.785 . S
C1584 C995 0.801 . S
C1601 C1029 0.778 . S
C1620 C893 0.760 . S
C1637 C927 0.787 . S
C1656 C1063 0.805 . S
C1673 C413 0.879 . S
C1692 C9 0.876 . S
C1709 C43 0.899 . S
C1728 C991 0.928 . S
C1745 C481 0.883 . S
C1764 C77 0.920 . S
C1781 C111 0.903 . S
C1800 C1059 0.912 . S
C1817 C145 0.901 . S
C1836 C277 0.839 . S
C1853 C855 0.875 . S
C1872 C179 0.878 . S
C1889 C345 0.890 . S
C1908 C213 0.913 . S
C1925 C247 0.894 . S
C1944 C923 0.879 . S
C1961 C292 2.363 . S
C1980 C138 2.359 . S
C1997 C326 2.361 . S
C2016 C716 2.356 . S
C2033 C360 2.363 . S
C2052 C206 2.360 . S
C2069 C394 2.359 . S
C2088 C784 2.370 . S
C2105 C2 2.367 . S
C2124 C428 2.367 . S
C2141 C580 2.370 . S
C2160 C462 2.352 . S
C2177 C496 2.359 . S
C2196 C70 2.370 . S
C2213 C648 2.367 . S
C2232 C530 2.354 . S
C2249 C553 0.895 . S
C2268 C957 0.895 . S
C2285 C587 0.902 . S
C2304 C447 0.842 . S
C2321 C621 0.896 . S
C2340 C1025 0.840 . S
C2357 C655 0.904 . S
C2376 C515 0.882 . S
C2393 C689 0.895 . S
C2412 C821 0.901 . S
C2429 C311 0.881 . S
C2448 C723 0.920 . S
C2465 C889 0.880 . S
C2484 C757 0.875 . S
C2501 C791 0.894 . S
C2520 C379 0.877 . S
C2537 C682 2.370 . S
C2556 C836 2.347 . S
C2573 C172 2.369 . S
C2592 C870 2.361 . S
C2609 C750 2.370 . S
C2628 C904 2.349 . S
C2645 C240 2.368 . S
C2664 C938 2.363 . S
C2681 C972 2.359 . S
C2700 C546 2.368 . S
C2717 C36 2.369 . S
C2736 C1006 2.357 . S
C2753 C1040 2.360 . S
C2772 C614 2.373 . S
C2789 C104 2.368 . S
C2808 C1074 2.348 . S
C2825 C5 0.977 . S
C2844 C141 0.918 . S
C2861 C175 0.972 . S
C2880 C39 0.926 . S
C2897 C209 0.969 . S
C2916 C73 0.936 . S
C2933 C107 0.960 . S
C2952 C243 0.980 . S
C2969 C274 2.559 . S
C2988 C410 2.552 . S
C3005 C308 2.559 . S
C3024 C444 2.552 . S
C3041 C478 2.556 . S
C3060 C342 2.561 . S
C3077 C376 2.557 . S
C3096 C512 2.554 . S
C3113 C685 0.959 . S
C3132 C549 0.991 . S
C3149 C583 0.974 . S
C3168 C719 0.944 . S
C3185 C753 0.961 . S
C3204 C617 1.006 . S
C3221 C651 0.971 . S
C3240 C787 0.964 . S
C3257 C954 2.557 . S
C3276 C818 2.551 . S
C3293 C852 2.557 . S
C3312 C988 2.559 . S
C3329 C1022 2.556 . S
C3348 C886 2.562 . S
C3365 C920 2.558 . S
C3384 C1056 2.556 . S
C3401 C271 0.197 . S
C3420 C33 0.241 . S
C3437 C67 0.209 . S
C3456 C169 0.303 . S
C3473 C101 0.231 . S
C3492 C203 0.312 . S
C3509 C237 0.223 1_554 S
C3528 C135 0.318 . S
C3545 C305 0.237 . S
C3564 C543 0.238 . S
C3581 C441 0.192 . S
C3600 C339 0.243 . S
C3617 C475 0.232 . S
C3636 C373 0.280 . S
C3653 C407 0.229 . S
C3672 C509 0.295 . S
C3689 C815 0.235 . S
C3708 C577 0.209 . S
C3725 C611 0.203 . S
C3744 C713 0.145 . S
C3761 C747 0.199 . S
C3780 C645 0.263 . S
C3797 C679 0.235 . S
C3816 C781 0.207 . S
C3833 C849 0.229 . S
C3852 C1087 0.200 . S
C3869 C883 0.207 . S
C3888 C985 0.303 . S
C3905 C917 0.229 . S
C3924 C1019 0.301 . S
C3941 C1053 0.214 . S
C3960 C951 0.122 . S
