# Generated by pormake.
# Topology crs-a, (5)-cn, num edge types: 1
# Building blocks:
#     Node 0, Type 0, BuildingBlock: XOMCOT_clean_sbu_1, # of connection points: 5
#     Node 1, Type 0, BuildingBlock: XOMCOT_clean_sbu_1, # of connection points: 5
#     Node 2, Type 0, BuildingBlock: XOMCOT_clean_sbu_1, # of connection points: 5
#     Node 3, Type 0, BuildingBlock: XOMCOT_clean_sbu_1, # of connection points: 5
#     Node 4, Type 0, BuildingBlock: XOMCOT_clean_sbu_1, # of connection points: 5
#     Node 5, Type 0, BuildingBlock: XOMCOT_clean_sbu_1, # of connection points: 5
#     Node 6, Type 0, BuildingBlock: XOMCOT_clean_sbu_1, # of connection points: 5
#     Node 7, Type 0, BuildingBlock: XOMCOT_clean_sbu_1, # of connection points: 5
#     Node 8, Type 0, BuildingBlock: XOMCOT_clean_sbu_1, # of connection points: 5
#     Node 9, Type 0, BuildingBlock: XOMCOT_clean_sbu_1, # of connection points: 5
#     Node 10, Type 0, BuildingBlock: XOMCOT_clean_sbu_1, # of connection points: 5
#     Node 11, Type 0, BuildingBlock: XOMCOT_clean_sbu_1, # of connection points: 5
#     Node 12, Type 0, BuildingBlock: XOMCOT_clean_sbu_1, # of connection points: 5
#     Node 13, Type 0, BuildingBlock: XOMCOT_clean_sbu_1, # of connection points: 5
#     Node 14, Type 0, BuildingBlock: XOMCOT_clean_sbu_1, # of connection points: 5
#     Node 15, Type 0, BuildingBlock: XOMCOT_clean_sbu_1, # of connection points: 5
#     Node 16, Type 0, BuildingBlock: XOMCOT_clean_sbu_1, # of connection points: 5
#     Node 17, Type 0, BuildingBlock: XOMCOT_clean_sbu_1, # of connection points: 5
#     Node 18, Type 0, BuildingBlock: XOMCOT_clean_sbu_1, # of connection points: 5
#     Node 19, Type 0, BuildingBlock: XOMCOT_clean_sbu_1, # of connection points: 5
#     Node 20, Type 0, BuildingBlock: XOMCOT_clean_sbu_1, # of connection points: 5
#     Node 21, Type 0, BuildingBlock: XOMCOT_clean_sbu_1, # of connection points: 5
#     Node 22, Type 0, BuildingBlock: XOMCOT_clean_sbu_1, # of connection points: 5
#     Node 23, Type 0, BuildingBlock: XOMCOT_clean_sbu_1, # of connection points: 5
#     Node 24, Type 0, BuildingBlock: XOMCOT_clean_sbu_1, # of connection points: 5
#     Node 25, Type 0, BuildingBlock: XOMCOT_clean_sbu_1, # of connection points: 5
#     Node 26, Type 0, BuildingBlock: XOMCOT_clean_sbu_1, # of connection points: 5
#     Node 27, Type 0, BuildingBlock: XOMCOT_clean_sbu_1, # of connection points: 5
#     Node 28, Type 0, BuildingBlock: XOMCOT_clean_sbu_1, # of connection points: 5
#     Node 29, Type 0, BuildingBlock: XOMCOT_clean_sbu_1, # of connection points: 5
#     Node 30, Type 0, BuildingBlock: XOMCOT_clean_sbu_1, # of connection points: 5
#     Node 31, Type 0, BuildingBlock: XOMCOT_clean_sbu_1, # of connection points: 5
#     Node 32, Type 0, BuildingBlock: XOMCOT_clean_sbu_1, # of connection points: 5
#     Node 33, Type 0, BuildingBlock: XOMCOT_clean_sbu_1, # of connection points: 5
#     Node 34, Type 0, BuildingBlock: XOMCOT_clean_sbu_1, # of connection points: 5
#     Node 35, Type 0, BuildingBlock: XOMCOT_clean_sbu_1, # of connection points: 5
#     Node 36, Type 0, BuildingBlock: XOMCOT_clean_sbu_1, # of connection points: 5
#     Node 37, Type 0, BuildingBlock: XOMCOT_clean_sbu_1, # of connection points: 5
#     Node 38, Type 0, BuildingBlock: XOMCOT_clean_sbu_1, # of connection points: 5
#     Node 39, Type 0, BuildingBlock: XOMCOT_clean_sbu_1, # of connection points: 5
#     Node 40, Type 0, BuildingBlock: XOMCOT_clean_sbu_1, # of connection points: 5
#     Node 41, Type 0, BuildingBlock: XOMCOT_clean_sbu_1, # of connection points: 5
#     Node 42, Type 0, BuildingBlock: XOMCOT_clean_sbu_1, # of connection points: 5
#     Node 43, Type 0, BuildingBlock: XOMCOT_clean_sbu_1, # of connection points: 5
#     Node 44, Type 0, BuildingBlock: XOMCOT_clean_sbu_1, # of connection points: 5
#     Node 45, Type 0, BuildingBlock: XOMCOT_clean_sbu_1, # of connection points: 5
#     Node 46, Type 0, BuildingBlock: XOMCOT_clean_sbu_1, # of connection points: 5
#     Node 47, Type 0, BuildingBlock: XOMCOT_clean_sbu_1, # of connection points: 5
#     Node 48, Type 0, BuildingBlock: XOMCOT_clean_sbu_1, # of connection points: 5
#     Node 49, Type 0, BuildingBlock: XOMCOT_clean_sbu_1, # of connection points: 5
#     Node 50, Type 0, BuildingBlock: XOMCOT_clean_sbu_1, # of connection points: 5
#     Node 51, Type 0, BuildingBlock: XOMCOT_clean_sbu_1, # of connection points: 5
#     Node 52, Type 0, BuildingBlock: XOMCOT_clean_sbu_1, # of connection points: 5
#     Node 53, Type 0, BuildingBlock: XOMCOT_clean_sbu_1, # of connection points: 5
#     Node 54, Type 0, BuildingBlock: XOMCOT_clean_sbu_1, # of connection points: 5
#     Node 55, Type 0, BuildingBlock: XOMCOT_clean_sbu_1, # of connection points: 5
#     Node 56, Type 0, BuildingBlock: XOMCOT_clean_sbu_1, # of connection points: 5
#     Node 57, Type 0, BuildingBlock: XOMCOT_clean_sbu_1, # of connection points: 5
#     Node 58, Type 0, BuildingBlock: XOMCOT_clean_sbu_1, # of connection points: 5
#     Node 59, Type 0, BuildingBlock: XOMCOT_clean_sbu_1, # of connection points: 5
#     Node 60, Type 0, BuildingBlock: XOMCOT_clean_sbu_1, # of connection points: 5
#     Node 61, Type 0, BuildingBlock: XOMCOT_clean_sbu_1, # of connection points: 5
#     Node 62, Type 0, BuildingBlock: XOMCOT_clean_sbu_1, # of connection points: 5
#     Node 63, Type 0, BuildingBlock: XOMCOT_clean_sbu_1, # of connection points: 5
#     Node 64, Type 0, BuildingBlock: XOMCOT_clean_sbu_1, # of connection points: 5
#     Node 65, Type 0, BuildingBlock: XOMCOT_clean_sbu_1, # of connection points: 5
#     Node 66, Type 0, BuildingBlock: XOMCOT_clean_sbu_1, # of connection points: 5
#     Node 67, Type 0, BuildingBlock: XOMCOT_clean_sbu_1, # of connection points: 5
#     Node 68, Type 0, BuildingBlock: XOMCOT_clean_sbu_1, # of connection points: 5
#     Node 69, Type 0, BuildingBlock: XOMCOT_clean_sbu_1, # of connection points: 5
#     Node 70, Type 0, BuildingBlock: XOMCOT_clean_sbu_1, # of connection points: 5
#     Node 71, Type 0, BuildingBlock: XOMCOT_clean_sbu_1, # of connection points: 5
#     Node 72, Type 0, BuildingBlock: XOMCOT_clean_sbu_1, # of connection points: 5
#     Node 73, Type 0, BuildingBlock: XOMCOT_clean_sbu_1, # of connection points: 5
#     Node 74, Type 0, BuildingBlock: XOMCOT_clean_sbu_1, # of connection points: 5
#     Node 75, Type 0, BuildingBlock: XOMCOT_clean_sbu_1, # of connection points: 5
#     Node 76, Type 0, BuildingBlock: XOMCOT_clean_sbu_1, # of connection points: 5
#     Node 77, Type 0, BuildingBlock: XOMCOT_clean_sbu_1, # of connection points: 5
#     Node 78, Type 0, BuildingBlock: XOMCOT_clean_sbu_1, # of connection points: 5
#     Node 79, Type 0, BuildingBlock: XOMCOT_clean_sbu_1, # of connection points: 5
#     Node 80, Type 0, BuildingBlock: XOMCOT_clean_sbu_1, # of connection points: 5
#     Node 81, Type 0, BuildingBlock: XOMCOT_clean_sbu_1, # of connection points: 5
#     Node 82, Type 0, BuildingBlock: XOMCOT_clean_sbu_1, # of connection points: 5
#     Node 83, Type 0, BuildingBlock: XOMCOT_clean_sbu_1, # of connection points: 5
#     Node 84, Type 0, BuildingBlock: XOMCOT_clean_sbu_1, # of connection points: 5
#     Node 85, Type 0, BuildingBlock: XOMCOT_clean_sbu_1, # of connection points: 5
#     Node 86, Type 0, BuildingBlock: XOMCOT_clean_sbu_1, # of connection points: 5
#     Node 87, Type 0, BuildingBlock: XOMCOT_clean_sbu_1, # of connection points: 5
#     Node 88, Type 0, BuildingBlock: XOMCOT_clean_sbu_1, # of connection points: 5
#     Node 89, Type 0, BuildingBlock: XOMCOT_clean_sbu_1, # of connection points: 5
#     Node 90, Type 0, BuildingBlock: XOMCOT_clean_sbu_1, # of connection points: 5
#     Node 91, Type 0, BuildingBlock: XOMCOT_clean_sbu_1, # of connection points: 5
#     Node 92, Type 0, BuildingBlock: XOMCOT_clean_sbu_1, # of connection points: 5
#     Node 93, Type 0, BuildingBlock: XOMCOT_clean_sbu_1, # of connection points: 5
#     Node 94, Type 0, BuildingBlock: XOMCOT_clean_sbu_1, # of connection points: 5
#     Node 95, Type 0, BuildingBlock: XOMCOT_clean_sbu_1, # of connection points: 5
#     Edge 96, Type (0, 0), BuildingBlock: EZIPEK_clean_linker_0, # of connection points: 2
#     Edge 97, Type (0, 0), BuildingBlock: EZIPEK_clean_linker_0, # of connection points: 2
#     Edge 98, Type (0, 0), BuildingBlock: EZIPEK_clean_linker_0, # of connection points: 2
#     Edge 99, Type (0, 0), BuildingBlock: EZIPEK_clean_linker_0, # of connection points: 2
#     Edge 100, Type (0, 0), BuildingBlock: EZIPEK_clean_linker_0, # of connection points: 2
#     Edge 101, Type (0, 0), BuildingBlock: EZIPEK_clean_linker_0, # of connection points: 2
#     Edge 102, Type (0, 0), BuildingBlock: EZIPEK_clean_linker_0, # of connection points: 2
#     Edge 103, Type (0, 0), BuildingBlock: EZIPEK_clean_linker_0, # of connection points: 2
#     Edge 104, Type (0, 0), BuildingBlock: EZIPEK_clean_linker_0, # of connection points: 2
#     Edge 105, Type (0, 0), BuildingBlock: EZIPEK_clean_linker_0, # of connection points: 2
#     Edge 106, Type (0, 0), BuildingBlock: EZIPEK_clean_linker_0, # of connection points: 2
#     Edge 107, Type (0, 0), BuildingBlock: EZIPEK_clean_linker_0, # of connection points: 2
#     Edge 108, Type (0, 0), BuildingBlock: EZIPEK_clean_linker_0, # of connection points: 2
#     Edge 109, Type (0, 0), BuildingBlock: EZIPEK_clean_linker_0, # of connection points: 2
#     Edge 110, Type (0, 0), BuildingBlock: EZIPEK_clean_linker_0, # of connection points: 2
#     Edge 111, Type (0, 0), BuildingBlock: EZIPEK_clean_linker_0, # of connection points: 2
#     Edge 112, Type (0, 0), BuildingBlock: EZIPEK_clean_linker_0, # of connection points: 2
#     Edge 113, Type (0, 0), BuildingBlock: EZIPEK_clean_linker_0, # of connection points: 2
#     Edge 114, Type (0, 0), BuildingBlock: EZIPEK_clean_linker_0, # of connection points: 2
#     Edge 115, Type (0, 0), BuildingBlock: EZIPEK_clean_linker_0, # of connection points: 2
#     Edge 116, Type (0, 0), BuildingBlock: EZIPEK_clean_linker_0, # of connection points: 2
#     Edge 117, Type (0, 0), BuildingBlock: EZIPEK_clean_linker_0, # of connection points: 2
#     Edge 118, Type (0, 0), BuildingBlock: EZIPEK_clean_linker_0, # of connection points: 2
#     Edge 119, Type (0, 0), BuildingBlock: EZIPEK_clean_linker_0, # of connection points: 2
#     Edge 120, Type (0, 0), BuildingBlock: EZIPEK_clean_linker_0, # of connection points: 2
#     Edge 121, Type (0, 0), BuildingBlock: EZIPEK_clean_linker_0, # of connection points: 2
#     Edge 122, Type (0, 0), BuildingBlock: EZIPEK_clean_linker_0, # of connection points: 2
#     Edge 123, Type (0, 0), BuildingBlock: EZIPEK_clean_linker_0, # of connection points: 2
#     Edge 124, Type (0, 0), BuildingBlock: EZIPEK_clean_linker_0, # of connection points: 2
#     Edge 125, Type (0, 0), BuildingBlock: EZIPEK_clean_linker_0, # of connection points: 2
#     Edge 126, Type (0, 0), BuildingBlock: EZIPEK_clean_linker_0, # of connection points: 2
#     Edge 127, Type (0, 0), BuildingBlock: EZIPEK_clean_linker_0, # of connection points: 2
#     Edge 128, Type (0, 0), BuildingBlock: EZIPEK_clean_linker_0, # of connection points: 2
#     Edge 129, Type (0, 0), BuildingBlock: EZIPEK_clean_linker_0, # of connection points: 2
#     Edge 130, Type (0, 0), BuildingBlock: EZIPEK_clean_linker_0, # of connection points: 2
#     Edge 131, Type (0, 0), BuildingBlock: EZIPEK_clean_linker_0, # of connection points: 2
#     Edge 132, Type (0, 0), BuildingBlock: EZIPEK_clean_linker_0, # of connection points: 2
#     Edge 133, Type (0, 0), BuildingBlock: EZIPEK_clean_linker_0, # of connection points: 2
#     Edge 134, Type (0, 0), BuildingBlock: EZIPEK_clean_linker_0, # of connection points: 2
#     Edge 135, Type (0, 0), BuildingBlock: EZIPEK_clean_linker_0, # of connection points: 2
#     Edge 136, Type (0, 0), BuildingBlock: EZIPEK_clean_linker_0, # of connection points: 2
#     Edge 137, Type (0, 0), BuildingBlock: EZIPEK_clean_linker_0, # of connection points: 2
#     Edge 138, Type (0, 0), BuildingBlock: EZIPEK_clean_linker_0, # of connection points: 2
#     Edge 139, Type (0, 0), BuildingBlock: EZIPEK_clean_linker_0, # of connection points: 2
#     Edge 140, Type (0, 0), BuildingBlock: EZIPEK_clean_linker_0, # of connection points: 2
#     Edge 141, Type (0, 0), BuildingBlock: EZIPEK_clean_linker_0, # of connection points: 2
#     Edge 142, Type (0, 0), BuildingBlock: EZIPEK_clean_linker_0, # of connection points: 2
#     Edge 143, Type (0, 0), BuildingBlock: EZIPEK_clean_linker_0, # of connection points: 2
#     Edge 144, Type (0, 0), BuildingBlock: EZIPEK_clean_linker_0, # of connection points: 2
#     Edge 145, Type (0, 0), BuildingBlock: EZIPEK_clean_linker_0, # of connection points: 2
#     Edge 146, Type (0, 0), BuildingBlock: EZIPEK_clean_linker_0, # of connection points: 2
#     Edge 147, Type (0, 0), BuildingBlock: EZIPEK_clean_linker_0, # of connection points: 2
#     Edge 148, Type (0, 0), BuildingBlock: EZIPEK_clean_linker_0, # of connection points: 2
#     Edge 149, Type (0, 0), BuildingBlock: EZIPEK_clean_linker_0, # of connection points: 2
#     Edge 150, Type (0, 0), BuildingBlock: EZIPEK_clean_linker_0, # of connection points: 2
#     Edge 151, Type (0, 0), BuildingBlock: EZIPEK_clean_linker_0, # of connection points: 2
#     Edge 152, Type (0, 0), BuildingBlock: EZIPEK_clean_linker_0, # of connection points: 2
#     Edge 153, Type (0, 0), BuildingBlock: EZIPEK_clean_linker_0, # of connection points: 2
#     Edge 154, Type (0, 0), BuildingBlock: EZIPEK_clean_linker_0, # of connection points: 2
#     Edge 155, Type (0, 0), BuildingBlock: EZIPEK_clean_linker_0, # of connection points: 2
#     Edge 156, Type (0, 0), BuildingBlock: EZIPEK_clean_linker_0, # of connection points: 2
#     Edge 157, Type (0, 0), BuildingBlock: EZIPEK_clean_linker_0, # of connection points: 2
#     Edge 158, Type (0, 0), BuildingBlock: EZIPEK_clean_linker_0, # of connection points: 2
#     Edge 159, Type (0, 0), BuildingBlock: EZIPEK_clean_linker_0, # of connection points: 2
#     Edge 160, Type (0, 0), BuildingBlock: EZIPEK_clean_linker_0, # of connection points: 2
#     Edge 161, Type (0, 0), BuildingBlock: EZIPEK_clean_linker_0, # of connection points: 2
#     Edge 162, Type (0, 0), BuildingBlock: EZIPEK_clean_linker_0, # of connection points: 2
#     Edge 163, Type (0, 0), BuildingBlock: EZIPEK_clean_linker_0, # of connection points: 2
#     Edge 164, Type (0, 0), BuildingBlock: EZIPEK_clean_linker_0, # of connection points: 2
#     Edge 165, Type (0, 0), BuildingBlock: EZIPEK_clean_linker_0, # of connection points: 2
#     Edge 166, Type (0, 0), BuildingBlock: EZIPEK_clean_linker_0, # of connection points: 2
#     Edge 167, Type (0, 0), BuildingBlock: EZIPEK_clean_linker_0, # of connection points: 2
#     Edge 168, Type (0, 0), BuildingBlock: EZIPEK_clean_linker_0, # of connection points: 2
#     Edge 169, Type (0, 0), BuildingBlock: EZIPEK_clean_linker_0, # of connection points: 2
#     Edge 170, Type (0, 0), BuildingBlock: EZIPEK_clean_linker_0, # of connection points: 2
#     Edge 171, Type (0, 0), BuildingBlock: EZIPEK_clean_linker_0, # of connection points: 2
#     Edge 172, Type (0, 0), BuildingBlock: EZIPEK_clean_linker_0, # of connection points: 2
#     Edge 173, Type (0, 0), BuildingBlock: EZIPEK_clean_linker_0, # of connection points: 2
#     Edge 174, Type (0, 0), BuildingBlock: EZIPEK_clean_linker_0, # of connection points: 2
#     Edge 175, Type (0, 0), BuildingBlock: EZIPEK_clean_linker_0, # of connection points: 2
#     Edge 176, Type (0, 0), BuildingBlock: EZIPEK_clean_linker_0, # of connection points: 2
#     Edge 177, Type (0, 0), BuildingBlock: EZIPEK_clean_linker_0, # of connection points: 2
#     Edge 178, Type (0, 0), BuildingBlock: EZIPEK_clean_linker_0, # of connection points: 2
#     Edge 179, Type (0, 0), BuildingBlock: EZIPEK_clean_linker_0, # of connection points: 2
#     Edge 180, Type (0, 0), BuildingBlock: EZIPEK_clean_linker_0, # of connection points: 2
#     Edge 181, Type (0, 0), BuildingBlock: EZIPEK_clean_linker_0, # of connection points: 2
#     Edge 182, Type (0, 0), BuildingBlock: EZIPEK_clean_linker_0, # of connection points: 2
#     Edge 183, Type (0, 0), BuildingBlock: EZIPEK_clean_linker_0, # of connection points: 2
#     Edge 184, Type (0, 0), BuildingBlock: EZIPEK_clean_linker_0, # of connection points: 2
#     Edge 185, Type (0, 0), BuildingBlock: EZIPEK_clean_linker_0, # of connection points: 2
#     Edge 186, Type (0, 0), BuildingBlock: EZIPEK_clean_linker_0, # of connection points: 2
#     Edge 187, Type (0, 0), BuildingBlock: EZIPEK_clean_linker_0, # of connection points: 2
#     Edge 188, Type (0, 0), BuildingBlock: EZIPEK_clean_linker_0, # of connection points: 2
#     Edge 189, Type (0, 0), BuildingBlock: EZIPEK_clean_linker_0, # of connection points: 2
#     Edge 190, Type (0, 0), BuildingBlock: EZIPEK_clean_linker_0, # of connection points: 2
#     Edge 191, Type (0, 0), BuildingBlock: EZIPEK_clean_linker_0, # of connection points: 2
#     Edge 192, Type (0, 0), BuildingBlock: EZIPEK_clean_linker_0, # of connection points: 2
#     Edge 193, Type (0, 0), BuildingBlock: EZIPEK_clean_linker_0, # of connection points: 2
#     Edge 194, Type (0, 0), BuildingBlock: EZIPEK_clean_linker_0, # of connection points: 2
#     Edge 195, Type (0, 0), BuildingBlock: EZIPEK_clean_linker_0, # of connection points: 2
#     Edge 196, Type (0, 0), BuildingBlock: EZIPEK_clean_linker_0, # of connection points: 2
#     Edge 197, Type (0, 0), BuildingBlock: EZIPEK_clean_linker_0, # of connection points: 2
#     Edge 198, Type (0, 0), BuildingBlock: EZIPEK_clean_linker_0, # of connection points: 2
#     Edge 199, Type (0, 0), BuildingBlock: EZIPEK_clean_linker_0, # of connection points: 2
#     Edge 200, Type (0, 0), BuildingBlock: EZIPEK_clean_linker_0, # of connection points: 2
#     Edge 201, Type (0, 0), BuildingBlock: EZIPEK_clean_linker_0, # of connection points: 2
#     Edge 202, Type (0, 0), BuildingBlock: EZIPEK_clean_linker_0, # of connection points: 2
#     Edge 203, Type (0, 0), BuildingBlock: EZIPEK_clean_linker_0, # of connection points: 2
#     Edge 204, Type (0, 0), BuildingBlock: EZIPEK_clean_linker_0, # of connection points: 2
#     Edge 205, Type (0, 0), BuildingBlock: EZIPEK_clean_linker_0, # of connection points: 2
#     Edge 206, Type (0, 0), BuildingBlock: EZIPEK_clean_linker_0, # of connection points: 2
#     Edge 207, Type (0, 0), BuildingBlock: EZIPEK_clean_linker_0, # of connection points: 2
#     Edge 208, Type (0, 0), BuildingBlock: EZIPEK_clean_linker_0, # of connection points: 2
#     Edge 209, Type (0, 0), BuildingBlock: EZIPEK_clean_linker_0, # of connection points: 2
#     Edge 210, Type (0, 0), BuildingBlock: EZIPEK_clean_linker_0, # of connection points: 2
#     Edge 211, Type (0, 0), BuildingBlock: EZIPEK_clean_linker_0, # of connection points: 2
#     Edge 212, Type (0, 0), BuildingBlock: EZIPEK_clean_linker_0, # of connection points: 2
#     Edge 213, Type (0, 0), BuildingBlock: EZIPEK_clean_linker_0, # of connection points: 2
#     Edge 214, Type (0, 0), BuildingBlock: EZIPEK_clean_linker_0, # of connection points: 2
#     Edge 215, Type (0, 0), BuildingBlock: EZIPEK_clean_linker_0, # of connection points: 2
#     Edge 216, Type (0, 0), BuildingBlock: EZIPEK_clean_linker_0, # of connection points: 2
#     Edge 217, Type (0, 0), BuildingBlock: EZIPEK_clean_linker_0, # of connection points: 2
#     Edge 218, Type (0, 0), BuildingBlock: EZIPEK_clean_linker_0, # of connection points: 2
#     Edge 219, Type (0, 0), BuildingBlock: EZIPEK_clean_linker_0, # of connection points: 2
#     Edge 220, Type (0, 0), BuildingBlock: EZIPEK_clean_linker_0, # of connection points: 2
#     Edge 221, Type (0, 0), BuildingBlock: EZIPEK_clean_linker_0, # of connection points: 2
#     Edge 222, Type (0, 0), BuildingBlock: EZIPEK_clean_linker_0, # of connection points: 2
#     Edge 223, Type (0, 0), BuildingBlock: EZIPEK_clean_linker_0, # of connection points: 2
#     Edge 224, Type (0, 0), BuildingBlock: EZIPEK_clean_linker_0, # of connection points: 2
#     Edge 225, Type (0, 0), BuildingBlock: EZIPEK_clean_linker_0, # of connection points: 2
#     Edge 226, Type (0, 0), BuildingBlock: EZIPEK_clean_linker_0, # of connection points: 2
#     Edge 227, Type (0, 0), BuildingBlock: EZIPEK_clean_linker_0, # of connection points: 2
#     Edge 228, Type (0, 0), BuildingBlock: EZIPEK_clean_linker_0, # of connection points: 2
#     Edge 229, Type (0, 0), BuildingBlock: EZIPEK_clean_linker_0, # of connection points: 2
#     Edge 230, Type (0, 0), BuildingBlock: EZIPEK_clean_linker_0, # of connection points: 2
#     Edge 231, Type (0, 0), BuildingBlock: EZIPEK_clean_linker_0, # of connection points: 2
#     Edge 232, Type (0, 0), BuildingBlock: EZIPEK_clean_linker_0, # of connection points: 2
#     Edge 233, Type (0, 0), BuildingBlock: EZIPEK_clean_linker_0, # of connection points: 2
#     Edge 234, Type (0, 0), BuildingBlock: EZIPEK_clean_linker_0, # of connection points: 2
#     Edge 235, Type (0, 0), BuildingBlock: EZIPEK_clean_linker_0, # of connection points: 2
#     Edge 236, Type (0, 0), BuildingBlock: EZIPEK_clean_linker_0, # of connection points: 2
#     Edge 237, Type (0, 0), BuildingBlock: EZIPEK_clean_linker_0, # of connection points: 2
#     Edge 238, Type (0, 0), BuildingBlock: EZIPEK_clean_linker_0, # of connection points: 2
#     Edge 239, Type (0, 0), BuildingBlock: EZIPEK_clean_linker_0, # of connection points: 2
#     Edge 240, Type (0, 0), BuildingBlock: EZIPEK_clean_linker_0, # of connection points: 2
#     Edge 241, Type (0, 0), BuildingBlock: EZIPEK_clean_linker_0, # of connection points: 2
#     Edge 242, Type (0, 0), BuildingBlock: EZIPEK_clean_linker_0, # of connection points: 2
#     Edge 243, Type (0, 0), BuildingBlock: EZIPEK_clean_linker_0, # of connection points: 2
#     Edge 244, Type (0, 0), BuildingBlock: EZIPEK_clean_linker_0, # of connection points: 2
#     Edge 245, Type (0, 0), BuildingBlock: EZIPEK_clean_linker_0, # of connection points: 2
#     Edge 246, Type (0, 0), BuildingBlock: EZIPEK_clean_linker_0, # of connection points: 2
#     Edge 247, Type (0, 0), BuildingBlock: EZIPEK_clean_linker_0, # of connection points: 2
#     Edge 248, Type (0, 0), BuildingBlock: EZIPEK_clean_linker_0, # of connection points: 2
#     Edge 249, Type (0, 0), BuildingBlock: EZIPEK_clean_linker_0, # of connection points: 2
#     Edge 250, Type (0, 0), BuildingBlock: EZIPEK_clean_linker_0, # of connection points: 2
#     Edge 251, Type (0, 0), BuildingBlock: EZIPEK_clean_linker_0, # of connection points: 2
#     Edge 252, Type (0, 0), BuildingBlock: EZIPEK_clean_linker_0, # of connection points: 2
#     Edge 253, Type (0, 0), BuildingBlock: EZIPEK_clean_linker_0, # of connection points: 2
#     Edge 254, Type (0, 0), BuildingBlock: EZIPEK_clean_linker_0, # of connection points: 2
#     Edge 255, Type (0, 0), BuildingBlock: EZIPEK_clean_linker_0, # of connection points: 2
#     Edge 256, Type (0, 0), BuildingBlock: EZIPEK_clean_linker_0, # of connection points: 2
#     Edge 257, Type (0, 0), BuildingBlock: EZIPEK_clean_linker_0, # of connection points: 2
#     Edge 258, Type (0, 0), BuildingBlock: EZIPEK_clean_linker_0, # of connection points: 2
#     Edge 259, Type (0, 0), BuildingBlock: EZIPEK_clean_linker_0, # of connection points: 2
#     Edge 260, Type (0, 0), BuildingBlock: EZIPEK_clean_linker_0, # of connection points: 2
#     Edge 261, Type (0, 0), BuildingBlock: EZIPEK_clean_linker_0, # of connection points: 2
#     Edge 262, Type (0, 0), BuildingBlock: EZIPEK_clean_linker_0, # of connection points: 2
#     Edge 263, Type (0, 0), BuildingBlock: EZIPEK_clean_linker_0, # of connection points: 2
#     Edge 264, Type (0, 0), BuildingBlock: EZIPEK_clean_linker_0, # of connection points: 2
#     Edge 265, Type (0, 0), BuildingBlock: EZIPEK_clean_linker_0, # of connection points: 2
#     Edge 266, Type (0, 0), BuildingBlock: EZIPEK_clean_linker_0, # of connection points: 2
#     Edge 267, Type (0, 0), BuildingBlock: EZIPEK_clean_linker_0, # of connection points: 2
#     Edge 268, Type (0, 0), BuildingBlock: EZIPEK_clean_linker_0, # of connection points: 2
#     Edge 269, Type (0, 0), BuildingBlock: EZIPEK_clean_linker_0, # of connection points: 2
#     Edge 270, Type (0, 0), BuildingBlock: EZIPEK_clean_linker_0, # of connection points: 2
#     Edge 271, Type (0, 0), BuildingBlock: EZIPEK_clean_linker_0, # of connection points: 2
#     Edge 272, Type (0, 0), BuildingBlock: EZIPEK_clean_linker_0, # of connection points: 2
#     Edge 273, Type (0, 0), BuildingBlock: EZIPEK_clean_linker_0, # of connection points: 2
#     Edge 274, Type (0, 0), BuildingBlock: EZIPEK_clean_linker_0, # of connection points: 2
#     Edge 275, Type (0, 0), BuildingBlock: EZIPEK_clean_linker_0, # of connection points: 2
#     Edge 276, Type (0, 0), BuildingBlock: EZIPEK_clean_linker_0, # of connection points: 2
#     Edge 277, Type (0, 0), BuildingBlock: EZIPEK_clean_linker_0, # of connection points: 2
#     Edge 278, Type (0, 0), BuildingBlock: EZIPEK_clean_linker_0, # of connection points: 2
#     Edge 279, Type (0, 0), BuildingBlock: EZIPEK_clean_linker_0, # of connection points: 2
#     Edge 280, Type (0, 0), BuildingBlock: EZIPEK_clean_linker_0, # of connection points: 2
#     Edge 281, Type (0, 0), BuildingBlock: EZIPEK_clean_linker_0, # of connection points: 2
#     Edge 282, Type (0, 0), BuildingBlock: EZIPEK_clean_linker_0, # of connection points: 2
#     Edge 283, Type (0, 0), BuildingBlock: EZIPEK_clean_linker_0, # of connection points: 2
#     Edge 284, Type (0, 0), BuildingBlock: EZIPEK_clean_linker_0, # of connection points: 2
#     Edge 285, Type (0, 0), BuildingBlock: EZIPEK_clean_linker_0, # of connection points: 2
#     Edge 286, Type (0, 0), BuildingBlock: EZIPEK_clean_linker_0, # of connection points: 2
#     Edge 287, Type (0, 0), BuildingBlock: EZIPEK_clean_linker_0, # of connection points: 2
#     Edge 288, Type (0, 0), BuildingBlock: EZIPEK_clean_linker_0, # of connection points: 2
#     Edge 289, Type (0, 0), BuildingBlock: EZIPEK_clean_linker_0, # of connection points: 2
#     Edge 290, Type (0, 0), BuildingBlock: EZIPEK_clean_linker_0, # of connection points: 2
#     Edge 291, Type (0, 0), BuildingBlock: EZIPEK_clean_linker_0, # of connection points: 2
#     Edge 292, Type (0, 0), BuildingBlock: EZIPEK_clean_linker_0, # of connection points: 2
#     Edge 293, Type (0, 0), BuildingBlock: EZIPEK_clean_linker_0, # of connection points: 2
#     Edge 294, Type (0, 0), BuildingBlock: EZIPEK_clean_linker_0, # of connection points: 2
#     Edge 295, Type (0, 0), BuildingBlock: EZIPEK_clean_linker_0, # of connection points: 2
#     Edge 296, Type (0, 0), BuildingBlock: EZIPEK_clean_linker_0, # of connection points: 2
#     Edge 297, Type (0, 0), BuildingBlock: EZIPEK_clean_linker_0, # of connection points: 2
#     Edge 298, Type (0, 0), BuildingBlock: EZIPEK_clean_linker_0, # of connection points: 2
#     Edge 299, Type (0, 0), BuildingBlock: EZIPEK_clean_linker_0, # of connection points: 2
#     Edge 300, Type (0, 0), BuildingBlock: EZIPEK_clean_linker_0, # of connection points: 2
#     Edge 301, Type (0, 0), BuildingBlock: EZIPEK_clean_linker_0, # of connection points: 2
#     Edge 302, Type (0, 0), BuildingBlock: EZIPEK_clean_linker_0, # of connection points: 2
#     Edge 303, Type (0, 0), BuildingBlock: EZIPEK_clean_linker_0, # of connection points: 2
#     Edge 304, Type (0, 0), BuildingBlock: EZIPEK_clean_linker_0, # of connection points: 2
#     Edge 305, Type (0, 0), BuildingBlock: EZIPEK_clean_linker_0, # of connection points: 2
#     Edge 306, Type (0, 0), BuildingBlock: EZIPEK_clean_linker_0, # of connection points: 2
#     Edge 307, Type (0, 0), BuildingBlock: EZIPEK_clean_linker_0, # of connection points: 2
#     Edge 308, Type (0, 0), BuildingBlock: EZIPEK_clean_linker_0, # of connection points: 2
#     Edge 309, Type (0, 0), BuildingBlock: EZIPEK_clean_linker_0, # of connection points: 2
#     Edge 310, Type (0, 0), BuildingBlock: EZIPEK_clean_linker_0, # of connection points: 2
#     Edge 311, Type (0, 0), BuildingBlock: EZIPEK_clean_linker_0, # of connection points: 2
#     Edge 312, Type (0, 0), BuildingBlock: EZIPEK_clean_linker_0, # of connection points: 2
#     Edge 313, Type (0, 0), BuildingBlock: EZIPEK_clean_linker_0, # of connection points: 2
#     Edge 314, Type (0, 0), BuildingBlock: EZIPEK_clean_linker_0, # of connection points: 2
#     Edge 315, Type (0, 0), BuildingBlock: EZIPEK_clean_linker_0, # of connection points: 2
#     Edge 316, Type (0, 0), BuildingBlock: EZIPEK_clean_linker_0, # of connection points: 2
#     Edge 317, Type (0, 0), BuildingBlock: EZIPEK_clean_linker_0, # of connection points: 2
#     Edge 318, Type (0, 0), BuildingBlock: EZIPEK_clean_linker_0, # of connection points: 2
#     Edge 319, Type (0, 0), BuildingBlock: EZIPEK_clean_linker_0, # of connection points: 2
#     Edge 320, Type (0, 0), BuildingBlock: EZIPEK_clean_linker_0, # of connection points: 2
#     Edge 321, Type (0, 0), BuildingBlock: EZIPEK_clean_linker_0, # of connection points: 2
#     Edge 322, Type (0, 0), BuildingBlock: EZIPEK_clean_linker_0, # of connection points: 2
#     Edge 323, Type (0, 0), BuildingBlock: EZIPEK_clean_linker_0, # of connection points: 2
#     Edge 324, Type (0, 0), BuildingBlock: EZIPEK_clean_linker_0, # of connection points: 2
#     Edge 325, Type (0, 0), BuildingBlock: EZIPEK_clean_linker_0, # of connection points: 2
#     Edge 326, Type (0, 0), BuildingBlock: EZIPEK_clean_linker_0, # of connection points: 2
#     Edge 327, Type (0, 0), BuildingBlock: EZIPEK_clean_linker_0, # of connection points: 2
#     Edge 328, Type (0, 0), BuildingBlock: EZIPEK_clean_linker_0, # of connection points: 2
#     Edge 329, Type (0, 0), BuildingBlock: EZIPEK_clean_linker_0, # of connection points: 2
#     Edge 330, Type (0, 0), BuildingBlock: EZIPEK_clean_linker_0, # of connection points: 2
#     Edge 331, Type (0, 0), BuildingBlock: EZIPEK_clean_linker_0, # of connection points: 2
#     Edge 332, Type (0, 0), BuildingBlock: EZIPEK_clean_linker_0, # of connection points: 2
#     Edge 333, Type (0, 0), BuildingBlock: EZIPEK_clean_linker_0, # of connection points: 2
#     Edge 334, Type (0, 0), BuildingBlock: EZIPEK_clean_linker_0, # of connection points: 2
#     Edge 335, Type (0, 0), BuildingBlock: EZIPEK_clean_linker_0, # of connection points: 2
# Relax obj value: 0.888
# Max RMSD: 0.215
# Mean RMSD: 0.215
data_MOF--net-crs-a--node1-XOMCOT_clean_sbu_1--edge1-EZIPEK_clean_linker_0
_symmetry_space_group_name_H-M    P1
_symmetry_Int_Tables_number       1
_symmetry_cell_setting            triclinic
loop_
_symmetry_equiv_pos_as_xyz
'x, y, z'
_cell_length_a     78.358861
_cell_length_b     78.366363
_cell_length_c     78.351497
_cell_angle_alpha  89.961853
_cell_angle_beta   89.909378
_cell_angle_gamma 89.985256
loop_
_atom_site_label
_atom_site_type_symbol
_atom_site_fract_x
_atom_site_fract_y
_atom_site_fract_z
_atom_type_partial_charge
C0 C 0.03215 0.09611 0.46733 0.0
C1 C 0.02824 0.11369 0.48658 0.0
N2 N 0.04397 0.10756 0.50296 0.0
N3 N 0.04957 0.08278 0.4753 0.0
C4 C 0.05709 0.08936 0.4963 0.0
H5 H 0.02566 0.09493 0.45523 0.0
Co6 Co 0.06153 0.06778 0.46143 0.0
C7 C 0.08639 0.05471 0.48912 0.0
O8 O 0.10033 0.06298 0.48489 0.0
N9 N 0.07476 0.05307 0.44758 0.0
C10 C 0.09779 0.03987 0.43706 0.0
C11 C 0.09199 0.05387 0.44575 0.0
C12 C 0.07047 0.03856 0.43952 0.0
N13 N 0.08421 0.03031 0.43316 0.0
O14 O 0.04373 0.05104 0.46401 0.0
H15 H 0.10018 0.06338 0.45142 0.0
H16 H 0.0578 0.03309 0.43981 0.0
O17 O 0.07257 0.05715 0.4809 0.0
C18 C 0.03274 0.05424 0.45254 0.0
O19 O 0.03643 0.06651 0.4417 0.0
N20 N 0.07676 0.08482 0.45734 0.0
C21 C 0.09672 0.10964 0.44285 0.0
C22 C 0.09821 0.10603 0.46031 0.0
C23 C 0.08773 0.0936 0.46751 0.0
C24 C 0.07425 0.08937 0.44072 0.0
C25 C 0.08432 0.10164 0.43307 0.0
H26 H 0.08846 0.09111 0.481 0.0
H27 H 0.06471 0.08288 0.43319 0.0
H28 H 0.06753 0.08395 0.50346 0.0
H29 H 0.01759 0.12233 0.48822 0.0
H30 H 0.11098 0.03614 0.43526 0.0
H31 H 0.10748 0.11262 0.46815 0.0
H32 H 0.08273 0.1046 0.41966 0.0
C33 C 0.90544 0.28791 0.72121 0.0
C34 C 0.89859 0.27811 0.73405 0.0
N35 N 0.91033 0.27657 0.74648 0.0
N36 N 0.92118 0.2932 0.72578 0.0
C37 C 0.92382 0.286 0.74125 0.0
H38 H 0.89917 0.29117 0.70936 0.0
Co39 Co 0.93523 0.30793 0.71315 0.0
C40 C 0.94212 0.33593 0.73873 0.0
O41 O 0.93336 0.34751 0.73043 0.0
N42 N 0.94934 0.3234 0.70047 0.0
C43 C 0.95868 0.34636 0.68607 0.0
C44 C 0.94568 0.33972 0.69573 0.0
C45 C 0.96497 0.32076 0.69378 0.0
N46 N 0.9707 0.33434 0.68495 0.0
O47 O 0.95367 0.2922 0.71618 0.0
H48 H 0.93409 0.34653 0.69869 0.0
H49 H 0.97211 0.30908 0.69504 0.0
O50 O 0.94222 0.32031 0.73385 0.0
C51 C 0.95274 0.2822 0.70336 0.0
O52 O 0.94207 0.28613 0.69104 0.0
N53 N 0.91657 0.32101 0.70826 0.0
C54 C 0.89046 0.33963 0.69441 0.0
C55 C 0.89236 0.33879 0.7122 0.0
C56 C 0.90547 0.32893 0.71901 0.0
C57 C 0.91334 0.31992 0.69118 0.0
C58 C 0.90058 0.32962 0.68383 0.0
H59 H 0.90706 0.32802 0.73269 0.0
H60 H 0.92154 0.31233 0.68308 0.0
H61 H 0.93538 0.28771 0.7486 0.0
H62 H 0.88608 0.27224 0.73412 0.0
H63 H 0.95911 0.35876 0.67999 0.0
H64 H 0.88424 0.34618 0.72061 0.0
H65 H 0.89911 0.32991 0.67008 0.0
C66 C 0.7035 0.16429 0.96236 0.0
C67 C 0.71227 0.15588 0.97492 0.0
N68 N 0.71152 0.16514 0.98948 0.0
N69 N 0.69781 0.17927 0.96847 0.0
C70 C 0.70332 0.17966 0.98477 0.0
H71 H 0.70098 0.15949 0.94967 0.0
Co72 Co 0.68187 0.19354 0.95802 0.0
C73 C 0.6573 0.1982 0.98765 0.0
O74 O 0.64426 0.19117 0.97995 0.0
N75 N 0.66473 0.20778 0.94772 0.0
C76 C 0.63988 0.21524 0.93554 0.0
C77 C 0.64796 0.20368 0.94577 0.0
C78 C 0.66613 0.2225 0.93886 0.0
N79 N 0.6514 0.22697 0.93118 0.0
O80 O 0.69745 0.21223 0.96082 0.0
H81 H 0.642 0.19211 0.95004 0.0
H82 H 0.67781 0.22954 0.93715 0.0
O83 O 0.67195 0.19888 0.98047 0.0
C84 C 0.70849 0.21502 0.9491 0.0
O85 O 0.70365 0.21448 0.93307 0.0
N86 N 0.6686 0.17468 0.95401 0.0
C87 C 0.64748 0.1487 0.94415 0.0
C88 C 0.65185 0.15052 0.96137 0.0
C89 C 0.66285 0.16356 0.96605 0.0
C90 C 0.66652 0.17141 0.93704 0.0
C91 C 0.65548 0.15864 0.93174 0.0
H92 H 0.66634 0.16511 0.97928 0.0
H93 H 0.67248 0.17964 0.92766 0.0
H94 H 0.70108 0.19042 0.99312 0.0
H95 H 0.71864 0.14391 0.97288 0.0
H96 H 0.62707 0.2143 0.93045 0.0
H97 H 0.64614 0.1425 0.97109 0.0
H98 H 0.65251 0.15714 0.91833 0.0
C99 C 0.8506 0.93687 0.23518 0.0
C100 C 0.85472 0.94917 0.24699 0.0
N101 N 0.84023 0.95439 0.25444 0.0
N102 N 0.83346 0.93424 0.23513 0.0
C103 C 0.82763 0.94527 0.24715 0.0
H104 H 0.85974 0.93133 0.22654 0.0
Co105 Co 0.81876 0.9211 0.22064 0.0
C106 C 0.79957 0.90718 0.24613 0.0
O107 O 0.80916 0.89394 0.24237 0.0
N108 N 0.80411 0.90848 0.20669 0.0
C109 C 0.79319 0.88962 0.18843 0.0
C110 C 0.80631 0.89283 0.19977 0.0
C111 C 0.78961 0.91434 0.19965 0.0
N112 N 0.7826 0.90315 0.18874 0.0
O113 O 0.80961 0.94252 0.21151 0.0
H114 H 0.81714 0.88463 0.20223 0.0
H115 H 0.78421 0.92678 0.2023 0.0
O116 O 0.80172 0.9211 0.23798 0.0
C117 C 0.81753 0.95589 0.20662 0.0
O118 O 0.83427 0.95588 0.20582 0.0
N119 N 0.83524 0.91913 0.20368 0.0
C120 C 0.85211 0.89985 0.17934 0.0
C121 C 0.85653 0.89861 0.1966 0.0
C122 C 0.84733 0.90771 0.20856 0.0
C123 C 0.83189 0.92181 0.18673 0.0
C124 C 0.84016 0.91206 0.17422 0.0
H125 H 0.84853 0.90423 0.22187 0.0
H126 H 0.82094 0.92921 0.18298 0.0
H127 H 0.81429 0.94734 0.24995 0.0
H128 H 0.86722 0.95462 0.24919 0.0
H129 H 0.79168 0.87846 0.18045 0.0
H130 H 0.86537 0.88893 0.201 0.0
H131 H 0.83606 0.91282 0.16105 0.0
C132 C 0.04584 0.14414 0.7693 0.0
C133 C 0.03507 0.13865 0.75649 0.0
N134 N 0.02974 0.15248 0.74788 0.0
N135 N 0.04717 0.16135 0.76866 0.0
C136 C 0.03682 0.16596 0.7557 0.0
H137 H 0.05256 0.13598 0.77816 0.0
Co138 Co 0.06131 0.17653 0.78061 0.0
C139 C 0.07297 0.18175 0.74369 0.0
O140 O 0.06967 0.16637 0.73795 0.0
N141 N 0.0763 0.19164 0.79195 0.0
C142 C 0.09799 0.20971 0.79529 0.0
C143 C 0.09174 0.19642 0.78581 0.0
C144 C 0.07436 0.20126 0.80606 0.0
N145 N 0.08667 0.2132 0.80768 0.0
O146 O 0.04312 0.19263 0.78009 0.0
H147 H 0.09744 0.19173 0.77415 0.0
H148 H 0.06275 0.20194 0.81336 0.0
O149 O 0.07013 0.18559 0.75924 0.0
C150 C 0.03358 0.19096 0.79321 0.0
O151 O 0.04026 0.18426 0.80697 0.0
N152 N 0.07736 0.16034 0.78319 0.0
C153 C 0.09968 0.13828 0.79843 0.0
C154 C 0.10302 0.14429 0.78186 0.0
C155 C 0.09152 0.15562 0.77434 0.0
C156 C 0.07392 0.15423 0.79908 0.0
C157 C 0.08501 0.14321 0.80705 0.0
H158 H 0.09432 0.16103 0.762 0.0
H159 H 0.06263 0.15851 0.80577 0.0
H160 H 0.03487 0.17898 0.75162 0.0
H161 H 0.0316 0.12561 0.75359 0.0
H162 H 0.10854 0.21787 0.79166 0.0
H163 H 0.1145 0.14057 0.77511 0.0
H164 H 0.08229 0.13871 0.81985 0.0
C165 C 0.8408 0.31438 0.00213 0.0
C166 C 0.84598 0.30344 0.98941 0.0
N167 N 0.83262 0.29364 0.98522 0.0
N168 N 0.82422 0.31134 0.00615 0.0
C169 C 0.81961 0.29876 0.99524 0.0
H170 H 0.84908 0.32354 0.00812 0.0
Co171 Co 0.80971 0.32096 0.02324 0.0
C172 C 0.79089 0.33448 -0.00114 0.0
O173 O 0.80281 0.34611 0.00065 0.0
N174 N 0.79565 0.3309 0.03939 0.0
C175 C 0.78482 0.35044 0.05682 0.0
C176 C 0.79611 0.34753 0.04369 0.0
C177 C 0.78392 0.32398 0.04985 0.0
N178 N 0.77711 0.33554 0.06075 0.0
O179 O 0.80339 0.29774 0.03088 0.0
H180 H 0.80437 0.35689 0.0378 0.0
H181 H 0.78033 0.31065 0.04951 0.0
O182 O 0.79153 0.32088 0.00768 0.0
C183 C 0.81347 0.28496 0.03211 0.0
O184 O 0.82995 0.28733 0.03012 0.0
N185 N 0.82728 0.32282 0.03875 0.0
C186 C 0.85151 0.33474 0.06135 0.0
C187 C 0.84907 0.3427 0.04554 0.0
C188 C 0.83653 0.33687 0.03474 0.0
C189 C 0.82856 0.31549 0.05456 0.0
C190 C 0.84103 0.32108 0.06607 0.0
H191 H 0.8338 0.34382 0.02313 0.0
H192 H 0.81943 0.30603 0.05869 0.0
H193 H 0.80711 0.29298 0.99502 0.0
H194 H 0.85867 0.30236 0.98405 0.0
H195 H 0.78323 0.36252 0.06315 0.0
H196 H 0.85648 0.35376 0.04178 0.0
H197 H 0.8421 0.31528 0.07857 0.0
C198 C 0.69666 0.0885 0.26944 0.0
C199 C 0.70734 0.09533 0.25716 0.0
N200 N 0.71169 0.08261 0.24653 0.0
N201 N 0.69438 0.07165 0.26628 0.0
C202 C 0.70394 0.06857 0.25237 0.0
H203 H 0.69082 0.09548 0.27981 0.0
Co204 Co 0.68045 0.05538 0.27677 0.0
C205 C 0.6659 0.05556 0.24051 0.0
O206 O 0.67008 0.07108 0.2358 0.0
N207 N 0.66585 0.0394 0.2867 0.0
C208 C 0.64144 0.02642 0.29344 0.0
C209 C 0.64876 0.0392 0.28404 0.0
C210 C 0.66866 0.02642 0.29761 0.0
N211 N 0.65403 0.01834 0.30173 0.0
O212 O 0.69725 0.0382 0.27203 0.0
H213 H 0.64195 0.04776 0.27565 0.0
H214 H 0.6811 0.0228 0.30235 0.0
O215 O 0.66938 0.05015 0.25542 0.0
C216 C 0.70792 0.03948 0.28417 0.0
O217 O 0.7039 0.0498 0.29678 0.0
N218 N 0.66567 0.07214 0.28339 0.0
C219 C 0.64657 0.09561 0.30112 0.0
C220 C 0.64342 0.09278 0.28371 0.0
C221 C 0.65331 0.08088 0.2749 0.0
C222 C 0.66903 0.07516 0.30019 0.0
C223 C 0.65965 0.08696 0.30935 0.0
H224 H 0.65075 0.07844 0.26163 0.0
H225 H 0.67897 0.06809 0.30657 0.0
H226 H 0.70506 0.05629 0.24631 0.0
H227 H 0.71163 0.10842 0.25615 0.0
H228 H 0.62807 0.02295 0.29382 0.0
H229 H 0.63326 0.09948 0.27717 0.0
H230 H 0.66226 0.08901 0.32277 0.0
C231 C 0.89991 0.94234 0.5188 0.0
C232 C 0.89322 0.95146 0.50539 0.0
N233 N 0.9062 0.95626 0.49525 0.0
N234 N 0.917 0.94071 0.51677 0.0
C235 C 0.92042 0.94949 0.50227 0.0
H236 H 0.89265 0.93726 0.5294 0.0
Co237 Co 0.93208 0.92792 0.53054 0.0
C238 C 0.94256 0.90102 0.50437 0.0
O239 O 0.93456 0.88827 0.51167 0.0
N240 N 0.94717 0.91408 0.544 0.0
C241 C 0.95804 0.89107 0.55719 0.0
C242 C 0.94524 0.89705 0.547 0.0
C243 C 0.96157 0.91796 0.55259 0.0
N244 N 0.96823 0.90426 0.56057 0.0
O245 O 0.94899 0.94549 0.52772 0.0
H246 H 0.93495 0.88917 0.54246 0.0
H247 H 0.96722 0.93047 0.55308 0.0
O248 O 0.94126 0.91622 0.51024 0.0
C249 C 0.94893 0.95628 0.53994 0.0
O250 O 0.94004 0.95278 0.55373 0.0
N251 N 0.9148 0.91286 0.53514 0.0
C252 C 0.89181 0.89048 0.54909 0.0
C253 C 0.89359 0.8916 0.53129 0.0
C254 C 0.90515 0.90322 0.52444 0.0
C255 C 0.91138 0.91351 0.55222 0.0
C256 C 0.90046 0.9018 0.55964 0.0
H257 H 0.90666 0.90427 0.51076 0.0
H258 H 0.91831 0.92232 0.56026 0.0
H259 H 0.93312 0.95107 0.49705 0.0
H260 H 0.88 0.95508 0.50368 0.0
H261 H 0.95983 0.87813 0.5617 0.0
H262 H 0.88653 0.88319 0.5229 0.0
H263 H 0.89908 0.90131 0.57339 0.0
C264 C 0.4679 0.04683 0.10348 0.0
C265 C 0.48173 0.03851 0.11053 0.0
N266 N 0.49486 0.03853 0.09919 0.0
N267 N 0.4719 0.05174 0.08757 0.0
C268 C 0.48812 0.04633 0.08535 0.0
H269 H 0.45542 0.04831 0.10922 0.0
Co270 Co 0.45789 0.06147 0.07086 0.0
C271 C 0.49213 0.07883 0.05998 0.0
O272 O 0.49911 0.08272 0.07467 0.0
N273 N 0.44478 0.07186 0.05404 0.0
C274 C 0.43841 0.09038 0.03359 0.0
C275 C 0.44798 0.08768 0.0479 0.0
C276 C 0.43232 0.06574 0.04405 0.0
N277 N 0.42891 0.07638 0.03094 0.0
O278 O 0.46107 0.04124 0.05689 0.0
H279 H 0.45769 0.09621 0.05272 0.0
H280 H 0.42721 0.05304 0.04522 0.0
O281 O 0.47765 0.07149 0.05943 0.0
C282 C 0.4511 0.0287 0.05992 0.0
O283 O 0.43927 0.03042 0.07167 0.0
N284 N 0.45268 0.07987 0.08499 0.0
C285 C 0.43576 0.10614 0.10183 0.0
C286 C 0.45368 0.10624 0.10034 0.0
C287 C 0.46197 0.09297 0.09162 0.0
C288 C 0.43549 0.07902 0.08766 0.0
C289 C 0.42668 0.0924 0.09517 0.0
H290 H 0.47557 0.0934 0.09017 0.0
H291 H 0.42837 0.06821 0.08288 0.0
H292 H 0.49446 0.04673 0.07324 0.0
H293 H 0.48122 0.03212 0.12267 0.0
H294 H 0.43979 0.1009 0.02472 0.0
H295 H 0.46111 0.11666 0.10556 0.0
H296 H 0.41289 0.09189 0.096 0.0
C297 C 0.95613 0.71792 0.34617 0.0
C298 C 0.96296 0.73325 0.3515 0.0
N299 N 0.95944 0.74546 0.33975 0.0
N300 N 0.94891 0.7202 0.33081 0.0
C301 C 0.952 0.73664 0.3269 0.0
H302 H 0.95625 0.70598 0.35311 0.0
Co303 Co 0.9352 0.70595 0.31774 0.0
C304 C 0.90951 0.73626 0.30891 0.0
O305 O 0.89498 0.73338 0.3168 0.0
N306 N 0.9207 0.69211 0.30452 0.0
C307 C 0.89964 0.68628 0.28651 0.0
C308 C 0.90399 0.69471 0.30123 0.0
C309 C 0.92547 0.68042 0.293 0.0
N310 N 0.91347 0.67776 0.28097 0.0
O311 O 0.94999 0.70944 0.29872 0.0
H312 H 0.89586 0.70345 0.30802 0.0
H313 H 0.93826 0.67573 0.29204 0.0
O314 O 0.92191 0.72578 0.31047 0.0
C315 C 0.96209 0.69865 0.29948 0.0
O316 O 0.96206 0.6876 0.31212 0.0
N317 N 0.92223 0.70097 0.3362 0.0
C318 C 0.89743 0.68533 0.35491 0.0
C319 C 0.89792 0.70323 0.35396 0.0
C320 C 0.91079 0.71097 0.34449 0.0
C321 C 0.92362 0.68396 0.3396 0.0
C322 C 0.91095 0.67566 0.34868 0.0
H323 H 0.91092 0.72464 0.34284 0.0
H324 H 0.93345 0.67653 0.33335 0.0
H325 H 0.94907 0.74175 0.31448 0.0
H326 H 0.97032 0.73488 0.36303 0.0
H327 H 0.888 0.68809 0.27931 0.0
H328 H 0.8877 0.71092 0.35922 0.0
H329 H 0.91091 0.66186 0.34952 0.0
C330 C 0.27356 0.19577 0.58992 0.0
C331 C 0.26009 0.20471 0.5969 0.0
N332 N 0.2492 0.20841 0.5842 0.0
N333 N 0.27101 0.19389 0.57293 0.0
C334 C 0.25614 0.20196 0.56989 0.0
H335 H 0.28448 0.19094 0.59683 0.0
Co336 Co 0.28337 0.18128 0.55684 0.0
C337 C 0.25372 0.15728 0.54766 0.0
O338 O 0.25799 0.14367 0.55641 0.0
N339 N 0.29495 0.16741 0.54059 0.0
C340 C 0.30594 0.14355 0.52935 0.0
C341 C 0.29525 0.15007 0.54146 0.0
C342 C 0.30522 0.17097 0.52723 0.0
N343 N 0.312 0.15669 0.52032 0.0
O344 O 0.28039 0.19962 0.54107 0.0
H345 H 0.28895 0.14242 0.55101 0.0
H346 H 0.30827 0.18371 0.52291 0.0
O347 O 0.26246 0.17099 0.54847 0.0
C348 C 0.29276 0.21017 0.54216 0.0
O349 O 0.30757 0.20456 0.54765 0.0
N350 N 0.28833 0.16558 0.57323 0.0
C351 C 0.30319 0.14576 0.59787 0.0
C352 C 0.28536 0.1462 0.59632 0.0
C353 C 0.27803 0.15661 0.58395 0.0
C354 C 0.30558 0.16619 0.57559 0.0
C355 C 0.31339 0.15608 0.58769 0.0
H356 H 0.26433 0.15797 0.58334 0.0
H357 H 0.31333 0.17453 0.56776 0.0
H358 H 0.25046 0.20314 0.55736 0.0
H359 H 0.25859 0.20854 0.61008 0.0
H360 H 0.30949 0.1303 0.52765 0.0
H361 H 0.27729 0.13868 0.60468 0.0
H362 H 0.32714 0.15622 0.58907 0.0
C363 C 0.78175 0.51827 0.84962 0.0
C364 C 0.78358 0.49667 0.86456 0.0
N365 N 0.79627 0.48185 0.85138 0.0
N366 N 0.79378 0.51297 0.83039 0.0
C367 C 0.8028 0.4915 0.83099 0.0
H368 H 0.7756 0.53031 0.85241 0.0
Co369 Co 0.8014 0.52964 0.81519 0.0
C370 C 0.83029 0.50677 0.79998 0.0
O371 O 0.84394 0.51407 0.80632 0.0
N372 N 0.81046 0.54628 0.79974 0.0
C373 C 0.8307 0.56121 0.7864 0.0
C374 C 0.82735 0.54996 0.79914 0.0
C375 C 0.80384 0.55588 0.787 0.0
N376 N 0.816 0.56485 0.77848 0.0
O377 O 0.78284 0.52462 0.80017 0.0
H378 H 0.83707 0.5444 0.80707 0.0
H379 H 0.79061 0.55555 0.78329 0.0
O380 O 0.81532 0.51244 0.80332 0.0
C381 C 0.7703 0.53397 0.80474 0.0
O382 O 0.77267 0.54506 0.81709 0.0
N383 N 0.81734 0.53617 0.831 0.0
C384 C 0.84252 0.55444 0.84702 0.0
C385 C 0.84357 0.53651 0.84602 0.0
C386 C 0.83064 0.52745 0.83785 0.0
C387 C 0.81469 0.55296 0.8348 0.0
C388 C 0.82768 0.56266 0.84178 0.0
H389 H 0.83177 0.51383 0.83613 0.0
H390 H 0.80338 0.55934 0.83011 0.0
H391 H 0.80902 0.48494 0.82057 0.0
H392 H 0.77639 0.4935 0.87593 0.0
H393 H 0.84328 0.565 0.78208 0.0
H394 H 0.85474 0.52976 0.85058 0.0
H395 H 0.82646 0.57641 0.84205 0.0
C396 C 0.47433 0.18352 0.15193 0.0
C397 C 0.48555 0.19506 0.14496 0.0
N398 N 0.49369 0.20273 0.15788 0.0
N399 N 0.47543 0.18404 0.16919 0.0
C400 C 0.48712 0.19626 0.17234 0.0
H401 H 0.46643 0.17496 0.14462 0.0
Co402 Co 0.46497 0.16995 0.18552 0.0
C403 C 0.49838 0.16479 0.19588 0.0
O404 O 0.50161 0.16276 0.17955 0.0
N405 N 0.45466 0.15585 0.20131 0.0
C406 C 0.44955 0.13381 0.21824 0.0
C407 C 0.46129 0.14134 0.20761 0.0
C408 C 0.43887 0.15674 0.20796 0.0
N409 N 0.43517 0.14335 0.21828 0.0
O410 O 0.45544 0.19043 0.19568 0.0
H411 H 0.47394 0.13662 0.2048 0.0
H412 H 0.43042 0.16736 0.20558 0.0
O413 O 0.48418 0.17132 0.20042 0.0
C414 C 0.44795 0.2027 0.20335 0.0
O415 O 0.43577 0.19936 0.21439 0.0
N416 N 0.44686 0.16644 0.17117 0.0
C417 C 0.42605 0.1544 0.14554 0.0
C418 C 0.44097 0.14567 0.14996 0.0
C419 C 0.45106 0.15182 0.16292 0.0
C420 C 0.43165 0.17445 0.16828 0.0
C421 C 0.421 0.16869 0.15507 0.0
H422 H 0.46289 0.14539 0.16599 0.0
H423 H 0.42769 0.18509 0.17606 0.0
H424 H 0.49141 0.19977 0.18498 0.0
H425 H 0.48819 0.19703 0.13153 0.0
H426 H 0.45199 0.12251 0.22569 0.0
H427 H 0.44507 0.1344 0.14306 0.0
H428 H 0.4092 0.1753 0.15223 0.0
C429 C 0.76838 0.71872 0.4099 0.0
C430 C 0.76056 0.73618 0.39182 0.0
N431 N 0.77991 0.74887 0.38757 0.0
N432 N 0.79094 0.72372 0.41316 0.0
C433 C 0.79832 0.74136 0.39992 0.0
H434 H 0.76097 0.70901 0.41631 0.0
Co435 Co 0.8059 0.71033 0.42556 0.0
C436 C 0.83116 0.73955 0.43627 0.0
O437 O 0.84543 0.73536 0.42856 0.0
N438 N 0.82171 0.69654 0.43763 0.0
C439 C 0.84601 0.68946 0.45067 0.0
C440 C 0.83895 0.69705 0.4365 0.0
C441 C 0.81883 0.68697 0.45158 0.0
N442 N 0.83322 0.68352 0.46038 0.0
O443 O 0.79166 0.71257 0.44493 0.0
H444 H 0.84607 0.70392 0.42695 0.0
H445 H 0.80637 0.68492 0.45703 0.0
O446 O 0.81767 0.7306 0.4343 0.0
C447 C 0.78082 0.70059 0.44528 0.0
O448 O 0.7821 0.68874 0.43345 0.0
N449 N 0.81808 0.70681 0.40622 0.0
C450 C 0.83611 0.69029 0.3814 0.0
C451 C 0.84018 0.70722 0.38558 0.0
C452 C 0.83063 0.71554 0.39803 0.0
C453 C 0.81255 0.69137 0.40047 0.0
C454 C 0.8214 0.68279 0.38784 0.0
H455 H 0.8339 0.72835 0.4016 0.0
H456 H 0.80199 0.6851 0.40675 0.0
H457 H 0.81066 0.74746 0.40055 0.0
H458 H 0.74763 0.73949 0.38829 0.0
H459 H 0.85923 0.6903 0.45458 0.0
H460 H 0.85135 0.7134 0.38023 0.0
H461 H 0.81791 0.66984 0.38451 0.0
C462 C 0.27565 0.02852 0.65372 0.0
C463 C 0.25918 0.02336 0.63399 0.0
N464 N 0.24196 0.03904 0.63681 0.0
N465 N 0.26582 0.04643 0.66488 0.0
C466 C 0.24582 0.05327 0.6551 0.0
H467 H 0.28783 0.02293 0.6563 0.0
Co468 Co 0.27741 0.05813 0.6822 0.0
C469 C 0.24567 0.08135 0.68972 0.0
O470 O 0.24709 0.09279 0.67762 0.0
N471 N 0.28871 0.07104 0.69944 0.0
C472 C 0.29808 0.09562 0.71024 0.0
C473 C 0.28567 0.08796 0.70084 0.0
C474 C 0.30323 0.0688 0.70848 0.0
N475 N 0.30955 0.0837 0.71472 0.0
O476 O 0.27393 0.03885 0.69715 0.0
H477 H 0.27623 0.09484 0.69373 0.0
H478 H 0.30944 0.0566 0.71 0.0
O479 O 0.25607 0.06875 0.69072 0.0
C480 C 0.28744 0.02979 0.69556 0.0
O481 O 0.30038 0.03682 0.68768 0.0
N482 N 0.28367 0.0747 0.66662 0.0
C483 C 0.30092 0.09685 0.6455 0.0
C484 C 0.28311 0.09566 0.64461 0.0
C485 C 0.27465 0.08412 0.65515 0.0
C486 C 0.30112 0.07465 0.66614 0.0
C487 C 0.31005 0.08611 0.65617 0.0
H488 H 0.26116 0.08254 0.6536 0.0
H489 H 0.30827 0.0658 0.67387 0.0
H490 H 0.23716 0.06286 0.65984 0.0
H491 H 0.25911 0.01246 0.62552 0.0
H492 H 0.29862 0.1091 0.7128 0.0
H493 H 0.27592 0.10348 0.63577 0.0
H494 H 0.32387 0.08646 0.6566 0.0
C495 C 0.95399 0.52045 0.88907 0.0
C496 C 0.95368 0.50031 0.87209 0.0
N497 N 0.94215 0.4834 0.88376 0.0
N498 N 0.94245 0.51238 0.90767 0.0
C499 C 0.935 0.4905 0.90495 0.0
H500 H 0.95905 0.53318 0.88742 0.0
Co501 Co 0.93291 0.5272 0.92321 0.0
C502 C 0.90557 0.5001 0.93564 0.0
O503 O 0.89159 0.50499 0.92785 0.0
N504 N 0.92174 0.54214 0.93838 0.0
C505 C 0.90027 0.55321 0.95348 0.0
C506 C 0.90454 0.54334 0.93971 0.0
C507 C 0.92755 0.5525 0.95072 0.0
N508 N 0.9148 0.55876 0.96059 0.0
O509 O 0.95145 0.52249 0.93941 0.0
H510 H 0.89551 0.53655 0.93187 0.0
H511 H 0.94088 0.5543 0.95347 0.0
O512 O 0.91963 0.50828 0.9336 0.0
C513 C 0.96445 0.53236 0.93807 0.0
O514 O 0.96345 0.54555 0.92776 0.0
N515 N 0.9176 0.53324 0.90679 0.0
C516 C 0.89882 0.54953 0.88214 0.0
C517 C 0.89586 0.53222 0.88568 0.0
C518 C 0.90582 0.52406 0.89796 0.0
C519 C 0.92154 0.54958 0.90228 0.0
C520 C 0.9122 0.55809 0.88997 0.0
H521 H 0.90423 0.51059 0.9002 0.0
H522 H 0.93183 0.55616 0.90868 0.0
H523 H 0.9291 0.48258 0.91458 0.0
H524 H 0.96094 0.49882 0.86043 0.0
H525 H 0.88763 0.55471 0.95889 0.0
H526 H 0.88579 0.52528 0.87926 0.0
H527 H 0.91486 0.57136 0.88717 0.0
C528 C 0.09144 0.46812 0.0252 0.0
C529 C 0.10994 0.48577 0.01954 0.0
N530 N 0.11082 0.49935 0.03863 0.0
N531 N 0.08448 0.47362 0.04674 0.0
C532 C 0.09591 0.49212 0.05542 0.0
H533 H 0.08622 0.45837 0.01699 0.0
Co534 Co 0.06617 0.46232 0.05733 0.0
C535 C 0.05914 0.49127 0.08299 0.0
O536 O 0.06882 0.4862 0.09563 0.0
N537 N 0.04773 0.45177 0.06921 0.0
C538 C 0.03261 0.44251 0.09162 0.0
C539 C 0.04746 0.45002 0.08648 0.0
C540 C 0.03229 0.44583 0.06432 0.0
N541 N 0.02316 0.43991 0.07769 0.0
O542 O 0.05131 0.46815 0.03819 0.0
H543 H 0.05742 0.45405 0.09508 0.0
H544 H 0.02745 0.44645 0.05148 0.0
O545 O 0.05893 0.48314 0.06886 0.0
C546 C 0.05201 0.45589 0.02742 0.0
O547 O 0.06159 0.44266 0.03128 0.0
N548 N 0.08121 0.454 0.07374 0.0
C549 C 0.10044 0.43532 0.09663 0.0
C550 C 0.10218 0.45309 0.09568 0.0
C551 C 0.09258 0.46223 0.08395 0.0
C552 C 0.08088 0.43654 0.0733 0.0
C553 C 0.08993 0.42689 0.08512 0.0
H554 H 0.09428 0.47577 0.08337 0.0
H555 H 0.07278 0.43007 0.0642 0.0
H556 H 0.09187 0.49964 0.06627 0.0
H557 H 0.11521 0.48877 0.00712 0.0
H558 H 0.02886 0.43943 0.10457 0.0
H559 H 0.11077 0.45984 0.10416 0.0
H560 H 0.08861 0.41313 0.08536 0.0
C561 C 0.60027 0.26125 0.19303 0.0
C562 C 0.60513 0.24832 0.20366 0.0
N563 N 0.59301 0.23605 0.20371 0.0
N564 N 0.58457 0.25809 0.18673 0.0
C565 C 0.58041 0.24282 0.19383 0.0
H566 H 0.6075 0.27283 0.19118 0.0
Co567 Co 0.57088 0.27221 0.17208 0.0
C568 C 0.55163 0.24667 0.15888 0.0
O569 O 0.56242 0.24845 0.14616 0.0
N570 N 0.55766 0.28565 0.15766 0.0
C571 C 0.54874 0.30209 0.1362 0.0
C572 C 0.56067 0.29008 0.14124 0.0
C573 C 0.5439 0.2948 0.1622 0.0
N574 N 0.53827 0.30481 0.14952 0.0
O575 O 0.56032 0.28274 0.19195 0.0
H576 H 0.57127 0.28545 0.1337 0.0
H577 H 0.53802 0.29441 0.17469 0.0
O578 O 0.55329 0.25577 0.17219 0.0
C579 C 0.5664 0.28818 0.20594 0.0
O580 O 0.58298 0.28805 0.20821 0.0
N581 N 0.58784 0.28865 0.17031 0.0
C582 C 0.60602 0.31173 0.15079 0.0
C583 C 0.61011 0.29435 0.1504 0.0
C584 C 0.60053 0.28297 0.15993 0.0
C585 C 0.58489 0.30576 0.17233 0.0
C586 C 0.59389 0.31765 0.16248 0.0
H587 H 0.60195 0.26944 0.1576 0.0
H588 H 0.574 0.31017 0.17954 0.0
H589 H 0.56791 0.23722 0.19252 0.0
H590 H 0.6163 0.249 0.21162 0.0
H591 H 0.54807 0.30857 0.12402 0.0
H592 H 0.61926 0.28941 0.14127 0.0
H593 H 0.59028 0.33099 0.16275 0.0
C594 C 0.71779 0.8391 0.44112 0.0
C595 C 0.72875 0.85 0.44952 0.0
N596 N 0.74049 0.84044 0.45755 0.0
N597 N 0.7228 0.82275 0.44367 0.0
C598 C 0.73666 0.82411 0.45382 0.0
H599 H 0.70703 0.84303 0.43348 0.0
Co600 Co 0.71404 0.80221 0.43478 0.0
C601 C 0.75023 0.80296 0.42075 0.0
O602 O 0.75276 0.81945 0.42164 0.0
N603 N 0.70559 0.78184 0.42541 0.0
C604 C 0.70325 0.76026 0.40719 0.0
C605 C 0.71434 0.76968 0.4169 0.0
C606 C 0.68916 0.77906 0.42109 0.0
N607 N 0.68733 0.76648 0.40937 0.0
O608 O 0.71925 0.79102 0.45588 0.0
H609 H 0.72803 0.76805 0.41701 0.0
H610 H 0.67881 0.78646 0.42632 0.0
O611 O 0.73613 0.79648 0.4256 0.0
C612 C 0.70634 0.79039 0.46581 0.0
O613 O 0.6915 0.79575 0.46019 0.0
N614 N 0.7071 0.81312 0.41519 0.0
C615 C 0.68891 0.82716 0.38805 0.0
C616 C 0.70616 0.82212 0.38614 0.0
C617 C 0.71487 0.81466 0.39973 0.0
C618 C 0.69059 0.81793 0.41738 0.0
C619 C 0.68115 0.82441 0.40396 0.0
H620 H 0.72767 0.81019 0.39767 0.0
H621 H 0.6846 0.81625 0.42971 0.0
H622 H 0.74403 0.8133 0.45825 0.0
H623 H 0.72819 0.8638 0.44973 0.0
H624 H 0.70683 0.74954 0.39931 0.0
H625 H 0.7132 0.82427 0.37445 0.0
H626 H 0.66803 0.82748 0.40653 0.0
C627 C 0.15166 0.97047 0.69656 0.0
C628 C 0.14305 0.98324 0.70499 0.0
N629 N 0.1534 -0.00302 0.70634 0.0
N630 N 0.16758 0.97578 0.69291 0.0
C631 C 0.16848 0.99153 0.69969 0.0
H632 H 0.14674 0.95792 0.69362 0.0
Co633 Co 0.18429 0.96317 0.68151 0.0
C634 C 0.1906 -0.00146 0.66506 0.0
O635 O 0.17536 0.00517 0.66695 0.0
N636 N 0.20039 0.95043 0.66987 0.0
C637 C 0.21479 0.93885 0.64846 0.0
C638 C 0.20676 0.95332 0.65413 0.0
C639 C 0.20455 0.93419 0.67338 0.0
N640 N 0.21317 0.92659 0.66048 0.0
O641 O 0.1998 0.96672 0.6999 0.0
H642 H 0.20506 0.96491 0.64684 0.0
H643 H 0.20077 0.92804 0.68506 0.0
O644 O 0.19369 0.98335 0.67004 0.0
C645 C 0.19676 0.95581 0.71152 0.0
O646 O 0.18396 0.94523 0.7091 0.0
N647 N 0.16904 0.95785 0.66456 0.0
C648 C 0.14891 0.9437 0.63955 0.0
C649 C 0.15187 0.96131 0.63984 0.0
C650 C 0.16216 0.96816 0.65246 0.0
C651 C 0.16532 0.94084 0.66502 0.0
C652 C 0.15593 0.93329 0.65211 0.0
H653 H 0.16437 0.98156 0.65241 0.0
H654 H 0.17017 0.93298 0.67526 0.0
H655 H 0.18029 -0.00137 0.70013 0.0
H656 H 0.13044 0.98181 0.7103 0.0
H657 H 0.2216 0.93775 0.63651 0.0
H658 H 0.14634 0.96964 0.63029 0.0
H659 H 0.15382 0.91962 0.65214 0.0
C660 C 0.51384 0.39057 0.46331 0.0
C661 C 0.492 0.37619 0.46599 0.0
N662 N 0.4783 0.38345 0.44836 0.0
N663 N 0.50971 0.4038 0.44457 0.0
C664 C 0.48883 0.3997 0.43503 0.0
H665 H 0.52516 0.39063 0.47116 0.0
Co666 Co 0.52561 0.41885 0.43608 0.0
C667 C 0.49959 0.43503 0.40978 0.0
O668 O 0.5018 0.42623 0.39571 0.0
N669 N 0.54163 0.43355 0.42594 0.0
C670 C 0.55372 0.44831 0.40483 0.0
C671 C 0.54292 0.43524 0.40877 0.0
C672 C 0.55256 0.44524 0.43211 0.0
N673 N 0.55951 0.45483 0.41952 0.0
O674 O 0.52127 0.43467 0.45483 0.0
H675 H 0.53552 0.42819 0.39955 0.0
H676 H 0.55423 0.44779 0.44551 0.0
O677 O 0.50821 0.43148 0.42316 0.0
C678 C 0.52942 0.4316 0.46863 0.0
O679 O 0.54088 0.41938 0.46864 0.0
N680 N 0.53107 0.4029 0.42031 0.0
C681 C 0.54775 0.37983 0.40017 0.0
C682 C 0.53064 0.38391 0.39677 0.0
C683 C 0.52226 0.39542 0.4074 0.0
C684 C 0.54706 0.39763 0.42465 0.0
C685 C 0.55585 0.38625 0.41451 0.0
H686 H 0.509 0.39826 0.40528 0.0
H687 H 0.55328 0.403 0.43573 0.0
H688 H 0.48309 0.40646 0.42449 0.0
H689 H 0.48807 0.36865 0.47688 0.0
H690 H 0.5556 0.45388 0.39231 0.0
H691 H 0.52408 0.37853 0.38586 0.0
H692 H 0.56896 0.38297 0.41745 0.0
C693 C 0.14639 0.76835 0.04775 0.0
C694 C 0.14111 0.75394 0.03925 0.0
N695 N 0.15486 0.74395 0.03686 0.0
N696 N 0.16336 0.76731 0.05072 0.0
C697 C 0.16808 0.75223 0.04396 0.0
H698 H 0.13836 0.77904 0.05117 0.0
Co699 Co 0.17754 0.78254 0.06229 0.0
C700 C 0.19585 0.75878 0.08689 0.0
O701 O 0.19525 0.76864 0.10039 0.0
N702 N 0.19174 0.79792 0.07491 0.0
C703 C 0.20308 0.81232 0.09684 0.0
C704 C 0.1892 0.80336 0.09122 0.0
C705 C 0.20719 0.80442 0.07086 0.0
N706 N 0.2143 0.81295 0.084 0.0
O707 O 0.19398 0.78078 0.04446 0.0
H708 H 0.17853 0.80008 0.0993 0.0
H709 H 0.21374 0.80199 0.05894 0.0
O710 O 0.18836 0.76315 0.07315 0.0
C711 C 0.18861 0.78824 0.03112 0.0
O712 O 0.17393 0.79634 0.0318 0.0
N713 N 0.16092 0.78552 0.07762 0.0
C714 C 0.13355 0.79777 0.09526 0.0
C715 C 0.14033 0.78168 0.09942 0.0
C716 C 0.15423 0.77556 0.09014 0.0
C717 C 0.15412 0.80092 0.0733 0.0
C718 C 0.14044 0.80743 0.08213 0.0
H719 H 0.15951 0.7631 0.09282 0.0
H720 H 0.15959 0.80817 0.0629 0.0
H721 H 0.18106 0.74758 0.04376 0.0
H722 H 0.1285 0.75149 0.03419 0.0
H723 H 0.20529 0.81698 0.10965 0.0
H724 H 0.1349 0.77409 0.10963 0.0
H725 H 0.1353 0.81984 0.07882 0.0
C726 C 0.71699 0.89754 0.30044 0.0
C727 C 0.73036 0.89058 0.29134 0.0
N728 N 0.74418 0.9005 0.29369 0.0
N729 N 0.72231 0.91207 0.30791 0.0
C730 C 0.73908 0.91303 0.30422 0.0
H731 H 0.70388 0.89322 0.30029 0.0
Co732 Co 0.7083 0.92849 0.31777 0.0
C733 C 0.73843 0.94328 0.33832 0.0
O734 O 0.73816 0.93317 0.35167 0.0
N735 N 0.69448 0.94504 0.32801 0.0
C736 C 0.68251 0.9616 0.34763 0.0
C737 C 0.6959 0.95091 0.34412 0.0
C738 C 0.68008 0.95223 0.32209 0.0
N739 N 0.67221 0.9622 0.33384 0.0
O740 O 0.70983 0.94154 0.29712 0.0
H741 H 0.70584 0.94735 0.35294 0.0
H742 H 0.67567 0.95045 0.3092 0.0
O743 O 0.7277 0.9412 0.32634 0.0
C744 C 0.69887 0.93734 0.28585 0.0
O745 O 0.68657 0.92675 0.29009 0.0
N746 N 0.70541 0.91444 0.33655 0.0
C747 C 0.69519 0.88572 0.35425 0.0
C748 C 0.71258 0.88958 0.3528 0.0
C749 C 0.71749 0.904 0.34354 0.0
C750 C 0.68846 0.91084 0.3384 0.0
C751 C 0.68308 0.8967 0.34739 0.0
H752 H 0.73081 0.90556 0.34038 0.0
H753 H 0.67896 0.91792 0.33139 0.0
H754 H 0.74718 0.9235 0.30768 0.0
H755 H 0.72955 0.88013 0.28235 0.0
H756 H 0.68103 0.9686 0.35938 0.0
H757 H 0.72217 0.88083 0.35754 0.0
H758 H 0.66959 0.89366 0.34788 0.0
C759 C 0.01565 0.34998 0.80534 0.0
C760 C 0.00249 0.35808 0.79684 0.0
N761 N 0.99359 0.3461 0.78839 0.0
N762 N 0.01478 0.33298 0.8024 0.0
C763 C 0.00115 0.33115 0.79206 0.0
H764 H 0.02503 0.35614 0.81336 0.0
Co765 Co 0.0274 0.31478 0.81162 0.0
C766 C 0.99227 0.30906 0.82749 0.0
O767 O 0.98678 0.32484 0.82845 0.0
N768 N 0.03924 0.29686 0.82158 0.0
C769 C 0.0469 0.27707 0.8404 0.0
C770 C 0.03575 0.29012 0.8371 0.0
C771 C 0.05299 0.28826 0.81604 0.0
N772 N 0.05761 0.27585 0.82707 0.0
O773 O 0.02324 0.30163 0.79147 0.0
H774 H 0.02536 0.29404 0.84532 0.0
H775 H 0.05871 0.29012 0.80361 0.0
O776 O 0.00696 0.30557 0.82153 0.0
C777 C 0.0332 0.30572 0.77926 0.0
O778 O 0.0453 0.31699 0.78202 0.0
N779 N 0.03354 0.32757 0.82983 0.0
C780 C 0.05134 0.3472 0.85258 0.0
C781 C 0.0342 0.34305 0.85584 0.0
C782 C 0.02544 0.33282 0.84426 0.0
C783 C 0.05031 0.33114 0.82691 0.0
C784 C 0.05971 0.34038 0.83852 0.0
H785 H 0.01235 0.32952 0.84672 0.0
H786 H 0.05639 0.32665 0.81535 0.0
H787 H -0.00315 0.31904 0.78709 0.0
H788 H -0.00024 0.37161 0.79673 0.0
H789 H 0.04623 0.26818 0.85096 0.0
H790 H 0.02761 0.34813 0.86689 0.0
H791 H 0.07296 0.34337 0.83588 0.0
C792 C 0.04321 0.64622 0.26859 0.0
C793 C 0.03414 0.64094 0.25457 0.0
N794 N 0.03423 0.65338 0.24251 0.0
N795 N 0.04837 0.66235 0.26612 0.0
C796 C 0.0424 0.6665 0.25046 0.0
H797 H 0.04492 0.63917 0.28034 0.0
Co798 Co 0.05949 0.67631 0.28194 0.0
C799 C 0.08673 0.69036 0.25708 0.0
O800 O 0.10044 0.68314 0.26338 0.0
N801 N 0.0713 0.69062 0.29776 0.0
C802 C 0.09248 0.70627 0.30874 0.0
C803 C 0.08843 0.69164 0.29998 0.0
C804 C 0.06531 0.704 0.30666 0.0
N805 N 0.07784 0.71424 0.3126 0.0
O806 O 0.04166 0.69242 0.27899 0.0
H807 H 0.09765 0.68313 0.29435 0.0
H808 H 0.05208 0.70779 0.30678 0.0
O809 O 0.07196 0.68768 0.2635 0.0
C810 C 0.02994 0.69013 0.29 0.0
O811 O 0.03342 0.68097 0.30363 0.0
N812 N 0.07515 0.65959 0.28586 0.0
C813 C 0.09945 0.63809 0.2987 0.0
C814 C 0.09869 0.64113 0.28106 0.0
C815 C 0.08599 0.65185 0.27474 0.0
C816 C 0.07432 0.65475 0.30255 0.0
C817 C 0.08677 0.64436 0.30943 0.0
H818 H 0.08525 0.65449 0.26122 0.0
H819 H 0.06466 0.66013 0.31083 0.0
H820 H 0.04323 0.67936 0.24553 0.0
H821 H 0.02704 0.62917 0.2543 0.0
H822 H 0.10513 0.71163 0.31023 0.0
H823 H 0.10817 0.63584 0.27249 0.0
H824 H 0.08692 0.6418 0.32303 0.0
C825 C 0.3457 0.80663 0.01684 0.0
C826 C 0.35535 0.799 0.00419 0.0
N827 N 0.3446 0.79037 0.994 0.0
N828 N 0.329 0.80302 0.01426 0.0
C829 C 0.3289 0.79316 0.00023 0.0
H830 H 0.3506 0.81432 0.02718 0.0
Co831 Co 0.30945 0.8097 0.02632 0.0
C832 C 0.30457 0.82638 0.99138 0.0
O833 O 0.32062 0.82676 0.98657 0.0
N834 N 0.29015 0.81677 0.03825 0.0
C835 C 0.2691 0.83331 0.04726 0.0
C836 C 0.27892 0.82893 0.03355 0.0
C837 C 0.28668 0.81383 0.05487 0.0
N838 N 0.27414 0.82405 0.06087 0.0
O839 O 0.29808 0.78871 0.02039 0.0
H840 H 0.27813 0.83483 0.02118 0.0
H841 H 0.29398 0.80506 0.06247 0.0
O842 O 0.30025 0.82041 0.0059 0.0
C843 C 0.30419 0.77638 0.02904 0.0
O844 O 0.31684 0.77961 0.03956 0.0
N845 N 0.32039 0.82899 0.034 0.0
C846 C 0.33577 0.85513 0.0521 0.0
C847 C 0.33274 0.85671 0.03445 0.0
C848 C 0.32466 0.84359 0.02566 0.0
C849 C 0.3238 0.82706 0.05094 0.0
C850 C 0.33049 0.84034 0.06046 0.0
H851 H 0.32248 0.84508 0.01225 0.0
H852 H 0.32105 0.81509 0.05718 0.0
H853 H 0.31745 0.78835 0.99435 0.0
H854 H 0.36908 0.79951 0.00274 0.0
H855 H 0.25878 0.8425 0.04711 0.0
H856 H 0.33697 0.86783 0.02739 0.0
H857 H 0.33166 0.83878 0.07409 0.0
C858 C 0.21506 0.07039 0.77772 0.0
C859 C 0.22247 0.079 0.76431 0.0
N860 N 0.21079 0.08111 0.7518 0.0
N861 N 0.19887 0.06648 0.77362 0.0
C862 C 0.19661 0.07343 0.75799 0.0
H863 H 0.22138 0.06654 0.78936 0.0
Co864 Co 0.18353 0.05272 0.78596 0.0
C865 C 0.15763 0.04892 0.75619 0.0
O866 O 0.14547 0.05989 0.75975 0.0
N867 N 0.16739 0.03916 0.79782 0.0
C868 C 0.14217 0.03074 0.80833 0.0
C869 C 0.15035 0.04239 0.79815 0.0
C870 C 0.16913 0.02524 0.80778 0.0
N871 N 0.15404 0.01998 0.81419 0.0
O872 O 0.19712 0.03364 0.78051 0.0
H873 H 0.14417 0.0529 0.79174 0.0
H874 H 0.18113 0.019 0.81048 0.0
O875 O 0.17053 0.04746 0.76589 0.0
C876 C 0.20832 0.03221 0.79205 0.0
O877 O 0.20538 0.04043 0.80642 0.0
N878 N 0.17188 0.07175 0.79254 0.0
C879 C 0.15202 0.09575 0.80827 0.0
C880 C 0.15348 0.09562 0.79043 0.0
C881 C 0.1637 0.08344 0.7827 0.0
C882 C 0.17256 0.07342 0.80987 0.0
C883 C 0.16226 0.08517 0.81816 0.0
H884 H 0.1644 0.08298 0.769 0.0
H885 H 0.18007 0.06456 0.81732 0.0
H886 H 0.18479 0.0724 0.75128 0.0
H887 H 0.23579 0.08257 0.76348 0.0
H888 H 0.12868 0.03023 0.8113 0.0
H889 H 0.14586 0.1041 0.7826 0.0
H890 H 0.16146 0.08525 0.83196 0.0
C891 C 0.89907 0.79326 0.23038 0.0
C892 C 0.896 0.78393 0.24499 0.0
N893 N 0.90922 0.78615 0.25571 0.0
N894 N 0.91422 0.80129 0.2319 0.0
C895 C 0.91995 0.79688 0.24759 0.0
H896 H 0.89123 0.79326 0.21906 0.0
Co897 Co 0.92663 0.81331 0.21542 0.0
C898 C 0.94601 0.84 0.23573 0.0
O899 O 0.9516 0.84824 0.22228 0.0
N900 N 0.93941 0.82581 0.1987 0.0
C901 C 0.94777 0.84466 0.17877 0.0
C902 C 0.93484 0.83982 0.18951 0.0
C903 C 0.95544 0.82269 0.19325 0.0
N904 N 0.96058 0.83369 0.18111 0.0
O905 O 0.94481 0.79662 0.21797 0.0
H906 H 0.923 0.84653 0.19038 0.0
H907 H 0.9634 0.81273 0.19813 0.0
O908 O 0.93609 0.82718 0.23409 0.0
C909 C 0.94232 0.78473 0.20707 0.0
O910 O 0.92984 0.78651 0.19606 0.0
N911 N 0.90789 0.82728 0.21123 0.0
C912 C 0.88511 0.84643 0.19202 0.0
C913 C 0.89236 0.85324 0.20699 0.0
C914 C 0.90385 0.84334 0.21659 0.0
C915 C 0.89973 0.82012 0.19762 0.0
C916 C 0.88839 0.8295 0.18774 0.0
H917 H 0.91072 0.84916 0.22695 0.0
H918 H 0.9033 0.80748 0.19345 0.0
H919 H 0.93233 0.8005 0.25253 0.0
H920 H 0.8854 0.77533 0.24716 0.0
H921 H 0.94765 0.85505 0.16966 0.0
H922 H 0.89002 0.86638 0.21056 0.0
H923 H 0.88297 0.8239 0.17633 0.0
C924 C 0.21656 0.65253 0.96079 0.0
C925 C 0.22276 0.63305 0.9773 0.0
N926 N 0.20642 0.6346 0.99415 0.0
N927 N 0.19762 0.6622 0.97025 0.0
C928 C 0.19102 0.6518 0.99 0.0
H929 H 0.22226 0.65566 0.94875 0.0
Co930 Co 0.18369 0.67774 0.95896 0.0
C931 C 0.16141 0.68978 0.98848 0.0
O932 O 0.14674 0.68501 0.98208 0.0
N933 N 0.16831 0.69332 0.9476 0.0
C934 C 0.14371 0.70402 0.93744 0.0
C935 C 0.1511 0.69103 0.94636 0.0
C936 C 0.17085 0.70815 0.93911 0.0
N937 N 0.15614 0.71476 0.93308 0.0
O938 O 0.2018 0.69437 0.96031 0.0
H939 H 0.14395 0.68042 0.95134 0.0
H940 H 0.18307 0.71432 0.93754 0.0
O941 O 0.17542 0.68628 0.98089 0.0
C942 C 0.21072 0.69605 0.94677 0.0
O943 O 0.20423 0.69039 0.93243 0.0
N944 N 0.16803 0.66065 0.95598 0.0
C945 C 0.1437 0.639 0.94294 0.0
C946 C 0.14493 0.64151 0.96063 0.0
C947 C 0.15736 0.65248 0.96702 0.0
C948 C 0.16811 0.65683 0.939 0.0
C949 C 0.15556 0.64653 0.93204 0.0
H950 H 0.15782 0.65495 0.98053 0.0
H951 H 0.17716 0.66308 0.93064 0.0
H952 H 0.18156 0.6565 -0.00112 0.0
H953 H 0.23427 0.62543 0.97763 0.0
H954 H 0.13035 0.70543 0.93423 0.0
H955 H 0.13589 0.63562 0.9693 0.0
H956 H 0.15484 0.6448 0.91835 0.0
C957 C 0.33791 0.94617 0.7206 0.0
C958 C 0.3445 0.95664 0.73298 0.0
N959 N 0.33206 0.95985 0.74434 0.0
N960 N 0.32145 0.94254 0.72431 0.0
C961 C 0.31822 0.9512 0.73887 0.0
H962 H 0.34463 0.94193 0.70931 0.0
Co963 Co 0.30671 0.92925 0.71095 0.0
C964 C 0.29641 0.90256 0.73718 0.0
O965 O 0.3038 0.88943 0.7299 0.0
N966 N 0.29208 0.91521 0.69753 0.0
C967 C 0.2816 0.89231 0.68408 0.0
C968 C 0.29454 0.89838 0.69402 0.0
C969 C 0.27735 0.91894 0.68945 0.0
N970 N 0.27097 0.90529 0.68113 0.0
O971 O 0.28913 0.94611 0.71382 0.0
H972 H 0.30505 0.89066 0.6984 0.0
H973 H 0.27111 0.93125 0.68993 0.0
O974 O 0.2981 0.91761 0.73116 0.0
C975 C 0.29335 0.95763 0.70318 0.0
O976 O 0.30655 0.95448 0.69326 0.0
N977 N 0.32443 0.91478 0.70636 0.0
C978 C 0.34937 0.89489 0.69186 0.0
C979 C 0.34682 0.89458 0.70963 0.0
C980 C 0.33427 0.905 0.71679 0.0
C981 C 0.32808 0.91643 0.6894 0.0
C982 C 0.34015 0.90615 0.68174 0.0
H983 H 0.3323 0.90513 0.73044 0.0
H984 H 0.32078 0.92517 0.68162 0.0
H985 H 0.30583 0.95173 0.74497 0.0
H986 H 0.35709 0.96235 0.73309 0.0
H987 H 0.2798 0.8793 0.67979 0.0
H988 H 0.35417 0.88611 0.71771 0.0
H989 H 0.34203 0.9067 0.66804 0.0
C990 C 0.53236 0.90654 0.95478 0.0
C991 C 0.51891 0.89816 0.96226 0.0
N992 N 0.50436 0.90697 0.95923 0.0
N993 N 0.52675 0.92116 0.94779 0.0
C994 C 0.50985 0.92127 0.95112 0.0
H995 H 0.54544 0.90215 0.95434 0.0
Co996 Co 0.53955 0.93563 0.93376 0.0
C997 C 0.51329 0.94661 0.90751 0.0
O998 O 0.52037 0.93868 0.89456 0.0
N999 N 0.5523 0.95004 0.91862 0.0
C1000 C 0.56438 0.95976 0.89451 0.0
C1001 C 0.55649 0.94623 0.90216 0.0
C1002 C 0.55763 0.96636 0.92036 0.0
N1003 N 0.56504 0.97231 0.90598 0.0
O1004 O 0.53631 0.95343 0.95008 0.0
H1005 H 0.55348 0.93458 0.89551 0.0
H1006 H 0.5557 0.97403 0.93166 0.0
O1007 O 0.51908 0.94406 0.92248 0.0
C1008 C 0.5476 0.9562 0.96141 0.0
O1009 O 0.5637 0.95329 0.95771 0.0
N1010 N 0.54346 0.91738 0.91979 0.0
C1011 C 0.5547 0.89057 0.90027 0.0
C1012 C 0.53724 0.89446 0.90096 0.0
C1013 C 0.53176 0.9079 0.91119 0.0
C1014 C 0.56015 0.9125 0.92068 0.0
C1015 C 0.56621 0.89929 0.9106 0.0
H1016 H 0.51831 0.91086 0.91206 0.0
H1017 H 0.56893 0.91958 0.92862 0.0
H1018 H 0.50179 0.9318 0.94779 0.0
H1019 H 0.52026 0.88669 0.96974 0.0
H1020 H 0.56882 0.96056 0.88144 0.0
H1021 H 0.52811 0.88749 0.89329 0.0
H1022 H 0.5797 0.89629 0.9104 0.0
C1023 C 0.0777 0.26855 0.72287 0.0
C1024 C 0.09792 0.25306 0.72957 0.0
N1025 N 0.10023 0.23862 0.71113 0.0
N1026 N 0.07163 0.26105 0.70165 0.0
C1027 C 0.08483 0.24343 0.69416 0.0
H1028 H 0.0722 0.27914 0.72979 0.0
Co1029 Co 0.05918 0.2746 0.68668 0.0
C1030 C 0.04762 0.25015 0.65946 0.0
O1031 O 0.05375 0.25955 0.64701 0.0
N1032 N 0.04701 0.2888 0.67079 0.0
C1033 C 0.04169 0.30743 0.64967 0.0
C1034 C 0.05283 0.29542 0.65581 0.0
C1035 C 0.03174 0.2965 0.6728 0.0
N1036 N 0.0285 0.30803 0.66047 0.0
O1037 O 0.0401 0.27375 0.70192 0.0
H1038 H 0.06474 0.2923 0.6497 0.0
H1039 H 0.02326 0.29433 0.68342 0.0
O1040 O 0.05027 0.25432 0.67502 0.0
C1041 C 0.04041 0.28707 0.71127 0.0
O1042 O 0.05162 0.299 0.70764 0.0
N1043 N 0.07862 0.27728 0.67413 0.0
C1044 C 0.10412 0.29287 0.65597 0.0
C1045 C 0.09935 0.27606 0.65203 0.0
C1046 C 0.08654 0.26822 0.6616 0.0
C1047 C 0.0848 0.29267 0.6794 0.0
C1048 C 0.09747 0.3009 0.6703 0.0
H1049 H 0.0825 0.25548 0.65836 0.0
H1050 H 0.07876 0.29922 0.6899 0.0
H1051 H 0.08383 0.23687 0.68211 0.0
H1052 H 0.10385 0.25162 0.74195 0.0
H1053 H 0.04347 0.31561 0.63867 0.0
H1054 H 0.10481 0.26949 0.64115 0.0
H1055 H 0.10122 0.31376 0.6737 0.0
C1056 C 0.14945 0.48008 0.18806 0.0
C1057 C 0.14111 0.49191 0.19801 0.0
N1058 N 0.15299 0.5021 0.20497 0.0
N1059 N 0.16649 0.48289 0.18879 0.0
C1060 C 0.16811 0.49654 0.1991 0.0
H1061 H 0.14335 0.46971 0.18136 0.0
Co1062 Co 0.18441 0.47018 0.17926 0.0
C1063 C 0.18765 0.50469 0.16153 0.0
O1064 O 0.17247 0.51072 0.16527 0.0
N1065 N 0.20182 0.45756 0.16938 0.0
C1066 C 0.2201 0.44721 0.15049 0.0
C1067 C 0.21132 0.46143 0.15555 0.0
C1068 C 0.20505 0.44097 0.17243 0.0
N1069 N 0.21595 0.4341 0.1609 0.0
O1070 O 0.19912 0.47616 0.19804 0.0
H1071 H 0.2117 0.47364 0.14915 0.0
H1072 H 0.19934 0.43426 0.183 0.0
O1073 O 0.19208 0.4898 0.16637 0.0
C1074 C 0.1952 0.46625 0.21036 0.0
O1075 O 0.18287 0.45514 0.20806 0.0
N1076 N 0.17029 0.46224 0.16257 0.0
C1077 C 0.14812 0.44364 0.14277 0.0
C1078 C 0.15383 0.45971 0.13719 0.0
C1079 C 0.16521 0.46891 0.14736 0.0
C1080 C 0.16505 0.44651 0.16782 0.0
C1081 C 0.15414 0.43683 0.15798 0.0
H1082 H 0.16966 0.48125 0.14318 0.0
H1083 H 0.1692 0.4416 0.18001 0.0
H1084 H 0.18017 0.5022 0.20252 0.0
H1085 H 0.1276 0.49229 0.20089 0.0
H1086 H 0.22933 0.4469 0.14022 0.0
H1087 H 0.14929 0.46511 0.1253 0.0
H1088 H 0.14987 0.42447 0.16249 0.0
C1089 C 0.52387 0.83204 0.77991 0.0
C1090 C 0.51035 0.84047 0.77262 0.0
N1091 N 0.49727 0.84047 0.78376 0.0
N1092 N 0.51937 0.82617 0.79539 0.0
C1093 C 0.50362 0.83273 0.79774 0.0
H1094 H 0.53561 0.82932 0.7737 0.0
Co1095 Co 0.52988 0.80855 0.80813 0.0
C1096 C 0.4938 0.8015 0.82681 0.0
O1097 O 0.48658 0.81575 0.83188 0.0
N1098 N 0.53954 0.79097 0.82239 0.0
C1099 C 0.54619 0.77986 0.848 0.0
C1100 C 0.53623 0.79133 0.83946 0.0
C1101 C 0.55106 0.77816 0.82101 0.0
N1102 N 0.55531 0.77141 0.83634 0.0
O1103 O 0.52629 0.79348 0.78851 0.0
H1104 H 0.52761 0.80007 0.84569 0.0
H1105 H 0.55671 0.7738 0.80927 0.0
O1106 O 0.50827 0.80173 0.81918 0.0
C1107 C 0.53974 0.79152 0.77925 0.0
O1108 O 0.5546 0.79265 0.78675 0.0
N1109 N 0.53575 0.82397 0.82449 0.0
C1110 C 0.55162 0.84428 0.84817 0.0
C1111 C 0.53376 0.8434 0.84767 0.0
C1112 C 0.52596 0.83312 0.83552 0.0
C1113 C 0.55309 0.82542 0.82435 0.0
C1114 C 0.5614 0.83525 0.83642 0.0
H1115 H 0.5123 0.83238 0.83515 0.0
H1116 H 0.56049 0.81832 0.81508 0.0
H1117 H 0.49655 0.83146 0.80924 0.0
H1118 H 0.50953 0.84446 0.75941 0.0
H1119 H 0.54711 0.77837 0.8617 0.0
H1120 H 0.52602 0.85055 0.85663 0.0
H1121 H 0.57521 0.83594 0.83652 0.0
C1122 C 0.13975 0.27059 0.53412 0.0
C1123 C 0.12416 0.24975 0.53092 0.0
N1124 N 0.13449 0.23295 0.54363 0.0
N1125 N 0.15661 0.26301 0.54822 0.0
C1126 C 0.15387 0.24073 0.55452 0.0
H1127 H 0.13843 0.28333 0.529 0.0
Co1128 Co 0.17369 0.27765 0.55538 0.0
C1129 C 0.19016 0.25145 0.58041 0.0
O1130 O 0.1836 0.2563 0.59504 0.0
N1131 N 0.19095 0.29248 0.56358 0.0
C1132 C 0.20894 0.30375 0.58246 0.0
C1133 C 0.19531 0.2932 0.58029 0.0
C1134 C 0.2016 0.30375 0.55601 0.0
N1135 N 0.213 0.31041 0.56721 0.0
O1136 O 0.18641 0.27237 0.53516 0.0
H1137 H 0.18917 0.28628 0.59045 0.0
H1138 H 0.20177 0.30627 0.54244 0.0
O1139 O 0.18593 0.25879 0.56647 0.0
C1140 C 0.18372 0.28184 0.52221 0.0
O1141 O 0.17435 0.29562 0.52409 0.0
N1142 N 0.16035 0.28377 0.5735 0.0
C1143 C 0.1421 0.29822 0.59964 0.0
C1144 C 0.14376 0.28044 0.59865 0.0
C1145 C 0.15287 0.27335 0.58519 0.0
C1146 C 0.15721 0.30091 0.57338 0.0
C1147 C 0.14861 0.30856 0.58677 0.0
H1148 H 0.15406 0.25967 0.58423 0.0
H1149 H 0.16215 0.30877 0.56315 0.0
H1150 H 0.16341 0.23287 0.56064 0.0
H1151 H 0.11411 0.24801 0.52164 0.0
H1152 H 0.21582 0.30584 0.59425 0.0
H1153 H 0.13828 0.27221 0.60834 0.0
H1154 H 0.14711 0.3223 0.58714 0.0
C1155 C 0.47007 0.71445 0.82098 0.0
C1156 C 0.48015 0.72595 0.84232 0.0
N1157 N 0.46346 0.74112 0.84891 0.0
N1158 N 0.44909 0.72435 0.81856 0.0
C1159 C 0.44459 0.74014 0.83503 0.0
H1160 H 0.47554 0.70444 0.81324 0.0
Co1161 Co 0.43215 0.71422 0.80529 0.0
C1162 C 0.40727 0.74288 0.79815 0.0
O1163 O 0.39402 0.73534 0.80508 0.0
N1164 N 0.41448 0.70344 0.79232 0.0
C1165 C 0.39016 0.68966 0.786 0.0
C1166 C 0.39819 0.70012 0.79746 0.0
C1167 C 0.41575 0.69485 0.77746 0.0
N1168 N 0.40132 0.68637 0.77355 0.0
O1169 O 0.44648 0.71699 0.78568 0.0
H1170 H 0.39255 0.70395 0.80941 0.0
H1171 H 0.42733 0.69364 0.7701 0.0
O1172 O 0.42221 0.73642 0.79954 0.0
C1173 C 0.45604 0.7041 0.78317 0.0
O1174 O 0.45282 0.69027 0.79214 0.0
N1175 N 0.42 0.71002 0.82491 0.0
C1176 C 0.40122 0.69513 0.85057 0.0
C1177 C 0.40005 0.71274 0.84767 0.0
C1178 C 0.40986 0.72011 0.83479 0.0
C1179 C 0.42253 0.69324 0.82883 0.0
C1180 C 0.41312 0.68542 0.84163 0.0
H1181 H 0.40876 0.7336 0.8324 0.0
H1182 H 0.43116 0.68569 0.82114 0.0
H1183 H 0.43384 0.74877 0.83536 0.0
H1184 H 0.49316 0.72552 0.84691 0.0
H1185 H 0.37773 0.68379 0.78741 0.0
H1186 H 0.39114 0.72053 0.85484 0.0
H1187 H 0.4144 0.67184 0.84389 0.0
C1188 C 0.784 0.02955 0.33736 0.0
C1189 C 0.77751 0.01532 0.34518 0.0
N1190 N 0.78092 0.00152 0.3354 0.0
N1191 N 0.79092 0.02506 0.32229 0.0
C1192 C 0.78836 0.00811 0.32121 0.0
H1193 H 0.78387 0.04235 0.34249 0.0
Co1194 Co 0.80507 0.03842 0.30873 0.0
C1195 C 0.83239 0.0129 0.2979 0.0
O1196 O 0.84565 0.02254 0.3012 0.0
N1197 N 0.82043 0.05206 0.29548 0.0
C1198 C 0.84399 0.06637 0.28763 0.0
C1199 C 0.8361 0.05767 0.30053 0.0
C1200 C 0.81929 0.05768 0.27922 0.0
N1201 N 0.83338 0.06624 0.27435 0.0
O1202 O 0.78992 0.0349 0.29002 0.0
H1203 H 0.84212 0.05516 0.31263 0.0
H1204 H 0.80866 0.05519 0.27082 0.0
O1205 O 0.8173 0.01805 0.3012 0.0
C1206 C 0.77881 0.04626 0.28666 0.0
O1207 O 0.78181 0.0621 0.29124 0.0
N1208 N 0.81778 0.04247 0.32753 0.0
C1209 C 0.83585 0.05527 0.35438 0.0
C1210 C 0.83802 0.03818 0.34952 0.0
C1211 C 0.82848 0.0318 0.33603 0.0
C1212 C 0.81422 0.05847 0.33335 0.0
C1213 C 0.82321 0.06524 0.34692 0.0
H1214 H 0.83003 0.0187 0.33211 0.0
H1215 H 0.80492 0.06624 0.32673 0.0
H1216 H 0.79185 0.00099 0.30999 0.0
H1217 H 0.77044 0.01543 0.35702 0.0
H1218 H 0.85659 0.07203 0.28781 0.0
H1219 H 0.84754 0.03018 0.35557 0.0
H1220 H 0.82121 0.07837 0.35074 0.0
C1221 C 0.47185 0.55416 0.59422 0.0
C1222 C 0.48499 0.54545 0.60189 0.0
N1223 N 0.49588 0.54053 0.58956 0.0
N1224 N 0.47469 0.55498 0.5772 0.0
C1225 C 0.48954 0.54664 0.57482 0.0
H1226 H 0.4606 0.55895 0.60062 0.0
Co1227 Co 0.46022 0.56439 0.56081 0.0
C1228 C 0.48738 0.58915 0.54601 0.0
O1229 O 0.48243 0.60377 0.55251 0.0
N1230 N 0.44573 0.57455 0.5448 0.0
C1231 C 0.43017 0.5945 0.53213 0.0
C1232 C 0.44404 0.59149 0.54216 0.0
C1233 C 0.43262 0.56759 0.53624 0.0
N1234 N 0.42258 0.57947 0.52862 0.0
O1235 O 0.46381 0.54499 0.54607 0.0
H1236 H 0.4519 0.60125 0.54776 0.0
H1237 H 0.43078 0.55401 0.53547 0.0
O1238 O 0.47953 0.57532 0.54956 0.0
C1239 C 0.45704 0.53148 0.55213 0.0
O1240 O 0.44878 0.5326 0.56671 0.0
N1241 N 0.45491 0.58158 0.57562 0.0
C1242 C 0.43953 0.60172 0.59978 0.0
C1243 C 0.45701 0.60368 0.59631 0.0
C1244 C 0.46465 0.59318 0.58409 0.0
C1245 C 0.4381 0.57924 0.57956 0.0
C1246 C 0.42999 0.58952 0.59126 0.0
H1247 H 0.47829 0.59366 0.58215 0.0
H1248 H 0.43098 0.56902 0.57364 0.0
H1249 H 0.49522 0.54439 0.56246 0.0
H1250 H 0.48581 0.5418 0.61519 0.0
H1251 H 0.42646 0.60694 0.52754 0.0
H1252 H 0.46466 0.61275 0.60338 0.0
H1253 H 0.41662 0.58751 0.59419 0.0
C1254 C 0.7844 0.21125 0.90278 0.0
C1255 C 0.77709 0.22388 0.89304 0.0
N1256 N 0.77841 0.23862 0.9017 0.0
N1257 N 0.79067 0.21815 0.91727 0.0
C1258 C 0.78657 0.23477 0.91635 0.0
H1259 H 0.78574 0.19802 0.89915 0.0
Co1260 Co 0.80536 0.20736 0.93222 0.0
C1261 C 0.83058 0.2354 0.94108 0.0
O1262 O 0.84444 0.22667 0.93761 0.0
N1263 N 0.82093 0.1959 0.94688 0.0
C1264 C 0.84409 0.18202 0.95638 0.0
C1265 C 0.8374 0.19157 0.94337 0.0
C1266 C 0.81809 0.18882 0.9623 0.0
N1267 N 0.8319 0.1805 0.96821 0.0
O1268 O 0.78953 0.21115 0.95024 0.0
H1269 H 0.84434 0.19483 0.93192 0.0
H1270 H 0.80611 0.18944 0.96912 0.0
O1271 O 0.81582 0.22907 0.93846 0.0
C1272 C 0.77875 0.19908 0.95077 0.0
O1273 O 0.7819 0.18583 0.94096 0.0
N1274 N 0.81902 0.20282 0.91426 0.0
C1275 C 0.83987 0.18924 0.89 0.0
C1276 C 0.83996 0.2069 0.89287 0.0
C1277 C 0.82894 0.21363 0.905 0.0
C1278 C 0.81729 0.18605 0.91 0.0
C1279 C 0.82765 0.17889 0.89767 0.0
H1280 H 0.82884 0.22718 0.90743 0.0
H1281 H 0.80846 0.17808 0.91701 0.0
H1282 H 0.78963 0.24401 0.92614 0.0
H1283 H 0.77154 0.22234 0.88051 0.0
H1284 H 0.85675 0.17653 0.95708 0.0
H1285 H 0.84904 0.21514 0.88645 0.0
H1286 H 0.82719 0.16529 0.89524 0.0
C1287 C 0.96924 0.71335 0.14221 0.0
C1288 C 0.98952 0.71548 0.12559 0.0
N1289 N 0.0039 0.69806 0.13198 0.0
N1290 N 0.97468 0.69503 0.15554 0.0
C1291 C 0.99509 0.68531 0.14967 0.0
H1292 H 0.95795 0.72121 0.14315 0.0
Co1293 Co 0.96022 0.68655 0.17218 0.0
C1294 C 0.9881 0.66059 0.18532 0.0
O1295 O 0.98519 0.64707 0.17589 0.0
N1296 N 0.9459 0.67635 0.18852 0.0
C1297 C 0.93567 0.655 0.20431 0.0
C1298 C 0.94563 0.65919 0.19066 0.0
C1299 C 0.93523 0.68223 0.20064 0.0
N1300 N 0.9294 0.66951 0.2108 0.0
O1301 O 0.96563 0.70559 0.18724 0.0
H1302 H 0.95296 0.65016 0.18328 0.0
H1303 H 0.93288 0.69559 0.20293 0.0
O1304 O 0.97913 0.67407 0.18327 0.0
C1305 C 0.95664 0.71896 0.18463 0.0
O1306 O 0.94426 0.71824 0.17339 0.0
N1307 N 0.95325 0.67043 0.15693 0.0
C1308 C 0.93512 0.64881 0.13629 0.0
C1309 C 0.95285 0.64684 0.138 0.0
C1310 C 0.96186 0.65813 0.14825 0.0
C1311 C 0.9364 0.67357 0.15375 0.0
C1312 C 0.9269 0.66263 0.14369 0.0
H1313 H 0.9755 0.65699 0.14914 0.0
H1314 H 0.93015 0.6843 0.15978 0.0
H1315 H 0.00184 0.67556 0.15667 0.0
H1316 H 0.99265 0.7261 0.11732 0.0
H1317 H 0.93462 0.64251 0.21014 0.0
H1318 H 0.95951 0.63646 0.13173 0.0
H1319 H 0.91331 0.66463 0.1421 0.0
C1320 C 0.02634 0.5835 0.96972 0.0
C1321 C 0.02152 0.60468 0.98461 0.0
N1322 N 0.03451 0.60091 0.00384 0.0
N1323 N 0.04148 0.57104 0.98229 0.0
C1324 C 0.04674 0.58101 0.00254 0.0
H1325 H 0.02195 0.58069 0.95696 0.0
Co1326 Co 0.05638 0.55582 0.97128 0.0
C1327 C 0.07783 0.55368 0.00637 0.0
O1328 O 0.07963 0.56908 0.01268 0.0
N1329 N 0.07205 0.54123 0.96043 0.0
C1330 C 0.0972 0.53086 0.95177 0.0
C1331 C 0.08919 0.54183 0.96284 0.0
C1332 C 0.07004 0.52975 0.94784 0.0
N1333 N 0.08503 0.5231 0.94262 0.0
O1334 O 0.04055 0.5372 0.97548 0.0
H1335 H 0.09561 0.55013 0.97177 0.0
H1336 H 0.058 0.52666 0.94208 0.0
O1337 O 0.06967 0.55115 0.99238 0.0
C1338 C 0.03102 0.53715 0.96216 0.0
O1339 O 0.03464 0.54803 0.94993 0.0
N1340 N 0.06963 0.57397 0.96443 0.0
C1341 C 0.08884 0.59755 0.94676 0.0
C1342 C 0.09124 0.59531 0.96431 0.0
C1343 C 0.08136 0.58341 0.97301 0.0
C1344 C 0.06652 0.57683 0.94753 0.0
C1345 C 0.07606 0.58859 0.93834 0.0
H1346 H 0.08361 0.58156 0.98628 0.0
H1347 H 0.05702 0.56935 0.94095 0.0
H1348 H 0.05052 0.57388 0.01367 0.0
H1349 H 0.01176 0.6143 0.98299 0.0
H1350 H 0.1108 0.52877 0.95045 0.0
H1351 H 0.10106 0.6023 0.97107 0.0
H1352 H 0.07397 0.5902 0.92477 0.0
C1353 C 0.68683 0.65558 0.47047 0.0
C1354 C 0.69592 0.64591 0.48201 0.0
N1355 N 0.70657 0.65644 0.49026 0.0
N1356 N 0.69173 0.67217 0.47152 0.0
C1357 C 0.70411 0.672 0.4835 0.0
H1358 H 0.67657 0.65075 0.46267 0.0
Co1359 Co 0.68161 0.69219 0.46212 0.0
C1360 C 0.66512 0.689 0.49697 0.0
O1361 O 0.6636 0.67233 0.49686 0.0
N1362 N 0.67097 0.71162 0.45331 0.0
C1363 C 0.65269 0.73297 0.44987 0.0
C1364 C 0.66166 0.7235 0.46158 0.0
C1365 C 0.66759 0.71431 0.43666 0.0
N1366 N 0.65615 0.72699 0.43406 0.0
O1367 O 0.70129 0.70493 0.4682 0.0
H1368 H 0.661 0.72505 0.47527 0.0
H1369 H 0.67354 0.70698 0.42664 0.0
O1370 O 0.67152 0.69692 0.48425 0.0
C1371 C 0.71127 0.70725 0.45556 0.0
O1372 O 0.70525 0.70541 0.44004 0.0
N1373 N 0.66393 0.67983 0.45397 0.0
C1374 C 0.64357 0.65817 0.43572 0.0
C1375 C 0.63766 0.66512 0.45116 0.0
C1376 C 0.64803 0.67646 0.46005 0.0
C1377 C 0.66911 0.67427 0.43832 0.0
C1378 C 0.65883 0.66376 0.42864 0.0
H1379 H 0.64354 0.682 0.4718 0.0
H1380 H 0.68166 0.67766 0.43366 0.0
H1381 H 0.71085 0.68321 0.48787 0.0
H1382 H 0.69435 0.63244 0.48466 0.0
H1383 H 0.64462 0.74373 0.45292 0.0
H1384 H 0.62553 0.66125 0.45657 0.0
H1385 H 0.66342 0.6588 0.41657 0.0
C1386 C 0.83852 0.43826 0.72646 0.0
C1387 C 0.84562 0.4483 0.73904 0.0
N1388 N 0.8328 0.45535 0.74801 0.0
N1389 N 0.8213 0.43907 0.72756 0.0
C1390 C 0.8183 0.44979 0.74072 0.0
H1391 H 0.84555 0.4311 0.71699 0.0
Co1392 Co 0.8044 0.42871 0.71388 0.0
C1393 C 0.80105 0.41266 0.7484 0.0
O1394 O 0.81758 0.41352 0.75108 0.0
N1395 N 0.788 0.41841 0.7003 0.0
C1396 C 0.76926 0.4007 0.68879 0.0
C1397 C 0.77796 0.40483 0.70341 0.0
C1398 C 0.7853 0.42219 0.68379 0.0
N1399 N 0.774 0.41154 0.67621 0.0
O1400 O 0.78991 0.44853 0.71665 0.0
H1401 H 0.77678 0.3984 0.71551 0.0
H1402 H 0.79128 0.43298 0.67769 0.0
O1403 O 0.79463 0.41772 0.73426 0.0
C1404 C 0.79641 0.45839 0.70543 0.0
O1405 O 0.81013 0.45271 0.69765 0.0
N1406 N 0.81882 0.41095 0.70843 0.0
C1407 C 0.84126 0.38877 0.69296 0.0
C1408 C 0.83398 0.38462 0.70874 0.0
C1409 C 0.8225 0.39588 0.71625 0.0
C1410 C 0.82543 0.41469 0.69272 0.0
C1411 C 0.83655 0.40365 0.6846 0.0
H1412 H 0.81692 0.39235 0.72819 0.0
H1413 H 0.8221 0.42642 0.68639 0.0
H1414 H 0.80568 0.45366 0.74483 0.0
H1415 H 0.85906 0.45068 0.74113 0.0
H1416 H 0.75949 0.39101 0.68798 0.0
H1417 H 0.83743 0.37294 0.71531 0.0
H1418 H 0.84199 0.40702 0.67233 0.0
C1419 C 0.82139 0.78295 0.52369 0.0
C1420 C 0.82951 0.77414 0.51095 0.0
N1421 N 0.82544 0.78105 0.49564 0.0
N1422 N 0.81158 0.79513 0.5167 0.0
C1423 C 0.81384 0.79337 0.49968 0.0
H1424 H 0.82241 0.78054 0.53724 0.0
Co1425 Co 0.79903 0.8107 0.52965 0.0
C1426 C 0.79362 0.83968 0.50468 0.0
O1427 O 0.80225 0.85111 0.51331 0.0
N1428 N 0.78646 0.82686 0.543 0.0
C1429 C 0.77899 0.85038 0.55748 0.0
C1430 C 0.7915 0.84272 0.54791 0.0
C1431 C 0.77068 0.82536 0.54984 0.0
N1432 N 0.76606 0.83932 0.55877 0.0
O1433 O 0.77932 0.79702 0.52618 0.0
H1434 H 0.80365 0.84852 0.545 0.0
H1435 H 0.76262 0.81429 0.54849 0.0
O1436 O 0.79303 0.82408 0.50949 0.0
C1437 C 0.78007 0.78617 0.53825 0.0
O1438 O 0.79107 0.78885 0.55061 0.0
N1439 N 0.81888 0.82182 0.53444 0.0
C1440 C 0.84682 0.83777 0.54802 0.0
C1441 C 0.84382 0.83855 0.53039 0.0
C1442 C 0.82983 0.82993 0.52367 0.0
C1443 C 0.82296 0.81919 0.55116 0.0
C1444 C 0.83696 0.82719 0.55833 0.0
H1445 H 0.82744 0.83023 0.51009 0.0
H1446 H 0.81468 0.81159 0.55916 0.0
H1447 H 0.80652 0.80071 0.49067 0.0
H1448 H 0.83737 0.76298 0.51301 0.0
H1449 H 0.77949 0.86285 0.5634 0.0
H1450 H 0.85179 0.84625 0.52212 0.0
H1451 H 0.83937 0.82611 0.5719 0.0
C1452 C 0.69235 0.59192 0.75934 0.0
C1453 C 0.70114 0.59465 0.74439 0.0
N1454 N 0.70021 0.5804 0.73484 0.0
N1455 N 0.68595 0.57596 0.75927 0.0
C1456 C 0.69097 0.56922 0.74418 0.0
H1457 H 0.69119 0.6008 0.76984 0.0
Co1458 Co 0.67386 0.56537 0.77681 0.0
C1459 C 0.64655 0.54992 0.75179 0.0
O1460 O 0.63312 0.55963 0.75414 0.0
N1461 N 0.66082 0.55478 0.79405 0.0
C1462 C 0.639 0.54035 0.80502 0.0
C1463 C 0.64364 0.55336 0.79424 0.0
C1464 C 0.666 0.54409 0.80631 0.0
N1465 N 0.65325 0.53399 0.81207 0.0
O1466 O 0.69059 0.54714 0.77684 0.0
H1467 H 0.63511 0.56001 0.78575 0.0
H1468 H 0.67921 0.54194 0.80916 0.0
O1469 O 0.66042 0.55258 0.75994 0.0
C1470 C 0.70381 0.55219 0.78497 0.0
O1471 O 0.70351 0.56731 0.79217 0.0
N1472 N 0.66003 0.58405 0.77883 0.0
C1473 C 0.64393 0.61165 0.79338 0.0
C1474 C 0.63924 0.60617 0.77693 0.0
C1475 C 0.64784 0.59226 0.76959 0.0
C1476 C 0.66547 0.59031 0.79412 0.0
C1477 C 0.65741 0.60388 0.80178 0.0
H1478 H 0.64476 0.58819 0.75682 0.0
H1479 H 0.67582 0.58412 0.8008 0.0
H1480 H 0.68849 0.55617 0.74041 0.0
H1481 H 0.70842 0.60593 0.74112 0.0
H1482 H 0.62655 0.53436 0.80553 0.0
H1483 H 0.62896 0.61237 0.77009 0.0
H1484 H 0.66138 0.60801 0.81436 0.0
C1485 C 0.89374 0.44104 0.01521 0.0
C1486 C 0.88899 0.45025 0.00094 0.0
N1487 N 0.90208 0.45019 0.98976 0.0
N1488 N 0.90985 0.43538 0.0131 0.0
C1489 C 0.91448 0.44097 -0.00262 0.0
H1490 H 0.88646 0.43973 0.02688 0.0
Co1491 Co 0.92459 0.42609 0.02944 0.0
C1492 C 0.93982 0.39962 0.00389 0.0
O1493 O 0.93386 0.38491 0.00925 0.0
N1494 N 0.93994 0.41633 0.04538 0.0
C1495 C 0.95467 0.39728 0.06041 0.0
C1496 C 0.94255 0.39951 0.04803 0.0
C1497 C 0.95056 0.42395 0.05652 0.0
N1498 N 0.95963 0.41277 0.06609 0.0
O1499 O 0.9396 0.44495 0.0257 0.0
H1500 H 0.9362 0.38936 0.04124 0.0
H1501 H 0.95232 0.43754 0.0571 0.0
O1502 O 0.9361 0.41349 0.01157 0.0
C1503 C 0.9355 0.45651 0.03641 0.0
O1504 O 0.92402 0.45292 0.04812 0.0
N1505 N 0.90886 0.40935 0.03502 0.0
C1506 C 0.8908 0.38462 0.05264 0.0
C1507 C 0.89288 0.38343 0.03479 0.0
C1508 C 0.90199 0.39616 0.02607 0.0
C1509 C 0.90496 0.41166 0.05183 0.0
C1510 C 0.89672 0.39907 0.06108 0.0
H1511 H 0.9039 0.39523 0.01245 0.0
H1512 H 0.90972 0.42276 0.05849 0.0
H1513 H 0.9273 0.43985 0.99235 0.0
H1514 H 0.87736 0.45754 -0.00055 0.0
H1515 H 0.95962 0.38503 0.06413 0.0
H1516 H 0.888 0.37252 0.02786 0.0
H1517 H 0.89522 0.40048 0.07476 0.0
C1518 C 0.9679 0.21505 0.83252 0.0
C1519 C 0.97629 0.2298 0.83708 0.0
N1520 N 0.96534 0.24288 0.83527 0.0
N1521 N 0.95188 0.219 0.82752 0.0
C1522 C 0.95061 0.23597 0.82991 0.0
H1523 H 0.97358 0.20252 0.83162 0.0
Co1524 Co 0.93671 0.20511 0.81573 0.0
C1525 C 0.91082 0.2346 0.80648 0.0
O1526 O 0.89814 0.23184 0.81706 0.0
N1527 N 0.92081 0.19128 0.80395 0.0
C1528 C 0.89585 0.18465 0.79207 0.0
C1529 C 0.90367 0.19249 0.80558 0.0
C1530 C 0.92296 0.18149 0.79004 0.0
N1531 N 0.90809 0.17823 0.78197 0.0
O1532 O 0.95146 0.20644 0.79634 0.0
H1533 H 0.89719 0.20023 0.81491 0.0
H1534 H 0.93519 0.17937 0.78404 0.0
O1535 O 0.92412 0.22506 0.80652 0.0
C1536 C 0.96145 0.19378 0.79797 0.0
O1537 O 0.95774 0.18277 0.81012 0.0
N1538 N 0.9243 0.20215 0.83509 0.0
C1539 C 0.90064 0.18889 0.85687 0.0
C1540 C 0.90207 0.20666 0.85505 0.0
C1541 C 0.91453 0.2132 0.84416 0.0
C1542 C 0.92505 0.18526 0.83923 0.0
C1543 C 0.91288 0.17817 0.84982 0.0
H1544 H 0.91556 0.22678 0.84216 0.0
H1545 H 0.93382 0.17693 0.8326 0.0
H1546 H 0.93975 0.24349 0.82619 0.0
H1547 H 0.98972 0.23102 0.84007 0.0
H1548 H 0.88254 0.1859 0.78861 0.0
H1549 H 0.89298 0.2152 0.86105 0.0
H1550 H 0.9122 0.16444 0.8514 0.0
C1551 C 0.27162 0.69233 0.08527 0.0
C1552 C 0.25994 0.70307 0.09288 0.0
N1553 N 0.24901 0.70841 0.08079 0.0
N1554 N 0.26806 0.69097 0.06844 0.0
C1555 C 0.25437 0.70119 0.06611 0.0
H1556 H 0.2821 0.68603 0.09165 0.0
Co1557 Co 0.27915 0.67763 0.0519 0.0
C1558 C 0.24187 0.66629 0.04693 0.0
O1559 O 0.2352 0.67109 0.06154 0.0
N1560 N 0.2897 0.6636 0.0356 0.0
C1561 C 0.29668 0.63971 0.02185 0.0
C1562 C 0.28456 0.64758 0.03174 0.0
C1563 C 0.30501 0.66505 0.02795 0.0
N1564 N 0.30974 0.65065 0.01967 0.0
O1565 O 0.27782 0.69634 0.03642 0.0
H1566 H 0.27303 0.64162 0.03644 0.0
H1567 H 0.3127 0.67644 0.02838 0.0
O1568 O 0.25764 0.66862 0.04373 0.0
C1569 C 0.2913 0.70528 0.03841 0.0
O1570 O 0.30395 0.69886 0.04732 0.0
N1571 N 0.2828 0.66085 0.06758 0.0
C1572 C 0.29595 0.64156 0.09373 0.0
C1573 C 0.27849 0.64058 0.08982 0.0
C1574 C 0.27204 0.65051 0.07647 0.0
C1575 C 0.29979 0.66159 0.07121 0.0
C1576 C 0.3067 0.65189 0.08415 0.0
H1577 H 0.25857 0.6504 0.07378 0.0
H1578 H 0.30796 0.67027 0.06428 0.0
H1579 H 0.24842 0.70337 0.05384 0.0
H1580 H 0.25963 0.7069 0.10615 0.0
H1581 H 0.29581 0.62687 0.017 0.0
H1582 H 0.27 0.63257 0.09724 0.0
H1583 H 0.3202 0.65282 0.08701 0.0
C1584 C 0.46179 0.71466 0.66531 0.0
C1585 C 0.47658 0.7214 0.64471 0.0
N1586 N 0.49225 0.70404 0.64311 0.0
N1587 N 0.47079 0.6944 0.67247 0.0
C1588 C 0.48885 0.68749 0.65943 0.0
H1589 H 0.45063 0.72092 0.67018 0.0
Co1590 Co 0.46011 0.68086 0.68923 0.0
C1591 C 0.49019 0.65611 0.69371 0.0
O1592 O 0.48502 0.64364 0.68385 0.0
N1593 N 0.44981 0.66624 0.70584 0.0
C1594 C 0.43692 0.64243 0.71498 0.0
C1595 C 0.44908 0.64899 0.70426 0.0
C1596 C 0.43855 0.66962 0.71841 0.0
N1597 N 0.43044 0.65545 0.72392 0.0
O1598 O 0.46459 0.6985 0.70587 0.0
H1599 H 0.45539 0.64168 0.69447 0.0
H1600 H 0.43524 0.68229 0.72272 0.0
O1601 O 0.48159 0.66989 0.69508 0.0
C1602 C 0.45059 0.70683 0.705 0.0
O1603 O 0.43845 0.69968 0.69604 0.0
N1604 N 0.45281 0.66603 0.67239 0.0
C1605 C 0.43443 0.64544 0.65073 0.0
C1606 C 0.45225 0.64639 0.64929 0.0
C1607 C 0.46129 0.65701 0.66022 0.0
C1608 C 0.43533 0.66637 0.67259 0.0
C1609 C 0.42585 0.65569 0.66227 0.0
H1610 H 0.4749 0.65767 0.65892 0.0
H1611 H 0.42856 0.67429 0.68156 0.0
H1612 H 0.4971 0.67671 0.66183 0.0
H1613 H 0.47678 0.73334 0.63779 0.0
H1614 H 0.4323 0.62942 0.71516 0.0
H1615 H 0.45907 0.63874 0.63999 0.0
H1616 H 0.41208 0.65528 0.66346 0.0
C1617 C 0.27335 0.52831 0.14577 0.0
C1618 C 0.25598 0.5238 0.1266 0.0
N1619 N 0.24012 0.54092 0.12923 0.0
N1620 N 0.2653 0.54738 0.15644 0.0
C1621 C 0.24561 0.55551 0.14681 0.0
H1622 H 0.28409 0.5206 0.14969 0.0
Co1623 Co 0.27566 0.55496 0.17671 0.0
C1624 C 0.24265 0.57796 0.18337 0.0
O1625 O 0.24201 0.59018 0.17195 0.0
N1626 N 0.28569 0.56273 0.19744 0.0
C1627 C 0.28798 0.57508 0.22296 0.0
C1628 C 0.27693 0.56966 0.21067 0.0
C1629 C 0.30221 0.56343 0.20265 0.0
N1630 N 0.30384 0.57129 0.21783 0.0
O1631 O 0.26815 0.53456 0.18843 0.0
H1632 H 0.26328 0.57067 0.21179 0.0
H1633 H 0.3129 0.5581 0.19579 0.0
O1634 O 0.25472 0.56696 0.18339 0.0
C1635 C 0.27984 0.52317 0.18855 0.0
O1636 O 0.29463 0.52677 0.18152 0.0
N1637 N 0.2848 0.57369 0.16499 0.0
C1638 C 0.30194 0.5992 0.14736 0.0
C1639 C 0.28415 0.59796 0.14656 0.0
C1640 C 0.27587 0.58494 0.15526 0.0
C1641 C 0.30222 0.57402 0.16466 0.0
C1642 C 0.31108 0.58726 0.15681 0.0
H1643 H 0.26263 0.58316 0.15286 0.0
H1644 H 0.30939 0.56344 0.16961 0.0
H1645 H 0.23683 0.56436 0.15261 0.0
H1646 H 0.25432 0.51216 0.11936 0.0
H1647 H 0.28467 0.58127 0.23488 0.0
H1648 H 0.27681 0.60647 0.1385 0.0
H1649 H 0.32489 0.5875 0.15718 0.0
C1650 C 0.96265 0.02338 0.4079 0.0
C1651 C 0.96987 0.0083 0.40266 0.0
N1652 N 0.9581 -0.00409 0.40417 0.0
N1653 N 0.94659 0.02047 0.41317 0.0
C1654 C 0.94382 0.00387 0.40946 0.0
H1655 H 0.96919 0.03523 0.40919 0.0
Co1656 Co 0.93336 0.03386 0.42782 0.0
C1657 C 0.90981 0.00455 0.44009 0.0
O1658 O 0.89561 0.00924 0.43262 0.0
N1659 N 0.91854 0.04664 0.44275 0.0
C1660 C 0.89382 0.05704 0.45303 0.0
C1661 C 0.90128 0.04727 0.44069 0.0
C1662 C 0.921 0.05583 0.45713 0.0
N1663 N 0.90626 0.06221 0.46338 0.0
O1664 O 0.95171 0.03303 0.44431 0.0
H1665 H 0.89417 0.04081 0.43094 0.0
H1666 H 0.93315 0.05746 0.46342 0.0
O1667 O 0.9235 0.01324 0.43826 0.0
C1668 C 0.96071 0.04666 0.44512 0.0
O1669 O 0.95388 0.06105 0.43994 0.0
N1670 N 0.9181 0.03694 0.41062 0.0
C1671 C 0.89346 0.05233 0.39126 0.0
C1672 C 0.89417 0.03441 0.39232 0.0
C1673 C 0.90696 0.02677 0.40208 0.0
C1674 C 0.91917 0.05398 0.40728 0.0
C1675 C 0.90637 0.06215 0.3984 0.0
H1676 H 0.9073 0.01309 0.40355 0.0
H1677 H 0.92894 0.06154 0.41342 0.0
H1678 H 0.93226 -0.0029 0.41267 0.0
H1679 H 0.98323 0.00626 0.39976 0.0
H1680 H 0.88037 0.05982 0.45456 0.0
H1681 H 0.88443 0.02657 0.38644 0.0
H1682 H 0.90616 0.07596 0.39771 0.0
C1683 C 0.06916 0.97006 0.52488 0.0
C1684 C 0.07824 0.98277 0.51693 0.0
N1685 N 0.08137 -0.00469 0.5283 0.0
N1686 N 0.0661 0.97462 0.54117 0.0
C1687 C 0.07398 0.98985 0.54295 0.0
H1688 H 0.06511 0.95825 0.51906 0.0
Co1689 Co 0.0547 0.96155 0.55757 0.0
C1690 C 0.04166 0.98656 0.58325 0.0
O1691 O 0.04793 0.97772 0.59601 0.0
N1692 N 0.04342 0.94789 0.57456 0.0
C1693 C 0.03929 0.92966 0.59628 0.0
C1694 C 0.04986 0.94186 0.58948 0.0
C1695 C 0.02828 0.93982 0.57333 0.0
N1696 N 0.02579 0.92844 0.58596 0.0
O1697 O 0.03553 0.96018 0.54245 0.0
H1698 H 0.06177 0.94566 0.595 0.0
H1699 H 0.01952 0.94121 0.5628 0.0
O1700 O 0.0446 0.98193 0.56786 0.0
C1701 C 0.03666 0.94581 0.53496 0.0
O1702 O 0.04797 0.93511 0.5412 0.0
N1703 N 0.07436 0.96122 0.57018 0.0
C1704 C 0.1021 0.95012 0.58848 0.0
C1705 C 0.09561 0.96661 0.59118 0.0
C1706 C 0.08169 0.97215 0.58152 0.0
C1707 C 0.08186 0.94603 0.56619 0.0
C1708 C 0.09562 0.94005 0.57542 0.0
H1709 H 0.07652 0.98474 0.58363 0.0
H1710 H 0.07626 0.93796 0.55655 0.0
H1711 H 0.07483 -0.00374 0.55499 0.0
H1712 H 0.08185 0.98299 0.50359 0.0
H1713 H 0.04175 0.92168 0.6073 0.0
H1714 H 0.10081 0.97475 0.60105 0.0
H1715 H 0.1006 0.92738 0.57299 0.0
C1716 C 0.5825 0.76681 0.71604 0.0
C1717 C 0.60195 0.75092 0.7237 0.0
N1718 N 0.60551 0.737 0.70515 0.0
N1719 N 0.57787 0.75999 0.69412 0.0
C1720 C 0.59153 0.74241 0.68714 0.0
H1721 H 0.57594 0.77611 0.72372 0.0
Co1722 Co 0.56368 0.77069 0.67783 0.0
C1723 C 0.54879 0.74021 0.66773 0.0
O1724 O 0.56365 0.73791 0.66035 0.0
N1725 N 0.55055 0.78047 0.66098 0.0
C1726 C 0.54144 0.78831 0.63522 0.0
C1727 C 0.55483 0.78136 0.64428 0.0
C1728 C 0.53479 0.787 0.66189 0.0
N1729 N 0.52902 0.79192 0.64647 0.0
O1730 O 0.55028 0.78144 0.69657 0.0
H1731 H 0.56675 0.77678 0.63902 0.0
H1732 H 0.52732 0.78755 0.67352 0.0
O1733 O 0.54739 0.7523 0.67848 0.0
C1734 C 0.55323 0.7932 0.70747 0.0
O1735 O 0.5679 0.80128 0.70659 0.0
N1736 N 0.57926 0.7889 0.6755 0.0
C1737 C 0.59901 0.81087 0.656 0.0
C1738 C 0.60529 0.79486 0.66076 0.0
C1739 C 0.59513 0.784 0.67038 0.0
C1740 C 0.57384 0.80532 0.67265 0.0
C1741 C 0.58379 0.81671 0.66321 0.0
H1742 H 0.59915 0.77093 0.67158 0.0
H1743 H 0.56096 0.80909 0.67589 0.0
H1744 H 0.59078 0.73555 0.67523 0.0
H1745 H 0.60635 0.74865 0.73659 0.0
H1746 H 0.54064 0.79004 0.62153 0.0
H1747 H 0.61704 0.78997 0.6553 0.0
H1748 H 0.57868 0.8291 0.65981 0.0
C1749 C 0.70873 0.33788 0.94255 0.0
C1750 C 0.71989 0.34784 0.95178 0.0
N1751 N 0.73249 0.33762 0.95735 0.0
N1752 N 0.71472 0.3217 0.94202 0.0
C1753 C 0.72912 0.32201 0.95125 0.0
H1754 H 0.6974 0.34235 0.93607 0.0
Co1755 Co 0.70758 0.3032 0.92923 0.0
C1756 C 0.74578 0.30096 0.91491 0.0
O1757 O 0.75186 0.31579 0.91 0.0
N1758 N 0.70073 0.28517 0.91557 0.0
C1759 C 0.69343 0.27427 0.89037 0.0
C1760 C 0.70596 0.28265 0.89929 0.0
C1761 C 0.68525 0.27792 0.91632 0.0
N1762 N 0.68021 0.27172 0.90103 0.0
O1763 O 0.71259 0.28822 0.94792 0.0
H1764 H 0.71716 0.28836 0.8936 0.0
H1765 H 0.67713 0.27876 0.92748 0.0
O1766 O 0.73059 0.30036 0.92072 0.0
C1767 C 0.70139 0.29 0.95948 0.0
O1768 O 0.6888 0.30071 0.95657 0.0
N1769 N 0.70073 0.3175 0.91233 0.0
C1770 C 0.6841 0.33732 0.88874 0.0
C1771 C 0.70202 0.33741 0.88959 0.0
C1772 C 0.7102 0.32717 0.90151 0.0
C1773 C 0.68333 0.31782 0.91201 0.0
C1774 C 0.6747 0.32711 0.89977 0.0
H1775 H 0.72388 0.32738 0.90234 0.0
H1776 H 0.67612 0.31066 0.92134 0.0
H1777 H 0.73744 0.31111 0.95292 0.0
H1778 H 0.71898 0.36143 0.95407 0.0
H1779 H 0.69367 0.2716 0.87687 0.0
H1780 H 0.70953 0.34546 0.88121 0.0
H1781 H 0.66089 0.32672 0.89926 0.0
C1782 C 0.71927 0.39906 0.79583 0.0
C1783 C 0.73332 0.39032 0.78985 0.0
N1784 N 0.74749 0.3998 0.79272 0.0
N1785 N 0.7244 0.41421 0.80197 0.0
C1786 C 0.74141 0.41435 0.79972 0.0
H1787 H 0.70613 0.39485 0.79536 0.0
Co1788 Co 0.71163 0.43147 0.81192 0.0
C1789 C 0.74021 0.44044 0.83759 0.0
O1790 O 0.73365 0.43297 0.85109 0.0
N1791 N 0.69896 0.44881 0.82246 0.0
C1792 C 0.68967 0.46879 0.84036 0.0
C1793 C 0.70124 0.45596 0.83801 0.0
C1794 C 0.68507 0.45671 0.81621 0.0
N1795 N 0.67966 0.4694 0.82652 0.0
O1796 O 0.71637 0.44587 0.79237 0.0
H1797 H 0.71085 0.45264 0.84711 0.0
H1798 H 0.67975 0.45404 0.80381 0.0
O1799 O 0.73241 0.44013 0.82326 0.0
C1800 C 0.70711 0.44201 0.77949 0.0
O1801 O 0.6955 0.43005 0.7812 0.0
N1802 N 0.70533 0.41677 0.82903 0.0
C1803 C 0.6902 0.39114 0.84765 0.0
C1804 C 0.70802 0.39256 0.84727 0.0
C1805 C 0.71544 0.4054 0.83747 0.0
C1806 C 0.688 0.41499 0.82898 0.0
C1807 C 0.68012 0.40243 0.83848 0.0
H1808 H 0.72913 0.40558 0.8358 0.0
H1809 H 0.6802 0.42272 0.82069 0.0
H1810 H 0.74904 0.42561 0.8019 0.0
H1811 H 0.73261 0.37837 0.78309 0.0
H1812 H 0.68939 0.47778 0.85084 0.0
H1813 H 0.71602 0.38339 0.85385 0.0
H1814 H 0.66636 0.40106 0.83811 0.0
C1815 C 0.01889 0.85491 0.28675 0.0
C1816 C -0.00091 0.87203 0.28397 0.0
N1817 N 0.98083 0.8611 0.29406 0.0
N1818 N 0.00938 0.83699 0.2982 0.0
C1819 C 0.9868 0.84026 0.30299 0.0
H1820 H 0.03202 0.856 0.28262 0.0
Co1821 Co 0.023 0.8194 0.30711 0.0
C1822 C 0.99203 0.81023 0.33167 0.0
O1823 O 0.98749 0.82375 0.34043 0.0
N1824 N 0.03629 0.80208 0.31732 0.0
C1825 C 0.04642 0.78552 0.33816 0.0
C1826 C 0.03534 0.79842 0.33421 0.0
C1827 C 0.04874 0.79173 0.31151 0.0
N1828 N 0.05478 0.78126 0.32385 0.0
O1829 O 0.01608 0.80483 0.28891 0.0
H1830 H 0.02685 0.80458 0.34316 0.0
H1831 H 0.0524 0.79072 0.29824 0.0
O1832 O 0.00423 0.81099 0.32091 0.0
C1833 C 0.02764 0.80627 0.27751 0.0
O1834 O 0.04128 0.81534 0.2811 0.0
N1835 N 0.03183 0.83411 0.32272 0.0
C1836 C 0.05278 0.85299 0.34347 0.0
C1837 C 0.03513 0.85231 0.34668 0.0
C1838 C 0.02471 0.84274 0.33595 0.0
C1839 C 0.04875 0.8358 0.31885 0.0
C1840 C 0.05962 0.84476 0.32939 0.0
H1841 H 0.0112 0.84238 0.33816 0.0
H1842 H 0.05399 0.82943 0.30781 0.0
H1843 H 0.97799 0.831 0.30804 0.0
H1844 H -0.00146 0.88316 0.2758 0.0
H1845 H 0.04735 0.7789 0.35026 0.0
H1846 H 0.02959 0.85901 0.35744 0.0
H1847 H 0.07317 0.84527 0.32661 0.0
C1848 C 0.3325 0.27769 0.52066 0.0
C1849 C 0.33826 0.27161 0.5052 0.0
N1850 N 0.33701 0.2841 0.49336 0.0
N1851 N 0.32726 0.29391 0.51866 0.0
C1852 C 0.33068 0.29754 0.50212 0.0
H1853 H 0.33136 0.27041 0.53232 0.0
Co1854 Co 0.31524 0.30773 0.53419 0.0
C1855 C 0.30198 0.3315 0.50371 0.0
O1856 O 0.31331 0.34326 0.49994 0.0
N1857 N 0.30325 0.32241 0.54916 0.0
C1858 C 0.28915 0.34632 0.55536 0.0
C1859 C 0.3035 0.33963 0.54783 0.0
C1860 C 0.28929 0.31916 0.55864 0.0
N1861 N 0.27997 0.33333 0.56173 0.0
O1862 O 0.29645 0.29218 0.53299 0.0
H1863 H 0.31215 0.34673 0.53974 0.0
H1864 H 0.28415 0.30652 0.56048 0.0
O1865 O 0.30512 0.32081 0.51559 0.0
C1866 C 0.29822 0.28123 0.54487 0.0
O1867 O 0.31083 0.28359 0.55568 0.0
N1868 N 0.33411 0.32089 0.53689 0.0
C1869 C 0.36166 0.33881 0.54877 0.0
C1870 C 0.35658 0.34057 0.53171 0.0
C1871 C 0.34269 0.33119 0.52586 0.0
C1872 C 0.33985 0.3181 0.55306 0.0
C1873 C 0.35357 0.32715 0.5594 0.0
H1874 H 0.33887 0.3323 0.51276 0.0
H1875 H 0.3332 0.30924 0.56129 0.0
H1876 H 0.32796 0.30972 0.49667 0.0
H1877 H 0.34199 0.25855 0.50265 0.0
H1878 H 0.28451 0.35924 0.55377 0.0
H1879 H 0.36297 0.34946 0.52324 0.0
H1880 H 0.3574 0.32558 0.5726 0.0
C1881 C 0.20571 0.58155 0.27401 0.0
C1882 C 0.2113 0.58819 0.25885 0.0
N1883 N 0.20743 0.57723 0.24609 0.0
N1884 N 0.19912 0.56594 0.27125 0.0
C1885 C 0.20098 0.56341 0.25431 0.0
H1886 H 0.20603 0.58791 0.28625 0.0
Co1887 Co 0.18535 0.55333 0.28607 0.0
C1888 C 0.15573 0.54699 0.26157 0.0
O1889 O 0.14334 0.55377 0.27058 0.0
N1890 N 0.16996 0.54081 0.3006 0.0
C1891 C 0.14587 0.53413 0.31475 0.0
C1892 C 0.15422 0.54639 0.30555 0.0
C1893 C 0.17056 0.52477 0.30697 0.0
N1894 N 0.15618 0.52063 0.31557 0.0
O1895 O 0.19942 0.53368 0.28164 0.0
H1896 H 0.1486 0.55857 0.30251 0.0
H1897 H 0.18105 0.51601 0.3051 0.0
O1898 O 0.17106 0.54688 0.26699 0.0
C1899 C 0.21128 0.5301 0.29222 0.0
O1900 O 0.20861 0.53308 0.30851 0.0
N1901 N 0.17404 0.57293 0.29116 0.0
C1902 C 0.15672 0.60005 0.30453 0.0
C1903 C 0.15556 0.59647 0.28704 0.0
C1904 C 0.16473 0.58287 0.28043 0.0
C1905 C 0.17721 0.57779 0.30757 0.0
C1906 C 0.16844 0.5914 0.31469 0.0
H1907 H 0.16397 0.57998 0.26698 0.0
H1908 H 0.18572 0.57026 0.31541 0.0
H1909 H 0.19749 0.55152 0.24835 0.0
H1910 H 0.21791 0.60022 0.25763 0.0
H1911 H 0.13329 0.53501 0.32042 0.0
H1912 H 0.14695 0.60354 0.27885 0.0
H1913 H 0.16981 0.59432 0.32813 0.0
C1914 C 0.20851 0.16805 0.46133 0.0
C1915 C 0.2167 0.15889 0.47387 0.0
N1916 N 0.21253 0.16537 0.48938 0.0
N1917 N 0.19956 0.18068 0.46866 0.0
C1918 C 0.20313 0.17939 0.48547 0.0
H1919 H 0.20896 0.16562 0.44775 0.0
Co1920 Co 0.18438 0.19571 0.45794 0.0
C1921 C 0.16488 0.19373 0.49251 0.0
O1922 O 0.16634 0.17742 0.49576 0.0
N1923 N 0.16819 0.21086 0.44807 0.0
C1924 C 0.14231 0.21932 0.43951 0.0
C1925 C 0.15113 0.20879 0.45035 0.0
C1926 C 0.16932 0.22334 0.43626 0.0
N1927 N 0.15382 0.22854 0.43086 0.0
O1928 O 0.20028 0.21364 0.46245 0.0
H1929 H 0.14538 0.19926 0.45853 0.0
H1930 H 0.18117 0.22807 0.43098 0.0
O1931 O 0.17165 0.20006 0.47911 0.0
C1932 C 0.20921 0.21261 0.44877 0.0
O1933 O 0.20186 0.20492 0.43588 0.0
N1934 N 0.1711 0.17745 0.45081 0.0
C1935 C 0.14997 0.1538 0.43604 0.0
C1936 C 0.1553 0.15163 0.45292 0.0
C1937 C 0.16638 0.16348 0.45998 0.0
C1938 C 0.16831 0.17789 0.43357 0.0
C1939 C 0.15731 0.16638 0.42592 0.0
H1940 H 0.17144 0.16109 0.47243 0.0
H1941 H 0.17392 0.18784 0.42583 0.0
H1942 H 0.19923 0.18898 0.49452 0.0
H1943 H 0.22546 0.14852 0.47144 0.0
H1944 H 0.12863 0.2197 0.43763 0.0
H1945 H 0.15045 0.14125 0.46069 0.0
H1946 H 0.15381 0.16787 0.41263 0.0
C1947 C 0.34257 0.4398 0.22283 0.0
C1948 C 0.3502 0.44891 0.23565 0.0
N1949 N 0.33804 0.45337 0.24689 0.0
N1950 N 0.32572 0.43795 0.22623 0.0
C1951 C 0.32342 0.44628 0.24116 0.0
H1952 H 0.34893 0.43533 0.21143 0.0
Co1953 Co 0.30981 0.42679 0.2121 0.0
C1954 C 0.29811 0.39926 0.2374 0.0
O1955 O 0.30525 0.38598 0.23013 0.0
N1956 N 0.29428 0.41467 0.19795 0.0
C1957 C 0.28166 0.39292 0.1844 0.0
C1958 C 0.29496 0.39765 0.1946 0.0
C1959 C 0.28046 0.41996 0.18919 0.0
N1960 N 0.27267 0.40698 0.18099 0.0
O1961 O 0.29301 0.44474 0.21647 0.0
H1962 H 0.30452 0.38891 0.19922 0.0
H1963 H 0.27604 0.43295 0.18888 0.0
O1964 O 0.30037 0.41435 0.2316 0.0
C1965 C 0.29721 0.45959 0.21117 0.0
O1966 O 0.31179 0.46142 0.20306 0.0
N1967 N 0.32636 0.41125 0.2065 0.0
C1968 C 0.35162 0.39173 0.19207 0.0
C1969 C 0.3482 0.39041 0.20959 0.0
C1970 C 0.33558 0.40069 0.21675 0.0
C1971 C 0.33037 0.41334 0.18968 0.0
C1972 C 0.34289 0.4035 0.18208 0.0
H1973 H 0.33353 0.40056 0.23039 0.0
H1974 H 0.32361 0.42272 0.18213 0.0
H1975 H 0.31113 0.4478 0.24728 0.0
H1976 H 0.36334 0.4532 0.23597 0.0
H1977 H 0.27846 0.38013 0.18028 0.0
H1978 H 0.35544 0.38179 0.21761 0.0
H1979 H 0.34578 0.40506 0.16864 0.0
C1980 C 0.08654 0.76725 0.19222 0.0
C1981 C 0.09537 0.75588 0.20235 0.0
N1982 N 0.084 0.7449 0.20904 0.0
N1983 N 0.06973 0.76331 0.19257 0.0
C1984 C 0.06864 0.74976 0.20318 0.0
H1985 H 0.09206 0.77769 0.18508 0.0
Co1986 Co 0.05132 0.77373 0.18105 0.0
C1987 C 0.05148 0.73761 0.16701 0.0
O1988 O 0.06719 0.7337 0.17118 0.0
N1989 N 0.03313 0.78333 0.16881 0.0
C1990 C 0.01901 0.79238 0.14595 0.0
C1991 C 0.0293 0.77977 0.1524 0.0
C1992 C 0.02449 0.79774 0.17211 0.0
N1993 N 0.01651 0.80417 0.15823 0.0
O1994 O 0.03694 0.7706 0.20052 0.0
H1995 H 0.03455 0.76927 0.14515 0.0
H1996 H 0.02393 0.80332 0.18451 0.0
O1997 O 0.04524 0.75219 0.17071 0.0
C1998 C 0.04238 0.78205 0.21087 0.0
O1999 O 0.05629 0.79052 0.20683 0.0
N2000 N 0.06518 0.78017 0.16376 0.0
C2001 C 0.08252 0.79894 0.13988 0.0
C2002 C 0.08193 0.78104 0.13861 0.0
C2003 C 0.07282 0.77175 0.15069 0.0
C2004 C 0.06609 0.79748 0.16528 0.0
C2005 C 0.07396 0.80724 0.15295 0.0
H2006 H 0.07202 0.7581 0.14954 0.0
H2007 H 0.05998 0.8038 0.17591 0.0
H2008 H 0.05683 0.74332 0.20628 0.0
H2009 H 0.10897 0.75571 0.20473 0.0
H2010 H 0.01411 0.7926 0.13311 0.0
H2011 H 0.08854 0.77439 0.12843 0.0
H2012 H 0.074 0.82103 0.154 0.0
C2013 C 0.52099 0.3516 0.27916 0.0
C2014 C 0.49923 0.36632 0.2774 0.0
N2015 N 0.4834 0.35446 0.29012 0.0
N2016 N 0.51457 0.33365 0.29276 0.0
C2017 C 0.49239 0.33515 0.29977 0.0
H2018 H 0.53323 0.35365 0.27313 0.0
Co2019 Co 0.52936 0.31609 0.29996 0.0
C2020 C 0.50096 0.30161 0.32378 0.0
O2021 O 0.50306 0.31154 0.33706 0.0
N2022 N 0.54351 0.2986 0.30815 0.0
C2023 C 0.55709 0.2831 0.32746 0.0
C2024 C 0.54333 0.29331 0.32453 0.0
C2025 C 0.55741 0.29114 0.30132 0.0
N2026 N 0.56632 0.28195 0.31295 0.0
O2027 O 0.526 0.30364 0.27939 0.0
H2028 H 0.53431 0.2974 0.3341 0.0
H2029 H 0.56078 0.29251 0.28811 0.0
O2030 O 0.51029 0.30353 0.31052 0.0
C2031 C 0.53707 0.31044 0.26958 0.0
O2032 O 0.54432 0.32444 0.27515 0.0
N2033 N 0.53572 0.32923 0.31823 0.0
C2034 C 0.55359 0.34467 0.34402 0.0
C2035 C 0.53565 0.34537 0.34383 0.0
C2036 C 0.52682 0.33779 0.3304 0.0
C2037 C 0.55305 0.33107 0.31702 0.0
C2038 C 0.56237 0.33787 0.33027 0.0
H2039 H 0.51313 0.33891 0.32972 0.0
H2040 H 0.55985 0.32619 0.30606 0.0
H2041 H 0.48518 0.3258 0.30679 0.0
H2042 H 0.4966 0.37651 0.26845 0.0
H2043 H 0.55972 0.2767 0.3394 0.0
H2044 H 0.52865 0.35156 0.35404 0.0
H2045 H 0.57619 0.33773 0.32983 0.0
C2046 C 0.45104 0.21734 0.33026 0.0
C2047 C 0.45908 0.23146 0.3367 0.0
N2048 N 0.45514 0.24523 0.32702 0.0
N2049 N 0.44235 0.22184 0.31621 0.0
C2050 C 0.44547 0.23865 0.31422 0.0
H2051 H 0.45178 0.20449 0.33526 0.0
Co2052 Co 0.42918 0.20709 0.3031 0.0
C2053 C 0.40177 0.2317 0.29126 0.0
O2054 O 0.38856 0.22413 0.29824 0.0
N2055 N 0.41539 0.19203 0.28997 0.0
C2056 C 0.39374 0.17545 0.28146 0.0
C2057 C 0.39891 0.18753 0.29302 0.0
C2058 C 0.4198 0.18252 0.27629 0.0
N2059 N 0.40689 0.17251 0.27094 0.0
O2060 O 0.44551 0.20913 0.28516 0.0
H2061 H 0.39108 0.19225 0.30334 0.0
H2062 H 0.43232 0.18251 0.27049 0.0
O2063 O 0.41684 0.22598 0.29336 0.0
C2064 C 0.45669 0.19836 0.28983 0.0
O2065 O 0.45269 0.18829 0.30268 0.0
N2066 N 0.4153 0.20391 0.32152 0.0
C2067 C 0.39903 0.19331 0.35069 0.0
C2068 C 0.39747 0.2103 0.34527 0.0
C2069 C 0.40612 0.21553 0.33061 0.0
C2070 C 0.41774 0.18771 0.32738 0.0
C2071 C 0.40953 0.18203 0.34191 0.0
H2072 H 0.40565 0.22874 0.32667 0.0
H2073 H 0.42595 0.17904 0.32047 0.0
H2074 H 0.44134 0.24547 0.30303 0.0
H2075 H 0.46794 0.23118 0.34726 0.0
H2076 H 0.38149 0.16908 0.28097 0.0
H2077 H 0.38961 0.21929 0.35226 0.0
H2078 H 0.41104 0.16893 0.34606 0.0
C2079 C 0.97033 0.18776 0.64197 0.0
C2080 C 0.98486 0.19527 0.63546 0.0
N2081 N 0.99361 0.20207 0.64857 0.0
N2082 N 0.97042 0.18913 0.65917 0.0
C2083 C 0.98484 0.19777 0.66273 0.0
H2084 H 0.96046 0.18154 0.63461 0.0
Co2085 Co 0.9554 0.18044 0.6755 0.0
C2086 C 0.98293 0.15685 0.69173 0.0
O2087 O 0.97861 0.1421 0.68511 0.0
N2088 N 0.9407 0.17116 0.69187 0.0
C2089 C 0.93014 0.15336 0.71122 0.0
C2090 C 0.94114 0.15496 0.69781 0.0
C2091 C 0.92806 0.17862 0.70076 0.0
N2092 N 0.92226 0.16841 0.71336 0.0
O2093 O 0.95838 0.20095 0.68895 0.0
H2094 H 0.94934 0.14499 0.69319 0.0
H2095 H 0.92435 0.19174 0.69914 0.0
O2096 O 0.97484 0.17049 0.68786 0.0
C2097 C 0.95065 0.21439 0.68394 0.0
O2098 O 0.94023 0.21341 0.67086 0.0
N2099 N 0.95111 0.16185 0.662 0.0
C2100 C 0.93864 0.13817 0.63954 0.0
C2101 C 0.9562 0.13892 0.64278 0.0
C2102 C 0.96229 0.15111 0.65416 0.0
C2103 C 0.93407 0.16135 0.65847 0.0
C2104 C 0.92743 0.1491 0.64779 0.0
H2105 H 0.97589 0.15275 0.65573 0.0
H2106 H 0.92555 0.17086 0.66372 0.0
H2107 H 0.98874 0.20122 0.67552 0.0
H2108 H 0.98845 0.19612 0.62214 0.0
H2109 H 0.92911 0.14249 0.7197 0.0
H2110 H 0.96508 0.13086 0.63588 0.0
H2111 H 0.9139 0.14903 0.64494 0.0
C2112 C 0.53079 0.07892 0.97183 0.0
C2113 C 0.52335 0.08479 0.98658 0.0
N2114 N 0.53268 0.07942 2e-05 0.0
N2115 N 0.54458 0.06952 0.97586 0.0
C2116 C 0.54567 0.07045 0.99302 0.0
H2117 H 0.52633 0.08122 0.95899 0.0
Co2118 Co 0.55867 0.05848 0.96029 0.0
C2119 C 0.5862 0.04613 0.98567 0.0
O2120 O 0.59934 0.05498 0.98029 0.0
N2121 N 0.57326 0.04781 0.94422 0.0
C2122 C 0.59584 0.04233 0.92772 0.0
C2123 C 0.59021 0.05044 0.94214 0.0
C2124 C 0.56899 0.03817 0.93068 0.0
N2125 N 0.58239 0.0347 0.92031 0.0
O2126 O 0.54373 0.03924 0.96085 0.0
H2127 H 0.598 0.05855 0.94998 0.0
H2128 H 0.55624 0.0337 0.92839 0.0
O2129 O 0.57157 0.04754 0.97865 0.0
C2130 C 0.5315 0.04158 0.95049 0.0
O2131 O 0.53231 0.05459 0.93993 0.0
N2132 N 0.57153 0.07769 0.95883 0.0
C2133 C 0.59247 0.10388 0.94932 0.0
C2134 C 0.59205 0.0986 0.9664 0.0
C2135 C 0.58105 0.08546 0.97105 0.0
C2136 C 0.57018 0.08431 0.9428 0.0
C2137 C 0.58095 0.09725 0.93757 0.0
H2138 H 0.58065 0.08113 0.98413 0.0
H2139 H 0.56158 0.07854 0.93369 0.0
H2140 H 0.55622 0.06525 -1e-05 0.0
H2141 H 0.51162 0.09205 0.98742 0.0
H2142 H 0.60882 0.04247 0.92316 0.0
H2143 H 0.60056 0.10412 0.97577 0.0
H2144 H 0.58083 0.10153 0.92442 0.0
C2145 C 0.40717 0.2888 0.20936 0.0
C2146 C 0.39772 0.27932 0.22075 0.0
N2147 N 0.40763 0.27611 0.23439 0.0
N2148 N 0.42278 0.29176 0.21604 0.0
C2149 C 0.42271 0.2837 0.23123 0.0
H2150 H 0.40292 0.29334 0.19704 0.0
Co2151 Co 0.4405 0.30454 0.20661 0.0
C2152 C 0.44608 0.3285 0.23646 0.0
O2153 O 0.44012 0.3419 0.22847 0.0
N2154 N 0.45854 0.31794 0.19723 0.0
C2155 C 0.47292 0.34023 0.18661 0.0
C2156 C 0.45902 0.33523 0.19591 0.0
C2157 C 0.47262 0.31283 0.18866 0.0
N2158 N 0.48151 0.32614 0.18223 0.0
O2159 O 0.45551 0.28554 0.2103 0.0
H2160 H 0.44915 0.34388 0.19995 0.0
H2161 H 0.47591 0.29962 0.18638 0.0
O2162 O 0.44616 0.31377 0.22939 0.0
C2163 C 0.45225 0.27517 0.19816 0.0
O2164 O 0.44108 0.28033 0.18675 0.0
N2165 N 0.42504 0.32127 0.20099 0.0
C2166 C 0.4022 0.3442 0.18761 0.0
C2167 C 0.4017 0.34024 0.20503 0.0
C2168 C 0.41308 0.3283 0.21148 0.0
C2169 C 0.42447 0.32383 0.18376 0.0
C2170 C 0.4134 0.3357 0.17677 0.0
H2171 H 0.41238 0.32469 0.22478 0.0
H2172 H 0.433 0.31683 0.17545 0.0
H2173 H 0.43356 0.28322 0.23976 0.0
H2174 H 0.3848 0.27475 0.21903 0.0
H2175 H 0.47607 0.35309 0.18265 0.0
H2176 H 0.39258 0.34632 0.21348 0.0
H2177 H 0.41356 0.33822 0.16318 0.0
C2178 C 0.52553 0.14819 0.28025 0.0
C2179 C 0.52073 0.12987 0.2621 0.0
N2180 N 0.53767 0.13313 0.2462 0.0
N2181 N 0.54451 0.15918 0.27236 0.0
C2182 C 0.55234 0.15039 0.25224 0.0
H2183 H 0.51943 0.14979 0.29235 0.0
Co2184 Co 0.55647 0.17581 0.28425 0.0
C2185 C 0.58162 0.18652 0.25689 0.0
O2186 O 0.59494 0.18011 0.26475 0.0
N2187 N 0.57006 0.19263 0.29577 0.0
C2188 C 0.59335 0.20564 0.3061 0.0
C2189 C 0.58654 0.19051 0.30092 0.0
C2190 C 0.56751 0.20959 0.2977 0.0
N2191 N 0.5813 0.21752 0.30426 0.0
O2192 O 0.5381 0.19147 0.28027 0.0
H2193 H 0.59403 0.17904 0.29986 0.0
H2194 H 0.55625 0.21632 0.29346 0.0
O2195 O 0.56676 0.18418 0.26312 0.0
C2196 C 0.52871 0.1957 0.29289 0.0
O2197 O 0.53463 0.19375 0.30845 0.0
N2198 N 0.57203 0.15937 0.28987 0.0
C2199 C 0.59445 0.13816 0.30647 0.0
C2200 C 0.59468 0.13929 0.28858 0.0
C2201 C 0.58311 0.14996 0.28038 0.0
C2202 C 0.57013 0.15647 0.30696 0.0
C2203 C 0.58178 0.14647 0.31573 0.0
H2204 H 0.5835 0.15106 0.26668 0.0
H2205 H 0.5604 0.1633 0.314 0.0
H2206 H 0.56262 0.15534 0.2445 0.0
H2207 H 0.50964 0.12175 0.26081 0.0
H2208 H 0.60639 0.20796 0.31003 0.0
H2209 H 0.60417 0.13251 0.28113 0.0
H2210 H 0.58124 0.14569 0.32952 0.0
C2211 C 0.4031 0.94984 0.02038 0.0
C2212 C 0.39607 0.95941 0.00748 0.0
N2213 N 0.40795 0.96136 0.99523 0.0
N2214 N 0.41921 0.94541 0.01608 0.0
C2215 C 0.42183 0.95274 0.00069 0.0
H2216 H 0.39676 0.94612 0.03207 0.0
Co2217 Co 0.43328 0.93109 0.02886 0.0
C2218 C 0.44444 0.90755 -0.00039 0.0
O2219 O 0.43462 0.89458 0.00355 0.0
N2220 N 0.44709 0.91597 0.0417 0.0
C2221 C 0.45494 0.89261 0.05606 0.0
C2222 C 0.44619 0.89871 0.04217 0.0
C2223 C 0.45661 0.91988 0.05533 0.0
N2224 N 0.46134 0.90606 0.0645 0.0
O2225 O 0.45056 0.94877 0.02916 0.0
H2226 H 0.43827 0.89095 0.03406 0.0
H2227 H 0.45944 0.93269 0.05895 0.0
O2228 O 0.44367 0.92151 0.00805 0.0
C2229 C 0.44711 0.95929 0.04117 0.0
O2230 O 0.43442 0.95563 0.05153 0.0
N2231 N 0.41553 0.91593 0.03086 0.0
C2232 C 0.38748 0.8984 0.04259 0.0
C2233 C 0.39088 0.89905 0.025 0.0
C2234 C 0.405 0.9084 0.01925 0.0
C2235 C 0.41146 0.9162 0.04779 0.0
C2236 C 0.39771 0.90723 0.05399 0.0
H2237 H 0.40712 0.91008 0.00572 0.0
H2238 H 0.41901 0.92363 0.05661 0.0
H2239 H 0.43369 0.95194 0.99368 0.0
H2240 H 0.38337 0.96485 0.00723 0.0
H2241 H 0.45541 0.87944 0.05999 0.0
H2242 H 0.38264 0.89266 0.01595 0.0
H2243 H 0.39502 0.90722 0.06757 0.0
C2244 C 0.96438 0.04409 0.5846 0.0
C2245 C 0.97563 0.03666 0.59587 0.0
N2246 N 0.99136 0.03658 0.58872 0.0
N2247 N 0.97285 0.04835 0.57027 0.0
C2248 C 0.989 0.04351 0.57309 0.0
H2249 H 0.95083 0.04591 0.58654 0.0
Co2250 Co 0.96471 0.05842 0.55045 0.0
C2251 C 0.99449 0.08328 0.54598 0.0
O2252 O 0.98557 0.09714 0.54904 0.0
N2253 N 0.95626 0.069 0.53042 0.0
C2254 C 0.95009 0.08939 0.51165 0.0
C2255 C 0.9628 0.08177 0.52083 0.0
C2256 C 0.93975 0.06841 0.52563 0.0
N2257 N 0.93529 0.08147 0.51525 0.0
O2258 O 0.97159 0.03881 0.53778 0.0
H2259 H 0.97581 0.08585 0.52037 0.0
H2260 H 0.9311 0.05867 0.53011 0.0
O2261 O 0.98729 0.06868 0.54649 0.0
C2262 C 0.96026 0.02769 0.54125 0.0
O2263 O 0.94693 0.03244 0.55029 0.0
N2264 N 0.95617 0.076 0.56339 0.0
C2265 C 0.93814 0.09734 0.5846 0.0
C2266 C 0.95599 0.09678 0.58549 0.0
C2267 C 0.96483 0.08558 0.57498 0.0
C2268 C 0.93875 0.07561 0.56356 0.0
C2269 C 0.92942 0.08683 0.57342 0.0
H2270 H 0.97839 0.08389 0.57681 0.0
H2271 H 0.93194 0.06569 0.55703 0.0
H2272 H -0.00129 0.04418 0.56329 0.0
H2273 H 0.97196 0.03125 0.60797 0.0
H2274 H 0.95189 0.09982 0.5028 0.0
H2275 H 0.96288 0.1043 0.59482 0.0
H2276 H 0.91559 0.08639 0.5733 0.0
C2277 C 0.77514 0.22965 0.07756 0.0
C2278 C 0.76243 0.23797 0.099 0.0
N2279 N 0.74936 0.2195 0.10532 0.0
N2280 N 0.76788 0.20765 0.07481 0.0
C2281 C 0.75265 0.20108 0.09118 0.0
H2282 H 0.78456 0.23634 0.07004 0.0
Co2283 Co 0.78057 0.19169 0.06236 0.0
C2284 C 0.75562 0.16784 0.04666 0.0
O2285 O 0.76423 0.1545 0.05199 0.0
N2286 N 0.79389 0.17506 0.0502 0.0
C2287 C 0.80991 0.15216 0.04383 0.0
C2288 C 0.79984 0.15978 0.05593 0.0
C2289 C 0.80037 0.17607 0.03426 0.0
N2290 N 0.81013 0.16249 0.03027 0.0
O2291 O 0.78298 0.2079 0.04424 0.0
H2292 H 0.79703 0.15415 0.0681 0.0
H2293 H 0.79849 0.18674 0.02571 0.0
O2294 O 0.75993 0.18287 0.05138 0.0
C2295 C 0.79768 0.21464 0.04593 0.0
O2296 O 0.80729 0.2084 0.05815 0.0
N2297 N 0.78021 0.17775 0.0811 0.0
C2298 C 0.79181 0.15719 0.10687 0.0
C2299 C 0.77571 0.15418 0.09968 0.0
C2300 C 0.76989 0.16495 0.08676 0.0
C2301 C 0.7948 0.18195 0.08957 0.0
C2302 C 0.80101 0.17168 0.10247 0.0
H2303 H 0.75759 0.16263 0.08105 0.0
H2304 H 0.80235 0.19266 0.08535 0.0
H2305 H 0.7453 0.18941 0.09126 0.0
H2306 H 0.76135 0.25085 0.10384 0.0
H2307 H 0.81689 0.1403 0.04501 0.0
H2308 H 0.76817 0.14322 0.10346 0.0
H2309 H 0.81331 0.17438 0.10817 0.0
C2310 C 0.2821 0.52344 0.32586 0.0
C2311 C 0.27596 0.50912 0.33388 0.0
N2312 N 0.28417 0.49525 0.32768 0.0
N2313 N 0.29379 0.51875 0.31423 0.0
C2314 C 0.29436 0.5016 0.31517 0.0
H2315 H 0.27842 0.53649 0.32846 0.0
Co2316 Co 0.30745 0.53391 0.30213 0.0
C2317 C 0.33671 0.50639 0.29685 0.0
O2318 O 0.34802 0.51019 0.30859 0.0
N2319 N 0.32147 0.54972 0.29067 0.0
C2320 C 0.35307 0.571 0.28138 0.0
C2321 C 0.34479 0.54829 0.29157 0.0
C2322 C 0.31406 0.56988 0.28166 0.0
N2323 N 0.33327 0.58223 0.27583 0.0
O2324 O 0.29413 0.52956 0.28231 0.0
H2325 H 0.35241 0.53835 0.29713 0.0
H2326 H 0.30106 0.57304 0.27834 0.0
O2327 O 0.32299 0.51517 0.29514 0.0
C2328 C 0.2813 0.53931 0.28408 0.0
O2329 O 0.28233 0.55126 0.29582 0.0
N2330 N 0.31839 0.53916 0.3218 0.0
C2331 C 0.33386 0.5523 0.35013 0.0
C2332 C 0.33473 0.53474 0.34684 0.0
C2333 C 0.32636 0.52826 0.33266 0.0
C2334 C 0.31543 0.55573 0.32627 0.0
C2335 C 0.32311 0.56268 0.34056 0.0
H2336 H 0.32638 0.5147 0.33031 0.0
H2337 H 0.30755 0.56374 0.31827 0.0
H2338 H 0.30191 0.49411 0.30649 0.0
H2339 H 0.26579 0.50908 0.34321 0.0
H2340 H 0.36589 0.57455 0.27764 0.0
H2341 H 0.34245 0.52636 0.35467 0.0
H2342 H 0.32187 0.57618 0.34325 0.0
C2343 C 0.27666 0.71393 0.91011 0.0
C2344 C 0.27011 0.72868 0.8893 0.0
N2345 N 0.28628 0.74577 0.8893 0.0
N2346 N 0.29564 0.72443 0.9187 0.0
C2347 C 0.30182 0.74324 0.90657 0.0
H2348 H 0.27062 0.70246 0.91484 0.0
Co2349 Co 0.30991 0.71317 0.93411 0.0
C2350 C 0.33636 0.74041 0.94286 0.0
O2351 O 0.34916 0.73188 0.93629 0.0
N2352 N 0.32487 0.70115 0.94938 0.0
C2353 C 0.34757 0.68625 0.95845 0.0
C2354 C 0.34153 0.69722 0.94633 0.0
C2355 C 0.32131 0.69232 0.96379 0.0
N2356 N 0.33484 0.68324 0.96937 0.0
O2357 O 0.29274 0.71628 0.95154 0.0
H2358 H 0.34889 0.7011 0.93538 0.0
H2359 H 0.30881 0.69154 0.96959 0.0
O2360 O 0.32098 0.73489 0.94145 0.0
C2361 C 0.28357 0.70295 0.95002 0.0
O2362 O 0.28979 0.69088 0.94014 0.0
N2363 N 0.32444 0.70825 0.91621 0.0
C2364 C 0.34686 0.69365 0.89343 0.0
C2365 C 0.34615 0.71143 0.89518 0.0
C2366 C 0.33457 0.7186 0.9066 0.0
C2367 C 0.32356 0.69114 0.91297 0.0
C2368 C 0.33512 0.68342 0.90199 0.0
H2369 H 0.33445 0.73223 0.90829 0.0
H2370 H 0.31479 0.68324 0.9201 0.0
H2371 H 0.31234 0.75162 0.90907 0.0
H2372 H 0.25834 0.72848 0.88209 0.0
H2373 H 0.35995 0.68011 0.95865 0.0
H2374 H 0.35497 0.71959 0.88833 0.0
H2375 H 0.33531 0.66966 0.90068 0.0
C2376 C 0.77973 0.03933 0.14529 0.0
C2377 C 0.7667 0.03002 0.13804 0.0
N2378 N 0.75665 0.02425 0.15073 0.0
N2379 N 0.77739 0.03991 0.16238 0.0
C2380 C 0.76342 0.03034 0.16527 0.0
H2381 H 0.78973 0.04598 0.13846 0.0
Co2382 Co 0.78821 0.05314 0.17878 0.0
C2383 C 0.755 0.0723 0.18911 0.0
O2384 O 0.7562 0.08602 0.17957 0.0
N2385 N 0.79861 0.06725 0.1954 0.0
C2386 C 0.80534 0.09156 0.20841 0.0
C2387 C 0.79389 0.08362 0.19812 0.0
C2388 C 0.81326 0.06568 0.20431 0.0
N2389 N 0.81791 0.08048 0.21211 0.0
O2390 O 0.78756 0.03409 0.19391 0.0
H2391 H 0.78345 0.09006 0.19211 0.0
H2392 H 0.82035 0.05389 0.205 0.0
O2393 O 0.76606 0.0604 0.18795 0.0
C2394 C 0.8006 0.02474 0.1914 0.0
O2395 O 0.81306 0.03087 0.18197 0.0
N2396 N 0.79061 0.07051 0.16338 0.0
C2397 C 0.79944 0.09835 0.14437 0.0
C2398 C 0.7826 0.0924 0.14408 0.0
C2399 C 0.77845 0.07801 0.15356 0.0
C2400 C 0.80741 0.07474 0.16165 0.0
C2401 C 0.81211 0.08917 0.15271 0.0
H2402 H 0.76559 0.07303 0.15325 0.0
H2403 H 0.81712 0.06743 0.16818 0.0
H2404 H 0.75778 0.02852 0.17776 0.0
H2405 H 0.76459 0.02787 0.12456 0.0
H2406 H 0.80409 0.10454 0.21277 0.0
H2407 H 0.77279 0.09908 0.137 0.0
H2408 H 0.8253 0.09331 0.15258 0.0
C2409 C 0.44542 0.51925 0.39575 0.0
C2410 C 0.45489 0.5053 0.3907 0.0
N2411 N 0.46047 0.49727 0.40481 0.0
N2412 N 0.44481 0.51979 0.41299 0.0
C2413 C 0.45426 0.5063 0.41808 0.0
H2414 H 0.43907 0.52814 0.38733 0.0
Co2415 Co 0.43225 0.53419 0.42737 0.0
C2416 C 0.40921 0.50932 0.44558 0.0
O2417 O 0.39507 0.51779 0.4427 0.0
N2418 N 0.41876 0.54858 0.4422 0.0
C2419 C 0.39606 0.56177 0.45366 0.0
C2420 C 0.40206 0.55287 0.43999 0.0
C2421 C 0.42243 0.55527 0.45768 0.0
N2422 N 0.40889 0.56333 0.4647 0.0
O2423 O 0.45088 0.53404 0.44291 0.0
H2424 H 0.39392 0.54872 0.42979 0.0
H2425 H 0.43438 0.55345 0.46427 0.0
O2426 O 0.42326 0.51409 0.43887 0.0
C2427 C 0.46093 0.54662 0.44099 0.0
O2428 O 0.45585 0.55965 0.43172 0.0
N2429 N 0.41573 0.53572 0.41119 0.0
C2430 C 0.39003 0.54764 0.39068 0.0
C2431 C 0.39054 0.53029 0.39528 0.0
C2432 C 0.4037 0.52447 0.40577 0.0
C2433 C 0.41655 0.55194 0.40497 0.0
C2434 C 0.40323 0.5585 0.39552 0.0
H2435 H 0.40392 0.51135 0.41001 0.0
H2436 H 0.4267 0.56033 0.40908 0.0
H2437 H 0.45613 0.5028 0.43131 0.0
H2438 H 0.45735 0.50125 0.37772 0.0
H2439 H 0.38299 0.56564 0.45596 0.0
H2440 H 0.38051 0.52162 0.39138 0.0
H2441 H 0.40312 0.57192 0.39216 0.0
C2442 C 0.58626 0.47443 0.54353 0.0
C2443 C 0.59139 0.48866 0.53456 0.0
N2444 N 0.57933 0.50077 0.53633 0.0
N2445 N 0.57097 0.47761 0.55077 0.0
C2446 C 0.56723 0.49387 0.54642 0.0
H2447 H 0.59286 0.46233 0.54414 0.0
Co2448 Co 0.55741 0.46255 0.56304 0.0
C2449 C 0.54707 0.4888 0.59021 0.0
O2450 O 0.55471 0.48251 0.6037 0.0
N2451 N 0.54366 0.44772 0.57633 0.0
C2452 C 0.53393 0.43239 0.59839 0.0
C2453 C 0.54511 0.44488 0.59337 0.0
C2454 C 0.53141 0.43674 0.57138 0.0
N2455 N 0.52517 0.42755 0.58455 0.0
O2456 O 0.53977 0.46517 0.54617 0.0
H2457 H 0.55428 0.45091 0.60167 0.0
H2458 H 0.52759 0.43489 0.55831 0.0
O2459 O 0.54808 0.4815 0.57572 0.0
C2460 C 0.54408 0.45555 0.53372 0.0
O2461 O 0.55752 0.44569 0.53546 0.0
N2462 N 0.57536 0.45822 0.57716 0.0
C2463 C 0.6022 0.44421 0.5947 0.0
C2464 C 0.59865 0.4617 0.59626 0.0
C2465 C 0.58514 0.46866 0.58697 0.0
C2466 C 0.57969 0.44156 0.57456 0.0
C2467 C 0.59291 0.43416 0.58348 0.0
H2468 H 0.58264 0.48221 0.58747 0.0
H2469 H 0.57243 0.43387 0.56571 0.0
H2470 H 0.5554 0.50019 0.54971 0.0
H2471 H 0.60261 0.48971 0.52655 0.0
H2472 H 0.53255 0.42702 0.61106 0.0
H2473 H 0.60619 0.46976 0.60457 0.0
H2474 H 0.59574 0.42072 0.58182 0.0
C2475 C 0.21922 0.83943 0.94072 0.0
C2476 C 0.23301 0.84742 0.94826 0.0
N2477 N 0.24355 0.83523 0.95424 0.0
N2478 N 0.22157 0.82234 0.94138 0.0
C2479 C 0.23619 0.82031 0.95013 0.0
H2480 H 0.20876 0.84572 0.93427 0.0
Co2481 Co 0.21091 0.80405 0.93045 0.0
C2482 C 0.24271 0.79624 0.90906 0.0
O2483 O 0.23625 0.8019 0.89467 0.0
N2484 N 0.20065 0.78537 0.91915 0.0
C2485 C 0.19367 0.76653 0.89916 0.0
C2486 C 0.2065 0.77626 0.90574 0.0
C2487 C 0.18429 0.78028 0.92078 0.0
N2488 N 0.17939 0.76933 0.90833 0.0
O2489 O 0.21348 0.79094 0.95081 0.0
H2490 H 0.21921 0.77626 0.90071 0.0
H2491 H 0.1761 0.78488 0.93086 0.0
O2492 O 0.23358 0.79639 0.92256 0.0
C2493 C 0.20134 0.79485 0.96095 0.0
O2494 O 0.18877 0.80432 0.95515 0.0
N2495 N 0.20617 0.81784 0.9118 0.0
C2496 C 0.19259 0.84137 0.88943 0.0
C2497 C 0.21022 0.84084 0.89221 0.0
C2498 C 0.21681 0.82904 0.90374 0.0
C2499 C 0.18892 0.81898 0.90961 0.0
C2500 C 0.18188 0.83011 0.89791 0.0
H2501 H 0.23017 0.82974 0.9071 0.0
H2502 H 0.18033 0.81211 0.91783 0.0
H2503 H 0.24198 0.808 0.95256 0.0
H2504 H 0.23542 0.86101 0.94871 0.0
H2505 H 0.19516 0.75757 0.8888 0.0
H2506 H 0.21866 0.84993 0.88606 0.0
H2507 H 0.16815 0.83076 0.89637 0.0
C2508 C 0.65594 0.97108 0.21744 0.0
C2509 C 0.63686 0.98885 0.2208 0.0
N2510 N 0.63871 0.00269 0.2019 0.0
N2511 N 0.6658 0.97699 0.19711 0.0
C2512 C 0.65576 -0.00437 0.18732 0.0
H2513 H 0.6595 0.96063 0.22571 0.0
Co2514 Co 0.68117 0.96191 0.18637 0.0
C2515 C 0.69737 0.9824 0.15843 0.0
O2516 O 0.69066 0.97284 0.14648 0.0
N2517 N 0.69661 0.9463 0.17525 0.0
C2518 C 0.70877 0.92845 0.15646 0.0
C2519 C 0.69469 0.93827 0.15999 0.0
C2520 C 0.71229 0.9412 0.18047 0.0
N2521 N 0.71967 0.93023 0.16946 0.0
O2522 O 0.69664 0.96469 0.20503 0.0
H2523 H 0.68396 0.93959 0.15148 0.0
H2524 H 0.7185 0.94559 0.19195 0.0
O2525 O 0.69288 0.98046 0.17409 0.0
C2526 C 0.69336 0.95264 0.21544 0.0
O2527 O 0.68212 0.9411 0.21077 0.0
N2528 N 0.66474 0.95779 0.17012 0.0
C2529 C 0.64002 0.9455 0.14852 0.0
C2530 C 0.64588 0.96225 0.14675 0.0
C2531 C 0.65809 0.96835 0.15801 0.0
C2532 C 0.65788 0.94203 0.17295 0.0
C2533 C 0.64566 0.93541 0.16201 0.0
H2534 H 0.66245 0.9813 0.15663 0.0
H2535 H 0.66259 0.93427 0.18334 0.0
H2536 H 0.66007 0.00241 0.17615 0.0
H2537 H 0.6297 0.99156 0.23231 0.0
H2538 H 0.71084 0.92058 0.1453 0.0
H2539 H 0.64115 0.97043 0.13665 0.0
H2540 H 0.64088 0.92257 0.16385 0.0
C2541 C 0.01868 0.40339 0.94231 0.0
C2542 C 0.00614 0.39557 0.95198 0.0
N2543 N 0.99325 0.40674 0.95414 0.0
N2544 N 0.01372 0.4195 0.93873 0.0
C2545 C -0.00204 0.42089 0.94562 0.0
H2546 H 0.03104 0.39811 0.93915 0.0
Co2547 Co 0.02542 0.43777 0.92865 0.0
C2548 C -0.00329 0.44261 0.90279 0.0
O2549 O 0.00439 0.43579 0.88956 0.0
N2550 N 0.03656 0.45663 0.91784 0.0
C2551 C 0.046 0.47431 0.89759 0.0
C2552 C 0.03316 0.46351 0.90238 0.0
C2553 C 0.0516 0.46383 0.92217 0.0
N2554 N 0.05808 0.47406 0.90975 0.0
O2555 O 0.01962 0.45143 0.94797 0.0
H2556 H 0.02239 0.46074 0.89447 0.0
H2557 H 0.05801 0.4611 0.93406 0.0
O2558 O 0.0042 0.44367 0.91719 0.0
C2559 C 0.03144 0.44732 0.95845 0.0
O2560 O 0.04418 0.43795 0.95287 0.0
N2561 N 0.03373 0.42358 0.91203 0.0
C2562 C 0.05276 0.40015 0.89415 0.0
C2563 C 0.03487 0.39945 0.89368 0.0
C2564 C 0.02548 0.41112 0.9032 0.0
C2565 C 0.05113 0.42357 0.91319 0.0
C2566 C 0.06097 0.41223 0.90401 0.0
H2567 H 0.01182 0.40952 0.90433 0.0
H2568 H 0.05756 0.4317 0.92217 0.0
H2569 H 0.99064 0.43261 0.94569 0.0
H2570 H 0.00689 0.38309 0.95786 0.0
H2571 H 0.04613 0.48155 0.8859 0.0
H2572 H 0.02834 0.38955 0.88657 0.0
H2573 H 0.07475 0.41245 0.90511 0.0
C2574 C 0.65953 0.77127 0.53762 0.0
C2575 C 0.65393 0.75665 0.52974 0.0
N2576 N 0.6552 0.74362 0.54087 0.0
N2577 N 0.66465 0.7674 0.55357 0.0
C2578 C 0.66057 0.75075 0.55555 0.0
H2579 H 0.66169 0.78337 0.53138 0.0
Co2580 Co 0.68079 0.77991 0.56592 0.0
C2581 C 0.69007 0.75145 0.59178 0.0
O2582 O 0.68717 0.75943 0.60624 0.0
N2583 N 0.69699 0.79273 0.57826 0.0
C2584 C 0.7175 0.80237 0.59522 0.0
C2585 C 0.70868 0.78825 0.59006 0.0
C2586 C 0.69933 0.8097 0.57634 0.0
N2587 N 0.71164 0.81609 0.58665 0.0
O2588 O 0.69752 0.77482 0.54876 0.0
H2589 H 0.71171 0.77555 0.59414 0.0
H2590 H 0.6927 0.81693 0.56676 0.0
O2591 O 0.68771 0.75895 0.57753 0.0
C2592 C 0.69797 0.786 0.537 0.0
O2593 O 0.68897 0.8 0.53903 0.0
N2594 N 0.66409 0.78621 0.58135 0.0
C2595 C 0.64099 0.80249 0.60251 0.0
C2596 C 0.64461 0.7851 0.6048 0.0
C2597 C 0.65604 0.77701 0.59372 0.0
C2598 C 0.6594 0.80264 0.5781 0.0
C2599 C 0.64804 0.81117 0.58869 0.0
H2600 H 0.65813 0.76349 0.59493 0.0
H2601 H 0.66465 0.80922 0.56718 0.0
H2602 H 0.6633 0.74341 0.56691 0.0
H2603 H 0.65114 0.75531 0.51627 0.0
H2604 H 0.72852 0.80208 0.60351 0.0
H2605 H 0.63854 0.77789 0.61492 0.0
H2606 H 0.64481 0.82438 0.58617 0.0
C2607 C 0.21996 0.90087 0.80259 0.0
C2608 C 0.23192 0.89192 0.79328 0.0
N2609 N 0.24192 0.9033 0.78527 0.0
N2610 N 0.22255 0.91786 0.80058 0.0
C2611 C 0.23595 0.9188 0.78971 0.0
H2612 H 0.21028 0.89515 0.81054 0.0
Co2613 Co 0.21176 0.93648 0.81165 0.0
C2614 C 0.24762 0.93704 0.82608 0.0
O2615 O 0.25077 0.92062 0.8253 0.0
N2616 N 0.2014 0.9547 0.82322 0.0
C2617 C 0.19591 0.97395 0.84326 0.0
C2618 C 0.20851 0.96533 0.83474 0.0
C2619 C 0.18446 0.95732 0.82493 0.0
N2620 N 0.18061 0.96875 0.83731 0.0
O2621 O 0.21677 0.95043 0.79251 0.0
H2622 H 0.22198 0.96668 0.83721 0.0
H2623 H 0.17516 0.95083 0.81718 0.0
O2624 O 0.23327 0.94305 0.82153 0.0
C2625 C 0.20431 0.95161 0.7822 0.0
O2626 O 0.18914 0.94659 0.78727 0.0
N2627 N 0.20506 0.92264 0.82915 0.0
C2628 C 0.18967 0.89819 0.84896 0.0
C2629 C 0.20602 0.90411 0.85312 0.0
C2630 C 0.21351 0.91668 0.84307 0.0
C2631 C 0.18877 0.91765 0.82565 0.0
C2632 C 0.18054 0.90576 0.83579 0.0
H2633 H 0.22617 0.92087 0.84607 0.0
H2634 H 0.18248 0.9223 0.8143 0.0
H2635 H 0.24145 0.93066 0.78526 0.0
H2636 H 0.23321 0.8782 0.79246 0.0
H2637 H 0.19805 0.98376 0.85271 0.0
H2638 H 0.21315 0.89852 0.86357 0.0
H2639 H 0.16783 0.90145 0.8325 0.0
C2640 C 0.54951 0.65211 0.77268 0.0
C2641 C 0.54269 0.64225 0.75977 0.0
N2642 N 0.53841 0.65254 0.74656 0.0
N2643 N 0.54926 0.66861 0.76789 0.0
C2644 C 0.5419 0.6684 0.75234 0.0
H2645 H 0.55451 0.64741 0.78464 0.0
Co2646 Co 0.55845 0.68829 0.77796 0.0
C2647 C 0.57693 0.68587 0.7441 0.0
O2648 O 0.57794 0.66914 0.74388 0.0
N2649 N 0.56831 0.70778 0.78755 0.0
C2650 C 0.58863 0.72667 0.79332 0.0
C2651 C 0.58083 0.71747 0.7807 0.0
C2652 C 0.56866 0.71159 0.80432 0.0
N2653 N 0.58128 0.72273 0.80838 0.0
O2654 O 0.5387 0.70083 0.77057 0.0
H2655 H 0.58487 0.71741 0.76752 0.0
H2656 H 0.56 0.70583 0.81338 0.0
O2657 O 0.56993 0.69351 0.75666 0.0
C2658 C 0.5267 0.70076 0.7816 0.0
O2659 O 0.52984 0.69467 0.79689 0.0
N2660 N 0.57641 0.67603 0.78696 0.0
C2661 C 0.60097 0.66027 0.80706 0.0
C2662 C 0.60455 0.66513 0.79012 0.0
C2663 C 0.59238 0.67368 0.78059 0.0
C2664 C 0.57264 0.6715 0.80334 0.0
C2665 C 0.5849 0.6641 0.81382 0.0
H2666 H 0.59619 0.67872 0.76849 0.0
H2667 H 0.56012 0.67428 0.80846 0.0
H2668 H 0.53923 0.67987 0.74522 0.0
H2669 H 0.54136 0.62863 0.76054 0.0
H2670 H 0.59887 0.73566 0.79127 0.0
H2671 H 0.61676 0.66249 0.78418 0.0
H2672 H 0.5817 0.66164 0.82698 0.0
C2673 C 0.40132 0.80056 0.7175 0.0
C2674 C 0.39223 0.79355 0.73081 0.0
N2675 N 0.40284 0.79102 0.74419 0.0
N2676 N 0.41777 0.80232 0.72208 0.0
C2677 C 0.4183 0.79583 0.73807 0.0
H2678 H 0.39622 0.80355 0.70506 0.0
Co2679 Co 0.43618 0.81013 0.70842 0.0
C2680 C 0.44105 0.83047 0.74084 0.0
O2681 O 0.42488 0.8325 0.74475 0.0
N2682 N 0.45407 0.81772 0.69499 0.0
C2683 C 0.47909 0.82749 0.68616 0.0
C2684 C 0.46732 0.82794 0.69911 0.0
C2685 C 0.45764 0.81196 0.6792 0.0
N2686 N 0.47311 0.81715 0.67384 0.0
O2687 O 0.44947 0.79081 0.71509 0.0
H2688 H 0.46902 0.83442 0.71115 0.0
H2689 H 0.44993 0.80266 0.67253 0.0
O2690 O 0.44544 0.82269 0.72731 0.0
C2691 C 0.44481 0.77953 0.70452 0.0
O2692 O 0.43208 0.78367 0.69441 0.0
N2693 N 0.42322 0.82767 0.70005 0.0
C2694 C 0.39995 0.84816 0.68369 0.0
C2695 C 0.40822 0.85396 0.69844 0.0
C2696 C 0.42021 0.84357 0.70631 0.0
C2697 C 0.41645 0.82264 0.68482 0.0
C2698 C 0.40488 0.83285 0.67621 0.0
H2699 H 0.42668 0.84829 0.71739 0.0
H2700 H 0.41952 0.81021 0.67972 0.0
H2701 H 0.42995 0.794 0.745 0.0
H2702 H 0.37896 0.79025 0.7299 0.0
H2703 H 0.49169 0.83317 0.68637 0.0
H2704 H 0.40494 0.86613 0.70413 0.0
H2705 H 0.39893 0.82832 0.66459 0.0
C2706 C 0.02303 0.89454 0.44768 0.0
C2707 C 0.0106 0.88514 0.4559 0.0
N2708 N -0.00416 0.89414 0.45602 0.0
N2709 N 0.01644 0.90965 0.44296 0.0
C2710 C 0.00018 0.90909 0.44858 0.0
H2711 H 0.03624 0.89091 0.44605 0.0
Co2712 Co 0.02774 0.92843 0.43324 0.0
C2713 C 0.99267 0.93329 0.41546 0.0
O2714 O 0.98739 0.91765 0.41259 0.0
N2715 N 0.03873 0.94699 0.42332 0.0
C2716 C 0.04412 0.97076 0.40893 0.0
C2717 C 0.03275 0.95771 0.41117 0.0
C2718 C 0.05419 0.95321 0.42742 0.0
N2719 N 0.05741 0.96804 0.41939 0.0
O2720 O 0.0224 0.94165 0.45296 0.0
H2721 H 0.02062 0.95669 0.40474 0.0
H2722 H 0.06233 0.94787 0.43719 0.0
O2723 O 0.00695 0.93604 0.42262 0.0
C2724 C 0.03496 0.93853 0.46274 0.0
O2725 O 0.04631 0.92774 0.45693 0.0
N2726 N 0.03518 0.91542 0.41553 0.0
C2727 C 0.05423 0.89598 0.39341 0.0
C2728 C 0.03724 0.90013 0.38944 0.0
C2729 C 0.02784 0.91018 0.40074 0.0
C2730 C 0.05177 0.91162 0.41922 0.0
C2731 C 0.06168 0.90217 0.40817 0.0
H2732 H 0.01495 0.91363 0.39758 0.0
H2733 H 0.05749 0.91609 0.43085 0.0
H2734 H 0.9918 0.91984 0.44814 0.0
H2735 H 0.01304 0.87307 0.46198 0.0
H2736 H 0.04228 0.98199 0.40107 0.0
H2737 H 0.03136 0.89554 0.3778 0.0
H2738 H 0.07482 0.89928 0.41133 0.0
C2739 C 0.6503 0.46302 0.70037 0.0
C2740 C 0.64093 0.47422 0.71034 0.0
N2741 N 0.65099 0.48763 0.71409 0.0
N2742 N 0.66604 0.46958 0.69778 0.0
C2743 C 0.66598 0.48445 0.7064 0.0
H2744 H 0.64563 0.45135 0.69468 0.0
Co2745 Co 0.68381 0.46341 0.68305 0.0
C2746 C 0.68245 0.50098 0.66724 0.0
O2747 O 0.6677 0.50812 0.66376 0.0
N2748 N 0.70135 0.4581 0.66772 0.0
C2749 C 0.71503 0.45508 0.64291 0.0
C2750 C 0.7018 0.46309 0.65116 0.0
C2751 C 0.71443 0.44706 0.66921 0.0
N2752 N 0.72298 0.44519 0.65438 0.0
O2753 O 0.69997 0.47006 0.70015 0.0
H2754 H 0.69251 0.47131 0.64518 0.0
H2755 H 0.71726 0.43996 0.68066 0.0
O2756 O 0.68302 0.48603 0.67353 0.0
C2757 C 0.70202 0.4572 0.70994 0.0
O2758 O 0.69429 0.44288 0.70584 0.0
N2759 N 0.66856 0.45504 0.6675 0.0
C2760 C 0.65052 0.43843 0.64245 0.0
C2761 C 0.64818 0.45597 0.64512 0.0
C2762 C 0.65736 0.46413 0.65787 0.0
C2763 C 0.67029 0.43782 0.66563 0.0
C2764 C 0.66155 0.4292 0.65287 0.0
H2765 H 0.65559 0.47761 0.65986 0.0
H2766 H 0.67909 0.4309 0.67369 0.0
H2767 H 0.67648 0.49332 0.70632 0.0
H2768 H 0.62769 0.47291 0.71408 0.0
H2769 H 0.71838 0.45613 0.62954 0.0
H2770 H 0.63944 0.46327 0.63726 0.0
H2771 H 0.66343 0.41563 0.65108 0.0
C2772 C 0.64138 0.26983 0.04073 0.0
C2773 C 0.62549 0.24895 0.03897 0.0
N2774 N 0.63855 0.23129 0.04733 0.0
N2775 N 0.66094 0.26133 0.05005 0.0
C2776 C 0.65975 0.23848 0.05431 0.0
H2777 H 0.63884 0.283 0.0375 0.0
Co2778 Co 0.67783 0.27553 0.05942 0.0
C2779 C 0.68629 0.24411 0.08346 0.0
O2780 O 0.67182 0.23681 0.08777 0.0
N2781 N 0.69485 0.28915 0.07021 0.0
C2782 C 0.70909 0.3 0.09245 0.0
C2783 C 0.69554 0.29023 0.08751 0.0
C2784 C 0.70867 0.29816 0.06499 0.0
N2785 N 0.71735 0.30482 0.07831 0.0
O2786 O 0.69291 0.2693 0.04105 0.0
H2787 H 0.68706 0.2838 0.09625 0.0
H2788 H 0.71271 0.2995 0.05187 0.0
O2789 O 0.68649 0.25717 0.07372 0.0
C2790 C 0.69265 0.28125 0.02991 0.0
O2791 O 0.68559 0.29589 0.03407 0.0
N2792 N 0.66201 0.28364 0.07506 0.0
C2793 C 0.64095 0.30312 0.09567 0.0
C2794 C 0.64394 0.28589 0.09953 0.0
C2795 C 0.65447 0.2762 0.08886 0.0
C2796 C 0.65828 0.30006 0.07065 0.0
C2797 C 0.64784 0.31013 0.08085 0.0
H2798 H 0.65689 0.2631 0.09199 0.0
H2799 H 0.66402 0.30555 0.05935 0.0
H2800 H 0.67062 0.23023 0.0563 0.0
H2801 H 0.61361 0.24785 0.03204 0.0
H2802 H 0.71301 0.30281 0.10539 0.0
H2803 H 0.63846 0.28014 0.11086 0.0
H2804 H 0.64552 0.32334 0.07748 0.0
C2805 C 0.28459 0.02516 0.83488 0.0
C2806 C 0.27944 0.01014 0.84222 0.0
N2807 N 0.28365 -0.0029 0.83175 0.0
N2808 N 0.29119 0.02197 0.81933 0.0
C2809 C 0.28986 0.00491 0.81757 0.0
H2810 H 0.28398 0.0376 0.8408 0.0
Co2811 Co 0.30472 0.03677 0.8064 0.0
C2812 C 0.33282 0.01191 0.7954 0.0
O2813 O 0.34611 0.02061 0.80065 0.0
N2814 N 0.31965 0.05147 0.79375 0.0
C2815 C 0.34314 0.06612 0.78624 0.0
C2816 C 0.33546 0.05669 0.79878 0.0
C2817 C 0.3183 0.05789 0.77781 0.0
N2818 N 0.33232 0.06668 0.77313 0.0
O2819 O 0.28951 0.03396 0.78761 0.0
H2820 H 0.34162 0.05356 0.81067 0.0
H2821 H 0.30758 0.05579 0.7694 0.0
O2822 O 0.31773 0.01752 0.79776 0.0
C2823 C 0.27828 0.04542 0.78487 0.0
O2824 O 0.28159 0.06124 0.78932 0.0
N2825 N 0.31724 0.04039 0.82528 0.0
C2826 C 0.33457 0.05323 0.8525 0.0
C2827 C 0.33721 0.03623 0.84749 0.0
C2828 C 0.32798 0.02981 0.83382 0.0
C2829 C 0.31306 0.05614 0.83138 0.0
C2830 C 0.32165 0.06291 0.84518 0.0
H2831 H 0.32981 0.01677 0.82977 0.0
H2832 H 0.30361 0.06374 0.8248 0.0
H2833 H 0.29358 -0.00157 0.806 0.0
H2834 H 0.2729 0.00927 0.85431 0.0
H2835 H 0.35566 0.07195 0.78659 0.0
H2836 H 0.34688 0.02841 0.85352 0.0
H2837 H 0.31926 0.07593 0.84916 0.0
C2838 C 0.97167 0.53342 0.09178 0.0
C2839 C 0.9866 0.52715 0.09847 0.0
N2840 N -0.00017 0.53169 0.08826 0.0
N2841 N 0.97517 0.54143 0.07706 0.0
C2842 C 0.99218 0.53963 0.07492 0.0
H2843 H 0.95905 0.53222 0.09726 0.0
Co2844 Co 0.95993 0.55397 0.06401 0.0
C2845 C 0.98701 0.58083 0.05213 0.0
O2846 O 0.98168 0.59413 0.06078 0.0
N2847 N 0.94452 0.56745 0.05116 0.0
C2848 C 0.93441 0.58879 0.0354 0.0
C2849 C 0.94504 0.58449 0.04856 0.0
C2850 C 0.93162 0.56227 0.0412 0.0
N2851 N 0.9265 0.57455 0.03019 0.0
O2852 O 0.96181 0.53721 0.04607 0.0
H2853 H 0.95297 0.59334 0.05524 0.0
H2854 H 0.92774 0.5492 0.04033 0.0
O2855 O 0.97934 0.56649 0.05353 0.0
C2856 C 0.95179 0.52485 0.04953 0.0
O2857 O 0.94185 0.52611 0.06298 0.0
N2858 N 0.95633 0.56819 0.08194 0.0
C2859 C 0.94095 0.59083 0.10349 0.0
C2860 C 0.9587 0.59158 0.10096 0.0
C2861 C 0.96638 0.57956 0.09028 0.0
C2862 C 0.93973 0.56576 0.08655 0.0
C2863 C 0.93158 0.57726 0.09707 0.0
H2864 H 0.97999 0.57984 0.08812 0.0
H2865 H 0.93238 0.55567 0.08067 0.0
H2866 H -0.00144 0.54353 0.06337 0.0
H2867 H 0.98726 0.51925 0.10974 0.0
H2868 H 0.93412 0.60096 0.02885 0.0
H2869 H 0.96624 0.60176 0.10645 0.0
H2870 H 0.91795 0.57625 0.09924 0.0
C2871 C 0.2959 0.21197 0.40357 0.0
C2872 C 0.28549 0.22299 0.39451 0.0
N2873 N 0.28051 0.23539 0.40527 0.0
N2874 N 0.29735 0.21763 0.41982 0.0
C2875 C 0.28737 0.23156 0.42048 0.0
H2876 H 0.30236 0.20088 0.39851 0.0
Co2877 Co 0.31077 0.2101 0.4379 0.0
C2878 C 0.32168 0.24808 0.43557 0.0
O2879 O 0.31758 0.25143 0.41967 0.0
N2880 N 0.3247 0.20268 0.45573 0.0
C2881 C 0.34928 0.19755 0.469 0.0
C2882 C 0.34015 0.2092 0.45969 0.0
C2883 C 0.32472 0.1871 0.46293 0.0
N2884 N 0.3397 0.18342 0.47072 0.0
O2885 O 0.29203 0.21442 0.45309 0.0
H2886 H 0.3452 0.22101 0.45489 0.0
H2887 H 0.31424 0.17822 0.46165 0.0
O2888 O 0.31939 0.23325 0.44197 0.0
C2889 C 0.28203 0.2016 0.45275 0.0
O2890 O 0.28781 0.18806 0.44476 0.0
N2891 N 0.32793 0.2041 0.42308 0.0
C2892 C 0.35274 0.18964 0.40279 0.0
C2893 C 0.35046 0.20736 0.403 0.0
C2894 C 0.33799 0.21441 0.4134 0.0
C2895 C 0.32956 0.18677 0.4224 0.0
C2896 C 0.34242 0.17923 0.41283 0.0
H2897 H 0.3364 0.22796 0.41337 0.0
H2898 H 0.32092 0.17874 0.42956 0.0
H2899 H 0.28572 0.2393 0.43181 0.0
H2900 H 0.28219 0.22223 0.38112 0.0
H2901 H 0.36219 0.19931 0.47341 0.0
H2902 H 0.35832 0.21564 0.39517 0.0
H2903 H 0.34399 0.1655 0.41294 0.0
C2904 C 0.54762 0.59761 0.46603 0.0
C2905 C 0.53788 0.60392 0.4793 0.0
N2906 N 0.53548 0.59121 0.49063 0.0
N2907 N 0.5512 0.58104 0.46912 0.0
C2908 C 0.54364 0.57758 0.4842 0.0
H2909 H 0.55133 0.60444 0.45461 0.0
Co2910 Co 0.56264 0.56501 0.45583 0.0
C2911 C 0.58548 0.55335 0.4863 0.0
O2912 O 0.60065 0.55952 0.48272 0.0
N2913 N 0.57466 0.54868 0.44317 0.0
C2914 C 0.59373 0.52855 0.43724 0.0
C2915 C 0.59121 0.54414 0.44486 0.0
C2916 C 0.56791 0.53658 0.43319 0.0
N2917 N 0.57888 0.52369 0.43016 0.0
O2918 O 0.54394 0.54962 0.4587 0.0
H2919 H 0.60052 0.55093 0.45235 0.0
H2920 H 0.55461 0.53609 0.43 0.0
O2921 O 0.57293 0.55595 0.4763 0.0
C2922 C 0.53184 0.55486 0.44921 0.0
O2923 O 0.53445 0.56862 0.43995 0.0
N2924 N 0.57918 0.58036 0.45106 0.0
C2925 C 0.6001 0.60443 0.43672 0.0
C2926 C 0.5999 0.60213 0.45451 0.0
C2927 C 0.58906 0.58993 0.46158 0.0
C2928 C 0.57877 0.58313 0.43387 0.0
C2929 C 0.58956 0.59477 0.42632 0.0
H2930 H 0.58812 0.58857 0.47526 0.0
H2931 H 0.56989 0.57613 0.42596 0.0
H2932 H 0.54339 0.56504 0.49 0.0
H2933 H 0.53221 0.61648 0.48014 0.0
H2934 H 0.60503 0.52068 0.43831 0.0
H2935 H 0.60792 0.60979 0.46275 0.0
H2936 H 0.58948 0.59648 0.41259 0.0
C2937 C 0.4053 0.44574 0.52411 0.0
C2938 C 0.39698 0.45656 0.51289 0.0
N2939 N 0.40875 0.46308 0.50221 0.0
N2940 N 0.42218 0.4457 0.52046 0.0
C2941 C 0.42379 0.45672 0.50734 0.0
H2942 H 0.39932 0.43807 0.53392 0.0
Co2943 Co 0.44038 0.43235 0.5282 0.0
C2944 C 0.43592 0.42153 0.4908 0.0
O2945 O 0.42037 0.42719 0.48827 0.0
N2946 N 0.45864 0.41827 0.53529 0.0
C2947 C 0.47617 0.39595 0.53696 0.0
C2948 C 0.46599 0.40544 0.52637 0.0
C2949 C 0.46457 0.41608 0.55129 0.0
N2950 N 0.47509 0.40243 0.55285 0.0
O2951 O 0.45541 0.45134 0.52395 0.0
H2952 H 0.46382 0.40256 0.51308 0.0
H2953 H 0.46102 0.42426 0.56176 0.0
O2954 O 0.44331 0.42346 0.50521 0.0
C2955 C 0.45778 0.46018 0.53746 0.0
O2956 O 0.45475 0.45304 0.5523 0.0
N2957 N 0.42587 0.41529 0.53458 0.0
C2958 C 0.40756 0.39024 0.551 0.0
C2959 C 0.40857 0.39045 0.53314 0.0
C2960 C 0.41809 0.40303 0.52509 0.0
C2961 C 0.42435 0.41562 0.55191 0.0
C2962 C 0.41578 0.40276 0.56051 0.0
H2963 H 0.41919 0.40269 0.51146 0.0
H2964 H 0.43038 0.42571 0.5591 0.0
H2965 H 0.43571 0.45935 0.50086 0.0
H2966 H 0.38343 0.45921 0.5124 0.0
H2967 H 0.48381 0.38523 0.53292 0.0
H2968 H 0.40225 0.38078 0.52555 0.0
H2969 H 0.41533 0.40273 0.57433 0.0
C2970 C 0.76217 0.70217 0.59848 0.0
C2971 C 0.74009 0.70056 0.61266 0.0
N2972 N 0.7249 0.69003 0.59817 0.0
N2973 N 0.75671 0.69218 0.57819 0.0
C2974 C 0.73473 0.68454 0.57749 0.0
H2975 H 0.77447 0.70728 0.60204 0.0
Co2976 Co 0.77376 0.68563 0.5631 0.0
C2977 C 0.75232 0.65647 0.54663 0.0
O2978 O 0.75937 0.64293 0.55348 0.0
N2979 N 0.79111 0.6778 0.54798 0.0
C2980 C 0.80635 0.65915 0.53279 0.0
C2981 C 0.79489 0.66107 0.54579 0.0
C2982 C 0.80164 0.68583 0.53695 0.0
N2983 N 0.81061 0.67474 0.52714 0.0
O2984 O 0.76802 0.7043 0.54866 0.0
H2985 H 0.78924 0.65065 0.55275 0.0
H2986 H 0.80191 0.6995 0.53521 0.0
O2987 O 0.75746 0.67151 0.55035 0.0
C2988 C 0.77715 0.71726 0.55227 0.0
O2989 O 0.79012 0.71528 0.56271 0.0
N2990 N 0.78043 0.66964 0.57842 0.0
C2991 C 0.79737 0.6495 0.60134 0.0
C2992 C 0.78029 0.64592 0.59727 0.0
C2993 C 0.77178 0.65654 0.58584 0.0
C2994 C 0.79639 0.67411 0.58368 0.0
C2995 C 0.80534 0.66392 0.59487 0.0
H2996 H 0.75849 0.65434 0.58296 0.0
H2997 H 0.80244 0.6854 0.57854 0.0
H2998 H 0.72814 0.67988 0.56633 0.0
H2999 H 0.73705 0.70701 0.62449 0.0
H3000 H 0.81039 0.64715 0.52724 0.0
H3001 H 0.77382 0.63496 0.60268 0.0
H3002 H 0.8184 0.66703 0.59817 0.0
C3003 C 0.77695 0.5277 0.65459 0.0
C3004 C 0.76282 0.51819 0.6502 0.0
N3005 N 0.74888 0.5274 0.65407 0.0
N3006 N 0.77181 0.54259 0.66165 0.0
C3007 C 0.75464 0.54225 0.66035 0.0
H3008 H 0.78998 0.52319 0.65426 0.0
Co3009 Co 0.7845 0.55673 0.67617 0.0
C3010 C 0.75294 0.58048 0.68488 0.0
O3011 O 0.75606 0.59539 0.67786 0.0
N3012 N 0.79713 0.57128 0.69063 0.0
C3013 C 0.80531 0.59173 0.70834 0.0
C3014 C 0.79345 0.58702 0.69647 0.0
C3015 C 0.81215 0.56759 0.69802 0.0
N3016 N 0.81692 0.57912 0.70994 0.0
O3017 O 0.78124 0.54042 0.69431 0.0
H3018 H 0.78243 0.59443 0.69325 0.0
H3019 H 0.81905 0.55615 0.69526 0.0
O3020 O 0.76368 0.56832 0.68334 0.0
C3021 C 0.79385 0.53034 0.69256 0.0
O3022 O 0.80458 0.53419 0.68028 0.0
N3023 N 0.78956 0.57078 0.65863 0.0
C3024 C 0.80567 0.59468 0.63898 0.0
C3025 C 0.78774 0.59446 0.63999 0.0
C3026 C 0.77976 0.58211 0.64997 0.0
C3027 C 0.80668 0.56948 0.65576 0.0
C3028 C 0.81518 0.58174 0.64641 0.0
H3029 H 0.76606 0.58196 0.6512 0.0
H3030 H 0.81402 0.55972 0.66214 0.0
H3031 H 0.74616 0.55159 0.66586 0.0
H3032 H 0.76275 0.50498 0.64616 0.0
H3033 H 0.80402 0.60259 0.71678 0.0
H3034 H 0.78014 0.60423 0.63381 0.0
H3035 H 0.82899 0.58158 0.64566 0.0
C3036 C 0.44858 0.0198 0.89212 0.0
C3037 C 0.45764 0.00621 0.88568 0.0
N3038 N 0.4583 0.99364 0.89756 0.0
N3039 N 0.44398 0.01628 0.90826 0.0
C3040 C 0.45017 0.00054 0.91127 0.0
H3041 H 0.44648 0.03191 0.88584 0.0
Co3042 Co 0.43307 0.03055 0.92375 0.0
C3043 C 0.40619 0.00364 0.93558 0.0
O3044 O 0.3925 0.00883 0.92748 0.0
N3045 N 0.42127 0.0447 0.93935 0.0
C3046 C 0.39955 0.05508 0.95464 0.0
C3047 C 0.40406 0.04632 0.94022 0.0
C3048 C 0.42689 0.0534 0.953 0.0
N3049 N 0.41396 0.05937 0.96274 0.0
O3050 O 0.45088 0.02609 0.93975 0.0
H3051 H 0.39513 0.04048 0.93156 0.0
H3052 H 0.4401 0.05389 0.95687 0.0
O3053 O 0.42049 0.0113 0.93373 0.0
C3054 C 0.46307 0.03673 0.93841 0.0
O3055 O 0.46086 0.05038 0.92891 0.0
N3056 N 0.4175 0.03616 0.90751 0.0
C3057 C 0.39263 0.05125 0.88837 0.0
C3058 C 0.39368 0.03337 0.88914 0.0
C3059 C 0.40663 0.02593 0.89872 0.0
C3060 C 0.41819 0.0533 0.90456 0.0
C3061 C 0.40534 0.06129 0.89557 0.0
H3062 H 0.40757 0.01221 0.8997 0.0
H3063 H 0.42792 0.06095 0.91066 0.0
H3064 H 0.44974 0.99497 0.92386 0.0
H3065 H 0.46435 0.00655 0.87366 0.0
H3066 H 0.38676 0.05666 0.95964 0.0
H3067 H 0.38417 0.0254 0.88308 0.0
H3068 H 0.40492 0.07509 0.8948 0.0
C3069 C 0.57735 0.96075 0.0331 0.0
C3070 C 0.58736 0.97121 0.02332 0.0
N3071 N 0.58382 0.98768 0.02718 0.0
N3072 N 0.56697 0.97031 0.04281 0.0
C3073 C 0.57076 0.98656 0.0386 0.0
H3074 H 0.57748 0.94695 0.03305 0.0
Co3075 Co 0.55231 0.96029 0.05845 0.0
C3076 C 0.5456 0.98853 0.08421 0.0
O3077 O 0.55392 0.98069 0.0964 0.0
N3078 N 0.53764 0.94939 0.07465 0.0
C3079 C 0.52837 0.93675 0.09861 0.0
C3080 C 0.54114 0.94617 0.09134 0.0
C3081 C 0.5224 0.94172 0.07224 0.0
N3082 N 0.51666 0.93408 0.08655 0.0
O3083 O 0.53434 0.9631 0.04236 0.0
H3084 H 0.55256 0.94986 0.09799 0.0
H3085 H 0.51577 0.94117 0.06016 0.0
O3086 O 0.54574 0.9826 0.06892 0.0
C3087 C 0.53475 0.9502 0.03252 0.0
O3088 O 0.54363 0.93699 0.0379 0.0
N3089 N 0.57084 0.95606 0.07212 0.0
C3090 C 0.59605 0.94449 0.09342 0.0
C3091 C 0.59436 0.96202 0.09027 0.0
C3092 C 0.5818 0.9676 0.07901 0.0
C3093 C 0.5741 0.93897 0.07307 0.0
C3094 C 0.58649 0.9328 0.08408 0.0
H3095 H 0.5803 0.98108 0.07649 0.0
H3096 H 0.56612 0.93008 0.06618 0.0
H3097 H 0.56368 -0.00268 0.04345 0.0
H3098 H 0.596 0.9665 0.01373 0.0
H3099 H 0.52789 0.93181 0.11151 0.0
H3100 H 0.60213 0.97124 0.09701 0.0
H3101 H 0.5879 0.91919 0.08603 0.0
C3102 C 0.2132 0.32335 0.45997 0.0
C3103 C 0.22572 0.32912 0.47076 0.0
N3104 N 0.24085 0.32771 0.46275 0.0
N3105 N 0.2204 0.31786 0.44532 0.0
C3106 C 0.23717 0.32154 0.44705 0.0
H3107 H 0.19984 0.32219 0.46314 0.0
Co3108 Co 0.20915 0.30434 0.42912 0.0
C3109 C 0.24303 0.29776 0.40749 0.0
O3110 O 0.24292 0.30797 0.3942 0.0
N3111 N 0.19805 0.29109 0.4125 0.0
C3112 C 0.18793 0.28317 0.38707 0.0
C3113 C 0.20065 0.29191 0.39543 0.0
C3114 C 0.18383 0.28165 0.41416 0.0
N3115 N 0.17732 0.27681 0.39895 0.0
O3116 O 0.21173 0.28512 0.44386 0.0
H3117 H 0.21045 0.29942 0.3893 0.0
H3118 H 0.17786 0.27881 0.42625 0.0
O3119 O 0.23038 0.2983 0.41777 0.0
C3120 C 0.19926 0.28484 0.45423 0.0
O3121 O 0.1866 0.29553 0.45161 0.0
N3122 N 0.2047 0.32314 0.41645 0.0
C3123 C 0.1906 0.34861 0.39706 0.0
C3124 C 0.20841 0.34666 0.39773 0.0
C3125 C 0.21534 0.33379 0.40785 0.0
C3126 C 0.18753 0.3259 0.41701 0.0
C3127 C 0.18009 0.33842 0.40708 0.0
H3128 H 0.22899 0.33229 0.4087 0.0
H3129 H 0.17948 0.31769 0.42467 0.0
H3130 H 0.2468 0.31824 0.43771 0.0
H3131 H 0.22401 0.33304 0.48391 0.0
H3132 H 0.18622 0.28248 0.37341 0.0
H3133 H 0.21673 0.35475 0.3902 0.0
H3134 H 0.16633 0.33982 0.40682 0.0
C3135 C 0.2201 0.39817 0.30081 0.0
C3136 C 0.23252 0.38898 0.29239 0.0
N3137 N 0.24304 0.40016 0.28476 0.0
N3138 N 0.22291 0.41509 0.29861 0.0
C3139 C 0.237 0.41577 0.28866 0.0
H3140 H 0.20988 0.39267 0.30825 0.0
Co3141 Co 0.21166 0.43387 0.30863 0.0
C3142 C 0.24716 0.43557 0.32423 0.0
O3143 O 0.25038 0.41913 0.32452 0.0
N3144 N 0.20081 0.45224 0.31917 0.0
C3145 C 0.19474 0.47145 0.339 0.0
C3146 C 0.20758 0.46309 0.33069 0.0
C3147 C 0.18381 0.45462 0.3205 0.0
N3148 N 0.17963 0.46598 0.33283 0.0
O3149 O 0.21655 0.44745 0.28898 0.0
H3150 H 0.22096 0.46471 0.3334 0.0
H3151 H 0.17476 0.4478 0.31271 0.0
O3152 O 0.23299 0.44122 0.31867 0.0
C3153 C 0.20443 0.44736 0.27817 0.0
O3154 O 0.19044 0.43881 0.28166 0.0
N3155 N 0.2049 0.42065 0.32672 0.0
C3156 C 0.18862 0.39944 0.34949 0.0
C3157 C 0.20492 0.40576 0.35318 0.0
C3158 C 0.21285 0.41662 0.3416 0.0
C3159 C 0.18874 0.41512 0.3234 0.0
C3160 C 0.18013 0.40475 0.33484 0.0
H3161 H 0.22534 0.42126 0.34451 0.0
H3162 H 0.18272 0.41847 0.31145 0.0
H3163 H 0.24273 0.42754 0.28425 0.0
H3164 H 0.23365 0.37523 0.29173 0.0
H3165 H 0.19655 0.48126 0.34854 0.0
H3166 H 0.21164 0.40183 0.3646 0.0
H3167 H 0.16752 0.4 0.33179 0.0
C3168 C 0.07025 0.98729 0.44094 0.0
C3169 C 0.06964 0.98082 0.42396 0.0
C3170 C 0.08484 0.0059 0.41349 0.0
C3171 C 0.08449 0.01238 0.43022 0.0
N3172 N 0.08446 0.00732 0.45995 0.0
N3173 N 0.08095 0.98106 0.39541 0.0
C3174 C 0.08021 0.00191 0.44402 0.0
C3175 C 0.07876 0.98911 0.41068 0.0
N3176 N 0.0596 0.98135 0.45343 0.0
N3177 N 0.08998 0.01616 0.40039 0.0
H3178 H 0.07655 0.96864 0.39338 0.0
H3179 H 0.0883 0.98603 0.3855 0.0
H3180 H 0.09473 0.02842 0.40256 0.0
H3181 H 0.08896 0.01277 0.38759 0.0
H3182 H 0.05849 0.9871 0.46536 0.0
H3183 H 0.05021 0.97223 0.45151 0.0
H3184 H 0.08249 0.00018 0.47102 0.0
H3185 H 0.08249 0.00018 0.47102 0.0
C3186 C 0.00125 0.33944 0.68167 0.0
C3187 C 0.98558 0.33444 0.67445 0.0
C3188 C 0.00047 0.31889 0.65195 0.0
C3189 C 0.01559 0.32085 0.66149 0.0
N3190 N 0.03177 0.33655 0.68224 0.0
N3191 N 0.96966 0.3229 0.65108 0.0
C3192 C 0.01644 0.33269 0.67501 0.0
C3193 C 0.98507 0.32566 0.65869 0.0
N3194 N 0.00188 0.34965 0.69566 0.0
N3195 N 0.00096 0.30995 0.63703 0.0
H3196 H 0.95839 0.32809 0.65596 0.0
H3197 H 0.96792 0.31571 0.64008 0.0
H3198 H 0.01232 0.30491 0.63223 0.0
H3199 H 0.99055 0.30828 0.62899 0.0
H3200 H 0.99103 0.35487 0.7014 0.0
H3201 H 0.99103 0.35487 0.7014 0.0
H3202 H 0.03286 0.34484 0.69261 0.0
H3203 H 0.04323 0.33172 0.67744 0.0
C3204 C 0.6443 0.25515 0.91968 0.0
C3205 C 0.6502 0.23834 0.91703 0.0
C3206 C 0.66437 0.24717 0.89095 0.0
C3207 C 0.66401 0.26381 0.89757 0.0
N3208 N 0.64591 0.28474 0.91014 0.0
N3209 N 0.66171 0.21716 0.89801 0.0
C3210 C 0.65057 0.26808 0.90872 0.0
C3211 C 0.65847 0.23387 0.90159 0.0
N3212 N 0.6343 0.25871 0.93347 0.0
N3213 N 0.67061 0.24436 0.87499 0.0
H3214 H 0.65701 0.20732 0.90567 0.0
H3215 H 0.66923 0.21317 0.8878 0.0
H3216 H 0.67377 0.25452 0.86698 0.0
H3217 H 0.67072 0.23242 0.86917 0.0
H3218 H 0.63065 0.271 0.93694 0.0
H3219 H 0.62984 0.24908 0.94153 0.0
H3220 H 0.63608 0.28904 0.91799 0.0
H3221 H 0.65158 0.29401 0.90239 0.0
C3222 C 0.75104 0.93034 0.16735 0.0
C3223 C 0.73576 0.92169 0.17148 0.0
C3224 C 0.7521 0.89748 0.18268 0.0
C3225 C 0.76736 0.90655 0.1791 0.0
N3226 N 0.78168 0.92841 0.16327 0.0
N3227 N 0.72124 0.89595 0.17969 0.0
C3228 C 0.76683 0.92188 0.16963 0.0
C3229 C 0.73617 0.90476 0.17785 0.0
N3230 N 0.75042 0.94693 0.16212 0.0
N3231 N 0.75279 0.88258 0.19169 0.0
H3232 H 0.70936 0.9014 0.17725 0.0
H3233 H 0.72063 0.88301 0.18263 0.0
H3234 H 0.76421 0.87678 0.19515 0.0
H3235 H 0.74209 0.87623 0.19634 0.0
H3236 H 0.76119 0.95455 0.1605 0.0
H3237 H 0.73893 0.95345 0.16074 0.0
H3238 H 0.78224 0.93903 0.15528 0.0
H3239 H 0.79331 0.92207 0.16476 0.0
C3240 C 0.08099 0.25489 0.83083 0.0
C3241 C 0.06606 0.26046 0.82224 0.0
C3242 C 0.06864 0.23747 0.802 0.0
C3243 C 0.08186 0.23034 0.81175 0.0
N3244 N 0.10055 0.23119 0.83592 0.0
N3245 N 0.04231 0.25287 0.80426 0.0
C3246 C 0.08816 0.23877 0.82635 0.0
C3247 C 0.05893 0.25068 0.80896 0.0
N3248 N 0.08811 0.26497 0.84308 0.0
N3249 N 0.06527 0.2306 0.78642 0.0
H3250 H 0.03418 0.26156 0.81022 0.0
H3251 H 0.03611 0.24475 0.79578 0.0
H3252 H 0.05612 0.2353 0.77802 0.0
H3253 H 0.05612 0.2353 0.77802 0.0
H3254 H 0.09965 0.26219 0.84903 0.0
H3255 H 0.08281 0.2767 0.8465 0.0
H3256 H 0.10476 0.23598 0.84757 0.0
H3257 H 0.10599 0.21956 0.83236 0.0
C3258 C 0.73256 0.33189 0.0739 0.0
C3259 C 0.73297 0.31429 0.07787 0.0
C3260 C 0.76395 0.31543 0.08055 0.0
C3261 C 0.76366 0.3317 0.07284 0.0
N3262 N 0.74842 0.35837 0.07266 0.0
N3263 N 0.74855 0.28923 0.08644 0.0
C3264 C 0.74817 0.34099 0.07259 0.0
C3265 C 0.74852 0.30613 0.08214 0.0
N3266 N 0.71724 0.33971 0.07111 0.0
N3267 N 0.77925 0.30899 0.08578 0.0
H3268 H 0.7374 0.28201 0.08721 0.0
H3269 H 0.7596 0.2821 0.08828 0.0
H3270 H 0.79047 0.31612 0.08457 0.0
H3271 H 0.78063 0.29759 0.09245 0.0
H3272 H 0.71606 0.35206 0.06635 0.0
H3273 H 0.70562 0.33342 0.0728 0.0
H3274 H 0.73752 0.36591 0.07342 0.0
H3275 H 0.75956 0.36516 0.07492 0.0
C3276 C 0.64995 0.97262 0.31453 0.0
C3277 C 0.65822 0.9738 0.3304 0.0
C3278 C 0.65522 0.0046 0.32988 0.0
C3279 C 0.65237 0.00343 0.31208 0.0
N3280 N 0.64564 0.98635 0.2873 0.0
N3281 N 0.65596 0.98912 0.35674 0.0
C3282 C 0.64869 0.98747 0.3044 0.0
C3283 C 0.65695 0.98932 0.33939 0.0
N3284 N 0.6439 0.95722 0.30924 0.0
N3285 N 0.65681 0.02021 0.33739 0.0
H3286 H 0.65484 0.97761 0.36338 0.0
H3287 H 0.65402 -0.0 0.36412 0.0
H3288 H 0.65482 0.03153 0.33065 0.0
H3289 H 0.66062 0.02186 0.35001 0.0
H3290 H 0.63675 0.95561 0.29815 0.0
H3291 H 0.64489 0.94645 0.31705 0.0
H3292 H 0.64465 0.97476 0.28087 0.0
H3293 H 0.64533 -0.00303 0.2793 0.0
C3294 C -0.00095 0.89964 0.56244 0.0
C3295 C 0.98348 0.90395 0.57045 0.0
C3296 C -0.00151 0.91629 0.59464 0.0
C3297 C 0.01361 0.91494 0.58503 0.0
N3298 N 0.03001 0.89982 0.56423 0.0
N3299 N 0.96776 0.91166 0.59553 0.0
C3300 C 0.01442 0.90428 0.57058 0.0
C3301 C 0.98306 0.91042 0.58727 0.0
N3302 N -0.00102 0.89257 0.54652 0.0
N3303 N -0.00099 0.92414 0.61016 0.0
H3304 H 0.95645 0.90734 0.59 0.0
H3305 H 0.96627 0.91623 0.6079 0.0
H3306 H 0.01051 0.9282 0.61548 0.0
H3307 H 0.98841 0.92625 0.61787 0.0
H3308 H 0.0099 0.89069 0.53919 0.0
H3309 H 0.98772 0.88913 0.54035 0.0
H3310 H 0.03176 0.89132 0.55418 0.0
H3311 H 0.04127 0.90371 0.5702 0.0
C3312 C 0.41071 0.08084 0.00565 0.0
C3313 C 0.4233 0.07121 0.01437 0.0
C3314 C 0.42508 0.05171 0.99055 0.0
C3315 C 0.41532 0.06293 0.98061 0.0
N3316 N 0.39934 0.08906 0.97801 0.0
N3317 N 0.4469 0.05137 0.01184 0.0
C3318 C 0.40802 0.07773 0.98797 0.0
C3319 C 0.43164 0.05749 0.00609 0.0
N3320 N 0.40159 0.09291 0.01427 0.0
N3321 N 0.42825 0.03575 0.98449 0.0
H3322 H 0.45359 0.05681 0.02194 0.0
H3323 H 0.45392 0.04224 0.00519 0.0
H3324 H 0.4348 0.02638 0.99131 0.0
H3325 H 0.4348 0.02638 0.99131 0.0
H3326 H 0.39135 0.0995 0.00895 0.0
H3327 H 0.40349 0.09525 0.02725 0.0
H3328 H 0.39501 0.10082 0.98243 0.0
H3329 H 0.39761 0.08718 0.96496 0.0
C3330 C 0.93676 0.67921 0.23945 0.0
C3331 C 0.92503 0.67124 0.22844 0.0
C3332 C 0.90682 0.66441 0.25295 0.0
C3333 C 0.91732 0.67493 0.26323 0.0
N3334 N 0.93894 0.69643 0.26466 0.0
N3335 N 0.89836 0.65675 0.22408 0.0
C3336 C 0.93134 0.68357 0.25588 0.0
C3337 C 0.90983 0.66392 0.235 0.0
N3338 N 0.95338 0.68155 0.23471 0.0
N3339 N 0.89442 0.65472 0.2604 0.0
H3340 H 0.90045 0.65632 0.21093 0.0
H3341 H 0.88639 0.65238 0.22789 0.0
H3342 H 0.8924 0.65472 0.27357 0.0
H3343 H 0.88721 0.64575 0.25378 0.0
H3344 H 0.96268 0.68591 0.24315 0.0
H3345 H 0.95834 0.67714 0.22318 0.0
H3346 H 0.94856 0.70418 0.25964 0.0
H3347 H 0.94856 0.70418 0.25964 0.0
C3348 C 0.33245 0.1542 0.47764 0.0
C3349 C 0.34335 0.16816 0.48035 0.0
C3350 C 0.34064 0.16474 0.51084 0.0
C3351 C 0.32513 0.15606 0.50767 0.0
N3352 N 0.30768 0.13929 0.48854 0.0
N3353 N 0.3666 0.17635 0.49832 0.0
C3354 C 0.32179 0.14908 0.4913 0.0
C3355 C 0.35053 0.17 0.49668 0.0
N3356 N 0.3311 0.14766 0.46161 0.0
N3357 N 0.34523 0.1685 0.52719 0.0
H3358 H 0.37423 0.17848 0.4876 0.0
H3359 H 0.37287 0.17757 0.50997 0.0
H3360 H 0.33835 0.16386 0.53763 0.0
H3361 H 0.35554 0.17625 0.53031 0.0
H3362 H 0.32378 0.13699 0.45864 0.0
H3363 H 0.33857 0.15252 0.45166 0.0
H3364 H 0.30387 0.13523 0.47649 0.0
H3365 H 0.29936 0.13574 0.49829 0.0
C3366 C 0.82002 0.55846 0.73274 0.0
C3367 C 0.82422 0.57464 0.72629 0.0
C3368 C 0.82479 0.58508 0.75578 0.0
C3369 C 0.81594 0.57003 0.7609 0.0
N3370 N 0.80112 0.54474 0.7526 0.0
N3371 N 0.83469 0.60272 0.73201 0.0
C3372 C 0.81207 0.55755 0.74867 0.0
C3373 C 0.82819 0.58776 0.73806 0.0
N3374 N 0.82471 0.54404 0.7243 0.0
N3375 N 0.82958 0.59668 0.76783 0.0
H3376 H 0.83783 0.60412 0.71911 0.0
H3377 H 0.83667 0.61352 0.73947 0.0
H3378 H 0.826 0.59541 0.78061 0.0
H3379 H 0.83728 0.60719 0.76527 0.0
H3380 H 0.82171 0.53186 0.72867 0.0
H3381 H 0.83375 0.54445 0.71451 0.0
H3382 H 0.79685 0.53587 0.74364 0.0
H3383 H 0.79685 0.53587 0.74364 0.0
C3384 C 0.40107 0.16359 0.24138 0.0
C3385 C 0.40788 0.15999 0.25771 0.0
C3386 C 0.42267 0.13527 0.24616 0.0
C3387 C 0.42069 0.14249 0.22981 0.0
N3388 N 0.4002 0.15546 0.21135 0.0
N3389 N 0.42238 0.14065 0.2766 0.0
C3390 C 0.40698 0.15389 0.22728 0.0
C3391 C 0.41756 0.14501 0.26047 0.0
N3392 N 0.39015 0.17697 0.23929 0.0
N3393 N 0.42813 0.11886 0.24776 0.0
H3394 H 0.41814 0.14738 0.28729 0.0
H3395 H 0.43098 0.13084 0.27919 0.0
H3396 H 0.42943 0.11103 0.23706 0.0
H3397 H 0.42893 0.11253 0.25943 0.0
H3398 H 0.38606 0.18136 0.22745 0.0
H3399 H 0.38549 0.18395 0.24962 0.0
H3400 H 0.3896 0.16296 0.20853 0.0
H3401 H 0.40471 0.14799 0.20125 0.0
C3402 C 0.8133 0.69151 0.5006 0.0
C3403 C 0.81943 0.67839 0.51137 0.0
C3404 C 0.83852 0.66933 0.48824 0.0
C3405 C 0.83306 0.68357 0.47868 0.0
N3406 N 0.82162 0.71174 0.4789 0.0
N3407 N 0.8419 0.65779 0.51676 0.0
C3408 C 0.82323 0.69626 0.48657 0.0
C3409 C 0.83344 0.66818 0.50568 0.0
N3410 N 0.79686 0.69707 0.50155 0.0
N3411 N 0.84789 0.65683 0.4806 0.0
H3412 H 0.83929 0.65778 0.52982 0.0
H3413 H 0.85265 0.65077 0.51326 0.0
H3414 H 0.85186 0.65782 0.4679 0.0
H3415 H 0.85083 0.64534 0.48661 0.0
H3416 H 0.79176 0.7056 0.4927 0.0
H3417 H 0.78769 0.69088 0.50895 0.0
H3418 H 0.81447 0.72172 0.48411 0.0
H3419 H 0.81447 0.72172 0.48411 0.0
C3420 C 0.34138 0.06692 0.74315 0.0
C3421 C 0.33455 0.07559 0.75743 0.0
C3422 C 0.32383 0.09778 0.73891 0.0
C3423 C 0.32438 0.08582 0.72548 0.0
N3424 N 0.34177 0.0647 0.71205 0.0
N3425 N 0.32233 0.10097 0.76955 0.0
C3426 C 0.33622 0.07233 0.72666 0.0
C3427 C 0.32706 0.09182 0.75554 0.0
N3428 N 0.35186 0.05327 0.7456 0.0
N3429 N 0.32142 0.11465 0.73559 0.0
H3430 H 0.32506 0.09684 0.78192 0.0
H3431 H 0.31521 0.11218 0.76877 0.0
H3432 H 0.32182 0.11928 0.7231 0.0
H3433 H 0.32172 0.12399 0.74504 0.0
H3434 H 0.35674 0.04577 0.73579 0.0
H3435 H 0.35598 0.04979 0.75777 0.0
H3436 H 0.35038 0.0546 0.71167 0.0
H3437 H 0.338 0.06933 0.70012 0.0
C3438 C 0.93268 0.55866 0.00403 0.0
C3439 C 0.92295 0.57122 0.01252 0.0
C3440 C 0.90826 0.57737 0.98564 0.0
C3441 C 0.91661 0.56307 0.97829 0.0
N3442 N 0.93074 0.53656 0.98283 0.0
N3443 N 0.89981 0.59142 0.01206 0.0
C3444 C 0.92685 0.55249 0.98843 0.0
C3445 C 0.91014 0.58032 0.00353 0.0
N3446 N 0.94813 0.5536 0.01018 0.0
N3447 N 0.89907 0.58817 0.97558 0.0
H3448 H 0.90102 0.59353 0.02516 0.0
H3449 H 0.88937 0.59743 0.00645 0.0
H3450 H 0.89789 0.58631 0.96245 0.0
H3451 H 0.89378 0.59953 0.98002 0.0
H3452 H 0.95514 0.5436 0.00503 0.0
H3453 H 0.95468 0.56064 0.01931 0.0
H3454 H 0.93734 0.52755 0.99008 0.0
H3455 H 0.93734 0.52755 0.99008 0.0
C3456 C 0.99212 0.44217 0.0819 0.0
C3457 C 0.0066 0.43226 0.0776 0.0
C3458 C 0.98879 0.40674 0.07707 0.0
C3459 C 0.97421 0.41734 0.07657 0.0
N3460 N 0.96193 0.44326 0.08743 0.0
N3461 N 0.01929 0.40475 0.07251 0.0
C3462 C 0.97592 0.43443 0.08208 0.0
C3463 C 0.00512 0.41437 0.07567 0.0
N3464 N 0.99336 0.45912 0.0854 0.0
N3465 N 0.9871 0.38993 0.08112 0.0
H3466 H 0.0315 0.41003 0.07188 0.0
H3467 H 0.0187 0.39183 0.06943 0.0
H3468 H 0.97561 0.38517 0.08589 0.0
H3469 H -0.00257 0.3817 0.08265 0.0
H3470 H 0.00483 0.46589 0.08514 0.0
H3471 H 0.00483 0.46589 0.08514 0.0
H3472 H 0.96256 0.45597 0.09137 0.0
H3473 H 0.95003 0.43735 0.08863 0.0
C3474 C 0.50821 0.31216 0.14537 0.0
C3475 C 0.52451 0.31665 0.15161 0.0
C3476 C 0.51184 0.33175 0.17555 0.0
C3477 C 0.49568 0.32534 0.17069 0.0
N3478 N 0.47746 0.31528 0.14823 0.0
N3479 N 0.54176 0.33467 0.16923 0.0
C3480 C 0.49352 0.31752 0.15456 0.0
C3481 C 0.52608 0.32836 0.16516 0.0
N3482 N 0.50694 0.30165 0.13157 0.0
N3483 N 0.51433 0.3401 0.19056 0.0
H3484 H 0.55248 0.33205 0.16172 0.0
H3485 H 0.54371 0.34285 0.17956 0.0
H3486 H 0.5047 0.34245 0.19947 0.0
H3487 H 0.5047 0.34245 0.19947 0.0
H3488 H 0.49555 0.29618 0.12751 0.0
H3489 H 0.51759 0.29807 0.12443 0.0
H3490 H 0.47498 0.31078 0.13599 0.0
H3491 H 0.46663 0.31946 0.15478 0.0
C3492 C 0.66142 0.73019 0.40328 0.0
C3493 C 0.65199 0.73498 0.41789 0.0
C3494 C 0.65588 0.7646 0.41039 0.0
C3495 C 0.67149 0.75933 0.40302 0.0
N3496 N 0.68139 0.74004 0.3814 0.0
N3497 N 0.6304 0.75514 0.42573 0.0
C3498 C 0.67164 0.74295 0.39548 0.0
C3499 C 0.6456 0.75181 0.41804 0.0
N3500 N 0.66095 0.71374 0.39778 0.0
N3501 N 0.65151 0.7814 0.41017 0.0
H3502 H 0.62306 0.7452 0.43078 0.0
H3503 H 0.62498 0.76724 0.42649 0.0
H3504 H 0.65909 0.79028 0.40369 0.0
H3505 H 0.6405 0.78626 0.41579 0.0
H3506 H 0.66803 0.70915 0.38751 0.0
H3507 H 0.65294 0.70486 0.40372 0.0
H3508 H 0.68216 0.7283 0.37525 0.0
H3509 H 0.68806 0.75003 0.37559 0.0
C3510 C 0.22382 0.90285 0.67751 0.0
C3511 C 0.22231 0.91058 0.66141 0.0
C3512 C 0.25226 0.90514 0.65582 0.0
C3513 C 0.25445 0.90386 0.6737 0.0
N3514 N 0.24314 0.89943 0.70145 0.0
N3515 N 0.23162 0.90693 0.63259 0.0
C3516 C 0.24032 0.90152 0.6845 0.0
C3517 C 0.23546 0.90749 0.64952 0.0
N3518 N 0.2096 0.89732 0.68583 0.0
N3519 N 0.26612 0.90518 0.64531 0.0
H3520 H 0.219 0.90825 0.62848 0.0
H3521 H 0.24045 0.90389 0.62312 0.0
H3522 H 0.27847 0.90344 0.64997 0.0
H3523 H 0.2654 0.90743 0.63223 0.0
H3524 H 0.21 0.8906 0.6973 0.0
H3525 H 0.19759 0.8983 0.68011 0.0
H3526 H 0.23342 0.89912 0.71054 0.0
H3527 H 0.23342 0.89912 0.71054 0.0
C3528 C 0.58034 0.47812 0.41485 0.0
C3529 C 0.56446 0.4723 0.42125 0.0
C3530 C 0.55882 0.49985 0.43377 0.0
C3531 C 0.57394 0.50641 0.42639 0.0
N3532 N 0.59721 0.50279 0.40658 0.0
N3533 N 0.53586 0.48 0.42974 0.0
C3534 C 0.58425 0.49582 0.41591 0.0
C3535 C 0.55282 0.48385 0.42863 0.0
N3536 N 0.59159 0.46673 0.40799 0.0
N3537 N 0.55076 0.50885 0.44624 0.0
H3538 H 0.53067 0.46881 0.42479 0.0
H3539 H 0.52672 0.48887 0.43361 0.0
H3540 H 0.5403 0.50432 0.45317 0.0
H3541 H 0.5403 0.50432 0.45317 0.0
H3542 H 0.60397 0.46998 0.40438 0.0
H3543 H 0.58882 0.45374 0.40706 0.0
H3544 H 0.60433 0.49592 0.3977 0.0
H3545 H 0.59967 0.51587 0.40654 0.0
C3546 C 0.2373 0.83441 0.08432 0.0
C3547 C 0.23194 0.81725 0.08555 0.0
C3548 C 0.26142 0.80768 0.0843 0.0
C3549 C 0.26546 0.82365 0.07713 0.0
N3550 N 0.26145 0.85365 0.08025 0.0
N3551 N 0.23811 0.78808 0.09088 0.0
C3552 C 0.25482 0.83761 0.0811 0.0
C3553 C 0.24397 0.80399 0.08723 0.0
N3554 N 0.22555 0.84723 0.08489 0.0
N3555 N 0.27417 0.7968 0.08885 0.0
H3556 H 0.24578 0.77722 0.09139 0.0
H3557 H 0.24578 0.77722 0.09139 0.0
H3558 H 0.28688 0.80076 0.08866 0.0
H3559 H 0.27216 0.78513 0.09485 0.0
H3560 H 0.22847 0.86001 0.0828 0.0
H3561 H 0.21264 0.84484 0.08715 0.0
H3562 H 0.2547 0.86464 0.08343 0.0
H3563 H 0.27435 0.8555 0.07736 0.0
C3564 C 0.97373 -0.0017 0.54185 0.0
C3565 C 0.96101 0.00966 0.5356 0.0
C3566 C 0.94131 0.98604 0.53174 0.0
C3567 C 0.95401 0.97429 0.53697 0.0
N3568 N 0.98238 0.96882 0.54723 0.0
N3569 N 0.93518 0.01367 0.51967 0.0
C3570 C 0.97042 0.98029 0.54183 0.0
C3571 C 0.94578 0.00317 0.52869 0.0
N3572 N 0.9886 0.0048 0.54819 0.0
N3573 N 0.92452 0.98149 0.53159 0.0
H3574 H 0.93832 0.02635 0.51701 0.0
H3575 H 0.92428 0.00925 0.51351 0.0
H3576 H 0.92021 0.96918 0.53407 0.0
H3577 H 0.91488 0.99065 0.53148 0.0
H3578 H -0.00197 -0.00233 0.55419 0.0
H3579 H 0.99166 0.01769 0.54733 0.0
H3580 H 0.99435 0.97203 0.5519 0.0
H3581 H 0.98038 0.95569 0.54673 0.0
C3582 C 0.98302 0.68207 0.28328 0.0
C3583 C 0.97663 0.69835 0.2874 0.0
C3584 C 0.00532 0.70988 0.28358 0.0
C3585 C 0.01187 0.69313 0.28564 0.0
N3586 N 0.00643 0.66265 0.28644 0.0
N3587 N 0.981 0.72875 0.28757 0.0
C3588 C 0.0006 0.67899 0.28491 0.0
C3589 C 0.98749 0.71268 0.28587 0.0
N3590 N 0.97219 0.66958 0.278 0.0
N3591 N 0.01599 0.72295 0.2795 0.0
H3592 H 0.96792 0.73115 0.28765 0.0
H3593 H 0.98856 0.73959 0.28898 0.0
H3594 H 0.02906 0.72121 0.27784 0.0
H3595 H 0.0115 0.73495 0.27608 0.0
H3596 H 0.97631 0.65769 0.27369 0.0
H3597 H 0.95945 0.67216 0.27559 0.0
H3598 H -0.00163 0.6522 0.28808 0.0
H3599 H 0.01928 0.65958 0.28722 0.0
C3600 C 0.2917 0.73042 0.01827 0.0
C3601 C 0.29136 0.7239 0.03519 0.0
C3602 C 0.29284 0.75288 0.04652 0.0
C3603 C 0.296 0.75927 0.02998 0.0
N3604 N 0.2974 0.75467 -0.00037 0.0
N3605 N 0.29448 0.729 0.06561 0.0
C3606 C 0.29488 0.74823 0.01562 0.0
C3607 C 0.29275 0.73513 0.04935 0.0
N3608 N 0.28958 0.71948 0.00485 0.0
N3609 N 0.28945 0.76394 0.05956 0.0
H3610 H 0.29273 0.71629 0.06898 0.0
H3611 H 0.29816 0.73665 0.07584 0.0
H3612 H 0.28829 0.77702 0.05752 0.0
H3613 H 0.28572 0.76006 0.07173 0.0
H3614 H 0.28893 0.72328 0.99217 0.0
H3615 H 0.28782 0.70638 0.00645 0.0
H3616 H 0.29889 0.74726 0.98872 0.0
H3617 H 0.29809 0.7677 -0.00271 0.0
C3618 C 0.25273 0.03675 0.80137 0.0
C3619 C 0.26026 0.03988 0.78528 0.0
C3620 C 0.2335 0.03112 0.77144 0.0
C3621 C 0.22645 0.02804 0.78796 0.0
N3622 N 0.23238 0.01973 0.81685 0.0
N3623 N 0.25827 0.04027 0.7547 0.0
C3624 C 0.23735 0.0277 0.80218 0.0
C3625 C 0.25085 0.03687 0.77011 0.0
N3626 N 0.25917 0.04392 0.81584 0.0
N3627 N 0.22373 0.0284 0.75729 0.0
H3628 H 0.27074 0.04483 0.75365 0.0
H3629 H 0.25226 0.0388 0.74298 0.0
H3630 H 0.2121 0.02198 0.75789 0.0
H3631 H 0.22736 0.03143 0.7449 0.0
H3632 H 0.25271 0.04343 0.8275 0.0
H3633 H 0.26995 0.05169 0.81596 0.0
H3634 H 0.24042 0.01857 0.8274 0.0
H3635 H 0.22094 0.01291 0.81754 0.0
C3636 C 0.94911 0.73698 0.20973 0.0
C3637 C 0.95871 0.73503 0.19459 0.0
C3638 C 0.96498 0.7656 0.1959 0.0
C3639 C 0.95134 0.76804 0.20741 0.0
N3640 N 0.92808 0.75499 0.22298 0.0
N3641 N 0.9731 0.74943 0.17125 0.0
C3642 C 0.94288 0.75341 0.21399 0.0
C3643 C 0.9662 0.74984 0.18717 0.0
N3644 N 0.94558 0.72324 0.21973 0.0
N3645 N 0.97633 0.77837 0.19289 0.0
H3646 H 0.97226 0.73874 0.16359 0.0
H3647 H 0.97755 0.76032 0.165 0.0
H3648 H 0.97655 0.78916 0.20061 0.0
H3649 H 0.98686 0.77692 0.18485 0.0
H3650 H 0.93901 0.72426 0.23128 0.0
H3651 H 0.95139 0.7115 0.21747 0.0
H3652 H 0.92069 0.74451 0.22653 0.0
H3653 H 0.92281 0.76682 0.22588 0.0
C3654 C 0.24105 0.68668 0.94284 0.0
C3655 C 0.22945 0.69955 0.94802 0.0
C3656 C 0.25422 0.71584 0.95892 0.0
C3657 C 0.26501 0.70169 0.95494 0.0
N3658 N 0.26514 0.67094 0.95311 0.0
N3659 N 0.22502 0.72593 0.96331 0.0
C3660 C 0.25711 0.68617 0.95056 0.0
C3661 C 0.23602 0.71397 0.957 0.0
N3662 N 0.23763 0.67547 0.92998 0.0
N3663 N 0.26107 0.73084 0.96445 0.0
H3664 H 0.21193 0.72555 0.96094 0.0
H3665 H 0.22879 0.73571 0.97146 0.0
H3666 H 0.27382 0.73209 0.96785 0.0
H3667 H 0.25405 0.74206 0.96567 0.0
H3668 H 0.24674 0.66669 0.92578 0.0
H3669 H 0.22692 0.67602 0.92223 0.0
H3670 H 0.25925 0.65932 0.95033 0.0
H3671 H 0.27666 0.67014 0.95977 0.0
C3672 C 0.28157 0.98535 0.71628 0.0
C3673 C 0.28529 0.97487 0.70189 0.0
C3674 C 0.29303 -0.00034 0.68554 0.0
C3675 C 0.2876 0.0109 0.69874 0.0
N3676 N 0.27531 0.0139 0.72686 0.0
N3677 N 0.28586 0.97355 0.67124 0.0
C3678 C 0.28109 0.00357 0.71411 0.0
C3679 C 0.28739 0.98273 0.68593 0.0
N3680 N 0.27922 0.97818 0.73197 0.0
N3681 N 0.30512 0.00398 0.67373 0.0
H3682 H 0.28178 0.96086 0.67134 0.0
H3683 H 0.28705 0.97922 0.65922 0.0
H3684 H 0.31245 0.01499 0.67413 0.0
H3685 H 0.30963 0.99522 0.66475 0.0
H3686 H 0.27888 0.98524 0.74323 0.0
H3687 H 0.27785 0.9651 0.73377 0.0
H3688 H 0.26879 0.00933 0.73752 0.0
H3689 H 0.27659 0.02713 0.72642 0.0
C3690 C 0.99055 0.0508 0.43372 0.0
C3691 C 0.97964 0.04578 0.4474 0.0
C3692 C 0.00531 0.04071 0.46507 0.0
C3693 C 0.01567 0.04574 0.45097 0.0
N3694 N 0.0177 0.04537 0.4204 0.0
N3695 N 0.97686 0.03301 0.47533 0.0
C3696 C 0.00805 0.04716 0.43481 0.0
C3697 C 0.98711 0.03954 0.46281 0.0
N3698 N 0.9848 0.05976 0.4199 0.0
N3699 N 0.01265 0.0373 0.48048 0.0
H3700 H 0.96358 0.03299 0.47446 0.0
H3701 H 0.98144 0.02683 0.48614 0.0
H3702 H 0.02577 0.03623 0.48212 0.0
H3703 H 0.00576 0.03535 0.49168 0.0
H3704 H 0.99314 0.065 0.41091 0.0
H3705 H 0.97214 0.06288 0.41758 0.0
H3706 H 0.01236 0.04526 0.4082 0.0
H3707 H 0.0306 0.04203 0.42096 0.0
C3708 C 0.52902 0.9675 0.00533 0.0
C3709 C 0.53125 0.95155 0.01373 0.0
C3710 C 0.543 0.93903 0.98789 0.0
C3711 C 0.54207 0.95507 0.97951 0.0
N3712 N 0.53188 0.98406 0.97898 0.0
N3713 N 0.5305 0.92119 0.00965 0.0
C3714 C 0.53417 0.96918 0.98781 0.0
C3715 C 0.53495 0.937 0.00384 0.0
N3716 N 0.52153 0.98066 0.01393 0.0
N3717 N 0.55213 0.9258 0.98115 0.0
H3718 H 0.52358 0.91958 0.02094 0.0
H3719 H 0.53177 0.91018 0.00228 0.0
H3720 H 0.55836 0.9263 0.96943 0.0
H3721 H 0.55455 0.9146 0.98793 0.0
H3722 H 0.52069 0.99309 0.0094 0.0
H3723 H 0.51518 0.97876 0.02549 0.0
H3724 H 0.52576 0.99479 0.98381 0.0
H3725 H 0.53595 0.98562 0.96639 0.0
C3726 C 0.02498 0.31109 0.74878 0.0
C3727 C 0.03035 0.29947 0.76164 0.0
C3728 C 0.03258 0.27677 0.74027 0.0
C3729 C 0.03045 0.289 0.72727 0.0
N3730 N 0.01958 0.31613 0.71856 0.0
N3731 N 0.04197 0.27206 0.76908 0.0
C3732 C 0.02477 0.30563 0.73146 0.0
C3733 C 0.03447 0.28241 0.75733 0.0
N3734 N 0.02107 0.32754 0.75306 0.0
N3735 N 0.03284 0.25983 0.73636 0.0
H3736 H 0.04417 0.27592 0.78157 0.0
H3737 H 0.04771 0.26059 0.76573 0.0
H3738 H 0.0306 0.25537 0.72404 0.0
H3739 H 0.03298 0.25031 0.74566 0.0
H3740 H 0.01762 0.33695 0.74441 0.0
H3741 H 0.02181 0.33216 0.76547 0.0
H3742 H 0.01542 0.32861 0.72007 0.0
H3743 H 0.01859 0.31172 0.70606 0.0
C3744 C 0.70309 0.77115 0.4913 0.0
C3745 C 0.70824 0.78706 0.48433 0.0
C3746 C 0.71449 0.79759 0.513 0.0
C3747 C 0.70632 0.78323 0.52014 0.0
N3748 N 0.69437 0.75509 0.5164 0.0
N3749 N 0.71475 0.81678 0.48911 0.0
C3750 C 0.70141 0.76941 0.5094 0.0
C3751 C 0.71319 0.80057 0.49527 0.0
N3752 N 0.6993 0.75796 0.48055 0.0
N3753 N 0.72285 0.80878 0.52339 0.0
H3754 H 0.71207 0.81996 0.47651 0.0
H3755 H 0.71636 0.82733 0.49703 0.0
H3756 H 0.72386 0.80675 0.53654 0.0
H3757 H 0.73019 0.81886 0.51871 0.0
H3758 H 0.69666 0.74559 0.48457 0.0
H3759 H 0.69974 0.7592 0.46729 0.0
H3760 H 0.68836 0.74555 0.50941 0.0
H3761 H 0.69444 0.75273 0.52944 0.0
C3762 C 0.20092 0.47121 0.25706 0.0
C3763 C 0.20668 0.45442 0.26079 0.0
C3764 C 0.21252 0.44954 0.23044 0.0
C3765 C 0.20478 0.46532 0.22662 0.0
N3766 N 0.19762 0.49354 0.2357 0.0
N3767 N 0.21638 0.42685 0.25099 0.0
C3768 C 0.20091 0.47697 0.23981 0.0
C3769 C 0.21246 0.44349 0.24751 0.0
N3770 N 0.19432 0.4811 0.26983 0.0
N3771 N 0.21975 0.44038 0.2175 0.0
H3772 H 0.21564 0.42168 0.2632 0.0
H3773 H 0.21889 0.41775 0.24166 0.0
H3774 H 0.22016 0.44507 0.20504 0.0
H3775 H 0.22685 0.42933 0.21933 0.0
H3776 H 0.18818 0.4927 0.26775 0.0
H3777 H 0.19431 0.47732 0.2826 0.0
H3778 H 0.1956 0.50317 0.24463 0.0
H3779 H 0.19903 0.49792 0.22323 0.0
C3780 C 0.54783 0.80888 0.73423 0.0
C3781 C 0.54315 0.79507 0.72384 0.0
C3782 C 0.53008 0.78183 0.74944 0.0
C3783 C 0.53944 0.79332 0.76006 0.0
N3784 N 0.56053 0.81655 0.76068 0.0
N3785 N 0.52589 0.7697 0.72105 0.0
C3786 C 0.54927 0.80647 0.75197 0.0
C3787 C 0.5329 0.78194 0.73123 0.0
N3788 N 0.55112 0.82441 0.72706 0.0
N3789 N 0.51878 0.77072 0.7567 0.0
H3790 H 0.52508 0.77104 0.70785 0.0
H3791 H 0.52051 0.75847 0.72568 0.0
H3792 H 0.51694 0.76997 0.76984 0.0
H3793 H 0.51046 0.76307 0.74974 0.0
H3794 H 0.55352 0.83529 0.73435 0.0
H3795 H 0.54938 0.82662 0.71402 0.0
H3796 H 0.56924 0.82443 0.75438 0.0
H3797 H 0.56168 0.81718 0.77387 0.0
C3798 C 0.21171 0.27722 0.48297 0.0
C3799 C 0.19904 0.27483 0.47029 0.0
C3800 C 0.17708 0.27331 0.49183 0.0
C3801 C 0.18935 0.27671 0.5048 0.0
N3802 N 0.21902 0.27529 0.51299 0.0
N3803 N 0.17242 0.26161 0.46361 0.0
C3804 C 0.20696 0.27633 0.50051 0.0
C3805 C 0.1828 0.26927 0.47527 0.0
N3806 N 0.22798 0.28111 0.47836 0.0
N3807 N 0.16004 0.2751 0.49474 0.0
H3808 H 0.17668 0.25906 0.45123 0.0
H3809 H 0.16063 0.25634 0.46684 0.0
H3810 H 0.15519 0.27933 0.50626 0.0
H3811 H 0.15091 0.27409 0.48513 0.0
H3812 H 0.23713 0.28556 0.48691 0.0
H3813 H 0.23209 0.27979 0.46585 0.0
H3814 H 0.23199 0.27376 0.51046 0.0
H3815 H 0.21582 0.27404 0.52581 0.0
C3816 C 0.70303 0.92929 0.2551 0.0
C3817 C 0.70103 0.9423 0.26764 0.0
C3818 C 0.70094 0.96402 0.24485 0.0
C3819 C 0.70132 0.95071 0.23257 0.0
N3820 N 0.71047 0.92228 0.22599 0.0
N3821 N 0.69746 0.97205 0.27469 0.0
C3822 C 0.70489 0.93387 0.23777 0.0
C3823 C 0.70025 0.95976 0.26261 0.0
N3824 N 0.70254 0.91243 0.25954 0.0
N3825 N 0.7017 0.98059 0.23955 0.0
H3826 H 0.69668 0.96937 0.2877 0.0
H3827 H 0.69485 0.98476 0.27192 0.0
H3828 H 0.70324 0.98394 0.22679 0.0
H3829 H 0.70272 0.99097 0.24774 0.0
H3830 H 0.70149 0.90258 0.25069 0.0
H3831 H 0.70225 0.90815 0.27206 0.0
H3832 H 0.71517 0.91025 0.22916 0.0
H3833 H 0.71223 0.92549 0.2132 0.0
C3834 C 0.03385 0.46723 0.9831 0.0
C3835 C 0.03061 0.45063 0.97705 0.0
C3836 C 0.03474 0.4397 0.00608 0.0
C3837 C 0.0422 0.4554 0.011 0.0
N3838 N 0.05388 0.4819 0.00055 0.0
N3839 N 0.03095 0.42022 0.98288 0.0
C3840 C 0.04258 0.46896 -0.00117 0.0
C3841 C 0.03173 0.43663 0.9886 0.0
N3842 N 0.03054 0.48111 0.97311 0.0
N3843 N 0.031 0.4274 0.01786 0.0
H3844 H 0.02823 0.41721 0.97033 0.0
H3845 H 0.03393 0.4097 0.99048 0.0
H3846 H 0.03345 0.42873 0.03081 0.0
H3847 H 0.02399 0.41649 0.01484 0.0
H3848 H 0.03207 0.49357 0.97754 0.0
H3849 H 0.02478 0.48009 0.96116 0.0
H3850 H 0.0554 0.49164 0.9916 0.0
H3851 H 0.06416 0.48029 0.00851 0.0
C3852 C -0.00455 0.52372 0.93589 0.0
C3853 C 0.98134 0.52846 0.9463 0.0
C3854 C 0.00102 0.53058 0.97093 0.0
C3855 C 0.01492 0.52719 0.96006 0.0
N3856 N 0.02422 0.51242 0.93505 0.0
N3857 N 0.97151 0.53884 0.97341 0.0
C3858 C 0.01163 0.52095 0.9435 0.0
C3859 C 0.98426 0.53201 0.9639 0.0
N3860 N 0.99398 0.52352 0.91853 0.0
N3861 N 0.00383 0.53207 0.98804 0.0
H3862 H 0.95912 0.53968 0.96893 0.0
H3863 H 0.97384 0.54528 0.98474 0.0
H3864 H 0.01596 0.53062 0.99331 0.0
H3865 H 0.99402 0.5327 -0.00299 0.0
H3866 H 0.00445 0.52222 0.91041 0.0
H3867 H 0.98265 0.52617 0.91217 0.0
H3868 H 0.02238 0.5065 0.92328 0.0
H3869 H 0.03567 0.50941 0.94112 0.0
C3870 C 0.50074 0.71913 0.7765 0.0
C3871 C 0.5086 0.70279 0.77634 0.0
C3872 C 0.48089 0.68969 0.77017 0.0
C3873 C 0.47281 0.70523 0.77414 0.0
N3874 N 0.47486 0.73573 0.77204 0.0
N3875 N 0.50562 0.67207 0.77466 0.0
C3876 C 0.48266 0.72038 0.77451 0.0
C3877 C 0.49861 0.68795 0.77315 0.0
N3878 N 0.51035 0.73326 0.77985 0.0
N3879 N 0.47137 0.67653 0.76389 0.0
H3880 H 0.51823 0.67008 0.7782 0.0
H3881 H 0.49852 0.66085 0.77416 0.0
H3882 H 0.45834 0.67794 0.76146 0.0
H3883 H 0.47666 0.66519 0.75938 0.0
H3884 H 0.50508 0.7451 0.78273 0.0
H3885 H 0.52363 0.73283 0.78078 0.0
H3886 H 0.48149 0.74715 0.77064 0.0
H3887 H 0.46196 0.73666 0.76894 0.0
C3888 C 0.29002 0.25506 0.56064 0.0
C3889 C 0.28889 0.26464 0.54545 0.0
C3890 C 0.28476 0.2385 0.52903 0.0
C3891 C 0.28921 0.22876 0.54364 0.0
N3892 N 0.29618 0.22795 0.57382 0.0
N3893 N 0.27569 0.26598 0.51791 0.0
C3894 C 0.29151 0.23705 0.55969 0.0
C3895 C 0.2833 0.25656 0.53039 0.0
N3896 N 0.28936 0.26339 0.57594 0.0
N3897 N 0.28339 0.23076 0.51354 0.0
H3898 H 0.27283 0.27886 0.51964 0.0
H3899 H 0.27006 0.2606 0.50714 0.0
H3900 H 0.28399 0.21755 0.51195 0.0
H3901 H 0.28329 0.23775 0.50227 0.0
H3902 H 0.28885 0.25728 0.58773 0.0
H3903 H 0.28733 0.27655 0.57662 0.0
H3904 H 0.30009 0.23353 0.58521 0.0
H3905 H 0.29723 0.21474 0.57403 0.0
C3906 C 0.75373 0.03555 0.26943 0.0
C3907 C 0.76083 0.04067 0.28529 0.0
C3908 C 0.73427 0.03282 0.2994 0.0
C3909 C 0.72581 0.03293 0.28358 0.0
N3910 N 0.72798 0.03005 0.25302 0.0
N3911 N 0.75655 0.04617 0.31547 0.0
C3912 C 0.7357 0.03274 0.26834 0.0
C3913 C 0.75084 0.03964 0.30038 0.0
N3914 N 0.76415 0.03333 0.25563 0.0
N3915 N 0.72602 0.02698 0.3136 0.0
H3916 H 0.76829 0.05221 0.31679 0.0
H3917 H 0.74887 0.04703 0.32631 0.0
H3918 H 0.71375 0.02182 0.31288 0.0
H3919 H 0.73205 0.02561 0.32538 0.0
H3920 H 0.76004 0.02828 0.24406 0.0
H3921 H 0.77727 0.03554 0.25617 0.0
H3922 H 0.73389 0.03225 0.24131 0.0
H3923 H 0.71562 0.02525 0.25217 0.0
C3924 C 0.44185 0.48748 0.54223 0.0
C3925 C 0.45705 0.47912 0.53685 0.0
C3926 C 0.47229 0.50655 0.53754 0.0
C3927 C 0.45699 0.51473 0.54306 0.0
N3928 N 0.42629 0.514 0.54436 0.0
N3929 N 0.48565 0.48096 0.52591 0.0
C3930 C 0.44149 0.50548 0.54325 0.0
C3931 C 0.47189 0.4888 0.53321 0.0
N3932 N 0.42785 0.47827 0.54716 0.0
N3933 N 0.4873 0.51536 0.53729 0.0
H3934 H 0.48564 0.468 0.52285 0.0
H3935 H 0.49644 0.48743 0.52164 0.0
H3936 H 0.48798 0.52848 0.539 0.0
H3937 H 0.49919 0.50959 0.53587 0.0
H3938 H 0.41734 0.48368 0.55326 0.0
H3939 H 0.42707 0.46506 0.5463 0.0
H3940 H 0.41446 0.50811 0.54293 0.0
H3941 H 0.42555 0.52726 0.54481 0.0
C3942 C 0.73267 0.19415 0.948 0.0
C3943 C 0.72651 0.21054 0.95276 0.0
C3944 C 0.75516 0.21781 0.96344 0.0
C3945 C 0.76104 0.20171 0.95747 0.0
N3946 N 0.75309 0.17224 0.95486 0.0
N3947 N 0.73104 0.23731 0.96716 0.0
C3948 C 0.74899 0.1891 0.95337 0.0
C3949 C 0.73747 0.22215 0.96141 0.0
N3950 N 0.72348 0.18352 0.93771 0.0
N3951 N 0.76636 0.2285 0.9714 0.0
H3952 H 0.71831 0.24082 0.96541 0.0
H3953 H 0.73803 0.24635 0.97388 0.0
H3954 H 0.77846 0.2244 0.97515 0.0
H3955 H 0.76356 0.24092 0.97513 0.0
H3956 H 0.72876 0.17248 0.93244 0.0
H3957 H 0.711 0.18582 0.93383 0.0
H3958 H 0.74423 0.1625 0.95294 0.0
H3959 H 0.76468 0.16832 0.96015 0.0
C3960 C 0.09119 0.49335 0.93432 0.0
C3961 C 0.08689 0.51033 0.9297 0.0
C3962 C 0.07487 0.50007 0.903 0.0
C3963 C 0.07375 0.48382 0.91068 0.0
N3964 N 0.09036 0.46341 0.92596 0.0
N3965 N 0.0788 0.53036 0.90797 0.0
C3966 C 0.08545 0.47993 0.9237 0.0
C3967 C 0.08043 0.51386 0.91321 0.0
N3968 N 0.09906 0.49001 0.94946 0.0
N3969 N 0.07198 0.50186 0.88597 0.0
H3970 H 0.08351 0.54048 0.91524 0.0
H3971 H 0.07247 0.5339 0.89683 0.0
H3972 H 0.07066 0.49119 0.87812 0.0
H3973 H 0.07339 0.51337 0.87947 0.0
H3974 H 0.10074 0.47774 0.95427 0.0
H3975 H 0.10349 0.49958 0.95751 0.0
H3976 H 0.09969 0.45962 0.93462 0.0
H3977 H 0.08591 0.45381 0.91785 0.0
C3978 C 0.99167 0.83698 0.17906 0.0
C3979 C 0.97598 0.83243 0.17145 0.0
C3980 C 0.99143 0.82008 0.14751 0.0
C3981 C 0.006 0.8194 0.15797 0.0
N3982 N 0.02237 0.83555 0.17821 0.0
N3983 N 0.96065 0.8212 0.1472 0.0
C3984 C 0.00692 0.83088 0.17181 0.0
C3985 C 0.97574 0.82482 0.15505 0.0
N3986 N 0.99232 0.84636 0.19363 0.0
N3987 N 0.99293 0.81767 0.13037 0.0
H3988 H 0.94886 0.82443 0.15243 0.0
H3989 H 0.95995 0.81408 0.13598 0.0
H3990 H 0.0049 0.81702 0.12457 0.0
H3991 H 0.98274 0.81909 0.12196 0.0
H3992 H 0.98147 0.85119 0.19969 0.0
H3993 H 0.98147 0.85119 0.19969 0.0
H3994 H 0.02356 0.84392 0.18851 0.0
H3995 H 0.03374 0.83155 0.17247 0.0
C3996 C 0.75379 0.44104 0.64927 0.0
C3997 C 0.73723 0.43411 0.65156 0.0
C3998 C 0.74968 0.40615 0.65703 0.0
C3999 C 0.76522 0.41457 0.6602 0.0
N4000 N 0.78398 0.43447 0.6466 0.0
N4001 N 0.71909 0.40941 0.65308 0.0
C4002 C 0.76796 0.43018 0.65176 0.0
C4003 C 0.73507 0.41626 0.65355 0.0
N4004 N 0.75602 0.45806 0.6464 0.0
N4005 N 0.74925 0.38878 0.65722 0.0
H4006 H 0.70842 0.41677 0.64997 0.0
H4007 H 0.71645 0.39672 0.65599 0.0
H4008 H 0.76041 0.38173 0.65911 0.0
H4009 H 0.73848 0.38163 0.65418 0.0
H4010 H 0.76798 0.46387 0.64652 0.0
H4011 H 0.74586 0.46649 0.64489 0.0
H4012 H 0.78665 0.44538 0.63947 0.0
H4013 H 0.79417 0.42601 0.6483 0.0
C4014 C 0.07651 0.75896 0.33077 0.0
C4015 C 0.06256 0.76498 0.32087 0.0
C4016 C 0.06474 0.74042 0.30277 0.0
C4017 C 0.07561 0.73234 0.31445 0.0
N4018 N 0.09187 0.73374 0.34052 0.0
N4019 N 0.03889 0.75621 0.30348 0.0
C4020 C 0.08177 0.74159 0.32875 0.0
C4021 C 0.05546 0.75446 0.30828 0.0
N4022 N 0.08449 0.76966 0.34189 0.0
N4023 N 0.06262 0.73378 0.28689 0.0
H4024 H 0.03059 0.7649 0.30921 0.0
H4025 H 0.03292 0.74704 0.29598 0.0
H4026 H 0.05513 0.73962 0.27754 0.0
H4027 H 0.05513 0.73962 0.27754 0.0
H4028 H 0.09547 0.76628 0.34857 0.0
H4029 H 0.08081 0.78239 0.34327 0.0
H4030 H 0.09555 0.73951 0.35191 0.0
H4031 H 0.09563 0.72104 0.33929 0.0
C4032 C 0.75101 0.83827 0.58644 0.0
C4033 C 0.75074 0.8412 0.56857 0.0
C4034 C 0.71972 0.84083 0.56908 0.0
C4035 C 0.72071 0.83212 0.58473 0.0
N4036 N 0.73398 0.83358 0.6121 0.0
N4037 N 0.73491 0.84808 0.54321 0.0
C4038 C 0.73531 0.83491 0.59482 0.0
C4039 C 0.73505 0.84382 0.56005 0.0
N4040 N 0.76617 0.83715 0.59489 0.0
N4041 N 0.70436 0.84655 0.56338 0.0
H4042 H 0.74618 0.85035 0.53654 0.0
H4043 H 0.72381 0.84851 0.53591 0.0
H4044 H 0.69341 0.84535 0.57093 0.0
H4045 H 0.70295 0.85391 0.55239 0.0
H4046 H 0.76719 0.83338 0.60759 0.0
H4047 H 0.77785 0.83938 0.58892 0.0
H4048 H 0.74391 0.83632 0.62047 0.0
H4049 H 0.72221 0.83098 0.61783 0.0
C4050 C 0.67477 0.49303 0.80654 0.0
C4051 C 0.67009 0.48413 0.82154 0.0
C4052 C 0.65141 0.50779 0.82982 0.0
C4053 C 0.65593 0.51606 0.81447 0.0
N4054 N 0.66543 0.51381 0.7857 0.0
N4055 N 0.65107 0.48099 0.8455 0.0
C4056 C 0.66511 0.50729 0.80179 0.0
C4057 C 0.65732 0.49082 0.83256 0.0
N4058 N 0.68973 0.48959 0.79827 0.0
N4059 N 0.6421 0.51632 0.84179 0.0
H4060 H 0.65514 0.46845 0.84739 0.0
H4061 H 0.64097 0.48473 0.8533 0.0
H4062 H 0.63754 0.52865 0.83964 0.0
H4063 H 0.63964 0.51151 0.85394 0.0
H4064 H 0.69402 0.49653 0.78776 0.0
H4065 H 0.69909 0.48152 0.80314 0.0
H4066 H 0.67141 0.50784 0.77539 0.0
H4067 H 0.67141 0.50784 0.77539 0.0
C4068 C 0.40503 0.58936 0.50444 0.0
C4069 C 0.40929 0.57641 0.51619 0.0
C4070 C 0.40473 0.55503 0.49444 0.0
C4071 C 0.40681 0.56801 0.48216 0.0
N4072 N 0.40521 0.59777 0.47468 0.0
N4073 N 0.40106 0.54831 0.52469 0.0
C4074 C 0.40543 0.58535 0.48687 0.0
C4075 C 0.40503 0.55949 0.51196 0.0
N4076 N 0.39969 0.60484 0.51025 0.0
N4077 N 0.40294 0.53875 0.48877 0.0
H4078 H 0.40052 0.5524 0.53738 0.0
H4079 H 0.39714 0.53579 0.52275 0.0
H4080 H 0.40179 0.52814 0.4967 0.0
H4081 H 0.40179 0.52814 0.4967 0.0
H4082 H 0.3953 0.61452 0.50227 0.0
H4083 H 0.39792 0.60698 0.5233 0.0
H4084 H 0.40564 0.61074 0.47756 0.0
H4085 H 0.40545 0.59494 0.46167 0.0
C4086 C 0.90197 0.16365 0.73684 0.0
C4087 C 0.91509 0.17368 0.72932 0.0
C4088 C 0.9165 0.19068 0.75502 0.0
C4089 C 0.90709 0.1782 0.76374 0.0
N4090 N 0.89007 0.15276 0.76341 0.0
N4091 N 0.93856 0.19342 0.73435 0.0
C4092 C 0.89925 0.16475 0.75475 0.0
C4093 C 0.92316 0.18671 0.73897 0.0
N4094 N 0.89265 0.15286 0.72689 0.0
N4095 N 0.92028 0.20552 0.7632 0.0
H4096 H 0.94533 0.18995 0.72354 0.0
H4097 H 0.94575 0.20115 0.74244 0.0
H4098 H 0.92687 0.21563 0.75756 0.0
H4099 H 0.92687 0.21563 0.75756 0.0
H4100 H 0.88226 0.1459 0.73143 0.0
H4101 H 0.89454 0.15208 0.71372 0.0
H4102 H 0.88538 0.14169 0.75776 0.0
H4103 H 0.88797 0.15361 0.77654 0.0
C4104 C 0.32544 0.65465 0.97807 0.0
C4105 C 0.33447 0.66986 0.98174 0.0
C4106 C 0.33773 0.66087 0.01123 0.0
C4107 C 0.32427 0.64932 0.00843 0.0
N4108 N 0.31597 0.62724 0.98905 0.0
N4109 N 0.35235 0.68609 0.00068 0.0
C4110 C 0.32155 0.64347 0.99169 0.0
C4111 C 0.34217 0.67226 -0.00211 0.0
N4112 N 0.32014 0.65139 0.96182 0.0
N4113 N 0.34468 0.66178 0.02712 0.0
H4114 H 0.35548 0.69466 0.99097 0.0
H4115 H 0.35727 0.68933 0.01257 0.0
H4116 H 0.34055 0.65359 0.03682 0.0
H4117 H 0.35494 0.66959 0.03028 0.0
H4118 H 0.31196 0.64139 0.95871 0.0
H4119 H 0.32363 0.65911 0.95154 0.0
H4120 H 0.31444 0.6219 0.97698 0.0
H4121 H 0.31519 0.61855 -0.00089 0.0
C4122 C 0.84415 0.06361 0.24503 0.0
C4123 C 0.83646 0.07355 0.25801 0.0
C4124 C 0.8294 0.09536 0.23731 0.0
C4125 C 0.83134 0.08282 0.22454 0.0
N4126 N 0.85076 0.06154 0.21469 0.0
N4127 N 0.82446 0.1002 0.26741 0.0
C4128 C 0.84239 0.0691 0.22791 0.0
C4129 C 0.83028 0.0901 0.25449 0.0
N4130 N 0.85186 0.04853 0.24903 0.0
N4131 N 0.82765 0.11207 0.23289 0.0
H4132 H 0.82535 0.09655 0.28019 0.0
H4133 H 0.81817 0.11173 0.2653 0.0
H4134 H 0.82886 0.11594 0.22019 0.0
H4135 H 0.82709 0.12193 0.24179 0.0
H4136 H 0.85634 0.03996 0.23992 0.0
H4137 H 0.85326 0.04446 0.26163 0.0
H4138 H 0.8598 0.05193 0.21621 0.0
H4139 H 0.84939 0.06617 0.20224 0.0
C4140 C 0.40966 0.65767 0.7652 0.0
C4141 C 0.40052 0.67277 0.76148 0.0
C4142 C 0.40271 0.66718 0.73117 0.0
C4143 C 0.41587 0.65549 0.73496 0.0
N4144 N 0.42717 0.63451 0.75421 0.0
N4145 N 0.38476 0.6901 0.74195 0.0
C4146 C 0.41747 0.64872 0.75157 0.0
C4147 C 0.39532 0.67655 0.74471 0.0
N4148 N 0.41205 0.65313 0.78185 0.0
N4149 N 0.39856 0.67 0.71451 0.0
H4150 H 0.37939 0.69692 0.75207 0.0
H4151 H 0.38142 0.6946 0.72991 0.0
H4152 H 0.40438 0.66306 0.70471 0.0
H4153 H 0.38887 0.67816 0.71053 0.0
H4154 H 0.41958 0.64299 0.78588 0.0
H4155 H 0.40613 0.65971 0.79181 0.0
H4156 H 0.42877 0.62863 0.766 0.0
H4157 H 0.43284 0.62785 0.74422 0.0
C4158 C 0.82248 0.15635 0.98522 0.0
C4159 C 0.83261 0.17116 0.9838 0.0
C4160 C 0.83466 0.17319 0.01463 0.0
C4161 C 0.82108 0.16145 0.01575 0.0
N4162 N 0.80384 0.13945 0.00336 0.0
N4163 N 0.85051 0.19257 -0.00357 0.0
C4164 C 0.81589 0.15186 0.00144 0.0
C4165 C 0.83988 0.1789 -0.00167 0.0
N4166 N 0.8187 0.14731 0.97084 0.0
N4167 N 0.84179 0.1793 0.02929 0.0
H4168 H 0.85463 0.19678 0.98449 0.0
H4169 H 0.85484 0.20003 0.00651 0.0
H4170 H 0.83774 0.17514 0.04129 0.0
H4171 H 0.85242 0.18725 0.02958 0.0
H4172 H 0.81196 0.13587 0.97084 0.0
H4173 H 0.82356 0.15081 0.95892 0.0
H4174 H 0.79817 0.13299 0.99325 0.0
H4175 H 0.79932 0.13582 0.01535 0.0
C4176 C 0.32789 0.59704 0.24815 0.0
C4177 C 0.33352 0.58351 0.25816 0.0
C4178 C 0.32646 0.56232 0.23742 0.0
C4179 C 0.31885 0.57538 0.22741 0.0
N4180 N 0.31633 0.6052 0.22053 0.0
N4181 N 0.33384 0.55686 0.268 0.0
C4182 C 0.3213 0.59291 0.23177 0.0
C4183 C 0.3331 0.56704 0.25343 0.0
N4184 N 0.32792 0.61311 0.2547 0.0
N4185 N 0.3259 0.54573 0.23237 0.0
H4186 H 0.33366 0.56884 0.29453 0.0
H4187 H 0.33244 0.5438 0.26484 0.0
H4188 H 0.32076 0.54212 0.22067 0.0
H4189 H 0.33181 0.53593 0.23914 0.0
H4190 H 0.32291 0.62367 0.24837 0.0
H4191 H 0.33284 0.61549 0.26686 0.0
H4192 H 0.31811 0.6182 0.22259 0.0
H4193 H 0.31143 0.602 0.20855 0.0
C4194 C 0.91157 0.08905 0.47806 0.0
C4195 C 0.90456 0.07246 0.47828 0.0
C4196 C 0.90607 0.0721 0.50913 0.0
C4197 C 0.9188 0.08465 0.50762 0.0
N4198 N 0.92286 0.11229 0.49525 0.0
N4199 N 0.89058 0.05004 0.49409 0.0
C4200 C 0.91777 0.09578 0.49356 0.0
C4201 C 0.89975 0.06479 0.49393 0.0
N4202 N 0.91347 0.09743 0.46294 0.0
N4203 N 0.90049 0.06735 0.52489 0.0
H4204 H 0.88559 0.04473 0.48298 0.0
H4205 H 0.88834 0.04297 0.50514 0.0
H4206 H 0.90512 0.0734 0.53583 0.0
H4207 H 0.89053 0.05878 0.52687 0.0
H4208 H 0.92002 0.10893 0.46172 0.0
H4209 H 0.90862 0.09244 0.45158 0.0
H4210 H 0.92168 0.12134 0.48559 0.0
H4211 H 0.92691 0.11695 0.50706 0.0
C4212 C 0.48679 0.79187 0.6604 0.0
C4213 C 0.48345 0.80975 0.66065 0.0
C4214 C 0.50817 0.81472 0.64235 0.0
C4215 C 0.51184 0.79715 0.64341 0.0
N4216 N 0.50164 0.76892 0.64551 0.0
N4217 N 0.48737 0.83715 0.6474 0.0
C4218 C 0.49934 0.78575 0.64902 0.0
C4219 C 0.49281 0.8208 0.64978 0.0
N4220 N 0.48034 0.78124 0.67264 0.0
N4221 N 0.52005 0.82555 0.63571 0.0
H4222 H 0.47608 0.84163 0.65293 0.0
H4223 H 0.49315 0.84559 0.6389 0.0
H4224 H 0.53123 0.82103 0.63005 0.0
H4225 H 0.51903 0.83879 0.63629 0.0
H4226 H 0.4839 0.76849 0.67381 0.0
H4227 H 0.47339 0.78543 0.6831 0.0
H4228 H 0.49302 0.75939 0.64901 0.0
H4229 H 0.49302 0.75939 0.64901 0.0
C4230 C 0.24178 0.40538 0.18421 0.0
C4231 C 0.25609 0.40736 0.17354 0.0
C4232 C 0.2376 0.41431 0.14976 0.0
C4233 C 0.2247 0.41785 0.16183 0.0
N4234 N 0.21075 0.40432 0.18544 0.0
N4235 N 0.26795 0.40964 0.14535 0.0
C4236 C 0.22545 0.40926 0.1776 0.0
C4237 C 0.25408 0.4101 0.15585 0.0
N4238 N 0.24443 0.40069 0.20069 0.0
N4239 N 0.23385 0.4153 0.13282 0.0
H4240 H 0.28006 0.40639 0.14986 0.0
H4241 H 0.26752 0.4129 0.13247 0.0
H4242 H 0.22146 0.41814 0.12878 0.0
H4243 H 0.24241 0.41206 0.12317 0.0
H4244 H 0.2348 0.39985 0.20984 0.0
H4245 H 0.2348 0.39985 0.20984 0.0
H4246 H 0.2104 0.39705 0.19656 0.0
H4247 H 0.19896 0.40598 0.17943 0.0
C4248 C 0.59459 0.00954 0.9062 0.0
C4249 C 0.58213 0.0225 0.9065 0.0
C4250 C 0.5606 0.00216 0.89736 0.0
C4251 C 0.57161 0.98904 0.90311 0.0
N4252 N 0.5999 0.97935 0.91005 0.0
N4253 N 0.55646 0.03286 0.89393 0.0
C4254 C 0.58902 0.99241 0.90631 0.0
C4255 C 0.56627 0.01929 0.89865 0.0
N4256 N 0.6114 0.01368 0.90484 0.0
N4257 N 0.54468 -0.00187 0.89162 0.0
H4258 H 0.56105 0.04532 0.89521 0.0
H4259 H 0.54444 0.03189 0.88842 0.0
H4260 H 0.54039 0.98556 0.89109 0.0
H4261 H 0.53585 0.00702 0.88726 0.0
H4262 H 0.62108 0.00463 0.90373 0.0
H4263 H 0.61519 0.02616 0.90219 0.0
H4264 H 0.61241 0.98128 0.9141 0.0
H4265 H 0.59604 0.96661 0.90984 0.0
C4266 C 0.25166 0.33727 0.57535 0.0
C4267 C 0.2617 0.33267 0.56116 0.0
C4268 C 0.23925 0.31489 0.55004 0.0
C4269 C 0.22847 0.31976 0.56375 0.0
N4270 N 0.22288 0.33987 0.58648 0.0
N4271 N 0.26292 0.32376 0.5322 0.0
C4272 C 0.23415 0.33248 0.57545 0.0
C4273 C 0.25429 0.32418 0.54727 0.0
N4274 N 0.25896 0.34554 0.58877 0.0
N4275 N 0.23689 0.2999 0.54158 0.0
H4276 H 0.25812 0.31812 0.52114 0.0
H4277 H 0.25812 0.31812 0.52114 0.0
H4278 H 0.22825 0.29073 0.54568 0.0
H4279 H 0.2455 0.29531 0.53252 0.0
H4280 H 0.2526 0.34776 0.60025 0.0
H4281 H 0.27173 0.34933 0.58854 0.0
H4282 H 0.22621 0.34983 0.59463 0.0
H4283 H 0.20985 0.33718 0.58609 0.0
C4284 C 0.96339 0.49578 0.04229 0.0
C4285 C 0.95108 0.50877 0.03955 0.0
C4286 C 0.92956 0.48748 0.03271 0.0
C4287 C 0.94172 0.47429 0.03513 0.0
N4288 N 0.97117 0.46593 0.03877 0.0
N4289 N 0.92551 0.51687 0.02497 0.0
C4290 C 0.95906 0.47846 0.03855 0.0
C4291 C 0.93515 0.50453 0.03243 0.0
N4292 N 0.97875 0.49988 0.04939 0.0
N4293 N 0.91257 0.48392 0.03094 0.0
H4294 H 0.93052 0.52891 0.02291 0.0
H4295 H 0.91414 0.51443 0.01851 0.0
H4296 H 0.90775 0.47161 0.02959 0.0
H4297 H 0.90317 0.49332 0.03139 0.0
H4298 H 0.98745 0.49086 0.05382 0.0
H4299 H 0.98244 0.51249 0.05143 0.0
H4300 H 0.98417 0.46835 0.04003 0.0
H4301 H 0.96836 0.45317 0.03629 0.0
C4302 C 0.00461 0.1772 0.7966 0.0
C4303 C 0.01463 0.19162 0.79159 0.0
C4304 C 0.98805 0.20682 0.78399 0.0
C4305 C 0.97859 0.19245 0.7897 0.0
N4306 N 0.97849 0.16192 0.7914 0.0
N4307 N 0.01583 0.2191 0.7775 0.0
C4308 C 0.98717 0.17699 0.79255 0.0
C4309 C 0.00633 0.20606 0.78414 0.0
N4310 N 0.01109 0.16372 0.80561 0.0
N4311 N 0.97967 0.22108 0.77856 0.0
H4312 H 0.02903 0.2197 0.77861 0.0
H4313 H 0.01077 0.229 0.77024 0.0
H4314 H 0.96674 0.22096 0.77549 0.0
H4315 H 0.98552 0.23285 0.77668 0.0
H4316 H 0.00313 0.1549 0.81167 0.0
H4317 H 0.02389 0.16126 0.80786 0.0
H4318 H 0.98452 0.15007 0.79212 0.0
H4319 H 0.96576 0.16149 0.78747 0.0
C4320 C 0.23892 0.51682 0.28157 0.0
C4321 C 0.2292 0.53146 0.28612 0.0
C4322 C 0.25287 0.54951 0.2773 0.0
C4323 C 0.26394 0.53541 0.27731 0.0
N4324 N 0.26716 0.50479 0.27653 0.0
N4325 N 0.22985 0.56151 0.29329 0.0
C4326 C 0.25684 0.5187 0.27821 0.0
C4327 C 0.23683 0.54782 0.28514 0.0
N4328 N 0.23117 0.50126 0.28093 0.0
N4329 N 0.2584 0.56489 0.27134 0.0
H4330 H 0.21847 0.56095 0.30015 0.0
H4331 H 0.23625 0.57314 0.29436 0.0
H4332 H 0.27045 0.56624 0.26576 0.0
H4333 H 0.25038 0.57549 0.2705 0.0
H4334 H 0.23704 0.49029 0.27626 0.0
H4335 H 0.21841 0.49962 0.28433 0.0
H4336 H 0.26335 0.49241 0.27949 0.0
H4337 H 0.27961 0.5057 0.27194 0.0
C4338 C 0.96505 0.243 0.68099 0.0
C4339 C 0.95512 0.23147 0.69096 0.0
C4340 C 0.95378 0.25262 0.71395 0.0
C4341 C 0.96054 0.26499 0.70281 0.0
N4342 N 0.97663 0.27179 0.67783 0.0
N4343 N 0.93746 0.22668 0.71573 0.0
C4344 C 0.96782 0.25992 0.6871 0.0
C4345 C 0.94909 0.23649 0.70731 0.0
N4346 N 0.97105 0.23806 0.66538 0.0
N4347 N 0.95151 0.2565 0.73076 0.0
H4348 H 0.9324 0.2157 0.71039 0.0
H4349 H 0.93146 0.23044 0.72697 0.0
H4350 H 0.95585 0.268 0.73583 0.0
H4351 H 0.94746 0.24765 0.73983 0.0
H4352 H 0.97902 0.24538 0.65775 0.0
H4353 H 0.96782 0.22649 0.65976 0.0
H4354 H 0.98164 0.2699 0.66569 0.0
H4355 H 0.9793 0.28382 0.68283 0.0
C4356 C 0.23789 0.22173 0.46179 0.0
C4357 C 0.22839 0.21263 0.44928 0.0
C4358 C 0.25214 0.19318 0.44563 0.0
C4359 C 0.26307 0.20363 0.45542 0.0
N4360 N 0.26571 0.22787 0.47413 0.0
N4361 N 0.23192 0.196 0.4232 0.0
C4362 C 0.25575 0.21801 0.46391 0.0
C4363 C 0.23711 0.20031 0.43925 0.0
N4364 N 0.23004 0.23409 0.47122 0.0
N4365 N 0.25567 0.17642 0.44257 0.0
H4366 H 0.22325 0.20337 0.41631 0.0
H4367 H 0.23862 0.18718 0.41579 0.0
H4368 H 0.26509 0.16981 0.44925 0.0
H4369 H 0.24738 0.16868 0.43558 0.0
H4370 H 0.23556 0.23987 0.48182 0.0
H4371 H 0.21781 0.23851 0.46839 0.0
H4372 H 0.26194 0.23968 0.47891 0.0
H4373 H 0.27791 0.22404 0.47775 0.0
C4374 C 0.28725 0.50607 0.21437 0.0
C4375 C 0.27844 0.50712 0.1986 0.0
C4376 C 0.27285 0.47646 0.20045 0.0
C4377 C 0.28593 0.47482 0.21257 0.0
N4378 N 0.30361 0.48815 0.23362 0.0
N4379 N 0.26459 0.49206 0.17546 0.0
C4380 C 0.2923 0.48973 0.22055 0.0
C4381 C 0.2713 0.49205 0.19145 0.0
N4382 N 0.29106 0.52065 0.2231 0.0
N4383 N 0.26228 0.46306 0.19733 0.0
H4384 H 0.26522 0.50267 0.16763 0.0
H4385 H 0.26039 0.481 0.16937 0.0
H4386 H 0.26267 0.45218 0.205 0.0
H4387 H 0.2519 0.46386 0.18905 0.0
H4388 H 0.29644 0.52077 0.23524 0.0
H4389 H 0.28729 0.53267 0.21877 0.0
H4390 H 0.31008 0.49839 0.23906 0.0
H4391 H 0.30647 0.47629 0.23887 0.0
C4392 C 0.53777 0.45689 0.48591 0.0
C4393 C 0.52754 0.44215 0.48437 0.0
C4394 C 0.52121 0.44451 0.51494 0.0
C4395 C 0.53529 0.45548 0.517 0.0
N4396 N 0.5591 0.46993 0.50363 0.0
N4397 N 0.51192 0.41994 0.49928 0.0
C4398 C 0.54406 0.46135 0.50223 0.0
C4399 C 0.51958 0.43551 0.49934 0.0
N4400 N 0.54184 0.4663 0.4719 0.0
N4401 N 0.51014 0.44188 0.5281 0.0
H4402 H 0.51236 0.41201 0.48876 0.0
H4403 H 0.50713 0.41416 0.51028 0.0
H4404 H 0.51088 0.44903 0.53931 0.0
H4405 H 0.49919 0.43441 0.52689 0.0
H4406 H 0.54892 0.47755 0.4726 0.0
H4407 H 0.53601 0.46398 0.46019 0.0
H4408 H 0.56673 0.47287 0.49311 0.0
H4409 H 0.56437 0.47307 0.51539 0.0
C4410 C 0.02587 0.78185 0.25668 0.0
C4411 C 0.0258 0.7997 0.25983 0.0
C4412 C 0.03121 0.80518 0.22955 0.0
C4413 C 0.03344 0.78738 0.22672 0.0
N4414 N 0.03021 0.75843 0.23668 0.0
N4415 N 0.02982 0.82846 0.24937 0.0
C4416 C 0.02976 0.77557 0.23997 0.0
C4417 C 0.02835 0.81135 0.2462 0.0
N4418 N 0.02377 0.77092 0.27004 0.0
N4419 N 0.0321 0.81652 0.21632 0.0
H4420 H 0.02753 0.83392 0.26118 0.0
H4421 H 0.03457 0.83728 0.24062 0.0
H4422 H 0.0375 0.81377 0.20458 0.0
H4423 H 0.02689 0.82874 0.21689 0.0
H4424 H 0.02696 0.75811 0.26949 0.0
H4425 H 0.01951 0.7749 0.28198 0.0
H4426 H 0.02621 0.74905 0.24518 0.0
H4427 H 0.03371 0.75337 0.22493 0.0
C4428 C 0.68206 0.2782 -8e-05 0.0
C4429 C 0.69602 0.27809 0.01151 0.0
C4430 C 0.71578 0.28024 0.98716 0.0
C4431 C 0.70147 0.28051 0.97596 0.0
N4432 N 0.6726 0.27156 0.97134 0.0
N4433 N 0.72627 0.27517 0.01604 0.0
C4434 C 0.68523 0.27633 0.98234 0.0
C4435 C 0.71297 0.27758 0.00506 0.0
N4436 N 0.66584 0.28147 0.00537 0.0
N4437 N 0.73175 0.28339 0.98097 0.0
H4438 H 0.72446 0.27365 0.02915 0.0
H4439 H 0.73882 0.27335 0.01205 0.0
H4440 H 0.73445 0.28392 0.96798 0.0
H4441 H 0.7423 0.28565 0.98871 0.0
H4442 H 0.65569 0.28348 -0.00298 0.0
H4443 H 0.66272 0.28353 0.01808 0.0
H4444 H 0.66046 0.26787 0.97533 0.0
H4445 H 0.675 0.2697 0.95835 0.0
C4446 C 0.20671 0.9385 0.73585 0.0
C4447 C 0.20633 0.9547 0.72795 0.0
C4448 C 0.21209 0.96806 0.7557 0.0
C4449 C 0.20765 0.95242 0.76366 0.0
N4450 N 0.2017 0.92216 0.76143 0.0
N4451 N 0.21413 0.98445 0.72933 0.0
C4452 C 0.20553 0.93739 0.75378 0.0
C4453 C 0.21103 0.96938 0.73751 0.0
N4454 N 0.2083 0.92422 0.726 0.0
N4455 N 0.21707 0.98154 0.76555 0.0
H4456 H 0.21588 0.9852 0.71619 0.0
H4457 H 0.21567 -0.0039 0.73547 0.0
H4458 H 0.2174 0.98096 0.77885 0.0
H4459 H 0.22193 0.99287 0.76069 0.0
H4460 H 0.20983 0.91198 0.73095 0.0
H4461 H 0.2101 0.92503 0.71284 0.0
H4462 H 0.19782 0.91139 0.7547 0.0
H4463 H 0.20139 0.92046 0.7746 0.0
C4464 C 0.53993 0.2879 0.22546 0.0
C4465 C 0.55544 0.29554 0.21968 0.0
C4466 C 0.55922 0.30951 0.24681 0.0
C4467 C 0.54332 0.30314 0.25297 0.0
N4468 N 0.51951 0.28372 0.24859 0.0
N4469 N 0.57389 0.31993 0.22206 0.0
C4470 C 0.53375 0.29171 0.24237 0.0
C4471 C 0.56294 0.30853 0.22941 0.0
N4472 N 0.5307 0.27783 0.21462 0.0
N4473 N 0.57173 0.31502 0.25764 0.0
H4474 H 0.57628 0.32001 0.20896 0.0
H4475 H 0.57878 0.33038 0.22871 0.0
H4476 H 0.57117 0.31344 0.27082 0.0
H4477 H 0.58379 0.3187 0.25333 0.0
H4478 H 0.51859 0.2731 0.21721 0.0
H4479 H 0.53427 0.2753 0.20212 0.0
H4480 H 0.51319 0.27384 0.24244 0.0
H4481 H 0.51425 0.28589 0.26052 0.0
C4482 C 0.20106 0.77438 0.00509 0.0
C4483 C 0.19862 0.7892 0.01514 0.0
C4484 C 0.20374 0.8073 0.99027 0.0
C4485 C 0.2029 0.79255 0.97967 0.0
N4486 N 0.20111 0.762 0.97666 0.0
N4487 N 0.20053 0.81953 0.01861 0.0
C4488 C 0.20206 0.77601 0.987 0.0
C4489 C 0.20126 0.80558 0.00811 0.0
N4490 N 0.20239 0.75886 0.01289 0.0
N4491 N 0.20674 0.82298 0.98325 0.0
H4492 H 0.20015 0.81838 0.03189 0.0
H4493 H 0.19998 0.83211 0.01442 0.0
H4494 H 0.20728 0.82505 0.97021 0.0
H4495 H 0.20948 0.83393 0.99021 0.0
H4496 H 0.20517 0.74756 0.00649 0.0
H4497 H 0.20263 0.75761 0.02611 0.0
H4498 H 0.19859 0.74974 0.98109 0.0
H4499 H 0.20196 0.76274 0.9634 0.0
C4500 C 0.7002 0.46313 0.75619 0.0
C4501 C 0.71013 0.44922 0.76216 0.0
C4502 C 0.71993 0.44412 0.7328 0.0
C4503 C 0.71 0.45818 0.72715 0.0
N4504 N 0.69767 0.48522 0.73482 0.0
N4505 N 0.7321 0.42842 0.75653 0.0
C4506 C 0.70261 0.46918 0.73933 0.0
C4507 C 0.72105 0.44048 0.75059 0.0
N4508 N 0.68739 0.46966 0.76595 0.0
N4509 N 0.72766 0.43386 0.72102 0.0
H4510 H 0.73293 0.42541 0.7694 0.0
H4511 H 0.74132 0.42246 0.74903 0.0
H4512 H 0.72818 0.43715 0.70813 0.0
H4513 H 0.73305 0.42206 0.72387 0.0
H4514 H 0.67875 0.47868 0.76138 0.0
H4515 H 0.68431 0.46466 0.77784 0.0
H4516 H 0.69282 0.49397 0.74359 0.0
H4517 H 0.7008 0.49039 0.72297 0.0
C4518 C 0.02262 0.956 0.50707 0.0
C4519 C 0.03055 0.943 0.51707 0.0
C4520 C 0.04438 0.93195 0.49216 0.0
C4521 C 0.03512 0.94295 0.48127 0.0
N4522 N 0.01543 0.96659 0.4787 0.0
N4523 N 0.04017 0.91368 0.51617 0.0
C4524 C 0.024 0.95528 0.48879 0.0
C4525 C 0.0381 0.92915 0.50852 0.0
N4526 N 0.0139 0.96884 0.51491 0.0
N4527 N 0.05987 0.92534 0.48775 0.0
H4528 H 0.03447 0.91088 0.5279 0.0
H4529 H 0.04575 0.90339 0.50979 0.0
H4530 H 0.06692 0.92997 0.47744 0.0
H4531 H 0.06681 0.9176 0.4961 0.0
H4532 H 0.00962 0.97977 0.50871 0.0
H4533 H 0.01082 0.96833 0.52781 0.0
H4534 H 0.00556 0.97433 0.4831 0.0
H4535 H 0.01834 0.96836 0.46584 0.0
C4536 C 0.48316 0.18255 0.2873 0.0
C4537 C 0.47465 0.19789 0.28359 0.0
C4538 C 0.50279 0.21179 0.28196 0.0
C4539 C 0.51006 0.19737 0.29025 0.0
N4540 N 0.50393 0.17173 0.30662 0.0
N4541 N 0.47688 0.22791 0.2764 0.0
C4542 C 0.49943 0.18344 0.29457 0.0
C4543 C 0.48458 0.2128 0.28033 0.0
N4544 N 0.47518 0.16724 0.28518 0.0
N4545 N 0.5131 0.22455 0.27612 0.0
H4546 H 0.46399 0.2289 0.27344 0.0
H4547 H 0.48336 0.23952 0.27625 0.0
H4548 H 0.52629 0.22446 0.27792 0.0
H4549 H 0.50866 0.23461 0.26864 0.0
H4550 H 0.4814 0.15566 0.28738 0.0
H4551 H 0.46309 0.16639 0.27964 0.0
H4552 H 0.4954 0.16244 0.31094 0.0
H4553 H 0.51549 0.17183 0.31311 0.0
C4554 C 0.72217 0.53113 0.80007 0.0
C4555 C 0.71992 0.54226 0.78608 0.0
C4556 C 0.75057 0.54018 0.7805 0.0
C4557 C 0.75314 0.53299 0.79683 0.0
N4558 N 0.74051 0.52428 0.8237 0.0
N4559 N 0.73339 0.56053 0.76518 0.0
C4560 C 0.73868 0.52902 0.80705 0.0
C4561 C 0.7345 0.54754 0.77669 0.0
N4562 N 0.70853 0.52292 0.80693 0.0
N4563 N 0.76345 0.54038 0.76883 0.0
H4564 H 0.72193 0.56663 0.7624 0.0
H4565 H 0.74412 0.56593 0.75942 0.0
H4566 H 0.77486 0.53391 0.77099 0.0
H4567 H 0.76182 0.54495 0.75645 0.0
H4568 H 0.70955 0.51403 0.81678 0.0
H4569 H 0.69682 0.52326 0.80079 0.0
H4570 H 0.73019 0.52286 0.832 0.0
H4571 H 0.75232 0.52339 0.82962 0.0
C4572 C 0.44691 0.00622 0.03708 0.0
C4573 C 0.45434 0.01137 0.05276 0.0
C4574 C 0.46208 0.9816 0.05852 0.0
C4575 C 0.45488 0.97659 0.04268 0.0
N4576 N 0.44636 0.98517 0.0145 0.0
N4577 N 0.47217 0.00433 0.07677 0.0
C4578 C 0.44943 0.9893 0.03111 0.0
C4579 C 0.46309 -0.00082 0.06285 0.0
N4580 N 0.43624 0.01692 0.02854 0.0
N4581 N 0.46724 0.96948 0.06987 0.0
H4582 H 0.47236 0.01693 0.0808 0.0
H4583 H 0.48043 -0.00361 0.08351 0.0
H4584 H 0.4687 0.95681 0.06637 0.0
H4585 H 0.4697 0.97201 0.08268 0.0
H4586 H 0.42863 0.01289 0.01845 0.0
H4587 H 0.43366 0.02919 0.03275 0.0
H4588 H 0.44323 0.99421 0.00525 0.0
H4589 H 0.44921 0.97313 0.00969 0.0
C4590 C 0.74043 0.71897 0.46207 0.0
C4591 C 0.72981 0.70488 0.45797 0.0
C4592 C 0.75488 0.68645 0.45587 0.0
C4593 C 0.76527 0.70109 0.45615 0.0
N4594 N 0.76922 0.72916 0.4678 0.0
N4595 N 0.72699 0.67519 0.44962 0.0
C4596 C 0.75847 0.71677 0.46195 0.0
C4597 C 0.737 0.68847 0.45486 0.0
N4598 N 0.73327 0.73461 0.46486 0.0
N4599 N 0.76237 0.67072 0.45609 0.0
H4600 H 0.71385 0.67614 0.44802 0.0
H4601 H 0.7318 0.66355 0.44541 0.0
H4602 H 0.77549 0.66931 0.458 0.0
H4603 H 0.75569 0.65927 0.45582 0.0
H4604 H 0.74021 0.74585 0.46617 0.0
H4605 H 0.72012 0.73642 0.46484 0.0
H4606 H 0.76514 0.74069 0.47294 0.0
H4607 H 0.78223 0.72694 0.46948 0.0
C4608 C 0.14425 0.25648 0.42004 0.0
C4609 C 0.15086 0.23997 0.4169 0.0
C4610 C 0.16412 0.2499 0.39061 0.0
C4611 C 0.16221 0.26659 0.39699 0.0
N4612 N 0.14328 0.28609 0.41052 0.0
N4613 N 0.16167 0.21954 0.3969 0.0
C4614 C 0.14906 0.2698 0.40879 0.0
C4615 C 0.15862 0.23616 0.40104 0.0
N4616 N 0.1352 0.25971 0.43457 0.0
N4617 N 0.17163 0.24744 0.37512 0.0
H4618 H 0.15715 0.20957 0.40453 0.0
H4619 H 0.16838 0.21562 0.38613 0.0
H4620 H 0.17465 0.25769 0.36721 0.0
H4621 H 0.17345 0.23555 0.36953 0.0
H4622 H 0.13155 0.27188 0.43841 0.0
H4623 H 0.13166 0.25011 0.44306 0.0
H4624 H 0.13331 0.28959 0.41858 0.0
H4625 H 0.14799 0.29582 0.40268 0.0
C4626 C 0.5864 0.26064 0.32398 0.0
C4627 C 0.58034 0.27028 0.31006 0.0
C4628 C 0.58325 0.2459 0.29147 0.0
C4629 C 0.58373 0.23547 0.30613 0.0
N4630 N 0.588 0.23246 0.33652 0.0
N4631 N 0.58664 0.27477 0.28053 0.0
C4632 C 0.58662 0.24267 0.32247 0.0
C4633 C 0.58311 0.26382 0.29356 0.0
N4634 N 0.59137 0.26885 0.33846 0.0
N4635 N 0.58218 0.23821 0.27596 0.0
H4636 H 0.58829 0.28779 0.28288 0.0
H4637 H 0.58992 0.27085 0.26827 0.0
H4638 H 0.58066 0.24475 0.26447 0.0
H4639 H 0.58066 0.24475 0.26447 0.0
H4640 H 0.59688 0.26269 0.34887 0.0
H4641 H 0.59118 0.28217 0.33913 0.0
H4642 H 0.58854 0.23719 0.34893 0.0
H4643 H 0.58752 0.21919 0.33583 0.0
C4644 C 0.14635 0.98998 0.81909 0.0
C4645 C 0.15172 0.00595 0.82558 0.0
C4646 C 0.16392 0.99182 0.85028 0.0
C4647 C 0.16425 0.97682 0.8404 0.0
N4648 N 0.1449 0.95943 0.8245 0.0
N4649 N 0.16135 0.02269 0.84933 0.0
C4650 C 0.1515 0.97511 0.82791 0.0
C4651 C 0.15863 0.00708 0.84221 0.0
N4652 N 0.1379 0.98905 0.80394 0.0
N4653 N 0.16933 0.99127 0.86676 0.0
H4654 H 0.15723 0.03388 0.84337 0.0
H4655 H 0.16786 0.02448 0.86077 0.0
H4656 H 0.17317 0.97973 0.87225 0.0
H4657 H 0.16878 0.00167 0.87501 0.0
H4658 H 0.13528 0.97754 0.79782 0.0
H4659 H 0.13402 -8e-05 0.79732 0.0
H4660 H 0.13485 0.95745 0.81604 0.0
H4661 H 0.14877 0.94876 0.83153 0.0
C4662 C 0.50293 0.90631 0.08208 0.0
C4663 C 0.50202 0.92336 0.08792 0.0
C4664 C 0.47118 0.92153 0.08946 0.0
C4665 C 0.47211 0.90665 0.0794 0.0
N4666 N 0.48724 0.88013 0.07694 0.0
N4667 N 0.48536 0.9458 0.10108 0.0
C4668 C 0.48751 0.89734 0.07924 0.0
C4669 C 0.4863 0.93031 0.09335 0.0
N4670 N 0.51841 0.89916 0.07857 0.0
N4671 N 0.45565 0.92823 0.09349 0.0
H4672 H 0.49605 0.9532 0.10394 0.0
H4673 H 0.49605 0.9532 0.10394 0.0
H4674 H 0.44438 0.92187 0.09028 0.0
H4675 H 0.45431 0.93967 0.10019 0.0
H4676 H 0.51983 0.88736 0.07263 0.0
H4677 H 0.52985 0.90549 0.08107 0.0
H4678 H 0.49809 0.87249 0.07754 0.0
H4679 H 0.47581 0.87335 0.07699 0.0
C4680 C 0.5159 0.40037 0.57234 0.0
C4681 C 0.5126 0.41436 0.58327 0.0
C4682 C 0.48236 0.40745 0.58284 0.0
C4683 C 0.48546 0.39841 0.56763 0.0
N4684 N 0.50371 0.37618 0.55729 0.0
N4685 N 0.49303 0.42919 0.60199 0.0
C4686 C 0.50187 0.39146 0.56531 0.0
C4687 C 0.49598 0.41686 0.59007 0.0
N4688 N 0.53231 0.39642 0.56812 0.0
N4689 N 0.46629 0.40754 0.58949 0.0
H4690 H 0.50278 0.43639 0.6074 0.0
H4691 H 0.48086 0.43264 0.60607 0.0
H4692 H 0.4565 0.4006 0.58367 0.0
H4693 H 0.46315 0.41318 0.60111 0.0
H4694 H 0.53552 0.38753 0.55877 0.0
H4695 H 0.54266 0.4025 0.57388 0.0
H4696 H 0.51539 0.36997 0.5559 0.0
H4697 H 0.49305 0.36893 0.55396 0.0
C4698 C 0.15986 0.72918 0.90562 0.0
C4699 C 0.15438 0.72966 0.92281 0.0
C4700 C 0.1524 0.76049 0.92137 0.0
C4701 C 0.16368 0.7597 0.90744 0.0
N4702 N 0.16629 0.74598 0.88029 0.0
N4703 N 0.14187 0.74535 0.94618 0.0
C4704 C 0.16329 0.74484 0.89736 0.0
C4705 C 0.14893 0.74519 0.93027 0.0
N4706 N 0.16275 0.7139 0.89784 0.0
N4707 N 0.14551 0.77577 0.92592 0.0
H4708 H 0.13934 0.73415 0.95293 0.0
H4709 H 0.13922 0.75655 0.95283 0.0
H4710 H 0.14811 0.78677 0.91881 0.0
H4711 H 0.13637 0.77711 0.9355 0.0
H4712 H 0.16837 0.71276 0.88584 0.0
H4713 H 0.15985 0.70233 0.90378 0.0
H4714 H 0.16537 0.73565 0.87198 0.0
H4715 H 0.1683 0.75784 0.87451 0.0
C4716 C 0.77332 0.73969 0.52944 0.0
C4717 C 0.77237 0.73478 0.54688 0.0
C4718 C 0.7652 0.76417 0.55431 0.0
C4719 C 0.77098 0.76963 0.53821 0.0
N4720 N 0.77936 0.76255 0.50942 0.0
N4721 N 0.76917 0.74343 0.57649 0.0
C4722 C 0.77427 0.75738 0.52527 0.0
C4723 C 0.76856 0.74726 0.55949 0.0
N4724 N 0.77372 0.72755 0.51699 0.0
N4725 N 0.75745 0.77554 0.56498 0.0
H4726 H 0.77188 0.73132 0.58116 0.0
H4727 H 0.76825 0.75266 0.58602 0.0
H4728 H 0.75504 0.78808 0.56117 0.0
H4729 H 0.75187 0.77201 0.57654 0.0
H4730 H 0.77315 0.7304 0.50403 0.0
H4731 H 0.7729 0.71459 0.5197 0.0
H4732 H 0.78446 0.7543 0.50033 0.0
H4733 H 0.77883 0.77523 0.50549 0.0
C4734 C 0.46082 0.75349 0.71754 0.0
C4735 C 0.45105 0.76149 0.70435 0.0
C4736 C 0.438 0.73488 0.69764 0.0
C4737 C 0.44921 0.72563 0.70835 0.0
N4738 N 0.47185 0.72674 0.72923 0.0
N4739 N 0.43981 0.75635 0.67609 0.0
C4740 C 0.46099 0.7351 0.71852 0.0
C4741 C 0.44307 0.75097 0.69231 0.0
N4742 N 0.46993 0.76312 0.72878 0.0
N4743 N 0.42239 0.7289 0.69283 0.0
H4744 H 0.44484 0.76775 0.67133 0.0
H4745 H 0.43392 0.74844 0.66714 0.0
H4746 H 0.41649 0.71868 0.699 0.0
H4747 H 0.4144 0.73595 0.68482 0.0
H4748 H 0.47543 0.75817 0.73981 0.0
H4749 H 0.47221 0.77607 0.72692 0.0
H4750 H 0.48202 0.73267 0.73537 0.0
H4751 H 0.47067 0.71374 0.73182 0.0
C4752 C 0.79957 0.98151 0.21418 0.0
C4753 C 0.80823 0.97165 0.20163 0.0
C4754 C 0.80459 0.99494 0.18121 0.0
C4755 C 0.80022 0.00608 0.19479 0.0
N4756 N 0.79278 0.00998 0.22443 0.0
N4757 N 0.8186 0.9689 0.17272 0.0
C4758 C 0.79711 -0.00066 0.21132 0.0
C4759 C 0.81045 0.97829 0.18495 0.0
N4760 N 0.79389 0.97395 0.22883 0.0
N4761 N 0.80269 0.00015 0.16467 0.0
H4762 H 0.82222 0.95628 0.17457 0.0
H4763 H 0.82257 0.97396 0.16108 0.0
H4764 H 0.79779 0.01206 0.16143 0.0
H4765 H 0.80408 0.99202 0.15424 0.0
H4766 H 0.78631 0.98016 0.23782 0.0
H4767 H 0.79518 0.96095 0.23115 0.0
H4768 H 0.79202 0.00606 0.23711 0.0
H4769 H 0.79097 0.02306 0.22284 0.0
C4770 C 0.50375 0.03395 0.96431 0.0
C4771 C 0.51561 0.03148 0.95086 0.0
C4772 C 0.49269 0.02805 0.9304 0.0
C4773 C 0.48064 0.03197 0.94338 0.0
N4774 N 0.47403 0.0335 0.97337 0.0
N4775 N 0.52124 0.01814 0.92403 0.0
C4776 C 0.48594 0.03299 0.96066 0.0
C4777 C 0.50992 0.02558 0.93494 0.0
N4778 N 0.50949 0.03831 0.98016 0.0
N4779 N 0.48801 0.02774 0.91363 0.0
H4780 H 0.53382 0.0158 0.9277 0.0
H4781 H 0.51761 0.01246 0.91258 0.0
H4782 H 0.47556 0.02976 0.90963 0.0
H4783 H 0.49675 0.02688 0.90363 0.0
H4784 H 0.50158 0.04244 0.99001 0.0
H4785 H 0.52241 0.03805 0.98331 0.0
H4786 H 0.4771 0.0328 0.98628 0.0
H4787 H 0.46098 0.03315 0.97087 0.0
C4788 C 0.49017 0.54292 0.42911 0.0
C4789 C 0.47945 0.54422 0.44367 0.0
C4790 C 0.50458 0.54379 0.46233 0.0
C4791 C 0.51507 0.54616 0.44771 0.0
N4792 N 0.51845 0.54556 0.41709 0.0
N4793 N 0.47585 0.54458 0.47417 0.0
C4794 C 0.50804 0.54454 0.43108 0.0
C4795 C 0.48648 0.54391 0.46034 0.0
N4796 N 0.48322 0.54021 0.41334 0.0
N4797 N 0.51186 0.54155 0.478 0.0
H4798 H 0.4626 0.54417 0.47307 0.0
H4799 H 0.48 0.54629 0.48666 0.0
H4800 H 0.52498 0.5407 0.47978 0.0
H4801 H 0.50502 0.53874 0.48904 0.0
H4802 H 0.49023 0.53698 0.40254 0.0
H4803 H 0.47016 0.54016 0.41108 0.0
H4804 H 0.51417 0.54711 0.40463 0.0
H4805 H 0.53168 0.54554 0.41795 0.0
C4806 C 0.7942 0.25927 0.0259 0.0
C4807 C 0.8074 0.26726 0.03564 0.0
C4808 C 0.81755 0.23927 0.0443 0.0
C4809 C 0.80255 0.23145 0.03808 0.0
N4810 N 0.77798 0.23349 0.0197 0.0
N4811 N 0.82826 0.26431 0.05815 0.0
C4812 C 0.79118 0.24131 0.02792 0.0
C4813 C 0.81795 0.25707 0.04613 0.0
N4814 N 0.78512 0.26848 0.01421 0.0
N4815 N 0.83178 0.22983 0.04772 0.0
H4816 H 0.82819 0.27736 0.06069 0.0
H4817 H 0.83525 0.25702 0.06683 0.0
H4818 H 0.83269 0.21698 0.04431 0.0
H4819 H 0.84327 0.23536 0.05151 0.0
H4820 H 0.777 0.26303 0.00525 0.0
H4821 H 0.78615 0.28162 0.01285 0.0
H4822 H 0.76774 0.24003 0.01433 0.0
H4823 H 0.77755 0.22033 0.01787 0.0
C4824 C 0.59299 0.74664 0.82508 0.0
C4825 C 0.58403 0.73107 0.82466 0.0
C4826 C 0.56343 0.74209 0.84485 0.0
C4827 C 0.56813 0.75864 0.83911 0.0
N4828 N 0.59036 0.77723 0.82919 0.0
N4829 N 0.57015 0.71168 0.84361 0.0
C4830 C 0.5843 0.7611 0.83147 0.0
C4831 C 0.57245 0.72797 0.83803 0.0
N4832 N 0.60945 0.74728 0.81957 0.0
N4833 N 0.54987 0.73989 0.85553 0.0
H4834 H 0.57729 0.70167 0.83842 0.0
H4835 H 0.56241 0.70839 0.85391 0.0
H4836 H 0.54351 0.75005 0.8612 0.0
H4837 H 0.54501 0.72798 0.85885 0.0
H4838 H 0.617 0.75819 0.82032 0.0
H4839 H 0.61576 0.73618 0.81571 0.0
H4840 H 0.60127 0.78004 0.82212 0.0
H4841 H 0.58399 0.78778 0.83431 0.0
C4842 C 0.1471 0.49065 0.31603 0.0
C4843 C 0.15315 0.50521 0.32478 0.0
C4844 C 0.16272 0.48722 0.348 0.0
C4845 C 0.16321 0.47377 0.33611 0.0
N4846 N 0.14447 0.45966 0.31666 0.0
N4847 N 0.16257 0.51804 0.351 0.0
C4848 C 0.15136 0.4744 0.32268 0.0
C4849 C 0.15909 0.50375 0.34174 0.0
N4850 N 0.13823 0.49252 0.30124 0.0
N4851 N 0.1672 0.48415 0.36448 0.0
H4852 H 0.15983 0.53023 0.3464 0.0
H4853 H 0.16846 0.51776 0.3629 0.0
H4854 H 0.17038 0.47182 0.36845 0.0
H4855 H 0.16657 0.49334 0.37407 0.0
H4856 H 0.13484 0.48234 0.29341 0.0
H4857 H 0.13439 0.50453 0.29695 0.0
H4858 H 0.13514 0.45924 0.30722 0.0
H4859 H 0.14726 0.44799 0.3225 0.0
C4860 C 0.45375 0.24685 0.18331 0.0
C4861 C 0.45745 0.25666 0.19808 0.0
C4862 C 0.46038 0.23021 0.21471 0.0
C4863 C 0.45357 0.22078 0.20076 0.0
N4864 N 0.44508 0.21986 0.1712 0.0
N4865 N 0.4727 0.25691 0.22471 0.0
C4866 C 0.4509 0.22899 0.18481 0.0
C4867 C 0.46329 0.24816 0.21296 0.0
N4868 N 0.45411 0.25456 0.16764 0.0
N4869 N 0.46384 0.22202 0.22971 0.0
H4870 H 0.47702 0.26929 0.22253 0.0
H4871 H 0.47829 0.25132 0.23538 0.0
H4872 H 0.46317 0.20878 0.23102 0.0
H4873 H 0.46678 0.22831 0.24101 0.0
H4874 H 0.45243 0.24819 0.15612 0.0
H4875 H 0.45855 0.26702 0.16599 0.0
H4876 H 0.44011 0.22535 0.16017 0.0
H4877 H 0.44494 0.20665 0.17104 0.0
C4878 C 0.80614 0.50147 0.6919 0.0
C4879 C 0.79457 0.51266 0.69991 0.0
C4880 C 0.78143 0.48713 0.7132 0.0
C4881 C 0.79147 0.47662 0.70213 0.0
N4882 N 0.80538 0.47664 0.67444 0.0
N4883 N 0.77106 0.51581 0.71972 0.0
C4884 C 0.80103 0.48475 0.68922 0.0
C4885 C 0.78201 0.50543 0.71104 0.0
N4886 N 0.82215 0.50645 0.68723 0.0
N4887 N 0.77143 0.47991 0.72549 0.0
H4888 H 0.77286 0.52894 0.72056 0.0
H4889 H 0.7603 0.51136 0.72615 0.0
H4890 H 0.76878 0.46691 0.72591 0.0
H4891 H 0.76566 0.48688 0.73523 0.0
H4892 H 0.83074 0.49798 0.68155 0.0
H4893 H 0.82737 0.51803 0.69126 0.0
H4894 H 0.81227 0.48281 0.66483 0.0
H4895 H 0.80027 0.46477 0.67119 0.0
C4896 C 0.10502 0.13923 0.43592 0.0
C4897 C 0.1085 0.12159 0.43477 0.0
C4898 C 0.13743 0.12723 0.42498 0.0
C4899 C 0.13509 0.14428 0.43016 0.0
N4900 N 0.11683 0.16767 0.43834 0.0
N4901 N 0.12655 0.09827 0.42593 0.0
C4902 C 0.11876 0.15077 0.43442 0.0
C4903 C 0.12416 0.11541 0.42814 0.0
N4904 N 0.08872 0.14471 0.43887 0.0
N4905 N 0.15253 0.12248 0.41765 0.0
H4906 H 0.11681 0.08937 0.42775 0.0
H4907 H 0.13819 0.09273 0.42273 0.0
H4908 H 0.1623 0.13126 0.41538 0.0
H4909 H 0.1549 0.11042 0.41263 0.0
H4910 H 0.08505 0.15747 0.43864 0.0
H4911 H 0.07848 0.13629 0.44021 0.0
H4912 H 0.10583 0.17286 0.44367 0.0
H4913 H 0.1266 0.17656 0.4367 0.0
C4914 C 0.85067 0.36177 0.67986 0.0
C4915 C 0.85494 0.37808 0.68619 0.0
C4916 C 0.88467 0.36983 0.68856 0.0
C4917 C 0.87938 0.35268 0.68704 0.0
N4918 N 0.85833 0.33181 0.67897 0.0
N4919 N 0.87605 0.39856 0.69551 0.0
C4920 C 0.86275 0.34847 0.68151 0.0
C4921 C 0.87208 0.3826 0.6897 0.0
N4922 N 0.83494 0.35911 0.67286 0.0
N4923 N 0.90165 0.37368 0.68941 0.0
H4924 H 0.86718 0.40843 0.6963 0.0
H4925 H 0.88797 0.4018 0.70038 0.0
H4926 H 0.91107 0.36432 0.6885 0.0
H4927 H 0.90637 0.3861 0.68925 0.0
H4928 H 0.83136 0.34778 0.66694 0.0
H4929 H 0.82603 0.36894 0.67168 0.0
H4930 H 0.84589 0.32777 0.67664 0.0
H4931 H 0.86714 0.32187 0.6798 0.0
C4932 C 0.60236 0.13333 0.94376 0.0
C4933 C 0.60571 0.11563 0.94351 0.0
C4934 C 0.63559 0.12055 0.93629 0.0
C4935 C 0.63286 0.13799 0.93977 0.0
N4936 N 0.6141 0.16188 0.9446 0.0
N4937 N 0.62431 0.09176 0.93771 0.0
C4938 C 0.61627 0.14471 0.94245 0.0
C4939 C 0.62193 0.10902 0.93888 0.0
N4940 N 0.58596 0.1391 0.94539 0.0
N4941 N 0.65126 0.11519 0.93077 0.0
H4942 H 0.61433 0.08304 0.93883 0.0
H4943 H 0.63612 0.08594 0.93607 0.0
H4944 H 0.6614 0.12361 0.92887 0.0
H4945 H 0.65397 0.1028 0.92687 0.0
H4946 H 0.58241 0.15184 0.94427 0.0
H4947 H 0.57553 0.13094 0.94674 0.0
H4948 H 0.60286 0.16754 0.94884 0.0
H4949 H 0.62388 0.1706 0.9424 0.0
C4950 C 0.8571 0.85671 0.17995 0.0
C4951 C 0.87519 0.8574 0.18019 0.0
C4952 C 0.87467 0.88443 0.16467 0.0
C4953 C 0.85717 0.88541 0.1684 0.0
N4954 N 0.83096 0.86997 0.16957 0.0
N4955 N 0.90059 0.86749 0.16603 0.0
C4956 C 0.84815 0.8703 0.17202 0.0
C4957 C 0.88384 0.86979 0.17012 0.0
N4958 N 0.84861 0.84398 0.1883 0.0
N4959 N 0.88243 0.89828 0.15757 0.0
H4960 H 0.90695 0.85621 0.16898 0.0
H4961 H 0.90755 0.87581 0.15835 0.0
H4962 H 0.87526 0.90886 0.15374 0.0
H4963 H 0.89554 0.89937 0.15574 0.0
H4964 H 0.83542 0.84386 0.18991 0.0
H4965 H 0.85489 0.83388 0.19426 0.0
H4966 H 0.8235 0.85912 0.17137 0.0
H4967 H 0.82462 0.88047 0.16433 0.0
C4968 C 0.10842 0.10912 0.80709 0.0
C4969 C 0.11166 0.12692 0.80703 0.0
C4970 C 0.14003 0.1226 0.81886 0.0
C4971 C 0.13777 0.10508 0.81578 0.0
N4972 N 0.1192 0.0809 0.81414 0.0
N4973 N 0.12802 0.15112 0.81672 0.0
C4974 C 0.1215 0.09812 0.81271 0.0
C4975 C 0.12661 0.13387 0.8145 0.0
N4976 N 0.09349 0.10283 0.80061 0.0
N4977 N 0.15531 0.12815 0.82507 0.0
H4978 H 0.11818 0.15956 0.81368 0.0
H4979 H 0.13859 0.15714 0.82199 0.0
H4980 H 0.1649 0.11956 0.82855 0.0
H4981 H 0.1584 0.14086 0.82726 0.0
H4982 H 0.09108 0.08991 0.79878 0.0
H4983 H 0.0836 0.11061 0.79629 0.0
H4984 H 0.10747 0.07483 0.81285 0.0
H4985 H 0.12906 0.07287 0.81809 0.0
C4986 C 0.85973 0.35822 0.07904 0.0
C4987 C 0.86446 0.34219 0.07267 0.0
C4988 C 0.89116 0.35413 0.06235 0.0
C4989 C 0.88318 0.37045 0.06261 0.0
N4990 N 0.85985 0.38834 0.07259 0.0
N4991 N 0.88672 0.32336 0.06424 0.0
C4992 C 0.86774 0.37281 0.07197 0.0
C4993 C 0.88132 0.33965 0.06707 0.0
N4994 N 0.84619 0.35929 0.08988 0.0
N4995 N 0.90778 0.35259 0.05731 0.0
H4996 H 0.87906 0.31298 0.06765 0.0
H4997 H 0.89821 0.32021 0.05836 0.0
H4998 H 0.91524 0.36315 0.0541 0.0
H4999 H 0.91451 0.34115 0.05757 0.0
H5000 H 0.8424 0.37063 0.09572 0.0
H5001 H 0.83987 0.34828 0.09399 0.0
H5002 H 0.84785 0.39017 0.07801 0.0
H5003 H 0.86457 0.39917 0.0665 0.0
C5004 C 0.62008 0.10065 0.3176 0.0
C5005 C 0.63551 0.10717 0.31077 0.0
C5006 C 0.62496 0.13618 0.3129 0.0
C5007 C 0.60848 0.12923 0.31504 0.0
N5008 N 0.5906 0.10664 0.32543 0.0
N5009 N 0.65451 0.13066 0.30533 0.0
C5010 C 0.60619 0.11201 0.31978 0.0
C5011 C 0.63872 0.1249 0.31001 0.0
N5012 N 0.61859 0.08357 0.32083 0.0
N5013 N 0.62692 0.15349 0.31271 0.0
H5014 H 0.66484 0.12242 0.30359 0.0
H5015 H 0.65743 0.1434 0.30304 0.0
H5016 H 0.61661 0.16166 0.31493 0.0
H5017 H 0.6386 0.15969 0.31161 0.0
H5018 H 0.60756 0.07765 0.32521 0.0
H5019 H 0.62882 0.07515 0.31943 0.0
H5020 H 0.58779 0.09422 0.32913 0.0
H5021 H 0.58043 0.11504 0.32718 0.0
C5022 C 0.87663 0.84597 0.55436 0.0
C5023 C 0.85902 0.84961 0.55571 0.0
C5024 C 0.86481 0.87958 0.56157 0.0
C5025 C 0.88179 0.87651 0.55639 0.0
N5026 N 0.90552 0.85731 0.55351 0.0
N5027 N 0.83599 0.86852 0.56352 0.0
C5028 C 0.8883 0.85973 0.55489 0.0
C5029 C 0.85305 0.86593 0.56083 0.0
N5030 N 0.88182 0.82954 0.55164 0.0
N5031 N 0.85999 0.89554 0.5667 0.0
H5032 H 0.82714 0.85861 0.56371 0.0
H5033 H 0.8304 0.88043 0.56528 0.0
H5034 H 0.86837 0.90585 0.56691 0.0
H5035 H 0.84813 0.89843 0.57194 0.0
H5036 H 0.89439 0.82587 0.54952 0.0
H5037 H 0.87326 0.81934 0.55171 0.0
H5038 H 0.91141 0.84548 0.5524 0.0
H5039 H 0.91415 0.86743 0.55438 0.0
C5040 C 0.42462 0.1513 0.11475 0.0
C5041 C 0.41675 0.1479 0.13058 0.0
C5042 C 0.41592 0.11764 0.12471 0.0
C5043 C 0.42652 0.12049 0.11015 0.0
N5044 N 0.43511 0.14001 0.08785 0.0
N5045 N 0.39694 0.13053 0.14569 0.0
C5046 C 0.4288 0.13739 0.10389 0.0
C5047 C 0.40906 0.13199 0.13331 0.0
N5048 N 0.42979 0.16755 0.11131 0.0
N5049 N 0.41393 0.10169 0.13146 0.0
H5050 H 0.39289 0.14123 0.15256 0.0
H5051 H 0.39008 0.11935 0.14787 0.0
H5052 H 0.42002 0.0909 0.12668 0.0
H5053 H 0.40748 0.09939 0.14287 0.0
H5054 H 0.43751 0.17087 0.10101 0.0
H5055 H 0.42653 0.17763 0.11942 0.0
H5056 H 0.43618 0.15202 0.08226 0.0
H5057 H 0.4379 0.12995 0.07957 0.0
C5058 C 0.85114 0.68127 0.35523 0.0
C5059 C 0.84904 0.67981 0.37302 0.0
C5060 C 0.87887 0.67239 0.37696 0.0
C5061 C 0.88144 0.67707 0.3598 0.0
N5062 N 0.87056 0.67874 0.3312 0.0
N5063 N 0.85839 0.66783 0.39977 0.0
C5064 C 0.86759 0.67872 0.34837 0.0
C5065 C 0.86206 0.67287 0.38348 0.0
N5066 N 0.83775 0.68641 0.34535 0.0
N5067 N 0.89258 0.66893 0.38713 0.0
H5068 H 0.84608 0.66835 0.4048 0.0
H5069 H 0.86712 0.66189 0.40781 0.0
H5070 H 0.90495 0.66812 0.38224 0.0
H5071 H 0.89184 0.66717 0.40027 0.0
H5072 H 0.83883 0.68956 0.33248 0.0
H5073 H 0.82548 0.68785 0.35036 0.0
H5074 H 0.86095 0.67921 0.32205 0.0
H5075 H 0.88276 0.67677 0.32622 0.0
C5076 C 0.30961 0.12661 0.6402 0.0
C5077 C 0.3098 0.10935 0.63495 0.0
C5078 C 0.31435 0.11731 0.60541 0.0
C5079 C 0.31098 0.13434 0.6103 0.0
N5080 N 0.31154 0.15635 0.6316 0.0
N5081 N 0.31827 0.08798 0.61461 0.0
C5082 C 0.31097 0.1394 0.62757 0.0
C5083 C 0.31449 0.10462 0.6182 0.0
N5084 N 0.3069 0.13051 0.65698 0.0
N5085 N 0.31603 0.1133 0.58851 0.0
H5086 H 0.31818 0.0785 0.62396 0.0
H5087 H 0.32274 0.08376 0.60285 0.0
H5088 H 0.31645 0.1226 0.57898 0.0
H5089 H 0.31668 0.1009 0.58383 0.0
H5090 H 0.30486 0.14281 0.66153 0.0
H5091 H 0.30646 0.12114 0.66645 0.0
H5092 H 0.31236 0.16101 0.64399 0.0
H5093 H 0.31248 0.16579 0.62223 0.0
C5094 C 0.88793 0.55793 0.8536 0.0
C5095 C 0.88673 0.55903 0.87158 0.0
C5096 C 0.85784 0.57013 0.86961 0.0
C5097 C 0.85757 0.56411 0.85269 0.0
N5098 N 0.87265 0.55948 0.82655 0.0
N5099 N 0.87212 0.56883 0.89692 0.0
C5100 C 0.87298 0.56087 0.84391 0.0
C5101 C 0.87236 0.56656 0.87962 0.0
N5102 N 0.90294 0.55301 0.84619 0.0
N5103 N 0.84417 0.57878 0.87605 0.0
H5104 H 0.88274 0.56666 0.90462 0.0
H5105 H 0.86125 0.57222 0.90377 0.0
H5106 H 0.83347 0.5816 0.86875 0.0
H5107 H 0.84415 0.58472 0.88793 0.0
H5108 H 0.90461 0.55114 0.83316 0.0
H5109 H 0.914 0.55102 0.85333 0.0
H5110 H 0.88325 0.55689 0.81898 0.0
H5111 H 0.86145 0.5618 0.81971 0.0
C5112 C 0.13963 0.42557 0.11808 0.0
C5113 C 0.13499 0.43437 0.1332 0.0
C5114 C 0.10489 0.43037 0.12685 0.0
C5115 C 0.10974 0.42623 0.11009 0.0
N5116 N 0.12982 0.41307 0.09132 0.0
N5117 N 0.11346 0.44343 0.15347 0.0
C5118 C 0.12657 0.4212 0.10637 0.0
C5119 C 0.11765 0.43572 0.13838 0.0
N5120 N 0.15644 0.42234 0.1147 0.0
N5121 N 0.08796 0.43039 0.13097 0.0
H5122 H 0.12253 0.4477 0.16219 0.0
H5123 H 0.10102 0.44628 0.15711 0.0
H5124 H 0.07874 0.42683 0.12203 0.0
H5125 H 0.08327 0.4325 0.14322 0.0
H5126 H 0.16091 0.41675 0.10353 0.0
H5127 H 0.1661 0.4252 0.1234 0.0
H5128 H 0.14178 0.40878 0.0875 0.0
H5129 H 0.11998 0.40978 0.08298 0.0
C5130 C 0.63953 0.32154 0.12163 0.0
C5131 C 0.63105 0.31384 0.1076 0.0
C5132 C 0.60353 0.31956 0.12088 0.0
C5133 C 0.61223 0.32216 0.1364 0.0
N5134 N 0.63692 0.33218 0.15085 0.0
N5135 N 0.60513 0.30815 0.0921 0.0
C5136 C 0.62977 0.32587 0.13631 0.0
C5137 C 0.61301 0.31415 0.10644 0.0
N5138 N 0.65682 0.32368 0.12115 0.0
N5139 N 0.5862 0.32108 0.1206 0.0
H5140 H 0.61193 0.30449 0.08124 0.0
H5141 H 0.59201 0.3064 0.09107 0.0
H5142 H 0.57946 0.32496 0.13144 0.0
H5143 H 0.57882 0.31991 0.10964 0.0
H5144 H 0.66396 0.32889 0.13102 0.0
H5145 H 0.66409 0.3206 0.11042 0.0
H5146 H 0.6498 0.33497 0.15231 0.0
H5147 H 0.62935 0.33513 0.16145 0.0
C5148 C 0.67899 0.86856 0.37551 0.0
C5149 C 0.68937 0.86913 0.36072 0.0
C5150 C 0.68752 0.83809 0.35814 0.0
C5151 C 0.68043 0.8379 0.37471 0.0
N5152 N 0.65701 0.85177 0.38885 0.0
N5153 N 0.69837 0.85524 0.33459 0.0
C5154 C 0.67214 0.85276 0.38038 0.0
C5155 C 0.69191 0.8541 0.35077 0.0
N5156 N 0.67588 0.8828 0.38504 0.0
N5157 N 0.69071 0.82292 0.35027 0.0
H5158 H 0.70135 0.86686 0.32882 0.0
H5159 H 0.69998 0.84485 0.32651 0.0
H5160 H 0.68697 0.81142 0.35593 0.0
H5161 H 0.69698 0.82164 0.33863 0.0
H5162 H 0.66924 0.88226 0.39658 0.0
H5163 H 0.68107 0.89471 0.38213 0.0
H5164 H 0.65005 0.86257 0.39237 0.0
H5165 H 0.6505 0.8402 0.38994 0.0
C5166 C 0.13208 0.94266 0.59612 0.0
C5167 C 0.11452 0.9427 0.60037 0.0
C5168 C 0.12068 0.93386 0.62958 0.0
C5169 C 0.13809 0.93682 0.62599 0.0
N5170 N 0.16109 0.93743 0.60585 0.0
N5171 N 0.09158 0.93449 0.61918 0.0
C5172 C 0.14401 0.93875 0.60907 0.0
C5173 C 0.10865 0.93673 0.61646 0.0
N5174 N 0.13726 0.9474 0.58013 0.0
N5175 N 0.11581 0.92876 0.64556 0.0
H5176 H 0.08281 0.935 0.60928 0.0
H5177 H 0.08598 0.93165 0.63087 0.0
H5178 H 0.12448 0.92638 0.65531 0.0
H5179 H 0.10336 0.92604 0.6492 0.0
H5180 H 0.14995 0.94913 0.57663 0.0
H5181 H 0.12871 0.95021 0.57033 0.0
H5182 H 0.16647 0.93785 0.59371 0.0
H5183 H 0.16979 0.93451 0.61552 0.0
C5184 C 0.56738 0.36861 0.35855 0.0
C5185 C 0.56282 0.35126 0.35876 0.0
C5186 C 0.55738 0.35187 0.38915 0.0
C5187 C 0.5575 0.36987 0.38788 0.0
N5188 N 0.56572 0.39573 0.37331 0.0
N5189 N 0.56076 0.32493 0.37403 0.0
C5190 C 0.56408 0.37836 0.37331 0.0
C5191 C 0.56066 0.34235 0.37421 0.0
N5192 N 0.57403 0.37562 0.34404 0.0
N5193 N 0.55281 0.3442 0.40414 0.0
H5194 H 0.56312 0.31817 0.36278 0.0
H5195 H 0.55966 0.31732 0.38486 0.0
H5196 H 0.55055 0.35114 0.41527 0.0
H5197 H 0.55115 0.33112 0.40562 0.0
H5198 H 0.57839 0.38811 0.34312 0.0
H5199 H 0.57644 0.36832 0.33318 0.0
H5200 H 0.56879 0.40294 0.36259 0.0
H5201 H 0.56369 0.40309 0.38422 0.0
C5202 C 0.12312 0.81214 0.12116 0.0
C5203 C 0.11951 0.80488 0.10508 0.0
C5204 C 0.08915 0.80661 0.11056 0.0
C5205 C 0.09316 0.80852 0.12795 0.0
N5206 N 0.11308 0.81677 0.14995 0.0
N5207 N 0.09944 0.79718 0.08301 0.0
C5208 C 0.10981 0.81311 0.13323 0.0
C5209 C 0.10257 0.8032 0.09907 0.0
N5210 N 0.13928 0.81758 0.12487 0.0
N5211 N 0.07247 0.80686 0.1056 0.0
H5212 H 0.10914 0.79459 0.07426 0.0
H5213 H 0.08732 0.79404 0.07861 0.0
H5214 H 0.06268 0.80906 0.11439 0.0
H5215 H 0.06857 0.8064 0.09291 0.0
H5216 H 0.14243 0.82424 0.13591 0.0
H5217 H 0.14931 0.81669 0.11615 0.0
H5218 H 0.1253 0.81785 0.15501 0.0
H5219 H 0.1035 0.81847 0.15899 0.0
C5220 C 0.06164 0.37702 0.85599 0.0
C5221 C 0.05975 0.36029 0.8628 0.0
C5222 C 0.06332 0.37077 0.89167 0.0
C5223 C 0.0626 0.38741 0.88487 0.0
N5224 N 0.06914 0.40645 0.86189 0.0
N5225 N 0.06479 0.34042 0.88569 0.0
C5226 C 0.06498 0.39046 0.8674 0.0
C5227 C 0.06292 0.35687 0.88023 0.0
N5228 N 0.05842 0.38039 0.83917 0.0
N5229 N 0.0629 0.36851 0.90894 0.0
H5230 H 0.06444 0.33013 0.87724 0.0
H5231 H 0.068 0.33712 0.89814 0.0
H5232 H 0.06365 0.37882 0.91736 0.0
H5233 H 0.06146 0.3567 0.91485 0.0
H5234 H 0.05767 0.3927 0.83422 0.0
H5235 H 0.0553 0.37109 0.83024 0.0
H5236 H 0.07223 0.40926 0.84926 0.0
H5237 H 0.07118 0.41645 0.87045 0.0
C5238 C 0.14523 0.62888 0.30864 0.0
C5239 C 0.1439 0.61129 0.31203 0.0
C5240 C 0.11297 0.61243 0.31175 0.0
C5241 C 0.11429 0.62955 0.30609 0.0
N5242 N 0.13044 0.65574 0.30459 0.0
N5243 N 0.12772 0.58792 0.32355 0.0
C5244 C 0.13007 0.63841 0.30651 0.0
C5245 C 0.12809 0.60372 0.3162 0.0
N5246 N 0.16099 0.63596 0.30631 0.0
N5247 N 0.09757 0.60423 0.31163 0.0
H5248 H 0.13884 0.58137 0.32678 0.0
H5249 H 0.11662 0.5821 0.32796 0.0
H5250 H 0.08618 0.61025 0.30834 0.0
H5251 H 0.09615 0.59121 0.31384 0.0
H5252 H 0.16302 0.64831 0.30188 0.0
H5253 H 0.17215 0.62902 0.30855 0.0
H5254 H 0.14143 0.66307 0.3058 0.0
H5255 H 0.11938 0.66299 0.30311 0.0
C5256 C 0.35692 0.89579 0.05126 0.0
C5257 C 0.37338 0.88837 0.04961 0.0
C5258 C 0.3635 0.86289 0.06419 0.0
C5259 C 0.34663 0.86799 0.0606 0.0
N5260 N 0.32667 0.89058 0.05642 0.0
N5261 N 0.39296 0.86521 0.05556 0.0
C5262 C 0.34322 0.88521 0.0566 0.0
C5263 C 0.37695 0.87209 0.05661 0.0
N5264 N 0.35448 0.91263 0.04741 0.0
N5265 N 0.36661 0.8496 0.07497 0.0
H5266 H 0.4033 0.87165 0.05016 0.0
H5267 H 0.39566 0.85263 0.05893 0.0
H5268 H 0.35695 0.84382 0.08201 0.0
H5269 H 0.37883 0.84607 0.07882 0.0
H5270 H 0.34301 0.91904 0.04928 0.0
H5271 H 0.3643 0.9205 0.04304 0.0
H5272 H 0.32268 0.90249 0.05211 0.0
H5273 H 0.31683 0.88258 0.06059 0.0
C5274 C 0.11657 0.60147 0.93227 0.0
C5275 C 0.10074 0.60853 0.93737 0.0
C5276 C 0.11262 0.63713 0.93755 0.0
C5277 C 0.12901 0.62962 0.93607 0.0
N5278 N 0.14665 0.60633 0.92647 0.0
N5279 N 0.08197 0.63254 0.94 0.0
C5280 C 0.13098 0.61233 0.93127 0.0
C5281 C 0.09816 0.62633 0.93805 0.0
N5282 N 0.11789 0.58425 0.92978 0.0
N5283 N 0.11124 0.65444 0.93923 0.0
H5284 H 0.07134 0.62451 0.94014 0.0
H5285 H 0.07887 0.64541 0.94073 0.0
H5286 H 0.12179 0.66249 0.93811 0.0
H5287 H 0.09986 0.66094 0.94133 0.0
H5288 H 0.12928 0.5778 0.92766 0.0
H5289 H 0.10726 0.57622 0.92997 0.0
H5290 H 0.14887 0.59411 0.92183 0.0
H5291 H 0.15749 0.61402 0.92609 0.0
C5292 C 0.38815 0.8745 0.67181 0.0
C5293 C 0.38515 0.85771 0.67745 0.0
C5294 C 0.3558 0.86498 0.68437 0.0
C5295 C 0.36061 0.88235 0.68374 0.0
N5296 N 0.38084 0.90422 0.67561 0.0
N5297 N 0.36564 0.83595 0.68743 0.0
C5298 C 0.37646 0.88738 0.67658 0.0
C5299 C 0.36864 0.85246 0.68267 0.0
N5300 N 0.40262 0.87803 0.66277 0.0
N5301 N 0.3391 0.86058 0.68687 0.0
H5302 H 0.37455 0.82623 0.68585 0.0
H5303 H 0.35453 0.83201 0.69357 0.0
H5304 H 0.32944 0.86967 0.68809 0.0
H5305 H 0.33464 0.84809 0.68606 0.0
H5306 H 0.40511 0.88986 0.65724 0.0
H5307 H 0.41128 0.86843 0.6595 0.0
H5308 H 0.39295 0.90842 0.6721 0.0
H5309 H 0.37269 0.91406 0.67932 0.0
C5310 C 0.56257 0.87244 0.8569 0.0
C5311 C 0.55976 0.85511 0.86098 0.0
C5312 C 0.56211 0.86107 0.89138 0.0
C5313 C 0.56088 0.8786 0.8873 0.0
N5314 N 0.56281 0.90166 0.86704 0.0
N5315 N 0.56013 0.83189 0.88103 0.0
C5316 C 0.56248 0.88451 0.87028 0.0
C5317 C 0.561 0.84904 0.87795 0.0
N5318 N 0.56474 0.87721 0.84025 0.0
N5319 N 0.56382 0.85616 0.90802 0.0
H5320 H 0.55997 0.82293 0.87117 0.0
H5321 H 0.55942 0.82647 0.89312 0.0
H5322 H 0.56453 0.86495 0.91799 0.0
H5323 H 0.56563 0.84361 0.91196 0.0
H5324 H 0.56788 0.8895 0.83635 0.0
H5325 H 0.56464 0.86845 0.83023 0.0
H5326 H 0.56199 0.90701 0.85492 0.0
H5327 H 0.56358 0.91075 0.87674 0.0
C5328 C 0.10676 0.30907 0.62918 0.0
C5329 C 0.1147 0.30248 0.64397 0.0
C5330 C 0.14243 0.30414 0.63037 0.0
C5331 C 0.13382 0.30564 0.61461 0.0
N5332 N 0.10853 0.31238 0.59849 0.0
N5333 N 0.13994 0.29703 0.66045 0.0
C5334 C 0.11624 0.30957 0.61387 0.0
C5335 C 0.13262 0.30152 0.64529 0.0
N5336 N 0.09014 0.31426 0.62987 0.0
N5337 N 0.15985 0.3044 0.63068 0.0
H5338 H 0.13279 0.29558 0.6716 0.0
H5339 H 0.15288 0.29449 0.66197 0.0
H5340 H 0.16704 0.30628 0.6196 0.0
H5341 H 0.16706 0.30409 0.64181 0.0
H5342 H 0.08376 0.32001 0.61974 0.0
H5343 H 0.0833 0.31437 0.64129 0.0
H5344 H 0.09538 0.31335 0.5969 0.0
H5345 H 0.11536 0.31325 0.5871 0.0
C5346 C 0.37281 0.68209 0.8553 0.0
C5347 C 0.38887 0.68694 0.86205 0.0
C5348 C 0.3775 0.68677 0.89091 0.0
C5349 C 0.36097 0.68605 0.88371 0.0
N5350 N 0.3424 0.67832 0.8606 0.0
N5351 N 0.40791 0.6903 0.88578 0.0
C5352 C 0.35848 0.6818 0.86638 0.0
C5353 C 0.39174 0.6877 0.87982 0.0
N5354 N 0.37131 0.67879 0.83823 0.0
N5355 N 0.37926 0.68709 0.90826 0.0
H5356 H 0.4185 0.69041 0.87768 0.0
H5357 H 0.41096 0.69236 0.89852 0.0
H5358 H 0.36878 0.68602 0.91642 0.0
H5359 H 0.39089 0.68725 0.91461 0.0
H5360 H 0.35999 0.67558 0.83214 0.0
H5361 H 0.38179 0.67873 0.83001 0.0
H5362 H 0.33938 0.67533 0.84805 0.0
H5363 H 0.33185 0.67793 0.86871 0.0
C5364 C 0.86369 0.06917 0.35818 0.0
C5365 C 0.84844 0.06298 0.3657 0.0
C5366 C 0.8626 0.05874 0.3928 0.0
C5367 C 0.87831 0.06061 0.38406 0.0
N5368 N 0.89424 0.07335 0.36097 0.0
N5369 N 0.83191 0.05522 0.39029 0.0
C5370 C 0.87901 0.068 0.36761 0.0
C5371 C 0.84734 0.05932 0.38327 0.0
N5372 N 0.86359 0.07453 0.34157 0.0
N5373 N 0.86253 0.05627 0.41005 0.0
H5374 H 0.82057 0.05621 0.38336 0.0
H5375 H 0.83027 0.05067 0.40266 0.0
H5376 H 0.87374 0.0567 0.41716 0.0
H5377 H 0.85153 0.05536 0.41745 0.0
H5378 H 0.87446 0.07731 0.33446 0.0
H5379 H 0.85234 0.07615 0.33469 0.0
H5380 H 0.89547 0.08015 0.34963 0.0
H5381 H 0.90581 0.07192 0.3673 0.0
C5382 C 0.42035 0.63828 0.62392 0.0
C5383 C 0.42529 0.63302 0.64034 0.0
C5384 C 0.43196 0.60457 0.63036 0.0
C5385 C 0.43142 0.61128 0.61354 0.0
N5386 N 0.42216 0.63277 0.59352 0.0
N5387 N 0.42949 0.61079 0.66075 0.0
C5388 C 0.42421 0.62748 0.61002 0.0
C5389 C 0.4285 0.61576 0.64407 0.0
N5390 N 0.41276 0.65381 0.62187 0.0
N5391 N 0.43671 0.58799 0.63307 0.0
H5392 H 0.42684 0.61932 0.67066 0.0
H5393 H 0.43223 0.59847 0.66484 0.0
H5394 H 0.43946 0.57957 0.62313 0.0
H5395 H 0.43778 0.58235 0.64502 0.0
H5396 H 0.40803 0.65833 0.61031 0.0
H5397 H 0.40997 0.66163 0.63228 0.0
H5398 H 0.41837 0.64501 0.59006 0.0
H5399 H 0.42464 0.62484 0.58311 0.0
C5400 C 0.86883 0.17695 0.89012 0.0
C5401 C 0.85405 0.18159 0.88072 0.0
C5402 C 0.87008 0.18192 0.85433 0.0
C5403 C 0.88513 0.18163 0.86426 0.0
N5404 N 0.89973 0.17372 0.88999 0.0
N5405 N 0.83946 0.18624 0.85415 0.0
C5406 C 0.8848 0.1772 0.88168 0.0
C5407 C 0.85424 0.18292 0.86278 0.0
N5408 N 0.86756 0.17355 0.90719 0.0
N5409 N 0.87117 0.18123 0.83696 0.0
H5410 H 0.82757 0.1863 0.86019 0.0
H5411 H 0.83897 0.1894 0.84125 0.0
H5412 H 0.8828 0.17938 0.83081 0.0
H5413 H 0.86066 0.1806 0.82888 0.0
H5414 H 0.87785 0.17123 0.91522 0.0
H5415 H 0.85589 0.17265 0.91349 0.0
H5416 H 0.90061 0.17002 0.90269 0.0
H5417 H 0.91152 0.17384 0.8838 0.0
C5418 C 0.92937 0.6201 0.10094 0.0
C5419 C 0.9319 0.60527 0.11103 0.0
C5420 C 0.92282 0.62042 0.13642 0.0
C5421 C 0.92553 0.63566 0.12731 0.0
N5422 N 0.92612 0.65101 0.10097 0.0
N5423 N 0.92823 0.58999 0.13753 0.0
C5424 C 0.92651 0.63576 0.1094 0.0
C5425 C 0.92722 0.60486 0.12847 0.0
N5426 N 0.93035 0.61913 0.08355 0.0
N5427 N 0.91721 0.62123 0.15289 0.0
H5428 H 0.93134 0.57835 0.13188 0.0
H5429 H 0.92652 0.58921 0.15068 0.0
H5430 H 0.91428 0.6329 0.15863 0.0
H5431 H 0.91416 0.61058 0.16022 0.0
H5432 H 0.92814 0.62935 0.07538 0.0
H5433 H 0.93239 0.60762 0.07718 0.0
H5434 H 0.92818 0.65246 0.08794 0.0
H5435 H 0.92364 0.6624 0.10743 0.0
C5436 C 0.61788 0.64634 0.4222 0.0
C5437 C 0.63458 0.64362 0.42828 0.0
C5438 C 0.62938 0.61313 0.43006 0.0
C5439 C 0.61181 0.61676 0.42911 0.0
N5440 N 0.58877 0.63606 0.42225 0.0
N5441 N 0.65717 0.62426 0.43689 0.0
C5442 C 0.60585 0.63304 0.42402 0.0
C5443 C 0.64086 0.62689 0.4313 0.0
N5444 N 0.61358 0.6618 0.41541 0.0
N5445 N 0.63485 0.59658 0.4304 0.0
H5446 H 0.66626 0.63388 0.43775 0.0
H5447 H 0.66151 0.61258 0.4415 0.0
H5448 H 0.62638 0.58632 0.4296 0.0
H5449 H 0.64766 0.59309 0.42974 0.0
H5450 H 0.60188 0.66429 0.40964 0.0
H5451 H 0.62251 0.67163 0.41418 0.0
H5452 H 0.58361 0.64816 0.42038 0.0
H5453 H 0.57959 0.6265 0.4234 0.0
C5454 C 0.61894 0.61989 0.81122 0.0
C5455 C 0.63425 0.62467 0.80275 0.0
C5456 C 0.63089 0.65385 0.81299 0.0
C5457 C 0.61372 0.64988 0.81646 0.0
N5458 N 0.59645 0.62895 0.83055 0.0
N5459 N 0.65658 0.64543 0.79781 0.0
C5460 C 0.60931 0.63274 0.81945 0.0
C5461 C 0.6411 0.64136 0.80477 0.0
N5462 N 0.61352 0.60331 0.81107 0.0
N5463 N 0.63632 0.67014 0.81574 0.0
H5464 H 0.6641 0.63661 0.79127 0.0
H5465 H 0.66173 0.65765 0.79789 0.0
H5466 H 0.62809 0.67922 0.82103 0.0
H5467 H 0.64879 0.67427 0.81385 0.0
H5468 H 0.60161 0.59947 0.81554 0.0
H5469 H 0.62069 0.59341 0.80578 0.0
H5470 H 0.59315 0.61658 0.83407 0.0
H5471 H 0.59067 0.63837 0.83793 0.0
C5472 C 0.31477 0.60568 0.11959 0.0
C5473 C 0.31036 0.61157 0.13603 0.0
C5474 C 0.30331 0.63958 0.12458 0.0
C5475 C 0.30315 0.63205 0.10811 0.0
N5476 N 0.31046 0.6089 0.08916 0.0
N5477 N 0.30493 0.63463 0.15523 0.0
C5478 C 0.30981 0.61549 0.10531 0.0
C5479 C 0.30661 0.62896 0.13884 0.0
N5480 N 0.32314 0.59051 0.11776 0.0
N5481 N 0.29983 0.65657 0.12645 0.0
H5482 H 0.30782 0.62674 0.16559 0.0
H5483 H 0.30068 0.64674 0.1586 0.0
H5484 H 0.29699 0.66452 0.11615 0.0
H5485 H 0.30061 0.66308 0.13799 0.0
H5486 H 0.32778 0.586 0.10616 0.0
H5487 H 0.32706 0.58328 0.1282 0.0
H5488 H 0.31333 0.5962 0.08651 0.0
H5489 H 0.30727 0.61595 0.07833 0.0
C5490 C 0.63524 0.82035 0.6284 0.0
C5491 C 0.62895 0.81127 0.61404 0.0
C5492 C 0.59982 0.81381 0.62475 0.0
C5493 C 0.60666 0.81882 0.64068 0.0
N5494 N 0.62887 0.83222 0.65653 0.0
N5495 N 0.60543 0.80149 0.59687 0.0
C5496 C 0.62376 0.82426 0.64192 0.0
C5497 C 0.61119 0.80905 0.6115 0.0
N5498 N 0.65221 0.82428 0.62937 0.0
N5499 N 0.58254 0.81307 0.62266 0.0
H5500 H 0.61346 0.79852 0.58666 0.0
H5501 H 0.59288 0.79764 0.59495 0.0
H5502 H 0.57405 0.81688 0.63215 0.0
H5503 H 0.57655 0.81027 0.61116 0.0
H5504 H 0.65785 0.83055 0.63959 0.0
H5505 H 0.6608 0.82146 0.61959 0.0
H5506 H 0.6412 0.83649 0.65889 0.0
H5507 H 0.62014 0.83509 0.66621 0.0
C5508 C 0.68241 0.36053 0.84875 0.0
C5509 C 0.6821 0.37688 0.85647 0.0
C5510 C 0.67075 0.36489 0.8827 0.0
C5511 C 0.67571 0.34872 0.87658 0.0
N5512 N 0.6817 0.32983 0.85338 0.0
N5513 N 0.67428 0.39542 0.87982 0.0
C5514 C 0.6795 0.34611 0.85919 0.0
C5515 C 0.67525 0.37939 0.87301 0.0
N5516 N 0.68604 0.35897 0.83175 0.0
N5517 N 0.66244 0.36628 0.89795 0.0
H5518 H 0.67734 0.4064 0.87293 0.0
H5519 H 0.67126 0.39786 0.89253 0.0
H5520 H 0.65903 0.35566 0.90518 0.0
H5521 H 0.65739 0.37767 0.90257 0.0
H5522 H 0.68587 0.34747 0.82514 0.0
H5523 H 0.68832 0.3695 0.82391 0.0
H5524 H 0.6861 0.3267 0.84125 0.0
H5525 H 0.6791 0.3193 0.86115 0.0
C5526 C 0.0654 0.85562 0.37179 0.0
C5527 C 0.06381 0.86235 0.35521 0.0
C5528 C 0.06822 0.891 0.36584 0.0
C5529 C 0.06388 0.8847 0.38213 0.0
N5530 N 0.06171 0.86119 0.40195 0.0
N5531 N 0.06774 0.8855 0.33541 0.0
C5532 C 0.0642 0.86699 0.38569 0.0
C5533 C 0.06718 0.87974 0.35184 0.0
N5534 N 0.06679 0.8384 0.37395 0.0
N5535 N 0.07227 0.90783 0.36393 0.0
H5536 H 0.06737 0.87724 0.325 0.0
H5537 H 0.06828 0.89835 0.33208 0.0
H5538 H 0.07282 0.91608 0.37439 0.0
H5539 H 0.0764 0.91319 0.35249 0.0
H5540 H 0.06886 0.83257 0.38571 0.0
H5541 H 0.06731 0.83013 0.36351 0.0
H5542 H 0.05988 0.8484 0.40503 0.0
H5543 H 0.06107 0.86933 0.41244 0.0
C5544 C 0.39166 0.34636 0.55554 0.0
C5545 C 0.37412 0.35064 0.55594 0.0
C5546 C 0.38063 0.37999 0.56364 0.0
C5547 C 0.39776 0.37658 0.5592 0.0
N5548 N 0.42088 0.35691 0.5554 0.0
N5549 N 0.35131 0.3702 0.56269 0.0
C5550 C 0.40374 0.3597 0.55706 0.0
C5551 C 0.36842 0.36697 0.56121 0.0
N5552 N 0.39649 0.32979 0.55301 0.0
N5553 N 0.37612 0.39577 0.56953 0.0
H5554 H 0.34205 0.36071 0.56155 0.0
H5555 H 0.34613 0.38228 0.56452 0.0
H5556 H 0.38493 0.40555 0.57124 0.0
H5557 H 0.36404 0.39882 0.57411 0.0
H5558 H 0.40907 0.32559 0.55284 0.0
H5559 H 0.38767 0.3199 0.55175 0.0
H5560 H 0.4264 0.34518 0.55261 0.0
H5561 H 0.42974 0.36674 0.55706 0.0
C5562 C 0.36089 0.36512 0.17777 0.0
C5563 C 0.36511 0.38134 0.18447 0.0
C5564 C 0.39536 0.37453 0.18373 0.0
C5565 C 0.39072 0.35733 0.18108 0.0
N5566 N 0.37033 0.33604 0.17269 0.0
N5567 N 0.38582 0.40294 0.19146 0.0
C5568 C 0.37388 0.35264 0.17669 0.0
C5569 C 0.38227 0.38666 0.1863 0.0
N5570 N 0.34447 0.36168 0.17304 0.0
N5571 N 0.41223 0.37889 0.18434 0.0
H5572 H 0.37639 0.41225 0.19283 0.0
H5573 H 0.39793 0.40721 0.1948 0.0
H5574 H 0.42192 0.36992 0.18249 0.0
H5575 H 0.41666 0.39136 0.18533 0.0
H5576 H 0.34068 0.35046 0.16705 0.0
H5577 H 0.3347 0.37066 0.17403 0.0
H5578 H 0.35808 0.3312 0.17108 0.0
H5579 H 0.37989 0.32688 0.17125 0.0
C5580 C 0.37245 0.17997 0.36151 0.0
C5581 C 0.38878 0.18694 0.36494 0.0
C5582 C 0.38317 0.18695 0.39547 0.0
C5583 C 0.36608 0.18257 0.39172 0.0
N5584 N 0.34595 0.16887 0.37304 0.0
N5585 N 0.41164 0.19278 0.3846 0.0
C5586 C 0.36129 0.17682 0.37533 0.0
C5587 C 0.39488 0.18882 0.38183 0.0
N5588 N 0.36731 0.17746 0.34501 0.0
N5589 N 0.38761 0.19032 0.41199 0.0
H5590 H 0.42038 0.19437 0.37465 0.0
H5591 H 0.41721 0.1936 0.3966 0.0
H5592 H 0.37914 0.18824 0.4221 0.0
H5593 H 0.39936 0.19517 0.41576 0.0
H5594 H 0.3549 0.17431 0.34152 0.0
H5595 H 0.37534 0.17926 0.33453 0.0
H5596 H 0.34225 0.16311 0.36167 0.0
H5597 H 0.33747 0.16661 0.38302 0.0
C5598 C 0.92894 0.12526 0.59463 0.0
C5599 C 0.92891 0.10752 0.5971 0.0
C5600 C 0.92852 0.11061 0.62786 0.0
C5601 C 0.93227 0.1281 0.62532 0.0
N5602 N 0.9343 0.15298 0.60708 0.0
N5603 N 0.92229 0.08328 0.61459 0.0
C5604 C 0.93141 0.13585 0.60894 0.0
C5605 C 0.92627 0.10021 0.61333 0.0
N5606 N 0.92733 0.13161 0.57847 0.0
N5607 N 0.92826 0.10397 0.64401 0.0
H5608 H 0.92053 0.07565 0.60383 0.0
H5609 H 0.9195 0.07705 0.62597 0.0
H5610 H 0.92954 0.11155 0.65488 0.0
H5611 H 0.92711 0.09104 0.64676 0.0
H5612 H 0.92637 0.14452 0.57556 0.0
H5613 H 0.92557 0.12355 0.568 0.0
H5614 H 0.93544 0.15912 0.59537 0.0
H5615 H 0.93622 0.1612 0.61735 0.0
C5616 C 0.79854 0.12976 0.14524 0.0
C5617 C 0.80347 0.11471 0.13653 0.0
C5618 C 0.80808 0.13035 0.11025 0.0
C5619 C 0.79959 0.14435 0.11795 0.0
N5620 N 0.79071 0.15973 0.14294 0.0
N5621 N 0.81613 0.10048 0.11241 0.0
C5622 C 0.79633 0.1449 0.13566 0.0
C5623 C 0.80959 0.11501 0.11958 0.0
N5624 N 0.79545 0.12918 0.16243 0.0
N5625 N 0.81438 0.13189 0.09406 0.0
H5626 H 0.81766 0.08915 0.11922 0.0
H5627 H 0.82005 0.0994 0.09978 0.0
H5628 H 0.81466 0.14355 0.08772 0.0
H5629 H 0.8205 0.12223 0.08733 0.0
H5630 H 0.79151 0.13951 0.16974 0.0
H5631 H 0.79745 0.11817 0.16966 0.0
H5632 H 0.7877 0.16117 0.15578 0.0
H5633 H 0.78941 0.17102 0.136 0.0
C5634 C 0.34431 0.55666 0.37931 0.0
C5635 C 0.34642 0.55971 0.36173 0.0
C5636 C 0.37731 0.56075 0.36447 0.0
C5637 C 0.37528 0.55456 0.38141 0.0
N5638 N 0.35786 0.55243 0.40678 0.0
N5639 N 0.36351 0.56901 0.33797 0.0
C5640 C 0.35903 0.55453 0.38949 0.0
C5641 C 0.36251 0.56386 0.35464 0.0
N5642 N 0.32821 0.55468 0.38575 0.0
N5643 N 0.39325 0.56287 0.35762 0.0
H5644 H 0.35275 0.57195 0.33074 0.0
H5645 H 0.37475 0.57068 0.33114 0.0
H5646 H 0.4044 0.55869 0.36349 0.0
H5647 H 0.39576 0.56898 0.34612 0.0
H5648 H 0.32549 0.55068 0.39811 0.0
H5649 H 0.3174 0.55693 0.37829 0.0
H5650 H 0.34651 0.5531 0.41363 0.0
H5651 H 0.36857 0.55123 0.41454 0.0
C5652 C 0.63267 0.43701 0.59955 0.0
C5653 C 0.61549 0.43624 0.6051 0.0
C5654 C 0.62429 0.42486 0.63257 0.0
C5655 C 0.64096 0.43026 0.62866 0.0
N5656 N 0.66252 0.43714 0.6081 0.0
N5657 N 0.59428 0.42735 0.62568 0.0
C5658 C 0.64569 0.43443 0.61178 0.0
C5659 C 0.61104 0.42904 0.6211 0.0
N5660 N 0.63632 0.44072 0.58289 0.0
N5661 N 0.62126 0.41653 0.64757 0.0
H5662 H 0.58424 0.43009 0.6174 0.0
H5663 H 0.59027 0.42392 0.63787 0.0
H5664 H 0.63111 0.41355 0.65601 0.0
H5665 H 0.60953 0.41123 0.65086 0.0
H5666 H 0.64857 0.4407 0.57778 0.0
H5667 H 0.62682 0.44281 0.57381 0.0
H5668 H 0.66702 0.44175 0.59649 0.0
H5669 H 0.67204 0.43474 0.61711 0.0
C5670 C 0.17953 0.87 0.88559 0.0
C5671 C 0.18537 0.85449 0.87831 0.0
C5672 C 0.18559 0.86684 0.84985 0.0
C5673 C 0.18307 0.883 0.85763 0.0
N5674 N 0.17337 0.90013 0.88106 0.0
N5675 N 0.19025 0.83642 0.85402 0.0
C5676 C 0.17826 0.88454 0.87493 0.0
C5677 C 0.18683 0.85229 0.86047 0.0
N5678 N 0.17605 0.87086 0.90269 0.0
N5679 N 0.18752 0.86568 0.83253 0.0
H5680 H 0.19059 0.82553 0.86169 0.0
H5681 H 0.19255 0.83375 0.84124 0.0
H5682 H 0.18678 0.87616 0.82442 0.0
H5683 H 0.18916 0.85435 0.82586 0.0
H5684 H 0.17174 0.88171 0.90897 0.0
H5685 H 0.17713 0.8604 0.91083 0.0
H5686 H 0.17024 0.90269 0.89369 0.0
H5687 H 0.17197 0.91071 0.87307 0.0
C5688 C 0.61027 0.94185 0.13862 0.0
C5689 C 0.62786 0.93888 0.13603 0.0
C5690 C 0.62352 0.93399 0.10566 0.0
C5691 C 0.60626 0.93873 0.108 0.0
N5692 N 0.58185 0.94106 0.12659 0.0
N5693 N 0.65055 0.92698 0.1191 0.0
C5694 C 0.59916 0.9405 0.12453 0.0
C5695 C 0.63422 0.93302 0.12017 0.0
N5696 N 0.60446 0.947 0.15426 0.0
N5697 N 0.62974 0.93139 0.08957 0.0
H5698 H 0.65855 0.92628 0.12972 0.0
H5699 H 0.65568 0.9214 0.1082 0.0
H5700 H 0.62193 0.93155 0.07879 0.0
H5701 H 0.64261 0.92964 0.08678 0.0
H5702 H 0.59215 0.95151 0.15644 0.0
H5703 H 0.61228 0.94745 0.16501 0.0
H5704 H 0.57581 0.94106 0.13843 0.0
H5705 H 0.57346 0.9398 0.11637 0.0
C5706 C 0.34644 0.05761 0.8812 0.0
C5707 C 0.34711 0.06125 0.86361 0.0
C5708 C 0.37773 0.06586 0.86451 0.0
C5709 C 0.37737 0.05924 0.88129 0.0
N5710 N 0.36219 0.05501 0.9077 0.0
N5711 N 0.36125 0.07448 0.83974 0.0
C5712 C 0.36187 0.05741 0.89043 0.0
C5713 C 0.36208 0.06768 0.85579 0.0
N5714 N 0.33124 0.05318 0.88852 0.0
N5715 N 0.39299 0.06919 0.8567 0.0
H5716 H 0.34976 0.0759 0.83321 0.0
H5717 H 0.37154 0.07989 0.83332 0.0
H5718 H 0.40467 0.06806 0.86293 0.0
H5719 H 0.3943 0.07279 0.84399 0.0
H5720 H 0.32998 0.04858 0.90092 0.0
H5721 H 0.31975 0.05391 0.88182 0.0
H5722 H 0.35133 0.05433 0.91532 0.0
H5723 H 0.37357 0.0551 0.91459 0.0
C5724 C 0.81789 0.60848 0.6137 0.0
C5725 C 0.8141 0.60935 0.63121 0.0
C5726 C 0.80785 0.63956 0.62947 0.0
C5727 C 0.80722 0.63748 0.61153 0.0
N5728 N 0.81465 0.6219 0.58602 0.0
N5729 N 0.81267 0.62574 0.6569 0.0
C5730 C 0.81375 0.62267 0.60343 0.0
C5731 C 0.81191 0.62515 0.6395 0.0
N5732 N 0.82476 0.59389 0.60711 0.0
N5733 N 0.80331 0.65478 0.63668 0.0
H5734 H 0.81562 0.61488 0.66406 0.0
H5735 H 0.81147 0.63683 0.66409 0.0
H5736 H 0.80036 0.66553 0.6294 0.0
H5737 H 0.80237 0.65686 0.64975 0.0
H5738 H 0.82873 0.59257 0.59451 0.0
H5739 H 0.82779 0.58348 0.61482 0.0
H5740 H 0.81762 0.6109 0.57921 0.0
H5741 H 0.81207 0.63241 0.57825 0.0
C5742 C 0.17865 0.37717 0.38982 0.0
C5743 C 0.18309 0.36043 0.38474 0.0
C5744 C 0.184 0.36859 0.35492 0.0
C5745 C 0.18166 0.38576 0.36016 0.0
N5746 N 0.17101 0.40582 0.38072 0.0
N5747 N 0.18315 0.33876 0.36303 0.0
C5748 C 0.17679 0.3898 0.37704 0.0
C5749 C 0.18323 0.35564 0.36739 0.0
N5750 N 0.17732 0.38108 0.40676 0.0
N5751 N 0.18847 0.36483 0.33847 0.0
H5752 H 0.18274 0.32905 0.37215 0.0
H5753 H 0.18181 0.33444 0.35053 0.0
H5754 H 0.18898 0.37391 0.32878 0.0
H5755 H 0.19254 0.35281 0.33455 0.0
H5756 H 0.17585 0.39344 0.41138 0.0
H5757 H 0.17823 0.37187 0.41632 0.0
H5758 H 0.16622 0.40941 0.39258 0.0
H5759 H 0.16968 0.41514 0.37127 0.0
C5760 C 0.10056 0.0131 0.51084 0.0
C5761 C 0.0882 0.01198 0.5239 0.0
C5762 C 0.07614 0.03919 0.51556 0.0
C5763 C 0.08741 0.0401 0.50133 0.0
N5764 N 0.11018 0.02699 0.48486 0.0
N5765 N 0.07471 0.02995 0.54468 0.0
C5766 C 0.10001 0.02704 0.49907 0.0
C5767 C 0.07902 0.02675 0.52819 0.0
N5768 N 0.11276 0.0007 0.51005 0.0
N5769 N 0.06218 0.04947 0.51694 0.0
H5770 H 0.07956 0.02266 0.55466 0.0
H5771 H 0.06927 0.04151 0.54846 0.0
H5772 H 0.05817 0.05755 0.50729 0.0
H5773 H 0.05328 0.0481 0.52677 0.0
H5774 H 0.12311 0.00084 0.50174 0.0
H5775 H 0.11313 0.99086 0.51906 0.0
H5776 H 0.11879 0.01735 0.4819 0.0
H5777 H 0.10911 0.0359 0.47507 0.0
C5778 C 0.9515 0.33588 0.7694 0.0
C5779 C 0.95402 0.34147 0.75237 0.0
C5780 C 0.98145 0.35435 0.76049 0.0
C5781 C 0.97914 0.34805 0.77724 0.0
N5782 N 0.96004 0.33862 0.79906 0.0
N5783 N 0.9694 0.35963 0.73257 0.0
C5784 C 0.96348 0.34063 0.78211 0.0
C5785 C 0.96827 0.35203 0.74824 0.0
N5786 N 0.93783 0.32585 0.77337 0.0
N5787 N -0.00334 0.36162 0.75604 0.0
H5788 H 0.96088 0.35736 0.72269 0.0
H5789 H 0.97818 0.36917 0.72966 0.0
H5790 H 0.00645 0.36372 0.76477 0.0
H5791 H 7e-05 0.36467 0.74357 0.0
H5792 H 0.93647 0.31968 0.78507 0.0
H5793 H 0.92823 0.32308 0.7646 0.0
H5794 H 0.94836 0.33439 0.8038 0.0
H5795 H 0.96851 0.3429 0.80838 0.0
C5796 C 0.64748 0.19489 0.018 0.0
C5797 C 0.65448 0.20556 0.00478 0.0
C5798 C 0.64941 0.23042 0.02262 0.0
C5799 C 0.64128 0.22039 0.03371 0.0
N5800 N 0.63477 0.19381 0.04671 0.0
N5801 N 0.66318 0.23391 0.99526 0.0
C5802 C 0.64097 0.20268 0.03312 0.0
C5803 C 0.65616 0.2236 0.00735 0.0
N5804 N 0.64716 0.17759 0.01598 0.0
N5805 N 0.65118 0.24672 0.02975 0.0
H5806 H 0.66812 0.22937 0.98377 0.0
H5807 H 0.66361 0.24708 -0.00338 0.0
H5808 H 0.64082 0.25225 0.05645 0.0
H5809 H 0.65905 0.25446 0.02206 0.0
H5810 H 0.64149 0.16924 0.02461 0.0
H5811 H 0.65283 0.17153 0.00558 0.0
H5812 H 0.63464 0.18056 0.04754 0.0
H5813 H 0.63 0.20018 0.05742 0.0
C5814 C 0.77425 0.89485 0.28601 0.0
C5815 C 0.75825 0.90209 0.28203 0.0
C5816 C 0.76883 0.91093 0.25418 0.0
C5817 C 0.78544 0.90535 0.25863 0.0
N5818 N 0.80468 0.89476 0.28031 0.0
N5819 N 0.74193 0.92135 0.2645 0.0
C5820 C 0.7884 0.89797 0.27498 0.0
C5821 C 0.75605 0.91149 0.2668 0.0
N5822 N 0.77583 0.88506 0.30033 0.0
N5823 N 0.76479 0.91464 0.23766 0.0
H5824 H 0.73229 0.92227 0.27357 0.0
H5825 H 0.74075 0.92998 0.25443 0.0
H5826 H 0.77334 0.91285 0.22775 0.0
H5827 H 0.75238 0.91723 0.23361 0.0
H5828 H 0.78674 0.87802 0.30319 0.0
H5829 H 0.76566 0.8831 0.30873 0.0
H5830 H 0.80767 0.8908 0.29263 0.0
H5831 H 0.8154 0.89762 0.27294 0.0
C5832 C 0.07138 0.21111 0.73077 0.0
C5833 C 0.08017 0.19508 0.73231 0.0
C5834 C 0.1048 0.20717 0.71663 0.0
C5835 C 0.09603 0.22256 0.71725 0.0
N5836 N 0.07519 0.24149 0.71968 0.0
N5837 N 0.10522 0.17767 0.72616 0.0
C5838 C 0.08021 0.22467 0.7229 0.0
C5839 C 0.09685 0.19288 0.72477 0.0
N5840 N 0.05527 0.21323 0.73697 0.0
N5841 N 0.12011 0.20641 0.70845 0.0
H5842 H 0.09992 0.16698 0.73201 0.0
H5843 H 0.11762 0.17567 0.72185 0.0
H5844 H 0.12539 0.2173 0.70284 0.0
H5845 H 0.12705 0.19522 0.70665 0.0
H5846 H 0.04886 0.22485 0.73668 0.0
H5847 H 0.04828 0.20322 0.74219 0.0
H5848 H 0.06216 0.24335 0.72268 0.0
H5849 H 0.09379 0.26043 0.70765 0.0
C5850 C 0.77805 0.3369 0.96987 0.0
C5851 C 0.77615 0.33798 0.98784 0.0
C5852 C 0.74572 0.34443 0.98483 0.0
C5853 C 0.74735 0.34175 0.9671 0.0
N5854 N 0.76466 0.33981 0.94201 0.0
N5855 N 0.75866 0.34263 0.0128 0.0
C5856 C 0.76351 0.33944 0.95941 0.0
C5857 C 0.76016 0.34199 -0.00457 0.0
N5858 N 0.79348 0.33245 0.96298 0.0
N5859 N 0.73033 0.34932 0.99145 0.0
H5860 H 0.7691 0.34188 0.02092 0.0
H5861 H 0.74711 0.34318 0.01933 0.0
H5862 H 0.7194 0.35066 0.98405 0.0
H5863 H 0.72854 0.35332 0.00397 0.0
H5864 H 0.79543 0.32977 0.95013 0.0
H5865 H 0.8044 0.33054 0.97034 0.0
H5866 H 0.77606 0.33919 0.93522 0.0
H5867 H 0.75403 0.34214 0.93435 0.0
C5868 C 0.66705 0.02742 0.22525 0.0
C5869 C 0.65847 0.04335 0.22814 0.0
C5870 C 0.63446 0.03358 0.21017 0.0
C5871 C 0.64367 0.01853 0.20812 0.0
N5872 N 0.66189 -0.00243 0.21384 0.0
N5873 N 0.63368 0.06151 0.22378 0.0
C5874 C 0.65841 0.01496 0.2157 0.0
C5875 C 0.64205 0.04657 0.22054 0.0
N5876 N 0.68314 0.02455 0.2311 0.0
N5877 N 0.61889 0.03507 0.20264 0.0
H5878 H 0.63862 0.07096 0.23171 0.0
H5879 H 0.62176 0.06454 0.21881 0.0
H5880 H 0.61393 0.02513 0.19528 0.0
H5881 H 0.61118 0.04585 0.20346 0.0
H5882 H 0.69 0.01352 0.22835 0.0
H5883 H 0.69009 0.03381 0.23751 0.0
H5884 H 0.67378 0.99433 0.21934 0.0
H5885 H 0.6432 0.98023 0.19986 0.0
C5886 C 0.95327 0.90533 0.47427 0.0
C5887 C 0.95487 0.89723 0.49042 0.0
C5888 C 0.97872 0.88027 0.47926 0.0
C5889 C 0.9797 0.89114 0.46495 0.0
N5890 N 0.9624 0.90598 0.44463 0.0
N5891 N 0.97052 0.87776 0.50874 0.0
C5892 C 0.96527 0.90141 0.46117 0.0
C5893 C 0.96786 0.88477 0.49301 0.0
N5894 N 0.94054 0.9169 0.47153 0.0
N5895 N 0.98617 0.86458 0.47876 0.0
H5896 H 0.9635 0.88113 0.51952 0.0
H5897 H 0.98092 0.8699 0.51138 0.0
H5898 H 0.99048 0.85943 0.46727 0.0
H5899 H 0.98493 0.85566 0.48856 0.0
H5900 H 0.94008 0.92487 0.4609 0.0
H5901 H 0.93078 0.91909 0.48031 0.0
H5902 H 0.95162 0.91252 0.44046 0.0
H5903 H 0.97008 0.90127 0.43482 0.0
C5904 C 0.50964 0.06447 0.03743 0.0
C5905 C 0.50276 0.07973 0.04428 0.0
C5906 C 0.51997 0.09606 0.02369 0.0
C5907 C 0.52725 0.08055 0.01769 0.0
N5908 N 0.53525 0.05201 0.02648 0.0
N5909 N 0.50184 0.11045 0.04456 0.0
C5910 C 0.52414 0.06537 0.02692 0.0
C5911 C 0.50825 0.09574 0.03773 0.0
N5912 N 0.50214 0.04903 0.04024 0.0
N5913 N 0.52439 0.11093 0.01577 0.0
H5914 H 0.49242 0.11044 0.05399 0.0
H5915 H 0.50596 0.12261 0.04121 0.0
H5916 H 0.53401 0.11132 0.00653 0.0
H5917 H 0.51868 0.12267 0.01817 0.0
H5918 H 0.50647 0.03783 0.0345 0.0
H5919 H 0.49023 0.04779 0.04585 0.0
H5920 H 0.53362 0.04114 0.034 0.0
H5921 H 0.54743 0.053 0.02147 0.0
C5922 C 0.90324 0.7666 0.29924 0.0
C5923 C 0.91074 0.75033 0.29611 0.0
C5924 C 0.92296 0.76162 0.26974 0.0
C5925 C 0.91239 0.77614 0.27083 0.0
N5926 N 0.89197 0.79262 0.28662 0.0
N5927 N 0.92335 0.73157 0.27492 0.0
C5928 C 0.90235 0.77869 0.28564 0.0
C5929 C 0.91957 0.74761 0.2805 0.0
N5930 N 0.89764 0.7708 0.3152 0.0
N5931 N 0.93621 0.76102 0.25849 0.0
H5932 H 0.91918 0.72059 0.2811 0.0
H5933 H 0.92829 0.72935 0.26276 0.0
H5934 H 0.93974 0.7714 0.25101 0.0
H5935 H 0.94484 0.75088 0.25821 0.0
H5936 H 0.89333 0.78296 0.31839 0.0
H5937 H 0.89908 0.76273 0.32569 0.0
H5938 H 0.88298 0.79432 0.29628 0.0
H5939 H 0.8919 0.80203 0.27718 0.0
C5940 C 0.2411 0.14431 0.52106 0.0
C5941 C 0.24005 0.15628 0.53467 0.0
C5942 C 0.21475 0.16888 0.52135 0.0
C5943 C 0.21842 0.15963 0.50619 0.0
N5944 N 0.22534 0.13082 0.49832 0.0
N5945 N 0.22442 0.17857 0.54904 0.0
C5946 C 0.22874 0.14493 0.50789 0.0
C5947 C 0.22637 0.16813 0.53522 0.0
N5948 N 0.25435 0.13304 0.51996 0.0
N5949 N 0.19901 0.17586 0.52355 0.0
H5950 H 0.23148 0.17699 0.56019 0.0
H5951 H 0.2162 0.18903 0.54918 0.0
H5952 H 0.18912 0.17273 0.51532 0.0
H5953 H 0.195 0.18193 0.53467 0.0
H5954 H 0.2564 0.12544 0.50923 0.0
H5955 H 0.26407 0.13223 0.52895 0.0
H5956 H 0.23159 0.11921 0.50005 0.0
H5957 H 0.21449 0.13013 0.49063 0.0
C5958 C 0.83748 0.47673 0.79088 0.0
C5959 C 0.83236 0.49357 0.78653 0.0
C5960 C 0.83078 0.48543 0.7563 0.0
C5961 C 0.834 0.46833 0.7609 0.0
N5962 N 0.83979 0.44702 0.78206 0.0
N5963 N 0.8238 0.51405 0.7653 0.0
C5964 C 0.83735 0.4638 0.77806 0.0
C5965 C 0.82898 0.49794 0.76928 0.0
N5966 N 0.84247 0.47317 0.80721 0.0
N5967 N 0.82991 0.48965 0.73938 0.0
H5968 H 0.82352 0.52405 0.77403 0.0
H5969 H 0.8189 0.51718 0.75345 0.0
H5970 H 0.83114 0.48065 0.72965 0.0
H5971 H 0.8294 0.5021 0.7348 0.0
H5972 H 0.84783 0.46161 0.81094 0.0
H5973 H 0.84221 0.48224 0.81696 0.0
H5974 H 0.84057 0.44238 0.79448 0.0
H5975 H 0.84004 0.43747 0.77278 0.0
C5976 C 0.52198 0.15303 0.23659 0.0
C5977 C 0.52946 0.13868 0.23158 0.0
C5978 C 0.51501 0.13853 0.20476 0.0
C5979 C 0.50893 0.15557 0.20863 0.0
N5980 N 0.50741 0.17913 0.22907 0.0
N5981 N 0.5346 0.11544 0.2129 0.0
C5982 C 0.5124 0.16297 0.22503 0.0
C5983 C 0.52661 0.13049 0.21621 0.0
N5984 N 0.52556 0.15555 0.25385 0.0
N5985 N 0.50857 0.12957 0.19126 0.0
H5986 H 0.54268 0.10987 0.22193 0.0
H5987 H 0.53404 0.10921 0.20118 0.0
H5988 H 0.49827 0.13374 0.18399 0.0
H5989 H 0.51203 0.11706 0.18848 0.0
H5990 H 0.52001 0.16703 0.25832 0.0
H5991 H 0.54233 0.13663 0.26844 0.0
H5992 H 0.5103 0.18487 0.2407 0.0
H5993 H 0.50135 0.18718 0.22039 0.0
C5994 C 0.82207 0.77897 0.46372 0.0
C5995 C 0.83069 0.77448 0.47892 0.0
C5996 C 0.84316 0.74978 0.46439 0.0
C5997 C 0.8317 0.75222 0.45048 0.0
N5998 N 0.81008 0.76958 0.43697 0.0
N5999 N 0.85775 0.76333 0.48793 0.0
C6000 C 0.82109 0.76695 0.45017 0.0
C6001 C 0.84379 0.76212 0.47762 0.0
N6002 N 0.81761 0.79554 0.46103 0.0
N6003 N 0.85263 0.73521 0.46571 0.0
H6004 H 0.85942 0.77369 0.49615 0.0
H6005 H 0.8685 0.75561 0.48658 0.0
H6006 H 0.8522 0.72539 0.4568 0.0
H6007 H 0.85963 0.73214 0.47659 0.0
H6008 H 0.81233 0.79994 0.44966 0.0
H6009 H 0.8223 0.80519 0.46889 0.0
H6010 H 0.80079 0.7791 0.43714 0.0
H6011 H 0.80964 0.76165 0.42636 0.0
C6012 C 0.23661 0.09852 0.71564 0.0
C6013 C 0.23382 0.08462 0.70417 0.0
C6014 C 0.2083 0.07738 0.72033 0.0
C6015 C 0.21447 0.08673 0.73444 0.0
N6016 N 0.2312 0.11043 0.7439 0.0
N6017 N 0.21631 0.06061 0.69591 0.0
C6018 C 0.22758 0.09879 0.73148 0.0
C6019 C 0.21952 0.0739 0.70665 0.0
N6020 N 0.24764 0.11136 0.71147 0.0
N6021 N 0.19132 0.07427 0.71859 0.0
H6022 H 0.224 0.05771 0.68547 0.0
H6023 H 0.20662 0.05183 0.69829 0.0
H6024 H 0.18233 0.08046 0.72618 0.0
H6025 H 0.18625 0.06848 0.70774 0.0
H6026 H 0.24928 0.12232 0.71877 0.0
H6027 H 0.25411 0.11195 0.6999 0.0
H6028 H 0.24181 0.1184 0.74376 0.0
H6029 H 0.22338 0.11179 0.75462 0.0
C6030 C 0.89962 0.46963 0.94541 0.0
C6031 C 0.90443 0.48674 0.9492 0.0
C6032 C 0.91065 0.47834 0.97853 0.0
C6033 C 0.90409 0.46185 0.97555 0.0
N6034 N 0.89089 0.44187 0.95656 0.0
N6035 N 0.9085 0.50792 0.9711 0.0
C6036 C 0.8981 0.45751 0.95906 0.0
C6037 C 0.90829 0.49125 0.96622 0.0
N6038 N 0.89691 0.46491 0.92887 0.0
N6039 N 0.9197 0.48166 0.99294 0.0
H6040 H 0.90614 0.51789 0.96266 0.0
H6041 H 0.90868 0.51148 0.98392 0.0
H6042 H 0.92265 0.47217 0.00171 0.0
H6043 H 0.92603 0.49321 0.9949 0.0
H6044 H 0.89494 0.45234 0.92508 0.0
H6045 H 0.89777 0.4735 0.91873 0.0
H6046 H 0.88477 0.43833 0.94533 0.0
H6047 H 0.89028 0.43274 0.96626 0.0
C6048 C 0.02984 0.52993 0.07692 0.0
C6049 C 0.0177 0.52658 0.0899 0.0
C6050 C 0.0354 0.50365 0.10098 0.0
C6051 C 0.0459 0.50455 0.0861 0.0
N6052 N 0.05382 0.51967 0.06031 0.0
N6053 N 0.01752 0.52015 0.11983 0.0
C6054 C 0.04342 0.51812 0.07422 0.0
C6055 C 0.02303 0.51645 0.10375 0.0
N6056 N 0.02982 0.54545 0.06903 0.0
N6057 N 0.03603 0.49001 0.11182 0.0
H6058 H 0.01031 0.53108 0.12233 0.0
H6059 H 0.02217 0.51393 0.13064 0.0
H6060 H 0.04363 0.47932 0.10982 0.0
H6061 H 0.02739 0.48849 0.12185 0.0
H6062 H 0.03905 0.54934 0.06028 0.0
H6063 H 0.02195 0.55534 0.07329 0.0
H6064 H 0.05122 0.52788 0.05019 0.0
H6065 H 0.0647 0.51225 0.05855 0.0
C6066 C 0.53919 0.2174 0.15564 0.0
C6067 C 0.53678 0.23528 0.15713 0.0
C6068 C 0.50592 0.23142 0.15881 0.0
C6069 C 0.5082 0.21373 0.15671 0.0
N6070 N 0.52628 0.18967 0.15077 0.0
N6071 N 0.51791 0.25953 0.15534 0.0
C6072 C 0.52465 0.20666 0.15429 0.0
C6073 C 0.52014 0.24238 0.15746 0.0
N6074 N 0.55528 0.21068 0.15631 0.0
N6075 N 0.49005 0.23767 0.16219 0.0
H6076 H 0.52804 0.26759 0.15255 0.0
H6077 H 0.50604 0.26539 0.15418 0.0
H6078 H 0.47923 0.22995 0.16197 0.0
H6079 H 0.48792 0.25014 0.16625 0.0
H6080 H 0.5578 0.19767 0.15717 0.0
H6081 H 0.56623 0.21818 0.15719 0.0
H6082 H 0.53768 0.18399 0.14698 0.0
H6083 H 0.51591 0.18135 0.15059 0.0
C6084 C 0.76697 0.79426 0.39437 0.0
C6085 C 0.76248 0.79151 0.41207 0.0
C6086 C 0.77285 0.76243 0.40993 0.0
C6087 C 0.77637 0.76513 0.39357 0.0
N6088 N 0.77871 0.78135 0.36815 0.0
N6089 N 0.76346 0.77326 0.43726 0.0
C6090 C 0.77419 0.78041 0.38491 0.0
C6091 C 0.76636 0.77561 0.42025 0.0
N6092 N 0.76355 0.80945 0.38653 0.0
N6093 N 0.77481 0.74509 0.41342 0.0
H6094 H 0.75929 0.78313 0.44517 0.0
H6095 H 0.76611 0.76188 0.4436 0.0
H6096 H 0.78194 0.72642 0.3922 0.0
H6097 H 0.77302 0.74252 0.42656 0.0
H6098 H 0.76593 0.81185 0.3737 0.0
H6099 H 0.75827 0.8199 0.39273 0.0
H6100 H 0.77789 0.79234 0.36075 0.0
H6101 H 0.7838 0.77073 0.36188 0.0
C6102 C 0.21239 0.02733 0.63219 0.0
C6103 C 0.22765 0.02949 0.64083 0.0
C6104 C 0.22032 0.01136 0.66409 0.0
C6105 C 0.20401 0.00852 0.65614 0.0
N6106 N 0.18591 0.01136 0.63102 0.0
N6107 N 0.24887 0.02645 0.6592 0.0
C6108 C 0.20033 0.0159 0.63966 0.0
C6109 C 0.23213 0.02172 0.6552 0.0
N6110 N 0.20966 0.036 0.61739 0.0
N6111 N 0.22397 0.00502 0.67987 0.0
H6112 H 0.26353 0.04501 0.64205 0.0
H6113 H 0.25281 0.021 0.67091 0.0
H6114 H 0.21513 -0.00181 0.68709 0.0
H6115 H 0.23557 0.00709 0.68598 0.0
H6116 H 0.19824 0.03576 0.61064 0.0
H6117 H 0.21906 0.04402 0.61234 0.0
H6118 H 0.18297 0.0157 0.61883 0.0
H6119 H 0.17739 0.00222 0.63554 0.0
C6120 C 0.4867 0.48079 0.39827 0.0
C6121 C 0.47026 0.48168 0.40573 0.0
C6122 C 0.47456 0.45349 0.41851 0.0
C6123 C 0.48989 0.45143 0.40903 0.0
N6124 N 0.51006 0.46304 0.38863 0.0
N6125 N 0.44696 0.4673 0.41967 0.0
C6126 C 0.49576 0.46502 0.39842 0.0
C6127 C 0.46373 0.46756 0.41492 0.0
N6128 N 0.49407 0.49525 0.39188 0.0
N6129 N 0.47052 0.44242 0.43132 0.0
H6130 H 0.43845 0.47701 0.41644 0.0
H6131 H 0.44113 0.45664 0.42509 0.0
H6132 H 0.47869 0.43273 0.43518 0.0
H6133 H 0.46017 0.44422 0.4395 0.0
H6134 H 0.50675 0.49588 0.38793 0.0
H6135 H 0.48802 0.50708 0.3921 0.0
H6136 H 0.51369 0.47169 0.3792 0.0
H6137 H 0.51783 0.45229 0.38918 0.0
C6138 C 0.23724 0.73675 0.07436 0.0
C6139 C 0.23562 0.72089 0.08268 0.0
C6140 C 0.20836 0.7302 0.09521 0.0
C6141 C 0.20942 0.74557 0.08565 0.0
N6142 N 0.22413 0.76247 0.0643 0.0
N6143 N 0.21881 0.70118 0.09907 0.0
C6144 C 0.22355 0.74844 0.07457 0.0
C6145 C 0.22096 0.71725 0.09268 0.0
N6146 N 0.25245 0.74114 0.06712 0.0
N6147 N 0.19532 0.72798 0.10659 0.0
H6148 H 0.2277 0.69148 0.09706 0.0
H6149 H 0.20772 0.69708 0.10515 0.0
H6150 H 0.18555 0.73689 0.10815 0.0
H6151 H 0.19471 0.71786 0.11518 0.0
H6152 H 0.2552 0.75326 0.06242 0.0
H6153 H 0.26293 0.73309 0.06748 0.0
H6154 H 0.23238 0.76367 0.05392 0.0
H6155 H 0.21604 0.77277 0.06583 0.0
C6156 C 0.75334 0.96759 0.3532 0.0
C6157 C 0.75044 0.95806 0.33795 0.0
C6158 C 0.77497 0.97224 0.32494 0.0
C6159 C 0.77529 0.98406 0.33839 0.0
N6160 N 0.77311 0.9855 0.36883 0.0
N6161 N 0.75645 0.95573 0.30741 0.0
C6162 C 0.76693 0.97957 0.35371 0.0
C6163 C 0.7607 0.96147 0.32326 0.0
N6164 N 0.74225 0.96644 0.36662 0.0
N6165 N 0.78901 0.96999 0.31491 0.0
H6166 H 0.74454 0.95079 0.30447 0.0
H6167 H 0.76363 0.95876 0.2966 0.0
H6168 H 0.80062 0.97582 0.31789 0.0
H6169 H 0.78972 0.9605 0.3056 0.0
H6170 H 0.74293 0.97436 0.37727 0.0
H6171 H 0.73118 0.9591 0.36628 0.0
H6172 H 0.76856 0.98151 0.38068 0.0
H6173 H 0.78436 0.99264 0.36936 0.0
C6174 C 0.9803 0.28688 0.84709 0.0
C6175 C 0.98076 0.29455 0.83073 0.0
C6176 C 0.97038 0.26839 0.81758 0.0
C6177 C 0.96984 0.26058 0.83389 0.0
N6178 N 0.97078 0.2629 0.8644 0.0
N6179 N 0.97116 0.29478 0.80163 0.0
C6180 C 0.97365 0.27005 0.84877 0.0
C6181 C 0.974 0.286 0.81639 0.0
N6182 N 0.98677 0.29547 0.86079 0.0
N6183 N 0.96858 0.25876 0.80316 0.0
H6184 H 0.97337 0.30784 0.80076 0.0
H6185 H 0.96487 0.28963 0.79112 0.0
H6186 H 0.96693 0.24557 0.80341 0.0
H6187 H 0.97047 0.26353 0.79089 0.0
H6188 H 0.98855 0.28998 0.87275 0.0
H6189 H 0.99092 0.30809 0.85992 0.0
H6190 H 0.97191 0.26953 0.87585 0.0
H6191 H 0.96601 0.25053 0.86576 0.0
C6192 C 0.90371 0.98568 0.4842 0.0
C6193 C 0.90543 0.968 0.48107 0.0
C6194 C 0.9087 0.97395 0.45036 0.0
C6195 C 0.90885 0.99172 0.45402 0.0
N6196 N 0.90715 0.01447 0.47482 0.0
N6197 N 0.90852 0.94481 0.46142 0.0
C6198 C 0.90668 -0.00251 0.47102 0.0
C6199 C 0.90764 0.96199 0.46414 0.0
N6200 N 0.89887 0.99183 0.49968 0.0
N6201 N 0.90931 0.96865 0.43375 0.0
H6202 H 0.90645 0.93601 0.47121 0.0
H6203 H 0.91151 0.93923 0.44976 0.0
H6204 H 0.91038 0.97713 0.42355 0.0
H6205 H 0.90805 0.95601 0.42992 0.0
H6206 H 0.89546 0.98423 0.51004 0.0
H6207 H 0.89546 0.98423 0.51004 0.0
H6208 H 0.90616 0.01906 0.48729 0.0
H6209 H 0.90905 0.02385 0.46569 0.0
C6210 C 0.02694 0.66773 0.21457 0.0
C6211 C 0.0252 0.65376 0.22604 0.0
C6212 C -4e-05 0.64428 0.2103 0.0
C6213 C 0.00043 0.65914 0.1999 0.0
N6214 N 0.01405 0.68615 0.19336 0.0
N6215 N 0.0178 0.62397 0.22459 0.0
C6216 C 0.0138 0.67125 0.2024 0.0
C6217 C 0.01384 0.64056 0.22123 0.0
N6218 N 0.04228 0.67588 0.21347 0.0
N6219 N 0.98598 0.63388 0.21035 0.0
H6220 H 0.03001 0.62047 0.22856 0.0
H6221 H 0.01036 0.61378 0.22035 0.0
H6222 H 0.97491 0.63663 0.2035 0.0
H6223 H 0.98473 0.62368 0.21882 0.0
H6224 H 0.04509 0.68523 0.20445 0.0
H6225 H 0.05302 0.67125 0.2198 0.0
H6226 H 0.02228 0.69619 0.19619 0.0
H6227 H 0.00522 0.68916 0.18395 0.0
C6228 C 0.35373 0.76267 0.98256 0.0
C6229 C 0.34801 0.77947 0.97967 0.0
C6230 C 0.33636 0.77139 0.95191 0.0
C6231 C 0.34052 0.75408 0.95537 0.0
N6232 N 0.35235 0.73293 0.97453 0.0
N6233 N 0.33973 0.80114 0.96006 0.0
C6234 C 0.34937 0.74968 0.97068 0.0
C6235 C 0.34116 0.78419 0.96377 0.0
N6236 N 0.36329 0.75923 -0.00329 0.0
N6237 N 0.32727 0.7755 0.93768 0.0
H6238 H 0.34389 0.81046 0.96862 0.0
H6239 H 0.336 0.8059 0.94824 0.0
H6240 H 0.32425 0.76653 0.92846 0.0
H6241 H 0.32198 0.78748 0.93546 0.0
H6242 H 0.36953 0.74772 -0.00113 0.0
H6243 H 0.36636 0.7685 0.0057 0.0
H6244 H 0.35713 0.72863 0.98614 0.0
H6245 H 0.34878 0.72296 0.96662 0.0
C6246 C 0.2305 0.66404 0.01691 0.0
C6247 C 0.23133 0.65739 0.03401 0.0
C6248 C 0.21401 0.63259 0.02522 0.0
C6249 C 0.21514 0.63912 0.0088 0.0
N6250 N 0.21756 0.65785 0.98765 0.0
N6251 N 0.22463 0.63463 0.05418 0.0
C6252 C 0.22206 0.65404 0.00453 0.0
C6253 C 0.22308 0.6415 0.03823 0.0
N6254 N 0.23739 0.6795 0.01285 0.0
N6255 N 0.20444 0.61839 0.02812 0.0
H6256 H 0.23139 0.64048 0.06398 0.0
H6257 H 0.21994 0.62265 0.05749 0.0
H6258 H 0.19831 0.61214 0.01807 0.0
H6259 H 0.20202 0.61342 0.0402 0.0
H6260 H 0.23765 0.68429 0.00045 0.0
H6261 H 0.24274 0.68754 0.02199 0.0
H6262 H 0.22189 0.67013 0.98404 0.0
H6263 H 0.2007 0.63953 0.97244 0.0
C6264 C 0.33487 0.96821 0.77456 0.0
C6265 C 0.33256 0.97285 0.75725 0.0
C6266 C 0.33311 0.00314 0.76482 0.0
C6267 C 0.33504 -0.00148 0.78224 0.0
N6268 N 0.34091 0.97737 0.80364 0.0
N6269 N 0.32976 0.9941 0.73532 0.0
C6270 C 0.33686 0.98121 0.78712 0.0
C6271 C 0.33179 0.99019 0.75222 0.0
N6272 N 0.33481 0.95132 0.77887 0.0
N6273 N 0.33242 0.02002 0.76048 0.0
H6274 H 0.32737 0.98488 0.72604 0.0
H6275 H 0.33048 0.00632 0.73022 0.0
H6276 H 0.33526 0.02962 0.76917 0.0
H6277 H 0.32925 0.02468 0.74848 0.0
H6278 H 0.33488 0.94681 0.79136 0.0
H6279 H 0.33376 0.94166 0.76976 0.0
H6280 H 0.34366 0.96513 0.80798 0.0
H6281 H 0.3425 0.98675 0.81295 0.0
C6282 C 0.02537 0.08917 0.51015 0.0
C6283 C 0.03435 0.1019 0.51677 0.0
C6284 C 0.02315 0.09729 0.54488 0.0
C6285 C 0.01127 0.08547 0.53745 0.0
N6286 N 0.0035 0.06776 0.51288 0.0
N6287 N 0.04709 0.11704 0.53974 0.0
C6288 C 0.01337 0.08014 0.52003 0.0
C6289 C 0.03522 0.10573 0.53407 0.0
N6290 N 0.03003 0.08717 0.49311 0.0
N6291 N 0.02247 0.10048 0.56198 0.0
H6292 H 0.05554 0.12288 0.53122 0.0
H6293 H 0.04874 0.12025 0.55251 0.0
H6294 H 0.01421 0.0938 0.57005 0.0
H6295 H 0.03023 0.10929 0.56816 0.0
H6296 H 0.02436 0.07612 0.48779 0.0
H6297 H 0.04932 0.10511 0.4807 0.0
H6298 H 0.00323 0.06543 0.49982 0.0
H6299 H -0.00429 0.05966 0.51993 0.0
C6300 C 0.45902 0.91555 0.97196 0.0
C6301 C 0.45828 0.90513 0.9868 0.0
C6302 C 0.48374 0.88996 0.97685 0.0
C6303 C 0.48703 0.9033 0.96519 0.0
N6304 N 0.4722 0.91999 0.94426 0.0
N6305 N 0.4707 0.88217 0.00352 0.0
C6306 C 0.47306 0.91379 0.96051 0.0
C6307 C 0.4707 0.89208 0.98919 0.0
N6308 N 0.44637 0.92708 0.96881 0.0
N6309 N 0.49122 0.87443 0.97459 0.0
H6310 H 0.46175 0.88338 0.01326 0.0
H6311 H 0.4806 0.87372 0.00633 0.0
H6312 H 0.49798 0.87159 0.96346 0.0
H6313 H 0.48824 0.86381 0.98204 0.0
H6314 H 0.44725 0.93654 0.9595 0.0
H6315 H 0.43519 0.92743 0.976 0.0
H6316 H 0.46168 0.92647 0.93941 0.0
H6317 H 0.48109 0.91644 0.93497 0.0
C6318 C 0.78476 0.84078 0.474 0.0
C6319 C 0.78168 0.84525 0.49121 0.0
C6320 C 0.7519 0.85182 0.48466 0.0
C6321 C 0.75464 0.84591 0.46784 0.0
N6322 N 0.77426 0.84183 0.44484 0.0
N6323 N 0.76458 0.8615 0.51105 0.0
C6324 C 0.77137 0.84267 0.46197 0.0
C6325 C 0.76601 0.853 0.49593 0.0
N6326 N 0.80035 0.83461 0.46928 0.0
N6327 N 0.73574 0.85525 0.49018 0.0
H6328 H 0.77449 0.86234 0.51984 0.0
H6329 H 0.75414 0.86919 0.51403 0.0
H6330 H 0.72517 0.85476 0.48215 0.0
H6331 H 0.73272 0.85756 0.50292 0.0
H6332 H 0.80294 0.82973 0.45721 0.0
H6333 H 0.8106 0.83398 0.47776 0.0
H6334 H 0.7863 0.84036 0.4394 0.0
H6335 H 0.76462 0.84475 0.43615 0.0
C6336 C 0.15082 0.50655 0.23585 0.0
C6337 C 0.15085 0.51341 0.21914 0.0
C6338 C 0.15001 0.5425 0.2305 0.0
C6339 C 0.15162 0.53566 0.24716 0.0
N6340 N 0.15305 0.51163 0.26627 0.0
N6341 N 0.15111 0.5372 0.19991 0.0
C6342 C 0.15164 0.51777 0.25 0.0
C6343 C 0.15042 0.53123 0.21628 0.0
N6344 N 0.15024 0.48924 0.23804 0.0
N6345 N 0.14815 0.55972 0.22841 0.0
H6346 H 0.1509 0.52905 0.18938 0.0
H6347 H 0.15264 0.54999 0.1967 0.0
H6348 H 0.14797 0.56819 0.23868 0.0
H6349 H 0.14573 0.56557 0.21674 0.0
H6350 H 0.14861 0.4832 0.24975 0.0
H6351 H 0.15068 0.48065 0.22791 0.0
H6352 H 0.15535 0.49894 0.26935 0.0
H6353 H 0.15228 0.5195 0.27694 0.0
C6354 C 0.47143 0.8242 0.77707 0.0
C6355 C 0.47964 0.84019 0.77836 0.0
C6356 C 0.45897 0.85135 0.75764 0.0
C6357 C 0.45435 0.83429 0.75355 0.0
N6358 N 0.46116 0.80417 0.75673 0.0
N6359 N 0.48064 0.86967 0.77033 0.0
C6360 C 0.46207 0.82059 0.76239 0.0
C6361 C 0.47303 0.85411 0.7689 0.0
N6362 N 0.47197 0.81256 0.78991 0.0
N6363 N 0.45038 0.86471 0.7505 0.0
H6364 H 0.49045 0.87183 0.77909 0.0
H6365 H 0.47768 0.88004 0.76255 0.0
H6366 H 0.44052 0.863 0.74175 0.0
H6367 H 0.45237 0.87736 0.75407 0.0
H6368 H 0.46542 0.80098 0.78936 0.0
H6369 H 0.47568 0.81597 0.80207 0.0
H6370 H 0.46765 0.79419 0.76272 0.0
H6371 H 0.45637 0.80092 0.74488 0.0
C6372 C 0.16015 0.22143 0.5092 0.0
C6373 C 0.15477 0.20451 0.50449 0.0
C6374 C 0.13294 0.2052 0.52738 0.0
C6375 C 0.13983 0.22088 0.53182 0.0
N6376 N 0.15122 0.24644 0.52796 0.0
N6377 N 0.13199 0.18337 0.50546 0.0
C6378 C 0.15082 0.22957 0.52227 0.0
C6379 C 0.13988 0.19717 0.51256 0.0
N6380 N 0.17445 0.22886 0.50263 0.0
N6381 N 0.1202 0.19838 0.53702 0.0
H6382 H 0.13558 0.1784 0.49364 0.0
H6383 H 0.12087 0.17797 0.51035 0.0
H6384 H 0.11539 0.20493 0.5476 0.0
H6385 H 0.11516 0.18625 0.53505 0.0
H6386 H 0.17915 0.24042 0.50717 0.0
H6387 H 0.18245 0.22303 0.49379 0.0
H6388 H 0.16003 0.25365 0.52077 0.0
H6389 H 0.13534 0.25471 0.55099 0.0
C6390 C 0.10562 0.54204 0.01799 0.0
C6391 C 0.0877 0.53965 0.01435 0.0
C6392 C 0.08943 0.51175 0.02743 0.0
C6393 C 0.10514 0.51521 0.03288 0.0
N6394 N 0.13099 0.53096 0.0329 0.0
N6395 N 0.06252 0.52144 0.01586 0.0
C6396 C 0.11439 0.52954 0.02802 0.0
C6397 C 0.07942 0.52409 0.01902 0.0
N6398 N 0.11422 0.55554 0.01109 0.0
N6399 N 0.08615 0.49454 0.03011 0.0
H6400 H 0.05474 0.53052 0.01005 0.0
H6401 H 0.05598 0.51065 0.01998 0.0
H6402 H 0.10651 0.47688 0.04106 0.0
H6403 H 0.07296 0.49242 0.02929 0.0
H6404 H 0.12718 0.55774 0.0129 0.0
H6405 H 0.10863 0.56397 0.00244 0.0
H6406 H 0.13858 0.54158 0.03047 0.0
H6407 H 0.1368 0.52138 0.04013 0.0
C6408 C 0.95256 0.45297 0.88553 0.0
C6409 C 0.9541 0.47061 0.88654 0.0
C6410 C 0.98 0.46996 0.90246 0.0
C6411 C 0.98059 0.45188 0.89991 0.0
N6412 N 0.96658 0.42577 0.89091 0.0
N6413 N 0.96096 0.49555 0.89803 0.0
C6414 C 0.96649 0.44315 0.89204 0.0
C6415 C 0.96601 0.47871 0.89553 0.0
N6416 N 0.93815 0.44603 0.8788 0.0
N6417 N 0.99275 0.47867 0.91043 0.0
H6418 H 0.93602 0.50536 0.88677 0.0
H6419 H 0.96906 0.50173 0.90682 0.0
H6420 H 0.00267 0.47293 0.91703 0.0
H6421 H 0.99356 0.49188 0.9102 0.0
H6422 H 0.93574 0.43299 0.87827 0.0
H6423 H 0.92839 0.45383 0.87413 0.0
H6424 H 0.95724 0.41875 0.88463 0.0
H6425 H 0.97613 0.41833 0.89648 0.0
C6426 C 0.48221 0.77162 0.82253 0.0
C6427 C 0.487 0.78528 0.83373 0.0
C6428 C 0.47511 0.76946 0.85835 0.0
C6429 C 0.47052 0.75711 0.84658 0.0
N6430 N 0.46903 0.74175 0.8229 0.0
N6431 N 0.49087 0.79571 0.86279 0.0
C6432 C 0.47412 0.75732 0.83 0.0
C6433 C 0.4842 0.78385 0.8519 0.0
N6434 N 0.48506 0.77252 0.80541 0.0
N6435 N 0.47073 0.76739 0.87504 0.0
H6436 H 0.49871 0.80566 0.8587 0.0
H6437 H 0.48968 0.79509 0.87599 0.0
H6438 H 0.46415 0.75651 0.87907 0.0
H6439 H 0.47289 0.77647 0.88448 0.0
H6440 H 0.4812 0.76304 0.79698 0.0
H6441 H 0.49111 0.7829 0.79968 0.0
H6442 H 0.47083 0.74166 0.80951 0.0
H6443 H 0.45733 0.72097 0.83973 0.0
C6444 C 0.22179 0.2465 0.5774 0.0
C6445 C 0.20518 0.23982 0.58067 0.0
C6446 C 0.21797 0.21185 0.5869 0.0
C6447 C 0.23437 0.21912 0.58492 0.0
N6448 N 0.25211 0.24387 0.58249 0.0
N6449 N 0.18746 0.21645 0.59011 0.0
C6450 C 0.23629 0.23663 0.58156 0.0
C6451 C 0.20327 0.22256 0.58598 0.0
N6452 N 0.22389 0.26194 0.56963 0.0
N6453 N 0.21659 0.19466 0.58937 0.0
H6454 H 0.17636 0.22368 0.58876 0.0
H6455 H 0.18538 0.20455 0.59563 0.0
H6456 H 0.22727 0.18683 0.59083 0.0
H6457 H 0.20506 0.18807 0.5891 0.0
H6458 H 0.23569 0.26658 0.56563 0.0
H6459 H 0.21383 0.26917 0.56513 0.0
H6460 H 0.25412 0.257 0.58221 0.0
H6461 H 0.26301 0.23682 0.58536 0.0
C6462 C 0.53913 0.51972 0.59073 0.0
C6463 C 0.53419 0.50237 0.59225 0.0
C6464 C 0.504 0.51045 0.59311 0.0
C6465 C 0.50888 0.52773 0.59102 0.0
N6466 N 0.53019 0.54941 0.58775 0.0
N6467 N 0.51247 0.48071 0.59464 0.0
C6468 C 0.52625 0.53254 0.58987 0.0
C6469 C 0.51676 0.49761 0.5936 0.0
N6470 N 0.5561 0.52377 0.59001 0.0
N6471 N 0.48707 0.5064 0.59443 0.0
H6472 H 0.52149 0.47106 0.59612 0.0
H6473 H 0.50013 0.47597 0.59365 0.0
H6474 H 0.47731 0.51516 0.59222 0.0
H6475 H 0.48245 0.4945 0.59803 0.0
H6476 H 0.56089 0.53611 0.58933 0.0
H6477 H 0.56571 0.51457 0.59058 0.0
H6478 H 0.54244 0.55414 0.58591 0.0
H6479 H 0.52087 0.55893 0.58757 0.0
C6480 C 0.77323 0.28488 0.90705 0.0
C6481 C 0.75551 0.28478 0.91141 0.0
C6482 C 0.75289 0.25592 0.90037 0.0
C6483 C 0.77061 0.25484 0.89829 0.0
N6484 N 0.7977 0.26854 0.89643 0.0
N6485 N 0.73355 0.26562 0.92143 0.0
C6486 C 0.78076 0.26964 0.90034 0.0
C6487 C 0.74646 0.26916 0.91041 0.0
N6488 N 0.7831 0.29864 0.91115 0.0
N6489 N 0.74228 0.24361 0.89425 0.0
H6490 H 0.73224 0.2727 0.9325 0.0
H6491 H 0.72708 0.25398 0.92156 0.0
H6492 H 0.74649 0.23386 0.88628 0.0
H6493 H 0.72903 0.24459 0.89533 0.0
H6494 H 0.79588 0.29997 0.90787 0.0
H6495 H 0.77887 0.30825 0.91932 0.0
H6496 H 0.80638 0.27852 0.89739 0.0
H6497 H 0.80292 0.25734 0.89139 0.0
C6498 C 0.03537 0.70535 0.13373 0.0
C6499 C 0.01829 0.70625 0.13835 0.0
C6500 C 0.02303 0.724 0.16252 0.0
C6501 C 0.04061 0.72532 0.15766 0.0
N6502 N 0.06308 0.71862 0.13699 0.0
N6503 N 0.99466 0.71248 0.15233 0.0
C6504 C 0.04687 0.71614 0.14289 0.0
C6505 C 0.01215 0.71511 0.15141 0.0
N6506 N 0.04027 0.69463 0.12098 0.0
N6507 N 0.01721 0.73049 0.17762 0.0
H6508 H 0.98114 0.69497 0.13346 0.0
H6509 H 0.98964 0.71802 0.16349 0.0
H6510 H 0.02537 0.73533 0.18694 0.0
H6511 H 0.00452 0.72998 0.18151 0.0
H6512 H 0.05296 0.6924 0.1177 0.0
H6513 H 0.03128 0.68728 0.11444 0.0
H6514 H 0.06768 0.71313 0.1258 0.0
H6515 H 0.07162 0.72718 0.14243 0.0
C6516 C 0.94335 0.85211 0.26573 0.0
C6517 C 0.95351 0.84412 0.25266 0.0
C6518 C 0.97869 0.84832 0.2703 0.0
C6519 C 0.96943 0.85788 0.28086 0.0
N6520 N 0.94333 0.86639 0.29376 0.0
N6521 N 0.98105 0.83264 0.24383 0.0
C6522 C 0.95171 0.85906 0.28041 0.0
C6523 C 0.9714 0.84137 0.25537 0.0
N6524 N 0.92607 0.85308 0.26398 0.0
N6525 N 0.99483 0.8458 0.27744 0.0
H6526 H 0.97578 0.82681 0.23308 0.0
H6527 H 0.99424 0.83143 0.24494 0.0
H6528 H 0.00191 0.85824 0.30279 0.0
H6529 H 0.00162 0.83649 0.27049 0.0
H6530 H 0.91809 0.85941 0.2725 0.0
H6531 H 0.91965 0.84713 0.25402 0.0
H6532 H 0.93012 0.86727 0.29471 0.0
H6533 H 0.95008 0.87132 0.30414 0.0
C6534 C 0.67321 0.71837 0.53427 0.0
C6535 C 0.65678 0.72601 0.53566 0.0
C6536 C 0.64497 0.70364 0.51715 0.0
C6537 C 0.66183 0.69882 0.51277 0.0
N6538 N 0.69201 0.70026 0.51792 0.0
N6539 N 0.62666 0.72471 0.53086 0.0
C6540 C 0.6759 0.7056 0.5218 0.0
C6541 C 0.64248 0.71797 0.52808 0.0
N6542 N 0.68629 0.72303 0.54481 0.0
N6543 N 0.63153 0.69473 0.51059 0.0
H6544 H 0.62472 0.7347 0.53946 0.0
H6545 H 0.61567 0.72076 0.52458 0.0
H6546 H 0.63321 0.68427 0.50254 0.0
H6547 H 0.61887 0.6968 0.51405 0.0
H6548 H 0.69778 0.71639 0.54555 0.0
H6549 H 0.68551 0.73237 0.55409 0.0
H6550 H 0.70303 0.70682 0.52143 0.0
H6551 H 0.69421 0.68935 0.51075 0.0
C6552 C 0.78016 0.39107 0.76003 0.0
C6553 C 0.78983 0.40631 0.76222 0.0
C6554 C 0.77747 0.40963 0.79065 0.0
C6555 C 0.76478 0.39766 0.78622 0.0
N6556 N 0.76263 0.36976 0.77409 0.0
N6557 N 0.79824 0.42988 0.7804 0.0
C6558 C 0.76845 0.3861 0.77296 0.0
C6559 C 0.78902 0.4153 0.77796 0.0
N6560 N 0.78207 0.3814 0.74569 0.0
N6561 N 0.77879 0.41486 0.80718 0.0
H6562 H 0.80665 0.43479 0.77136 0.0
H6563 H 0.79656 0.43783 0.79093 0.0
H6564 H 0.77096 0.40967 0.81665 0.0
H6565 H 0.78861 0.42263 0.81165 0.0
H6566 H 0.77388 0.37143 0.74253 0.0
H6567 H 0.79144 0.38381 0.73662 0.0
H6568 H 0.76585 0.36018 0.76545 0.0
H6569 H 0.75685 0.3653 0.78524 0.0
C6570 C 0.0879 0.73483 0.23847 0.0
C6571 C 0.08717 0.73125 0.22084 0.0
C6572 C 0.08766 0.70053 0.22669 0.0
C6573 C 0.08863 0.70417 0.24437 0.0
N6574 N 0.09495 0.72443 0.26662 0.0
N6575 N 0.09025 0.71145 0.19774 0.0
C6576 C 0.09038 0.72124 0.25013 0.0
C6577 C 0.08827 0.71427 0.2148 0.0
N6578 N 0.08562 0.75117 0.24406 0.0
N6579 N 0.08591 0.68403 0.22134 0.0
H6580 H 0.09142 0.72147 0.18906 0.0
H6581 H 0.09232 0.69947 0.1924 0.0
H6582 H 0.08602 0.6737 0.22976 0.0
H6583 H 0.08345 0.68061 0.20875 0.0
H6584 H 0.08402 0.75433 0.25688 0.0
H6585 H 0.08407 0.76144 0.23573 0.0
H6586 H 0.09788 0.73656 0.2712 0.0
H6587 H 0.09758 0.71469 0.27524 0.0
C6588 C 0.64868 0.53444 0.72371 0.0
C6589 C 0.64494 0.53414 0.7414 0.0
C6590 C 0.64349 0.50289 0.74076 0.0
C6591 C 0.64676 0.50318 0.72301 0.0
N6592 N 0.64753 0.51906 0.69684 0.0
N6593 N 0.63329 0.51862 0.76529 0.0
C6594 C 0.64781 0.51897 0.71425 0.0
C6595 C 0.64059 0.51852 0.74948 0.0
N6596 N 0.65343 0.54936 0.71604 0.0
N6597 N 0.64406 0.48781 0.74946 0.0
H6598 H 0.63028 0.52992 0.77159 0.0
H6599 H 0.62864 0.50768 0.77126 0.0
H6600 H 0.64644 0.47616 0.74349 0.0
H6601 H 0.64364 0.48707 0.76273 0.0
H6602 H 0.6581 0.55 0.7036 0.0
H6603 H 0.65372 0.56099 0.72252 0.0
H6604 H 0.64694 0.53018 0.68957 0.0
H6605 H 0.64603 0.50786 0.68981 0.0
C6606 C 0.98061 0.41308 0.98237 0.0
C6607 C 0.97935 0.40524 0.96614 0.0
C6608 C 0.95122 0.39392 0.97414 0.0
C6609 C 0.95369 0.40011 0.99101 0.0
N6610 N 0.97325 0.41106 0.01213 0.0
N6611 N 0.96417 0.38712 0.9467 0.0
C6612 C 0.96914 0.40832 -0.0046 0.0
C6613 C 0.96487 0.39521 0.9621 0.0
N6614 N 0.99228 0.42561 0.98527 0.0
N6615 N 0.93569 0.38759 0.96942 0.0
H6616 H 0.97362 0.38866 0.93742 0.0
H6617 H 0.95479 0.37827 0.94352 0.0
H6618 H 0.92544 0.3866 0.97787 0.0
H6619 H 0.93257 0.3845 0.95688 0.0
H6620 H 0.9926 0.43274 -0.00351 0.0
H6621 H 0.00011 0.43039 0.97574 0.0
H6622 H 0.98513 0.41564 0.01599 0.0
H6623 H 0.96567 0.40679 0.02217 0.0
C6624 C 0.52932 0.59343 0.52142 0.0
C6625 C 0.52352 0.59081 0.50453 0.0
C6626 C 0.49453 0.58539 0.51489 0.0
C6627 C 0.50001 0.58918 0.53183 0.0
N6628 N 0.52229 0.5972 0.55143 0.0
N6629 N 0.50114 0.58486 0.48456 0.0
C6630 C 0.51735 0.59334 0.53515 0.0
C6631 C 0.50627 0.58688 0.50113 0.0
N6632 N 0.5464 0.59556 0.52418 0.0
N6633 N 0.47814 0.58022 0.51195 0.0
H6634 H 0.48849 0.58388 0.4807 0.0
H6635 H 0.50961 0.58498 0.47429 0.0
H6636 H 0.46876 0.5801 0.52127 0.0
H6637 H 0.47381 0.57527 0.50044 0.0
H6638 H 0.55201 0.59594 0.5362 0.0
H6639 H 0.55523 0.59604 0.51421 0.0
H6640 H 0.53428 0.60189 0.55462 0.0
H6641 H 0.51408 0.59632 0.56189 0.0
C6642 C 0.90357 0.24924 0.76121 0.0
C6643 C 0.9089 0.26654 0.76193 0.0
C6644 C 0.91378 0.26362 0.79275 0.0
C6645 C 0.9082 0.24646 0.79193 0.0
N6646 N 0.89119 0.22574 0.77695 0.0
N6647 N 0.91286 0.29146 0.77934 0.0
C6648 C 0.90094 0.24015 0.77665 0.0
C6649 C 0.9123 0.27413 0.778 0.0
N6650 N 0.90188 0.24116 0.74587 0.0
N6651 N 0.92024 0.26997 0.8076 0.0
H6652 H 0.91025 0.2994 0.76899 0.0
H6653 H 0.91376 0.29783 0.79097 0.0
H6654 H 0.9198 0.26318 0.81904 0.0
H6655 H 0.92649 0.28169 0.80834 0.0
H6656 H 0.89892 0.22825 0.74475 0.0
H6657 H 0.90532 0.24678 0.73432 0.0
H6658 H 0.88444 0.22133 0.76638 0.0
H6659 H 0.88827 0.21941 0.78827 0.0
C6660 C 0.8403 0.98203 0.2938 0.0
C6661 C 0.83454 -0.00229 0.28681 0.0
C6662 C 0.83385 0.98495 0.25821 0.0
C6663 C 0.8383 0.969 0.2654 0.0
N6664 N 0.84439 0.95149 0.2897 0.0
N6665 N 0.82434 0.01398 0.26268 0.0
C6666 C 0.84119 0.96731 0.28313 0.0
C6667 C 0.83083 -0.00089 0.26909 0.0
N6668 N 0.84509 0.9813 0.31056 0.0
N6669 N 0.83322 0.98661 0.24086 0.0
H6670 H 0.82275 0.02491 0.27001 0.0
H6671 H 0.81965 0.01533 0.25035 0.0
H6672 H 0.83551 0.97644 0.23264 0.0
H6673 H 0.83177 -0.0018 0.23453 0.0
H6674 H 0.85096 0.97076 0.3161 0.0
H6675 H 0.84411 0.99172 0.31877 0.0
H6676 H 0.84509 0.94885 0.3027 0.0
H6677 H 0.84528 0.94065 0.28202 0.0
C6678 C 0.5045 0.63872 0.71673 0.0
C6679 C 0.50464 0.65313 0.70555 0.0
C6680 C 0.53249 0.66118 0.71684 0.0
C6681 C 0.53071 0.64897 0.72999 0.0
N6682 N 0.52177 0.61996 0.73405 0.0
N6683 N 0.51872 0.67901 0.69601 0.0
C6684 C 0.51862 0.63583 0.72772 0.0
C6685 C 0.51869 0.66457 0.70577 0.0
N6686 N 0.49053 0.62833 0.71775 0.0
N6687 N 0.54798 0.66861 0.71431 0.0
H6688 H 0.50908 0.68203 0.68747 0.0
H6689 H 0.5277 0.68871 0.69745 0.0
H6690 H 0.55859 0.66434 0.72101 0.0
H6691 H 0.55074 0.6768 0.70419 0.0
H6692 H 0.4892 0.61891 0.72705 0.0
H6693 H 0.47954 0.6301 0.71055 0.0
H6694 H 0.51384 0.60952 0.73189 0.0
H6695 H 0.5339 0.61654 0.73821 0.0
C6696 C 0.83635 0.26279 0.98064 0.0
C6697 C 0.83279 0.27918 0.97395 0.0
C6698 C 0.82964 0.26716 0.94524 0.0
C6699 C 0.83188 0.25059 0.95218 0.0
N6700 N 0.83541 0.23216 0.97666 0.0
N6701 N 0.82503 0.2974 0.95066 0.0
C6702 C 0.83476 0.24827 0.96994 0.0
C6703 C 0.82919 0.28148 0.95642 0.0
N6704 N 0.8417 0.26126 -0.00285 0.0
N6705 N 0.82833 0.26916 0.92796 0.0
H6706 H 0.82517 0.30809 0.95859 0.0
H6707 H 0.82057 0.29994 0.93842 0.0
H6708 H 0.82839 0.25887 0.91952 0.0
H6709 H 0.8283 0.28096 0.92187 0.0
H6710 H 0.84605 0.24993 0.00254 0.0
H6711 H 0.84316 0.27176 0.00514 0.0
H6712 H 0.83539 0.22957 0.98969 0.0
H6713 H 0.83482 0.22117 0.96923 0.0
C6714 C 0.23033 0.59375 0.20828 0.0
C6715 C 0.23089 0.57875 0.1981 0.0
C6716 C 0.20865 0.56603 0.21604 0.0
C6717 C 0.211 0.57944 0.22792 0.0
N6718 N 0.21294 0.61002 0.22776 0.0
N6719 N 0.21975 0.55075 0.19157 0.0
C6720 C 0.21852 0.59464 0.22187 0.0
C6721 C 0.21973 0.56492 0.2017 0.0
N6722 N 0.24173 0.60672 0.20583 0.0
N6723 N 0.19434 0.55619 0.21699 0.0
H6724 H 0.22697 0.54984 0.18043 0.0
H6725 H 0.21326 0.5396 0.19479 0.0
H6726 H 0.18438 0.55934 0.22526 0.0
H6727 H 0.19113 0.54696 0.20799 0.0
H6728 H 0.24261 0.61709 0.21412 0.0
H6729 H 0.2514 0.60634 0.19668 0.0
H6730 H 0.21708 0.62163 0.22272 0.0
H6731 H 0.20237 0.61093 0.23584 0.0
C6732 C 0.03219 0.01731 0.57932 0.0
C6733 C 0.02985 0.00101 0.58703 0.0
C6734 C 0.00628 0.013 0.60397 0.0
C6735 C 0.00687 0.02783 0.59386 0.0
N6736 N 0.02608 0.04757 0.58083 0.0
N6737 N 0.01256 0.98294 0.60543 0.0
C6738 C 0.02184 0.0311 0.58453 0.0
C6739 C 0.0165 -0.00122 0.59929 0.0
N6740 N 0.04329 0.01957 0.56617 0.0
N6741 N -0.00246 0.01319 0.61901 0.0
H6742 H 0.01854 0.97181 0.60127 0.0
H6743 H 0.00197 0.98065 0.61316 0.0
H6744 H 0.99286 0.02459 0.62405 0.0
H6745 H -0.00234 0.00306 0.62763 0.0
H6746 H 0.04294 0.03037 0.55841 0.0
H6747 H 0.05154 0.01018 0.56198 0.0
H6748 H 0.03761 0.05103 0.57513 0.0
H6749 H 0.01861 0.05775 0.58515 0.0
C6750 C 0.5057 0.71737 0.66243 0.0
C6751 C 0.50788 0.71147 0.64666 0.0
C6752 C 0.53305 0.72814 0.64221 0.0
C6753 C 0.53337 0.73158 0.66037 0.0
N6754 N 0.51814 0.72983 0.68773 0.0
N6755 N 0.52055 0.71102 0.61917 0.0
C6756 C 0.51891 0.72658 0.67067 0.0
C6757 C 0.52059 0.71673 0.63556 0.0
N6758 N 0.48906 0.71347 0.66777 0.0
N6759 N 0.54346 0.7369 0.63128 0.0
H6760 H 0.51091 0.70291 0.6148 0.0
H6761 H 0.53038 0.71335 0.61051 0.0
H6762 H 0.55094 0.74716 0.63512 0.0
H6763 H 0.5431 0.73547 0.61808 0.0
H6764 H 0.4869 0.71764 0.68044 0.0
H6765 H 0.47084 0.69921 0.64998 0.0
H6766 H 0.50803 0.72571 0.69534 0.0
H6767 H 0.52797 0.73573 0.69441 0.0
C6768 C 0.20873 0.53321 0.12753 0.0
C6769 C 0.22519 0.53254 0.13408 0.0
C6770 C 0.21736 0.51661 0.15883 0.0
C6771 C 0.20032 0.51534 0.15224 0.0
N6772 N 0.1803 0.52101 0.12913 0.0
N6773 N 0.24665 0.52871 0.15191 0.0
C6774 C 0.19599 0.52345 0.13628 0.0
C6775 C 0.2296 0.52499 0.14859 0.0
N6776 N 0.20551 0.54288 0.11348 0.0
N6777 N 0.22144 0.51045 0.17461 0.0
H6778 H 0.26225 0.54528 0.13375 0.0
H6779 H 0.24993 0.52466 0.16426 0.0
H6780 H 0.21229 0.50594 0.18316 0.0
H6781 H 0.23374 0.51057 0.17958 0.0
H6782 H 0.19334 0.54491 0.10858 0.0
H6783 H 0.21534 0.54953 0.10737 0.0
H6784 H 0.17695 0.52566 0.11715 0.0
H6785 H 0.17095 0.51331 0.13462 0.0
C6786 C 0.48579 0.96131 0.91724 0.0
C6787 C 0.49864 0.95875 0.90456 0.0
C6788 C 0.48061 0.97476 0.88429 0.0
C6789 C 0.46888 0.97824 0.89755 0.0
N6790 N 0.45547 0.96416 0.92115 0.0
N6791 N 0.50969 0.9679 0.87702 0.0
C6792 C 0.4699 0.96814 0.91235 0.0
C6793 C 0.49637 0.96663 0.88822 0.0
N6794 N 0.48901 0.95934 0.93421 0.0
N6795 N 0.47583 0.9772 0.86776 0.0
H6796 H 0.52209 0.96423 0.88001 0.0
H6797 H 0.50895 0.97489 0.86572 0.0
H6798 H 0.46324 0.98018 0.86461 0.0
H6799 H 0.48334 0.97357 0.85738 0.0
H6800 H 0.47975 0.96158 0.94352 0.0
H6801 H 0.50129 0.95917 0.93917 0.0
H6802 H 0.45543 0.95595 0.93163 0.0
H6803 H 0.44348 0.96743 0.91638 0.0
C6804 C 0.77262 0.47655 0.83929 0.0
C6805 C 0.78529 0.4686 0.84726 0.0
C6806 C 0.77086 0.44163 0.8474 0.0
C6807 C 0.75649 0.44998 0.83948 0.0
N6808 N 0.74386 0.47625 0.82824 0.0
N6809 N 0.79899 0.44528 0.86087 0.0
C6810 C 0.75742 0.46779 0.8351 0.0
C6811 C 0.78542 0.45155 0.85204 0.0
N6812 N 0.77657 0.49391 0.83825 0.0
N6813 N 0.77064 0.42439 0.84999 0.0
H6814 H 0.80943 0.45307 0.86373 0.0
H6815 H 0.79968 0.43291 0.86565 0.0
H6816 H 0.76057 0.41666 0.84605 0.0
H6817 H 0.78086 0.41758 0.85502 0.0
H6818 H 0.76778 0.50032 0.83035 0.0
H6819 H 0.80079 0.50439 0.85052 0.0
H6820 H 0.74413 0.48918 0.82525 0.0
H6821 H 0.7322 0.47045 0.82572 0.0
C6822 C 0.98304 0.78592 0.35068 0.0
C6823 C 0.98279 0.79392 0.33436 0.0
C6824 C 0.96085 0.77388 0.32523 0.0
C6825 C 0.96404 0.76358 0.33973 0.0
N6826 N 0.96849 0.76655 0.3699 0.0
N6827 N 0.97263 0.79379 0.30513 0.0
C6828 C 0.97254 0.77135 0.35367 0.0
C6829 C 0.97211 0.78738 0.32132 0.0
N6830 N 0.99373 0.79179 0.36311 0.0
N6831 N 0.94567 0.77261 0.31686 0.0
H6832 H 0.9811 0.80327 0.30132 0.0
H6833 H 0.96582 0.78829 0.29511 0.0
H6834 H 0.93567 0.76531 0.3218 0.0
H6835 H 0.94216 0.78076 0.30694 0.0
H6836 H -0.00413 0.78528 0.3745 0.0
H6837 H 0.00155 0.80244 0.36147 0.0
H6838 H 0.97322 0.77257 0.38075 0.0
H6839 H 0.9582 0.75847 0.37239 0.0
C6840 C 0.00183 0.15959 0.73644 0.0
C6841 C 0.01829 0.15329 0.73358 0.0
C6842 C 0.01235 0.15049 0.70297 0.0
C6843 C -0.00439 0.157 0.70586 0.0
N6844 N 0.97518 0.17007 0.7251 0.0
N6845 N 0.04054 0.1443 0.71463 0.0
C6846 C 0.99059 0.16235 0.72253 0.0
C6847 C 0.02394 0.14909 0.71696 0.0
N6848 N -0.00284 0.16199 0.753 0.0
N6849 N 0.01712 0.14582 0.68684 0.0
H6850 H 0.04899 0.14286 0.72479 0.0
H6851 H 0.04624 0.14242 0.70279 0.0
H6852 H 0.00953 0.14808 0.67614 0.0
H6853 H 0.02841 0.13947 0.68392 0.0
H6854 H 0.98494 0.16533 0.75702 0.0
H6855 H 0.98494 0.16533 0.75702 0.0
H6856 H 0.972 0.1768 0.73608 0.0
H6857 H 0.96575 0.17073 0.7159 0.0
C6858 C 0.31837 0.27577 0.45145 0.0
C6859 C 0.32863 0.26168 0.44666 0.0
C6860 C 0.34961 0.26929 0.46845 0.0
C6861 C 0.33796 0.28147 0.47496 0.0
N6862 N 0.31903 0.30351 0.46474 0.0
N6863 N 0.35698 0.24998 0.44528 0.0
C6864 C 0.32454 0.28705 0.46417 0.0
C6865 C 0.34531 0.26002 0.45344 0.0
N6866 N 0.30275 0.2783 0.44418 0.0
N6867 N 0.36451 0.2665 0.47696 0.0
H6868 H 0.35409 0.24362 0.43395 0.0
H6869 H 0.36972 0.24901 0.4489 0.0
H6870 H 0.36818 0.27424 0.48717 0.0
H6871 H 0.37292 0.25661 0.47414 0.0
H6872 H 0.29443 0.28786 0.44816 0.0
H6873 H 0.29774 0.27039 0.43475 0.0
H6874 H 0.30966 0.30835 0.45664 0.0
H6875 H 0.32622 0.31296 0.47065 0.0
C6876 C 0.33847 0.46199 0.27721 0.0
C6877 C 0.33962 0.46641 0.25972 0.0
C6878 C 0.34389 0.49641 0.26733 0.0
C6879 C 0.3403 0.49237 0.28457 0.0
N6880 N 0.34074 0.47113 0.30676 0.0
N6881 N 0.34293 0.48772 0.23773 0.0
C6882 C 0.33955 0.47505 0.28982 0.0
C6883 C 0.34249 0.48357 0.25468 0.0
N6884 N 0.33588 0.44531 0.2816 0.0
N6885 N 0.34975 0.5123 0.2633 0.0
H6886 H 0.341 0.47888 0.22801 0.0
H6887 H 0.34342 0.50019 0.23317 0.0
H6888 H 0.35217 0.5214 0.27261 0.0
H6889 H 0.35429 0.51577 0.2513 0.0
H6890 H 0.33313 0.44121 0.29393 0.0
H6891 H 0.33576 0.43552 0.27259 0.0
H6892 H 0.34206 0.45877 0.31142 0.0
H6893 H 0.34151 0.48041 0.31625 0.0
C6894 C 0.02646 0.60227 0.03457 0.0
C6895 C 0.02341 0.5988 0.01742 0.0
C6896 C 0.00235 0.57753 0.0233 0.0
C6897 C 0.00217 0.58318 0.04078 0.0
N6898 N 0.01788 0.59647 0.06385 0.0
N6899 N 0.02021 0.57992 -0.00382 0.0
C6900 C 0.01557 0.5942 0.04673 0.0
C6901 C 0.01411 0.58546 0.01213 0.0
N6902 N 0.0397 0.61266 0.03886 0.0
N6903 N 0.99134 0.56555 0.01735 0.0
H6904 H 0.0424 0.59397 0.9834 0.0
H6905 H 0.01433 0.56834 0.99243 0.0
H6906 H 0.98359 0.5583 0.0253 0.0
H6907 H 0.99015 0.56299 0.00437 0.0
H6908 H 0.04314 0.6156 0.05133 0.0
H6909 H 0.04735 0.61823 0.02944 0.0
H6910 H 0.02688 0.60467 0.06909 0.0
H6911 H 0.01111 0.58939 0.07289 0.0
C6912 C 0.47214 0.40415 0.46486 0.0
C6913 C 0.46466 0.39162 0.45634 0.0
C6914 C 0.43725 0.39761 0.46868 0.0
C6915 C 0.44505 0.41194 0.47734 0.0
N6916 N 0.46997 0.43023 0.48111 0.0
N6917 N 0.44118 0.37473 0.44744 0.0
C6918 C 0.4627 0.41575 0.47469 0.0
C6919 C 0.44742 0.38764 0.4572 0.0
N6920 N 0.48957 0.40321 0.46211 0.0
N6921 N 0.42085 0.39291 0.47223 0.0
H6922 H 0.44927 0.36767 0.43951 0.0
H6923 H 0.42828 0.37168 0.44657 0.0
H6924 H 0.41317 0.39916 0.48107 0.0
H6925 H 0.41508 0.38211 0.46712 0.0
H6926 H 0.49572 0.41388 0.46745 0.0
H6927 H 0.5011 0.38249 0.44523 0.0
H6928 H 0.48271 0.43349 0.47929 0.0
H6929 H 0.46288 0.43971 0.4872 0.0
C6930 C 0.16365 0.02547 0.71455 0.0
C6931 C 0.15069 0.01317 0.71513 0.0
C6932 C 0.13976 0.0267 0.7411 0.0
C6933 C 0.15522 0.0363 0.74228 0.0
N6934 N 0.18418 0.0399 0.73148 0.0
N6935 N 0.12105 0.01063 0.72245 0.0
C6936 C 0.16783 0.03442 0.7294 0.0
C6937 C 0.13704 0.01597 0.72664 0.0
N6938 N 0.17103 0.02953 0.69939 0.0
N6939 N 0.12834 0.02674 0.75429 0.0
H6940 H 0.1183 0.00625 0.71019 0.0
H6941 H 0.11025 0.01333 0.72972 0.0
H6942 H 0.13031 0.0335 0.76557 0.0
H6943 H 0.11782 0.01864 0.75481 0.0
H6944 H 0.17994 0.03931 0.69813 0.0
H6945 H 0.16602 0.02481 0.68805 0.0
H6946 H 0.1937 0.03718 0.72255 0.0
H6947 H 0.18883 0.04482 0.74279 0.0
C6948 C 0.47256 0.3304 0.25431 0.0
C6949 C 0.45437 0.33151 0.2531 0.0
C6950 C 0.4535 0.34849 0.27969 0.0
C6951 C 0.4712 0.34878 0.27858 0.0
N6952 N 0.49729 0.33934 0.27316 0.0
N6953 N 0.42726 0.33921 0.26588 0.0
C6954 C 0.48034 0.33929 0.26784 0.0
C6955 C 0.44466 0.33973 0.26636 0.0
N6956 N 0.48206 0.32205 0.24235 0.0
N6957 N 0.44561 0.35638 0.29301 0.0
H6958 H 0.42069 0.33214 0.25671 0.0
H6959 H 0.41942 0.34543 0.27461 0.0
H6960 H 0.45272 0.36274 0.30231 0.0
H6961 H 0.43247 0.35639 0.29494 0.0
H6962 H 0.49535 0.32209 0.2423 0.0
H6963 H 0.47662 0.31523 0.23234 0.0
H6964 H 0.5047 0.33083 0.26574 0.0
H6965 H 0.50547 0.35441 0.29667 0.0
C6966 C 0.15836 0.69956 0.01892 0.0
C6967 C 0.1613 0.70348 0.00148 0.0
C6968 C 0.15858 0.73404 0.0075 0.0
C6969 C 0.15641 0.73018 0.02496 0.0
N6970 N 0.15642 0.71013 0.04808 0.0
N6971 N 0.16802 0.72448 0.97987 0.0
C6972 C 0.15697 0.71314 0.03092 0.0
C6973 C 0.16247 0.72074 -0.00404 0.0
N6974 N 0.15673 0.68292 0.02388 0.0
N6975 N 0.157 0.75053 0.00198 0.0
H6976 H 0.17222 0.7152 0.97149 0.0
H6977 H 0.1703 0.73676 0.97538 0.0
H6978 H 0.15558 0.76086 0.01021 0.0
H6979 H 0.156 0.75394 0.98918 0.0
H6980 H 0.15303 0.67917 0.03608 0.0
H6981 H 0.15837 0.67274 0.01546 0.0
H6982 H 0.15845 0.69821 0.05357 0.0
H6983 H 0.15488 0.71994 0.05697 0.0
C6984 C 0.96373 0.97141 0.42319 0.0
C6985 C 0.96231 0.97816 0.40644 0.0
C6986 C 0.97725 0.95295 0.39521 0.0
C6987 C 0.98129 0.94805 0.41221 0.0
N6988 N 0.98119 0.95536 0.44235 0.0
N6989 N 0.96724 0.97557 0.37638 0.0
C6990 C 0.9752 0.9579 0.42617 0.0
C6991 C 0.96876 0.96881 0.39237 0.0
N6992 N 0.95457 0.97793 0.43654 0.0
N6993 N 0.98201 0.9428 0.38185 0.0
H6994 H 0.9603 0.98671 0.37407 0.0
H6995 H 0.97328 0.97062 0.36563 0.0
H6996 H 0.98909 0.93164 0.38341 0.0
H6997 H 0.97818 0.94489 0.36931 0.0
H6998 H 0.95347 0.97159 0.4482 0.0
H6999 H 0.94673 0.98852 0.43595 0.0
H7000 H 0.97871 0.9637 0.45242 0.0
H7001 H 0.99028 0.94637 0.44551 0.0
C7002 C 0.4869 0.27781 0.34014 0.0
C7003 C 0.48807 0.28759 0.32481 0.0
C7004 C 0.46158 0.27412 0.31493 0.0
C7005 C 0.4626 0.26226 0.32844 0.0
N7006 N 0.46828 0.26135 0.35847 0.0
N7007 N 0.47686 0.29305 0.29627 0.0
C7008 C 0.47293 0.26658 0.34253 0.0
C7009 C 0.47553 0.28523 0.31179 0.0
N7010 N 0.49974 0.27817 0.35192 0.0
N7011 N 0.44639 0.2766 0.30687 0.0
H7012 H 0.48705 0.30068 0.29264 0.0
H7013 H 0.46861 0.29033 0.2862 0.0
H7014 H 0.4352 0.27106 0.31152 0.0
H7015 H 0.44441 0.28615 0.29782 0.0
H7016 H 0.50009 0.27004 0.36244 0.0
H7017 H 0.511 0.28503 0.35021 0.0
H7018 H 0.47444 0.26539 0.36954 0.0
H7019 H 0.45678 0.25494 0.36061 0.0
C7020 C 0.52215 0.00025 0.10282 0.0
C7021 C 0.5339 0.00278 0.08915 0.0
C7022 C 0.52386 0.0325 0.08684 0.0
C7023 C 0.51095 0.02895 0.09918 0.0
N7024 N 0.50829 0.01458 0.12612 0.0
N7025 N 0.54801 0.02224 0.06998 0.0
C7026 C 0.51298 0.0143 0.10939 0.0
C7027 C 0.53541 0.01926 0.08167 0.0
N7028 N 0.51917 0.98437 0.10931 0.0
N7029 N 0.52587 0.04892 0.08141 0.0
H7030 H 0.55747 0.01329 0.06729 0.0
H7031 H 0.54933 0.03345 0.063 0.0
H7032 H 0.51917 0.0589 0.08717 0.0
H7033 H 0.53474 0.05295 0.0724 0.0
H7034 H 0.50969 0.98204 0.11837 0.0
H7035 H 0.52472 0.9734 0.10435 0.0
H7036 H 0.51047 0.00436 0.13437 0.0
H7037 H 0.50557 0.02606 0.13226 0.0
C7038 C 0.02016 0.24171 0.6453 0.0
C7039 C 0.03452 0.23697 0.65538 0.0
C7040 C 0.02288 0.20792 0.65816 0.0
C7041 C 0.00853 0.21285 0.64837 0.0
N7042 N -0.00466 0.23313 0.62924 0.0
N7043 N 0.0491 0.21595 0.67251 0.0
C7044 C 0.00788 0.22923 0.64069 0.0
C7045 C 0.0358 0.22012 0.66206 0.0
N7046 N 0.01713 0.25856 0.64173 0.0
N7047 N 0.02433 0.19122 0.66304 0.0
H7048 H 0.05934 0.22408 0.6746 0.0
H7049 H 0.0498 0.20478 0.67965 0.0
H7050 H 0.01537 0.18201 0.65955 0.0
H7051 H 0.03482 0.18608 0.66931 0.0
H7052 H 0.00588 0.26303 0.63625 0.0
H7053 H 0.0248 0.26851 0.64602 0.0
H7054 H -0.00408 0.24371 0.6212 0.0
H7055 H 0.98479 0.22548 0.62691 0.0
C7056 C 0.59821 0.00264 0.00288 0.0
C7057 C 0.59037 0.00319 0.01913 0.0
C7058 C 0.58631 0.03407 0.01546 0.0
C7059 C 0.5891 0.03189 -0.00233 0.0
N7060 N 0.59804 0.01379 0.97427 0.0
N7061 N 0.58644 0.02095 0.04372 0.0
C7062 C 0.59519 0.0161 0.99131 0.0
C7063 C 0.58716 0.01948 0.02638 0.0
N7064 N 0.61059 0.99092 -0.0005 0.0
N7065 N 0.58281 0.04996 0.02171 0.0
H7066 H 0.58949 0.0107 0.05167 0.0
H7067 H 0.58434 0.0323 0.05025 0.0
H7068 H 0.58313 0.06085 0.01405 0.0
H7069 H 0.57949 0.05248 0.03431 0.0
H7070 H 0.61738 0.99068 0.98804 0.0
H7071 H 0.61616 0.98384 0.0093 0.0
H7072 H 0.60094 0.00186 0.96911 0.0
H7073 H 0.59634 0.02343 0.96527 0.0
C7074 C 0.25305 0.89443 0.75713 0.0
C7075 C 0.25606 0.89987 0.77403 0.0
C7076 C 0.28612 0.90502 0.76743 0.0
C7077 C 0.2832 0.8997 0.75041 0.0
N7078 N 0.26508 0.88484 0.73033 0.0
N7079 N 0.2762 0.90346 0.79668 0.0
C7080 C 0.26706 0.89283 0.74568 0.0
C7081 C 0.27287 0.9031 0.77963 0.0
N7082 N 0.2367 0.89151 0.75189 0.0
N7083 N 0.3014 0.9121 0.7719 0.0
H7084 H 0.2667 0.90094 0.80567 0.0
H7085 H 0.28847 0.90445 0.80169 0.0
H7086 H 0.31165 0.91309 0.76344 0.0
H7087 H 0.30346 0.91789 0.78369 0.0
H7088 H 0.23338 0.8887 0.73936 0.0
H7089 H 0.2262 0.89277 0.75998 0.0
H7090 H 0.25433 0.87768 0.72725 0.0
H7091 H 0.27472 0.88405 0.72122 0.0
C7092 C 0.60419 0.21793 0.22762 0.0
C7093 C 0.59222 0.22073 0.21446 0.0
C7094 C 0.57378 0.19877 0.22738 0.0
C7095 C 0.58439 0.19865 0.24226 0.0
N7096 N 0.60746 0.21267 0.25751 0.0
N7097 N 0.57217 0.2055 0.19719 0.0
C7098 C 0.59898 0.20947 0.24264 0.0
C7099 C 0.57866 0.20887 0.21298 0.0
N7100 N 0.62109 0.22092 0.2249 0.0
N7101 N 0.55884 0.18983 0.22691 0.0
H7102 H 0.57769 0.21064 0.18621 0.0
H7103 H 0.56336 0.19587 0.19473 0.0
H7104 H 0.55449 0.1821 0.23671 0.0
H7105 H 0.54985 0.1913 0.21724 0.0
H7106 H 0.63042 0.218 0.23393 0.0
H7107 H 0.62582 0.22329 0.21266 0.0
H7108 H 0.61743 0.22147 0.2582 0.0
H7109 H 0.6031 0.20858 0.2694 0.0
C7110 C 0.2668 0.31398 0.47463 0.0
C7111 C 0.25724 0.32895 0.47117 0.0
C7112 C 0.27657 0.34555 0.48957 0.0
C7113 C 0.2859 0.33035 0.4934 0.0
N7114 N 0.28725 0.29936 0.49203 0.0
N7115 N 0.25335 0.35911 0.47376 0.0
C7116 C 0.28028 0.31441 0.48665 0.0
C7117 C 0.26233 0.34481 0.47818 0.0
N7118 N 0.26331 0.29921 0.46612 0.0
N7119 N 0.28083 0.36048 0.49757 0.0
H7120 H 0.24353 0.35881 0.46477 0.0
H7121 H 0.25569 0.37133 0.47832 0.0
H7122 H 0.28949 0.36105 0.50764 0.0
H7123 H 0.27537 0.37228 0.49505 0.0
H7124 H 0.27108 0.28845 0.46624 0.0
H7125 H 0.25322 0.29774 0.45785 0.0
H7126 H 0.28166 0.28751 0.48997 0.0
H7127 H 0.29792 0.29826 0.49962 0.0
C7128 C 0.38783 0.76943 0.76242 0.0
C7129 C 0.39996 0.78262 0.76064 0.0
C7130 C 0.414 0.77246 0.78692 0.0
C7131 C 0.40437 0.75711 0.78587 0.0
N7132 N 0.38389 0.74005 0.77001 0.0
N7133 N 0.41874 0.80118 0.77593 0.0
C7134 C 0.39169 0.75535 0.77298 0.0
C7135 C 0.41146 0.78545 0.77435 0.0
N7136 N 0.3718 0.77127 0.75601 0.0
N7137 N 0.42569 0.77448 0.79969 0.0
H7138 H 0.41522 0.81122 0.76793 0.0
H7139 H 0.42675 0.80485 0.78584 0.0
H7140 H 0.42684 0.76593 0.80981 0.0
H7141 H 0.43457 0.78433 0.80014 0.0
H7142 H 0.36228 0.76213 0.75775 0.0
H7143 H 0.36716 0.78323 0.75253 0.0
H7144 H 0.37559 0.7382 0.75977 0.0
H7145 H 0.38717 0.7288 0.77628 0.0
C7146 C 0.74612 0.15437 0.01921 0.0
C7147 C 0.74248 0.16539 0.03318 0.0
C7148 C 0.71413 0.17093 0.02082 0.0
C7149 C 0.71905 0.16153 0.00613 0.0
N7150 N 0.73269 0.13467 0.00012 0.0
N7151 N 0.722 0.18264 0.04852 0.0
C7152 C 0.733 0.15031 0.00767 0.0
C7153 C 0.72607 0.17318 0.03445 0.0
N7154 N 0.7622 0.14837 0.01622 0.0
N7155 N 0.69752 0.176 0.02234 0.0
H7156 H 0.72975 0.18323 0.0593 0.0
H7157 H 0.71112 0.19018 0.0495 0.0
H7158 H 0.6883 0.17223 0.01349 0.0
H7159 H 0.69246 0.18226 0.03288 0.0
H7160 H 0.76518 0.14121 0.00539 0.0
H7161 H 0.77283 0.15222 0.02319 0.0
H7162 H 0.74243 0.12574 0.00174 0.0
H7163 H 0.72134 0.1296 -0.00461 0.0
C7164 C 0.71594 0.08336 0.21559 0.0
C7165 C 0.72297 0.08275 0.23215 0.0
C7166 C 0.74984 0.07163 0.22103 0.0
C7167 C 0.74325 0.07304 0.20404 0.0
N7168 N 0.71989 0.07962 0.18508 0.0
N7169 N 0.74676 0.07957 0.25088 0.0
C7170 C 0.72621 0.07876 0.20133 0.0
C7171 C 0.74005 0.07802 0.23485 0.0
N7172 N 0.69927 0.08811 0.21378 0.0
N7173 N 0.76505 0.06367 0.22425 0.0
H7174 H 0.73957 0.08383 0.26125 0.0
H7175 H 0.75966 0.07825 0.25371 0.0
H7176 H 0.7722 0.05709 0.21533 0.0
H7177 H 0.76995 0.0617 0.2364 0.0
H7178 H 0.69238 0.0873 0.20248 0.0
H7179 H 0.69217 0.09288 0.224 0.0
H7180 H 0.70829 0.08518 0.18184 0.0
H7181 H 0.72644 0.07473 0.17456 0.0
C7182 C 0.4184 0.50063 0.475 0.0
C7183 C 0.40948 0.49668 0.45969 0.0
C7184 C 0.39928 0.47 0.47276 0.0
C7185 C 0.4068 0.47503 0.48841 0.0
N7186 N 0.42006 0.49645 0.50551 0.0
N7187 N 0.3907 0.47802 0.44403 0.0
C7188 C 0.41537 0.49074 0.48975 0.0
C7189 C 0.39959 0.48151 0.45861 0.0
N7190 N 0.42979 0.5138 0.47565 0.0
N7191 N 0.39259 0.454 0.47124 0.0
H7192 H 0.39165 0.48551 0.43306 0.0
H7193 H 0.38185 0.46817 0.44302 0.0
H7194 H 0.39193 0.44552 0.48146 0.0
H7195 H 0.38863 0.44874 0.45971 0.0
H7196 H 0.43833 0.51552 0.48568 0.0
H7197 H 0.43155 0.5225 0.46588 0.0
H7198 H 0.42533 0.50843 0.50776 0.0
H7199 H 0.41679 0.48983 0.51657 0.0
C7200 C 0.27029 0.75734 0.9078 0.0
C7201 C 0.27747 0.76071 0.89273 0.0
C7202 C 0.27042 0.7904 0.89446 0.0
C7203 C 0.25875 0.78606 0.90795 0.0
N7204 N 0.25199 0.76606 0.93103 0.0
N7205 N 0.29092 0.77967 0.8732 0.0
C7206 C 0.26024 0.76974 0.91619 0.0
C7207 C 0.27996 0.77711 0.88644 0.0
N7208 N 0.27535 0.74108 0.91311 0.0
N7209 N 0.27205 0.80702 0.88956 0.0
H7210 H 0.29753 0.76944 0.86775 0.0
H7211 H 0.29339 0.79153 0.86777 0.0
H7212 H 0.26583 0.81683 0.89611 0.0
H7213 H 0.28002 0.81112 0.87976 0.0
H7214 H 0.2713 0.73859 0.92577 0.0
H7215 H 0.29225 0.72458 0.89598 0.0
H7216 H 0.25144 0.75377 0.93605 0.0
H7217 H 0.24645 0.77541 0.93867 0.0
C7218 C 0.72603 0.98783 0.14442 0.0
C7219 C 0.71177 0.99406 0.154 0.0
C7220 C 0.72592 0.02192 0.15647 0.0
C7221 C 0.74097 0.01479 0.1495 0.0
N7222 N 0.75602 0.99094 0.13742 0.0
N7223 N 0.69791 0.01741 0.16863 0.0
C7224 C 0.74109 -0.00211 0.14322 0.0
C7225 C 0.71166 0.01125 0.15985 0.0
N7226 N 0.72561 0.97211 0.13687 0.0
N7227 N 0.72523 0.03912 0.1593 0.0
H7228 H 0.68648 0.01077 0.1696 0.0
H7229 H 0.69798 0.02885 0.17538 0.0
H7230 H 0.73532 0.04723 0.15617 0.0
H7231 H 0.71427 0.04558 0.16311 0.0
H7232 H 0.73412 0.96842 0.12733 0.0
H7233 H 0.7168 0.96264 0.13973 0.0
H7234 H 0.75757 0.97809 0.13447 0.0
H7235 H 0.76744 -0.00231 0.13677 0.0
C7236 C 0.68833 0.72044 0.60041 0.0
C7237 C 0.69746 0.73402 0.59206 0.0
C7238 C 0.72141 0.71475 0.58778 0.0
C7239 C 0.71239 0.70217 0.59489 0.0
N7240 N 0.68963 0.69115 0.61161 0.0
N7241 N 0.72279 0.74321 0.57622 0.0
C7242 C 0.69645 0.70424 0.60244 0.0
C7243 C 0.71413 0.73098 0.58506 0.0
N7244 N 0.67194 0.72296 0.60581 0.0
N7245 N 0.73854 0.70986 0.58693 0.0
H7246 H 0.71801 0.75539 0.57404 0.0
H7247 H 0.73425 0.74077 0.56999 0.0
H7248 H 0.74709 0.68407 0.59744 0.0
H7249 H 0.74592 0.7192 0.58066 0.0
H7250 H 0.6644 0.7134 0.61112 0.0
H7251 H 0.66549 0.73445 0.60404 0.0
H7252 H 0.67831 0.69201 0.61851 0.0
H7253 H 0.696 0.67946 0.61255 0.0
C7254 C 0.26037 0.95847 0.84604 0.0
C7255 C 0.26123 0.94925 0.83046 0.0
C7256 C 0.28509 0.96709 0.82142 0.0
C7257 C 0.28065 0.97891 0.83424 0.0
N7258 N 0.27467 0.97888 0.86429 0.0
N7259 N 0.27508 0.94454 0.80323 0.0
C7260 C 0.27132 0.97269 0.84839 0.0
C7261 C 0.27409 0.95318 0.81829 0.0
N7262 N 0.24883 0.954 0.85831 0.0
N7263 N 0.30049 0.96835 0.81346 0.0
H7264 H 0.26694 0.93453 0.80026 0.0
H7265 H 0.28313 0.94821 0.79327 0.0
H7266 H 0.30951 0.97729 0.81746 0.0
H7267 H 0.30503 0.95927 0.80486 0.0
H7268 H 0.24626 0.96154 0.86895 0.0
H7269 H 0.2413 0.94309 0.85738 0.0
H7270 H 0.26914 0.97403 0.87537 0.0
H7271 H 0.28495 0.98707 0.86644 0.0
C7272 C 0.40298 0.98923 0.98141 0.0
C7273 C 0.40645 0.97157 0.98 0.0
C7274 C 0.40851 0.97441 0.94887 0.0
C7275 C 0.40427 0.99193 0.95034 0.0
N7276 N 0.39173 0.01426 0.96744 0.0
N7277 N 0.40806 0.94652 0.96242 0.0
C7278 C 0.3997 -0.00119 0.96645 0.0
C7279 C 0.40796 0.96388 0.96369 0.0
N7280 N 0.40351 -0.00298 -0.00302 0.0
N7281 N 0.41299 0.96788 0.93335 0.0
H7282 H 0.40672 0.93863 0.97307 0.0
H7283 H 0.4078 0.94 0.95085 0.0
H7284 H 0.41268 0.97514 0.92218 0.0
H7285 H 0.41783 0.95561 0.93173 0.0
H7286 H 0.40253 0.01018 -0.00145 0.0
H7287 H 0.40676 0.99056 0.00815 0.0
H7288 H 0.38696 0.0193 0.97878 0.0
H7289 H 0.38789 0.02093 0.95663 0.0
C7290 C 0.7111 0.65252 0.52128 0.0
C7291 C 0.7176 0.65273 0.5044 0.0
C7292 C 0.74666 0.65466 0.51514 0.0
C7293 C 0.74036 0.65424 0.53216 0.0
N7294 N 0.71701 0.64879 0.55148 0.0
N7295 N 0.74106 0.64859 0.48539 0.0
C7296 C 0.72268 0.65183 0.53526 0.0
C7297 C 0.73526 0.65203 0.50142 0.0
N7298 N 0.69392 0.65364 0.52387 0.0
N7299 N 0.76339 0.65829 0.51196 0.0
H7300 H 0.73277 0.64666 0.47516 0.0
H7301 H 0.7538 0.64578 0.48279 0.0
H7302 H 0.77219 0.66024 0.52163 0.0
H7303 H 0.76817 0.66076 0.49979 0.0
H7304 H 0.68837 0.65561 0.53579 0.0
H7305 H 0.68522 0.65345 0.51383 0.0
H7306 H 0.70448 0.64545 0.55437 0.0
H7307 H 0.72521 0.64828 0.56195 0.0
C7308 C 0.27972 0.84507 0.9843 0.0
C7309 C 0.29094 0.83171 0.97952 0.0
C7310 C 0.27367 0.8267 0.95419 0.0
C7311 C 0.26046 0.83685 0.96124 0.0
N7312 N 0.25046 0.8548 0.98424 0.0
N7313 N 0.2972 0.80804 0.96074 0.0
C7314 C 0.26342 0.84611 0.97648 0.0
C7315 C 0.28773 0.82217 0.96451 0.0
N7316 N 0.28464 0.85674 -0.00376 0.0
N7317 N 0.27255 0.82124 0.93769 0.0
H7318 H 0.30714 0.80378 0.96844 0.0
H7319 H 0.29406 0.79967 0.9509 0.0
H7320 H 0.26264 0.8251 0.92967 0.0
H7321 H 0.28233 0.8146 0.93157 0.0
H7322 H 0.2775 0.86758 -0.00087 0.0
H7323 H 0.29663 0.85636 0.00197 0.0
H7324 H 0.25165 0.86027 -0.00371 0.0
H7325 H 0.23812 0.85526 0.97938 0.0
C7326 C 0.59073 0.5431 0.51667 0.0
C7327 C 0.58331 0.54064 0.50027 0.0
C7328 C 0.56807 0.51584 0.51128 0.0
C7329 C 0.57817 0.51602 0.52614 0.0
N7330 N 0.5996 0.52963 0.5432 0.0
N7331 N 0.56922 0.52072 0.48121 0.0
C7332 C 0.58969 0.52965 0.52891 0.0
C7333 C 0.57306 0.52599 0.49735 0.0
N7334 N 0.59813 0.55832 0.52078 0.0
N7335 N 0.55377 0.50603 0.51024 0.0
H7336 H 0.57433 0.52639 0.47035 0.0
H7337 H 0.5631 0.50915 0.47882 0.0
H7338 H 0.54906 0.49899 0.52047 0.0
H7339 H 0.54553 0.50656 0.4998 0.0
H7340 H 0.60245 0.56118 0.53302 0.0
H7341 H 0.5984 0.56868 0.51244 0.0
H7342 H 0.60953 0.53825 0.54516 0.0
H7343 H 0.59828 0.52036 0.55269 0.0
C7344 C 0.71949 0.2267 0.11469 0.0
C7345 C 0.73266 0.22465 0.10305 0.0
C7346 C 0.71675 0.23414 0.07903 0.0
C7347 C 0.70256 0.23732 0.0903 0.0
N7348 N 0.69163 0.23924 0.11943 0.0
N7349 N 0.74817 0.22529 0.07938 0.0
C7350 C 0.70414 0.23415 0.10838 0.0
C7351 C 0.73206 0.22835 0.08652 0.0
N7352 N 0.72171 0.22159 0.13113 0.0
N7353 N 0.71536 0.23601 0.06179 0.0
H7354 H 0.77014 0.21596 0.0961 0.0
H7355 H 0.74809 0.22725 0.06601 0.0
H7356 H 0.70386 0.23894 0.0558 0.0
H7357 H 0.72543 0.23377 0.05341 0.0
H7358 H 0.71205 0.22161 0.14027 0.0
H7359 H 0.73332 0.21638 0.13513 0.0
H7360 H 0.69253 0.23798 0.13261 0.0
H7361 H 0.68088 0.24605 0.11558 0.0
C7362 C 0.27792 0.26517 0.39518 0.0
C7363 C 0.27035 0.2503 0.40223 0.0
C7364 C 0.24962 0.2677 0.41691 0.0
C7365 C 0.25474 0.28245 0.40773 0.0
N7366 N 0.27608 0.29561 0.38965 0.0
N7367 N 0.24672 0.23716 0.41642 0.0
C7368 C 0.2695 0.28128 0.39707 0.0
C7369 C 0.25513 0.25157 0.41152 0.0
N7370 N 0.29362 0.26396 0.3877 0.0
N7371 N 0.24177 0.26916 0.4323 0.0
H7372 H 0.25092 0.22505 0.41279 0.0
H7373 H 0.23486 0.2376 0.42248 0.0
H7374 H 0.24175 0.28079 0.4386 0.0
H7375 H 0.23866 0.2587 0.43993 0.0
H7376 H 0.30088 0.27444 0.38397 0.0
H7377 H 0.29979 0.25231 0.38592 0.0
H7378 H 0.28514 0.29533 0.37992 0.0
H7379 H 0.27269 0.30786 0.39355 0.0
C7380 C 0.26846 0.39 0.24533 0.0
C7381 C 0.28463 0.39657 0.25038 0.0
C7382 C 0.27401 0.39971 0.27956 0.0
C7383 C 0.25727 0.39652 0.27374 0.0
N7384 N 0.23807 0.38849 0.2513 0.0
N7385 N 0.30276 0.4084 0.27224 0.0
C7386 C 0.25438 0.39136 0.25672 0.0
C7387 C 0.28744 0.40158 0.26752 0.0
N7388 N 0.26649 0.38258 0.22968 0.0
N7389 N 0.27706 0.40024 0.29667 0.0
H7390 H 0.31312 0.40935 0.2639 0.0
H7391 H 0.30481 0.41404 0.28411 0.0
H7392 H 0.26737 0.39813 0.30556 0.0
H7393 H 0.28925 0.40117 0.30189 0.0
H7394 H 0.25563 0.37582 0.22613 0.0
H7395 H 0.27621 0.38189 0.22066 0.0
H7396 H 0.23479 0.38625 0.23865 0.0
H7397 H 0.22753 0.38935 0.25938 0.0
C7398 C 0.60291 0.69462 0.72654 0.0
C7399 C 0.58501 0.69646 0.73065 0.0
C7400 C 0.58445 0.723 0.71478 0.0
C7401 C 0.60077 0.72076 0.7105 0.0
N7402 N 0.62792 0.70763 0.71249 0.0
N7403 N 0.5583 0.712 0.72649 0.0
C7404 C 0.61096 0.70746 0.7163 0.0
C7405 C 0.57547 0.71057 0.72401 0.0
N7406 N 0.6122 0.68131 0.73288 0.0
N7407 N 0.5799 0.73992 0.71174 0.0
H7408 H 0.55117 0.70268 0.73269 0.0
H7409 H 0.55097 0.72171 0.72112 0.0
H7410 H 0.59952 0.75896 0.70173 0.0
H7411 H 0.56686 0.74209 0.71456 0.0
H7412 H 0.62501 0.67925 0.73011 0.0
H7413 H 0.60721 0.67199 0.74089 0.0
H7414 H 0.63665 0.69851 0.71658 0.0
H7415 H 0.63311 0.71737 0.70498 0.0
C7416 C 0.40255 0.27252 0.26526 0.0
C7417 C 0.40368 0.26534 0.2487 0.0
C7418 C 0.39796 0.23699 0.2603 0.0
C7419 C 0.39927 0.24375 0.27702 0.0
N7420 N 0.40257 0.26765 0.29595 0.0
N7421 N 0.40498 0.24068 0.23045 0.0
C7422 C 0.40136 0.2615 0.27968 0.0
C7423 C 0.40183 0.24757 0.24617 0.0
N7424 N 0.4025 0.28986 0.26702 0.0
N7425 N 0.39312 0.22042 0.25796 0.0
H7426 H 0.40853 0.24799 0.21991 0.0
H7427 H 0.4057 0.22761 0.2282 0.0
H7428 H 0.39014 0.2123 0.26806 0.0
H7429 H 0.39036 0.21527 0.24603 0.0
H7430 H 0.40059 0.29614 0.27856 0.0
H7431 H 0.4032 0.29808 0.25655 0.0
H7432 H 0.40571 0.2802 0.2989 0.0
H7433 H 0.40098 0.25987 0.30666 0.0
C7434 C 0.72375 0.56515 0.7209 0.0
C7435 C 0.71048 0.57713 0.71989 0.0
C7436 C 0.72219 0.58692 0.69259 0.0
C7437 C 0.73778 0.5783 0.69628 0.0
N7438 N 0.75401 0.56212 0.71726 0.0
N7439 N 0.69611 0.59911 0.70418 0.0
C7440 C 0.73872 0.56783 0.71114 0.0
C7441 C 0.7094 0.58796 0.7055 0.0
N7442 N 0.72195 0.55166 0.73163 0.0
N7443 N 0.71927 0.59341 0.67669 0.0
H7444 H 0.686 0.5991 0.71287 0.0
H7445 H 0.69555 0.60868 0.69495 0.0
H7446 H 0.72771 0.59164 0.66654 0.0
H7447 H 0.70763 0.5987 0.67306 0.0
H7448 H 0.73071 0.54165 0.7324 0.0
H7449 H 0.73071 0.54165 0.7324 0.0
H7450 H 0.75509 0.55562 0.7288 0.0
H7451 H 0.76576 0.56603 0.71248 0.0
C7452 C 0.72602 0.51922 0.67405 0.0
C7453 C 0.73201 0.52087 0.65703 0.0
C7454 C 0.70454 0.51076 0.64621 0.0
C7455 C 0.69847 0.50991 0.66327 0.0
N7456 N 0.70133 0.51855 0.69258 0.0
N7457 N 0.7266 0.52102 0.6269 0.0
C7458 C 0.70858 0.51576 0.67696 0.0
C7459 C 0.72113 0.51746 0.64306 0.0
N7460 N 0.73717 0.52026 0.6874 0.0
N7461 N 0.69464 0.50482 0.63316 0.0
H7462 H 0.7388 0.52576 0.62439 0.0
H7463 H 0.7188 0.52041 0.61618 0.0
H7464 H 0.68219 0.50046 0.63499 0.0
H7465 H 0.69902 0.50335 0.6207 0.0
H7466 H 0.73368 0.51785 0.70001 0.0
H7467 H 0.75029 0.52167 0.68572 0.0
H7468 H 0.70781 0.5242 0.70271 0.0
H7469 H 0.68826 0.51718 0.69466 0.0
C7470 C 0.25876 0.45847 0.34346 0.0
C7471 C 0.26054 0.44805 0.32869 0.0
C7472 C 0.28571 0.46432 0.32061 0.0
C7473 C 0.2805 0.47745 0.33168 0.0
N7474 N 0.27063 0.48172 0.36029 0.0
N7475 N 0.27634 0.44115 0.30299 0.0
C7476 C 0.26949 0.473 0.34528 0.0
C7477 C 0.27441 0.45075 0.31736 0.0
N7478 N 0.24657 0.45477 0.35535 0.0
N7479 N 0.3021 0.46371 0.31502 0.0
H7480 H 0.26797 0.4314 0.2998 0.0
H7481 H 0.28546 0.44391 0.29367 0.0
H7482 H 0.31118 0.47188 0.32028 0.0
H7483 H 0.30693 0.45365 0.30778 0.0
H7484 H 0.2433 0.46291 0.36533 0.0
H7485 H 0.23933 0.44367 0.35487 0.0
H7486 H 0.26387 0.47852 0.37128 0.0
H7487 H 0.27999 0.49101 0.36215 0.0
loop_
_geom_bond_atom_site_label_1
_geom_bond_atom_site_label_2
_geom_bond_distance
_geom_bond_site_symmetry_2
_ccdc_geom_bond_type
C0 C1 1.351 . S
C0 N3 1.368 . S
C0 H5 0.931 . S
C1 C0 1.351 . S
C1 N2 1.373 . S
C1 H29 0.930 . S
N2 C1 1.373 . S
N2 C4 1.340 . S
N3 C0 1.368 . S
N3 C4 1.321 . S
N3 Co6 2.135 . S
C4 N2 1.340 . S
C4 N3 1.321 . S
C4 H28 0.930 . S
H5 C0 0.931 . S
Co6 N3 2.135 . S
Co6 N9 2.121 . S
Co6 O14 2.055 . S
Co6 O17 2.039 . S
Co6 N20 2.140 . S
C7 O8 1.227 . S
C7 O17 1.265 . S
O8 C7 1.227 . S
N9 Co6 2.121 . S
N9 C11 1.375 . S
N9 C12 1.313 . S
C10 C11 1.338 . S
C10 N13 1.377 . S
C10 H30 0.930 . S
C11 N9 1.375 . S
C11 C10 1.338 . S
C11 H15 0.931 . S
C12 N9 1.313 . S
C12 N13 1.344 . S
C12 H16 0.930 . S
N13 C10 1.377 . S
N13 C12 1.344 . S
O14 Co6 2.055 . S
O14 C18 1.253 . S
H15 C11 0.931 . S
H16 C12 0.930 . S
O17 Co6 2.039 . S
O17 C7 1.265 . S
C18 O14 1.253 . S
C18 O19 1.227 . S
O19 C18 1.227 . S
N20 Co6 2.140 . S
N20 C23 1.346 . S
N20 C24 1.345 . S
C21 C22 1.387 . S
C21 C25 1.391 . S
C22 C21 1.387 . S
C22 C23 1.369 . S
C22 H31 0.929 . S
C23 N20 1.346 . S
C23 C22 1.369 . S
C23 H26 0.928 . S
C24 N20 1.345 . S
C24 C25 1.371 . S
C24 H27 0.931 . S
C25 C21 1.391 . S
C25 C24 1.371 . S
C25 H32 0.930 . S
H26 C23 0.928 . S
H27 C24 0.931 . S
H28 C4 0.930 . S
H29 C1 0.930 . S
H30 C10 0.930 . S
H31 C22 0.929 . S
H32 C25 0.930 . S
C33 C34 1.351 . S
C33 N36 1.368 . S
C33 H38 0.931 . S
C34 C33 1.351 . S
C34 N35 1.373 . S
C34 H62 0.930 . S
N35 C34 1.373 . S
N35 C37 1.340 . S
N36 C33 1.368 . S
N36 C37 1.321 . S
N36 Co39 2.135 . S
C37 N35 1.340 . S
C37 N36 1.321 . S
C37 H61 0.930 . S
H38 C33 0.931 . S
Co39 N36 2.135 . S
Co39 N42 2.121 . S
Co39 O47 2.055 . S
Co39 O50 2.039 . S
Co39 N53 2.140 . S
C40 O41 1.227 . S
C40 O50 1.265 . S
O41 C40 1.227 . S
N42 Co39 2.121 . S
N42 C44 1.375 . S
N42 C45 1.313 . S
C43 C44 1.338 . S
C43 N46 1.377 . S
C43 H63 0.930 . S
C44 N42 1.375 . S
C44 C43 1.338 . S
C44 H48 0.931 . S
C45 N42 1.313 . S
C45 N46 1.344 . S
C45 H49 0.930 . S
N46 C43 1.377 . S
N46 C45 1.344 . S
O47 Co39 2.055 . S
O47 C51 1.253 . S
H48 C44 0.931 . S
H49 C45 0.930 . S
O50 Co39 2.039 . S
O50 C40 1.265 . S
C51 O47 1.253 . S
C51 O52 1.227 . S
O52 C51 1.227 . S
N53 Co39 2.140 . S
N53 C56 1.346 . S
N53 C57 1.345 . S
C54 C55 1.387 . S
C54 C58 1.391 . S
C55 C54 1.387 . S
C55 C56 1.369 . S
C55 H64 0.929 . S
C56 N53 1.346 . S
C56 C55 1.369 . S
C56 H59 0.928 . S
C57 N53 1.345 . S
C57 C58 1.371 . S
C57 H60 0.931 . S
C58 C54 1.391 . S
C58 C57 1.371 . S
C58 H65 0.930 . S
H59 C56 0.928 . S
H60 C57 0.931 . S
H61 C37 0.930 . S
H62 C34 0.930 . S
H63 C43 0.930 . S
H64 C55 0.929 . S
H65 C58 0.930 . S
C66 C67 1.351 . S
C66 N69 1.368 . S
C66 H71 0.931 . S
C67 C66 1.351 . S
C67 N68 1.373 1_556 S
C67 H95 0.930 . S
N68 C67 1.373 1_554 S
N68 C70 1.340 . S
N69 C66 1.368 . S
N69 C70 1.321 1_556 S
N69 Co72 2.135 . S
C70 N68 1.340 . S
C70 N69 1.321 1_554 S
C70 H94 0.930 . S
H71 C66 0.931 . S
Co72 N69 2.135 . S
Co72 N75 2.121 . S
Co72 O80 2.055 . S
Co72 O83 2.039 . S
Co72 N86 2.140 . S
C73 O74 1.227 . S
C73 O83 1.265 . S
O74 C73 1.227 . S
N75 Co72 2.121 . S
N75 C77 1.375 . S
N75 C78 1.313 . S
C76 C77 1.338 . S
C76 N79 1.377 . S
C76 H96 0.930 . S
C77 N75 1.375 . S
C77 C76 1.338 . S
C77 H81 0.931 . S
C78 N75 1.313 . S
C78 N79 1.344 . S
C78 H82 0.930 . S
N79 C76 1.377 . S
N79 C78 1.344 . S
O80 Co72 2.055 . S
O80 C84 1.253 . S
H81 C77 0.931 . S
H82 C78 0.930 . S
O83 Co72 2.039 . S
O83 C73 1.265 . S
C84 O80 1.253 . S
C84 O85 1.227 . S
O85 C84 1.227 . S
N86 Co72 2.140 . S
N86 C89 1.346 . S
N86 C90 1.345 . S
C87 C88 1.387 . S
C87 C91 1.391 . S
C88 C87 1.387 . S
C88 C89 1.369 . S
C88 H97 0.929 . S
C89 N86 1.346 . S
C89 C88 1.369 . S
C89 H92 0.928 . S
C90 N86 1.345 . S
C90 C91 1.371 . S
C90 H93 0.931 . S
C91 C87 1.391 . S
C91 C90 1.371 . S
C91 H98 0.930 . S
H92 C89 0.928 . S
H93 C90 0.931 . S
H94 C70 0.930 . S
H95 C67 0.930 . S
H96 C76 0.930 . S
H97 C88 0.929 . S
H98 C91 0.930 . S
C99 C100 1.351 . S
C99 N102 1.368 . S
C99 H104 0.931 . S
C100 C99 1.351 . S
C100 N101 1.373 . S
C100 H128 0.930 . S
N101 C100 1.373 . S
N101 C103 1.340 . S
N102 C99 1.368 . S
N102 C103 1.321 . S
N102 Co105 2.135 . S
C103 N101 1.340 . S
C103 N102 1.321 . S
C103 H127 0.930 . S
H104 C99 0.931 . S
Co105 N102 2.135 . S
Co105 N108 2.121 . S
Co105 O113 2.055 . S
Co105 O116 2.039 . S
Co105 N119 2.140 . S
C106 O107 1.227 . S
C106 O116 1.265 . S
O107 C106 1.227 . S
N108 Co105 2.121 . S
N108 C110 1.375 . S
N108 C111 1.313 . S
C109 C110 1.338 . S
C109 N112 1.377 . S
C109 H129 0.930 . S
C110 N108 1.375 . S
C110 C109 1.338 . S
C110 H114 0.931 . S
C111 N108 1.313 . S
C111 N112 1.344 . S
C111 H115 0.930 . S
N112 C109 1.377 . S
N112 C111 1.344 . S
O113 Co105 2.055 . S
O113 C117 1.253 . S
H114 C110 0.931 . S
H115 C111 0.930 . S
O116 Co105 2.039 . S
O116 C106 1.265 . S
C117 O113 1.253 . S
C117 O118 1.227 . S
O118 C117 1.227 . S
N119 Co105 2.140 . S
N119 C122 1.346 . S
N119 C123 1.345 . S
C120 C121 1.387 . S
C120 C124 1.391 . S
C121 C120 1.387 . S
C121 C122 1.369 . S
C121 H130 0.929 . S
C122 N119 1.346 . S
C122 C121 1.369 . S
C122 H125 0.928 . S
C123 N119 1.345 . S
C123 C124 1.371 . S
C123 H126 0.931 . S
C124 C120 1.391 . S
C124 C123 1.371 . S
C124 H131 0.930 . S
H125 C122 0.928 . S
H126 C123 0.931 . S
H127 C103 0.930 . S
H128 C100 0.930 . S
H129 C109 0.930 . S
H130 C121 0.929 . S
H131 C124 0.930 . S
C132 C133 1.351 . S
C132 N135 1.368 . S
C132 H137 0.931 . S
C133 C132 1.351 . S
C133 N134 1.373 . S
C133 H161 0.930 . S
N134 C133 1.373 . S
N134 C136 1.340 . S
N135 C132 1.368 . S
N135 C136 1.321 . S
N135 Co138 2.135 . S
C136 N134 1.340 . S
C136 N135 1.321 . S
C136 H160 0.930 . S
H137 C132 0.931 . S
Co138 N135 2.135 . S
Co138 N141 2.121 . S
Co138 O146 2.055 . S
Co138 O149 2.039 . S
Co138 N152 2.140 . S
C139 O140 1.227 . S
C139 O149 1.265 . S
O140 C139 1.227 . S
N141 Co138 2.121 . S
N141 C143 1.375 . S
N141 C144 1.313 . S
C142 C143 1.338 . S
C142 N145 1.377 . S
C142 H162 0.930 . S
C143 N141 1.375 . S
C143 C142 1.338 . S
C143 H147 0.931 . S
C144 N141 1.313 . S
C144 N145 1.344 . S
C144 H148 0.930 . S
N145 C142 1.377 . S
N145 C144 1.344 . S
O146 Co138 2.055 . S
O146 C150 1.253 . S
H147 C143 0.931 . S
H148 C144 0.930 . S
O149 Co138 2.039 . S
O149 C139 1.265 . S
C150 O146 1.253 . S
C150 O151 1.227 . S
O151 C150 1.227 . S
N152 Co138 2.140 . S
N152 C155 1.346 . S
N152 C156 1.345 . S
C153 C154 1.387 . S
C153 C157 1.391 . S
C154 C153 1.387 . S
C154 C155 1.369 . S
C154 H163 0.929 . S
C155 N152 1.346 . S
C155 C154 1.369 . S
C155 H158 0.928 . S
C156 N152 1.345 . S
C156 C157 1.371 . S
C156 H159 0.931 . S
C157 C153 1.391 . S
C157 C156 1.371 . S
C157 H164 0.930 . S
H158 C155 0.928 . S
H159 C156 0.931 . S
H160 C136 0.930 . S
H161 C133 0.930 . S
H162 C142 0.930 . S
H163 C154 0.929 . S
H164 C157 0.930 . S
C165 C166 1.351 . S
C165 N168 1.368 . S
C165 H170 0.931 . S
C166 C165 1.351 . S
C166 N167 1.373 1_554 S
C166 H194 0.930 . S
N167 C166 1.373 1_556 S
N167 C169 1.340 . S
N168 C165 1.368 . S
N168 C169 1.321 1_554 S
N168 Co171 2.135 . S
C169 N167 1.340 . S
C169 N168 1.321 1_556 S
C169 H193 0.930 . S
H170 C165 0.931 . S
Co171 N168 2.135 . S
Co171 N174 2.121 . S
Co171 O179 2.055 . S
Co171 O182 2.039 . S
Co171 N185 2.140 . S
C172 O173 1.227 . S
C172 O182 1.265 . S
O173 C172 1.227 . S
N174 Co171 2.121 . S
N174 C176 1.375 . S
N174 C177 1.313 . S
C175 C176 1.338 . S
C175 N178 1.377 . S
C175 H195 0.930 . S
C176 N174 1.375 . S
C176 C175 1.338 . S
C176 H180 0.931 . S
C177 N174 1.313 . S
C177 N178 1.344 . S
C177 H181 0.930 . S
N178 C175 1.377 . S
N178 C177 1.344 . S
O179 Co171 2.055 . S
O179 C183 1.253 . S
H180 C176 0.931 . S
H181 C177 0.930 . S
O182 Co171 2.039 . S
O182 C172 1.265 . S
C183 O179 1.253 . S
C183 O184 1.227 . S
O184 C183 1.227 . S
N185 Co171 2.140 . S
N185 C188 1.346 . S
N185 C189 1.345 . S
C186 C187 1.387 . S
C186 C190 1.391 . S
C187 C186 1.387 . S
C187 C188 1.369 . S
C187 H196 0.929 . S
C188 N185 1.346 . S
C188 C187 1.369 . S
C188 H191 0.928 . S
C189 N185 1.345 . S
C189 C190 1.371 . S
C189 H192 0.931 . S
C190 C186 1.391 . S
C190 C189 1.371 . S
C190 H197 0.930 . S
H191 C188 0.928 . S
H192 C189 0.931 . S
H193 C169 0.930 . S
H194 C166 0.930 . S
H195 C175 0.930 . S
H196 C187 0.929 . S
H197 C190 0.930 . S
C198 C199 1.351 . S
C198 N201 1.368 . S
C198 H203 0.931 . S
C199 C198 1.351 . S
C199 N200 1.373 . S
C199 H227 0.930 . S
N200 C199 1.373 . S
N200 C202 1.340 . S
N201 C198 1.368 . S
N201 C202 1.321 . S
N201 Co204 2.135 . S
C202 N200 1.340 . S
C202 N201 1.321 . S
C202 H226 0.930 . S
H203 C198 0.931 . S
Co204 N201 2.135 . S
Co204 N207 2.121 . S
Co204 O212 2.055 . S
Co204 O215 2.039 . S
Co204 N218 2.140 . S
C205 O206 1.227 . S
C205 O215 1.265 . S
O206 C205 1.227 . S
N207 Co204 2.121 . S
N207 C209 1.375 . S
N207 C210 1.313 . S
C208 C209 1.338 . S
C208 N211 1.377 . S
C208 H228 0.930 . S
C209 N207 1.375 . S
C209 C208 1.338 . S
C209 H213 0.931 . S
C210 N207 1.313 . S
C210 N211 1.344 . S
C210 H214 0.930 . S
N211 C208 1.377 . S
N211 C210 1.344 . S
O212 Co204 2.055 . S
O212 C216 1.253 . S
H213 C209 0.931 . S
H214 C210 0.930 . S
O215 Co204 2.039 . S
O215 C205 1.265 . S
C216 O212 1.253 . S
C216 O217 1.227 . S
O217 C216 1.227 . S
N218 Co204 2.140 . S
N218 C221 1.346 . S
N218 C222 1.345 . S
C219 C220 1.387 . S
C219 C223 1.391 . S
C220 C219 1.387 . S
C220 C221 1.369 . S
C220 H229 0.929 . S
C221 N218 1.346 . S
C221 C220 1.369 . S
C221 H224 0.928 . S
C222 N218 1.345 . S
C222 C223 1.371 . S
C222 H225 0.931 . S
C223 C219 1.391 . S
C223 C222 1.371 . S
C223 H230 0.930 . S
H224 C221 0.928 . S
H225 C222 0.931 . S
H226 C202 0.930 . S
H227 C199 0.930 . S
H228 C208 0.930 . S
H229 C220 0.929 . S
H230 C223 0.930 . S
C231 C232 1.351 . S
C231 N234 1.368 . S
C231 H236 0.931 . S
C232 C231 1.351 . S
C232 N233 1.373 . S
C232 H260 0.930 . S
N233 C232 1.373 . S
N233 C235 1.340 . S
N234 C231 1.368 . S
N234 C235 1.321 . S
N234 Co237 2.135 . S
C235 N233 1.340 . S
C235 N234 1.321 . S
C235 H259 0.930 . S
H236 C231 0.931 . S
Co237 N234 2.135 . S
Co237 N240 2.121 . S
Co237 O245 2.055 . S
Co237 O248 2.039 . S
Co237 N251 2.140 . S
C238 O239 1.227 . S
C238 O248 1.265 . S
O239 C238 1.227 . S
N240 Co237 2.121 . S
N240 C242 1.375 . S
N240 C243 1.313 . S
C241 C242 1.338 . S
C241 N244 1.377 . S
C241 H261 0.930 . S
C242 N240 1.375 . S
C242 C241 1.338 . S
C242 H246 0.931 . S
C243 N240 1.313 . S
C243 N244 1.344 . S
C243 H247 0.930 . S
N244 C241 1.377 . S
N244 C243 1.344 . S
O245 Co237 2.055 . S
O245 C249 1.253 . S
H246 C242 0.931 . S
H247 C243 0.930 . S
O248 Co237 2.039 . S
O248 C238 1.265 . S
C249 O245 1.253 . S
C249 O250 1.227 . S
O250 C249 1.227 . S
N251 Co237 2.140 . S
N251 C254 1.346 . S
N251 C255 1.345 . S
C252 C253 1.387 . S
C252 C256 1.391 . S
C253 C252 1.387 . S
C253 C254 1.369 . S
C253 H262 0.929 . S
C254 N251 1.346 . S
C254 C253 1.369 . S
C254 H257 0.928 . S
C255 N251 1.345 . S
C255 C256 1.371 . S
C255 H258 0.931 . S
C256 C252 1.391 . S
C256 C255 1.371 . S
C256 H263 0.930 . S
H257 C254 0.928 . S
H258 C255 0.931 . S
H259 C235 0.930 . S
H260 C232 0.930 . S
H261 C241 0.930 . S
H262 C253 0.929 . S
H263 C256 0.930 . S
C264 C265 1.351 . S
C264 N267 1.368 . S
C264 H269 0.931 . S
C265 C264 1.351 . S
C265 N266 1.373 . S
C265 H293 0.930 . S
N266 C265 1.373 . S
N266 C268 1.340 . S
N267 C264 1.368 . S
N267 C268 1.321 . S
N267 Co270 2.135 . S
C268 N266 1.340 . S
C268 N267 1.321 . S
C268 H292 0.930 . S
H269 C264 0.931 . S
Co270 N267 2.135 . S
Co270 N273 2.121 . S
Co270 O278 2.055 . S
Co270 O281 2.039 . S
Co270 N284 2.140 . S
C271 O272 1.227 . S
C271 O281 1.265 . S
O272 C271 1.227 . S
N273 Co270 2.121 . S
N273 C275 1.375 . S
N273 C276 1.313 . S
C274 C275 1.338 . S
C274 N277 1.377 . S
C274 H294 0.930 . S
C275 N273 1.375 . S
C275 C274 1.338 . S
C275 H279 0.931 . S
C276 N273 1.313 . S
C276 N277 1.344 . S
C276 H280 0.930 . S
N277 C274 1.377 . S
N277 C276 1.344 . S
O278 Co270 2.055 . S
O278 C282 1.253 . S
H279 C275 0.931 . S
H280 C276 0.930 . S
O281 Co270 2.039 . S
O281 C271 1.265 . S
C282 O278 1.253 . S
C282 O283 1.227 . S
O283 C282 1.227 . S
N284 Co270 2.140 . S
N284 C287 1.346 . S
N284 C288 1.345 . S
C285 C286 1.387 . S
C285 C289 1.391 . S
C286 C285 1.387 . S
C286 C287 1.369 . S
C286 H295 0.929 . S
C287 N284 1.346 . S
C287 C286 1.369 . S
C287 H290 0.928 . S
C288 N284 1.345 . S
C288 C289 1.371 . S
C288 H291 0.931 . S
C289 C285 1.391 . S
C289 C288 1.371 . S
C289 H296 0.930 . S
H290 C287 0.928 . S
H291 C288 0.931 . S
H292 C268 0.930 . S
H293 C265 0.930 . S
H294 C274 0.930 . S
H295 C286 0.929 . S
H296 C289 0.930 . S
C297 C298 1.351 . S
C297 N300 1.368 . S
C297 H302 0.931 . S
C298 C297 1.351 . S
C298 N299 1.373 . S
C298 H326 0.930 . S
N299 C298 1.373 . S
N299 C301 1.340 . S
N300 C297 1.368 . S
N300 C301 1.321 . S
N300 Co303 2.135 . S
C301 N299 1.340 . S
C301 N300 1.321 . S
C301 H325 0.930 . S
H302 C297 0.931 . S
Co303 N300 2.135 . S
Co303 N306 2.121 . S
Co303 O311 2.055 . S
Co303 O314 2.039 . S
Co303 N317 2.140 . S
C304 O305 1.227 . S
C304 O314 1.265 . S
O305 C304 1.227 . S
N306 Co303 2.121 . S
N306 C308 1.375 . S
N306 C309 1.313 . S
C307 C308 1.338 . S
C307 N310 1.377 . S
C307 H327 0.930 . S
C308 N306 1.375 . S
C308 C307 1.338 . S
C308 H312 0.931 . S
C309 N306 1.313 . S
C309 N310 1.344 . S
C309 H313 0.930 . S
N310 C307 1.377 . S
N310 C309 1.344 . S
O311 Co303 2.055 . S
O311 C315 1.253 . S
H312 C308 0.931 . S
H313 C309 0.930 . S
O314 Co303 2.039 . S
O314 C304 1.265 . S
C315 O311 1.253 . S
C315 O316 1.227 . S
O316 C315 1.227 . S
N317 Co303 2.140 . S
N317 C320 1.346 . S
N317 C321 1.345 . S
C318 C319 1.387 . S
C318 C322 1.391 . S
C319 C318 1.387 . S
C319 C320 1.369 . S
C319 H328 0.929 . S
C320 N317 1.346 . S
C320 C319 1.369 . S
C320 H323 0.928 . S
C321 N317 1.345 . S
C321 C322 1.371 . S
C321 H324 0.931 . S
C322 C318 1.391 . S
C322 C321 1.371 . S
C322 H329 0.930 . S
H323 C320 0.928 . S
H324 C321 0.931 . S
H325 C301 0.930 . S
H326 C298 0.930 . S
H327 C307 0.930 . S
H328 C319 0.929 . S
H329 C322 0.930 . S
C330 C331 1.351 . S
C330 N333 1.368 . S
C330 H335 0.931 . S
C331 C330 1.351 . S
C331 N332 1.373 . S
C331 H359 0.930 . S
N332 C331 1.373 . S
N332 C334 1.340 . S
N333 C330 1.368 . S
N333 C334 1.321 . S
N333 Co336 2.135 . S
C334 N332 1.340 . S
C334 N333 1.321 . S
C334 H358 0.930 . S
H335 C330 0.931 . S
Co336 N333 2.135 . S
Co336 N339 2.121 . S
Co336 O344 2.055 . S
Co336 O347 2.039 . S
Co336 N350 2.140 . S
C337 O338 1.227 . S
C337 O347 1.265 . S
O338 C337 1.227 . S
N339 Co336 2.121 . S
N339 C341 1.375 . S
N339 C342 1.313 . S
C340 C341 1.338 . S
C340 N343 1.377 . S
C340 H360 0.930 . S
C341 N339 1.375 . S
C341 C340 1.338 . S
C341 H345 0.931 . S
C342 N339 1.313 . S
C342 N343 1.344 . S
C342 H346 0.930 . S
N343 C340 1.377 . S
N343 C342 1.344 . S
O344 Co336 2.055 . S
O344 C348 1.253 . S
H345 C341 0.931 . S
H346 C342 0.930 . S
O347 Co336 2.039 . S
O347 C337 1.265 . S
C348 O344 1.253 . S
C348 O349 1.227 . S
O349 C348 1.227 . S
N350 Co336 2.140 . S
N350 C353 1.346 . S
N350 C354 1.345 . S
C351 C352 1.387 . S
C351 C355 1.391 . S
C352 C351 1.387 . S
C352 C353 1.369 . S
C352 H361 0.929 . S
C353 N350 1.346 . S
C353 C352 1.369 . S
C353 H356 0.928 . S
C354 N350 1.345 . S
C354 C355 1.371 . S
C354 H357 0.931 . S
C355 C351 1.391 . S
C355 C354 1.371 . S
C355 H362 0.930 . S
H356 C353 0.928 . S
H357 C354 0.931 . S
H358 C334 0.930 . S
H359 C331 0.930 . S
H360 C340 0.930 . S
H361 C352 0.929 . S
H362 C355 0.930 . S
C363 C364 1.351 . S
C363 N366 1.368 . S
C363 H368 0.931 . S
C364 C363 1.351 . S
C364 N365 1.373 . S
C364 H392 0.930 . S
N365 C364 1.373 . S
N365 C367 1.340 . S
N366 C363 1.368 . S
N366 C367 1.321 . S
N366 Co369 2.135 . S
C367 N365 1.340 . S
C367 N366 1.321 . S
C367 H391 0.930 . S
H368 C363 0.931 . S
Co369 N366 2.135 . S
Co369 N372 2.121 . S
Co369 O377 2.055 . S
Co369 O380 2.039 . S
Co369 N383 2.140 . S
C370 O371 1.227 . S
C370 O380 1.265 . S
O371 C370 1.227 . S
N372 Co369 2.121 . S
N372 C374 1.375 . S
N372 C375 1.313 . S
C373 C374 1.338 . S
C373 N376 1.377 . S
C373 H393 0.930 . S
C374 N372 1.375 . S
C374 C373 1.338 . S
C374 H378 0.931 . S
C375 N372 1.313 . S
C375 N376 1.344 . S
C375 H379 0.930 . S
N376 C373 1.377 . S
N376 C375 1.344 . S
O377 Co369 2.055 . S
O377 C381 1.253 . S
H378 C374 0.931 . S
H379 C375 0.930 . S
O380 Co369 2.039 . S
O380 C370 1.265 . S
C381 O377 1.253 . S
C381 O382 1.227 . S
O382 C381 1.227 . S
N383 Co369 2.140 . S
N383 C386 1.346 . S
N383 C387 1.345 . S
C384 C385 1.387 . S
C384 C388 1.391 . S
C385 C384 1.387 . S
C385 C386 1.369 . S
C385 H394 0.929 . S
C386 N383 1.346 . S
C386 C385 1.369 . S
C386 H389 0.928 . S
C387 N383 1.345 . S
C387 C388 1.371 . S
C387 H390 0.931 . S
C388 C384 1.391 . S
C388 C387 1.371 . S
C388 H395 0.930 . S
H389 C386 0.928 . S
H390 C387 0.931 . S
H391 C367 0.930 . S
H392 C364 0.930 . S
H393 C373 0.930 . S
H394 C385 0.929 . S
H395 C388 0.930 . S
C396 C397 1.351 . S
C396 N399 1.368 . S
C396 H401 0.931 . S
C397 C396 1.351 . S
C397 N398 1.373 . S
C397 H425 0.930 . S
N398 C397 1.373 . S
N398 C400 1.340 . S
N399 C396 1.368 . S
N399 C400 1.321 . S
N399 Co402 2.135 . S
C400 N398 1.340 . S
C400 N399 1.321 . S
C400 H424 0.930 . S
H401 C396 0.931 . S
Co402 N399 2.135 . S
Co402 N405 2.121 . S
Co402 O410 2.055 . S
Co402 O413 2.039 . S
Co402 N416 2.140 . S
C403 O404 1.227 . S
C403 O413 1.265 . S
O404 C403 1.227 . S
N405 Co402 2.121 . S
N405 C407 1.375 . S
N405 C408 1.313 . S
C406 C407 1.338 . S
C406 N409 1.377 . S
C406 H426 0.930 . S
C407 N405 1.375 . S
C407 C406 1.338 . S
C407 H411 0.931 . S
C408 N405 1.313 . S
C408 N409 1.344 . S
C408 H412 0.930 . S
N409 C406 1.377 . S
N409 C408 1.344 . S
O410 Co402 2.055 . S
O410 C414 1.253 . S
H411 C407 0.931 . S
H412 C408 0.930 . S
O413 Co402 2.039 . S
O413 C403 1.265 . S
C414 O410 1.253 . S
C414 O415 1.227 . S
O415 C414 1.227 . S
N416 Co402 2.140 . S
N416 C419 1.346 . S
N416 C420 1.345 . S
C417 C418 1.387 . S
C417 C421 1.391 . S
C418 C417 1.387 . S
C418 C419 1.369 . S
C418 H427 0.929 . S
C419 N416 1.346 . S
C419 C418 1.369 . S
C419 H422 0.928 . S
C420 N416 1.345 . S
C420 C421 1.371 . S
C420 H423 0.931 . S
C421 C417 1.391 . S
C421 C420 1.371 . S
C421 H428 0.930 . S
H422 C419 0.928 . S
H423 C420 0.931 . S
H424 C400 0.930 . S
H425 C397 0.930 . S
H426 C406 0.930 . S
H427 C418 0.929 . S
H428 C421 0.930 . S
C429 C430 1.351 . S
C429 N432 1.368 . S
C429 H434 0.931 . S
C430 C429 1.351 . S
C430 N431 1.373 . S
C430 H458 0.930 . S
N431 C430 1.373 . S
N431 C433 1.340 . S
N432 C429 1.368 . S
N432 C433 1.321 . S
N432 Co435 2.135 . S
C433 N431 1.340 . S
C433 N432 1.321 . S
C433 H457 0.930 . S
H434 C429 0.931 . S
Co435 N432 2.135 . S
Co435 N438 2.121 . S
Co435 O443 2.055 . S
Co435 O446 2.039 . S
Co435 N449 2.140 . S
C436 O437 1.227 . S
C436 O446 1.265 . S
O437 C436 1.227 . S
N438 Co435 2.121 . S
N438 C440 1.375 . S
N438 C441 1.313 . S
C439 C440 1.338 . S
C439 N442 1.377 . S
C439 H459 0.930 . S
C440 N438 1.375 . S
C440 C439 1.338 . S
C440 H444 0.931 . S
C441 N438 1.313 . S
C441 N442 1.344 . S
C441 H445 0.930 . S
N442 C439 1.377 . S
N442 C441 1.344 . S
O443 Co435 2.055 . S
O443 C447 1.253 . S
H444 C440 0.931 . S
H445 C441 0.930 . S
O446 Co435 2.039 . S
O446 C436 1.265 . S
C447 O443 1.253 . S
C447 O448 1.227 . S
O448 C447 1.227 . S
N449 Co435 2.140 . S
N449 C452 1.346 . S
N449 C453 1.345 . S
C450 C451 1.387 . S
C450 C454 1.391 . S
C451 C450 1.387 . S
C451 C452 1.369 . S
C451 H460 0.929 . S
C452 N449 1.346 . S
C452 C451 1.369 . S
C452 H455 0.928 . S
C453 N449 1.345 . S
C453 C454 1.371 . S
C453 H456 0.931 . S
C454 C450 1.391 . S
C454 C453 1.371 . S
C454 H461 0.930 . S
H455 C452 0.928 . S
H456 C453 0.931 . S
H457 C433 0.930 . S
H458 C430 0.930 . S
H459 C439 0.930 . S
H460 C451 0.929 . S
H461 C454 0.930 . S
C462 C463 1.351 . S
C462 N465 1.368 . S
C462 H467 0.931 . S
C463 C462 1.351 . S
C463 N464 1.373 . S
C463 H491 0.930 . S
N464 C463 1.373 . S
N464 C466 1.340 . S
N465 C462 1.368 . S
N465 C466 1.321 . S
N465 Co468 2.135 . S
C466 N464 1.340 . S
C466 N465 1.321 . S
C466 H490 0.930 . S
H467 C462 0.931 . S
Co468 N465 2.135 . S
Co468 N471 2.121 . S
Co468 O476 2.055 . S
Co468 O479 2.039 . S
Co468 N482 2.140 . S
C469 O470 1.227 . S
C469 O479 1.265 . S
O470 C469 1.227 . S
N471 Co468 2.121 . S
N471 C473 1.375 . S
N471 C474 1.313 . S
C472 C473 1.338 . S
C472 N475 1.377 . S
C472 H492 0.930 . S
C473 N471 1.375 . S
C473 C472 1.338 . S
C473 H477 0.931 . S
C474 N471 1.313 . S
C474 N475 1.344 . S
C474 H478 0.930 . S
N475 C472 1.377 . S
N475 C474 1.344 . S
O476 Co468 2.055 . S
O476 C480 1.253 . S
H477 C473 0.931 . S
H478 C474 0.930 . S
O479 Co468 2.039 . S
O479 C469 1.265 . S
C480 O476 1.253 . S
C480 O481 1.227 . S
O481 C480 1.227 . S
N482 Co468 2.140 . S
N482 C485 1.346 . S
N482 C486 1.345 . S
C483 C484 1.387 . S
C483 C487 1.391 . S
C484 C483 1.387 . S
C484 C485 1.369 . S
C484 H493 0.929 . S
C485 N482 1.346 . S
C485 C484 1.369 . S
C485 H488 0.928 . S
C486 N482 1.345 . S
C486 C487 1.371 . S
C486 H489 0.931 . S
C487 C483 1.391 . S
C487 C486 1.371 . S
C487 H494 0.930 . S
H488 C485 0.928 . S
H489 C486 0.931 . S
H490 C466 0.930 . S
H491 C463 0.930 . S
H492 C472 0.930 . S
H493 C484 0.929 . S
H494 C487 0.930 . S
C495 C496 1.351 . S
C495 N498 1.368 . S
C495 H500 0.931 . S
C496 C495 1.351 . S
C496 N497 1.373 . S
C496 H524 0.930 . S
N497 C496 1.373 . S
N497 C499 1.340 . S
N498 C495 1.368 . S
N498 C499 1.321 . S
N498 Co501 2.135 . S
C499 N497 1.340 . S
C499 N498 1.321 . S
C499 H523 0.930 . S
H500 C495 0.931 . S
Co501 N498 2.135 . S
Co501 N504 2.121 . S
Co501 O509 2.055 . S
Co501 O512 2.039 . S
Co501 N515 2.140 . S
C502 O503 1.227 . S
C502 O512 1.265 . S
O503 C502 1.227 . S
N504 Co501 2.121 . S
N504 C506 1.375 . S
N504 C507 1.313 . S
C505 C506 1.338 . S
C505 N508 1.377 . S
C505 H525 0.930 . S
C506 N504 1.375 . S
C506 C505 1.338 . S
C506 H510 0.931 . S
C507 N504 1.313 . S
C507 N508 1.344 . S
C507 H511 0.930 . S
N508 C505 1.377 . S
N508 C507 1.344 . S
O509 Co501 2.055 . S
O509 C513 1.253 . S
H510 C506 0.931 . S
H511 C507 0.930 . S
O512 Co501 2.039 . S
O512 C502 1.265 . S
C513 O509 1.253 . S
C513 O514 1.227 . S
O514 C513 1.227 . S
N515 Co501 2.140 . S
N515 C518 1.346 . S
N515 C519 1.345 . S
C516 C517 1.387 . S
C516 C520 1.391 . S
C517 C516 1.387 . S
C517 C518 1.369 . S
C517 H526 0.929 . S
C518 N515 1.346 . S
C518 C517 1.369 . S
C518 H521 0.928 . S
C519 N515 1.345 . S
C519 C520 1.371 . S
C519 H522 0.931 . S
C520 C516 1.391 . S
C520 C519 1.371 . S
C520 H527 0.930 . S
H521 C518 0.928 . S
H522 C519 0.931 . S
H523 C499 0.930 . S
H524 C496 0.930 . S
H525 C505 0.930 . S
H526 C517 0.929 . S
H527 C520 0.930 . S
C528 C529 1.351 . S
C528 N531 1.368 . S
C528 H533 0.931 . S
C529 C528 1.351 . S
C529 N530 1.373 . S
C529 H557 0.930 . S
N530 C529 1.373 . S
N530 C532 1.340 . S
N531 C528 1.368 . S
N531 C532 1.321 . S
N531 Co534 2.135 . S
C532 N530 1.340 . S
C532 N531 1.321 . S
C532 H556 0.930 . S
H533 C528 0.931 . S
Co534 N531 2.135 . S
Co534 N537 2.121 . S
Co534 O542 2.055 . S
Co534 O545 2.039 . S
Co534 N548 2.140 . S
C535 O536 1.227 . S
C535 O545 1.265 . S
O536 C535 1.227 . S
N537 Co534 2.121 . S
N537 C539 1.375 . S
N537 C540 1.313 . S
C538 C539 1.338 . S
C538 N541 1.377 . S
C538 H558 0.930 . S
C539 N537 1.375 . S
C539 C538 1.338 . S
C539 H543 0.931 . S
C540 N537 1.313 . S
C540 N541 1.344 . S
C540 H544 0.930 . S
N541 C538 1.377 . S
N541 C540 1.344 . S
O542 Co534 2.055 . S
O542 C546 1.253 . S
H543 C539 0.931 . S
H544 C540 0.930 . S
O545 Co534 2.039 . S
O545 C535 1.265 . S
C546 O542 1.253 . S
C546 O547 1.227 . S
O547 C546 1.227 . S
N548 Co534 2.140 . S
N548 C551 1.346 . S
N548 C552 1.345 . S
C549 C550 1.387 . S
C549 C553 1.391 . S
C550 C549 1.387 . S
C550 C551 1.369 . S
C550 H559 0.929 . S
C551 N548 1.346 . S
C551 C550 1.369 . S
C551 H554 0.928 . S
C552 N548 1.345 . S
C552 C553 1.371 . S
C552 H555 0.931 . S
C553 C549 1.391 . S
C553 C552 1.371 . S
C553 H560 0.930 . S
H554 C551 0.928 . S
H555 C552 0.931 . S
H556 C532 0.930 . S
H557 C529 0.930 . S
H558 C538 0.930 . S
H559 C550 0.929 . S
H560 C553 0.930 . S
C561 C562 1.351 . S
C561 N564 1.368 . S
C561 H566 0.931 . S
C562 C561 1.351 . S
C562 N563 1.373 . S
C562 H590 0.930 . S
N563 C562 1.373 . S
N563 C565 1.340 . S
N564 C561 1.368 . S
N564 C565 1.321 . S
N564 Co567 2.135 . S
C565 N563 1.340 . S
C565 N564 1.321 . S
C565 H589 0.930 . S
H566 C561 0.931 . S
Co567 N564 2.135 . S
Co567 N570 2.121 . S
Co567 O575 2.055 . S
Co567 O578 2.039 . S
Co567 N581 2.140 . S
C568 O569 1.227 . S
C568 O578 1.265 . S
O569 C568 1.227 . S
N570 Co567 2.121 . S
N570 C572 1.375 . S
N570 C573 1.313 . S
C571 C572 1.338 . S
C571 N574 1.377 . S
C571 H591 0.930 . S
C572 N570 1.375 . S
C572 C571 1.338 . S
C572 H576 0.931 . S
C573 N570 1.313 . S
C573 N574 1.344 . S
C573 H577 0.930 . S
N574 C571 1.377 . S
N574 C573 1.344 . S
O575 Co567 2.055 . S
O575 C579 1.253 . S
H576 C572 0.931 . S
H577 C573 0.930 . S
O578 Co567 2.039 . S
O578 C568 1.265 . S
C579 O575 1.253 . S
C579 O580 1.227 . S
O580 C579 1.227 . S
N581 Co567 2.140 . S
N581 C584 1.346 . S
N581 C585 1.345 . S
C582 C583 1.387 . S
C582 C586 1.391 . S
C583 C582 1.387 . S
C583 C584 1.369 . S
C583 H592 0.929 . S
C584 N581 1.346 . S
C584 C583 1.369 . S
C584 H587 0.928 . S
C585 N581 1.345 . S
C585 C586 1.371 . S
C585 H588 0.931 . S
C586 C582 1.391 . S
C586 C585 1.371 . S
C586 H593 0.930 . S
H587 C584 0.928 . S
H588 C585 0.931 . S
H589 C565 0.930 . S
H590 C562 0.930 . S
H591 C571 0.930 . S
H592 C583 0.929 . S
H593 C586 0.930 . S
C594 C595 1.351 . S
C594 N597 1.368 . S
C594 H599 0.931 . S
C595 C594 1.351 . S
C595 N596 1.373 . S
C595 H623 0.930 . S
N596 C595 1.373 . S
N596 C598 1.340 . S
N597 C594 1.368 . S
N597 C598 1.321 . S
N597 Co600 2.135 . S
C598 N596 1.340 . S
C598 N597 1.321 . S
C598 H622 0.930 . S
H599 C594 0.931 . S
Co600 N597 2.135 . S
Co600 N603 2.121 . S
Co600 O608 2.055 . S
Co600 O611 2.039 . S
Co600 N614 2.140 . S
C601 O602 1.227 . S
C601 O611 1.265 . S
O602 C601 1.227 . S
N603 Co600 2.121 . S
N603 C605 1.375 . S
N603 C606 1.313 . S
C604 C605 1.338 . S
C604 N607 1.377 . S
C604 H624 0.930 . S
C605 N603 1.375 . S
C605 C604 1.338 . S
C605 H609 0.931 . S
C606 N603 1.313 . S
C606 N607 1.344 . S
C606 H610 0.930 . S
N607 C604 1.377 . S
N607 C606 1.344 . S
O608 Co600 2.055 . S
O608 C612 1.253 . S
H609 C605 0.931 . S
H610 C606 0.930 . S
O611 Co600 2.039 . S
O611 C601 1.265 . S
C612 O608 1.253 . S
C612 O613 1.227 . S
O613 C612 1.227 . S
N614 Co600 2.140 . S
N614 C617 1.346 . S
N614 C618 1.345 . S
C615 C616 1.387 . S
C615 C619 1.391 . S
C616 C615 1.387 . S
C616 C617 1.369 . S
C616 H625 0.929 . S
C617 N614 1.346 . S
C617 C616 1.369 . S
C617 H620 0.928 . S
C618 N614 1.345 . S
C618 C619 1.371 . S
C618 H621 0.931 . S
C619 C615 1.391 . S
C619 C618 1.371 . S
C619 H626 0.930 . S
H620 C617 0.928 . S
H621 C618 0.931 . S
H622 C598 0.930 . S
H623 C595 0.930 . S
H624 C604 0.930 . S
H625 C616 0.929 . S
H626 C619 0.930 . S
C627 C628 1.351 . S
C627 N630 1.368 . S
C627 H632 0.931 . S
C628 C627 1.351 . S
C628 N629 1.373 1_565 S
C628 H656 0.930 . S
N629 C628 1.373 1_545 S
N629 C631 1.340 . S
N630 C627 1.368 . S
N630 C631 1.321 1_565 S
N630 Co633 2.135 . S
C631 N629 1.340 . S
C631 N630 1.321 1_545 S
C631 H655 0.930 . S
H632 C627 0.931 . S
Co633 N630 2.135 . S
Co633 N636 2.121 . S
Co633 O641 2.055 . S
Co633 O644 2.039 . S
Co633 N647 2.140 . S
C634 O635 1.227 . S
C634 O644 1.265 . S
O635 C634 1.227 . S
N636 Co633 2.121 . S
N636 C638 1.375 . S
N636 C639 1.313 . S
C637 C638 1.338 . S
C637 N640 1.377 . S
C637 H657 0.930 . S
C638 N636 1.375 . S
C638 C637 1.338 . S
C638 H642 0.931 . S
C639 N636 1.313 . S
C639 N640 1.344 . S
C639 H643 0.930 . S
N640 C637 1.377 . S
N640 C639 1.344 . S
O641 Co633 2.055 . S
O641 C645 1.253 . S
H642 C638 0.931 . S
H643 C639 0.930 . S
O644 Co633 2.039 . S
O644 C634 1.265 . S
C645 O641 1.253 . S
C645 O646 1.227 . S
O646 C645 1.227 . S
N647 Co633 2.140 . S
N647 C650 1.346 . S
N647 C651 1.345 . S
C648 C649 1.387 . S
C648 C652 1.391 . S
C649 C648 1.387 . S
C649 C650 1.369 . S
C649 H658 0.929 . S
C650 N647 1.346 . S
C650 C649 1.369 . S
C650 H653 0.928 . S
C651 N647 1.345 . S
C651 C652 1.371 . S
C651 H654 0.931 . S
C652 C648 1.391 . S
C652 C651 1.371 . S
C652 H659 0.930 . S
H653 C650 0.928 . S
H654 C651 0.931 . S
H655 C631 0.930 . S
H656 C628 0.930 . S
H657 C637 0.930 . S
H658 C649 0.929 . S
H659 C652 0.930 . S
C660 C661 1.351 . S
C660 N663 1.368 . S
C660 H665 0.931 . S
C661 C660 1.351 . S
C661 N662 1.373 . S
C661 H689 0.930 . S
N662 C661 1.373 . S
N662 C664 1.340 . S
N663 C660 1.368 . S
N663 C664 1.321 . S
N663 Co666 2.135 . S
C664 N662 1.340 . S
C664 N663 1.321 . S
C664 H688 0.930 . S
H665 C660 0.931 . S
Co666 N663 2.135 . S
Co666 N669 2.121 . S
Co666 O674 2.055 . S
Co666 O677 2.039 . S
Co666 N680 2.140 . S
C667 O668 1.227 . S
C667 O677 1.265 . S
O668 C667 1.227 . S
N669 Co666 2.121 . S
N669 C671 1.375 . S
N669 C672 1.313 . S
C670 C671 1.338 . S
C670 N673 1.377 . S
C670 H690 0.930 . S
C671 N669 1.375 . S
C671 C670 1.338 . S
C671 H675 0.931 . S
C672 N669 1.313 . S
C672 N673 1.344 . S
C672 H676 0.930 . S
N673 C670 1.377 . S
N673 C672 1.344 . S
O674 Co666 2.055 . S
O674 C678 1.253 . S
H675 C671 0.931 . S
H676 C672 0.930 . S
O677 Co666 2.039 . S
O677 C667 1.265 . S
C678 O674 1.253 . S
C678 O679 1.227 . S
O679 C678 1.227 . S
N680 Co666 2.140 . S
N680 C683 1.346 . S
N680 C684 1.345 . S
C681 C682 1.387 . S
C681 C685 1.391 . S
C682 C681 1.387 . S
C682 C683 1.369 . S
C682 H691 0.929 . S
C683 N680 1.346 . S
C683 C682 1.369 . S
C683 H686 0.928 . S
C684 N680 1.345 . S
C684 C685 1.371 . S
C684 H687 0.931 . S
C685 C681 1.391 . S
C685 C684 1.371 . S
C685 H692 0.930 . S
H686 C683 0.928 . S
H687 C684 0.931 . S
H688 C664 0.930 . S
H689 C661 0.930 . S
H690 C670 0.930 . S
H691 C682 0.929 . S
H692 C685 0.930 . S
C693 C694 1.351 . S
C693 N696 1.368 . S
C693 H698 0.931 . S
C694 C693 1.351 . S
C694 N695 1.373 . S
C694 H722 0.930 . S
N695 C694 1.373 . S
N695 C697 1.340 . S
N696 C693 1.368 . S
N696 C697 1.321 . S
N696 Co699 2.135 . S
C697 N695 1.340 . S
C697 N696 1.321 . S
C697 H721 0.930 . S
H698 C693 0.931 . S
Co699 N696 2.135 . S
Co699 N702 2.121 . S
Co699 O707 2.055 . S
Co699 O710 2.039 . S
Co699 N713 2.140 . S
C700 O701 1.227 . S
C700 O710 1.265 . S
O701 C700 1.227 . S
N702 Co699 2.121 . S
N702 C704 1.375 . S
N702 C705 1.313 . S
C703 C704 1.338 . S
C703 N706 1.377 . S
C703 H723 0.930 . S
C704 N702 1.375 . S
C704 C703 1.338 . S
C704 H708 0.931 . S
C705 N702 1.313 . S
C705 N706 1.344 . S
C705 H709 0.930 . S
N706 C703 1.377 . S
N706 C705 1.344 . S
O707 Co699 2.055 . S
O707 C711 1.253 . S
H708 C704 0.931 . S
H709 C705 0.930 . S
O710 Co699 2.039 . S
O710 C700 1.265 . S
C711 O707 1.253 . S
C711 O712 1.227 . S
O712 C711 1.227 . S
N713 Co699 2.140 . S
N713 C716 1.346 . S
N713 C717 1.345 . S
C714 C715 1.387 . S
C714 C718 1.391 . S
C715 C714 1.387 . S
C715 C716 1.369 . S
C715 H724 0.929 . S
C716 N713 1.346 . S
C716 C715 1.369 . S
C716 H719 0.928 . S
C717 N713 1.345 . S
C717 C718 1.371 . S
C717 H720 0.931 . S
C718 C714 1.391 . S
C718 C717 1.371 . S
C718 H725 0.930 . S
H719 C716 0.928 . S
H720 C717 0.931 . S
H721 C697 0.930 . S
H722 C694 0.930 . S
H723 C703 0.930 . S
H724 C715 0.929 . S
H725 C718 0.930 . S
C726 C727 1.351 . S
C726 N729 1.368 . S
C726 H731 0.931 . S
C727 C726 1.351 . S
C727 N728 1.373 . S
C727 H755 0.930 . S
N728 C727 1.373 . S
N728 C730 1.340 . S
N729 C726 1.368 . S
N729 C730 1.321 . S
N729 Co732 2.135 . S
C730 N728 1.340 . S
C730 N729 1.321 . S
C730 H754 0.930 . S
H731 C726 0.931 . S
Co732 N729 2.135 . S
Co732 N735 2.121 . S
Co732 O740 2.055 . S
Co732 O743 2.039 . S
Co732 N746 2.140 . S
C733 O734 1.227 . S
C733 O743 1.265 . S
O734 C733 1.227 . S
N735 Co732 2.121 . S
N735 C737 1.375 . S
N735 C738 1.313 . S
C736 C737 1.338 . S
C736 N739 1.377 . S
C736 H756 0.930 . S
C737 N735 1.375 . S
C737 C736 1.338 . S
C737 H741 0.931 . S
C738 N735 1.313 . S
C738 N739 1.344 . S
C738 H742 0.930 . S
N739 C736 1.377 . S
N739 C738 1.344 . S
O740 Co732 2.055 . S
O740 C744 1.253 . S
H741 C737 0.931 . S
H742 C738 0.930 . S
O743 Co732 2.039 . S
O743 C733 1.265 . S
C744 O740 1.253 . S
C744 O745 1.227 . S
O745 C744 1.227 . S
N746 Co732 2.140 . S
N746 C749 1.346 . S
N746 C750 1.345 . S
C747 C748 1.387 . S
C747 C751 1.391 . S
C748 C747 1.387 . S
C748 C749 1.369 . S
C748 H757 0.929 . S
C749 N746 1.346 . S
C749 C748 1.369 . S
C749 H752 0.928 . S
C750 N746 1.345 . S
C750 C751 1.371 . S
C750 H753 0.931 . S
C751 C747 1.391 . S
C751 C750 1.371 . S
C751 H758 0.930 . S
H752 C749 0.928 . S
H753 C750 0.931 . S
H754 C730 0.930 . S
H755 C727 0.930 . S
H756 C736 0.930 . S
H757 C748 0.929 . S
H758 C751 0.930 . S
C759 C760 1.351 . S
C759 N762 1.368 . S
C759 H764 0.931 . S
C760 C759 1.351 . S
C760 N761 1.373 1_455 S
C760 H788 0.930 . S
N761 C760 1.373 1_655 S
N761 C763 1.340 . S
N762 C759 1.368 . S
N762 C763 1.321 1_455 S
N762 Co765 2.135 . S
C763 N761 1.340 . S
C763 N762 1.321 1_655 S
C763 H787 0.930 . S
H764 C759 0.931 . S
Co765 N762 2.135 . S
Co765 N768 2.121 . S
Co765 O773 2.055 . S
Co765 O776 2.039 . S
Co765 N779 2.140 . S
C766 O767 1.227 . S
C766 O776 1.265 . S
O767 C766 1.227 . S
N768 Co765 2.121 . S
N768 C770 1.375 . S
N768 C771 1.313 . S
C769 C770 1.338 . S
C769 N772 1.377 . S
C769 H789 0.930 . S
C770 N768 1.375 . S
C770 C769 1.338 . S
C770 H774 0.931 . S
C771 N768 1.313 . S
C771 N772 1.344 . S
C771 H775 0.930 . S
N772 C769 1.377 . S
N772 C771 1.344 . S
O773 Co765 2.055 . S
O773 C777 1.253 . S
H774 C770 0.931 . S
H775 C771 0.930 . S
O776 Co765 2.039 . S
O776 C766 1.265 . S
C777 O773 1.253 . S
C777 O778 1.227 . S
O778 C777 1.227 . S
N779 Co765 2.140 . S
N779 C782 1.346 . S
N779 C783 1.345 . S
C780 C781 1.387 . S
C780 C784 1.391 . S
C781 C780 1.387 . S
C781 C782 1.369 . S
C781 H790 0.929 . S
C782 N779 1.346 . S
C782 C781 1.369 . S
C782 H785 0.928 . S
C783 N779 1.345 . S
C783 C784 1.371 . S
C783 H786 0.931 . S
C784 C780 1.391 . S
C784 C783 1.371 . S
C784 H791 0.930 . S
H785 C782 0.928 . S
H786 C783 0.931 . S
H787 C763 0.930 . S
H788 C760 0.930 . S
H789 C769 0.930 . S
H790 C781 0.929 . S
H791 C784 0.930 . S
C792 C793 1.351 . S
C792 N795 1.368 . S
C792 H797 0.931 . S
C793 C792 1.351 . S
C793 N794 1.373 . S
C793 H821 0.930 . S
N794 C793 1.373 . S
N794 C796 1.340 . S
N795 C792 1.368 . S
N795 C796 1.321 . S
N795 Co798 2.135 . S
C796 N794 1.340 . S
C796 N795 1.321 . S
C796 H820 0.930 . S
H797 C792 0.931 . S
Co798 N795 2.135 . S
Co798 N801 2.121 . S
Co798 O806 2.055 . S
Co798 O809 2.039 . S
Co798 N812 2.140 . S
C799 O800 1.227 . S
C799 O809 1.265 . S
O800 C799 1.227 . S
N801 Co798 2.121 . S
N801 C803 1.375 . S
N801 C804 1.313 . S
C802 C803 1.338 . S
C802 N805 1.377 . S
C802 H822 0.930 . S
C803 N801 1.375 . S
C803 C802 1.338 . S
C803 H807 0.931 . S
C804 N801 1.313 . S
C804 N805 1.344 . S
C804 H808 0.930 . S
N805 C802 1.377 . S
N805 C804 1.344 . S
O806 Co798 2.055 . S
O806 C810 1.253 . S
H807 C803 0.931 . S
H808 C804 0.930 . S
O809 Co798 2.039 . S
O809 C799 1.265 . S
C810 O806 1.253 . S
C810 O811 1.227 . S
O811 C810 1.227 . S
N812 Co798 2.140 . S
N812 C815 1.346 . S
N812 C816 1.345 . S
C813 C814 1.387 . S
C813 C817 1.391 . S
C814 C813 1.387 . S
C814 C815 1.369 . S
C814 H823 0.929 . S
C815 N812 1.346 . S
C815 C814 1.369 . S
C815 H818 0.928 . S
C816 N812 1.345 . S
C816 C817 1.371 . S
C816 H819 0.931 . S
C817 C813 1.391 . S
C817 C816 1.371 . S
C817 H824 0.930 . S
H818 C815 0.928 . S
H819 C816 0.931 . S
H820 C796 0.930 . S
H821 C793 0.930 . S
H822 C802 0.930 . S
H823 C814 0.929 . S
H824 C817 0.930 . S
C825 C826 1.351 . S
C825 N828 1.368 . S
C825 H830 0.931 . S
C826 C825 1.351 . S
C826 N827 1.373 1_554 S
C826 H854 0.930 . S
N827 C826 1.373 1_556 S
N827 C829 1.340 . S
N828 C825 1.368 . S
N828 C829 1.321 1_554 S
N828 Co831 2.135 . S
C829 N827 1.340 . S
C829 N828 1.321 1_556 S
C829 H853 0.930 . S
H830 C825 0.931 . S
Co831 N828 2.135 . S
Co831 N834 2.121 . S
Co831 O839 2.055 . S
Co831 O842 2.039 . S
Co831 N845 2.140 . S
C832 O833 1.227 . S
C832 O842 1.265 . S
O833 C832 1.227 . S
N834 Co831 2.121 . S
N834 C836 1.375 . S
N834 C837 1.313 . S
C835 C836 1.338 . S
C835 N838 1.377 . S
C835 H855 0.930 . S
C836 N834 1.375 . S
C836 C835 1.338 . S
C836 H840 0.931 . S
C837 N834 1.313 . S
C837 N838 1.344 . S
C837 H841 0.930 . S
N838 C835 1.377 . S
N838 C837 1.344 . S
O839 Co831 2.055 . S
O839 C843 1.253 . S
H840 C836 0.931 . S
H841 C837 0.930 . S
O842 Co831 2.039 . S
O842 C832 1.265 . S
C843 O839 1.253 . S
C843 O844 1.227 . S
O844 C843 1.227 . S
N845 Co831 2.140 . S
N845 C848 1.346 . S
N845 C849 1.345 . S
C846 C847 1.387 . S
C846 C850 1.391 . S
C847 C846 1.387 . S
C847 C848 1.369 . S
C847 H856 0.929 . S
C848 N845 1.346 . S
C848 C847 1.369 . S
C848 H851 0.928 . S
C849 N845 1.345 . S
C849 C850 1.371 . S
C849 H852 0.931 . S
C850 C846 1.391 . S
C850 C849 1.371 . S
C850 H857 0.930 . S
H851 C848 0.928 . S
H852 C849 0.931 . S
H853 C829 0.930 . S
H854 C826 0.930 . S
H855 C835 0.930 . S
H856 C847 0.929 . S
H857 C850 0.930 . S
C858 C859 1.351 . S
C858 N861 1.368 . S
C858 H863 0.931 . S
C859 C858 1.351 . S
C859 N860 1.373 . S
C859 H887 0.930 . S
N860 C859 1.373 . S
N860 C862 1.340 . S
N861 C858 1.368 . S
N861 C862 1.321 . S
N861 Co864 2.135 . S
C862 N860 1.340 . S
C862 N861 1.321 . S
C862 H886 0.930 . S
H863 C858 0.931 . S
Co864 N861 2.135 . S
Co864 N867 2.121 . S
Co864 O872 2.055 . S
Co864 O875 2.039 . S
Co864 N878 2.140 . S
C865 O866 1.227 . S
C865 O875 1.265 . S
O866 C865 1.227 . S
N867 Co864 2.121 . S
N867 C869 1.375 . S
N867 C870 1.313 . S
C868 C869 1.338 . S
C868 N871 1.377 . S
C868 H888 0.930 . S
C869 N867 1.375 . S
C869 C868 1.338 . S
C869 H873 0.931 . S
C870 N867 1.313 . S
C870 N871 1.344 . S
C870 H874 0.930 . S
N871 C868 1.377 . S
N871 C870 1.344 . S
O872 Co864 2.055 . S
O872 C876 1.253 . S
H873 C869 0.931 . S
H874 C870 0.930 . S
O875 Co864 2.039 . S
O875 C865 1.265 . S
C876 O872 1.253 . S
C876 O877 1.227 . S
O877 C876 1.227 . S
N878 Co864 2.140 . S
N878 C881 1.346 . S
N878 C882 1.345 . S
C879 C880 1.387 . S
C879 C883 1.391 . S
C880 C879 1.387 . S
C880 C881 1.369 . S
C880 H889 0.929 . S
C881 N878 1.346 . S
C881 C880 1.369 . S
C881 H884 0.928 . S
C882 N878 1.345 . S
C882 C883 1.371 . S
C882 H885 0.931 . S
C883 C879 1.391 . S
C883 C882 1.371 . S
C883 H890 0.930 . S
H884 C881 0.928 . S
H885 C882 0.931 . S
H886 C862 0.930 . S
H887 C859 0.930 . S
H888 C868 0.930 . S
H889 C880 0.929 . S
H890 C883 0.930 . S
C891 C892 1.351 . S
C891 N894 1.368 . S
C891 H896 0.931 . S
C892 C891 1.351 . S
C892 N893 1.373 . S
C892 H920 0.930 . S
N893 C892 1.373 . S
N893 C895 1.340 . S
N894 C891 1.368 . S
N894 C895 1.321 . S
N894 Co897 2.135 . S
C895 N893 1.340 . S
C895 N894 1.321 . S
C895 H919 0.930 . S
H896 C891 0.931 . S
Co897 N894 2.135 . S
Co897 N900 2.121 . S
Co897 O905 2.055 . S
Co897 O908 2.039 . S
Co897 N911 2.140 . S
C898 O899 1.227 . S
C898 O908 1.265 . S
O899 C898 1.227 . S
N900 Co897 2.121 . S
N900 C902 1.375 . S
N900 C903 1.313 . S
C901 C902 1.338 . S
C901 N904 1.377 . S
C901 H921 0.930 . S
C902 N900 1.375 . S
C902 C901 1.338 . S
C902 H906 0.931 . S
C903 N900 1.313 . S
C903 N904 1.344 . S
C903 H907 0.930 . S
N904 C901 1.377 . S
N904 C903 1.344 . S
O905 Co897 2.055 . S
O905 C909 1.253 . S
H906 C902 0.931 . S
H907 C903 0.930 . S
O908 Co897 2.039 . S
O908 C898 1.265 . S
C909 O905 1.253 . S
C909 O910 1.227 . S
O910 C909 1.227 . S
N911 Co897 2.140 . S
N911 C914 1.346 . S
N911 C915 1.345 . S
C912 C913 1.387 . S
C912 C916 1.391 . S
C913 C912 1.387 . S
C913 C914 1.369 . S
C913 H922 0.929 . S
C914 N911 1.346 . S
C914 C913 1.369 . S
C914 H917 0.928 . S
C915 N911 1.345 . S
C915 C916 1.371 . S
C915 H918 0.931 . S
C916 C912 1.391 . S
C916 C915 1.371 . S
C916 H923 0.930 . S
H917 C914 0.928 . S
H918 C915 0.931 . S
H919 C895 0.930 . S
H920 C892 0.930 . S
H921 C901 0.930 . S
H922 C913 0.929 . S
H923 C916 0.930 . S
C924 C925 1.351 . S
C924 N927 1.368 . S
C924 H929 0.931 . S
C925 C924 1.351 . S
C925 N926 1.373 1_556 S
C925 H953 0.930 . S
N926 C925 1.373 1_554 S
N926 C928 1.340 . S
N927 C924 1.368 . S
N927 C928 1.321 1_556 S
N927 Co930 2.135 . S
C928 N926 1.340 . S
C928 N927 1.321 1_554 S
C928 H952 0.930 . S
H929 C924 0.931 . S
Co930 N927 2.135 . S
Co930 N933 2.121 . S
Co930 O938 2.055 . S
Co930 O941 2.039 . S
Co930 N944 2.140 . S
C931 O932 1.227 . S
C931 O941 1.265 . S
O932 C931 1.227 . S
N933 Co930 2.121 . S
N933 C935 1.375 . S
N933 C936 1.313 . S
C934 C935 1.338 . S
C934 N937 1.377 . S
C934 H954 0.930 . S
C935 N933 1.375 . S
C935 C934 1.338 . S
C935 H939 0.931 . S
C936 N933 1.313 . S
C936 N937 1.344 . S
C936 H940 0.930 . S
N937 C934 1.377 . S
N937 C936 1.344 . S
O938 Co930 2.055 . S
O938 C942 1.253 . S
H939 C935 0.931 . S
H940 C936 0.930 . S
O941 Co930 2.039 . S
O941 C931 1.265 . S
C942 O938 1.253 . S
C942 O943 1.227 . S
O943 C942 1.227 . S
N944 Co930 2.140 . S
N944 C947 1.346 . S
N944 C948 1.345 . S
C945 C946 1.387 . S
C945 C949 1.391 . S
C946 C945 1.387 . S
C946 C947 1.369 . S
C946 H955 0.929 . S
C947 N944 1.346 . S
C947 C946 1.369 . S
C947 H950 0.928 . S
C948 N944 1.345 . S
C948 C949 1.371 . S
C948 H951 0.931 . S
C949 C945 1.391 . S
C949 C948 1.371 . S
C949 H956 0.930 . S
H950 C947 0.928 . S
H951 C948 0.931 . S
H952 C928 0.930 . S
H953 C925 0.930 . S
H954 C934 0.930 . S
H955 C946 0.929 . S
H956 C949 0.930 . S
C957 C958 1.351 . S
C957 N960 1.368 . S
C957 H962 0.931 . S
C958 C957 1.351 . S
C958 N959 1.373 . S
C958 H986 0.930 . S
N959 C958 1.373 . S
N959 C961 1.340 . S
N960 C957 1.368 . S
N960 C961 1.321 . S
N960 Co963 2.135 . S
C961 N959 1.340 . S
C961 N960 1.321 . S
C961 H985 0.930 . S
H962 C957 0.931 . S
Co963 N960 2.135 . S
Co963 N966 2.121 . S
Co963 O971 2.055 . S
Co963 O974 2.039 . S
Co963 N977 2.140 . S
C964 O965 1.227 . S
C964 O974 1.265 . S
O965 C964 1.227 . S
N966 Co963 2.121 . S
N966 C968 1.375 . S
N966 C969 1.313 . S
C967 C968 1.338 . S
C967 N970 1.377 . S
C967 H987 0.930 . S
C968 N966 1.375 . S
C968 C967 1.338 . S
C968 H972 0.931 . S
C969 N966 1.313 . S
C969 N970 1.344 . S
C969 H973 0.930 . S
N970 C967 1.377 . S
N970 C969 1.344 . S
O971 Co963 2.055 . S
O971 C975 1.253 . S
H972 C968 0.931 . S
H973 C969 0.930 . S
O974 Co963 2.039 . S
O974 C964 1.265 . S
C975 O971 1.253 . S
C975 O976 1.227 . S
O976 C975 1.227 . S
N977 Co963 2.140 . S
N977 C980 1.346 . S
N977 C981 1.345 . S
C978 C979 1.387 . S
C978 C982 1.391 . S
C979 C978 1.387 . S
C979 C980 1.369 . S
C979 H988 0.929 . S
C980 N977 1.346 . S
C980 C979 1.369 . S
C980 H983 0.928 . S
C981 N977 1.345 . S
C981 C982 1.371 . S
C981 H984 0.931 . S
C982 C978 1.391 . S
C982 C981 1.371 . S
C982 H989 0.930 . S
H983 C980 0.928 . S
H984 C981 0.931 . S
H985 C961 0.930 . S
H986 C958 0.930 . S
H987 C967 0.930 . S
H988 C979 0.929 . S
H989 C982 0.930 . S
C990 C991 1.351 . S
C990 N993 1.368 . S
C990 H995 0.931 . S
C991 C990 1.351 . S
C991 N992 1.373 . S
C991 H1019 0.930 . S
N992 C991 1.373 . S
N992 C994 1.340 . S
N993 C990 1.368 . S
N993 C994 1.321 . S
N993 Co996 2.135 . S
C994 N992 1.340 . S
C994 N993 1.321 . S
C994 H1018 0.930 . S
H995 C990 0.931 . S
Co996 N993 2.135 . S
Co996 N999 2.121 . S
Co996 O1004 2.055 . S
Co996 O1007 2.039 . S
Co996 N1010 2.140 . S
C997 O998 1.227 . S
C997 O1007 1.265 . S
O998 C997 1.227 . S
N999 Co996 2.121 . S
N999 C1001 1.375 . S
N999 C1002 1.313 . S
C1000 C1001 1.338 . S
C1000 N1003 1.377 . S
C1000 H1020 0.930 . S
C1001 N999 1.375 . S
C1001 C1000 1.338 . S
C1001 H1005 0.931 . S
C1002 N999 1.313 . S
C1002 N1003 1.344 . S
C1002 H1006 0.930 . S
N1003 C1000 1.377 . S
N1003 C1002 1.344 . S
O1004 Co996 2.055 . S
O1004 C1008 1.253 . S
H1005 C1001 0.931 . S
H1006 C1002 0.930 . S
O1007 Co996 2.039 . S
O1007 C997 1.265 . S
C1008 O1004 1.253 . S
C1008 O1009 1.227 . S
O1009 C1008 1.227 . S
N1010 Co996 2.140 . S
N1010 C1013 1.346 . S
N1010 C1014 1.345 . S
C1011 C1012 1.387 . S
C1011 C1015 1.391 . S
C1012 C1011 1.387 . S
C1012 C1013 1.369 . S
C1012 H1021 0.929 . S
C1013 N1010 1.346 . S
C1013 C1012 1.369 . S
C1013 H1016 0.928 . S
C1014 N1010 1.345 . S
C1014 C1015 1.371 . S
C1014 H1017 0.931 . S
C1015 C1011 1.391 . S
C1015 C1014 1.371 . S
C1015 H1022 0.930 . S
H1016 C1013 0.928 . S
H1017 C1014 0.931 . S
H1018 C994 0.930 . S
H1019 C991 0.930 . S
H1020 C1000 0.930 . S
H1021 C1012 0.929 . S
H1022 C1015 0.930 . S
C1023 C1024 1.351 . S
C1023 N1026 1.368 . S
C1023 H1028 0.931 . S
C1024 C1023 1.351 . S
C1024 N1025 1.373 . S
C1024 H1052 0.930 . S
N1025 C1024 1.373 . S
N1025 C1027 1.340 . S
N1026 C1023 1.368 . S
N1026 C1027 1.321 . S
N1026 Co1029 2.135 . S
C1027 N1025 1.340 . S
C1027 N1026 1.321 . S
C1027 H1051 0.930 . S
H1028 C1023 0.931 . S
Co1029 N1026 2.135 . S
Co1029 N1032 2.121 . S
Co1029 O1037 2.055 . S
Co1029 O1040 2.039 . S
Co1029 N1043 2.140 . S
C1030 O1031 1.227 . S
C1030 O1040 1.265 . S
O1031 C1030 1.227 . S
N1032 Co1029 2.121 . S
N1032 C1034 1.375 . S
N1032 C1035 1.313 . S
C1033 C1034 1.338 . S
C1033 N1036 1.377 . S
C1033 H1053 0.930 . S
C1034 N1032 1.375 . S
C1034 C1033 1.338 . S
C1034 H1038 0.931 . S
C1035 N1032 1.313 . S
C1035 N1036 1.344 . S
C1035 H1039 0.930 . S
N1036 C1033 1.377 . S
N1036 C1035 1.344 . S
O1037 Co1029 2.055 . S
O1037 C1041 1.253 . S
H1038 C1034 0.931 . S
H1039 C1035 0.930 . S
O1040 Co1029 2.039 . S
O1040 C1030 1.265 . S
C1041 O1037 1.253 . S
C1041 O1042 1.227 . S
O1042 C1041 1.227 . S
N1043 Co1029 2.140 . S
N1043 C1046 1.346 . S
N1043 C1047 1.345 . S
C1044 C1045 1.387 . S
C1044 C1048 1.391 . S
C1045 C1044 1.387 . S
C1045 C1046 1.369 . S
C1045 H1054 0.929 . S
C1046 N1043 1.346 . S
C1046 C1045 1.369 . S
C1046 H1049 0.928 . S
C1047 N1043 1.345 . S
C1047 C1048 1.371 . S
C1047 H1050 0.931 . S
C1048 C1044 1.391 . S
C1048 C1047 1.371 . S
C1048 H1055 0.930 . S
H1049 C1046 0.928 . S
H1050 C1047 0.931 . S
H1051 C1027 0.930 . S
H1052 C1024 0.930 . S
H1053 C1033 0.930 . S
H1054 C1045 0.929 . S
H1055 C1048 0.930 . S
C1056 C1057 1.351 . S
C1056 N1059 1.368 . S
C1056 H1061 0.931 . S
C1057 C1056 1.351 . S
C1057 N1058 1.373 . S
C1057 H1085 0.930 . S
N1058 C1057 1.373 . S
N1058 C1060 1.340 . S
N1059 C1056 1.368 . S
N1059 C1060 1.321 . S
N1059 Co1062 2.135 . S
C1060 N1058 1.340 . S
C1060 N1059 1.321 . S
C1060 H1084 0.930 . S
H1061 C1056 0.931 . S
Co1062 N1059 2.135 . S
Co1062 N1065 2.121 . S
Co1062 O1070 2.055 . S
Co1062 O1073 2.039 . S
Co1062 N1076 2.140 . S
C1063 O1064 1.227 . S
C1063 O1073 1.265 . S
O1064 C1063 1.227 . S
N1065 Co1062 2.121 . S
N1065 C1067 1.375 . S
N1065 C1068 1.313 . S
C1066 C1067 1.338 . S
C1066 N1069 1.377 . S
C1066 H1086 0.930 . S
C1067 N1065 1.375 . S
C1067 C1066 1.338 . S
C1067 H1071 0.931 . S
C1068 N1065 1.313 . S
C1068 N1069 1.344 . S
C1068 H1072 0.930 . S
N1069 C1066 1.377 . S
N1069 C1068 1.344 . S
O1070 Co1062 2.055 . S
O1070 C1074 1.253 . S
H1071 C1067 0.931 . S
H1072 C1068 0.930 . S
O1073 Co1062 2.039 . S
O1073 C1063 1.265 . S
C1074 O1070 1.253 . S
C1074 O1075 1.227 . S
O1075 C1074 1.227 . S
N1076 Co1062 2.140 . S
N1076 C1079 1.346 . S
N1076 C1080 1.345 . S
C1077 C1078 1.387 . S
C1077 C1081 1.391 . S
C1078 C1077 1.387 . S
C1078 C1079 1.369 . S
C1078 H1087 0.929 . S
C1079 N1076 1.346 . S
C1079 C1078 1.369 . S
C1079 H1082 0.928 . S
C1080 N1076 1.345 . S
C1080 C1081 1.371 . S
C1080 H1083 0.931 . S
C1081 C1077 1.391 . S
C1081 C1080 1.371 . S
C1081 H1088 0.930 . S
H1082 C1079 0.928 . S
H1083 C1080 0.931 . S
H1084 C1060 0.930 . S
H1085 C1057 0.930 . S
H1086 C1066 0.930 . S
H1087 C1078 0.929 . S
H1088 C1081 0.930 . S
C1089 C1090 1.351 . S
C1089 N1092 1.368 . S
C1089 H1094 0.931 . S
C1090 C1089 1.351 . S
C1090 N1091 1.373 . S
C1090 H1118 0.930 . S
N1091 C1090 1.373 . S
N1091 C1093 1.340 . S
N1092 C1089 1.368 . S
N1092 C1093 1.321 . S
N1092 Co1095 2.135 . S
C1093 N1091 1.340 . S
C1093 N1092 1.321 . S
C1093 H1117 0.930 . S
H1094 C1089 0.931 . S
Co1095 N1092 2.135 . S
Co1095 N1098 2.121 . S
Co1095 O1103 2.055 . S
Co1095 O1106 2.039 . S
Co1095 N1109 2.140 . S
C1096 O1097 1.227 . S
C1096 O1106 1.265 . S
O1097 C1096 1.227 . S
N1098 Co1095 2.121 . S
N1098 C1100 1.375 . S
N1098 C1101 1.313 . S
C1099 C1100 1.338 . S
C1099 N1102 1.377 . S
C1099 H1119 0.930 . S
C1100 N1098 1.375 . S
C1100 C1099 1.338 . S
C1100 H1104 0.931 . S
C1101 N1098 1.313 . S
C1101 N1102 1.344 . S
C1101 H1105 0.930 . S
N1102 C1099 1.377 . S
N1102 C1101 1.344 . S
O1103 Co1095 2.055 . S
O1103 C1107 1.253 . S
H1104 C1100 0.931 . S
H1105 C1101 0.930 . S
O1106 Co1095 2.039 . S
O1106 C1096 1.265 . S
C1107 O1103 1.253 . S
C1107 O1108 1.227 . S
O1108 C1107 1.227 . S
N1109 Co1095 2.140 . S
N1109 C1112 1.346 . S
N1109 C1113 1.345 . S
C1110 C1111 1.387 . S
C1110 C1114 1.391 . S
C1111 C1110 1.387 . S
C1111 C1112 1.369 . S
C1111 H1120 0.929 . S
C1112 N1109 1.346 . S
C1112 C1111 1.369 . S
C1112 H1115 0.928 . S
C1113 N1109 1.345 . S
C1113 C1114 1.371 . S
C1113 H1116 0.931 . S
C1114 C1110 1.391 . S
C1114 C1113 1.371 . S
C1114 H1121 0.930 . S
H1115 C1112 0.928 . S
H1116 C1113 0.931 . S
H1117 C1093 0.930 . S
H1118 C1090 0.930 . S
H1119 C1099 0.930 . S
H1120 C1111 0.929 . S
H1121 C1114 0.930 . S
C1122 C1123 1.351 . S
C1122 N1125 1.368 . S
C1122 H1127 0.931 . S
C1123 C1122 1.351 . S
C1123 N1124 1.373 . S
C1123 H1151 0.930 . S
N1124 C1123 1.373 . S
N1124 C1126 1.340 . S
N1125 C1122 1.368 . S
N1125 C1126 1.321 . S
N1125 Co1128 2.135 . S
C1126 N1124 1.340 . S
C1126 N1125 1.321 . S
C1126 H1150 0.930 . S
H1127 C1122 0.931 . S
Co1128 N1125 2.135 . S
Co1128 N1131 2.121 . S
Co1128 O1136 2.055 . S
Co1128 O1139 2.039 . S
Co1128 N1142 2.140 . S
C1129 O1130 1.227 . S
C1129 O1139 1.265 . S
O1130 C1129 1.227 . S
N1131 Co1128 2.121 . S
N1131 C1133 1.375 . S
N1131 C1134 1.313 . S
C1132 C1133 1.338 . S
C1132 N1135 1.377 . S
C1132 H1152 0.930 . S
C1133 N1131 1.375 . S
C1133 C1132 1.338 . S
C1133 H1137 0.931 . S
C1134 N1131 1.313 . S
C1134 N1135 1.344 . S
C1134 H1138 0.930 . S
N1135 C1132 1.377 . S
N1135 C1134 1.344 . S
O1136 Co1128 2.055 . S
O1136 C1140 1.253 . S
H1137 C1133 0.931 . S
H1138 C1134 0.930 . S
O1139 Co1128 2.039 . S
O1139 C1129 1.265 . S
C1140 O1136 1.253 . S
C1140 O1141 1.227 . S
O1141 C1140 1.227 . S
N1142 Co1128 2.140 . S
N1142 C1145 1.346 . S
N1142 C1146 1.345 . S
C1143 C1144 1.387 . S
C1143 C1147 1.391 . S
C1144 C1143 1.387 . S
C1144 C1145 1.369 . S
C1144 H1153 0.929 . S
C1145 N1142 1.346 . S
C1145 C1144 1.369 . S
C1145 H1148 0.928 . S
C1146 N1142 1.345 . S
C1146 C1147 1.371 . S
C1146 H1149 0.931 . S
C1147 C1143 1.391 . S
C1147 C1146 1.371 . S
C1147 H1154 0.930 . S
H1148 C1145 0.928 . S
H1149 C1146 0.931 . S
H1150 C1126 0.930 . S
H1151 C1123 0.930 . S
H1152 C1132 0.930 . S
H1153 C1144 0.929 . S
H1154 C1147 0.930 . S
C1155 C1156 1.351 . S
C1155 N1158 1.368 . S
C1155 H1160 0.931 . S
C1156 C1155 1.351 . S
C1156 N1157 1.373 . S
C1156 H1184 0.930 . S
N1157 C1156 1.373 . S
N1157 C1159 1.340 . S
N1158 C1155 1.368 . S
N1158 C1159 1.321 . S
N1158 Co1161 2.135 . S
C1159 N1157 1.340 . S
C1159 N1158 1.321 . S
C1159 H1183 0.930 . S
H1160 C1155 0.931 . S
Co1161 N1158 2.135 . S
Co1161 N1164 2.121 . S
Co1161 O1169 2.055 . S
Co1161 O1172 2.039 . S
Co1161 N1175 2.140 . S
C1162 O1163 1.227 . S
C1162 O1172 1.265 . S
O1163 C1162 1.227 . S
N1164 Co1161 2.121 . S
N1164 C1166 1.375 . S
N1164 C1167 1.313 . S
C1165 C1166 1.338 . S
C1165 N1168 1.377 . S
C1165 H1185 0.930 . S
C1166 N1164 1.375 . S
C1166 C1165 1.338 . S
C1166 H1170 0.931 . S
C1167 N1164 1.313 . S
C1167 N1168 1.344 . S
C1167 H1171 0.930 . S
N1168 C1165 1.377 . S
N1168 C1167 1.344 . S
O1169 Co1161 2.055 . S
O1169 C1173 1.253 . S
H1170 C1166 0.931 . S
H1171 C1167 0.930 . S
O1172 Co1161 2.039 . S
O1172 C1162 1.265 . S
C1173 O1169 1.253 . S
C1173 O1174 1.227 . S
O1174 C1173 1.227 . S
N1175 Co1161 2.140 . S
N1175 C1178 1.346 . S
N1175 C1179 1.345 . S
C1176 C1177 1.387 . S
C1176 C1180 1.391 . S
C1177 C1176 1.387 . S
C1177 C1178 1.369 . S
C1177 H1186 0.929 . S
C1178 N1175 1.346 . S
C1178 C1177 1.369 . S
C1178 H1181 0.928 . S
C1179 N1175 1.345 . S
C1179 C1180 1.371 . S
C1179 H1182 0.931 . S
C1180 C1176 1.391 . S
C1180 C1179 1.371 . S
C1180 H1187 0.930 . S
H1181 C1178 0.928 . S
H1182 C1179 0.931 . S
H1183 C1159 0.930 . S
H1184 C1156 0.930 . S
H1185 C1165 0.930 . S
H1186 C1177 0.929 . S
H1187 C1180 0.930 . S
C1188 C1189 1.351 . S
C1188 N1191 1.368 . S
C1188 H1193 0.931 . S
C1189 C1188 1.351 . S
C1189 N1190 1.373 1_545 S
C1189 H1217 0.930 . S
N1190 C1189 1.373 1_565 S
N1190 C1192 1.340 . S
N1191 C1188 1.368 . S
N1191 C1192 1.321 1_545 S
N1191 Co1194 2.135 . S
C1192 N1190 1.340 . S
C1192 N1191 1.321 1_565 S
C1192 H1216 0.930 . S
H1193 C1188 0.931 . S
Co1194 N1191 2.135 . S
Co1194 N1197 2.121 . S
Co1194 O1202 2.055 . S
Co1194 O1205 2.039 . S
Co1194 N1208 2.140 . S
C1195 O1196 1.227 . S
C1195 O1205 1.265 . S
O1196 C1195 1.227 . S
N1197 Co1194 2.121 . S
N1197 C1199 1.375 . S
N1197 C1200 1.313 . S
C1198 C1199 1.338 . S
C1198 N1201 1.377 . S
C1198 H1218 0.930 . S
C1199 N1197 1.375 . S
C1199 C1198 1.338 . S
C1199 H1203 0.931 . S
C1200 N1197 1.313 . S
C1200 N1201 1.344 . S
C1200 H1204 0.930 . S
N1201 C1198 1.377 . S
N1201 C1200 1.344 . S
O1202 Co1194 2.055 . S
O1202 C1206 1.253 . S
H1203 C1199 0.931 . S
H1204 C1200 0.930 . S
O1205 Co1194 2.039 . S
O1205 C1195 1.265 . S
C1206 O1202 1.253 . S
C1206 O1207 1.227 . S
O1207 C1206 1.227 . S
N1208 Co1194 2.140 . S
N1208 C1211 1.346 . S
N1208 C1212 1.345 . S
C1209 C1210 1.387 . S
C1209 C1213 1.391 . S
C1210 C1209 1.387 . S
C1210 C1211 1.369 . S
C1210 H1219 0.929 . S
C1211 N1208 1.346 . S
C1211 C1210 1.369 . S
C1211 H1214 0.928 . S
C1212 N1208 1.345 . S
C1212 C1213 1.371 . S
C1212 H1215 0.931 . S
C1213 C1209 1.391 . S
C1213 C1212 1.371 . S
C1213 H1220 0.930 . S
H1214 C1211 0.928 . S
H1215 C1212 0.931 . S
H1216 C1192 0.930 . S
H1217 C1189 0.930 . S
H1218 C1198 0.930 . S
H1219 C1210 0.929 . S
H1220 C1213 0.930 . S
C1221 C1222 1.351 . S
C1221 N1224 1.368 . S
C1221 H1226 0.931 . S
C1222 C1221 1.351 . S
C1222 N1223 1.373 . S
C1222 H1250 0.930 . S
N1223 C1222 1.373 . S
N1223 C1225 1.340 . S
N1224 C1221 1.368 . S
N1224 C1225 1.321 . S
N1224 Co1227 2.135 . S
C1225 N1223 1.340 . S
C1225 N1224 1.321 . S
C1225 H1249 0.930 . S
H1226 C1221 0.931 . S
Co1227 N1224 2.135 . S
Co1227 N1230 2.121 . S
Co1227 O1235 2.055 . S
Co1227 O1238 2.039 . S
Co1227 N1241 2.140 . S
C1228 O1229 1.227 . S
C1228 O1238 1.265 . S
O1229 C1228 1.227 . S
N1230 Co1227 2.121 . S
N1230 C1232 1.375 . S
N1230 C1233 1.313 . S
C1231 C1232 1.338 . S
C1231 N1234 1.377 . S
C1231 H1251 0.930 . S
C1232 N1230 1.375 . S
C1232 C1231 1.338 . S
C1232 H1236 0.931 . S
C1233 N1230 1.313 . S
C1233 N1234 1.344 . S
C1233 H1237 0.930 . S
N1234 C1231 1.377 . S
N1234 C1233 1.344 . S
O1235 Co1227 2.055 . S
O1235 C1239 1.253 . S
H1236 C1232 0.931 . S
H1237 C1233 0.930 . S
O1238 Co1227 2.039 . S
O1238 C1228 1.265 . S
C1239 O1235 1.253 . S
C1239 O1240 1.227 . S
O1240 C1239 1.227 . S
N1241 Co1227 2.140 . S
N1241 C1244 1.346 . S
N1241 C1245 1.345 . S
C1242 C1243 1.387 . S
C1242 C1246 1.391 . S
C1243 C1242 1.387 . S
C1243 C1244 1.369 . S
C1243 H1252 0.929 . S
C1244 N1241 1.346 . S
C1244 C1243 1.369 . S
C1244 H1247 0.928 . S
C1245 N1241 1.345 . S
C1245 C1246 1.371 . S
C1245 H1248 0.931 . S
C1246 C1242 1.391 . S
C1246 C1245 1.371 . S
C1246 H1253 0.930 . S
H1247 C1244 0.928 . S
H1248 C1245 0.931 . S
H1249 C1225 0.930 . S
H1250 C1222 0.930 . S
H1251 C1231 0.930 . S
H1252 C1243 0.929 . S
H1253 C1246 0.930 . S
C1254 C1255 1.351 . S
C1254 N1257 1.368 . S
C1254 H1259 0.931 . S
C1255 C1254 1.351 . S
C1255 N1256 1.373 . S
C1255 H1283 0.930 . S
N1256 C1255 1.373 . S
N1256 C1258 1.340 . S
N1257 C1254 1.368 . S
N1257 C1258 1.321 . S
N1257 Co1260 2.135 . S
C1258 N1256 1.340 . S
C1258 N1257 1.321 . S
C1258 H1282 0.930 . S
H1259 C1254 0.931 . S
Co1260 N1257 2.135 . S
Co1260 N1263 2.121 . S
Co1260 O1268 2.055 . S
Co1260 O1271 2.039 . S
Co1260 N1274 2.140 . S
C1261 O1262 1.227 . S
C1261 O1271 1.265 . S
O1262 C1261 1.227 . S
N1263 Co1260 2.121 . S
N1263 C1265 1.375 . S
N1263 C1266 1.313 . S
C1264 C1265 1.338 . S
C1264 N1267 1.377 . S
C1264 H1284 0.930 . S
C1265 N1263 1.375 . S
C1265 C1264 1.338 . S
C1265 H1269 0.931 . S
C1266 N1263 1.313 . S
C1266 N1267 1.344 . S
C1266 H1270 0.930 . S
N1267 C1264 1.377 . S
N1267 C1266 1.344 . S
O1268 Co1260 2.055 . S
O1268 C1272 1.253 . S
H1269 C1265 0.931 . S
H1270 C1266 0.930 . S
O1271 Co1260 2.039 . S
O1271 C1261 1.265 . S
C1272 O1268 1.253 . S
C1272 O1273 1.227 . S
O1273 C1272 1.227 . S
N1274 Co1260 2.140 . S
N1274 C1277 1.346 . S
N1274 C1278 1.345 . S
C1275 C1276 1.387 . S
C1275 C1279 1.391 . S
C1276 C1275 1.387 . S
C1276 C1277 1.369 . S
C1276 H1285 0.929 . S
C1277 N1274 1.346 . S
C1277 C1276 1.369 . S
C1277 H1280 0.928 . S
C1278 N1274 1.345 . S
C1278 C1279 1.371 . S
C1278 H1281 0.931 . S
C1279 C1275 1.391 . S
C1279 C1278 1.371 . S
C1279 H1286 0.930 . S
H1280 C1277 0.928 . S
H1281 C1278 0.931 . S
H1282 C1258 0.930 . S
H1283 C1255 0.930 . S
H1284 C1264 0.930 . S
H1285 C1276 0.929 . S
H1286 C1279 0.930 . S
C1287 C1288 1.351 . S
C1287 N1290 1.368 . S
C1287 H1292 0.931 . S
C1288 C1287 1.351 . S
C1288 N1289 1.373 1_655 S
C1288 H1316 0.930 . S
N1289 C1288 1.373 1_455 S
N1289 C1291 1.340 . S
N1290 C1287 1.368 . S
N1290 C1291 1.321 1_655 S
N1290 Co1293 2.135 . S
C1291 N1289 1.340 . S
C1291 N1290 1.321 1_455 S
C1291 H1315 0.930 . S
H1292 C1287 0.931 . S
Co1293 N1290 2.135 . S
Co1293 N1296 2.121 . S
Co1293 O1301 2.055 . S
Co1293 O1304 2.039 . S
Co1293 N1307 2.140 . S
C1294 O1295 1.227 . S
C1294 O1304 1.265 . S
O1295 C1294 1.227 . S
N1296 Co1293 2.121 . S
N1296 C1298 1.375 . S
N1296 C1299 1.313 . S
C1297 C1298 1.338 . S
C1297 N1300 1.377 . S
C1297 H1317 0.930 . S
C1298 N1296 1.375 . S
C1298 C1297 1.338 . S
C1298 H1302 0.931 . S
C1299 N1296 1.313 . S
C1299 N1300 1.344 . S
C1299 H1303 0.930 . S
N1300 C1297 1.377 . S
N1300 C1299 1.344 . S
O1301 Co1293 2.055 . S
O1301 C1305 1.253 . S
H1302 C1298 0.931 . S
H1303 C1299 0.930 . S
O1304 Co1293 2.039 . S
O1304 C1294 1.265 . S
C1305 O1301 1.253 . S
C1305 O1306 1.227 . S
O1306 C1305 1.227 . S
N1307 Co1293 2.140 . S
N1307 C1310 1.346 . S
N1307 C1311 1.345 . S
C1308 C1309 1.387 . S
C1308 C1312 1.391 . S
C1309 C1308 1.387 . S
C1309 C1310 1.369 . S
C1309 H1318 0.929 . S
C1310 N1307 1.346 . S
C1310 C1309 1.369 . S
C1310 H1313 0.928 . S
C1311 N1307 1.345 . S
C1311 C1312 1.371 . S
C1311 H1314 0.931 . S
C1312 C1308 1.391 . S
C1312 C1311 1.371 . S
C1312 H1319 0.930 . S
H1313 C1310 0.928 . S
H1314 C1311 0.931 . S
H1315 C1291 0.930 . S
H1316 C1288 0.930 . S
H1317 C1297 0.930 . S
H1318 C1309 0.929 . S
H1319 C1312 0.930 . S
C1320 C1321 1.351 . S
C1320 N1323 1.368 . S
C1320 H1325 0.931 . S
C1321 C1320 1.351 . S
C1321 N1322 1.373 1_556 S
C1321 H1349 0.930 . S
N1322 C1321 1.373 1_554 S
N1322 C1324 1.340 . S
N1323 C1320 1.368 . S
N1323 C1324 1.321 1_556 S
N1323 Co1326 2.135 . S
C1324 N1322 1.340 . S
C1324 N1323 1.321 1_554 S
C1324 H1348 0.930 . S
H1325 C1320 0.931 . S
Co1326 N1323 2.135 . S
Co1326 N1329 2.121 . S
Co1326 O1334 2.055 . S
Co1326 O1337 2.039 . S
Co1326 N1340 2.140 . S
C1327 O1328 1.227 . S
C1327 O1337 1.265 . S
O1328 C1327 1.227 . S
N1329 Co1326 2.121 . S
N1329 C1331 1.375 . S
N1329 C1332 1.313 . S
C1330 C1331 1.338 . S
C1330 N1333 1.377 . S
C1330 H1350 0.930 . S
C1331 N1329 1.375 . S
C1331 C1330 1.338 . S
C1331 H1335 0.931 . S
C1332 N1329 1.313 . S
C1332 N1333 1.344 . S
C1332 H1336 0.930 . S
N1333 C1330 1.377 . S
N1333 C1332 1.344 . S
O1334 Co1326 2.055 . S
O1334 C1338 1.253 . S
H1335 C1331 0.931 . S
H1336 C1332 0.930 . S
O1337 Co1326 2.039 . S
O1337 C1327 1.265 . S
C1338 O1334 1.253 . S
C1338 O1339 1.227 . S
O1339 C1338 1.227 . S
N1340 Co1326 2.140 . S
N1340 C1343 1.346 . S
N1340 C1344 1.345 . S
C1341 C1342 1.387 . S
C1341 C1345 1.391 . S
C1342 C1341 1.387 . S
C1342 C1343 1.369 . S
C1342 H1351 0.929 . S
C1343 N1340 1.346 . S
C1343 C1342 1.369 . S
C1343 H1346 0.928 . S
C1344 N1340 1.345 . S
C1344 C1345 1.371 . S
C1344 H1347 0.931 . S
C1345 C1341 1.391 . S
C1345 C1344 1.371 . S
C1345 H1352 0.930 . S
H1346 C1343 0.928 . S
H1347 C1344 0.931 . S
H1348 C1324 0.930 . S
H1349 C1321 0.930 . S
H1350 C1330 0.930 . S
H1351 C1342 0.929 . S
H1352 C1345 0.930 . S
C1353 C1354 1.351 . S
C1353 N1356 1.368 . S
C1353 H1358 0.931 . S
C1354 C1353 1.351 . S
C1354 N1355 1.373 . S
C1354 H1382 0.930 . S
N1355 C1354 1.373 . S
N1355 C1357 1.340 . S
N1356 C1353 1.368 . S
N1356 C1357 1.321 . S
N1356 Co1359 2.135 . S
C1357 N1355 1.340 . S
C1357 N1356 1.321 . S
C1357 H1381 0.930 . S
H1358 C1353 0.931 . S
Co1359 N1356 2.135 . S
Co1359 N1362 2.121 . S
Co1359 O1367 2.055 . S
Co1359 O1370 2.039 . S
Co1359 N1373 2.140 . S
C1360 O1361 1.227 . S
C1360 O1370 1.265 . S
O1361 C1360 1.227 . S
N1362 Co1359 2.121 . S
N1362 C1364 1.375 . S
N1362 C1365 1.313 . S
C1363 C1364 1.338 . S
C1363 N1366 1.377 . S
C1363 H1383 0.930 . S
C1364 N1362 1.375 . S
C1364 C1363 1.338 . S
C1364 H1368 0.931 . S
C1365 N1362 1.313 . S
C1365 N1366 1.344 . S
C1365 H1369 0.930 . S
N1366 C1363 1.377 . S
N1366 C1365 1.344 . S
O1367 Co1359 2.055 . S
O1367 C1371 1.253 . S
H1368 C1364 0.931 . S
H1369 C1365 0.930 . S
O1370 Co1359 2.039 . S
O1370 C1360 1.265 . S
C1371 O1367 1.253 . S
C1371 O1372 1.227 . S
O1372 C1371 1.227 . S
N1373 Co1359 2.140 . S
N1373 C1376 1.346 . S
N1373 C1377 1.345 . S
C1374 C1375 1.387 . S
C1374 C1378 1.391 . S
C1375 C1374 1.387 . S
C1375 C1376 1.369 . S
C1375 H1384 0.929 . S
C1376 N1373 1.346 . S
C1376 C1375 1.369 . S
C1376 H1379 0.928 . S
C1377 N1373 1.345 . S
C1377 C1378 1.371 . S
C1377 H1380 0.931 . S
C1378 C1374 1.391 . S
C1378 C1377 1.371 . S
C1378 H1385 0.930 . S
H1379 C1376 0.928 . S
H1380 C1377 0.931 . S
H1381 C1357 0.930 . S
H1382 C1354 0.930 . S
H1383 C1363 0.930 . S
H1384 C1375 0.929 . S
H1385 C1378 0.930 . S
C1386 C1387 1.351 . S
C1386 N1389 1.368 . S
C1386 H1391 0.931 . S
C1387 C1386 1.351 . S
C1387 N1388 1.373 . S
C1387 H1415 0.930 . S
N1388 C1387 1.373 . S
N1388 C1390 1.340 . S
N1389 C1386 1.368 . S
N1389 C1390 1.321 . S
N1389 Co1392 2.135 . S
C1390 N1388 1.340 . S
C1390 N1389 1.321 . S
C1390 H1414 0.930 . S
H1391 C1386 0.931 . S
Co1392 N1389 2.135 . S
Co1392 N1395 2.121 . S
Co1392 O1400 2.055 . S
Co1392 O1403 2.039 . S
Co1392 N1406 2.140 . S
C1393 O1394 1.227 . S
C1393 O1403 1.265 . S
O1394 C1393 1.227 . S
N1395 Co1392 2.121 . S
N1395 C1397 1.375 . S
N1395 C1398 1.313 . S
C1396 C1397 1.338 . S
C1396 N1399 1.377 . S
C1396 H1416 0.930 . S
C1397 N1395 1.375 . S
C1397 C1396 1.338 . S
C1397 H1401 0.931 . S
C1398 N1395 1.313 . S
C1398 N1399 1.344 . S
C1398 H1402 0.930 . S
N1399 C1396 1.377 . S
N1399 C1398 1.344 . S
O1400 Co1392 2.055 . S
O1400 C1404 1.253 . S
H1401 C1397 0.931 . S
H1402 C1398 0.930 . S
O1403 Co1392 2.039 . S
O1403 C1393 1.265 . S
C1404 O1400 1.253 . S
C1404 O1405 1.227 . S
O1405 C1404 1.227 . S
N1406 Co1392 2.140 . S
N1406 C1409 1.346 . S
N1406 C1410 1.345 . S
C1407 C1408 1.387 . S
C1407 C1411 1.391 . S
C1408 C1407 1.387 . S
C1408 C1409 1.369 . S
C1408 H1417 0.929 . S
C1409 N1406 1.346 . S
C1409 C1408 1.369 . S
C1409 H1412 0.928 . S
C1410 N1406 1.345 . S
C1410 C1411 1.371 . S
C1410 H1413 0.931 . S
C1411 C1407 1.391 . S
C1411 C1410 1.371 . S
C1411 H1418 0.930 . S
H1412 C1409 0.928 . S
H1413 C1410 0.931 . S
H1414 C1390 0.930 . S
H1415 C1387 0.930 . S
H1416 C1396 0.930 . S
H1417 C1408 0.929 . S
H1418 C1411 0.930 . S
C1419 C1420 1.351 . S
C1419 N1422 1.368 . S
C1419 H1424 0.931 . S
C1420 C1419 1.351 . S
C1420 N1421 1.373 . S
C1420 H1448 0.930 . S
N1421 C1420 1.373 . S
N1421 C1423 1.340 . S
N1422 C1419 1.368 . S
N1422 C1423 1.321 . S
N1422 Co1425 2.135 . S
C1423 N1421 1.340 . S
C1423 N1422 1.321 . S
C1423 H1447 0.930 . S
H1424 C1419 0.931 . S
Co1425 N1422 2.135 . S
Co1425 N1428 2.121 . S
Co1425 O1433 2.055 . S
Co1425 O1436 2.039 . S
Co1425 N1439 2.140 . S
C1426 O1427 1.227 . S
C1426 O1436 1.265 . S
O1427 C1426 1.227 . S
N1428 Co1425 2.121 . S
N1428 C1430 1.375 . S
N1428 C1431 1.313 . S
C1429 C1430 1.338 . S
C1429 N1432 1.377 . S
C1429 H1449 0.930 . S
C1430 N1428 1.375 . S
C1430 C1429 1.338 . S
C1430 H1434 0.931 . S
C1431 N1428 1.313 . S
C1431 N1432 1.344 . S
C1431 H1435 0.930 . S
N1432 C1429 1.377 . S
N1432 C1431 1.344 . S
O1433 Co1425 2.055 . S
O1433 C1437 1.253 . S
H1434 C1430 0.931 . S
H1435 C1431 0.930 . S
O1436 Co1425 2.039 . S
O1436 C1426 1.265 . S
C1437 O1433 1.253 . S
C1437 O1438 1.227 . S
O1438 C1437 1.227 . S
N1439 Co1425 2.140 . S
N1439 C1442 1.346 . S
N1439 C1443 1.345 . S
C1440 C1441 1.387 . S
C1440 C1444 1.391 . S
C1441 C1440 1.387 . S
C1441 C1442 1.369 . S
C1441 H1450 0.929 . S
C1442 N1439 1.346 . S
C1442 C1441 1.369 . S
C1442 H1445 0.928 . S
C1443 N1439 1.345 . S
C1443 C1444 1.371 . S
C1443 H1446 0.931 . S
C1444 C1440 1.391 . S
C1444 C1443 1.371 . S
C1444 H1451 0.930 . S
H1445 C1442 0.928 . S
H1446 C1443 0.931 . S
H1447 C1423 0.930 . S
H1448 C1420 0.930 . S
H1449 C1429 0.930 . S
H1450 C1441 0.929 . S
H1451 C1444 0.930 . S
C1452 C1453 1.351 . S
C1452 N1455 1.368 . S
C1452 H1457 0.931 . S
C1453 C1452 1.351 . S
C1453 N1454 1.373 . S
C1453 H1481 0.930 . S
N1454 C1453 1.373 . S
N1454 C1456 1.340 . S
N1455 C1452 1.368 . S
N1455 C1456 1.321 . S
N1455 Co1458 2.135 . S
C1456 N1454 1.340 . S
C1456 N1455 1.321 . S
C1456 H1480 0.930 . S
H1457 C1452 0.931 . S
Co1458 N1455 2.135 . S
Co1458 N1461 2.121 . S
Co1458 O1466 2.055 . S
Co1458 O1469 2.039 . S
Co1458 N1472 2.140 . S
C1459 O1460 1.227 . S
C1459 O1469 1.265 . S
O1460 C1459 1.227 . S
N1461 Co1458 2.121 . S
N1461 C1463 1.375 . S
N1461 C1464 1.313 . S
C1462 C1463 1.338 . S
C1462 N1465 1.377 . S
C1462 H1482 0.930 . S
C1463 N1461 1.375 . S
C1463 C1462 1.338 . S
C1463 H1467 0.931 . S
C1464 N1461 1.313 . S
C1464 N1465 1.344 . S
C1464 H1468 0.930 . S
N1465 C1462 1.377 . S
N1465 C1464 1.344 . S
O1466 Co1458 2.055 . S
O1466 C1470 1.253 . S
H1467 C1463 0.931 . S
H1468 C1464 0.930 . S
O1469 Co1458 2.039 . S
O1469 C1459 1.265 . S
C1470 O1466 1.253 . S
C1470 O1471 1.227 . S
O1471 C1470 1.227 . S
N1472 Co1458 2.140 . S
N1472 C1475 1.346 . S
N1472 C1476 1.345 . S
C1473 C1474 1.387 . S
C1473 C1477 1.391 . S
C1474 C1473 1.387 . S
C1474 C1475 1.369 . S
C1474 H1483 0.929 . S
C1475 N1472 1.346 . S
C1475 C1474 1.369 . S
C1475 H1478 0.928 . S
C1476 N1472 1.345 . S
C1476 C1477 1.371 . S
C1476 H1479 0.931 . S
C1477 C1473 1.391 . S
C1477 C1476 1.371 . S
C1477 H1484 0.930 . S
H1478 C1475 0.928 . S
H1479 C1476 0.931 . S
H1480 C1456 0.930 . S
H1481 C1453 0.930 . S
H1482 C1462 0.930 . S
H1483 C1474 0.929 . S
H1484 C1477 0.930 . S
C1485 C1486 1.351 . S
C1485 N1488 1.368 . S
C1485 H1490 0.931 . S
C1486 C1485 1.351 . S
C1486 N1487 1.373 1_554 S
C1486 H1514 0.930 . S
N1487 C1486 1.373 1_556 S
N1487 C1489 1.340 . S
N1488 C1485 1.368 . S
N1488 C1489 1.321 1_554 S
N1488 Co1491 2.135 . S
C1489 N1487 1.340 . S
C1489 N1488 1.321 1_556 S
C1489 H1513 0.930 . S
H1490 C1485 0.931 . S
Co1491 N1488 2.135 . S
Co1491 N1494 2.121 . S
Co1491 O1499 2.055 . S
Co1491 O1502 2.039 . S
Co1491 N1505 2.140 . S
C1492 O1493 1.227 . S
C1492 O1502 1.265 . S
O1493 C1492 1.227 . S
N1494 Co1491 2.121 . S
N1494 C1496 1.375 . S
N1494 C1497 1.313 . S
C1495 C1496 1.338 . S
C1495 N1498 1.377 . S
C1495 H1515 0.930 . S
C1496 N1494 1.375 . S
C1496 C1495 1.338 . S
C1496 H1500 0.931 . S
C1497 N1494 1.313 . S
C1497 N1498 1.344 . S
C1497 H1501 0.930 . S
N1498 C1495 1.377 . S
N1498 C1497 1.344 . S
O1499 Co1491 2.055 . S
O1499 C1503 1.253 . S
H1500 C1496 0.931 . S
H1501 C1497 0.930 . S
O1502 Co1491 2.039 . S
O1502 C1492 1.265 . S
C1503 O1499 1.253 . S
C1503 O1504 1.227 . S
O1504 C1503 1.227 . S
N1505 Co1491 2.140 . S
N1505 C1508 1.346 . S
N1505 C1509 1.345 . S
C1506 C1507 1.387 . S
C1506 C1510 1.391 . S
C1507 C1506 1.387 . S
C1507 C1508 1.369 . S
C1507 H1516 0.929 . S
C1508 N1505 1.346 . S
C1508 C1507 1.369 . S
C1508 H1511 0.928 . S
C1509 N1505 1.345 . S
C1509 C1510 1.371 . S
C1509 H1512 0.931 . S
C1510 C1506 1.391 . S
C1510 C1509 1.371 . S
C1510 H1517 0.930 . S
H1511 C1508 0.928 . S
H1512 C1509 0.931 . S
H1513 C1489 0.930 . S
H1514 C1486 0.930 . S
H1515 C1495 0.930 . S
H1516 C1507 0.929 . S
H1517 C1510 0.930 . S
C1518 C1519 1.351 . S
C1518 N1521 1.368 . S
C1518 H1523 0.931 . S
C1519 C1518 1.351 . S
C1519 N1520 1.373 . S
C1519 H1547 0.930 . S
N1520 C1519 1.373 . S
N1520 C1522 1.340 . S
N1521 C1518 1.368 . S
N1521 C1522 1.321 . S
N1521 Co1524 2.135 . S
C1522 N1520 1.340 . S
C1522 N1521 1.321 . S
C1522 H1546 0.930 . S
H1523 C1518 0.931 . S
Co1524 N1521 2.135 . S
Co1524 N1527 2.121 . S
Co1524 O1532 2.055 . S
Co1524 O1535 2.039 . S
Co1524 N1538 2.140 . S
C1525 O1526 1.227 . S
C1525 O1535 1.265 . S
O1526 C1525 1.227 . S
N1527 Co1524 2.121 . S
N1527 C1529 1.375 . S
N1527 C1530 1.313 . S
C1528 C1529 1.338 . S
C1528 N1531 1.377 . S
C1528 H1548 0.930 . S
C1529 N1527 1.375 . S
C1529 C1528 1.338 . S
C1529 H1533 0.931 . S
C1530 N1527 1.313 . S
C1530 N1531 1.344 . S
C1530 H1534 0.930 . S
N1531 C1528 1.377 . S
N1531 C1530 1.344 . S
O1532 Co1524 2.055 . S
O1532 C1536 1.253 . S
H1533 C1529 0.931 . S
H1534 C1530 0.930 . S
O1535 Co1524 2.039 . S
O1535 C1525 1.265 . S
C1536 O1532 1.253 . S
C1536 O1537 1.227 . S
O1537 C1536 1.227 . S
N1538 Co1524 2.140 . S
N1538 C1541 1.346 . S
N1538 C1542 1.345 . S
C1539 C1540 1.387 . S
C1539 C1543 1.391 . S
C1540 C1539 1.387 . S
C1540 C1541 1.369 . S
C1540 H1549 0.929 . S
C1541 N1538 1.346 . S
C1541 C1540 1.369 . S
C1541 H1544 0.928 . S
C1542 N1538 1.345 . S
C1542 C1543 1.371 . S
C1542 H1545 0.931 . S
C1543 C1539 1.391 . S
C1543 C1542 1.371 . S
C1543 H1550 0.930 . S
H1544 C1541 0.928 . S
H1545 C1542 0.931 . S
H1546 C1522 0.930 . S
H1547 C1519 0.930 . S
H1548 C1528 0.930 . S
H1549 C1540 0.929 . S
H1550 C1543 0.930 . S
C1551 C1552 1.351 . S
C1551 N1554 1.368 . S
C1551 H1556 0.931 . S
C1552 C1551 1.351 . S
C1552 N1553 1.373 . S
C1552 H1580 0.930 . S
N1553 C1552 1.373 . S
N1553 C1555 1.340 . S
N1554 C1551 1.368 . S
N1554 C1555 1.321 . S
N1554 Co1557 2.135 . S
C1555 N1553 1.340 . S
C1555 N1554 1.321 . S
C1555 H1579 0.930 . S
H1556 C1551 0.931 . S
Co1557 N1554 2.135 . S
Co1557 N1560 2.121 . S
Co1557 O1565 2.055 . S
Co1557 O1568 2.039 . S
Co1557 N1571 2.140 . S
C1558 O1559 1.227 . S
C1558 O1568 1.265 . S
O1559 C1558 1.227 . S
N1560 Co1557 2.121 . S
N1560 C1562 1.375 . S
N1560 C1563 1.313 . S
C1561 C1562 1.338 . S
C1561 N1564 1.377 . S
C1561 H1581 0.930 . S
C1562 N1560 1.375 . S
C1562 C1561 1.338 . S
C1562 H1566 0.931 . S
C1563 N1560 1.313 . S
C1563 N1564 1.344 . S
C1563 H1567 0.930 . S
N1564 C1561 1.377 . S
N1564 C1563 1.344 . S
O1565 Co1557 2.055 . S
O1565 C1569 1.253 . S
H1566 C1562 0.931 . S
H1567 C1563 0.930 . S
O1568 Co1557 2.039 . S
O1568 C1558 1.265 . S
C1569 O1565 1.253 . S
C1569 O1570 1.227 . S
O1570 C1569 1.227 . S
N1571 Co1557 2.140 . S
N1571 C1574 1.346 . S
N1571 C1575 1.345 . S
C1572 C1573 1.387 . S
C1572 C1576 1.391 . S
C1573 C1572 1.387 . S
C1573 C1574 1.369 . S
C1573 H1582 0.929 . S
C1574 N1571 1.346 . S
C1574 C1573 1.369 . S
C1574 H1577 0.928 . S
C1575 N1571 1.345 . S
C1575 C1576 1.371 . S
C1575 H1578 0.931 . S
C1576 C1572 1.391 . S
C1576 C1575 1.371 . S
C1576 H1583 0.930 . S
H1577 C1574 0.928 . S
H1578 C1575 0.931 . S
H1579 C1555 0.930 . S
H1580 C1552 0.930 . S
H1581 C1561 0.930 . S
H1582 C1573 0.929 . S
H1583 C1576 0.930 . S
C1584 C1585 1.351 . S
C1584 N1587 1.368 . S
C1584 H1589 0.931 . S
C1585 C1584 1.351 . S
C1585 N1586 1.373 . S
C1585 H1613 0.930 . S
N1586 C1585 1.373 . S
N1586 C1588 1.340 . S
N1587 C1584 1.368 . S
N1587 C1588 1.321 . S
N1587 Co1590 2.135 . S
C1588 N1586 1.340 . S
C1588 N1587 1.321 . S
C1588 H1612 0.930 . S
H1589 C1584 0.931 . S
Co1590 N1587 2.135 . S
Co1590 N1593 2.121 . S
Co1590 O1598 2.055 . S
Co1590 O1601 2.039 . S
Co1590 N1604 2.140 . S
C1591 O1592 1.227 . S
C1591 O1601 1.265 . S
O1592 C1591 1.227 . S
N1593 Co1590 2.121 . S
N1593 C1595 1.375 . S
N1593 C1596 1.313 . S
C1594 C1595 1.338 . S
C1594 N1597 1.377 . S
C1594 H1614 0.930 . S
C1595 N1593 1.375 . S
C1595 C1594 1.338 . S
C1595 H1599 0.931 . S
C1596 N1593 1.313 . S
C1596 N1597 1.344 . S
C1596 H1600 0.930 . S
N1597 C1594 1.377 . S
N1597 C1596 1.344 . S
O1598 Co1590 2.055 . S
O1598 C1602 1.253 . S
H1599 C1595 0.931 . S
H1600 C1596 0.930 . S
O1601 Co1590 2.039 . S
O1601 C1591 1.265 . S
C1602 O1598 1.253 . S
C1602 O1603 1.227 . S
O1603 C1602 1.227 . S
N1604 Co1590 2.140 . S
N1604 C1607 1.346 . S
N1604 C1608 1.345 . S
C1605 C1606 1.387 . S
C1605 C1609 1.391 . S
C1606 C1605 1.387 . S
C1606 C1607 1.369 . S
C1606 H1615 0.929 . S
C1607 N1604 1.346 . S
C1607 C1606 1.369 . S
C1607 H1610 0.928 . S
C1608 N1604 1.345 . S
C1608 C1609 1.371 . S
C1608 H1611 0.931 . S
C1609 C1605 1.391 . S
C1609 C1608 1.371 . S
C1609 H1616 0.930 . S
H1610 C1607 0.928 . S
H1611 C1608 0.931 . S
H1612 C1588 0.930 . S
H1613 C1585 0.930 . S
H1614 C1594 0.930 . S
H1615 C1606 0.929 . S
H1616 C1609 0.930 . S
C1617 C1618 1.351 . S
C1617 N1620 1.368 . S
C1617 H1622 0.931 . S
C1618 C1617 1.351 . S
C1618 N1619 1.373 . S
C1618 H1646 0.930 . S
N1619 C1618 1.373 . S
N1619 C1621 1.340 . S
N1620 C1617 1.368 . S
N1620 C1621 1.321 . S
N1620 Co1623 2.135 . S
C1621 N1619 1.340 . S
C1621 N1620 1.321 . S
C1621 H1645 0.930 . S
H1622 C1617 0.931 . S
Co1623 N1620 2.135 . S
Co1623 N1626 2.121 . S
Co1623 O1631 2.055 . S
Co1623 O1634 2.039 . S
Co1623 N1637 2.140 . S
C1624 O1625 1.227 . S
C1624 O1634 1.265 . S
O1625 C1624 1.227 . S
N1626 Co1623 2.121 . S
N1626 C1628 1.375 . S
N1626 C1629 1.313 . S
C1627 C1628 1.338 . S
C1627 N1630 1.377 . S
C1627 H1647 0.930 . S
C1628 N1626 1.375 . S
C1628 C1627 1.338 . S
C1628 H1632 0.931 . S
C1629 N1626 1.313 . S
C1629 N1630 1.344 . S
C1629 H1633 0.930 . S
N1630 C1627 1.377 . S
N1630 C1629 1.344 . S
O1631 Co1623 2.055 . S
O1631 C1635 1.253 . S
H1632 C1628 0.931 . S
H1633 C1629 0.930 . S
O1634 Co1623 2.039 . S
O1634 C1624 1.265 . S
C1635 O1631 1.253 . S
C1635 O1636 1.227 . S
O1636 C1635 1.227 . S
N1637 Co1623 2.140 . S
N1637 C1640 1.346 . S
N1637 C1641 1.345 . S
C1638 C1639 1.387 . S
C1638 C1642 1.391 . S
C1639 C1638 1.387 . S
C1639 C1640 1.369 . S
C1639 H1648 0.929 . S
C1640 N1637 1.346 . S
C1640 C1639 1.369 . S
C1640 H1643 0.928 . S
C1641 N1637 1.345 . S
C1641 C1642 1.371 . S
C1641 H1644 0.931 . S
C1642 C1638 1.391 . S
C1642 C1641 1.371 . S
C1642 H1649 0.930 . S
H1643 C1640 0.928 . S
H1644 C1641 0.931 . S
H1645 C1621 0.930 . S
H1646 C1618 0.930 . S
H1647 C1627 0.930 . S
H1648 C1639 0.929 . S
H1649 C1642 0.930 . S
C1650 C1651 1.351 . S
C1650 N1653 1.368 . S
C1650 H1655 0.931 . S
C1651 C1650 1.351 . S
C1651 N1652 1.373 1_545 S
C1651 H1679 0.930 . S
N1652 C1651 1.373 1_565 S
N1652 C1654 1.340 . S
N1653 C1650 1.368 . S
N1653 C1654 1.321 1_545 S
N1653 Co1656 2.135 . S
C1654 N1652 1.340 . S
C1654 N1653 1.321 1_565 S
C1654 H1678 0.930 . S
H1655 C1650 0.931 . S
Co1656 N1653 2.135 . S
Co1656 N1659 2.121 . S
Co1656 O1664 2.055 . S
Co1656 O1667 2.039 . S
Co1656 N1670 2.140 . S
C1657 O1658 1.227 . S
C1657 O1667 1.265 . S
O1658 C1657 1.227 . S
N1659 Co1656 2.121 . S
N1659 C1661 1.375 . S
N1659 C1662 1.313 . S
C1660 C1661 1.338 . S
C1660 N1663 1.377 . S
C1660 H1680 0.930 . S
C1661 N1659 1.375 . S
C1661 C1660 1.338 . S
C1661 H1665 0.931 . S
C1662 N1659 1.313 . S
C1662 N1663 1.344 . S
C1662 H1666 0.930 . S
N1663 C1660 1.377 . S
N1663 C1662 1.344 . S
O1664 Co1656 2.055 . S
O1664 C1668 1.253 . S
H1665 C1661 0.931 . S
H1666 C1662 0.930 . S
O1667 Co1656 2.039 . S
O1667 C1657 1.265 . S
C1668 O1664 1.253 . S
C1668 O1669 1.227 . S
O1669 C1668 1.227 . S
N1670 Co1656 2.140 . S
N1670 C1673 1.346 . S
N1670 C1674 1.345 . S
C1671 C1672 1.387 . S
C1671 C1675 1.391 . S
C1672 C1671 1.387 . S
C1672 C1673 1.369 . S
C1672 H1681 0.929 . S
C1673 N1670 1.346 . S
C1673 C1672 1.369 . S
C1673 H1676 0.928 . S
C1674 N1670 1.345 . S
C1674 C1675 1.371 . S
C1674 H1677 0.931 . S
C1675 C1671 1.391 . S
C1675 C1674 1.371 . S
C1675 H1682 0.930 . S
H1676 C1673 0.928 . S
H1677 C1674 0.931 . S
H1678 C1654 0.930 . S
H1679 C1651 0.930 . S
H1680 C1660 0.930 . S
H1681 C1672 0.929 . S
H1682 C1675 0.930 . S
C1683 C1684 1.351 . S
C1683 N1686 1.368 . S
C1683 H1688 0.931 . S
C1684 C1683 1.351 . S
C1684 N1685 1.373 1_565 S
C1684 H1712 0.930 . S
N1685 C1684 1.373 1_545 S
N1685 C1687 1.340 . S
N1686 C1683 1.368 . S
N1686 C1687 1.321 1_565 S
N1686 Co1689 2.135 . S
C1687 N1685 1.340 . S
C1687 N1686 1.321 1_545 S
C1687 H1711 0.930 . S
H1688 C1683 0.931 . S
Co1689 N1686 2.135 . S
Co1689 N1692 2.121 . S
Co1689 O1697 2.055 . S
Co1689 O1700 2.039 . S
Co1689 N1703 2.140 . S
C1690 O1691 1.227 . S
C1690 O1700 1.265 . S
O1691 C1690 1.227 . S
N1692 Co1689 2.121 . S
N1692 C1694 1.375 . S
N1692 C1695 1.313 . S
C1693 C1694 1.338 . S
C1693 N1696 1.377 . S
C1693 H1713 0.930 . S
C1694 N1692 1.375 . S
C1694 C1693 1.338 . S
C1694 H1698 0.931 . S
C1695 N1692 1.313 . S
C1695 N1696 1.344 . S
C1695 H1699 0.930 . S
N1696 C1693 1.377 . S
N1696 C1695 1.344 . S
O1697 Co1689 2.055 . S
O1697 C1701 1.253 . S
H1698 C1694 0.931 . S
H1699 C1695 0.930 . S
O1700 Co1689 2.039 . S
O1700 C1690 1.265 . S
C1701 O1697 1.253 . S
C1701 O1702 1.227 . S
O1702 C1701 1.227 . S
N1703 Co1689 2.140 . S
N1703 C1706 1.346 . S
N1703 C1707 1.345 . S
C1704 C1705 1.387 . S
C1704 C1708 1.391 . S
C1705 C1704 1.387 . S
C1705 C1706 1.369 . S
C1705 H1714 0.929 . S
C1706 N1703 1.346 . S
C1706 C1705 1.369 . S
C1706 H1709 0.928 . S
C1707 N1703 1.345 . S
C1707 C1708 1.371 . S
C1707 H1710 0.931 . S
C1708 C1704 1.391 . S
C1708 C1707 1.371 . S
C1708 H1715 0.930 . S
H1709 C1706 0.928 . S
H1710 C1707 0.931 . S
H1711 C1687 0.930 . S
H1712 C1684 0.930 . S
H1713 C1693 0.930 . S
H1714 C1705 0.929 . S
H1715 C1708 0.930 . S
C1716 C1717 1.351 . S
C1716 N1719 1.368 . S
C1716 H1721 0.931 . S
C1717 C1716 1.351 . S
C1717 N1718 1.373 . S
C1717 H1745 0.930 . S
N1718 C1717 1.373 . S
N1718 C1720 1.340 . S
N1719 C1716 1.368 . S
N1719 C1720 1.321 . S
N1719 Co1722 2.135 . S
C1720 N1718 1.340 . S
C1720 N1719 1.321 . S
C1720 H1744 0.930 . S
H1721 C1716 0.931 . S
Co1722 N1719 2.135 . S
Co1722 N1725 2.121 . S
Co1722 O1730 2.055 . S
Co1722 O1733 2.039 . S
Co1722 N1736 2.140 . S
C1723 O1724 1.227 . S
C1723 O1733 1.265 . S
O1724 C1723 1.227 . S
N1725 Co1722 2.121 . S
N1725 C1727 1.375 . S
N1725 C1728 1.313 . S
C1726 C1727 1.338 . S
C1726 N1729 1.377 . S
C1726 H1746 0.930 . S
C1727 N1725 1.375 . S
C1727 C1726 1.338 . S
C1727 H1731 0.931 . S
C1728 N1725 1.313 . S
C1728 N1729 1.344 . S
C1728 H1732 0.930 . S
N1729 C1726 1.377 . S
N1729 C1728 1.344 . S
O1730 Co1722 2.055 . S
O1730 C1734 1.253 . S
H1731 C1727 0.931 . S
H1732 C1728 0.930 . S
O1733 Co1722 2.039 . S
O1733 C1723 1.265 . S
C1734 O1730 1.253 . S
C1734 O1735 1.227 . S
O1735 C1734 1.227 . S
N1736 Co1722 2.140 . S
N1736 C1739 1.346 . S
N1736 C1740 1.345 . S
C1737 C1738 1.387 . S
C1737 C1741 1.391 . S
C1738 C1737 1.387 . S
C1738 C1739 1.369 . S
C1738 H1747 0.929 . S
C1739 N1736 1.346 . S
C1739 C1738 1.369 . S
C1739 H1742 0.928 . S
C1740 N1736 1.345 . S
C1740 C1741 1.371 . S
C1740 H1743 0.931 . S
C1741 C1737 1.391 . S
C1741 C1740 1.371 . S
C1741 H1748 0.930 . S
H1742 C1739 0.928 . S
H1743 C1740 0.931 . S
H1744 C1720 0.930 . S
H1745 C1717 0.930 . S
H1746 C1726 0.930 . S
H1747 C1738 0.929 . S
H1748 C1741 0.930 . S
C1749 C1750 1.351 . S
C1749 N1752 1.368 . S
C1749 H1754 0.931 . S
C1750 C1749 1.351 . S
C1750 N1751 1.373 . S
C1750 H1778 0.930 . S
N1751 C1750 1.373 . S
N1751 C1753 1.340 . S
N1752 C1749 1.368 . S
N1752 C1753 1.321 . S
N1752 Co1755 2.135 . S
C1753 N1751 1.340 . S
C1753 N1752 1.321 . S
C1753 H1777 0.930 . S
H1754 C1749 0.931 . S
Co1755 N1752 2.135 . S
Co1755 N1758 2.121 . S
Co1755 O1763 2.055 . S
Co1755 O1766 2.039 . S
Co1755 N1769 2.140 . S
C1756 O1757 1.227 . S
C1756 O1766 1.265 . S
O1757 C1756 1.227 . S
N1758 Co1755 2.121 . S
N1758 C1760 1.375 . S
N1758 C1761 1.313 . S
C1759 C1760 1.338 . S
C1759 N1762 1.377 . S
C1759 H1779 0.930 . S
C1760 N1758 1.375 . S
C1760 C1759 1.338 . S
C1760 H1764 0.931 . S
C1761 N1758 1.313 . S
C1761 N1762 1.344 . S
C1761 H1765 0.930 . S
N1762 C1759 1.377 . S
N1762 C1761 1.344 . S
O1763 Co1755 2.055 . S
O1763 C1767 1.253 . S
H1764 C1760 0.931 . S
H1765 C1761 0.930 . S
O1766 Co1755 2.039 . S
O1766 C1756 1.265 . S
C1767 O1763 1.253 . S
C1767 O1768 1.227 . S
O1768 C1767 1.227 . S
N1769 Co1755 2.140 . S
N1769 C1772 1.346 . S
N1769 C1773 1.345 . S
C1770 C1771 1.387 . S
C1770 C1774 1.391 . S
C1771 C1770 1.387 . S
C1771 C1772 1.369 . S
C1771 H1780 0.929 . S
C1772 N1769 1.346 . S
C1772 C1771 1.369 . S
C1772 H1775 0.928 . S
C1773 N1769 1.345 . S
C1773 C1774 1.371 . S
C1773 H1776 0.931 . S
C1774 C1770 1.391 . S
C1774 C1773 1.371 . S
C1774 H1781 0.930 . S
H1775 C1772 0.928 . S
H1776 C1773 0.931 . S
H1777 C1753 0.930 . S
H1778 C1750 0.930 . S
H1779 C1759 0.930 . S
H1780 C1771 0.929 . S
H1781 C1774 0.930 . S
C1782 C1783 1.351 . S
C1782 N1785 1.368 . S
C1782 H1787 0.931 . S
C1783 C1782 1.351 . S
C1783 N1784 1.373 . S
C1783 H1811 0.930 . S
N1784 C1783 1.373 . S
N1784 C1786 1.340 . S
N1785 C1782 1.368 . S
N1785 C1786 1.321 . S
N1785 Co1788 2.135 . S
C1786 N1784 1.340 . S
C1786 N1785 1.321 . S
C1786 H1810 0.930 . S
H1787 C1782 0.931 . S
Co1788 N1785 2.135 . S
Co1788 N1791 2.121 . S
Co1788 O1796 2.055 . S
Co1788 O1799 2.039 . S
Co1788 N1802 2.140 . S
C1789 O1790 1.227 . S
C1789 O1799 1.265 . S
O1790 C1789 1.227 . S
N1791 Co1788 2.121 . S
N1791 C1793 1.375 . S
N1791 C1794 1.313 . S
C1792 C1793 1.338 . S
C1792 N1795 1.377 . S
C1792 H1812 0.930 . S
C1793 N1791 1.375 . S
C1793 C1792 1.338 . S
C1793 H1797 0.931 . S
C1794 N1791 1.313 . S
C1794 N1795 1.344 . S
C1794 H1798 0.930 . S
N1795 C1792 1.377 . S
N1795 C1794 1.344 . S
O1796 Co1788 2.055 . S
O1796 C1800 1.253 . S
H1797 C1793 0.931 . S
H1798 C1794 0.930 . S
O1799 Co1788 2.039 . S
O1799 C1789 1.265 . S
C1800 O1796 1.253 . S
C1800 O1801 1.227 . S
O1801 C1800 1.227 . S
N1802 Co1788 2.140 . S
N1802 C1805 1.346 . S
N1802 C1806 1.345 . S
C1803 C1804 1.387 . S
C1803 C1807 1.391 . S
C1804 C1803 1.387 . S
C1804 C1805 1.369 . S
C1804 H1813 0.929 . S
C1805 N1802 1.346 . S
C1805 C1804 1.369 . S
C1805 H1808 0.928 . S
C1806 N1802 1.345 . S
C1806 C1807 1.371 . S
C1806 H1809 0.931 . S
C1807 C1803 1.391 . S
C1807 C1806 1.371 . S
C1807 H1814 0.930 . S
H1808 C1805 0.928 . S
H1809 C1806 0.931 . S
H1810 C1786 0.930 . S
H1811 C1783 0.930 . S
H1812 C1792 0.930 . S
H1813 C1804 0.929 . S
H1814 C1807 0.930 . S
C1815 C1816 1.351 . S
C1815 N1818 1.368 . S
C1815 H1820 0.931 . S
C1816 C1815 1.351 . S
C1816 N1817 1.373 1_455 S
C1816 H1844 0.930 . S
N1817 C1816 1.373 1_655 S
N1817 C1819 1.340 . S
N1818 C1815 1.368 . S
N1818 C1819 1.321 1_455 S
N1818 Co1821 2.135 . S
C1819 N1817 1.340 . S
C1819 N1818 1.321 1_655 S
C1819 H1843 0.930 . S
H1820 C1815 0.931 . S
Co1821 N1818 2.135 . S
Co1821 N1824 2.121 . S
Co1821 O1829 2.055 . S
Co1821 O1832 2.039 . S
Co1821 N1835 2.140 . S
C1822 O1823 1.227 . S
C1822 O1832 1.265 . S
O1823 C1822 1.227 . S
N1824 Co1821 2.121 . S
N1824 C1826 1.375 . S
N1824 C1827 1.313 . S
C1825 C1826 1.338 . S
C1825 N1828 1.377 . S
C1825 H1845 0.930 . S
C1826 N1824 1.375 . S
C1826 C1825 1.338 . S
C1826 H1830 0.931 . S
C1827 N1824 1.313 . S
C1827 N1828 1.344 . S
C1827 H1831 0.930 . S
N1828 C1825 1.377 . S
N1828 C1827 1.344 . S
O1829 Co1821 2.055 . S
O1829 C1833 1.253 . S
H1830 C1826 0.931 . S
H1831 C1827 0.930 . S
O1832 Co1821 2.039 . S
O1832 C1822 1.265 . S
C1833 O1829 1.253 . S
C1833 O1834 1.227 . S
O1834 C1833 1.227 . S
N1835 Co1821 2.140 . S
N1835 C1838 1.346 . S
N1835 C1839 1.345 . S
C1836 C1837 1.387 . S
C1836 C1840 1.391 . S
C1837 C1836 1.387 . S
C1837 C1838 1.369 . S
C1837 H1846 0.929 . S
C1838 N1835 1.346 . S
C1838 C1837 1.369 . S
C1838 H1841 0.928 . S
C1839 N1835 1.345 . S
C1839 C1840 1.371 . S
C1839 H1842 0.931 . S
C1840 C1836 1.391 . S
C1840 C1839 1.371 . S
C1840 H1847 0.930 . S
H1841 C1838 0.928 . S
H1842 C1839 0.931 . S
H1843 C1819 0.930 . S
H1844 C1816 0.930 . S
H1845 C1825 0.930 . S
H1846 C1837 0.929 . S
H1847 C1840 0.930 . S
C1848 C1849 1.351 . S
C1848 N1851 1.368 . S
C1848 H1853 0.931 . S
C1849 C1848 1.351 . S
C1849 N1850 1.373 . S
C1849 H1877 0.930 . S
N1850 C1849 1.373 . S
N1850 C1852 1.340 . S
N1851 C1848 1.368 . S
N1851 C1852 1.321 . S
N1851 Co1854 2.135 . S
C1852 N1850 1.340 . S
C1852 N1851 1.321 . S
C1852 H1876 0.930 . S
H1853 C1848 0.931 . S
Co1854 N1851 2.135 . S
Co1854 N1857 2.121 . S
Co1854 O1862 2.055 . S
Co1854 O1865 2.039 . S
Co1854 N1868 2.140 . S
C1855 O1856 1.227 . S
C1855 O1865 1.265 . S
O1856 C1855 1.227 . S
N1857 Co1854 2.121 . S
N1857 C1859 1.375 . S
N1857 C1860 1.313 . S
C1858 C1859 1.338 . S
C1858 N1861 1.377 . S
C1858 H1878 0.930 . S
C1859 N1857 1.375 . S
C1859 C1858 1.338 . S
C1859 H1863 0.931 . S
C1860 N1857 1.313 . S
C1860 N1861 1.344 . S
C1860 H1864 0.930 . S
N1861 C1858 1.377 . S
N1861 C1860 1.344 . S
O1862 Co1854 2.055 . S
O1862 C1866 1.253 . S
H1863 C1859 0.931 . S
H1864 C1860 0.930 . S
O1865 Co1854 2.039 . S
O1865 C1855 1.265 . S
C1866 O1862 1.253 . S
C1866 O1867 1.227 . S
O1867 C1866 1.227 . S
N1868 Co1854 2.140 . S
N1868 C1871 1.346 . S
N1868 C1872 1.345 . S
C1869 C1870 1.387 . S
C1869 C1873 1.391 . S
C1870 C1869 1.387 . S
C1870 C1871 1.369 . S
C1870 H1879 0.929 . S
C1871 N1868 1.346 . S
C1871 C1870 1.369 . S
C1871 H1874 0.928 . S
C1872 N1868 1.345 . S
C1872 C1873 1.371 . S
C1872 H1875 0.931 . S
C1873 C1869 1.391 . S
C1873 C1872 1.371 . S
C1873 H1880 0.930 . S
H1874 C1871 0.928 . S
H1875 C1872 0.931 . S
H1876 C1852 0.930 . S
H1877 C1849 0.930 . S
H1878 C1858 0.930 . S
H1879 C1870 0.929 . S
H1880 C1873 0.930 . S
C1881 C1882 1.351 . S
C1881 N1884 1.368 . S
C1881 H1886 0.931 . S
C1882 C1881 1.351 . S
C1882 N1883 1.373 . S
C1882 H1910 0.930 . S
N1883 C1882 1.373 . S
N1883 C1885 1.340 . S
N1884 C1881 1.368 . S
N1884 C1885 1.321 . S
N1884 Co1887 2.135 . S
C1885 N1883 1.340 . S
C1885 N1884 1.321 . S
C1885 H1909 0.930 . S
H1886 C1881 0.931 . S
Co1887 N1884 2.135 . S
Co1887 N1890 2.121 . S
Co1887 O1895 2.055 . S
Co1887 O1898 2.039 . S
Co1887 N1901 2.140 . S
C1888 O1889 1.227 . S
C1888 O1898 1.265 . S
O1889 C1888 1.227 . S
N1890 Co1887 2.121 . S
N1890 C1892 1.375 . S
N1890 C1893 1.313 . S
C1891 C1892 1.338 . S
C1891 N1894 1.377 . S
C1891 H1911 0.930 . S
C1892 N1890 1.375 . S
C1892 C1891 1.338 . S
C1892 H1896 0.931 . S
C1893 N1890 1.313 . S
C1893 N1894 1.344 . S
C1893 H1897 0.930 . S
N1894 C1891 1.377 . S
N1894 C1893 1.344 . S
O1895 Co1887 2.055 . S
O1895 C1899 1.253 . S
H1896 C1892 0.931 . S
H1897 C1893 0.930 . S
O1898 Co1887 2.039 . S
O1898 C1888 1.265 . S
C1899 O1895 1.253 . S
C1899 O1900 1.227 . S
O1900 C1899 1.227 . S
N1901 Co1887 2.140 . S
N1901 C1904 1.346 . S
N1901 C1905 1.345 . S
C1902 C1903 1.387 . S
C1902 C1906 1.391 . S
C1903 C1902 1.387 . S
C1903 C1904 1.369 . S
C1903 H1912 0.929 . S
C1904 N1901 1.346 . S
C1904 C1903 1.369 . S
C1904 H1907 0.928 . S
C1905 N1901 1.345 . S
C1905 C1906 1.371 . S
C1905 H1908 0.931 . S
C1906 C1902 1.391 . S
C1906 C1905 1.371 . S
C1906 H1913 0.930 . S
H1907 C1904 0.928 . S
H1908 C1905 0.931 . S
H1909 C1885 0.930 . S
H1910 C1882 0.930 . S
H1911 C1891 0.930 . S
H1912 C1903 0.929 . S
H1913 C1906 0.930 . S
C1914 C1915 1.351 . S
C1914 N1917 1.368 . S
C1914 H1919 0.931 . S
C1915 C1914 1.351 . S
C1915 N1916 1.373 . S
C1915 H1943 0.930 . S
N1916 C1915 1.373 . S
N1916 C1918 1.340 . S
N1917 C1914 1.368 . S
N1917 C1918 1.321 . S
N1917 Co1920 2.135 . S
C1918 N1916 1.340 . S
C1918 N1917 1.321 . S
C1918 H1942 0.930 . S
H1919 C1914 0.931 . S
Co1920 N1917 2.135 . S
Co1920 N1923 2.121 . S
Co1920 O1928 2.055 . S
Co1920 O1931 2.039 . S
Co1920 N1934 2.140 . S
C1921 O1922 1.227 . S
C1921 O1931 1.265 . S
O1922 C1921 1.227 . S
N1923 Co1920 2.121 . S
N1923 C1925 1.375 . S
N1923 C1926 1.313 . S
C1924 C1925 1.338 . S
C1924 N1927 1.377 . S
C1924 H1944 0.930 . S
C1925 N1923 1.375 . S
C1925 C1924 1.338 . S
C1925 H1929 0.931 . S
C1926 N1923 1.313 . S
C1926 N1927 1.344 . S
C1926 H1930 0.930 . S
N1927 C1924 1.377 . S
N1927 C1926 1.344 . S
O1928 Co1920 2.055 . S
O1928 C1932 1.253 . S
H1929 C1925 0.931 . S
H1930 C1926 0.930 . S
O1931 Co1920 2.039 . S
O1931 C1921 1.265 . S
C1932 O1928 1.253 . S
C1932 O1933 1.227 . S
O1933 C1932 1.227 . S
N1934 Co1920 2.140 . S
N1934 C1937 1.346 . S
N1934 C1938 1.345 . S
C1935 C1936 1.387 . S
C1935 C1939 1.391 . S
C1936 C1935 1.387 . S
C1936 C1937 1.369 . S
C1936 H1945 0.929 . S
C1937 N1934 1.346 . S
C1937 C1936 1.369 . S
C1937 H1940 0.928 . S
C1938 N1934 1.345 . S
C1938 C1939 1.371 . S
C1938 H1941 0.931 . S
C1939 C1935 1.391 . S
C1939 C1938 1.371 . S
C1939 H1946 0.930 . S
H1940 C1937 0.928 . S
H1941 C1938 0.931 . S
H1942 C1918 0.930 . S
H1943 C1915 0.930 . S
H1944 C1924 0.930 . S
H1945 C1936 0.929 . S
H1946 C1939 0.930 . S
C1947 C1948 1.351 . S
C1947 N1950 1.368 . S
C1947 H1952 0.931 . S
C1948 C1947 1.351 . S
C1948 N1949 1.373 . S
C1948 H1976 0.930 . S
N1949 C1948 1.373 . S
N1949 C1951 1.340 . S
N1950 C1947 1.368 . S
N1950 C1951 1.321 . S
N1950 Co1953 2.135 . S
C1951 N1949 1.340 . S
C1951 N1950 1.321 . S
C1951 H1975 0.930 . S
H1952 C1947 0.931 . S
Co1953 N1950 2.135 . S
Co1953 N1956 2.121 . S
Co1953 O1961 2.055 . S
Co1953 O1964 2.039 . S
Co1953 N1967 2.140 . S
C1954 O1955 1.227 . S
C1954 O1964 1.265 . S
O1955 C1954 1.227 . S
N1956 Co1953 2.121 . S
N1956 C1958 1.375 . S
N1956 C1959 1.313 . S
C1957 C1958 1.338 . S
C1957 N1960 1.377 . S
C1957 H1977 0.930 . S
C1958 N1956 1.375 . S
C1958 C1957 1.338 . S
C1958 H1962 0.931 . S
C1959 N1956 1.313 . S
C1959 N1960 1.344 . S
C1959 H1963 0.930 . S
N1960 C1957 1.377 . S
N1960 C1959 1.344 . S
O1961 Co1953 2.055 . S
O1961 C1965 1.253 . S
H1962 C1958 0.931 . S
H1963 C1959 0.930 . S
O1964 Co1953 2.039 . S
O1964 C1954 1.265 . S
C1965 O1961 1.253 . S
C1965 O1966 1.227 . S
O1966 C1965 1.227 . S
N1967 Co1953 2.140 . S
N1967 C1970 1.346 . S
N1967 C1971 1.345 . S
C1968 C1969 1.387 . S
C1968 C1972 1.391 . S
C1969 C1968 1.387 . S
C1969 C1970 1.369 . S
C1969 H1978 0.929 . S
C1970 N1967 1.346 . S
C1970 C1969 1.369 . S
C1970 H1973 0.928 . S
C1971 N1967 1.345 . S
C1971 C1972 1.371 . S
C1971 H1974 0.931 . S
C1972 C1968 1.391 . S
C1972 C1971 1.371 . S
C1972 H1979 0.930 . S
H1973 C1970 0.928 . S
H1974 C1971 0.931 . S
H1975 C1951 0.930 . S
H1976 C1948 0.930 . S
H1977 C1957 0.930 . S
H1978 C1969 0.929 . S
H1979 C1972 0.930 . S
C1980 C1981 1.351 . S
C1980 N1983 1.368 . S
C1980 H1985 0.931 . S
C1981 C1980 1.351 . S
C1981 N1982 1.373 . S
C1981 H2009 0.930 . S
N1982 C1981 1.373 . S
N1982 C1984 1.340 . S
N1983 C1980 1.368 . S
N1983 C1984 1.321 . S
N1983 Co1986 2.135 . S
C1984 N1982 1.340 . S
C1984 N1983 1.321 . S
C1984 H2008 0.930 . S
H1985 C1980 0.931 . S
Co1986 N1983 2.135 . S
Co1986 N1989 2.121 . S
Co1986 O1994 2.055 . S
Co1986 O1997 2.039 . S
Co1986 N2000 2.140 . S
C1987 O1988 1.227 . S
C1987 O1997 1.265 . S
O1988 C1987 1.227 . S
N1989 Co1986 2.121 . S
N1989 C1991 1.375 . S
N1989 C1992 1.313 . S
C1990 C1991 1.338 . S
C1990 N1993 1.377 . S
C1990 H2010 0.930 . S
C1991 N1989 1.375 . S
C1991 C1990 1.338 . S
C1991 H1995 0.931 . S
C1992 N1989 1.313 . S
C1992 N1993 1.344 . S
C1992 H1996 0.930 . S
N1993 C1990 1.377 . S
N1993 C1992 1.344 . S
O1994 Co1986 2.055 . S
O1994 C1998 1.253 . S
H1995 C1991 0.931 . S
H1996 C1992 0.930 . S
O1997 Co1986 2.039 . S
O1997 C1987 1.265 . S
C1998 O1994 1.253 . S
C1998 O1999 1.227 . S
O1999 C1998 1.227 . S
N2000 Co1986 2.140 . S
N2000 C2003 1.346 . S
N2000 C2004 1.345 . S
C2001 C2002 1.387 . S
C2001 C2005 1.391 . S
C2002 C2001 1.387 . S
C2002 C2003 1.369 . S
C2002 H2011 0.929 . S
C2003 N2000 1.346 . S
C2003 C2002 1.369 . S
C2003 H2006 0.928 . S
C2004 N2000 1.345 . S
C2004 C2005 1.371 . S
C2004 H2007 0.931 . S
C2005 C2001 1.391 . S
C2005 C2004 1.371 . S
C2005 H2012 0.930 . S
H2006 C2003 0.928 . S
H2007 C2004 0.931 . S
H2008 C1984 0.930 . S
H2009 C1981 0.930 . S
H2010 C1990 0.930 . S
H2011 C2002 0.929 . S
H2012 C2005 0.930 . S
C2013 C2014 1.351 . S
C2013 N2016 1.368 . S
C2013 H2018 0.931 . S
C2014 C2013 1.351 . S
C2014 N2015 1.373 . S
C2014 H2042 0.930 . S
N2015 C2014 1.373 . S
N2015 C2017 1.340 . S
N2016 C2013 1.368 . S
N2016 C2017 1.321 . S
N2016 Co2019 2.135 . S
C2017 N2015 1.340 . S
C2017 N2016 1.321 . S
C2017 H2041 0.930 . S
H2018 C2013 0.931 . S
Co2019 N2016 2.135 . S
Co2019 N2022 2.121 . S
Co2019 O2027 2.055 . S
Co2019 O2030 2.039 . S
Co2019 N2033 2.140 . S
C2020 O2021 1.227 . S
C2020 O2030 1.265 . S
O2021 C2020 1.227 . S
N2022 Co2019 2.121 . S
N2022 C2024 1.375 . S
N2022 C2025 1.313 . S
C2023 C2024 1.338 . S
C2023 N2026 1.377 . S
C2023 H2043 0.930 . S
C2024 N2022 1.375 . S
C2024 C2023 1.338 . S
C2024 H2028 0.931 . S
C2025 N2022 1.313 . S
C2025 N2026 1.344 . S
C2025 H2029 0.930 . S
N2026 C2023 1.377 . S
N2026 C2025 1.344 . S
O2027 Co2019 2.055 . S
O2027 C2031 1.253 . S
H2028 C2024 0.931 . S
H2029 C2025 0.930 . S
O2030 Co2019 2.039 . S
O2030 C2020 1.265 . S
C2031 O2027 1.253 . S
C2031 O2032 1.227 . S
O2032 C2031 1.227 . S
N2033 Co2019 2.140 . S
N2033 C2036 1.346 . S
N2033 C2037 1.345 . S
C2034 C2035 1.387 . S
C2034 C2038 1.391 . S
C2035 C2034 1.387 . S
C2035 C2036 1.369 . S
C2035 H2044 0.929 . S
C2036 N2033 1.346 . S
C2036 C2035 1.369 . S
C2036 H2039 0.928 . S
C2037 N2033 1.345 . S
C2037 C2038 1.371 . S
C2037 H2040 0.931 . S
C2038 C2034 1.391 . S
C2038 C2037 1.371 . S
C2038 H2045 0.930 . S
H2039 C2036 0.928 . S
H2040 C2037 0.931 . S
H2041 C2017 0.930 . S
H2042 C2014 0.930 . S
H2043 C2023 0.930 . S
H2044 C2035 0.929 . S
H2045 C2038 0.930 . S
C2046 C2047 1.351 . S
C2046 N2049 1.368 . S
C2046 H2051 0.931 . S
C2047 C2046 1.351 . S
C2047 N2048 1.373 . S
C2047 H2075 0.930 . S
N2048 C2047 1.373 . S
N2048 C2050 1.340 . S
N2049 C2046 1.368 . S
N2049 C2050 1.321 . S
N2049 Co2052 2.135 . S
C2050 N2048 1.340 . S
C2050 N2049 1.321 . S
C2050 H2074 0.930 . S
H2051 C2046 0.931 . S
Co2052 N2049 2.135 . S
Co2052 N2055 2.121 . S
Co2052 O2060 2.055 . S
Co2052 O2063 2.039 . S
Co2052 N2066 2.140 . S
C2053 O2054 1.227 . S
C2053 O2063 1.265 . S
O2054 C2053 1.227 . S
N2055 Co2052 2.121 . S
N2055 C2057 1.375 . S
N2055 C2058 1.313 . S
C2056 C2057 1.338 . S
C2056 N2059 1.377 . S
C2056 H2076 0.930 . S
C2057 N2055 1.375 . S
C2057 C2056 1.338 . S
C2057 H2061 0.931 . S
C2058 N2055 1.313 . S
C2058 N2059 1.344 . S
C2058 H2062 0.930 . S
N2059 C2056 1.377 . S
N2059 C2058 1.344 . S
O2060 Co2052 2.055 . S
O2060 C2064 1.253 . S
H2061 C2057 0.931 . S
H2062 C2058 0.930 . S
O2063 Co2052 2.039 . S
O2063 C2053 1.265 . S
C2064 O2060 1.253 . S
C2064 O2065 1.227 . S
O2065 C2064 1.227 . S
N2066 Co2052 2.140 . S
N2066 C2069 1.346 . S
N2066 C2070 1.345 . S
C2067 C2068 1.387 . S
C2067 C2071 1.391 . S
C2068 C2067 1.387 . S
C2068 C2069 1.369 . S
C2068 H2077 0.929 . S
C2069 N2066 1.346 . S
C2069 C2068 1.369 . S
C2069 H2072 0.928 . S
C2070 N2066 1.345 . S
C2070 C2071 1.371 . S
C2070 H2073 0.931 . S
C2071 C2067 1.391 . S
C2071 C2070 1.371 . S
C2071 H2078 0.930 . S
H2072 C2069 0.928 . S
H2073 C2070 0.931 . S
H2074 C2050 0.930 . S
H2075 C2047 0.930 . S
H2076 C2056 0.930 . S
H2077 C2068 0.929 . S
H2078 C2071 0.930 . S
C2079 C2080 1.351 . S
C2079 N2082 1.368 . S
C2079 H2084 0.931 . S
C2080 C2079 1.351 . S
C2080 N2081 1.373 1_655 S
C2080 H2108 0.930 . S
N2081 C2080 1.373 1_455 S
N2081 C2083 1.340 . S
N2082 C2079 1.368 . S
N2082 C2083 1.321 1_655 S
N2082 Co2085 2.135 . S
C2083 N2081 1.340 . S
C2083 N2082 1.321 1_455 S
C2083 H2107 0.930 . S
H2084 C2079 0.931 . S
Co2085 N2082 2.135 . S
Co2085 N2088 2.121 . S
Co2085 O2093 2.055 . S
Co2085 O2096 2.039 . S
Co2085 N2099 2.140 . S
C2086 O2087 1.227 . S
C2086 O2096 1.265 . S
O2087 C2086 1.227 . S
N2088 Co2085 2.121 . S
N2088 C2090 1.375 . S
N2088 C2091 1.313 . S
C2089 C2090 1.338 . S
C2089 N2092 1.377 . S
C2089 H2109 0.930 . S
C2090 N2088 1.375 . S
C2090 C2089 1.338 . S
C2090 H2094 0.931 . S
C2091 N2088 1.313 . S
C2091 N2092 1.344 . S
C2091 H2095 0.930 . S
N2092 C2089 1.377 . S
N2092 C2091 1.344 . S
O2093 Co2085 2.055 . S
O2093 C2097 1.253 . S
H2094 C2090 0.931 . S
H2095 C2091 0.930 . S
O2096 Co2085 2.039 . S
O2096 C2086 1.265 . S
C2097 O2093 1.253 . S
C2097 O2098 1.227 . S
O2098 C2097 1.227 . S
N2099 Co2085 2.140 . S
N2099 C2102 1.346 . S
N2099 C2103 1.345 . S
C2100 C2101 1.387 . S
C2100 C2104 1.391 . S
C2101 C2100 1.387 . S
C2101 C2102 1.369 . S
C2101 H2110 0.929 . S
C2102 N2099 1.346 . S
C2102 C2101 1.369 . S
C2102 H2105 0.928 . S
C2103 N2099 1.345 . S
C2103 C2104 1.371 . S
C2103 H2106 0.931 . S
C2104 C2100 1.391 . S
C2104 C2103 1.371 . S
C2104 H2111 0.930 . S
H2105 C2102 0.928 . S
H2106 C2103 0.931 . S
H2107 C2083 0.930 . S
H2108 C2080 0.930 . S
H2109 C2089 0.930 . S
H2110 C2101 0.929 . S
H2111 C2104 0.930 . S
C2112 C2113 1.351 . S
C2112 N2115 1.368 . S
C2112 H2117 0.931 . S
C2113 C2112 1.351 . S
C2113 N2114 1.373 1_556 S
C2113 H2141 0.930 . S
N2114 C2113 1.373 1_554 S
N2114 C2116 1.340 . S
N2115 C2112 1.368 . S
N2115 C2116 1.321 1_556 S
N2115 Co2118 2.135 . S
C2116 N2114 1.340 . S
C2116 N2115 1.321 1_554 S
C2116 H2140 0.930 . S
H2117 C2112 0.931 . S
Co2118 N2115 2.135 . S
Co2118 N2121 2.121 . S
Co2118 O2126 2.055 . S
Co2118 O2129 2.039 . S
Co2118 N2132 2.140 . S
C2119 O2120 1.227 . S
C2119 O2129 1.265 . S
O2120 C2119 1.227 . S
N2121 Co2118 2.121 . S
N2121 C2123 1.375 . S
N2121 C2124 1.313 . S
C2122 C2123 1.338 . S
C2122 N2125 1.377 . S
C2122 H2142 0.930 . S
C2123 N2121 1.375 . S
C2123 C2122 1.338 . S
C2123 H2127 0.931 . S
C2124 N2121 1.313 . S
C2124 N2125 1.344 . S
C2124 H2128 0.930 . S
N2125 C2122 1.377 . S
N2125 C2124 1.344 . S
O2126 Co2118 2.055 . S
O2126 C2130 1.253 . S
H2127 C2123 0.931 . S
H2128 C2124 0.930 . S
O2129 Co2118 2.039 . S
O2129 C2119 1.265 . S
C2130 O2126 1.253 . S
C2130 O2131 1.227 . S
O2131 C2130 1.227 . S
N2132 Co2118 2.140 . S
N2132 C2135 1.346 . S
N2132 C2136 1.345 . S
C2133 C2134 1.387 . S
C2133 C2137 1.391 . S
C2134 C2133 1.387 . S
C2134 C2135 1.369 . S
C2134 H2143 0.929 . S
C2135 N2132 1.346 . S
C2135 C2134 1.369 . S
C2135 H2138 0.928 . S
C2136 N2132 1.345 . S
C2136 C2137 1.371 . S
C2136 H2139 0.931 . S
C2137 C2133 1.391 . S
C2137 C2136 1.371 . S
C2137 H2144 0.930 . S
H2138 C2135 0.928 . S
H2139 C2136 0.931 . S
H2140 C2116 0.930 . S
H2141 C2113 0.930 . S
H2142 C2122 0.930 . S
H2143 C2134 0.929 . S
H2144 C2137 0.930 . S
C2145 C2146 1.351 . S
C2145 N2148 1.368 . S
C2145 H2150 0.931 . S
C2146 C2145 1.351 . S
C2146 N2147 1.373 . S
C2146 H2174 0.930 . S
N2147 C2146 1.373 . S
N2147 C2149 1.340 . S
N2148 C2145 1.368 . S
N2148 C2149 1.321 . S
N2148 Co2151 2.135 . S
C2149 N2147 1.340 . S
C2149 N2148 1.321 . S
C2149 H2173 0.930 . S
H2150 C2145 0.931 . S
Co2151 N2148 2.135 . S
Co2151 N2154 2.121 . S
Co2151 O2159 2.055 . S
Co2151 O2162 2.039 . S
Co2151 N2165 2.140 . S
C2152 O2153 1.227 . S
C2152 O2162 1.265 . S
O2153 C2152 1.227 . S
N2154 Co2151 2.121 . S
N2154 C2156 1.375 . S
N2154 C2157 1.313 . S
C2155 C2156 1.338 . S
C2155 N2158 1.377 . S
C2155 H2175 0.930 . S
C2156 N2154 1.375 . S
C2156 C2155 1.338 . S
C2156 H2160 0.931 . S
C2157 N2154 1.313 . S
C2157 N2158 1.344 . S
C2157 H2161 0.930 . S
N2158 C2155 1.377 . S
N2158 C2157 1.344 . S
O2159 Co2151 2.055 . S
O2159 C2163 1.253 . S
H2160 C2156 0.931 . S
H2161 C2157 0.930 . S
O2162 Co2151 2.039 . S
O2162 C2152 1.265 . S
C2163 O2159 1.253 . S
C2163 O2164 1.227 . S
O2164 C2163 1.227 . S
N2165 Co2151 2.140 . S
N2165 C2168 1.346 . S
N2165 C2169 1.345 . S
C2166 C2167 1.387 . S
C2166 C2170 1.391 . S
C2167 C2166 1.387 . S
C2167 C2168 1.369 . S
C2167 H2176 0.929 . S
C2168 N2165 1.346 . S
C2168 C2167 1.369 . S
C2168 H2171 0.928 . S
C2169 N2165 1.345 . S
C2169 C2170 1.371 . S
C2169 H2172 0.931 . S
C2170 C2166 1.391 . S
C2170 C2169 1.371 . S
C2170 H2177 0.930 . S
H2171 C2168 0.928 . S
H2172 C2169 0.931 . S
H2173 C2149 0.930 . S
H2174 C2146 0.930 . S
H2175 C2155 0.930 . S
H2176 C2167 0.929 . S
H2177 C2170 0.930 . S
C2178 C2179 1.351 . S
C2178 N2181 1.368 . S
C2178 H2183 0.931 . S
C2179 C2178 1.351 . S
C2179 N2180 1.373 . S
C2179 H2207 0.930 . S
N2180 C2179 1.373 . S
N2180 C2182 1.340 . S
N2181 C2178 1.368 . S
N2181 C2182 1.321 . S
N2181 Co2184 2.135 . S
C2182 N2180 1.340 . S
C2182 N2181 1.321 . S
C2182 H2206 0.930 . S
H2183 C2178 0.931 . S
Co2184 N2181 2.135 . S
Co2184 N2187 2.121 . S
Co2184 O2192 2.055 . S
Co2184 O2195 2.039 . S
Co2184 N2198 2.140 . S
C2185 O2186 1.227 . S
C2185 O2195 1.265 . S
O2186 C2185 1.227 . S
N2187 Co2184 2.121 . S
N2187 C2189 1.375 . S
N2187 C2190 1.313 . S
C2188 C2189 1.338 . S
C2188 N2191 1.377 . S
C2188 H2208 0.930 . S
C2189 N2187 1.375 . S
C2189 C2188 1.338 . S
C2189 H2193 0.931 . S
C2190 N2187 1.313 . S
C2190 N2191 1.344 . S
C2190 H2194 0.930 . S
N2191 C2188 1.377 . S
N2191 C2190 1.344 . S
O2192 Co2184 2.055 . S
O2192 C2196 1.253 . S
H2193 C2189 0.931 . S
H2194 C2190 0.930 . S
O2195 Co2184 2.039 . S
O2195 C2185 1.265 . S
C2196 O2192 1.253 . S
C2196 O2197 1.227 . S
O2197 C2196 1.227 . S
N2198 Co2184 2.140 . S
N2198 C2201 1.346 . S
N2198 C2202 1.345 . S
C2199 C2200 1.387 . S
C2199 C2203 1.391 . S
C2200 C2199 1.387 . S
C2200 C2201 1.369 . S
C2200 H2209 0.929 . S
C2201 N2198 1.346 . S
C2201 C2200 1.369 . S
C2201 H2204 0.928 . S
C2202 N2198 1.345 . S
C2202 C2203 1.371 . S
C2202 H2205 0.931 . S
C2203 C2199 1.391 . S
C2203 C2202 1.371 . S
C2203 H2210 0.930 . S
H2204 C2201 0.928 . S
H2205 C2202 0.931 . S
H2206 C2182 0.930 . S
H2207 C2179 0.930 . S
H2208 C2188 0.930 . S
H2209 C2200 0.929 . S
H2210 C2203 0.930 . S
C2211 C2212 1.351 . S
C2211 N2214 1.368 . S
C2211 H2216 0.931 . S
C2212 C2211 1.351 . S
C2212 N2213 1.373 1_554 S
C2212 H2240 0.930 . S
N2213 C2212 1.373 1_556 S
N2213 C2215 1.340 . S
N2214 C2211 1.368 . S
N2214 C2215 1.321 1_554 S
N2214 Co2217 2.135 . S
C2215 N2213 1.340 . S
C2215 N2214 1.321 1_556 S
C2215 H2239 0.930 . S
H2216 C2211 0.931 . S
Co2217 N2214 2.135 . S
Co2217 N2220 2.121 . S
Co2217 O2225 2.055 . S
Co2217 O2228 2.039 . S
Co2217 N2231 2.140 . S
C2218 O2219 1.227 . S
C2218 O2228 1.265 . S
O2219 C2218 1.227 . S
N2220 Co2217 2.121 . S
N2220 C2222 1.375 . S
N2220 C2223 1.313 . S
C2221 C2222 1.338 . S
C2221 N2224 1.377 . S
C2221 H2241 0.930 . S
C2222 N2220 1.375 . S
C2222 C2221 1.338 . S
C2222 H2226 0.931 . S
C2223 N2220 1.313 . S
C2223 N2224 1.344 . S
C2223 H2227 0.930 . S
N2224 C2221 1.377 . S
N2224 C2223 1.344 . S
O2225 Co2217 2.055 . S
O2225 C2229 1.253 . S
H2226 C2222 0.931 . S
H2227 C2223 0.930 . S
O2228 Co2217 2.039 . S
O2228 C2218 1.265 . S
C2229 O2225 1.253 . S
C2229 O2230 1.227 . S
O2230 C2229 1.227 . S
N2231 Co2217 2.140 . S
N2231 C2234 1.346 . S
N2231 C2235 1.345 . S
C2232 C2233 1.387 . S
C2232 C2236 1.391 . S
C2233 C2232 1.387 . S
C2233 C2234 1.369 . S
C2233 H2242 0.929 . S
C2234 N2231 1.346 . S
C2234 C2233 1.369 . S
C2234 H2237 0.928 . S
C2235 N2231 1.345 . S
C2235 C2236 1.371 . S
C2235 H2238 0.931 . S
C2236 C2232 1.391 . S
C2236 C2235 1.371 . S
C2236 H2243 0.930 . S
H2237 C2234 0.928 . S
H2238 C2235 0.931 . S
H2239 C2215 0.930 . S
H2240 C2212 0.930 . S
H2241 C2221 0.930 . S
H2242 C2233 0.929 . S
H2243 C2236 0.930 . S
C2244 C2245 1.351 . S
C2244 N2247 1.368 . S
C2244 H2249 0.931 . S
C2245 C2244 1.351 . S
C2245 N2246 1.373 1_655 S
C2245 H2273 0.930 . S
N2246 C2245 1.373 1_455 S
N2246 C2248 1.340 . S
N2247 C2244 1.368 . S
N2247 C2248 1.321 1_655 S
N2247 Co2250 2.135 . S
C2248 N2246 1.340 . S
C2248 N2247 1.321 1_455 S
C2248 H2272 0.930 . S
H2249 C2244 0.931 . S
Co2250 N2247 2.135 . S
Co2250 N2253 2.121 . S
Co2250 O2258 2.055 . S
Co2250 O2261 2.039 . S
Co2250 N2264 2.140 . S
C2251 O2252 1.227 . S
C2251 O2261 1.265 . S
O2252 C2251 1.227 . S
N2253 Co2250 2.121 . S
N2253 C2255 1.375 . S
N2253 C2256 1.313 . S
C2254 C2255 1.338 . S
C2254 N2257 1.377 . S
C2254 H2274 0.930 . S
C2255 N2253 1.375 . S
C2255 C2254 1.338 . S
C2255 H2259 0.931 . S
C2256 N2253 1.313 . S
C2256 N2257 1.344 . S
C2256 H2260 0.930 . S
N2257 C2254 1.377 . S
N2257 C2256 1.344 . S
O2258 Co2250 2.055 . S
O2258 C2262 1.253 . S
H2259 C2255 0.931 . S
H2260 C2256 0.930 . S
O2261 Co2250 2.039 . S
O2261 C2251 1.265 . S
C2262 O2258 1.253 . S
C2262 O2263 1.227 . S
O2263 C2262 1.227 . S
N2264 Co2250 2.140 . S
N2264 C2267 1.346 . S
N2264 C2268 1.345 . S
C2265 C2266 1.387 . S
C2265 C2269 1.391 . S
C2266 C2265 1.387 . S
C2266 C2267 1.369 . S
C2266 H2275 0.929 . S
C2267 N2264 1.346 . S
C2267 C2266 1.369 . S
C2267 H2270 0.928 . S
C2268 N2264 1.345 . S
C2268 C2269 1.371 . S
C2268 H2271 0.931 . S
C2269 C2265 1.391 . S
C2269 C2268 1.371 . S
C2269 H2276 0.930 . S
H2270 C2267 0.928 . S
H2271 C2268 0.931 . S
H2272 C2248 0.930 . S
H2273 C2245 0.930 . S
H2274 C2254 0.930 . S
H2275 C2266 0.929 . S
H2276 C2269 0.930 . S
C2277 C2278 1.351 . S
C2277 N2280 1.368 . S
C2277 H2282 0.931 . S
C2278 C2277 1.351 . S
C2278 N2279 1.373 . S
C2278 H2306 0.930 . S
N2279 C2278 1.373 . S
N2279 C2281 1.340 . S
N2280 C2277 1.368 . S
N2280 C2281 1.321 . S
N2280 Co2283 2.135 . S
C2281 N2279 1.340 . S
C2281 N2280 1.321 . S
C2281 H2305 0.930 . S
H2282 C2277 0.931 . S
Co2283 N2280 2.135 . S
Co2283 N2286 2.121 . S
Co2283 O2291 2.055 . S
Co2283 O2294 2.039 . S
Co2283 N2297 2.140 . S
C2284 O2285 1.227 . S
C2284 O2294 1.265 . S
O2285 C2284 1.227 . S
N2286 Co2283 2.121 . S
N2286 C2288 1.375 . S
N2286 C2289 1.313 . S
C2287 C2288 1.338 . S
C2287 N2290 1.377 . S
C2287 H2307 0.930 . S
C2288 N2286 1.375 . S
C2288 C2287 1.338 . S
C2288 H2292 0.931 . S
C2289 N2286 1.313 . S
C2289 N2290 1.344 . S
C2289 H2293 0.930 . S
N2290 C2287 1.377 . S
N2290 C2289 1.344 . S
O2291 Co2283 2.055 . S
O2291 C2295 1.253 . S
H2292 C2288 0.931 . S
H2293 C2289 0.930 . S
O2294 Co2283 2.039 . S
O2294 C2284 1.265 . S
C2295 O2291 1.253 . S
C2295 O2296 1.227 . S
O2296 C2295 1.227 . S
N2297 Co2283 2.140 . S
N2297 C2300 1.346 . S
N2297 C2301 1.345 . S
C2298 C2299 1.387 . S
C2298 C2302 1.391 . S
C2299 C2298 1.387 . S
C2299 C2300 1.369 . S
C2299 H2308 0.929 . S
C2300 N2297 1.346 . S
C2300 C2299 1.369 . S
C2300 H2303 0.928 . S
C2301 N2297 1.345 . S
C2301 C2302 1.371 . S
C2301 H2304 0.931 . S
C2302 C2298 1.391 . S
C2302 C2301 1.371 . S
C2302 H2309 0.930 . S
H2303 C2300 0.928 . S
H2304 C2301 0.931 . S
H2305 C2281 0.930 . S
H2306 C2278 0.930 . S
H2307 C2287 0.930 . S
H2308 C2299 0.929 . S
H2309 C2302 0.930 . S
C2310 C2311 1.351 . S
C2310 N2313 1.368 . S
C2310 H2315 0.931 . S
C2311 C2310 1.351 . S
C2311 N2312 1.373 . S
C2311 H2339 0.930 . S
N2312 C2311 1.373 . S
N2312 C2314 1.340 . S
N2313 C2310 1.368 . S
N2313 C2314 1.321 . S
N2313 Co2316 2.135 . S
C2314 N2312 1.340 . S
C2314 N2313 1.321 . S
C2314 H2338 0.930 . S
H2315 C2310 0.931 . S
Co2316 N2313 2.135 . S
Co2316 N2319 2.121 . S
Co2316 O2324 2.055 . S
Co2316 O2327 2.039 . S
Co2316 N2330 2.140 . S
C2317 O2318 1.227 . S
C2317 O2327 1.265 . S
O2318 C2317 1.227 . S
N2319 Co2316 2.121 . S
N2319 C2321 1.375 . S
N2319 C2322 1.313 . S
C2320 C2321 1.338 . S
C2320 N2323 1.377 . S
C2320 H2340 0.930 . S
C2321 N2319 1.375 . S
C2321 C2320 1.338 . S
C2321 H2325 0.931 . S
C2322 N2319 1.313 . S
C2322 N2323 1.344 . S
C2322 H2326 0.930 . S
N2323 C2320 1.377 . S
N2323 C2322 1.344 . S
O2324 Co2316 2.055 . S
O2324 C2328 1.253 . S
H2325 C2321 0.931 . S
H2326 C2322 0.930 . S
O2327 Co2316 2.039 . S
O2327 C2317 1.265 . S
C2328 O2324 1.253 . S
C2328 O2329 1.227 . S
O2329 C2328 1.227 . S
N2330 Co2316 2.140 . S
N2330 C2333 1.346 . S
N2330 C2334 1.345 . S
C2331 C2332 1.387 . S
C2331 C2335 1.391 . S
C2332 C2331 1.387 . S
C2332 C2333 1.369 . S
C2332 H2341 0.929 . S
C2333 N2330 1.346 . S
C2333 C2332 1.369 . S
C2333 H2336 0.928 . S
C2334 N2330 1.345 . S
C2334 C2335 1.371 . S
C2334 H2337 0.931 . S
C2335 C2331 1.391 . S
C2335 C2334 1.371 . S
C2335 H2342 0.930 . S
H2336 C2333 0.928 . S
H2337 C2334 0.931 . S
H2338 C2314 0.930 . S
H2339 C2311 0.930 . S
H2340 C2320 0.930 . S
H2341 C2332 0.929 . S
H2342 C2335 0.930 . S
C2343 C2344 1.351 . S
C2343 N2346 1.368 . S
C2343 H2348 0.931 . S
C2344 C2343 1.351 . S
C2344 N2345 1.373 . S
C2344 H2372 0.930 . S
N2345 C2344 1.373 . S
N2345 C2347 1.340 . S
N2346 C2343 1.368 . S
N2346 C2347 1.321 . S
N2346 Co2349 2.135 . S
C2347 N2345 1.340 . S
C2347 N2346 1.321 . S
C2347 H2371 0.930 . S
H2348 C2343 0.931 . S
Co2349 N2346 2.135 . S
Co2349 N2352 2.121 . S
Co2349 O2357 2.055 . S
Co2349 O2360 2.039 . S
Co2349 N2363 2.140 . S
C2350 O2351 1.227 . S
C2350 O2360 1.265 . S
O2351 C2350 1.227 . S
N2352 Co2349 2.121 . S
N2352 C2354 1.375 . S
N2352 C2355 1.313 . S
C2353 C2354 1.338 . S
C2353 N2356 1.377 . S
C2353 H2373 0.930 . S
C2354 N2352 1.375 . S
C2354 C2353 1.338 . S
C2354 H2358 0.931 . S
C2355 N2352 1.313 . S
C2355 N2356 1.344 . S
C2355 H2359 0.930 . S
N2356 C2353 1.377 . S
N2356 C2355 1.344 . S
O2357 Co2349 2.055 . S
O2357 C2361 1.253 . S
H2358 C2354 0.931 . S
H2359 C2355 0.930 . S
O2360 Co2349 2.039 . S
O2360 C2350 1.265 . S
C2361 O2357 1.253 . S
C2361 O2362 1.227 . S
O2362 C2361 1.227 . S
N2363 Co2349 2.140 . S
N2363 C2366 1.346 . S
N2363 C2367 1.345 . S
C2364 C2365 1.387 . S
C2364 C2368 1.391 . S
C2365 C2364 1.387 . S
C2365 C2366 1.369 . S
C2365 H2374 0.929 . S
C2366 N2363 1.346 . S
C2366 C2365 1.369 . S
C2366 H2369 0.928 . S
C2367 N2363 1.345 . S
C2367 C2368 1.371 . S
C2367 H2370 0.931 . S
C2368 C2364 1.391 . S
C2368 C2367 1.371 . S
C2368 H2375 0.930 . S
H2369 C2366 0.928 . S
H2370 C2367 0.931 . S
H2371 C2347 0.930 . S
H2372 C2344 0.930 . S
H2373 C2353 0.930 . S
H2374 C2365 0.929 . S
H2375 C2368 0.930 . S
C2376 C2377 1.351 . S
C2376 N2379 1.368 . S
C2376 H2381 0.931 . S
C2377 C2376 1.351 . S
C2377 N2378 1.373 . S
C2377 H2405 0.930 . S
N2378 C2377 1.373 . S
N2378 C2380 1.340 . S
N2379 C2376 1.368 . S
N2379 C2380 1.321 . S
N2379 Co2382 2.135 . S
C2380 N2378 1.340 . S
C2380 N2379 1.321 . S
C2380 H2404 0.930 . S
H2381 C2376 0.931 . S
Co2382 N2379 2.135 . S
Co2382 N2385 2.121 . S
Co2382 O2390 2.055 . S
Co2382 O2393 2.039 . S
Co2382 N2396 2.140 . S
C2383 O2384 1.227 . S
C2383 O2393 1.265 . S
O2384 C2383 1.227 . S
N2385 Co2382 2.121 . S
N2385 C2387 1.375 . S
N2385 C2388 1.313 . S
C2386 C2387 1.338 . S
C2386 N2389 1.377 . S
C2386 H2406 0.930 . S
C2387 N2385 1.375 . S
C2387 C2386 1.338 . S
C2387 H2391 0.931 . S
C2388 N2385 1.313 . S
C2388 N2389 1.344 . S
C2388 H2392 0.930 . S
N2389 C2386 1.377 . S
N2389 C2388 1.344 . S
O2390 Co2382 2.055 . S
O2390 C2394 1.253 . S
H2391 C2387 0.931 . S
H2392 C2388 0.930 . S
O2393 Co2382 2.039 . S
O2393 C2383 1.265 . S
C2394 O2390 1.253 . S
C2394 O2395 1.227 . S
O2395 C2394 1.227 . S
N2396 Co2382 2.140 . S
N2396 C2399 1.346 . S
N2396 C2400 1.345 . S
C2397 C2398 1.387 . S
C2397 C2401 1.391 . S
C2398 C2397 1.387 . S
C2398 C2399 1.369 . S
C2398 H2407 0.929 . S
C2399 N2396 1.346 . S
C2399 C2398 1.369 . S
C2399 H2402 0.928 . S
C2400 N2396 1.345 . S
C2400 C2401 1.371 . S
C2400 H2403 0.931 . S
C2401 C2397 1.391 . S
C2401 C2400 1.371 . S
C2401 H2408 0.930 . S
H2402 C2399 0.928 . S
H2403 C2400 0.931 . S
H2404 C2380 0.930 . S
H2405 C2377 0.930 . S
H2406 C2386 0.930 . S
H2407 C2398 0.929 . S
H2408 C2401 0.930 . S
C2409 C2410 1.351 . S
C2409 N2412 1.368 . S
C2409 H2414 0.931 . S
C2410 C2409 1.351 . S
C2410 N2411 1.373 . S
C2410 H2438 0.930 . S
N2411 C2410 1.373 . S
N2411 C2413 1.340 . S
N2412 C2409 1.368 . S
N2412 C2413 1.321 . S
N2412 Co2415 2.135 . S
C2413 N2411 1.340 . S
C2413 N2412 1.321 . S
C2413 H2437 0.930 . S
H2414 C2409 0.931 . S
Co2415 N2412 2.135 . S
Co2415 N2418 2.121 . S
Co2415 O2423 2.055 . S
Co2415 O2426 2.039 . S
Co2415 N2429 2.140 . S
C2416 O2417 1.227 . S
C2416 O2426 1.265 . S
O2417 C2416 1.227 . S
N2418 Co2415 2.121 . S
N2418 C2420 1.375 . S
N2418 C2421 1.313 . S
C2419 C2420 1.338 . S
C2419 N2422 1.377 . S
C2419 H2439 0.930 . S
C2420 N2418 1.375 . S
C2420 C2419 1.338 . S
C2420 H2424 0.931 . S
C2421 N2418 1.313 . S
C2421 N2422 1.344 . S
C2421 H2425 0.930 . S
N2422 C2419 1.377 . S
N2422 C2421 1.344 . S
O2423 Co2415 2.055 . S
O2423 C2427 1.253 . S
H2424 C2420 0.931 . S
H2425 C2421 0.930 . S
O2426 Co2415 2.039 . S
O2426 C2416 1.265 . S
C2427 O2423 1.253 . S
C2427 O2428 1.227 . S
O2428 C2427 1.227 . S
N2429 Co2415 2.140 . S
N2429 C2432 1.346 . S
N2429 C2433 1.345 . S
C2430 C2431 1.387 . S
C2430 C2434 1.391 . S
C2431 C2430 1.387 . S
C2431 C2432 1.369 . S
C2431 H2440 0.929 . S
C2432 N2429 1.346 . S
C2432 C2431 1.369 . S
C2432 H2435 0.928 . S
C2433 N2429 1.345 . S
C2433 C2434 1.371 . S
C2433 H2436 0.931 . S
C2434 C2430 1.391 . S
C2434 C2433 1.371 . S
C2434 H2441 0.930 . S
H2435 C2432 0.928 . S
H2436 C2433 0.931 . S
H2437 C2413 0.930 . S
H2438 C2410 0.930 . S
H2439 C2419 0.930 . S
H2440 C2431 0.929 . S
H2441 C2434 0.930 . S
C2442 C2443 1.351 . S
C2442 N2445 1.368 . S
C2442 H2447 0.931 . S
C2443 C2442 1.351 . S
C2443 N2444 1.373 . S
C2443 H2471 0.930 . S
N2444 C2443 1.373 . S
N2444 C2446 1.340 . S
N2445 C2442 1.368 . S
N2445 C2446 1.321 . S
N2445 Co2448 2.135 . S
C2446 N2444 1.340 . S
C2446 N2445 1.321 . S
C2446 H2470 0.930 . S
H2447 C2442 0.931 . S
Co2448 N2445 2.135 . S
Co2448 N2451 2.121 . S
Co2448 O2456 2.055 . S
Co2448 O2459 2.039 . S
Co2448 N2462 2.140 . S
C2449 O2450 1.227 . S
C2449 O2459 1.265 . S
O2450 C2449 1.227 . S
N2451 Co2448 2.121 . S
N2451 C2453 1.375 . S
N2451 C2454 1.313 . S
C2452 C2453 1.338 . S
C2452 N2455 1.377 . S
C2452 H2472 0.930 . S
C2453 N2451 1.375 . S
C2453 C2452 1.338 . S
C2453 H2457 0.931 . S
C2454 N2451 1.313 . S
C2454 N2455 1.344 . S
C2454 H2458 0.930 . S
N2455 C2452 1.377 . S
N2455 C2454 1.344 . S
O2456 Co2448 2.055 . S
O2456 C2460 1.253 . S
H2457 C2453 0.931 . S
H2458 C2454 0.930 . S
O2459 Co2448 2.039 . S
O2459 C2449 1.265 . S
C2460 O2456 1.253 . S
C2460 O2461 1.227 . S
O2461 C2460 1.227 . S
N2462 Co2448 2.140 . S
N2462 C2465 1.346 . S
N2462 C2466 1.345 . S
C2463 C2464 1.387 . S
C2463 C2467 1.391 . S
C2464 C2463 1.387 . S
C2464 C2465 1.369 . S
C2464 H2473 0.929 . S
C2465 N2462 1.346 . S
C2465 C2464 1.369 . S
C2465 H2468 0.928 . S
C2466 N2462 1.345 . S
C2466 C2467 1.371 . S
C2466 H2469 0.931 . S
C2467 C2463 1.391 . S
C2467 C2466 1.371 . S
C2467 H2474 0.930 . S
H2468 C2465 0.928 . S
H2469 C2466 0.931 . S
H2470 C2446 0.930 . S
H2471 C2443 0.930 . S
H2472 C2452 0.930 . S
H2473 C2464 0.929 . S
H2474 C2467 0.930 . S
C2475 C2476 1.351 . S
C2475 N2478 1.368 . S
C2475 H2480 0.931 . S
C2476 C2475 1.351 . S
C2476 N2477 1.373 . S
C2476 H2504 0.930 . S
N2477 C2476 1.373 . S
N2477 C2479 1.340 . S
N2478 C2475 1.368 . S
N2478 C2479 1.321 . S
N2478 Co2481 2.135 . S
C2479 N2477 1.340 . S
C2479 N2478 1.321 . S
C2479 H2503 0.930 . S
H2480 C2475 0.931 . S
Co2481 N2478 2.135 . S
Co2481 N2484 2.121 . S
Co2481 O2489 2.055 . S
Co2481 O2492 2.039 . S
Co2481 N2495 2.140 . S
C2482 O2483 1.227 . S
C2482 O2492 1.265 . S
O2483 C2482 1.227 . S
N2484 Co2481 2.121 . S
N2484 C2486 1.375 . S
N2484 C2487 1.313 . S
C2485 C2486 1.338 . S
C2485 N2488 1.377 . S
C2485 H2505 0.930 . S
C2486 N2484 1.375 . S
C2486 C2485 1.338 . S
C2486 H2490 0.931 . S
C2487 N2484 1.313 . S
C2487 N2488 1.344 . S
C2487 H2491 0.930 . S
N2488 C2485 1.377 . S
N2488 C2487 1.344 . S
O2489 Co2481 2.055 . S
O2489 C2493 1.253 . S
H2490 C2486 0.931 . S
H2491 C2487 0.930 . S
O2492 Co2481 2.039 . S
O2492 C2482 1.265 . S
C2493 O2489 1.253 . S
C2493 O2494 1.227 . S
O2494 C2493 1.227 . S
N2495 Co2481 2.140 . S
N2495 C2498 1.346 . S
N2495 C2499 1.345 . S
C2496 C2497 1.387 . S
C2496 C2500 1.391 . S
C2497 C2496 1.387 . S
C2497 C2498 1.369 . S
C2497 H2506 0.929 . S
C2498 N2495 1.346 . S
C2498 C2497 1.369 . S
C2498 H2501 0.928 . S
C2499 N2495 1.345 . S
C2499 C2500 1.371 . S
C2499 H2502 0.931 . S
C2500 C2496 1.391 . S
C2500 C2499 1.371 . S
C2500 H2507 0.930 . S
H2501 C2498 0.928 . S
H2502 C2499 0.931 . S
H2503 C2479 0.930 . S
H2504 C2476 0.930 . S
H2505 C2485 0.930 . S
H2506 C2497 0.929 . S
H2507 C2500 0.930 . S
C2508 C2509 1.351 . S
C2508 N2511 1.368 . S
C2508 H2513 0.931 . S
C2509 C2508 1.351 . S
C2509 N2510 1.373 1_565 S
C2509 H2537 0.930 . S
N2510 C2509 1.373 1_545 S
N2510 C2512 1.340 . S
N2511 C2508 1.368 . S
N2511 C2512 1.321 1_565 S
N2511 Co2514 2.135 . S
C2512 N2510 1.340 . S
C2512 N2511 1.321 1_545 S
C2512 H2536 0.930 . S
H2513 C2508 0.931 . S
Co2514 N2511 2.135 . S
Co2514 N2517 2.121 . S
Co2514 O2522 2.055 . S
Co2514 O2525 2.039 . S
Co2514 N2528 2.140 . S
C2515 O2516 1.227 . S
C2515 O2525 1.265 . S
O2516 C2515 1.227 . S
N2517 Co2514 2.121 . S
N2517 C2519 1.375 . S
N2517 C2520 1.313 . S
C2518 C2519 1.338 . S
C2518 N2521 1.377 . S
C2518 H2538 0.930 . S
C2519 N2517 1.375 . S
C2519 C2518 1.338 . S
C2519 H2523 0.931 . S
C2520 N2517 1.313 . S
C2520 N2521 1.344 . S
C2520 H2524 0.930 . S
N2521 C2518 1.377 . S
N2521 C2520 1.344 . S
O2522 Co2514 2.055 . S
O2522 C2526 1.253 . S
H2523 C2519 0.931 . S
H2524 C2520 0.930 . S
O2525 Co2514 2.039 . S
O2525 C2515 1.265 . S
C2526 O2522 1.253 . S
C2526 O2527 1.227 . S
O2527 C2526 1.227 . S
N2528 Co2514 2.140 . S
N2528 C2531 1.346 . S
N2528 C2532 1.345 . S
C2529 C2530 1.387 . S
C2529 C2533 1.391 . S
C2530 C2529 1.387 . S
C2530 C2531 1.369 . S
C2530 H2539 0.929 . S
C2531 N2528 1.346 . S
C2531 C2530 1.369 . S
C2531 H2534 0.928 . S
C2532 N2528 1.345 . S
C2532 C2533 1.371 . S
C2532 H2535 0.931 . S
C2533 C2529 1.391 . S
C2533 C2532 1.371 . S
C2533 H2540 0.930 . S
H2534 C2531 0.928 . S
H2535 C2532 0.931 . S
H2536 C2512 0.930 . S
H2537 C2509 0.930 . S
H2538 C2518 0.930 . S
H2539 C2530 0.929 . S
H2540 C2533 0.930 . S
C2541 C2542 1.351 . S
C2541 N2544 1.368 . S
C2541 H2546 0.931 . S
C2542 C2541 1.351 . S
C2542 N2543 1.373 1_455 S
C2542 H2570 0.930 . S
N2543 C2542 1.373 1_655 S
N2543 C2545 1.340 . S
N2544 C2541 1.368 . S
N2544 C2545 1.321 1_455 S
N2544 Co2547 2.135 . S
C2545 N2543 1.340 . S
C2545 N2544 1.321 1_655 S
C2545 H2569 0.930 . S
H2546 C2541 0.931 . S
Co2547 N2544 2.135 . S
Co2547 N2550 2.121 . S
Co2547 O2555 2.055 . S
Co2547 O2558 2.039 . S
Co2547 N2561 2.140 . S
C2548 O2549 1.227 . S
C2548 O2558 1.265 . S
O2549 C2548 1.227 . S
N2550 Co2547 2.121 . S
N2550 C2552 1.375 . S
N2550 C2553 1.313 . S
C2551 C2552 1.338 . S
C2551 N2554 1.377 . S
C2551 H2571 0.930 . S
C2552 N2550 1.375 . S
C2552 C2551 1.338 . S
C2552 H2556 0.931 . S
C2553 N2550 1.313 . S
C2553 N2554 1.344 . S
C2553 H2557 0.930 . S
N2554 C2551 1.377 . S
N2554 C2553 1.344 . S
O2555 Co2547 2.055 . S
O2555 C2559 1.253 . S
H2556 C2552 0.931 . S
H2557 C2553 0.930 . S
O2558 Co2547 2.039 . S
O2558 C2548 1.265 . S
C2559 O2555 1.253 . S
C2559 O2560 1.227 . S
O2560 C2559 1.227 . S
N2561 Co2547 2.140 . S
N2561 C2564 1.346 . S
N2561 C2565 1.345 . S
C2562 C2563 1.387 . S
C2562 C2566 1.391 . S
C2563 C2562 1.387 . S
C2563 C2564 1.369 . S
C2563 H2572 0.929 . S
C2564 N2561 1.346 . S
C2564 C2563 1.369 . S
C2564 H2567 0.928 . S
C2565 N2561 1.345 . S
C2565 C2566 1.371 . S
C2565 H2568 0.931 . S
C2566 C2562 1.391 . S
C2566 C2565 1.371 . S
C2566 H2573 0.930 . S
H2567 C2564 0.928 . S
H2568 C2565 0.931 . S
H2569 C2545 0.930 . S
H2570 C2542 0.930 . S
H2571 C2551 0.930 . S
H2572 C2563 0.929 . S
H2573 C2566 0.930 . S
C2574 C2575 1.351 . S
C2574 N2577 1.368 . S
C2574 H2579 0.931 . S
C2575 C2574 1.351 . S
C2575 N2576 1.373 . S
C2575 H2603 0.930 . S
N2576 C2575 1.373 . S
N2576 C2578 1.340 . S
N2577 C2574 1.368 . S
N2577 C2578 1.321 . S
N2577 Co2580 2.135 . S
C2578 N2576 1.340 . S
C2578 N2577 1.321 . S
C2578 H2602 0.930 . S
H2579 C2574 0.931 . S
Co2580 N2577 2.135 . S
Co2580 N2583 2.121 . S
Co2580 O2588 2.055 . S
Co2580 O2591 2.039 . S
Co2580 N2594 2.140 . S
C2581 O2582 1.227 . S
C2581 O2591 1.265 . S
O2582 C2581 1.227 . S
N2583 Co2580 2.121 . S
N2583 C2585 1.375 . S
N2583 C2586 1.313 . S
C2584 C2585 1.338 . S
C2584 N2587 1.377 . S
C2584 H2604 0.930 . S
C2585 N2583 1.375 . S
C2585 C2584 1.338 . S
C2585 H2589 0.931 . S
C2586 N2583 1.313 . S
C2586 N2587 1.344 . S
C2586 H2590 0.930 . S
N2587 C2584 1.377 . S
N2587 C2586 1.344 . S
O2588 Co2580 2.055 . S
O2588 C2592 1.253 . S
H2589 C2585 0.931 . S
H2590 C2586 0.930 . S
O2591 Co2580 2.039 . S
O2591 C2581 1.265 . S
C2592 O2588 1.253 . S
C2592 O2593 1.227 . S
O2593 C2592 1.227 . S
N2594 Co2580 2.140 . S
N2594 C2597 1.346 . S
N2594 C2598 1.345 . S
C2595 C2596 1.387 . S
C2595 C2599 1.391 . S
C2596 C2595 1.387 . S
C2596 C2597 1.369 . S
C2596 H2605 0.929 . S
C2597 N2594 1.346 . S
C2597 C2596 1.369 . S
C2597 H2600 0.928 . S
C2598 N2594 1.345 . S
C2598 C2599 1.371 . S
C2598 H2601 0.931 . S
C2599 C2595 1.391 . S
C2599 C2598 1.371 . S
C2599 H2606 0.930 . S
H2600 C2597 0.928 . S
H2601 C2598 0.931 . S
H2602 C2578 0.930 . S
H2603 C2575 0.930 . S
H2604 C2584 0.930 . S
H2605 C2596 0.929 . S
H2606 C2599 0.930 . S
C2607 C2608 1.351 . S
C2607 N2610 1.368 . S
C2607 H2612 0.931 . S
C2608 C2607 1.351 . S
C2608 N2609 1.373 . S
C2608 H2636 0.930 . S
N2609 C2608 1.373 . S
N2609 C2611 1.340 . S
N2610 C2607 1.368 . S
N2610 C2611 1.321 . S
N2610 Co2613 2.135 . S
C2611 N2609 1.340 . S
C2611 N2610 1.321 . S
C2611 H2635 0.930 . S
H2612 C2607 0.931 . S
Co2613 N2610 2.135 . S
Co2613 N2616 2.121 . S
Co2613 O2621 2.055 . S
Co2613 O2624 2.039 . S
Co2613 N2627 2.140 . S
C2614 O2615 1.227 . S
C2614 O2624 1.265 . S
O2615 C2614 1.227 . S
N2616 Co2613 2.121 . S
N2616 C2618 1.375 . S
N2616 C2619 1.313 . S
C2617 C2618 1.338 . S
C2617 N2620 1.377 . S
C2617 H2637 0.930 . S
C2618 N2616 1.375 . S
C2618 C2617 1.338 . S
C2618 H2622 0.931 . S
C2619 N2616 1.313 . S
C2619 N2620 1.344 . S
C2619 H2623 0.930 . S
N2620 C2617 1.377 . S
N2620 C2619 1.344 . S
O2621 Co2613 2.055 . S
O2621 C2625 1.253 . S
H2622 C2618 0.931 . S
H2623 C2619 0.930 . S
O2624 Co2613 2.039 . S
O2624 C2614 1.265 . S
C2625 O2621 1.253 . S
C2625 O2626 1.227 . S
O2626 C2625 1.227 . S
N2627 Co2613 2.140 . S
N2627 C2630 1.346 . S
N2627 C2631 1.345 . S
C2628 C2629 1.387 . S
C2628 C2632 1.391 . S
C2629 C2628 1.387 . S
C2629 C2630 1.369 . S
C2629 H2638 0.929 . S
C2630 N2627 1.346 . S
C2630 C2629 1.369 . S
C2630 H2633 0.928 . S
C2631 N2627 1.345 . S
C2631 C2632 1.371 . S
C2631 H2634 0.931 . S
C2632 C2628 1.391 . S
C2632 C2631 1.371 . S
C2632 H2639 0.930 . S
H2633 C2630 0.928 . S
H2634 C2631 0.931 . S
H2635 C2611 0.930 . S
H2636 C2608 0.930 . S
H2637 C2617 0.930 . S
H2638 C2629 0.929 . S
H2639 C2632 0.930 . S
C2640 C2641 1.351 . S
C2640 N2643 1.368 . S
C2640 H2645 0.931 . S
C2641 C2640 1.351 . S
C2641 N2642 1.373 . S
C2641 H2669 0.930 . S
N2642 C2641 1.373 . S
N2642 C2644 1.340 . S
N2643 C2640 1.368 . S
N2643 C2644 1.321 . S
N2643 Co2646 2.135 . S
C2644 N2642 1.340 . S
C2644 N2643 1.321 . S
C2644 H2668 0.930 . S
H2645 C2640 0.931 . S
Co2646 N2643 2.135 . S
Co2646 N2649 2.121 . S
Co2646 O2654 2.055 . S
Co2646 O2657 2.039 . S
Co2646 N2660 2.140 . S
C2647 O2648 1.227 . S
C2647 O2657 1.265 . S
O2648 C2647 1.227 . S
N2649 Co2646 2.121 . S
N2649 C2651 1.375 . S
N2649 C2652 1.313 . S
C2650 C2651 1.338 . S
C2650 N2653 1.377 . S
C2650 H2670 0.930 . S
C2651 N2649 1.375 . S
C2651 C2650 1.338 . S
C2651 H2655 0.931 . S
C2652 N2649 1.313 . S
C2652 N2653 1.344 . S
C2652 H2656 0.930 . S
N2653 C2650 1.377 . S
N2653 C2652 1.344 . S
O2654 Co2646 2.055 . S
O2654 C2658 1.253 . S
H2655 C2651 0.931 . S
H2656 C2652 0.930 . S
O2657 Co2646 2.039 . S
O2657 C2647 1.265 . S
C2658 O2654 1.253 . S
C2658 O2659 1.227 . S
O2659 C2658 1.227 . S
N2660 Co2646 2.140 . S
N2660 C2663 1.346 . S
N2660 C2664 1.345 . S
C2661 C2662 1.387 . S
C2661 C2665 1.391 . S
C2662 C2661 1.387 . S
C2662 C2663 1.369 . S
C2662 H2671 0.929 . S
C2663 N2660 1.346 . S
C2663 C2662 1.369 . S
C2663 H2666 0.928 . S
C2664 N2660 1.345 . S
C2664 C2665 1.371 . S
C2664 H2667 0.931 . S
C2665 C2661 1.391 . S
C2665 C2664 1.371 . S
C2665 H2672 0.930 . S
H2666 C2663 0.928 . S
H2667 C2664 0.931 . S
H2668 C2644 0.930 . S
H2669 C2641 0.930 . S
H2670 C2650 0.930 . S
H2671 C2662 0.929 . S
H2672 C2665 0.930 . S
C2673 C2674 1.351 . S
C2673 N2676 1.368 . S
C2673 H2678 0.931 . S
C2674 C2673 1.351 . S
C2674 N2675 1.373 . S
C2674 H2702 0.930 . S
N2675 C2674 1.373 . S
N2675 C2677 1.340 . S
N2676 C2673 1.368 . S
N2676 C2677 1.321 . S
N2676 Co2679 2.135 . S
C2677 N2675 1.340 . S
C2677 N2676 1.321 . S
C2677 H2701 0.930 . S
H2678 C2673 0.931 . S
Co2679 N2676 2.135 . S
Co2679 N2682 2.121 . S
Co2679 O2687 2.055 . S
Co2679 O2690 2.039 . S
Co2679 N2693 2.140 . S
C2680 O2681 1.227 . S
C2680 O2690 1.265 . S
O2681 C2680 1.227 . S
N2682 Co2679 2.121 . S
N2682 C2684 1.375 . S
N2682 C2685 1.313 . S
C2683 C2684 1.338 . S
C2683 N2686 1.377 . S
C2683 H2703 0.930 . S
C2684 N2682 1.375 . S
C2684 C2683 1.338 . S
C2684 H2688 0.931 . S
C2685 N2682 1.313 . S
C2685 N2686 1.344 . S
C2685 H2689 0.930 . S
N2686 C2683 1.377 . S
N2686 C2685 1.344 . S
O2687 Co2679 2.055 . S
O2687 C2691 1.253 . S
H2688 C2684 0.931 . S
H2689 C2685 0.930 . S
O2690 Co2679 2.039 . S
O2690 C2680 1.265 . S
C2691 O2687 1.253 . S
C2691 O2692 1.227 . S
O2692 C2691 1.227 . S
N2693 Co2679 2.140 . S
N2693 C2696 1.346 . S
N2693 C2697 1.345 . S
C2694 C2695 1.387 . S
C2694 C2698 1.391 . S
C2695 C2694 1.387 . S
C2695 C2696 1.369 . S
C2695 H2704 0.929 . S
C2696 N2693 1.346 . S
C2696 C2695 1.369 . S
C2696 H2699 0.928 . S
C2697 N2693 1.345 . S
C2697 C2698 1.371 . S
C2697 H2700 0.931 . S
C2698 C2694 1.391 . S
C2698 C2697 1.371 . S
C2698 H2705 0.930 . S
H2699 C2696 0.928 . S
H2700 C2697 0.931 . S
H2701 C2677 0.930 . S
H2702 C2674 0.930 . S
H2703 C2683 0.930 . S
H2704 C2695 0.929 . S
H2705 C2698 0.930 . S
C2706 C2707 1.351 . S
C2706 N2709 1.368 . S
C2706 H2711 0.931 . S
C2707 C2706 1.351 . S
C2707 N2708 1.373 1_455 S
C2707 H2735 0.930 . S
N2708 C2707 1.373 1_655 S
N2708 C2710 1.340 . S
N2709 C2706 1.368 . S
N2709 C2710 1.321 1_455 S
N2709 Co2712 2.135 . S
C2710 N2708 1.340 . S
C2710 N2709 1.321 1_655 S
C2710 H2734 0.930 . S
H2711 C2706 0.931 . S
Co2712 N2709 2.135 . S
Co2712 N2715 2.121 . S
Co2712 O2720 2.055 . S
Co2712 O2723 2.039 . S
Co2712 N2726 2.140 . S
C2713 O2714 1.227 . S
C2713 O2723 1.265 . S
O2714 C2713 1.227 . S
N2715 Co2712 2.121 . S
N2715 C2717 1.375 . S
N2715 C2718 1.313 . S
C2716 C2717 1.338 . S
C2716 N2719 1.377 . S
C2716 H2736 0.930 . S
C2717 N2715 1.375 . S
C2717 C2716 1.338 . S
C2717 H2721 0.931 . S
C2718 N2715 1.313 . S
C2718 N2719 1.344 . S
C2718 H2722 0.930 . S
N2719 C2716 1.377 . S
N2719 C2718 1.344 . S
O2720 Co2712 2.055 . S
O2720 C2724 1.253 . S
H2721 C2717 0.931 . S
H2722 C2718 0.930 . S
O2723 Co2712 2.039 . S
O2723 C2713 1.265 . S
C2724 O2720 1.253 . S
C2724 O2725 1.227 . S
O2725 C2724 1.227 . S
N2726 Co2712 2.140 . S
N2726 C2729 1.346 . S
N2726 C2730 1.345 . S
C2727 C2728 1.387 . S
C2727 C2731 1.391 . S
C2728 C2727 1.387 . S
C2728 C2729 1.369 . S
C2728 H2737 0.929 . S
C2729 N2726 1.346 . S
C2729 C2728 1.369 . S
C2729 H2732 0.928 . S
C2730 N2726 1.345 . S
C2730 C2731 1.371 . S
C2730 H2733 0.931 . S
C2731 C2727 1.391 . S
C2731 C2730 1.371 . S
C2731 H2738 0.930 . S
H2732 C2729 0.928 . S
H2733 C2730 0.931 . S
H2734 C2710 0.930 . S
H2735 C2707 0.930 . S
H2736 C2716 0.930 . S
H2737 C2728 0.929 . S
H2738 C2731 0.930 . S
C2739 C2740 1.351 . S
C2739 N2742 1.368 . S
C2739 H2744 0.931 . S
C2740 C2739 1.351 . S
C2740 N2741 1.373 . S
C2740 H2768 0.930 . S
N2741 C2740 1.373 . S
N2741 C2743 1.340 . S
N2742 C2739 1.368 . S
N2742 C2743 1.321 . S
N2742 Co2745 2.135 . S
C2743 N2741 1.340 . S
C2743 N2742 1.321 . S
C2743 H2767 0.930 . S
H2744 C2739 0.931 . S
Co2745 N2742 2.135 . S
Co2745 N2748 2.121 . S
Co2745 O2753 2.055 . S
Co2745 O2756 2.039 . S
Co2745 N2759 2.140 . S
C2746 O2747 1.227 . S
C2746 O2756 1.265 . S
O2747 C2746 1.227 . S
N2748 Co2745 2.121 . S
N2748 C2750 1.375 . S
N2748 C2751 1.313 . S
C2749 C2750 1.338 . S
C2749 N2752 1.377 . S
C2749 H2769 0.930 . S
C2750 N2748 1.375 . S
C2750 C2749 1.338 . S
C2750 H2754 0.931 . S
C2751 N2748 1.313 . S
C2751 N2752 1.344 . S
C2751 H2755 0.930 . S
N2752 C2749 1.377 . S
N2752 C2751 1.344 . S
O2753 Co2745 2.055 . S
O2753 C2757 1.253 . S
H2754 C2750 0.931 . S
H2755 C2751 0.930 . S
O2756 Co2745 2.039 . S
O2756 C2746 1.265 . S
C2757 O2753 1.253 . S
C2757 O2758 1.227 . S
O2758 C2757 1.227 . S
N2759 Co2745 2.140 . S
N2759 C2762 1.346 . S
N2759 C2763 1.345 . S
C2760 C2761 1.387 . S
C2760 C2764 1.391 . S
C2761 C2760 1.387 . S
C2761 C2762 1.369 . S
C2761 H2770 0.929 . S
C2762 N2759 1.346 . S
C2762 C2761 1.369 . S
C2762 H2765 0.928 . S
C2763 N2759 1.345 . S
C2763 C2764 1.371 . S
C2763 H2766 0.931 . S
C2764 C2760 1.391 . S
C2764 C2763 1.371 . S
C2764 H2771 0.930 . S
H2765 C2762 0.928 . S
H2766 C2763 0.931 . S
H2767 C2743 0.930 . S
H2768 C2740 0.930 . S
H2769 C2749 0.930 . S
H2770 C2761 0.929 . S
H2771 C2764 0.930 . S
C2772 C2773 1.351 . S
C2772 N2775 1.368 . S
C2772 H2777 0.931 . S
C2773 C2772 1.351 . S
C2773 N2774 1.373 . S
C2773 H2801 0.930 . S
N2774 C2773 1.373 . S
N2774 C2776 1.340 . S
N2775 C2772 1.368 . S
N2775 C2776 1.321 . S
N2775 Co2778 2.135 . S
C2776 N2774 1.340 . S
C2776 N2775 1.321 . S
C2776 H2800 0.930 . S
H2777 C2772 0.931 . S
Co2778 N2775 2.135 . S
Co2778 N2781 2.121 . S
Co2778 O2786 2.055 . S
Co2778 O2789 2.039 . S
Co2778 N2792 2.140 . S
C2779 O2780 1.227 . S
C2779 O2789 1.265 . S
O2780 C2779 1.227 . S
N2781 Co2778 2.121 . S
N2781 C2783 1.375 . S
N2781 C2784 1.313 . S
C2782 C2783 1.338 . S
C2782 N2785 1.377 . S
C2782 H2802 0.930 . S
C2783 N2781 1.375 . S
C2783 C2782 1.338 . S
C2783 H2787 0.931 . S
C2784 N2781 1.313 . S
C2784 N2785 1.344 . S
C2784 H2788 0.930 . S
N2785 C2782 1.377 . S
N2785 C2784 1.344 . S
O2786 Co2778 2.055 . S
O2786 C2790 1.253 . S
H2787 C2783 0.931 . S
H2788 C2784 0.930 . S
O2789 Co2778 2.039 . S
O2789 C2779 1.265 . S
C2790 O2786 1.253 . S
C2790 O2791 1.227 . S
O2791 C2790 1.227 . S
N2792 Co2778 2.140 . S
N2792 C2795 1.346 . S
N2792 C2796 1.345 . S
C2793 C2794 1.387 . S
C2793 C2797 1.391 . S
C2794 C2793 1.387 . S
C2794 C2795 1.369 . S
C2794 H2803 0.929 . S
C2795 N2792 1.346 . S
C2795 C2794 1.369 . S
C2795 H2798 0.928 . S
C2796 N2792 1.345 . S
C2796 C2797 1.371 . S
C2796 H2799 0.931 . S
C2797 C2793 1.391 . S
C2797 C2796 1.371 . S
C2797 H2804 0.930 . S
H2798 C2795 0.928 . S
H2799 C2796 0.931 . S
H2800 C2776 0.930 . S
H2801 C2773 0.930 . S
H2802 C2782 0.930 . S
H2803 C2794 0.929 . S
H2804 C2797 0.930 . S
C2805 C2806 1.351 . S
C2805 N2808 1.368 . S
C2805 H2810 0.931 . S
C2806 C2805 1.351 . S
C2806 N2807 1.373 1_545 S
C2806 H2834 0.930 . S
N2807 C2806 1.373 1_565 S
N2807 C2809 1.340 . S
N2808 C2805 1.368 . S
N2808 C2809 1.321 1_545 S
N2808 Co2811 2.135 . S
C2809 N2807 1.340 . S
C2809 N2808 1.321 1_565 S
C2809 H2833 0.930 . S
H2810 C2805 0.931 . S
Co2811 N2808 2.135 . S
Co2811 N2814 2.121 . S
Co2811 O2819 2.055 . S
Co2811 O2822 2.039 . S
Co2811 N2825 2.140 . S
C2812 O2813 1.227 . S
C2812 O2822 1.265 . S
O2813 C2812 1.227 . S
N2814 Co2811 2.121 . S
N2814 C2816 1.375 . S
N2814 C2817 1.313 . S
C2815 C2816 1.338 . S
C2815 N2818 1.377 . S
C2815 H2835 0.930 . S
C2816 N2814 1.375 . S
C2816 C2815 1.338 . S
C2816 H2820 0.931 . S
C2817 N2814 1.313 . S
C2817 N2818 1.344 . S
C2817 H2821 0.930 . S
N2818 C2815 1.377 . S
N2818 C2817 1.344 . S
O2819 Co2811 2.055 . S
O2819 C2823 1.253 . S
H2820 C2816 0.931 . S
H2821 C2817 0.930 . S
O2822 Co2811 2.039 . S
O2822 C2812 1.265 . S
C2823 O2819 1.253 . S
C2823 O2824 1.227 . S
O2824 C2823 1.227 . S
N2825 Co2811 2.140 . S
N2825 C2828 1.346 . S
N2825 C2829 1.345 . S
C2826 C2827 1.387 . S
C2826 C2830 1.391 . S
C2827 C2826 1.387 . S
C2827 C2828 1.369 . S
C2827 H2836 0.929 . S
C2828 N2825 1.346 . S
C2828 C2827 1.369 . S
C2828 H2831 0.928 . S
C2829 N2825 1.345 . S
C2829 C2830 1.371 . S
C2829 H2832 0.931 . S
C2830 C2826 1.391 . S
C2830 C2829 1.371 . S
C2830 H2837 0.930 . S
H2831 C2828 0.928 . S
H2832 C2829 0.931 . S
H2833 C2809 0.930 . S
H2834 C2806 0.930 . S
H2835 C2815 0.930 . S
H2836 C2827 0.929 . S
H2837 C2830 0.930 . S
C2838 C2839 1.351 . S
C2838 N2841 1.368 . S
C2838 H2843 0.931 . S
C2839 C2838 1.351 . S
C2839 N2840 1.373 1_655 S
C2839 H2867 0.930 . S
N2840 C2839 1.373 1_455 S
N2840 C2842 1.340 . S
N2841 C2838 1.368 . S
N2841 C2842 1.321 1_655 S
N2841 Co2844 2.135 . S
C2842 N2840 1.340 . S
C2842 N2841 1.321 1_455 S
C2842 H2866 0.930 . S
H2843 C2838 0.931 . S
Co2844 N2841 2.135 . S
Co2844 N2847 2.121 . S
Co2844 O2852 2.055 . S
Co2844 O2855 2.039 . S
Co2844 N2858 2.140 . S
C2845 O2846 1.227 . S
C2845 O2855 1.265 . S
O2846 C2845 1.227 . S
N2847 Co2844 2.121 . S
N2847 C2849 1.375 . S
N2847 C2850 1.313 . S
C2848 C2849 1.338 . S
C2848 N2851 1.377 . S
C2848 H2868 0.930 . S
C2849 N2847 1.375 . S
C2849 C2848 1.338 . S
C2849 H2853 0.931 . S
C2850 N2847 1.313 . S
C2850 N2851 1.344 . S
C2850 H2854 0.930 . S
N2851 C2848 1.377 . S
N2851 C2850 1.344 . S
O2852 Co2844 2.055 . S
O2852 C2856 1.253 . S
H2853 C2849 0.931 . S
H2854 C2850 0.930 . S
O2855 Co2844 2.039 . S
O2855 C2845 1.265 . S
C2856 O2852 1.253 . S
C2856 O2857 1.227 . S
O2857 C2856 1.227 . S
N2858 Co2844 2.140 . S
N2858 C2861 1.346 . S
N2858 C2862 1.345 . S
C2859 C2860 1.387 . S
C2859 C2863 1.391 . S
C2860 C2859 1.387 . S
C2860 C2861 1.369 . S
C2860 H2869 0.929 . S
C2861 N2858 1.346 . S
C2861 C2860 1.369 . S
C2861 H2864 0.928 . S
C2862 N2858 1.345 . S
C2862 C2863 1.371 . S
C2862 H2865 0.931 . S
C2863 C2859 1.391 . S
C2863 C2862 1.371 . S
C2863 H2870 0.930 . S
H2864 C2861 0.928 . S
H2865 C2862 0.931 . S
H2866 C2842 0.930 . S
H2867 C2839 0.930 . S
H2868 C2848 0.930 . S
H2869 C2860 0.929 . S
H2870 C2863 0.930 . S
C2871 C2872 1.351 . S
C2871 N2874 1.368 . S
C2871 H2876 0.931 . S
C2872 C2871 1.351 . S
C2872 N2873 1.373 . S
C2872 H2900 0.930 . S
N2873 C2872 1.373 . S
N2873 C2875 1.340 . S
N2874 C2871 1.368 . S
N2874 C2875 1.321 . S
N2874 Co2877 2.135 . S
C2875 N2873 1.340 . S
C2875 N2874 1.321 . S
C2875 H2899 0.930 . S
H2876 C2871 0.931 . S
Co2877 N2874 2.135 . S
Co2877 N2880 2.121 . S
Co2877 O2885 2.055 . S
Co2877 O2888 2.039 . S
Co2877 N2891 2.140 . S
C2878 O2879 1.227 . S
C2878 O2888 1.265 . S
O2879 C2878 1.227 . S
N2880 Co2877 2.121 . S
N2880 C2882 1.375 . S
N2880 C2883 1.313 . S
C2881 C2882 1.338 . S
C2881 N2884 1.377 . S
C2881 H2901 0.930 . S
C2882 N2880 1.375 . S
C2882 C2881 1.338 . S
C2882 H2886 0.931 . S
C2883 N2880 1.313 . S
C2883 N2884 1.344 . S
C2883 H2887 0.930 . S
N2884 C2881 1.377 . S
N2884 C2883 1.344 . S
O2885 Co2877 2.055 . S
O2885 C2889 1.253 . S
H2886 C2882 0.931 . S
H2887 C2883 0.930 . S
O2888 Co2877 2.039 . S
O2888 C2878 1.265 . S
C2889 O2885 1.253 . S
C2889 O2890 1.227 . S
O2890 C2889 1.227 . S
N2891 Co2877 2.140 . S
N2891 C2894 1.346 . S
N2891 C2895 1.345 . S
C2892 C2893 1.387 . S
C2892 C2896 1.391 . S
C2893 C2892 1.387 . S
C2893 C2894 1.369 . S
C2893 H2902 0.929 . S
C2894 N2891 1.346 . S
C2894 C2893 1.369 . S
C2894 H2897 0.928 . S
C2895 N2891 1.345 . S
C2895 C2896 1.371 . S
C2895 H2898 0.931 . S
C2896 C2892 1.391 . S
C2896 C2895 1.371 . S
C2896 H2903 0.930 . S
H2897 C2894 0.928 . S
H2898 C2895 0.931 . S
H2899 C2875 0.930 . S
H2900 C2872 0.930 . S
H2901 C2881 0.930 . S
H2902 C2893 0.929 . S
H2903 C2896 0.930 . S
C2904 C2905 1.351 . S
C2904 N2907 1.368 . S
C2904 H2909 0.931 . S
C2905 C2904 1.351 . S
C2905 N2906 1.373 . S
C2905 H2933 0.930 . S
N2906 C2905 1.373 . S
N2906 C2908 1.340 . S
N2907 C2904 1.368 . S
N2907 C2908 1.321 . S
N2907 Co2910 2.135 . S
C2908 N2906 1.340 . S
C2908 N2907 1.321 . S
C2908 H2932 0.930 . S
H2909 C2904 0.931 . S
Co2910 N2907 2.135 . S
Co2910 N2913 2.121 . S
Co2910 O2918 2.055 . S
Co2910 O2921 2.039 . S
Co2910 N2924 2.140 . S
C2911 O2912 1.227 . S
C2911 O2921 1.265 . S
O2912 C2911 1.227 . S
N2913 Co2910 2.121 . S
N2913 C2915 1.375 . S
N2913 C2916 1.313 . S
C2914 C2915 1.338 . S
C2914 N2917 1.377 . S
C2914 H2934 0.930 . S
C2915 N2913 1.375 . S
C2915 C2914 1.338 . S
C2915 H2919 0.931 . S
C2916 N2913 1.313 . S
C2916 N2917 1.344 . S
C2916 H2920 0.930 . S
N2917 C2914 1.377 . S
N2917 C2916 1.344 . S
O2918 Co2910 2.055 . S
O2918 C2922 1.253 . S
H2919 C2915 0.931 . S
H2920 C2916 0.930 . S
O2921 Co2910 2.039 . S
O2921 C2911 1.265 . S
C2922 O2918 1.253 . S
C2922 O2923 1.227 . S
O2923 C2922 1.227 . S
N2924 Co2910 2.140 . S
N2924 C2927 1.346 . S
N2924 C2928 1.345 . S
C2925 C2926 1.387 . S
C2925 C2929 1.391 . S
C2926 C2925 1.387 . S
C2926 C2927 1.369 . S
C2926 H2935 0.929 . S
C2927 N2924 1.346 . S
C2927 C2926 1.369 . S
C2927 H2930 0.928 . S
C2928 N2924 1.345 . S
C2928 C2929 1.371 . S
C2928 H2931 0.931 . S
C2929 C2925 1.391 . S
C2929 C2928 1.371 . S
C2929 H2936 0.930 . S
H2930 C2927 0.928 . S
H2931 C2928 0.931 . S
H2932 C2908 0.930 . S
H2933 C2905 0.930 . S
H2934 C2914 0.930 . S
H2935 C2926 0.929 . S
H2936 C2929 0.930 . S
C2937 C2938 1.351 . S
C2937 N2940 1.368 . S
C2937 H2942 0.931 . S
C2938 C2937 1.351 . S
C2938 N2939 1.373 . S
C2938 H2966 0.930 . S
N2939 C2938 1.373 . S
N2939 C2941 1.340 . S
N2940 C2937 1.368 . S
N2940 C2941 1.321 . S
N2940 Co2943 2.135 . S
C2941 N2939 1.340 . S
C2941 N2940 1.321 . S
C2941 H2965 0.930 . S
H2942 C2937 0.931 . S
Co2943 N2940 2.135 . S
Co2943 N2946 2.121 . S
Co2943 O2951 2.055 . S
Co2943 O2954 2.039 . S
Co2943 N2957 2.140 . S
C2944 O2945 1.227 . S
C2944 O2954 1.265 . S
O2945 C2944 1.227 . S
N2946 Co2943 2.121 . S
N2946 C2948 1.375 . S
N2946 C2949 1.313 . S
C2947 C2948 1.338 . S
C2947 N2950 1.377 . S
C2947 H2967 0.930 . S
C2948 N2946 1.375 . S
C2948 C2947 1.338 . S
C2948 H2952 0.931 . S
C2949 N2946 1.313 . S
C2949 N2950 1.344 . S
C2949 H2953 0.930 . S
N2950 C2947 1.377 . S
N2950 C2949 1.344 . S
O2951 Co2943 2.055 . S
O2951 C2955 1.253 . S
H2952 C2948 0.931 . S
H2953 C2949 0.930 . S
O2954 Co2943 2.039 . S
O2954 C2944 1.265 . S
C2955 O2951 1.253 . S
C2955 O2956 1.227 . S
O2956 C2955 1.227 . S
N2957 Co2943 2.140 . S
N2957 C2960 1.346 . S
N2957 C2961 1.345 . S
C2958 C2959 1.387 . S
C2958 C2962 1.391 . S
C2959 C2958 1.387 . S
C2959 C2960 1.369 . S
C2959 H2968 0.929 . S
C2960 N2957 1.346 . S
C2960 C2959 1.369 . S
C2960 H2963 0.928 . S
C2961 N2957 1.345 . S
C2961 C2962 1.371 . S
C2961 H2964 0.931 . S
C2962 C2958 1.391 . S
C2962 C2961 1.371 . S
C2962 H2969 0.930 . S
H2963 C2960 0.928 . S
H2964 C2961 0.931 . S
H2965 C2941 0.930 . S
H2966 C2938 0.930 . S
H2967 C2947 0.930 . S
H2968 C2959 0.929 . S
H2969 C2962 0.930 . S
C2970 C2971 1.351 . S
C2970 N2973 1.368 . S
C2970 H2975 0.931 . S
C2971 C2970 1.351 . S
C2971 N2972 1.373 . S
C2971 H2999 0.930 . S
N2972 C2971 1.373 . S
N2972 C2974 1.340 . S
N2973 C2970 1.368 . S
N2973 C2974 1.321 . S
N2973 Co2976 2.135 . S
C2974 N2972 1.340 . S
C2974 N2973 1.321 . S
C2974 H2998 0.930 . S
H2975 C2970 0.931 . S
Co2976 N2973 2.135 . S
Co2976 N2979 2.121 . S
Co2976 O2984 2.055 . S
Co2976 O2987 2.039 . S
Co2976 N2990 2.140 . S
C2977 O2978 1.227 . S
C2977 O2987 1.265 . S
O2978 C2977 1.227 . S
N2979 Co2976 2.121 . S
N2979 C2981 1.375 . S
N2979 C2982 1.313 . S
C2980 C2981 1.338 . S
C2980 N2983 1.377 . S
C2980 H3000 0.930 . S
C2981 N2979 1.375 . S
C2981 C2980 1.338 . S
C2981 H2985 0.931 . S
C2982 N2979 1.313 . S
C2982 N2983 1.344 . S
C2982 H2986 0.930 . S
N2983 C2980 1.377 . S
N2983 C2982 1.344 . S
O2984 Co2976 2.055 . S
O2984 C2988 1.253 . S
H2985 C2981 0.931 . S
H2986 C2982 0.930 . S
O2987 Co2976 2.039 . S
O2987 C2977 1.265 . S
C2988 O2984 1.253 . S
C2988 O2989 1.227 . S
O2989 C2988 1.227 . S
N2990 Co2976 2.140 . S
N2990 C2993 1.346 . S
N2990 C2994 1.345 . S
C2991 C2992 1.387 . S
C2991 C2995 1.391 . S
C2992 C2991 1.387 . S
C2992 C2993 1.369 . S
C2992 H3001 0.929 . S
C2993 N2990 1.346 . S
C2993 C2992 1.369 . S
C2993 H2996 0.928 . S
C2994 N2990 1.345 . S
C2994 C2995 1.371 . S
C2994 H2997 0.931 . S
C2995 C2991 1.391 . S
C2995 C2994 1.371 . S
C2995 H3002 0.930 . S
H2996 C2993 0.928 . S
H2997 C2994 0.931 . S
H2998 C2974 0.930 . S
H2999 C2971 0.930 . S
H3000 C2980 0.930 . S
H3001 C2992 0.929 . S
H3002 C2995 0.930 . S
C3003 C3004 1.351 . S
C3003 N3006 1.368 . S
C3003 H3008 0.931 . S
C3004 C3003 1.351 . S
C3004 N3005 1.373 . S
C3004 H3032 0.930 . S
N3005 C3004 1.373 . S
N3005 C3007 1.340 . S
N3006 C3003 1.368 . S
N3006 C3007 1.321 . S
N3006 Co3009 2.135 . S
C3007 N3005 1.340 . S
C3007 N3006 1.321 . S
C3007 H3031 0.930 . S
H3008 C3003 0.931 . S
Co3009 N3006 2.135 . S
Co3009 N3012 2.121 . S
Co3009 O3017 2.055 . S
Co3009 O3020 2.039 . S
Co3009 N3023 2.140 . S
C3010 O3011 1.227 . S
C3010 O3020 1.265 . S
O3011 C3010 1.227 . S
N3012 Co3009 2.121 . S
N3012 C3014 1.375 . S
N3012 C3015 1.313 . S
C3013 C3014 1.338 . S
C3013 N3016 1.377 . S
C3013 H3033 0.930 . S
C3014 N3012 1.375 . S
C3014 C3013 1.338 . S
C3014 H3018 0.931 . S
C3015 N3012 1.313 . S
C3015 N3016 1.344 . S
C3015 H3019 0.930 . S
N3016 C3013 1.377 . S
N3016 C3015 1.344 . S
O3017 Co3009 2.055 . S
O3017 C3021 1.253 . S
H3018 C3014 0.931 . S
H3019 C3015 0.930 . S
O3020 Co3009 2.039 . S
O3020 C3010 1.265 . S
C3021 O3017 1.253 . S
C3021 O3022 1.227 . S
O3022 C3021 1.227 . S
N3023 Co3009 2.140 . S
N3023 C3026 1.346 . S
N3023 C3027 1.345 . S
C3024 C3025 1.387 . S
C3024 C3028 1.391 . S
C3025 C3024 1.387 . S
C3025 C3026 1.369 . S
C3025 H3034 0.929 . S
C3026 N3023 1.346 . S
C3026 C3025 1.369 . S
C3026 H3029 0.928 . S
C3027 N3023 1.345 . S
C3027 C3028 1.371 . S
C3027 H3030 0.931 . S
C3028 C3024 1.391 . S
C3028 C3027 1.371 . S
C3028 H3035 0.930 . S
H3029 C3026 0.928 . S
H3030 C3027 0.931 . S
H3031 C3007 0.930 . S
H3032 C3004 0.930 . S
H3033 C3013 0.930 . S
H3034 C3025 0.929 . S
H3035 C3028 0.930 . S
C3036 C3037 1.351 . S
C3036 N3039 1.368 . S
C3036 H3041 0.931 . S
C3037 C3036 1.351 . S
C3037 N3038 1.373 1_545 S
C3037 H3065 0.930 . S
N3038 C3037 1.373 1_565 S
N3038 C3040 1.340 . S
N3039 C3036 1.368 . S
N3039 C3040 1.321 1_545 S
N3039 Co3042 2.135 . S
C3040 N3038 1.340 . S
C3040 N3039 1.321 1_565 S
C3040 H3064 0.930 . S
H3041 C3036 0.931 . S
Co3042 N3039 2.135 . S
Co3042 N3045 2.121 . S
Co3042 O3050 2.055 . S
Co3042 O3053 2.039 . S
Co3042 N3056 2.140 . S
C3043 O3044 1.227 . S
C3043 O3053 1.265 . S
O3044 C3043 1.227 . S
N3045 Co3042 2.121 . S
N3045 C3047 1.375 . S
N3045 C3048 1.313 . S
C3046 C3047 1.338 . S
C3046 N3049 1.377 . S
C3046 H3066 0.930 . S
C3047 N3045 1.375 . S
C3047 C3046 1.338 . S
C3047 H3051 0.931 . S
C3048 N3045 1.313 . S
C3048 N3049 1.344 . S
C3048 H3052 0.930 . S
N3049 C3046 1.377 . S
N3049 C3048 1.344 . S
O3050 Co3042 2.055 . S
O3050 C3054 1.253 . S
H3051 C3047 0.931 . S
H3052 C3048 0.930 . S
O3053 Co3042 2.039 . S
O3053 C3043 1.265 . S
C3054 O3050 1.253 . S
C3054 O3055 1.227 . S
O3055 C3054 1.227 . S
N3056 Co3042 2.140 . S
N3056 C3059 1.346 . S
N3056 C3060 1.345 . S
C3057 C3058 1.387 . S
C3057 C3061 1.391 . S
C3058 C3057 1.387 . S
C3058 C3059 1.369 . S
C3058 H3067 0.929 . S
C3059 N3056 1.346 . S
C3059 C3058 1.369 . S
C3059 H3062 0.928 . S
C3060 N3056 1.345 . S
C3060 C3061 1.371 . S
C3060 H3063 0.931 . S
C3061 C3057 1.391 . S
C3061 C3060 1.371 . S
C3061 H3068 0.930 . S
H3062 C3059 0.928 . S
H3063 C3060 0.931 . S
H3064 C3040 0.930 . S
H3065 C3037 0.930 . S
H3066 C3046 0.930 . S
H3067 C3058 0.929 . S
H3068 C3061 0.930 . S
C3069 C3070 1.351 . S
C3069 N3072 1.368 . S
C3069 H3074 0.931 . S
C3070 C3069 1.351 . S
C3070 N3071 1.373 1_565 S
C3070 H3098 0.930 . S
N3071 C3070 1.373 1_545 S
N3071 C3073 1.340 . S
N3072 C3069 1.368 . S
N3072 C3073 1.321 1_565 S
N3072 Co3075 2.135 . S
C3073 N3071 1.340 . S
C3073 N3072 1.321 1_545 S
C3073 H3097 0.930 . S
H3074 C3069 0.931 . S
Co3075 N3072 2.135 . S
Co3075 N3078 2.121 . S
Co3075 O3083 2.055 . S
Co3075 O3086 2.039 . S
Co3075 N3089 2.140 . S
C3076 O3077 1.227 . S
C3076 O3086 1.265 . S
O3077 C3076 1.227 . S
N3078 Co3075 2.121 . S
N3078 C3080 1.375 . S
N3078 C3081 1.313 . S
C3079 C3080 1.338 . S
C3079 N3082 1.377 . S
C3079 H3099 0.930 . S
C3080 N3078 1.375 . S
C3080 C3079 1.338 . S
C3080 H3084 0.931 . S
C3081 N3078 1.313 . S
C3081 N3082 1.344 . S
C3081 H3085 0.930 . S
N3082 C3079 1.377 . S
N3082 C3081 1.344 . S
O3083 Co3075 2.055 . S
O3083 C3087 1.253 . S
H3084 C3080 0.931 . S
H3085 C3081 0.930 . S
O3086 Co3075 2.039 . S
O3086 C3076 1.265 . S
C3087 O3083 1.253 . S
C3087 O3088 1.227 . S
O3088 C3087 1.227 . S
N3089 Co3075 2.140 . S
N3089 C3092 1.346 . S
N3089 C3093 1.345 . S
C3090 C3091 1.387 . S
C3090 C3094 1.391 . S
C3091 C3090 1.387 . S
C3091 C3092 1.369 . S
C3091 H3100 0.929 . S
C3092 N3089 1.346 . S
C3092 C3091 1.369 . S
C3092 H3095 0.928 . S
C3093 N3089 1.345 . S
C3093 C3094 1.371 . S
C3093 H3096 0.931 . S
C3094 C3090 1.391 . S
C3094 C3093 1.371 . S
C3094 H3101 0.930 . S
H3095 C3092 0.928 . S
H3096 C3093 0.931 . S
H3097 C3073 0.930 . S
H3098 C3070 0.930 . S
H3099 C3079 0.930 . S
H3100 C3091 0.929 . S
H3101 C3094 0.930 . S
C3102 C3103 1.351 . S
C3102 N3105 1.368 . S
C3102 H3107 0.931 . S
C3103 C3102 1.351 . S
C3103 N3104 1.373 . S
C3103 H3131 0.930 . S
N3104 C3103 1.373 . S
N3104 C3106 1.340 . S
N3105 C3102 1.368 . S
N3105 C3106 1.321 . S
N3105 Co3108 2.135 . S
C3106 N3104 1.340 . S
C3106 N3105 1.321 . S
C3106 H3130 0.930 . S
H3107 C3102 0.931 . S
Co3108 N3105 2.135 . S
Co3108 N3111 2.121 . S
Co3108 O3116 2.055 . S
Co3108 O3119 2.039 . S
Co3108 N3122 2.140 . S
C3109 O3110 1.227 . S
C3109 O3119 1.265 . S
O3110 C3109 1.227 . S
N3111 Co3108 2.121 . S
N3111 C3113 1.375 . S
N3111 C3114 1.313 . S
C3112 C3113 1.338 . S
C3112 N3115 1.377 . S
C3112 H3132 0.930 . S
C3113 N3111 1.375 . S
C3113 C3112 1.338 . S
C3113 H3117 0.931 . S
C3114 N3111 1.313 . S
C3114 N3115 1.344 . S
C3114 H3118 0.930 . S
N3115 C3112 1.377 . S
N3115 C3114 1.344 . S
O3116 Co3108 2.055 . S
O3116 C3120 1.253 . S
H3117 C3113 0.931 . S
H3118 C3114 0.930 . S
O3119 Co3108 2.039 . S
O3119 C3109 1.265 . S
C3120 O3116 1.253 . S
C3120 O3121 1.227 . S
O3121 C3120 1.227 . S
N3122 Co3108 2.140 . S
N3122 C3125 1.346 . S
N3122 C3126 1.345 . S
C3123 C3124 1.387 . S
C3123 C3127 1.391 . S
C3124 C3123 1.387 . S
C3124 C3125 1.369 . S
C3124 H3133 0.929 . S
C3125 N3122 1.346 . S
C3125 C3124 1.369 . S
C3125 H3128 0.928 . S
C3126 N3122 1.345 . S
C3126 C3127 1.371 . S
C3126 H3129 0.931 . S
C3127 C3123 1.391 . S
C3127 C3126 1.371 . S
C3127 H3134 0.930 . S
H3128 C3125 0.928 . S
H3129 C3126 0.931 . S
H3130 C3106 0.930 . S
H3131 C3103 0.930 . S
H3132 C3112 0.930 . S
H3133 C3124 0.929 . S
H3134 C3127 0.930 . S
C3135 C3136 1.351 . S
C3135 N3138 1.368 . S
C3135 H3140 0.931 . S
C3136 C3135 1.351 . S
C3136 N3137 1.373 . S
C3136 H3164 0.930 . S
N3137 C3136 1.373 . S
N3137 C3139 1.340 . S
N3138 C3135 1.368 . S
N3138 C3139 1.321 . S
N3138 Co3141 2.135 . S
C3139 N3137 1.340 . S
C3139 N3138 1.321 . S
C3139 H3163 0.930 . S
H3140 C3135 0.931 . S
Co3141 N3138 2.135 . S
Co3141 N3144 2.121 . S
Co3141 O3149 2.055 . S
Co3141 O3152 2.039 . S
Co3141 N3155 2.140 . S
C3142 O3143 1.227 . S
C3142 O3152 1.265 . S
O3143 C3142 1.227 . S
N3144 Co3141 2.121 . S
N3144 C3146 1.375 . S
N3144 C3147 1.313 . S
C3145 C3146 1.338 . S
C3145 N3148 1.377 . S
C3145 H3165 0.930 . S
C3146 N3144 1.375 . S
C3146 C3145 1.338 . S
C3146 H3150 0.931 . S
C3147 N3144 1.313 . S
C3147 N3148 1.344 . S
C3147 H3151 0.930 . S
N3148 C3145 1.377 . S
N3148 C3147 1.344 . S
O3149 Co3141 2.055 . S
O3149 C3153 1.253 . S
H3150 C3146 0.931 . S
H3151 C3147 0.930 . S
O3152 Co3141 2.039 . S
O3152 C3142 1.265 . S
C3153 O3149 1.253 . S
C3153 O3154 1.227 . S
O3154 C3153 1.227 . S
N3155 Co3141 2.140 . S
N3155 C3158 1.346 . S
N3155 C3159 1.345 . S
C3156 C3157 1.387 . S
C3156 C3160 1.391 . S
C3157 C3156 1.387 . S
C3157 C3158 1.369 . S
C3157 H3166 0.929 . S
C3158 N3155 1.346 . S
C3158 C3157 1.369 . S
C3158 H3161 0.928 . S
C3159 N3155 1.345 . S
C3159 C3160 1.371 . S
C3159 H3162 0.931 . S
C3160 C3156 1.391 . S
C3160 C3159 1.371 . S
C3160 H3167 0.930 . S
H3161 C3158 0.928 . S
H3162 C3159 0.931 . S
H3163 C3139 0.930 . S
H3164 C3136 0.930 . S
H3165 C3145 0.930 . S
H3166 C3157 0.929 . S
H3167 C3160 0.930 . S
C3168 C3169 1.363 . S
C3168 C3174 1.379 1_565 S
C3168 N3176 1.356 . S
C3169 C3168 1.363 . S
C3169 C3175 1.363 . S
C3170 C3171 1.363 . S
C3170 C3175 1.379 1_545 S
C3170 N3177 1.356 . S
C3171 C3170 1.363 . S
C3171 C3174 1.363 . S
N3172 C3174 1.356 . S
N3172 H3184 0.984 . S
N3172 H3185 0.985 . S
N3173 C3175 1.356 . S
N3173 H3178 0.984 . S
N3173 H3179 0.985 . S
C3174 C3168 1.379 1_545 S
C3174 C3171 1.363 . S
C3174 N3172 1.356 . S
C3175 C3169 1.363 . S
C3175 C3170 1.379 1_565 S
C3175 N3173 1.356 . S
N3176 C3168 1.356 . S
N3176 H3182 0.984 . S
N3176 H3183 0.984 . S
N3177 C3170 1.356 . S
N3177 H3180 0.984 . S
N3177 H3181 0.985 . S
H3178 N3173 0.984 . S
H3179 N3173 0.985 . S
H3180 N3177 0.984 . S
H3181 N3177 0.985 . S
H3182 N3176 0.984 . S
H3183 N3176 0.984 . S
H3184 N3172 0.984 . S
H3185 N3172 0.985 . S
C3186 C3187 1.363 . S
C3186 C3192 1.379 1_655 S
C3186 N3194 1.356 . S
C3187 C3186 1.363 . S
C3187 C3193 1.363 . S
C3188 C3189 1.363 . S
C3188 C3193 1.379 1_455 S
C3188 N3195 1.356 . S
C3189 C3188 1.363 . S
C3189 C3192 1.363 . S
N3190 C3192 1.356 . S
N3190 H3202 0.984 . S
N3190 H3203 0.985 . S
N3191 C3193 1.356 . S
N3191 H3196 0.984 . S
N3191 H3197 0.985 . S
C3192 C3186 1.379 1_455 S
C3192 C3189 1.363 . S
C3192 N3190 1.356 . S
C3193 C3187 1.363 . S
C3193 C3188 1.379 1_655 S
C3193 N3191 1.356 . S
N3194 C3186 1.356 . S
N3194 H3200 0.984 . S
N3194 H3201 0.984 . S
N3195 C3188 1.356 . S
N3195 H3198 0.984 . S
N3195 H3199 0.985 . S
H3196 N3191 0.984 . S
H3197 N3191 0.985 . S
H3198 N3195 0.984 . S
H3199 N3195 0.985 . S
H3200 N3194 0.984 . S
H3201 N3194 0.984 . S
H3202 N3190 0.984 . S
H3203 N3190 0.985 . S
C3204 C3205 1.363 . S
C3204 C3210 1.379 . S
C3204 N3212 1.356 . S
C3205 C3204 1.363 . S
C3205 C3211 1.363 . S
C3206 C3207 1.363 . S
C3206 C3211 1.379 . S
C3206 N3213 1.356 . S
C3207 C3206 1.363 . S
C3207 C3210 1.363 . S
N3208 C3210 1.356 . S
N3208 H3220 0.984 . S
N3208 H3221 0.985 . S
N3209 C3211 1.356 . S
N3209 H3214 0.984 . S
N3209 H3215 0.985 . S
C3210 C3204 1.379 . S
C3210 C3207 1.363 . S
C3210 N3208 1.356 . S
C3211 C3205 1.363 . S
C3211 C3206 1.379 . S
C3211 N3209 1.356 . S
N3212 C3204 1.356 . S
N3212 H3218 0.984 . S
N3212 H3219 0.984 . S
N3213 C3206 1.356 . S
N3213 H3216 0.984 . S
N3213 H3217 0.985 . S
H3214 N3209 0.984 . S
H3215 N3209 0.985 . S
H3216 N3213 0.984 . S
H3217 N3213 0.985 . S
H3218 N3212 0.984 . S
H3219 N3212 0.984 . S
H3220 N3208 0.984 . S
H3221 N3208 0.985 . S
C3222 C3223 1.363 . S
C3222 C3228 1.379 . S
C3222 N3230 1.356 . S
C3223 C3222 1.363 . S
C3223 C3229 1.363 . S
C3224 C3225 1.363 . S
C3224 C3229 1.379 . S
C3224 N3231 1.356 . S
C3225 C3224 1.363 . S
C3225 C3228 1.363 . S
N3226 C3228 1.356 . S
N3226 H3238 0.984 . S
N3226 H3239 0.985 . S
N3227 C3229 1.356 . S
N3227 H3232 0.984 . S
N3227 H3233 0.985 . S
C3228 C3222 1.379 . S
C3228 C3225 1.363 . S
C3228 N3226 1.356 . S
C3229 C3223 1.363 . S
C3229 C3224 1.379 . S
C3229 N3227 1.356 . S
N3230 C3222 1.356 . S
N3230 H3236 0.984 . S
N3230 H3237 0.984 . S
N3231 C3224 1.356 . S
N3231 H3234 0.984 . S
N3231 H3235 0.985 . S
H3232 N3227 0.984 . S
H3233 N3227 0.985 . S
H3234 N3231 0.984 . S
H3235 N3231 0.985 . S
H3236 N3230 0.984 . S
H3237 N3230 0.984 . S
H3238 N3226 0.984 . S
H3239 N3226 0.985 . S
C3240 C3241 1.363 . S
C3240 C3246 1.379 . S
C3240 N3248 1.356 . S
C3241 C3240 1.363 . S
C3241 C3247 1.363 . S
C3242 C3243 1.363 . S
C3242 C3247 1.379 . S
C3242 N3249 1.356 . S
C3243 C3242 1.363 . S
C3243 C3246 1.363 . S
N3244 C3246 1.356 . S
N3244 H3256 0.984 . S
N3244 H3257 0.985 . S
N3245 C3247 1.356 . S
N3245 H3250 0.984 . S
N3245 H3251 0.985 . S
C3246 C3240 1.379 . S
C3246 C3243 1.363 . S
C3246 N3244 1.356 . S
C3247 C3241 1.363 . S
C3247 C3242 1.379 . S
C3247 N3245 1.356 . S
N3248 C3240 1.356 . S
N3248 H3254 0.984 . S
N3248 H3255 0.984 . S
N3249 C3242 1.356 . S
N3249 H3252 0.984 . S
N3249 H3253 0.985 . S
H3250 N3245 0.984 . S
H3251 N3245 0.985 . S
H3252 N3249 0.984 . S
H3253 N3249 0.985 . S
H3254 N3248 0.984 . S
H3255 N3248 0.984 . S
H3256 N3244 0.984 . S
H3257 N3244 0.985 . S
C3258 C3259 1.363 . S
C3258 C3264 1.379 . S
C3258 N3266 1.356 . S
C3259 C3258 1.363 . S
C3259 C3265 1.363 . S
C3260 C3261 1.363 . S
C3260 C3265 1.379 . S
C3260 N3267 1.356 . S
C3261 C3260 1.363 . S
C3261 C3264 1.363 . S
N3262 C3264 1.356 . S
N3262 H3274 0.984 . S
N3262 H3275 0.985 . S
N3263 C3265 1.356 . S
N3263 H3268 0.984 . S
N3263 H3269 0.985 . S
C3264 C3258 1.379 . S
C3264 C3261 1.363 . S
C3264 N3262 1.356 . S
C3265 C3259 1.363 . S
C3265 C3260 1.379 . S
C3265 N3263 1.356 . S
N3266 C3258 1.356 . S
N3266 H3272 0.984 . S
N3266 H3273 0.984 . S
N3267 C3260 1.356 . S
N3267 H3270 0.984 . S
N3267 H3271 0.985 . S
H3268 N3263 0.984 . S
H3269 N3263 0.985 . S
H3270 N3267 0.984 . S
H3271 N3267 0.985 . S
H3272 N3266 0.984 . S
H3273 N3266 0.984 . S
H3274 N3262 0.984 . S
H3275 N3262 0.985 . S
C3276 C3277 1.363 . S
C3276 C3282 1.379 1_565 S
C3276 N3284 1.356 . S
C3277 C3276 1.363 . S
C3277 C3283 1.363 . S
C3278 C3279 1.363 . S
C3278 C3283 1.379 1_545 S
C3278 N3285 1.356 . S
C3279 C3278 1.363 . S
C3279 C3282 1.363 . S
N3280 C3282 1.356 . S
N3280 H3292 0.984 . S
N3280 H3293 0.985 . S
N3281 C3283 1.356 . S
N3281 H3286 0.984 . S
N3281 H3287 0.985 . S
C3282 C3276 1.379 1_545 S
C3282 C3279 1.363 . S
C3282 N3280 1.356 . S
C3283 C3277 1.363 . S
C3283 C3278 1.379 1_565 S
C3283 N3281 1.356 . S
N3284 C3276 1.356 . S
N3284 H3290 0.984 . S
N3284 H3291 0.984 . S
N3285 C3278 1.356 . S
N3285 H3288 0.984 . S
N3285 H3289 0.985 . S
H3286 N3281 0.984 . S
H3287 N3281 0.985 . S
H3288 N3285 0.984 . S
H3289 N3285 0.985 . S
H3290 N3284 0.984 . S
H3291 N3284 0.984 . S
H3292 N3280 0.984 . S
H3293 N3280 0.985 . S
C3294 C3295 1.363 . S
C3294 C3300 1.379 1_655 S
C3294 N3302 1.356 . S
C3295 C3294 1.363 . S
C3295 C3301 1.363 . S
C3296 C3297 1.363 . S
C3296 C3301 1.379 1_455 S
C3296 N3303 1.356 . S
C3297 C3296 1.363 . S
C3297 C3300 1.363 . S
N3298 C3300 1.356 . S
N3298 H3310 0.984 . S
N3298 H3311 0.985 . S
N3299 C3301 1.356 . S
N3299 H3304 0.984 . S
N3299 H3305 0.985 . S
C3300 C3294 1.379 1_455 S
C3300 C3297 1.363 . S
C3300 N3298 1.356 . S
C3301 C3295 1.363 . S
C3301 C3296 1.379 1_655 S
C3301 N3299 1.356 . S
N3302 C3294 1.356 . S
N3302 H3308 0.984 . S
N3302 H3309 0.984 . S
N3303 C3296 1.356 . S
N3303 H3306 0.984 . S
N3303 H3307 0.985 . S
H3304 N3299 0.984 . S
H3305 N3299 0.985 . S
H3306 N3303 0.984 . S
H3307 N3303 0.985 . S
H3308 N3302 0.984 . S
H3309 N3302 0.984 . S
H3310 N3298 0.984 . S
H3311 N3298 0.985 . S
C3312 C3313 1.363 . S
C3312 C3318 1.379 1_554 S
C3312 N3320 1.356 . S
C3313 C3312 1.363 . S
C3313 C3319 1.363 . S
C3314 C3315 1.363 . S
C3314 C3319 1.379 1_556 S
C3314 N3321 1.356 . S
C3315 C3314 1.363 . S
C3315 C3318 1.363 . S
N3316 C3318 1.356 . S
N3316 H3328 0.984 . S
N3316 H3329 0.985 . S
N3317 C3319 1.356 . S
N3317 H3322 0.984 . S
N3317 H3323 0.985 . S
C3318 C3312 1.379 1_556 S
C3318 C3315 1.363 . S
C3318 N3316 1.356 . S
C3319 C3313 1.363 . S
C3319 C3314 1.379 1_554 S
C3319 N3317 1.356 . S
N3320 C3312 1.356 . S
N3320 H3326 0.984 . S
N3320 H3327 0.984 . S
N3321 C3314 1.356 . S
N3321 H3324 0.984 . S
N3321 H3325 0.985 . S
H3322 N3317 0.984 . S
H3323 N3317 0.985 . S
H3324 N3321 0.984 . S
H3325 N3321 0.985 . S
H3326 N3320 0.984 . S
H3327 N3320 0.984 . S
H3328 N3316 0.984 . S
H3329 N3316 0.985 . S
C3330 C3331 1.363 . S
C3330 C3336 1.379 . S
C3330 N3338 1.356 . S
C3331 C3330 1.363 . S
C3331 C3337 1.363 . S
C3332 C3333 1.363 . S
C3332 C3337 1.379 . S
C3332 N3339 1.356 . S
C3333 C3332 1.363 . S
C3333 C3336 1.363 . S
N3334 C3336 1.356 . S
N3334 H3346 0.984 . S
N3334 H3347 0.985 . S
N3335 C3337 1.356 . S
N3335 H3340 0.984 . S
N3335 H3341 0.985 . S
C3336 C3330 1.379 . S
C3336 C3333 1.363 . S
C3336 N3334 1.356 . S
C3337 C3331 1.363 . S
C3337 C3332 1.379 . S
C3337 N3335 1.356 . S
N3338 C3330 1.356 . S
N3338 H3344 0.984 . S
N3338 H3345 0.984 . S
N3339 C3332 1.356 . S
N3339 H3342 0.984 . S
N3339 H3343 0.985 . S
H3340 N3335 0.984 . S
H3341 N3335 0.985 . S
H3342 N3339 0.984 . S
H3343 N3339 0.985 . S
H3344 N3338 0.984 . S
H3345 N3338 0.984 . S
H3346 N3334 0.984 . S
H3347 N3334 0.985 . S
C3348 C3349 1.363 . S
C3348 C3354 1.379 . S
C3348 N3356 1.356 . S
C3349 C3348 1.363 . S
C3349 C3355 1.363 . S
C3350 C3351 1.363 . S
C3350 C3355 1.379 . S
C3350 N3357 1.356 . S
C3351 C3350 1.363 . S
C3351 C3354 1.363 . S
N3352 C3354 1.356 . S
N3352 H3364 0.984 . S
N3352 H3365 0.985 . S
N3353 C3355 1.356 . S
N3353 H3358 0.984 . S
N3353 H3359 0.985 . S
C3354 C3348 1.379 . S
C3354 C3351 1.363 . S
C3354 N3352 1.356 . S
C3355 C3349 1.363 . S
C3355 C3350 1.379 . S
C3355 N3353 1.356 . S
N3356 C3348 1.356 . S
N3356 H3362 0.984 . S
N3356 H3363 0.984 . S
N3357 C3350 1.356 . S
N3357 H3360 0.984 . S
N3357 H3361 0.985 . S
H3358 N3353 0.984 . S
H3359 N3353 0.985 . S
H3360 N3357 0.984 . S
H3361 N3357 0.985 . S
H3362 N3356 0.984 . S
H3363 N3356 0.984 . S
H3364 N3352 0.984 . S
H3365 N3352 0.985 . S
C3366 C3367 1.363 . S
C3366 C3372 1.379 . S
C3366 N3374 1.356 . S
C3367 C3366 1.363 . S
C3367 C3373 1.363 . S
C3368 C3369 1.363 . S
C3368 C3373 1.379 . S
C3368 N3375 1.356 . S
C3369 C3368 1.363 . S
C3369 C3372 1.363 . S
N3370 C3372 1.356 . S
N3370 H3382 0.984 . S
N3370 H3383 0.985 . S
N3371 C3373 1.356 . S
N3371 H3376 0.984 . S
N3371 H3377 0.985 . S
C3372 C3366 1.379 . S
C3372 C3369 1.363 . S
C3372 N3370 1.356 . S
C3373 C3367 1.363 . S
C3373 C3368 1.379 . S
C3373 N3371 1.356 . S
N3374 C3366 1.356 . S
N3374 H3380 0.984 . S
N3374 H3381 0.984 . S
N3375 C3368 1.356 . S
N3375 H3378 0.984 . S
N3375 H3379 0.985 . S
H3376 N3371 0.984 . S
H3377 N3371 0.985 . S
H3378 N3375 0.984 . S
H3379 N3375 0.985 . S
H3380 N3374 0.984 . S
H3381 N3374 0.984 . S
H3382 N3370 0.984 . S
H3383 N3370 0.985 . S
C3384 C3385 1.363 . S
C3384 C3390 1.379 . S
C3384 N3392 1.356 . S
C3385 C3384 1.363 . S
C3385 C3391 1.363 . S
C3386 C3387 1.363 . S
C3386 C3391 1.379 . S
C3386 N3393 1.356 . S
C3387 C3386 1.363 . S
C3387 C3390 1.363 . S
N3388 C3390 1.356 . S
N3388 H3400 0.984 . S
N3388 H3401 0.985 . S
N3389 C3391 1.356 . S
N3389 H3394 0.984 . S
N3389 H3395 0.985 . S
C3390 C3384 1.379 . S
C3390 C3387 1.363 . S
C3390 N3388 1.356 . S
C3391 C3385 1.363 . S
C3391 C3386 1.379 . S
C3391 N3389 1.356 . S
N3392 C3384 1.356 . S
N3392 H3398 0.984 . S
N3392 H3399 0.984 . S
N3393 C3386 1.356 . S
N3393 H3396 0.984 . S
N3393 H3397 0.985 . S
H3394 N3389 0.984 . S
H3395 N3389 0.985 . S
H3396 N3393 0.984 . S
H3397 N3393 0.985 . S
H3398 N3392 0.984 . S
H3399 N3392 0.984 . S
H3400 N3388 0.984 . S
H3401 N3388 0.985 . S
C3402 C3403 1.363 . S
C3402 C3408 1.379 . S
C3402 N3410 1.356 . S
C3403 C3402 1.363 . S
C3403 C3409 1.363 . S
C3404 C3405 1.363 . S
C3404 C3409 1.379 . S
C3404 N3411 1.356 . S
C3405 C3404 1.363 . S
C3405 C3408 1.363 . S
N3406 C3408 1.356 . S
N3406 H3418 0.984 . S
N3406 H3419 0.985 . S
N3407 C3409 1.356 . S
N3407 H3412 0.984 . S
N3407 H3413 0.985 . S
C3408 C3402 1.379 . S
C3408 C3405 1.363 . S
C3408 N3406 1.356 . S
C3409 C3403 1.363 . S
C3409 C3404 1.379 . S
C3409 N3407 1.356 . S
N3410 C3402 1.356 . S
N3410 H3416 0.984 . S
N3410 H3417 0.984 . S
N3411 C3404 1.356 . S
N3411 H3414 0.984 . S
N3411 H3415 0.985 . S
H3412 N3407 0.984 . S
H3413 N3407 0.985 . S
H3414 N3411 0.984 . S
H3415 N3411 0.985 . S
H3416 N3410 0.984 . S
H3417 N3410 0.984 . S
H3418 N3406 0.984 . S
H3419 N3406 0.985 . S
C3420 C3421 1.363 . S
C3420 C3426 1.379 . S
C3420 N3428 1.356 . S
C3421 C3420 1.363 . S
C3421 C3427 1.363 . S
C3422 C3423 1.363 . S
C3422 C3427 1.379 . S
C3422 N3429 1.356 . S
C3423 C3422 1.363 . S
C3423 C3426 1.363 . S
N3424 C3426 1.356 . S
N3424 H3436 0.984 . S
N3424 H3437 0.985 . S
N3425 C3427 1.356 . S
N3425 H3430 0.984 . S
N3425 H3431 0.985 . S
C3426 C3420 1.379 . S
C3426 C3423 1.363 . S
C3426 N3424 1.356 . S
C3427 C3421 1.363 . S
C3427 C3422 1.379 . S
C3427 N3425 1.356 . S
N3428 C3420 1.356 . S
N3428 H3434 0.984 . S
N3428 H3435 0.984 . S
N3429 C3422 1.356 . S
N3429 H3432 0.984 . S
N3429 H3433 0.985 . S
H3430 N3425 0.984 . S
H3431 N3425 0.985 . S
H3432 N3429 0.984 . S
H3433 N3429 0.985 . S
H3434 N3428 0.984 . S
H3435 N3428 0.984 . S
H3436 N3424 0.984 . S
H3437 N3424 0.985 . S
C3438 C3439 1.363 . S
C3438 C3444 1.379 1_554 S
C3438 N3446 1.356 . S
C3439 C3438 1.363 . S
C3439 C3445 1.363 . S
C3440 C3441 1.363 . S
C3440 C3445 1.379 1_556 S
C3440 N3447 1.356 . S
C3441 C3440 1.363 . S
C3441 C3444 1.363 . S
N3442 C3444 1.356 . S
N3442 H3454 0.984 . S
N3442 H3455 0.985 . S
N3443 C3445 1.356 . S
N3443 H3448 0.984 . S
N3443 H3449 0.985 . S
C3444 C3438 1.379 1_556 S
C3444 C3441 1.363 . S
C3444 N3442 1.356 . S
C3445 C3439 1.363 . S
C3445 C3440 1.379 1_554 S
C3445 N3443 1.356 . S
N3446 C3438 1.356 . S
N3446 H3452 0.984 . S
N3446 H3453 0.984 . S
N3447 C3440 1.356 . S
N3447 H3450 0.984 . S
N3447 H3451 0.985 . S
H3448 N3443 0.984 . S
H3449 N3443 0.985 . S
H3450 N3447 0.984 . S
H3451 N3447 0.985 . S
H3452 N3446 0.984 . S
H3453 N3446 0.984 . S
H3454 N3442 0.984 . S
H3455 N3442 0.985 . S
C3456 C3457 1.363 . S
C3456 C3462 1.379 1_455 S
C3456 N3464 1.356 . S
C3457 C3456 1.363 . S
C3457 C3463 1.363 . S
C3458 C3459 1.363 . S
C3458 C3463 1.379 1_655 S
C3458 N3465 1.356 . S
C3459 C3458 1.363 . S
C3459 C3462 1.363 . S
N3460 C3462 1.356 . S
N3460 H3472 0.984 . S
N3460 H3473 0.985 . S
N3461 C3463 1.356 . S
N3461 H3466 0.984 . S
N3461 H3467 0.985 . S
C3462 C3456 1.379 1_655 S
C3462 C3459 1.363 . S
C3462 N3460 1.356 . S
C3463 C3457 1.363 . S
C3463 C3458 1.379 1_455 S
C3463 N3461 1.356 . S
N3464 C3456 1.356 . S
N3464 H3470 0.984 . S
N3464 H3471 0.984 . S
N3465 C3458 1.356 . S
N3465 H3468 0.984 . S
N3465 H3469 0.985 . S
H3466 N3461 0.984 . S
H3467 N3461 0.985 . S
H3468 N3465 0.984 . S
H3469 N3465 0.985 . S
H3470 N3464 0.984 . S
H3471 N3464 0.984 . S
H3472 N3460 0.984 . S
H3473 N3460 0.985 . S
C3474 C3475 1.363 . S
C3474 C3480 1.379 . S
C3474 N3482 1.356 . S
C3475 C3474 1.363 . S
C3475 C3481 1.363 . S
C3476 C3477 1.363 . S
C3476 C3481 1.379 . S
C3476 N3483 1.356 . S
C3477 C3476 1.363 . S
C3477 C3480 1.363 . S
N3478 C3480 1.356 . S
N3478 H3490 0.984 . S
N3478 H3491 0.985 . S
N3479 C3481 1.356 . S
N3479 H3484 0.984 . S
N3479 H3485 0.985 . S
C3480 C3474 1.379 . S
C3480 C3477 1.363 . S
C3480 N3478 1.356 . S
C3481 C3475 1.363 . S
C3481 C3476 1.379 . S
C3481 N3479 1.356 . S
N3482 C3474 1.356 . S
N3482 H3488 0.984 . S
N3482 H3489 0.984 . S
N3483 C3476 1.356 . S
N3483 H3486 0.984 . S
N3483 H3487 0.985 . S
H3484 N3479 0.984 . S
H3485 N3479 0.985 . S
H3486 N3483 0.984 . S
H3487 N3483 0.985 . S
H3488 N3482 0.984 . S
H3489 N3482 0.984 . S
H3490 N3478 0.984 . S
H3491 N3478 0.985 . S
C3492 C3493 1.363 . S
C3492 C3498 1.379 . S
C3492 N3500 1.356 . S
C3493 C3492 1.363 . S
C3493 C3499 1.363 . S
C3494 C3495 1.363 . S
C3494 C3499 1.379 . S
C3494 N3501 1.356 . S
C3495 C3494 1.363 . S
C3495 C3498 1.363 . S
N3496 C3498 1.356 . S
N3496 H3508 0.984 . S
N3496 H3509 0.985 . S
N3497 C3499 1.356 . S
N3497 H3502 0.984 . S
N3497 H3503 0.985 . S
C3498 C3492 1.379 . S
C3498 C3495 1.363 . S
C3498 N3496 1.356 . S
C3499 C3493 1.363 . S
C3499 C3494 1.379 . S
C3499 N3497 1.356 . S
N3500 C3492 1.356 . S
N3500 H3506 0.984 . S
N3500 H3507 0.984 . S
N3501 C3494 1.356 . S
N3501 H3504 0.984 . S
N3501 H3505 0.985 . S
H3502 N3497 0.984 . S
H3503 N3497 0.985 . S
H3504 N3501 0.984 . S
H3505 N3501 0.985 . S
H3506 N3500 0.984 . S
H3507 N3500 0.984 . S
H3508 N3496 0.984 . S
H3509 N3496 0.985 . S
C3510 C3511 1.363 . S
C3510 C3516 1.379 . S
C3510 N3518 1.356 . S
C3511 C3510 1.363 . S
C3511 C3517 1.363 . S
C3512 C3513 1.363 . S
C3512 C3517 1.379 . S
C3512 N3519 1.356 . S
C3513 C3512 1.363 . S
C3513 C3516 1.363 . S
N3514 C3516 1.356 . S
N3514 H3526 0.984 . S
N3514 H3527 0.985 . S
N3515 C3517 1.356 . S
N3515 H3520 0.984 . S
N3515 H3521 0.985 . S
C3516 C3510 1.379 . S
C3516 C3513 1.363 . S
C3516 N3514 1.356 . S
C3517 C3511 1.363 . S
C3517 C3512 1.379 . S
C3517 N3515 1.356 . S
N3518 C3510 1.356 . S
N3518 H3524 0.984 . S
N3518 H3525 0.984 . S
N3519 C3512 1.356 . S
N3519 H3522 0.984 . S
N3519 H3523 0.985 . S
H3520 N3515 0.984 . S
H3521 N3515 0.985 . S
H3522 N3519 0.984 . S
H3523 N3519 0.985 . S
H3524 N3518 0.984 . S
H3525 N3518 0.984 . S
H3526 N3514 0.984 . S
H3527 N3514 0.985 . S
C3528 C3529 1.363 . S
C3528 C3534 1.379 . S
C3528 N3536 1.356 . S
C3529 C3528 1.363 . S
C3529 C3535 1.363 . S
C3530 C3531 1.363 . S
C3530 C3535 1.379 . S
C3530 N3537 1.356 . S
C3531 C3530 1.363 . S
C3531 C3534 1.363 . S
N3532 C3534 1.356 . S
N3532 H3544 0.984 . S
N3532 H3545 0.985 . S
N3533 C3535 1.356 . S
N3533 H3538 0.984 . S
N3533 H3539 0.985 . S
C3534 C3528 1.379 . S
C3534 C3531 1.363 . S
C3534 N3532 1.356 . S
C3535 C3529 1.363 . S
C3535 C3530 1.379 . S
C3535 N3533 1.356 . S
N3536 C3528 1.356 . S
N3536 H3542 0.984 . S
N3536 H3543 0.984 . S
N3537 C3530 1.356 . S
N3537 H3540 0.984 . S
N3537 H3541 0.985 . S
H3538 N3533 0.984 . S
H3539 N3533 0.985 . S
H3540 N3537 0.984 . S
H3541 N3537 0.985 . S
H3542 N3536 0.984 . S
H3543 N3536 0.984 . S
H3544 N3532 0.984 . S
H3545 N3532 0.985 . S
C3546 C3547 1.363 . S
C3546 C3552 1.379 . S
C3546 N3554 1.356 . S
C3547 C3546 1.363 . S
C3547 C3553 1.363 . S
C3548 C3549 1.363 . S
C3548 C3553 1.379 . S
C3548 N3555 1.356 . S
C3549 C3548 1.363 . S
C3549 C3552 1.363 . S
N3550 C3552 1.356 . S
N3550 H3562 0.984 . S
N3550 H3563 0.985 . S
N3551 C3553 1.356 . S
N3551 H3556 0.984 . S
N3551 H3557 0.985 . S
C3552 C3546 1.379 . S
C3552 C3549 1.363 . S
C3552 N3550 1.356 . S
C3553 C3547 1.363 . S
C3553 C3548 1.379 . S
C3553 N3551 1.356 . S
N3554 C3546 1.356 . S
N3554 H3560 0.984 . S
N3554 H3561 0.984 . S
N3555 C3548 1.356 . S
N3555 H3558 0.984 . S
N3555 H3559 0.985 . S
H3556 N3551 0.984 . S
H3557 N3551 0.985 . S
H3558 N3555 0.984 . S
H3559 N3555 0.985 . S
H3560 N3554 0.984 . S
H3561 N3554 0.984 . S
H3562 N3550 0.984 . S
H3563 N3550 0.985 . S
C3564 C3565 1.363 . S
C3564 C3570 1.379 1_545 S
C3564 N3572 1.356 . S
C3565 C3564 1.363 . S
C3565 C3571 1.363 . S
C3566 C3567 1.363 . S
C3566 C3571 1.379 1_565 S
C3566 N3573 1.356 . S
C3567 C3566 1.363 . S
C3567 C3570 1.363 . S
N3568 C3570 1.356 . S
N3568 H3580 0.984 . S
N3568 H3581 0.985 . S
N3569 C3571 1.356 . S
N3569 H3574 0.984 . S
N3569 H3575 0.985 . S
C3570 C3564 1.379 1_565 S
C3570 C3567 1.363 . S
C3570 N3568 1.356 . S
C3571 C3565 1.363 . S
C3571 C3566 1.379 1_545 S
C3571 N3569 1.356 . S
N3572 C3564 1.356 . S
N3572 H3578 0.984 . S
N3572 H3579 0.984 . S
N3573 C3566 1.356 . S
N3573 H3576 0.984 . S
N3573 H3577 0.985 . S
H3574 N3569 0.984 . S
H3575 N3569 0.985 . S
H3576 N3573 0.984 . S
H3577 N3573 0.985 . S
H3578 N3572 0.984 . S
H3579 N3572 0.984 . S
H3580 N3568 0.984 . S
H3581 N3568 0.985 . S
C3582 C3583 1.363 . S
C3582 C3588 1.379 1_655 S
C3582 N3590 1.356 . S
C3583 C3582 1.363 . S
C3583 C3589 1.363 . S
C3584 C3585 1.363 . S
C3584 C3589 1.379 1_455 S
C3584 N3591 1.356 . S
C3585 C3584 1.363 . S
C3585 C3588 1.363 . S
N3586 C3588 1.356 . S
N3586 H3598 0.984 . S
N3586 H3599 0.985 . S
N3587 C3589 1.356 . S
N3587 H3592 0.984 . S
N3587 H3593 0.985 . S
C3588 C3582 1.379 1_455 S
C3588 C3585 1.363 . S
C3588 N3586 1.356 . S
C3589 C3583 1.363 . S
C3589 C3584 1.379 1_655 S
C3589 N3587 1.356 . S
N3590 C3582 1.356 . S
N3590 H3596 0.984 . S
N3590 H3597 0.984 . S
N3591 C3584 1.356 . S
N3591 H3594 0.984 . S
N3591 H3595 0.985 . S
H3592 N3587 0.984 . S
H3593 N3587 0.985 . S
H3594 N3591 0.984 . S
H3595 N3591 0.985 . S
H3596 N3590 0.984 . S
H3597 N3590 0.984 . S
H3598 N3586 0.984 . S
H3599 N3586 0.985 . S
C3600 C3601 1.363 . S
C3600 C3606 1.379 . S
C3600 N3608 1.356 . S
C3601 C3600 1.363 . S
C3601 C3607 1.363 . S
C3602 C3603 1.363 . S
C3602 C3607 1.379 . S
C3602 N3609 1.356 . S
C3603 C3602 1.363 . S
C3603 C3606 1.363 . S
N3604 C3606 1.356 . S
N3604 H3616 0.984 . S
N3604 H3617 0.985 . S
N3605 C3607 1.356 . S
N3605 H3610 0.984 . S
N3605 H3611 0.985 . S
C3606 C3600 1.379 . S
C3606 C3603 1.363 . S
C3606 N3604 1.356 . S
C3607 C3601 1.363 . S
C3607 C3602 1.379 . S
C3607 N3605 1.356 . S
N3608 C3600 1.356 . S
N3608 H3614 0.984 . S
N3608 H3615 0.984 . S
N3609 C3602 1.356 . S
N3609 H3612 0.984 . S
N3609 H3613 0.985 . S
H3610 N3605 0.984 . S
H3611 N3605 0.985 . S
H3612 N3609 0.984 . S
H3613 N3609 0.985 . S
H3614 N3608 0.984 . S
H3615 N3608 0.984 . S
H3616 N3604 0.984 . S
H3617 N3604 0.985 . S
C3618 C3619 1.363 . S
C3618 C3624 1.379 . S
C3618 N3626 1.356 . S
C3619 C3618 1.363 . S
C3619 C3625 1.363 . S
C3620 C3621 1.363 . S
C3620 C3625 1.379 . S
C3620 N3627 1.356 . S
C3621 C3620 1.363 . S
C3621 C3624 1.363 . S
N3622 C3624 1.356 . S
N3622 H3634 0.984 . S
N3622 H3635 0.985 . S
N3623 C3625 1.356 . S
N3623 H3628 0.984 . S
N3623 H3629 0.985 . S
C3624 C3618 1.379 . S
C3624 C3621 1.363 . S
C3624 N3622 1.356 . S
C3625 C3619 1.363 . S
C3625 C3620 1.379 . S
C3625 N3623 1.356 . S
N3626 C3618 1.356 . S
N3626 H3632 0.984 . S
N3626 H3633 0.984 . S
N3627 C3620 1.356 . S
N3627 H3630 0.984 . S
N3627 H3631 0.985 . S
H3628 N3623 0.984 . S
H3629 N3623 0.985 . S
H3630 N3627 0.984 . S
H3631 N3627 0.985 . S
H3632 N3626 0.984 . S
H3633 N3626 0.984 . S
H3634 N3622 0.984 . S
H3635 N3622 0.985 . S
C3636 C3637 1.363 . S
C3636 C3642 1.379 . S
C3636 N3644 1.356 . S
C3637 C3636 1.363 . S
C3637 C3643 1.363 . S
C3638 C3639 1.363 . S
C3638 C3643 1.379 . S
C3638 N3645 1.356 . S
C3639 C3638 1.363 . S
C3639 C3642 1.363 . S
N3640 C3642 1.356 . S
N3640 H3652 0.984 . S
N3640 H3653 0.985 . S
N3641 C3643 1.356 . S
N3641 H3646 0.984 . S
N3641 H3647 0.985 . S
C3642 C3636 1.379 . S
C3642 C3639 1.363 . S
C3642 N3640 1.356 . S
C3643 C3637 1.363 . S
C3643 C3638 1.379 . S
C3643 N3641 1.356 . S
N3644 C3636 1.356 . S
N3644 H3650 0.984 . S
N3644 H3651 0.984 . S
N3645 C3638 1.356 . S
N3645 H3648 0.984 . S
N3645 H3649 0.985 . S
H3646 N3641 0.984 . S
H3647 N3641 0.985 . S
H3648 N3645 0.984 . S
H3649 N3645 0.985 . S
H3650 N3644 0.984 . S
H3651 N3644 0.984 . S
H3652 N3640 0.984 . S
H3653 N3640 0.985 . S
C3654 C3655 1.363 . S
C3654 C3660 1.379 . S
C3654 N3662 1.356 . S
C3655 C3654 1.363 . S
C3655 C3661 1.363 . S
C3656 C3657 1.363 . S
C3656 C3661 1.379 . S
C3656 N3663 1.356 . S
C3657 C3656 1.363 . S
C3657 C3660 1.363 . S
N3658 C3660 1.356 . S
N3658 H3670 0.984 . S
N3658 H3671 0.985 . S
N3659 C3661 1.356 . S
N3659 H3664 0.984 . S
N3659 H3665 0.985 . S
C3660 C3654 1.379 . S
C3660 C3657 1.363 . S
C3660 N3658 1.356 . S
C3661 C3655 1.363 . S
C3661 C3656 1.379 . S
C3661 N3659 1.356 . S
N3662 C3654 1.356 . S
N3662 H3668 0.984 . S
N3662 H3669 0.984 . S
N3663 C3656 1.356 . S
N3663 H3666 0.984 . S
N3663 H3667 0.985 . S
H3664 N3659 0.984 . S
H3665 N3659 0.985 . S
H3666 N3663 0.984 . S
H3667 N3663 0.985 . S
H3668 N3662 0.984 . S
H3669 N3662 0.984 . S
H3670 N3658 0.984 . S
H3671 N3658 0.985 . S
C3672 C3673 1.363 . S
C3672 C3678 1.379 1_565 S
C3672 N3680 1.356 . S
C3673 C3672 1.363 . S
C3673 C3679 1.363 . S
C3674 C3675 1.363 . S
C3674 C3679 1.379 1_545 S
C3674 N3681 1.356 . S
C3675 C3674 1.363 . S
C3675 C3678 1.363 . S
N3676 C3678 1.356 . S
N3676 H3688 0.984 . S
N3676 H3689 0.985 . S
N3677 C3679 1.356 . S
N3677 H3682 0.984 . S
N3677 H3683 0.985 . S
C3678 C3672 1.379 1_545 S
C3678 C3675 1.363 . S
C3678 N3676 1.356 . S
C3679 C3673 1.363 . S
C3679 C3674 1.379 1_565 S
C3679 N3677 1.356 . S
N3680 C3672 1.356 . S
N3680 H3686 0.984 . S
N3680 H3687 0.984 . S
N3681 C3674 1.356 . S
N3681 H3684 0.984 . S
N3681 H3685 0.985 . S
H3682 N3677 0.984 . S
H3683 N3677 0.985 . S
H3684 N3681 0.984 . S
H3685 N3681 0.985 . S
H3686 N3680 0.984 . S
H3687 N3680 0.984 . S
H3688 N3676 0.984 . S
H3689 N3676 0.985 . S
C3690 C3691 1.363 . S
C3690 C3696 1.379 1_655 S
C3690 N3698 1.356 . S
C3691 C3690 1.363 . S
C3691 C3697 1.363 . S
C3692 C3693 1.363 . S
C3692 C3697 1.379 1_455 S
C3692 N3699 1.356 . S
C3693 C3692 1.363 . S
C3693 C3696 1.363 . S
N3694 C3696 1.356 . S
N3694 H3706 0.984 . S
N3694 H3707 0.985 . S
N3695 C3697 1.356 . S
N3695 H3700 0.984 . S
N3695 H3701 0.985 . S
C3696 C3690 1.379 1_455 S
C3696 C3693 1.363 . S
C3696 N3694 1.356 . S
C3697 C3691 1.363 . S
C3697 C3692 1.379 1_655 S
C3697 N3695 1.356 . S
N3698 C3690 1.356 . S
N3698 H3704 0.984 . S
N3698 H3705 0.984 . S
N3699 C3692 1.356 . S
N3699 H3702 0.984 . S
N3699 H3703 0.985 . S
H3700 N3695 0.984 . S
H3701 N3695 0.985 . S
H3702 N3699 0.984 . S
H3703 N3699 0.985 . S
H3704 N3698 0.984 . S
H3705 N3698 0.984 . S
H3706 N3694 0.984 . S
H3707 N3694 0.985 . S
C3708 C3709 1.363 . S
C3708 C3714 1.379 1_554 S
C3708 N3716 1.356 . S
C3709 C3708 1.363 . S
C3709 C3715 1.363 . S
C3710 C3711 1.363 . S
C3710 C3715 1.379 1_556 S
C3710 N3717 1.356 . S
C3711 C3710 1.363 . S
C3711 C3714 1.363 . S
N3712 C3714 1.356 . S
N3712 H3724 0.984 . S
N3712 H3725 0.985 . S
N3713 C3715 1.356 . S
N3713 H3718 0.984 . S
N3713 H3719 0.985 . S
C3714 C3708 1.379 1_556 S
C3714 C3711 1.363 . S
C3714 N3712 1.356 . S
C3715 C3709 1.363 . S
C3715 C3710 1.379 1_554 S
C3715 N3713 1.356 . S
N3716 C3708 1.356 . S
N3716 H3722 0.984 . S
N3716 H3723 0.984 . S
N3717 C3710 1.356 . S
N3717 H3720 0.984 . S
N3717 H3721 0.985 . S
H3718 N3713 0.984 . S
H3719 N3713 0.985 . S
H3720 N3717 0.984 . S
H3721 N3717 0.985 . S
H3722 N3716 0.984 . S
H3723 N3716 0.984 . S
H3724 N3712 0.984 . S
H3725 N3712 0.985 . S
C3726 C3727 1.363 . S
C3726 C3732 1.379 . S
C3726 N3734 1.356 . S
C3727 C3726 1.363 . S
C3727 C3733 1.363 . S
C3728 C3729 1.363 . S
C3728 C3733 1.379 . S
C3728 N3735 1.356 . S
C3729 C3728 1.363 . S
C3729 C3732 1.363 . S
N3730 C3732 1.356 . S
N3730 H3742 0.984 . S
N3730 H3743 0.985 . S
N3731 C3733 1.356 . S
N3731 H3736 0.984 . S
N3731 H3737 0.985 . S
C3732 C3726 1.379 . S
C3732 C3729 1.363 . S
C3732 N3730 1.356 . S
C3733 C3727 1.363 . S
C3733 C3728 1.379 . S
C3733 N3731 1.356 . S
N3734 C3726 1.356 . S
N3734 H3740 0.984 . S
N3734 H3741 0.984 . S
N3735 C3728 1.356 . S
N3735 H3738 0.984 . S
N3735 H3739 0.985 . S
H3736 N3731 0.984 . S
H3737 N3731 0.985 . S
H3738 N3735 0.984 . S
H3739 N3735 0.985 . S
H3740 N3734 0.984 . S
H3741 N3734 0.984 . S
H3742 N3730 0.984 . S
H3743 N3730 0.985 . S
C3744 C3745 1.363 . S
C3744 C3750 1.379 . S
C3744 N3752 1.356 . S
C3745 C3744 1.363 . S
C3745 C3751 1.363 . S
C3746 C3747 1.363 . S
C3746 C3751 1.379 . S
C3746 N3753 1.356 . S
C3747 C3746 1.363 . S
C3747 C3750 1.363 . S
N3748 C3750 1.356 . S
N3748 H3760 0.984 . S
N3748 H3761 0.985 . S
N3749 C3751 1.356 . S
N3749 H3754 0.984 . S
N3749 H3755 0.985 . S
C3750 C3744 1.379 . S
C3750 C3747 1.363 . S
C3750 N3748 1.356 . S
C3751 C3745 1.363 . S
C3751 C3746 1.379 . S
C3751 N3749 1.356 . S
N3752 C3744 1.356 . S
N3752 H3758 0.984 . S
N3752 H3759 0.984 . S
N3753 C3746 1.356 . S
N3753 H3756 0.984 . S
N3753 H3757 0.985 . S
H3754 N3749 0.984 . S
H3755 N3749 0.985 . S
H3756 N3753 0.984 . S
H3757 N3753 0.985 . S
H3758 N3752 0.984 . S
H3759 N3752 0.984 . S
H3760 N3748 0.984 . S
H3761 N3748 0.985 . S
C3762 C3763 1.363 . S
C3762 C3768 1.379 . S
C3762 N3770 1.356 . S
C3763 C3762 1.363 . S
C3763 C3769 1.363 . S
C3764 C3765 1.363 . S
C3764 C3769 1.379 . S
C3764 N3771 1.356 . S
C3765 C3764 1.363 . S
C3765 C3768 1.363 . S
N3766 C3768 1.356 . S
N3766 H3778 0.984 . S
N3766 H3779 0.985 . S
N3767 C3769 1.356 . S
N3767 H3772 0.984 . S
N3767 H3773 0.985 . S
C3768 C3762 1.379 . S
C3768 C3765 1.363 . S
C3768 N3766 1.356 . S
C3769 C3763 1.363 . S
C3769 C3764 1.379 . S
C3769 N3767 1.356 . S
N3770 C3762 1.356 . S
N3770 H3776 0.984 . S
N3770 H3777 0.984 . S
N3771 C3764 1.356 . S
N3771 H3774 0.984 . S
N3771 H3775 0.985 . S
H3772 N3767 0.984 . S
H3773 N3767 0.985 . S
H3774 N3771 0.984 . S
H3775 N3771 0.985 . S
H3776 N3770 0.984 . S
H3777 N3770 0.984 . S
H3778 N3766 0.984 . S
H3779 N3766 0.985 . S
C3780 C3781 1.363 . S
C3780 C3786 1.379 . S
C3780 N3788 1.356 . S
C3781 C3780 1.363 . S
C3781 C3787 1.363 . S
C3782 C3783 1.363 . S
C3782 C3787 1.379 . S
C3782 N3789 1.356 . S
C3783 C3782 1.363 . S
C3783 C3786 1.363 . S
N3784 C3786 1.356 . S
N3784 H3796 0.984 . S
N3784 H3797 0.985 . S
N3785 C3787 1.356 . S
N3785 H3790 0.984 . S
N3785 H3791 0.985 . S
C3786 C3780 1.379 . S
C3786 C3783 1.363 . S
C3786 N3784 1.356 . S
C3787 C3781 1.363 . S
C3787 C3782 1.379 . S
C3787 N3785 1.356 . S
N3788 C3780 1.356 . S
N3788 H3794 0.984 . S
N3788 H3795 0.984 . S
N3789 C3782 1.356 . S
N3789 H3792 0.984 . S
N3789 H3793 0.985 . S
H3790 N3785 0.984 . S
H3791 N3785 0.985 . S
H3792 N3789 0.984 . S
H3793 N3789 0.985 . S
H3794 N3788 0.984 . S
H3795 N3788 0.984 . S
H3796 N3784 0.984 . S
H3797 N3784 0.985 . S
C3798 C3799 1.363 . S
C3798 C3804 1.379 . S
C3798 N3806 1.356 . S
C3799 C3798 1.363 . S
C3799 C3805 1.363 . S
C3800 C3801 1.363 . S
C3800 C3805 1.379 . S
C3800 N3807 1.356 . S
C3801 C3800 1.363 . S
C3801 C3804 1.363 . S
N3802 C3804 1.356 . S
N3802 H3814 0.984 . S
N3802 H3815 0.985 . S
N3803 C3805 1.356 . S
N3803 H3808 0.984 . S
N3803 H3809 0.985 . S
C3804 C3798 1.379 . S
C3804 C3801 1.363 . S
C3804 N3802 1.356 . S
C3805 C3799 1.363 . S
C3805 C3800 1.379 . S
C3805 N3803 1.356 . S
N3806 C3798 1.356 . S
N3806 H3812 0.984 . S
N3806 H3813 0.984 . S
N3807 C3800 1.356 . S
N3807 H3810 0.984 . S
N3807 H3811 0.985 . S
H3808 N3803 0.984 . S
H3809 N3803 0.985 . S
H3810 N3807 0.984 . S
H3811 N3807 0.985 . S
H3812 N3806 0.984 . S
H3813 N3806 0.984 . S
H3814 N3802 0.984 . S
H3815 N3802 0.985 . S
C3816 C3817 1.363 . S
C3816 C3822 1.379 . S
C3816 N3824 1.356 . S
C3817 C3816 1.363 . S
C3817 C3823 1.363 . S
C3818 C3819 1.363 . S
C3818 C3823 1.379 . S
C3818 N3825 1.356 . S
C3819 C3818 1.363 . S
C3819 C3822 1.363 . S
N3820 C3822 1.356 . S
N3820 H3832 0.984 . S
N3820 H3833 0.985 . S
N3821 C3823 1.356 . S
N3821 H3826 0.984 . S
N3821 H3827 0.985 . S
C3822 C3816 1.379 . S
C3822 C3819 1.363 . S
C3822 N3820 1.356 . S
C3823 C3817 1.363 . S
C3823 C3818 1.379 . S
C3823 N3821 1.356 . S
N3824 C3816 1.356 . S
N3824 H3830 0.984 . S
N3824 H3831 0.984 . S
N3825 C3818 1.356 . S
N3825 H3828 0.984 . S
N3825 H3829 0.985 . S
H3826 N3821 0.984 . S
H3827 N3821 0.985 . S
H3828 N3825 0.984 . S
H3829 N3825 0.985 . S
H3830 N3824 0.984 . S
H3831 N3824 0.984 . S
H3832 N3820 0.984 . S
H3833 N3820 0.985 . S
C3834 C3835 1.363 . S
C3834 C3840 1.379 1_556 S
C3834 N3842 1.356 . S
C3835 C3834 1.363 . S
C3835 C3841 1.363 . S
C3836 C3837 1.363 . S
C3836 C3841 1.379 1_554 S
C3836 N3843 1.356 . S
C3837 C3836 1.363 . S
C3837 C3840 1.363 . S
N3838 C3840 1.356 . S
N3838 H3850 0.984 . S
N3838 H3851 0.985 . S
N3839 C3841 1.356 . S
N3839 H3844 0.984 . S
N3839 H3845 0.985 . S
C3840 C3834 1.379 1_554 S
C3840 C3837 1.363 . S
C3840 N3838 1.356 . S
C3841 C3835 1.363 . S
C3841 C3836 1.379 1_556 S
C3841 N3839 1.356 . S
N3842 C3834 1.356 . S
N3842 H3848 0.984 . S
N3842 H3849 0.984 . S
N3843 C3836 1.356 . S
N3843 H3846 0.984 . S
N3843 H3847 0.985 . S
H3844 N3839 0.984 . S
H3845 N3839 0.985 . S
H3846 N3843 0.984 . S
H3847 N3843 0.985 . S
H3848 N3842 0.984 . S
H3849 N3842 0.984 . S
H3850 N3838 0.984 . S
H3851 N3838 0.985 . S
C3852 C3853 1.363 . S
C3852 C3858 1.379 1_655 S
C3852 N3860 1.356 . S
C3853 C3852 1.363 . S
C3853 C3859 1.363 . S
C3854 C3855 1.363 . S
C3854 C3859 1.379 1_455 S
C3854 N3861 1.356 . S
C3855 C3854 1.363 . S
C3855 C3858 1.363 . S
N3856 C3858 1.356 . S
N3856 H3868 0.984 . S
N3856 H3869 0.985 . S
N3857 C3859 1.356 . S
N3857 H3862 0.984 . S
N3857 H3863 0.985 . S
C3858 C3852 1.379 1_455 S
C3858 C3855 1.363 . S
C3858 N3856 1.356 . S
C3859 C3853 1.363 . S
C3859 C3854 1.379 1_655 S
C3859 N3857 1.356 . S
N3860 C3852 1.356 . S
N3860 H3866 0.984 . S
N3860 H3867 0.984 . S
N3861 C3854 1.356 . S
N3861 H3864 0.984 . S
N3861 H3865 0.985 . S
H3862 N3857 0.984 . S
H3863 N3857 0.985 . S
H3864 N3861 0.984 . S
H3865 N3861 0.985 . S
H3866 N3860 0.984 . S
H3867 N3860 0.984 . S
H3868 N3856 0.984 . S
H3869 N3856 0.985 . S
C3870 C3871 1.363 . S
C3870 C3876 1.379 . S
C3870 N3878 1.356 . S
C3871 C3870 1.363 . S
C3871 C3877 1.363 . S
C3872 C3873 1.363 . S
C3872 C3877 1.379 . S
C3872 N3879 1.356 . S
C3873 C3872 1.363 . S
C3873 C3876 1.363 . S
N3874 C3876 1.356 . S
N3874 H3886 0.984 . S
N3874 H3887 0.985 . S
N3875 C3877 1.356 . S
N3875 H3880 0.984 . S
N3875 H3881 0.985 . S
C3876 C3870 1.379 . S
C3876 C3873 1.363 . S
C3876 N3874 1.356 . S
C3877 C3871 1.363 . S
C3877 C3872 1.379 . S
C3877 N3875 1.356 . S
N3878 C3870 1.356 . S
N3878 H3884 0.984 . S
N3878 H3885 0.984 . S
N3879 C3872 1.356 . S
N3879 H3882 0.984 . S
N3879 H3883 0.985 . S
H3880 N3875 0.984 . S
H3881 N3875 0.985 . S
H3882 N3879 0.984 . S
H3883 N3879 0.985 . S
H3884 N3878 0.984 . S
H3885 N3878 0.984 . S
H3886 N3874 0.984 . S
H3887 N3874 0.985 . S
C3888 C3889 1.363 . S
C3888 C3894 1.379 . S
C3888 N3896 1.356 . S
C3889 C3888 1.363 . S
C3889 C3895 1.363 . S
C3890 C3891 1.363 . S
C3890 C3895 1.379 . S
C3890 N3897 1.356 . S
C3891 C3890 1.363 . S
C3891 C3894 1.363 . S
N3892 C3894 1.356 . S
N3892 H3904 0.984 . S
N3892 H3905 0.985 . S
N3893 C3895 1.356 . S
N3893 H3898 0.984 . S
N3893 H3899 0.985 . S
C3894 C3888 1.379 . S
C3894 C3891 1.363 . S
C3894 N3892 1.356 . S
C3895 C3889 1.363 . S
C3895 C3890 1.379 . S
C3895 N3893 1.356 . S
N3896 C3888 1.356 . S
N3896 H3902 0.984 . S
N3896 H3903 0.984 . S
N3897 C3890 1.356 . S
N3897 H3900 0.984 . S
N3897 H3901 0.985 . S
H3898 N3893 0.984 . S
H3899 N3893 0.985 . S
H3900 N3897 0.984 . S
H3901 N3897 0.985 . S
H3902 N3896 0.984 . S
H3903 N3896 0.984 . S
H3904 N3892 0.984 . S
H3905 N3892 0.985 . S
C3906 C3907 1.363 . S
C3906 C3912 1.379 . S
C3906 N3914 1.356 . S
C3907 C3906 1.363 . S
C3907 C3913 1.363 . S
C3908 C3909 1.363 . S
C3908 C3913 1.379 . S
C3908 N3915 1.356 . S
C3909 C3908 1.363 . S
C3909 C3912 1.363 . S
N3910 C3912 1.356 . S
N3910 H3922 0.984 . S
N3910 H3923 0.985 . S
N3911 C3913 1.356 . S
N3911 H3916 0.984 . S
N3911 H3917 0.985 . S
C3912 C3906 1.379 . S
C3912 C3909 1.363 . S
C3912 N3910 1.356 . S
C3913 C3907 1.363 . S
C3913 C3908 1.379 . S
C3913 N3911 1.356 . S
N3914 C3906 1.356 . S
N3914 H3920 0.984 . S
N3914 H3921 0.984 . S
N3915 C3908 1.356 . S
N3915 H3918 0.984 . S
N3915 H3919 0.985 . S
H3916 N3911 0.984 . S
H3917 N3911 0.985 . S
H3918 N3915 0.984 . S
H3919 N3915 0.985 . S
H3920 N3914 0.984 . S
H3921 N3914 0.984 . S
H3922 N3910 0.984 . S
H3923 N3910 0.985 . S
C3924 C3925 1.363 . S
C3924 C3930 1.379 . S
C3924 N3932 1.356 . S
C3925 C3924 1.363 . S
C3925 C3931 1.363 . S
C3926 C3927 1.363 . S
C3926 C3931 1.379 . S
C3926 N3933 1.356 . S
C3927 C3926 1.363 . S
C3927 C3930 1.363 . S
N3928 C3930 1.356 . S
N3928 H3940 0.984 . S
N3928 H3941 0.985 . S
N3929 C3931 1.356 . S
N3929 H3934 0.984 . S
N3929 H3935 0.985 . S
C3930 C3924 1.379 . S
C3930 C3927 1.363 . S
C3930 N3928 1.356 . S
C3931 C3925 1.363 . S
C3931 C3926 1.379 . S
C3931 N3929 1.356 . S
N3932 C3924 1.356 . S
N3932 H3938 0.984 . S
N3932 H3939 0.984 . S
N3933 C3926 1.356 . S
N3933 H3936 0.984 . S
N3933 H3937 0.985 . S
H3934 N3929 0.984 . S
H3935 N3929 0.985 . S
H3936 N3933 0.984 . S
H3937 N3933 0.985 . S
H3938 N3932 0.984 . S
H3939 N3932 0.984 . S
H3940 N3928 0.984 . S
H3941 N3928 0.985 . S
C3942 C3943 1.363 . S
C3942 C3948 1.379 . S
C3942 N3950 1.356 . S
C3943 C3942 1.363 . S
C3943 C3949 1.363 . S
C3944 C3945 1.363 . S
C3944 C3949 1.379 . S
C3944 N3951 1.356 . S
C3945 C3944 1.363 . S
C3945 C3948 1.363 . S
N3946 C3948 1.356 . S
N3946 H3958 0.984 . S
N3946 H3959 0.985 . S
N3947 C3949 1.356 . S
N3947 H3952 0.984 . S
N3947 H3953 0.985 . S
C3948 C3942 1.379 . S
C3948 C3945 1.363 . S
C3948 N3946 1.356 . S
C3949 C3943 1.363 . S
C3949 C3944 1.379 . S
C3949 N3947 1.356 . S
N3950 C3942 1.356 . S
N3950 H3956 0.984 . S
N3950 H3957 0.984 . S
N3951 C3944 1.356 . S
N3951 H3954 0.984 . S
N3951 H3955 0.985 . S
H3952 N3947 0.984 . S
H3953 N3947 0.985 . S
H3954 N3951 0.984 . S
H3955 N3951 0.985 . S
H3956 N3950 0.984 . S
H3957 N3950 0.984 . S
H3958 N3946 0.984 . S
H3959 N3946 0.985 . S
C3960 C3961 1.363 . S
C3960 C3966 1.379 . S
C3960 N3968 1.356 . S
C3961 C3960 1.363 . S
C3961 C3967 1.363 . S
C3962 C3963 1.363 . S
C3962 C3967 1.379 . S
C3962 N3969 1.356 . S
C3963 C3962 1.363 . S
C3963 C3966 1.363 . S
N3964 C3966 1.356 . S
N3964 H3976 0.984 . S
N3964 H3977 0.985 . S
N3965 C3967 1.356 . S
N3965 H3970 0.984 . S
N3965 H3971 0.985 . S
C3966 C3960 1.379 . S
C3966 C3963 1.363 . S
C3966 N3964 1.356 . S
C3967 C3961 1.363 . S
C3967 C3962 1.379 . S
C3967 N3965 1.356 . S
N3968 C3960 1.356 . S
N3968 H3974 0.984 . S
N3968 H3975 0.984 . S
N3969 C3962 1.356 . S
N3969 H3972 0.984 . S
N3969 H3973 0.985 . S
H3970 N3965 0.984 . S
H3971 N3965 0.985 . S
H3972 N3969 0.984 . S
H3973 N3969 0.985 . S
H3974 N3968 0.984 . S
H3975 N3968 0.984 . S
H3976 N3964 0.984 . S
H3977 N3964 0.985 . S
C3978 C3979 1.363 . S
C3978 C3984 1.379 1_655 S
C3978 N3986 1.356 . S
C3979 C3978 1.363 . S
C3979 C3985 1.363 . S
C3980 C3981 1.363 . S
C3980 C3985 1.379 1_455 S
C3980 N3987 1.356 . S
C3981 C3980 1.363 . S
C3981 C3984 1.363 . S
N3982 C3984 1.356 . S
N3982 H3994 0.984 . S
N3982 H3995 0.985 . S
N3983 C3985 1.356 . S
N3983 H3988 0.984 . S
N3983 H3989 0.985 . S
C3984 C3978 1.379 1_455 S
C3984 C3981 1.363 . S
C3984 N3982 1.356 . S
C3985 C3979 1.363 . S
C3985 C3980 1.379 1_655 S
C3985 N3983 1.356 . S
N3986 C3978 1.356 . S
N3986 H3992 0.984 . S
N3986 H3993 0.984 . S
N3987 C3980 1.356 . S
N3987 H3990 0.984 . S
N3987 H3991 0.985 . S
H3988 N3983 0.984 . S
H3989 N3983 0.985 . S
H3990 N3987 0.984 . S
H3991 N3987 0.985 . S
H3992 N3986 0.984 . S
H3993 N3986 0.984 . S
H3994 N3982 0.984 . S
H3995 N3982 0.985 . S
C3996 C3997 1.363 . S
C3996 C4002 1.379 . S
C3996 N4004 1.356 . S
C3997 C3996 1.363 . S
C3997 C4003 1.363 . S
C3998 C3999 1.363 . S
C3998 C4003 1.379 . S
C3998 N4005 1.356 . S
C3999 C3998 1.363 . S
C3999 C4002 1.363 . S
N4000 C4002 1.356 . S
N4000 H4012 0.984 . S
N4000 H4013 0.985 . S
N4001 C4003 1.356 . S
N4001 H4006 0.984 . S
N4001 H4007 0.985 . S
C4002 C3996 1.379 . S
C4002 C3999 1.363 . S
C4002 N4000 1.356 . S
C4003 C3997 1.363 . S
C4003 C3998 1.379 . S
C4003 N4001 1.356 . S
N4004 C3996 1.356 . S
N4004 H4010 0.984 . S
N4004 H4011 0.984 . S
N4005 C3998 1.356 . S
N4005 H4008 0.984 . S
N4005 H4009 0.985 . S
H4006 N4001 0.984 . S
H4007 N4001 0.985 . S
H4008 N4005 0.984 . S
H4009 N4005 0.985 . S
H4010 N4004 0.984 . S
H4011 N4004 0.984 . S
H4012 N4000 0.984 . S
H4013 N4000 0.985 . S
C4014 C4015 1.363 . S
C4014 C4020 1.379 . S
C4014 N4022 1.356 . S
C4015 C4014 1.363 . S
C4015 C4021 1.363 . S
C4016 C4017 1.363 . S
C4016 C4021 1.379 . S
C4016 N4023 1.356 . S
C4017 C4016 1.363 . S
C4017 C4020 1.363 . S
N4018 C4020 1.356 . S
N4018 H4030 0.984 . S
N4018 H4031 0.985 . S
N4019 C4021 1.356 . S
N4019 H4024 0.984 . S
N4019 H4025 0.985 . S
C4020 C4014 1.379 . S
C4020 C4017 1.363 . S
C4020 N4018 1.356 . S
C4021 C4015 1.363 . S
C4021 C4016 1.379 . S
C4021 N4019 1.356 . S
N4022 C4014 1.356 . S
N4022 H4028 0.984 . S
N4022 H4029 0.984 . S
N4023 C4016 1.356 . S
N4023 H4026 0.984 . S
N4023 H4027 0.985 . S
H4024 N4019 0.984 . S
H4025 N4019 0.985 . S
H4026 N4023 0.984 . S
H4027 N4023 0.985 . S
H4028 N4022 0.984 . S
H4029 N4022 0.984 . S
H4030 N4018 0.984 . S
H4031 N4018 0.985 . S
C4032 C4033 1.363 . S
C4032 C4038 1.379 . S
C4032 N4040 1.356 . S
C4033 C4032 1.363 . S
C4033 C4039 1.363 . S
C4034 C4035 1.363 . S
C4034 C4039 1.379 . S
C4034 N4041 1.356 . S
C4035 C4034 1.363 . S
C4035 C4038 1.363 . S
N4036 C4038 1.356 . S
N4036 H4048 0.984 . S
N4036 H4049 0.985 . S
N4037 C4039 1.356 . S
N4037 H4042 0.984 . S
N4037 H4043 0.985 . S
C4038 C4032 1.379 . S
C4038 C4035 1.363 . S
C4038 N4036 1.356 . S
C4039 C4033 1.363 . S
C4039 C4034 1.379 . S
C4039 N4037 1.356 . S
N4040 C4032 1.356 . S
N4040 H4046 0.984 . S
N4040 H4047 0.984 . S
N4041 C4034 1.356 . S
N4041 H4044 0.984 . S
N4041 H4045 0.985 . S
H4042 N4037 0.984 . S
H4043 N4037 0.985 . S
H4044 N4041 0.984 . S
H4045 N4041 0.985 . S
H4046 N4040 0.984 . S
H4047 N4040 0.984 . S
H4048 N4036 0.984 . S
H4049 N4036 0.985 . S
C4050 C4051 1.363 . S
C4050 C4056 1.379 . S
C4050 N4058 1.356 . S
C4051 C4050 1.363 . S
C4051 C4057 1.363 . S
C4052 C4053 1.363 . S
C4052 C4057 1.379 . S
C4052 N4059 1.356 . S
C4053 C4052 1.363 . S
C4053 C4056 1.363 . S
N4054 C4056 1.356 . S
N4054 H4066 0.984 . S
N4054 H4067 0.985 . S
N4055 C4057 1.356 . S
N4055 H4060 0.984 . S
N4055 H4061 0.985 . S
C4056 C4050 1.379 . S
C4056 C4053 1.363 . S
C4056 N4054 1.356 . S
C4057 C4051 1.363 . S
C4057 C4052 1.379 . S
C4057 N4055 1.356 . S
N4058 C4050 1.356 . S
N4058 H4064 0.984 . S
N4058 H4065 0.984 . S
N4059 C4052 1.356 . S
N4059 H4062 0.984 . S
N4059 H4063 0.985 . S
H4060 N4055 0.984 . S
H4061 N4055 0.985 . S
H4062 N4059 0.984 . S
H4063 N4059 0.985 . S
H4064 N4058 0.984 . S
H4065 N4058 0.984 . S
H4066 N4054 0.984 . S
H4067 N4054 0.985 . S
C4068 C4069 1.363 . S
C4068 C4074 1.379 . S
C4068 N4076 1.356 . S
C4069 C4068 1.363 . S
C4069 C4075 1.363 . S
C4070 C4071 1.363 . S
C4070 C4075 1.379 . S
C4070 N4077 1.356 . S
C4071 C4070 1.363 . S
C4071 C4074 1.363 . S
N4072 C4074 1.356 . S
N4072 H4084 0.984 . S
N4072 H4085 0.985 . S
N4073 C4075 1.356 . S
N4073 H4078 0.984 . S
N4073 H4079 0.985 . S
C4074 C4068 1.379 . S
C4074 C4071 1.363 . S
C4074 N4072 1.356 . S
C4075 C4069 1.363 . S
C4075 C4070 1.379 . S
C4075 N4073 1.356 . S
N4076 C4068 1.356 . S
N4076 H4082 0.984 . S
N4076 H4083 0.984 . S
N4077 C4070 1.356 . S
N4077 H4080 0.984 . S
N4077 H4081 0.985 . S
H4078 N4073 0.984 . S
H4079 N4073 0.985 . S
H4080 N4077 0.984 . S
H4081 N4077 0.985 . S
H4082 N4076 0.984 . S
H4083 N4076 0.984 . S
H4084 N4072 0.984 . S
H4085 N4072 0.985 . S
C4086 C4087 1.363 . S
C4086 C4092 1.379 . S
C4086 N4094 1.356 . S
C4087 C4086 1.363 . S
C4087 C4093 1.363 . S
C4088 C4089 1.363 . S
C4088 C4093 1.379 . S
C4088 N4095 1.356 . S
C4089 C4088 1.363 . S
C4089 C4092 1.363 . S
N4090 C4092 1.356 . S
N4090 H4102 0.984 . S
N4090 H4103 0.985 . S
N4091 C4093 1.356 . S
N4091 H4096 0.984 . S
N4091 H4097 0.985 . S
C4092 C4086 1.379 . S
C4092 C4089 1.363 . S
C4092 N4090 1.356 . S
C4093 C4087 1.363 . S
C4093 C4088 1.379 . S
C4093 N4091 1.356 . S
N4094 C4086 1.356 . S
N4094 H4100 0.984 . S
N4094 H4101 0.984 . S
N4095 C4088 1.356 . S
N4095 H4098 0.984 . S
N4095 H4099 0.985 . S
H4096 N4091 0.984 . S
H4097 N4091 0.985 . S
H4098 N4095 0.984 . S
H4099 N4095 0.985 . S
H4100 N4094 0.984 . S
H4101 N4094 0.984 . S
H4102 N4090 0.984 . S
H4103 N4090 0.985 . S
C4104 C4105 1.363 . S
C4104 C4110 1.379 1_556 S
C4104 N4112 1.356 . S
C4105 C4104 1.363 . S
C4105 C4111 1.363 . S
C4106 C4107 1.363 . S
C4106 C4111 1.379 1_554 S
C4106 N4113 1.356 . S
C4107 C4106 1.363 . S
C4107 C4110 1.363 . S
N4108 C4110 1.356 . S
N4108 H4120 0.984 . S
N4108 H4121 0.985 . S
N4109 C4111 1.356 . S
N4109 H4114 0.984 . S
N4109 H4115 0.985 . S
C4110 C4104 1.379 1_554 S
C4110 C4107 1.363 . S
C4110 N4108 1.356 . S
C4111 C4105 1.363 . S
C4111 C4106 1.379 1_556 S
C4111 N4109 1.356 . S
N4112 C4104 1.356 . S
N4112 H4118 0.984 . S
N4112 H4119 0.984 . S
N4113 C4106 1.356 . S
N4113 H4116 0.984 . S
N4113 H4117 0.985 . S
H4114 N4109 0.984 . S
H4115 N4109 0.985 . S
H4116 N4113 0.984 . S
H4117 N4113 0.985 . S
H4118 N4112 0.984 . S
H4119 N4112 0.984 . S
H4120 N4108 0.984 . S
H4121 N4108 0.985 . S
C4122 C4123 1.363 . S
C4122 C4128 1.379 . S
C4122 N4130 1.356 . S
C4123 C4122 1.363 . S
C4123 C4129 1.363 . S
C4124 C4125 1.363 . S
C4124 C4129 1.379 . S
C4124 N4131 1.356 . S
C4125 C4124 1.363 . S
C4125 C4128 1.363 . S
N4126 C4128 1.356 . S
N4126 H4138 0.984 . S
N4126 H4139 0.985 . S
N4127 C4129 1.356 . S
N4127 H4132 0.984 . S
N4127 H4133 0.985 . S
C4128 C4122 1.379 . S
C4128 C4125 1.363 . S
C4128 N4126 1.356 . S
C4129 C4123 1.363 . S
C4129 C4124 1.379 . S
C4129 N4127 1.356 . S
N4130 C4122 1.356 . S
N4130 H4136 0.984 . S
N4130 H4137 0.984 . S
N4131 C4124 1.356 . S
N4131 H4134 0.984 . S
N4131 H4135 0.985 . S
H4132 N4127 0.984 . S
H4133 N4127 0.985 . S
H4134 N4131 0.984 . S
H4135 N4131 0.985 . S
H4136 N4130 0.984 . S
H4137 N4130 0.984 . S
H4138 N4126 0.984 . S
H4139 N4126 0.985 . S
C4140 C4141 1.363 . S
C4140 C4146 1.379 . S
C4140 N4148 1.356 . S
C4141 C4140 1.363 . S
C4141 C4147 1.363 . S
C4142 C4143 1.363 . S
C4142 C4147 1.379 . S
C4142 N4149 1.356 . S
C4143 C4142 1.363 . S
C4143 C4146 1.363 . S
N4144 C4146 1.356 . S
N4144 H4156 0.984 . S
N4144 H4157 0.985 . S
N4145 C4147 1.356 . S
N4145 H4150 0.984 . S
N4145 H4151 0.985 . S
C4146 C4140 1.379 . S
C4146 C4143 1.363 . S
C4146 N4144 1.356 . S
C4147 C4141 1.363 . S
C4147 C4142 1.379 . S
C4147 N4145 1.356 . S
N4148 C4140 1.356 . S
N4148 H4154 0.984 . S
N4148 H4155 0.984 . S
N4149 C4142 1.356 . S
N4149 H4152 0.984 . S
N4149 H4153 0.985 . S
H4150 N4145 0.984 . S
H4151 N4145 0.985 . S
H4152 N4149 0.984 . S
H4153 N4149 0.985 . S
H4154 N4148 0.984 . S
H4155 N4148 0.984 . S
H4156 N4144 0.984 . S
H4157 N4144 0.985 . S
C4158 C4159 1.363 . S
C4158 C4164 1.379 1_556 S
C4158 N4166 1.356 . S
C4159 C4158 1.363 . S
C4159 C4165 1.363 . S
C4160 C4161 1.363 . S
C4160 C4165 1.379 1_554 S
C4160 N4167 1.356 . S
C4161 C4160 1.363 . S
C4161 C4164 1.363 . S
N4162 C4164 1.356 . S
N4162 H4174 0.984 . S
N4162 H4175 0.985 . S
N4163 C4165 1.356 . S
N4163 H4168 0.984 . S
N4163 H4169 0.985 . S
C4164 C4158 1.379 1_554 S
C4164 C4161 1.363 . S
C4164 N4162 1.356 . S
C4165 C4159 1.363 . S
C4165 C4160 1.379 1_556 S
C4165 N4163 1.356 . S
N4166 C4158 1.356 . S
N4166 H4172 0.984 . S
N4166 H4173 0.984 . S
N4167 C4160 1.356 . S
N4167 H4170 0.984 . S
N4167 H4171 0.985 . S
H4168 N4163 0.984 . S
H4169 N4163 0.985 . S
H4170 N4167 0.984 . S
H4171 N4167 0.985 . S
H4172 N4166 0.984 . S
H4173 N4166 0.984 . S
H4174 N4162 0.984 . S
H4175 N4162 0.985 . S
C4176 C4177 1.363 . S
C4176 C4182 1.379 . S
C4176 N4184 1.356 . S
C4177 C4176 1.363 . S
C4177 C4183 1.363 . S
C4178 C4179 1.363 . S
C4178 C4183 1.379 . S
C4178 N4185 1.356 . S
C4179 C4178 1.363 . S
C4179 C4182 1.363 . S
N4180 C4182 1.356 . S
N4180 H4192 0.984 . S
N4180 H4193 0.985 . S
N4181 C4183 1.356 . S
N4181 H4186 0.984 . S
N4181 H4187 0.985 . S
C4182 C4176 1.379 . S
C4182 C4179 1.363 . S
C4182 N4180 1.356 . S
C4183 C4177 1.363 . S
C4183 C4178 1.379 . S
C4183 N4181 1.356 . S
N4184 C4176 1.356 . S
N4184 H4190 0.984 . S
N4184 H4191 0.984 . S
N4185 C4178 1.356 . S
N4185 H4188 0.984 . S
N4185 H4189 0.985 . S
H4186 N4181 0.984 . S
H4187 N4181 0.985 . S
H4188 N4185 0.984 . S
H4189 N4185 0.985 . S
H4190 N4184 0.984 . S
H4191 N4184 0.984 . S
H4192 N4180 0.984 . S
H4193 N4180 0.985 . S
C4194 C4195 1.363 . S
C4194 C4200 1.379 . S
C4194 N4202 1.356 . S
C4195 C4194 1.363 . S
C4195 C4201 1.363 . S
C4196 C4197 1.363 . S
C4196 C4201 1.379 . S
C4196 N4203 1.356 . S
C4197 C4196 1.363 . S
C4197 C4200 1.363 . S
N4198 C4200 1.356 . S
N4198 H4210 0.984 . S
N4198 H4211 0.985 . S
N4199 C4201 1.356 . S
N4199 H4204 0.984 . S
N4199 H4205 0.985 . S
C4200 C4194 1.379 . S
C4200 C4197 1.363 . S
C4200 N4198 1.356 . S
C4201 C4195 1.363 . S
C4201 C4196 1.379 . S
C4201 N4199 1.356 . S
N4202 C4194 1.356 . S
N4202 H4208 0.984 . S
N4202 H4209 0.984 . S
N4203 C4196 1.356 . S
N4203 H4206 0.984 . S
N4203 H4207 0.985 . S
H4204 N4199 0.984 . S
H4205 N4199 0.985 . S
H4206 N4203 0.984 . S
H4207 N4203 0.985 . S
H4208 N4202 0.984 . S
H4209 N4202 0.984 . S
H4210 N4198 0.984 . S
H4211 N4198 0.985 . S
C4212 C4213 1.363 . S
C4212 C4218 1.379 . S
C4212 N4220 1.356 . S
C4213 C4212 1.363 . S
C4213 C4219 1.363 . S
C4214 C4215 1.363 . S
C4214 C4219 1.379 . S
C4214 N4221 1.356 . S
C4215 C4214 1.363 . S
C4215 C4218 1.363 . S
N4216 C4218 1.356 . S
N4216 H4228 0.984 . S
N4216 H4229 0.985 . S
N4217 C4219 1.356 . S
N4217 H4222 0.984 . S
N4217 H4223 0.985 . S
C4218 C4212 1.379 . S
C4218 C4215 1.363 . S
C4218 N4216 1.356 . S
C4219 C4213 1.363 . S
C4219 C4214 1.379 . S
C4219 N4217 1.356 . S
N4220 C4212 1.356 . S
N4220 H4226 0.984 . S
N4220 H4227 0.984 . S
N4221 C4214 1.356 . S
N4221 H4224 0.984 . S
N4221 H4225 0.985 . S
H4222 N4217 0.984 . S
H4223 N4217 0.985 . S
H4224 N4221 0.984 . S
H4225 N4221 0.985 . S
H4226 N4220 0.984 . S
H4227 N4220 0.984 . S
H4228 N4216 0.984 . S
H4229 N4216 0.985 . S
C4230 C4231 1.363 . S
C4230 C4236 1.379 . S
C4230 N4238 1.356 . S
C4231 C4230 1.363 . S
C4231 C4237 1.363 . S
C4232 C4233 1.363 . S
C4232 C4237 1.379 . S
C4232 N4239 1.356 . S
C4233 C4232 1.363 . S
C4233 C4236 1.363 . S
N4234 C4236 1.356 . S
N4234 H4246 0.984 . S
N4234 H4247 0.985 . S
N4235 C4237 1.356 . S
N4235 H4240 0.984 . S
N4235 H4241 0.985 . S
C4236 C4230 1.379 . S
C4236 C4233 1.363 . S
C4236 N4234 1.356 . S
C4237 C4231 1.363 . S
C4237 C4232 1.379 . S
C4237 N4235 1.356 . S
N4238 C4230 1.356 . S
N4238 H4244 0.984 . S
N4238 H4245 0.984 . S
N4239 C4232 1.356 . S
N4239 H4242 0.984 . S
N4239 H4243 0.985 . S
H4240 N4235 0.984 . S
H4241 N4235 0.985 . S
H4242 N4239 0.984 . S
H4243 N4239 0.985 . S
H4244 N4238 0.984 . S
H4245 N4238 0.984 . S
H4246 N4234 0.984 . S
H4247 N4234 0.985 . S
C4248 C4249 1.363 . S
C4248 C4254 1.379 1_545 S
C4248 N4256 1.356 . S
C4249 C4248 1.363 . S
C4249 C4255 1.363 . S
C4250 C4251 1.363 . S
C4250 C4255 1.379 1_565 S
C4250 N4257 1.356 . S
C4251 C4250 1.363 . S
C4251 C4254 1.363 . S
N4252 C4254 1.356 . S
N4252 H4264 0.984 . S
N4252 H4265 0.985 . S
N4253 C4255 1.356 . S
N4253 H4258 0.984 . S
N4253 H4259 0.985 . S
C4254 C4248 1.379 1_565 S
C4254 C4251 1.363 . S
C4254 N4252 1.356 . S
C4255 C4249 1.363 . S
C4255 C4250 1.379 1_545 S
C4255 N4253 1.356 . S
N4256 C4248 1.356 . S
N4256 H4262 0.984 . S
N4256 H4263 0.984 . S
N4257 C4250 1.356 . S
N4257 H4260 0.984 . S
N4257 H4261 0.985 . S
H4258 N4253 0.984 . S
H4259 N4253 0.985 . S
H4260 N4257 0.984 . S
H4261 N4257 0.985 . S
H4262 N4256 0.984 . S
H4263 N4256 0.984 . S
H4264 N4252 0.984 . S
H4265 N4252 0.985 . S
C4266 C4267 1.363 . S
C4266 C4272 1.379 . S
C4266 N4274 1.356 . S
C4267 C4266 1.363 . S
C4267 C4273 1.363 . S
C4268 C4269 1.363 . S
C4268 C4273 1.379 . S
C4268 N4275 1.356 . S
C4269 C4268 1.363 . S
C4269 C4272 1.363 . S
N4270 C4272 1.356 . S
N4270 H4282 0.984 . S
N4270 H4283 0.985 . S
N4271 C4273 1.356 . S
N4271 H4276 0.984 . S
N4271 H4277 0.985 . S
C4272 C4266 1.379 . S
C4272 C4269 1.363 . S
C4272 N4270 1.356 . S
C4273 C4267 1.363 . S
C4273 C4268 1.379 . S
C4273 N4271 1.356 . S
N4274 C4266 1.356 . S
N4274 H4280 0.984 . S
N4274 H4281 0.984 . S
N4275 C4268 1.356 . S
N4275 H4278 0.984 . S
N4275 H4279 0.985 . S
H4276 N4271 0.984 . S
H4277 N4271 0.985 . S
H4278 N4275 0.984 . S
H4279 N4275 0.985 . S
H4280 N4274 0.984 . S
H4281 N4274 0.984 . S
H4282 N4270 0.984 . S
H4283 N4270 0.985 . S
C4284 C4285 1.363 . S
C4284 C4290 1.379 . S
C4284 N4292 1.356 . S
C4285 C4284 1.363 . S
C4285 C4291 1.363 . S
C4286 C4287 1.363 . S
C4286 C4291 1.379 . S
C4286 N4293 1.356 . S
C4287 C4286 1.363 . S
C4287 C4290 1.363 . S
N4288 C4290 1.356 . S
N4288 H4300 0.984 . S
N4288 H4301 0.985 . S
N4289 C4291 1.356 . S
N4289 H4294 0.984 . S
N4289 H4295 0.985 . S
C4290 C4284 1.379 . S
C4290 C4287 1.363 . S
C4290 N4288 1.356 . S
C4291 C4285 1.363 . S
C4291 C4286 1.379 . S
C4291 N4289 1.356 . S
N4292 C4284 1.356 . S
N4292 H4298 0.984 . S
N4292 H4299 0.984 . S
N4293 C4286 1.356 . S
N4293 H4296 0.984 . S
N4293 H4297 0.985 . S
H4294 N4289 0.984 . S
H4295 N4289 0.985 . S
H4296 N4293 0.984 . S
H4297 N4293 0.985 . S
H4298 N4292 0.984 . S
H4299 N4292 0.984 . S
H4300 N4288 0.984 . S
H4301 N4288 0.985 . S
C4302 C4303 1.363 . S
C4302 C4308 1.379 1_455 S
C4302 N4310 1.356 . S
C4303 C4302 1.363 . S
C4303 C4309 1.363 . S
C4304 C4305 1.363 . S
C4304 C4309 1.379 1_655 S
C4304 N4311 1.356 . S
C4305 C4304 1.363 . S
C4305 C4308 1.363 . S
N4306 C4308 1.356 . S
N4306 H4318 0.984 . S
N4306 H4319 0.985 . S
N4307 C4309 1.356 . S
N4307 H4312 0.984 . S
N4307 H4313 0.985 . S
C4308 C4302 1.379 1_655 S
C4308 C4305 1.363 . S
C4308 N4306 1.356 . S
C4309 C4303 1.363 . S
C4309 C4304 1.379 1_455 S
C4309 N4307 1.356 . S
N4310 C4302 1.356 . S
N4310 H4316 0.984 . S
N4310 H4317 0.984 . S
N4311 C4304 1.356 . S
N4311 H4314 0.984 . S
N4311 H4315 0.985 . S
H4312 N4307 0.984 . S
H4313 N4307 0.985 . S
H4314 N4311 0.984 . S
H4315 N4311 0.985 . S
H4316 N4310 0.984 . S
H4317 N4310 0.984 . S
H4318 N4306 0.984 . S
H4319 N4306 0.985 . S
C4320 C4321 1.363 . S
C4320 C4326 1.379 . S
C4320 N4328 1.356 . S
C4321 C4320 1.363 . S
C4321 C4327 1.363 . S
C4322 C4323 1.363 . S
C4322 C4327 1.379 . S
C4322 N4329 1.356 . S
C4323 C4322 1.363 . S
C4323 C4326 1.363 . S
N4324 C4326 1.356 . S
N4324 H4336 0.984 . S
N4324 H4337 0.985 . S
N4325 C4327 1.356 . S
N4325 H4330 0.984 . S
N4325 H4331 0.985 . S
C4326 C4320 1.379 . S
C4326 C4323 1.363 . S
C4326 N4324 1.356 . S
C4327 C4321 1.363 . S
C4327 C4322 1.379 . S
C4327 N4325 1.356 . S
N4328 C4320 1.356 . S
N4328 H4334 0.984 . S
N4328 H4335 0.984 . S
N4329 C4322 1.356 . S
N4329 H4332 0.984 . S
N4329 H4333 0.985 . S
H4330 N4325 0.984 . S
H4331 N4325 0.985 . S
H4332 N4329 0.984 . S
H4333 N4329 0.985 . S
H4334 N4328 0.984 . S
H4335 N4328 0.984 . S
H4336 N4324 0.984 . S
H4337 N4324 0.985 . S
C4338 C4339 1.363 . S
C4338 C4344 1.379 . S
C4338 N4346 1.356 . S
C4339 C4338 1.363 . S
C4339 C4345 1.363 . S
C4340 C4341 1.363 . S
C4340 C4345 1.379 . S
C4340 N4347 1.356 . S
C4341 C4340 1.363 . S
C4341 C4344 1.363 . S
N4342 C4344 1.356 . S
N4342 H4354 0.984 . S
N4342 H4355 0.985 . S
N4343 C4345 1.356 . S
N4343 H4348 0.984 . S
N4343 H4349 0.985 . S
C4344 C4338 1.379 . S
C4344 C4341 1.363 . S
C4344 N4342 1.356 . S
C4345 C4339 1.363 . S
C4345 C4340 1.379 . S
C4345 N4343 1.356 . S
N4346 C4338 1.356 . S
N4346 H4352 0.984 . S
N4346 H4353 0.984 . S
N4347 C4340 1.356 . S
N4347 H4350 0.984 . S
N4347 H4351 0.985 . S
H4348 N4343 0.984 . S
H4349 N4343 0.985 . S
H4350 N4347 0.984 . S
H4351 N4347 0.985 . S
H4352 N4346 0.984 . S
H4353 N4346 0.984 . S
H4354 N4342 0.984 . S
H4355 N4342 0.985 . S
C4356 C4357 1.363 . S
C4356 C4362 1.379 . S
C4356 N4364 1.356 . S
C4357 C4356 1.363 . S
C4357 C4363 1.363 . S
C4358 C4359 1.363 . S
C4358 C4363 1.379 . S
C4358 N4365 1.356 . S
C4359 C4358 1.363 . S
C4359 C4362 1.363 . S
N4360 C4362 1.356 . S
N4360 H4372 0.984 . S
N4360 H4373 0.985 . S
N4361 C4363 1.356 . S
N4361 H4366 0.984 . S
N4361 H4367 0.985 . S
C4362 C4356 1.379 . S
C4362 C4359 1.363 . S
C4362 N4360 1.356 . S
C4363 C4357 1.363 . S
C4363 C4358 1.379 . S
C4363 N4361 1.356 . S
N4364 C4356 1.356 . S
N4364 H4370 0.984 . S
N4364 H4371 0.984 . S
N4365 C4358 1.356 . S
N4365 H4368 0.984 . S
N4365 H4369 0.985 . S
H4366 N4361 0.984 . S
H4367 N4361 0.985 . S
H4368 N4365 0.984 . S
H4369 N4365 0.985 . S
H4370 N4364 0.984 . S
H4371 N4364 0.984 . S
H4372 N4360 0.984 . S
H4373 N4360 0.985 . S
C4374 C4375 1.363 . S
C4374 C4380 1.379 . S
C4374 N4382 1.356 . S
C4375 C4374 1.363 . S
C4375 C4381 1.363 . S
C4376 C4377 1.363 . S
C4376 C4381 1.379 . S
C4376 N4383 1.356 . S
C4377 C4376 1.363 . S
C4377 C4380 1.363 . S
N4378 C4380 1.356 . S
N4378 H4390 0.984 . S
N4378 H4391 0.985 . S
N4379 C4381 1.356 . S
N4379 H4384 0.984 . S
N4379 H4385 0.985 . S
C4380 C4374 1.379 . S
C4380 C4377 1.363 . S
C4380 N4378 1.356 . S
C4381 C4375 1.363 . S
C4381 C4376 1.379 . S
C4381 N4379 1.356 . S
N4382 C4374 1.356 . S
N4382 H4388 0.984 . S
N4382 H4389 0.984 . S
N4383 C4376 1.356 . S
N4383 H4386 0.984 . S
N4383 H4387 0.985 . S
H4384 N4379 0.984 . S
H4385 N4379 0.985 . S
H4386 N4383 0.984 . S
H4387 N4383 0.985 . S
H4388 N4382 0.984 . S
H4389 N4382 0.984 . S
H4390 N4378 0.984 . S
H4391 N4378 0.985 . S
C4392 C4393 1.363 . S
C4392 C4398 1.379 . S
C4392 N4400 1.356 . S
C4393 C4392 1.363 . S
C4393 C4399 1.363 . S
C4394 C4395 1.363 . S
C4394 C4399 1.379 . S
C4394 N4401 1.356 . S
C4395 C4394 1.363 . S
C4395 C4398 1.363 . S
N4396 C4398 1.356 . S
N4396 H4408 0.984 . S
N4396 H4409 0.985 . S
N4397 C4399 1.356 . S
N4397 H4402 0.984 . S
N4397 H4403 0.985 . S
C4398 C4392 1.379 . S
C4398 C4395 1.363 . S
C4398 N4396 1.356 . S
C4399 C4393 1.363 . S
C4399 C4394 1.379 . S
C4399 N4397 1.356 . S
N4400 C4392 1.356 . S
N4400 H4406 0.984 . S
N4400 H4407 0.984 . S
N4401 C4394 1.356 . S
N4401 H4404 0.984 . S
N4401 H4405 0.985 . S
H4402 N4397 0.984 . S
H4403 N4397 0.985 . S
H4404 N4401 0.984 . S
H4405 N4401 0.985 . S
H4406 N4400 0.984 . S
H4407 N4400 0.984 . S
H4408 N4396 0.984 . S
H4409 N4396 0.985 . S
C4410 C4411 1.363 . S
C4410 C4416 1.379 . S
C4410 N4418 1.356 . S
C4411 C4410 1.363 . S
C4411 C4417 1.363 . S
C4412 C4413 1.363 . S
C4412 C4417 1.379 . S
C4412 N4419 1.356 . S
C4413 C4412 1.363 . S
C4413 C4416 1.363 . S
N4414 C4416 1.356 . S
N4414 H4426 0.984 . S
N4414 H4427 0.985 . S
N4415 C4417 1.356 . S
N4415 H4420 0.984 . S
N4415 H4421 0.985 . S
C4416 C4410 1.379 . S
C4416 C4413 1.363 . S
C4416 N4414 1.356 . S
C4417 C4411 1.363 . S
C4417 C4412 1.379 . S
C4417 N4415 1.356 . S
N4418 C4410 1.356 . S
N4418 H4424 0.984 . S
N4418 H4425 0.984 . S
N4419 C4412 1.356 . S
N4419 H4422 0.984 . S
N4419 H4423 0.985 . S
H4420 N4415 0.984 . S
H4421 N4415 0.985 . S
H4422 N4419 0.984 . S
H4423 N4419 0.985 . S
H4424 N4418 0.984 . S
H4425 N4418 0.984 . S
H4426 N4414 0.984 . S
H4427 N4414 0.985 . S
C4428 C4429 1.363 . S
C4428 C4434 1.379 1_554 S
C4428 N4436 1.356 . S
C4429 C4428 1.363 . S
C4429 C4435 1.363 . S
C4430 C4431 1.363 . S
C4430 C4435 1.379 1_556 S
C4430 N4437 1.356 . S
C4431 C4430 1.363 . S
C4431 C4434 1.363 . S
N4432 C4434 1.356 . S
N4432 H4444 0.984 . S
N4432 H4445 0.985 . S
N4433 C4435 1.356 . S
N4433 H4438 0.984 . S
N4433 H4439 0.985 . S
C4434 C4428 1.379 1_556 S
C4434 C4431 1.363 . S
C4434 N4432 1.356 . S
C4435 C4429 1.363 . S
C4435 C4430 1.379 1_554 S
C4435 N4433 1.356 . S
N4436 C4428 1.356 . S
N4436 H4442 0.984 . S
N4436 H4443 0.984 . S
N4437 C4430 1.356 . S
N4437 H4440 0.984 . S
N4437 H4441 0.985 . S
H4438 N4433 0.984 . S
H4439 N4433 0.985 . S
H4440 N4437 0.984 . S
H4441 N4437 0.985 . S
H4442 N4436 0.984 . S
H4443 N4436 0.984 . S
H4444 N4432 0.984 . S
H4445 N4432 0.985 . S
C4446 C4447 1.363 . S
C4446 C4452 1.379 . S
C4446 N4454 1.356 . S
C4447 C4446 1.363 . S
C4447 C4453 1.363 . S
C4448 C4449 1.363 . S
C4448 C4453 1.379 . S
C4448 N4455 1.356 . S
C4449 C4448 1.363 . S
C4449 C4452 1.363 . S
N4450 C4452 1.356 . S
N4450 H4462 0.984 . S
N4450 H4463 0.985 . S
N4451 C4453 1.356 . S
N4451 H4456 0.984 . S
N4451 H4457 0.985 . S
C4452 C4446 1.379 . S
C4452 C4449 1.363 . S
C4452 N4450 1.356 . S
C4453 C4447 1.363 . S
C4453 C4448 1.379 . S
C4453 N4451 1.356 . S
N4454 C4446 1.356 . S
N4454 H4460 0.984 . S
N4454 H4461 0.984 . S
N4455 C4448 1.356 . S
N4455 H4458 0.984 . S
N4455 H4459 0.985 . S
H4456 N4451 0.984 . S
H4457 N4451 0.985 . S
H4458 N4455 0.984 . S
H4459 N4455 0.985 . S
H4460 N4454 0.984 . S
H4461 N4454 0.984 . S
H4462 N4450 0.984 . S
H4463 N4450 0.985 . S
C4464 C4465 1.363 . S
C4464 C4470 1.379 . S
C4464 N4472 1.356 . S
C4465 C4464 1.363 . S
C4465 C4471 1.363 . S
C4466 C4467 1.363 . S
C4466 C4471 1.379 . S
C4466 N4473 1.356 . S
C4467 C4466 1.363 . S
C4467 C4470 1.363 . S
N4468 C4470 1.356 . S
N4468 H4480 0.984 . S
N4468 H4481 0.985 . S
N4469 C4471 1.356 . S
N4469 H4474 0.984 . S
N4469 H4475 0.985 . S
C4470 C4464 1.379 . S
C4470 C4467 1.363 . S
C4470 N4468 1.356 . S
C4471 C4465 1.363 . S
C4471 C4466 1.379 . S
C4471 N4469 1.356 . S
N4472 C4464 1.356 . S
N4472 H4478 0.984 . S
N4472 H4479 0.984 . S
N4473 C4466 1.356 . S
N4473 H4476 0.984 . S
N4473 H4477 0.985 . S
H4474 N4469 0.984 . S
H4475 N4469 0.985 . S
H4476 N4473 0.984 . S
H4477 N4473 0.985 . S
H4478 N4472 0.984 . S
H4479 N4472 0.984 . S
H4480 N4468 0.984 . S
H4481 N4468 0.985 . S
C4482 C4483 1.363 . S
C4482 C4488 1.379 1_554 S
C4482 N4490 1.356 . S
C4483 C4482 1.363 . S
C4483 C4489 1.363 . S
C4484 C4485 1.363 . S
C4484 C4489 1.379 1_556 S
C4484 N4491 1.356 . S
C4485 C4484 1.363 . S
C4485 C4488 1.363 . S
N4486 C4488 1.356 . S
N4486 H4498 0.984 . S
N4486 H4499 0.985 . S
N4487 C4489 1.356 . S
N4487 H4492 0.984 . S
N4487 H4493 0.985 . S
C4488 C4482 1.379 1_556 S
C4488 C4485 1.363 . S
C4488 N4486 1.356 . S
C4489 C4483 1.363 . S
C4489 C4484 1.379 1_554 S
C4489 N4487 1.356 . S
N4490 C4482 1.356 . S
N4490 H4496 0.984 . S
N4490 H4497 0.984 . S
N4491 C4484 1.356 . S
N4491 H4494 0.984 . S
N4491 H4495 0.985 . S
H4492 N4487 0.984 . S
H4493 N4487 0.985 . S
H4494 N4491 0.984 . S
H4495 N4491 0.985 . S
H4496 N4490 0.984 . S
H4497 N4490 0.984 . S
H4498 N4486 0.984 . S
H4499 N4486 0.985 . S
C4500 C4501 1.363 . S
C4500 C4506 1.379 . S
C4500 N4508 1.356 . S
C4501 C4500 1.363 . S
C4501 C4507 1.363 . S
C4502 C4503 1.363 . S
C4502 C4507 1.379 . S
C4502 N4509 1.356 . S
C4503 C4502 1.363 . S
C4503 C4506 1.363 . S
N4504 C4506 1.356 . S
N4504 H4516 0.984 . S
N4504 H4517 0.985 . S
N4505 C4507 1.356 . S
N4505 H4510 0.984 . S
N4505 H4511 0.985 . S
C4506 C4500 1.379 . S
C4506 C4503 1.363 . S
C4506 N4504 1.356 . S
C4507 C4501 1.363 . S
C4507 C4502 1.379 . S
C4507 N4505 1.356 . S
N4508 C4500 1.356 . S
N4508 H4514 0.984 . S
N4508 H4515 0.984 . S
N4509 C4502 1.356 . S
N4509 H4512 0.984 . S
N4509 H4513 0.985 . S
H4510 N4505 0.984 . S
H4511 N4505 0.985 . S
H4512 N4509 0.984 . S
H4513 N4509 0.985 . S
H4514 N4508 0.984 . S
H4515 N4508 0.984 . S
H4516 N4504 0.984 . S
H4517 N4504 0.985 . S
C4518 C4519 1.363 . S
C4518 C4524 1.379 . S
C4518 N4526 1.356 . S
C4519 C4518 1.363 . S
C4519 C4525 1.363 . S
C4520 C4521 1.363 . S
C4520 C4525 1.379 . S
C4520 N4527 1.356 . S
C4521 C4520 1.363 . S
C4521 C4524 1.363 . S
N4522 C4524 1.356 . S
N4522 H4534 0.984 . S
N4522 H4535 0.985 . S
N4523 C4525 1.356 . S
N4523 H4528 0.984 . S
N4523 H4529 0.985 . S
C4524 C4518 1.379 . S
C4524 C4521 1.363 . S
C4524 N4522 1.356 . S
C4525 C4519 1.363 . S
C4525 C4520 1.379 . S
C4525 N4523 1.356 . S
N4526 C4518 1.356 . S
N4526 H4532 0.984 . S
N4526 H4533 0.984 . S
N4527 C4520 1.356 . S
N4527 H4530 0.984 . S
N4527 H4531 0.985 . S
H4528 N4523 0.984 . S
H4529 N4523 0.985 . S
H4530 N4527 0.984 . S
H4531 N4527 0.985 . S
H4532 N4526 0.984 . S
H4533 N4526 0.984 . S
H4534 N4522 0.984 . S
H4535 N4522 0.985 . S
C4536 C4537 1.363 . S
C4536 C4542 1.379 . S
C4536 N4544 1.356 . S
C4537 C4536 1.363 . S
C4537 C4543 1.363 . S
C4538 C4539 1.363 . S
C4538 C4543 1.379 . S
C4538 N4545 1.356 . S
C4539 C4538 1.363 . S
C4539 C4542 1.363 . S
N4540 C4542 1.356 . S
N4540 H4552 0.984 . S
N4540 H4553 0.985 . S
N4541 C4543 1.356 . S
N4541 H4546 0.984 . S
N4541 H4547 0.985 . S
C4542 C4536 1.379 . S
C4542 C4539 1.363 . S
C4542 N4540 1.356 . S
C4543 C4537 1.363 . S
C4543 C4538 1.379 . S
C4543 N4541 1.356 . S
N4544 C4536 1.356 . S
N4544 H4550 0.984 . S
N4544 H4551 0.984 . S
N4545 C4538 1.356 . S
N4545 H4548 0.984 . S
N4545 H4549 0.985 . S
H4546 N4541 0.984 . S
H4547 N4541 0.985 . S
H4548 N4545 0.984 . S
H4549 N4545 0.985 . S
H4550 N4544 0.984 . S
H4551 N4544 0.984 . S
H4552 N4540 0.984 . S
H4553 N4540 0.985 . S
C4554 C4555 1.363 . S
C4554 C4560 1.379 . S
C4554 N4562 1.356 . S
C4555 C4554 1.363 . S
C4555 C4561 1.363 . S
C4556 C4557 1.363 . S
C4556 C4561 1.379 . S
C4556 N4563 1.356 . S
C4557 C4556 1.363 . S
C4557 C4560 1.363 . S
N4558 C4560 1.356 . S
N4558 H4570 0.984 . S
N4558 H4571 0.985 . S
N4559 C4561 1.356 . S
N4559 H4564 0.984 . S
N4559 H4565 0.985 . S
C4560 C4554 1.379 . S
C4560 C4557 1.363 . S
C4560 N4558 1.356 . S
C4561 C4555 1.363 . S
C4561 C4556 1.379 . S
C4561 N4559 1.356 . S
N4562 C4554 1.356 . S
N4562 H4568 0.984 . S
N4562 H4569 0.984 . S
N4563 C4556 1.356 . S
N4563 H4566 0.984 . S
N4563 H4567 0.985 . S
H4564 N4559 0.984 . S
H4565 N4559 0.985 . S
H4566 N4563 0.984 . S
H4567 N4563 0.985 . S
H4568 N4562 0.984 . S
H4569 N4562 0.984 . S
H4570 N4558 0.984 . S
H4571 N4558 0.985 . S
C4572 C4573 1.363 . S
C4572 C4578 1.379 1_545 S
C4572 N4580 1.356 . S
C4573 C4572 1.363 . S
C4573 C4579 1.363 . S
C4574 C4575 1.363 . S
C4574 C4579 1.379 1_565 S
C4574 N4581 1.356 . S
C4575 C4574 1.363 . S
C4575 C4578 1.363 . S
N4576 C4578 1.356 . S
N4576 H4588 0.984 . S
N4576 H4589 0.985 . S
N4577 C4579 1.356 . S
N4577 H4582 0.984 . S
N4577 H4583 0.985 . S
C4578 C4572 1.379 1_565 S
C4578 C4575 1.363 . S
C4578 N4576 1.356 . S
C4579 C4573 1.363 . S
C4579 C4574 1.379 1_545 S
C4579 N4577 1.356 . S
N4580 C4572 1.356 . S
N4580 H4586 0.984 . S
N4580 H4587 0.984 . S
N4581 C4574 1.356 . S
N4581 H4584 0.984 . S
N4581 H4585 0.985 . S
H4582 N4577 0.984 . S
H4583 N4577 0.985 . S
H4584 N4581 0.984 . S
H4585 N4581 0.985 . S
H4586 N4580 0.984 . S
H4587 N4580 0.984 . S
H4588 N4576 0.984 . S
H4589 N4576 0.985 . S
C4590 C4591 1.363 . S
C4590 C4596 1.379 . S
C4590 N4598 1.356 . S
C4591 C4590 1.363 . S
C4591 C4597 1.363 . S
C4592 C4593 1.363 . S
C4592 C4597 1.379 . S
C4592 N4599 1.356 . S
C4593 C4592 1.363 . S
C4593 C4596 1.363 . S
N4594 C4596 1.356 . S
N4594 H4606 0.984 . S
N4594 H4607 0.985 . S
N4595 C4597 1.356 . S
N4595 H4600 0.984 . S
N4595 H4601 0.985 . S
C4596 C4590 1.379 . S
C4596 C4593 1.363 . S
C4596 N4594 1.356 . S
C4597 C4591 1.363 . S
C4597 C4592 1.379 . S
C4597 N4595 1.356 . S
N4598 C4590 1.356 . S
N4598 H4604 0.984 . S
N4598 H4605 0.984 . S
N4599 C4592 1.356 . S
N4599 H4602 0.984 . S
N4599 H4603 0.985 . S
H4600 N4595 0.984 . S
H4601 N4595 0.985 . S
H4602 N4599 0.984 . S
H4603 N4599 0.985 . S
H4604 N4598 0.984 . S
H4605 N4598 0.984 . S
H4606 N4594 0.984 . S
H4607 N4594 0.985 . S
C4608 C4609 1.363 . S
C4608 C4614 1.379 . S
C4608 N4616 1.356 . S
C4609 C4608 1.363 . S
C4609 C4615 1.363 . S
C4610 C4611 1.363 . S
C4610 C4615 1.379 . S
C4610 N4617 1.356 . S
C4611 C4610 1.363 . S
C4611 C4614 1.363 . S
N4612 C4614 1.356 . S
N4612 H4624 0.984 . S
N4612 H4625 0.985 . S
N4613 C4615 1.356 . S
N4613 H4618 0.984 . S
N4613 H4619 0.985 . S
C4614 C4608 1.379 . S
C4614 C4611 1.363 . S
C4614 N4612 1.356 . S
C4615 C4609 1.363 . S
C4615 C4610 1.379 . S
C4615 N4613 1.356 . S
N4616 C4608 1.356 . S
N4616 H4622 0.984 . S
N4616 H4623 0.984 . S
N4617 C4610 1.356 . S
N4617 H4620 0.984 . S
N4617 H4621 0.985 . S
H4618 N4613 0.984 . S
H4619 N4613 0.985 . S
H4620 N4617 0.984 . S
H4621 N4617 0.985 . S
H4622 N4616 0.984 . S
H4623 N4616 0.984 . S
H4624 N4612 0.984 . S
H4625 N4612 0.985 . S
C4626 C4627 1.363 . S
C4626 C4632 1.379 . S
C4626 N4634 1.356 . S
C4627 C4626 1.363 . S
C4627 C4633 1.363 . S
C4628 C4629 1.363 . S
C4628 C4633 1.379 . S
C4628 N4635 1.356 . S
C4629 C4628 1.363 . S
C4629 C4632 1.363 . S
N4630 C4632 1.356 . S
N4630 H4642 0.984 . S
N4630 H4643 0.985 . S
N4631 C4633 1.356 . S
N4631 H4636 0.984 . S
N4631 H4637 0.985 . S
C4632 C4626 1.379 . S
C4632 C4629 1.363 . S
C4632 N4630 1.356 . S
C4633 C4627 1.363 . S
C4633 C4628 1.379 . S
C4633 N4631 1.356 . S
N4634 C4626 1.356 . S
N4634 H4640 0.984 . S
N4634 H4641 0.984 . S
N4635 C4628 1.356 . S
N4635 H4638 0.984 . S
N4635 H4639 0.985 . S
H4636 N4631 0.984 . S
H4637 N4631 0.985 . S
H4638 N4635 0.984 . S
H4639 N4635 0.985 . S
H4640 N4634 0.984 . S
H4641 N4634 0.984 . S
H4642 N4630 0.984 . S
H4643 N4630 0.985 . S
C4644 C4645 1.363 . S
C4644 C4650 1.379 1_545 S
C4644 N4652 1.356 . S
C4645 C4644 1.363 . S
C4645 C4651 1.363 . S
C4646 C4647 1.363 . S
C4646 C4651 1.379 1_565 S
C4646 N4653 1.356 . S
C4647 C4646 1.363 . S
C4647 C4650 1.363 . S
N4648 C4650 1.356 . S
N4648 H4660 0.984 . S
N4648 H4661 0.985 . S
N4649 C4651 1.356 . S
N4649 H4654 0.984 . S
N4649 H4655 0.985 . S
C4650 C4644 1.379 1_565 S
C4650 C4647 1.363 . S
C4650 N4648 1.356 . S
C4651 C4645 1.363 . S
C4651 C4646 1.379 1_545 S
C4651 N4649 1.356 . S
N4652 C4644 1.356 . S
N4652 H4658 0.984 . S
N4652 H4659 0.984 . S
N4653 C4646 1.356 . S
N4653 H4656 0.984 . S
N4653 H4657 0.985 . S
H4654 N4649 0.984 . S
H4655 N4649 0.985 . S
H4656 N4653 0.984 . S
H4657 N4653 0.985 . S
H4658 N4652 0.984 . S
H4659 N4652 0.984 . S
H4660 N4648 0.984 . S
H4661 N4648 0.985 . S
C4662 C4663 1.363 . S
C4662 C4668 1.379 . S
C4662 N4670 1.356 . S
C4663 C4662 1.363 . S
C4663 C4669 1.363 . S
C4664 C4665 1.363 . S
C4664 C4669 1.379 . S
C4664 N4671 1.356 . S
C4665 C4664 1.363 . S
C4665 C4668 1.363 . S
N4666 C4668 1.356 . S
N4666 H4678 0.984 . S
N4666 H4679 0.985 . S
N4667 C4669 1.356 . S
N4667 H4672 0.984 . S
N4667 H4673 0.985 . S
C4668 C4662 1.379 . S
C4668 C4665 1.363 . S
C4668 N4666 1.356 . S
C4669 C4663 1.363 . S
C4669 C4664 1.379 . S
C4669 N4667 1.356 . S
N4670 C4662 1.356 . S
N4670 H4676 0.984 . S
N4670 H4677 0.984 . S
N4671 C4664 1.356 . S
N4671 H4674 0.984 . S
N4671 H4675 0.985 . S
H4672 N4667 0.984 . S
H4673 N4667 0.985 . S
H4674 N4671 0.984 . S
H4675 N4671 0.985 . S
H4676 N4670 0.984 . S
H4677 N4670 0.984 . S
H4678 N4666 0.984 . S
H4679 N4666 0.985 . S
C4680 C4681 1.363 . S
C4680 C4686 1.379 . S
C4680 N4688 1.356 . S
C4681 C4680 1.363 . S
C4681 C4687 1.363 . S
C4682 C4683 1.363 . S
C4682 C4687 1.379 . S
C4682 N4689 1.356 . S
C4683 C4682 1.363 . S
C4683 C4686 1.363 . S
N4684 C4686 1.356 . S
N4684 H4696 0.984 . S
N4684 H4697 0.985 . S
N4685 C4687 1.356 . S
N4685 H4690 0.984 . S
N4685 H4691 0.985 . S
C4686 C4680 1.379 . S
C4686 C4683 1.363 . S
C4686 N4684 1.356 . S
C4687 C4681 1.363 . S
C4687 C4682 1.379 . S
C4687 N4685 1.356 . S
N4688 C4680 1.356 . S
N4688 H4694 0.984 . S
N4688 H4695 0.984 . S
N4689 C4682 1.356 . S
N4689 H4692 0.984 . S
N4689 H4693 0.985 . S
H4690 N4685 0.984 . S
H4691 N4685 0.985 . S
H4692 N4689 0.984 . S
H4693 N4689 0.985 . S
H4694 N4688 0.984 . S
H4695 N4688 0.984 . S
H4696 N4684 0.984 . S
H4697 N4684 0.985 . S
C4698 C4699 1.363 . S
C4698 C4704 1.379 . S
C4698 N4706 1.356 . S
C4699 C4698 1.363 . S
C4699 C4705 1.363 . S
C4700 C4701 1.363 . S
C4700 C4705 1.379 . S
C4700 N4707 1.356 . S
C4701 C4700 1.363 . S
C4701 C4704 1.363 . S
N4702 C4704 1.356 . S
N4702 H4714 0.984 . S
N4702 H4715 0.985 . S
N4703 C4705 1.356 . S
N4703 H4708 0.984 . S
N4703 H4709 0.985 . S
C4704 C4698 1.379 . S
C4704 C4701 1.363 . S
C4704 N4702 1.356 . S
C4705 C4699 1.363 . S
C4705 C4700 1.379 . S
C4705 N4703 1.356 . S
N4706 C4698 1.356 . S
N4706 H4712 0.984 . S
N4706 H4713 0.984 . S
N4707 C4700 1.356 . S
N4707 H4710 0.984 . S
N4707 H4711 0.985 . S
H4708 N4703 0.984 . S
H4709 N4703 0.985 . S
H4710 N4707 0.984 . S
H4711 N4707 0.985 . S
H4712 N4706 0.984 . S
H4713 N4706 0.984 . S
H4714 N4702 0.984 . S
H4715 N4702 0.985 . S
C4716 C4717 1.363 . S
C4716 C4722 1.379 . S
C4716 N4724 1.356 . S
C4717 C4716 1.363 . S
C4717 C4723 1.363 . S
C4718 C4719 1.363 . S
C4718 C4723 1.379 . S
C4718 N4725 1.356 . S
C4719 C4718 1.363 . S
C4719 C4722 1.363 . S
N4720 C4722 1.356 . S
N4720 H4732 0.984 . S
N4720 H4733 0.985 . S
N4721 C4723 1.356 . S
N4721 H4726 0.984 . S
N4721 H4727 0.985 . S
C4722 C4716 1.379 . S
C4722 C4719 1.363 . S
C4722 N4720 1.356 . S
C4723 C4717 1.363 . S
C4723 C4718 1.379 . S
C4723 N4721 1.356 . S
N4724 C4716 1.356 . S
N4724 H4730 0.984 . S
N4724 H4731 0.984 . S
N4725 C4718 1.356 . S
N4725 H4728 0.984 . S
N4725 H4729 0.985 . S
H4726 N4721 0.984 . S
H4727 N4721 0.985 . S
H4728 N4725 0.984 . S
H4729 N4725 0.985 . S
H4730 N4724 0.984 . S
H4731 N4724 0.984 . S
H4732 N4720 0.984 . S
H4733 N4720 0.985 . S
C4734 C4735 1.363 . S
C4734 C4740 1.379 . S
C4734 N4742 1.356 . S
C4735 C4734 1.363 . S
C4735 C4741 1.363 . S
C4736 C4737 1.363 . S
C4736 C4741 1.379 . S
C4736 N4743 1.356 . S
C4737 C4736 1.363 . S
C4737 C4740 1.363 . S
N4738 C4740 1.356 . S
N4738 H4750 0.984 . S
N4738 H4751 0.985 . S
N4739 C4741 1.356 . S
N4739 H4744 0.984 . S
N4739 H4745 0.985 . S
C4740 C4734 1.379 . S
C4740 C4737 1.363 . S
C4740 N4738 1.356 . S
C4741 C4735 1.363 . S
C4741 C4736 1.379 . S
C4741 N4739 1.356 . S
N4742 C4734 1.356 . S
N4742 H4748 0.984 . S
N4742 H4749 0.984 . S
N4743 C4736 1.356 . S
N4743 H4746 0.984 . S
N4743 H4747 0.985 . S
H4744 N4739 0.984 . S
H4745 N4739 0.985 . S
H4746 N4743 0.984 . S
H4747 N4743 0.985 . S
H4748 N4742 0.984 . S
H4749 N4742 0.984 . S
H4750 N4738 0.984 . S
H4751 N4738 0.985 . S
C4752 C4753 1.363 . S
C4752 C4758 1.379 1_565 S
C4752 N4760 1.356 . S
C4753 C4752 1.363 . S
C4753 C4759 1.363 . S
C4754 C4755 1.363 . S
C4754 C4759 1.379 1_545 S
C4754 N4761 1.356 . S
C4755 C4754 1.363 . S
C4755 C4758 1.363 . S
N4756 C4758 1.356 . S
N4756 H4768 0.984 . S
N4756 H4769 0.985 . S
N4757 C4759 1.356 . S
N4757 H4762 0.984 . S
N4757 H4763 0.985 . S
C4758 C4752 1.379 1_545 S
C4758 C4755 1.363 . S
C4758 N4756 1.356 . S
C4759 C4753 1.363 . S
C4759 C4754 1.379 1_565 S
C4759 N4757 1.356 . S
N4760 C4752 1.356 . S
N4760 H4766 0.984 . S
N4760 H4767 0.984 . S
N4761 C4754 1.356 . S
N4761 H4764 0.984 . S
N4761 H4765 0.985 . S
H4762 N4757 0.984 . S
H4763 N4757 0.985 . S
H4764 N4761 0.984 . S
H4765 N4761 0.985 . S
H4766 N4760 0.984 . S
H4767 N4760 0.984 . S
H4768 N4756 0.984 . S
H4769 N4756 0.985 . S
C4770 C4771 1.363 . S
C4770 C4776 1.379 . S
C4770 N4778 1.356 . S
C4771 C4770 1.363 . S
C4771 C4777 1.363 . S
C4772 C4773 1.363 . S
C4772 C4777 1.379 . S
C4772 N4779 1.356 . S
C4773 C4772 1.363 . S
C4773 C4776 1.363 . S
N4774 C4776 1.356 . S
N4774 H4786 0.984 . S
N4774 H4787 0.985 . S
N4775 C4777 1.356 . S
N4775 H4780 0.984 . S
N4775 H4781 0.985 . S
C4776 C4770 1.379 . S
C4776 C4773 1.363 . S
C4776 N4774 1.356 . S
C4777 C4771 1.363 . S
C4777 C4772 1.379 . S
C4777 N4775 1.356 . S
N4778 C4770 1.356 . S
N4778 H4784 0.984 . S
N4778 H4785 0.984 . S
N4779 C4772 1.356 . S
N4779 H4782 0.984 . S
N4779 H4783 0.985 . S
H4780 N4775 0.984 . S
H4781 N4775 0.985 . S
H4782 N4779 0.984 . S
H4783 N4779 0.985 . S
H4784 N4778 0.984 . S
H4785 N4778 0.984 . S
H4786 N4774 0.984 . S
H4787 N4774 0.985 . S
C4788 C4789 1.363 . S
C4788 C4794 1.379 . S
C4788 N4796 1.356 . S
C4789 C4788 1.363 . S
C4789 C4795 1.363 . S
C4790 C4791 1.363 . S
C4790 C4795 1.379 . S
C4790 N4797 1.356 . S
C4791 C4790 1.363 . S
C4791 C4794 1.363 . S
N4792 C4794 1.356 . S
N4792 H4804 0.984 . S
N4792 H4805 0.985 . S
N4793 C4795 1.356 . S
N4793 H4798 0.984 . S
N4793 H4799 0.985 . S
C4794 C4788 1.379 . S
C4794 C4791 1.363 . S
C4794 N4792 1.356 . S
C4795 C4789 1.363 . S
C4795 C4790 1.379 . S
C4795 N4793 1.356 . S
N4796 C4788 1.356 . S
N4796 H4802 0.984 . S
N4796 H4803 0.984 . S
N4797 C4790 1.356 . S
N4797 H4800 0.984 . S
N4797 H4801 0.985 . S
H4798 N4793 0.984 . S
H4799 N4793 0.985 . S
H4800 N4797 0.984 . S
H4801 N4797 0.985 . S
H4802 N4796 0.984 . S
H4803 N4796 0.984 . S
H4804 N4792 0.984 . S
H4805 N4792 0.985 . S
C4806 C4807 1.363 . S
C4806 C4812 1.379 . S
C4806 N4814 1.356 . S
C4807 C4806 1.363 . S
C4807 C4813 1.363 . S
C4808 C4809 1.363 . S
C4808 C4813 1.379 . S
C4808 N4815 1.356 . S
C4809 C4808 1.363 . S
C4809 C4812 1.363 . S
N4810 C4812 1.356 . S
N4810 H4822 0.984 . S
N4810 H4823 0.985 . S
N4811 C4813 1.356 . S
N4811 H4816 0.984 . S
N4811 H4817 0.985 . S
C4812 C4806 1.379 . S
C4812 C4809 1.363 . S
C4812 N4810 1.356 . S
C4813 C4807 1.363 . S
C4813 C4808 1.379 . S
C4813 N4811 1.356 . S
N4814 C4806 1.356 . S
N4814 H4820 0.984 . S
N4814 H4821 0.984 . S
N4815 C4808 1.356 . S
N4815 H4818 0.984 . S
N4815 H4819 0.985 . S
H4816 N4811 0.984 . S
H4817 N4811 0.985 . S
H4818 N4815 0.984 . S
H4819 N4815 0.985 . S
H4820 N4814 0.984 . S
H4821 N4814 0.984 . S
H4822 N4810 0.984 . S
H4823 N4810 0.985 . S
C4824 C4825 1.363 . S
C4824 C4830 1.379 . S
C4824 N4832 1.356 . S
C4825 C4824 1.363 . S
C4825 C4831 1.363 . S
C4826 C4827 1.363 . S
C4826 C4831 1.379 . S
C4826 N4833 1.356 . S
C4827 C4826 1.363 . S
C4827 C4830 1.363 . S
N4828 C4830 1.356 . S
N4828 H4840 0.984 . S
N4828 H4841 0.985 . S
N4829 C4831 1.356 . S
N4829 H4834 0.984 . S
N4829 H4835 0.985 . S
C4830 C4824 1.379 . S
C4830 C4827 1.363 . S
C4830 N4828 1.356 . S
C4831 C4825 1.363 . S
C4831 C4826 1.379 . S
C4831 N4829 1.356 . S
N4832 C4824 1.356 . S
N4832 H4838 0.984 . S
N4832 H4839 0.984 . S
N4833 C4826 1.356 . S
N4833 H4836 0.984 . S
N4833 H4837 0.985 . S
H4834 N4829 0.984 . S
H4835 N4829 0.985 . S
H4836 N4833 0.984 . S
H4837 N4833 0.985 . S
H4838 N4832 0.984 . S
H4839 N4832 0.984 . S
H4840 N4828 0.984 . S
H4841 N4828 0.985 . S
C4842 C4843 1.363 . S
C4842 C4848 1.379 . S
C4842 N4850 1.356 . S
C4843 C4842 1.363 . S
C4843 C4849 1.363 . S
C4844 C4845 1.363 . S
C4844 C4849 1.379 . S
C4844 N4851 1.356 . S
C4845 C4844 1.363 . S
C4845 C4848 1.363 . S
N4846 C4848 1.356 . S
N4846 H4858 0.984 . S
N4846 H4859 0.985 . S
N4847 C4849 1.356 . S
N4847 H4852 0.984 . S
N4847 H4853 0.985 . S
C4848 C4842 1.379 . S
C4848 C4845 1.363 . S
C4848 N4846 1.356 . S
C4849 C4843 1.363 . S
C4849 C4844 1.379 . S
C4849 N4847 1.356 . S
N4850 C4842 1.356 . S
N4850 H4856 0.984 . S
N4850 H4857 0.984 . S
N4851 C4844 1.356 . S
N4851 H4854 0.984 . S
N4851 H4855 0.985 . S
H4852 N4847 0.984 . S
H4853 N4847 0.985 . S
H4854 N4851 0.984 . S
H4855 N4851 0.985 . S
H4856 N4850 0.984 . S
H4857 N4850 0.984 . S
H4858 N4846 0.984 . S
H4859 N4846 0.985 . S
C4860 C4861 1.363 . S
C4860 C4866 1.379 . S
C4860 N4868 1.356 . S
C4861 C4860 1.363 . S
C4861 C4867 1.363 . S
C4862 C4863 1.363 . S
C4862 C4867 1.379 . S
C4862 N4869 1.356 . S
C4863 C4862 1.363 . S
C4863 C4866 1.363 . S
N4864 C4866 1.356 . S
N4864 H4876 0.984 . S
N4864 H4877 0.985 . S
N4865 C4867 1.356 . S
N4865 H4870 0.984 . S
N4865 H4871 0.985 . S
C4866 C4860 1.379 . S
C4866 C4863 1.363 . S
C4866 N4864 1.356 . S
C4867 C4861 1.363 . S
C4867 C4862 1.379 . S
C4867 N4865 1.356 . S
N4868 C4860 1.356 . S
N4868 H4874 0.984 . S
N4868 H4875 0.984 . S
N4869 C4862 1.356 . S
N4869 H4872 0.984 . S
N4869 H4873 0.985 . S
H4870 N4865 0.984 . S
H4871 N4865 0.985 . S
H4872 N4869 0.984 . S
H4873 N4869 0.985 . S
H4874 N4868 0.984 . S
H4875 N4868 0.984 . S
H4876 N4864 0.984 . S
H4877 N4864 0.985 . S
C4878 C4879 1.363 . S
C4878 C4884 1.379 . S
C4878 N4886 1.356 . S
C4879 C4878 1.363 . S
C4879 C4885 1.363 . S
C4880 C4881 1.363 . S
C4880 C4885 1.379 . S
C4880 N4887 1.356 . S
C4881 C4880 1.363 . S
C4881 C4884 1.363 . S
N4882 C4884 1.356 . S
N4882 H4894 0.984 . S
N4882 H4895 0.985 . S
N4883 C4885 1.356 . S
N4883 H4888 0.984 . S
N4883 H4889 0.985 . S
C4884 C4878 1.379 . S
C4884 C4881 1.363 . S
C4884 N4882 1.356 . S
C4885 C4879 1.363 . S
C4885 C4880 1.379 . S
C4885 N4883 1.356 . S
N4886 C4878 1.356 . S
N4886 H4892 0.984 . S
N4886 H4893 0.984 . S
N4887 C4880 1.356 . S
N4887 H4890 0.984 . S
N4887 H4891 0.985 . S
H4888 N4883 0.984 . S
H4889 N4883 0.985 . S
H4890 N4887 0.984 . S
H4891 N4887 0.985 . S
H4892 N4886 0.984 . S
H4893 N4886 0.984 . S
H4894 N4882 0.984 . S
H4895 N4882 0.985 . S
C4896 C4897 1.363 . S
C4896 C4902 1.379 . S
C4896 N4904 1.356 . S
C4897 C4896 1.363 . S
C4897 C4903 1.363 . S
C4898 C4899 1.363 . S
C4898 C4903 1.379 . S
C4898 N4905 1.356 . S
C4899 C4898 1.363 . S
C4899 C4902 1.363 . S
N4900 C4902 1.356 . S
N4900 H4912 0.984 . S
N4900 H4913 0.985 . S
N4901 C4903 1.356 . S
N4901 H4906 0.984 . S
N4901 H4907 0.985 . S
C4902 C4896 1.379 . S
C4902 C4899 1.363 . S
C4902 N4900 1.356 . S
C4903 C4897 1.363 . S
C4903 C4898 1.379 . S
C4903 N4901 1.356 . S
N4904 C4896 1.356 . S
N4904 H4910 0.984 . S
N4904 H4911 0.984 . S
N4905 C4898 1.356 . S
N4905 H4908 0.984 . S
N4905 H4909 0.985 . S
H4906 N4901 0.984 . S
H4907 N4901 0.985 . S
H4908 N4905 0.984 . S
H4909 N4905 0.985 . S
H4910 N4904 0.984 . S
H4911 N4904 0.984 . S
H4912 N4900 0.984 . S
H4913 N4900 0.985 . S
C4914 C4915 1.363 . S
C4914 C4920 1.379 . S
C4914 N4922 1.356 . S
C4915 C4914 1.363 . S
C4915 C4921 1.363 . S
C4916 C4917 1.363 . S
C4916 C4921 1.379 . S
C4916 N4923 1.356 . S
C4917 C4916 1.363 . S
C4917 C4920 1.363 . S
N4918 C4920 1.356 . S
N4918 H4930 0.984 . S
N4918 H4931 0.985 . S
N4919 C4921 1.356 . S
N4919 H4924 0.984 . S
N4919 H4925 0.985 . S
C4920 C4914 1.379 . S
C4920 C4917 1.363 . S
C4920 N4918 1.356 . S
C4921 C4915 1.363 . S
C4921 C4916 1.379 . S
C4921 N4919 1.356 . S
N4922 C4914 1.356 . S
N4922 H4928 0.984 . S
N4922 H4929 0.984 . S
N4923 C4916 1.356 . S
N4923 H4926 0.984 . S
N4923 H4927 0.985 . S
H4924 N4919 0.984 . S
H4925 N4919 0.985 . S
H4926 N4923 0.984 . S
H4927 N4923 0.985 . S
H4928 N4922 0.984 . S
H4929 N4922 0.984 . S
H4930 N4918 0.984 . S
H4931 N4918 0.985 . S
C4932 C4933 1.363 . S
C4932 C4938 1.379 . S
C4932 N4940 1.356 . S
C4933 C4932 1.363 . S
C4933 C4939 1.363 . S
C4934 C4935 1.363 . S
C4934 C4939 1.379 . S
C4934 N4941 1.356 . S
C4935 C4934 1.363 . S
C4935 C4938 1.363 . S
N4936 C4938 1.356 . S
N4936 H4948 0.984 . S
N4936 H4949 0.985 . S
N4937 C4939 1.356 . S
N4937 H4942 0.984 . S
N4937 H4943 0.985 . S
C4938 C4932 1.379 . S
C4938 C4935 1.363 . S
C4938 N4936 1.356 . S
C4939 C4933 1.363 . S
C4939 C4934 1.379 . S
C4939 N4937 1.356 . S
N4940 C4932 1.356 . S
N4940 H4946 0.984 . S
N4940 H4947 0.984 . S
N4941 C4934 1.356 . S
N4941 H4944 0.984 . S
N4941 H4945 0.985 . S
H4942 N4937 0.984 . S
H4943 N4937 0.985 . S
H4944 N4941 0.984 . S
H4945 N4941 0.985 . S
H4946 N4940 0.984 . S
H4947 N4940 0.984 . S
H4948 N4936 0.984 . S
H4949 N4936 0.985 . S
C4950 C4951 1.363 . S
C4950 C4956 1.379 . S
C4950 N4958 1.356 . S
C4951 C4950 1.363 . S
C4951 C4957 1.363 . S
C4952 C4953 1.363 . S
C4952 C4957 1.379 . S
C4952 N4959 1.356 . S
C4953 C4952 1.363 . S
C4953 C4956 1.363 . S
N4954 C4956 1.356 . S
N4954 H4966 0.984 . S
N4954 H4967 0.985 . S
N4955 C4957 1.356 . S
N4955 H4960 0.984 . S
N4955 H4961 0.985 . S
C4956 C4950 1.379 . S
C4956 C4953 1.363 . S
C4956 N4954 1.356 . S
C4957 C4951 1.363 . S
C4957 C4952 1.379 . S
C4957 N4955 1.356 . S
N4958 C4950 1.356 . S
N4958 H4964 0.984 . S
N4958 H4965 0.984 . S
N4959 C4952 1.356 . S
N4959 H4962 0.984 . S
N4959 H4963 0.985 . S
H4960 N4955 0.984 . S
H4961 N4955 0.985 . S
H4962 N4959 0.984 . S
H4963 N4959 0.985 . S
H4964 N4958 0.984 . S
H4965 N4958 0.984 . S
H4966 N4954 0.984 . S
H4967 N4954 0.985 . S
C4968 C4969 1.363 . S
C4968 C4974 1.379 . S
C4968 N4976 1.356 . S
C4969 C4968 1.363 . S
C4969 C4975 1.363 . S
C4970 C4971 1.363 . S
C4970 C4975 1.379 . S
C4970 N4977 1.356 . S
C4971 C4970 1.363 . S
C4971 C4974 1.363 . S
N4972 C4974 1.356 . S
N4972 H4984 0.984 . S
N4972 H4985 0.985 . S
N4973 C4975 1.356 . S
N4973 H4978 0.984 . S
N4973 H4979 0.985 . S
C4974 C4968 1.379 . S
C4974 C4971 1.363 . S
C4974 N4972 1.356 . S
C4975 C4969 1.363 . S
C4975 C4970 1.379 . S
C4975 N4973 1.356 . S
N4976 C4968 1.356 . S
N4976 H4982 0.984 . S
N4976 H4983 0.984 . S
N4977 C4970 1.356 . S
N4977 H4980 0.984 . S
N4977 H4981 0.985 . S
H4978 N4973 0.984 . S
H4979 N4973 0.985 . S
H4980 N4977 0.984 . S
H4981 N4977 0.985 . S
H4982 N4976 0.984 . S
H4983 N4976 0.984 . S
H4984 N4972 0.984 . S
H4985 N4972 0.985 . S
C4986 C4987 1.363 . S
C4986 C4992 1.379 . S
C4986 N4994 1.356 . S
C4987 C4986 1.363 . S
C4987 C4993 1.363 . S
C4988 C4989 1.363 . S
C4988 C4993 1.379 . S
C4988 N4995 1.356 . S
C4989 C4988 1.363 . S
C4989 C4992 1.363 . S
N4990 C4992 1.356 . S
N4990 H5002 0.984 . S
N4990 H5003 0.985 . S
N4991 C4993 1.356 . S
N4991 H4996 0.984 . S
N4991 H4997 0.985 . S
C4992 C4986 1.379 . S
C4992 C4989 1.363 . S
C4992 N4990 1.356 . S
C4993 C4987 1.363 . S
C4993 C4988 1.379 . S
C4993 N4991 1.356 . S
N4994 C4986 1.356 . S
N4994 H5000 0.984 . S
N4994 H5001 0.984 . S
N4995 C4988 1.356 . S
N4995 H4998 0.984 . S
N4995 H4999 0.985 . S
H4996 N4991 0.984 . S
H4997 N4991 0.985 . S
H4998 N4995 0.984 . S
H4999 N4995 0.985 . S
H5000 N4994 0.984 . S
H5001 N4994 0.984 . S
H5002 N4990 0.984 . S
H5003 N4990 0.985 . S
C5004 C5005 1.363 . S
C5004 C5010 1.379 . S
C5004 N5012 1.356 . S
C5005 C5004 1.363 . S
C5005 C5011 1.363 . S
C5006 C5007 1.363 . S
C5006 C5011 1.379 . S
C5006 N5013 1.356 . S
C5007 C5006 1.363 . S
C5007 C5010 1.363 . S
N5008 C5010 1.356 . S
N5008 H5020 0.984 . S
N5008 H5021 0.985 . S
N5009 C5011 1.356 . S
N5009 H5014 0.984 . S
N5009 H5015 0.985 . S
C5010 C5004 1.379 . S
C5010 C5007 1.363 . S
C5010 N5008 1.356 . S
C5011 C5005 1.363 . S
C5011 C5006 1.379 . S
C5011 N5009 1.356 . S
N5012 C5004 1.356 . S
N5012 H5018 0.984 . S
N5012 H5019 0.984 . S
N5013 C5006 1.356 . S
N5013 H5016 0.984 . S
N5013 H5017 0.985 . S
H5014 N5009 0.984 . S
H5015 N5009 0.985 . S
H5016 N5013 0.984 . S
H5017 N5013 0.985 . S
H5018 N5012 0.984 . S
H5019 N5012 0.984 . S
H5020 N5008 0.984 . S
H5021 N5008 0.985 . S
C5022 C5023 1.363 . S
C5022 C5028 1.379 . S
C5022 N5030 1.356 . S
C5023 C5022 1.363 . S
C5023 C5029 1.363 . S
C5024 C5025 1.363 . S
C5024 C5029 1.379 . S
C5024 N5031 1.356 . S
C5025 C5024 1.363 . S
C5025 C5028 1.363 . S
N5026 C5028 1.356 . S
N5026 H5038 0.984 . S
N5026 H5039 0.985 . S
N5027 C5029 1.356 . S
N5027 H5032 0.984 . S
N5027 H5033 0.985 . S
C5028 C5022 1.379 . S
C5028 C5025 1.363 . S
C5028 N5026 1.356 . S
C5029 C5023 1.363 . S
C5029 C5024 1.379 . S
C5029 N5027 1.356 . S
N5030 C5022 1.356 . S
N5030 H5036 0.984 . S
N5030 H5037 0.984 . S
N5031 C5024 1.356 . S
N5031 H5034 0.984 . S
N5031 H5035 0.985 . S
H5032 N5027 0.984 . S
H5033 N5027 0.985 . S
H5034 N5031 0.984 . S
H5035 N5031 0.985 . S
H5036 N5030 0.984 . S
H5037 N5030 0.984 . S
H5038 N5026 0.984 . S
H5039 N5026 0.985 . S
C5040 C5041 1.363 . S
C5040 C5046 1.379 . S
C5040 N5048 1.356 . S
C5041 C5040 1.363 . S
C5041 C5047 1.363 . S
C5042 C5043 1.363 . S
C5042 C5047 1.379 . S
C5042 N5049 1.356 . S
C5043 C5042 1.363 . S
C5043 C5046 1.363 . S
N5044 C5046 1.356 . S
N5044 H5056 0.984 . S
N5044 H5057 0.985 . S
N5045 C5047 1.356 . S
N5045 H5050 0.984 . S
N5045 H5051 0.985 . S
C5046 C5040 1.379 . S
C5046 C5043 1.363 . S
C5046 N5044 1.356 . S
C5047 C5041 1.363 . S
C5047 C5042 1.379 . S
C5047 N5045 1.356 . S
N5048 C5040 1.356 . S
N5048 H5054 0.984 . S
N5048 H5055 0.984 . S
N5049 C5042 1.356 . S
N5049 H5052 0.984 . S
N5049 H5053 0.985 . S
H5050 N5045 0.984 . S
H5051 N5045 0.985 . S
H5052 N5049 0.984 . S
H5053 N5049 0.985 . S
H5054 N5048 0.984 . S
H5055 N5048 0.984 . S
H5056 N5044 0.984 . S
H5057 N5044 0.985 . S
C5058 C5059 1.363 . S
C5058 C5064 1.379 . S
C5058 N5066 1.356 . S
C5059 C5058 1.363 . S
C5059 C5065 1.363 . S
C5060 C5061 1.363 . S
C5060 C5065 1.379 . S
C5060 N5067 1.356 . S
C5061 C5060 1.363 . S
C5061 C5064 1.363 . S
N5062 C5064 1.356 . S
N5062 H5074 0.984 . S
N5062 H5075 0.985 . S
N5063 C5065 1.356 . S
N5063 H5068 0.984 . S
N5063 H5069 0.985 . S
C5064 C5058 1.379 . S
C5064 C5061 1.363 . S
C5064 N5062 1.356 . S
C5065 C5059 1.363 . S
C5065 C5060 1.379 . S
C5065 N5063 1.356 . S
N5066 C5058 1.356 . S
N5066 H5072 0.984 . S
N5066 H5073 0.984 . S
N5067 C5060 1.356 . S
N5067 H5070 0.984 . S
N5067 H5071 0.985 . S
H5068 N5063 0.984 . S
H5069 N5063 0.985 . S
H5070 N5067 0.984 . S
H5071 N5067 0.985 . S
H5072 N5066 0.984 . S
H5073 N5066 0.984 . S
H5074 N5062 0.984 . S
H5075 N5062 0.985 . S
C5076 C5077 1.363 . S
C5076 C5082 1.379 . S
C5076 N5084 1.356 . S
C5077 C5076 1.363 . S
C5077 C5083 1.363 . S
C5078 C5079 1.363 . S
C5078 C5083 1.379 . S
C5078 N5085 1.356 . S
C5079 C5078 1.363 . S
C5079 C5082 1.363 . S
N5080 C5082 1.356 . S
N5080 H5092 0.984 . S
N5080 H5093 0.985 . S
N5081 C5083 1.356 . S
N5081 H5086 0.984 . S
N5081 H5087 0.985 . S
C5082 C5076 1.379 . S
C5082 C5079 1.363 . S
C5082 N5080 1.356 . S
C5083 C5077 1.363 . S
C5083 C5078 1.379 . S
C5083 N5081 1.356 . S
N5084 C5076 1.356 . S
N5084 H5090 0.984 . S
N5084 H5091 0.984 . S
N5085 C5078 1.356 . S
N5085 H5088 0.984 . S
N5085 H5089 0.985 . S
H5086 N5081 0.984 . S
H5087 N5081 0.985 . S
H5088 N5085 0.984 . S
H5089 N5085 0.985 . S
H5090 N5084 0.984 . S
H5091 N5084 0.984 . S
H5092 N5080 0.984 . S
H5093 N5080 0.985 . S
C5094 C5095 1.363 . S
C5094 C5100 1.379 . S
C5094 N5102 1.356 . S
C5095 C5094 1.363 . S
C5095 C5101 1.363 . S
C5096 C5097 1.363 . S
C5096 C5101 1.379 . S
C5096 N5103 1.356 . S
C5097 C5096 1.363 . S
C5097 C5100 1.363 . S
N5098 C5100 1.356 . S
N5098 H5110 0.984 . S
N5098 H5111 0.985 . S
N5099 C5101 1.356 . S
N5099 H5104 0.984 . S
N5099 H5105 0.985 . S
C5100 C5094 1.379 . S
C5100 C5097 1.363 . S
C5100 N5098 1.356 . S
C5101 C5095 1.363 . S
C5101 C5096 1.379 . S
C5101 N5099 1.356 . S
N5102 C5094 1.356 . S
N5102 H5108 0.984 . S
N5102 H5109 0.984 . S
N5103 C5096 1.356 . S
N5103 H5106 0.984 . S
N5103 H5107 0.985 . S
H5104 N5099 0.984 . S
H5105 N5099 0.985 . S
H5106 N5103 0.984 . S
H5107 N5103 0.985 . S
H5108 N5102 0.984 . S
H5109 N5102 0.984 . S
H5110 N5098 0.984 . S
H5111 N5098 0.985 . S
C5112 C5113 1.363 . S
C5112 C5118 1.379 . S
C5112 N5120 1.356 . S
C5113 C5112 1.363 . S
C5113 C5119 1.363 . S
C5114 C5115 1.363 . S
C5114 C5119 1.379 . S
C5114 N5121 1.356 . S
C5115 C5114 1.363 . S
C5115 C5118 1.363 . S
N5116 C5118 1.356 . S
N5116 H5128 0.984 . S
N5116 H5129 0.985 . S
N5117 C5119 1.356 . S
N5117 H5122 0.984 . S
N5117 H5123 0.985 . S
C5118 C5112 1.379 . S
C5118 C5115 1.363 . S
C5118 N5116 1.356 . S
C5119 C5113 1.363 . S
C5119 C5114 1.379 . S
C5119 N5117 1.356 . S
N5120 C5112 1.356 . S
N5120 H5126 0.984 . S
N5120 H5127 0.984 . S
N5121 C5114 1.356 . S
N5121 H5124 0.984 . S
N5121 H5125 0.985 . S
H5122 N5117 0.984 . S
H5123 N5117 0.985 . S
H5124 N5121 0.984 . S
H5125 N5121 0.985 . S
H5126 N5120 0.984 . S
H5127 N5120 0.984 . S
H5128 N5116 0.984 . S
H5129 N5116 0.985 . S
C5130 C5131 1.363 . S
C5130 C5136 1.379 . S
C5130 N5138 1.356 . S
C5131 C5130 1.363 . S
C5131 C5137 1.363 . S
C5132 C5133 1.363 . S
C5132 C5137 1.379 . S
C5132 N5139 1.356 . S
C5133 C5132 1.363 . S
C5133 C5136 1.363 . S
N5134 C5136 1.356 . S
N5134 H5146 0.984 . S
N5134 H5147 0.985 . S
N5135 C5137 1.356 . S
N5135 H5140 0.984 . S
N5135 H5141 0.985 . S
C5136 C5130 1.379 . S
C5136 C5133 1.363 . S
C5136 N5134 1.356 . S
C5137 C5131 1.363 . S
C5137 C5132 1.379 . S
C5137 N5135 1.356 . S
N5138 C5130 1.356 . S
N5138 H5144 0.984 . S
N5138 H5145 0.984 . S
N5139 C5132 1.356 . S
N5139 H5142 0.984 . S
N5139 H5143 0.985 . S
H5140 N5135 0.984 . S
H5141 N5135 0.985 . S
H5142 N5139 0.984 . S
H5143 N5139 0.985 . S
H5144 N5138 0.984 . S
H5145 N5138 0.984 . S
H5146 N5134 0.984 . S
H5147 N5134 0.985 . S
C5148 C5149 1.363 . S
C5148 C5154 1.379 . S
C5148 N5156 1.356 . S
C5149 C5148 1.363 . S
C5149 C5155 1.363 . S
C5150 C5151 1.363 . S
C5150 C5155 1.379 . S
C5150 N5157 1.356 . S
C5151 C5150 1.363 . S
C5151 C5154 1.363 . S
N5152 C5154 1.356 . S
N5152 H5164 0.984 . S
N5152 H5165 0.985 . S
N5153 C5155 1.356 . S
N5153 H5158 0.984 . S
N5153 H5159 0.985 . S
C5154 C5148 1.379 . S
C5154 C5151 1.363 . S
C5154 N5152 1.356 . S
C5155 C5149 1.363 . S
C5155 C5150 1.379 . S
C5155 N5153 1.356 . S
N5156 C5148 1.356 . S
N5156 H5162 0.984 . S
N5156 H5163 0.984 . S
N5157 C5150 1.356 . S
N5157 H5160 0.984 . S
N5157 H5161 0.985 . S
H5158 N5153 0.984 . S
H5159 N5153 0.985 . S
H5160 N5157 0.984 . S
H5161 N5157 0.985 . S
H5162 N5156 0.984 . S
H5163 N5156 0.984 . S
H5164 N5152 0.984 . S
H5165 N5152 0.985 . S
C5166 C5167 1.363 . S
C5166 C5172 1.379 . S
C5166 N5174 1.356 . S
C5167 C5166 1.363 . S
C5167 C5173 1.363 . S
C5168 C5169 1.363 . S
C5168 C5173 1.379 . S
C5168 N5175 1.356 . S
C5169 C5168 1.363 . S
C5169 C5172 1.363 . S
N5170 C5172 1.356 . S
N5170 H5182 0.984 . S
N5170 H5183 0.985 . S
N5171 C5173 1.356 . S
N5171 H5176 0.984 . S
N5171 H5177 0.985 . S
C5172 C5166 1.379 . S
C5172 C5169 1.363 . S
C5172 N5170 1.356 . S
C5173 C5167 1.363 . S
C5173 C5168 1.379 . S
C5173 N5171 1.356 . S
N5174 C5166 1.356 . S
N5174 H5180 0.984 . S
N5174 H5181 0.984 . S
N5175 C5168 1.356 . S
N5175 H5178 0.984 . S
N5175 H5179 0.985 . S
H5176 N5171 0.984 . S
H5177 N5171 0.985 . S
H5178 N5175 0.984 . S
H5179 N5175 0.985 . S
H5180 N5174 0.984 . S
H5181 N5174 0.984 . S
H5182 N5170 0.984 . S
H5183 N5170 0.985 . S
C5184 C5185 1.363 . S
C5184 C5190 1.379 . S
C5184 N5192 1.356 . S
C5185 C5184 1.363 . S
C5185 C5191 1.363 . S
C5186 C5187 1.363 . S
C5186 C5191 1.379 . S
C5186 N5193 1.356 . S
C5187 C5186 1.363 . S
C5187 C5190 1.363 . S
N5188 C5190 1.356 . S
N5188 H5200 0.984 . S
N5188 H5201 0.985 . S
N5189 C5191 1.356 . S
N5189 H5194 0.984 . S
N5189 H5195 0.985 . S
C5190 C5184 1.379 . S
C5190 C5187 1.363 . S
C5190 N5188 1.356 . S
C5191 C5185 1.363 . S
C5191 C5186 1.379 . S
C5191 N5189 1.356 . S
N5192 C5184 1.356 . S
N5192 H5198 0.984 . S
N5192 H5199 0.984 . S
N5193 C5186 1.356 . S
N5193 H5196 0.984 . S
N5193 H5197 0.985 . S
H5194 N5189 0.984 . S
H5195 N5189 0.985 . S
H5196 N5193 0.984 . S
H5197 N5193 0.985 . S
H5198 N5192 0.984 . S
H5199 N5192 0.984 . S
H5200 N5188 0.984 . S
H5201 N5188 0.985 . S
C5202 C5203 1.363 . S
C5202 C5208 1.379 . S
C5202 N5210 1.356 . S
C5203 C5202 1.363 . S
C5203 C5209 1.363 . S
C5204 C5205 1.363 . S
C5204 C5209 1.379 . S
C5204 N5211 1.356 . S
C5205 C5204 1.363 . S
C5205 C5208 1.363 . S
N5206 C5208 1.356 . S
N5206 H5218 0.984 . S
N5206 H5219 0.985 . S
N5207 C5209 1.356 . S
N5207 H5212 0.984 . S
N5207 H5213 0.985 . S
C5208 C5202 1.379 . S
C5208 C5205 1.363 . S
C5208 N5206 1.356 . S
C5209 C5203 1.363 . S
C5209 C5204 1.379 . S
C5209 N5207 1.356 . S
N5210 C5202 1.356 . S
N5210 H5216 0.984 . S
N5210 H5217 0.984 . S
N5211 C5204 1.356 . S
N5211 H5214 0.984 . S
N5211 H5215 0.985 . S
H5212 N5207 0.984 . S
H5213 N5207 0.985 . S
H5214 N5211 0.984 . S
H5215 N5211 0.985 . S
H5216 N5210 0.984 . S
H5217 N5210 0.984 . S
H5218 N5206 0.984 . S
H5219 N5206 0.985 . S
C5220 C5221 1.363 . S
C5220 C5226 1.379 . S
C5220 N5228 1.356 . S
C5221 C5220 1.363 . S
C5221 C5227 1.363 . S
C5222 C5223 1.363 . S
C5222 C5227 1.379 . S
C5222 N5229 1.356 . S
C5223 C5222 1.363 . S
C5223 C5226 1.363 . S
N5224 C5226 1.356 . S
N5224 H5236 0.984 . S
N5224 H5237 0.985 . S
N5225 C5227 1.356 . S
N5225 H5230 0.984 . S
N5225 H5231 0.985 . S
C5226 C5220 1.379 . S
C5226 C5223 1.363 . S
C5226 N5224 1.356 . S
C5227 C5221 1.363 . S
C5227 C5222 1.379 . S
C5227 N5225 1.356 . S
N5228 C5220 1.356 . S
N5228 H5234 0.984 . S
N5228 H5235 0.984 . S
N5229 C5222 1.356 . S
N5229 H5232 0.984 . S
N5229 H5233 0.985 . S
H5230 N5225 0.984 . S
H5231 N5225 0.985 . S
H5232 N5229 0.984 . S
H5233 N5229 0.985 . S
H5234 N5228 0.984 . S
H5235 N5228 0.984 . S
H5236 N5224 0.984 . S
H5237 N5224 0.985 . S
C5238 C5239 1.363 . S
C5238 C5244 1.379 . S
C5238 N5246 1.356 . S
C5239 C5238 1.363 . S
C5239 C5245 1.363 . S
C5240 C5241 1.363 . S
C5240 C5245 1.379 . S
C5240 N5247 1.356 . S
C5241 C5240 1.363 . S
C5241 C5244 1.363 . S
N5242 C5244 1.356 . S
N5242 H5254 0.984 . S
N5242 H5255 0.985 . S
N5243 C5245 1.356 . S
N5243 H5248 0.984 . S
N5243 H5249 0.985 . S
C5244 C5238 1.379 . S
C5244 C5241 1.363 . S
C5244 N5242 1.356 . S
C5245 C5239 1.363 . S
C5245 C5240 1.379 . S
C5245 N5243 1.356 . S
N5246 C5238 1.356 . S
N5246 H5252 0.984 . S
N5246 H5253 0.984 . S
N5247 C5240 1.356 . S
N5247 H5250 0.984 . S
N5247 H5251 0.985 . S
H5248 N5243 0.984 . S
H5249 N5243 0.985 . S
H5250 N5247 0.984 . S
H5251 N5247 0.985 . S
H5252 N5246 0.984 . S
H5253 N5246 0.984 . S
H5254 N5242 0.984 . S
H5255 N5242 0.985 . S
C5256 C5257 1.363 . S
C5256 C5262 1.379 . S
C5256 N5264 1.356 . S
C5257 C5256 1.363 . S
C5257 C5263 1.363 . S
C5258 C5259 1.363 . S
C5258 C5263 1.379 . S
C5258 N5265 1.356 . S
C5259 C5258 1.363 . S
C5259 C5262 1.363 . S
N5260 C5262 1.356 . S
N5260 H5272 0.984 . S
N5260 H5273 0.985 . S
N5261 C5263 1.356 . S
N5261 H5266 0.984 . S
N5261 H5267 0.985 . S
C5262 C5256 1.379 . S
C5262 C5259 1.363 . S
C5262 N5260 1.356 . S
C5263 C5257 1.363 . S
C5263 C5258 1.379 . S
C5263 N5261 1.356 . S
N5264 C5256 1.356 . S
N5264 H5270 0.984 . S
N5264 H5271 0.984 . S
N5265 C5258 1.356 . S
N5265 H5268 0.984 . S
N5265 H5269 0.985 . S
H5266 N5261 0.984 . S
H5267 N5261 0.985 . S
H5268 N5265 0.984 . S
H5269 N5265 0.985 . S
H5270 N5264 0.984 . S
H5271 N5264 0.984 . S
H5272 N5260 0.984 . S
H5273 N5260 0.985 . S
C5274 C5275 1.363 . S
C5274 C5280 1.379 . S
C5274 N5282 1.356 . S
C5275 C5274 1.363 . S
C5275 C5281 1.363 . S
C5276 C5277 1.363 . S
C5276 C5281 1.379 . S
C5276 N5283 1.356 . S
C5277 C5276 1.363 . S
C5277 C5280 1.363 . S
N5278 C5280 1.356 . S
N5278 H5290 0.984 . S
N5278 H5291 0.985 . S
N5279 C5281 1.356 . S
N5279 H5284 0.984 . S
N5279 H5285 0.985 . S
C5280 C5274 1.379 . S
C5280 C5277 1.363 . S
C5280 N5278 1.356 . S
C5281 C5275 1.363 . S
C5281 C5276 1.379 . S
C5281 N5279 1.356 . S
N5282 C5274 1.356 . S
N5282 H5288 0.984 . S
N5282 H5289 0.984 . S
N5283 C5276 1.356 . S
N5283 H5286 0.984 . S
N5283 H5287 0.985 . S
H5284 N5279 0.984 . S
H5285 N5279 0.985 . S
H5286 N5283 0.984 . S
H5287 N5283 0.985 . S
H5288 N5282 0.984 . S
H5289 N5282 0.984 . S
H5290 N5278 0.984 . S
H5291 N5278 0.985 . S
C5292 C5293 1.363 . S
C5292 C5298 1.379 . S
C5292 N5300 1.356 . S
C5293 C5292 1.363 . S
C5293 C5299 1.363 . S
C5294 C5295 1.363 . S
C5294 C5299 1.379 . S
C5294 N5301 1.356 . S
C5295 C5294 1.363 . S
C5295 C5298 1.363 . S
N5296 C5298 1.356 . S
N5296 H5308 0.984 . S
N5296 H5309 0.985 . S
N5297 C5299 1.356 . S
N5297 H5302 0.984 . S
N5297 H5303 0.985 . S
C5298 C5292 1.379 . S
C5298 C5295 1.363 . S
C5298 N5296 1.356 . S
C5299 C5293 1.363 . S
C5299 C5294 1.379 . S
C5299 N5297 1.356 . S
N5300 C5292 1.356 . S
N5300 H5306 0.984 . S
N5300 H5307 0.984 . S
N5301 C5294 1.356 . S
N5301 H5304 0.984 . S
N5301 H5305 0.985 . S
H5302 N5297 0.984 . S
H5303 N5297 0.985 . S
H5304 N5301 0.984 . S
H5305 N5301 0.985 . S
H5306 N5300 0.984 . S
H5307 N5300 0.984 . S
H5308 N5296 0.984 . S
H5309 N5296 0.985 . S
C5310 C5311 1.363 . S
C5310 C5316 1.379 . S
C5310 N5318 1.356 . S
C5311 C5310 1.363 . S
C5311 C5317 1.363 . S
C5312 C5313 1.363 . S
C5312 C5317 1.379 . S
C5312 N5319 1.356 . S
C5313 C5312 1.363 . S
C5313 C5316 1.363 . S
N5314 C5316 1.356 . S
N5314 H5326 0.984 . S
N5314 H5327 0.985 . S
N5315 C5317 1.356 . S
N5315 H5320 0.984 . S
N5315 H5321 0.985 . S
C5316 C5310 1.379 . S
C5316 C5313 1.363 . S
C5316 N5314 1.356 . S
C5317 C5311 1.363 . S
C5317 C5312 1.379 . S
C5317 N5315 1.356 . S
N5318 C5310 1.356 . S
N5318 H5324 0.984 . S
N5318 H5325 0.984 . S
N5319 C5312 1.356 . S
N5319 H5322 0.984 . S
N5319 H5323 0.985 . S
H5320 N5315 0.984 . S
H5321 N5315 0.985 . S
H5322 N5319 0.984 . S
H5323 N5319 0.985 . S
H5324 N5318 0.984 . S
H5325 N5318 0.984 . S
H5326 N5314 0.984 . S
H5327 N5314 0.985 . S
C5328 C5329 1.363 . S
C5328 C5334 1.379 . S
C5328 N5336 1.356 . S
C5329 C5328 1.363 . S
C5329 C5335 1.363 . S
C5330 C5331 1.363 . S
C5330 C5335 1.379 . S
C5330 N5337 1.356 . S
C5331 C5330 1.363 . S
C5331 C5334 1.363 . S
N5332 C5334 1.356 . S
N5332 H5344 0.984 . S
N5332 H5345 0.985 . S
N5333 C5335 1.356 . S
N5333 H5338 0.984 . S
N5333 H5339 0.985 . S
C5334 C5328 1.379 . S
C5334 C5331 1.363 . S
C5334 N5332 1.356 . S
C5335 C5329 1.363 . S
C5335 C5330 1.379 . S
C5335 N5333 1.356 . S
N5336 C5328 1.356 . S
N5336 H5342 0.984 . S
N5336 H5343 0.984 . S
N5337 C5330 1.356 . S
N5337 H5340 0.984 . S
N5337 H5341 0.985 . S
H5338 N5333 0.984 . S
H5339 N5333 0.985 . S
H5340 N5337 0.984 . S
H5341 N5337 0.985 . S
H5342 N5336 0.984 . S
H5343 N5336 0.984 . S
H5344 N5332 0.984 . S
H5345 N5332 0.985 . S
C5346 C5347 1.363 . S
C5346 C5352 1.379 . S
C5346 N5354 1.356 . S
C5347 C5346 1.363 . S
C5347 C5353 1.363 . S
C5348 C5349 1.363 . S
C5348 C5353 1.379 . S
C5348 N5355 1.356 . S
C5349 C5348 1.363 . S
C5349 C5352 1.363 . S
N5350 C5352 1.356 . S
N5350 H5362 0.984 . S
N5350 H5363 0.985 . S
N5351 C5353 1.356 . S
N5351 H5356 0.984 . S
N5351 H5357 0.985 . S
C5352 C5346 1.379 . S
C5352 C5349 1.363 . S
C5352 N5350 1.356 . S
C5353 C5347 1.363 . S
C5353 C5348 1.379 . S
C5353 N5351 1.356 . S
N5354 C5346 1.356 . S
N5354 H5360 0.984 . S
N5354 H5361 0.984 . S
N5355 C5348 1.356 . S
N5355 H5358 0.984 . S
N5355 H5359 0.985 . S
H5356 N5351 0.984 . S
H5357 N5351 0.985 . S
H5358 N5355 0.984 . S
H5359 N5355 0.985 . S
H5360 N5354 0.984 . S
H5361 N5354 0.984 . S
H5362 N5350 0.984 . S
H5363 N5350 0.985 . S
C5364 C5365 1.363 . S
C5364 C5370 1.379 . S
C5364 N5372 1.356 . S
C5365 C5364 1.363 . S
C5365 C5371 1.363 . S
C5366 C5367 1.363 . S
C5366 C5371 1.379 . S
C5366 N5373 1.356 . S
C5367 C5366 1.363 . S
C5367 C5370 1.363 . S
N5368 C5370 1.356 . S
N5368 H5380 0.984 . S
N5368 H5381 0.985 . S
N5369 C5371 1.356 . S
N5369 H5374 0.984 . S
N5369 H5375 0.985 . S
C5370 C5364 1.379 . S
C5370 C5367 1.363 . S
C5370 N5368 1.356 . S
C5371 C5365 1.363 . S
C5371 C5366 1.379 . S
C5371 N5369 1.356 . S
N5372 C5364 1.356 . S
N5372 H5378 0.984 . S
N5372 H5379 0.984 . S
N5373 C5366 1.356 . S
N5373 H5376 0.984 . S
N5373 H5377 0.985 . S
H5374 N5369 0.984 . S
H5375 N5369 0.985 . S
H5376 N5373 0.984 . S
H5377 N5373 0.985 . S
H5378 N5372 0.984 . S
H5379 N5372 0.984 . S
H5380 N5368 0.984 . S
H5381 N5368 0.985 . S
C5382 C5383 1.363 . S
C5382 C5388 1.379 . S
C5382 N5390 1.356 . S
C5383 C5382 1.363 . S
C5383 C5389 1.363 . S
C5384 C5385 1.363 . S
C5384 C5389 1.379 . S
C5384 N5391 1.356 . S
C5385 C5384 1.363 . S
C5385 C5388 1.363 . S
N5386 C5388 1.356 . S
N5386 H5398 0.984 . S
N5386 H5399 0.985 . S
N5387 C5389 1.356 . S
N5387 H5392 0.984 . S
N5387 H5393 0.985 . S
C5388 C5382 1.379 . S
C5388 C5385 1.363 . S
C5388 N5386 1.356 . S
C5389 C5383 1.363 . S
C5389 C5384 1.379 . S
C5389 N5387 1.356 . S
N5390 C5382 1.356 . S
N5390 H5396 0.984 . S
N5390 H5397 0.984 . S
N5391 C5384 1.356 . S
N5391 H5394 0.984 . S
N5391 H5395 0.985 . S
H5392 N5387 0.984 . S
H5393 N5387 0.985 . S
H5394 N5391 0.984 . S
H5395 N5391 0.985 . S
H5396 N5390 0.984 . S
H5397 N5390 0.984 . S
H5398 N5386 0.984 . S
H5399 N5386 0.985 . S
C5400 C5401 1.363 . S
C5400 C5406 1.379 . S
C5400 N5408 1.356 . S
C5401 C5400 1.363 . S
C5401 C5407 1.363 . S
C5402 C5403 1.363 . S
C5402 C5407 1.379 . S
C5402 N5409 1.356 . S
C5403 C5402 1.363 . S
C5403 C5406 1.363 . S
N5404 C5406 1.356 . S
N5404 H5416 0.984 . S
N5404 H5417 0.985 . S
N5405 C5407 1.356 . S
N5405 H5410 0.984 . S
N5405 H5411 0.985 . S
C5406 C5400 1.379 . S
C5406 C5403 1.363 . S
C5406 N5404 1.356 . S
C5407 C5401 1.363 . S
C5407 C5402 1.379 . S
C5407 N5405 1.356 . S
N5408 C5400 1.356 . S
N5408 H5414 0.984 . S
N5408 H5415 0.984 . S
N5409 C5402 1.356 . S
N5409 H5412 0.984 . S
N5409 H5413 0.985 . S
H5410 N5405 0.984 . S
H5411 N5405 0.985 . S
H5412 N5409 0.984 . S
H5413 N5409 0.985 . S
H5414 N5408 0.984 . S
H5415 N5408 0.984 . S
H5416 N5404 0.984 . S
H5417 N5404 0.985 . S
C5418 C5419 1.363 . S
C5418 C5424 1.379 . S
C5418 N5426 1.356 . S
C5419 C5418 1.363 . S
C5419 C5425 1.363 . S
C5420 C5421 1.363 . S
C5420 C5425 1.379 . S
C5420 N5427 1.356 . S
C5421 C5420 1.363 . S
C5421 C5424 1.363 . S
N5422 C5424 1.356 . S
N5422 H5434 0.984 . S
N5422 H5435 0.985 . S
N5423 C5425 1.356 . S
N5423 H5428 0.984 . S
N5423 H5429 0.985 . S
C5424 C5418 1.379 . S
C5424 C5421 1.363 . S
C5424 N5422 1.356 . S
C5425 C5419 1.363 . S
C5425 C5420 1.379 . S
C5425 N5423 1.356 . S
N5426 C5418 1.356 . S
N5426 H5432 0.984 . S
N5426 H5433 0.984 . S
N5427 C5420 1.356 . S
N5427 H5430 0.984 . S
N5427 H5431 0.985 . S
H5428 N5423 0.984 . S
H5429 N5423 0.985 . S
H5430 N5427 0.984 . S
H5431 N5427 0.985 . S
H5432 N5426 0.984 . S
H5433 N5426 0.984 . S
H5434 N5422 0.984 . S
H5435 N5422 0.985 . S
C5436 C5437 1.363 . S
C5436 C5442 1.379 . S
C5436 N5444 1.356 . S
C5437 C5436 1.363 . S
C5437 C5443 1.363 . S
C5438 C5439 1.363 . S
C5438 C5443 1.379 . S
C5438 N5445 1.356 . S
C5439 C5438 1.363 . S
C5439 C5442 1.363 . S
N5440 C5442 1.356 . S
N5440 H5452 0.984 . S
N5440 H5453 0.985 . S
N5441 C5443 1.356 . S
N5441 H5446 0.984 . S
N5441 H5447 0.985 . S
C5442 C5436 1.379 . S
C5442 C5439 1.363 . S
C5442 N5440 1.356 . S
C5443 C5437 1.363 . S
C5443 C5438 1.379 . S
C5443 N5441 1.356 . S
N5444 C5436 1.356 . S
N5444 H5450 0.984 . S
N5444 H5451 0.984 . S
N5445 C5438 1.356 . S
N5445 H5448 0.984 . S
N5445 H5449 0.985 . S
H5446 N5441 0.984 . S
H5447 N5441 0.985 . S
H5448 N5445 0.984 . S
H5449 N5445 0.985 . S
H5450 N5444 0.984 . S
H5451 N5444 0.984 . S
H5452 N5440 0.984 . S
H5453 N5440 0.985 . S
C5454 C5455 1.363 . S
C5454 C5460 1.379 . S
C5454 N5462 1.356 . S
C5455 C5454 1.363 . S
C5455 C5461 1.363 . S
C5456 C5457 1.363 . S
C5456 C5461 1.379 . S
C5456 N5463 1.356 . S
C5457 C5456 1.363 . S
C5457 C5460 1.363 . S
N5458 C5460 1.356 . S
N5458 H5470 0.984 . S
N5458 H5471 0.985 . S
N5459 C5461 1.356 . S
N5459 H5464 0.984 . S
N5459 H5465 0.985 . S
C5460 C5454 1.379 . S
C5460 C5457 1.363 . S
C5460 N5458 1.356 . S
C5461 C5455 1.363 . S
C5461 C5456 1.379 . S
C5461 N5459 1.356 . S
N5462 C5454 1.356 . S
N5462 H5468 0.984 . S
N5462 H5469 0.984 . S
N5463 C5456 1.356 . S
N5463 H5466 0.984 . S
N5463 H5467 0.985 . S
H5464 N5459 0.984 . S
H5465 N5459 0.985 . S
H5466 N5463 0.984 . S
H5467 N5463 0.985 . S
H5468 N5462 0.984 . S
H5469 N5462 0.984 . S
H5470 N5458 0.984 . S
H5471 N5458 0.985 . S
C5472 C5473 1.363 . S
C5472 C5478 1.379 . S
C5472 N5480 1.356 . S
C5473 C5472 1.363 . S
C5473 C5479 1.363 . S
C5474 C5475 1.363 . S
C5474 C5479 1.379 . S
C5474 N5481 1.356 . S
C5475 C5474 1.363 . S
C5475 C5478 1.363 . S
N5476 C5478 1.356 . S
N5476 H5488 0.984 . S
N5476 H5489 0.985 . S
N5477 C5479 1.356 . S
N5477 H5482 0.984 . S
N5477 H5483 0.985 . S
C5478 C5472 1.379 . S
C5478 C5475 1.363 . S
C5478 N5476 1.356 . S
C5479 C5473 1.363 . S
C5479 C5474 1.379 . S
C5479 N5477 1.356 . S
N5480 C5472 1.356 . S
N5480 H5486 0.984 . S
N5480 H5487 0.984 . S
N5481 C5474 1.356 . S
N5481 H5484 0.984 . S
N5481 H5485 0.985 . S
H5482 N5477 0.984 . S
H5483 N5477 0.985 . S
H5484 N5481 0.984 . S
H5485 N5481 0.985 . S
H5486 N5480 0.984 . S
H5487 N5480 0.984 . S
H5488 N5476 0.984 . S
H5489 N5476 0.985 . S
C5490 C5491 1.363 . S
C5490 C5496 1.379 . S
C5490 N5498 1.356 . S
C5491 C5490 1.363 . S
C5491 C5497 1.363 . S
C5492 C5493 1.363 . S
C5492 C5497 1.379 . S
C5492 N5499 1.356 . S
C5493 C5492 1.363 . S
C5493 C5496 1.363 . S
N5494 C5496 1.356 . S
N5494 H5506 0.984 . S
N5494 H5507 0.985 . S
N5495 C5497 1.356 . S
N5495 H5500 0.984 . S
N5495 H5501 0.985 . S
C5496 C5490 1.379 . S
C5496 C5493 1.363 . S
C5496 N5494 1.356 . S
C5497 C5491 1.363 . S
C5497 C5492 1.379 . S
C5497 N5495 1.356 . S
N5498 C5490 1.356 . S
N5498 H5504 0.984 . S
N5498 H5505 0.984 . S
N5499 C5492 1.356 . S
N5499 H5502 0.984 . S
N5499 H5503 0.985 . S
H5500 N5495 0.984 . S
H5501 N5495 0.985 . S
H5502 N5499 0.984 . S
H5503 N5499 0.985 . S
H5504 N5498 0.984 . S
H5505 N5498 0.984 . S
H5506 N5494 0.984 . S
H5507 N5494 0.985 . S
C5508 C5509 1.363 . S
C5508 C5514 1.379 . S
C5508 N5516 1.356 . S
C5509 C5508 1.363 . S
C5509 C5515 1.363 . S
C5510 C5511 1.363 . S
C5510 C5515 1.379 . S
C5510 N5517 1.356 . S
C5511 C5510 1.363 . S
C5511 C5514 1.363 . S
N5512 C5514 1.356 . S
N5512 H5524 0.984 . S
N5512 H5525 0.985 . S
N5513 C5515 1.356 . S
N5513 H5518 0.984 . S
N5513 H5519 0.985 . S
C5514 C5508 1.379 . S
C5514 C5511 1.363 . S
C5514 N5512 1.356 . S
C5515 C5509 1.363 . S
C5515 C5510 1.379 . S
C5515 N5513 1.356 . S
N5516 C5508 1.356 . S
N5516 H5522 0.984 . S
N5516 H5523 0.984 . S
N5517 C5510 1.356 . S
N5517 H5520 0.984 . S
N5517 H5521 0.985 . S
H5518 N5513 0.984 . S
H5519 N5513 0.985 . S
H5520 N5517 0.984 . S
H5521 N5517 0.985 . S
H5522 N5516 0.984 . S
H5523 N5516 0.984 . S
H5524 N5512 0.984 . S
H5525 N5512 0.985 . S
C5526 C5527 1.363 . S
C5526 C5532 1.379 . S
C5526 N5534 1.356 . S
C5527 C5526 1.363 . S
C5527 C5533 1.363 . S
C5528 C5529 1.363 . S
C5528 C5533 1.379 . S
C5528 N5535 1.356 . S
C5529 C5528 1.363 . S
C5529 C5532 1.363 . S
N5530 C5532 1.356 . S
N5530 H5542 0.984 . S
N5530 H5543 0.985 . S
N5531 C5533 1.356 . S
N5531 H5536 0.984 . S
N5531 H5537 0.985 . S
C5532 C5526 1.379 . S
C5532 C5529 1.363 . S
C5532 N5530 1.356 . S
C5533 C5527 1.363 . S
C5533 C5528 1.379 . S
C5533 N5531 1.356 . S
N5534 C5526 1.356 . S
N5534 H5540 0.984 . S
N5534 H5541 0.984 . S
N5535 C5528 1.356 . S
N5535 H5538 0.984 . S
N5535 H5539 0.985 . S
H5536 N5531 0.984 . S
H5537 N5531 0.985 . S
H5538 N5535 0.984 . S
H5539 N5535 0.985 . S
H5540 N5534 0.984 . S
H5541 N5534 0.984 . S
H5542 N5530 0.984 . S
H5543 N5530 0.985 . S
C5544 C5545 1.363 . S
C5544 C5550 1.379 . S
C5544 N5552 1.356 . S
C5545 C5544 1.363 . S
C5545 C5551 1.363 . S
C5546 C5547 1.363 . S
C5546 C5551 1.379 . S
C5546 N5553 1.356 . S
C5547 C5546 1.363 . S
C5547 C5550 1.363 . S
N5548 C5550 1.356 . S
N5548 H5560 0.984 . S
N5548 H5561 0.985 . S
N5549 C5551 1.356 . S
N5549 H5554 0.984 . S
N5549 H5555 0.985 . S
C5550 C5544 1.379 . S
C5550 C5547 1.363 . S
C5550 N5548 1.356 . S
C5551 C5545 1.363 . S
C5551 C5546 1.379 . S
C5551 N5549 1.356 . S
N5552 C5544 1.356 . S
N5552 H5558 0.984 . S
N5552 H5559 0.984 . S
N5553 C5546 1.356 . S
N5553 H5556 0.984 . S
N5553 H5557 0.985 . S
H5554 N5549 0.984 . S
H5555 N5549 0.985 . S
H5556 N5553 0.984 . S
H5557 N5553 0.985 . S
H5558 N5552 0.984 . S
H5559 N5552 0.984 . S
H5560 N5548 0.984 . S
H5561 N5548 0.985 . S
C5562 C5563 1.363 . S
C5562 C5568 1.379 . S
C5562 N5570 1.356 . S
C5563 C5562 1.363 . S
C5563 C5569 1.363 . S
C5564 C5565 1.363 . S
C5564 C5569 1.379 . S
C5564 N5571 1.356 . S
C5565 C5564 1.363 . S
C5565 C5568 1.363 . S
N5566 C5568 1.356 . S
N5566 H5578 0.984 . S
N5566 H5579 0.985 . S
N5567 C5569 1.356 . S
N5567 H5572 0.984 . S
N5567 H5573 0.985 . S
C5568 C5562 1.379 . S
C5568 C5565 1.363 . S
C5568 N5566 1.356 . S
C5569 C5563 1.363 . S
C5569 C5564 1.379 . S
C5569 N5567 1.356 . S
N5570 C5562 1.356 . S
N5570 H5576 0.984 . S
N5570 H5577 0.984 . S
N5571 C5564 1.356 . S
N5571 H5574 0.984 . S
N5571 H5575 0.985 . S
H5572 N5567 0.984 . S
H5573 N5567 0.985 . S
H5574 N5571 0.984 . S
H5575 N5571 0.985 . S
H5576 N5570 0.984 . S
H5577 N5570 0.984 . S
H5578 N5566 0.984 . S
H5579 N5566 0.985 . S
C5580 C5581 1.363 . S
C5580 C5586 1.379 . S
C5580 N5588 1.356 . S
C5581 C5580 1.363 . S
C5581 C5587 1.363 . S
C5582 C5583 1.363 . S
C5582 C5587 1.379 . S
C5582 N5589 1.356 . S
C5583 C5582 1.363 . S
C5583 C5586 1.363 . S
N5584 C5586 1.356 . S
N5584 H5596 0.984 . S
N5584 H5597 0.985 . S
N5585 C5587 1.356 . S
N5585 H5590 0.984 . S
N5585 H5591 0.985 . S
C5586 C5580 1.379 . S
C5586 C5583 1.363 . S
C5586 N5584 1.356 . S
C5587 C5581 1.363 . S
C5587 C5582 1.379 . S
C5587 N5585 1.356 . S
N5588 C5580 1.356 . S
N5588 H5594 0.984 . S
N5588 H5595 0.984 . S
N5589 C5582 1.356 . S
N5589 H5592 0.984 . S
N5589 H5593 0.985 . S
H5590 N5585 0.984 . S
H5591 N5585 0.985 . S
H5592 N5589 0.984 . S
H5593 N5589 0.985 . S
H5594 N5588 0.984 . S
H5595 N5588 0.984 . S
H5596 N5584 0.984 . S
H5597 N5584 0.985 . S
C5598 C5599 1.363 . S
C5598 C5604 1.379 . S
C5598 N5606 1.356 . S
C5599 C5598 1.363 . S
C5599 C5605 1.363 . S
C5600 C5601 1.363 . S
C5600 C5605 1.379 . S
C5600 N5607 1.356 . S
C5601 C5600 1.363 . S
C5601 C5604 1.363 . S
N5602 C5604 1.356 . S
N5602 H5614 0.984 . S
N5602 H5615 0.985 . S
N5603 C5605 1.356 . S
N5603 H5608 0.984 . S
N5603 H5609 0.985 . S
C5604 C5598 1.379 . S
C5604 C5601 1.363 . S
C5604 N5602 1.356 . S
C5605 C5599 1.363 . S
C5605 C5600 1.379 . S
C5605 N5603 1.356 . S
N5606 C5598 1.356 . S
N5606 H5612 0.984 . S
N5606 H5613 0.984 . S
N5607 C5600 1.356 . S
N5607 H5610 0.984 . S
N5607 H5611 0.985 . S
H5608 N5603 0.984 . S
H5609 N5603 0.985 . S
H5610 N5607 0.984 . S
H5611 N5607 0.985 . S
H5612 N5606 0.984 . S
H5613 N5606 0.984 . S
H5614 N5602 0.984 . S
H5615 N5602 0.985 . S
C5616 C5617 1.363 . S
C5616 C5622 1.379 . S
C5616 N5624 1.356 . S
C5617 C5616 1.363 . S
C5617 C5623 1.363 . S
C5618 C5619 1.363 . S
C5618 C5623 1.379 . S
C5618 N5625 1.356 . S
C5619 C5618 1.363 . S
C5619 C5622 1.363 . S
N5620 C5622 1.356 . S
N5620 H5632 0.984 . S
N5620 H5633 0.985 . S
N5621 C5623 1.356 . S
N5621 H5626 0.984 . S
N5621 H5627 0.985 . S
C5622 C5616 1.379 . S
C5622 C5619 1.363 . S
C5622 N5620 1.356 . S
C5623 C5617 1.363 . S
C5623 C5618 1.379 . S
C5623 N5621 1.356 . S
N5624 C5616 1.356 . S
N5624 H5630 0.984 . S
N5624 H5631 0.984 . S
N5625 C5618 1.356 . S
N5625 H5628 0.984 . S
N5625 H5629 0.985 . S
H5626 N5621 0.984 . S
H5627 N5621 0.985 . S
H5628 N5625 0.984 . S
H5629 N5625 0.985 . S
H5630 N5624 0.984 . S
H5631 N5624 0.984 . S
H5632 N5620 0.984 . S
H5633 N5620 0.985 . S
C5634 C5635 1.363 . S
C5634 C5640 1.379 . S
C5634 N5642 1.356 . S
C5635 C5634 1.363 . S
C5635 C5641 1.363 . S
C5636 C5637 1.363 . S
C5636 C5641 1.379 . S
C5636 N5643 1.356 . S
C5637 C5636 1.363 . S
C5637 C5640 1.363 . S
N5638 C5640 1.356 . S
N5638 H5650 0.984 . S
N5638 H5651 0.985 . S
N5639 C5641 1.356 . S
N5639 H5644 0.984 . S
N5639 H5645 0.985 . S
C5640 C5634 1.379 . S
C5640 C5637 1.363 . S
C5640 N5638 1.356 . S
C5641 C5635 1.363 . S
C5641 C5636 1.379 . S
C5641 N5639 1.356 . S
N5642 C5634 1.356 . S
N5642 H5648 0.984 . S
N5642 H5649 0.984 . S
N5643 C5636 1.356 . S
N5643 H5646 0.984 . S
N5643 H5647 0.985 . S
H5644 N5639 0.984 . S
H5645 N5639 0.985 . S
H5646 N5643 0.984 . S
H5647 N5643 0.985 . S
H5648 N5642 0.984 . S
H5649 N5642 0.984 . S
H5650 N5638 0.984 . S
H5651 N5638 0.985 . S
C5652 C5653 1.363 . S
C5652 C5658 1.379 . S
C5652 N5660 1.356 . S
C5653 C5652 1.363 . S
C5653 C5659 1.363 . S
C5654 C5655 1.363 . S
C5654 C5659 1.379 . S
C5654 N5661 1.356 . S
C5655 C5654 1.363 . S
C5655 C5658 1.363 . S
N5656 C5658 1.356 . S
N5656 H5668 0.984 . S
N5656 H5669 0.985 . S
N5657 C5659 1.356 . S
N5657 H5662 0.984 . S
N5657 H5663 0.985 . S
C5658 C5652 1.379 . S
C5658 C5655 1.363 . S
C5658 N5656 1.356 . S
C5659 C5653 1.363 . S
C5659 C5654 1.379 . S
C5659 N5657 1.356 . S
N5660 C5652 1.356 . S
N5660 H5666 0.984 . S
N5660 H5667 0.984 . S
N5661 C5654 1.356 . S
N5661 H5664 0.984 . S
N5661 H5665 0.985 . S
H5662 N5657 0.984 . S
H5663 N5657 0.985 . S
H5664 N5661 0.984 . S
H5665 N5661 0.985 . S
H5666 N5660 0.984 . S
H5667 N5660 0.984 . S
H5668 N5656 0.984 . S
H5669 N5656 0.985 . S
C5670 C5671 1.363 . S
C5670 C5676 1.379 . S
C5670 N5678 1.356 . S
C5671 C5670 1.363 . S
C5671 C5677 1.363 . S
C5672 C5673 1.363 . S
C5672 C5677 1.379 . S
C5672 N5679 1.356 . S
C5673 C5672 1.363 . S
C5673 C5676 1.363 . S
N5674 C5676 1.356 . S
N5674 H5686 0.984 . S
N5674 H5687 0.985 . S
N5675 C5677 1.356 . S
N5675 H5680 0.984 . S
N5675 H5681 0.985 . S
C5676 C5670 1.379 . S
C5676 C5673 1.363 . S
C5676 N5674 1.356 . S
C5677 C5671 1.363 . S
C5677 C5672 1.379 . S
C5677 N5675 1.356 . S
N5678 C5670 1.356 . S
N5678 H5684 0.984 . S
N5678 H5685 0.984 . S
N5679 C5672 1.356 . S
N5679 H5682 0.984 . S
N5679 H5683 0.985 . S
H5680 N5675 0.984 . S
H5681 N5675 0.985 . S
H5682 N5679 0.984 . S
H5683 N5679 0.985 . S
H5684 N5678 0.984 . S
H5685 N5678 0.984 . S
H5686 N5674 0.984 . S
H5687 N5674 0.985 . S
C5688 C5689 1.363 . S
C5688 C5694 1.379 . S
C5688 N5696 1.356 . S
C5689 C5688 1.363 . S
C5689 C5695 1.363 . S
C5690 C5691 1.363 . S
C5690 C5695 1.379 . S
C5690 N5697 1.356 . S
C5691 C5690 1.363 . S
C5691 C5694 1.363 . S
N5692 C5694 1.356 . S
N5692 H5704 0.984 . S
N5692 H5705 0.985 . S
N5693 C5695 1.356 . S
N5693 H5698 0.984 . S
N5693 H5699 0.985 . S
C5694 C5688 1.379 . S
C5694 C5691 1.363 . S
C5694 N5692 1.356 . S
C5695 C5689 1.363 . S
C5695 C5690 1.379 . S
C5695 N5693 1.356 . S
N5696 C5688 1.356 . S
N5696 H5702 0.984 . S
N5696 H5703 0.984 . S
N5697 C5690 1.356 . S
N5697 H5700 0.984 . S
N5697 H5701 0.985 . S
H5698 N5693 0.984 . S
H5699 N5693 0.985 . S
H5700 N5697 0.984 . S
H5701 N5697 0.985 . S
H5702 N5696 0.984 . S
H5703 N5696 0.984 . S
H5704 N5692 0.984 . S
H5705 N5692 0.985 . S
C5706 C5707 1.363 . S
C5706 C5712 1.379 . S
C5706 N5714 1.356 . S
C5707 C5706 1.363 . S
C5707 C5713 1.363 . S
C5708 C5709 1.363 . S
C5708 C5713 1.379 . S
C5708 N5715 1.356 . S
C5709 C5708 1.363 . S
C5709 C5712 1.363 . S
N5710 C5712 1.356 . S
N5710 H5722 0.984 . S
N5710 H5723 0.985 . S
N5711 C5713 1.356 . S
N5711 H5716 0.984 . S
N5711 H5717 0.985 . S
C5712 C5706 1.379 . S
C5712 C5709 1.363 . S
C5712 N5710 1.356 . S
C5713 C5707 1.363 . S
C5713 C5708 1.379 . S
C5713 N5711 1.356 . S
N5714 C5706 1.356 . S
N5714 H5720 0.984 . S
N5714 H5721 0.984 . S
N5715 C5708 1.356 . S
N5715 H5718 0.984 . S
N5715 H5719 0.985 . S
H5716 N5711 0.984 . S
H5717 N5711 0.985 . S
H5718 N5715 0.984 . S
H5719 N5715 0.985 . S
H5720 N5714 0.984 . S
H5721 N5714 0.984 . S
H5722 N5710 0.984 . S
H5723 N5710 0.985 . S
C5724 C5725 1.363 . S
C5724 C5730 1.379 . S
C5724 N5732 1.356 . S
C5725 C5724 1.363 . S
C5725 C5731 1.363 . S
C5726 C5727 1.363 . S
C5726 C5731 1.379 . S
C5726 N5733 1.356 . S
C5727 C5726 1.363 . S
C5727 C5730 1.363 . S
N5728 C5730 1.356 . S
N5728 H5740 0.984 . S
N5728 H5741 0.985 . S
N5729 C5731 1.356 . S
N5729 H5734 0.984 . S
N5729 H5735 0.985 . S
C5730 C5724 1.379 . S
C5730 C5727 1.363 . S
C5730 N5728 1.356 . S
C5731 C5725 1.363 . S
C5731 C5726 1.379 . S
C5731 N5729 1.356 . S
N5732 C5724 1.356 . S
N5732 H5738 0.984 . S
N5732 H5739 0.984 . S
N5733 C5726 1.356 . S
N5733 H5736 0.984 . S
N5733 H5737 0.985 . S
H5734 N5729 0.984 . S
H5735 N5729 0.985 . S
H5736 N5733 0.984 . S
H5737 N5733 0.985 . S
H5738 N5732 0.984 . S
H5739 N5732 0.984 . S
H5740 N5728 0.984 . S
H5741 N5728 0.985 . S
C5742 C5743 1.363 . S
C5742 C5748 1.379 . S
C5742 N5750 1.356 . S
C5743 C5742 1.363 . S
C5743 C5749 1.363 . S
C5744 C5745 1.363 . S
C5744 C5749 1.379 . S
C5744 N5751 1.356 . S
C5745 C5744 1.363 . S
C5745 C5748 1.363 . S
N5746 C5748 1.356 . S
N5746 H5758 0.984 . S
N5746 H5759 0.985 . S
N5747 C5749 1.356 . S
N5747 H5752 0.984 . S
N5747 H5753 0.985 . S
C5748 C5742 1.379 . S
C5748 C5745 1.363 . S
C5748 N5746 1.356 . S
C5749 C5743 1.363 . S
C5749 C5744 1.379 . S
C5749 N5747 1.356 . S
N5750 C5742 1.356 . S
N5750 H5756 0.984 . S
N5750 H5757 0.984 . S
N5751 C5744 1.356 . S
N5751 H5754 0.984 . S
N5751 H5755 0.985 . S
H5752 N5747 0.984 . S
H5753 N5747 0.985 . S
H5754 N5751 0.984 . S
H5755 N5751 0.985 . S
H5756 N5750 0.984 . S
H5757 N5750 0.984 . S
H5758 N5746 0.984 . S
H5759 N5746 0.985 . S
C5760 C5761 1.363 . S
C5760 C5766 1.379 . S
C5760 N5768 1.356 . S
C5761 C5760 1.363 . S
C5761 C5767 1.363 . S
C5762 C5763 1.363 . S
C5762 C5767 1.379 . S
C5762 N5769 1.356 . S
C5763 C5762 1.363 . S
C5763 C5766 1.363 . S
N5764 C5766 1.356 . S
N5764 H5776 0.984 . S
N5764 H5777 0.985 . S
N5765 C5767 1.356 . S
N5765 H5770 0.984 . S
N5765 H5771 0.985 . S
C5766 C5760 1.379 . S
C5766 C5763 1.363 . S
C5766 N5764 1.356 . S
C5767 C5761 1.363 . S
C5767 C5762 1.379 . S
C5767 N5765 1.356 . S
N5768 C5760 1.356 . S
N5768 H5774 0.984 . S
N5768 H5775 0.984 . S
N5769 C5762 1.356 . S
N5769 H5772 0.984 . S
N5769 H5773 0.985 . S
H5770 N5765 0.984 . S
H5771 N5765 0.985 . S
H5772 N5769 0.984 . S
H5773 N5769 0.985 . S
H5774 N5768 0.984 . S
H5775 N5768 0.984 . S
H5776 N5764 0.984 . S
H5777 N5764 0.985 . S
C5778 C5779 1.363 . S
C5778 C5784 1.379 . S
C5778 N5786 1.356 . S
C5779 C5778 1.363 . S
C5779 C5785 1.363 . S
C5780 C5781 1.363 . S
C5780 C5785 1.379 . S
C5780 N5787 1.356 . S
C5781 C5780 1.363 . S
C5781 C5784 1.363 . S
N5782 C5784 1.356 . S
N5782 H5794 0.984 . S
N5782 H5795 0.985 . S
N5783 C5785 1.356 . S
N5783 H5788 0.984 . S
N5783 H5789 0.985 . S
C5784 C5778 1.379 . S
C5784 C5781 1.363 . S
C5784 N5782 1.356 . S
C5785 C5779 1.363 . S
C5785 C5780 1.379 . S
C5785 N5783 1.356 . S
N5786 C5778 1.356 . S
N5786 H5792 0.984 . S
N5786 H5793 0.984 . S
N5787 C5780 1.356 . S
N5787 H5790 0.996 . S
N5787 H5791 0.984 1_655 S
H5788 N5783 0.984 . S
H5789 N5783 0.985 . S
H5790 N5787 0.996 . S
H5791 N5787 0.984 1_455 S
H5792 N5786 0.984 . S
H5793 N5786 0.984 . S
H5794 N5782 0.984 . S
H5795 N5782 0.985 . S
C5796 C5797 1.363 . S
C5796 C5802 1.379 . S
C5796 N5804 1.356 . S
C5797 C5796 1.363 . S
C5797 C5803 1.363 . S
C5798 C5799 1.363 . S
C5798 C5803 1.379 . S
C5798 N5805 1.356 . S
C5799 C5798 1.363 . S
C5799 C5802 1.363 . S
N5800 C5802 1.356 . S
N5800 H5812 0.984 . S
N5800 H5813 0.985 . S
N5801 C5803 1.356 1_556 S
N5801 H5806 0.984 . S
N5801 H5807 0.985 . S
C5802 C5796 1.379 . S
C5802 C5799 1.363 . S
C5802 N5800 1.356 . S
C5803 C5797 1.363 . S
C5803 C5798 1.379 . S
C5803 N5801 1.356 1_554 S
N5804 C5796 1.356 . S
N5804 H5810 0.984 . S
N5804 H5811 0.984 . S
N5805 C5798 1.356 . S
N5805 H5808 0.984 . S
N5805 H5809 0.985 . S
H5806 N5801 0.984 . S
H5807 N5801 0.985 . S
H5808 N5805 0.984 . S
H5809 N5805 0.985 . S
H5810 N5804 0.984 . S
H5811 N5804 0.984 . S
H5812 N5800 0.984 . S
H5813 N5800 0.985 . S
C5814 C5815 1.363 . S
C5814 C5820 1.379 . S
C5814 N5822 1.356 . S
C5815 C5814 1.363 . S
C5815 C5821 1.363 . S
C5816 C5817 1.363 . S
C5816 C5821 1.379 . S
C5816 N5823 1.356 . S
C5817 C5816 1.363 . S
C5817 C5820 1.363 . S
N5818 C5820 1.356 . S
N5818 H5830 0.984 . S
N5818 H5831 0.985 . S
N5819 C5821 1.356 . S
N5819 H5824 0.984 . S
N5819 H5825 0.985 . S
C5820 C5814 1.379 . S
C5820 C5817 1.363 . S
C5820 N5818 1.356 . S
C5821 C5815 1.363 . S
C5821 C5816 1.379 . S
C5821 N5819 1.356 . S
N5822 C5814 1.356 . S
N5822 H5828 0.984 . S
N5822 H5829 0.984 . S
N5823 C5816 1.356 . S
N5823 H5826 0.984 . S
N5823 H5827 0.985 . S
H5824 N5819 0.984 . S
H5825 N5819 0.985 . S
H5826 N5823 0.984 . S
H5827 N5823 0.985 . S
H5828 N5822 0.984 . S
H5829 N5822 0.984 . S
H5830 N5818 0.984 . S
H5831 N5818 0.985 . S
C5832 C5833 1.363 . S
C5832 C5838 1.379 . S
C5832 N5840 1.356 . S
C5833 C5832 1.363 . S
C5833 C5839 1.363 . S
C5834 C5835 1.363 . S
C5834 C5839 1.379 . S
C5834 N5841 1.356 . S
C5835 C5834 1.363 . S
C5835 C5838 1.363 . S
N5836 C5838 1.356 . S
N5836 H5848 0.984 . S
N5836 H5849 0.985 . S
N5837 C5839 1.356 . S
N5837 H5842 0.984 . S
N5837 H5843 0.985 . S
C5838 C5832 1.379 . S
C5838 C5835 1.363 . S
C5838 N5836 1.356 . S
C5839 C5833 1.363 . S
C5839 C5834 1.379 . S
C5839 N5837 1.356 . S
N5840 C5832 1.356 . S
N5840 H5846 0.984 . S
N5840 H5847 0.984 . S
N5841 C5834 1.356 . S
N5841 H5844 0.984 . S
N5841 H5845 0.985 . S
H5842 N5837 0.984 . S
H5843 N5837 0.985 . S
H5844 N5841 0.984 . S
H5845 N5841 0.985 . S
H5846 N5840 0.984 . S
H5847 N5840 0.984 . S
H5848 N5836 0.984 . S
H5849 N5836 0.985 . S
C5850 C5851 1.363 . S
C5850 C5856 1.379 . S
C5850 N5858 1.356 . S
C5851 C5850 1.363 . S
C5851 C5857 1.363 . S
C5852 C5853 1.363 . S
C5852 C5857 1.379 . S
C5852 N5859 1.356 . S
C5853 C5852 1.363 . S
C5853 C5856 1.363 . S
N5854 C5856 1.356 . S
N5854 H5866 0.984 . S
N5854 H5867 0.985 . S
N5855 C5857 1.356 1_554 S
N5855 H5860 0.984 . S
N5855 H5861 0.985 . S
C5856 C5850 1.379 . S
C5856 C5853 1.363 . S
C5856 N5854 1.356 . S
C5857 C5851 1.363 . S
C5857 C5852 1.379 . S
C5857 N5855 1.356 1_556 S
N5858 C5850 1.356 . S
N5858 H5864 0.984 . S
N5858 H5865 0.984 . S
N5859 C5852 1.356 . S
N5859 H5862 0.984 . S
N5859 H5863 0.985 . S
H5860 N5855 0.984 . S
H5861 N5855 0.985 . S
H5862 N5859 0.984 . S
H5863 N5859 0.985 . S
H5864 N5858 0.984 . S
H5865 N5858 0.984 . S
H5866 N5854 0.984 . S
H5867 N5854 0.985 . S
C5868 C5869 1.363 . S
C5868 C5874 1.379 . S
C5868 N5876 1.356 . S
C5869 C5868 1.363 . S
C5869 C5875 1.363 . S
C5870 C5871 1.363 . S
C5870 C5875 1.379 . S
C5870 N5877 1.356 . S
C5871 C5870 1.363 . S
C5871 C5874 1.363 . S
N5872 C5874 1.356 1_565 S
N5872 H5884 0.984 . S
N5872 H5885 0.985 . S
N5873 C5875 1.356 . S
N5873 H5878 0.984 . S
N5873 H5879 0.985 . S
C5874 C5868 1.379 . S
C5874 C5871 1.363 . S
C5874 N5872 1.356 1_545 S
C5875 C5869 1.363 . S
C5875 C5870 1.379 . S
C5875 N5873 1.356 . S
N5876 C5868 1.356 . S
N5876 H5882 0.984 . S
N5876 H5883 0.984 . S
N5877 C5870 1.356 . S
N5877 H5880 0.984 . S
N5877 H5881 0.985 . S
H5878 N5873 0.984 . S
H5879 N5873 0.985 . S
H5880 N5877 0.984 . S
H5881 N5877 0.985 . S
H5882 N5876 0.984 . S
H5883 N5876 0.984 . S
H5884 N5872 0.984 . S
H5885 N5872 0.985 . S
C5886 C5887 1.363 . S
C5886 C5892 1.379 . S
C5886 N5894 1.356 . S
C5887 C5886 1.363 . S
C5887 C5893 1.363 . S
C5888 C5889 1.363 . S
C5888 C5893 1.379 . S
C5888 N5895 1.356 . S
C5889 C5888 1.363 . S
C5889 C5892 1.363 . S
N5890 C5892 1.356 . S
N5890 H5902 0.984 . S
N5890 H5903 0.985 . S
N5891 C5893 1.356 . S
N5891 H5896 0.984 . S
N5891 H5897 0.985 . S
C5892 C5886 1.379 . S
C5892 C5889 1.363 . S
C5892 N5890 1.356 . S
C5893 C5887 1.363 . S
C5893 C5888 1.379 . S
C5893 N5891 1.356 . S
N5894 C5886 1.356 . S
N5894 H5900 0.984 . S
N5894 H5901 0.984 . S
N5895 C5888 1.356 . S
N5895 H5898 0.984 1_655 S
N5895 H5899 0.985 1_655 S
H5896 N5891 0.984 . S
H5897 N5891 0.985 . S
H5898 N5895 0.984 1_455 S
H5899 N5895 0.985 1_455 S
H5900 N5894 0.984 . S
H5901 N5894 0.984 . S
H5902 N5890 0.984 . S
H5903 N5890 0.985 . S
C5904 C5905 1.363 . S
C5904 C5910 1.379 . S
C5904 N5912 1.356 . S
C5905 C5904 1.363 . S
C5905 C5911 1.363 . S
C5906 C5907 1.363 . S
C5906 C5911 1.379 . S
C5906 N5913 1.356 . S
C5907 C5906 1.363 . S
C5907 C5910 1.363 . S
N5908 C5910 1.356 . S
N5908 H5920 0.984 . S
N5908 H5921 0.985 . S
N5909 C5911 1.356 . S
N5909 H5914 0.984 . S
N5909 H5915 0.985 . S
C5910 C5904 1.379 . S
C5910 C5907 1.363 . S
C5910 N5908 1.356 . S
C5911 C5905 1.363 . S
C5911 C5906 1.379 . S
C5911 N5909 1.356 . S
N5912 C5904 1.356 . S
N5912 H5918 0.984 . S
N5912 H5919 0.984 . S
N5913 C5906 1.356 . S
N5913 H5916 0.984 . S
N5913 H5917 0.985 . S
H5914 N5909 0.984 . S
H5915 N5909 0.985 . S
H5916 N5913 0.984 . S
H5917 N5913 0.985 . S
H5918 N5912 0.984 . S
H5919 N5912 0.984 . S
H5920 N5908 0.984 . S
H5921 N5908 0.985 . S
C5922 C5923 1.363 . S
C5922 C5928 1.379 . S
C5922 N5930 1.356 . S
C5923 C5922 1.363 . S
C5923 C5929 1.363 . S
C5924 C5925 1.363 . S
C5924 C5929 1.379 . S
C5924 N5931 1.356 . S
C5925 C5924 1.363 . S
C5925 C5928 1.363 . S
N5926 C5928 1.356 . S
N5926 H5938 0.984 . S
N5926 H5939 0.985 . S
N5927 C5929 1.356 . S
N5927 H5932 0.984 . S
N5927 H5933 0.985 . S
C5928 C5922 1.379 . S
C5928 C5925 1.363 . S
C5928 N5926 1.356 . S
C5929 C5923 1.363 . S
C5929 C5924 1.379 . S
C5929 N5927 1.356 . S
N5930 C5922 1.356 . S
N5930 H5936 0.984 . S
N5930 H5937 0.984 . S
N5931 C5924 1.356 . S
N5931 H5934 0.984 . S
N5931 H5935 0.985 . S
H5932 N5927 0.984 . S
H5933 N5927 0.985 . S
H5934 N5931 0.984 . S
H5935 N5931 0.985 . S
H5936 N5930 0.984 . S
H5937 N5930 0.984 . S
H5938 N5926 0.984 . S
H5939 N5926 0.985 . S
C5940 C5941 1.363 . S
C5940 C5946 1.379 . S
C5940 N5948 1.356 . S
C5941 C5940 1.363 . S
C5941 C5947 1.363 . S
C5942 C5943 1.363 . S
C5942 C5947 1.379 . S
C5942 N5949 1.356 . S
C5943 C5942 1.363 . S
C5943 C5946 1.363 . S
N5944 C5946 1.356 . S
N5944 H5956 0.984 . S
N5944 H5957 0.985 . S
N5945 C5947 1.356 . S
N5945 H5950 0.984 . S
N5945 H5951 0.985 . S
C5946 C5940 1.379 . S
C5946 C5943 1.363 . S
C5946 N5944 1.356 . S
C5947 C5941 1.363 . S
C5947 C5942 1.379 . S
C5947 N5945 1.356 . S
N5948 C5940 1.356 . S
N5948 H5954 0.984 . S
N5948 H5955 0.984 . S
N5949 C5942 1.356 . S
N5949 H5952 0.984 . S
N5949 H5953 0.985 . S
H5950 N5945 0.984 . S
H5951 N5945 0.985 . S
H5952 N5949 0.984 . S
H5953 N5949 0.985 . S
H5954 N5948 0.984 . S
H5955 N5948 0.984 . S
H5956 N5944 0.984 . S
H5957 N5944 0.985 . S
C5958 C5959 1.363 . S
C5958 C5964 1.379 . S
C5958 N5966 1.356 . S
C5959 C5958 1.363 . S
C5959 C5965 1.363 . S
C5960 C5961 1.363 . S
C5960 C5965 1.379 . S
C5960 N5967 1.356 . S
C5961 C5960 1.363 . S
C5961 C5964 1.363 . S
N5962 C5964 1.356 . S
N5962 H5974 0.984 . S
N5962 H5975 0.985 . S
N5963 C5965 1.356 . S
N5963 H5968 0.984 . S
N5963 H5969 0.985 . S
C5964 C5958 1.379 . S
C5964 C5961 1.363 . S
C5964 N5962 1.356 . S
C5965 C5959 1.363 . S
C5965 C5960 1.379 . S
C5965 N5963 1.356 . S
N5966 C5958 1.356 . S
N5966 H5972 0.984 . S
N5966 H5973 0.984 . S
N5967 C5960 1.356 . S
N5967 H5970 0.984 . S
N5967 H5971 0.985 . S
H5968 N5963 0.984 . S
H5969 N5963 0.985 . S
H5970 N5967 0.984 . S
H5971 N5967 0.985 . S
H5972 N5966 0.984 . S
H5973 N5966 0.984 . S
H5974 N5962 0.984 . S
H5975 N5962 0.985 . S
C5976 C5977 1.363 . S
C5976 C5982 1.379 . S
C5976 N5984 1.356 . S
C5977 C5976 1.363 . S
C5977 C5983 1.363 . S
C5978 C5979 1.363 . S
C5978 C5983 1.379 . S
C5978 N5985 1.356 . S
C5979 C5978 1.363 . S
C5979 C5982 1.363 . S
N5980 C5982 1.356 . S
N5980 H5992 0.984 . S
N5980 H5993 0.985 . S
N5981 C5983 1.356 . S
N5981 H5986 0.984 . S
N5981 H5987 0.985 . S
C5982 C5976 1.379 . S
C5982 C5979 1.363 . S
C5982 N5980 1.356 . S
C5983 C5977 1.363 . S
C5983 C5978 1.379 . S
C5983 N5981 1.356 . S
N5984 C5976 1.356 . S
N5984 H5990 0.984 . S
N5984 H5991 0.984 . S
N5985 C5978 1.356 . S
N5985 H5988 0.984 . S
N5985 H5989 0.985 . S
H5986 N5981 0.984 . S
H5987 N5981 0.985 . S
H5988 N5985 0.984 . S
H5989 N5985 0.985 . S
H5990 N5984 0.984 . S
H5991 N5984 0.984 . S
H5992 N5980 0.984 . S
H5993 N5980 0.985 . S
C5994 C5995 1.363 . S
C5994 C6000 1.379 . S
C5994 N6002 1.356 . S
C5995 C5994 1.363 . S
C5995 C6001 1.363 . S
C5996 C5997 1.363 . S
C5996 C6001 1.379 . S
C5996 N6003 1.356 . S
C5997 C5996 1.363 . S
C5997 C6000 1.363 . S
N5998 C6000 1.356 . S
N5998 H6010 0.984 . S
N5998 H6011 0.985 . S
N5999 C6001 1.356 . S
N5999 H6004 0.984 . S
N5999 H6005 0.985 . S
C6000 C5994 1.379 . S
C6000 C5997 1.363 . S
C6000 N5998 1.356 . S
C6001 C5995 1.363 . S
C6001 C5996 1.379 . S
C6001 N5999 1.356 . S
N6002 C5994 1.356 . S
N6002 H6008 0.984 . S
N6002 H6009 0.984 . S
N6003 C5996 1.356 . S
N6003 H6006 0.984 . S
N6003 H6007 0.985 . S
H6004 N5999 0.984 . S
H6005 N5999 0.985 . S
H6006 N6003 0.984 . S
H6007 N6003 0.985 . S
H6008 N6002 0.984 . S
H6009 N6002 0.984 . S
H6010 N5998 0.984 . S
H6011 N5998 0.985 . S
C6012 C6013 1.363 . S
C6012 C6018 1.379 . S
C6012 N6020 1.356 . S
C6013 C6012 1.363 . S
C6013 C6019 1.363 . S
C6014 C6015 1.363 . S
C6014 C6019 1.379 . S
C6014 N6021 1.356 . S
C6015 C6014 1.363 . S
C6015 C6018 1.363 . S
N6016 C6018 1.356 . S
N6016 H6028 0.984 . S
N6016 H6029 0.985 . S
N6017 C6019 1.356 . S
N6017 H6022 0.984 . S
N6017 H6023 0.985 . S
C6018 C6012 1.379 . S
C6018 C6015 1.363 . S
C6018 N6016 1.356 . S
C6019 C6013 1.363 . S
C6019 C6014 1.379 . S
C6019 N6017 1.356 . S
N6020 C6012 1.356 . S
N6020 H6026 0.984 . S
N6020 H6027 0.984 . S
N6021 C6014 1.356 . S
N6021 H6024 0.984 . S
N6021 H6025 0.985 . S
H6022 N6017 0.984 . S
H6023 N6017 0.985 . S
H6024 N6021 0.984 . S
H6025 N6021 0.985 . S
H6026 N6020 0.984 . S
H6027 N6020 0.984 . S
H6028 N6016 0.984 . S
H6029 N6016 0.985 . S
C6030 C6031 1.363 . S
C6030 C6036 1.379 . S
C6030 N6038 1.356 . S
C6031 C6030 1.363 . S
C6031 C6037 1.363 . S
C6032 C6033 1.363 . S
C6032 C6037 1.379 . S
C6032 N6039 1.356 1_556 S
C6033 C6032 1.363 . S
C6033 C6036 1.363 . S
N6034 C6036 1.356 . S
N6034 H6046 0.984 . S
N6034 H6047 0.985 . S
N6035 C6037 1.356 . S
N6035 H6040 0.984 . S
N6035 H6041 0.985 . S
C6036 C6030 1.379 . S
C6036 C6033 1.363 . S
C6036 N6034 1.356 . S
C6037 C6031 1.363 . S
C6037 C6032 1.379 . S
C6037 N6035 1.356 . S
N6038 C6030 1.356 . S
N6038 H6044 0.984 . S
N6038 H6045 0.984 . S
N6039 C6032 1.356 1_554 S
N6039 H6042 0.984 . S
N6039 H6043 0.985 . S
H6040 N6035 0.984 . S
H6041 N6035 0.985 . S
H6042 N6039 0.984 . S
H6043 N6039 0.985 . S
H6044 N6038 0.984 . S
H6045 N6038 0.984 . S
H6046 N6034 0.984 . S
H6047 N6034 0.985 . S
C6048 C6049 1.363 . S
C6048 C6054 1.379 . S
C6048 N6056 1.356 . S
C6049 C6048 1.363 . S
C6049 C6055 1.363 . S
C6050 C6051 1.363 . S
C6050 C6055 1.379 . S
C6050 N6057 1.356 . S
C6051 C6050 1.363 . S
C6051 C6054 1.363 . S
N6052 C6054 1.356 . S
N6052 H6064 0.984 . S
N6052 H6065 0.985 . S
N6053 C6055 1.356 . S
N6053 H6058 0.984 . S
N6053 H6059 0.985 . S
C6054 C6048 1.379 . S
C6054 C6051 1.363 . S
C6054 N6052 1.356 . S
C6055 C6049 1.363 . S
C6055 C6050 1.379 . S
C6055 N6053 1.356 . S
N6056 C6048 1.356 . S
N6056 H6062 0.984 . S
N6056 H6063 0.984 . S
N6057 C6050 1.356 . S
N6057 H6060 0.984 . S
N6057 H6061 0.985 . S
H6058 N6053 0.984 . S
H6059 N6053 0.985 . S
H6060 N6057 0.984 . S
H6061 N6057 0.985 . S
H6062 N6056 0.984 . S
H6063 N6056 0.984 . S
H6064 N6052 0.984 . S
H6065 N6052 0.985 . S
C6066 C6067 1.363 . S
C6066 C6072 1.379 . S
C6066 N6074 1.356 . S
C6067 C6066 1.363 . S
C6067 C6073 1.363 . S
C6068 C6069 1.363 . S
C6068 C6073 1.379 . S
C6068 N6075 1.356 . S
C6069 C6068 1.363 . S
C6069 C6072 1.363 . S
N6070 C6072 1.356 . S
N6070 H6082 0.984 . S
N6070 H6083 0.985 . S
N6071 C6073 1.356 . S
N6071 H6076 0.984 . S
N6071 H6077 0.985 . S
C6072 C6066 1.379 . S
C6072 C6069 1.363 . S
C6072 N6070 1.356 . S
C6073 C6067 1.363 . S
C6073 C6068 1.379 . S
C6073 N6071 1.356 . S
N6074 C6066 1.356 . S
N6074 H6080 0.984 . S
N6074 H6081 0.984 . S
N6075 C6068 1.356 . S
N6075 H6078 0.984 . S
N6075 H6079 0.985 . S
H6076 N6071 0.984 . S
H6077 N6071 0.985 . S
H6078 N6075 0.984 . S
H6079 N6075 0.985 . S
H6080 N6074 0.984 . S
H6081 N6074 0.984 . S
H6082 N6070 0.984 . S
H6083 N6070 0.985 . S
C6084 C6085 1.363 . S
C6084 C6090 1.379 . S
C6084 N6092 1.356 . S
C6085 C6084 1.363 . S
C6085 C6091 1.363 . S
C6086 C6087 1.363 . S
C6086 C6091 1.379 . S
C6086 N6093 1.356 . S
C6087 C6086 1.363 . S
C6087 C6090 1.363 . S
N6088 C6090 1.356 . S
N6088 H6100 0.984 . S
N6088 H6101 0.985 . S
N6089 C6091 1.356 . S
N6089 H6094 0.984 . S
N6089 H6095 0.985 . S
C6090 C6084 1.379 . S
C6090 C6087 1.363 . S
C6090 N6088 1.356 . S
C6091 C6085 1.363 . S
C6091 C6086 1.379 . S
C6091 N6089 1.356 . S
N6092 C6084 1.356 . S
N6092 H6098 0.984 . S
N6092 H6099 0.984 . S
N6093 C6086 1.356 . S
N6093 H6096 0.984 . S
N6093 H6097 0.985 . S
H6094 N6089 0.984 . S
H6095 N6089 0.985 . S
H6096 N6093 0.984 . S
H6097 N6093 0.985 . S
H6098 N6092 0.984 . S
H6099 N6092 0.984 . S
H6100 N6088 0.984 . S
H6101 N6088 0.985 . S
C6102 C6103 1.363 . S
C6102 C6108 1.379 . S
C6102 N6110 1.356 . S
C6103 C6102 1.363 . S
C6103 C6109 1.363 . S
C6104 C6105 1.363 . S
C6104 C6109 1.379 . S
C6104 N6111 1.356 . S
C6105 C6104 1.363 . S
C6105 C6108 1.363 . S
N6106 C6108 1.356 . S
N6106 H6118 0.984 . S
N6106 H6119 0.985 1_545 S
N6107 C6109 1.356 . S
N6107 H6112 0.984 . S
N6107 H6113 0.985 . S
C6108 C6102 1.379 . S
C6108 C6105 1.363 . S
C6108 N6106 1.356 . S
C6109 C6103 1.363 . S
C6109 C6104 1.379 . S
C6109 N6107 1.356 . S
N6110 C6102 1.356 . S
N6110 H6116 0.984 . S
N6110 H6117 0.984 . S
N6111 C6104 1.356 . S
N6111 H6114 0.984 1_545 S
N6111 H6115 0.985 . S
H6112 N6107 0.984 . S
H6113 N6107 0.985 . S
H6114 N6111 0.984 1_565 S
H6115 N6111 0.985 . S
H6116 N6110 0.984 . S
H6117 N6110 0.984 . S
H6118 N6106 0.984 . S
H6119 N6106 0.985 1_565 S
C6120 C6121 1.363 . S
C6120 C6126 1.379 . S
C6120 N6128 1.356 . S
C6121 C6120 1.363 . S
C6121 C6127 1.363 . S
C6122 C6123 1.363 . S
C6122 C6127 1.379 . S
C6122 N6129 1.356 . S
C6123 C6122 1.363 . S
C6123 C6126 1.363 . S
N6124 C6126 1.356 . S
N6124 H6136 0.984 . S
N6124 H6137 0.985 . S
N6125 C6127 1.356 . S
N6125 H6130 0.984 . S
N6125 H6131 0.985 . S
C6126 C6120 1.379 . S
C6126 C6123 1.363 . S
C6126 N6124 1.356 . S
C6127 C6121 1.363 . S
C6127 C6122 1.379 . S
C6127 N6125 1.356 . S
N6128 C6120 1.356 . S
N6128 H6134 0.984 . S
N6128 H6135 0.984 . S
N6129 C6122 1.356 . S
N6129 H6132 0.984 . S
N6129 H6133 0.985 . S
H6130 N6125 0.984 . S
H6131 N6125 0.985 . S
H6132 N6129 0.984 . S
H6133 N6129 0.985 . S
H6134 N6128 0.984 . S
H6135 N6128 0.984 . S
H6136 N6124 0.984 . S
H6137 N6124 0.985 . S
C6138 C6139 1.363 . S
C6138 C6144 1.379 . S
C6138 N6146 1.356 . S
C6139 C6138 1.363 . S
C6139 C6145 1.363 . S
C6140 C6141 1.363 . S
C6140 C6145 1.379 . S
C6140 N6147 1.356 . S
C6141 C6140 1.363 . S
C6141 C6144 1.363 . S
N6142 C6144 1.356 . S
N6142 H6154 0.984 . S
N6142 H6155 0.985 . S
N6143 C6145 1.356 . S
N6143 H6148 0.984 . S
N6143 H6149 0.985 . S
C6144 C6138 1.379 . S
C6144 C6141 1.363 . S
C6144 N6142 1.356 . S
C6145 C6139 1.363 . S
C6145 C6140 1.379 . S
C6145 N6143 1.356 . S
N6146 C6138 1.356 . S
N6146 H6152 0.984 . S
N6146 H6153 0.984 . S
N6147 C6140 1.356 . S
N6147 H6150 0.984 . S
N6147 H6151 0.985 . S
H6148 N6143 0.984 . S
H6149 N6143 0.985 . S
H6150 N6147 0.984 . S
H6151 N6147 0.985 . S
H6152 N6146 0.984 . S
H6153 N6146 0.984 . S
H6154 N6142 0.984 . S
H6155 N6142 0.985 . S
C6156 C6157 1.363 . S
C6156 C6162 1.379 . S
C6156 N6164 1.356 . S
C6157 C6156 1.363 . S
C6157 C6163 1.363 . S
C6158 C6159 1.363 . S
C6158 C6163 1.379 . S
C6158 N6165 1.356 . S
C6159 C6158 1.363 . S
C6159 C6162 1.363 . S
N6160 C6162 1.356 . S
N6160 H6172 0.984 . S
N6160 H6173 0.985 . S
N6161 C6163 1.356 . S
N6161 H6166 0.984 . S
N6161 H6167 0.985 . S
C6162 C6156 1.379 . S
C6162 C6159 1.363 . S
C6162 N6160 1.356 . S
C6163 C6157 1.363 . S
C6163 C6158 1.379 . S
C6163 N6161 1.356 . S
N6164 C6156 1.356 . S
N6164 H6170 0.984 . S
N6164 H6171 0.984 . S
N6165 C6158 1.356 . S
N6165 H6168 0.984 . S
N6165 H6169 0.985 . S
H6166 N6161 0.984 . S
H6167 N6161 0.985 . S
H6168 N6165 0.984 . S
H6169 N6165 0.985 . S
H6170 N6164 0.984 . S
H6171 N6164 0.984 . S
H6172 N6160 0.984 . S
H6173 N6160 0.985 . S
C6174 C6175 1.363 . S
C6174 C6180 1.379 . S
C6174 N6182 1.356 . S
C6175 C6174 1.363 . S
C6175 C6181 1.363 . S
C6176 C6177 1.363 . S
C6176 C6181 1.379 . S
C6176 N6183 1.356 . S
C6177 C6176 1.363 . S
C6177 C6180 1.363 . S
N6178 C6180 1.356 . S
N6178 H6190 0.984 . S
N6178 H6191 0.985 . S
N6179 C6181 1.356 . S
N6179 H6184 0.984 . S
N6179 H6185 0.985 . S
C6180 C6174 1.379 . S
C6180 C6177 1.363 . S
C6180 N6178 1.356 . S
C6181 C6175 1.363 . S
C6181 C6176 1.379 . S
C6181 N6179 1.356 . S
N6182 C6174 1.356 . S
N6182 H6188 0.983 1_655 S
N6182 H6189 0.984 1_655 S
N6183 C6176 1.356 . S
N6183 H6186 0.984 . S
N6183 H6187 0.985 . S
H6184 N6179 0.984 . S
H6185 N6179 0.985 . S
H6186 N6183 0.984 . S
H6187 N6183 0.985 . S
H6188 N6182 0.983 1_455 S
H6189 N6182 0.984 1_455 S
H6190 N6178 0.984 . S
H6191 N6178 0.985 . S
C6192 C6193 1.363 . S
C6192 C6198 1.379 . S
C6192 N6200 1.356 . S
C6193 C6192 1.363 . S
C6193 C6199 1.363 . S
C6194 C6195 1.363 . S
C6194 C6199 1.379 . S
C6194 N6201 1.356 . S
C6195 C6194 1.363 . S
C6195 C6198 1.363 . S
N6196 C6198 1.356 1_545 S
N6196 H6208 0.984 . S
N6196 H6209 0.985 . S
N6197 C6199 1.356 . S
N6197 H6202 0.984 . S
N6197 H6203 0.985 . S
C6198 C6192 1.379 . S
C6198 C6195 1.363 . S
C6198 N6196 1.356 1_565 S
C6199 C6193 1.363 . S
C6199 C6194 1.379 . S
C6199 N6197 1.356 . S
N6200 C6192 1.356 . S
N6200 H6206 0.984 . S
N6200 H6207 0.984 . S
N6201 C6194 1.356 . S
N6201 H6204 0.984 . S
N6201 H6205 0.985 . S
H6202 N6197 0.984 . S
H6203 N6197 0.985 . S
H6204 N6201 0.984 . S
H6205 N6201 0.985 . S
H6206 N6200 0.984 . S
H6207 N6200 0.984 . S
H6208 N6196 0.984 . S
H6209 N6196 0.985 . S
C6210 C6211 1.363 . S
C6210 C6216 1.379 . S
C6210 N6218 1.356 . S
C6211 C6210 1.363 . S
C6211 C6217 1.363 . S
C6212 C6213 1.363 . S
C6212 C6217 1.379 . S
C6212 N6219 1.356 1_455 S
C6213 C6212 1.363 . S
C6213 C6216 1.363 . S
N6214 C6216 1.356 . S
N6214 H6226 0.984 . S
N6214 H6227 0.985 . S
N6215 C6217 1.356 . S
N6215 H6220 0.984 . S
N6215 H6221 0.985 . S
C6216 C6210 1.379 . S
C6216 C6213 1.363 . S
C6216 N6214 1.356 . S
C6217 C6211 1.363 . S
C6217 C6212 1.379 . S
C6217 N6215 1.356 . S
N6218 C6210 1.356 . S
N6218 H6224 0.984 . S
N6218 H6225 0.984 . S
N6219 C6212 1.356 1_655 S
N6219 H6222 0.984 . S
N6219 H6223 0.985 . S
H6220 N6215 0.984 . S
H6221 N6215 0.985 . S
H6222 N6219 0.984 . S
H6223 N6219 0.985 . S
H6224 N6218 0.984 . S
H6225 N6218 0.984 . S
H6226 N6214 0.984 . S
H6227 N6214 0.985 . S
C6228 C6229 1.363 . S
C6228 C6234 1.379 . S
C6228 N6236 1.356 . S
C6229 C6228 1.363 . S
C6229 C6235 1.363 . S
C6230 C6231 1.363 . S
C6230 C6235 1.379 . S
C6230 N6237 1.356 . S
C6231 C6230 1.363 . S
C6231 C6234 1.363 . S
N6232 C6234 1.356 . S
N6232 H6244 0.984 . S
N6232 H6245 0.985 . S
N6233 C6235 1.356 . S
N6233 H6238 0.984 . S
N6233 H6239 0.985 . S
C6234 C6228 1.379 . S
C6234 C6231 1.363 . S
C6234 N6232 1.356 . S
C6235 C6229 1.363 . S
C6235 C6230 1.379 . S
C6235 N6233 1.356 . S
N6236 C6228 1.356 . S
N6236 H6242 0.984 1_556 S
N6236 H6243 0.976 1_556 S
N6237 C6230 1.356 . S
N6237 H6240 0.984 . S
N6237 H6241 0.985 . S
H6238 N6233 0.984 . S
H6239 N6233 0.985 . S
H6240 N6237 0.984 . S
H6241 N6237 0.985 . S
H6242 N6236 0.984 1_554 S
H6243 N6236 0.976 1_554 S
H6244 N6232 0.984 . S
H6245 N6232 0.985 . S
C6246 C6247 1.363 . S
C6246 C6252 1.379 . S
C6246 N6254 1.356 . S
C6247 C6246 1.363 . S
C6247 C6253 1.363 . S
C6248 C6249 1.363 . S
C6248 C6253 1.379 . S
C6248 N6255 1.356 . S
C6249 C6248 1.363 . S
C6249 C6252 1.363 . S
N6250 C6252 1.356 . S
N6250 H6262 0.984 1_554 S
N6250 H6263 0.985 1_554 S
N6251 C6253 1.356 . S
N6251 H6256 0.984 . S
N6251 H6257 0.985 . S
C6252 C6246 1.379 . S
C6252 C6249 1.363 . S
C6252 N6250 1.356 . S
C6253 C6247 1.363 . S
C6253 C6248 1.379 . S
C6253 N6251 1.356 . S
N6254 C6246 1.356 . S
N6254 H6260 0.984 . S
N6254 H6261 0.984 . S
N6255 C6248 1.356 . S
N6255 H6258 0.984 . S
N6255 H6259 0.985 . S
H6256 N6251 0.984 . S
H6257 N6251 0.985 . S
H6258 N6255 0.984 . S
H6259 N6255 0.985 . S
H6260 N6254 0.984 . S
H6261 N6254 0.984 . S
H6262 N6250 0.984 1_556 S
H6263 N6250 0.985 1_556 S
C6264 C6265 1.363 . S
C6264 C6270 1.379 . S
C6264 N6272 1.356 . S
C6265 C6264 1.363 . S
C6265 C6271 1.363 . S
C6266 C6267 1.363 . S
C6266 C6271 1.379 . S
C6266 N6273 1.356 1_565 S
C6267 C6266 1.363 . S
C6267 C6270 1.363 . S
N6268 C6270 1.356 . S
N6268 H6280 0.984 . S
N6268 H6281 0.985 . S
N6269 C6271 1.356 . S
N6269 H6274 0.984 . S
N6269 H6275 0.985 . S
C6270 C6264 1.379 . S
C6270 C6267 1.363 . S
C6270 N6268 1.356 . S
C6271 C6265 1.363 . S
C6271 C6266 1.379 . S
C6271 N6269 1.356 . S
N6272 C6264 1.356 . S
N6272 H6278 0.984 . S
N6272 H6279 0.984 . S
N6273 C6266 1.356 1_545 S
N6273 H6276 0.984 . S
N6273 H6277 0.985 . S
H6274 N6269 0.984 . S
H6275 N6269 0.985 . S
H6276 N6273 0.984 . S
H6277 N6273 0.985 . S
H6278 N6272 0.984 . S
H6279 N6272 0.984 . S
H6280 N6268 0.984 . S
H6281 N6268 0.985 . S
C6282 C6283 1.363 . S
C6282 C6288 1.379 . S
C6282 N6290 1.356 . S
C6283 C6282 1.363 . S
C6283 C6289 1.363 . S
C6284 C6285 1.363 . S
C6284 C6289 1.379 . S
C6284 N6291 1.356 . S
C6285 C6284 1.363 . S
C6285 C6288 1.363 . S
N6286 C6288 1.356 1_655 S
N6286 H6298 0.984 . S
N6286 H6299 0.985 . S
N6287 C6289 1.356 . S
N6287 H6292 0.984 . S
N6287 H6293 0.985 . S
C6288 C6282 1.379 . S
C6288 C6285 1.363 . S
C6288 N6286 1.356 1_455 S
C6289 C6283 1.363 . S
C6289 C6284 1.379 . S
C6289 N6287 1.356 . S
N6290 C6282 1.356 . S
N6290 H6296 0.984 . S
N6290 H6297 0.984 . S
N6291 C6284 1.356 . S
N6291 H6294 0.984 . S
N6291 H6295 0.985 . S
H6292 N6287 0.984 . S
H6293 N6287 0.985 . S
H6294 N6291 0.984 . S
H6295 N6291 0.985 . S
H6296 N6290 0.984 . S
H6297 N6290 0.984 . S
H6298 N6286 0.984 . S
H6299 N6286 0.985 . S
C6300 C6301 1.363 . S
C6300 C6306 1.379 . S
C6300 N6308 1.356 . S
C6301 C6300 1.363 . S
C6301 C6307 1.363 . S
C6302 C6303 1.363 . S
C6302 C6307 1.379 . S
C6302 N6309 1.356 . S
C6303 C6302 1.363 . S
C6303 C6306 1.363 . S
N6304 C6306 1.356 . S
N6304 H6316 0.984 . S
N6304 H6317 0.985 . S
N6305 C6307 1.356 1_554 S
N6305 H6310 0.984 . S
N6305 H6311 0.985 . S
C6306 C6300 1.379 . S
C6306 C6303 1.363 . S
C6306 N6304 1.356 . S
C6307 C6301 1.363 . S
C6307 C6302 1.379 . S
C6307 N6305 1.356 1_556 S
N6308 C6300 1.356 . S
N6308 H6314 0.984 . S
N6308 H6315 0.984 . S
N6309 C6302 1.356 . S
N6309 H6312 0.984 . S
N6309 H6313 0.985 . S
H6310 N6305 0.984 . S
H6311 N6305 0.985 . S
H6312 N6309 0.984 . S
H6313 N6309 0.985 . S
H6314 N6308 0.984 . S
H6315 N6308 0.984 . S
H6316 N6304 0.984 . S
H6317 N6304 0.985 . S
C6318 C6319 1.363 . S
C6318 C6324 1.379 . S
C6318 N6326 1.356 . S
C6319 C6318 1.363 . S
C6319 C6325 1.363 . S
C6320 C6321 1.363 . S
C6320 C6325 1.379 . S
C6320 N6327 1.356 . S
C6321 C6320 1.363 . S
C6321 C6324 1.363 . S
N6322 C6324 1.356 . S
N6322 H6334 0.984 . S
N6322 H6335 0.985 . S
N6323 C6325 1.356 . S
N6323 H6328 0.984 . S
N6323 H6329 0.985 . S
C6324 C6318 1.379 . S
C6324 C6321 1.363 . S
C6324 N6322 1.356 . S
C6325 C6319 1.363 . S
C6325 C6320 1.379 . S
C6325 N6323 1.356 . S
N6326 C6318 1.356 . S
N6326 H6332 0.984 . S
N6326 H6333 0.984 . S
N6327 C6320 1.356 . S
N6327 H6330 0.984 . S
N6327 H6331 0.985 . S
H6328 N6323 0.984 . S
H6329 N6323 0.985 . S
H6330 N6327 0.984 . S
H6331 N6327 0.985 . S
H6332 N6326 0.984 . S
H6333 N6326 0.984 . S
H6334 N6322 0.984 . S
H6335 N6322 0.985 . S
C6336 C6337 1.363 . S
C6336 C6342 1.379 . S
C6336 N6344 1.356 . S
C6337 C6336 1.363 . S
C6337 C6343 1.363 . S
C6338 C6339 1.363 . S
C6338 C6343 1.379 . S
C6338 N6345 1.356 . S
C6339 C6338 1.363 . S
C6339 C6342 1.363 . S
N6340 C6342 1.356 . S
N6340 H6352 0.984 . S
N6340 H6353 0.985 . S
N6341 C6343 1.356 . S
N6341 H6346 0.984 . S
N6341 H6347 0.985 . S
C6342 C6336 1.379 . S
C6342 C6339 1.363 . S
C6342 N6340 1.356 . S
C6343 C6337 1.363 . S
C6343 C6338 1.379 . S
C6343 N6341 1.356 . S
N6344 C6336 1.356 . S
N6344 H6350 0.984 . S
N6344 H6351 0.984 . S
N6345 C6338 1.356 . S
N6345 H6348 0.984 . S
N6345 H6349 0.985 . S
H6346 N6341 0.984 . S
H6347 N6341 0.985 . S
H6348 N6345 0.984 . S
H6349 N6345 0.985 . S
H6350 N6344 0.984 . S
H6351 N6344 0.984 . S
H6352 N6340 0.984 . S
H6353 N6340 0.985 . S
C6354 C6355 1.363 . S
C6354 C6360 1.379 . S
C6354 N6362 1.356 . S
C6355 C6354 1.363 . S
C6355 C6361 1.363 . S
C6356 C6357 1.363 . S
C6356 C6361 1.379 . S
C6356 N6363 1.356 . S
C6357 C6356 1.363 . S
C6357 C6360 1.363 . S
N6358 C6360 1.356 . S
N6358 H6370 0.984 . S
N6358 H6371 0.985 . S
N6359 C6361 1.356 . S
N6359 H6364 0.984 . S
N6359 H6365 0.985 . S
C6360 C6354 1.379 . S
C6360 C6357 1.363 . S
C6360 N6358 1.356 . S
C6361 C6355 1.363 . S
C6361 C6356 1.379 . S
C6361 N6359 1.356 . S
N6362 C6354 1.356 . S
N6362 H6368 0.984 . S
N6362 H6369 0.984 . S
N6363 C6356 1.356 . S
N6363 H6366 0.984 . S
N6363 H6367 0.985 . S
H6364 N6359 0.984 . S
H6365 N6359 0.985 . S
H6366 N6363 0.984 . S
H6367 N6363 0.985 . S
H6368 N6362 0.984 . S
H6369 N6362 0.984 . S
H6370 N6358 0.984 . S
H6371 N6358 0.985 . S
C6372 C6373 1.363 . S
C6372 C6378 1.379 . S
C6372 N6380 1.356 . S
C6373 C6372 1.363 . S
C6373 C6379 1.363 . S
C6374 C6375 1.363 . S
C6374 C6379 1.379 . S
C6374 N6381 1.356 . S
C6375 C6374 1.363 . S
C6375 C6378 1.363 . S
N6376 C6378 1.356 . S
N6376 H6388 0.984 . S
N6376 H6389 0.985 . S
N6377 C6379 1.356 . S
N6377 H6382 0.984 . S
N6377 H6383 0.985 . S
C6378 C6372 1.379 . S
C6378 C6375 1.363 . S
C6378 N6376 1.356 . S
C6379 C6373 1.363 . S
C6379 C6374 1.379 . S
C6379 N6377 1.356 . S
N6380 C6372 1.356 . S
N6380 H6386 0.984 . S
N6380 H6387 0.984 . S
N6381 C6374 1.356 . S
N6381 H6384 0.984 . S
N6381 H6385 0.985 . S
H6382 N6377 0.984 . S
H6383 N6377 0.985 . S
H6384 N6381 0.984 . S
H6385 N6381 0.985 . S
H6386 N6380 0.984 . S
H6387 N6380 0.984 . S
H6388 N6376 0.984 . S
H6389 N6376 0.985 . S
C6390 C6391 1.363 . S
C6390 C6396 1.379 . S
C6390 N6398 1.356 . S
C6391 C6390 1.363 . S
C6391 C6397 1.363 . S
C6392 C6393 1.363 . S
C6392 C6397 1.379 . S
C6392 N6399 1.356 . S
C6393 C6392 1.363 . S
C6393 C6396 1.363 . S
N6394 C6396 1.356 . S
N6394 H6406 0.984 . S
N6394 H6407 0.985 . S
N6395 C6397 1.356 . S
N6395 H6400 0.984 1_554 S
N6395 H6401 0.985 . S
C6396 C6390 1.379 . S
C6396 C6393 1.363 . S
C6396 N6394 1.356 . S
C6397 C6391 1.363 . S
C6397 C6392 1.379 . S
C6397 N6395 1.356 . S
N6398 C6390 1.356 . S
N6398 H6404 0.984 . S
N6398 H6405 0.984 1_554 S
N6399 C6392 1.356 . S
N6399 H6402 0.984 . S
N6399 H6403 0.985 . S
H6400 N6395 0.984 1_556 S
H6401 N6395 0.985 . S
H6402 N6399 0.984 . S
H6403 N6399 0.985 . S
H6404 N6398 0.984 . S
H6405 N6398 0.984 1_556 S
H6406 N6394 0.984 . S
H6407 N6394 0.985 . S
C6408 C6409 1.363 . S
C6408 C6414 1.379 . S
C6408 N6416 1.356 . S
C6409 C6408 1.363 . S
C6409 C6415 1.363 . S
C6410 C6411 1.363 . S
C6410 C6415 1.379 . S
C6410 N6417 1.356 1_655 S
C6411 C6410 1.363 . S
C6411 C6414 1.363 . S
N6412 C6414 1.356 . S
N6412 H6424 0.984 . S
N6412 H6425 0.985 . S
N6413 C6415 1.356 . S
N6413 H6418 0.984 . S
N6413 H6419 0.985 . S
C6414 C6408 1.379 . S
C6414 C6411 1.363 . S
C6414 N6412 1.356 . S
C6415 C6409 1.363 . S
C6415 C6410 1.379 . S
C6415 N6413 1.356 . S
N6416 C6408 1.356 . S
N6416 H6422 0.984 . S
N6416 H6423 0.984 . S
N6417 C6410 1.356 1_455 S
N6417 H6420 0.984 . S
N6417 H6421 0.985 . S
H6418 N6413 0.984 . S
H6419 N6413 0.985 . S
H6420 N6417 0.984 . S
H6421 N6417 0.985 . S
H6422 N6416 0.984 . S
H6423 N6416 0.984 . S
H6424 N6412 0.984 . S
H6425 N6412 0.985 . S
C6426 C6427 1.363 . S
C6426 C6432 1.379 . S
C6426 N6434 1.356 . S
C6427 C6426 1.363 . S
C6427 C6433 1.363 . S
C6428 C6429 1.363 . S
C6428 C6433 1.379 . S
C6428 N6435 1.356 . S
C6429 C6428 1.363 . S
C6429 C6432 1.363 . S
N6430 C6432 1.356 . S
N6430 H6442 0.984 . S
N6430 H6443 0.985 . S
N6431 C6433 1.356 . S
N6431 H6436 0.984 . S
N6431 H6437 0.985 . S
C6432 C6426 1.379 . S
C6432 C6429 1.363 . S
C6432 N6430 1.356 . S
C6433 C6427 1.363 . S
C6433 C6428 1.379 . S
C6433 N6431 1.356 . S
N6434 C6426 1.356 . S
N6434 H6440 0.984 . S
N6434 H6441 0.984 . S
N6435 C6428 1.356 . S
N6435 H6438 0.984 . S
N6435 H6439 0.985 . S
H6436 N6431 0.984 . S
H6437 N6431 0.985 . S
H6438 N6435 0.984 . S
H6439 N6435 0.985 . S
H6440 N6434 0.984 . S
H6441 N6434 0.984 . S
H6442 N6430 0.984 . S
H6443 N6430 0.985 . S
C6444 C6445 1.363 . S
C6444 C6450 1.379 . S
C6444 N6452 1.356 . S
C6445 C6444 1.363 . S
C6445 C6451 1.363 . S
C6446 C6447 1.363 . S
C6446 C6451 1.379 . S
C6446 N6453 1.356 . S
C6447 C6446 1.363 . S
C6447 C6450 1.363 . S
N6448 C6450 1.356 . S
N6448 H6460 0.984 . S
N6448 H6461 0.985 . S
N6449 C6451 1.356 . S
N6449 H6454 0.984 . S
N6449 H6455 0.985 . S
C6450 C6444 1.379 . S
C6450 C6447 1.363 . S
C6450 N6448 1.356 . S
C6451 C6445 1.363 . S
C6451 C6446 1.379 . S
C6451 N6449 1.356 . S
N6452 C6444 1.356 . S
N6452 H6458 0.984 . S
N6452 H6459 0.984 . S
N6453 C6446 1.356 . S
N6453 H6456 0.984 . S
N6453 H6457 0.985 . S
H6454 N6449 0.984 . S
H6455 N6449 0.985 . S
H6456 N6453 0.984 . S
H6457 N6453 0.985 . S
H6458 N6452 0.984 . S
H6459 N6452 0.984 . S
H6460 N6448 0.984 . S
H6461 N6448 0.985 . S
C6462 C6463 1.363 . S
C6462 C6468 1.379 . S
C6462 N6470 1.356 . S
C6463 C6462 1.363 . S
C6463 C6469 1.363 . S
C6464 C6465 1.363 . S
C6464 C6469 1.379 . S
C6464 N6471 1.356 . S
C6465 C6464 1.363 . S
C6465 C6468 1.363 . S
N6466 C6468 1.356 . S
N6466 H6478 0.984 . S
N6466 H6479 0.985 . S
N6467 C6469 1.356 . S
N6467 H6472 0.984 . S
N6467 H6473 0.985 . S
C6468 C6462 1.379 . S
C6468 C6465 1.363 . S
C6468 N6466 1.356 . S
C6469 C6463 1.363 . S
C6469 C6464 1.379 . S
C6469 N6467 1.356 . S
N6470 C6462 1.356 . S
N6470 H6476 0.984 . S
N6470 H6477 0.984 . S
N6471 C6464 1.356 . S
N6471 H6474 0.984 . S
N6471 H6475 0.985 . S
H6472 N6467 0.984 . S
H6473 N6467 0.985 . S
H6474 N6471 0.984 . S
H6475 N6471 0.985 . S
H6476 N6470 0.984 . S
H6477 N6470 0.984 . S
H6478 N6466 0.984 . S
H6479 N6466 0.985 . S
C6480 C6481 1.363 . S
C6480 C6486 1.379 . S
C6480 N6488 1.356 . S
C6481 C6480 1.363 . S
C6481 C6487 1.363 . S
C6482 C6483 1.363 . S
C6482 C6487 1.379 . S
C6482 N6489 1.356 . S
C6483 C6482 1.363 . S
C6483 C6486 1.363 . S
N6484 C6486 1.356 . S
N6484 H6496 0.984 . S
N6484 H6497 0.985 . S
N6485 C6487 1.356 . S
N6485 H6490 0.984 . S
N6485 H6491 0.985 . S
C6486 C6480 1.379 . S
C6486 C6483 1.363 . S
C6486 N6484 1.356 . S
C6487 C6481 1.363 . S
C6487 C6482 1.379 . S
C6487 N6485 1.356 . S
N6488 C6480 1.356 . S
N6488 H6494 0.984 . S
N6488 H6495 0.984 . S
N6489 C6482 1.356 . S
N6489 H6492 0.984 . S
N6489 H6493 0.985 . S
H6490 N6485 0.984 . S
H6491 N6485 0.985 . S
H6492 N6489 0.984 . S
H6493 N6489 0.985 . S
H6494 N6488 0.984 . S
H6495 N6488 0.984 . S
H6496 N6484 0.984 . S
H6497 N6484 0.985 . S
C6498 C6499 1.363 . S
C6498 C6504 1.379 . S
C6498 N6506 1.356 . S
C6499 C6498 1.363 . S
C6499 C6505 1.363 . S
C6500 C6501 1.363 . S
C6500 C6505 1.379 . S
C6500 N6507 1.356 . S
C6501 C6500 1.363 . S
C6501 C6504 1.363 . S
N6502 C6504 1.356 . S
N6502 H6514 0.984 . S
N6502 H6515 0.985 . S
N6503 C6505 1.356 1_655 S
N6503 H6508 0.984 . S
N6503 H6509 0.985 . S
C6504 C6498 1.379 . S
C6504 C6501 1.363 . S
C6504 N6502 1.356 . S
C6505 C6499 1.363 . S
C6505 C6500 1.379 . S
C6505 N6503 1.356 1_455 S
N6506 C6498 1.356 . S
N6506 H6512 0.984 . S
N6506 H6513 0.984 . S
N6507 C6500 1.356 . S
N6507 H6510 0.984 . S
N6507 H6511 0.985 . S
H6508 N6503 0.984 . S
H6509 N6503 0.985 . S
H6510 N6507 0.984 . S
H6511 N6507 0.985 . S
H6512 N6506 0.984 . S
H6513 N6506 0.984 . S
H6514 N6502 0.984 . S
H6515 N6502 0.985 . S
C6516 C6517 1.363 . S
C6516 C6522 1.379 . S
C6516 N6524 1.356 . S
C6517 C6516 1.363 . S
C6517 C6523 1.363 . S
C6518 C6519 1.363 . S
C6518 C6523 1.379 . S
C6518 N6525 1.356 1_655 S
C6519 C6518 1.363 . S
C6519 C6522 1.363 . S
N6520 C6522 1.356 . S
N6520 H6532 0.984 . S
N6520 H6533 0.985 . S
N6521 C6523 1.356 . S
N6521 H6526 0.984 . S
N6521 H6527 0.985 . S
C6522 C6516 1.379 . S
C6522 C6519 1.363 . S
C6522 N6520 1.356 . S
C6523 C6517 1.363 . S
C6523 C6518 1.379 . S
C6523 N6521 1.356 . S
N6524 C6516 1.356 . S
N6524 H6530 0.984 . S
N6524 H6531 0.984 . S
N6525 C6518 1.356 1_455 S
N6525 H6528 0.984 . S
N6525 H6529 0.985 . S
H6526 N6521 0.984 . S
H6527 N6521 0.985 . S
H6528 N6525 0.984 . S
H6529 N6525 0.985 . S
H6530 N6524 0.984 . S
H6531 N6524 0.984 . S
H6532 N6520 0.984 . S
H6533 N6520 0.985 . S
C6534 C6535 1.363 . S
C6534 C6540 1.379 . S
C6534 N6542 1.356 . S
C6535 C6534 1.363 . S
C6535 C6541 1.363 . S
C6536 C6537 1.363 . S
C6536 C6541 1.379 . S
C6536 N6543 1.356 . S
C6537 C6536 1.363 . S
C6537 C6540 1.363 . S
N6538 C6540 1.356 . S
N6538 H6550 0.984 . S
N6538 H6551 0.985 . S
N6539 C6541 1.356 . S
N6539 H6544 0.984 . S
N6539 H6545 0.985 . S
C6540 C6534 1.379 . S
C6540 C6537 1.363 . S
C6540 N6538 1.356 . S
C6541 C6535 1.363 . S
C6541 C6536 1.379 . S
C6541 N6539 1.356 . S
N6542 C6534 1.356 . S
N6542 H6548 0.984 . S
N6542 H6549 0.984 . S
N6543 C6536 1.356 . S
N6543 H6546 0.984 . S
N6543 H6547 0.985 . S
H6544 N6539 0.984 . S
H6545 N6539 0.985 . S
H6546 N6543 0.984 . S
H6547 N6543 0.985 . S
H6548 N6542 0.984 . S
H6549 N6542 0.984 . S
H6550 N6538 0.984 . S
H6551 N6538 0.985 . S
C6552 C6553 1.363 . S
C6552 C6558 1.379 . S
C6552 N6560 1.356 . S
C6553 C6552 1.363 . S
C6553 C6559 1.363 . S
C6554 C6555 1.363 . S
C6554 C6559 1.379 . S
C6554 N6561 1.356 . S
C6555 C6554 1.363 . S
C6555 C6558 1.363 . S
N6556 C6558 1.356 . S
N6556 H6568 0.984 . S
N6556 H6569 0.985 . S
N6557 C6559 1.356 . S
N6557 H6562 0.984 . S
N6557 H6563 0.985 . S
C6558 C6552 1.379 . S
C6558 C6555 1.363 . S
C6558 N6556 1.356 . S
C6559 C6553 1.363 . S
C6559 C6554 1.379 . S
C6559 N6557 1.356 . S
N6560 C6552 1.356 . S
N6560 H6566 0.984 . S
N6560 H6567 0.984 . S
N6561 C6554 1.356 . S
N6561 H6564 0.984 . S
N6561 H6565 0.985 . S
H6562 N6557 0.984 . S
H6563 N6557 0.985 . S
H6564 N6561 0.984 . S
H6565 N6561 0.985 . S
H6566 N6560 0.984 . S
H6567 N6560 0.984 . S
H6568 N6556 0.984 . S
H6569 N6556 0.985 . S
C6570 C6571 1.363 . S
C6570 C6576 1.379 . S
C6570 N6578 1.356 . S
C6571 C6570 1.363 . S
C6571 C6577 1.363 . S
C6572 C6573 1.363 . S
C6572 C6577 1.379 . S
C6572 N6579 1.356 . S
C6573 C6572 1.363 . S
C6573 C6576 1.363 . S
N6574 C6576 1.356 . S
N6574 H6586 0.984 . S
N6574 H6587 0.985 . S
N6575 C6577 1.356 . S
N6575 H6580 0.984 . S
N6575 H6581 0.985 . S
C6576 C6570 1.379 . S
C6576 C6573 1.363 . S
C6576 N6574 1.356 . S
C6577 C6571 1.363 . S
C6577 C6572 1.379 . S
C6577 N6575 1.356 . S
N6578 C6570 1.356 . S
N6578 H6584 0.984 . S
N6578 H6585 0.984 . S
N6579 C6572 1.356 . S
N6579 H6582 0.984 . S
N6579 H6583 0.985 . S
H6580 N6575 0.984 . S
H6581 N6575 0.985 . S
H6582 N6579 0.984 . S
H6583 N6579 0.985 . S
H6584 N6578 0.984 . S
H6585 N6578 0.984 . S
H6586 N6574 0.984 . S
H6587 N6574 0.985 . S
C6588 C6589 1.363 . S
C6588 C6594 1.379 . S
C6588 N6596 1.356 . S
C6589 C6588 1.363 . S
C6589 C6595 1.363 . S
C6590 C6591 1.363 . S
C6590 C6595 1.379 . S
C6590 N6597 1.356 . S
C6591 C6590 1.363 . S
C6591 C6594 1.363 . S
N6592 C6594 1.356 . S
N6592 H6604 0.984 . S
N6592 H6605 0.985 . S
N6593 C6595 1.356 . S
N6593 H6598 0.984 . S
N6593 H6599 0.985 . S
C6594 C6588 1.379 . S
C6594 C6591 1.363 . S
C6594 N6592 1.356 . S
C6595 C6589 1.363 . S
C6595 C6590 1.379 . S
C6595 N6593 1.356 . S
N6596 C6588 1.356 . S
N6596 H6602 0.984 . S
N6596 H6603 0.984 . S
N6597 C6590 1.356 . S
N6597 H6600 0.984 . S
N6597 H6601 0.985 . S
H6598 N6593 0.984 . S
H6599 N6593 0.985 . S
H6600 N6597 0.984 . S
H6601 N6597 0.985 . S
H6602 N6596 0.984 . S
H6603 N6596 0.984 . S
H6604 N6592 0.984 . S
H6605 N6592 0.985 . S
C6606 C6607 1.363 . S
C6606 C6612 1.379 . S
C6606 N6614 1.356 1_655 S
C6607 C6606 1.363 . S
C6607 C6613 1.363 . S
C6608 C6609 1.363 . S
C6608 C6613 1.379 . S
C6608 N6615 1.356 . S
C6609 C6608 1.363 . S
C6609 C6612 1.363 . S
N6610 C6612 1.356 1_554 S
N6610 H6622 0.984 . S
N6610 H6623 0.985 . S
N6611 C6613 1.356 . S
N6611 H6616 0.984 . S
N6611 H6617 0.985 . S
C6612 C6606 1.379 . S
C6612 C6609 1.363 . S
C6612 N6610 1.356 1_556 S
C6613 C6607 1.363 . S
C6613 C6608 1.379 . S
C6613 N6611 1.356 . S
N6614 C6606 1.356 1_455 S
N6614 H6620 0.984 . S
N6614 H6621 0.984 . S
N6615 C6608 1.356 . S
N6615 H6618 0.984 . S
N6615 H6619 0.985 . S
H6616 N6611 0.984 . S
H6617 N6611 0.985 . S
H6618 N6615 0.984 . S
H6619 N6615 0.985 . S
H6620 N6614 0.984 . S
H6621 N6614 0.984 . S
H6622 N6610 0.984 . S
H6623 N6610 0.985 . S
C6624 C6625 1.363 . S
C6624 C6630 1.379 . S
C6624 N6632 1.356 . S
C6625 C6624 1.363 . S
C6625 C6631 1.363 . S
C6626 C6627 1.363 . S
C6626 C6631 1.379 . S
C6626 N6633 1.356 . S
C6627 C6626 1.363 . S
C6627 C6630 1.363 . S
N6628 C6630 1.356 . S
N6628 H6640 0.984 . S
N6628 H6641 0.985 . S
N6629 C6631 1.356 . S
N6629 H6634 0.984 . S
N6629 H6635 0.985 . S
C6630 C6624 1.379 . S
C6630 C6627 1.363 . S
C6630 N6628 1.356 . S
C6631 C6625 1.363 . S
C6631 C6626 1.379 . S
C6631 N6629 1.356 . S
N6632 C6624 1.356 . S
N6632 H6638 0.984 . S
N6632 H6639 0.984 . S
N6633 C6626 1.356 . S
N6633 H6636 0.984 . S
N6633 H6637 0.985 . S
H6634 N6629 0.984 . S
H6635 N6629 0.985 . S
H6636 N6633 0.984 . S
H6637 N6633 0.985 . S
H6638 N6632 0.984 . S
H6639 N6632 0.984 . S
H6640 N6628 0.984 . S
H6641 N6628 0.985 . S
C6642 C6643 1.363 . S
C6642 C6648 1.379 . S
C6642 N6650 1.356 . S
C6643 C6642 1.363 . S
C6643 C6649 1.363 . S
C6644 C6645 1.363 . S
C6644 C6649 1.379 . S
C6644 N6651 1.356 . S
C6645 C6644 1.363 . S
C6645 C6648 1.363 . S
N6646 C6648 1.356 . S
N6646 H6658 0.984 . S
N6646 H6659 0.985 . S
N6647 C6649 1.356 . S
N6647 H6652 0.984 . S
N6647 H6653 0.985 . S
C6648 C6642 1.379 . S
C6648 C6645 1.363 . S
C6648 N6646 1.356 . S
C6649 C6643 1.363 . S
C6649 C6644 1.379 . S
C6649 N6647 1.356 . S
N6650 C6642 1.356 . S
N6650 H6656 0.984 . S
N6650 H6657 0.984 . S
N6651 C6644 1.356 . S
N6651 H6654 0.984 . S
N6651 H6655 0.985 . S
H6652 N6647 0.984 . S
H6653 N6647 0.985 . S
H6654 N6651 0.984 . S
H6655 N6651 0.985 . S
H6656 N6650 0.984 . S
H6657 N6650 0.984 . S
H6658 N6646 0.984 . S
H6659 N6646 0.985 . S
C6660 C6661 1.363 . S
C6660 C6666 1.379 . S
C6660 N6668 1.356 . S
C6661 C6660 1.363 . S
C6661 C6667 1.363 . S
C6662 C6663 1.363 . S
C6662 C6667 1.379 . S
C6662 N6669 1.356 . S
C6663 C6662 1.363 . S
C6663 C6666 1.363 . S
N6664 C6666 1.356 . S
N6664 H6676 0.984 . S
N6664 H6677 0.985 . S
N6665 C6667 1.356 1_545 S
N6665 H6670 0.984 . S
N6665 H6671 0.985 . S
C6666 C6660 1.379 . S
C6666 C6663 1.363 . S
C6666 N6664 1.356 . S
C6667 C6661 1.363 . S
C6667 C6662 1.379 . S
C6667 N6665 1.356 1_565 S
N6668 C6660 1.356 . S
N6668 H6674 0.984 . S
N6668 H6675 0.984 . S
N6669 C6662 1.356 . S
N6669 H6672 0.984 . S
N6669 H6673 0.985 . S
H6670 N6665 0.984 . S
H6671 N6665 0.985 . S
H6672 N6669 0.984 . S
H6673 N6669 0.985 . S
H6674 N6668 0.984 . S
H6675 N6668 0.984 . S
H6676 N6664 0.984 . S
H6677 N6664 0.985 . S
C6678 C6679 1.363 . S
C6678 C6684 1.379 . S
C6678 N6686 1.356 . S
C6679 C6678 1.363 . S
C6679 C6685 1.363 . S
C6680 C6681 1.363 . S
C6680 C6685 1.379 . S
C6680 N6687 1.356 . S
C6681 C6680 1.363 . S
C6681 C6684 1.363 . S
N6682 C6684 1.356 . S
N6682 H6694 0.984 . S
N6682 H6695 0.985 . S
N6683 C6685 1.356 . S
N6683 H6688 0.984 . S
N6683 H6689 0.985 . S
C6684 C6678 1.379 . S
C6684 C6681 1.363 . S
C6684 N6682 1.356 . S
C6685 C6679 1.363 . S
C6685 C6680 1.379 . S
C6685 N6683 1.356 . S
N6686 C6678 1.356 . S
N6686 H6692 0.984 . S
N6686 H6693 0.984 . S
N6687 C6680 1.356 . S
N6687 H6690 0.984 . S
N6687 H6691 0.985 . S
H6688 N6683 0.984 . S
H6689 N6683 0.985 . S
H6690 N6687 0.984 . S
H6691 N6687 0.985 . S
H6692 N6686 0.984 . S
H6693 N6686 0.984 . S
H6694 N6682 0.984 . S
H6695 N6682 0.985 . S
C6696 C6697 1.363 . S
C6696 C6702 1.379 . S
C6696 N6704 1.356 1_556 S
C6697 C6696 1.363 . S
C6697 C6703 1.363 . S
C6698 C6699 1.363 . S
C6698 C6703 1.379 . S
C6698 N6705 1.356 . S
C6699 C6698 1.363 . S
C6699 C6702 1.363 . S
N6700 C6702 1.356 . S
N6700 H6712 0.984 . S
N6700 H6713 0.985 . S
N6701 C6703 1.356 . S
N6701 H6706 0.984 . S
N6701 H6707 0.985 . S
C6702 C6696 1.379 . S
C6702 C6699 1.363 . S
C6702 N6700 1.356 . S
C6703 C6697 1.363 . S
C6703 C6698 1.379 . S
C6703 N6701 1.356 . S
N6704 C6696 1.356 1_554 S
N6704 H6710 0.984 . S
N6704 H6711 0.984 . S
N6705 C6698 1.356 . S
N6705 H6708 0.984 . S
N6705 H6709 0.985 . S
H6706 N6701 0.984 . S
H6707 N6701 0.985 . S
H6708 N6705 0.984 . S
H6709 N6705 0.985 . S
H6710 N6704 0.984 . S
H6711 N6704 0.984 . S
H6712 N6700 0.984 . S
H6713 N6700 0.985 . S
C6714 C6715 1.363 . S
C6714 C6720 1.379 . S
C6714 N6722 1.356 . S
C6715 C6714 1.363 . S
C6715 C6721 1.363 . S
C6716 C6717 1.363 . S
C6716 C6721 1.379 . S
C6716 N6723 1.356 . S
C6717 C6716 1.363 . S
C6717 C6720 1.363 . S
N6718 C6720 1.356 . S
N6718 H6730 0.984 . S
N6718 H6731 0.985 . S
N6719 C6721 1.356 . S
N6719 H6724 0.984 . S
N6719 H6725 0.985 . S
C6720 C6714 1.379 . S
C6720 C6717 1.363 . S
C6720 N6718 1.356 . S
C6721 C6715 1.363 . S
C6721 C6716 1.379 . S
C6721 N6719 1.356 . S
N6722 C6714 1.356 . S
N6722 H6728 0.984 . S
N6722 H6729 0.984 . S
N6723 C6716 1.356 . S
N6723 H6726 0.984 . S
N6723 H6727 0.985 . S
H6724 N6719 0.984 . S
H6725 N6719 0.985 . S
H6726 N6723 0.984 . S
H6727 N6723 0.985 . S
H6728 N6722 0.984 . S
H6729 N6722 0.984 . S
H6730 N6718 0.984 . S
H6731 N6718 0.985 . S
C6732 C6733 1.363 . S
C6732 C6738 1.379 . S
C6732 N6740 1.356 . S
C6733 C6732 1.363 . S
C6733 C6739 1.363 . S
C6734 C6735 1.363 . S
C6734 C6739 1.379 . S
C6734 N6741 1.356 . S
C6735 C6734 1.363 . S
C6735 C6738 1.363 . S
N6736 C6738 1.356 . S
N6736 H6748 0.984 . S
N6736 H6749 0.985 . S
N6737 C6739 1.356 1_565 S
N6737 H6742 0.984 . S
N6737 H6743 0.985 . S
C6738 C6732 1.379 . S
C6738 C6735 1.363 . S
C6738 N6736 1.356 . S
C6739 C6733 1.363 . S
C6739 C6734 1.379 . S
C6739 N6737 1.356 1_545 S
N6740 C6732 1.356 . S
N6740 H6746 0.984 . S
N6740 H6747 0.984 . S
N6741 C6734 1.356 . S
N6741 H6744 0.984 . S
N6741 H6745 0.985 . S
H6742 N6737 0.984 . S
H6743 N6737 0.985 . S
H6744 N6741 0.984 . S
H6745 N6741 0.985 . S
H6746 N6740 0.984 . S
H6747 N6740 0.984 . S
H6748 N6736 0.984 . S
H6749 N6736 0.985 . S
C6750 C6751 1.363 . S
C6750 C6756 1.379 . S
C6750 N6758 1.356 . S
C6751 C6750 1.363 . S
C6751 C6757 1.363 . S
C6752 C6753 1.363 . S
C6752 C6757 1.379 . S
C6752 N6759 1.356 . S
C6753 C6752 1.363 . S
C6753 C6756 1.363 . S
N6754 C6756 1.356 . S
N6754 H6766 0.984 . S
N6754 H6767 0.985 . S
N6755 C6757 1.356 . S
N6755 H6760 0.984 . S
N6755 H6761 0.985 . S
C6756 C6750 1.379 . S
C6756 C6753 1.363 . S
C6756 N6754 1.356 . S
C6757 C6751 1.363 . S
C6757 C6752 1.379 . S
C6757 N6755 1.356 . S
N6758 C6750 1.356 . S
N6758 H6764 0.984 . S
N6758 H6765 0.984 . S
N6759 C6752 1.356 . S
N6759 H6762 0.984 . S
N6759 H6763 0.985 . S
H6760 N6755 0.984 . S
H6761 N6755 0.985 . S
H6762 N6759 0.984 . S
H6763 N6759 0.985 . S
H6764 N6758 0.984 . S
H6765 N6758 0.984 . S
H6766 N6754 0.984 . S
H6767 N6754 0.985 . S
C6768 C6769 1.363 . S
C6768 C6774 1.379 . S
C6768 N6776 1.356 . S
C6769 C6768 1.363 . S
C6769 C6775 1.363 . S
C6770 C6771 1.363 . S
C6770 C6775 1.379 . S
C6770 N6777 1.356 . S
C6771 C6770 1.363 . S
C6771 C6774 1.363 . S
N6772 C6774 1.356 . S
N6772 H6784 0.984 . S
N6772 H6785 0.985 . S
N6773 C6775 1.356 . S
N6773 H6778 0.984 . S
N6773 H6779 0.985 . S
C6774 C6768 1.379 . S
C6774 C6771 1.363 . S
C6774 N6772 1.356 . S
C6775 C6769 1.363 . S
C6775 C6770 1.379 . S
C6775 N6773 1.356 . S
N6776 C6768 1.356 . S
N6776 H6782 0.984 . S
N6776 H6783 0.984 . S
N6777 C6770 1.356 . S
N6777 H6780 0.984 . S
N6777 H6781 0.985 . S
H6778 N6773 0.984 . S
H6779 N6773 0.985 . S
H6780 N6777 0.984 . S
H6781 N6777 0.985 . S
H6782 N6776 0.984 . S
H6783 N6776 0.984 . S
H6784 N6772 0.984 . S
H6785 N6772 0.985 . S
C6786 C6787 1.363 . S
C6786 C6792 1.379 . S
C6786 N6794 1.356 . S
C6787 C6786 1.363 . S
C6787 C6793 1.363 . S
C6788 C6789 1.363 . S
C6788 C6793 1.379 . S
C6788 N6795 1.356 . S
C6789 C6788 1.363 . S
C6789 C6792 1.363 . S
N6790 C6792 1.356 . S
N6790 H6802 0.984 . S
N6790 H6803 0.985 . S
N6791 C6793 1.356 . S
N6791 H6796 0.984 . S
N6791 H6797 0.985 . S
C6792 C6786 1.379 . S
C6792 C6789 1.363 . S
C6792 N6790 1.356 . S
C6793 C6787 1.363 . S
C6793 C6788 1.379 . S
C6793 N6791 1.356 . S
N6794 C6786 1.356 . S
N6794 H6800 0.984 . S
N6794 H6801 0.984 . S
N6795 C6788 1.356 . S
N6795 H6798 0.984 . S
N6795 H6799 0.985 . S
H6796 N6791 0.984 . S
H6797 N6791 0.985 . S
H6798 N6795 0.984 . S
H6799 N6795 0.985 . S
H6800 N6794 0.984 . S
H6801 N6794 0.984 . S
H6802 N6790 0.984 . S
H6803 N6790 0.985 . S
C6804 C6805 1.363 . S
C6804 C6810 1.379 . S
C6804 N6812 1.356 . S
C6805 C6804 1.363 . S
C6805 C6811 1.363 . S
C6806 C6807 1.363 . S
C6806 C6811 1.379 . S
C6806 N6813 1.356 . S
C6807 C6806 1.363 . S
C6807 C6810 1.363 . S
N6808 C6810 1.356 . S
N6808 H6820 0.984 . S
N6808 H6821 0.985 . S
N6809 C6811 1.356 . S
N6809 H6814 0.984 . S
N6809 H6815 0.985 . S
C6810 C6804 1.379 . S
C6810 C6807 1.363 . S
C6810 N6808 1.356 . S
C6811 C6805 1.363 . S
C6811 C6806 1.379 . S
C6811 N6809 1.356 . S
N6812 C6804 1.356 . S
N6812 H6818 0.984 . S
N6812 H6819 0.984 . S
N6813 C6806 1.356 . S
N6813 H6816 0.984 . S
N6813 H6817 0.985 . S
H6814 N6809 0.984 . S
H6815 N6809 0.985 . S
H6816 N6813 0.984 . S
H6817 N6813 0.985 . S
H6818 N6812 0.984 . S
H6819 N6812 0.984 . S
H6820 N6808 0.984 . S
H6821 N6808 0.985 . S
C6822 C6823 1.363 . S
C6822 C6828 1.379 . S
C6822 N6830 1.356 1_655 S
C6823 C6822 1.363 . S
C6823 C6829 1.363 . S
C6824 C6825 1.363 . S
C6824 C6829 1.379 . S
C6824 N6831 1.356 . S
C6825 C6824 1.363 . S
C6825 C6828 1.363 . S
N6826 C6828 1.356 . S
N6826 H6838 0.984 . S
N6826 H6839 0.985 . S
N6827 C6829 1.356 . S
N6827 H6832 0.984 . S
N6827 H6833 0.985 . S
C6828 C6822 1.379 . S
C6828 C6825 1.363 . S
C6828 N6826 1.356 . S
C6829 C6823 1.363 . S
C6829 C6824 1.379 . S
C6829 N6827 1.356 . S
N6830 C6822 1.356 1_455 S
N6830 H6836 0.984 . S
N6830 H6837 0.984 . S
N6831 C6824 1.356 . S
N6831 H6834 0.984 . S
N6831 H6835 0.985 . S
H6832 N6827 0.984 . S
H6833 N6827 0.985 . S
H6834 N6831 0.984 . S
H6835 N6831 0.985 . S
H6836 N6830 0.984 . S
H6837 N6830 0.984 . S
H6838 N6826 0.984 . S
H6839 N6826 0.985 . S
C6840 C6841 1.363 . S
C6840 C6846 1.379 . S
C6840 N6848 1.356 . S
C6841 C6840 1.363 . S
C6841 C6847 1.363 . S
C6842 C6843 1.363 . S
C6842 C6847 1.379 . S
C6842 N6849 1.356 . S
C6843 C6842 1.363 . S
C6843 C6846 1.363 . S
N6844 C6846 1.356 1_655 S
N6844 H6856 0.984 . S
N6844 H6857 0.985 . S
N6845 C6847 1.356 . S
N6845 H6850 0.984 . S
N6845 H6851 0.985 . S
C6846 C6840 1.379 . S
C6846 C6843 1.363 . S
C6846 N6844 1.356 1_455 S
C6847 C6841 1.363 . S
C6847 C6842 1.379 . S
C6847 N6845 1.356 . S
N6848 C6840 1.356 . S
N6848 H6854 0.984 . S
N6848 H6855 0.984 . S
N6849 C6842 1.356 . S
N6849 H6852 0.984 . S
N6849 H6853 0.985 . S
H6850 N6845 0.984 . S
H6851 N6845 0.985 . S
H6852 N6849 0.984 . S
H6853 N6849 0.985 . S
H6854 N6848 0.984 . S
H6855 N6848 0.984 . S
H6856 N6844 0.984 . S
H6857 N6844 0.985 . S
C6858 C6859 1.363 . S
C6858 C6864 1.379 . S
C6858 N6866 1.356 . S
C6859 C6858 1.363 . S
C6859 C6865 1.363 . S
C6860 C6861 1.363 . S
C6860 C6865 1.379 . S
C6860 N6867 1.356 . S
C6861 C6860 1.363 . S
C6861 C6864 1.363 . S
N6862 C6864 1.356 . S
N6862 H6874 0.984 . S
N6862 H6875 0.985 . S
N6863 C6865 1.356 . S
N6863 H6868 0.984 . S
N6863 H6869 0.985 . S
C6864 C6858 1.379 . S
C6864 C6861 1.363 . S
C6864 N6862 1.356 . S
C6865 C6859 1.363 . S
C6865 C6860 1.379 . S
C6865 N6863 1.356 . S
N6866 C6858 1.356 . S
N6866 H6872 0.984 . S
N6866 H6873 0.984 . S
N6867 C6860 1.356 . S
N6867 H6870 0.984 . S
N6867 H6871 0.985 . S
H6868 N6863 0.984 . S
H6869 N6863 0.985 . S
H6870 N6867 0.984 . S
H6871 N6867 0.985 . S
H6872 N6866 0.984 . S
H6873 N6866 0.984 . S
H6874 N6862 0.984 . S
H6875 N6862 0.985 . S
C6876 C6877 1.363 . S
C6876 C6882 1.379 . S
C6876 N6884 1.356 . S
C6877 C6876 1.363 . S
C6877 C6883 1.363 . S
C6878 C6879 1.363 . S
C6878 C6883 1.379 . S
C6878 N6885 1.356 . S
C6879 C6878 1.363 . S
C6879 C6882 1.363 . S
N6880 C6882 1.356 . S
N6880 H6892 0.984 . S
N6880 H6893 0.985 . S
N6881 C6883 1.356 . S
N6881 H6886 0.984 . S
N6881 H6887 0.985 . S
C6882 C6876 1.379 . S
C6882 C6879 1.363 . S
C6882 N6880 1.356 . S
C6883 C6877 1.363 . S
C6883 C6878 1.379 . S
C6883 N6881 1.356 . S
N6884 C6876 1.356 . S
N6884 H6890 0.984 . S
N6884 H6891 0.984 . S
N6885 C6878 1.356 . S
N6885 H6888 0.984 . S
N6885 H6889 0.985 . S
H6886 N6881 0.984 . S
H6887 N6881 0.985 . S
H6888 N6885 0.984 . S
H6889 N6885 0.985 . S
H6890 N6884 0.984 . S
H6891 N6884 0.984 . S
H6892 N6880 0.984 . S
H6893 N6880 0.985 . S
C6894 C6895 1.363 . S
C6894 C6900 1.379 . S
C6894 N6902 1.356 . S
C6895 C6894 1.363 . S
C6895 C6901 1.363 . S
C6896 C6897 1.363 . S
C6896 C6901 1.379 . S
C6896 N6903 1.356 1_455 S
C6897 C6896 1.363 . S
C6897 C6900 1.363 . S
N6898 C6900 1.356 . S
N6898 H6910 0.984 . S
N6898 H6911 0.985 . S
N6899 C6901 1.356 1_556 S
N6899 H6904 0.984 . S
N6899 H6905 0.985 . S
C6900 C6894 1.379 . S
C6900 C6897 1.363 . S
C6900 N6898 1.356 . S
C6901 C6895 1.363 . S
C6901 C6896 1.379 . S
C6901 N6899 1.356 1_554 S
N6902 C6894 1.356 . S
N6902 H6908 0.984 . S
N6902 H6909 0.984 . S
N6903 C6896 1.356 1_655 S
N6903 H6906 0.984 . S
N6903 H6907 0.985 . S
H6904 N6899 0.984 . S
H6905 N6899 0.985 . S
H6906 N6903 0.984 . S
H6907 N6903 0.985 . S
H6908 N6902 0.984 . S
H6909 N6902 0.984 . S
H6910 N6898 0.984 . S
H6911 N6898 0.985 . S
C6912 C6913 1.363 . S
C6912 C6918 1.379 . S
C6912 N6920 1.356 . S
C6913 C6912 1.363 . S
C6913 C6919 1.363 . S
C6914 C6915 1.363 . S
C6914 C6919 1.379 . S
C6914 N6921 1.356 . S
C6915 C6914 1.363 . S
C6915 C6918 1.363 . S
N6916 C6918 1.356 . S
N6916 H6928 0.984 . S
N6916 H6929 0.985 . S
N6917 C6919 1.356 . S
N6917 H6922 0.984 . S
N6917 H6923 0.985 . S
C6918 C6912 1.379 . S
C6918 C6915 1.363 . S
C6918 N6916 1.356 . S
C6919 C6913 1.363 . S
C6919 C6914 1.379 . S
C6919 N6917 1.356 . S
N6920 C6912 1.356 . S
N6920 H6926 0.984 . S
N6920 H6927 0.984 . S
N6921 C6914 1.356 . S
N6921 H6924 0.984 . S
N6921 H6925 0.985 . S
H6922 N6917 0.984 . S
H6923 N6917 0.985 . S
H6924 N6921 0.984 . S
H6925 N6921 0.985 . S
H6926 N6920 0.984 . S
H6927 N6920 0.984 . S
H6928 N6916 0.984 . S
H6929 N6916 0.985 . S
C6930 C6931 1.363 . S
C6930 C6936 1.379 . S
C6930 N6938 1.356 . S
C6931 C6930 1.363 . S
C6931 C6937 1.363 . S
C6932 C6933 1.363 . S
C6932 C6937 1.379 . S
C6932 N6939 1.356 . S
C6933 C6932 1.363 . S
C6933 C6936 1.363 . S
N6934 C6936 1.356 . S
N6934 H6946 0.984 . S
N6934 H6947 0.985 . S
N6935 C6937 1.356 . S
N6935 H6940 0.984 . S
N6935 H6941 0.985 . S
C6936 C6930 1.379 . S
C6936 C6933 1.363 . S
C6936 N6934 1.356 . S
C6937 C6931 1.363 . S
C6937 C6932 1.379 . S
C6937 N6935 1.356 . S
N6938 C6930 1.356 . S
N6938 H6944 0.984 . S
N6938 H6945 0.984 . S
N6939 C6932 1.356 . S
N6939 H6942 0.984 . S
N6939 H6943 0.985 . S
H6940 N6935 0.984 . S
H6941 N6935 0.985 . S
H6942 N6939 0.984 . S
H6943 N6939 0.985 . S
H6944 N6938 0.984 . S
H6945 N6938 0.984 . S
H6946 N6934 0.984 . S
H6947 N6934 0.985 . S
C6948 C6949 1.363 . S
C6948 C6954 1.379 . S
C6948 N6956 1.356 . S
C6949 C6948 1.363 . S
C6949 C6955 1.363 . S
C6950 C6951 1.363 . S
C6950 C6955 1.379 . S
C6950 N6957 1.356 . S
C6951 C6950 1.363 . S
C6951 C6954 1.363 . S
N6952 C6954 1.356 . S
N6952 H6964 0.984 . S
N6952 H6965 0.985 . S
N6953 C6955 1.356 . S
N6953 H6958 0.984 . S
N6953 H6959 0.985 . S
C6954 C6948 1.379 . S
C6954 C6951 1.363 . S
C6954 N6952 1.356 . S
C6955 C6949 1.363 . S
C6955 C6950 1.379 . S
C6955 N6953 1.356 . S
N6956 C6948 1.356 . S
N6956 H6962 0.984 . S
N6956 H6963 0.984 . S
N6957 C6950 1.356 . S
N6957 H6960 0.984 . S
N6957 H6961 0.985 . S
H6958 N6953 0.984 . S
H6959 N6953 0.985 . S
H6960 N6957 0.984 . S
H6961 N6957 0.985 . S
H6962 N6956 0.984 . S
H6963 N6956 0.984 . S
H6964 N6952 0.984 . S
H6965 N6952 0.985 . S
C6966 C6967 1.363 . S
C6966 C6972 1.379 . S
C6966 N6974 1.356 . S
C6967 C6966 1.363 . S
C6967 C6973 1.363 . S
C6968 C6969 1.363 . S
C6968 C6973 1.379 . S
C6968 N6975 1.356 . S
C6969 C6968 1.363 . S
C6969 C6972 1.363 . S
N6970 C6972 1.356 . S
N6970 H6982 0.984 . S
N6970 H6983 0.985 . S
N6971 C6973 1.356 1_556 S
N6971 H6976 0.984 . S
N6971 H6977 0.985 . S
C6972 C6966 1.379 . S
C6972 C6969 1.363 . S
C6972 N6970 1.356 . S
C6973 C6967 1.363 . S
C6973 C6968 1.379 . S
C6973 N6971 1.356 1_554 S
N6974 C6966 1.356 . S
N6974 H6980 0.984 . S
N6974 H6981 0.984 . S
N6975 C6968 1.356 . S
N6975 H6978 0.984 . S
N6975 H6979 0.985 . S
H6976 N6971 0.984 . S
H6977 N6971 0.985 . S
H6978 N6975 0.984 . S
H6979 N6975 0.985 . S
H6980 N6974 0.984 . S
H6981 N6974 0.984 . S
H6982 N6970 0.984 . S
H6983 N6970 0.985 . S
C6984 C6985 1.363 . S
C6984 C6990 1.379 . S
C6984 N6992 1.356 . S
C6985 C6984 1.363 . S
C6985 C6991 1.363 . S
C6986 C6987 1.363 . S
C6986 C6991 1.379 . S
C6986 N6993 1.326 1_655 S
C6987 C6986 1.363 . S
C6987 C6990 1.363 . S
N6988 C6990 1.356 . S
N6988 H7000 0.984 . S
N6988 H7001 0.985 . S
N6989 C6991 1.356 . S
N6989 H6994 0.984 . S
N6989 H6995 0.985 . S
C6990 C6984 1.379 . S
C6990 C6987 1.363 . S
C6990 N6988 1.356 . S
C6991 C6985 1.363 . S
C6991 C6986 1.379 . S
C6991 N6989 1.356 . S
N6992 C6984 1.356 . S
N6992 H6998 0.984 . S
N6992 H6999 0.984 . S
N6993 C6986 1.326 1_455 S
N6993 H6996 1.012 . S
N6993 H6997 0.988 . S
H6994 N6989 0.984 . S
H6995 N6989 0.985 . S
H6996 N6993 1.012 . S
H6997 N6993 0.988 . S
H6998 N6992 0.984 . S
H6999 N6992 0.984 . S
H7000 N6988 0.984 . S
H7001 N6988 0.985 . S
C7002 C7003 1.363 . S
C7002 C7008 1.379 . S
C7002 N7010 1.356 . S
C7003 C7002 1.363 . S
C7003 C7009 1.363 . S
C7004 C7005 1.363 . S
C7004 C7009 1.379 . S
C7004 N7011 1.356 . S
C7005 C7004 1.363 . S
C7005 C7008 1.363 . S
N7006 C7008 1.356 . S
N7006 H7018 0.984 . S
N7006 H7019 0.985 . S
N7007 C7009 1.356 . S
N7007 H7012 0.984 . S
N7007 H7013 0.985 . S
C7008 C7002 1.379 . S
C7008 C7005 1.363 . S
C7008 N7006 1.356 . S
C7009 C7003 1.363 . S
C7009 C7004 1.379 . S
C7009 N7007 1.356 . S
N7010 C7002 1.356 . S
N7010 H7016 0.984 . S
N7010 H7017 0.984 . S
N7011 C7004 1.356 . S
N7011 H7014 0.984 . S
N7011 H7015 0.985 . S
H7012 N7007 0.984 . S
H7013 N7007 0.985 . S
H7014 N7011 0.984 . S
H7015 N7011 0.985 . S
H7016 N7010 0.984 . S
H7017 N7010 0.984 . S
H7018 N7006 0.984 . S
H7019 N7006 0.985 . S
C7020 C7021 1.363 . S
C7020 C7026 1.379 . S
C7020 N7028 1.356 1_545 S
C7021 C7020 1.363 . S
C7021 C7027 1.363 . S
C7022 C7023 1.363 . S
C7022 C7027 1.379 . S
C7022 N7029 1.356 . S
C7023 C7022 1.363 . S
C7023 C7026 1.363 . S
N7024 C7026 1.356 . S
N7024 H7036 0.984 . S
N7024 H7037 0.985 . S
N7025 C7027 1.356 . S
N7025 H7030 0.984 . S
N7025 H7031 0.985 . S
C7026 C7020 1.379 . S
C7026 C7023 1.363 . S
C7026 N7024 1.356 . S
C7027 C7021 1.363 . S
C7027 C7022 1.379 . S
C7027 N7025 1.356 . S
N7028 C7020 1.356 1_565 S
N7028 H7034 0.984 . S
N7028 H7035 0.984 . S
N7029 C7022 1.356 . S
N7029 H7032 0.984 . S
N7029 H7033 0.985 . S
H7030 N7025 0.984 . S
H7031 N7025 0.985 . S
H7032 N7029 0.984 . S
H7033 N7029 0.985 . S
H7034 N7028 0.984 . S
H7035 N7028 0.984 . S
H7036 N7024 0.984 . S
H7037 N7024 0.985 . S
C7038 C7039 1.363 . S
C7038 C7044 1.379 . S
C7038 N7046 1.356 . S
C7039 C7038 1.363 . S
C7039 C7045 1.363 . S
C7040 C7041 1.363 . S
C7040 C7045 1.379 . S
C7040 N7047 1.356 . S
C7041 C7040 1.363 . S
C7041 C7044 1.363 . S
N7042 C7044 1.356 . S
N7042 H7054 0.984 . S
N7042 H7055 0.985 . S
N7043 C7045 1.356 . S
N7043 H7048 0.984 . S
N7043 H7049 0.985 . S
C7044 C7038 1.379 . S
C7044 C7041 1.363 . S
C7044 N7042 1.356 . S
C7045 C7039 1.363 . S
C7045 C7040 1.379 . S
C7045 N7043 1.356 . S
N7046 C7038 1.356 . S
N7046 H7052 0.984 . S
N7046 H7053 0.984 . S
N7047 C7040 1.356 . S
N7047 H7050 0.984 . S
N7047 H7051 0.985 . S
H7048 N7043 0.984 . S
H7049 N7043 0.985 . S
H7050 N7047 0.984 . S
H7051 N7047 0.985 . S
H7052 N7046 0.984 . S
H7053 N7046 0.984 . S
H7054 N7042 0.984 . S
H7055 N7042 0.985 . S
C7056 C7057 1.363 . S
C7056 C7062 1.379 . S
C7056 N7064 1.356 . S
C7057 C7056 1.363 . S
C7057 C7063 1.363 . S
C7058 C7059 1.363 . S
C7058 C7063 1.379 . S
C7058 N7065 1.356 . S
C7059 C7058 1.363 . S
C7059 C7062 1.363 . S
N7060 C7062 1.356 1_556 S
N7060 H7072 0.984 . S
N7060 H7073 0.985 . S
N7061 C7063 1.356 . S
N7061 H7066 0.984 . S
N7061 H7067 0.985 . S
C7062 C7056 1.379 . S
C7062 C7059 1.363 . S
C7062 N7060 1.356 1_554 S
C7063 C7057 1.363 . S
C7063 C7058 1.379 . S
C7063 N7061 1.356 . S
N7064 C7056 1.356 . S
N7064 H7070 0.984 1_545 S
N7064 H7071 0.984 1_545 S
N7065 C7058 1.356 . S
N7065 H7068 0.984 . S
N7065 H7069 0.985 . S
H7066 N7061 0.984 . S
H7067 N7061 0.985 . S
H7068 N7065 0.984 . S
H7069 N7065 0.985 . S
H7070 N7064 0.984 1_565 S
H7071 N7064 0.984 1_565 S
H7072 N7060 0.984 . S
H7073 N7060 0.985 . S
C7074 C7075 1.363 . S
C7074 C7080 1.379 . S
C7074 N7082 1.356 . S
C7075 C7074 1.363 . S
C7075 C7081 1.363 . S
C7076 C7077 1.363 . S
C7076 C7081 1.379 . S
C7076 N7083 1.356 . S
C7077 C7076 1.363 . S
C7077 C7080 1.363 . S
N7078 C7080 1.356 . S
N7078 H7090 0.984 . S
N7078 H7091 0.985 . S
N7079 C7081 1.356 . S
N7079 H7084 0.984 . S
N7079 H7085 0.985 . S
C7080 C7074 1.379 . S
C7080 C7077 1.363 . S
C7080 N7078 1.356 . S
C7081 C7075 1.363 . S
C7081 C7076 1.379 . S
C7081 N7079 1.356 . S
N7082 C7074 1.356 . S
N7082 H7088 0.984 . S
N7082 H7089 0.984 . S
N7083 C7076 1.356 . S
N7083 H7086 0.984 . S
N7083 H7087 0.985 . S
H7084 N7079 0.984 . S
H7085 N7079 0.985 . S
H7086 N7083 0.984 . S
H7087 N7083 0.985 . S
H7088 N7082 0.984 . S
H7089 N7082 0.984 . S
H7090 N7078 0.984 . S
H7091 N7078 0.985 . S
C7092 C7093 1.363 . S
C7092 C7098 1.379 . S
C7092 N7100 1.356 . S
C7093 C7092 1.363 . S
C7093 C7099 1.363 . S
C7094 C7095 1.363 . S
C7094 C7099 1.379 . S
C7094 N7101 1.356 . S
C7095 C7094 1.363 . S
C7095 C7098 1.363 . S
N7096 C7098 1.356 . S
N7096 H7108 0.984 . S
N7096 H7109 0.985 . S
N7097 C7099 1.356 . S
N7097 H7102 0.984 . S
N7097 H7103 0.985 . S
C7098 C7092 1.379 . S
C7098 C7095 1.363 . S
C7098 N7096 1.356 . S
C7099 C7093 1.363 . S
C7099 C7094 1.379 . S
C7099 N7097 1.356 . S
N7100 C7092 1.356 . S
N7100 H7106 0.984 . S
N7100 H7107 0.984 . S
N7101 C7094 1.356 . S
N7101 H7104 0.984 . S
N7101 H7105 0.985 . S
H7102 N7097 0.984 . S
H7103 N7097 0.985 . S
H7104 N7101 0.984 . S
H7105 N7101 0.985 . S
H7106 N7100 0.984 . S
H7107 N7100 0.984 . S
H7108 N7096 0.984 . S
H7109 N7096 0.985 . S
C7110 C7111 1.363 . S
C7110 C7116 1.379 . S
C7110 N7118 1.356 . S
C7111 C7110 1.363 . S
C7111 C7117 1.363 . S
C7112 C7113 1.363 . S
C7112 C7117 1.379 . S
C7112 N7119 1.356 . S
C7113 C7112 1.363 . S
C7113 C7116 1.363 . S
N7114 C7116 1.356 . S
N7114 H7126 0.984 . S
N7114 H7127 0.985 . S
N7115 C7117 1.356 . S
N7115 H7120 0.984 . S
N7115 H7121 0.985 . S
C7116 C7110 1.379 . S
C7116 C7113 1.363 . S
C7116 N7114 1.356 . S
C7117 C7111 1.363 . S
C7117 C7112 1.379 . S
C7117 N7115 1.356 . S
N7118 C7110 1.356 . S
N7118 H7124 0.984 . S
N7118 H7125 0.984 . S
N7119 C7112 1.356 . S
N7119 H7122 0.984 . S
N7119 H7123 0.985 . S
H7120 N7115 0.984 . S
H7121 N7115 0.985 . S
H7122 N7119 0.984 . S
H7123 N7119 0.985 . S
H7124 N7118 0.984 . S
H7125 N7118 0.984 . S
H7126 N7114 0.984 . S
H7127 N7114 0.985 . S
C7128 C7129 1.363 . S
C7128 C7134 1.379 . S
C7128 N7136 1.356 . S
C7129 C7128 1.363 . S
C7129 C7135 1.363 . S
C7130 C7131 1.363 . S
C7130 C7135 1.379 . S
C7130 N7137 1.356 . S
C7131 C7130 1.363 . S
C7131 C7134 1.363 . S
N7132 C7134 1.356 . S
N7132 H7144 0.984 . S
N7132 H7145 0.985 . S
N7133 C7135 1.356 . S
N7133 H7138 0.984 . S
N7133 H7139 0.985 . S
C7134 C7128 1.379 . S
C7134 C7131 1.363 . S
C7134 N7132 1.356 . S
C7135 C7129 1.363 . S
C7135 C7130 1.379 . S
C7135 N7133 1.356 . S
N7136 C7128 1.356 . S
N7136 H7142 0.984 . S
N7136 H7143 0.984 . S
N7137 C7130 1.356 . S
N7137 H7140 0.984 . S
N7137 H7141 0.985 . S
H7138 N7133 0.984 . S
H7139 N7133 0.985 . S
H7140 N7137 0.984 . S
H7141 N7137 0.985 . S
H7142 N7136 0.984 . S
H7143 N7136 0.984 . S
H7144 N7132 0.984 . S
H7145 N7132 0.985 . S
C7146 C7147 1.363 . S
C7146 C7152 1.379 . S
C7146 N7154 1.356 . S
C7147 C7146 1.363 . S
C7147 C7153 1.363 . S
C7148 C7149 1.363 . S
C7148 C7153 1.379 . S
C7148 N7155 1.356 . S
C7149 C7148 1.363 . S
C7149 C7152 1.363 . S
N7150 C7152 1.356 . S
N7150 H7162 0.984 . S
N7150 H7163 0.985 . S
N7151 C7153 1.356 . S
N7151 H7156 0.984 . S
N7151 H7157 0.985 . S
C7152 C7146 1.379 . S
C7152 C7149 1.363 . S
C7152 N7150 1.356 . S
C7153 C7147 1.363 . S
C7153 C7148 1.379 . S
C7153 N7151 1.356 . S
N7154 C7146 1.356 . S
N7154 H7160 0.984 . S
N7154 H7161 0.984 . S
N7155 C7148 1.356 . S
N7155 H7158 0.984 . S
N7155 H7159 0.985 . S
H7156 N7151 0.984 . S
H7157 N7151 0.985 . S
H7158 N7155 0.984 . S
H7159 N7155 0.985 . S
H7160 N7154 0.984 . S
H7161 N7154 0.984 . S
H7162 N7150 0.984 . S
H7163 N7150 0.985 . S
C7164 C7165 1.363 . S
C7164 C7170 1.379 . S
C7164 N7172 1.356 . S
C7165 C7164 1.363 . S
C7165 C7171 1.363 . S
C7166 C7167 1.363 . S
C7166 C7171 1.379 . S
C7166 N7173 1.356 . S
C7167 C7166 1.363 . S
C7167 C7170 1.363 . S
N7168 C7170 1.356 . S
N7168 H7180 0.984 . S
N7168 H7181 0.985 . S
N7169 C7171 1.356 . S
N7169 H7174 0.984 . S
N7169 H7175 0.985 . S
C7170 C7164 1.379 . S
C7170 C7167 1.363 . S
C7170 N7168 1.356 . S
C7171 C7165 1.363 . S
C7171 C7166 1.379 . S
C7171 N7169 1.356 . S
N7172 C7164 1.356 . S
N7172 H7178 0.984 . S
N7172 H7179 0.984 . S
N7173 C7166 1.356 . S
N7173 H7176 0.984 . S
N7173 H7177 0.985 . S
H7174 N7169 0.984 . S
H7175 N7169 0.985 . S
H7176 N7173 0.984 . S
H7177 N7173 0.985 . S
H7178 N7172 0.984 . S
H7179 N7172 0.984 . S
H7180 N7168 0.984 . S
H7181 N7168 0.985 . S
C7182 C7183 1.363 . S
C7182 C7188 1.379 . S
C7182 N7190 1.356 . S
C7183 C7182 1.363 . S
C7183 C7189 1.363 . S
C7184 C7185 1.363 . S
C7184 C7189 1.379 . S
C7184 N7191 1.356 . S
C7185 C7184 1.363 . S
C7185 C7188 1.363 . S
N7186 C7188 1.356 . S
N7186 H7198 0.984 . S
N7186 H7199 0.985 . S
N7187 C7189 1.356 . S
N7187 H7192 0.984 . S
N7187 H7193 0.985 . S
C7188 C7182 1.379 . S
C7188 C7185 1.363 . S
C7188 N7186 1.356 . S
C7189 C7183 1.363 . S
C7189 C7184 1.379 . S
C7189 N7187 1.356 . S
N7190 C7182 1.356 . S
N7190 H7196 0.984 . S
N7190 H7197 0.984 . S
N7191 C7184 1.356 . S
N7191 H7194 0.984 . S
N7191 H7195 0.985 . S
H7192 N7187 0.984 . S
H7193 N7187 0.985 . S
H7194 N7191 0.984 . S
H7195 N7191 0.985 . S
H7196 N7190 0.984 . S
H7197 N7190 0.984 . S
H7198 N7186 0.984 . S
H7199 N7186 0.985 . S
C7200 C7201 1.363 . S
C7200 C7206 1.379 . S
C7200 N7208 1.356 . S
C7201 C7200 1.363 . S
C7201 C7207 1.363 . S
C7202 C7203 1.363 . S
C7202 C7207 1.379 . S
C7202 N7209 1.356 . S
C7203 C7202 1.363 . S
C7203 C7206 1.363 . S
N7204 C7206 1.356 . S
N7204 H7216 0.984 . S
N7204 H7217 0.985 . S
N7205 C7207 1.356 . S
N7205 H7210 0.984 . S
N7205 H7211 0.985 . S
C7206 C7200 1.379 . S
C7206 C7203 1.363 . S
C7206 N7204 1.356 . S
C7207 C7201 1.363 . S
C7207 C7202 1.379 . S
C7207 N7205 1.356 . S
N7208 C7200 1.356 . S
N7208 H7214 0.984 . S
N7208 H7215 0.984 . S
N7209 C7202 1.356 . S
N7209 H7212 0.984 . S
N7209 H7213 0.985 . S
H7210 N7205 0.984 . S
H7211 N7205 0.985 . S
H7212 N7209 0.984 . S
H7213 N7209 0.985 . S
H7214 N7208 0.984 . S
H7215 N7208 0.984 . S
H7216 N7204 0.984 . S
H7217 N7204 0.985 . S
C7218 C7219 1.363 . S
C7218 C7224 1.379 . S
C7218 N7226 1.356 1_545 S
C7219 C7218 1.363 . S
C7219 C7225 1.363 . S
C7220 C7221 1.363 . S
C7220 C7225 1.379 . S
C7220 N7227 1.356 . S
C7221 C7220 1.363 . S
C7221 C7224 1.363 . S
N7222 C7224 1.356 . S
N7222 H7234 0.984 . S
N7222 H7235 0.985 . S
N7223 C7225 1.356 . S
N7223 H7228 0.984 . S
N7223 H7229 0.985 . S
C7224 C7218 1.379 . S
C7224 C7221 1.363 . S
C7224 N7222 1.356 . S
C7225 C7219 1.363 . S
C7225 C7220 1.379 . S
C7225 N7223 1.356 . S
N7226 C7218 1.356 1_565 S
N7226 H7232 0.984 . S
N7226 H7233 0.984 . S
N7227 C7220 1.356 . S
N7227 H7230 0.984 . S
N7227 H7231 0.985 . S
H7228 N7223 0.984 . S
H7229 N7223 0.985 . S
H7230 N7227 0.984 . S
H7231 N7227 0.985 . S
H7232 N7226 0.984 . S
H7233 N7226 0.984 . S
H7234 N7222 0.984 . S
H7235 N7222 0.985 . S
C7236 C7237 1.363 . S
C7236 C7242 1.379 . S
C7236 N7244 1.356 . S
C7237 C7236 1.363 . S
C7237 C7243 1.363 . S
C7238 C7239 1.363 . S
C7238 C7243 1.379 . S
C7238 N7245 1.356 . S
C7239 C7238 1.363 . S
C7239 C7242 1.363 . S
N7240 C7242 1.356 . S
N7240 H7252 0.984 . S
N7240 H7253 0.985 . S
N7241 C7243 1.356 . S
N7241 H7246 0.984 . S
N7241 H7247 0.985 . S
C7242 C7236 1.379 . S
C7242 C7239 1.363 . S
C7242 N7240 1.356 . S
C7243 C7237 1.363 . S
C7243 C7238 1.379 . S
C7243 N7241 1.356 . S
N7244 C7236 1.356 . S
N7244 H7250 0.984 . S
N7244 H7251 0.984 . S
N7245 C7238 1.356 . S
N7245 H7248 0.984 . S
N7245 H7249 0.985 . S
H7246 N7241 0.984 . S
H7247 N7241 0.985 . S
H7248 N7245 0.984 . S
H7249 N7245 0.985 . S
H7250 N7244 0.984 . S
H7251 N7244 0.984 . S
H7252 N7240 0.984 . S
H7253 N7240 0.985 . S
C7254 C7255 1.363 . S
C7254 C7260 1.379 . S
C7254 N7262 1.356 . S
C7255 C7254 1.363 . S
C7255 C7261 1.363 . S
C7256 C7257 1.363 . S
C7256 C7261 1.379 . S
C7256 N7263 1.356 . S
C7257 C7256 1.363 . S
C7257 C7260 1.363 . S
N7258 C7260 1.356 . S
N7258 H7270 0.984 . S
N7258 H7271 0.985 . S
N7259 C7261 1.356 . S
N7259 H7264 0.984 . S
N7259 H7265 0.985 . S
C7260 C7254 1.379 . S
C7260 C7257 1.363 . S
C7260 N7258 1.356 . S
C7261 C7255 1.363 . S
C7261 C7256 1.379 . S
C7261 N7259 1.356 . S
N7262 C7254 1.356 . S
N7262 H7268 0.984 . S
N7262 H7269 0.984 . S
N7263 C7256 1.356 . S
N7263 H7266 0.984 . S
N7263 H7267 0.985 . S
H7264 N7259 0.984 . S
H7265 N7259 0.985 . S
H7266 N7263 0.984 . S
H7267 N7263 0.985 . S
H7268 N7262 0.984 . S
H7269 N7262 0.984 . S
H7270 N7258 0.984 . S
H7271 N7258 0.985 . S
C7272 C7273 1.363 . S
C7272 C7278 1.379 . S
C7272 N7280 1.356 . S
C7273 C7272 1.363 . S
C7273 C7279 1.363 . S
C7274 C7275 1.363 . S
C7274 C7279 1.379 . S
C7274 N7281 1.356 . S
C7275 C7274 1.363 . S
C7275 C7278 1.363 . S
N7276 C7278 1.356 1_545 S
N7276 H7288 0.984 . S
N7276 H7289 0.985 . S
N7277 C7279 1.356 . S
N7277 H7282 0.984 . S
N7277 H7283 0.985 . S
C7278 C7272 1.379 . S
C7278 C7275 1.363 . S
C7278 N7276 1.356 1_565 S
C7279 C7273 1.363 . S
C7279 C7274 1.379 . S
C7279 N7277 1.356 . S
N7280 C7272 1.356 . S
N7280 H7286 0.984 1_556 S
N7280 H7287 0.979 1_556 S
N7281 C7274 1.356 . S
N7281 H7284 0.984 . S
N7281 H7285 0.985 . S
H7282 N7277 0.984 . S
H7283 N7277 0.985 . S
H7284 N7281 0.984 . S
H7285 N7281 0.985 . S
H7286 N7280 0.984 1_554 S
H7287 N7280 0.979 1_554 S
H7288 N7276 0.984 . S
H7289 N7276 0.985 . S
C7290 C7291 1.363 . S
C7290 C7296 1.379 . S
C7290 N7298 1.356 . S
C7291 C7290 1.363 . S
C7291 C7297 1.363 . S
C7292 C7293 1.363 . S
C7292 C7297 1.379 . S
C7292 N7299 1.356 . S
C7293 C7292 1.363 . S
C7293 C7296 1.363 . S
N7294 C7296 1.356 . S
N7294 H7306 0.984 . S
N7294 H7307 0.985 . S
N7295 C7297 1.356 . S
N7295 H7300 0.984 . S
N7295 H7301 0.985 . S
C7296 C7290 1.379 . S
C7296 C7293 1.363 . S
C7296 N7294 1.356 . S
C7297 C7291 1.363 . S
C7297 C7292 1.379 . S
C7297 N7295 1.356 . S
N7298 C7290 1.356 . S
N7298 H7304 0.984 . S
N7298 H7305 0.984 . S
N7299 C7292 1.356 . S
N7299 H7302 0.984 . S
N7299 H7303 0.985 . S
H7300 N7295 0.984 . S
H7301 N7295 0.985 . S
H7302 N7299 0.984 . S
H7303 N7299 0.985 . S
H7304 N7298 0.984 . S
H7305 N7298 0.984 . S
H7306 N7294 0.984 . S
H7307 N7294 0.985 . S
C7308 C7309 1.363 . S
C7308 C7314 1.379 . S
C7308 N7316 1.356 1_556 S
C7309 C7308 1.363 . S
C7309 C7315 1.363 . S
C7310 C7311 1.363 . S
C7310 C7315 1.379 . S
C7310 N7317 1.356 . S
C7311 C7310 1.363 . S
C7311 C7314 1.363 . S
N7312 C7314 1.356 . S
N7312 H7324 0.984 . S
N7312 H7325 0.985 . S
N7313 C7315 1.356 . S
N7313 H7318 0.984 . S
N7313 H7319 0.985 . S
C7314 C7308 1.379 . S
C7314 C7311 1.363 . S
C7314 N7312 1.356 . S
C7315 C7309 1.363 . S
C7315 C7310 1.379 . S
C7315 N7313 1.356 . S
N7316 C7308 1.356 1_554 S
N7316 H7322 0.984 . S
N7316 H7323 0.984 . S
N7317 C7310 1.356 . S
N7317 H7320 0.984 . S
N7317 H7321 0.985 . S
H7318 N7313 0.984 . S
H7319 N7313 0.985 . S
H7320 N7317 0.984 . S
H7321 N7317 0.985 . S
H7322 N7316 0.984 . S
H7323 N7316 0.984 . S
H7324 N7312 0.984 . S
H7325 N7312 0.985 . S
C7326 C7327 1.363 . S
C7326 C7332 1.379 . S
C7326 N7334 1.356 . S
C7327 C7326 1.363 . S
C7327 C7333 1.363 . S
C7328 C7329 1.363 . S
C7328 C7333 1.379 . S
C7328 N7335 1.356 . S
C7329 C7328 1.363 . S
C7329 C7332 1.363 . S
N7330 C7332 1.356 . S
N7330 H7342 0.984 . S
N7330 H7343 0.985 . S
N7331 C7333 1.356 . S
N7331 H7336 0.984 . S
N7331 H7337 0.985 . S
C7332 C7326 1.379 . S
C7332 C7329 1.363 . S
C7332 N7330 1.356 . S
C7333 C7327 1.363 . S
C7333 C7328 1.379 . S
C7333 N7331 1.356 . S
N7334 C7326 1.356 . S
N7334 H7340 0.984 . S
N7334 H7341 0.984 . S
N7335 C7328 1.356 . S
N7335 H7338 0.984 . S
N7335 H7339 0.985 . S
H7336 N7331 0.984 . S
H7337 N7331 0.985 . S
H7338 N7335 0.984 . S
H7339 N7335 0.985 . S
H7340 N7334 0.984 . S
H7341 N7334 0.984 . S
H7342 N7330 0.984 . S
H7343 N7330 0.985 . S
C7344 C7345 1.363 . S
C7344 C7350 1.379 . S
C7344 N7352 1.356 . S
C7345 C7344 1.363 . S
C7345 C7351 1.363 . S
C7346 C7347 1.363 . S
C7346 C7351 1.379 . S
C7346 N7353 1.356 . S
C7347 C7346 1.363 . S
C7347 C7350 1.363 . S
N7348 C7350 1.356 . S
N7348 H7360 0.984 . S
N7348 H7361 0.985 . S
N7349 C7351 1.356 . S
N7349 H7354 0.984 . S
N7349 H7355 0.985 . S
C7350 C7344 1.379 . S
C7350 C7347 1.363 . S
C7350 N7348 1.356 . S
C7351 C7345 1.363 . S
C7351 C7346 1.379 . S
C7351 N7349 1.356 . S
N7352 C7344 1.356 . S
N7352 H7358 0.984 . S
N7352 H7359 0.984 . S
N7353 C7346 1.356 . S
N7353 H7356 0.984 . S
N7353 H7357 0.985 . S
H7354 N7349 0.984 . S
H7355 N7349 0.985 . S
H7356 N7353 0.984 . S
H7357 N7353 0.985 . S
H7358 N7352 0.984 . S
H7359 N7352 0.984 . S
H7360 N7348 0.984 . S
H7361 N7348 0.985 . S
C7362 C7363 1.363 . S
C7362 C7368 1.379 . S
C7362 N7370 1.356 . S
C7363 C7362 1.363 . S
C7363 C7369 1.363 . S
C7364 C7365 1.363 . S
C7364 C7369 1.379 . S
C7364 N7371 1.356 . S
C7365 C7364 1.363 . S
C7365 C7368 1.363 . S
N7366 C7368 1.356 . S
N7366 H7378 0.984 . S
N7366 H7379 0.985 . S
N7367 C7369 1.356 . S
N7367 H7372 0.984 . S
N7367 H7373 0.985 . S
C7368 C7362 1.379 . S
C7368 C7365 1.363 . S
C7368 N7366 1.356 . S
C7369 C7363 1.363 . S
C7369 C7364 1.379 . S
C7369 N7367 1.356 . S
N7370 C7362 1.356 . S
N7370 H7376 0.984 . S
N7370 H7377 0.984 . S
N7371 C7364 1.356 . S
N7371 H7374 0.984 . S
N7371 H7375 0.985 . S
H7372 N7367 0.984 . S
H7373 N7367 0.985 . S
H7374 N7371 0.984 . S
H7375 N7371 0.985 . S
H7376 N7370 0.984 . S
H7377 N7370 0.984 . S
H7378 N7366 0.984 . S
H7379 N7366 0.985 . S
C7380 C7381 1.363 . S
C7380 C7386 1.379 . S
C7380 N7388 1.356 . S
C7381 C7380 1.363 . S
C7381 C7387 1.363 . S
C7382 C7383 1.363 . S
C7382 C7387 1.379 . S
C7382 N7389 1.356 . S
C7383 C7382 1.363 . S
C7383 C7386 1.363 . S
N7384 C7386 1.356 . S
N7384 H7396 0.984 . S
N7384 H7397 0.985 . S
N7385 C7387 1.356 . S
N7385 H7390 0.984 . S
N7385 H7391 0.985 . S
C7386 C7380 1.379 . S
C7386 C7383 1.363 . S
C7386 N7384 1.356 . S
C7387 C7381 1.363 . S
C7387 C7382 1.379 . S
C7387 N7385 1.356 . S
N7388 C7380 1.356 . S
N7388 H7394 0.984 . S
N7388 H7395 0.984 . S
N7389 C7382 1.356 . S
N7389 H7392 0.984 . S
N7389 H7393 0.985 . S
H7390 N7385 0.984 . S
H7391 N7385 0.985 . S
H7392 N7389 0.984 . S
H7393 N7389 0.985 . S
H7394 N7388 0.984 . S
H7395 N7388 0.984 . S
H7396 N7384 0.984 . S
H7397 N7384 0.985 . S
C7398 C7399 1.363 . S
C7398 C7404 1.379 . S
C7398 N7406 1.356 . S
C7399 C7398 1.363 . S
C7399 C7405 1.363 . S
C7400 C7401 1.363 . S
C7400 C7405 1.379 . S
C7400 N7407 1.356 . S
C7401 C7400 1.363 . S
C7401 C7404 1.363 . S
N7402 C7404 1.356 . S
N7402 H7414 0.984 . S
N7402 H7415 0.985 . S
N7403 C7405 1.356 . S
N7403 H7408 0.984 . S
N7403 H7409 0.985 . S
C7404 C7398 1.379 . S
C7404 C7401 1.363 . S
C7404 N7402 1.356 . S
C7405 C7399 1.363 . S
C7405 C7400 1.379 . S
C7405 N7403 1.356 . S
N7406 C7398 1.356 . S
N7406 H7412 0.984 . S
N7406 H7413 0.984 . S
N7407 C7400 1.356 . S
N7407 H7410 0.984 . S
N7407 H7411 0.985 . S
H7408 N7403 0.984 . S
H7409 N7403 0.985 . S
H7410 N7407 0.984 . S
H7411 N7407 0.985 . S
H7412 N7406 0.984 . S
H7413 N7406 0.984 . S
H7414 N7402 0.984 . S
H7415 N7402 0.985 . S
C7416 C7417 1.363 . S
C7416 C7422 1.379 . S
C7416 N7424 1.356 . S
C7417 C7416 1.363 . S
C7417 C7423 1.363 . S
C7418 C7419 1.363 . S
C7418 C7423 1.379 . S
C7418 N7425 1.356 . S
C7419 C7418 1.363 . S
C7419 C7422 1.363 . S
N7420 C7422 1.356 . S
N7420 H7432 0.984 . S
N7420 H7433 0.985 . S
N7421 C7423 1.356 . S
N7421 H7426 0.984 . S
N7421 H7427 0.985 . S
C7422 C7416 1.379 . S
C7422 C7419 1.363 . S
C7422 N7420 1.356 . S
C7423 C7417 1.363 . S
C7423 C7418 1.379 . S
C7423 N7421 1.356 . S
N7424 C7416 1.356 . S
N7424 H7430 0.984 . S
N7424 H7431 0.984 . S
N7425 C7418 1.356 . S
N7425 H7428 0.984 . S
N7425 H7429 0.985 . S
H7426 N7421 0.984 . S
H7427 N7421 0.985 . S
H7428 N7425 0.984 . S
H7429 N7425 0.985 . S
H7430 N7424 0.984 . S
H7431 N7424 0.984 . S
H7432 N7420 0.984 . S
H7433 N7420 0.985 . S
C7434 C7435 1.363 . S
C7434 C7440 1.379 . S
C7434 N7442 1.356 . S
C7435 C7434 1.363 . S
C7435 C7441 1.363 . S
C7436 C7437 1.363 . S
C7436 C7441 1.379 . S
C7436 N7443 1.356 . S
C7437 C7436 1.363 . S
C7437 C7440 1.363 . S
N7438 C7440 1.356 . S
N7438 H7450 0.984 . S
N7438 H7451 0.985 . S
N7439 C7441 1.356 . S
N7439 H7444 0.984 . S
N7439 H7445 0.985 . S
C7440 C7434 1.379 . S
C7440 C7437 1.363 . S
C7440 N7438 1.356 . S
C7441 C7435 1.363 . S
C7441 C7436 1.379 . S
C7441 N7439 1.356 . S
N7442 C7434 1.356 . S
N7442 H7448 0.984 . S
N7442 H7449 0.984 . S
N7443 C7436 1.356 . S
N7443 H7446 0.984 . S
N7443 H7447 0.985 . S
H7444 N7439 0.984 . S
H7445 N7439 0.985 . S
H7446 N7443 0.984 . S
H7447 N7443 0.985 . S
H7448 N7442 0.984 . S
H7449 N7442 0.984 . S
H7450 N7438 0.984 . S
H7451 N7438 0.985 . S
C7452 C7453 1.363 . S
C7452 C7458 1.379 . S
C7452 N7460 1.356 . S
C7453 C7452 1.363 . S
C7453 C7459 1.363 . S
C7454 C7455 1.363 . S
C7454 C7459 1.379 . S
C7454 N7461 1.356 . S
C7455 C7454 1.363 . S
C7455 C7458 1.363 . S
N7456 C7458 1.356 . S
N7456 H7468 0.984 . S
N7456 H7469 0.985 . S
N7457 C7459 1.356 . S
N7457 H7462 0.984 . S
N7457 H7463 0.985 . S
C7458 C7452 1.379 . S
C7458 C7455 1.363 . S
C7458 N7456 1.356 . S
C7459 C7453 1.363 . S
C7459 C7454 1.379 . S
C7459 N7457 1.356 . S
N7460 C7452 1.356 . S
N7460 H7466 0.984 . S
N7460 H7467 0.984 . S
N7461 C7454 1.356 . S
N7461 H7464 0.984 . S
N7461 H7465 0.985 . S
H7462 N7457 0.984 . S
H7463 N7457 0.985 . S
H7464 N7461 0.984 . S
H7465 N7461 0.985 . S
H7466 N7460 0.984 . S
H7467 N7460 0.984 . S
H7468 N7456 0.984 . S
H7469 N7456 0.985 . S
C7470 C7471 1.363 . S
C7470 C7476 1.379 . S
C7470 N7478 1.356 . S
C7471 C7470 1.363 . S
C7471 C7477 1.363 . S
C7472 C7473 1.363 . S
C7472 C7477 1.379 . S
C7472 N7479 1.356 . S
C7473 C7472 1.363 . S
C7473 C7476 1.363 . S
N7474 C7476 1.356 . S
N7474 H7486 0.984 . S
N7474 H7487 0.985 . S
N7475 C7477 1.356 . S
N7475 H7480 0.984 . S
N7475 H7481 0.985 . S
C7476 C7470 1.379 . S
C7476 C7473 1.363 . S
C7476 N7474 1.356 . S
C7477 C7471 1.363 . S
C7477 C7472 1.379 . S
C7477 N7475 1.356 . S
N7478 C7470 1.356 . S
N7478 H7484 0.984 . S
N7478 H7485 0.984 . S
N7479 C7472 1.356 . S
N7479 H7482 0.984 . S
N7479 H7483 0.985 . S
H7480 N7475 0.984 . S
H7481 N7475 0.985 . S
H7482 N7479 0.984 . S
H7483 N7479 0.985 . S
H7484 N7478 0.984 . S
H7485 N7478 0.984 . S
H7486 N7474 0.984 . S
H7487 N7474 0.985 . S
C3169 N2719 1.112 . S
C3171 N13 1.112 . S
C3187 N46 1.112 . S
C3189 N1036 1.112 . S
C3205 N79 1.112 . S
C3207 N1762 1.112 . S
C3223 N2521 1.112 . S
C3225 N112 1.112 . S
C3241 N772 1.112 . S
C3243 N145 1.112 . S
C3259 N2785 1.112 . S
C3261 N178 1.112 . S
C3277 N739 1.112 . S
C3279 N211 1.112 . S
C3295 N244 1.112 . S
C3297 N1696 1.112 . S
C3313 N277 1.112 . S
C3315 N3049 1.112 . S
C3331 N1300 1.112 . S
C3333 N310 1.112 . S
C3349 N2884 1.112 . S
C3351 N343 1.112 . S
C3367 N3016 1.112 . S
C3369 N376 1.112 . S
C3385 N2059 1.112 . S
C3387 N409 1.112 . S
C3403 N2983 1.112 . S
C3405 N442 1.112 . S
C3421 N2818 1.112 . S
C3423 N475 1.112 . S
C3439 N2851 1.112 . S
C3441 N508 1.112 . S
C3457 N541 1.112 . S
C3459 N1498 1.112 . S
C3475 N574 1.112 . S
C3477 N2158 1.112 . S
C3493 N1366 1.112 . S
C3495 N607 1.112 . S
C3511 N640 1.112 . S
C3513 N970 1.112 . S
C3529 N673 1.112 . S
C3531 N2917 1.112 . S
C3547 N706 1.112 . S
C3549 N838 1.112 . S
C3565 C2262 1.624 . S
C3567 C249 1.624 . S
C3583 C315 1.624 . S
C3585 C810 1.624 . S
C3601 C1569 1.624 . S
C3603 C843 1.624 . S
C3619 C2823 1.624 . S
C3621 C876 1.624 . S
C3637 C1305 1.624 . S
C3639 C909 1.624 . S
C3655 C942 1.624 . S
C3657 C2361 1.624 . S
C3673 C975 1.624 . S
C3675 C480 1.624 . S
C3691 C1668 1.624 . S
C3693 C18 1.624 . S
C3709 C3087 1.624 . S
C3711 C1008 1.624 . S
C3727 C777 1.624 . S
C3729 C1041 1.624 . S
C3745 C612 1.624 . S
C3747 C2592 1.624 . S
C3763 C3153 1.624 . S
C3765 C1074 1.624 . S
C3781 C1734 1.624 . S
C3783 C1107 1.624 . S
C3799 C3120 1.624 . S
C3801 C1140 1.624 . S
C3817 C744 1.624 . S
C3819 C2526 1.624 . S
C3835 C2559 1.624 . S
C3837 C546 1.624 . S
C3853 C513 1.624 . S
C3855 C1338 1.624 . S
C3871 C2658 1.624 . S
C3873 C1173 1.624 . S
C3889 C1866 1.624 . S
C3891 C348 1.624 . S
C3907 C1206 1.624 . S
C3909 C216 1.624 . S
C3925 C2955 1.624 . S
C3927 C1239 1.624 . S
C3943 C84 1.624 . S
C3945 C1272 1.624 . S
C3961 N1333 1.112 . S
C3963 N2554 1.112 . S
C3979 N904 1.112 . S
C3981 N1993 1.112 . S
C3997 N2752 1.112 . S
C3999 N1399 1.112 . S
C4015 N1828 1.112 . S
C4017 N805 1.112 . S
C4033 N1432 1.112 . S
C4035 N2587 1.112 . S
C4051 N1795 1.112 . S
C4053 N1465 1.112 . S
C4069 N1234 1.112 . S
C4071 N2422 1.112 . S
C4087 N2092 1.112 . S
C4089 N1531 1.112 . S
C4105 N2356 1.112 . S
C4107 N1564 1.112 . S
C4123 N1201 1.112 . S
C4125 N2389 1.112 . S
C4141 N1168 1.112 . S
C4143 N1597 1.112 . S
C4159 N1267 1.112 . S
C4161 N2290 1.112 . S
C4177 N2323 1.112 . S
C4179 N1630 1.112 . S
C4195 N1663 1.112 . S
C4197 N2257 1.112 . S
C4213 N2686 1.112 . S
C4215 N1729 1.112 . S
C4231 N1960 1.112 . S
C4233 N1069 1.112 . S
C4249 N2125 1.112 . S
C4251 N1003 1.112 . S
C4267 N1861 1.112 . S
C4269 N1135 1.112 . S
C4285 C2856 1.624 . S
C4287 C1503 1.624 . S
C4303 C150 1.624 . S
C4305 C1536 1.624 . S
C4321 C1899 1.624 . S
C4323 C2328 1.624 . S
C4339 C2097 1.624 . S
C4341 C51 1.624 . S
C4357 C1932 1.624 . S
C4359 C2889 1.624 . S
C4375 C1635 1.624 . S
C4377 C1965 1.624 . S
C4393 C678 1.624 . S
C4395 C2460 1.624 . S
C4411 C1833 1.624 . S
C4413 C1998 1.624 . S
C4429 C2790 1.624 . S
C4431 C1767 1.624 . S
C4447 C645 1.624 . S
C4449 C2625 1.624 . S
C4465 C579 1.624 . S
C4467 C2031 1.624 . S
C4483 C711 1.624 . S
C4485 C2493 1.624 . S
C4501 C1800 1.624 . S
C4503 C2757 1.624 . S
C4519 C1701 1.624 . S
C4521 C2724 1.624 . S
C4537 C2064 1.624 . S
C4539 C2196 1.624 . S
C4555 C1470 1.624 . S
C4557 C381 1.624 . S
C4573 C282 1.624 . S
C4575 C2229 1.624 . S
C4591 C1371 1.624 . S
C4593 C447 1.624 . S
C4609 N1927 1.112 . S
C4611 N3115 1.112 . S
C4627 N2026 1.112 . S
C4629 N2191 1.112 . S
C4645 N871 1.112 . S
C4647 N2620 1.112 . S
C4663 N3082 1.112 . S
C4665 N2224 1.112 . S
C4681 N2455 1.112 . S
C4683 N2950 1.112 . S
C4699 N937 1.112 . S
C4701 N2488 1.112 . S
C4717 C2988 1.624 . S
C4719 C1437 1.624 . S
C4735 C2691 1.624 . S
C4737 C1602 1.624 . S
C4753 C117 1.624 . S
C4755 C2394 1.624 . S
C4771 C2130 1.624 . S
C4773 C3054 1.624 . S
C4789 C2427 1.624 . S
C4791 C2922 1.624 . S
C4807 C183 1.624 . S
C4809 C2295 1.624 . S
C4825 N2653 1.112 . S
C4827 N1102 1.112 . S
C4843 N1894 1.112 . S
C4845 N3148 1.112 . S
C4861 C2163 1.624 . S
C4863 C414 1.624 . S
C4879 C3021 1.624 . S
C4881 C1404 1.624 . S
C4897 C21 0.630 . S
C4899 C1935 0.630 . S
C4915 C1407 0.630 . S
C4917 C54 0.630 . S
C4933 C2133 0.630 . S
C4935 C87 0.630 . S
C4951 C912 0.630 . S
C4953 C120 0.630 . S
C4969 C153 0.630 . S
C4971 C879 0.630 . S
C4987 C186 0.630 . S
C4989 C1506 0.630 . S
C5005 C219 0.630 . S
C5007 C2199 0.630 . S
C5023 C1440 0.630 . S
C5025 C252 0.630 . S
C5041 C417 0.630 . S
C5043 C285 0.630 . S
C5059 C450 0.630 . S
C5061 C318 0.630 . S
C5077 C483 0.630 . S
C5079 C351 0.630 . S
C5095 C516 0.630 . S
C5097 C384 0.630 . S
C5113 C1077 0.630 . S
C5115 C549 0.630 . S
C5131 C2793 0.630 . S
C5133 C582 0.630 . S
C5149 C747 0.630 . S
C5151 C615 0.630 . S
C5167 C1704 0.630 . S
C5169 C648 0.630 . S
C5185 C2034 0.630 . S
C5187 C681 0.630 . S
C5203 C714 0.630 . S
C5205 C2001 0.630 . S
C5221 C780 0.630 . S
C5223 C2562 0.630 . S
C5239 C1902 0.630 . S
C5241 C813 0.630 . S
C5257 C2232 0.630 . S
C5259 C846 0.630 . S
C5275 C1341 0.630 . S
C5277 C945 0.630 . S
C5293 C2694 0.630 . S
C5295 C978 0.630 . S
C5311 C1110 0.630 . S
C5313 C1011 0.630 . S
C5329 C1044 0.630 . S
C5331 C1143 0.630 . S
C5347 C1176 0.630 . S
C5349 C2364 0.630 . S
C5365 C1209 0.630 . S
C5367 C1671 0.630 . S
C5383 C1605 0.630 . S
C5385 C1242 0.630 . S
C5401 C1275 0.630 . S
C5403 C1539 0.630 . S
C5419 C2859 0.630 . S
C5421 C1308 0.630 . S
C5437 C1374 0.630 . S
C5439 C2925 0.630 . S
C5455 C1473 0.630 . S
C5457 C2661 0.630 . S
C5473 C1638 0.630 . S
C5475 C1572 0.630 . S
C5491 C2595 0.630 . S
C5493 C1737 0.630 . S
C5509 C1803 0.630 . S
C5511 C1770 0.630 . S
C5527 C1836 0.630 . S
C5529 C2727 0.630 . S
C5545 C1869 0.630 . S
C5547 C2958 0.630 . S
C5563 C1968 0.630 . S
C5565 C2166 0.630 . S
C5581 C2067 0.630 . S
C5583 C2892 0.630 . S
C5599 C2265 0.630 . S
C5601 C2100 0.630 . S
C5617 C2397 0.630 . S
C5619 C2298 0.630 . S
C5635 C2331 0.630 . S
C5637 C2430 0.630 . S
C5653 C2463 0.630 . S
C5655 C2760 0.630 . S
C5671 C2496 0.630 . S
C5673 C2628 0.630 . S
C5689 C2529 0.630 . S
C5691 C3090 0.630 . S
C5707 C2826 0.630 . S
C5709 C3057 0.630 . S
C5725 C3024 0.630 . S
C5727 C2991 0.630 . S
C5743 C3123 0.630 . S
C5745 C3156 0.630 . S
C5761 N1685 1.047 . S
C5763 C7 1.297 . S
C5779 C40 1.297 . S
C5781 N761 1.047 . S
C5797 C73 1.297 1_554 S
C5799 N2774 1.047 . S
C5815 N728 1.047 . S
C5817 C106 1.297 . S
C5833 C139 1.297 . S
C5835 N1025 1.047 . S
C5851 C172 1.297 1_556 S
C5853 N1751 1.047 . S
C5869 C205 1.297 . S
C5871 N2510 1.047 . S
C5887 C238 1.297 . S
C5889 N2708 1.047 . S
C5905 C271 1.297 . S
C5907 N2114 1.047 . S
C5923 C304 1.297 . S
C5925 N893 1.047 . S
C5941 C337 1.297 . S
C5943 N1916 1.047 . S
C5959 C370 1.297 . S
C5961 N1388 1.047 . S
C5977 N2180 1.047 . S
C5979 C403 1.297 . S
C5995 N1421 1.047 . S
C5997 C436 1.297 . S
C6013 C469 1.297 . S
C6015 N860 1.047 . S
C6031 C502 1.297 . S
C6033 N1487 1.047 . S
C6049 N2840 1.047 . S
C6051 C535 1.297 . S
C6067 C568 1.297 . S
C6069 N398 1.047 . S
C6085 C601 1.297 . S
C6087 N431 1.047 . S
C6103 N464 1.047 . S
C6105 C634 1.297 1_545 S
C6121 N2411 1.047 . S
C6123 C667 1.297 . S
C6139 N1553 1.047 . S
C6141 C700 1.297 . S
C6157 C733 1.297 . S
C6159 N1190 1.047 . S
C6175 C766 1.297 1_655 S
C6177 N1520 1.047 . S
C6193 N233 1.047 . S
C6195 C1657 1.297 1_565 S
C6211 N794 1.047 . S
C6213 C1294 1.297 1_455 S
C6229 N827 1.047 . S
C6231 C2350 1.297 . S
C6247 C1558 1.297 . S
C6249 N926 1.047 . S
C6265 N959 1.047 . S
C6267 C2812 1.297 1_565 S
C6283 N2 1.047 . S
C6285 C2251 1.297 1_455 S
C6301 C2218 1.297 1_556 S
C6303 N992 1.047 . S
C6319 C1426 1.297 . S
C6321 N596 1.047 . S
C6337 N1058 1.047 . S
C6339 C1888 1.297 . S
C6355 N1091 1.047 . S
C6357 C2680 1.297 . S
C6373 C1921 1.297 . S
C6375 N1124 1.047 . S
C6391 C1327 1.297 1_554 S
C6393 N530 1.047 . S
C6409 N497 1.047 . S
C6411 C2548 1.297 1_655 S
C6427 C1096 1.297 . S
C6429 N1157 1.047 . S
C6445 C1129 1.297 . S
C6447 N332 1.047 . S
C6463 C2449 1.297 . S
C6465 N1223 1.047 . S
C6481 C1756 1.297 . S
C6483 N1256 1.047 . S
C6499 N1289 1.047 . S
C6501 C1987 1.297 . S
C6517 C898 1.297 . S
C6519 N1817 1.047 . S
C6535 N2576 1.047 . S
C6537 C1360 1.297 . S
C6553 C1393 1.297 . S
C6555 N1784 1.047 . S
C6571 N1982 1.047 . S
C6573 C799 1.297 . S
C6589 C1459 1.297 . S
C6591 N2741 1.047 . S
C6607 N2543 1.047 . S
C6609 C1492 1.297 1_556 S
C6625 N2906 1.047 . S
C6627 C1228 1.297 . S
C6643 N35 1.047 . S
C6645 C1525 1.297 . S
C6661 C1195 1.297 1_565 S
C6663 N101 1.047 . S
C6679 C1591 1.297 . S
C6681 N2642 1.047 . S
C6697 N167 1.047 . S
C6699 C1261 1.297 . S
C6715 C1624 1.297 . S
C6717 N1883 1.047 . S
C6733 C1690 1.297 1_545 S
C6735 N2246 1.047 . S
C6751 N1586 1.047 . S
C6753 C1723 1.297 . S
C6769 N1619 1.047 . S
C6771 C1063 1.297 . S
C6787 C997 1.297 . S
C6789 N3038 1.047 . S
C6805 N365 1.047 . S
C6807 C1789 1.297 . S
C6823 C1822 1.297 1_655 S
C6825 N299 1.047 . S
C6841 N134 1.047 . S
C6843 C2086 1.297 1_455 S
C6859 C2878 1.297 . S
C6861 N1850 1.047 . S
C6877 N1949 1.047 . S
C6879 C2317 1.297 . S
C6895 N1322 1.047 . S
C6897 C2845 1.297 1_455 S
C6913 N662 1.047 . S
C6915 C2944 1.297 . S
C6931 N629 1.047 . S
C6933 C865 1.297 . S
C6949 C2152 1.297 . S
C6951 N2015 1.047 . S
C6967 C931 1.297 1_554 S
C6969 N695 1.047 . S
C6985 N1652 1.047 . S
C6987 C2713 1.297 1_655 S
C7003 C2020 1.297 . S
C7005 N2048 1.047 . S
C7021 C3076 1.297 1_545 S
C7023 N266 1.047 . S
C7039 C1030 1.297 . S
C7041 N2081 1.047 . S
C7057 N3071 1.047 . S
C7059 C2119 1.297 1_554 S
C7075 N2609 1.047 . S
C7077 C964 1.297 . S
C7093 N563 1.047 . S
C7095 C2185 1.297 . S
C7111 N3104 1.047 . S
C7113 C1855 1.297 . S
C7129 N2675 1.047 . S
C7131 C1162 1.297 . S
C7147 C2284 1.297 . S
C7149 N68 1.047 . S
C7165 N200 1.047 . S
C7167 C2383 1.297 . S
C7183 C2416 1.297 . S
C7185 N2939 1.047 . S
C7201 N2345 1.047 . S
C7203 C2482 1.297 . S
C7219 C2515 1.297 1_545 S
C7221 N2378 1.047 . S
C7237 C2581 1.297 . S
C7239 N2972 1.047 . S
C7255 C2614 1.297 . S
C7257 N2807 1.047 . S
C7273 N2213 1.047 . S
C7275 C3043 1.297 1_565 S
C7291 N1355 1.047 . S
C7293 C2977 1.297 . S
C7309 C832 1.297 1_556 S
C7311 N2477 1.047 . S
C7327 C2911 1.297 . S
C7329 N2444 1.047 . S
C7345 N2279 1.047 . S
C7347 C2779 1.297 . S
C7363 N2873 1.047 . S
C7365 C3109 1.297 . S
C7381 C1954 1.297 . S
C7383 N3137 1.047 . S
C7399 C2647 1.297 . S
C7401 N1718 1.047 . S
C7417 N2147 1.047 . S
C7419 C2053 1.297 . S
C7435 N1454 1.047 . S
C7437 C3010 1.297 . S
C7453 N3005 1.047 . S
C7455 C2746 1.297 . S
C7471 C3142 1.297 . S
C7473 N2312 1.047 . S
