# Generated by pormake.
# Topology gis, (4)-cn, num edge types: 1
# Building blocks:
#     Node 0, Type 0, BuildingBlock: QUQFOY_clean_sbu_1, # of connection points: 4
#     Node 1, Type 0, BuildingBlock: QUQFOY_clean_sbu_1, # of connection points: 4
#     Node 2, Type 0, BuildingBlock: QUQFOY_clean_sbu_1, # of connection points: 4
#     Node 3, Type 0, BuildingBlock: QUQFOY_clean_sbu_1, # of connection points: 4
#     Node 4, Type 0, BuildingBlock: QUQFOY_clean_sbu_1, # of connection points: 4
#     Node 5, Type 0, BuildingBlock: QUQFOY_clean_sbu_1, # of connection points: 4
#     Node 6, Type 0, BuildingBlock: QUQFOY_clean_sbu_1, # of connection points: 4
#     Node 7, Type 0, BuildingBlock: QUQFOY_clean_sbu_1, # of connection points: 4
#     Node 8, Type 0, BuildingBlock: QUQFOY_clean_sbu_1, # of connection points: 4
#     Node 9, Type 0, BuildingBlock: QUQFOY_clean_sbu_1, # of connection points: 4
#     Node 10, Type 0, BuildingBlock: QUQFOY_clean_sbu_1, # of connection points: 4
#     Node 11, Type 0, BuildingBlock: QUQFOY_clean_sbu_1, # of connection points: 4
#     Node 12, Type 0, BuildingBlock: QUQFOY_clean_sbu_1, # of connection points: 4
#     Node 13, Type 0, BuildingBlock: QUQFOY_clean_sbu_1, # of connection points: 4
#     Node 14, Type 0, BuildingBlock: QUQFOY_clean_sbu_1, # of connection points: 4
#     Node 15, Type 0, BuildingBlock: QUQFOY_clean_sbu_1, # of connection points: 4
#     Edge 16, Type (0, 0), BuildingBlock: UVAHIK_clean_linker_0, # of connection points: 2
#     Edge 17, Type (0, 0), BuildingBlock: UVAHIK_clean_linker_0, # of connection points: 2
#     Edge 18, Type (0, 0), BuildingBlock: UVAHIK_clean_linker_0, # of connection points: 2
#     Edge 19, Type (0, 0), BuildingBlock: UVAHIK_clean_linker_0, # of connection points: 2
#     Edge 20, Type (0, 0), BuildingBlock: UVAHIK_clean_linker_0, # of connection points: 2
#     Edge 21, Type (0, 0), BuildingBlock: UVAHIK_clean_linker_0, # of connection points: 2
#     Edge 22, Type (0, 0), BuildingBlock: UVAHIK_clean_linker_0, # of connection points: 2
#     Edge 23, Type (0, 0), BuildingBlock: UVAHIK_clean_linker_0, # of connection points: 2
#     Edge 24, Type (0, 0), BuildingBlock: UVAHIK_clean_linker_0, # of connection points: 2
#     Edge 25, Type (0, 0), BuildingBlock: UVAHIK_clean_linker_0, # of connection points: 2
#     Edge 26, Type (0, 0), BuildingBlock: UVAHIK_clean_linker_0, # of connection points: 2
#     Edge 27, Type (0, 0), BuildingBlock: UVAHIK_clean_linker_0, # of connection points: 2
#     Edge 28, Type (0, 0), BuildingBlock: UVAHIK_clean_linker_0, # of connection points: 2
#     Edge 29, Type (0, 0), BuildingBlock: UVAHIK_clean_linker_0, # of connection points: 2
#     Edge 30, Type (0, 0), BuildingBlock: UVAHIK_clean_linker_0, # of connection points: 2
#     Edge 31, Type (0, 0), BuildingBlock: UVAHIK_clean_linker_0, # of connection points: 2
#     Edge 32, Type (0, 0), BuildingBlock: UVAHIK_clean_linker_0, # of connection points: 2
#     Edge 33, Type (0, 0), BuildingBlock: UVAHIK_clean_linker_0, # of connection points: 2
#     Edge 34, Type (0, 0), BuildingBlock: UVAHIK_clean_linker_0, # of connection points: 2
#     Edge 35, Type (0, 0), BuildingBlock: UVAHIK_clean_linker_0, # of connection points: 2
#     Edge 36, Type (0, 0), BuildingBlock: UVAHIK_clean_linker_0, # of connection points: 2
#     Edge 37, Type (0, 0), BuildingBlock: UVAHIK_clean_linker_0, # of connection points: 2
#     Edge 38, Type (0, 0), BuildingBlock: UVAHIK_clean_linker_0, # of connection points: 2
#     Edge 39, Type (0, 0), BuildingBlock: UVAHIK_clean_linker_0, # of connection points: 2
#     Edge 40, Type (0, 0), BuildingBlock: UVAHIK_clean_linker_0, # of connection points: 2
#     Edge 41, Type (0, 0), BuildingBlock: UVAHIK_clean_linker_0, # of connection points: 2
#     Edge 42, Type (0, 0), BuildingBlock: UVAHIK_clean_linker_0, # of connection points: 2
#     Edge 43, Type (0, 0), BuildingBlock: UVAHIK_clean_linker_0, # of connection points: 2
#     Edge 44, Type (0, 0), BuildingBlock: UVAHIK_clean_linker_0, # of connection points: 2
#     Edge 45, Type (0, 0), BuildingBlock: UVAHIK_clean_linker_0, # of connection points: 2
#     Edge 46, Type (0, 0), BuildingBlock: UVAHIK_clean_linker_0, # of connection points: 2
#     Edge 47, Type (0, 0), BuildingBlock: UVAHIK_clean_linker_0, # of connection points: 2
# Relax obj value: 0.009
# Max RMSD: 0.063
# Mean RMSD: 0.063
data_MOF--net-gis--node1-QUQFOY_clean_sbu_1--edge1-UVAHIK_clean_linker_0
_symmetry_space_group_name_H-M    P1
_symmetry_Int_Tables_number       1
_symmetry_cell_setting            triclinic
loop_
_symmetry_equiv_pos_as_xyz
'x, y, z'
_cell_length_a     69.467681
_cell_length_b     69.433826
_cell_length_c     53.381575
_cell_angle_alpha  89.981091
_cell_angle_beta   90.00038
_cell_angle_gamma 89.999626
loop_
_atom_site_label
_atom_site_type_symbol
_atom_site_fract_x
_atom_site_fract_y
_atom_site_fract_z
_atom_type_partial_charge
O0 O 0.15024 0.64387 0.14801 0.0
Cd1 Cd 0.14656 0.61507 0.15638 0.0
Cd2 Cd 0.14238 0.61294 0.10632 0.0
O3 O 0.15118 0.64145 0.10682 0.0
O4 O 0.15736 0.61149 0.19069 0.0
O5 O 0.17034 0.59846 0.15684 0.0
C6 C 0.17097 0.60145 0.18072 0.0
C7 C 0.15522 0.59024 0.07864 0.0
C8 C 0.15248 0.6516 0.12659 0.0
C9 C 0.10768 0.60367 0.13822 0.0
O10 O 0.1143 0.60731 0.11653 0.0
O11 O 0.11861 0.60467 0.15728 0.0
O12 O 0.1438 0.60367 0.07105 0.0
O13 O 0.16031 0.59034 0.10193 0.0
O14 O 0.65186 0.86626 0.36278 0.0
Cd15 Cd 0.64708 0.89498 0.35511 0.0
Cd16 Cd 0.64516 0.89694 0.40515 0.0
O17 O 0.65513 0.86881 0.40373 0.0
O18 O 0.6567 0.89925 0.3203 0.0
O19 O 0.67042 0.91211 0.35376 0.0
C20 C 0.67045 0.90937 0.32982 0.0
C21 C 0.65931 0.92066 0.43009 0.0
C22 C 0.65559 0.85865 0.3839 0.0
C23 C 0.60867 0.90484 0.37646 0.0
O24 O 0.61635 0.90125 0.39758 0.0
O25 O 0.61882 0.90453 0.35662 0.0
O26 O 0.64946 0.90681 0.43984 0.0
O27 O 0.66193 0.92055 0.40613 0.0
O28 O 0.35836 0.36483 0.64547 0.0
Cd29 Cd 0.36323 0.39333 0.65442 0.0
Cd30 Cd 0.36507 0.39671 0.6044 0.0
O31 O 0.35512 0.36856 0.60466 0.0
O32 O 0.3535 0.39692 0.68932 0.0
O33 O 0.33998 0.41053 0.6562 0.0
C34 C 0.33986 0.40732 0.68004 0.0
C35 C 0.35074 0.42109 0.5807 0.0
C36 C 0.3546 0.35785 0.62399 0.0
C37 C 0.40156 0.40399 0.63341 0.0
O38 O 0.39384 0.401 0.61216 0.0
O39 O 0.39147 0.40298 0.65327 0.0
O40 O 0.36075 0.40766 0.57025 0.0
O41 O 0.34806 0.42014 0.60463 0.0
O42 O 0.8939 0.10898 0.89597 0.0
Cd43 Cd 0.86528 0.11319 0.90478 0.0
Cd44 Cd 0.86257 0.11685 0.85478 0.0
O45 O 0.89091 0.10747 0.85489 0.0
O46 O 0.86163 0.10207 0.93901 0.0
O47 O 0.84834 0.08971 0.90496 0.0
C48 C 0.85146 0.08866 0.92878 0.0
C49 C 0.83851 0.10256 0.83057 0.0
C50 C 0.9013 0.10627 0.87446 0.0
C51 C 0.85432 0.15214 0.8858 0.0
O52 O 0.85765 0.14526 0.86415 0.0
O53 O 0.85528 0.14135 0.90504 0.0
O54 O 0.85166 0.11315 0.82048 0.0
O55 O 0.83958 0.09932 0.85437 0.0
O56 O 0.15102 0.36442 0.86268 0.0
Cd57 Cd 0.14666 0.39292 0.85325 0.0
Cd58 Cd 0.14271 0.39638 0.90323 0.0
O59 O 0.15212 0.36806 0.90371 0.0
O60 O 0.15838 0.39655 0.81945 0.0
O61 O 0.16985 0.41023 0.8538 0.0
C62 C 0.17138 0.40703 0.83003 0.0
C63 C 0.15507 0.41962 0.93055 0.0
C64 C 0.15358 0.35738 0.88443 0.0
C65 C 0.10769 0.40417 0.87101 0.0
O66 O 0.11453 0.40133 0.89279 0.0
O67 O 0.1185 0.40272 0.85188 0.0
O68 O 0.14377 0.40615 0.93831 0.0
O69 O 0.16026 0.41932 0.90731 0.0
O70 O 0.85963 0.86628 0.14784 0.0
Cd71 Cd 0.86341 0.89511 0.15579 0.0
Cd72 Cd 0.86729 0.89716 0.10581 0.0
O73 O 0.85819 0.86871 0.10669 0.0
O74 O 0.85215 0.89922 0.18981 0.0
O75 O 0.8398 0.91185 0.15532 0.0
C76 C 0.83872 0.90914 0.17923 0.0
C77 C 0.85317 0.92042 0.08009 0.0
C78 C 0.85708 0.85855 0.12649 0.0
C79 C 0.90228 0.90631 0.13692 0.0
O80 O 0.89558 0.90256 0.11529 0.0
O81 O 0.8914 0.90548 0.15606 0.0
O82 O 0.86386 0.90697 0.07091 0.0
O83 O 0.84973 0.92015 0.10387 0.0
O84 O 0.39401 0.60919 0.39709 0.0
Cd85 Cd 0.36519 0.6133 0.40485 0.0
Cd86 Cd 0.36353 0.61654 0.35481 0.0
O87 O 0.39183 0.60712 0.35596 0.0
O88 O 0.36126 0.60331 0.43958 0.0
O89 O 0.34849 0.58961 0.40606 0.0
C90 C 0.3513 0.58948 0.42998 0.0
C91 C 0.3397 0.60193 0.33059 0.0
C92 C 0.40184 0.60623 0.3759 0.0
C93 C 0.35451 0.65204 0.38483 0.0
O94 O 0.35848 0.64507 0.36342 0.0
O95 O 0.35497 0.64135 0.40418 0.0
O96 O 0.35299 0.61232 0.32044 0.0
O97 O 0.34053 0.59904 0.35449 0.0
O98 O 0.65063 0.14378 0.64648 0.0
Cd99 Cd 0.64652 0.11498 0.65443 0.0
Cd100 Cd 0.64339 0.11311 0.60442 0.0
O101 O 0.65286 0.14142 0.60539 0.0
O102 O 0.65651 0.11114 0.68917 0.0
O103 O 0.67021 0.09832 0.65568 0.0
C104 C 0.67035 0.10119 0.67959 0.0
C105 C 0.65802 0.08909 0.58048 0.0
C106 C 0.65368 0.15152 0.62525 0.0
C107 C 0.60781 0.10432 0.63438 0.0
O108 O 0.61485 0.10818 0.61297 0.0
O109 O 0.61846 0.1048 0.65377 0.0
O110 O 0.6477 0.10237 0.57016 0.0
O111 O 0.66083 0.09004 0.60438 0.0
O112 O 0.85836 0.36497 0.86364 0.0
Cd113 Cd 0.86301 0.39348 0.85449 0.0
Cd114 Cd 0.86687 0.39683 0.90442 0.0
O115 O 0.85695 0.36865 0.90462 0.0
O116 O 0.85262 0.39687 0.81992 0.0
O117 O 0.83973 0.41073 0.85327 0.0
C118 C 0.83921 0.40741 0.82946 0.0
C119 C 0.85331 0.42077 0.92957 0.0
C120 C 0.85553 0.35797 0.88535 0.0
C121 C 0.90214 0.40426 0.87314 0.0
O122 O 0.89534 0.40129 0.89493 0.0
O123 O 0.89125 0.40312 0.85404 0.0
O124 O 0.86371 0.40721 0.93904 0.0
O125 O 0.84989 0.4203 0.90578 0.0
O126 O 0.35881 0.14481 0.64557 0.0
Cd127 Cd 0.36331 0.11618 0.65422 0.0
Cd128 Cd 0.36625 0.11317 0.60424 0.0
O129 O 0.35639 0.14135 0.60464 0.0
O130 O 0.35317 0.11248 0.68887 0.0
O131 O 0.33987 0.09919 0.6554 0.0
C132 C 0.33954 0.10224 0.67928 0.0
C133 C 0.35226 0.08944 0.57917 0.0
C134 C 0.35551 0.15194 0.62405 0.0
C135 C 0.40201 0.1053 0.63434 0.0
O136 O 0.39486 0.1086 0.61283 0.0
O137 O 0.39145 0.10622 0.65378 0.0
O138 O 0.36253 0.10305 0.56959 0.0
O139 O 0.3492 0.08976 0.60305 0.0
O140 O 0.65207 0.64407 0.36334 0.0
Cd141 Cd 0.64726 0.61538 0.35547 0.0
Cd142 Cd 0.6453 0.61339 0.40554 0.0
O143 O 0.65524 0.64154 0.40432 0.0
O144 O 0.65682 0.61127 0.32058 0.0
O145 O 0.67058 0.59825 0.35393 0.0
C146 C 0.67058 0.60109 0.33001 0.0
C147 C 0.6598 0.58909 0.42917 0.0
C148 C 0.65574 0.65169 0.38447 0.0
C149 C 0.60884 0.6055 0.37683 0.0
O150 O 0.61651 0.60908 0.39796 0.0
O151 O 0.61899 0.60583 0.357 0.0
O152 O 0.64995 0.60261 0.43972 0.0
O153 O 0.66224 0.58995 0.4052 0.0
O154 O 0.11421 0.9035 0.11552 0.0
Cd155 Cd 0.14229 0.89755 0.10561 0.0
Cd156 Cd 0.14632 0.89542 0.15565 0.0
O157 O 0.1184 0.90595 0.15631 0.0
O158 O 0.14463 0.90732 0.07062 0.0
O159 O 0.16077 0.91977 0.10245 0.0
C160 C 0.15626 0.9203 0.07896 0.0
C161 C 0.17074 0.9089 0.18009 0.0
C162 C 0.10753 0.9071 0.13719 0.0
C163 C 0.15205 0.85881 0.12599 0.0
O164 O 0.14989 0.8666 0.14737 0.0
O165 O 0.15076 0.86893 0.10618 0.0
O166 O 0.15703 0.89897 0.19002 0.0
O167 O 0.17019 0.91188 0.1562 0.0
O168 O 0.85965 0.6436 0.14752 0.0
Cd169 Cd 0.86349 0.61481 0.15576 0.0
Cd170 Cd 0.86763 0.61275 0.10579 0.0
O171 O 0.85845 0.64118 0.10636 0.0
O172 O 0.85221 0.6109 0.18983 0.0
O173 O 0.83991 0.59803 0.15548 0.0
C174 C 0.83881 0.60088 0.17935 0.0
C175 C 0.8534 0.58891 0.08112 0.0
C176 C 0.85721 0.65132 0.12615 0.0
C177 C 0.90249 0.60373 0.13722 0.0
O178 O 0.89589 0.60746 0.11553 0.0
O179 O 0.8915 0.60452 0.15627 0.0
O180 O 0.86409 0.60211 0.0713 0.0
O181 O 0.84999 0.58984 0.10488 0.0
O182 O 0.15137 0.14463 0.86256 0.0
Cd183 Cd 0.14665 0.11622 0.85305 0.0
Cd184 Cd 0.14408 0.11236 0.9031 0.0
O185 O 0.15338 0.14073 0.90349 0.0
O186 O 0.15787 0.11255 0.81896 0.0
O187 O 0.16969 0.09874 0.85305 0.0
C188 C 0.17095 0.10199 0.82926 0.0
C189 C 0.15751 0.08895 0.92935 0.0
C190 C 0.15441 0.15154 0.88427 0.0
C191 C 0.10813 0.10506 0.87237 0.0
O192 O 0.11565 0.10748 0.89385 0.0
O193 O 0.11835 0.10674 0.85272 0.0
O194 O 0.1463 0.10219 0.93794 0.0
O195 O 0.16189 0.08952 0.90583 0.0
O196 O 0.61605 0.40191 0.61277 0.0
Cd197 Cd 0.64473 0.39714 0.60487 0.0
Cd198 Cd 0.64671 0.39498 0.65493 0.0
O199 O 0.61855 0.40484 0.65378 0.0
O200 O 0.64887 0.40687 0.57005 0.0
O201 O 0.66187 0.42048 0.60348 0.0
C202 C 0.65904 0.42058 0.57956 0.0
C203 C 0.67088 0.40937 0.67886 0.0
C204 C 0.60842 0.40545 0.63393 0.0
C205 C 0.65463 0.35862 0.62599 0.0
O206 O 0.65108 0.36622 0.64716 0.0
O207 O 0.65426 0.36884 0.6062 0.0
O208 O 0.65735 0.39942 0.68922 0.0
O209 O 0.6701 0.41198 0.65491 0.0
O210 O 0.35826 0.86476 0.36358 0.0
Cd211 Cd 0.36332 0.89323 0.35466 0.0
Cd212 Cd 0.36508 0.89654 0.40472 0.0
O213 O 0.35484 0.86849 0.40437 0.0
O214 O 0.35281 0.89723 0.32019 0.0
O215 O 0.34032 0.91073 0.35404 0.0
C216 C 0.33951 0.90768 0.33019 0.0
C217 C 0.35102 0.92098 0.42861 0.0
C218 C 0.35434 0.85779 0.38502 0.0
C219 C 0.40167 0.90355 0.37565 0.0
O220 O 0.39388 0.90059 0.39686 0.0
O221 O 0.39163 0.90267 0.35574 0.0
O222 O 0.36094 0.90743 0.43897 0.0
O223 O 0.34829 0.92012 0.4047 0.0
C224 C 0.15766 0.82684 0.14641 0.0
C225 C 0.15512 0.83769 0.12441 0.0
C226 C 0.15903 0.80681 0.14541 0.0
C227 C 0.168 0.76531 0.10343 0.0
H228 H 0.13911 0.7377 0.15417 0.0
C229 C 0.15507 0.68233 0.1017 0.0
C230 C 0.15558 0.67271 0.1249 0.0
C231 C 0.15634 0.70246 0.10059 0.0
C232 C 0.14747 0.74515 0.14005 0.0
H233 H 0.1527 0.83592 0.08396 0.0
H234 H 0.15493 0.8008 0.08225 0.0
H235 H 0.13897 0.77267 0.15406 0.0
H236 H 0.15873 0.67673 0.16502 0.0
H237 H 0.16118 0.7116 0.16304 0.0
H238 H 0.17638 0.73758 0.0894 0.0
C239 C 0.15598 0.80788 0.10027 0.0
C240 C 0.14739 0.76524 0.13998 0.0
C241 C 0.15464 0.82801 0.10126 0.0
C242 C 0.15808 0.68363 0.14684 0.0
C243 C 0.15938 0.70367 0.14572 0.0
C244 C 0.16808 0.74511 0.1035 0.0
C245 C 0.15784 0.79703 0.1224 0.0
C246 C 0.15778 0.7756 0.12184 0.0
C247 C 0.15814 0.71338 0.12266 0.0
C248 C 0.15794 0.73481 0.12198 0.0
H249 H 0.1583 0.83379 0.16455 0.0
H250 H 0.16087 0.79893 0.16276 0.0
H251 H 0.17624 0.77285 0.08928 0.0
H252 H 0.15316 0.67436 0.08443 0.0
H253 H 0.15525 0.70949 0.08254 0.0
C254 C 0.43348 0.90903 0.3965 0.0
C255 C 0.42273 0.90704 0.37433 0.0
C256 C 0.45349 0.91068 0.39568 0.0
C257 C 0.49502 0.92141 0.35448 0.0
H258 H 0.5227 0.89093 0.40356 0.0
C259 C 0.57797 0.90876 0.35189 0.0
C260 C 0.58761 0.90825 0.37506 0.0
C261 C 0.55785 0.91014 0.35094 0.0
C262 C 0.51523 0.89974 0.38992 0.0
H263 H 0.42465 0.90592 0.33379 0.0
H264 H 0.45974 0.90866 0.3324 0.0
H265 H 0.48775 0.89062 0.40336 0.0
H266 H 0.58367 0.90979 0.41535 0.0
H267 H 0.54882 0.91249 0.41365 0.0
H268 H 0.5227 0.93042 0.341 0.0
C269 C 0.45259 0.90906 0.35042 0.0
C270 C 0.49515 0.89956 0.38981 0.0
C271 C 0.43248 0.90742 0.35123 0.0
C272 C 0.57674 0.90992 0.39717 0.0
C273 C 0.55671 0.91136 0.39621 0.0
C274 C 0.5152 0.9216 0.3546 0.0
C275 C 0.46334 0.91034 0.37269 0.0
C276 C 0.48477 0.91049 0.37224 0.0
C277 C 0.54697 0.91107 0.37313 0.0
C278 C 0.52554 0.91088 0.37249 0.0
H279 H 0.42647 0.90899 0.41463 0.0
H280 H 0.46128 0.91206 0.41316 0.0
H281 H 0.48745 0.93007 0.34078 0.0
H282 H 0.58589 0.90749 0.33449 0.0
H283 H 0.5508 0.90979 0.33285 0.0
C284 C 0.34923 0.32811 0.59794 0.0
C285 C 0.35051 0.33695 0.62159 0.0
C286 C 0.34676 0.30814 0.59593 0.0
C287 C 0.33208 0.26486 0.63213 0.0
H288 H 0.36533 0.23744 0.58596 0.0
C289 C 0.3495 0.18433 0.64322 0.0
C290 C 0.35141 0.17285 0.62167 0.0
C291 C 0.34679 0.2042 0.64121 0.0
C292 C 0.35569 0.24487 0.59865 0.0
H293 H 0.34963 0.33172 0.66167 0.0
H294 H 0.34542 0.29709 0.65816 0.0
H295 H 0.36506 0.27257 0.5859 0.0
H296 H 0.35154 0.1733 0.58103 0.0
H297 H 0.34675 0.20807 0.57755 0.0
H298 H 0.32302 0.23717 0.64525 0.0
C299 C 0.34617 0.30554 0.64113 0.0
C300 C 0.35554 0.26502 0.59862 0.0
C301 C 0.34872 0.32543 0.64314 0.0
C302 C 0.35015 0.1817 0.59802 0.0
C303 C 0.34751 0.20165 0.59601 0.0
C304 C 0.33223 0.24473 0.63216 0.0
C305 C 0.34538 0.29661 0.61753 0.0
C306 C 0.34402 0.27526 0.61571 0.0
C307 C 0.34596 0.21315 0.61761 0.0
C308 C 0.34432 0.23448 0.61577 0.0
H309 H 0.35053 0.33654 0.58095 0.0
H310 H 0.34602 0.30172 0.57747 0.0
H311 H 0.32276 0.27229 0.6452 0.0
H312 H 0.35039 0.17802 0.66175 0.0
H313 H 0.34592 0.21263 0.65824 0.0
C314 C 0.07741 0.10246 0.84745 0.0
C315 C 0.08711 0.10149 0.87056 0.0
C316 C 0.05729 0.10106 0.84644 0.0
C317 C 0.01496 0.10923 0.88663 0.0
H318 H 0.98664 0.08146 0.83552 0.0
C319 C 0.93334 0.0998 0.89415 0.0
C320 C 0.92231 0.10274 0.87241 0.0
C321 C 0.95333 0.09814 0.89274 0.0
C322 C 0.99436 0.08942 0.84978 0.0
H323 H 0.08328 0.09721 0.91054 0.0
H324 H 0.04846 0.09455 0.90871 0.0
H325 H 0.02191 0.08116 0.83504 0.0
H326 H 0.92367 0.10554 0.83197 0.0
H327 H 0.95872 0.10285 0.82956 0.0
H328 H 0.98765 0.11767 0.90131 0.0
C329 C 0.0563 0.09683 0.89142 0.0
C330 C 0.01455 0.08924 0.84951 0.0
C331 C 0.07631 0.09826 0.89244 0.0
C332 C 0.93173 0.10329 0.84908 0.0
C333 C 0.95182 0.10168 0.84769 0.0
C334 C 0.99489 0.10943 0.88689 0.0
C335 C 0.04649 0.09866 0.86852 0.0
C336 C 0.02507 0.099 0.86811 0.0
C337 C 0.96288 0.09946 0.86958 0.0
C338 C 0.9843 0.09938 0.86865 0.0
H339 H 0.08529 0.10493 0.83023 0.0
H340 H 0.05016 0.10258 0.82851 0.0
H341 H 0.02259 0.11731 0.90087 0.0
H342 H 0.92658 0.09909 0.91241 0.0
H343 H 0.96135 0.09599 0.90992 0.0
C344 C 0.16021 0.32495 0.86577 0.0
C345 C 0.15755 0.33647 0.88715 0.0
C346 C 0.16285 0.30509 0.868 0.0
C347 C 0.15248 0.26447 0.91004 0.0
H348 H 0.18701 0.23706 0.86546 0.0
C349 C 0.15883 0.18119 0.91079 0.0
C350 C 0.15835 0.17244 0.88703 0.0
C351 C 0.16124 0.20115 0.91305 0.0
C352 C 0.17725 0.24449 0.87799 0.0
H353 H 0.15599 0.33611 0.92774 0.0
H354 H 0.16066 0.30133 0.93161 0.0
H355 H 0.1868 0.27218 0.86548 0.0
H356 H 0.16055 0.1778 0.84707 0.0
H357 H 0.16465 0.21242 0.85102 0.0
H358 H 0.14263 0.23676 0.92214 0.0
C359 C 0.16054 0.30772 0.9131 0.0
C360 C 0.17712 0.26462 0.87799 0.0
C361 C 0.15797 0.32766 0.91088 0.0
C362 C 0.16084 0.18403 0.86567 0.0
C363 C 0.16333 0.2039 0.86794 0.0
C364 C 0.15261 0.24431 0.91004 0.0
C365 C 0.16286 0.29618 0.89165 0.0
C366 C 0.16445 0.27486 0.89363 0.0
C367 C 0.16336 0.21275 0.89162 0.0
C368 C 0.16471 0.23409 0.89363 0.0
H369 H 0.15997 0.33121 0.84719 0.0
H370 H 0.16431 0.29662 0.85107 0.0
H371 H 0.14241 0.27189 0.92214 0.0
H372 H 0.15698 0.1727 0.92764 0.0
H373 H 0.16137 0.20751 0.93157 0.0
C374 C 0.93167 0.91191 0.16353 0.0
C375 C 0.92305 0.91082 0.13972 0.0
C376 C 0.95155 0.91479 0.16589 0.0
C377 C 0.99475 0.93104 0.13075 0.0
H378 H 0.02253 0.89718 0.17582 0.0
C379 C 0.07518 0.9142 0.11868 0.0
C380 C 0.08678 0.91167 0.14002 0.0
C381 C 0.05536 0.91702 0.121 0.0
C382 C 0.015 0.907 0.16347 0.0
H383 H 0.92856 0.91248 0.09976 0.0
H384 H 0.96305 0.91742 0.10387 0.0
H385 H 0.98742 0.89694 0.17572 0.0
H386 H 0.08661 0.91068 0.18064 0.0
H387 H 0.0519 0.91569 0.18468 0.0
H388 H 0.02231 0.94078 0.11807 0.0
C389 C 0.95448 0.91619 0.12075 0.0
C390 C 0.99485 0.90686 0.16341 0.0
C391 C 0.93468 0.91322 0.11839 0.0
C392 C 0.07811 0.91256 0.16381 0.0
C393 C 0.0582 0.91531 0.16613 0.0
C394 C 0.01487 0.93119 0.13082 0.0
C395 C 0.96321 0.91679 0.14449 0.0
C396 C 0.9845 0.91856 0.14664 0.0
C397 C 0.04657 0.91737 0.14472 0.0
C398 C 0.02525 0.91886 0.14677 0.0
H399 H 0.92314 0.91014 0.18036 0.0
H400 H 0.95782 0.91536 0.18445 0.0
H401 H 0.98721 0.9405 0.11794 0.0
H402 H 0.08134 0.91362 0.10006 0.0
H403 H 0.04683 0.91829 0.1041 0.0
C404 C 0.34851 0.68169 0.41082 0.0
C405 C 0.35021 0.67291 0.38717 0.0
C406 C 0.34581 0.70162 0.41283 0.0
C407 C 0.33123 0.74485 0.37644 0.0
H408 H 0.36356 0.77246 0.4235 0.0
C409 C 0.34842 0.82542 0.36581 0.0
C410 C 0.35005 0.83693 0.38738 0.0
C411 C 0.34567 0.80556 0.36778 0.0
C412 C 0.35417 0.76498 0.41056 0.0
H413 H 0.34986 0.6782 0.3471 0.0
H414 H 0.34527 0.71279 0.35061 0.0
H415 H 0.36361 0.73733 0.42344 0.0
H416 H 0.34958 0.83653 0.42801 0.0
H417 H 0.34472 0.80176 0.43144 0.0
H418 H 0.32211 0.77248 0.36318 0.0
C419 C 0.34585 0.70431 0.36763 0.0
C420 C 0.3542 0.74482 0.41052 0.0
C421 C 0.34862 0.68445 0.36562 0.0
C422 C 0.34841 0.82811 0.41101 0.0
C423 C 0.34574 0.80816 0.41299 0.0
C424 C 0.3312 0.76497 0.37649 0.0
C425 C 0.34463 0.71319 0.39124 0.0
C426 C 0.34303 0.73452 0.39311 0.0
C427 C 0.34452 0.79663 0.39138 0.0
C428 C 0.34297 0.77529 0.39319 0.0
H429 H 0.34963 0.67324 0.42781 0.0
H430 H 0.34473 0.708 0.43129 0.0
H431 H 0.32218 0.73735 0.36311 0.0
H432 H 0.3496 0.8317 0.34729 0.0
H433 H 0.34506 0.79711 0.35075 0.0
C434 C 0.57806 0.09874 0.66032 0.0
C435 C 0.58692 0.10016 0.63669 0.0
C436 C 0.55811 0.09625 0.66227 0.0
C437 C 0.51485 0.0818 0.62592 0.0
H438 H 0.48748 0.11484 0.67239 0.0
C439 C 0.43435 0.09928 0.61508 0.0
C440 C 0.4229 0.10115 0.63666 0.0
C441 C 0.45421 0.09654 0.61704 0.0
C442 C 0.49489 0.10526 0.65961 0.0
H443 H 0.58175 0.0995 0.5966 0.0
H444 H 0.54713 0.09526 0.60001 0.0
H445 H 0.52259 0.11456 0.67241 0.0
H446 H 0.42338 0.10114 0.6773 0.0
H447 H 0.45813 0.09628 0.68069 0.0
H448 H 0.48717 0.07281 0.61275 0.0
C449 C 0.55556 0.09591 0.61706 0.0
C450 C 0.51504 0.1051 0.65963 0.0
C451 C 0.57544 0.09848 0.6151 0.0
C452 C 0.43177 0.0998 0.66029 0.0
C453 C 0.4517 0.09712 0.66224 0.0
C454 C 0.49473 0.08195 0.62591 0.0
C455 C 0.5466 0.095 0.64064 0.0
C456 C 0.52526 0.09365 0.64244 0.0
C457 C 0.46318 0.09562 0.64062 0.0
C458 C 0.4845 0.09397 0.64241 0.0
H459 H 0.58647 0.09994 0.67733 0.0
H460 H 0.55167 0.0954 0.68071 0.0
H461 H 0.52228 0.07254 0.61276 0.0
H462 H 0.42804 0.10024 0.59657 0.0
H463 H 0.46262 0.09572 0.59999 0.0
C464 C 0.84956 0.18183 0.91218 0.0
C465 C 0.85022 0.17302 0.88847 0.0
C466 C 0.84712 0.20179 0.91435 0.0
C467 C 0.83145 0.24512 0.8789 0.0
H468 H 0.86599 0.27252 0.92345 0.0
C469 C 0.84881 0.32555 0.86667 0.0
C470 C 0.85138 0.33709 0.88805 0.0
C471 C 0.84608 0.30569 0.86891 0.0
C472 C 0.856 0.2651 0.91123 0.0
H473 H 0.84823 0.17831 0.84847 0.0
H474 H 0.84407 0.21292 0.85224 0.0
H475 H 0.86566 0.23739 0.92358 0.0
H476 H 0.85263 0.33677 0.92866 0.0
H477 H 0.84779 0.30202 0.93256 0.0
H478 H 0.82209 0.27281 0.86614 0.0
C479 C 0.84529 0.20445 0.86921 0.0
C480 C 0.85581 0.24494 0.91131 0.0
C481 C 0.84782 0.18457 0.86704 0.0
C482 C 0.85073 0.32832 0.9118 0.0
C483 C 0.84806 0.30839 0.91403 0.0
C484 C 0.83164 0.26525 0.87882 0.0
C485 C 0.84514 0.21336 0.89285 0.0
C486 C 0.84382 0.23471 0.89476 0.0
C487 C 0.84586 0.29682 0.89259 0.0
C488 C 0.8442 0.27549 0.89461 0.0
H489 H 0.85134 0.17337 0.92908 0.0
H490 H 0.84688 0.20819 0.93284 0.0
H491 H 0.82177 0.23769 0.86627 0.0
H492 H 0.84922 0.33178 0.84808 0.0
H493 H 0.8447 0.29721 0.85198 0.0
C494 C 0.66142 0.68349 0.36365 0.0
C495 C 0.65948 0.67272 0.38581 0.0
C496 C 0.6631 0.7035 0.36449 0.0
C497 C 0.67362 0.74512 0.40573 0.0
H498 H 0.64283 0.77258 0.35677 0.0
C499 C 0.65995 0.82797 0.40847 0.0
C500 C 0.65933 0.83763 0.38531 0.0
C501 C 0.66162 0.80787 0.40941 0.0
C502 C 0.65173 0.76518 0.37037 0.0
H503 H 0.65854 0.67458 0.42636 0.0
H504 H 0.6613 0.70968 0.42779 0.0
H505 H 0.64286 0.73762 0.3569 0.0
H506 H 0.661 0.83375 0.34502 0.0
H507 H 0.66418 0.79892 0.34669 0.0
H508 H 0.68234 0.77289 0.41926 0.0
C509 C 0.66165 0.70255 0.40976 0.0
C510 C 0.65175 0.74509 0.37044 0.0
C511 C 0.66 0.68243 0.40893 0.0
C512 C 0.6612 0.8268 0.36319 0.0
C513 C 0.66292 0.80679 0.36413 0.0
C514 C 0.6736 0.76532 0.40565 0.0
C515 C 0.66281 0.71334 0.3875 0.0
C516 C 0.6628 0.73478 0.38796 0.0
C517 C 0.66272 0.79701 0.3872 0.0
C518 C 0.66277 0.77557 0.38781 0.0
H519 H 0.66129 0.67649 0.34551 0.0
H520 H 0.6644 0.71132 0.34701 0.0
H521 H 0.68236 0.73761 0.41939 0.0
H522 H 0.65854 0.83587 0.42587 0.0
H523 H 0.66134 0.80078 0.42749 0.0
C524 C 0.8543 0.68211 0.10139 0.0
C525 C 0.85395 0.67242 0.12455 0.0
C526 C 0.85291 0.70224 0.1004 0.0
C527 C 0.86175 0.74486 0.14004 0.0
H528 H 0.83262 0.77262 0.08967 0.0
C529 C 0.85151 0.82655 0.14687 0.0
C530 C 0.85387 0.83745 0.12488 0.0
C531 C 0.85012 0.80651 0.14581 0.0
C532 C 0.84096 0.76506 0.10371 0.0
H533 H 0.85093 0.67632 0.16471 0.0
H534 H 0.84829 0.71117 0.16292 0.0
H535 H 0.83265 0.73735 0.08956 0.0
H536 H 0.85593 0.83577 0.08439 0.0
H537 H 0.85367 0.80065 0.08258 0.0
H538 H 0.87019 0.77237 0.15414 0.0
C539 C 0.85006 0.70331 0.14555 0.0
C540 C 0.84097 0.74486 0.10365 0.0
C541 C 0.85147 0.68327 0.14655 0.0
C542 C 0.85413 0.82782 0.10169 0.0
C543 C 0.85277 0.80769 0.10064 0.0
C544 C 0.86174 0.76495 0.14009 0.0
C545 C 0.85115 0.71309 0.12254 0.0
C546 C 0.85124 0.73454 0.12198 0.0
C547 C 0.85111 0.79678 0.12275 0.0
C548 C 0.85122 0.77533 0.1221 0.0
H549 H 0.85619 0.6742 0.08408 0.0
H550 H 0.85388 0.70933 0.08237 0.0
H551 H 0.87021 0.7374 0.15405 0.0
H552 H 0.85105 0.83346 0.16505 0.0
H553 H 0.84843 0.7986 0.16316 0.0
C554 C 0.65984 0.32664 0.64656 0.0
C555 C 0.65806 0.33755 0.62449 0.0
C556 C 0.66128 0.30661 0.64555 0.0
C557 C 0.6714 0.26513 0.60385 0.0
H558 H 0.64062 0.23761 0.65276 0.0
C559 C 0.65747 0.18231 0.60072 0.0
C560 C 0.65715 0.17259 0.62386 0.0
C561 C 0.65906 0.20243 0.59985 0.0
C562 C 0.64951 0.24504 0.63916 0.0
H563 H 0.65712 0.3359 0.58393 0.0
H564 H 0.65944 0.30079 0.58218 0.0
H565 H 0.64086 0.27258 0.65292 0.0
H566 H 0.65917 0.1764 0.66414 0.0
H567 H 0.66215 0.21123 0.66256 0.0
H568 H 0.6799 0.23738 0.59003 0.0
C569 C 0.65987 0.30782 0.60028 0.0
C570 C 0.64965 0.26513 0.63926 0.0
C571 C 0.65847 0.32794 0.60129 0.0
C572 C 0.65916 0.18338 0.64599 0.0
C573 C 0.66076 0.2034 0.6451 0.0
C574 C 0.67125 0.24494 0.60375 0.0
C575 C 0.6609 0.2969 0.62245 0.0
C576 C 0.66071 0.27545 0.62177 0.0
C577 C 0.66034 0.21322 0.62208 0.0
C578 C 0.66042 0.23466 0.62157 0.0
H579 H 0.65979 0.33354 0.66476 0.0
H580 H 0.6625 0.29869 0.66296 0.0
H581 H 0.68015 0.27265 0.5902 0.0
H582 H 0.65596 0.17444 0.58332 0.0
H583 H 0.6586 0.20955 0.58181 0.0
C584 C 0.07538 0.41133 0.88955 0.0
C585 C 0.08685 0.40837 0.8682 0.0
C586 C 0.05554 0.414 0.88736 0.0
C587 C 0.01485 0.40306 0.84581 0.0
H588 H 0.98749 0.43769 0.89032 0.0
C589 C 0.93155 0.40872 0.84622 0.0
C590 C 0.92299 0.40828 0.87011 0.0
C591 C 0.95145 0.41127 0.84365 0.0
C592 C 0.99491 0.4279 0.87781 0.0
H593 H 0.08642 0.40638 0.82765 0.0
H594 H 0.05164 0.41112 0.82382 0.0
H595 H 0.02259 0.43783 0.88976 0.0
H596 H 0.92866 0.41069 0.90997 0.0
H597 H 0.96321 0.41506 0.90548 0.0
H598 H 0.98713 0.39285 0.83426 0.0
C599 C 0.05807 0.4112 0.8423 0.0
C600 C 0.01503 0.42798 0.87749 0.0
C601 C 0.07801 0.4086 0.84449 0.0
C602 C 0.93473 0.41094 0.89128 0.0
C603 C 0.95456 0.41358 0.8887 0.0
C604 C 0.9947 0.403 0.84611 0.0
C605 C 0.04659 0.41376 0.86375 0.0
C606 C 0.02525 0.41526 0.8619 0.0
C607 C 0.96321 0.41358 0.86489 0.0
C608 C 0.9845 0.41512 0.86253 0.0
H609 H 0.08167 0.41125 0.90813 0.0
H610 H 0.04713 0.41565 0.90431 0.0
H611 H 0.02225 0.39294 0.83375 0.0
H612 H 0.92294 0.40674 0.82951 0.0
H613 H 0.95765 0.41137 0.82503 0.0
C614 C 0.57814 0.60152 0.35226 0.0
C615 C 0.58778 0.60206 0.37543 0.0
C616 C 0.55803 0.60008 0.3513 0.0
C617 C 0.51537 0.61036 0.39027 0.0
H618 H 0.4877 0.57989 0.34119 0.0
C619 C 0.43364 0.60084 0.39681 0.0
C620 C 0.4229 0.60278 0.37463 0.0
C621 C 0.45365 0.59923 0.39602 0.0
C622 C 0.49524 0.58859 0.35487 0.0
H623 H 0.58384 0.60052 0.41572 0.0
H624 H 0.549 0.59774 0.41402 0.0
H625 H 0.52295 0.57967 0.34141 0.0
H626 H 0.42485 0.60385 0.33409 0.0
H627 H 0.45994 0.6012 0.33274 0.0
H628 H 0.48786 0.6194 0.40368 0.0
C629 C 0.55689 0.59888 0.39658 0.0
C630 C 0.51542 0.58847 0.35499 0.0
C631 C 0.57691 0.60037 0.39754 0.0
C632 C 0.43267 0.60239 0.35154 0.0
C633 C 0.45278 0.6008 0.35075 0.0
C634 C 0.49529 0.61047 0.39015 0.0
C635 C 0.54715 0.59913 0.3735 0.0
C636 C 0.52572 0.59925 0.37285 0.0
C637 C 0.46352 0.59958 0.37304 0.0
C638 C 0.48495 0.59949 0.37261 0.0
H639 H 0.58607 0.6028 0.33486 0.0
H640 H 0.55098 0.6004 0.33321 0.0
H641 H 0.52281 0.61921 0.40388 0.0
H642 H 0.42662 0.60088 0.41493 0.0
H643 H 0.46144 0.5979 0.41352 0.0
C644 C 0.57766 0.40922 0.65844 0.0
C645 C 0.5874 0.40909 0.63532 0.0
C646 C 0.55754 0.41071 0.65928 0.0
C647 C 0.51514 0.40107 0.61965 0.0
H648 H 0.48708 0.43054 0.66937 0.0
C649 C 0.43336 0.40998 0.6128 0.0
C650 C 0.42258 0.40765 0.63487 0.0
C651 C 0.45336 0.41179 0.61376 0.0
C652 C 0.49473 0.42211 0.6555 0.0
H653 H 0.58365 0.41146 0.59507 0.0
H654 H 0.54882 0.41433 0.59659 0.0
H655 H 0.52233 0.43092 0.66946 0.0
H656 H 0.42439 0.40607 0.6754 0.0
H657 H 0.45944 0.40903 0.67703 0.0
H658 H 0.48775 0.39211 0.60575 0.0
C659 C 0.55662 0.41283 0.61405 0.0
C660 C 0.51491 0.42233 0.65556 0.0
C661 C 0.57664 0.41129 0.61319 0.0
C662 C 0.43225 0.40784 0.65803 0.0
C663 C 0.45234 0.40961 0.65898 0.0
C664 C 0.49507 0.40085 0.61959 0.0
C665 C 0.54677 0.41212 0.63703 0.0
C666 C 0.52534 0.41192 0.63748 0.0
C667 C 0.46315 0.41123 0.63679 0.0
C668 C 0.48458 0.41147 0.63737 0.0
H669 H 0.5855 0.40755 0.67584 0.0
H670 H 0.5504 0.41004 0.67729 0.0
H671 H 0.52269 0.39249 0.60585 0.0
H672 H 0.4264 0.41011 0.59464 0.0
H673 H 0.4612 0.41344 0.59634 0.0
C674 C 0.07826 0.59824 0.16489 0.0
C675 C 0.08692 0.59912 0.1411 0.0
C676 C 0.05837 0.59542 0.16723 0.0
C677 C 0.01515 0.57919 0.13198 0.0
H678 H 0.98743 0.61347 0.17653 0.0
C679 C 0.93498 0.59685 0.11897 0.0
C680 C 0.92326 0.59928 0.1402 0.0
C681 C 0.95478 0.59394 0.12148 0.0
C682 C 0.99495 0.60354 0.16432 0.0
H683 H 0.08147 0.5971 0.10114 0.0
H684 H 0.047 0.5923 0.10521 0.0
H685 H 0.02255 0.6134 0.17677 0.0
H686 H 0.92317 0.60007 0.18083 0.0
H687 H 0.95784 0.59497 0.1852 0.0
H688 H 0.98757 0.5697 0.11906 0.0
C689 C 0.05552 0.59363 0.1221 0.0
C690 C 0.01509 0.6035 0.16446 0.0
C691 C 0.07532 0.59653 0.11977 0.0
C692 C 0.93178 0.59827 0.16408 0.0
C693 C 0.95165 0.59546 0.16659 0.0
C694 C 0.99504 0.57925 0.13183 0.0
C695 C 0.04674 0.59327 0.14582 0.0
C696 C 0.02543 0.59164 0.14788 0.0
C697 C 0.9634 0.59343 0.14529 0.0
C698 C 0.98469 0.59174 0.14759 0.0
H699 H 0.08677 0.60016 0.18171 0.0
H700 H 0.05206 0.59504 0.18578 0.0
H701 H 0.02267 0.5696 0.11932 0.0
H702 H 0.92893 0.59752 0.10028 0.0
H703 H 0.96341 0.5927 0.10467 0.0
C704 C 0.17286 0.55932 0.06962 0.0
C705 C 0.16059 0.57423 0.06163 0.0
C706 C 0.17559 0.54293 0.05468 0.0
C707 C 0.14882 0.51399 0.01058 0.0
H708 H 0.19719 0.48965 0.99272 0.0
C709 C 0.15133 0.43752 0.97085 0.0
C710 C 0.16028 0.43582 0.94733 0.0
C711 C 0.15386 0.45404 0.98537 0.0
C712 C 0.18362 0.49634 0.99762 0.0
H713 H 0.14236 0.58402 0.03114 0.0
H714 H 0.14689 0.55539 0.00548 0.0
H715 H 0.19731 0.52014 0.01629 0.0
H716 H 0.17986 0.44968 0.92131 0.0
H717 H 0.18456 0.47855 0.94712 0.0
H718 H 0.13506 0.49022 0.99245 0.0
C719 C 0.15438 0.55638 0.02324 0.0
C720 C 0.18369 0.51368 0.01114 0.0
C721 C 0.15186 0.5728 0.03794 0.0
C722 C 0.17273 0.45057 0.93932 0.0
C723 C 0.17547 0.46706 0.95408 0.0
C724 C 0.14875 0.49658 0.99757 0.0
C725 C 0.16589 0.54108 0.03171 0.0
C726 C 0.16626 0.52271 0.01756 0.0
C727 C 0.1656 0.46915 0.9769 0.0
C728 C 0.16612 0.48758 0.99091 0.0
H729 H 0.17981 0.55999 0.08776 0.0
H730 H 0.18449 0.53129 0.06166 0.0
H731 H 0.13518 0.52055 0.01549 0.0
H732 H 0.14168 0.42644 0.97765 0.0
H733 H 0.14623 0.45523 1.00301 0.0
C734 C 0.70472 0.91984 0.32441 0.0
C735 C 0.68657 0.91604 0.3139 0.0
C736 C 0.72068 0.92323 0.309 0.0
C737 C 0.73707 0.91392 0.24376 0.0
H738 H 0.78128 0.94401 0.26459 0.0
C739 C 0.80464 0.92092 0.1817 0.0
C740 C 0.82183 0.91574 0.19385 0.0
C741 C 0.78791 0.92447 0.19555 0.0
C742 C 0.769 0.93559 0.25854 0.0
H743 H 0.67062 0.91415 0.27912 0.0
H744 H 0.69813 0.92097 0.2523 0.0
H745 H 0.75202 0.94434 0.29 0.0
H746 H 0.83522 0.9113 0.23011 0.0
H747 H 0.80608 0.91784 0.25425 0.0
H748 H 0.75408 0.90527 0.21228 0.0
C749 C 0.70033 0.92056 0.27237 0.0
C750 C 0.75225 0.93567 0.27315 0.0
C751 C 0.68447 0.91683 0.28776 0.0
C752 C 0.82219 0.91522 0.22018 0.0
C753 C 0.80553 0.91904 0.23403 0.0
C754 C 0.75369 0.91408 0.22901 0.0
C755 C 0.7188 0.92321 0.28271 0.0
C756 C 0.73613 0.92458 0.26618 0.0
C757 C 0.7881 0.92322 0.22184 0.0
C758 C 0.76993 0.92468 0.23642 0.0
H759 H 0.70681 0.91921 0.3445 0.0
H760 H 0.73462 0.92498 0.31776 0.0
H761 H 0.72523 0.90484 0.23794 0.0
H762 H 0.80389 0.92142 0.16144 0.0
H763 H 0.77469 0.92781 0.18568 0.0
C764 C 0.34476 0.43748 0.53961 0.0
C765 C 0.3441 0.43789 0.56594 0.0
C766 C 0.34103 0.45412 0.52566 0.0
C767 C 0.34615 0.50596 0.53062 0.0
H768 H 0.31636 0.50773 0.46925 0.0
C769 C 0.34386 0.57528 0.47195 0.0
C770 C 0.34475 0.57324 0.44581 0.0
C771 C 0.34009 0.55938 0.48726 0.0
C772 C 0.32491 0.50747 0.4862 0.0
H773 H 0.33823 0.45592 0.59821 0.0
H774 H 0.332 0.48507 0.5738 0.0
H775 H 0.3164 0.47846 0.49468 0.0
H776 H 0.34175 0.55306 0.41512 0.0
H777 H 0.33592 0.52517 0.44173 0.0
H778 H 0.35557 0.5344 0.52179 0.0
C779 C 0.33538 0.47183 0.56401 0.0
C780 C 0.32481 0.49071 0.50083 0.0
C781 C 0.33884 0.45511 0.57797 0.0
C782 C 0.34105 0.55511 0.43522 0.0
C783 C 0.33762 0.5391 0.45055 0.0
C784 C 0.34649 0.52258 0.51586 0.0
C785 C 0.33682 0.4716 0.53774 0.0
C786 C 0.33555 0.48975 0.5231 0.0
C787 C 0.3375 0.54093 0.47684 0.0
C788 C 0.33599 0.52356 0.49332 0.0
H789 H 0.34874 0.42443 0.52978 0.0
H790 H 0.34237 0.45353 0.50545 0.0
H791 H 0.35484 0.50554 0.54747 0.0
H792 H 0.34646 0.58913 0.48066 0.0
H793 H 0.33958 0.56154 0.50733 0.0
C794 C 0.68462 0.0938 0.72153 0.0
C795 C 0.68665 0.09478 0.69539 0.0
C796 C 0.70057 0.09021 0.73681 0.0
C797 C 0.75273 0.07591 0.73561 0.0
H798 H 0.7541 0.10551 0.79718 0.0
C799 C 0.82224 0.09695 0.78931 0.0
C800 C 0.82185 0.09583 0.81561 0.0
C801 C 0.8057 0.09303 0.77527 0.0
C802 C 0.75384 0.09693 0.78023 0.0
H803 H 0.70686 0.09216 0.66468 0.0
H804 H 0.73482 0.08668 0.69125 0.0
H805 H 0.72524 0.10586 0.77152 0.0
H806 H 0.80399 0.08902 0.84773 0.0
H807 H 0.77499 0.08251 0.82317 0.0
H808 H 0.7819 0.06794 0.74397 0.0
C809 C 0.72087 0.08813 0.70009 0.0
C810 C 0.73722 0.09703 0.76549 0.0
C811 C 0.70483 0.09136 0.68478 0.0
C812 C 0.80477 0.08998 0.8275 0.0
C813 C 0.78815 0.08635 0.81347 0.0
C814 C 0.76949 0.07607 0.75022 0.0
C815 C 0.71905 0.08793 0.72638 0.0
C816 C 0.73643 0.08665 0.74284 0.0
C817 C 0.78835 0.0882 0.78725 0.0
C818 C 0.77024 0.08669 0.77259 0.0
H819 H 0.67074 0.09619 0.73024 0.0
H820 H 0.6984 0.08961 0.75688 0.0
H821 H 0.75264 0.06746 0.71858 0.0
H822 H 0.83519 0.10139 0.7796 0.0
H823 H 0.80625 0.09469 0.7551 0.0
C824 C 0.84331 0.45522 0.93467 0.0
C825 C 0.84693 0.43709 0.94534 0.0
C826 C 0.84006 0.4713 0.94994 0.0
C827 C 0.84905 0.48784 0.01531 0.0
H828 H 0.81957 0.5323 0.99384 0.0
C829 C 0.841 0.55512 0.07764 0.0
C830 C 0.84683 0.5723 0.06594 0.0
C831 C 0.83759 0.53852 0.06345 0.0
C832 C 0.82781 0.51995 1.00006 0.0
H833 H 0.84869 0.42129 0.98025 0.0
H834 H 0.84205 0.44897 0.00682 0.0
H835 H 0.81936 0.50304 0.9684 0.0
H836 H 0.85255 0.58583 0.03009 0.0
H837 H 0.8462 0.55693 0.0053 0.0
H838 H 0.85732 0.50476 0.04706 0.0
C839 C 0.84252 0.4511 0.98674 0.0
C840 C 0.82781 0.5032 0.98543 0.0
C841 C 0.84615 0.43513 0.9715 0.0
C842 C 0.84812 0.57281 0.03966 0.0
C843 C 0.84441 0.55629 0.02545 0.0
C844 C 0.84877 0.50445 0.03009 0.0
C845 C 0.84003 0.46955 0.97625 0.0
C846 C 0.83867 0.48697 0.99266 0.0
C847 C 0.83963 0.53884 0.03725 0.0
C848 C 0.83838 0.52076 0.02247 0.0
H849 H 0.84395 0.4572 0.91456 0.0
H850 H 0.83845 0.48522 0.94104 0.0
H851 H 0.85798 0.47594 0.02135 0.0
H852 H 0.83991 0.55424 0.09785 0.0
H853 H 0.83379 0.52529 0.073 0.0
C854 C 0.18745 0.09626 0.78821 0.0
C855 C 0.18774 0.09531 0.81452 0.0
C856 C 0.2041 0.09246 0.77432 0.0
C857 C 0.25587 0.09707 0.77959 0.0
H858 H 0.25767 0.06742 0.71812 0.0
C859 C 0.32527 0.09479 0.72118 0.0
C860 C 0.32329 0.09565 0.69503 0.0
C861 C 0.30934 0.09101 0.73642 0.0
C862 C 0.2574 0.07593 0.7351 0.0
H863 H 0.20554 0.08891 0.84684 0.0
H864 H 0.23472 0.08259 0.82254 0.0
H865 H 0.22833 0.06755 0.74338 0.0
H866 H 0.3032 0.09263 0.66425 0.0
H867 H 0.27526 0.08682 0.69074 0.0
H868 H 0.28435 0.10639 0.77095 0.0
C869 C 0.22157 0.08621 0.81271 0.0
C870 C 0.24061 0.07588 0.74963 0.0
C871 C 0.20484 0.08972 0.82659 0.0
C872 C 0.3052 0.09193 0.68436 0.0
C873 C 0.28916 0.08851 0.69962 0.0
C874 C 0.27252 0.09737 0.76492 0.0
C875 C 0.22145 0.08791 0.78647 0.0
C876 C 0.23964 0.08657 0.77194 0.0
C877 C 0.29092 0.08842 0.72593 0.0
C878 C 0.27352 0.08693 0.74233 0.0
H879 H 0.1745 0.1005 0.77835 0.0
H880 H 0.20361 0.094 0.75413 0.0
H881 H 0.25544 0.10571 0.79648 0.0
H882 H 0.33909 0.09741 0.72994 0.0
H883 H 0.31146 0.0905 0.7565 0.0
C884 C 0.67159 0.55503 0.43178 0.0
C885 C 0.66646 0.57226 0.44388 0.0
C886 C 0.67504 0.53828 0.44567 0.0
C887 C 0.68586 0.51923 0.50867 0.0
H888 H 0.65474 0.47576 0.4879 0.0
C889 C 0.66966 0.45483 0.57427 0.0
C890 C 0.66572 0.43674 0.56368 0.0
C891 C 0.67314 0.47083 0.55894 0.0
C892 C 0.66393 0.48751 0.49377 0.0
H893 H 0.66206 0.58571 0.48009 0.0
H894 H 0.66843 0.55654 0.50432 0.0
H895 H 0.65546 0.50466 0.46232 0.0
H896 H 0.66363 0.42091 0.52883 0.0
H897 H 0.67059 0.44848 0.50214 0.0
H898 H 0.69443 0.5021 0.54009 0.0
C899 C 0.66966 0.55597 0.4841 0.0
C900 C 0.66425 0.50416 0.47907 0.0
C901 C 0.66594 0.57265 0.47021 0.0
C902 C 0.66642 0.43473 0.53753 0.0
C903 C 0.67024 0.45062 0.52222 0.0
C904 C 0.68578 0.50244 0.52324 0.0
C905 C 0.67373 0.53849 0.47195 0.0
C906 C 0.67498 0.5203 0.48653 0.0
C907 C 0.67305 0.46904 0.53264 0.0
C908 C 0.67456 0.48642 0.51619 0.0
H909 H 0.67209 0.55423 0.41152 0.0
H910 H 0.6783 0.52503 0.43583 0.0
H911 H 0.69438 0.53143 0.51478 0.0
H912 H 0.6691 0.45686 0.59438 0.0
H913 H 0.675 0.48473 0.56777 0.0
C914 C 0.30583 0.92036 0.32683 0.0
C915 C 0.32293 0.91441 0.31507 0.0
C916 C 0.28924 0.92392 0.31269 0.0
C917 C 0.27063 0.93367 0.24923 0.0
H918 H 0.2263 0.90429 0.27122 0.0
C919 C 0.20538 0.91838 0.1846 0.0
C920 C 0.18726 0.91524 0.19552 0.0
C921 C 0.22159 0.92156 0.19965 0.0
C922 C 0.23831 0.913 0.26499 0.0
H923 H 0.33634 0.90864 0.27916 0.0
H924 H 0.30745 0.91521 0.25449 0.0
H925 H 0.25522 0.90472 0.29672 0.0
H926 H 0.17163 0.9143 0.23061 0.0
H927 H 0.19956 0.92079 0.25676 0.0
H928 H 0.25372 0.94208 0.21754 0.0
C929 C 0.30686 0.91699 0.27463 0.0
C930 C 0.25496 0.91315 0.27964 0.0
C931 C 0.32338 0.91316 0.28878 0.0
C932 C 0.18546 0.91646 0.22167 0.0
C933 C 0.20156 0.92 0.23667 0.0
C934 C 0.25383 0.93377 0.2347 0.0
C935 C 0.28949 0.9219 0.28649 0.0
C936 C 0.27138 0.92327 0.27179 0.0
C937 C 0.21998 0.92199 0.22597 0.0
C938 C 0.23749 0.92322 0.2422 0.0
H939 H 0.30499 0.92144 0.34704 0.0
H940 H 0.27607 0.92783 0.3223 0.0
H941 H 0.28306 0.9417 0.24281 0.0
H942 H 0.20723 0.9174 0.16449 0.0
H943 H 0.23549 0.9228 0.19061 0.0
C944 C 0.66396 0.07279 0.53932 0.0
C945 C 0.66485 0.07241 0.56563 0.0
C946 C 0.6679 0.05621 0.52534 0.0
C947 C 0.66383 1.00428 0.53046 0.0
H948 H 0.69328 1.003 0.46879 0.0
C949 C 0.66695 0.93496 0.47194 0.0
C950 C 0.66586 0.93696 0.44581 0.0
C951 C 0.67059 0.95093 0.48717 0.0
C952 C 0.68484 1.00312 0.48583 0.0
H953 H 0.67133 0.05452 0.59785 0.0
H954 H 0.67793 0.02548 0.57341 0.0
H955 H 0.69282 0.03231 0.49413 0.0
H956 H 0.66838 0.95716 0.41505 0.0
H957 H 0.67396 0.98515 0.44152 0.0
H958 H 0.65492 0.97566 0.52182 0.0
C959 C 0.67421 0.03865 0.56364 0.0
C960 C 0.68469 0.0199 0.5004 0.0
C961 C 0.67054 0.0553 0.57761 0.0
C962 C 0.66925 0.95514 0.43514 0.0
C963 C 0.67254 0.97121 0.45039 0.0
C964 C 0.66374 0.98764 0.51576 0.0
C965 C 0.67256 0.03883 0.53739 0.0
C966 C 0.67407 0.02069 0.52278 0.0
C967 C 0.67282 0.96941 0.47669 0.0
C968 C 0.67411 0.98682 0.49311 0.0
H969 H 0.65964 0.08576 0.52952 0.0
H970 H 0.66639 0.05676 0.50515 0.0
H971 H 0.65525 1.00456 0.5474 0.0
H972 H 0.66459 0.92108 0.48071 0.0
H973 H 0.67124 0.94879 0.50724 0.0
C974 C 0.32585 0.41436 0.72224 0.0
C975 C 0.32376 0.41389 0.69608 0.0
C976 C 0.31002 0.41811 0.73766 0.0
C977 C 0.25825 0.43384 0.73695 0.0
H978 H 0.25603 0.40313 0.79757 0.0
C979 C 0.18811 0.41316 0.78925 0.0
C980 C 0.1883 0.41374 0.81558 0.0
C981 C 0.20483 0.41704 0.77556 0.0
C982 C 0.25654 0.41203 0.7809 0.0
H983 H 0.30359 0.4176 0.66551 0.0
H984 H 0.27583 0.42337 0.6923 0.0
H985 H 0.28493 0.40257 0.772 0.0
H986 H 0.20601 0.41955 0.84816 0.0
H987 H 0.23535 0.426 0.82418 0.0
H988 H 0.22926 0.44234 0.74544 0.0
C989 C 0.28974 0.42139 0.70106 0.0
C990 C 0.27318 0.4118 0.76621 0.0
C991 C 0.30567 0.41799 0.68562 0.0
C992 C 0.20539 0.41903 0.82789 0.0
C993 C 0.2222 0.42261 0.8142 0.0
C994 C 0.24147 0.43381 0.75149 0.0
C995 C 0.29159 0.42109 0.72735 0.0
C996 C 0.27426 0.42256 0.74387 0.0
C997 C 0.22217 0.42131 0.78791 0.0
C998 C 0.2404 0.42278 0.77351 0.0
H999 H 0.33966 0.41144 0.73085 0.0
H1000 H 0.31221 0.4183 0.75774 0.0
H1001 H 0.25859 0.4426 0.72018 0.0
H1002 H 0.17516 0.40916 0.77921 0.0
H1003 H 0.20441 0.41581 0.75533 0.0
C1004 C 0.83995 0.05451 0.93162 0.0
C1005 C 0.8451 0.07178 0.94361 0.0
C1006 C 0.8367 0.03776 0.94559 0.0
C1007 C 0.82613 0.01876 0.00857 0.0
H1008 H 0.85771 0.97552 0.98817 0.0
C1009 C 0.84227 0.95455 0.07451 0.0
C1010 C 0.84654 0.9365 0.06404 0.0
C1011 C 0.83882 0.9705 0.05909 0.0
C1012 C 0.8484 0.98719 0.99394 0.0
H1013 H 0.84978 0.08529 0.97973 0.0
H1014 H 0.84371 0.05613 1.00411 0.0
H1015 H 0.85683 1.00436 0.96247 0.0
H1016 H 0.84924 0.92067 0.02926 0.0
H1017 H 0.84227 0.94812 1.00238 0.0
H1018 H 0.81753 1.00161 0.03996 0.0
C1019 C 0.84233 0.05553 0.98391 0.0
C1020 C 0.84798 1.00381 0.97917 0.0
C1021 C 0.84588 0.0722 0.96993 0.0
C1022 C 0.84619 0.93446 0.03788 0.0
C1023 C 0.84237 0.95029 0.02246 0.0
C1024 C 0.82628 1.00199 0.02318 0.0
C1025 C 0.83821 0.03802 0.97185 0.0
C1026 C 0.83708 0.01986 0.9865 0.0
C1027 C 0.83923 0.96869 0.03279 0.0
C1028 C 0.83766 0.98605 0.01629 0.0
H1029 H 0.83927 0.05371 0.91138 0.0
H1030 H 0.83342 0.02449 0.93584 0.0
H1031 H 0.81749 0.0309 0.01457 0.0
H1032 H 0.84256 0.9566 0.09463 0.0
H1033 H 0.8367 0.98438 0.06787 0.0
C1034 C 0.20555 0.59172 0.1852 0.0
C1035 C 0.18745 0.59496 0.19612 0.0
C1036 C 0.22174 0.58841 0.20024 0.0
C1037 C 0.23848 0.59679 0.26559 0.0
H1038 H 0.28306 0.56783 0.24344 0.0
C1039 C 0.30599 0.5893 0.32739 0.0
C1040 C 0.3231 0.59513 0.31557 0.0
C1041 C 0.28938 0.58573 0.3133 0.0
C1042 C 0.27068 0.57593 0.24986 0.0
H1043 H 0.17181 0.59592 0.2312 0.0
H1044 H 0.1997 0.58919 0.25735 0.0
H1045 H 0.25372 0.56763 0.21816 0.0
H1046 H 0.33652 0.60066 0.27959 0.0
H1047 H 0.30759 0.5941 0.255 0.0
H1048 H 0.25544 0.60498 0.29732 0.0
C1049 C 0.2017 0.59002 0.23727 0.0
C1050 C 0.25388 0.57593 0.23532 0.0
C1051 C 0.18563 0.59369 0.22226 0.0
C1052 C 0.32354 0.59624 0.28927 0.0
C1053 C 0.30701 0.5924 0.27516 0.0
C1054 C 0.25513 0.59654 0.28025 0.0
C1055 C 0.22012 0.58794 0.22656 0.0
C1056 C 0.23761 0.58659 0.24281 0.0
C1057 C 0.28961 0.58764 0.28708 0.0
C1058 C 0.27149 0.58633 0.27241 0.0
H1059 H 0.20741 0.59273 0.16509 0.0
H1060 H 0.23562 0.58709 0.19122 0.0
H1061 H 0.22652 0.60557 0.27181 0.0
H1062 H 0.30516 0.58834 0.34762 0.0
H1063 H 0.2762 0.58193 0.32296 0.0
C1064 C 0.34484 0.0752 0.53725 0.0
C1065 C 0.34563 0.07321 0.5634 0.0
C1066 C 0.34104 0.05928 0.522 0.0
C1067 C 0.32566 0.00742 0.5232 0.0
H1068 H 0.35568 0.00533 0.46202 0.0
C1069 C 0.34528 0.93735 0.46977 0.0
C1070 C 0.34453 0.9378 0.44345 0.0
C1071 C 0.34165 0.95399 0.48376 0.0
C1072 C 0.34698 0.0058 0.47885 0.0
H1073 H 0.34243 0.05312 0.59418 0.0
H1074 H 0.33655 0.02519 0.56766 0.0
H1075 H 0.35649 0.03419 0.48764 0.0
H1076 H 0.33864 0.95589 0.41123 0.0
H1077 H 0.3326 0.98503 0.4357 0.0
H1078 H 0.31706 0.97844 0.51476 0.0
C1079 C 0.33834 0.0391 0.55879 0.0
C1080 C 0.34735 0.02242 0.49357 0.0
C1081 C 0.34179 0.05512 0.57407 0.0
C1082 C 0.33931 0.95505 0.43147 0.0
C1083 C 0.33595 0.97177 0.44546 0.0
C1084 C 0.32553 0.99065 0.50861 0.0
C1085 C 0.33833 0.04086 0.53249 0.0
C1086 C 0.33681 0.02347 0.51608 0.0
C1087 C 0.33746 0.97149 0.47172 0.0
C1088 C 0.33629 0.98964 0.48637 0.0
H1089 H 0.34755 0.08901 0.5285 0.0
H1090 H 0.3406 0.06141 0.50192 0.0
H1091 H 0.31708 0.00773 0.54012 0.0
H1092 H 0.34923 0.92427 0.47956 0.0
H1093 H 0.34303 0.95337 0.50396 0.0
C1094 C 0.82226 0.59496 0.22034 0.0
C1095 C 0.82192 0.59434 0.19401 0.0
C1096 C 0.80559 0.59118 0.23419 0.0
C1097 C 0.7538 0.59622 0.22914 0.0
H1098 H 0.75198 0.56591 0.2901 0.0
C1099 C 0.68457 0.59375 0.28789 0.0
C1100 C 0.68667 0.59444 0.31403 0.0
C1101 C 0.7004 0.58998 0.27249 0.0
C1102 C 0.75226 0.5746 0.27326 0.0
H1103 H 0.804 0.58853 0.16162 0.0
H1104 H 0.77479 0.58224 0.18586 0.0
H1105 H 0.78126 0.56616 0.26473 0.0
H1106 H 0.70689 0.59108 0.34461 0.0
H1107 H 0.73467 0.58526 0.31786 0.0
H1108 H 0.72538 0.60557 0.23804 0.0
C1109 C 0.788 0.58561 0.19572 0.0
C1110 C 0.76902 0.57463 0.25867 0.0
C1111 C 0.80474 0.58911 0.18187 0.0
C1112 C 0.70479 0.59052 0.32452 0.0
C1113 C 0.72073 0.5871 0.3091 0.0
C1114 C 0.73718 0.59643 0.24387 0.0
C1115 C 0.78817 0.58696 0.222 0.0
C1116 C 0.77 0.58556 0.23656 0.0
C1117 C 0.71886 0.5872 0.28281 0.0
C1118 C 0.73618 0.58576 0.26628 0.0
H1119 H 0.83528 0.59892 0.23024 0.0
H1120 H 0.80612 0.59245 0.2544 0.0
H1121 H 0.75424 0.60504 0.2124 0.0
H1122 H 0.67072 0.59653 0.27926 0.0
H1123 H 0.6982 0.58964 0.25242 0.0
C1124 C 0.15511 0.93808 0.03824 0.0
C1125 C 0.16282 0.93618 0.06246 0.0
C1126 C 0.15928 0.95422 0.0236 0.0
C1127 C 0.17485 0.00495 0.03004 0.0
H1128 H 0.17387 1.00276 0.9575 0.0
C1129 C 0.15621 0.07103 0.96995 0.0
C1130 C 0.16375 0.07281 0.94563 0.0
C1131 C 0.16013 0.05476 0.98447 0.0
C1132 C 0.17454 1.00371 0.97772 0.0
H1133 H 0.18178 0.94934 0.08978 0.0
H1134 H 0.18954 0.97731 0.06391 0.0
H1135 H 0.17441 0.97305 0.98152 0.0
H1136 H 0.18214 0.05928 0.91796 0.0
H1137 H 0.18947 0.03106 0.94359 0.0
H1138 H 0.17532 0.0356 0.02624 0.0
C1139 C 0.17984 0.96653 0.05647 0.0
C1140 C 0.17455 0.9866 0.99156 0.0
C1141 C 0.17552 0.95041 0.07125 0.0
C1142 C 0.17602 0.0583 0.93658 0.0
C1143 C 0.1801 0.04204 0.95123 0.0
C1144 C 0.17506 0.02206 0.0162 0.0
C1145 C 0.17144 0.96886 0.03264 0.0
C1146 C 0.17413 0.98697 0.01792 0.0
C1147 C 0.17188 0.03987 0.97519 0.0
C1148 C 0.17434 0.0217 0.98985 0.0
H1149 H 0.14521 0.92744 0.03089 0.0
H1150 H 0.15224 0.95555 0.00558 0.0
H1151 H 0.17442 0.00591 0.05027 0.0
H1152 H 0.14664 0.08188 0.9775 0.0
H1153 H 0.15324 0.05355 1.00259 0.0
C1154 C 0.68715 0.41525 0.72006 0.0
C1155 C 0.68764 0.41594 0.69373 0.0
C1156 C 0.70378 0.41884 0.73409 0.0
C1157 C 0.75551 0.41313 0.72926 0.0
H1158 H 0.75768 0.44305 0.7905 0.0
C1159 C 0.82493 0.4148 0.78756 0.0
C1160 C 0.82299 0.41409 0.81372 0.0
C1161 C 0.80902 0.4187 0.77234 0.0
C1162 C 0.7573 0.43446 0.77358 0.0
H1163 H 0.70579 0.42174 0.66155 0.0
H1164 H 0.7349 0.42771 0.68609 0.0
H1165 H 0.72839 0.44329 0.76512 0.0
H1166 H 0.803 0.41752 0.84454 0.0
H1167 H 0.77507 0.42354 0.81807 0.0
H1168 H 0.78381 0.40339 0.73807 0.0
C1169 C 0.72161 0.42443 0.69581 0.0
C1170 C 0.74054 0.43472 0.75899 0.0
C1171 C 0.70492 0.42112 0.68179 0.0
C1172 C 0.80496 0.41809 0.82442 0.0
C1173 C 0.78894 0.42162 0.80917 0.0
C1174 C 0.77212 0.41263 0.74399 0.0
C1175 C 0.7213 0.42293 0.72207 0.0
C1176 C 0.73945 0.42396 0.73675 0.0
C1177 C 0.79065 0.42156 0.78286 0.0
C1178 C 0.77326 0.42318 0.76647 0.0
H1179 H 0.67405 0.41133 0.72982 0.0
H1180 H 0.70313 0.41747 0.75428 0.0
H1181 H 0.75497 0.40442 0.71244 0.0
H1182 H 0.8387 0.41197 0.77878 0.0
H1183 H 0.81112 0.41908 0.75225 0.0
loop_
_geom_bond_atom_site_label_1
_geom_bond_atom_site_label_2
_geom_bond_distance
_geom_bond_site_symmetry_2
_ccdc_geom_bond_type
O0 Cd1 2.223 . S
O0 C8 1.315 . S
Cd1 O0 2.223 . S
Cd1 O4 2.297 . S
Cd1 O5 2.439 . S
Cd1 O11 2.240 . S
Cd2 O3 2.240 . S
Cd2 O10 2.223 . S
Cd2 O12 2.297 . S
Cd2 O13 2.439 . S
O3 Cd2 2.240 . S
O3 C8 1.279 . S
O4 Cd1 2.297 . S
O4 C6 1.247 . S
O5 Cd1 2.439 . S
O5 C6 1.208 . S
C6 O4 1.247 . S
C6 O5 1.208 . S
C7 O12 1.247 . S
C7 O13 1.208 . S
C8 O0 1.315 . S
C8 O3 1.279 . S
C9 O10 1.315 . S
C9 O11 1.279 . S
O10 Cd2 2.223 . S
O10 C9 1.315 . S
O11 Cd1 2.240 . S
O11 C9 1.279 . S
O12 Cd2 2.297 . S
O12 C7 1.247 . S
O13 Cd2 2.439 . S
O13 C7 1.208 . S
O14 Cd15 2.223 . S
O14 C22 1.315 . S
Cd15 O14 2.223 . S
Cd15 O18 2.297 . S
Cd15 O19 2.439 . S
Cd15 O25 2.240 . S
Cd16 O17 2.240 . S
Cd16 O24 2.223 . S
Cd16 O26 2.297 . S
Cd16 O27 2.439 . S
O17 Cd16 2.240 . S
O17 C22 1.279 . S
O18 Cd15 2.297 . S
O18 C20 1.247 . S
O19 Cd15 2.439 . S
O19 C20 1.208 . S
C20 O18 1.247 . S
C20 O19 1.208 . S
C21 O26 1.247 . S
C21 O27 1.208 . S
C22 O14 1.315 . S
C22 O17 1.279 . S
C23 O24 1.315 . S
C23 O25 1.279 . S
O24 Cd16 2.223 . S
O24 C23 1.315 . S
O25 Cd15 2.240 . S
O25 C23 1.279 . S
O26 Cd16 2.297 . S
O26 C21 1.247 . S
O27 Cd16 2.439 . S
O27 C21 1.208 . S
O28 Cd29 2.223 . S
O28 C36 1.315 . S
Cd29 O28 2.223 . S
Cd29 O32 2.297 . S
Cd29 O33 2.439 . S
Cd29 O39 2.240 . S
Cd30 O31 2.240 . S
Cd30 O38 2.223 . S
Cd30 O40 2.297 . S
Cd30 O41 2.439 . S
O31 Cd30 2.240 . S
O31 C36 1.279 . S
O32 Cd29 2.297 . S
O32 C34 1.247 . S
O33 Cd29 2.439 . S
O33 C34 1.208 . S
C34 O32 1.247 . S
C34 O33 1.208 . S
C35 O40 1.247 . S
C35 O41 1.208 . S
C36 O28 1.315 . S
C36 O31 1.279 . S
C37 O38 1.315 . S
C37 O39 1.279 . S
O38 Cd30 2.223 . S
O38 C37 1.315 . S
O39 Cd29 2.240 . S
O39 C37 1.279 . S
O40 Cd30 2.297 . S
O40 C35 1.247 . S
O41 Cd30 2.439 . S
O41 C35 1.208 . S
O42 Cd43 2.223 . S
O42 C50 1.315 . S
Cd43 O42 2.223 . S
Cd43 O46 2.297 . S
Cd43 O47 2.439 . S
Cd43 O53 2.240 . S
Cd44 O45 2.240 . S
Cd44 O52 2.223 . S
Cd44 O54 2.297 . S
Cd44 O55 2.439 . S
O45 Cd44 2.240 . S
O45 C50 1.279 . S
O46 Cd43 2.297 . S
O46 C48 1.247 . S
O47 Cd43 2.439 . S
O47 C48 1.208 . S
C48 O46 1.247 . S
C48 O47 1.208 . S
C49 O54 1.247 . S
C49 O55 1.208 . S
C50 O42 1.315 . S
C50 O45 1.279 . S
C51 O52 1.315 . S
C51 O53 1.279 . S
O52 Cd44 2.223 . S
O52 C51 1.315 . S
O53 Cd43 2.240 . S
O53 C51 1.279 . S
O54 Cd44 2.297 . S
O54 C49 1.247 . S
O55 Cd44 2.439 . S
O55 C49 1.208 . S
O56 Cd57 2.223 . S
O56 C64 1.315 . S
Cd57 O56 2.223 . S
Cd57 O60 2.297 . S
Cd57 O61 2.439 . S
Cd57 O67 2.240 . S
Cd58 O59 2.240 . S
Cd58 O66 2.223 . S
Cd58 O68 2.297 . S
Cd58 O69 2.439 . S
O59 Cd58 2.240 . S
O59 C64 1.279 . S
O60 Cd57 2.297 . S
O60 C62 1.247 . S
O61 Cd57 2.439 . S
O61 C62 1.208 . S
C62 O60 1.247 . S
C62 O61 1.208 . S
C63 O68 1.247 . S
C63 O69 1.208 . S
C64 O56 1.315 . S
C64 O59 1.279 . S
C65 O66 1.315 . S
C65 O67 1.279 . S
O66 Cd58 2.223 . S
O66 C65 1.315 . S
O67 Cd57 2.240 . S
O67 C65 1.279 . S
O68 Cd58 2.297 . S
O68 C63 1.247 . S
O69 Cd58 2.439 . S
O69 C63 1.208 . S
O70 Cd71 2.223 . S
O70 C78 1.315 . S
Cd71 O70 2.223 . S
Cd71 O74 2.297 . S
Cd71 O75 2.439 . S
Cd71 O81 2.240 . S
Cd72 O73 2.240 . S
Cd72 O80 2.223 . S
Cd72 O82 2.297 . S
Cd72 O83 2.439 . S
O73 Cd72 2.240 . S
O73 C78 1.279 . S
O74 Cd71 2.297 . S
O74 C76 1.247 . S
O75 Cd71 2.439 . S
O75 C76 1.208 . S
C76 O74 1.247 . S
C76 O75 1.208 . S
C77 O82 1.247 . S
C77 O83 1.208 . S
C78 O70 1.315 . S
C78 O73 1.279 . S
C79 O80 1.315 . S
C79 O81 1.279 . S
O80 Cd72 2.223 . S
O80 C79 1.315 . S
O81 Cd71 2.240 . S
O81 C79 1.279 . S
O82 Cd72 2.297 . S
O82 C77 1.247 . S
O83 Cd72 2.439 . S
O83 C77 1.208 . S
O84 Cd85 2.223 . S
O84 C92 1.315 . S
Cd85 O84 2.223 . S
Cd85 O88 2.297 . S
Cd85 O89 2.439 . S
Cd85 O95 2.240 . S
Cd86 O87 2.240 . S
Cd86 O94 2.223 . S
Cd86 O96 2.297 . S
Cd86 O97 2.439 . S
O87 Cd86 2.240 . S
O87 C92 1.279 . S
O88 Cd85 2.297 . S
O88 C90 1.247 . S
O89 Cd85 2.439 . S
O89 C90 1.208 . S
C90 O88 1.247 . S
C90 O89 1.208 . S
C91 O96 1.247 . S
C91 O97 1.208 . S
C92 O84 1.315 . S
C92 O87 1.279 . S
C93 O94 1.315 . S
C93 O95 1.279 . S
O94 Cd86 2.223 . S
O94 C93 1.315 . S
O95 Cd85 2.240 . S
O95 C93 1.279 . S
O96 Cd86 2.297 . S
O96 C91 1.247 . S
O97 Cd86 2.439 . S
O97 C91 1.208 . S
O98 Cd99 2.223 . S
O98 C106 1.315 . S
Cd99 O98 2.223 . S
Cd99 O102 2.297 . S
Cd99 O103 2.439 . S
Cd99 O109 2.240 . S
Cd100 O101 2.240 . S
Cd100 O108 2.223 . S
Cd100 O110 2.297 . S
Cd100 O111 2.439 . S
O101 Cd100 2.240 . S
O101 C106 1.279 . S
O102 Cd99 2.297 . S
O102 C104 1.247 . S
O103 Cd99 2.439 . S
O103 C104 1.208 . S
C104 O102 1.247 . S
C104 O103 1.208 . S
C105 O110 1.247 . S
C105 O111 1.208 . S
C106 O98 1.315 . S
C106 O101 1.279 . S
C107 O108 1.315 . S
C107 O109 1.279 . S
O108 Cd100 2.223 . S
O108 C107 1.315 . S
O109 Cd99 2.240 . S
O109 C107 1.279 . S
O110 Cd100 2.297 . S
O110 C105 1.247 . S
O111 Cd100 2.439 . S
O111 C105 1.208 . S
O112 Cd113 2.223 . S
O112 C120 1.315 . S
Cd113 O112 2.223 . S
Cd113 O116 2.297 . S
Cd113 O117 2.439 . S
Cd113 O123 2.240 . S
Cd114 O115 2.240 . S
Cd114 O122 2.223 . S
Cd114 O124 2.297 . S
Cd114 O125 2.439 . S
O115 Cd114 2.240 . S
O115 C120 1.279 . S
O116 Cd113 2.297 . S
O116 C118 1.247 . S
O117 Cd113 2.439 . S
O117 C118 1.208 . S
C118 O116 1.247 . S
C118 O117 1.208 . S
C119 O124 1.247 . S
C119 O125 1.208 . S
C120 O112 1.315 . S
C120 O115 1.279 . S
C121 O122 1.315 . S
C121 O123 1.279 . S
O122 Cd114 2.223 . S
O122 C121 1.315 . S
O123 Cd113 2.240 . S
O123 C121 1.279 . S
O124 Cd114 2.297 . S
O124 C119 1.247 . S
O125 Cd114 2.439 . S
O125 C119 1.208 . S
O126 Cd127 2.223 . S
O126 C134 1.315 . S
Cd127 O126 2.223 . S
Cd127 O130 2.297 . S
Cd127 O131 2.439 . S
Cd127 O137 2.240 . S
Cd128 O129 2.240 . S
Cd128 O136 2.223 . S
Cd128 O138 2.297 . S
Cd128 O139 2.439 . S
O129 Cd128 2.240 . S
O129 C134 1.279 . S
O130 Cd127 2.297 . S
O130 C132 1.247 . S
O131 Cd127 2.439 . S
O131 C132 1.208 . S
C132 O130 1.247 . S
C132 O131 1.208 . S
C133 O138 1.247 . S
C133 O139 1.208 . S
C134 O126 1.315 . S
C134 O129 1.279 . S
C135 O136 1.315 . S
C135 O137 1.279 . S
O136 Cd128 2.223 . S
O136 C135 1.315 . S
O137 Cd127 2.240 . S
O137 C135 1.279 . S
O138 Cd128 2.297 . S
O138 C133 1.247 . S
O139 Cd128 2.439 . S
O139 C133 1.208 . S
O140 Cd141 2.223 . S
O140 C148 1.315 . S
Cd141 O140 2.223 . S
Cd141 O144 2.297 . S
Cd141 O145 2.439 . S
Cd141 O151 2.240 . S
Cd142 O143 2.240 . S
Cd142 O150 2.223 . S
Cd142 O152 2.297 . S
Cd142 O153 2.439 . S
O143 Cd142 2.240 . S
O143 C148 1.279 . S
O144 Cd141 2.297 . S
O144 C146 1.247 . S
O145 Cd141 2.439 . S
O145 C146 1.208 . S
C146 O144 1.247 . S
C146 O145 1.208 . S
C147 O152 1.247 . S
C147 O153 1.208 . S
C148 O140 1.315 . S
C148 O143 1.279 . S
C149 O150 1.315 . S
C149 O151 1.279 . S
O150 Cd142 2.223 . S
O150 C149 1.315 . S
O151 Cd141 2.240 . S
O151 C149 1.279 . S
O152 Cd142 2.297 . S
O152 C147 1.247 . S
O153 Cd142 2.439 . S
O153 C147 1.208 . S
O154 Cd155 2.223 . S
O154 C162 1.315 . S
Cd155 O154 2.223 . S
Cd155 O158 2.297 . S
Cd155 O159 2.439 . S
Cd155 O165 2.240 . S
Cd156 O157 2.240 . S
Cd156 O164 2.223 . S
Cd156 O166 2.297 . S
Cd156 O167 2.439 . S
O157 Cd156 2.240 . S
O157 C162 1.279 . S
O158 Cd155 2.297 . S
O158 C160 1.247 . S
O159 Cd155 2.439 . S
O159 C160 1.208 . S
C160 O158 1.247 . S
C160 O159 1.208 . S
C161 O166 1.247 . S
C161 O167 1.208 . S
C162 O154 1.315 . S
C162 O157 1.279 . S
C163 O164 1.315 . S
C163 O165 1.279 . S
O164 Cd156 2.223 . S
O164 C163 1.315 . S
O165 Cd155 2.240 . S
O165 C163 1.279 . S
O166 Cd156 2.297 . S
O166 C161 1.247 . S
O167 Cd156 2.439 . S
O167 C161 1.208 . S
O168 Cd169 2.223 . S
O168 C176 1.315 . S
Cd169 O168 2.223 . S
Cd169 O172 2.297 . S
Cd169 O173 2.439 . S
Cd169 O179 2.240 . S
Cd170 O171 2.240 . S
Cd170 O178 2.223 . S
Cd170 O180 2.297 . S
Cd170 O181 2.439 . S
O171 Cd170 2.240 . S
O171 C176 1.279 . S
O172 Cd169 2.297 . S
O172 C174 1.247 . S
O173 Cd169 2.439 . S
O173 C174 1.208 . S
C174 O172 1.247 . S
C174 O173 1.208 . S
C175 O180 1.247 . S
C175 O181 1.208 . S
C176 O168 1.315 . S
C176 O171 1.279 . S
C177 O178 1.315 . S
C177 O179 1.279 . S
O178 Cd170 2.223 . S
O178 C177 1.315 . S
O179 Cd169 2.240 . S
O179 C177 1.279 . S
O180 Cd170 2.297 . S
O180 C175 1.247 . S
O181 Cd170 2.439 . S
O181 C175 1.208 . S
O182 Cd183 2.223 . S
O182 C190 1.315 . S
Cd183 O182 2.223 . S
Cd183 O186 2.297 . S
Cd183 O187 2.439 . S
Cd183 O193 2.240 . S
Cd184 O185 2.240 . S
Cd184 O192 2.223 . S
Cd184 O194 2.297 . S
Cd184 O195 2.439 . S
O185 Cd184 2.240 . S
O185 C190 1.279 . S
O186 Cd183 2.297 . S
O186 C188 1.247 . S
O187 Cd183 2.439 . S
O187 C188 1.208 . S
C188 O186 1.247 . S
C188 O187 1.208 . S
C189 O194 1.247 . S
C189 O195 1.208 . S
C190 O182 1.315 . S
C190 O185 1.279 . S
C191 O192 1.315 . S
C191 O193 1.279 . S
O192 Cd184 2.223 . S
O192 C191 1.315 . S
O193 Cd183 2.240 . S
O193 C191 1.279 . S
O194 Cd184 2.297 . S
O194 C189 1.247 . S
O195 Cd184 2.439 . S
O195 C189 1.208 . S
O196 Cd197 2.223 . S
O196 C204 1.315 . S
Cd197 O196 2.223 . S
Cd197 O200 2.297 . S
Cd197 O201 2.439 . S
Cd197 O207 2.240 . S
Cd198 O199 2.240 . S
Cd198 O206 2.223 . S
Cd198 O208 2.297 . S
Cd198 O209 2.439 . S
O199 Cd198 2.240 . S
O199 C204 1.279 . S
O200 Cd197 2.297 . S
O200 C202 1.247 . S
O201 Cd197 2.439 . S
O201 C202 1.208 . S
C202 O200 1.247 . S
C202 O201 1.208 . S
C203 O208 1.247 . S
C203 O209 1.208 . S
C204 O196 1.315 . S
C204 O199 1.279 . S
C205 O206 1.315 . S
C205 O207 1.279 . S
O206 Cd198 2.223 . S
O206 C205 1.315 . S
O207 Cd197 2.240 . S
O207 C205 1.279 . S
O208 Cd198 2.297 . S
O208 C203 1.247 . S
O209 Cd198 2.439 . S
O209 C203 1.208 . S
O210 Cd211 2.223 . S
O210 C218 1.315 . S
Cd211 O210 2.223 . S
Cd211 O214 2.297 . S
Cd211 O215 2.439 . S
Cd211 O221 2.240 . S
Cd212 O213 2.240 . S
Cd212 O220 2.223 . S
Cd212 O222 2.297 . S
Cd212 O223 2.439 . S
O213 Cd212 2.240 . S
O213 C218 1.279 . S
O214 Cd211 2.297 . S
O214 C216 1.247 . S
O215 Cd211 2.439 . S
O215 C216 1.208 . S
C216 O214 1.247 . S
C216 O215 1.208 . S
C217 O222 1.247 . S
C217 O223 1.208 . S
C218 O210 1.315 . S
C218 O213 1.279 . S
C219 O220 1.315 . S
C219 O221 1.279 . S
O220 Cd212 2.223 . S
O220 C219 1.315 . S
O221 Cd211 2.240 . S
O221 C219 1.279 . S
O222 Cd212 2.297 . S
O222 C217 1.247 . S
O223 Cd212 2.439 . S
O223 C217 1.208 . S
C224 C225 1.349 . S
C224 C226 1.327 . S
C224 H249 0.950 . S
C225 C224 1.349 . S
C225 C241 1.349 . S
C226 C224 1.327 . S
C226 C245 1.429 . S
C226 H250 0.950 . S
C227 C244 1.574 . S
C227 C246 1.368 . S
C227 H251 0.949 . S
H228 C232 0.949 . S
C229 C230 1.349 . S
C229 C231 1.327 . S
C229 H252 0.950 . S
C230 C229 1.349 . S
C230 C242 1.349 . S
C231 C229 1.327 . S
C231 C247 1.429 . S
C231 H253 0.950 . S
C232 H228 0.949 . S
C232 C240 1.574 . S
C232 C248 1.368 . S
H233 C241 0.950 . S
H234 C239 0.950 . S
H235 C240 0.949 . S
H236 C242 0.950 . S
H237 C243 0.950 . S
H238 C244 0.949 . S
C239 H234 0.950 . S
C239 C241 1.327 . S
C239 C245 1.429 . S
C240 C232 1.574 . S
C240 H235 0.949 . S
C240 C246 1.368 . S
C241 C225 1.349 . S
C241 H233 0.950 . S
C241 C239 1.327 . S
C242 C230 1.349 . S
C242 H236 0.950 . S
C242 C243 1.327 . S
C243 H237 0.950 . S
C243 C242 1.327 . S
C243 C247 1.429 . S
C244 C227 1.574 . S
C244 H238 0.949 . S
C244 C248 1.368 . S
C245 C226 1.429 . S
C245 C239 1.429 . S
C245 C246 1.523 . S
C246 C227 1.368 . S
C246 C240 1.368 . S
C246 C245 1.523 . S
C247 C231 1.429 . S
C247 C243 1.429 . S
C247 C248 1.523 . S
C248 C232 1.368 . S
C248 C244 1.368 . S
C248 C247 1.523 . S
H249 C224 0.950 . S
H250 C226 0.950 . S
H251 C227 0.949 . S
H252 C229 0.950 . S
H253 C231 0.950 . S
C254 C255 1.349 . S
C254 C256 1.327 . S
C254 H279 0.950 . S
C255 C254 1.349 . S
C255 C271 1.349 . S
C256 C254 1.327 . S
C256 C275 1.429 . S
C256 H280 0.950 . S
C257 C274 1.574 . S
C257 C276 1.368 . S
C257 H281 0.949 . S
H258 C262 0.949 . S
C259 C260 1.349 . S
C259 C261 1.327 . S
C259 H282 0.950 . S
C260 C259 1.349 . S
C260 C272 1.349 . S
C261 C259 1.327 . S
C261 C277 1.429 . S
C261 H283 0.950 . S
C262 H258 0.949 . S
C262 C270 1.574 . S
C262 C278 1.368 . S
H263 C271 0.950 . S
H264 C269 0.950 . S
H265 C270 0.949 . S
H266 C272 0.950 . S
H267 C273 0.950 . S
H268 C274 0.949 . S
C269 H264 0.950 . S
C269 C271 1.327 . S
C269 C275 1.429 . S
C270 C262 1.574 . S
C270 H265 0.949 . S
C270 C276 1.368 . S
C271 C255 1.349 . S
C271 H263 0.950 . S
C271 C269 1.327 . S
C272 C260 1.349 . S
C272 H266 0.950 . S
C272 C273 1.327 . S
C273 H267 0.950 . S
C273 C272 1.327 . S
C273 C277 1.429 . S
C274 C257 1.574 . S
C274 H268 0.949 . S
C274 C278 1.368 . S
C275 C256 1.429 . S
C275 C269 1.429 . S
C275 C276 1.523 . S
C276 C257 1.368 . S
C276 C270 1.368 . S
C276 C275 1.523 . S
C277 C261 1.429 . S
C277 C273 1.429 . S
C277 C278 1.523 . S
C278 C262 1.368 . S
C278 C274 1.368 . S
C278 C277 1.523 . S
H279 C254 0.950 . S
H280 C256 0.950 . S
H281 C257 0.949 . S
H282 C259 0.950 . S
H283 C261 0.950 . S
C284 C285 1.349 . S
C284 C286 1.327 . S
C284 H309 0.950 . S
C285 C284 1.349 . S
C285 C301 1.349 . S
C286 C284 1.327 . S
C286 C305 1.429 . S
C286 H310 0.950 . S
C287 C304 1.574 . S
C287 C306 1.368 . S
C287 H311 0.949 . S
H288 C292 0.949 . S
C289 C290 1.349 . S
C289 C291 1.327 . S
C289 H312 0.950 . S
C290 C289 1.349 . S
C290 C302 1.349 . S
C291 C289 1.327 . S
C291 C307 1.429 . S
C291 H313 0.950 . S
C292 H288 0.949 . S
C292 C300 1.574 . S
C292 C308 1.368 . S
H293 C301 0.950 . S
H294 C299 0.950 . S
H295 C300 0.949 . S
H296 C302 0.950 . S
H297 C303 0.950 . S
H298 C304 0.949 . S
C299 H294 0.950 . S
C299 C301 1.327 . S
C299 C305 1.429 . S
C300 C292 1.574 . S
C300 H295 0.949 . S
C300 C306 1.368 . S
C301 C285 1.349 . S
C301 H293 0.950 . S
C301 C299 1.327 . S
C302 C290 1.349 . S
C302 H296 0.950 . S
C302 C303 1.327 . S
C303 H297 0.950 . S
C303 C302 1.327 . S
C303 C307 1.429 . S
C304 C287 1.574 . S
C304 H298 0.949 . S
C304 C308 1.368 . S
C305 C286 1.429 . S
C305 C299 1.429 . S
C305 C306 1.523 . S
C306 C287 1.368 . S
C306 C300 1.368 . S
C306 C305 1.523 . S
C307 C291 1.429 . S
C307 C303 1.429 . S
C307 C308 1.523 . S
C308 C292 1.368 . S
C308 C304 1.368 . S
C308 C307 1.523 . S
H309 C284 0.950 . S
H310 C286 0.950 . S
H311 C287 0.949 . S
H312 C289 0.950 . S
H313 C291 0.950 . S
C314 C315 1.349 . S
C314 C316 1.327 . S
C314 H339 0.950 . S
C315 C314 1.349 . S
C315 C331 1.349 . S
C316 C314 1.327 . S
C316 C335 1.429 . S
C316 H340 0.950 . S
C317 C334 1.574 1_455 S
C317 C336 1.368 . S
C317 H341 0.949 . S
H318 C322 0.949 . S
C319 C320 1.349 . S
C319 C321 1.327 . S
C319 H342 0.950 . S
C320 C319 1.349 . S
C320 C332 1.349 . S
C321 C319 1.327 . S
C321 C337 1.429 . S
C321 H343 0.950 . S
C322 H318 0.949 . S
C322 C330 1.574 1_655 S
C322 C338 1.368 . S
H323 C331 0.950 . S
H324 C329 0.950 . S
H325 C330 0.949 . S
H326 C332 0.950 . S
H327 C333 0.950 . S
H328 C334 0.949 . S
C329 H324 0.950 . S
C329 C331 1.327 . S
C329 C335 1.429 . S
C330 C322 1.574 1_455 S
C330 H325 0.949 . S
C330 C336 1.368 . S
C331 C315 1.349 . S
C331 H323 0.950 . S
C331 C329 1.327 . S
C332 C320 1.349 . S
C332 H326 0.950 . S
C332 C333 1.327 . S
C333 H327 0.950 . S
C333 C332 1.327 . S
C333 C337 1.429 . S
C334 C317 1.574 1_655 S
C334 H328 0.949 . S
C334 C338 1.368 . S
C335 C316 1.429 . S
C335 C329 1.429 . S
C335 C336 1.523 . S
C336 C317 1.368 . S
C336 C330 1.368 . S
C336 C335 1.523 . S
C337 C321 1.429 . S
C337 C333 1.429 . S
C337 C338 1.523 . S
C338 C322 1.368 . S
C338 C334 1.368 . S
C338 C337 1.523 . S
H339 C314 0.950 . S
H340 C316 0.950 . S
H341 C317 0.949 . S
H342 C319 0.950 . S
H343 C321 0.950 . S
C344 C345 1.349 . S
C344 C346 1.327 . S
C344 H369 0.950 . S
C345 C344 1.349 . S
C345 C361 1.349 . S
C346 C344 1.327 . S
C346 C365 1.429 . S
C346 H370 0.950 . S
C347 C364 1.574 . S
C347 C366 1.368 . S
C347 H371 0.949 . S
H348 C352 0.949 . S
C349 C350 1.349 . S
C349 C351 1.327 . S
C349 H372 0.950 . S
C350 C349 1.349 . S
C350 C362 1.349 . S
C351 C349 1.327 . S
C351 C367 1.429 . S
C351 H373 0.950 . S
C352 H348 0.949 . S
C352 C360 1.574 . S
C352 C368 1.368 . S
H353 C361 0.950 . S
H354 C359 0.950 . S
H355 C360 0.949 . S
H356 C362 0.950 . S
H357 C363 0.950 . S
H358 C364 0.949 . S
C359 H354 0.950 . S
C359 C361 1.327 . S
C359 C365 1.429 . S
C360 C352 1.574 . S
C360 H355 0.949 . S
C360 C366 1.368 . S
C361 C345 1.349 . S
C361 H353 0.950 . S
C361 C359 1.327 . S
C362 C350 1.349 . S
C362 H356 0.950 . S
C362 C363 1.327 . S
C363 H357 0.950 . S
C363 C362 1.327 . S
C363 C367 1.429 . S
C364 C347 1.574 . S
C364 H358 0.949 . S
C364 C368 1.368 . S
C365 C346 1.429 . S
C365 C359 1.429 . S
C365 C366 1.523 . S
C366 C347 1.368 . S
C366 C360 1.368 . S
C366 C365 1.523 . S
C367 C351 1.429 . S
C367 C363 1.429 . S
C367 C368 1.523 . S
C368 C352 1.368 . S
C368 C364 1.368 . S
C368 C367 1.523 . S
H369 C344 0.950 . S
H370 C346 0.950 . S
H371 C347 0.949 . S
H372 C349 0.950 . S
H373 C351 0.950 . S
C374 C375 1.349 . S
C374 C376 1.327 . S
C374 H399 0.950 . S
C375 C374 1.349 . S
C375 C391 1.349 . S
C376 C374 1.327 . S
C376 C395 1.429 . S
C376 H400 0.950 . S
C377 C394 1.574 1_655 S
C377 C396 1.368 . S
C377 H401 0.949 . S
H378 C382 0.949 . S
C379 C380 1.349 . S
C379 C381 1.327 . S
C379 H402 0.950 . S
C380 C379 1.349 . S
C380 C392 1.349 . S
C381 C379 1.327 . S
C381 C397 1.429 . S
C381 H403 0.950 . S
C382 H378 0.949 . S
C382 C390 1.574 1_455 S
C382 C398 1.368 . S
H383 C391 0.950 . S
H384 C389 0.950 . S
H385 C390 0.949 . S
H386 C392 0.950 . S
H387 C393 0.950 . S
H388 C394 0.949 . S
C389 H384 0.950 . S
C389 C391 1.327 . S
C389 C395 1.429 . S
C390 C382 1.574 1_655 S
C390 H385 0.949 . S
C390 C396 1.368 . S
C391 C375 1.349 . S
C391 H383 0.950 . S
C391 C389 1.327 . S
C392 C380 1.349 . S
C392 H386 0.950 . S
C392 C393 1.327 . S
C393 H387 0.950 . S
C393 C392 1.327 . S
C393 C397 1.429 . S
C394 C377 1.574 1_455 S
C394 H388 0.949 . S
C394 C398 1.368 . S
C395 C376 1.429 . S
C395 C389 1.429 . S
C395 C396 1.523 . S
C396 C377 1.368 . S
C396 C390 1.368 . S
C396 C395 1.523 . S
C397 C381 1.429 . S
C397 C393 1.429 . S
C397 C398 1.523 . S
C398 C382 1.368 . S
C398 C394 1.368 . S
C398 C397 1.523 . S
H399 C374 0.950 . S
H400 C376 0.950 . S
H401 C377 0.949 . S
H402 C379 0.950 . S
H403 C381 0.950 . S
C404 C405 1.349 . S
C404 C406 1.327 . S
C404 H429 0.950 . S
C405 C404 1.349 . S
C405 C421 1.349 . S
C406 C404 1.327 . S
C406 C425 1.429 . S
C406 H430 0.950 . S
C407 C424 1.574 . S
C407 C426 1.368 . S
C407 H431 0.949 . S
H408 C412 0.949 . S
C409 C410 1.349 . S
C409 C411 1.327 . S
C409 H432 0.950 . S
C410 C409 1.349 . S
C410 C422 1.349 . S
C411 C409 1.327 . S
C411 C427 1.429 . S
C411 H433 0.950 . S
C412 H408 0.949 . S
C412 C420 1.574 . S
C412 C428 1.368 . S
H413 C421 0.950 . S
H414 C419 0.950 . S
H415 C420 0.949 . S
H416 C422 0.950 . S
H417 C423 0.950 . S
H418 C424 0.949 . S
C419 H414 0.950 . S
C419 C421 1.327 . S
C419 C425 1.429 . S
C420 C412 1.574 . S
C420 H415 0.949 . S
C420 C426 1.368 . S
C421 C405 1.349 . S
C421 H413 0.950 . S
C421 C419 1.327 . S
C422 C410 1.349 . S
C422 H416 0.950 . S
C422 C423 1.327 . S
C423 H417 0.950 . S
C423 C422 1.327 . S
C423 C427 1.429 . S
C424 C407 1.574 . S
C424 H418 0.949 . S
C424 C428 1.368 . S
C425 C406 1.429 . S
C425 C419 1.429 . S
C425 C426 1.523 . S
C426 C407 1.368 . S
C426 C420 1.368 . S
C426 C425 1.523 . S
C427 C411 1.429 . S
C427 C423 1.429 . S
C427 C428 1.523 . S
C428 C412 1.368 . S
C428 C424 1.368 . S
C428 C427 1.523 . S
H429 C404 0.950 . S
H430 C406 0.950 . S
H431 C407 0.949 . S
H432 C409 0.950 . S
H433 C411 0.950 . S
C434 C435 1.349 . S
C434 C436 1.327 . S
C434 H459 0.950 . S
C435 C434 1.349 . S
C435 C451 1.349 . S
C436 C434 1.327 . S
C436 C455 1.429 . S
C436 H460 0.950 . S
C437 C454 1.574 . S
C437 C456 1.368 . S
C437 H461 0.949 . S
H438 C442 0.949 . S
C439 C440 1.349 . S
C439 C441 1.327 . S
C439 H462 0.950 . S
C440 C439 1.349 . S
C440 C452 1.349 . S
C441 C439 1.327 . S
C441 C457 1.429 . S
C441 H463 0.950 . S
C442 H438 0.949 . S
C442 C450 1.574 . S
C442 C458 1.368 . S
H443 C451 0.950 . S
H444 C449 0.950 . S
H445 C450 0.949 . S
H446 C452 0.950 . S
H447 C453 0.950 . S
H448 C454 0.949 . S
C449 H444 0.950 . S
C449 C451 1.327 . S
C449 C455 1.429 . S
C450 C442 1.574 . S
C450 H445 0.949 . S
C450 C456 1.368 . S
C451 C435 1.349 . S
C451 H443 0.950 . S
C451 C449 1.327 . S
C452 C440 1.349 . S
C452 H446 0.950 . S
C452 C453 1.327 . S
C453 H447 0.950 . S
C453 C452 1.327 . S
C453 C457 1.429 . S
C454 C437 1.574 . S
C454 H448 0.949 . S
C454 C458 1.368 . S
C455 C436 1.429 . S
C455 C449 1.429 . S
C455 C456 1.523 . S
C456 C437 1.368 . S
C456 C450 1.368 . S
C456 C455 1.523 . S
C457 C441 1.429 . S
C457 C453 1.429 . S
C457 C458 1.523 . S
C458 C442 1.368 . S
C458 C454 1.368 . S
C458 C457 1.523 . S
H459 C434 0.950 . S
H460 C436 0.950 . S
H461 C437 0.949 . S
H462 C439 0.950 . S
H463 C441 0.950 . S
C464 C465 1.349 . S
C464 C466 1.327 . S
C464 H489 0.950 . S
C465 C464 1.349 . S
C465 C481 1.349 . S
C466 C464 1.327 . S
C466 C485 1.429 . S
C466 H490 0.950 . S
C467 C484 1.574 . S
C467 C486 1.368 . S
C467 H491 0.949 . S
H468 C472 0.949 . S
C469 C470 1.349 . S
C469 C471 1.327 . S
C469 H492 0.950 . S
C470 C469 1.349 . S
C470 C482 1.349 . S
C471 C469 1.327 . S
C471 C487 1.429 . S
C471 H493 0.950 . S
C472 H468 0.949 . S
C472 C480 1.574 . S
C472 C488 1.368 . S
H473 C481 0.950 . S
H474 C479 0.950 . S
H475 C480 0.949 . S
H476 C482 0.950 . S
H477 C483 0.950 . S
H478 C484 0.949 . S
C479 H474 0.950 . S
C479 C481 1.327 . S
C479 C485 1.429 . S
C480 C472 1.574 . S
C480 H475 0.949 . S
C480 C486 1.368 . S
C481 C465 1.349 . S
C481 H473 0.950 . S
C481 C479 1.327 . S
C482 C470 1.349 . S
C482 H476 0.950 . S
C482 C483 1.327 . S
C483 H477 0.950 . S
C483 C482 1.327 . S
C483 C487 1.429 . S
C484 C467 1.574 . S
C484 H478 0.949 . S
C484 C488 1.368 . S
C485 C466 1.429 . S
C485 C479 1.429 . S
C485 C486 1.523 . S
C486 C467 1.368 . S
C486 C480 1.368 . S
C486 C485 1.523 . S
C487 C471 1.429 . S
C487 C483 1.429 . S
C487 C488 1.523 . S
C488 C472 1.368 . S
C488 C484 1.368 . S
C488 C487 1.523 . S
H489 C464 0.950 . S
H490 C466 0.950 . S
H491 C467 0.949 . S
H492 C469 0.950 . S
H493 C471 0.950 . S
C494 C495 1.349 . S
C494 C496 1.327 . S
C494 H519 0.950 . S
C495 C494 1.349 . S
C495 C511 1.349 . S
C496 C494 1.327 . S
C496 C515 1.429 . S
C496 H520 0.950 . S
C497 C514 1.574 . S
C497 C516 1.368 . S
C497 H521 0.949 . S
H498 C502 0.949 . S
C499 C500 1.349 . S
C499 C501 1.327 . S
C499 H522 0.950 . S
C500 C499 1.349 . S
C500 C512 1.349 . S
C501 C499 1.327 . S
C501 C517 1.429 . S
C501 H523 0.950 . S
C502 H498 0.949 . S
C502 C510 1.574 . S
C502 C518 1.368 . S
H503 C511 0.950 . S
H504 C509 0.950 . S
H505 C510 0.949 . S
H506 C512 0.950 . S
H507 C513 0.950 . S
H508 C514 0.949 . S
C509 H504 0.950 . S
C509 C511 1.327 . S
C509 C515 1.429 . S
C510 C502 1.574 . S
C510 H505 0.949 . S
C510 C516 1.368 . S
C511 C495 1.349 . S
C511 H503 0.950 . S
C511 C509 1.327 . S
C512 C500 1.349 . S
C512 H506 0.950 . S
C512 C513 1.327 . S
C513 H507 0.950 . S
C513 C512 1.327 . S
C513 C517 1.429 . S
C514 C497 1.574 . S
C514 H508 0.949 . S
C514 C518 1.368 . S
C515 C496 1.429 . S
C515 C509 1.429 . S
C515 C516 1.523 . S
C516 C497 1.368 . S
C516 C510 1.368 . S
C516 C515 1.523 . S
C517 C501 1.429 . S
C517 C513 1.429 . S
C517 C518 1.523 . S
C518 C502 1.368 . S
C518 C514 1.368 . S
C518 C517 1.523 . S
H519 C494 0.950 . S
H520 C496 0.950 . S
H521 C497 0.949 . S
H522 C499 0.950 . S
H523 C501 0.950 . S
C524 C525 1.349 . S
C524 C526 1.327 . S
C524 H549 0.950 . S
C525 C524 1.349 . S
C525 C541 1.349 . S
C526 C524 1.327 . S
C526 C545 1.429 . S
C526 H550 0.950 . S
C527 C544 1.574 . S
C527 C546 1.368 . S
C527 H551 0.949 . S
H528 C532 0.949 . S
C529 C530 1.349 . S
C529 C531 1.327 . S
C529 H552 0.950 . S
C530 C529 1.349 . S
C530 C542 1.349 . S
C531 C529 1.327 . S
C531 C547 1.429 . S
C531 H553 0.950 . S
C532 H528 0.949 . S
C532 C540 1.574 . S
C532 C548 1.368 . S
H533 C541 0.950 . S
H534 C539 0.950 . S
H535 C540 0.949 . S
H536 C542 0.950 . S
H537 C543 0.950 . S
H538 C544 0.949 . S
C539 H534 0.950 . S
C539 C541 1.327 . S
C539 C545 1.429 . S
C540 C532 1.574 . S
C540 H535 0.949 . S
C540 C546 1.368 . S
C541 C525 1.349 . S
C541 H533 0.950 . S
C541 C539 1.327 . S
C542 C530 1.349 . S
C542 H536 0.950 . S
C542 C543 1.327 . S
C543 H537 0.950 . S
C543 C542 1.327 . S
C543 C547 1.429 . S
C544 C527 1.574 . S
C544 H538 0.949 . S
C544 C548 1.368 . S
C545 C526 1.429 . S
C545 C539 1.429 . S
C545 C546 1.523 . S
C546 C527 1.368 . S
C546 C540 1.368 . S
C546 C545 1.523 . S
C547 C531 1.429 . S
C547 C543 1.429 . S
C547 C548 1.523 . S
C548 C532 1.368 . S
C548 C544 1.368 . S
C548 C547 1.523 . S
H549 C524 0.950 . S
H550 C526 0.950 . S
H551 C527 0.949 . S
H552 C529 0.950 . S
H553 C531 0.950 . S
C554 C555 1.349 . S
C554 C556 1.327 . S
C554 H579 0.950 . S
C555 C554 1.349 . S
C555 C571 1.349 . S
C556 C554 1.327 . S
C556 C575 1.429 . S
C556 H580 0.950 . S
C557 C574 1.574 . S
C557 C576 1.368 . S
C557 H581 0.949 . S
H558 C562 0.949 . S
C559 C560 1.349 . S
C559 C561 1.327 . S
C559 H582 0.950 . S
C560 C559 1.349 . S
C560 C572 1.349 . S
C561 C559 1.327 . S
C561 C577 1.429 . S
C561 H583 0.950 . S
C562 H558 0.949 . S
C562 C570 1.574 . S
C562 C578 1.368 . S
H563 C571 0.950 . S
H564 C569 0.950 . S
H565 C570 0.949 . S
H566 C572 0.950 . S
H567 C573 0.950 . S
H568 C574 0.949 . S
C569 H564 0.950 . S
C569 C571 1.327 . S
C569 C575 1.429 . S
C570 C562 1.574 . S
C570 H565 0.949 . S
C570 C576 1.368 . S
C571 C555 1.349 . S
C571 H563 0.950 . S
C571 C569 1.327 . S
C572 C560 1.349 . S
C572 H566 0.950 . S
C572 C573 1.327 . S
C573 H567 0.950 . S
C573 C572 1.327 . S
C573 C577 1.429 . S
C574 C557 1.574 . S
C574 H568 0.949 . S
C574 C578 1.368 . S
C575 C556 1.429 . S
C575 C569 1.429 . S
C575 C576 1.523 . S
C576 C557 1.368 . S
C576 C570 1.368 . S
C576 C575 1.523 . S
C577 C561 1.429 . S
C577 C573 1.429 . S
C577 C578 1.523 . S
C578 C562 1.368 . S
C578 C574 1.368 . S
C578 C577 1.523 . S
H579 C554 0.950 . S
H580 C556 0.950 . S
H581 C557 0.949 . S
H582 C559 0.950 . S
H583 C561 0.950 . S
C584 C585 1.349 . S
C584 C586 1.327 . S
C584 H609 0.950 . S
C585 C584 1.349 . S
C585 C601 1.349 . S
C586 C584 1.327 . S
C586 C605 1.429 . S
C586 H610 0.950 . S
C587 C604 1.574 1_455 S
C587 C606 1.368 . S
C587 H611 0.949 . S
H588 C592 0.949 . S
C589 C590 1.349 . S
C589 C591 1.327 . S
C589 H612 0.950 . S
C590 C589 1.349 . S
C590 C602 1.349 . S
C591 C589 1.327 . S
C591 C607 1.429 . S
C591 H613 0.950 . S
C592 H588 0.949 . S
C592 C600 1.574 1_655 S
C592 C608 1.368 . S
H593 C601 0.950 . S
H594 C599 0.950 . S
H595 C600 0.949 . S
H596 C602 0.950 . S
H597 C603 0.950 . S
H598 C604 0.949 . S
C599 H594 0.950 . S
C599 C601 1.327 . S
C599 C605 1.429 . S
C600 C592 1.574 1_455 S
C600 H595 0.949 . S
C600 C606 1.368 . S
C601 C585 1.349 . S
C601 H593 0.950 . S
C601 C599 1.327 . S
C602 C590 1.349 . S
C602 H596 0.950 . S
C602 C603 1.327 . S
C603 H597 0.950 . S
C603 C602 1.327 . S
C603 C607 1.429 . S
C604 C587 1.574 1_655 S
C604 H598 0.949 . S
C604 C608 1.368 . S
C605 C586 1.429 . S
C605 C599 1.429 . S
C605 C606 1.523 . S
C606 C587 1.368 . S
C606 C600 1.368 . S
C606 C605 1.523 . S
C607 C591 1.429 . S
C607 C603 1.429 . S
C607 C608 1.523 . S
C608 C592 1.368 . S
C608 C604 1.368 . S
C608 C607 1.523 . S
H609 C584 0.950 . S
H610 C586 0.950 . S
H611 C587 0.949 . S
H612 C589 0.950 . S
H613 C591 0.950 . S
C614 C615 1.349 . S
C614 C616 1.327 . S
C614 H639 0.950 . S
C615 C614 1.349 . S
C615 C631 1.349 . S
C616 C614 1.327 . S
C616 C635 1.429 . S
C616 H640 0.950 . S
C617 C634 1.574 . S
C617 C636 1.368 . S
C617 H641 0.949 . S
H618 C622 0.949 . S
C619 C620 1.349 . S
C619 C621 1.327 . S
C619 H642 0.950 . S
C620 C619 1.349 . S
C620 C632 1.349 . S
C621 C619 1.327 . S
C621 C637 1.429 . S
C621 H643 0.950 . S
C622 H618 0.949 . S
C622 C630 1.574 . S
C622 C638 1.368 . S
H623 C631 0.950 . S
H624 C629 0.950 . S
H625 C630 0.949 . S
H626 C632 0.950 . S
H627 C633 0.950 . S
H628 C634 0.949 . S
C629 H624 0.950 . S
C629 C631 1.327 . S
C629 C635 1.429 . S
C630 C622 1.574 . S
C630 H625 0.949 . S
C630 C636 1.368 . S
C631 C615 1.349 . S
C631 H623 0.950 . S
C631 C629 1.327 . S
C632 C620 1.349 . S
C632 H626 0.950 . S
C632 C633 1.327 . S
C633 H627 0.950 . S
C633 C632 1.327 . S
C633 C637 1.429 . S
C634 C617 1.574 . S
C634 H628 0.949 . S
C634 C638 1.368 . S
C635 C616 1.429 . S
C635 C629 1.429 . S
C635 C636 1.523 . S
C636 C617 1.368 . S
C636 C630 1.368 . S
C636 C635 1.523 . S
C637 C621 1.429 . S
C637 C633 1.429 . S
C637 C638 1.523 . S
C638 C622 1.368 . S
C638 C634 1.368 . S
C638 C637 1.523 . S
H639 C614 0.950 . S
H640 C616 0.950 . S
H641 C617 0.949 . S
H642 C619 0.950 . S
H643 C621 0.950 . S
C644 C645 1.349 . S
C644 C646 1.327 . S
C644 H669 0.950 . S
C645 C644 1.349 . S
C645 C661 1.349 . S
C646 C644 1.327 . S
C646 C665 1.429 . S
C646 H670 0.950 . S
C647 C664 1.574 . S
C647 C666 1.368 . S
C647 H671 0.949 . S
H648 C652 0.949 . S
C649 C650 1.349 . S
C649 C651 1.327 . S
C649 H672 0.950 . S
C650 C649 1.349 . S
C650 C662 1.349 . S
C651 C649 1.327 . S
C651 C667 1.429 . S
C651 H673 0.950 . S
C652 H648 0.949 . S
C652 C660 1.574 . S
C652 C668 1.368 . S
H653 C661 0.950 . S
H654 C659 0.950 . S
H655 C660 0.949 . S
H656 C662 0.950 . S
H657 C663 0.950 . S
H658 C664 0.949 . S
C659 H654 0.950 . S
C659 C661 1.327 . S
C659 C665 1.429 . S
C660 C652 1.574 . S
C660 H655 0.949 . S
C660 C666 1.368 . S
C661 C645 1.349 . S
C661 H653 0.950 . S
C661 C659 1.327 . S
C662 C650 1.349 . S
C662 H656 0.950 . S
C662 C663 1.327 . S
C663 H657 0.950 . S
C663 C662 1.327 . S
C663 C667 1.429 . S
C664 C647 1.574 . S
C664 H658 0.949 . S
C664 C668 1.368 . S
C665 C646 1.429 . S
C665 C659 1.429 . S
C665 C666 1.523 . S
C666 C647 1.368 . S
C666 C660 1.368 . S
C666 C665 1.523 . S
C667 C651 1.429 . S
C667 C663 1.429 . S
C667 C668 1.523 . S
C668 C652 1.368 . S
C668 C664 1.368 . S
C668 C667 1.523 . S
H669 C644 0.950 . S
H670 C646 0.950 . S
H671 C647 0.949 . S
H672 C649 0.950 . S
H673 C651 0.950 . S
C674 C675 1.349 . S
C674 C676 1.327 . S
C674 H699 0.950 . S
C675 C674 1.349 . S
C675 C691 1.349 . S
C676 C674 1.327 . S
C676 C695 1.429 . S
C676 H700 0.950 . S
C677 C694 1.574 1_455 S
C677 C696 1.368 . S
C677 H701 0.949 . S
H678 C682 0.949 . S
C679 C680 1.349 . S
C679 C681 1.327 . S
C679 H702 0.950 . S
C680 C679 1.349 . S
C680 C692 1.349 . S
C681 C679 1.327 . S
C681 C697 1.429 . S
C681 H703 0.950 . S
C682 H678 0.949 . S
C682 C690 1.574 1_655 S
C682 C698 1.368 . S
H683 C691 0.950 . S
H684 C689 0.950 . S
H685 C690 0.949 . S
H686 C692 0.950 . S
H687 C693 0.950 . S
H688 C694 0.949 . S
C689 H684 0.950 . S
C689 C691 1.327 . S
C689 C695 1.429 . S
C690 C682 1.574 1_455 S
C690 H685 0.949 . S
C690 C696 1.368 . S
C691 C675 1.349 . S
C691 H683 0.950 . S
C691 C689 1.327 . S
C692 C680 1.349 . S
C692 H686 0.950 . S
C692 C693 1.327 . S
C693 H687 0.950 . S
C693 C692 1.327 . S
C693 C697 1.429 . S
C694 C677 1.574 1_655 S
C694 H688 0.949 . S
C694 C698 1.368 . S
C695 C676 1.429 . S
C695 C689 1.429 . S
C695 C696 1.523 . S
C696 C677 1.368 . S
C696 C690 1.368 . S
C696 C695 1.523 . S
C697 C681 1.429 . S
C697 C693 1.429 . S
C697 C698 1.523 . S
C698 C682 1.368 . S
C698 C694 1.368 . S
C698 C697 1.523 . S
H699 C674 0.950 . S
H700 C676 0.950 . S
H701 C677 0.949 . S
H702 C679 0.950 . S
H703 C681 0.950 . S
C704 C705 1.349 . S
C704 C706 1.327 . S
C704 H729 0.950 . S
C705 C704 1.349 . S
C705 C721 1.349 . S
C706 C704 1.327 . S
C706 C725 1.429 . S
C706 H730 0.950 . S
C707 C724 1.574 1_554 S
C707 C726 1.368 . S
C707 H731 0.949 . S
H708 C712 0.949 . S
C709 C710 1.349 . S
C709 C711 1.327 . S
C709 H732 0.950 . S
C710 C709 1.349 . S
C710 C722 1.349 . S
C711 C709 1.327 . S
C711 C727 1.429 . S
C711 H733 0.950 . S
C712 H708 0.949 . S
C712 C720 1.574 1_556 S
C712 C728 1.368 . S
H713 C721 0.950 . S
H714 C719 0.950 . S
H715 C720 0.949 . S
H716 C722 0.950 . S
H717 C723 0.950 . S
H718 C724 0.949 . S
C719 H714 0.950 . S
C719 C721 1.327 . S
C719 C725 1.429 . S
C720 C712 1.574 1_554 S
C720 H715 0.949 . S
C720 C726 1.368 . S
C721 C705 1.349 . S
C721 H713 0.950 . S
C721 C719 1.327 . S
C722 C710 1.349 . S
C722 H716 0.950 . S
C722 C723 1.327 . S
C723 H717 0.950 . S
C723 C722 1.327 . S
C723 C727 1.429 . S
C724 C707 1.574 1_556 S
C724 H718 0.949 . S
C724 C728 1.368 . S
C725 C706 1.429 . S
C725 C719 1.429 . S
C725 C726 1.523 . S
C726 C707 1.368 . S
C726 C720 1.368 . S
C726 C725 1.523 . S
C727 C711 1.429 . S
C727 C723 1.429 . S
C727 C728 1.523 . S
C728 C712 1.368 . S
C728 C724 1.368 . S
C728 C727 1.523 . S
H729 C704 0.950 . S
H730 C706 0.950 . S
H731 C707 0.949 . S
H732 C709 0.950 . S
H733 C711 0.950 . S
C734 C735 1.349 . S
C734 C736 1.327 . S
C734 H759 0.950 . S
C735 C734 1.349 . S
C735 C751 1.349 . S
C736 C734 1.327 . S
C736 C755 1.429 . S
C736 H760 0.950 . S
C737 C754 1.574 . S
C737 C756 1.368 . S
C737 H761 0.949 . S
H738 C742 0.949 . S
C739 C740 1.349 . S
C739 C741 1.327 . S
C739 H762 0.950 . S
C740 C739 1.349 . S
C740 C752 1.349 . S
C741 C739 1.327 . S
C741 C757 1.429 . S
C741 H763 0.950 . S
C742 H738 0.949 . S
C742 C750 1.574 . S
C742 C758 1.368 . S
H743 C751 0.950 . S
H744 C749 0.950 . S
H745 C750 0.949 . S
H746 C752 0.950 . S
H747 C753 0.950 . S
H748 C754 0.949 . S
C749 H744 0.950 . S
C749 C751 1.327 . S
C749 C755 1.429 . S
C750 C742 1.574 . S
C750 H745 0.949 . S
C750 C756 1.368 . S
C751 C735 1.349 . S
C751 H743 0.950 . S
C751 C749 1.327 . S
C752 C740 1.349 . S
C752 H746 0.950 . S
C752 C753 1.327 . S
C753 H747 0.950 . S
C753 C752 1.327 . S
C753 C757 1.429 . S
C754 C737 1.574 . S
C754 H748 0.949 . S
C754 C758 1.368 . S
C755 C736 1.429 . S
C755 C749 1.429 . S
C755 C756 1.523 . S
C756 C737 1.368 . S
C756 C750 1.368 . S
C756 C755 1.523 . S
C757 C741 1.429 . S
C757 C753 1.429 . S
C757 C758 1.523 . S
C758 C742 1.368 . S
C758 C754 1.368 . S
C758 C757 1.523 . S
H759 C734 0.950 . S
H760 C736 0.950 . S
H761 C737 0.949 . S
H762 C739 0.950 . S
H763 C741 0.950 . S
C764 C765 1.349 . S
C764 C766 1.327 . S
C764 H789 0.950 . S
C765 C764 1.349 . S
C765 C781 1.349 . S
C766 C764 1.327 . S
C766 C785 1.429 . S
C766 H790 0.950 . S
C767 C784 1.574 . S
C767 C786 1.368 . S
C767 H791 0.949 . S
H768 C772 0.949 . S
C769 C770 1.349 . S
C769 C771 1.327 . S
C769 H792 0.950 . S
C770 C769 1.349 . S
C770 C782 1.349 . S
C771 C769 1.327 . S
C771 C787 1.429 . S
C771 H793 0.950 . S
C772 H768 0.949 . S
C772 C780 1.574 . S
C772 C788 1.368 . S
H773 C781 0.950 . S
H774 C779 0.950 . S
H775 C780 0.949 . S
H776 C782 0.950 . S
H777 C783 0.950 . S
H778 C784 0.949 . S
C779 H774 0.950 . S
C779 C781 1.327 . S
C779 C785 1.429 . S
C780 C772 1.574 . S
C780 H775 0.949 . S
C780 C786 1.368 . S
C781 C765 1.349 . S
C781 H773 0.950 . S
C781 C779 1.327 . S
C782 C770 1.349 . S
C782 H776 0.950 . S
C782 C783 1.327 . S
C783 H777 0.950 . S
C783 C782 1.327 . S
C783 C787 1.429 . S
C784 C767 1.574 . S
C784 H778 0.949 . S
C784 C788 1.368 . S
C785 C766 1.429 . S
C785 C779 1.429 . S
C785 C786 1.523 . S
C786 C767 1.368 . S
C786 C780 1.368 . S
C786 C785 1.523 . S
C787 C771 1.429 . S
C787 C783 1.429 . S
C787 C788 1.523 . S
C788 C772 1.368 . S
C788 C784 1.368 . S
C788 C787 1.523 . S
H789 C764 0.950 . S
H790 C766 0.950 . S
H791 C767 0.949 . S
H792 C769 0.950 . S
H793 C771 0.950 . S
C794 C795 1.349 . S
C794 C796 1.327 . S
C794 H819 0.950 . S
C795 C794 1.349 . S
C795 C811 1.349 . S
C796 C794 1.327 . S
C796 C815 1.429 . S
C796 H820 0.950 . S
C797 C814 1.574 . S
C797 C816 1.368 . S
C797 H821 0.949 . S
H798 C802 0.949 . S
C799 C800 1.349 . S
C799 C801 1.327 . S
C799 H822 0.950 . S
C800 C799 1.349 . S
C800 C812 1.349 . S
C801 C799 1.327 . S
C801 C817 1.429 . S
C801 H823 0.950 . S
C802 H798 0.949 . S
C802 C810 1.574 . S
C802 C818 1.368 . S
H803 C811 0.950 . S
H804 C809 0.950 . S
H805 C810 0.949 . S
H806 C812 0.950 . S
H807 C813 0.950 . S
H808 C814 0.949 . S
C809 H804 0.950 . S
C809 C811 1.327 . S
C809 C815 1.429 . S
C810 C802 1.574 . S
C810 H805 0.949 . S
C810 C816 1.368 . S
C811 C795 1.349 . S
C811 H803 0.950 . S
C811 C809 1.327 . S
C812 C800 1.349 . S
C812 H806 0.950 . S
C812 C813 1.327 . S
C813 H807 0.950 . S
C813 C812 1.327 . S
C813 C817 1.429 . S
C814 C797 1.574 . S
C814 H808 0.949 . S
C814 C818 1.368 . S
C815 C796 1.429 . S
C815 C809 1.429 . S
C815 C816 1.523 . S
C816 C797 1.368 . S
C816 C810 1.368 . S
C816 C815 1.523 . S
C817 C801 1.429 . S
C817 C813 1.429 . S
C817 C818 1.523 . S
C818 C802 1.368 . S
C818 C814 1.368 . S
C818 C817 1.523 . S
H819 C794 0.950 . S
H820 C796 0.950 . S
H821 C797 0.949 . S
H822 C799 0.950 . S
H823 C801 0.950 . S
C824 C825 1.349 . S
C824 C826 1.327 . S
C824 H849 0.950 . S
C825 C824 1.349 . S
C825 C841 1.349 . S
C826 C824 1.327 . S
C826 C845 1.429 . S
C826 H850 0.950 . S
C827 C844 1.574 1_556 S
C827 C846 1.368 . S
C827 H851 0.949 . S
H828 C832 0.949 . S
C829 C830 1.349 . S
C829 C831 1.327 . S
C829 H852 0.950 . S
C830 C829 1.349 . S
C830 C842 1.349 . S
C831 C829 1.327 . S
C831 C847 1.429 . S
C831 H853 0.950 . S
C832 H828 0.949 . S
C832 C840 1.574 1_554 S
C832 C848 1.368 . S
H833 C841 0.950 . S
H834 C839 0.950 . S
H835 C840 0.949 . S
H836 C842 0.950 . S
H837 C843 0.950 . S
H838 C844 0.949 . S
C839 H834 0.950 . S
C839 C841 1.327 . S
C839 C845 1.429 . S
C840 C832 1.574 1_556 S
C840 H835 0.949 . S
C840 C846 1.368 . S
C841 C825 1.349 . S
C841 H833 0.950 . S
C841 C839 1.327 . S
C842 C830 1.349 . S
C842 H836 0.950 . S
C842 C843 1.327 . S
C843 H837 0.950 . S
C843 C842 1.327 . S
C843 C847 1.429 . S
C844 C827 1.574 1_554 S
C844 H838 0.949 . S
C844 C848 1.368 . S
C845 C826 1.429 . S
C845 C839 1.429 . S
C845 C846 1.523 . S
C846 C827 1.368 . S
C846 C840 1.368 . S
C846 C845 1.523 . S
C847 C831 1.429 . S
C847 C843 1.429 . S
C847 C848 1.523 . S
C848 C832 1.368 . S
C848 C844 1.368 . S
C848 C847 1.523 . S
H849 C824 0.950 . S
H850 C826 0.950 . S
H851 C827 0.949 . S
H852 C829 0.950 . S
H853 C831 0.950 . S
C854 C855 1.349 . S
C854 C856 1.327 . S
C854 H879 0.950 . S
C855 C854 1.349 . S
C855 C871 1.349 . S
C856 C854 1.327 . S
C856 C875 1.429 . S
C856 H880 0.950 . S
C857 C874 1.574 . S
C857 C876 1.368 . S
C857 H881 0.949 . S
H858 C862 0.949 . S
C859 C860 1.349 . S
C859 C861 1.327 . S
C859 H882 0.950 . S
C860 C859 1.349 . S
C860 C872 1.349 . S
C861 C859 1.327 . S
C861 C877 1.429 . S
C861 H883 0.950 . S
C862 H858 0.949 . S
C862 C870 1.574 . S
C862 C878 1.368 . S
H863 C871 0.950 . S
H864 C869 0.950 . S
H865 C870 0.949 . S
H866 C872 0.950 . S
H867 C873 0.950 . S
H868 C874 0.949 . S
C869 H864 0.950 . S
C869 C871 1.327 . S
C869 C875 1.429 . S
C870 C862 1.574 . S
C870 H865 0.949 . S
C870 C876 1.368 . S
C871 C855 1.349 . S
C871 H863 0.950 . S
C871 C869 1.327 . S
C872 C860 1.349 . S
C872 H866 0.950 . S
C872 C873 1.327 . S
C873 H867 0.950 . S
C873 C872 1.327 . S
C873 C877 1.429 . S
C874 C857 1.574 . S
C874 H868 0.949 . S
C874 C878 1.368 . S
C875 C856 1.429 . S
C875 C869 1.429 . S
C875 C876 1.523 . S
C876 C857 1.368 . S
C876 C870 1.368 . S
C876 C875 1.523 . S
C877 C861 1.429 . S
C877 C873 1.429 . S
C877 C878 1.523 . S
C878 C862 1.368 . S
C878 C874 1.368 . S
C878 C877 1.523 . S
H879 C854 0.950 . S
H880 C856 0.950 . S
H881 C857 0.949 . S
H882 C859 0.950 . S
H883 C861 0.950 . S
C884 C885 1.349 . S
C884 C886 1.327 . S
C884 H909 0.950 . S
C885 C884 1.349 . S
C885 C901 1.349 . S
C886 C884 1.327 . S
C886 C905 1.429 . S
C886 H910 0.950 . S
C887 C904 1.574 . S
C887 C906 1.368 . S
C887 H911 0.949 . S
H888 C892 0.949 . S
C889 C890 1.349 . S
C889 C891 1.327 . S
C889 H912 0.950 . S
C890 C889 1.349 . S
C890 C902 1.349 . S
C891 C889 1.327 . S
C891 C907 1.429 . S
C891 H913 0.950 . S
C892 H888 0.949 . S
C892 C900 1.574 . S
C892 C908 1.368 . S
H893 C901 0.950 . S
H894 C899 0.950 . S
H895 C900 0.949 . S
H896 C902 0.950 . S
H897 C903 0.950 . S
H898 C904 0.949 . S
C899 H894 0.950 . S
C899 C901 1.327 . S
C899 C905 1.429 . S
C900 C892 1.574 . S
C900 H895 0.949 . S
C900 C906 1.368 . S
C901 C885 1.349 . S
C901 H893 0.950 . S
C901 C899 1.327 . S
C902 C890 1.349 . S
C902 H896 0.950 . S
C902 C903 1.327 . S
C903 H897 0.950 . S
C903 C902 1.327 . S
C903 C907 1.429 . S
C904 C887 1.574 . S
C904 H898 0.949 . S
C904 C908 1.368 . S
C905 C886 1.429 . S
C905 C899 1.429 . S
C905 C906 1.523 . S
C906 C887 1.368 . S
C906 C900 1.368 . S
C906 C905 1.523 . S
C907 C891 1.429 . S
C907 C903 1.429 . S
C907 C908 1.523 . S
C908 C892 1.368 . S
C908 C904 1.368 . S
C908 C907 1.523 . S
H909 C884 0.950 . S
H910 C886 0.950 . S
H911 C887 0.949 . S
H912 C889 0.950 . S
H913 C891 0.950 . S
C914 C915 1.349 . S
C914 C916 1.327 . S
C914 H939 0.950 . S
C915 C914 1.349 . S
C915 C931 1.349 . S
C916 C914 1.327 . S
C916 C935 1.429 . S
C916 H940 0.950 . S
C917 C934 1.574 . S
C917 C936 1.368 . S
C917 H941 0.949 . S
H918 C922 0.949 . S
C919 C920 1.349 . S
C919 C921 1.327 . S
C919 H942 0.950 . S
C920 C919 1.349 . S
C920 C932 1.349 . S
C921 C919 1.327 . S
C921 C937 1.429 . S
C921 H943 0.950 . S
C922 H918 0.949 . S
C922 C930 1.574 . S
C922 C938 1.368 . S
H923 C931 0.950 . S
H924 C929 0.950 . S
H925 C930 0.949 . S
H926 C932 0.950 . S
H927 C933 0.950 . S
H928 C934 0.949 . S
C929 H924 0.950 . S
C929 C931 1.327 . S
C929 C935 1.429 . S
C930 C922 1.574 . S
C930 H925 0.949 . S
C930 C936 1.368 . S
C931 C915 1.349 . S
C931 H923 0.950 . S
C931 C929 1.327 . S
C932 C920 1.349 . S
C932 H926 0.950 . S
C932 C933 1.327 . S
C933 H927 0.950 . S
C933 C932 1.327 . S
C933 C937 1.429 . S
C934 C917 1.574 . S
C934 H928 0.949 . S
C934 C938 1.368 . S
C935 C916 1.429 . S
C935 C929 1.429 . S
C935 C936 1.523 . S
C936 C917 1.368 . S
C936 C930 1.368 . S
C936 C935 1.523 . S
C937 C921 1.429 . S
C937 C933 1.429 . S
C937 C938 1.523 . S
C938 C922 1.368 . S
C938 C934 1.368 . S
C938 C937 1.523 . S
H939 C914 0.950 . S
H940 C916 0.950 . S
H941 C917 0.949 . S
H942 C919 0.950 . S
H943 C921 0.950 . S
C944 C945 1.349 . S
C944 C946 1.327 . S
C944 H969 0.950 . S
C945 C944 1.349 . S
C945 C961 1.349 . S
C946 C944 1.327 . S
C946 C965 1.429 . S
C946 H970 0.950 . S
C947 C964 1.574 . S
C947 C966 1.368 1_565 S
C947 H971 0.949 . S
H948 C952 0.949 . S
C949 C950 1.349 . S
C949 C951 1.327 . S
C949 H972 0.950 . S
C950 C949 1.349 . S
C950 C962 1.349 . S
C951 C949 1.327 . S
C951 C967 1.429 . S
C951 H973 0.950 . S
C952 H948 0.949 . S
C952 C960 1.574 . S
C952 C968 1.368 1_545 S
H953 C961 0.950 . S
H954 C959 0.950 . S
H955 C960 0.949 . S
H956 C962 0.950 . S
H957 C963 0.950 . S
H958 C964 0.949 . S
C959 H954 0.950 . S
C959 C961 1.327 . S
C959 C965 1.429 . S
C960 C952 1.574 . S
C960 H955 0.949 . S
C960 C966 1.368 . S
C961 C945 1.349 . S
C961 H953 0.950 . S
C961 C959 1.327 . S
C962 C950 1.349 . S
C962 H956 0.950 . S
C962 C963 1.327 . S
C963 H957 0.950 . S
C963 C962 1.327 . S
C963 C967 1.429 . S
C964 C947 1.574 . S
C964 H958 0.949 . S
C964 C968 1.368 . S
C965 C946 1.429 . S
C965 C959 1.429 . S
C965 C966 1.523 . S
C966 C947 1.368 1_545 S
C966 C960 1.368 . S
C966 C965 1.523 . S
C967 C951 1.429 . S
C967 C963 1.429 . S
C967 C968 1.523 . S
C968 C952 1.368 1_565 S
C968 C964 1.368 . S
C968 C967 1.523 . S
H969 C944 0.950 . S
H970 C946 0.950 . S
H971 C947 0.949 . S
H972 C949 0.950 . S
H973 C951 0.950 . S
C974 C975 1.349 . S
C974 C976 1.327 . S
C974 H999 0.950 . S
C975 C974 1.349 . S
C975 C991 1.349 . S
C976 C974 1.327 . S
C976 C995 1.429 . S
C976 H1000 0.950 . S
C977 C994 1.574 . S
C977 C996 1.368 . S
C977 H1001 0.949 . S
H978 C982 0.949 . S
C979 C980 1.349 . S
C979 C981 1.327 . S
C979 H1002 0.950 . S
C980 C979 1.349 . S
C980 C992 1.349 . S
C981 C979 1.327 . S
C981 C997 1.429 . S
C981 H1003 0.950 . S
C982 H978 0.949 . S
C982 C990 1.574 . S
C982 C998 1.368 . S
H983 C991 0.950 . S
H984 C989 0.950 . S
H985 C990 0.949 . S
H986 C992 0.950 . S
H987 C993 0.950 . S
H988 C994 0.949 . S
C989 H984 0.950 . S
C989 C991 1.327 . S
C989 C995 1.429 . S
C990 C982 1.574 . S
C990 H985 0.949 . S
C990 C996 1.368 . S
C991 C975 1.349 . S
C991 H983 0.950 . S
C991 C989 1.327 . S
C992 C980 1.349 . S
C992 H986 0.950 . S
C992 C993 1.327 . S
C993 H987 0.950 . S
C993 C992 1.327 . S
C993 C997 1.429 . S
C994 C977 1.574 . S
C994 H988 0.949 . S
C994 C998 1.368 . S
C995 C976 1.429 . S
C995 C989 1.429 . S
C995 C996 1.523 . S
C996 C977 1.368 . S
C996 C990 1.368 . S
C996 C995 1.523 . S
C997 C981 1.429 . S
C997 C993 1.429 . S
C997 C998 1.523 . S
C998 C982 1.368 . S
C998 C994 1.368 . S
C998 C997 1.523 . S
H999 C974 0.950 . S
H1000 C976 0.950 . S
H1001 C977 0.949 . S
H1002 C979 0.950 . S
H1003 C981 0.950 . S
C1004 C1005 1.349 . S
C1004 C1006 1.327 . S
C1004 H1029 0.950 . S
C1005 C1004 1.349 . S
C1005 C1021 1.349 . S
C1006 C1004 1.327 . S
C1006 C1025 1.429 . S
C1006 H1030 0.950 . S
C1007 C1024 1.574 . S
C1007 C1026 1.368 1_554 S
C1007 H1031 0.949 . S
H1008 C1012 0.949 . S
C1009 C1010 1.349 . S
C1009 C1011 1.327 . S
C1009 H1032 0.950 . S
C1010 C1009 1.349 . S
C1010 C1022 1.349 . S
C1011 C1009 1.327 . S
C1011 C1027 1.429 . S
C1011 H1033 0.950 . S
C1012 H1008 0.949 . S
C1012 C1020 1.574 . S
C1012 C1028 1.368 1_556 S
H1013 C1021 0.950 . S
H1014 C1019 0.950 . S
H1015 C1020 0.949 . S
H1016 C1022 0.950 . S
H1017 C1023 0.950 . S
H1018 C1024 0.949 . S
C1019 H1014 0.950 . S
C1019 C1021 1.327 . S
C1019 C1025 1.429 . S
C1020 C1012 1.574 . S
C1020 H1015 0.949 . S
C1020 C1026 1.368 1_565 S
C1021 C1005 1.349 . S
C1021 H1013 0.950 . S
C1021 C1019 1.327 . S
C1022 C1010 1.349 . S
C1022 H1016 0.950 . S
C1022 C1023 1.327 . S
C1023 H1017 0.950 . S
C1023 C1022 1.327 . S
C1023 C1027 1.429 . S
C1024 C1007 1.574 . S
C1024 H1018 0.949 . S
C1024 C1028 1.368 1_545 S
C1025 C1006 1.429 . S
C1025 C1019 1.429 . S
C1025 C1026 1.523 . S
C1026 C1007 1.368 1_556 S
C1026 C1020 1.368 1_545 S
C1026 C1025 1.523 . S
C1027 C1011 1.429 . S
C1027 C1023 1.429 . S
C1027 C1028 1.523 . S
C1028 C1012 1.368 1_554 S
C1028 C1024 1.368 1_565 S
C1028 C1027 1.523 . S
H1029 C1004 0.950 . S
H1030 C1006 0.950 . S
H1031 C1007 0.949 . S
H1032 C1009 0.950 . S
H1033 C1011 0.950 . S
C1034 C1035 1.349 . S
C1034 C1036 1.327 . S
C1034 H1059 0.950 . S
C1035 C1034 1.349 . S
C1035 C1051 1.349 . S
C1036 C1034 1.327 . S
C1036 C1055 1.429 . S
C1036 H1060 0.950 . S
C1037 C1054 1.574 . S
C1037 C1056 1.368 . S
C1037 H1061 0.949 . S
H1038 C1042 0.949 . S
C1039 C1040 1.349 . S
C1039 C1041 1.327 . S
C1039 H1062 0.950 . S
C1040 C1039 1.349 . S
C1040 C1052 1.349 . S
C1041 C1039 1.327 . S
C1041 C1057 1.429 . S
C1041 H1063 0.950 . S
C1042 H1038 0.949 . S
C1042 C1050 1.574 . S
C1042 C1058 1.368 . S
H1043 C1051 0.950 . S
H1044 C1049 0.950 . S
H1045 C1050 0.949 . S
H1046 C1052 0.950 . S
H1047 C1053 0.950 . S
H1048 C1054 0.949 . S
C1049 H1044 0.950 . S
C1049 C1051 1.327 . S
C1049 C1055 1.429 . S
C1050 C1042 1.574 . S
C1050 H1045 0.949 . S
C1050 C1056 1.368 . S
C1051 C1035 1.349 . S
C1051 H1043 0.950 . S
C1051 C1049 1.327 . S
C1052 C1040 1.349 . S
C1052 H1046 0.950 . S
C1052 C1053 1.327 . S
C1053 H1047 0.950 . S
C1053 C1052 1.327 . S
C1053 C1057 1.429 . S
C1054 C1037 1.574 . S
C1054 H1048 0.949 . S
C1054 C1058 1.368 . S
C1055 C1036 1.429 . S
C1055 C1049 1.429 . S
C1055 C1056 1.523 . S
C1056 C1037 1.368 . S
C1056 C1050 1.368 . S
C1056 C1055 1.523 . S
C1057 C1041 1.429 . S
C1057 C1053 1.429 . S
C1057 C1058 1.523 . S
C1058 C1042 1.368 . S
C1058 C1054 1.368 . S
C1058 C1057 1.523 . S
H1059 C1034 0.950 . S
H1060 C1036 0.950 . S
H1061 C1037 0.949 . S
H1062 C1039 0.950 . S
H1063 C1041 0.950 . S
C1064 C1065 1.349 . S
C1064 C1066 1.327 . S
C1064 H1089 0.950 . S
C1065 C1064 1.349 . S
C1065 C1081 1.349 . S
C1066 C1064 1.327 . S
C1066 C1085 1.429 . S
C1066 H1090 0.950 . S
C1067 C1084 1.574 . S
C1067 C1086 1.368 1_565 S
C1067 H1091 0.949 . S
H1068 C1072 0.949 . S
C1069 C1070 1.349 . S
C1069 C1071 1.327 . S
C1069 H1092 0.950 . S
C1070 C1069 1.349 . S
C1070 C1082 1.349 . S
C1071 C1069 1.327 . S
C1071 C1087 1.429 . S
C1071 H1093 0.950 . S
C1072 H1068 0.949 . S
C1072 C1080 1.574 . S
C1072 C1088 1.368 1_545 S
H1073 C1081 0.950 . S
H1074 C1079 0.950 . S
H1075 C1080 0.949 . S
H1076 C1082 0.950 . S
H1077 C1083 0.950 . S
H1078 C1084 0.949 . S
C1079 H1074 0.950 . S
C1079 C1081 1.327 . S
C1079 C1085 1.429 . S
C1080 C1072 1.574 . S
C1080 H1075 0.949 . S
C1080 C1086 1.368 . S
C1081 C1065 1.349 . S
C1081 H1073 0.950 . S
C1081 C1079 1.327 . S
C1082 C1070 1.349 . S
C1082 H1076 0.950 . S
C1082 C1083 1.327 . S
C1083 H1077 0.950 . S
C1083 C1082 1.327 . S
C1083 C1087 1.429 . S
C1084 C1067 1.574 . S
C1084 H1078 0.949 . S
C1084 C1088 1.368 . S
C1085 C1066 1.429 . S
C1085 C1079 1.429 . S
C1085 C1086 1.523 . S
C1086 C1067 1.368 1_545 S
C1086 C1080 1.368 . S
C1086 C1085 1.523 . S
C1087 C1071 1.429 . S
C1087 C1083 1.429 . S
C1087 C1088 1.523 . S
C1088 C1072 1.368 1_565 S
C1088 C1084 1.368 . S
C1088 C1087 1.523 . S
H1089 C1064 0.950 . S
H1090 C1066 0.950 . S
H1091 C1067 0.949 . S
H1092 C1069 0.950 . S
H1093 C1071 0.950 . S
C1094 C1095 1.349 . S
C1094 C1096 1.327 . S
C1094 H1119 0.950 . S
C1095 C1094 1.349 . S
C1095 C1111 1.349 . S
C1096 C1094 1.327 . S
C1096 C1115 1.429 . S
C1096 H1120 0.950 . S
C1097 C1114 1.574 . S
C1097 C1116 1.368 . S
C1097 H1121 0.949 . S
H1098 C1102 0.949 . S
C1099 C1100 1.349 . S
C1099 C1101 1.327 . S
C1099 H1122 0.950 . S
C1100 C1099 1.349 . S
C1100 C1112 1.349 . S
C1101 C1099 1.327 . S
C1101 C1117 1.429 . S
C1101 H1123 0.950 . S
C1102 H1098 0.949 . S
C1102 C1110 1.574 . S
C1102 C1118 1.368 . S
H1103 C1111 0.950 . S
H1104 C1109 0.950 . S
H1105 C1110 0.949 . S
H1106 C1112 0.950 . S
H1107 C1113 0.950 . S
H1108 C1114 0.949 . S
C1109 H1104 0.950 . S
C1109 C1111 1.327 . S
C1109 C1115 1.429 . S
C1110 C1102 1.574 . S
C1110 H1105 0.949 . S
C1110 C1116 1.368 . S
C1111 C1095 1.349 . S
C1111 H1103 0.950 . S
C1111 C1109 1.327 . S
C1112 C1100 1.349 . S
C1112 H1106 0.950 . S
C1112 C1113 1.327 . S
C1113 H1107 0.950 . S
C1113 C1112 1.327 . S
C1113 C1117 1.429 . S
C1114 C1097 1.574 . S
C1114 H1108 0.949 . S
C1114 C1118 1.368 . S
C1115 C1096 1.429 . S
C1115 C1109 1.429 . S
C1115 C1116 1.523 . S
C1116 C1097 1.368 . S
C1116 C1110 1.368 . S
C1116 C1115 1.523 . S
C1117 C1101 1.429 . S
C1117 C1113 1.429 . S
C1117 C1118 1.523 . S
C1118 C1102 1.368 . S
C1118 C1114 1.368 . S
C1118 C1117 1.523 . S
H1119 C1094 0.950 . S
H1120 C1096 0.950 . S
H1121 C1097 0.949 . S
H1122 C1099 0.950 . S
H1123 C1101 0.950 . S
C1124 C1125 1.349 . S
C1124 C1126 1.327 . S
C1124 H1149 0.950 . S
C1125 C1124 1.349 . S
C1125 C1141 1.349 . S
C1126 C1124 1.327 . S
C1126 C1145 1.429 . S
C1126 H1150 0.950 . S
C1127 C1144 1.574 . S
C1127 C1146 1.368 1_545 S
C1127 H1151 0.949 . S
H1128 C1132 0.949 . S
C1129 C1130 1.349 . S
C1129 C1131 1.327 . S
C1129 H1152 0.950 . S
C1130 C1129 1.349 . S
C1130 C1142 1.349 . S
C1131 C1129 1.327 . S
C1131 C1147 1.429 . S
C1131 H1153 0.950 . S
C1132 H1128 0.949 . S
C1132 C1140 1.574 . S
C1132 C1148 1.368 1_565 S
H1133 C1141 0.950 . S
H1134 C1139 0.950 . S
H1135 C1140 0.949 . S
H1136 C1142 0.950 . S
H1137 C1143 0.950 . S
H1138 C1144 0.949 . S
C1139 H1134 0.950 . S
C1139 C1141 1.327 . S
C1139 C1145 1.429 . S
C1140 C1132 1.574 . S
C1140 H1135 0.949 . S
C1140 C1146 1.368 1_556 S
C1141 C1125 1.349 . S
C1141 H1133 0.950 . S
C1141 C1139 1.327 . S
C1142 C1130 1.349 . S
C1142 H1136 0.950 . S
C1142 C1143 1.327 . S
C1143 H1137 0.950 . S
C1143 C1142 1.327 . S
C1143 C1147 1.429 . S
C1144 C1127 1.574 . S
C1144 H1138 0.949 . S
C1144 C1148 1.368 1_554 S
C1145 C1126 1.429 . S
C1145 C1139 1.429 . S
C1145 C1146 1.523 . S
C1146 C1127 1.368 1_565 S
C1146 C1140 1.368 1_554 S
C1146 C1145 1.523 . S
C1147 C1131 1.429 . S
C1147 C1143 1.429 . S
C1147 C1148 1.523 . S
C1148 C1132 1.368 1_545 S
C1148 C1144 1.368 1_556 S
C1148 C1147 1.523 . S
H1149 C1124 0.950 . S
H1150 C1126 0.950 . S
H1151 C1127 0.949 . S
H1152 C1129 0.950 . S
H1153 C1131 0.950 . S
C1154 C1155 1.349 . S
C1154 C1156 1.327 . S
C1154 H1179 0.950 . S
C1155 C1154 1.349 . S
C1155 C1171 1.349 . S
C1156 C1154 1.327 . S
C1156 C1175 1.429 . S
C1156 H1180 0.950 . S
C1157 C1174 1.574 . S
C1157 C1176 1.368 . S
C1157 H1181 0.949 . S
H1158 C1162 0.949 . S
C1159 C1160 1.349 . S
C1159 C1161 1.327 . S
C1159 H1182 0.950 . S
C1160 C1159 1.349 . S
C1160 C1172 1.349 . S
C1161 C1159 1.327 . S
C1161 C1177 1.429 . S
C1161 H1183 0.950 . S
C1162 H1158 0.949 . S
C1162 C1170 1.574 . S
C1162 C1178 1.368 . S
H1163 C1171 0.950 . S
H1164 C1169 0.950 . S
H1165 C1170 0.949 . S
H1166 C1172 0.950 . S
H1167 C1173 0.950 . S
H1168 C1174 0.949 . S
C1169 H1164 0.950 . S
C1169 C1171 1.327 . S
C1169 C1175 1.429 . S
C1170 C1162 1.574 . S
C1170 H1165 0.949 . S
C1170 C1176 1.368 . S
C1171 C1155 1.349 . S
C1171 H1163 0.950 . S
C1171 C1169 1.327 . S
C1172 C1160 1.349 . S
C1172 H1166 0.950 . S
C1172 C1173 1.327 . S
C1173 H1167 0.950 . S
C1173 C1172 1.327 . S
C1173 C1177 1.429 . S
C1174 C1157 1.574 . S
C1174 H1168 0.949 . S
C1174 C1178 1.368 . S
C1175 C1156 1.429 . S
C1175 C1169 1.429 . S
C1175 C1176 1.523 . S
C1176 C1157 1.368 . S
C1176 C1170 1.368 . S
C1176 C1175 1.523 . S
C1177 C1161 1.429 . S
C1177 C1173 1.429 . S
C1177 C1178 1.523 . S
C1178 C1162 1.368 . S
C1178 C1174 1.368 . S
C1178 C1177 1.523 . S
H1179 C1154 0.950 . S
H1180 C1156 0.950 . S
H1181 C1157 0.949 . S
H1182 C1159 0.950 . S
H1183 C1161 0.950 . S
C225 C163 1.418 . S
C230 C8 1.418 . S
C255 C219 1.418 . S
C260 C23 1.418 . S
C285 C36 1.418 . S
C290 C134 1.418 . S
C315 C191 1.418 . S
C320 C50 1.418 . S
C345 C64 1.418 . S
C350 C190 1.418 . S
C375 C79 1.418 . S
C380 C162 1.418 . S
C405 C93 1.418 . S
C410 C218 1.418 . S
C435 C107 1.418 . S
C440 C135 1.418 . S
C465 C51 1.418 . S
C470 C120 1.418 . S
C495 C148 1.418 . S
C500 C22 1.418 . S
C525 C176 1.418 . S
C530 C78 1.418 . S
C555 C205 1.418 . S
C560 C106 1.418 . S
C585 C65 1.418 . S
C590 C121 1.418 . S
C615 C149 1.418 . S
C620 C92 1.418 . S
C645 C204 1.418 . S
C650 C37 1.418 . S
C675 C9 1.418 . S
C680 C177 1.418 . S
C705 C7 1.408 . S
C710 C63 1.408 . S
C735 C20 1.408 . S
C740 C76 1.408 . S
C765 C35 1.408 . S
C770 C90 1.408 . S
C795 C104 1.408 . S
C800 C49 1.408 . S
C825 C119 1.408 . S
C830 C175 1.408 . S
C855 C188 1.408 . S
C860 C132 1.408 . S
C885 C147 1.408 . S
C890 C202 1.408 . S
C915 C216 1.408 . S
C920 C161 1.408 . S
C945 C105 1.408 . S
C950 C21 1.408 . S
C975 C34 1.408 . S
C980 C62 1.408 . S
C1005 C48 1.408 . S
C1010 C77 1.408 . S
C1035 C6 1.408 . S
C1040 C91 1.408 . S
C1065 C133 1.408 . S
C1070 C217 1.408 . S
C1095 C174 1.408 . S
C1100 C146 1.408 . S
C1125 C160 1.408 . S
C1130 C189 1.408 . S
C1155 C203 1.408 . S
C1160 C118 1.408 . S
