# Generated by pormake.
# Topology rkf, (6)-cn, num edge types: 1
# Building blocks:
#     Node 0, Type 0, BuildingBlock: BETGAK_clean_sbu_0, # of connection points: 6
#     Node 1, Type 0, BuildingBlock: BETGAK_clean_sbu_0, # of connection points: 6
#     Node 2, Type 0, BuildingBlock: BETGAK_clean_sbu_0, # of connection points: 6
#     Node 3, Type 0, BuildingBlock: BETGAK_clean_sbu_0, # of connection points: 6
#     Node 4, Type 0, BuildingBlock: BETGAK_clean_sbu_0, # of connection points: 6
#     Node 5, Type 0, BuildingBlock: BETGAK_clean_sbu_0, # of connection points: 6
#     Edge 6, Type (0, 0), BuildingBlock: TEMPAE_clean_linker_10, # of connection points: 2
#     Edge 7, Type (0, 0), BuildingBlock: TEMPAE_clean_linker_10, # of connection points: 2
#     Edge 8, Type (0, 0), BuildingBlock: TEMPAE_clean_linker_10, # of connection points: 2
#     Edge 9, Type (0, 0), BuildingBlock: TEMPAE_clean_linker_10, # of connection points: 2
#     Edge 10, Type (0, 0), BuildingBlock: TEMPAE_clean_linker_10, # of connection points: 2
#     Edge 11, Type (0, 0), BuildingBlock: TEMPAE_clean_linker_10, # of connection points: 2
#     Edge 12, Type (0, 0), BuildingBlock: TEMPAE_clean_linker_10, # of connection points: 2
#     Edge 13, Type (0, 0), BuildingBlock: TEMPAE_clean_linker_10, # of connection points: 2
#     Edge 14, Type (0, 0), BuildingBlock: TEMPAE_clean_linker_10, # of connection points: 2
#     Edge 15, Type (0, 0), BuildingBlock: TEMPAE_clean_linker_10, # of connection points: 2
#     Edge 16, Type (0, 0), BuildingBlock: TEMPAE_clean_linker_10, # of connection points: 2
#     Edge 17, Type (0, 0), BuildingBlock: TEMPAE_clean_linker_10, # of connection points: 2
#     Edge 18, Type (0, 0), BuildingBlock: TEMPAE_clean_linker_10, # of connection points: 2
#     Edge 19, Type (0, 0), BuildingBlock: TEMPAE_clean_linker_10, # of connection points: 2
#     Edge 20, Type (0, 0), BuildingBlock: TEMPAE_clean_linker_10, # of connection points: 2
#     Edge 21, Type (0, 0), BuildingBlock: TEMPAE_clean_linker_10, # of connection points: 2
#     Edge 22, Type (0, 0), BuildingBlock: TEMPAE_clean_linker_10, # of connection points: 2
#     Edge 23, Type (0, 0), BuildingBlock: TEMPAE_clean_linker_10, # of connection points: 2
# Relax obj value: 0.728
# Max RMSD: 0.251
# Mean RMSD: 0.251
data_MOF--net-rkf--node1-BETGAK_clean_sbu_0--edge1-TEMPAE_clean_linker_10
_symmetry_space_group_name_H-M    P1
_symmetry_Int_Tables_number       1
_symmetry_cell_setting            triclinic
loop_
_symmetry_equiv_pos_as_xyz
'x, y, z'
_cell_length_a     26.209488
_cell_length_b     26.07955
_cell_length_c     43.879475
_cell_angle_alpha  90.5918
_cell_angle_beta   89.259614
_cell_angle_gamma 120.4275
loop_
_atom_site_label
_atom_site_type_symbol
_atom_site_fract_x
_atom_site_fract_y
_atom_site_fract_z
_atom_type_partial_charge
La0 La 0.21088 -0.00927 0.18424 0.0
La1 La 0.2975 0.11623 1.17103 0.0
C2 C 0.16233 0.88284 0.19861 0.0
C3 C 0.17566 0.84917 0.22007 0.0
C4 C 0.21932 0.87896 0.24205 0.0
C5 C 0.23303 0.84677 0.26206 0.0
C6 C 0.20337 0.78423 0.26033 0.0
C7 C 0.16249 0.75502 0.23682 0.0
C8 C 0.14865 0.7874 0.21684 0.0
C9 C 0.16568 0.05404 1.16451 0.0
C10 C 0.25315 0.08712 0.23853 0.0
C11 C 0.36372 0.22411 1.15846 0.0
C12 C 0.38084 0.26596 1.13369 0.0
C13 C 0.35696 0.24696 1.10467 0.0
C14 C 0.37539 0.28787 1.08107 0.0
C15 C 0.41751 0.34808 1.08642 0.0
C16 C 0.44103 0.36672 1.11564 0.0
C17 C 0.42266 0.32569 1.1392 0.0
C18 C 0.3433 0.05459 0.19391 0.0
C19 C 0.23739 0.02449 1.11522 0.0
O20 O 0.14604 0.91913 0.21001 0.0
O21 O 0.20231 0.90767 0.17722 0.0
O22 O 0.14271 -0.00208 1.15855 0.0
O23 O 0.2074 0.06959 0.18244 0.0
O24 O 0.23253 0.03002 0.23139 0.0
O25 O 0.27348 0.12783 0.21698 0.0
O26 O 0.37969 0.1842 1.15554 0.0
O27 O 0.30939 0.20166 1.16853 0.0
O28 O 0.3576 0.10798 0.20155 0.0
O29 O 0.30371 0.03702 0.17395 0.0
O30 O 0.26574 0.08144 1.12393 0.0
O31 O 0.21926 -0.01818 1.13556 0.0
H32 H 0.24179 0.92696 0.24415 0.0
H33 H 0.26389 0.87077 0.28021 0.0
H34 H 0.139 0.70697 0.23497 0.0
H35 H 0.11614 0.76419 0.19923 0.0
H36 H 0.32456 0.20071 1.1003 0.0
H37 H 0.35708 0.27238 1.0586 0.0
H38 H 0.47292 0.41296 1.12031 0.0
H39 H 0.44111 0.34052 1.16172 0.0
La40 La 0.27596 0.23737 0.52039 0.0
La41 La 0.24755 0.33028 0.50583 0.0
C42 C 0.3243 0.17932 0.53596 0.0
C43 C 0.36306 0.18026 0.55979 0.0
C44 C 0.3801 0.13729 0.55953 0.0
C45 C 0.41843 0.13849 0.58171 0.0
C46 C 0.44032 0.18295 0.60431 0.0
C47 C 0.42457 0.22715 0.60374 0.0
C48 C 0.38619 0.22579 0.58163 0.0
C49 C 0.16846 0.19833 0.49961 0.0
C50 C 0.22771 0.2878 0.57361 0.0
C51 C 0.21482 0.40105 0.48947 0.0
C52 C 0.18637 0.41239 0.46427 0.0
C53 C 0.19967 0.47079 0.45915 0.0
C54 C 0.17064 0.48273 0.43639 0.0
C55 C 0.12768 0.43618 0.41861 0.0
C56 C 0.11492 0.37756 0.42371 0.0
C57 C 0.14436 0.36578 0.44628 0.0
C58 C 0.35407 0.37101 0.52936 0.0
C59 C 0.27219 0.26215 0.45126 0.0
O60 O 0.27025 0.16468 0.54398 0.0
O61 O 0.34878 0.2255 0.51803 0.0
O62 O 0.19844 0.17229 0.49377 0.0
O63 O 0.19709 0.24033 0.51752 0.0
O64 O 0.26001 0.26262 0.56698 0.0
O65 O 0.21145 0.31102 0.55183 0.0
O66 O 0.2679 0.40985 0.48414 0.0
O67 O 0.18155 0.35259 0.50508 0.0
O68 O 0.31814 0.3895 0.53614 0.0
O69 O 0.32949 0.33023 0.50972 0.0
O70 O 0.24611 0.29276 0.45954 0.0
O71 O 0.29523 0.2437 0.47194 0.0
H72 H 0.36323 0.10245 0.54239 0.0
H73 H 0.42955 0.10374 0.58178 0.0
H74 H 0.43946 0.26107 0.62132 0.0
H75 H 0.37389 0.25971 0.58179 0.0
H76 H 0.23207 0.50709 0.47302 0.0
H77 H 0.1817 0.52826 0.43276 0.0
H78 H 0.08121 0.34055 0.41074 0.0
H79 H 0.13353 0.32033 0.45007 0.0
La80 La 0.11051 0.34154 0.85592 0.0
La81 La -0.01271 0.30753 0.8394 0.0
C82 C 0.22104 0.40413 0.85858 0.0
C83 C 0.27509 0.42853 0.87643 0.0
C84 C 0.27685 0.44757 0.90651 0.0
C85 C 0.33027 0.47563 0.92204 0.0
C86 C 0.38274 0.48482 0.9078 0.0
C87 C 0.38073 0.46584 0.87758 0.0
C88 C 0.32721 0.43808 0.86197 0.0
C89 C 0.03462 0.22766 0.85809 0.0
C90 C 0.01439 0.29601 0.90848 0.0
C91 C 0.88304 0.27378 0.82424 0.0
C92 C 0.83699 0.24354 0.80162 0.0
C93 C 0.77942 0.23027 0.80905 0.0
C94 C 0.73495 0.20544 0.78727 0.0
C95 C 0.74787 0.19397 0.75776 0.0
C96 C 0.8056 0.20623 0.75066 0.0
C97 C 0.84999 0.231 0.77247 0.0
C98 C 0.05625 0.41867 0.85876 0.0
C99 C 0.07616 0.31691 0.78567 0.0
O100 O 0.19341 0.34736 0.85165 0.0
O101 O 0.18492 0.42382 0.86504 0.0
O102 O 0.08079 0.25395 0.87563 0.0
O103 O 0.03594 0.26366 0.83889 0.0
O104 O 0.07184 0.33211 0.90228 0.0
O105 O -0.02536 0.27617 0.88643 0.0
O106 O 0.92877 0.32489 0.81613 0.0
O107 O 0.89763 0.24106 0.84031 0.0
O108 O 0.00205 0.38416 0.86691 0.0
O109 O 0.06987 0.3897 0.84079 0.0
O110 O 0.02068 0.3018 0.79306 0.0
O111 O 0.11724 0.33437 0.80675 0.0
H112 H 0.23705 0.44078 0.91799 0.0
H113 H 0.32995 0.48808 0.94563 0.0
H114 H 0.42027 0.47163 0.86626 0.0
H115 H 0.32651 0.42421 0.83854 0.0
H116 H 0.76908 0.23995 0.83162 0.0
H117 H 0.69081 0.19593 0.79334 0.0
H118 H 0.81629 0.19608 0.7283 0.0
H119 H 0.89432 0.24085 0.76656 0.0
La120 La 0.82325 0.1287 0.18538 0.0
La121 La 0.79697 0.00587 1.16737 0.0
C122 C 0.81254 0.2183 0.1938 0.0
C123 C 0.82624 0.26112 0.21843 0.0
C124 C 0.83471 0.24702 0.24786 0.0
C125 C 0.85142 0.28891 0.27105 0.0
C126 C 0.86022 0.34588 0.26524 0.0
C127 C 0.85106 0.35972 0.23571 0.0
C128 C 0.83388 0.3173 0.2124 0.0
C129 C 0.91792 0.11797 0.18306 0.0
C130 C 0.81871 0.04013 0.23647 0.0
C131 C 0.77993 0.9072 1.14946 0.0
C132 C 0.79023 0.86989 1.12814 0.0
C133 C 0.74056 0.8184 1.1172 0.0
C134 C 0.74728 0.77661 1.10051 0.0
C135 C 0.8039 0.78572 1.09441 0.0
C136 C 0.85396 0.83824 1.10455 0.0
C137 C 0.84715 0.87997 1.12161 0.0
C138 C 0.70561 0.01723 0.18436 0.0
C139 C 0.83847 0.10432 1.11494 0.0
O140 O 0.8586 0.22046 0.18052 0.0
O141 O 0.77063 0.16367 0.19982 0.0
O142 O 0.91284 0.15563 0.20072 0.0
O143 O 0.87202 0.09181 1.16743 0.0
O144 O 0.80981 0.08526 0.23075 0.0
O145 O 0.82549 0.00993 0.21399 0.0
O146 O 0.74843 0.93017 1.14015 0.0
O147 O 0.82236 0.9418 1.16831 0.0
O148 O 0.7122 0.97338 0.19185 0.0
O149 O 0.74864 0.05158 1.16798 0.0
O150 O 0.83019 0.05135 1.12287 0.0
O151 O 0.83194 0.13874 1.13535 0.0
H152 H 0.82995 0.20413 0.25272 0.0
H153 H 0.86021 0.27745 0.29326 0.0
H154 H 0.85839 0.40349 0.23057 0.0
H155 H 0.82794 0.32875 0.18957 0.0
H156 H 0.69629 0.80958 1.1224 0.0
H157 H 0.70811 0.73694 1.09248 0.0
H158 H 0.89809 0.84608 1.10007 0.0
H159 H 0.88599 0.91892 1.13039 0.0
La160 La 0.76656 0.85016 0.51622 0.0
La161 La 0.86235 0.82528 0.49952 0.0
C162 C 0.67104 0.849 0.52514 0.0
C163 C 0.65501 0.88181 0.5467 0.0
C164 C 0.69946 0.93623 0.55848 0.0
C165 C 0.68587 0.96581 0.58064 0.0
C166 C 0.62769 0.94136 0.59163 0.0
C167 C 0.58247 0.88839 0.5789 0.0
C168 C 0.5962 0.85855 0.55647 0.0
C169 C 0.87296 0.9467 0.51612 0.0
C170 C 0.847 0.84376 0.56834 0.0
C171 C 0.94649 0.81455 0.4813 0.0
C172 C -0.00387 0.80832 0.47057 0.0
C173 C -0.01319 0.75242 0.4618 0.0
C174 C 0.03349 0.74704 0.44996 0.0
C175 C 0.08998 0.79761 0.4465 0.0
C176 C 0.0997 0.85311 0.45665 0.0
C177 C 0.05309 0.85836 0.46874 0.0
C178 C 0.75886 0.73185 0.51549 0.0
C179 C 0.80722 0.86441 0.44632 0.0
O180 O 0.71069 0.88215 0.50476 0.0
O181 O 0.68243 0.81004 0.53715 0.0
O182 O 0.82998 0.93838 0.53424 0.0
O183 O 0.85365 0.90158 0.49946 0.0
O184 O 0.79298 0.83324 0.56157 0.0
O185 O 0.88563 0.853 0.54645 0.0
O186 O 0.89224 0.7797 0.47168 0.0
O187 O 0.9535 0.85662 0.50043 0.0
O188 O 0.80961 0.73948 0.52305 0.0
O189 O 0.76736 0.77451 0.49914 0.0
O190 O 0.85195 0.85797 0.45514 0.0
O191 O 0.76456 0.85584 0.46596 0.0
H192 H 0.74501 0.95535 0.55108 0.0
H193 H 0.72131 0.00699 0.59002 0.0
H194 H 0.53737 0.86895 0.58722 0.0
H195 H 0.56142 0.81671 0.54739 0.0
H196 H 0.9432 0.71315 0.46344 0.0
H197 H 0.02451 0.70391 0.4418 0.0
H198 H 0.14277 0.89278 0.45406 0.0
H199 H 0.0611 0.90186 0.47556 0.0
La200 La -0.00059 0.78279 0.84489 0.0
La201 La 0.0957 0.90891 0.83228 0.0
C202 C 0.95154 0.67355 0.85645 0.0
C203 C 0.93021 0.63773 0.88414 0.0
C204 C -0.03872 0.65923 0.91145 0.0
C205 C 0.9358 0.63068 0.93871 0.0
C206 C 0.87826 0.58077 0.93925 0.0
C207 C 0.84969 0.55598 0.91152 0.0
C208 C 0.87566 0.58442 0.88406 0.0
C209 C -0.03821 0.8572 0.84943 0.0
C210 C 0.08206 0.86959 0.90039 0.0
C211 C 0.16489 0.01533 0.81752 0.0
C212 C 0.22949 0.05391 0.81694 0.0
C213 C 0.26588 0.02955 0.81182 0.0
C214 C 0.325 0.06619 0.80339 0.0
C215 C 0.34853 0.12774 0.80007 0.0
C216 C 0.31413 0.15259 0.80964 0.0
C217 C 0.25464 0.11574 0.81765 0.0
C218 C 0.12531 0.82569 0.82678 0.0
C219 C -0.00111 0.83844 0.78193 0.0
O220 O 0.92195 0.69932 0.84855 0.0
O221 O 0.00877 0.70964 0.85449 0.0
O222 O 0.92691 0.80094 0.84409 0.0
O223 O 0.01298 0.86784 0.85616 0.0
O224 O 0.03974 0.81517 0.89145 0.0
O225 O 0.10796 0.91411 0.88105 0.0
O226 O 0.13958 -0.00029 0.84436 0.0
O227 O 0.14378 0.97071 0.79826 0.0
O228 O 0.15991 0.87819 0.83774 0.0
O229 O 0.07843 0.82309 0.81879 0.0
O230 O 0.03315 0.89047 0.79525 0.0
O231 O -0.01269 0.78826 0.79555 0.0
H232 H 0.00373 0.7001 0.91205 0.0
H233 H -0.04113 0.65165 0.9596 0.0
H234 H 0.8054 0.51757 0.91131 0.0
H235 H 0.85145 0.56703 0.86303 0.0
H236 H 0.24743 -0.01817 0.81169 0.0
H237 H 0.34996 0.04538 0.79619 0.0
H238 H 0.33146 0.20001 0.80792 0.0
H239 H 0.22736 0.1353 0.82215 0.0
C240 C -0.02465 0.08734 1.15224 0.0
C241 C -0.02706 0.13367 1.16691 0.0
C242 C 0.01613 0.09863 1.12882 0.0
C243 C 0.06225 0.15828 1.12324 0.0
C244 C 0.05314 0.20439 1.13404 0.0
C245 C 0.00984 0.19203 1.15656 0.0
C246 C 0.00342 0.04707 1.10803 0.0
C247 C 0.08602 0.2657 1.12042 0.0
C248 C 0.17021 0.15035 1.16148 0.0
C249 C 0.15734 0.09691 1.14735 0.0
C250 C 0.15832 0.19006 1.14647 0.0
C251 C 0.12461 0.1707 1.11937 0.0
C252 C 0.13287 0.13032 1.10135 0.0
C253 C 0.14416 0.08957 1.11619 0.0
C254 C 0.17902 0.25024 1.16052 0.0
C255 C 0.12642 0.12849 1.06731 0.0
H256 H 0.94145 0.04175 1.15713 0.0
H257 H 0.00275 0.22738 1.16467 0.0
H258 H 0.02676 0.02427 1.11591 0.0
H259 H 0.95549 0.01332 1.10806 0.0
H260 H 0.0154 0.06176 1.08415 0.0
H261 H 0.10666 0.29974 1.13868 0.0
H262 H 0.11995 0.27055 1.10343 0.0
H263 H 0.05387 0.27455 1.1088 0.0
H264 H 0.18871 0.16081 0.18421 0.0
H265 H 0.14175 0.05239 1.10377 0.0
H266 H 0.14373 0.24876 0.17535 0.0
H267 H 0.19125 0.28423 1.14256 0.0
H268 H 0.21848 0.26411 0.17496 0.0
H269 H 0.10573 0.08215 1.05854 0.0
H270 H 0.17123 0.1539 1.05689 0.0
H271 H 0.10068 0.1494 1.06008 0.0
C272 C 0.95579 0.00955 0.48263 0.0
C273 C 0.90909 0.0037 0.50073 0.0
C274 C -0.01942 0.05271 0.45992 0.0
C275 C -0.03484 0.09798 0.45864 0.0
C276 C 0.91147 0.08557 0.47308 0.0
C277 C 0.88523 0.04011 0.49485 0.0
C278 C 0.01443 0.04217 0.43488 0.0
C279 C 0.8782 0.1156 0.46327 0.0
C280 C 0.07894 0.20635 0.49676 0.0
C281 C 0.11826 0.19221 0.48247 0.0
C282 C 0.02827 0.19628 0.48136 0.0
C283 C 0.01292 0.1621 0.45411 0.0
C284 C 0.06196 0.17216 0.43605 0.0
C285 C 0.11284 0.18071 0.45104 0.0
C286 C -0.00816 0.22084 0.4946 0.0
C287 C 0.05893 0.17058 0.40187 0.0
H288 H -0.03111 0.97626 0.48415 0.0
H289 H 0.84393 0.03068 0.50564 0.0
H290 H 0.06234 0.06586 0.43984 0.0
H291 H 0.00041 -0.00572 0.43297 0.0
H292 H 0.00609 0.05542 0.41246 0.0
H293 H 0.83459 0.08145 0.45414 0.0
H294 H 0.86874 0.13611 0.48321 0.0
H295 H 0.90203 0.14915 0.4452 0.0
H296 H 0.08756 0.22508 0.51959 0.0
H297 H 0.14707 0.17799 0.43848 0.0
H298 H -0.04009 0.18923 0.51154 0.0
H299 H -0.03199 0.22943 0.4765 0.0
H300 H 0.02054 0.26338 0.50678 0.0
H301 H 0.08289 0.14927 0.39195 0.0
H302 H 0.08134 0.21702 0.39344 0.0
H303 H 0.01242 0.1475 0.39388 0.0
C304 C -0.01539 0.95827 0.83772 0.0
C305 C 0.944 0.90181 0.84829 0.0
C306 C -0.02902 0.00331 0.83787 0.0
C307 C 0.91651 -0.00763 0.85104 0.0
C308 C 0.87327 0.93387 0.85962 0.0
C309 C 0.88738 0.88867 0.8577 0.0
C310 C 0.01724 0.06347 0.82575 0.0
C311 C 0.81352 0.91883 0.87225 0.0
C312 C -0.01874 0.13464 0.88801 0.0
C313 C -0.01546 0.16724 0.86223 0.0
C314 C 0.94386 0.0729 0.88813 0.0
C315 C 0.91271 0.04453 0.86124 0.0
C316 C 0.9046 0.07836 0.83899 0.0
C317 C 0.94195 0.14024 0.83935 0.0
C318 C 0.94624 0.03761 0.9145 0.0
C319 C 0.86471 0.04905 0.81217 0.0
H320 H 0.02765 0.96761 0.82963 0.0
H321 H 0.85539 0.84407 0.86516 0.0
H322 H -0.00288 0.0808 0.80983 0.0
H323 H 0.03735 0.09542 0.84486 0.0
H324 H 0.05347 0.06166 0.81327 0.0
H325 H 0.77838 0.87764 0.86123 0.0
H326 H 0.81175 0.90953 0.89699 0.0
H327 H 0.80351 0.95494 0.86896 0.0
H328 H 0.01124 0.15635 0.90683 0.0
H329 H 0.94174 0.16621 0.82026 0.0
H330 H -0.02243 0.02193 0.90896 0.0
H331 H 0.90202 -0.00199 0.91876 0.0
H332 H -0.03859 0.06489 0.93565 0.0
H333 H 0.89011 0.04266 0.79358 0.0
H334 H 0.84777 0.07736 0.80334 0.0
H335 H 0.82678 0.00483 0.81846 0.0
C336 C 0.49553 0.43279 1.05608 0.0
C337 C 0.43568 0.39119 1.06149 0.0
C338 C 0.51279 0.47032 1.03069 0.0
C339 C 0.46902 0.46491 1.01026 0.0
C340 C 0.40818 0.42485 1.01673 0.0
C341 C 0.39248 0.389 1.04242 0.0
C342 C 0.57778 0.51346 1.02551 0.0
C343 C 0.3592 0.41776 0.99606 0.0
C344 C 0.44973 0.54708 0.94943 0.0
C345 C 0.43579 0.50406 0.92659 0.0
C346 C 0.47486 0.54349 0.9767 0.0
C347 C 0.4848 0.4956 0.98058 0.0
C348 C 0.48538 0.4628 0.95486 0.0
C349 C 0.4603 0.46724 0.9278 0.0
C350 C 0.47905 0.58275 1.00312 0.0
C351 C 0.50031 0.41431 0.95769 0.0
H352 H 0.52903 0.43467 1.07106 0.0
H353 H 0.34613 0.35804 1.04729 0.0
H354 H 0.59881 0.48918 1.01571 0.0
H355 H 0.58594 0.55 1.00983 0.0
H356 H 0.59992 0.5331 1.04751 0.0
H357 H 0.31457 0.38383 1.00447 0.0
H358 H 0.36018 0.4606 0.99428 0.0
H359 H 0.36521 0.40423 0.97287 0.0
H360 H 0.43335 0.5777 0.94784 0.0
H361 H 0.45163 0.43528 0.90971 0.0
H362 H 0.51475 0.58957 1.01891 0.0
H363 H 0.43655 0.56119 1.01601 0.0
H364 H 0.48739 0.62659 0.99505 0.0
H365 H 0.53906 0.42879 0.97267 0.0
H366 H 0.51 0.40139 0.9351 0.0
H367 H 0.46213 0.37444 0.96806 0.0
C368 C 0.08117 0.41696 0.36768 0.0
C369 C 0.09467 0.44789 0.39536 0.0
C370 C 0.04231 0.41981 0.34729 0.0
C371 C 0.01774 0.4561 0.35443 0.0
C372 C 0.03545 0.49172 0.38104 0.0
C373 C 0.07331 0.48665 0.40148 0.0
C374 C 0.02481 0.38077 0.31911 0.0
C375 C 0.01209 0.53249 0.38903 0.0
C376 C 0.93959 0.44518 0.28315 0.0
C377 C 0.88701 0.39172 0.28931 0.0
C378 C -0.01986 0.47524 0.30655 0.0
C379 C -0.03193 0.44931 0.33582 0.0
C380 C 0.91046 0.4024 0.34309 0.0
C381 C 0.86975 0.37509 0.31963 0.0
C382 C 0.03945 0.52857 0.29876 0.0
C383 C 0.89529 0.37363 0.37412 0.0
H384 H 0.0993 0.38858 0.36247 0.0
H385 H 0.08384 0.51097 0.42285 0.0
H386 H -0.02368 0.34939 0.31918 0.0
H387 H 0.03608 0.40843 0.29835 0.0
H388 H 0.04733 0.35441 0.31749 0.0
H389 H 0.04498 0.57135 0.40247 0.0
H390 H 0.00042 0.54849 0.3684 0.0
H391 H -0.0282 0.50832 0.40344 0.0
H392 H 0.95253 0.45948 0.2598 0.0
H393 H 0.82778 0.33515 0.32441 0.0
H394 H 0.06982 0.51343 0.29042 0.0
H395 H 0.05976 0.55747 0.319 0.0
H396 H 0.03514 0.55507 0.28037 0.0
H397 H 0.91784 0.34765 0.37701 0.0
H398 H 0.84692 0.34298 0.37709 0.0
H399 H 0.91082 0.4077 0.39239 0.0
C400 C 0.64728 0.11449 0.74159 0.0
C401 C 0.70116 0.16594 0.7346 0.0
C402 C 0.61153 0.07701 0.71818 0.0
C403 C 0.63168 0.09094 0.68771 0.0
C404 C 0.68006 0.14795 0.68063 0.0
C405 C 0.71427 0.18508 0.70436 0.0
C406 C 0.55734 0.0185 0.72616 0.0
C407 C 0.70219 0.16555 0.64832 0.0
C408 C 0.65211 -0.02173 0.64417 0.0
C409 C 0.61728 0.96886 0.61858 0.0
C410 C 0.65387 0.01493 0.66788 0.0
C411 C 0.61867 0.04193 0.66618 0.0
C412 C 0.57895 0.028 0.64172 0.0
C413 C 0.57882 -0.00862 0.6179 0.0
C414 C 0.69715 0.02824 0.69348 0.0
C415 C 0.5382 0.05306 0.64031 0.0
H416 H 0.63599 0.1004 0.76508 0.0
H417 H 0.75468 0.22631 0.69911 0.0
H418 H 0.52141 0.00779 0.70973 0.0
H419 H 0.56805 -0.01754 0.72479 0.0
H420 H 0.54117 0.01912 0.74961 0.0
H421 H 0.73233 0.21436 0.64622 0.0
H422 H 0.72702 0.14325 0.64122 0.0
H423 H 0.6649 0.15142 0.63238 0.0
H424 H 0.68077 0.9595 0.64474 0.0
H425 H 0.55121 -0.01701 0.59814 0.0
H426 H 0.67374 0.01706 0.71578 0.0
H427 H 0.73086 0.07633 0.69379 0.0
H428 H 0.72061 0.00287 0.69121 0.0
H429 H 0.50302 0.03125 0.65793 0.0
H430 H 0.51683 0.04549 0.61772 0.0
H431 H 0.56221 0.10144 0.64538 0.0
C432 C 0.77497 0.68003 1.08483 0.0
C433 C 0.81001 0.74033 1.07719 0.0
C434 C 0.77631 0.63592 1.06696 0.0
C435 C 0.8135 0.65289 1.04095 0.0
C436 C 0.85014 0.71394 1.0336 0.0
C437 C 0.84819 0.75699 1.05201 0.0
C438 C 0.73721 0.57137 1.07547 0.0
C439 C 0.89007 0.73385 1.00574 0.0
C440 C 0.87257 0.57232 0.99572 0.0
C441 C 0.84418 0.56732 0.96807 0.0
C442 C 0.85761 0.59324 1.02186 0.0
C443 C 0.81249 0.60764 1.02003 0.0
C444 C 0.77614 0.59097 0.99399 0.0
C445 C 0.79231 0.57044 0.96818 0.0
C446 C 0.89623 0.60886 1.04959 0.0
C447 C 0.72686 0.6046 0.9912 0.0
H448 H 0.74599 0.66741 1.10463 0.0
H449 H 0.87487 0.80361 1.04605 0.0
H450 H 0.70856 0.54585 1.05606 0.0
H451 H 0.76501 0.55171 1.08064 0.0
H452 H 0.70865 0.56557 1.09559 0.0
H453 H 0.91418 0.78289 1.00288 0.0
H454 H 0.92301 0.71926 1.00743 0.0
H455 H 0.8637 0.71319 0.98492 0.0
H456 H 0.91165 0.56807 0.99584 0.0
H457 H 0.76937 0.5657 0.94702 0.0
H458 H 0.86991 0.60066 1.07085 0.0
H459 H 0.93022 0.65687 1.04895 0.0
H460 H 0.91937 0.58309 1.05027 0.0
H461 H 0.70486 0.60116 1.01343 0.0
H462 H 0.69311 0.57424 0.9746 0.0
H463 H 0.74564 0.65082 0.98287 0.0
C464 C 0.15871 0.83227 0.40245 0.0
C465 C 0.13449 0.79374 0.42724 0.0
C466 C 0.18601 0.81948 0.37846 0.0
C467 C 0.18973 0.76706 0.37966 0.0
C468 C 0.17282 0.73266 0.40653 0.0
C469 C 0.14455 0.74605 0.43005 0.0
C470 C 0.20369 0.85815 0.35033 0.0
C471 C 0.18051 0.67933 0.40937 0.0
C472 C 0.14929 0.71258 0.30116 0.0
C473 C 0.20389 0.75103 0.2873 0.0
C474 C 0.14456 0.70864 0.33286 0.0
C475 C 0.19628 0.74193 0.35048 0.0
C476 C 0.25244 0.76746 0.33619 0.0
C477 C 0.25578 0.77237 0.30435 0.0
C478 C 0.08338 0.68007 0.34694 0.0
C479 C 0.30856 0.79863 0.35441 0.0
H480 H 0.15101 0.86918 0.40025 0.0
H481 H 0.12704 0.71719 0.44971 0.0
H482 H 0.24955 0.87182 0.34325 0.0
H483 H 0.17399 0.8328 0.3312 0.0
H484 H 0.20115 0.89902 0.35405 0.0
H485 H 0.16289 0.65581 0.43135 0.0
H486 H 0.15802 0.64739 0.39046 0.0
H487 H 0.22823 0.69399 0.40762 0.0
H488 H 0.109 0.69422 0.288 0.0
H489 H 0.29842 0.79992 0.2934 0.0
H490 H 0.07209 0.71498 0.35203 0.0
H491 H 0.08136 0.65783 0.3686 0.0
H492 H 0.04926 0.64703 0.33134 0.0
H493 H 0.32036 0.84533 0.35878 0.0
H494 H 0.34592 0.79944 0.34172 0.0
H495 H 0.30288 0.77666 0.37673 0.0
C496 C 0.44682 0.15038 0.77778 0.0
C497 C 0.3992 0.16078 0.77879 0.0
C498 C 0.4821 0.16317 0.75137 0.0
C499 C 0.468 0.18511 0.72538 0.0
C500 C 0.4249 0.20267 0.7278 0.0
C501 C 0.3919 0.19117 0.75467 0.0
C502 C 0.5305 0.14802 0.75078 0.0
C503 C 0.4076 0.22629 0.70085 0.0
C504 C 0.51514 0.22818 0.64581 0.0
C505 C 0.46936 0.1774 0.63172 0.0
C506 C 0.52496 0.22813 0.67716 0.0
C507 C 0.48628 0.17729 0.69435 0.0
C508 C 0.4491 0.12291 0.67907 0.0
C509 C 0.44125 0.12361 0.64765 0.0
C510 C 0.57037 0.28477 0.69245 0.0
C511 C 0.41014 0.06618 0.69634 0.0
H512 H 0.45375 0.12823 0.79669 0.0
H513 H 0.35542 0.19958 0.75517 0.0
H514 H 0.51045 0.09901 0.75123 0.0
H515 H 0.55983 0.16593 0.73045 0.0
H516 H 0.55785 0.16578 0.77158 0.0
H517 H 0.37352 0.23811 0.70689 0.0
H518 H 0.44669 0.26657 0.69159 0.0
H519 H 0.38963 0.19235 0.68242 0.0
H520 H 0.53896 0.26934 0.63314 0.0
H521 H 0.4071 0.08371 0.63662 0.0
H522 H 0.58728 0.27504 0.71339 0.0
H523 H 0.55 0.31163 0.69907 0.0
H524 H 0.60801 0.3119 0.67675 0.0
H525 H 0.3868 0.02717 0.6809 0.0
H526 H 0.37647 0.07067 0.70985 0.0
H527 H 0.43706 0.05736 0.71239 0.0
C528 C 0.43184 0.0621 0.21797 0.0
C529 C 0.38754 0.03563 0.19591 0.0
C530 C 0.48131 0.05488 0.21716 0.0
C531 C 0.48664 0.02023 0.19369 0.0
C532 C 0.44049 -0.00924 0.17225 0.0
C533 C 0.3912 -0.00136 0.17368 0.0
C534 C 0.52934 0.08697 0.24049 0.0
C535 C 0.4447 0.95358 1.14685 0.0
C536 C 0.64379 0.06181 0.17203 0.0
C537 C 0.64995 0.01826 0.18719 0.0
C538 C 0.59054 0.06234 0.17356 0.0
C539 C 0.54226 0.01816 0.19066 0.0
C540 C 0.54825 0.97394 0.20593 0.0
C541 C 0.60211 0.97451 0.204 0.0
C542 C 0.58614 0.11041 1.15699 0.0
C543 C 0.49793 0.92638 0.2245 0.0
H544 H 0.42903 0.09069 0.23521 0.0
H545 H 0.35719 -0.02157 1.15647 0.0
H546 H 0.54061 0.0557 0.25124 0.0
H547 H 0.57004 0.12205 0.22912 0.0
H548 H 0.51625 0.10815 0.25867 0.0
H549 H 0.40303 0.92949 1.13369 0.0
H550 H 0.48114 -0.01733 1.13099 0.0
H551 H 0.45537 0.92074 1.15613 0.0
H552 H 0.68055 0.09536 1.15876 0.0
H553 H 0.60676 0.94064 0.21563 0.0
H554 H 0.57759 0.13765 0.17356 0.0
H555 H 0.54839 0.09013 1.141 0.0
H556 H 0.62711 0.14031 1.14393 0.0
H557 H 0.48606 0.94719 0.24335 0.0
H558 H 0.50917 0.8943 0.23436 0.0
H559 H 0.45814 0.90157 0.21009 0.0
C560 C 0.43926 0.45733 0.55365 0.0
C561 C 0.4183 0.4134 0.53091 0.0
C562 C 0.49669 0.50669 0.55226 0.0
C563 C 0.53424 0.51226 0.52748 0.0
C564 C 0.51449 0.46622 0.50534 0.0
C565 C 0.45661 0.41703 0.50738 0.0
C566 C 0.51583 0.55457 0.57636 0.0
C567 C 0.55315 0.47062 0.47854 0.0
C568 C 0.65042 0.67041 0.50597 0.0
C569 C 0.70148 0.67609 0.51913 0.0
C570 C 0.59597 0.61699 0.50808 0.0
C571 C 0.59244 0.56814 0.52387 0.0
C572 C 0.64388 0.5738 0.53733 0.0
C573 C 0.69785 0.62778 0.53481 0.0
C574 C 0.54217 0.61295 0.49347 0.0
C575 C 0.64174 0.52289 0.55451 0.0
H576 H 0.40954 0.45456 0.57184 0.0
H577 H 0.44029 0.38341 0.48959 0.0
H578 H 0.55937 0.56568 0.58574 0.0
H579 H 0.52109 0.59566 0.56603 0.0
H580 H 0.48333 0.54115 0.59543 0.0
H581 H 0.53362 0.42879 0.46499 0.0
H582 H 0.5594 0.50725 0.46342 0.0
H583 H 0.59758 0.48142 0.48641 0.0
H584 H 0.6531 0.70771 0.49383 0.0
H585 H 0.73729 0.6321 0.54501 0.0
H586 H 0.50799 0.60402 0.51112 0.0
H587 H 0.52255 0.57535 0.47703 0.0
H588 H 0.55274 0.65438 0.48129 0.0
H589 H 0.61071 0.5107 0.57416 0.0
H590 H 0.68586 0.53394 0.5631 0.0
H591 H 0.62473 0.48313 0.53954 0.0
C592 C 0.13202 0.52003 0.83958 0.0
C593 C 0.08304 0.48411 0.85826 0.0
C594 C 0.15042 0.58042 0.83503 0.0
C595 C 0.11869 0.60501 0.84926 0.0
C596 C 0.07176 0.56963 0.86968 0.0
C597 C 0.0548 0.50989 0.87404 0.0
C598 C 0.20149 0.61684 0.81362 0.0
C599 C 0.03588 0.59317 0.88499 0.0
C600 C 0.16796 0.76998 0.85216 0.0
C601 C 0.13272 0.77328 0.82939 0.0
C602 C 0.16668 0.71622 0.85785 0.0
C603 C 0.1293 0.66487 0.84035 0.0
C604 C 0.09659 0.66936 0.8161 0.0
C605 C 0.09909 0.72357 0.8108 0.0
C606 C 0.20245 0.71344 0.88377 0.0
C607 C 0.05568 0.61587 0.79702 0.0
H608 H 0.15426 0.50036 0.82745 0.0
H609 H 0.01713 0.48244 0.88866 0.0
H610 H 0.18447 0.62446 0.79215 0.0
H611 H 0.232 0.66105 0.82376 0.0
H612 H 0.22683 0.59434 0.80797 0.0
H613 H 0.00679 0.56343 0.90342 0.0
H614 H 0.06497 0.63811 0.8947 0.0
H615 H 0.00759 0.59691 0.86765 0.0
H616 H 0.19407 0.80842 0.86655 0.0
H617 H 0.07207 0.72621 0.79307 0.0
H618 H 0.22594 0.68989 0.87653 0.0
H619 H 0.17234 0.68792 0.90288 0.0
H620 H 0.23536 0.75841 0.8923 0.0
H621 H 0.07919 0.59332 0.78825 0.0
H622 H 0.03753 0.62793 0.77739 0.0
H623 H 0.01811 0.58342 0.81134 0.0
C624 C 0.21355 0.07289 0.29334 0.0
C625 C 0.25384 0.10867 0.27059 0.0
C626 C 0.21224 0.09677 0.32243 0.0
C627 C 0.25298 0.15759 0.32932 0.0
C628 C 0.29406 0.19331 0.3065 0.0
C629 C 0.29369 0.16875 0.2777 0.0
C630 C 0.16706 0.05696 0.34578 0.0
C631 C 0.33914 0.25781 0.31256 0.0
C632 C 0.23353 0.24324 0.3966 0.0
C633 C 0.26933 0.23964 0.41911 0.0
C634 C 0.22613 0.21528 0.36773 0.0
C635 C 0.25595 0.18365 0.36074 0.0
C636 C 0.29281 0.1809 0.3832 0.0
C637 C 0.29881 0.20844 0.4118 0.0
C638 C 0.1856 0.21879 0.34483 0.0
C639 C 0.32661 0.14909 0.37696 0.0
H640 H 0.18209 0.02672 0.28818 0.0
H641 H 0.32533 0.19712 0.26055 0.0
H642 H 0.1897 0.04941 0.36491 0.0
H643 H 0.14323 0.0786 0.3554 0.0
H644 H 0.13424 0.01312 0.33601 0.0
H645 H 0.36757 0.28003 0.29235 0.0
H646 H 0.31651 0.28241 0.31942 0.0
H647 H 0.36792 0.26117 0.33172 0.0
H648 H 0.20983 0.26635 0.40183 0.0
H649 H 0.3267 0.20494 0.42868 0.0
H650 H 0.14866 0.17334 0.33965 0.0
H651 H 0.20979 0.23795 0.32315 0.0
H652 H 0.16682 0.24619 0.3532 0.0
H653 H 0.29552 0.10197 0.37086 0.0
H654 H 0.35298 0.15025 0.39684 0.0
H655 H 0.35702 0.16981 0.35724 0.0
C656 C 0.18847 0.33066 0.61256 0.0
C657 C 0.20636 0.28932 0.60541 0.0
C658 C 0.16458 0.33197 0.64131 0.0
C659 C 0.15713 0.29034 0.66396 0.0
C660 C 0.17481 0.24811 0.65697 0.0
C661 C 0.19968 0.24845 0.62797 0.0
C662 C 0.14799 0.37877 0.64756 0.0
C663 C 0.16739 0.20247 0.68015 0.0
C664 C 0.15531 0.33848 0.74651 0.0
C665 C 0.09454 0.31053 0.75383 0.0
C666 C 0.17582 0.33113 0.71789 0.0
C667 C 0.13496 0.29446 0.69542 0.0
C668 C 0.07341 0.26566 0.70254 0.0
C669 C 0.05393 0.27426 0.7315 0.0
C670 C 0.24165 0.36353 0.71161 0.0
C671 C 0.02809 0.22566 0.67952 0.0
H672 H 0.19346 0.36276 0.59554 0.0
H673 H 0.21264 0.21589 0.62277 0.0
H674 H 0.10072 0.35739 0.6544 0.0
H675 H 0.17446 0.40755 0.6668 0.0
H676 H 0.15546 0.40734 0.62745 0.0
H677 H 0.17724 0.16893 0.67037 0.0
H678 H 0.19749 0.22489 0.69957 0.0
H679 H 0.1215 0.1792 0.68938 0.0
H680 H 0.18756 0.3667 0.76331 0.0
H681 H 0.00703 0.25172 0.73682 0.0
H682 H 0.25244 0.39439 0.69219 0.0
H683 H 0.25575 0.33136 0.70504 0.0
H684 H 0.26785 0.38949 0.73163 0.0
H685 H 0.02923 0.25228 0.6597 0.0
H686 H -0.01748 0.20239 0.68922 0.0
H687 H 0.03875 0.19198 0.67089 0.0
C688 C 0.93192 0.2312 0.94485 0.0
C689 C -0.00708 0.26991 0.93975 0.0
C690 C 0.90944 0.20264 0.973 0.0
C691 C 0.94839 0.21263 0.99736 0.0
C692 C 0.01018 0.25105 0.99246 0.0
C693 C 0.03168 0.27914 0.96381 0.0
C694 C 0.84345 0.16189 0.97673 0.0
C695 C 0.05357 0.26269 1.01758 0.0
C696 C 0.87745 0.18799 1.07681 0.0
C697 C 0.86543 0.13062 1.08441 0.0
C698 C 0.90606 0.21558 1.04925 0.0
C699 C 0.9234 0.18548 1.02821 0.0
C700 C 0.91232 0.12787 1.03585 0.0
C701 C 0.8837 0.10128 1.06375 0.0
C702 C 0.91701 0.277 1.04245 0.0
C703 C 0.93009 0.09392 1.01437 0.0
H704 H 0.90106 0.22271 0.92663 0.0
H705 H 0.07884 0.30794 0.96023 0.0
H706 H 0.83363 0.11735 0.98437 0.0
H707 H 0.82625 0.17985 0.99455 0.0
H708 H 0.81917 0.15651 0.95526 0.0
H709 H 0.04505 0.28486 1.03707 0.0
H710 H 0.0476 0.22007 1.02612 0.0
H711 H 0.10022 0.29116 1.00992 0.0
H712 H 0.86462 0.21185 1.09255 0.0
H713 H 0.87596 0.05754 1.06941 0.0
H714 H 0.89106 0.27512 1.02225 0.0
H715 H -0.03558 0.30738 1.03684 0.0
H716 H 0.90455 0.2962 1.06188 0.0
H717 H 0.90456 0.08368 0.99297 0.0
H718 H 0.92227 0.05156 1.0244 0.0
H719 H -0.02239 0.12144 1.00816 0.0
C720 C 0.8347 0.05639 0.29415 0.0
C721 C 0.81885 0.01908 0.26838 0.0
C722 C 0.83664 0.03519 0.32362 0.0
C723 C 0.82076 0.97477 0.32776 0.0
C724 C 0.80455 0.93719 0.30179 0.0
C725 C 0.80431 0.95971 0.27275 0.0
C726 C 0.85606 0.07756 0.35035 0.0
C727 C 0.78679 0.87255 0.30467 0.0
C728 C 0.86279 0.91714 0.39809 0.0
C729 C 0.81031 0.89142 0.41566 0.0
C730 C 0.86774 0.94634 0.37024 0.0
C731 C 0.81879 0.94954 0.35905 0.0
C732 C 0.76598 0.92412 0.37684 0.0
C733 C 0.76255 0.89597 0.40481 0.0
C734 C 0.92544 0.97341 0.35268 0.0
C735 C 0.71241 0.92573 0.36605 0.0
H736 H 0.84673 0.1024 0.29122 0.0
H737 H 0.79174 0.93 0.25326 0.0
H738 H 0.8189 0.06314 0.36684 0.0
H739 H 0.89266 0.07698 0.36249 0.0
H740 H 0.87114 0.12391 0.34329 0.0
H741 H 0.82373 0.86894 0.31436 0.0
H742 H 0.74856 0.84968 0.32056 0.0
H743 H 0.77456 0.84877 0.28243 0.0
H744 H 0.90061 0.91522 0.40629 0.0
H745 H 0.72202 0.87717 0.41816 0.0
H746 H 0.94001 0.02001 0.34646 0.0
H747 H 0.9192 0.94831 0.33115 0.0
H748 H -0.03884 0.97298 0.36583 0.0
H749 H 0.72416 0.97229 0.36169 0.0
H750 H 0.67533 0.90591 0.38282 0.0
H751 H 0.69696 0.90101 0.3442 0.0
C752 C 0.83079 0.83819 0.62619 0.0
C753 C 0.866 0.84332 0.60065 0.0
C754 C 0.84967 0.83699 0.65624 0.0
C755 C 0.90489 0.84041 0.66113 0.0
C756 C 0.94052 0.84579 0.63544 0.0
C757 C 0.92093 0.84735 0.60587 0.0
C758 C 0.81054 0.83214 0.68287 0.0
C759 C -0.00031 0.84981 0.63914 0.0
C760 C -0.01517 0.89156 0.73786 0.0
C761 C -0.02692 0.83783 0.75137 0.0
C762 C -0.03794 0.89289 0.70907 0.0
C763 C 0.92619 0.83918 0.69291 0.0
C764 C 0.91367 0.78471 0.7065 0.0
C765 C 0.93709 0.78466 0.73542 0.0
C766 C -0.02252 0.95222 0.6957 0.0
C767 C 0.8763 0.72633 0.69019 0.0
H768 H 0.78853 0.83526 0.62274 0.0
H769 H 0.94905 0.8513 0.58664 0.0
H770 H 0.79883 0.7917 0.69624 0.0
H771 H 0.83475 0.87092 0.69831 0.0
H772 H 0.76914 0.8301 0.67554 0.0
H773 H 0.02201 0.85319 0.61694 0.0
H774 H 0.02926 0.88924 0.65319 0.0
H775 H -0.00621 0.81004 0.6513 0.0
H776 H 0.01241 0.93317 0.74971 0.0
H777 H 0.92752 0.74285 0.74541 0.0
H778 H 0.93666 0.95197 0.68908 0.0
H779 H 0.00464 0.96048 0.67474 0.0
H780 H 0.0026 -0.01037 0.71185 0.0
H781 H 0.83336 0.72161 0.68365 0.0
H782 H 0.86758 0.68762 0.70437 0.0
H783 H 0.89904 0.72538 0.66887 0.0
C784 C 0.16208 0.91512 0.9394 0.0
C785 C 0.10129 0.88468 0.93296 0.0
C786 C 0.18391 0.93933 0.96853 0.0
C787 C 0.14448 0.93536 0.9921 0.0
C788 C 0.08278 0.9052 0.98564 0.0
C789 C 0.06194 0.87948 0.95641 0.0
C790 C 0.24963 0.96949 0.97405 0.0
C791 C 0.03836 0.90032 1.00937 0.0
C792 C 0.19545 0.94473 1.07469 0.0
C793 C 0.21834 0.00494 1.08271 0.0
C794 C 0.17094 0.92195 1.0458 0.0
C795 C 0.1682 0.95963 1.02369 0.0
C796 C 0.19113 0.02061 1.03145 0.0
C797 C 0.21632 0.04259 1.06061 0.0
C798 C 0.14762 0.85697 1.03902 0.0
C799 C 0.18702 0.06224 1.00936 0.0
H800 H 0.193 0.92054 0.92132 0.0
H801 H 0.01506 0.8577 0.95154 0.0
H802 H 0.26714 0.0168 0.98029 0.0
H803 H 0.25829 0.94808 0.99346 0.0
H804 H 0.2744 0.96762 0.95375 0.0
H805 H -0.00215 0.89515 0.99863 0.0
H806 H 0.02506 0.86049 1.02358 0.0
H807 H 0.0571 0.93983 1.02461 0.0
H808 H 0.19613 0.91458 1.09127 0.0
H809 H 0.23252 0.08877 1.06644 0.0
H810 H 0.16876 0.85211 1.01797 0.0
H811 H 0.0993 0.8342 1.03498 0.0
H812 H 0.15565 0.83402 1.05795 0.0
H813 H 0.21191 0.10921 1.01726 0.0
H814 H 0.13983 0.04896 1.00664 0.0
H815 H 0.20409 0.05924 0.98655 0.0
loop_
_geom_bond_atom_site_label_1
_geom_bond_atom_site_label_2
_geom_bond_distance
_geom_bond_site_symmetry_2
_ccdc_geom_bond_type
La0 C2 2.928 . S
La0 O20 2.521 . S
La0 O21 2.628 . S
La0 O22 2.554 . S
La0 O23 2.757 1_554 S
La0 O24 2.470 . S
La0 O29 2.482 . S
La0 O31 2.503 1_554 S
La1 C11 2.928 . S
La1 O23 2.482 . S
La1 O25 2.503 1_556 S
La1 O26 2.521 . S
La1 O27 2.628 . S
La1 O28 2.554 . S
La1 O29 2.757 1_556 S
La1 O30 2.470 . S
C2 La0 2.928 . S
C2 C3 1.503 . S
C2 O20 1.261 . S
C2 O21 1.243 . S
C3 C2 1.503 . S
C3 C4 1.394 . S
C3 C8 1.373 . S
C4 C3 1.394 . S
C4 C5 1.380 1_545 S
C4 H32 0.929 . S
C5 C4 1.380 1_565 S
C5 C6 1.376 1_565 S
C5 H33 0.930 . S
C6 C5 1.376 1_545 S
C6 C7 1.370 . S
C7 C6 1.370 . S
C7 C8 1.396 . S
C7 H34 0.929 . S
C8 C3 1.373 . S
C8 C7 1.396 . S
C8 H35 0.929 . S
C9 O22 1.240 . S
C9 O23 1.289 1_554 S
C10 O24 1.258 . S
C10 O25 1.256 . S
C11 La1 2.928 . S
C11 C12 1.503 . S
C11 O26 1.261 . S
C11 O27 1.243 . S
C12 C11 1.503 . S
C12 C13 1.394 . S
C12 C17 1.373 . S
C13 C12 1.394 . S
C13 C14 1.380 . S
C13 H36 0.930 . S
C14 C13 1.380 . S
C14 C15 1.376 . S
C14 H37 0.930 . S
C15 C14 1.376 . S
C15 C16 1.370 . S
C16 C15 1.370 . S
C16 C17 1.396 . S
C16 H38 0.929 . S
C17 C12 1.373 . S
C17 C16 1.396 . S
C17 H39 0.929 . S
C18 O28 1.240 1_554 S
C18 O29 1.289 . S
C19 O30 1.258 . S
C19 O31 1.256 . S
O20 La0 2.521 . S
O20 C2 1.261 . S
O21 La0 2.628 . S
O21 C2 1.243 . S
O22 La0 2.554 . S
O22 C9 1.240 . S
O23 La0 2.757 1_556 S
O23 La1 2.482 . S
O23 C9 1.289 1_556 S
O24 La0 2.470 . S
O24 C10 1.258 . S
O25 La1 2.503 1_554 S
O25 C10 1.256 . S
O26 La1 2.521 . S
O26 C11 1.261 . S
O27 La1 2.628 . S
O27 C11 1.243 . S
O28 La1 2.554 . S
O28 C18 1.240 1_556 S
O29 La0 2.482 . S
O29 La1 2.757 1_554 S
O29 C18 1.289 . S
O30 La1 2.470 . S
O30 C19 1.258 . S
O31 La0 2.503 1_556 S
O31 C19 1.256 . S
H32 C4 0.929 . S
H33 C5 0.930 . S
H34 C7 0.929 . S
H35 C8 0.929 . S
H36 C13 0.930 . S
H37 C14 0.930 . S
H38 C16 0.929 . S
H39 C17 0.929 . S
La40 C42 2.928 . S
La40 O60 2.521 . S
La40 O61 2.628 . S
La40 O62 2.554 . S
La40 O63 2.757 . S
La40 O64 2.470 . S
La40 O69 2.482 . S
La40 O71 2.503 . S
La41 C51 2.928 . S
La41 O63 2.482 . S
La41 O65 2.503 . S
La41 O66 2.521 . S
La41 O67 2.628 . S
La41 O68 2.554 . S
La41 O69 2.757 . S
La41 O70 2.470 . S
C42 La40 2.928 . S
C42 C43 1.503 . S
C42 O60 1.261 . S
C42 O61 1.243 . S
C43 C42 1.503 . S
C43 C44 1.394 . S
C43 C48 1.373 . S
C44 C43 1.394 . S
C44 C45 1.380 . S
C44 H72 0.930 . S
C45 C44 1.380 . S
C45 C46 1.376 . S
C45 H73 0.930 . S
C46 C45 1.376 . S
C46 C47 1.370 . S
C47 C46 1.370 . S
C47 C48 1.396 . S
C47 H74 0.929 . S
C48 C43 1.373 . S
C48 C47 1.396 . S
C48 H75 0.929 . S
C49 O62 1.240 . S
C49 O63 1.289 . S
C50 O64 1.258 . S
C50 O65 1.256 . S
C51 La41 2.928 . S
C51 C52 1.503 . S
C51 O66 1.261 . S
C51 O67 1.243 . S
C52 C51 1.503 . S
C52 C53 1.394 . S
C52 C57 1.373 . S
C53 C52 1.394 . S
C53 C54 1.380 . S
C53 H76 0.930 . S
C54 C53 1.380 . S
C54 C55 1.376 . S
C54 H77 0.930 . S
C55 C54 1.376 . S
C55 C56 1.370 . S
C56 C55 1.370 . S
C56 C57 1.396 . S
C56 H78 0.929 . S
C57 C52 1.373 . S
C57 C56 1.396 . S
C57 H79 0.929 . S
C58 O68 1.240 . S
C58 O69 1.289 . S
C59 O70 1.258 . S
C59 O71 1.256 . S
O60 La40 2.521 . S
O60 C42 1.261 . S
O61 La40 2.628 . S
O61 C42 1.243 . S
O62 La40 2.554 . S
O62 C49 1.240 . S
O63 La40 2.757 . S
O63 La41 2.482 . S
O63 C49 1.289 . S
O64 La40 2.470 . S
O64 C50 1.258 . S
O65 La41 2.503 . S
O65 C50 1.256 . S
O66 La41 2.521 . S
O66 C51 1.261 . S
O67 La41 2.628 . S
O67 C51 1.243 . S
O68 La41 2.554 . S
O68 C58 1.240 . S
O69 La40 2.482 . S
O69 La41 2.757 . S
O69 C58 1.289 . S
O70 La41 2.470 . S
O70 C59 1.258 . S
O71 La40 2.503 . S
O71 C59 1.256 . S
H72 C44 0.930 . S
H73 C45 0.930 . S
H74 C47 0.929 . S
H75 C48 0.929 . S
H76 C53 0.930 . S
H77 C54 0.930 . S
H78 C56 0.929 . S
H79 C57 0.929 . S
La80 C82 2.928 . S
La80 O100 2.521 . S
La80 O101 2.628 . S
La80 O102 2.554 . S
La80 O103 2.762 . S
La80 O104 2.470 1_455 S
La80 O109 2.469 1_455 S
La80 O111 2.503 . S
La81 C91 2.928 . S
La81 O103 2.465 1_655 S
La81 O105 2.503 . S
La81 O106 2.521 . S
La81 O107 2.628 . S
La81 O108 2.554 . S
La81 O109 2.760 . S
La81 O110 2.470 1_655 S
C82 La80 2.928 . S
C82 C83 1.503 . S
C82 O100 1.261 . S
C82 O101 1.243 . S
C83 C82 1.503 . S
C83 C84 1.394 . S
C83 C88 1.373 . S
C84 C83 1.394 . S
C84 C85 1.380 . S
C84 H112 0.930 . S
C85 C84 1.380 . S
C85 C86 1.376 . S
C85 H113 0.930 . S
C86 C85 1.376 . S
C86 C87 1.370 . S
C87 C86 1.370 . S
C87 C88 1.396 . S
C87 H114 0.929 . S
C88 C83 1.373 . S
C88 C87 1.396 . S
C88 H115 0.929 . S
C89 O102 1.240 . S
C89 O103 1.304 . S
C90 O104 1.258 . S
C90 O105 1.256 . S
C91 La81 2.928 . S
C91 C92 1.503 . S
C91 O106 1.261 . S
C91 O107 1.243 . S
C92 C91 1.503 . S
C92 C93 1.394 . S
C92 C97 1.373 . S
C93 C92 1.394 . S
C93 C94 1.380 . S
C93 H116 0.930 . S
C94 C93 1.380 . S
C94 C95 1.376 . S
C94 H117 0.930 . S
C95 C94 1.376 . S
C95 C96 1.370 . S
C96 C95 1.370 . S
C96 C97 1.396 . S
C96 H118 0.929 . S
C97 C92 1.373 . S
C97 C96 1.396 . S
C97 H119 0.929 . S
C98 O108 1.240 . S
C98 O109 1.300 . S
C99 O110 1.258 . S
C99 O111 1.256 . S
O100 La80 2.521 . S
O100 C82 1.261 . S
O101 La80 2.628 . S
O101 C82 1.243 . S
O102 La80 2.554 . S
O102 C89 1.240 . S
O103 La80 2.762 . S
O103 La81 2.465 1_455 S
O103 C89 1.304 . S
O104 La80 2.470 1_655 S
O104 C90 1.258 . S
O105 La81 2.503 . S
O105 C90 1.256 . S
O106 La81 2.521 . S
O106 C91 1.261 . S
O107 La81 2.628 . S
O107 C91 1.243 . S
O108 La81 2.554 . S
O108 C98 1.240 . S
O109 La80 2.469 1_655 S
O109 La81 2.760 . S
O109 C98 1.300 . S
O110 La81 2.470 1_455 S
O110 C99 1.258 . S
O111 La80 2.503 . S
O111 C99 1.256 . S
H112 C84 0.930 . S
H113 C85 0.930 . S
H114 C87 0.929 . S
H115 C88 0.929 . S
H116 C93 0.930 . S
H117 C94 0.930 . S
H118 C96 0.929 . S
H119 C97 0.929 . S
La120 C122 2.928 . S
La120 O140 2.521 . S
La120 O141 2.628 . S
La120 O142 2.554 . S
La120 O143 2.757 1_554 S
La120 O144 2.470 1_545 S
La120 O149 2.482 . S
La120 O151 2.503 1_554 S
La121 C131 2.928 . S
La121 O143 2.482 1_565 S
La121 O145 2.503 1_556 S
La121 O146 2.521 . S
La121 O147 2.628 . S
La121 O148 2.554 . S
La121 O149 2.757 1_566 S
La121 O150 2.470 1_565 S
C122 La120 2.928 . S
C122 C123 1.503 . S
C122 O140 1.261 . S
C122 O141 1.243 . S
C123 C122 1.503 . S
C123 C124 1.394 . S
C123 C128 1.373 . S
C124 C123 1.394 . S
C124 C125 1.380 . S
C124 H152 0.930 . S
C125 C124 1.380 . S
C125 C126 1.376 . S
C125 H153 0.930 . S
C126 C125 1.376 . S
C126 C127 1.370 . S
C127 C126 1.370 . S
C127 C128 1.396 . S
C127 H154 0.929 . S
C128 C123 1.373 . S
C128 C127 1.396 . S
C128 H155 0.929 . S
C129 O142 1.240 . S
C129 O143 1.289 1_554 S
C130 O144 1.258 . S
C130 O145 1.256 . S
C131 La121 2.928 . S
C131 C132 1.503 . S
C131 O146 1.261 . S
C131 O147 1.243 . S
C132 C131 1.503 . S
C132 C133 1.394 . S
C132 C137 1.373 . S
C133 C132 1.394 . S
C133 C134 1.380 . S
C133 H156 0.930 . S
C134 C133 1.380 . S
C134 C135 1.376 . S
C134 H157 0.930 . S
C135 C134 1.376 . S
C135 C136 1.370 . S
C136 C135 1.370 . S
C136 C137 1.396 . S
C136 H158 0.929 . S
C137 C132 1.373 . S
C137 C136 1.396 . S
C137 H159 0.929 . S
C138 O148 1.240 1_554 S
C138 O149 1.289 1_565 S
C139 O150 1.258 . S
C139 O151 1.256 . S
O140 La120 2.521 . S
O140 C122 1.261 . S
O141 La120 2.628 . S
O141 C122 1.243 . S
O142 La120 2.554 . S
O142 C129 1.240 . S
O143 La120 2.757 1_556 S
O143 La121 2.482 1_545 S
O143 C129 1.289 1_556 S
O144 La120 2.470 1_565 S
O144 C130 1.258 . S
O145 La121 2.503 1_554 S
O145 C130 1.256 . S
O146 La121 2.521 . S
O146 C131 1.261 . S
O147 La121 2.628 . S
O147 C131 1.243 . S
O148 La121 2.554 . S
O148 C138 1.240 1_556 S
O149 La120 2.482 . S
O149 La121 2.757 1_544 S
O149 C138 1.289 1_545 S
O150 La121 2.470 1_545 S
O150 C139 1.258 . S
O151 La120 2.503 1_556 S
O151 C139 1.256 . S
H152 C124 0.930 . S
H153 C125 0.930 . S
H154 C127 0.929 . S
H155 C128 0.929 . S
H156 C133 0.930 . S
H157 C134 0.930 . S
H158 C136 0.929 . S
H159 C137 0.929 . S
La160 C162 2.928 . S
La160 O180 2.521 . S
La160 O181 2.628 . S
La160 O182 2.554 . S
La160 O183 2.757 . S
La160 O184 2.470 . S
La160 O189 2.482 . S
La160 O191 2.503 . S
La161 C171 2.928 . S
La161 O183 2.482 . S
La161 O185 2.503 . S
La161 O186 2.521 . S
La161 O187 2.628 1_655 S
La161 O188 2.554 . S
La161 O189 2.757 . S
La161 O190 2.470 . S
C162 La160 2.928 . S
C162 C163 1.503 . S
C162 O180 1.261 . S
C162 O181 1.243 . S
C163 C162 1.503 . S
C163 C164 1.394 . S
C163 C168 1.373 . S
C164 C163 1.394 . S
C164 C165 1.380 . S
C164 H192 0.930 . S
C165 C164 1.380 . S
C165 C166 1.376 . S
C165 H193 0.930 . S
C166 C165 1.376 . S
C166 C167 1.370 . S
C167 C166 1.370 . S
C167 C168 1.396 . S
C167 H194 0.929 . S
C168 C163 1.373 . S
C168 C167 1.396 . S
C168 H195 0.929 . S
C169 O182 1.240 1_455 S
C169 O183 1.289 1_455 S
C170 O184 1.258 . S
C170 O185 1.256 . S
C171 La161 2.928 . S
C171 C172 1.503 1_655 S
C171 O186 1.261 . S
C171 O187 1.243 1_655 S
C172 C171 1.503 1_455 S
C172 C173 1.394 1_455 S
C172 C177 1.373 . S
C173 C172 1.394 1_655 S
C173 C174 1.380 1_655 S
C173 H196 0.930 . S
C174 C173 1.380 1_455 S
C174 C175 1.376 . S
C174 H197 0.930 1_455 S
C175 C174 1.376 . S
C175 C176 1.370 . S
C176 C175 1.370 . S
C176 C177 1.396 . S
C176 H198 0.929 . S
C177 C172 1.373 . S
C177 C176 1.396 . S
C177 H199 0.929 . S
C178 O188 1.240 . S
C178 O189 1.289 . S
C179 O190 1.258 . S
C179 O191 1.256 . S
O180 La160 2.521 . S
O180 C162 1.261 . S
O181 La160 2.628 . S
O181 C162 1.243 . S
O182 La160 2.554 . S
O182 C169 1.240 1_655 S
O183 La160 2.757 . S
O183 La161 2.482 . S
O183 C169 1.289 1_655 S
O184 La160 2.470 . S
O184 C170 1.258 . S
O185 La161 2.503 . S
O185 C170 1.256 . S
O186 La161 2.521 . S
O186 C171 1.261 . S
O187 La161 2.628 1_455 S
O187 C171 1.243 1_455 S
O188 La161 2.554 . S
O188 C178 1.240 . S
O189 La160 2.482 . S
O189 La161 2.757 . S
O189 C178 1.289 . S
O190 La161 2.470 . S
O190 C179 1.258 . S
O191 La160 2.503 . S
O191 C179 1.256 . S
H192 C164 0.930 . S
H193 C165 0.930 . S
H194 C167 0.929 . S
H195 C168 0.929 . S
H196 C173 0.930 . S
H197 C174 0.930 1_655 S
H198 C176 0.929 . S
H199 C177 0.929 . S
La200 C202 2.928 . S
La200 O220 2.521 . S
La200 O221 2.628 . S
La200 O222 2.554 . S
La200 O223 2.757 . S
La200 O224 2.470 . S
La200 O229 2.482 . S
La200 O231 2.503 . S
La201 C211 2.928 . S
La201 O223 2.482 . S
La201 O225 2.503 . S
La201 O226 2.521 . S
La201 O227 2.628 1_565 S
La201 O228 2.554 . S
La201 O229 2.757 . S
La201 O230 2.470 . S
C202 La200 2.928 . S
C202 C203 1.503 . S
C202 O220 1.261 . S
C202 O221 1.243 . S
C203 C202 1.503 . S
C203 C204 1.394 . S
C203 C208 1.373 . S
C204 C203 1.394 . S
C204 C205 1.380 1_455 S
C204 H232 0.930 1_455 S
C205 C204 1.380 1_655 S
C205 C206 1.376 1_655 S
C205 H233 0.930 . S
C206 C205 1.376 1_455 S
C206 C207 1.370 . S
C207 C206 1.370 . S
C207 C208 1.396 . S
C207 H234 0.929 . S
C208 C203 1.373 . S
C208 C207 1.396 . S
C208 H235 0.929 . S
C209 O222 1.240 1_545 S
C209 O223 1.289 1_545 S
C210 O224 1.258 . S
C210 O225 1.256 . S
C211 La201 2.928 . S
C211 C212 1.503 1_565 S
C211 O226 1.261 . S
C211 O227 1.243 1_565 S
C212 C211 1.503 1_545 S
C212 C213 1.394 1_545 S
C212 C217 1.373 . S
C213 C212 1.394 1_565 S
C213 C214 1.380 1_565 S
C213 H236 0.930 . S
C214 C213 1.380 1_545 S
C214 C215 1.376 . S
C214 H237 0.930 1_545 S
C215 C214 1.376 . S
C215 C216 1.370 . S
C216 C215 1.370 . S
C216 C217 1.396 . S
C216 H238 0.929 . S
C217 C212 1.373 . S
C217 C216 1.396 . S
C217 H239 0.929 . S
C218 O228 1.240 . S
C218 O229 1.289 . S
C219 O230 1.258 . S
C219 O231 1.256 . S
O220 La200 2.521 . S
O220 C202 1.261 . S
O221 La200 2.628 . S
O221 C202 1.243 . S
O222 La200 2.554 . S
O222 C209 1.240 1_565 S
O223 La200 2.757 . S
O223 La201 2.482 . S
O223 C209 1.289 1_565 S
O224 La200 2.470 . S
O224 C210 1.258 . S
O225 La201 2.503 . S
O225 C210 1.256 . S
O226 La201 2.521 . S
O226 C211 1.261 . S
O227 La201 2.628 1_545 S
O227 C211 1.243 1_545 S
O228 La201 2.554 . S
O228 C218 1.240 . S
O229 La200 2.482 . S
O229 La201 2.757 . S
O229 C218 1.289 . S
O230 La201 2.470 . S
O230 C219 1.258 . S
O231 La200 2.503 . S
O231 C219 1.256 . S
H232 C204 0.930 1_655 S
H233 C205 0.930 . S
H234 C207 0.929 . S
H235 C208 0.929 . S
H236 C213 0.930 . S
H237 C214 0.930 1_565 S
H238 C216 0.929 . S
H239 C217 0.929 . S
C240 C241 1.391 1_566 S
C240 C242 1.394 1_665 S
C240 H256 0.931 . S
C241 C240 1.391 1_544 S
C241 C245 1.376 . S
C242 C240 1.394 1_445 S
C242 C243 1.369 . S
C242 C246 1.531 . S
C243 C242 1.369 . S
C243 C244 1.410 1_556 S
C243 C251 1.506 . S
C244 C243 1.410 1_554 S
C244 C245 1.392 1_455 S
C244 C247 1.511 . S
C245 C241 1.376 . S
C245 C244 1.392 1_655 S
C245 H257 0.929 . S
C246 C242 1.531 . S
C246 H258 0.960 . S
C246 H259 0.962 1_545 S
C246 H260 0.960 1_545 S
C247 C244 1.511 . S
C247 H261 0.961 . S
C247 H262 0.961 . S
C247 H263 0.961 . S
C248 C249 1.370 . S
C248 C250 1.363 . S
C248 H264 0.931 . S
C249 C248 1.370 . S
C249 C253 1.408 1_554 S
C250 C248 1.363 . S
C250 C251 1.343 1_554 S
C250 C254 1.524 . S
C251 C243 1.506 . S
C251 C250 1.343 1_556 S
C251 C252 1.429 . S
C252 C251 1.429 . S
C252 C253 1.404 . S
C252 C255 1.539 . S
C253 C249 1.408 1_556 S
C253 C252 1.404 . S
C253 H265 0.930 . S
C254 C250 1.524 . S
C254 H266 0.956 . S
C254 H267 0.961 . S
C254 H268 0.961 . S
C255 C252 1.539 . S
C255 H269 0.958 . S
C255 H270 0.961 . S
C255 H271 0.960 . S
H256 C240 0.931 . S
H257 C245 0.929 . S
H258 C246 0.960 . S
H259 C246 0.962 1_565 S
H260 C246 0.960 1_565 S
H261 C247 0.961 . S
H262 C247 0.961 . S
H263 C247 0.961 . S
H264 C248 0.931 . S
H265 C253 0.930 . S
H266 C254 0.956 . S
H267 C254 0.961 . S
H268 C254 0.961 . S
H269 C255 0.958 . S
H270 C255 0.961 . S
H271 C255 0.960 . S
C272 C273 1.391 . S
C272 C274 1.394 1_565 S
C272 H288 0.931 . S
C273 C272 1.391 . S
C273 C277 1.376 1_455 S
C274 C272 1.394 1_545 S
C274 C275 1.369 . S
C274 C278 1.531 . S
C275 C274 1.369 . S
C275 C276 1.410 . S
C275 C283 1.503 . S
C276 C275 1.410 . S
C276 C277 1.392 1_445 S
C276 C279 1.511 1_455 S
C277 C273 1.376 1_655 S
C277 C276 1.392 1_665 S
C277 H289 0.929 . S
C278 C274 1.531 . S
C278 H290 0.960 . S
C278 H291 0.962 . S
C278 H292 0.960 . S
C279 C276 1.511 1_655 S
C279 H293 0.961 . S
C279 H294 0.961 1_655 S
C279 H295 0.961 . S
C280 C281 1.370 . S
C280 C282 1.363 . S
C280 H296 0.931 . S
C281 C280 1.370 . S
C281 C285 1.408 . S
C282 C280 1.363 . S
C282 C283 1.370 . S
C282 C286 1.524 . S
C283 C275 1.503 . S
C283 C282 1.370 . S
C283 C284 1.403 . S
C284 C283 1.403 . S
C284 C285 1.404 . S
C284 C287 1.539 . S
C285 C281 1.408 . S
C285 C284 1.404 . S
C285 H297 0.930 . S
C286 C282 1.524 . S
C286 H298 0.956 . S
C286 H299 0.961 . S
C286 H300 0.961 . S
C287 C284 1.539 . S
C287 H301 0.958 . S
C287 H302 0.961 . S
C287 H303 0.960 . S
H288 C272 0.931 . S
H289 C277 0.929 . S
H290 C278 0.960 . S
H291 C278 0.962 . S
H292 C278 0.960 . S
H293 C279 0.961 . S
H294 C279 0.961 1_455 S
H295 C279 0.961 . S
H296 C280 0.931 . S
H297 C285 0.930 . S
H298 C286 0.956 . S
H299 C286 0.961 . S
H300 C286 0.961 . S
H301 C287 0.958 . S
H302 C287 0.961 . S
H303 C287 0.960 . S
C304 C305 1.391 . S
C304 C306 1.394 . S
C304 H320 0.931 . S
C305 C304 1.391 . S
C305 C309 1.376 . S
C306 C304 1.394 . S
C306 C307 1.369 . S
C306 C310 1.531 . S
C307 C306 1.369 . S
C307 C308 1.410 . S
C307 C315 1.503 . S
C308 C307 1.410 . S
C308 C309 1.392 . S
C308 C311 1.511 . S
C309 C305 1.376 . S
C309 C308 1.392 . S
C309 H321 0.929 . S
C310 C306 1.531 . S
C310 H322 0.960 . S
C310 H323 0.962 . S
C310 H324 0.960 . S
C311 C308 1.511 . S
C311 H325 0.961 . S
C311 H326 0.961 . S
C311 H327 0.961 . S
C312 C313 1.370 1_655 S
C312 C314 1.363 1_655 S
C312 H328 0.931 . S
C313 C312 1.370 1_455 S
C313 C317 1.408 . S
C314 C312 1.363 1_455 S
C314 C315 1.370 . S
C314 C318 1.524 1_455 S
C315 C307 1.503 . S
C315 C314 1.370 . S
C315 C316 1.403 . S
C316 C315 1.403 . S
C316 C317 1.404 . S
C316 C319 1.539 . S
C317 C313 1.408 . S
C317 C316 1.404 . S
C317 H329 0.930 . S
C318 C314 1.524 1_655 S
C318 H330 0.956 1_655 S
C318 H331 0.961 1_655 S
C318 H332 0.961 1_545 S
C319 C316 1.539 . S
C319 H333 0.958 . S
C319 H334 0.961 . S
C319 H335 0.960 . S
H320 C304 0.931 . S
H321 C309 0.929 . S
H322 C310 0.960 . S
H323 C310 0.962 . S
H324 C310 0.960 . S
H325 C311 0.961 . S
H326 C311 0.961 . S
H327 C311 0.961 . S
H328 C312 0.931 . S
H329 C317 0.930 . S
H330 C318 0.956 1_455 S
H331 C318 0.961 1_455 S
H332 C318 0.961 1_565 S
H333 C319 0.958 . S
H334 C319 0.961 . S
H335 C319 0.960 . S
C336 C337 1.391 . S
C336 C338 1.394 . S
C336 H352 0.931 . S
C337 C336 1.391 . S
C337 C341 1.376 . S
C338 C336 1.394 . S
C338 C339 1.369 . S
C338 C342 1.531 . S
C339 C338 1.369 . S
C339 C340 1.410 . S
C339 C347 1.503 . S
C340 C339 1.410 . S
C340 C341 1.392 . S
C340 C343 1.511 . S
C341 C337 1.376 . S
C341 C340 1.392 . S
C341 H353 0.929 . S
C342 C338 1.531 . S
C342 H354 0.960 . S
C342 H355 0.962 . S
C342 H356 0.960 . S
C343 C340 1.511 . S
C343 H357 0.961 . S
C343 H358 0.961 . S
C343 H359 0.961 . S
C344 C345 1.370 . S
C344 C346 1.363 . S
C344 H360 0.931 . S
C345 C344 1.370 . S
C345 C349 1.408 . S
C346 C344 1.363 . S
C346 C347 1.370 . S
C346 C350 1.524 . S
C347 C339 1.503 . S
C347 C346 1.370 . S
C347 C348 1.403 . S
C348 C347 1.403 . S
C348 C349 1.404 . S
C348 C351 1.539 . S
C349 C345 1.408 . S
C349 C348 1.404 . S
C349 H361 0.930 . S
C350 C346 1.524 . S
C350 H362 0.956 . S
C350 H363 0.961 . S
C350 H364 0.961 . S
C351 C348 1.539 . S
C351 H365 0.958 . S
C351 H366 0.961 . S
C351 H367 0.960 . S
H352 C336 0.931 . S
H353 C341 0.929 . S
H354 C342 0.960 . S
H355 C342 0.962 . S
H356 C342 0.960 . S
H357 C343 0.961 . S
H358 C343 0.961 . S
H359 C343 0.961 . S
H360 C344 0.931 . S
H361 C349 0.930 . S
H362 C350 0.956 . S
H363 C350 0.961 . S
H364 C350 0.961 . S
H365 C351 0.958 . S
H366 C351 0.961 . S
H367 C351 0.960 . S
C368 C369 1.391 . S
C368 C370 1.394 . S
C368 H384 0.931 . S
C369 C368 1.391 . S
C369 C373 1.376 . S
C370 C368 1.394 . S
C370 C371 1.369 . S
C370 C374 1.531 . S
C371 C370 1.369 . S
C371 C372 1.410 . S
C371 C379 1.503 1_455 S
C372 C371 1.410 . S
C372 C373 1.392 . S
C372 C375 1.511 1_455 S
C373 C369 1.376 . S
C373 C372 1.392 . S
C373 H385 0.929 . S
C374 C370 1.531 . S
C374 H386 0.960 . S
C374 H387 0.962 . S
C374 H388 0.960 . S
C375 C372 1.511 1_655 S
C375 H389 0.958 . S
C375 H390 0.961 . S
C375 H391 0.961 . S
C376 C377 1.370 . S
C376 C378 1.363 . S
C376 H392 0.931 . S
C377 C376 1.370 . S
C377 C381 1.408 . S
C378 C376 1.363 . S
C378 C379 1.370 . S
C378 C382 1.524 1_655 S
C379 C371 1.503 1_655 S
C379 C378 1.370 . S
C379 C380 1.403 . S
C380 C379 1.403 . S
C380 C381 1.404 . S
C380 C383 1.539 . S
C381 C377 1.408 . S
C381 C380 1.404 . S
C381 H393 0.930 . S
C382 C378 1.524 1_455 S
C382 H394 0.956 . S
C382 H395 0.961 . S
C382 H396 0.961 . S
C383 C380 1.539 . S
C383 H397 0.958 . S
C383 H398 0.961 . S
C383 H399 0.960 . S
H384 C368 0.931 . S
H385 C373 0.929 . S
H386 C374 0.960 . S
H387 C374 0.962 . S
H388 C374 0.960 . S
H389 C375 0.958 . S
H390 C375 0.961 . S
H391 C375 0.961 . S
H392 C376 0.931 . S
H393 C381 0.930 . S
H394 C382 0.956 . S
H395 C382 0.961 . S
H396 C382 0.961 . S
H397 C383 0.958 . S
H398 C383 0.961 . S
H399 C383 0.960 . S
C400 C401 1.391 . S
C400 C402 1.394 . S
C400 H416 0.931 . S
C401 C400 1.391 . S
C401 C405 1.376 . S
C402 C400 1.394 . S
C402 C403 1.369 . S
C402 C406 1.531 . S
C403 C402 1.369 . S
C403 C404 1.410 . S
C403 C411 1.503 1_545 S
C404 C403 1.410 . S
C404 C405 1.392 . S
C404 C407 1.511 . S
C405 C401 1.376 . S
C405 C404 1.392 . S
C405 H417 0.929 . S
C406 C402 1.531 . S
C406 H418 0.960 1_545 S
C406 H419 0.962 . S
C406 H420 0.960 . S
C407 C404 1.511 . S
C407 H421 0.961 . S
C407 H422 0.961 . S
C407 H423 0.961 . S
C408 C409 1.370 . S
C408 C410 1.363 . S
C408 H424 0.931 . S
C409 C408 1.370 . S
C409 C413 1.408 . S
C410 C408 1.363 . S
C410 C411 1.370 . S
C410 C414 1.524 1_565 S
C411 C403 1.503 1_565 S
C411 C410 1.370 . S
C411 C412 1.403 . S
C412 C411 1.403 . S
C412 C413 1.404 . S
C412 C415 1.539 . S
C413 C409 1.408 . S
C413 C412 1.404 . S
C413 H425 0.930 . S
C414 C410 1.524 1_545 S
C414 H426 0.956 . S
C414 H427 0.961 . S
C414 H428 0.961 . S
C415 C412 1.539 . S
C415 H429 0.958 . S
C415 H430 0.961 . S
C415 H431 0.960 . S
H416 C400 0.931 . S
H417 C405 0.929 . S
H418 C406 0.960 1_565 S
H419 C406 0.962 . S
H420 C406 0.960 . S
H421 C407 0.961 . S
H422 C407 0.961 . S
H423 C407 0.961 . S
H424 C408 0.931 . S
H425 C413 0.930 . S
H426 C414 0.956 . S
H427 C414 0.961 . S
H428 C414 0.961 . S
H429 C415 0.958 . S
H430 C415 0.961 . S
H431 C415 0.960 . S
C432 C433 1.391 . S
C432 C434 1.394 . S
C432 H448 0.931 . S
C433 C432 1.391 . S
C433 C437 1.376 . S
C434 C432 1.394 . S
C434 C435 1.369 . S
C434 C438 1.531 . S
C435 C434 1.369 . S
C435 C436 1.410 . S
C435 C443 1.503 . S
C436 C435 1.410 . S
C436 C437 1.392 . S
C436 C439 1.511 . S
C437 C433 1.376 . S
C437 C436 1.392 . S
C437 H449 0.929 . S
C438 C434 1.531 . S
C438 H450 0.960 . S
C438 H451 0.962 . S
C438 H452 0.960 . S
C439 C436 1.511 . S
C439 H453 0.961 . S
C439 H454 0.961 . S
C439 H455 0.961 . S
C440 C441 1.370 . S
C440 C442 1.363 . S
C440 H456 0.931 1_655 S
C441 C440 1.370 . S
C441 C445 1.408 . S
C442 C440 1.363 . S
C442 C443 1.370 . S
C442 C446 1.524 . S
C443 C435 1.503 . S
C443 C442 1.370 . S
C443 C444 1.403 . S
C444 C443 1.403 . S
C444 C445 1.404 . S
C444 C447 1.539 . S
C445 C441 1.408 . S
C445 C444 1.404 . S
C445 H457 0.930 . S
C446 C442 1.524 . S
C446 H458 0.956 . S
C446 H459 0.961 . S
C446 H460 0.960 . S
C447 C444 1.539 . S
C447 H461 0.958 . S
C447 H462 0.961 . S
C447 H463 0.960 . S
H448 C432 0.931 . S
H449 C437 0.929 . S
H450 C438 0.960 . S
H451 C438 0.962 . S
H452 C438 0.960 . S
H453 C439 0.961 . S
H454 C439 0.961 . S
H455 C439 0.961 . S
H456 C440 0.931 1_455 S
H457 C445 0.930 . S
H458 C446 0.956 . S
H459 C446 0.961 . S
H460 C446 0.960 . S
H461 C447 0.958 . S
H462 C447 0.961 . S
H463 C447 0.960 . S
C464 C465 1.391 . S
C464 C466 1.394 . S
C464 H480 0.931 . S
C465 C464 1.391 . S
C465 C469 1.376 . S
C466 C464 1.394 . S
C466 C467 1.369 . S
C466 C470 1.531 . S
C467 C466 1.369 . S
C467 C468 1.410 . S
C467 C475 1.503 . S
C468 C467 1.410 . S
C468 C469 1.392 . S
C468 C471 1.511 . S
C469 C465 1.376 . S
C469 C468 1.392 . S
C469 H481 0.929 . S
C470 C466 1.531 . S
C470 H482 0.960 . S
C470 H483 0.962 . S
C470 H484 0.960 . S
C471 C468 1.511 . S
C471 H485 0.961 . S
C471 H486 0.961 . S
C471 H487 0.961 . S
C472 C473 1.370 . S
C472 C474 1.363 . S
C472 H488 0.931 . S
C473 C472 1.370 . S
C473 C477 1.408 . S
C474 C472 1.363 . S
C474 C475 1.370 . S
C474 C478 1.524 . S
C475 C467 1.503 . S
C475 C474 1.370 . S
C475 C476 1.403 . S
C476 C475 1.403 . S
C476 C477 1.404 . S
C476 C479 1.539 . S
C477 C473 1.408 . S
C477 C476 1.404 . S
C477 H489 0.930 1_565 S
C478 C474 1.524 . S
C478 H490 0.956 . S
C478 H491 0.961 . S
C478 H492 0.961 . S
C479 C476 1.539 . S
C479 H493 0.958 . S
C479 H494 0.961 . S
C479 H495 0.960 . S
H480 C464 0.931 . S
H481 C469 0.929 . S
H482 C470 0.960 . S
H483 C470 0.962 . S
H484 C470 0.960 . S
H485 C471 0.961 . S
H486 C471 0.961 . S
H487 C471 0.961 . S
H488 C472 0.931 . S
H489 C477 0.930 1_545 S
H490 C478 0.956 . S
H491 C478 0.961 . S
H492 C478 0.961 . S
H493 C479 0.958 . S
H494 C479 0.961 . S
H495 C479 0.960 . S
C496 C497 1.391 . S
C496 C498 1.394 . S
C496 H512 0.931 . S
C497 C496 1.391 . S
C497 C501 1.376 . S
C498 C496 1.394 . S
C498 C499 1.369 . S
C498 C502 1.531 . S
C499 C498 1.369 . S
C499 C500 1.410 . S
C499 C507 1.503 . S
C500 C499 1.410 . S
C500 C501 1.392 . S
C500 C503 1.511 . S
C501 C497 1.376 . S
C501 C500 1.392 . S
C501 H513 0.929 . S
C502 C498 1.531 . S
C502 H514 0.960 . S
C502 H515 0.962 . S
C502 H516 0.960 . S
C503 C500 1.511 . S
C503 H517 0.961 . S
C503 H518 0.961 . S
C503 H519 0.961 . S
C504 C505 1.370 . S
C504 C506 1.363 . S
C504 H520 0.931 . S
C505 C504 1.370 . S
C505 C509 1.408 . S
C506 C504 1.363 . S
C506 C507 1.370 . S
C506 C510 1.524 . S
C507 C499 1.503 . S
C507 C506 1.370 . S
C507 C508 1.403 . S
C508 C507 1.403 . S
C508 C509 1.404 . S
C508 C511 1.539 . S
C509 C505 1.408 . S
C509 C508 1.404 . S
C509 H521 0.930 . S
C510 C506 1.524 . S
C510 H522 0.956 . S
C510 H523 0.961 . S
C510 H524 0.961 . S
C511 C508 1.539 . S
C511 H525 0.958 . S
C511 H526 0.961 . S
C511 H527 0.960 . S
H512 C496 0.931 . S
H513 C501 0.929 . S
H514 C502 0.960 . S
H515 C502 0.962 . S
H516 C502 0.960 . S
H517 C503 0.961 . S
H518 C503 0.961 . S
H519 C503 0.961 . S
H520 C504 0.931 . S
H521 C509 0.930 . S
H522 C510 0.956 . S
H523 C510 0.961 . S
H524 C510 0.961 . S
H525 C511 0.958 . S
H526 C511 0.961 . S
H527 C511 0.960 . S
C528 C529 1.391 . S
C528 C530 1.394 . S
C528 H544 0.931 . S
C529 C528 1.391 . S
C529 C533 1.376 . S
C530 C528 1.394 . S
C530 C531 1.369 . S
C530 C534 1.531 . S
C531 C530 1.369 . S
C531 C532 1.410 . S
C531 C539 1.503 . S
C532 C531 1.410 . S
C532 C533 1.392 . S
C532 C535 1.510 . S
C533 C529 1.376 . S
C533 C532 1.392 . S
C533 H545 0.927 . S
C534 C530 1.531 . S
C534 H546 0.960 . S
C534 H547 0.962 . S
C534 H548 0.960 . S
C535 C532 1.510 . S
C535 H549 0.962 1_554 S
C535 H550 0.962 1_554 S
C535 H551 0.958 . S
C536 C537 1.370 1_556 S
C536 C538 1.363 . S
C536 H552 0.931 . S
C537 C536 1.370 1_554 S
C537 C541 1.408 . S
C538 C536 1.363 . S
C538 C539 1.370 1_556 S
C538 C542 1.524 . S
C539 C531 1.503 . S
C539 C538 1.370 1_554 S
C539 C540 1.403 . S
C540 C539 1.403 . S
C540 C541 1.404 . S
C540 C543 1.539 . S
C541 C537 1.408 . S
C541 C540 1.404 . S
C541 H553 0.930 1_545 S
C542 C538 1.524 . S
C542 H554 0.956 . S
C542 H555 0.961 . S
C542 H556 0.961 . S
C543 C540 1.539 . S
C543 H557 0.958 . S
C543 H558 0.961 1_545 S
C543 H559 0.960 . S
H544 C528 0.931 . S
H545 C533 0.927 . S
H546 C534 0.960 . S
H547 C534 0.962 . S
H548 C534 0.960 . S
H549 C535 0.962 1_556 S
H550 C535 0.962 1_556 S
H551 C535 0.958 . S
H552 C536 0.931 . S
H553 C541 0.930 1_565 S
H554 C542 0.956 . S
H555 C542 0.961 . S
H556 C542 0.961 . S
H557 C543 0.958 . S
H558 C543 0.961 1_565 S
H559 C543 0.960 . S
C560 C561 1.391 . S
C560 C562 1.394 . S
C560 H576 0.931 . S
C561 C560 1.391 . S
C561 C565 1.376 . S
C562 C560 1.394 . S
C562 C563 1.369 . S
C562 C566 1.531 . S
C563 C562 1.369 . S
C563 C564 1.410 . S
C563 C571 1.503 . S
C564 C563 1.410 . S
C564 C565 1.392 . S
C564 C567 1.511 . S
C565 C561 1.376 . S
C565 C564 1.392 . S
C565 H577 0.929 . S
C566 C562 1.531 . S
C566 H578 0.960 . S
C566 H579 0.962 . S
C566 H580 0.960 . S
C567 C564 1.511 . S
C567 H581 0.961 . S
C567 H582 0.961 . S
C567 H583 0.961 . S
C568 C569 1.370 . S
C568 C570 1.363 . S
C568 H584 0.931 . S
C569 C568 1.370 . S
C569 C573 1.408 . S
C570 C568 1.363 . S
C570 C571 1.370 . S
C570 C574 1.524 . S
C571 C563 1.503 . S
C571 C570 1.370 . S
C571 C572 1.403 . S
C572 C571 1.403 . S
C572 C573 1.404 . S
C572 C575 1.539 . S
C573 C569 1.408 . S
C573 C572 1.404 . S
C573 H585 0.930 . S
C574 C570 1.524 . S
C574 H586 0.956 . S
C574 H587 0.961 . S
C574 H588 0.961 . S
C575 C572 1.539 . S
C575 H589 0.958 . S
C575 H590 0.961 . S
C575 H591 0.960 . S
H576 C560 0.931 . S
H577 C565 0.929 . S
H578 C566 0.960 . S
H579 C566 0.962 . S
H580 C566 0.960 . S
H581 C567 0.961 . S
H582 C567 0.961 . S
H583 C567 0.961 . S
H584 C568 0.931 . S
H585 C573 0.930 . S
H586 C574 0.956 . S
H587 C574 0.961 . S
H588 C574 0.961 . S
H589 C575 0.958 . S
H590 C575 0.961 . S
H591 C575 0.960 . S
C592 C593 1.391 1_455 S
C592 C594 1.394 . S
C592 H608 0.931 . S
C593 C592 1.391 1_655 S
C593 C597 1.376 . S
C594 C592 1.394 . S
C594 C595 1.369 . S
C594 C598 1.531 . S
C595 C594 1.369 . S
C595 C596 1.410 . S
C595 C603 1.503 . S
C596 C595 1.410 . S
C596 C597 1.392 1_455 S
C596 C599 1.511 1_455 S
C597 C593 1.376 . S
C597 C596 1.392 1_655 S
C597 H609 0.929 . S
C598 C594 1.531 . S
C598 H610 0.960 . S
C598 H611 0.962 . S
C598 H612 0.960 . S
C599 C596 1.511 1_655 S
C599 H613 0.961 . S
C599 H614 0.961 1_655 S
C599 H615 0.961 . S
C600 C601 1.370 . S
C600 C602 1.363 . S
C600 H616 0.931 . S
C601 C600 1.370 . S
C601 C605 1.408 . S
C602 C600 1.363 . S
C602 C603 1.370 . S
C602 C606 1.524 . S
C603 C595 1.503 . S
C603 C602 1.370 . S
C603 C604 1.403 . S
C604 C603 1.403 . S
C604 C605 1.404 . S
C604 C607 1.539 . S
C605 C601 1.408 . S
C605 C604 1.404 . S
C605 H617 0.930 . S
C606 C602 1.524 . S
C606 H618 0.956 . S
C606 H619 0.961 . S
C606 H620 0.961 . S
C607 C604 1.539 . S
C607 H621 0.958 . S
C607 H622 0.961 . S
C607 H623 0.960 . S
H608 C592 0.931 . S
H609 C597 0.929 . S
H610 C598 0.960 . S
H611 C598 0.962 . S
H612 C598 0.960 . S
H613 C599 0.961 . S
H614 C599 0.961 1_455 S
H615 C599 0.961 . S
H616 C600 0.931 . S
H617 C605 0.930 . S
H618 C606 0.956 . S
H619 C606 0.961 . S
H620 C606 0.961 . S
H621 C607 0.958 . S
H622 C607 0.961 . S
H623 C607 0.960 . S
C624 C625 1.391 . S
C624 C626 1.394 . S
C624 H640 0.931 . S
C625 C624 1.391 . S
C625 C629 1.376 . S
C626 C624 1.394 . S
C626 C627 1.369 . S
C626 C630 1.531 . S
C627 C626 1.369 . S
C627 C628 1.410 . S
C627 C635 1.503 . S
C628 C627 1.410 . S
C628 C629 1.392 . S
C628 C631 1.511 . S
C629 C625 1.376 . S
C629 C628 1.392 . S
C629 H641 0.929 . S
C630 C626 1.531 . S
C630 H642 0.960 . S
C630 H643 0.962 . S
C630 H644 0.960 . S
C631 C628 1.511 . S
C631 H645 0.961 . S
C631 H646 0.961 . S
C631 H647 0.961 . S
C632 C633 1.370 . S
C632 C634 1.363 . S
C632 H648 0.931 . S
C633 C632 1.370 . S
C633 C637 1.408 . S
C634 C632 1.363 . S
C634 C635 1.370 . S
C634 C638 1.524 . S
C635 C627 1.503 . S
C635 C634 1.370 . S
C635 C636 1.403 . S
C636 C635 1.403 . S
C636 C637 1.404 . S
C636 C639 1.539 . S
C637 C633 1.408 . S
C637 C636 1.404 . S
C637 H649 0.930 . S
C638 C634 1.524 . S
C638 H650 0.956 . S
C638 H651 0.961 . S
C638 H652 0.961 . S
C639 C636 1.539 . S
C639 H653 0.958 . S
C639 H654 0.961 . S
C639 H655 0.960 . S
H640 C624 0.931 . S
H641 C629 0.929 . S
H642 C630 0.960 . S
H643 C630 0.962 . S
H644 C630 0.960 . S
H645 C631 0.961 . S
H646 C631 0.961 . S
H647 C631 0.961 . S
H648 C632 0.931 . S
H649 C637 0.930 . S
H650 C638 0.956 . S
H651 C638 0.961 . S
H652 C638 0.961 . S
H653 C639 0.958 . S
H654 C639 0.961 . S
H655 C639 0.960 . S
C656 C657 1.391 . S
C656 C658 1.394 . S
C656 H672 0.931 . S
C657 C656 1.391 . S
C657 C661 1.376 . S
C658 C656 1.394 . S
C658 C659 1.369 . S
C658 C662 1.531 . S
C659 C658 1.369 . S
C659 C660 1.410 . S
C659 C667 1.503 . S
C660 C659 1.410 . S
C660 C661 1.392 . S
C660 C663 1.511 . S
C661 C657 1.376 . S
C661 C660 1.392 . S
C661 H673 0.929 . S
C662 C658 1.531 . S
C662 H674 0.960 . S
C662 H675 0.962 . S
C662 H676 0.960 . S
C663 C660 1.511 . S
C663 H677 0.961 . S
C663 H678 0.961 . S
C663 H679 0.961 . S
C664 C665 1.370 . S
C664 C666 1.363 . S
C664 H680 0.931 . S
C665 C664 1.370 . S
C665 C669 1.408 . S
C666 C664 1.363 . S
C666 C667 1.370 . S
C666 C670 1.524 . S
C667 C659 1.503 . S
C667 C666 1.370 . S
C667 C668 1.403 . S
C668 C667 1.403 . S
C668 C669 1.404 . S
C668 C671 1.539 . S
C669 C665 1.408 . S
C669 C668 1.404 . S
C669 H681 0.930 . S
C670 C666 1.524 . S
C670 H682 0.956 . S
C670 H683 0.961 . S
C670 H684 0.961 . S
C671 C668 1.539 . S
C671 H685 0.958 . S
C671 H686 0.961 1_455 S
C671 H687 0.960 . S
H672 C656 0.931 . S
H673 C661 0.929 . S
H674 C662 0.960 . S
H675 C662 0.962 . S
H676 C662 0.960 . S
H677 C663 0.961 . S
H678 C663 0.961 . S
H679 C663 0.961 . S
H680 C664 0.931 . S
H681 C669 0.930 . S
H682 C670 0.956 . S
H683 C670 0.961 . S
H684 C670 0.961 . S
H685 C671 0.958 . S
H686 C671 0.961 1_655 S
H687 C671 0.960 . S
C688 C689 1.391 . S
C688 C690 1.394 . S
C688 H704 0.931 . S
C689 C688 1.391 . S
C689 C693 1.376 . S
C690 C688 1.394 . S
C690 C691 1.369 . S
C690 C694 1.531 . S
C691 C690 1.369 . S
C691 C692 1.410 . S
C691 C699 1.503 . S
C692 C691 1.410 . S
C692 C693 1.392 . S
C692 C695 1.511 1_655 S
C693 C689 1.376 . S
C693 C692 1.392 . S
C693 H705 0.929 . S
C694 C690 1.531 . S
C694 H706 0.960 . S
C694 H707 0.962 . S
C694 H708 0.960 . S
C695 C692 1.511 1_455 S
C695 H709 0.961 . S
C695 H710 0.961 1_455 S
C695 H711 0.961 . S
C696 C697 1.370 . S
C696 C698 1.363 . S
C696 H712 0.931 . S
C697 C696 1.370 . S
C697 C701 1.408 . S
C698 C696 1.363 . S
C698 C699 1.370 . S
C698 C702 1.524 . S
C699 C691 1.503 . S
C699 C698 1.370 . S
C699 C700 1.403 . S
C700 C699 1.403 . S
C700 C701 1.404 . S
C700 C703 1.539 . S
C701 C697 1.408 . S
C701 C700 1.404 . S
C701 H713 0.930 . S
C702 C698 1.524 . S
C702 H714 0.956 . S
C702 H715 0.961 . S
C702 H716 0.961 . S
C703 C700 1.539 . S
C703 H717 0.958 . S
C703 H718 0.961 . S
C703 H719 0.960 . S
H704 C688 0.931 . S
H705 C693 0.929 . S
H706 C694 0.960 . S
H707 C694 0.962 . S
H708 C694 0.960 . S
H709 C695 0.961 . S
H710 C695 0.961 1_655 S
H711 C695 0.961 . S
H712 C696 0.931 . S
H713 C701 0.930 . S
H714 C702 0.956 . S
H715 C702 0.961 . S
H716 C702 0.961 . S
H717 C703 0.958 . S
H718 C703 0.961 . S
H719 C703 0.960 . S
C720 C721 1.391 . S
C720 C722 1.394 . S
C720 H736 0.927 1_565 S
C721 C720 1.391 . S
C721 C725 1.376 . S
C722 C720 1.394 . S
C722 C723 1.369 . S
C722 C726 1.531 1_565 S
C723 C722 1.369 . S
C723 C724 1.410 . S
C723 C731 1.503 . S
C724 C723 1.410 . S
C724 C725 1.392 . S
C724 C727 1.511 . S
C725 C721 1.376 . S
C725 C724 1.392 . S
C725 H737 0.929 . S
C726 C722 1.531 1_545 S
C726 H738 0.960 . S
C726 H739 0.962 . S
C726 H740 0.960 . S
C727 C724 1.511 . S
C727 H741 0.961 . S
C727 H742 0.961 . S
C727 H743 0.961 . S
C728 C729 1.370 . S
C728 C730 1.363 . S
C728 H744 0.931 . S
C729 C728 1.370 . S
C729 C733 1.408 . S
C730 C728 1.363 . S
C730 C731 1.370 . S
C730 C734 1.524 . S
C731 C723 1.503 . S
C731 C730 1.370 . S
C731 C732 1.403 . S
C732 C731 1.403 . S
C732 C733 1.404 . S
C732 C735 1.539 . S
C733 C729 1.408 . S
C733 C732 1.404 . S
C733 H745 0.930 . S
C734 C730 1.524 . S
C734 H746 0.956 . S
C734 H747 0.961 . S
C734 H748 0.961 . S
C735 C732 1.539 . S
C735 H749 0.958 . S
C735 H750 0.961 . S
C735 H751 0.960 . S
H736 C720 0.927 1_545 S
H737 C725 0.929 . S
H738 C726 0.960 . S
H739 C726 0.962 . S
H740 C726 0.960 . S
H741 C727 0.961 . S
H742 C727 0.961 . S
H743 C727 0.961 . S
H744 C728 0.931 . S
H745 C733 0.930 . S
H746 C734 0.956 . S
H747 C734 0.961 . S
H748 C734 0.961 . S
H749 C735 0.958 . S
H750 C735 0.961 . S
H751 C735 0.960 . S
C752 C753 1.391 1_455 S
C752 C754 1.394 . S
C752 H768 0.931 . S
C753 C752 1.391 1_655 S
C753 C757 1.376 . S
C754 C752 1.394 . S
C754 C755 1.369 . S
C754 C758 1.531 . S
C755 C754 1.369 . S
C755 C756 1.410 1_455 S
C755 C763 1.503 . S
C756 C755 1.410 1_655 S
C756 C757 1.392 . S
C756 C759 1.511 . S
C757 C753 1.376 . S
C757 C756 1.392 . S
C757 H769 0.929 . S
C758 C754 1.531 . S
C758 H770 0.960 . S
C758 H771 0.962 . S
C758 H772 0.960 . S
C759 C756 1.511 . S
C759 H773 0.961 . S
C759 H774 0.961 . S
C759 H775 0.961 . S
C760 C761 1.370 . S
C760 C762 1.363 . S
C760 H776 0.931 . S
C761 C760 1.370 . S
C761 C765 1.408 . S
C762 C760 1.363 . S
C762 C763 1.370 . S
C762 C766 1.524 . S
C763 C755 1.503 . S
C763 C762 1.370 . S
C763 C764 1.403 . S
C764 C763 1.403 . S
C764 C765 1.404 . S
C764 C767 1.532 1_455 S
C765 C761 1.408 . S
C765 C764 1.404 . S
C765 H777 0.930 . S
C766 C762 1.524 . S
C766 H778 0.956 . S
C766 H779 0.961 . S
C766 H780 0.961 . S
C767 C764 1.532 1_655 S
C767 H781 0.956 1_655 S
C767 H782 0.967 . S
C767 H783 0.963 . S
H768 C752 0.931 . S
H769 C757 0.929 . S
H770 C758 0.960 . S
H771 C758 0.962 . S
H772 C758 0.960 . S
H773 C759 0.961 . S
H774 C759 0.961 . S
H775 C759 0.961 . S
H776 C760 0.931 . S
H777 C765 0.930 . S
H778 C766 0.956 . S
H779 C766 0.961 . S
H780 C766 0.961 . S
H781 C767 0.956 1_455 S
H782 C767 0.967 . S
H783 C767 0.963 . S
C784 C785 1.391 . S
C784 C786 1.394 . S
C784 H800 0.931 . S
C785 C784 1.391 . S
C785 C789 1.376 . S
C786 C784 1.394 . S
C786 C787 1.369 . S
C786 C790 1.531 . S
C787 C786 1.369 . S
C787 C788 1.410 . S
C787 C795 1.503 . S
C788 C787 1.410 . S
C788 C789 1.392 . S
C788 C791 1.511 . S
C789 C785 1.376 . S
C789 C788 1.392 . S
C789 H801 0.929 1_545 S
C790 C786 1.531 . S
C790 H802 0.960 . S
C790 H803 0.962 . S
C790 H804 0.960 . S
C791 C788 1.511 . S
C791 H805 0.961 1_545 S
C791 H806 0.961 . S
C791 H807 0.961 . S
C792 C793 1.370 . S
C792 C794 1.363 . S
C792 H808 0.931 1_545 S
C793 C792 1.370 . S
C793 C797 1.408 . S
C794 C792 1.363 . S
C794 C795 1.370 . S
C794 C798 1.524 1_545 S
C795 C787 1.503 . S
C795 C794 1.370 . S
C795 C796 1.403 . S
C796 C795 1.403 . S
C796 C797 1.404 . S
C796 C799 1.539 . S
C797 C793 1.408 . S
C797 C796 1.404 . S
C797 H809 0.930 . S
C798 C794 1.524 1_565 S
C798 H810 0.956 . S
C798 H811 0.961 . S
C798 H812 0.961 . S
C799 C796 1.539 . S
C799 H813 0.958 . S
C799 H814 0.961 . S
C799 H815 0.960 . S
H800 C784 0.931 . S
H801 C789 0.929 1_565 S
H802 C790 0.960 . S
H803 C790 0.962 . S
H804 C790 0.960 . S
H805 C791 0.961 1_565 S
H806 C791 0.961 . S
H807 C791 0.961 . S
H808 C792 0.931 1_565 S
H809 C797 0.930 . S
H810 C798 0.956 . S
H811 C798 0.961 . S
H812 C798 0.961 . S
H813 C799 0.958 . S
H814 C799 0.961 . S
H815 C799 0.960 . S
C241 C129 0.629 . S
C249 C9 0.681 . S
C273 C169 0.654 . S
C281 C49 0.675 . S
C305 C209 0.751 . S
C313 C89 0.597 . S
C337 C15 0.826 . S
C345 C86 0.714 . S
C369 C55 0.660 . S
C377 C126 0.792 . S
C401 C95 0.783 . S
C409 C166 0.771 . S
C433 C135 0.847 . S
C441 C206 0.738 1_655 S
C465 C175 0.667 . S
C473 C6 0.792 1_565 S
C497 C215 0.772 . S
C505 C46 0.726 . S
C529 C18 1.246 . S
C537 C138 1.248 1_545 S
C561 C58 1.254 . S
C569 C178 1.248 . S
C593 C98 1.225 . S
C601 C218 1.226 . S
C625 C10 4.067 . S
C633 C59 4.143 . S
C657 C50 4.070 . S
C665 C99 4.139 . S
C689 C90 4.060 . S
C697 C139 4.142 . S
C721 C130 4.079 . S
C729 C179 4.140 . S
C753 C170 4.064 . S
C761 C219 4.143 . S
C785 C210 4.063 1_545 S
C793 C19 4.141 . S
