# Generated by pormake.
# Topology fcr, (5)-cn, num edge types: 1
# Building blocks:
#     Node 0, Type 0, BuildingBlock: XOMCOT_clean_sbu_1, # of connection points: 5
#     Node 1, Type 0, BuildingBlock: XOMCOT_clean_sbu_1, # of connection points: 5
#     Node 2, Type 0, BuildingBlock: XOMCOT_clean_sbu_1, # of connection points: 5
#     Node 3, Type 0, BuildingBlock: XOMCOT_clean_sbu_1, # of connection points: 5
#     Node 4, Type 0, BuildingBlock: XOMCOT_clean_sbu_1, # of connection points: 5
#     Node 5, Type 0, BuildingBlock: XOMCOT_clean_sbu_1, # of connection points: 5
#     Node 6, Type 0, BuildingBlock: XOMCOT_clean_sbu_1, # of connection points: 5
#     Node 7, Type 0, BuildingBlock: XOMCOT_clean_sbu_1, # of connection points: 5
#     Node 8, Type 0, BuildingBlock: XOMCOT_clean_sbu_1, # of connection points: 5
#     Node 9, Type 0, BuildingBlock: XOMCOT_clean_sbu_1, # of connection points: 5
#     Node 10, Type 0, BuildingBlock: XOMCOT_clean_sbu_1, # of connection points: 5
#     Node 11, Type 0, BuildingBlock: XOMCOT_clean_sbu_1, # of connection points: 5
#     Node 12, Type 0, BuildingBlock: XOMCOT_clean_sbu_1, # of connection points: 5
#     Node 13, Type 0, BuildingBlock: XOMCOT_clean_sbu_1, # of connection points: 5
#     Node 14, Type 0, BuildingBlock: XOMCOT_clean_sbu_1, # of connection points: 5
#     Node 15, Type 0, BuildingBlock: XOMCOT_clean_sbu_1, # of connection points: 5
#     Node 16, Type 0, BuildingBlock: XOMCOT_clean_sbu_1, # of connection points: 5
#     Node 17, Type 0, BuildingBlock: XOMCOT_clean_sbu_1, # of connection points: 5
#     Node 18, Type 0, BuildingBlock: XOMCOT_clean_sbu_1, # of connection points: 5
#     Node 19, Type 0, BuildingBlock: XOMCOT_clean_sbu_1, # of connection points: 5
#     Node 20, Type 0, BuildingBlock: XOMCOT_clean_sbu_1, # of connection points: 5
#     Node 21, Type 0, BuildingBlock: XOMCOT_clean_sbu_1, # of connection points: 5
#     Node 22, Type 0, BuildingBlock: XOMCOT_clean_sbu_1, # of connection points: 5
#     Node 23, Type 0, BuildingBlock: XOMCOT_clean_sbu_1, # of connection points: 5
#     Node 24, Type 0, BuildingBlock: XOMCOT_clean_sbu_1, # of connection points: 5
#     Node 25, Type 0, BuildingBlock: XOMCOT_clean_sbu_1, # of connection points: 5
#     Node 26, Type 0, BuildingBlock: XOMCOT_clean_sbu_1, # of connection points: 5
#     Node 27, Type 0, BuildingBlock: XOMCOT_clean_sbu_1, # of connection points: 5
#     Node 28, Type 0, BuildingBlock: XOMCOT_clean_sbu_1, # of connection points: 5
#     Node 29, Type 0, BuildingBlock: XOMCOT_clean_sbu_1, # of connection points: 5
#     Node 30, Type 0, BuildingBlock: XOMCOT_clean_sbu_1, # of connection points: 5
#     Node 31, Type 0, BuildingBlock: XOMCOT_clean_sbu_1, # of connection points: 5
#     Node 32, Type 0, BuildingBlock: XOMCOT_clean_sbu_1, # of connection points: 5
#     Node 33, Type 0, BuildingBlock: XOMCOT_clean_sbu_1, # of connection points: 5
#     Node 34, Type 0, BuildingBlock: XOMCOT_clean_sbu_1, # of connection points: 5
#     Node 35, Type 0, BuildingBlock: XOMCOT_clean_sbu_1, # of connection points: 5
#     Node 36, Type 0, BuildingBlock: XOMCOT_clean_sbu_1, # of connection points: 5
#     Node 37, Type 0, BuildingBlock: XOMCOT_clean_sbu_1, # of connection points: 5
#     Node 38, Type 0, BuildingBlock: XOMCOT_clean_sbu_1, # of connection points: 5
#     Node 39, Type 0, BuildingBlock: XOMCOT_clean_sbu_1, # of connection points: 5
#     Node 40, Type 0, BuildingBlock: XOMCOT_clean_sbu_1, # of connection points: 5
#     Node 41, Type 0, BuildingBlock: XOMCOT_clean_sbu_1, # of connection points: 5
#     Node 42, Type 0, BuildingBlock: XOMCOT_clean_sbu_1, # of connection points: 5
#     Node 43, Type 0, BuildingBlock: XOMCOT_clean_sbu_1, # of connection points: 5
#     Node 44, Type 0, BuildingBlock: XOMCOT_clean_sbu_1, # of connection points: 5
#     Node 45, Type 0, BuildingBlock: XOMCOT_clean_sbu_1, # of connection points: 5
#     Node 46, Type 0, BuildingBlock: XOMCOT_clean_sbu_1, # of connection points: 5
#     Node 47, Type 0, BuildingBlock: XOMCOT_clean_sbu_1, # of connection points: 5
#     Edge 48, Type (0, 0), BuildingBlock: AJUNOK_clean_linker_0, # of connection points: 2
#     Edge 49, Type (0, 0), BuildingBlock: AJUNOK_clean_linker_0, # of connection points: 2
#     Edge 50, Type (0, 0), BuildingBlock: AJUNOK_clean_linker_0, # of connection points: 2
#     Edge 51, Type (0, 0), BuildingBlock: AJUNOK_clean_linker_0, # of connection points: 2
#     Edge 52, Type (0, 0), BuildingBlock: AJUNOK_clean_linker_0, # of connection points: 2
#     Edge 53, Type (0, 0), BuildingBlock: AJUNOK_clean_linker_0, # of connection points: 2
#     Edge 54, Type (0, 0), BuildingBlock: AJUNOK_clean_linker_0, # of connection points: 2
#     Edge 55, Type (0, 0), BuildingBlock: AJUNOK_clean_linker_0, # of connection points: 2
#     Edge 56, Type (0, 0), BuildingBlock: AJUNOK_clean_linker_0, # of connection points: 2
#     Edge 57, Type (0, 0), BuildingBlock: AJUNOK_clean_linker_0, # of connection points: 2
#     Edge 58, Type (0, 0), BuildingBlock: AJUNOK_clean_linker_0, # of connection points: 2
#     Edge 59, Type (0, 0), BuildingBlock: AJUNOK_clean_linker_0, # of connection points: 2
#     Edge 60, Type (0, 0), BuildingBlock: AJUNOK_clean_linker_0, # of connection points: 2
#     Edge 61, Type (0, 0), BuildingBlock: AJUNOK_clean_linker_0, # of connection points: 2
#     Edge 62, Type (0, 0), BuildingBlock: AJUNOK_clean_linker_0, # of connection points: 2
#     Edge 63, Type (0, 0), BuildingBlock: AJUNOK_clean_linker_0, # of connection points: 2
#     Edge 64, Type (0, 0), BuildingBlock: AJUNOK_clean_linker_0, # of connection points: 2
#     Edge 65, Type (0, 0), BuildingBlock: AJUNOK_clean_linker_0, # of connection points: 2
#     Edge 66, Type (0, 0), BuildingBlock: AJUNOK_clean_linker_0, # of connection points: 2
#     Edge 67, Type (0, 0), BuildingBlock: AJUNOK_clean_linker_0, # of connection points: 2
#     Edge 68, Type (0, 0), BuildingBlock: AJUNOK_clean_linker_0, # of connection points: 2
#     Edge 69, Type (0, 0), BuildingBlock: AJUNOK_clean_linker_0, # of connection points: 2
#     Edge 70, Type (0, 0), BuildingBlock: AJUNOK_clean_linker_0, # of connection points: 2
#     Edge 71, Type (0, 0), BuildingBlock: AJUNOK_clean_linker_0, # of connection points: 2
#     Edge 72, Type (0, 0), BuildingBlock: AJUNOK_clean_linker_0, # of connection points: 2
#     Edge 73, Type (0, 0), BuildingBlock: AJUNOK_clean_linker_0, # of connection points: 2
#     Edge 74, Type (0, 0), BuildingBlock: AJUNOK_clean_linker_0, # of connection points: 2
#     Edge 75, Type (0, 0), BuildingBlock: AJUNOK_clean_linker_0, # of connection points: 2
#     Edge 76, Type (0, 0), BuildingBlock: AJUNOK_clean_linker_0, # of connection points: 2
#     Edge 77, Type (0, 0), BuildingBlock: AJUNOK_clean_linker_0, # of connection points: 2
#     Edge 78, Type (0, 0), BuildingBlock: AJUNOK_clean_linker_0, # of connection points: 2
#     Edge 79, Type (0, 0), BuildingBlock: AJUNOK_clean_linker_0, # of connection points: 2
#     Edge 80, Type (0, 0), BuildingBlock: AJUNOK_clean_linker_0, # of connection points: 2
#     Edge 81, Type (0, 0), BuildingBlock: AJUNOK_clean_linker_0, # of connection points: 2
#     Edge 82, Type (0, 0), BuildingBlock: AJUNOK_clean_linker_0, # of connection points: 2
#     Edge 83, Type (0, 0), BuildingBlock: AJUNOK_clean_linker_0, # of connection points: 2
#     Edge 84, Type (0, 0), BuildingBlock: AJUNOK_clean_linker_0, # of connection points: 2
#     Edge 85, Type (0, 0), BuildingBlock: AJUNOK_clean_linker_0, # of connection points: 2
#     Edge 86, Type (0, 0), BuildingBlock: AJUNOK_clean_linker_0, # of connection points: 2
#     Edge 87, Type (0, 0), BuildingBlock: AJUNOK_clean_linker_0, # of connection points: 2
#     Edge 88, Type (0, 0), BuildingBlock: AJUNOK_clean_linker_0, # of connection points: 2
#     Edge 89, Type (0, 0), BuildingBlock: AJUNOK_clean_linker_0, # of connection points: 2
#     Edge 90, Type (0, 0), BuildingBlock: AJUNOK_clean_linker_0, # of connection points: 2
#     Edge 91, Type (0, 0), BuildingBlock: AJUNOK_clean_linker_0, # of connection points: 2
#     Edge 92, Type (0, 0), BuildingBlock: AJUNOK_clean_linker_0, # of connection points: 2
#     Edge 93, Type (0, 0), BuildingBlock: AJUNOK_clean_linker_0, # of connection points: 2
#     Edge 94, Type (0, 0), BuildingBlock: AJUNOK_clean_linker_0, # of connection points: 2
#     Edge 95, Type (0, 0), BuildingBlock: AJUNOK_clean_linker_0, # of connection points: 2
#     Edge 96, Type (0, 0), BuildingBlock: AJUNOK_clean_linker_0, # of connection points: 2
#     Edge 97, Type (0, 0), BuildingBlock: AJUNOK_clean_linker_0, # of connection points: 2
#     Edge 98, Type (0, 0), BuildingBlock: AJUNOK_clean_linker_0, # of connection points: 2
#     Edge 99, Type (0, 0), BuildingBlock: AJUNOK_clean_linker_0, # of connection points: 2
#     Edge 100, Type (0, 0), BuildingBlock: AJUNOK_clean_linker_0, # of connection points: 2
#     Edge 101, Type (0, 0), BuildingBlock: AJUNOK_clean_linker_0, # of connection points: 2
#     Edge 102, Type (0, 0), BuildingBlock: AJUNOK_clean_linker_0, # of connection points: 2
#     Edge 103, Type (0, 0), BuildingBlock: AJUNOK_clean_linker_0, # of connection points: 2
#     Edge 104, Type (0, 0), BuildingBlock: AJUNOK_clean_linker_0, # of connection points: 2
#     Edge 105, Type (0, 0), BuildingBlock: AJUNOK_clean_linker_0, # of connection points: 2
#     Edge 106, Type (0, 0), BuildingBlock: AJUNOK_clean_linker_0, # of connection points: 2
#     Edge 107, Type (0, 0), BuildingBlock: AJUNOK_clean_linker_0, # of connection points: 2
#     Edge 108, Type (0, 0), BuildingBlock: AJUNOK_clean_linker_0, # of connection points: 2
#     Edge 109, Type (0, 0), BuildingBlock: AJUNOK_clean_linker_0, # of connection points: 2
#     Edge 110, Type (0, 0), BuildingBlock: AJUNOK_clean_linker_0, # of connection points: 2
#     Edge 111, Type (0, 0), BuildingBlock: AJUNOK_clean_linker_0, # of connection points: 2
#     Edge 112, Type (0, 0), BuildingBlock: AJUNOK_clean_linker_0, # of connection points: 2
#     Edge 113, Type (0, 0), BuildingBlock: AJUNOK_clean_linker_0, # of connection points: 2
#     Edge 114, Type (0, 0), BuildingBlock: AJUNOK_clean_linker_0, # of connection points: 2
#     Edge 115, Type (0, 0), BuildingBlock: AJUNOK_clean_linker_0, # of connection points: 2
#     Edge 116, Type (0, 0), BuildingBlock: AJUNOK_clean_linker_0, # of connection points: 2
#     Edge 117, Type (0, 0), BuildingBlock: AJUNOK_clean_linker_0, # of connection points: 2
#     Edge 118, Type (0, 0), BuildingBlock: AJUNOK_clean_linker_0, # of connection points: 2
#     Edge 119, Type (0, 0), BuildingBlock: AJUNOK_clean_linker_0, # of connection points: 2
#     Edge 120, Type (0, 0), BuildingBlock: AJUNOK_clean_linker_0, # of connection points: 2
#     Edge 121, Type (0, 0), BuildingBlock: AJUNOK_clean_linker_0, # of connection points: 2
#     Edge 122, Type (0, 0), BuildingBlock: AJUNOK_clean_linker_0, # of connection points: 2
#     Edge 123, Type (0, 0), BuildingBlock: AJUNOK_clean_linker_0, # of connection points: 2
#     Edge 124, Type (0, 0), BuildingBlock: AJUNOK_clean_linker_0, # of connection points: 2
#     Edge 125, Type (0, 0), BuildingBlock: AJUNOK_clean_linker_0, # of connection points: 2
#     Edge 126, Type (0, 0), BuildingBlock: AJUNOK_clean_linker_0, # of connection points: 2
#     Edge 127, Type (0, 0), BuildingBlock: AJUNOK_clean_linker_0, # of connection points: 2
#     Edge 128, Type (0, 0), BuildingBlock: AJUNOK_clean_linker_0, # of connection points: 2
#     Edge 129, Type (0, 0), BuildingBlock: AJUNOK_clean_linker_0, # of connection points: 2
#     Edge 130, Type (0, 0), BuildingBlock: AJUNOK_clean_linker_0, # of connection points: 2
#     Edge 131, Type (0, 0), BuildingBlock: AJUNOK_clean_linker_0, # of connection points: 2
#     Edge 132, Type (0, 0), BuildingBlock: AJUNOK_clean_linker_0, # of connection points: 2
#     Edge 133, Type (0, 0), BuildingBlock: AJUNOK_clean_linker_0, # of connection points: 2
#     Edge 134, Type (0, 0), BuildingBlock: AJUNOK_clean_linker_0, # of connection points: 2
#     Edge 135, Type (0, 0), BuildingBlock: AJUNOK_clean_linker_0, # of connection points: 2
#     Edge 136, Type (0, 0), BuildingBlock: AJUNOK_clean_linker_0, # of connection points: 2
#     Edge 137, Type (0, 0), BuildingBlock: AJUNOK_clean_linker_0, # of connection points: 2
#     Edge 138, Type (0, 0), BuildingBlock: AJUNOK_clean_linker_0, # of connection points: 2
#     Edge 139, Type (0, 0), BuildingBlock: AJUNOK_clean_linker_0, # of connection points: 2
#     Edge 140, Type (0, 0), BuildingBlock: AJUNOK_clean_linker_0, # of connection points: 2
#     Edge 141, Type (0, 0), BuildingBlock: AJUNOK_clean_linker_0, # of connection points: 2
#     Edge 142, Type (0, 0), BuildingBlock: AJUNOK_clean_linker_0, # of connection points: 2
#     Edge 143, Type (0, 0), BuildingBlock: AJUNOK_clean_linker_0, # of connection points: 2
#     Edge 144, Type (0, 0), BuildingBlock: AJUNOK_clean_linker_0, # of connection points: 2
#     Edge 145, Type (0, 0), BuildingBlock: AJUNOK_clean_linker_0, # of connection points: 2
#     Edge 146, Type (0, 0), BuildingBlock: AJUNOK_clean_linker_0, # of connection points: 2
#     Edge 147, Type (0, 0), BuildingBlock: AJUNOK_clean_linker_0, # of connection points: 2
#     Edge 148, Type (0, 0), BuildingBlock: AJUNOK_clean_linker_0, # of connection points: 2
#     Edge 149, Type (0, 0), BuildingBlock: AJUNOK_clean_linker_0, # of connection points: 2
#     Edge 150, Type (0, 0), BuildingBlock: AJUNOK_clean_linker_0, # of connection points: 2
#     Edge 151, Type (0, 0), BuildingBlock: AJUNOK_clean_linker_0, # of connection points: 2
#     Edge 152, Type (0, 0), BuildingBlock: AJUNOK_clean_linker_0, # of connection points: 2
#     Edge 153, Type (0, 0), BuildingBlock: AJUNOK_clean_linker_0, # of connection points: 2
#     Edge 154, Type (0, 0), BuildingBlock: AJUNOK_clean_linker_0, # of connection points: 2
#     Edge 155, Type (0, 0), BuildingBlock: AJUNOK_clean_linker_0, # of connection points: 2
#     Edge 156, Type (0, 0), BuildingBlock: AJUNOK_clean_linker_0, # of connection points: 2
#     Edge 157, Type (0, 0), BuildingBlock: AJUNOK_clean_linker_0, # of connection points: 2
#     Edge 158, Type (0, 0), BuildingBlock: AJUNOK_clean_linker_0, # of connection points: 2
#     Edge 159, Type (0, 0), BuildingBlock: AJUNOK_clean_linker_0, # of connection points: 2
#     Edge 160, Type (0, 0), BuildingBlock: AJUNOK_clean_linker_0, # of connection points: 2
#     Edge 161, Type (0, 0), BuildingBlock: AJUNOK_clean_linker_0, # of connection points: 2
#     Edge 162, Type (0, 0), BuildingBlock: AJUNOK_clean_linker_0, # of connection points: 2
#     Edge 163, Type (0, 0), BuildingBlock: AJUNOK_clean_linker_0, # of connection points: 2
#     Edge 164, Type (0, 0), BuildingBlock: AJUNOK_clean_linker_0, # of connection points: 2
#     Edge 165, Type (0, 0), BuildingBlock: AJUNOK_clean_linker_0, # of connection points: 2
#     Edge 166, Type (0, 0), BuildingBlock: AJUNOK_clean_linker_0, # of connection points: 2
#     Edge 167, Type (0, 0), BuildingBlock: AJUNOK_clean_linker_0, # of connection points: 2
# Relax obj value: 0.105
# Max RMSD: 0.137
# Mean RMSD: 0.137
data_MOF--net-fcr--node1-XOMCOT_clean_sbu_1--edge1-AJUNOK_clean_linker_0
_symmetry_space_group_name_H-M    P1
_symmetry_Int_Tables_number       1
_symmetry_cell_setting            triclinic
loop_
_symmetry_equiv_pos_as_xyz
'x, y, z'
_cell_length_a     49.74552
_cell_length_b     49.801403
_cell_length_c     49.752654
_cell_angle_alpha  89.969188
_cell_angle_beta   89.972287
_cell_angle_gamma 89.981569
loop_
_atom_site_label
_atom_site_type_symbol
_atom_site_fract_x
_atom_site_fract_y
_atom_site_fract_z
_atom_type_partial_charge
C0 C 0.11261 0.35294 0.23365 0.0
C1 C 0.10978 0.37125 0.21312 0.0
N2 N 0.12785 0.39113 0.21663 0.0
N3 N 0.13241 0.36099 0.25029 0.0
C4 C 0.14152 0.38413 0.23912 0.0
H5 H 0.10172 0.33426 0.23536 0.0
Co6 Co 0.14814 0.34132 0.27881 0.0
C7 C 0.13507 0.39495 0.30421 0.0
O8 O 0.11462 0.39945 0.28814 0.0
N9 N 0.16426 0.32176 0.30647 0.0
C10 C 0.17807 0.3067 0.34624 0.0
C11 C 0.1613 0.32456 0.3333 0.0
C12 C 0.18246 0.30189 0.30362 0.0
N13 N 0.19162 0.29271 0.32746 0.0
O14 O 0.1831 0.35038 0.26523 0.0
H15 H 0.14784 0.33867 0.34287 0.0
H16 H 0.1885 0.29392 0.28435 0.0
O17 O 0.14834 0.37303 0.30227 0.0
C18 C 0.18859 0.33417 0.24614 0.0
O19 O 0.17002 0.31684 0.23893 0.0
N20 N 0.11433 0.32897 0.29052 0.0
C21 C 0.06743 0.29967 0.30093 0.0
C22 C 0.07171 0.32482 0.31312 0.0
C23 C 0.09553 0.33921 0.30774 0.0
C24 C 0.11082 0.30417 0.27954 0.0
C25 C 0.08761 0.28933 0.28428 0.0
H26 H 0.09865 0.35825 0.31751 0.0
H27 H 0.12622 0.29599 0.26656 0.0
H28 H 0.15824 0.39542 0.24722 0.0
H29 H 0.0964 0.36909 0.19613 0.0
H30 H 0.18029 0.30436 0.36776 0.0
H31 H 0.0566 0.3335 0.32616 0.0
H32 H 0.08537 0.2699 0.27475 0.0
C33 C 0.59933 0.66221 0.05718 0.0
C34 C 0.61794 0.66496 0.07748 0.0
N35 N 0.64147 0.65405 0.06945 0.0
N36 N 0.61094 0.64982 0.03614 0.0
C37 C 0.63661 0.64533 0.04405 0.0
H38 H 0.5782 0.66724 0.05835 0.0
Co39 Co 0.59265 0.6343 1.00711 0.0
C40 C 0.62999 0.65149 0.96266 0.0
O41 O 0.61089 0.66539 0.9509 0.0
N42 N 0.57401 0.6169 0.9785 0.0
C43 C 0.5622 0.59369 0.94184 0.0
C44 C 0.58224 0.60854 0.95391 0.0
C45 C 0.54933 0.60573 0.98109 0.0
N46 N 0.5414 0.59229 0.95896 0.0
O47 O 0.60501 0.59996 1.0186 0.0
H48 H 0.60193 0.61155 0.94543 0.0
H49 H 0.53761 0.60652 0.99938 0.0
O50 O 0.62491 0.63858 0.98434 0.0
C51 C 0.58826 0.59086 0.03569 0.0
O52 O 0.56734 0.60555 0.04226 0.0
N53 N 0.57769 0.66851 0.9979 0.0
C54 C 0.54933 0.71717 0.99283 0.0
C55 C 0.57762 0.71685 0.99359 0.0
C56 C 0.59144 0.6923 0.99659 0.0
C57 C 0.55025 0.66892 0.99793 0.0
C58 C 0.53585 0.69261 0.99448 0.0
H59 H 0.61308 0.69247 0.99864 0.0
H60 H 0.539 0.65107 1.00215 0.0
H61 H 0.65093 0.63485 0.03159 0.0
H62 H 0.6138 0.67281 0.09733 0.0
H63 H 0.56297 0.58439 0.92219 0.0
H64 H 0.5889 0.73543 0.99291 0.0
H65 H 0.5141 0.69166 0.99395 0.0
C66 C 0.92963 0.17802 0.24951 0.0
C67 C 0.93378 0.15996 0.22902 0.0
N68 N 0.91123 0.14537 0.22574 0.0
N69 N 0.90463 0.17479 0.25968 0.0
C70 C 0.89408 0.15452 0.24479 0.0
H71 H 0.94419 0.19261 0.25625 0.0
Co72 Co 0.88703 0.19531 0.28689 0.0
C73 C 0.9003 0.14268 0.31426 0.0
O74 O 0.92122 0.1382 0.29878 0.0
N75 N 0.86945 0.21555 0.31321 0.0
C76 C 0.854 0.23211 0.35179 0.0
C77 C 0.86916 0.21207 0.34013 0.0
C78 C 0.8546 0.23784 0.30903 0.0
N79 N 0.84479 0.24826 0.33213 0.0
O80 O 0.85269 0.18536 0.27238 0.0
H81 H 0.87977 0.19637 0.35076 0.0
H82 H 0.85122 0.24645 0.28936 0.0
O83 O 0.88659 0.16422 0.31126 0.0
C84 C 0.84798 0.20077 0.2524 0.0
O85 O 0.86679 0.21792 0.24535 0.0
N86 N 0.91999 0.20887 0.29932 0.0
C87 C 0.96725 0.23845 0.30636 0.0
C88 C 0.96337 0.21402 0.32012 0.0
C89 C 0.93932 0.19944 0.31642 0.0
C90 C 0.92301 0.23319 0.28715 0.0
C91 C 0.94634 0.24818 0.29029 0.0
H92 H 0.93666 0.18064 0.32683 0.0
H93 H 0.90732 0.24061 0.27408 0.0
H94 H 0.87391 0.14688 0.24748 0.0
H95 H 0.9522 0.15765 0.21771 0.0
H96 H 0.85094 0.23513 0.37311 0.0
H97 H 0.97906 0.20585 0.33279 0.0
H98 H 0.94829 0.26705 0.27962 0.0
C99 C 0.43673 0.86473 0.04732 0.0
C100 C 0.41796 0.86079 0.0673 0.0
N101 N 0.39793 0.87865 0.0639 0.0
N102 N 0.42849 0.88481 0.03105 0.0
C103 C 0.40487 0.89302 0.04187 0.0
H104 H 0.45578 0.85441 0.04558 0.0
Co105 Co 0.44775 0.90114 1.00279 0.0
C106 C 0.41196 0.88833 0.9561 0.0
O107 O 0.43242 0.87755 0.94334 0.0
N108 N 0.46716 0.91905 0.97498 0.0
C109 C 0.47789 0.94677 0.94122 0.0
C110 C 0.45753 0.9324 0.95328 0.0
C111 C 0.4932 0.92691 0.97618 0.0
N112 N 0.5004 0.94308 0.95562 0.0
O113 O 0.43668 0.93564 1.01553 0.0
H114 H 0.43668 0.93363 0.9475 0.0
H115 H 0.50616 0.92303 0.99314 0.0
O116 O 0.41546 0.89848 0.97952 0.0
C117 C 0.45494 0.94413 0.03135 0.0
O118 O 0.47558 0.9285 0.03652 0.0
N119 N 0.46161 0.86691 0.9923 0.0
C120 C 0.48785 0.81724 0.9872 0.0
C121 C 0.45977 0.81913 0.98443 0.0
C122 C 0.44697 0.84417 0.9873 0.0
C123 C 0.48873 0.86488 0.99599 0.0
C124 C 0.50227 0.8406 0.99276 0.0
H125 H 0.42526 0.84501 0.98688 0.0
H126 H 0.49992 0.88165 1.00354 0.0
H127 H 0.39352 0.91002 0.03444 0.0
H128 H 0.41984 0.84711 0.08411 0.0
H129 H 0.47599 0.9598 0.92391 0.0
H130 H 0.44779 0.80132 0.98092 0.0
H131 H 0.52374 0.83983 0.99636 0.0
C132 C 0.11281 0.68236 0.30017 0.0
C133 C 0.10934 0.66328 0.31995 0.0
N134 N 0.12906 0.6449 0.31767 0.0
N135 N 0.13463 0.67607 0.28527 0.0
C136 C 0.14419 0.65327 0.2967 0.0
H137 H 0.10059 0.7001 0.29747 0.0
Co138 Co 0.15122 0.69669 0.25785 0.0
C139 C 0.13597 0.64447 0.23056 0.0
O140 O 0.11706 0.63921 0.24821 0.0
N141 N 0.16811 0.71733 0.23144 0.0
C142 C 0.17903 0.73833 0.19353 0.0
C143 C 0.16397 0.71787 0.20465 0.0
C144 C 0.18579 0.73732 0.23609 0.0
N145 N 0.19254 0.75076 0.21343 0.0
O146 O 0.18578 0.68497 0.26994 0.0
H147 H 0.15003 0.70502 0.19405 0.0
H148 H 0.1931 0.74221 0.25594 0.0
O149 O 0.1493 0.66644 0.23215 0.0
C150 C 0.19196 0.69708 0.29168 0.0
O151 O 0.17428 0.71343 0.30254 0.0
N152 N 0.11799 0.71163 0.24774 0.0
C153 C 0.07166 0.74315 0.24207 0.0
C154 C 0.07254 0.71668 0.23205 0.0
C155 C 0.09607 0.70121 0.23494 0.0
C156 C 0.11763 0.73745 0.25676 0.0
C157 C 0.09504 0.75363 0.2537 0.0
H158 H 0.09626 0.68096 0.22739 0.0
H159 H 0.13513 0.74549 0.26683 0.0
H160 H 0.16249 0.64346 0.29023 0.0
H161 H 0.09369 0.66315 0.33508 0.0
H162 H 0.17894 0.74447 0.17266 0.0
H163 H 0.05502 0.7078 0.22269 0.0
H164 H 0.09589 0.77418 0.26073 0.0
C165 C 0.93696 0.6686 0.98556 0.0
C166 C 0.9195 0.67126 0.96428 0.0
N167 N 0.89855 0.65452 0.96812 0.0
N168 N 0.92722 0.65032 1.00302 0.0
C169 C 0.90404 0.64173 0.99153 0.0
H170 H 0.95615 0.67859 0.98746 0.0
Co171 Co 0.94547 0.63626 0.03315 0.0
C172 C 0.89091 0.65186 0.05687 0.0
O173 O 0.88493 0.66923 0.03793 0.0
N174 N 0.96399 0.62192 0.06263 0.0
C175 C 0.98096 0.61562 0.10356 0.0
C176 C 0.96188 0.62915 0.08872 0.0
C177 C 0.98441 0.60406 0.06213 0.0
N178 N 0.99497 0.5998 0.08672 0.0
O179 O 0.93461 0.60093 0.02263 0.0
H180 H 0.94814 0.64417 0.09631 0.0
H181 H 0.99255 0.59553 0.04392 0.0
O182 O 0.91348 0.63955 0.0563 0.0
C183 C 0.95102 0.59225 1.00496 0.0
O184 O 0.97101 0.6077 0.99734 0.0
N185 N 0.95923 0.67037 0.04177 0.0
C186 C 0.98908 0.71782 0.04596 0.0
C187 C 0.96178 0.71715 0.05349 0.0
C188 C 0.9471 0.69308 0.05124 0.0
C189 C 0.98584 0.67061 0.03527 0.0
C190 C 1.00115 0.69388 0.03752 0.0
H191 H 0.92613 0.69306 0.05655 0.0
H192 H 0.99518 0.65252 0.02769 0.0
H193 H 0.89155 0.62616 1.00014 0.0
H194 H 0.92285 0.6836 0.94671 0.0
H195 H 0.98472 0.61773 0.12489 0.0
H196 H 0.95172 0.73519 0.0603 0.0
H197 H 0.02228 0.69313 0.03232 0.0
C198 C 0.9244 0.85369 0.30331 0.0
C199 C 0.92808 0.87226 0.32353 0.0
N200 N 0.91088 0.89278 0.31956 0.0
N201 N 0.90518 0.86257 0.28637 0.0
C202 C 0.89724 0.88635 0.29695 0.0
H203 H 0.93408 0.83429 0.3019 0.0
Co204 Co 0.88828 0.84363 0.25822 0.0
C205 C 0.90083 0.8815 0.21318 0.0
O206 O 0.91381 0.86241 0.20038 0.0
N207 N 0.86961 0.82469 0.23066 0.0
C208 C 0.84347 0.8134 0.19589 0.0
C209 C 0.85852 0.83353 0.20741 0.0
C210 C 0.85971 0.79948 0.23324 0.0
N211 N 0.84449 0.79187 0.21209 0.0
O212 O 0.85408 0.85361 0.27263 0.0
H213 H 0.85959 0.85371 0.19971 0.0
H214 H 0.86257 0.78727 0.25101 0.0
O215 O 0.8896 0.87643 0.23581 0.0
C216 C 0.84887 0.83717 0.2916 0.0
O217 O 0.8669 0.8187 0.29724 0.0
N218 N 0.92251 0.83079 0.24599 0.0
C219 C 0.97269 0.80623 0.23839 0.0
C220 C 0.97061 0.83426 0.24047 0.0
C221 C 0.94527 0.8462 0.24426 0.0
C222 C 0.92468 0.80347 0.24451 0.0
C223 C 0.9493 0.79091 0.23999 0.0
H224 H 0.94409 0.86768 0.24716 0.0
H225 H 0.90774 0.79086 0.24873 0.0
H226 H 0.88068 0.89804 0.28903 0.0
H227 H 0.94096 0.86986 0.34091 0.0
H228 H 0.83221 0.81467 0.17732 0.0
H229 H 0.98847 0.84669 0.24014 0.0
H230 H 0.95027 0.76917 0.23964 0.0
C231 C 0.09727 0.8726 0.98312 0.0
C232 C 0.11525 0.86899 0.9624 0.0
N233 N 0.13884 0.88048 0.96923 0.0
N234 N 0.1093 0.88627 1.00313 0.0
C235 C 0.13455 0.89094 0.99404 0.0
H236 H 0.07627 0.86694 0.98302 0.0
Co237 Co 0.09154 0.90123 0.03298 0.0
C238 C 0.13515 0.8846 0.07287 0.0
O239 O 0.12177 0.86353 0.08131 0.0
N240 N 0.07365 0.91759 0.06243 0.0
C241 C 0.05725 0.92812 0.10283 0.0
C242 C 0.076 0.91302 0.08914 0.0
C243 C 0.05344 0.93575 0.06058 0.0
N244 N 0.04336 0.94257 0.08479 0.0
O245 O 0.10108 0.93613 0.01997 0.0
H246 H 0.08932 0.89861 0.09825 0.0
H247 H 0.04503 0.94265 0.04177 0.0
O248 O 0.12518 0.89977 0.05456 0.0
C249 C 0.08405 0.94233 1.00181 0.0
O250 O 0.06501 0.92493 0.99612 0.0
N251 N 0.07884 0.86642 0.0435 0.0
C252 C 0.05243 0.81677 0.04821 0.0
C253 C 0.07997 0.81798 0.04208 0.0
C254 C 0.09274 0.843 0.03955 0.0
C255 C 0.05193 0.86528 0.04919 0.0
C256 C 0.0386 0.84083 0.05227 0.0
H257 H 0.11362 0.84355 0.03351 0.0
H258 H 0.03998 0.88333 0.04981 0.0
H259 H 0.1491 0.90288 1.00492 0.0
H260 H 0.11058 0.86019 0.94309 0.0
H261 H 0.0532 0.92752 0.12421 0.0
H262 H 0.09134 0.79979 0.03849 0.0
H263 H 1.01716 0.84083 0.05616 0.0
C264 C 0.23281 0.12312 0.34637 0.0
C265 C 0.21206 0.11928 0.3643 0.0
N266 N 0.21822 0.13185 0.3875 0.0
N267 N 0.25214 0.13798 0.35813 0.0
C268 C 0.24263 0.14307 0.38312 0.0
H269 H 0.23302 0.11684 0.32557 0.0
Co270 Co 0.28176 0.15373 0.34118 0.0
C271 C 0.32738 0.13862 0.37716 0.0
O272 O 0.34088 0.12989 0.3562 0.0
N273 N 0.31124 0.17118 0.32404 0.0
C274 C 0.344 0.20127 0.31765 0.0
C275 C 0.32992 0.18662 0.33641 0.0
C276 C 0.31407 0.17759 0.29771 0.0
N277 N 0.3338 0.19567 0.29331 0.0
O278 O 0.27012 0.18802 0.35381 0.0
H279 H 0.33188 0.18897 0.3579 0.0
H280 H 0.30032 0.17148 0.28214 0.0
O281 O 0.30367 0.14821 0.37397 0.0
C282 C 0.25697 0.19879 0.33465 0.0
O283 O 0.25397 0.18536 0.31213 0.0
N284 N 0.29085 0.12001 0.32581 0.0
C285 C 0.29521 0.07244 0.29583 0.0
C286 C 0.30031 0.07255 0.32366 0.0
C287 C 0.29741 0.0965 0.33845 0.0
C288 C 0.28465 0.11969 0.29914 0.0
C289 C 0.28755 0.09659 0.28368 0.0
H290 H 0.29946 0.09582 0.36005 0.0
H291 H 0.27575 0.13713 0.28997 0.0
H292 H 0.2529 0.15586 0.39739 0.0
H293 H 0.19312 0.10957 0.35985 0.0
H294 H 0.3596 0.21583 0.32177 0.0
H295 H 0.30543 0.05414 0.33405 0.0
H296 H 0.28309 0.09758 0.2624 0.0
C297 C 0.36849 0.55084 0.94014 0.0
C298 C 0.36517 0.5719 0.92251 0.0
N299 N 0.37898 0.56648 0.89981 0.0
N300 N 0.38419 0.53198 0.92868 0.0
C301 C 0.39038 0.54215 0.90418 0.0
H302 H 0.36131 0.55005 0.96066 0.0
Co303 Co 0.40015 0.50273 0.94657 0.0
C304 C 0.38518 0.45968 0.90696 0.0
O305 O 0.37027 0.44779 0.92521 0.0
N306 N 0.41788 0.47432 0.96481 0.0
C307 C 0.44214 0.43838 0.97631 0.0
C308 C 0.42603 0.44966 0.95682 0.0
C309 C 0.43005 0.47766 0.98889 0.0
N310 N 0.44458 0.45604 0.99661 0.0
O311 O 0.43487 0.51649 0.93665 0.0
H312 H 0.42235 0.44074 0.93747 0.0
H313 H 0.42852 0.49599 1.00045 0.0
O314 O 0.39826 0.48103 0.91308 0.0
C315 C 0.44049 0.5357 0.95266 0.0
O316 O 0.42309 0.54152 0.97168 0.0
N317 N 0.36545 0.49125 0.95925 0.0
C318 C 0.31484 0.48569 0.98377 0.0
C319 C 0.31699 0.49028 0.95601 0.0
C320 C 0.34249 0.49294 0.94411 0.0
C321 C 0.36334 0.48677 0.9863 0.0
C322 C 0.33843 0.4833 0.99876 0.0
H323 H 0.34375 0.49761 0.92291 0.0
H324 H 0.38073 0.48759 0.99903 0.0
H325 H 0.40421 0.53253 0.89042 0.0
H326 H 0.35499 0.59058 0.92695 0.0
H327 H 0.45254 0.41937 0.97476 0.0
H328 H 0.29913 0.49271 0.94382 0.0
H329 H 0.33758 0.48062 0.02036 0.0
C330 C 0.79172 0.42903 0.36121 0.0
C331 C 0.81289 0.43185 0.37885 0.0
N332 N 0.81521 0.40901 0.39306 0.0
N333 N 0.78042 0.40452 0.36441 0.0
C334 C 0.79526 0.39295 0.38417 0.0
H335 H 0.78561 0.44387 0.34661 0.0
Co336 Co 0.7522 0.38794 0.34453 0.0
C337 C 0.72669 0.40358 0.39736 0.0
O338 O 0.74348 0.42364 0.40069 0.0
N339 N 0.72496 0.37103 0.32491 0.0
C340 C 0.68746 0.35056 0.31155 0.0
C341 C 0.69948 0.3648 0.33204 0.0
C342 C 0.72785 0.36059 0.30005 0.0
N343 N 0.70534 0.34813 0.29143 0.0
O344 O 0.76569 0.35314 0.35448 0.0
H345 H 0.69013 0.36988 0.35097 0.0
H346 H 0.7464 0.36151 0.28873 0.0
O347 O 0.72842 0.38899 0.37626 0.0
C348 C 0.78486 0.34782 0.33823 0.0
O349 O 0.79125 0.36613 0.3203 0.0
N350 N 0.74079 0.42135 0.33077 0.0
C351 C 0.73507 0.46881 0.30104 0.0
C352 C 0.72125 0.46533 0.32552 0.0
C353 C 0.72426 0.4412 0.34015 0.0
C354 C 0.75296 0.42402 0.30637 0.0
C355 C 0.75028 0.44733 0.2912 0.0
H356 H 0.71372 0.43887 0.35894 0.0
H357 H 0.76562 0.40804 0.29892 0.0
H358 H 0.79181 0.37291 0.3918 0.0
H359 H 0.82635 0.44888 0.38023 0.0
H360 H 0.66716 0.34272 0.31136 0.0
H361 H 0.70897 0.48136 0.33362 0.0
H362 H 0.76069 0.44877 0.27213 0.0
C363 C 0.68353 0.99441 0.92609 0.0
C364 C 0.68609 0.97374 0.90786 0.0
N365 N 0.66286 0.97149 0.89427 0.0
N366 N 0.65874 1.00542 0.92399 0.0
C367 C 0.64686 0.99108 0.90407 0.0
H368 H 0.69874 1.00028 0.94038 0.0
Co369 Co 0.64217 0.03245 0.94553 0.0
C370 C 0.65617 0.0608 0.8941 0.0
O371 O 0.67796 0.04631 0.89059 0.0
N372 N 0.62559 0.05863 0.96647 0.0
C373 C 0.61207 0.09721 0.98446 0.0
C374 C 0.62722 0.0856 0.96438 0.0
C375 C 0.60952 0.05431 0.98785 0.0
N376 N 0.60084 0.07743 0.99914 0.0
O377 O 0.60728 1.01884 0.93594 0.0
H378 H 0.63914 0.09622 0.94962 0.0
H379 H 0.60445 0.0345 0.99518 0.0
O380 O 0.64158 0.05716 0.91494 0.0
C381 C 0.60246 0.99793 0.95001 0.0
O382 O 0.62098 0.98984 0.96703 0.0
N383 N 0.67566 0.04403 0.95871 0.0
C384 C 0.72255 0.05225 0.98873 0.0
C385 C 0.71736 0.06761 0.96551 0.0
C386 C 0.6935 0.06336 0.9508 0.0
C387 C 0.67995 0.02998 0.9818 0.0
C388 C 0.70315 0.03362 0.99694 0.0
H389 H 0.68955 0.07563 0.93338 0.0
H390 H 0.66522 1.01538 0.98828 0.0
H391 H 0.62656 0.99453 0.89709 0.0
H392 H 0.70322 0.96049 0.90574 0.0
H393 H 0.61045 0.11848 0.98856 0.0
H394 H 0.73177 0.08233 0.95852 0.0
H395 H 0.70598 0.02168 1.01493 0.0
C396 C 0.23818 0.92442 0.18385 0.0
C397 C 0.21792 0.92809 0.16534 0.0
N398 N 0.22237 0.91157 0.14439 0.0
N399 N 0.25572 0.90598 0.17447 0.0
C400 C 0.24531 0.8983 0.15051 0.0
H401 H 0.23929 0.9336 0.20352 0.0
Co402 Co 0.28429 0.88979 0.19354 0.0
C403 C 0.32679 0.90362 0.15198 0.0
O404 O 0.33724 0.92221 0.16744 0.0
N405 N 0.31227 0.87215 0.21258 0.0
C406 C 0.35029 0.85342 0.22724 0.0
C407 C 0.33908 0.87034 0.20841 0.0
C408 C 0.30787 0.85612 0.2341 0.0
N409 N 0.33052 0.84426 0.24323 0.0
O410 O 0.26967 0.85496 0.1849 0.0
H411 H 0.35017 0.88019 0.19269 0.0
H412 H 0.28838 0.85374 0.24338 0.0
O413 O 0.30662 0.88981 0.16024 0.0
C414 C 0.25091 0.85105 0.20203 0.0
O415 O 0.24506 0.87087 0.21846 0.0
N416 N 0.29631 0.92428 0.20581 0.0
C417 C 0.3014 0.97405 0.23189 0.0
C418 C 0.29749 0.97272 0.20395 0.0
C419 C 0.29486 0.94764 0.1913 0.0
C420 C 0.30025 0.92558 0.23299 0.0
C421 C 0.30346 0.95004 0.24622 0.0
H422 H 0.29035 0.94702 0.17004 0.0
H423 H 0.29908 0.90775 0.24519 0.0
H424 H 0.2536 0.88218 0.13849 0.0
H425 H 0.20021 0.94045 0.16803 0.0
H426 H 0.37129 0.84794 0.22878 0.0
H427 H 0.29549 0.99091 0.19217 0.0
H428 H 0.30566 0.95018 0.26789 0.0
C429 C 0.17413 0.55085 0.10696 0.0
C430 C 0.17752 0.57091 0.12572 0.0
N431 N 0.15771 0.56901 0.14408 0.0
N432 N 0.15227 0.53611 0.11338 0.0
C433 C 0.14272 0.5478 0.13609 0.0
H434 H 0.18636 0.54798 0.08924 0.0
Co435 Co 0.13549 0.50889 0.0927 0.0
C436 C 0.1507 0.4803 0.14454 0.0
O437 O 0.17065 0.4966 0.15024 0.0
N438 N 0.11844 0.48256 0.07218 0.0
C439 C 0.10437 0.444 0.05457 0.0
C440 C 0.11964 0.45558 0.07456 0.0
C441 C 0.10249 0.48689 0.05066 0.0
N442 N 0.09355 0.46377 0.03959 0.0
O443 O 0.10096 0.52093 0.10473 0.0
H444 H 0.13144 0.44492 0.08937 0.0
H445 H 0.09789 0.50671 0.043 0.0
O446 O 0.13719 0.48351 0.1229 0.0
C447 C 0.09408 0.54269 0.09314 0.0
O448 O 0.11084 0.55411 0.07624 0.0
N449 N 0.16876 0.49851 0.07765 0.0
C450 C 0.21533 0.49211 0.04641 0.0
C451 C 0.21369 0.48127 0.07254 0.0
C452 C 0.19008 0.48452 0.08784 0.0
C453 C 0.16977 0.50829 0.05209 0.0
C454 C 0.19251 0.50499 0.03607 0.0
H455 H 0.18934 0.47612 0.10775 0.0
H456 H 0.15269 0.51916 0.04415 0.0
H457 H 0.12429 0.5416 0.14582 0.0
H458 H 0.19311 0.58607 0.12552 0.0
H459 H 0.10247 0.42272 0.05064 0.0
H460 H 0.23069 0.4709 0.08131 0.0
H461 H 0.19218 0.51271 1.01573 0.0
C462 C 0.79867 0.6118 0.18119 0.0
C463 C 0.81861 0.6091 0.16214 0.0
N464 N 0.8171 0.63 0.14501 0.0
N465 N 0.78442 0.63434 0.17621 0.0
C466 C 0.79633 0.64501 0.15411 0.0
H467 H 0.79528 0.59827 0.19782 0.0
Co468 Co 0.75624 0.65012 0.19656 0.0
C469 C 0.73046 0.63537 0.14361 0.0
O470 O 0.74686 0.61495 0.14046 0.0
N471 N 0.72894 0.66619 0.21667 0.0
C472 C 0.69011 0.68273 0.23136 0.0
C473 C 0.70233 0.66767 0.21161 0.0
C474 C 0.73233 0.6801 0.23968 0.0
N475 N 0.70903 0.6905 0.24911 0.0
O476 O 0.76959 0.68524 0.18734 0.0
H477 H 0.69236 0.65875 0.19451 0.0
H478 H 0.75165 0.68254 0.24933 0.0
O479 O 0.73229 0.64984 0.16481 0.0
C480 C 0.7898 0.68997 0.20246 0.0
O481 O 0.79703 0.67133 0.21971 0.0
N482 N 0.74502 0.61631 0.20948 0.0
C483 C 0.73776 0.56898 0.23912 0.0
C484 C 0.72426 0.57288 0.21454 0.0
C485 C 0.72803 0.59694 0.19998 0.0
C486 C 0.75694 0.61327 0.23394 0.0
C487 C 0.75357 0.58999 0.24903 0.0
H488 H 0.7174 0.5997 0.18132 0.0
H489 H 0.76971 0.62907 0.24161 0.0
H490 H 0.79028 0.66393 0.14532 0.0
H491 H 0.83321 0.593 0.16108 0.0
H492 H 0.66907 0.6882 0.23195 0.0
H493 H 0.71147 0.55729 0.2064 0.0
H494 H 0.76369 0.58828 0.26823 0.0
C495 C 0.86142 0.99565 0.11252 0.0
C496 C 0.85774 0.9756 0.13121 0.0
N497 N 0.88006 0.97384 0.14633 0.0
N498 N 0.88601 1.00679 0.11578 0.0
C499 C 0.89686 0.99281 0.13656 0.0
H500 H 0.84712 1.00106 0.09712 0.0
Co501 Co 0.90275 0.03407 0.09472 0.0
C502 C 0.88954 0.06118 0.14752 0.0
O503 O 0.87018 0.0441 0.15294 0.0
N504 N 0.91936 0.0605 0.07396 0.0
C505 C 0.93018 0.0993 0.05464 0.0
C506 C 0.91513 0.08726 0.07452 0.0
C507 C 0.93681 0.05671 0.05355 0.0
N508 N 0.94387 0.08002 0.04149 0.0
O509 O 0.93769 0.02073 0.10491 0.0
H510 H 0.90105 0.09727 0.08769 0.0
H511 H 0.94365 0.0371 0.04716 0.0
O512 O 0.9026 0.05912 0.12543 0.0
C513 C 0.94309 0.99922 0.09201 0.0
O514 O 0.92494 0.98954 0.07546 0.0
N515 N 0.86933 0.04544 0.08119 0.0
C516 C 0.82235 0.05322 0.05119 0.0
C517 C 0.82577 0.06595 0.07625 0.0
C518 C 0.84964 0.06189 0.09101 0.0
C519 C 0.8666 0.03386 0.05656 0.0
C520 C 0.84345 0.03744 0.04131 0.0
H521 H 0.85196 0.07166 0.11019 0.0
H522 H 0.88255 0.02121 0.04891 0.0
H523 H 0.91689 0.99619 0.14432 0.0
H524 H 0.8405 0.96241 0.13266 0.0
H525 H 0.9298 0.12037 0.0493 0.0
H526 H 0.80991 0.07822 0.08468 0.0
H527 H 0.84192 0.02752 0.02199 0.0
C528 C 0.3619 0.24134 0.10861 0.0
C529 C 0.38088 0.22145 0.1053 0.0
N530 N 0.39688 0.22123 0.12709 0.0
N531 N 0.36593 0.25388 0.13236 0.0
C532 C 0.38738 0.24094 0.14314 0.0
H533 H 0.34554 0.24544 0.09493 0.0
Co534 Co 0.34432 0.28061 0.14899 0.0
C535 C 0.39681 0.30906 0.13661 0.0
O536 O 0.40406 0.29137 0.11843 0.0
N537 N 0.32295 0.30654 0.16566 0.0
C538 C 0.30219 0.34471 0.17593 0.0
C539 C 0.32217 0.33315 0.16066 0.0
C540 C 0.30324 0.30234 0.18382 0.0
N541 N 0.29031 0.32527 0.19054 0.0
O542 O 0.35521 0.26805 0.18378 0.0
H543 H 0.33439 0.34329 0.14582 0.0
H544 H 0.29784 0.28266 0.19129 0.0
O545 O 0.37413 0.30663 0.14854 0.0
C546 C 0.34319 0.24623 0.18981 0.0
O547 O 0.32732 0.23518 0.17182 0.0
N548 N 0.33029 0.29137 0.1156 0.0
C549 C 0.29944 0.29993 0.06922 0.0
C550 C 0.32618 0.30927 0.07088 0.0
C551 C 0.34126 0.30503 0.09447 0.0
C552 C 0.30451 0.28229 0.11426 0.0
C553 C 0.28871 0.28664 0.09162 0.0
H554 H 0.36167 0.3122 0.09535 0.0
H555 H 0.29613 0.27138 0.13111 0.0
H556 H 0.39564 0.24546 0.16273 0.0
H557 H 0.38176 0.20718 0.08892 0.0
H558 H 0.2958 0.36546 0.17499 0.0
H559 H 0.33564 0.31911 0.05395 0.0
H560 H 0.26819 0.27938 0.09167 0.0
C561 C 0.35251 0.80125 0.42186 0.0
C562 C 0.37081 0.82154 0.42623 0.0
N563 N 0.39122 0.81856 0.40872 0.0
N564 N 0.36147 0.78529 0.40183 0.0
C565 C 0.38502 0.79654 0.39412 0.0
H566 H 0.33339 0.79899 0.43195 0.0
Co567 Co 0.34379 0.75641 0.3853 0.0
C568 C 0.38014 0.71048 0.39737 0.0
O569 O 0.35943 0.69706 0.40678 0.0
N570 N 0.32622 0.72768 0.36716 0.0
C571 C 0.31955 0.69588 0.33615 0.0
C572 C 0.33842 0.70948 0.35099 0.0
C573 C 0.29985 0.7252 0.36082 0.0
N574 N 0.2953 0.70601 0.34222 0.0
O575 O 0.35489 0.76958 0.35084 0.0
H576 H 0.35985 0.7076 0.34817 0.0
H577 H 0.2844 0.73893 0.36733 0.0
O578 O 0.37683 0.73446 0.38857 0.0
C579 C 0.3354 0.78287 0.34084 0.0
O580 O 0.31335 0.78572 0.35511 0.0
N581 N 0.32997 0.74555 0.41932 0.0
C582 C 0.30371 0.74006 0.46895 0.0
C583 C 0.33167 0.73648 0.46691 0.0
C584 C 0.34452 0.73973 0.44194 0.0
C585 C 0.30303 0.75015 0.42145 0.0
C586 C 0.28943 0.74681 0.44573 0.0
H587 H 0.3662 0.73887 0.44113 0.0
H588 H 0.2922 0.75857 0.40477 0.0
H589 H 0.39694 0.78931 0.37741 0.0
H590 H 0.36843 0.83817 0.44004 0.0
H591 H 0.32355 0.68072 0.32109 0.0
H592 H 0.34358 0.73198 0.48456 0.0
H593 H 0.26809 0.7511 0.44665 0.0
C594 C 0.04278 0.42695 0.85687 0.0
C595 C 0.06297 0.40824 0.85406 0.0
N596 N 0.06524 0.39462 0.87729 0.0
N597 N 0.03208 0.4252 0.88181 0.0
C598 C 0.04646 0.40531 0.89376 0.0
H599 H 0.03692 0.44128 0.84166 0.0
Co600 Co 1.00466 0.44675 0.89768 0.0
C601 C 0.97749 0.39342 0.88699 0.0
O602 O 0.99462 0.38682 0.86801 0.0
N603 N 0.97794 0.46786 0.91353 0.0
C604 C 0.93853 0.48526 0.92549 0.0
C605 C 0.95118 0.46687 0.90916 0.0
C606 C 0.9811 0.48732 0.93211 0.0
N607 N 0.95741 0.49792 0.94015 0.0
O608 O 1.01816 0.43812 0.9329 0.0
H609 H 0.94146 0.45372 0.89487 0.0
H610 H 1.00051 0.49409 0.93907 0.0
O611 O 0.97975 0.4161 0.89885 0.0
C612 C 0.03803 0.45361 0.93776 0.0
O613 O 0.04584 0.47001 0.91856 0.0
N614 N 0.99322 0.45893 0.86389 0.0
C615 C 0.98499 0.48803 0.8165 0.0
C616 C 0.97216 0.46311 0.82054 0.0
C617 C 0.9765 0.44876 0.84463 0.0
C618 C 1.00494 0.4834 0.86049 0.0
C619 C 1.00115 0.49819 0.83712 0.0
H620 H 0.96669 0.42967 0.84753 0.0
H621 H 1.01776 0.49134 0.87613 0.0
H622 H 0.04343 0.39877 0.91428 0.0
H623 H 0.07583 0.40573 0.83668 0.0
H624 H 0.91712 0.48898 0.92656 0.0
H625 H 0.95957 0.45453 0.80502 0.0
H626 H 1.01118 0.51739 0.83505 0.0
C627 C 0.68098 0.73982 0.42907 0.0
C628 C 0.662 0.7199 0.43198 0.0
N629 N 0.64517 0.72085 0.41079 0.0
N630 N 0.67629 0.7535 0.40609 0.0
C631 C 0.65437 0.74132 0.39545 0.0
H632 H 0.6973 0.74363 0.44284 0.0
Co633 Co 0.6963 0.78162 0.38998 0.0
C634 C 0.64339 0.80764 0.40453 0.0
O635 O 0.63979 0.79253 0.42589 0.0
N636 N 0.71605 0.80904 0.37361 0.0
C637 C 0.73075 0.84809 0.3575 0.0
C638 C 0.71061 0.83557 0.37184 0.0
C639 C 0.73963 0.80602 0.36056 0.0
N640 N 0.74892 0.82937 0.35035 0.0
O641 O 0.68638 0.76854 0.35516 0.0
H642 H 0.69333 0.84539 0.38062 0.0
H643 H 0.74987 0.78698 0.3585 0.0
O644 O 0.6647 0.80501 0.39042 0.0
C645 C 0.70296 0.7505 0.3477 0.0
O646 O 0.72244 0.74349 0.36407 0.0
N647 N 0.70944 0.79301 0.42349 0.0
C648 C 0.73938 0.80187 0.47028 0.0
C649 C 0.71511 0.81575 0.4658 0.0
C650 C 0.70043 0.8112 0.44199 0.0
C651 C 0.7335 0.78048 0.42709 0.0
C652 C 0.74865 0.78447 0.45023 0.0
H653 H 0.68212 0.82227 0.43864 0.0
H654 H 0.74075 0.76676 0.41188 0.0
H655 H 0.64575 0.74701 0.37635 0.0
H656 H 0.66077 0.70573 0.44843 0.0
H657 H 0.73226 0.86937 0.35335 0.0
H658 H 0.70727 0.82947 0.48076 0.0
H659 H 0.76743 0.7737 0.45254 0.0
C660 C 0.49514 0.61033 0.35855 0.0
C661 C 0.47493 0.62892 0.35501 0.0
N662 N 0.47229 0.64299 0.37791 0.0
N663 N 0.50548 0.61272 0.38359 0.0
C664 C 0.49082 0.63277 0.39488 0.0
H665 H 0.50138 0.59575 0.34374 0.0
Co666 Co 0.53312 0.5922 0.4004 0.0
C667 C 0.55892 0.64555 0.38755 0.0
O668 O 0.54199 0.65034 0.3679 0.0
N669 N 0.55989 0.57206 0.41728 0.0
C670 C 0.59899 0.55608 0.43187 0.0
C671 C 0.58682 0.57464 0.41531 0.0
C672 C 0.55618 0.55164 0.43472 0.0
N673 N 0.57962 0.54181 0.44429 0.0
O674 O 0.51901 0.60161 0.4352 0.0
H675 H 0.59701 0.58898 0.40256 0.0
H676 H 0.53661 0.5437 0.43978 0.0
O677 O 0.55741 0.62348 0.40067 0.0
C678 C 0.49908 0.58607 0.43968 0.0
O679 O 0.49246 0.56891 0.42076 0.0
N680 N 0.54515 0.57921 0.36706 0.0
C681 C 0.55222 0.55029 0.31944 0.0
C682 C 0.56498 0.57526 0.3231 0.0
C683 C 0.56124 0.58952 0.34731 0.0
C684 C 0.53396 0.55442 0.3642 0.0
C685 C 0.53728 0.53965 0.34074 0.0
H686 H 0.5708 0.60879 0.34978 0.0
H687 H 0.52168 0.54632 0.3802 0.0
H688 H 0.49353 0.63987 0.41524 0.0
H689 H 0.46241 0.6312 0.33737 0.0
H690 H 0.6204 0.55336 0.43462 0.0
H691 H 0.57691 0.584 0.30713 0.0
H692 H 0.52757 0.52026 0.339 0.0
C693 C 0.18918 0.80342 0.61953 0.0
C694 C 0.17063 0.82371 0.61646 0.0
N695 N 0.14904 0.81802 0.63177 0.0
N696 N 0.17918 0.78457 0.63628 0.0
C697 C 0.15469 0.79412 0.64346 0.0
H698 H 0.20932 0.8032 0.61132 0.0
Co699 Co 0.1983 0.7558 0.65196 0.0
C700 C 0.15853 0.71295 0.63332 0.0
O701 O 0.17459 0.70459 0.61417 0.0
N702 N 0.2173 0.72752 0.66888 0.0
C703 C 0.23687 0.68858 0.67911 0.0
C704 C 0.21783 0.70093 0.66336 0.0
C705 C 0.23604 0.73064 0.68838 0.0
N706 N 0.24806 0.70726 0.69498 0.0
O707 O 0.18666 0.76779 0.68685 0.0
H708 H 0.20655 0.69107 0.64784 0.0
H709 H 0.2421 0.74994 0.69629 0.0
O710 O 0.16592 0.73225 0.64875 0.0
C711 C 0.19996 0.78876 0.69328 0.0
O712 O 0.21799 0.79807 0.67636 0.0
N713 N 0.21317 0.74638 0.61762 0.0
C714 C 0.24243 0.74208 0.56939 0.0
C715 C 0.21437 0.74547 0.56908 0.0
C716 C 0.20017 0.74801 0.5934 0.0
C717 C 0.2405 0.74342 0.61797 0.0
C718 C 0.25528 0.74048 0.59434 0.0
H719 H 0.17882 0.75209 0.59276 0.0
H720 H 0.25145 0.74446 0.63664 0.0
H721 H 0.14192 0.78444 0.65818 0.0
H722 H 0.1736 0.84221 0.60541 0.0
H723 H 0.24305 0.66776 0.67801 0.0
H724 H 0.20365 0.74728 0.55023 0.0
H725 H 0.27683 0.73771 0.59569 0.0
C726 C 0.04701 0.60953 0.67699 0.0
C727 C 0.06764 0.62784 0.67961 0.0
N728 N 0.06828 0.64328 0.65741 0.0
N729 N 0.03434 0.61348 0.65328 0.0
C730 C 0.04774 0.63437 0.642 0.0
H731 H 0.04232 0.59383 0.69121 0.0
Co732 Co 1.00686 0.59272 0.6366 0.0
C733 C 0.98074 0.6457 0.64957 0.0
O734 O 0.99683 0.64952 0.67013 0.0
N735 N 0.98032 0.57223 0.61963 0.0
C736 C 0.94193 0.55716 0.60246 0.0
C737 C 0.95343 0.57572 0.61948 0.0
C738 C 0.9846 0.55114 0.60313 0.0
N739 N 0.96164 0.54187 0.5919 0.0
O740 O 0.02135 0.60154 0.60178 0.0
H741 H 0.94281 0.59089 0.63082 0.0
H742 H 1.00426 0.54256 0.59978 0.0
O743 O 0.9826 0.62408 0.63576 0.0
C744 C 0.04095 0.58533 0.59823 0.0
O745 O 0.04792 0.56991 0.6185 0.0
N746 N 0.99455 0.58009 0.66998 0.0
C747 C 0.98549 0.55032 0.71684 0.0
C748 C 0.97211 0.57491 0.71256 0.0
C749 C 0.97682 0.58955 0.68872 0.0
C750 C 1.00659 0.55577 0.67347 0.0
C751 C 1.00245 0.5407 0.6966 0.0
H752 H 0.96635 0.60825 0.68559 0.0
H753 H 0.02001 0.5482 0.65816 0.0
H754 H 0.04267 0.64274 0.62259 0.0
H755 H 0.08195 0.6288 0.69597 0.0
H756 H 0.92073 0.55536 0.59793 0.0
H757 H 0.95877 0.58302 0.72772 0.0
H758 H 1.01286 0.5217 0.6988 0.0
C759 C 0.98401 0.93845 0.66501 0.0
C760 C 0.96358 0.91997 0.66752 0.0
N761 N 0.97144 0.89666 0.65612 0.0
N762 N 1.00498 0.92693 0.65236 0.0
C763 C 0.99685 0.90146 0.64739 0.0
H764 H 0.98301 0.95945 0.67047 0.0
Co765 Co 0.03427 0.9453 0.63719 0.0
C766 C 0.07601 0.90464 0.6557 0.0
O767 O 0.08507 0.92037 0.6748 0.0
N768 N 0.06286 0.9638 0.62037 0.0
C769 C 0.10167 0.98015 0.60497 0.0
C770 C 0.08984 0.96047 0.62054 0.0
C771 C 0.05893 0.98534 0.60432 0.0
N772 N 0.08209 0.9958 0.59486 0.0
O773 O 0.02235 0.93388 0.60235 0.0
H774 H 0.1006 0.94531 0.63162 0.0
H775 H 0.03933 0.99388 0.60041 0.0
O776 O 0.057 0.91265 0.64026 0.0
C777 C 1.00321 0.94878 0.59406 0.0
O778 O 0.99453 0.96832 0.6095 0.0
N779 N 0.04401 0.95955 0.67183 0.0
C780 C 0.05038 0.98681 0.72096 0.0
C781 C 0.04397 0.95934 0.72041 0.0
C782 C 0.04079 0.94609 0.69565 0.0
C783 C 0.04933 0.98652 0.67238 0.0
C784 C 0.05322 1.00026 0.6965 0.0
H785 H 0.03519 0.9251 0.69563 0.0
H786 H 0.04926 0.99821 0.6542 0.0
H787 H 1.00909 0.88722 0.63651 0.0
H788 H 0.94375 0.92402 0.67552 0.0
H789 H 0.12303 0.98342 0.6024 0.0
H790 H 0.04098 0.94833 0.73895 0.0
H791 H 0.05696 0.02169 0.69599 0.0
C792 C 0.61252 0.85379 0.74232 0.0
C793 C 0.60896 0.87211 0.72185 0.0
N794 N 0.62973 0.88937 0.72225 0.0
N795 N 0.63532 0.85964 0.75589 0.0
C796 C 0.64532 0.88147 0.74301 0.0
H797 H 0.59965 0.83677 0.74628 0.0
Co798 Co 0.65195 0.84087 0.78443 0.0
C799 C 0.64151 0.87689 0.83116 0.0
O800 O 0.63327 0.85625 0.84541 0.0
N801 N 0.66994 0.82242 0.81262 0.0
C802 C 0.70081 0.814 0.84409 0.0
C803 C 0.68686 0.83368 0.83069 0.0
C804 C 0.6749 0.79578 0.81493 0.0
N805 N 0.6933 0.7901 0.83411 0.0
O806 O 0.68654 0.85182 0.77136 0.0
H807 H 0.69068 0.85495 0.83258 0.0
H808 H 0.6675 0.78099 0.80095 0.0
O809 O 0.64924 0.87346 0.80685 0.0
C810 C 0.69641 0.83247 0.75779 0.0
O811 O 0.68196 0.81062 0.75462 0.0
N812 N 0.61799 0.8268 0.79535 0.0
C813 C 0.56998 0.798 0.80271 0.0
C814 C 0.57167 0.82529 0.8098 0.0
C815 C 0.59573 0.83956 0.80533 0.0
C816 C 0.61607 0.80066 0.78744 0.0
C817 C 0.59262 0.78586 0.79129 0.0
H818 H 0.59594 0.86095 0.80885 0.0
H819 H 0.63247 0.79154 0.7766 0.0
H820 H 0.6641 0.8911 0.74827 0.0
H821 H 0.59313 0.87192 0.70692 0.0
H822 H 0.71646 0.81717 0.85886 0.0
H823 H 0.55421 0.83578 0.81749 0.0
H824 H 0.59198 0.76516 0.78463 0.0
C825 C 0.11587 0.17969 0.54166 0.0
C826 C 0.13465 0.1826 0.56176 0.0
N827 N 0.14688 0.15883 0.56546 0.0
N828 N 0.11613 0.15409 0.53247 0.0
C829 C 0.13541 0.14198 0.54757 0.0
H830 H 0.10276 0.19548 0.53465 0.0
Co831 Co 0.09395 0.13772 0.50563 0.0
C832 C 0.14491 0.15213 0.47629 0.0
O833 O 0.14879 0.17352 0.49121 0.0
N834 N 0.07234 0.12136 0.47965 0.0
C835 C 0.05486 0.10627 0.44135 0.0
C836 C 0.07528 0.12117 0.45266 0.0
C837 C 0.04996 0.10674 0.48422 0.0
N838 N 0.03903 0.09711 0.4613 0.0
O839 O 0.10386 0.1027 0.51859 0.0
H840 H 0.09099 0.13149 0.44175 0.0
H841 H 0.04178 0.10319 0.50406 0.0
O842 O 0.1241 0.13755 0.48015 0.0
C843 C 0.08888 0.09746 0.53876 0.0
O844 O 0.07216 0.11623 0.54689 0.0
N845 N 0.08043 0.17127 0.49471 0.0
C846 C 0.05105 0.21877 0.48832 0.0
C847 C 0.07306 0.21305 0.47145 0.0
C848 C 0.08754 0.18891 0.47487 0.0
C849 C 0.05821 0.17597 0.51003 0.0
C850 C 0.0434 0.1995 0.5073 0.0
H851 H 0.10418 0.18459 0.46167 0.0
H852 H 0.05227 0.16139 0.52499 0.0
H853 H 0.14095 0.12106 0.5458 0.0
H854 H 0.13823 0.20052 0.57353 0.0
H855 H 0.05148 0.1032 0.42009 0.0
H856 H 0.07929 0.22729 0.45622 0.0
H857 H 0.02618 0.20276 0.52025 0.0
C858 C 0.42808 0.676 0.74656 0.0
C859 C 0.4302 0.65744 0.72619 0.0
N860 N 0.40752 0.64276 0.72556 0.0
N861 N 0.40411 0.67317 0.75908 0.0
C862 C 0.39227 0.65242 0.74592 0.0
H863 H 0.44304 0.69098 0.75116 0.0
Co864 Co 0.38825 0.69486 0.78649 0.0
C865 C 0.40236 0.64303 0.81452 0.0
O866 O 0.424 0.63955 0.79977 0.0
N867 N 0.37219 0.71602 0.81291 0.0
C868 C 0.35321 0.73142 0.85039 0.0
C869 C 0.36758 0.7106 0.83914 0.0
C870 C 0.36079 0.74025 0.80879 0.0
N871 N 0.34914 0.75005 0.83126 0.0
O872 O 0.35307 0.68578 0.77366 0.0
H873 H 0.37393 0.69263 0.84954 0.0
H874 H 0.36046 0.75022 0.78946 0.0
O875 O 0.38789 0.664 0.81112 0.0
C876 C 0.34762 0.69965 0.75279 0.0
O877 O 0.36623 0.71545 0.74275 0.0
N878 N 0.42205 0.70769 0.79745 0.0
C879 C 0.4697 0.7367 0.8045 0.0
C880 C 0.46396 0.71425 0.82075 0.0
C881 C 0.43973 0.69998 0.81702 0.0
C882 C 0.42679 0.73029 0.78276 0.0
C883 C 0.4505 0.74481 0.78566 0.0
H884 H 0.43534 0.68306 0.82983 0.0
H885 H 0.41215 0.73669 0.76802 0.0
H886 H 0.37261 0.64471 0.75104 0.0
H887 H 0.44668 0.65577 0.71206 0.0
H888 H 0.34645 0.73288 0.87103 0.0
H889 H 0.47822 0.70754 0.83576 0.0
H890 H 0.4539 0.76222 0.77303 0.0
C891 C 0.93598 0.36393 0.54776 0.0
C892 C 0.91788 0.36043 0.56847 0.0
N893 N 0.89865 0.37933 0.56632 0.0
N894 N 0.92805 0.38475 0.53227 0.0
C895 C 0.9052 0.39367 0.54416 0.0
H896 H 0.95429 0.35259 0.54495 0.0
Co897 Co 0.94607 0.40092 0.50309 0.0
C898 C 0.90965 0.38858 0.45713 0.0
O899 O 0.93037 0.37982 0.44327 0.0
N900 N 0.96383 0.41857 0.47417 0.0
C901 C 0.97079 0.44968 0.44252 0.0
C902 C 0.95178 0.43495 0.45607 0.0
C903 C 0.99029 0.42449 0.47155 0.0
N904 N 0.99501 0.44328 0.45254 0.0
O905 O 0.93506 0.43569 0.51576 0.0
H906 H 0.93036 0.438 0.45431 0.0
H907 H 1.00571 0.41751 0.48509 0.0
O908 O 0.91309 0.39733 0.48111 0.0
C909 C 0.95493 0.44582 0.52842 0.0
O910 O 0.97682 0.43133 0.53127 0.0
N911 N 0.96029 0.36688 0.49278 0.0
C912 C 0.98913 0.31868 0.48754 0.0
C913 C 0.96156 0.31975 0.48142 0.0
C914 C 0.94729 0.34399 0.4848 0.0
C915 C 0.98682 0.36564 0.49951 0.0
C916 C 1.00168 0.34215 0.49645 0.0
H917 H 0.92574 0.34393 0.48219 0.0
H918 H 0.99623 0.38257 0.50911 0.0
H919 H 0.89396 0.41091 0.53714 0.0
H920 H 0.91957 0.3461 0.58475 0.0
H921 H 0.96691 0.46494 0.42752 0.0
H922 H 0.9509 0.30176 0.47546 0.0
H923 H 0.02271 0.34208 0.50213 0.0
C924 C 0.61833 0.18547 0.80182 0.0
C925 C 0.61527 0.1675 0.82262 0.0
N926 N 0.63262 0.14702 0.81896 0.0
N927 N 0.63752 0.17652 0.78489 0.0
C928 C 0.64601 0.15319 0.79608 0.0
H929 H 0.60811 0.20454 0.8001 0.0
Co930 Co 0.65335 0.1954 0.75612 0.0
C931 C 0.63671 0.14244 0.73038 0.0
O932 O 0.61678 0.13795 0.74713 0.0
N933 N 0.6698 0.21454 0.72819 0.0
C934 C 0.68828 0.22831 0.68976 0.0
C935 C 0.67417 0.20793 0.70219 0.0
C936 C 0.6812 0.23895 0.73096 0.0
N937 N 0.69243 0.24783 0.70794 0.0
O938 O 0.68803 0.18378 0.76792 0.0
H939 H 0.66758 0.18958 0.69268 0.0
H940 H 0.68157 0.24999 0.74967 0.0
O941 O 0.65061 0.16394 0.73244 0.0
C942 C 0.69658 0.20014 0.78564 0.0
O943 O 0.68111 0.22018 0.79308 0.0
N944 N 0.61983 0.21007 0.74609 0.0
C945 C 0.57293 0.24087 0.74048 0.0
C946 C 0.5746 0.21482 0.72955 0.0
C947 C 0.59841 0.19973 0.73239 0.0
C948 C 0.61876 0.23562 0.75583 0.0
C949 C 0.59587 0.25142 0.75289 0.0
H950 H 0.59923 0.17989 0.72389 0.0
H951 H 0.63579 0.24366 0.76662 0.0
H952 H 0.66221 0.14124 0.78784 0.0
H953 H 0.60237 0.17027 0.83991 0.0
H954 H 0.6946 0.22896 0.66894 0.0
H955 H 0.5575 0.20594 0.71945 0.0
H956 H 0.59614 0.27173 0.76065 0.0
C957 C 0.42473 0.17887 0.49341 0.0
C958 C 0.40646 0.18116 0.47277 0.0
N959 N 0.39297 0.15788 0.47074 0.0
N960 N 0.4226 0.15431 0.50488 0.0
C961 C 0.40302 0.142 0.49036 0.0
H962 H 0.43924 0.19404 0.49885 0.0
Co963 Co 0.44436 0.13904 0.53258 0.0
C964 C 0.39067 0.14962 0.56008 0.0
O965 O 0.38199 0.16555 0.54092 0.0
N966 N 0.46583 0.1237 0.55951 0.0
C967 C 0.48427 0.11346 0.59892 0.0
C968 C 0.46625 0.12992 0.58589 0.0
C969 C 0.48434 0.10404 0.55688 0.0
N970 N 0.49549 0.09696 0.58063 0.0
O971 O 0.43504 0.10354 0.52053 0.0
H972 H 0.45452 0.14576 0.59501 0.0
H973 H 0.49027 0.0958 0.53773 0.0
O974 O 0.41421 0.13934 0.55843 0.0
C975 C 0.451 0.09869 0.50102 0.0
O976 O 0.46649 0.11832 0.49253 0.0
N977 N 0.45732 0.17299 0.5425 0.0
C978 C 0.4871 0.22039 0.54784 0.0
C979 C 0.46068 0.21858 0.55808 0.0
C980 C 0.44601 0.19447 0.55529 0.0
C981 C 0.48307 0.17432 0.53328 0.0
C982 C 0.49837 0.19745 0.53615 0.0
H983 H 0.42562 0.1934 0.56263 0.0
H984 H 0.4918 0.15708 0.52335 0.0
H985 H 0.39634 0.12163 0.49386 0.0
H986 H 0.40418 0.19816 0.45938 0.0
H987 H 0.48883 0.11375 0.62019 0.0
H988 H 0.45126 0.23578 0.56749 0.0
H989 H 0.51891 0.19736 0.52894 0.0
C990 C 0.42398 0.35204 0.80094 0.0
C991 C 0.42698 0.37025 0.82156 0.0
N992 N 0.41003 0.39085 0.81723 0.0
N993 N 0.40562 0.36138 0.78327 0.0
C994 C 0.39734 0.38501 0.79394 0.0
H995 H 0.43342 0.3325 0.79973 0.0
Co996 Co 0.38943 0.34242 0.75471 0.0
C997 C 0.40339 0.3843 0.71247 0.0
O998 O 0.42288 0.36973 0.70233 0.0
N999 N 0.37183 0.32359 0.7269 0.0
C1000 C 0.35467 0.30801 0.6886 0.0
C1001 C 0.37185 0.32653 0.69989 0.0
C1002 C 0.35453 0.30314 0.73139 0.0
N1003 N 0.3436 0.29345 0.70851 0.0
O1004 O 0.35468 0.35185 0.76896 0.0
H1005 H 0.3835 0.34094 0.68875 0.0
H1006 H 0.35073 0.29495 0.75114 0.0
O1007 O 0.38954 0.37546 0.73234 0.0
C1008 C 0.34958 0.33732 0.78948 0.0
O1009 O 0.36768 0.31962 0.797 0.0
N1010 N 0.42398 0.32992 0.74265 0.0
C1011 C 0.47383 0.30416 0.73631 0.0
C1012 C 0.47247 0.33186 0.7413 0.0
C1013 C 0.44735 0.34438 0.7444 0.0
C1014 C 0.4253 0.30289 0.73781 0.0
C1015 C 0.44984 0.28983 0.73395 0.0
H1016 H 0.44674 0.3655 0.74945 0.0
H1017 H 0.40744 0.29068 0.73857 0.0
H1018 H 0.381 0.39682 0.78574 0.0
H1019 H 0.43907 0.36754 0.83946 0.0
H1020 H 0.35058 0.30552 0.66738 0.0
H1021 H 0.49069 0.34352 0.74374 0.0
H1022 H 0.45009 0.26828 0.73096 0.0
C1023 C 0.59856 0.37312 0.48707 0.0
C1024 C 0.61667 0.3706 0.46625 0.0
N1025 N 0.63944 0.38371 0.4729 0.0
N1026 N 0.60991 0.38737 0.50708 0.0
C1027 C 0.63483 0.39343 0.49793 0.0
H1028 H 0.57791 0.36632 0.48702 0.0
Co1029 Co 0.59202 0.40242 0.5367 0.0
C1030 C 0.63304 0.38553 0.57844 0.0
O1031 O 0.61684 0.36758 0.58898 0.0
N1032 N 0.5739 0.41922 0.56565 0.0
C1033 C 0.56012 0.43833 0.60386 0.0
C1034 C 0.57998 0.42311 0.59188 0.0
C1035 C 0.55061 0.43276 0.56226 0.0
N1036 N 0.54165 0.44427 0.58508 0.0
O1037 O 0.60267 0.43726 0.52442 0.0
H1038 H 0.59763 0.41577 0.60202 0.0
H1039 H 0.53999 0.43375 0.54333 0.0
O1040 O 0.62521 0.39977 0.55847 0.0
C1041 C 0.58619 0.44549 0.50662 0.0
O1042 O 0.56633 0.42976 0.49927 0.0
N1043 N 0.57857 0.36771 0.54693 0.0
C1044 C 0.55215 0.31812 0.55223 0.0
C1045 C 0.57987 0.31922 0.54694 0.0
C1046 C 0.59273 0.34425 0.54434 0.0
C1047 C 0.55148 0.36656 0.55164 0.0
C1048 C 0.53814 0.34219 0.55507 0.0
H1049 H 0.61386 0.34477 0.53925 0.0
H1050 H 0.53934 0.38437 0.55109 0.0
H1051 H 0.64882 0.40572 0.50909 0.0
H1052 H 0.61274 0.36128 0.447 0.0
H1053 H 0.55906 0.44398 0.62484 0.0
H1054 H 0.59129 0.30093 0.54403 0.0
H1055 H 0.51656 0.34219 0.55813 0.0
C1056 C 0.74078 0.60886 0.8593 0.0
C1057 C 0.72023 0.60628 0.87774 0.0
N1058 N 0.72068 0.62777 0.89412 0.0
N1059 N 0.75445 0.63179 0.86415 0.0
C1060 C 0.74175 0.64267 0.8857 0.0
H1061 H 0.74456 0.59539 0.8427 0.0
Co1062 Co 0.78164 0.64839 0.84312 0.0
C1063 C 0.80974 0.63378 0.89505 0.0
O1064 O 0.79351 0.61359 0.90013 0.0
N1065 N 0.80809 0.66527 0.82248 0.0
C1066 C 0.84692 0.67892 0.80501 0.0
C1067 C 0.83507 0.66358 0.82479 0.0
C1068 C 0.80402 0.68158 0.80119 0.0
N1069 N 0.82731 0.69031 0.79022 0.0
O1070 O 0.76863 0.68299 0.85383 0.0
H1071 H 0.84554 0.65142 0.83946 0.0
H1072 H 0.78427 0.68667 0.79363 0.0
O1073 O 0.80675 0.64758 0.87356 0.0
C1074 C 0.7473 0.68812 0.84052 0.0
O1075 O 0.73851 0.67006 0.8234 0.0
N1076 N 0.79255 0.61509 0.82892 0.0
C1077 C 0.79922 0.56874 0.79765 0.0
C1078 C 0.81089 0.57071 0.82339 0.0
C1079 C 0.8075 0.59427 0.83874 0.0
C1080 C 0.78204 0.61377 0.80367 0.0
C1081 C 0.78546 0.59115 0.78764 0.0
H1082 H 0.81662 0.59539 0.85831 0.0
H1083 H 0.77059 0.63056 0.79598 0.0
H1084 H 0.74742 0.66162 0.89467 0.0
H1085 H 0.70513 0.59063 0.87806 0.0
H1086 H 0.86826 0.68054 0.8011 0.0
H1087 H 0.82204 0.55403 0.83182 0.0
H1088 H 0.7771 0.59122 0.76755 0.0
C1089 C 0.86823 0.05402 0.44291 0.0
C1090 C 0.86486 0.07477 0.42492 0.0
N1091 N 0.87789 0.06858 0.40196 0.0
N1092 N 0.88324 0.03462 0.43145 0.0
C1093 C 0.88894 0.04412 0.40657 0.0
H1094 H 0.86155 0.05379 0.4636 0.0
Co1095 Co 0.89879 1.00523 0.44945 0.0
C1096 C 0.88259 0.96473 0.40619 0.0
O1097 O 0.86159 0.95617 0.41963 0.0
N1098 N 0.9156 0.97617 0.4674 0.0
C1099 C 0.92719 0.936 0.48346 0.0
C1100 C 0.91141 0.94944 0.46513 0.0
C1101 C 0.93414 0.97833 0.48718 0.0
N1102 N 0.94138 0.95426 0.49739 0.0
O1103 O 0.93364 1.01866 0.43967 0.0
H1104 H 0.89723 0.94005 0.45178 0.0
H1105 H 0.9413 0.99729 0.49496 0.0
O1106 O 0.89749 0.98332 0.416 0.0
C1107 C 0.93927 0.03746 0.45619 0.0
O1108 O 0.92147 0.04317 0.47489 0.0
N1109 N 0.86423 0.99445 0.46271 0.0
C1110 C 0.81536 0.98858 0.49066 0.0
C1111 C 0.81566 0.9937 0.46285 0.0
C1112 C 0.8403 0.99701 0.44933 0.0
C1113 C 0.86396 0.99009 0.48985 0.0
C1114 C 0.84002 0.98654 0.50396 0.0
H1115 H 0.84012 1.00256 0.4283 0.0
H1116 H 0.88234 0.99075 0.50131 0.0
H1117 H 0.90213 0.03387 0.39263 0.0
H1118 H 0.85517 0.09374 0.42923 0.0
H1119 H 0.92788 0.91449 0.48651 0.0
H1120 H 0.79707 0.99643 0.45188 0.0
H1121 H 0.84086 0.98311 0.52545 0.0
C1122 C 0.2948 0.92855 0.85838 0.0
C1123 C 0.31619 0.93157 0.87574 0.0
N1124 N 0.31811 0.90926 0.89084 0.0
N1125 N 0.28288 0.90453 0.86274 0.0
C1126 C 0.29773 0.89332 0.88271 0.0
H1127 H 0.28916 0.94263 0.84284 0.0
Co1128 Co 0.25472 0.88781 0.84297 0.0
C1129 C 0.22957 0.89905 0.89764 0.0
O1130 O 0.24743 0.91731 0.90423 0.0
N1131 N 0.22728 0.87088 0.82352 0.0
C1132 C 0.1872 0.86028 0.80669 0.0
C1133 C 0.20055 0.87519 0.8258 0.0
C1134 C 0.22967 0.85323 0.80302 0.0
N1135 N 0.20559 0.84633 0.79267 0.0
O1136 O 0.26918 0.85323 0.8521 0.0
H1137 H 0.19139 0.88909 0.83977 0.0
H1138 H 0.24872 0.84651 0.79495 0.0
O1139 O 0.231 0.88741 0.87475 0.0
C1140 C 0.28907 0.84906 0.8364 0.0
O1141 O 0.29473 0.86757 0.81842 0.0
N1142 N 0.24229 0.92136 0.83034 0.0
C1143 C 0.23319 0.96925 0.80241 0.0
C1144 C 0.22648 0.96703 0.82978 0.0
C1145 C 0.23085 0.94262 0.84342 0.0
C1146 C 0.24851 0.92331 0.8037 0.0
C1147 C 0.24385 0.94688 0.78931 0.0
H1148 H 0.22596 0.94137 0.86445 0.0
H1149 H 0.25793 0.90651 0.79365 0.0
H1150 H 0.29405 0.87352 0.8909 0.0
H1151 H 0.33017 0.94823 0.8762 0.0
H1152 H 0.16581 0.86043 0.80268 0.0
H1153 H 0.21843 0.98411 0.84058 0.0
H1154 H 0.24964 0.94797 0.76834 0.0
C1155 C 0.17805 0.48796 0.42653 0.0
C1156 C 0.18113 0.46831 0.40728 0.0
N1157 N 0.16007 0.46953 0.39031 0.0
N1158 N 0.15516 0.50174 0.42178 0.0
C1159 C 0.14458 0.48975 0.39972 0.0
H1160 H 0.19142 0.49141 0.44329 0.0
Co1161 Co 0.13897 0.52891 0.44298 0.0
C1162 C 0.15129 0.5561 0.38993 0.0
O1163 O 0.16983 0.53847 0.3835 0.0
N1164 N 0.12258 0.55515 0.46407 0.0
C1165 C 0.1123 0.59309 0.48521 0.0
C1166 C 0.127 0.58187 0.46455 0.0
C1167 C 0.10511 0.55063 0.48428 0.0
N1168 N 0.09874 0.57332 0.49779 0.0
O1169 O 0.10413 0.5163 0.43263 0.0
H1170 H 0.14087 0.59235 0.4515 0.0
H1171 H 0.0976 0.53087 0.48919 0.0
O1172 O 0.13927 0.55447 0.41264 0.0
C1173 C 0.0983 0.49444 0.44468 0.0
O1174 O 0.1164 0.48342 0.46045 0.0
N1175 N 0.17258 0.53973 0.4565 0.0
C1176 C 0.21922 0.54934 0.48625 0.0
C1177 C 0.21716 0.55813 0.45946 0.0
C1178 C 0.19337 0.55344 0.44492 0.0
C1179 C 0.17451 0.53102 0.48242 0.0
C1180 C 0.19744 0.53584 0.49772 0.0
H1181 H 0.192 0.56055 0.42454 0.0
H1182 H 0.15798 0.51997 0.49124 0.0
H1183 H 0.1254 0.49534 0.39115 0.0
H1184 H 0.19749 0.45403 0.40606 0.0
H1185 H 0.11265 0.61394 0.49134 0.0
H1186 H 0.23376 0.5685 0.44993 0.0
H1187 H 0.19844 0.5284 0.51817 0.0
C1188 C 0.74017 0.42327 0.68628 0.0
C1189 C 0.71955 0.42732 0.66824 0.0
N1190 N 0.7228 0.41016 0.64759 0.0
N1191 N 0.75672 0.40396 0.67686 0.0
C1192 C 0.74539 0.3962 0.65335 0.0
H1193 H 0.74209 0.43274 0.70575 0.0
Co1194 Co 0.78485 0.38656 0.69542 0.0
C1195 C 0.82914 0.39975 0.65667 0.0
O1196 O 0.84163 0.41361 0.67531 0.0
N1197 N 0.81214 0.36755 0.7141 0.0
C1198 C 0.84779 0.34351 0.727 0.0
C1199 C 0.83705 0.35922 0.70692 0.0
C1200 C 0.80804 0.35568 0.73823 0.0
N1201 N 0.82943 0.3413 0.74669 0.0
O1202 O 0.7698 0.35258 0.6853 0.0
H1203 H 0.84689 0.36315 0.68807 0.0
H1204 H 0.78943 0.35738 0.74937 0.0
O1205 O 0.80713 0.38757 0.66228 0.0
C1206 C 0.75004 0.34796 0.70102 0.0
O1207 O 0.74449 0.36591 0.71957 0.0
N1208 N 0.7977 0.42056 0.70851 0.0
C1209 C 0.80518 0.47036 0.73385 0.0
C1210 C 0.802 0.46881 0.70587 0.0
C1211 C 0.79835 0.44368 0.69354 0.0
C1212 C 0.8007 0.42214 0.73579 0.0
C1213 C 0.8051 0.4466 0.74869 0.0
H1214 H 0.7946 0.44293 0.67214 0.0
H1215 H 0.79781 0.40478 0.74825 0.0
H1216 H 0.75264 0.37949 0.64147 0.0
H1217 H 0.70238 0.44038 0.67108 0.0
H1218 H 0.86763 0.33461 0.72713 0.0
H1219 H 0.80122 0.48692 0.69383 0.0
H1220 H 0.80646 0.44711 0.77043 0.0
C1221 C 0.66452 0.05314 0.60135 0.0
C1222 C 0.66849 0.07389 0.6192 0.0
N1223 N 0.65538 0.06815 0.64223 0.0
N1224 N 0.64906 0.03421 0.61302 0.0
C1225 C 0.6437 0.04398 0.63785 0.0
H1226 H 0.67122 0.05261 0.58068 0.0
Co1227 Co 0.63321 1.00474 0.59599 0.0
C1228 C 0.64741 0.95892 0.63145 0.0
O1229 O 0.65612 0.94597 0.61014 0.0
N1230 N 0.61557 0.97542 0.57885 0.0
C1231 C 0.58502 0.94306 0.57267 0.0
C1232 C 0.59956 0.95727 0.59134 0.0
C1233 C 0.6095 0.97223 0.5525 0.0
N1234 N 0.59117 0.9527 0.54823 0.0
O1235 O 0.59888 1.0169 0.60803 0.0
H1236 H 0.59678 0.95577 0.61282 0.0
H1237 H 0.61603 0.98562 0.53678 0.0
O1238 O 0.63799 0.98276 0.6289 0.0
C1239 C 0.58833 0.02985 0.58861 0.0
O1240 O 0.60183 0.03229 0.56605 0.0
N1241 N 0.66719 0.99508 0.58129 0.0
C1242 C 0.71574 0.98867 0.55326 0.0
C1243 C 0.71474 0.98564 0.58135 0.0
C1244 C 0.6903 0.98936 0.59509 0.0
C1245 C 0.66851 1.00002 0.55436 0.0
C1246 C 0.69222 0.99626 0.53989 0.0
H1247 H 0.69019 0.98847 0.61678 0.0
H1248 H 0.65152 1.00871 0.5442 0.0
H1249 H 0.63048 0.03408 0.65201 0.0
H1250 H 0.67877 0.09254 0.61482 0.0
H1251 H 0.57014 0.92778 0.57689 0.0
H1252 H 0.73276 0.98093 0.59262 0.0
H1253 H 0.69244 1.00063 0.51856 0.0
C1254 C 0.30057 0.11463 0.68859 0.0
C1255 C 0.32114 0.11061 0.67051 0.0
N1256 N 0.31913 0.1291 0.65076 0.0
N1257 N 0.28502 0.13511 0.68008 0.0
C1258 C 0.29683 0.14342 0.65698 0.0
H1259 H 0.29747 0.10348 0.70699 0.0
Co1260 Co 0.25568 0.15135 0.69757 0.0
C1261 C 0.21079 0.1376 0.65993 0.0
O1262 O 0.19691 0.12723 0.67988 0.0
N1263 N 0.22665 0.16925 0.71499 0.0
C1264 C 0.19286 0.19793 0.72252 0.0
C1265 C 0.20609 0.18289 0.70347 0.0
C1266 C 0.22595 0.17745 0.74094 0.0
N1267 N 0.20557 0.19458 0.74607 0.0
O1268 O 0.26828 0.18582 0.68603 0.0
H1269 H 0.20204 0.18397 0.6822 0.0
H1270 H 0.24154 0.17325 0.75541 0.0
O1271 O 0.23416 0.14743 0.66443 0.0
C1272 C 0.28229 0.19609 0.70484 0.0
O1273 O 0.28626 0.1821 0.72687 0.0
N1274 N 0.24506 0.11734 0.71195 0.0
C1275 C 0.23732 0.06904 0.74044 0.0
C1276 C 0.23525 0.06984 0.71219 0.0
C1277 C 0.23951 0.09414 0.69828 0.0
C1278 C 0.24854 0.11634 0.7391 0.0
C1279 C 0.24395 0.09293 0.75371 0.0
H1280 H 0.23948 0.09401 0.67656 0.0
H1281 H 0.25654 0.1334 0.74957 0.0
H1282 H 0.28969 0.1604 0.64542 0.0
H1283 H 0.33623 0.09507 0.67197 0.0
H1284 H 0.17597 0.21117 0.71898 0.0
H1285 H 0.23159 0.05169 0.70081 0.0
H1286 H 0.24647 0.09346 0.77532 0.0
C1287 C 0.36385 0.48811 0.60257 0.0
C1288 C 0.35971 0.46788 0.62103 0.0
N1289 N 0.37594 0.47219 0.64225 0.0
N1290 N 0.38232 0.50543 0.61226 0.0
C1291 C 0.38942 0.49502 0.63639 0.0
H1292 H 0.35517 0.4892 0.58267 0.0
Co1293 Co 0.3998 0.53342 0.59369 0.0
C1294 C 0.38432 0.57711 0.63275 0.0
O1295 O 0.36894 0.58894 0.61487 0.0
N1296 N 0.41884 0.5607 0.57511 0.0
C1297 C 0.43954 0.59756 0.5601 0.0
C1298 C 0.42382 0.5869 0.58031 0.0
C1299 C 0.43257 0.55588 0.55214 0.0
N1300 N 0.44469 0.57802 0.54224 0.0
O1301 O 0.43377 0.51931 0.60517 0.0
H1302 H 0.41686 0.59794 0.59755 0.0
H1303 H 0.43315 0.53643 0.54249 0.0
O1304 O 0.39759 0.55601 0.62634 0.0
C1305 C 0.43965 0.49939 0.59016 0.0
O1306 O 0.42211 0.49215 0.57178 0.0
N1307 N 0.36605 0.54537 0.57913 0.0
C1308 C 0.31755 0.55214 0.5506 0.0
C1309 C 0.31758 0.54895 0.57874 0.0
C1310 C 0.34203 0.5456 0.59262 0.0
C1311 C 0.36603 0.54816 0.55181 0.0
C1312 C 0.34241 0.55239 0.53744 0.0
H1313 H 0.34155 0.54186 0.61403 0.0
H1314 H 0.38413 0.54551 0.54038 0.0
H1315 H 0.40548 0.50307 0.64865 0.0
H1316 H 0.34741 0.45019 0.61807 0.0
H1317 H 0.44604 0.61823 0.55829 0.0
H1318 H 0.29892 0.54763 0.58986 0.0
H1319 H 0.34366 0.55465 0.51583 0.0
C1320 C 0.85966 0.74221 0.61007 0.0
C1321 C 0.87857 0.72232 0.60646 0.0
N1322 N 0.89524 0.72228 0.62778 0.0
N1323 N 0.86425 0.75489 0.63362 0.0
C1324 C 0.88599 0.74208 0.64395 0.0
H1325 H 0.84344 0.74671 0.59636 0.0
Co1326 Co 0.84408 0.78249 0.65063 0.0
C1327 C 0.8968 0.80864 0.63607 0.0
O1328 O 0.8997 0.79276 0.61522 0.0
N1329 N 0.82414 0.80912 0.6679 0.0
C1330 C 0.8094 0.84719 0.68604 0.0
C1331 C 0.82835 0.83586 0.66927 0.0
C1332 C 0.8024 0.80478 0.68352 0.0
N1333 N 0.7933 0.82749 0.69528 0.0
O1334 O 0.85356 0.76804 0.68523 0.0
H1335 H 0.84433 0.84647 0.65905 0.0
H1336 H 0.79329 0.78524 0.68598 0.0
O1337 O 0.87577 0.80647 0.6508 0.0
C1338 C 0.83762 0.74846 0.68986 0.0
O1339 O 0.82076 0.74153 0.67074 0.0
N1340 N 0.83088 0.79484 0.61741 0.0
C1341 C 0.80109 0.80323 0.57042 0.0
C1342 C 0.82558 0.8168 0.5746 0.0
C1343 C 0.8402 0.81249 0.59851 0.0
C1344 C 0.80654 0.78277 0.61412 0.0
C1345 C 0.79145 0.78656 0.59092 0.0
H1346 H 0.8588 0.82314 0.6015 0.0
H1347 H 0.79907 0.76943 0.62955 0.0
H1348 H 0.89444 0.7468 0.6634 0.0
H1349 H 0.87988 0.70886 0.58943 0.0
H1350 H 0.80793 0.86819 0.69144 0.0
H1351 H 0.83368 0.82997 0.55928 0.0
H1352 H 0.7725 0.77605 0.58883 0.0
C1353 C 0.8585 0.29544 0.93143 0.0
C1354 C 0.87663 0.31607 0.93467 0.0
N1355 N 0.89157 0.31808 0.91216 0.0
N1356 N 0.86212 0.28392 0.90712 0.0
C1357 C 0.88248 0.29826 0.89594 0.0
H1358 H 0.84364 0.28946 0.94609 0.0
Co1359 Co 0.84224 0.25558 0.89091 0.0
C1360 C 0.89669 0.23122 0.90288 0.0
O1361 O 0.90213 0.24888 0.92168 0.0
N1362 N 0.8226 0.22821 0.87455 0.0
C1363 C 0.80686 0.18867 0.86109 0.0
C1364 C 0.82517 0.20139 0.87751 0.0
C1365 C 0.80251 0.2313 0.85661 0.0
N1366 N 0.79282 0.20757 0.84774 0.0
O1367 O 0.85153 0.269 0.85598 0.0
H1368 H 0.83928 0.19169 0.89088 0.0
H1369 H 0.79467 0.25067 0.85073 0.0
O1370 O 0.87397 0.23189 0.89082 0.0
C1371 C 0.83647 0.28893 0.85019 0.0
O1372 O 0.8193 0.29728 0.86847 0.0
N1373 N 0.8296 0.24389 0.9245 0.0
C1374 C 0.80117 0.23657 0.97242 0.0
C1375 C 0.82687 0.2252 0.96904 0.0
C1376 C 0.8409 0.22908 0.94469 0.0
C1377 C 0.80422 0.25379 0.92715 0.0
C1378 C 0.78967 0.25031 0.95076 0.0
H1379 H 0.86078 0.22074 0.94247 0.0
H1380 H 0.79547 0.26521 0.91085 0.0
H1381 H 0.89042 0.29438 0.87608 0.0
H1382 H 0.8788 0.32825 0.95252 0.0
H1383 H 0.80411 0.1672 0.85911 0.0
H1384 H 0.83633 0.2143 0.98533 0.0
H1385 H 0.76975 0.25898 0.95233 0.0
C1386 C 0.55543 0.93536 0.3713 0.0
C1387 C 0.57538 0.9166 0.36764 0.0
N1388 N 0.56872 0.89418 0.3813 0.0
N1389 N 0.53605 0.92492 0.38711 0.0
C1390 C 0.54476 0.89982 0.39297 0.0
H1391 H 0.55587 0.95595 0.36436 0.0
Co1392 Co 0.50811 0.9446 0.40318 0.0
C1393 C 0.46366 0.90601 0.38591 0.0
O1394 O 0.45484 0.92151 0.36651 0.0
N1395 N 0.48064 0.96444 0.42026 0.0
C1396 C 0.44334 0.98703 0.43027 0.0
C1397 C 0.45425 0.9671 0.4145 0.0
C1398 C 0.48506 0.98262 0.43991 0.0
N1399 N 0.46285 0.9971 0.44606 0.0
O1400 O 0.51987 0.93235 0.43779 0.0
H1401 H 0.44376 0.95676 0.39869 0.0
H1402 H 0.50458 0.98572 0.44882 0.0
O1403 O 0.48368 0.9133 0.40038 0.0
C1404 C 0.54161 0.94414 0.44455 0.0
O1405 O 0.55251 0.96128 0.42766 0.0
N1406 N 0.49885 0.95968 0.36924 0.0
C1407 C 0.49346 0.98878 0.3213 0.0
C1408 C 0.49524 0.96062 0.32094 0.0
C1409 C 0.49855 0.94646 0.34514 0.0
C1410 C 0.49816 0.98711 0.36959 0.0
C1411 C 0.49504 1.00194 0.34606 0.0
H1412 H 0.50148 0.92494 0.34448 0.0
H1413 H 0.50107 0.99789 0.38818 0.0
H1414 H 0.53448 0.88655 0.40681 0.0
H1415 H 0.59426 0.92005 0.35741 0.0
H1416 H 0.42306 0.99478 0.42882 0.0
H1417 H 0.49515 0.94976 0.3021 0.0
H1418 H 0.49441 0.02365 0.3472 0.0
C1419 C 0.19067 0.2387 0.92282 0.0
C1420 C 0.17483 0.21641 0.92655 0.0
N1421 N 0.15278 0.21877 0.91103 0.0
N1422 N 0.1787 0.25536 0.90511 0.0
C1423 C 0.15554 0.24265 0.89829 0.0
H1424 H 0.21064 0.24156 0.9309 0.0
Co1425 Co 0.1962 0.28404 0.88753 0.0
C1426 C 0.15762 0.32838 0.90077 0.0
O1427 O 0.17658 0.34139 0.9137 0.0
N1428 N 0.21412 0.31166 0.8683 0.0
C1429 C 0.22576 0.34662 0.84259 0.0
C1430 C 0.20563 0.33539 0.858 0.0
C1431 C 0.23894 0.30852 0.85763 0.0
N1432 N 0.24681 0.32976 0.84273 0.0
O1433 O 0.18522 0.26967 0.85372 0.0
H1434 H 0.18579 0.34377 0.86014 0.0
H1435 H 0.25085 0.2905 0.86017 0.0
O1436 O 0.16298 0.3058 0.88963 0.0
C1437 C 0.19978 0.24956 0.84746 0.0
O1438 O 0.2183 0.2415 0.86449 0.0
N1439 N 0.20981 0.29668 0.92136 0.0
C1440 C 0.2353 0.30509 0.97096 0.0
C1441 C 0.20731 0.30183 0.96957 0.0
C1442 C 0.1949 0.29774 0.94451 0.0
C1443 C 0.23713 0.29931 0.92286 0.0
C1444 C 0.25011 0.30424 0.94718 0.0
H1445 H 0.17348 0.29407 0.94385 0.0
H1446 H 0.24955 0.29574 0.90563 0.0
H1447 H 0.14237 0.24944 0.88235 0.0
H1448 H 0.18003 0.19887 0.93834 0.0
H1449 H 0.22493 0.36558 0.83197 0.0
H1450 H 0.1953 0.30159 0.98772 0.0
H1451 H 0.27185 0.30552 0.94759 0.0
C1452 C 0.99015 0.10825 0.86277 0.0
C1453 C 0.97024 0.12714 0.8592 0.0
N1454 N 0.97324 0.14652 0.87788 0.0
N1455 N 1.00593 0.11564 0.88353 0.0
C1456 C 0.99511 0.13903 0.89225 0.0
H1457 H 0.9921 0.08972 0.85164 0.0
Co1458 Co 0.03309 0.09578 0.90092 0.0
C1459 C 0.08261 0.12765 0.8917 0.0
O1460 O 0.09438 0.10508 0.88467 0.0
N1461 N 0.05982 0.07614 0.91997 0.0
C1462 C 0.08843 0.0672 0.95342 0.0
C1463 C 0.07655 0.08708 0.93842 0.0
C1464 C 0.06145 0.04944 0.92493 0.0
N1465 N 0.0788 0.04346 0.945 0.0
O1466 O 1.01947 0.10731 0.93509 0.0
H1467 H 0.07814 0.10831 0.94263 0.0
H1468 H 0.04852 0.03466 0.91586 0.0
O1469 O 0.05765 0.12724 0.89819 0.0
C1470 C 1.0021 0.0894 0.94113 0.0
O1471 O 0.99744 0.0704 0.9234 0.0
N1472 N 0.0438 0.08085 0.86738 0.0
C1473 C 0.04907 0.05134 0.81946 0.0
C1474 C 0.057 0.0785 0.82075 0.0
C1475 C 0.05382 0.09307 0.84486 0.0
C1476 C 0.03488 0.05503 0.86582 0.0
C1477 C 0.03797 0.03981 0.84259 0.0
H1478 H 0.05832 0.11429 0.84499 0.0
H1479 H 0.02373 0.04653 0.88232 0.0
H1480 H 1.00213 0.14936 0.91002 0.0
H1481 H 0.95425 0.12619 0.84449 0.0
H1482 H 0.10095 0.07021 0.97095 0.0
H1483 H 0.06447 0.08873 0.80306 0.0
H1484 H 0.03094 0.01923 0.84262 0.0
C1485 C 0.6838 0.29949 0.11568 0.0
C1486 C 0.66539 0.31986 0.11237 0.0
N1487 N 0.64526 0.31639 0.1302 0.0
N1488 N 0.67552 0.28302 0.13556 0.0
C1489 C 0.65206 0.294 0.14408 0.0
H1490 H 0.70276 0.2979 0.10523 0.0
Co1491 Co 0.69521 0.25535 0.1527 0.0
C1492 C 0.64345 0.2282 0.13635 0.0
O1493 O 0.64065 0.2437 0.11517 0.0
N1494 N 0.7148 0.22857 0.17018 0.0
C1495 C 0.73047 0.18986 0.18612 0.0
C1496 C 0.71052 0.20181 0.17106 0.0
C1497 C 0.73745 0.23237 0.18458 0.0
N1498 N 0.74735 0.20918 0.19465 0.0
O1499 O 0.68438 0.26949 0.187 0.0
H1500 H 0.69432 0.19146 0.16094 0.0
H1501 H 0.74669 0.25182 0.18744 0.0
O1502 O 0.66383 0.23122 0.15175 0.0
C1503 C 0.69932 0.28987 0.19151 0.0
O1504 O 0.71751 0.29613 0.17341 0.0
N1505 N 0.70949 0.24351 0.11963 0.0
C1506 C 0.74011 0.23642 0.07294 0.0
C1507 C 0.71563 0.22269 0.07636 0.0
C1508 C 0.70058 0.22635 0.10011 0.0
C1509 C 0.73405 0.25538 0.1172 0.0
C1510 C 0.7496 0.25216 0.09418 0.0
H1511 H 0.68199 0.21553 0.10246 0.0
H1512 H 0.7413 0.26822 0.13314 0.0
H1513 H 0.64058 0.28608 0.16077 0.0
H1514 H 0.66772 0.33684 0.09901 0.0
H1515 H 0.73293 0.16854 0.1896 0.0
H1516 H 0.70786 0.20991 0.06056 0.0
H1517 H 0.76871 0.2625 0.09276 0.0
C1518 C 0.55604 0.09959 0.1702 0.0
C1519 C 0.57631 0.11829 0.17273 0.0
N1520 N 0.56993 0.13997 0.15779 0.0
N1521 N 0.53667 0.10955 0.15408 0.0
C1522 C 0.54563 0.13421 0.14699 0.0
H1523 H 0.55614 0.07943 0.17831 0.0
Co1524 Co 0.50805 0.09065 0.13829 0.0
C1525 C 0.46522 0.13121 0.15336 0.0
O1526 O 0.45455 0.11503 0.17126 0.0
N1527 N 0.47985 0.07171 0.12089 0.0
C1528 C 0.44185 0.05765 0.10167 0.0
C1529 C 0.45314 0.07634 0.11863 0.0
C1530 C 0.4841 0.0501 0.10498 0.0
N1531 N 0.46145 0.0413 0.09287 0.0
O1532 O 0.52162 0.10045 0.10361 0.0
H1533 H 0.44216 0.09241 0.12795 0.0
H1534 H 0.50352 0.04063 0.10276 0.0
O1535 O 0.4856 0.12352 0.13959 0.0
C1536 C 0.54077 0.08416 0.09853 0.0
O1537 O 0.54696 0.06626 0.11696 0.0
N1538 N 0.4971 0.07771 0.17261 0.0
C1539 C 0.49065 0.05126 0.22202 0.0
C1540 C 0.49435 0.07923 0.22098 0.0
C1541 C 0.49791 0.09204 0.19607 0.0
C1542 C 0.4943 0.05044 0.17358 0.0
C1543 C 0.49069 0.03697 0.19784 0.0
H1544 H 0.50203 0.11337 0.19565 0.0
H1545 H 0.49647 0.03854 0.15564 0.0
H1546 H 0.53496 0.14716 0.13317 0.0
H1547 H 0.59508 0.11546 0.18337 0.0
H1548 H 0.42093 0.05656 0.09581 0.0
H1549 H 0.49515 0.09099 0.23926 0.0
H1550 H 0.48942 1.01525 0.19769 0.0
C1551 C 0.49308 0.42974 0.17951 0.0
C1552 C 0.47249 0.41159 0.18284 0.0
N1553 N 0.47117 0.39595 0.1608 0.0
N1554 N 0.50519 0.42547 0.15558 0.0
C1555 C 0.49141 0.40459 0.14483 0.0
H1556 H 0.49863 0.44505 0.19383 0.0
Co1557 Co 0.53363 0.44486 0.1392 0.0
C1558 C 0.55931 0.3918 0.1541 0.0
O1559 O 0.54383 0.3879 0.17514 0.0
N1560 N 0.56143 0.46388 0.12276 0.0
C1561 C 0.60143 0.47834 0.10889 0.0
C1562 C 0.5882 0.4596 0.1244 0.0
C1563 C 0.55891 0.48536 0.10645 0.0
N1564 N 0.58288 0.49449 0.09763 0.0
O1565 O 0.52049 0.43464 0.10435 0.0
H1566 H 0.59761 0.4439 0.13612 0.0
H1567 H 0.53986 0.49449 0.10141 0.0
O1568 O 0.5568 0.41315 0.14007 0.0
C1569 C 0.5024 0.45122 0.09694 0.0
O1570 O 0.49537 0.47051 0.11354 0.0
N1571 N 0.54498 0.45843 0.17256 0.0
C1572 C 0.5519 0.48865 0.21941 0.0
C1573 C 0.56476 0.46364 0.21639 0.0
C1574 C 0.56116 0.44876 0.19254 0.0
C1575 C 0.53376 0.48329 0.17473 0.0
C1576 C 0.537 0.4987 0.19779 0.0
H1577 H 0.57109 0.42964 0.19049 0.0
H1578 H 0.52156 0.49095 0.15846 0.0
H1579 H 0.49592 0.39602 0.12538 0.0
H1580 H 0.45984 0.40992 0.20044 0.0
H1581 H 0.62292 0.47968 0.10584 0.0
H1582 H 0.57678 0.45537 0.23254 0.0
H1583 H 0.52734 0.51817 0.19893 0.0
C1584 C 0.22445 0.23061 0.35563 0.0
C1585 C 0.24469 0.22554 0.33663 0.0
C1586 C 0.20782 0.25332 0.35322 0.0
C1587 C 0.21099 0.27157 0.33177 0.0
H1588 H 0.22029 0.21608 0.37131 0.0
H1589 H 0.19146 0.25579 0.36736 0.0
S1590 S 0.26445 0.26929 0.27969 0.0
N1591 N 0.2691 0.24177 0.29763 0.0
N1592 N 0.2386 0.28483 0.29359 0.0
C1593 C 0.23259 0.26761 0.31392 0.0
C1594 C 0.24925 0.24447 0.31624 0.0
C1595 C 0.48977 0.53962 0.94143 0.0
C1596 C 0.46585 0.55126 0.95109 0.0
C1597 C 0.51445 0.55338 0.94332 0.0
C1598 C 0.51592 0.57912 0.95496 0.0
H1599 H 0.4896 0.51941 0.93339 0.0
H1600 H 0.53261 0.54347 0.93657 0.0
S1601 S 0.45859 0.62005 0.97908 0.0
N1602 N 0.44492 0.59132 0.96979 0.0
N1603 N 0.49108 0.61683 0.97323 0.0
C1604 C 0.49198 0.59144 0.96327 0.0
C1605 C 0.467 0.5776 0.96134 0.0
C1606 C 0.83555 0.29468 0.31799 0.0
C1607 C 0.82981 0.27293 0.33497 0.0
C1608 C 0.82111 0.31869 0.31971 0.0
C1609 C 0.8001 0.32211 0.33844 0.0
H1610 H 0.85152 0.29322 0.30328 0.0
H1611 H 0.82652 0.33465 0.30595 0.0
S1612 S 0.77703 0.27116 0.38772 0.0
N1613 N 0.80169 0.25617 0.37129 0.0
N1614 N 0.77449 0.30157 0.37465 0.0
C1615 C 0.79429 0.30063 0.35586 0.0
C1616 C 0.80916 0.27602 0.35413 0.0
C1617 C 0.52781 0.98273 0.94278 0.0
C1618 C 0.52612 0.95596 0.95185 0.0
C1619 C 0.55271 0.99605 0.94107 0.0
C1620 C 0.5767 0.98305 0.9485 0.0
H1621 H 0.50971 0.99375 0.93789 0.0
H1622 H 0.55304 1.01691 0.93492 0.0
S1623 S 0.5834 0.91184 0.96981 0.0
N1624 N 0.55081 0.91616 0.9654 0.0
N1625 N 0.59735 0.94109 0.96282 0.0
C1626 C 0.5753 0.95592 0.95643 0.0
C1627 C 0.5501 0.94241 0.95796 0.0
C1628 C 0.22384 0.7805 0.18831 0.0
C1629 C 0.20799 0.77527 0.21125 0.0
C1630 C 0.23813 0.80478 0.18545 0.0
C1631 C 0.23685 0.82484 0.20533 0.0
H1632 H 0.22519 0.76568 0.17246 0.0
H1633 H 0.24988 0.808 0.1674 0.0
S1634 S 0.19815 0.82105 0.2693 0.0
N1635 N 0.19169 0.79246 0.25394 0.0
N1636 N 0.21882 0.83733 0.24917 0.0
C1637 C 0.2213 0.81962 0.22851 0.0
C1638 C 0.20682 0.79506 0.23133 0.0
C1639 C 0.04476 0.54317 0.08535 0.0
C1640 C 0.06753 0.55495 0.09712 0.0
C1641 C 0.02063 0.55763 0.083 0.0
C1642 C 1.0185 0.58409 0.09264 0.0
H1643 H 0.04608 0.52334 0.07648 0.0
H1644 H 1.00371 0.54842 0.07292 0.0
S1645 S 0.07213 0.62312 0.12643 0.0
N1646 N 0.08636 0.59397 0.11938 0.0
N1647 N 0.04083 0.62093 0.11551 0.0
C1648 C 0.04076 0.59549 0.10568 0.0
C1649 C 0.06538 0.58096 0.10771 0.0
C1650 C 0.79215 0.73989 0.19435 0.0
C1651 C 0.8047 0.71579 0.20214 0.0
C1652 C 0.80536 0.76474 0.19723 0.0
C1653 C 0.83151 0.76629 0.20806 0.0
H1654 H 0.7717 0.73966 0.18688 0.0
H1655 H 0.79478 0.78292 0.19171 0.0
S1656 S 0.87456 0.70883 0.22773 0.0
N1657 N 0.84586 0.69497 0.21855 0.0
N1658 N 0.87037 0.74147 0.22383 0.0
C1659 C 0.84463 0.74227 0.21473 0.0
C1660 C 0.83132 0.71709 0.21177 0.0
C1661 C 1.01806 0.98507 0.08926 0.0
C1662 C 1.01874 0.95684 0.08957 0.0
C1663 C 0.99356 0.99904 0.09197 0.0
C1664 C 0.96909 0.98506 0.09446 0.0
H1665 H 0.03648 0.99627 0.08636 0.0
H1666 H 0.9936 0.02076 0.09069 0.0
S1667 S 0.96074 0.9111 0.0975 0.0
N1668 N 0.99345 0.91555 0.0939 0.0
N1669 N 0.94739 0.94147 0.09808 0.0
C1670 C 0.9698 0.95684 0.09542 0.0
C1671 C 0.99466 0.94279 0.09319 0.0
C1672 C 0.33931 0.19348 0.24423 0.0
C1673 C 0.33964 0.20862 0.26804 0.0
C1674 C 0.34194 0.20581 0.21908 0.0
C1675 C 0.3451 0.23379 0.21672 0.0
H1676 H 0.33637 0.17196 0.24509 0.0
H1677 H 0.34078 0.19337 0.20125 0.0
S1678 S 0.34685 0.28266 0.27281 0.0
N1679 N 0.34321 0.25321 0.28768 0.0
N1680 N 0.34855 0.27634 0.24027 0.0
C1681 C 0.34636 0.24915 0.24035 0.0
C1682 C 0.34351 0.23658 0.26606 0.0
C1683 C 0.47229 0.47672 0.03219 0.0
C1684 C 0.46085 0.45362 0.02059 0.0
C1685 C 0.48656 0.47538 0.05639 0.0
C1686 C 0.49042 0.45085 0.06981 0.0
H1687 H 0.47002 0.49611 0.02264 0.0
H1688 H 0.49438 0.49384 0.06485 0.0
S1689 S 0.46496 0.38442 0.04835 0.0
N1690 N 0.45441 0.40529 0.02477 0.0
N1691 N 0.48218 0.40287 0.06988 0.0
C1692 C 0.48003 0.42742 0.05817 0.0
C1693 C 0.46502 0.42878 0.03364 0.0
C1694 C 0.6893 0.30919 0.26493 0.0
C1695 C 0.70155 0.33467 0.26612 0.0
C1696 C 0.6875 0.29502 0.24051 0.0
C1697 C 0.69778 0.30599 0.21654 0.0
H1698 H 0.682 0.2998 0.28315 0.0
H1699 H 0.67896 0.27501 0.24061 0.0
S1700 S 0.72762 0.37399 0.20858 0.0
N1701 N 0.72124 0.37144 0.24103 0.0
N1702 N 0.71777 0.3453 0.19523 0.0
C1703 C 0.70863 0.33214 0.21739 0.0
C1704 C 0.71057 0.34635 0.24215 0.0
C1705 C 0.58844 0.06088 0.04402 0.0
C1706 C 0.58529 0.07997 0.02351 0.0
C1707 C 0.57394 0.06268 0.06796 0.0
C1708 C 0.5555 0.08366 0.07259 0.0
H1709 H 0.6026 0.04453 0.04177 0.0
H1710 H 0.57734 0.04728 0.08297 0.0
S1711 S 0.53918 0.13862 0.025 0.0
N1712 N 0.56184 0.12036 1.00901 0.0
N1713 N 0.53467 0.12393 0.05444 0.0
C1714 C 0.55198 0.10295 0.05225 0.0
C1715 C 0.56688 0.1011 0.02767 0.0
C1716 C 0.35755 0.81196 0.30628 0.0
C1717 C 0.33637 0.79489 0.31379 0.0
C1718 C 0.3559 0.82748 0.2827 0.0
C1719 C 0.33309 0.8263 0.26589 0.0
H1720 H 0.37475 0.81443 0.31939 0.0
H1721 H 0.37204 0.84136 0.27823 0.0
S1722 S 0.27456 0.78087 0.2746 0.0
N1723 N 0.29345 0.77531 0.30132 0.0
N1724 N 0.29069 0.80374 0.25675 0.0
C1725 C 0.31268 0.80787 0.27241 0.0
C1726 C 0.31425 0.79235 0.29643 0.0
C1727 C 0.0707 0.4756 0.96871 0.0
C1728 C 0.05145 0.45525 0.96443 0.0
C1729 C 0.08393 0.47841 0.99333 0.0
C1730 C 0.07872 0.46092 1.01482 0.0
H1731 H 0.07575 0.48966 0.95288 0.0
H1732 H 0.09881 0.49413 0.99536 0.0
S1733 S 0.0294 0.40501 1.01489 0.0
N1734 N 0.02728 0.41773 0.98429 0.0
N1735 N 0.0523 0.42306 0.03076 0.0
C1736 C 0.05938 0.4406 1.01109 0.0
C1737 C 0.04569 0.43779 0.9859 0.0
C1738 C 0.72721 0.72358 0.28129 0.0
C1739 C 0.70576 0.70729 0.27262 0.0
C1740 C 0.7255 0.73853 0.30505 0.0
C1741 C 0.70209 0.73829 0.3208 0.0
H1742 H 0.74568 0.72454 0.26984 0.0
H1743 H 0.74287 0.75 0.31144 0.0
S1744 S 0.64017 0.69932 0.30767 0.0
N1745 N 0.66025 0.69181 0.28229 0.0
N1746 N 0.65694 0.72092 0.32643 0.0
C1747 C 0.68012 0.72299 0.31213 0.0
C1748 C 0.68196 0.70727 0.28813 0.0
C1749 C 0.9572 0.06343 0.99689 0.0
C1750 C 0.95924 0.08298 1.01706 0.0
C1751 C 0.9711 0.06601 0.97264 0.0
C1752 C 0.98786 0.08824 0.96737 0.0
H1753 H 0.94428 0.04615 0.99962 0.0
H1754 H 0.96853 0.05023 0.95788 0.0
S1755 S 1.00099 0.1447 1.01411 0.0
N1756 N 0.97989 0.1251 0.03067 0.0
N1757 N 1.00611 0.13003 0.98477 0.0
C1758 C 0.99035 0.10793 0.98745 0.0
C1759 C 0.976 0.10532 1.01231 0.0
C1760 C 0.24642 0.30728 0.20455 0.0
C1761 C 0.26591 0.32759 0.20606 0.0
C1762 C 0.22177 0.30974 0.21779 0.0
C1763 C 0.21549 0.33256 0.23333 0.0
H1764 H 0.24989 0.28962 0.19236 0.0
H1765 H 0.20744 0.29351 0.21561 0.0
S1766 S 0.26047 0.39068 0.24536 0.0
N1767 N 0.27801 0.37074 0.22543 0.0
N1768 N 0.23142 0.37542 0.25042 0.0
C1769 C 0.23508 0.35276 0.23568 0.0
C1770 C 0.26029 0.35029 0.22198 0.0
C1771 C 0.22115 0.69767 0.33208 0.0
C1772 C 0.21882 0.69504 0.30403 0.0
C1773 C 0.24628 0.70031 0.34442 0.0
C1774 C 0.27004 0.70056 0.32918 0.0
H1775 H 0.20332 0.69839 0.34457 0.0
H1776 H 0.24716 0.70276 0.36603 0.0
S1777 S 0.27477 0.69537 0.25489 0.0
N1778 N 0.24227 0.69301 0.26128 0.0
N1779 N 0.28965 0.69845 0.28441 0.0
C1780 C 0.26807 0.69739 0.30111 0.0
C1781 C 0.2424 0.69449 0.28855 0.0
C1782 C 0.9328 0.53848 0.95513 0.0
C1783 C 0.95332 0.51937 0.95922 0.0
C1784 C 0.93058 0.56125 0.97165 0.0
C1785 C 0.9487 0.56549 0.99284 0.0
H1786 H 0.9193 0.53662 0.93818 0.0
H1787 H 0.91568 0.57638 0.96683 0.0
S1788 S 1.00351 0.51994 1.01441 0.0
N1789 N 0.98997 0.50482 0.98818 0.0
N1790 N 0.98632 0.54803 1.01844 0.0
C1791 C 0.96827 0.54591 0.99807 0.0
C1792 C 0.97043 0.52269 0.98148 0.0
C1793 C 0.82075 0.82045 0.32945 0.0
C1794 C 0.82328 0.8375 0.30696 0.0
C1795 C 0.79659 0.81832 0.34362 0.0
C1796 C 0.77386 0.8332 0.33609 0.0
H1797 H 0.83751 0.80828 0.33613 0.0
H1798 H 0.7957 0.80483 0.36067 0.0
S1799 S 0.76961 0.88104 0.27902 0.0
N1800 N 0.8009 0.86995 0.27808 0.0
N1801 N 0.75525 0.86581 0.30481 0.0
C1802 C 0.7761 0.85082 0.31404 0.0
C1803 C 0.80085 0.85299 0.29947 0.0
C1804 C 0.60488 0.50172 0.45947 0.0
C1805 C 0.5832 0.51969 0.46272 0.0
C1806 C 0.60703 0.47845 0.4753 0.0
C1807 C 0.58766 0.47252 0.49492 0.0
H1808 H 0.61952 0.50494 0.44369 0.0
H1809 H 0.623 0.46428 0.47111 0.0
S1810 S 0.52929 0.51455 0.51413 0.0
N1811 N 0.54382 0.53128 0.4894 0.0
N1812 N 0.54753 0.48716 0.51842 0.0
C1813 C 0.56677 0.4909 0.49938 0.0
C1814 C 0.56464 0.51462 0.48348 0.0
C1815 C 0.29633 0.69742 0.69703 0.0
C1816 C 0.2723 0.70401 0.71025 0.0
C1817 C 0.32053 0.69529 0.71124 0.0
C1818 C 0.3213 0.69854 0.73929 0.0
H1819 H 0.29646 0.69475 0.67543 0.0
H1820 H 0.33887 0.69143 0.70014 0.0
S1821 S 0.26379 0.7164 0.7831 0.0
N1822 N 0.25063 0.71449 0.75264 0.0
N1823 N 0.29606 0.70916 0.77973 0.0
C1824 C 0.29729 0.70462 0.75284 0.0
C1825 C 0.27276 0.70768 0.73819 0.0
C1826 C 0.93515 0.50406 0.57305 0.0
C1827 C 0.95869 0.51989 0.5731 0.0
C1828 C 0.93296 0.48112 0.55672 0.0
C1829 C 0.95441 0.47293 0.54037 0.0
H1830 H 0.91872 0.50875 0.58651 0.0
H1831 H 0.91503 0.46895 0.55795 0.0
S1832 S 1.01782 0.51022 0.52842 0.0
N1833 N 1.00182 0.5281 0.55134 0.0
N1834 N 0.99819 0.48428 0.52201 0.0
C1835 C 0.9772 0.48951 0.53874 0.0
C1836 C 0.97925 0.51312 0.55482 0.0
C1837 C 0.06809 0.04248 0.58714 0.0
C1838 C 0.08496 0.02087 0.58061 0.0
C1839 C 0.06999 0.067 0.57365 0.0
C1840 C 0.08876 0.0711 0.55281 0.0
H1841 H 0.05339 0.04053 0.60307 0.0
H1842 H 0.05631 0.08283 0.57965 0.0
S1843 S 0.13767 0.02068 0.52784 0.0
N1844 N 0.12117 1.00489 0.55196 0.0
N1845 N 0.12478 0.05123 0.52637 0.0
C1846 C 0.10598 0.04969 0.54611 0.0
C1847 C 0.10411 0.02456 0.56008 0.0
C1848 C 0.74689 0.73802 0.84675 0.0
C1849 C 0.73281 0.71391 0.8428 0.0
C1850 C 0.73372 0.76291 0.84471 0.0
C1851 C 0.70598 0.76447 0.83898 0.0
H1852 H 0.76841 0.73773 0.85004 0.0
H1853 H 0.74561 0.78101 0.84649 0.0
S1854 S 0.65943 0.70685 0.83135 0.0
N1855 N 0.68927 0.69296 0.83551 0.0
N1856 N 0.66447 0.73958 0.83276 0.0
C1857 C 0.69149 0.7404 0.8367 0.0
C1858 C 0.70491 0.71516 0.83836 0.0
C1859 C 0.96875 0.0734 0.47465 0.0
C1860 C 0.96509 0.05248 0.4559 0.0
C1861 C 0.99283 0.08775 0.47615 0.0
C1862 C 1.01439 0.08203 0.4589 0.0
H1863 H 0.95289 0.07883 0.48854 0.0
H1864 H 0.99448 0.1037 0.49083 0.0
S1865 S 1.01571 0.0291 0.40639 0.0
N1866 N 0.98536 0.0267 0.41968 0.0
N1867 N 0.03087 0.05377 0.42259 0.0
C1868 C 1.01113 0.06134 0.43985 0.0
C1869 C 0.98646 0.04655 0.43835 0.0
C1870 C 0.29535 0.8004 0.84872 0.0
C1871 C 0.3055 0.82421 0.83732 0.0
C1872 C 0.30995 0.77623 0.84719 0.0
C1873 C 0.33503 0.77511 0.83412 0.0
H1874 H 0.27572 0.80024 0.85813 0.0
H1875 H 0.30124 0.75813 0.85553 0.0
S1876 S 0.37231 0.83233 0.80473 0.0
N1877 N 0.34368 0.84549 0.81515 0.0
N1878 N 0.37059 0.80009 0.8122 0.0
C1879 C 0.34587 0.79889 0.82376 0.0
C1880 C 0.33124 0.82344 0.82542 0.0
C1881 C 0.04415 0.44139 0.44748 0.0
C1882 C 0.0203 0.45647 0.44755 0.0
C1883 C 0.06926 0.45387 0.44523 0.0
C1884 C 0.07148 0.48193 0.44282 0.0
H1885 H 0.04336 0.41977 0.4497 0.0
H1886 H 0.08715 0.44147 0.44598 0.0
S1887 S 1.01529 0.53074 0.44307 0.0
N1888 N 1.00053 0.50115 0.44573 0.0
N1889 N 0.04784 0.52454 0.44095 0.0
C1890 C 0.04783 0.49728 0.4422 0.0
C1891 C 0.02219 0.48457 0.44472 0.0
C1892 C 0.74466 0.29916 0.68881 0.0
C1893 C 0.73399 0.32289 0.69989 0.0
C1894 C 0.73063 0.27468 0.69072 0.0
C1895 C 0.70561 0.27321 0.70386 0.0
H1896 H 0.76435 0.29929 0.67951 0.0
H1897 H 0.7398 0.25662 0.6828 0.0
S1898 S 0.6671 0.33004 0.73248 0.0
N1899 N 0.69539 0.34367 0.72177 0.0
N1900 N 0.66949 0.29776 0.72541 0.0
C1901 C 0.69419 0.29694 0.71375 0.0
C1902 C 0.70826 0.32176 0.71173 0.0
C1903 C 0.55795 0.06426 0.60841 0.0
C1904 C 0.56192 0.04286 0.59053 0.0
C1905 C 0.5356 0.0813 0.60572 0.0
C1906 C 0.51647 0.07737 0.58514 0.0
H1907 H 0.57307 0.06892 0.62338 0.0
H1908 H 0.53411 0.09846 0.61896 0.0
S1909 S 0.51606 0.02106 0.53613 0.0
N1910 N 0.54407 1.01685 0.55342 0.0
N1911 N 0.50142 0.04788 0.54907 0.0
C1912 C 0.51939 0.05469 0.56846 0.0
C1913 C 0.54231 0.03769 0.57098 0.0
C1914 C 0.32763 0.25326 0.68385 0.0
C1915 C 0.32539 0.27102 0.70584 0.0
C1916 C 0.3121 0.22971 0.68246 0.0
C1917 C 0.29397 0.22318 0.70306 0.0
H1918 H 0.34238 0.25691 0.66829 0.0
H1919 H 0.31544 0.21583 0.66603 0.0
S1920 S 0.27701 0.26491 0.76237 0.0
N1921 N 0.3007 0.28203 0.74662 0.0
N1922 N 0.27233 0.23743 0.74441 0.0
C1923 C 0.29035 0.24144 0.72424 0.0
C1924 C 0.30586 0.26547 0.72554 0.0
C1925 C 0.49342 0.44777 0.57528 0.0
C1926 C 0.51623 0.4577 0.58853 0.0
C1927 C 0.46873 0.46103 0.57684 0.0
C1928 C 0.46572 0.48496 0.59163 0.0
H1929 H 0.49471 0.42956 0.56346 0.0
H1930 H 0.45194 0.45252 0.56593 0.0
S1931 S 0.51938 0.51919 0.63041 0.0
N1932 N 0.5344 0.49262 0.61735 0.0
N1933 N 0.48776 0.51778 0.62034 0.0
C1934 C 0.48824 0.49484 0.6056 0.0
C1935 C 0.51353 0.48116 0.60404 0.0
C1936 C 0.81237 0.70168 0.74447 0.0
C1937 C 0.83035 0.7057 0.76581 0.0
C1938 C 0.81519 0.71558 0.72022 0.0
C1939 C 0.83604 0.73432 0.71615 0.0
H1940 H 0.79622 0.68723 0.74631 0.0
H1941 H 0.80069 0.71145 0.70453 0.0
S1942 S 0.88777 0.7533 0.76633 0.0
N1943 N 0.86927 0.7305 0.78184 0.0
N1944 N 0.87463 0.75672 0.73603 0.0
C1945 C 0.85403 0.73889 0.73747 0.0
C1946 C 0.8512 0.72453 0.76229 0.0
C1947 C 0.99806 0.96293 0.54658 0.0
C1948 C 0.99078 0.94543 0.5675 0.0
C1949 C 0.98235 0.96497 0.52324 0.0
C1950 C 0.9588 0.94964 0.52009 0.0
H1951 H 1.01531 0.97603 0.54883 0.0
H1952 H 0.9882 0.97919 0.50783 0.0
S1953 S 0.93074 0.90164 0.56982 0.0
N1954 N 0.95849 0.91299 0.58406 0.0
N1955 N 0.92898 0.91651 0.54018 0.0
C1956 C 0.95175 0.93154 0.54068 0.0
C1957 C 0.96772 0.92959 0.56445 0.0
C1958 C 0.20052 0.78914 0.7436 0.0
C1959 C 0.19649 0.80276 0.71914 0.0
C1960 C 0.20303 0.80346 0.76788 0.0
C1961 C 0.201 0.83161 0.76833 0.0
H1962 H 0.20326 0.76755 0.74374 0.0
H1963 H 0.20716 0.79262 0.78629 0.0
S1964 S 0.18914 0.87631 0.71015 0.0
N1965 N 0.19002 0.84582 0.69709 0.0
N1966 N 0.19358 0.87237 0.74283 0.0
C1967 C 0.19584 0.84522 0.74427 0.0
C1968 C 0.19389 0.83085 0.71961 0.0
C1969 C 0.06802 0.59886 0.52769 0.0
C1970 C 0.08342 0.57567 0.52237 0.0
C1971 C 0.05382 0.60186 0.55201 0.0
C1972 C 0.05477 0.58189 0.57197 0.0
H1973 H 0.06694 0.61479 0.51292 0.0
H1974 H 0.04246 0.62011 0.55536 0.0
S1975 S 0.09216 0.51727 0.56795 0.0
N1976 N 0.09895 0.53263 0.5394 0.0
N1977 N 0.07188 0.53769 0.58434 0.0
C1978 C 0.06985 0.55847 0.56669 0.0
C1979 C 0.08426 0.55549 0.5421 0.0
C1980 C 0.82131 0.33957 0.79543 0.0
C1981 C 0.8323 0.32789 0.77223 0.0
C1982 C 0.82347 0.32702 0.82049 0.0
C1983 C 0.83667 0.30217 0.82347 0.0
H1984 H 0.81107 0.35872 0.79423 0.0
H1985 H 0.81451 0.33695 0.83766 0.0
S1986 S 0.86807 0.26258 0.76869 0.0
N1987 N 0.85637 0.2897 0.75356 0.0
N1988 N 0.86056 0.26607 0.80085 0.0
C1989 C 0.84795 0.29026 0.80046 0.0
C1990 C 0.84573 0.30312 0.7748 0.0
C1991 C 0.59385 0.94657 0.4993 0.0
C1992 C 0.57842 0.94665 0.52294 0.0
C1993 C 0.58174 0.94402 0.47406 0.0
C1994 C 0.55372 0.94132 0.47147 0.0
H1995 H 0.61543 0.94925 0.50034 0.0
H1996 H 0.59437 0.94506 0.45634 0.0
S1997 S 0.50415 0.94038 0.52703 0.0
N1998 N 0.53351 0.9437 0.54217 0.0
N1999 N 0.51081 0.93846 0.49456 0.0
C2000 C 0.53806 0.94028 0.49492 0.0
C2001 C 0.5504 0.94308 0.52073 0.0
C2002 C 0.20344 0.20807 0.82013 0.0
C2003 C 0.19728 0.2356 0.82144 0.0
C2004 C 0.20511 0.19471 0.79546 0.0
C2005 C 0.20089 0.20836 0.77111 0.0
H2006 H 0.20757 0.19684 0.83833 0.0
H2007 H 0.21029 0.17359 0.79538 0.0
S2008 S 0.18482 0.2808 0.76363 0.0
N2009 N 0.18681 0.27615 0.79644 0.0
N2010 N 0.19051 0.25116 0.74985 0.0
C2011 C 0.1941 0.23582 0.77213 0.0
C2012 C 0.19215 0.24941 0.79738 0.0
C2013 C 0.48161 0.59577 0.51381 0.0
C2014 C 0.45776 0.58079 0.51652 0.0
C2015 C 0.49473 0.59805 0.48881 0.0
C2016 C 0.48426 0.58559 0.46565 0.0
H2017 H 0.49045 0.60527 0.53126 0.0
H2018 H 0.51342 0.60914 0.48775 0.0
S2019 S 0.42035 0.54696 0.46177 0.0
N2020 N 0.42303 0.55538 0.49371 0.0
N2021 N 0.44722 0.55954 0.44695 0.0
C2022 C 0.45982 0.57141 0.46809 0.0
C2023 C 0.44669 0.56902 0.49345 0.0
C2024 C 0.7313 0.85495 0.7293 0.0
C2025 C 0.72346 0.8334 0.74572 0.0
C2026 C 0.75461 0.85325 0.71336 0.0
C2027 C 0.77095 0.83008 0.71365 0.0
H2028 H 0.71865 0.87256 0.7277 0.0
H2029 H 0.75922 0.86969 0.69989 0.0
S2030 S 0.76179 0.77072 0.75796 0.0
N2031 N 0.73538 0.78985 0.76414 0.0
N2032 N 0.77969 0.7871 0.73531 0.0
C2033 C 0.76431 0.80938 0.73175 0.0
C2034 C 0.74044 0.81095 0.74753 0.0
C2035 C 0.7525 0.1822 0.83337 0.0
C2036 C 0.77085 0.2034 0.82926 0.0
C2037 C 0.72921 0.17979 0.81758 0.0
C2038 C 0.72369 0.19839 0.79713 0.0
H2039 H 0.75541 0.16826 0.84982 0.0
H2040 H 0.71471 0.16428 0.82243 0.0
S2041 S 0.76687 0.25503 0.77555 0.0
N2042 N 0.78327 0.2413 0.80094 0.0
N2043 N 0.73914 0.23714 0.77194 0.0
C2044 C 0.74249 0.21867 0.79179 0.0
C2045 C 0.76622 0.22107 0.80767 0.0
C2046 C 0.43654 0.02829 0.47477 0.0
C2047 C 0.461 0.0212 0.46221 0.0
C2048 C 0.43346 0.05295 0.48826 0.0
C2049 C 0.45469 0.0715 0.48944 0.0
H2050 H 0.4195 1.01482 0.47379 0.0
H2051 H 0.41412 0.05789 0.49698 0.0
S2052 S 0.5234 0.06224 0.46158 0.0
N2053 N 0.50706 0.03482 0.45283 0.0
N2054 N 0.50161 0.08033 0.47876 0.0
C2055 C 0.47953 0.06423 0.47794 0.0
C2056 C 0.48263 0.0393 0.46421 0.0
C2057 C 0.29969 0.34596 0.79081 0.0
C2058 C 0.32356 0.33842 0.804 0.0
C2059 C 0.27459 0.34363 0.80371 0.0
C2060 C 0.2726 0.33361 0.83011 0.0
H2061 H 0.3003 0.35271 0.77012 0.0
H2062 H 0.25655 0.34885 0.79271 0.0
S2063 S 0.32929 0.31518 0.87473 0.0
N2064 N 0.34369 0.32337 0.84597 0.0
N2065 N 0.2967 0.31902 0.86988 0.0
C2066 C 0.29638 0.3273 0.84385 0.0
C2067 C 0.32181 0.32973 0.83089 0.0
C2068 C 0.05848 1.00155 0.96169 0.0
C2069 C 0.08113 1.01815 0.95894 0.0
C2070 C 0.05983 0.97735 0.97582 0.0
C2071 C 0.08386 0.96867 0.988 0.0
H2072 H 0.03931 1.00751 0.95331 0.0
H2073 H 0.04166 0.96546 0.97737 0.0
S2074 S 0.14925 1.00426 0.98604 0.0
N2075 N 0.12862 0.02395 0.969 0.0
N2076 N 0.13105 0.97836 0.99601 0.0
C2077 C 0.10672 0.98504 0.98556 0.0
C2078 C 0.10538 1.00978 0.97094 0.0
C2079 C 0.79461 0.22146 0.20213 0.0
C2080 C 0.77223 0.20583 0.20914 0.0
C2081 C 0.81893 0.21908 0.21597 0.0
C2082 C 0.822 0.20108 0.23765 0.0
H2083 H 0.79338 0.23557 0.18561 0.0
H2084 H 0.83542 0.23179 0.20961 0.0
S2085 S 0.76919 0.15567 0.26424 0.0
N2086 N 0.75439 0.17172 0.23922 0.0
N2087 N 0.8003 0.16721 0.26542 0.0
C2088 C 0.7998 0.18509 0.2448 0.0
C2089 C 0.77491 0.18746 0.23051 0.0
C2090 C 0.43322 0.97921 0.05995 0.0
C2091 C 0.45447 0.97117 0.04323 0.0
C2092 C 0.4353 1.00264 0.07559 0.0
C2093 C 0.45863 1.01874 0.07487 0.0
H2094 H 0.41559 0.96662 0.06207 0.0
H2095 H 0.41903 1.00753 0.08919 0.0
S2096 S 0.51781 1.00827 0.03059 0.0
N2097 N 0.4982 0.9822 0.02461 0.0
N2098 N 0.50176 0.0266 0.05313 0.0
C2099 C 0.4792 1.01165 0.05681 0.0
C2100 C 0.47719 0.98775 0.0412 0.0
C2101 C 0.57042 0.5453 0.04341 0.0
C2102 C 0.5909 0.56416 0.0478 0.0
C2103 C 0.56866 0.52199 0.05903 0.0
C2104 C 0.58713 0.51692 0.07984 0.0
H2105 H 0.55503 0.54913 0.02847 0.0
H2106 H 0.55226 0.50819 0.05533 0.0
S2107 S 0.64399 0.5608 0.09974 0.0
N2108 N 0.62991 0.5766 0.07415 0.0
N2109 N 0.62655 0.53287 0.10394 0.0
C2110 C 0.6082 0.53534 0.08389 0.0
C2111 C 0.61006 0.55902 0.06778 0.0
C2112 C 0.02869 0.27539 0.28028 0.0
C2113 C 0.04167 0.28454 0.30367 0.0
C2114 C 1.0051 0.26014 0.28161 0.0
C2115 C 0.99337 0.25317 0.3064 0.0
H2116 H 0.03679 0.28021 0.26064 0.0
H2117 H 0.99589 0.25374 0.26295 0.0
S2118 S 1.01944 0.27169 0.37371 0.0
N2119 N 0.04119 0.28521 0.35253 0.0
N2120 N 0.99657 0.2565 0.35502 0.0
C2121 C 1.00615 0.26194 0.33004 0.0
C2122 C 0.03026 0.27774 0.32868 0.0
C2123 C 0.54013 0.76296 0.97294 0.0
C2124 C 0.53354 0.74274 0.99162 0.0
C2125 C 0.5248 0.78667 0.97103 0.0
C2126 C 0.50215 0.79096 0.98752 0.0
H2127 H 0.55711 0.76036 0.95956 0.0
H2128 H 0.53076 0.80184 0.9566 0.0
S2129 S 0.47788 0.7457 0.04145 0.0
N2130 N 0.50386 0.72976 0.02835 0.0
N2131 N 0.4749 0.77383 0.02413 0.0
C2132 C 0.49551 0.77109 1.00639 0.0
C2133 C 0.51123 0.74716 1.00861 0.0
C2134 C 1.00703 0.77627 0.21659 0.0
C2135 C 0.99907 0.7923 0.23847 0.0
C2136 C 0.03049 0.76047 0.21777 0.0
C2137 C 0.04659 0.75979 0.24108 0.0
H2138 H 0.99489 0.77579 0.19852 0.0
H2139 H 0.03606 0.74877 0.2003 0.0
S2140 S 0.03238 0.79604 0.30489 0.0
N2141 N 1.00805 0.80554 0.28444 0.0
N2142 N 0.05133 0.77523 0.28732 0.0
C2143 C 0.03833 0.77541 0.26329 0.0
C2144 C 1.01479 0.79178 0.26183 0.0
C2145 C 1.00453 0.76045 0.06864 0.0
C2146 C 1.00506 0.74323 0.04621 0.0
C2147 C 0.02028 0.78392 0.06942 0.0
C2148 C 0.03731 0.79095 0.04789 0.0
H2149 H 0.99209 0.75561 0.08585 0.0
H2150 H 1.01919 0.79665 0.08704 0.0
S2151 S 0.04397 0.7543 0.98339 0.0
N2152 N 0.02258 0.73612 1.00108 0.0
N2153 N 0.05237 0.77977 1.00286 0.0
C2154 C 0.03772 0.77415 0.02523 0.0
C2155 C 0.02156 0.75045 0.02431 0.0
C2156 C 0.32064 1.00667 0.26544 0.0
C2157 C 0.30039 0.99996 0.24682 0.0
C2158 C 0.31879 0.02993 0.2814 0.0
C2159 C 0.29649 0.04726 0.27951 0.0
H2160 H 0.33804 0.99378 0.2677 0.0
H2161 H 0.33504 0.03451 0.29513 0.0
S2162 S 0.23664 0.03698 0.23603 0.0
N2163 N 0.25663 1.01155 0.22868 0.0
N2164 N 0.25276 0.05478 0.25889 0.0
C2165 C 0.27584 0.04038 0.26135 0.0
C2166 C 0.2779 1.0169 0.24496 0.0
C2167 C 0.27943 0.46487 1.0134 0.0
C2168 C 0.28852 0.48677 0.99796 0.0
C2169 C 0.25581 0.46664 0.02895 0.0
C2170 C 0.24059 0.49052 0.02999 0.0
H2171 H 0.29075 0.44628 1.01352 0.0
H2172 H 0.24938 0.44912 0.04014 0.0
S2173 S 0.25781 0.55448 0.99539 0.0
N2174 N 0.28148 0.53334 0.98573 0.0
N2175 N 0.2379 0.53721 1.01554 0.0
C2176 C 0.24996 0.51272 1.01499 0.0
C2177 C 0.27368 0.51071 0.99887 0.0
C2178 C 0.71221 0.53117 0.2619 0.0
C2179 C 0.73679 0.54301 0.25422 0.0
C2180 C 0.71154 0.50759 0.27773 0.0
C2181 C 0.73544 0.4949 0.28614 0.0
H2182 H 0.6934 0.5404 0.25598 0.0
H2183 H 0.69226 0.499 0.28303 0.0
S2184 S 0.80492 0.51773 0.27124 0.0
N2185 N 0.78551 0.53986 0.25598 0.0
N2186 N 0.78427 0.49632 0.2859 0.0
C2187 C 0.76005 0.50664 0.27857 0.0
C2188 C 0.76072 0.53043 0.26257 0.0
C2189 C 0.78539 0.0302 0.02615 0.0
C2190 C 0.79657 0.0543 0.03579 0.0
C2191 C 0.76192 0.03002 1.01065 0.0
C2192 C 0.74839 0.05394 1.00396 0.0
H2193 H 0.79484 1.01113 0.03075 0.0
H2194 H 0.75429 1.01084 1.00377 0.0
S2195 S 0.76919 0.12263 0.02401 0.0
N2196 N 0.7924 0.10292 0.0373 0.0
N2197 N 0.7479 0.10256 1.00832 0.0
C2198 C 0.7593 0.0783 1.01334 0.0
C2199 C 0.78334 0.07847 0.02932 0.0
C2200 C 0.25007 0.28246 1.01313 0.0
C2201 C 0.24984 0.30556 0.99701 0.0
C2202 C 0.26633 0.28087 0.0361 0.0
C2203 C 0.2828 0.30251 0.04423 0.0
H2204 H 0.23827 0.26508 1.00742 0.0
H2205 H 0.26632 0.26222 0.0473 0.0
S2206 S 0.28793 0.36829 1.00934 0.0
N2207 N 0.26686 0.35076 0.99063 0.0
N2208 N 0.29654 0.34844 0.03453 0.0
C2209 C 0.28227 0.32601 0.02841 0.0
C2210 C 0.26599 0.32739 1.0047 0.0
C2211 C 0.26564 0.72433 0.49834 0.0
C2212 C 0.28942 0.73942 0.49529 0.0
C2213 C 0.25056 0.72525 0.52226 0.0
C2214 C 0.25856 0.74144 0.54402 0.0
H2215 H 0.2586 0.71177 0.48203 0.0
H2216 H 0.23256 0.7131 0.52375 0.0
S2217 S 0.31787 0.78679 0.54519 0.0
N2218 N 0.31942 0.77209 0.5155 0.0
N2219 N 0.29103 0.77424 0.56015 0.0
C2220 C 0.28213 0.7569 0.54103 0.0
C2221 C 0.29755 0.75578 0.51679 0.0
C2222 C 1.00787 0.51154 0.77857 0.0
C2223 C 0.9837 0.50304 0.79057 0.0
C2224 C 1.00797 0.52718 0.75521 0.0
C2225 C 0.98391 0.53515 0.74267 0.0
H2226 H 0.02702 0.50602 0.78737 0.0
H2227 H 0.02719 0.53314 0.74688 0.0
S2228 S 0.91503 0.51832 0.76582 0.0
N2229 N 0.9349 0.50386 0.7882 0.0
N2230 N 0.93509 0.53322 0.7439 0.0
C2231 C 0.95949 0.5269 0.75437 0.0
C2232 C 0.95939 0.51073 0.77829 0.0
C2233 C 0.76268 0.77971 0.50883 0.0
C2234 C 0.75459 0.80363 0.4961 0.0
C2235 C 0.77803 0.78004 0.53239 0.0
C2236 C 0.78609 0.8043 0.54444 0.0
H2237 H 0.75699 0.76042 0.50054 0.0
H2238 H 0.78368 0.76099 0.54127 0.0
S2239 S 0.7704 0.87267 0.51923 0.0
N2240 N 0.75601 0.85242 0.4972 0.0
N2241 N 0.78476 0.85304 0.54186 0.0
C2242 C 0.77829 0.82847 0.53196 0.0
C2243 C 0.76245 0.82813 0.50784 0.0
C2244 C 0.57658 0.51142 0.25767 0.0
C2245 C 0.55227 0.50391 0.24522 0.0
C2246 C 0.5767 0.52723 0.28124 0.0
C2247 C 0.5525 0.53573 0.29326 0.0
H2248 H 0.59559 0.50534 0.24895 0.0
H2249 H 0.59576 0.53239 0.29038 0.0
S2250 S 0.48358 0.52126 0.26871 0.0
N2251 N 0.50348 0.50597 0.24702 0.0
N2252 N 0.50374 0.53574 0.29069 0.0
C2253 C 0.52818 0.52835 0.28091 0.0
C2254 C 0.52805 0.51241 0.25711 0.0
C2255 C 0.02846 1.01847 0.78697 0.0
C2256 C 0.05026 0.03522 0.79402 0.0
C2257 C 0.02909 1.00226 0.7639 0.0
C2258 C 0.0514 1.00229 0.74659 0.0
H2259 H 1.01046 1.01809 0.79923 0.0
H2260 H 1.01164 0.99014 0.75918 0.0
S2261 S 0.11424 0.04127 0.75604 0.0
N2262 N 0.09537 0.04976 0.78203 0.0
N2263 N 0.09618 0.01987 0.73825 0.0
C2264 C 0.07338 1.01882 0.75326 0.0
C2265 C 0.07288 0.03515 0.77698 0.0
C2266 C 0.51088 0.75431 0.78177 0.0
C2267 C 0.49589 0.75125 0.80557 0.0
C2268 C 0.5346 0.7695 0.78118 0.0
C2269 C 0.54427 0.78262 0.80429 0.0
H2270 H 0.50412 0.74493 0.76333 0.0
H2271 H 0.54533 0.77125 0.7623 0.0
S2272 S 0.51261 0.781 0.8718 0.0
N2273 N 0.49248 0.76249 0.85295 0.0
N2274 N 0.5371 0.7913 0.85181 0.0
C2275 C 0.52952 0.77976 0.82828 0.0
C2276 C 0.50542 0.76394 0.82896 0.0
C2277 C 1.00752 0.27743 0.46411 0.0
C2278 C 1.00451 0.29294 0.48762 0.0
C2279 C 0.02337 0.25389 0.46401 0.0
C2280 C 0.03641 0.24492 0.4875 0.0
H2281 H 0.99783 0.28372 0.44565 0.0
H2282 H 0.02498 0.24236 0.44562 0.0
S2283 S 0.03481 0.27825 0.55417 0.0
N2284 N 1.01583 0.29745 0.5349 0.0
N2285 N 0.04548 0.25366 0.53466 0.0
C2286 C 0.03354 0.26034 0.51101 0.0
C2287 C 1.01763 0.28418 0.51108 0.0
C2288 C 0.5084 0.27411 0.71473 0.0
C2289 C 0.4998 0.28936 0.73695 0.0
C2290 C 0.53194 0.2584 0.71594 0.0
C2291 C 0.54753 0.25705 0.73957 0.0
H2292 H 0.49683 0.27436 0.69629 0.0
H2293 H 0.53807 0.24743 0.69817 0.0
S2294 S 0.53147 0.2908 0.80429 0.0
N2295 N 0.50756 0.30089 0.78362 0.0
N2296 N 0.55098 0.27077 0.78645 0.0
C2297 C 0.53855 0.27172 0.76214 0.0
C2298 C 0.51492 0.28799 0.76069 0.0
C2299 C 0.5212 0.28427 0.57366 0.0
C2300 C 0.53685 0.29247 0.55152 0.0
C2301 C 0.5048 0.26123 0.57233 0.0
C2302 C 0.50316 0.24579 0.54867 0.0
H2303 H 0.52169 0.29575 0.59214 0.0
H2304 H 0.49363 0.25529 0.59005 0.0
S2305 S 0.53753 0.2611 0.48404 0.0
N2306 N 0.54823 0.28462 0.50481 0.0
N2307 N 0.5169 0.24212 0.5018 0.0
C2308 C 0.51811 0.25446 0.52614 0.0
C2309 C 0.53507 0.27755 0.52769 0.0
C2310 C 0.82502 0.52915 0.77875 0.0
C2311 C 0.80074 0.54358 0.78121 0.0
C2312 C 0.8267 0.50585 0.76276 0.0
C2313 C 0.80429 0.49641 0.74833 0.0
H2314 H 0.8429 0.53598 0.78912 0.0
H2315 H 0.84559 0.49506 0.76177 0.0
S2316 S 0.73557 0.52492 0.74972 0.0
N2317 N 0.75325 0.54503 0.76928 0.0
N2318 N 0.75693 0.50211 0.73861 0.0
C2319 C 0.77996 0.51039 0.75073 0.0
C2320 C 0.77806 0.53374 0.76729 0.0
C2321 C 0.76399 1.0016 0.54616 0.0
C2322 C 0.74146 0.98667 0.53797 0.0
C2323 C 0.78762 1.00207 0.53071 0.0
C2324 C 0.78982 0.98753 0.50647 0.0
H2325 H 0.76308 1.01367 0.56424 0.0
H2326 H 0.80418 1.0144 0.5376 0.0
S2327 S 0.73739 0.94321 0.47752 0.0
N2328 N 0.72332 0.95572 0.50487 0.0
N2329 N 0.76784 0.95637 0.47603 0.0
C2330 C 0.76764 0.97201 0.49839 0.0
C2331 C 0.74351 0.9716 0.5141 0.0
C2332 C 0.25149 1.01492 0.79312 0.0
C2333 C 0.23198 0.99529 0.78789 0.0
C2334 C 0.25308 0.03838 0.77757 0.0
C2335 C 0.23499 0.04345 0.75625 0.0
H2336 H 0.2662 1.01171 0.80886 0.0
H2337 H 0.26908 0.05243 0.78202 0.0
S2338 S 0.17922 0.99846 0.73544 0.0
N2339 N 0.19396 0.9822 0.76036 0.0
N2340 N 0.19607 0.02682 0.73174 0.0
C2341 C 0.21504 0.024 0.75116 0.0
C2342 C 0.21373 0.99986 0.76683 0.0
C2343 C 0.29089 0.53853 0.50978 0.0
C2344 C 0.29216 0.55276 0.53434 0.0
C2345 C 0.26763 0.53852 0.49384 0.0
C2346 C 0.24444 0.55234 0.50193 0.0
H2347 H 0.30785 0.52672 0.50297 0.0
H2348 H 0.26751 0.52686 0.47546 0.0
S2349 S 0.23692 0.59368 0.56341 0.0
N2350 N 0.26805 0.58224 0.56503 0.0
N2351 N 0.22399 0.58113 0.53553 0.0
C2352 C 0.24523 0.56674 0.52622 0.0
C2353 C 0.26911 0.56716 0.54231 0.0
C2354 C 0.76386 0.21191 0.03511 0.0
C2355 C 0.75527 0.23612 0.04704 0.0
C2356 C 0.7795 0.21197 1.01139 0.0
C2357 C 0.78671 0.23622 0.99869 0.0
H2358 H 0.75877 0.19288 0.04434 0.0
H2359 H 0.78553 0.19297 1.00268 0.0
S2360 S 0.76903 0.30487 0.02168 0.0
N2361 N 0.75494 0.28483 0.04403 0.0
N2362 N 0.78431 0.28492 1.00003 0.0
C2363 C 0.77822 0.26043 1.0105 0.0
C2364 C 0.7625 0.26038 0.03447 0.0
C2365 C 0.5097 0.02622 0.29172 0.0
C2366 C 0.49174 1.00478 0.29608 0.0
C2367 C 0.50863 0.04169 0.26817 0.0
C2368 C 0.48949 0.03643 0.24804 0.0
H2369 H 0.5251 0.03074 0.30643 0.0
H2370 H 0.52345 0.05738 0.26537 0.0
S2371 S 0.43616 0.98433 0.25093 0.0
N2372 N 0.45317 0.98021 0.27913 0.0
N2373 N 0.45091 1.00941 0.23496 0.0
C2374 C 0.47092 1.01552 0.25251 0.0
C2375 C 0.47212 0.99967 0.27645 0.0
C2376 C 0.16443 0.44651 0.17952 0.0
C2377 C 0.14431 0.45764 0.16302 0.0
C2378 C 0.15893 0.42496 0.19697 0.0
C2379 C 0.13294 0.41381 0.19897 0.0
H2380 H 0.18478 0.4542 0.17862 0.0
H2381 H 0.17533 0.41672 0.20862 0.0
S2382 S 0.07246 0.43775 0.16214 0.0
N2383 N 0.09706 0.45688 0.15081 0.0
N2384 N 0.08639 0.41731 0.18424 0.0
C2385 C 0.11246 0.42534 0.18308 0.0
C2386 C 0.11821 0.44698 0.16499 0.0
C2387 C 0.69109 0.6624 0.12655 0.0
C2388 C 0.70879 0.64057 0.12334 0.0
C2389 C 0.66986 0.66702 0.10847 0.0
C2390 C 0.66512 0.65 0.08627 0.0
H2391 H 0.69344 0.67602 0.14335 0.0
H2392 H 0.65693 0.68411 0.11208 0.0
S2393 S 0.70648 0.59043 0.06802 0.0
N2394 N 0.72081 0.60227 0.09544 0.0
N2395 N 0.68089 0.61058 0.06194 0.0
C2396 C 0.68314 0.62843 0.08243 0.0
C2397 C 0.70487 0.62379 0.10083 0.0
C2398 C 0.8891 0.10298 0.21185 0.0
C2399 C 0.90619 0.12469 0.20585 0.0
C2400 C 0.88394 0.08268 0.19293 0.0
C2401 C 0.89568 0.08309 0.16711 0.0
H2402 H 0.87987 0.10144 0.23149 0.0
H2403 H 0.87071 0.06642 0.19876 0.0
S2404 S 0.94077 0.13635 0.14062 0.0
N2405 N 0.93372 0.14608 0.17154 0.0
N2406 N 0.92481 0.10762 0.13646 0.0
C2407 C 0.91275 0.10476 0.1608 0.0
C2408 C 0.91781 0.12559 0.18 0.0
C2409 C 0.37264 0.91131 0.09144 0.0
C2410 C 0.37701 0.88468 0.08315 0.0
C2411 C 0.35533 0.91724 0.11294 0.0
C2412 C 0.34126 0.89687 0.1267 0.0
H2413 H 0.38376 0.92754 0.08216 0.0
H2414 H 0.35356 0.93795 0.11936 0.0
S2415 S 0.34381 0.82411 0.11109 0.0
N2416 N 0.36461 0.83791 0.08916 0.0
N2417 N 0.33165 0.84909 0.12924 0.0
C2418 C 0.34429 0.8703 0.11762 0.0
C2419 C 0.36232 0.86421 0.09599 0.0
C2420 C 0.12839 0.62403 0.36292 0.0
C2421 C 0.134 0.62225 0.33521 0.0
C2422 C 0.1337 0.6025 0.38043 0.0
C2423 C 0.14498 0.57836 0.37096 0.0
H2424 H 0.12031 0.64241 0.37125 0.0
H2425 H 0.12938 0.60502 0.40161 0.0
S2426 S 0.1604 0.56228 0.29968 0.0
N2427 N 0.14925 0.5935 0.29884 0.0
N2428 N 0.15965 0.55329 0.33162 0.0
C2429 C 0.15004 0.57608 0.34318 0.0
C2430 C 0.14449 0.59794 0.32536 0.0
C2431 C 0.84226 0.61956 0.931 0.0
C2432 C 0.83231 0.63971 0.9138 0.0
C2433 C 0.86372 0.62454 0.9487 0.0
C2434 C 0.87602 0.64998 0.95017 0.0
H2435 H 0.8337 0.59956 0.93052 0.0
H2436 H 0.871 0.60814 0.96098 0.0
S2437 S 0.85565 0.71043 0.91128 0.0
N2438 N 0.83551 0.6865 0.90032 0.0
N2439 N 0.87505 0.69615 0.9341 0.0
C2440 C 0.86576 0.67052 0.93352 0.0
C2441 C 0.84414 0.66532 0.91525 0.0
C2442 C 0.87061 0.93631 0.36649 0.0
C2443 C 0.89051 0.94973 0.38152 0.0
C2444 C 0.87736 0.91881 0.3454 0.0
C2445 C 0.90433 0.91359 0.33875 0.0
H2446 H 0.84956 0.9388 0.37151 0.0
H2447 H 0.86136 0.90827 0.3351 0.0
S2448 S 0.96412 0.94481 0.37044 0.0
N2449 N 0.93841 0.95774 0.38703 0.0
N2450 N 0.95105 0.92448 0.3477 0.0
C2451 C 0.92443 0.92757 0.35291 0.0
C2452 C 0.91755 0.94577 0.37414 0.0
C2453 C 0.17805 0.90739 0.95396 0.0
C2454 C 0.1622 0.88402 0.95208 0.0
C2455 C 0.19987 0.91187 0.93654 0.0
C2456 C 0.20673 0.89331 0.91628 0.0
H2457 H 0.17319 0.92272 0.96858 0.0
H2458 H 0.2111 0.93037 0.93867 0.0
S2459 S 0.17337 0.82774 0.9043 0.0
N2460 N 0.15639 0.84108 0.9295 0.0
N2461 N 0.19674 0.84989 0.89637 0.0
C2462 C 0.19141 0.86962 0.91446 0.0
C2463 C 0.16936 0.8649 0.93241 0.0
C2464 C 0.20086 0.16043 0.42445 0.0
C2465 C 0.20065 0.1359 0.41039 0.0
C2466 C 0.18299 0.16533 0.44577 0.0
C2467 C 0.16401 0.14596 0.45397 0.0
H2468 H 0.2145 0.17629 0.41851 0.0
H2469 H 0.18383 0.18471 0.45559 0.0
S2470 S 0.15665 0.07752 0.42527 0.0
N2471 N 0.18099 0.09132 0.40741 0.0
N2472 N 0.14715 0.10063 0.44708 0.0
C2473 C 0.16392 0.12112 0.44042 0.0
C2474 C 0.18225 0.11609 0.41878 0.0
C2475 C 0.41482 0.60418 0.84444 0.0
C2476 C 0.3955 0.62307 0.83588 0.0
C2477 C 0.40916 0.5855 0.86489 0.0
C2478 C 0.38389 0.58477 0.87764 0.0
H2479 H 0.43473 0.60408 0.83562 0.0
H2480 H 0.42498 0.57197 0.87121 0.0
S2481 S 0.32536 0.628 0.86104 0.0
N2482 N 0.34942 0.63869 0.84084 0.0
N2483 N 0.33874 0.6034 0.87882 0.0
C2484 C 0.36414 0.60303 0.8688 0.0
C2485 C 0.36994 0.62217 0.84807 0.0
C2486 C 0.86792 0.41507 0.44709 0.0
C2487 C 0.88343 0.39173 0.44326 0.0
C2488 C 0.84525 0.42035 0.43101 0.0
C2489 C 0.83687 0.40214 0.41108 0.0
H2490 H 0.87408 0.42998 0.46169 0.0
H2491 H 0.8344 0.43899 0.43385 0.0
S2492 S 0.86946 0.33732 0.39427 0.0
N2493 N 0.88813 0.34979 0.41872 0.0
N2494 N 0.84523 0.3594 0.38914 0.0
C2495 C 0.85149 0.37821 0.40789 0.0
C2496 C 0.87486 0.3731 0.42381 0.0
C2497 C 0.67385 0.94114 0.85648 0.0
C2498 C 0.65564 0.94994 0.87628 0.0
C2499 C 0.66842 0.91836 0.84068 0.0
C2500 C 0.6449 0.90317 0.84467 0.0
H2501 H 0.69265 0.95171 0.85358 0.0
H2502 H 0.68334 0.91184 0.82622 0.0
S2503 S 0.5902 0.91832 0.89299 0.0
N2504 N 0.61255 0.94232 0.89802 0.0
N2505 N 0.6027 0.89923 0.8689 0.0
C2506 C 0.62622 0.91217 0.86386 0.0
C2507 C 0.63147 0.93563 0.87951 0.0
C2508 C 0.19657 0.87847 0.11789 0.0
C2509 C 0.2033 0.90532 0.1234 0.0
C2510 C 0.17525 0.87204 0.10055 0.0
C2511 C 0.16007 0.89217 0.0876 0.0
H2512 H 0.20696 0.86234 0.12815 0.0
H2513 H 0.17013 0.85107 0.09785 0.0
S2514 S 0.1714 0.96557 0.09334 0.0
N2515 N 0.19435 0.95215 0.11324 0.0
N2516 N 0.1546 0.94014 0.08025 0.0
C2517 C 0.16759 0.91908 0.09179 0.0
C2518 C 0.18906 0.92563 0.10982 0.0
C2519 C 0.15894 0.61486 0.16364 0.0
C2520 C 0.15241 0.5874 0.16604 0.0
C2521 C 0.15379 0.63313 0.18457 0.0
C2522 C 0.14165 0.62477 0.20873 0.0
H2523 H 0.16777 0.62243 0.14525 0.0
H2524 H 0.159 0.65403 0.18161 0.0
S2525 S 0.12285 0.5547 0.22623 0.0
N2526 N 0.13488 0.55254 0.19538 0.0
N2527 N 0.12461 0.58678 0.23436 0.0
C2528 C 0.13534 0.59731 0.21154 0.0
C2529 C 0.14082 0.57869 0.19032 0.0
C2530 C 0.88012 0.63352 0.10279 0.0
C2531 C 0.8715 0.64661 0.0792 0.0
C2532 C 0.86232 0.62826 0.12409 0.0
C2533 C 0.83502 0.63569 0.12275 0.0
H2534 H 0.90089 0.62741 0.10499 0.0
H2535 H 0.87012 0.61855 0.14192 0.0
S2536 S 0.80151 0.6683 0.06462 0.0
N2537 N 0.83329 0.66575 0.05538 0.0
N2538 N 0.79988 0.65532 0.0951 0.0
C2539 C 0.82597 0.64837 0.09913 0.0
C2540 C 0.84416 0.65392 0.07747 0.0
C2541 C 0.91075 0.93931 0.1644 0.0
C2542 C 0.88613 0.95311 0.16567 0.0
C2543 C 0.91563 0.91671 0.18055 0.0
C2544 C 0.89635 0.90743 0.19911 0.0
H2545 H 0.92585 0.94529 0.14994 0.0
H2546 H 0.93447 0.90608 0.17808 0.0
S2547 S 0.82969 0.93825 0.21206 0.0
N2548 N 0.84295 0.95703 0.18809 0.0
N2549 N 0.85232 0.91497 0.21899 0.0
C2550 C 0.87222 0.92196 0.20164 0.0
C2551 C 0.86705 0.94466 0.18476 0.0
C2552 C 0.43303 0.16761 0.16605 0.0
C2553 C 0.45072 0.15653 0.14689 0.0
C2554 C 0.41638 0.18947 0.15979 0.0
C2555 C 0.41645 0.20095 0.13398 0.0
H2556 H 0.43152 0.15892 0.18596 0.0
H2557 H 0.40249 0.19667 0.17492 0.0
S2558 S 0.46044 0.18116 0.07713 0.0
N2559 N 0.4685 0.16005 0.10145 0.0
N2560 N 0.43692 0.20097 0.08966 0.0
C2561 C 0.4347 0.19082 0.1149 0.0
C2562 C 0.45197 0.16873 0.12138 0.0
C2563 C 0.41676 0.84662 0.37679 0.0
C2564 C 0.41205 0.83797 0.40326 0.0
C2565 C 0.43431 0.868 0.37136 0.0
C2566 C 0.44829 0.88121 0.39213 0.0
H2567 H 0.40579 0.83764 0.36028 0.0
H2568 H 0.43648 0.87464 0.35073 0.0
S2569 S 0.44468 0.86455 0.46471 0.0
N2570 N 0.42383 0.84311 0.45032 0.0
N2571 N 0.45733 0.88294 0.44012 0.0
C2572 C 0.44481 0.87182 0.41857 0.0
C2573 C 0.42651 0.85034 0.42414 0.0
C2574 C 0.12272 0.36209 0.91406 0.0
C2575 C 0.13164 0.34236 0.89581 0.0
C2576 C 0.10022 0.3782 0.90848 0.0
C2577 C 0.08606 0.3756 0.88417 0.0
H2578 H 0.13359 0.36556 0.93259 0.0
H2579 H 0.09461 0.39365 0.92272 0.0
S2580 S 0.09981 0.32591 0.83041 0.0
N2581 N 0.12335 0.32011 0.8531 0.0
N2582 N 0.08139 0.35075 0.84248 0.0
C2583 C 0.09412 0.35537 0.86617 0.0
C2584 C 0.11677 0.33863 0.87204 0.0
C2585 C 0.62432 0.6757 0.41385 0.0
C2586 C 0.62319 0.70261 0.40511 0.0
C2587 C 0.60343 0.65753 0.40836 0.0
C2588 C 0.58054 0.66538 0.39369 0.0
H2589 H 0.64172 0.66844 0.42469 0.0
H2590 H 0.60548 0.63706 0.4154 0.0
S2591 S 0.56649 0.73412 0.3682 0.0
N2592 N 0.59623 0.7366 0.38265 0.0
N2593 N 0.55741 0.70244 0.37171 0.0
C2594 C 0.57895 0.69233 0.38514 0.0
C2595 C 0.60013 0.71091 0.39096 0.0
C2596 C 0.41279 0.67503 0.41158 0.0
C2597 C 0.40606 0.69608 0.39387 0.0
C2598 C 0.43525 0.65857 0.40695 0.0
C2599 C 0.45144 0.66212 0.38407 0.0
H2600 H 0.40025 0.67086 0.42889 0.0
H2601 H 0.43929 0.64217 0.42067 0.0
S2602 S 0.44366 0.71504 0.33229 0.0
N2603 N 0.41855 0.72045 0.35336 0.0
N2604 N 0.46024 0.68891 0.34432 0.0
C2605 C 0.44549 0.6835 0.36664 0.0
C2606 C 0.42297 0.70068 0.37165 0.0
C2607 C 0.1154 0.85165 0.61728 0.0
C2608 C 0.12752 0.83654 0.63794 0.0
C2609 C 0.09723 0.87255 0.62304 0.0
C2610 C 0.09109 0.87958 0.64974 0.0
H2611 H 0.12062 0.84769 0.59653 0.0
H2612 H 0.08914 0.88422 0.60654 0.0
S2613 S 0.11624 0.84545 0.7111 0.0
N2614 N 0.13075 0.82915 0.6861 0.0
N2615 N 0.09742 0.86886 0.69696 0.0
C2616 C 0.10235 0.86405 0.67052 0.0
C2617 C 0.12033 0.84241 0.66464 0.0
C2618 C 0.09998 0.67961 0.67016 0.0
C2619 C 0.08888 0.6626 0.65042 0.0
C2620 C 0.12162 0.6969 0.66427 0.0
C2621 C 0.13331 0.69754 0.63848 0.0
H2622 H 0.09207 0.67924 0.69043 0.0
H2623 H 0.12989 0.70905 0.68031 0.0
S2624 S 0.11118 0.6575 0.5794 0.0
N2625 N 0.09095 0.64798 0.6039 0.0
N2626 N 0.13115 0.68039 0.59269 0.0
C2627 C 0.12183 0.68116 0.61838 0.0
C2628 C 0.09977 0.66374 0.62436 0.0
C2629 C 0.91475 0.84666 0.66431 0.0
C2630 C 0.91711 0.83017 0.64145 0.0
C2631 C 0.93298 0.86767 0.66926 0.0
C2632 C 0.95446 0.87331 0.65158 0.0
H2633 H 0.89854 0.84351 0.67851 0.0
H2634 H 0.9301 0.87973 0.68712 0.0
S2635 S 0.96986 0.83591 0.58874 0.0
N2636 N 0.94311 0.8207 0.60108 0.0
N2637 N 0.97693 0.86016 0.61015 0.0
C2638 C 0.95735 0.85663 0.62885 0.0
C2639 C 0.9388 0.83517 0.62384 0.0
C2640 C 0.62163 0.94624 0.67296 0.0
C2641 C 0.64502 0.94401 0.65717 0.0
C2642 C 0.617 0.92874 0.69472 0.0
C2643 C 0.63593 0.90899 0.70187 0.0
H2644 H 0.60617 0.96061 0.66762 0.0
H2645 H 0.59828 0.93023 0.70574 0.0
S2646 S 0.70097 0.89593 0.66803 0.0
N2647 N 0.6877 0.92107 0.65089 0.0
N2648 N 0.67918 0.88881 0.69206 0.0
C2649 C 0.65985 0.90739 0.687 0.0
C2650 C 0.66434 0.92475 0.66458 0.0
C2651 C 0.17594 0.12439 0.62611 0.0
C2652 C 0.19725 0.14149 0.63355 0.0
C2653 C 0.16041 0.12941 0.60307 0.0
C2654 C 0.16522 0.15205 0.58688 0.0
H2655 H 0.1708 0.10727 0.63854 0.0
H2656 H 0.14373 0.1162 0.59856 0.0
S2657 S 0.21955 0.20209 0.59623 0.0
N2658 N 0.22331 0.18111 0.62168 0.0
N2659 N 0.19368 0.19077 0.57879 0.0
C2660 C 0.18697 0.16879 0.5935 0.0
C2661 C 0.20313 0.16342 0.61668 0.0
C2662 C 0.42019 0.60703 0.69325 0.0
C2663 C 0.40031 0.62352 0.70493 0.0
C2664 C 0.41457 0.59078 0.67081 0.0
C2665 C 0.38894 0.59078 0.65888 0.0
H2666 H 0.44046 0.60718 0.70117 0.0
H2667 H 0.43075 0.57918 0.66199 0.0
S2668 S 0.32917 0.62838 0.68283 0.0
N2669 N 0.35338 0.6372 0.70371 0.0
N2670 N 0.34298 0.60702 0.66156 0.0
C2671 C 0.3686 0.60622 0.67102 0.0
C2672 C 0.37421 0.62245 0.69405 0.0
C2673 C 0.8633 0.36443 0.59815 0.0
C2674 C 0.87834 0.38527 0.58624 0.0
C2675 C 0.84576 0.36944 0.61984 0.0
C2676 C 0.8432 0.39537 0.63075 0.0
H2677 H 0.86565 0.34403 0.59102 0.0
H2678 H 0.83534 0.35269 0.62904 0.0
S2679 S 0.87733 0.45693 0.60646 0.0
N2680 N 0.88856 0.43291 0.58652 0.0
N2681 N 0.85615 0.44223 0.62735 0.0
C2682 C 0.85746 0.41644 0.61851 0.0
C2683 C 0.87487 0.41143 0.59623 0.0
C2684 C 0.66954 0.09326 0.85781 0.0
C2685 C 0.64943 0.08245 0.87456 0.0
C2686 C 0.66387 0.11408 0.83959 0.0
C2687 C 0.63779 0.12485 0.83714 0.0
H2688 H 0.69001 0.08595 0.8591 0.0
H2689 H 0.68023 0.12215 0.82774 0.0
S2690 S 0.57735 0.1017 0.87445 0.0
N2691 N 0.60205 0.08311 0.88648 0.0
N2692 N 0.59123 0.12153 0.85175 0.0
C2693 C 0.61734 0.11368 0.85327 0.0
C2694 C 0.62319 0.09269 0.87205 0.0
C2695 C 0.35388 0.16888 0.44209 0.0
C2696 C 0.37433 0.15086 0.44965 0.0
C2697 C 0.33752 0.16394 0.41956 0.0
C2698 C 0.34153 0.14113 0.40334 0.0
H2699 H 0.35094 0.18723 0.45339 0.0
H2700 H 0.32259 0.17879 0.41404 0.0
S2701 S 0.39166 0.08718 0.41521 0.0
N2702 N 0.39682 0.10872 0.4399 0.0
N2703 N 0.36668 0.0997 0.39726 0.0
C2704 C 0.3614 0.12257 0.41119 0.0
C2705 C 0.37764 0.12734 0.43442 0.0
C2706 C 0.42238 0.42755 0.84832 0.0
C2707 C 0.40268 0.41083 0.83687 0.0
C2708 C 0.4162 0.44479 0.8699 0.0
C2709 C 0.39027 0.44527 0.88127 0.0
H2710 H 0.44283 0.42677 0.8409 0.0
H2711 H 0.43218 0.4567 0.87864 0.0
S2712 S 0.33152 0.40548 0.85817 0.0
N2713 N 0.35616 0.39636 0.83787 0.0
N2714 N 0.34458 0.42804 0.87871 0.0
C2715 C 0.37028 0.42905 0.8695 0.0
C2716 C 0.37647 0.412 0.84724 0.0
C2717 C 0.66979 0.36936 0.43601 0.0
C2718 C 0.66216 0.38867 0.45527 0.0
C2719 C 0.69067 0.37424 0.41755 0.0
C2720 C 0.70492 0.39868 0.41751 0.0
H2721 H 0.65951 0.35022 0.4352 0.0
H2722 H 0.69567 0.35865 0.40323 0.0
S2723 S 0.692 0.45664 0.46278 0.0
N2724 N 0.67002 0.43373 0.47233 0.0
N2725 N 0.7093 0.44278 0.43811 0.0
C2726 C 0.69754 0.41819 0.4367 0.0
C2727 C 0.67622 0.41323 0.45544 0.0
C2728 C 0.68935 0.61535 0.93075 0.0
C2729 C 0.70027 0.63497 0.91353 0.0
C2730 C 0.6676 0.62125 0.94787 0.0
C2731 C 0.65552 0.64682 0.94787 0.0
H2732 H 0.69743 0.59516 0.93061 0.0
H2733 H 0.65938 0.6053 0.96019 0.0
S2734 S 0.67722 0.70561 0.90753 0.0
N2735 N 0.69805 0.68139 0.89857 0.0
N2736 N 0.65692 0.69225 0.93014 0.0
C2737 C 0.66672 0.6668 0.93131 0.0
C2738 C 0.68916 0.66095 0.91431 0.0
C2739 C 0.90718 0.08583 0.36538 0.0
C2740 C 0.88245 0.08622 0.37919 0.0
C2741 C 0.9126 0.10391 0.34433 0.0
C2742 C 0.8936 0.1233 0.3362 0.0
H2743 H 0.9228 0.07191 0.37132 0.0
H2744 H 0.93211 0.10295 0.33471 0.0
S2745 S 0.82477 0.13115 0.36405 0.0
N2746 N 0.83802 0.10641 0.38175 0.0
N2747 N 0.84836 0.14063 0.34272 0.0
C2748 C 0.86856 0.12352 0.34943 0.0
C2749 C 0.86297 0.10498 0.37075 0.0
C2750 C 0.34824 0.9208 0.92868 0.0
C2751 C 0.33985 0.90252 0.90883 0.0
C2752 C 0.37076 0.91544 0.94499 0.0
C2753 C 0.38612 0.89194 0.94147 0.0
H2754 H 0.33746 0.9395 0.93136 0.0
H2755 H 0.37683 0.93035 0.95962 0.0
S2756 S 0.37223 0.83754 0.89236 0.0
N2757 N 0.34818 0.85976 0.887 0.0
N2758 N 0.39074 0.84991 0.91699 0.0
C2759 C 0.37761 0.87333 0.92193 0.0
C2760 C 0.35441 0.87855 0.90578 0.0
C2761 C 0.16212 0.42439 0.3695 0.0
C2762 C 0.15433 0.45155 0.36819 0.0
C2763 C 0.15615 0.40639 0.34863 0.0
C2764 C 0.1419 0.41469 0.32563 0.0
H2765 H 0.1725 0.41682 0.38705 0.0
H2766 H 0.16237 0.38567 0.35082 0.0
S2767 S 0.11963 0.48435 0.31085 0.0
N2768 N 0.13372 0.48636 0.34082 0.0
N2769 N 0.12186 0.45248 0.30196 0.0
C2770 C 0.13451 0.44194 0.32376 0.0
C2771 C 0.14085 0.46035 0.34492 0.0
C2772 C 0.67171 0.3716 0.60751 0.0
C2773 C 0.65843 0.3919 0.59289 0.0
C2774 C 0.69369 0.37748 0.62424 0.0
C2775 C 0.70288 0.40398 0.62745 0.0
H2776 H 0.66465 0.35105 0.60652 0.0
H2777 H 0.70273 0.36139 0.63577 0.0
S2778 S 0.67613 0.46429 0.59297 0.0
N2779 N 0.65713 0.43947 0.58183 0.0
N2780 N 0.69795 0.45048 0.61386 0.0
C2781 C 0.69035 0.42433 0.61244 0.0
C2782 C 0.66831 0.41831 0.59496 0.0
C2783 C 0.62231 0.10475 0.69995 0.0
C2784 C 0.64232 0.12294 0.70831 0.0
C2785 C 0.62683 0.08663 0.67874 0.0
C2786 C 0.6516 0.08585 0.66504 0.0
H2787 H 0.60274 0.10481 0.7095 0.0
H2788 H 0.61053 0.07362 0.67259 0.0
S2789 S 0.71167 0.1271 0.68097 0.0
N2790 N 0.68857 0.13761 0.70234 0.0
N2791 N 0.69709 0.10349 0.66282 0.0
C2792 C 0.67204 0.10337 0.67371 0.0
C2793 C 0.66741 0.12189 0.69523 0.0
C2794 C 0.32797 0.14532 0.60434 0.0
C2795 C 0.33737 0.13362 0.62836 0.0
C2796 C 0.34528 0.15035 0.58255 0.0
C2797 C 0.37282 0.14371 0.5836 0.0
H2798 H 0.30694 0.15047 0.60219 0.0
H2799 H 0.33685 0.15937 0.56462 0.0
S2800 S 0.40813 0.11376 0.64217 0.0
N2801 N 0.37667 0.11683 0.65221 0.0
N2802 N 0.40864 0.12498 0.61098 0.0
C2803 C 0.38249 0.13188 0.60743 0.0
C2804 C 0.36496 0.12716 0.62982 0.0
C2805 C 0.40929 0.44577 0.66777 0.0
C2806 C 0.38236 0.45283 0.66289 0.0
C2807 C 0.41585 0.42428 0.68482 0.0
C2808 C 0.3958 0.40934 0.69811 0.0
H2809 H 0.42533 0.45605 0.65724 0.0
H2810 H 0.43683 0.41885 0.68704 0.0
S2811 S 0.32233 0.42127 0.69374 0.0
N2812 N 0.33559 0.44423 0.67374 0.0
N2813 N 0.3479 0.4042 0.70632 0.0
C2814 C 0.36885 0.41711 0.6945 0.0
C2815 C 0.36215 0.43871 0.67671 0.0
C2816 C 0.93662 0.65865 0.62844 0.0
C2817 C 0.9595 0.66593 0.64341 0.0
C2818 C 0.91587 0.67714 0.62336 0.0
C2819 C 0.91717 0.70378 0.63281 0.0
H2820 H 0.93442 0.63838 0.62095 0.0
H2821 H 0.89841 0.67031 0.61234 0.0
S2822 S 0.9742 0.73401 0.67016 0.0
N2823 N 0.98301 0.70232 0.66602 0.0
N2824 N 0.94443 0.73706 0.65585 0.0
C2825 C 0.94032 0.71158 0.64705 0.0
C2826 C 0.96135 0.69269 0.65245 0.0
C2827 C 0.93445 0.32999 0.88967 0.0
C2828 C 0.91278 0.33722 0.90639 0.0
C2829 C 0.95515 0.34822 0.88362 0.0
C2830 C 0.95525 0.37452 0.89412 0.0
H2831 H 0.93563 0.30994 0.88138 0.0
H2832 H 0.97131 0.34149 0.87069 0.0
S2833 S 0.90257 0.404 0.93811 0.0
N2834 N 0.89214 0.37308 0.9324 0.0
N2835 N 0.93141 0.40684 0.92198 0.0
C2836 C 0.93372 0.382 0.91095 0.0
C2837 C 0.91245 0.36352 0.91685 0.0
C2838 C 0.60484 0.83786 0.41708 0.0
C2839 C 0.62338 0.82884 0.39765 0.0
C2840 C 0.58656 0.85867 0.41143 0.0
C2841 C 0.58595 0.87121 0.38606 0.0
H2842 H 0.60484 0.82928 0.43709 0.0
H2843 H 0.57341 0.86553 0.42735 0.0
S2844 S 0.62795 0.85293 0.32714 0.0
N2845 N 0.63851 0.83282 0.35131 0.0
N2846 N 0.60391 0.8714 0.34064 0.0
C2847 C 0.60365 0.86167 0.36615 0.0
C2848 C 0.62239 0.84065 0.37194 0.0
C2849 C 0.1448 0.17143 0.89919 0.0
C2850 C 0.13453 0.19714 0.90456 0.0
C2851 C 0.12778 0.14955 0.89441 0.0
C2852 C 0.09955 0.15221 0.89512 0.0
H2853 H 0.16633 0.16817 0.89878 0.0
H2854 H 0.13702 0.13022 0.8907 0.0
S2855 S 0.0625 0.21577 0.90754 0.0
N2856 N 0.0945 0.22449 0.90948 0.0
N2857 N 0.06216 0.18324 0.90096 0.0
C2858 C 0.08894 0.17803 0.90002 0.0
C2859 C 0.10648 0.20051 0.90455 0.0
C2860 C 0.90855 0.18592 0.88395 0.0
C2861 C 0.91679 0.21006 0.8961 0.0
C2862 C 0.92705 0.16545 0.87795 0.0
C2863 C 0.95471 0.1683 0.88354 0.0
H2864 H 0.88753 0.18253 0.87944 0.0
H2865 H 0.91946 0.14702 0.86932 0.0
S2866 S 0.98713 0.22884 0.91257 0.0
N2867 N 0.95481 0.2363 0.91203 0.0
N2868 N 0.98956 0.19823 0.90008 0.0
C2869 C 0.96332 0.19267 0.89499 0.0
C2870 C 0.94442 0.21342 0.90139 0.0
C2871 C 0.59174 0.35545 0.16746 0.0
C2872 C 0.5807 0.372 0.14734 0.0
C2873 C 0.61255 0.33721 0.1617 0.0
C2874 C 0.62301 0.33449 0.13549 0.0
H2875 H 0.58469 0.357 0.188 0.0
H2876 H 0.62089 0.32561 0.17809 0.0
S2877 S 0.59887 0.37107 0.075 0.0
N2878 N 0.58066 0.38337 0.09985 0.0
N2879 N 0.61893 0.34855 0.08881 0.0
C2880 C 0.61149 0.35035 0.11502 0.0
C2881 C 0.59058 0.3692 0.12099 0.0
C2882 C 0.62245 0.19391 0.16703 0.0
C2883 C 0.62386 0.20608 0.1415 0.0
C2884 C 0.6045 0.17272 0.17226 0.0
C2885 C 0.58724 0.16269 0.1522 0.0
H2886 H 0.63528 0.20082 0.18319 0.0
H2887 H 0.60411 0.16409 0.19224 0.0
S2888 S 0.58453 0.1859 0.0813 0.0
N2889 N 0.60705 0.20562 0.09556 0.0
N2890 N 0.57396 0.16556 0.10527 0.0
C2891 C 0.58863 0.17446 0.12649 0.0
C2892 C 0.60676 0.19617 0.12119 0.0
C2893 C 0.45983 0.35264 0.13905 0.0
C2894 C 0.45218 0.37461 0.15512 0.0
C2895 C 0.44181 0.33175 0.13317 0.0
C2896 C 0.41529 0.33176 0.14319 0.0
H2897 H 0.48008 0.35134 0.13117 0.0
H2898 H 0.44892 0.31531 0.12082 0.0
S2899 S 0.38454 0.38539 0.18501 0.0
N2900 N 0.41559 0.39578 0.17973 0.0
N2901 N 0.38218 0.35617 0.1696 0.0
C2902 C 0.40731 0.35368 0.15922 0.0
C2903 C 0.4256 0.37513 0.16496 0.0
loop_
_geom_bond_atom_site_label_1
_geom_bond_atom_site_label_2
_geom_bond_distance
_geom_bond_site_symmetry_2
_ccdc_geom_bond_type
C0 C1 1.351 . S
C0 N3 1.368 . S
C0 H5 0.931 . S
C1 C0 1.351 . S
C1 N2 1.373 . S
C1 H29 0.930 . S
N2 C1 1.373 . S
N2 C4 1.340 . S
N3 C0 1.368 . S
N3 C4 1.321 . S
N3 Co6 2.135 . S
C4 N2 1.340 . S
C4 N3 1.321 . S
C4 H28 0.930 . S
H5 C0 0.931 . S
Co6 N3 2.135 . S
Co6 N9 2.121 . S
Co6 O14 2.055 . S
Co6 O17 2.039 . S
Co6 N20 2.140 . S
C7 O8 1.227 . S
C7 O17 1.265 . S
O8 C7 1.227 . S
N9 Co6 2.121 . S
N9 C11 1.375 . S
N9 C12 1.313 . S
C10 C11 1.338 . S
C10 N13 1.377 . S
C10 H30 0.930 . S
C11 N9 1.375 . S
C11 C10 1.338 . S
C11 H15 0.931 . S
C12 N9 1.313 . S
C12 N13 1.344 . S
C12 H16 0.930 . S
N13 C10 1.377 . S
N13 C12 1.344 . S
O14 Co6 2.055 . S
O14 C18 1.253 . S
H15 C11 0.931 . S
H16 C12 0.930 . S
O17 Co6 2.039 . S
O17 C7 1.265 . S
C18 O14 1.253 . S
C18 O19 1.227 . S
O19 C18 1.227 . S
N20 Co6 2.140 . S
N20 C23 1.346 . S
N20 C24 1.345 . S
C21 C22 1.387 . S
C21 C25 1.391 . S
C22 C21 1.387 . S
C22 C23 1.369 . S
C22 H31 0.929 . S
C23 N20 1.346 . S
C23 C22 1.369 . S
C23 H26 0.928 . S
C24 N20 1.345 . S
C24 C25 1.371 . S
C24 H27 0.931 . S
C25 C21 1.391 . S
C25 C24 1.371 . S
C25 H32 0.930 . S
H26 C23 0.928 . S
H27 C24 0.931 . S
H28 C4 0.930 . S
H29 C1 0.930 . S
H30 C10 0.930 . S
H31 C22 0.929 . S
H32 C25 0.930 . S
C33 C34 1.351 . S
C33 N36 1.368 . S
C33 H38 0.931 . S
C34 C33 1.351 . S
C34 N35 1.373 . S
C34 H62 0.930 . S
N35 C34 1.373 . S
N35 C37 1.340 . S
N36 C33 1.368 . S
N36 C37 1.321 . S
N36 Co39 2.135 . S
C37 N35 1.340 . S
C37 N36 1.321 . S
C37 H61 0.930 . S
H38 C33 0.931 . S
Co39 N36 2.135 . S
Co39 N42 2.121 1_554 S
Co39 O47 2.055 . S
Co39 O50 2.039 1_554 S
Co39 N53 2.140 . S
C40 O41 1.227 . S
C40 O50 1.265 . S
O41 C40 1.227 . S
N42 Co39 2.121 1_556 S
N42 C44 1.375 . S
N42 C45 1.313 . S
C43 C44 1.338 . S
C43 N46 1.377 . S
C43 H63 0.930 . S
C44 N42 1.375 . S
C44 C43 1.338 . S
C44 H48 0.931 . S
C45 N42 1.313 . S
C45 N46 1.344 . S
C45 H49 0.930 1_556 S
N46 C43 1.377 . S
N46 C45 1.344 . S
O47 Co39 2.055 . S
O47 C51 1.253 . S
H48 C44 0.931 . S
H49 C45 0.930 1_554 S
O50 Co39 2.039 1_556 S
O50 C40 1.265 . S
C51 O47 1.253 . S
C51 O52 1.227 . S
O52 C51 1.227 . S
N53 Co39 2.140 . S
N53 C56 1.346 . S
N53 C57 1.345 . S
C54 C55 1.387 . S
C54 C58 1.391 . S
C55 C54 1.387 . S
C55 C56 1.369 . S
C55 H64 0.929 . S
C56 N53 1.346 . S
C56 C55 1.369 . S
C56 H59 0.928 . S
C57 N53 1.345 . S
C57 C58 1.371 . S
C57 H60 0.931 . S
C58 C54 1.391 . S
C58 C57 1.371 . S
C58 H65 0.930 . S
H59 C56 0.928 . S
H60 C57 0.931 . S
H61 C37 0.930 . S
H62 C34 0.930 . S
H63 C43 0.930 . S
H64 C55 0.929 . S
H65 C58 0.930 . S
C66 C67 1.351 . S
C66 N69 1.368 . S
C66 H71 0.931 . S
C67 C66 1.351 . S
C67 N68 1.373 . S
C67 H95 0.930 . S
N68 C67 1.373 . S
N68 C70 1.340 . S
N69 C66 1.368 . S
N69 C70 1.321 . S
N69 Co72 2.135 . S
C70 N68 1.340 . S
C70 N69 1.321 . S
C70 H94 0.930 . S
H71 C66 0.931 . S
Co72 N69 2.135 . S
Co72 N75 2.121 . S
Co72 O80 2.055 . S
Co72 O83 2.039 . S
Co72 N86 2.140 . S
C73 O74 1.227 . S
C73 O83 1.265 . S
O74 C73 1.227 . S
N75 Co72 2.121 . S
N75 C77 1.375 . S
N75 C78 1.313 . S
C76 C77 1.338 . S
C76 N79 1.377 . S
C76 H96 0.930 . S
C77 N75 1.375 . S
C77 C76 1.338 . S
C77 H81 0.931 . S
C78 N75 1.313 . S
C78 N79 1.344 . S
C78 H82 0.930 . S
N79 C76 1.377 . S
N79 C78 1.344 . S
O80 Co72 2.055 . S
O80 C84 1.253 . S
H81 C77 0.931 . S
H82 C78 0.930 . S
O83 Co72 2.039 . S
O83 C73 1.265 . S
C84 O80 1.253 . S
C84 O85 1.227 . S
O85 C84 1.227 . S
N86 Co72 2.140 . S
N86 C89 1.346 . S
N86 C90 1.345 . S
C87 C88 1.387 . S
C87 C91 1.391 . S
C88 C87 1.387 . S
C88 C89 1.369 . S
C88 H97 0.929 . S
C89 N86 1.346 . S
C89 C88 1.369 . S
C89 H92 0.928 . S
C90 N86 1.345 . S
C90 C91 1.371 . S
C90 H93 0.931 . S
C91 C87 1.391 . S
C91 C90 1.371 . S
C91 H98 0.930 . S
H92 C89 0.928 . S
H93 C90 0.931 . S
H94 C70 0.930 . S
H95 C67 0.930 . S
H96 C76 0.930 . S
H97 C88 0.929 . S
H98 C91 0.930 . S
C99 C100 1.351 . S
C99 N102 1.368 . S
C99 H104 0.931 . S
C100 C99 1.351 . S
C100 N101 1.373 . S
C100 H128 0.930 . S
N101 C100 1.373 . S
N101 C103 1.340 . S
N102 C99 1.368 . S
N102 C103 1.321 . S
N102 Co105 2.135 . S
C103 N101 1.340 . S
C103 N102 1.321 . S
C103 H127 0.930 . S
H104 C99 0.931 . S
Co105 N102 2.135 . S
Co105 N108 2.121 1_554 S
Co105 O113 2.055 . S
Co105 O116 2.039 1_554 S
Co105 N119 2.140 . S
C106 O107 1.227 . S
C106 O116 1.265 . S
O107 C106 1.227 . S
N108 Co105 2.121 1_556 S
N108 C110 1.375 . S
N108 C111 1.313 . S
C109 C110 1.338 . S
C109 N112 1.377 . S
C109 H129 0.930 . S
C110 N108 1.375 . S
C110 C109 1.338 . S
C110 H114 0.931 . S
C111 N108 1.313 . S
C111 N112 1.344 . S
C111 H115 0.930 1_556 S
N112 C109 1.377 . S
N112 C111 1.344 . S
O113 Co105 2.055 . S
O113 C117 1.253 . S
H114 C110 0.931 . S
H115 C111 0.930 1_554 S
O116 Co105 2.039 1_556 S
O116 C106 1.265 . S
C117 O113 1.253 . S
C117 O118 1.227 . S
O118 C117 1.227 . S
N119 Co105 2.140 . S
N119 C122 1.346 . S
N119 C123 1.345 . S
C120 C121 1.387 . S
C120 C124 1.391 . S
C121 C120 1.387 . S
C121 C122 1.369 . S
C121 H130 0.929 . S
C122 N119 1.346 . S
C122 C121 1.369 . S
C122 H125 0.928 . S
C123 N119 1.345 . S
C123 C124 1.371 . S
C123 H126 0.931 . S
C124 C120 1.391 . S
C124 C123 1.371 . S
C124 H131 0.930 . S
H125 C122 0.928 . S
H126 C123 0.931 . S
H127 C103 0.930 . S
H128 C100 0.930 . S
H129 C109 0.930 . S
H130 C121 0.929 . S
H131 C124 0.930 . S
C132 C133 1.351 . S
C132 N135 1.368 . S
C132 H137 0.931 . S
C133 C132 1.351 . S
C133 N134 1.373 . S
C133 H161 0.930 . S
N134 C133 1.373 . S
N134 C136 1.340 . S
N135 C132 1.368 . S
N135 C136 1.321 . S
N135 Co138 2.135 . S
C136 N134 1.340 . S
C136 N135 1.321 . S
C136 H160 0.930 . S
H137 C132 0.931 . S
Co138 N135 2.135 . S
Co138 N141 2.121 . S
Co138 O146 2.055 . S
Co138 O149 2.039 . S
Co138 N152 2.140 . S
C139 O140 1.227 . S
C139 O149 1.265 . S
O140 C139 1.227 . S
N141 Co138 2.121 . S
N141 C143 1.375 . S
N141 C144 1.313 . S
C142 C143 1.338 . S
C142 N145 1.377 . S
C142 H162 0.930 . S
C143 N141 1.375 . S
C143 C142 1.338 . S
C143 H147 0.931 . S
C144 N141 1.313 . S
C144 N145 1.344 . S
C144 H148 0.930 . S
N145 C142 1.377 . S
N145 C144 1.344 . S
O146 Co138 2.055 . S
O146 C150 1.253 . S
H147 C143 0.931 . S
H148 C144 0.930 . S
O149 Co138 2.039 . S
O149 C139 1.265 . S
C150 O146 1.253 . S
C150 O151 1.227 . S
O151 C150 1.227 . S
N152 Co138 2.140 . S
N152 C155 1.346 . S
N152 C156 1.345 . S
C153 C154 1.387 . S
C153 C157 1.391 . S
C154 C153 1.387 . S
C154 C155 1.369 . S
C154 H163 0.929 . S
C155 N152 1.346 . S
C155 C154 1.369 . S
C155 H158 0.928 . S
C156 N152 1.345 . S
C156 C157 1.371 . S
C156 H159 0.931 . S
C157 C153 1.391 . S
C157 C156 1.371 . S
C157 H164 0.930 . S
H158 C155 0.928 . S
H159 C156 0.931 . S
H160 C136 0.930 . S
H161 C133 0.930 . S
H162 C142 0.930 . S
H163 C154 0.929 . S
H164 C157 0.930 . S
C165 C166 1.351 . S
C165 N168 1.368 . S
C165 H170 0.931 . S
C166 C165 1.351 . S
C166 N167 1.373 . S
C166 H194 0.930 . S
N167 C166 1.373 . S
N167 C169 1.340 . S
N168 C165 1.368 . S
N168 C169 1.321 . S
N168 Co171 2.135 . S
C169 N167 1.340 . S
C169 N168 1.321 . S
C169 H193 0.930 . S
H170 C165 0.931 . S
Co171 N168 2.135 . S
Co171 N174 2.121 1_556 S
Co171 O179 2.055 . S
Co171 O182 2.039 1_556 S
Co171 N185 2.140 . S
C172 O173 1.227 . S
C172 O182 1.265 . S
O173 C172 1.227 . S
N174 Co171 2.121 1_554 S
N174 C176 1.375 . S
N174 C177 1.313 . S
C175 C176 1.338 . S
C175 N178 1.377 . S
C175 H195 0.930 . S
C176 N174 1.375 . S
C176 C175 1.338 . S
C176 H180 0.931 . S
C177 N174 1.313 . S
C177 N178 1.344 . S
C177 H181 0.930 1_554 S
N178 C175 1.377 . S
N178 C177 1.344 . S
O179 Co171 2.055 . S
O179 C183 1.253 . S
H180 C176 0.931 . S
H181 C177 0.930 1_556 S
O182 Co171 2.039 1_554 S
O182 C172 1.265 . S
C183 O179 1.253 . S
C183 O184 1.227 . S
O184 C183 1.227 . S
N185 Co171 2.140 . S
N185 C188 1.346 . S
N185 C189 1.345 . S
C186 C187 1.387 . S
C186 C190 1.391 . S
C187 C186 1.387 . S
C187 C188 1.369 . S
C187 H196 0.929 . S
C188 N185 1.346 . S
C188 C187 1.369 . S
C188 H191 0.928 . S
C189 N185 1.345 . S
C189 C190 1.371 . S
C189 H192 0.931 . S
C190 C186 1.391 . S
C190 C189 1.371 . S
C190 H197 0.930 . S
H191 C188 0.928 . S
H192 C189 0.931 . S
H193 C169 0.930 . S
H194 C166 0.930 . S
H195 C175 0.930 . S
H196 C187 0.929 . S
H197 C190 0.930 . S
C198 C199 1.351 . S
C198 N201 1.368 . S
C198 H203 0.931 . S
C199 C198 1.351 . S
C199 N200 1.373 . S
C199 H227 0.930 . S
N200 C199 1.373 . S
N200 C202 1.340 . S
N201 C198 1.368 . S
N201 C202 1.321 . S
N201 Co204 2.135 . S
C202 N200 1.340 . S
C202 N201 1.321 . S
C202 H226 0.930 . S
H203 C198 0.931 . S
Co204 N201 2.135 . S
Co204 N207 2.121 . S
Co204 O212 2.055 . S
Co204 O215 2.039 . S
Co204 N218 2.140 . S
C205 O206 1.227 . S
C205 O215 1.265 . S
O206 C205 1.227 . S
N207 Co204 2.121 . S
N207 C209 1.375 . S
N207 C210 1.313 . S
C208 C209 1.338 . S
C208 N211 1.377 . S
C208 H228 0.930 . S
C209 N207 1.375 . S
C209 C208 1.338 . S
C209 H213 0.931 . S
C210 N207 1.313 . S
C210 N211 1.344 . S
C210 H214 0.930 . S
N211 C208 1.377 . S
N211 C210 1.344 . S
O212 Co204 2.055 . S
O212 C216 1.253 . S
H213 C209 0.931 . S
H214 C210 0.930 . S
O215 Co204 2.039 . S
O215 C205 1.265 . S
C216 O212 1.253 . S
C216 O217 1.227 . S
O217 C216 1.227 . S
N218 Co204 2.140 . S
N218 C221 1.346 . S
N218 C222 1.345 . S
C219 C220 1.387 . S
C219 C223 1.391 . S
C220 C219 1.387 . S
C220 C221 1.369 . S
C220 H229 0.929 . S
C221 N218 1.346 . S
C221 C220 1.369 . S
C221 H224 0.928 . S
C222 N218 1.345 . S
C222 C223 1.371 . S
C222 H225 0.931 . S
C223 C219 1.391 . S
C223 C222 1.371 . S
C223 H230 0.930 . S
H224 C221 0.928 . S
H225 C222 0.931 . S
H226 C202 0.930 . S
H227 C199 0.930 . S
H228 C208 0.930 . S
H229 C220 0.929 . S
H230 C223 0.930 . S
C231 C232 1.351 . S
C231 N234 1.368 . S
C231 H236 0.931 . S
C232 C231 1.351 . S
C232 N233 1.373 . S
C232 H260 0.930 . S
N233 C232 1.373 . S
N233 C235 1.340 . S
N234 C231 1.368 . S
N234 C235 1.321 . S
N234 Co237 2.135 . S
C235 N233 1.340 . S
C235 N234 1.321 . S
C235 H259 0.930 . S
H236 C231 0.931 . S
Co237 N234 2.135 . S
Co237 N240 2.121 1_556 S
Co237 O245 2.055 . S
Co237 O248 2.039 1_556 S
Co237 N251 2.140 . S
C238 O239 1.227 . S
C238 O248 1.265 . S
O239 C238 1.227 . S
N240 Co237 2.121 1_554 S
N240 C242 1.375 . S
N240 C243 1.313 . S
C241 C242 1.338 . S
C241 N244 1.377 . S
C241 H261 0.930 . S
C242 N240 1.375 . S
C242 C241 1.338 . S
C242 H246 0.931 . S
C243 N240 1.313 . S
C243 N244 1.344 . S
C243 H247 0.930 1_554 S
N244 C241 1.377 . S
N244 C243 1.344 . S
O245 Co237 2.055 . S
O245 C249 1.253 . S
H246 C242 0.931 . S
H247 C243 0.930 1_556 S
O248 Co237 2.039 1_554 S
O248 C238 1.265 . S
C249 O245 1.253 . S
C249 O250 1.227 . S
O250 C249 1.227 . S
N251 Co237 2.140 . S
N251 C254 1.346 . S
N251 C255 1.345 . S
C252 C253 1.387 . S
C252 C256 1.391 . S
C253 C252 1.387 . S
C253 C254 1.369 . S
C253 H262 0.929 . S
C254 N251 1.346 . S
C254 C253 1.369 . S
C254 H257 0.928 . S
C255 N251 1.345 . S
C255 C256 1.371 . S
C255 H258 0.931 . S
C256 C252 1.391 . S
C256 C255 1.371 . S
C256 H263 0.930 . S
H257 C254 0.928 . S
H258 C255 0.931 . S
H259 C235 0.930 . S
H260 C232 0.930 . S
H261 C241 0.930 . S
H262 C253 0.929 . S
H263 C256 0.930 . S
C264 C265 1.351 . S
C264 N267 1.368 . S
C264 H269 0.931 . S
C265 C264 1.351 . S
C265 N266 1.373 . S
C265 H293 0.930 . S
N266 C265 1.373 . S
N266 C268 1.340 . S
N267 C264 1.368 . S
N267 C268 1.321 . S
N267 Co270 2.135 . S
C268 N266 1.340 . S
C268 N267 1.321 . S
C268 H292 0.930 . S
H269 C264 0.931 . S
Co270 N267 2.135 . S
Co270 N273 2.121 . S
Co270 O278 2.055 . S
Co270 O281 2.039 . S
Co270 N284 2.140 . S
C271 O272 1.227 . S
C271 O281 1.265 . S
O272 C271 1.227 . S
N273 Co270 2.121 . S
N273 C275 1.375 . S
N273 C276 1.313 . S
C274 C275 1.338 . S
C274 N277 1.377 . S
C274 H294 0.930 . S
C275 N273 1.375 . S
C275 C274 1.338 . S
C275 H279 0.931 . S
C276 N273 1.313 . S
C276 N277 1.344 . S
C276 H280 0.930 . S
N277 C274 1.377 . S
N277 C276 1.344 . S
O278 Co270 2.055 . S
O278 C282 1.253 . S
H279 C275 0.931 . S
H280 C276 0.930 . S
O281 Co270 2.039 . S
O281 C271 1.265 . S
C282 O278 1.253 . S
C282 O283 1.227 . S
O283 C282 1.227 . S
N284 Co270 2.140 . S
N284 C287 1.346 . S
N284 C288 1.345 . S
C285 C286 1.387 . S
C285 C289 1.391 . S
C286 C285 1.387 . S
C286 C287 1.369 . S
C286 H295 0.929 . S
C287 N284 1.346 . S
C287 C286 1.369 . S
C287 H290 0.928 . S
C288 N284 1.345 . S
C288 C289 1.371 . S
C288 H291 0.931 . S
C289 C285 1.391 . S
C289 C288 1.371 . S
C289 H296 0.930 . S
H290 C287 0.928 . S
H291 C288 0.931 . S
H292 C268 0.930 . S
H293 C265 0.930 . S
H294 C274 0.930 . S
H295 C286 0.929 . S
H296 C289 0.930 . S
C297 C298 1.351 . S
C297 N300 1.368 . S
C297 H302 0.931 . S
C298 C297 1.351 . S
C298 N299 1.373 . S
C298 H326 0.930 . S
N299 C298 1.373 . S
N299 C301 1.340 . S
N300 C297 1.368 . S
N300 C301 1.321 . S
N300 Co303 2.135 . S
C301 N299 1.340 . S
C301 N300 1.321 . S
C301 H325 0.930 . S
H302 C297 0.931 . S
Co303 N300 2.135 . S
Co303 N306 2.121 . S
Co303 O311 2.055 . S
Co303 O314 2.039 . S
Co303 N317 2.140 . S
C304 O305 1.227 . S
C304 O314 1.265 . S
O305 C304 1.227 . S
N306 Co303 2.121 . S
N306 C308 1.375 . S
N306 C309 1.313 . S
C307 C308 1.338 . S
C307 N310 1.377 . S
C307 H327 0.930 . S
C308 N306 1.375 . S
C308 C307 1.338 . S
C308 H312 0.931 . S
C309 N306 1.313 . S
C309 N310 1.344 . S
C309 H313 0.930 . S
N310 C307 1.377 . S
N310 C309 1.344 . S
O311 Co303 2.055 . S
O311 C315 1.253 . S
H312 C308 0.931 . S
H313 C309 0.930 . S
O314 Co303 2.039 . S
O314 C304 1.265 . S
C315 O311 1.253 . S
C315 O316 1.227 . S
O316 C315 1.227 . S
N317 Co303 2.140 . S
N317 C320 1.346 . S
N317 C321 1.345 . S
C318 C319 1.387 . S
C318 C322 1.391 . S
C319 C318 1.387 . S
C319 C320 1.369 . S
C319 H328 0.929 . S
C320 N317 1.346 . S
C320 C319 1.369 . S
C320 H323 0.928 . S
C321 N317 1.345 . S
C321 C322 1.371 . S
C321 H324 0.931 . S
C322 C318 1.391 . S
C322 C321 1.371 . S
C322 H329 0.930 . S
H323 C320 0.928 . S
H324 C321 0.931 . S
H325 C301 0.930 . S
H326 C298 0.930 . S
H327 C307 0.930 . S
H328 C319 0.929 . S
H329 C322 0.930 . S
C330 C331 1.351 . S
C330 N333 1.368 . S
C330 H335 0.931 . S
C331 C330 1.351 . S
C331 N332 1.373 . S
C331 H359 0.930 . S
N332 C331 1.373 . S
N332 C334 1.340 . S
N333 C330 1.368 . S
N333 C334 1.321 . S
N333 Co336 2.135 . S
C334 N332 1.340 . S
C334 N333 1.321 . S
C334 H358 0.930 . S
H335 C330 0.931 . S
Co336 N333 2.135 . S
Co336 N339 2.121 . S
Co336 O344 2.055 . S
Co336 O347 2.039 . S
Co336 N350 2.140 . S
C337 O338 1.227 . S
C337 O347 1.265 . S
O338 C337 1.227 . S
N339 Co336 2.121 . S
N339 C341 1.375 . S
N339 C342 1.313 . S
C340 C341 1.338 . S
C340 N343 1.377 . S
C340 H360 0.930 . S
C341 N339 1.375 . S
C341 C340 1.338 . S
C341 H345 0.931 . S
C342 N339 1.313 . S
C342 N343 1.344 . S
C342 H346 0.930 . S
N343 C340 1.377 . S
N343 C342 1.344 . S
O344 Co336 2.055 . S
O344 C348 1.253 . S
H345 C341 0.931 . S
H346 C342 0.930 . S
O347 Co336 2.039 . S
O347 C337 1.265 . S
C348 O344 1.253 . S
C348 O349 1.227 . S
O349 C348 1.227 . S
N350 Co336 2.140 . S
N350 C353 1.346 . S
N350 C354 1.345 . S
C351 C352 1.387 . S
C351 C355 1.391 . S
C352 C351 1.387 . S
C352 C353 1.369 . S
C352 H361 0.929 . S
C353 N350 1.346 . S
C353 C352 1.369 . S
C353 H356 0.928 . S
C354 N350 1.345 . S
C354 C355 1.371 . S
C354 H357 0.931 . S
C355 C351 1.391 . S
C355 C354 1.371 . S
C355 H362 0.930 . S
H356 C353 0.928 . S
H357 C354 0.931 . S
H358 C334 0.930 . S
H359 C331 0.930 . S
H360 C340 0.930 . S
H361 C352 0.929 . S
H362 C355 0.930 . S
C363 C364 1.351 . S
C363 N366 1.368 . S
C363 H368 0.931 . S
C364 C363 1.351 . S
C364 N365 1.373 . S
C364 H392 0.930 . S
N365 C364 1.373 . S
N365 C367 1.340 . S
N366 C363 1.368 . S
N366 C367 1.321 . S
N366 Co369 2.135 . S
C367 N365 1.340 . S
C367 N366 1.321 . S
C367 H391 0.930 . S
H368 C363 0.931 . S
Co369 N366 2.135 . S
Co369 N372 2.121 1_565 S
Co369 O377 2.055 . S
Co369 O380 2.039 1_565 S
Co369 N383 2.140 . S
C370 O371 1.227 . S
C370 O380 1.265 . S
O371 C370 1.227 . S
N372 Co369 2.121 1_545 S
N372 C374 1.375 . S
N372 C375 1.313 . S
C373 C374 1.338 . S
C373 N376 1.377 . S
C373 H393 0.930 . S
C374 N372 1.375 . S
C374 C373 1.338 . S
C374 H378 0.931 . S
C375 N372 1.313 . S
C375 N376 1.344 . S
C375 H379 0.930 1_545 S
N376 C373 1.377 . S
N376 C375 1.344 . S
O377 Co369 2.055 . S
O377 C381 1.253 . S
H378 C374 0.931 . S
H379 C375 0.930 1_565 S
O380 Co369 2.039 1_545 S
O380 C370 1.265 . S
C381 O377 1.253 . S
C381 O382 1.227 . S
O382 C381 1.227 . S
N383 Co369 2.140 . S
N383 C386 1.346 . S
N383 C387 1.345 . S
C384 C385 1.387 . S
C384 C388 1.391 . S
C385 C384 1.387 . S
C385 C386 1.369 . S
C385 H394 0.929 . S
C386 N383 1.346 . S
C386 C385 1.369 . S
C386 H389 0.928 . S
C387 N383 1.345 . S
C387 C388 1.371 . S
C387 H390 0.931 . S
C388 C384 1.391 . S
C388 C387 1.371 . S
C388 H395 0.930 . S
H389 C386 0.928 . S
H390 C387 0.931 . S
H391 C367 0.930 . S
H392 C364 0.930 . S
H393 C373 0.930 . S
H394 C385 0.929 . S
H395 C388 0.930 . S
C396 C397 1.351 . S
C396 N399 1.368 . S
C396 H401 0.931 . S
C397 C396 1.351 . S
C397 N398 1.373 . S
C397 H425 0.930 . S
N398 C397 1.373 . S
N398 C400 1.340 . S
N399 C396 1.368 . S
N399 C400 1.321 . S
N399 Co402 2.135 . S
C400 N398 1.340 . S
C400 N399 1.321 . S
C400 H424 0.930 . S
H401 C396 0.931 . S
Co402 N399 2.135 . S
Co402 N405 2.121 . S
Co402 O410 2.055 . S
Co402 O413 2.039 . S
Co402 N416 2.140 . S
C403 O404 1.227 . S
C403 O413 1.265 . S
O404 C403 1.227 . S
N405 Co402 2.121 . S
N405 C407 1.375 . S
N405 C408 1.313 . S
C406 C407 1.338 . S
C406 N409 1.377 . S
C406 H426 0.930 . S
C407 N405 1.375 . S
C407 C406 1.338 . S
C407 H411 0.931 . S
C408 N405 1.313 . S
C408 N409 1.344 . S
C408 H412 0.930 . S
N409 C406 1.377 . S
N409 C408 1.344 . S
O410 Co402 2.055 . S
O410 C414 1.253 . S
H411 C407 0.931 . S
H412 C408 0.930 . S
O413 Co402 2.039 . S
O413 C403 1.265 . S
C414 O410 1.253 . S
C414 O415 1.227 . S
O415 C414 1.227 . S
N416 Co402 2.140 . S
N416 C419 1.346 . S
N416 C420 1.345 . S
C417 C418 1.387 . S
C417 C421 1.391 . S
C418 C417 1.387 . S
C418 C419 1.369 . S
C418 H427 0.929 . S
C419 N416 1.346 . S
C419 C418 1.369 . S
C419 H422 0.928 . S
C420 N416 1.345 . S
C420 C421 1.371 . S
C420 H423 0.931 . S
C421 C417 1.391 . S
C421 C420 1.371 . S
C421 H428 0.930 . S
H422 C419 0.928 . S
H423 C420 0.931 . S
H424 C400 0.930 . S
H425 C397 0.930 . S
H426 C406 0.930 . S
H427 C418 0.929 . S
H428 C421 0.930 . S
C429 C430 1.351 . S
C429 N432 1.368 . S
C429 H434 0.931 . S
C430 C429 1.351 . S
C430 N431 1.373 . S
C430 H458 0.930 . S
N431 C430 1.373 . S
N431 C433 1.340 . S
N432 C429 1.368 . S
N432 C433 1.321 . S
N432 Co435 2.135 . S
C433 N431 1.340 . S
C433 N432 1.321 . S
C433 H457 0.930 . S
H434 C429 0.931 . S
Co435 N432 2.135 . S
Co435 N438 2.121 . S
Co435 O443 2.055 . S
Co435 O446 2.039 . S
Co435 N449 2.140 . S
C436 O437 1.227 . S
C436 O446 1.265 . S
O437 C436 1.227 . S
N438 Co435 2.121 . S
N438 C440 1.375 . S
N438 C441 1.313 . S
C439 C440 1.338 . S
C439 N442 1.377 . S
C439 H459 0.930 . S
C440 N438 1.375 . S
C440 C439 1.338 . S
C440 H444 0.931 . S
C441 N438 1.313 . S
C441 N442 1.344 . S
C441 H445 0.930 . S
N442 C439 1.377 . S
N442 C441 1.344 . S
O443 Co435 2.055 . S
O443 C447 1.253 . S
H444 C440 0.931 . S
H445 C441 0.930 . S
O446 Co435 2.039 . S
O446 C436 1.265 . S
C447 O443 1.253 . S
C447 O448 1.227 . S
O448 C447 1.227 . S
N449 Co435 2.140 . S
N449 C452 1.346 . S
N449 C453 1.345 . S
C450 C451 1.387 . S
C450 C454 1.391 . S
C451 C450 1.387 . S
C451 C452 1.369 . S
C451 H460 0.929 . S
C452 N449 1.346 . S
C452 C451 1.369 . S
C452 H455 0.928 . S
C453 N449 1.345 . S
C453 C454 1.371 . S
C453 H456 0.931 . S
C454 C450 1.391 . S
C454 C453 1.371 . S
C454 H461 0.930 . S
H455 C452 0.928 . S
H456 C453 0.931 . S
H457 C433 0.930 . S
H458 C430 0.930 . S
H459 C439 0.930 . S
H460 C451 0.929 . S
H461 C454 0.930 . S
C462 C463 1.351 . S
C462 N465 1.368 . S
C462 H467 0.931 . S
C463 C462 1.351 . S
C463 N464 1.373 . S
C463 H491 0.930 . S
N464 C463 1.373 . S
N464 C466 1.340 . S
N465 C462 1.368 . S
N465 C466 1.321 . S
N465 Co468 2.135 . S
C466 N464 1.340 . S
C466 N465 1.321 . S
C466 H490 0.930 . S
H467 C462 0.931 . S
Co468 N465 2.135 . S
Co468 N471 2.121 . S
Co468 O476 2.055 . S
Co468 O479 2.039 . S
Co468 N482 2.140 . S
C469 O470 1.227 . S
C469 O479 1.265 . S
O470 C469 1.227 . S
N471 Co468 2.121 . S
N471 C473 1.375 . S
N471 C474 1.313 . S
C472 C473 1.338 . S
C472 N475 1.377 . S
C472 H492 0.930 . S
C473 N471 1.375 . S
C473 C472 1.338 . S
C473 H477 0.931 . S
C474 N471 1.313 . S
C474 N475 1.344 . S
C474 H478 0.930 . S
N475 C472 1.377 . S
N475 C474 1.344 . S
O476 Co468 2.055 . S
O476 C480 1.253 . S
H477 C473 0.931 . S
H478 C474 0.930 . S
O479 Co468 2.039 . S
O479 C469 1.265 . S
C480 O476 1.253 . S
C480 O481 1.227 . S
O481 C480 1.227 . S
N482 Co468 2.140 . S
N482 C485 1.346 . S
N482 C486 1.345 . S
C483 C484 1.387 . S
C483 C487 1.391 . S
C484 C483 1.387 . S
C484 C485 1.369 . S
C484 H493 0.929 . S
C485 N482 1.346 . S
C485 C484 1.369 . S
C485 H488 0.928 . S
C486 N482 1.345 . S
C486 C487 1.371 . S
C486 H489 0.931 . S
C487 C483 1.391 . S
C487 C486 1.371 . S
C487 H494 0.930 . S
H488 C485 0.928 . S
H489 C486 0.931 . S
H490 C466 0.930 . S
H491 C463 0.930 . S
H492 C472 0.930 . S
H493 C484 0.929 . S
H494 C487 0.930 . S
C495 C496 1.351 . S
C495 N498 1.368 . S
C495 H500 0.931 . S
C496 C495 1.351 . S
C496 N497 1.373 . S
C496 H524 0.930 . S
N497 C496 1.373 . S
N497 C499 1.340 . S
N498 C495 1.368 . S
N498 C499 1.321 . S
N498 Co501 2.135 . S
C499 N497 1.340 . S
C499 N498 1.321 . S
C499 H523 0.930 . S
H500 C495 0.931 . S
Co501 N498 2.135 . S
Co501 N504 2.121 1_565 S
Co501 O509 2.055 . S
Co501 O512 2.039 1_565 S
Co501 N515 2.140 . S
C502 O503 1.227 . S
C502 O512 1.265 . S
O503 C502 1.227 . S
N504 Co501 2.121 1_545 S
N504 C506 1.375 . S
N504 C507 1.313 . S
C505 C506 1.338 . S
C505 N508 1.377 . S
C505 H525 0.930 . S
C506 N504 1.375 . S
C506 C505 1.338 . S
C506 H510 0.931 . S
C507 N504 1.313 . S
C507 N508 1.344 . S
C507 H511 0.930 1_545 S
N508 C505 1.377 . S
N508 C507 1.344 . S
O509 Co501 2.055 . S
O509 C513 1.253 . S
H510 C506 0.931 . S
H511 C507 0.930 1_565 S
O512 Co501 2.039 1_545 S
O512 C502 1.265 . S
C513 O509 1.253 . S
C513 O514 1.227 . S
O514 C513 1.227 . S
N515 Co501 2.140 . S
N515 C518 1.346 . S
N515 C519 1.345 . S
C516 C517 1.387 . S
C516 C520 1.391 . S
C517 C516 1.387 . S
C517 C518 1.369 . S
C517 H526 0.929 . S
C518 N515 1.346 . S
C518 C517 1.369 . S
C518 H521 0.928 . S
C519 N515 1.345 . S
C519 C520 1.371 . S
C519 H522 0.931 . S
C520 C516 1.391 . S
C520 C519 1.371 . S
C520 H527 0.930 . S
H521 C518 0.928 . S
H522 C519 0.931 . S
H523 C499 0.930 . S
H524 C496 0.930 . S
H525 C505 0.930 . S
H526 C517 0.929 . S
H527 C520 0.930 . S
C528 C529 1.351 . S
C528 N531 1.368 . S
C528 H533 0.931 . S
C529 C528 1.351 . S
C529 N530 1.373 . S
C529 H557 0.930 . S
N530 C529 1.373 . S
N530 C532 1.340 . S
N531 C528 1.368 . S
N531 C532 1.321 . S
N531 Co534 2.135 . S
C532 N530 1.340 . S
C532 N531 1.321 . S
C532 H556 0.930 . S
H533 C528 0.931 . S
Co534 N531 2.135 . S
Co534 N537 2.121 . S
Co534 O542 2.055 . S
Co534 O545 2.039 . S
Co534 N548 2.140 . S
C535 O536 1.227 . S
C535 O545 1.265 . S
O536 C535 1.227 . S
N537 Co534 2.121 . S
N537 C539 1.375 . S
N537 C540 1.313 . S
C538 C539 1.338 . S
C538 N541 1.377 . S
C538 H558 0.930 . S
C539 N537 1.375 . S
C539 C538 1.338 . S
C539 H543 0.931 . S
C540 N537 1.313 . S
C540 N541 1.344 . S
C540 H544 0.930 . S
N541 C538 1.377 . S
N541 C540 1.344 . S
O542 Co534 2.055 . S
O542 C546 1.253 . S
H543 C539 0.931 . S
H544 C540 0.930 . S
O545 Co534 2.039 . S
O545 C535 1.265 . S
C546 O542 1.253 . S
C546 O547 1.227 . S
O547 C546 1.227 . S
N548 Co534 2.140 . S
N548 C551 1.346 . S
N548 C552 1.345 . S
C549 C550 1.387 . S
C549 C553 1.391 . S
C550 C549 1.387 . S
C550 C551 1.369 . S
C550 H559 0.929 . S
C551 N548 1.346 . S
C551 C550 1.369 . S
C551 H554 0.928 . S
C552 N548 1.345 . S
C552 C553 1.371 . S
C552 H555 0.931 . S
C553 C549 1.391 . S
C553 C552 1.371 . S
C553 H560 0.930 . S
H554 C551 0.928 . S
H555 C552 0.931 . S
H556 C532 0.930 . S
H557 C529 0.930 . S
H558 C538 0.930 . S
H559 C550 0.929 . S
H560 C553 0.930 . S
C561 C562 1.351 . S
C561 N564 1.368 . S
C561 H566 0.931 . S
C562 C561 1.351 . S
C562 N563 1.373 . S
C562 H590 0.930 . S
N563 C562 1.373 . S
N563 C565 1.340 . S
N564 C561 1.368 . S
N564 C565 1.321 . S
N564 Co567 2.135 . S
C565 N563 1.340 . S
C565 N564 1.321 . S
C565 H589 0.930 . S
H566 C561 0.931 . S
Co567 N564 2.135 . S
Co567 N570 2.121 . S
Co567 O575 2.055 . S
Co567 O578 2.039 . S
Co567 N581 2.140 . S
C568 O569 1.227 . S
C568 O578 1.265 . S
O569 C568 1.227 . S
N570 Co567 2.121 . S
N570 C572 1.375 . S
N570 C573 1.313 . S
C571 C572 1.338 . S
C571 N574 1.377 . S
C571 H591 0.930 . S
C572 N570 1.375 . S
C572 C571 1.338 . S
C572 H576 0.931 . S
C573 N570 1.313 . S
C573 N574 1.344 . S
C573 H577 0.930 . S
N574 C571 1.377 . S
N574 C573 1.344 . S
O575 Co567 2.055 . S
O575 C579 1.253 . S
H576 C572 0.931 . S
H577 C573 0.930 . S
O578 Co567 2.039 . S
O578 C568 1.265 . S
C579 O575 1.253 . S
C579 O580 1.227 . S
O580 C579 1.227 . S
N581 Co567 2.140 . S
N581 C584 1.346 . S
N581 C585 1.345 . S
C582 C583 1.387 . S
C582 C586 1.391 . S
C583 C582 1.387 . S
C583 C584 1.369 . S
C583 H592 0.929 . S
C584 N581 1.346 . S
C584 C583 1.369 . S
C584 H587 0.928 . S
C585 N581 1.345 . S
C585 C586 1.371 . S
C585 H588 0.931 . S
C586 C582 1.391 . S
C586 C585 1.371 . S
C586 H593 0.930 . S
H587 C584 0.928 . S
H588 C585 0.931 . S
H589 C565 0.930 . S
H590 C562 0.930 . S
H591 C571 0.930 . S
H592 C583 0.929 . S
H593 C586 0.930 . S
C594 C595 1.351 . S
C594 N597 1.368 . S
C594 H599 0.931 . S
C595 C594 1.351 . S
C595 N596 1.373 . S
C595 H623 0.930 . S
N596 C595 1.373 . S
N596 C598 1.340 . S
N597 C594 1.368 . S
N597 C598 1.321 . S
N597 Co600 2.135 . S
C598 N596 1.340 . S
C598 N597 1.321 . S
C598 H622 0.930 . S
H599 C594 0.931 . S
Co600 N597 2.135 . S
Co600 N603 2.121 1_455 S
Co600 O608 2.055 . S
Co600 O611 2.039 1_455 S
Co600 N614 2.140 . S
C601 O602 1.227 . S
C601 O611 1.265 . S
O602 C601 1.227 . S
N603 Co600 2.121 1_655 S
N603 C605 1.375 . S
N603 C606 1.313 . S
C604 C605 1.338 . S
C604 N607 1.377 . S
C604 H624 0.930 . S
C605 N603 1.375 . S
C605 C604 1.338 . S
C605 H609 0.931 . S
C606 N603 1.313 . S
C606 N607 1.344 . S
C606 H610 0.930 1_655 S
N607 C604 1.377 . S
N607 C606 1.344 . S
O608 Co600 2.055 . S
O608 C612 1.253 . S
H609 C605 0.931 . S
H610 C606 0.930 1_455 S
O611 Co600 2.039 1_655 S
O611 C601 1.265 . S
C612 O608 1.253 . S
C612 O613 1.227 . S
O613 C612 1.227 . S
N614 Co600 2.140 . S
N614 C617 1.346 . S
N614 C618 1.345 . S
C615 C616 1.387 . S
C615 C619 1.391 . S
C616 C615 1.387 . S
C616 C617 1.369 . S
C616 H625 0.929 . S
C617 N614 1.346 . S
C617 C616 1.369 . S
C617 H620 0.928 . S
C618 N614 1.345 . S
C618 C619 1.371 . S
C618 H621 0.931 . S
C619 C615 1.391 . S
C619 C618 1.371 . S
C619 H626 0.930 . S
H620 C617 0.928 . S
H621 C618 0.931 . S
H622 C598 0.930 . S
H623 C595 0.930 . S
H624 C604 0.930 . S
H625 C616 0.929 . S
H626 C619 0.930 . S
C627 C628 1.351 . S
C627 N630 1.368 . S
C627 H632 0.931 . S
C628 C627 1.351 . S
C628 N629 1.373 . S
C628 H656 0.930 . S
N629 C628 1.373 . S
N629 C631 1.340 . S
N630 C627 1.368 . S
N630 C631 1.321 . S
N630 Co633 2.135 . S
C631 N629 1.340 . S
C631 N630 1.321 . S
C631 H655 0.930 . S
H632 C627 0.931 . S
Co633 N630 2.135 . S
Co633 N636 2.121 . S
Co633 O641 2.055 . S
Co633 O644 2.039 . S
Co633 N647 2.140 . S
C634 O635 1.227 . S
C634 O644 1.265 . S
O635 C634 1.227 . S
N636 Co633 2.121 . S
N636 C638 1.375 . S
N636 C639 1.313 . S
C637 C638 1.338 . S
C637 N640 1.377 . S
C637 H657 0.930 . S
C638 N636 1.375 . S
C638 C637 1.338 . S
C638 H642 0.931 . S
C639 N636 1.313 . S
C639 N640 1.344 . S
C639 H643 0.930 . S
N640 C637 1.377 . S
N640 C639 1.344 . S
O641 Co633 2.055 . S
O641 C645 1.253 . S
H642 C638 0.931 . S
H643 C639 0.930 . S
O644 Co633 2.039 . S
O644 C634 1.265 . S
C645 O641 1.253 . S
C645 O646 1.227 . S
O646 C645 1.227 . S
N647 Co633 2.140 . S
N647 C650 1.346 . S
N647 C651 1.345 . S
C648 C649 1.387 . S
C648 C652 1.391 . S
C649 C648 1.387 . S
C649 C650 1.369 . S
C649 H658 0.929 . S
C650 N647 1.346 . S
C650 C649 1.369 . S
C650 H653 0.928 . S
C651 N647 1.345 . S
C651 C652 1.371 . S
C651 H654 0.931 . S
C652 C648 1.391 . S
C652 C651 1.371 . S
C652 H659 0.930 . S
H653 C650 0.928 . S
H654 C651 0.931 . S
H655 C631 0.930 . S
H656 C628 0.930 . S
H657 C637 0.930 . S
H658 C649 0.929 . S
H659 C652 0.930 . S
C660 C661 1.351 . S
C660 N663 1.368 . S
C660 H665 0.931 . S
C661 C660 1.351 . S
C661 N662 1.373 . S
C661 H689 0.930 . S
N662 C661 1.373 . S
N662 C664 1.340 . S
N663 C660 1.368 . S
N663 C664 1.321 . S
N663 Co666 2.135 . S
C664 N662 1.340 . S
C664 N663 1.321 . S
C664 H688 0.930 . S
H665 C660 0.931 . S
Co666 N663 2.135 . S
Co666 N669 2.121 . S
Co666 O674 2.055 . S
Co666 O677 2.039 . S
Co666 N680 2.140 . S
C667 O668 1.227 . S
C667 O677 1.265 . S
O668 C667 1.227 . S
N669 Co666 2.121 . S
N669 C671 1.375 . S
N669 C672 1.313 . S
C670 C671 1.338 . S
C670 N673 1.377 . S
C670 H690 0.930 . S
C671 N669 1.375 . S
C671 C670 1.338 . S
C671 H675 0.931 . S
C672 N669 1.313 . S
C672 N673 1.344 . S
C672 H676 0.930 . S
N673 C670 1.377 . S
N673 C672 1.344 . S
O674 Co666 2.055 . S
O674 C678 1.253 . S
H675 C671 0.931 . S
H676 C672 0.930 . S
O677 Co666 2.039 . S
O677 C667 1.265 . S
C678 O674 1.253 . S
C678 O679 1.227 . S
O679 C678 1.227 . S
N680 Co666 2.140 . S
N680 C683 1.346 . S
N680 C684 1.345 . S
C681 C682 1.387 . S
C681 C685 1.391 . S
C682 C681 1.387 . S
C682 C683 1.369 . S
C682 H691 0.929 . S
C683 N680 1.346 . S
C683 C682 1.369 . S
C683 H686 0.928 . S
C684 N680 1.345 . S
C684 C685 1.371 . S
C684 H687 0.931 . S
C685 C681 1.391 . S
C685 C684 1.371 . S
C685 H692 0.930 . S
H686 C683 0.928 . S
H687 C684 0.931 . S
H688 C664 0.930 . S
H689 C661 0.930 . S
H690 C670 0.930 . S
H691 C682 0.929 . S
H692 C685 0.930 . S
C693 C694 1.351 . S
C693 N696 1.368 . S
C693 H698 0.931 . S
C694 C693 1.351 . S
C694 N695 1.373 . S
C694 H722 0.930 . S
N695 C694 1.373 . S
N695 C697 1.340 . S
N696 C693 1.368 . S
N696 C697 1.321 . S
N696 Co699 2.135 . S
C697 N695 1.340 . S
C697 N696 1.321 . S
C697 H721 0.930 . S
H698 C693 0.931 . S
Co699 N696 2.135 . S
Co699 N702 2.121 . S
Co699 O707 2.055 . S
Co699 O710 2.039 . S
Co699 N713 2.140 . S
C700 O701 1.227 . S
C700 O710 1.265 . S
O701 C700 1.227 . S
N702 Co699 2.121 . S
N702 C704 1.375 . S
N702 C705 1.313 . S
C703 C704 1.338 . S
C703 N706 1.377 . S
C703 H723 0.930 . S
C704 N702 1.375 . S
C704 C703 1.338 . S
C704 H708 0.931 . S
C705 N702 1.313 . S
C705 N706 1.344 . S
C705 H709 0.930 . S
N706 C703 1.377 . S
N706 C705 1.344 . S
O707 Co699 2.055 . S
O707 C711 1.253 . S
H708 C704 0.931 . S
H709 C705 0.930 . S
O710 Co699 2.039 . S
O710 C700 1.265 . S
C711 O707 1.253 . S
C711 O712 1.227 . S
O712 C711 1.227 . S
N713 Co699 2.140 . S
N713 C716 1.346 . S
N713 C717 1.345 . S
C714 C715 1.387 . S
C714 C718 1.391 . S
C715 C714 1.387 . S
C715 C716 1.369 . S
C715 H724 0.929 . S
C716 N713 1.346 . S
C716 C715 1.369 . S
C716 H719 0.928 . S
C717 N713 1.345 . S
C717 C718 1.371 . S
C717 H720 0.931 . S
C718 C714 1.391 . S
C718 C717 1.371 . S
C718 H725 0.930 . S
H719 C716 0.928 . S
H720 C717 0.931 . S
H721 C697 0.930 . S
H722 C694 0.930 . S
H723 C703 0.930 . S
H724 C715 0.929 . S
H725 C718 0.930 . S
C726 C727 1.351 . S
C726 N729 1.368 . S
C726 H731 0.931 . S
C727 C726 1.351 . S
C727 N728 1.373 . S
C727 H755 0.930 . S
N728 C727 1.373 . S
N728 C730 1.340 . S
N729 C726 1.368 . S
N729 C730 1.321 . S
N729 Co732 2.135 . S
C730 N728 1.340 . S
C730 N729 1.321 . S
C730 H754 0.930 . S
H731 C726 0.931 . S
Co732 N729 2.135 . S
Co732 N735 2.121 1_455 S
Co732 O740 2.055 . S
Co732 O743 2.039 1_455 S
Co732 N746 2.140 . S
C733 O734 1.227 . S
C733 O743 1.265 . S
O734 C733 1.227 . S
N735 Co732 2.121 1_655 S
N735 C737 1.375 . S
N735 C738 1.313 . S
C736 C737 1.338 . S
C736 N739 1.377 . S
C736 H756 0.930 . S
C737 N735 1.375 . S
C737 C736 1.338 . S
C737 H741 0.931 . S
C738 N735 1.313 . S
C738 N739 1.344 . S
C738 H742 0.930 1_655 S
N739 C736 1.377 . S
N739 C738 1.344 . S
O740 Co732 2.055 . S
O740 C744 1.253 . S
H741 C737 0.931 . S
H742 C738 0.930 1_455 S
O743 Co732 2.039 1_655 S
O743 C733 1.265 . S
C744 O740 1.253 . S
C744 O745 1.227 . S
O745 C744 1.227 . S
N746 Co732 2.140 . S
N746 C749 1.346 . S
N746 C750 1.345 . S
C747 C748 1.387 . S
C747 C751 1.391 . S
C748 C747 1.387 . S
C748 C749 1.369 . S
C748 H757 0.929 . S
C749 N746 1.346 . S
C749 C748 1.369 . S
C749 H752 0.928 . S
C750 N746 1.345 . S
C750 C751 1.371 . S
C750 H753 0.931 . S
C751 C747 1.391 . S
C751 C750 1.371 . S
C751 H758 0.930 . S
H752 C749 0.928 . S
H753 C750 0.931 . S
H754 C730 0.930 . S
H755 C727 0.930 . S
H756 C736 0.930 . S
H757 C748 0.929 . S
H758 C751 0.930 . S
C759 C760 1.351 . S
C759 N762 1.368 . S
C759 H764 0.931 . S
C760 C759 1.351 . S
C760 N761 1.373 . S
C760 H788 0.930 . S
N761 C760 1.373 . S
N761 C763 1.340 . S
N762 C759 1.368 . S
N762 C763 1.321 . S
N762 Co765 2.135 . S
C763 N761 1.340 . S
C763 N762 1.321 . S
C763 H787 0.930 . S
H764 C759 0.931 . S
Co765 N762 2.135 . S
Co765 N768 2.121 1_655 S
Co765 O773 2.055 . S
Co765 O776 2.039 1_655 S
Co765 N779 2.140 . S
C766 O767 1.227 . S
C766 O776 1.265 . S
O767 C766 1.227 . S
N768 Co765 2.121 1_455 S
N768 C770 1.375 . S
N768 C771 1.313 . S
C769 C770 1.338 . S
C769 N772 1.377 . S
C769 H789 0.930 . S
C770 N768 1.375 . S
C770 C769 1.338 . S
C770 H774 0.931 . S
C771 N768 1.313 . S
C771 N772 1.344 . S
C771 H775 0.930 1_455 S
N772 C769 1.377 . S
N772 C771 1.344 . S
O773 Co765 2.055 . S
O773 C777 1.253 . S
H774 C770 0.931 . S
H775 C771 0.930 1_655 S
O776 Co765 2.039 1_455 S
O776 C766 1.265 . S
C777 O773 1.253 . S
C777 O778 1.227 . S
O778 C777 1.227 . S
N779 Co765 2.140 . S
N779 C782 1.346 . S
N779 C783 1.345 . S
C780 C781 1.387 . S
C780 C784 1.391 . S
C781 C780 1.387 . S
C781 C782 1.369 . S
C781 H790 0.929 . S
C782 N779 1.346 . S
C782 C781 1.369 . S
C782 H785 0.928 . S
C783 N779 1.345 . S
C783 C784 1.371 . S
C783 H786 0.931 . S
C784 C780 1.391 . S
C784 C783 1.371 . S
C784 H791 0.930 . S
H785 C782 0.928 . S
H786 C783 0.931 . S
H787 C763 0.930 . S
H788 C760 0.930 . S
H789 C769 0.930 . S
H790 C781 0.929 . S
H791 C784 0.930 . S
C792 C793 1.351 . S
C792 N795 1.368 . S
C792 H797 0.931 . S
C793 C792 1.351 . S
C793 N794 1.373 . S
C793 H821 0.930 . S
N794 C793 1.373 . S
N794 C796 1.340 . S
N795 C792 1.368 . S
N795 C796 1.321 . S
N795 Co798 2.135 . S
C796 N794 1.340 . S
C796 N795 1.321 . S
C796 H820 0.930 . S
H797 C792 0.931 . S
Co798 N795 2.135 . S
Co798 N801 2.121 . S
Co798 O806 2.055 . S
Co798 O809 2.039 . S
Co798 N812 2.140 . S
C799 O800 1.227 . S
C799 O809 1.265 . S
O800 C799 1.227 . S
N801 Co798 2.121 . S
N801 C803 1.375 . S
N801 C804 1.313 . S
C802 C803 1.338 . S
C802 N805 1.377 . S
C802 H822 0.930 . S
C803 N801 1.375 . S
C803 C802 1.338 . S
C803 H807 0.931 . S
C804 N801 1.313 . S
C804 N805 1.344 . S
C804 H808 0.930 . S
N805 C802 1.377 . S
N805 C804 1.344 . S
O806 Co798 2.055 . S
O806 C810 1.253 . S
H807 C803 0.931 . S
H808 C804 0.930 . S
O809 Co798 2.039 . S
O809 C799 1.265 . S
C810 O806 1.253 . S
C810 O811 1.227 . S
O811 C810 1.227 . S
N812 Co798 2.140 . S
N812 C815 1.346 . S
N812 C816 1.345 . S
C813 C814 1.387 . S
C813 C817 1.391 . S
C814 C813 1.387 . S
C814 C815 1.369 . S
C814 H823 0.929 . S
C815 N812 1.346 . S
C815 C814 1.369 . S
C815 H818 0.928 . S
C816 N812 1.345 . S
C816 C817 1.371 . S
C816 H819 0.931 . S
C817 C813 1.391 . S
C817 C816 1.371 . S
C817 H824 0.930 . S
H818 C815 0.928 . S
H819 C816 0.931 . S
H820 C796 0.930 . S
H821 C793 0.930 . S
H822 C802 0.930 . S
H823 C814 0.929 . S
H824 C817 0.930 . S
C825 C826 1.351 . S
C825 N828 1.368 . S
C825 H830 0.931 . S
C826 C825 1.351 . S
C826 N827 1.373 . S
C826 H854 0.930 . S
N827 C826 1.373 . S
N827 C829 1.340 . S
N828 C825 1.368 . S
N828 C829 1.321 . S
N828 Co831 2.135 . S
C829 N827 1.340 . S
C829 N828 1.321 . S
C829 H853 0.930 . S
H830 C825 0.931 . S
Co831 N828 2.135 . S
Co831 N834 2.121 . S
Co831 O839 2.055 . S
Co831 O842 2.039 . S
Co831 N845 2.140 . S
C832 O833 1.227 . S
C832 O842 1.265 . S
O833 C832 1.227 . S
N834 Co831 2.121 . S
N834 C836 1.375 . S
N834 C837 1.313 . S
C835 C836 1.338 . S
C835 N838 1.377 . S
C835 H855 0.930 . S
C836 N834 1.375 . S
C836 C835 1.338 . S
C836 H840 0.931 . S
C837 N834 1.313 . S
C837 N838 1.344 . S
C837 H841 0.930 . S
N838 C835 1.377 . S
N838 C837 1.344 . S
O839 Co831 2.055 . S
O839 C843 1.253 . S
H840 C836 0.931 . S
H841 C837 0.930 . S
O842 Co831 2.039 . S
O842 C832 1.265 . S
C843 O839 1.253 . S
C843 O844 1.227 . S
O844 C843 1.227 . S
N845 Co831 2.140 . S
N845 C848 1.346 . S
N845 C849 1.345 . S
C846 C847 1.387 . S
C846 C850 1.391 . S
C847 C846 1.387 . S
C847 C848 1.369 . S
C847 H856 0.929 . S
C848 N845 1.346 . S
C848 C847 1.369 . S
C848 H851 0.928 . S
C849 N845 1.345 . S
C849 C850 1.371 . S
C849 H852 0.931 . S
C850 C846 1.391 . S
C850 C849 1.371 . S
C850 H857 0.930 . S
H851 C848 0.928 . S
H852 C849 0.931 . S
H853 C829 0.930 . S
H854 C826 0.930 . S
H855 C835 0.930 . S
H856 C847 0.929 . S
H857 C850 0.930 . S
C858 C859 1.351 . S
C858 N861 1.368 . S
C858 H863 0.931 . S
C859 C858 1.351 . S
C859 N860 1.373 . S
C859 H887 0.930 . S
N860 C859 1.373 . S
N860 C862 1.340 . S
N861 C858 1.368 . S
N861 C862 1.321 . S
N861 Co864 2.135 . S
C862 N860 1.340 . S
C862 N861 1.321 . S
C862 H886 0.930 . S
H863 C858 0.931 . S
Co864 N861 2.135 . S
Co864 N867 2.121 . S
Co864 O872 2.055 . S
Co864 O875 2.039 . S
Co864 N878 2.140 . S
C865 O866 1.227 . S
C865 O875 1.265 . S
O866 C865 1.227 . S
N867 Co864 2.121 . S
N867 C869 1.375 . S
N867 C870 1.313 . S
C868 C869 1.338 . S
C868 N871 1.377 . S
C868 H888 0.930 . S
C869 N867 1.375 . S
C869 C868 1.338 . S
C869 H873 0.931 . S
C870 N867 1.313 . S
C870 N871 1.344 . S
C870 H874 0.930 . S
N871 C868 1.377 . S
N871 C870 1.344 . S
O872 Co864 2.055 . S
O872 C876 1.253 . S
H873 C869 0.931 . S
H874 C870 0.930 . S
O875 Co864 2.039 . S
O875 C865 1.265 . S
C876 O872 1.253 . S
C876 O877 1.227 . S
O877 C876 1.227 . S
N878 Co864 2.140 . S
N878 C881 1.346 . S
N878 C882 1.345 . S
C879 C880 1.387 . S
C879 C883 1.391 . S
C880 C879 1.387 . S
C880 C881 1.369 . S
C880 H889 0.929 . S
C881 N878 1.346 . S
C881 C880 1.369 . S
C881 H884 0.928 . S
C882 N878 1.345 . S
C882 C883 1.371 . S
C882 H885 0.931 . S
C883 C879 1.391 . S
C883 C882 1.371 . S
C883 H890 0.930 . S
H884 C881 0.928 . S
H885 C882 0.931 . S
H886 C862 0.930 . S
H887 C859 0.930 . S
H888 C868 0.930 . S
H889 C880 0.929 . S
H890 C883 0.930 . S
C891 C892 1.351 . S
C891 N894 1.368 . S
C891 H896 0.931 . S
C892 C891 1.351 . S
C892 N893 1.373 . S
C892 H920 0.930 . S
N893 C892 1.373 . S
N893 C895 1.340 . S
N894 C891 1.368 . S
N894 C895 1.321 . S
N894 Co897 2.135 . S
C895 N893 1.340 . S
C895 N894 1.321 . S
C895 H919 0.930 . S
H896 C891 0.931 . S
Co897 N894 2.135 . S
Co897 N900 2.121 . S
Co897 O905 2.055 . S
Co897 O908 2.039 . S
Co897 N911 2.140 . S
C898 O899 1.227 . S
C898 O908 1.265 . S
O899 C898 1.227 . S
N900 Co897 2.121 . S
N900 C902 1.375 . S
N900 C903 1.313 . S
C901 C902 1.338 . S
C901 N904 1.377 . S
C901 H921 0.930 . S
C902 N900 1.375 . S
C902 C901 1.338 . S
C902 H906 0.931 . S
C903 N900 1.313 . S
C903 N904 1.344 . S
C903 H907 0.930 . S
N904 C901 1.377 . S
N904 C903 1.344 . S
O905 Co897 2.055 . S
O905 C909 1.253 . S
H906 C902 0.931 . S
H907 C903 0.930 . S
O908 Co897 2.039 . S
O908 C898 1.265 . S
C909 O905 1.253 . S
C909 O910 1.227 . S
O910 C909 1.227 . S
N911 Co897 2.140 . S
N911 C914 1.346 . S
N911 C915 1.345 . S
C912 C913 1.387 . S
C912 C916 1.391 . S
C913 C912 1.387 . S
C913 C914 1.369 . S
C913 H922 0.929 . S
C914 N911 1.346 . S
C914 C913 1.369 . S
C914 H917 0.928 . S
C915 N911 1.345 . S
C915 C916 1.371 . S
C915 H918 0.931 . S
C916 C912 1.391 . S
C916 C915 1.371 . S
C916 H923 0.930 . S
H917 C914 0.928 . S
H918 C915 0.931 . S
H919 C895 0.930 . S
H920 C892 0.930 . S
H921 C901 0.930 . S
H922 C913 0.929 . S
H923 C916 0.930 . S
C924 C925 1.351 . S
C924 N927 1.368 . S
C924 H929 0.931 . S
C925 C924 1.351 . S
C925 N926 1.373 . S
C925 H953 0.930 . S
N926 C925 1.373 . S
N926 C928 1.340 . S
N927 C924 1.368 . S
N927 C928 1.321 . S
N927 Co930 2.135 . S
C928 N926 1.340 . S
C928 N927 1.321 . S
C928 H952 0.930 . S
H929 C924 0.931 . S
Co930 N927 2.135 . S
Co930 N933 2.121 . S
Co930 O938 2.055 . S
Co930 O941 2.039 . S
Co930 N944 2.140 . S
C931 O932 1.227 . S
C931 O941 1.265 . S
O932 C931 1.227 . S
N933 Co930 2.121 . S
N933 C935 1.375 . S
N933 C936 1.313 . S
C934 C935 1.338 . S
C934 N937 1.377 . S
C934 H954 0.930 . S
C935 N933 1.375 . S
C935 C934 1.338 . S
C935 H939 0.931 . S
C936 N933 1.313 . S
C936 N937 1.344 . S
C936 H940 0.930 . S
N937 C934 1.377 . S
N937 C936 1.344 . S
O938 Co930 2.055 . S
O938 C942 1.253 . S
H939 C935 0.931 . S
H940 C936 0.930 . S
O941 Co930 2.039 . S
O941 C931 1.265 . S
C942 O938 1.253 . S
C942 O943 1.227 . S
O943 C942 1.227 . S
N944 Co930 2.140 . S
N944 C947 1.346 . S
N944 C948 1.345 . S
C945 C946 1.387 . S
C945 C949 1.391 . S
C946 C945 1.387 . S
C946 C947 1.369 . S
C946 H955 0.929 . S
C947 N944 1.346 . S
C947 C946 1.369 . S
C947 H950 0.928 . S
C948 N944 1.345 . S
C948 C949 1.371 . S
C948 H951 0.931 . S
C949 C945 1.391 . S
C949 C948 1.371 . S
C949 H956 0.930 . S
H950 C947 0.928 . S
H951 C948 0.931 . S
H952 C928 0.930 . S
H953 C925 0.930 . S
H954 C934 0.930 . S
H955 C946 0.929 . S
H956 C949 0.930 . S
C957 C958 1.351 . S
C957 N960 1.368 . S
C957 H962 0.931 . S
C958 C957 1.351 . S
C958 N959 1.373 . S
C958 H986 0.930 . S
N959 C958 1.373 . S
N959 C961 1.340 . S
N960 C957 1.368 . S
N960 C961 1.321 . S
N960 Co963 2.135 . S
C961 N959 1.340 . S
C961 N960 1.321 . S
C961 H985 0.930 . S
H962 C957 0.931 . S
Co963 N960 2.135 . S
Co963 N966 2.121 . S
Co963 O971 2.055 . S
Co963 O974 2.039 . S
Co963 N977 2.140 . S
C964 O965 1.227 . S
C964 O974 1.265 . S
O965 C964 1.227 . S
N966 Co963 2.121 . S
N966 C968 1.375 . S
N966 C969 1.313 . S
C967 C968 1.338 . S
C967 N970 1.377 . S
C967 H987 0.930 . S
C968 N966 1.375 . S
C968 C967 1.338 . S
C968 H972 0.931 . S
C969 N966 1.313 . S
C969 N970 1.344 . S
C969 H973 0.930 . S
N970 C967 1.377 . S
N970 C969 1.344 . S
O971 Co963 2.055 . S
O971 C975 1.253 . S
H972 C968 0.931 . S
H973 C969 0.930 . S
O974 Co963 2.039 . S
O974 C964 1.265 . S
C975 O971 1.253 . S
C975 O976 1.227 . S
O976 C975 1.227 . S
N977 Co963 2.140 . S
N977 C980 1.346 . S
N977 C981 1.345 . S
C978 C979 1.387 . S
C978 C982 1.391 . S
C979 C978 1.387 . S
C979 C980 1.369 . S
C979 H988 0.929 . S
C980 N977 1.346 . S
C980 C979 1.369 . S
C980 H983 0.928 . S
C981 N977 1.345 . S
C981 C982 1.371 . S
C981 H984 0.931 . S
C982 C978 1.391 . S
C982 C981 1.371 . S
C982 H989 0.930 . S
H983 C980 0.928 . S
H984 C981 0.931 . S
H985 C961 0.930 . S
H986 C958 0.930 . S
H987 C967 0.930 . S
H988 C979 0.929 . S
H989 C982 0.930 . S
C990 C991 1.351 . S
C990 N993 1.368 . S
C990 H995 0.931 . S
C991 C990 1.351 . S
C991 N992 1.373 . S
C991 H1019 0.930 . S
N992 C991 1.373 . S
N992 C994 1.340 . S
N993 C990 1.368 . S
N993 C994 1.321 . S
N993 Co996 2.135 . S
C994 N992 1.340 . S
C994 N993 1.321 . S
C994 H1018 0.930 . S
H995 C990 0.931 . S
Co996 N993 2.135 . S
Co996 N999 2.121 . S
Co996 O1004 2.055 . S
Co996 O1007 2.039 . S
Co996 N1010 2.140 . S
C997 O998 1.227 . S
C997 O1007 1.265 . S
O998 C997 1.227 . S
N999 Co996 2.121 . S
N999 C1001 1.375 . S
N999 C1002 1.313 . S
C1000 C1001 1.338 . S
C1000 N1003 1.377 . S
C1000 H1020 0.930 . S
C1001 N999 1.375 . S
C1001 C1000 1.338 . S
C1001 H1005 0.931 . S
C1002 N999 1.313 . S
C1002 N1003 1.344 . S
C1002 H1006 0.930 . S
N1003 C1000 1.377 . S
N1003 C1002 1.344 . S
O1004 Co996 2.055 . S
O1004 C1008 1.253 . S
H1005 C1001 0.931 . S
H1006 C1002 0.930 . S
O1007 Co996 2.039 . S
O1007 C997 1.265 . S
C1008 O1004 1.253 . S
C1008 O1009 1.227 . S
O1009 C1008 1.227 . S
N1010 Co996 2.140 . S
N1010 C1013 1.346 . S
N1010 C1014 1.345 . S
C1011 C1012 1.387 . S
C1011 C1015 1.391 . S
C1012 C1011 1.387 . S
C1012 C1013 1.369 . S
C1012 H1021 0.929 . S
C1013 N1010 1.346 . S
C1013 C1012 1.369 . S
C1013 H1016 0.928 . S
C1014 N1010 1.345 . S
C1014 C1015 1.371 . S
C1014 H1017 0.931 . S
C1015 C1011 1.391 . S
C1015 C1014 1.371 . S
C1015 H1022 0.930 . S
H1016 C1013 0.928 . S
H1017 C1014 0.931 . S
H1018 C994 0.930 . S
H1019 C991 0.930 . S
H1020 C1000 0.930 . S
H1021 C1012 0.929 . S
H1022 C1015 0.930 . S
C1023 C1024 1.351 . S
C1023 N1026 1.368 . S
C1023 H1028 0.931 . S
C1024 C1023 1.351 . S
C1024 N1025 1.373 . S
C1024 H1052 0.930 . S
N1025 C1024 1.373 . S
N1025 C1027 1.340 . S
N1026 C1023 1.368 . S
N1026 C1027 1.321 . S
N1026 Co1029 2.135 . S
C1027 N1025 1.340 . S
C1027 N1026 1.321 . S
C1027 H1051 0.930 . S
H1028 C1023 0.931 . S
Co1029 N1026 2.135 . S
Co1029 N1032 2.121 . S
Co1029 O1037 2.055 . S
Co1029 O1040 2.039 . S
Co1029 N1043 2.140 . S
C1030 O1031 1.227 . S
C1030 O1040 1.265 . S
O1031 C1030 1.227 . S
N1032 Co1029 2.121 . S
N1032 C1034 1.375 . S
N1032 C1035 1.313 . S
C1033 C1034 1.338 . S
C1033 N1036 1.377 . S
C1033 H1053 0.930 . S
C1034 N1032 1.375 . S
C1034 C1033 1.338 . S
C1034 H1038 0.931 . S
C1035 N1032 1.313 . S
C1035 N1036 1.344 . S
C1035 H1039 0.930 . S
N1036 C1033 1.377 . S
N1036 C1035 1.344 . S
O1037 Co1029 2.055 . S
O1037 C1041 1.253 . S
H1038 C1034 0.931 . S
H1039 C1035 0.930 . S
O1040 Co1029 2.039 . S
O1040 C1030 1.265 . S
C1041 O1037 1.253 . S
C1041 O1042 1.227 . S
O1042 C1041 1.227 . S
N1043 Co1029 2.140 . S
N1043 C1046 1.346 . S
N1043 C1047 1.345 . S
C1044 C1045 1.387 . S
C1044 C1048 1.391 . S
C1045 C1044 1.387 . S
C1045 C1046 1.369 . S
C1045 H1054 0.929 . S
C1046 N1043 1.346 . S
C1046 C1045 1.369 . S
C1046 H1049 0.928 . S
C1047 N1043 1.345 . S
C1047 C1048 1.371 . S
C1047 H1050 0.931 . S
C1048 C1044 1.391 . S
C1048 C1047 1.371 . S
C1048 H1055 0.930 . S
H1049 C1046 0.928 . S
H1050 C1047 0.931 . S
H1051 C1027 0.930 . S
H1052 C1024 0.930 . S
H1053 C1033 0.930 . S
H1054 C1045 0.929 . S
H1055 C1048 0.930 . S
C1056 C1057 1.351 . S
C1056 N1059 1.368 . S
C1056 H1061 0.931 . S
C1057 C1056 1.351 . S
C1057 N1058 1.373 . S
C1057 H1085 0.930 . S
N1058 C1057 1.373 . S
N1058 C1060 1.340 . S
N1059 C1056 1.368 . S
N1059 C1060 1.321 . S
N1059 Co1062 2.135 . S
C1060 N1058 1.340 . S
C1060 N1059 1.321 . S
C1060 H1084 0.930 . S
H1061 C1056 0.931 . S
Co1062 N1059 2.135 . S
Co1062 N1065 2.121 . S
Co1062 O1070 2.055 . S
Co1062 O1073 2.039 . S
Co1062 N1076 2.140 . S
C1063 O1064 1.227 . S
C1063 O1073 1.265 . S
O1064 C1063 1.227 . S
N1065 Co1062 2.121 . S
N1065 C1067 1.375 . S
N1065 C1068 1.313 . S
C1066 C1067 1.338 . S
C1066 N1069 1.377 . S
C1066 H1086 0.930 . S
C1067 N1065 1.375 . S
C1067 C1066 1.338 . S
C1067 H1071 0.931 . S
C1068 N1065 1.313 . S
C1068 N1069 1.344 . S
C1068 H1072 0.930 . S
N1069 C1066 1.377 . S
N1069 C1068 1.344 . S
O1070 Co1062 2.055 . S
O1070 C1074 1.253 . S
H1071 C1067 0.931 . S
H1072 C1068 0.930 . S
O1073 Co1062 2.039 . S
O1073 C1063 1.265 . S
C1074 O1070 1.253 . S
C1074 O1075 1.227 . S
O1075 C1074 1.227 . S
N1076 Co1062 2.140 . S
N1076 C1079 1.346 . S
N1076 C1080 1.345 . S
C1077 C1078 1.387 . S
C1077 C1081 1.391 . S
C1078 C1077 1.387 . S
C1078 C1079 1.369 . S
C1078 H1087 0.929 . S
C1079 N1076 1.346 . S
C1079 C1078 1.369 . S
C1079 H1082 0.928 . S
C1080 N1076 1.345 . S
C1080 C1081 1.371 . S
C1080 H1083 0.931 . S
C1081 C1077 1.391 . S
C1081 C1080 1.371 . S
C1081 H1088 0.930 . S
H1082 C1079 0.928 . S
H1083 C1080 0.931 . S
H1084 C1060 0.930 . S
H1085 C1057 0.930 . S
H1086 C1066 0.930 . S
H1087 C1078 0.929 . S
H1088 C1081 0.930 . S
C1089 C1090 1.351 . S
C1089 N1092 1.368 . S
C1089 H1094 0.931 . S
C1090 C1089 1.351 . S
C1090 N1091 1.373 . S
C1090 H1118 0.930 . S
N1091 C1090 1.373 . S
N1091 C1093 1.340 . S
N1092 C1089 1.368 . S
N1092 C1093 1.321 . S
N1092 Co1095 2.135 . S
C1093 N1091 1.340 . S
C1093 N1092 1.321 . S
C1093 H1117 0.930 . S
H1094 C1089 0.931 . S
Co1095 N1092 2.135 . S
Co1095 N1098 2.121 1_545 S
Co1095 O1103 2.055 . S
Co1095 O1106 2.039 1_545 S
Co1095 N1109 2.140 . S
C1096 O1097 1.227 . S
C1096 O1106 1.265 . S
O1097 C1096 1.227 . S
N1098 Co1095 2.121 1_565 S
N1098 C1100 1.375 . S
N1098 C1101 1.313 . S
C1099 C1100 1.338 . S
C1099 N1102 1.377 . S
C1099 H1119 0.930 . S
C1100 N1098 1.375 . S
C1100 C1099 1.338 . S
C1100 H1104 0.931 . S
C1101 N1098 1.313 . S
C1101 N1102 1.344 . S
C1101 H1105 0.930 1_565 S
N1102 C1099 1.377 . S
N1102 C1101 1.344 . S
O1103 Co1095 2.055 . S
O1103 C1107 1.253 . S
H1104 C1100 0.931 . S
H1105 C1101 0.930 1_545 S
O1106 Co1095 2.039 1_565 S
O1106 C1096 1.265 . S
C1107 O1103 1.253 . S
C1107 O1108 1.227 . S
O1108 C1107 1.227 . S
N1109 Co1095 2.140 . S
N1109 C1112 1.346 . S
N1109 C1113 1.345 . S
C1110 C1111 1.387 . S
C1110 C1114 1.391 . S
C1111 C1110 1.387 . S
C1111 C1112 1.369 . S
C1111 H1120 0.929 . S
C1112 N1109 1.346 . S
C1112 C1111 1.369 . S
C1112 H1115 0.928 . S
C1113 N1109 1.345 . S
C1113 C1114 1.371 . S
C1113 H1116 0.931 . S
C1114 C1110 1.391 . S
C1114 C1113 1.371 . S
C1114 H1121 0.930 . S
H1115 C1112 0.928 . S
H1116 C1113 0.931 . S
H1117 C1093 0.930 . S
H1118 C1090 0.930 . S
H1119 C1099 0.930 . S
H1120 C1111 0.929 . S
H1121 C1114 0.930 . S
C1122 C1123 1.351 . S
C1122 N1125 1.368 . S
C1122 H1127 0.931 . S
C1123 C1122 1.351 . S
C1123 N1124 1.373 . S
C1123 H1151 0.930 . S
N1124 C1123 1.373 . S
N1124 C1126 1.340 . S
N1125 C1122 1.368 . S
N1125 C1126 1.321 . S
N1125 Co1128 2.135 . S
C1126 N1124 1.340 . S
C1126 N1125 1.321 . S
C1126 H1150 0.930 . S
H1127 C1122 0.931 . S
Co1128 N1125 2.135 . S
Co1128 N1131 2.121 . S
Co1128 O1136 2.055 . S
Co1128 O1139 2.039 . S
Co1128 N1142 2.140 . S
C1129 O1130 1.227 . S
C1129 O1139 1.265 . S
O1130 C1129 1.227 . S
N1131 Co1128 2.121 . S
N1131 C1133 1.375 . S
N1131 C1134 1.313 . S
C1132 C1133 1.338 . S
C1132 N1135 1.377 . S
C1132 H1152 0.930 . S
C1133 N1131 1.375 . S
C1133 C1132 1.338 . S
C1133 H1137 0.931 . S
C1134 N1131 1.313 . S
C1134 N1135 1.344 . S
C1134 H1138 0.930 . S
N1135 C1132 1.377 . S
N1135 C1134 1.344 . S
O1136 Co1128 2.055 . S
O1136 C1140 1.253 . S
H1137 C1133 0.931 . S
H1138 C1134 0.930 . S
O1139 Co1128 2.039 . S
O1139 C1129 1.265 . S
C1140 O1136 1.253 . S
C1140 O1141 1.227 . S
O1141 C1140 1.227 . S
N1142 Co1128 2.140 . S
N1142 C1145 1.346 . S
N1142 C1146 1.345 . S
C1143 C1144 1.387 . S
C1143 C1147 1.391 . S
C1144 C1143 1.387 . S
C1144 C1145 1.369 . S
C1144 H1153 0.929 . S
C1145 N1142 1.346 . S
C1145 C1144 1.369 . S
C1145 H1148 0.928 . S
C1146 N1142 1.345 . S
C1146 C1147 1.371 . S
C1146 H1149 0.931 . S
C1147 C1143 1.391 . S
C1147 C1146 1.371 . S
C1147 H1154 0.930 . S
H1148 C1145 0.928 . S
H1149 C1146 0.931 . S
H1150 C1126 0.930 . S
H1151 C1123 0.930 . S
H1152 C1132 0.930 . S
H1153 C1144 0.929 . S
H1154 C1147 0.930 . S
C1155 C1156 1.351 . S
C1155 N1158 1.368 . S
C1155 H1160 0.931 . S
C1156 C1155 1.351 . S
C1156 N1157 1.373 . S
C1156 H1184 0.930 . S
N1157 C1156 1.373 . S
N1157 C1159 1.340 . S
N1158 C1155 1.368 . S
N1158 C1159 1.321 . S
N1158 Co1161 2.135 . S
C1159 N1157 1.340 . S
C1159 N1158 1.321 . S
C1159 H1183 0.930 . S
H1160 C1155 0.931 . S
Co1161 N1158 2.135 . S
Co1161 N1164 2.121 . S
Co1161 O1169 2.055 . S
Co1161 O1172 2.039 . S
Co1161 N1175 2.140 . S
C1162 O1163 1.227 . S
C1162 O1172 1.265 . S
O1163 C1162 1.227 . S
N1164 Co1161 2.121 . S
N1164 C1166 1.375 . S
N1164 C1167 1.313 . S
C1165 C1166 1.338 . S
C1165 N1168 1.377 . S
C1165 H1185 0.930 . S
C1166 N1164 1.375 . S
C1166 C1165 1.338 . S
C1166 H1170 0.931 . S
C1167 N1164 1.313 . S
C1167 N1168 1.344 . S
C1167 H1171 0.930 . S
N1168 C1165 1.377 . S
N1168 C1167 1.344 . S
O1169 Co1161 2.055 . S
O1169 C1173 1.253 . S
H1170 C1166 0.931 . S
H1171 C1167 0.930 . S
O1172 Co1161 2.039 . S
O1172 C1162 1.265 . S
C1173 O1169 1.253 . S
C1173 O1174 1.227 . S
O1174 C1173 1.227 . S
N1175 Co1161 2.140 . S
N1175 C1178 1.346 . S
N1175 C1179 1.345 . S
C1176 C1177 1.387 . S
C1176 C1180 1.391 . S
C1177 C1176 1.387 . S
C1177 C1178 1.369 . S
C1177 H1186 0.929 . S
C1178 N1175 1.346 . S
C1178 C1177 1.369 . S
C1178 H1181 0.928 . S
C1179 N1175 1.345 . S
C1179 C1180 1.371 . S
C1179 H1182 0.931 . S
C1180 C1176 1.391 . S
C1180 C1179 1.371 . S
C1180 H1187 0.930 . S
H1181 C1178 0.928 . S
H1182 C1179 0.931 . S
H1183 C1159 0.930 . S
H1184 C1156 0.930 . S
H1185 C1165 0.930 . S
H1186 C1177 0.929 . S
H1187 C1180 0.930 . S
C1188 C1189 1.351 . S
C1188 N1191 1.368 . S
C1188 H1193 0.931 . S
C1189 C1188 1.351 . S
C1189 N1190 1.373 . S
C1189 H1217 0.930 . S
N1190 C1189 1.373 . S
N1190 C1192 1.340 . S
N1191 C1188 1.368 . S
N1191 C1192 1.321 . S
N1191 Co1194 2.135 . S
C1192 N1190 1.340 . S
C1192 N1191 1.321 . S
C1192 H1216 0.930 . S
H1193 C1188 0.931 . S
Co1194 N1191 2.135 . S
Co1194 N1197 2.121 . S
Co1194 O1202 2.055 . S
Co1194 O1205 2.039 . S
Co1194 N1208 2.140 . S
C1195 O1196 1.227 . S
C1195 O1205 1.265 . S
O1196 C1195 1.227 . S
N1197 Co1194 2.121 . S
N1197 C1199 1.375 . S
N1197 C1200 1.313 . S
C1198 C1199 1.338 . S
C1198 N1201 1.377 . S
C1198 H1218 0.930 . S
C1199 N1197 1.375 . S
C1199 C1198 1.338 . S
C1199 H1203 0.931 . S
C1200 N1197 1.313 . S
C1200 N1201 1.344 . S
C1200 H1204 0.930 . S
N1201 C1198 1.377 . S
N1201 C1200 1.344 . S
O1202 Co1194 2.055 . S
O1202 C1206 1.253 . S
H1203 C1199 0.931 . S
H1204 C1200 0.930 . S
O1205 Co1194 2.039 . S
O1205 C1195 1.265 . S
C1206 O1202 1.253 . S
C1206 O1207 1.227 . S
O1207 C1206 1.227 . S
N1208 Co1194 2.140 . S
N1208 C1211 1.346 . S
N1208 C1212 1.345 . S
C1209 C1210 1.387 . S
C1209 C1213 1.391 . S
C1210 C1209 1.387 . S
C1210 C1211 1.369 . S
C1210 H1219 0.929 . S
C1211 N1208 1.346 . S
C1211 C1210 1.369 . S
C1211 H1214 0.928 . S
C1212 N1208 1.345 . S
C1212 C1213 1.371 . S
C1212 H1215 0.931 . S
C1213 C1209 1.391 . S
C1213 C1212 1.371 . S
C1213 H1220 0.930 . S
H1214 C1211 0.928 . S
H1215 C1212 0.931 . S
H1216 C1192 0.930 . S
H1217 C1189 0.930 . S
H1218 C1198 0.930 . S
H1219 C1210 0.929 . S
H1220 C1213 0.930 . S
C1221 C1222 1.351 . S
C1221 N1224 1.368 . S
C1221 H1226 0.931 . S
C1222 C1221 1.351 . S
C1222 N1223 1.373 . S
C1222 H1250 0.930 . S
N1223 C1222 1.373 . S
N1223 C1225 1.340 . S
N1224 C1221 1.368 . S
N1224 C1225 1.321 . S
N1224 Co1227 2.135 . S
C1225 N1223 1.340 . S
C1225 N1224 1.321 . S
C1225 H1249 0.930 . S
H1226 C1221 0.931 . S
Co1227 N1224 2.135 . S
Co1227 N1230 2.121 1_545 S
Co1227 O1235 2.055 . S
Co1227 O1238 2.039 1_545 S
Co1227 N1241 2.140 . S
C1228 O1229 1.227 . S
C1228 O1238 1.265 . S
O1229 C1228 1.227 . S
N1230 Co1227 2.121 1_565 S
N1230 C1232 1.375 . S
N1230 C1233 1.313 . S
C1231 C1232 1.338 . S
C1231 N1234 1.377 . S
C1231 H1251 0.930 . S
C1232 N1230 1.375 . S
C1232 C1231 1.338 . S
C1232 H1236 0.931 . S
C1233 N1230 1.313 . S
C1233 N1234 1.344 . S
C1233 H1237 0.930 1_565 S
N1234 C1231 1.377 . S
N1234 C1233 1.344 . S
O1235 Co1227 2.055 . S
O1235 C1239 1.253 . S
H1236 C1232 0.931 . S
H1237 C1233 0.930 1_545 S
O1238 Co1227 2.039 1_565 S
O1238 C1228 1.265 . S
C1239 O1235 1.253 . S
C1239 O1240 1.227 . S
O1240 C1239 1.227 . S
N1241 Co1227 2.140 . S
N1241 C1244 1.346 . S
N1241 C1245 1.345 . S
C1242 C1243 1.387 . S
C1242 C1246 1.391 . S
C1243 C1242 1.387 . S
C1243 C1244 1.369 . S
C1243 H1252 0.929 . S
C1244 N1241 1.346 . S
C1244 C1243 1.369 . S
C1244 H1247 0.928 . S
C1245 N1241 1.345 . S
C1245 C1246 1.371 . S
C1245 H1248 0.931 . S
C1246 C1242 1.391 . S
C1246 C1245 1.371 . S
C1246 H1253 0.930 . S
H1247 C1244 0.928 . S
H1248 C1245 0.931 . S
H1249 C1225 0.930 . S
H1250 C1222 0.930 . S
H1251 C1231 0.930 . S
H1252 C1243 0.929 . S
H1253 C1246 0.930 . S
C1254 C1255 1.351 . S
C1254 N1257 1.368 . S
C1254 H1259 0.931 . S
C1255 C1254 1.351 . S
C1255 N1256 1.373 . S
C1255 H1283 0.930 . S
N1256 C1255 1.373 . S
N1256 C1258 1.340 . S
N1257 C1254 1.368 . S
N1257 C1258 1.321 . S
N1257 Co1260 2.135 . S
C1258 N1256 1.340 . S
C1258 N1257 1.321 . S
C1258 H1282 0.930 . S
H1259 C1254 0.931 . S
Co1260 N1257 2.135 . S
Co1260 N1263 2.121 . S
Co1260 O1268 2.055 . S
Co1260 O1271 2.039 . S
Co1260 N1274 2.140 . S
C1261 O1262 1.227 . S
C1261 O1271 1.265 . S
O1262 C1261 1.227 . S
N1263 Co1260 2.121 . S
N1263 C1265 1.375 . S
N1263 C1266 1.313 . S
C1264 C1265 1.338 . S
C1264 N1267 1.377 . S
C1264 H1284 0.930 . S
C1265 N1263 1.375 . S
C1265 C1264 1.338 . S
C1265 H1269 0.931 . S
C1266 N1263 1.313 . S
C1266 N1267 1.344 . S
C1266 H1270 0.930 . S
N1267 C1264 1.377 . S
N1267 C1266 1.344 . S
O1268 Co1260 2.055 . S
O1268 C1272 1.253 . S
H1269 C1265 0.931 . S
H1270 C1266 0.930 . S
O1271 Co1260 2.039 . S
O1271 C1261 1.265 . S
C1272 O1268 1.253 . S
C1272 O1273 1.227 . S
O1273 C1272 1.227 . S
N1274 Co1260 2.140 . S
N1274 C1277 1.346 . S
N1274 C1278 1.345 . S
C1275 C1276 1.387 . S
C1275 C1279 1.391 . S
C1276 C1275 1.387 . S
C1276 C1277 1.369 . S
C1276 H1285 0.929 . S
C1277 N1274 1.346 . S
C1277 C1276 1.369 . S
C1277 H1280 0.928 . S
C1278 N1274 1.345 . S
C1278 C1279 1.371 . S
C1278 H1281 0.931 . S
C1279 C1275 1.391 . S
C1279 C1278 1.371 . S
C1279 H1286 0.930 . S
H1280 C1277 0.928 . S
H1281 C1278 0.931 . S
H1282 C1258 0.930 . S
H1283 C1255 0.930 . S
H1284 C1264 0.930 . S
H1285 C1276 0.929 . S
H1286 C1279 0.930 . S
C1287 C1288 1.351 . S
C1287 N1290 1.368 . S
C1287 H1292 0.931 . S
C1288 C1287 1.351 . S
C1288 N1289 1.373 . S
C1288 H1316 0.930 . S
N1289 C1288 1.373 . S
N1289 C1291 1.340 . S
N1290 C1287 1.368 . S
N1290 C1291 1.321 . S
N1290 Co1293 2.135 . S
C1291 N1289 1.340 . S
C1291 N1290 1.321 . S
C1291 H1315 0.930 . S
H1292 C1287 0.931 . S
Co1293 N1290 2.135 . S
Co1293 N1296 2.121 . S
Co1293 O1301 2.055 . S
Co1293 O1304 2.039 . S
Co1293 N1307 2.140 . S
C1294 O1295 1.227 . S
C1294 O1304 1.265 . S
O1295 C1294 1.227 . S
N1296 Co1293 2.121 . S
N1296 C1298 1.375 . S
N1296 C1299 1.313 . S
C1297 C1298 1.338 . S
C1297 N1300 1.377 . S
C1297 H1317 0.930 . S
C1298 N1296 1.375 . S
C1298 C1297 1.338 . S
C1298 H1302 0.931 . S
C1299 N1296 1.313 . S
C1299 N1300 1.344 . S
C1299 H1303 0.930 . S
N1300 C1297 1.377 . S
N1300 C1299 1.344 . S
O1301 Co1293 2.055 . S
O1301 C1305 1.253 . S
H1302 C1298 0.931 . S
H1303 C1299 0.930 . S
O1304 Co1293 2.039 . S
O1304 C1294 1.265 . S
C1305 O1301 1.253 . S
C1305 O1306 1.227 . S
O1306 C1305 1.227 . S
N1307 Co1293 2.140 . S
N1307 C1310 1.346 . S
N1307 C1311 1.345 . S
C1308 C1309 1.387 . S
C1308 C1312 1.391 . S
C1309 C1308 1.387 . S
C1309 C1310 1.369 . S
C1309 H1318 0.929 . S
C1310 N1307 1.346 . S
C1310 C1309 1.369 . S
C1310 H1313 0.928 . S
C1311 N1307 1.345 . S
C1311 C1312 1.371 . S
C1311 H1314 0.931 . S
C1312 C1308 1.391 . S
C1312 C1311 1.371 . S
C1312 H1319 0.930 . S
H1313 C1310 0.928 . S
H1314 C1311 0.931 . S
H1315 C1291 0.930 . S
H1316 C1288 0.930 . S
H1317 C1297 0.930 . S
H1318 C1309 0.929 . S
H1319 C1312 0.930 . S
C1320 C1321 1.351 . S
C1320 N1323 1.368 . S
C1320 H1325 0.931 . S
C1321 C1320 1.351 . S
C1321 N1322 1.373 . S
C1321 H1349 0.930 . S
N1322 C1321 1.373 . S
N1322 C1324 1.340 . S
N1323 C1320 1.368 . S
N1323 C1324 1.321 . S
N1323 Co1326 2.135 . S
C1324 N1322 1.340 . S
C1324 N1323 1.321 . S
C1324 H1348 0.930 . S
H1325 C1320 0.931 . S
Co1326 N1323 2.135 . S
Co1326 N1329 2.121 . S
Co1326 O1334 2.055 . S
Co1326 O1337 2.039 . S
Co1326 N1340 2.140 . S
C1327 O1328 1.227 . S
C1327 O1337 1.265 . S
O1328 C1327 1.227 . S
N1329 Co1326 2.121 . S
N1329 C1331 1.375 . S
N1329 C1332 1.313 . S
C1330 C1331 1.338 . S
C1330 N1333 1.377 . S
C1330 H1350 0.930 . S
C1331 N1329 1.375 . S
C1331 C1330 1.338 . S
C1331 H1335 0.931 . S
C1332 N1329 1.313 . S
C1332 N1333 1.344 . S
C1332 H1336 0.930 . S
N1333 C1330 1.377 . S
N1333 C1332 1.344 . S
O1334 Co1326 2.055 . S
O1334 C1338 1.253 . S
H1335 C1331 0.931 . S
H1336 C1332 0.930 . S
O1337 Co1326 2.039 . S
O1337 C1327 1.265 . S
C1338 O1334 1.253 . S
C1338 O1339 1.227 . S
O1339 C1338 1.227 . S
N1340 Co1326 2.140 . S
N1340 C1343 1.346 . S
N1340 C1344 1.345 . S
C1341 C1342 1.387 . S
C1341 C1345 1.391 . S
C1342 C1341 1.387 . S
C1342 C1343 1.369 . S
C1342 H1351 0.929 . S
C1343 N1340 1.346 . S
C1343 C1342 1.369 . S
C1343 H1346 0.928 . S
C1344 N1340 1.345 . S
C1344 C1345 1.371 . S
C1344 H1347 0.931 . S
C1345 C1341 1.391 . S
C1345 C1344 1.371 . S
C1345 H1352 0.930 . S
H1346 C1343 0.928 . S
H1347 C1344 0.931 . S
H1348 C1324 0.930 . S
H1349 C1321 0.930 . S
H1350 C1330 0.930 . S
H1351 C1342 0.929 . S
H1352 C1345 0.930 . S
C1353 C1354 1.351 . S
C1353 N1356 1.368 . S
C1353 H1358 0.931 . S
C1354 C1353 1.351 . S
C1354 N1355 1.373 . S
C1354 H1382 0.930 . S
N1355 C1354 1.373 . S
N1355 C1357 1.340 . S
N1356 C1353 1.368 . S
N1356 C1357 1.321 . S
N1356 Co1359 2.135 . S
C1357 N1355 1.340 . S
C1357 N1356 1.321 . S
C1357 H1381 0.930 . S
H1358 C1353 0.931 . S
Co1359 N1356 2.135 . S
Co1359 N1362 2.121 . S
Co1359 O1367 2.055 . S
Co1359 O1370 2.039 . S
Co1359 N1373 2.140 . S
C1360 O1361 1.227 . S
C1360 O1370 1.265 . S
O1361 C1360 1.227 . S
N1362 Co1359 2.121 . S
N1362 C1364 1.375 . S
N1362 C1365 1.313 . S
C1363 C1364 1.338 . S
C1363 N1366 1.377 . S
C1363 H1383 0.930 . S
C1364 N1362 1.375 . S
C1364 C1363 1.338 . S
C1364 H1368 0.931 . S
C1365 N1362 1.313 . S
C1365 N1366 1.344 . S
C1365 H1369 0.930 . S
N1366 C1363 1.377 . S
N1366 C1365 1.344 . S
O1367 Co1359 2.055 . S
O1367 C1371 1.253 . S
H1368 C1364 0.931 . S
H1369 C1365 0.930 . S
O1370 Co1359 2.039 . S
O1370 C1360 1.265 . S
C1371 O1367 1.253 . S
C1371 O1372 1.227 . S
O1372 C1371 1.227 . S
N1373 Co1359 2.140 . S
N1373 C1376 1.346 . S
N1373 C1377 1.345 . S
C1374 C1375 1.387 . S
C1374 C1378 1.391 . S
C1375 C1374 1.387 . S
C1375 C1376 1.369 . S
C1375 H1384 0.929 . S
C1376 N1373 1.346 . S
C1376 C1375 1.369 . S
C1376 H1379 0.928 . S
C1377 N1373 1.345 . S
C1377 C1378 1.371 . S
C1377 H1380 0.931 . S
C1378 C1374 1.391 . S
C1378 C1377 1.371 . S
C1378 H1385 0.930 . S
H1379 C1376 0.928 . S
H1380 C1377 0.931 . S
H1381 C1357 0.930 . S
H1382 C1354 0.930 . S
H1383 C1363 0.930 . S
H1384 C1375 0.929 . S
H1385 C1378 0.930 . S
C1386 C1387 1.351 . S
C1386 N1389 1.368 . S
C1386 H1391 0.931 . S
C1387 C1386 1.351 . S
C1387 N1388 1.373 . S
C1387 H1415 0.930 . S
N1388 C1387 1.373 . S
N1388 C1390 1.340 . S
N1389 C1386 1.368 . S
N1389 C1390 1.321 . S
N1389 Co1392 2.135 . S
C1390 N1388 1.340 . S
C1390 N1389 1.321 . S
C1390 H1414 0.930 . S
H1391 C1386 0.931 . S
Co1392 N1389 2.135 . S
Co1392 N1395 2.121 . S
Co1392 O1400 2.055 . S
Co1392 O1403 2.039 . S
Co1392 N1406 2.140 . S
C1393 O1394 1.227 . S
C1393 O1403 1.265 . S
O1394 C1393 1.227 . S
N1395 Co1392 2.121 . S
N1395 C1397 1.375 . S
N1395 C1398 1.313 . S
C1396 C1397 1.338 . S
C1396 N1399 1.377 . S
C1396 H1416 0.930 . S
C1397 N1395 1.375 . S
C1397 C1396 1.338 . S
C1397 H1401 0.931 . S
C1398 N1395 1.313 . S
C1398 N1399 1.344 . S
C1398 H1402 0.930 . S
N1399 C1396 1.377 . S
N1399 C1398 1.344 . S
O1400 Co1392 2.055 . S
O1400 C1404 1.253 . S
H1401 C1397 0.931 . S
H1402 C1398 0.930 . S
O1403 Co1392 2.039 . S
O1403 C1393 1.265 . S
C1404 O1400 1.253 . S
C1404 O1405 1.227 . S
O1405 C1404 1.227 . S
N1406 Co1392 2.140 . S
N1406 C1409 1.346 . S
N1406 C1410 1.345 . S
C1407 C1408 1.387 . S
C1407 C1411 1.391 . S
C1408 C1407 1.387 . S
C1408 C1409 1.369 . S
C1408 H1417 0.929 . S
C1409 N1406 1.346 . S
C1409 C1408 1.369 . S
C1409 H1412 0.928 . S
C1410 N1406 1.345 . S
C1410 C1411 1.371 . S
C1410 H1413 0.931 . S
C1411 C1407 1.391 . S
C1411 C1410 1.371 . S
C1411 H1418 0.930 . S
H1412 C1409 0.928 . S
H1413 C1410 0.931 . S
H1414 C1390 0.930 . S
H1415 C1387 0.930 . S
H1416 C1396 0.930 . S
H1417 C1408 0.929 . S
H1418 C1411 0.930 . S
C1419 C1420 1.351 . S
C1419 N1422 1.368 . S
C1419 H1424 0.931 . S
C1420 C1419 1.351 . S
C1420 N1421 1.373 . S
C1420 H1448 0.930 . S
N1421 C1420 1.373 . S
N1421 C1423 1.340 . S
N1422 C1419 1.368 . S
N1422 C1423 1.321 . S
N1422 Co1425 2.135 . S
C1423 N1421 1.340 . S
C1423 N1422 1.321 . S
C1423 H1447 0.930 . S
H1424 C1419 0.931 . S
Co1425 N1422 2.135 . S
Co1425 N1428 2.121 . S
Co1425 O1433 2.055 . S
Co1425 O1436 2.039 . S
Co1425 N1439 2.140 . S
C1426 O1427 1.227 . S
C1426 O1436 1.265 . S
O1427 C1426 1.227 . S
N1428 Co1425 2.121 . S
N1428 C1430 1.375 . S
N1428 C1431 1.313 . S
C1429 C1430 1.338 . S
C1429 N1432 1.377 . S
C1429 H1449 0.930 . S
C1430 N1428 1.375 . S
C1430 C1429 1.338 . S
C1430 H1434 0.931 . S
C1431 N1428 1.313 . S
C1431 N1432 1.344 . S
C1431 H1435 0.930 . S
N1432 C1429 1.377 . S
N1432 C1431 1.344 . S
O1433 Co1425 2.055 . S
O1433 C1437 1.253 . S
H1434 C1430 0.931 . S
H1435 C1431 0.930 . S
O1436 Co1425 2.039 . S
O1436 C1426 1.265 . S
C1437 O1433 1.253 . S
C1437 O1438 1.227 . S
O1438 C1437 1.227 . S
N1439 Co1425 2.140 . S
N1439 C1442 1.346 . S
N1439 C1443 1.345 . S
C1440 C1441 1.387 . S
C1440 C1444 1.391 . S
C1441 C1440 1.387 . S
C1441 C1442 1.369 . S
C1441 H1450 0.929 . S
C1442 N1439 1.346 . S
C1442 C1441 1.369 . S
C1442 H1445 0.928 . S
C1443 N1439 1.345 . S
C1443 C1444 1.371 . S
C1443 H1446 0.931 . S
C1444 C1440 1.391 . S
C1444 C1443 1.371 . S
C1444 H1451 0.930 . S
H1445 C1442 0.928 . S
H1446 C1443 0.931 . S
H1447 C1423 0.930 . S
H1448 C1420 0.930 . S
H1449 C1429 0.930 . S
H1450 C1441 0.929 . S
H1451 C1444 0.930 . S
C1452 C1453 1.351 . S
C1452 N1455 1.368 . S
C1452 H1457 0.931 . S
C1453 C1452 1.351 . S
C1453 N1454 1.373 . S
C1453 H1481 0.930 . S
N1454 C1453 1.373 . S
N1454 C1456 1.340 . S
N1455 C1452 1.368 . S
N1455 C1456 1.321 . S
N1455 Co1458 2.135 . S
C1456 N1454 1.340 . S
C1456 N1455 1.321 . S
C1456 H1480 0.930 . S
H1457 C1452 0.931 . S
Co1458 N1455 2.135 . S
Co1458 N1461 2.121 1_655 S
Co1458 O1466 2.055 . S
Co1458 O1469 2.039 1_655 S
Co1458 N1472 2.140 . S
C1459 O1460 1.227 . S
C1459 O1469 1.265 . S
O1460 C1459 1.227 . S
N1461 Co1458 2.121 1_455 S
N1461 C1463 1.375 . S
N1461 C1464 1.313 . S
C1462 C1463 1.338 . S
C1462 N1465 1.377 . S
C1462 H1482 0.930 . S
C1463 N1461 1.375 . S
C1463 C1462 1.338 . S
C1463 H1467 0.931 . S
C1464 N1461 1.313 . S
C1464 N1465 1.344 . S
C1464 H1468 0.930 1_455 S
N1465 C1462 1.377 . S
N1465 C1464 1.344 . S
O1466 Co1458 2.055 . S
O1466 C1470 1.253 . S
H1467 C1463 0.931 . S
H1468 C1464 0.930 1_655 S
O1469 Co1458 2.039 1_455 S
O1469 C1459 1.265 . S
C1470 O1466 1.253 . S
C1470 O1471 1.227 . S
O1471 C1470 1.227 . S
N1472 Co1458 2.140 . S
N1472 C1475 1.346 . S
N1472 C1476 1.345 . S
C1473 C1474 1.387 . S
C1473 C1477 1.391 . S
C1474 C1473 1.387 . S
C1474 C1475 1.369 . S
C1474 H1483 0.929 . S
C1475 N1472 1.346 . S
C1475 C1474 1.369 . S
C1475 H1478 0.928 . S
C1476 N1472 1.345 . S
C1476 C1477 1.371 . S
C1476 H1479 0.931 . S
C1477 C1473 1.391 . S
C1477 C1476 1.371 . S
C1477 H1484 0.930 . S
H1478 C1475 0.928 . S
H1479 C1476 0.931 . S
H1480 C1456 0.930 . S
H1481 C1453 0.930 . S
H1482 C1462 0.930 . S
H1483 C1474 0.929 . S
H1484 C1477 0.930 . S
C1485 C1486 1.351 . S
C1485 N1488 1.368 . S
C1485 H1490 0.931 . S
C1486 C1485 1.351 . S
C1486 N1487 1.373 . S
C1486 H1514 0.930 . S
N1487 C1486 1.373 . S
N1487 C1489 1.340 . S
N1488 C1485 1.368 . S
N1488 C1489 1.321 . S
N1488 Co1491 2.135 . S
C1489 N1487 1.340 . S
C1489 N1488 1.321 . S
C1489 H1513 0.930 . S
H1490 C1485 0.931 . S
Co1491 N1488 2.135 . S
Co1491 N1494 2.121 . S
Co1491 O1499 2.055 . S
Co1491 O1502 2.039 . S
Co1491 N1505 2.140 . S
C1492 O1493 1.227 . S
C1492 O1502 1.265 . S
O1493 C1492 1.227 . S
N1494 Co1491 2.121 . S
N1494 C1496 1.375 . S
N1494 C1497 1.313 . S
C1495 C1496 1.338 . S
C1495 N1498 1.377 . S
C1495 H1515 0.930 . S
C1496 N1494 1.375 . S
C1496 C1495 1.338 . S
C1496 H1500 0.931 . S
C1497 N1494 1.313 . S
C1497 N1498 1.344 . S
C1497 H1501 0.930 . S
N1498 C1495 1.377 . S
N1498 C1497 1.344 . S
O1499 Co1491 2.055 . S
O1499 C1503 1.253 . S
H1500 C1496 0.931 . S
H1501 C1497 0.930 . S
O1502 Co1491 2.039 . S
O1502 C1492 1.265 . S
C1503 O1499 1.253 . S
C1503 O1504 1.227 . S
O1504 C1503 1.227 . S
N1505 Co1491 2.140 . S
N1505 C1508 1.346 . S
N1505 C1509 1.345 . S
C1506 C1507 1.387 . S
C1506 C1510 1.391 . S
C1507 C1506 1.387 . S
C1507 C1508 1.369 . S
C1507 H1516 0.929 . S
C1508 N1505 1.346 . S
C1508 C1507 1.369 . S
C1508 H1511 0.928 . S
C1509 N1505 1.345 . S
C1509 C1510 1.371 . S
C1509 H1512 0.931 . S
C1510 C1506 1.391 . S
C1510 C1509 1.371 . S
C1510 H1517 0.930 . S
H1511 C1508 0.928 . S
H1512 C1509 0.931 . S
H1513 C1489 0.930 . S
H1514 C1486 0.930 . S
H1515 C1495 0.930 . S
H1516 C1507 0.929 . S
H1517 C1510 0.930 . S
C1518 C1519 1.351 . S
C1518 N1521 1.368 . S
C1518 H1523 0.931 . S
C1519 C1518 1.351 . S
C1519 N1520 1.373 . S
C1519 H1547 0.930 . S
N1520 C1519 1.373 . S
N1520 C1522 1.340 . S
N1521 C1518 1.368 . S
N1521 C1522 1.321 . S
N1521 Co1524 2.135 . S
C1522 N1520 1.340 . S
C1522 N1521 1.321 . S
C1522 H1546 0.930 . S
H1523 C1518 0.931 . S
Co1524 N1521 2.135 . S
Co1524 N1527 2.121 . S
Co1524 O1532 2.055 . S
Co1524 O1535 2.039 . S
Co1524 N1538 2.140 . S
C1525 O1526 1.227 . S
C1525 O1535 1.265 . S
O1526 C1525 1.227 . S
N1527 Co1524 2.121 . S
N1527 C1529 1.375 . S
N1527 C1530 1.313 . S
C1528 C1529 1.338 . S
C1528 N1531 1.377 . S
C1528 H1548 0.930 . S
C1529 N1527 1.375 . S
C1529 C1528 1.338 . S
C1529 H1533 0.931 . S
C1530 N1527 1.313 . S
C1530 N1531 1.344 . S
C1530 H1534 0.930 . S
N1531 C1528 1.377 . S
N1531 C1530 1.344 . S
O1532 Co1524 2.055 . S
O1532 C1536 1.253 . S
H1533 C1529 0.931 . S
H1534 C1530 0.930 . S
O1535 Co1524 2.039 . S
O1535 C1525 1.265 . S
C1536 O1532 1.253 . S
C1536 O1537 1.227 . S
O1537 C1536 1.227 . S
N1538 Co1524 2.140 . S
N1538 C1541 1.346 . S
N1538 C1542 1.345 . S
C1539 C1540 1.387 . S
C1539 C1543 1.391 . S
C1540 C1539 1.387 . S
C1540 C1541 1.369 . S
C1540 H1549 0.929 . S
C1541 N1538 1.346 . S
C1541 C1540 1.369 . S
C1541 H1544 0.928 . S
C1542 N1538 1.345 . S
C1542 C1543 1.371 . S
C1542 H1545 0.931 . S
C1543 C1539 1.391 . S
C1543 C1542 1.371 . S
C1543 H1550 0.930 . S
H1544 C1541 0.928 . S
H1545 C1542 0.931 . S
H1546 C1522 0.930 . S
H1547 C1519 0.930 . S
H1548 C1528 0.930 . S
H1549 C1540 0.929 . S
H1550 C1543 0.930 . S
C1551 C1552 1.351 . S
C1551 N1554 1.368 . S
C1551 H1556 0.931 . S
C1552 C1551 1.351 . S
C1552 N1553 1.373 . S
C1552 H1580 0.930 . S
N1553 C1552 1.373 . S
N1553 C1555 1.340 . S
N1554 C1551 1.368 . S
N1554 C1555 1.321 . S
N1554 Co1557 2.135 . S
C1555 N1553 1.340 . S
C1555 N1554 1.321 . S
C1555 H1579 0.930 . S
H1556 C1551 0.931 . S
Co1557 N1554 2.135 . S
Co1557 N1560 2.121 . S
Co1557 O1565 2.055 . S
Co1557 O1568 2.039 . S
Co1557 N1571 2.140 . S
C1558 O1559 1.227 . S
C1558 O1568 1.265 . S
O1559 C1558 1.227 . S
N1560 Co1557 2.121 . S
N1560 C1562 1.375 . S
N1560 C1563 1.313 . S
C1561 C1562 1.338 . S
C1561 N1564 1.377 . S
C1561 H1581 0.930 . S
C1562 N1560 1.375 . S
C1562 C1561 1.338 . S
C1562 H1566 0.931 . S
C1563 N1560 1.313 . S
C1563 N1564 1.344 . S
C1563 H1567 0.930 . S
N1564 C1561 1.377 . S
N1564 C1563 1.344 . S
O1565 Co1557 2.055 . S
O1565 C1569 1.253 . S
H1566 C1562 0.931 . S
H1567 C1563 0.930 . S
O1568 Co1557 2.039 . S
O1568 C1558 1.265 . S
C1569 O1565 1.253 . S
C1569 O1570 1.227 . S
O1570 C1569 1.227 . S
N1571 Co1557 2.140 . S
N1571 C1574 1.346 . S
N1571 C1575 1.345 . S
C1572 C1573 1.387 . S
C1572 C1576 1.391 . S
C1573 C1572 1.387 . S
C1573 C1574 1.369 . S
C1573 H1582 0.929 . S
C1574 N1571 1.346 . S
C1574 C1573 1.369 . S
C1574 H1577 0.928 . S
C1575 N1571 1.345 . S
C1575 C1576 1.371 . S
C1575 H1578 0.931 . S
C1576 C1572 1.391 . S
C1576 C1575 1.371 . S
C1576 H1583 0.930 . S
H1577 C1574 0.928 . S
H1578 C1575 0.931 . S
H1579 C1555 0.930 . S
H1580 C1552 0.930 . S
H1581 C1561 0.930 . S
H1582 C1573 0.929 . S
H1583 C1576 0.930 . S
C1584 C1585 1.369 . S
C1584 C1586 1.419 . S
C1584 H1588 0.930 . S
C1585 C1584 1.369 . S
C1585 C1594 1.429 . S
C1586 C1584 1.419 . S
C1586 C1587 1.363 . S
C1586 H1589 0.929 . S
C1587 C1586 1.363 . S
C1587 C1593 1.428 . S
H1588 C1584 0.930 . S
H1589 C1586 0.929 . S
S1590 N1591 1.613 . S
S1590 N1592 1.610 . S
N1591 S1590 1.613 . S
N1591 C1594 1.350 . S
N1592 S1590 1.610 . S
N1592 C1593 1.351 . S
C1593 C1587 1.428 . S
C1593 N1592 1.351 . S
C1593 C1594 1.434 . S
C1594 C1585 1.429 . S
C1594 N1591 1.350 . S
C1594 C1593 1.434 . S
C1595 C1596 1.369 . S
C1595 C1597 1.419 . S
C1595 H1599 0.930 . S
C1596 C1595 1.369 . S
C1596 C1605 1.429 . S
C1597 C1595 1.419 . S
C1597 C1598 1.363 . S
C1597 H1600 0.929 . S
C1598 C1597 1.363 . S
C1598 C1604 1.428 . S
H1599 C1595 0.930 . S
H1600 C1597 0.929 . S
S1601 N1602 1.613 . S
S1601 N1603 1.610 . S
N1602 S1601 1.613 . S
N1602 C1605 1.350 . S
N1603 S1601 1.610 . S
N1603 C1604 1.351 . S
C1604 C1598 1.428 . S
C1604 N1603 1.351 . S
C1604 C1605 1.434 . S
C1605 C1596 1.429 . S
C1605 N1602 1.350 . S
C1605 C1604 1.434 . S
C1606 C1607 1.369 . S
C1606 C1608 1.419 . S
C1606 H1610 0.930 . S
C1607 C1606 1.369 . S
C1607 C1616 1.429 . S
C1608 C1606 1.419 . S
C1608 C1609 1.363 . S
C1608 H1611 0.929 . S
C1609 C1608 1.363 . S
C1609 C1615 1.428 . S
H1610 C1606 0.930 . S
H1611 C1608 0.929 . S
S1612 N1613 1.613 . S
S1612 N1614 1.610 . S
N1613 S1612 1.613 . S
N1613 C1616 1.350 . S
N1614 S1612 1.610 . S
N1614 C1615 1.351 . S
C1615 C1609 1.428 . S
C1615 N1614 1.351 . S
C1615 C1616 1.434 . S
C1616 C1607 1.429 . S
C1616 N1613 1.350 . S
C1616 C1615 1.434 . S
C1617 C1618 1.369 . S
C1617 C1619 1.419 . S
C1617 H1621 0.930 . S
C1618 C1617 1.369 . S
C1618 C1627 1.429 . S
C1619 C1617 1.419 . S
C1619 C1620 1.363 . S
C1619 H1622 0.929 . S
C1620 C1619 1.363 . S
C1620 C1626 1.428 . S
H1621 C1617 0.930 . S
H1622 C1619 0.929 . S
S1623 N1624 1.613 . S
S1623 N1625 1.610 . S
N1624 S1623 1.613 . S
N1624 C1627 1.350 1_554 S
N1625 S1623 1.610 . S
N1625 C1626 1.351 1_554 S
C1626 C1620 1.428 . S
C1626 N1625 1.351 1_556 S
C1626 C1627 1.434 . S
C1627 C1618 1.429 . S
C1627 N1624 1.350 1_556 S
C1627 C1626 1.434 . S
C1628 C1629 1.369 . S
C1628 C1630 1.419 . S
C1628 H1632 0.930 . S
C1629 C1628 1.369 . S
C1629 C1638 1.429 . S
C1630 C1628 1.419 . S
C1630 C1631 1.363 . S
C1630 H1633 0.929 . S
C1631 C1630 1.363 . S
C1631 C1637 1.428 . S
H1632 C1628 0.930 . S
H1633 C1630 0.929 . S
S1634 N1635 1.613 . S
S1634 N1636 1.610 . S
N1635 S1634 1.613 . S
N1635 C1638 1.350 . S
N1636 S1634 1.610 . S
N1636 C1637 1.351 . S
C1637 C1631 1.428 . S
C1637 N1636 1.351 . S
C1637 C1638 1.434 . S
C1638 C1629 1.429 . S
C1638 N1635 1.350 . S
C1638 C1637 1.434 . S
C1639 C1640 1.369 . S
C1639 C1641 1.419 . S
C1639 H1643 0.930 . S
C1640 C1639 1.369 . S
C1640 C1649 1.429 . S
C1641 C1639 1.419 . S
C1641 C1642 1.363 . S
C1641 H1644 0.929 . S
C1642 C1641 1.363 . S
C1642 C1648 1.428 . S
H1643 C1639 0.930 . S
H1644 C1641 0.929 . S
S1645 N1646 1.613 . S
S1645 N1647 1.610 . S
N1646 S1645 1.613 . S
N1646 C1649 1.350 . S
N1647 S1645 1.610 . S
N1647 C1648 1.351 . S
C1648 C1642 1.428 . S
C1648 N1647 1.351 . S
C1648 C1649 1.434 . S
C1649 C1640 1.429 . S
C1649 N1646 1.350 . S
C1649 C1648 1.434 . S
C1650 C1651 1.369 . S
C1650 C1652 1.419 . S
C1650 H1654 0.930 . S
C1651 C1650 1.369 . S
C1651 C1660 1.429 . S
C1652 C1650 1.419 . S
C1652 C1653 1.363 . S
C1652 H1655 0.929 . S
C1653 C1652 1.363 . S
C1653 C1659 1.428 . S
H1654 C1650 0.930 . S
H1655 C1652 0.929 . S
S1656 N1657 1.613 . S
S1656 N1658 1.610 . S
N1657 S1656 1.613 . S
N1657 C1660 1.350 . S
N1658 S1656 1.610 . S
N1658 C1659 1.351 . S
C1659 C1653 1.428 . S
C1659 N1658 1.351 . S
C1659 C1660 1.434 . S
C1660 C1651 1.429 . S
C1660 N1657 1.350 . S
C1660 C1659 1.434 . S
C1661 C1662 1.369 . S
C1661 C1663 1.419 . S
C1661 H1665 0.930 . S
C1662 C1661 1.369 . S
C1662 C1671 1.429 . S
C1663 C1661 1.419 . S
C1663 C1664 1.363 . S
C1663 H1666 0.929 . S
C1664 C1663 1.363 . S
C1664 C1670 1.428 . S
H1665 C1661 0.930 . S
H1666 C1663 0.929 . S
S1667 N1668 1.613 . S
S1667 N1669 1.610 . S
N1668 S1667 1.613 . S
N1668 C1671 1.350 . S
N1669 S1667 1.610 . S
N1669 C1670 1.351 . S
C1670 C1664 1.428 . S
C1670 N1669 1.351 . S
C1670 C1671 1.434 . S
C1671 C1662 1.429 . S
C1671 N1668 1.350 . S
C1671 C1670 1.434 . S
C1672 C1673 1.369 . S
C1672 C1674 1.419 . S
C1672 H1676 0.930 . S
C1673 C1672 1.369 . S
C1673 C1682 1.429 . S
C1674 C1672 1.419 . S
C1674 C1675 1.363 . S
C1674 H1677 0.929 . S
C1675 C1674 1.363 . S
C1675 C1681 1.428 . S
H1676 C1672 0.930 . S
H1677 C1674 0.929 . S
S1678 N1679 1.613 . S
S1678 N1680 1.610 . S
N1679 S1678 1.613 . S
N1679 C1682 1.350 . S
N1680 S1678 1.610 . S
N1680 C1681 1.351 . S
C1681 C1675 1.428 . S
C1681 N1680 1.351 . S
C1681 C1682 1.434 . S
C1682 C1673 1.429 . S
C1682 N1679 1.350 . S
C1682 C1681 1.434 . S
C1683 C1684 1.369 . S
C1683 C1685 1.419 . S
C1683 H1687 0.930 . S
C1684 C1683 1.369 . S
C1684 C1693 1.429 . S
C1685 C1683 1.419 . S
C1685 C1686 1.363 . S
C1685 H1688 0.929 . S
C1686 C1685 1.363 . S
C1686 C1692 1.428 . S
H1687 C1683 0.930 . S
H1688 C1685 0.929 . S
S1689 N1690 1.613 . S
S1689 N1691 1.610 . S
N1690 S1689 1.613 . S
N1690 C1693 1.350 . S
N1691 S1689 1.610 . S
N1691 C1692 1.351 . S
C1692 C1686 1.428 . S
C1692 N1691 1.351 . S
C1692 C1693 1.434 . S
C1693 C1684 1.429 . S
C1693 N1690 1.350 . S
C1693 C1692 1.434 . S
C1694 C1695 1.369 . S
C1694 C1696 1.419 . S
C1694 H1698 0.930 . S
C1695 C1694 1.369 . S
C1695 C1704 1.429 . S
C1696 C1694 1.419 . S
C1696 C1697 1.363 . S
C1696 H1699 0.929 . S
C1697 C1696 1.363 . S
C1697 C1703 1.428 . S
H1698 C1694 0.930 . S
H1699 C1696 0.929 . S
S1700 N1701 1.613 . S
S1700 N1702 1.610 . S
N1701 S1700 1.613 . S
N1701 C1704 1.350 . S
N1702 S1700 1.610 . S
N1702 C1703 1.351 . S
C1703 C1697 1.428 . S
C1703 N1702 1.351 . S
C1703 C1704 1.434 . S
C1704 C1695 1.429 . S
C1704 N1701 1.350 . S
C1704 C1703 1.434 . S
C1705 C1706 1.369 . S
C1705 C1707 1.419 . S
C1705 H1709 0.930 . S
C1706 C1705 1.369 . S
C1706 C1715 1.429 . S
C1707 C1705 1.419 . S
C1707 C1708 1.363 . S
C1707 H1710 0.929 . S
C1708 C1707 1.363 . S
C1708 C1714 1.428 . S
H1709 C1705 0.930 . S
H1710 C1707 0.929 . S
S1711 N1712 1.613 1_554 S
S1711 N1713 1.610 . S
N1712 S1711 1.613 1_556 S
N1712 C1715 1.350 1_556 S
N1713 S1711 1.610 . S
N1713 C1714 1.351 . S
C1714 C1708 1.428 . S
C1714 N1713 1.351 . S
C1714 C1715 1.434 . S
C1715 C1706 1.429 . S
C1715 N1712 1.350 1_554 S
C1715 C1714 1.434 . S
C1716 C1717 1.369 . S
C1716 C1718 1.419 . S
C1716 H1720 0.930 . S
C1717 C1716 1.369 . S
C1717 C1726 1.429 . S
C1718 C1716 1.419 . S
C1718 C1719 1.363 . S
C1718 H1721 0.929 . S
C1719 C1718 1.363 . S
C1719 C1725 1.428 . S
H1720 C1716 0.930 . S
H1721 C1718 0.929 . S
S1722 N1723 1.613 . S
S1722 N1724 1.610 . S
N1723 S1722 1.613 . S
N1723 C1726 1.350 . S
N1724 S1722 1.610 . S
N1724 C1725 1.351 . S
C1725 C1719 1.428 . S
C1725 N1724 1.351 . S
C1725 C1726 1.434 . S
C1726 C1717 1.429 . S
C1726 N1723 1.350 . S
C1726 C1725 1.434 . S
C1727 C1728 1.369 . S
C1727 C1729 1.419 . S
C1727 H1731 0.930 . S
C1728 C1727 1.369 . S
C1728 C1737 1.429 . S
C1729 C1727 1.419 . S
C1729 C1730 1.363 . S
C1729 H1732 0.929 . S
C1730 C1729 1.363 . S
C1730 C1736 1.428 . S
H1731 C1727 0.930 . S
H1732 C1729 0.929 . S
S1733 N1734 1.613 . S
S1733 N1735 1.610 1_556 S
N1734 S1733 1.613 . S
N1734 C1737 1.350 . S
N1735 S1733 1.610 1_554 S
N1735 C1736 1.351 1_554 S
C1736 C1730 1.428 . S
C1736 N1735 1.351 1_556 S
C1736 C1737 1.434 . S
C1737 C1728 1.429 . S
C1737 N1734 1.350 . S
C1737 C1736 1.434 . S
C1738 C1739 1.369 . S
C1738 C1740 1.419 . S
C1738 H1742 0.930 . S
C1739 C1738 1.369 . S
C1739 C1748 1.429 . S
C1740 C1738 1.419 . S
C1740 C1741 1.363 . S
C1740 H1743 0.929 . S
C1741 C1740 1.363 . S
C1741 C1747 1.428 . S
H1742 C1738 0.930 . S
H1743 C1740 0.929 . S
S1744 N1745 1.613 . S
S1744 N1746 1.610 . S
N1745 S1744 1.613 . S
N1745 C1748 1.350 . S
N1746 S1744 1.610 . S
N1746 C1747 1.351 . S
C1747 C1741 1.428 . S
C1747 N1746 1.351 . S
C1747 C1748 1.434 . S
C1748 C1739 1.429 . S
C1748 N1745 1.350 . S
C1748 C1747 1.434 . S
C1749 C1750 1.369 . S
C1749 C1751 1.419 . S
C1749 H1753 0.930 . S
C1750 C1749 1.369 . S
C1750 C1759 1.429 . S
C1751 C1749 1.419 . S
C1751 C1752 1.363 . S
C1751 H1754 0.929 . S
C1752 C1751 1.363 . S
C1752 C1758 1.428 . S
H1753 C1749 0.930 . S
H1754 C1751 0.929 . S
S1755 N1756 1.613 1_556 S
S1755 N1757 1.610 . S
N1756 S1755 1.613 1_554 S
N1756 C1759 1.350 1_554 S
N1757 S1755 1.610 . S
N1757 C1758 1.351 . S
C1758 C1752 1.428 . S
C1758 N1757 1.351 . S
C1758 C1759 1.434 . S
C1759 C1750 1.429 . S
C1759 N1756 1.350 1_556 S
C1759 C1758 1.434 . S
C1760 C1761 1.369 . S
C1760 C1762 1.419 . S
C1760 H1764 0.930 . S
C1761 C1760 1.369 . S
C1761 C1770 1.429 . S
C1762 C1760 1.419 . S
C1762 C1763 1.363 . S
C1762 H1765 0.929 . S
C1763 C1762 1.363 . S
C1763 C1769 1.428 . S
H1764 C1760 0.930 . S
H1765 C1762 0.929 . S
S1766 N1767 1.613 . S
S1766 N1768 1.610 . S
N1767 S1766 1.613 . S
N1767 C1770 1.350 . S
N1768 S1766 1.610 . S
N1768 C1769 1.351 . S
C1769 C1763 1.428 . S
C1769 N1768 1.351 . S
C1769 C1770 1.434 . S
C1770 C1761 1.429 . S
C1770 N1767 1.350 . S
C1770 C1769 1.434 . S
C1771 C1772 1.369 . S
C1771 C1773 1.419 . S
C1771 H1775 0.930 . S
C1772 C1771 1.369 . S
C1772 C1781 1.429 . S
C1773 C1771 1.419 . S
C1773 C1774 1.363 . S
C1773 H1776 0.929 . S
C1774 C1773 1.363 . S
C1774 C1780 1.428 . S
H1775 C1771 0.930 . S
H1776 C1773 0.929 . S
S1777 N1778 1.613 . S
S1777 N1779 1.610 . S
N1778 S1777 1.613 . S
N1778 C1781 1.350 . S
N1779 S1777 1.610 . S
N1779 C1780 1.351 . S
C1780 C1774 1.428 . S
C1780 N1779 1.351 . S
C1780 C1781 1.434 . S
C1781 C1772 1.429 . S
C1781 N1778 1.350 . S
C1781 C1780 1.434 . S
C1782 C1783 1.369 . S
C1782 C1784 1.419 . S
C1782 H1786 0.930 . S
C1783 C1782 1.369 . S
C1783 C1792 1.429 . S
C1784 C1782 1.419 . S
C1784 C1785 1.363 . S
C1784 H1787 0.929 . S
C1785 C1784 1.363 . S
C1785 C1791 1.428 . S
H1786 C1782 0.930 . S
H1787 C1784 0.929 . S
S1788 N1789 1.613 . S
S1788 N1790 1.610 . S
N1789 S1788 1.613 . S
N1789 C1792 1.350 . S
N1790 S1788 1.610 . S
N1790 C1791 1.351 . S
C1791 C1785 1.428 . S
C1791 N1790 1.351 . S
C1791 C1792 1.434 . S
C1792 C1783 1.429 . S
C1792 N1789 1.350 . S
C1792 C1791 1.434 . S
C1793 C1794 1.369 . S
C1793 C1795 1.419 . S
C1793 H1797 0.930 . S
C1794 C1793 1.369 . S
C1794 C1803 1.429 . S
C1795 C1793 1.419 . S
C1795 C1796 1.363 . S
C1795 H1798 0.929 . S
C1796 C1795 1.363 . S
C1796 C1802 1.428 . S
H1797 C1793 0.930 . S
H1798 C1795 0.929 . S
S1799 N1800 1.613 . S
S1799 N1801 1.610 . S
N1800 S1799 1.613 . S
N1800 C1803 1.350 . S
N1801 S1799 1.610 . S
N1801 C1802 1.351 . S
C1802 C1796 1.428 . S
C1802 N1801 1.351 . S
C1802 C1803 1.434 . S
C1803 C1794 1.429 . S
C1803 N1800 1.350 . S
C1803 C1802 1.434 . S
C1804 C1805 1.369 . S
C1804 C1806 1.419 . S
C1804 H1808 0.930 . S
C1805 C1804 1.369 . S
C1805 C1814 1.429 . S
C1806 C1804 1.419 . S
C1806 C1807 1.363 . S
C1806 H1809 0.929 . S
C1807 C1806 1.363 . S
C1807 C1813 1.428 . S
H1808 C1804 0.930 . S
H1809 C1806 0.929 . S
S1810 N1811 1.613 . S
S1810 N1812 1.610 . S
N1811 S1810 1.613 . S
N1811 C1814 1.350 . S
N1812 S1810 1.610 . S
N1812 C1813 1.351 . S
C1813 C1807 1.428 . S
C1813 N1812 1.351 . S
C1813 C1814 1.434 . S
C1814 C1805 1.429 . S
C1814 N1811 1.350 . S
C1814 C1813 1.434 . S
C1815 C1816 1.369 . S
C1815 C1817 1.419 . S
C1815 H1819 0.930 . S
C1816 C1815 1.369 . S
C1816 C1825 1.429 . S
C1817 C1815 1.419 . S
C1817 C1818 1.363 . S
C1817 H1820 0.929 . S
C1818 C1817 1.363 . S
C1818 C1824 1.428 . S
H1819 C1815 0.930 . S
H1820 C1817 0.929 . S
S1821 N1822 1.613 . S
S1821 N1823 1.610 . S
N1822 S1821 1.613 . S
N1822 C1825 1.350 . S
N1823 S1821 1.610 . S
N1823 C1824 1.351 . S
C1824 C1818 1.428 . S
C1824 N1823 1.351 . S
C1824 C1825 1.434 . S
C1825 C1816 1.429 . S
C1825 N1822 1.350 . S
C1825 C1824 1.434 . S
C1826 C1827 1.369 . S
C1826 C1828 1.419 . S
C1826 H1830 0.930 . S
C1827 C1826 1.369 . S
C1827 C1836 1.429 . S
C1828 C1826 1.419 . S
C1828 C1829 1.363 . S
C1828 H1831 0.929 . S
C1829 C1828 1.363 . S
C1829 C1835 1.428 . S
H1830 C1826 0.930 . S
H1831 C1828 0.929 . S
S1832 N1833 1.613 . S
S1832 N1834 1.610 . S
N1833 S1832 1.613 . S
N1833 C1836 1.350 . S
N1834 S1832 1.610 . S
N1834 C1835 1.351 . S
C1835 C1829 1.428 . S
C1835 N1834 1.351 . S
C1835 C1836 1.434 . S
C1836 C1827 1.429 . S
C1836 N1833 1.350 . S
C1836 C1835 1.434 . S
C1837 C1838 1.369 . S
C1837 C1839 1.419 . S
C1837 H1841 0.930 . S
C1838 C1837 1.369 . S
C1838 C1847 1.429 . S
C1839 C1837 1.419 . S
C1839 C1840 1.363 . S
C1839 H1842 0.929 . S
C1840 C1839 1.363 . S
C1840 C1846 1.428 . S
H1841 C1837 0.930 . S
H1842 C1839 0.929 . S
S1843 N1844 1.613 1_545 S
S1843 N1845 1.610 . S
N1844 S1843 1.613 1_565 S
N1844 C1847 1.350 1_565 S
N1845 S1843 1.610 . S
N1845 C1846 1.351 . S
C1846 C1840 1.428 . S
C1846 N1845 1.351 . S
C1846 C1847 1.434 . S
C1847 C1838 1.429 . S
C1847 N1844 1.350 1_545 S
C1847 C1846 1.434 . S
C1848 C1849 1.369 . S
C1848 C1850 1.419 . S
C1848 H1852 0.930 . S
C1849 C1848 1.369 . S
C1849 C1858 1.429 . S
C1850 C1848 1.419 . S
C1850 C1851 1.363 . S
C1850 H1853 0.929 . S
C1851 C1850 1.363 . S
C1851 C1857 1.428 . S
H1852 C1848 0.930 . S
H1853 C1850 0.929 . S
S1854 N1855 1.613 . S
S1854 N1856 1.610 . S
N1855 S1854 1.613 . S
N1855 C1858 1.350 . S
N1856 S1854 1.610 . S
N1856 C1857 1.351 . S
C1857 C1851 1.428 . S
C1857 N1856 1.351 . S
C1857 C1858 1.434 . S
C1858 C1849 1.429 . S
C1858 N1855 1.350 . S
C1858 C1857 1.434 . S
C1859 C1860 1.369 . S
C1859 C1861 1.419 . S
C1859 H1863 0.930 . S
C1860 C1859 1.369 . S
C1860 C1869 1.429 . S
C1861 C1859 1.419 . S
C1861 C1862 1.363 . S
C1861 H1864 0.929 . S
C1862 C1861 1.363 . S
C1862 C1868 1.428 . S
H1863 C1859 0.930 . S
H1864 C1861 0.929 . S
S1865 N1866 1.613 . S
S1865 N1867 1.610 . S
N1866 S1865 1.613 . S
N1866 C1869 1.350 . S
N1867 S1865 1.610 . S
N1867 C1868 1.351 . S
C1868 C1862 1.428 . S
C1868 N1867 1.351 . S
C1868 C1869 1.434 . S
C1869 C1860 1.429 . S
C1869 N1866 1.350 . S
C1869 C1868 1.434 . S
C1870 C1871 1.369 . S
C1870 C1872 1.419 . S
C1870 H1874 0.930 . S
C1871 C1870 1.369 . S
C1871 C1880 1.429 . S
C1872 C1870 1.419 . S
C1872 C1873 1.363 . S
C1872 H1875 0.929 . S
C1873 C1872 1.363 . S
C1873 C1879 1.428 . S
H1874 C1870 0.930 . S
H1875 C1872 0.929 . S
S1876 N1877 1.613 . S
S1876 N1878 1.610 . S
N1877 S1876 1.613 . S
N1877 C1880 1.350 . S
N1878 S1876 1.610 . S
N1878 C1879 1.351 . S
C1879 C1873 1.428 . S
C1879 N1878 1.351 . S
C1879 C1880 1.434 . S
C1880 C1871 1.429 . S
C1880 N1877 1.350 . S
C1880 C1879 1.434 . S
C1881 C1882 1.369 . S
C1881 C1883 1.419 . S
C1881 H1885 0.930 . S
C1882 C1881 1.369 . S
C1882 C1891 1.429 . S
C1883 C1881 1.419 . S
C1883 C1884 1.363 . S
C1883 H1886 0.929 . S
C1884 C1883 1.363 . S
C1884 C1890 1.428 . S
H1885 C1881 0.930 . S
H1886 C1883 0.929 . S
S1887 N1888 1.613 1_455 S
S1887 N1889 1.610 . S
N1888 S1887 1.613 1_655 S
N1888 C1891 1.350 1_655 S
N1889 S1887 1.610 . S
N1889 C1890 1.351 . S
C1890 C1884 1.428 . S
C1890 N1889 1.351 . S
C1890 C1891 1.434 . S
C1891 C1882 1.429 . S
C1891 N1888 1.350 1_455 S
C1891 C1890 1.434 . S
C1892 C1893 1.369 . S
C1892 C1894 1.419 . S
C1892 H1896 0.930 . S
C1893 C1892 1.369 . S
C1893 C1902 1.429 . S
C1894 C1892 1.419 . S
C1894 C1895 1.363 . S
C1894 H1897 0.929 . S
C1895 C1894 1.363 . S
C1895 C1901 1.428 . S
H1896 C1892 0.930 . S
H1897 C1894 0.929 . S
S1898 N1899 1.613 . S
S1898 N1900 1.610 . S
N1899 S1898 1.613 . S
N1899 C1902 1.350 . S
N1900 S1898 1.610 . S
N1900 C1901 1.351 . S
C1901 C1895 1.428 . S
C1901 N1900 1.351 . S
C1901 C1902 1.434 . S
C1902 C1893 1.429 . S
C1902 N1899 1.350 . S
C1902 C1901 1.434 . S
C1903 C1904 1.369 . S
C1903 C1905 1.419 . S
C1903 H1907 0.930 . S
C1904 C1903 1.369 . S
C1904 C1913 1.429 . S
C1905 C1903 1.419 . S
C1905 C1906 1.363 . S
C1905 H1908 0.929 . S
C1906 C1905 1.363 . S
C1906 C1912 1.428 . S
H1907 C1903 0.930 . S
H1908 C1905 0.929 . S
S1909 N1910 1.613 . S
S1909 N1911 1.610 . S
N1910 S1909 1.613 . S
N1910 C1913 1.350 . S
N1911 S1909 1.610 . S
N1911 C1912 1.351 . S
C1912 C1906 1.428 . S
C1912 N1911 1.351 . S
C1912 C1913 1.434 . S
C1913 C1904 1.429 . S
C1913 N1910 1.350 . S
C1913 C1912 1.434 . S
C1914 C1915 1.369 . S
C1914 C1916 1.419 . S
C1914 H1918 0.930 . S
C1915 C1914 1.369 . S
C1915 C1924 1.429 . S
C1916 C1914 1.419 . S
C1916 C1917 1.363 . S
C1916 H1919 0.929 . S
C1917 C1916 1.363 . S
C1917 C1923 1.428 . S
H1918 C1914 0.930 . S
H1919 C1916 0.929 . S
S1920 N1921 1.613 . S
S1920 N1922 1.610 . S
N1921 S1920 1.613 . S
N1921 C1924 1.350 . S
N1922 S1920 1.610 . S
N1922 C1923 1.351 . S
C1923 C1917 1.428 . S
C1923 N1922 1.351 . S
C1923 C1924 1.434 . S
C1924 C1915 1.429 . S
C1924 N1921 1.350 . S
C1924 C1923 1.434 . S
C1925 C1926 1.369 . S
C1925 C1927 1.419 . S
C1925 H1929 0.930 . S
C1926 C1925 1.369 . S
C1926 C1935 1.429 . S
C1927 C1925 1.419 . S
C1927 C1928 1.363 . S
C1927 H1930 0.929 . S
C1928 C1927 1.363 . S
C1928 C1934 1.428 . S
H1929 C1925 0.930 . S
H1930 C1927 0.929 . S
S1931 N1932 1.613 . S
S1931 N1933 1.610 . S
N1932 S1931 1.613 . S
N1932 C1935 1.350 . S
N1933 S1931 1.610 . S
N1933 C1934 1.351 . S
C1934 C1928 1.428 . S
C1934 N1933 1.351 . S
C1934 C1935 1.434 . S
C1935 C1926 1.429 . S
C1935 N1932 1.350 . S
C1935 C1934 1.434 . S
C1936 C1937 1.369 . S
C1936 C1938 1.419 . S
C1936 H1940 0.930 . S
C1937 C1936 1.369 . S
C1937 C1946 1.429 . S
C1938 C1936 1.419 . S
C1938 C1939 1.363 . S
C1938 H1941 0.929 . S
C1939 C1938 1.363 . S
C1939 C1945 1.428 . S
H1940 C1936 0.930 . S
H1941 C1938 0.929 . S
S1942 N1943 1.613 . S
S1942 N1944 1.610 . S
N1943 S1942 1.613 . S
N1943 C1946 1.350 . S
N1944 S1942 1.610 . S
N1944 C1945 1.351 . S
C1945 C1939 1.428 . S
C1945 N1944 1.351 . S
C1945 C1946 1.434 . S
C1946 C1937 1.429 . S
C1946 N1943 1.350 . S
C1946 C1945 1.434 . S
C1947 C1948 1.369 . S
C1947 C1949 1.419 . S
C1947 H1951 0.930 . S
C1948 C1947 1.369 . S
C1948 C1957 1.429 . S
C1949 C1947 1.419 . S
C1949 C1950 1.363 . S
C1949 H1952 0.929 . S
C1950 C1949 1.363 . S
C1950 C1956 1.428 . S
H1951 C1947 0.930 . S
H1952 C1949 0.929 . S
S1953 N1954 1.613 . S
S1953 N1955 1.610 . S
N1954 S1953 1.613 . S
N1954 C1957 1.350 . S
N1955 S1953 1.610 . S
N1955 C1956 1.351 . S
C1956 C1950 1.428 . S
C1956 N1955 1.351 . S
C1956 C1957 1.434 . S
C1957 C1948 1.429 . S
C1957 N1954 1.350 . S
C1957 C1956 1.434 . S
C1958 C1959 1.369 . S
C1958 C1960 1.419 . S
C1958 H1962 0.930 . S
C1959 C1958 1.369 . S
C1959 C1968 1.429 . S
C1960 C1958 1.419 . S
C1960 C1961 1.363 . S
C1960 H1963 0.929 . S
C1961 C1960 1.363 . S
C1961 C1967 1.428 . S
H1962 C1958 0.930 . S
H1963 C1960 0.929 . S
S1964 N1965 1.613 . S
S1964 N1966 1.610 . S
N1965 S1964 1.613 . S
N1965 C1968 1.350 . S
N1966 S1964 1.610 . S
N1966 C1967 1.351 . S
C1967 C1961 1.428 . S
C1967 N1966 1.351 . S
C1967 C1968 1.434 . S
C1968 C1959 1.429 . S
C1968 N1965 1.350 . S
C1968 C1967 1.434 . S
C1969 C1970 1.369 . S
C1969 C1971 1.419 . S
C1969 H1973 0.930 . S
C1970 C1969 1.369 . S
C1970 C1979 1.429 . S
C1971 C1969 1.419 . S
C1971 C1972 1.363 . S
C1971 H1974 0.929 . S
C1972 C1971 1.363 . S
C1972 C1978 1.428 . S
H1973 C1969 0.930 . S
H1974 C1971 0.929 . S
S1975 N1976 1.613 . S
S1975 N1977 1.610 . S
N1976 S1975 1.613 . S
N1976 C1979 1.350 . S
N1977 S1975 1.610 . S
N1977 C1978 1.351 . S
C1978 C1972 1.428 . S
C1978 N1977 1.351 . S
C1978 C1979 1.434 . S
C1979 C1970 1.429 . S
C1979 N1976 1.350 . S
C1979 C1978 1.434 . S
C1980 C1981 1.369 . S
C1980 C1982 1.419 . S
C1980 H1984 0.930 . S
C1981 C1980 1.369 . S
C1981 C1990 1.429 . S
C1982 C1980 1.419 . S
C1982 C1983 1.363 . S
C1982 H1985 0.929 . S
C1983 C1982 1.363 . S
C1983 C1989 1.428 . S
H1984 C1980 0.930 . S
H1985 C1982 0.929 . S
S1986 N1987 1.613 . S
S1986 N1988 1.610 . S
N1987 S1986 1.613 . S
N1987 C1990 1.350 . S
N1988 S1986 1.610 . S
N1988 C1989 1.351 . S
C1989 C1983 1.428 . S
C1989 N1988 1.351 . S
C1989 C1990 1.434 . S
C1990 C1981 1.429 . S
C1990 N1987 1.350 . S
C1990 C1989 1.434 . S
C1991 C1992 1.369 . S
C1991 C1993 1.419 . S
C1991 H1995 0.930 . S
C1992 C1991 1.369 . S
C1992 C2001 1.429 . S
C1993 C1991 1.419 . S
C1993 C1994 1.363 . S
C1993 H1996 0.929 . S
C1994 C1993 1.363 . S
C1994 C2000 1.428 . S
H1995 C1991 0.930 . S
H1996 C1993 0.929 . S
S1997 N1998 1.613 . S
S1997 N1999 1.610 . S
N1998 S1997 1.613 . S
N1998 C2001 1.350 . S
N1999 S1997 1.610 . S
N1999 C2000 1.351 . S
C2000 C1994 1.428 . S
C2000 N1999 1.351 . S
C2000 C2001 1.434 . S
C2001 C1992 1.429 . S
C2001 N1998 1.350 . S
C2001 C2000 1.434 . S
C2002 C2003 1.369 . S
C2002 C2004 1.419 . S
C2002 H2006 0.930 . S
C2003 C2002 1.369 . S
C2003 C2012 1.429 . S
C2004 C2002 1.419 . S
C2004 C2005 1.363 . S
C2004 H2007 0.929 . S
C2005 C2004 1.363 . S
C2005 C2011 1.428 . S
H2006 C2002 0.930 . S
H2007 C2004 0.929 . S
S2008 N2009 1.613 . S
S2008 N2010 1.610 . S
N2009 S2008 1.613 . S
N2009 C2012 1.350 . S
N2010 S2008 1.610 . S
N2010 C2011 1.351 . S
C2011 C2005 1.428 . S
C2011 N2010 1.351 . S
C2011 C2012 1.434 . S
C2012 C2003 1.429 . S
C2012 N2009 1.350 . S
C2012 C2011 1.434 . S
C2013 C2014 1.369 . S
C2013 C2015 1.419 . S
C2013 H2017 0.930 . S
C2014 C2013 1.369 . S
C2014 C2023 1.429 . S
C2015 C2013 1.419 . S
C2015 C2016 1.363 . S
C2015 H2018 0.929 . S
C2016 C2015 1.363 . S
C2016 C2022 1.428 . S
H2017 C2013 0.930 . S
H2018 C2015 0.929 . S
S2019 N2020 1.613 . S
S2019 N2021 1.610 . S
N2020 S2019 1.613 . S
N2020 C2023 1.350 . S
N2021 S2019 1.610 . S
N2021 C2022 1.351 . S
C2022 C2016 1.428 . S
C2022 N2021 1.351 . S
C2022 C2023 1.434 . S
C2023 C2014 1.429 . S
C2023 N2020 1.350 . S
C2023 C2022 1.434 . S
C2024 C2025 1.369 . S
C2024 C2026 1.419 . S
C2024 H2028 0.930 . S
C2025 C2024 1.369 . S
C2025 C2034 1.429 . S
C2026 C2024 1.419 . S
C2026 C2027 1.363 . S
C2026 H2029 0.929 . S
C2027 C2026 1.363 . S
C2027 C2033 1.428 . S
H2028 C2024 0.930 . S
H2029 C2026 0.929 . S
S2030 N2031 1.613 . S
S2030 N2032 1.610 . S
N2031 S2030 1.613 . S
N2031 C2034 1.350 . S
N2032 S2030 1.610 . S
N2032 C2033 1.351 . S
C2033 C2027 1.428 . S
C2033 N2032 1.351 . S
C2033 C2034 1.434 . S
C2034 C2025 1.429 . S
C2034 N2031 1.350 . S
C2034 C2033 1.434 . S
C2035 C2036 1.369 . S
C2035 C2037 1.419 . S
C2035 H2039 0.930 . S
C2036 C2035 1.369 . S
C2036 C2045 1.429 . S
C2037 C2035 1.419 . S
C2037 C2038 1.363 . S
C2037 H2040 0.929 . S
C2038 C2037 1.363 . S
C2038 C2044 1.428 . S
H2039 C2035 0.930 . S
H2040 C2037 0.929 . S
S2041 N2042 1.613 . S
S2041 N2043 1.610 . S
N2042 S2041 1.613 . S
N2042 C2045 1.350 . S
N2043 S2041 1.610 . S
N2043 C2044 1.351 . S
C2044 C2038 1.428 . S
C2044 N2043 1.351 . S
C2044 C2045 1.434 . S
C2045 C2036 1.429 . S
C2045 N2042 1.350 . S
C2045 C2044 1.434 . S
C2046 C2047 1.369 . S
C2046 C2048 1.419 . S
C2046 H2050 0.930 . S
C2047 C2046 1.369 . S
C2047 C2056 1.429 . S
C2048 C2046 1.419 . S
C2048 C2049 1.363 . S
C2048 H2051 0.929 . S
C2049 C2048 1.363 . S
C2049 C2055 1.428 . S
H2050 C2046 0.930 . S
H2051 C2048 0.929 . S
S2052 N2053 1.613 . S
S2052 N2054 1.610 . S
N2053 S2052 1.613 . S
N2053 C2056 1.350 . S
N2054 S2052 1.610 . S
N2054 C2055 1.351 . S
C2055 C2049 1.428 . S
C2055 N2054 1.351 . S
C2055 C2056 1.434 . S
C2056 C2047 1.429 . S
C2056 N2053 1.350 . S
C2056 C2055 1.434 . S
C2057 C2058 1.369 . S
C2057 C2059 1.419 . S
C2057 H2061 0.930 . S
C2058 C2057 1.369 . S
C2058 C2067 1.429 . S
C2059 C2057 1.419 . S
C2059 C2060 1.363 . S
C2059 H2062 0.929 . S
C2060 C2059 1.363 . S
C2060 C2066 1.428 . S
H2061 C2057 0.930 . S
H2062 C2059 0.929 . S
S2063 N2064 1.613 . S
S2063 N2065 1.610 . S
N2064 S2063 1.613 . S
N2064 C2067 1.350 . S
N2065 S2063 1.610 . S
N2065 C2066 1.351 . S
C2066 C2060 1.428 . S
C2066 N2065 1.351 . S
C2066 C2067 1.434 . S
C2067 C2058 1.429 . S
C2067 N2064 1.350 . S
C2067 C2066 1.434 . S
C2068 C2069 1.369 . S
C2068 C2070 1.419 . S
C2068 H2072 0.930 . S
C2069 C2068 1.369 . S
C2069 C2078 1.429 . S
C2070 C2068 1.419 . S
C2070 C2071 1.363 . S
C2070 H2073 0.929 . S
C2071 C2070 1.363 . S
C2071 C2077 1.428 . S
H2072 C2068 0.930 . S
H2073 C2070 0.929 . S
S2074 N2075 1.613 . S
S2074 N2076 1.610 . S
N2075 S2074 1.613 . S
N2075 C2078 1.350 . S
N2076 S2074 1.610 . S
N2076 C2077 1.351 . S
C2077 C2071 1.428 . S
C2077 N2076 1.351 . S
C2077 C2078 1.434 . S
C2078 C2069 1.429 . S
C2078 N2075 1.350 . S
C2078 C2077 1.434 . S
C2079 C2080 1.369 . S
C2079 C2081 1.419 . S
C2079 H2083 0.930 . S
C2080 C2079 1.369 . S
C2080 C2089 1.429 . S
C2081 C2079 1.419 . S
C2081 C2082 1.363 . S
C2081 H2084 0.929 . S
C2082 C2081 1.363 . S
C2082 C2088 1.428 . S
H2083 C2079 0.930 . S
H2084 C2081 0.929 . S
S2085 N2086 1.613 . S
S2085 N2087 1.610 . S
N2086 S2085 1.613 . S
N2086 C2089 1.350 . S
N2087 S2085 1.610 . S
N2087 C2088 1.351 . S
C2088 C2082 1.428 . S
C2088 N2087 1.351 . S
C2088 C2089 1.434 . S
C2089 C2080 1.429 . S
C2089 N2086 1.350 . S
C2089 C2088 1.434 . S
C2090 C2091 1.369 . S
C2090 C2092 1.419 . S
C2090 H2094 0.930 . S
C2091 C2090 1.369 . S
C2091 C2100 1.429 . S
C2092 C2090 1.419 . S
C2092 C2093 1.363 . S
C2092 H2095 0.929 . S
C2093 C2092 1.363 . S
C2093 C2099 1.428 . S
H2094 C2090 0.930 . S
H2095 C2092 0.929 . S
S2096 N2097 1.613 . S
S2096 N2098 1.610 . S
N2097 S2096 1.613 . S
N2097 C2100 1.350 . S
N2098 S2096 1.610 . S
N2098 C2099 1.351 . S
C2099 C2093 1.428 . S
C2099 N2098 1.351 . S
C2099 C2100 1.434 . S
C2100 C2091 1.429 . S
C2100 N2097 1.350 . S
C2100 C2099 1.434 . S
C2101 C2102 1.369 . S
C2101 C2103 1.419 . S
C2101 H2105 0.930 . S
C2102 C2101 1.369 . S
C2102 C2111 1.429 . S
C2103 C2101 1.419 . S
C2103 C2104 1.363 . S
C2103 H2106 0.929 . S
C2104 C2103 1.363 . S
C2104 C2110 1.428 . S
H2105 C2101 0.930 . S
H2106 C2103 0.929 . S
S2107 N2108 1.613 . S
S2107 N2109 1.610 . S
N2108 S2107 1.613 . S
N2108 C2111 1.350 . S
N2109 S2107 1.610 . S
N2109 C2110 1.351 . S
C2110 C2104 1.428 . S
C2110 N2109 1.351 . S
C2110 C2111 1.434 . S
C2111 C2102 1.429 . S
C2111 N2108 1.350 . S
C2111 C2110 1.434 . S
C2112 C2113 1.371 . S
C2112 C2114 1.417 1_455 S
C2112 H2116 0.929 1_455 S
C2113 C2112 1.371 . S
C2113 C2122 1.429 . S
C2114 C2112 1.417 1_655 S
C2114 C2115 1.363 . S
C2114 H2117 0.929 . S
C2115 C2114 1.363 . S
C2115 C2121 1.398 1_655 S
H2116 C2112 0.929 1_655 S
H2117 C2114 0.929 . S
S2118 N2119 1.613 . S
S2118 N2120 1.610 . S
N2119 S2118 1.613 . S
N2119 C2122 1.350 . S
N2120 S2118 1.610 . S
N2120 C2121 1.358 . S
C2121 C2115 1.398 1_455 S
C2121 N2120 1.358 . S
C2121 C2122 1.464 . S
C2122 C2113 1.429 . S
C2122 N2119 1.350 . S
C2122 C2121 1.464 . S
C2123 C2124 1.369 . S
C2123 C2125 1.419 . S
C2123 H2127 0.930 . S
C2124 C2123 1.369 . S
C2124 C2133 1.429 . S
C2125 C2123 1.419 . S
C2125 C2126 1.363 . S
C2125 H2128 0.929 . S
C2126 C2125 1.363 . S
C2126 C2132 1.428 . S
H2127 C2123 0.930 . S
H2128 C2125 0.929 . S
S2129 N2130 1.613 . S
S2129 N2131 1.610 . S
N2130 S2129 1.613 . S
N2130 C2133 1.350 . S
N2131 S2129 1.610 . S
N2131 C2132 1.351 . S
C2132 C2126 1.428 . S
C2132 N2131 1.351 . S
C2132 C2133 1.434 . S
C2133 C2124 1.429 . S
C2133 N2130 1.350 . S
C2133 C2132 1.434 . S
C2134 C2135 1.369 . S
C2134 C2136 1.419 . S
C2134 H2138 0.930 . S
C2135 C2134 1.369 . S
C2135 C2144 1.429 1_655 S
C2136 C2134 1.419 . S
C2136 C2137 1.363 1_655 S
C2136 H2139 0.929 . S
C2137 C2136 1.363 1_455 S
C2137 C2143 1.428 . S
H2138 C2134 0.930 . S
H2139 C2136 0.929 . S
S2140 N2141 1.613 . S
S2140 N2142 1.610 . S
N2141 S2140 1.613 . S
N2141 C2144 1.350 . S
N2142 S2140 1.610 . S
N2142 C2143 1.351 . S
C2143 C2137 1.428 . S
C2143 N2142 1.351 . S
C2143 C2144 1.434 . S
C2144 C2135 1.429 1_455 S
C2144 N2141 1.350 . S
C2144 C2143 1.434 . S
C2145 C2146 1.369 . S
C2145 C2147 1.419 1_655 S
C2145 H2149 0.930 . S
C2146 C2145 1.369 . S
C2146 C2155 1.430 1_655 S
C2147 C2145 1.419 1_455 S
C2147 C2148 1.363 . S
C2147 H2150 0.929 . S
C2148 C2147 1.363 . S
C2148 C2154 1.428 . S
H2149 C2145 0.930 . S
H2150 C2147 0.929 . S
S2151 N2152 1.613 . S
S2151 N2153 1.610 . S
N2152 S2151 1.613 . S
N2152 C2155 1.350 . S
N2153 S2151 1.610 . S
N2153 C2154 1.351 . S
C2154 C2148 1.428 . S
C2154 N2153 1.351 . S
C2154 C2155 1.433 . S
C2155 C2146 1.430 1_455 S
C2155 N2152 1.350 . S
C2155 C2154 1.433 . S
C2156 C2157 1.369 . S
C2156 C2158 1.419 . S
C2156 H2160 0.930 . S
C2157 C2156 1.369 . S
C2157 C2166 1.429 1_565 S
C2158 C2156 1.419 . S
C2158 C2159 1.363 1_565 S
C2158 H2161 0.929 . S
C2159 C2158 1.363 1_545 S
C2159 C2165 1.428 . S
H2160 C2156 0.930 . S
H2161 C2158 0.929 . S
S2162 N2163 1.613 . S
S2162 N2164 1.610 . S
N2163 S2162 1.613 . S
N2163 C2166 1.350 . S
N2164 S2162 1.610 . S
N2164 C2165 1.351 . S
C2165 C2159 1.428 . S
C2165 N2164 1.351 . S
C2165 C2166 1.434 . S
C2166 C2157 1.429 1_545 S
C2166 N2163 1.350 . S
C2166 C2165 1.434 . S
C2167 C2168 1.369 1_554 S
C2167 C2169 1.419 . S
C2167 H2171 0.930 . S
C2168 C2167 1.369 1_556 S
C2168 C2177 1.429 . S
C2169 C2167 1.419 . S
C2169 C2170 1.363 . S
C2169 H2172 0.929 . S
C2170 C2169 1.363 . S
C2170 C2176 1.428 1_554 S
H2171 C2167 0.930 . S
H2172 C2169 0.929 . S
S2173 N2174 1.613 . S
S2173 N2175 1.610 . S
N2174 S2173 1.613 . S
N2174 C2177 1.350 . S
N2175 S2173 1.610 . S
N2175 C2176 1.351 . S
C2176 C2170 1.428 1_556 S
C2176 N2175 1.351 . S
C2176 C2177 1.434 . S
C2177 C2168 1.429 . S
C2177 N2174 1.350 . S
C2177 C2176 1.434 . S
C2178 C2179 1.369 . S
C2178 C2180 1.419 . S
C2178 H2182 0.930 . S
C2179 C2178 1.369 . S
C2179 C2188 1.429 . S
C2180 C2178 1.419 . S
C2180 C2181 1.363 . S
C2180 H2183 0.929 . S
C2181 C2180 1.363 . S
C2181 C2187 1.428 . S
H2182 C2178 0.930 . S
H2183 C2180 0.929 . S
S2184 N2185 1.613 . S
S2184 N2186 1.610 . S
N2185 S2184 1.613 . S
N2185 C2188 1.350 . S
N2186 S2184 1.610 . S
N2186 C2187 1.351 . S
C2187 C2181 1.428 . S
C2187 N2186 1.351 . S
C2187 C2188 1.434 . S
C2188 C2179 1.429 . S
C2188 N2185 1.350 . S
C2188 C2187 1.434 . S
C2189 C2190 1.369 . S
C2189 C2191 1.419 . S
C2189 H2193 0.930 . S
C2190 C2189 1.369 . S
C2190 C2199 1.429 1_554 S
C2191 C2189 1.419 . S
C2191 C2192 1.363 1_554 S
C2191 H2194 0.929 . S
C2192 C2191 1.363 1_556 S
C2192 C2198 1.428 . S
H2193 C2189 0.930 . S
H2194 C2191 0.929 . S
S2195 N2196 1.613 . S
S2195 N2197 1.610 . S
N2196 S2195 1.613 . S
N2196 C2199 1.350 . S
N2197 S2195 1.610 . S
N2197 C2198 1.351 . S
C2198 C2192 1.428 . S
C2198 N2197 1.351 . S
C2198 C2199 1.434 . S
C2199 C2190 1.429 1_556 S
C2199 N2196 1.350 . S
C2199 C2198 1.434 . S
C2200 C2201 1.369 . S
C2200 C2202 1.419 1_556 S
C2200 H2204 0.930 . S
C2201 C2200 1.369 . S
C2201 C2210 1.429 . S
C2202 C2200 1.419 1_554 S
C2202 C2203 1.363 . S
C2202 H2205 0.929 . S
C2203 C2202 1.363 . S
C2203 C2209 1.428 . S
H2204 C2200 0.930 . S
H2205 C2202 0.929 . S
S2206 N2207 1.613 . S
S2206 N2208 1.610 1_556 S
N2207 S2206 1.613 . S
N2207 C2210 1.350 . S
N2208 S2206 1.610 1_554 S
N2208 C2209 1.351 . S
C2209 C2203 1.428 . S
C2209 N2208 1.351 . S
C2209 C2210 1.434 1_554 S
C2210 C2201 1.429 . S
C2210 N2207 1.350 . S
C2210 C2209 1.434 1_556 S
C2211 C2212 1.369 . S
C2211 C2213 1.419 . S
C2211 H2215 0.930 . S
C2212 C2211 1.369 . S
C2212 C2221 1.429 . S
C2213 C2211 1.419 . S
C2213 C2214 1.363 . S
C2213 H2216 0.929 . S
C2214 C2213 1.363 . S
C2214 C2220 1.428 . S
H2215 C2211 0.930 . S
H2216 C2213 0.929 . S
S2217 N2218 1.613 . S
S2217 N2219 1.610 . S
N2218 S2217 1.613 . S
N2218 C2221 1.350 . S
N2219 S2217 1.610 . S
N2219 C2220 1.351 . S
C2220 C2214 1.428 . S
C2220 N2219 1.351 . S
C2220 C2221 1.434 . S
C2221 C2212 1.429 . S
C2221 N2218 1.350 . S
C2221 C2220 1.434 . S
C2222 C2223 1.369 . S
C2222 C2224 1.419 . S
C2222 H2226 0.930 . S
C2223 C2222 1.369 . S
C2223 C2232 1.429 . S
C2224 C2222 1.419 . S
C2224 C2225 1.363 . S
C2224 H2227 0.929 . S
C2225 C2224 1.363 . S
C2225 C2231 1.428 . S
H2226 C2222 0.930 . S
H2227 C2224 0.929 . S
S2228 N2229 1.613 . S
S2228 N2230 1.610 . S
N2229 S2228 1.613 . S
N2229 C2232 1.350 . S
N2230 S2228 1.610 . S
N2230 C2231 1.351 . S
C2231 C2225 1.428 . S
C2231 N2230 1.351 . S
C2231 C2232 1.434 . S
C2232 C2223 1.429 . S
C2232 N2229 1.350 . S
C2232 C2231 1.434 . S
C2233 C2234 1.369 . S
C2233 C2235 1.419 . S
C2233 H2237 0.930 . S
C2234 C2233 1.369 . S
C2234 C2243 1.429 . S
C2235 C2233 1.419 . S
C2235 C2236 1.363 . S
C2235 H2238 0.929 . S
C2236 C2235 1.363 . S
C2236 C2242 1.428 . S
H2237 C2233 0.930 . S
H2238 C2235 0.929 . S
S2239 N2240 1.613 . S
S2239 N2241 1.610 . S
N2240 S2239 1.613 . S
N2240 C2243 1.350 . S
N2241 S2239 1.610 . S
N2241 C2242 1.351 . S
C2242 C2236 1.428 . S
C2242 N2241 1.351 . S
C2242 C2243 1.434 . S
C2243 C2234 1.429 . S
C2243 N2240 1.350 . S
C2243 C2242 1.434 . S
C2244 C2245 1.369 . S
C2244 C2246 1.419 . S
C2244 H2248 0.930 . S
C2245 C2244 1.369 . S
C2245 C2254 1.429 . S
C2246 C2244 1.419 . S
C2246 C2247 1.363 . S
C2246 H2249 0.929 . S
C2247 C2246 1.363 . S
C2247 C2253 1.428 . S
H2248 C2244 0.930 . S
H2249 C2246 0.929 . S
S2250 N2251 1.613 . S
S2250 N2252 1.610 . S
N2251 S2250 1.613 . S
N2251 C2254 1.350 . S
N2252 S2250 1.610 . S
N2252 C2253 1.351 . S
C2253 C2247 1.428 . S
C2253 N2252 1.351 . S
C2253 C2254 1.434 . S
C2254 C2245 1.429 . S
C2254 N2251 1.350 . S
C2254 C2253 1.434 . S
C2255 C2256 1.369 1_565 S
C2255 C2257 1.419 . S
C2255 H2259 0.930 . S
C2256 C2255 1.369 1_545 S
C2256 C2265 1.429 . S
C2257 C2255 1.419 . S
C2257 C2258 1.363 . S
C2257 H2260 0.929 . S
C2258 C2257 1.363 . S
C2258 C2264 1.428 1_565 S
H2259 C2255 0.930 . S
H2260 C2257 0.929 . S
S2261 N2262 1.613 . S
S2261 N2263 1.610 . S
N2262 S2261 1.613 . S
N2262 C2265 1.350 . S
N2263 S2261 1.610 . S
N2263 C2264 1.351 . S
C2264 C2258 1.428 1_545 S
C2264 N2263 1.351 . S
C2264 C2265 1.434 . S
C2265 C2256 1.429 . S
C2265 N2262 1.350 . S
C2265 C2264 1.434 . S
C2266 C2267 1.369 . S
C2266 C2268 1.419 . S
C2266 H2270 0.930 . S
C2267 C2266 1.369 . S
C2267 C2276 1.429 . S
C2268 C2266 1.419 . S
C2268 C2269 1.363 . S
C2268 H2271 0.929 . S
C2269 C2268 1.363 . S
C2269 C2275 1.428 . S
H2270 C2266 0.930 . S
H2271 C2268 0.929 . S
S2272 N2273 1.613 . S
S2272 N2274 1.610 . S
N2273 S2272 1.613 . S
N2273 C2276 1.350 . S
N2274 S2272 1.610 . S
N2274 C2275 1.351 . S
C2275 C2269 1.428 . S
C2275 N2274 1.351 . S
C2275 C2276 1.434 . S
C2276 C2267 1.429 . S
C2276 N2273 1.350 . S
C2276 C2275 1.434 . S
C2277 C2278 1.369 . S
C2277 C2279 1.419 . S
C2277 H2281 0.930 . S
C2278 C2277 1.369 . S
C2278 C2287 1.429 1_655 S
C2279 C2277 1.419 . S
C2279 C2280 1.363 1_655 S
C2279 H2282 0.929 . S
C2280 C2279 1.363 1_455 S
C2280 C2286 1.428 . S
H2281 C2277 0.930 . S
H2282 C2279 0.929 . S
S2283 N2284 1.613 . S
S2283 N2285 1.610 . S
N2284 S2283 1.613 . S
N2284 C2287 1.350 . S
N2285 S2283 1.610 . S
N2285 C2286 1.351 . S
C2286 C2280 1.428 . S
C2286 N2285 1.351 . S
C2286 C2287 1.434 . S
C2287 C2278 1.429 1_455 S
C2287 N2284 1.350 . S
C2287 C2286 1.434 . S
C2288 C2289 1.369 . S
C2288 C2290 1.419 . S
C2288 H2292 0.930 . S
C2289 C2288 1.369 . S
C2289 C2298 1.429 . S
C2290 C2288 1.419 . S
C2290 C2291 1.363 . S
C2290 H2293 0.929 . S
C2291 C2290 1.363 . S
C2291 C2297 1.428 . S
H2292 C2288 0.930 . S
H2293 C2290 0.929 . S
S2294 N2295 1.613 . S
S2294 N2296 1.610 . S
N2295 S2294 1.613 . S
N2295 C2298 1.350 . S
N2296 S2294 1.610 . S
N2296 C2297 1.351 . S
C2297 C2291 1.428 . S
C2297 N2296 1.351 . S
C2297 C2298 1.434 . S
C2298 C2289 1.429 . S
C2298 N2295 1.350 . S
C2298 C2297 1.434 . S
C2299 C2300 1.369 . S
C2299 C2301 1.419 . S
C2299 H2303 0.930 . S
C2300 C2299 1.369 . S
C2300 C2309 1.429 . S
C2301 C2299 1.419 . S
C2301 C2302 1.363 . S
C2301 H2304 0.929 . S
C2302 C2301 1.363 . S
C2302 C2308 1.428 . S
H2303 C2299 0.930 . S
H2304 C2301 0.929 . S
S2305 N2306 1.613 . S
S2305 N2307 1.610 . S
N2306 S2305 1.613 . S
N2306 C2309 1.350 . S
N2307 S2305 1.610 . S
N2307 C2308 1.351 . S
C2308 C2302 1.428 . S
C2308 N2307 1.351 . S
C2308 C2309 1.434 . S
C2309 C2300 1.429 . S
C2309 N2306 1.350 . S
C2309 C2308 1.434 . S
C2310 C2311 1.369 . S
C2310 C2312 1.419 . S
C2310 H2314 0.930 . S
C2311 C2310 1.369 . S
C2311 C2320 1.429 . S
C2312 C2310 1.419 . S
C2312 C2313 1.363 . S
C2312 H2315 0.929 . S
C2313 C2312 1.363 . S
C2313 C2319 1.428 . S
H2314 C2310 0.930 . S
H2315 C2312 0.929 . S
S2316 N2317 1.613 . S
S2316 N2318 1.610 . S
N2317 S2316 1.613 . S
N2317 C2320 1.350 . S
N2318 S2316 1.610 . S
N2318 C2319 1.351 . S
C2319 C2313 1.428 . S
C2319 N2318 1.351 . S
C2319 C2320 1.434 . S
C2320 C2311 1.429 . S
C2320 N2317 1.350 . S
C2320 C2319 1.434 . S
C2321 C2322 1.369 . S
C2321 C2323 1.419 . S
C2321 H2325 0.930 . S
C2322 C2321 1.369 . S
C2322 C2331 1.429 . S
C2323 C2321 1.419 . S
C2323 C2324 1.363 . S
C2323 H2326 0.929 . S
C2324 C2323 1.363 . S
C2324 C2330 1.428 . S
H2325 C2321 0.930 . S
H2326 C2323 0.929 . S
S2327 N2328 1.613 . S
S2327 N2329 1.610 . S
N2328 S2327 1.613 . S
N2328 C2331 1.350 . S
N2329 S2327 1.610 . S
N2329 C2330 1.351 . S
C2330 C2324 1.428 . S
C2330 N2329 1.351 . S
C2330 C2331 1.434 . S
C2331 C2322 1.429 . S
C2331 N2328 1.350 . S
C2331 C2330 1.434 . S
C2332 C2333 1.369 . S
C2332 C2334 1.419 1_565 S
C2332 H2336 0.930 . S
C2333 C2332 1.369 . S
C2333 C2342 1.429 . S
C2334 C2332 1.419 1_545 S
C2334 C2335 1.363 . S
C2334 H2337 0.929 . S
C2335 C2334 1.363 . S
C2335 C2341 1.428 . S
H2336 C2332 0.930 . S
H2337 C2334 0.929 . S
S2338 N2339 1.613 . S
S2338 N2340 1.610 1_565 S
N2339 S2338 1.613 . S
N2339 C2342 1.350 . S
N2340 S2338 1.610 1_545 S
N2340 C2341 1.351 . S
C2341 C2335 1.428 . S
C2341 N2340 1.351 . S
C2341 C2342 1.434 1_545 S
C2342 C2333 1.429 . S
C2342 N2339 1.350 . S
C2342 C2341 1.434 1_565 S
C2343 C2344 1.369 . S
C2343 C2345 1.419 . S
C2343 H2347 0.930 . S
C2344 C2343 1.369 . S
C2344 C2353 1.429 . S
C2345 C2343 1.419 . S
C2345 C2346 1.363 . S
C2345 H2348 0.929 . S
C2346 C2345 1.363 . S
C2346 C2352 1.428 . S
H2347 C2343 0.930 . S
H2348 C2345 0.929 . S
S2349 N2350 1.613 . S
S2349 N2351 1.610 . S
N2350 S2349 1.613 . S
N2350 C2353 1.350 . S
N2351 S2349 1.610 . S
N2351 C2352 1.351 . S
C2352 C2346 1.428 . S
C2352 N2351 1.351 . S
C2352 C2353 1.434 . S
C2353 C2344 1.429 . S
C2353 N2350 1.350 . S
C2353 C2352 1.434 . S
C2354 C2355 1.369 . S
C2354 C2356 1.419 1_554 S
C2354 H2358 0.930 . S
C2355 C2354 1.369 . S
C2355 C2364 1.429 . S
C2356 C2354 1.419 1_556 S
C2356 C2357 1.363 . S
C2356 H2359 0.929 . S
C2357 C2356 1.363 . S
C2357 C2363 1.428 . S
H2358 C2354 0.930 . S
H2359 C2356 0.929 . S
S2360 N2361 1.613 1_556 S
S2360 N2362 1.610 . S
N2361 S2360 1.613 1_554 S
N2361 C2364 1.350 . S
N2362 S2360 1.610 . S
N2362 C2363 1.351 . S
C2363 C2357 1.428 . S
C2363 N2362 1.351 . S
C2363 C2364 1.434 1_556 S
C2364 C2355 1.429 . S
C2364 N2361 1.350 . S
C2364 C2363 1.434 1_554 S
C2365 C2366 1.369 1_545 S
C2365 C2367 1.419 . S
C2365 H2369 0.930 . S
C2366 C2365 1.369 1_565 S
C2366 C2375 1.429 . S
C2367 C2365 1.419 . S
C2367 C2368 1.363 . S
C2367 H2370 0.929 . S
C2368 C2367 1.363 . S
C2368 C2374 1.428 1_545 S
H2369 C2365 0.930 . S
H2370 C2367 0.929 . S
S2371 N2372 1.613 . S
S2371 N2373 1.610 . S
N2372 S2371 1.613 . S
N2372 C2375 1.350 . S
N2373 S2371 1.610 . S
N2373 C2374 1.351 . S
C2374 C2368 1.428 1_565 S
C2374 N2373 1.351 . S
C2374 C2375 1.434 . S
C2375 C2366 1.429 . S
C2375 N2372 1.350 . S
C2375 C2374 1.434 . S
C2376 C2377 1.369 . S
C2376 C2378 1.419 . S
C2376 H2380 0.930 . S
C2377 C2376 1.369 . S
C2377 C2386 1.429 . S
C2378 C2376 1.419 . S
C2378 C2379 1.363 . S
C2378 H2381 0.929 . S
C2379 C2378 1.363 . S
C2379 C2385 1.428 . S
H2380 C2376 0.930 . S
H2381 C2378 0.929 . S
S2382 N2383 1.613 . S
S2382 N2384 1.610 . S
N2383 S2382 1.613 . S
N2383 C2386 1.350 . S
N2384 S2382 1.610 . S
N2384 C2385 1.351 . S
C2385 C2379 1.428 . S
C2385 N2384 1.351 . S
C2385 C2386 1.434 . S
C2386 C2377 1.429 . S
C2386 N2383 1.350 . S
C2386 C2385 1.434 . S
C2387 C2388 1.369 . S
C2387 C2389 1.419 . S
C2387 H2391 0.930 . S
C2388 C2387 1.369 . S
C2388 C2397 1.429 . S
C2389 C2387 1.419 . S
C2389 C2390 1.363 . S
C2389 H2392 0.929 . S
C2390 C2389 1.363 . S
C2390 C2396 1.428 . S
H2391 C2387 0.930 . S
H2392 C2389 0.929 . S
S2393 N2394 1.613 . S
S2393 N2395 1.610 . S
N2394 S2393 1.613 . S
N2394 C2397 1.350 . S
N2395 S2393 1.610 . S
N2395 C2396 1.351 . S
C2396 C2390 1.428 . S
C2396 N2395 1.351 . S
C2396 C2397 1.434 . S
C2397 C2388 1.429 . S
C2397 N2394 1.350 . S
C2397 C2396 1.434 . S
C2398 C2399 1.369 . S
C2398 C2400 1.419 . S
C2398 H2402 0.930 . S
C2399 C2398 1.369 . S
C2399 C2408 1.429 . S
C2400 C2398 1.419 . S
C2400 C2401 1.363 . S
C2400 H2403 0.929 . S
C2401 C2400 1.363 . S
C2401 C2407 1.428 . S
H2402 C2398 0.930 . S
H2403 C2400 0.929 . S
S2404 N2405 1.613 . S
S2404 N2406 1.610 . S
N2405 S2404 1.613 . S
N2405 C2408 1.350 . S
N2406 S2404 1.610 . S
N2406 C2407 1.351 . S
C2407 C2401 1.428 . S
C2407 N2406 1.351 . S
C2407 C2408 1.434 . S
C2408 C2399 1.429 . S
C2408 N2405 1.350 . S
C2408 C2407 1.434 . S
C2409 C2410 1.369 . S
C2409 C2411 1.419 . S
C2409 H2413 0.930 . S
C2410 C2409 1.369 . S
C2410 C2419 1.429 . S
C2411 C2409 1.419 . S
C2411 C2412 1.363 . S
C2411 H2414 0.929 . S
C2412 C2411 1.363 . S
C2412 C2418 1.428 . S
H2413 C2409 0.930 . S
H2414 C2411 0.929 . S
S2415 N2416 1.613 . S
S2415 N2417 1.610 . S
N2416 S2415 1.613 . S
N2416 C2419 1.350 . S
N2417 S2415 1.610 . S
N2417 C2418 1.351 . S
C2418 C2412 1.428 . S
C2418 N2417 1.351 . S
C2418 C2419 1.434 . S
C2419 C2410 1.429 . S
C2419 N2416 1.350 . S
C2419 C2418 1.434 . S
C2420 C2421 1.369 . S
C2420 C2422 1.419 . S
C2420 H2424 0.930 . S
C2421 C2420 1.369 . S
C2421 C2430 1.429 . S
C2422 C2420 1.419 . S
C2422 C2423 1.363 . S
C2422 H2425 0.929 . S
C2423 C2422 1.363 . S
C2423 C2429 1.428 . S
H2424 C2420 0.930 . S
H2425 C2422 0.929 . S
S2426 N2427 1.613 . S
S2426 N2428 1.610 . S
N2427 S2426 1.613 . S
N2427 C2430 1.350 . S
N2428 S2426 1.610 . S
N2428 C2429 1.351 . S
C2429 C2423 1.428 . S
C2429 N2428 1.351 . S
C2429 C2430 1.434 . S
C2430 C2421 1.429 . S
C2430 N2427 1.350 . S
C2430 C2429 1.434 . S
C2431 C2432 1.369 . S
C2431 C2433 1.419 . S
C2431 H2435 0.930 . S
C2432 C2431 1.369 . S
C2432 C2441 1.429 . S
C2433 C2431 1.419 . S
C2433 C2434 1.363 . S
C2433 H2436 0.929 . S
C2434 C2433 1.363 . S
C2434 C2440 1.428 . S
H2435 C2431 0.930 . S
H2436 C2433 0.929 . S
S2437 N2438 1.613 . S
S2437 N2439 1.610 . S
N2438 S2437 1.613 . S
N2438 C2441 1.350 . S
N2439 S2437 1.610 . S
N2439 C2440 1.351 . S
C2440 C2434 1.428 . S
C2440 N2439 1.351 . S
C2440 C2441 1.434 . S
C2441 C2432 1.429 . S
C2441 N2438 1.350 . S
C2441 C2440 1.434 . S
C2442 C2443 1.369 . S
C2442 C2444 1.419 . S
C2442 H2446 0.930 . S
C2443 C2442 1.369 . S
C2443 C2452 1.429 . S
C2444 C2442 1.419 . S
C2444 C2445 1.363 . S
C2444 H2447 0.929 . S
C2445 C2444 1.363 . S
C2445 C2451 1.428 . S
H2446 C2442 0.930 . S
H2447 C2444 0.929 . S
S2448 N2449 1.613 . S
S2448 N2450 1.610 . S
N2449 S2448 1.613 . S
N2449 C2452 1.350 . S
N2450 S2448 1.610 . S
N2450 C2451 1.351 . S
C2451 C2445 1.428 . S
C2451 N2450 1.351 . S
C2451 C2452 1.434 . S
C2452 C2443 1.429 . S
C2452 N2449 1.350 . S
C2452 C2451 1.434 . S
C2453 C2454 1.369 . S
C2453 C2455 1.419 . S
C2453 H2457 0.930 . S
C2454 C2453 1.369 . S
C2454 C2463 1.429 . S
C2455 C2453 1.419 . S
C2455 C2456 1.363 . S
C2455 H2458 0.929 . S
C2456 C2455 1.363 . S
C2456 C2462 1.428 . S
H2457 C2453 0.930 . S
H2458 C2455 0.929 . S
S2459 N2460 1.613 . S
S2459 N2461 1.610 . S
N2460 S2459 1.613 . S
N2460 C2463 1.350 . S
N2461 S2459 1.610 . S
N2461 C2462 1.351 . S
C2462 C2456 1.428 . S
C2462 N2461 1.351 . S
C2462 C2463 1.434 . S
C2463 C2454 1.429 . S
C2463 N2460 1.350 . S
C2463 C2462 1.434 . S
C2464 C2465 1.369 . S
C2464 C2466 1.419 . S
C2464 H2468 0.930 . S
C2465 C2464 1.369 . S
C2465 C2474 1.429 . S
C2466 C2464 1.419 . S
C2466 C2467 1.363 . S
C2466 H2469 0.929 . S
C2467 C2466 1.363 . S
C2467 C2473 1.428 . S
H2468 C2464 0.930 . S
H2469 C2466 0.929 . S
S2470 N2471 1.613 . S
S2470 N2472 1.610 . S
N2471 S2470 1.613 . S
N2471 C2474 1.350 . S
N2472 S2470 1.610 . S
N2472 C2473 1.351 . S
C2473 C2467 1.428 . S
C2473 N2472 1.351 . S
C2473 C2474 1.434 . S
C2474 C2465 1.429 . S
C2474 N2471 1.350 . S
C2474 C2473 1.434 . S
C2475 C2476 1.369 . S
C2475 C2477 1.419 . S
C2475 H2479 0.930 . S
C2476 C2475 1.369 . S
C2476 C2485 1.429 . S
C2477 C2475 1.419 . S
C2477 C2478 1.363 . S
C2477 H2480 0.929 . S
C2478 C2477 1.363 . S
C2478 C2484 1.428 . S
H2479 C2475 0.930 . S
H2480 C2477 0.929 . S
S2481 N2482 1.613 . S
S2481 N2483 1.610 . S
N2482 S2481 1.613 . S
N2482 C2485 1.350 . S
N2483 S2481 1.610 . S
N2483 C2484 1.351 . S
C2484 C2478 1.428 . S
C2484 N2483 1.351 . S
C2484 C2485 1.434 . S
C2485 C2476 1.429 . S
C2485 N2482 1.350 . S
C2485 C2484 1.434 . S
C2486 C2487 1.369 . S
C2486 C2488 1.419 . S
C2486 H2490 0.930 . S
C2487 C2486 1.369 . S
C2487 C2496 1.429 . S
C2488 C2486 1.419 . S
C2488 C2489 1.363 . S
C2488 H2491 0.929 . S
C2489 C2488 1.363 . S
C2489 C2495 1.428 . S
H2490 C2486 0.930 . S
H2491 C2488 0.929 . S
S2492 N2493 1.613 . S
S2492 N2494 1.610 . S
N2493 S2492 1.613 . S
N2493 C2496 1.350 . S
N2494 S2492 1.610 . S
N2494 C2495 1.351 . S
C2495 C2489 1.428 . S
C2495 N2494 1.351 . S
C2495 C2496 1.434 . S
C2496 C2487 1.429 . S
C2496 N2493 1.350 . S
C2496 C2495 1.434 . S
C2497 C2498 1.369 . S
C2497 C2499 1.419 . S
C2497 H2501 0.930 . S
C2498 C2497 1.369 . S
C2498 C2507 1.429 . S
C2499 C2497 1.419 . S
C2499 C2500 1.363 . S
C2499 H2502 0.929 . S
C2500 C2499 1.363 . S
C2500 C2506 1.428 . S
H2501 C2497 0.930 . S
H2502 C2499 0.929 . S
S2503 N2504 1.613 . S
S2503 N2505 1.610 . S
N2504 S2503 1.613 . S
N2504 C2507 1.350 . S
N2505 S2503 1.610 . S
N2505 C2506 1.351 . S
C2506 C2500 1.428 . S
C2506 N2505 1.351 . S
C2506 C2507 1.434 . S
C2507 C2498 1.429 . S
C2507 N2504 1.350 . S
C2507 C2506 1.434 . S
C2508 C2509 1.369 . S
C2508 C2510 1.419 . S
C2508 H2512 0.930 . S
C2509 C2508 1.369 . S
C2509 C2518 1.429 . S
C2510 C2508 1.419 . S
C2510 C2511 1.363 . S
C2510 H2513 0.929 . S
C2511 C2510 1.363 . S
C2511 C2517 1.428 . S
H2512 C2508 0.930 . S
H2513 C2510 0.929 . S
S2514 N2515 1.613 . S
S2514 N2516 1.610 . S
N2515 S2514 1.613 . S
N2515 C2518 1.350 . S
N2516 S2514 1.610 . S
N2516 C2517 1.351 . S
C2517 C2511 1.428 . S
C2517 N2516 1.351 . S
C2517 C2518 1.434 . S
C2518 C2509 1.429 . S
C2518 N2515 1.350 . S
C2518 C2517 1.434 . S
C2519 C2520 1.369 . S
C2519 C2521 1.419 . S
C2519 H2523 0.930 . S
C2520 C2519 1.369 . S
C2520 C2529 1.429 . S
C2521 C2519 1.419 . S
C2521 C2522 1.363 . S
C2521 H2524 0.929 . S
C2522 C2521 1.363 . S
C2522 C2528 1.428 . S
H2523 C2519 0.930 . S
H2524 C2521 0.929 . S
S2525 N2526 1.613 . S
S2525 N2527 1.610 . S
N2526 S2525 1.613 . S
N2526 C2529 1.350 . S
N2527 S2525 1.610 . S
N2527 C2528 1.351 . S
C2528 C2522 1.428 . S
C2528 N2527 1.351 . S
C2528 C2529 1.434 . S
C2529 C2520 1.429 . S
C2529 N2526 1.350 . S
C2529 C2528 1.434 . S
C2530 C2531 1.369 . S
C2530 C2532 1.419 . S
C2530 H2534 0.930 . S
C2531 C2530 1.369 . S
C2531 C2540 1.429 . S
C2532 C2530 1.419 . S
C2532 C2533 1.363 . S
C2532 H2535 0.929 . S
C2533 C2532 1.363 . S
C2533 C2539 1.428 . S
H2534 C2530 0.930 . S
H2535 C2532 0.929 . S
S2536 N2537 1.613 . S
S2536 N2538 1.610 . S
N2537 S2536 1.613 . S
N2537 C2540 1.350 . S
N2538 S2536 1.610 . S
N2538 C2539 1.351 . S
C2539 C2533 1.428 . S
C2539 N2538 1.351 . S
C2539 C2540 1.434 . S
C2540 C2531 1.429 . S
C2540 N2537 1.350 . S
C2540 C2539 1.434 . S
C2541 C2542 1.369 . S
C2541 C2543 1.419 . S
C2541 H2545 0.930 . S
C2542 C2541 1.369 . S
C2542 C2551 1.429 . S
C2543 C2541 1.419 . S
C2543 C2544 1.363 . S
C2543 H2546 0.929 . S
C2544 C2543 1.363 . S
C2544 C2550 1.428 . S
H2545 C2541 0.930 . S
H2546 C2543 0.929 . S
S2547 N2548 1.613 . S
S2547 N2549 1.610 . S
N2548 S2547 1.613 . S
N2548 C2551 1.350 . S
N2549 S2547 1.610 . S
N2549 C2550 1.351 . S
C2550 C2544 1.428 . S
C2550 N2549 1.351 . S
C2550 C2551 1.434 . S
C2551 C2542 1.429 . S
C2551 N2548 1.350 . S
C2551 C2550 1.434 . S
C2552 C2553 1.369 . S
C2552 C2554 1.419 . S
C2552 H2556 0.930 . S
C2553 C2552 1.369 . S
C2553 C2562 1.429 . S
C2554 C2552 1.419 . S
C2554 C2555 1.363 . S
C2554 H2557 0.929 . S
C2555 C2554 1.363 . S
C2555 C2561 1.428 . S
H2556 C2552 0.930 . S
H2557 C2554 0.929 . S
S2558 N2559 1.613 . S
S2558 N2560 1.610 . S
N2559 S2558 1.613 . S
N2559 C2562 1.350 . S
N2560 S2558 1.610 . S
N2560 C2561 1.351 . S
C2561 C2555 1.428 . S
C2561 N2560 1.351 . S
C2561 C2562 1.434 . S
C2562 C2553 1.429 . S
C2562 N2559 1.350 . S
C2562 C2561 1.434 . S
C2563 C2564 1.369 . S
C2563 C2565 1.419 . S
C2563 H2567 0.930 . S
C2564 C2563 1.369 . S
C2564 C2573 1.429 . S
C2565 C2563 1.419 . S
C2565 C2566 1.363 . S
C2565 H2568 0.929 . S
C2566 C2565 1.363 . S
C2566 C2572 1.428 . S
H2567 C2563 0.930 . S
H2568 C2565 0.929 . S
S2569 N2570 1.613 . S
S2569 N2571 1.610 . S
N2570 S2569 1.613 . S
N2570 C2573 1.350 . S
N2571 S2569 1.610 . S
N2571 C2572 1.351 . S
C2572 C2566 1.428 . S
C2572 N2571 1.351 . S
C2572 C2573 1.434 . S
C2573 C2564 1.429 . S
C2573 N2570 1.350 . S
C2573 C2572 1.434 . S
C2574 C2575 1.369 . S
C2574 C2576 1.419 . S
C2574 H2578 0.930 . S
C2575 C2574 1.369 . S
C2575 C2584 1.429 . S
C2576 C2574 1.419 . S
C2576 C2577 1.363 . S
C2576 H2579 0.929 . S
C2577 C2576 1.363 . S
C2577 C2583 1.428 . S
H2578 C2574 0.930 . S
H2579 C2576 0.929 . S
S2580 N2581 1.613 . S
S2580 N2582 1.610 . S
N2581 S2580 1.613 . S
N2581 C2584 1.350 . S
N2582 S2580 1.610 . S
N2582 C2583 1.351 . S
C2583 C2577 1.428 . S
C2583 N2582 1.351 . S
C2583 C2584 1.434 . S
C2584 C2575 1.429 . S
C2584 N2581 1.350 . S
C2584 C2583 1.434 . S
C2585 C2586 1.369 . S
C2585 C2587 1.419 . S
C2585 H2589 0.930 . S
C2586 C2585 1.369 . S
C2586 C2595 1.429 . S
C2587 C2585 1.419 . S
C2587 C2588 1.363 . S
C2587 H2590 0.929 . S
C2588 C2587 1.363 . S
C2588 C2594 1.428 . S
H2589 C2585 0.930 . S
H2590 C2587 0.929 . S
S2591 N2592 1.613 . S
S2591 N2593 1.610 . S
N2592 S2591 1.613 . S
N2592 C2595 1.350 . S
N2593 S2591 1.610 . S
N2593 C2594 1.351 . S
C2594 C2588 1.428 . S
C2594 N2593 1.351 . S
C2594 C2595 1.434 . S
C2595 C2586 1.429 . S
C2595 N2592 1.350 . S
C2595 C2594 1.434 . S
C2596 C2597 1.369 . S
C2596 C2598 1.419 . S
C2596 H2600 0.930 . S
C2597 C2596 1.369 . S
C2597 C2606 1.429 . S
C2598 C2596 1.419 . S
C2598 C2599 1.363 . S
C2598 H2601 0.929 . S
C2599 C2598 1.363 . S
C2599 C2605 1.428 . S
H2600 C2596 0.930 . S
H2601 C2598 0.929 . S
S2602 N2603 1.613 . S
S2602 N2604 1.610 . S
N2603 S2602 1.613 . S
N2603 C2606 1.350 . S
N2604 S2602 1.610 . S
N2604 C2605 1.351 . S
C2605 C2599 1.428 . S
C2605 N2604 1.351 . S
C2605 C2606 1.434 . S
C2606 C2597 1.429 . S
C2606 N2603 1.350 . S
C2606 C2605 1.434 . S
C2607 C2608 1.369 . S
C2607 C2609 1.419 . S
C2607 H2611 0.930 . S
C2608 C2607 1.369 . S
C2608 C2617 1.429 . S
C2609 C2607 1.419 . S
C2609 C2610 1.363 . S
C2609 H2612 0.929 . S
C2610 C2609 1.363 . S
C2610 C2616 1.428 . S
H2611 C2607 0.930 . S
H2612 C2609 0.929 . S
S2613 N2614 1.613 . S
S2613 N2615 1.610 . S
N2614 S2613 1.613 . S
N2614 C2617 1.350 . S
N2615 S2613 1.610 . S
N2615 C2616 1.351 . S
C2616 C2610 1.428 . S
C2616 N2615 1.351 . S
C2616 C2617 1.434 . S
C2617 C2608 1.429 . S
C2617 N2614 1.350 . S
C2617 C2616 1.434 . S
C2618 C2619 1.369 . S
C2618 C2620 1.419 . S
C2618 H2622 0.930 . S
C2619 C2618 1.369 . S
C2619 C2628 1.429 . S
C2620 C2618 1.419 . S
C2620 C2621 1.363 . S
C2620 H2623 0.929 . S
C2621 C2620 1.363 . S
C2621 C2627 1.428 . S
H2622 C2618 0.930 . S
H2623 C2620 0.929 . S
S2624 N2625 1.613 . S
S2624 N2626 1.610 . S
N2625 S2624 1.613 . S
N2625 C2628 1.350 . S
N2626 S2624 1.610 . S
N2626 C2627 1.351 . S
C2627 C2621 1.428 . S
C2627 N2626 1.351 . S
C2627 C2628 1.434 . S
C2628 C2619 1.429 . S
C2628 N2625 1.350 . S
C2628 C2627 1.434 . S
C2629 C2630 1.369 . S
C2629 C2631 1.419 . S
C2629 H2633 0.930 . S
C2630 C2629 1.369 . S
C2630 C2639 1.429 . S
C2631 C2629 1.419 . S
C2631 C2632 1.363 . S
C2631 H2634 0.929 . S
C2632 C2631 1.363 . S
C2632 C2638 1.428 . S
H2633 C2629 0.930 . S
H2634 C2631 0.929 . S
S2635 N2636 1.613 . S
S2635 N2637 1.610 . S
N2636 S2635 1.613 . S
N2636 C2639 1.350 . S
N2637 S2635 1.610 . S
N2637 C2638 1.351 . S
C2638 C2632 1.428 . S
C2638 N2637 1.351 . S
C2638 C2639 1.434 . S
C2639 C2630 1.429 . S
C2639 N2636 1.350 . S
C2639 C2638 1.434 . S
C2640 C2641 1.369 . S
C2640 C2642 1.419 . S
C2640 H2644 0.930 . S
C2641 C2640 1.369 . S
C2641 C2650 1.429 . S
C2642 C2640 1.419 . S
C2642 C2643 1.363 . S
C2642 H2645 0.929 . S
C2643 C2642 1.363 . S
C2643 C2649 1.428 . S
H2644 C2640 0.930 . S
H2645 C2642 0.929 . S
S2646 N2647 1.613 . S
S2646 N2648 1.610 . S
N2647 S2646 1.613 . S
N2647 C2650 1.350 . S
N2648 S2646 1.610 . S
N2648 C2649 1.351 . S
C2649 C2643 1.428 . S
C2649 N2648 1.351 . S
C2649 C2650 1.434 . S
C2650 C2641 1.429 . S
C2650 N2647 1.350 . S
C2650 C2649 1.434 . S
C2651 C2652 1.369 . S
C2651 C2653 1.419 . S
C2651 H2655 0.930 . S
C2652 C2651 1.369 . S
C2652 C2661 1.429 . S
C2653 C2651 1.419 . S
C2653 C2654 1.363 . S
C2653 H2656 0.929 . S
C2654 C2653 1.363 . S
C2654 C2660 1.428 . S
H2655 C2651 0.930 . S
H2656 C2653 0.929 . S
S2657 N2658 1.613 . S
S2657 N2659 1.610 . S
N2658 S2657 1.613 . S
N2658 C2661 1.350 . S
N2659 S2657 1.610 . S
N2659 C2660 1.351 . S
C2660 C2654 1.428 . S
C2660 N2659 1.351 . S
C2660 C2661 1.434 . S
C2661 C2652 1.429 . S
C2661 N2658 1.350 . S
C2661 C2660 1.434 . S
C2662 C2663 1.369 . S
C2662 C2664 1.419 . S
C2662 H2666 0.930 . S
C2663 C2662 1.369 . S
C2663 C2672 1.429 . S
C2664 C2662 1.419 . S
C2664 C2665 1.363 . S
C2664 H2667 0.929 . S
C2665 C2664 1.363 . S
C2665 C2671 1.428 . S
H2666 C2662 0.930 . S
H2667 C2664 0.929 . S
S2668 N2669 1.613 . S
S2668 N2670 1.610 . S
N2669 S2668 1.613 . S
N2669 C2672 1.350 . S
N2670 S2668 1.610 . S
N2670 C2671 1.351 . S
C2671 C2665 1.428 . S
C2671 N2670 1.351 . S
C2671 C2672 1.434 . S
C2672 C2663 1.429 . S
C2672 N2669 1.350 . S
C2672 C2671 1.434 . S
C2673 C2674 1.369 . S
C2673 C2675 1.419 . S
C2673 H2677 0.930 . S
C2674 C2673 1.369 . S
C2674 C2683 1.429 . S
C2675 C2673 1.419 . S
C2675 C2676 1.363 . S
C2675 H2678 0.929 . S
C2676 C2675 1.363 . S
C2676 C2682 1.428 . S
H2677 C2673 0.930 . S
H2678 C2675 0.929 . S
S2679 N2680 1.613 . S
S2679 N2681 1.610 . S
N2680 S2679 1.613 . S
N2680 C2683 1.350 . S
N2681 S2679 1.610 . S
N2681 C2682 1.351 . S
C2682 C2676 1.428 . S
C2682 N2681 1.351 . S
C2682 C2683 1.434 . S
C2683 C2674 1.429 . S
C2683 N2680 1.350 . S
C2683 C2682 1.434 . S
C2684 C2685 1.369 . S
C2684 C2686 1.419 . S
C2684 H2688 0.930 . S
C2685 C2684 1.369 . S
C2685 C2694 1.429 . S
C2686 C2684 1.419 . S
C2686 C2687 1.363 . S
C2686 H2689 0.929 . S
C2687 C2686 1.363 . S
C2687 C2693 1.428 . S
H2688 C2684 0.930 . S
H2689 C2686 0.929 . S
S2690 N2691 1.613 . S
S2690 N2692 1.610 . S
N2691 S2690 1.613 . S
N2691 C2694 1.350 . S
N2692 S2690 1.610 . S
N2692 C2693 1.351 . S
C2693 C2687 1.428 . S
C2693 N2692 1.351 . S
C2693 C2694 1.434 . S
C2694 C2685 1.429 . S
C2694 N2691 1.350 . S
C2694 C2693 1.434 . S
C2695 C2696 1.369 . S
C2695 C2697 1.419 . S
C2695 H2699 0.930 . S
C2696 C2695 1.369 . S
C2696 C2705 1.429 . S
C2697 C2695 1.419 . S
C2697 C2698 1.363 . S
C2697 H2700 0.929 . S
C2698 C2697 1.363 . S
C2698 C2704 1.428 . S
H2699 C2695 0.930 . S
H2700 C2697 0.929 . S
S2701 N2702 1.613 . S
S2701 N2703 1.610 . S
N2702 S2701 1.613 . S
N2702 C2705 1.350 . S
N2703 S2701 1.610 . S
N2703 C2704 1.351 . S
C2704 C2698 1.428 . S
C2704 N2703 1.351 . S
C2704 C2705 1.434 . S
C2705 C2696 1.429 . S
C2705 N2702 1.350 . S
C2705 C2704 1.434 . S
C2706 C2707 1.369 . S
C2706 C2708 1.419 . S
C2706 H2710 0.930 . S
C2707 C2706 1.369 . S
C2707 C2716 1.429 . S
C2708 C2706 1.419 . S
C2708 C2709 1.363 . S
C2708 H2711 0.929 . S
C2709 C2708 1.363 . S
C2709 C2715 1.428 . S
H2710 C2706 0.930 . S
H2711 C2708 0.929 . S
S2712 N2713 1.613 . S
S2712 N2714 1.610 . S
N2713 S2712 1.613 . S
N2713 C2716 1.350 . S
N2714 S2712 1.610 . S
N2714 C2715 1.351 . S
C2715 C2709 1.428 . S
C2715 N2714 1.351 . S
C2715 C2716 1.434 . S
C2716 C2707 1.429 . S
C2716 N2713 1.350 . S
C2716 C2715 1.434 . S
C2717 C2718 1.369 . S
C2717 C2719 1.419 . S
C2717 H2721 0.930 . S
C2718 C2717 1.369 . S
C2718 C2727 1.429 . S
C2719 C2717 1.419 . S
C2719 C2720 1.363 . S
C2719 H2722 0.929 . S
C2720 C2719 1.363 . S
C2720 C2726 1.428 . S
H2721 C2717 0.930 . S
H2722 C2719 0.929 . S
S2723 N2724 1.613 . S
S2723 N2725 1.610 . S
N2724 S2723 1.613 . S
N2724 C2727 1.350 . S
N2725 S2723 1.610 . S
N2725 C2726 1.351 . S
C2726 C2720 1.428 . S
C2726 N2725 1.351 . S
C2726 C2727 1.434 . S
C2727 C2718 1.429 . S
C2727 N2724 1.350 . S
C2727 C2726 1.434 . S
C2728 C2729 1.369 . S
C2728 C2730 1.419 . S
C2728 H2732 0.930 . S
C2729 C2728 1.369 . S
C2729 C2738 1.429 . S
C2730 C2728 1.419 . S
C2730 C2731 1.363 . S
C2730 H2733 0.929 . S
C2731 C2730 1.363 . S
C2731 C2737 1.428 . S
H2732 C2728 0.930 . S
H2733 C2730 0.929 . S
S2734 N2735 1.613 . S
S2734 N2736 1.610 . S
N2735 S2734 1.613 . S
N2735 C2738 1.350 . S
N2736 S2734 1.610 . S
N2736 C2737 1.351 . S
C2737 C2731 1.428 . S
C2737 N2736 1.351 . S
C2737 C2738 1.434 . S
C2738 C2729 1.429 . S
C2738 N2735 1.350 . S
C2738 C2737 1.434 . S
C2739 C2740 1.369 . S
C2739 C2741 1.419 . S
C2739 H2743 0.930 . S
C2740 C2739 1.369 . S
C2740 C2749 1.429 . S
C2741 C2739 1.419 . S
C2741 C2742 1.363 . S
C2741 H2744 0.929 . S
C2742 C2741 1.363 . S
C2742 C2748 1.428 . S
H2743 C2739 0.930 . S
H2744 C2741 0.929 . S
S2745 N2746 1.613 . S
S2745 N2747 1.610 . S
N2746 S2745 1.613 . S
N2746 C2749 1.350 . S
N2747 S2745 1.610 . S
N2747 C2748 1.351 . S
C2748 C2742 1.428 . S
C2748 N2747 1.351 . S
C2748 C2749 1.434 . S
C2749 C2740 1.429 . S
C2749 N2746 1.350 . S
C2749 C2748 1.434 . S
C2750 C2751 1.369 . S
C2750 C2752 1.419 . S
C2750 H2754 0.930 . S
C2751 C2750 1.369 . S
C2751 C2760 1.429 . S
C2752 C2750 1.419 . S
C2752 C2753 1.363 . S
C2752 H2755 0.929 . S
C2753 C2752 1.363 . S
C2753 C2759 1.428 . S
H2754 C2750 0.930 . S
H2755 C2752 0.929 . S
S2756 N2757 1.613 . S
S2756 N2758 1.610 . S
N2757 S2756 1.613 . S
N2757 C2760 1.350 . S
N2758 S2756 1.610 . S
N2758 C2759 1.351 . S
C2759 C2753 1.428 . S
C2759 N2758 1.351 . S
C2759 C2760 1.434 . S
C2760 C2751 1.429 . S
C2760 N2757 1.350 . S
C2760 C2759 1.434 . S
C2761 C2762 1.369 . S
C2761 C2763 1.419 . S
C2761 H2765 0.930 . S
C2762 C2761 1.369 . S
C2762 C2771 1.429 . S
C2763 C2761 1.419 . S
C2763 C2764 1.363 . S
C2763 H2766 0.929 . S
C2764 C2763 1.363 . S
C2764 C2770 1.428 . S
H2765 C2761 0.930 . S
H2766 C2763 0.929 . S
S2767 N2768 1.613 . S
S2767 N2769 1.610 . S
N2768 S2767 1.613 . S
N2768 C2771 1.350 . S
N2769 S2767 1.610 . S
N2769 C2770 1.351 . S
C2770 C2764 1.428 . S
C2770 N2769 1.351 . S
C2770 C2771 1.434 . S
C2771 C2762 1.429 . S
C2771 N2768 1.350 . S
C2771 C2770 1.434 . S
C2772 C2773 1.369 . S
C2772 C2774 1.419 . S
C2772 H2776 0.930 . S
C2773 C2772 1.369 . S
C2773 C2782 1.429 . S
C2774 C2772 1.419 . S
C2774 C2775 1.363 . S
C2774 H2777 0.929 . S
C2775 C2774 1.363 . S
C2775 C2781 1.428 . S
H2776 C2772 0.930 . S
H2777 C2774 0.929 . S
S2778 N2779 1.613 . S
S2778 N2780 1.610 . S
N2779 S2778 1.613 . S
N2779 C2782 1.350 . S
N2780 S2778 1.610 . S
N2780 C2781 1.351 . S
C2781 C2775 1.428 . S
C2781 N2780 1.351 . S
C2781 C2782 1.434 . S
C2782 C2773 1.429 . S
C2782 N2779 1.350 . S
C2782 C2781 1.434 . S
C2783 C2784 1.369 . S
C2783 C2785 1.419 . S
C2783 H2787 0.930 . S
C2784 C2783 1.369 . S
C2784 C2793 1.429 . S
C2785 C2783 1.419 . S
C2785 C2786 1.363 . S
C2785 H2788 0.929 . S
C2786 C2785 1.363 . S
C2786 C2792 1.428 . S
H2787 C2783 0.930 . S
H2788 C2785 0.929 . S
S2789 N2790 1.613 . S
S2789 N2791 1.610 . S
N2790 S2789 1.613 . S
N2790 C2793 1.350 . S
N2791 S2789 1.610 . S
N2791 C2792 1.351 . S
C2792 C2786 1.428 . S
C2792 N2791 1.351 . S
C2792 C2793 1.434 . S
C2793 C2784 1.429 . S
C2793 N2790 1.350 . S
C2793 C2792 1.434 . S
C2794 C2795 1.369 . S
C2794 C2796 1.419 . S
C2794 H2798 0.930 . S
C2795 C2794 1.369 . S
C2795 C2804 1.429 . S
C2796 C2794 1.419 . S
C2796 C2797 1.363 . S
C2796 H2799 0.929 . S
C2797 C2796 1.363 . S
C2797 C2803 1.428 . S
H2798 C2794 0.930 . S
H2799 C2796 0.929 . S
S2800 N2801 1.613 . S
S2800 N2802 1.610 . S
N2801 S2800 1.613 . S
N2801 C2804 1.350 . S
N2802 S2800 1.610 . S
N2802 C2803 1.351 . S
C2803 C2797 1.428 . S
C2803 N2802 1.351 . S
C2803 C2804 1.434 . S
C2804 C2795 1.429 . S
C2804 N2801 1.350 . S
C2804 C2803 1.434 . S
C2805 C2806 1.369 . S
C2805 C2807 1.419 . S
C2805 H2809 0.930 . S
C2806 C2805 1.369 . S
C2806 C2815 1.429 . S
C2807 C2805 1.419 . S
C2807 C2808 1.363 . S
C2807 H2810 0.929 . S
C2808 C2807 1.363 . S
C2808 C2814 1.428 . S
H2809 C2805 0.930 . S
H2810 C2807 0.929 . S
S2811 N2812 1.613 . S
S2811 N2813 1.610 . S
N2812 S2811 1.613 . S
N2812 C2815 1.350 . S
N2813 S2811 1.610 . S
N2813 C2814 1.351 . S
C2814 C2808 1.428 . S
C2814 N2813 1.351 . S
C2814 C2815 1.434 . S
C2815 C2806 1.429 . S
C2815 N2812 1.350 . S
C2815 C2814 1.434 . S
C2816 C2817 1.369 . S
C2816 C2818 1.419 . S
C2816 H2820 0.930 . S
C2817 C2816 1.369 . S
C2817 C2826 1.429 . S
C2818 C2816 1.419 . S
C2818 C2819 1.363 . S
C2818 H2821 0.929 . S
C2819 C2818 1.363 . S
C2819 C2825 1.428 . S
H2820 C2816 0.930 . S
H2821 C2818 0.929 . S
S2822 N2823 1.613 . S
S2822 N2824 1.610 . S
N2823 S2822 1.613 . S
N2823 C2826 1.350 . S
N2824 S2822 1.610 . S
N2824 C2825 1.351 . S
C2825 C2819 1.428 . S
C2825 N2824 1.351 . S
C2825 C2826 1.434 . S
C2826 C2817 1.429 . S
C2826 N2823 1.350 . S
C2826 C2825 1.434 . S
C2827 C2828 1.369 . S
C2827 C2829 1.419 . S
C2827 H2831 0.930 . S
C2828 C2827 1.369 . S
C2828 C2837 1.429 . S
C2829 C2827 1.419 . S
C2829 C2830 1.363 . S
C2829 H2832 0.929 . S
C2830 C2829 1.363 . S
C2830 C2836 1.428 . S
H2831 C2827 0.930 . S
H2832 C2829 0.929 . S
S2833 N2834 1.613 . S
S2833 N2835 1.610 . S
N2834 S2833 1.613 . S
N2834 C2837 1.350 . S
N2835 S2833 1.610 . S
N2835 C2836 1.351 . S
C2836 C2830 1.428 . S
C2836 N2835 1.351 . S
C2836 C2837 1.434 . S
C2837 C2828 1.429 . S
C2837 N2834 1.350 . S
C2837 C2836 1.434 . S
C2838 C2839 1.369 . S
C2838 C2840 1.419 . S
C2838 H2842 0.930 . S
C2839 C2838 1.369 . S
C2839 C2848 1.429 . S
C2840 C2838 1.419 . S
C2840 C2841 1.363 . S
C2840 H2843 0.929 . S
C2841 C2840 1.363 . S
C2841 C2847 1.428 . S
H2842 C2838 0.930 . S
H2843 C2840 0.929 . S
S2844 N2845 1.613 . S
S2844 N2846 1.610 . S
N2845 S2844 1.613 . S
N2845 C2848 1.350 . S
N2846 S2844 1.610 . S
N2846 C2847 1.351 . S
C2847 C2841 1.428 . S
C2847 N2846 1.351 . S
C2847 C2848 1.434 . S
C2848 C2839 1.429 . S
C2848 N2845 1.350 . S
C2848 C2847 1.434 . S
C2849 C2850 1.369 . S
C2849 C2851 1.419 . S
C2849 H2853 0.930 . S
C2850 C2849 1.369 . S
C2850 C2859 1.429 . S
C2851 C2849 1.419 . S
C2851 C2852 1.363 . S
C2851 H2854 0.929 . S
C2852 C2851 1.363 . S
C2852 C2858 1.428 . S
H2853 C2849 0.930 . S
H2854 C2851 0.929 . S
S2855 N2856 1.613 . S
S2855 N2857 1.610 . S
N2856 S2855 1.613 . S
N2856 C2859 1.350 . S
N2857 S2855 1.610 . S
N2857 C2858 1.351 . S
C2858 C2852 1.428 . S
C2858 N2857 1.351 . S
C2858 C2859 1.434 . S
C2859 C2850 1.429 . S
C2859 N2856 1.350 . S
C2859 C2858 1.434 . S
C2860 C2861 1.369 . S
C2860 C2862 1.419 . S
C2860 H2864 0.930 . S
C2861 C2860 1.369 . S
C2861 C2870 1.429 . S
C2862 C2860 1.419 . S
C2862 C2863 1.363 . S
C2862 H2865 0.929 . S
C2863 C2862 1.363 . S
C2863 C2869 1.428 . S
H2864 C2860 0.930 . S
H2865 C2862 0.929 . S
S2866 N2867 1.613 . S
S2866 N2868 1.610 . S
N2867 S2866 1.613 . S
N2867 C2870 1.350 . S
N2868 S2866 1.610 . S
N2868 C2869 1.351 . S
C2869 C2863 1.428 . S
C2869 N2868 1.351 . S
C2869 C2870 1.434 . S
C2870 C2861 1.429 . S
C2870 N2867 1.350 . S
C2870 C2869 1.434 . S
C2871 C2872 1.369 . S
C2871 C2873 1.419 . S
C2871 H2875 0.930 . S
C2872 C2871 1.369 . S
C2872 C2881 1.429 . S
C2873 C2871 1.419 . S
C2873 C2874 1.363 . S
C2873 H2876 0.929 . S
C2874 C2873 1.363 . S
C2874 C2880 1.428 . S
H2875 C2871 0.930 . S
H2876 C2873 0.929 . S
S2877 N2878 1.613 . S
S2877 N2879 1.610 . S
N2878 S2877 1.613 . S
N2878 C2881 1.350 . S
N2879 S2877 1.610 . S
N2879 C2880 1.351 . S
C2880 C2874 1.428 . S
C2880 N2879 1.351 . S
C2880 C2881 1.434 . S
C2881 C2872 1.429 . S
C2881 N2878 1.350 . S
C2881 C2880 1.434 . S
C2882 C2883 1.369 . S
C2882 C2884 1.419 . S
C2882 H2886 0.930 . S
C2883 C2882 1.369 . S
C2883 C2892 1.429 . S
C2884 C2882 1.419 . S
C2884 C2885 1.363 . S
C2884 H2887 0.929 . S
C2885 C2884 1.363 . S
C2885 C2891 1.428 . S
H2886 C2882 0.930 . S
H2887 C2884 0.929 . S
S2888 N2889 1.613 . S
S2888 N2890 1.610 . S
N2889 S2888 1.613 . S
N2889 C2892 1.350 . S
N2890 S2888 1.610 . S
N2890 C2891 1.351 . S
C2891 C2885 1.428 . S
C2891 N2890 1.351 . S
C2891 C2892 1.434 . S
C2892 C2883 1.429 . S
C2892 N2889 1.350 . S
C2892 C2891 1.434 . S
C2893 C2894 1.369 . S
C2893 C2895 1.419 . S
C2893 H2897 0.930 . S
C2894 C2893 1.369 . S
C2894 C2903 1.429 . S
C2895 C2893 1.419 . S
C2895 C2896 1.363 . S
C2895 H2898 0.929 . S
C2896 C2895 1.363 . S
C2896 C2902 1.428 . S
H2897 C2893 0.930 . S
H2898 C2895 0.929 . S
S2899 N2900 1.613 . S
S2899 N2901 1.610 . S
N2900 S2899 1.613 . S
N2900 C2903 1.350 . S
N2901 S2899 1.610 . S
N2901 C2902 1.351 . S
C2902 C2896 1.428 . S
C2902 N2901 1.351 . S
C2902 C2903 1.434 . S
C2903 C2894 1.429 . S
C2903 N2900 1.350 . S
C2903 C2902 1.434 . S
C1585 C282 1.125 . S
C1587 N13 1.133 . S
C1596 C315 1.130 . S
C1598 N46 1.132 . S
C1607 N79 1.132 . S
C1609 C348 1.126 . S
C1618 N112 1.133 . S
C1620 C381 1.127 . S
C1629 N145 1.133 . S
C1631 C414 1.128 . S
C1640 C447 1.128 . S
C1642 N178 1.132 1_455 S
C1651 C480 1.126 . S
C1653 N211 1.133 . S
C1662 N244 1.132 1_655 S
C1664 C513 1.129 . S
C1673 N277 1.133 . S
C1675 C546 1.125 . S
C1684 N310 1.132 1_554 S
C1686 C1569 1.129 . S
C1695 N343 1.133 . S
C1697 C1503 1.128 . S
C1706 N376 1.132 1_554 S
C1708 C1536 1.126 . S
C1717 C579 1.125 . S
C1719 N409 1.133 . S
C1728 C612 1.125 . S
C1730 N442 1.133 1_556 S
C1739 N475 1.131 . S
C1741 C645 1.128 . S
C1750 N508 1.132 1_556 S
C1752 C1470 1.126 . S
C1761 N541 1.133 . S
C1763 C18 1.125 . S
C1772 C150 1.125 . S
C1774 N574 1.132 . S
C1783 N607 1.133 . S
C1785 C183 1.125 . S
C1794 C216 1.128 . S
C1796 N640 1.132 . S
C1805 N673 1.133 . S
C1807 C1041 1.125 . S
C1816 N706 1.133 . S
C1818 C876 1.126 . S
C1827 N739 1.133 . S
C1829 C909 1.125 . S
C1838 N772 1.132 1_545 S
C1840 C843 1.126 . S
C1849 C1074 1.129 . S
C1851 N805 1.132 . S
C1860 C1107 1.126 . S
C1862 N838 1.132 1_655 S
C1871 C1140 1.130 . S
C1873 N871 1.132 . S
C1882 N904 1.133 1_455 S
C1884 C1173 1.125 . S
C1893 C1206 1.129 . S
C1895 N937 1.133 . S
C1904 C1239 1.125 . S
C1906 N970 1.133 . S
C1915 N1003 1.133 . S
C1917 C1272 1.127 . S
C1926 N1036 1.132 . S
C1928 C1305 1.126 . S
C1937 N1069 1.133 . S
C1939 C1338 1.125 . S
C1948 C777 1.128 . S
C1950 N1102 1.132 . S
C1959 C711 1.130 . S
C1961 N1135 1.132 . S
C1970 N1168 1.133 . S
C1972 C744 1.128 . S
C1981 N1201 1.133 . S
C1983 C1371 1.125 . S
C1992 N1234 1.132 . S
C1994 C1404 1.126 . S
C2003 C1437 1.128 . S
C2005 N1267 1.132 . S
C2014 N1300 1.133 . S
C2016 C678 1.128 . S
C2025 C810 1.125 . S
C2027 N1333 1.133 . S
C2036 N1366 1.133 . S
C2038 C942 1.126 . S
C2047 N1399 1.133 1_545 S
C2049 C975 1.128 . S
C2058 C1008 1.126 . S
C2060 N1432 1.133 . S
C2069 N1465 1.131 1_565 S
C2071 C249 1.129 . S
C2080 N1498 1.132 . S
C2082 C84 1.126 . S
C2091 C117 1.127 . S
C2093 N1531 1.133 1_565 S
C2102 C51 1.129 . S
C2104 N1564 1.132 . S
C2113 C21 1.788 . S
C2115 C87 1.792 . S
C2124 C54 1.789 . S
C2126 C120 1.793 . S
C2135 C219 1.793 . S
C2137 C153 1.789 . S
C2146 C186 1.789 . S
C2148 C252 1.793 . S
C2157 C417 1.793 . S
C2159 C285 1.789 . S
C2168 C318 1.793 . S
C2170 C450 1.790 . S
C2179 C483 1.793 . S
C2181 C351 1.789 . S
C2190 C516 1.788 . S
C2192 C384 1.791 . S
C2201 C1440 1.788 . S
C2203 C549 1.791 . S
C2212 C582 1.793 . S
C2214 C714 1.790 . S
C2223 C615 1.793 . S
C2225 C747 1.789 . S
C2234 C648 1.791 . S
C2236 C1341 1.789 . S
C2245 C1572 1.789 . S
C2247 C681 1.793 . S
C2256 C1473 1.793 . S
C2258 C780 1.789 . S
C2267 C879 1.788 . S
C2269 C813 1.791 . S
C2278 C912 1.789 . S
C2280 C846 1.793 . S
C2289 C1011 1.793 . S
C2291 C945 1.790 . S
C2300 C1044 1.793 . S
C2302 C978 1.790 . S
C2311 C1077 1.792 . S
C2313 C1209 1.791 . S
C2322 C1242 1.788 . S
C2324 C1110 1.792 . S
C2333 C1143 1.788 . S
C2335 C1275 1.791 . S
C2344 C1308 1.791 . S
C2346 C1176 1.789 . S
C2355 C1506 1.793 . S
C2357 C1374 1.790 . S
C2366 C1407 1.793 . S
C2368 C1539 1.789 . S
C2377 C436 1.707 . S
C2379 N2 1.579 . S
C2388 C469 1.705 . S
C2390 N35 1.581 . S
C2399 N68 1.574 . S
C2401 C502 1.707 . S
C2410 N101 1.585 . S
C2412 C403 1.706 . S
C2421 N134 1.585 . S
C2423 C1162 1.706 . S
C2432 C1063 1.707 . S
C2434 N167 1.581 . S
C2443 C1096 1.706 . S
C2445 N200 1.584 . S
C2454 N233 1.584 . S
C2456 C1129 1.707 . S
C2465 N266 1.580 . S
C2467 C832 1.707 . S
C2476 C865 1.707 . S
C2478 N299 1.580 . S
C2487 C898 1.706 . S
C2489 N332 1.576 . S
C2498 N365 1.574 . S
C2500 C799 1.706 . S
C2509 N398 1.585 . S
C2511 C238 1.706 . S
C2520 N431 1.582 . S
C2522 C139 1.706 . S
C2531 C172 1.705 . S
C2533 N464 1.581 . S
C2542 N497 1.585 . S
C2544 C205 1.706 . S
C2553 C1525 1.706 . S
C2555 N530 1.583 . S
C2564 N563 1.585 . S
C2566 C1393 1.706 . S
C2575 C1426 1.707 . S
C2577 N596 1.584 . S
C2586 N629 1.585 . S
C2588 C667 1.706 . S
C2597 C568 1.706 . S
C2599 N662 1.584 . S
C2608 N695 1.574 . S
C2610 C766 1.706 . S
C2619 N728 1.574 . S
C2621 C700 1.706 . S
C2630 C1327 1.705 . S
C2632 N761 1.582 . S
C2641 C1228 1.706 . S
C2643 N794 1.577 . S
C2652 C1261 1.707 . S
C2654 N827 1.581 . S
C2663 N860 1.574 . S
C2665 C1294 1.706 . S
C2674 N893 1.574 . S
C2676 C1195 1.706 . S
C2685 C370 1.707 . S
C2687 N926 1.578 . S
C2696 N959 1.574 . S
C2698 C271 1.706 . S
C2707 N992 1.578 . S
C2709 C304 1.706 . S
C2718 N1025 1.579 . S
C2720 C337 1.706 . S
C2729 N1058 1.577 . S
C2731 C40 1.706 . S
C2740 N1091 1.580 . S
C2742 C73 1.707 . S
C2751 N1124 1.574 . S
C2753 C106 1.706 . S
C2762 N1157 1.583 . S
C2764 C7 1.706 . S
C2773 C1030 1.706 . S
C2775 N1190 1.584 . S
C2784 C931 1.707 . S
C2786 N1223 1.576 . S
C2795 N1256 1.574 . S
C2797 C964 1.706 . S
C2806 N1289 1.583 . S
C2808 C997 1.706 . S
C2817 C733 1.705 . S
C2819 N1322 1.580 . S
C2828 N1355 1.574 . S
C2830 C601 1.707 . S
C2839 C634 1.707 . S
C2841 N1388 1.576 . S
C2850 N1421 1.585 . S
C2852 C1459 1.706 . S
C2861 C1360 1.706 . S
C2863 N1454 1.583 . S
C2872 C1558 1.707 . S
C2874 N1487 1.578 . S
C2883 C1492 1.705 . S
C2885 N1520 1.581 . S
C2894 N1553 1.577 . S
C2896 C535 1.707 . S
