# Generated by pormake.
# Topology wkt, (7)-cn, num edge types: 1
# Building blocks:
#     Node 0, Type 0, BuildingBlock: NUHQUE_clean_sbu_2, # of connection points: 7
#     Node 1, Type 0, BuildingBlock: NUHQUE_clean_sbu_2, # of connection points: 7
#     Node 2, Type 0, BuildingBlock: NUHQUE_clean_sbu_2, # of connection points: 7
#     Node 3, Type 0, BuildingBlock: NUHQUE_clean_sbu_2, # of connection points: 7
#     Node 4, Type 0, BuildingBlock: NUHQUE_clean_sbu_2, # of connection points: 7
#     Node 5, Type 0, BuildingBlock: NUHQUE_clean_sbu_2, # of connection points: 7
#     Node 6, Type 0, BuildingBlock: NUHQUE_clean_sbu_2, # of connection points: 7
#     Node 7, Type 0, BuildingBlock: NUHQUE_clean_sbu_2, # of connection points: 7
#     Node 8, Type 0, BuildingBlock: NUHQUE_clean_sbu_2, # of connection points: 7
#     Node 9, Type 0, BuildingBlock: NUHQUE_clean_sbu_2, # of connection points: 7
#     Node 10, Type 0, BuildingBlock: NUHQUE_clean_sbu_2, # of connection points: 7
#     Node 11, Type 0, BuildingBlock: NUHQUE_clean_sbu_2, # of connection points: 7
#     Edge 12, Type (0, 0), BuildingBlock: UVAHIK_clean_linker_0, # of connection points: 2
#     Edge 13, Type (0, 0), BuildingBlock: UVAHIK_clean_linker_0, # of connection points: 2
#     Edge 14, Type (0, 0), BuildingBlock: UVAHIK_clean_linker_0, # of connection points: 2
#     Edge 15, Type (0, 0), BuildingBlock: UVAHIK_clean_linker_0, # of connection points: 2
#     Edge 16, Type (0, 0), BuildingBlock: UVAHIK_clean_linker_0, # of connection points: 2
#     Edge 17, Type (0, 0), BuildingBlock: UVAHIK_clean_linker_0, # of connection points: 2
#     Edge 18, Type (0, 0), BuildingBlock: UVAHIK_clean_linker_0, # of connection points: 2
#     Edge 19, Type (0, 0), BuildingBlock: UVAHIK_clean_linker_0, # of connection points: 2
#     Edge 20, Type (0, 0), BuildingBlock: UVAHIK_clean_linker_0, # of connection points: 2
#     Edge 21, Type (0, 0), BuildingBlock: UVAHIK_clean_linker_0, # of connection points: 2
#     Edge 22, Type (0, 0), BuildingBlock: UVAHIK_clean_linker_0, # of connection points: 2
#     Edge 23, Type (0, 0), BuildingBlock: UVAHIK_clean_linker_0, # of connection points: 2
#     Edge 24, Type (0, 0), BuildingBlock: UVAHIK_clean_linker_0, # of connection points: 2
#     Edge 25, Type (0, 0), BuildingBlock: UVAHIK_clean_linker_0, # of connection points: 2
#     Edge 26, Type (0, 0), BuildingBlock: UVAHIK_clean_linker_0, # of connection points: 2
#     Edge 27, Type (0, 0), BuildingBlock: UVAHIK_clean_linker_0, # of connection points: 2
#     Edge 28, Type (0, 0), BuildingBlock: UVAHIK_clean_linker_0, # of connection points: 2
#     Edge 29, Type (0, 0), BuildingBlock: UVAHIK_clean_linker_0, # of connection points: 2
#     Edge 30, Type (0, 0), BuildingBlock: UVAHIK_clean_linker_0, # of connection points: 2
#     Edge 31, Type (0, 0), BuildingBlock: UVAHIK_clean_linker_0, # of connection points: 2
#     Edge 32, Type (0, 0), BuildingBlock: UVAHIK_clean_linker_0, # of connection points: 2
#     Edge 33, Type (0, 0), BuildingBlock: UVAHIK_clean_linker_0, # of connection points: 2
#     Edge 34, Type (0, 0), BuildingBlock: UVAHIK_clean_linker_0, # of connection points: 2
#     Edge 35, Type (0, 0), BuildingBlock: UVAHIK_clean_linker_0, # of connection points: 2
#     Edge 36, Type (0, 0), BuildingBlock: UVAHIK_clean_linker_0, # of connection points: 2
#     Edge 37, Type (0, 0), BuildingBlock: UVAHIK_clean_linker_0, # of connection points: 2
#     Edge 38, Type (0, 0), BuildingBlock: UVAHIK_clean_linker_0, # of connection points: 2
#     Edge 39, Type (0, 0), BuildingBlock: UVAHIK_clean_linker_0, # of connection points: 2
#     Edge 40, Type (0, 0), BuildingBlock: UVAHIK_clean_linker_0, # of connection points: 2
#     Edge 41, Type (0, 0), BuildingBlock: UVAHIK_clean_linker_0, # of connection points: 2
#     Edge 42, Type (0, 0), BuildingBlock: UVAHIK_clean_linker_0, # of connection points: 2
#     Edge 43, Type (0, 0), BuildingBlock: UVAHIK_clean_linker_0, # of connection points: 2
#     Edge 44, Type (0, 0), BuildingBlock: UVAHIK_clean_linker_0, # of connection points: 2
#     Edge 45, Type (0, 0), BuildingBlock: UVAHIK_clean_linker_0, # of connection points: 2
#     Edge 46, Type (0, 0), BuildingBlock: UVAHIK_clean_linker_0, # of connection points: 2
#     Edge 47, Type (0, 0), BuildingBlock: UVAHIK_clean_linker_0, # of connection points: 2
#     Edge 48, Type (0, 0), BuildingBlock: UVAHIK_clean_linker_0, # of connection points: 2
#     Edge 49, Type (0, 0), BuildingBlock: UVAHIK_clean_linker_0, # of connection points: 2
#     Edge 50, Type (0, 0), BuildingBlock: UVAHIK_clean_linker_0, # of connection points: 2
#     Edge 51, Type (0, 0), BuildingBlock: UVAHIK_clean_linker_0, # of connection points: 2
#     Edge 52, Type (0, 0), BuildingBlock: UVAHIK_clean_linker_0, # of connection points: 2
#     Edge 53, Type (0, 0), BuildingBlock: UVAHIK_clean_linker_0, # of connection points: 2
# Relax obj value: 0.239
# Max RMSD: 0.272
# Mean RMSD: 0.272
data_MOF--net-wkt--node1-NUHQUE_clean_sbu_2--edge1-UVAHIK_clean_linker_0
_symmetry_space_group_name_H-M    P1
_symmetry_Int_Tables_number       1
_symmetry_cell_setting            triclinic
loop_
_symmetry_equiv_pos_as_xyz
'x, y, z'
_cell_length_a     40.406936
_cell_length_b     40.486901
_cell_length_c     86.692663
_cell_angle_alpha  89.706571
_cell_angle_beta   90.160348
_cell_angle_gamma 119.99227
loop_
_atom_site_label
_atom_site_type_symbol
_atom_site_fract_x
_atom_site_fract_y
_atom_site_fract_z
_atom_type_partial_charge
O0 O 0.37962 0.48413 0.03422 0.0
Tb1 Tb 0.40753 0.52493 0.01527 0.0
Eu2 Eu 0.37006 0.44573 -0.004 0.0
C3 C 0.34385 0.45628 0.03375 0.0
O4 O 0.3254 0.44807 0.02069 0.0
C5 C 0.32784 0.49947 -0.00244 0.0
O6 O 0.40538 0.47006 0.9747 0.0
C7 C 0.33345 0.37185 -0.00243 0.0
C8 C 0.41703 0.50582 0.97128 0.0
O9 O 0.40184 0.52331 0.97861 0.0
C10 C 0.45947 0.49371 0.00392 0.0
C11 C 0.34279 0.34094 -0.0002 0.0
C12 C 0.34131 0.32571 0.01465 0.0
C13 C 0.35152 0.29756 0.01686 0.0
C14 C 0.36245 0.28403 0.00416 0.0
C15 C 0.36288 0.29779 -0.01075 0.0
C16 C 0.35297 0.3262 0.98712 0.0
O17 O 0.35736 0.52577 0.00545 0.0
O18 O 0.32714 0.46789 -0.00719 0.0
O19 O 0.4378 0.5566 0.03575 0.0
O20 O 0.43259 0.58689 0.01671 0.0
C21 C 0.44635 0.59002 0.03055 0.0
O22 O 0.42863 0.46016 0.00611 0.0
O23 O 0.45469 0.5235 0.00304 0.0
O24 O 0.34348 0.39081 0.98439 0.0
O25 O 0.33891 0.39382 0.00958 0.0
H26 H 0.33281 0.33604 0.02453 0.0
H27 H 0.3695 0.2617 0.00589 0.0
H28 H 0.35365 0.33707 0.97561 0.0
O29 O 0.88908 0.36879 0.18322 0.0
Tb30 Tb 0.88744 0.40371 0.16428 0.0
Eu31 Eu 0.9322 0.35993 0.15901 0.0
C32 C 0.85671 0.34828 0.19076 0.0
O33 O 0.82719 0.35169 0.18669 0.0
C34 C 0.83786 0.31986 0.15411 0.0
O35 O 0.9522 0.38399 0.13538 0.0
C36 C 0.96762 0.32355 0.16603 0.0
C37 C 0.93494 0.39844 0.12738 0.0
O38 O 0.89943 0.38812 0.13074 0.0
C39 C 0.97431 0.45215 0.15959 0.0
C40 C 1.0075 0.3315 0.16666 0.0
C41 C 1.02106 0.32381 0.18039 0.0
C42 C 0.05838 0.33014 0.18116 0.0
C43 C 0.08242 0.34464 0.16836 0.0
C44 C 0.0697 0.35283 0.15462 0.0
C45 C 1.03201 0.34593 0.15373 0.0
O46 O 0.84269 0.35428 0.15198 0.0
O47 O 0.86695 0.31624 0.15919 0.0
O48 O 0.88038 0.43621 0.18261 0.0
O49 O 0.85117 0.42906 0.16131 0.0
C50 C 0.85772 0.44439 0.17494 0.0
O51 O 0.97434 0.42253 0.16617 0.0
O52 O 0.94166 0.44688 0.15415 0.0
O53 O 0.95354 0.32264 0.15223 0.0
O54 O 0.95734 0.34023 0.1765 0.0
H55 H 1.00255 0.3126 0.19038 0.0
H56 H 0.11125 0.34924 0.1691 0.0
H57 H 1.02208 0.35212 0.14307 0.0
O58 O 0.58434 0.91042 0.35024 0.0
Tb59 Tb 0.54619 0.90508 0.33137 0.0
Eu60 Eu 0.63514 0.94987 0.32657 0.0
C61 C 0.57103 0.88136 0.35993 0.0
O62 O 0.53616 0.85282 0.35785 0.0
C63 C 0.58279 0.85601 0.32358 0.0
O64 O 0.63085 0.95116 0.30093 0.0
C65 C 0.70716 0.98993 0.33364 0.0
C66 C 0.64439 0.98367 0.29349 0.0
O67 O 0.65809 1.01571 0.3012 0.0
C68 C 0.58262 0.99079 0.32353 0.0
C69 C 0.73796 0.03059 0.33298 0.0
C70 C 0.7604 0.04788 0.34613 0.0
C71 C 0.79142 0.08546 0.34544 0.0
C72 C 0.79945 0.10586 0.3315 0.0
C73 C 0.77736 0.08937 0.31824 0.0
C74 C 0.7466 0.0517 0.31908 0.0
O75 O 0.55422 0.86151 0.31971 0.0
O76 O 0.61425 0.88501 0.32955 0.0
O77 O 0.50772 0.90036 0.34995 0.0
O78 O 0.48505 0.86305 0.3308 0.0
C79 C 0.47693 0.87237 0.34404 0.0
O80 O 0.61385 0.99319 0.32965 0.0
O81 O 0.55451 0.95685 0.31965 0.0
O82 O 0.69457 0.97269 0.32035 0.0
O83 O 0.67976 0.98032 0.34389 0.0
H84 H 0.75435 0.03175 0.35679 0.0
H85 H 0.8227 0.13514 0.33108 0.0
H86 H 0.73009 0.03859 0.30879 0.0
O87 O 0.72712 0.57302 0.51836 0.0
Tb88 Tb 0.68674 0.52115 0.50634 0.0
Eu89 Eu 0.72562 0.60087 0.48975 0.0
C90 C 0.71859 0.58584 0.53075 0.0
O91 O 0.68267 0.57108 0.53489 0.0
C92 C 0.76778 0.5476 0.49286 0.0
O93 O 0.69194 0.5738 0.46831 0.0
C94 C 0.76116 0.67455 0.48752 0.0
C95 C 0.68419 0.53958 0.46421 0.0
O96 O 0.70332 0.52472 0.47045 0.0
C97 C 0.6355 0.55344 0.4964 0.0
C98 C 0.75245 0.70607 0.48661 0.0
C99 C 0.75791 0.72853 0.49978 0.0
C100 C 0.75075 0.75904 0.49925 0.0
C101 C 0.73761 0.76681 0.48553 0.0
C102 C 0.73186 0.74487 0.47232 0.0
C103 C 0.73972 0.71475 0.47278 0.0
O104 O 0.73408 0.51742 0.49582 0.0
O105 O 0.77126 0.58203 0.492 0.0
O106 O 0.66446 0.49817 0.52919 0.0
O107 O 0.66055 0.46022 0.51149 0.0
C108 C 0.65273 0.4628 0.52583 0.0
O109 O 0.66658 0.58631 0.49948 0.0
O110 O 0.63977 0.52355 0.49456 0.0
O111 O 0.75267 0.652 0.47547 0.0
O112 O 0.7542 0.65628 0.50082 0.0
H113 H 0.76823 0.72265 0.51041 0.0
H114 H 0.73133 0.78992 0.48515 0.0
H115 H 0.73533 0.69795 0.46249 0.0
O116 O 0.16293 0.66872 0.68003 0.0
Tb117 Tb 0.16706 0.63513 0.66145 0.0
Eu118 Eu 0.12317 0.6816 0.65728 0.0
C119 C 0.19417 0.68761 0.68835 0.0
O120 O 0.22295 0.68203 0.68554 0.0
C121 C 0.21724 0.72058 0.65307 0.0
O122 O 0.11417 0.67673 0.6318 0.0
C123 C 0.08738 0.71591 0.66695 0.0
C124 C 0.07949 0.65855 0.62603 0.0
O125 O 0.04991 0.63968 0.63516 0.0
C126 C 0.081 0.58824 0.65436 0.0
C127 C 0.04793 0.70964 0.66691 0.0
C128 C 1.03227 0.71438 0.68063 0.0
C129 C 0.99635 0.71188 0.68047 0.0
C130 C 0.97582 0.70389 0.66666 0.0
C131 C 0.99007 0.69758 0.65293 0.0
C132 C 1.02649 0.701 0.6531 0.0
O133 O 0.21144 0.68627 0.64965 0.0
O134 O 0.18862 0.72391 0.65887 0.0
O135 O 0.17133 0.60195 0.68044 0.0
O136 O 0.20724 0.61373 0.6609 0.0
C137 C 0.19817 0.59738 0.67441 0.0
O138 O 0.07967 0.61718 0.6608 0.0
O139 O 0.1144 0.59345 0.64991 0.0
O140 O 0.10426 0.72242 0.65348 0.0
O141 O 0.09475 0.69412 0.67599 0.0
H142 H 0.04834 0.72093 0.69131 0.0
H143 H 0.94833 0.70253 0.6667 0.0
H144 H 1.03804 0.69689 0.64251 0.0
O145 O 0.49705 0.13491 0.86661 0.0
Tb146 Tb 0.53197 0.14613 0.84607 0.0
Eu147 Eu 0.45041 0.10437 0.82475 0.0
C148 C 0.46213 0.12923 0.86609 0.0
O149 O 0.44537 0.12441 0.85271 0.0
C150 C 0.49881 0.19868 0.83202 0.0
O151 O 0.48735 0.10625 0.80513 0.0
C152 C 0.37803 0.06661 0.81815 0.0
C153 C 0.52386 0.13173 0.80525 0.0
O154 O 0.53671 0.15918 0.81541 0.0
C155 C 0.4948 0.06088 0.8351 0.0
C156 C 0.34559 1.02689 0.81702 0.0
C157 C 0.32516 1.007 0.83034 0.0
C158 C 0.29308 0.97022 0.82924 0.0
C159 C 0.28116 0.95374 0.81463 0.0
C160 C 0.30095 0.97297 0.80126 0.0
C161 C 0.33328 1.00948 0.80251 0.0
O162 O 0.52727 0.19599 0.83838 0.0
O163 O 0.4674 0.16797 0.82707 0.0
O164 O 0.57354 0.15256 0.86362 0.0
O165 O 0.59298 0.18664 0.84331 0.0
C166 C 0.60333 0.17868 0.85637 0.0
O167 O 0.46146 0.05939 0.83634 0.0
O168 O 0.52589 0.09477 0.83451 0.0
O169 O 0.40499 0.07849 0.80758 0.0
O170 O 0.39132 0.0793 0.83204 0.0
H171 H 0.33425 1.01997 0.8416 0.0
H172 H 0.25622 0.92558 0.81362 0.0
H173 H 0.34833 1.02454 0.79215 0.0
O174 O 0.57764 0.68726 0.78205 0.0
Tb175 Tb 0.53172 0.64916 0.79769 0.0
Eu176 Eu 0.58991 0.67521 0.82624 0.0
C177 C 0.60033 0.72401 0.78447 0.0
O178 O 0.60132 0.73819 0.79813 0.0
C179 C 0.54009 0.71829 0.81962 0.0
O180 O 0.61254 0.67499 0.84976 0.0
C181 C 0.64832 0.69389 0.80856 0.0
C182 C 0.6292 0.70546 0.85846 0.0
O183 O 0.63097 0.73727 0.85388 0.0
C184 C 0.54243 0.58651 0.81762 0.0
C185 C 0.67777 0.68247 0.80845 0.0
C186 C 0.69788 0.68535 0.79482 0.0
C187 C 0.72652 0.67524 0.79484 0.0
C188 C 0.73505 0.6628 0.80864 0.0
C189 C 0.71548 0.6599 0.82234 0.0
C190 C 0.68666 0.66966 0.82217 0.0
O191 O 0.52126 0.69271 0.80873 0.0
O192 O 0.56726 0.71698 0.82769 0.0
O193 O 0.50882 0.63346 0.77443 0.0
O194 O 0.46999 0.61785 0.79315 0.0
C195 C 0.473 0.61649 0.77824 0.0
O196 O 0.55563 0.61057 0.82927 0.0
O197 O 0.5367 0.59825 0.80409 0.0
O198 O 0.64933 0.71398 0.82059 0.0
O199 O 0.61342 0.66752 0.80475 0.0
H200 H 0.69129 0.69543 0.78428 0.0
H201 H 0.75839 0.65683 0.80885 0.0
H202 H 0.67134 0.66751 0.83272 0.0
O203 O 0.91109 0.56291 0.94845 0.0
Tb204 Tb 0.90373 0.52194 0.96666 0.0
Eu205 Eu 0.9446 0.60007 -0.01239 0.0
C206 C 0.89793 0.58678 0.94946 0.0
O207 O 0.8876 0.59309 0.96289 0.0
C208 C 0.84925 0.54204 0.98718 0.0
O209 O 0.96812 0.61149 0.01156 0.0
C210 C 0.97538 0.66617 0.97423 0.0
C211 C 0.96761 0.58306 0.019 0.0
O212 O 0.94876 0.54872 0.01304 0.0
C213 C 0.98619 0.54814 0.98195 0.0
C214 C 1.0149 0.69865 0.97312 0.0
C215 C 1.02862 0.71815 0.95903 0.0
C216 C 0.06573 0.74978 0.95807 0.0
C217 C 0.08923 0.76128 0.97116 0.0
C218 C 0.07636 0.74178 0.98522 0.0
C219 C 1.03907 0.71052 0.98616 0.0
O220 O 0.85309 0.51765 0.9783 0.0
O221 O 0.87966 0.57364 -0.00782 0.0
O222 O 0.90035 0.48976 0.94599 0.0
O223 O 0.86289 0.46095 0.96468 0.0
C224 C 0.87306 0.45712 0.95091 0.0
O225 O 0.98968 0.58148 0.98536 0.0
O226 O 0.95322 0.52005 0.97686 0.0
O227 O 0.95982 0.65947 -0.01198 0.0
O228 O 0.96801 0.6349 0.96681 0.0
H229 H 1.01029 0.70919 0.94895 0.0
H230 H 0.11782 0.78577 0.97038 0.0
H231 H 1.02904 0.69529 -0.00299 0.0
O232 O 0.37276 0.90348 0.11014 0.0
Tb233 Tb 0.39919 0.89267 0.13006 0.0
Eu234 Eu 0.36284 0.93555 0.15186 0.0
C235 C 0.34159 0.90593 0.11095 0.0
O236 O 0.32927 0.90937 0.12444 0.0
C237 C 0.31637 0.84071 0.14603 0.0
O238 O 0.40024 0.93641 0.17113 0.0
C239 C 0.33402 0.97854 0.15806 0.0
C240 C 0.41165 0.91127 0.17176 0.0
O241 O 0.39668 0.88221 0.16232 0.0
C242 C 0.4498 0.97777 0.14035 0.0
C243 C 0.34973 1.02055 0.15881 0.0
C244 C 0.34488 0.03988 0.14619 0.0
C245 C 0.36175 0.07978 0.1462 0.0
C246 C 0.38267 0.1003 0.15913 0.0
C247 C 0.38733 0.08179 0.172 0.0
C248 C 0.37067 0.04181 0.17177 0.0
O249 O 0.34717 0.84328 0.1395 0.0
O250 O 0.31555 0.87165 0.1506 0.0
O251 O 0.42678 0.88265 0.11055 0.0
O252 O 0.42634 0.85774 0.13225 0.0
C253 C 0.43762 0.86177 0.11798 0.0
O254 O 0.41811 0.97954 0.13971 0.0
O255 O 0.44681 0.94392 0.14054 0.0
O256 O 0.34484 0.96287 0.16884 0.0
O257 O 0.33251 0.96449 0.14424 0.0
H258 H 0.32885 1.02403 0.13615 0.0
H259 H 0.39457 0.13096 0.15929 0.0
H260 H 0.37463 1.02744 0.18157 0.0
O261 O 0.50087 0.39529 0.28474 0.0
Tb262 Tb 0.55489 0.4114 0.29609 0.0
Eu263 Eu 0.47427 0.36901 0.31407 0.0
C264 C 0.48515 0.37107 0.27324 0.0
O265 O 0.45545 0.36937 0.26626 0.0
C266 C 0.52979 0.32934 0.30948 0.0
O267 O 0.47495 0.3745 0.33969 0.0
C268 C 0.40211 0.33394 0.30693 0.0
C269 C 0.45876 0.39222 0.34609 0.0
O270 O 0.44579 0.40999 0.33744 0.0
C271 C 0.52965 0.46376 0.31217 0.0
C272 C 0.37065 0.34254 0.30728 0.0
C273 C 0.35083 0.34019 0.29358 0.0
C274 C 0.32172 0.34948 0.29359 0.0
C275 C 0.31223 0.3606 0.30737 0.0
C276 C 0.33132 0.36276 0.32114 0.0
C277 C 0.36033 0.35335 0.32109 0.0
O278 O 0.55867 0.3625 0.30506 0.0
O279 O 0.49573 0.32564 0.31208 0.0
O280 O 0.57183 0.4235 0.27201 0.0
O281 O 0.61472 0.44775 0.28927 0.0
C282 C 0.60802 0.44551 0.27453 0.0
O283 O 0.49463 0.43372 0.3118 0.0
O284 O 0.55917 0.45882 0.30984 0.0
O285 O 0.41515 0.33014 0.3203 0.0
O286 O 0.42931 0.35293 0.29683 0.0
H287 H 0.35831 0.33156 0.28293 0.0
H288 H 0.2888 0.36646 0.30748 0.0
H289 H 0.37495 0.35484 0.33177 0.0
O290 O 0.1692 0.48346 0.44901 0.0
Tb291 Tb 0.19163 0.53129 0.46506 0.0
Eu292 Eu 0.15167 0.45584 0.4878 0.0
C293 C 0.17789 0.45623 0.44971 0.0
O294 O 0.19509 0.45315 0.46194 0.0
C295 C 0.24704 0.50806 0.48341 0.0
O296 O 0.14585 0.48609 0.50814 0.0
C297 C 0.11397 0.38203 0.49033 0.0
C298 C 0.16863 0.52309 0.509 0.0
O299 O 0.19842 0.53946 0.49982 0.0
C300 C 0.10991 0.50281 0.47779 0.0
C301 C 0.07408 0.34927 0.48994 0.0
C302 C 0.05834 0.32954 0.47601 0.0
C303 C 1.02187 0.29676 0.47576 0.0
C304 C 1.00104 0.28386 0.48951 0.0
C305 C 1.0158 0.30313 0.50344 0.0
C306 C 0.05231 0.33589 0.5036 0.0
O307 O 0.24309 0.53271 0.4746 0.0
O308 O 0.21679 0.47776 0.48944 0.0
O309 O 0.19696 0.55633 0.44223 0.0
O310 O 0.22663 0.59292 0.4609 0.0
C311 C 0.21959 0.59147 0.4462 0.0
O312 O 0.10693 0.46882 0.47729 0.0
O313 O 0.14429 0.53303 0.47683 0.0
O314 O 0.12436 0.40502 0.50231 0.0
O315 O 0.12848 0.40003 0.4772 0.0
H316 H 0.07468 0.33907 0.46541 0.0
H317 H 0.97253 0.25914 0.48928 0.0
H318 H 0.06392 0.35042 0.51443 0.0
O319 O 0.68894 0.1464 0.61792 0.0
Tb320 Tb 0.65374 0.14877 0.63637 0.0
Eu321 Eu 0.70036 0.10573 0.64322 0.0
C322 C 0.7072 0.17795 0.60967 0.0
O323 O 0.69963 0.20541 0.61239 0.0
C324 C 0.73918 0.19999 0.64496 0.0
O325 O 0.6932 0.10025 0.66883 0.0
C326 C 0.73637 0.06972 0.63642 0.0
C327 C 0.68144 0.12017 0.67649 0.0
O328 O 0.67095 0.14159 0.66898 0.0
C329 C 0.60672 0.0624 0.64422 0.0
C330 C 0.7302 0.03049 0.63755 0.0
C331 C 0.73673 1.01397 0.62454 0.0
C332 C 0.7349 0.97847 0.62569 0.0
C333 C 0.72629 0.95945 0.63995 0.0
C334 C 0.71919 0.97514 0.65303 0.0
C335 C 0.72072 1.01051 0.65174 0.0
O336 O 0.70471 0.19486 0.64757 0.0
O337 O 0.74271 0.17073 0.6402 0.0
O338 O 0.62055 0.15414 0.61766 0.0
O339 O 0.6305 0.18711 0.63798 0.0
C340 C 0.61449 0.17923 0.62442 0.0
O341 O 0.6367 0.06087 0.63902 0.0
O342 O 0.61107 0.09593 0.64774 0.0
O343 O 0.74049 0.08744 0.64953 0.0
O344 O 0.71626 0.07636 0.62615 0.0
H345 H 0.74432 0.02924 0.61364 0.0
H346 H 0.72442 0.93182 0.6408 0.0
H347 H 0.71574 1.02291 0.6619 0.0
C348 C 0.46847 0.65907 0.03401 0.0
C349 C 0.46554 0.62519 0.03964 0.0
C350 C 0.48184 0.69086 0.04358 0.0
C351 C 0.47966 0.70945 0.08421 0.0
H352 H 0.53261 0.81515 0.07093 0.0
C353 C 0.46795 0.82123 0.1198 0.0
C354 C 0.45741 0.84356 0.11092 0.0
C355 C 0.48312 0.80084 0.11267 0.0
C356 C 0.51792 0.78577 0.07484 0.0
H357 H 0.47699 0.59855 0.0591 0.0
H358 H 0.50049 0.65413 0.07581 0.0
H359 H 0.53412 0.76671 0.05471 0.0
H360 H 0.45639 0.86413 0.0879 0.0
H361 H 0.48159 0.82779 0.0754 0.0
H362 H 0.46123 0.72764 0.10376 0.0
C363 C 0.492 0.65604 0.06412 0.0
C364 C 0.51885 0.75812 0.06557 0.0
C365 C 0.47857 0.62429 0.05457 0.0
C366 C 0.46413 0.8469 0.09498 0.0
C367 C 0.47902 0.82639 0.08785 0.0
C368 C 0.47851 0.73696 0.0934 0.0
C369 C 0.49249 0.68918 0.05891 0.0
C370 C 0.49855 0.71952 0.06992 0.0
C371 C 0.4877 0.80228 0.09655 0.0
C372 C 0.49636 0.7752 0.08854 0.0
H373 H 0.45873 0.66043 0.0225 0.0
H374 H 0.48154 0.71588 0.03928 0.0
H375 H 0.46333 0.67987 0.0878 0.0
H376 H 0.46341 0.81862 0.13216 0.0
H377 H 0.49006 0.78297 0.11972 0.0
C378 C 0.81235 0.469 0.17277 0.0
C379 C 0.83979 0.46516 0.1813 0.0
C380 C 0.79148 0.48388 0.17971 0.0
C381 C 0.78194 0.52868 0.21569 0.0
H382 H 0.67492 0.45256 0.21143 0.0
C383 C 0.67562 0.47988 0.26551 0.0
C384 C 0.63662 0.46425 0.26235 0.0
C385 C 0.70216 0.49378 0.25349 0.0
C386 C 0.70445 0.47489 0.21255 0.0
H387 H 0.86944 0.47656 0.20319 0.0
H388 H 0.83264 0.50174 0.21541 0.0
H389 H 0.72054 0.45411 0.19311 0.0
H390 H 0.59471 0.45368 0.24456 0.0
H391 H 0.64105 0.47887 0.22361 0.0
H392 H 0.76577 0.548 0.23572 0.0
C393 C 0.82734 0.49381 0.20337 0.0
C394 C 0.73073 0.47578 0.20197 0.0
C395 C 0.84814 0.47896 0.19643 0.0
C396 C 0.62469 0.46506 0.24721 0.0
C397 C 0.6512 0.47945 0.23524 0.0
C398 C 0.75555 0.52789 0.22627 0.0
C399 C 0.79781 0.49506 0.19527 0.0
C400 C 0.76993 0.50148 0.20385 0.0
C401 C 0.69006 0.49264 0.23815 0.0
C402 C 0.71676 0.49981 0.22521 0.0
H403 H 0.80578 0.45892 0.161 0.0
H404 H 0.76915 0.48491 0.17316 0.0
H405 H 0.81197 0.5492 0.21725 0.0
H406 H 0.6854 0.47969 0.27714 0.0
H407 H 0.73178 0.50328 0.25614 0.0
C408 C 0.22731 0.6176 0.4196 0.0
C409 C 0.23696 0.62377 0.4353 0.0
C410 C 0.24622 0.64698 0.40888 0.0
C411 C 0.30952 0.75123 0.40431 0.0
H412 H 0.3471 0.72189 0.36885 0.0
C413 C 0.4389 0.85773 0.36818 0.0
C414 C 0.44096 0.84975 0.35259 0.0
C415 C 0.40774 0.83257 0.3772 0.0
C416 C 0.33618 0.7306 0.37845 0.0
H417 H 0.27258 0.6657 0.45227 0.0
H418 H 0.30606 0.71724 0.43346 0.0
H419 H 0.30423 0.67341 0.38687 0.0
H420 H 0.41101 0.81095 0.33385 0.0
H421 H 0.35587 0.7674 0.34947 0.0
H422 H 0.34219 0.80864 0.39598 0.0
C423 C 0.28365 0.68976 0.42946 0.0
C424 C 0.31164 0.70272 0.38884 0.0
C425 C 0.26469 0.66027 0.44021 0.0
C426 C 0.41017 0.81759 0.34588 0.0
C427 C 0.37879 0.79254 0.35487 0.0
C428 C 0.33397 0.77919 0.39383 0.0
C429 C 0.2752 0.68314 0.41363 0.0
C430 C 0.29852 0.71275 0.40201 0.0
C431 C 0.37784 0.79903 0.37077 0.0
C432 C 0.34814 0.76927 0.38091 0.0
H433 H 0.2058 0.58976 0.41552 0.0
H434 H 0.23867 0.64117 0.3968 0.0
H435 H 0.2995 0.75974 0.41427 0.0
H436 H 0.46234 0.88235 0.37365 0.0
H437 H 0.40826 0.83839 0.3894 0.0
C438 C 0.62412 0.39377 0.5323 0.0
C439 C 0.63447 0.43091 0.53683 0.0
C440 C 0.6092 0.36406 0.54309 0.0
C441 C 0.61458 0.34928 0.58423 0.0
H442 H 0.53889 0.24466 0.57479 0.0
C443 C 0.59669 0.22996 0.62446 0.0
C444 C 0.59853 0.20059 0.61672 0.0
C445 C 0.58848 0.25487 0.61632 0.0
C446 C 0.55998 0.27377 0.57762 0.0
H447 H 0.63581 0.46609 0.55585 0.0
H448 H 0.60973 0.41418 0.57471 0.0
H449 H 0.54891 0.2957 0.55689 0.0
H450 H 0.59037 0.17212 0.59478 0.0
H451 H 0.57704 0.21596 0.58049 0.0
H452 H 0.62734 0.32757 0.60444 0.0
C453 C 0.61345 0.40803 0.5629 0.0
C454 C 0.56571 0.30293 0.56737 0.0
C455 C 0.62833 0.43769 0.55212 0.0
C456 C 0.58924 0.19468 0.601 0.0
C457 C 0.58131 0.2197 0.59284 0.0
C458 C 0.60901 0.3202 0.5944 0.0
C459 C 0.60444 0.37106 0.55857 0.0
C460 C 0.59386 0.34084 0.57038 0.0
C461 C 0.58232 0.25097 0.60028 0.0
C462 C 0.58249 0.28196 0.59099 0.0
H463 H 0.62849 0.38786 0.52054 0.0
H464 H 0.60298 0.33598 0.53944 0.0
H465 H 0.63682 0.37814 0.58679 0.0
H466 H 0.60341 0.23483 0.63663 0.0
H467 H 0.58873 0.27824 0.62244 0.0
C468 C 0.2112 0.57217 0.6985 0.0
C469 C 0.21995 0.583 0.68297 0.0
C470 C 0.23567 0.56517 0.70756 0.0
C471 C 0.33739 0.59556 0.70946 0.0
H472 H 0.30659 0.52675 0.74457 0.0
C473 C 0.44906 0.60007 0.75136 0.0
C474 C 0.44133 0.60119 0.76706 0.0
C475 C 0.42027 0.58954 0.74038 0.0
C476 C 0.31558 0.54615 0.73482 0.0
H477 H 0.25935 0.5922 0.66438 0.0
H478 H 0.30188 0.57922 0.68012 0.0
H479 H 0.25853 0.52148 0.72599 0.0
H480 H 0.39729 0.59059 0.78374 0.0
H481 H 0.3468 0.57275 0.76447 0.0
H482 H 0.39408 0.62098 0.71842 0.0
C483 C 0.27656 0.57695 0.68541 0.0
C484 C 0.2881 0.54311 0.72417 0.0
C485 C 0.25213 0.58412 0.67636 0.0
C486 C 0.40391 0.58995 0.77169 0.0
C487 C 0.37503 0.57955 0.76066 0.0
C488 C 0.36476 0.59852 0.72005 0.0
C489 C 0.26934 0.56875 0.70125 0.0
C490 C 0.29863 0.56825 0.7115 0.0
C491 C 0.38316 0.58015 0.74484 0.0
C492 C 0.35414 0.57428 0.73298 0.0
H493 H 0.1865 0.57107 0.70388 0.0
H494 H 0.22934 0.55925 0.71972 0.0
H495 H 0.34647 0.61595 0.70005 0.0
H496 H 0.47765 0.60826 0.74751 0.0
H497 H 0.4273 0.5896 0.72832 0.0
C498 C 0.66606 0.23808 0.85886 0.0
C499 C 0.64165 0.20006 0.86316 0.0
C500 C 0.69935 0.26069 0.86726 0.0
C501 C 0.73757 0.26375 0.90651 0.0
H502 H 0.8194 0.35959 0.89078 0.0
C503 C 0.81762 0.39292 0.94564 0.0
C504 C 0.85436 0.42207 0.94172 0.0
C505 C 0.79807 0.36137 0.93605 0.0
C506 C 0.7974 0.33264 0.89543 0.0
H507 H 0.63412 0.15445 0.87847 0.0
H508 H 0.69355 0.19299 0.89251 0.0
H509 H 0.77646 0.31143 0.87289 0.0
H510 H 0.90067 0.44049 0.92533 0.0
H511 H 0.86745 0.38441 0.90893 0.0
H512 H 0.75942 0.28426 0.92901 0.0
C513 C 0.6863 0.20624 0.88324 0.0
C514 C 0.77217 0.30514 0.88511 0.0
C515 C 0.65242 0.18397 0.87512 0.0
C516 C 0.87211 0.4184 0.92848 0.0
C517 C 0.85291 0.38639 0.91905 0.0
C518 C 0.76339 0.29078 0.91679 0.0
C519 C 0.70936 0.24539 0.8799 0.0
C520 C 0.74081 0.27105 0.89052 0.0
C521 C 0.81521 0.35788 0.92249 0.0
C522 C 0.79255 0.32635 0.91146 0.0
H523 H 0.65817 0.25108 0.84968 0.0
H524 H 0.71577 0.29069 0.86437 0.0
H525 H 0.71388 0.23808 0.91128 0.0
H526 H 0.8033 0.39528 0.95577 0.0
H527 H 0.76887 0.34065 0.939 0.0
C528 C 0.4109 0.13693 0.87881 0.0
C529 C 0.4453 0.1363 0.87994 0.0
C530 C 0.39844 0.15032 0.89103 0.0
C531 C 0.41246 0.17485 0.93252 0.0
H532 H 0.3833 0.24941 0.92078 0.0
C533 C 0.40388 0.27502 0.97701 0.0
C534 C 0.3728 0.28139 0.97599 0.0
C535 C 0.41121 0.25624 0.96521 0.0
C536 C 0.39087 0.2283 0.92426 0.0
H537 H 0.49227 0.14688 0.89517 0.0
H538 H 0.47049 0.17019 0.91648 0.0
H539 H 0.39645 0.21526 0.90087 0.0
H540 H 0.32551 0.27382 0.96167 0.0
H541 H 0.33822 0.24086 0.94099 0.0
H542 H 0.40715 0.18807 0.95592 0.0
C543 C 0.45314 0.16033 0.90615 0.0
C544 C 0.39833 0.20866 0.91285 0.0
C545 C 0.46567 0.14705 0.89391 0.0
C546 C 0.34989 0.26964 0.96269 0.0
C547 C 0.35715 0.25071 0.95088 0.0
C548 C 0.40491 0.19442 0.94394 0.0
C549 C 0.42 0.16319 0.90466 0.0
C550 C 0.40952 0.18195 0.91685 0.0
C551 C 0.38756 0.24328 0.95212 0.0
C552 C 0.3944 0.22166 0.93994 0.0
H553 H 0.39438 0.12864 0.86824 0.0
H554 H 0.3724 0.15151 0.88966 0.0
H555 H 0.42058 0.15413 0.93597 0.0
H556 H 0.42239 0.2843 0.98703 0.0
H557 H 0.43541 0.25181 0.96637 0.0
C558 C 0.13372 0.39783 0.14345 0.0
C559 C 0.09627 0.3675 0.14132 0.0
C560 C 0.16118 0.40764 0.13193 0.0
C561 C 0.18402 0.36491 0.09941 0.0
H562 H 0.26 0.46944 0.0897 0.0
C563 C 0.28502 0.40732 0.04707 0.0
C564 C 0.32157 0.43978 0.04803 0.0
C565 C 0.25967 0.39651 0.05946 0.0
C566 C 0.23944 0.44007 0.09248 0.0
H567 H 0.05764 0.32474 0.12526 0.0
H568 H 0.1057 0.34214 0.10493 0.0
H569 H 0.20962 0.45662 0.10821 0.0
H570 H 0.36131 0.48466 0.06317 0.0
H571 H 0.31714 0.46532 0.085 0.0
H572 H 0.21381 0.34831 0.0837 0.0
C573 C 0.11387 0.35804 0.11561 0.0
C574 C 0.21039 0.43274 0.10301 0.0
C575 C 0.08625 0.34838 0.12713 0.0
C576 C 0.33334 0.45949 0.06208 0.0
C577 C 0.30785 0.4487 0.0745 0.0
C578 C 0.21315 0.37223 0.08892 0.0
C579 C 0.15186 0.3872 0.11804 0.0
C580 C 0.1822 0.39509 0.10653 0.0
C581 C 0.27025 0.41789 0.07313 0.0
C582 C 0.24111 0.4099 0.08525 0.0
H583 H 0.14212 0.41307 0.15429 0.0
H584 H 0.19016 0.43011 0.13421 0.0
H585 H 0.16321 0.33557 0.10212 0.0
H586 H 0.27516 0.39142 0.03642 0.0
H587 H 0.23097 0.37274 0.05793 0.0
C588 C 0.75805 0.1119 0.29448 0.0
C589 C 0.78685 0.11187 0.30361 0.0
C590 C 0.76745 0.13529 0.28137 0.0
C591 C 0.84821 0.22257 0.26402 0.0
H592 H 0.78344 0.19067 0.22776 0.0
C593 C 0.88292 0.31782 0.20895 0.0
C594 C 0.8518 0.32001 0.20283 0.0
C595 C 0.87714 0.29097 0.22051 0.0
C596 C 0.80177 0.20009 0.23782 0.0
H597 H 0.84803 0.13497 0.3056 0.0
H598 H 0.86434 0.1753 0.28272 0.0
H599 H 0.76885 0.14612 0.24913 0.0
H600 H 0.79016 0.29514 0.2039 0.0
H601 H 0.78031 0.24892 0.22383 0.0
H602 H 0.88095 0.27668 0.25269 0.0
C603 C 0.83453 0.15809 0.28589 0.0
C604 C 0.79331 0.17455 0.25012 0.0
C605 C 0.82516 0.13486 0.29901 0.0
C606 C 0.81489 0.29447 0.20836 0.0
C607 C 0.80913 0.26762 0.21973 0.0
C608 C 0.85675 0.24808 0.25168 0.0
C609 C 0.80588 0.15908 0.27699 0.0
C610 C 0.81609 0.18558 0.26349 0.0
C611 C 0.84009 0.26551 0.22601 0.0
C612 C 0.83328 0.23736 0.23853 0.0
H613 H 0.7283 0.09482 0.29776 0.0
H614 H 0.74457 0.13554 0.27493 0.0
H615 H 0.86616 0.23235 0.27418 0.0
H616 H 0.91167 0.337 0.20491 0.0
H617 H 0.9016 0.28994 0.22505 0.0
C618 C 0.63367 0.89027 0.36966 0.0
C619 C 0.59476 0.8777 0.37203 0.0
C620 C 0.65367 0.8801 0.38015 0.0
C621 C 0.64994 0.84525 0.41996 0.0
H622 H 0.70158 0.79383 0.40377 0.0
C623 C 0.68014 0.75008 0.4591 0.0
C624 C 0.71652 0.75382 0.45842 0.0
C625 C 0.66818 0.76614 0.44766 0.0
C626 C 0.68769 0.80853 0.40847 0.0
H627 H 0.54674 0.84641 0.38743 0.0
H628 H 0.58158 0.8297 0.40581 0.0
H629 H 0.67812 0.82492 0.38602 0.0
H630 H 0.76848 0.77582 0.44506 0.0
H631 H 0.74757 0.80419 0.42486 0.0
H632 H 0.65886 0.82872 0.44232 0.0
C633 C 0.59677 0.84709 0.39591 0.0
C634 C 0.67442 0.82646 0.39832 0.0
C635 C 0.57677 0.8566 0.38536 0.0
C636 C 0.74006 0.77216 0.44567 0.0
C637 C 0.72813 0.7885 0.43418 0.0
C638 C 0.66322 0.82752 0.43006 0.0
C639 C 0.63518 0.85797 0.39329 0.0
C640 C 0.65455 0.84417 0.40396 0.0
C641 C 0.69254 0.78677 0.43536 0.0
C642 C 0.68133 0.80803 0.42444 0.0
H643 H 0.64806 0.90619 0.35936 0.0
H644 H 0.68332 0.88899 0.37788 0.0
H645 H 0.63529 0.8592 0.42467 0.0
H646 H 0.66161 0.73616 0.46889 0.0
H647 H 0.64021 0.7634 0.44872 0.0
C648 C 0.78811 0.62735 0.53693 0.0
C649 C 0.7497 0.60991 0.54162 0.0
C650 C 0.81767 0.64381 0.54777 0.0
C651 C 0.83799 0.67166 0.58941 0.0
H652 H 0.92065 0.65034 0.58348 0.0
C653 C 0.92648 0.6644 0.63957 0.0
C654 C 0.96644 0.68788 0.63862 0.0
C655 C 0.90335 0.65876 0.62675 0.0
C656 C 0.89798 0.65687 0.58518 0.0
H657 H 0.71234 0.59788 0.5613 0.0
H658 H 0.76343 0.62548 0.58018 0.0
H659 H 0.87391 0.63583 0.56293 0.0
H660 H 1.01341 0.72187 0.62301 0.0
H661 H 0.97263 0.71058 0.60033 0.0
H662 H 0.86108 0.6907 0.61201 0.0
C663 C 0.77109 0.62727 0.56813 0.0
C664 C 0.87124 0.64879 0.57339 0.0
C665 C 0.74159 0.61126 0.55727 0.0
C666 C 0.9828 0.7036 0.62418 0.0
C667 C 0.95951 0.69737 0.61122 0.0
C668 C 0.86432 0.67913 0.60125 0.0
C669 C 0.80953 0.64286 0.5636 0.0
C670 C 0.84042 0.65542 0.57545 0.0
C671 C 0.91952 0.67573 0.61254 0.0
C672 C 0.89415 0.67119 0.59935 0.0
H673 H 0.79533 0.62706 0.52492 0.0
H674 H 0.84687 0.65637 0.54376 0.0
H675 H 0.81535 0.6781 0.59133 0.0
H676 H 0.91286 0.65076 0.65034 0.0
H677 H 0.87265 0.64122 0.62798 0.0
C678 C 0.16989 0.72432 0.70336 0.0
C679 C 0.20028 0.71944 0.69847 0.0
C680 C 0.17696 0.7557 0.71248 0.0
C681 C 0.25427 0.85202 0.72352 0.0
H682 H 0.19733 0.83432 0.76148 0.0
C683 C 0.3135 0.9503 0.7763 0.0
C684 C 0.28788 0.95367 0.78616 0.0
C685 C 0.29996 0.92637 0.76346 0.0
C686 C 0.21304 0.84005 0.75077 0.0
H687 H 0.2619 0.74378 0.69919 0.0
H688 H 0.274 0.79781 0.71501 0.0
H689 H 0.17759 0.78263 0.74301 0.0
H690 H 0.22853 0.93734 0.78968 0.0
H691 H 0.20493 0.89604 0.76713 0.0
H692 H 0.29036 0.90912 0.73143 0.0
C693 C 0.24479 0.77781 0.71174 0.0
C694 C 0.2017 0.81036 0.7402 0.0
C695 C 0.23774 0.74648 0.70282 0.0
C696 C 0.24883 0.93475 0.78237 0.0
C697 C 0.23532 0.911 0.76951 0.0
C698 C 0.26555 0.88174 0.73406 0.0
C699 C 0.21459 0.78288 0.71666 0.0
C700 C 0.22285 0.81574 0.72668 0.0
C701 C 0.26056 0.90555 0.76018 0.0
C702 C 0.24568 0.87582 0.748 0.0
H703 H 0.14077 0.70385 0.70023 0.0
H704 H 0.15312 0.75891 0.71614 0.0
H705 H 0.27074 0.85716 0.71304 0.0
H706 H 0.34369 0.96434 0.77903 0.0
H707 H 0.32019 0.92259 0.75661 0.0
C708 C 0.73606 0.61915 0.83651 0.0
C709 C 0.72747 0.64878 0.83678 0.0
C710 C 0.75414 0.61299 0.84902 0.0
C711 C 0.77879 0.63371 0.89024 0.0
H712 H 0.86421 0.62006 0.87922 0.0
C713 C 0.88274 0.58288 0.92122 0.0
C714 C 0.88817 0.60127 0.93547 0.0
C715 C 0.86564 0.59131 0.90891 0.0
C716 C 0.84026 0.62347 0.88252 0.0
H717 H 0.72876 0.69351 0.85083 0.0
H718 H 0.76004 0.68243 0.87288 0.0
H719 H 0.82608 0.62696 0.859 0.0
H720 H 0.88268 0.64501 0.9476 0.0
H721 H 0.85398 0.66045 0.92606 0.0
H722 H 0.79262 0.62974 0.91376 0.0
C723 C 0.75296 0.66412 0.8629 0.0
C724 C 0.81834 0.62739 0.87092 0.0
C725 C 0.7349 0.67039 0.8503 0.0
C726 C 0.87856 0.63006 0.93681 0.0
C727 C 0.86172 0.63865 0.9245 0.0
C728 C 0.80062 0.62962 0.90185 0.0
C729 C 0.76393 0.63618 0.86216 0.0
C730 C 0.7872 0.63232 0.87463 0.0
C731 C 0.85385 0.6185 0.91055 0.0
C732 C 0.83159 0.62433 0.89815 0.0
H733 H 0.73 0.60152 0.82636 0.0
H734 H 0.76124 0.59055 0.84826 0.0
H735 H 0.75481 0.63715 0.89348 0.0
H736 H 0.88955 0.56036 0.91985 0.0
H737 H 0.85989 0.57508 0.89837 0.0
C738 C 0.27947 0.89124 0.09873 0.0
C739 C 0.3166 0.89687 0.09723 0.0
C740 C 0.25349 0.8764 0.08651 0.0
C741 C 0.24518 0.85857 0.04451 0.0
H742 H 0.14413 0.77542 0.05483 0.0
C743 C 0.14055 0.76496 -0.00267 0.0
C744 C 0.10208 0.75514 -0.00115 0.0
C745 C 0.16606 0.78155 0.00957 0.0
C746 C 0.17203 0.79888 0.05176 0.0
H747 H 0.35613 0.89325 0.08139 0.0
H748 H 0.31088 0.86765 0.06005 0.0
H749 H 0.19037 0.80872 0.07532 0.0
H750 H 0.05987 0.7538 0.01457 0.0
H751 H 0.10451 0.78314 0.03599 0.0
H752 H 0.22693 0.84895 0.02098 0.0
C753 C 0.30184 0.87465 0.0707 0.0
C754 C 0.19854 0.818 0.06351 0.0
C755 C 0.32778 0.88929 0.08295 0.0
C756 C 0.0893 0.76085 0.0131 0.0
C757 C 0.11492 0.77769 0.02536 0.0
C758 C 0.21864 0.83958 0.03277 0.0
C759 C 0.2641 0.86711 0.07248 0.0
C760 C 0.23548 0.84795 0.06001 0.0
C761 C 0.15381 0.78894 0.02363 0.0
C762 C 0.1818 0.80931 0.03623 0.0
H763 H 0.26989 0.89684 0.10955 0.0
H764 H 0.22482 0.87155 0.08815 0.0
H765 H 0.27323 0.88181 0.04146 0.0
H766 H 0.15107 0.76026 0.98655 0.0
H767 H 0.19553 0.78887 0.00795 0.0
C768 C 0.47679 0.30669 0.27618 0.0
C769 C 0.49588 0.34256 0.26899 0.0
C770 C 0.47511 0.27487 0.26916 0.0
C771 C 0.50765 0.24142 0.23541 0.0
H772 H 0.40087 0.16295 0.23368 0.0
C773 C 0.44172 0.14069 0.1837 0.0
C774 C 0.40878 0.10477 0.18569 0.0
C775 C 0.45853 0.16514 0.19621 0.0
C776 C 0.431 0.18389 0.23425 0.0
H777 H 0.52844 0.37354 0.24891 0.0
H778 H 0.52568 0.31813 0.23658 0.0
H779 H 0.42134 0.21461 0.25193 0.0
H780 H 0.36949 0.06531 0.20268 0.0
H781 H 0.39955 0.10744 0.22464 0.0
H782 H 0.51699 0.21107 0.21735 0.0
C783 C 0.5131 0.31462 0.24791 0.0
C784 C 0.44281 0.21372 0.24478 0.0
C785 C 0.5149 0.34649 0.255 0.0
C786 C 0.39476 0.09278 0.20071 0.0
C787 C 0.41177 0.11719 0.21328 0.0
C788 C 0.49587 0.21134 0.22493 0.0
C789 C 0.49158 0.27811 0.25456 0.0
C790 C 0.48106 0.24342 0.24522 0.0
C791 C 0.4431 0.15423 0.21112 0.0
C792 C 0.45713 0.18275 0.22389 0.0
H793 H 0.46011 0.30247 0.2865 0.0
H794 H 0.45854 0.24725 0.27465 0.0
H795 H 0.5374 0.26364 0.23557 0.0
H796 H 0.4538 0.15053 0.17232 0.0
H797 H 0.48241 0.19339 0.19398 0.0
C798 C 0.17936 0.45232 0.42102 0.0
C799 C 0.17829 0.43635 0.43556 0.0
C800 C 0.19112 0.44053 0.40806 0.0
C801 C 0.21321 0.36868 0.39265 0.0
H802 H 0.29677 0.45623 0.37241 0.0
C803 C 0.31159 0.35209 0.34898 0.0
C804 C 0.31952 0.37394 0.33544 0.0
C805 C 0.29467 0.35934 0.36161 0.0
C806 C 0.27325 0.43144 0.3778 0.0
H807 H 0.18426 0.39259 0.44765 0.0
H808 H 0.20438 0.37177 0.425 0.0
H809 H 0.26016 0.46592 0.39229 0.0
H810 H 0.3185 0.42201 0.32482 0.0
H811 H 0.28852 0.4342 0.34659 0.0
H812 H 0.22619 0.33416 0.37806 0.0
C813 C 0.19662 0.39365 0.42363 0.0
C814 C 0.25215 0.437 0.38914 0.0
C815 C 0.18516 0.40564 0.4366 0.0
C816 C 0.31225 0.40442 0.33506 0.0
C817 C 0.29533 0.41159 0.3476 0.0
C818 C 0.23416 0.36307 0.38118 0.0
C819 C 0.20156 0.41231 0.40941 0.0
C820 C 0.22188 0.40572 0.39667 0.0
C821 C 0.28554 0.38862 0.3609 0.0
C822 C 0.26441 0.39442 0.37361 0.0
H823 H 0.17414 0.47599 0.41983 0.0
H824 H 0.19403 0.45489 0.39715 0.0
H825 H 0.19003 0.34407 0.39829 0.0
H826 H 0.31683 0.32836 0.34956 0.0
H827 H 0.28811 0.34158 0.3718 0.0
C828 C 0.76354 0.22348 0.59413 0.0
C829 C 0.74013 0.1861 0.59967 0.0
C830 C 0.79622 0.233 0.58557 0.0
C831 C 0.83972 0.19524 0.55983 0.0
H832 H 0.93264 0.28985 0.56917 0.0
C833 C 0.97301 0.2499 0.52125 0.0
C834 C 0.99191 0.28896 0.51755 0.0
C835 C 0.94602 0.23532 0.53312 0.0
C836 C 0.90691 0.26349 0.56632 0.0
H837 H 0.73257 0.12922 0.60033 0.0
H838 H 0.78983 0.14586 0.58484 0.0
H839 H 0.87747 0.26698 0.5862 0.0
H840 H 0.99846 0.34363 0.52374 0.0
H841 H 0.95089 0.31829 0.54432 0.0
H842 H 0.86836 0.19246 0.5396 0.0
C843 C 0.78267 0.16772 0.58735 0.0
C844 C 0.87537 0.2503 0.57613 0.0
C845 C 0.74996 0.1582 0.59618 0.0
C846 C 0.98459 0.31347 0.52645 0.0
C847 C 0.9573 0.29885 0.53825 0.0
C848 C 0.87119 0.20859 0.54993 0.0
C849 C 0.80634 0.2054 0.58213 0.0
C850 C 0.84118 0.21646 0.57282 0.0
C851 C 0.937 0.25942 0.54151 0.0
C852 C 0.90497 0.24331 0.55288 0.0
H853 H 0.75704 0.24582 0.5966 0.0
H854 H 0.81348 0.26209 0.58149 0.0
H855 H 0.81364 0.16926 0.55691 0.0
H856 H 0.97845 0.23042 0.51467 0.0
H857 H 0.93168 0.205 0.53551 0.0
C858 C 0.67886 0.94741 0.67682 0.0
C859 C 0.71081 0.95435 0.66799 0.0
C860 C 0.66915 0.92456 0.69011 0.0
C861 C 0.70729 0.88544 0.71934 0.0
H862 H 0.60194 0.80436 0.72325 0.0
C863 C 0.64508 0.78914 0.77377 0.0
C864 C 0.61964 0.7501 0.77128 0.0
C865 C 0.65885 0.81481 0.76137 0.0
C866 C 0.63151 0.82674 0.72228 0.0
H867 H 0.75867 0.94441 0.66651 0.0
H868 H 0.74198 0.90492 0.68972 0.0
H869 H 0.62049 0.84946 0.70178 0.0
H870 H 0.59 0.70727 0.75369 0.0
H871 H 0.61398 0.75208 0.73208 0.0
H872 H 0.71827 0.86256 0.73984 0.0
C873 C 0.72429 0.91689 0.68638 0.0
C874 C 0.64203 0.85285 0.71009 0.0
C875 C 0.73369 0.93928 0.67303 0.0
C876 C 0.60957 0.73711 0.75604 0.0
C877 C 0.62301 0.76283 0.74366 0.0
C878 C 0.69666 0.85957 0.73165 0.0
C879 C 0.69156 0.9087 0.69493 0.0
C880 C 0.68008 0.88234 0.70841 0.0
C881 C 0.64717 0.80207 0.74621 0.0
C882 C 0.65871 0.82973 0.73318 0.0
H883 H 0.66066 0.95856 0.67317 0.0
H884 H 0.64395 0.91903 0.69655 0.0
H885 H 0.7368 0.90797 0.7184 0.0
H886 H 0.65342 0.8001 0.78536 0.0
H887 H 0.67736 0.84486 0.76371 0.0
C888 C 0.46549 0.56693 0.95917 0.0
C889 C 0.45266 0.52844 0.9625 0.0
C890 C 0.50086 0.58958 0.95217 0.0
C891 C 0.56654 0.58223 0.92614 0.0
H892 H 0.62696 0.69078 0.93412 0.0
C893 C 0.6511 0.67449 0.87741 0.0
C894 C 0.63893 0.70081 0.87433 0.0
C895 C 0.6485 0.66026 0.8923 0.0
C896 C 0.61075 0.66046 0.93184 0.0
H897 H 0.46723 0.48364 0.96145 0.0
H898 H 0.52896 0.52325 0.94896 0.0
H899 H 0.57931 0.6489 0.95294 0.0
H900 H 0.61961 0.73693 0.88447 0.0
H901 H 0.61322 0.71099 0.9103 0.0
H902 H 0.59529 0.59359 0.90462 0.0
C903 C 0.5115 0.53577 0.95175 0.0
C904 C 0.58344 0.63652 0.94259 0.0
C905 C 0.47602 0.51304 0.95875 0.0
C906 C 0.62892 0.71644 0.8866 0.0
C907 C 0.62549 0.7016 0.90146 0.0
C908 C 0.59363 0.60608 0.91539 0.0
C909 C 0.52423 0.57427 0.94836 0.0
C910 C 0.55962 0.59756 0.93939 0.0
C911 C 0.63253 0.67131 0.9042 0.0
C912 C 0.61445 0.64581 0.91769 0.0
H913 H 0.44826 0.57968 0.96201 0.0
H914 H 0.50943 0.61889 0.94937 0.0
H915 H 0.54863 0.55235 0.92332 0.0
H916 H 0.65971 0.66267 0.86809 0.0
H917 H 0.6554 0.6379 0.89415 0.0
C918 C 0.9991 0.45297 0.12015 0.0
C919 C 0.95896 0.4349 0.11928 0.0
C920 C 1.02186 0.49027 0.11477 0.0
C921 C 1.01484 0.57366 0.10016 0.0
H922 H 0.08634 0.5782 0.06948 0.0
C923 C 1.00452 0.62278 0.04165 0.0
C924 C 0.99229 0.59017 0.03249 0.0
C925 C 1.02557 0.62728 0.05512 0.0
C926 C 0.06736 0.57831 0.07826 0.0
H927 H 0.91137 0.44155 0.11184 0.0
H928 H 0.95076 0.50545 0.10174 0.0
H929 H 0.07 0.53464 0.0911 0.0
H930 H 0.99602 0.53915 0.02907 0.0
H931 H 1.03161 0.54629 0.05234 0.0
H932 H 1.00749 0.61264 0.08601 0.0
C933 C 0.96483 0.49163 0.10718 0.0
C934 C 0.05799 0.55328 0.09072 0.0
C935 C 0.94214 0.45456 0.11263 0.0
C936 C 1.00414 0.564 0.03618 0.0
C937 C 1.02546 0.5687 0.0494 0.0
C938 C 1.02345 0.59789 0.08748 0.0
C939 C 1.00496 0.51012 0.10831 0.0
C940 C 1.0283 0.54769 0.10072 0.0
C941 C 1.0351 0.5995 0.0594 0.0
C942 C 0.04594 0.59642 0.07546 0.0
H943 H 1.01303 0.43882 0.12543 0.0
H944 H 0.05263 0.5036 0.11573 0.0
H945 H 0.99344 0.5714 0.10827 0.0
H946 H 0.99631 0.64379 0.03882 0.0
H947 H 1.03259 0.65128 0.06258 0.0
C948 C 0.46535 0.95389 0.18907 0.0
C949 C 0.44568 0.91955 0.18088 0.0
C950 C 0.49888 0.96297 0.19696 0.0
C951 C 0.54387 0.91697 0.21658 0.0
H952 H 0.62729 1.02095 0.221 0.0
C953 C 0.63958 0.95291 0.26828 0.0
C954 C 0.64142 0.98336 0.27663 0.0
C955 C 0.63006 0.94865 0.25269 0.0
C956 C 0.60438 0.99173 0.2198 0.0
H957 H 0.44611 0.86815 0.17421 0.0
H958 H 0.50457 0.88386 0.18827 0.0
H959 H 0.58046 1.00533 0.20037 0.0
H960 H 0.63852 0.03526 0.27512 0.0
H961 H 0.61985 1.02691 0.24808 0.0
H962 H 0.56565 0.90357 0.23651 0.0
C963 C 0.49394 0.90367 0.18854 0.0
C964 C 0.57765 0.98281 0.20802 0.0
C965 C 0.4604 0.89461 0.1806 0.0
C966 C 0.63692 1.01135 0.26891 0.0
C967 C 0.6266 1.0067 0.25336 0.0
C968 C 0.57038 0.92587 0.22837 0.0
C969 C 0.51337 0.93786 0.19685 0.0
C970 C 0.54624 0.9457 0.20676 0.0
C971 C 0.62125 0.97427 0.2453 0.0
C972 C 0.59993 0.96368 0.23054 0.0
H973 H 0.45494 0.97388 0.18938 0.0
H974 H 0.51282 0.98916 0.20353 0.0
H975 H 0.51981 0.88819 0.21596 0.0
H976 H 0.64391 0.93145 0.27396 0.0
H977 H 0.62721 0.92396 0.24669 0.0
C978 C 0.45241 0.36194 0.37163 0.0
C979 C 0.45649 0.39299 0.36291 0.0
C980 C 0.45714 0.36501 0.38757 0.0
C981 C 0.48499 0.43428 0.42026 0.0
H982 H 0.56307 0.40617 0.42539 0.0
C983 C 0.62828 0.5307 0.44873 0.0
C984 C 0.64818 0.51492 0.45608 0.0
C985 C 0.59274 0.50707 0.44203 0.0
C986 C 0.54076 0.41348 0.42453 0.0
H987 H 0.46431 0.44987 0.36384 0.0
H988 H 0.47533 0.45649 0.39154 0.0
H989 H 0.51641 0.37694 0.40532 0.0
H990 H 0.64568 0.46208 0.46298 0.0
H991 H 0.58358 0.42088 0.45136 0.0
H992 H 0.51175 0.47306 0.43899 0.0
C993 C 0.46738 0.42928 0.38631 0.0
C994 C 0.51365 0.3965 0.41296 0.0
C995 C 0.46157 0.42577 0.3704 0.0
C996 C 0.63147 0.4751 0.45701 0.0
C997 C 0.59574 0.45148 0.45049 0.0
C998 C 0.51228 0.45137 0.4319 0.0
C999 C 0.46746 0.39971 0.39491 0.0
C1000 C 0.48685 0.40831 0.4101 0.0
C1001 C 0.57627 0.4672 0.4427 0.0
C1002 C 0.54169 0.44261 0.43354 0.0
H1003 H 0.44733 0.33592 0.36605 0.0
H1004 H 0.45583 0.34131 0.39395 0.0
H1005 H 0.46414 0.44332 0.41855 0.0
H1006 H 0.64029 0.56132 0.44804 0.0
H1007 H 0.57886 0.52013 0.43585 0.0
C1008 C 0.04845 0.62401 0.6019 0.0
C1009 C 0.0746 0.65779 0.60929 0.0
C1010 C 0.05041 0.62085 0.58595 0.0
C1011 C 0.12885 0.65987 0.55879 0.0
H1012 H 0.05337 0.57775 0.53363 0.0
C1013 C 0.17476 0.58618 0.5149 0.0
C1014 C 0.15531 0.54639 0.5169 0.0
C1015 C 0.16031 0.60794 0.52129 0.0
C1016 C 0.07472 0.6011 0.54044 0.0
H1017 H 0.11899 0.71655 0.60601 0.0
H1018 H 0.1213 0.71173 0.57806 0.0
H1019 H 1.03244 0.60494 0.5539 0.0
H1020 H 0.10504 0.4981 0.52682 0.0
H1021 H 0.08066 0.53616 0.53845 0.0
H1022 H 0.17099 0.65452 0.54614 0.0
C1023 C 0.10051 0.68708 0.58451 0.0
C1024 C 0.06277 0.61668 0.55201 0.0
C1025 C 0.09926 0.68987 0.60047 0.0
C1026 C 0.12093 0.52875 0.52523 0.0
C1027 C 0.10655 0.55049 0.53164 0.0
C1028 C 0.14072 0.64446 0.54723 0.0
C1029 C 0.07816 0.65175 0.57722 0.0
C1030 C 0.0897 0.64455 0.56194 0.0
C1031 C 0.12623 0.59033 0.52983 0.0
C1032 C 0.11375 0.61338 0.5386 0.0
H1033 H 1.02895 0.59904 0.60854 0.0
H1034 H 1.03273 0.59313 0.58079 0.0
H1035 H 0.15058 0.68109 0.56622 0.0
H1036 H 0.20097 0.60054 0.50829 0.0
H1037 H 0.17601 0.63859 0.51969 0.0
C1038 C 0.53812 0.09894 0.78428 0.0
C1039 C 0.55095 0.1251 0.79643 0.0
C1040 C 0.56388 0.09237 0.7761 0.0
C1041 C 0.66381 0.14373 0.76522 0.0
H1042 H 0.62929 0.05199 0.74103 0.0
C1043 C 0.68532 0.09159 0.70157 0.0
C1044 C 0.68137 0.11955 0.69342 0.0
C1045 C 0.68356 0.09031 0.71767 0.0
C1046 C 0.64021 0.07753 0.74795 0.0
H1047 H 0.60016 0.16296 0.81035 0.0
H1048 H 0.64511 0.15124 0.79612 0.0
H1049 H 0.59647 0.04921 0.76491 0.0
H1050 H 0.67469 0.16923 0.69559 0.0
H1051 H 0.67119 0.1668 0.7235 0.0
H1052 H 0.70625 0.1724 0.74784 0.0
C1053 C 0.61534 0.1364 0.79269 0.0
C1054 C 0.62108 0.07604 0.76153 0.0
C1055 C 0.58965 0.14334 0.80074 0.0
C1056 C 0.6774 0.14714 0.70157 0.0
C1057 C 0.67606 0.1461 0.71758 0.0
C1058 C 0.68315 0.14511 0.75176 0.0
C1059 C 0.60291 0.11149 0.78006 0.0
C1060 C 0.63078 0.10977 0.76955 0.0
C1061 C 0.67841 0.1173 0.72578 0.0
C1062 C 0.66943 0.11272 0.74239 0.0
H1063 H 0.50836 0.08421 0.78084 0.0
H1064 H 0.55339 0.07361 0.76622 0.0
H1065 H 0.67236 0.17023 0.77119 0.0
H1066 H 0.68866 0.07009 0.69553 0.0
H1067 H 0.68522 0.06772 0.72374 0.0
C1068 C 0.3912 0.13242 0.1267 0.0
C1069 C 0.35839 0.10076 0.13273 0.0
C1070 C 0.38833 0.15423 0.11479 0.0
C1071 C 0.32248 0.1541 0.08452 0.0
H1072 H 0.39401 0.26298 0.08474 0.0
C1073 C 0.316 0.2584 0.03992 0.0
C1074 C 0.35077 0.28135 0.03228 0.0
C1075 C 0.3148 0.23789 0.0532 0.0
C1076 C 0.37384 0.23263 0.08453 0.0
H1077 H 0.29686 0.0667 0.13088 0.0
H1078 H 0.29152 0.10533 0.11026 0.0
H1079 H 0.39547 0.22319 0.10559 0.0
H1080 H 0.41157 0.30204 0.03264 0.0
H1081 H 0.40977 0.26725 0.05607 0.0
H1082 H 0.3007 0.16401 0.06346 0.0
C1083 C 0.31965 0.11299 0.11453 0.0
C1084 C 0.37482 0.20967 0.09642 0.0
C1085 C 0.32263 0.09082 0.12635 0.0
C1086 C 0.3845 0.28478 0.03846 0.0
C1087 C 0.38342 0.26488 0.05184 0.0
C1088 C 0.3212 0.17721 0.07271 0.0
C1089 C 0.35248 0.14531 0.1087 0.0
C1090 C 0.34966 0.16994 0.09645 0.0
C1091 C 0.34847 0.24054 0.05916 0.0
C1092 C 0.34729 0.21662 0.07246 0.0
H1093 H 0.41921 0.14042 0.13125 0.0
H1094 H 0.41438 0.17812 0.11036 0.0
H1095 H 0.3029 0.12367 0.084 0.0
H1096 H 0.2896 0.255 0.03523 0.0
H1097 H 0.28751 0.21949 0.05866 0.0
C1098 C 0.28086 0.31239 0.27122 0.0
C1099 C 0.29949 0.34655 0.27959 0.0
C1100 C 0.25309 0.30691 0.26024 0.0
C1101 C 0.18361 0.3375 0.25329 0.0
H1102 H 0.17468 0.29813 0.21192 0.0
C1103 C 0.08918 0.35021 0.20677 0.0
C1104 C 0.07363 0.32245 0.19525 0.0
C1105 C 0.11241 0.34797 0.21819 0.0
C1106 C 0.17624 0.30837 0.22357 0.0
H1107 H 0.30654 0.40293 0.28216 0.0
H1108 H 0.25821 0.3934 0.26304 0.0
H1109 H 0.22684 0.30559 0.22855 0.0
H1110 H 0.06807 0.26977 0.18679 0.0
H1111 H 0.10745 0.26478 0.20713 0.0
H1112 H 0.13315 0.34025 0.24847 0.0
C1113 C 0.26438 0.37061 0.26515 0.0
C1114 C 0.20628 0.31286 0.23302 0.0
C1115 C 0.29213 0.37613 0.27599 0.0
C1116 C 0.07957 0.2912 0.19575 0.0
C1117 C 0.10251 0.28871 0.20724 0.0
C1118 C 0.1534 0.33266 0.24393 0.0
C1119 C 0.24362 0.33549 0.2576 0.0
C1120 C 0.21066 0.32824 0.24783 0.0
C1121 C 0.12035 0.31782 0.21826 0.0
C1122 C 0.14975 0.31875 0.22885 0.0
H1123 H 0.28593 0.28912 0.27386 0.0
H1124 H 0.23752 0.27963 0.2545 0.0
H1125 H 0.18595 0.34869 0.26482 0.0
H1126 H 0.08546 0.37492 0.20633 0.0
H1127 H 0.12603 0.37115 0.22635 0.0
C1128 C 1.00119 0.29439 0.44821 0.0
C1129 C 1.00451 0.27562 0.46128 0.0
C1130 C 0.97998 0.27346 0.43539 0.0
C1131 C 0.9035 0.17542 0.42491 0.0
H1132 H 0.92994 0.21402 0.38312 0.0
C1133 C 0.8001 0.10356 0.37352 0.0
C1134 C 0.81608 0.1039 0.35911 0.0
C1135 C 0.82363 0.12378 0.38597 0.0
C1136 C 0.92228 0.20251 0.39469 0.0
H1137 H 0.99031 0.22058 0.47085 0.0
H1138 H 0.95459 0.1842 0.44839 0.0
H1139 H 0.97167 0.2505 0.4043 0.0
H1140 H 0.86922 0.12415 0.34664 0.0
H1141 H 0.91021 0.15841 0.36837 0.0
H1142 H 0.85476 0.12688 0.41528 0.0
C1143 C 0.96705 0.21489 0.44815 0.0
C1144 C 0.94603 0.22379 0.4069 0.0
C1145 C 0.98783 0.23574 0.46099 0.0
C1146 C 0.85606 0.12383 0.35756 0.0
C1147 C 0.87955 0.14369 0.37001 0.0
C1148 C 0.87991 0.15402 0.4127 0.0
C1149 C 0.96198 0.23331 0.43531 0.0
C1150 C 0.937 0.21056 0.42219 0.0
C1151 C 0.86371 0.14449 0.38434 0.0
C1152 C 0.88893 0.16723 0.39741 0.0
H1153 H 1.01347 0.32508 0.4482 0.0
H1154 H 0.97652 0.2887 0.4258 0.0
H1155 H 0.89511 0.16451 0.43653 0.0
H1156 H 0.76938 0.08873 0.375 0.0
H1157 H 0.81028 0.12402 0.39675 0.0
C1158 C 0.73825 0.76582 0.52701 0.0
C1159 C 0.75605 0.78274 0.51299 0.0
C1160 C 0.73943 0.78847 0.53937 0.0
C1161 C 0.75481 0.88514 0.54732 0.0
H1162 H 0.7569 0.85644 0.58986 0.0
C1163 C 0.72258 0.95645 0.59823 0.0
C1164 C 0.74216 0.96087 0.61215 0.0
C1165 C 0.72674 0.93645 0.58599 0.0
C1166 C 0.7568 0.86522 0.57805 0.0
H1167 H 0.79078 0.83637 0.50108 0.0
H1168 H 0.79403 0.876 0.52275 0.0
H1169 H 0.76154 0.81852 0.56922 0.0
H1170 H 0.78287 0.94969 0.62397 0.0
H1171 H 0.79114 0.91586 0.6025 0.0
H1172 H 0.75121 0.93247 0.55614 0.0
C1173 C 0.77804 0.8453 0.52413 0.0
C1174 C 0.7589 0.84308 0.56619 0.0
C1175 C 0.77647 0.82266 0.51175 0.0
C1176 C 0.76706 0.94622 0.61341 0.0
C1177 C 0.77157 0.92663 0.60114 0.0
C1178 C 0.75305 0.90746 0.55918 0.0
C1179 C 0.7588 0.82852 0.53798 0.0
C1180 C 0.75776 0.85265 0.55067 0.0
C1181 C 0.75093 0.92083 0.58737 0.0
C1182 C 0.75384 0.8977 0.5747 0.0
H1183 H 0.72204 0.73506 0.52819 0.0
H1184 H 0.72394 0.7745 0.54979 0.0
H1185 H 0.75322 0.8931 0.53552 0.0
H1186 H 0.70295 0.96721 0.59703 0.0
H1187 H 0.71004 0.93219 0.57564 0.0
C1188 C 0.76708 0.71311 0.77228 0.0
C1189 C 0.74963 0.67913 0.78093 0.0
C1190 C 0.79478 0.71928 0.76117 0.0
C1191 C 0.86621 0.69122 0.75332 0.0
H1192 H 0.87095 0.73058 0.71208 0.0
C1193 C 0.96545 0.6885 0.70613 0.0
C1194 C 0.97868 0.71652 0.69457 0.0
C1195 C 0.94064 0.68771 0.71755 0.0
C1196 C 0.87059 0.72031 0.72366 0.0
H1197 H 0.74502 0.62375 0.78383 0.0
H1198 H 0.79333 0.63461 0.7646 0.0
H1199 H 0.8193 0.72105 0.72934 0.0
H1200 H 0.97858 0.76693 0.68624 0.0
H1201 H 0.93681 0.7668 0.70657 0.0
H1202 H 0.91756 0.6908 0.74784 0.0
C1203 C 0.78626 0.65676 0.76659 0.0
C1204 C 0.84078 0.71464 0.7335 0.0
C1205 C 0.7585 0.65051 0.77754 0.0
C1206 C 0.96878 0.74514 0.69513 0.0
C1207 C 0.94441 0.74467 0.70663 0.0
C1208 C 0.89624 0.69729 0.74357 0.0
C1209 C 0.80554 0.69163 0.75863 0.0
C1210 C 0.83798 0.69948 0.74834 0.0
C1211 C 0.92887 0.71515 0.71767 0.0
C1212 C 0.89859 0.71144 0.72853 0.0
H1213 H 0.76097 0.73575 0.77471 0.0
H1214 H 0.80916 0.74639 0.75515 0.0
H1215 H 0.86513 0.68014 0.76482 0.0
H1216 H 0.97223 0.66579 0.70573 0.0
H1217 H 0.92905 0.6643 0.72574 0.0
C1218 C 0.08429 0.75349 0.9303 0.0
C1219 C 0.08101 0.77142 0.94354 0.0
C1220 C 0.10495 0.77527 0.91752 0.0
C1221 C 0.1814 0.8737 0.90801 0.0
H1222 H 0.15646 0.83873 0.86579 0.0
C1223 C 0.26249 0.96697 0.85492 0.0
C1224 C 0.2712 0.94878 0.84314 0.0
C1225 C 0.2391 0.94586 0.86728 0.0
C1226 C 0.1639 0.84872 0.87755 0.0
H1227 H 0.09435 0.82556 0.95355 0.0
H1228 H 0.12907 0.86349 0.93111 0.0
H1229 H 0.11344 0.80069 0.88659 0.0
H1230 H 0.26383 0.89445 0.83561 0.0
H1231 H 0.22273 0.85775 0.85701 0.0
H1232 H 0.2317 0.9219 0.8989 0.0
C1233 C 0.11698 0.83286 0.93068 0.0
C1234 C 0.13928 0.8269 0.88947 0.0
C1235 C 0.09676 0.81116 0.94348 0.0
C1236 C 0.25698 0.90925 0.84429 0.0
C1237 C 0.23342 0.88818 0.85654 0.0
C1238 C 0.20581 0.89564 0.89607 0.0
C1239 C 0.12239 0.81536 0.91771 0.0
C1240 C 0.14777 0.83903 0.90487 0.0
C1241 C 0.22379 0.90614 0.86807 0.0
C1242 C 0.19746 0.88329 0.88073 0.0
H1243 H 0.07269 0.7229 0.93017 0.0
H1244 H 0.10873 0.7608 0.9078 0.0
H1245 H 0.18939 0.8836 0.91974 0.0
H1246 H 0.27266 0.99728 0.85433 0.0
H1247 H 0.23203 0.96046 0.87598 0.0
C1248 C 0.77633 0.5049 0.98328 0.0
C1249 C 0.80893 0.53538 -0.00974 0.0
C1250 C 0.73926 0.50018 0.98498 0.0
C1251 C 0.68652 0.55203 -0.00168 0.0
H1252 H 0.59708 0.45218 -0.00639 0.0
C1253 C 0.53122 0.53285 -0.00239 0.0
C1254 C 0.49923 0.49805 0.00232 0.0
C1255 C 0.5682 0.53713 -0.00383 0.0
C1256 C 0.62138 0.48045 -0.00485 0.0
H1257 H 0.82622 0.58469 0.00479 0.0
H1258 H 0.76234 0.5761 0.00813 0.0
H1259 H 0.66037 0.45952 -0.00812 0.0
H1260 H 0.48261 0.4403 0.00911 0.0
H1261 H 0.54626 0.44771 0.00705 0.0
H1262 H 0.64751 0.57275 0.0021 0.0
C1263 C 0.76524 0.55588 0.00098 0.0
C1264 C 0.65845 0.48485 -0.0061 0.0
C1265 C 0.8024 0.56069 -0.0008 0.0
C1266 C 0.50601 0.46764 0.00544 0.0
C1267 C 0.54305 0.47196 0.00412 0.0
C1268 C 0.64944 0.5476 -0.00036 0.0
C1269 C 0.73255 0.52562 -0.00617 0.0
C1270 C 0.69219 0.52079 -0.00459 0.0
C1271 C 0.57532 0.50688 -0.00054 0.0
C1272 C 0.6157 0.51168 -0.00193 0.0
H1273 H 0.77945 0.48478 0.97612 0.0
H1274 H 0.71594 0.47678 0.97894 0.0
H1275 H 0.71084 0.58047 -0.00058 0.0
H1276 H 0.5277 0.55705 -0.00513 0.0
H1277 H 0.59114 0.56438 -0.00778 0.0
C1278 C 0.28141 0.76795 0.14284 0.0
C1279 C 0.28121 0.80093 0.14803 0.0
C1280 C 0.24902 0.73097 0.14428 0.0
C1281 C 0.14148 0.67804 0.15233 0.0
H1282 H 0.15532 0.59032 0.15586 0.0
C1283 C 1.00929 0.52166 0.15037 0.0
C1284 C 1.01018 0.49153 0.15832 0.0
C1285 C 1.04196 0.55849 0.14914 0.0
C1286 C 0.15042 0.61421 0.15502 0.0
H1287 H 0.24491 0.8191 0.15898 0.0
H1288 H 0.18906 0.75524 0.16171 0.0
H1289 H 0.21079 0.65409 0.1543 0.0
H1290 H 0.04793 0.47805 0.17117 0.0
H1291 H 0.10431 0.54189 0.1694 0.0
H1292 H 0.08114 0.63826 0.15344 0.0
C1293 C 0.21431 0.75786 0.15624 0.0
C1294 C 0.18279 0.6514 0.15389 0.0
C1295 C 0.24683 0.79498 0.15478 0.0
C1296 C 0.04555 0.50001 0.16494 0.0
C1297 C 0.07831 0.53705 0.1638 0.0
C1298 C 0.10912 0.64085 0.15346 0.0
C1299 C 0.21448 0.72478 0.15102 0.0
C1300 C 0.17928 0.68442 0.15247 0.0
C1301 C 0.07737 0.56742 0.15593 0.0
C1302 C 0.11262 0.60782 0.1548 0.0
H1303 H 0.30679 0.77059 0.13747 0.0
H1304 H 0.25109 0.7072 0.13978 0.0
H1305 H 0.13657 0.70186 0.15111 0.0
H1306 H 0.98311 0.51678 0.14489 0.0
H1307 H 1.0393 0.5799 0.14262 0.0
C1308 C 0.57224 0.29861 0.31125 0.0
C1309 C 0.53545 0.29474 0.31113 0.0
C1310 C 0.57752 0.26655 0.31261 0.0
C1311 C 0.52658 0.1587 0.308 0.0
H1312 H 0.61197 0.16636 0.33129 0.0
C1313 C 0.54223 1.02256 0.31833 0.0
C1314 C 0.57805 1.02601 0.32175 0.0
C1315 C 0.53739 0.05487 0.31703 0.0
C1316 C 0.58815 0.16327 0.32447 0.0
H1317 H 0.4753 0.25231 0.31213 0.0
H1318 H 0.48433 0.19697 0.3143 0.0
H1319 H 0.60325 0.22148 0.32896 0.0
H1320 H 0.63713 0.06796 0.32622 0.0
H1321 H 0.62933 0.12377 0.3235 0.0
H1322 H 0.51178 0.10099 0.30315 0.0
C1323 C 0.50944 0.22499 0.3134 0.0
C1324 C 0.58303 0.19546 0.32318 0.0
C1325 C 0.50418 0.25712 0.31227 0.0
C1326 C 0.60894 0.06351 0.32367 0.0
C1327 C 0.60423 0.09595 0.32219 0.0
C1328 C 0.53193 0.12665 0.30913 0.0
C1329 C 0.54627 0.22883 0.31366 0.0
C1330 C 0.55201 0.19402 0.31496 0.0
C1331 C 0.56823 0.09264 0.31889 0.0
C1332 C 0.56278 0.12782 0.31747 0.0
H1333 H 0.5973 0.32669 0.31035 0.0
H1334 H 0.60642 0.27144 0.31255 0.0
H1335 H 0.50262 0.15585 0.30132 0.0
H1336 H 0.51741 0.99454 0.31685 0.0
H1337 H 0.50888 0.04977 0.31481 0.0
C1338 C 0.31936 0.54384 0.47836 0.0
C1339 C 0.28715 0.51371 0.48574 0.0
C1340 C 0.35636 0.54832 0.47975 0.0
C1341 C 0.40917 0.49623 0.49249 0.0
H1342 H 0.49857 0.59638 0.48808 0.0
C1343 C 0.56401 0.51553 0.48996 0.0
C1344 C 0.59598 0.54961 0.49517 0.0
C1345 C 0.52711 0.51147 0.48889 0.0
C1346 C 0.47424 0.56804 0.48952 0.0
H1347 H 0.27035 0.46472 0.5006 0.0
H1348 H 0.33424 0.47279 0.50332 0.0
H1349 H 0.43518 0.58912 0.48678 0.0
H1350 H 0.61278 0.60634 0.50326 0.0
H1351 H 0.5491 0.59927 0.50175 0.0
H1352 H 0.44824 0.4753 0.49568 0.0
C1353 C 0.33101 0.49292 0.49613 0.0
C1354 C 0.43719 0.56371 0.48852 0.0
C1355 C 0.2939 0.48839 0.4947 0.0
C1356 C 0.58934 0.57958 0.49917 0.0
C1357 C 0.55235 0.57548 0.49819 0.0
C1358 C 0.44622 0.50057 0.49352 0.0
C1359 C 0.3633 0.52295 0.48864 0.0
C1360 C 0.40355 0.52767 0.48994 0.0
C1361 C 0.52012 0.54124 0.49305 0.0
C1362 C 0.47986 0.53659 0.49203 0.0
H1363 H 0.31601 0.564 0.47122 0.0
H1364 H 0.37946 0.57151 0.47348 0.0
H1365 H 0.38482 0.46776 0.49351 0.0
H1366 H 0.56746 0.49172 0.48656 0.0
H1367 H 0.5041 0.48481 0.48455 0.0
C1368 C 0.81094 0.24733 0.64162 0.0
C1369 C 0.77425 0.23984 0.64615 0.0
C1370 C 0.84337 0.28449 0.64244 0.0
C1371 C 0.87303 0.38974 0.64711 0.0
H1372 H 0.9732 0.40203 0.6542 0.0
C1373 C 1.00888 0.54175 0.65781 0.0
C1374 C 0.04528 0.54887 0.65301 0.0
C1375 C 0.97608 0.5048 0.6569 0.0
C1376 C 0.94569 0.39958 0.65201 0.0
H1377 H 0.74412 0.26729 0.65514 0.0
H1378 H 0.79994 0.33114 0.6568 0.0
H1379 H 0.91755 0.33837 0.65285 0.0
H1380 H 0.07436 0.52109 0.64327 0.0
H1381 H 1.01804 0.45772 0.64155 0.0
H1382 H 0.90126 0.45104 0.64634 0.0
C1383 C 0.80393 0.30846 0.65235 0.0
C1384 C 0.91324 0.36246 0.65121 0.0
C1385 C 0.77152 0.2713 0.65151 0.0
C1386 C 0.04726 0.51737 0.64717 0.0
C1387 C 1.01456 0.48047 0.64629 0.0
C1388 C 0.9055 0.42689 0.64793 0.0
C1389 C 0.84079 0.31612 0.64783 0.0
C1390 C 0.87598 0.35646 0.64872 0.0
C1391 C 0.97807 0.47308 0.65118 0.0
C1392 C 0.94275 0.43285 0.65038 0.0
H1393 H 0.81471 0.22441 0.63727 0.0
H1394 H 0.87049 0.28837 0.63853 0.0
H1395 H 0.84553 0.3873 0.64491 0.0
H1396 H 1.00566 0.56479 0.66242 0.0
H1397 H 0.94915 0.50108 0.661 0.0
C1398 C 0.50694 0.7568 0.81262 0.0
C1399 C 0.53253 0.75149 0.82207 0.0
C1400 C 0.50194 0.78899 0.81422 0.0
C1401 C 0.54748 0.88849 0.83245 0.0
H1402 H 0.45249 0.88309 0.82058 0.0
C1403 C 0.53354 1.02702 0.83118 0.0
C1404 C 0.4979 1.02475 0.83374 0.0
C1405 C 0.53705 0.99397 0.82984 0.0
C1406 C 0.4793 0.88551 0.82413 0.0
H1407 H 0.57261 0.77747 0.8409 0.0
H1408 H 0.56353 0.8323 0.8439 0.0
H1409 H 0.45916 0.82669 0.8186 0.0
H1410 H 0.43777 0.98406 0.8368 0.0
H1411 H 0.44372 0.92692 0.83473 0.0
H1412 H 0.56734 0.94696 0.83833 0.0
C1413 C 0.54753 0.81199 0.83494 0.0
C1414 C 0.48339 0.85272 0.82277 0.0
C1415 C 0.55255 0.77985 0.83332 0.0
C1416 C 0.46583 0.98762 0.83484 0.0
C1417 C 0.46933 0.95444 0.83352 0.0
C1418 C 0.5434 0.92123 0.83381 0.0
C1419 C 0.52229 0.8177 0.82536 0.0
C1420 C 0.51763 0.85322 0.82689 0.0
C1421 C 0.5051 0.95666 0.83102 0.0
C1422 C 0.50923 0.92079 0.82966 0.0
H1423 H 0.49104 0.73628 0.80369 0.0
H1424 H 0.48257 0.79164 0.80635 0.0
H1425 H 0.57466 0.89127 0.83563 0.0
H1426 H 0.55914 0.05465 0.83009 0.0
H1427 H 0.56516 0.99799 0.82761 0.0
C1428 C 0.52494 0.52062 0.80676 0.0
C1429 C 0.53618 0.54602 0.81937 0.0
C1430 C 0.52048 0.48362 0.80816 0.0
C1431 C 0.5432 0.42126 0.83473 0.0
H1432 H 0.47424 0.3404 0.8075 0.0
C1433 C 0.53651 0.27181 0.8347 0.0
C1434 C 0.50263 0.23824 0.83041 0.0
C1435 C 0.54023 0.30851 0.83338 0.0
C1436 C 0.4935 0.3622 0.81539 0.0
H1437 H 0.55123 0.55054 0.84357 0.0
H1438 H 0.54284 0.48668 0.84612 0.0
H1439 H 0.48022 0.4031 0.80557 0.0
H1440 H 0.44587 0.21869 0.82132 0.0
H1441 H 0.4519 0.28169 0.81925 0.0
H1442 H 0.55568 0.3801 0.84485 0.0
C1443 C 0.538 0.49536 0.83491 0.0
C1444 C 0.49743 0.39902 0.81412 0.0
C1445 C 0.54255 0.53242 0.83349 0.0
C1446 C 0.47261 0.2433 0.82472 0.0
C1447 C 0.47627 0.28004 0.82344 0.0
C1448 C 0.53922 0.38443 0.83603 0.0
C1449 C 0.52695 0.46986 0.82227 0.0
C1450 C 0.52245 0.42971 0.82373 0.0
C1451 C 0.51021 0.31377 0.82774 0.0
C1452 C 0.51431 0.35378 0.82638 0.0
H1453 H 0.51991 0.52946 0.79561 0.0
H1454 H 0.51261 0.46609 0.79793 0.0
H1455 H 0.56323 0.44332 0.84235 0.0
H1456 H 0.56061 0.26989 0.83909 0.0
H1457 H 0.56725 0.3329 0.83662 0.0
C1458 C 1.01988 0.50859 0.97894 0.0
C1459 C 1.02069 0.54224 0.98387 0.0
C1460 C 0.05233 0.50378 0.98025 0.0
C1461 C 0.16062 0.559 -0.01239 0.0
H1462 H 0.14808 0.45813 -0.0082 0.0
C1463 C 0.29291 0.53774 0.00011 0.0
C1464 C 0.29315 0.50477 -0.00509 0.0
C1465 C 0.26029 0.54209 -0.00146 0.0
C1466 C 0.15262 0.48668 -0.00956 0.0
H1467 H 0.05789 0.597 -0.00558 0.0
H1468 H 0.11341 0.5886 -0.00306 0.0
H1469 H 0.09205 0.46568 -0.01018 0.0
H1470 H 0.25732 0.45044 0.98382 0.0
H1471 H 0.20119 0.45802 0.98091 0.0
H1472 H 0.22116 0.58001 -0.01174 0.0
C1473 C 0.08792 0.56585 -0.00831 0.0
C1474 C 0.11991 0.4911 -0.01071 0.0
C1475 C 0.05551 0.57066 -0.00966 0.0
C1476 C 0.25901 0.47641 -0.01202 0.0
C1477 C 0.22626 0.48071 0.98643 0.0
C1478 C 0.1933 0.55458 -0.01121 0.0
C1479 C 0.0874 0.53234 0.98661 0.0
C1480 C 0.12291 0.52741 -0.01214 0.0
C1481 C 0.22591 0.51365 -0.00828 0.0
C1482 C 0.1903 0.5183 -0.00974 0.0
H1483 H 0.99411 0.48585 0.97381 0.0
H1484 H 0.04989 0.47763 0.97593 0.0
H1485 H 0.16526 0.58757 0.98622 0.0
H1486 H 0.31804 0.56037 0.00564 0.0
H1487 H 0.26199 0.56774 0.00306 0.0
C1488 C 0.78905 0.24929 0.15885 0.0
C1489 C 0.79831 0.28477 0.15218 0.0
C1490 C 0.75189 0.21702 0.15764 0.0
C1491 C 0.64886 0.1863 0.14503 0.0
H1492 H 0.63515 0.08538 0.15053 0.0
C1493 C 0.49403 0.04975 0.14485 0.0
C1494 C 0.48914 1.01355 0.14134 0.0
C1495 C 0.53094 0.0825 0.14623 0.0
C1496 C 0.63784 0.11304 0.14869 0.0
H1497 H 0.77424 0.3129 0.13877 0.0
H1498 H 0.7108 0.25716 0.13604 0.0
H1499 H 0.69844 0.14042 0.15197 0.0
H1500 H 0.52076 0.98469 0.13635 0.0
H1501 H 0.58387 0.04079 0.13802 0.0
H1502 H 0.5884 0.1587 0.141 0.0
C1503 C 0.73169 0.25398 0.1427 0.0
C1504 C 0.67493 0.14541 0.14984 0.0
C1505 C 0.76873 0.28641 0.14413 0.0
C1506 C 0.52277 1.01168 0.13913 0.0
C1507 C 0.55956 0.04439 0.14028 0.0
C1508 C 0.61179 0.15386 0.14367 0.0
C1509 C 0.72205 0.21831 0.14948 0.0
C1510 C 0.68162 0.18308 0.1481 0.0
C1511 C 0.56486 0.08079 0.14398 0.0
C1512 C 0.60513 0.11621 0.14547 0.0
H1513 H 0.81047 0.24651 0.16535 0.0
H1514 H 0.74668 0.19116 0.16345 0.0
H1515 H 0.65142 0.21406 0.1438 0.0
H1516 H 0.46921 0.05277 0.1468 0.0
H1517 H 0.53256 0.10909 0.14936 0.0
C1518 C 0.54722 0.78633 0.31433 0.0
C1519 C 0.57829 0.81618 0.32228 0.0
C1520 C 0.54242 0.74915 0.31336 0.0
C1521 C 0.59337 0.69162 0.32129 0.0
H1522 H 0.49278 0.60559 0.31352 0.0
C1523 C 0.57149 0.53704 0.31152 0.0
C1524 C 0.53562 0.50405 0.31416 0.0
C1525 C 0.57669 0.57438 0.31264 0.0
C1526 C 0.52125 0.62881 0.31589 0.0
H1527 H 0.62842 0.82849 0.33568 0.0
H1528 H 0.61982 0.76444 0.33441 0.0
H1529 H 0.50129 0.66901 0.31562 0.0
H1530 H 0.47717 0.4862 0.32035 0.0
H1531 H 0.48618 0.55017 0.3228 0.0
H1532 H 0.61306 0.6512 0.32218 0.0
C1533 C 0.59929 0.7696 0.32845 0.0
C1534 C 0.52636 0.66614 0.31685 0.0
C1535 C 0.60427 0.80691 0.32928 0.0
C1536 C 0.50531 0.51033 0.31815 0.0
C1537 C 0.51057 0.54767 0.31942 0.0
C1538 C 0.5882 0.65425 0.32045 0.0
C1539 C 0.56818 0.7395 0.32045 0.0
C1540 C 0.56261 0.69878 0.31953 0.0
C1541 C 0.54638 0.58092 0.3166 0.0
C1542 C 0.55199 0.62163 0.31768 0.0
H1543 H 0.5264 0.79169 0.3087 0.0
H1544 H 0.51839 0.72809 0.30679 0.0
H1545 H 0.62204 0.71501 0.32317 0.0
H1546 H 0.59575 0.53411 0.30828 0.0
H1547 H 0.60473 0.59813 0.31004 0.0
C1548 C 1.03739 0.47533 0.48024 0.0
C1549 C 0.07467 0.50721 0.4794 0.0
C1550 C 1.00473 0.47958 0.48174 0.0
C1551 C 0.97105 0.55188 0.4772 0.0
H1552 H 0.88269 0.47713 0.49998 0.0
C1553 C 0.83996 0.57474 0.48918 0.0
C1554 C 0.80284 0.54298 0.49093 0.0
C1555 C 0.8726 0.57046 0.48779 0.0
C1556 C 0.90667 0.49823 0.49334 0.0
H1557 H 0.1057 0.56898 0.47982 0.0
H1558 H 0.04956 0.57637 0.48245 0.0
H1559 H 0.93863 0.46965 0.49763 0.0
H1560 H 0.77221 0.4813 0.49242 0.0
H1561 H 0.82816 0.47376 0.48973 0.0
H1562 H 0.93911 0.58034 0.4728 0.0
C1563 C 0.04518 0.54779 0.48169 0.0
C1564 C 0.93928 0.49388 0.492 0.0
C1565 C 0.0778 0.54352 0.48024 0.0
C1566 C 0.79992 0.5067 0.49115 0.0
C1567 C 0.83253 0.50239 0.48971 0.0
C1568 C 0.9384 0.55616 0.47849 0.0
C1569 C 1.00774 0.51593 0.48244 0.0
C1570 C 0.97237 0.5206 0.4839 0.0
C1571 C 0.86983 0.53415 0.48804 0.0
C1572 C 0.90527 0.52947 0.48661 0.0
H1573 H 1.03327 0.4468 0.47968 0.0
H1574 H 0.97691 0.45405 0.48208 0.0
H1575 H 0.99515 0.57301 0.47062 0.0
H1576 H 0.84399 0.60327 0.48904 0.0
H1577 H 0.90024 0.59603 0.4868 0.0
C1578 C 0.26492 0.79207 0.65654 0.0
C1579 C 0.25723 0.75558 0.65174 0.0
C1580 C 0.30218 0.82441 0.65572 0.0
C1581 C 0.40758 0.8542 0.65087 0.0
H1582 H 0.41989 0.95423 0.64389 0.0
C1583 C 0.56047 0.99021 0.64099 0.0
C1584 C 0.56723 1.0266 0.64545 0.0
C1585 C 0.52343 0.95738 0.64178 0.0
C1586 C 0.4175 0.92678 0.64608 0.0
H1587 H 0.28456 0.72577 0.64232 0.0
H1588 H 0.34869 0.7815 0.64072 0.0
H1589 H 0.35614 0.89864 0.64517 0.0
H1590 H 0.53864 0.0556 0.65446 0.0
H1591 H 0.47523 0.99931 0.65605 0.0
H1592 H 0.46899 0.88239 0.65179 0.0
C1593 C 0.32598 0.78535 0.64532 0.0
C1594 C 0.38029 0.89435 0.64681 0.0
C1595 C 0.28868 0.753 0.64613 0.0
C1596 C 0.53524 0.02853 0.65083 0.0
C1597 C 0.49829 0.9958 0.65162 0.0
C1598 C 0.44483 0.88667 0.65015 0.0
C1599 C 0.33379 0.82198 0.6501 0.0
C1600 C 0.37425 0.85713 0.64925 0.0
C1601 C 0.49123 0.9593 0.64706 0.0
C1602 C 0.45086 0.92392 0.64776 0.0
H1603 H 0.24205 0.79574 0.6611 0.0
H1604 H 0.30617 0.85137 0.65981 0.0
H1605 H 0.40509 0.82669 0.65302 0.0
H1606 H 0.58387 0.987 0.63672 0.0
H1607 H 0.52007 0.9305 0.63792 0.0
loop_
_geom_bond_atom_site_label_1
_geom_bond_atom_site_label_2
_geom_bond_distance
_geom_bond_site_symmetry_2
_ccdc_geom_bond_type
O0 Tb1 2.292 . S
O0 C3 1.255 . S
Tb1 O0 2.292 . S
Tb1 O17 2.326 . S
Tb1 O19 2.500 . S
Tb1 O20 2.473 . S
Tb1 O23 2.324 . S
Eu2 O6 2.292 . S
Eu2 C7 2.852 1_556 S
Eu2 O18 2.324 1_556 S
Eu2 O22 2.326 1_556 S
Eu2 O24 2.500 . S
Eu2 O25 2.473 1_556 S
C3 O0 1.255 . S
C3 O4 1.247 . S
O4 C3 1.247 . S
C5 O17 1.242 . S
C5 O18 1.258 . S
O6 Eu2 2.292 . S
O6 C8 1.255 . S
C7 Eu2 2.852 1_554 S
C7 C11 1.503 . S
C7 O24 1.273 1_554 S
C7 O25 1.257 . S
C8 O6 1.255 . S
C8 O9 1.247 . S
O9 C8 1.247 . S
C10 O22 1.242 . S
C10 O23 1.258 . S
C11 C7 1.503 . S
C11 C12 1.379 . S
C11 C16 1.376 1_554 S
C12 C11 1.379 . S
C12 C13 1.404 . S
C12 H26 0.929 . S
C13 C12 1.404 . S
C13 C14 1.389 . S
C14 C13 1.389 . S
C14 C15 1.399 . S
C14 H27 0.931 . S
C15 C14 1.399 . S
C15 C16 1.383 1_554 S
C16 C11 1.376 1_556 S
C16 C15 1.383 1_556 S
C16 H28 0.953 . S
O17 Tb1 2.326 . S
O17 C5 1.242 . S
O18 Eu2 2.324 1_554 S
O18 C5 1.258 . S
O19 Tb1 2.500 . S
O19 C21 1.273 . S
O20 Tb1 2.473 . S
O20 C21 1.257 . S
C21 O19 1.273 . S
C21 O20 1.257 . S
O22 Eu2 2.326 1_554 S
O22 C10 1.242 . S
O23 Tb1 2.324 . S
O23 C10 1.258 . S
O24 Eu2 2.500 . S
O24 C7 1.273 1_556 S
O25 Eu2 2.473 1_554 S
O25 C7 1.257 . S
H26 C12 0.929 . S
H27 C14 0.931 . S
H28 C16 0.953 . S
O29 Tb30 2.292 . S
O29 C32 1.255 . S
Tb30 O29 2.292 . S
Tb30 O46 2.326 . S
Tb30 O48 2.500 . S
Tb30 O49 2.473 . S
Tb30 O52 2.324 . S
Eu31 O35 2.292 . S
Eu31 C36 2.852 . S
Eu31 O47 2.324 . S
Eu31 O51 2.326 . S
Eu31 O53 2.500 . S
Eu31 O54 2.473 . S
C32 O29 1.255 . S
C32 O33 1.247 . S
O33 C32 1.247 . S
C34 O46 1.242 . S
C34 O47 1.258 . S
O35 Eu31 2.292 . S
O35 C37 1.255 . S
C36 Eu31 2.852 . S
C36 C40 1.534 . S
C36 O53 1.273 . S
C36 O54 1.257 . S
C37 O35 1.255 . S
C37 O38 1.247 . S
O38 C37 1.247 . S
C39 O51 1.242 . S
C39 O52 1.258 . S
C40 C36 1.534 . S
C40 C41 1.373 . S
C40 C45 1.370 1_655 S
C41 C40 1.373 . S
C41 C42 1.394 1_655 S
C41 H55 0.936 . S
C42 C41 1.394 1_455 S
C42 C43 1.389 . S
C43 C42 1.389 . S
C43 C44 1.399 . S
C43 H56 0.931 . S
C44 C43 1.399 . S
C44 C45 1.390 . S
C45 C40 1.370 1_455 S
C45 C44 1.390 . S
C45 H57 0.929 . S
O46 Tb30 2.326 . S
O46 C34 1.242 . S
O47 Eu31 2.324 . S
O47 C34 1.258 . S
O48 Tb30 2.500 . S
O48 C50 1.273 . S
O49 Tb30 2.473 . S
O49 C50 1.257 . S
C50 O48 1.273 . S
C50 O49 1.257 . S
O51 Eu31 2.326 . S
O51 C39 1.242 . S
O52 Tb30 2.324 . S
O52 C39 1.258 . S
O53 Eu31 2.500 . S
O53 C36 1.273 . S
O54 Eu31 2.473 . S
O54 C36 1.257 . S
H55 C41 0.936 . S
H56 C43 0.931 . S
H57 C45 0.929 . S
O58 Tb59 2.292 . S
O58 C61 1.255 . S
Tb59 O58 2.292 . S
Tb59 O75 2.326 . S
Tb59 O77 2.500 . S
Tb59 O78 2.473 . S
Tb59 O81 2.324 . S
Eu60 O64 2.292 . S
Eu60 C65 2.852 . S
Eu60 O76 2.324 . S
Eu60 O80 2.326 . S
Eu60 O82 2.500 . S
Eu60 O83 2.473 . S
C61 O58 1.255 . S
C61 O62 1.247 . S
O62 C61 1.247 . S
C63 O75 1.242 . S
C63 O76 1.258 . S
O64 Eu60 2.292 . S
O64 C66 1.255 . S
C65 Eu60 2.852 . S
C65 C69 1.519 . S
C65 O82 1.273 . S
C65 O83 1.257 . S
C66 O64 1.255 . S
C66 O67 1.247 . S
O67 C66 1.247 . S
C68 O80 1.242 . S
C68 O81 1.258 . S
C69 C65 1.519 . S
C69 C70 1.385 . S
C69 C74 1.367 1_565 S
C70 C69 1.385 . S
C70 C71 1.399 1_565 S
C70 H84 0.938 . S
C71 C70 1.399 1_545 S
C71 C72 1.389 . S
C72 C71 1.389 . S
C72 C73 1.399 . S
C72 H85 0.931 . S
C73 C72 1.399 . S
C73 C74 1.390 . S
C74 C69 1.367 1_545 S
C74 C73 1.390 . S
C74 H86 0.929 . S
O75 Tb59 2.326 . S
O75 C63 1.242 . S
O76 Eu60 2.324 . S
O76 C63 1.258 . S
O77 Tb59 2.500 . S
O77 C79 1.273 . S
O78 Tb59 2.473 . S
O78 C79 1.257 . S
C79 O77 1.273 . S
C79 O78 1.257 . S
O80 Eu60 2.326 . S
O80 C68 1.242 . S
O81 Tb59 2.324 . S
O81 C68 1.258 . S
O82 Eu60 2.500 . S
O82 C65 1.273 . S
O83 Eu60 2.473 . S
O83 C65 1.257 . S
H84 C70 0.938 . S
H85 C72 0.931 . S
H86 C74 0.929 . S
O87 Tb88 2.292 . S
O87 C90 1.255 . S
Tb88 O87 2.292 . S
Tb88 O104 2.326 . S
Tb88 O106 2.500 . S
Tb88 O107 2.473 . S
Tb88 O110 2.324 . S
Eu89 O93 2.292 . S
Eu89 C94 2.852 . S
Eu89 O105 2.324 . S
Eu89 O109 2.326 . S
Eu89 O111 2.500 . S
Eu89 O112 2.473 . S
C90 O87 1.255 . S
C90 O91 1.247 . S
O91 C90 1.247 . S
C92 O104 1.242 . S
C92 O105 1.258 . S
O93 Eu89 2.292 . S
O93 C95 1.255 . S
C94 Eu89 2.852 . S
C94 C98 1.503 . S
C94 O111 1.273 . S
C94 O112 1.257 . S
C95 O93 1.255 . S
C95 O96 1.247 . S
O96 C95 1.247 . S
C97 O109 1.242 . S
C97 O110 1.258 . S
C98 C94 1.503 . S
C98 C99 1.379 . S
C98 C103 1.392 . S
C99 C98 1.379 . S
C99 C100 1.404 . S
C99 H113 0.929 . S
C100 C99 1.404 . S
C100 C101 1.389 . S
C101 C100 1.389 . S
C101 C102 1.399 . S
C101 H114 0.931 . S
C102 C101 1.399 . S
C102 C103 1.390 . S
C103 C98 1.392 . S
C103 C102 1.390 . S
C103 H115 0.929 . S
O104 Tb88 2.326 . S
O104 C92 1.242 . S
O105 Eu89 2.324 . S
O105 C92 1.258 . S
O106 Tb88 2.500 . S
O106 C108 1.273 . S
O107 Tb88 2.473 . S
O107 C108 1.257 . S
C108 O106 1.273 . S
C108 O107 1.257 . S
O109 Eu89 2.326 . S
O109 C97 1.242 . S
O110 Tb88 2.324 . S
O110 C97 1.258 . S
O111 Eu89 2.500 . S
O111 C94 1.273 . S
O112 Eu89 2.473 . S
O112 C94 1.257 . S
H113 C99 0.929 . S
H114 C101 0.931 . S
H115 C103 0.929 . S
O116 Tb117 2.292 . S
O116 C119 1.255 . S
Tb117 O116 2.292 . S
Tb117 O133 2.326 . S
Tb117 O135 2.500 . S
Tb117 O136 2.473 . S
Tb117 O139 2.324 . S
Eu118 O122 2.292 . S
Eu118 C123 2.852 . S
Eu118 O134 2.324 . S
Eu118 O138 2.326 . S
Eu118 O140 2.500 . S
Eu118 O141 2.473 . S
C119 O116 1.255 . S
C119 O120 1.247 . S
O120 C119 1.247 . S
C121 O133 1.242 . S
C121 O134 1.258 . S
O122 Eu118 2.292 . S
O122 C124 1.255 . S
C123 Eu118 2.852 . S
C123 C127 1.534 . S
C123 O140 1.273 . S
C123 O141 1.257 . S
C124 O122 1.255 . S
C124 O125 1.247 . S
O125 C124 1.247 . S
C126 O138 1.242 . S
C126 O139 1.258 . S
C127 C123 1.534 . S
C127 C128 1.373 . S
C127 C132 1.370 1_455 S
C128 C127 1.373 . S
C128 C129 1.394 1_455 S
C128 H142 0.936 . S
C129 C128 1.394 1_655 S
C129 C130 1.389 . S
C130 C129 1.389 . S
C130 C131 1.399 . S
C130 H143 0.931 . S
C131 C130 1.399 . S
C131 C132 1.390 . S
C132 C127 1.370 1_655 S
C132 C131 1.390 . S
C132 H144 0.929 . S
O133 Tb117 2.326 . S
O133 C121 1.242 . S
O134 Eu118 2.324 . S
O134 C121 1.258 . S
O135 Tb117 2.500 . S
O135 C137 1.273 . S
O136 Tb117 2.473 . S
O136 C137 1.257 . S
C137 O135 1.273 . S
C137 O136 1.257 . S
O138 Eu118 2.326 . S
O138 C126 1.242 . S
O139 Tb117 2.324 . S
O139 C126 1.258 . S
O140 Eu118 2.500 . S
O140 C123 1.273 . S
O141 Eu118 2.473 . S
O141 C123 1.257 . S
H142 C128 0.936 . S
H143 C130 0.931 . S
H144 C132 0.929 . S
O145 Tb146 2.292 . S
O145 C148 1.255 . S
Tb146 O145 2.292 . S
Tb146 O162 2.326 . S
Tb146 O164 2.500 . S
Tb146 O165 2.473 . S
Tb146 O168 2.324 . S
Eu147 O151 2.292 . S
Eu147 C152 2.852 . S
Eu147 O163 2.324 . S
Eu147 O167 2.326 . S
Eu147 O169 2.500 . S
Eu147 O170 2.473 . S
C148 O145 1.255 . S
C148 O149 1.247 . S
O149 C148 1.247 . S
C150 O162 1.242 . S
C150 O163 1.258 . S
O151 Eu147 2.292 . S
O151 C153 1.255 . S
C152 Eu147 2.852 . S
C152 C156 1.519 . S
C152 O169 1.273 . S
C152 O170 1.257 . S
C153 O151 1.255 . S
C153 O154 1.247 . S
O154 C153 1.247 . S
C155 O167 1.242 . S
C155 O168 1.258 . S
C156 C152 1.519 . S
C156 C157 1.385 . S
C156 C161 1.367 1_545 S
C157 C156 1.385 . S
C157 C158 1.399 1_545 S
C157 H171 0.938 . S
C158 C157 1.399 1_565 S
C158 C159 1.389 . S
C159 C158 1.389 . S
C159 C160 1.399 . S
C159 H172 0.931 . S
C160 C159 1.399 . S
C160 C161 1.390 . S
C161 C156 1.367 1_565 S
C161 C160 1.390 . S
C161 H173 0.929 . S
O162 Tb146 2.326 . S
O162 C150 1.242 . S
O163 Eu147 2.324 . S
O163 C150 1.258 . S
O164 Tb146 2.500 . S
O164 C166 1.273 . S
O165 Tb146 2.473 . S
O165 C166 1.257 . S
C166 O164 1.273 . S
C166 O165 1.257 . S
O167 Eu147 2.326 . S
O167 C155 1.242 . S
O168 Tb146 2.324 . S
O168 C155 1.258 . S
O169 Eu147 2.500 . S
O169 C152 1.273 . S
O170 Eu147 2.473 . S
O170 C152 1.257 . S
H171 C157 0.938 . S
H172 C159 0.931 . S
H173 C161 0.929 . S
O174 Tb175 2.292 . S
O174 C177 1.255 . S
Tb175 O174 2.292 . S
Tb175 O191 2.326 . S
Tb175 O193 2.500 . S
Tb175 O194 2.473 . S
Tb175 O197 2.324 . S
Eu176 O180 2.292 . S
Eu176 C181 2.852 . S
Eu176 O192 2.324 . S
Eu176 O196 2.326 . S
Eu176 O198 2.500 . S
Eu176 O199 2.473 . S
C177 O174 1.255 . S
C177 O178 1.247 . S
O178 C177 1.247 . S
C179 O191 1.242 . S
C179 O192 1.258 . S
O180 Eu176 2.292 . S
O180 C182 1.255 . S
C181 Eu176 2.852 . S
C181 C185 1.503 . S
C181 O198 1.273 . S
C181 O199 1.257 . S
C182 O180 1.255 . S
C182 O183 1.247 . S
O183 C182 1.247 . S
C184 O196 1.242 . S
C184 O197 1.258 . S
C185 C181 1.503 . S
C185 C186 1.379 . S
C185 C190 1.392 . S
C186 C185 1.379 . S
C186 C187 1.404 . S
C186 H200 0.929 . S
C187 C186 1.404 . S
C187 C188 1.389 . S
C188 C187 1.389 . S
C188 C189 1.399 . S
C188 H201 0.931 . S
C189 C188 1.399 . S
C189 C190 1.390 . S
C190 C185 1.392 . S
C190 C189 1.390 . S
C190 H202 0.929 . S
O191 Tb175 2.326 . S
O191 C179 1.242 . S
O192 Eu176 2.324 . S
O192 C179 1.258 . S
O193 Tb175 2.500 . S
O193 C195 1.273 . S
O194 Tb175 2.473 . S
O194 C195 1.257 . S
C195 O193 1.273 . S
C195 O194 1.257 . S
O196 Eu176 2.326 . S
O196 C184 1.242 . S
O197 Tb175 2.324 . S
O197 C184 1.258 . S
O198 Eu176 2.500 . S
O198 C181 1.273 . S
O199 Eu176 2.473 . S
O199 C181 1.257 . S
H200 C186 0.929 . S
H201 C188 0.931 . S
H202 C190 0.929 . S
O203 Tb204 2.292 . S
O203 C206 1.255 . S
Tb204 O203 2.292 . S
Tb204 O220 2.326 . S
Tb204 O222 2.500 . S
Tb204 O223 2.473 . S
Tb204 O226 2.324 . S
Eu205 O209 2.292 . S
Eu205 C210 2.852 1_554 S
Eu205 O221 2.324 1_554 S
Eu205 O225 2.326 1_554 S
Eu205 O227 2.500 . S
Eu205 O228 2.473 1_554 S
C206 O203 1.255 . S
C206 O207 1.247 . S
O207 C206 1.247 . S
C208 O220 1.242 . S
C208 O221 1.258 . S
O209 Eu205 2.292 . S
O209 C211 1.255 . S
C210 Eu205 2.852 1_556 S
C210 C214 1.519 . S
C210 O227 1.273 1_556 S
C210 O228 1.257 . S
C211 O209 1.255 . S
C211 O212 1.247 . S
O212 C211 1.247 . S
C213 O225 1.242 . S
C213 O226 1.258 . S
C214 C210 1.519 . S
C214 C215 1.385 . S
C214 C219 1.374 1_655 S
C215 C214 1.385 . S
C215 C216 1.399 1_655 S
C215 H229 0.938 . S
C216 C215 1.399 1_455 S
C216 C217 1.389 . S
C217 C216 1.389 . S
C217 C218 1.399 . S
C217 H230 0.931 . S
C218 C217 1.399 . S
C218 C219 1.393 . S
C219 C214 1.374 1_455 S
C219 C218 1.393 . S
C219 H231 0.919 1_556 S
O220 Tb204 2.326 . S
O220 C208 1.242 . S
O221 Eu205 2.324 1_556 S
O221 C208 1.258 . S
O222 Tb204 2.500 . S
O222 C224 1.273 . S
O223 Tb204 2.473 . S
O223 C224 1.257 . S
C224 O222 1.273 . S
C224 O223 1.257 . S
O225 Eu205 2.326 1_556 S
O225 C213 1.242 . S
O226 Tb204 2.324 . S
O226 C213 1.258 . S
O227 Eu205 2.500 . S
O227 C210 1.273 1_554 S
O228 Eu205 2.473 1_556 S
O228 C210 1.257 . S
H229 C215 0.938 . S
H230 C217 0.931 . S
H231 C219 0.919 1_554 S
O232 Tb233 2.292 . S
O232 C235 1.255 . S
Tb233 O232 2.292 . S
Tb233 O249 2.326 . S
Tb233 O251 2.500 . S
Tb233 O252 2.473 . S
Tb233 O255 2.324 . S
Eu234 O238 2.292 . S
Eu234 C239 2.852 . S
Eu234 O250 2.324 . S
Eu234 O254 2.326 . S
Eu234 O256 2.500 . S
Eu234 O257 2.473 . S
C235 O232 1.255 . S
C235 O236 1.247 . S
O236 C235 1.247 . S
C237 O249 1.242 . S
C237 O250 1.258 . S
O238 Eu234 2.292 . S
O238 C240 1.255 . S
C239 Eu234 2.852 . S
C239 C243 1.534 . S
C239 O256 1.273 . S
C239 O257 1.257 . S
C240 O238 1.255 . S
C240 O241 1.247 . S
O241 C240 1.247 . S
C242 O254 1.242 . S
C242 O255 1.258 . S
C243 C239 1.534 . S
C243 C244 1.373 . S
C243 C248 1.370 1_565 S
C244 C243 1.373 . S
C244 C245 1.394 1_565 S
C244 H258 0.936 . S
C245 C244 1.394 1_545 S
C245 C246 1.389 . S
C246 C245 1.389 . S
C246 C247 1.399 . S
C246 H259 0.931 . S
C247 C246 1.399 . S
C247 C248 1.390 . S
C248 C243 1.370 1_545 S
C248 C247 1.390 . S
C248 H260 0.929 . S
O249 Tb233 2.326 . S
O249 C237 1.242 . S
O250 Eu234 2.324 . S
O250 C237 1.258 . S
O251 Tb233 2.500 . S
O251 C253 1.273 . S
O252 Tb233 2.473 . S
O252 C253 1.257 . S
C253 O251 1.273 . S
C253 O252 1.257 . S
O254 Eu234 2.326 . S
O254 C242 1.242 . S
O255 Tb233 2.324 . S
O255 C242 1.258 . S
O256 Eu234 2.500 . S
O256 C239 1.273 . S
O257 Eu234 2.473 . S
O257 C239 1.257 . S
H258 C244 0.936 . S
H259 C246 0.931 . S
H260 C248 0.929 . S
O261 Tb262 2.292 . S
O261 C264 1.255 . S
Tb262 O261 2.292 . S
Tb262 O278 2.326 . S
Tb262 O280 2.500 . S
Tb262 O281 2.473 . S
Tb262 O284 2.324 . S
Eu263 O267 2.292 . S
Eu263 C268 2.852 . S
Eu263 O279 2.324 . S
Eu263 O283 2.326 . S
Eu263 O285 2.500 . S
Eu263 O286 2.473 . S
C264 O261 1.255 . S
C264 O265 1.247 . S
O265 C264 1.247 . S
C266 O278 1.242 . S
C266 O279 1.258 . S
O267 Eu263 2.292 . S
O267 C269 1.255 . S
C268 Eu263 2.852 . S
C268 C272 1.503 . S
C268 O285 1.273 . S
C268 O286 1.257 . S
C269 O267 1.255 . S
C269 O270 1.247 . S
O270 C269 1.247 . S
C271 O283 1.242 . S
C271 O284 1.258 . S
C272 C268 1.503 . S
C272 C273 1.379 . S
C272 C277 1.392 . S
C273 C272 1.379 . S
C273 C274 1.404 . S
C273 H287 0.929 . S
C274 C273 1.404 . S
C274 C275 1.389 . S
C275 C274 1.389 . S
C275 C276 1.399 . S
C275 H288 0.931 . S
C276 C275 1.399 . S
C276 C277 1.390 . S
C277 C272 1.392 . S
C277 C276 1.390 . S
C277 H289 0.929 . S
O278 Tb262 2.326 . S
O278 C266 1.242 . S
O279 Eu263 2.324 . S
O279 C266 1.258 . S
O280 Tb262 2.500 . S
O280 C282 1.273 . S
O281 Tb262 2.473 . S
O281 C282 1.257 . S
C282 O280 1.273 . S
C282 O281 1.257 . S
O283 Eu263 2.326 . S
O283 C271 1.242 . S
O284 Tb262 2.324 . S
O284 C271 1.258 . S
O285 Eu263 2.500 . S
O285 C268 1.273 . S
O286 Eu263 2.473 . S
O286 C268 1.257 . S
H287 C273 0.929 . S
H288 C275 0.931 . S
H289 C277 0.929 . S
O290 Tb291 2.292 . S
O290 C293 1.255 . S
Tb291 O290 2.292 . S
Tb291 O307 2.326 . S
Tb291 O309 2.500 . S
Tb291 O310 2.473 . S
Tb291 O313 2.324 . S
Eu292 O296 2.292 . S
Eu292 C297 2.852 . S
Eu292 O308 2.324 . S
Eu292 O312 2.326 . S
Eu292 O314 2.500 . S
Eu292 O315 2.473 . S
C293 O290 1.255 . S
C293 O294 1.247 . S
O294 C293 1.247 . S
C295 O307 1.242 . S
C295 O308 1.258 . S
O296 Eu292 2.292 . S
O296 C298 1.255 . S
C297 Eu292 2.852 . S
C297 C301 1.519 . S
C297 O314 1.273 . S
C297 O315 1.257 . S
C298 O296 1.255 . S
C298 O299 1.247 . S
O299 C298 1.247 . S
C300 O312 1.242 . S
C300 O313 1.258 . S
C301 C297 1.519 . S
C301 C302 1.385 . S
C301 C306 1.367 1_455 S
C302 C301 1.385 . S
C302 C303 1.399 1_455 S
C302 H316 0.938 . S
C303 C302 1.399 1_655 S
C303 C304 1.389 . S
C304 C303 1.389 . S
C304 C305 1.399 . S
C304 H317 0.931 . S
C305 C304 1.399 . S
C305 C306 1.390 . S
C306 C301 1.367 1_655 S
C306 C305 1.390 . S
C306 H318 0.929 . S
O307 Tb291 2.326 . S
O307 C295 1.242 . S
O308 Eu292 2.324 . S
O308 C295 1.258 . S
O309 Tb291 2.500 . S
O309 C311 1.273 . S
O310 Tb291 2.473 . S
O310 C311 1.257 . S
C311 O309 1.273 . S
C311 O310 1.257 . S
O312 Eu292 2.326 . S
O312 C300 1.242 . S
O313 Tb291 2.324 . S
O313 C300 1.258 . S
O314 Eu292 2.500 . S
O314 C297 1.273 . S
O315 Eu292 2.473 . S
O315 C297 1.257 . S
H316 C302 0.938 . S
H317 C304 0.931 . S
H318 C306 0.929 . S
O319 Tb320 2.292 . S
O319 C322 1.255 . S
Tb320 O319 2.292 . S
Tb320 O336 2.326 . S
Tb320 O338 2.500 . S
Tb320 O339 2.473 . S
Tb320 O342 2.324 . S
Eu321 O325 2.292 . S
Eu321 C326 2.852 . S
Eu321 O337 2.324 . S
Eu321 O341 2.326 . S
Eu321 O343 2.500 . S
Eu321 O344 2.473 . S
C322 O319 1.255 . S
C322 O323 1.247 . S
O323 C322 1.247 . S
C324 O336 1.242 . S
C324 O337 1.258 . S
O325 Eu321 2.292 . S
O325 C327 1.255 . S
C326 Eu321 2.852 . S
C326 C330 1.534 . S
C326 O343 1.273 . S
C326 O344 1.257 . S
C327 O325 1.255 . S
C327 O328 1.247 . S
O328 C327 1.247 . S
C329 O341 1.242 . S
C329 O342 1.258 . S
C330 C326 1.534 . S
C330 C331 1.373 . S
C330 C335 1.370 1_545 S
C331 C330 1.373 . S
C331 C332 1.394 1_545 S
C331 H345 0.936 . S
C332 C331 1.394 1_565 S
C332 C333 1.389 . S
C333 C332 1.389 . S
C333 C334 1.399 . S
C333 H346 0.931 . S
C334 C333 1.399 . S
C334 C335 1.390 . S
C335 C330 1.370 1_565 S
C335 C334 1.390 . S
C335 H347 0.929 . S
O336 Tb320 2.326 . S
O336 C324 1.242 . S
O337 Eu321 2.324 . S
O337 C324 1.258 . S
O338 Tb320 2.500 . S
O338 C340 1.273 . S
O339 Tb320 2.473 . S
O339 C340 1.257 . S
C340 O338 1.273 . S
C340 O339 1.257 . S
O341 Eu321 2.326 . S
O341 C329 1.242 . S
O342 Tb320 2.324 . S
O342 C329 1.258 . S
O343 Eu321 2.500 . S
O343 C326 1.273 . S
O344 Eu321 2.473 . S
O344 C326 1.257 . S
H345 C331 0.936 . S
H346 C333 0.931 . S
H347 C335 0.929 . S
C348 C349 1.349 . S
C348 C350 1.327 . S
C348 H373 0.950 . S
C349 C348 1.349 . S
C349 C365 1.349 . S
C350 C348 1.327 . S
C350 C369 1.429 . S
C350 H374 0.950 . S
C351 C368 1.574 . S
C351 C370 1.368 . S
C351 H375 0.949 . S
H352 C356 0.949 . S
C353 C354 1.349 . S
C353 C355 1.327 . S
C353 H376 0.950 . S
C354 C353 1.349 . S
C354 C366 1.349 . S
C355 C353 1.327 . S
C355 C371 1.429 . S
C355 H377 0.950 . S
C356 H352 0.949 . S
C356 C364 1.574 . S
C356 C372 1.368 . S
H357 C365 0.950 . S
H358 C363 0.950 . S
H359 C364 0.949 . S
H360 C366 0.950 . S
H361 C367 0.950 . S
H362 C368 0.949 . S
C363 H358 0.950 . S
C363 C365 1.327 . S
C363 C369 1.429 . S
C364 C356 1.574 . S
C364 H359 0.949 . S
C364 C370 1.368 . S
C365 C349 1.349 . S
C365 H357 0.950 . S
C365 C363 1.327 . S
C366 C354 1.349 . S
C366 H360 0.950 . S
C366 C367 1.327 . S
C367 H361 0.950 . S
C367 C366 1.327 . S
C367 C371 1.429 . S
C368 C351 1.574 . S
C368 H362 0.949 . S
C368 C372 1.368 . S
C369 C350 1.429 . S
C369 C363 1.429 . S
C369 C370 1.523 . S
C370 C351 1.368 . S
C370 C364 1.368 . S
C370 C369 1.523 . S
C371 C355 1.429 . S
C371 C367 1.429 . S
C371 C372 1.523 . S
C372 C356 1.368 . S
C372 C368 1.368 . S
C372 C371 1.523 . S
H373 C348 0.950 . S
H374 C350 0.950 . S
H375 C351 0.949 . S
H376 C353 0.950 . S
H377 C355 0.950 . S
C378 C379 1.349 . S
C378 C380 1.327 . S
C378 H403 0.950 . S
C379 C378 1.349 . S
C379 C395 1.349 . S
C380 C378 1.327 . S
C380 C399 1.429 . S
C380 H404 0.950 . S
C381 C398 1.574 . S
C381 C400 1.368 . S
C381 H405 0.949 . S
H382 C386 0.949 . S
C383 C384 1.349 . S
C383 C385 1.327 . S
C383 H406 0.950 . S
C384 C383 1.349 . S
C384 C396 1.349 . S
C385 C383 1.327 . S
C385 C401 1.429 . S
C385 H407 0.950 . S
C386 H382 0.949 . S
C386 C394 1.574 . S
C386 C402 1.368 . S
H387 C395 0.950 . S
H388 C393 0.950 . S
H389 C394 0.949 . S
H390 C396 0.950 . S
H391 C397 0.950 . S
H392 C398 0.949 . S
C393 H388 0.950 . S
C393 C395 1.327 . S
C393 C399 1.429 . S
C394 C386 1.574 . S
C394 H389 0.949 . S
C394 C400 1.368 . S
C395 C379 1.349 . S
C395 H387 0.950 . S
C395 C393 1.327 . S
C396 C384 1.349 . S
C396 H390 0.950 . S
C396 C397 1.327 . S
C397 H391 0.950 . S
C397 C396 1.327 . S
C397 C401 1.429 . S
C398 C381 1.574 . S
C398 H392 0.949 . S
C398 C402 1.368 . S
C399 C380 1.429 . S
C399 C393 1.429 . S
C399 C400 1.523 . S
C400 C381 1.368 . S
C400 C394 1.368 . S
C400 C399 1.523 . S
C401 C385 1.429 . S
C401 C397 1.429 . S
C401 C402 1.523 . S
C402 C386 1.368 . S
C402 C398 1.368 . S
C402 C401 1.523 . S
H403 C378 0.950 . S
H404 C380 0.950 . S
H405 C381 0.949 . S
H406 C383 0.950 . S
H407 C385 0.950 . S
C408 C409 1.349 . S
C408 C410 1.327 . S
C408 H433 0.950 . S
C409 C408 1.349 . S
C409 C425 1.349 . S
C410 C408 1.327 . S
C410 C429 1.429 . S
C410 H434 0.950 . S
C411 C428 1.574 . S
C411 C430 1.368 . S
C411 H435 0.949 . S
H412 C416 0.949 . S
C413 C414 1.349 . S
C413 C415 1.327 . S
C413 H436 0.950 . S
C414 C413 1.349 . S
C414 C426 1.349 . S
C415 C413 1.327 . S
C415 C431 1.429 . S
C415 H437 0.950 . S
C416 H412 0.949 . S
C416 C424 1.574 . S
C416 C432 1.368 . S
H417 C425 0.950 . S
H418 C423 0.950 . S
H419 C424 0.949 . S
H420 C426 0.950 . S
H421 C427 0.950 . S
H422 C428 0.949 . S
C423 H418 0.950 . S
C423 C425 1.327 . S
C423 C429 1.429 . S
C424 C416 1.574 . S
C424 H419 0.949 . S
C424 C430 1.368 . S
C425 C409 1.349 . S
C425 H417 0.950 . S
C425 C423 1.327 . S
C426 C414 1.349 . S
C426 H420 0.950 . S
C426 C427 1.327 . S
C427 H421 0.950 . S
C427 C426 1.327 . S
C427 C431 1.429 . S
C428 C411 1.574 . S
C428 H422 0.949 . S
C428 C432 1.368 . S
C429 C410 1.429 . S
C429 C423 1.429 . S
C429 C430 1.523 . S
C430 C411 1.368 . S
C430 C424 1.368 . S
C430 C429 1.523 . S
C431 C415 1.429 . S
C431 C427 1.429 . S
C431 C432 1.523 . S
C432 C416 1.368 . S
C432 C428 1.368 . S
C432 C431 1.523 . S
H433 C408 0.950 . S
H434 C410 0.950 . S
H435 C411 0.949 . S
H436 C413 0.950 . S
H437 C415 0.950 . S
C438 C439 1.349 . S
C438 C440 1.327 . S
C438 H463 0.950 . S
C439 C438 1.349 . S
C439 C455 1.349 . S
C440 C438 1.327 . S
C440 C459 1.429 . S
C440 H464 0.950 . S
C441 C458 1.574 . S
C441 C460 1.368 . S
C441 H465 0.949 . S
H442 C446 0.949 . S
C443 C444 1.349 . S
C443 C445 1.327 . S
C443 H466 0.950 . S
C444 C443 1.349 . S
C444 C456 1.349 . S
C445 C443 1.327 . S
C445 C461 1.429 . S
C445 H467 0.950 . S
C446 H442 0.949 . S
C446 C454 1.574 . S
C446 C462 1.368 . S
H447 C455 0.950 . S
H448 C453 0.950 . S
H449 C454 0.949 . S
H450 C456 0.950 . S
H451 C457 0.950 . S
H452 C458 0.949 . S
C453 H448 0.950 . S
C453 C455 1.327 . S
C453 C459 1.429 . S
C454 C446 1.574 . S
C454 H449 0.949 . S
C454 C460 1.368 . S
C455 C439 1.349 . S
C455 H447 0.950 . S
C455 C453 1.327 . S
C456 C444 1.349 . S
C456 H450 0.950 . S
C456 C457 1.327 . S
C457 H451 0.950 . S
C457 C456 1.327 . S
C457 C461 1.429 . S
C458 C441 1.574 . S
C458 H452 0.949 . S
C458 C462 1.368 . S
C459 C440 1.429 . S
C459 C453 1.429 . S
C459 C460 1.523 . S
C460 C441 1.368 . S
C460 C454 1.368 . S
C460 C459 1.523 . S
C461 C445 1.429 . S
C461 C457 1.429 . S
C461 C462 1.523 . S
C462 C446 1.368 . S
C462 C458 1.368 . S
C462 C461 1.523 . S
H463 C438 0.950 . S
H464 C440 0.950 . S
H465 C441 0.949 . S
H466 C443 0.950 . S
H467 C445 0.950 . S
C468 C469 1.349 . S
C468 C470 1.327 . S
C468 H493 0.950 . S
C469 C468 1.349 . S
C469 C485 1.349 . S
C470 C468 1.327 . S
C470 C489 1.429 . S
C470 H494 0.950 . S
C471 C488 1.574 . S
C471 C490 1.368 . S
C471 H495 0.949 . S
H472 C476 0.949 . S
C473 C474 1.349 . S
C473 C475 1.327 . S
C473 H496 0.950 . S
C474 C473 1.349 . S
C474 C486 1.349 . S
C475 C473 1.327 . S
C475 C491 1.429 . S
C475 H497 0.950 . S
C476 H472 0.949 . S
C476 C484 1.574 . S
C476 C492 1.368 . S
H477 C485 0.950 . S
H478 C483 0.950 . S
H479 C484 0.949 . S
H480 C486 0.950 . S
H481 C487 0.950 . S
H482 C488 0.949 . S
C483 H478 0.950 . S
C483 C485 1.327 . S
C483 C489 1.429 . S
C484 C476 1.574 . S
C484 H479 0.949 . S
C484 C490 1.368 . S
C485 C469 1.349 . S
C485 H477 0.950 . S
C485 C483 1.327 . S
C486 C474 1.349 . S
C486 H480 0.950 . S
C486 C487 1.327 . S
C487 H481 0.950 . S
C487 C486 1.327 . S
C487 C491 1.429 . S
C488 C471 1.574 . S
C488 H482 0.949 . S
C488 C492 1.368 . S
C489 C470 1.429 . S
C489 C483 1.429 . S
C489 C490 1.523 . S
C490 C471 1.368 . S
C490 C484 1.368 . S
C490 C489 1.523 . S
C491 C475 1.429 . S
C491 C487 1.429 . S
C491 C492 1.523 . S
C492 C476 1.368 . S
C492 C488 1.368 . S
C492 C491 1.523 . S
H493 C468 0.950 . S
H494 C470 0.950 . S
H495 C471 0.949 . S
H496 C473 0.950 . S
H497 C475 0.950 . S
C498 C499 1.349 . S
C498 C500 1.327 . S
C498 H523 0.950 . S
C499 C498 1.349 . S
C499 C515 1.349 . S
C500 C498 1.327 . S
C500 C519 1.429 . S
C500 H524 0.950 . S
C501 C518 1.574 . S
C501 C520 1.368 . S
C501 H525 0.949 . S
H502 C506 0.949 . S
C503 C504 1.349 . S
C503 C505 1.327 . S
C503 H526 0.950 . S
C504 C503 1.349 . S
C504 C516 1.349 . S
C505 C503 1.327 . S
C505 C521 1.429 . S
C505 H527 0.950 . S
C506 H502 0.949 . S
C506 C514 1.574 . S
C506 C522 1.368 . S
H507 C515 0.950 . S
H508 C513 0.950 . S
H509 C514 0.949 . S
H510 C516 0.950 . S
H511 C517 0.950 . S
H512 C518 0.949 . S
C513 H508 0.950 . S
C513 C515 1.327 . S
C513 C519 1.429 . S
C514 C506 1.574 . S
C514 H509 0.949 . S
C514 C520 1.368 . S
C515 C499 1.349 . S
C515 H507 0.950 . S
C515 C513 1.327 . S
C516 C504 1.349 . S
C516 H510 0.950 . S
C516 C517 1.327 . S
C517 H511 0.950 . S
C517 C516 1.327 . S
C517 C521 1.429 . S
C518 C501 1.574 . S
C518 H512 0.949 . S
C518 C522 1.368 . S
C519 C500 1.429 . S
C519 C513 1.429 . S
C519 C520 1.523 . S
C520 C501 1.368 . S
C520 C514 1.368 . S
C520 C519 1.523 . S
C521 C505 1.429 . S
C521 C517 1.429 . S
C521 C522 1.523 . S
C522 C506 1.368 . S
C522 C518 1.368 . S
C522 C521 1.523 . S
H523 C498 0.950 . S
H524 C500 0.950 . S
H525 C501 0.949 . S
H526 C503 0.950 . S
H527 C505 0.950 . S
C528 C529 1.349 . S
C528 C530 1.327 . S
C528 H553 0.950 . S
C529 C528 1.349 . S
C529 C545 1.349 . S
C530 C528 1.327 . S
C530 C549 1.429 . S
C530 H554 0.950 . S
C531 C548 1.574 . S
C531 C550 1.368 . S
C531 H555 0.949 . S
H532 C536 0.949 . S
C533 C534 1.349 . S
C533 C535 1.327 1_554 S
C533 H556 0.950 . S
C534 C533 1.349 . S
C534 C546 1.349 1_554 S
C535 C533 1.327 1_556 S
C535 C551 1.429 . S
C535 H557 0.958 . S
C536 H532 0.949 . S
C536 C544 1.574 . S
C536 C552 1.368 . S
H537 C545 0.950 . S
H538 C543 0.950 . S
H539 C544 0.949 . S
H540 C546 0.950 . S
H541 C547 0.950 . S
H542 C548 0.949 . S
C543 H538 0.950 . S
C543 C545 1.327 . S
C543 C549 1.429 . S
C544 C536 1.574 . S
C544 H539 0.949 . S
C544 C550 1.368 . S
C545 C529 1.349 . S
C545 H537 0.950 . S
C545 C543 1.327 . S
C546 C534 1.349 1_556 S
C546 H540 0.950 . S
C546 C547 1.327 . S
C547 H541 0.950 . S
C547 C546 1.327 . S
C547 C551 1.429 . S
C548 C531 1.574 . S
C548 H542 0.949 . S
C548 C552 1.368 . S
C549 C530 1.429 . S
C549 C543 1.429 . S
C549 C550 1.523 . S
C550 C531 1.368 . S
C550 C544 1.368 . S
C550 C549 1.523 . S
C551 C535 1.429 . S
C551 C547 1.429 . S
C551 C552 1.523 . S
C552 C536 1.368 . S
C552 C548 1.368 . S
C552 C551 1.523 . S
H553 C528 0.950 . S
H554 C530 0.950 . S
H555 C531 0.949 . S
H556 C533 0.950 . S
H557 C535 0.958 . S
C558 C559 1.349 . S
C558 C560 1.327 . S
C558 H583 0.950 . S
C559 C558 1.349 . S
C559 C575 1.349 . S
C560 C558 1.327 . S
C560 C579 1.429 . S
C560 H584 0.950 . S
C561 C578 1.574 . S
C561 C580 1.368 . S
C561 H585 0.949 . S
H562 C566 0.949 . S
C563 C564 1.349 . S
C563 C565 1.327 . S
C563 H586 0.950 . S
C564 C563 1.349 . S
C564 C576 1.349 . S
C565 C563 1.327 . S
C565 C581 1.429 . S
C565 H587 0.950 . S
C566 H562 0.949 . S
C566 C574 1.574 . S
C566 C582 1.368 . S
H567 C575 0.950 . S
H568 C573 0.950 . S
H569 C574 0.949 . S
H570 C576 0.950 . S
H571 C577 0.950 . S
H572 C578 0.949 . S
C573 H568 0.950 . S
C573 C575 1.327 . S
C573 C579 1.429 . S
C574 C566 1.574 . S
C574 H569 0.949 . S
C574 C580 1.368 . S
C575 C559 1.349 . S
C575 H567 0.950 . S
C575 C573 1.327 . S
C576 C564 1.349 . S
C576 H570 0.950 . S
C576 C577 1.327 . S
C577 H571 0.950 . S
C577 C576 1.327 . S
C577 C581 1.429 . S
C578 C561 1.574 . S
C578 H572 0.949 . S
C578 C582 1.368 . S
C579 C560 1.429 . S
C579 C573 1.429 . S
C579 C580 1.523 . S
C580 C561 1.368 . S
C580 C574 1.368 . S
C580 C579 1.523 . S
C581 C565 1.429 . S
C581 C577 1.429 . S
C581 C582 1.523 . S
C582 C566 1.368 . S
C582 C578 1.368 . S
C582 C581 1.523 . S
H583 C558 0.950 . S
H584 C560 0.950 . S
H585 C561 0.949 . S
H586 C563 0.950 . S
H587 C565 0.950 . S
C588 C589 1.349 . S
C588 C590 1.327 . S
C588 H613 0.950 . S
C589 C588 1.349 . S
C589 C605 1.349 . S
C590 C588 1.327 . S
C590 C609 1.429 . S
C590 H614 0.950 . S
C591 C608 1.574 . S
C591 C610 1.368 . S
C591 H615 0.949 . S
H592 C596 0.949 . S
C593 C594 1.349 . S
C593 C595 1.327 . S
C593 H616 0.950 . S
C594 C593 1.349 . S
C594 C606 1.349 . S
C595 C593 1.327 . S
C595 C611 1.429 . S
C595 H617 0.950 . S
C596 H592 0.949 . S
C596 C604 1.574 . S
C596 C612 1.368 . S
H597 C605 0.950 . S
H598 C603 0.950 . S
H599 C604 0.949 . S
H600 C606 0.950 . S
H601 C607 0.950 . S
H602 C608 0.949 . S
C603 H598 0.950 . S
C603 C605 1.327 . S
C603 C609 1.429 . S
C604 C596 1.574 . S
C604 H599 0.949 . S
C604 C610 1.368 . S
C605 C589 1.349 . S
C605 H597 0.950 . S
C605 C603 1.327 . S
C606 C594 1.349 . S
C606 H600 0.950 . S
C606 C607 1.327 . S
C607 H601 0.950 . S
C607 C606 1.327 . S
C607 C611 1.429 . S
C608 C591 1.574 . S
C608 H602 0.949 . S
C608 C612 1.368 . S
C609 C590 1.429 . S
C609 C603 1.429 . S
C609 C610 1.523 . S
C610 C591 1.368 . S
C610 C604 1.368 . S
C610 C609 1.523 . S
C611 C595 1.429 . S
C611 C607 1.429 . S
C611 C612 1.523 . S
C612 C596 1.368 . S
C612 C608 1.368 . S
C612 C611 1.523 . S
H613 C588 0.950 . S
H614 C590 0.950 . S
H615 C591 0.949 . S
H616 C593 0.950 . S
H617 C595 0.950 . S
C618 C619 1.349 . S
C618 C620 1.327 . S
C618 H643 0.950 . S
C619 C618 1.349 . S
C619 C635 1.349 . S
C620 C618 1.327 . S
C620 C639 1.429 . S
C620 H644 0.950 . S
C621 C638 1.574 . S
C621 C640 1.368 . S
C621 H645 0.949 . S
H622 C626 0.949 . S
C623 C624 1.349 . S
C623 C625 1.327 . S
C623 H646 0.950 . S
C624 C623 1.349 . S
C624 C636 1.349 . S
C625 C623 1.327 . S
C625 C641 1.429 . S
C625 H647 0.950 . S
C626 H622 0.949 . S
C626 C634 1.574 . S
C626 C642 1.368 . S
H627 C635 0.950 . S
H628 C633 0.950 . S
H629 C634 0.949 . S
H630 C636 0.950 . S
H631 C637 0.950 . S
H632 C638 0.949 . S
C633 H628 0.950 . S
C633 C635 1.327 . S
C633 C639 1.429 . S
C634 C626 1.574 . S
C634 H629 0.949 . S
C634 C640 1.368 . S
C635 C619 1.349 . S
C635 H627 0.950 . S
C635 C633 1.327 . S
C636 C624 1.349 . S
C636 H630 0.950 . S
C636 C637 1.327 . S
C637 H631 0.950 . S
C637 C636 1.327 . S
C637 C641 1.429 . S
C638 C621 1.574 . S
C638 H632 0.949 . S
C638 C642 1.368 . S
C639 C620 1.429 . S
C639 C633 1.429 . S
C639 C640 1.523 . S
C640 C621 1.368 . S
C640 C634 1.368 . S
C640 C639 1.523 . S
C641 C625 1.429 . S
C641 C637 1.429 . S
C641 C642 1.523 . S
C642 C626 1.368 . S
C642 C638 1.368 . S
C642 C641 1.523 . S
H643 C618 0.950 . S
H644 C620 0.950 . S
H645 C621 0.949 . S
H646 C623 0.950 . S
H647 C625 0.950 . S
C648 C649 1.349 . S
C648 C650 1.327 . S
C648 H673 0.950 . S
C649 C648 1.349 . S
C649 C665 1.349 . S
C650 C648 1.327 . S
C650 C669 1.429 . S
C650 H674 0.950 . S
C651 C668 1.574 . S
C651 C670 1.368 . S
C651 H675 0.949 . S
H652 C656 0.949 . S
C653 C654 1.349 . S
C653 C655 1.327 . S
C653 H676 0.950 . S
C654 C653 1.349 . S
C654 C666 1.349 . S
C655 C653 1.327 . S
C655 C671 1.429 . S
C655 H677 0.950 . S
C656 H652 0.949 . S
C656 C664 1.574 . S
C656 C672 1.368 . S
H657 C665 0.950 . S
H658 C663 0.950 . S
H659 C664 0.949 . S
H660 C666 0.950 . S
H661 C667 0.950 . S
H662 C668 0.949 . S
C663 H658 0.950 . S
C663 C665 1.327 . S
C663 C669 1.429 . S
C664 C656 1.574 . S
C664 H659 0.949 . S
C664 C670 1.368 . S
C665 C649 1.349 . S
C665 H657 0.950 . S
C665 C663 1.327 . S
C666 C654 1.349 . S
C666 H660 0.950 . S
C666 C667 1.327 . S
C667 H661 0.950 . S
C667 C666 1.327 . S
C667 C671 1.429 . S
C668 C651 1.574 . S
C668 H662 0.949 . S
C668 C672 1.368 . S
C669 C650 1.429 . S
C669 C663 1.429 . S
C669 C670 1.523 . S
C670 C651 1.368 . S
C670 C664 1.368 . S
C670 C669 1.523 . S
C671 C655 1.429 . S
C671 C667 1.429 . S
C671 C672 1.523 . S
C672 C656 1.368 . S
C672 C668 1.368 . S
C672 C671 1.523 . S
H673 C648 0.950 . S
H674 C650 0.950 . S
H675 C651 0.949 . S
H676 C653 0.950 . S
H677 C655 0.950 . S
C678 C679 1.349 . S
C678 C680 1.327 . S
C678 H703 0.950 . S
C679 C678 1.349 . S
C679 C695 1.349 . S
C680 C678 1.327 . S
C680 C699 1.429 . S
C680 H704 0.950 . S
C681 C698 1.574 . S
C681 C700 1.368 . S
C681 H705 0.949 . S
H682 C686 0.949 . S
C683 C684 1.349 . S
C683 C685 1.327 . S
C683 H706 0.950 . S
C684 C683 1.349 . S
C684 C696 1.349 . S
C685 C683 1.327 . S
C685 C701 1.429 . S
C685 H707 0.950 . S
C686 H682 0.949 . S
C686 C694 1.574 . S
C686 C702 1.368 . S
H687 C695 0.950 . S
H688 C693 0.950 . S
H689 C694 0.949 . S
H690 C696 0.950 . S
H691 C697 0.950 . S
H692 C698 0.949 . S
C693 H688 0.950 . S
C693 C695 1.327 . S
C693 C699 1.429 . S
C694 C686 1.574 . S
C694 H689 0.949 . S
C694 C700 1.368 . S
C695 C679 1.349 . S
C695 H687 0.950 . S
C695 C693 1.327 . S
C696 C684 1.349 . S
C696 H690 0.950 . S
C696 C697 1.327 . S
C697 H691 0.950 . S
C697 C696 1.327 . S
C697 C701 1.429 . S
C698 C681 1.574 . S
C698 H692 0.949 . S
C698 C702 1.368 . S
C699 C680 1.429 . S
C699 C693 1.429 . S
C699 C700 1.523 . S
C700 C681 1.368 . S
C700 C694 1.368 . S
C700 C699 1.523 . S
C701 C685 1.429 . S
C701 C697 1.429 . S
C701 C702 1.523 . S
C702 C686 1.368 . S
C702 C698 1.368 . S
C702 C701 1.523 . S
H703 C678 0.950 . S
H704 C680 0.950 . S
H705 C681 0.949 . S
H706 C683 0.950 . S
H707 C685 0.950 . S
C708 C709 1.349 . S
C708 C710 1.327 . S
C708 H733 0.950 . S
C709 C708 1.349 . S
C709 C725 1.349 . S
C710 C708 1.327 . S
C710 C729 1.429 . S
C710 H734 0.950 . S
C711 C728 1.574 . S
C711 C730 1.368 . S
C711 H735 0.949 . S
H712 C716 0.949 . S
C713 C714 1.349 . S
C713 C715 1.327 . S
C713 H736 0.950 . S
C714 C713 1.349 . S
C714 C726 1.349 . S
C715 C713 1.327 . S
C715 C731 1.429 . S
C715 H737 0.950 . S
C716 H712 0.949 . S
C716 C724 1.574 . S
C716 C732 1.368 . S
H717 C725 0.950 . S
H718 C723 0.950 . S
H719 C724 0.949 . S
H720 C726 0.950 . S
H721 C727 0.950 . S
H722 C728 0.949 . S
C723 H718 0.950 . S
C723 C725 1.327 . S
C723 C729 1.429 . S
C724 C716 1.574 . S
C724 H719 0.949 . S
C724 C730 1.368 . S
C725 C709 1.349 . S
C725 H717 0.950 . S
C725 C723 1.327 . S
C726 C714 1.349 . S
C726 H720 0.950 . S
C726 C727 1.327 . S
C727 H721 0.950 . S
C727 C726 1.327 . S
C727 C731 1.429 . S
C728 C711 1.574 . S
C728 H722 0.949 . S
C728 C732 1.368 . S
C729 C710 1.429 . S
C729 C723 1.429 . S
C729 C730 1.523 . S
C730 C711 1.368 . S
C730 C724 1.368 . S
C730 C729 1.523 . S
C731 C715 1.429 . S
C731 C727 1.429 . S
C731 C732 1.523 . S
C732 C716 1.368 . S
C732 C728 1.368 . S
C732 C731 1.523 . S
H733 C708 0.950 . S
H734 C710 0.950 . S
H735 C711 0.949 . S
H736 C713 0.950 . S
H737 C715 0.950 . S
C738 C739 1.349 . S
C738 C740 1.327 . S
C738 H763 0.950 . S
C739 C738 1.349 . S
C739 C755 1.349 . S
C740 C738 1.327 . S
C740 C759 1.429 . S
C740 H764 0.950 . S
C741 C758 1.574 . S
C741 C760 1.368 . S
C741 H765 0.949 . S
H742 C746 0.949 . S
C743 C744 1.349 . S
C743 C745 1.327 1_556 S
C743 H766 0.950 . S
C744 C743 1.349 . S
C744 C756 1.349 1_556 S
C745 C743 1.327 1_554 S
C745 C761 1.429 . S
C745 H767 0.950 1_554 S
C746 H742 0.949 . S
C746 C754 1.574 . S
C746 C762 1.368 . S
H747 C755 0.950 . S
H748 C753 0.950 . S
H749 C754 0.949 . S
H750 C756 0.950 . S
H751 C757 0.950 . S
H752 C758 0.949 . S
C753 H748 0.950 . S
C753 C755 1.327 . S
C753 C759 1.429 . S
C754 C746 1.574 . S
C754 H749 0.949 . S
C754 C760 1.368 . S
C755 C739 1.349 . S
C755 H747 0.950 . S
C755 C753 1.327 . S
C756 C744 1.349 1_554 S
C756 H750 0.950 . S
C756 C757 1.327 . S
C757 H751 0.950 . S
C757 C756 1.327 . S
C757 C761 1.429 . S
C758 C741 1.574 . S
C758 H752 0.949 . S
C758 C762 1.368 . S
C759 C740 1.429 . S
C759 C753 1.429 . S
C759 C760 1.523 . S
C760 C741 1.368 . S
C760 C754 1.368 . S
C760 C759 1.523 . S
C761 C745 1.429 . S
C761 C757 1.429 . S
C761 C762 1.523 . S
C762 C746 1.368 . S
C762 C758 1.368 . S
C762 C761 1.523 . S
H763 C738 0.950 . S
H764 C740 0.950 . S
H765 C741 0.949 . S
H766 C743 0.950 . S
H767 C745 0.950 1_556 S
C768 C769 1.349 . S
C768 C770 1.327 . S
C768 H793 0.950 . S
C769 C768 1.349 . S
C769 C785 1.349 . S
C770 C768 1.327 . S
C770 C789 1.429 . S
C770 H794 0.950 . S
C771 C788 1.574 . S
C771 C790 1.368 . S
C771 H795 0.949 . S
H772 C776 0.949 . S
C773 C774 1.349 . S
C773 C775 1.327 . S
C773 H796 0.950 . S
C774 C773 1.349 . S
C774 C786 1.349 . S
C775 C773 1.327 . S
C775 C791 1.429 . S
C775 H797 0.950 . S
C776 H772 0.949 . S
C776 C784 1.574 . S
C776 C792 1.368 . S
H777 C785 0.950 . S
H778 C783 0.950 . S
H779 C784 0.949 . S
H780 C786 0.950 . S
H781 C787 0.950 . S
H782 C788 0.949 . S
C783 H778 0.950 . S
C783 C785 1.327 . S
C783 C789 1.429 . S
C784 C776 1.574 . S
C784 H779 0.949 . S
C784 C790 1.368 . S
C785 C769 1.349 . S
C785 H777 0.950 . S
C785 C783 1.327 . S
C786 C774 1.349 . S
C786 H780 0.950 . S
C786 C787 1.327 . S
C787 H781 0.950 . S
C787 C786 1.327 . S
C787 C791 1.429 . S
C788 C771 1.574 . S
C788 H782 0.949 . S
C788 C792 1.368 . S
C789 C770 1.429 . S
C789 C783 1.429 . S
C789 C790 1.523 . S
C790 C771 1.368 . S
C790 C784 1.368 . S
C790 C789 1.523 . S
C791 C775 1.429 . S
C791 C787 1.429 . S
C791 C792 1.523 . S
C792 C776 1.368 . S
C792 C788 1.368 . S
C792 C791 1.523 . S
H793 C768 0.950 . S
H794 C770 0.950 . S
H795 C771 0.949 . S
H796 C773 0.950 . S
H797 C775 0.950 . S
C798 C799 1.349 . S
C798 C800 1.327 . S
C798 H823 0.950 . S
C799 C798 1.349 . S
C799 C815 1.349 . S
C800 C798 1.327 . S
C800 C819 1.429 . S
C800 H824 0.950 . S
C801 C818 1.574 . S
C801 C820 1.368 . S
C801 H825 0.949 . S
H802 C806 0.949 . S
C803 C804 1.349 . S
C803 C805 1.327 . S
C803 H826 0.950 . S
C804 C803 1.349 . S
C804 C816 1.349 . S
C805 C803 1.327 . S
C805 C821 1.429 . S
C805 H827 0.950 . S
C806 H802 0.949 . S
C806 C814 1.574 . S
C806 C822 1.368 . S
H807 C815 0.950 . S
H808 C813 0.950 . S
H809 C814 0.949 . S
H810 C816 0.950 . S
H811 C817 0.950 . S
H812 C818 0.949 . S
C813 H808 0.950 . S
C813 C815 1.327 . S
C813 C819 1.429 . S
C814 C806 1.574 . S
C814 H809 0.949 . S
C814 C820 1.368 . S
C815 C799 1.349 . S
C815 H807 0.950 . S
C815 C813 1.327 . S
C816 C804 1.349 . S
C816 H810 0.950 . S
C816 C817 1.327 . S
C817 H811 0.950 . S
C817 C816 1.327 . S
C817 C821 1.429 . S
C818 C801 1.574 . S
C818 H812 0.949 . S
C818 C822 1.368 . S
C819 C800 1.429 . S
C819 C813 1.429 . S
C819 C820 1.523 . S
C820 C801 1.368 . S
C820 C814 1.368 . S
C820 C819 1.523 . S
C821 C805 1.429 . S
C821 C817 1.429 . S
C821 C822 1.523 . S
C822 C806 1.368 . S
C822 C818 1.368 . S
C822 C821 1.523 . S
H823 C798 0.950 . S
H824 C800 0.950 . S
H825 C801 0.949 . S
H826 C803 0.950 . S
H827 C805 0.950 . S
C828 C829 1.349 . S
C828 C830 1.327 . S
C828 H853 0.950 . S
C829 C828 1.349 . S
C829 C845 1.349 . S
C830 C828 1.327 . S
C830 C849 1.429 . S
C830 H854 0.950 . S
C831 C848 1.574 . S
C831 C850 1.368 . S
C831 H855 0.949 . S
H832 C836 0.949 . S
C833 C834 1.349 . S
C833 C835 1.327 . S
C833 H856 0.950 . S
C834 C833 1.349 . S
C834 C846 1.349 . S
C835 C833 1.327 . S
C835 C851 1.429 . S
C835 H857 0.950 . S
C836 H832 0.949 . S
C836 C844 1.574 . S
C836 C852 1.368 . S
H837 C845 0.950 . S
H838 C843 0.950 . S
H839 C844 0.949 . S
H840 C846 0.950 . S
H841 C847 0.950 . S
H842 C848 0.949 . S
C843 H838 0.950 . S
C843 C845 1.327 . S
C843 C849 1.429 . S
C844 C836 1.574 . S
C844 H839 0.949 . S
C844 C850 1.368 . S
C845 C829 1.349 . S
C845 H837 0.950 . S
C845 C843 1.327 . S
C846 C834 1.349 . S
C846 H840 0.950 . S
C846 C847 1.327 . S
C847 H841 0.950 . S
C847 C846 1.327 . S
C847 C851 1.429 . S
C848 C831 1.574 . S
C848 H842 0.949 . S
C848 C852 1.368 . S
C849 C830 1.429 . S
C849 C843 1.429 . S
C849 C850 1.523 . S
C850 C831 1.368 . S
C850 C844 1.368 . S
C850 C849 1.523 . S
C851 C835 1.429 . S
C851 C847 1.429 . S
C851 C852 1.523 . S
C852 C836 1.368 . S
C852 C848 1.368 . S
C852 C851 1.523 . S
H853 C828 0.950 . S
H854 C830 0.950 . S
H855 C831 0.949 . S
H856 C833 0.950 . S
H857 C835 0.950 . S
C858 C859 1.349 . S
C858 C860 1.327 . S
C858 H883 0.950 . S
C859 C858 1.349 . S
C859 C875 1.349 . S
C860 C858 1.327 . S
C860 C879 1.429 . S
C860 H884 0.950 . S
C861 C878 1.574 . S
C861 C880 1.368 . S
C861 H885 0.949 . S
H862 C866 0.949 . S
C863 C864 1.349 . S
C863 C865 1.327 . S
C863 H886 0.950 . S
C864 C863 1.349 . S
C864 C876 1.349 . S
C865 C863 1.327 . S
C865 C881 1.429 . S
C865 H887 0.950 . S
C866 H862 0.949 . S
C866 C874 1.574 . S
C866 C882 1.368 . S
H867 C875 0.950 . S
H868 C873 0.950 . S
H869 C874 0.949 . S
H870 C876 0.950 . S
H871 C877 0.950 . S
H872 C878 0.949 . S
C873 H868 0.950 . S
C873 C875 1.327 . S
C873 C879 1.429 . S
C874 C866 1.574 . S
C874 H869 0.949 . S
C874 C880 1.368 . S
C875 C859 1.349 . S
C875 H867 0.950 . S
C875 C873 1.327 . S
C876 C864 1.349 . S
C876 H870 0.950 . S
C876 C877 1.327 . S
C877 H871 0.950 . S
C877 C876 1.327 . S
C877 C881 1.429 . S
C878 C861 1.574 . S
C878 H872 0.949 . S
C878 C882 1.368 . S
C879 C860 1.429 . S
C879 C873 1.429 . S
C879 C880 1.523 . S
C880 C861 1.368 . S
C880 C874 1.368 . S
C880 C879 1.523 . S
C881 C865 1.429 . S
C881 C877 1.429 . S
C881 C882 1.523 . S
C882 C866 1.368 . S
C882 C878 1.368 . S
C882 C881 1.523 . S
H883 C858 0.950 . S
H884 C860 0.950 . S
H885 C861 0.949 . S
H886 C863 0.950 . S
H887 C865 0.950 . S
C888 C889 1.349 . S
C888 C890 1.327 . S
C888 H913 0.950 . S
C889 C888 1.349 . S
C889 C905 1.349 . S
C890 C888 1.327 . S
C890 C909 1.429 . S
C890 H914 0.950 . S
C891 C908 1.574 . S
C891 C910 1.368 . S
C891 H915 0.949 . S
H892 C896 0.949 . S
C893 C894 1.349 . S
C893 C895 1.327 . S
C893 H916 0.950 . S
C894 C893 1.349 . S
C894 C906 1.349 . S
C895 C893 1.327 . S
C895 C911 1.429 . S
C895 H917 0.950 . S
C896 H892 0.949 . S
C896 C904 1.574 . S
C896 C912 1.368 . S
H897 C905 0.950 . S
H898 C903 0.950 . S
H899 C904 0.949 . S
H900 C906 0.950 . S
H901 C907 0.950 . S
H902 C908 0.949 . S
C903 H898 0.950 . S
C903 C905 1.327 . S
C903 C909 1.429 . S
C904 C896 1.574 . S
C904 H899 0.949 . S
C904 C910 1.368 . S
C905 C889 1.349 . S
C905 H897 0.950 . S
C905 C903 1.327 . S
C906 C894 1.349 . S
C906 H900 0.950 . S
C906 C907 1.327 . S
C907 H901 0.950 . S
C907 C906 1.327 . S
C907 C911 1.429 . S
C908 C891 1.574 . S
C908 H902 0.949 . S
C908 C912 1.368 . S
C909 C890 1.429 . S
C909 C903 1.429 . S
C909 C910 1.523 . S
C910 C891 1.368 . S
C910 C904 1.368 . S
C910 C909 1.523 . S
C911 C895 1.429 . S
C911 C907 1.429 . S
C911 C912 1.523 . S
C912 C896 1.368 . S
C912 C908 1.368 . S
C912 C911 1.523 . S
H913 C888 0.950 . S
H914 C890 0.950 . S
H915 C891 0.949 . S
H916 C893 0.950 . S
H917 C895 0.950 . S
C918 C919 1.349 . S
C918 C920 1.327 . S
C918 H943 0.950 . S
C919 C918 1.349 . S
C919 C935 1.349 . S
C920 C918 1.327 . S
C920 C939 1.429 . S
C920 H944 0.950 . S
C921 C938 1.574 . S
C921 C940 1.368 . S
C921 H945 0.949 . S
H922 C926 0.949 . S
C923 C924 1.349 . S
C923 C925 1.327 . S
C923 H946 0.950 . S
C924 C923 1.349 . S
C924 C936 1.349 . S
C925 C923 1.327 . S
C925 C941 1.429 . S
C925 H947 0.950 . S
C926 H922 0.949 . S
C926 C934 1.574 . S
C926 C942 1.368 . S
H927 C935 0.950 . S
H928 C933 0.950 . S
H929 C934 0.949 . S
H930 C936 0.950 . S
H931 C937 0.950 . S
H932 C938 0.949 . S
C933 H928 0.950 . S
C933 C935 1.327 . S
C933 C939 1.429 . S
C934 C926 1.574 . S
C934 H929 0.949 . S
C934 C940 1.368 . S
C935 C919 1.349 . S
C935 H927 0.950 . S
C935 C933 1.327 . S
C936 C924 1.349 . S
C936 H930 0.950 . S
C936 C937 1.327 . S
C937 H931 0.950 . S
C937 C936 1.327 . S
C937 C941 1.429 . S
C938 C921 1.574 . S
C938 H932 0.949 . S
C938 C942 1.368 . S
C939 C920 1.429 . S
C939 C933 1.429 . S
C939 C940 1.523 . S
C940 C921 1.368 . S
C940 C934 1.368 . S
C940 C939 1.523 . S
C941 C925 1.429 . S
C941 C937 1.429 . S
C941 C942 1.523 . S
C942 C926 1.368 . S
C942 C938 1.368 . S
C942 C941 1.523 . S
H943 C918 0.950 . S
H944 C920 0.950 . S
H945 C921 0.949 . S
H946 C923 0.950 . S
H947 C925 0.950 . S
C948 C949 1.349 . S
C948 C950 1.327 . S
C948 H973 0.950 . S
C949 C948 1.349 . S
C949 C965 1.349 . S
C950 C948 1.327 . S
C950 C969 1.429 . S
C950 H974 0.950 . S
C951 C968 1.574 . S
C951 C970 1.368 . S
C951 H975 0.949 . S
H952 C956 0.949 . S
C953 C954 1.349 . S
C953 C955 1.327 . S
C953 H976 0.950 . S
C954 C953 1.349 . S
C954 C966 1.349 . S
C955 C953 1.327 . S
C955 C971 1.429 . S
C955 H977 0.950 . S
C956 H952 0.949 . S
C956 C964 1.574 . S
C956 C972 1.368 . S
H957 C965 0.950 . S
H958 C963 0.950 . S
H959 C964 0.949 . S
H960 C966 0.950 . S
H961 C967 0.950 . S
H962 C968 0.949 . S
C963 H958 0.950 . S
C963 C965 1.327 . S
C963 C969 1.429 . S
C964 C956 1.574 . S
C964 H959 0.949 . S
C964 C970 1.368 . S
C965 C949 1.349 . S
C965 H957 0.950 . S
C965 C963 1.327 . S
C966 C954 1.349 . S
C966 H960 0.950 . S
C966 C967 1.327 . S
C967 H961 0.950 . S
C967 C966 1.327 . S
C967 C971 1.429 . S
C968 C951 1.574 . S
C968 H962 0.949 . S
C968 C972 1.368 . S
C969 C950 1.429 . S
C969 C963 1.429 . S
C969 C970 1.523 . S
C970 C951 1.368 . S
C970 C964 1.368 . S
C970 C969 1.523 . S
C971 C955 1.429 . S
C971 C967 1.429 . S
C971 C972 1.523 . S
C972 C956 1.368 . S
C972 C968 1.368 . S
C972 C971 1.523 . S
H973 C948 0.950 . S
H974 C950 0.950 . S
H975 C951 0.949 . S
H976 C953 0.950 . S
H977 C955 0.950 . S
C978 C979 1.349 . S
C978 C980 1.327 . S
C978 H1003 0.950 . S
C979 C978 1.349 . S
C979 C995 1.349 . S
C980 C978 1.327 . S
C980 C999 1.429 . S
C980 H1004 0.950 . S
C981 C998 1.574 . S
C981 C1000 1.368 . S
C981 H1005 0.949 . S
H982 C986 0.949 . S
C983 C984 1.349 . S
C983 C985 1.327 . S
C983 H1006 0.950 . S
C984 C983 1.349 . S
C984 C996 1.349 . S
C985 C983 1.327 . S
C985 C1001 1.429 . S
C985 H1007 0.950 . S
C986 H982 0.949 . S
C986 C994 1.574 . S
C986 C1002 1.368 . S
H987 C995 0.950 . S
H988 C993 0.950 . S
H989 C994 0.949 . S
H990 C996 0.950 . S
H991 C997 0.950 . S
H992 C998 0.949 . S
C993 H988 0.950 . S
C993 C995 1.327 . S
C993 C999 1.429 . S
C994 C986 1.574 . S
C994 H989 0.949 . S
C994 C1000 1.368 . S
C995 C979 1.349 . S
C995 H987 0.950 . S
C995 C993 1.327 . S
C996 C984 1.349 . S
C996 H990 0.950 . S
C996 C997 1.327 . S
C997 H991 0.950 . S
C997 C996 1.327 . S
C997 C1001 1.429 . S
C998 C981 1.574 . S
C998 H992 0.949 . S
C998 C1002 1.368 . S
C999 C980 1.429 . S
C999 C993 1.429 . S
C999 C1000 1.523 . S
C1000 C981 1.368 . S
C1000 C994 1.368 . S
C1000 C999 1.523 . S
C1001 C985 1.429 . S
C1001 C997 1.429 . S
C1001 C1002 1.523 . S
C1002 C986 1.368 . S
C1002 C998 1.368 . S
C1002 C1001 1.523 . S
H1003 C978 0.950 . S
H1004 C980 0.950 . S
H1005 C981 0.949 . S
H1006 C983 0.950 . S
H1007 C985 0.950 . S
C1008 C1009 1.349 . S
C1008 C1010 1.327 . S
C1008 H1033 0.950 . S
C1009 C1008 1.349 . S
C1009 C1025 1.349 . S
C1010 C1008 1.327 . S
C1010 C1029 1.429 . S
C1010 H1034 0.950 . S
C1011 C1028 1.574 . S
C1011 C1030 1.368 . S
C1011 H1035 0.949 . S
H1012 C1016 0.949 . S
C1013 C1014 1.349 . S
C1013 C1015 1.327 . S
C1013 H1036 0.950 . S
C1014 C1013 1.349 . S
C1014 C1026 1.349 . S
C1015 C1013 1.327 . S
C1015 C1031 1.429 . S
C1015 H1037 0.950 . S
C1016 H1012 0.949 . S
C1016 C1024 1.574 . S
C1016 C1032 1.368 . S
H1017 C1025 0.950 . S
H1018 C1023 0.950 . S
H1019 C1024 0.949 . S
H1020 C1026 0.950 . S
H1021 C1027 0.950 . S
H1022 C1028 0.949 . S
C1023 H1018 0.950 . S
C1023 C1025 1.327 . S
C1023 C1029 1.429 . S
C1024 C1016 1.574 . S
C1024 H1019 0.949 . S
C1024 C1030 1.368 . S
C1025 C1009 1.349 . S
C1025 H1017 0.950 . S
C1025 C1023 1.327 . S
C1026 C1014 1.349 . S
C1026 H1020 0.950 . S
C1026 C1027 1.327 . S
C1027 H1021 0.950 . S
C1027 C1026 1.327 . S
C1027 C1031 1.429 . S
C1028 C1011 1.574 . S
C1028 H1022 0.949 . S
C1028 C1032 1.368 . S
C1029 C1010 1.429 . S
C1029 C1023 1.429 . S
C1029 C1030 1.523 . S
C1030 C1011 1.368 . S
C1030 C1024 1.368 . S
C1030 C1029 1.523 . S
C1031 C1015 1.429 . S
C1031 C1027 1.429 . S
C1031 C1032 1.523 . S
C1032 C1016 1.368 . S
C1032 C1028 1.368 . S
C1032 C1031 1.523 . S
H1033 C1008 0.950 . S
H1034 C1010 0.950 . S
H1035 C1011 0.949 . S
H1036 C1013 0.950 . S
H1037 C1015 0.950 . S
C1038 C1039 1.349 . S
C1038 C1040 1.327 . S
C1038 H1063 0.950 . S
C1039 C1038 1.349 . S
C1039 C1055 1.349 . S
C1040 C1038 1.327 . S
C1040 C1059 1.429 . S
C1040 H1064 0.950 . S
C1041 C1058 1.574 . S
C1041 C1060 1.368 . S
C1041 H1065 0.949 . S
H1042 C1046 0.949 . S
C1043 C1044 1.349 . S
C1043 C1045 1.327 . S
C1043 H1066 0.950 . S
C1044 C1043 1.349 . S
C1044 C1056 1.349 . S
C1045 C1043 1.327 . S
C1045 C1061 1.429 . S
C1045 H1067 0.950 . S
C1046 H1042 0.949 . S
C1046 C1054 1.574 . S
C1046 C1062 1.368 . S
H1047 C1055 0.950 . S
H1048 C1053 0.950 . S
H1049 C1054 0.949 . S
H1050 C1056 0.950 . S
H1051 C1057 0.950 . S
H1052 C1058 0.949 . S
C1053 H1048 0.950 . S
C1053 C1055 1.327 . S
C1053 C1059 1.429 . S
C1054 C1046 1.574 . S
C1054 H1049 0.949 . S
C1054 C1060 1.368 . S
C1055 C1039 1.349 . S
C1055 H1047 0.950 . S
C1055 C1053 1.327 . S
C1056 C1044 1.349 . S
C1056 H1050 0.950 . S
C1056 C1057 1.327 . S
C1057 H1051 0.950 . S
C1057 C1056 1.327 . S
C1057 C1061 1.429 . S
C1058 C1041 1.574 . S
C1058 H1052 0.949 . S
C1058 C1062 1.368 . S
C1059 C1040 1.429 . S
C1059 C1053 1.429 . S
C1059 C1060 1.523 . S
C1060 C1041 1.368 . S
C1060 C1054 1.368 . S
C1060 C1059 1.523 . S
C1061 C1045 1.429 . S
C1061 C1057 1.429 . S
C1061 C1062 1.523 . S
C1062 C1046 1.368 . S
C1062 C1058 1.368 . S
C1062 C1061 1.523 . S
H1063 C1038 0.950 . S
H1064 C1040 0.950 . S
H1065 C1041 0.949 . S
H1066 C1043 0.950 . S
H1067 C1045 0.950 . S
C1068 C1069 1.349 . S
C1068 C1070 1.327 . S
C1068 H1093 0.950 . S
C1069 C1068 1.349 . S
C1069 C1085 1.349 . S
C1070 C1068 1.327 . S
C1070 C1089 1.429 . S
C1070 H1094 0.950 . S
C1071 C1088 1.574 . S
C1071 C1090 1.368 . S
C1071 H1095 0.949 . S
H1072 C1076 0.949 . S
C1073 C1074 1.349 . S
C1073 C1075 1.327 . S
C1073 H1096 0.950 . S
C1074 C1073 1.349 . S
C1074 C1086 1.349 . S
C1075 C1073 1.327 . S
C1075 C1091 1.429 . S
C1075 H1097 0.950 . S
C1076 H1072 0.949 . S
C1076 C1084 1.574 . S
C1076 C1092 1.368 . S
H1077 C1085 0.950 . S
H1078 C1083 0.950 . S
H1079 C1084 0.949 . S
H1080 C1086 0.950 . S
H1081 C1087 0.950 . S
H1082 C1088 0.949 . S
C1083 H1078 0.950 . S
C1083 C1085 1.327 . S
C1083 C1089 1.429 . S
C1084 C1076 1.574 . S
C1084 H1079 0.949 . S
C1084 C1090 1.368 . S
C1085 C1069 1.349 . S
C1085 H1077 0.950 . S
C1085 C1083 1.327 . S
C1086 C1074 1.349 . S
C1086 H1080 0.950 . S
C1086 C1087 1.327 . S
C1087 H1081 0.950 . S
C1087 C1086 1.327 . S
C1087 C1091 1.429 . S
C1088 C1071 1.574 . S
C1088 H1082 0.949 . S
C1088 C1092 1.368 . S
C1089 C1070 1.429 . S
C1089 C1083 1.429 . S
C1089 C1090 1.523 . S
C1090 C1071 1.368 . S
C1090 C1084 1.368 . S
C1090 C1089 1.523 . S
C1091 C1075 1.429 . S
C1091 C1087 1.429 . S
C1091 C1092 1.523 . S
C1092 C1076 1.368 . S
C1092 C1088 1.368 . S
C1092 C1091 1.523 . S
H1093 C1068 0.950 . S
H1094 C1070 0.950 . S
H1095 C1071 0.949 . S
H1096 C1073 0.950 . S
H1097 C1075 0.950 . S
C1098 C1099 1.349 . S
C1098 C1100 1.327 . S
C1098 H1123 0.950 . S
C1099 C1098 1.349 . S
C1099 C1115 1.349 . S
C1100 C1098 1.327 . S
C1100 C1119 1.429 . S
C1100 H1124 0.950 . S
C1101 C1118 1.574 . S
C1101 C1120 1.368 . S
C1101 H1125 0.949 . S
H1102 C1106 0.949 . S
C1103 C1104 1.349 . S
C1103 C1105 1.327 . S
C1103 H1126 0.950 . S
C1104 C1103 1.349 . S
C1104 C1116 1.349 . S
C1105 C1103 1.327 . S
C1105 C1121 1.429 . S
C1105 H1127 0.950 . S
C1106 H1102 0.949 . S
C1106 C1114 1.574 . S
C1106 C1122 1.368 . S
H1107 C1115 0.950 . S
H1108 C1113 0.950 . S
H1109 C1114 0.949 . S
H1110 C1116 0.950 . S
H1111 C1117 0.950 . S
H1112 C1118 0.949 . S
C1113 H1108 0.950 . S
C1113 C1115 1.327 . S
C1113 C1119 1.429 . S
C1114 C1106 1.574 . S
C1114 H1109 0.949 . S
C1114 C1120 1.368 . S
C1115 C1099 1.349 . S
C1115 H1107 0.950 . S
C1115 C1113 1.327 . S
C1116 C1104 1.349 . S
C1116 H1110 0.950 . S
C1116 C1117 1.327 . S
C1117 H1111 0.950 . S
C1117 C1116 1.327 . S
C1117 C1121 1.429 . S
C1118 C1101 1.574 . S
C1118 H1112 0.949 . S
C1118 C1122 1.368 . S
C1119 C1100 1.429 . S
C1119 C1113 1.429 . S
C1119 C1120 1.523 . S
C1120 C1101 1.368 . S
C1120 C1114 1.368 . S
C1120 C1119 1.523 . S
C1121 C1105 1.429 . S
C1121 C1117 1.429 . S
C1121 C1122 1.523 . S
C1122 C1106 1.368 . S
C1122 C1118 1.368 . S
C1122 C1121 1.523 . S
H1123 C1098 0.950 . S
H1124 C1100 0.950 . S
H1125 C1101 0.949 . S
H1126 C1103 0.950 . S
H1127 C1105 0.950 . S
C1128 C1129 1.349 . S
C1128 C1130 1.327 . S
C1128 H1153 0.950 . S
C1129 C1128 1.349 . S
C1129 C1145 1.349 . S
C1130 C1128 1.327 . S
C1130 C1149 1.429 . S
C1130 H1154 0.950 . S
C1131 C1148 1.574 . S
C1131 C1150 1.368 . S
C1131 H1155 0.949 . S
H1132 C1136 0.949 . S
C1133 C1134 1.349 . S
C1133 C1135 1.327 . S
C1133 H1156 0.950 . S
C1134 C1133 1.349 . S
C1134 C1146 1.349 . S
C1135 C1133 1.327 . S
C1135 C1151 1.429 . S
C1135 H1157 0.950 . S
C1136 H1132 0.949 . S
C1136 C1144 1.574 . S
C1136 C1152 1.368 . S
H1137 C1145 0.950 . S
H1138 C1143 0.950 . S
H1139 C1144 0.949 . S
H1140 C1146 0.950 . S
H1141 C1147 0.950 . S
H1142 C1148 0.949 . S
C1143 H1138 0.950 . S
C1143 C1145 1.327 . S
C1143 C1149 1.429 . S
C1144 C1136 1.574 . S
C1144 H1139 0.949 . S
C1144 C1150 1.368 . S
C1145 C1129 1.349 . S
C1145 H1137 0.950 . S
C1145 C1143 1.327 . S
C1146 C1134 1.349 . S
C1146 H1140 0.950 . S
C1146 C1147 1.327 . S
C1147 H1141 0.950 . S
C1147 C1146 1.327 . S
C1147 C1151 1.429 . S
C1148 C1131 1.574 . S
C1148 H1142 0.949 . S
C1148 C1152 1.368 . S
C1149 C1130 1.429 . S
C1149 C1143 1.429 . S
C1149 C1150 1.523 . S
C1150 C1131 1.368 . S
C1150 C1144 1.368 . S
C1150 C1149 1.523 . S
C1151 C1135 1.429 . S
C1151 C1147 1.429 . S
C1151 C1152 1.523 . S
C1152 C1136 1.368 . S
C1152 C1148 1.368 . S
C1152 C1151 1.523 . S
H1153 C1128 0.950 . S
H1154 C1130 0.950 . S
H1155 C1131 0.949 . S
H1156 C1133 0.950 . S
H1157 C1135 0.950 . S
C1158 C1159 1.349 . S
C1158 C1160 1.327 . S
C1158 H1183 0.950 . S
C1159 C1158 1.349 . S
C1159 C1175 1.349 . S
C1160 C1158 1.327 . S
C1160 C1179 1.429 . S
C1160 H1184 0.950 . S
C1161 C1178 1.574 . S
C1161 C1180 1.368 . S
C1161 H1185 0.949 . S
H1162 C1166 0.949 . S
C1163 C1164 1.349 . S
C1163 C1165 1.327 . S
C1163 H1186 0.950 . S
C1164 C1163 1.349 . S
C1164 C1176 1.349 . S
C1165 C1163 1.327 . S
C1165 C1181 1.429 . S
C1165 H1187 0.950 . S
C1166 H1162 0.949 . S
C1166 C1174 1.574 . S
C1166 C1182 1.368 . S
H1167 C1175 0.950 . S
H1168 C1173 0.950 . S
H1169 C1174 0.949 . S
H1170 C1176 0.950 . S
H1171 C1177 0.950 . S
H1172 C1178 0.949 . S
C1173 H1168 0.950 . S
C1173 C1175 1.327 . S
C1173 C1179 1.429 . S
C1174 C1166 1.574 . S
C1174 H1169 0.949 . S
C1174 C1180 1.368 . S
C1175 C1159 1.349 . S
C1175 H1167 0.950 . S
C1175 C1173 1.327 . S
C1176 C1164 1.349 . S
C1176 H1170 0.950 . S
C1176 C1177 1.327 . S
C1177 H1171 0.950 . S
C1177 C1176 1.327 . S
C1177 C1181 1.429 . S
C1178 C1161 1.574 . S
C1178 H1172 0.949 . S
C1178 C1182 1.368 . S
C1179 C1160 1.429 . S
C1179 C1173 1.429 . S
C1179 C1180 1.523 . S
C1180 C1161 1.368 . S
C1180 C1174 1.368 . S
C1180 C1179 1.523 . S
C1181 C1165 1.429 . S
C1181 C1177 1.429 . S
C1181 C1182 1.523 . S
C1182 C1166 1.368 . S
C1182 C1178 1.368 . S
C1182 C1181 1.523 . S
H1183 C1158 0.950 . S
H1184 C1160 0.950 . S
H1185 C1161 0.949 . S
H1186 C1163 0.950 . S
H1187 C1165 0.950 . S
C1188 C1189 1.349 . S
C1188 C1190 1.327 . S
C1188 H1213 0.950 . S
C1189 C1188 1.349 . S
C1189 C1205 1.349 . S
C1190 C1188 1.327 . S
C1190 C1209 1.429 . S
C1190 H1214 0.950 . S
C1191 C1208 1.574 . S
C1191 C1210 1.368 . S
C1191 H1215 0.949 . S
H1192 C1196 0.949 . S
C1193 C1194 1.349 . S
C1193 C1195 1.327 . S
C1193 H1216 0.950 . S
C1194 C1193 1.349 . S
C1194 C1206 1.349 . S
C1195 C1193 1.327 . S
C1195 C1211 1.429 . S
C1195 H1217 0.950 . S
C1196 H1192 0.949 . S
C1196 C1204 1.574 . S
C1196 C1212 1.368 . S
H1197 C1205 0.950 . S
H1198 C1203 0.950 . S
H1199 C1204 0.949 . S
H1200 C1206 0.950 . S
H1201 C1207 0.950 . S
H1202 C1208 0.949 . S
C1203 H1198 0.950 . S
C1203 C1205 1.327 . S
C1203 C1209 1.429 . S
C1204 C1196 1.574 . S
C1204 H1199 0.949 . S
C1204 C1210 1.368 . S
C1205 C1189 1.349 . S
C1205 H1197 0.950 . S
C1205 C1203 1.327 . S
C1206 C1194 1.349 . S
C1206 H1200 0.950 . S
C1206 C1207 1.327 . S
C1207 H1201 0.950 . S
C1207 C1206 1.327 . S
C1207 C1211 1.429 . S
C1208 C1191 1.574 . S
C1208 H1202 0.949 . S
C1208 C1212 1.368 . S
C1209 C1190 1.429 . S
C1209 C1203 1.429 . S
C1209 C1210 1.523 . S
C1210 C1191 1.368 . S
C1210 C1204 1.368 . S
C1210 C1209 1.523 . S
C1211 C1195 1.429 . S
C1211 C1207 1.429 . S
C1211 C1212 1.523 . S
C1212 C1196 1.368 . S
C1212 C1208 1.368 . S
C1212 C1211 1.523 . S
H1213 C1188 0.950 . S
H1214 C1190 0.950 . S
H1215 C1191 0.949 . S
H1216 C1193 0.950 . S
H1217 C1195 0.950 . S
C1218 C1219 1.349 . S
C1218 C1220 1.327 . S
C1218 H1243 0.950 . S
C1219 C1218 1.349 . S
C1219 C1235 1.349 . S
C1220 C1218 1.327 . S
C1220 C1239 1.429 . S
C1220 H1244 0.950 . S
C1221 C1238 1.574 . S
C1221 C1240 1.368 . S
C1221 H1245 0.949 . S
H1222 C1226 0.949 . S
C1223 C1224 1.349 . S
C1223 C1225 1.327 . S
C1223 H1246 0.950 . S
C1224 C1223 1.349 . S
C1224 C1236 1.349 . S
C1225 C1223 1.327 . S
C1225 C1241 1.429 . S
C1225 H1247 0.950 . S
C1226 H1222 0.949 . S
C1226 C1234 1.574 . S
C1226 C1242 1.368 . S
H1227 C1235 0.950 . S
H1228 C1233 0.950 . S
H1229 C1234 0.949 . S
H1230 C1236 0.950 . S
H1231 C1237 0.950 . S
H1232 C1238 0.949 . S
C1233 H1228 0.950 . S
C1233 C1235 1.327 . S
C1233 C1239 1.429 . S
C1234 C1226 1.574 . S
C1234 H1229 0.949 . S
C1234 C1240 1.368 . S
C1235 C1219 1.349 . S
C1235 H1227 0.950 . S
C1235 C1233 1.327 . S
C1236 C1224 1.349 . S
C1236 H1230 0.950 . S
C1236 C1237 1.327 . S
C1237 H1231 0.950 . S
C1237 C1236 1.327 . S
C1237 C1241 1.429 . S
C1238 C1221 1.574 . S
C1238 H1232 0.949 . S
C1238 C1242 1.368 . S
C1239 C1220 1.429 . S
C1239 C1233 1.429 . S
C1239 C1240 1.523 . S
C1240 C1221 1.368 . S
C1240 C1234 1.368 . S
C1240 C1239 1.523 . S
C1241 C1225 1.429 . S
C1241 C1237 1.429 . S
C1241 C1242 1.523 . S
C1242 C1226 1.368 . S
C1242 C1238 1.368 . S
C1242 C1241 1.523 . S
H1243 C1218 0.950 . S
H1244 C1220 0.950 . S
H1245 C1221 0.949 . S
H1246 C1223 0.950 . S
H1247 C1225 0.950 . S
C1248 C1249 1.349 . S
C1248 C1250 1.327 . S
C1248 H1273 0.950 . S
C1249 C1248 1.349 . S
C1249 C1265 1.349 . S
C1250 C1248 1.327 . S
C1250 C1269 1.429 . S
C1250 H1274 0.950 . S
C1251 C1268 1.562 1_556 S
C1251 C1270 1.382 . S
C1251 H1275 0.949 . S
H1252 C1256 0.949 . S
C1253 C1254 1.349 . S
C1253 C1255 1.327 . S
C1253 H1276 0.950 . S
C1254 C1253 1.349 . S
C1254 C1266 1.349 . S
C1255 C1253 1.327 . S
C1255 C1271 1.429 . S
C1255 H1277 0.950 . S
C1256 H1252 0.949 . S
C1256 C1264 1.574 . S
C1256 C1272 1.368 1_556 S
H1257 C1265 0.950 . S
H1258 C1263 0.950 . S
H1259 C1264 0.949 . S
H1260 C1266 0.950 . S
H1261 C1267 0.950 . S
H1262 C1268 0.949 . S
C1263 H1258 0.950 . S
C1263 C1265 1.327 . S
C1263 C1269 1.429 . S
C1264 C1256 1.574 . S
C1264 H1259 0.949 . S
C1264 C1270 1.368 . S
C1265 C1249 1.349 . S
C1265 H1257 0.950 . S
C1265 C1263 1.327 . S
C1266 C1254 1.349 . S
C1266 H1260 0.950 . S
C1266 C1267 1.327 . S
C1267 H1261 0.950 . S
C1267 C1266 1.327 . S
C1267 C1271 1.429 . S
C1268 C1251 1.562 1_554 S
C1268 H1262 0.949 . S
C1268 C1272 1.368 . S
C1269 C1250 1.429 . S
C1269 C1263 1.429 . S
C1269 C1270 1.523 . S
C1270 C1251 1.382 . S
C1270 C1264 1.368 . S
C1270 C1269 1.523 . S
C1271 C1255 1.429 . S
C1271 C1267 1.429 . S
C1271 C1272 1.523 . S
C1272 C1256 1.368 1_554 S
C1272 C1268 1.368 . S
C1272 C1271 1.523 . S
H1273 C1248 0.950 . S
H1274 C1250 0.950 . S
H1275 C1251 0.949 . S
H1276 C1253 0.950 . S
H1277 C1255 0.950 . S
C1278 C1279 1.349 . S
C1278 C1280 1.327 . S
C1278 H1303 0.950 . S
C1279 C1278 1.349 . S
C1279 C1295 1.349 . S
C1280 C1278 1.327 . S
C1280 C1299 1.429 . S
C1280 H1304 0.950 . S
C1281 C1298 1.574 . S
C1281 C1300 1.368 . S
C1281 H1305 0.949 . S
H1282 C1286 0.949 . S
C1283 C1284 1.349 . S
C1283 C1285 1.327 . S
C1283 H1306 0.950 1_455 S
C1284 C1283 1.349 . S
C1284 C1296 1.349 . S
C1285 C1283 1.327 . S
C1285 C1301 1.429 . S
C1285 H1307 0.950 . S
C1286 H1282 0.949 . S
C1286 C1294 1.574 . S
C1286 C1302 1.368 . S
H1287 C1295 0.950 . S
H1288 C1293 0.950 . S
H1289 C1294 0.949 . S
H1290 C1296 0.950 . S
H1291 C1297 0.950 . S
H1292 C1298 0.949 . S
C1293 H1288 0.950 . S
C1293 C1295 1.327 . S
C1293 C1299 1.429 . S
C1294 C1286 1.574 . S
C1294 H1289 0.949 . S
C1294 C1300 1.368 . S
C1295 C1279 1.349 . S
C1295 H1287 0.950 . S
C1295 C1293 1.327 . S
C1296 C1284 1.349 . S
C1296 H1290 0.950 . S
C1296 C1297 1.327 . S
C1297 H1291 0.950 . S
C1297 C1296 1.327 . S
C1297 C1301 1.429 . S
C1298 C1281 1.574 . S
C1298 H1292 0.949 . S
C1298 C1302 1.368 . S
C1299 C1280 1.429 . S
C1299 C1293 1.429 . S
C1299 C1300 1.523 . S
C1300 C1281 1.368 . S
C1300 C1294 1.368 . S
C1300 C1299 1.523 . S
C1301 C1285 1.429 . S
C1301 C1297 1.429 . S
C1301 C1302 1.523 . S
C1302 C1286 1.368 . S
C1302 C1298 1.368 . S
C1302 C1301 1.523 . S
H1303 C1278 0.950 . S
H1304 C1280 0.950 . S
H1305 C1281 0.949 . S
H1306 C1283 0.950 1_655 S
H1307 C1285 0.950 . S
C1308 C1309 1.349 . S
C1308 C1310 1.327 . S
C1308 H1333 0.950 . S
C1309 C1308 1.349 . S
C1309 C1325 1.349 . S
C1310 C1308 1.327 . S
C1310 C1329 1.429 . S
C1310 H1334 0.950 . S
C1311 C1328 1.574 . S
C1311 C1330 1.368 . S
C1311 H1335 0.949 . S
H1312 C1316 0.949 . S
C1313 C1314 1.348 1_565 S
C1313 C1315 1.330 1_565 S
C1313 H1336 0.947 . S
C1314 C1313 1.348 1_545 S
C1314 C1326 1.349 . S
C1315 C1313 1.330 1_545 S
C1315 C1331 1.429 . S
C1315 H1337 0.950 . S
C1316 H1312 0.949 . S
C1316 C1324 1.574 . S
C1316 C1332 1.368 . S
H1317 C1325 0.950 . S
H1318 C1323 0.950 . S
H1319 C1324 0.949 . S
H1320 C1326 0.950 . S
H1321 C1327 0.950 . S
H1322 C1328 0.949 . S
C1323 H1318 0.950 . S
C1323 C1325 1.327 . S
C1323 C1329 1.429 . S
C1324 C1316 1.574 . S
C1324 H1319 0.949 . S
C1324 C1330 1.368 . S
C1325 C1309 1.349 . S
C1325 H1317 0.950 . S
C1325 C1323 1.327 . S
C1326 C1314 1.349 . S
C1326 H1320 0.950 . S
C1326 C1327 1.327 . S
C1327 H1321 0.950 . S
C1327 C1326 1.327 . S
C1327 C1331 1.429 . S
C1328 C1311 1.574 . S
C1328 H1322 0.949 . S
C1328 C1332 1.368 . S
C1329 C1310 1.429 . S
C1329 C1323 1.429 . S
C1329 C1330 1.523 . S
C1330 C1311 1.368 . S
C1330 C1324 1.368 . S
C1330 C1329 1.523 . S
C1331 C1315 1.429 . S
C1331 C1327 1.429 . S
C1331 C1332 1.523 . S
C1332 C1316 1.368 . S
C1332 C1328 1.368 . S
C1332 C1331 1.523 . S
H1333 C1308 0.950 . S
H1334 C1310 0.950 . S
H1335 C1311 0.949 . S
H1336 C1313 0.947 . S
H1337 C1315 0.950 . S
C1338 C1339 1.349 . S
C1338 C1340 1.327 . S
C1338 H1363 0.950 . S
C1339 C1338 1.349 . S
C1339 C1355 1.349 . S
C1340 C1338 1.327 . S
C1340 C1359 1.429 . S
C1340 H1364 0.950 . S
C1341 C1358 1.574 . S
C1341 C1360 1.368 . S
C1341 H1365 0.949 . S
H1342 C1346 0.949 . S
C1343 C1344 1.349 . S
C1343 C1345 1.327 . S
C1343 H1366 0.950 . S
C1344 C1343 1.349 . S
C1344 C1356 1.349 . S
C1345 C1343 1.327 . S
C1345 C1361 1.429 . S
C1345 H1367 0.950 . S
C1346 H1342 0.949 . S
C1346 C1354 1.574 . S
C1346 C1362 1.368 . S
H1347 C1355 0.950 . S
H1348 C1353 0.950 . S
H1349 C1354 0.949 . S
H1350 C1356 0.950 . S
H1351 C1357 0.950 . S
H1352 C1358 0.949 . S
C1353 H1348 0.950 . S
C1353 C1355 1.327 . S
C1353 C1359 1.429 . S
C1354 C1346 1.574 . S
C1354 H1349 0.949 . S
C1354 C1360 1.368 . S
C1355 C1339 1.349 . S
C1355 H1347 0.950 . S
C1355 C1353 1.327 . S
C1356 C1344 1.349 . S
C1356 H1350 0.950 . S
C1356 C1357 1.327 . S
C1357 H1351 0.950 . S
C1357 C1356 1.327 . S
C1357 C1361 1.429 . S
C1358 C1341 1.574 . S
C1358 H1352 0.949 . S
C1358 C1362 1.368 . S
C1359 C1340 1.429 . S
C1359 C1353 1.429 . S
C1359 C1360 1.523 . S
C1360 C1341 1.368 . S
C1360 C1354 1.368 . S
C1360 C1359 1.523 . S
C1361 C1345 1.429 . S
C1361 C1357 1.429 . S
C1361 C1362 1.523 . S
C1362 C1346 1.368 . S
C1362 C1358 1.368 . S
C1362 C1361 1.523 . S
H1363 C1338 0.950 . S
H1364 C1340 0.950 . S
H1365 C1341 0.949 . S
H1366 C1343 0.950 . S
H1367 C1345 0.950 . S
C1368 C1369 1.349 . S
C1368 C1370 1.327 . S
C1368 H1393 0.950 . S
C1369 C1368 1.349 . S
C1369 C1385 1.349 . S
C1370 C1368 1.327 . S
C1370 C1389 1.429 . S
C1370 H1394 0.950 . S
C1371 C1388 1.574 . S
C1371 C1390 1.368 . S
C1371 H1395 0.949 . S
H1372 C1376 0.949 . S
C1373 C1374 1.349 . S
C1373 C1375 1.327 . S
C1373 H1396 0.950 . S
C1374 C1373 1.349 . S
C1374 C1386 1.349 . S
C1375 C1373 1.327 . S
C1375 C1391 1.429 . S
C1375 H1397 0.950 . S
C1376 H1372 0.949 . S
C1376 C1384 1.574 . S
C1376 C1392 1.368 . S
H1377 C1385 0.950 . S
H1378 C1383 0.950 . S
H1379 C1384 0.949 . S
H1380 C1386 0.950 . S
H1381 C1387 0.950 . S
H1382 C1388 0.949 . S
C1383 H1378 0.950 . S
C1383 C1385 1.327 . S
C1383 C1389 1.429 . S
C1384 C1376 1.574 . S
C1384 H1379 0.949 . S
C1384 C1390 1.368 . S
C1385 C1369 1.349 . S
C1385 H1377 0.950 . S
C1385 C1383 1.327 . S
C1386 C1374 1.349 . S
C1386 H1380 0.950 . S
C1386 C1387 1.327 . S
C1387 H1381 0.950 . S
C1387 C1386 1.327 . S
C1387 C1391 1.429 . S
C1388 C1371 1.574 . S
C1388 H1382 0.949 . S
C1388 C1392 1.368 . S
C1389 C1370 1.429 . S
C1389 C1383 1.429 . S
C1389 C1390 1.523 . S
C1390 C1371 1.368 . S
C1390 C1384 1.368 . S
C1390 C1389 1.523 . S
C1391 C1375 1.429 . S
C1391 C1387 1.429 . S
C1391 C1392 1.523 . S
C1392 C1376 1.368 . S
C1392 C1388 1.368 . S
C1392 C1391 1.523 . S
H1393 C1368 0.950 . S
H1394 C1370 0.950 . S
H1395 C1371 0.949 . S
H1396 C1373 0.950 . S
H1397 C1375 0.950 . S
C1398 C1399 1.349 . S
C1398 C1400 1.327 . S
C1398 H1423 0.950 . S
C1399 C1398 1.349 . S
C1399 C1415 1.349 . S
C1400 C1398 1.327 . S
C1400 C1419 1.429 . S
C1400 H1424 0.950 . S
C1401 C1418 1.574 . S
C1401 C1420 1.368 . S
C1401 H1425 0.949 . S
H1402 C1406 0.949 . S
C1403 C1404 1.348 1_545 S
C1403 C1405 1.330 1_545 S
C1403 H1426 0.947 . S
C1404 C1403 1.348 1_565 S
C1404 C1416 1.349 . S
C1405 C1403 1.330 1_565 S
C1405 C1421 1.429 . S
C1405 H1427 0.950 . S
C1406 H1402 0.949 . S
C1406 C1414 1.574 . S
C1406 C1422 1.368 . S
H1407 C1415 0.950 . S
H1408 C1413 0.950 . S
H1409 C1414 0.949 . S
H1410 C1416 0.950 . S
H1411 C1417 0.950 . S
H1412 C1418 0.949 . S
C1413 H1408 0.950 . S
C1413 C1415 1.327 . S
C1413 C1419 1.429 . S
C1414 C1406 1.574 . S
C1414 H1409 0.949 . S
C1414 C1420 1.368 . S
C1415 C1399 1.349 . S
C1415 H1407 0.950 . S
C1415 C1413 1.327 . S
C1416 C1404 1.349 . S
C1416 H1410 0.950 . S
C1416 C1417 1.327 . S
C1417 H1411 0.950 . S
C1417 C1416 1.327 . S
C1417 C1421 1.429 . S
C1418 C1401 1.574 . S
C1418 H1412 0.949 . S
C1418 C1422 1.368 . S
C1419 C1400 1.429 . S
C1419 C1413 1.429 . S
C1419 C1420 1.523 . S
C1420 C1401 1.368 . S
C1420 C1414 1.368 . S
C1420 C1419 1.523 . S
C1421 C1405 1.429 . S
C1421 C1417 1.429 . S
C1421 C1422 1.523 . S
C1422 C1406 1.368 . S
C1422 C1418 1.368 . S
C1422 C1421 1.523 . S
H1423 C1398 0.950 . S
H1424 C1400 0.950 . S
H1425 C1401 0.949 . S
H1426 C1403 0.947 . S
H1427 C1405 0.950 . S
C1428 C1429 1.349 . S
C1428 C1430 1.327 . S
C1428 H1453 0.950 . S
C1429 C1428 1.349 . S
C1429 C1445 1.349 . S
C1430 C1428 1.327 . S
C1430 C1449 1.429 . S
C1430 H1454 0.950 . S
C1431 C1448 1.574 . S
C1431 C1450 1.368 . S
C1431 H1455 0.949 . S
H1432 C1436 0.949 . S
C1433 C1434 1.349 . S
C1433 C1435 1.327 . S
C1433 H1456 0.950 . S
C1434 C1433 1.349 . S
C1434 C1446 1.349 . S
C1435 C1433 1.327 . S
C1435 C1451 1.429 . S
C1435 H1457 0.950 . S
C1436 H1432 0.949 . S
C1436 C1444 1.574 . S
C1436 C1452 1.368 . S
H1437 C1445 0.950 . S
H1438 C1443 0.950 . S
H1439 C1444 0.949 . S
H1440 C1446 0.950 . S
H1441 C1447 0.950 . S
H1442 C1448 0.949 . S
C1443 H1438 0.950 . S
C1443 C1445 1.327 . S
C1443 C1449 1.429 . S
C1444 C1436 1.574 . S
C1444 H1439 0.949 . S
C1444 C1450 1.368 . S
C1445 C1429 1.349 . S
C1445 H1437 0.950 . S
C1445 C1443 1.327 . S
C1446 C1434 1.349 . S
C1446 H1440 0.950 . S
C1446 C1447 1.327 . S
C1447 H1441 0.950 . S
C1447 C1446 1.327 . S
C1447 C1451 1.429 . S
C1448 C1431 1.574 . S
C1448 H1442 0.949 . S
C1448 C1452 1.368 . S
C1449 C1430 1.429 . S
C1449 C1443 1.429 . S
C1449 C1450 1.523 . S
C1450 C1431 1.368 . S
C1450 C1444 1.368 . S
C1450 C1449 1.523 . S
C1451 C1435 1.429 . S
C1451 C1447 1.429 . S
C1451 C1452 1.523 . S
C1452 C1436 1.368 . S
C1452 C1448 1.368 . S
C1452 C1451 1.523 . S
H1453 C1428 0.950 . S
H1454 C1430 0.950 . S
H1455 C1431 0.949 . S
H1456 C1433 0.950 . S
H1457 C1435 0.950 . S
C1458 C1459 1.349 . S
C1458 C1460 1.327 . S
C1458 H1483 0.950 . S
C1459 C1458 1.349 . S
C1459 C1475 1.349 . S
C1460 C1458 1.327 . S
C1460 C1479 1.429 . S
C1460 H1484 0.950 . S
C1461 C1478 1.574 . S
C1461 C1480 1.368 1_554 S
C1461 H1485 0.949 . S
H1462 C1466 0.949 . S
C1463 C1464 1.349 . S
C1463 C1465 1.327 . S
C1463 H1486 0.950 . S
C1464 C1463 1.349 . S
C1464 C1476 1.349 . S
C1465 C1463 1.327 . S
C1465 C1481 1.429 . S
C1465 H1487 0.950 . S
C1466 H1462 0.949 . S
C1466 C1474 1.574 . S
C1466 C1482 1.368 1_556 S
H1467 C1475 0.950 1_554 S
H1468 C1473 0.950 . S
H1469 C1474 0.949 . S
H1470 C1476 0.950 1_556 S
H1471 C1477 0.950 . S
H1472 C1478 0.949 . S
C1473 H1468 0.950 . S
C1473 C1475 1.327 1_554 S
C1473 C1479 1.429 1_554 S
C1474 C1466 1.574 . S
C1474 H1469 0.949 . S
C1474 C1480 1.368 . S
C1475 C1459 1.349 . S
C1475 H1467 0.950 1_556 S
C1475 C1473 1.327 1_556 S
C1476 C1464 1.349 . S
C1476 H1470 0.950 1_554 S
C1476 C1477 1.327 1_554 S
C1477 H1471 0.950 . S
C1477 C1476 1.327 1_556 S
C1477 C1481 1.429 1_556 S
C1478 C1461 1.574 . S
C1478 H1472 0.949 . S
C1478 C1482 1.368 . S
C1479 C1460 1.429 . S
C1479 C1473 1.429 1_556 S
C1479 C1480 1.523 . S
C1480 C1461 1.368 1_556 S
C1480 C1474 1.368 . S
C1480 C1479 1.523 . S
C1481 C1465 1.429 . S
C1481 C1477 1.429 1_554 S
C1481 C1482 1.523 . S
C1482 C1466 1.368 1_554 S
C1482 C1478 1.368 . S
C1482 C1481 1.523 . S
H1483 C1458 0.950 . S
H1484 C1460 0.950 . S
H1485 C1461 0.949 . S
H1486 C1463 0.950 . S
H1487 C1465 0.950 . S
C1488 C1489 1.349 . S
C1488 C1490 1.327 . S
C1488 H1513 0.950 . S
C1489 C1488 1.349 . S
C1489 C1505 1.349 . S
C1490 C1488 1.327 . S
C1490 C1509 1.429 . S
C1490 H1514 0.950 . S
C1491 C1508 1.574 . S
C1491 C1510 1.368 . S
C1491 H1515 0.949 . S
H1492 C1496 0.949 . S
C1493 C1494 1.349 . S
C1493 C1495 1.327 . S
C1493 H1516 0.950 . S
C1494 C1493 1.349 . S
C1494 C1506 1.349 . S
C1495 C1493 1.327 . S
C1495 C1511 1.429 . S
C1495 H1517 0.950 . S
C1496 H1492 0.949 . S
C1496 C1504 1.574 . S
C1496 C1512 1.368 . S
H1497 C1505 0.950 . S
H1498 C1503 0.950 . S
H1499 C1504 0.949 . S
H1500 C1506 0.950 . S
H1501 C1507 0.950 . S
H1502 C1508 0.949 . S
C1503 H1498 0.950 . S
C1503 C1505 1.327 . S
C1503 C1509 1.429 . S
C1504 C1496 1.574 . S
C1504 H1499 0.949 . S
C1504 C1510 1.368 . S
C1505 C1489 1.349 . S
C1505 H1497 0.950 . S
C1505 C1503 1.327 . S
C1506 C1494 1.349 . S
C1506 H1500 0.950 . S
C1506 C1507 1.327 . S
C1507 H1501 0.950 . S
C1507 C1506 1.327 . S
C1507 C1511 1.429 . S
C1508 C1491 1.574 . S
C1508 H1502 0.949 . S
C1508 C1512 1.368 . S
C1509 C1490 1.429 . S
C1509 C1503 1.429 . S
C1509 C1510 1.523 . S
C1510 C1491 1.368 . S
C1510 C1504 1.368 . S
C1510 C1509 1.523 . S
C1511 C1495 1.429 . S
C1511 C1507 1.429 . S
C1511 C1512 1.523 . S
C1512 C1496 1.368 . S
C1512 C1508 1.368 . S
C1512 C1511 1.523 . S
H1513 C1488 0.950 . S
H1514 C1490 0.950 . S
H1515 C1491 0.949 . S
H1516 C1493 0.950 . S
H1517 C1495 0.950 . S
C1518 C1519 1.349 . S
C1518 C1520 1.327 . S
C1518 H1543 0.950 . S
C1519 C1518 1.349 . S
C1519 C1535 1.349 . S
C1520 C1518 1.327 . S
C1520 C1539 1.429 . S
C1520 H1544 0.950 . S
C1521 C1538 1.574 . S
C1521 C1540 1.368 . S
C1521 H1545 0.949 . S
H1522 C1526 0.949 . S
C1523 C1524 1.349 . S
C1523 C1525 1.327 . S
C1523 H1546 0.950 . S
C1524 C1523 1.349 . S
C1524 C1536 1.349 . S
C1525 C1523 1.327 . S
C1525 C1541 1.429 . S
C1525 H1547 0.950 . S
C1526 H1522 0.949 . S
C1526 C1534 1.574 . S
C1526 C1542 1.368 . S
H1527 C1535 0.950 . S
H1528 C1533 0.950 . S
H1529 C1534 0.949 . S
H1530 C1536 0.950 . S
H1531 C1537 0.950 . S
H1532 C1538 0.949 . S
C1533 H1528 0.950 . S
C1533 C1535 1.327 . S
C1533 C1539 1.429 . S
C1534 C1526 1.574 . S
C1534 H1529 0.949 . S
C1534 C1540 1.368 . S
C1535 C1519 1.349 . S
C1535 H1527 0.950 . S
C1535 C1533 1.327 . S
C1536 C1524 1.349 . S
C1536 H1530 0.950 . S
C1536 C1537 1.327 . S
C1537 H1531 0.950 . S
C1537 C1536 1.327 . S
C1537 C1541 1.429 . S
C1538 C1521 1.574 . S
C1538 H1532 0.949 . S
C1538 C1542 1.368 . S
C1539 C1520 1.429 . S
C1539 C1533 1.429 . S
C1539 C1540 1.523 . S
C1540 C1521 1.368 . S
C1540 C1534 1.368 . S
C1540 C1539 1.523 . S
C1541 C1525 1.429 . S
C1541 C1537 1.429 . S
C1541 C1542 1.523 . S
C1542 C1526 1.368 . S
C1542 C1538 1.368 . S
C1542 C1541 1.523 . S
H1543 C1518 0.950 . S
H1544 C1520 0.950 . S
H1545 C1521 0.949 . S
H1546 C1523 0.950 . S
H1547 C1525 0.950 . S
C1548 C1549 1.349 . S
C1548 C1550 1.327 . S
C1548 H1573 0.950 . S
C1549 C1548 1.349 . S
C1549 C1565 1.349 . S
C1550 C1548 1.327 . S
C1550 C1569 1.429 . S
C1550 H1574 0.950 . S
C1551 C1568 1.574 . S
C1551 C1570 1.368 . S
C1551 H1575 0.949 . S
H1552 C1556 0.949 . S
C1553 C1554 1.349 . S
C1553 C1555 1.327 . S
C1553 H1576 0.950 . S
C1554 C1553 1.349 . S
C1554 C1566 1.349 . S
C1555 C1553 1.327 . S
C1555 C1571 1.429 . S
C1555 H1577 0.950 . S
C1556 H1552 0.949 . S
C1556 C1564 1.574 . S
C1556 C1572 1.368 . S
H1557 C1565 0.950 . S
H1558 C1563 0.950 . S
H1559 C1564 0.949 . S
H1560 C1566 0.950 . S
H1561 C1567 0.950 . S
H1562 C1568 0.949 . S
C1563 H1558 0.950 . S
C1563 C1565 1.327 . S
C1563 C1569 1.429 . S
C1564 C1556 1.574 . S
C1564 H1559 0.949 . S
C1564 C1570 1.368 . S
C1565 C1549 1.349 . S
C1565 H1557 0.950 . S
C1565 C1563 1.327 . S
C1566 C1554 1.349 . S
C1566 H1560 0.950 . S
C1566 C1567 1.327 . S
C1567 H1561 0.950 . S
C1567 C1566 1.327 . S
C1567 C1571 1.429 . S
C1568 C1551 1.574 . S
C1568 H1562 0.949 . S
C1568 C1572 1.368 . S
C1569 C1550 1.429 . S
C1569 C1563 1.429 . S
C1569 C1570 1.523 . S
C1570 C1551 1.368 . S
C1570 C1564 1.368 . S
C1570 C1569 1.523 . S
C1571 C1555 1.429 . S
C1571 C1567 1.429 . S
C1571 C1572 1.523 . S
C1572 C1556 1.368 . S
C1572 C1568 1.368 . S
C1572 C1571 1.523 . S
H1573 C1548 0.950 . S
H1574 C1550 0.950 . S
H1575 C1551 0.949 . S
H1576 C1553 0.950 . S
H1577 C1555 0.950 . S
C1578 C1579 1.349 . S
C1578 C1580 1.327 . S
C1578 H1603 0.950 . S
C1579 C1578 1.349 . S
C1579 C1595 1.349 . S
C1580 C1578 1.327 . S
C1580 C1599 1.429 . S
C1580 H1604 0.950 . S
C1581 C1598 1.574 . S
C1581 C1600 1.368 . S
C1581 H1605 0.949 . S
H1582 C1586 0.949 . S
C1583 C1584 1.349 . S
C1583 C1585 1.327 . S
C1583 H1606 0.950 . S
C1584 C1583 1.349 . S
C1584 C1596 1.349 . S
C1585 C1583 1.327 . S
C1585 C1601 1.429 . S
C1585 H1607 0.950 . S
C1586 H1582 0.949 . S
C1586 C1594 1.574 . S
C1586 C1602 1.368 . S
H1587 C1595 0.950 . S
H1588 C1593 0.950 . S
H1589 C1594 0.949 . S
H1590 C1596 0.950 . S
H1591 C1597 0.950 . S
H1592 C1598 0.949 . S
C1593 H1588 0.950 . S
C1593 C1595 1.327 . S
C1593 C1599 1.429 . S
C1594 C1586 1.574 . S
C1594 H1589 0.949 . S
C1594 C1600 1.368 . S
C1595 C1579 1.349 . S
C1595 H1587 0.950 . S
C1595 C1593 1.327 . S
C1596 C1584 1.349 . S
C1596 H1590 0.950 . S
C1596 C1597 1.327 . S
C1597 H1591 0.950 . S
C1597 C1596 1.327 . S
C1597 C1601 1.429 . S
C1598 C1581 1.574 . S
C1598 H1592 0.949 . S
C1598 C1602 1.368 . S
C1599 C1580 1.429 . S
C1599 C1593 1.429 . S
C1599 C1600 1.523 . S
C1600 C1581 1.368 . S
C1600 C1594 1.368 . S
C1600 C1599 1.523 . S
C1601 C1585 1.429 . S
C1601 C1597 1.429 . S
C1601 C1602 1.523 . S
C1602 C1586 1.368 . S
C1602 C1598 1.368 . S
C1602 C1601 1.523 . S
H1603 C1578 0.950 . S
H1604 C1580 0.950 . S
H1605 C1581 0.949 . S
H1606 C1583 0.950 . S
H1607 C1585 0.950 . S
C349 C21 1.577 . S
C354 C253 1.577 . S
C379 C50 1.577 . S
C384 C282 1.577 . S
C409 C311 1.577 . S
C414 C79 1.577 . S
C439 C108 1.577 . S
C444 C340 1.577 . S
C469 C137 1.577 . S
C474 C195 1.577 . S
C499 C166 1.577 . S
C504 C224 1.577 . S
C529 C148 0.164 . S
C534 C15 0.335 . S
C559 C44 0.335 . S
C564 C3 0.164 . S
C589 C73 0.335 . S
C594 C32 0.165 . S
C619 C61 0.164 . S
C624 C102 0.335 . S
C649 C90 0.164 . S
C654 C131 0.335 . S
C679 C119 0.165 . S
C684 C160 0.335 . S
C709 C189 0.335 . S
C714 C206 0.165 . S
C739 C235 0.164 . S
C744 C218 0.335 . S
C769 C264 0.164 . S
C774 C247 0.335 . S
C799 C293 0.164 . S
C804 C276 0.335 . S
C829 C322 0.165 . S
C834 C305 0.335 . S
C859 C334 0.335 . S
C864 C177 0.165 . S
C889 C8 0.441 . S
C894 C182 0.441 . S
C919 C37 0.441 . S
C924 C211 0.441 . S
C949 C240 0.441 . S
C954 C66 0.441 . S
C979 C269 0.441 . S
C984 C95 0.441 . S
C1009 C124 0.441 . S
C1014 C298 0.441 . S
C1039 C153 0.441 . S
C1044 C327 0.441 . S
C1069 C245 1.520 . S
C1074 C13 1.520 . S
C1099 C274 1.520 . S
C1104 C42 1.520 . S
C1129 C303 1.520 . S
C1134 C71 1.520 . S
C1159 C100 1.520 . S
C1164 C332 1.520 . S
C1189 C187 1.520 . S
C1194 C129 1.520 . S
C1219 C216 1.520 . S
C1224 C158 1.520 . S
C1249 C208 3.194 . S
C1254 C10 3.309 . S
C1279 C237 3.194 . S
C1284 C39 3.310 1_455 S
C1309 C266 3.194 . S
C1314 C68 3.309 1_545 S
C1339 C295 3.194 . S
C1344 C97 3.310 . S
C1369 C324 3.194 . S
C1374 C126 3.310 1_655 S
C1399 C179 3.194 . S
C1404 C155 3.309 1_565 S
C1429 C184 3.310 . S
C1434 C150 3.194 . S
C1459 C213 3.309 1_455 S
C1464 C5 3.194 . S
C1489 C34 3.194 . S
C1494 C242 3.310 1_545 S
C1519 C63 3.194 . S
C1524 C271 3.310 . S
C1549 C300 3.309 1_655 S
C1554 C92 3.194 . S
C1579 C121 3.194 . S
C1584 C329 3.310 1_565 S
