# Generated by pormake.
# Topology dei, (4)-cn, num edge types: 1
# Building blocks:
#     Node 0, Type 0, BuildingBlock: TATPOV_clean_sbu_0, # of connection points: 4
#     Node 1, Type 0, BuildingBlock: TATPOV_clean_sbu_0, # of connection points: 4
#     Node 2, Type 0, BuildingBlock: TATPOV_clean_sbu_0, # of connection points: 4
#     Node 3, Type 0, BuildingBlock: TATPOV_clean_sbu_0, # of connection points: 4
#     Node 4, Type 0, BuildingBlock: TATPOV_clean_sbu_0, # of connection points: 4
#     Node 5, Type 0, BuildingBlock: TATPOV_clean_sbu_0, # of connection points: 4
#     Node 6, Type 0, BuildingBlock: TATPOV_clean_sbu_0, # of connection points: 4
#     Node 7, Type 0, BuildingBlock: TATPOV_clean_sbu_0, # of connection points: 4
#     Node 8, Type 0, BuildingBlock: TATPOV_clean_sbu_0, # of connection points: 4
#     Node 9, Type 0, BuildingBlock: TATPOV_clean_sbu_0, # of connection points: 4
#     Node 10, Type 0, BuildingBlock: TATPOV_clean_sbu_0, # of connection points: 4
#     Node 11, Type 0, BuildingBlock: TATPOV_clean_sbu_0, # of connection points: 4
#     Node 12, Type 0, BuildingBlock: TATPOV_clean_sbu_0, # of connection points: 4
#     Node 13, Type 0, BuildingBlock: TATPOV_clean_sbu_0, # of connection points: 4
#     Node 14, Type 0, BuildingBlock: TATPOV_clean_sbu_0, # of connection points: 4
#     Node 15, Type 0, BuildingBlock: TATPOV_clean_sbu_0, # of connection points: 4
#     Node 16, Type 0, BuildingBlock: TATPOV_clean_sbu_0, # of connection points: 4
#     Node 17, Type 0, BuildingBlock: TATPOV_clean_sbu_0, # of connection points: 4
#     Node 18, Type 0, BuildingBlock: TATPOV_clean_sbu_0, # of connection points: 4
#     Node 19, Type 0, BuildingBlock: TATPOV_clean_sbu_0, # of connection points: 4
#     Node 20, Type 0, BuildingBlock: TATPOV_clean_sbu_0, # of connection points: 4
#     Node 21, Type 0, BuildingBlock: TATPOV_clean_sbu_0, # of connection points: 4
#     Node 22, Type 0, BuildingBlock: TATPOV_clean_sbu_0, # of connection points: 4
#     Node 23, Type 0, BuildingBlock: TATPOV_clean_sbu_0, # of connection points: 4
#     Node 24, Type 0, BuildingBlock: TATPOV_clean_sbu_0, # of connection points: 4
#     Node 25, Type 0, BuildingBlock: TATPOV_clean_sbu_0, # of connection points: 4
#     Node 26, Type 0, BuildingBlock: TATPOV_clean_sbu_0, # of connection points: 4
#     Node 27, Type 0, BuildingBlock: TATPOV_clean_sbu_0, # of connection points: 4
#     Node 28, Type 0, BuildingBlock: TATPOV_clean_sbu_0, # of connection points: 4
#     Node 29, Type 0, BuildingBlock: TATPOV_clean_sbu_0, # of connection points: 4
#     Node 30, Type 0, BuildingBlock: TATPOV_clean_sbu_0, # of connection points: 4
#     Node 31, Type 0, BuildingBlock: TATPOV_clean_sbu_0, # of connection points: 4
#     Edge 32, Type (0, 0), BuildingBlock: UVAHIK_clean_linker_0, # of connection points: 2
#     Edge 33, Type (0, 0), BuildingBlock: UVAHIK_clean_linker_0, # of connection points: 2
#     Edge 34, Type (0, 0), BuildingBlock: UVAHIK_clean_linker_0, # of connection points: 2
#     Edge 35, Type (0, 0), BuildingBlock: UVAHIK_clean_linker_0, # of connection points: 2
#     Edge 36, Type (0, 0), BuildingBlock: UVAHIK_clean_linker_0, # of connection points: 2
#     Edge 37, Type (0, 0), BuildingBlock: UVAHIK_clean_linker_0, # of connection points: 2
#     Edge 38, Type (0, 0), BuildingBlock: UVAHIK_clean_linker_0, # of connection points: 2
#     Edge 39, Type (0, 0), BuildingBlock: UVAHIK_clean_linker_0, # of connection points: 2
#     Edge 40, Type (0, 0), BuildingBlock: UVAHIK_clean_linker_0, # of connection points: 2
#     Edge 41, Type (0, 0), BuildingBlock: UVAHIK_clean_linker_0, # of connection points: 2
#     Edge 42, Type (0, 0), BuildingBlock: UVAHIK_clean_linker_0, # of connection points: 2
#     Edge 43, Type (0, 0), BuildingBlock: UVAHIK_clean_linker_0, # of connection points: 2
#     Edge 44, Type (0, 0), BuildingBlock: UVAHIK_clean_linker_0, # of connection points: 2
#     Edge 45, Type (0, 0), BuildingBlock: UVAHIK_clean_linker_0, # of connection points: 2
#     Edge 46, Type (0, 0), BuildingBlock: UVAHIK_clean_linker_0, # of connection points: 2
#     Edge 47, Type (0, 0), BuildingBlock: UVAHIK_clean_linker_0, # of connection points: 2
#     Edge 48, Type (0, 0), BuildingBlock: UVAHIK_clean_linker_0, # of connection points: 2
#     Edge 49, Type (0, 0), BuildingBlock: UVAHIK_clean_linker_0, # of connection points: 2
#     Edge 50, Type (0, 0), BuildingBlock: UVAHIK_clean_linker_0, # of connection points: 2
#     Edge 51, Type (0, 0), BuildingBlock: UVAHIK_clean_linker_0, # of connection points: 2
#     Edge 52, Type (0, 0), BuildingBlock: UVAHIK_clean_linker_0, # of connection points: 2
#     Edge 53, Type (0, 0), BuildingBlock: UVAHIK_clean_linker_0, # of connection points: 2
#     Edge 54, Type (0, 0), BuildingBlock: UVAHIK_clean_linker_0, # of connection points: 2
#     Edge 55, Type (0, 0), BuildingBlock: UVAHIK_clean_linker_0, # of connection points: 2
#     Edge 56, Type (0, 0), BuildingBlock: UVAHIK_clean_linker_0, # of connection points: 2
#     Edge 57, Type (0, 0), BuildingBlock: UVAHIK_clean_linker_0, # of connection points: 2
#     Edge 58, Type (0, 0), BuildingBlock: UVAHIK_clean_linker_0, # of connection points: 2
#     Edge 59, Type (0, 0), BuildingBlock: UVAHIK_clean_linker_0, # of connection points: 2
#     Edge 60, Type (0, 0), BuildingBlock: UVAHIK_clean_linker_0, # of connection points: 2
#     Edge 61, Type (0, 0), BuildingBlock: UVAHIK_clean_linker_0, # of connection points: 2
#     Edge 62, Type (0, 0), BuildingBlock: UVAHIK_clean_linker_0, # of connection points: 2
#     Edge 63, Type (0, 0), BuildingBlock: UVAHIK_clean_linker_0, # of connection points: 2
#     Edge 64, Type (0, 0), BuildingBlock: UVAHIK_clean_linker_0, # of connection points: 2
#     Edge 65, Type (0, 0), BuildingBlock: UVAHIK_clean_linker_0, # of connection points: 2
#     Edge 66, Type (0, 0), BuildingBlock: UVAHIK_clean_linker_0, # of connection points: 2
#     Edge 67, Type (0, 0), BuildingBlock: UVAHIK_clean_linker_0, # of connection points: 2
#     Edge 68, Type (0, 0), BuildingBlock: UVAHIK_clean_linker_0, # of connection points: 2
#     Edge 69, Type (0, 0), BuildingBlock: UVAHIK_clean_linker_0, # of connection points: 2
#     Edge 70, Type (0, 0), BuildingBlock: UVAHIK_clean_linker_0, # of connection points: 2
#     Edge 71, Type (0, 0), BuildingBlock: UVAHIK_clean_linker_0, # of connection points: 2
#     Edge 72, Type (0, 0), BuildingBlock: UVAHIK_clean_linker_0, # of connection points: 2
#     Edge 73, Type (0, 0), BuildingBlock: UVAHIK_clean_linker_0, # of connection points: 2
#     Edge 74, Type (0, 0), BuildingBlock: UVAHIK_clean_linker_0, # of connection points: 2
#     Edge 75, Type (0, 0), BuildingBlock: UVAHIK_clean_linker_0, # of connection points: 2
#     Edge 76, Type (0, 0), BuildingBlock: UVAHIK_clean_linker_0, # of connection points: 2
#     Edge 77, Type (0, 0), BuildingBlock: UVAHIK_clean_linker_0, # of connection points: 2
#     Edge 78, Type (0, 0), BuildingBlock: UVAHIK_clean_linker_0, # of connection points: 2
#     Edge 79, Type (0, 0), BuildingBlock: UVAHIK_clean_linker_0, # of connection points: 2
#     Edge 80, Type (0, 0), BuildingBlock: UVAHIK_clean_linker_0, # of connection points: 2
#     Edge 81, Type (0, 0), BuildingBlock: UVAHIK_clean_linker_0, # of connection points: 2
#     Edge 82, Type (0, 0), BuildingBlock: UVAHIK_clean_linker_0, # of connection points: 2
#     Edge 83, Type (0, 0), BuildingBlock: UVAHIK_clean_linker_0, # of connection points: 2
#     Edge 84, Type (0, 0), BuildingBlock: UVAHIK_clean_linker_0, # of connection points: 2
#     Edge 85, Type (0, 0), BuildingBlock: UVAHIK_clean_linker_0, # of connection points: 2
#     Edge 86, Type (0, 0), BuildingBlock: UVAHIK_clean_linker_0, # of connection points: 2
#     Edge 87, Type (0, 0), BuildingBlock: UVAHIK_clean_linker_0, # of connection points: 2
#     Edge 88, Type (0, 0), BuildingBlock: UVAHIK_clean_linker_0, # of connection points: 2
#     Edge 89, Type (0, 0), BuildingBlock: UVAHIK_clean_linker_0, # of connection points: 2
#     Edge 90, Type (0, 0), BuildingBlock: UVAHIK_clean_linker_0, # of connection points: 2
#     Edge 91, Type (0, 0), BuildingBlock: UVAHIK_clean_linker_0, # of connection points: 2
#     Edge 92, Type (0, 0), BuildingBlock: UVAHIK_clean_linker_0, # of connection points: 2
#     Edge 93, Type (0, 0), BuildingBlock: UVAHIK_clean_linker_0, # of connection points: 2
#     Edge 94, Type (0, 0), BuildingBlock: UVAHIK_clean_linker_0, # of connection points: 2
#     Edge 95, Type (0, 0), BuildingBlock: UVAHIK_clean_linker_0, # of connection points: 2
# Relax obj value: 0.256
# Max RMSD: 0.093
# Mean RMSD: 0.093
data_MOF--net-dei--node1-TATPOV_clean_sbu_0--edge1-UVAHIK_clean_linker_0
_symmetry_space_group_name_H-M    P1
_symmetry_Int_Tables_number       1
_symmetry_cell_setting            triclinic
loop_
_symmetry_equiv_pos_as_xyz
'x, y, z'
_cell_length_a     65.589047
_cell_length_b     65.552663
_cell_length_c     123.74558
_cell_angle_alpha  89.98581
_cell_angle_beta   89.99751
_cell_angle_gamma 90.001888
loop_
_atom_site_label
_atom_site_type_symbol
_atom_site_fract_x
_atom_site_fract_y
_atom_site_fract_z
_atom_type_partial_charge
Zn0 Zn 0.13907 0.60714 0.02564 0.0
Zn1 Zn 0.14734 0.59828 0.04618 0.0
O2 O 0.16847 0.58138 0.03757 0.0
O3 O 0.16335 0.59106 0.02076 0.0
O4 O 0.15444 0.59288 0.06176 0.0
O5 O 0.14163 0.63707 0.02881 0.0
O6 O 0.15037 0.62946 0.04548 0.0
C7 C 0.17324 0.58062 0.02759 0.0
C8 C 0.10569 0.58737 0.03649 0.0
O9 O 0.11743 0.5888 0.04467 0.0
O10 O 0.11172 0.59334 0.0273 0.0
C11 C 0.14633 0.57904 0.06753 0.0
O12 O 0.13281 0.56674 0.06319 0.0
C13 C 0.14708 0.64269 0.03815 0.0
Zn14 Zn 0.62002 0.89218 0.27891 0.0
Zn15 Zn 0.63946 0.89581 0.29796 0.0
O16 O 0.6585 0.91136 0.28755 0.0
O17 O 0.64209 0.90896 0.27206 0.0
O18 O 0.65168 0.89931 0.31275 0.0
O19 O 0.59542 0.90664 0.28478 0.0
O20 O 0.61127 0.90874 0.3004 0.0
C21 C 0.65713 0.9154 0.27749 0.0
C22 C 0.63203 0.85346 0.28827 0.0
O23 O 0.63918 0.86471 0.29576 0.0
O24 O 0.62309 0.8615 0.28024 0.0
C25 C 0.65063 0.91676 0.3172 0.0
O26 O 0.64349 0.9322 0.31158 0.0
C27 C 0.5957 0.91225 0.29456 0.0
Zn28 Zn 0.36174 0.39324 0.52835 0.0
Zn29 Zn 0.34965 0.39822 0.54866 0.0
O30 O 0.32892 0.41557 0.54004 0.0
O31 O 0.33681 0.40796 0.52321 0.0
O32 O 0.34075 0.40037 0.56418 0.0
O33 O 0.36069 0.36292 0.52986 0.0
O34 O 0.34835 0.36714 0.54624 0.0
C35 C 0.3254 0.41695 0.52993 0.0
C36 C 0.39181 0.41325 0.54148 0.0
O37 O 0.37885 0.40975 0.54893 0.0
O38 O 0.38777 0.40845 0.5318 0.0
C39 C 0.33081 0.41505 0.56834 0.0
O40 O 0.32552 0.43062 0.56228 0.0
C41 C 0.35367 0.35543 0.53852 0.0
Zn42 Zn 0.87275 0.09606 0.77857 0.0
Zn43 Zn 0.85588 0.09347 0.79853 0.0
O44 O 0.8348 0.07904 0.78889 0.0
O45 O 0.84942 0.07932 0.77283 0.0
O46 O 0.84526 0.08994 0.81367 0.0
O47 O 0.89769 0.08124 0.7838 0.0
O48 O 0.88368 0.07933 0.79993 0.0
C49 C 0.83478 0.07419 0.77891 0.0
C50 C 0.8636 0.13535 0.78836 0.0
O51 O 0.85748 0.12442 0.79623 0.0
O52 O 0.87059 0.12695 0.7799 0.0
C53 C 0.83455 0.10276 0.81888 0.0
O54 O 0.82875 0.1197 0.81411 0.0
C55 C 0.89844 0.07552 0.79356 0.0
Zn56 Zn 0.13688 0.38908 0.97768 0.0
Zn57 Zn 0.1443 0.3987 0.95724 0.0
O58 O 0.16596 0.41507 0.96581 0.0
O59 O 0.16213 0.4037 0.98244 0.0
O60 O 0.15085 0.40501 0.94163 0.0
O61 O 0.13843 0.35935 0.97412 0.0
O62 O 0.1473 0.36739 0.95752 0.0
C63 C 0.17162 0.41462 0.97567 0.0
C64 C 0.10328 0.40977 0.96773 0.0
O65 O 0.11451 0.40822 0.95936 0.0
O66 O 0.10982 0.40369 0.97681 0.0
C67 C 0.14073 0.41725 0.93574 0.0
O68 O 0.12522 0.42717 0.93991 0.0
C69 C 0.14384 0.35396 0.96473 0.0
Zn70 Zn 0.86948 0.88711 0.22019 0.0
Zn71 Zn 0.8536 0.89045 0.20019 0.0
O72 O 0.83327 0.90668 0.20955 0.0
O73 O 0.84642 0.90413 0.22588 0.0
O74 O 0.84327 0.89316 0.18495 0.0
O75 O 0.89508 0.9011 0.21518 0.0
O76 O 0.88216 0.903 0.19879 0.0
C77 C 0.83265 0.91076 0.21963 0.0
C78 C 0.85874 0.84831 0.21071 0.0
O79 O 0.85317 0.85946 0.2028 0.0
O80 O 0.86634 0.85643 0.21909 0.0
C81 C 0.83667 0.90993 0.18117 0.0
O82 O 0.83542 0.92589 0.18756 0.0
C83 C 0.89669 0.90639 0.20538 0.0
Zn84 Zn 0.35819 0.618 0.47123 0.0
Zn85 Zn 0.35399 0.59975 0.45179 0.0
O86 O 0.33721 0.58153 0.46203 0.0
O87 O 0.3412 0.59588 0.47798 0.0
O88 O 0.34977 0.58698 0.43717 0.0
O89 O 0.34385 0.64281 0.4653 0.0
O90 O 0.34189 0.62817 0.44933 0.0
C91 C 0.33357 0.58197 0.47216 0.0
C92 C 0.3966 0.60604 0.46167 0.0
O93 O 0.38514 0.59929 0.45416 0.0
O94 O 0.38882 0.61479 0.46982 0.0
C95 C 0.36223 0.59053 0.42953 0.0
O96 O 0.37838 0.60181 0.43144 0.0
C97 C 0.33851 0.64335 0.45547 0.0
Zn98 Zn 0.62314 0.08575 0.71791 0.0
Zn99 Zn 0.63951 0.0843 0.69789 0.0
O100 O 0.6609 0.06977 0.7073 0.0
O101 O 0.64665 0.06902 0.72344 0.0
O102 O 0.65001 0.08143 0.6827 0.0
O103 O 0.59804 0.07125 0.7127 0.0
O104 O 0.6115 0.07051 0.69642 0.0
C105 C 0.66128 0.0645 0.71721 0.0
C106 C 0.63212 0.1256 0.70858 0.0
O107 O 0.63811 0.11513 0.70051 0.0
O108 O 0.62526 0.11671 0.71693 0.0
C109 C 0.66195 0.09385 0.67799 0.0
O110 O 0.66897 0.10967 0.68334 0.0
C111 C 0.5969 0.06634 0.70283 0.0
Zn112 Zn 0.8534 0.39608 0.98019 0.0
Zn113 Zn 0.84604 0.40287 0.95938 0.0
O114 O 0.82431 0.42032 0.96725 0.0
O115 O 0.82822 0.41146 0.98429 0.0
O116 O 0.83965 0.40728 0.94361 0.0
O117 O 0.85137 0.36597 0.97779 0.0
O118 O 0.84291 0.37172 0.96086 0.0
C119 C 0.81864 0.42124 0.97709 0.0
C120 C 0.88724 0.41485 0.96938 0.0
O121 O 0.87588 0.41238 0.96113 0.0
O122 O 0.88071 0.41011 0.97868 0.0
C123 C 0.84866 0.42034 0.9377 0.0
O124 O 0.86276 0.43207 0.94196 0.0
C125 C 0.84605 0.35932 0.96862 0.0
Zn126 Zn 0.37522 0.10927 0.71926 0.0
Zn127 Zn 0.35806 0.10835 0.69935 0.0
O128 O 0.33647 0.09404 0.70869 0.0
O129 O 0.35118 0.09313 0.72473 0.0
O130 O 0.34732 0.10705 0.68416 0.0
O131 O 0.3994 0.0936 0.7137 0.0
O132 O 0.38507 0.09288 0.69762 0.0
C133 C 0.33637 0.08872 0.7186 0.0
C134 C 0.36736 0.14934 0.71021 0.0
O135 O 0.36072 0.13901 0.70224 0.0
O136 O 0.37431 0.14029 0.71849 0.0
C137 C 0.34249 0.08999 0.68001 0.0
O138 O 0.34316 0.0735 0.68604 0.0
C139 C 0.3997 0.08813 0.70389 0.0
Zn140 Zn 0.65476 0.61989 0.46956 0.0
Zn141 Zn 0.65822 0.60482 0.44941 0.0
O142 O 0.67485 0.58452 0.4586 0.0
O143 O 0.6741 0.59833 0.47484 0.0
O144 O 0.66345 0.5962 0.43408 0.0
O145 O 0.66652 0.64677 0.46503 0.0
O146 O 0.6692 0.63414 0.44863 0.0
C147 C 0.68027 0.58454 0.46849 0.0
C148 C 0.61613 0.60752 0.45972 0.0
O149 O 0.62717 0.60301 0.45159 0.0
O150 O 0.6243 0.61455 0.46823 0.0
C151 C 0.65404 0.58296 0.4285 0.0
O152 O 0.63904 0.57257 0.43288 0.0
C153 C 0.67169 0.64879 0.45524 0.0
Zn154 Zn 0.12584 0.88894 0.22112 0.0
Zn155 Zn 0.14272 0.89349 0.20145 0.0
O156 O 0.16226 0.90994 0.21121 0.0
O157 O 0.14746 0.90734 0.22715 0.0
O158 O 0.15357 0.89658 0.18635 0.0
O159 O 0.09985 0.90161 0.21581 0.0
O160 O 0.11386 0.90534 0.19976 0.0
C161 C 0.16165 0.91426 0.22126 0.0
C162 C 0.13872 0.8509 0.21163 0.0
O163 O 0.1439 0.86249 0.20383 0.0
O164 O 0.13071 0.85845 0.22005 0.0
C165 C 0.15947 0.9135 0.18243 0.0
O166 O 0.15973 0.92976 0.18863 0.0
C167 C 0.09874 0.90761 0.2061 0.0
Zn168 Zn 0.85816 0.61022 0.02482 0.0
Zn169 Zn 0.84899 0.60185 0.04535 0.0
O170 O 0.82716 0.58617 0.03664 0.0
O171 O 0.83315 0.59537 0.01983 0.0
O172 O 0.84114 0.59681 0.06084 0.0
O173 O 0.85693 0.64026 0.02801 0.0
O174 O 0.84737 0.63305 0.04462 0.0
C175 C 0.82252 0.58562 0.02663 0.0
C176 C 0.89033 0.58901 0.03596 0.0
O177 O 0.87847 0.59102 0.04405 0.0
O178 O 0.88475 0.59514 0.02671 0.0
C179 C 0.84797 0.58236 0.06665 0.0
O180 O 0.86078 0.56917 0.06243 0.0
C181 C 0.85145 0.64611 0.03732 0.0
Zn182 Zn 0.12133 0.09743 0.77773 0.0
Zn183 Zn 0.13795 0.09705 0.7978 0.0
O184 O 0.16 0.08313 0.78861 0.0
O185 O 0.14578 0.08167 0.77247 0.0
O186 O 0.14855 0.09641 0.81302 0.0
O187 O 0.09716 0.0817 0.78329 0.0
O188 O 0.11099 0.08151 0.79949 0.0
C189 C 0.16055 0.07774 0.77872 0.0
C190 C 0.1285 0.13773 0.78664 0.0
O191 O 0.13497 0.12754 0.79471 0.0
O192 O 0.1219 0.12853 0.77833 0.0
C193 C 0.15468 0.07995 0.81736 0.0
O194 O 0.15531 0.06321 0.81153 0.0
C195 C 0.09655 0.07656 0.79315 0.0
Zn196 Zn 0.63411 0.40218 0.5286 0.0
Zn197 Zn 0.64506 0.40546 0.54929 0.0
O198 O 0.66544 0.42451 0.54157 0.0
O199 O 0.65892 0.41825 0.5244 0.0
O200 O 0.65408 0.40573 0.5648 0.0
O201 O 0.63626 0.37175 0.52917 0.0
O202 O 0.6476 0.3749 0.54581 0.0
C203 C 0.66955 0.4269 0.53159 0.0
C204 C 0.60276 0.41965 0.54214 0.0
O205 O 0.61547 0.41587 0.54967 0.0
O206 O 0.60746 0.41603 0.53239 0.0
C207 C 0.65066 0.42009 0.57145 0.0
O208 O 0.64084 0.43642 0.56817 0.0
C209 C 0.64321 0.36375 0.53771 0.0
Zn210 Zn 0.37567 0.89252 0.28053 0.0
Zn211 Zn 0.35719 0.89495 0.29993 0.0
O212 O 0.33713 0.90993 0.28988 0.0
O213 O 0.35191 0.90738 0.27395 0.0
O214 O 0.34491 0.89719 0.31475 0.0
O215 O 0.39932 0.90882 0.28629 0.0
O216 O 0.38466 0.90924 0.30229 0.0
C217 C 0.33723 0.91351 0.27974 0.0
C218 C 0.36681 0.85315 0.28992 0.0
O219 O 0.35908 0.86398 0.29743 0.0
O220 O 0.37514 0.86169 0.28186 0.0
C221 C 0.34208 0.91462 0.31899 0.0
O222 O 0.34599 0.93104 0.31327 0.0
C223 C 0.3995 0.91395 0.29616 0.0
Zn224 Zn 0.64772 0.10948 0.52055 0.0
Zn225 Zn 0.65504 0.10306 0.54134 0.0
O226 O 0.67591 0.08449 0.53361 0.0
O227 O 0.67243 0.09325 0.51654 0.0
O228 O 0.66177 0.09979 0.55709 0.0
O229 O 0.65023 0.13965 0.52242 0.0
O230 O 0.65834 0.13407 0.5394 0.0
C231 C 0.6815 0.08309 0.52377 0.0
C232 C 0.61383 0.09102 0.53184 0.0
O233 O 0.62525 0.09347 0.54007 0.0
O234 O 0.62027 0.09581 0.52252 0.0
C235 C 0.65707 0.0842 0.56265 0.0
O236 O 0.64748 0.06896 0.55799 0.0
C237 C 0.65549 0.14638 0.53158 0.0
Zn238 Zn 0.12496 0.39853 0.77976 0.0
Zn239 Zn 0.13943 0.39774 0.80029 0.0
O240 O 0.16183 0.41328 0.79201 0.0
O241 O 0.14936 0.4151 0.77547 0.0
O242 O 0.14865 0.39772 0.81578 0.0
O243 O 0.10033 0.41392 0.78483 0.0
O244 O 0.11181 0.41235 0.80155 0.0
C245 C 0.16316 0.41934 0.78224 0.0
C246 C 0.13177 0.35773 0.78811 0.0
O247 O 0.13748 0.36739 0.79652 0.0
O248 O 0.12573 0.36745 0.77985 0.0
C249 C 0.15434 0.41413 0.82035 0.0
O250 O 0.1553 0.43099 0.81462 0.0
C251 C 0.09834 0.41795 0.79478 0.0
Zn252 Zn 0.86313 0.89639 0.02543 0.0
Zn253 Zn 0.85081 0.90577 0.04533 0.0
O254 O 0.82931 0.91973 0.03559 0.0
O255 O 0.83753 0.90859 0.01937 0.0
O256 O 0.84138 0.91187 0.06054 0.0
O257 O 0.86345 0.86675 0.02935 0.0
O258 O 0.85038 0.87438 0.04522 0.0
C259 C 0.82566 0.9185 0.02548 0.0
C260 C 0.89276 0.91988 0.03687 0.0
O261 O 0.87997 0.91762 0.04453 0.0
O262 O 0.88865 0.91316 0.02753 0.0
C263 C 0.84932 0.92543 0.06656 0.0
O264 O 0.86403 0.93694 0.06273 0.0
C265 C 0.85651 0.86114 0.03842 0.0
Zn266 Zn 0.37476 0.59413 0.27909 0.0
Zn267 Zn 0.35356 0.59143 0.29783 0.0
O268 O 0.33545 0.57587 0.2871 0.0
O269 O 0.35199 0.57901 0.27168 0.0
O270 O 0.33972 0.5887 0.31224 0.0
O271 O 0.39767 0.57791 0.28582 0.0
O272 O 0.38076 0.57769 0.30117 0.0
C273 C 0.33688 0.57237 0.277 0.0
C274 C 0.36414 0.63337 0.28833 0.0
O275 O 0.35541 0.62242 0.29547 0.0
O276 O 0.37365 0.62498 0.28059 0.0
C277 C 0.33902 0.57113 0.31657 0.0
O278 O 0.34542 0.55531 0.311 0.0
C279 C 0.39644 0.57294 0.29569 0.0
Zn280 Zn 0.63643 0.87613 0.47327 0.0
Zn281 Zn 0.63928 0.893 0.45339 0.0
O282 O 0.65693 0.91177 0.46288 0.0
O283 O 0.6539 0.89871 0.4792 0.0
O284 O 0.64229 0.90472 0.43843 0.0
O285 O 0.65034 0.85092 0.46754 0.0
O286 O 0.6513 0.86451 0.45127 0.0
C287 C 0.66127 0.91206 0.47292 0.0
C288 C 0.59739 0.8873 0.46424 0.0
O289 O 0.60831 0.89356 0.45639 0.0
O290 O 0.60576 0.87917 0.4724 0.0
C291 C 0.62985 0.89956 0.43105 0.0
O292 O 0.61459 0.88741 0.43347 0.0
C293 C 0.65509 0.84975 0.45764 0.0
Zn294 Zn 0.3749 0.40869 0.72158 0.0
Zn295 Zn 0.35716 0.411 0.70193 0.0
O296 O 0.33635 0.42505 0.71188 0.0
O297 O 0.3516 0.4248 0.72776 0.0
O298 O 0.34584 0.41444 0.68697 0.0
O299 O 0.39934 0.42396 0.71612 0.0
O300 O 0.38478 0.42532 0.70012 0.0
C301 C 0.33662 0.42974 0.72187 0.0
C302 C 0.36587 0.36924 0.71185 0.0
O303 O 0.35908 0.38004 0.70408 0.0
O304 O 0.37324 0.37779 0.72018 0.0
C305 C 0.32999 0.40606 0.68309 0.0
O306 O 0.31901 0.39393 0.68922 0.0
C307 C 0.3997 0.42947 0.70632 0.0
Zn308 Zn 0.85502 0.10366 0.97652 0.0
Zn309 Zn 0.84711 0.09918 0.95559 0.0
O310 O 0.82559 0.08071 0.96291 0.0
O311 O 0.83057 0.08676 0.9802 0.0
O312 O 0.84022 0.09749 0.9398 0.0
O313 O 0.85219 0.13404 0.97536 0.0
O314 O 0.84414 0.12998 0.95825 0.0
C315 C 0.82061 0.07801 0.97278 0.0
C316 C 0.88856 0.08613 0.96465 0.0
O317 O 0.87689 0.08906 0.95656 0.0
O318 O 0.88244 0.09043 0.97409 0.0
C319 C 0.84397 0.08223 0.9338 0.0
O320 O 0.85279 0.06606 0.938 0.0
C321 C 0.84696 0.14158 0.96637 0.0
Zn322 Zn 0.13016 0.59566 0.22482 0.0
Zn323 Zn 0.13876 0.59006 0.20387 0.0
O324 O 0.16044 0.57235 0.21153 0.0
O325 O 0.15189 0.57558 0.22867 0.0
O326 O 0.14392 0.58514 0.18807 0.0
O327 O 0.10201 0.58488 0.22267 0.0
O328 O 0.10907 0.58013 0.20545 0.0
C329 C 0.16305 0.56777 0.22144 0.0
C330 C 0.14123 0.63287 0.21384 0.0
O331 O 0.1426 0.62107 0.20569 0.0
O332 O 0.13639 0.62569 0.22299 0.0
C333 C 0.15844 0.59334 0.18284 0.0
O334 O 0.17113 0.60554 0.18791 0.0
C335 C 0.09672 0.57889 0.21337 0.0
Zn336 Zn 0.33927 0.86705 0.4729 0.0
Zn337 Zn 0.33565 0.88619 0.45364 0.0
O338 O 0.31867 0.90409 0.46399 0.0
O339 O 0.32093 0.88803 0.47959 0.0
O340 O 0.33153 0.89907 0.43897 0.0
O341 O 0.32654 0.84189 0.46657 0.0
O342 O 0.32439 0.85742 0.45084 0.0
C343 C 0.31405 0.90263 0.47397 0.0
C344 C 0.37787 0.88049 0.46401 0.0
O345 O 0.36666 0.88691 0.45631 0.0
O346 O 0.36985 0.87159 0.47205 0.0
C347 C 0.345 0.90892 0.43374 0.0
O348 O 0.3629 0.91217 0.43816 0.0
C349 C 0.32152 0.84172 0.4567 0.0
Zn350 Zn 0.85061 0.59075 0.22439 0.0
Zn351 Zn 0.84305 0.58699 0.20316 0.0
O352 O 0.81987 0.57032 0.21019 0.0
O353 O 0.82641 0.57316 0.22758 0.0
O354 O 0.83866 0.58313 0.18723 0.0
O355 O 0.87786 0.57734 0.22248 0.0
O356 O 0.87195 0.57544 0.205 0.0
C357 C 0.81557 0.56612 0.21998 0.0
C358 C 0.84389 0.62936 0.21364 0.0
O359 O 0.84147 0.61808 0.20535 0.0
O360 O 0.84782 0.62136 0.22273 0.0
C361 C 0.82561 0.59294 0.18171 0.0
O362 O 0.81378 0.60628 0.18655 0.0
C363 C 0.88357 0.57236 0.21308 0.0
Zn364 Zn 0.13895 0.10204 0.97476 0.0
Zn365 Zn 0.14655 0.09442 0.95403 0.0
O366 O 0.16767 0.07681 0.96225 0.0
O367 O 0.16303 0.08535 0.97927 0.0
O368 O 0.15322 0.08903 0.93837 0.0
O369 O 0.14224 0.13201 0.97199 0.0
O370 O 0.15028 0.12552 0.95507 0.0
C371 C 0.17269 0.07535 0.97218 0.0
C372 C 0.10481 0.08394 0.9639 0.0
O373 O 0.11643 0.08564 0.9557 0.0
O374 O 0.11121 0.08906 0.97317 0.0
C375 C 0.14402 0.07587 0.93262 0.0
O376 O 0.12952 0.06474 0.93696 0.0
C377 C 0.14751 0.13824 0.96272 0.0
Zn378 Zn 0.6156 0.3824 0.72317 0.0
Zn379 Zn 0.63576 0.38811 0.70429 0.0
O380 O 0.65437 0.40203 0.71542 0.0
O381 O 0.63843 0.39684 0.73086 0.0
O382 O 0.64884 0.3939 0.68991 0.0
O383 O 0.5921 0.39911 0.71751 0.0
O384 O 0.60835 0.40231 0.70204 0.0
C385 C 0.65335 0.40417 0.72565 0.0
C386 C 0.6266 0.34477 0.71236 0.0
O387 O 0.63452 0.35678 0.70543 0.0
O388 O 0.61741 0.35195 0.72053 0.0
C389 C 0.66 0.38188 0.68445 0.0
O390 O 0.6648 0.36396 0.68846 0.0
C391 C 0.59287 0.40588 0.70793 0.0
Zn392 Zn 0.36277 0.10202 0.5221 0.0
Zn393 Zn 0.35599 0.09457 0.54307 0.0
O394 O 0.33495 0.07651 0.53516 0.0
O395 O 0.33901 0.0845 0.51802 0.0
O396 O 0.34964 0.0897 0.55883 0.0
O397 O 0.35864 0.13195 0.5247 0.0
O398 O 0.3517 0.1255 0.54176 0.0
C399 C 0.32971 0.0746 0.52528 0.0
C400 C 0.39757 0.08472 0.53287 0.0
O401 O 0.38613 0.08616 0.54116 0.0
O402 O 0.39085 0.0898 0.52365 0.0
C403 C 0.36037 0.07884 0.56516 0.0
O404 O 0.37667 0.0696 0.56141 0.0
C405 C 0.35366 0.13816 0.53402 0.0
Zn406 Zn 0.61212 0.59865 0.27744 0.0
Zn407 Zn 0.63427 0.59114 0.29519 0.0
O408 O 0.6485 0.57373 0.2836 0.0
O409 O 0.62861 0.57762 0.26941 0.0
O410 O 0.6483 0.58424 0.30916 0.0
O411 O 0.58642 0.59074 0.28525 0.0
O412 O 0.60542 0.58197 0.29915 0.0
C413 C 0.64401 0.56948 0.27383 0.0
C414 C 0.6317 0.63456 0.28599 0.0
O415 O 0.63748 0.62238 0.29343 0.0
O416 O 0.62142 0.62789 0.27808 0.0
C417 C 0.66207 0.59446 0.31394 0.0
O418 O 0.66961 0.61078 0.30925 0.0
C419 C 0.58806 0.58333 0.29465 0.0
Zn420 Zn 0.13327 0.89255 0.02683 0.0
Zn421 Zn 0.14507 0.90239 0.04672 0.0
O422 O 0.1664 0.91665 0.03699 0.0
O423 O 0.15873 0.90506 0.02079 0.0
O424 O 0.15425 0.90905 0.06191 0.0
O425 O 0.1333 0.86297 0.03085 0.0
O426 O 0.14602 0.87094 0.04675 0.0
C427 C 0.17024 0.91537 0.02691 0.0
C428 C 0.10317 0.91596 0.03798 0.0
O429 O 0.11579 0.91393 0.04574 0.0
O430 O 0.10753 0.90906 0.0287 0.0
C431 C 0.14613 0.9228 0.06774 0.0
O432 O 0.13134 0.93399 0.06374 0.0
C433 C 0.14019 0.85755 0.03996 0.0
Zn434 Zn 0.86812 0.3955 0.78216 0.0
Zn435 Zn 0.85328 0.39602 0.80245 0.0
O436 O 0.83087 0.41096 0.7938 0.0
O437 O 0.84351 0.41099 0.77728 0.0
O438 O 0.84382 0.39666 0.81789 0.0
O439 O 0.89232 0.41181 0.78692 0.0
O440 O 0.88077 0.411 0.80364 0.0
C441 C 0.82958 0.41593 0.78385 0.0
C442 C 0.86167 0.35525 0.79105 0.0
O443 O 0.85546 0.36537 0.7992 0.0
O444 O 0.86806 0.36452 0.78272 0.0
C445 C 0.83724 0.41293 0.82226 0.0
O446 O 0.83545 0.4295 0.81635 0.0
C447 C 0.89418 0.41646 0.79678 0.0
C448 C 0.17497 0.60043 0.16494 0.0
C449 C 0.16037 0.58981 0.17107 0.0
C450 C 0.176 0.59783 0.15374 0.0
C451 C 0.16026 0.56353 0.13147 0.0
H452 H 0.16369 0.61249 0.11399 0.0
C453 C 0.13976 0.565 0.08606 0.0
C454 C 0.15099 0.57792 0.07922 0.0
C455 C 0.14311 0.56518 0.09722 0.0
C456 C 0.16308 0.59861 0.11873 0.0
H457 H 0.13574 0.56774 0.17026 0.0
H458 H 0.13748 0.56333 0.15075 0.0
H459 H 0.16583 0.6151 0.13357 0.0
H460 H 0.17513 0.60054 0.0787 0.0
H461 H 0.18118 0.60058 0.09811 0.0
H462 H 0.15728 0.54706 0.11661 0.0
C463 C 0.14824 0.57353 0.1546 0.0
C464 C 0.16429 0.60012 0.12997 0.0
C465 C 0.14716 0.57618 0.16578 0.0
C466 C 0.16609 0.59051 0.08375 0.0
C467 C 0.16949 0.59063 0.09489 0.0
C468 C 0.15911 0.562 0.12022 0.0
C469 C 0.16251 0.58449 0.14843 0.0
C470 C 0.16266 0.58263 0.13647 0.0
C471 C 0.15781 0.57822 0.10179 0.0
C472 C 0.16028 0.57956 0.11371 0.0
H473 H 0.18542 0.61099 0.16877 0.0
H474 H 0.18731 0.60632 0.14921 0.0
H475 H 0.15924 0.54974 0.13626 0.0
H476 H 0.12799 0.55514 0.08284 0.0
H477 H 0.13368 0.55558 0.1023 0.0
C478 C 0.61842 0.90216 0.41182 0.0
C479 C 0.6334 0.90575 0.41971 0.0
C480 C 0.62221 0.90667 0.40098 0.0
C481 C 0.66382 0.91108 0.38156 0.0
H482 H 0.62241 0.93554 0.36333 0.0
C483 C 0.66077 0.90219 0.33514 0.0
C484 C 0.65407 0.9189 0.32897 0.0
C485 C 0.66112 0.90331 0.34642 0.0
C486 C 0.63426 0.92894 0.36833 0.0
H487 H 0.66399 0.91727 0.42243 0.0
H488 H 0.67065 0.92498 0.40342 0.0
H489 H 0.61671 0.93299 0.38276 0.0
H490 H 0.64363 0.95028 0.32977 0.0
H491 H 0.64423 0.95217 0.34945 0.0
H492 H 0.68116 0.90662 0.36707 0.0
C493 C 0.65599 0.91865 0.40567 0.0
C494 C 0.6309 0.92731 0.37944 0.0
C495 C 0.65212 0.91434 0.41654 0.0
C496 C 0.64877 0.93709 0.33429 0.0
C497 C 0.649 0.93816 0.34556 0.0
C498 C 0.66711 0.91255 0.37042 0.0
C499 C 0.64113 0.9147 0.39777 0.0
C500 C 0.6455 0.91809 0.38615 0.0
C501 C 0.65468 0.92111 0.35175 0.0
C502 C 0.65224 0.92126 0.36367 0.0
H503 H 0.60383 0.89558 0.41399 0.0
H504 H 0.61053 0.90328 0.39505 0.0
H505 H 0.6753 0.90378 0.38653 0.0
H506 H 0.66501 0.88797 0.33129 0.0
H507 H 0.66545 0.88988 0.35097 0.0
C508 C 0.33717 0.42184 0.6651 0.0
C509 C 0.32488 0.40915 0.67155 0.0
C510 C 0.33342 0.42384 0.65406 0.0
C511 C 0.31036 0.39629 0.63134 0.0
H512 H 0.32172 0.44681 0.61618 0.0
C513 C 0.33215 0.3982 0.58647 0.0
C514 C 0.32581 0.41467 0.58001 0.0
C515 C 0.32821 0.39804 0.59754 0.0
C516 C 0.31816 0.43265 0.62027 0.0
H517 H 0.29854 0.38916 0.67148 0.0
H518 H 0.29185 0.39281 0.65214 0.0
H519 H 0.32093 0.4465 0.63585 0.0
H520 H 0.30986 0.44365 0.58011 0.0
H521 H 0.30281 0.44327 0.5995 0.0
H522 H 0.30763 0.38242 0.61576 0.0
C523 C 0.30457 0.401 0.65565 0.0
C524 C 0.31794 0.43242 0.63156 0.0
C525 C 0.30835 0.39897 0.66674 0.0
C526 C 0.31505 0.43079 0.58486 0.0
C527 C 0.31107 0.43061 0.59598 0.0
C528 C 0.31051 0.39653 0.62005 0.0
C529 C 0.31724 0.41327 0.64916 0.0
C530 C 0.31459 0.41412 0.63723 0.0
C531 C 0.31777 0.41429 0.60246 0.0
C532 C 0.31496 0.41459 0.61439 0.0
H533 H 0.35004 0.42993 0.66853 0.0
H534 H 0.34369 0.43315 0.6493 0.0
H535 H 0.30783 0.3819 0.63544 0.0
H536 H 0.34049 0.38553 0.583 0.0
H537 H 0.33391 0.3854 0.6023 0.0
C538 C 0.845 0.06732 0.91513 0.0
C539 C 0.83922 0.08319 0.92212 0.0
C540 C 0.84142 0.06885 0.90401 0.0
C541 C 0.83336 0.10737 0.88276 0.0
H542 H 0.81758 0.06077 0.86537 0.0
C543 C 0.82115 0.11459 0.83681 0.0
C544 C 0.83053 0.09942 0.83052 0.0
C545 C 0.81924 0.11215 0.848 0.0
C546 C 0.82207 0.0739 0.87012 0.0
H547 H 0.82451 0.11282 0.92295 0.0
H548 H 0.8181 0.11535 0.90363 0.0
H549 H 0.82002 0.05727 0.88498 0.0
H550 H 0.8445 0.0694 0.83099 0.0
H551 H 0.84133 0.06526 0.85044 0.0
H552 H 0.83579 0.12393 0.86793 0.0
C553 C 0.82572 0.10188 0.9067 0.0
C554 C 0.8235 0.07189 0.88135 0.0
C555 C 0.82932 0.10037 0.91779 0.0
C556 C 0.83723 0.08142 0.83559 0.0
C557 C 0.83529 0.07897 0.84675 0.0
C558 C 0.83193 0.10939 0.87155 0.0
C559 C 0.83195 0.08627 0.89966 0.0
C560 C 0.82936 0.08855 0.88778 0.0
C561 C 0.82663 0.09446 0.85312 0.0
C562 C 0.82649 0.09263 0.86509 0.0
H563 H 0.85266 0.05388 0.9182 0.0
H564 H 0.84661 0.05664 0.8988 0.0
H565 H 0.83823 0.12043 0.88745 0.0
H566 H 0.81574 0.12859 0.83316 0.0
H567 H 0.81223 0.12423 0.85266 0.0
C568 C 0.13224 0.42956 0.91711 0.0
C569 C 0.14558 0.41921 0.9241 0.0
C570 C 0.13607 0.43021 0.906 0.0
C571 C 0.16419 0.40256 0.88465 0.0
H572 H 0.14874 0.44936 0.86734 0.0
C573 C 0.15303 0.3976 0.83858 0.0
C574 C 0.15774 0.41466 0.83217 0.0
C575 C 0.15435 0.39867 0.84983 0.0
C576 C 0.15345 0.43625 0.87205 0.0
H577 H 0.17384 0.40209 0.92496 0.0
H578 H 0.18078 0.40363 0.90563 0.0
H579 H 0.14626 0.45119 0.88693 0.0
H580 H 0.16845 0.44596 0.83254 0.0
H581 H 0.1712 0.44769 0.85217 0.0
H582 H 0.17168 0.38772 0.86978 0.0
C583 C 0.16708 0.41083 0.90868 0.0
C584 C 0.15174 0.43721 0.88329 0.0
C585 C 0.16316 0.41005 0.91978 0.0
C586 C 0.16455 0.43259 0.83725 0.0
C587 C 0.166 0.43362 0.84851 0.0
C588 C 0.16603 0.40164 0.87341 0.0
C589 C 0.15343 0.42067 0.90163 0.0
C590 C 0.15677 0.42026 0.88973 0.0
C591 C 0.16057 0.41679 0.85495 0.0
C592 C 0.16035 0.41835 0.86695 0.0
H593 H 0.11852 0.43672 0.92016 0.0
H594 H 0.12506 0.43767 0.90082 0.0
H595 H 0.16803 0.38913 0.88933 0.0
H596 H 0.14767 0.38357 0.83493 0.0
H597 H 0.14977 0.38549 0.85451 0.0
C598 C 0.85544 0.93786 0.08541 0.0
C599 C 0.84336 0.92685 0.07807 0.0
C600 C 0.85097 0.93762 0.09645 0.0
C601 C 0.82423 0.90614 0.11679 0.0
H602 H 0.83728 0.95169 0.13551 0.0
C603 C 0.83762 0.89603 0.16235 0.0
C604 C 0.83251 0.91194 0.16946 0.0
C605 C 0.83554 0.89853 0.1512 0.0
C606 C 0.83321 0.9389 0.13041 0.0
H607 H 0.81648 0.90782 0.07649 0.0
H608 H 0.80832 0.90787 0.0957 0.0
H609 H 0.83921 0.95593 0.11601 0.0
H610 H 0.82033 0.94264 0.17045 0.0
H611 H 0.81621 0.94683 0.15098 0.0
H612 H 0.81789 0.88921 0.13117 0.0
C613 C 0.82161 0.91622 0.09298 0.0
C614 C 0.83461 0.94125 0.11921 0.0
C615 C 0.82621 0.91629 0.08195 0.0
C616 C 0.82454 0.93014 0.16519 0.0
C617 C 0.82231 0.93258 0.15402 0.0
C618 C 0.82264 0.90385 0.12798 0.0
C619 C 0.83417 0.92654 0.1004 0.0
C620 C 0.83058 0.92477 0.11226 0.0
C621 C 0.82812 0.91693 0.14687 0.0
C622 C 0.82756 0.92005 0.13495 0.0
H623 H 0.86881 0.9461 0.08269 0.0
H624 H 0.86118 0.94551 0.1019 0.0
H625 H 0.82116 0.89302 0.11172 0.0
H626 H 0.84387 0.88183 0.16536 0.0
H627 H 0.84049 0.88625 0.14597 0.0
C628 C 0.33825 0.5763 0.41566 0.0
C629 C 0.35774 0.58358 0.41841 0.0
C630 C 0.33357 0.57142 0.40494 0.0
C631 C 0.35671 0.55889 0.37863 0.0
H632 H 0.30821 0.58362 0.36636 0.0
C633 C 0.33813 0.55041 0.33355 0.0
C634 C 0.33469 0.56908 0.32826 0.0
C635 C 0.33745 0.54925 0.34482 0.0
C636 C 0.32173 0.57652 0.36969 0.0
H637 H 0.38781 0.59072 0.41217 0.0
H638 H 0.3797 0.58202 0.39351 0.0
H639 H 0.31482 0.58663 0.38574 0.0
H640 H 0.32637 0.6008 0.3306 0.0
H641 H 0.32517 0.59875 0.35025 0.0
H642 H 0.36404 0.54941 0.36256 0.0
C643 C 0.36804 0.5801 0.39963 0.0
C644 C 0.32543 0.5781 0.38079 0.0
C645 C 0.37264 0.5852 0.41031 0.0
C646 C 0.32919 0.58622 0.33443 0.0
C647 C 0.3284 0.58502 0.3457 0.0
C648 C 0.35293 0.55717 0.36756 0.0
C649 C 0.34838 0.57345 0.39681 0.0
C650 C 0.34321 0.5697 0.38532 0.0
C651 C 0.33317 0.56668 0.35102 0.0
C652 C 0.33562 0.56634 0.36294 0.0
H653 H 0.32643 0.5749 0.42172 0.0
H654 H 0.31834 0.56619 0.40299 0.0
H655 H 0.37044 0.55212 0.38192 0.0
H656 H 0.34228 0.53688 0.32904 0.0
H657 H 0.3409 0.53485 0.3487 0.0
C658 C 0.65856 0.07443 0.66068 0.0
C659 C 0.66629 0.09136 0.66633 0.0
C660 C 0.661 0.07287 0.6495 0.0
C661 C 0.66812 0.10508 0.6256 0.0
H662 H 0.67724 0.05347 0.61105 0.0
C663 C 0.67232 0.09991 0.57923 0.0
C664 C 0.6615 0.08381 0.57438 0.0
C665 C 0.67556 0.10021 0.59038 0.0
C666 C 0.67456 0.06797 0.615 0.0
H667 H 0.68336 0.11953 0.6647 0.0
H668 H 0.68772 0.11673 0.64516 0.0
H669 H 0.67872 0.05509 0.63076 0.0
H670 H 0.64606 0.05512 0.57744 0.0
H671 H 0.65148 0.05579 0.59693 0.0
H672 H 0.66352 0.11791 0.60991 0.0
C673 C 0.67954 0.1048 0.64939 0.0
C674 C 0.67543 0.06891 0.62628 0.0
C675 C 0.67714 0.10634 0.66059 0.0
C676 C 0.65445 0.06775 0.58091 0.0
C677 C 0.65767 0.06807 0.59208 0.0
C678 C 0.66723 0.10414 0.61433 0.0
C679 C 0.6712 0.0882 0.6437 0.0
C680 C 0.67199 0.08743 0.63171 0.0
C681 C 0.66804 0.08445 0.59696 0.0
C682 C 0.67021 0.08554 0.6089 0.0
H683 H 0.65015 0.06257 0.66484 0.0
H684 H 0.6542 0.06 0.64536 0.0
H685 H 0.66506 0.11952 0.62953 0.0
H686 H 0.67811 0.11246 0.57442 0.0
H687 H 0.6839 0.11288 0.59385 0.0
C688 C 0.82577 0.43133 0.83895 0.0
C689 C 0.83371 0.41369 0.83406 0.0
C690 C 0.8241 0.43263 0.8502 0.0
C691 C 0.82572 0.40134 0.87536 0.0
H692 H 0.84184 0.45244 0.88861 0.0
C693 C 0.82734 0.41086 0.92166 0.0
C694 C 0.84404 0.42149 0.92601 0.0
C695 C 0.82359 0.41109 0.91055 0.0
C696 C 0.8374 0.43802 0.88505 0.0
H697 H 0.84564 0.38337 0.83714 0.0
H698 H 0.8432 0.38578 0.85668 0.0
H699 H 0.83981 0.44998 0.86903 0.0
H700 H 0.86973 0.44098 0.9221 0.0
H701 H 0.86355 0.44095 0.90271 0.0
H702 H 0.82436 0.38907 0.89133 0.0
C703 C 0.83787 0.39851 0.85187 0.0
C704 C 0.83594 0.43669 0.8738 0.0
C705 C 0.8394 0.39717 0.84064 0.0
C706 C 0.85668 0.43268 0.91902 0.0
C707 C 0.85304 0.43277 0.90789 0.0
C708 C 0.82734 0.40263 0.88659 0.0
C709 C 0.83046 0.41635 0.85681 0.0
C710 C 0.83035 0.41824 0.8688 0.0
C711 C 0.83656 0.42182 0.90349 0.0
C712 C 0.83346 0.42091 0.89158 0.0
H713 H 0.82113 0.44429 0.83411 0.0
H714 H 0.81799 0.44646 0.85372 0.0
H715 H 0.82107 0.38698 0.87181 0.0
H716 H 0.8172 0.40223 0.92684 0.0
H717 H 0.81054 0.40279 0.90748 0.0
C718 C 0.33337 0.06959 0.66357 0.0
C719 C 0.33877 0.08837 0.66824 0.0
C720 C 0.33207 0.06756 0.65235 0.0
C721 C 0.33033 0.09732 0.62668 0.0
H722 H 0.35478 0.04856 0.61459 0.0
C723 C 0.3366 0.08562 0.58061 0.0
C724 C 0.3551 0.07757 0.57677 0.0
C725 C 0.3321 0.0854 0.59165 0.0
C726 C 0.34799 0.06232 0.61782 0.0
H727 H 0.3463 0.11994 0.66479 0.0
H728 H 0.34448 0.11631 0.64528 0.0
H729 H 0.35113 0.05172 0.63407 0.0
H730 H 0.38324 0.06268 0.58151 0.0
H731 H 0.37566 0.06274 0.60075 0.0
H732 H 0.32818 0.10838 0.61047 0.0
C733 C 0.3409 0.10319 0.65025 0.0
C734 C 0.3456 0.06401 0.62901 0.0
C735 C 0.34206 0.10526 0.66147 0.0
C736 C 0.36882 0.06894 0.58419 0.0
C737 C 0.3644 0.06886 0.59523 0.0
C738 C 0.33284 0.09569 0.6155 0.0
C739 C 0.33625 0.08423 0.64554 0.0
C740 C 0.33702 0.08167 0.63359 0.0
C741 C 0.34606 0.07726 0.59912 0.0
C742 C 0.34198 0.07829 0.61094 0.0
H743 H 0.33058 0.05632 0.66857 0.0
H744 H 0.32808 0.05283 0.649 0.0
H745 H 0.32339 0.11101 0.62991 0.0
H746 H 0.32562 0.09224 0.57509 0.0
H747 H 0.31769 0.09168 0.59432 0.0
C748 C 0.64796 0.56741 0.4102 0.0
C749 C 0.65913 0.58064 0.4169 0.0
C750 C 0.65187 0.56664 0.39908 0.0
C751 C 0.67174 0.59889 0.37733 0.0
H752 H 0.6713 0.54907 0.36046 0.0
C753 C 0.68093 0.60165 0.33118 0.0
C754 C 0.66712 0.58958 0.32532 0.0
C755 C 0.68352 0.59864 0.34229 0.0
C756 C 0.67137 0.56313 0.36505 0.0
H757 H 0.68378 0.60277 0.41722 0.0
H758 H 0.69052 0.60138 0.39791 0.0
H759 H 0.66856 0.54725 0.38014 0.0
H760 H 0.64602 0.56413 0.32643 0.0
H761 H 0.65018 0.55922 0.34573 0.0
H762 H 0.6738 0.61487 0.36234 0.0
C763 C 0.67859 0.5918 0.40122 0.0
C764 C 0.6698 0.56207 0.37631 0.0
C765 C 0.67475 0.59253 0.4123 0.0
C766 C 0.65676 0.57377 0.3307 0.0
C767 C 0.65925 0.57084 0.34179 0.0
C768 C 0.67317 0.59997 0.36609 0.0
C769 C 0.66696 0.57914 0.39446 0.0
C770 C 0.66977 0.57996 0.38256 0.0
C771 C 0.67227 0.58356 0.34778 0.0
C772 C 0.67277 0.58213 0.35979 0.0
H773 H 0.63587 0.55803 0.41349 0.0
H774 H 0.64256 0.55683 0.39406 0.0
H775 H 0.67146 0.61298 0.3819 0.0
H776 H 0.68928 0.61385 0.32727 0.0
H777 H 0.69399 0.60845 0.34662 0.0
C778 C 0.17085 0.93359 0.16624 0.0
C779 C 0.16378 0.9152 0.17072 0.0
C780 C 0.17314 0.93563 0.15504 0.0
C781 C 0.17447 0.90564 0.12938 0.0
H782 H 0.15542 0.95623 0.11669 0.0
C783 C 0.16968 0.91523 0.08319 0.0
C784 C 0.15212 0.92495 0.07922 0.0
C785 C 0.17444 0.91597 0.09419 0.0
C786 C 0.1607 0.94195 0.12009 0.0
H787 H 0.1541 0.88435 0.16697 0.0
H788 H 0.15754 0.88803 0.14756 0.0
H789 H 0.1576 0.95311 0.13623 0.0
H790 H 0.12605 0.94351 0.08363 0.0
H791 H 0.13392 0.94425 0.10282 0.0
H792 H 0.17633 0.89402 0.1133 0.0
C793 C 0.16176 0.9008 0.15263 0.0
C794 C 0.16226 0.94027 0.13132 0.0
C795 C 0.15965 0.89872 0.1638 0.0
C796 C 0.13974 0.93591 0.08643 0.0
C797 C 0.14435 0.93645 0.09745 0.0
C798 C 0.1727 0.90725 0.11816 0.0
C799 C 0.16827 0.91936 0.14808 0.0
C800 C 0.16878 0.92194 0.13612 0.0
C801 C 0.16161 0.92624 0.10151 0.0
C802 C 0.16543 0.9253 0.11337 0.0
H803 H 0.1743 0.94654 0.17135 0.0
H804 H 0.17852 0.95003 0.15184 0.0
H805 H 0.17991 0.89142 0.13277 0.0
H806 H 0.17964 0.90682 0.07781 0.0
H807 H 0.18807 0.90827 0.09698 0.0
C808 C 0.82806 0.59491 0.08257 0.0
C809 C 0.84247 0.58131 0.07824 0.0
C810 C 0.82377 0.5949 0.09362 0.0
C811 C 0.82932 0.56446 0.11873 0.0
H812 H 0.82567 0.61732 0.13267 0.0
C813 C 0.83709 0.57545 0.16479 0.0
C814 C 0.82461 0.59003 0.16986 0.0
C815 C 0.83707 0.57338 0.15356 0.0
C816 C 0.82632 0.60244 0.12889 0.0
H817 H 0.86329 0.55665 0.08208 0.0
H818 H 0.85603 0.55683 0.10141 0.0
H819 H 0.82972 0.61542 0.11315 0.0
H820 H 0.80192 0.61353 0.1671 0.0
H821 H 0.80184 0.60986 0.14746 0.0
H822 H 0.82633 0.55153 0.13455 0.0
C823 C 0.84785 0.56734 0.09624 0.0
C824 C 0.82865 0.60133 0.11769 0.0
C825 C 0.8521 0.56731 0.08516 0.0
C826 C 0.81177 0.6022 0.16345 0.0
C827 C 0.81179 0.60018 0.1522 0.0
C828 C 0.82703 0.56557 0.12995 0.0
C829 C 0.83383 0.58132 0.10062 0.0
C830 C 0.83034 0.58234 0.11248 0.0
C831 C 0.8246 0.58588 0.14713 0.0
C832 C 0.82569 0.58458 0.13516 0.0
H833 H 0.82024 0.60579 0.07745 0.0
H834 H 0.81263 0.60562 0.0967 0.0
H835 H 0.83026 0.54959 0.11495 0.0
H836 H 0.84717 0.5658 0.16948 0.0
H837 H 0.84729 0.56239 0.1499 0.0
C838 C 0.15431 0.09614 0.83566 0.0
C839 C 0.15879 0.07921 0.82911 0.0
C840 C 0.1562 0.09488 0.84688 0.0
C841 C 0.15659 0.05693 0.86893 0.0
H842 H 0.1708 0.10419 0.88618 0.0
C843 C 0.13581 0.06314 0.91405 0.0
C844 C 0.14884 0.07398 0.92098 0.0
C845 C 0.13964 0.06248 0.90294 0.0
C846 C 0.16709 0.09071 0.88152 0.0
H847 H 0.16969 0.04798 0.82917 0.0
H848 H 0.17348 0.04593 0.84876 0.0
H849 H 0.1741 0.10573 0.86664 0.0
H850 H 0.1766 0.09191 0.92178 0.0
H851 H 0.1836 0.09028 0.90247 0.0
H852 H 0.14994 0.0418 0.88383 0.0
C853 C 0.16802 0.06003 0.84524 0.0
C854 C 0.16872 0.0917 0.87028 0.0
C855 C 0.16598 0.06125 0.834 0.0
C856 C 0.16615 0.08359 0.91663 0.0
C857 C 0.1701 0.08275 0.90554 0.0
C858 C 0.15513 0.05589 0.88019 0.0
C859 C 0.16279 0.07672 0.85183 0.0
C860 C 0.16309 0.07497 0.86382 0.0
C861 C 0.15672 0.07245 0.89853 0.0
C862 C 0.15999 0.07289 0.88662 0.0
H863 H 0.14868 0.1102 0.83217 0.0
H864 H 0.15174 0.10795 0.85167 0.0
H865 H 0.15195 0.0438 0.86424 0.0
H866 H 0.1223 0.05564 0.91714 0.0
H867 H 0.12882 0.05466 0.89779 0.0
C868 C 0.66725 0.40017 0.5863 0.0
C869 C 0.65662 0.41768 0.58292 0.0
C870 C 0.67166 0.39707 0.59721 0.0
C871 C 0.67444 0.42276 0.62385 0.0
H872 H 0.66244 0.3687 0.63489 0.0
C873 C 0.65928 0.40612 0.66883 0.0
C874 C 0.66532 0.38723 0.67317 0.0
C875 C 0.66205 0.41038 0.65788 0.0
C876 C 0.66627 0.38378 0.63193 0.0
H877 H 0.64288 0.44598 0.58833 0.0
H878 H 0.65038 0.44043 0.60742 0.0
H879 H 0.65998 0.37527 0.6156 0.0
H880 H 0.68003 0.35842 0.66949 0.0
H881 H 0.68506 0.36596 0.65035 0.0
H882 H 0.68029 0.43134 0.64026 0.0
C883 C 0.65548 0.4292 0.6016 0.0
C884 C 0.66482 0.38756 0.62086 0.0
C885 C 0.65107 0.43233 0.59067 0.0
C886 C 0.67509 0.37307 0.6664 0.0
C887 C 0.67786 0.37734 0.65541 0.0
C888 C 0.67592 0.41896 0.63494 0.0
C889 C 0.66554 0.41137 0.60501 0.0
C890 C 0.6686 0.40715 0.6167 0.0
C891 C 0.67096 0.39587 0.65099 0.0
C892 C 0.67154 0.39949 0.63913 0.0
H893 H 0.67191 0.38865 0.58053 0.0
H894 H 0.67972 0.38333 0.59955 0.0
H895 H 0.67774 0.43794 0.62087 0.0
H896 H 0.65176 0.41742 0.67382 0.0
H897 H 0.65636 0.42471 0.65474 0.0
C898 C 0.33566 0.89878 0.33709 0.0
C899 C 0.3369 0.91634 0.3306 0.0
C900 C 0.33299 0.90044 0.34825 0.0
C901 C 0.34186 0.93645 0.3706 0.0
H902 H 0.31243 0.89563 0.38704 0.0
C903 C 0.35734 0.92117 0.41571 0.0
C904 C 0.34123 0.91454 0.42232 0.0
C905 C 0.35429 0.92423 0.40465 0.0
C906 C 0.32046 0.90738 0.3826 0.0
H907 H 0.33531 0.94939 0.3307 0.0
H908 H 0.33028 0.95227 0.35017 0.0
H909 H 0.31037 0.89549 0.36743 0.0
H910 H 0.30901 0.90707 0.42262 0.0
H911 H 0.30361 0.91284 0.40338 0.0
H912 H 0.35184 0.94841 0.3858 0.0
C913 C 0.3318 0.93723 0.34665 0.0
C914 C 0.31949 0.90712 0.37133 0.0
C915 C 0.33455 0.93557 0.33547 0.0
C916 C 0.3218 0.91198 0.41773 0.0
C917 C 0.31872 0.91518 0.40668 0.0
C918 C 0.34274 0.93677 0.38189 0.0
C919 C 0.33138 0.91969 0.3532 0.0
C920 C 0.33053 0.92137 0.36518 0.0
C921 C 0.33504 0.92088 0.39996 0.0
C922 C 0.33239 0.92198 0.38803 0.0
H923 H 0.33744 0.88373 0.33361 0.0
H924 H 0.33301 0.88661 0.35304 0.0
H925 H 0.3507 0.94757 0.36614 0.0
H926 H 0.37251 0.92325 0.41899 0.0
H927 H 0.36728 0.92839 0.39971 0.0
C928 C 0.07422 0.58143 0.04767 0.0
C929 C 0.0844 0.58026 0.03768 0.0
C930 C 0.05317 0.57787 0.04827 0.0
C931 C 0.00847 0.58143 0.03051 0.0
H932 H 0.97892 0.55643 0.0542 0.0
C933 C 0.92229 0.57456 0.02822 0.0
C934 C 0.91134 0.58123 0.03731 0.0
C935 C 0.9431 0.57047 0.02895 0.0
C936 C 0.987 0.56352 0.04756 0.0
H937 H 0.08094 0.57263 0.02073 0.0
H938 H 0.04456 0.56591 0.02183 0.0
H939 H 0.01635 0.55631 0.05426 0.0
H940 H 0.91332 0.58749 0.05448 0.0
H941 H 0.94996 0.58072 0.05572 0.0
H942 H 0.97948 0.58904 0.02386 0.0
C943 C 0.05259 0.57026 0.02913 0.0
C944 C 0.0084 0.56346 0.04759 0.0
C945 C 0.07347 0.57401 0.02851 0.0
C946 C 0.92138 0.5824 0.04733 0.0
C947 C 0.94235 0.57848 0.04805 0.0
C948 C 0.98725 0.58148 0.03047 0.0
C949 C 0.04203 0.57292 0.03891 0.0
C950 C 0.01935 0.57235 0.03902 0.0
C951 C 0.95355 0.57319 0.03876 0.0
C952 C 0.97621 0.57245 0.03894 0.0
H953 H 0.08227 0.58619 0.05488 0.0
H954 H 0.0455 0.58007 0.05593 0.0
H955 H 0.01636 0.58897 0.02393 0.0
H956 H 0.91492 0.57319 0.02042 0.0
H957 H 0.95117 0.56588 0.02171 0.0
C958 C 0.63004 0.66956 0.27813 0.0
C959 C 0.63558 0.65679 0.28677 0.0
C960 C 0.63132 0.69068 0.27911 0.0
C961 C 0.65399 0.73319 0.29415 0.0
H962 H 0.60585 0.76177 0.28401 0.0
C963 C 0.6425 0.82128 0.29794 0.0
C964 C 0.6339 0.83094 0.28886 0.0
C965 C 0.6436 0.79995 0.29848 0.0
C966 C 0.61949 0.75407 0.2868 0.0
H967 H 0.64786 0.65625 0.30305 0.0
H968 H 0.65011 0.69349 0.30474 0.0
H969 H 0.60682 0.72474 0.28345 0.0
H970 H 0.62025 0.82572 0.27312 0.0
H971 H 0.62239 0.78882 0.27402 0.0
H972 H 0.66673 0.76276 0.29734 0.0
C973 C 0.64474 0.68696 0.29723 0.0
C974 C 0.62003 0.73284 0.28648 0.0
C975 C 0.64341 0.66568 0.29626 0.0
C976 C 0.62679 0.81884 0.28029 0.0
C977 C 0.62791 0.79763 0.28082 0.0
C978 C 0.65348 0.75458 0.29443 0.0
C979 C 0.63817 0.69965 0.28875 0.0
C980 C 0.63741 0.72216 0.28995 0.0
C981 C 0.63609 0.78789 0.28996 0.0
C982 C 0.63635 0.76524 0.29054 0.0
H983 H 0.6242 0.66328 0.27065 0.0
H984 H 0.62659 0.70005 0.27235 0.0
H985 H 0.66758 0.72534 0.29687 0.0
H986 H 0.64815 0.83016 0.30468 0.0
H987 H 0.64992 0.7929 0.30565 0.0
C988 C 0.41966 0.42145 0.55475 0.0
C989 C 0.41219 0.42163 0.54409 0.0
C990 C 0.43989 0.42698 0.5569 0.0
C991 C 0.48553 0.45191 0.54489 0.0
H992 H 0.51581 0.41097 0.56082 0.0
C993 C 0.56899 0.43339 0.53631 0.0
C994 C 0.58191 0.42687 0.54469 0.0
C995 C 0.54855 0.43782 0.53835 0.0
C996 C 0.50759 0.42285 0.55657 0.0
H997 H 0.41969 0.42892 0.52746 0.0
H998 H 0.45475 0.43851 0.53119 0.0
H999 H 0.47869 0.40982 0.56068 0.0
H1000 H 0.58372 0.42092 0.5619 0.0
H1001 H 0.54783 0.42864 0.56546 0.0
H1002 H 0.51447 0.4644 0.54039 0.0
C1003 C 0.44507 0.43417 0.5379 0.0
C1004 C 0.48629 0.42218 0.55649 0.0
C1005 C 0.42499 0.42849 0.53575 0.0
C1006 C 0.57414 0.42584 0.55527 0.0
C1007 C 0.55358 0.43017 0.5573 0.0
C1008 C 0.50681 0.4526 0.54499 0.0
C1009 C 0.45291 0.43303 0.54845 0.0
C1010 C 0.47506 0.43625 0.55031 0.0
C1011 C 0.54047 0.4358 0.54881 0.0
C1012 C 0.5181 0.43761 0.55049 0.0
H1013 H 0.41016 0.41626 0.56136 0.0
H1014 H 0.44547 0.42608 0.56512 0.0
H1015 H 0.47727 0.46318 0.54022 0.0
H1016 H 0.57448 0.43445 0.52807 0.0
H1017 H 0.53886 0.44186 0.53159 0.0
C1018 C 0.85448 0.32192 0.80037 0.0
C1019 C 0.8615 0.33263 0.79124 0.0
C1020 C 0.85449 0.30057 0.8005 0.0
C1021 C 0.8786 0.25616 0.78727 0.0
H1022 H 0.83256 0.22606 0.79878 0.0
C1023 C 0.86954 0.16995 0.78036 0.0
C1024 C 0.8628 0.15792 0.78906 0.0
C1025 C 0.86919 0.19121 0.78102 0.0
C1026 C 0.84564 0.23425 0.79565 0.0
H1027 H 0.87384 0.32922 0.77507 0.0
H1028 H 0.87371 0.29214 0.77528 0.0
H1029 H 0.83234 0.26333 0.79926 0.0
H1030 H 0.85021 0.15889 0.80527 0.0
H1031 H 0.84975 0.19609 0.80644 0.0
H1032 H 0.89189 0.22719 0.78363 0.0
C1033 C 0.86846 0.30021 0.7824 0.0
C1034 C 0.84551 0.25559 0.79593 0.0
C1035 C 0.86842 0.3215 0.78225 0.0
C1036 C 0.85551 0.16769 0.79842 0.0
C1037 C 0.85515 0.18901 0.79907 0.0
C1038 C 0.87873 0.23487 0.787 0.0
C1039 C 0.86158 0.28947 0.79153 0.0
C1040 C 0.86192 0.26679 0.79165 0.0
C1041 C 0.86211 0.201 0.7904 0.0
C1042 C 0.86218 0.22365 0.79109 0.0
H1043 H 0.84904 0.33001 0.80743 0.0
H1044 H 0.84926 0.29275 0.8077 0.0
H1045 H 0.89167 0.26431 0.7841 0.0
H1046 H 0.87515 0.16297 0.77301 0.0
H1047 H 0.87434 0.19998 0.77412 0.0
C1048 C 0.91998 0.4272 0.97733 0.0
C1049 C 0.90872 0.42145 0.96817 0.0
C1050 C 0.94096 0.43038 0.97662 0.0
C1051 C 0.98485 0.43681 0.95796 0.0
H1052 H 0.01383 0.40941 0.9811 0.0
C1053 C 0.0715 0.41675 0.95698 0.0
C1054 C 0.08201 0.41714 0.96689 0.0
C1055 C 0.05051 0.42075 0.95662 0.0
C1056 C 0.00606 0.41748 0.97466 0.0
H1057 H 0.91044 0.41584 0.95092 0.0
H1058 H 0.94731 0.42107 0.94973 0.0
H1059 H 0.97694 0.41046 0.98137 0.0
H1060 H 0.07916 0.42371 0.984 0.0
H1061 H 0.0429 0.43116 0.98333 0.0
H1062 H 0.01427 0.44347 0.9512 0.0
C1063 C 0.93983 0.42327 0.95744 0.0
C1064 C 0.98484 0.41808 0.97482 0.0
C1065 C 0.91872 0.42021 0.95813 0.0
C1066 C 0.07144 0.42294 0.97627 0.0
C1067 C 0.05061 0.42711 0.97589 0.0
C1068 C 0.00623 0.43623 0.95782 0.0
C1069 C 0.95126 0.42772 0.96677 0.0
C1070 C 0.97394 0.42779 0.96651 0.0
C1071 C 0.03973 0.42534 0.96615 0.0
C1072 C 0.01707 0.4266 0.9662 0.0
H1073 H 0.9127 0.4286 0.98515 0.0
H1074 H 0.94924 0.43432 0.98391 0.0
H1075 H 0.97688 0.44445 0.95145 0.0
H1076 H 0.07925 0.41235 0.94961 0.0
H1077 H 0.04259 0.41921 0.94899 0.0
C1078 C 0.84974 0.81608 0.20074 0.0
C1079 C 0.85638 0.82584 0.21023 0.0
C1080 C 0.84787 0.7948 0.20037 0.0
C1081 C 0.86584 0.74825 0.21442 0.0
H1082 H 0.81992 0.72198 0.20041 0.0
C1083 C 0.84743 0.66412 0.22174 0.0
C1084 C 0.84323 0.6519 0.21267 0.0
C1085 C 0.84837 0.68529 0.2208 0.0
C1086 C 0.83293 0.72912 0.20425 0.0
H1087 H 0.8658 0.82089 0.22684 0.0
H1088 H 0.86222 0.78407 0.22625 0.0
H1089 H 0.82302 0.7592 0.19991 0.0
H1090 H 0.83602 0.65248 0.19556 0.0
H1091 H 0.8376 0.68969 0.19395 0.0
H1092 H 0.8756 0.71832 0.21892 0.0
C1093 C 0.85889 0.79272 0.219 0.0
C1094 C 0.83473 0.75041 0.20395 0.0
C1095 C 0.86083 0.8139 0.21936 0.0
C1096 C 0.83934 0.66145 0.2027 0.0
C1097 C 0.84017 0.68274 0.20178 0.0
C1098 C 0.86398 0.72707 0.21477 0.0
C1099 C 0.85256 0.78287 0.20949 0.0
C1100 C 0.85107 0.76023 0.20918 0.0
C1101 C 0.84506 0.69483 0.21079 0.0
C1102 C 0.84737 0.71728 0.20983 0.0
H1103 H 0.84619 0.82483 0.19356 0.0
H1104 H 0.84309 0.78768 0.19289 0.0
H1105 H 0.8789 0.75524 0.21829 0.0
H1106 H 0.85038 0.65734 0.22956 0.0
H1107 H 0.85181 0.69423 0.22794 0.0
C1108 C 0.43148 0.61083 0.46945 0.0
C1109 C 0.41911 0.60431 0.46084 0.0
C1110 C 0.45268 0.61023 0.46861 0.0
C1111 C 0.49557 0.58721 0.45359 0.0
H1112 H 0.52498 0.63354 0.46528 0.0
C1113 C 0.58374 0.59833 0.44987 0.0
C1114 C 0.59362 0.60535 0.45925 0.0
C1115 C 0.56239 0.59741 0.4494 0.0
C1116 C 0.51702 0.62041 0.46205 0.0
H1117 H 0.41943 0.59159 0.44466 0.0
H1118 H 0.45663 0.59071 0.44317 0.0
H1119 H 0.48793 0.6334 0.46561 0.0
H1120 H 0.58873 0.61632 0.47561 0.0
H1121 H 0.55181 0.61463 0.47479 0.0
H1122 H 0.5249 0.57428 0.45005 0.0
C1123 C 0.44982 0.59616 0.4506 0.0
C1124 C 0.49576 0.62031 0.46225 0.0
C1125 C 0.42851 0.59673 0.45144 0.0
C1126 C 0.5817 0.61098 0.46821 0.0
C1127 C 0.56047 0.61013 0.46773 0.0
C1128 C 0.51695 0.58734 0.45336 0.0
C1129 C 0.46214 0.60317 0.45913 0.0
C1130 C 0.48476 0.60358 0.4582 0.0
C1131 C 0.55054 0.6036 0.45829 0.0
C1132 C 0.52789 0.6038 0.45778 0.0
H1133 H 0.4248 0.61658 0.47685 0.0
H1134 H 0.46168 0.61533 0.47543 0.0
H1135 H 0.48755 0.57405 0.45045 0.0
H1136 H 0.59246 0.59384 0.44283 0.0
H1137 H 0.55516 0.59236 0.442 0.0
C1138 C 0.641 0.15851 0.69923 0.0
C1139 C 0.6332 0.14819 0.7083 0.0
C1140 C 0.64201 0.17985 0.69908 0.0
C1141 C 0.64194 0.22456 0.71737 0.0
H1142 H 0.62511 0.2548 0.69195 0.0
C1143 C 0.62138 0.30937 0.71936 0.0
C1144 C 0.62848 0.32235 0.71113 0.0
C1145 C 0.62352 0.28827 0.71848 0.0
C1146 C 0.63012 0.24656 0.69906 0.0
H1147 H 0.62023 0.15227 0.7243 0.0
H1148 H 0.62178 0.18927 0.72397 0.0
H1149 H 0.62607 0.21751 0.6914 0.0
H1150 H 0.64324 0.32322 0.69545 0.0
H1151 H 0.6469 0.28616 0.6939 0.0
H1152 H 0.64561 0.2535 0.7251 0.0
C1153 C 0.62743 0.18093 0.71704 0.0
C1154 C 0.63068 0.22521 0.69874 0.0
C1155 C 0.62641 0.15967 0.71719 0.0
C1156 C 0.6376 0.31366 0.70193 0.0
C1157 C 0.63964 0.29245 0.70102 0.0
C1158 C 0.64132 0.24583 0.71769 0.0
C1159 C 0.6353 0.1913 0.70801 0.0
C1160 C 0.63624 0.21396 0.70797 0.0
C1161 C 0.63276 0.27956 0.70934 0.0
C1162 C 0.63504 0.25706 0.70861 0.0
H1163 H 0.64639 0.15013 0.69225 0.0
H1164 H 0.64829 0.18737 0.69203 0.0
H1165 H 0.64675 0.21639 0.72454 0.0
H1166 H 0.61423 0.31548 0.72655 0.0
H1167 H 0.61775 0.27874 0.72495 0.0
C1168 C 0.35766 0.33666 0.70203 0.0
C1169 C 0.36544 0.34666 0.7112 0.0
C1170 C 0.35768 0.31533 0.70142 0.0
C1171 C 0.38304 0.27006 0.71313 0.0
H1172 H 0.33625 0.24057 0.70205 0.0
C1173 C 0.37446 0.18338 0.71862 0.0
C1174 C 0.36699 0.17195 0.70987 0.0
C1175 C 0.37422 0.20467 0.71834 0.0
C1176 C 0.34953 0.24859 0.70504 0.0
H1177 H 0.37906 0.34199 0.727 0.0
H1178 H 0.37891 0.30498 0.72598 0.0
H1179 H 0.33585 0.27784 0.70233 0.0
H1180 H 0.35329 0.17403 0.69394 0.0
H1181 H 0.35301 0.21126 0.69342 0.0
H1182 H 0.39671 0.24091 0.7159 0.0
C1183 C 0.37309 0.31358 0.71917 0.0
C1184 C 0.3493 0.26994 0.7052 0.0
C1185 C 0.37305 0.33484 0.71978 0.0
C1186 C 0.35916 0.18235 0.70083 0.0
C1187 C 0.35889 0.20369 0.70055 0.0
C1188 C 0.38327 0.24877 0.71297 0.0
C1189 C 0.36553 0.30356 0.70997 0.0
C1190 C 0.36598 0.28091 0.70935 0.0
C1191 C 0.36649 0.21509 0.70929 0.0
C1192 C 0.36645 0.23777 0.70903 0.0
H1193 H 0.35168 0.3453 0.69527 0.0
H1194 H 0.35189 0.30808 0.69419 0.0
H1195 H 0.39631 0.27805 0.71617 0.0
H1196 H 0.38052 0.17589 0.72574 0.0
H1197 H 0.3799 0.21298 0.72528 0.0
C1198 C 0.14906 0.66391 0.20258 0.0
C1199 C 0.14478 0.6551 0.21269 0.0
C1200 C 0.15155 0.68505 0.20158 0.0
C1201 C 0.16137 0.73177 0.21779 0.0
H1202 H 0.13332 0.7597 0.1945 0.0
C1203 C 0.13945 0.81631 0.22016 0.0
C1204 C 0.14209 0.82859 0.21096 0.0
C1205 C 0.14245 0.79527 0.21962 0.0
C1206 C 0.1415 0.75211 0.20095 0.0
H1207 H 0.14009 0.66165 0.22972 0.0
H1208 H 0.14416 0.69825 0.22796 0.0
H1209 H 0.13405 0.72244 0.19486 0.0
H1210 H 0.15 0.82832 0.19393 0.0
H1211 H 0.15506 0.79136 0.19297 0.0
H1212 H 0.16824 0.7614 0.22406 0.0
C1213 C 0.1459 0.6889 0.2208 0.0
C1214 C 0.14195 0.73076 0.20116 0.0
C1215 C 0.1434 0.66786 0.22179 0.0
C1216 C 0.14785 0.81929 0.20117 0.0
C1217 C 0.15067 0.79814 0.20061 0.0
C1218 C 0.16083 0.75305 0.21761 0.0
C1219 C 0.1499 0.69779 0.21069 0.0
C1220 C 0.15148 0.72035 0.20972 0.0
C1221 C 0.14803 0.78593 0.20984 0.0
C1222 C 0.1505 0.76345 0.20933 0.0
H1223 H 0.15027 0.65451 0.19541 0.0
H1224 H 0.15478 0.69142 0.19369 0.0
H1225 H 0.16924 0.72424 0.22437 0.0
H1226 H 0.13504 0.82295 0.22783 0.0
H1227 H 0.14002 0.78623 0.22684 0.0
C1228 C 0.13593 0.17076 0.79611 0.0
C1229 C 0.12886 0.16033 0.78692 0.0
C1230 C 0.13639 0.19208 0.79633 0.0
C1231 C 0.1141 0.23751 0.78315 0.0
H1232 H 0.16043 0.26555 0.79574 0.0
C1233 C 0.12537 0.32435 0.77882 0.0
C1234 C 0.13196 0.33511 0.78801 0.0
C1235 C 0.12521 0.30303 0.77876 0.0
C1236 C 0.14728 0.25795 0.7923 0.0
H1237 H 0.11681 0.16422 0.77071 0.0
H1238 H 0.11781 0.20134 0.77107 0.0
H1239 H 0.15965 0.22834 0.79552 0.0
H1240 H 0.14371 0.33184 0.80431 0.0
H1241 H 0.14329 0.29464 0.80421 0.0
H1242 H 0.10174 0.26709 0.77992 0.0
C1243 C 0.12274 0.19304 0.77817 0.0
C1244 C 0.14683 0.23662 0.79218 0.0
C1245 C 0.12226 0.17173 0.77795 0.0
C1246 C 0.13855 0.32404 0.7971 0.0
C1247 C 0.13842 0.30271 0.79702 0.0
C1248 C 0.11456 0.25881 0.78327 0.0
C1249 C 0.1298 0.20347 0.78736 0.0
C1250 C 0.13025 0.22615 0.78758 0.0
C1251 C 0.13166 0.29196 0.78786 0.0
C1252 C 0.13117 0.26929 0.78782 0.0
H1253 H 0.14108 0.16246 0.80318 0.0
H1254 H 0.14168 0.19964 0.80359 0.0
H1255 H 0.10093 0.22993 0.77972 0.0
H1256 H 0.12026 0.33236 0.77166 0.0
H1257 H 0.12019 0.29522 0.77152 0.0
C1258 C 0.37326 0.66792 0.28117 0.0
C1259 C 0.36361 0.65595 0.28909 0.0
C1260 C 0.37333 0.68916 0.28196 0.0
C1261 C 0.34693 0.73275 0.29461 0.0
H1262 H 0.39672 0.76138 0.28713 0.0
C1263 C 0.35645 0.82054 0.29916 0.0
C1264 C 0.36618 0.83056 0.29053 0.0
C1265 C 0.35599 0.7992 0.29964 0.0
C1266 C 0.38264 0.75364 0.28916 0.0
H1267 H 0.34623 0.65702 0.304 0.0
H1268 H 0.34647 0.69421 0.30539 0.0
H1269 H 0.39606 0.72426 0.28677 0.0
H1270 H 0.38295 0.82593 0.2756 0.0
H1271 H 0.38203 0.78891 0.27641 0.0
H1272 H 0.33352 0.76225 0.29694 0.0
C1273 C 0.35386 0.68709 0.29853 0.0
C1274 C 0.38226 0.73235 0.28895 0.0
C1275 C 0.3538 0.66578 0.29776 0.0
C1276 C 0.37538 0.81876 0.28239 0.0
C1277 C 0.37497 0.7975 0.28289 0.0
C1278 C 0.34732 0.7541 0.29483 0.0
C1279 C 0.36377 0.69902 0.29068 0.0
C1280 C 0.36433 0.72164 0.29152 0.0
C1281 C 0.36534 0.78745 0.29152 0.0
C1282 C 0.36512 0.76478 0.29196 0.0
H1283 H 0.38087 0.66091 0.27435 0.0
H1284 H 0.38078 0.69789 0.27566 0.0
H1285 H 0.33284 0.72497 0.29655 0.0
H1286 H 0.3492 0.82917 0.30556 0.0
H1287 H 0.34857 0.7919 0.30643 0.0
C1288 C 0.42948 0.08018 0.54387 0.0
C1289 C 0.41921 0.07867 0.53392 0.0
C1290 C 0.45066 0.07751 0.54437 0.0
C1291 C 0.49503 0.08308 0.52653 0.0
H1292 H 0.52559 0.0582 0.5499 0.0
C1293 C 0.58147 0.07775 0.52392 0.0
C1294 C 0.59251 0.08398 0.53306 0.0
C1295 C 0.56065 0.07373 0.52464 0.0
C1296 C 0.51723 0.06529 0.54335 0.0
H1297 H 0.42277 0.07144 0.51692 0.0
H1298 H 0.45942 0.06634 0.51785 0.0
H1299 H 0.48821 0.05698 0.55009 0.0
H1300 H 0.5906 0.08971 0.5503 0.0
H1301 H 0.55396 0.08303 0.55152 0.0
H1302 H 0.52371 0.09174 0.51985 0.0
C1303 C 0.45131 0.07023 0.5252 0.0
C1304 C 0.49585 0.06459 0.54346 0.0
C1305 C 0.43028 0.07306 0.52467 0.0
C1306 C 0.58248 0.08498 0.5431 0.0
C1307 C 0.56151 0.08109 0.5438 0.0
C1308 C 0.51624 0.08377 0.52642 0.0
C1309 C 0.46187 0.07316 0.53496 0.0
C1310 C 0.48454 0.07339 0.535 0.0
C1311 C 0.55027 0.07603 0.5345 0.0
C1312 C 0.52764 0.0748 0.53478 0.0
H1313 H 0.42134 0.08447 0.55114 0.0
H1314 H 0.45835 0.0799 0.55201 0.0
H1315 H 0.48682 0.09054 0.52004 0.0
H1316 H 0.5888 0.07651 0.5161 0.0
H1317 H 0.55254 0.06935 0.51738 0.0
C1318 C 0.92066 0.93066 0.04957 0.0
C1319 C 0.91321 0.92861 0.03897 0.0
C1320 C 0.94106 0.93593 0.0514 0.0
C1321 C 0.98799 0.95539 0.03786 0.0
H1322 H 0.01595 0.91737 0.05674 0.0
C1323 C 0.0702 0.92977 0.03101 0.0
C1324 C 0.08278 0.925 0.03985 0.0
C1325 C 0.05006 0.93589 0.03261 0.0
C1326 C 0.00841 0.92846 0.05163 0.0
H1327 H 0.92096 0.93187 0.02201 0.0
H1328 H 0.95632 0.94095 0.02518 0.0
H1329 H 0.97885 0.91827 0.05656 0.0
H1330 H 0.08436 0.92393 0.05735 0.0
H1331 H 0.04897 0.93456 0.06015 0.0
H1332 H 0.01759 0.96486 0.03256 0.0
C1333 C 0.9465 0.93857 0.0321 0.0
C1334 C 0.98709 0.92898 0.05153 0.0
C1335 C 0.92622 0.93319 0.03028 0.0
C1336 C 0.07503 0.92744 0.05037 0.0
C1337 C 0.05475 0.93343 0.05197 0.0
C1338 C 0.00928 0.95486 0.03796 0.0
C1339 C 0.95433 0.93946 0.04267 0.0
C1340 C 0.97665 0.94192 0.04435 0.0
C1341 C 0.04193 0.93732 0.0431 0.0
C1342 C 0.01972 0.94085 0.04455 0.0
H1343 H 0.911 0.92729 0.05645 0.0
H1344 H 0.94661 0.93669 0.05964 0.0
H1345 H 0.98038 0.96581 0.03239 0.0
H1346 H 0.0757 0.92815 0.0228 0.0
H1347 H 0.04056 0.93852 0.02559 0.0
C1348 C 0.41246 0.87643 0.47226 0.0
C1349 C 0.40034 0.88293 0.46355 0.0
C1350 C 0.43367 0.87788 0.47177 0.0
C1351 C 0.47632 0.90347 0.45776 0.0
H1352 H 0.50713 0.85772 0.46908 0.0
C1353 C 0.5648 0.89614 0.45451 0.0
C1354 C 0.57483 0.88872 0.46377 0.0
C1355 C 0.54345 0.89629 0.45398 0.0
C1356 C 0.49877 0.87071 0.46597 0.0
H1357 H 0.40109 0.89644 0.44754 0.0
H1358 H 0.43827 0.89881 0.44667 0.0
H1359 H 0.47009 0.85638 0.46902 0.0
H1360 H 0.5702 0.87625 0.47984 0.0
H1361 H 0.53323 0.87668 0.47893 0.0
H1362 H 0.50521 0.91777 0.45474 0.0
C1363 C 0.43126 0.89273 0.45391 0.0
C1364 C 0.47752 0.86995 0.46594 0.0
C1365 C 0.40997 0.89129 0.4544 0.0
C1366 C 0.56304 0.88192 0.47255 0.0
C1367 C 0.5418 0.88205 0.47201 0.0
C1368 C 0.49768 0.90422 0.45778 0.0
C1369 C 0.44336 0.88581 0.46255 0.0
C1370 C 0.46601 0.88642 0.46199 0.0
C1371 C 0.53174 0.88896 0.46268 0.0
C1372 C 0.50912 0.88796 0.46204 0.0
H1373 H 0.4056 0.87007 0.47947 0.0
H1374 H 0.44249 0.87279 0.47866 0.0
H1375 H 0.46789 0.91646 0.45471 0.0
H1376 H 0.57342 0.90149 0.4476 0.0
H1377 H 0.53614 0.90164 0.44666 0.0
C1378 C 0.07316 0.07929 0.95271 0.0
C1379 C 0.0833 0.07753 0.96268 0.0
C1380 C 0.05203 0.07628 0.95207 0.0
C1381 C 0.00722 0.07994 0.96983 0.0
H1382 H 0.97751 0.0561 0.94587 0.0
C1383 C 0.92102 0.07223 0.97213 0.0
C1384 C 0.90988 0.07926 0.96317 0.0
C1385 C 0.9419 0.06863 0.97131 0.0
C1386 C 0.98564 0.06288 0.95258 0.0
H1387 H 0.0796 0.06953 0.97957 0.0
H1388 H 0.04307 0.06377 0.97841 0.0
H1389 H 0.01493 0.05568 0.94581 0.0
H1390 H 0.9117 0.08676 0.94613 0.0
H1391 H 0.94848 0.08076 0.94474 0.0
H1392 H 0.97825 0.08743 0.97657 0.0
C1393 C 0.05121 0.06814 0.97115 0.0
C1394 C 0.00703 0.06265 0.95255 0.0
C1395 C 0.07218 0.07135 0.97181 0.0
C1396 C 0.91989 0.08138 0.95318 0.0
C1397 C 0.94093 0.0779 0.95238 0.0
C1398 C 0.986 0.08013 0.96987 0.0
C1399 C 0.04074 0.07131 0.96138 0.0
C1400 C 0.01805 0.07108 0.96123 0.0
C1401 C 0.95226 0.07214 0.96155 0.0
C1402 C 0.97491 0.07151 0.9613 0.0
H1403 H 0.08133 0.08402 0.94553 0.0
H1404 H 0.04443 0.07886 0.94443 0.0
H1405 H 0.01516 0.08713 0.9765 0.0
H1406 H 0.91371 0.07011 0.9799 0.0
H1407 H 0.95008 0.0637 0.97845 0.0
C1408 C 0.19077 0.44757 0.97491 0.0
C1409 C 0.18766 0.42843 0.97972 0.0
C1410 C 0.20171 0.46267 0.98041 0.0
C1411 C 0.22535 0.49342 0.9939 0.0
H1412 H 0.20003 0.49454 0.0222 0.0
C1413 C 0.197 0.55105 0.03051 0.0
C1414 C 0.1886 0.56587 0.02362 0.0
C1415 C 0.20784 0.53454 0.02622 0.0
C1416 C 0.20791 0.49445 0.01451 0.0
H1417 H 0.19586 0.40905 0.99323 0.0
H1418 H 0.21535 0.43517 0.00267 0.0
H1419 H 0.19978 0.46341 0.01189 0.0
H1420 H 0.1871 0.5763 0.00698 0.0
H1421 H 0.20512 0.54747 0.99953 0.0
H1422 H 0.23245 0.52496 0.99638 0.0
C1423 C 0.20883 0.43881 0.99486 0.0
C1424 C 0.20772 0.47644 0.00853 0.0
C1425 C 0.19769 0.42385 0.98945 0.0
C1426 C 0.19304 0.56496 0.01252 0.0
C1427 C 0.20369 0.54844 0.00823 0.0
C1428 C 0.22568 0.51147 0.99994 0.0
C1429 C 0.20986 0.45875 0.99074 0.0
C1430 C 0.21545 0.476 0.99794 0.0
C1431 C 0.2103 0.53247 0.01496 0.0
C1432 C 0.21588 0.51249 0.01006 0.0
H1433 H 0.18326 0.45148 0.96739 0.0
H1434 H 0.20215 0.47788 0.977 0.0
H1435 H 0.23178 0.49343 0.98584 0.0
H1436 H 0.19415 0.5515 0.03913 0.0
H1437 H 0.21318 0.52276 0.03166 0.0
C1438 C 0.81449 0.92562 0.23549 0.0
C1439 C 0.81522 0.92204 0.2243 0.0
C1440 C 0.797 0.93359 0.24027 0.0
C1441 C 0.75934 0.95387 0.2491 0.0
H1442 H 0.7113 0.92531 0.23895 0.0
C1443 C 0.67034 0.93358 0.26124 0.0
C1444 C 0.67364 0.92629 0.27178 0.0
C1445 C 0.68656 0.94072 0.25502 0.0
C1446 C 0.7244 0.93385 0.24178 0.0
H1447 H 0.79878 0.92568 0.20922 0.0
H1448 H 0.76819 0.93993 0.21758 0.0
H1449 H 0.74217 0.92441 0.22826 0.0
H1450 H 0.69623 0.92237 0.2844 0.0
H1451 H 0.72473 0.93449 0.27345 0.0
H1452 H 0.74167 0.96214 0.26301 0.0
C1453 C 0.78105 0.93611 0.22268 0.0
C1454 C 0.74216 0.93337 0.23561 0.0
C1455 C 0.79859 0.928 0.21788 0.0
C1456 C 0.69324 0.92779 0.27629 0.0
C1457 C 0.70954 0.93485 0.27002 0.0
C1458 C 0.74156 0.95422 0.25533 0.0
C1459 C 0.77981 0.93832 0.23398 0.0
C1460 C 0.76006 0.94275 0.23937 0.0
C1461 C 0.70646 0.94062 0.25919 0.0
C1462 C 0.72411 0.94364 0.25188 0.0
H1463 H 0.8271 0.92138 0.24068 0.0
H1464 H 0.79657 0.93483 0.249 0.0
H1465 H 0.77278 0.96159 0.25212 0.0
H1466 H 0.65532 0.93298 0.2576 0.0
H1467 H 0.68367 0.94543 0.24677 0.0
C1468 C 0.3078 0.45058 0.5302 0.0
C1469 C 0.30993 0.43108 0.5257 0.0
C1470 C 0.29868 0.4662 0.52421 0.0
C1471 C 0.28046 0.49839 0.50945 0.0
H1472 H 0.3075 0.49417 0.48167 0.0
C1473 C 0.312 0.55036 0.47109 0.0
C1474 C 0.32095 0.56594 0.47728 0.0
C1475 C 0.30164 0.53433 0.47615 0.0
C1476 C 0.29928 0.49559 0.48922 0.0
H1477 H 0.30157 0.41163 0.51226 0.0
H1478 H 0.28485 0.43861 0.50201 0.0
H1479 H 0.30369 0.46415 0.49272 0.0
H1480 H 0.32493 0.57758 0.49357 0.0
H1481 H 0.30757 0.5495 0.50234 0.0
H1482 H 0.27725 0.53029 0.50609 0.0
C1483 C 0.29092 0.44216 0.50993 0.0
C1484 C 0.29705 0.47825 0.49561 0.0
C1485 C 0.30038 0.4267 0.51582 0.0
C1486 C 0.31837 0.56574 0.48855 0.0
C1487 C 0.30814 0.54972 0.49359 0.0
C1488 C 0.28267 0.5158 0.50301 0.0
C1489 C 0.29134 0.46239 0.5137 0.0
C1490 C 0.28848 0.47959 0.50602 0.0
C1491 C 0.30013 0.53352 0.48749 0.0
C1492 C 0.293 0.51474 0.49306 0.0
H1493 H 0.31506 0.45431 0.53782 0.0
H1494 H 0.29929 0.48158 0.52738 0.0
H1495 H 0.27347 0.49986 0.51734 0.0
H1496 H 0.31347 0.55022 0.46237 0.0
H1497 H 0.29539 0.52223 0.4712 0.0
C1498 C 0.79733 0.06855 0.77732 0.0
C1499 C 0.8172 0.06362 0.77411 0.0
C1500 C 0.78065 0.06119 0.77148 0.0
C1501 C 0.76893 0.0419 0.74396 0.0
H1502 H 0.71438 0.04094 0.75588 0.0
C1503 C 0.67779 0.04189 0.73081 0.0
C1504 C 0.67958 0.05497 0.72189 0.0
C1505 C 0.69509 0.03585 0.73655 0.0
C1506 C 0.72947 0.0406 0.75235 0.0
H1507 H 0.83539 0.04575 0.763 0.0
H1508 H 0.80635 0.0318 0.75322 0.0
H1509 H 0.74332 0.04195 0.76794 0.0
H1510 H 0.70074 0.07113 0.71156 0.0
H1511 H 0.73079 0.06167 0.72184 0.0
H1512 H 0.75511 0.03981 0.72839 0.0
C1513 C 0.80348 0.04216 0.75986 0.0
C1514 C 0.74617 0.04161 0.75933 0.0
C1515 C 0.82015 0.04999 0.76551 0.0
C1516 C 0.699 0.06093 0.71838 0.0
C1517 C 0.71626 0.05535 0.72429 0.0
C1518 C 0.75226 0.04036 0.737 0.0
C1519 C 0.78352 0.04833 0.76247 0.0
C1520 C 0.76609 0.04321 0.75522 0.0
C1521 C 0.71448 0.04329 0.73369 0.0
C1522 C 0.73225 0.04063 0.74107 0.0
H1523 H 0.79471 0.07914 0.7839 0.0
H1524 H 0.76564 0.0666 0.7737 0.0
H1525 H 0.78395 0.04317 0.7404 0.0
H1526 H 0.66293 0.03689 0.73358 0.0
H1527 H 0.6931 0.02601 0.7435 0.0
C1528 C 0.80213 0.57087 0.01152 0.0
C1529 C 0.80621 0.57195 0.02266 0.0
C1530 C 0.79021 0.55516 0.00734 0.0
C1531 C 0.76569 0.51969 0.99926 0.0
H1532 H 0.78783 0.47062 0.01213 0.0
C1533 C 0.79132 0.431 0.99002 0.0
C1534 C 0.8023 0.43522 0.98054 0.0
C1535 C 0.77984 0.44622 0.99501 0.0
C1536 C 0.78087 0.48395 0.0085 0.0
H1537 H 0.79874 0.559 0.03829 0.0
H1538 H 0.77751 0.53169 0.031 0.0
H1539 H 0.78877 0.50201 0.02213 0.0
H1540 H 0.80808 0.45781 0.96815 0.0
H1541 H 0.78874 0.48471 0.97706 0.0
H1542 H 0.75945 0.50158 0.98521 0.0
C1543 C 0.78409 0.54265 0.02546 0.0
C1544 C 0.78139 0.50213 0.01431 0.0
C1545 C 0.79622 0.55833 0.02965 0.0
C1546 C 0.79982 0.45421 0.97549 0.0
C1547 C 0.7886 0.4696 0.98058 0.0
C1548 C 0.7653 0.50144 0.9934 0.0
C1549 C 0.78192 0.5402 0.0142 0.0
C1550 C 0.77497 0.52048 0.00952 0.0
C1551 C 0.77952 0.46608 0.99074 0.0
C1552 C 0.77396 0.48363 0.99774 0.0
H1553 H 0.80929 0.58133 0.00591 0.0
H1554 H 0.78904 0.55384 0.99864 0.0
H1555 H 0.76006 0.53345 0.99544 0.0
H1556 H 0.79268 0.4163 0.99396 0.0
H1557 H 0.77257 0.44287 0.00267 0.0
C1558 C 0.17773 0.05556 0.76516 0.0
C1559 C 0.17911 0.0686 0.77412 0.0
C1560 C 0.19525 0.04973 0.75955 0.0
C1561 C 0.23012 0.05494 0.74409 0.0
H1562 H 0.28417 0.05748 0.75659 0.0
C1563 C 0.29881 0.0834 0.71994 0.0
C1564 C 0.31857 0.07829 0.72327 0.0
C1565 C 0.28194 0.076 0.7256 0.0
C1566 C 0.26928 0.05622 0.75288 0.0
H1567 H 0.1998 0.08488 0.78466 0.0
H1568 H 0.23025 0.07578 0.77462 0.0
H1569 H 0.25491 0.0539 0.76831 0.0
H1570 H 0.33634 0.06006 0.73442 0.0
H1571 H 0.30695 0.0461 0.7439 0.0
H1572 H 0.24452 0.05657 0.72865 0.0
C1573 C 0.21586 0.06936 0.77203 0.0
C1574 C 0.25237 0.05455 0.75967 0.0
C1575 C 0.19836 0.07473 0.77779 0.0
C1576 C 0.3212 0.06447 0.73182 0.0
C1577 C 0.30434 0.05662 0.73729 0.0
C1578 C 0.24705 0.0561 0.73729 0.0
C1579 C 0.21447 0.05732 0.76261 0.0
C1580 C 0.23251 0.05482 0.7554 0.0
C1581 C 0.28449 0.06292 0.73455 0.0
C1582 C 0.26682 0.05768 0.7416 0.0
H1583 H 0.16301 0.05039 0.76227 0.0
H1584 H 0.19359 0.03992 0.75258 0.0
H1585 H 0.21515 0.05529 0.74042 0.0
H1586 H 0.29644 0.09412 0.71339 0.0
H1587 H 0.26701 0.08151 0.72329 0.0
C1588 C 0.69908 0.43578 0.52001 0.0
C1589 C 0.68518 0.44143 0.52807 0.0
C1590 C 0.71014 0.45064 0.51444 0.0
C1591 C 0.71584 0.50777 0.51172 0.0
H1592 H 0.71419 0.49421 0.48126 0.0
C1593 C 0.70693 0.57167 0.48103 0.0
C1594 C 0.69243 0.56772 0.47297 0.0
C1595 C 0.71562 0.55565 0.48687 0.0
C1596 C 0.71463 0.49836 0.48972 0.0
H1597 H 0.6728 0.46658 0.53724 0.0
H1598 H 0.69085 0.49265 0.52717 0.0
H1599 H 0.71189 0.46735 0.49449 0.0
H1600 H 0.67649 0.54415 0.46415 0.0
H1601 H 0.69044 0.51626 0.4747 0.0
H1602 H 0.71603 0.53893 0.50695 0.0
C1603 C 0.69413 0.47687 0.52529 0.0
C1604 C 0.71375 0.48279 0.49741 0.0
C1605 C 0.68363 0.46193 0.5311 0.0
C1606 C 0.68773 0.54751 0.47032 0.0
C1607 C 0.69592 0.5315 0.47637 0.0
C1608 C 0.71607 0.52338 0.50404 0.0
C1609 C 0.70676 0.47149 0.5165 0.0
C1610 C 0.71326 0.48734 0.50854 0.0
C1611 C 0.7094 0.53539 0.48502 0.0
C1612 C 0.7144 0.51892 0.49293 0.0
H1613 H 0.70056 0.41994 0.51762 0.0
H1614 H 0.72029 0.44576 0.50805 0.0
H1615 H 0.71636 0.51192 0.52018 0.0
H1616 H 0.71097 0.58721 0.4831 0.0
H1617 H 0.72646 0.5593 0.49317 0.0
C1618 C 0.19778 0.92668 0.22183 0.0
C1619 C 0.17824 0.92589 0.22645 0.0
C1620 C 0.21428 0.93403 0.22784 0.0
C1621 C 0.24705 0.95351 0.24204 0.0
H1622 H 0.24656 0.92642 0.2699 0.0
C1623 C 0.30291 0.93047 0.28057 0.0
C1624 C 0.31973 0.92375 0.27451 0.0
C1625 C 0.28554 0.93802 0.27537 0.0
C1626 C 0.24689 0.93462 0.26231 0.0
H1627 H 0.1602 0.93429 0.24047 0.0
H1628 H 0.18888 0.94736 0.25083 0.0
H1629 H 0.21581 0.92723 0.25913 0.0
H1630 H 0.33199 0.92093 0.25827 0.0
H1631 H 0.30171 0.9334 0.24927 0.0
H1632 H 0.27848 0.9602 0.24511 0.0
C1633 C 0.19159 0.9418 0.24272 0.0
C1634 C 0.22918 0.93505 0.25609 0.0
C1635 C 0.17518 0.93433 0.23677 0.0
C1636 C 0.31926 0.92583 0.2632 0.0
C1637 C 0.30191 0.93323 0.25802 0.0
C1638 C 0.26479 0.9532 0.24831 0.0
C1639 C 0.21145 0.94083 0.23852 0.0
C1640 C 0.22923 0.9439 0.24574 0.0
C1641 C 0.28462 0.93888 0.26401 0.0
C1642 C 0.26509 0.94308 0.25835 0.0
H1643 H 0.20056 0.92035 0.21388 0.0
H1644 H 0.22943 0.933 0.22439 0.0
H1645 H 0.24745 0.96068 0.23415 0.0
H1646 H 0.3029 0.92931 0.2893 0.0
H1647 H 0.2726 0.94257 0.28024 0.0
C1648 C 0.69662 0.04839 0.52551 0.0
C1649 C 0.6962 0.06742 0.52032 0.0
C1650 C 0.70489 0.03146 0.52022 0.0
C1651 C 0.72104 0.99628 0.5068 0.0
H1652 H 0.69419 -0.00083 0.47893 0.0
C1653 C 0.68456 0.94215 0.4706 0.0
C1654 C 0.67469 0.92809 0.4774 0.0
C1655 C 0.69618 0.958 0.47499 0.0
C1656 C 0.70234 -0.00197 0.48652 0.0
H1657 H 0.7069 0.08453 0.50645 0.0
H1658 H 0.72194 0.05515 0.4974 0.0
H1659 H 0.70077 0.03014 0.48882 0.0
H1660 H 0.67016 0.91904 0.4941 0.0
H1661 H 0.68966 0.9469 0.50172 0.0
H1662 H 0.72144 0.96387 0.50466 0.0
C1663 C 0.71525 0.05306 0.50532 0.0
C1664 C 0.70617 0.01591 0.49224 0.0
C1665 C 0.7067 0.06989 0.51052 0.0
C1666 C 0.67744 0.92967 0.48863 0.0
C1667 C 0.6889 0.94555 0.49301 0.0
C1668 C 0.71727 0.97832 0.50104 0.0
C1669 C 0.71302 0.03343 0.50974 0.0
C1670 C 0.71463 0.01519 0.50268 0.0
C1671 C 0.69804 0.96019 0.48627 0.0
C1672 C 0.70692 0.97896 0.49108 0.0
H1673 H 0.68868 0.04611 0.53309 0.0
H1674 H 0.70292 0.01659 0.52388 0.0
H1675 H 0.72789 0.99525 0.51475 0.0
H1676 H 0.68299 0.94117 0.4619 0.0
H1677 H 0.70325 0.96886 0.46957 0.0
C1678 C 0.20079 0.4242 0.78153 0.0
C1679 C 0.18123 0.43046 0.77845 0.0
C1680 C 0.2179 0.43202 0.77623 0.0
C1681 C 0.25338 0.45188 0.765 0.0
H1682 H 0.24446 0.45831 0.73422 0.0
C1683 C 0.32138 0.45151 0.73624 0.0
C1684 C 0.31882 0.4394 0.72698 0.0
C1685 C 0.3045 0.45779 0.74224 0.0
C1686 C 0.24728 0.45649 0.74279 0.0
H1687 H 0.16404 0.45117 0.76832 0.0
H1688 H 0.19387 0.46586 0.75956 0.0
H1689 H 0.21551 0.45508 0.74618 0.0
H1690 H 0.29674 0.4253 0.71635 0.0
H1691 H 0.26734 0.43524 0.72705 0.0
H1692 H 0.28515 0.45118 0.76147 0.0
C1693 C 0.19615 0.45417 0.76562 0.0
C1694 C 0.23059 0.45502 0.74973 0.0
C1695 C 0.17905 0.44592 0.7707 0.0
C1696 C 0.29908 0.43471 0.72344 0.0
C1697 C 0.28221 0.44056 0.72958 0.0
C1698 C 0.27008 0.45288 0.75803 0.0
C1699 C 0.21575 0.44663 0.76793 0.0
C1700 C 0.2334 0.45198 0.7609 0.0
C1701 C 0.28474 0.45161 0.73926 0.0
C1702 C 0.26723 0.45448 0.74678 0.0
H1703 H 0.20279 0.41221 0.78747 0.0
H1704 H 0.23264 0.42559 0.7782 0.0
H1705 H 0.25621 0.45015 0.77357 0.0
H1706 H 0.33649 0.45557 0.73904 0.0
H1707 H 0.30704 0.46681 0.74944 0.0
C1708 C 0.80092 0.92383 0.0105 0.0
C1709 C 0.80886 0.93012 0.0205 0.0
C1710 C 0.78881 0.937 0.0044 0.0
C1711 C 0.78741 0.97366 0.99004 0.0
H1712 H 0.75724 0.02038 0.00059 0.0
C1713 C 0.79829 0.06194 0.98665 0.0
C1714 C 0.80472 0.06309 0.97583 0.0
C1715 C 0.78721 0.04519 0.99031 0.0
C1716 C 0.76547 0.00734 0.99746 0.0
H1717 H 0.80862 0.95413 0.03251 0.0
H1718 H 0.78817 0.97749 0.02171 0.0
H1719 H 0.75878 0.98932 0.01148 0.0
H1720 H 0.80223 0.04896 0.96005 0.0
H1721 H 0.78256 0.01966 0.96643 0.0
H1722 H 0.79565 0.99193 0.97653 0.0
C1723 C 0.7909 0.96229 0.01861 0.0
C1724 C 0.76634 0.98956 0.0037 0.0
C1725 C 0.80277 0.94895 0.0248 0.0
C1726 C 0.79779 0.04832 0.96848 0.0
C1727 C 0.78658 0.03151 0.97215 0.0
C1728 C 0.78665 0.9914 0.98386 0.0
C1729 C 0.78478 0.95687 0.00808 0.0
C1730 C 0.77834 0.97297 0.00034 0.0
C1731 C 0.78223 0.02918 0.98323 0.0
C1732 C 0.77678 0.0089 0.98781 0.0
H1733 H 0.80506 0.90918 0.0071 0.0
H1734 H 0.7839 0.93216 0.99644 0.0
H1735 H 0.7969 0.96127 0.98718 0.0
H1736 H 0.80303 0.0733 0.99249 0.0
H1737 H 0.78427 0.04404 0.99889 0.0
C1738 C 0.32001 0.56119 0.25992 0.0
C1739 C 0.32057 0.56122 0.27127 0.0
C1740 C 0.30366 0.55241 0.25443 0.0
C1741 C 0.26914 0.52964 0.24381 0.0
H1742 H 0.21776 0.54639 0.25642 0.0
C1743 C 0.1778 0.54279 0.23429 0.0
C1744 C 0.17997 0.55456 0.22488 0.0
C1745 C 0.19484 0.53429 0.23927 0.0
C1746 C 0.23184 0.54103 0.25284 0.0
H1747 H 0.30526 0.55066 0.28576 0.0
H1748 H 0.27684 0.5349 0.27616 0.0
H1749 H 0.24851 0.54882 0.267 0.0
H1750 H 0.20114 0.56497 0.21265 0.0
H1751 H 0.23118 0.55073 0.22156 0.0
H1752 H 0.2523 0.52323 0.22934 0.0
C1753 C 0.28879 0.54216 0.2715 0.0
C1754 C 0.24959 0.54242 0.25896 0.0
C1755 C 0.30506 0.55118 0.27701 0.0
C1756 C 0.19914 0.55598 0.21992 0.0
C1757 C 0.21631 0.54773 0.22501 0.0
C1758 C 0.25131 0.52838 0.23764 0.0
C1759 C 0.28758 0.54325 0.26016 0.0
C1760 C 0.26857 0.53748 0.2544 0.0
C1761 C 0.21441 0.53778 0.23505 0.0
C1762 C 0.23258 0.53473 0.24199 0.0
H1763 H 0.33177 0.56872 0.25525 0.0
H1764 H 0.30315 0.55385 0.24572 0.0
H1765 H 0.28348 0.52531 0.24012 0.0
H1766 H 0.16306 0.54119 0.23816 0.0
H1767 H 0.19285 0.52626 0.24685 0.0
C1768 C 0.3066 0.04506 0.52941 0.0
C1769 C 0.31419 0.05945 0.52202 0.0
C1770 C 0.29517 0.02841 0.52575 0.0
C1771 C 0.29294 0.9878 0.5145 0.0
H1772 H 0.26386 0.98622 0.48723 0.0
C1773 C 0.29973 0.93804 0.47468 0.0
C1774 C 0.30193 0.91866 0.47937 0.0
C1775 C 0.29159 0.95416 0.4807 0.0
C1776 C 0.27177 0.98639 0.49491 0.0
H1777 H 0.3138 0.06895 0.50521 0.0
H1778 H 0.29462 0.0399 0.49885 0.0
H1779 H 0.26586 0.01817 0.49734 0.0
H1780 H 0.29522 0.90036 0.49356 0.0
H1781 H 0.28087 0.9284 0.50397 0.0
H1782 H 0.29982 0.95644 0.51186 0.0
C1783 C 0.29719 0.04133 0.50746 0.0
C1784 C 0.27294 0.00466 0.5007 0.0
C1785 C 0.30848 0.05794 0.5111 0.0
C1786 C 0.29412 0.91525 0.4898 0.0
C1787 C 0.28587 0.93129 0.49577 0.0
C1788 C 0.29164 0.96956 0.50877 0.0
C1789 C 0.29122 0.02584 0.51465 0.0
C1790 C 0.28452 0.00582 0.51027 0.0
C1791 C 0.2854 0.95111 0.49147 0.0
C1792 C 0.28195 0.9689 0.49865 0.0
H1793 H 0.31047 0.04597 0.5379 0.0
H1794 H 0.29042 0.01695 0.53154 0.0
H1795 H 0.30216 0.98805 0.52176 0.0
H1796 H 0.30549 0.9411 0.46664 0.0
H1797 H 0.29158 0.96927 0.47717 0.0
C1798 C 0.67674 0.5504 0.27121 0.0
C1799 C 0.65762 0.55648 0.26724 0.0
C1800 C 0.69094 0.54125 0.26433 0.0
C1801 C 0.71838 0.5194 0.24832 0.0
H1802 H 0.72451 0.55516 0.22358 0.0
C1803 C 0.78171 0.55061 0.21518 0.0
C1804 C 0.79732 0.55397 0.22275 0.0
C1805 C 0.76318 0.54199 0.21845 0.0
C1806 C 0.72284 0.5445 0.23021 0.0
H1807 H 0.63763 0.55583 0.25325 0.0
H1808 H 0.66244 0.53989 0.24129 0.0
H1809 H 0.69318 0.55585 0.23388 0.0
H1810 H 0.80655 0.5491 0.2394 0.0
H1811 H 0.77443 0.53464 0.24511 0.0
H1812 H 0.74861 0.50889 0.24494 0.0
C1813 C 0.66656 0.5425 0.24965 0.0
C1814 C 0.70481 0.54494 0.23616 0.0
C1815 C 0.65238 0.55166 0.25652 0.0
C1816 C 0.7947 0.54702 0.23339 0.0
C1817 C 0.7763 0.53842 0.23665 0.0
C1818 C 0.7364 0.51885 0.24231 0.0
C1819 C 0.68627 0.53798 0.25337 0.0
C1820 C 0.70282 0.5332 0.24561 0.0
C1821 C 0.76002 0.53653 0.22933 0.0
C1822 C 0.73926 0.53227 0.23356 0.0
H1823 H 0.6812 0.55375 0.27944 0.0
H1824 H 0.70606 0.5381 0.26743 0.0
H1825 H 0.71709 0.50989 0.25545 0.0
H1826 H 0.78339 0.55561 0.20688 0.0
H1827 H 0.75101 0.54048 0.21259 0.0
C1828 C 0.19489 0.92146 0.01196 0.0
C1829 C 0.18667 0.92753 0.02194 0.0
C1830 C 0.20643 0.93506 0.00582 0.0
C1831 C 0.22677 0.98848 0.00496 0.0
H1832 H 0.19792 0.98921 0.97764 0.0
C1833 C 0.19402 0.05982 0.98668 0.0
C1834 C 0.18824 0.06046 0.97575 0.0
C1835 C 0.20493 0.04329 0.99074 0.0
C1836 C 0.20677 0.98916 0.98502 0.0
H1837 H 0.1859 0.95166 0.03388 0.0
H1838 H 0.20537 0.97573 0.023 0.0
H1839 H 0.19744 0.95879 0.98851 0.0
H1840 H 0.19166 0.04554 0.96022 0.0
H1841 H 0.21105 0.01666 0.9673 0.0
H1842 H 0.23494 0.0195 0.00167 0.0
C1843 C 0.20328 0.9604 0.01995 0.0
C1844 C 0.20646 0.97156 0.99133 0.0
C1845 C 0.19198 0.94664 0.02618 0.0
C1846 C 0.19558 0.04532 0.96872 0.0
C1847 C 0.20663 0.02874 0.97279 0.0
C1848 C 0.22716 0.00613 0.9986 0.0
C1849 C 0.20962 0.95513 0.00944 0.0
C1850 C 0.21544 0.97139 0.00165 0.0
C1851 C 0.21043 0.02699 0.98396 0.0
C1852 C 0.21607 0.00705 0.98887 0.0
H1853 H 0.19134 0.90662 0.0086 0.0
H1854 H 0.21155 0.93035 0.99788 0.0
H1855 H 0.23422 0.98868 0.01277 0.0
H1856 H 0.18893 0.07144 0.99229 0.0
H1857 H 0.20743 0.04255 0.99938 0.0
C1858 C 0.8127 0.43718 0.76984 0.0
C1859 C 0.81132 0.42625 0.77958 0.0
C1860 C 0.79513 0.44349 0.76448 0.0
C1861 C 0.75858 0.43383 0.75092 0.0
H1862 H 0.70643 0.44895 0.76326 0.0
C1863 C 0.67028 0.41393 0.74296 0.0
C1864 C 0.66988 0.41456 0.73161 0.0
C1865 C 0.68668 0.42212 0.74865 0.0
C1866 C 0.72091 0.44475 0.75969 0.0
H1867 H 0.79069 0.41498 0.79188 0.0
H1868 H 0.75979 0.42551 0.78234 0.0
H1869 H 0.73736 0.45182 0.7742 0.0
H1870 H 0.68571 0.42551 0.71736 0.0
H1871 H 0.71426 0.44018 0.72733 0.0
H1872 H 0.7423 0.42557 0.73669 0.0
C1873 C 0.77447 0.42944 0.77891 0.0
C1874 C 0.73858 0.44644 0.76595 0.0
C1875 C 0.79214 0.42332 0.78435 0.0
C1876 C 0.68572 0.42453 0.72609 0.0
C1877 C 0.70208 0.4329 0.73181 0.0
C1878 C 0.74098 0.43202 0.74471 0.0
C1879 C 0.77582 0.43874 0.76868 0.0
C1880 C 0.75752 0.44047 0.76171 0.0
C1881 C 0.70302 0.43129 0.74314 0.0
C1882 C 0.72185 0.43686 0.74912 0.0
H1883 H 0.82736 0.44001 0.76609 0.0
H1884 H 0.79664 0.45105 0.75674 0.0
H1885 H 0.77287 0.42876 0.74745 0.0
H1886 H 0.65828 0.40643 0.74747 0.0
H1887 H 0.68699 0.4203 0.75735 0.0
C1888 C 0.15129 0.82838 0.05184 0.0
C1889 C 0.141 0.83558 0.04262 0.0
C1890 C 0.152 0.80742 0.05408 0.0
C1891 C 0.12531 0.75942 0.04771 0.0
H1892 H 0.17755 0.73271 0.05172 0.0
C1893 C 0.13998 0.67888 0.03334 0.0
C1894 C 0.14814 0.6647 0.04067 0.0
C1895 C 0.13934 0.69952 0.03592 0.0
C1896 C 0.16283 0.74002 0.05083 0.0
H1897 H 0.12326 0.82648 0.0286 0.0
H1898 H 0.1245 0.79033 0.0325 0.0
H1899 H 0.17547 0.77009 0.05231 0.0
H1900 H 0.16274 0.66117 0.05631 0.0
H1901 H 0.16201 0.69773 0.06069 0.0
H1902 H 0.11285 0.72954 0.04561 0.0
C1903 C 0.13188 0.80075 0.03805 0.0
C1904 C 0.16163 0.76134 0.05118 0.0
C1905 C 0.13133 0.82151 0.03577 0.0
C1906 C 0.15629 0.67175 0.05051 0.0
C1907 C 0.1559 0.69259 0.05303 0.0
C1908 C 0.12654 0.73824 0.0473 0.0
C1909 C 0.14217 0.79346 0.04722 0.0
C1910 C 0.14297 0.77121 0.04918 0.0
C1911 C 0.14704 0.70653 0.04582 0.0
C1912 C 0.14541 0.72843 0.04843 0.0
H1913 H 0.15892 0.83887 0.05726 0.0
H1914 H 0.16007 0.80215 0.06119 0.0
H1915 H 0.11066 0.76664 0.04636 0.0
H1916 H 0.13359 0.67402 0.02569 0.0
H1917 H 0.13271 0.71007 0.03016 0.0
C1918 C 0.57364 0.92182 0.31032 0.0
C1919 C 0.57762 0.92241 0.29916 0.0
C1920 C 0.55516 0.9293 0.31438 0.0
C1921 C 0.50868 0.92679 0.31653 0.0
H1922 H 0.47973 0.97177 0.30315 0.0
C1923 C 0.43114 0.93429 0.29352 0.0
C1924 C 0.41756 0.92446 0.30057 0.0
C1925 C 0.44968 0.94174 0.29731 0.0
C1926 C 0.48763 0.95935 0.30713 0.0
H1927 H 0.56629 0.93271 0.28364 0.0
H1928 H 0.53432 0.94576 0.29066 0.0
H1929 H 0.51694 0.97106 0.30274 0.0
H1930 H 0.41204 0.91598 0.31726 0.0
H1931 H 0.44491 0.92866 0.32387 0.0
H1932 H 0.47943 0.91415 0.32009 0.0
C1933 C 0.54531 0.93957 0.29631 0.0
C1934 C 0.5089 0.95895 0.3069 0.0
C1935 C 0.56352 0.93184 0.29226 0.0
C1936 C 0.4223 0.9234 0.31164 0.0
C1937 C 0.44107 0.93065 0.31542 0.0
C1938 C 0.4874 0.92717 0.31675 0.0
C1939 C 0.54064 0.93784 0.30736 0.0
C1940 C 0.51953 0.94199 0.31096 0.0
C1941 C 0.45518 0.93935 0.30822 0.0
C1942 C 0.47669 0.94276 0.3114 0.0
H1943 H 0.58432 0.9147 0.31584 0.0
H1944 H 0.55191 0.92776 0.32293 0.0
H1945 H 0.51646 0.91351 0.31972 0.0
H1946 H 0.42779 0.93553 0.28497 0.0
H1947 H 0.4603 0.94809 0.29151 0.0
C1948 C 0.34595 0.16793 0.54618 0.0
C1949 C 0.35138 0.16029 0.53594 0.0
C1950 C 0.34542 0.18899 0.54804 0.0
C1951 C 0.36869 0.23576 0.53803 0.0
H1952 H 0.3224 0.26474 0.55008 0.0
C1953 C 0.35808 0.32051 0.53095 0.0
C1954 C 0.35224 0.33303 0.53963 0.0
C1955 C 0.35776 0.2994 0.53197 0.0
C1956 C 0.33556 0.25679 0.54688 0.0
H1957 H 0.35974 0.1688 0.51956 0.0
H1958 H 0.3589 0.20527 0.52285 0.0
H1959 H 0.32196 0.22731 0.54927 0.0
H1960 H 0.34095 0.33313 0.55612 0.0
H1961 H 0.34042 0.29587 0.55788 0.0
H1962 H 0.38222 0.26497 0.53546 0.0
C1963 C 0.35527 0.19502 0.52944 0.0
C1964 C 0.33529 0.23545 0.54641 0.0
C1965 C 0.35564 0.1741 0.52756 0.0
C1966 C 0.34559 0.32388 0.54929 0.0
C1967 C 0.34523 0.3026 0.5503 0.0
C1968 C 0.36899 0.25695 0.53854 0.0
C1969 C 0.35052 0.20265 0.53973 0.0
C1970 C 0.35161 0.22485 0.54166 0.0
C1971 C 0.35162 0.2902 0.54168 0.0
C1972 C 0.35218 0.26771 0.54264 0.0
H1973 H 0.34252 0.15766 0.55279 0.0
H1974 H 0.34167 0.19458 0.55604 0.0
H1975 H 0.38164 0.22789 0.53455 0.0
H1976 H 0.36311 0.327 0.52335 0.0
H1977 H 0.36233 0.29022 0.5251 0.0
C1978 C 0.93058 0.05634 0.79023 0.0
C1979 C 0.91694 0.06521 0.79759 0.0
C1980 C 0.9493 0.04882 0.79373 0.0
C1981 C 0.98719 0.06137 0.81349 0.0
H1982 H 0.01646 0.0181 0.7988 0.0
C1983 C 0.07354 0.06613 0.80837 0.0
C1984 C 0.07841 0.06579 0.79731 0.0
C1985 C 0.05478 0.05857 0.81197 0.0
C1986 C 0.00849 0.03006 0.80312 0.0
H1987 H 0.9116 0.07203 0.81451 0.0
H1988 H 0.94475 0.05922 0.82063 0.0
H1989 H 0.97923 0.01809 0.79881 0.0
H1990 H 0.06835 0.05569 0.7815 0.0
H1991 H 0.03582 0.04263 0.78772 0.0
H1992 H 0.01633 0.07427 0.81705 0.0
C1993 C 0.94081 0.05803 0.81215 0.0
C1994 C 0.9872 0.03004 0.80313 0.0
C1995 C 0.92189 0.06535 0.80864 0.0
C1996 C 0.06492 0.05638 0.79005 0.0
C1997 C 0.04635 0.04865 0.79366 0.0
C1998 C 0.00847 0.0614 0.81347 0.0
C1999 C 0.9549 0.05017 0.80467 0.0
C2000 C 0.9764 0.04638 0.80773 0.0
C2001 C 0.04076 0.05029 0.80458 0.0
C2002 C 0.01928 0.04644 0.80769 0.0
H2003 H 0.9271 0.05584 0.78167 0.0
H2004 H 0.95991 0.04314 0.78773 0.0
H2005 H 0.97931 0.0742 0.81708 0.0
H2006 H 0.08372 0.07321 0.81416 0.0
H2007 H 0.05088 0.05996 0.82045 0.0
C2008 C 0.1554 0.16821 0.95067 0.0
C2009 C 0.1491 0.16043 0.96074 0.0
C2010 C 0.15532 0.18929 0.94875 0.0
C2011 C 0.12911 0.23514 0.95774 0.0
H2012 H 0.17694 0.26618 0.94939 0.0
C2013 C 0.13877 0.3176 0.96987 0.0
C2014 C 0.14527 0.33197 0.96218 0.0
C2015 C 0.13911 0.29688 0.96751 0.0
C2016 C 0.16336 0.25765 0.9515 0.0
H2017 H 0.13842 0.16873 0.97677 0.0
H2018 H 0.13815 0.20515 0.97337 0.0
H2019 H 0.17807 0.22869 0.94912 0.0
H2020 H 0.15772 0.33577 0.94606 0.0
H2021 H 0.15854 0.29909 0.94199 0.0
H2022 H 0.11458 0.26381 0.96052 0.0
C2023 C 0.14298 0.19501 0.96695 0.0
C2024 C 0.16402 0.23629 0.95135 0.0
C2025 C 0.14326 0.17413 0.9689 0.0
C2026 C 0.15255 0.32505 0.95213 0.0
C2027 C 0.15306 0.30413 0.9498 0.0
C2028 C 0.12844 0.25634 0.95786 0.0
C2029 C 0.14868 0.20277 0.95683 0.0
C2030 C 0.14712 0.22494 0.95489 0.0
C2031 C 0.14604 0.28992 0.95744 0.0
C2032 C 0.1458 0.26779 0.95518 0.0
H2033 H 0.16005 0.15803 0.94423 0.0
H2034 H 0.15986 0.195 0.94089 0.0
H2035 H 0.11577 0.22667 0.96032 0.0
H2036 H 0.13314 0.32234 0.97771 0.0
H2037 H 0.13398 0.28622 0.97363 0.0
C2038 C 0.92141 0.91529 0.19063 0.0
C2039 C 0.91585 0.9158 0.2016 0.0
C2040 C 0.94075 0.92195 0.18739 0.0
C2041 C 0.98696 0.94953 0.1969 0.0
H2042 H 0.01657 0.90554 0.18304 0.0
C2043 C 0.06561 0.9248 0.20964 0.0
C2044 C 0.07955 0.91671 0.20218 0.0
C2045 C 0.04651 0.93146 0.20626 0.0
C2046 C 0.00854 0.91831 0.18662 0.0
H2047 H 0.92547 0.92504 0.21764 0.0
H2048 H 0.95897 0.93662 0.21203 0.0
H2049 H 0.97947 0.90532 0.18292 0.0
H2050 H 0.08487 0.91021 0.18523 0.0
H2051 H 0.05099 0.92148 0.17932 0.0
H2052 H 0.01609 0.96167 0.2013 0.0
C2053 C 0.94853 0.93115 0.2059 0.0
C2054 C 0.98725 0.91818 0.18656 0.0
C2055 C 0.9294 0.92427 0.20914 0.0
C2056 C 0.07437 0.91633 0.19116 0.0
C2057 C 0.05503 0.92276 0.18778 0.0
C2058 C 0.00823 0.94965 0.19697 0.0
C2059 C 0.95464 0.92955 0.19505 0.0
C2060 C 0.9763 0.93315 0.19224 0.0
C2061 C 0.04079 0.93001 0.19535 0.0
C2062 C 0.01918 0.9334 0.19237 0.0
H2063 H 0.91122 0.90888 0.18464 0.0
H2064 H 0.94508 0.92058 0.17897 0.0
H2065 H 0.97887 0.96147 0.20117 0.0
H2066 H 0.06925 0.92545 0.21818 0.0
H2067 H 0.03578 0.93667 0.21232 0.0
C2068 C 0.31839 0.67503 0.45838 0.0
C2069 C 0.32838 0.66176 0.45123 0.0
C2070 C 0.31006 0.69324 0.45465 0.0
C2071 C 0.3207 0.7321 0.4353 0.0
H2072 H 0.27263 0.75644 0.44821 0.0
C2073 C 0.31553 0.81847 0.44092 0.0
C2074 C 0.31326 0.82279 0.45198 0.0
C2075 C 0.31054 0.79914 0.43691 0.0
C2076 C 0.28593 0.74984 0.44437 0.0
H2077 H 0.33679 0.65669 0.43449 0.0
H2078 H 0.32269 0.68916 0.42801 0.0
H2079 H 0.2766 0.7194 0.44824 0.0
H2080 H 0.30238 0.81106 0.46731 0.0
H2081 H 0.29368 0.77759 0.46038 0.0
H2082 H 0.33091 0.76253 0.43228 0.0
C2083 C 0.32113 0.6852 0.43647 0.0
C2084 C 0.28818 0.72867 0.44438 0.0
C2085 C 0.3292 0.6667 0.44018 0.0
C2086 C 0.30449 0.80808 0.45877 0.0
C2087 C 0.29926 0.78895 0.45476 0.0
C2088 C 0.31848 0.75329 0.43532 0.0
C2089 C 0.31174 0.69875 0.44372 0.0
C2090 C 0.30618 0.71973 0.44046 0.0
C2091 C 0.30287 0.78402 0.44387 0.0
C2092 C 0.30169 0.76237 0.44049 0.0
H2093 H 0.31736 0.67153 0.46692 0.0
H2094 H 0.30323 0.70353 0.46047 0.0
H2095 H 0.33474 0.72562 0.43223 0.0
H2096 H 0.32221 0.8296 0.4355 0.0
H2097 H 0.31343 0.79574 0.42848 0.0
C2098 C 0.43026 0.06642 0.70706 0.0
C2099 C 0.41733 0.07652 0.69977 0.0
C2100 C 0.44798 0.05696 0.70342 0.0
C2101 C 0.48651 0.06463 0.68337 0.0
H2102 H 0.51031 0.01754 0.69754 0.0
C2103 C 0.57273 0.05853 0.68768 0.0
C2104 C 0.57785 0.05723 0.69869 0.0
C2105 C 0.55314 0.05324 0.68419 0.0
C2106 C 0.50384 0.03055 0.69337 0.0
H2107 H 0.41224 0.08376 0.68288 0.0
H2108 H 0.44377 0.0676 0.67654 0.0
H2109 H 0.47342 0.02251 0.69797 0.0
H2110 H 0.56725 0.04757 0.71448 0.0
H2111 H 0.53328 0.0385 0.70846 0.0
H2112 H 0.51696 0.07364 0.67955 0.0
C2113 C 0.43998 0.06691 0.68505 0.0
C2114 C 0.48276 0.03338 0.69361 0.0
C2115 C 0.422 0.07616 0.68868 0.0
C2116 C 0.56367 0.04896 0.70597 0.0
C2117 C 0.54424 0.04352 0.70247 0.0
C2118 C 0.50761 0.06184 0.68316 0.0
C2119 C 0.45332 0.05756 0.69243 0.0
C2120 C 0.47406 0.0511 0.68918 0.0
C2121 C 0.53848 0.04635 0.69163 0.0
C2122 C 0.51656 0.04545 0.68874 0.0
H2123 H 0.42696 0.06626 0.71564 0.0
H2124 H 0.4581 0.05018 0.70934 0.0
H2125 H 0.48025 0.07846 0.6799 0.0
H2126 H 0.58342 0.06475 0.68188 0.0
H2127 H 0.54916 0.05545 0.67577 0.0
C2128 C 0.84833 0.32378 0.97562 0.0
C2129 C 0.84437 0.33706 0.96696 0.0
C2130 C 0.84814 0.30277 0.9741 0.0
C2131 C 0.82921 0.26145 0.95717 0.0
H2132 H 0.87393 0.23192 0.97047 0.0
C2133 C 0.84004 0.17298 0.9553 0.0
C2134 C 0.84504 0.16394 0.96527 0.0
C2135 C 0.83956 0.19424 0.95425 0.0
C2136 C 0.86132 0.23995 0.96674 0.0
H2137 H 0.83642 0.33863 0.94995 0.0
H2138 H 0.83603 0.30154 0.94731 0.0
H2139 H 0.87385 0.26903 0.97076 0.0
H2140 H 0.85277 0.17012 0.98202 0.0
H2141 H 0.85189 0.20696 0.98017 0.0
H2142 H 0.81653 0.23212 0.95336 0.0
C2143 C 0.83932 0.30761 0.95526 0.0
C2144 C 0.86128 0.26116 0.9669 0.0
C2145 C 0.83959 0.32878 0.95678 0.0
C2146 C 0.84902 0.17654 0.9742 0.0
C2147 C 0.84863 0.19767 0.97313 0.0
C2148 C 0.82925 0.24009 0.95701 0.0
C2149 C 0.84397 0.29447 0.96389 0.0
C2150 C 0.84496 0.27211 0.9624 0.0
C2151 C 0.84423 0.20673 0.96312 0.0
C2152 C 0.84505 0.22919 0.96207 0.0
H2153 H 0.85189 0.32959 0.9836 0.0
H2154 H 0.85135 0.29298 0.98094 0.0
H2155 H 0.81645 0.26957 0.95365 0.0
H2156 H 0.83684 0.16367 0.94827 0.0
H2157 H 0.83612 0.20089 0.94644 0.0
C2158 C 0.67427 0.81755 0.46083 0.0
C2159 C 0.66502 0.83109 0.45355 0.0
C2160 C 0.68254 0.79924 0.4572 0.0
C2161 C 0.67323 0.76106 0.43711 0.0
H2162 H 0.71964 0.73556 0.45107 0.0
C2163 C 0.67861 0.67416 0.44053 0.0
C2164 C 0.67971 0.66857 0.45148 0.0
C2165 C 0.68363 0.694 0.43731 0.0
C2166 C 0.70682 0.74251 0.44696 0.0
H2167 H 0.65786 0.83651 0.43667 0.0
H2168 H 0.67194 0.80398 0.43034 0.0
H2169 H 0.71586 0.7726 0.45165 0.0
H2170 H 0.68846 0.67873 0.4675 0.0
H2171 H 0.69718 0.71312 0.46195 0.0
H2172 H 0.66333 0.73091 0.43315 0.0
C2173 C 0.67291 0.80775 0.43884 0.0
C2174 C 0.70466 0.76367 0.44729 0.0
C2175 C 0.66485 0.82629 0.44247 0.0
C2176 C 0.68726 0.68266 0.45902 0.0
C2177 C 0.6925 0.70232 0.4558 0.0
C2178 C 0.67538 0.73987 0.43679 0.0
C2179 C 0.68158 0.79394 0.44622 0.0
C2180 C 0.68722 0.77299 0.44293 0.0
C2181 C 0.69015 0.70841 0.44498 0.0
C2182 C 0.69155 0.73036 0.44228 0.0
H2183 H 0.6748 0.82091 0.4694 0.0
H2184 H 0.68879 0.78877 0.46311 0.0
H2185 H 0.65961 0.76782 0.4337 0.0
H2186 H 0.67291 0.66356 0.43453 0.0
H2187 H 0.68172 0.69831 0.42892 0.0
C2188 C 0.85996 0.68203 0.03259 0.0
C2189 C 0.85097 0.66814 0.0398 0.0
C2190 C 0.86072 0.70271 0.03507 0.0
C2191 C 0.83603 0.74337 0.04955 0.0
H2192 H 0.8877 0.77082 0.04489 0.0
C2193 C 0.84596 0.83182 0.0503 0.0
C2194 C 0.85605 0.83917 0.04105 0.0
C2195 C 0.84567 0.81089 0.05258 0.0
C2196 C 0.87319 0.76336 0.04628 0.0
H2197 H 0.83524 0.66511 0.05515 0.0
H2198 H 0.83623 0.70169 0.05937 0.0
H2199 H 0.88618 0.73368 0.04435 0.0
H2200 H 0.87386 0.83035 0.02701 0.0
H2201 H 0.87333 0.79418 0.03096 0.0
H2202 H 0.82287 0.77322 0.05091 0.0
C2203 C 0.84285 0.69633 0.05187 0.0
C2204 C 0.87234 0.74216 0.04599 0.0
C2205 C 0.84232 0.67547 0.04945 0.0
C2206 C 0.86594 0.82525 0.0342 0.0
C2207 C 0.8658 0.8045 0.03652 0.0
C2208 C 0.83686 0.7647 0.0498 0.0
C2209 C 0.85235 0.71003 0.04476 0.0
C2210 C 0.85364 0.73203 0.04719 0.0
C2211 C 0.85572 0.79709 0.04572 0.0
C2212 C 0.85533 0.77485 0.04773 0.0
H2213 H 0.86676 0.67692 0.02509 0.0
H2214 H 0.86783 0.71305 0.02937 0.0
H2215 H 0.82144 0.73583 0.0505 0.0
H2216 H 0.83818 0.8422 0.05573 0.0
H2217 H 0.83776 0.80551 0.05972 0.0
C2218 C 0.6415 0.3294 0.52913 0.0
C2219 C 0.64582 0.34139 0.53825 0.0
C2220 C 0.64321 0.30827 0.52959 0.0
C2221 C 0.66691 0.26594 0.54432 0.0
H2222 H 0.62437 0.23483 0.53009 0.0
C2223 C 0.66137 0.17686 0.5435 0.0
C2224 C 0.657 0.16864 0.53326 0.0
C2225 C 0.66088 0.19798 0.54514 0.0
C2226 C 0.63639 0.24333 0.53406 0.0
H2227 H 0.65574 0.3406 0.55498 0.0
H2228 H 0.65861 0.30339 0.55579 0.0
H2229 H 0.62144 0.27175 0.53126 0.0
H2230 H 0.64963 0.17618 0.51661 0.0
H2231 H 0.64879 0.21278 0.5195 0.0
H2232 H 0.68188 0.23725 0.54702 0.0
C2233 C 0.65399 0.3105 0.54828 0.0
C2234 C 0.63474 0.26444 0.53472 0.0
C2235 C 0.65227 0.33176 0.54781 0.0
C2236 C 0.65289 0.18195 0.52463 0.0
C2237 C 0.6523 0.20293 0.52628 0.0
C2238 C 0.66854 0.24468 0.54369 0.0
C2239 C 0.64922 0.29856 0.5392 0.0
C2240 C 0.65021 0.27602 0.5396 0.0
C2241 C 0.65587 0.21112 0.53658 0.0
C2242 C 0.65351 0.23329 0.53831 0.0
H2243 H 0.63667 0.33631 0.5216 0.0
H2244 H 0.63986 0.29949 0.52239 0.0
H2245 H 0.67908 0.27452 0.54811 0.0
H2246 H 0.66465 0.16699 0.5503 0.0
H2247 H 0.66371 0.20398 0.55316 0.0
C2248 C 0.92352 0.42106 0.80937 0.0
C2249 C 0.91259 0.4274 0.80023 0.0
C2250 C 0.94333 0.42827 0.81112 0.0
C2251 C 0.98514 0.44512 0.79393 0.0
H2252 H 0.01559 0.44743 0.82075 0.0
C2253 C 0.07077 0.44319 0.79178 0.0
C2254 C 0.07972 0.42833 0.7984 0.0
C2255 C 0.05127 0.45043 0.79403 0.0
C2256 C 0.00726 0.44691 0.8132 0.0
H2257 H 0.91237 0.44793 0.78653 0.0
H2258 H 0.94644 0.46131 0.78986 0.0
H2259 H 0.97822 0.4473 0.82121 0.0
H2260 H 0.07625 0.41053 0.81302 0.0
H2261 H 0.04158 0.42232 0.81668 0.0
H2262 H 0.01369 0.4436 0.78589 0.0
C2263 C 0.94025 0.45015 0.79542 0.0
C2264 C 0.98589 0.44684 0.81347 0.0
C2265 C 0.92074 0.44258 0.79353 0.0
C2266 C 0.06955 0.42197 0.80779 0.0
C2267 C 0.04976 0.42884 0.80991 0.0
C2268 C 0.00631 0.44517 0.79367 0.0
C2269 C 0.95224 0.44216 0.80384 0.0
C2270 C 0.97463 0.44553 0.80382 0.0
C2271 C 0.04007 0.44245 0.80276 0.0
C2272 C 0.01768 0.44564 0.80329 0.0
H2273 H 0.91745 0.40934 0.81464 0.0
H2274 H 0.95214 0.42175 0.81767 0.0
H2275 H 0.97709 0.44352 0.78634 0.0
H2276 H 0.07854 0.44859 0.7846 0.0
H2277 H 0.04449 0.46139 0.78855 0.0
C2278 C 0.41635 0.56381 0.31227 0.0
C2279 C 0.4139 0.56288 0.30099 0.0
C2280 C 0.43469 0.55765 0.31702 0.0
C2281 C 0.47964 0.5669 0.32001 0.0
H2282 H 0.51658 0.52759 0.30717 0.0
C2283 C 0.55128 0.58742 0.29863 0.0
C2284 C 0.56961 0.57704 0.30051 0.0
C2285 C 0.53351 0.58139 0.30385 0.0
C2286 C 0.50649 0.53829 0.31117 0.0
H2287 H 0.42762 0.55266 0.286 0.0
H2288 H 0.45947 0.54204 0.29422 0.0
H2289 H 0.4799 0.52099 0.30705 0.0
H2290 H 0.58399 0.55242 0.3094 0.0
H2291 H 0.55222 0.54109 0.31819 0.0
H2292 H 0.50605 0.58517 0.32306 0.0
C2293 C 0.44738 0.54748 0.29945 0.0
C2294 C 0.48552 0.53459 0.31104 0.0
C2295 C 0.42922 0.55385 0.29469 0.0
C2296 C 0.56997 0.56065 0.30785 0.0
C2297 C 0.55194 0.55423 0.31289 0.0
C2298 C 0.50055 0.57064 0.32007 0.0
C2299 C 0.45069 0.55021 0.31058 0.0
C2300 C 0.47186 0.5496 0.31471 0.0
C2301 C 0.53362 0.56461 0.3109 0.0
C2302 C 0.51392 0.55704 0.31495 0.0
H2303 H 0.40468 0.57052 0.31734 0.0
H2304 H 0.43683 0.55985 0.32562 0.0
H2305 H 0.46955 0.57878 0.32291 0.0
H2306 H 0.55065 0.60018 0.29307 0.0
H2307 H 0.51945 0.58938 0.30204 0.0
C2308 C 0.43247 0.44779 0.70915 0.0
C2309 C 0.41819 0.43934 0.702 0.0
C2310 C 0.45156 0.45386 0.70544 0.0
C2311 C 0.49157 0.46711 0.6962 0.0
H2312 H 0.51454 0.41916 0.68249 0.0
C2313 C 0.57225 0.41947 0.69247 0.0
C2314 C 0.57572 0.41795 0.70365 0.0
C2315 C 0.55492 0.42953 0.68857 0.0
C2316 C 0.50846 0.43301 0.68601 0.0
H2317 H 0.41193 0.43232 0.68519 0.0
H2318 H 0.44562 0.44272 0.6787 0.0
H2319 H 0.47797 0.42474 0.6819 0.0
H2320 H 0.56467 0.42689 0.71947 0.0
H2321 H 0.53467 0.44447 0.7127 0.0
H2322 H 0.52201 0.4742 0.70121 0.0
C2323 C 0.442 0.44457 0.68719 0.0
C2324 C 0.48744 0.43626 0.68566 0.0
C2325 C 0.42274 0.43864 0.6909 0.0
C2326 C 0.56227 0.42763 0.71082 0.0
C2327 C 0.54523 0.43795 0.70693 0.0
C2328 C 0.51257 0.46378 0.6966 0.0
C2329 C 0.45687 0.4515 0.6945 0.0
C2330 C 0.47868 0.45256 0.69141 0.0
C2331 C 0.54112 0.4386 0.69579 0.0
C2332 C 0.52097 0.44598 0.69213 0.0
H2333 H 0.42929 0.44876 0.71772 0.0
H2334 H 0.46267 0.45889 0.71134 0.0
H2335 H 0.48527 0.48007 0.70048 0.0
H2336 H 0.58244 0.41219 0.68676 0.0
H2337 H 0.552 0.42974 0.67995 0.0
C2338 C 0.91502 0.55622 0.22034 0.0
C2339 C 0.90442 0.56452 0.21153 0.0
C2340 C 0.93577 0.55203 0.21954 0.0
C2341 C 0.98026 0.54891 0.2011 0.0
H2342 H 0.00801 0.57286 0.22568 0.0
C2343 C 0.0658 0.57269 0.20191 0.0
C2344 C 0.07594 0.57087 0.21186 0.0
C2345 C 0.04512 0.56761 0.2011 0.0
C2346 C 0.00059 0.56572 0.21884 0.0
H2347 H 0.90677 0.57347 0.1947 0.0
H2348 H 0.94334 0.56666 0.19339 0.0
H2349 H 0.97122 0.57097 0.22562 0.0
H2350 H 0.07315 0.56056 0.22845 0.0
H2351 H 0.03744 0.55118 0.22695 0.0
H2352 H 0.00998 0.54418 0.19425 0.0
C2353 C 0.93552 0.56315 0.20087 0.0
C2354 C 0.97944 0.56463 0.21881 0.0
C2355 C 0.91461 0.56713 0.20164 0.0
C2356 C 0.06557 0.56252 0.22073 0.0
C2357 C 0.04511 0.55719 0.21988 0.0
C2358 C 0.0016 0.54998 0.20114 0.0
C2359 C 0.94643 0.55635 0.20996 0.0
C2360 C 0.96901 0.55621 0.20996 0.0
C2361 C 0.03444 0.56045 0.2102 0.0
C2362 C 0.01194 0.55839 0.21004 0.0
H2363 H 0.90745 0.55369 0.22801 0.0
H2364 H 0.94369 0.5463 0.2266 0.0
H2365 H 0.97258 0.54237 0.19417 0.0
H2366 H 0.07352 0.57904 0.19494 0.0
H2367 H 0.03728 0.57033 0.19353 0.0
loop_
_geom_bond_atom_site_label_1
_geom_bond_atom_site_label_2
_geom_bond_distance
_geom_bond_site_symmetry_2
_ccdc_geom_bond_type
Zn0 O3 2.031 . S
Zn0 O5 2.049 . S
Zn0 O10 2.067 . S
Zn1 O2 1.962 . S
Zn1 O4 1.986 . S
Zn1 O6 1.996 . S
Zn1 O9 1.943 . S
O2 Zn1 1.962 . S
O2 C7 1.254 . S
O3 Zn0 2.031 . S
O3 C7 1.269 . S
O4 Zn1 1.986 . S
O4 C11 1.262 . S
O5 Zn0 2.049 . S
O5 C13 1.260 . S
O6 Zn1 1.996 . S
O6 C13 1.257 . S
C7 O2 1.254 . S
C7 O3 1.269 . S
C8 O9 1.249 . S
C8 O10 1.270 . S
O9 Zn1 1.943 . S
O9 C8 1.249 . S
O10 Zn0 2.067 . S
O10 C8 1.270 . S
C11 O4 1.262 . S
C11 O12 1.232 . S
O12 C11 1.232 . S
C13 O5 1.260 . S
C13 O6 1.257 . S
Zn14 O17 2.031 . S
Zn14 O19 2.049 . S
Zn14 O24 2.067 . S
Zn15 O16 1.962 . S
Zn15 O18 1.986 . S
Zn15 O20 1.996 . S
Zn15 O23 1.943 . S
O16 Zn15 1.962 . S
O16 C21 1.254 . S
O17 Zn14 2.031 . S
O17 C21 1.269 . S
O18 Zn15 1.986 . S
O18 C25 1.262 . S
O19 Zn14 2.049 . S
O19 C27 1.260 . S
O20 Zn15 1.996 . S
O20 C27 1.257 . S
C21 O16 1.254 . S
C21 O17 1.269 . S
C22 O23 1.249 . S
C22 O24 1.270 . S
O23 Zn15 1.943 . S
O23 C22 1.249 . S
O24 Zn14 2.067 . S
O24 C22 1.270 . S
C25 O18 1.262 . S
C25 O26 1.232 . S
O26 C25 1.232 . S
C27 O19 1.260 . S
C27 O20 1.257 . S
Zn28 O31 2.031 . S
Zn28 O33 2.049 . S
Zn28 O38 2.067 . S
Zn29 O30 1.962 . S
Zn29 O32 1.986 . S
Zn29 O34 1.996 . S
Zn29 O37 1.943 . S
O30 Zn29 1.962 . S
O30 C35 1.254 . S
O31 Zn28 2.031 . S
O31 C35 1.269 . S
O32 Zn29 1.986 . S
O32 C39 1.262 . S
O33 Zn28 2.049 . S
O33 C41 1.260 . S
O34 Zn29 1.996 . S
O34 C41 1.257 . S
C35 O30 1.254 . S
C35 O31 1.269 . S
C36 O37 1.249 . S
C36 O38 1.270 . S
O37 Zn29 1.943 . S
O37 C36 1.249 . S
O38 Zn28 2.067 . S
O38 C36 1.270 . S
C39 O32 1.262 . S
C39 O40 1.232 . S
O40 C39 1.232 . S
C41 O33 1.260 . S
C41 O34 1.257 . S
Zn42 O45 2.031 . S
Zn42 O47 2.049 . S
Zn42 O52 2.067 . S
Zn43 O44 1.962 . S
Zn43 O46 1.986 . S
Zn43 O48 1.996 . S
Zn43 O51 1.943 . S
O44 Zn43 1.962 . S
O44 C49 1.254 . S
O45 Zn42 2.031 . S
O45 C49 1.269 . S
O46 Zn43 1.986 . S
O46 C53 1.262 . S
O47 Zn42 2.049 . S
O47 C55 1.260 . S
O48 Zn43 1.996 . S
O48 C55 1.257 . S
C49 O44 1.254 . S
C49 O45 1.269 . S
C50 O51 1.249 . S
C50 O52 1.270 . S
O51 Zn43 1.943 . S
O51 C50 1.249 . S
O52 Zn42 2.067 . S
O52 C50 1.270 . S
C53 O46 1.262 . S
C53 O54 1.232 . S
O54 C53 1.232 . S
C55 O47 1.260 . S
C55 O48 1.257 . S
Zn56 O59 2.031 . S
Zn56 O61 2.049 . S
Zn56 O66 2.067 . S
Zn57 O58 1.962 . S
Zn57 O60 1.986 . S
Zn57 O62 1.996 . S
Zn57 O65 1.943 . S
O58 Zn57 1.962 . S
O58 C63 1.254 . S
O59 Zn56 2.031 . S
O59 C63 1.269 . S
O60 Zn57 1.986 . S
O60 C67 1.262 . S
O61 Zn56 2.049 . S
O61 C69 1.260 . S
O62 Zn57 1.996 . S
O62 C69 1.257 . S
C63 O58 1.254 . S
C63 O59 1.269 . S
C64 O65 1.249 . S
C64 O66 1.270 . S
O65 Zn57 1.943 . S
O65 C64 1.249 . S
O66 Zn56 2.067 . S
O66 C64 1.270 . S
C67 O60 1.262 . S
C67 O68 1.232 . S
O68 C67 1.232 . S
C69 O61 1.260 . S
C69 O62 1.257 . S
Zn70 O73 2.031 . S
Zn70 O75 2.049 . S
Zn70 O80 2.067 . S
Zn71 O72 1.962 . S
Zn71 O74 1.986 . S
Zn71 O76 1.996 . S
Zn71 O79 1.943 . S
O72 Zn71 1.962 . S
O72 C77 1.254 . S
O73 Zn70 2.031 . S
O73 C77 1.269 . S
O74 Zn71 1.986 . S
O74 C81 1.262 . S
O75 Zn70 2.049 . S
O75 C83 1.260 . S
O76 Zn71 1.996 . S
O76 C83 1.257 . S
C77 O72 1.254 . S
C77 O73 1.269 . S
C78 O79 1.249 . S
C78 O80 1.270 . S
O79 Zn71 1.943 . S
O79 C78 1.249 . S
O80 Zn70 2.067 . S
O80 C78 1.270 . S
C81 O74 1.262 . S
C81 O82 1.232 . S
O82 C81 1.232 . S
C83 O75 1.260 . S
C83 O76 1.257 . S
Zn84 O87 2.031 . S
Zn84 O89 2.049 . S
Zn84 O94 2.067 . S
Zn85 O86 1.962 . S
Zn85 O88 1.986 . S
Zn85 O90 1.996 . S
Zn85 O93 1.943 . S
O86 Zn85 1.962 . S
O86 C91 1.254 . S
O87 Zn84 2.031 . S
O87 C91 1.269 . S
O88 Zn85 1.986 . S
O88 C95 1.262 . S
O89 Zn84 2.049 . S
O89 C97 1.260 . S
O90 Zn85 1.996 . S
O90 C97 1.257 . S
C91 O86 1.254 . S
C91 O87 1.269 . S
C92 O93 1.249 . S
C92 O94 1.270 . S
O93 Zn85 1.943 . S
O93 C92 1.249 . S
O94 Zn84 2.067 . S
O94 C92 1.270 . S
C95 O88 1.262 . S
C95 O96 1.232 . S
O96 C95 1.232 . S
C97 O89 1.260 . S
C97 O90 1.257 . S
Zn98 O101 2.031 . S
Zn98 O103 2.049 . S
Zn98 O108 2.067 . S
Zn99 O100 1.962 . S
Zn99 O102 1.986 . S
Zn99 O104 1.996 . S
Zn99 O107 1.943 . S
O100 Zn99 1.962 . S
O100 C105 1.254 . S
O101 Zn98 2.031 . S
O101 C105 1.269 . S
O102 Zn99 1.986 . S
O102 C109 1.262 . S
O103 Zn98 2.049 . S
O103 C111 1.260 . S
O104 Zn99 1.996 . S
O104 C111 1.257 . S
C105 O100 1.254 . S
C105 O101 1.269 . S
C106 O107 1.249 . S
C106 O108 1.270 . S
O107 Zn99 1.943 . S
O107 C106 1.249 . S
O108 Zn98 2.067 . S
O108 C106 1.270 . S
C109 O102 1.262 . S
C109 O110 1.232 . S
O110 C109 1.232 . S
C111 O103 1.260 . S
C111 O104 1.257 . S
Zn112 O115 2.031 . S
Zn112 O117 2.049 . S
Zn112 O122 2.067 . S
Zn113 O114 1.962 . S
Zn113 O116 1.986 . S
Zn113 O118 1.996 . S
Zn113 O121 1.943 . S
O114 Zn113 1.962 . S
O114 C119 1.254 . S
O115 Zn112 2.031 . S
O115 C119 1.269 . S
O116 Zn113 1.986 . S
O116 C123 1.262 . S
O117 Zn112 2.049 . S
O117 C125 1.260 . S
O118 Zn113 1.996 . S
O118 C125 1.257 . S
C119 O114 1.254 . S
C119 O115 1.269 . S
C120 O121 1.249 . S
C120 O122 1.270 . S
O121 Zn113 1.943 . S
O121 C120 1.249 . S
O122 Zn112 2.067 . S
O122 C120 1.270 . S
C123 O116 1.262 . S
C123 O124 1.232 . S
O124 C123 1.232 . S
C125 O117 1.260 . S
C125 O118 1.257 . S
Zn126 O129 2.031 . S
Zn126 O131 2.049 . S
Zn126 O136 2.067 . S
Zn127 O128 1.962 . S
Zn127 O130 1.986 . S
Zn127 O132 1.996 . S
Zn127 O135 1.943 . S
O128 Zn127 1.962 . S
O128 C133 1.254 . S
O129 Zn126 2.031 . S
O129 C133 1.269 . S
O130 Zn127 1.986 . S
O130 C137 1.262 . S
O131 Zn126 2.049 . S
O131 C139 1.260 . S
O132 Zn127 1.996 . S
O132 C139 1.257 . S
C133 O128 1.254 . S
C133 O129 1.269 . S
C134 O135 1.249 . S
C134 O136 1.270 . S
O135 Zn127 1.943 . S
O135 C134 1.249 . S
O136 Zn126 2.067 . S
O136 C134 1.270 . S
C137 O130 1.262 . S
C137 O138 1.232 . S
O138 C137 1.232 . S
C139 O131 1.260 . S
C139 O132 1.257 . S
Zn140 O143 2.031 . S
Zn140 O145 2.049 . S
Zn140 O150 2.067 . S
Zn141 O142 1.962 . S
Zn141 O144 1.986 . S
Zn141 O146 1.996 . S
Zn141 O149 1.943 . S
O142 Zn141 1.962 . S
O142 C147 1.254 . S
O143 Zn140 2.031 . S
O143 C147 1.269 . S
O144 Zn141 1.986 . S
O144 C151 1.262 . S
O145 Zn140 2.049 . S
O145 C153 1.260 . S
O146 Zn141 1.996 . S
O146 C153 1.257 . S
C147 O142 1.254 . S
C147 O143 1.269 . S
C148 O149 1.249 . S
C148 O150 1.270 . S
O149 Zn141 1.943 . S
O149 C148 1.249 . S
O150 Zn140 2.067 . S
O150 C148 1.270 . S
C151 O144 1.262 . S
C151 O152 1.232 . S
O152 C151 1.232 . S
C153 O145 1.260 . S
C153 O146 1.257 . S
Zn154 O157 2.031 . S
Zn154 O159 2.049 . S
Zn154 O164 2.067 . S
Zn155 O156 1.962 . S
Zn155 O158 1.986 . S
Zn155 O160 1.996 . S
Zn155 O163 1.943 . S
O156 Zn155 1.962 . S
O156 C161 1.254 . S
O157 Zn154 2.031 . S
O157 C161 1.269 . S
O158 Zn155 1.986 . S
O158 C165 1.262 . S
O159 Zn154 2.049 . S
O159 C167 1.260 . S
O160 Zn155 1.996 . S
O160 C167 1.257 . S
C161 O156 1.254 . S
C161 O157 1.269 . S
C162 O163 1.249 . S
C162 O164 1.270 . S
O163 Zn155 1.943 . S
O163 C162 1.249 . S
O164 Zn154 2.067 . S
O164 C162 1.270 . S
C165 O158 1.262 . S
C165 O166 1.232 . S
O166 C165 1.232 . S
C167 O159 1.260 . S
C167 O160 1.257 . S
Zn168 O171 2.031 . S
Zn168 O173 2.049 . S
Zn168 O178 2.067 . S
Zn169 O170 1.962 . S
Zn169 O172 1.986 . S
Zn169 O174 1.996 . S
Zn169 O177 1.943 . S
O170 Zn169 1.962 . S
O170 C175 1.254 . S
O171 Zn168 2.031 . S
O171 C175 1.269 . S
O172 Zn169 1.986 . S
O172 C179 1.262 . S
O173 Zn168 2.049 . S
O173 C181 1.260 . S
O174 Zn169 1.996 . S
O174 C181 1.257 . S
C175 O170 1.254 . S
C175 O171 1.269 . S
C176 O177 1.249 . S
C176 O178 1.270 . S
O177 Zn169 1.943 . S
O177 C176 1.249 . S
O178 Zn168 2.067 . S
O178 C176 1.270 . S
C179 O172 1.262 . S
C179 O180 1.232 . S
O180 C179 1.232 . S
C181 O173 1.260 . S
C181 O174 1.257 . S
Zn182 O185 2.031 . S
Zn182 O187 2.049 . S
Zn182 O192 2.067 . S
Zn183 O184 1.962 . S
Zn183 O186 1.986 . S
Zn183 O188 1.996 . S
Zn183 O191 1.943 . S
O184 Zn183 1.962 . S
O184 C189 1.254 . S
O185 Zn182 2.031 . S
O185 C189 1.269 . S
O186 Zn183 1.986 . S
O186 C193 1.262 . S
O187 Zn182 2.049 . S
O187 C195 1.260 . S
O188 Zn183 1.996 . S
O188 C195 1.257 . S
C189 O184 1.254 . S
C189 O185 1.269 . S
C190 O191 1.249 . S
C190 O192 1.270 . S
O191 Zn183 1.943 . S
O191 C190 1.249 . S
O192 Zn182 2.067 . S
O192 C190 1.270 . S
C193 O186 1.262 . S
C193 O194 1.232 . S
O194 C193 1.232 . S
C195 O187 1.260 . S
C195 O188 1.257 . S
Zn196 O199 2.031 . S
Zn196 O201 2.049 . S
Zn196 O206 2.067 . S
Zn197 O198 1.962 . S
Zn197 O200 1.986 . S
Zn197 O202 1.996 . S
Zn197 O205 1.943 . S
O198 Zn197 1.962 . S
O198 C203 1.254 . S
O199 Zn196 2.031 . S
O199 C203 1.269 . S
O200 Zn197 1.986 . S
O200 C207 1.262 . S
O201 Zn196 2.049 . S
O201 C209 1.260 . S
O202 Zn197 1.996 . S
O202 C209 1.257 . S
C203 O198 1.254 . S
C203 O199 1.269 . S
C204 O205 1.249 . S
C204 O206 1.270 . S
O205 Zn197 1.943 . S
O205 C204 1.249 . S
O206 Zn196 2.067 . S
O206 C204 1.270 . S
C207 O200 1.262 . S
C207 O208 1.232 . S
O208 C207 1.232 . S
C209 O201 1.260 . S
C209 O202 1.257 . S
Zn210 O213 2.031 . S
Zn210 O215 2.049 . S
Zn210 O220 2.067 . S
Zn211 O212 1.962 . S
Zn211 O214 1.986 . S
Zn211 O216 1.996 . S
Zn211 O219 1.943 . S
O212 Zn211 1.962 . S
O212 C217 1.254 . S
O213 Zn210 2.031 . S
O213 C217 1.269 . S
O214 Zn211 1.986 . S
O214 C221 1.262 . S
O215 Zn210 2.049 . S
O215 C223 1.260 . S
O216 Zn211 1.996 . S
O216 C223 1.257 . S
C217 O212 1.254 . S
C217 O213 1.269 . S
C218 O219 1.249 . S
C218 O220 1.270 . S
O219 Zn211 1.943 . S
O219 C218 1.249 . S
O220 Zn210 2.067 . S
O220 C218 1.270 . S
C221 O214 1.262 . S
C221 O222 1.232 . S
O222 C221 1.232 . S
C223 O215 1.260 . S
C223 O216 1.257 . S
Zn224 O227 2.031 . S
Zn224 O229 2.049 . S
Zn224 O234 2.067 . S
Zn225 O226 1.962 . S
Zn225 O228 1.986 . S
Zn225 O230 1.996 . S
Zn225 O233 1.943 . S
O226 Zn225 1.962 . S
O226 C231 1.254 . S
O227 Zn224 2.031 . S
O227 C231 1.269 . S
O228 Zn225 1.986 . S
O228 C235 1.262 . S
O229 Zn224 2.049 . S
O229 C237 1.260 . S
O230 Zn225 1.996 . S
O230 C237 1.257 . S
C231 O226 1.254 . S
C231 O227 1.269 . S
C232 O233 1.249 . S
C232 O234 1.270 . S
O233 Zn225 1.943 . S
O233 C232 1.249 . S
O234 Zn224 2.067 . S
O234 C232 1.270 . S
C235 O228 1.262 . S
C235 O236 1.232 . S
O236 C235 1.232 . S
C237 O229 1.260 . S
C237 O230 1.257 . S
Zn238 O241 2.031 . S
Zn238 O243 2.049 . S
Zn238 O248 2.067 . S
Zn239 O240 1.962 . S
Zn239 O242 1.986 . S
Zn239 O244 1.996 . S
Zn239 O247 1.943 . S
O240 Zn239 1.962 . S
O240 C245 1.254 . S
O241 Zn238 2.031 . S
O241 C245 1.269 . S
O242 Zn239 1.986 . S
O242 C249 1.262 . S
O243 Zn238 2.049 . S
O243 C251 1.260 . S
O244 Zn239 1.996 . S
O244 C251 1.257 . S
C245 O240 1.254 . S
C245 O241 1.269 . S
C246 O247 1.249 . S
C246 O248 1.270 . S
O247 Zn239 1.943 . S
O247 C246 1.249 . S
O248 Zn238 2.067 . S
O248 C246 1.270 . S
C249 O242 1.262 . S
C249 O250 1.232 . S
O250 C249 1.232 . S
C251 O243 1.260 . S
C251 O244 1.257 . S
Zn252 O255 2.031 . S
Zn252 O257 2.049 . S
Zn252 O262 2.067 . S
Zn253 O254 1.962 . S
Zn253 O256 1.986 . S
Zn253 O258 1.996 . S
Zn253 O261 1.943 . S
O254 Zn253 1.962 . S
O254 C259 1.254 . S
O255 Zn252 2.031 . S
O255 C259 1.269 . S
O256 Zn253 1.986 . S
O256 C263 1.262 . S
O257 Zn252 2.049 . S
O257 C265 1.260 . S
O258 Zn253 1.996 . S
O258 C265 1.257 . S
C259 O254 1.254 . S
C259 O255 1.269 . S
C260 O261 1.249 . S
C260 O262 1.270 . S
O261 Zn253 1.943 . S
O261 C260 1.249 . S
O262 Zn252 2.067 . S
O262 C260 1.270 . S
C263 O256 1.262 . S
C263 O264 1.232 . S
O264 C263 1.232 . S
C265 O257 1.260 . S
C265 O258 1.257 . S
Zn266 O269 2.031 . S
Zn266 O271 2.049 . S
Zn266 O276 2.067 . S
Zn267 O268 1.962 . S
Zn267 O270 1.986 . S
Zn267 O272 1.996 . S
Zn267 O275 1.943 . S
O268 Zn267 1.962 . S
O268 C273 1.254 . S
O269 Zn266 2.031 . S
O269 C273 1.269 . S
O270 Zn267 1.986 . S
O270 C277 1.262 . S
O271 Zn266 2.049 . S
O271 C279 1.260 . S
O272 Zn267 1.996 . S
O272 C279 1.257 . S
C273 O268 1.254 . S
C273 O269 1.269 . S
C274 O275 1.249 . S
C274 O276 1.270 . S
O275 Zn267 1.943 . S
O275 C274 1.249 . S
O276 Zn266 2.067 . S
O276 C274 1.270 . S
C277 O270 1.262 . S
C277 O278 1.232 . S
O278 C277 1.232 . S
C279 O271 1.260 . S
C279 O272 1.257 . S
Zn280 O283 2.031 . S
Zn280 O285 2.049 . S
Zn280 O290 2.067 . S
Zn281 O282 1.962 . S
Zn281 O284 1.986 . S
Zn281 O286 1.996 . S
Zn281 O289 1.943 . S
O282 Zn281 1.962 . S
O282 C287 1.254 . S
O283 Zn280 2.031 . S
O283 C287 1.269 . S
O284 Zn281 1.986 . S
O284 C291 1.262 . S
O285 Zn280 2.049 . S
O285 C293 1.260 . S
O286 Zn281 1.996 . S
O286 C293 1.257 . S
C287 O282 1.254 . S
C287 O283 1.269 . S
C288 O289 1.249 . S
C288 O290 1.270 . S
O289 Zn281 1.943 . S
O289 C288 1.249 . S
O290 Zn280 2.067 . S
O290 C288 1.270 . S
C291 O284 1.262 . S
C291 O292 1.232 . S
O292 C291 1.232 . S
C293 O285 1.260 . S
C293 O286 1.257 . S
Zn294 O297 2.031 . S
Zn294 O299 2.049 . S
Zn294 O304 2.067 . S
Zn295 O296 1.962 . S
Zn295 O298 1.986 . S
Zn295 O300 1.996 . S
Zn295 O303 1.943 . S
O296 Zn295 1.962 . S
O296 C301 1.254 . S
O297 Zn294 2.031 . S
O297 C301 1.269 . S
O298 Zn295 1.986 . S
O298 C305 1.262 . S
O299 Zn294 2.049 . S
O299 C307 1.260 . S
O300 Zn295 1.996 . S
O300 C307 1.257 . S
C301 O296 1.254 . S
C301 O297 1.269 . S
C302 O303 1.249 . S
C302 O304 1.270 . S
O303 Zn295 1.943 . S
O303 C302 1.249 . S
O304 Zn294 2.067 . S
O304 C302 1.270 . S
C305 O298 1.262 . S
C305 O306 1.232 . S
O306 C305 1.232 . S
C307 O299 1.260 . S
C307 O300 1.257 . S
Zn308 O311 2.031 . S
Zn308 O313 2.049 . S
Zn308 O318 2.067 . S
Zn309 O310 1.962 . S
Zn309 O312 1.986 . S
Zn309 O314 1.996 . S
Zn309 O317 1.943 . S
O310 Zn309 1.962 . S
O310 C315 1.254 . S
O311 Zn308 2.031 . S
O311 C315 1.269 . S
O312 Zn309 1.986 . S
O312 C319 1.262 . S
O313 Zn308 2.049 . S
O313 C321 1.260 . S
O314 Zn309 1.996 . S
O314 C321 1.257 . S
C315 O310 1.254 . S
C315 O311 1.269 . S
C316 O317 1.249 . S
C316 O318 1.270 . S
O317 Zn309 1.943 . S
O317 C316 1.249 . S
O318 Zn308 2.067 . S
O318 C316 1.270 . S
C319 O312 1.262 . S
C319 O320 1.232 . S
O320 C319 1.232 . S
C321 O313 1.260 . S
C321 O314 1.257 . S
Zn322 O325 2.031 . S
Zn322 O327 2.049 . S
Zn322 O332 2.067 . S
Zn323 O324 1.962 . S
Zn323 O326 1.986 . S
Zn323 O328 1.996 . S
Zn323 O331 1.943 . S
O324 Zn323 1.962 . S
O324 C329 1.254 . S
O325 Zn322 2.031 . S
O325 C329 1.269 . S
O326 Zn323 1.986 . S
O326 C333 1.262 . S
O327 Zn322 2.049 . S
O327 C335 1.260 . S
O328 Zn323 1.996 . S
O328 C335 1.257 . S
C329 O324 1.254 . S
C329 O325 1.269 . S
C330 O331 1.249 . S
C330 O332 1.270 . S
O331 Zn323 1.943 . S
O331 C330 1.249 . S
O332 Zn322 2.067 . S
O332 C330 1.270 . S
C333 O326 1.262 . S
C333 O334 1.232 . S
O334 C333 1.232 . S
C335 O327 1.260 . S
C335 O328 1.257 . S
Zn336 O339 2.031 . S
Zn336 O341 2.049 . S
Zn336 O346 2.067 . S
Zn337 O338 1.962 . S
Zn337 O340 1.986 . S
Zn337 O342 1.996 . S
Zn337 O345 1.943 . S
O338 Zn337 1.962 . S
O338 C343 1.254 . S
O339 Zn336 2.031 . S
O339 C343 1.269 . S
O340 Zn337 1.986 . S
O340 C347 1.262 . S
O341 Zn336 2.049 . S
O341 C349 1.260 . S
O342 Zn337 1.996 . S
O342 C349 1.257 . S
C343 O338 1.254 . S
C343 O339 1.269 . S
C344 O345 1.249 . S
C344 O346 1.270 . S
O345 Zn337 1.943 . S
O345 C344 1.249 . S
O346 Zn336 2.067 . S
O346 C344 1.270 . S
C347 O340 1.262 . S
C347 O348 1.232 . S
O348 C347 1.232 . S
C349 O341 1.260 . S
C349 O342 1.257 . S
Zn350 O353 2.031 . S
Zn350 O355 2.049 . S
Zn350 O360 2.067 . S
Zn351 O352 1.962 . S
Zn351 O354 1.986 . S
Zn351 O356 1.996 . S
Zn351 O359 1.943 . S
O352 Zn351 1.962 . S
O352 C357 1.254 . S
O353 Zn350 2.031 . S
O353 C357 1.269 . S
O354 Zn351 1.986 . S
O354 C361 1.262 . S
O355 Zn350 2.049 . S
O355 C363 1.260 . S
O356 Zn351 1.996 . S
O356 C363 1.257 . S
C357 O352 1.254 . S
C357 O353 1.269 . S
C358 O359 1.249 . S
C358 O360 1.270 . S
O359 Zn351 1.943 . S
O359 C358 1.249 . S
O360 Zn350 2.067 . S
O360 C358 1.270 . S
C361 O354 1.262 . S
C361 O362 1.232 . S
O362 C361 1.232 . S
C363 O355 1.260 . S
C363 O356 1.257 . S
Zn364 O367 2.031 . S
Zn364 O369 2.049 . S
Zn364 O374 2.067 . S
Zn365 O366 1.962 . S
Zn365 O368 1.986 . S
Zn365 O370 1.996 . S
Zn365 O373 1.943 . S
O366 Zn365 1.962 . S
O366 C371 1.254 . S
O367 Zn364 2.031 . S
O367 C371 1.269 . S
O368 Zn365 1.986 . S
O368 C375 1.262 . S
O369 Zn364 2.049 . S
O369 C377 1.260 . S
O370 Zn365 1.996 . S
O370 C377 1.257 . S
C371 O366 1.254 . S
C371 O367 1.269 . S
C372 O373 1.249 . S
C372 O374 1.270 . S
O373 Zn365 1.943 . S
O373 C372 1.249 . S
O374 Zn364 2.067 . S
O374 C372 1.270 . S
C375 O368 1.262 . S
C375 O376 1.232 . S
O376 C375 1.232 . S
C377 O369 1.260 . S
C377 O370 1.257 . S
Zn378 O381 2.031 . S
Zn378 O383 2.049 . S
Zn378 O388 2.067 . S
Zn379 O380 1.962 . S
Zn379 O382 1.986 . S
Zn379 O384 1.996 . S
Zn379 O387 1.943 . S
O380 Zn379 1.962 . S
O380 C385 1.254 . S
O381 Zn378 2.031 . S
O381 C385 1.269 . S
O382 Zn379 1.986 . S
O382 C389 1.262 . S
O383 Zn378 2.049 . S
O383 C391 1.260 . S
O384 Zn379 1.996 . S
O384 C391 1.257 . S
C385 O380 1.254 . S
C385 O381 1.269 . S
C386 O387 1.249 . S
C386 O388 1.270 . S
O387 Zn379 1.943 . S
O387 C386 1.249 . S
O388 Zn378 2.067 . S
O388 C386 1.270 . S
C389 O382 1.262 . S
C389 O390 1.232 . S
O390 C389 1.232 . S
C391 O383 1.260 . S
C391 O384 1.257 . S
Zn392 O395 2.031 . S
Zn392 O397 2.049 . S
Zn392 O402 2.067 . S
Zn393 O394 1.962 . S
Zn393 O396 1.986 . S
Zn393 O398 1.996 . S
Zn393 O401 1.943 . S
O394 Zn393 1.962 . S
O394 C399 1.254 . S
O395 Zn392 2.031 . S
O395 C399 1.269 . S
O396 Zn393 1.986 . S
O396 C403 1.262 . S
O397 Zn392 2.049 . S
O397 C405 1.260 . S
O398 Zn393 1.996 . S
O398 C405 1.257 . S
C399 O394 1.254 . S
C399 O395 1.269 . S
C400 O401 1.249 . S
C400 O402 1.270 . S
O401 Zn393 1.943 . S
O401 C400 1.249 . S
O402 Zn392 2.067 . S
O402 C400 1.270 . S
C403 O396 1.262 . S
C403 O404 1.232 . S
O404 C403 1.232 . S
C405 O397 1.260 . S
C405 O398 1.257 . S
Zn406 O409 2.031 . S
Zn406 O411 2.049 . S
Zn406 O416 2.067 . S
Zn407 O408 1.962 . S
Zn407 O410 1.986 . S
Zn407 O412 1.996 . S
Zn407 O415 1.943 . S
O408 Zn407 1.962 . S
O408 C413 1.254 . S
O409 Zn406 2.031 . S
O409 C413 1.269 . S
O410 Zn407 1.986 . S
O410 C417 1.262 . S
O411 Zn406 2.049 . S
O411 C419 1.260 . S
O412 Zn407 1.996 . S
O412 C419 1.257 . S
C413 O408 1.254 . S
C413 O409 1.269 . S
C414 O415 1.249 . S
C414 O416 1.270 . S
O415 Zn407 1.943 . S
O415 C414 1.249 . S
O416 Zn406 2.067 . S
O416 C414 1.270 . S
C417 O410 1.262 . S
C417 O418 1.232 . S
O418 C417 1.232 . S
C419 O411 1.260 . S
C419 O412 1.257 . S
Zn420 O423 2.031 . S
Zn420 O425 2.049 . S
Zn420 O430 2.067 . S
Zn421 O422 1.962 . S
Zn421 O424 1.986 . S
Zn421 O426 1.996 . S
Zn421 O429 1.943 . S
O422 Zn421 1.962 . S
O422 C427 1.254 . S
O423 Zn420 2.031 . S
O423 C427 1.269 . S
O424 Zn421 1.986 . S
O424 C431 1.262 . S
O425 Zn420 2.049 . S
O425 C433 1.260 . S
O426 Zn421 1.996 . S
O426 C433 1.257 . S
C427 O422 1.254 . S
C427 O423 1.269 . S
C428 O429 1.249 . S
C428 O430 1.270 . S
O429 Zn421 1.943 . S
O429 C428 1.249 . S
O430 Zn420 2.067 . S
O430 C428 1.270 . S
C431 O424 1.262 . S
C431 O432 1.232 . S
O432 C431 1.232 . S
C433 O425 1.260 . S
C433 O426 1.257 . S
Zn434 O437 2.031 . S
Zn434 O439 2.049 . S
Zn434 O444 2.067 . S
Zn435 O436 1.962 . S
Zn435 O438 1.986 . S
Zn435 O440 1.996 . S
Zn435 O443 1.943 . S
O436 Zn435 1.962 . S
O436 C441 1.254 . S
O437 Zn434 2.031 . S
O437 C441 1.269 . S
O438 Zn435 1.986 . S
O438 C445 1.262 . S
O439 Zn434 2.049 . S
O439 C447 1.260 . S
O440 Zn435 1.996 . S
O440 C447 1.257 . S
C441 O436 1.254 . S
C441 O437 1.269 . S
C442 O443 1.249 . S
C442 O444 1.270 . S
O443 Zn435 1.943 . S
O443 C442 1.249 . S
O444 Zn434 2.067 . S
O444 C442 1.270 . S
C445 O438 1.262 . S
C445 O446 1.232 . S
O446 C445 1.232 . S
C447 O439 1.260 . S
C447 O440 1.257 . S
C448 C449 1.349 . S
C448 C450 1.327 . S
C448 H473 0.950 . S
C449 C448 1.349 . S
C449 C465 1.349 . S
C450 C448 1.327 . S
C450 C469 1.429 . S
C450 H474 0.950 . S
C451 C468 1.574 . S
C451 C470 1.368 . S
C451 H475 0.949 . S
H452 C456 0.949 . S
C453 C454 1.349 . S
C453 C455 1.327 . S
C453 H476 0.950 . S
C454 C453 1.349 . S
C454 C466 1.349 . S
C455 C453 1.327 . S
C455 C471 1.429 . S
C455 H477 0.950 . S
C456 H452 0.949 . S
C456 C464 1.574 . S
C456 C472 1.368 . S
H457 C465 0.950 . S
H458 C463 0.950 . S
H459 C464 0.949 . S
H460 C466 0.950 . S
H461 C467 0.950 . S
H462 C468 0.949 . S
C463 H458 0.950 . S
C463 C465 1.327 . S
C463 C469 1.429 . S
C464 C456 1.574 . S
C464 H459 0.949 . S
C464 C470 1.368 . S
C465 C449 1.349 . S
C465 H457 0.950 . S
C465 C463 1.327 . S
C466 C454 1.349 . S
C466 H460 0.950 . S
C466 C467 1.327 . S
C467 H461 0.950 . S
C467 C466 1.327 . S
C467 C471 1.429 . S
C468 C451 1.574 . S
C468 H462 0.949 . S
C468 C472 1.368 . S
C469 C450 1.429 . S
C469 C463 1.429 . S
C469 C470 1.523 . S
C470 C451 1.368 . S
C470 C464 1.368 . S
C470 C469 1.523 . S
C471 C455 1.429 . S
C471 C467 1.429 . S
C471 C472 1.523 . S
C472 C456 1.368 . S
C472 C468 1.368 . S
C472 C471 1.523 . S
H473 C448 0.950 . S
H474 C450 0.950 . S
H475 C451 0.949 . S
H476 C453 0.950 . S
H477 C455 0.950 . S
C478 C479 1.349 . S
C478 C480 1.327 . S
C478 H503 0.950 . S
C479 C478 1.349 . S
C479 C495 1.349 . S
C480 C478 1.327 . S
C480 C499 1.429 . S
C480 H504 0.950 . S
C481 C498 1.574 . S
C481 C500 1.368 . S
C481 H505 0.949 . S
H482 C486 0.949 . S
C483 C484 1.349 . S
C483 C485 1.327 . S
C483 H506 0.950 . S
C484 C483 1.349 . S
C484 C496 1.349 . S
C485 C483 1.327 . S
C485 C501 1.429 . S
C485 H507 0.950 . S
C486 H482 0.949 . S
C486 C494 1.574 . S
C486 C502 1.368 . S
H487 C495 0.950 . S
H488 C493 0.950 . S
H489 C494 0.949 . S
H490 C496 0.950 . S
H491 C497 0.950 . S
H492 C498 0.949 . S
C493 H488 0.950 . S
C493 C495 1.327 . S
C493 C499 1.429 . S
C494 C486 1.574 . S
C494 H489 0.949 . S
C494 C500 1.368 . S
C495 C479 1.349 . S
C495 H487 0.950 . S
C495 C493 1.327 . S
C496 C484 1.349 . S
C496 H490 0.950 . S
C496 C497 1.327 . S
C497 H491 0.950 . S
C497 C496 1.327 . S
C497 C501 1.429 . S
C498 C481 1.574 . S
C498 H492 0.949 . S
C498 C502 1.368 . S
C499 C480 1.429 . S
C499 C493 1.429 . S
C499 C500 1.523 . S
C500 C481 1.368 . S
C500 C494 1.368 . S
C500 C499 1.523 . S
C501 C485 1.429 . S
C501 C497 1.429 . S
C501 C502 1.523 . S
C502 C486 1.368 . S
C502 C498 1.368 . S
C502 C501 1.523 . S
H503 C478 0.950 . S
H504 C480 0.950 . S
H505 C481 0.949 . S
H506 C483 0.950 . S
H507 C485 0.950 . S
C508 C509 1.349 . S
C508 C510 1.327 . S
C508 H533 0.950 . S
C509 C508 1.349 . S
C509 C525 1.349 . S
C510 C508 1.327 . S
C510 C529 1.429 . S
C510 H534 0.950 . S
C511 C528 1.574 . S
C511 C530 1.368 . S
C511 H535 0.949 . S
H512 C516 0.949 . S
C513 C514 1.349 . S
C513 C515 1.327 . S
C513 H536 0.950 . S
C514 C513 1.349 . S
C514 C526 1.349 . S
C515 C513 1.327 . S
C515 C531 1.429 . S
C515 H537 0.950 . S
C516 H512 0.949 . S
C516 C524 1.574 . S
C516 C532 1.368 . S
H517 C525 0.950 . S
H518 C523 0.950 . S
H519 C524 0.949 . S
H520 C526 0.950 . S
H521 C527 0.950 . S
H522 C528 0.949 . S
C523 H518 0.950 . S
C523 C525 1.327 . S
C523 C529 1.429 . S
C524 C516 1.574 . S
C524 H519 0.949 . S
C524 C530 1.368 . S
C525 C509 1.349 . S
C525 H517 0.950 . S
C525 C523 1.327 . S
C526 C514 1.349 . S
C526 H520 0.950 . S
C526 C527 1.327 . S
C527 H521 0.950 . S
C527 C526 1.327 . S
C527 C531 1.429 . S
C528 C511 1.574 . S
C528 H522 0.949 . S
C528 C532 1.368 . S
C529 C510 1.429 . S
C529 C523 1.429 . S
C529 C530 1.523 . S
C530 C511 1.368 . S
C530 C524 1.368 . S
C530 C529 1.523 . S
C531 C515 1.429 . S
C531 C527 1.429 . S
C531 C532 1.523 . S
C532 C516 1.368 . S
C532 C528 1.368 . S
C532 C531 1.523 . S
H533 C508 0.950 . S
H534 C510 0.950 . S
H535 C511 0.949 . S
H536 C513 0.950 . S
H537 C515 0.950 . S
C538 C539 1.349 . S
C538 C540 1.327 . S
C538 H563 0.950 . S
C539 C538 1.349 . S
C539 C555 1.349 . S
C540 C538 1.327 . S
C540 C559 1.429 . S
C540 H564 0.950 . S
C541 C558 1.574 . S
C541 C560 1.368 . S
C541 H565 0.949 . S
H542 C546 0.949 . S
C543 C544 1.349 . S
C543 C545 1.327 . S
C543 H566 0.950 . S
C544 C543 1.349 . S
C544 C556 1.349 . S
C545 C543 1.327 . S
C545 C561 1.429 . S
C545 H567 0.950 . S
C546 H542 0.949 . S
C546 C554 1.574 . S
C546 C562 1.368 . S
H547 C555 0.950 . S
H548 C553 0.950 . S
H549 C554 0.949 . S
H550 C556 0.950 . S
H551 C557 0.950 . S
H552 C558 0.949 . S
C553 H548 0.950 . S
C553 C555 1.327 . S
C553 C559 1.429 . S
C554 C546 1.574 . S
C554 H549 0.949 . S
C554 C560 1.368 . S
C555 C539 1.349 . S
C555 H547 0.950 . S
C555 C553 1.327 . S
C556 C544 1.349 . S
C556 H550 0.950 . S
C556 C557 1.327 . S
C557 H551 0.950 . S
C557 C556 1.327 . S
C557 C561 1.429 . S
C558 C541 1.574 . S
C558 H552 0.949 . S
C558 C562 1.368 . S
C559 C540 1.429 . S
C559 C553 1.429 . S
C559 C560 1.523 . S
C560 C541 1.368 . S
C560 C554 1.368 . S
C560 C559 1.523 . S
C561 C545 1.429 . S
C561 C557 1.429 . S
C561 C562 1.523 . S
C562 C546 1.368 . S
C562 C558 1.368 . S
C562 C561 1.523 . S
H563 C538 0.950 . S
H564 C540 0.950 . S
H565 C541 0.949 . S
H566 C543 0.950 . S
H567 C545 0.950 . S
C568 C569 1.349 . S
C568 C570 1.327 . S
C568 H593 0.950 . S
C569 C568 1.349 . S
C569 C585 1.349 . S
C570 C568 1.327 . S
C570 C589 1.429 . S
C570 H594 0.950 . S
C571 C588 1.574 . S
C571 C590 1.368 . S
C571 H595 0.949 . S
H572 C576 0.949 . S
C573 C574 1.349 . S
C573 C575 1.327 . S
C573 H596 0.950 . S
C574 C573 1.349 . S
C574 C586 1.349 . S
C575 C573 1.327 . S
C575 C591 1.429 . S
C575 H597 0.950 . S
C576 H572 0.949 . S
C576 C584 1.574 . S
C576 C592 1.368 . S
H577 C585 0.950 . S
H578 C583 0.950 . S
H579 C584 0.949 . S
H580 C586 0.950 . S
H581 C587 0.950 . S
H582 C588 0.949 . S
C583 H578 0.950 . S
C583 C585 1.327 . S
C583 C589 1.429 . S
C584 C576 1.574 . S
C584 H579 0.949 . S
C584 C590 1.368 . S
C585 C569 1.349 . S
C585 H577 0.950 . S
C585 C583 1.327 . S
C586 C574 1.349 . S
C586 H580 0.950 . S
C586 C587 1.327 . S
C587 H581 0.950 . S
C587 C586 1.327 . S
C587 C591 1.429 . S
C588 C571 1.574 . S
C588 H582 0.949 . S
C588 C592 1.368 . S
C589 C570 1.429 . S
C589 C583 1.429 . S
C589 C590 1.523 . S
C590 C571 1.368 . S
C590 C584 1.368 . S
C590 C589 1.523 . S
C591 C575 1.429 . S
C591 C587 1.429 . S
C591 C592 1.523 . S
C592 C576 1.368 . S
C592 C588 1.368 . S
C592 C591 1.523 . S
H593 C568 0.950 . S
H594 C570 0.950 . S
H595 C571 0.949 . S
H596 C573 0.950 . S
H597 C575 0.950 . S
C598 C599 1.349 . S
C598 C600 1.327 . S
C598 H623 0.950 . S
C599 C598 1.349 . S
C599 C615 1.349 . S
C600 C598 1.327 . S
C600 C619 1.429 . S
C600 H624 0.950 . S
C601 C618 1.574 . S
C601 C620 1.368 . S
C601 H625 0.949 . S
H602 C606 0.949 . S
C603 C604 1.349 . S
C603 C605 1.327 . S
C603 H626 0.950 . S
C604 C603 1.349 . S
C604 C616 1.349 . S
C605 C603 1.327 . S
C605 C621 1.429 . S
C605 H627 0.950 . S
C606 H602 0.949 . S
C606 C614 1.574 . S
C606 C622 1.368 . S
H607 C615 0.950 . S
H608 C613 0.950 . S
H609 C614 0.949 . S
H610 C616 0.950 . S
H611 C617 0.950 . S
H612 C618 0.949 . S
C613 H608 0.950 . S
C613 C615 1.327 . S
C613 C619 1.429 . S
C614 C606 1.574 . S
C614 H609 0.949 . S
C614 C620 1.368 . S
C615 C599 1.349 . S
C615 H607 0.950 . S
C615 C613 1.327 . S
C616 C604 1.349 . S
C616 H610 0.950 . S
C616 C617 1.327 . S
C617 H611 0.950 . S
C617 C616 1.327 . S
C617 C621 1.429 . S
C618 C601 1.574 . S
C618 H612 0.949 . S
C618 C622 1.368 . S
C619 C600 1.429 . S
C619 C613 1.429 . S
C619 C620 1.523 . S
C620 C601 1.368 . S
C620 C614 1.368 . S
C620 C619 1.523 . S
C621 C605 1.429 . S
C621 C617 1.429 . S
C621 C622 1.523 . S
C622 C606 1.368 . S
C622 C618 1.368 . S
C622 C621 1.523 . S
H623 C598 0.950 . S
H624 C600 0.950 . S
H625 C601 0.949 . S
H626 C603 0.950 . S
H627 C605 0.950 . S
C628 C629 1.349 . S
C628 C630 1.327 . S
C628 H653 0.950 . S
C629 C628 1.349 . S
C629 C645 1.349 . S
C630 C628 1.327 . S
C630 C649 1.429 . S
C630 H654 0.950 . S
C631 C648 1.574 . S
C631 C650 1.368 . S
C631 H655 0.949 . S
H632 C636 0.949 . S
C633 C634 1.349 . S
C633 C635 1.327 . S
C633 H656 0.950 . S
C634 C633 1.349 . S
C634 C646 1.349 . S
C635 C633 1.327 . S
C635 C651 1.429 . S
C635 H657 0.950 . S
C636 H632 0.949 . S
C636 C644 1.574 . S
C636 C652 1.368 . S
H637 C645 0.950 . S
H638 C643 0.950 . S
H639 C644 0.949 . S
H640 C646 0.950 . S
H641 C647 0.950 . S
H642 C648 0.949 . S
C643 H638 0.950 . S
C643 C645 1.327 . S
C643 C649 1.429 . S
C644 C636 1.574 . S
C644 H639 0.949 . S
C644 C650 1.368 . S
C645 C629 1.349 . S
C645 H637 0.950 . S
C645 C643 1.327 . S
C646 C634 1.349 . S
C646 H640 0.950 . S
C646 C647 1.327 . S
C647 H641 0.950 . S
C647 C646 1.327 . S
C647 C651 1.429 . S
C648 C631 1.574 . S
C648 H642 0.949 . S
C648 C652 1.368 . S
C649 C630 1.429 . S
C649 C643 1.429 . S
C649 C650 1.523 . S
C650 C631 1.368 . S
C650 C644 1.368 . S
C650 C649 1.523 . S
C651 C635 1.429 . S
C651 C647 1.429 . S
C651 C652 1.523 . S
C652 C636 1.368 . S
C652 C648 1.368 . S
C652 C651 1.523 . S
H653 C628 0.950 . S
H654 C630 0.950 . S
H655 C631 0.949 . S
H656 C633 0.950 . S
H657 C635 0.950 . S
C658 C659 1.349 . S
C658 C660 1.327 . S
C658 H683 0.950 . S
C659 C658 1.349 . S
C659 C675 1.349 . S
C660 C658 1.327 . S
C660 C679 1.429 . S
C660 H684 0.950 . S
C661 C678 1.574 . S
C661 C680 1.368 . S
C661 H685 0.949 . S
H662 C666 0.949 . S
C663 C664 1.349 . S
C663 C665 1.327 . S
C663 H686 0.950 . S
C664 C663 1.349 . S
C664 C676 1.349 . S
C665 C663 1.327 . S
C665 C681 1.429 . S
C665 H687 0.950 . S
C666 H662 0.949 . S
C666 C674 1.574 . S
C666 C682 1.368 . S
H667 C675 0.950 . S
H668 C673 0.950 . S
H669 C674 0.949 . S
H670 C676 0.950 . S
H671 C677 0.950 . S
H672 C678 0.949 . S
C673 H668 0.950 . S
C673 C675 1.327 . S
C673 C679 1.429 . S
C674 C666 1.574 . S
C674 H669 0.949 . S
C674 C680 1.368 . S
C675 C659 1.349 . S
C675 H667 0.950 . S
C675 C673 1.327 . S
C676 C664 1.349 . S
C676 H670 0.950 . S
C676 C677 1.327 . S
C677 H671 0.950 . S
C677 C676 1.327 . S
C677 C681 1.429 . S
C678 C661 1.574 . S
C678 H672 0.949 . S
C678 C682 1.368 . S
C679 C660 1.429 . S
C679 C673 1.429 . S
C679 C680 1.523 . S
C680 C661 1.368 . S
C680 C674 1.368 . S
C680 C679 1.523 . S
C681 C665 1.429 . S
C681 C677 1.429 . S
C681 C682 1.523 . S
C682 C666 1.368 . S
C682 C678 1.368 . S
C682 C681 1.523 . S
H683 C658 0.950 . S
H684 C660 0.950 . S
H685 C661 0.949 . S
H686 C663 0.950 . S
H687 C665 0.950 . S
C688 C689 1.349 . S
C688 C690 1.327 . S
C688 H713 0.950 . S
C689 C688 1.349 . S
C689 C705 1.349 . S
C690 C688 1.327 . S
C690 C709 1.429 . S
C690 H714 0.950 . S
C691 C708 1.574 . S
C691 C710 1.368 . S
C691 H715 0.949 . S
H692 C696 0.949 . S
C693 C694 1.349 . S
C693 C695 1.327 . S
C693 H716 0.950 . S
C694 C693 1.349 . S
C694 C706 1.349 . S
C695 C693 1.327 . S
C695 C711 1.429 . S
C695 H717 0.950 . S
C696 H692 0.949 . S
C696 C704 1.574 . S
C696 C712 1.368 . S
H697 C705 0.950 . S
H698 C703 0.950 . S
H699 C704 0.949 . S
H700 C706 0.950 . S
H701 C707 0.950 . S
H702 C708 0.949 . S
C703 H698 0.950 . S
C703 C705 1.327 . S
C703 C709 1.429 . S
C704 C696 1.574 . S
C704 H699 0.949 . S
C704 C710 1.368 . S
C705 C689 1.349 . S
C705 H697 0.950 . S
C705 C703 1.327 . S
C706 C694 1.349 . S
C706 H700 0.950 . S
C706 C707 1.327 . S
C707 H701 0.950 . S
C707 C706 1.327 . S
C707 C711 1.429 . S
C708 C691 1.574 . S
C708 H702 0.949 . S
C708 C712 1.368 . S
C709 C690 1.429 . S
C709 C703 1.429 . S
C709 C710 1.523 . S
C710 C691 1.368 . S
C710 C704 1.368 . S
C710 C709 1.523 . S
C711 C695 1.429 . S
C711 C707 1.429 . S
C711 C712 1.523 . S
C712 C696 1.368 . S
C712 C708 1.368 . S
C712 C711 1.523 . S
H713 C688 0.950 . S
H714 C690 0.950 . S
H715 C691 0.949 . S
H716 C693 0.950 . S
H717 C695 0.950 . S
C718 C719 1.349 . S
C718 C720 1.327 . S
C718 H743 0.950 . S
C719 C718 1.349 . S
C719 C735 1.349 . S
C720 C718 1.327 . S
C720 C739 1.429 . S
C720 H744 0.950 . S
C721 C738 1.574 . S
C721 C740 1.368 . S
C721 H745 0.949 . S
H722 C726 0.949 . S
C723 C724 1.349 . S
C723 C725 1.327 . S
C723 H746 0.950 . S
C724 C723 1.349 . S
C724 C736 1.349 . S
C725 C723 1.327 . S
C725 C741 1.429 . S
C725 H747 0.950 . S
C726 H722 0.949 . S
C726 C734 1.574 . S
C726 C742 1.368 . S
H727 C735 0.950 . S
H728 C733 0.950 . S
H729 C734 0.949 . S
H730 C736 0.950 . S
H731 C737 0.950 . S
H732 C738 0.949 . S
C733 H728 0.950 . S
C733 C735 1.327 . S
C733 C739 1.429 . S
C734 C726 1.574 . S
C734 H729 0.949 . S
C734 C740 1.368 . S
C735 C719 1.349 . S
C735 H727 0.950 . S
C735 C733 1.327 . S
C736 C724 1.349 . S
C736 H730 0.950 . S
C736 C737 1.327 . S
C737 H731 0.950 . S
C737 C736 1.327 . S
C737 C741 1.429 . S
C738 C721 1.574 . S
C738 H732 0.949 . S
C738 C742 1.368 . S
C739 C720 1.429 . S
C739 C733 1.429 . S
C739 C740 1.523 . S
C740 C721 1.368 . S
C740 C734 1.368 . S
C740 C739 1.523 . S
C741 C725 1.429 . S
C741 C737 1.429 . S
C741 C742 1.523 . S
C742 C726 1.368 . S
C742 C738 1.368 . S
C742 C741 1.523 . S
H743 C718 0.950 . S
H744 C720 0.950 . S
H745 C721 0.949 . S
H746 C723 0.950 . S
H747 C725 0.950 . S
C748 C749 1.349 . S
C748 C750 1.327 . S
C748 H773 0.950 . S
C749 C748 1.349 . S
C749 C765 1.349 . S
C750 C748 1.327 . S
C750 C769 1.429 . S
C750 H774 0.950 . S
C751 C768 1.574 . S
C751 C770 1.368 . S
C751 H775 0.949 . S
H752 C756 0.949 . S
C753 C754 1.349 . S
C753 C755 1.327 . S
C753 H776 0.950 . S
C754 C753 1.349 . S
C754 C766 1.349 . S
C755 C753 1.327 . S
C755 C771 1.429 . S
C755 H777 0.950 . S
C756 H752 0.949 . S
C756 C764 1.574 . S
C756 C772 1.368 . S
H757 C765 0.950 . S
H758 C763 0.950 . S
H759 C764 0.949 . S
H760 C766 0.950 . S
H761 C767 0.950 . S
H762 C768 0.949 . S
C763 H758 0.950 . S
C763 C765 1.327 . S
C763 C769 1.429 . S
C764 C756 1.574 . S
C764 H759 0.949 . S
C764 C770 1.368 . S
C765 C749 1.349 . S
C765 H757 0.950 . S
C765 C763 1.327 . S
C766 C754 1.349 . S
C766 H760 0.950 . S
C766 C767 1.327 . S
C767 H761 0.950 . S
C767 C766 1.327 . S
C767 C771 1.429 . S
C768 C751 1.574 . S
C768 H762 0.949 . S
C768 C772 1.368 . S
C769 C750 1.429 . S
C769 C763 1.429 . S
C769 C770 1.523 . S
C770 C751 1.368 . S
C770 C764 1.368 . S
C770 C769 1.523 . S
C771 C755 1.429 . S
C771 C767 1.429 . S
C771 C772 1.523 . S
C772 C756 1.368 . S
C772 C768 1.368 . S
C772 C771 1.523 . S
H773 C748 0.950 . S
H774 C750 0.950 . S
H775 C751 0.949 . S
H776 C753 0.950 . S
H777 C755 0.950 . S
C778 C779 1.349 . S
C778 C780 1.327 . S
C778 H803 0.950 . S
C779 C778 1.349 . S
C779 C795 1.349 . S
C780 C778 1.327 . S
C780 C799 1.429 . S
C780 H804 0.950 . S
C781 C798 1.574 . S
C781 C800 1.368 . S
C781 H805 0.949 . S
H782 C786 0.949 . S
C783 C784 1.349 . S
C783 C785 1.327 . S
C783 H806 0.950 . S
C784 C783 1.349 . S
C784 C796 1.349 . S
C785 C783 1.327 . S
C785 C801 1.429 . S
C785 H807 0.950 . S
C786 H782 0.949 . S
C786 C794 1.574 . S
C786 C802 1.368 . S
H787 C795 0.950 . S
H788 C793 0.950 . S
H789 C794 0.949 . S
H790 C796 0.950 . S
H791 C797 0.950 . S
H792 C798 0.949 . S
C793 H788 0.950 . S
C793 C795 1.327 . S
C793 C799 1.429 . S
C794 C786 1.574 . S
C794 H789 0.949 . S
C794 C800 1.368 . S
C795 C779 1.349 . S
C795 H787 0.950 . S
C795 C793 1.327 . S
C796 C784 1.349 . S
C796 H790 0.950 . S
C796 C797 1.327 . S
C797 H791 0.950 . S
C797 C796 1.327 . S
C797 C801 1.429 . S
C798 C781 1.574 . S
C798 H792 0.949 . S
C798 C802 1.368 . S
C799 C780 1.429 . S
C799 C793 1.429 . S
C799 C800 1.523 . S
C800 C781 1.368 . S
C800 C794 1.368 . S
C800 C799 1.523 . S
C801 C785 1.429 . S
C801 C797 1.429 . S
C801 C802 1.523 . S
C802 C786 1.368 . S
C802 C798 1.368 . S
C802 C801 1.523 . S
H803 C778 0.950 . S
H804 C780 0.950 . S
H805 C781 0.949 . S
H806 C783 0.950 . S
H807 C785 0.950 . S
C808 C809 1.349 . S
C808 C810 1.327 . S
C808 H833 0.950 . S
C809 C808 1.349 . S
C809 C825 1.349 . S
C810 C808 1.327 . S
C810 C829 1.429 . S
C810 H834 0.950 . S
C811 C828 1.574 . S
C811 C830 1.368 . S
C811 H835 0.949 . S
H812 C816 0.949 . S
C813 C814 1.349 . S
C813 C815 1.327 . S
C813 H836 0.950 . S
C814 C813 1.349 . S
C814 C826 1.349 . S
C815 C813 1.327 . S
C815 C831 1.429 . S
C815 H837 0.950 . S
C816 H812 0.949 . S
C816 C824 1.574 . S
C816 C832 1.368 . S
H817 C825 0.950 . S
H818 C823 0.950 . S
H819 C824 0.949 . S
H820 C826 0.950 . S
H821 C827 0.950 . S
H822 C828 0.949 . S
C823 H818 0.950 . S
C823 C825 1.327 . S
C823 C829 1.429 . S
C824 C816 1.574 . S
C824 H819 0.949 . S
C824 C830 1.368 . S
C825 C809 1.349 . S
C825 H817 0.950 . S
C825 C823 1.327 . S
C826 C814 1.349 . S
C826 H820 0.950 . S
C826 C827 1.327 . S
C827 H821 0.950 . S
C827 C826 1.327 . S
C827 C831 1.429 . S
C828 C811 1.574 . S
C828 H822 0.949 . S
C828 C832 1.368 . S
C829 C810 1.429 . S
C829 C823 1.429 . S
C829 C830 1.523 . S
C830 C811 1.368 . S
C830 C824 1.368 . S
C830 C829 1.523 . S
C831 C815 1.429 . S
C831 C827 1.429 . S
C831 C832 1.523 . S
C832 C816 1.368 . S
C832 C828 1.368 . S
C832 C831 1.523 . S
H833 C808 0.950 . S
H834 C810 0.950 . S
H835 C811 0.949 . S
H836 C813 0.950 . S
H837 C815 0.950 . S
C838 C839 1.349 . S
C838 C840 1.327 . S
C838 H863 0.950 . S
C839 C838 1.349 . S
C839 C855 1.349 . S
C840 C838 1.327 . S
C840 C859 1.429 . S
C840 H864 0.950 . S
C841 C858 1.574 . S
C841 C860 1.368 . S
C841 H865 0.949 . S
H842 C846 0.949 . S
C843 C844 1.349 . S
C843 C845 1.327 . S
C843 H866 0.950 . S
C844 C843 1.349 . S
C844 C856 1.349 . S
C845 C843 1.327 . S
C845 C861 1.429 . S
C845 H867 0.950 . S
C846 H842 0.949 . S
C846 C854 1.574 . S
C846 C862 1.368 . S
H847 C855 0.950 . S
H848 C853 0.950 . S
H849 C854 0.949 . S
H850 C856 0.950 . S
H851 C857 0.950 . S
H852 C858 0.949 . S
C853 H848 0.950 . S
C853 C855 1.327 . S
C853 C859 1.429 . S
C854 C846 1.574 . S
C854 H849 0.949 . S
C854 C860 1.368 . S
C855 C839 1.349 . S
C855 H847 0.950 . S
C855 C853 1.327 . S
C856 C844 1.349 . S
C856 H850 0.950 . S
C856 C857 1.327 . S
C857 H851 0.950 . S
C857 C856 1.327 . S
C857 C861 1.429 . S
C858 C841 1.574 . S
C858 H852 0.949 . S
C858 C862 1.368 . S
C859 C840 1.429 . S
C859 C853 1.429 . S
C859 C860 1.523 . S
C860 C841 1.368 . S
C860 C854 1.368 . S
C860 C859 1.523 . S
C861 C845 1.429 . S
C861 C857 1.429 . S
C861 C862 1.523 . S
C862 C846 1.368 . S
C862 C858 1.368 . S
C862 C861 1.523 . S
H863 C838 0.950 . S
H864 C840 0.950 . S
H865 C841 0.949 . S
H866 C843 0.950 . S
H867 C845 0.950 . S
C868 C869 1.349 . S
C868 C870 1.327 . S
C868 H893 0.950 . S
C869 C868 1.349 . S
C869 C885 1.349 . S
C870 C868 1.327 . S
C870 C889 1.429 . S
C870 H894 0.950 . S
C871 C888 1.574 . S
C871 C890 1.368 . S
C871 H895 0.949 . S
H872 C876 0.949 . S
C873 C874 1.349 . S
C873 C875 1.327 . S
C873 H896 0.950 . S
C874 C873 1.349 . S
C874 C886 1.349 . S
C875 C873 1.327 . S
C875 C891 1.429 . S
C875 H897 0.950 . S
C876 H872 0.949 . S
C876 C884 1.574 . S
C876 C892 1.368 . S
H877 C885 0.950 . S
H878 C883 0.950 . S
H879 C884 0.949 . S
H880 C886 0.950 . S
H881 C887 0.950 . S
H882 C888 0.949 . S
C883 H878 0.950 . S
C883 C885 1.327 . S
C883 C889 1.429 . S
C884 C876 1.574 . S
C884 H879 0.949 . S
C884 C890 1.368 . S
C885 C869 1.349 . S
C885 H877 0.950 . S
C885 C883 1.327 . S
C886 C874 1.349 . S
C886 H880 0.950 . S
C886 C887 1.327 . S
C887 H881 0.950 . S
C887 C886 1.327 . S
C887 C891 1.429 . S
C888 C871 1.574 . S
C888 H882 0.949 . S
C888 C892 1.368 . S
C889 C870 1.429 . S
C889 C883 1.429 . S
C889 C890 1.523 . S
C890 C871 1.368 . S
C890 C884 1.368 . S
C890 C889 1.523 . S
C891 C875 1.429 . S
C891 C887 1.429 . S
C891 C892 1.523 . S
C892 C876 1.368 . S
C892 C888 1.368 . S
C892 C891 1.523 . S
H893 C868 0.950 . S
H894 C870 0.950 . S
H895 C871 0.949 . S
H896 C873 0.950 . S
H897 C875 0.950 . S
C898 C899 1.349 . S
C898 C900 1.327 . S
C898 H923 0.950 . S
C899 C898 1.349 . S
C899 C915 1.349 . S
C900 C898 1.327 . S
C900 C919 1.429 . S
C900 H924 0.950 . S
C901 C918 1.574 . S
C901 C920 1.368 . S
C901 H925 0.949 . S
H902 C906 0.949 . S
C903 C904 1.349 . S
C903 C905 1.327 . S
C903 H926 0.950 . S
C904 C903 1.349 . S
C904 C916 1.349 . S
C905 C903 1.327 . S
C905 C921 1.429 . S
C905 H927 0.950 . S
C906 H902 0.949 . S
C906 C914 1.574 . S
C906 C922 1.368 . S
H907 C915 0.950 . S
H908 C913 0.950 . S
H909 C914 0.949 . S
H910 C916 0.950 . S
H911 C917 0.950 . S
H912 C918 0.949 . S
C913 H908 0.950 . S
C913 C915 1.327 . S
C913 C919 1.429 . S
C914 C906 1.574 . S
C914 H909 0.949 . S
C914 C920 1.368 . S
C915 C899 1.349 . S
C915 H907 0.950 . S
C915 C913 1.327 . S
C916 C904 1.349 . S
C916 H910 0.950 . S
C916 C917 1.327 . S
C917 H911 0.950 . S
C917 C916 1.327 . S
C917 C921 1.429 . S
C918 C901 1.574 . S
C918 H912 0.949 . S
C918 C922 1.368 . S
C919 C900 1.429 . S
C919 C913 1.429 . S
C919 C920 1.523 . S
C920 C901 1.368 . S
C920 C914 1.368 . S
C920 C919 1.523 . S
C921 C905 1.429 . S
C921 C917 1.429 . S
C921 C922 1.523 . S
C922 C906 1.368 . S
C922 C918 1.368 . S
C922 C921 1.523 . S
H923 C898 0.950 . S
H924 C900 0.950 . S
H925 C901 0.949 . S
H926 C903 0.950 . S
H927 C905 0.950 . S
C928 C929 1.349 . S
C928 C930 1.327 . S
C928 H953 0.950 . S
C929 C928 1.349 . S
C929 C945 1.349 . S
C930 C928 1.327 . S
C930 C949 1.429 . S
C930 H954 0.950 . S
C931 C948 1.574 1_455 S
C931 C950 1.368 . S
C931 H955 0.949 . S
H932 C936 0.949 . S
C933 C934 1.349 . S
C933 C935 1.327 . S
C933 H956 0.950 . S
C934 C933 1.349 . S
C934 C946 1.349 . S
C935 C933 1.327 . S
C935 C951 1.429 . S
C935 H957 0.950 . S
C936 H932 0.949 . S
C936 C944 1.574 1_655 S
C936 C952 1.368 . S
H937 C945 0.950 . S
H938 C943 0.950 . S
H939 C944 0.949 . S
H940 C946 0.950 . S
H941 C947 0.950 . S
H942 C948 0.949 . S
C943 H938 0.950 . S
C943 C945 1.327 . S
C943 C949 1.429 . S
C944 C936 1.574 1_455 S
C944 H939 0.949 . S
C944 C950 1.368 . S
C945 C929 1.349 . S
C945 H937 0.950 . S
C945 C943 1.327 . S
C946 C934 1.349 . S
C946 H940 0.950 . S
C946 C947 1.327 . S
C947 H941 0.950 . S
C947 C946 1.327 . S
C947 C951 1.429 . S
C948 C931 1.574 1_655 S
C948 H942 0.949 . S
C948 C952 1.368 . S
C949 C930 1.429 . S
C949 C943 1.429 . S
C949 C950 1.523 . S
C950 C931 1.368 . S
C950 C944 1.368 . S
C950 C949 1.523 . S
C951 C935 1.429 . S
C951 C947 1.429 . S
C951 C952 1.523 . S
C952 C936 1.368 . S
C952 C948 1.368 . S
C952 C951 1.523 . S
H953 C928 0.950 . S
H954 C930 0.950 . S
H955 C931 0.949 . S
H956 C933 0.950 . S
H957 C935 0.950 . S
C958 C959 1.349 . S
C958 C960 1.327 . S
C958 H983 0.950 . S
C959 C958 1.349 . S
C959 C975 1.349 . S
C960 C958 1.327 . S
C960 C979 1.429 . S
C960 H984 0.950 . S
C961 C978 1.574 . S
C961 C980 1.368 . S
C961 H985 0.949 . S
H962 C966 0.949 . S
C963 C964 1.349 . S
C963 C965 1.327 . S
C963 H986 0.950 . S
C964 C963 1.349 . S
C964 C976 1.349 . S
C965 C963 1.327 . S
C965 C981 1.429 . S
C965 H987 0.950 . S
C966 H962 0.949 . S
C966 C974 1.574 . S
C966 C982 1.368 . S
H967 C975 0.950 . S
H968 C973 0.950 . S
H969 C974 0.949 . S
H970 C976 0.950 . S
H971 C977 0.950 . S
H972 C978 0.949 . S
C973 H968 0.950 . S
C973 C975 1.327 . S
C973 C979 1.429 . S
C974 C966 1.574 . S
C974 H969 0.949 . S
C974 C980 1.368 . S
C975 C959 1.349 . S
C975 H967 0.950 . S
C975 C973 1.327 . S
C976 C964 1.349 . S
C976 H970 0.950 . S
C976 C977 1.327 . S
C977 H971 0.950 . S
C977 C976 1.327 . S
C977 C981 1.429 . S
C978 C961 1.574 . S
C978 H972 0.949 . S
C978 C982 1.368 . S
C979 C960 1.429 . S
C979 C973 1.429 . S
C979 C980 1.523 . S
C980 C961 1.368 . S
C980 C974 1.368 . S
C980 C979 1.523 . S
C981 C965 1.429 . S
C981 C977 1.429 . S
C981 C982 1.523 . S
C982 C966 1.368 . S
C982 C978 1.368 . S
C982 C981 1.523 . S
H983 C958 0.950 . S
H984 C960 0.950 . S
H985 C961 0.949 . S
H986 C963 0.950 . S
H987 C965 0.950 . S
C988 C989 1.349 . S
C988 C990 1.327 . S
C988 H1013 0.950 . S
C989 C988 1.349 . S
C989 C1005 1.349 . S
C990 C988 1.327 . S
C990 C1009 1.429 . S
C990 H1014 0.950 . S
C991 C1008 1.574 . S
C991 C1010 1.368 . S
C991 H1015 0.949 . S
H992 C996 0.949 . S
C993 C994 1.349 . S
C993 C995 1.327 . S
C993 H1016 0.950 . S
C994 C993 1.349 . S
C994 C1006 1.349 . S
C995 C993 1.327 . S
C995 C1011 1.429 . S
C995 H1017 0.950 . S
C996 H992 0.949 . S
C996 C1004 1.574 . S
C996 C1012 1.368 . S
H997 C1005 0.950 . S
H998 C1003 0.950 . S
H999 C1004 0.949 . S
H1000 C1006 0.950 . S
H1001 C1007 0.950 . S
H1002 C1008 0.949 . S
C1003 H998 0.950 . S
C1003 C1005 1.327 . S
C1003 C1009 1.429 . S
C1004 C996 1.574 . S
C1004 H999 0.949 . S
C1004 C1010 1.368 . S
C1005 C989 1.349 . S
C1005 H997 0.950 . S
C1005 C1003 1.327 . S
C1006 C994 1.349 . S
C1006 H1000 0.950 . S
C1006 C1007 1.327 . S
C1007 H1001 0.950 . S
C1007 C1006 1.327 . S
C1007 C1011 1.429 . S
C1008 C991 1.574 . S
C1008 H1002 0.949 . S
C1008 C1012 1.368 . S
C1009 C990 1.429 . S
C1009 C1003 1.429 . S
C1009 C1010 1.523 . S
C1010 C991 1.368 . S
C1010 C1004 1.368 . S
C1010 C1009 1.523 . S
C1011 C995 1.429 . S
C1011 C1007 1.429 . S
C1011 C1012 1.523 . S
C1012 C996 1.368 . S
C1012 C1008 1.368 . S
C1012 C1011 1.523 . S
H1013 C988 0.950 . S
H1014 C990 0.950 . S
H1015 C991 0.949 . S
H1016 C993 0.950 . S
H1017 C995 0.950 . S
C1018 C1019 1.349 . S
C1018 C1020 1.327 . S
C1018 H1043 0.950 . S
C1019 C1018 1.349 . S
C1019 C1035 1.349 . S
C1020 C1018 1.327 . S
C1020 C1039 1.429 . S
C1020 H1044 0.950 . S
C1021 C1038 1.574 . S
C1021 C1040 1.368 . S
C1021 H1045 0.949 . S
H1022 C1026 0.949 . S
C1023 C1024 1.349 . S
C1023 C1025 1.327 . S
C1023 H1046 0.950 . S
C1024 C1023 1.349 . S
C1024 C1036 1.349 . S
C1025 C1023 1.327 . S
C1025 C1041 1.429 . S
C1025 H1047 0.950 . S
C1026 H1022 0.949 . S
C1026 C1034 1.574 . S
C1026 C1042 1.368 . S
H1027 C1035 0.950 . S
H1028 C1033 0.950 . S
H1029 C1034 0.949 . S
H1030 C1036 0.950 . S
H1031 C1037 0.950 . S
H1032 C1038 0.949 . S
C1033 H1028 0.950 . S
C1033 C1035 1.327 . S
C1033 C1039 1.429 . S
C1034 C1026 1.574 . S
C1034 H1029 0.949 . S
C1034 C1040 1.368 . S
C1035 C1019 1.349 . S
C1035 H1027 0.950 . S
C1035 C1033 1.327 . S
C1036 C1024 1.349 . S
C1036 H1030 0.950 . S
C1036 C1037 1.327 . S
C1037 H1031 0.950 . S
C1037 C1036 1.327 . S
C1037 C1041 1.429 . S
C1038 C1021 1.574 . S
C1038 H1032 0.949 . S
C1038 C1042 1.368 . S
C1039 C1020 1.429 . S
C1039 C1033 1.429 . S
C1039 C1040 1.523 . S
C1040 C1021 1.368 . S
C1040 C1034 1.368 . S
C1040 C1039 1.523 . S
C1041 C1025 1.429 . S
C1041 C1037 1.429 . S
C1041 C1042 1.523 . S
C1042 C1026 1.368 . S
C1042 C1038 1.368 . S
C1042 C1041 1.523 . S
H1043 C1018 0.950 . S
H1044 C1020 0.950 . S
H1045 C1021 0.949 . S
H1046 C1023 0.950 . S
H1047 C1025 0.950 . S
C1048 C1049 1.349 . S
C1048 C1050 1.327 . S
C1048 H1073 0.950 . S
C1049 C1048 1.349 . S
C1049 C1065 1.349 . S
C1050 C1048 1.327 . S
C1050 C1069 1.429 . S
C1050 H1074 0.950 . S
C1051 C1068 1.574 1_655 S
C1051 C1070 1.368 . S
C1051 H1075 0.949 . S
H1052 C1056 0.949 . S
C1053 C1054 1.349 . S
C1053 C1055 1.327 . S
C1053 H1076 0.950 . S
C1054 C1053 1.349 . S
C1054 C1066 1.349 . S
C1055 C1053 1.327 . S
C1055 C1071 1.429 . S
C1055 H1077 0.950 . S
C1056 H1052 0.949 . S
C1056 C1064 1.574 1_455 S
C1056 C1072 1.368 . S
H1057 C1065 0.950 . S
H1058 C1063 0.950 . S
H1059 C1064 0.949 . S
H1060 C1066 0.950 . S
H1061 C1067 0.950 . S
H1062 C1068 0.949 . S
C1063 H1058 0.950 . S
C1063 C1065 1.327 . S
C1063 C1069 1.429 . S
C1064 C1056 1.574 1_655 S
C1064 H1059 0.949 . S
C1064 C1070 1.368 . S
C1065 C1049 1.349 . S
C1065 H1057 0.950 . S
C1065 C1063 1.327 . S
C1066 C1054 1.349 . S
C1066 H1060 0.950 . S
C1066 C1067 1.327 . S
C1067 H1061 0.950 . S
C1067 C1066 1.327 . S
C1067 C1071 1.429 . S
C1068 C1051 1.574 1_455 S
C1068 H1062 0.949 . S
C1068 C1072 1.368 . S
C1069 C1050 1.429 . S
C1069 C1063 1.429 . S
C1069 C1070 1.523 . S
C1070 C1051 1.368 . S
C1070 C1064 1.368 . S
C1070 C1069 1.523 . S
C1071 C1055 1.429 . S
C1071 C1067 1.429 . S
C1071 C1072 1.523 . S
C1072 C1056 1.368 . S
C1072 C1068 1.368 . S
C1072 C1071 1.523 . S
H1073 C1048 0.950 . S
H1074 C1050 0.950 . S
H1075 C1051 0.949 . S
H1076 C1053 0.950 . S
H1077 C1055 0.950 . S
C1078 C1079 1.349 . S
C1078 C1080 1.327 . S
C1078 H1103 0.950 . S
C1079 C1078 1.349 . S
C1079 C1095 1.349 . S
C1080 C1078 1.327 . S
C1080 C1099 1.429 . S
C1080 H1104 0.950 . S
C1081 C1098 1.574 . S
C1081 C1100 1.368 . S
C1081 H1105 0.949 . S
H1082 C1086 0.949 . S
C1083 C1084 1.349 . S
C1083 C1085 1.327 . S
C1083 H1106 0.950 . S
C1084 C1083 1.349 . S
C1084 C1096 1.349 . S
C1085 C1083 1.327 . S
C1085 C1101 1.429 . S
C1085 H1107 0.950 . S
C1086 H1082 0.949 . S
C1086 C1094 1.574 . S
C1086 C1102 1.368 . S
H1087 C1095 0.950 . S
H1088 C1093 0.950 . S
H1089 C1094 0.949 . S
H1090 C1096 0.950 . S
H1091 C1097 0.950 . S
H1092 C1098 0.949 . S
C1093 H1088 0.950 . S
C1093 C1095 1.327 . S
C1093 C1099 1.429 . S
C1094 C1086 1.574 . S
C1094 H1089 0.949 . S
C1094 C1100 1.368 . S
C1095 C1079 1.349 . S
C1095 H1087 0.950 . S
C1095 C1093 1.327 . S
C1096 C1084 1.349 . S
C1096 H1090 0.950 . S
C1096 C1097 1.327 . S
C1097 H1091 0.950 . S
C1097 C1096 1.327 . S
C1097 C1101 1.429 . S
C1098 C1081 1.574 . S
C1098 H1092 0.949 . S
C1098 C1102 1.368 . S
C1099 C1080 1.429 . S
C1099 C1093 1.429 . S
C1099 C1100 1.523 . S
C1100 C1081 1.368 . S
C1100 C1094 1.368 . S
C1100 C1099 1.523 . S
C1101 C1085 1.429 . S
C1101 C1097 1.429 . S
C1101 C1102 1.523 . S
C1102 C1086 1.368 . S
C1102 C1098 1.368 . S
C1102 C1101 1.523 . S
H1103 C1078 0.950 . S
H1104 C1080 0.950 . S
H1105 C1081 0.949 . S
H1106 C1083 0.950 . S
H1107 C1085 0.950 . S
C1108 C1109 1.349 . S
C1108 C1110 1.327 . S
C1108 H1133 0.950 . S
C1109 C1108 1.349 . S
C1109 C1125 1.349 . S
C1110 C1108 1.327 . S
C1110 C1129 1.429 . S
C1110 H1134 0.950 . S
C1111 C1128 1.574 . S
C1111 C1130 1.368 . S
C1111 H1135 0.949 . S
H1112 C1116 0.949 . S
C1113 C1114 1.349 . S
C1113 C1115 1.327 . S
C1113 H1136 0.950 . S
C1114 C1113 1.349 . S
C1114 C1126 1.349 . S
C1115 C1113 1.327 . S
C1115 C1131 1.429 . S
C1115 H1137 0.950 . S
C1116 H1112 0.949 . S
C1116 C1124 1.574 . S
C1116 C1132 1.368 . S
H1117 C1125 0.950 . S
H1118 C1123 0.950 . S
H1119 C1124 0.949 . S
H1120 C1126 0.950 . S
H1121 C1127 0.950 . S
H1122 C1128 0.949 . S
C1123 H1118 0.950 . S
C1123 C1125 1.327 . S
C1123 C1129 1.429 . S
C1124 C1116 1.574 . S
C1124 H1119 0.949 . S
C1124 C1130 1.368 . S
C1125 C1109 1.349 . S
C1125 H1117 0.950 . S
C1125 C1123 1.327 . S
C1126 C1114 1.349 . S
C1126 H1120 0.950 . S
C1126 C1127 1.327 . S
C1127 H1121 0.950 . S
C1127 C1126 1.327 . S
C1127 C1131 1.429 . S
C1128 C1111 1.574 . S
C1128 H1122 0.949 . S
C1128 C1132 1.368 . S
C1129 C1110 1.429 . S
C1129 C1123 1.429 . S
C1129 C1130 1.523 . S
C1130 C1111 1.368 . S
C1130 C1124 1.368 . S
C1130 C1129 1.523 . S
C1131 C1115 1.429 . S
C1131 C1127 1.429 . S
C1131 C1132 1.523 . S
C1132 C1116 1.368 . S
C1132 C1128 1.368 . S
C1132 C1131 1.523 . S
H1133 C1108 0.950 . S
H1134 C1110 0.950 . S
H1135 C1111 0.949 . S
H1136 C1113 0.950 . S
H1137 C1115 0.950 . S
C1138 C1139 1.349 . S
C1138 C1140 1.327 . S
C1138 H1163 0.950 . S
C1139 C1138 1.349 . S
C1139 C1155 1.349 . S
C1140 C1138 1.327 . S
C1140 C1159 1.429 . S
C1140 H1164 0.950 . S
C1141 C1158 1.574 . S
C1141 C1160 1.368 . S
C1141 H1165 0.949 . S
H1142 C1146 0.949 . S
C1143 C1144 1.349 . S
C1143 C1145 1.327 . S
C1143 H1166 0.950 . S
C1144 C1143 1.349 . S
C1144 C1156 1.349 . S
C1145 C1143 1.327 . S
C1145 C1161 1.429 . S
C1145 H1167 0.950 . S
C1146 H1142 0.949 . S
C1146 C1154 1.574 . S
C1146 C1162 1.368 . S
H1147 C1155 0.950 . S
H1148 C1153 0.950 . S
H1149 C1154 0.949 . S
H1150 C1156 0.950 . S
H1151 C1157 0.950 . S
H1152 C1158 0.949 . S
C1153 H1148 0.950 . S
C1153 C1155 1.327 . S
C1153 C1159 1.429 . S
C1154 C1146 1.574 . S
C1154 H1149 0.949 . S
C1154 C1160 1.368 . S
C1155 C1139 1.349 . S
C1155 H1147 0.950 . S
C1155 C1153 1.327 . S
C1156 C1144 1.349 . S
C1156 H1150 0.950 . S
C1156 C1157 1.327 . S
C1157 H1151 0.950 . S
C1157 C1156 1.327 . S
C1157 C1161 1.429 . S
C1158 C1141 1.574 . S
C1158 H1152 0.949 . S
C1158 C1162 1.368 . S
C1159 C1140 1.429 . S
C1159 C1153 1.429 . S
C1159 C1160 1.523 . S
C1160 C1141 1.368 . S
C1160 C1154 1.368 . S
C1160 C1159 1.523 . S
C1161 C1145 1.429 . S
C1161 C1157 1.429 . S
C1161 C1162 1.523 . S
C1162 C1146 1.368 . S
C1162 C1158 1.368 . S
C1162 C1161 1.523 . S
H1163 C1138 0.950 . S
H1164 C1140 0.950 . S
H1165 C1141 0.949 . S
H1166 C1143 0.950 . S
H1167 C1145 0.950 . S
C1168 C1169 1.349 . S
C1168 C1170 1.327 . S
C1168 H1193 0.950 . S
C1169 C1168 1.349 . S
C1169 C1185 1.349 . S
C1170 C1168 1.327 . S
C1170 C1189 1.429 . S
C1170 H1194 0.950 . S
C1171 C1188 1.574 . S
C1171 C1190 1.368 . S
C1171 H1195 0.949 . S
H1172 C1176 0.949 . S
C1173 C1174 1.349 . S
C1173 C1175 1.327 . S
C1173 H1196 0.950 . S
C1174 C1173 1.349 . S
C1174 C1186 1.349 . S
C1175 C1173 1.327 . S
C1175 C1191 1.429 . S
C1175 H1197 0.950 . S
C1176 H1172 0.949 . S
C1176 C1184 1.574 . S
C1176 C1192 1.368 . S
H1177 C1185 0.950 . S
H1178 C1183 0.950 . S
H1179 C1184 0.949 . S
H1180 C1186 0.950 . S
H1181 C1187 0.950 . S
H1182 C1188 0.949 . S
C1183 H1178 0.950 . S
C1183 C1185 1.327 . S
C1183 C1189 1.429 . S
C1184 C1176 1.574 . S
C1184 H1179 0.949 . S
C1184 C1190 1.368 . S
C1185 C1169 1.349 . S
C1185 H1177 0.950 . S
C1185 C1183 1.327 . S
C1186 C1174 1.349 . S
C1186 H1180 0.950 . S
C1186 C1187 1.327 . S
C1187 H1181 0.950 . S
C1187 C1186 1.327 . S
C1187 C1191 1.429 . S
C1188 C1171 1.574 . S
C1188 H1182 0.949 . S
C1188 C1192 1.368 . S
C1189 C1170 1.429 . S
C1189 C1183 1.429 . S
C1189 C1190 1.523 . S
C1190 C1171 1.368 . S
C1190 C1184 1.368 . S
C1190 C1189 1.523 . S
C1191 C1175 1.429 . S
C1191 C1187 1.429 . S
C1191 C1192 1.523 . S
C1192 C1176 1.368 . S
C1192 C1188 1.368 . S
C1192 C1191 1.523 . S
H1193 C1168 0.950 . S
H1194 C1170 0.950 . S
H1195 C1171 0.949 . S
H1196 C1173 0.950 . S
H1197 C1175 0.950 . S
C1198 C1199 1.349 . S
C1198 C1200 1.327 . S
C1198 H1223 0.950 . S
C1199 C1198 1.349 . S
C1199 C1215 1.349 . S
C1200 C1198 1.327 . S
C1200 C1219 1.429 . S
C1200 H1224 0.950 . S
C1201 C1218 1.574 . S
C1201 C1220 1.368 . S
C1201 H1225 0.949 . S
H1202 C1206 0.949 . S
C1203 C1204 1.349 . S
C1203 C1205 1.327 . S
C1203 H1226 0.950 . S
C1204 C1203 1.349 . S
C1204 C1216 1.349 . S
C1205 C1203 1.327 . S
C1205 C1221 1.429 . S
C1205 H1227 0.950 . S
C1206 H1202 0.949 . S
C1206 C1214 1.574 . S
C1206 C1222 1.368 . S
H1207 C1215 0.950 . S
H1208 C1213 0.950 . S
H1209 C1214 0.949 . S
H1210 C1216 0.950 . S
H1211 C1217 0.950 . S
H1212 C1218 0.949 . S
C1213 H1208 0.950 . S
C1213 C1215 1.327 . S
C1213 C1219 1.429 . S
C1214 C1206 1.574 . S
C1214 H1209 0.949 . S
C1214 C1220 1.368 . S
C1215 C1199 1.349 . S
C1215 H1207 0.950 . S
C1215 C1213 1.327 . S
C1216 C1204 1.349 . S
C1216 H1210 0.950 . S
C1216 C1217 1.327 . S
C1217 H1211 0.950 . S
C1217 C1216 1.327 . S
C1217 C1221 1.429 . S
C1218 C1201 1.574 . S
C1218 H1212 0.949 . S
C1218 C1222 1.368 . S
C1219 C1200 1.429 . S
C1219 C1213 1.429 . S
C1219 C1220 1.523 . S
C1220 C1201 1.368 . S
C1220 C1214 1.368 . S
C1220 C1219 1.523 . S
C1221 C1205 1.429 . S
C1221 C1217 1.429 . S
C1221 C1222 1.523 . S
C1222 C1206 1.368 . S
C1222 C1218 1.368 . S
C1222 C1221 1.523 . S
H1223 C1198 0.950 . S
H1224 C1200 0.950 . S
H1225 C1201 0.949 . S
H1226 C1203 0.950 . S
H1227 C1205 0.950 . S
C1228 C1229 1.349 . S
C1228 C1230 1.327 . S
C1228 H1253 0.950 . S
C1229 C1228 1.349 . S
C1229 C1245 1.349 . S
C1230 C1228 1.327 . S
C1230 C1249 1.429 . S
C1230 H1254 0.950 . S
C1231 C1248 1.574 . S
C1231 C1250 1.368 . S
C1231 H1255 0.949 . S
H1232 C1236 0.949 . S
C1233 C1234 1.349 . S
C1233 C1235 1.327 . S
C1233 H1256 0.950 . S
C1234 C1233 1.349 . S
C1234 C1246 1.349 . S
C1235 C1233 1.327 . S
C1235 C1251 1.429 . S
C1235 H1257 0.950 . S
C1236 H1232 0.949 . S
C1236 C1244 1.574 . S
C1236 C1252 1.368 . S
H1237 C1245 0.950 . S
H1238 C1243 0.950 . S
H1239 C1244 0.949 . S
H1240 C1246 0.950 . S
H1241 C1247 0.950 . S
H1242 C1248 0.949 . S
C1243 H1238 0.950 . S
C1243 C1245 1.327 . S
C1243 C1249 1.429 . S
C1244 C1236 1.574 . S
C1244 H1239 0.949 . S
C1244 C1250 1.368 . S
C1245 C1229 1.349 . S
C1245 H1237 0.950 . S
C1245 C1243 1.327 . S
C1246 C1234 1.349 . S
C1246 H1240 0.950 . S
C1246 C1247 1.327 . S
C1247 H1241 0.950 . S
C1247 C1246 1.327 . S
C1247 C1251 1.429 . S
C1248 C1231 1.574 . S
C1248 H1242 0.949 . S
C1248 C1252 1.368 . S
C1249 C1230 1.429 . S
C1249 C1243 1.429 . S
C1249 C1250 1.523 . S
C1250 C1231 1.368 . S
C1250 C1244 1.368 . S
C1250 C1249 1.523 . S
C1251 C1235 1.429 . S
C1251 C1247 1.429 . S
C1251 C1252 1.523 . S
C1252 C1236 1.368 . S
C1252 C1248 1.368 . S
C1252 C1251 1.523 . S
H1253 C1228 0.950 . S
H1254 C1230 0.950 . S
H1255 C1231 0.949 . S
H1256 C1233 0.950 . S
H1257 C1235 0.950 . S
C1258 C1259 1.349 . S
C1258 C1260 1.327 . S
C1258 H1283 0.950 . S
C1259 C1258 1.349 . S
C1259 C1275 1.349 . S
C1260 C1258 1.327 . S
C1260 C1279 1.429 . S
C1260 H1284 0.950 . S
C1261 C1278 1.574 . S
C1261 C1280 1.368 . S
C1261 H1285 0.949 . S
H1262 C1266 0.949 . S
C1263 C1264 1.349 . S
C1263 C1265 1.327 . S
C1263 H1286 0.950 . S
C1264 C1263 1.349 . S
C1264 C1276 1.349 . S
C1265 C1263 1.327 . S
C1265 C1281 1.429 . S
C1265 H1287 0.950 . S
C1266 H1262 0.949 . S
C1266 C1274 1.574 . S
C1266 C1282 1.368 . S
H1267 C1275 0.950 . S
H1268 C1273 0.950 . S
H1269 C1274 0.949 . S
H1270 C1276 0.950 . S
H1271 C1277 0.950 . S
H1272 C1278 0.949 . S
C1273 H1268 0.950 . S
C1273 C1275 1.327 . S
C1273 C1279 1.429 . S
C1274 C1266 1.574 . S
C1274 H1269 0.949 . S
C1274 C1280 1.368 . S
C1275 C1259 1.349 . S
C1275 H1267 0.950 . S
C1275 C1273 1.327 . S
C1276 C1264 1.349 . S
C1276 H1270 0.950 . S
C1276 C1277 1.327 . S
C1277 H1271 0.950 . S
C1277 C1276 1.327 . S
C1277 C1281 1.429 . S
C1278 C1261 1.574 . S
C1278 H1272 0.949 . S
C1278 C1282 1.368 . S
C1279 C1260 1.429 . S
C1279 C1273 1.429 . S
C1279 C1280 1.523 . S
C1280 C1261 1.368 . S
C1280 C1274 1.368 . S
C1280 C1279 1.523 . S
C1281 C1265 1.429 . S
C1281 C1277 1.429 . S
C1281 C1282 1.523 . S
C1282 C1266 1.368 . S
C1282 C1278 1.368 . S
C1282 C1281 1.523 . S
H1283 C1258 0.950 . S
H1284 C1260 0.950 . S
H1285 C1261 0.949 . S
H1286 C1263 0.950 . S
H1287 C1265 0.950 . S
C1288 C1289 1.349 . S
C1288 C1290 1.327 . S
C1288 H1313 0.950 . S
C1289 C1288 1.349 . S
C1289 C1305 1.349 . S
C1290 C1288 1.327 . S
C1290 C1309 1.429 . S
C1290 H1314 0.950 . S
C1291 C1308 1.574 . S
C1291 C1310 1.368 . S
C1291 H1315 0.949 . S
H1292 C1296 0.949 . S
C1293 C1294 1.349 . S
C1293 C1295 1.327 . S
C1293 H1316 0.950 . S
C1294 C1293 1.349 . S
C1294 C1306 1.349 . S
C1295 C1293 1.327 . S
C1295 C1311 1.429 . S
C1295 H1317 0.950 . S
C1296 H1292 0.949 . S
C1296 C1304 1.574 . S
C1296 C1312 1.368 . S
H1297 C1305 0.950 . S
H1298 C1303 0.950 . S
H1299 C1304 0.949 . S
H1300 C1306 0.950 . S
H1301 C1307 0.950 . S
H1302 C1308 0.949 . S
C1303 H1298 0.950 . S
C1303 C1305 1.327 . S
C1303 C1309 1.429 . S
C1304 C1296 1.574 . S
C1304 H1299 0.949 . S
C1304 C1310 1.368 . S
C1305 C1289 1.349 . S
C1305 H1297 0.950 . S
C1305 C1303 1.327 . S
C1306 C1294 1.349 . S
C1306 H1300 0.950 . S
C1306 C1307 1.327 . S
C1307 H1301 0.950 . S
C1307 C1306 1.327 . S
C1307 C1311 1.429 . S
C1308 C1291 1.574 . S
C1308 H1302 0.949 . S
C1308 C1312 1.368 . S
C1309 C1290 1.429 . S
C1309 C1303 1.429 . S
C1309 C1310 1.523 . S
C1310 C1291 1.368 . S
C1310 C1304 1.368 . S
C1310 C1309 1.523 . S
C1311 C1295 1.429 . S
C1311 C1307 1.429 . S
C1311 C1312 1.523 . S
C1312 C1296 1.368 . S
C1312 C1308 1.368 . S
C1312 C1311 1.523 . S
H1313 C1288 0.950 . S
H1314 C1290 0.950 . S
H1315 C1291 0.949 . S
H1316 C1293 0.950 . S
H1317 C1295 0.950 . S
C1318 C1319 1.349 . S
C1318 C1320 1.327 . S
C1318 H1343 0.950 . S
C1319 C1318 1.349 . S
C1319 C1335 1.349 . S
C1320 C1318 1.327 . S
C1320 C1339 1.429 . S
C1320 H1344 0.950 . S
C1321 C1338 1.574 1_655 S
C1321 C1340 1.368 . S
C1321 H1345 0.949 . S
H1322 C1326 0.949 . S
C1323 C1324 1.349 . S
C1323 C1325 1.327 . S
C1323 H1346 0.950 . S
C1324 C1323 1.349 . S
C1324 C1336 1.349 . S
C1325 C1323 1.327 . S
C1325 C1341 1.429 . S
C1325 H1347 0.950 . S
C1326 H1322 0.949 . S
C1326 C1334 1.574 1_455 S
C1326 C1342 1.368 . S
H1327 C1335 0.950 . S
H1328 C1333 0.950 . S
H1329 C1334 0.949 . S
H1330 C1336 0.950 . S
H1331 C1337 0.950 . S
H1332 C1338 0.949 . S
C1333 H1328 0.950 . S
C1333 C1335 1.327 . S
C1333 C1339 1.429 . S
C1334 C1326 1.574 1_655 S
C1334 H1329 0.949 . S
C1334 C1340 1.368 . S
C1335 C1319 1.349 . S
C1335 H1327 0.950 . S
C1335 C1333 1.327 . S
C1336 C1324 1.349 . S
C1336 H1330 0.950 . S
C1336 C1337 1.327 . S
C1337 H1331 0.950 . S
C1337 C1336 1.327 . S
C1337 C1341 1.429 . S
C1338 C1321 1.574 1_455 S
C1338 H1332 0.949 . S
C1338 C1342 1.368 . S
C1339 C1320 1.429 . S
C1339 C1333 1.429 . S
C1339 C1340 1.523 . S
C1340 C1321 1.368 . S
C1340 C1334 1.368 . S
C1340 C1339 1.523 . S
C1341 C1325 1.429 . S
C1341 C1337 1.429 . S
C1341 C1342 1.523 . S
C1342 C1326 1.368 . S
C1342 C1338 1.368 . S
C1342 C1341 1.523 . S
H1343 C1318 0.950 . S
H1344 C1320 0.950 . S
H1345 C1321 0.949 . S
H1346 C1323 0.950 . S
H1347 C1325 0.950 . S
C1348 C1349 1.349 . S
C1348 C1350 1.327 . S
C1348 H1373 0.950 . S
C1349 C1348 1.349 . S
C1349 C1365 1.349 . S
C1350 C1348 1.327 . S
C1350 C1369 1.429 . S
C1350 H1374 0.950 . S
C1351 C1368 1.574 . S
C1351 C1370 1.368 . S
C1351 H1375 0.949 . S
H1352 C1356 0.949 . S
C1353 C1354 1.349 . S
C1353 C1355 1.327 . S
C1353 H1376 0.950 . S
C1354 C1353 1.349 . S
C1354 C1366 1.349 . S
C1355 C1353 1.327 . S
C1355 C1371 1.429 . S
C1355 H1377 0.950 . S
C1356 H1352 0.949 . S
C1356 C1364 1.574 . S
C1356 C1372 1.368 . S
H1357 C1365 0.950 . S
H1358 C1363 0.950 . S
H1359 C1364 0.949 . S
H1360 C1366 0.950 . S
H1361 C1367 0.950 . S
H1362 C1368 0.949 . S
C1363 H1358 0.950 . S
C1363 C1365 1.327 . S
C1363 C1369 1.429 . S
C1364 C1356 1.574 . S
C1364 H1359 0.949 . S
C1364 C1370 1.368 . S
C1365 C1349 1.349 . S
C1365 H1357 0.950 . S
C1365 C1363 1.327 . S
C1366 C1354 1.349 . S
C1366 H1360 0.950 . S
C1366 C1367 1.327 . S
C1367 H1361 0.950 . S
C1367 C1366 1.327 . S
C1367 C1371 1.429 . S
C1368 C1351 1.574 . S
C1368 H1362 0.949 . S
C1368 C1372 1.368 . S
C1369 C1350 1.429 . S
C1369 C1363 1.429 . S
C1369 C1370 1.523 . S
C1370 C1351 1.368 . S
C1370 C1364 1.368 . S
C1370 C1369 1.523 . S
C1371 C1355 1.429 . S
C1371 C1367 1.429 . S
C1371 C1372 1.523 . S
C1372 C1356 1.368 . S
C1372 C1368 1.368 . S
C1372 C1371 1.523 . S
H1373 C1348 0.950 . S
H1374 C1350 0.950 . S
H1375 C1351 0.949 . S
H1376 C1353 0.950 . S
H1377 C1355 0.950 . S
C1378 C1379 1.349 . S
C1378 C1380 1.327 . S
C1378 H1403 0.950 . S
C1379 C1378 1.349 . S
C1379 C1395 1.349 . S
C1380 C1378 1.327 . S
C1380 C1399 1.429 . S
C1380 H1404 0.950 . S
C1381 C1398 1.574 1_455 S
C1381 C1400 1.368 . S
C1381 H1405 0.949 . S
H1382 C1386 0.949 . S
C1383 C1384 1.349 . S
C1383 C1385 1.327 . S
C1383 H1406 0.950 . S
C1384 C1383 1.349 . S
C1384 C1396 1.349 . S
C1385 C1383 1.327 . S
C1385 C1401 1.429 . S
C1385 H1407 0.950 . S
C1386 H1382 0.949 . S
C1386 C1394 1.574 1_655 S
C1386 C1402 1.368 . S
H1387 C1395 0.950 . S
H1388 C1393 0.950 . S
H1389 C1394 0.949 . S
H1390 C1396 0.950 . S
H1391 C1397 0.950 . S
H1392 C1398 0.949 . S
C1393 H1388 0.950 . S
C1393 C1395 1.327 . S
C1393 C1399 1.429 . S
C1394 C1386 1.574 1_455 S
C1394 H1389 0.949 . S
C1394 C1400 1.368 . S
C1395 C1379 1.349 . S
C1395 H1387 0.950 . S
C1395 C1393 1.327 . S
C1396 C1384 1.349 . S
C1396 H1390 0.950 . S
C1396 C1397 1.327 . S
C1397 H1391 0.950 . S
C1397 C1396 1.327 . S
C1397 C1401 1.429 . S
C1398 C1381 1.574 1_655 S
C1398 H1392 0.949 . S
C1398 C1402 1.368 . S
C1399 C1380 1.429 . S
C1399 C1393 1.429 . S
C1399 C1400 1.523 . S
C1400 C1381 1.368 . S
C1400 C1394 1.368 . S
C1400 C1399 1.523 . S
C1401 C1385 1.429 . S
C1401 C1397 1.429 . S
C1401 C1402 1.523 . S
C1402 C1386 1.368 . S
C1402 C1398 1.368 . S
C1402 C1401 1.523 . S
H1403 C1378 0.950 . S
H1404 C1380 0.950 . S
H1405 C1381 0.949 . S
H1406 C1383 0.950 . S
H1407 C1385 0.950 . S
C1408 C1409 1.349 . S
C1408 C1410 1.327 . S
C1408 H1433 0.950 . S
C1409 C1408 1.349 . S
C1409 C1425 1.349 . S
C1410 C1408 1.327 . S
C1410 C1429 1.429 . S
C1410 H1434 0.950 . S
C1411 C1428 1.574 . S
C1411 C1430 1.368 1_554 S
C1411 H1435 0.949 . S
H1412 C1416 0.949 . S
C1413 C1414 1.349 . S
C1413 C1415 1.327 . S
C1413 H1436 0.950 . S
C1414 C1413 1.349 . S
C1414 C1426 1.349 . S
C1415 C1413 1.327 . S
C1415 C1431 1.429 . S
C1415 H1437 0.950 . S
C1416 H1412 0.949 . S
C1416 C1424 1.574 . S
C1416 C1432 1.368 1_556 S
H1417 C1425 0.950 . S
H1418 C1423 0.950 . S
H1419 C1424 0.949 . S
H1420 C1426 0.950 . S
H1421 C1427 0.950 . S
H1422 C1428 0.949 . S
C1423 H1418 0.950 . S
C1423 C1425 1.327 . S
C1423 C1429 1.429 . S
C1424 C1416 1.574 . S
C1424 H1419 0.949 . S
C1424 C1430 1.368 . S
C1425 C1409 1.349 . S
C1425 H1417 0.950 . S
C1425 C1423 1.327 . S
C1426 C1414 1.349 . S
C1426 H1420 0.950 . S
C1426 C1427 1.327 . S
C1427 H1421 0.950 . S
C1427 C1426 1.327 . S
C1427 C1431 1.429 . S
C1428 C1411 1.574 . S
C1428 H1422 0.949 . S
C1428 C1432 1.368 . S
C1429 C1410 1.429 . S
C1429 C1423 1.429 . S
C1429 C1430 1.523 . S
C1430 C1411 1.368 1_556 S
C1430 C1424 1.368 . S
C1430 C1429 1.523 . S
C1431 C1415 1.429 . S
C1431 C1427 1.429 . S
C1431 C1432 1.523 . S
C1432 C1416 1.368 1_554 S
C1432 C1428 1.368 . S
C1432 C1431 1.523 . S
H1433 C1408 0.950 . S
H1434 C1410 0.950 . S
H1435 C1411 0.949 . S
H1436 C1413 0.950 . S
H1437 C1415 0.950 . S
C1438 C1439 1.349 . S
C1438 C1440 1.327 . S
C1438 H1463 0.950 . S
C1439 C1438 1.349 . S
C1439 C1455 1.349 . S
C1440 C1438 1.327 . S
C1440 C1459 1.429 . S
C1440 H1464 0.950 . S
C1441 C1458 1.574 . S
C1441 C1460 1.368 . S
C1441 H1465 0.949 . S
H1442 C1446 0.949 . S
C1443 C1444 1.349 . S
C1443 C1445 1.327 . S
C1443 H1466 0.950 . S
C1444 C1443 1.349 . S
C1444 C1456 1.349 . S
C1445 C1443 1.327 . S
C1445 C1461 1.429 . S
C1445 H1467 0.950 . S
C1446 H1442 0.949 . S
C1446 C1454 1.574 . S
C1446 C1462 1.368 . S
H1447 C1455 0.950 . S
H1448 C1453 0.950 . S
H1449 C1454 0.949 . S
H1450 C1456 0.950 . S
H1451 C1457 0.950 . S
H1452 C1458 0.949 . S
C1453 H1448 0.950 . S
C1453 C1455 1.327 . S
C1453 C1459 1.429 . S
C1454 C1446 1.574 . S
C1454 H1449 0.949 . S
C1454 C1460 1.368 . S
C1455 C1439 1.349 . S
C1455 H1447 0.950 . S
C1455 C1453 1.327 . S
C1456 C1444 1.349 . S
C1456 H1450 0.950 . S
C1456 C1457 1.327 . S
C1457 H1451 0.950 . S
C1457 C1456 1.327 . S
C1457 C1461 1.429 . S
C1458 C1441 1.574 . S
C1458 H1452 0.949 . S
C1458 C1462 1.368 . S
C1459 C1440 1.429 . S
C1459 C1453 1.429 . S
C1459 C1460 1.523 . S
C1460 C1441 1.368 . S
C1460 C1454 1.368 . S
C1460 C1459 1.523 . S
C1461 C1445 1.429 . S
C1461 C1457 1.429 . S
C1461 C1462 1.523 . S
C1462 C1446 1.368 . S
C1462 C1458 1.368 . S
C1462 C1461 1.523 . S
H1463 C1438 0.950 . S
H1464 C1440 0.950 . S
H1465 C1441 0.949 . S
H1466 C1443 0.950 . S
H1467 C1445 0.950 . S
C1468 C1469 1.349 . S
C1468 C1470 1.327 . S
C1468 H1493 0.950 . S
C1469 C1468 1.349 . S
C1469 C1485 1.349 . S
C1470 C1468 1.327 . S
C1470 C1489 1.429 . S
C1470 H1494 0.950 . S
C1471 C1488 1.574 . S
C1471 C1490 1.368 . S
C1471 H1495 0.949 . S
H1472 C1476 0.949 . S
C1473 C1474 1.349 . S
C1473 C1475 1.327 . S
C1473 H1496 0.950 . S
C1474 C1473 1.349 . S
C1474 C1486 1.349 . S
C1475 C1473 1.327 . S
C1475 C1491 1.429 . S
C1475 H1497 0.950 . S
C1476 H1472 0.949 . S
C1476 C1484 1.574 . S
C1476 C1492 1.368 . S
H1477 C1485 0.950 . S
H1478 C1483 0.950 . S
H1479 C1484 0.949 . S
H1480 C1486 0.950 . S
H1481 C1487 0.950 . S
H1482 C1488 0.949 . S
C1483 H1478 0.950 . S
C1483 C1485 1.327 . S
C1483 C1489 1.429 . S
C1484 C1476 1.574 . S
C1484 H1479 0.949 . S
C1484 C1490 1.368 . S
C1485 C1469 1.349 . S
C1485 H1477 0.950 . S
C1485 C1483 1.327 . S
C1486 C1474 1.349 . S
C1486 H1480 0.950 . S
C1486 C1487 1.327 . S
C1487 H1481 0.950 . S
C1487 C1486 1.327 . S
C1487 C1491 1.429 . S
C1488 C1471 1.574 . S
C1488 H1482 0.949 . S
C1488 C1492 1.368 . S
C1489 C1470 1.429 . S
C1489 C1483 1.429 . S
C1489 C1490 1.523 . S
C1490 C1471 1.368 . S
C1490 C1484 1.368 . S
C1490 C1489 1.523 . S
C1491 C1475 1.429 . S
C1491 C1487 1.429 . S
C1491 C1492 1.523 . S
C1492 C1476 1.368 . S
C1492 C1488 1.368 . S
C1492 C1491 1.523 . S
H1493 C1468 0.950 . S
H1494 C1470 0.950 . S
H1495 C1471 0.949 . S
H1496 C1473 0.950 . S
H1497 C1475 0.950 . S
C1498 C1499 1.349 . S
C1498 C1500 1.327 . S
C1498 H1523 0.950 . S
C1499 C1498 1.349 . S
C1499 C1515 1.349 . S
C1500 C1498 1.327 . S
C1500 C1519 1.429 . S
C1500 H1524 0.950 . S
C1501 C1518 1.574 . S
C1501 C1520 1.368 . S
C1501 H1525 0.949 . S
H1502 C1506 0.949 . S
C1503 C1504 1.349 . S
C1503 C1505 1.327 . S
C1503 H1526 0.950 . S
C1504 C1503 1.349 . S
C1504 C1516 1.349 . S
C1505 C1503 1.327 . S
C1505 C1521 1.429 . S
C1505 H1527 0.950 . S
C1506 H1502 0.949 . S
C1506 C1514 1.574 . S
C1506 C1522 1.368 . S
H1507 C1515 0.950 . S
H1508 C1513 0.950 . S
H1509 C1514 0.949 . S
H1510 C1516 0.950 . S
H1511 C1517 0.950 . S
H1512 C1518 0.949 . S
C1513 H1508 0.950 . S
C1513 C1515 1.327 . S
C1513 C1519 1.429 . S
C1514 C1506 1.574 . S
C1514 H1509 0.949 . S
C1514 C1520 1.368 . S
C1515 C1499 1.349 . S
C1515 H1507 0.950 . S
C1515 C1513 1.327 . S
C1516 C1504 1.349 . S
C1516 H1510 0.950 . S
C1516 C1517 1.327 . S
C1517 H1511 0.950 . S
C1517 C1516 1.327 . S
C1517 C1521 1.429 . S
C1518 C1501 1.574 . S
C1518 H1512 0.949 . S
C1518 C1522 1.368 . S
C1519 C1500 1.429 . S
C1519 C1513 1.429 . S
C1519 C1520 1.523 . S
C1520 C1501 1.368 . S
C1520 C1514 1.368 . S
C1520 C1519 1.523 . S
C1521 C1505 1.429 . S
C1521 C1517 1.429 . S
C1521 C1522 1.523 . S
C1522 C1506 1.368 . S
C1522 C1518 1.368 . S
C1522 C1521 1.523 . S
H1523 C1498 0.950 . S
H1524 C1500 0.950 . S
H1525 C1501 0.949 . S
H1526 C1503 0.950 . S
H1527 C1505 0.950 . S
C1528 C1529 1.349 . S
C1528 C1530 1.327 . S
C1528 H1553 0.950 . S
C1529 C1528 1.349 . S
C1529 C1545 1.349 . S
C1530 C1528 1.327 . S
C1530 C1549 1.429 . S
C1530 H1554 0.950 . S
C1531 C1548 1.574 . S
C1531 C1550 1.368 . S
C1531 H1555 0.949 . S
H1532 C1536 0.949 . S
C1533 C1534 1.349 . S
C1533 C1535 1.327 . S
C1533 H1556 0.950 . S
C1534 C1533 1.349 . S
C1534 C1546 1.349 . S
C1535 C1533 1.327 . S
C1535 C1551 1.429 . S
C1535 H1557 0.950 . S
C1536 H1532 0.949 . S
C1536 C1544 1.574 . S
C1536 C1552 1.368 . S
H1537 C1545 0.950 . S
H1538 C1543 0.950 . S
H1539 C1544 0.949 . S
H1540 C1546 0.950 . S
H1541 C1547 0.950 . S
H1542 C1548 0.949 . S
C1543 H1538 0.950 . S
C1543 C1545 1.327 . S
C1543 C1549 1.429 . S
C1544 C1536 1.574 . S
C1544 H1539 0.949 . S
C1544 C1550 1.368 1_556 S
C1545 C1529 1.349 . S
C1545 H1537 0.950 . S
C1545 C1543 1.327 . S
C1546 C1534 1.349 . S
C1546 H1540 0.950 . S
C1546 C1547 1.327 . S
C1547 H1541 0.950 . S
C1547 C1546 1.327 . S
C1547 C1551 1.429 . S
C1548 C1531 1.574 . S
C1548 H1542 0.949 . S
C1548 C1552 1.368 1_554 S
C1549 C1530 1.429 . S
C1549 C1543 1.429 . S
C1549 C1550 1.523 . S
C1550 C1531 1.368 . S
C1550 C1544 1.368 1_554 S
C1550 C1549 1.523 . S
C1551 C1535 1.429 . S
C1551 C1547 1.429 . S
C1551 C1552 1.523 . S
C1552 C1536 1.368 . S
C1552 C1548 1.368 1_556 S
C1552 C1551 1.523 . S
H1553 C1528 0.950 . S
H1554 C1530 0.950 . S
H1555 C1531 0.949 . S
H1556 C1533 0.950 . S
H1557 C1535 0.950 . S
C1558 C1559 1.349 . S
C1558 C1560 1.327 . S
C1558 H1583 0.950 . S
C1559 C1558 1.349 . S
C1559 C1575 1.349 . S
C1560 C1558 1.327 . S
C1560 C1579 1.429 . S
C1560 H1584 0.950 . S
C1561 C1578 1.574 . S
C1561 C1580 1.368 . S
C1561 H1585 0.949 . S
H1562 C1566 0.949 . S
C1563 C1564 1.349 . S
C1563 C1565 1.327 . S
C1563 H1586 0.950 . S
C1564 C1563 1.349 . S
C1564 C1576 1.349 . S
C1565 C1563 1.327 . S
C1565 C1581 1.429 . S
C1565 H1587 0.950 . S
C1566 H1562 0.949 . S
C1566 C1574 1.574 . S
C1566 C1582 1.368 . S
H1567 C1575 0.950 . S
H1568 C1573 0.950 . S
H1569 C1574 0.949 . S
H1570 C1576 0.950 . S
H1571 C1577 0.950 . S
H1572 C1578 0.949 . S
C1573 H1568 0.950 . S
C1573 C1575 1.327 . S
C1573 C1579 1.429 . S
C1574 C1566 1.574 . S
C1574 H1569 0.949 . S
C1574 C1580 1.368 . S
C1575 C1559 1.349 . S
C1575 H1567 0.950 . S
C1575 C1573 1.327 . S
C1576 C1564 1.349 . S
C1576 H1570 0.950 . S
C1576 C1577 1.327 . S
C1577 H1571 0.950 . S
C1577 C1576 1.327 . S
C1577 C1581 1.429 . S
C1578 C1561 1.574 . S
C1578 H1572 0.949 . S
C1578 C1582 1.368 . S
C1579 C1560 1.429 . S
C1579 C1573 1.429 . S
C1579 C1580 1.523 . S
C1580 C1561 1.368 . S
C1580 C1574 1.368 . S
C1580 C1579 1.523 . S
C1581 C1565 1.429 . S
C1581 C1577 1.429 . S
C1581 C1582 1.523 . S
C1582 C1566 1.368 . S
C1582 C1578 1.368 . S
C1582 C1581 1.523 . S
H1583 C1558 0.950 . S
H1584 C1560 0.950 . S
H1585 C1561 0.949 . S
H1586 C1563 0.950 . S
H1587 C1565 0.950 . S
C1588 C1589 1.349 . S
C1588 C1590 1.327 . S
C1588 H1613 0.950 . S
C1589 C1588 1.349 . S
C1589 C1605 1.349 . S
C1590 C1588 1.327 . S
C1590 C1609 1.429 . S
C1590 H1614 0.950 . S
C1591 C1608 1.574 . S
C1591 C1610 1.368 . S
C1591 H1615 0.949 . S
H1592 C1596 0.949 . S
C1593 C1594 1.349 . S
C1593 C1595 1.327 . S
C1593 H1616 0.950 . S
C1594 C1593 1.349 . S
C1594 C1606 1.349 . S
C1595 C1593 1.327 . S
C1595 C1611 1.429 . S
C1595 H1617 0.950 . S
C1596 H1592 0.949 . S
C1596 C1604 1.574 . S
C1596 C1612 1.368 . S
H1597 C1605 0.950 . S
H1598 C1603 0.950 . S
H1599 C1604 0.949 . S
H1600 C1606 0.950 . S
H1601 C1607 0.950 . S
H1602 C1608 0.949 . S
C1603 H1598 0.950 . S
C1603 C1605 1.327 . S
C1603 C1609 1.429 . S
C1604 C1596 1.574 . S
C1604 H1599 0.949 . S
C1604 C1610 1.368 . S
C1605 C1589 1.349 . S
C1605 H1597 0.950 . S
C1605 C1603 1.327 . S
C1606 C1594 1.349 . S
C1606 H1600 0.950 . S
C1606 C1607 1.327 . S
C1607 H1601 0.950 . S
C1607 C1606 1.327 . S
C1607 C1611 1.429 . S
C1608 C1591 1.574 . S
C1608 H1602 0.949 . S
C1608 C1612 1.368 . S
C1609 C1590 1.429 . S
C1609 C1603 1.429 . S
C1609 C1610 1.523 . S
C1610 C1591 1.368 . S
C1610 C1604 1.368 . S
C1610 C1609 1.523 . S
C1611 C1595 1.429 . S
C1611 C1607 1.429 . S
C1611 C1612 1.523 . S
C1612 C1596 1.368 . S
C1612 C1608 1.368 . S
C1612 C1611 1.523 . S
H1613 C1588 0.950 . S
H1614 C1590 0.950 . S
H1615 C1591 0.949 . S
H1616 C1593 0.950 . S
H1617 C1595 0.950 . S
C1618 C1619 1.349 . S
C1618 C1620 1.327 . S
C1618 H1643 0.950 . S
C1619 C1618 1.349 . S
C1619 C1635 1.349 . S
C1620 C1618 1.327 . S
C1620 C1639 1.429 . S
C1620 H1644 0.950 . S
C1621 C1638 1.574 . S
C1621 C1640 1.368 . S
C1621 H1645 0.949 . S
H1622 C1626 0.949 . S
C1623 C1624 1.349 . S
C1623 C1625 1.327 . S
C1623 H1646 0.950 . S
C1624 C1623 1.349 . S
C1624 C1636 1.349 . S
C1625 C1623 1.327 . S
C1625 C1641 1.429 . S
C1625 H1647 0.950 . S
C1626 H1622 0.949 . S
C1626 C1634 1.574 . S
C1626 C1642 1.368 . S
H1627 C1635 0.950 . S
H1628 C1633 0.950 . S
H1629 C1634 0.949 . S
H1630 C1636 0.950 . S
H1631 C1637 0.950 . S
H1632 C1638 0.949 . S
C1633 H1628 0.950 . S
C1633 C1635 1.327 . S
C1633 C1639 1.429 . S
C1634 C1626 1.574 . S
C1634 H1629 0.949 . S
C1634 C1640 1.368 . S
C1635 C1619 1.349 . S
C1635 H1627 0.950 . S
C1635 C1633 1.327 . S
C1636 C1624 1.349 . S
C1636 H1630 0.950 . S
C1636 C1637 1.327 . S
C1637 H1631 0.950 . S
C1637 C1636 1.327 . S
C1637 C1641 1.429 . S
C1638 C1621 1.574 . S
C1638 H1632 0.949 . S
C1638 C1642 1.368 . S
C1639 C1620 1.429 . S
C1639 C1633 1.429 . S
C1639 C1640 1.523 . S
C1640 C1621 1.368 . S
C1640 C1634 1.368 . S
C1640 C1639 1.523 . S
C1641 C1625 1.429 . S
C1641 C1637 1.429 . S
C1641 C1642 1.523 . S
C1642 C1626 1.368 . S
C1642 C1638 1.368 . S
C1642 C1641 1.523 . S
H1643 C1618 0.950 . S
H1644 C1620 0.950 . S
H1645 C1621 0.949 . S
H1646 C1623 0.950 . S
H1647 C1625 0.950 . S
C1648 C1649 1.349 . S
C1648 C1650 1.327 . S
C1648 H1673 0.950 . S
C1649 C1648 1.349 . S
C1649 C1665 1.349 . S
C1650 C1648 1.327 . S
C1650 C1669 1.429 . S
C1650 H1674 0.950 . S
C1651 C1668 1.599 . S
C1651 C1670 1.368 . S
C1651 H1675 0.949 . S
H1652 C1656 0.949 . S
C1653 C1654 1.349 . S
C1653 C1655 1.327 . S
C1653 H1676 0.950 . S
C1654 C1653 1.349 . S
C1654 C1666 1.349 . S
C1655 C1653 1.327 . S
C1655 C1671 1.429 . S
C1655 H1677 0.950 . S
C1656 H1652 0.949 . S
C1656 C1664 1.599 . S
C1656 C1672 1.368 . S
H1657 C1665 0.950 . S
H1658 C1663 0.950 . S
H1659 C1664 0.949 . S
H1660 C1666 0.950 . S
H1661 C1667 0.950 . S
H1662 C1668 0.949 . S
C1663 H1658 0.950 . S
C1663 C1665 1.327 . S
C1663 C1669 1.429 . S
C1664 C1656 1.599 . S
C1664 H1659 0.949 . S
C1664 C1670 1.343 1_565 S
C1665 C1649 1.349 . S
C1665 H1657 0.950 . S
C1665 C1663 1.327 . S
C1666 C1654 1.349 . S
C1666 H1660 0.950 . S
C1666 C1667 1.327 . S
C1667 H1661 0.950 . S
C1667 C1666 1.327 . S
C1667 C1671 1.429 . S
C1668 C1651 1.599 . S
C1668 H1662 0.949 . S
C1668 C1672 1.343 1_545 S
C1669 C1650 1.429 . S
C1669 C1663 1.429 . S
C1669 C1670 1.523 . S
C1670 C1651 1.368 . S
C1670 C1664 1.343 1_545 S
C1670 C1669 1.523 . S
C1671 C1655 1.429 . S
C1671 C1667 1.429 . S
C1671 C1672 1.523 . S
C1672 C1656 1.368 . S
C1672 C1668 1.343 1_565 S
C1672 C1671 1.523 . S
H1673 C1648 0.950 . S
H1674 C1650 0.950 . S
H1675 C1651 0.949 . S
H1676 C1653 0.950 . S
H1677 C1655 0.950 . S
C1678 C1679 1.349 . S
C1678 C1680 1.327 . S
C1678 H1703 0.950 . S
C1679 C1678 1.349 . S
C1679 C1695 1.349 . S
C1680 C1678 1.327 . S
C1680 C1699 1.429 . S
C1680 H1704 0.950 . S
C1681 C1698 1.574 . S
C1681 C1700 1.368 . S
C1681 H1705 0.949 . S
H1682 C1686 0.949 . S
C1683 C1684 1.349 . S
C1683 C1685 1.327 . S
C1683 H1706 0.950 . S
C1684 C1683 1.349 . S
C1684 C1696 1.349 . S
C1685 C1683 1.327 . S
C1685 C1701 1.429 . S
C1685 H1707 0.950 . S
C1686 H1682 0.949 . S
C1686 C1694 1.574 . S
C1686 C1702 1.368 . S
H1687 C1695 0.950 . S
H1688 C1693 0.950 . S
H1689 C1694 0.949 . S
H1690 C1696 0.950 . S
H1691 C1697 0.950 . S
H1692 C1698 0.949 . S
C1693 H1688 0.950 . S
C1693 C1695 1.327 . S
C1693 C1699 1.429 . S
C1694 C1686 1.574 . S
C1694 H1689 0.949 . S
C1694 C1700 1.368 . S
C1695 C1679 1.349 . S
C1695 H1687 0.950 . S
C1695 C1693 1.327 . S
C1696 C1684 1.349 . S
C1696 H1690 0.950 . S
C1696 C1697 1.327 . S
C1697 H1691 0.950 . S
C1697 C1696 1.327 . S
C1697 C1701 1.429 . S
C1698 C1681 1.574 . S
C1698 H1692 0.949 . S
C1698 C1702 1.368 . S
C1699 C1680 1.429 . S
C1699 C1693 1.429 . S
C1699 C1700 1.523 . S
C1700 C1681 1.368 . S
C1700 C1694 1.368 . S
C1700 C1699 1.523 . S
C1701 C1685 1.429 . S
C1701 C1697 1.429 . S
C1701 C1702 1.523 . S
C1702 C1686 1.368 . S
C1702 C1698 1.368 . S
C1702 C1701 1.523 . S
H1703 C1678 0.950 . S
H1704 C1680 0.950 . S
H1705 C1681 0.949 . S
H1706 C1683 0.950 . S
H1707 C1685 0.950 . S
C1708 C1709 1.349 . S
C1708 C1710 1.327 . S
C1708 H1733 0.950 . S
C1709 C1708 1.349 . S
C1709 C1725 1.349 . S
C1710 C1708 1.327 . S
C1710 C1729 1.429 . S
C1710 H1734 0.950 . S
C1711 C1728 1.607 . S
C1711 C1730 1.335 1_545 S
C1711 H1735 0.949 . S
H1712 C1716 0.949 . S
C1713 C1714 1.349 . S
C1713 C1715 1.327 . S
C1713 H1736 0.950 . S
C1714 C1713 1.349 . S
C1714 C1726 1.349 . S
C1715 C1713 1.327 . S
C1715 C1731 1.429 . S
C1715 H1737 0.950 . S
C1716 H1712 0.949 . S
C1716 C1724 1.608 . S
C1716 C1732 1.335 1_565 S
H1717 C1725 0.950 . S
H1718 C1723 0.950 . S
H1719 C1724 0.949 . S
H1720 C1726 0.950 . S
H1721 C1727 0.950 . S
H1722 C1728 0.949 . S
C1723 H1718 0.950 . S
C1723 C1725 1.327 . S
C1723 C1729 1.429 . S
C1724 C1716 1.608 . S
C1724 H1719 0.949 . S
C1724 C1730 1.368 1_556 S
C1725 C1709 1.349 . S
C1725 H1717 0.950 . S
C1725 C1723 1.327 . S
C1726 C1714 1.349 . S
C1726 H1720 0.950 . S
C1726 C1727 1.327 . S
C1727 H1721 0.950 . S
C1727 C1726 1.327 . S
C1727 C1731 1.429 . S
C1728 C1711 1.607 . S
C1728 H1722 0.949 . S
C1728 C1732 1.368 1_554 S
C1729 C1710 1.429 . S
C1729 C1723 1.429 . S
C1729 C1730 1.523 . S
C1730 C1711 1.335 1_565 S
C1730 C1724 1.368 1_554 S
C1730 C1729 1.523 . S
C1731 C1715 1.429 . S
C1731 C1727 1.429 . S
C1731 C1732 1.523 . S
C1732 C1716 1.335 1_545 S
C1732 C1728 1.368 1_556 S
C1732 C1731 1.523 . S
H1733 C1708 0.950 . S
H1734 C1710 0.950 . S
H1735 C1711 0.949 . S
H1736 C1713 0.950 . S
H1737 C1715 0.950 . S
C1738 C1739 1.349 . S
C1738 C1740 1.327 . S
C1738 H1763 0.950 . S
C1739 C1738 1.349 . S
C1739 C1755 1.349 . S
C1740 C1738 1.327 . S
C1740 C1759 1.429 . S
C1740 H1764 0.950 . S
C1741 C1758 1.574 . S
C1741 C1760 1.368 . S
C1741 H1765 0.949 . S
H1742 C1746 0.949 . S
C1743 C1744 1.349 . S
C1743 C1745 1.327 . S
C1743 H1766 0.950 . S
C1744 C1743 1.349 . S
C1744 C1756 1.349 . S
C1745 C1743 1.327 . S
C1745 C1761 1.429 . S
C1745 H1767 0.950 . S
C1746 H1742 0.949 . S
C1746 C1754 1.574 . S
C1746 C1762 1.368 . S
H1747 C1755 0.950 . S
H1748 C1753 0.950 . S
H1749 C1754 0.949 . S
H1750 C1756 0.950 . S
H1751 C1757 0.950 . S
H1752 C1758 0.949 . S
C1753 H1748 0.950 . S
C1753 C1755 1.327 . S
C1753 C1759 1.429 . S
C1754 C1746 1.574 . S
C1754 H1749 0.949 . S
C1754 C1760 1.368 . S
C1755 C1739 1.349 . S
C1755 H1747 0.950 . S
C1755 C1753 1.327 . S
C1756 C1744 1.349 . S
C1756 H1750 0.950 . S
C1756 C1757 1.327 . S
C1757 H1751 0.950 . S
C1757 C1756 1.327 . S
C1757 C1761 1.429 . S
C1758 C1741 1.574 . S
C1758 H1752 0.949 . S
C1758 C1762 1.368 . S
C1759 C1740 1.429 . S
C1759 C1753 1.429 . S
C1759 C1760 1.523 . S
C1760 C1741 1.368 . S
C1760 C1754 1.368 . S
C1760 C1759 1.523 . S
C1761 C1745 1.429 . S
C1761 C1757 1.429 . S
C1761 C1762 1.523 . S
C1762 C1746 1.368 . S
C1762 C1758 1.368 . S
C1762 C1761 1.523 . S
H1763 C1738 0.950 . S
H1764 C1740 0.950 . S
H1765 C1741 0.949 . S
H1766 C1743 0.950 . S
H1767 C1745 0.950 . S
C1768 C1769 1.349 . S
C1768 C1770 1.327 . S
C1768 H1793 0.950 . S
C1769 C1768 1.349 . S
C1769 C1785 1.349 . S
C1770 C1768 1.327 . S
C1770 C1789 1.429 . S
C1770 H1794 0.950 . S
C1771 C1788 1.616 . S
C1771 C1790 1.368 . S
C1771 H1795 0.949 . S
H1772 C1776 0.949 . S
C1773 C1774 1.349 . S
C1773 C1775 1.327 . S
C1773 H1796 0.950 . S
C1774 C1773 1.349 . S
C1774 C1786 1.349 . S
C1775 C1773 1.327 . S
C1775 C1791 1.429 . S
C1775 H1797 0.950 . S
C1776 H1772 0.949 . S
C1776 C1784 1.615 . S
C1776 C1792 1.368 . S
H1777 C1785 0.950 . S
H1778 C1783 0.950 . S
H1779 C1784 0.951 . S
H1780 C1786 0.950 . S
H1781 C1787 0.950 . S
H1782 C1788 0.951 . S
C1783 H1778 0.950 . S
C1783 C1785 1.327 . S
C1783 C1789 1.429 . S
C1784 C1776 1.615 . S
C1784 H1779 0.951 . S
C1784 C1790 1.327 1_565 S
C1785 C1769 1.349 . S
C1785 H1777 0.950 . S
C1785 C1783 1.327 . S
C1786 C1774 1.349 . S
C1786 H1780 0.950 . S
C1786 C1787 1.327 . S
C1787 H1781 0.950 . S
C1787 C1786 1.327 . S
C1787 C1791 1.429 . S
C1788 C1771 1.616 . S
C1788 H1782 0.951 . S
C1788 C1792 1.327 1_545 S
C1789 C1770 1.429 . S
C1789 C1783 1.429 . S
C1789 C1790 1.523 . S
C1790 C1771 1.368 . S
C1790 C1784 1.327 1_545 S
C1790 C1789 1.523 . S
C1791 C1775 1.429 . S
C1791 C1787 1.429 . S
C1791 C1792 1.523 . S
C1792 C1776 1.368 . S
C1792 C1788 1.327 1_565 S
C1792 C1791 1.523 . S
H1793 C1768 0.950 . S
H1794 C1770 0.950 . S
H1795 C1771 0.949 . S
H1796 C1773 0.950 . S
H1797 C1775 0.950 . S
C1798 C1799 1.349 . S
C1798 C1800 1.327 . S
C1798 H1823 0.950 . S
C1799 C1798 1.349 . S
C1799 C1815 1.349 . S
C1800 C1798 1.327 . S
C1800 C1819 1.429 . S
C1800 H1824 0.950 . S
C1801 C1818 1.574 . S
C1801 C1820 1.368 . S
C1801 H1825 0.949 . S
H1802 C1806 0.949 . S
C1803 C1804 1.349 . S
C1803 C1805 1.327 . S
C1803 H1826 0.950 . S
C1804 C1803 1.349 . S
C1804 C1816 1.349 . S
C1805 C1803 1.327 . S
C1805 C1821 1.429 . S
C1805 H1827 0.950 . S
C1806 H1802 0.949 . S
C1806 C1814 1.574 . S
C1806 C1822 1.368 . S
H1807 C1815 0.950 . S
H1808 C1813 0.950 . S
H1809 C1814 0.949 . S
H1810 C1816 0.950 . S
H1811 C1817 0.950 . S
H1812 C1818 0.949 . S
C1813 H1808 0.950 . S
C1813 C1815 1.327 . S
C1813 C1819 1.429 . S
C1814 C1806 1.574 . S
C1814 H1809 0.949 . S
C1814 C1820 1.368 . S
C1815 C1799 1.349 . S
C1815 H1807 0.950 . S
C1815 C1813 1.327 . S
C1816 C1804 1.349 . S
C1816 H1810 0.950 . S
C1816 C1817 1.327 . S
C1817 H1811 0.950 . S
C1817 C1816 1.327 . S
C1817 C1821 1.429 . S
C1818 C1801 1.574 . S
C1818 H1812 0.949 . S
C1818 C1822 1.368 . S
C1819 C1800 1.429 . S
C1819 C1813 1.429 . S
C1819 C1820 1.523 . S
C1820 C1801 1.368 . S
C1820 C1814 1.368 . S
C1820 C1819 1.523 . S
C1821 C1805 1.429 . S
C1821 C1817 1.429 . S
C1821 C1822 1.523 . S
C1822 C1806 1.368 . S
C1822 C1818 1.368 . S
C1822 C1821 1.523 . S
H1823 C1798 0.950 . S
H1824 C1800 0.950 . S
H1825 C1801 0.949 . S
H1826 C1803 0.950 . S
H1827 C1805 0.950 . S
C1828 C1829 1.349 . S
C1828 C1830 1.327 . S
C1828 H1853 0.950 . S
C1829 C1828 1.349 . S
C1829 C1845 1.349 . S
C1830 C1828 1.327 . S
C1830 C1849 1.429 . S
C1830 H1854 0.950 . S
C1831 C1848 1.574 . S
C1831 C1850 1.368 1_545 S
C1831 H1855 0.949 . S
H1832 C1836 0.949 . S
C1833 C1834 1.349 . S
C1833 C1835 1.327 . S
C1833 H1856 0.950 . S
C1834 C1833 1.349 . S
C1834 C1846 1.349 . S
C1835 C1833 1.327 . S
C1835 C1851 1.429 . S
C1835 H1857 0.950 . S
C1836 H1832 0.949 . S
C1836 C1844 1.574 . S
C1836 C1852 1.368 1_565 S
H1837 C1845 0.950 . S
H1838 C1843 0.950 . S
H1839 C1844 0.949 . S
H1840 C1846 0.950 . S
H1841 C1847 0.950 . S
H1842 C1848 0.949 . S
C1843 H1838 0.950 . S
C1843 C1845 1.327 . S
C1843 C1849 1.429 . S
C1844 C1836 1.574 . S
C1844 H1839 0.949 . S
C1844 C1850 1.368 1_556 S
C1845 C1829 1.349 . S
C1845 H1837 0.950 . S
C1845 C1843 1.327 . S
C1846 C1834 1.349 . S
C1846 H1840 0.950 . S
C1846 C1847 1.327 . S
C1847 H1841 0.950 . S
C1847 C1846 1.327 . S
C1847 C1851 1.429 . S
C1848 C1831 1.574 . S
C1848 H1842 0.949 . S
C1848 C1852 1.368 1_554 S
C1849 C1830 1.429 . S
C1849 C1843 1.429 . S
C1849 C1850 1.523 . S
C1850 C1831 1.368 1_565 S
C1850 C1844 1.368 1_554 S
C1850 C1849 1.523 . S
C1851 C1835 1.429 . S
C1851 C1847 1.429 . S
C1851 C1852 1.523 . S
C1852 C1836 1.368 1_545 S
C1852 C1848 1.368 1_556 S
C1852 C1851 1.523 . S
H1853 C1828 0.950 . S
H1854 C1830 0.950 . S
H1855 C1831 0.949 . S
H1856 C1833 0.950 . S
H1857 C1835 0.950 . S
C1858 C1859 1.349 . S
C1858 C1860 1.327 . S
C1858 H1883 0.950 . S
C1859 C1858 1.349 . S
C1859 C1875 1.349 . S
C1860 C1858 1.327 . S
C1860 C1879 1.429 . S
C1860 H1884 0.950 . S
C1861 C1878 1.574 . S
C1861 C1880 1.368 . S
C1861 H1885 0.949 . S
H1862 C1866 0.949 . S
C1863 C1864 1.349 . S
C1863 C1865 1.327 . S
C1863 H1886 0.950 . S
C1864 C1863 1.349 . S
C1864 C1876 1.349 . S
C1865 C1863 1.327 . S
C1865 C1881 1.429 . S
C1865 H1887 0.950 . S
C1866 H1862 0.949 . S
C1866 C1874 1.574 . S
C1866 C1882 1.368 . S
H1867 C1875 0.950 . S
H1868 C1873 0.950 . S
H1869 C1874 0.949 . S
H1870 C1876 0.950 . S
H1871 C1877 0.950 . S
H1872 C1878 0.949 . S
C1873 H1868 0.950 . S
C1873 C1875 1.327 . S
C1873 C1879 1.429 . S
C1874 C1866 1.574 . S
C1874 H1869 0.949 . S
C1874 C1880 1.368 . S
C1875 C1859 1.349 . S
C1875 H1867 0.950 . S
C1875 C1873 1.327 . S
C1876 C1864 1.349 . S
C1876 H1870 0.950 . S
C1876 C1877 1.327 . S
C1877 H1871 0.950 . S
C1877 C1876 1.327 . S
C1877 C1881 1.429 . S
C1878 C1861 1.574 . S
C1878 H1872 0.949 . S
C1878 C1882 1.368 . S
C1879 C1860 1.429 . S
C1879 C1873 1.429 . S
C1879 C1880 1.523 . S
C1880 C1861 1.368 . S
C1880 C1874 1.368 . S
C1880 C1879 1.523 . S
C1881 C1865 1.429 . S
C1881 C1877 1.429 . S
C1881 C1882 1.523 . S
C1882 C1866 1.368 . S
C1882 C1878 1.368 . S
C1882 C1881 1.523 . S
H1883 C1858 0.950 . S
H1884 C1860 0.950 . S
H1885 C1861 0.949 . S
H1886 C1863 0.950 . S
H1887 C1865 0.950 . S
C1888 C1889 1.349 . S
C1888 C1890 1.327 . S
C1888 H1913 0.950 . S
C1889 C1888 1.349 . S
C1889 C1905 1.349 . S
C1890 C1888 1.327 . S
C1890 C1909 1.429 . S
C1890 H1914 0.950 . S
C1891 C1908 1.574 . S
C1891 C1910 1.368 . S
C1891 H1915 0.949 . S
H1892 C1896 0.949 . S
C1893 C1894 1.349 . S
C1893 C1895 1.327 . S
C1893 H1916 0.950 . S
C1894 C1893 1.349 . S
C1894 C1906 1.349 . S
C1895 C1893 1.327 . S
C1895 C1911 1.429 . S
C1895 H1917 0.950 . S
C1896 H1892 0.949 . S
C1896 C1904 1.574 . S
C1896 C1912 1.368 . S
H1897 C1905 0.950 . S
H1898 C1903 0.950 . S
H1899 C1904 0.949 . S
H1900 C1906 0.950 . S
H1901 C1907 0.950 . S
H1902 C1908 0.949 . S
C1903 H1898 0.950 . S
C1903 C1905 1.327 . S
C1903 C1909 1.429 . S
C1904 C1896 1.574 . S
C1904 H1899 0.949 . S
C1904 C1910 1.368 . S
C1905 C1889 1.349 . S
C1905 H1897 0.950 . S
C1905 C1903 1.327 . S
C1906 C1894 1.349 . S
C1906 H1900 0.950 . S
C1906 C1907 1.327 . S
C1907 H1901 0.950 . S
C1907 C1906 1.327 . S
C1907 C1911 1.429 . S
C1908 C1891 1.574 . S
C1908 H1902 0.949 . S
C1908 C1912 1.368 . S
C1909 C1890 1.429 . S
C1909 C1903 1.429 . S
C1909 C1910 1.523 . S
C1910 C1891 1.368 . S
C1910 C1904 1.368 . S
C1910 C1909 1.523 . S
C1911 C1895 1.429 . S
C1911 C1907 1.429 . S
C1911 C1912 1.523 . S
C1912 C1896 1.368 . S
C1912 C1908 1.368 . S
C1912 C1911 1.523 . S
H1913 C1888 0.950 . S
H1914 C1890 0.950 . S
H1915 C1891 0.949 . S
H1916 C1893 0.950 . S
H1917 C1895 0.950 . S
C1918 C1919 1.349 . S
C1918 C1920 1.327 . S
C1918 H1943 0.950 . S
C1919 C1918 1.349 . S
C1919 C1935 1.349 . S
C1920 C1918 1.327 . S
C1920 C1939 1.429 . S
C1920 H1944 0.950 . S
C1921 C1938 1.574 . S
C1921 C1940 1.368 . S
C1921 H1945 0.949 . S
H1922 C1926 0.949 . S
C1923 C1924 1.349 . S
C1923 C1925 1.327 . S
C1923 H1946 0.950 . S
C1924 C1923 1.349 . S
C1924 C1936 1.349 . S
C1925 C1923 1.327 . S
C1925 C1941 1.429 . S
C1925 H1947 0.950 . S
C1926 H1922 0.949 . S
C1926 C1934 1.574 . S
C1926 C1942 1.368 . S
H1927 C1935 0.950 . S
H1928 C1933 0.950 . S
H1929 C1934 0.949 . S
H1930 C1936 0.950 . S
H1931 C1937 0.950 . S
H1932 C1938 0.949 . S
C1933 H1928 0.950 . S
C1933 C1935 1.327 . S
C1933 C1939 1.429 . S
C1934 C1926 1.574 . S
C1934 H1929 0.949 . S
C1934 C1940 1.368 . S
C1935 C1919 1.349 . S
C1935 H1927 0.950 . S
C1935 C1933 1.327 . S
C1936 C1924 1.349 . S
C1936 H1930 0.950 . S
C1936 C1937 1.327 . S
C1937 H1931 0.950 . S
C1937 C1936 1.327 . S
C1937 C1941 1.429 . S
C1938 C1921 1.574 . S
C1938 H1932 0.949 . S
C1938 C1942 1.368 . S
C1939 C1920 1.429 . S
C1939 C1933 1.429 . S
C1939 C1940 1.523 . S
C1940 C1921 1.368 . S
C1940 C1934 1.368 . S
C1940 C1939 1.523 . S
C1941 C1925 1.429 . S
C1941 C1937 1.429 . S
C1941 C1942 1.523 . S
C1942 C1926 1.368 . S
C1942 C1938 1.368 . S
C1942 C1941 1.523 . S
H1943 C1918 0.950 . S
H1944 C1920 0.950 . S
H1945 C1921 0.949 . S
H1946 C1923 0.950 . S
H1947 C1925 0.950 . S
C1948 C1949 1.349 . S
C1948 C1950 1.327 . S
C1948 H1973 0.950 . S
C1949 C1948 1.349 . S
C1949 C1965 1.349 . S
C1950 C1948 1.327 . S
C1950 C1969 1.429 . S
C1950 H1974 0.950 . S
C1951 C1968 1.574 . S
C1951 C1970 1.368 . S
C1951 H1975 0.949 . S
H1952 C1956 0.949 . S
C1953 C1954 1.349 . S
C1953 C1955 1.327 . S
C1953 H1976 0.950 . S
C1954 C1953 1.349 . S
C1954 C1966 1.349 . S
C1955 C1953 1.327 . S
C1955 C1971 1.429 . S
C1955 H1977 0.950 . S
C1956 H1952 0.949 . S
C1956 C1964 1.574 . S
C1956 C1972 1.368 . S
H1957 C1965 0.950 . S
H1958 C1963 0.950 . S
H1959 C1964 0.949 . S
H1960 C1966 0.950 . S
H1961 C1967 0.950 . S
H1962 C1968 0.949 . S
C1963 H1958 0.950 . S
C1963 C1965 1.327 . S
C1963 C1969 1.429 . S
C1964 C1956 1.574 . S
C1964 H1959 0.949 . S
C1964 C1970 1.368 . S
C1965 C1949 1.349 . S
C1965 H1957 0.950 . S
C1965 C1963 1.327 . S
C1966 C1954 1.349 . S
C1966 H1960 0.950 . S
C1966 C1967 1.327 . S
C1967 H1961 0.950 . S
C1967 C1966 1.327 . S
C1967 C1971 1.429 . S
C1968 C1951 1.574 . S
C1968 H1962 0.949 . S
C1968 C1972 1.368 . S
C1969 C1950 1.429 . S
C1969 C1963 1.429 . S
C1969 C1970 1.523 . S
C1970 C1951 1.368 . S
C1970 C1964 1.368 . S
C1970 C1969 1.523 . S
C1971 C1955 1.429 . S
C1971 C1967 1.429 . S
C1971 C1972 1.523 . S
C1972 C1956 1.368 . S
C1972 C1968 1.368 . S
C1972 C1971 1.523 . S
H1973 C1948 0.950 . S
H1974 C1950 0.950 . S
H1975 C1951 0.949 . S
H1976 C1953 0.950 . S
H1977 C1955 0.950 . S
C1978 C1979 1.349 . S
C1978 C1980 1.327 . S
C1978 H2003 0.950 . S
C1979 C1978 1.349 . S
C1979 C1995 1.349 . S
C1980 C1978 1.327 . S
C1980 C1999 1.429 . S
C1980 H2004 0.950 . S
C1981 C1998 1.574 1_655 S
C1981 C2000 1.368 . S
C1981 H2005 0.949 . S
H1982 C1986 0.949 . S
C1983 C1984 1.349 . S
C1983 C1985 1.327 . S
C1983 H2006 0.950 . S
C1984 C1983 1.349 . S
C1984 C1996 1.349 . S
C1985 C1983 1.327 . S
C1985 C2001 1.429 . S
C1985 H2007 0.950 . S
C1986 H1982 0.949 . S
C1986 C1994 1.574 1_455 S
C1986 C2002 1.368 . S
H1987 C1995 0.950 . S
H1988 C1993 0.950 . S
H1989 C1994 0.949 . S
H1990 C1996 0.950 . S
H1991 C1997 0.950 . S
H1992 C1998 0.949 . S
C1993 H1988 0.950 . S
C1993 C1995 1.327 . S
C1993 C1999 1.429 . S
C1994 C1986 1.574 1_655 S
C1994 H1989 0.949 . S
C1994 C2000 1.368 . S
C1995 C1979 1.349 . S
C1995 H1987 0.950 . S
C1995 C1993 1.327 . S
C1996 C1984 1.349 . S
C1996 H1990 0.950 . S
C1996 C1997 1.327 . S
C1997 H1991 0.950 . S
C1997 C1996 1.327 . S
C1997 C2001 1.429 . S
C1998 C1981 1.574 1_455 S
C1998 H1992 0.949 . S
C1998 C2002 1.368 . S
C1999 C1980 1.429 . S
C1999 C1993 1.429 . S
C1999 C2000 1.523 . S
C2000 C1981 1.368 . S
C2000 C1994 1.368 . S
C2000 C1999 1.523 . S
C2001 C1985 1.429 . S
C2001 C1997 1.429 . S
C2001 C2002 1.523 . S
C2002 C1986 1.368 . S
C2002 C1998 1.368 . S
C2002 C2001 1.523 . S
H2003 C1978 0.950 . S
H2004 C1980 0.950 . S
H2005 C1981 0.949 . S
H2006 C1983 0.950 . S
H2007 C1985 0.950 . S
C2008 C2009 1.349 . S
C2008 C2010 1.327 . S
C2008 H2033 0.950 . S
C2009 C2008 1.349 . S
C2009 C2025 1.349 . S
C2010 C2008 1.327 . S
C2010 C2029 1.429 . S
C2010 H2034 0.950 . S
C2011 C2028 1.574 . S
C2011 C2030 1.368 . S
C2011 H2035 0.949 . S
H2012 C2016 0.949 . S
C2013 C2014 1.349 . S
C2013 C2015 1.327 . S
C2013 H2036 0.950 . S
C2014 C2013 1.349 . S
C2014 C2026 1.349 . S
C2015 C2013 1.327 . S
C2015 C2031 1.429 . S
C2015 H2037 0.950 . S
C2016 H2012 0.949 . S
C2016 C2024 1.574 . S
C2016 C2032 1.368 . S
H2017 C2025 0.950 . S
H2018 C2023 0.950 . S
H2019 C2024 0.949 . S
H2020 C2026 0.950 . S
H2021 C2027 0.950 . S
H2022 C2028 0.949 . S
C2023 H2018 0.950 . S
C2023 C2025 1.327 . S
C2023 C2029 1.429 . S
C2024 C2016 1.574 . S
C2024 H2019 0.949 . S
C2024 C2030 1.368 . S
C2025 C2009 1.349 . S
C2025 H2017 0.950 . S
C2025 C2023 1.327 . S
C2026 C2014 1.349 . S
C2026 H2020 0.950 . S
C2026 C2027 1.327 . S
C2027 H2021 0.950 . S
C2027 C2026 1.327 . S
C2027 C2031 1.429 . S
C2028 C2011 1.574 . S
C2028 H2022 0.949 . S
C2028 C2032 1.368 . S
C2029 C2010 1.429 . S
C2029 C2023 1.429 . S
C2029 C2030 1.523 . S
C2030 C2011 1.368 . S
C2030 C2024 1.368 . S
C2030 C2029 1.523 . S
C2031 C2015 1.429 . S
C2031 C2027 1.429 . S
C2031 C2032 1.523 . S
C2032 C2016 1.368 . S
C2032 C2028 1.368 . S
C2032 C2031 1.523 . S
H2033 C2008 0.950 . S
H2034 C2010 0.950 . S
H2035 C2011 0.949 . S
H2036 C2013 0.950 . S
H2037 C2015 0.950 . S
C2038 C2039 1.349 . S
C2038 C2040 1.327 . S
C2038 H2063 0.950 . S
C2039 C2038 1.349 . S
C2039 C2055 1.349 . S
C2040 C2038 1.327 . S
C2040 C2059 1.429 . S
C2040 H2064 0.950 . S
C2041 C2058 1.574 1_655 S
C2041 C2060 1.368 . S
C2041 H2065 0.949 . S
H2042 C2046 0.949 . S
C2043 C2044 1.349 . S
C2043 C2045 1.327 . S
C2043 H2066 0.950 . S
C2044 C2043 1.349 . S
C2044 C2056 1.349 . S
C2045 C2043 1.327 . S
C2045 C2061 1.429 . S
C2045 H2067 0.950 . S
C2046 H2042 0.949 . S
C2046 C2054 1.574 1_455 S
C2046 C2062 1.368 . S
H2047 C2055 0.950 . S
H2048 C2053 0.950 . S
H2049 C2054 0.949 . S
H2050 C2056 0.950 . S
H2051 C2057 0.950 . S
H2052 C2058 0.949 . S
C2053 H2048 0.950 . S
C2053 C2055 1.327 . S
C2053 C2059 1.429 . S
C2054 C2046 1.574 1_655 S
C2054 H2049 0.949 . S
C2054 C2060 1.368 . S
C2055 C2039 1.349 . S
C2055 H2047 0.950 . S
C2055 C2053 1.327 . S
C2056 C2044 1.349 . S
C2056 H2050 0.950 . S
C2056 C2057 1.327 . S
C2057 H2051 0.950 . S
C2057 C2056 1.327 . S
C2057 C2061 1.429 . S
C2058 C2041 1.574 1_455 S
C2058 H2052 0.949 . S
C2058 C2062 1.368 . S
C2059 C2040 1.429 . S
C2059 C2053 1.429 . S
C2059 C2060 1.523 . S
C2060 C2041 1.368 . S
C2060 C2054 1.368 . S
C2060 C2059 1.523 . S
C2061 C2045 1.429 . S
C2061 C2057 1.429 . S
C2061 C2062 1.523 . S
C2062 C2046 1.368 . S
C2062 C2058 1.368 . S
C2062 C2061 1.523 . S
H2063 C2038 0.950 . S
H2064 C2040 0.950 . S
H2065 C2041 0.949 . S
H2066 C2043 0.950 . S
H2067 C2045 0.950 . S
C2068 C2069 1.349 . S
C2068 C2070 1.327 . S
C2068 H2093 0.950 . S
C2069 C2068 1.349 . S
C2069 C2085 1.349 . S
C2070 C2068 1.327 . S
C2070 C2089 1.429 . S
C2070 H2094 0.950 . S
C2071 C2088 1.574 . S
C2071 C2090 1.368 . S
C2071 H2095 0.949 . S
H2072 C2076 0.949 . S
C2073 C2074 1.349 . S
C2073 C2075 1.327 . S
C2073 H2096 0.950 . S
C2074 C2073 1.349 . S
C2074 C2086 1.349 . S
C2075 C2073 1.327 . S
C2075 C2091 1.429 . S
C2075 H2097 0.950 . S
C2076 H2072 0.949 . S
C2076 C2084 1.574 . S
C2076 C2092 1.368 . S
H2077 C2085 0.950 . S
H2078 C2083 0.950 . S
H2079 C2084 0.949 . S
H2080 C2086 0.950 . S
H2081 C2087 0.950 . S
H2082 C2088 0.949 . S
C2083 H2078 0.950 . S
C2083 C2085 1.327 . S
C2083 C2089 1.429 . S
C2084 C2076 1.574 . S
C2084 H2079 0.949 . S
C2084 C2090 1.368 . S
C2085 C2069 1.349 . S
C2085 H2077 0.950 . S
C2085 C2083 1.327 . S
C2086 C2074 1.349 . S
C2086 H2080 0.950 . S
C2086 C2087 1.327 . S
C2087 H2081 0.950 . S
C2087 C2086 1.327 . S
C2087 C2091 1.429 . S
C2088 C2071 1.574 . S
C2088 H2082 0.949 . S
C2088 C2092 1.368 . S
C2089 C2070 1.429 . S
C2089 C2083 1.429 . S
C2089 C2090 1.523 . S
C2090 C2071 1.368 . S
C2090 C2084 1.368 . S
C2090 C2089 1.523 . S
C2091 C2075 1.429 . S
C2091 C2087 1.429 . S
C2091 C2092 1.523 . S
C2092 C2076 1.368 . S
C2092 C2088 1.368 . S
C2092 C2091 1.523 . S
H2093 C2068 0.950 . S
H2094 C2070 0.950 . S
H2095 C2071 0.949 . S
H2096 C2073 0.950 . S
H2097 C2075 0.950 . S
C2098 C2099 1.349 . S
C2098 C2100 1.327 . S
C2098 H2123 0.950 . S
C2099 C2098 1.349 . S
C2099 C2115 1.349 . S
C2100 C2098 1.327 . S
C2100 C2119 1.429 . S
C2100 H2124 0.950 . S
C2101 C2118 1.574 . S
C2101 C2120 1.368 . S
C2101 H2125 0.949 . S
H2102 C2106 0.949 . S
C2103 C2104 1.349 . S
C2103 C2105 1.327 . S
C2103 H2126 0.950 . S
C2104 C2103 1.349 . S
C2104 C2116 1.349 . S
C2105 C2103 1.327 . S
C2105 C2121 1.429 . S
C2105 H2127 0.950 . S
C2106 H2102 0.949 . S
C2106 C2114 1.574 . S
C2106 C2122 1.368 . S
H2107 C2115 0.950 . S
H2108 C2113 0.950 . S
H2109 C2114 0.949 . S
H2110 C2116 0.950 . S
H2111 C2117 0.950 . S
H2112 C2118 0.949 . S
C2113 H2108 0.950 . S
C2113 C2115 1.327 . S
C2113 C2119 1.429 . S
C2114 C2106 1.574 . S
C2114 H2109 0.949 . S
C2114 C2120 1.368 . S
C2115 C2099 1.349 . S
C2115 H2107 0.950 . S
C2115 C2113 1.327 . S
C2116 C2104 1.349 . S
C2116 H2110 0.950 . S
C2116 C2117 1.327 . S
C2117 H2111 0.950 . S
C2117 C2116 1.327 . S
C2117 C2121 1.429 . S
C2118 C2101 1.574 . S
C2118 H2112 0.949 . S
C2118 C2122 1.368 . S
C2119 C2100 1.429 . S
C2119 C2113 1.429 . S
C2119 C2120 1.523 . S
C2120 C2101 1.368 . S
C2120 C2114 1.368 . S
C2120 C2119 1.523 . S
C2121 C2105 1.429 . S
C2121 C2117 1.429 . S
C2121 C2122 1.523 . S
C2122 C2106 1.368 . S
C2122 C2118 1.368 . S
C2122 C2121 1.523 . S
H2123 C2098 0.950 . S
H2124 C2100 0.950 . S
H2125 C2101 0.949 . S
H2126 C2103 0.950 . S
H2127 C2105 0.950 . S
C2128 C2129 1.349 . S
C2128 C2130 1.327 . S
C2128 H2153 0.950 . S
C2129 C2128 1.349 . S
C2129 C2145 1.349 . S
C2130 C2128 1.327 . S
C2130 C2149 1.429 . S
C2130 H2154 0.950 . S
C2131 C2148 1.574 . S
C2131 C2150 1.368 . S
C2131 H2155 0.949 . S
H2132 C2136 0.949 . S
C2133 C2134 1.349 . S
C2133 C2135 1.327 . S
C2133 H2156 0.950 . S
C2134 C2133 1.349 . S
C2134 C2146 1.349 . S
C2135 C2133 1.327 . S
C2135 C2151 1.429 . S
C2135 H2157 0.950 . S
C2136 H2132 0.949 . S
C2136 C2144 1.574 . S
C2136 C2152 1.368 . S
H2137 C2145 0.950 . S
H2138 C2143 0.950 . S
H2139 C2144 0.949 . S
H2140 C2146 0.950 . S
H2141 C2147 0.950 . S
H2142 C2148 0.949 . S
C2143 H2138 0.950 . S
C2143 C2145 1.327 . S
C2143 C2149 1.429 . S
C2144 C2136 1.574 . S
C2144 H2139 0.949 . S
C2144 C2150 1.368 . S
C2145 C2129 1.349 . S
C2145 H2137 0.950 . S
C2145 C2143 1.327 . S
C2146 C2134 1.349 . S
C2146 H2140 0.950 . S
C2146 C2147 1.327 . S
C2147 H2141 0.950 . S
C2147 C2146 1.327 . S
C2147 C2151 1.429 . S
C2148 C2131 1.574 . S
C2148 H2142 0.949 . S
C2148 C2152 1.368 . S
C2149 C2130 1.429 . S
C2149 C2143 1.429 . S
C2149 C2150 1.523 . S
C2150 C2131 1.368 . S
C2150 C2144 1.368 . S
C2150 C2149 1.523 . S
C2151 C2135 1.429 . S
C2151 C2147 1.429 . S
C2151 C2152 1.523 . S
C2152 C2136 1.368 . S
C2152 C2148 1.368 . S
C2152 C2151 1.523 . S
H2153 C2128 0.950 . S
H2154 C2130 0.950 . S
H2155 C2131 0.949 . S
H2156 C2133 0.950 . S
H2157 C2135 0.950 . S
C2158 C2159 1.349 . S
C2158 C2160 1.327 . S
C2158 H2183 0.950 . S
C2159 C2158 1.349 . S
C2159 C2175 1.349 . S
C2160 C2158 1.327 . S
C2160 C2179 1.429 . S
C2160 H2184 0.950 . S
C2161 C2178 1.574 . S
C2161 C2180 1.368 . S
C2161 H2185 0.949 . S
H2162 C2166 0.949 . S
C2163 C2164 1.349 . S
C2163 C2165 1.327 . S
C2163 H2186 0.950 . S
C2164 C2163 1.349 . S
C2164 C2176 1.349 . S
C2165 C2163 1.327 . S
C2165 C2181 1.429 . S
C2165 H2187 0.950 . S
C2166 H2162 0.949 . S
C2166 C2174 1.574 . S
C2166 C2182 1.368 . S
H2167 C2175 0.950 . S
H2168 C2173 0.950 . S
H2169 C2174 0.949 . S
H2170 C2176 0.950 . S
H2171 C2177 0.950 . S
H2172 C2178 0.949 . S
C2173 H2168 0.950 . S
C2173 C2175 1.327 . S
C2173 C2179 1.429 . S
C2174 C2166 1.574 . S
C2174 H2169 0.949 . S
C2174 C2180 1.368 . S
C2175 C2159 1.349 . S
C2175 H2167 0.950 . S
C2175 C2173 1.327 . S
C2176 C2164 1.349 . S
C2176 H2170 0.950 . S
C2176 C2177 1.327 . S
C2177 H2171 0.950 . S
C2177 C2176 1.327 . S
C2177 C2181 1.429 . S
C2178 C2161 1.574 . S
C2178 H2172 0.949 . S
C2178 C2182 1.368 . S
C2179 C2160 1.429 . S
C2179 C2173 1.429 . S
C2179 C2180 1.523 . S
C2180 C2161 1.368 . S
C2180 C2174 1.368 . S
C2180 C2179 1.523 . S
C2181 C2165 1.429 . S
C2181 C2177 1.429 . S
C2181 C2182 1.523 . S
C2182 C2166 1.368 . S
C2182 C2178 1.368 . S
C2182 C2181 1.523 . S
H2183 C2158 0.950 . S
H2184 C2160 0.950 . S
H2185 C2161 0.949 . S
H2186 C2163 0.950 . S
H2187 C2165 0.950 . S
C2188 C2189 1.349 . S
C2188 C2190 1.327 . S
C2188 H2213 0.950 . S
C2189 C2188 1.349 . S
C2189 C2205 1.349 . S
C2190 C2188 1.327 . S
C2190 C2209 1.429 . S
C2190 H2214 0.950 . S
C2191 C2208 1.574 . S
C2191 C2210 1.368 . S
C2191 H2215 0.949 . S
H2192 C2196 0.949 . S
C2193 C2194 1.349 . S
C2193 C2195 1.327 . S
C2193 H2216 0.950 . S
C2194 C2193 1.349 . S
C2194 C2206 1.349 . S
C2195 C2193 1.327 . S
C2195 C2211 1.429 . S
C2195 H2217 0.950 . S
C2196 H2192 0.949 . S
C2196 C2204 1.574 . S
C2196 C2212 1.368 . S
H2197 C2205 0.950 . S
H2198 C2203 0.950 . S
H2199 C2204 0.949 . S
H2200 C2206 0.950 . S
H2201 C2207 0.950 . S
H2202 C2208 0.949 . S
C2203 H2198 0.950 . S
C2203 C2205 1.327 . S
C2203 C2209 1.429 . S
C2204 C2196 1.574 . S
C2204 H2199 0.949 . S
C2204 C2210 1.368 . S
C2205 C2189 1.349 . S
C2205 H2197 0.950 . S
C2205 C2203 1.327 . S
C2206 C2194 1.349 . S
C2206 H2200 0.950 . S
C2206 C2207 1.327 . S
C2207 H2201 0.950 . S
C2207 C2206 1.327 . S
C2207 C2211 1.429 . S
C2208 C2191 1.574 . S
C2208 H2202 0.949 . S
C2208 C2212 1.368 . S
C2209 C2190 1.429 . S
C2209 C2203 1.429 . S
C2209 C2210 1.523 . S
C2210 C2191 1.368 . S
C2210 C2204 1.368 . S
C2210 C2209 1.523 . S
C2211 C2195 1.429 . S
C2211 C2207 1.429 . S
C2211 C2212 1.523 . S
C2212 C2196 1.368 . S
C2212 C2208 1.368 . S
C2212 C2211 1.523 . S
H2213 C2188 0.950 . S
H2214 C2190 0.950 . S
H2215 C2191 0.949 . S
H2216 C2193 0.950 . S
H2217 C2195 0.950 . S
C2218 C2219 1.349 . S
C2218 C2220 1.327 . S
C2218 H2243 0.950 . S
C2219 C2218 1.349 . S
C2219 C2235 1.349 . S
C2220 C2218 1.327 . S
C2220 C2239 1.429 . S
C2220 H2244 0.950 . S
C2221 C2238 1.574 . S
C2221 C2240 1.368 . S
C2221 H2245 0.949 . S
H2222 C2226 0.949 . S
C2223 C2224 1.349 . S
C2223 C2225 1.327 . S
C2223 H2246 0.950 . S
C2224 C2223 1.349 . S
C2224 C2236 1.349 . S
C2225 C2223 1.327 . S
C2225 C2241 1.429 . S
C2225 H2247 0.950 . S
C2226 H2222 0.949 . S
C2226 C2234 1.574 . S
C2226 C2242 1.368 . S
H2227 C2235 0.950 . S
H2228 C2233 0.950 . S
H2229 C2234 0.949 . S
H2230 C2236 0.950 . S
H2231 C2237 0.950 . S
H2232 C2238 0.949 . S
C2233 H2228 0.950 . S
C2233 C2235 1.327 . S
C2233 C2239 1.429 . S
C2234 C2226 1.574 . S
C2234 H2229 0.949 . S
C2234 C2240 1.368 . S
C2235 C2219 1.349 . S
C2235 H2227 0.950 . S
C2235 C2233 1.327 . S
C2236 C2224 1.349 . S
C2236 H2230 0.950 . S
C2236 C2237 1.327 . S
C2237 H2231 0.950 . S
C2237 C2236 1.327 . S
C2237 C2241 1.429 . S
C2238 C2221 1.574 . S
C2238 H2232 0.949 . S
C2238 C2242 1.368 . S
C2239 C2220 1.429 . S
C2239 C2233 1.429 . S
C2239 C2240 1.523 . S
C2240 C2221 1.368 . S
C2240 C2234 1.368 . S
C2240 C2239 1.523 . S
C2241 C2225 1.429 . S
C2241 C2237 1.429 . S
C2241 C2242 1.523 . S
C2242 C2226 1.368 . S
C2242 C2238 1.368 . S
C2242 C2241 1.523 . S
H2243 C2218 0.950 . S
H2244 C2220 0.950 . S
H2245 C2221 0.949 . S
H2246 C2223 0.950 . S
H2247 C2225 0.950 . S
C2248 C2249 1.349 . S
C2248 C2250 1.327 . S
C2248 H2273 0.950 . S
C2249 C2248 1.349 . S
C2249 C2265 1.349 . S
C2250 C2248 1.327 . S
C2250 C2269 1.429 . S
C2250 H2274 0.950 . S
C2251 C2268 1.574 1_655 S
C2251 C2270 1.368 . S
C2251 H2275 0.949 . S
H2252 C2256 0.949 . S
C2253 C2254 1.349 . S
C2253 C2255 1.327 . S
C2253 H2276 0.950 . S
C2254 C2253 1.349 . S
C2254 C2266 1.349 . S
C2255 C2253 1.327 . S
C2255 C2271 1.429 . S
C2255 H2277 0.950 . S
C2256 H2252 0.949 . S
C2256 C2264 1.574 1_455 S
C2256 C2272 1.368 . S
H2257 C2265 0.950 . S
H2258 C2263 0.950 . S
H2259 C2264 0.949 . S
H2260 C2266 0.950 . S
H2261 C2267 0.950 . S
H2262 C2268 0.949 . S
C2263 H2258 0.950 . S
C2263 C2265 1.327 . S
C2263 C2269 1.429 . S
C2264 C2256 1.574 1_655 S
C2264 H2259 0.949 . S
C2264 C2270 1.368 . S
C2265 C2249 1.349 . S
C2265 H2257 0.950 . S
C2265 C2263 1.327 . S
C2266 C2254 1.349 . S
C2266 H2260 0.950 . S
C2266 C2267 1.327 . S
C2267 H2261 0.950 . S
C2267 C2266 1.327 . S
C2267 C2271 1.429 . S
C2268 C2251 1.574 1_455 S
C2268 H2262 0.949 . S
C2268 C2272 1.368 . S
C2269 C2250 1.429 . S
C2269 C2263 1.429 . S
C2269 C2270 1.523 . S
C2270 C2251 1.368 . S
C2270 C2264 1.368 . S
C2270 C2269 1.523 . S
C2271 C2255 1.429 . S
C2271 C2267 1.429 . S
C2271 C2272 1.523 . S
C2272 C2256 1.368 . S
C2272 C2268 1.368 . S
C2272 C2271 1.523 . S
H2273 C2248 0.950 . S
H2274 C2250 0.950 . S
H2275 C2251 0.949 . S
H2276 C2253 0.950 . S
H2277 C2255 0.950 . S
C2278 C2279 1.349 . S
C2278 C2280 1.327 . S
C2278 H2303 0.950 . S
C2279 C2278 1.349 . S
C2279 C2295 1.349 . S
C2280 C2278 1.327 . S
C2280 C2299 1.429 . S
C2280 H2304 0.950 . S
C2281 C2298 1.574 . S
C2281 C2300 1.368 . S
C2281 H2305 0.949 . S
H2282 C2286 0.949 . S
C2283 C2284 1.349 . S
C2283 C2285 1.327 . S
C2283 H2306 0.950 . S
C2284 C2283 1.349 . S
C2284 C2296 1.349 . S
C2285 C2283 1.327 . S
C2285 C2301 1.429 . S
C2285 H2307 0.950 . S
C2286 H2282 0.949 . S
C2286 C2294 1.574 . S
C2286 C2302 1.368 . S
H2287 C2295 0.950 . S
H2288 C2293 0.950 . S
H2289 C2294 0.949 . S
H2290 C2296 0.950 . S
H2291 C2297 0.950 . S
H2292 C2298 0.949 . S
C2293 H2288 0.950 . S
C2293 C2295 1.327 . S
C2293 C2299 1.429 . S
C2294 C2286 1.574 . S
C2294 H2289 0.949 . S
C2294 C2300 1.368 . S
C2295 C2279 1.349 . S
C2295 H2287 0.950 . S
C2295 C2293 1.327 . S
C2296 C2284 1.349 . S
C2296 H2290 0.950 . S
C2296 C2297 1.327 . S
C2297 H2291 0.950 . S
C2297 C2296 1.327 . S
C2297 C2301 1.429 . S
C2298 C2281 1.574 . S
C2298 H2292 0.949 . S
C2298 C2302 1.368 . S
C2299 C2280 1.429 . S
C2299 C2293 1.429 . S
C2299 C2300 1.523 . S
C2300 C2281 1.368 . S
C2300 C2294 1.368 . S
C2300 C2299 1.523 . S
C2301 C2285 1.429 . S
C2301 C2297 1.429 . S
C2301 C2302 1.523 . S
C2302 C2286 1.368 . S
C2302 C2298 1.368 . S
C2302 C2301 1.523 . S
H2303 C2278 0.950 . S
H2304 C2280 0.950 . S
H2305 C2281 0.949 . S
H2306 C2283 0.950 . S
H2307 C2285 0.950 . S
C2308 C2309 1.349 . S
C2308 C2310 1.327 . S
C2308 H2333 0.950 . S
C2309 C2308 1.349 . S
C2309 C2325 1.349 . S
C2310 C2308 1.327 . S
C2310 C2329 1.429 . S
C2310 H2334 0.950 . S
C2311 C2328 1.574 . S
C2311 C2330 1.368 . S
C2311 H2335 0.949 . S
H2312 C2316 0.949 . S
C2313 C2314 1.349 . S
C2313 C2315 1.327 . S
C2313 H2336 0.950 . S
C2314 C2313 1.349 . S
C2314 C2326 1.349 . S
C2315 C2313 1.327 . S
C2315 C2331 1.429 . S
C2315 H2337 0.950 . S
C2316 H2312 0.949 . S
C2316 C2324 1.574 . S
C2316 C2332 1.368 . S
H2317 C2325 0.950 . S
H2318 C2323 0.950 . S
H2319 C2324 0.949 . S
H2320 C2326 0.950 . S
H2321 C2327 0.950 . S
H2322 C2328 0.949 . S
C2323 H2318 0.950 . S
C2323 C2325 1.327 . S
C2323 C2329 1.429 . S
C2324 C2316 1.574 . S
C2324 H2319 0.949 . S
C2324 C2330 1.368 . S
C2325 C2309 1.349 . S
C2325 H2317 0.950 . S
C2325 C2323 1.327 . S
C2326 C2314 1.349 . S
C2326 H2320 0.950 . S
C2326 C2327 1.327 . S
C2327 H2321 0.950 . S
C2327 C2326 1.327 . S
C2327 C2331 1.429 . S
C2328 C2311 1.574 . S
C2328 H2322 0.949 . S
C2328 C2332 1.368 . S
C2329 C2310 1.429 . S
C2329 C2323 1.429 . S
C2329 C2330 1.523 . S
C2330 C2311 1.368 . S
C2330 C2324 1.368 . S
C2330 C2329 1.523 . S
C2331 C2315 1.429 . S
C2331 C2327 1.429 . S
C2331 C2332 1.523 . S
C2332 C2316 1.368 . S
C2332 C2328 1.368 . S
C2332 C2331 1.523 . S
H2333 C2308 0.950 . S
H2334 C2310 0.950 . S
H2335 C2311 0.949 . S
H2336 C2313 0.950 . S
H2337 C2315 0.950 . S
C2338 C2339 1.349 . S
C2338 C2340 1.327 . S
C2338 H2363 0.950 . S
C2339 C2338 1.349 . S
C2339 C2355 1.349 . S
C2340 C2338 1.327 . S
C2340 C2359 1.429 . S
C2340 H2364 0.950 . S
C2341 C2358 1.574 1_655 S
C2341 C2360 1.368 . S
C2341 H2365 0.949 . S
H2342 C2346 0.949 . S
C2343 C2344 1.349 . S
C2343 C2345 1.327 . S
C2343 H2366 0.950 . S
C2344 C2343 1.349 . S
C2344 C2356 1.349 . S
C2345 C2343 1.327 . S
C2345 C2361 1.429 . S
C2345 H2367 0.950 . S
C2346 H2342 0.949 . S
C2346 C2354 1.574 1_455 S
C2346 C2362 1.368 . S
H2347 C2355 0.950 . S
H2348 C2353 0.950 . S
H2349 C2354 0.949 . S
H2350 C2356 0.950 . S
H2351 C2357 0.950 . S
H2352 C2358 0.949 . S
C2353 H2348 0.950 . S
C2353 C2355 1.327 . S
C2353 C2359 1.429 . S
C2354 C2346 1.574 1_655 S
C2354 H2349 0.949 . S
C2354 C2360 1.368 . S
C2355 C2339 1.349 . S
C2355 H2347 0.950 . S
C2355 C2353 1.327 . S
C2356 C2344 1.349 . S
C2356 H2350 0.950 . S
C2356 C2357 1.327 . S
C2357 H2351 0.950 . S
C2357 C2356 1.327 . S
C2357 C2361 1.429 . S
C2358 C2341 1.574 1_455 S
C2358 H2352 0.949 . S
C2358 C2362 1.368 . S
C2359 C2340 1.429 . S
C2359 C2353 1.429 . S
C2359 C2360 1.523 . S
C2360 C2341 1.368 . S
C2360 C2354 1.368 . S
C2360 C2359 1.523 . S
C2361 C2345 1.429 . S
C2361 C2357 1.429 . S
C2361 C2362 1.523 . S
C2362 C2346 1.368 . S
C2362 C2358 1.368 . S
C2362 C2361 1.523 . S
H2363 C2338 0.950 . S
H2364 C2340 0.950 . S
H2365 C2341 0.949 . S
H2366 C2343 0.950 . S
H2367 C2345 0.950 . S
C449 C333 1.466 . S
C454 C11 1.466 . S
C479 C291 1.466 . S
C484 C25 1.466 . S
C509 C305 1.466 . S
C514 C39 1.466 . S
C539 C319 1.466 . S
C544 C53 1.466 . S
C569 C67 1.466 . S
C574 C249 1.466 . S
C599 C263 1.466 . S
C604 C81 1.466 . S
C629 C95 1.466 . S
C634 C277 1.466 . S
C659 C109 1.466 . S
C664 C235 1.466 . S
C689 C445 1.466 . S
C694 C123 1.466 . S
C719 C137 1.466 . S
C724 C403 1.466 . S
C749 C151 1.466 . S
C754 C417 1.466 . S
C779 C165 1.466 . S
C784 C431 1.466 . S
C809 C179 1.466 . S
C814 C361 1.466 . S
C839 C193 1.466 . S
C844 C375 1.466 . S
C869 C207 1.466 . S
C874 C389 1.466 . S
C899 C221 1.466 . S
C904 C347 1.466 . S
C929 C8 1.538 . S
C934 C176 1.538 . S
C959 C414 1.538 . S
C964 C22 1.538 . S
C989 C36 1.538 . S
C994 C204 1.538 . S
C1019 C442 1.538 . S
C1024 C50 1.538 . S
C1049 C120 1.538 . S
C1054 C64 1.538 . S
C1079 C78 1.538 . S
C1084 C358 1.538 . S
C1109 C92 1.538 . S
C1114 C148 1.538 . S
C1139 C106 1.538 . S
C1144 C386 1.538 . S
C1169 C302 1.538 . S
C1174 C134 1.538 . S
C1199 C330 1.538 . S
C1204 C162 1.538 . S
C1229 C190 1.538 . S
C1234 C246 1.538 . S
C1259 C274 1.538 . S
C1264 C218 1.538 . S
C1289 C400 1.538 . S
C1294 C232 1.538 . S
C1319 C260 1.538 . S
C1324 C428 1.538 . S
C1349 C344 1.538 . S
C1354 C288 1.538 . S
C1379 C372 1.538 . S
C1384 C316 1.538 . S
C1409 C63 0.829 . S
C1414 C7 0.829 . S
C1439 C77 0.829 . S
C1444 C21 0.829 . S
C1469 C35 0.829 . S
C1474 C91 0.829 . S
C1499 C49 0.829 . S
C1504 C105 0.829 . S
C1529 C175 0.829 . S
C1534 C119 0.829 . S
C1559 C189 0.829 . S
C1564 C133 0.829 . S
C1589 C203 0.829 . S
C1594 C147 0.829 . S
C1619 C161 0.829 . S
C1624 C217 0.829 . S
C1649 C231 0.829 . S
C1654 C287 0.829 . S
C1679 C245 0.829 . S
C1684 C301 0.829 . S
C1709 C259 0.829 . S
C1714 C315 0.829 . S
C1739 C273 0.829 . S
C1744 C329 0.829 . S
C1769 C399 0.829 . S
C1774 C343 0.829 . S
C1799 C413 0.829 . S
C1804 C357 0.829 . S
C1829 C427 0.829 . S
C1834 C371 0.829 . S
C1859 C441 0.829 . S
C1864 C385 0.829 . S
C1889 C433 1.209 . S
C1894 C13 1.209 . S
C1919 C27 1.209 . S
C1924 C223 1.209 . S
C1949 C405 1.209 . S
C1954 C41 1.209 . S
C1979 C55 1.209 . S
C1984 C195 1.209 . S
C2009 C377 1.209 . S
C2014 C69 1.209 . S
C2039 C83 1.209 . S
C2044 C167 1.209 . S
C2069 C97 1.209 . S
C2074 C349 1.209 . S
C2099 C139 1.209 . S
C2104 C111 1.209 . S
C2129 C125 1.209 . S
C2134 C321 1.209 . S
C2159 C293 1.209 . S
C2164 C153 1.209 . S
C2189 C181 1.209 . S
C2194 C265 1.209 . S
C2219 C209 1.209 . S
C2224 C237 1.209 . S
C2249 C447 1.209 . S
C2254 C251 1.209 . S
C2279 C279 1.209 . S
C2284 C419 1.209 . S
C2309 C307 1.209 . S
C2314 C391 1.209 . S
C2339 C363 1.209 . S
C2344 C335 1.209 . S
