# Generated by pormake.
# Topology lon, (4)-cn, num edge types: 1
# Building blocks:
#     Node 0, Type 0, BuildingBlock: KUFVIS_clean_sbu_0, # of connection points: 4
#     Node 1, Type 0, BuildingBlock: KUFVIS_clean_sbu_0, # of connection points: 4
#     Node 2, Type 0, BuildingBlock: KUFVIS_clean_sbu_0, # of connection points: 4
#     Node 3, Type 0, BuildingBlock: KUFVIS_clean_sbu_0, # of connection points: 4
#     Edge 4, Type (0, 0), BuildingBlock: MIFKUJ_clean_linker_0, # of connection points: 2
#     Edge 5, Type (0, 0), BuildingBlock: MIFKUJ_clean_linker_0, # of connection points: 2
#     Edge 6, Type (0, 0), BuildingBlock: MIFKUJ_clean_linker_0, # of connection points: 2
#     Edge 7, Type (0, 0), BuildingBlock: MIFKUJ_clean_linker_0, # of connection points: 2
#     Edge 8, Type (0, 0), BuildingBlock: MIFKUJ_clean_linker_0, # of connection points: 2
#     Edge 9, Type (0, 0), BuildingBlock: MIFKUJ_clean_linker_0, # of connection points: 2
#     Edge 10, Type (0, 0), BuildingBlock: MIFKUJ_clean_linker_0, # of connection points: 2
#     Edge 11, Type (0, 0), BuildingBlock: MIFKUJ_clean_linker_0, # of connection points: 2
# Relax obj value: 0.049
# Max RMSD: 0.108
# Mean RMSD: 0.090
data_MOF--net-lon--node1-KUFVIS_clean_sbu_0--edge1-MIFKUJ_clean_linker_0
_symmetry_space_group_name_H-M    P1
_symmetry_Int_Tables_number       1
_symmetry_cell_setting            triclinic
loop_
_symmetry_equiv_pos_as_xyz
'x, y, z'
_cell_length_a     32.000967
_cell_length_b     30.879197
_cell_length_c     52.115809
_cell_angle_alpha  100.35568
_cell_angle_beta   89.843561
_cell_angle_gamma 121.21114
loop_
_atom_site_label
_atom_site_type_symbol
_atom_site_fract_x
_atom_site_fract_y
_atom_site_fract_z
_atom_type_partial_charge
Mn0 Mn 0.32484 0.69187 0.08532 0.0
Mn1 Mn 0.28203 0.6449 0.02091 0.0
C2 C 0.24349 0.6598 0.07149 0.0
C3 C 0.34013 0.68196 0.12706 0.0
C4 C 0.346 0.7594 0.04465 0.0
O5 O 0.37676 0.67808 0.06994 0.0
O6 O 0.34252 0.64474 0.02786 0.0
C7 C 0.25493 0.53651 0.01759 0.0
N8 N 0.24224 0.57104 1.01407 0.0
C9 C 0.16031 0.50242 0.99596 0.0
C10 C 0.17255 0.46609 0.99929 0.0
C11 C 0.22002 0.48323 1.01023 0.0
C12 C 0.19661 0.55499 1.0037 0.0
H13 H 0.2914 0.54953 0.02594 0.0
C14 C 0.37612 0.65792 0.04611 0.0
O15 O 0.36371 0.72661 0.12039 0.0
O16 O 0.30923 0.64251 0.10909 0.0
N17 N 0.22296 0.64243 1.01152 0.0
C18 C 0.2163 0.68245 1.01107 0.0
C19 C 0.17052 0.67194 1.00112 0.0
C20 C 0.13226 0.62052 0.99155 0.0
C21 C 0.13999 0.57998 0.99223 0.0
C22 C 0.18651 0.59283 1.00217 0.0
H23 H 0.24573 0.72207 0.01817 0.0
O24 O 0.26392 0.69266 0.09363 0.0
O25 O 0.27127 0.64747 0.05803 0.0
O26 O 0.35004 0.75468 0.06818 0.0
O27 O 0.32159 0.72084 0.02562 0.0
C28 C 0.1032 0.52732 0.98375 0.0
C29 C 0.11329 0.48856 0.98572 0.0
H30 H 0.1457 0.42497 0.9937 0.0
H31 H 0.22968 0.45544 1.01295 0.0
H32 H 0.16478 0.70342 1.00072 0.0
H33 H 0.09708 0.61263 0.98381 0.0
H34 H 0.0668 0.51616 0.97606 0.0
H35 H 0.08446 0.44821 0.97957 0.0
Mn36 Mn 0.72234 0.36566 0.57798 0.0
Mn37 Mn 0.59933 0.28851 0.57766 0.0
C38 C 0.68501 0.27611 0.57005 0.0
C39 C 0.79456 0.41009 0.55812 0.0
C40 C 0.66834 0.34642 0.62767 0.0
O41 O 0.69844 0.41394 0.57277 0.0
O42 O 0.61751 0.35915 0.57451 0.0
C43 C 0.57034 0.28526 0.52311 0.0
N44 N 0.57023 0.26008 0.54209 0.0
C45 C 0.515 0.17712 0.51419 0.0
C46 C 0.51435 0.20215 0.49438 0.0
C47 C 0.54257 0.25644 0.49877 0.0
C48 C 0.54457 0.20782 0.53774 0.0
H49 H 0.59108 0.32701 0.52658 0.0
C50 C 0.65407 0.40322 0.57237 0.0
O51 O 0.79271 0.42271 0.58302 0.0
O52 O 0.75361 0.37346 0.54437 0.0
N53 N 0.57527 0.21855 0.58036 0.0
C54 C 0.57636 0.2004 0.60218 0.0
C55 C 0.55027 0.14679 0.60101 0.0
C56 C 0.52187 0.11243 0.5777 0.0
C57 C 0.51944 0.13205 0.55587 0.0
C58 C 0.54706 0.18582 0.55803 0.0
H59 H 0.59744 0.22655 0.62029 0.0
O60 O 0.73102 0.30634 0.57906 0.0
O61 O 0.66187 0.29901 0.56605 0.0
O62 O 0.70726 0.36968 0.61646 0.0
O63 O 0.62602 0.3147 0.61498 0.0
C64 C 0.48913 0.10045 0.53244 0.0
C65 C 0.4866 0.12301 0.51171 0.0
H66 H 0.49214 0.18011 0.47578 0.0
H67 H 0.54225 0.27604 0.48359 0.0
H68 H 0.55168 0.13204 0.6181 0.0
H69 H 0.50128 0.07113 0.57696 0.0
H70 H 0.46706 0.05877 0.53028 0.0
H71 H 0.46253 0.09829 0.49396 0.0
Mn72 Mn 0.36951 0.65485 0.4511 0.0
Mn73 Mn 0.33556 0.74235 0.45252 0.0
C74 C 0.42821 0.74255 0.45766 0.0
C75 C 0.39216 0.60692 0.47118 0.0
C76 C 0.33699 0.67712 0.40204 0.0
O77 O 0.29686 0.61315 0.45751 0.0
O78 O 0.27932 0.67515 0.45765 0.0
C79 C 0.31727 0.75367 0.50841 0.0
N80 N 0.34075 0.77532 0.48815 0.0
C81 C 0.38137 0.8609 0.51547 0.0
C82 C 0.35753 0.83951 0.5366 0.0
C83 C 0.3255 0.78566 0.53307 0.0
C84 C 0.37195 0.82707 0.49139 0.0
H85 H 0.29249 0.71232 0.50578 0.0
C86 C 0.267 0.6292 0.45937 0.0
O87 O 0.37662 0.59348 0.4464 0.0
O88 O 0.3912 0.64598 0.48468 0.0
N89 N 0.3861 0.80951 0.44804 0.0
C90 C 0.40736 0.82388 0.4259 0.0
C91 C 0.43999 0.87656 0.42605 0.0
C92 C 0.45015 0.91393 0.44887 0.0
C93 C 0.42816 0.89824 0.47147 0.0
C94 C 0.39541 0.84523 0.47004 0.0
H95 H 0.39942 0.7954 0.40823 0.0
O96 O 0.43941 0.7084 0.44843 0.0
O97 O 0.383 0.72465 0.46268 0.0
O98 O 0.35034 0.65154 0.4128 0.0
O99 O 0.33042 0.71186 0.41513 0.0
C100 C 0.43762 0.9331 0.49538 0.0
C101 C 0.41446 0.91441 0.51741 0.0
H102 H 0.36372 0.86403 0.55565 0.0
H103 H 0.30721 0.76892 0.54934 0.0
H104 H 0.45703 0.88836 0.40857 0.0
H105 H 0.47486 0.95456 0.44882 0.0
H106 H 0.46305 0.97427 0.49712 0.0
H107 H 0.42246 0.94152 0.53578 0.0
Mn108 Mn 0.64785 0.33661 0.94486 0.0
Mn109 Mn 0.65069 0.38237 1.00936 0.0
C110 C 0.59805 0.36814 0.95877 0.0
C111 C 0.67392 0.3476 0.90327 0.0
C112 C 0.60151 0.26816 0.98513 0.0
O113 O 0.71339 0.35044 0.96041 0.0
O114 O 0.71198 0.38379 1.00248 0.0
C115 C 0.73092 0.49143 1.01336 0.0
N116 N 0.68372 0.45617 0.01658 0.0
C117 C 0.66883 0.52361 0.03498 0.0
C118 C 0.71734 0.56067 0.03195 0.0
C119 C 0.74845 0.5445 0.02101 0.0
C120 C 0.65341 0.47129 0.02698 0.0
H121 H 0.75496 0.47914 1.00501 0.0
C122 C 0.73269 0.37075 0.98425 0.0
O123 O 0.65291 0.30272 0.90969 0.0
O124 O 0.68197 0.38665 0.92143 0.0
N125 N 0.59331 0.38349 0.0186 0.0
C126 C 0.54676 0.34287 0.0186 0.0
C127 C 0.51067 0.3524 0.02834 0.0
C128 C 0.52292 0.40348 0.03815 0.0
C129 C 0.5711 0.44465 0.03796 0.0
C130 C 0.60557 0.43276 0.02818 0.0
H131 H 0.53726 0.30352 1.01127 0.0
O132 O 0.58616 0.33573 0.9365 0.0
O133 O 0.63791 0.38031 0.97229 0.0
O134 O 0.60991 0.27324 0.96159 0.0
O135 O 0.61547 0.30643 1.00432 0.0
C136 C 0.58612 0.49703 0.04673 0.0
C137 C 0.63488 0.53648 0.04514 0.0
H138 H 0.73096 0.60164 0.03774 0.0
H139 H 0.78587 0.57287 0.01851 0.0
H140 H 0.47354 0.32043 0.02836 0.0
H141 H 0.49499 0.41062 0.04568 0.0
H142 H 0.56026 0.50744 0.05433 0.0
H143 H 0.64573 0.57662 0.05149 0.0
H144 H 0.31423 0.59449 0.1455 0.0
H145 H 0.3153 0.58649 0.19137 0.0
H146 H 0.37337 0.75031 0.21647 0.0
H147 H 0.37507 0.75879 0.17082 0.0
H148 H 0.41429 0.72739 0.24754 0.0
H149 H 0.24544 0.64936 0.21457 0.0
H150 H 0.16952 0.58908 0.18467 0.0
H151 H 0.16784 0.45963 0.20519 0.0
H152 H 0.24414 0.51918 0.23496 0.0
H153 H 0.32808 0.73698 0.37229 0.0
H154 H 0.3285 0.72939 0.32493 0.0
H155 H 0.33455 0.59162 0.31787 0.0
H156 H 0.3353 0.59936 0.36562 0.0
H157 H 0.26269 0.59426 0.27817 0.0
H158 H 0.43346 0.68232 0.31497 0.0
H159 H 0.50381 0.74923 0.347 0.0
H160 H 0.49457 0.8682 0.32052 0.0
H161 H 0.42362 0.8019 0.28861 0.0
C162 C 0.3278 0.62884 0.16085 0.0
C163 C 0.34451 0.67725 0.15456 0.0
C164 C 0.32798 0.62418 0.18711 0.0
C165 C 0.34334 0.66756 0.20759 0.0
C166 C 0.36129 0.71614 0.20119 0.0
C167 C 0.36223 0.72099 0.17501 0.0
C168 C 0.34008 0.66274 0.23565 0.0
C169 C 0.38093 0.69832 0.25409 0.0
C170 C 0.29683 0.6246 0.24451 0.0
C171 C 0.25081 0.58871 0.22675 0.0
C172 C 0.22905 0.60803 0.21256 0.0
C173 C 0.18594 0.57401 0.19566 0.0
C174 C 0.16396 0.52056 0.19296 0.0
C175 C 0.18496 0.50104 0.20725 0.0
C176 C 0.22813 0.53491 0.22415 0.0
C177 C 0.32907 0.70468 0.36079 0.0
C178 C 0.33207 0.66899 0.37292 0.0
C179 C 0.32926 0.70046 0.33366 0.0
C180 C 0.33175 0.66011 0.31798 0.0
C181 C 0.33256 0.62301 0.32971 0.0
C182 C 0.33315 0.62764 0.35699 0.0
C183 C 0.33655 0.65904 0.2896 0.0
C184 C 0.29606 0.62262 0.27129 0.0
C185 C 0.37953 0.69722 0.28089 0.0
C186 C 0.42303 0.73713 0.29955 0.0
C187 C 0.44624 0.72273 0.3161 0.0
C188 C 0.48624 0.76055 0.33421 0.0
C189 C 0.50358 0.81293 0.33583 0.0
C190 C 0.48108 0.82761 0.31926 0.0
C191 C 0.44102 0.78993 0.30113 0.0
H192 H 0.5345 0.84215 0.3499 0.0
H193 H 0.13059 0.49428 0.17985 0.0
H194 H 0.7461 0.42251 0.66345 0.0
H195 H 0.75346 0.43192 0.71114 0.0
H196 H 0.60854 0.29562 0.70524 0.0
H197 H 0.59987 0.28788 0.65806 0.0
H198 H 0.61628 0.35913 0.74515 0.0
H199 H 0.72277 0.29906 0.71379 0.0
H200 H 0.79098 0.30129 0.69064 0.0
H201 H 0.89351 0.4479 0.74053 0.0
H202 H 0.82577 0.44683 0.76376 0.0
H203 H 0.63624 0.27074 0.85935 0.0
H204 H 0.64267 0.28002 0.81362 0.0
H205 H 0.73877 0.44521 0.83899 0.0
H206 H 0.73143 0.43651 0.88501 0.0
H207 H 0.76127 0.37685 0.79153 0.0
H208 H 0.64774 0.43022 0.82359 0.0
H209 H 0.57637 0.41815 0.84681 0.0
H210 H 0.48349 0.2715 0.79444 0.0
H211 H 0.55456 0.28237 0.77119 0.0
C212 C 0.71568 0.39475 0.67235 0.0
C213 C 0.67254 0.35417 0.65678 0.0
C214 C 0.72008 0.39993 0.69965 0.0
C215 C 0.68199 0.36386 0.71193 0.0
C216 C 0.63859 0.32403 0.69641 0.0
C217 C 0.63376 0.31948 0.66928 0.0
C218 C 0.68685 0.36696 0.74081 0.0
C219 C 0.64803 0.3628 0.7551 0.0
C220 C 0.72842 0.37243 0.75423 0.0
C221 C 0.76915 0.37315 0.74029 0.0
C222 C 0.75982 0.33195 0.71968 0.0
C223 C 0.7984 0.33298 0.70657 0.0
C224 C 0.84653 0.37479 0.71405 0.0
C225 C 0.8562 0.4156 0.73472 0.0
C226 C 0.81774 0.41479 0.74787 0.0
C227 C 0.65936 0.30901 0.85526 0.0
C228 C 0.68328 0.35293 0.87581 0.0
C229 C 0.66288 0.31421 0.82912 0.0
C230 C 0.69106 0.36326 0.823 0.0
C231 C 0.7169 0.40703 0.84338 0.0
C232 C 0.71261 0.40198 0.86961 0.0
C233 C 0.6907 0.36854 0.79532 0.0
C234 C 0.73009 0.37399 0.78139 0.0
C235 C 0.64933 0.3632 0.78206 0.0
C236 C 0.60654 0.35686 0.79586 0.0
C237 C 0.6122 0.39517 0.81721 0.0
C238 C 0.57179 0.3886 0.83033 0.0
C239 C 0.52545 0.34401 0.82215 0.0
C240 C 0.51942 0.30598 0.80078 0.0
C241 C 0.55974 0.31234 0.78761 0.0
H242 H 0.4942 0.33899 0.83233 0.0
H243 H 0.87635 0.37551 0.70389 0.0
H244 H 0.40206 0.64269 0.99737 0.0
H245 H 0.44605 0.59998 0.98266 0.0
H246 H 0.4792 0.59968 0.06285 0.0
H247 H 0.4327 0.64085 0.07779 0.0
H248 H 0.53044 0.61301 0.98673 0.0
H249 H 0.47165 0.48473 0.06423 0.0
H250 H 0.4069 0.45112 0.09389 0.0
H251 H 0.30981 0.46262 0.04263 0.0
H252 H 0.37366 0.49545 1.01248 0.0
H253 H 0.64675 0.4719 0.97052 0.0
H254 H 0.61366 0.52654 0.98453 0.0
H255 H 0.46651 0.39134 0.97042 0.0
H256 H 0.50066 0.33608 0.95819 0.0
H257 H 0.4712 0.44557 1.01302 0.0
H258 H 0.51721 0.48888 0.93048 0.0
H259 H 0.57044 0.51466 0.89491 0.0
H260 H 0.67319 0.65991 0.94575 0.0
H261 H 0.62089 0.63471 0.98175 0.0
C262 C 0.41925 0.63429 1.01202 0.0
C263 C 0.41304 0.64419 0.03872 0.0
C264 C 0.44473 0.61006 1.00354 0.0
C265 C 0.46501 0.59552 0.02156 0.0
C266 C 0.46285 0.60957 0.04854 0.0
C267 C 0.43676 0.63357 0.05709 0.0
C268 C 0.48437 0.56195 1.01151 0.0
C269 C 0.51789 0.57661 0.99267 0.0
C270 C 0.46656 0.5135 0.01847 0.0
C271 C 0.42771 0.49325 0.03632 0.0
C272 C 0.43645 0.47997 0.05928 0.0
C273 C 0.39989 0.46102 0.07616 0.0
C274 C 0.35435 0.45494 0.07021 0.0
C275 C 0.34516 0.46753 0.04728 0.0
C276 C 0.38153 0.48632 0.03029 0.0
C277 C 0.60733 0.45394 0.97055 0.0
C278 C 0.57621 0.39998 0.96436 0.0
C279 C 0.58829 0.48526 0.97808 0.0
C280 C 0.53742 0.46333 0.97842 0.0
C281 C 0.50593 0.40924 0.9706 0.0
C282 C 0.52525 0.37771 0.96348 0.0
C283 C 0.51778 0.49678 0.98837 0.0
C284 C 0.48424 0.48213 1.00722 0.0
C285 C 0.53387 0.54419 0.98054 0.0
C286 C 0.56527 0.55974 0.95887 0.0
C287 C 0.55129 0.52621 0.93412 0.0
C288 C 0.58129 0.54073 0.91387 0.0
C289 C 0.62521 0.58886 0.91808 0.0
C290 C 0.63916 0.62263 0.94252 0.0
C291 C 0.60933 0.60828 0.96285 0.0
H292 H 0.64839 0.60002 0.90238 0.0
H293 H 0.32613 0.44036 0.08333 0.0
H294 H 0.18763 0.63412 0.44669 0.0
H295 H 0.10672 0.5899 0.46199 0.0
H296 H 0.14835 0.50379 0.50092 0.0
H297 H 0.23018 0.54797 0.48526 0.0
H298 H 0.04916 0.44465 0.47922 0.0
H299 H 0.15685 0.60662 0.53666 0.0
H300 H 0.21852 0.70013 0.5477 0.0
H301 H 0.11659 0.73182 0.515 0.0
H302 H 0.05438 0.63824 0.50348 0.0
H303 H 0.88619 0.47958 0.58371 0.0
H304 H 0.96517 0.51021 0.56605 0.0
H305 H 0.89039 0.42326 0.4889 0.0
H306 H 0.811 0.39121 0.50669 0.0
H307 H 1.00982 0.56648 0.5328 0.0
H308 H 0.95867 0.38272 0.45416 0.0
H309 H 0.90162 0.2881 0.44675 0.0
H310 H 0.89706 0.29778 0.52984 0.0
H311 H 0.95458 0.3923 0.53776 0.0
C312 C 0.17953 0.60521 0.45817 0.0
C313 C 0.21569 0.5951 0.46505 0.0
C314 C 0.13313 0.57993 0.46691 0.0
C315 C 0.12172 0.54428 0.48304 0.0
C316 C 0.15644 0.53134 0.48856 0.0
C317 C 0.20315 0.55656 0.4796 0.0
C318 C 0.07522 0.52452 0.49572 0.0
C319 C 0.04047 0.47116 0.49094 0.0
C320 C 0.06434 0.55901 0.5116 0.0
C321 C 0.1011 0.61541 0.51903 0.0
C322 C 0.14767 0.63351 0.5317 0.0
C323 C 0.18273 0.68653 0.53804 0.0
C324 C 0.17159 0.72193 0.53196 0.0
C325 C 0.1252 0.70435 0.51966 0.0
C326 C 0.08998 0.65131 0.51326 0.0
C327 C 0.88643 0.46718 0.56293 0.0
C328 C 0.84217 0.43281 0.54663 0.0
C329 C 0.93176 0.48475 0.55284 0.0
C330 C 0.93405 0.46851 0.52618 0.0
C331 C 0.88981 0.43554 0.50965 0.0
C332 C 0.84436 0.4176 0.51979 0.0
C333 C 0.98275 0.48639 0.51584 0.0
C334 C 0.01817 0.53966 0.52109 0.0
C335 C 0.99461 0.45159 0.50105 0.0
C336 C 0.96055 0.39466 0.49651 0.0
C337 C 0.94564 0.36461 0.47085 0.0
C338 C 0.9132 0.311 0.46656 0.0
C339 C 0.8956 0.28697 0.4878 0.0
C340 C 0.91057 0.31646 0.51339 0.0
C341 C 0.94305 0.37006 0.51779 0.0
H342 H 0.87044 0.24547 0.48444 0.0
H343 H 0.19885 0.76298 0.53684 0.0
H344 H 0.54944 0.17479 0.95023 0.0
H345 H 0.50571 0.08818 0.96024 0.0
H346 H 0.54987 0.15555 0.04276 0.0
H347 H 0.59339 0.24203 0.03307 0.0
H348 H 0.56328 0.07283 0.02603 0.0
H349 H 0.43733 0.11276 0.01983 0.0
H350 H 0.38794 0.13913 0.99841 0.0
H351 H 0.33689 1.00795 0.93469 0.0
H352 H 0.38663 0.98123 0.95556 0.0
H353 H 0.40405 0.85295 0.0787 0.0
H354 H 0.44711 0.93907 0.06834 0.0
H355 H 0.38926 0.87133 0.98702 0.0
H356 H 0.34542 0.78536 0.99717 0.0
H357 H 0.38338 0.95436 1.00264 0.0
H358 H 0.50792 0.91345 1.00791 0.0
H359 H 0.55836 0.88679 0.02803 0.0
H360 H 0.61328 0.0186 0.09173 0.0
H361 H 0.56259 0.04567 0.07217 0.0
C362 C 0.54988 0.17121 0.9705 0.0
C363 C 0.57481 0.21544 0.99084 0.0
C364 C 0.52478 0.12171 0.97618 0.0
C365 C 0.52443 0.11557 1.00225 0.0
C366 C 0.54974 0.1595 0.02252 0.0
C367 C 0.57439 0.20893 0.01691 0.0
C368 C 0.49744 0.06336 1.00851 0.0
C369 C 0.52385 0.04709 0.02121 0.0
C370 C 0.44624 0.02947 1.00163 0.0
C371 C 0.41611 0.04531 0.98912 0.0
C372 C 0.41591 0.08979 1.00114 0.0
C373 C 0.38779 0.10475 0.98912 0.0
C374 C 0.3594 0.07531 0.96517 0.0
C375 C 0.35897 0.03076 0.95322 0.0
C376 C 0.38709 0.01567 0.96515 0.0
C377 C 0.40033 0.8563 0.05861 0.0
C378 C 0.37137 0.81204 0.03877 0.0
C379 C 0.4252 0.9056 0.0527 0.0
C380 C 0.42192 0.9116 0.02683 0.0
C381 C 0.39241 0.86765 1.00711 0.0
C382 C 0.36747 0.81843 1.01298 0.0
C383 C 0.44916 0.96365 0.02025 0.0
C384 C 0.42281 0.97996 1.00746 0.0
C385 C 0.50052 0.99744 0.02688 0.0
C386 C 0.53104 0.98127 0.03871 0.0
C387 C 0.53042 0.93651 0.02632 0.0
C388 C 0.55912 0.92137 0.0376 0.0
C389 C 0.5889 0.9509 0.06118 0.0
C390 C 0.59013 0.99571 0.07349 0.0
C391 C 0.56144 1.01099 0.06231 0.0
H392 H 0.61111 0.93913 0.06988 0.0
H393 H 0.33764 0.08695 0.95589 0.0
H394 H 0.6772 0.45246 0.53131 0.0
H395 H 0.6369 0.49375 0.51595 0.0
H396 H 0.56093 0.47803 0.58551 0.0
H397 H 0.59917 0.4343 0.59997 0.0
H398 H 0.49768 0.44355 0.54713 0.0
H399 H 0.65404 0.60003 0.57063 0.0
H400 H 0.74367 0.65846 0.57197 0.0
H401 H 0.72954 0.64333 0.48843 0.0
H402 H 0.63985 0.58423 0.48654 0.0
H403 H 0.40984 0.61009 0.5231 0.0
H404 H 0.45804 0.57992 0.54196 0.0
H405 H 0.48045 0.52492 0.46427 0.0
H406 H 0.43103 0.55329 0.44525 0.0
H407 H 0.57102 0.59834 0.50727 0.0
H408 H 0.41231 0.43674 0.48597 0.0
H409 H 0.32279 0.38283 0.48733 0.0
H410 H 0.3438 0.41523 0.57151 0.0
H411 H 0.43347 0.47001 0.57063 0.0
C412 C 0.65323 0.45958 0.54369 0.0
C413 C 0.6417 0.44083 0.56696 0.0
C414 C 0.62999 0.48307 0.53489 0.0
C415 C 0.59567 0.48929 0.54953 0.0
C416 C 0.58682 0.47347 0.57367 0.0
C417 C 0.60913 0.44902 0.58212 0.0
C418 C 0.56554 0.5075 0.53874 0.0
C419 C 0.51416 0.47798 0.53886 0.0
C420 C 0.58631 0.55185 0.52739 0.0
C421 C 0.64025 0.58728 0.52842 0.0
C422 C 0.67008 0.60881 0.55251 0.0
C423 C 0.72089 0.64212 0.55338 0.0
C424 C 0.7423 0.65449 0.53029 0.0
C425 C 0.71291 0.63366 0.5063 0.0
C426 C 0.66207 0.6003 0.50532 0.0
C427 C 0.42438 0.59082 0.51004 0.0
C428 C 0.41631 0.58372 0.48268 0.0
C429 C 0.45208 0.57388 0.52084 0.0
C430 C 0.47307 0.55059 0.50449 0.0
C431 C 0.46471 0.54301 0.4772 0.0
C432 C 0.43609 0.55882 0.46638 0.0
C433 C 0.50399 0.53441 0.51589 0.0
C434 C 0.55518 0.56421 0.51578 0.0
C435 C 0.4833 0.49096 0.52769 0.0
C436 C 0.42948 0.45798 0.52824 0.0
C437 C 0.39779 0.43283 0.50477 0.0
C438 C 0.34704 0.402 0.50545 0.0
C439 C 0.3276 0.39575 0.5295 0.0
C440 C 0.3589 0.42019 0.5529 0.0
C441 C 0.40968 0.45111 0.55232 0.0
H442 H 0.28831 0.37185 0.52999 0.0
H443 H 0.78164 0.68029 0.53101 0.0
H444 H 0.17825 0.69189 0.07183 0.0
H445 H 0.08893 0.63662 0.05972 0.0
H446 H 0.10076 0.50129 0.04635 0.0
H447 H 0.18846 0.556 0.06018 0.0
H448 H 0.03995 0.58172 0.01706 0.0
H449 H 0.99938 0.39357 0.04993 0.0
H450 H 0.0264 0.36944 0.08633 0.0
H451 H 0.06934 0.51594 0.13609 0.0
H452 H 0.04191 0.54064 0.10012 0.0
H453 H 0.80657 0.38663 0.95265 0.0
H454 H 0.89399 0.42719 0.96764 0.0
H455 H 0.85987 0.42907 0.04789 0.0
H456 H 0.77342 0.38691 0.03315 0.0
H457 H 0.93096 0.41547 0.04432 0.0
H458 H 0.89312 0.53308 0.01719 0.0
H459 H 0.86283 0.56526 0.9864 0.0
H460 H 0.9712 0.57362 0.93533 0.0
H461 H 1.0016 0.54065 0.96564 0.0
C462 C 0.16121 0.65024 0.06672 0.0
C463 C 0.18987 0.62794 0.06599 0.0
C464 C 0.11042 0.6187 0.05968 0.0
C465 C 0.08783 0.56458 0.05209 0.0
C466 C 0.1167 0.54261 0.05259 0.0
C467 C 0.16702 0.57396 0.06004 0.0
C468 C 0.03484 0.53113 0.04216 0.0
C469 C 1.01629 0.54538 0.02304 0.0
C470 C 1.00331 0.48408 0.05029 0.0
C471 C 0.01892 0.46908 0.07223 0.0
C472 C 1.01428 0.42049 0.06868 0.0
C473 C 0.02975 0.40675 0.08923 0.0
C474 C 0.04969 0.44119 0.11348 0.0
C475 C 0.05402 0.48936 0.11727 0.0
C476 C 0.03855 0.50326 0.0968 0.0
C477 C 0.8177 0.39429 0.97338 0.0
C478 C 0.78325 0.38446 0.99174 0.0
C479 C 0.86765 0.41791 0.98196 0.0
C480 C 0.88363 0.43241 1.00897 0.0
C481 C 0.84866 0.41863 0.02699 0.0
C482 C 0.79909 0.39476 0.01849 0.0
C483 C 0.9365 0.46584 0.019 0.0
C484 C 0.955 0.45158 0.03815 0.0
C485 C 0.96739 0.51394 1.01174 0.0
C486 C 0.94922 0.53379 0.99351 0.0
C487 C 0.91023 0.54141 0.99929 0.0
C488 C 0.89307 0.55982 0.98194 0.0
C489 C 0.91498 0.57133 0.95888 0.0
C490 C 0.95418 0.56456 0.95316 0.0
C491 C 0.97138 0.54599 0.97041 0.0
H492 H 0.90167 0.58562 0.94548 0.0
H493 H 0.06174 0.43053 0.12935 0.0
H494 H 0.68333 0.24285 0.51851 0.0
H495 H 0.66369 0.15778 0.49601 0.0
H496 H 0.62143 0.10264 0.56819 0.0
H497 H 0.65423 0.19131 0.59142 0.0
H498 H 0.64688 0.05046 0.54886 0.0
H499 H 0.52611 0.06712 0.48825 0.0
H500 H 0.51277 0.11143 0.45678 0.0
H501 H 0.63649 0.12462 0.41848 0.0
H502 H 0.6499 0.08013 0.44956 0.0
H503 H 0.44305 0.80043 0.50604 0.0
H504 H 0.5052 0.8918 0.5221 0.0
H505 H 0.56661 0.89686 0.448 0.0
H506 H 0.50293 0.80527 0.43167 0.0
H507 H 0.5556 0.97378 0.46023 0.0
H508 H 0.63134 0.91088 0.506 0.0
H509 H 0.63839 0.85701 0.53326 0.0
H510 H 0.59391 0.92447 0.59853 0.0
H511 H 0.58589 0.97823 0.57157 0.0
C512 C 0.66963 0.21208 0.52936 0.0
C513 C 0.66733 0.22264 0.55643 0.0
C514 C 0.65688 0.16248 0.51625 0.0
C515 C 0.63761 0.12102 0.52946 0.0
C516 C 0.6359 0.13258 0.55685 0.0
C517 C 0.65306 0.18322 0.57027 0.0
C518 C 0.62022 0.06619 0.51568 0.0
C519 C 0.62533 0.03397 0.52986 0.0
C520 C 0.59653 0.04378 0.48954 0.0
C521 C 0.59007 0.07259 0.47183 0.0
C522 C 0.55098 0.08085 0.47352 0.0
C523 C 0.54321 0.10546 0.45566 0.0
C524 C 0.57431 0.1217 0.43601 0.0
C525 C 0.61276 0.11259 0.4339 0.0
C526 C 0.62032 0.08752 0.45154 0.0
C527 C 0.46984 0.82124 0.49323 0.0
C528 C 0.46738 0.79684 0.46737 0.0
C529 C 0.50594 0.87316 0.50255 0.0
C530 C 0.54102 0.90131 0.48637 0.0
C531 C 0.53995 0.87602 0.46085 0.0
C532 C 0.50366 0.82391 0.45152 0.0
C533 C 0.5751 0.9581 0.49533 0.0
C534 C 0.57515 0.99057 0.47976 0.0
C535 C 0.60257 0.98038 0.52027 0.0
C536 C 0.60789 0.94853 0.5367 0.0
C537 C 0.62281 0.91406 0.52612 0.0
C538 C 0.62701 0.88355 0.54154 0.0
C539 C 0.61658 0.8873 0.56761 0.0
C540 C 0.60203 0.92165 0.57834 0.0
C541 C 0.59775 0.95223 0.56301 0.0
H542 H 0.61981 0.86361 0.5795 0.0
H543 H 0.56824 0.14077 0.42223 0.0
loop_
_geom_bond_atom_site_label_1
_geom_bond_atom_site_label_2
_geom_bond_distance
_geom_bond_site_symmetry_2
_ccdc_geom_bond_type
Mn0 O5 2.095 . S
Mn0 O15 2.162 . S
Mn0 O16 2.297 . S
Mn0 O24 2.385 . S
Mn0 O25 2.209 . S
Mn0 O26 2.094 . S
Mn1 O6 2.121 . S
Mn1 N8 2.257 1_554 S
Mn1 N17 2.282 1_554 S
Mn1 O25 2.215 . S
Mn1 O27 2.117 . S
C2 O24 1.234 . S
C2 O25 1.283 . S
C3 O15 1.281 . S
C3 O16 1.236 . S
C4 O26 1.240 . S
C4 O27 1.264 . S
O5 Mn0 2.095 . S
O5 C14 1.250 . S
O6 Mn1 2.121 . S
O6 C14 1.258 . S
C7 N8 1.326 . S
C7 C11 1.460 . S
C7 H13 0.929 . S
N8 Mn1 2.257 1_556 S
N8 C7 1.326 . S
N8 C12 1.362 . S
C9 C10 1.258 . S
C9 C12 1.431 . S
C9 C29 1.449 . S
C10 C9 1.258 . S
C10 C11 1.477 . S
C10 H30 0.931 . S
C11 C7 1.460 . S
C11 C10 1.477 . S
C11 H31 0.930 . S
C12 N8 1.362 . S
C12 C9 1.431 . S
C12 C22 1.476 . S
H13 C7 0.929 . S
C14 O5 1.250 . S
C14 O6 1.258 . S
O15 Mn0 2.162 . S
O15 C3 1.281 . S
O16 Mn0 2.297 . S
O16 C3 1.236 . S
N17 Mn1 2.282 1_556 S
N17 C18 1.328 . S
N17 C22 1.318 . S
C18 N17 1.328 . S
C18 C19 1.457 . S
C18 H23 0.929 1_556 S
C19 C18 1.457 . S
C19 C20 1.291 . S
C19 H32 0.931 . S
C20 C19 1.291 . S
C20 C21 1.373 . S
C20 H33 0.929 . S
C21 C20 1.373 . S
C21 C22 1.396 . S
C21 C28 1.403 . S
C22 C12 1.476 . S
C22 N17 1.318 . S
C22 C21 1.396 . S
H23 C18 0.929 1_554 S
O24 Mn0 2.385 . S
O24 C2 1.234 . S
O25 Mn0 2.209 . S
O25 Mn1 2.215 . S
O25 C2 1.283 . S
O26 Mn0 2.094 . S
O26 C4 1.240 . S
O27 Mn1 2.117 . S
O27 C4 1.264 . S
C28 C21 1.403 . S
C28 C29 1.399 . S
C28 H34 0.929 . S
C29 C9 1.449 . S
C29 C28 1.399 . S
C29 H35 0.930 . S
H30 C10 0.931 . S
H31 C11 0.930 . S
H32 C19 0.931 . S
H33 C20 0.929 . S
H34 C28 0.929 . S
H35 C29 0.930 . S
Mn36 O41 2.095 . S
Mn36 O51 2.162 . S
Mn36 O52 2.297 . S
Mn36 O60 2.385 . S
Mn36 O61 2.209 . S
Mn36 O62 2.094 . S
Mn37 O42 2.121 . S
Mn37 N44 2.257 . S
Mn37 N53 2.282 . S
Mn37 O61 2.215 . S
Mn37 O63 2.117 . S
C38 O60 1.234 . S
C38 O61 1.283 . S
C39 O51 1.281 . S
C39 O52 1.236 . S
C40 O62 1.240 . S
C40 O63 1.264 . S
O41 Mn36 2.095 . S
O41 C50 1.250 . S
O42 Mn37 2.121 . S
O42 C50 1.258 . S
C43 N44 1.326 . S
C43 C47 1.460 . S
C43 H49 0.929 . S
N44 Mn37 2.257 . S
N44 C43 1.326 . S
N44 C48 1.362 . S
C45 C46 1.258 . S
C45 C48 1.431 . S
C45 C65 1.449 . S
C46 C45 1.258 . S
C46 C47 1.477 . S
C46 H66 0.931 . S
C47 C43 1.460 . S
C47 C46 1.477 . S
C47 H67 0.930 . S
C48 N44 1.362 . S
C48 C45 1.431 . S
C48 C58 1.476 . S
H49 C43 0.929 . S
C50 O41 1.250 . S
C50 O42 1.258 . S
O51 Mn36 2.162 . S
O51 C39 1.281 . S
O52 Mn36 2.297 . S
O52 C39 1.236 . S
N53 Mn37 2.282 . S
N53 C54 1.328 . S
N53 C58 1.318 . S
C54 N53 1.328 . S
C54 C55 1.457 . S
C54 H59 0.929 . S
C55 C54 1.457 . S
C55 C56 1.291 . S
C55 H68 0.931 . S
C56 C55 1.291 . S
C56 C57 1.373 . S
C56 H69 0.929 . S
C57 C56 1.373 . S
C57 C58 1.396 . S
C57 C64 1.403 . S
C58 C48 1.476 . S
C58 N53 1.318 . S
C58 C57 1.396 . S
H59 C54 0.929 . S
O60 Mn36 2.385 . S
O60 C38 1.234 . S
O61 Mn36 2.209 . S
O61 Mn37 2.215 . S
O61 C38 1.283 . S
O62 Mn36 2.094 . S
O62 C40 1.240 . S
O63 Mn37 2.117 . S
O63 C40 1.264 . S
C64 C57 1.403 . S
C64 C65 1.399 . S
C64 H70 0.929 . S
C65 C45 1.449 . S
C65 C64 1.399 . S
C65 H71 0.930 . S
H66 C46 0.931 . S
H67 C47 0.930 . S
H68 C55 0.931 . S
H69 C56 0.929 . S
H70 C64 0.929 . S
H71 C65 0.930 . S
Mn72 O77 2.095 . S
Mn72 O87 2.162 . S
Mn72 O88 2.297 . S
Mn72 O96 2.385 . S
Mn72 O97 2.209 . S
Mn72 O98 2.094 . S
Mn73 O78 2.121 . S
Mn73 N80 2.257 . S
Mn73 N89 2.282 . S
Mn73 O97 2.215 . S
Mn73 O99 2.117 . S
C74 O96 1.234 . S
C74 O97 1.283 . S
C75 O87 1.281 . S
C75 O88 1.236 . S
C76 O98 1.240 . S
C76 O99 1.264 . S
O77 Mn72 2.095 . S
O77 C86 1.250 . S
O78 Mn73 2.121 . S
O78 C86 1.258 . S
C79 N80 1.326 . S
C79 C83 1.460 . S
C79 H85 0.929 . S
N80 Mn73 2.257 . S
N80 C79 1.326 . S
N80 C84 1.362 . S
C81 C82 1.258 . S
C81 C84 1.431 . S
C81 C101 1.449 . S
C82 C81 1.258 . S
C82 C83 1.477 . S
C82 H102 0.931 . S
C83 C79 1.460 . S
C83 C82 1.477 . S
C83 H103 0.930 . S
C84 N80 1.362 . S
C84 C81 1.431 . S
C84 C94 1.476 . S
H85 C79 0.929 . S
C86 O77 1.250 . S
C86 O78 1.258 . S
O87 Mn72 2.162 . S
O87 C75 1.281 . S
O88 Mn72 2.297 . S
O88 C75 1.236 . S
N89 Mn73 2.282 . S
N89 C90 1.328 . S
N89 C94 1.318 . S
C90 N89 1.328 . S
C90 C91 1.457 . S
C90 H95 0.929 . S
C91 C90 1.457 . S
C91 C92 1.291 . S
C91 H104 0.931 . S
C92 C91 1.291 . S
C92 C93 1.373 . S
C92 H105 0.929 . S
C93 C92 1.373 . S
C93 C94 1.396 . S
C93 C100 1.403 . S
C94 C84 1.476 . S
C94 N89 1.318 . S
C94 C93 1.396 . S
H95 C90 0.929 . S
O96 Mn72 2.385 . S
O96 C74 1.234 . S
O97 Mn72 2.209 . S
O97 Mn73 2.215 . S
O97 C74 1.283 . S
O98 Mn72 2.094 . S
O98 C76 1.240 . S
O99 Mn73 2.117 . S
O99 C76 1.264 . S
C100 C93 1.403 . S
C100 C101 1.399 . S
C100 H106 0.929 . S
C101 C81 1.449 . S
C101 C100 1.399 . S
C101 H107 0.930 . S
H102 C82 0.931 . S
H103 C83 0.930 . S
H104 C91 0.931 . S
H105 C92 0.929 . S
H106 C100 0.929 . S
H107 C101 0.930 . S
Mn108 O113 2.095 . S
Mn108 O123 2.162 . S
Mn108 O124 2.297 . S
Mn108 O132 2.385 . S
Mn108 O133 2.209 . S
Mn108 O134 2.094 . S
Mn109 O114 2.121 . S
Mn109 N116 2.257 1_556 S
Mn109 N125 2.282 1_556 S
Mn109 O133 2.215 . S
Mn109 O135 2.117 . S
C110 O132 1.234 . S
C110 O133 1.283 . S
C111 O123 1.281 . S
C111 O124 1.236 . S
C112 O134 1.240 . S
C112 O135 1.264 . S
O113 Mn108 2.095 . S
O113 C122 1.250 . S
O114 Mn109 2.121 . S
O114 C122 1.258 . S
C115 N116 1.326 . S
C115 C119 1.460 . S
C115 H121 0.929 . S
N116 Mn109 2.257 1_554 S
N116 C115 1.326 . S
N116 C120 1.362 . S
C117 C118 1.258 . S
C117 C120 1.431 . S
C117 C137 1.449 . S
C118 C117 1.258 . S
C118 C119 1.477 . S
C118 H138 0.931 . S
C119 C115 1.460 . S
C119 C118 1.477 . S
C119 H139 0.930 . S
C120 N116 1.362 . S
C120 C117 1.431 . S
C120 C130 1.476 . S
H121 C115 0.929 . S
C122 O113 1.250 . S
C122 O114 1.258 . S
O123 Mn108 2.162 . S
O123 C111 1.281 . S
O124 Mn108 2.297 . S
O124 C111 1.236 . S
N125 Mn109 2.282 1_554 S
N125 C126 1.328 . S
N125 C130 1.318 . S
C126 N125 1.328 . S
C126 C127 1.457 . S
C126 H131 0.929 1_554 S
C127 C126 1.457 . S
C127 C128 1.291 . S
C127 H140 0.931 . S
C128 C127 1.291 . S
C128 C129 1.373 . S
C128 H141 0.929 . S
C129 C128 1.373 . S
C129 C130 1.396 . S
C129 C136 1.403 . S
C130 C120 1.476 . S
C130 N125 1.318 . S
C130 C129 1.396 . S
H131 C126 0.929 1_556 S
O132 Mn108 2.385 . S
O132 C110 1.234 . S
O133 Mn108 2.209 . S
O133 Mn109 2.215 . S
O133 C110 1.283 . S
O134 Mn108 2.094 . S
O134 C112 1.240 . S
O135 Mn109 2.117 . S
O135 C112 1.264 . S
C136 C129 1.403 . S
C136 C137 1.399 . S
C136 H142 0.929 . S
C137 C117 1.449 . S
C137 C136 1.399 . S
C137 H143 0.930 . S
H138 C118 0.931 . S
H139 C119 0.930 . S
H140 C127 0.931 . S
H141 C128 0.929 . S
H142 C136 0.929 . S
H143 C137 0.930 . S
H144 C162 0.951 . S
H145 C164 0.951 . S
H146 C166 0.950 . S
H147 C167 0.950 . S
H148 C169 0.950 . S
H149 C172 0.950 . S
H150 C173 0.950 . S
H151 C175 0.950 . S
H152 C176 0.950 . S
H153 C177 0.951 . S
H154 C179 0.951 . S
H155 C181 0.950 . S
H156 C182 0.950 . S
H157 C184 0.950 . S
H158 C187 0.950 . S
H159 C188 0.950 . S
H160 C190 0.950 . S
H161 C191 0.950 . S
C162 H144 0.951 . S
C162 C163 1.366 . S
C162 C164 1.388 . S
C163 C162 1.366 . S
C163 C167 1.385 . S
C164 H145 0.951 . S
C164 C162 1.388 . S
C164 C165 1.366 . S
C165 C164 1.366 . S
C165 C166 1.414 . S
C165 C168 1.499 . S
C166 H146 0.950 . S
C166 C165 1.414 . S
C166 C167 1.374 . S
C167 H147 0.950 . S
C167 C163 1.385 . S
C167 C166 1.374 . S
C168 C165 1.499 . S
C168 C169 1.373 . S
C168 C170 1.389 . S
C169 H148 0.950 . S
C169 C168 1.373 . S
C169 C185 1.377 . S
C170 C168 1.389 . S
C170 C171 1.524 . S
C170 C184 1.377 . S
C171 C170 1.524 . S
C171 C172 1.397 . S
C171 C176 1.363 . S
C172 H149 0.950 . S
C172 C171 1.397 . S
C172 C173 1.334 . S
C173 H150 0.950 . S
C173 C172 1.334 . S
C173 C174 1.287 . S
C174 C173 1.287 . S
C174 C175 1.524 . S
C174 H193 0.913 . S
C175 H151 0.950 . S
C175 C174 1.524 . S
C175 C176 1.415 . S
C176 H152 0.950 . S
C176 C171 1.363 . S
C176 C175 1.415 . S
C177 H153 0.951 . S
C177 C178 1.366 . S
C177 C179 1.388 . S
C178 C177 1.366 . S
C178 C182 1.385 . S
C179 H154 0.951 . S
C179 C177 1.388 . S
C179 C180 1.366 . S
C180 C179 1.366 . S
C180 C181 1.414 . S
C180 C183 1.499 . S
C181 H155 0.950 . S
C181 C180 1.414 . S
C181 C182 1.374 . S
C182 H156 0.950 . S
C182 C178 1.385 . S
C182 C181 1.374 . S
C183 C180 1.499 . S
C183 C184 1.373 . S
C183 C185 1.389 . S
C184 H157 0.950 . S
C184 C170 1.377 . S
C184 C183 1.373 . S
C185 C169 1.377 . S
C185 C183 1.389 . S
C185 C186 1.524 . S
C186 C185 1.524 . S
C186 C187 1.397 . S
C186 C191 1.363 . S
C187 H158 0.950 . S
C187 C186 1.397 . S
C187 C188 1.334 . S
C188 H159 0.950 . S
C188 C187 1.334 . S
C188 C189 1.287 . S
C189 C188 1.287 . S
C189 C190 1.524 . S
C189 H192 0.999 . S
C190 H160 0.950 . S
C190 C189 1.524 . S
C190 C191 1.415 . S
C191 H161 0.950 . S
C191 C186 1.363 . S
C191 C190 1.415 . S
H192 C189 0.999 . S
H193 C174 0.913 . S
H194 C212 0.951 . S
H195 C214 0.951 . S
H196 C216 0.950 . S
H197 C217 0.950 . S
H198 C219 0.950 . S
H199 C222 0.950 . S
H200 C223 0.950 . S
H201 C225 0.950 . S
H202 C226 0.950 . S
H203 C227 0.951 . S
H204 C229 0.951 . S
H205 C231 0.950 . S
H206 C232 0.950 . S
H207 C234 0.950 . S
H208 C237 0.950 . S
H209 C238 0.950 . S
H210 C240 0.950 . S
H211 C241 0.950 . S
C212 H194 0.951 . S
C212 C213 1.366 . S
C212 C214 1.388 . S
C213 C212 1.366 . S
C213 C217 1.385 . S
C214 H195 0.951 . S
C214 C212 1.388 . S
C214 C215 1.366 . S
C215 C214 1.366 . S
C215 C216 1.414 . S
C215 C218 1.499 . S
C216 H196 0.950 . S
C216 C215 1.414 . S
C216 C217 1.374 . S
C217 H197 0.950 . S
C217 C213 1.385 . S
C217 C216 1.374 . S
C218 C215 1.499 . S
C218 C219 1.373 . S
C218 C220 1.389 . S
C219 H198 0.950 . S
C219 C218 1.373 . S
C219 C235 1.377 . S
C220 C218 1.389 . S
C220 C221 1.524 . S
C220 C234 1.377 . S
C221 C220 1.524 . S
C221 C222 1.397 . S
C221 C226 1.363 . S
C222 H199 0.950 . S
C222 C221 1.397 . S
C222 C223 1.334 . S
C223 H200 0.950 . S
C223 C222 1.334 . S
C223 C224 1.287 . S
C224 C223 1.287 . S
C224 C225 1.524 . S
C224 H243 0.913 . S
C225 H201 0.950 . S
C225 C224 1.524 . S
C225 C226 1.415 . S
C226 H202 0.950 . S
C226 C221 1.363 . S
C226 C225 1.415 . S
C227 H203 0.951 . S
C227 C228 1.366 . S
C227 C229 1.388 . S
C228 C227 1.366 . S
C228 C232 1.385 . S
C229 H204 0.951 . S
C229 C227 1.388 . S
C229 C230 1.366 . S
C230 C229 1.366 . S
C230 C231 1.414 . S
C230 C233 1.499 . S
C231 H205 0.950 . S
C231 C230 1.414 . S
C231 C232 1.374 . S
C232 H206 0.950 . S
C232 C228 1.385 . S
C232 C231 1.374 . S
C233 C230 1.499 . S
C233 C234 1.373 . S
C233 C235 1.389 . S
C234 H207 0.950 . S
C234 C220 1.377 . S
C234 C233 1.373 . S
C235 C219 1.377 . S
C235 C233 1.389 . S
C235 C236 1.524 . S
C236 C235 1.524 . S
C236 C237 1.397 . S
C236 C241 1.363 . S
C237 H208 0.950 . S
C237 C236 1.397 . S
C237 C238 1.334 . S
C238 H209 0.950 . S
C238 C237 1.334 . S
C238 C239 1.287 . S
C239 C238 1.287 . S
C239 C240 1.524 . S
C239 H242 0.999 . S
C240 H210 0.950 . S
C240 C239 1.524 . S
C240 C241 1.415 . S
C241 H211 0.950 . S
C241 C236 1.363 . S
C241 C240 1.415 . S
H242 C239 0.999 . S
H243 C224 0.913 . S
H244 C262 0.951 . S
H245 C264 0.951 1_556 S
H246 C266 0.950 . S
H247 C267 0.950 . S
H248 C269 0.949 . S
H249 C272 0.950 . S
H250 C273 0.950 . S
H251 C275 0.950 1_556 S
H252 C276 0.950 . S
H253 C277 0.951 . S
H254 C279 0.975 . S
H255 C281 0.950 . S
H256 C282 0.950 . S
H257 C284 0.950 . S
H258 C287 0.950 . S
H259 C288 0.950 . S
H260 C290 0.950 . S
H261 C291 0.950 1_554 S
C262 H244 0.951 . S
C262 C263 1.366 . S
C262 C264 1.388 . S
C263 C262 1.366 . S
C263 C267 1.385 . S
C264 H245 0.951 1_554 S
C264 C262 1.388 . S
C264 C265 1.366 . S
C265 C264 1.366 . S
C265 C266 1.414 . S
C265 C268 1.499 . S
C266 H246 0.950 . S
C266 C265 1.414 . S
C266 C267 1.374 . S
C267 H247 0.950 . S
C267 C263 1.385 . S
C267 C266 1.374 . S
C268 C265 1.499 . S
C268 C269 1.391 . S
C268 C270 1.389 . S
C269 H248 0.949 . S
C269 C268 1.391 . S
C269 C285 1.362 1_554 S
C270 C268 1.389 . S
C270 C271 1.524 . S
C270 C284 1.377 1_554 S
C271 C270 1.524 . S
C271 C272 1.397 . S
C271 C276 1.363 1_554 S
C272 H249 0.950 . S
C272 C271 1.397 . S
C272 C273 1.334 . S
C273 H250 0.950 . S
C273 C272 1.334 . S
C273 C274 1.287 . S
C274 C273 1.287 . S
C274 C275 1.524 . S
C274 H293 0.913 . S
C275 H251 0.950 1_554 S
C275 C274 1.524 . S
C275 C276 1.415 1_554 S
C276 H252 0.950 . S
C276 C271 1.363 1_556 S
C276 C275 1.415 1_556 S
C277 H253 0.951 . S
C277 C278 1.366 . S
C277 C279 1.388 . S
C278 C277 1.366 . S
C278 C282 1.385 . S
C279 H254 0.975 . S
C279 C277 1.388 . S
C279 C280 1.366 . S
C280 C279 1.366 . S
C280 C281 1.414 . S
C280 C283 1.499 . S
C281 H255 0.950 . S
C281 C280 1.414 . S
C281 C282 1.374 . S
C282 H256 0.950 . S
C282 C278 1.385 . S
C282 C281 1.374 . S
C283 C280 1.499 . S
C283 C284 1.373 . S
C283 C285 1.389 . S
C284 H257 0.950 . S
C284 C270 1.377 1_556 S
C284 C283 1.373 . S
C285 C269 1.362 1_556 S
C285 C283 1.389 . S
C285 C286 1.524 . S
C286 C285 1.524 . S
C286 C287 1.397 . S
C286 C291 1.363 . S
C287 H258 0.950 . S
C287 C286 1.397 . S
C287 C288 1.334 . S
C288 H259 0.950 . S
C288 C287 1.334 . S
C288 C289 1.287 . S
C289 C288 1.287 . S
C289 C290 1.524 . S
C289 H292 0.999 . S
C290 H260 0.950 . S
C290 C289 1.524 . S
C290 C291 1.415 . S
C291 H261 0.950 1_556 S
C291 C286 1.363 . S
C291 C290 1.415 . S
H292 C289 0.999 . S
H293 C274 0.913 . S
H294 C312 0.951 . S
H295 C314 0.951 . S
H296 C316 0.950 . S
H297 C317 0.950 . S
H298 C319 0.950 . S
H299 C322 0.950 . S
H300 C323 0.950 . S
H301 C325 0.950 . S
H302 C326 0.950 . S
H303 C327 0.951 . S
H304 C329 0.951 . S
H305 C331 0.950 . S
H306 C332 0.950 . S
H307 C334 0.950 . S
H308 C337 0.950 . S
H309 C338 0.950 . S
H310 C340 0.950 . S
H311 C341 0.950 1_455 S
C312 H294 0.951 . S
C312 C313 1.366 . S
C312 C314 1.388 . S
C313 C312 1.366 . S
C313 C317 1.385 . S
C314 H295 0.951 . S
C314 C312 1.388 . S
C314 C315 1.366 . S
C315 C314 1.366 . S
C315 C316 1.414 . S
C315 C318 1.499 . S
C316 H296 0.950 . S
C316 C315 1.414 . S
C316 C317 1.374 . S
C317 H297 0.950 . S
C317 C313 1.385 . S
C317 C316 1.374 . S
C318 C315 1.499 . S
C318 C319 1.373 . S
C318 C320 1.389 . S
C319 H298 0.950 . S
C319 C318 1.373 . S
C319 C335 1.377 . S
C320 C318 1.389 . S
C320 C321 1.524 . S
C320 C334 1.377 . S
C321 C320 1.524 . S
C321 C322 1.397 . S
C321 C326 1.363 . S
C322 H299 0.950 . S
C322 C321 1.397 . S
C322 C323 1.334 . S
C323 H300 0.950 . S
C323 C322 1.334 . S
C323 C324 1.287 . S
C324 C323 1.287 . S
C324 C325 1.524 . S
C324 H343 0.913 . S
C325 H301 0.950 . S
C325 C324 1.524 . S
C325 C326 1.415 . S
C326 H302 0.950 . S
C326 C321 1.363 . S
C326 C325 1.415 . S
C327 H303 0.951 . S
C327 C328 1.366 . S
C327 C329 1.388 . S
C328 C327 1.366 . S
C328 C332 1.385 . S
C329 H304 0.951 . S
C329 C327 1.388 . S
C329 C330 1.366 . S
C330 C329 1.366 . S
C330 C331 1.414 . S
C330 C333 1.499 . S
C331 H305 0.950 . S
C331 C330 1.414 . S
C331 C332 1.374 . S
C332 H306 0.950 . S
C332 C328 1.385 . S
C332 C331 1.374 . S
C333 C330 1.499 . S
C333 C334 1.373 1_655 S
C333 C335 1.389 1_655 S
C334 H307 0.950 . S
C334 C320 1.377 . S
C334 C333 1.373 1_455 S
C335 C319 1.377 . S
C335 C333 1.389 1_455 S
C335 C336 1.524 1_455 S
C336 C335 1.524 1_655 S
C336 C337 1.397 . S
C336 C341 1.363 . S
C337 H308 0.950 . S
C337 C336 1.397 . S
C337 C338 1.334 . S
C338 H309 0.950 . S
C338 C337 1.334 . S
C338 C339 1.287 . S
C339 C338 1.287 . S
C339 C340 1.524 . S
C339 H342 0.999 . S
C340 H310 0.950 . S
C340 C339 1.524 . S
C340 C341 1.415 . S
C341 H311 0.950 1_655 S
C341 C336 1.363 . S
C341 C340 1.415 . S
H342 C339 0.999 . S
H343 C324 0.913 . S
H344 C362 0.951 . S
H345 C364 0.951 . S
H346 C366 0.950 1_554 S
H347 C367 0.944 1_554 S
H348 C369 0.952 . S
H349 C372 0.950 . S
H350 C373 0.950 . S
H351 C375 0.950 . S
H352 C376 0.950 1_565 S
H353 C377 0.951 . S
H354 C379 0.951 . S
H355 C381 0.950 1_556 S
H356 C382 0.943 1_556 S
H357 C384 0.952 . S
H358 C387 0.950 . S
H359 C388 0.950 . S
H360 C390 0.950 . S
H361 C391 0.950 1_545 S
C362 H344 0.951 . S
C362 C363 1.366 . S
C362 C364 1.388 . S
C363 C362 1.366 . S
C363 C367 1.385 . S
C364 H345 0.951 . S
C364 C362 1.388 . S
C364 C365 1.366 . S
C365 C364 1.366 . S
C365 C366 1.414 . S
C365 C368 1.499 . S
C366 H346 0.950 1_556 S
C366 C365 1.414 . S
C366 C367 1.374 . S
C367 H347 0.944 1_556 S
C367 C363 1.385 . S
C367 C366 1.374 . S
C368 C365 1.499 . S
C368 C369 1.372 1_556 S
C368 C370 1.389 . S
C369 H348 0.952 . S
C369 C368 1.372 1_554 S
C369 C385 1.379 1_545 S
C370 C368 1.389 . S
C370 C371 1.524 . S
C370 C384 1.379 1_545 S
C371 C370 1.524 . S
C371 C372 1.397 1_556 S
C371 C376 1.363 . S
C372 H349 0.950 . S
C372 C371 1.397 1_554 S
C372 C373 1.334 . S
C373 H350 0.950 . S
C373 C372 1.334 . S
C373 C374 1.287 1_554 S
C374 C373 1.287 1_556 S
C374 C375 1.524 . S
C374 H393 0.913 . S
C375 H351 0.950 . S
C375 C374 1.524 . S
C375 C376 1.415 . S
C376 H352 0.950 1_545 S
C376 C371 1.363 . S
C376 C375 1.415 . S
C377 H353 0.951 . S
C377 C378 1.366 . S
C377 C379 1.388 . S
C378 C377 1.366 . S
C378 C382 1.385 . S
C379 H354 0.951 . S
C379 C377 1.388 . S
C379 C380 1.366 . S
C380 C379 1.366 . S
C380 C381 1.414 . S
C380 C383 1.499 . S
C381 H355 0.950 1_554 S
C381 C380 1.414 . S
C381 C382 1.374 . S
C382 H356 0.943 1_554 S
C382 C378 1.385 . S
C382 C381 1.374 . S
C383 C380 1.499 . S
C383 C384 1.372 1_554 S
C383 C385 1.389 . S
C384 H357 0.952 . S
C384 C370 1.379 1_565 S
C384 C383 1.372 1_556 S
C385 C369 1.379 1_565 S
C385 C383 1.389 . S
C385 C386 1.524 . S
C386 C385 1.524 . S
C386 C387 1.397 1_554 S
C386 C391 1.363 . S
C387 H358 0.950 . S
C387 C386 1.397 1_556 S
C387 C388 1.334 . S
C388 H359 0.950 . S
C388 C387 1.334 . S
C388 C389 1.287 1_556 S
C389 C388 1.287 1_554 S
C389 C390 1.524 . S
C389 H392 0.999 . S
C390 H360 0.950 . S
C390 C389 1.524 . S
C390 C391 1.415 . S
C391 H361 0.950 1_565 S
C391 C386 1.363 . S
C391 C390 1.415 . S
H392 C389 0.999 . S
H393 C374 0.913 . S
H394 C412 0.951 . S
H395 C414 0.951 . S
H396 C416 0.950 . S
H397 C417 0.950 . S
H398 C419 0.950 . S
H399 C422 0.950 . S
H400 C423 0.950 . S
H401 C425 0.950 . S
H402 C426 0.950 . S
H403 C427 0.951 . S
H404 C429 0.951 . S
H405 C431 0.950 . S
H406 C432 0.950 . S
H407 C434 0.950 . S
H408 C437 0.950 . S
H409 C438 0.950 . S
H410 C440 0.950 . S
H411 C441 0.950 . S
C412 H394 0.951 . S
C412 C413 1.366 . S
C412 C414 1.388 . S
C413 C412 1.366 . S
C413 C417 1.385 . S
C414 H395 0.951 . S
C414 C412 1.388 . S
C414 C415 1.366 . S
C415 C414 1.366 . S
C415 C416 1.414 . S
C415 C418 1.499 . S
C416 H396 0.950 . S
C416 C415 1.414 . S
C416 C417 1.374 . S
C417 H397 0.950 . S
C417 C413 1.385 . S
C417 C416 1.374 . S
C418 C415 1.499 . S
C418 C419 1.373 . S
C418 C420 1.389 . S
C419 H398 0.950 . S
C419 C418 1.373 . S
C419 C435 1.377 . S
C420 C418 1.389 . S
C420 C421 1.524 . S
C420 C434 1.377 . S
C421 C420 1.524 . S
C421 C422 1.397 . S
C421 C426 1.363 . S
C422 H399 0.950 . S
C422 C421 1.397 . S
C422 C423 1.334 . S
C423 H400 0.950 . S
C423 C422 1.334 . S
C423 C424 1.287 . S
C424 C423 1.287 . S
C424 C425 1.524 . S
C424 H443 0.913 . S
C425 H401 0.950 . S
C425 C424 1.524 . S
C425 C426 1.415 . S
C426 H402 0.950 . S
C426 C421 1.363 . S
C426 C425 1.415 . S
C427 H403 0.951 . S
C427 C428 1.366 . S
C427 C429 1.388 . S
C428 C427 1.366 . S
C428 C432 1.385 . S
C429 H404 0.951 . S
C429 C427 1.388 . S
C429 C430 1.366 . S
C430 C429 1.366 . S
C430 C431 1.414 . S
C430 C433 1.499 . S
C431 H405 0.950 . S
C431 C430 1.414 . S
C431 C432 1.374 . S
C432 H406 0.950 . S
C432 C428 1.385 . S
C432 C431 1.374 . S
C433 C430 1.499 . S
C433 C434 1.373 . S
C433 C435 1.389 . S
C434 H407 0.950 . S
C434 C420 1.377 . S
C434 C433 1.373 . S
C435 C419 1.377 . S
C435 C433 1.389 . S
C435 C436 1.524 . S
C436 C435 1.524 . S
C436 C437 1.397 . S
C436 C441 1.363 . S
C437 H408 0.950 . S
C437 C436 1.397 . S
C437 C438 1.334 . S
C438 H409 0.950 . S
C438 C437 1.334 . S
C438 C439 1.287 . S
C439 C438 1.287 . S
C439 C440 1.524 . S
C439 H442 0.999 . S
C440 H410 0.950 . S
C440 C439 1.524 . S
C440 C441 1.415 . S
C441 H411 0.950 . S
C441 C436 1.363 . S
C441 C440 1.415 . S
H442 C439 0.999 . S
H443 C424 0.913 . S
H444 C462 0.951 . S
H445 C464 0.951 . S
H446 C466 0.950 1_556 S
H447 C467 0.950 . S
H448 C469 0.950 . S
H449 C472 0.950 . S
H450 C473 0.950 . S
H451 C475 0.950 . S
H452 C476 0.950 . S
H453 C477 0.951 . S
H454 C479 0.951 . S
H455 C481 0.930 1_554 S
H456 C482 0.927 1_554 S
H457 C484 0.950 . S
H458 C487 0.950 . S
H459 C488 0.950 . S
H460 C490 0.950 . S
H461 C491 0.950 . S
C462 H444 0.951 . S
C462 C463 1.366 . S
C462 C464 1.388 . S
C463 C462 1.366 . S
C463 C467 1.385 . S
C464 H445 0.951 . S
C464 C462 1.388 . S
C464 C465 1.366 . S
C465 C464 1.366 . S
C465 C466 1.414 . S
C465 C468 1.499 . S
C466 H446 0.950 1_554 S
C466 C465 1.414 . S
C466 C467 1.374 . S
C467 H447 0.950 . S
C467 C463 1.385 . S
C467 C466 1.374 . S
C468 C465 1.499 . S
C468 C469 1.373 1_554 S
C468 C470 1.389 1_455 S
C469 H448 0.950 . S
C469 C468 1.373 1_556 S
C469 C485 1.377 1_455 S
C470 C468 1.389 1_655 S
C470 C471 1.524 . S
C470 C484 1.377 . S
C471 C470 1.524 . S
C471 C472 1.397 1_655 S
C471 C476 1.363 . S
C472 H449 0.950 . S
C472 C471 1.397 1_455 S
C472 C473 1.334 . S
C473 H450 0.950 . S
C473 C472 1.334 . S
C473 C474 1.287 . S
C474 C473 1.287 . S
C474 C475 1.524 1_455 S
C474 H493 0.913 . S
C475 H451 0.950 . S
C475 C474 1.524 1_655 S
C475 C476 1.415 . S
C476 H452 0.950 . S
C476 C471 1.363 . S
C476 C475 1.415 . S
C477 H453 0.951 . S
C477 C478 1.366 . S
C477 C479 1.388 . S
C478 C477 1.366 . S
C478 C482 1.385 . S
C479 H454 0.951 . S
C479 C477 1.388 . S
C479 C480 1.366 . S
C480 C479 1.366 . S
C480 C481 1.428 . S
C480 C483 1.499 . S
C481 H455 0.930 1_556 S
C481 C480 1.428 . S
C481 C482 1.380 . S
C482 H456 0.927 1_556 S
C482 C478 1.385 . S
C482 C481 1.380 . S
C483 C480 1.499 . S
C483 C484 1.373 1_556 S
C483 C485 1.389 . S
C484 H457 0.950 . S
C484 C470 1.377 . S
C484 C483 1.373 1_554 S
C485 C469 1.377 1_655 S
C485 C483 1.389 . S
C485 C486 1.524 . S
C486 C485 1.524 . S
C486 C487 1.397 . S
C486 C491 1.363 . S
C487 H458 0.950 . S
C487 C486 1.397 . S
C487 C488 1.334 . S
C488 H459 0.950 . S
C488 C487 1.334 . S
C488 C489 1.287 . S
C489 C488 1.287 . S
C489 C490 1.524 . S
C489 H492 0.999 . S
C490 H460 0.950 . S
C490 C489 1.524 . S
C490 C491 1.415 . S
C491 H461 0.950 . S
C491 C486 1.363 . S
C491 C490 1.415 . S
H492 C489 0.999 . S
H493 C474 0.913 . S
H494 C512 0.951 . S
H495 C514 0.951 . S
H496 C516 0.950 . S
H497 C517 0.950 . S
H498 C519 0.950 . S
H499 C522 0.950 . S
H500 C523 0.950 . S
H501 C525 0.950 . S
H502 C526 0.950 . S
H503 C527 0.951 . S
H504 C529 0.951 . S
H505 C531 0.950 . S
H506 C532 0.950 . S
H507 C534 0.950 . S
H508 C537 0.950 . S
H509 C538 0.950 . S
H510 C540 0.950 . S
H511 C541 0.950 . S
C512 H494 0.951 . S
C512 C513 1.366 . S
C512 C514 1.388 . S
C513 C512 1.366 . S
C513 C517 1.385 . S
C514 H495 0.951 . S
C514 C512 1.388 . S
C514 C515 1.366 . S
C515 C514 1.366 . S
C515 C516 1.414 . S
C515 C518 1.499 . S
C516 H496 0.950 . S
C516 C515 1.414 . S
C516 C517 1.374 . S
C517 H497 0.950 . S
C517 C513 1.385 . S
C517 C516 1.374 . S
C518 C515 1.499 . S
C518 C519 1.373 . S
C518 C520 1.389 . S
C519 H498 0.950 . S
C519 C518 1.373 . S
C519 C535 1.377 1_545 S
C520 C518 1.389 . S
C520 C521 1.524 . S
C520 C534 1.377 1_545 S
C521 C520 1.524 . S
C521 C522 1.397 . S
C521 C526 1.363 . S
C522 H499 0.950 . S
C522 C521 1.397 . S
C522 C523 1.334 . S
C523 H500 0.950 . S
C523 C522 1.334 . S
C523 C524 1.287 . S
C524 C523 1.287 . S
C524 C525 1.524 . S
C524 H543 0.913 . S
C525 H501 0.950 . S
C525 C524 1.524 . S
C525 C526 1.415 . S
C526 H502 0.950 . S
C526 C521 1.363 . S
C526 C525 1.415 . S
C527 H503 0.951 . S
C527 C528 1.366 . S
C527 C529 1.388 . S
C528 C527 1.366 . S
C528 C532 1.385 . S
C529 H504 0.951 . S
C529 C527 1.388 . S
C529 C530 1.366 . S
C530 C529 1.366 . S
C530 C531 1.414 . S
C530 C533 1.499 . S
C531 H505 0.950 . S
C531 C530 1.414 . S
C531 C532 1.374 . S
C532 H506 0.950 . S
C532 C528 1.385 . S
C532 C531 1.374 . S
C533 C530 1.499 . S
C533 C534 1.373 . S
C533 C535 1.389 . S
C534 H507 0.950 . S
C534 C520 1.377 1_565 S
C534 C533 1.373 . S
C535 C519 1.377 1_565 S
C535 C533 1.389 . S
C535 C536 1.524 . S
C536 C535 1.524 . S
C536 C537 1.397 . S
C536 C541 1.363 . S
C537 H508 0.950 . S
C537 C536 1.397 . S
C537 C538 1.334 . S
C538 H509 0.950 . S
C538 C537 1.334 . S
C538 C539 1.287 . S
C539 C538 1.287 . S
C539 C540 1.524 . S
C539 H542 0.999 . S
C540 H510 0.950 . S
C540 C539 1.524 . S
C540 C541 1.415 . S
C541 H511 0.950 . S
C541 C536 1.363 . S
C541 C540 1.415 . S
H542 C539 0.999 . S
H543 C524 0.913 . S
C163 C3 1.520 . S
C178 C76 1.518 . S
C213 C40 1.518 . S
C228 C111 1.520 . S
C263 C14 1.348 . S
C278 C110 1.388 . S
C313 C86 1.578 . S
C328 C39 1.651 . S
C363 C112 1.738 . S
C378 C4 1.738 . S
C413 C50 1.577 . S
C428 C75 1.651 . S
C463 C2 1.388 . S
C478 C122 1.348 . S
C513 C38 1.285 . S
C528 C74 1.285 . S
