# Generated by pormake.
# Topology ukg, (4)-cn, num edge types: 1
# Building blocks:
#     Node 0, Type 0, BuildingBlock: QUQFOY_clean_sbu_1, # of connection points: 4
#     Node 1, Type 0, BuildingBlock: QUQFOY_clean_sbu_1, # of connection points: 4
#     Node 2, Type 0, BuildingBlock: QUQFOY_clean_sbu_1, # of connection points: 4
#     Node 3, Type 0, BuildingBlock: QUQFOY_clean_sbu_1, # of connection points: 4
#     Node 4, Type 0, BuildingBlock: QUQFOY_clean_sbu_1, # of connection points: 4
#     Node 5, Type 0, BuildingBlock: QUQFOY_clean_sbu_1, # of connection points: 4
#     Node 6, Type 0, BuildingBlock: QUQFOY_clean_sbu_1, # of connection points: 4
#     Node 7, Type 0, BuildingBlock: QUQFOY_clean_sbu_1, # of connection points: 4
#     Edge 8, Type (0, 0), BuildingBlock: ZUJKAS_clean_linker_0, # of connection points: 2
#     Edge 9, Type (0, 0), BuildingBlock: ZUJKAS_clean_linker_0, # of connection points: 2
#     Edge 10, Type (0, 0), BuildingBlock: ZUJKAS_clean_linker_0, # of connection points: 2
#     Edge 11, Type (0, 0), BuildingBlock: ZUJKAS_clean_linker_0, # of connection points: 2
#     Edge 12, Type (0, 0), BuildingBlock: ZUJKAS_clean_linker_0, # of connection points: 2
#     Edge 13, Type (0, 0), BuildingBlock: ZUJKAS_clean_linker_0, # of connection points: 2
#     Edge 14, Type (0, 0), BuildingBlock: ZUJKAS_clean_linker_0, # of connection points: 2
#     Edge 15, Type (0, 0), BuildingBlock: ZUJKAS_clean_linker_0, # of connection points: 2
#     Edge 16, Type (0, 0), BuildingBlock: ZUJKAS_clean_linker_0, # of connection points: 2
#     Edge 17, Type (0, 0), BuildingBlock: ZUJKAS_clean_linker_0, # of connection points: 2
#     Edge 18, Type (0, 0), BuildingBlock: ZUJKAS_clean_linker_0, # of connection points: 2
#     Edge 19, Type (0, 0), BuildingBlock: ZUJKAS_clean_linker_0, # of connection points: 2
#     Edge 20, Type (0, 0), BuildingBlock: ZUJKAS_clean_linker_0, # of connection points: 2
#     Edge 21, Type (0, 0), BuildingBlock: ZUJKAS_clean_linker_0, # of connection points: 2
#     Edge 22, Type (0, 0), BuildingBlock: ZUJKAS_clean_linker_0, # of connection points: 2
#     Edge 23, Type (0, 0), BuildingBlock: ZUJKAS_clean_linker_0, # of connection points: 2
# Relax obj value: 0.022
# Max RMSD: 0.120
# Mean RMSD: 0.120
data_MOF--net-ukg--node1-QUQFOY_clean_sbu_1--edge1-ZUJKAS_clean_linker_0
_symmetry_space_group_name_H-M    P1
_symmetry_Int_Tables_number       1
_symmetry_cell_setting            triclinic
loop_
_symmetry_equiv_pos_as_xyz
'x, y, z'
_cell_length_a     41.412551
_cell_length_b     41.374819
_cell_length_c     48.946355
_cell_angle_alpha  89.970669
_cell_angle_beta   90.000148
_cell_angle_gamma 90.043899
loop_
_atom_site_label
_atom_site_type_symbol
_atom_site_fract_x
_atom_site_fract_y
_atom_site_fract_z
_atom_type_partial_charge
O0 O 0.97542 0.64215 0.17988 0.0
Cd1 Cd 0.9962 0.66555 0.14705 0.0
Cd2 Cd 0.04224 0.67561 0.18467 0.0
O3 O 0.0173 0.64185 0.20769 0.0
O4 O 0.97485 0.64677 0.11408 0.0
O5 O 0.02669 0.64002 0.12336 0.0
C6 C 1.00213 0.63354 0.10798 0.0
C7 C 0.09842 0.67839 0.18181 0.0
C8 C 0.98839 0.63361 0.2023 0.0
C9 C 1.00331 0.73313 0.16533 0.0
O10 O 0.02209 0.72083 0.18301 0.0
O11 O 0.99142 0.71556 0.1465 0.0
O12 O 0.08344 0.68397 0.20439 0.0
O13 O 0.0816 0.66861 0.16117 0.0
O14 O 0.36524 0.47499 0.67732 0.0
Cd15 Cd 0.34181 0.49408 0.64384 0.0
Cd16 Cd 0.32871 0.54085 0.68116 0.0
O17 O 0.36224 0.51682 0.70511 0.0
O18 O 0.36179 0.47221 0.61162 0.0
O19 O 0.36674 0.52459 0.61958 0.0
C20 C 0.3742 0.49971 0.60491 0.0
C21 C 0.32437 0.59713 0.67939 0.0
C22 C 0.37216 0.48837 0.69996 0.0
C23 C 0.27337 0.49931 0.66058 0.0
O24 O 0.28419 0.51936 0.67796 0.0
O25 O 0.29211 0.48713 0.64274 0.0
O26 O 0.31813 0.58123 0.70139 0.0
O27 O 0.33554 0.58124 0.65872 0.0
O28 O 0.53179 0.86825 0.17835 0.0
Cd29 Cd 0.51232 0.84504 0.14492 0.0
Cd30 Cd 0.46594 0.83193 0.18271 0.0
O31 O 0.49043 0.86512 0.20665 0.0
O32 O 0.53433 0.865 0.11274 0.0
O33 O 0.48208 0.87044 0.12082 0.0
C34 C 0.507 0.87777 0.10614 0.0
C35 C 0.40973 0.82735 0.18145 0.0
C36 C 0.5188 0.87502 0.20118 0.0
C37 C 0.50675 0.77648 0.16149 0.0
O38 O 0.48711 0.78737 0.17914 0.0
O39 O 0.51881 0.79523 0.14356 0.0
O40 O 0.4259 0.8212 0.20332 0.0
O41 O 0.42528 0.83875 0.16068 0.0
O42 O 0.14304 0.03325 0.67653 0.0
Cd43 Cd 0.16609 0.01124 0.64422 0.0
Cd44 Cd 0.17403 0.9659 0.68243 0.0
O45 O 0.13923 0.99123 0.70402 0.0
O46 O 0.14814 0.03234 0.6108 0.0
O47 O 0.14005 0.98082 0.62081 0.0
C48 C 0.13428 0.00524 0.60504 0.0
C49 C 0.17715 0.90964 0.68013 0.0
C50 C 0.13275 0.02058 0.69855 0.0
C51 C 0.23262 1.00397 0.66405 0.0
O52 O 0.21934 0.98612 0.68195 0.0
O53 O 0.21605 0.0151 0.64428 0.0
O54 O 0.18156 0.92491 0.70277 0.0
O55 O 0.16819 0.9262 0.65906 0.0
O56 O 0.03414 0.36932 0.83424 0.0
Cd57 Cd 0.01707 0.34611 0.86847 0.0
Cd58 Cd 0.96794 0.33113 0.83278 0.0
O59 O 0.99208 0.36299 0.80708 0.0
O60 O 0.03961 0.36706 0.8999 0.0
O61 O 0.98689 0.37056 0.89327 0.0
C62 C 0.01209 0.37882 0.90723 0.0
C63 C 0.91163 0.32669 0.83354 0.0
C64 C 0.02019 0.3743 0.8115 0.0
C65 C 0.0108 0.27688 0.85411 0.0
O66 O 0.98871 0.28651 0.83808 0.0
O67 O 0.02536 0.29667 0.86972 0.0
O68 O 0.92819 0.31926 0.8122 0.0
O69 O 0.92685 0.33914 0.85403 0.0
O70 O 0.63762 0.53212 0.33111 0.0
Cd71 Cd 0.6608 0.5127 0.3646 0.0
Cd72 Cd 0.67285 0.46576 0.3276 0.0
O73 O 0.6395 0.48993 0.30363 0.0
O74 O 0.64108 0.53461 0.39692 0.0
O75 O 0.63554 0.48233 0.38872 0.0
C76 C 0.62836 0.50721 0.40351 0.0
C77 C 0.67675 0.40951 0.32993 0.0
C78 C 0.63027 0.51865 0.3086 0.0
C79 C 0.72896 0.50656 0.34749 0.0
O80 O 0.71763 0.48676 0.33014 0.0
O81 O 0.71062 0.51884 0.36558 0.0
O82 O 0.68268 0.42502 0.30767 0.0
O83 O 0.66601 0.42578 0.35055 0.0
O84 O 0.47711 0.14076 0.83386 0.0
Cd85 Cd 0.49644 0.16521 0.8667 0.0
Cd86 Cd 0.54285 0.17674 0.82927 0.0
O87 O 0.51905 0.1423 0.80613 0.0
O88 O 0.47461 0.14623 0.89939 0.0
O89 O 0.52685 0.14067 0.89126 0.0
C90 C 0.50199 0.13368 0.90614 0.0
C91 C 0.59896 0.18047 0.83246 0.0
C92 C 0.49053 0.13277 0.81149 0.0
C93 C 0.5019 0.23306 0.84817 0.0
O94 O 0.5216 0.22149 0.83088 0.0
O95 O 0.48997 0.21504 0.8667 0.0
O96 O 0.58405 0.18598 0.80983 0.0
O97 O 0.58213 0.1704 0.85301 0.0
O98 O 0.87106 0.97843 0.33285 0.0
Cd99 Cd 0.84671 0.99646 0.36624 0.0
Cd100 Cd 0.83385 0.0438 0.32927 0.0
O101 O 0.86815 0.02072 0.30551 0.0
O102 O 0.86615 0.97376 0.3983 0.0
O103 O 0.87106 0.02636 0.39141 0.0
C104 C 0.87838 1.00108 0.40567 0.0
C105 C 0.82878 0.09998 0.33155 0.0
C106 C 0.87832 0.99232 0.3105 0.0
C107 C 0.77861 1.00118 0.34844 0.0
O108 O 0.7896 0.02164 0.33147 0.0
O109 O 0.79707 0.98897 0.36649 0.0
O110 O 0.82322 0.08435 0.30929 0.0
O111 O 0.83962 0.08391 0.35225 0.0
H112 H 0.95926 0.41346 0.92422 0.0
H113 H 0.95793 0.45709 0.95808 0.0
H114 H 0.05903 0.44223 0.97487 0.0
H115 H 0.06071 0.39904 0.94089 0.0
H116 H 0.97253 0.45822 0.01373 0.0
H117 H 0.05576 0.53824 0.95606 0.0
H118 H 0.03727 0.50299 0.94099 0.0
H119 H 0.0719 0.4988 0.96288 0.0
C120 C 0.98115 0.41932 0.93526 0.0
C121 C 0.01014 0.40288 0.92968 0.0
C122 C 0.98037 0.44431 0.95457 0.0
C123 C 0.00856 0.45344 0.96858 0.0
C124 C 0.03718 0.4362 0.96383 0.0
H125 H 0.05473 0.5979 0.09199 0.0
H126 H 0.0562 0.55457 0.05784 0.0
C127 C 0.03802 0.4113 0.94452 0.0
C128 C 0.0081 0.48101 0.98808 0.0
H129 H 0.04203 0.55483 1.00102 0.0
C130 C 0.98759 0.47941 0.01088 0.0
C131 C 0.0278 0.50868 0.98436 0.0
C132 C 0.04922 0.51254 0.95963 0.0
C133 C 0.98671 0.50441 0.03032 0.0
C134 C 0.00647 0.53202 0.02663 0.0
C135 C 0.02696 0.53364 1.00384 0.0
C136 C 0.00605 0.55951 0.04619 0.0
C137 C 0.96514 0.50072 0.05498 0.0
C138 C 0.97767 0.57734 0.05037 0.0
C139 C 0.97677 0.60213 0.06978 0.0
C140 C 0.00431 0.60974 0.08536 0.0
C141 C 0.03309 0.59267 0.08037 0.0
C142 C 0.03396 0.56785 0.0609 0.0
H143 H 0.95797 0.47514 0.05832 0.0
H144 H 0.9773 0.50976 0.0737 0.0
H145 H 0.94283 0.51508 0.05184 0.0
H146 H 0.95604 0.57182 0.03882 0.0
H147 H 0.95424 0.61485 0.07296 0.0
H148 H 0.39416 0.45138 0.57084 0.0
H149 H 0.43742 0.45329 0.53691 0.0
H150 H 0.45192 0.55452 0.5538 0.0
H151 H 0.40884 0.55275 0.58812 0.0
H152 H 0.44535 0.49039 0.48982 0.0
H153 H 0.54214 0.51629 0.56523 0.0
H154 H 0.50234 0.50301 0.57525 0.0
H155 H 0.50913 0.54441 0.56568 0.0
C156 C 0.40636 0.47415 0.56725 0.0
C157 C 0.39812 0.50189 0.58235 0.0
C158 C 0.43114 0.47517 0.54783 0.0
C159 C 0.44836 0.50387 0.54318 0.0
C160 C 0.43944 0.53192 0.55748 0.0
H161 H 0.60863 0.55563 0.4376 0.0
H162 H 0.56534 0.55392 0.4715 0.0
C163 C 0.41461 0.53093 0.57693 0.0
C164 C 0.47577 0.50419 0.52351 0.0
H165 H 0.55714 0.51699 0.51855 0.0
C166 C 0.46981 0.49611 0.49611 0.0
C167 C 0.50771 0.51158 0.53174 0.0
C168 C 0.5159 0.51904 0.56111 0.0
C169 C 0.49477 0.49582 0.47663 0.0
C170 C 0.52672 0.50318 0.48486 0.0
C171 C 0.53268 0.51128 0.51226 0.0
C172 C 0.55415 0.5034 0.46521 0.0
C173 C 0.48656 0.48838 0.44725 0.0
C174 C 0.56294 0.47531 0.4509 0.0
C175 C 0.58778 0.47618 0.43145 0.0
C176 C 0.60442 0.50515 0.42606 0.0
C177 C 0.59631 0.53292 0.44117 0.0
C178 C 0.57152 0.53201 0.46058 0.0
H179 H 0.46034 0.49126 0.44312 0.0
H180 H 0.50022 0.50433 0.43311 0.0
H181 H 0.49321 0.46297 0.44271 0.0
H182 H 0.55036 0.45276 0.45456 0.0
H183 H 0.59345 0.45434 0.42026 0.0
H184 H 0.55547 0.89747 0.07209 0.0
H185 H 0.55412 0.9412 0.03854 0.0
H186 H 0.45325 0.95684 0.05579 0.0
H187 H 0.45446 0.91328 0.08974 0.0
H188 H 0.51707 0.95022 0.99163 0.0
H189 H 0.49281 0.04649 0.06791 0.0
H190 H 0.50551 0.00635 0.07755 0.0
H191 H 0.46423 0.01381 0.06815 0.0
C192 C 0.53289 0.91002 0.06866 0.0
C193 C 0.5051 0.90195 0.08375 0.0
C194 C 0.53219 0.93507 0.04946 0.0
C195 C 0.50377 0.95274 0.04502 0.0
C196 C 0.47565 0.94401 0.05931 0.0
H197 H 0.45364 0.11448 0.94053 0.0
H198 H 0.45509 0.07107 0.97438 0.0
C199 C 0.47631 0.9189 0.07854 0.0
C200 C 0.50381 0.98042 0.02559 0.0
H201 H 0.49214 0.06208 0.02134 0.0
C202 C 0.51172 0.9747 0.99813 0.0
C203 C 0.4969 0.01238 0.03412 0.0
C204 C 0.48966 0.02032 0.06357 0.0
C205 C 0.51231 0.99991 0.97886 0.0
C206 C 0.50542 0.03187 0.98738 0.0
C207 C 0.4975 0.0376 0.01485 0.0
C208 C 0.50545 0.05953 0.96793 0.0
C209 C 0.51954 0.99196 0.9494 0.0
C210 C 0.53355 0.0682 0.95359 0.0
C211 C 0.53284 0.09311 0.93419 0.0
C212 C 0.504 0.10994 0.92885 0.0
C213 C 0.47625 0.10202 0.94406 0.0
C214 C 0.47701 0.07715 0.96343 0.0
H215 H 0.51638 0.96579 0.94507 0.0
H216 H 0.50368 0.00593 0.93542 0.0
H217 H 0.54497 0.99845 0.94481 0.0
H218 H 0.55597 0.05541 0.95716 0.0
H219 H 0.55466 0.09863 0.92291 0.0
H220 H 0.89699 0.95214 0.4397 0.0
H221 H 0.94005 0.95289 0.47378 0.0
H222 H 0.95719 0.05377 0.45708 0.0
H223 H 0.9142 0.05319 0.42263 0.0
H224 H 0.01342 0.01552 0.45626 0.0
H225 H 0.94218 0.99263 0.55033 0.0
H226 H 0.93507 0.96408 0.52337 0.0
H227 H 0.92383 0.00568 0.51874 0.0
C228 C 0.90955 0.97466 0.44352 0.0
C229 C 0.90203 1.00265 0.42846 0.0
C230 C 0.93413 0.97506 0.46312 0.0
C231 C 0.95165 1.00346 0.46821 0.0
C232 C 0.94388 0.03161 0.45356 0.0
H233 H 0.11655 0.05306 0.56958 0.0
H234 H 0.07346 0.05171 0.53559 0.0
C235 C 0.9192 0.03127 0.43397 0.0
C236 C 0.97921 1.00325 0.48772 0.0
H237 H 0.99922 0.98919 0.55441 0.0
C238 C 0.0103 0.00996 0.47776 0.0
C239 C 0.97516 0.99572 0.51571 0.0
C240 C 0.94224 0.98939 0.5278 0.0
C241 C 0.03751 0.00887 0.49492 0.0
C242 C 0.03346 1.00148 0.52296 0.0
C243 C 1.00235 0.99471 0.5329 0.0
C244 C 0.06098 1.00158 0.54253 0.0
C245 C 0.07042 0.01494 0.48272 0.0
C246 C 0.06822 0.97393 0.55804 0.0
C247 C 0.09285 0.97465 0.57768 0.0
C248 C 0.11058 1.00315 0.58233 0.0
C249 C 0.10359 0.03062 0.56642 0.0
C250 C 0.079 0.02987 0.54684 0.0
H251 H 0.07052 0.01076 0.4603 0.0
H252 H 0.07736 0.04049 0.48635 0.0
H253 H 0.08897 0.99918 0.49224 0.0
H254 H 0.05455 0.95186 0.55516 0.0
H255 H 0.09744 0.95313 0.58966 0.0
H256 H 0.14095 0.69191 0.22272 0.0
H257 H 0.19469 0.71573 0.21829 0.0
H258 H 0.18775 0.70949 0.13058 0.0
H259 H 0.13372 0.68558 0.1348 0.0
H260 H 0.25259 0.69355 0.19017 0.0
H261 H 0.20216 0.80774 0.14764 0.0
H262 H 0.17736 0.77836 0.16511 0.0
H263 H 0.19091 0.7707 0.13091 0.0
C264 C 0.15103 0.69506 0.20247 0.0
C265 C 0.13298 0.68702 0.1791 0.0
C266 C 0.18173 0.70874 0.19999 0.0
C267 C 0.19489 0.71491 0.17412 0.0
C268 C 0.17775 0.70536 0.15073 0.0
H269 H 0.37252 0.82128 0.13535 0.0
H270 H 0.31979 0.79451 0.13187 0.0
C271 C 0.14703 0.69143 0.15319 0.0
C272 C 0.22593 0.73258 0.17193 0.0
H273 H 0.25835 0.80582 0.15468 0.0
C274 C 0.25393 0.718 0.18224 0.0
C275 C 0.22755 0.76447 0.16152 0.0
C276 C 0.19793 0.78148 0.15079 0.0
C277 C 0.28353 0.73456 0.18267 0.0
C278 C 0.28495 0.76687 0.17316 0.0
C279 C 0.25714 0.78115 0.16211 0.0
C280 C 0.31495 0.78635 0.17534 0.0
C281 C 0.31305 0.7172 0.19323 0.0
C282 C 0.32889 0.79205 0.20102 0.0
C283 C 0.35889 0.80727 0.20307 0.0
C284 C 0.37543 0.81743 0.17949 0.0
C285 C 0.36038 0.81378 0.1539 0.0
C286 C 0.33034 0.79834 0.15186 0.0
H287 H 0.31011 0.69054 0.19216 0.0
H288 H 0.33493 0.72412 0.18147 0.0
H289 H 0.31697 0.72381 0.21494 0.0
H290 H 0.317 0.7838 0.21946 0.0
H291 H 0.36967 0.80996 0.2231 0.0
H292 H 0.30751 0.63771 0.72082 0.0
H293 H 0.28366 0.69148 0.71695 0.0
H294 H 0.29561 0.68843 0.62949 0.0
H295 H 0.31952 0.63433 0.63315 0.0
H296 H 0.30754 0.75038 0.69225 0.0
H297 H 0.19676 0.70277 0.64183 0.0
H298 H 0.2248 0.6769 0.65972 0.0
H299 H 0.23484 0.69231 0.62651 0.0
C300 C 0.30555 0.64862 0.70077 0.0
C301 C 0.31526 0.63166 0.67726 0.0
C302 C 0.29185 0.67934 0.6986 0.0
C303 C 0.28732 0.69364 0.67291 0.0
C304 C 0.29842 0.67754 0.64948 0.0
H305 H 0.18644 0.87397 0.63357 0.0
H306 H 0.21254 0.82092 0.6303 0.0
C307 C 0.31236 0.64678 0.65163 0.0
C308 C 0.26996 0.72488 0.6709 0.0
H309 H 0.1986 0.75872 0.65057 0.0
C310 C 0.28381 0.75228 0.68301 0.0
C311 C 0.23902 0.72724 0.65877 0.0
C312 C 0.22273 0.69827 0.64609 0.0
C313 C 0.26748 0.78199 0.68349 0.0
C314 C 0.23608 0.78413 0.67215 0.0
C315 C 0.22255 0.75694 0.6594 0.0
C316 C 0.2168 0.8143 0.674 0.0
C317 C 0.28412 0.81087 0.69602 0.0
C318 C 0.2091 0.82737 0.69962 0.0
C319 C 0.19425 0.85757 0.70156 0.0
C320 C 0.18649 0.87519 0.67788 0.0
C321 C 0.19208 0.861 0.6522 0.0
C322 C 0.20714 0.83077 0.65028 0.0
H323 H 0.31075 0.8077 0.69653 0.0
H324 H 0.27847 0.83333 0.68455 0.0
H325 H 0.27565 0.81392 0.71737 0.0
H326 H 0.21554 0.81465 0.71819 0.0
H327 H 0.19004 0.86767 0.72166 0.0
H328 H 0.634 0.18782 0.87959 0.0
H329 H 0.68812 0.2115 0.88396 0.0
H330 H 0.69547 0.21769 0.79626 0.0
H331 H 0.64162 0.19415 0.79168 0.0
H332 H 0.7531 0.19452 0.82516 0.0
H333 H 0.70358 0.30985 0.86621 0.0
H334 H 0.69147 0.27299 0.88288 0.0
H335 H 0.67868 0.28077 0.84849 0.0
C336 C 0.64741 0.19364 0.86124 0.0
C337 C 0.63346 0.18927 0.83529 0.0
C338 C 0.67817 0.20742 0.86378 0.0
C339 C 0.69548 0.21684 0.84043 0.0
C340 C 0.68238 0.21079 0.81453 0.0
H341 H 0.87206 0.30866 0.79181 0.0
H342 H 0.81904 0.2832 0.79534 0.0
C343 C 0.65162 0.19728 0.81196 0.0
C344 C 0.7267 0.23416 0.8427 0.0
H345 H 0.75977 0.30726 0.85936 0.0
C346 C 0.75464 0.21908 0.83281 0.0
C347 C 0.72857 0.26616 0.85277 0.0
C348 C 0.69903 0.28364 0.86308 0.0
C349 C 0.78443 0.23526 0.83246 0.0
C350 C 0.78612 0.26771 0.84159 0.0
C351 C 0.75835 0.28249 0.85222 0.0
C352 C 0.81637 0.28682 0.83938 0.0
C353 C 0.81387 0.21736 0.82241 0.0
C354 C 0.83153 0.29923 0.86281 0.0
C355 C 0.86176 0.31431 0.86081 0.0
C356 C 0.87723 0.31715 0.83533 0.0
C357 C 0.86094 0.30658 0.81177 0.0
C358 C 0.83074 0.29175 0.81377 0.0
H359 H 0.81063 0.19076 0.82391 0.0
H360 H 0.81806 0.22343 0.80061 0.0
H361 H 0.83571 0.2243 0.8342 0.0
H362 H 0.82064 0.296 0.88275 0.0
H363 H 0.87371 0.32215 0.87934 0.0
H364 H 0.69198 0.36796 0.28879 0.0
H365 H 0.71744 0.315 0.29293 0.0
H366 H 0.71036 0.32086 0.38069 0.0
H367 H 0.68424 0.37377 0.37669 0.0
H368 H 0.77573 0.30593 0.31863 0.0
H369 H 0.68154 0.22827 0.366 0.0
H370 H 0.67228 0.26662 0.35024 0.0
H371 H 0.68971 0.26532 0.38383 0.0
C372 C 0.6951 0.35767 0.30897 0.0
C373 C 0.68611 0.37509 0.33242 0.0
C374 C 0.70978 0.32743 0.3113 0.0
C375 C 0.71581 0.31392 0.3371 0.0
C376 C 0.70551 0.33055 0.36055 0.0
H377 H 0.82116 0.13609 0.37807 0.0
H378 H 0.79677 0.19 0.38158 0.0
C379 C 0.69058 0.36081 0.35823 0.0
C380 C 0.73532 0.28392 0.33924 0.0
H381 H 0.73358 0.20542 0.36087 0.0
C382 C 0.76649 0.28397 0.3279 0.0
C383 C 0.72341 0.25539 0.3516 0.0
C384 C 0.68982 0.25364 0.36343 0.0
C385 C 0.78588 0.25617 0.32821 0.0
C386 C 0.77368 0.22744 0.33992 0.0
C387 C 0.7429 0.22757 0.35198 0.0
C388 C 0.7914 0.1964 0.33796 0.0
C389 C 0.81926 0.25775 0.31592 0.0
C390 C 0.79687 0.18241 0.31228 0.0
C391 C 0.81071 0.15175 0.31021 0.0
C392 C 0.81937 0.1344 0.33381 0.0
C393 C 0.81504 0.14896 0.35951 0.0
C394 C 0.80092 0.17964 0.36157 0.0
H395 H 0.82835 0.283 0.3149 0.0
H396 H 0.83661 0.24296 0.32787 0.0
H397 H 0.81844 0.24808 0.29479 0.0
H398 H 0.7893 0.19472 0.29382 0.0
H399 H 0.81357 0.14118 0.29011 0.0
H400 H 0.77575 0.47745 0.31739 0.0
H401 H 0.82803 0.49928 0.30472 0.0
H402 H 0.81232 0.5812 0.35755 0.0
H403 H 0.75904 0.55966 0.36996 0.0
H404 H 0.8265 0.59996 0.30725 0.0
H405 H 0.91638 0.50836 0.33665 0.0
H406 H 0.88425 0.48953 0.31802 0.0
H407 H 0.87592 0.50845 0.35046 0.0
C408 C 0.7836 0.49977 0.32686 0.0
C409 C 0.76303 0.51699 0.3445 0.0
C410 C 0.81381 0.51206 0.31981 0.0
C411 C 0.82443 0.5417 0.33043 0.0
C412 C 0.80474 0.55814 0.34927 0.0
H413 H 1.00255 0.62194 0.25637 0.0
H414 H 0.96569 0.60092 0.29147 0.0
C415 C 0.77433 0.54579 0.35639 0.0
C416 C 0.85343 0.55738 0.31841 0.0
H417 H 0.93007 0.54111 0.29643 0.0
C418 C 0.84941 0.58743 0.30552 0.0
C419 C 0.88355 0.54135 0.31632 0.0
C420 C 0.89035 0.5103 0.3314 0.0
C421 C 0.87368 0.60058 0.28892 0.0
C422 C 0.9025 0.58297 0.28467 0.0
C423 C 0.90765 0.55424 0.29925 0.0
C424 C 0.92608 0.59289 0.26349 0.0
C425 C 0.86779 0.63279 0.27532 0.0
C426 C 0.9164 0.59406 0.23605 0.0
C427 C 0.93725 0.60594 0.21605 0.0
C428 C 0.96839 0.61675 0.22302 0.0
C429 C 0.97872 0.61387 0.25033 0.0
C430 C 0.95769 0.60197 0.27042 0.0
H431 H 0.84981 0.64737 0.2868 0.0
H432 H 0.89051 0.64691 0.27353 0.0
H433 H 0.8581 0.62868 0.25447 0.0
H434 H 0.89234 0.58646 0.23019 0.0
H435 H 0.92857 0.60746 0.19522 0.0
H436 H 0.40064 0.42948 0.69382 0.0
H437 H 0.422 0.39435 0.72943 0.0
H438 H 0.40346 0.46776 0.78987 0.0
H439 H 0.38193 0.50349 0.75414 0.0
H440 H 0.46545 0.4333 0.79505 0.0
H441 H 0.36012 0.35143 0.78627 0.0
H442 H 0.37859 0.36031 0.75392 0.0
H443 H 0.3599 0.39226 0.77316 0.0
C444 C 0.40134 0.43843 0.7146 0.0
C445 C 0.38921 0.46922 0.72113 0.0
C446 C 0.41346 0.41822 0.73496 0.0
C447 C 0.41364 0.42822 0.76231 0.0
C448 C 0.40323 0.45954 0.76886 0.0
H449 H 0.44894 0.26319 0.87068 0.0
H450 H 0.42693 0.31612 0.85776 0.0
C451 C 0.39102 0.47991 0.74841 0.0
C452 C 0.42378 0.40515 0.7838 0.0
H453 H 0.40758 0.32922 0.80718 0.0
C454 C 0.45253 0.41079 0.79817 0.0
C455 C 0.40647 0.37618 0.78839 0.0
C456 C 0.37436 0.36975 0.77484 0.0
C457 C 0.46573 0.387 0.8154 0.0
C458 C 0.44996 0.35673 0.81786 0.0
C459 C 0.41989 0.35224 0.80518 0.0
C460 C 0.46595 0.32801 0.83007 0.0
C461 C 0.49684 0.39425 0.83019 0.0
C462 C 0.49545 0.31739 0.81927 0.0
C463 C 0.508 0.28736 0.82659 0.0
C464 C 0.49118 0.267 0.8447 0.0
C465 C 0.46251 0.27833 0.85673 0.0
C466 C 0.44989 0.30854 0.84933 0.0
H467 H 0.49872 0.4204 0.83508 0.0
H468 H 0.49889 0.38015 0.84942 0.0
H469 H 0.51751 0.388 0.81677 0.0
H470 H 0.50793 0.33146 0.80387 0.0
H471 H 0.53021 0.27948 0.81699 0.0
H472 H 0.50726 0.87981 0.25638 0.0
H473 H 0.54438 0.90058 0.29134 0.0
H474 H 0.61168 0.92847 0.22836 0.0
H475 H 0.5752 0.90759 0.19353 0.0
H476 H 0.63797 0.88865 0.26965 0.0
H477 H 0.57155 0.9939 0.3128 0.0
H478 H 0.55036 0.95599 0.31057 0.0
H479 H 0.56165 0.97683 0.27989 0.0
C480 C 0.52968 0.89098 0.24998 0.0
C481 C 0.53835 0.89188 0.22217 0.0
C482 C 0.55084 0.90284 0.26998 0.0
C483 C 0.58077 0.91605 0.26242 0.0
C484 C 0.58875 0.91824 0.23463 0.0
H485 H 0.7312 0.03005 0.31885 0.0
H486 H 0.67979 0.00689 0.30498 0.0
C487 C 0.56781 0.90632 0.21474 0.0
C488 C 0.60513 0.92561 0.28309 0.0
H489 H 0.62381 0.98408 0.3297 0.0
C490 C 0.63477 0.90921 0.28313 0.0
C491 C 0.60073 0.95237 0.30062 0.0
C492 C 0.56947 0.97104 0.30103 0.0
C493 C 0.6608 0.91988 0.29908 0.0
C494 C 0.65686 0.94738 0.31595 0.0
C495 C 0.62666 0.96284 0.31696 0.0
C496 C 0.68506 0.96329 0.32897 0.0
C497 C 0.69292 0.90292 0.29627 0.0
C498 C 0.70456 0.94713 0.34811 0.0
C499 C 0.73435 0.9603 0.35603 0.0
C500 C 0.74492 0.98983 0.34492 0.0
C501 C 0.72404 0.00703 0.32751 0.0
C502 C 0.69448 0.99391 0.31965 0.0
H503 H 0.69311 0.88544 0.27905 0.0
H504 H 0.71263 0.92071 0.29299 0.0
H505 H 0.6982 0.88941 0.31534 0.0
H506 H 0.69744 0.9237 0.35594 0.0
H507 H 0.74978 0.94656 0.3696 0.0
H508 H 0.07264 0.25481 0.85132 0.0
H509 H 0.0895 0.2026 0.83248 0.0
H510 H 0.99031 0.17065 0.83193 0.0
H511 H 0.97329 0.22343 0.84926 0.0
H512 H 0.08542 0.13797 0.84171 0.0
H513 H 0.01065 0.1714 0.7518 0.0
H514 H 0.01781 0.19889 0.77965 0.0
H515 H 0.98804 0.16737 0.78285 0.0
C516 C 0.05461 0.23624 0.84798 0.0
C517 C 0.02168 0.24314 0.8514 0.0
C518 C 0.06422 0.20645 0.83712 0.0
C519 C 0.04104 0.1831 0.82994 0.0
C520 C 0.0085 0.18868 0.83646 0.0
H521 H 0.10557 1.00308 0.74785 0.0
H522 H 0.08053 0.03896 0.78172 0.0
C523 C 0.99883 0.21869 0.84662 0.0
C524 C 0.05039 0.15511 0.81266 0.0
H525 H 0.03828 0.12212 0.74953 0.0
C526 C 0.07498 0.13428 0.82163 0.0
C527 C 0.03703 0.15064 0.78625 0.0
C528 C 0.01216 0.1734 0.77441 0.0
C529 C 0.08708 0.10961 0.8047 0.0
C530 C 0.07364 0.10522 0.77835 0.0
C531 C 0.04837 0.12537 0.7698 0.0
C532 C 0.08767 0.08258 0.758 0.0
C533 C 0.11515 0.08958 0.81465 0.0
C534 C 0.09886 0.09493 0.73304 0.0
C535 C 0.11252 0.07455 0.71357 0.0
C536 C 0.11553 0.04122 0.71859 0.0
C537 C 0.10372 0.02865 0.74339 0.0
C538 C 0.0897 0.04917 0.76288 0.0
H539 H 0.12696 0.10049 0.83282 0.0
H540 H 0.10635 0.06519 0.82045 0.0
H541 H 0.13352 0.08669 0.79831 0.0
H542 H 0.09749 0.12059 0.72875 0.0
H543 H 0.12135 0.08518 0.69477 0.0
H544 H 0.00493 0.37871 0.75684 0.0
H545 H 0.03993 0.3987 0.71993 0.0
H546 H 0.11175 0.4262 0.77928 0.0
H547 H 0.07734 0.40645 0.81604 0.0
H548 H 0.07266 0.46231 0.71127 0.0
H549 H 0.1568 0.35989 0.72664 0.0
H550 H 0.11575 0.35953 0.73914 0.0
H551 H 0.14674 0.38058 0.75775 0.0
C552 C 0.02795 0.38951 0.76204 0.0
C553 C 0.03848 0.39063 0.78939 0.0
C554 C 0.04791 0.40082 0.74093 0.0
C555 C 0.07863 0.41328 0.74692 0.0
C556 C 0.08834 0.4161 0.77424 0.0
H557 H 0.22532 0.52899 0.68878 0.0
H558 H 0.1733 0.50657 0.7016 0.0
C559 C 0.06855 0.40487 0.79524 0.0
C560 C 0.10156 0.42222 0.72497 0.0
H561 H 0.17808 0.40618 0.70324 0.0
C562 C 0.09547 0.44972 0.70902 0.0
C563 C 0.13092 0.40529 0.72158 0.0
C564 C 0.13789 0.37447 0.73698 0.0
C565 C 0.11919 0.46221 0.69136 0.0
C566 C 0.14981 0.44705 0.69005 0.0
C567 C 0.15476 0.41804 0.70433 0.0
C568 C 0.1784 0.46296 0.67755 0.0
C569 C 0.1115 0.49204 0.6749 0.0
C570 C 0.19878 0.44609 0.65953 0.0
C571 C 0.229 0.45882 0.65231 0.0
C572 C 0.23942 0.48843 0.66331 0.0
C573 C 0.21813 0.50604 0.68002 0.0
C574 C 0.18808 0.4934 0.68714 0.0
H575 H 0.08544 0.49284 0.66953 0.0
H576 H 0.11691 0.51381 0.68732 0.0
H577 H 0.12595 0.49313 0.65581 0.0
H578 H 0.19193 0.42241 0.65206 0.0
H579 H 0.24487 0.44463 0.63947 0.0
H580 H 0.62173 0.50394 0.25423 0.0
H581 H 0.60177 0.5402 0.21825 0.0
H582 H 0.58208 0.6133 0.2787 0.0
H583 H 0.60198 0.57765 0.31457 0.0
H584 H 0.54126 0.57489 0.21099 0.0
H585 H 0.64585 0.65669 0.22438 0.0
H586 H 0.64528 0.61587 0.2375 0.0
H587 H 0.62571 0.64792 0.25601 0.0
C588 C 0.61269 0.52756 0.2599 0.0
C589 C 0.61381 0.53804 0.28726 0.0
C590 C 0.6014 0.54825 0.2393 0.0
C591 C 0.5912 0.57965 0.24579 0.0
C592 C 0.59055 0.58939 0.27322 0.0
H593 H 0.47684 0.72857 0.18975 0.0
H594 H 0.49866 0.67615 0.20208 0.0
C595 C 0.6018 0.56889 0.29372 0.0
C596 C 0.58213 0.60304 0.22419 0.0
H597 H 0.59922 0.6794 0.20236 0.0
C598 C 0.55422 0.59751 0.20864 0.0
C599 C 0.59958 0.63212 0.22056 0.0
C600 C 0.63097 0.63842 0.23529 0.0
C601 C 0.54186 0.62152 0.19121 0.0
C602 C 0.55756 0.65191 0.18975 0.0
C603 C 0.58693 0.65629 0.20359 0.0
C604 C 0.54194 0.68085 0.17758 0.0
C605 C 0.51164 0.61437 0.17512 0.0
C606 C 0.55885 0.70116 0.15947 0.0
C607 C 0.54648 0.73164 0.15255 0.0
C608 C 0.51721 0.74236 0.16393 0.0
C609 C 0.49954 0.72116 0.18071 0.0
C610 C 0.51183 0.69087 0.18755 0.0
H611 H 0.51037 0.58835 0.16961 0.0
H612 H 0.49021 0.61993 0.18788 0.0
H613 H 0.5104 0.62901 0.15613 0.0
H614 H 0.58228 0.69405 0.1517 0.0
H615 H 0.5607 0.74744 0.13964 0.0
H616 H 0.43255 0.10302 0.81897 0.0
H617 H 0.39719 0.08015 0.78422 0.0
H618 H 0.46871 0.09962 0.72234 0.0
H619 H 0.50467 0.12256 0.75722 0.0
H620 H 0.37572 0.11804 0.73812 0.0
H621 H 0.43796 0.00424 0.70776 0.0
H622 H 0.44577 0.02376 0.74011 0.0
H623 H 0.46121 0.04103 0.70916 0.0
C624 C 0.44109 0.10205 0.79807 0.0
C625 C 0.4714 0.11481 0.79088 0.0
C626 C 0.42079 0.08898 0.77822 0.0
C627 C 0.43032 0.08824 0.75074 0.0
C628 C 0.46105 0.09971 0.7435 0.0
H629 H 0.26633 0.05332 0.63915 0.0
H630 H 0.31921 0.07469 0.65299 0.0
C631 C 0.48154 0.11281 0.76346 0.0
C632 C 0.40674 0.07756 0.72986 0.0
H633 H 0.38689 0.01419 0.6885 0.0
C634 C 0.37832 0.09563 0.72684 0.0
C635 C 0.41037 0.04835 0.71527 0.0
C636 C 0.44035 0.02798 0.71817 0.0
C637 C 0.35258 0.08441 0.71082 0.0
C638 C 0.35563 0.05452 0.69698 0.0
C639 C 0.38475 0.03722 0.6989 0.0
C640 C 0.32719 0.03864 0.68434 0.0
C641 C 0.32156 0.10357 0.7104 0.0
C642 C 0.31512 0.01029 0.69624 0.0
C643 C 0.28523 0.99799 0.68831 0.0
C644 C 0.26668 0.01377 0.66825 0.0
C645 C 0.27991 0.04075 0.65479 0.0
C646 C 0.31002 0.05308 0.66278 0.0
H647 H 0.32159 0.12341 0.7257 0.0
H648 H 0.31823 0.11449 0.68989 0.0
H649 H 0.30055 0.08762 0.71455 0.0
H650 H 0.32799 0.99866 0.71283 0.0
H651 H 0.276 0.9769 0.69886 0.0
H652 H 0.03021 0.77759 0.19927 0.0
H653 H 0.00878 0.83016 0.21175 0.0
H654 H 0.93339 0.81988 0.15158 0.0
H655 H 0.95433 0.76626 0.13935 0.0
H656 H 0.99467 0.88806 0.18657 0.0
H657 H 0.88313 0.82579 0.22283 0.0
H658 H 0.91855 0.80368 0.21248 0.0
H659 H 0.89277 0.82174 0.18722 0.0
C660 C 0.0093 0.78655 0.18835 0.0
C661 C 0.99355 0.76736 0.1687 0.0
C662 C 0.99719 0.81681 0.19542 0.0
C663 C 0.96911 0.8287 0.18301 0.0
C664 C 0.95474 0.81084 0.16181 0.0
H665 H 0.88643 0.00698 0.25604 0.0
H666 H 0.90855 0.97145 0.22045 0.0
C667 C 0.96683 0.7803 0.15473 0.0
C668 C 0.95348 0.85777 0.19484 0.0
H669 H 0.89 0.87973 0.23528 0.0
C670 C 0.97142 0.88657 0.19671 0.0
C671 C 0.92328 0.8556 0.2083 0.0
C672 C 0.9033 0.82505 0.20787 0.0
C673 C 0.96076 0.91256 0.21286 0.0
C674 C 0.93138 0.90965 0.22727 0.0
C675 C 0.91255 0.88172 0.22412 0.0
C676 C 0.92155 0.93317 0.24846 0.0
C677 C 0.98181 0.94208 0.21589 0.0
C678 C 0.92215 0.92359 0.27592 0.0
C679 C 0.90961 0.94364 0.29617 0.0
C680 C 0.89603 0.97374 0.2894 0.0
C681 C 0.89681 0.984 0.26196 0.0
C682 C 0.9094 0.96376 0.24159 0.0
H683 H 0.00485 0.93986 0.20442 0.0
H684 H 0.96865 0.96364 0.20828 0.0
H685 H 0.98737 0.94622 0.23781 0.0
H686 H 0.93153 0.90008 0.2816 0.0
H687 H 0.9096 0.93502 0.31708 0.0
loop_
_geom_bond_atom_site_label_1
_geom_bond_atom_site_label_2
_geom_bond_distance
_geom_bond_site_symmetry_2
_ccdc_geom_bond_type
O0 Cd1 2.223 . S
O0 C8 1.315 . S
Cd1 O0 2.223 . S
Cd1 O4 2.297 . S
Cd1 O5 2.439 1_655 S
Cd1 O11 2.240 1_655 S
Cd2 O3 2.240 . S
Cd2 O10 2.223 . S
Cd2 O12 2.297 . S
Cd2 O13 2.439 . S
O3 Cd2 2.240 . S
O3 C8 1.279 1_455 S
O4 Cd1 2.297 . S
O4 C6 1.247 1_655 S
O5 Cd1 2.439 1_455 S
O5 C6 1.208 . S
C6 O4 1.247 1_455 S
C6 O5 1.208 . S
C7 O12 1.247 . S
C7 O13 1.208 . S
C8 O0 1.315 . S
C8 O3 1.279 1_655 S
C9 O10 1.315 . S
C9 O11 1.279 . S
O10 Cd2 2.223 . S
O10 C9 1.315 . S
O11 Cd1 2.240 1_455 S
O11 C9 1.279 . S
O12 Cd2 2.297 . S
O12 C7 1.247 . S
O13 Cd2 2.439 . S
O13 C7 1.208 . S
O14 Cd15 2.223 . S
O14 C22 1.315 . S
Cd15 O14 2.223 . S
Cd15 O18 2.297 . S
Cd15 O19 2.439 . S
Cd15 O25 2.240 . S
Cd16 O17 2.240 . S
Cd16 O24 2.223 . S
Cd16 O26 2.297 . S
Cd16 O27 2.439 . S
O17 Cd16 2.240 . S
O17 C22 1.279 . S
O18 Cd15 2.297 . S
O18 C20 1.247 . S
O19 Cd15 2.439 . S
O19 C20 1.208 . S
C20 O18 1.247 . S
C20 O19 1.208 . S
C21 O26 1.247 . S
C21 O27 1.208 . S
C22 O14 1.315 . S
C22 O17 1.279 . S
C23 O24 1.315 . S
C23 O25 1.279 . S
O24 Cd16 2.223 . S
O24 C23 1.315 . S
O25 Cd15 2.240 . S
O25 C23 1.279 . S
O26 Cd16 2.297 . S
O26 C21 1.247 . S
O27 Cd16 2.439 . S
O27 C21 1.208 . S
O28 Cd29 2.223 . S
O28 C36 1.315 . S
Cd29 O28 2.223 . S
Cd29 O32 2.297 . S
Cd29 O33 2.439 . S
Cd29 O39 2.240 . S
Cd30 O31 2.240 . S
Cd30 O38 2.223 . S
Cd30 O40 2.297 . S
Cd30 O41 2.439 . S
O31 Cd30 2.240 . S
O31 C36 1.279 . S
O32 Cd29 2.297 . S
O32 C34 1.247 . S
O33 Cd29 2.439 . S
O33 C34 1.208 . S
C34 O32 1.247 . S
C34 O33 1.208 . S
C35 O40 1.247 . S
C35 O41 1.208 . S
C36 O28 1.315 . S
C36 O31 1.279 . S
C37 O38 1.315 . S
C37 O39 1.279 . S
O38 Cd30 2.223 . S
O38 C37 1.315 . S
O39 Cd29 2.240 . S
O39 C37 1.279 . S
O40 Cd30 2.297 . S
O40 C35 1.247 . S
O41 Cd30 2.439 . S
O41 C35 1.208 . S
O42 Cd43 2.223 . S
O42 C50 1.315 . S
Cd43 O42 2.223 . S
Cd43 O46 2.297 . S
Cd43 O47 2.439 1_545 S
Cd43 O53 2.240 1_545 S
Cd44 O45 2.240 . S
Cd44 O52 2.223 . S
Cd44 O54 2.297 . S
Cd44 O55 2.439 . S
O45 Cd44 2.240 . S
O45 C50 1.279 1_565 S
O46 Cd43 2.297 . S
O46 C48 1.247 1_545 S
O47 Cd43 2.439 1_565 S
O47 C48 1.208 . S
C48 O46 1.247 1_565 S
C48 O47 1.208 . S
C49 O54 1.247 . S
C49 O55 1.208 . S
C50 O42 1.315 . S
C50 O45 1.279 1_545 S
C51 O52 1.315 . S
C51 O53 1.279 . S
O52 Cd44 2.223 . S
O52 C51 1.315 . S
O53 Cd43 2.240 1_565 S
O53 C51 1.279 . S
O54 Cd44 2.297 . S
O54 C49 1.247 . S
O55 Cd44 2.439 . S
O55 C49 1.208 . S
O56 Cd57 2.223 . S
O56 C64 1.315 . S
Cd57 O56 2.223 . S
Cd57 O60 2.297 . S
Cd57 O61 2.439 1_455 S
Cd57 O67 2.240 1_455 S
Cd58 O59 2.240 . S
Cd58 O66 2.223 . S
Cd58 O68 2.297 . S
Cd58 O69 2.439 . S
O59 Cd58 2.240 . S
O59 C64 1.279 1_655 S
O60 Cd57 2.297 . S
O60 C62 1.247 1_455 S
O61 Cd57 2.439 1_655 S
O61 C62 1.208 . S
C62 O60 1.247 1_655 S
C62 O61 1.208 . S
C63 O68 1.247 . S
C63 O69 1.208 . S
C64 O56 1.315 . S
C64 O59 1.279 1_455 S
C65 O66 1.315 . S
C65 O67 1.279 . S
O66 Cd58 2.223 . S
O66 C65 1.315 . S
O67 Cd57 2.240 1_655 S
O67 C65 1.279 . S
O68 Cd58 2.297 . S
O68 C63 1.247 . S
O69 Cd58 2.439 . S
O69 C63 1.208 . S
O70 Cd71 2.223 . S
O70 C78 1.315 . S
Cd71 O70 2.223 . S
Cd71 O74 2.297 . S
Cd71 O75 2.439 . S
Cd71 O81 2.240 . S
Cd72 O73 2.240 . S
Cd72 O80 2.223 . S
Cd72 O82 2.297 . S
Cd72 O83 2.439 . S
O73 Cd72 2.240 . S
O73 C78 1.279 . S
O74 Cd71 2.297 . S
O74 C76 1.247 . S
O75 Cd71 2.439 . S
O75 C76 1.208 . S
C76 O74 1.247 . S
C76 O75 1.208 . S
C77 O82 1.247 . S
C77 O83 1.208 . S
C78 O70 1.315 . S
C78 O73 1.279 . S
C79 O80 1.315 . S
C79 O81 1.279 . S
O80 Cd72 2.223 . S
O80 C79 1.315 . S
O81 Cd71 2.240 . S
O81 C79 1.279 . S
O82 Cd72 2.297 . S
O82 C77 1.247 . S
O83 Cd72 2.439 . S
O83 C77 1.208 . S
O84 Cd85 2.223 . S
O84 C92 1.315 . S
Cd85 O84 2.223 . S
Cd85 O88 2.297 . S
Cd85 O89 2.439 . S
Cd85 O95 2.240 . S
Cd86 O87 2.240 . S
Cd86 O94 2.223 . S
Cd86 O96 2.297 . S
Cd86 O97 2.439 . S
O87 Cd86 2.240 . S
O87 C92 1.279 . S
O88 Cd85 2.297 . S
O88 C90 1.247 . S
O89 Cd85 2.439 . S
O89 C90 1.208 . S
C90 O88 1.247 . S
C90 O89 1.208 . S
C91 O96 1.247 . S
C91 O97 1.208 . S
C92 O84 1.315 . S
C92 O87 1.279 . S
C93 O94 1.315 . S
C93 O95 1.279 . S
O94 Cd86 2.223 . S
O94 C93 1.315 . S
O95 Cd85 2.240 . S
O95 C93 1.279 . S
O96 Cd86 2.297 . S
O96 C91 1.247 . S
O97 Cd86 2.439 . S
O97 C91 1.208 . S
O98 Cd99 2.223 . S
O98 C106 1.315 . S
Cd99 O98 2.223 . S
Cd99 O102 2.297 . S
Cd99 O103 2.439 1_565 S
Cd99 O109 2.240 1_565 S
Cd100 O101 2.240 . S
Cd100 O108 2.223 . S
Cd100 O110 2.297 . S
Cd100 O111 2.439 . S
O101 Cd100 2.240 . S
O101 C106 1.279 1_545 S
O102 Cd99 2.297 . S
O102 C104 1.247 1_565 S
O103 Cd99 2.439 1_545 S
O103 C104 1.208 . S
C104 O102 1.247 1_545 S
C104 O103 1.208 . S
C105 O110 1.247 . S
C105 O111 1.208 . S
C106 O98 1.315 . S
C106 O101 1.279 1_565 S
C107 O108 1.315 . S
C107 O109 1.279 . S
O108 Cd100 2.223 . S
O108 C107 1.315 . S
O109 Cd99 2.240 1_545 S
O109 C107 1.279 . S
O110 Cd100 2.297 . S
O110 C105 1.247 . S
O111 Cd100 2.439 . S
O111 C105 1.208 . S
H112 C120 0.929 . S
H113 C122 0.930 . S
H114 C124 0.930 . S
H115 C127 0.929 . S
H116 C130 0.930 . S
H117 C132 0.960 . S
H118 C132 0.960 . S
H119 C132 0.960 . S
C120 H112 0.929 . S
C120 C121 1.377 . S
C120 C122 1.384 . S
C121 C120 1.377 . S
C121 C127 1.390 1_655 S
C122 H113 0.930 . S
C122 C120 1.384 . S
C122 C123 1.372 . S
C123 C122 1.372 . S
C123 C124 1.400 1_655 S
C123 C128 1.490 . S
C124 H114 0.930 . S
C124 C123 1.400 1_455 S
C124 C127 1.386 . S
H125 C141 0.930 . S
H126 C142 0.931 . S
C127 H115 0.929 . S
C127 C121 1.390 1_455 S
C127 C124 1.386 . S
C128 C123 1.490 . S
C128 C130 1.395 . S
C128 C131 1.403 1_655 S
H129 C135 0.930 . S
C130 H116 0.930 . S
C130 C128 1.395 . S
C130 C133 1.403 1_556 S
C131 C128 1.403 1_455 S
C131 C132 1.524 . S
C131 C135 1.400 1_556 S
C132 H117 0.960 . S
C132 H118 0.960 . S
C132 H119 0.960 . S
C132 C131 1.524 . S
C133 C130 1.403 1_554 S
C133 C134 1.392 . S
C133 C137 1.495 . S
C134 C133 1.392 . S
C134 C135 1.385 1_655 S
C134 C136 1.478 . S
C135 H129 0.930 . S
C135 C131 1.400 1_554 S
C135 C134 1.385 1_455 S
C136 C134 1.478 . S
C136 C138 1.381 . S
C136 C142 1.383 1_655 S
C137 C133 1.495 . S
C137 H143 0.959 . S
C137 H144 0.961 . S
C137 H145 0.960 . S
C138 C136 1.381 . S
C138 C139 1.394 . S
C138 H146 0.930 . S
C139 C138 1.394 . S
C139 C140 1.383 1_655 S
C139 H147 0.929 . S
C140 C139 1.383 1_455 S
C140 C141 1.377 . S
C141 H125 0.930 . S
C141 C140 1.377 . S
C141 C142 1.379 . S
C142 H126 0.931 . S
C142 C136 1.383 1_455 S
C142 C141 1.379 . S
H143 C137 0.959 . S
H144 C137 0.961 . S
H145 C137 0.960 . S
H146 C138 0.930 . S
H147 C139 0.929 . S
H148 C156 0.929 . S
H149 C158 0.930 . S
H150 C160 0.930 . S
H151 C163 0.929 . S
H152 C166 0.930 . S
H153 C168 0.960 . S
H154 C168 0.960 . S
H155 C168 0.960 . S
C156 H148 0.929 . S
C156 C157 1.377 . S
C156 C158 1.384 . S
C157 C156 1.377 . S
C157 C163 1.390 . S
C158 H149 0.930 . S
C158 C156 1.384 . S
C158 C159 1.372 . S
C159 C158 1.372 . S
C159 C160 1.400 . S
C159 C164 1.490 . S
C160 H150 0.930 . S
C160 C159 1.400 . S
C160 C163 1.386 . S
H161 C177 0.930 . S
H162 C178 0.931 . S
C163 H151 0.929 . S
C163 C157 1.390 . S
C163 C160 1.386 . S
C164 C159 1.490 . S
C164 C166 1.395 . S
C164 C167 1.403 . S
H165 C171 0.930 . S
C166 H152 0.930 . S
C166 C164 1.395 . S
C166 C169 1.403 . S
C167 C164 1.403 . S
C167 C168 1.524 . S
C167 C171 1.400 . S
C168 H153 0.960 . S
C168 H154 0.960 . S
C168 H155 0.960 . S
C168 C167 1.524 . S
C169 C166 1.403 . S
C169 C170 1.392 . S
C169 C173 1.495 . S
C170 C169 1.392 . S
C170 C171 1.385 . S
C170 C172 1.478 . S
C171 H165 0.930 . S
C171 C167 1.400 . S
C171 C170 1.385 . S
C172 C170 1.478 . S
C172 C174 1.381 . S
C172 C178 1.383 . S
C173 C169 1.495 . S
C173 H179 0.959 . S
C173 H180 0.961 . S
C173 H181 0.960 . S
C174 C172 1.381 . S
C174 C175 1.394 . S
C174 H182 0.930 . S
C175 C174 1.394 . S
C175 C176 1.383 . S
C175 H183 0.929 . S
C176 C175 1.383 . S
C176 C177 1.377 . S
C177 H161 0.930 . S
C177 C176 1.377 . S
C177 C178 1.379 . S
C178 H162 0.931 . S
C178 C172 1.383 . S
C178 C177 1.379 . S
H179 C173 0.959 . S
H180 C173 0.961 . S
H181 C173 0.960 . S
H182 C174 0.930 . S
H183 C175 0.929 . S
H184 C192 0.929 . S
H185 C194 0.930 . S
H186 C196 0.930 . S
H187 C199 0.929 . S
H188 C202 0.930 . S
H189 C204 0.960 . S
H190 C204 0.960 . S
H191 C204 0.960 1_565 S
C192 H184 0.929 . S
C192 C193 1.377 . S
C192 C194 1.384 . S
C193 C192 1.377 . S
C193 C199 1.390 . S
C194 H185 0.930 . S
C194 C192 1.384 . S
C194 C195 1.372 . S
C195 C194 1.372 . S
C195 C196 1.400 . S
C195 C200 1.490 . S
C196 H186 0.930 . S
C196 C195 1.400 . S
C196 C199 1.386 . S
H197 C213 0.930 . S
H198 C214 0.931 . S
C199 H187 0.929 . S
C199 C193 1.390 . S
C199 C196 1.386 . S
C200 C195 1.490 . S
C200 C202 1.395 . S
C200 C203 1.407 . S
H201 C207 0.930 . S
C202 H188 0.930 . S
C202 C200 1.395 . S
C202 C205 1.384 1_564 S
C203 C200 1.407 . S
C203 C204 1.523 1_565 S
C203 C207 1.396 1_564 S
C204 H189 0.960 . S
C204 H190 0.960 . S
C204 H191 0.960 1_545 S
C204 C203 1.523 1_545 S
C205 C202 1.384 1_546 S
C205 C206 1.412 . S
C205 C209 1.495 . S
C206 C205 1.412 . S
C206 C207 1.385 . S
C206 C208 1.478 . S
C207 H201 0.930 . S
C207 C203 1.396 1_546 S
C207 C206 1.385 . S
C208 C206 1.478 . S
C208 C210 1.381 . S
C208 C214 1.383 . S
C209 C205 1.495 . S
C209 H215 0.948 1_545 S
C209 H216 0.956 1_545 S
C209 H217 0.977 . S
C210 C208 1.381 . S
C210 C211 1.394 . S
C210 H218 0.930 . S
C211 C210 1.394 . S
C211 C212 1.383 . S
C211 H219 0.929 . S
C212 C211 1.383 . S
C212 C213 1.377 . S
C213 H197 0.930 . S
C213 C212 1.377 . S
C213 C214 1.379 . S
C214 H198 0.931 . S
C214 C208 1.383 . S
C214 C213 1.379 . S
H215 C209 0.948 1_565 S
H216 C209 0.956 1_565 S
H217 C209 0.977 . S
H218 C210 0.930 . S
H219 C211 0.929 . S
H220 C228 0.929 . S
H221 C230 0.930 . S
H222 C232 0.930 . S
H223 C235 0.929 . S
H224 C238 0.930 . S
H225 C240 0.960 . S
H226 C240 0.960 . S
H227 C240 0.960 . S
C228 H220 0.929 . S
C228 C229 1.377 1_565 S
C228 C230 1.384 . S
C229 C228 1.377 1_545 S
C229 C235 1.390 . S
C230 H221 0.930 . S
C230 C228 1.384 . S
C230 C231 1.372 1_565 S
C231 C230 1.372 1_545 S
C231 C232 1.400 . S
C231 C236 1.490 . S
C232 H222 0.930 . S
C232 C231 1.400 . S
C232 C235 1.386 . S
H233 C249 0.930 . S
H234 C250 0.931 . S
C235 H223 0.929 . S
C235 C229 1.390 . S
C235 C232 1.386 . S
C236 C231 1.490 . S
C236 C238 1.395 1_655 S
C236 C239 1.403 1_545 S
H237 C243 0.930 . S
C238 H224 0.930 . S
C238 C236 1.395 1_455 S
C238 C241 1.403 . S
C239 C236 1.403 1_565 S
C239 C240 1.524 . S
C239 C243 1.400 . S
C240 H225 0.960 . S
C240 H226 0.960 . S
C240 H227 0.960 . S
C240 C239 1.524 . S
C241 C238 1.403 . S
C241 C242 1.386 1_545 S
C241 C245 1.495 . S
C242 C241 1.386 1_565 S
C242 C243 1.391 1_455 S
C242 C244 1.478 . S
C243 H237 0.930 . S
C243 C239 1.400 . S
C243 C242 1.391 1_655 S
C244 C242 1.478 . S
C244 C246 1.381 . S
C244 C250 1.383 1_565 S
C245 C241 1.495 . S
C245 H251 0.959 . S
C245 H252 0.961 . S
C245 H253 0.960 . S
C246 C244 1.381 . S
C246 C247 1.394 . S
C246 H254 0.930 . S
C247 C246 1.394 . S
C247 C248 1.383 . S
C247 H255 0.929 . S
C248 C247 1.383 . S
C248 C249 1.377 1_565 S
C249 H233 0.930 . S
C249 C248 1.377 1_545 S
C249 C250 1.379 . S
C250 H234 0.931 . S
C250 C244 1.383 1_545 S
C250 C249 1.379 . S
H251 C245 0.959 . S
H252 C245 0.961 . S
H253 C245 0.960 . S
H254 C246 0.930 . S
H255 C247 0.929 . S
H256 C264 0.929 . S
H257 C266 0.930 . S
H258 C268 0.930 . S
H259 C271 0.929 . S
H260 C274 0.930 . S
H261 C276 0.960 . S
H262 C276 0.960 . S
H263 C276 0.960 . S
C264 H256 0.929 . S
C264 C265 1.377 . S
C264 C266 1.384 . S
C265 C264 1.377 . S
C265 C271 1.390 . S
C266 H257 0.930 . S
C266 C264 1.384 . S
C266 C267 1.372 . S
C267 C266 1.372 . S
C267 C268 1.400 . S
C267 C272 1.490 . S
C268 H258 0.930 . S
C268 C267 1.400 . S
C268 C271 1.386 . S
H269 C285 0.930 . S
H270 C286 0.931 . S
C271 H259 0.929 . S
C271 C265 1.390 . S
C271 C268 1.386 . S
C272 C267 1.490 . S
C272 C274 1.395 . S
C272 C275 1.403 . S
H273 C279 0.930 . S
C274 H260 0.930 . S
C274 C272 1.395 . S
C274 C277 1.403 . S
C275 C272 1.403 . S
C275 C276 1.524 . S
C275 C279 1.400 . S
C276 H261 0.960 . S
C276 H262 0.960 . S
C276 H263 0.960 . S
C276 C275 1.524 . S
C277 C274 1.403 . S
C277 C278 1.392 . S
C277 C281 1.495 . S
C278 C277 1.392 . S
C278 C279 1.385 . S
C278 C280 1.478 . S
C279 H273 0.930 . S
C279 C275 1.400 . S
C279 C278 1.385 . S
C280 C278 1.478 . S
C280 C282 1.381 . S
C280 C286 1.383 . S
C281 C277 1.495 . S
C281 H287 0.959 . S
C281 H288 0.961 . S
C281 H289 0.960 . S
C282 C280 1.381 . S
C282 C283 1.394 . S
C282 H290 0.930 . S
C283 C282 1.394 . S
C283 C284 1.383 . S
C283 H291 0.929 . S
C284 C283 1.383 . S
C284 C285 1.377 . S
C285 H269 0.930 . S
C285 C284 1.377 . S
C285 C286 1.379 . S
C286 H270 0.931 . S
C286 C280 1.383 . S
C286 C285 1.379 . S
H287 C281 0.959 . S
H288 C281 0.961 . S
H289 C281 0.960 . S
H290 C282 0.930 . S
H291 C283 0.929 . S
H292 C300 0.929 . S
H293 C302 0.930 . S
H294 C304 0.930 . S
H295 C307 0.929 . S
H296 C310 0.930 . S
H297 C312 0.960 . S
H298 C312 0.960 . S
H299 C312 0.960 . S
C300 H292 0.929 . S
C300 C301 1.377 . S
C300 C302 1.384 . S
C301 C300 1.377 . S
C301 C307 1.390 . S
C302 H293 0.930 . S
C302 C300 1.384 . S
C302 C303 1.372 . S
C303 C302 1.372 . S
C303 C304 1.400 . S
C303 C308 1.490 . S
C304 H294 0.930 . S
C304 C303 1.400 . S
C304 C307 1.386 . S
H305 C321 0.930 . S
H306 C322 0.931 . S
C307 H295 0.929 . S
C307 C301 1.390 . S
C307 C304 1.386 . S
C308 C303 1.490 . S
C308 C310 1.395 . S
C308 C311 1.403 . S
H309 C315 0.930 . S
C310 H296 0.930 . S
C310 C308 1.395 . S
C310 C313 1.403 . S
C311 C308 1.403 . S
C311 C312 1.524 . S
C311 C315 1.400 . S
C312 H297 0.960 . S
C312 H298 0.960 . S
C312 H299 0.960 . S
C312 C311 1.524 . S
C313 C310 1.403 . S
C313 C314 1.392 . S
C313 C317 1.495 . S
C314 C313 1.392 . S
C314 C315 1.385 . S
C314 C316 1.478 . S
C315 H309 0.930 . S
C315 C311 1.400 . S
C315 C314 1.385 . S
C316 C314 1.478 . S
C316 C318 1.381 . S
C316 C322 1.383 . S
C317 C313 1.495 . S
C317 H323 0.959 . S
C317 H324 0.961 . S
C317 H325 0.960 . S
C318 C316 1.381 . S
C318 C319 1.394 . S
C318 H326 0.930 . S
C319 C318 1.394 . S
C319 C320 1.383 . S
C319 H327 0.929 . S
C320 C319 1.383 . S
C320 C321 1.377 . S
C321 H305 0.930 . S
C321 C320 1.377 . S
C321 C322 1.379 . S
C322 H306 0.931 . S
C322 C316 1.383 . S
C322 C321 1.379 . S
H323 C317 0.959 . S
H324 C317 0.961 . S
H325 C317 0.960 . S
H326 C318 0.930 . S
H327 C319 0.929 . S
H328 C336 0.929 . S
H329 C338 0.930 . S
H330 C340 0.930 . S
H331 C343 0.929 . S
H332 C346 0.930 . S
H333 C348 0.960 . S
H334 C348 0.960 . S
H335 C348 0.960 . S
C336 H328 0.929 . S
C336 C337 1.377 . S
C336 C338 1.384 . S
C337 C336 1.377 . S
C337 C343 1.390 . S
C338 H329 0.930 . S
C338 C336 1.384 . S
C338 C339 1.372 . S
C339 C338 1.372 . S
C339 C340 1.400 . S
C339 C344 1.490 . S
C340 H330 0.930 . S
C340 C339 1.400 . S
C340 C343 1.386 . S
H341 C357 0.930 . S
H342 C358 0.931 . S
C343 H331 0.929 . S
C343 C337 1.390 . S
C343 C340 1.386 . S
C344 C339 1.490 . S
C344 C346 1.395 . S
C344 C347 1.403 . S
H345 C351 0.930 . S
C346 H332 0.930 . S
C346 C344 1.395 . S
C346 C349 1.403 . S
C347 C344 1.403 . S
C347 C348 1.524 . S
C347 C351 1.400 . S
C348 H333 0.960 . S
C348 H334 0.960 . S
C348 H335 0.960 . S
C348 C347 1.524 . S
C349 C346 1.403 . S
C349 C350 1.392 . S
C349 C353 1.495 . S
C350 C349 1.392 . S
C350 C351 1.385 . S
C350 C352 1.478 . S
C351 H345 0.930 . S
C351 C347 1.400 . S
C351 C350 1.385 . S
C352 C350 1.478 . S
C352 C354 1.381 . S
C352 C358 1.383 . S
C353 C349 1.495 . S
C353 H359 0.959 . S
C353 H360 0.961 . S
C353 H361 0.960 . S
C354 C352 1.381 . S
C354 C355 1.394 . S
C354 H362 0.930 . S
C355 C354 1.394 . S
C355 C356 1.383 . S
C355 H363 0.929 . S
C356 C355 1.383 . S
C356 C357 1.377 . S
C357 H341 0.930 . S
C357 C356 1.377 . S
C357 C358 1.379 . S
C358 H342 0.931 . S
C358 C352 1.383 . S
C358 C357 1.379 . S
H359 C353 0.959 . S
H360 C353 0.961 . S
H361 C353 0.960 . S
H362 C354 0.930 . S
H363 C355 0.929 . S
H364 C372 0.929 . S
H365 C374 0.930 . S
H366 C376 0.930 . S
H367 C379 0.929 . S
H368 C382 0.930 . S
H369 C384 0.960 . S
H370 C384 0.960 . S
H371 C384 0.960 . S
C372 H364 0.929 . S
C372 C373 1.377 . S
C372 C374 1.384 . S
C373 C372 1.377 . S
C373 C379 1.390 . S
C374 H365 0.930 . S
C374 C372 1.384 . S
C374 C375 1.372 . S
C375 C374 1.372 . S
C375 C376 1.400 . S
C375 C380 1.490 . S
C376 H366 0.930 . S
C376 C375 1.400 . S
C376 C379 1.386 . S
H377 C393 0.930 . S
H378 C394 0.931 . S
C379 H367 0.929 . S
C379 C373 1.390 . S
C379 C376 1.386 . S
C380 C375 1.490 . S
C380 C382 1.395 . S
C380 C383 1.403 . S
H381 C387 0.930 . S
C382 H368 0.930 . S
C382 C380 1.395 . S
C382 C385 1.403 . S
C383 C380 1.403 . S
C383 C384 1.524 . S
C383 C387 1.400 . S
C384 H369 0.960 . S
C384 H370 0.960 . S
C384 H371 0.960 . S
C384 C383 1.524 . S
C385 C382 1.403 . S
C385 C386 1.392 . S
C385 C389 1.495 . S
C386 C385 1.392 . S
C386 C387 1.385 . S
C386 C388 1.478 . S
C387 H381 0.930 . S
C387 C383 1.400 . S
C387 C386 1.385 . S
C388 C386 1.478 . S
C388 C390 1.381 . S
C388 C394 1.383 . S
C389 C385 1.495 . S
C389 H395 0.959 . S
C389 H396 0.961 . S
C389 H397 0.960 . S
C390 C388 1.381 . S
C390 C391 1.394 . S
C390 H398 0.930 . S
C391 C390 1.394 . S
C391 C392 1.383 . S
C391 H399 0.929 . S
C392 C391 1.383 . S
C392 C393 1.377 . S
C393 H377 0.930 . S
C393 C392 1.377 . S
C393 C394 1.379 . S
C394 H378 0.931 . S
C394 C388 1.383 . S
C394 C393 1.379 . S
H395 C389 0.959 . S
H396 C389 0.961 . S
H397 C389 0.960 . S
H398 C390 0.930 . S
H399 C391 0.929 . S
H400 C408 0.929 . S
H401 C410 0.930 . S
H402 C412 0.930 . S
H403 C415 0.929 . S
H404 C418 0.930 . S
H405 C420 0.960 . S
H406 C420 0.960 . S
H407 C420 0.960 . S
C408 H400 0.929 . S
C408 C409 1.377 . S
C408 C410 1.384 . S
C409 C408 1.377 . S
C409 C415 1.390 . S
C410 H401 0.930 . S
C410 C408 1.384 . S
C410 C411 1.372 . S
C411 C410 1.372 . S
C411 C412 1.400 . S
C411 C416 1.490 . S
C412 H402 0.930 . S
C412 C411 1.400 . S
C412 C415 1.386 . S
H413 C429 0.930 . S
H414 C430 0.931 . S
C415 H403 0.929 . S
C415 C409 1.390 . S
C415 C412 1.386 . S
C416 C411 1.490 . S
C416 C418 1.395 . S
C416 C419 1.403 . S
H417 C423 0.930 . S
C418 H404 0.930 . S
C418 C416 1.395 . S
C418 C421 1.403 . S
C419 C416 1.403 . S
C419 C420 1.524 . S
C419 C423 1.400 . S
C420 H405 0.960 . S
C420 H406 0.960 . S
C420 H407 0.960 . S
C420 C419 1.524 . S
C421 C418 1.403 . S
C421 C422 1.392 . S
C421 C425 1.495 . S
C422 C421 1.392 . S
C422 C423 1.385 . S
C422 C424 1.478 . S
C423 H417 0.930 . S
C423 C419 1.400 . S
C423 C422 1.385 . S
C424 C422 1.478 . S
C424 C426 1.381 . S
C424 C430 1.383 . S
C425 C421 1.495 . S
C425 H431 0.959 . S
C425 H432 0.961 . S
C425 H433 0.960 . S
C426 C424 1.381 . S
C426 C427 1.394 . S
C426 H434 0.930 . S
C427 C426 1.394 . S
C427 C428 1.383 . S
C427 H435 0.929 . S
C428 C427 1.383 . S
C428 C429 1.377 . S
C429 H413 0.930 . S
C429 C428 1.377 . S
C429 C430 1.379 . S
C430 H414 0.931 . S
C430 C424 1.383 . S
C430 C429 1.379 . S
H431 C425 0.959 . S
H432 C425 0.961 . S
H433 C425 0.960 . S
H434 C426 0.930 . S
H435 C427 0.929 . S
H436 C444 0.929 . S
H437 C446 0.930 . S
H438 C448 0.930 . S
H439 C451 0.929 . S
H440 C454 0.930 . S
H441 C456 0.960 . S
H442 C456 0.960 . S
H443 C456 0.960 . S
C444 H436 0.929 . S
C444 C445 1.377 . S
C444 C446 1.384 . S
C445 C444 1.377 . S
C445 C451 1.390 . S
C446 H437 0.930 . S
C446 C444 1.384 . S
C446 C447 1.372 . S
C447 C446 1.372 . S
C447 C448 1.400 . S
C447 C452 1.490 . S
C448 H438 0.930 . S
C448 C447 1.400 . S
C448 C451 1.386 . S
H449 C465 0.930 . S
H450 C466 0.931 . S
C451 H439 0.929 . S
C451 C445 1.390 . S
C451 C448 1.386 . S
C452 C447 1.490 . S
C452 C454 1.395 . S
C452 C455 1.403 . S
H453 C459 0.930 . S
C454 H440 0.930 . S
C454 C452 1.395 . S
C454 C457 1.403 . S
C455 C452 1.403 . S
C455 C456 1.524 . S
C455 C459 1.400 . S
C456 H441 0.960 . S
C456 H442 0.960 . S
C456 H443 0.960 . S
C456 C455 1.524 . S
C457 C454 1.403 . S
C457 C458 1.392 . S
C457 C461 1.495 . S
C458 C457 1.392 . S
C458 C459 1.385 . S
C458 C460 1.478 . S
C459 H453 0.930 . S
C459 C455 1.400 . S
C459 C458 1.385 . S
C460 C458 1.478 . S
C460 C462 1.381 . S
C460 C466 1.383 . S
C461 C457 1.495 . S
C461 H467 0.959 . S
C461 H468 0.961 . S
C461 H469 0.960 . S
C462 C460 1.381 . S
C462 C463 1.394 . S
C462 H470 0.930 . S
C463 C462 1.394 . S
C463 C464 1.383 . S
C463 H471 0.929 . S
C464 C463 1.383 . S
C464 C465 1.377 . S
C465 H449 0.930 . S
C465 C464 1.377 . S
C465 C466 1.379 . S
C466 H450 0.931 . S
C466 C460 1.383 . S
C466 C465 1.379 . S
H467 C461 0.959 . S
H468 C461 0.961 . S
H469 C461 0.960 . S
H470 C462 0.930 . S
H471 C463 0.929 . S
H472 C480 0.929 . S
H473 C482 0.930 . S
H474 C484 0.930 . S
H475 C487 0.929 . S
H476 C490 0.930 . S
H477 C492 0.960 . S
H478 C492 0.960 . S
H479 C492 0.960 . S
C480 H472 0.929 . S
C480 C481 1.377 . S
C480 C482 1.384 . S
C481 C480 1.377 . S
C481 C487 1.390 . S
C482 H473 0.930 . S
C482 C480 1.384 . S
C482 C483 1.372 . S
C483 C482 1.372 . S
C483 C484 1.400 . S
C483 C488 1.490 . S
C484 H474 0.930 . S
C484 C483 1.400 . S
C484 C487 1.386 . S
H485 C501 0.930 . S
H486 C502 0.931 1_545 S
C487 H475 0.929 . S
C487 C481 1.390 . S
C487 C484 1.386 . S
C488 C483 1.490 . S
C488 C490 1.395 . S
C488 C491 1.403 . S
H489 C495 0.930 . S
C490 H476 0.930 . S
C490 C488 1.395 . S
C490 C493 1.403 . S
C491 C488 1.403 . S
C491 C492 1.524 . S
C491 C495 1.400 . S
C492 H477 0.960 . S
C492 H478 0.960 . S
C492 H479 0.960 . S
C492 C491 1.524 . S
C493 C490 1.403 . S
C493 C494 1.392 . S
C493 C497 1.495 . S
C494 C493 1.392 . S
C494 C495 1.385 . S
C494 C496 1.478 . S
C495 H489 0.930 . S
C495 C491 1.400 . S
C495 C494 1.385 . S
C496 C494 1.478 . S
C496 C498 1.381 . S
C496 C502 1.383 . S
C497 C493 1.495 . S
C497 H503 0.959 . S
C497 H504 0.961 . S
C497 H505 0.960 . S
C498 C496 1.381 . S
C498 C499 1.394 . S
C498 H506 0.930 . S
C499 C498 1.394 . S
C499 C500 1.383 . S
C499 H507 0.929 . S
C500 C499 1.383 . S
C500 C501 1.377 1_565 S
C501 H485 0.930 . S
C501 C500 1.377 1_545 S
C501 C502 1.379 1_545 S
C502 H486 0.931 1_565 S
C502 C496 1.383 . S
C502 C501 1.379 1_565 S
H503 C497 0.959 . S
H504 C497 0.961 . S
H505 C497 0.960 . S
H506 C498 0.930 . S
H507 C499 0.929 . S
H508 C516 0.929 . S
H509 C518 0.930 . S
H510 C520 0.930 1_655 S
H511 C523 0.929 . S
H512 C526 0.930 . S
H513 C528 0.960 . S
H514 C528 0.960 . S
H515 C528 0.960 . S
C516 H508 0.929 . S
C516 C517 1.377 . S
C516 C518 1.384 . S
C517 C516 1.377 . S
C517 C523 1.390 1_455 S
C518 H509 0.930 . S
C518 C516 1.384 . S
C518 C519 1.372 . S
C519 C518 1.372 . S
C519 C520 1.400 . S
C519 C524 1.490 . S
C520 H510 0.930 1_455 S
C520 C519 1.400 . S
C520 C523 1.386 1_455 S
H521 C537 0.930 . S
H522 C538 0.931 . S
C523 H511 0.929 . S
C523 C517 1.390 1_655 S
C523 C520 1.386 1_655 S
C524 C519 1.490 . S
C524 C526 1.395 . S
C524 C527 1.403 . S
H525 C531 0.930 . S
C526 H512 0.930 . S
C526 C524 1.395 . S
C526 C529 1.403 . S
C527 C524 1.403 . S
C527 C528 1.524 . S
C527 C531 1.400 . S
C528 H513 0.960 . S
C528 H514 0.960 . S
C528 H515 0.960 . S
C528 C527 1.524 . S
C529 C526 1.403 . S
C529 C530 1.392 . S
C529 C533 1.495 . S
C530 C529 1.392 . S
C530 C531 1.385 . S
C530 C532 1.478 . S
C531 H525 0.930 . S
C531 C527 1.400 . S
C531 C530 1.385 . S
C532 C530 1.478 . S
C532 C534 1.381 . S
C532 C538 1.383 . S
C533 C529 1.495 . S
C533 H539 0.959 . S
C533 H540 0.961 . S
C533 H541 0.960 . S
C534 C532 1.381 . S
C534 C535 1.394 . S
C534 H542 0.930 . S
C535 C534 1.394 . S
C535 C536 1.383 . S
C535 H543 0.929 . S
C536 C535 1.383 . S
C536 C537 1.377 . S
C537 H521 0.930 . S
C537 C536 1.377 . S
C537 C538 1.379 . S
C538 H522 0.931 . S
C538 C532 1.383 . S
C538 C537 1.379 . S
H539 C533 0.959 . S
H540 C533 0.961 . S
H541 C533 0.960 . S
H542 C534 0.930 . S
H543 C535 0.929 . S
H544 C552 0.929 . S
H545 C554 0.930 . S
H546 C556 0.930 . S
H547 C559 0.929 . S
H548 C562 0.930 . S
H549 C564 0.960 . S
H550 C564 0.960 . S
H551 C564 0.960 . S
C552 H544 0.929 . S
C552 C553 1.377 . S
C552 C554 1.384 . S
C553 C552 1.377 . S
C553 C559 1.390 . S
C554 H545 0.930 . S
C554 C552 1.384 . S
C554 C555 1.372 . S
C555 C554 1.372 . S
C555 C556 1.400 . S
C555 C560 1.490 . S
C556 H546 0.930 . S
C556 C555 1.400 . S
C556 C559 1.386 . S
H557 C573 0.930 . S
H558 C574 0.931 . S
C559 H547 0.929 . S
C559 C553 1.390 . S
C559 C556 1.386 . S
C560 C555 1.490 . S
C560 C562 1.395 . S
C560 C563 1.403 . S
H561 C567 0.930 . S
C562 H548 0.930 . S
C562 C560 1.395 . S
C562 C565 1.403 . S
C563 C560 1.403 . S
C563 C564 1.524 . S
C563 C567 1.400 . S
C564 H549 0.960 . S
C564 H550 0.960 . S
C564 H551 0.960 . S
C564 C563 1.524 . S
C565 C562 1.403 . S
C565 C566 1.392 . S
C565 C569 1.495 . S
C566 C565 1.392 . S
C566 C567 1.385 . S
C566 C568 1.478 . S
C567 H561 0.930 . S
C567 C563 1.400 . S
C567 C566 1.385 . S
C568 C566 1.478 . S
C568 C570 1.381 . S
C568 C574 1.383 . S
C569 C565 1.495 . S
C569 H575 0.959 . S
C569 H576 0.961 . S
C569 H577 0.960 . S
C570 C568 1.381 . S
C570 C571 1.394 . S
C570 H578 0.930 . S
C571 C570 1.394 . S
C571 C572 1.383 . S
C571 H579 0.929 . S
C572 C571 1.383 . S
C572 C573 1.377 . S
C573 H557 0.930 . S
C573 C572 1.377 . S
C573 C574 1.379 . S
C574 H558 0.931 . S
C574 C568 1.383 . S
C574 C573 1.379 . S
H575 C569 0.959 . S
H576 C569 0.961 . S
H577 C569 0.960 . S
H578 C570 0.930 . S
H579 C571 0.929 . S
H580 C588 0.929 . S
H581 C590 0.930 . S
H582 C592 0.930 . S
H583 C595 0.929 . S
H584 C598 0.930 . S
H585 C600 0.960 . S
H586 C600 0.960 . S
H587 C600 0.960 . S
C588 H580 0.929 . S
C588 C589 1.377 . S
C588 C590 1.384 . S
C589 C588 1.377 . S
C589 C595 1.390 . S
C590 H581 0.930 . S
C590 C588 1.384 . S
C590 C591 1.372 . S
C591 C590 1.372 . S
C591 C592 1.400 . S
C591 C596 1.490 . S
C592 H582 0.930 . S
C592 C591 1.400 . S
C592 C595 1.386 . S
H593 C609 0.930 . S
H594 C610 0.931 . S
C595 H583 0.929 . S
C595 C589 1.390 . S
C595 C592 1.386 . S
C596 C591 1.490 . S
C596 C598 1.395 . S
C596 C599 1.403 . S
H597 C603 0.930 . S
C598 H584 0.930 . S
C598 C596 1.395 . S
C598 C601 1.403 . S
C599 C596 1.403 . S
C599 C600 1.524 . S
C599 C603 1.400 . S
C600 H585 0.960 . S
C600 H586 0.960 . S
C600 H587 0.960 . S
C600 C599 1.524 . S
C601 C598 1.403 . S
C601 C602 1.392 . S
C601 C605 1.495 . S
C602 C601 1.392 . S
C602 C603 1.385 . S
C602 C604 1.478 . S
C603 H597 0.930 . S
C603 C599 1.400 . S
C603 C602 1.385 . S
C604 C602 1.478 . S
C604 C606 1.381 . S
C604 C610 1.383 . S
C605 C601 1.495 . S
C605 H611 0.959 . S
C605 H612 0.961 . S
C605 H613 0.960 . S
C606 C604 1.381 . S
C606 C607 1.394 . S
C606 H614 0.930 . S
C607 C606 1.394 . S
C607 C608 1.383 . S
C607 H615 0.929 . S
C608 C607 1.383 . S
C608 C609 1.377 . S
C609 H593 0.930 . S
C609 C608 1.377 . S
C609 C610 1.379 . S
C610 H594 0.931 . S
C610 C604 1.383 . S
C610 C609 1.379 . S
H611 C605 0.959 . S
H612 C605 0.961 . S
H613 C605 0.960 . S
H614 C606 0.930 . S
H615 C607 0.929 . S
H616 C624 0.929 . S
H617 C626 0.930 . S
H618 C628 0.930 . S
H619 C631 0.929 . S
H620 C634 0.930 . S
H621 C636 0.960 1_565 S
H622 C636 0.960 . S
H623 C636 0.960 . S
C624 H616 0.929 . S
C624 C625 1.377 . S
C624 C626 1.384 . S
C625 C624 1.377 . S
C625 C631 1.390 . S
C626 H617 0.930 . S
C626 C624 1.384 . S
C626 C627 1.372 . S
C627 C626 1.372 . S
C627 C628 1.400 . S
C627 C632 1.490 . S
C628 H618 0.930 . S
C628 C627 1.400 . S
C628 C631 1.386 . S
H629 C645 0.930 1_565 S
H630 C646 0.931 . S
C631 H619 0.929 . S
C631 C625 1.390 . S
C631 C628 1.386 . S
C632 C627 1.490 . S
C632 C634 1.395 . S
C632 C635 1.403 . S
H633 C639 0.930 . S
C634 H620 0.930 . S
C634 C632 1.395 . S
C634 C637 1.403 . S
C635 C632 1.403 . S
C635 C636 1.524 . S
C635 C639 1.400 . S
C636 H621 0.960 1_545 S
C636 H622 0.960 . S
C636 H623 0.960 . S
C636 C635 1.524 . S
C637 C634 1.403 . S
C637 C638 1.392 . S
C637 C641 1.495 . S
C638 C637 1.392 . S
C638 C639 1.385 . S
C638 C640 1.478 . S
C639 H633 0.930 . S
C639 C635 1.400 . S
C639 C638 1.385 . S
C640 C638 1.478 . S
C640 C642 1.381 . S
C640 C646 1.383 . S
C641 C637 1.495 . S
C641 H647 0.959 . S
C641 H648 0.961 . S
C641 H649 0.960 . S
C642 C640 1.381 . S
C642 C643 1.394 . S
C642 H650 0.930 . S
C643 C642 1.394 . S
C643 C644 1.383 . S
C643 H651 0.929 . S
C644 C643 1.383 . S
C644 C645 1.377 . S
C645 H629 0.930 1_545 S
C645 C644 1.377 . S
C645 C646 1.379 . S
C646 H630 0.931 . S
C646 C640 1.383 . S
C646 C645 1.379 . S
H647 C641 0.959 . S
H648 C641 0.961 . S
H649 C641 0.960 . S
H650 C642 0.930 . S
H651 C643 0.929 . S
H652 C660 0.925 1_455 S
H653 C662 0.930 . S
H654 C664 0.930 . S
H655 C667 0.929 . S
H656 C670 0.930 . S
H657 C672 0.960 . S
H658 C672 0.960 . S
H659 C672 0.960 . S
C660 H652 0.925 1_655 S
C660 C661 1.380 . S
C660 C662 1.386 . S
C661 C660 1.380 . S
C661 C667 1.390 . S
C662 H653 0.930 . S
C662 C660 1.386 . S
C662 C663 1.372 . S
C663 C662 1.372 . S
C663 C664 1.400 . S
C663 C668 1.490 . S
C664 H654 0.930 . S
C664 C663 1.400 . S
C664 C667 1.386 . S
H665 C681 0.930 . S
H666 C682 0.931 . S
C667 H655 0.929 . S
C667 C661 1.390 . S
C667 C664 1.386 . S
C668 C663 1.490 . S
C668 C670 1.395 . S
C668 C671 1.403 . S
H669 C675 0.930 . S
C670 H656 0.930 . S
C670 C668 1.395 . S
C670 C673 1.403 . S
C671 C668 1.403 . S
C671 C672 1.524 . S
C671 C675 1.400 . S
C672 H657 0.960 . S
C672 H658 0.960 . S
C672 H659 0.960 . S
C672 C671 1.524 . S
C673 C670 1.403 . S
C673 C674 1.392 . S
C673 C677 1.495 . S
C674 C673 1.392 . S
C674 C675 1.385 . S
C674 C676 1.478 . S
C675 H669 0.930 . S
C675 C671 1.400 . S
C675 C674 1.385 . S
C676 C674 1.478 . S
C676 C678 1.381 . S
C676 C682 1.383 . S
C677 C673 1.495 . S
C677 H683 0.959 1_655 S
C677 H684 0.961 . S
C677 H685 0.960 . S
C678 C676 1.381 . S
C678 C679 1.394 . S
C678 H686 0.930 . S
C679 C678 1.394 . S
C679 C680 1.383 . S
C679 H687 0.929 . S
C680 C679 1.383 . S
C680 C681 1.377 . S
C681 H665 0.930 . S
C681 C680 1.377 . S
C681 C682 1.379 . S
C682 H666 0.931 . S
C682 C676 1.383 . S
C682 C681 1.379 . S
H683 C677 0.959 1_455 S
H684 C677 0.961 . S
H685 C677 0.960 . S
H686 C678 0.930 . S
H687 C679 0.929 . S
C121 C62 1.501 . S
C140 C6 1.485 . S
C157 C20 1.500 . S
C176 C76 1.511 . S
C193 C34 1.501 . S
C212 C90 1.513 . S
C229 C104 1.497 . S
C248 C48 1.484 . S
C265 C7 1.268 . S
C284 C35 1.266 . S
C301 C21 1.271 . S
C320 C49 1.252 . S
C337 C91 1.274 . S
C356 C63 1.255 . S
C373 C77 1.270 . S
C392 C105 1.275 . S
C409 C79 1.284 . S
C428 C8 1.240 . S
C445 C22 1.258 . S
C464 C93 1.264 . S
C481 C36 1.268 . S
C500 C107 1.282 1_565 S
C517 C65 1.289 1_455 S
C536 C50 1.286 . S
C553 C64 1.262 . S
C572 C23 1.291 . S
C589 C78 1.266 . S
C608 C37 1.276 . S
C625 C92 1.258 . S
C644 C51 1.307 1_545 S
C661 C9 1.286 1_655 S
C680 C106 1.281 . S
