# Generated by pormake.
# Topology uoy, (4)-cn, num edge types: 1
# Building blocks:
#     Node 0, Type 0, BuildingBlock: UXUYUI_clean_sbu_0, # of connection points: 4
#     Node 1, Type 0, BuildingBlock: UXUYUI_clean_sbu_0, # of connection points: 4
#     Node 2, Type 0, BuildingBlock: UXUYUI_clean_sbu_0, # of connection points: 4
#     Node 3, Type 0, BuildingBlock: UXUYUI_clean_sbu_0, # of connection points: 4
#     Node 4, Type 0, BuildingBlock: UXUYUI_clean_sbu_0, # of connection points: 4
#     Node 5, Type 0, BuildingBlock: UXUYUI_clean_sbu_0, # of connection points: 4
#     Node 6, Type 0, BuildingBlock: UXUYUI_clean_sbu_0, # of connection points: 4
#     Node 7, Type 0, BuildingBlock: UXUYUI_clean_sbu_0, # of connection points: 4
#     Node 8, Type 0, BuildingBlock: UXUYUI_clean_sbu_0, # of connection points: 4
#     Node 9, Type 0, BuildingBlock: UXUYUI_clean_sbu_0, # of connection points: 4
#     Node 10, Type 0, BuildingBlock: UXUYUI_clean_sbu_0, # of connection points: 4
#     Node 11, Type 0, BuildingBlock: UXUYUI_clean_sbu_0, # of connection points: 4
#     Node 12, Type 0, BuildingBlock: UXUYUI_clean_sbu_0, # of connection points: 4
#     Node 13, Type 0, BuildingBlock: UXUYUI_clean_sbu_0, # of connection points: 4
#     Node 14, Type 0, BuildingBlock: UXUYUI_clean_sbu_0, # of connection points: 4
#     Node 15, Type 0, BuildingBlock: UXUYUI_clean_sbu_0, # of connection points: 4
#     Edge 16, Type (0, 0), BuildingBlock: KIFKEQ_clean_linker_1, # of connection points: 2
#     Edge 17, Type (0, 0), BuildingBlock: KIFKEQ_clean_linker_1, # of connection points: 2
#     Edge 18, Type (0, 0), BuildingBlock: KIFKEQ_clean_linker_1, # of connection points: 2
#     Edge 19, Type (0, 0), BuildingBlock: KIFKEQ_clean_linker_1, # of connection points: 2
#     Edge 20, Type (0, 0), BuildingBlock: KIFKEQ_clean_linker_1, # of connection points: 2
#     Edge 21, Type (0, 0), BuildingBlock: KIFKEQ_clean_linker_1, # of connection points: 2
#     Edge 22, Type (0, 0), BuildingBlock: KIFKEQ_clean_linker_1, # of connection points: 2
#     Edge 23, Type (0, 0), BuildingBlock: KIFKEQ_clean_linker_1, # of connection points: 2
#     Edge 24, Type (0, 0), BuildingBlock: KIFKEQ_clean_linker_1, # of connection points: 2
#     Edge 25, Type (0, 0), BuildingBlock: KIFKEQ_clean_linker_1, # of connection points: 2
#     Edge 26, Type (0, 0), BuildingBlock: KIFKEQ_clean_linker_1, # of connection points: 2
#     Edge 27, Type (0, 0), BuildingBlock: KIFKEQ_clean_linker_1, # of connection points: 2
#     Edge 28, Type (0, 0), BuildingBlock: KIFKEQ_clean_linker_1, # of connection points: 2
#     Edge 29, Type (0, 0), BuildingBlock: KIFKEQ_clean_linker_1, # of connection points: 2
#     Edge 30, Type (0, 0), BuildingBlock: KIFKEQ_clean_linker_1, # of connection points: 2
#     Edge 31, Type (0, 0), BuildingBlock: KIFKEQ_clean_linker_1, # of connection points: 2
#     Edge 32, Type (0, 0), BuildingBlock: KIFKEQ_clean_linker_1, # of connection points: 2
#     Edge 33, Type (0, 0), BuildingBlock: KIFKEQ_clean_linker_1, # of connection points: 2
#     Edge 34, Type (0, 0), BuildingBlock: KIFKEQ_clean_linker_1, # of connection points: 2
#     Edge 35, Type (0, 0), BuildingBlock: KIFKEQ_clean_linker_1, # of connection points: 2
#     Edge 36, Type (0, 0), BuildingBlock: KIFKEQ_clean_linker_1, # of connection points: 2
#     Edge 37, Type (0, 0), BuildingBlock: KIFKEQ_clean_linker_1, # of connection points: 2
#     Edge 38, Type (0, 0), BuildingBlock: KIFKEQ_clean_linker_1, # of connection points: 2
#     Edge 39, Type (0, 0), BuildingBlock: KIFKEQ_clean_linker_1, # of connection points: 2
#     Edge 40, Type (0, 0), BuildingBlock: KIFKEQ_clean_linker_1, # of connection points: 2
#     Edge 41, Type (0, 0), BuildingBlock: KIFKEQ_clean_linker_1, # of connection points: 2
#     Edge 42, Type (0, 0), BuildingBlock: KIFKEQ_clean_linker_1, # of connection points: 2
#     Edge 43, Type (0, 0), BuildingBlock: KIFKEQ_clean_linker_1, # of connection points: 2
#     Edge 44, Type (0, 0), BuildingBlock: KIFKEQ_clean_linker_1, # of connection points: 2
#     Edge 45, Type (0, 0), BuildingBlock: KIFKEQ_clean_linker_1, # of connection points: 2
#     Edge 46, Type (0, 0), BuildingBlock: KIFKEQ_clean_linker_1, # of connection points: 2
#     Edge 47, Type (0, 0), BuildingBlock: KIFKEQ_clean_linker_1, # of connection points: 2
# Relax obj value: 0.195
# Max RMSD: 0.201
# Mean RMSD: 0.200
data_MOF--net-uoy--node1-UXUYUI_clean_sbu_0--edge1-KIFKEQ_clean_linker_1
_symmetry_space_group_name_H-M    P1
_symmetry_Int_Tables_number       1
_symmetry_cell_setting            triclinic
loop_
_symmetry_equiv_pos_as_xyz
'x, y, z'
_cell_length_a     40.350063
_cell_length_b     40.350643
_cell_length_c     157.63762
_cell_angle_alpha  89.987206
_cell_angle_beta   90.023479
_cell_angle_gamma 89.983682
loop_
_atom_site_label
_atom_site_type_symbol
_atom_site_fract_x
_atom_site_fract_y
_atom_site_fract_z
_atom_type_partial_charge
Li0 Li 0.27849 0.09341 0.18508 0.0
Li1 Li 0.24884 0.1395 0.19292 0.0
Li2 Li 0.21959 0.09604 0.18643 0.0
Li3 Li 0.24325 0.13627 0.17729 0.0
C4 C 0.2368 0.06867 0.20055 0.0
N5 N 0.20271 0.02187 0.2099 0.0
C6 C 0.21459 0.07863 0.20686 0.0
C7 C 0.24178 0.03491 0.19902 0.0
C8 C 0.19754 0.05459 0.21151 0.0
C9 C 0.22431 0.01163 0.20382 0.0
C10 C 0.31315 0.15957 0.18486 0.0
C11 C 0.34803 0.20623 0.18141 0.0
N12 N 0.37267 0.19306 0.18624 0.0
C13 C 0.33886 0.14651 0.18979 0.0
C14 C 0.31779 0.18967 0.18063 0.0
C15 C 0.36874 0.16381 0.19041 0.0
C16 C 0.33808 0.07551 0.17736 0.0
N17 N 0.31887 0.06973 0.18428 0.0
C18 C 0.3612 0.03637 0.19055 0.0
C19 C 0.32963 0.05051 0.1908 0.0
C20 C 0.38198 0.04269 0.18359 0.0
C21 C 0.37 0.06227 0.17689 0.0
H22 H 0.32897 0.09137 0.17233 0.0
H23 H 0.31422 0.04717 0.19634 0.0
C24 C 0.22212 0.17513 0.20663 0.0
N25 N 0.25089 0.16826 0.20249 0.0
C26 C 0.22249 0.19367 0.21411 0.0
C27 C 0.28194 0.19869 0.21276 0.0
C28 C 0.28042 0.1799 0.20536 0.0
C29 C 0.25278 0.20533 0.21732 0.0
H30 H 0.19894 0.16544 0.20423 0.0
H31 H 0.30298 0.17382 0.20208 0.0
C32 C 0.22771 0.06629 0.17109 0.0
N33 N 0.19077 0.0229 0.16139 0.0
C34 C 0.19766 0.07656 0.16754 0.0
C35 C 0.23918 0.03411 0.16964 0.0
C36 C 0.17928 0.0542 0.16269 0.0
C37 C 0.22009 0.01251 0.16473 0.0
C38 C 0.19882 0.17638 0.18551 0.0
C39 C 0.1653 0.18495 0.185 0.0
C40 C 0.22281 0.20137 0.18551 0.0
C41 C 0.15636 0.21835 0.18451 0.0
C42 C 0.21289 0.23448 0.18502 0.0
N43 N 0.18015 0.24222 0.18454 0.0
C44 C 0.15336 0.08738 0.19057 0.0
C45 C 0.17802 0.03722 0.18598 0.0
C46 C 0.12256 0.07205 0.19125 0.0
N47 N 0.18014 0.07011 0.1878 0.0
C48 C 0.14761 0.02082 0.18657 0.0
C49 C 0.11925 0.03843 0.18913 0.0
H50 H 0.15581 0.1133 0.19215 0.0
H51 H 0.19979 0.02374 0.18399 0.0
C52 C 0.26826 0.16512 0.16242 0.0
N53 N 0.24019 0.15994 0.16698 0.0
C54 C 0.26682 0.18187 0.15469 0.0
C55 C 0.20748 0.18702 0.15643 0.0
C56 C 0.21011 0.17027 0.16414 0.0
C57 C 0.2361 0.19301 0.1516 0.0
H58 H 0.29173 0.15596 0.16477 0.0
H59 H 0.18809 0.16526 0.16782 0.0
O60 O 0.25325 0.09186 0.19583 0.0
O61 O 0.28394 0.14261 0.184 0.0
O62 O 0.24596 0.08767 0.17591 0.0
O63 O 0.20778 0.14365 0.18589 0.0
H64 H 0.21037 0.10463 0.2081 0.0
H65 H 0.25845 0.02677 0.19407 0.0
H66 H 0.18016 0.06195 0.21638 0.0
H67 H 0.22775 0.98543 0.20267 0.0
H68 H 0.35192 0.22955 0.17818 0.0
H69 H 0.33561 0.12355 0.19322 0.0
H70 H 0.29825 0.20018 0.17677 0.0
H71 H 0.38877 0.15403 0.19423 0.0
H72 H 0.36978 0.02179 0.19589 0.0
H73 H 0.38528 0.06758 0.17141 0.0
H74 H 0.19944 0.19835 0.21742 0.0
H75 H 0.3059 0.20665 0.21509 0.0
H76 H 0.18844 0.10137 0.16864 0.0
H77 H 0.26246 0.02589 0.17233 0.0
H78 H 0.15584 0.06169 0.15996 0.0
H79 H 0.22855 0.98746 0.16359 0.0
H80 H 0.14635 0.16598 0.18491 0.0
H81 H 0.24879 0.1954 0.18593 0.0
H82 H 0.13051 0.22528 0.1841 0.0
H83 H 0.23124 0.25402 0.18504 0.0
H84 H 0.10139 0.08671 0.19318 0.0
H85 H 0.1463 0.99471 0.18502 0.0
H86 H 0.28939 0.18548 0.15109 0.0
H87 H 0.18336 0.19535 0.1543 0.0
Li88 Li 0.90142 0.77956 0.43688 0.0
Li89 Li 0.85783 0.74661 0.44438 0.0
Li90 Li 0.90443 0.71901 0.4369 0.0
Li91 Li 0.86172 0.7472 0.42908 0.0
C92 C 0.93855 0.7501 0.4499 0.0
N93 N 0.00278 0.75176 0.45595 0.0
C94 C 0.94461 0.74824 0.45862 0.0
C95 C 0.96514 0.75272 0.44426 0.0
C96 C 0.97728 0.74915 0.46155 0.0
C97 C 0.99743 0.75353 0.44744 0.0
C98 C 0.82787 0.80167 0.43268 0.0
C99 C 0.7709 0.80531 0.42814 0.0
N100 N 0.77806 0.83371 0.42387 0.0
C101 C 0.83459 0.83107 0.42832 0.0
C102 C 0.79571 0.78885 0.43266 0.0
C103 C 0.8091 0.84683 0.42388 0.0
C104 C 0.92868 0.83606 0.42944 0.0
N105 N 0.92465 0.82034 0.43699 0.0
C106 C 0.94788 0.8664 0.44443 0.0
C107 C 0.93413 0.83462 0.44442 0.0
C108 C 0.9511 0.88372 0.43675 0.0
C109 C 0.94168 0.86809 0.42918 0.0
H110 H 0.9206 0.82412 0.42365 0.0
H111 H 0.93013 0.82174 0.45035 0.0
C112 C 0.83143 0.7168 0.45894 0.0
N113 N 0.83057 0.74447 0.45403 0.0
C114 C 0.81352 0.71562 0.4665 0.0
C115 C 0.79363 0.7711 0.46366 0.0
C116 C 0.8119 0.77119 0.45616 0.0
C117 C 0.79474 0.74327 0.46902 0.0
H118 H 0.84661 0.69597 0.45704 0.0
H119 H 0.81199 0.79293 0.45214 0.0
C120 C 0.92011 0.73385 0.41997 0.0
N121 N 0.93983 0.70119 0.40543 0.0
C122 C 0.90455 0.7044 0.41756 0.0
C123 C 0.94561 0.74678 0.41498 0.0
C124 C 0.91488 0.68823 0.41018 0.0
C125 C 0.95526 0.72986 0.40765 0.0
C126 C 0.83379 0.6844 0.43585 0.0
C127 C 0.84254 0.6538 0.43234 0.0
C128 C 0.80132 0.68961 0.43864 0.0
C129 C 0.81849 0.62909 0.43156 0.0
C130 C 0.778 0.66427 0.43774 0.0
N131 N 0.78698 0.6348 0.43425 0.0
C132 C 0.91902 0.65756 0.44332 0.0
C133 C 0.95705 0.6734 0.4326 0.0
C134 C 0.93313 0.62611 0.4438 0.0
N135 N 0.93055 0.68009 0.43765 0.0
C136 C 0.97195 0.64212 0.43286 0.0
C137 C 0.95945 0.61774 0.43838 0.0
H138 H 0.89803 0.66375 0.44728 0.0
H139 H 0.96599 0.6919 0.42821 0.0
C140 C 0.84558 0.77232 0.41322 0.0
N141 N 0.83768 0.7474 0.41866 0.0
C142 C 0.83051 0.77427 0.40528 0.0
C143 C 0.80017 0.72421 0.40855 0.0
C144 C 0.81536 0.7236 0.4165 0.0
C145 C 0.80776 0.7498 0.40285 0.0
H146 H 0.86394 0.79051 0.41504 0.0
H147 H 0.8096 0.70385 0.42085 0.0
O148 O 0.90668 0.74912 0.44695 0.0
O149 O 0.85265 0.78549 0.43692 0.0
O150 O 0.91038 0.75028 0.42714 0.0
O151 O 0.8571 0.70881 0.43672 0.0
H152 H 0.92426 0.74613 0.46306 0.0
H153 H 0.96097 0.75412 0.43749 0.0
H154 H 0.98235 0.74776 0.46828 0.0
H155 H 0.01825 0.75558 0.44315 0.0
H156 H 0.74595 0.7955 0.42802 0.0
H157 H 0.85925 0.84151 0.42832 0.0
H158 H 0.79002 0.76629 0.43605 0.0
H159 H 0.81401 0.86948 0.42043 0.0
H160 H 0.95466 0.87783 0.4504 0.0
H161 H 0.94397 0.88068 0.42314 0.0
H162 H 0.81484 0.69359 0.47041 0.0
H163 H 0.77996 0.79316 0.46542 0.0
H164 H 0.88467 0.6942 0.42131 0.0
H165 H 0.95784 0.76962 0.41676 0.0
H166 H 0.90304 0.66541 0.40824 0.0
H167 H 0.97501 0.73955 0.40373 0.0
H168 H 0.86762 0.64911 0.43023 0.0
H169 H 0.79417 0.71287 0.44148 0.0
H170 H 0.82489 0.60535 0.42882 0.0
H171 H 0.75276 0.66801 0.43985 0.0
H172 H 0.92316 0.60835 0.44827 0.0
H173 H 0.99214 0.63671 0.42855 0.0
H174 H 0.83721 0.79415 0.40099 0.0
H175 H 0.78265 0.70496 0.40687 0.0
Li176 Li 0.22034 0.40472 0.68649 0.0
Li177 Li 0.25273 0.36104 0.69339 0.0
Li178 Li 0.27936 0.40312 0.68463 0.0
Li179 Li 0.24537 0.35985 0.67826 0.0
C180 C 0.24106 0.43129 0.70084 0.0
N181 N 0.21019 0.47505 0.71175 0.0
C182 C 0.22816 0.42004 0.70855 0.0
C183 C 0.2385 0.46482 0.69871 0.0
C184 C 0.2126 0.44256 0.71398 0.0
C185 C 0.22271 0.48653 0.7043 0.0
C186 C 0.18837 0.33559 0.68363 0.0
C187 C 0.17255 0.28065 0.67917 0.0
N188 N 0.14396 0.29314 0.6759 0.0
C189 C 0.15877 0.34786 0.68026 0.0
C190 C 0.19527 0.3017 0.68313 0.0
C191 C 0.13666 0.326 0.67636 0.0
C192 C 0.17211 0.44965 0.68058 0.0
N193 N 0.18125 0.43068 0.68731 0.0
C194 C 0.12996 0.4418 0.69433 0.0
C195 C 0.16101 0.42657 0.69413 0.0
C196 C 0.11942 0.46063 0.68734 0.0
C197 C 0.14105 0.46488 0.68045 0.0
H198 H 0.18837 0.45182 0.67516 0.0
H199 H 0.16842 0.41035 0.69924 0.0
C200 C 0.28238 0.34115 0.7088 0.0
N201 N 0.25656 0.3356 0.70345 0.0
C202 C 0.28411 0.32464 0.71657 0.0
C203 C 0.23252 0.2972 0.71317 0.0
C204 C 0.23201 0.31395 0.70544 0.0
C205 C 0.25861 0.30275 0.71892 0.0
H206 H 0.30119 0.35907 0.70712 0.0
H207 H 0.21139 0.31059 0.70115 0.0
C208 C 0.26028 0.42807 0.67011 0.0
N209 N 0.29434 0.46866 0.65903 0.0
C210 C 0.27553 0.41464 0.66294 0.0
C211 C 0.26211 0.46215 0.67162 0.0
C212 C 0.29268 0.43558 0.65741 0.0
C213 C 0.27953 0.48225 0.66595 0.0
C214 C 0.3084 0.33328 0.68834 0.0
C215 C 0.33761 0.34514 0.69202 0.0
C216 C 0.30083 0.29954 0.68883 0.0
C217 C 0.35868 0.323 0.69619 0.0
C218 C 0.32251 0.27821 0.69307 0.0
N219 N 0.35074 0.29028 0.69663 0.0
C220 C 0.32736 0.45266 0.68838 0.0
C221 C 0.34044 0.41607 0.6771 0.0
C222 C 0.35846 0.46766 0.68773 0.0
N223 N 0.3192 0.4272 0.68314 0.0
C224 C 0.37169 0.43036 0.67621 0.0
C225 C 0.38129 0.45613 0.68167 0.0
H226 H 0.31016 0.46059 0.69322 0.0
H227 H 0.33339 0.3954 0.67312 0.0
C228 C 0.21389 0.3394 0.66327 0.0
N229 N 0.24026 0.33353 0.66842 0.0
C230 C 0.21047 0.32212 0.65567 0.0
C231 C 0.26187 0.29365 0.65871 0.0
C232 C 0.26403 0.31117 0.66632 0.0
C233 C 0.2349 0.29917 0.65322 0.0
H234 H 0.19581 0.35795 0.66502 0.0
H235 H 0.28517 0.30766 0.67043 0.0
O236 O 0.25612 0.40961 0.69541 0.0
O237 O 0.21055 0.35664 0.68738 0.0
O238 O 0.24394 0.40792 0.67569 0.0
O239 O 0.28723 0.3546 0.68432 0.0
H240 H 0.22989 0.39418 0.7103 0.0
H241 H 0.24834 0.4739 0.69277 0.0
H242 H 0.20237 0.43419 0.71994 0.0
H243 H 0.22037 0.51251 0.70271 0.0
H244 H 0.17766 0.2544 0.6787 0.0
H245 H 0.15301 0.374 0.68057 0.0
H246 H 0.21805 0.2918 0.68571 0.0
H247 H 0.11373 0.33517 0.67369 0.0
H248 H 0.11373 0.43753 0.69969 0.0
H249 H 0.13372 0.47926 0.67496 0.0
H250 H 0.30483 0.32953 0.72075 0.0
H251 H 0.2119 0.28122 0.71476 0.0
H252 H 0.27444 0.38831 0.66169 0.0
H253 H 0.25041 0.4729 0.67715 0.0
H254 H 0.30475 0.42553 0.65185 0.0
H255 H 0.28132 0.50864 0.66706 0.0
H256 H 0.34379 0.37119 0.69175 0.0
H257 H 0.27833 0.28996 0.68602 0.0
H258 H 0.38128 0.33185 0.6991 0.0
H259 H 0.31687 0.25207 0.69354 0.0
H260 H 0.36499 0.48715 0.69215 0.0
H261 H 0.38833 0.42096 0.67139 0.0
H262 H 0.18906 0.32696 0.65172 0.0
H263 H 0.28169 0.2768 0.65703 0.0
Li264 Li 0.64055 0.74979 0.93942 0.0
Li265 Li 0.59482 0.72077 0.93248 0.0
Li266 Li 0.63676 0.74942 0.92447 0.0
Li267 Li 0.5968 0.78113 0.9328 0.0
C268 C 0.65937 0.68932 0.92681 0.0
N269 N 0.69285 0.64757 0.91586 0.0
C270 C 0.64181 0.66747 0.9216 0.0
C271 C 0.694 0.68973 0.92649 0.0
C272 C 0.65917 0.6466 0.9161 0.0
C273 C 0.71045 0.66851 0.9209 0.0
C274 C 0.56123 0.75136 0.94561 0.0
C275 C 0.50212 0.75261 0.94336 0.0
N276 N 0.49737 0.75302 0.95191 0.0
C277 C 0.55578 0.75184 0.95436 0.0
C278 C 0.53422 0.75178 0.94005 0.0
C279 C 0.5233 0.75266 0.95742 0.0
C280 C 0.66393 0.77161 0.95527 0.0
N281 N 0.66741 0.74778 0.94924 0.0
C282 C 0.70291 0.71627 0.95827 0.0
C283 C 0.68688 0.72077 0.95051 0.0
C284 C 0.69859 0.73969 0.96477 0.0
C285 C 0.67959 0.76816 0.96311 0.0
H286 H 0.64781 0.79256 0.9541 0.0
H287 H 0.68878 0.70202 0.94564 0.0
C288 C 0.54486 0.67495 0.92734 0.0
N289 N 0.56864 0.68204 0.93317 0.0
C290 C 0.52916 0.64408 0.92744 0.0
C291 C 0.56214 0.62901 0.93966 0.0
C292 C 0.57715 0.6601 0.93933 0.0
C293 C 0.53816 0.62042 0.93358 0.0
H294 H 0.53884 0.69286 0.92248 0.0
H295 H 0.59652 0.6664 0.94379 0.0
C296 C 0.67216 0.80423 0.93513 0.0
N297 N 0.72629 0.83548 0.94232 0.0
C298 C 0.6694 0.83671 0.93813 0.0
C299 C 0.70266 0.78792 0.93564 0.0
C300 C 0.69699 0.85202 0.94178 0.0
C301 C 0.72967 0.80404 0.93934 0.0
C302 C 0.57989 0.7696 0.91579 0.0
C303 C 0.59841 0.79784 0.91377 0.0
C304 C 0.55384 0.75994 0.91049 0.0
C305 C 0.5904 0.816 0.90651 0.0
C306 C 0.5466 0.77879 0.90329 0.0
N307 N 0.56487 0.80619 0.90146 0.0
C308 C 0.6463 0.72974 0.90763 0.0
C309 C 0.68906 0.76432 0.91292 0.0
C310 C 0.66169 0.72804 0.89973 0.0
N311 N 0.66013 0.74766 0.91401 0.0
C312 C 0.70542 0.76319 0.90512 0.0
C313 C 0.69162 0.74497 0.8984 0.0
H314 H 0.62316 0.71685 0.90867 0.0
H315 H 0.69927 0.77879 0.91805 0.0
C316 C 0.57986 0.83964 0.94092 0.0
N317 N 0.5717 0.82094 0.93407 0.0
C318 C 0.56621 0.87113 0.94198 0.0
C319 C 0.53399 0.86258 0.92925 0.0
C320 C 0.54825 0.8312 0.92845 0.0
C321 C 0.54363 0.88338 0.93596 0.0
H322 H 0.59781 0.83039 0.94544 0.0
H323 H 0.54106 0.81552 0.92322 0.0
O324 O 0.64276 0.71051 0.9321 0.0
O325 O 0.59295 0.75067 0.94256 0.0
O326 O 0.64529 0.78866 0.93161 0.0
O327 O 0.58745 0.75097 0.92279 0.0
H328 H 0.61504 0.66697 0.92167 0.0
H329 H 0.70808 0.70628 0.9305 0.0
H330 H 0.64586 0.62974 0.912 0.0
H331 H 0.73723 0.66869 0.92057 0.0
H332 H 0.48098 0.75294 0.93914 0.0
H333 H 0.57647 0.75159 0.95874 0.0
H334 H 0.53788 0.75153 0.93326 0.0
H335 H 0.51871 0.75302 0.96418 0.0
H336 H 0.71752 0.69409 0.95928 0.0
H337 H 0.67525 0.78655 0.96799 0.0
H338 H 0.51054 0.63863 0.92269 0.0
H339 H 0.57021 0.61144 0.94443 0.0
H340 H 0.64634 0.85014 0.93758 0.0
H341 H 0.7053 0.76291 0.9333 0.0
H342 H 0.69514 0.87711 0.94415 0.0
H343 H 0.7533 0.79153 0.93985 0.0
H344 H 0.61871 0.80577 0.91774 0.0
H345 H 0.53935 0.7381 0.91193 0.0
H346 H 0.60449 0.8379 0.90488 0.0
H347 H 0.52647 0.77161 0.89915 0.0
H348 H 0.65041 0.71346 0.89473 0.0
H349 H 0.72824 0.77696 0.90431 0.0
H350 H 0.57367 0.88592 0.94739 0.0
H351 H 0.5166 0.87089 0.92447 0.0
Li352 Li 0.24244 0.35909 0.0684 0.0
Li353 Li 0.21707 0.40268 0.0601 0.0
Li354 Li 0.24666 0.35675 0.0534 0.0
Li355 Li 0.27902 0.39794 0.06076 0.0
C356 C 0.18469 0.33506 0.06436 0.0
N357 N 0.14321 0.29381 0.07345 0.0
C358 C 0.16207 0.34841 0.07014 0.0
C359 C 0.18597 0.3008 0.06313 0.0
C360 C 0.14138 0.32712 0.0747 0.0
C361 C 0.16485 0.28034 0.06781 0.0
C362 C 0.25041 0.44002 0.07254 0.0
C363 C 0.25398 0.49808 0.06903 0.0
N364 N 0.25855 0.50532 0.07737 0.0
C365 C 0.25518 0.44801 0.08108 0.0
C366 C 0.24982 0.46523 0.06646 0.0
C367 C 0.25923 0.48118 0.0834 0.0
C368 C 0.25049 0.30536 0.07996 0.0
N369 N 0.23737 0.33603 0.0788 0.0
C370 C 0.21748 0.33702 0.09307 0.0
C371 C 0.22103 0.35197 0.08514 0.0
C372 C 0.23101 0.30541 0.09448 0.0
C373 C 0.24748 0.28945 0.08777 0.0
H374 H 0.26379 0.29342 0.07488 0.0
H375 H 0.2109 0.37642 0.08403 0.0
C376 C 0.16038 0.4288 0.05232 0.0
N377 N 0.17846 0.42954 0.05959 0.0
C378 C 0.12909 0.44352 0.05201 0.0
C379 C 0.1357 0.45969 0.06668 0.0
C380 C 0.16692 0.44477 0.06669 0.0
C381 C 0.1161 0.45864 0.05932 0.0
H382 H 0.16955 0.41533 0.04689 0.0
H383 H 0.18121 0.44401 0.07249 0.0
C384 C 0.30131 0.32333 0.05893 0.0
N385 N 0.33868 0.27081 0.05299 0.0
C386 C 0.33419 0.32828 0.05644 0.0
C387 C 0.28746 0.29164 0.05839 0.0
C388 C 0.35267 0.30141 0.05345 0.0
C389 C 0.30674 0.26542 0.05537 0.0
C390 C 0.26102 0.40473 0.04246 0.0
C391 C 0.29429 0.39832 0.0406 0.0
C392 C 0.23844 0.40929 0.03584 0.0
C393 C 0.30442 0.39666 0.03214 0.0
C394 C 0.24952 0.40734 0.02746 0.0
N395 N 0.282 0.40113 0.0258 0.0
C396 C 0.21421 0.32284 0.04022 0.0
C397 C 0.27279 0.31984 0.03938 0.0
C398 C 0.21109 0.30578 0.03254 0.0
N399 N 0.24474 0.32957 0.04346 0.0
C400 C 0.27081 0.30205 0.03184 0.0
C401 C 0.23972 0.29516 0.02831 0.0
H402 H 0.1923 0.33158 0.04348 0.0
H403 H 0.29679 0.32677 0.04179 0.0
C404 C 0.34271 0.40875 0.06699 0.0
N405 N 0.31982 0.42117 0.06153 0.0
C406 C 0.37444 0.42236 0.06734 0.0
C407 C 0.35786 0.46259 0.05679 0.0
C408 C 0.32644 0.44801 0.0566 0.0
C409 C 0.38253 0.44928 0.06209 0.0
H410 H 0.33654 0.38758 0.07089 0.0
H411 H 0.30763 0.4575 0.05235 0.0
O412 O 0.20571 0.35542 0.06 0.0
O413 O 0.24669 0.40759 0.0702 0.0
O414 O 0.28288 0.34936 0.06189 0.0
O415 O 0.25052 0.40566 0.05072 0.0
H416 H 0.16083 0.37487 0.07118 0.0
H417 H 0.20307 0.29013 0.05861 0.0
H418 H 0.12393 0.33708 0.07924 0.0
H419 H 0.16565 0.25376 0.06695 0.0
H420 H 0.25357 0.51784 0.06439 0.0
H421 H 0.25578 0.42875 0.08586 0.0
H422 H 0.24614 0.45957 0.05982 0.0
H423 H 0.26293 0.48773 0.08998 0.0
H424 H 0.20433 0.35004 0.09804 0.0
H425 H 0.25874 0.26531 0.08863 0.0
H426 H 0.11456 0.44157 0.04626 0.0
H427 H 0.12665 0.47118 0.07244 0.0
H428 H 0.34528 0.35263 0.05671 0.0
H429 H 0.26193 0.28742 0.06014 0.0
H430 H 0.37811 0.30493 0.05148 0.0
H431 H 0.29626 0.24083 0.05488 0.0
H432 H 0.31199 0.39387 0.04562 0.0
H433 H 0.2126 0.41411 0.03713 0.0
H434 H 0.33004 0.39151 0.03062 0.0
H435 H 0.23227 0.4107 0.02227 0.0
H436 H 0.18673 0.30125 0.02989 0.0
H437 H 0.29341 0.29498 0.0286 0.0
H438 H 0.39256 0.41173 0.07162 0.0
H439 H 0.36312 0.48325 0.05261 0.0
Li440 Li 0.64283 0.75268 0.31947 0.0
Li441 Li 0.59816 0.72358 0.3128 0.0
Li442 Li 0.64048 0.75277 0.3042 0.0
Li443 Li 0.59924 0.78381 0.31289 0.0
C444 C 0.6718 0.69299 0.31168 0.0
N445 N 0.72449 0.64924 0.31166 0.0
C446 C 0.66774 0.66081 0.3148 0.0
C447 C 0.70256 0.7028 0.30847 0.0
C448 C 0.69472 0.6391 0.31476 0.0
C449 C 0.72891 0.68035 0.30854 0.0
C450 C 0.58975 0.73615 0.33002 0.0
C451 C 0.56201 0.72914 0.34345 0.0
N452 N 0.57899 0.70045 0.34472 0.0
C453 C 0.60694 0.7066 0.33147 0.0
C454 C 0.56713 0.74756 0.33606 0.0
C455 C 0.60116 0.68891 0.33894 0.0
C456 C 0.66301 0.77665 0.33515 0.0
N457 N 0.67065 0.7531 0.32929 0.0
C458 C 0.71177 0.73015 0.33849 0.0
C459 C 0.69467 0.73017 0.3308 0.0
C460 C 0.70427 0.75416 0.34463 0.0
C461 C 0.6799 0.77793 0.34285 0.0
H462 H 0.64316 0.79398 0.33389 0.0
H463 H 0.70013 0.71135 0.32617 0.0
C464 C 0.58169 0.66218 0.30661 0.0
N465 N 0.57237 0.68451 0.3126 0.0
C466 C 0.56641 0.63128 0.30619 0.0
C467 C 0.53166 0.64716 0.31802 0.0
C468 C 0.54742 0.67798 0.31815 0.0
C469 C 0.54141 0.62329 0.31203 0.0
H470 H 0.60161 0.6682 0.30229 0.0
H471 H 0.54012 0.69639 0.32276 0.0
C472 C 0.67089 0.81025 0.3156 0.0
N473 N 0.71826 0.84751 0.32392 0.0
C474 C 0.66148 0.83766 0.32046 0.0
C475 C 0.70442 0.8021 0.31487 0.0
C476 C 0.68579 0.85611 0.32464 0.0
C477 C 0.72799 0.82115 0.31915 0.0
C478 C 0.55818 0.75382 0.30081 0.0
C479 C 0.549 0.75167 0.29229 0.0
C480 C 0.53372 0.75581 0.30707 0.0
C481 C 0.51539 0.75159 0.29015 0.0
C482 C 0.50039 0.75564 0.30468 0.0
N483 N 0.49199 0.75356 0.29634 0.0
C484 C 0.66599 0.72409 0.28924 0.0
C485 C 0.67224 0.78237 0.29049 0.0
C486 C 0.67884 0.7248 0.28102 0.0
N487 N 0.66266 0.75269 0.29371 0.0
C488 C 0.68489 0.78427 0.28228 0.0
C489 C 0.68769 0.75531 0.27739 0.0
H490 H 0.65766 0.70093 0.29197 0.0
H491 H 0.66896 0.80468 0.2942 0.0
C492 C 0.5648 0.8366 0.32064 0.0
N493 N 0.57421 0.82329 0.3131 0.0
C494 C 0.54932 0.86754 0.32087 0.0
C495 C 0.55255 0.86977 0.30556 0.0
C496 C 0.56819 0.83894 0.30563 0.0
C497 C 0.5434 0.8847 0.31326 0.0
H498 H 0.57026 0.82362 0.32648 0.0
H499 H 0.57635 0.82782 0.29975 0.0
O500 O 0.64556 0.71445 0.31163 0.0
O501 O 0.59506 0.75411 0.32278 0.0
O502 O 0.64738 0.79155 0.31158 0.0
O503 O 0.591 0.75379 0.30298 0.0
H504 H 0.64402 0.65268 0.31724 0.0
H505 H 0.70605 0.72742 0.30594 0.0
H506 H 0.69197 0.61417 0.31719 0.0
H507 H 0.75287 0.68764 0.30609 0.0
H508 H 0.54453 0.73767 0.34817 0.0
H509 H 0.62457 0.69742 0.32689 0.0
H510 H 0.55363 0.77041 0.33504 0.0
H511 H 0.6143 0.66601 0.34013 0.0
H512 H 0.73046 0.71143 0.33967 0.0
H513 H 0.67317 0.79652 0.3475 0.0
H514 H 0.57481 0.61344 0.30153 0.0
H515 H 0.51219 0.64197 0.32256 0.0
H516 H 0.63566 0.84443 0.32106 0.0
H517 H 0.71217 0.78122 0.31107 0.0
H518 H 0.67884 0.87723 0.32847 0.0
H519 H 0.75402 0.81498 0.31869 0.0
H520 H 0.56768 0.75007 0.28737 0.0
H521 H 0.54034 0.75744 0.31371 0.0
H522 H 0.5079 0.74994 0.28357 0.0
H523 H 0.4812 0.75716 0.30945 0.0
H524 H 0.68032 0.70202 0.2774 0.0
H525 H 0.69168 0.80821 0.2797 0.0
H526 H 0.5424 0.87809 0.32693 0.0
H527 H 0.54881 0.88234 0.29956 0.0
Li528 Li 0.24359 0.13815 0.56942 0.0
Li529 Li 0.27602 0.09682 0.56182 0.0
Li530 Li 0.24916 0.14245 0.55431 0.0
Li531 Li 0.21659 0.09712 0.56032 0.0
C532 C 0.30589 0.16668 0.55922 0.0
N533 N 0.34759 0.21047 0.55101 0.0
C534 C 0.33388 0.15497 0.55494 0.0
C535 C 0.2992 0.20066 0.55936 0.0
C536 C 0.35465 0.17752 0.55082 0.0
C537 C 0.32054 0.22239 0.55515 0.0
C538 C 0.25685 0.06664 0.57588 0.0
C539 C 0.27477 0.01064 0.57861 0.0
N540 N 0.2892 0.02089 0.58595 0.0
C541 C 0.27166 0.07662 0.58347 0.0
C542 C 0.25819 0.03337 0.57344 0.0
C543 C 0.28796 0.05311 0.58847 0.0
C544 C 0.21454 0.15376 0.58511 0.0
N545 N 0.24019 0.16105 0.57984 0.0
C546 C 0.2631 0.19838 0.59001 0.0
C547 C 0.26428 0.18283 0.58211 0.0
C548 C 0.23677 0.19151 0.59556 0.0
C549 C 0.2121 0.16912 0.59301 0.0
H550 H 0.19627 0.13562 0.58322 0.0
H551 H 0.28469 0.18767 0.57785 0.0
C552 C 0.32473 0.05133 0.55594 0.0
N553 N 0.31566 0.07174 0.5624 0.0
C554 C 0.35591 0.03625 0.55601 0.0
C555 C 0.3673 0.06284 0.56944 0.0
C556 C 0.33616 0.07774 0.56906 0.0
C557 C 0.37769 0.0422 0.56279 0.0
H558 H 0.30822 0.04764 0.55063 0.0
H559 H 0.32872 0.095 0.57395 0.0
C560 C 0.1867 0.16541 0.56517 0.0
N561 N 0.14449 0.2055 0.57439 0.0
C562 C 0.15744 0.15242 0.56856 0.0
C563 C 0.19436 0.19883 0.56642 0.0
C564 C 0.13644 0.1731 0.57321 0.0
C565 C 0.17275 0.21867 0.57112 0.0
C566 C 0.23599 0.07468 0.5454 0.0
C567 C 0.221 0.08823 0.53819 0.0
C568 C 0.23501 0.04045 0.54673 0.0
C569 C 0.20499 0.06725 0.53246 0.0
C570 C 0.21872 0.02032 0.54085 0.0
N571 N 0.20416 0.03402 0.5339 0.0
C572 C 0.27503 0.1641 0.53869 0.0
C573 C 0.22718 0.19294 0.54336 0.0
C574 C 0.2735 0.17985 0.53081 0.0
N575 N 0.25166 0.17041 0.54468 0.0
C576 C 0.22459 0.20909 0.53557 0.0
C577 C 0.24733 0.20179 0.52909 0.0
H578 H 0.29364 0.14534 0.53984 0.0
H579 H 0.20856 0.19696 0.54817 0.0
C580 C 0.16757 0.04913 0.56451 0.0
N581 N 0.1768 0.07274 0.55884 0.0
C582 C 0.13618 0.03462 0.56396 0.0
C583 C 0.12497 0.06835 0.55161 0.0
C584 C 0.15634 0.08244 0.55246 0.0
C585 C 0.11416 0.04457 0.55751 0.0
H586 H 0.18406 0.04249 0.56964 0.0
H587 H 0.16401 0.10193 0.54819 0.0
O588 O 0.28496 0.14498 0.56318 0.0
O589 O 0.24119 0.08934 0.57083 0.0
O590 O 0.20785 0.14547 0.5607 0.0
O591 O 0.25141 0.09482 0.55115 0.0
H592 H 0.33938 0.12875 0.55473 0.0
H593 H 0.27761 0.21011 0.56263 0.0
H594 H 0.37632 0.1688 0.54746 0.0
H595 H 0.31558 0.24874 0.55518 0.0
H596 H 0.27617 0.98484 0.57678 0.0
H597 H 0.27089 0.10227 0.58545 0.0
H598 H 0.24673 0.02525 0.5676 0.0
H599 H 0.2997 0.06049 0.59435 0.0
H600 H 0.28253 0.21558 0.59177 0.0
H601 H 0.19169 0.16288 0.59717 0.0
H602 H 0.36309 0.02045 0.55076 0.0
H603 H 0.3836 0.06851 0.57471 0.0
H604 H 0.15114 0.1266 0.56769 0.0
H605 H 0.21694 0.20925 0.56385 0.0
H606 H 0.1138 0.16335 0.5759 0.0
H607 H 0.17848 0.24453 0.57218 0.0
H608 H 0.22138 0.11467 0.53708 0.0
H609 H 0.24656 0.02958 0.55226 0.0
H610 H 0.19314 0.0774 0.52688 0.0
H611 H 0.21763 0.9938 0.54181 0.0
H612 H 0.29118 0.17314 0.52594 0.0
H613 H 0.20411 0.22593 0.53448 0.0
H614 H 0.12882 0.01681 0.56874 0.0
H615 H 0.10916 0.0765 0.54647 0.0
Li616 Li 0.90704 0.77928 0.80912 0.0
Li617 Li 0.86607 0.74561 0.81627 0.0
Li618 Li 0.90967 0.72132 0.80754 0.0
Li619 Li 0.86534 0.75022 0.80048 0.0
C620 C 0.94031 0.76046 0.82231 0.0
N621 N 0.99291 0.79158 0.83021 0.0
C622 C 0.93493 0.77992 0.82951 0.0
C623 C 0.97247 0.75649 0.81919 0.0
C624 C 0.96184 0.79554 0.8334 0.0
C625 C 0.99873 0.7725 0.82326 0.0
C626 C 0.8262 0.79547 0.80933 0.0
C627 C 0.76783 0.78265 0.80945 0.0
N628 N 0.76077 0.81561 0.8095 0.0
C629 C 0.81839 0.82919 0.80939 0.0
C630 C 0.80075 0.77196 0.80936 0.0
C631 C 0.78515 0.83889 0.80947 0.0
C632 C 0.95524 0.82858 0.80519 0.0
N633 N 0.92921 0.82031 0.81022 0.0
C634 C 0.92956 0.87376 0.8167 0.0
C635 C 0.91637 0.84198 0.81594 0.0
C636 C 0.95604 0.88339 0.81147 0.0
C637 C 0.9692 0.86018 0.80573 0.0
H638 H 0.96459 0.81098 0.80062 0.0
H639 H 0.89549 0.83466 0.81981 0.0
C640 C 0.82322 0.7162 0.82855 0.0
N641 N 0.83976 0.74398 0.82615 0.0
C642 C 0.80561 0.71572 0.83618 0.0
C643 C 0.82125 0.77288 0.83847 0.0
C644 C 0.83862 0.77218 0.83084 0.0
C645 C 0.80489 0.74422 0.84131 0.0
H646 H 0.82392 0.69436 0.82461 0.0
H647 H 0.85149 0.79409 0.82865 0.0
C648 C 0.93335 0.74223 0.79222 0.0
N649 N 0.97378 0.71643 0.7797 0.0
C650 C 0.91951 0.72928 0.78479 0.0
C651 C 0.96777 0.74234 0.79323 0.0
C652 C 0.94037 0.71631 0.77854 0.0
C653 C 0.98777 0.72907 0.78685 0.0
C654 C 0.86278 0.67676 0.80613 0.0
C655 C 0.8619 0.66438 0.79785 0.0
C656 C 0.86711 0.6549 0.81293 0.0
C657 C 0.86505 0.63029 0.79652 0.0
C658 C 0.87033 0.621 0.81133 0.0
N659 N 0.8692 0.6095 0.80322 0.0
C660 C 0.94786 0.67095 0.81483 0.0
C661 C 0.94296 0.66511 0.79993 0.0
C662 C 0.96314 0.64002 0.81545 0.0
N663 N 0.93761 0.68266 0.80718 0.0
C664 C 0.95857 0.63427 0.80024 0.0
C665 C 0.96814 0.62107 0.8081 0.0
H666 H 0.94264 0.68491 0.82053 0.0
H667 H 0.93341 0.67391 0.79396 0.0
C668 C 0.84303 0.78051 0.7856 0.0
N669 N 0.83734 0.75474 0.79095 0.0
C670 C 0.82494 0.78346 0.7781 0.0
C671 C 0.79462 0.734 0.78194 0.0
C672 C 0.81298 0.73231 0.78942 0.0
C673 C 0.80099 0.75942 0.77605 0.0
H674 H 0.86228 0.79826 0.78708 0.0
H675 H 0.8085 0.71252 0.7939 0.0
O676 O 0.91422 0.74567 0.81827 0.0
O677 O 0.85866 0.78571 0.80924 0.0
O678 O 0.91337 0.75549 0.79835 0.0
O679 O 0.86041 0.71016 0.80756 0.0
H680 H 0.91024 0.78315 0.83203 0.0
H681 H 0.97707 0.74125 0.81367 0.0
H682 H 0.95801 0.81086 0.83894 0.0
H683 H 0.02373 0.76978 0.82088 0.0
H684 H 0.74788 0.76474 0.80947 0.0
H685 H 0.83784 0.84768 0.80937 0.0
H686 H 0.80629 0.74574 0.80933 0.0
H687 H 0.77873 0.86492 0.80952 0.0
H688 H 0.91895 0.89068 0.82128 0.0
H689 H 0.98931 0.86669 0.8015 0.0
H690 H 0.79342 0.69306 0.83812 0.0
H691 H 0.8207 0.79563 0.84212 0.0
H692 H 0.89298 0.7289 0.78387 0.0
H693 H 0.97895 0.75248 0.7989 0.0
H694 H 0.92999 0.70606 0.77278 0.0
H695 H 0.01443 0.72885 0.78758 0.0
H696 H 0.85956 0.68091 0.79249 0.0
H697 H 0.86884 0.66406 0.81936 0.0
H698 H 0.86454 0.62042 0.79014 0.0
H699 H 0.87399 0.60386 0.81652 0.0
H700 H 0.97025 0.63065 0.82163 0.0
H701 H 0.96145 0.62011 0.79445 0.0
H702 H 0.83022 0.80392 0.77387 0.0
H703 H 0.77671 0.71469 0.78065 0.0
Li704 Li 0.74703 0.63871 0.69215 0.0
Li705 Li 0.779 0.59547 0.68524 0.0
Li706 Li 0.75121 0.63885 0.67678 0.0
Li707 Li 0.71877 0.59595 0.68382 0.0
C708 C 0.81456 0.6518 0.69009 0.0
N709 N 0.86918 0.66628 0.69998 0.0
C710 C 0.81983 0.63487 0.69771 0.0
C711 C 0.83708 0.67607 0.6875 0.0
C712 C 0.84759 0.64255 0.70262 0.0
C713 C 0.86454 0.68305 0.69259 0.0
C714 C 0.74763 0.56255 0.69911 0.0
C715 C 0.74083 0.50354 0.70083 0.0
N716 N 0.75263 0.50592 0.70889 0.0
C717 C 0.75937 0.56447 0.70744 0.0
C718 C 0.73802 0.53189 0.69579 0.0
C719 C 0.76185 0.53553 0.71227 0.0
C720 C 0.71977 0.65442 0.7078 0.0
N721 N 0.74258 0.66478 0.70205 0.0
C722 C 0.75999 0.70837 0.71126 0.0
C723 C 0.76187 0.69177 0.70351 0.0
C724 C 0.73757 0.69746 0.7175 0.0
C725 C 0.71664 0.67062 0.71557 0.0
H726 H 0.70449 0.63308 0.7064 0.0
H727 H 0.77938 0.69991 0.69877 0.0
C728 C 0.84293 0.58372 0.68022 0.0
N729 N 0.81949 0.57101 0.68547 0.0
C730 C 0.87492 0.57072 0.68015 0.0
C731 C 0.85786 0.53064 0.69066 0.0
C732 C 0.82622 0.54477 0.69061 0.0
C733 C 0.88291 0.54389 0.68546 0.0
H734 H 0.83693 0.6047 0.67623 0.0
H735 H 0.80737 0.53495 0.69474 0.0
C736 C 0.70068 0.67699 0.68375 0.0
N737 N 0.68041 0.74239 0.68384 0.0
C738 C 0.66695 0.68474 0.68403 0.0
C739 C 0.72412 0.70249 0.68352 0.0
C740 C 0.65719 0.71796 0.68407 0.0
C741 C 0.71336 0.73539 0.68357 0.0
C742 C 0.74862 0.56413 0.6696 0.0
C743 C 0.73573 0.56846 0.66145 0.0
C744 C 0.75809 0.53254 0.6723 0.0
C745 C 0.73173 0.54088 0.65619 0.0
C746 C 0.75373 0.50558 0.66686 0.0
N747 N 0.7407 0.51026 0.65899 0.0
C748 C 0.78404 0.67362 0.66382 0.0
C749 C 0.72553 0.67084 0.66249 0.0
C750 C 0.78645 0.69078 0.65616 0.0
N751 N 0.75392 0.66405 0.66678 0.0
C752 C 0.72675 0.68806 0.65483 0.0
C753 C 0.75753 0.69806 0.65155 0.0
H754 H 0.80618 0.66753 0.66737 0.0
H755 H 0.702 0.66241 0.66497 0.0
C756 C 0.66299 0.56375 0.69045 0.0
N757 N 0.67845 0.57197 0.68309 0.0
C758 C 0.63149 0.54952 0.6903 0.0
C759 C 0.6323 0.55264 0.67498 0.0
C760 C 0.66379 0.56686 0.67544 0.0
C761 C 0.61558 0.54415 0.68249 0.0
H762 H 0.67477 0.56907 0.69646 0.0
H763 H 0.67594 0.57498 0.6697 0.0
O764 O 0.78768 0.64461 0.68512 0.0
O765 O 0.74487 0.59072 0.69433 0.0
O766 O 0.71049 0.64453 0.68373 0.0
O767 O 0.75293 0.59094 0.67479 0.0
H768 H 0.80274 0.61599 0.69979 0.0
H769 H 0.83334 0.68938 0.68161 0.0
H770 H 0.85197 0.62962 0.70853 0.0
H771 H 0.88217 0.70179 0.69067 0.0
H772 H 0.73357 0.47965 0.69833 0.0
H773 H 0.76645 0.58807 0.71015 0.0
H774 H 0.72836 0.53 0.68942 0.0
H775 H 0.77103 0.53663 0.71871 0.0
H776 H 0.77694 0.72864 0.71244 0.0
H777 H 0.69845 0.66175 0.72008 0.0
H778 H 0.89338 0.58227 0.67614 0.0
H779 H 0.86261 0.50963 0.69476 0.0
H780 H 0.64852 0.66525 0.68421 0.0
H781 H 0.75033 0.69703 0.68329 0.0
H782 H 0.63116 0.72433 0.68428 0.0
H783 H 0.73123 0.75537 0.68339 0.0
H784 H 0.72868 0.59287 0.65923 0.0
H785 H 0.76895 0.52888 0.6785 0.0
H786 H 0.72153 0.54381 0.64989 0.0
H787 H 0.76082 0.48095 0.66887 0.0
H788 H 0.81061 0.69826 0.65386 0.0
H789 H 0.70393 0.69272 0.65141 0.0
H790 H 0.61955 0.5432 0.69623 0.0
H791 H 0.62066 0.54957 0.66884 0.0
Li792 Li 0.36154 0.2501 0.94392 0.0
Li793 Li 0.40006 0.28117 0.93599 0.0
Li794 Li 0.35918 0.24851 0.92878 0.0
Li795 Li 0.40704 0.22089 0.93608 0.0
C796 C 0.32858 0.3022 0.94115 0.0
N797 N 0.28259 0.33067 0.95191 0.0
C798 C 0.33888 0.32379 0.94757 0.0
C799 C 0.29485 0.29521 0.94019 0.0
C800 C 0.31526 0.33789 0.95295 0.0
C801 C 0.272 0.30984 0.94569 0.0
C802 C 0.43889 0.26565 0.94909 0.0
C803 C 0.49822 0.26479 0.95103 0.0
N804 N 0.49615 0.29298 0.95573 0.0
C805 C 0.43737 0.29459 0.95396 0.0
C806 C 0.46958 0.25061 0.94762 0.0
C807 C 0.46659 0.30803 0.95725 0.0
C808 C 0.30571 0.23529 0.95463 0.0
N809 N 0.33714 0.2474 0.95426 0.0
C810 C 0.33758 0.2566 0.9692 0.0
C811 C 0.35317 0.2578 0.96134 0.0
C812 C 0.30515 0.24421 0.96982 0.0
C813 C 0.28904 0.23363 0.9624 0.0
H814 H 0.29355 0.22694 0.94892 0.0
H815 H 0.37816 0.26703 0.96089 0.0
C816 C 0.40269 0.34953 0.93332 0.0
N817 N 0.42259 0.32308 0.93494 0.0
C818 C 0.41601 0.38125 0.93259 0.0
C819 C 0.47048 0.35808 0.93488 0.0
C820 C 0.45606 0.32668 0.93552 0.0
C821 C 0.4503 0.38592 0.93347 0.0
H822 H 0.37631 0.34608 0.9326 0.0
H823 H 0.47164 0.30526 0.93648 0.0
C824 C 0.33827 0.18828 0.93264 0.0
N825 N 0.29745 0.14501 0.92395 0.0
C826 C 0.3511 0.1589 0.92928 0.0
C827 C 0.30461 0.1955 0.93164 0.0
C828 C 0.33007 0.13737 0.9249 0.0
C829 C 0.2844 0.17337 0.9272 0.0
C830 C 0.42791 0.26816 0.9212 0.0
C831 C 0.4151 0.29259 0.91583 0.0
C832 C 0.46209 0.26283 0.92156 0.0
C833 C 0.43688 0.31161 0.91096 0.0
C834 C 0.48303 0.28234 0.91658 0.0
N835 N 0.4701 0.30614 0.91143 0.0
C836 C 0.3113 0.27026 0.91691 0.0
C837 C 0.34088 0.22176 0.91306 0.0
C838 C 0.2945 0.27009 0.90917 0.0
N839 N 0.33382 0.24622 0.9187 0.0
C840 C 0.32459 0.22055 0.90526 0.0
C841 C 0.30125 0.24511 0.90321 0.0
H842 H 0.30698 0.29002 0.9214 0.0
H843 H 0.35969 0.20358 0.91456 0.0
C844 C 0.43587 0.16535 0.94346 0.0
N845 N 0.4338 0.18255 0.93608 0.0
C846 C 0.45108 0.13432 0.94365 0.0
C847 C 0.46224 0.13961 0.92863 0.0
C848 C 0.44692 0.17066 0.92875 0.0
C849 C 0.46393 0.12078 0.93613 0.0
H850 H 0.4246 0.1753 0.94915 0.0
H851 H 0.44431 0.18471 0.92294 0.0
O852 O 0.35149 0.2874 0.93599 0.0
O853 O 0.41052 0.25188 0.94588 0.0
O854 O 0.35857 0.20988 0.93686 0.0
O855 O 0.40707 0.24985 0.92616 0.0
H856 H 0.36486 0.32933 0.94844 0.0
H857 H 0.2864 0.27831 0.93533 0.0
H858 H 0.32293 0.35448 0.95797 0.0
H859 H 0.24585 0.30449 0.94505 0.0
H860 H 0.52212 0.25344 0.94991 0.0
H861 H 0.41399 0.30686 0.95511 0.0
H862 H 0.47139 0.22838 0.94383 0.0
H863 H 0.46576 0.33051 0.96098 0.0
H864 H 0.35074 0.2656 0.97472 0.0
H865 H 0.2641 0.22377 0.96261 0.0
H866 H 0.3995 0.402 0.93153 0.0
H867 H 0.49713 0.36051 0.93543 0.0
H868 H 0.37701 0.15276 0.93002 0.0
H869 H 0.29431 0.21826 0.93411 0.0
H870 H 0.3397 0.11461 0.92224 0.0
H871 H 0.25838 0.17882 0.92631 0.0
H872 H 0.38867 0.29702 0.91552 0.0
H873 H 0.47234 0.24412 0.92573 0.0
H874 H 0.42737 0.33076 0.90682 0.0
H875 H 0.50957 0.27866 0.91682 0.0
H876 H 0.27662 0.28944 0.90785 0.0
H877 H 0.331 0.20124 0.90078 0.0
H878 H 0.45142 0.12047 0.94953 0.0
H879 H 0.47205 0.13016 0.92271 0.0
Li880 Li 0.75077 0.8563 0.1916 0.0
Li881 Li 0.71913 0.90174 0.18486 0.0
Li882 Li 0.75012 0.86058 0.17661 0.0
Li883 Li 0.78056 0.90107 0.18517 0.0
C884 C 0.69239 0.83192 0.17961 0.0
N885 N 0.65474 0.78939 0.16981 0.0
C886 C 0.66232 0.84262 0.17615 0.0
C887 C 0.70309 0.79946 0.17817 0.0
C888 C 0.64369 0.82077 0.1712 0.0
C889 C 0.68379 0.77838 0.17317 0.0
C890 C 0.74831 0.935 0.19845 0.0
C891 C 0.7433 0.99428 0.19696 0.0
N892 N 0.74524 0.99755 0.20553 0.0
C893 C 0.75011 0.93892 0.20724 0.0
C894 C 0.74477 0.96287 0.19326 0.0
C895 C 0.74859 0.97076 0.2107 0.0
C896 C 0.76882 0.83841 0.20802 0.0
N897 N 0.75062 0.82836 0.20124 0.0
C898 C 0.72733 0.78392 0.20926 0.0
C899 C 0.73058 0.80135 0.20166 0.0
C900 C 0.74479 0.79458 0.21648 0.0
C901 C 0.76645 0.82166 0.21573 0.0
H902 H 0.78413 0.86032 0.20752 0.0
H903 H 0.71607 0.79418 0.1962 0.0
C904 C 0.66614 0.93653 0.17754 0.0
N905 N 0.67968 0.92711 0.18505 0.0
C906 C 0.63505 0.95171 0.17734 0.0
C907 C 0.63326 0.9486 0.19265 0.0
C908 C 0.66417 0.93306 0.19254 0.0
C909 C 0.61789 0.95753 0.18497 0.0
H910 H 0.67892 0.93098 0.17168 0.0
H911 H 0.67546 0.92502 0.19841 0.0
C912 C 0.80825 0.83132 0.18825 0.0
N913 N 0.84552 0.78717 0.19767 0.0
C914 C 0.83222 0.84297 0.19392 0.0
C915 C 0.80338 0.79722 0.18734 0.0
C916 C 0.85078 0.82025 0.19863 0.0
C917 C 0.82242 0.7753 0.19217 0.0
C918 C 0.76396 0.9274 0.16904 0.0
C919 C 0.78759 0.91279 0.16374 0.0
C920 C 0.75448 0.96028 0.16765 0.0
C921 C 0.80177 0.93151 0.15723 0.0
C922 C 0.76921 0.97817 0.16107 0.0
N923 N 0.79238 0.96355 0.15604 0.0
C924 C 0.7249 0.84612 0.16048 0.0
C925 C 0.77427 0.81722 0.16391 0.0
C926 C 0.72396 0.83134 0.15249 0.0
N927 N 0.74961 0.83861 0.166 0.0
C928 C 0.77463 0.80225 0.15593 0.0
C929 C 0.74921 0.80922 0.15008 0.0
H930 H 0.70595 0.86371 0.16228 0.0
H931 H 0.79401 0.81233 0.16838 0.0
C932 C 0.82925 0.94735 0.19177 0.0
N933 N 0.82137 0.92524 0.18557 0.0
C934 C 0.86108 0.96083 0.1922 0.0
C935 C 0.87621 0.92867 0.17988 0.0
C936 C 0.8442 0.91569 0.17972 0.0
C937 C 0.8851 0.95129 0.18624 0.0
H938 H 0.81146 0.9538 0.19658 0.0
H939 H 0.83797 0.89686 0.17512 0.0
O940 O 0.71122 0.85313 0.18437 0.0
O941 O 0.74931 0.90392 0.195 0.0
O942 O 0.78935 0.85319 0.18371 0.0
O943 O 0.74955 0.90949 0.17542 0.0
H944 H 0.65347 0.86752 0.17726 0.0
H945 H 0.72629 0.79078 0.18078 0.0
H946 H 0.62045 0.82877 0.16846 0.0
H947 H 0.69194 0.75329 0.17194 0.0
H948 H 0.74063 0.01606 0.19301 0.0
H949 H 0.75266 0.91756 0.21135 0.0
H950 H 0.74327 0.96028 0.18646 0.0
H951 H 0.75002 0.97417 0.2175 0.0
H952 H 0.71047 0.76308 0.20958 0.0
H953 H 0.77991 0.83107 0.22117 0.0
H954 H 0.62411 0.95759 0.17125 0.0
H955 H 0.62137 0.95311 0.1987 0.0
H956 H 0.83617 0.86926 0.19477 0.0
H957 H 0.78497 0.78776 0.18298 0.0
H958 H 0.86928 0.82892 0.20307 0.0
H959 H 0.81881 0.74885 0.19155 0.0
H960 H 0.79513 0.88735 0.16468 0.0
H961 H 0.73582 0.97186 0.17159 0.0
H962 H 0.82023 0.92055 0.15312 0.0
H963 H 0.76217 0.00367 0.15994 0.0
H964 H 0.70359 0.83716 0.14828 0.0
H965 H 0.795 0.78596 0.15432 0.0
H966 H 0.86697 0.97821 0.19722 0.0
H967 H 0.89418 0.92005 0.17528 0.0
Li968 Li 0.09632 0.21818 0.43427 0.0
Li969 Li 0.14246 0.24791 0.44169 0.0
Li970 Li 0.10087 0.28067 0.43423 0.0
Li971 Li 0.1403 0.24483 0.42689 0.0
C972 C 0.0631 0.25417 0.44732 0.0
N973 N 0.00029 0.26245 0.45394 0.0
C974 C 0.05887 0.25945 0.45601 0.0
C975 C 0.03544 0.2532 0.44198 0.0
C976 C 0.02689 0.26355 0.45923 0.0
C977 C 0.00388 0.2574 0.44545 0.0
C978 C 0.1659 0.18621 0.43093 0.0
C979 C 0.22176 0.17207 0.42681 0.0
N980 N 0.21013 0.14478 0.42272 0.0
C981 C 0.15461 0.15769 0.4268 0.0
C982 C 0.19982 0.19315 0.43104 0.0
C983 C 0.17731 0.13718 0.42265 0.0
C984 C 0.06283 0.1631 0.42754 0.0
N985 N 0.06788 0.18058 0.43478 0.0
C986 C 0.0389 0.1397 0.44287 0.0
C987 C 0.05606 0.16971 0.44236 0.0
C988 C 0.03456 0.12025 0.43554 0.0
C989 C 0.04639 0.1327 0.42777 0.0
H990 H 0.07334 0.17181 0.42164 0.0
H991 H 0.06085 0.18379 0.44806 0.0
C992 C 0.16337 0.2726 0.45748 0.0
N993 N 0.16757 0.24747 0.45183 0.0
C994 C 0.17829 0.27107 0.46546 0.0
C995 C 0.20175 0.21798 0.46162 0.0
C996 C 0.18662 0.22067 0.45369 0.0
C997 C 0.19708 0.24309 0.46767 0.0
H998 H 0.14733 0.29318 0.4559 0.0
H999 H 0.18893 0.20073 0.44916 0.0
C1000 C 0.09036 0.25721 0.41626 0.0
N1001 N 0.09094 0.27194 0.39913 0.0
C1002 C 0.10724 0.28518 0.4133 0.0
C1003 C 0.07337 0.23702 0.41052 0.0
C1004 C 0.10737 0.29212 0.40462 0.0
C1005 C 0.07404 0.24483 0.40188 0.0
C1006 C 0.17375 0.30342 0.43752 0.0
C1007 C 0.16584 0.33362 0.44136 0.0
C1008 C 0.2065 0.29217 0.43772 0.0
C1009 C 0.19055 0.35149 0.44556 0.0
C1010 C 0.23053 0.31071 0.44198 0.0
N1011 N 0.22211 0.33972 0.4458 0.0
C1012 C 0.07521 0.33634 0.44257 0.0
C1013 C 0.06189 0.33472 0.42794 0.0
C1014 C 0.06058 0.36751 0.44337 0.0
N1015 N 0.0764 0.32105 0.43489 0.0
C1016 C 0.04696 0.36588 0.42845 0.0
C1017 C 0.04678 0.383 0.43621 0.0
H1018 H 0.08667 0.32475 0.44802 0.0
H1019 H 0.06238 0.32185 0.42194 0.0
C1020 C 0.15763 0.21592 0.4112 0.0
N1021 N 0.16573 0.24037 0.41676 0.0
C1022 C 0.17364 0.2137 0.40339 0.0
C1023 C 0.20638 0.26163 0.40721 0.0
C1024 C 0.18972 0.2629 0.41495 0.0
C1025 C 0.19811 0.23701 0.40127 0.0
H1026 H 0.13803 0.19868 0.41275 0.0
H1027 H 0.19517 0.28249 0.41941 0.0
O1028 O 0.09429 0.25052 0.44406 0.0
O1029 O 0.14393 0.20686 0.43494 0.0
O1030 O 0.09077 0.24952 0.42472 0.0
O1031 O 0.14975 0.28532 0.43347 0.0
H1032 H 0.0801 0.26043 0.4602 0.0
H1033 H 0.03828 0.2493 0.43523 0.0
H1034 H 0.02322 0.26765 0.46595 0.0
H1035 H 0.98224 0.25669 0.44141 0.0
H1036 H 0.24804 0.17736 0.4268 0.0
H1037 H 0.12865 0.15144 0.42677 0.0
H1038 H 0.20918 0.21447 0.43438 0.0
H1039 H 0.16881 0.11521 0.41938 0.0
H1040 H 0.02978 0.13158 0.44898 0.0
H1041 H 0.04444 0.11849 0.42197 0.0
H1042 H 0.17364 0.29065 0.47 0.0
H1043 H 0.21606 0.19602 0.4631 0.0
H1044 H 0.12054 0.30109 0.41765 0.0
H1045 H 0.05973 0.21559 0.41269 0.0
H1046 H 0.12062 0.31348 0.40223 0.0
H1047 H 0.06112 0.22933 0.39736 0.0
H1048 H 0.14096 0.3433 0.44109 0.0
H1049 H 0.21339 0.26946 0.43458 0.0
H1050 H 0.18464 0.37477 0.44861 0.0
H1051 H 0.2559 0.30209 0.44222 0.0
H1052 H 0.06041 0.37951 0.44952 0.0
H1053 H 0.03667 0.37688 0.42276 0.0
H1054 H 0.1667 0.19416 0.39904 0.0
H1055 H 0.2247 0.28042 0.40577 0.0
Li1056 Li 0.71626 0.9069 0.56155 0.0
Li1057 Li 0.7491 0.86365 0.5683 0.0
Li1058 Li 0.77556 0.90615 0.55963 0.0
Li1059 Li 0.74166 0.86264 0.55325 0.0
C1060 C 0.73767 0.93457 0.57571 0.0
N1061 N 0.7079 0.98001 0.58637 0.0
C1062 C 0.72352 0.92414 0.58334 0.0
C1063 C 0.73692 0.96813 0.57352 0.0
C1064 C 0.70854 0.9475 0.58864 0.0
C1065 C 0.72167 0.99071 0.57898 0.0
C1066 C 0.68512 0.83805 0.55828 0.0
C1067 C 0.67005 0.78378 0.55315 0.0
N1068 N 0.64171 0.79662 0.54983 0.0
C1069 C 0.6558 0.8507 0.55483 0.0
C1070 C 0.69227 0.8043 0.55746 0.0
C1071 C 0.63418 0.82934 0.55058 0.0
C1072 C 0.66691 0.95272 0.55633 0.0
N1073 N 0.67691 0.93217 0.56266 0.0
C1074 C 0.62574 0.93972 0.57 0.0
C1075 C 0.65719 0.92561 0.56944 0.0
C1076 C 0.61406 0.96012 0.56342 0.0
C1077 C 0.6354 0.96706 0.55658 0.0
H1078 H 0.68279 0.95676 0.55091 0.0
H1079 H 0.6654 0.90835 0.57424 0.0
C1080 C 0.77649 0.8486 0.58417 0.0
N1081 N 0.75366 0.83861 0.57838 0.0
C1082 C 0.77926 0.83224 0.59193 0.0
C1083 C 0.73524 0.79533 0.58754 0.0
C1084 C 0.7333 0.81247 0.57987 0.0
C1085 C 0.75817 0.80544 0.59374 0.0
H1086 H 0.79202 0.86981 0.58283 0.0
H1087 H 0.71516 0.8053 0.57519 0.0
C1088 C 0.75506 0.93148 0.5451 0.0
N1089 N 0.78655 0.97312 0.53377 0.0
C1090 C 0.76945 0.9186 0.53774 0.0
C1091 C 0.75642 0.96553 0.54666 0.0
C1092 C 0.78531 0.94007 0.53209 0.0
C1093 C 0.77254 0.98617 0.54087 0.0
C1094 C 0.8048 0.8372 0.56363 0.0
C1095 C 0.83287 0.8502 0.56762 0.0
C1096 C 0.79794 0.80334 0.56427 0.0
C1097 C 0.85355 0.82907 0.57224 0.0
C1098 C 0.8192 0.78305 0.56896 0.0
N1099 N 0.84633 0.79623 0.57281 0.0
C1100 C 0.82517 0.95272 0.56427 0.0
C1101 C 0.83557 0.92211 0.55172 0.0
C1102 C 0.85661 0.96713 0.56384 0.0
N1103 N 0.81546 0.93051 0.55829 0.0
C1104 C 0.867 0.93616 0.55099 0.0
C1105 C 0.87824 0.95854 0.55719 0.0
H1106 H 0.80904 0.95823 0.56956 0.0
H1107 H 0.82756 0.90365 0.54719 0.0
C1108 C 0.71177 0.84462 0.53788 0.0
N1109 N 0.73656 0.83664 0.54334 0.0
C1110 C 0.70911 0.82843 0.53009 0.0
C1111 C 0.75732 0.79582 0.53377 0.0
C1112 C 0.75893 0.81254 0.54151 0.0
C1113 C 0.73253 0.80416 0.52787 0.0
H1114 H 0.69466 0.8643 0.53947 0.0
H1115 H 0.77877 0.8072 0.54591 0.0
O1116 O 0.75212 0.91205 0.57039 0.0
O1117 O 0.70688 0.85863 0.56235 0.0
O1118 O 0.73979 0.91084 0.55076 0.0
O1119 O 0.78381 0.8576 0.55924 0.0
H1120 H 0.72373 0.89825 0.58512 0.0
H1121 H 0.74785 0.9766 0.56764 0.0
H1122 H 0.69732 0.93976 0.59455 0.0
H1123 H 0.72077 0.01673 0.57735 0.0
H1124 H 0.6754 0.75766 0.55243 0.0
H1125 H 0.64987 0.87674 0.55535 0.0
H1126 H 0.71499 0.79414 0.56002 0.0
H1127 H 0.61147 0.83882 0.54786 0.0
H1128 H 0.61047 0.93402 0.57546 0.0
H1129 H 0.62735 0.98216 0.55129 0.0
H1130 H 0.79694 0.84117 0.59657 0.0
H1131 H 0.71878 0.77458 0.58864 0.0
H1132 H 0.76872 0.8923 0.53644 0.0
H1133 H 0.74526 0.97589 0.55231 0.0
H1134 H 0.79672 0.93044 0.52639 0.0
H1135 H 0.77393 0.01256 0.54202 0.0
H1136 H 0.83847 0.87636 0.56724 0.0
H1137 H 0.7762 0.79291 0.56127 0.0
H1138 H 0.87528 0.83882 0.57539 0.0
H1139 H 0.81407 0.75684 0.56956 0.0
H1140 H 0.86432 0.98376 0.56885 0.0
H1141 H 0.88253 0.92909 0.54569 0.0
H1142 H 0.68946 0.83546 0.52577 0.0
H1143 H 0.77628 0.77775 0.53227 0.0
Li1144 Li 0.14062 0.24948 0.81926 0.0
Li1145 Li 0.09745 0.21977 0.81161 0.0
Li1146 Li 0.14183 0.24853 0.80384 0.0
Li1147 Li 0.09879 0.28019 0.81099 0.0
C1148 C 0.17805 0.19953 0.81184 0.0
N1149 N 0.24295 0.17771 0.8119 0.0
C1150 C 0.18502 0.16565 0.81145 0.0
C1151 C 0.20408 0.22234 0.81227 0.0
C1152 C 0.218 0.15511 0.81149 0.0
C1153 C 0.23672 0.21081 0.81229 0.0
C1154 C 0.06312 0.24883 0.82535 0.0
C1155 C 0.00368 0.25442 0.82596 0.0
N1156 N 0.004 0.24247 0.83403 0.0
C1157 C 0.06292 0.23693 0.83368 0.0
C1158 C 0.03334 0.25793 0.82148 0.0
C1159 C 0.03275 0.23375 0.83795 0.0
C1160 C 0.1772 0.27743 0.83271 0.0
N1161 N 0.16496 0.24883 0.82943 0.0
C1162 C 0.18403 0.21804 0.84139 0.0
C1163 C 0.16813 0.21944 0.83355 0.0
C1164 C 0.19657 0.24724 0.84504 0.0
C1165 C 0.19328 0.2772 0.84055 0.0
H1166 H 0.17381 0.30048 0.82931 0.0
H1167 H 0.15784 0.19717 0.83078 0.0
C1168 C 0.06514 0.16562 0.80417 0.0
N1169 N 0.07216 0.1803 0.81172 0.0
C1170 C 0.05015 0.13447 0.80397 0.0
C1171 C 0.04989 0.13416 0.81931 0.0
C1172 C 0.06495 0.16529 0.81921 0.0
C1173 C 0.04272 0.11816 0.81161 0.0
H1174 H 0.07208 0.17769 0.79831 0.0
H1175 H 0.07208 0.17686 0.82511 0.0
C1176 C 0.15719 0.31524 0.80708 0.0
N1177 N 0.17553 0.37153 0.79828 0.0
C1178 C 0.14052 0.32414 0.79965 0.0
C1179 C 0.18318 0.33497 0.81004 0.0
C1180 C 0.15014 0.35269 0.79529 0.0
C1181 C 0.19211 0.36333 0.80549 0.0
C1182 C 0.06927 0.25239 0.79569 0.0
C1183 C 0.07637 0.26622 0.78777 0.0
C1184 C 0.03695 0.24214 0.79752 0.0
C1185 C 0.05084 0.27026 0.78187 0.0
C1186 C 0.01211 0.24658 0.79145 0.0
N1187 N 0.01951 0.26047 0.78382 0.0
C1188 C 0.15764 0.22263 0.78811 0.0
C1189 C 0.19444 0.26523 0.79238 0.0
C1190 C 0.17308 0.22051 0.78022 0.0
N1191 N 0.16799 0.24526 0.7939 0.0
C1192 C 0.2103 0.26435 0.78452 0.0
C1193 C 0.19918 0.24226 0.77822 0.0
H1194 H 0.13675 0.20681 0.78956 0.0
H1195 H 0.20267 0.28255 0.79716 0.0
C1196 C 0.08735 0.34393 0.81649 0.0
N1197 N 0.07516 0.32116 0.81095 0.0
C1198 C 0.07509 0.37622 0.81652 0.0
C1199 C 0.03669 0.36075 0.80544 0.0
C1200 C 0.05003 0.32878 0.80554 0.0
C1201 C 0.0497 0.38505 0.81087 0.0
H1202 H 0.10737 0.33715 0.82071 0.0
H1203 H 0.04075 0.31046 0.80117 0.0
O1204 O 0.14583 0.2101 0.81179 0.0
O1205 O 0.09248 0.25204 0.82111 0.0
O1206 O 0.14811 0.2875 0.81149 0.0
O1207 O 0.09406 0.24799 0.80151 0.0
H1208 H 0.16512 0.14771 0.81111 0.0
H1209 H 0.19924 0.24865 0.81259 0.0
H1210 H 0.22377 0.12895 0.81118 0.0
H1211 H 0.2571 0.22817 0.81262 0.0
H1212 H 0.98042 0.26128 0.82303 0.0
H1213 H 0.08585 0.23 0.83678 0.0
H1214 H 0.03311 0.26776 0.81511 0.0
H1215 H 0.0322 0.22438 0.84437 0.0
H1216 H 0.18638 0.19438 0.84458 0.0
H1217 H 0.20218 0.30034 0.84318 0.0
H1218 H 0.04491 0.12308 0.79789 0.0
H1219 H 0.04521 0.12218 0.82534 0.0
H1220 H 0.12028 0.30928 0.7973 0.0
H1221 H 0.19637 0.3284 0.81578 0.0
H1222 H 0.1374 0.35988 0.78954 0.0
H1223 H 0.2122 0.37883 0.80771 0.0
H1224 H 0.10136 0.27366 0.78616 0.0
H1225 H 0.03108 0.23074 0.80354 0.0
H1226 H 0.05597 0.28107 0.77573 0.0
H1227 H 0.98698 0.23889 0.79279 0.0
H1228 H 0.16414 0.20251 0.77567 0.0
H1229 H 0.23008 0.28181 0.78329 0.0
H1230 H 0.08551 0.39417 0.82088 0.0
H1231 H 0.01722 0.3667 0.80095 0.0
Li1232 Li 0.74708 0.6395 0.06747 0.0
Li1233 Li 0.77791 0.59522 0.06038 0.0
Li1234 Li 0.74867 0.63724 0.05246 0.0
Li1235 Li 0.71745 0.59527 0.0604 0.0
C1236 C 0.80346 0.66933 0.05655 0.0
N1237 N 0.83621 0.72128 0.04877 0.0
C1238 C 0.8352 0.66467 0.05321 0.0
C1239 C 0.7887 0.7006 0.05608 0.0
C1240 C 0.85128 0.69119 0.04927 0.0
C1241 C 0.80553 0.72649 0.05208 0.0
C1242 C 0.76403 0.58587 0.07774 0.0
C1243 C 0.76978 0.55827 0.09123 0.0
N1244 N 0.79799 0.57574 0.09275 0.0
C1245 C 0.7931 0.60357 0.07943 0.0
C1246 C 0.75225 0.56307 0.08369 0.0
C1247 C 0.80989 0.59809 0.08706 0.0
C1248 C 0.72254 0.66029 0.08322 0.0
N1249 N 0.74622 0.66663 0.07731 0.0
C1250 C 0.77105 0.7074 0.08626 0.0
C1251 C 0.7703 0.68957 0.07868 0.0
C1252 C 0.74664 0.7016 0.09242 0.0
C1253 C 0.72198 0.67794 0.09081 0.0
H1254 H 0.70459 0.6409 0.08212 0.0
H1255 H 0.78947 0.69338 0.074 0.0
C1256 C 0.83631 0.57296 0.05309 0.0
N1257 N 0.81688 0.56843 0.06003 0.0
C1258 C 0.86739 0.55793 0.05259 0.0
C1259 C 0.85687 0.53176 0.06611 0.0
C1260 C 0.82593 0.54725 0.06633 0.0
C1261 C 0.87841 0.53775 0.05928 0.0
H1262 H 0.82802 0.58919 0.04805 0.0
H1263 H 0.80958 0.54276 0.07162 0.0
C1264 C 0.68701 0.66371 0.06366 0.0
N1265 N 0.64303 0.70444 0.07217 0.0
C1266 C 0.66167 0.65003 0.06859 0.0
C1267 C 0.68958 0.69816 0.06295 0.0
C1268 C 0.63979 0.67101 0.07287 0.0
C1269 C 0.66723 0.71831 0.06734 0.0
C1270 C 0.74799 0.55578 0.04835 0.0
C1271 C 0.74914 0.54682 0.0398 0.0
C1272 C 0.74686 0.53114 0.05459 0.0
C1273 C 0.74909 0.51327 0.03761 0.0
C1274 C 0.74684 0.49787 0.05214 0.0
N1275 N 0.74794 0.4897 0.04377 0.0
C1276 C 0.77388 0.65636 0.0365 0.0
C1277 C 0.72169 0.67946 0.04012 0.0
C1278 C 0.77213 0.67029 0.02841 0.0
N1279 N 0.74866 0.66087 0.0421 0.0
C1280 C 0.71882 0.69365 0.03209 0.0
C1281 C 0.7439 0.68848 0.02606 0.0
H1282 H 0.79473 0.6409 0.03823 0.0
H1283 H 0.70179 0.68215 0.04465 0.0
C1284 C 0.66687 0.55531 0.06754 0.0
N1285 N 0.67833 0.56936 0.06028 0.0
C1286 C 0.63591 0.53985 0.06766 0.0
C1287 C 0.62991 0.55241 0.05273 0.0
C1288 C 0.66087 0.56781 0.05293 0.0
C1289 C 0.61669 0.53875 0.06021 0.0
H1290 H 0.68113 0.55741 0.07332 0.0
H1291 H 0.67066 0.57935 0.04726 0.0
O1292 O 0.78703 0.64355 0.06033 0.0
O1293 O 0.74671 0.59116 0.07039 0.0
O1294 O 0.70886 0.64352 0.05947 0.0
O1295 O 0.74813 0.58856 0.05056 0.0
H1296 H 0.84747 0.64097 0.0537 0.0
H1297 H 0.76446 0.70475 0.05876 0.0
H1298 H 0.87579 0.68786 0.04662 0.0
H1299 H 0.79422 0.75073 0.05162 0.0
H1300 H 0.76095 0.54067 0.09589 0.0
H1301 H 0.80275 0.62128 0.07493 0.0
H1302 H 0.72979 0.54919 0.08249 0.0
H1303 H 0.8324 0.6116 0.08844 0.0
H1304 H 0.79055 0.72536 0.08733 0.0
H1305 H 0.70318 0.67236 0.0955 0.0
H1306 H 0.88313 0.56318 0.04719 0.0
H1307 H 0.86406 0.51565 0.07129 0.0
H1308 H 0.65913 0.62353 0.06922 0.0
H1309 H 0.70844 0.70931 0.05903 0.0
H1310 H 0.62028 0.6607 0.07676 0.0
H1311 H 0.66907 0.745 0.06687 0.0
H1312 H 0.75008 0.56564 0.03491 0.0
H1313 H 0.74602 0.53753 0.06124 0.0
H1314 H 0.74996 0.50597 0.03101 0.0
H1315 H 0.74597 0.47855 0.05689 0.0
H1316 H 0.79176 0.66537 0.02389 0.0
H1317 H 0.69674 0.70765 0.03052 0.0
H1318 H 0.62661 0.53009 0.07359 0.0
H1319 H 0.61629 0.55165 0.04682 0.0
Li1320 Li 0.36293 0.25312 0.31805 0.0
Li1321 Li 0.40539 0.28514 0.3115 0.0
Li1322 Li 0.36493 0.2552 0.30307 0.0
Li1323 Li 0.40556 0.22357 0.31091 0.0
C1324 C 0.32477 0.30244 0.3103 0.0
N1325 N 0.25937 0.32211 0.309 0.0
C1326 C 0.3169 0.33598 0.30941 0.0
C1327 C 0.29938 0.27887 0.31051 0.0
C1328 C 0.28368 0.34544 0.30877 0.0
C1329 C 0.26648 0.28933 0.30985 0.0
C1330 C 0.41139 0.25387 0.32947 0.0
C1331 C 0.41978 0.22715 0.34299 0.0
N1332 N 0.41007 0.25537 0.347 0.0
C1333 C 0.40187 0.28274 0.33373 0.0
C1334 C 0.4207 0.22593 0.33414 0.0
C1335 C 0.40119 0.28295 0.34259 0.0
C1336 C 0.33158 0.22049 0.33147 0.0
N1337 N 0.3355 0.25069 0.3278 0.0
C1338 C 0.30611 0.27692 0.33908 0.0
C1339 C 0.32281 0.27863 0.33136 0.0
C1340 C 0.30248 0.24618 0.34317 0.0
C1341 C 0.31499 0.21763 0.3392 0.0
H1342 H 0.34238 0.19881 0.32853 0.0
H1343 H 0.32676 0.3024 0.32836 0.0
C1344 C 0.42812 0.34325 0.30437 0.0
N1345 N 0.42993 0.32494 0.31158 0.0
C1346 C 0.44205 0.37482 0.30407 0.0
C1347 C 0.46009 0.3678 0.31859 0.0
C1348 C 0.44618 0.3361 0.31856 0.0
C1349 C 0.45755 0.38791 0.31132 0.0
H1350 H 0.41508 0.33354 0.29891 0.0
H1351 H 0.44755 0.32086 0.32418 0.0
C1352 C 0.35171 0.1886 0.30514 0.0
N1353 N 0.34082 0.13393 0.29496 0.0
C1354 C 0.36991 0.18437 0.29767 0.0
C1355 C 0.32803 0.16499 0.30743 0.0
C1356 C 0.36403 0.15657 0.29261 0.0
C1357 C 0.32287 0.13753 0.3022 0.0
C1358 C 0.44611 0.25696 0.29912 0.0
C1359 C 0.4547 0.25597 0.29054 0.0
C1360 C 0.47099 0.25927 0.30527 0.0
C1361 C 0.48812 0.25709 0.28824 0.0
C1362 C 0.50412 0.26035 0.30271 0.0
N1363 N 0.51193 0.25924 0.29433 0.0
C1364 C 0.35521 0.27887 0.28684 0.0
C1365 C 0.31346 0.24094 0.29105 0.0
C1366 C 0.34146 0.28126 0.27875 0.0
N1367 N 0.34148 0.25849 0.29271 0.0
C1368 C 0.29898 0.2424 0.28301 0.0
C1369 C 0.3134 0.26228 0.27668 0.0
H1370 H 0.37732 0.29275 0.2884 0.0
H1371 H 0.30287 0.22514 0.29588 0.0
C1372 C 0.41793 0.16098 0.31702 0.0
N1373 N 0.42943 0.18282 0.31116 0.0
C1374 C 0.43109 0.12911 0.31753 0.0
C1375 C 0.46757 0.14247 0.30586 0.0
C1376 C 0.45364 0.17417 0.30558 0.0
C1377 C 0.45621 0.11942 0.31189 0.0
H1378 H 0.39784 0.16815 0.32117 0.0
H1379 H 0.4617 0.1914 0.30077 0.0
O1380 O 0.35726 0.29298 0.31088 0.0
O1381 O 0.4118 0.25304 0.32079 0.0
O1382 O 0.35701 0.21543 0.31028 0.0
O1383 O 0.41344 0.25612 0.30141 0.0
H1384 H 0.33629 0.3545 0.30922 0.0
H1385 H 0.30491 0.25281 0.31119 0.0
H1386 H 0.27723 0.37132 0.30808 0.0
H1387 H 0.24659 0.27136 0.31001 0.0
H1388 H 0.42686 0.20566 0.34668 0.0
H1389 H 0.39439 0.30455 0.33021 0.0
H1390 H 0.42875 0.20359 0.33098 0.0
H1391 H 0.39347 0.30499 0.34595 0.0
H1392 H 0.29655 0.29947 0.34189 0.0
H1393 H 0.31307 0.19353 0.34219 0.0
H1394 H 0.44021 0.38898 0.29826 0.0
H1395 H 0.47157 0.37681 0.32435 0.0
H1396 H 0.38838 0.20226 0.29577 0.0
H1397 H 0.3138 0.16788 0.31321 0.0
H1398 H 0.37792 0.153 0.28681 0.0
H1399 H 0.3046 0.11907 0.3039 0.0
H1400 H 0.4357 0.2543 0.2857 0.0
H1401 H 0.46491 0.26014 0.31194 0.0
H1402 H 0.49513 0.25628 0.28162 0.0
H1403 H 0.52363 0.26207 0.3074 0.0
H1404 H 0.35304 0.29737 0.27412 0.0
H1405 H 0.27755 0.22711 0.28168 0.0
H1406 H 0.421 0.11196 0.32214 0.0
H1407 H 0.48692 0.13606 0.3014 0.0
H1408 H 0.21759 0.24057 0.09817 0.0
H1409 H 0.24042 0.33455 0.10993 0.0
H1410 H 0.21791 0.21397 0.11207 0.0
H1411 H 0.23968 0.30816 0.12385 0.0
H1412 H 0.27724 0.24101 0.1454 0.0
H1413 H 0.27444 0.26848 0.13163 0.0
H1414 H 0.18657 0.21231 0.12544 0.0
H1415 H 0.18997 0.18407 0.1391 0.0
C1416 C 0.22253 0.25555 0.10373 0.0
C1417 C 0.2291 0.28962 0.10295 0.0
C1418 C 0.22238 0.24039 0.11169 0.0
C1419 C 0.2289 0.25897 0.11905 0.0
C1420 C 0.23493 0.29314 0.11828 0.0
C1421 C 0.23498 0.30831 0.11032 0.0
C1422 C 0.25745 0.2344 0.14107 0.0
C1423 C 0.23387 0.21034 0.14332 0.0
C1424 C 0.25563 0.25039 0.13323 0.0
C1425 C 0.23024 0.24259 0.12746 0.0
C1426 C 0.20657 0.21864 0.12973 0.0
C1427 C 0.20833 0.20273 0.13758 0.0
H1428 H 0.80691 0.70017 0.39122 0.0
H1429 H 0.7752 0.801 0.39531 0.0
H1430 H 0.78352 0.70144 0.37697 0.0
H1431 H 0.75013 0.80202 0.38122 0.0
H1432 H 0.73541 0.80499 0.35273 0.0
H1433 H 0.76155 0.80396 0.3667 0.0
H1434 H 0.73375 0.70095 0.3695 0.0
H1435 H 0.70929 0.70186 0.35538 0.0
C1436 C 0.79448 0.72246 0.38907 0.0
C1437 C 0.79274 0.75046 0.39432 0.0
C1438 C 0.78092 0.72321 0.38093 0.0
C1439 C 0.76477 0.75182 0.37791 0.0
C1440 C 0.7629 0.77977 0.38324 0.0
C1441 C 0.77702 0.77918 0.39133 0.0
C1442 C 0.73515 0.78218 0.35636 0.0
C1443 C 0.7206 0.75347 0.35301 0.0
C1444 C 0.74987 0.78158 0.36438 0.0
C1445 C 0.74977 0.75238 0.36928 0.0
C1446 C 0.73499 0.7237 0.36588 0.0
C1447 C 0.72082 0.72419 0.3578 0.0
H1448 H 0.28642 0.19489 0.60721 0.0
H1449 H 0.18428 0.22242 0.60305 0.0
H1450 H 0.28446 0.21996 0.62133 0.0
H1451 H 0.18234 0.24762 0.61718 0.0
H1452 H 0.21257 0.32453 0.63812 0.0
H1453 H 0.21135 0.29745 0.62432 0.0
H1454 H 0.25331 0.20905 0.63537 0.0
H1455 H 0.2534 0.23548 0.6493 0.0
C1456 C 0.26363 0.20644 0.60932 0.0
C1457 C 0.23553 0.20687 0.60406 0.0
C1458 C 0.26242 0.22049 0.61741 0.0
C1459 C 0.23323 0.23562 0.62033 0.0
C1460 C 0.20517 0.2362 0.61505 0.0
C1461 C 0.20623 0.2217 0.60701 0.0
C1462 C 0.22089 0.29908 0.63768 0.0
C1463 C 0.23308 0.28222 0.64486 0.0
C1464 C 0.22032 0.28367 0.62976 0.0
C1465 C 0.23234 0.25127 0.6288 0.0
C1466 C 0.24426 0.23423 0.63594 0.0
C1467 C 0.24442 0.24946 0.6439 0.0
H1468 H 0.82592 0.77246 0.85611 0.0
H1469 H 0.74562 0.71515 0.84543 0.0
H1470 H 0.79813 0.77263 0.86979 0.0
H1471 H 0.71855 0.71395 0.85926 0.0
H1472 H 0.6629 0.75125 0.8828 0.0
H1473 H 0.69005 0.75058 0.86899 0.0
H1474 H 0.78468 0.7355 0.88126 0.0
H1475 H 0.75749 0.73656 0.89507 0.0
C1476 C 0.80228 0.75995 0.85667 0.0
C1477 C 0.78791 0.74393 0.84966 0.0
C1478 C 0.78657 0.75965 0.86455 0.0
C1479 C 0.75618 0.7432 0.86562 0.0
C1480 C 0.74179 0.72712 0.85862 0.0
C1481 C 0.75749 0.72749 0.85072 0.0
C1482 C 0.68946 0.74751 0.88253 0.0
C1483 C 0.7081 0.74401 0.89001 0.0
C1484 C 0.70502 0.74708 0.87462 0.0
C1485 C 0.73953 0.74303 0.87402 0.0
C1486 C 0.75811 0.73923 0.88151 0.0
C1487 C 0.74257 0.7398 0.88942 0.0
H1488 H 0.81262 0.78925 0.60328 0.0
H1489 H 0.7056 0.78516 0.60332 0.0
H1490 H 0.81358 0.76473 0.61744 0.0
H1491 H 0.70662 0.75939 0.61726 0.0
H1492 H 0.71792 0.74797 0.64571 0.0
H1493 H 0.71907 0.77419 0.63179 0.0
H1494 H 0.80213 0.7126 0.62465 0.0
H1495 H 0.80113 0.68658 0.63862 0.0
C1496 C 0.78933 0.78305 0.6063 0.0
C1497 C 0.75904 0.78916 0.60217 0.0
C1498 C 0.78989 0.76871 0.61437 0.0
C1499 C 0.76017 0.76022 0.61848 0.0
C1500 C 0.72994 0.76606 0.61432 0.0
C1501 C 0.72937 0.7804 0.60627 0.0
C1502 C 0.73638 0.74001 0.64116 0.0
C1503 C 0.75935 0.71515 0.64324 0.0
C1504 C 0.737 0.75497 0.63318 0.0
C1505 C 0.76054 0.7453 0.62709 0.0
C1506 C 0.78393 0.72087 0.62923 0.0
C1507 C 0.78336 0.70597 0.63723 0.0
H1508 H 0.29007 0.2984 0.8929 0.0
H1509 H 0.27616 0.19239 0.8944 0.0
H1510 H 0.26438 0.2988 0.87891 0.0
H1511 H 0.25145 0.19264 0.88027 0.0
H1512 H 0.17617 0.21272 0.85901 0.0
H1513 H 0.20117 0.21208 0.87308 0.0
H1514 H 0.27689 0.27987 0.86447 0.0
H1515 H 0.25194 0.28044 0.85037 0.0
C1516 C 0.28136 0.27521 0.89026 0.0
C1517 C 0.28505 0.24536 0.89477 0.0
C1518 C 0.26702 0.27539 0.8822 0.0
C1519 C 0.256 0.24574 0.87847 0.0
C1520 C 0.25946 0.21593 0.883 0.0
C1521 C 0.27388 0.21573 0.89106 0.0
C1522 C 0.19838 0.22719 0.86009 0.0
C1523 C 0.21212 0.24658 0.85356 0.0
C1524 C 0.21266 0.22685 0.86815 0.0
C1525 C 0.24098 0.24594 0.86988 0.0
C1526 C 0.25478 0.26528 0.86336 0.0
C1527 C 0.24051 0.2656 0.85529 0.0
H1528 H 0.79913 0.70734 0.10316 0.0
H1529 H 0.69626 0.73453 0.10024 0.0
H1530 H 0.80014 0.73394 0.11713 0.0
H1531 H 0.69736 0.76143 0.11417 0.0
H1532 H 0.72948 0.83721 0.13503 0.0
H1533 H 0.7287 0.81175 0.12101 0.0
H1534 H 0.76965 0.72185 0.13149 0.0
H1535 H 0.76911 0.74652 0.14561 0.0
C1536 C 0.77688 0.71932 0.10548 0.0
C1537 C 0.74763 0.71901 0.10066 0.0
C1538 C 0.77739 0.73427 0.11347 0.0
C1539 C 0.74881 0.74962 0.11669 0.0
C1540 C 0.71974 0.74987 0.11179 0.0
C1541 C 0.71907 0.73442 0.10387 0.0
C1542 C 0.73783 0.81183 0.1344 0.0
C1543 C 0.74924 0.79392 0.1415 0.0
C1544 C 0.73755 0.79738 0.12636 0.0
C1545 C 0.74918 0.76494 0.1252 0.0
C1546 C 0.76091 0.74708 0.13223 0.0
C1547 C 0.76071 0.76131 0.1403 0.0
H1548 H 0.16845 0.22577 0.38595 0.0
H1549 H 0.26337 0.24747 0.39737 0.0
H1550 H 0.19388 0.22692 0.37193 0.0
H1551 H 0.28877 0.2488 0.38333 0.0
H1552 H 0.3122 0.28747 0.35664 0.0
H1553 H 0.28704 0.28424 0.37066 0.0
H1554 H 0.23372 0.19624 0.36308 0.0
H1555 H 0.25816 0.20008 0.34894 0.0
C1556 C 0.19484 0.23034 0.38548 0.0
C1557 C 0.21391 0.23652 0.39277 0.0
C1558 C 0.20938 0.23104 0.37744 0.0
C1559 C 0.2433 0.23803 0.37653 0.0
C1560 C 0.26246 0.24384 0.38383 0.0
C1561 C 0.24793 0.24308 0.39187 0.0
C1562 C 0.29482 0.26765 0.35793 0.0
C1563 C 0.28699 0.24414 0.35167 0.0
C1564 C 0.28075 0.26555 0.366 0.0
C1565 C 0.25848 0.23993 0.36798 0.0
C1566 C 0.2506 0.21642 0.36172 0.0
C1567 C 0.26479 0.21845 0.35365 0.0
H1568 H 0.28942 0.25965 0.22174 0.0
H1569 H 0.22106 0.18751 0.23191 0.0
H1570 H 0.30008 0.28026 0.23604 0.0
H1571 H 0.23183 0.20791 0.24618 0.0
H1572 H 0.24876 0.26014 0.27116 0.0
H1573 H 0.22917 0.25315 0.25658 0.0
H1574 H 0.33042 0.25476 0.24769 0.0
H1575 H 0.34989 0.2614 0.26213 0.0
C1576 C 0.27636 0.24851 0.22702 0.0
C1577 C 0.25474 0.2217 0.22572 0.0
C1578 C 0.28246 0.26028 0.2352 0.0
C1579 C 0.26715 0.2454 0.24225 0.0
C1580 C 0.24382 0.2201 0.24088 0.0
C1581 C 0.23765 0.20838 0.2327 0.0
C1582 C 0.26677 0.25916 0.26608 0.0
C1583 C 0.3009 0.26128 0.26782 0.0
C1584 C 0.25555 0.25526 0.25774 0.0
C1585 C 0.27823 0.2535 0.25098 0.0
C1586 C 0.31223 0.25671 0.25272 0.0
C1587 C 0.32342 0.2605 0.26102 0.0
H1588 H 0.81994 0.72105 0.48405 0.0
H1589 H 0.73387 0.76867 0.4732 0.0
H1590 H 0.79801 0.73043 0.4982 0.0
H1591 H 0.71187 0.77816 0.48743 0.0
H1592 H 0.72141 0.8365 0.51294 0.0
H1593 H 0.72989 0.81581 0.49866 0.0
H1594 H 0.75468 0.71933 0.50872 0.0
H1595 H 0.74595 0.74008 0.52311 0.0
C1596 C 0.79588 0.73271 0.48467 0.0
C1597 C 0.77881 0.74443 0.4775 0.0
C1598 C 0.78328 0.73807 0.4928 0.0
C1599 C 0.75333 0.75529 0.49394 0.0
C1600 C 0.73529 0.76529 0.48675 0.0
C1601 C 0.74789 0.75991 0.47861 0.0
C1602 C 0.72773 0.81061 0.51213 0.0
C1603 C 0.73321 0.79001 0.51918 0.0
C1604 C 0.73259 0.79872 0.50392 0.0
C1605 C 0.74312 0.76596 0.50256 0.0
C1606 C 0.74701 0.74483 0.50958 0.0
C1607 C 0.74207 0.75673 0.51781 0.0
H1608 H 0.23697 0.24079 0.72357 0.0
H1609 H 0.27729 0.33149 0.73392 0.0
H1610 H 0.22716 0.22038 0.73794 0.0
H1611 H 0.26849 0.3105 0.7482 0.0
H1612 H 0.26341 0.2549 0.77323 0.0
H1613 H 0.28343 0.2646 0.75881 0.0
H1614 H 0.1862 0.24217 0.74896 0.0
H1615 H 0.16574 0.23383 0.76326 0.0
C1616 C 0.24411 0.25622 0.72889 0.0
C1617 C 0.25753 0.28799 0.72757 0.0
C1618 C 0.23867 0.24441 0.7371 0.0
C1619 C 0.24694 0.26394 0.74416 0.0
C1620 C 0.26223 0.29476 0.74287 0.0
C1621 C 0.26733 0.30675 0.73466 0.0
C1622 C 0.24628 0.25199 0.768 0.0
C1623 C 0.21284 0.2438 0.76946 0.0
C1624 C 0.25785 0.25733 0.75975 0.0
C1625 C 0.23636 0.25409 0.75279 0.0
C1626 C 0.20345 0.24434 0.7542 0.0
C1627 C 0.19176 0.23946 0.76243 0.0
H1628 H 0.78825 0.71931 0.01546 0.0
H1629 H 0.68858 0.68044 0.01649 0.0
H1630 H 0.78041 0.73267 0.00038 0.0
H1631 H 0.68083 0.69386 0.00157 0.0
H1632 H 0.69388 0.6814 0.9733 0.0
H1633 H 0.70738 0.67055 0.98809 0.0
H1634 H 0.74219 0.77108 0.99094 0.0
H1635 H 0.72893 0.78203 0.976 0.0
C1636 C 0.76468 0.71384 0.01247 0.0
C1637 C 0.73898 0.69894 0.01714 0.0
C1638 C 0.76018 0.7216 0.00389 0.0
C1639 C 0.73013 0.71401 -0.00017 0.0
C1640 C 0.70436 0.69963 0.00454 0.0
C1641 C 0.70869 0.69228 0.0131 0.0
C1642 C 0.70507 0.70104 0.97701 0.0
C1643 C 0.71037 0.73258 0.97349 0.0
C1644 C 0.71246 0.6949 0.9855 0.0
C1645 C 0.72549 0.72008 0.99065 0.0
C1646 C 0.73218 0.75126 0.98708 0.0
C1647 C 0.72444 0.75754 0.97857 0.0
H1648 H 0.26311 0.23465 0.02377 0.0
H1649 H 0.21369 0.32124 0.01393 0.0
H1650 H 0.27101 0.21394 0.00936 0.0
H1651 H 0.223 0.30175 -0.00052 0.0
H1652 H 0.33206 0.22489 0.98486 0.0
H1653 H 0.30856 0.23084 -0.0011 0.0
H1654 H 0.21636 0.26469 0.98789 0.0
H1655 H 0.24088 0.26046 0.97375 0.0
C1656 C 0.2534 0.24886 0.01849 0.0
C1657 C 0.23799 0.2795 0.01988 0.0
C1658 C 0.25813 0.23723 0.01024 0.0
C1659 C 0.24832 0.25651 0.00323 0.0
C1660 C 0.23067 0.28607 0.0047 0.0
C1661 C 0.2254 0.29736 0.01297 0.0
C1662 C 0.30672 0.23351 0.98543 0.0
C1663 C 0.28858 0.24287 0.97821 0.0
C1664 C 0.29297 0.23641 0.99349 0.0
C1665 C 0.26051 0.24841 0.99456 0.0
C1666 C 0.24159 0.25582 0.9873 0.0
C1667 C 0.25551 0.2531 0.9792 0.0
H1668 H 0.66337 0.79786 0.26563 0.0
H1669 H 0.73275 0.71724 0.26874 0.0
H1670 H 0.67773 0.8016 0.25066 0.0
H1671 H 0.74717 0.72097 0.25362 0.0
H1672 H 0.78857 0.77881 0.22918 0.0
H1673 H 0.77505 0.76499 0.24391 0.0
H1674 H 0.67091 0.76531 0.23763 0.0
H1675 H 0.68422 0.77958 0.22301 0.0
C1676 C 0.68185 0.78106 0.2631 0.0
C1677 C 0.69713 0.75742 0.26834 0.0
C1678 C 0.68978 0.78294 0.25452 0.0
C1679 C 0.71335 0.76139 0.25099 0.0
C1680 C 0.72891 0.73784 0.25621 0.0
C1681 C 0.72061 0.73566 0.26482 0.0
C1682 C 0.76284 0.77542 0.23094 0.0
C1683 C 0.73745 0.7805 0.22496 0.0
C1684 C 0.75515 0.76731 0.23934 0.0
C1685 C 0.72194 0.76448 0.2419 0.0
C1686 C 0.6967 0.76772 0.23582 0.0
C1687 C 0.70437 0.77556 0.22744 0.0
H1688 H 0.22935 0.28758 0.47793 0.0
H1689 H 0.18961 0.1882 0.47741 0.0
H1690 H 0.24336 0.28056 0.49301 0.0
H1691 H 0.20344 0.18138 0.49236 0.0
H1692 H 0.18897 0.20029 0.52058 0.0
H1693 H 0.17924 0.21236 0.50564 0.0
H1694 H 0.28191 0.23987 0.50262 0.0
H1695 H 0.29185 0.22769 0.51769 0.0
C1696 C 0.2239 0.26423 0.48102 0.0
C1697 C 0.20848 0.2384 0.47651 0.0
C1698 C 0.23201 0.2602 0.4896 0.0
C1699 C 0.22419 0.23055 0.49381 0.0
C1700 C 0.20946 0.20457 0.48925 0.0
C1701 C 0.20183 0.20838 0.48069 0.0
C1702 C 0.20935 0.20959 0.51679 0.0
C1703 C 0.24116 0.21315 0.5203 0.0
C1704 C 0.20383 0.21617 0.50823 0.0
C1705 C 0.2299 0.22674 0.50301 0.0
C1706 C 0.26144 0.23176 0.50655 0.0
C1707 C 0.26711 0.22471 0.51513 0.0
H1708 H 0.72816 0.66567 0.73267 0.0
H1709 H 0.74877 0.76244 0.72207 0.0
H1710 H 0.73612 0.68767 0.74683 0.0
H1711 H 0.75826 0.78394 0.73635 0.0
H1712 H 0.82844 0.77672 0.76079 0.0
H1713 H 0.80551 0.76818 0.74672 0.0
H1714 H 0.71513 0.73068 0.75775 0.0
H1715 H 0.73739 0.74054 0.77194 0.0
C1716 C 0.73354 0.69182 0.73333 0.0
C1717 C 0.73808 0.71215 0.72616 0.0
C1718 C 0.73818 0.70439 0.74148 0.0
C1719 C 0.74792 0.73744 0.74267 0.0
C1720 C 0.75099 0.75827 0.73558 0.0
C1721 C 0.74582 0.74583 0.72741 0.0
C1722 C 0.80322 0.76779 0.76028 0.0
C1723 C 0.78495 0.75898 0.76754 0.0
C1724 C 0.79013 0.76284 0.75219 0.0
C1725 C 0.75867 0.74859 0.75117 0.0
C1726 C 0.7396 0.74143 0.75838 0.0
C1727 C 0.7525 0.74685 0.7665 0.0
H1728 H 0.06982 0.04624 0.20085 0.0
H1729 H 0.09345 0.99489 0.17757 0.0
H1730 H 0.01349 0.02484 0.20021 0.0
H1731 H 0.03756 0.97211 0.17715 0.0
H1732 H 0.92506 0.97289 0.1734 0.0
H1733 H 0.98228 0.9919 0.17438 0.0
H1734 H 0.98062 0.97547 0.20147 0.0
H1735 H 0.92324 0.95694 0.20048 0.0
C1736 C 0.06306 0.03016 0.19563 0.0
C1737 C 0.08607 0.0225 0.18923 0.0
C1738 C 0.03085 0.01758 0.19531 0.0
C1739 C 0.02092 0.99692 0.1886 0.0
C1740 C 0.04425 0.9884 0.18234 0.0
C1741 C 0.07644 0.00107 0.18265 0.0
C1742 C 0.937 0.97326 0.17955 0.0
C1743 C 0.91964 0.96357 0.18686 0.0
C1744 C 0.96983 0.98399 0.18012 0.0
C1745 C 0.98611 0.98509 0.188 0.0
C1746 C 0.9687 0.97538 0.19532 0.0
C1747 C 0.93581 0.9648 0.19475 0.0
H1748 H 0.07284 0.43562 0.44487 0.0
H1749 H 0.99083 0.40802 0.42872 0.0
H1750 H 0.05169 0.49213 0.44559 0.0
H1751 H 0.97041 0.46487 0.42916 0.0
H1752 H 0.92422 0.56009 0.43922 0.0
H1753 H 0.94519 0.50357 0.439 0.0
H1754 H 0.04514 0.54074 0.43654 0.0
H1755 H 0.0242 0.5975 0.4371 0.0
C1756 C 0.05019 0.44156 0.44151 0.0
C1757 C 0.03345 0.41726 0.43676 0.0
C1758 C 0.03833 0.47407 0.44183 0.0
C1759 C 0.00942 0.48304 0.43742 0.0
C1760 C 0.99258 0.4587 0.4327 0.0
C1761 C 0.00446 0.4262 0.43238 0.0
C1762 C 0.95072 0.55626 0.43874 0.0
C1763 C 0.97257 0.58334 0.43823 0.0
C1764 C 0.9627 0.52382 0.43851 0.0
C1765 C 0.99682 0.51762 0.43773 0.0
C1766 C 0.01873 0.54468 0.43723 0.0
C1767 C 0.00672 0.57719 0.43746 0.0
H1768 H 0.43903 0.42179 0.67952 0.0
H1769 H 0.40103 0.52088 0.68321 0.0
H1770 H 0.49536 0.44335 0.67944 0.0
H1771 H 0.45756 0.54245 0.68317 0.0
H1772 H 0.56357 0.56126 0.69268 0.0
H1773 H 0.50699 0.54022 0.69223 0.0
H1774 H 0.53274 0.47787 0.67095 0.0
H1775 H 0.58971 0.49813 0.67158 0.0
C1776 C 0.44266 0.44825 0.68019 0.0
C1777 C 0.41551 0.46964 0.68135 0.0
C1778 C 0.47498 0.46059 0.68016 0.0
C1779 C 0.48093 0.49459 0.6813 0.0
C1780 C 0.45379 0.51605 0.68239 0.0
C1781 C 0.42142 0.50371 0.68241 0.0
C1782 C 0.55726 0.54278 0.68796 0.0
C1783 C 0.58117 0.5312 0.6822 0.0
C1784 C 0.52473 0.53107 0.68763 0.0
C1785 C 0.51537 0.50745 0.68154 0.0
C1786 C 0.53927 0.49586 0.67576 0.0
C1787 C 0.5718 0.50766 0.67608 0.0
H1788 H 0.50434 0.09107 0.94784 0.0
H1789 H 0.45274 0.07266 0.92429 0.0
H1790 H 0.52291 0.03348 0.94812 0.0
H1791 H 0.4721 0.01541 0.92444 0.0
H1792 H 0.48115 0.9069 0.93261 0.0
H1793 H 0.4625 0.96444 0.93267 0.0
H1794 H 0.56024 0.99603 0.94038 0.0
H1795 H 0.57898 0.93866 0.94026 0.0
C1796 C 0.49709 0.07476 0.94271 0.0
C1797 C 0.47711 0.08643 0.93604 0.0
C1798 C 0.50792 0.04186 0.94283 0.0
C1799 C 0.49886 0.01987 0.93632 0.0
C1800 C 0.47916 0.03164 0.92961 0.0
C1801 C 0.46845 0.06455 0.92946 0.0
C1802 C 0.49869 0.92613 0.93429 0.0
C1803 C 0.53155 0.91813 0.93644 0.0
C1804 C 0.48801 0.95909 0.93431 0.0
C1805 C 0.50994 0.98478 0.9365 0.0
C1806 C 0.54264 0.97676 0.93877 0.0
C1807 C 0.55333 0.94384 0.93873 0.0
H1808 H 0.06966 0.4499 0.07169 0.0
H1809 H 0.0841 0.49481 0.0471 0.0
H1810 H 0.0121 0.46795 0.07166 0.0
H1811 H 0.02647 0.51326 0.04709 0.0
H1812 H 0.91319 0.5105 0.04607 0.0
H1813 H 0.97065 0.49153 0.0461 0.0
H1814 H 0.97888 0.51727 0.07262 0.0
H1815 H 0.9215 0.53588 0.0726 0.0
C1816 C 0.06066 0.46409 0.06633 0.0
C1817 C 0.08148 0.47108 0.05941 0.0
C1818 C 0.02763 0.4744 0.0663 0.0
C1819 C 0.01462 0.49205 0.05937 0.0
C1820 C 0.03553 0.49924 0.05247 0.0
C1821 C 0.06858 0.48881 0.05248 0.0
C1822 C 0.92732 0.5121 0.0519 0.0
C1823 C 0.91277 0.52458 0.05934 0.0
C1824 C 0.96027 0.50135 0.05191 0.0
C1825 C 0.97942 0.50296 0.05936 0.0
C1826 C 0.96472 0.5152 0.06681 0.0
C1827 C 0.93179 0.52582 0.06681 0.0
H1828 H 0.51896 0.58798 0.29844 0.0
H1829 H 0.53126 0.58276 0.32562 0.0
H1830 H 0.49832 0.53102 0.29833 0.0
H1831 H 0.51039 0.52583 0.32552 0.0
H1832 H 0.51286 0.41305 0.31923 0.0
H1833 H 0.53134 0.47061 0.31964 0.0
H1834 H 0.44857 0.49915 0.3039 0.0
H1835 H 0.42929 0.44202 0.30371 0.0
C1836 C 0.51709 0.57466 0.30439 0.0
C1837 C 0.52669 0.58971 0.31204 0.0
C1838 C 0.50513 0.5422 0.30433 0.0
C1839 C 0.50292 0.52405 0.31192 0.0
C1840 C 0.51215 0.53921 0.31958 0.0
C1841 C 0.52374 0.57183 0.31965 0.0
C1842 C 0.49834 0.4316 0.31594 0.0
C1843 C 0.46962 0.42275 0.31141 0.0
C1844 C 0.50899 0.46454 0.31616 0.0
C1845 C 0.49137 0.48925 0.3118 0.0
C1846 C 0.46282 0.48049 0.30724 0.0
C1847 C 0.45194 0.44767 0.30709 0.0
H1848 H 0.59042 0.02027 0.55786 0.0
H1849 H 0.55855 0.92748 0.56891 0.0
H1850 H 0.53293 0.03917 0.55753 0.0
H1851 H 0.50147 0.94694 0.56881 0.0
H1852 H 0.41017 0.01148 0.57579 0.0
H1853 H 0.46752 0.99182 0.57598 0.0
H1854 H 0.47947 0.02293 0.54995 0.0
H1855 H 0.42217 0.04274 0.54977 0.0
C1856 C 0.57126 0.00387 0.5602 0.0
C1857 C 0.57926 0.97239 0.56345 0.0
C1858 C 0.53835 0.01474 0.56002 0.0
C1859 C 0.5128 0.99452 0.56315 0.0
C1860 C 0.52074 0.96321 0.56645 0.0
C1861 C 0.55353 0.95218 0.56655 0.0
C1862 C 0.42507 0.01402 0.57011 0.0
C1863 C 0.41176 0.02853 0.56276 0.0
C1864 C 0.45778 0.00265 0.57021 0.0
C1865 C 0.47792 0.00598 0.56299 0.0
C1866 C 0.46456 0.02034 0.55562 0.0
C1867 C 0.43171 0.03133 0.5555 0.0
H1868 H 0.99394 0.09229 0.82169 0.0
H1869 H 0.06154 0.06656 0.80149 0.0
H1870 H 0.97352 0.03533 0.82194 0.0
H1871 H 0.04041 0.00999 0.80156 0.0
H1872 H 0.02066 0.90402 0.81064 0.0
H1873 H 0.04139 0.96084 0.81074 0.0
H1874 H 0.94116 0.99741 0.813 0.0
H1875 H 0.92042 0.94074 0.81286 0.0
C1876 C 0.00437 0.07449 0.8173 0.0
C1877 C 0.02928 0.08394 0.81156 0.0
C1878 C 0.99249 0.04196 0.81739 0.0
C1879 C 0.00539 0.01817 0.81178 0.0
C1880 C 0.03023 0.02766 0.80602 0.0
C1881 C 0.04202 0.06018 0.80591 0.0
C1882 C 0.00305 0.9242 0.81111 0.0
C1883 C 0.9689 0.91784 0.81176 0.0
C1884 C 0.01492 0.95673 0.81117 0.0
C1885 C 0.9929 0.9836 0.81188 0.0
C1886 C 0.95879 0.97723 0.81258 0.0
C1887 C 0.94692 0.94474 0.81251 0.0
H1888 H 0.56599 0.94129 0.1954 0.0
H1889 H 0.59169 0.0046 0.17427 0.0
H1890 H 0.50984 0.96271 0.19513 0.0
H1891 H 0.53476 0.02418 0.1736 0.0
H1892 H 0.43823 0.07735 0.18003 0.0
H1893 H 0.49531 0.05766 0.18051 0.0
H1894 H 0.46045 0.95978 0.18725 0.0
H1895 H 0.4035 0.98002 0.18707 0.0
C1896 C 0.55978 0.95989 0.19071 0.0
C1897 C 0.58359 0.97125 0.18488 0.0
C1898 C 0.52729 0.97177 0.19046 0.0
C1899 C 0.51753 0.99503 0.1843 0.0
C1900 C 0.54137 0.00654 0.17849 0.0
C1901 C 0.574 0.99494 0.1788 0.0
C1902 C 0.44286 0.05157 0.18156 0.0
C1903 C 0.4165 0.03018 0.18351 0.0
C1904 C 0.47557 0.04023 0.18181 0.0
C1905 C 0.48265 0.00709 0.18393 0.0
C1906 C 0.45609 0.98561 0.18576 0.0
C1907 C 0.42342 0.99709 0.18562 0.0
H1908 H 0.92082 0.93676 0.42948 0.0
H1909 H 0.00719 0.90891 0.44394 0.0
H1910 H 0.93877 0.99439 0.4296 0.0
H1911 H 0.02639 0.96622 0.44372 0.0
H1912 H 0.03974 0.07498 0.44851 0.0
H1913 H 0.01777 0.01915 0.44909 0.0
H1914 H 0.97677 0.03135 0.42394 0.0
H1915 H 0.99608 0.08822 0.42368 0.0
C1916 C 0.94394 0.94304 0.43259 0.0
C1917 C 0.9627 0.9185 0.43668 0.0
C1918 C 0.95437 0.97605 0.43263 0.0
C1919 C 0.98416 0.98521 0.43665 0.0
C1920 C 0.003 0.9604 0.4407 0.0
C1921 C 0.9922 0.92748 0.44079 0.0
C1922 C 0.02532 0.06617 0.44318 0.0
C1923 C 0.01978 0.0864 0.43604 0.0
C1924 C 0.01322 0.03373 0.44345 0.0
C1925 C 0.99571 0.02035 0.43653 0.0
C1926 C 0.98979 0.04073 0.42944 0.0
C1927 C 0.00139 0.07335 0.42923 0.0
H1928 H 0.07497 0.45389 0.6745 0.0
H1929 H 0.08657 0.49614 0.69947 0.0
H1930 H 0.01766 0.47265 0.6741 0.0
H1931 H 0.02955 0.51635 0.69898 0.0
H1932 H 0.91741 0.52004 0.6992 0.0
H1933 H 0.97391 0.49926 0.69959 0.0
H1934 H 0.98398 0.51939 0.67277 0.0
H1935 H 0.92675 0.53759 0.67225 0.0
C1936 C 0.06532 0.46774 0.67985 0.0
C1937 C 0.08517 0.47372 0.687 0.0
C1938 C 0.03248 0.4786 0.67962 0.0
C1939 C 0.01881 0.49613 0.6865 0.0
C1940 C 0.03894 0.50241 0.69362 0.0
C1941 C 0.07168 0.49108 0.69389 0.0
C1942 C 0.93141 0.51942 0.69334 0.0
C1943 C 0.91733 0.53054 0.68569 0.0
C1944 C 0.96412 0.50802 0.6936 0.0
C1945 C 0.98376 0.50778 0.68623 0.0
C1946 C 0.96961 0.51877 0.67857 0.0
C1947 C 0.93681 0.52974 0.67829 0.0
H1948 H 0.49789 0.41278 0.94373 0.0
H1949 H 0.43474 0.43571 0.92238 0.0
H1950 H 0.51918 0.4694 0.94357 0.0
H1951 H 0.45525 0.49256 0.92239 0.0
H1952 H 0.52589 0.58148 0.91972 0.0
H1953 H 0.50549 0.52462 0.91948 0.0
H1954 H 0.49864 0.52527 0.94682 0.0
H1955 H 0.51889 0.5822 0.94707 0.0
C1956 C 0.48875 0.42984 0.93896 0.0
C1957 C 0.46458 0.4198 0.93308 0.0
C1958 C 0.50064 0.46238 0.93894 0.0
C1959 C 0.48872 0.48554 0.933 0.0
C1960 C 0.46507 0.47528 0.92701 0.0
C1961 C 0.45311 0.44279 0.92705 0.0
C1962 C 0.51957 0.56968 0.92567 0.0
C1963 C 0.52401 0.58642 0.93342 0.0
C1964 C 0.50798 0.53705 0.92553 0.0
C1965 C 0.50062 0.52037 0.93313 0.0
C1966 C 0.50467 0.53723 0.94087 0.0
C1967 C 0.5162 0.56987 0.94101 0.0
H1968 H 0.59401 0.48414 0.06882 0.0
H1969 H 0.56174 0.56229 0.05198 0.0
H1970 H 0.53746 0.46324 0.06953 0.0
H1971 H 0.50565 0.54032 0.05231 0.0
H1972 H 0.40235 0.51418 0.06198 0.0
H1973 H 0.45891 0.53556 0.06158 0.0
H1974 H 0.49667 0.4353 0.06116 0.0
H1975 H 0.44022 0.41409 0.06171 0.0
C1976 C 0.5749 0.49681 0.06525 0.0
C1977 C 0.58251 0.5249 0.06034 0.0
C1978 C 0.54251 0.48459 0.06557 0.0
C1979 C 0.51693 0.50008 0.06098 0.0
C1980 C 0.5246 0.52801 0.05602 0.0
C1981 C 0.55694 0.54031 0.05573 0.0
C1982 C 0.42278 0.49677 0.06178 0.0
C1983 C 0.41685 0.46247 0.06192 0.0
C1984 C 0.45519 0.50898 0.06153 0.0
C1985 C 0.48241 0.48716 0.06134 0.0
C1986 C 0.47638 0.45284 0.06146 0.0
C1987 C 0.44401 0.44066 0.06176 0.0
H1988 H 0.47159 0.07904 0.2985 0.0
H1989 H 0.47093 0.08218 0.3259 0.0
H1990 H 0.49257 0.02242 0.29897 0.0
H1991 H 0.49043 0.02509 0.32637 0.0
H1992 H 0.55984 0.93577 0.32379 0.0
H1993 H 0.53909 0.99247 0.32348 0.0
H1994 H 0.47449 0.96712 0.30259 0.0
H1995 H 0.49564 0.91045 0.30285 0.0
C1996 C 0.47606 0.0677 0.30462 0.0
C1997 C 0.46964 0.08516 0.31216 0.0
C1998 C 0.48763 0.03508 0.30489 0.0
C1999 C 0.49303 0.01914 0.31271 0.0
C2000 C 0.48683 0.0367 0.32024 0.0
C2001 C 0.47531 0.06932 0.31997 0.0
C2002 C 0.5409 0.94222 0.3192 0.0
C2003 C 0.52934 0.91866 0.31335 0.0
C2004 C 0.52902 0.97472 0.31902 0.0
C2005 C 0.50519 0.98438 0.313 0.0
C2006 C 0.49328 0.96066 0.30722 0.0
C2007 C 0.50528 0.92818 0.30738 0.0
H2008 H 0.93466 0.92571 0.55236 0.0
H2009 H 0.90037 0.0206 0.56158 0.0
H2010 H 0.99109 0.94654 0.55201 0.0
H2011 H 0.95719 0.04072 0.56178 0.0
H2012 H 0.05749 0.07829 0.55334 0.0
H2013 H 0.00111 0.05746 0.55281 0.0
H2014 H 0.03553 0.96128 0.56109 0.0
H2015 H 0.09233 0.98155 0.56105 0.0
C2016 C 0.93907 0.95109 0.55428 0.0
C2017 C 0.91279 0.97151 0.55695 0.0
C2018 C 0.97162 0.96287 0.55421 0.0
C2019 C 0.97884 0.9953 0.5569 0.0
C2020 C 0.95257 0.01574 0.55956 0.0
C2021 C 0.91996 0.00404 0.55956 0.0
C2022 C 0.05321 0.0525 0.55489 0.0
C2023 C 0.07964 0.03157 0.55719 0.0
C2024 C 0.02069 0.04068 0.55473 0.0
C2025 C 0.01362 0.00769 0.55694 0.0
C2026 C 0.04003 0.98672 0.55924 0.0
C2027 C 0.07263 0.99848 0.55933 0.0
H2028 H 0.9481 0.57227 0.81887 0.0
H2029 H 0.01677 0.59252 0.79852 0.0
H2030 H 0.96787 0.51504 0.81953 0.0
H2031 H 0.0365 0.53516 0.79916 0.0
H2032 H 0.08693 0.4413 0.81026 0.0
H2033 H 0.06752 0.49864 0.80965 0.0
H2034 H 0.96615 0.46439 0.8099 0.0
H2035 H 0.98559 0.40695 0.81054 0.0
C2036 C 0.96765 0.56452 0.81459 0.0
C2037 C 0.98109 0.58681 0.80867 0.0
C2038 C 0.97869 0.53173 0.81491 0.0
C2039 C 0.00366 0.5207 0.80939 0.0
C2040 C 0.01737 0.5431 0.80353 0.0
C2041 C 0.00601 0.57579 0.80313 0.0
C2042 C 0.0605 0.44607 0.81023 0.0
C2043 C 0.03773 0.41973 0.81048 0.0
C2044 C 0.04943 0.47882 0.80981 0.0
C2045 C 0.01536 0.48592 0.80973 0.0
C2046 C 0.99256 0.4596 0.81001 0.0
C2047 C 0.00365 0.42679 0.81032 0.0
loop_
_geom_bond_atom_site_label_1
_geom_bond_atom_site_label_2
_geom_bond_distance
_geom_bond_site_symmetry_2
_ccdc_geom_bond_type
Li0 N17 1.990 . S
Li0 O60 1.956 . S
Li0 O61 1.970 . S
Li0 O62 1.961 . S
Li1 N25 1.990 . S
Li1 O60 1.970 . S
Li1 O61 1.956 . S
Li1 O63 1.961 . S
Li2 N47 1.990 . S
Li2 O60 1.961 . S
Li2 O62 1.956 . S
Li2 O63 1.970 . S
Li3 N53 1.990 . S
Li3 O61 1.961 . S
Li3 O62 1.970 . S
Li3 O63 1.956 . S
C4 C6 1.348 . S
C4 C7 1.356 . S
C4 O60 1.325 . S
N5 C8 1.314 . S
N5 C9 1.279 . S
C6 C4 1.348 . S
C6 C8 1.353 . S
C6 H64 0.929 . S
C7 C4 1.356 . S
C7 C9 1.358 . S
C7 H65 0.930 . S
C8 N5 1.314 . S
C8 C6 1.353 . S
C8 H66 0.930 . S
C9 N5 1.279 . S
C9 C7 1.358 . S
C9 H67 0.930 . S
C10 C13 1.348 . S
C10 C14 1.356 . S
C10 O61 1.325 . S
C11 N12 1.279 . S
C11 C14 1.358 . S
C11 H68 0.930 . S
N12 C11 1.279 . S
N12 C15 1.314 . S
C13 C10 1.348 . S
C13 C15 1.353 . S
C13 H69 0.929 . S
C14 C10 1.356 . S
C14 C11 1.358 . S
C14 H70 0.930 . S
C15 N12 1.314 . S
C15 C13 1.353 . S
C15 H71 0.930 . S
C16 N17 1.314 . S
C16 C21 1.353 . S
C16 H22 0.930 . S
N17 Li0 1.990 . S
N17 C16 1.314 . S
N17 C19 1.279 . S
C18 C19 1.358 . S
C18 C20 1.356 . S
C18 H72 0.930 . S
C19 N17 1.279 . S
C19 C18 1.358 . S
C19 H23 0.930 . S
C20 C18 1.356 . S
C20 C21 1.348 . S
C21 C16 1.353 . S
C21 C20 1.348 . S
C21 H73 0.929 . S
H22 C16 0.930 . S
H23 C19 0.930 . S
C24 N25 1.314 . S
C24 C26 1.353 . S
C24 H30 0.930 . S
N25 Li1 1.990 . S
N25 C24 1.314 . S
N25 C28 1.279 . S
C26 C24 1.353 . S
C26 C29 1.348 . S
C26 H74 0.929 . S
C27 C28 1.358 . S
C27 C29 1.356 . S
C27 H75 0.930 . S
C28 N25 1.279 . S
C28 C27 1.358 . S
C28 H31 0.930 . S
C29 C26 1.348 . S
C29 C27 1.356 . S
H30 C24 0.930 . S
H31 C28 0.930 . S
C32 C34 1.348 . S
C32 C35 1.356 . S
C32 O62 1.325 . S
N33 C36 1.314 . S
N33 C37 1.279 . S
C34 C32 1.348 . S
C34 C36 1.353 . S
C34 H76 0.929 . S
C35 C32 1.356 . S
C35 C37 1.358 . S
C35 H77 0.930 . S
C36 N33 1.314 . S
C36 C34 1.353 . S
C36 H78 0.930 . S
C37 N33 1.279 . S
C37 C35 1.358 . S
C37 H79 0.930 . S
C38 C39 1.348 . S
C38 C40 1.356 . S
C38 O63 1.325 . S
C39 C38 1.348 . S
C39 C41 1.353 . S
C39 H80 0.929 . S
C40 C38 1.356 . S
C40 C42 1.358 . S
C40 H81 0.930 . S
C41 C39 1.353 . S
C41 N43 1.314 . S
C41 H82 0.930 . S
C42 C40 1.358 . S
C42 N43 1.279 . S
C42 H83 0.930 . S
N43 C41 1.314 . S
N43 C42 1.279 . S
C44 C46 1.353 . S
C44 N47 1.314 . S
C44 H50 0.930 . S
C45 N47 1.279 . S
C45 C48 1.358 . S
C45 H51 0.930 . S
C46 C44 1.353 . S
C46 C49 1.348 . S
C46 H84 0.929 . S
N47 Li2 1.990 . S
N47 C44 1.314 . S
N47 C45 1.279 . S
C48 C45 1.358 . S
C48 C49 1.356 . S
C48 H85 0.930 . S
C49 C46 1.348 . S
C49 C48 1.356 . S
H50 C44 0.930 . S
H51 C45 0.930 . S
C52 N53 1.314 . S
C52 C54 1.353 . S
C52 H58 0.930 . S
N53 Li3 1.990 . S
N53 C52 1.314 . S
N53 C56 1.279 . S
C54 C52 1.353 . S
C54 C57 1.348 . S
C54 H86 0.929 . S
C55 C56 1.358 . S
C55 C57 1.356 . S
C55 H87 0.930 . S
C56 N53 1.279 . S
C56 C55 1.358 . S
C56 H59 0.930 . S
C57 C54 1.348 . S
C57 C55 1.356 . S
H58 C52 0.930 . S
H59 C56 0.930 . S
O60 Li0 1.956 . S
O60 Li1 1.970 . S
O60 Li2 1.961 . S
O60 C4 1.325 . S
O61 Li0 1.970 . S
O61 Li1 1.956 . S
O61 Li3 1.961 . S
O61 C10 1.325 . S
O62 Li0 1.961 . S
O62 Li2 1.956 . S
O62 Li3 1.970 . S
O62 C32 1.325 . S
O63 Li1 1.961 . S
O63 Li2 1.970 . S
O63 Li3 1.956 . S
O63 C38 1.325 . S
H64 C6 0.929 . S
H65 C7 0.930 . S
H66 C8 0.930 . S
H67 C9 0.930 . S
H68 C11 0.930 . S
H69 C13 0.929 . S
H70 C14 0.930 . S
H71 C15 0.930 . S
H72 C18 0.930 . S
H73 C21 0.929 . S
H74 C26 0.929 . S
H75 C27 0.930 . S
H76 C34 0.929 . S
H77 C35 0.930 . S
H78 C36 0.930 . S
H79 C37 0.930 . S
H80 C39 0.929 . S
H81 C40 0.930 . S
H82 C41 0.930 . S
H83 C42 0.930 . S
H84 C46 0.929 . S
H85 C48 0.930 . S
H86 C54 0.929 . S
H87 C55 0.930 . S
Li88 N105 1.990 . S
Li88 O148 1.956 . S
Li88 O149 1.970 . S
Li88 O150 1.961 . S
Li89 N113 1.990 . S
Li89 O148 1.970 . S
Li89 O149 1.956 . S
Li89 O151 1.961 . S
Li90 N135 1.990 . S
Li90 O148 1.961 . S
Li90 O150 1.956 . S
Li90 O151 1.970 . S
Li91 N141 1.990 . S
Li91 O149 1.961 . S
Li91 O150 1.970 . S
Li91 O151 1.956 . S
C92 C94 1.348 . S
C92 C95 1.356 . S
C92 O148 1.325 . S
N93 C96 1.314 . S
N93 C97 1.279 . S
C94 C92 1.348 . S
C94 C96 1.353 . S
C94 H152 0.929 . S
C95 C92 1.356 . S
C95 C97 1.358 . S
C95 H153 0.930 . S
C96 N93 1.314 . S
C96 C94 1.353 . S
C96 H154 0.930 . S
C97 N93 1.279 . S
C97 C95 1.358 . S
C97 H155 0.930 . S
C98 C101 1.348 . S
C98 C102 1.356 . S
C98 O149 1.325 . S
C99 N100 1.279 . S
C99 C102 1.358 . S
C99 H156 0.930 . S
N100 C99 1.279 . S
N100 C103 1.314 . S
C101 C98 1.348 . S
C101 C103 1.353 . S
C101 H157 0.929 . S
C102 C98 1.356 . S
C102 C99 1.358 . S
C102 H158 0.930 . S
C103 N100 1.314 . S
C103 C101 1.353 . S
C103 H159 0.930 . S
C104 N105 1.314 . S
C104 C109 1.353 . S
C104 H110 0.930 . S
N105 Li88 1.990 . S
N105 C104 1.314 . S
N105 C107 1.279 . S
C106 C107 1.358 . S
C106 C108 1.356 . S
C106 H160 0.930 . S
C107 N105 1.279 . S
C107 C106 1.358 . S
C107 H111 0.930 . S
C108 C106 1.356 . S
C108 C109 1.348 . S
C109 C104 1.353 . S
C109 C108 1.348 . S
C109 H161 0.929 . S
H110 C104 0.930 . S
H111 C107 0.930 . S
C112 N113 1.314 . S
C112 C114 1.353 . S
C112 H118 0.930 . S
N113 Li89 1.990 . S
N113 C112 1.314 . S
N113 C116 1.279 . S
C114 C112 1.353 . S
C114 C117 1.348 . S
C114 H162 0.929 . S
C115 C116 1.358 . S
C115 C117 1.356 . S
C115 H163 0.930 . S
C116 N113 1.279 . S
C116 C115 1.358 . S
C116 H119 0.930 . S
C117 C114 1.348 . S
C117 C115 1.356 . S
H118 C112 0.930 . S
H119 C116 0.930 . S
C120 C122 1.348 . S
C120 C123 1.356 . S
C120 O150 1.325 . S
N121 C124 1.314 . S
N121 C125 1.279 . S
C122 C120 1.348 . S
C122 C124 1.353 . S
C122 H164 0.929 . S
C123 C120 1.356 . S
C123 C125 1.358 . S
C123 H165 0.930 . S
C124 N121 1.314 . S
C124 C122 1.353 . S
C124 H166 0.930 . S
C125 N121 1.279 . S
C125 C123 1.358 . S
C125 H167 0.930 . S
C126 C127 1.348 . S
C126 C128 1.356 . S
C126 O151 1.325 . S
C127 C126 1.348 . S
C127 C129 1.353 . S
C127 H168 0.929 . S
C128 C126 1.356 . S
C128 C130 1.358 . S
C128 H169 0.930 . S
C129 C127 1.353 . S
C129 N131 1.314 . S
C129 H170 0.930 . S
C130 C128 1.358 . S
C130 N131 1.279 . S
C130 H171 0.930 . S
N131 C129 1.314 . S
N131 C130 1.279 . S
C132 C134 1.353 . S
C132 N135 1.314 . S
C132 H138 0.930 . S
C133 N135 1.279 . S
C133 C136 1.358 . S
C133 H139 0.930 . S
C134 C132 1.353 . S
C134 C137 1.348 . S
C134 H172 0.929 . S
N135 Li90 1.990 . S
N135 C132 1.314 . S
N135 C133 1.279 . S
C136 C133 1.358 . S
C136 C137 1.356 . S
C136 H173 0.930 . S
C137 C134 1.348 . S
C137 C136 1.356 . S
H138 C132 0.930 . S
H139 C133 0.930 . S
C140 N141 1.314 . S
C140 C142 1.353 . S
C140 H146 0.930 . S
N141 Li91 1.990 . S
N141 C140 1.314 . S
N141 C144 1.279 . S
C142 C140 1.353 . S
C142 C145 1.348 . S
C142 H174 0.929 . S
C143 C144 1.358 . S
C143 C145 1.356 . S
C143 H175 0.930 . S
C144 N141 1.279 . S
C144 C143 1.358 . S
C144 H147 0.930 . S
C145 C142 1.348 . S
C145 C143 1.356 . S
H146 C140 0.930 . S
H147 C144 0.930 . S
O148 Li88 1.956 . S
O148 Li89 1.970 . S
O148 Li90 1.961 . S
O148 C92 1.325 . S
O149 Li88 1.970 . S
O149 Li89 1.956 . S
O149 Li91 1.961 . S
O149 C98 1.325 . S
O150 Li88 1.961 . S
O150 Li90 1.956 . S
O150 Li91 1.970 . S
O150 C120 1.325 . S
O151 Li89 1.961 . S
O151 Li90 1.970 . S
O151 Li91 1.956 . S
O151 C126 1.325 . S
H152 C94 0.929 . S
H153 C95 0.930 . S
H154 C96 0.930 . S
H155 C97 0.930 . S
H156 C99 0.930 . S
H157 C101 0.929 . S
H158 C102 0.930 . S
H159 C103 0.930 . S
H160 C106 0.930 . S
H161 C109 0.929 . S
H162 C114 0.929 . S
H163 C115 0.930 . S
H164 C122 0.929 . S
H165 C123 0.930 . S
H166 C124 0.930 . S
H167 C125 0.930 . S
H168 C127 0.929 . S
H169 C128 0.930 . S
H170 C129 0.930 . S
H171 C130 0.930 . S
H172 C134 0.929 . S
H173 C136 0.930 . S
H174 C142 0.929 . S
H175 C143 0.930 . S
Li176 N193 1.990 . S
Li176 O236 1.956 . S
Li176 O237 1.970 . S
Li176 O238 1.961 . S
Li177 N201 1.990 . S
Li177 O236 1.970 . S
Li177 O237 1.956 . S
Li177 O239 1.961 . S
Li178 N223 1.990 . S
Li178 O236 1.961 . S
Li178 O238 1.956 . S
Li178 O239 1.970 . S
Li179 N229 1.990 . S
Li179 O237 1.961 . S
Li179 O238 1.970 . S
Li179 O239 1.956 . S
C180 C182 1.348 . S
C180 C183 1.356 . S
C180 O236 1.325 . S
N181 C184 1.314 . S
N181 C185 1.279 . S
C182 C180 1.348 . S
C182 C184 1.353 . S
C182 H240 0.929 . S
C183 C180 1.356 . S
C183 C185 1.358 . S
C183 H241 0.930 . S
C184 N181 1.314 . S
C184 C182 1.353 . S
C184 H242 0.930 . S
C185 N181 1.279 . S
C185 C183 1.358 . S
C185 H243 0.930 . S
C186 C189 1.348 . S
C186 C190 1.356 . S
C186 O237 1.325 . S
C187 N188 1.279 . S
C187 C190 1.358 . S
C187 H244 0.930 . S
N188 C187 1.279 . S
N188 C191 1.314 . S
C189 C186 1.348 . S
C189 C191 1.353 . S
C189 H245 0.929 . S
C190 C186 1.356 . S
C190 C187 1.358 . S
C190 H246 0.930 . S
C191 N188 1.314 . S
C191 C189 1.353 . S
C191 H247 0.930 . S
C192 N193 1.314 . S
C192 C197 1.353 . S
C192 H198 0.930 . S
N193 Li176 1.990 . S
N193 C192 1.314 . S
N193 C195 1.279 . S
C194 C195 1.358 . S
C194 C196 1.356 . S
C194 H248 0.930 . S
C195 N193 1.279 . S
C195 C194 1.358 . S
C195 H199 0.930 . S
C196 C194 1.356 . S
C196 C197 1.348 . S
C197 C192 1.353 . S
C197 C196 1.348 . S
C197 H249 0.929 . S
H198 C192 0.930 . S
H199 C195 0.930 . S
C200 N201 1.314 . S
C200 C202 1.353 . S
C200 H206 0.930 . S
N201 Li177 1.990 . S
N201 C200 1.314 . S
N201 C204 1.279 . S
C202 C200 1.353 . S
C202 C205 1.348 . S
C202 H250 0.929 . S
C203 C204 1.358 . S
C203 C205 1.356 . S
C203 H251 0.930 . S
C204 N201 1.279 . S
C204 C203 1.358 . S
C204 H207 0.930 . S
C205 C202 1.348 . S
C205 C203 1.356 . S
H206 C200 0.930 . S
H207 C204 0.930 . S
C208 C210 1.348 . S
C208 C211 1.356 . S
C208 O238 1.325 . S
N209 C212 1.314 . S
N209 C213 1.279 . S
C210 C208 1.348 . S
C210 C212 1.353 . S
C210 H252 0.929 . S
C211 C208 1.356 . S
C211 C213 1.358 . S
C211 H253 0.930 . S
C212 N209 1.314 . S
C212 C210 1.353 . S
C212 H254 0.930 . S
C213 N209 1.279 . S
C213 C211 1.358 . S
C213 H255 0.930 . S
C214 C215 1.348 . S
C214 C216 1.356 . S
C214 O239 1.325 . S
C215 C214 1.348 . S
C215 C217 1.353 . S
C215 H256 0.929 . S
C216 C214 1.356 . S
C216 C218 1.358 . S
C216 H257 0.930 . S
C217 C215 1.353 . S
C217 N219 1.314 . S
C217 H258 0.930 . S
C218 C216 1.358 . S
C218 N219 1.279 . S
C218 H259 0.930 . S
N219 C217 1.314 . S
N219 C218 1.279 . S
C220 C222 1.353 . S
C220 N223 1.314 . S
C220 H226 0.930 . S
C221 N223 1.279 . S
C221 C224 1.358 . S
C221 H227 0.930 . S
C222 C220 1.353 . S
C222 C225 1.348 . S
C222 H260 0.929 . S
N223 Li178 1.990 . S
N223 C220 1.314 . S
N223 C221 1.279 . S
C224 C221 1.358 . S
C224 C225 1.356 . S
C224 H261 0.930 . S
C225 C222 1.348 . S
C225 C224 1.356 . S
H226 C220 0.930 . S
H227 C221 0.930 . S
C228 N229 1.314 . S
C228 C230 1.353 . S
C228 H234 0.930 . S
N229 Li179 1.990 . S
N229 C228 1.314 . S
N229 C232 1.279 . S
C230 C228 1.353 . S
C230 C233 1.348 . S
C230 H262 0.929 . S
C231 C232 1.358 . S
C231 C233 1.356 . S
C231 H263 0.930 . S
C232 N229 1.279 . S
C232 C231 1.358 . S
C232 H235 0.930 . S
C233 C230 1.348 . S
C233 C231 1.356 . S
H234 C228 0.930 . S
H235 C232 0.930 . S
O236 Li176 1.956 . S
O236 Li177 1.970 . S
O236 Li178 1.961 . S
O236 C180 1.325 . S
O237 Li176 1.970 . S
O237 Li177 1.956 . S
O237 Li179 1.961 . S
O237 C186 1.325 . S
O238 Li176 1.961 . S
O238 Li178 1.956 . S
O238 Li179 1.970 . S
O238 C208 1.325 . S
O239 Li177 1.961 . S
O239 Li178 1.970 . S
O239 Li179 1.956 . S
O239 C214 1.325 . S
H240 C182 0.929 . S
H241 C183 0.930 . S
H242 C184 0.930 . S
H243 C185 0.930 . S
H244 C187 0.930 . S
H245 C189 0.929 . S
H246 C190 0.930 . S
H247 C191 0.930 . S
H248 C194 0.930 . S
H249 C197 0.929 . S
H250 C202 0.929 . S
H251 C203 0.930 . S
H252 C210 0.929 . S
H253 C211 0.930 . S
H254 C212 0.930 . S
H255 C213 0.930 . S
H256 C215 0.929 . S
H257 C216 0.930 . S
H258 C217 0.930 . S
H259 C218 0.930 . S
H260 C222 0.929 . S
H261 C224 0.930 . S
H262 C230 0.929 . S
H263 C231 0.930 . S
Li264 N281 1.990 . S
Li264 O324 1.956 . S
Li264 O325 1.970 . S
Li264 O326 1.961 . S
Li265 N289 1.990 . S
Li265 O324 1.970 . S
Li265 O325 1.956 . S
Li265 O327 1.961 . S
Li266 N311 1.990 . S
Li266 O324 1.961 . S
Li266 O326 1.956 . S
Li266 O327 1.970 . S
Li267 N317 1.990 . S
Li267 O325 1.961 . S
Li267 O326 1.970 . S
Li267 O327 1.956 . S
C268 C270 1.348 . S
C268 C271 1.356 . S
C268 O324 1.325 . S
N269 C272 1.314 . S
N269 C273 1.279 . S
C270 C268 1.348 . S
C270 C272 1.353 . S
C270 H328 0.929 . S
C271 C268 1.356 . S
C271 C273 1.358 . S
C271 H329 0.930 . S
C272 N269 1.314 . S
C272 C270 1.353 . S
C272 H330 0.930 . S
C273 N269 1.279 . S
C273 C271 1.358 . S
C273 H331 0.930 . S
C274 C277 1.348 . S
C274 C278 1.356 . S
C274 O325 1.325 . S
C275 N276 1.279 . S
C275 C278 1.358 . S
C275 H332 0.930 . S
N276 C275 1.279 . S
N276 C279 1.314 . S
C277 C274 1.348 . S
C277 C279 1.353 . S
C277 H333 0.929 . S
C278 C274 1.356 . S
C278 C275 1.358 . S
C278 H334 0.930 . S
C279 N276 1.314 . S
C279 C277 1.353 . S
C279 H335 0.930 . S
C280 N281 1.314 . S
C280 C285 1.353 . S
C280 H286 0.930 . S
N281 Li264 1.990 . S
N281 C280 1.314 . S
N281 C283 1.279 . S
C282 C283 1.358 . S
C282 C284 1.356 . S
C282 H336 0.930 . S
C283 N281 1.279 . S
C283 C282 1.358 . S
C283 H287 0.930 . S
C284 C282 1.356 . S
C284 C285 1.348 . S
C285 C280 1.353 . S
C285 C284 1.348 . S
C285 H337 0.929 . S
H286 C280 0.930 . S
H287 C283 0.930 . S
C288 N289 1.314 . S
C288 C290 1.353 . S
C288 H294 0.930 . S
N289 Li265 1.990 . S
N289 C288 1.314 . S
N289 C292 1.279 . S
C290 C288 1.353 . S
C290 C293 1.348 . S
C290 H338 0.929 . S
C291 C292 1.358 . S
C291 C293 1.356 . S
C291 H339 0.930 . S
C292 N289 1.279 . S
C292 C291 1.358 . S
C292 H295 0.930 . S
C293 C290 1.348 . S
C293 C291 1.356 . S
H294 C288 0.930 . S
H295 C292 0.930 . S
C296 C298 1.348 . S
C296 C299 1.356 . S
C296 O326 1.325 . S
N297 C300 1.314 . S
N297 C301 1.279 . S
C298 C296 1.348 . S
C298 C300 1.353 . S
C298 H340 0.929 . S
C299 C296 1.356 . S
C299 C301 1.358 . S
C299 H341 0.930 . S
C300 N297 1.314 . S
C300 C298 1.353 . S
C300 H342 0.930 . S
C301 N297 1.279 . S
C301 C299 1.358 . S
C301 H343 0.930 . S
C302 C303 1.348 . S
C302 C304 1.356 . S
C302 O327 1.325 . S
C303 C302 1.348 . S
C303 C305 1.353 . S
C303 H344 0.929 . S
C304 C302 1.356 . S
C304 C306 1.358 . S
C304 H345 0.930 . S
C305 C303 1.353 . S
C305 N307 1.314 . S
C305 H346 0.930 . S
C306 C304 1.358 . S
C306 N307 1.279 . S
C306 H347 0.930 . S
N307 C305 1.314 . S
N307 C306 1.279 . S
C308 C310 1.353 . S
C308 N311 1.314 . S
C308 H314 0.930 . S
C309 N311 1.279 . S
C309 C312 1.358 . S
C309 H315 0.930 . S
C310 C308 1.353 . S
C310 C313 1.348 . S
C310 H348 0.929 . S
N311 Li266 1.990 . S
N311 C308 1.314 . S
N311 C309 1.279 . S
C312 C309 1.358 . S
C312 C313 1.356 . S
C312 H349 0.930 . S
C313 C310 1.348 . S
C313 C312 1.356 . S
H314 C308 0.930 . S
H315 C309 0.930 . S
C316 N317 1.314 . S
C316 C318 1.353 . S
C316 H322 0.930 . S
N317 Li267 1.990 . S
N317 C316 1.314 . S
N317 C320 1.279 . S
C318 C316 1.353 . S
C318 C321 1.348 . S
C318 H350 0.929 . S
C319 C320 1.358 . S
C319 C321 1.356 . S
C319 H351 0.930 . S
C320 N317 1.279 . S
C320 C319 1.358 . S
C320 H323 0.930 . S
C321 C318 1.348 . S
C321 C319 1.356 . S
H322 C316 0.930 . S
H323 C320 0.930 . S
O324 Li264 1.956 . S
O324 Li265 1.970 . S
O324 Li266 1.961 . S
O324 C268 1.325 . S
O325 Li264 1.970 . S
O325 Li265 1.956 . S
O325 Li267 1.961 . S
O325 C274 1.325 . S
O326 Li264 1.961 . S
O326 Li266 1.956 . S
O326 Li267 1.970 . S
O326 C296 1.325 . S
O327 Li265 1.961 . S
O327 Li266 1.970 . S
O327 Li267 1.956 . S
O327 C302 1.325 . S
H328 C270 0.929 . S
H329 C271 0.930 . S
H330 C272 0.930 . S
H331 C273 0.930 . S
H332 C275 0.930 . S
H333 C277 0.929 . S
H334 C278 0.930 . S
H335 C279 0.930 . S
H336 C282 0.930 . S
H337 C285 0.929 . S
H338 C290 0.929 . S
H339 C291 0.930 . S
H340 C298 0.929 . S
H341 C299 0.930 . S
H342 C300 0.930 . S
H343 C301 0.930 . S
H344 C303 0.929 . S
H345 C304 0.930 . S
H346 C305 0.930 . S
H347 C306 0.930 . S
H348 C310 0.929 . S
H349 C312 0.930 . S
H350 C318 0.929 . S
H351 C319 0.930 . S
Li352 N369 1.990 . S
Li352 O412 1.956 . S
Li352 O413 1.970 . S
Li352 O414 1.961 . S
Li353 N377 1.990 . S
Li353 O412 1.970 . S
Li353 O413 1.956 . S
Li353 O415 1.961 . S
Li354 N399 1.990 . S
Li354 O412 1.961 . S
Li354 O414 1.956 . S
Li354 O415 1.970 . S
Li355 N405 1.990 . S
Li355 O413 1.961 . S
Li355 O414 1.970 . S
Li355 O415 1.956 . S
C356 C358 1.348 . S
C356 C359 1.356 . S
C356 O412 1.325 . S
N357 C360 1.314 . S
N357 C361 1.279 . S
C358 C356 1.348 . S
C358 C360 1.353 . S
C358 H416 0.929 . S
C359 C356 1.356 . S
C359 C361 1.358 . S
C359 H417 0.930 . S
C360 N357 1.314 . S
C360 C358 1.353 . S
C360 H418 0.930 . S
C361 N357 1.279 . S
C361 C359 1.358 . S
C361 H419 0.930 . S
C362 C365 1.348 . S
C362 C366 1.356 . S
C362 O413 1.325 . S
C363 N364 1.279 . S
C363 C366 1.358 . S
C363 H420 0.930 . S
N364 C363 1.279 . S
N364 C367 1.314 . S
C365 C362 1.348 . S
C365 C367 1.353 . S
C365 H421 0.929 . S
C366 C362 1.356 . S
C366 C363 1.358 . S
C366 H422 0.930 . S
C367 N364 1.314 . S
C367 C365 1.353 . S
C367 H423 0.930 . S
C368 N369 1.314 . S
C368 C373 1.353 . S
C368 H374 0.930 . S
N369 Li352 1.990 . S
N369 C368 1.314 . S
N369 C371 1.279 . S
C370 C371 1.358 . S
C370 C372 1.356 . S
C370 H424 0.930 . S
C371 N369 1.279 . S
C371 C370 1.358 . S
C371 H375 0.930 . S
C372 C370 1.356 . S
C372 C373 1.348 . S
C373 C368 1.353 . S
C373 C372 1.348 . S
C373 H425 0.929 . S
H374 C368 0.930 . S
H375 C371 0.930 . S
C376 N377 1.314 . S
C376 C378 1.353 . S
C376 H382 0.930 . S
N377 Li353 1.990 . S
N377 C376 1.314 . S
N377 C380 1.279 . S
C378 C376 1.353 . S
C378 C381 1.348 . S
C378 H426 0.929 . S
C379 C380 1.358 . S
C379 C381 1.356 . S
C379 H427 0.930 . S
C380 N377 1.279 . S
C380 C379 1.358 . S
C380 H383 0.930 . S
C381 C378 1.348 . S
C381 C379 1.356 . S
H382 C376 0.930 . S
H383 C380 0.930 . S
C384 C386 1.348 . S
C384 C387 1.356 . S
C384 O414 1.325 . S
N385 C388 1.314 . S
N385 C389 1.279 . S
C386 C384 1.348 . S
C386 C388 1.353 . S
C386 H428 0.929 . S
C387 C384 1.356 . S
C387 C389 1.358 . S
C387 H429 0.930 . S
C388 N385 1.314 . S
C388 C386 1.353 . S
C388 H430 0.930 . S
C389 N385 1.279 . S
C389 C387 1.358 . S
C389 H431 0.930 . S
C390 C391 1.348 . S
C390 C392 1.356 . S
C390 O415 1.325 . S
C391 C390 1.348 . S
C391 C393 1.353 . S
C391 H432 0.929 . S
C392 C390 1.356 . S
C392 C394 1.358 . S
C392 H433 0.930 . S
C393 C391 1.353 . S
C393 N395 1.314 . S
C393 H434 0.930 . S
C394 C392 1.358 . S
C394 N395 1.279 . S
C394 H435 0.930 . S
N395 C393 1.314 . S
N395 C394 1.279 . S
C396 C398 1.353 . S
C396 N399 1.314 . S
C396 H402 0.930 . S
C397 N399 1.279 . S
C397 C400 1.358 . S
C397 H403 0.930 . S
C398 C396 1.353 . S
C398 C401 1.348 . S
C398 H436 0.929 . S
N399 Li354 1.990 . S
N399 C396 1.314 . S
N399 C397 1.279 . S
C400 C397 1.358 . S
C400 C401 1.356 . S
C400 H437 0.930 . S
C401 C398 1.348 . S
C401 C400 1.356 . S
H402 C396 0.930 . S
H403 C397 0.930 . S
C404 N405 1.314 . S
C404 C406 1.353 . S
C404 H410 0.930 . S
N405 Li355 1.990 . S
N405 C404 1.314 . S
N405 C408 1.279 . S
C406 C404 1.353 . S
C406 C409 1.348 . S
C406 H438 0.929 . S
C407 C408 1.358 . S
C407 C409 1.356 . S
C407 H439 0.930 . S
C408 N405 1.279 . S
C408 C407 1.358 . S
C408 H411 0.930 . S
C409 C406 1.348 . S
C409 C407 1.356 . S
H410 C404 0.930 . S
H411 C408 0.930 . S
O412 Li352 1.956 . S
O412 Li353 1.970 . S
O412 Li354 1.961 . S
O412 C356 1.325 . S
O413 Li352 1.970 . S
O413 Li353 1.956 . S
O413 Li355 1.961 . S
O413 C362 1.325 . S
O414 Li352 1.961 . S
O414 Li354 1.956 . S
O414 Li355 1.970 . S
O414 C384 1.325 . S
O415 Li353 1.961 . S
O415 Li354 1.970 . S
O415 Li355 1.956 . S
O415 C390 1.325 . S
H416 C358 0.929 . S
H417 C359 0.930 . S
H418 C360 0.930 . S
H419 C361 0.930 . S
H420 C363 0.930 . S
H421 C365 0.929 . S
H422 C366 0.930 . S
H423 C367 0.930 . S
H424 C370 0.930 . S
H425 C373 0.929 . S
H426 C378 0.929 . S
H427 C379 0.930 . S
H428 C386 0.929 . S
H429 C387 0.930 . S
H430 C388 0.930 . S
H431 C389 0.930 . S
H432 C391 0.929 . S
H433 C392 0.930 . S
H434 C393 0.930 . S
H435 C394 0.930 . S
H436 C398 0.929 . S
H437 C400 0.930 . S
H438 C406 0.929 . S
H439 C407 0.930 . S
Li440 N457 1.990 . S
Li440 O500 1.956 . S
Li440 O501 1.970 . S
Li440 O502 1.961 . S
Li441 N465 1.990 . S
Li441 O500 1.970 . S
Li441 O501 1.956 . S
Li441 O503 1.961 . S
Li442 N487 1.990 . S
Li442 O500 1.961 . S
Li442 O502 1.956 . S
Li442 O503 1.970 . S
Li443 N493 1.990 . S
Li443 O501 1.961 . S
Li443 O502 1.970 . S
Li443 O503 1.956 . S
C444 C446 1.348 . S
C444 C447 1.356 . S
C444 O500 1.325 . S
N445 C448 1.314 . S
N445 C449 1.279 . S
C446 C444 1.348 . S
C446 C448 1.353 . S
C446 H504 0.929 . S
C447 C444 1.356 . S
C447 C449 1.358 . S
C447 H505 0.930 . S
C448 N445 1.314 . S
C448 C446 1.353 . S
C448 H506 0.930 . S
C449 N445 1.279 . S
C449 C447 1.358 . S
C449 H507 0.930 . S
C450 C453 1.348 . S
C450 C454 1.356 . S
C450 O501 1.325 . S
C451 N452 1.279 . S
C451 C454 1.358 . S
C451 H508 0.930 . S
N452 C451 1.279 . S
N452 C455 1.314 . S
C453 C450 1.348 . S
C453 C455 1.353 . S
C453 H509 0.929 . S
C454 C450 1.356 . S
C454 C451 1.358 . S
C454 H510 0.930 . S
C455 N452 1.314 . S
C455 C453 1.353 . S
C455 H511 0.930 . S
C456 N457 1.314 . S
C456 C461 1.353 . S
C456 H462 0.930 . S
N457 Li440 1.990 . S
N457 C456 1.314 . S
N457 C459 1.279 . S
C458 C459 1.358 . S
C458 C460 1.356 . S
C458 H512 0.930 . S
C459 N457 1.279 . S
C459 C458 1.358 . S
C459 H463 0.930 . S
C460 C458 1.356 . S
C460 C461 1.348 . S
C461 C456 1.353 . S
C461 C460 1.348 . S
C461 H513 0.929 . S
H462 C456 0.930 . S
H463 C459 0.930 . S
C464 N465 1.314 . S
C464 C466 1.353 . S
C464 H470 0.930 . S
N465 Li441 1.990 . S
N465 C464 1.314 . S
N465 C468 1.279 . S
C466 C464 1.353 . S
C466 C469 1.348 . S
C466 H514 0.929 . S
C467 C468 1.358 . S
C467 C469 1.356 . S
C467 H515 0.930 . S
C468 N465 1.279 . S
C468 C467 1.358 . S
C468 H471 0.930 . S
C469 C466 1.348 . S
C469 C467 1.356 . S
H470 C464 0.930 . S
H471 C468 0.930 . S
C472 C474 1.348 . S
C472 C475 1.356 . S
C472 O502 1.325 . S
N473 C476 1.314 . S
N473 C477 1.279 . S
C474 C472 1.348 . S
C474 C476 1.353 . S
C474 H516 0.929 . S
C475 C472 1.356 . S
C475 C477 1.358 . S
C475 H517 0.930 . S
C476 N473 1.314 . S
C476 C474 1.353 . S
C476 H518 0.930 . S
C477 N473 1.279 . S
C477 C475 1.358 . S
C477 H519 0.930 . S
C478 C479 1.348 . S
C478 C480 1.356 . S
C478 O503 1.325 . S
C479 C478 1.348 . S
C479 C481 1.353 . S
C479 H520 0.929 . S
C480 C478 1.356 . S
C480 C482 1.358 . S
C480 H521 0.930 . S
C481 C479 1.353 . S
C481 N483 1.314 . S
C481 H522 0.930 . S
C482 C480 1.358 . S
C482 N483 1.279 . S
C482 H523 0.930 . S
N483 C481 1.314 . S
N483 C482 1.279 . S
C484 C486 1.353 . S
C484 N487 1.314 . S
C484 H490 0.930 . S
C485 N487 1.279 . S
C485 C488 1.358 . S
C485 H491 0.930 . S
C486 C484 1.353 . S
C486 C489 1.348 . S
C486 H524 0.929 . S
N487 Li442 1.990 . S
N487 C484 1.314 . S
N487 C485 1.279 . S
C488 C485 1.358 . S
C488 C489 1.356 . S
C488 H525 0.930 . S
C489 C486 1.348 . S
C489 C488 1.356 . S
H490 C484 0.930 . S
H491 C485 0.930 . S
C492 N493 1.314 . S
C492 C494 1.353 . S
C492 H498 0.930 . S
N493 Li443 1.990 . S
N493 C492 1.314 . S
N493 C496 1.279 . S
C494 C492 1.353 . S
C494 C497 1.348 . S
C494 H526 0.929 . S
C495 C496 1.358 . S
C495 C497 1.356 . S
C495 H527 0.930 . S
C496 N493 1.279 . S
C496 C495 1.358 . S
C496 H499 0.930 . S
C497 C494 1.348 . S
C497 C495 1.356 . S
H498 C492 0.930 . S
H499 C496 0.930 . S
O500 Li440 1.956 . S
O500 Li441 1.970 . S
O500 Li442 1.961 . S
O500 C444 1.325 . S
O501 Li440 1.970 . S
O501 Li441 1.956 . S
O501 Li443 1.961 . S
O501 C450 1.325 . S
O502 Li440 1.961 . S
O502 Li442 1.956 . S
O502 Li443 1.970 . S
O502 C472 1.325 . S
O503 Li441 1.961 . S
O503 Li442 1.970 . S
O503 Li443 1.956 . S
O503 C478 1.325 . S
H504 C446 0.929 . S
H505 C447 0.930 . S
H506 C448 0.930 . S
H507 C449 0.930 . S
H508 C451 0.930 . S
H509 C453 0.929 . S
H510 C454 0.930 . S
H511 C455 0.930 . S
H512 C458 0.930 . S
H513 C461 0.929 . S
H514 C466 0.929 . S
H515 C467 0.930 . S
H516 C474 0.929 . S
H517 C475 0.930 . S
H518 C476 0.930 . S
H519 C477 0.930 . S
H520 C479 0.929 . S
H521 C480 0.930 . S
H522 C481 0.930 . S
H523 C482 0.930 . S
H524 C486 0.929 . S
H525 C488 0.930 . S
H526 C494 0.929 . S
H527 C495 0.930 . S
Li528 N545 1.990 . S
Li528 O588 1.956 . S
Li528 O589 1.970 . S
Li528 O590 1.961 . S
Li529 N553 1.990 . S
Li529 O588 1.970 . S
Li529 O589 1.956 . S
Li529 O591 1.961 . S
Li530 N575 1.990 . S
Li530 O588 1.961 . S
Li530 O590 1.956 . S
Li530 O591 1.970 . S
Li531 N581 1.990 . S
Li531 O589 1.961 . S
Li531 O590 1.970 . S
Li531 O591 1.956 . S
C532 C534 1.348 . S
C532 C535 1.356 . S
C532 O588 1.325 . S
N533 C536 1.314 . S
N533 C537 1.279 . S
C534 C532 1.348 . S
C534 C536 1.353 . S
C534 H592 0.929 . S
C535 C532 1.356 . S
C535 C537 1.358 . S
C535 H593 0.930 . S
C536 N533 1.314 . S
C536 C534 1.353 . S
C536 H594 0.930 . S
C537 N533 1.279 . S
C537 C535 1.358 . S
C537 H595 0.930 . S
C538 C541 1.348 . S
C538 C542 1.356 . S
C538 O589 1.325 . S
C539 N540 1.279 . S
C539 C542 1.358 . S
C539 H596 0.930 . S
N540 C539 1.279 . S
N540 C543 1.314 . S
C541 C538 1.348 . S
C541 C543 1.353 . S
C541 H597 0.929 . S
C542 C538 1.356 . S
C542 C539 1.358 . S
C542 H598 0.930 . S
C543 N540 1.314 . S
C543 C541 1.353 . S
C543 H599 0.930 . S
C544 N545 1.314 . S
C544 C549 1.353 . S
C544 H550 0.930 . S
N545 Li528 1.990 . S
N545 C544 1.314 . S
N545 C547 1.279 . S
C546 C547 1.358 . S
C546 C548 1.356 . S
C546 H600 0.930 . S
C547 N545 1.279 . S
C547 C546 1.358 . S
C547 H551 0.930 . S
C548 C546 1.356 . S
C548 C549 1.348 . S
C549 C544 1.353 . S
C549 C548 1.348 . S
C549 H601 0.929 . S
H550 C544 0.930 . S
H551 C547 0.930 . S
C552 N553 1.314 . S
C552 C554 1.353 . S
C552 H558 0.930 . S
N553 Li529 1.990 . S
N553 C552 1.314 . S
N553 C556 1.279 . S
C554 C552 1.353 . S
C554 C557 1.348 . S
C554 H602 0.929 . S
C555 C556 1.358 . S
C555 C557 1.356 . S
C555 H603 0.930 . S
C556 N553 1.279 . S
C556 C555 1.358 . S
C556 H559 0.930 . S
C557 C554 1.348 . S
C557 C555 1.356 . S
H558 C552 0.930 . S
H559 C556 0.930 . S
C560 C562 1.348 . S
C560 C563 1.356 . S
C560 O590 1.325 . S
N561 C564 1.314 . S
N561 C565 1.279 . S
C562 C560 1.348 . S
C562 C564 1.353 . S
C562 H604 0.929 . S
C563 C560 1.356 . S
C563 C565 1.358 . S
C563 H605 0.930 . S
C564 N561 1.314 . S
C564 C562 1.353 . S
C564 H606 0.930 . S
C565 N561 1.279 . S
C565 C563 1.358 . S
C565 H607 0.930 . S
C566 C567 1.348 . S
C566 C568 1.356 . S
C566 O591 1.325 . S
C567 C566 1.348 . S
C567 C569 1.353 . S
C567 H608 0.929 . S
C568 C566 1.356 . S
C568 C570 1.358 . S
C568 H609 0.930 . S
C569 C567 1.353 . S
C569 N571 1.314 . S
C569 H610 0.930 . S
C570 C568 1.358 . S
C570 N571 1.279 . S
C570 H611 0.930 . S
N571 C569 1.314 . S
N571 C570 1.279 . S
C572 C574 1.353 . S
C572 N575 1.314 . S
C572 H578 0.930 . S
C573 N575 1.279 . S
C573 C576 1.358 . S
C573 H579 0.930 . S
C574 C572 1.353 . S
C574 C577 1.348 . S
C574 H612 0.929 . S
N575 Li530 1.990 . S
N575 C572 1.314 . S
N575 C573 1.279 . S
C576 C573 1.358 . S
C576 C577 1.356 . S
C576 H613 0.930 . S
C577 C574 1.348 . S
C577 C576 1.356 . S
H578 C572 0.930 . S
H579 C573 0.930 . S
C580 N581 1.314 . S
C580 C582 1.353 . S
C580 H586 0.930 . S
N581 Li531 1.990 . S
N581 C580 1.314 . S
N581 C584 1.279 . S
C582 C580 1.353 . S
C582 C585 1.348 . S
C582 H614 0.929 . S
C583 C584 1.358 . S
C583 C585 1.356 . S
C583 H615 0.930 . S
C584 N581 1.279 . S
C584 C583 1.358 . S
C584 H587 0.930 . S
C585 C582 1.348 . S
C585 C583 1.356 . S
H586 C580 0.930 . S
H587 C584 0.930 . S
O588 Li528 1.956 . S
O588 Li529 1.970 . S
O588 Li530 1.961 . S
O588 C532 1.325 . S
O589 Li528 1.970 . S
O589 Li529 1.956 . S
O589 Li531 1.961 . S
O589 C538 1.325 . S
O590 Li528 1.961 . S
O590 Li530 1.956 . S
O590 Li531 1.970 . S
O590 C560 1.325 . S
O591 Li529 1.961 . S
O591 Li530 1.970 . S
O591 Li531 1.956 . S
O591 C566 1.325 . S
H592 C534 0.929 . S
H593 C535 0.930 . S
H594 C536 0.930 . S
H595 C537 0.930 . S
H596 C539 0.930 . S
H597 C541 0.929 . S
H598 C542 0.930 . S
H599 C543 0.930 . S
H600 C546 0.930 . S
H601 C549 0.929 . S
H602 C554 0.929 . S
H603 C555 0.930 . S
H604 C562 0.929 . S
H605 C563 0.930 . S
H606 C564 0.930 . S
H607 C565 0.930 . S
H608 C567 0.929 . S
H609 C568 0.930 . S
H610 C569 0.930 . S
H611 C570 0.930 . S
H612 C574 0.929 . S
H613 C576 0.930 . S
H614 C582 0.929 . S
H615 C583 0.930 . S
Li616 N633 1.990 . S
Li616 O676 1.956 . S
Li616 O677 1.970 . S
Li616 O678 1.961 . S
Li617 N641 1.990 . S
Li617 O676 1.970 . S
Li617 O677 1.956 . S
Li617 O679 1.961 . S
Li618 N663 1.990 . S
Li618 O676 1.961 . S
Li618 O678 1.956 . S
Li618 O679 1.970 . S
Li619 N669 1.990 . S
Li619 O677 1.961 . S
Li619 O678 1.970 . S
Li619 O679 1.956 . S
C620 C622 1.348 . S
C620 C623 1.356 . S
C620 O676 1.325 . S
N621 C624 1.314 . S
N621 C625 1.279 . S
C622 C620 1.348 . S
C622 C624 1.353 . S
C622 H680 0.929 . S
C623 C620 1.356 . S
C623 C625 1.358 . S
C623 H681 0.930 . S
C624 N621 1.314 . S
C624 C622 1.353 . S
C624 H682 0.930 . S
C625 N621 1.279 . S
C625 C623 1.358 . S
C625 H683 0.930 . S
C626 C629 1.348 . S
C626 C630 1.356 . S
C626 O677 1.325 . S
C627 N628 1.279 . S
C627 C630 1.358 . S
C627 H684 0.930 . S
N628 C627 1.279 . S
N628 C631 1.314 . S
C629 C626 1.348 . S
C629 C631 1.353 . S
C629 H685 0.929 . S
C630 C626 1.356 . S
C630 C627 1.358 . S
C630 H686 0.930 . S
C631 N628 1.314 . S
C631 C629 1.353 . S
C631 H687 0.930 . S
C632 N633 1.314 . S
C632 C637 1.353 . S
C632 H638 0.930 . S
N633 Li616 1.990 . S
N633 C632 1.314 . S
N633 C635 1.279 . S
C634 C635 1.358 . S
C634 C636 1.356 . S
C634 H688 0.930 . S
C635 N633 1.279 . S
C635 C634 1.358 . S
C635 H639 0.930 . S
C636 C634 1.356 . S
C636 C637 1.348 . S
C637 C632 1.353 . S
C637 C636 1.348 . S
C637 H689 0.929 . S
H638 C632 0.930 . S
H639 C635 0.930 . S
C640 N641 1.314 . S
C640 C642 1.353 . S
C640 H646 0.930 . S
N641 Li617 1.990 . S
N641 C640 1.314 . S
N641 C644 1.279 . S
C642 C640 1.353 . S
C642 C645 1.348 . S
C642 H690 0.929 . S
C643 C644 1.358 . S
C643 C645 1.356 . S
C643 H691 0.930 . S
C644 N641 1.279 . S
C644 C643 1.358 . S
C644 H647 0.930 . S
C645 C642 1.348 . S
C645 C643 1.356 . S
H646 C640 0.930 . S
H647 C644 0.930 . S
C648 C650 1.348 . S
C648 C651 1.356 . S
C648 O678 1.325 . S
N649 C652 1.314 . S
N649 C653 1.279 . S
C650 C648 1.348 . S
C650 C652 1.353 . S
C650 H692 0.929 . S
C651 C648 1.356 . S
C651 C653 1.358 . S
C651 H693 0.930 . S
C652 N649 1.314 . S
C652 C650 1.353 . S
C652 H694 0.930 . S
C653 N649 1.279 . S
C653 C651 1.358 . S
C653 H695 0.930 . S
C654 C655 1.348 . S
C654 C656 1.356 . S
C654 O679 1.325 . S
C655 C654 1.348 . S
C655 C657 1.353 . S
C655 H696 0.929 . S
C656 C654 1.356 . S
C656 C658 1.358 . S
C656 H697 0.930 . S
C657 C655 1.353 . S
C657 N659 1.314 . S
C657 H698 0.930 . S
C658 C656 1.358 . S
C658 N659 1.279 . S
C658 H699 0.930 . S
N659 C657 1.314 . S
N659 C658 1.279 . S
C660 C662 1.353 . S
C660 N663 1.314 . S
C660 H666 0.930 . S
C661 N663 1.279 . S
C661 C664 1.358 . S
C661 H667 0.930 . S
C662 C660 1.353 . S
C662 C665 1.348 . S
C662 H700 0.929 . S
N663 Li618 1.990 . S
N663 C660 1.314 . S
N663 C661 1.279 . S
C664 C661 1.358 . S
C664 C665 1.356 . S
C664 H701 0.930 . S
C665 C662 1.348 . S
C665 C664 1.356 . S
H666 C660 0.930 . S
H667 C661 0.930 . S
C668 N669 1.314 . S
C668 C670 1.353 . S
C668 H674 0.930 . S
N669 Li619 1.990 . S
N669 C668 1.314 . S
N669 C672 1.279 . S
C670 C668 1.353 . S
C670 C673 1.348 . S
C670 H702 0.929 . S
C671 C672 1.358 . S
C671 C673 1.356 . S
C671 H703 0.930 . S
C672 N669 1.279 . S
C672 C671 1.358 . S
C672 H675 0.930 . S
C673 C670 1.348 . S
C673 C671 1.356 . S
H674 C668 0.930 . S
H675 C672 0.930 . S
O676 Li616 1.956 . S
O676 Li617 1.970 . S
O676 Li618 1.961 . S
O676 C620 1.325 . S
O677 Li616 1.970 . S
O677 Li617 1.956 . S
O677 Li619 1.961 . S
O677 C626 1.325 . S
O678 Li616 1.961 . S
O678 Li618 1.956 . S
O678 Li619 1.970 . S
O678 C648 1.325 . S
O679 Li617 1.961 . S
O679 Li618 1.970 . S
O679 Li619 1.956 . S
O679 C654 1.325 . S
H680 C622 0.929 . S
H681 C623 0.930 . S
H682 C624 0.930 . S
H683 C625 0.930 . S
H684 C627 0.930 . S
H685 C629 0.929 . S
H686 C630 0.930 . S
H687 C631 0.930 . S
H688 C634 0.930 . S
H689 C637 0.929 . S
H690 C642 0.929 . S
H691 C643 0.930 . S
H692 C650 0.929 . S
H693 C651 0.930 . S
H694 C652 0.930 . S
H695 C653 0.930 . S
H696 C655 0.929 . S
H697 C656 0.930 . S
H698 C657 0.930 . S
H699 C658 0.930 . S
H700 C662 0.929 . S
H701 C664 0.930 . S
H702 C670 0.929 . S
H703 C671 0.930 . S
Li704 N721 1.990 . S
Li704 O764 1.956 . S
Li704 O765 1.970 . S
Li704 O766 1.961 . S
Li705 N729 1.990 . S
Li705 O764 1.970 . S
Li705 O765 1.956 . S
Li705 O767 1.961 . S
Li706 N751 1.990 . S
Li706 O764 1.961 . S
Li706 O766 1.956 . S
Li706 O767 1.970 . S
Li707 N757 1.990 . S
Li707 O765 1.961 . S
Li707 O766 1.970 . S
Li707 O767 1.956 . S
C708 C710 1.348 . S
C708 C711 1.356 . S
C708 O764 1.325 . S
N709 C712 1.314 . S
N709 C713 1.279 . S
C710 C708 1.348 . S
C710 C712 1.353 . S
C710 H768 0.929 . S
C711 C708 1.356 . S
C711 C713 1.358 . S
C711 H769 0.930 . S
C712 N709 1.314 . S
C712 C710 1.353 . S
C712 H770 0.930 . S
C713 N709 1.279 . S
C713 C711 1.358 . S
C713 H771 0.930 . S
C714 C717 1.348 . S
C714 C718 1.356 . S
C714 O765 1.325 . S
C715 N716 1.279 . S
C715 C718 1.358 . S
C715 H772 0.930 . S
N716 C715 1.279 . S
N716 C719 1.314 . S
C717 C714 1.348 . S
C717 C719 1.353 . S
C717 H773 0.929 . S
C718 C714 1.356 . S
C718 C715 1.358 . S
C718 H774 0.930 . S
C719 N716 1.314 . S
C719 C717 1.353 . S
C719 H775 0.930 . S
C720 N721 1.314 . S
C720 C725 1.353 . S
C720 H726 0.930 . S
N721 Li704 1.990 . S
N721 C720 1.314 . S
N721 C723 1.279 . S
C722 C723 1.358 . S
C722 C724 1.356 . S
C722 H776 0.930 . S
C723 N721 1.279 . S
C723 C722 1.358 . S
C723 H727 0.930 . S
C724 C722 1.356 . S
C724 C725 1.348 . S
C725 C720 1.353 . S
C725 C724 1.348 . S
C725 H777 0.929 . S
H726 C720 0.930 . S
H727 C723 0.930 . S
C728 N729 1.314 . S
C728 C730 1.353 . S
C728 H734 0.930 . S
N729 Li705 1.990 . S
N729 C728 1.314 . S
N729 C732 1.279 . S
C730 C728 1.353 . S
C730 C733 1.348 . S
C730 H778 0.929 . S
C731 C732 1.358 . S
C731 C733 1.356 . S
C731 H779 0.930 . S
C732 N729 1.279 . S
C732 C731 1.358 . S
C732 H735 0.930 . S
C733 C730 1.348 . S
C733 C731 1.356 . S
H734 C728 0.930 . S
H735 C732 0.930 . S
C736 C738 1.348 . S
C736 C739 1.356 . S
C736 O766 1.325 . S
N737 C740 1.314 . S
N737 C741 1.279 . S
C738 C736 1.348 . S
C738 C740 1.353 . S
C738 H780 0.929 . S
C739 C736 1.356 . S
C739 C741 1.358 . S
C739 H781 0.930 . S
C740 N737 1.314 . S
C740 C738 1.353 . S
C740 H782 0.930 . S
C741 N737 1.279 . S
C741 C739 1.358 . S
C741 H783 0.930 . S
C742 C743 1.348 . S
C742 C744 1.356 . S
C742 O767 1.325 . S
C743 C742 1.348 . S
C743 C745 1.353 . S
C743 H784 0.929 . S
C744 C742 1.356 . S
C744 C746 1.358 . S
C744 H785 0.930 . S
C745 C743 1.353 . S
C745 N747 1.314 . S
C745 H786 0.930 . S
C746 C744 1.358 . S
C746 N747 1.279 . S
C746 H787 0.930 . S
N747 C745 1.314 . S
N747 C746 1.279 . S
C748 C750 1.353 . S
C748 N751 1.314 . S
C748 H754 0.930 . S
C749 N751 1.279 . S
C749 C752 1.358 . S
C749 H755 0.930 . S
C750 C748 1.353 . S
C750 C753 1.348 . S
C750 H788 0.929 . S
N751 Li706 1.990 . S
N751 C748 1.314 . S
N751 C749 1.279 . S
C752 C749 1.358 . S
C752 C753 1.356 . S
C752 H789 0.930 . S
C753 C750 1.348 . S
C753 C752 1.356 . S
H754 C748 0.930 . S
H755 C749 0.930 . S
C756 N757 1.314 . S
C756 C758 1.353 . S
C756 H762 0.930 . S
N757 Li707 1.990 . S
N757 C756 1.314 . S
N757 C760 1.279 . S
C758 C756 1.353 . S
C758 C761 1.348 . S
C758 H790 0.929 . S
C759 C760 1.358 . S
C759 C761 1.356 . S
C759 H791 0.930 . S
C760 N757 1.279 . S
C760 C759 1.358 . S
C760 H763 0.930 . S
C761 C758 1.348 . S
C761 C759 1.356 . S
H762 C756 0.930 . S
H763 C760 0.930 . S
O764 Li704 1.956 . S
O764 Li705 1.970 . S
O764 Li706 1.961 . S
O764 C708 1.325 . S
O765 Li704 1.970 . S
O765 Li705 1.956 . S
O765 Li707 1.961 . S
O765 C714 1.325 . S
O766 Li704 1.961 . S
O766 Li706 1.956 . S
O766 Li707 1.970 . S
O766 C736 1.325 . S
O767 Li705 1.961 . S
O767 Li706 1.970 . S
O767 Li707 1.956 . S
O767 C742 1.325 . S
H768 C710 0.929 . S
H769 C711 0.930 . S
H770 C712 0.930 . S
H771 C713 0.930 . S
H772 C715 0.930 . S
H773 C717 0.929 . S
H774 C718 0.930 . S
H775 C719 0.930 . S
H776 C722 0.930 . S
H777 C725 0.929 . S
H778 C730 0.929 . S
H779 C731 0.930 . S
H780 C738 0.929 . S
H781 C739 0.930 . S
H782 C740 0.930 . S
H783 C741 0.930 . S
H784 C743 0.929 . S
H785 C744 0.930 . S
H786 C745 0.930 . S
H787 C746 0.930 . S
H788 C750 0.929 . S
H789 C752 0.930 . S
H790 C758 0.929 . S
H791 C759 0.930 . S
Li792 N809 1.990 . S
Li792 O852 1.956 . S
Li792 O853 1.970 . S
Li792 O854 1.961 . S
Li793 N817 1.990 . S
Li793 O852 1.970 . S
Li793 O853 1.956 . S
Li793 O855 1.961 . S
Li794 N839 1.990 . S
Li794 O852 1.961 . S
Li794 O854 1.956 . S
Li794 O855 1.970 . S
Li795 N845 1.990 . S
Li795 O853 1.961 . S
Li795 O854 1.970 . S
Li795 O855 1.956 . S
C796 C798 1.348 . S
C796 C799 1.356 . S
C796 O852 1.325 . S
N797 C800 1.314 . S
N797 C801 1.279 . S
C798 C796 1.348 . S
C798 C800 1.353 . S
C798 H856 0.929 . S
C799 C796 1.356 . S
C799 C801 1.358 . S
C799 H857 0.930 . S
C800 N797 1.314 . S
C800 C798 1.353 . S
C800 H858 0.930 . S
C801 N797 1.279 . S
C801 C799 1.358 . S
C801 H859 0.930 . S
C802 C805 1.348 . S
C802 C806 1.356 . S
C802 O853 1.325 . S
C803 N804 1.279 . S
C803 C806 1.358 . S
C803 H860 0.930 . S
N804 C803 1.279 . S
N804 C807 1.314 . S
C805 C802 1.348 . S
C805 C807 1.353 . S
C805 H861 0.929 . S
C806 C802 1.356 . S
C806 C803 1.358 . S
C806 H862 0.930 . S
C807 N804 1.314 . S
C807 C805 1.353 . S
C807 H863 0.930 . S
C808 N809 1.314 . S
C808 C813 1.353 . S
C808 H814 0.930 . S
N809 Li792 1.990 . S
N809 C808 1.314 . S
N809 C811 1.279 . S
C810 C811 1.358 . S
C810 C812 1.356 . S
C810 H864 0.930 . S
C811 N809 1.279 . S
C811 C810 1.358 . S
C811 H815 0.930 . S
C812 C810 1.356 . S
C812 C813 1.348 . S
C813 C808 1.353 . S
C813 C812 1.348 . S
C813 H865 0.929 . S
H814 C808 0.930 . S
H815 C811 0.930 . S
C816 N817 1.314 . S
C816 C818 1.353 . S
C816 H822 0.930 . S
N817 Li793 1.990 . S
N817 C816 1.314 . S
N817 C820 1.279 . S
C818 C816 1.353 . S
C818 C821 1.348 . S
C818 H866 0.929 . S
C819 C820 1.358 . S
C819 C821 1.356 . S
C819 H867 0.930 . S
C820 N817 1.279 . S
C820 C819 1.358 . S
C820 H823 0.930 . S
C821 C818 1.348 . S
C821 C819 1.356 . S
H822 C816 0.930 . S
H823 C820 0.930 . S
C824 C826 1.348 . S
C824 C827 1.356 . S
C824 O854 1.325 . S
N825 C828 1.314 . S
N825 C829 1.279 . S
C826 C824 1.348 . S
C826 C828 1.353 . S
C826 H868 0.929 . S
C827 C824 1.356 . S
C827 C829 1.358 . S
C827 H869 0.930 . S
C828 N825 1.314 . S
C828 C826 1.353 . S
C828 H870 0.930 . S
C829 N825 1.279 . S
C829 C827 1.358 . S
C829 H871 0.930 . S
C830 C831 1.348 . S
C830 C832 1.356 . S
C830 O855 1.325 . S
C831 C830 1.348 . S
C831 C833 1.353 . S
C831 H872 0.929 . S
C832 C830 1.356 . S
C832 C834 1.358 . S
C832 H873 0.930 . S
C833 C831 1.353 . S
C833 N835 1.314 . S
C833 H874 0.930 . S
C834 C832 1.358 . S
C834 N835 1.279 . S
C834 H875 0.930 . S
N835 C833 1.314 . S
N835 C834 1.279 . S
C836 C838 1.353 . S
C836 N839 1.314 . S
C836 H842 0.930 . S
C837 N839 1.279 . S
C837 C840 1.358 . S
C837 H843 0.930 . S
C838 C836 1.353 . S
C838 C841 1.348 . S
C838 H876 0.929 . S
N839 Li794 1.990 . S
N839 C836 1.314 . S
N839 C837 1.279 . S
C840 C837 1.358 . S
C840 C841 1.356 . S
C840 H877 0.930 . S
C841 C838 1.348 . S
C841 C840 1.356 . S
H842 C836 0.930 . S
H843 C837 0.930 . S
C844 N845 1.314 . S
C844 C846 1.353 . S
C844 H850 0.930 . S
N845 Li795 1.990 . S
N845 C844 1.314 . S
N845 C848 1.279 . S
C846 C844 1.353 . S
C846 C849 1.348 . S
C846 H878 0.929 . S
C847 C848 1.358 . S
C847 C849 1.356 . S
C847 H879 0.930 . S
C848 N845 1.279 . S
C848 C847 1.358 . S
C848 H851 0.930 . S
C849 C846 1.348 . S
C849 C847 1.356 . S
H850 C844 0.930 . S
H851 C848 0.930 . S
O852 Li792 1.956 . S
O852 Li793 1.970 . S
O852 Li794 1.961 . S
O852 C796 1.325 . S
O853 Li792 1.970 . S
O853 Li793 1.956 . S
O853 Li795 1.961 . S
O853 C802 1.325 . S
O854 Li792 1.961 . S
O854 Li794 1.956 . S
O854 Li795 1.970 . S
O854 C824 1.325 . S
O855 Li793 1.961 . S
O855 Li794 1.970 . S
O855 Li795 1.956 . S
O855 C830 1.325 . S
H856 C798 0.929 . S
H857 C799 0.930 . S
H858 C800 0.930 . S
H859 C801 0.930 . S
H860 C803 0.930 . S
H861 C805 0.929 . S
H862 C806 0.930 . S
H863 C807 0.930 . S
H864 C810 0.930 . S
H865 C813 0.929 . S
H866 C818 0.929 . S
H867 C819 0.930 . S
H868 C826 0.929 . S
H869 C827 0.930 . S
H870 C828 0.930 . S
H871 C829 0.930 . S
H872 C831 0.929 . S
H873 C832 0.930 . S
H874 C833 0.930 . S
H875 C834 0.930 . S
H876 C838 0.929 . S
H877 C840 0.930 . S
H878 C846 0.929 . S
H879 C847 0.930 . S
Li880 N897 1.990 . S
Li880 O940 1.956 . S
Li880 O941 1.970 . S
Li880 O942 1.961 . S
Li881 N905 1.990 . S
Li881 O940 1.970 . S
Li881 O941 1.956 . S
Li881 O943 1.961 . S
Li882 N927 1.990 . S
Li882 O940 1.961 . S
Li882 O942 1.956 . S
Li882 O943 1.970 . S
Li883 N933 1.990 . S
Li883 O941 1.961 . S
Li883 O942 1.970 . S
Li883 O943 1.956 . S
C884 C886 1.348 . S
C884 C887 1.356 . S
C884 O940 1.325 . S
N885 C888 1.314 . S
N885 C889 1.279 . S
C886 C884 1.348 . S
C886 C888 1.353 . S
C886 H944 0.929 . S
C887 C884 1.356 . S
C887 C889 1.358 . S
C887 H945 0.930 . S
C888 N885 1.314 . S
C888 C886 1.353 . S
C888 H946 0.930 . S
C889 N885 1.279 . S
C889 C887 1.358 . S
C889 H947 0.930 . S
C890 C893 1.348 . S
C890 C894 1.356 . S
C890 O941 1.325 . S
C891 N892 1.279 . S
C891 C894 1.358 . S
C891 H948 0.930 . S
N892 C891 1.279 . S
N892 C895 1.314 . S
C893 C890 1.348 . S
C893 C895 1.353 . S
C893 H949 0.929 . S
C894 C890 1.356 . S
C894 C891 1.358 . S
C894 H950 0.930 . S
C895 N892 1.314 . S
C895 C893 1.353 . S
C895 H951 0.930 . S
C896 N897 1.314 . S
C896 C901 1.353 . S
C896 H902 0.930 . S
N897 Li880 1.990 . S
N897 C896 1.314 . S
N897 C899 1.279 . S
C898 C899 1.358 . S
C898 C900 1.356 . S
C898 H952 0.930 . S
C899 N897 1.279 . S
C899 C898 1.358 . S
C899 H903 0.930 . S
C900 C898 1.356 . S
C900 C901 1.348 . S
C901 C896 1.353 . S
C901 C900 1.348 . S
C901 H953 0.929 . S
H902 C896 0.930 . S
H903 C899 0.930 . S
C904 N905 1.314 . S
C904 C906 1.353 . S
C904 H910 0.930 . S
N905 Li881 1.990 . S
N905 C904 1.314 . S
N905 C908 1.279 . S
C906 C904 1.353 . S
C906 C909 1.348 . S
C906 H954 0.929 . S
C907 C908 1.358 . S
C907 C909 1.356 . S
C907 H955 0.930 . S
C908 N905 1.279 . S
C908 C907 1.358 . S
C908 H911 0.930 . S
C909 C906 1.348 . S
C909 C907 1.356 . S
H910 C904 0.930 . S
H911 C908 0.930 . S
C912 C914 1.348 . S
C912 C915 1.356 . S
C912 O942 1.325 . S
N913 C916 1.314 . S
N913 C917 1.279 . S
C914 C912 1.348 . S
C914 C916 1.353 . S
C914 H956 0.929 . S
C915 C912 1.356 . S
C915 C917 1.358 . S
C915 H957 0.930 . S
C916 N913 1.314 . S
C916 C914 1.353 . S
C916 H958 0.930 . S
C917 N913 1.279 . S
C917 C915 1.358 . S
C917 H959 0.930 . S
C918 C919 1.348 . S
C918 C920 1.356 . S
C918 O943 1.325 . S
C919 C918 1.348 . S
C919 C921 1.353 . S
C919 H960 0.929 . S
C920 C918 1.356 . S
C920 C922 1.358 . S
C920 H961 0.930 . S
C921 C919 1.353 . S
C921 N923 1.314 . S
C921 H962 0.930 . S
C922 C920 1.358 . S
C922 N923 1.279 . S
C922 H963 0.930 . S
N923 C921 1.314 . S
N923 C922 1.279 . S
C924 C926 1.353 . S
C924 N927 1.314 . S
C924 H930 0.930 . S
C925 N927 1.279 . S
C925 C928 1.358 . S
C925 H931 0.930 . S
C926 C924 1.353 . S
C926 C929 1.348 . S
C926 H964 0.929 . S
N927 Li882 1.990 . S
N927 C924 1.314 . S
N927 C925 1.279 . S
C928 C925 1.358 . S
C928 C929 1.356 . S
C928 H965 0.930 . S
C929 C926 1.348 . S
C929 C928 1.356 . S
H930 C924 0.930 . S
H931 C925 0.930 . S
C932 N933 1.314 . S
C932 C934 1.353 . S
C932 H938 0.930 . S
N933 Li883 1.990 . S
N933 C932 1.314 . S
N933 C936 1.279 . S
C934 C932 1.353 . S
C934 C937 1.348 . S
C934 H966 0.929 . S
C935 C936 1.358 . S
C935 C937 1.356 . S
C935 H967 0.930 . S
C936 N933 1.279 . S
C936 C935 1.358 . S
C936 H939 0.930 . S
C937 C934 1.348 . S
C937 C935 1.356 . S
H938 C932 0.930 . S
H939 C936 0.930 . S
O940 Li880 1.956 . S
O940 Li881 1.970 . S
O940 Li882 1.961 . S
O940 C884 1.325 . S
O941 Li880 1.970 . S
O941 Li881 1.956 . S
O941 Li883 1.961 . S
O941 C890 1.325 . S
O942 Li880 1.961 . S
O942 Li882 1.956 . S
O942 Li883 1.970 . S
O942 C912 1.325 . S
O943 Li881 1.961 . S
O943 Li882 1.970 . S
O943 Li883 1.956 . S
O943 C918 1.325 . S
H944 C886 0.929 . S
H945 C887 0.930 . S
H946 C888 0.930 . S
H947 C889 0.930 . S
H948 C891 0.930 . S
H949 C893 0.929 . S
H950 C894 0.930 . S
H951 C895 0.930 . S
H952 C898 0.930 . S
H953 C901 0.929 . S
H954 C906 0.929 . S
H955 C907 0.930 . S
H956 C914 0.929 . S
H957 C915 0.930 . S
H958 C916 0.930 . S
H959 C917 0.930 . S
H960 C919 0.929 . S
H961 C920 0.930 . S
H962 C921 0.930 . S
H963 C922 0.930 . S
H964 C926 0.929 . S
H965 C928 0.930 . S
H966 C934 0.929 . S
H967 C935 0.930 . S
Li968 N985 1.990 . S
Li968 O1028 1.956 . S
Li968 O1029 1.970 . S
Li968 O1030 1.961 . S
Li969 N993 1.990 . S
Li969 O1028 1.970 . S
Li969 O1029 1.956 . S
Li969 O1031 1.961 . S
Li970 N1015 1.990 . S
Li970 O1028 1.961 . S
Li970 O1030 1.956 . S
Li970 O1031 1.970 . S
Li971 N1021 1.990 . S
Li971 O1029 1.961 . S
Li971 O1030 1.970 . S
Li971 O1031 1.956 . S
C972 C974 1.348 . S
C972 C975 1.356 . S
C972 O1028 1.325 . S
N973 C976 1.314 . S
N973 C977 1.279 . S
C974 C972 1.348 . S
C974 C976 1.353 . S
C974 H1032 0.929 . S
C975 C972 1.356 . S
C975 C977 1.358 . S
C975 H1033 0.930 . S
C976 N973 1.314 . S
C976 C974 1.353 . S
C976 H1034 0.930 . S
C977 N973 1.279 . S
C977 C975 1.358 . S
C977 H1035 0.930 . S
C978 C981 1.348 . S
C978 C982 1.356 . S
C978 O1029 1.325 . S
C979 N980 1.279 . S
C979 C982 1.358 . S
C979 H1036 0.930 . S
N980 C979 1.279 . S
N980 C983 1.314 . S
C981 C978 1.348 . S
C981 C983 1.353 . S
C981 H1037 0.929 . S
C982 C978 1.356 . S
C982 C979 1.358 . S
C982 H1038 0.930 . S
C983 N980 1.314 . S
C983 C981 1.353 . S
C983 H1039 0.930 . S
C984 N985 1.314 . S
C984 C989 1.353 . S
C984 H990 0.930 . S
N985 Li968 1.990 . S
N985 C984 1.314 . S
N985 C987 1.279 . S
C986 C987 1.358 . S
C986 C988 1.356 . S
C986 H1040 0.930 . S
C987 N985 1.279 . S
C987 C986 1.358 . S
C987 H991 0.930 . S
C988 C986 1.356 . S
C988 C989 1.348 . S
C989 C984 1.353 . S
C989 C988 1.348 . S
C989 H1041 0.929 . S
H990 C984 0.930 . S
H991 C987 0.930 . S
C992 N993 1.314 . S
C992 C994 1.353 . S
C992 H998 0.930 . S
N993 Li969 1.990 . S
N993 C992 1.314 . S
N993 C996 1.279 . S
C994 C992 1.353 . S
C994 C997 1.348 . S
C994 H1042 0.929 . S
C995 C996 1.358 . S
C995 C997 1.356 . S
C995 H1043 0.930 . S
C996 N993 1.279 . S
C996 C995 1.358 . S
C996 H999 0.930 . S
C997 C994 1.348 . S
C997 C995 1.356 . S
H998 C992 0.930 . S
H999 C996 0.930 . S
C1000 C1002 1.348 . S
C1000 C1003 1.356 . S
C1000 O1030 1.325 . S
N1001 C1004 1.314 . S
N1001 C1005 1.279 . S
C1002 C1000 1.348 . S
C1002 C1004 1.353 . S
C1002 H1044 0.929 . S
C1003 C1000 1.356 . S
C1003 C1005 1.358 . S
C1003 H1045 0.930 . S
C1004 N1001 1.314 . S
C1004 C1002 1.353 . S
C1004 H1046 0.930 . S
C1005 N1001 1.279 . S
C1005 C1003 1.358 . S
C1005 H1047 0.930 . S
C1006 C1007 1.348 . S
C1006 C1008 1.356 . S
C1006 O1031 1.325 . S
C1007 C1006 1.348 . S
C1007 C1009 1.353 . S
C1007 H1048 0.929 . S
C1008 C1006 1.356 . S
C1008 C1010 1.358 . S
C1008 H1049 0.930 . S
C1009 C1007 1.353 . S
C1009 N1011 1.314 . S
C1009 H1050 0.930 . S
C1010 C1008 1.358 . S
C1010 N1011 1.279 . S
C1010 H1051 0.930 . S
N1011 C1009 1.314 . S
N1011 C1010 1.279 . S
C1012 C1014 1.353 . S
C1012 N1015 1.314 . S
C1012 H1018 0.930 . S
C1013 N1015 1.279 . S
C1013 C1016 1.358 . S
C1013 H1019 0.930 . S
C1014 C1012 1.353 . S
C1014 C1017 1.348 . S
C1014 H1052 0.929 . S
N1015 Li970 1.990 . S
N1015 C1012 1.314 . S
N1015 C1013 1.279 . S
C1016 C1013 1.358 . S
C1016 C1017 1.356 . S
C1016 H1053 0.930 . S
C1017 C1014 1.348 . S
C1017 C1016 1.356 . S
H1018 C1012 0.930 . S
H1019 C1013 0.930 . S
C1020 N1021 1.314 . S
C1020 C1022 1.353 . S
C1020 H1026 0.930 . S
N1021 Li971 1.990 . S
N1021 C1020 1.314 . S
N1021 C1024 1.279 . S
C1022 C1020 1.353 . S
C1022 C1025 1.348 . S
C1022 H1054 0.929 . S
C1023 C1024 1.358 . S
C1023 C1025 1.356 . S
C1023 H1055 0.930 . S
C1024 N1021 1.279 . S
C1024 C1023 1.358 . S
C1024 H1027 0.930 . S
C1025 C1022 1.348 . S
C1025 C1023 1.356 . S
H1026 C1020 0.930 . S
H1027 C1024 0.930 . S
O1028 Li968 1.956 . S
O1028 Li969 1.970 . S
O1028 Li970 1.961 . S
O1028 C972 1.325 . S
O1029 Li968 1.970 . S
O1029 Li969 1.956 . S
O1029 Li971 1.961 . S
O1029 C978 1.325 . S
O1030 Li968 1.961 . S
O1030 Li970 1.956 . S
O1030 Li971 1.970 . S
O1030 C1000 1.325 . S
O1031 Li969 1.961 . S
O1031 Li970 1.970 . S
O1031 Li971 1.956 . S
O1031 C1006 1.325 . S
H1032 C974 0.929 . S
H1033 C975 0.930 . S
H1034 C976 0.930 . S
H1035 C977 0.930 . S
H1036 C979 0.930 . S
H1037 C981 0.929 . S
H1038 C982 0.930 . S
H1039 C983 0.930 . S
H1040 C986 0.930 . S
H1041 C989 0.929 . S
H1042 C994 0.929 . S
H1043 C995 0.930 . S
H1044 C1002 0.929 . S
H1045 C1003 0.930 . S
H1046 C1004 0.930 . S
H1047 C1005 0.930 . S
H1048 C1007 0.929 . S
H1049 C1008 0.930 . S
H1050 C1009 0.930 . S
H1051 C1010 0.930 . S
H1052 C1014 0.929 . S
H1053 C1016 0.930 . S
H1054 C1022 0.929 . S
H1055 C1023 0.930 . S
Li1056 N1073 1.990 . S
Li1056 O1116 1.956 . S
Li1056 O1117 1.970 . S
Li1056 O1118 1.961 . S
Li1057 N1081 1.990 . S
Li1057 O1116 1.970 . S
Li1057 O1117 1.956 . S
Li1057 O1119 1.961 . S
Li1058 N1103 1.990 . S
Li1058 O1116 1.961 . S
Li1058 O1118 1.956 . S
Li1058 O1119 1.970 . S
Li1059 N1109 1.990 . S
Li1059 O1117 1.961 . S
Li1059 O1118 1.970 . S
Li1059 O1119 1.956 . S
C1060 C1062 1.348 . S
C1060 C1063 1.356 . S
C1060 O1116 1.325 . S
N1061 C1064 1.314 . S
N1061 C1065 1.279 . S
C1062 C1060 1.348 . S
C1062 C1064 1.353 . S
C1062 H1120 0.929 . S
C1063 C1060 1.356 . S
C1063 C1065 1.358 . S
C1063 H1121 0.930 . S
C1064 N1061 1.314 . S
C1064 C1062 1.353 . S
C1064 H1122 0.930 . S
C1065 N1061 1.279 . S
C1065 C1063 1.358 . S
C1065 H1123 0.930 . S
C1066 C1069 1.348 . S
C1066 C1070 1.356 . S
C1066 O1117 1.325 . S
C1067 N1068 1.279 . S
C1067 C1070 1.358 . S
C1067 H1124 0.930 . S
N1068 C1067 1.279 . S
N1068 C1071 1.314 . S
C1069 C1066 1.348 . S
C1069 C1071 1.353 . S
C1069 H1125 0.929 . S
C1070 C1066 1.356 . S
C1070 C1067 1.358 . S
C1070 H1126 0.930 . S
C1071 N1068 1.314 . S
C1071 C1069 1.353 . S
C1071 H1127 0.930 . S
C1072 N1073 1.314 . S
C1072 C1077 1.353 . S
C1072 H1078 0.930 . S
N1073 Li1056 1.990 . S
N1073 C1072 1.314 . S
N1073 C1075 1.279 . S
C1074 C1075 1.358 . S
C1074 C1076 1.356 . S
C1074 H1128 0.930 . S
C1075 N1073 1.279 . S
C1075 C1074 1.358 . S
C1075 H1079 0.930 . S
C1076 C1074 1.356 . S
C1076 C1077 1.348 . S
C1077 C1072 1.353 . S
C1077 C1076 1.348 . S
C1077 H1129 0.929 . S
H1078 C1072 0.930 . S
H1079 C1075 0.930 . S
C1080 N1081 1.314 . S
C1080 C1082 1.353 . S
C1080 H1086 0.930 . S
N1081 Li1057 1.990 . S
N1081 C1080 1.314 . S
N1081 C1084 1.279 . S
C1082 C1080 1.353 . S
C1082 C1085 1.348 . S
C1082 H1130 0.929 . S
C1083 C1084 1.358 . S
C1083 C1085 1.356 . S
C1083 H1131 0.930 . S
C1084 N1081 1.279 . S
C1084 C1083 1.358 . S
C1084 H1087 0.930 . S
C1085 C1082 1.348 . S
C1085 C1083 1.356 . S
H1086 C1080 0.930 . S
H1087 C1084 0.930 . S
C1088 C1090 1.348 . S
C1088 C1091 1.356 . S
C1088 O1118 1.325 . S
N1089 C1092 1.314 . S
N1089 C1093 1.279 . S
C1090 C1088 1.348 . S
C1090 C1092 1.353 . S
C1090 H1132 0.929 . S
C1091 C1088 1.356 . S
C1091 C1093 1.358 . S
C1091 H1133 0.930 . S
C1092 N1089 1.314 . S
C1092 C1090 1.353 . S
C1092 H1134 0.930 . S
C1093 N1089 1.279 . S
C1093 C1091 1.358 . S
C1093 H1135 0.930 . S
C1094 C1095 1.348 . S
C1094 C1096 1.356 . S
C1094 O1119 1.325 . S
C1095 C1094 1.348 . S
C1095 C1097 1.353 . S
C1095 H1136 0.929 . S
C1096 C1094 1.356 . S
C1096 C1098 1.358 . S
C1096 H1137 0.930 . S
C1097 C1095 1.353 . S
C1097 N1099 1.314 . S
C1097 H1138 0.930 . S
C1098 C1096 1.358 . S
C1098 N1099 1.279 . S
C1098 H1139 0.930 . S
N1099 C1097 1.314 . S
N1099 C1098 1.279 . S
C1100 C1102 1.353 . S
C1100 N1103 1.314 . S
C1100 H1106 0.930 . S
C1101 N1103 1.279 . S
C1101 C1104 1.358 . S
C1101 H1107 0.930 . S
C1102 C1100 1.353 . S
C1102 C1105 1.348 . S
C1102 H1140 0.929 . S
N1103 Li1058 1.990 . S
N1103 C1100 1.314 . S
N1103 C1101 1.279 . S
C1104 C1101 1.358 . S
C1104 C1105 1.356 . S
C1104 H1141 0.930 . S
C1105 C1102 1.348 . S
C1105 C1104 1.356 . S
H1106 C1100 0.930 . S
H1107 C1101 0.930 . S
C1108 N1109 1.314 . S
C1108 C1110 1.353 . S
C1108 H1114 0.930 . S
N1109 Li1059 1.990 . S
N1109 C1108 1.314 . S
N1109 C1112 1.279 . S
C1110 C1108 1.353 . S
C1110 C1113 1.348 . S
C1110 H1142 0.929 . S
C1111 C1112 1.358 . S
C1111 C1113 1.356 . S
C1111 H1143 0.930 . S
C1112 N1109 1.279 . S
C1112 C1111 1.358 . S
C1112 H1115 0.930 . S
C1113 C1110 1.348 . S
C1113 C1111 1.356 . S
H1114 C1108 0.930 . S
H1115 C1112 0.930 . S
O1116 Li1056 1.956 . S
O1116 Li1057 1.970 . S
O1116 Li1058 1.961 . S
O1116 C1060 1.325 . S
O1117 Li1056 1.970 . S
O1117 Li1057 1.956 . S
O1117 Li1059 1.961 . S
O1117 C1066 1.325 . S
O1118 Li1056 1.961 . S
O1118 Li1058 1.956 . S
O1118 Li1059 1.970 . S
O1118 C1088 1.325 . S
O1119 Li1057 1.961 . S
O1119 Li1058 1.970 . S
O1119 Li1059 1.956 . S
O1119 C1094 1.325 . S
H1120 C1062 0.929 . S
H1121 C1063 0.930 . S
H1122 C1064 0.930 . S
H1123 C1065 0.930 . S
H1124 C1067 0.930 . S
H1125 C1069 0.929 . S
H1126 C1070 0.930 . S
H1127 C1071 0.930 . S
H1128 C1074 0.930 . S
H1129 C1077 0.929 . S
H1130 C1082 0.929 . S
H1131 C1083 0.930 . S
H1132 C1090 0.929 . S
H1133 C1091 0.930 . S
H1134 C1092 0.930 . S
H1135 C1093 0.930 . S
H1136 C1095 0.929 . S
H1137 C1096 0.930 . S
H1138 C1097 0.930 . S
H1139 C1098 0.930 . S
H1140 C1102 0.929 . S
H1141 C1104 0.930 . S
H1142 C1110 0.929 . S
H1143 C1111 0.930 . S
Li1144 N1161 1.990 . S
Li1144 O1204 1.956 . S
Li1144 O1205 1.970 . S
Li1144 O1206 1.961 . S
Li1145 N1169 1.990 . S
Li1145 O1204 1.970 . S
Li1145 O1205 1.956 . S
Li1145 O1207 1.961 . S
Li1146 N1191 1.990 . S
Li1146 O1204 1.961 . S
Li1146 O1206 1.956 . S
Li1146 O1207 1.970 . S
Li1147 N1197 1.990 . S
Li1147 O1205 1.961 . S
Li1147 O1206 1.970 . S
Li1147 O1207 1.956 . S
C1148 C1150 1.348 . S
C1148 C1151 1.356 . S
C1148 O1204 1.325 . S
N1149 C1152 1.314 . S
N1149 C1153 1.279 . S
C1150 C1148 1.348 . S
C1150 C1152 1.353 . S
C1150 H1208 0.929 . S
C1151 C1148 1.356 . S
C1151 C1153 1.358 . S
C1151 H1209 0.930 . S
C1152 N1149 1.314 . S
C1152 C1150 1.353 . S
C1152 H1210 0.930 . S
C1153 N1149 1.279 . S
C1153 C1151 1.358 . S
C1153 H1211 0.930 . S
C1154 C1157 1.348 . S
C1154 C1158 1.356 . S
C1154 O1205 1.325 . S
C1155 N1156 1.279 . S
C1155 C1158 1.358 . S
C1155 H1212 0.930 . S
N1156 C1155 1.279 . S
N1156 C1159 1.314 . S
C1157 C1154 1.348 . S
C1157 C1159 1.353 . S
C1157 H1213 0.929 . S
C1158 C1154 1.356 . S
C1158 C1155 1.358 . S
C1158 H1214 0.930 . S
C1159 N1156 1.314 . S
C1159 C1157 1.353 . S
C1159 H1215 0.930 . S
C1160 N1161 1.314 . S
C1160 C1165 1.353 . S
C1160 H1166 0.930 . S
N1161 Li1144 1.990 . S
N1161 C1160 1.314 . S
N1161 C1163 1.279 . S
C1162 C1163 1.358 . S
C1162 C1164 1.356 . S
C1162 H1216 0.930 . S
C1163 N1161 1.279 . S
C1163 C1162 1.358 . S
C1163 H1167 0.930 . S
C1164 C1162 1.356 . S
C1164 C1165 1.348 . S
C1165 C1160 1.353 . S
C1165 C1164 1.348 . S
C1165 H1217 0.929 . S
H1166 C1160 0.930 . S
H1167 C1163 0.930 . S
C1168 N1169 1.314 . S
C1168 C1170 1.353 . S
C1168 H1174 0.930 . S
N1169 Li1145 1.990 . S
N1169 C1168 1.314 . S
N1169 C1172 1.279 . S
C1170 C1168 1.353 . S
C1170 C1173 1.348 . S
C1170 H1218 0.929 . S
C1171 C1172 1.358 . S
C1171 C1173 1.356 . S
C1171 H1219 0.930 . S
C1172 N1169 1.279 . S
C1172 C1171 1.358 . S
C1172 H1175 0.930 . S
C1173 C1170 1.348 . S
C1173 C1171 1.356 . S
H1174 C1168 0.930 . S
H1175 C1172 0.930 . S
C1176 C1178 1.348 . S
C1176 C1179 1.356 . S
C1176 O1206 1.325 . S
N1177 C1180 1.314 . S
N1177 C1181 1.279 . S
C1178 C1176 1.348 . S
C1178 C1180 1.353 . S
C1178 H1220 0.929 . S
C1179 C1176 1.356 . S
C1179 C1181 1.358 . S
C1179 H1221 0.930 . S
C1180 N1177 1.314 . S
C1180 C1178 1.353 . S
C1180 H1222 0.930 . S
C1181 N1177 1.279 . S
C1181 C1179 1.358 . S
C1181 H1223 0.930 . S
C1182 C1183 1.348 . S
C1182 C1184 1.356 . S
C1182 O1207 1.325 . S
C1183 C1182 1.348 . S
C1183 C1185 1.353 . S
C1183 H1224 0.929 . S
C1184 C1182 1.356 . S
C1184 C1186 1.358 . S
C1184 H1225 0.930 . S
C1185 C1183 1.353 . S
C1185 N1187 1.314 . S
C1185 H1226 0.930 . S
C1186 C1184 1.358 . S
C1186 N1187 1.279 . S
C1186 H1227 0.930 . S
N1187 C1185 1.314 . S
N1187 C1186 1.279 . S
C1188 C1190 1.353 . S
C1188 N1191 1.314 . S
C1188 H1194 0.930 . S
C1189 N1191 1.279 . S
C1189 C1192 1.358 . S
C1189 H1195 0.930 . S
C1190 C1188 1.353 . S
C1190 C1193 1.348 . S
C1190 H1228 0.929 . S
N1191 Li1146 1.990 . S
N1191 C1188 1.314 . S
N1191 C1189 1.279 . S
C1192 C1189 1.358 . S
C1192 C1193 1.356 . S
C1192 H1229 0.930 . S
C1193 C1190 1.348 . S
C1193 C1192 1.356 . S
H1194 C1188 0.930 . S
H1195 C1189 0.930 . S
C1196 N1197 1.314 . S
C1196 C1198 1.353 . S
C1196 H1202 0.930 . S
N1197 Li1147 1.990 . S
N1197 C1196 1.314 . S
N1197 C1200 1.279 . S
C1198 C1196 1.353 . S
C1198 C1201 1.348 . S
C1198 H1230 0.929 . S
C1199 C1200 1.358 . S
C1199 C1201 1.356 . S
C1199 H1231 0.930 . S
C1200 N1197 1.279 . S
C1200 C1199 1.358 . S
C1200 H1203 0.930 . S
C1201 C1198 1.348 . S
C1201 C1199 1.356 . S
H1202 C1196 0.930 . S
H1203 C1200 0.930 . S
O1204 Li1144 1.956 . S
O1204 Li1145 1.970 . S
O1204 Li1146 1.961 . S
O1204 C1148 1.325 . S
O1205 Li1144 1.970 . S
O1205 Li1145 1.956 . S
O1205 Li1147 1.961 . S
O1205 C1154 1.325 . S
O1206 Li1144 1.961 . S
O1206 Li1146 1.956 . S
O1206 Li1147 1.970 . S
O1206 C1176 1.325 . S
O1207 Li1145 1.961 . S
O1207 Li1146 1.970 . S
O1207 Li1147 1.956 . S
O1207 C1182 1.325 . S
H1208 C1150 0.929 . S
H1209 C1151 0.930 . S
H1210 C1152 0.930 . S
H1211 C1153 0.930 . S
H1212 C1155 0.930 . S
H1213 C1157 0.929 . S
H1214 C1158 0.930 . S
H1215 C1159 0.930 . S
H1216 C1162 0.930 . S
H1217 C1165 0.929 . S
H1218 C1170 0.929 . S
H1219 C1171 0.930 . S
H1220 C1178 0.929 . S
H1221 C1179 0.930 . S
H1222 C1180 0.930 . S
H1223 C1181 0.930 . S
H1224 C1183 0.929 . S
H1225 C1184 0.930 . S
H1226 C1185 0.930 . S
H1227 C1186 0.930 . S
H1228 C1190 0.929 . S
H1229 C1192 0.930 . S
H1230 C1198 0.929 . S
H1231 C1199 0.930 . S
Li1232 N1249 1.990 . S
Li1232 O1292 1.956 . S
Li1232 O1293 1.970 . S
Li1232 O1294 1.961 . S
Li1233 N1257 1.990 . S
Li1233 O1292 1.970 . S
Li1233 O1293 1.956 . S
Li1233 O1295 1.961 . S
Li1234 N1279 1.990 . S
Li1234 O1292 1.961 . S
Li1234 O1294 1.956 . S
Li1234 O1295 1.970 . S
Li1235 N1285 1.990 . S
Li1235 O1293 1.961 . S
Li1235 O1294 1.970 . S
Li1235 O1295 1.956 . S
C1236 C1238 1.348 . S
C1236 C1239 1.356 . S
C1236 O1292 1.325 . S
N1237 C1240 1.314 . S
N1237 C1241 1.279 . S
C1238 C1236 1.348 . S
C1238 C1240 1.353 . S
C1238 H1296 0.929 . S
C1239 C1236 1.356 . S
C1239 C1241 1.358 . S
C1239 H1297 0.930 . S
C1240 N1237 1.314 . S
C1240 C1238 1.353 . S
C1240 H1298 0.930 . S
C1241 N1237 1.279 . S
C1241 C1239 1.358 . S
C1241 H1299 0.930 . S
C1242 C1245 1.348 . S
C1242 C1246 1.356 . S
C1242 O1293 1.325 . S
C1243 N1244 1.279 . S
C1243 C1246 1.358 . S
C1243 H1300 0.930 . S
N1244 C1243 1.279 . S
N1244 C1247 1.314 . S
C1245 C1242 1.348 . S
C1245 C1247 1.353 . S
C1245 H1301 0.929 . S
C1246 C1242 1.356 . S
C1246 C1243 1.358 . S
C1246 H1302 0.930 . S
C1247 N1244 1.314 . S
C1247 C1245 1.353 . S
C1247 H1303 0.930 . S
C1248 N1249 1.314 . S
C1248 C1253 1.353 . S
C1248 H1254 0.930 . S
N1249 Li1232 1.990 . S
N1249 C1248 1.314 . S
N1249 C1251 1.279 . S
C1250 C1251 1.358 . S
C1250 C1252 1.356 . S
C1250 H1304 0.930 . S
C1251 N1249 1.279 . S
C1251 C1250 1.358 . S
C1251 H1255 0.930 . S
C1252 C1250 1.356 . S
C1252 C1253 1.348 . S
C1253 C1248 1.353 . S
C1253 C1252 1.348 . S
C1253 H1305 0.929 . S
H1254 C1248 0.930 . S
H1255 C1251 0.930 . S
C1256 N1257 1.314 . S
C1256 C1258 1.353 . S
C1256 H1262 0.930 . S
N1257 Li1233 1.990 . S
N1257 C1256 1.314 . S
N1257 C1260 1.279 . S
C1258 C1256 1.353 . S
C1258 C1261 1.348 . S
C1258 H1306 0.929 . S
C1259 C1260 1.358 . S
C1259 C1261 1.356 . S
C1259 H1307 0.930 . S
C1260 N1257 1.279 . S
C1260 C1259 1.358 . S
C1260 H1263 0.930 . S
C1261 C1258 1.348 . S
C1261 C1259 1.356 . S
H1262 C1256 0.930 . S
H1263 C1260 0.930 . S
C1264 C1266 1.348 . S
C1264 C1267 1.356 . S
C1264 O1294 1.325 . S
N1265 C1268 1.314 . S
N1265 C1269 1.279 . S
C1266 C1264 1.348 . S
C1266 C1268 1.353 . S
C1266 H1308 0.929 . S
C1267 C1264 1.356 . S
C1267 C1269 1.358 . S
C1267 H1309 0.930 . S
C1268 N1265 1.314 . S
C1268 C1266 1.353 . S
C1268 H1310 0.930 . S
C1269 N1265 1.279 . S
C1269 C1267 1.358 . S
C1269 H1311 0.930 . S
C1270 C1271 1.348 . S
C1270 C1272 1.356 . S
C1270 O1295 1.325 . S
C1271 C1270 1.348 . S
C1271 C1273 1.353 . S
C1271 H1312 0.929 . S
C1272 C1270 1.356 . S
C1272 C1274 1.358 . S
C1272 H1313 0.930 . S
C1273 C1271 1.353 . S
C1273 N1275 1.314 . S
C1273 H1314 0.930 . S
C1274 C1272 1.358 . S
C1274 N1275 1.279 . S
C1274 H1315 0.930 . S
N1275 C1273 1.314 . S
N1275 C1274 1.279 . S
C1276 C1278 1.353 . S
C1276 N1279 1.314 . S
C1276 H1282 0.930 . S
C1277 N1279 1.279 . S
C1277 C1280 1.358 . S
C1277 H1283 0.930 . S
C1278 C1276 1.353 . S
C1278 C1281 1.348 . S
C1278 H1316 0.929 . S
N1279 Li1234 1.990 . S
N1279 C1276 1.314 . S
N1279 C1277 1.279 . S
C1280 C1277 1.358 . S
C1280 C1281 1.356 . S
C1280 H1317 0.930 . S
C1281 C1278 1.348 . S
C1281 C1280 1.356 . S
H1282 C1276 0.930 . S
H1283 C1277 0.930 . S
C1284 N1285 1.314 . S
C1284 C1286 1.353 . S
C1284 H1290 0.930 . S
N1285 Li1235 1.990 . S
N1285 C1284 1.314 . S
N1285 C1288 1.279 . S
C1286 C1284 1.353 . S
C1286 C1289 1.348 . S
C1286 H1318 0.929 . S
C1287 C1288 1.358 . S
C1287 C1289 1.356 . S
C1287 H1319 0.930 . S
C1288 N1285 1.279 . S
C1288 C1287 1.358 . S
C1288 H1291 0.930 . S
C1289 C1286 1.348 . S
C1289 C1287 1.356 . S
H1290 C1284 0.930 . S
H1291 C1288 0.930 . S
O1292 Li1232 1.956 . S
O1292 Li1233 1.970 . S
O1292 Li1234 1.961 . S
O1292 C1236 1.325 . S
O1293 Li1232 1.970 . S
O1293 Li1233 1.956 . S
O1293 Li1235 1.961 . S
O1293 C1242 1.325 . S
O1294 Li1232 1.961 . S
O1294 Li1234 1.956 . S
O1294 Li1235 1.970 . S
O1294 C1264 1.325 . S
O1295 Li1233 1.961 . S
O1295 Li1234 1.970 . S
O1295 Li1235 1.956 . S
O1295 C1270 1.325 . S
H1296 C1238 0.929 . S
H1297 C1239 0.930 . S
H1298 C1240 0.930 . S
H1299 C1241 0.930 . S
H1300 C1243 0.930 . S
H1301 C1245 0.929 . S
H1302 C1246 0.930 . S
H1303 C1247 0.930 . S
H1304 C1250 0.930 . S
H1305 C1253 0.929 . S
H1306 C1258 0.929 . S
H1307 C1259 0.930 . S
H1308 C1266 0.929 . S
H1309 C1267 0.930 . S
H1310 C1268 0.930 . S
H1311 C1269 0.930 . S
H1312 C1271 0.929 . S
H1313 C1272 0.930 . S
H1314 C1273 0.930 . S
H1315 C1274 0.930 . S
H1316 C1278 0.929 . S
H1317 C1280 0.930 . S
H1318 C1286 0.929 . S
H1319 C1287 0.930 . S
Li1320 N1337 1.990 . S
Li1320 O1380 1.956 . S
Li1320 O1381 1.970 . S
Li1320 O1382 1.961 . S
Li1321 N1345 1.990 . S
Li1321 O1380 1.970 . S
Li1321 O1381 1.956 . S
Li1321 O1383 1.961 . S
Li1322 N1367 1.990 . S
Li1322 O1380 1.961 . S
Li1322 O1382 1.956 . S
Li1322 O1383 1.970 . S
Li1323 N1373 1.990 . S
Li1323 O1381 1.961 . S
Li1323 O1382 1.970 . S
Li1323 O1383 1.956 . S
C1324 C1326 1.348 . S
C1324 C1327 1.356 . S
C1324 O1380 1.325 . S
N1325 C1328 1.314 . S
N1325 C1329 1.279 . S
C1326 C1324 1.348 . S
C1326 C1328 1.353 . S
C1326 H1384 0.929 . S
C1327 C1324 1.356 . S
C1327 C1329 1.358 . S
C1327 H1385 0.930 . S
C1328 N1325 1.314 . S
C1328 C1326 1.353 . S
C1328 H1386 0.930 . S
C1329 N1325 1.279 . S
C1329 C1327 1.358 . S
C1329 H1387 0.930 . S
C1330 C1333 1.348 . S
C1330 C1334 1.356 . S
C1330 O1381 1.325 . S
C1331 N1332 1.279 . S
C1331 C1334 1.358 . S
C1331 H1388 0.930 . S
N1332 C1331 1.279 . S
N1332 C1335 1.314 . S
C1333 C1330 1.348 . S
C1333 C1335 1.353 . S
C1333 H1389 0.929 . S
C1334 C1330 1.356 . S
C1334 C1331 1.358 . S
C1334 H1390 0.930 . S
C1335 N1332 1.314 . S
C1335 C1333 1.353 . S
C1335 H1391 0.930 . S
C1336 N1337 1.314 . S
C1336 C1341 1.353 . S
C1336 H1342 0.930 . S
N1337 Li1320 1.990 . S
N1337 C1336 1.314 . S
N1337 C1339 1.279 . S
C1338 C1339 1.358 . S
C1338 C1340 1.356 . S
C1338 H1392 0.930 . S
C1339 N1337 1.279 . S
C1339 C1338 1.358 . S
C1339 H1343 0.930 . S
C1340 C1338 1.356 . S
C1340 C1341 1.348 . S
C1341 C1336 1.353 . S
C1341 C1340 1.348 . S
C1341 H1393 0.929 . S
H1342 C1336 0.930 . S
H1343 C1339 0.930 . S
C1344 N1345 1.314 . S
C1344 C1346 1.353 . S
C1344 H1350 0.930 . S
N1345 Li1321 1.990 . S
N1345 C1344 1.314 . S
N1345 C1348 1.279 . S
C1346 C1344 1.353 . S
C1346 C1349 1.348 . S
C1346 H1394 0.929 . S
C1347 C1348 1.358 . S
C1347 C1349 1.356 . S
C1347 H1395 0.930 . S
C1348 N1345 1.279 . S
C1348 C1347 1.358 . S
C1348 H1351 0.930 . S
C1349 C1346 1.348 . S
C1349 C1347 1.356 . S
H1350 C1344 0.930 . S
H1351 C1348 0.930 . S
C1352 C1354 1.348 . S
C1352 C1355 1.356 . S
C1352 O1382 1.325 . S
N1353 C1356 1.314 . S
N1353 C1357 1.279 . S
C1354 C1352 1.348 . S
C1354 C1356 1.353 . S
C1354 H1396 0.929 . S
C1355 C1352 1.356 . S
C1355 C1357 1.358 . S
C1355 H1397 0.930 . S
C1356 N1353 1.314 . S
C1356 C1354 1.353 . S
C1356 H1398 0.930 . S
C1357 N1353 1.279 . S
C1357 C1355 1.358 . S
C1357 H1399 0.930 . S
C1358 C1359 1.348 . S
C1358 C1360 1.356 . S
C1358 O1383 1.325 . S
C1359 C1358 1.348 . S
C1359 C1361 1.353 . S
C1359 H1400 0.929 . S
C1360 C1358 1.356 . S
C1360 C1362 1.358 . S
C1360 H1401 0.930 . S
C1361 C1359 1.353 . S
C1361 N1363 1.314 . S
C1361 H1402 0.930 . S
C1362 C1360 1.358 . S
C1362 N1363 1.279 . S
C1362 H1403 0.930 . S
N1363 C1361 1.314 . S
N1363 C1362 1.279 . S
C1364 C1366 1.353 . S
C1364 N1367 1.314 . S
C1364 H1370 0.930 . S
C1365 N1367 1.279 . S
C1365 C1368 1.358 . S
C1365 H1371 0.930 . S
C1366 C1364 1.353 . S
C1366 C1369 1.348 . S
C1366 H1404 0.929 . S
N1367 Li1322 1.990 . S
N1367 C1364 1.314 . S
N1367 C1365 1.279 . S
C1368 C1365 1.358 . S
C1368 C1369 1.356 . S
C1368 H1405 0.930 . S
C1369 C1366 1.348 . S
C1369 C1368 1.356 . S
H1370 C1364 0.930 . S
H1371 C1365 0.930 . S
C1372 N1373 1.314 . S
C1372 C1374 1.353 . S
C1372 H1378 0.930 . S
N1373 Li1323 1.990 . S
N1373 C1372 1.314 . S
N1373 C1376 1.279 . S
C1374 C1372 1.353 . S
C1374 C1377 1.348 . S
C1374 H1406 0.929 . S
C1375 C1376 1.358 . S
C1375 C1377 1.356 . S
C1375 H1407 0.930 . S
C1376 N1373 1.279 . S
C1376 C1375 1.358 . S
C1376 H1379 0.930 . S
C1377 C1374 1.348 . S
C1377 C1375 1.356 . S
H1378 C1372 0.930 . S
H1379 C1376 0.930 . S
O1380 Li1320 1.956 . S
O1380 Li1321 1.970 . S
O1380 Li1322 1.961 . S
O1380 C1324 1.325 . S
O1381 Li1320 1.970 . S
O1381 Li1321 1.956 . S
O1381 Li1323 1.961 . S
O1381 C1330 1.325 . S
O1382 Li1320 1.961 . S
O1382 Li1322 1.956 . S
O1382 Li1323 1.970 . S
O1382 C1352 1.325 . S
O1383 Li1321 1.961 . S
O1383 Li1322 1.970 . S
O1383 Li1323 1.956 . S
O1383 C1358 1.325 . S
H1384 C1326 0.929 . S
H1385 C1327 0.930 . S
H1386 C1328 0.930 . S
H1387 C1329 0.930 . S
H1388 C1331 0.930 . S
H1389 C1333 0.929 . S
H1390 C1334 0.930 . S
H1391 C1335 0.930 . S
H1392 C1338 0.930 . S
H1393 C1341 0.929 . S
H1394 C1346 0.929 . S
H1395 C1347 0.930 . S
H1396 C1354 0.929 . S
H1397 C1355 0.930 . S
H1398 C1356 0.930 . S
H1399 C1357 0.930 . S
H1400 C1359 0.929 . S
H1401 C1360 0.930 . S
H1402 C1361 0.930 . S
H1403 C1362 0.930 . S
H1404 C1366 0.929 . S
H1405 C1368 0.930 . S
H1406 C1374 0.929 . S
H1407 C1375 0.930 . S
H1408 C1416 0.950 . S
H1409 C1421 0.950 . S
H1410 C1418 0.950 . S
H1411 C1420 0.950 . S
H1412 C1422 0.950 . S
H1413 C1424 0.950 . S
H1414 C1426 0.950 . S
H1415 C1427 0.950 . S
C1416 H1408 0.950 . S
C1416 C1417 1.386 . S
C1416 C1418 1.391 . S
C1417 C1416 1.386 . S
C1417 C1421 1.393 . S
C1418 H1410 0.950 . S
C1418 C1416 1.391 . S
C1418 C1419 1.400 . S
C1419 C1418 1.400 . S
C1419 C1420 1.398 . S
C1419 C1425 1.491 . S
C1420 H1411 0.950 . S
C1420 C1419 1.398 . S
C1420 C1421 1.391 . S
C1421 H1409 0.950 . S
C1421 C1417 1.393 . S
C1421 C1420 1.391 . S
C1422 H1412 0.950 . S
C1422 C1423 1.386 . S
C1422 C1424 1.391 . S
C1423 C1422 1.386 . S
C1423 C1427 1.393 . S
C1424 H1413 0.950 . S
C1424 C1422 1.391 . S
C1424 C1425 1.400 . S
C1425 C1419 1.491 . S
C1425 C1424 1.400 . S
C1425 C1426 1.398 . S
C1426 H1414 0.950 . S
C1426 C1425 1.398 . S
C1426 C1427 1.391 . S
C1427 H1415 0.950 . S
C1427 C1423 1.393 . S
C1427 C1426 1.391 . S
H1428 C1436 0.950 . S
H1429 C1441 0.950 . S
H1430 C1438 0.950 . S
H1431 C1440 0.950 . S
H1432 C1442 0.950 . S
H1433 C1444 0.950 . S
H1434 C1446 0.950 . S
H1435 C1447 0.950 . S
C1436 H1428 0.950 . S
C1436 C1437 1.386 . S
C1436 C1438 1.391 . S
C1437 C1436 1.386 . S
C1437 C1441 1.393 . S
C1438 H1430 0.950 . S
C1438 C1436 1.391 . S
C1438 C1439 1.400 . S
C1439 C1438 1.400 . S
C1439 C1440 1.398 . S
C1439 C1445 1.491 . S
C1440 H1431 0.950 . S
C1440 C1439 1.398 . S
C1440 C1441 1.391 . S
C1441 H1429 0.950 . S
C1441 C1437 1.393 . S
C1441 C1440 1.391 . S
C1442 H1432 0.950 . S
C1442 C1443 1.386 . S
C1442 C1444 1.391 . S
C1443 C1442 1.386 . S
C1443 C1447 1.393 . S
C1444 H1433 0.950 . S
C1444 C1442 1.391 . S
C1444 C1445 1.400 . S
C1445 C1439 1.491 . S
C1445 C1444 1.400 . S
C1445 C1446 1.398 . S
C1446 H1434 0.950 . S
C1446 C1445 1.398 . S
C1446 C1447 1.391 . S
C1447 H1435 0.950 . S
C1447 C1443 1.393 . S
C1447 C1446 1.391 . S
H1448 C1456 0.950 . S
H1449 C1461 0.950 . S
H1450 C1458 0.950 . S
H1451 C1460 0.950 . S
H1452 C1462 0.950 . S
H1453 C1464 0.950 . S
H1454 C1466 0.950 . S
H1455 C1467 0.950 . S
C1456 H1448 0.950 . S
C1456 C1457 1.386 . S
C1456 C1458 1.391 . S
C1457 C1456 1.386 . S
C1457 C1461 1.393 . S
C1458 H1450 0.950 . S
C1458 C1456 1.391 . S
C1458 C1459 1.400 . S
C1459 C1458 1.400 . S
C1459 C1460 1.398 . S
C1459 C1465 1.491 . S
C1460 H1451 0.950 . S
C1460 C1459 1.398 . S
C1460 C1461 1.391 . S
C1461 H1449 0.950 . S
C1461 C1457 1.393 . S
C1461 C1460 1.391 . S
C1462 H1452 0.950 . S
C1462 C1463 1.386 . S
C1462 C1464 1.391 . S
C1463 C1462 1.386 . S
C1463 C1467 1.393 . S
C1464 H1453 0.950 . S
C1464 C1462 1.391 . S
C1464 C1465 1.400 . S
C1465 C1459 1.491 . S
C1465 C1464 1.400 . S
C1465 C1466 1.398 . S
C1466 H1454 0.950 . S
C1466 C1465 1.398 . S
C1466 C1467 1.391 . S
C1467 H1455 0.950 . S
C1467 C1463 1.393 . S
C1467 C1466 1.391 . S
H1468 C1476 0.950 . S
H1469 C1481 0.950 . S
H1470 C1478 0.950 . S
H1471 C1480 0.950 . S
H1472 C1482 0.950 . S
H1473 C1484 0.950 . S
H1474 C1486 0.950 . S
H1475 C1487 0.950 . S
C1476 H1468 0.950 . S
C1476 C1477 1.386 . S
C1476 C1478 1.391 . S
C1477 C1476 1.386 . S
C1477 C1481 1.393 . S
C1478 H1470 0.950 . S
C1478 C1476 1.391 . S
C1478 C1479 1.400 . S
C1479 C1478 1.400 . S
C1479 C1480 1.398 . S
C1479 C1485 1.491 . S
C1480 H1471 0.950 . S
C1480 C1479 1.398 . S
C1480 C1481 1.391 . S
C1481 H1469 0.950 . S
C1481 C1477 1.393 . S
C1481 C1480 1.391 . S
C1482 H1472 0.950 . S
C1482 C1483 1.386 . S
C1482 C1484 1.391 . S
C1483 C1482 1.386 . S
C1483 C1487 1.393 . S
C1484 H1473 0.950 . S
C1484 C1482 1.391 . S
C1484 C1485 1.400 . S
C1485 C1479 1.491 . S
C1485 C1484 1.400 . S
C1485 C1486 1.398 . S
C1486 H1474 0.950 . S
C1486 C1485 1.398 . S
C1486 C1487 1.391 . S
C1487 H1475 0.950 . S
C1487 C1483 1.393 . S
C1487 C1486 1.391 . S
H1488 C1496 0.950 . S
H1489 C1501 0.950 . S
H1490 C1498 0.950 . S
H1491 C1500 0.950 . S
H1492 C1502 0.950 . S
H1493 C1504 0.950 . S
H1494 C1506 0.950 . S
H1495 C1507 0.950 . S
C1496 H1488 0.950 . S
C1496 C1497 1.386 . S
C1496 C1498 1.391 . S
C1497 C1496 1.386 . S
C1497 C1501 1.393 . S
C1498 H1490 0.950 . S
C1498 C1496 1.391 . S
C1498 C1499 1.400 . S
C1499 C1498 1.400 . S
C1499 C1500 1.398 . S
C1499 C1505 1.491 . S
C1500 H1491 0.950 . S
C1500 C1499 1.398 . S
C1500 C1501 1.391 . S
C1501 H1489 0.950 . S
C1501 C1497 1.393 . S
C1501 C1500 1.391 . S
C1502 H1492 0.950 . S
C1502 C1503 1.386 . S
C1502 C1504 1.391 . S
C1503 C1502 1.386 . S
C1503 C1507 1.393 . S
C1504 H1493 0.950 . S
C1504 C1502 1.391 . S
C1504 C1505 1.400 . S
C1505 C1499 1.491 . S
C1505 C1504 1.400 . S
C1505 C1506 1.398 . S
C1506 H1494 0.950 . S
C1506 C1505 1.398 . S
C1506 C1507 1.391 . S
C1507 H1495 0.950 . S
C1507 C1503 1.393 . S
C1507 C1506 1.391 . S
H1508 C1516 0.950 . S
H1509 C1521 0.950 . S
H1510 C1518 0.950 . S
H1511 C1520 0.950 . S
H1512 C1522 0.950 . S
H1513 C1524 0.950 . S
H1514 C1526 0.950 . S
H1515 C1527 0.950 . S
C1516 H1508 0.950 . S
C1516 C1517 1.386 . S
C1516 C1518 1.391 . S
C1517 C1516 1.386 . S
C1517 C1521 1.393 . S
C1518 H1510 0.950 . S
C1518 C1516 1.391 . S
C1518 C1519 1.400 . S
C1519 C1518 1.400 . S
C1519 C1520 1.398 . S
C1519 C1525 1.491 . S
C1520 H1511 0.950 . S
C1520 C1519 1.398 . S
C1520 C1521 1.391 . S
C1521 H1509 0.950 . S
C1521 C1517 1.393 . S
C1521 C1520 1.391 . S
C1522 H1512 0.950 . S
C1522 C1523 1.386 . S
C1522 C1524 1.391 . S
C1523 C1522 1.386 . S
C1523 C1527 1.393 . S
C1524 H1513 0.950 . S
C1524 C1522 1.391 . S
C1524 C1525 1.400 . S
C1525 C1519 1.491 . S
C1525 C1524 1.400 . S
C1525 C1526 1.398 . S
C1526 H1514 0.950 . S
C1526 C1525 1.398 . S
C1526 C1527 1.391 . S
C1527 H1515 0.950 . S
C1527 C1523 1.393 . S
C1527 C1526 1.391 . S
H1528 C1536 0.950 . S
H1529 C1541 0.950 . S
H1530 C1538 0.950 . S
H1531 C1540 0.950 . S
H1532 C1542 0.950 . S
H1533 C1544 0.950 . S
H1534 C1546 0.950 . S
H1535 C1547 0.950 . S
C1536 H1528 0.950 . S
C1536 C1537 1.386 . S
C1536 C1538 1.391 . S
C1537 C1536 1.386 . S
C1537 C1541 1.393 . S
C1538 H1530 0.950 . S
C1538 C1536 1.391 . S
C1538 C1539 1.400 . S
C1539 C1538 1.400 . S
C1539 C1540 1.398 . S
C1539 C1545 1.491 . S
C1540 H1531 0.950 . S
C1540 C1539 1.398 . S
C1540 C1541 1.391 . S
C1541 H1529 0.950 . S
C1541 C1537 1.393 . S
C1541 C1540 1.391 . S
C1542 H1532 0.950 . S
C1542 C1543 1.386 . S
C1542 C1544 1.391 . S
C1543 C1542 1.386 . S
C1543 C1547 1.393 . S
C1544 H1533 0.950 . S
C1544 C1542 1.391 . S
C1544 C1545 1.400 . S
C1545 C1539 1.491 . S
C1545 C1544 1.400 . S
C1545 C1546 1.398 . S
C1546 H1534 0.950 . S
C1546 C1545 1.398 . S
C1546 C1547 1.391 . S
C1547 H1535 0.950 . S
C1547 C1543 1.393 . S
C1547 C1546 1.391 . S
H1548 C1556 0.950 . S
H1549 C1561 0.950 . S
H1550 C1558 0.950 . S
H1551 C1560 0.950 . S
H1552 C1562 0.950 . S
H1553 C1564 0.950 . S
H1554 C1566 0.950 . S
H1555 C1567 0.950 . S
C1556 H1548 0.950 . S
C1556 C1557 1.386 . S
C1556 C1558 1.391 . S
C1557 C1556 1.386 . S
C1557 C1561 1.393 . S
C1558 H1550 0.950 . S
C1558 C1556 1.391 . S
C1558 C1559 1.400 . S
C1559 C1558 1.400 . S
C1559 C1560 1.398 . S
C1559 C1565 1.491 . S
C1560 H1551 0.950 . S
C1560 C1559 1.398 . S
C1560 C1561 1.391 . S
C1561 H1549 0.950 . S
C1561 C1557 1.393 . S
C1561 C1560 1.391 . S
C1562 H1552 0.950 . S
C1562 C1563 1.386 . S
C1562 C1564 1.391 . S
C1563 C1562 1.386 . S
C1563 C1567 1.393 . S
C1564 H1553 0.950 . S
C1564 C1562 1.391 . S
C1564 C1565 1.400 . S
C1565 C1559 1.491 . S
C1565 C1564 1.400 . S
C1565 C1566 1.398 . S
C1566 H1554 0.950 . S
C1566 C1565 1.398 . S
C1566 C1567 1.391 . S
C1567 H1555 0.950 . S
C1567 C1563 1.393 . S
C1567 C1566 1.391 . S
H1568 C1576 0.950 . S
H1569 C1581 0.950 . S
H1570 C1578 0.950 . S
H1571 C1580 0.950 . S
H1572 C1582 0.950 . S
H1573 C1584 0.950 . S
H1574 C1586 0.950 . S
H1575 C1587 0.950 . S
C1576 H1568 0.950 . S
C1576 C1577 1.386 . S
C1576 C1578 1.391 . S
C1577 C1576 1.386 . S
C1577 C1581 1.393 . S
C1578 H1570 0.950 . S
C1578 C1576 1.391 . S
C1578 C1579 1.400 . S
C1579 C1578 1.400 . S
C1579 C1580 1.398 . S
C1579 C1585 1.491 . S
C1580 H1571 0.950 . S
C1580 C1579 1.398 . S
C1580 C1581 1.391 . S
C1581 H1569 0.950 . S
C1581 C1577 1.393 . S
C1581 C1580 1.391 . S
C1582 H1572 0.950 . S
C1582 C1583 1.386 . S
C1582 C1584 1.391 . S
C1583 C1582 1.386 . S
C1583 C1587 1.393 . S
C1584 H1573 0.950 . S
C1584 C1582 1.391 . S
C1584 C1585 1.400 . S
C1585 C1579 1.491 . S
C1585 C1584 1.400 . S
C1585 C1586 1.398 . S
C1586 H1574 0.950 . S
C1586 C1585 1.398 . S
C1586 C1587 1.391 . S
C1587 H1575 0.950 . S
C1587 C1583 1.393 . S
C1587 C1586 1.391 . S
H1588 C1596 0.950 . S
H1589 C1601 0.950 . S
H1590 C1598 0.950 . S
H1591 C1600 0.950 . S
H1592 C1602 0.950 . S
H1593 C1604 0.950 . S
H1594 C1606 0.950 . S
H1595 C1607 0.950 . S
C1596 H1588 0.950 . S
C1596 C1597 1.386 . S
C1596 C1598 1.391 . S
C1597 C1596 1.386 . S
C1597 C1601 1.393 . S
C1598 H1590 0.950 . S
C1598 C1596 1.391 . S
C1598 C1599 1.400 . S
C1599 C1598 1.400 . S
C1599 C1600 1.398 . S
C1599 C1605 1.491 . S
C1600 H1591 0.950 . S
C1600 C1599 1.398 . S
C1600 C1601 1.391 . S
C1601 H1589 0.950 . S
C1601 C1597 1.393 . S
C1601 C1600 1.391 . S
C1602 H1592 0.950 . S
C1602 C1603 1.386 . S
C1602 C1604 1.391 . S
C1603 C1602 1.386 . S
C1603 C1607 1.393 . S
C1604 H1593 0.950 . S
C1604 C1602 1.391 . S
C1604 C1605 1.400 . S
C1605 C1599 1.491 . S
C1605 C1604 1.400 . S
C1605 C1606 1.398 . S
C1606 H1594 0.950 . S
C1606 C1605 1.398 . S
C1606 C1607 1.391 . S
C1607 H1595 0.950 . S
C1607 C1603 1.393 . S
C1607 C1606 1.391 . S
H1608 C1616 0.950 . S
H1609 C1621 0.950 . S
H1610 C1618 0.950 . S
H1611 C1620 0.950 . S
H1612 C1622 0.950 . S
H1613 C1624 0.950 . S
H1614 C1626 0.950 . S
H1615 C1627 0.950 . S
C1616 H1608 0.950 . S
C1616 C1617 1.386 . S
C1616 C1618 1.391 . S
C1617 C1616 1.386 . S
C1617 C1621 1.393 . S
C1618 H1610 0.950 . S
C1618 C1616 1.391 . S
C1618 C1619 1.400 . S
C1619 C1618 1.400 . S
C1619 C1620 1.398 . S
C1619 C1625 1.491 . S
C1620 H1611 0.950 . S
C1620 C1619 1.398 . S
C1620 C1621 1.391 . S
C1621 H1609 0.950 . S
C1621 C1617 1.393 . S
C1621 C1620 1.391 . S
C1622 H1612 0.950 . S
C1622 C1623 1.386 . S
C1622 C1624 1.391 . S
C1623 C1622 1.386 . S
C1623 C1627 1.393 . S
C1624 H1613 0.950 . S
C1624 C1622 1.391 . S
C1624 C1625 1.400 . S
C1625 C1619 1.491 . S
C1625 C1624 1.400 . S
C1625 C1626 1.398 . S
C1626 H1614 0.950 . S
C1626 C1625 1.398 . S
C1626 C1627 1.391 . S
C1627 H1615 0.950 . S
C1627 C1623 1.393 . S
C1627 C1626 1.391 . S
H1628 C1636 0.950 . S
H1629 C1641 0.950 . S
H1630 C1638 0.950 . S
H1631 C1640 0.950 . S
H1632 C1642 0.950 . S
H1633 C1644 0.950 . S
H1634 C1646 0.950 . S
H1635 C1647 0.950 . S
C1636 H1628 0.950 . S
C1636 C1637 1.386 . S
C1636 C1638 1.391 . S
C1637 C1636 1.386 . S
C1637 C1641 1.393 . S
C1638 H1630 0.950 . S
C1638 C1636 1.391 . S
C1638 C1639 1.400 . S
C1639 C1638 1.400 . S
C1639 C1640 1.398 . S
C1639 C1645 1.491 1_554 S
C1640 H1631 0.950 . S
C1640 C1639 1.398 . S
C1640 C1641 1.391 . S
C1641 H1629 0.950 . S
C1641 C1637 1.393 . S
C1641 C1640 1.391 . S
C1642 H1632 0.950 . S
C1642 C1643 1.386 . S
C1642 C1644 1.391 . S
C1643 C1642 1.386 . S
C1643 C1647 1.393 . S
C1644 H1633 0.950 . S
C1644 C1642 1.391 . S
C1644 C1645 1.400 . S
C1645 C1639 1.491 1_556 S
C1645 C1644 1.400 . S
C1645 C1646 1.398 . S
C1646 H1634 0.950 . S
C1646 C1645 1.398 . S
C1646 C1647 1.391 . S
C1647 H1635 0.950 . S
C1647 C1643 1.393 . S
C1647 C1646 1.391 . S
H1648 C1656 0.950 . S
H1649 C1661 0.950 . S
H1650 C1658 0.950 . S
H1651 C1660 0.950 . S
H1652 C1662 0.950 . S
H1653 C1664 0.950 . S
H1654 C1666 0.950 . S
H1655 C1667 0.950 . S
C1656 H1648 0.950 . S
C1656 C1657 1.386 . S
C1656 C1658 1.391 . S
C1657 C1656 1.386 . S
C1657 C1661 1.393 . S
C1658 H1650 0.950 . S
C1658 C1656 1.391 . S
C1658 C1659 1.400 . S
C1659 C1658 1.400 . S
C1659 C1660 1.398 . S
C1659 C1665 1.491 1_554 S
C1660 H1651 0.950 . S
C1660 C1659 1.398 . S
C1660 C1661 1.391 . S
C1661 H1649 0.950 . S
C1661 C1657 1.393 . S
C1661 C1660 1.391 . S
C1662 H1652 0.950 . S
C1662 C1663 1.386 . S
C1662 C1664 1.391 . S
C1663 C1662 1.386 . S
C1663 C1667 1.393 . S
C1664 H1653 0.950 . S
C1664 C1662 1.391 . S
C1664 C1665 1.400 . S
C1665 C1659 1.491 1_556 S
C1665 C1664 1.400 . S
C1665 C1666 1.398 . S
C1666 H1654 0.950 . S
C1666 C1665 1.398 . S
C1666 C1667 1.391 . S
C1667 H1655 0.950 . S
C1667 C1663 1.393 . S
C1667 C1666 1.391 . S
H1668 C1676 0.950 . S
H1669 C1681 0.950 . S
H1670 C1678 0.950 . S
H1671 C1680 0.950 . S
H1672 C1682 0.950 . S
H1673 C1684 0.950 . S
H1674 C1686 0.950 . S
H1675 C1687 0.950 . S
C1676 H1668 0.950 . S
C1676 C1677 1.386 . S
C1676 C1678 1.391 . S
C1677 C1676 1.386 . S
C1677 C1681 1.393 . S
C1678 H1670 0.950 . S
C1678 C1676 1.391 . S
C1678 C1679 1.400 . S
C1679 C1678 1.400 . S
C1679 C1680 1.398 . S
C1679 C1685 1.491 . S
C1680 H1671 0.950 . S
C1680 C1679 1.398 . S
C1680 C1681 1.391 . S
C1681 H1669 0.950 . S
C1681 C1677 1.393 . S
C1681 C1680 1.391 . S
C1682 H1672 0.950 . S
C1682 C1683 1.386 . S
C1682 C1684 1.391 . S
C1683 C1682 1.386 . S
C1683 C1687 1.393 . S
C1684 H1673 0.950 . S
C1684 C1682 1.391 . S
C1684 C1685 1.400 . S
C1685 C1679 1.491 . S
C1685 C1684 1.400 . S
C1685 C1686 1.398 . S
C1686 H1674 0.950 . S
C1686 C1685 1.398 . S
C1686 C1687 1.391 . S
C1687 H1675 0.950 . S
C1687 C1683 1.393 . S
C1687 C1686 1.391 . S
H1688 C1696 0.950 . S
H1689 C1701 0.950 . S
H1690 C1698 0.950 . S
H1691 C1700 0.950 . S
H1692 C1702 0.950 . S
H1693 C1704 0.950 . S
H1694 C1706 0.950 . S
H1695 C1707 0.950 . S
C1696 H1688 0.950 . S
C1696 C1697 1.386 . S
C1696 C1698 1.391 . S
C1697 C1696 1.386 . S
C1697 C1701 1.393 . S
C1698 H1690 0.950 . S
C1698 C1696 1.391 . S
C1698 C1699 1.400 . S
C1699 C1698 1.400 . S
C1699 C1700 1.398 . S
C1699 C1705 1.491 . S
C1700 H1691 0.950 . S
C1700 C1699 1.398 . S
C1700 C1701 1.391 . S
C1701 H1689 0.950 . S
C1701 C1697 1.393 . S
C1701 C1700 1.391 . S
C1702 H1692 0.950 . S
C1702 C1703 1.386 . S
C1702 C1704 1.391 . S
C1703 C1702 1.386 . S
C1703 C1707 1.393 . S
C1704 H1693 0.950 . S
C1704 C1702 1.391 . S
C1704 C1705 1.400 . S
C1705 C1699 1.491 . S
C1705 C1704 1.400 . S
C1705 C1706 1.398 . S
C1706 H1694 0.950 . S
C1706 C1705 1.398 . S
C1706 C1707 1.391 . S
C1707 H1695 0.950 . S
C1707 C1703 1.393 . S
C1707 C1706 1.391 . S
H1708 C1716 0.950 . S
H1709 C1721 0.950 . S
H1710 C1718 0.950 . S
H1711 C1720 0.950 . S
H1712 C1722 0.950 . S
H1713 C1724 0.950 . S
H1714 C1726 0.950 . S
H1715 C1727 0.950 . S
C1716 H1708 0.950 . S
C1716 C1717 1.386 . S
C1716 C1718 1.391 . S
C1717 C1716 1.386 . S
C1717 C1721 1.393 . S
C1718 H1710 0.950 . S
C1718 C1716 1.391 . S
C1718 C1719 1.400 . S
C1719 C1718 1.400 . S
C1719 C1720 1.398 . S
C1719 C1725 1.491 . S
C1720 H1711 0.950 . S
C1720 C1719 1.398 . S
C1720 C1721 1.391 . S
C1721 H1709 0.950 . S
C1721 C1717 1.393 . S
C1721 C1720 1.391 . S
C1722 H1712 0.950 . S
C1722 C1723 1.386 . S
C1722 C1724 1.391 . S
C1723 C1722 1.386 . S
C1723 C1727 1.393 . S
C1724 H1713 0.950 . S
C1724 C1722 1.391 . S
C1724 C1725 1.400 . S
C1725 C1719 1.491 . S
C1725 C1724 1.400 . S
C1725 C1726 1.398 . S
C1726 H1714 0.950 . S
C1726 C1725 1.398 . S
C1726 C1727 1.391 . S
C1727 H1715 0.950 . S
C1727 C1723 1.393 . S
C1727 C1726 1.391 . S
H1728 C1736 0.950 . S
H1729 C1741 0.950 . S
H1730 C1738 0.950 . S
H1731 C1740 0.950 . S
H1732 C1742 0.950 . S
H1733 C1744 0.950 . S
H1734 C1746 0.950 . S
H1735 C1747 0.950 . S
C1736 H1728 0.950 . S
C1736 C1737 1.386 . S
C1736 C1738 1.391 1_545 S
C1737 C1736 1.386 . S
C1737 C1741 1.393 . S
C1738 H1730 0.950 . S
C1738 C1736 1.391 1_565 S
C1738 C1739 1.400 1_565 S
C1739 C1738 1.400 1_545 S
C1739 C1740 1.398 . S
C1739 C1745 1.491 1_445 S
C1740 H1731 0.950 . S
C1740 C1739 1.398 . S
C1740 C1741 1.391 . S
C1741 H1729 0.950 . S
C1741 C1737 1.393 . S
C1741 C1740 1.391 . S
C1742 H1732 0.950 . S
C1742 C1743 1.386 . S
C1742 C1744 1.391 1_565 S
C1743 C1742 1.386 . S
C1743 C1747 1.393 . S
C1744 H1733 0.950 . S
C1744 C1742 1.391 1_545 S
C1744 C1745 1.400 1_545 S
C1745 C1739 1.491 1_665 S
C1745 C1744 1.400 1_565 S
C1745 C1746 1.398 . S
C1746 H1734 0.950 . S
C1746 C1745 1.398 . S
C1746 C1747 1.391 . S
C1747 H1735 0.950 . S
C1747 C1743 1.393 . S
C1747 C1746 1.391 . S
H1748 C1756 0.950 . S
H1749 C1761 0.950 . S
H1750 C1758 0.950 . S
H1751 C1760 0.950 . S
H1752 C1762 0.950 . S
H1753 C1764 0.950 . S
H1754 C1766 0.950 . S
H1755 C1767 0.950 . S
C1756 H1748 0.950 . S
C1756 C1757 1.386 . S
C1756 C1758 1.391 . S
C1757 C1756 1.386 . S
C1757 C1761 1.393 1_455 S
C1758 H1750 0.950 . S
C1758 C1756 1.391 . S
C1758 C1759 1.400 . S
C1759 C1758 1.400 . S
C1759 C1760 1.398 1_455 S
C1759 C1765 1.491 1_455 S
C1760 H1751 0.950 . S
C1760 C1759 1.398 1_655 S
C1760 C1761 1.391 . S
C1761 H1749 0.950 . S
C1761 C1757 1.393 1_655 S
C1761 C1760 1.391 . S
C1762 H1752 0.950 . S
C1762 C1763 1.386 . S
C1762 C1764 1.391 . S
C1763 C1762 1.386 . S
C1763 C1767 1.393 1_655 S
C1764 H1753 0.950 . S
C1764 C1762 1.391 . S
C1764 C1765 1.400 . S
C1765 C1759 1.491 1_655 S
C1765 C1764 1.400 . S
C1765 C1766 1.398 1_655 S
C1766 H1754 0.950 . S
C1766 C1765 1.398 1_455 S
C1766 C1767 1.391 . S
C1767 H1755 0.950 . S
C1767 C1763 1.393 1_455 S
C1767 C1766 1.391 . S
H1768 C1776 0.950 . S
H1769 C1781 0.950 . S
H1770 C1778 0.950 . S
H1771 C1780 0.950 . S
H1772 C1782 0.950 . S
H1773 C1784 0.950 . S
H1774 C1786 0.950 . S
H1775 C1787 0.950 . S
C1776 H1768 0.950 . S
C1776 C1777 1.386 . S
C1776 C1778 1.391 . S
C1777 C1776 1.386 . S
C1777 C1781 1.393 . S
C1778 H1770 0.950 . S
C1778 C1776 1.391 . S
C1778 C1779 1.400 . S
C1779 C1778 1.400 . S
C1779 C1780 1.398 . S
C1779 C1785 1.491 . S
C1780 H1771 0.950 . S
C1780 C1779 1.398 . S
C1780 C1781 1.391 . S
C1781 H1769 0.950 . S
C1781 C1777 1.393 . S
C1781 C1780 1.391 . S
C1782 H1772 0.950 . S
C1782 C1783 1.386 . S
C1782 C1784 1.391 . S
C1783 C1782 1.386 . S
C1783 C1787 1.393 . S
C1784 H1773 0.950 . S
C1784 C1782 1.391 . S
C1784 C1785 1.400 . S
C1785 C1779 1.491 . S
C1785 C1784 1.400 . S
C1785 C1786 1.398 . S
C1786 H1774 0.950 . S
C1786 C1785 1.398 . S
C1786 C1787 1.391 . S
C1787 H1775 0.950 . S
C1787 C1783 1.393 . S
C1787 C1786 1.391 . S
H1788 C1796 0.950 . S
H1789 C1801 0.950 . S
H1790 C1798 0.950 . S
H1791 C1800 0.950 . S
H1792 C1802 0.950 . S
H1793 C1804 0.950 . S
H1794 C1806 0.950 . S
H1795 C1807 0.950 . S
C1796 H1788 0.950 . S
C1796 C1797 1.386 . S
C1796 C1798 1.391 . S
C1797 C1796 1.386 . S
C1797 C1801 1.393 . S
C1798 H1790 0.950 . S
C1798 C1796 1.391 . S
C1798 C1799 1.400 . S
C1799 C1798 1.400 . S
C1799 C1800 1.398 . S
C1799 C1805 1.491 1_545 S
C1800 H1791 0.950 . S
C1800 C1799 1.398 . S
C1800 C1801 1.391 . S
C1801 H1789 0.950 . S
C1801 C1797 1.393 . S
C1801 C1800 1.391 . S
C1802 H1792 0.950 . S
C1802 C1803 1.386 . S
C1802 C1804 1.391 . S
C1803 C1802 1.386 . S
C1803 C1807 1.393 . S
C1804 H1793 0.950 . S
C1804 C1802 1.391 . S
C1804 C1805 1.400 . S
C1805 C1799 1.491 1_565 S
C1805 C1804 1.400 . S
C1805 C1806 1.398 . S
C1806 H1794 0.950 . S
C1806 C1805 1.398 . S
C1806 C1807 1.391 . S
C1807 H1795 0.950 . S
C1807 C1803 1.393 . S
C1807 C1806 1.391 . S
H1808 C1816 0.950 . S
H1809 C1821 0.950 . S
H1810 C1818 0.950 . S
H1811 C1820 0.950 . S
H1812 C1822 0.950 . S
H1813 C1824 0.950 . S
H1814 C1826 0.950 . S
H1815 C1827 0.950 . S
C1816 H1808 0.950 . S
C1816 C1817 1.386 . S
C1816 C1818 1.391 . S
C1817 C1816 1.386 . S
C1817 C1821 1.393 . S
C1818 H1810 0.950 . S
C1818 C1816 1.391 . S
C1818 C1819 1.400 . S
C1819 C1818 1.400 . S
C1819 C1820 1.398 . S
C1819 C1825 1.491 1_455 S
C1820 H1811 0.950 . S
C1820 C1819 1.398 . S
C1820 C1821 1.391 . S
C1821 H1809 0.950 . S
C1821 C1817 1.393 . S
C1821 C1820 1.391 . S
C1822 H1812 0.950 . S
C1822 C1823 1.386 . S
C1822 C1824 1.391 . S
C1823 C1822 1.386 . S
C1823 C1827 1.393 . S
C1824 H1813 0.950 . S
C1824 C1822 1.391 . S
C1824 C1825 1.400 . S
C1825 C1819 1.491 1_655 S
C1825 C1824 1.400 . S
C1825 C1826 1.398 . S
C1826 H1814 0.950 . S
C1826 C1825 1.398 . S
C1826 C1827 1.391 . S
C1827 H1815 0.950 . S
C1827 C1823 1.393 . S
C1827 C1826 1.391 . S
H1828 C1836 0.950 . S
H1829 C1841 0.950 . S
H1830 C1838 0.950 . S
H1831 C1840 0.950 . S
H1832 C1842 0.950 . S
H1833 C1844 0.950 . S
H1834 C1846 0.950 . S
H1835 C1847 0.950 . S
C1836 H1828 0.950 . S
C1836 C1837 1.386 . S
C1836 C1838 1.391 . S
C1837 C1836 1.386 . S
C1837 C1841 1.393 . S
C1838 H1830 0.950 . S
C1838 C1836 1.391 . S
C1838 C1839 1.400 . S
C1839 C1838 1.400 . S
C1839 C1840 1.398 . S
C1839 C1845 1.491 . S
C1840 H1831 0.950 . S
C1840 C1839 1.398 . S
C1840 C1841 1.391 . S
C1841 H1829 0.950 . S
C1841 C1837 1.393 . S
C1841 C1840 1.391 . S
C1842 H1832 0.950 . S
C1842 C1843 1.386 . S
C1842 C1844 1.391 . S
C1843 C1842 1.386 . S
C1843 C1847 1.393 . S
C1844 H1833 0.950 . S
C1844 C1842 1.391 . S
C1844 C1845 1.400 . S
C1845 C1839 1.491 . S
C1845 C1844 1.400 . S
C1845 C1846 1.398 . S
C1846 H1834 0.950 . S
C1846 C1845 1.398 . S
C1846 C1847 1.391 . S
C1847 H1835 0.950 . S
C1847 C1843 1.393 . S
C1847 C1846 1.391 . S
H1848 C1856 0.949 1_545 S
H1849 C1861 0.950 . S
H1850 C1858 0.950 . S
H1851 C1860 0.950 . S
H1852 C1862 0.949 1_565 S
H1853 C1864 0.950 . S
H1854 C1866 0.950 . S
H1855 C1867 0.950 . S
C1856 H1848 0.949 1_565 S
C1856 C1857 1.387 . S
C1856 C1858 1.391 1_565 S
C1857 C1856 1.387 . S
C1857 C1861 1.393 . S
C1858 H1850 0.950 . S
C1858 C1856 1.391 1_545 S
C1858 C1859 1.400 1_545 S
C1859 C1858 1.400 1_565 S
C1859 C1860 1.398 . S
C1859 C1865 1.491 1_565 S
C1860 H1851 0.950 . S
C1860 C1859 1.398 . S
C1860 C1861 1.391 . S
C1861 H1849 0.950 . S
C1861 C1857 1.393 . S
C1861 C1860 1.391 . S
C1862 H1852 0.949 1_545 S
C1862 C1863 1.386 . S
C1862 C1864 1.391 1_545 S
C1863 C1862 1.386 . S
C1863 C1867 1.393 . S
C1864 H1853 0.950 . S
C1864 C1862 1.391 1_565 S
C1864 C1865 1.400 1_565 S
C1865 C1859 1.491 1_545 S
C1865 C1864 1.400 1_545 S
C1865 C1866 1.398 . S
C1866 H1854 0.950 . S
C1866 C1865 1.398 . S
C1866 C1867 1.391 . S
C1867 H1855 0.950 . S
C1867 C1863 1.393 . S
C1867 C1866 1.391 . S
H1868 C1876 0.963 . S
H1869 C1881 0.950 . S
H1870 C1878 0.950 . S
H1871 C1880 0.950 . S
H1872 C1882 0.963 . S
H1873 C1884 0.950 . S
H1874 C1886 0.950 . S
H1875 C1887 0.950 . S
C1876 H1868 0.963 . S
C1876 C1877 1.364 1_655 S
C1876 C1878 1.400 . S
C1877 C1876 1.364 1_455 S
C1877 C1881 1.393 . S
C1878 H1870 0.950 . S
C1878 C1876 1.400 . S
C1878 C1879 1.400 1_655 S
C1879 C1878 1.400 1_455 S
C1879 C1880 1.398 . S
C1879 C1885 1.491 1_445 S
C1880 H1871 0.950 . S
C1880 C1879 1.398 . S
C1880 C1881 1.391 . S
C1881 H1869 0.950 . S
C1881 C1877 1.393 . S
C1881 C1880 1.391 . S
C1882 H1872 0.963 . S
C1882 C1883 1.364 1_455 S
C1882 C1884 1.400 . S
C1883 C1882 1.364 1_655 S
C1883 C1887 1.393 . S
C1884 H1873 0.950 . S
C1884 C1882 1.400 . S
C1884 C1885 1.400 1_455 S
C1885 C1879 1.491 1_665 S
C1885 C1884 1.400 1_655 S
C1885 C1886 1.398 . S
C1886 H1874 0.950 . S
C1886 C1885 1.398 . S
C1886 C1887 1.391 . S
C1887 H1875 0.950 . S
C1887 C1883 1.393 . S
C1887 C1886 1.391 . S
H1888 C1896 0.950 . S
H1889 C1901 0.950 . S
H1890 C1898 0.950 . S
H1891 C1900 0.950 . S
H1892 C1902 0.950 . S
H1893 C1904 0.950 . S
H1894 C1906 0.950 . S
H1895 C1907 0.950 . S
C1896 H1888 0.950 . S
C1896 C1897 1.386 . S
C1896 C1898 1.391 . S
C1897 C1896 1.386 . S
C1897 C1901 1.393 1_565 S
C1898 H1890 0.950 . S
C1898 C1896 1.391 . S
C1898 C1899 1.400 . S
C1899 C1898 1.400 . S
C1899 C1900 1.398 1_565 S
C1899 C1905 1.491 1_565 S
C1900 H1891 0.950 . S
C1900 C1899 1.398 1_545 S
C1900 C1901 1.391 . S
C1901 H1889 0.950 . S
C1901 C1897 1.393 1_545 S
C1901 C1900 1.391 . S
C1902 H1892 0.950 . S
C1902 C1903 1.386 . S
C1902 C1904 1.391 . S
C1903 C1902 1.386 . S
C1903 C1907 1.393 1_545 S
C1904 H1893 0.950 . S
C1904 C1902 1.391 . S
C1904 C1905 1.400 . S
C1905 C1899 1.491 1_545 S
C1905 C1904 1.400 . S
C1905 C1906 1.398 1_545 S
C1906 H1894 0.950 . S
C1906 C1905 1.398 1_565 S
C1906 C1907 1.391 . S
C1907 H1895 0.950 . S
C1907 C1903 1.393 1_565 S
C1907 C1906 1.391 . S
H1908 C1916 0.950 . S
H1909 C1921 0.950 . S
H1910 C1918 0.950 . S
H1911 C1920 0.950 . S
H1912 C1922 0.950 . S
H1913 C1924 0.950 . S
H1914 C1926 0.950 . S
H1915 C1927 0.950 . S
C1916 H1908 0.950 . S
C1916 C1917 1.386 . S
C1916 C1918 1.391 . S
C1917 C1916 1.386 . S
C1917 C1921 1.393 1_655 S
C1918 H1910 0.950 . S
C1918 C1916 1.391 . S
C1918 C1919 1.400 . S
C1919 C1918 1.400 . S
C1919 C1920 1.398 1_655 S
C1919 C1925 1.491 1_665 S
C1920 H1911 0.950 . S
C1920 C1919 1.398 1_455 S
C1920 C1921 1.391 . S
C1921 H1909 0.950 . S
C1921 C1917 1.393 1_455 S
C1921 C1920 1.391 . S
C1922 H1912 0.950 . S
C1922 C1923 1.386 . S
C1922 C1924 1.391 . S
C1923 C1922 1.386 . S
C1923 C1927 1.393 1_455 S
C1924 H1913 0.950 . S
C1924 C1922 1.391 . S
C1924 C1925 1.400 . S
C1925 C1919 1.491 1_445 S
C1925 C1924 1.400 . S
C1925 C1926 1.398 1_455 S
C1926 H1914 0.950 . S
C1926 C1925 1.398 1_655 S
C1926 C1927 1.391 . S
C1927 H1915 0.950 . S
C1927 C1923 1.393 1_655 S
C1927 C1926 1.391 . S
H1928 C1936 0.950 . S
H1929 C1941 0.950 . S
H1930 C1938 0.950 . S
H1931 C1940 0.950 . S
H1932 C1942 0.950 . S
H1933 C1944 0.950 . S
H1934 C1946 0.950 . S
H1935 C1947 0.950 . S
C1936 H1928 0.950 . S
C1936 C1937 1.386 . S
C1936 C1938 1.391 . S
C1937 C1936 1.386 . S
C1937 C1941 1.393 . S
C1938 H1930 0.950 . S
C1938 C1936 1.391 . S
C1938 C1939 1.400 . S
C1939 C1938 1.400 . S
C1939 C1940 1.398 . S
C1939 C1945 1.491 1_455 S
C1940 H1931 0.950 . S
C1940 C1939 1.398 . S
C1940 C1941 1.391 . S
C1941 H1929 0.950 . S
C1941 C1937 1.393 . S
C1941 C1940 1.391 . S
C1942 H1932 0.950 . S
C1942 C1943 1.386 . S
C1942 C1944 1.391 . S
C1943 C1942 1.386 . S
C1943 C1947 1.393 . S
C1944 H1933 0.950 . S
C1944 C1942 1.391 . S
C1944 C1945 1.400 . S
C1945 C1939 1.491 1_655 S
C1945 C1944 1.400 . S
C1945 C1946 1.398 . S
C1946 H1934 0.950 . S
C1946 C1945 1.398 . S
C1946 C1947 1.391 . S
C1947 H1935 0.950 . S
C1947 C1943 1.393 . S
C1947 C1946 1.391 . S
H1948 C1956 0.950 . S
H1949 C1961 0.950 . S
H1950 C1958 0.950 . S
H1951 C1960 0.950 . S
H1952 C1962 0.950 . S
H1953 C1964 0.950 . S
H1954 C1966 0.950 . S
H1955 C1967 0.950 . S
C1956 H1948 0.950 . S
C1956 C1957 1.386 . S
C1956 C1958 1.391 . S
C1957 C1956 1.386 . S
C1957 C1961 1.393 . S
C1958 H1950 0.950 . S
C1958 C1956 1.391 . S
C1958 C1959 1.400 . S
C1959 C1958 1.400 . S
C1959 C1960 1.398 . S
C1959 C1965 1.491 . S
C1960 H1951 0.950 . S
C1960 C1959 1.398 . S
C1960 C1961 1.391 . S
C1961 H1949 0.950 . S
C1961 C1957 1.393 . S
C1961 C1960 1.391 . S
C1962 H1952 0.950 . S
C1962 C1963 1.386 . S
C1962 C1964 1.391 . S
C1963 C1962 1.386 . S
C1963 C1967 1.393 . S
C1964 H1953 0.950 . S
C1964 C1962 1.391 . S
C1964 C1965 1.400 . S
C1965 C1959 1.491 . S
C1965 C1964 1.400 . S
C1965 C1966 1.398 . S
C1966 H1954 0.950 . S
C1966 C1965 1.398 . S
C1966 C1967 1.391 . S
C1967 H1955 0.950 . S
C1967 C1963 1.393 . S
C1967 C1966 1.391 . S
H1968 C1976 0.950 . S
H1969 C1981 0.950 . S
H1970 C1978 0.950 . S
H1971 C1980 0.950 . S
H1972 C1982 0.950 . S
H1973 C1984 0.950 . S
H1974 C1986 0.950 . S
H1975 C1987 0.950 . S
C1976 H1968 0.950 . S
C1976 C1977 1.386 . S
C1976 C1978 1.391 . S
C1977 C1976 1.386 . S
C1977 C1981 1.393 . S
C1978 H1970 0.950 . S
C1978 C1976 1.391 . S
C1978 C1979 1.400 . S
C1979 C1978 1.400 . S
C1979 C1980 1.398 . S
C1979 C1985 1.491 . S
C1980 H1971 0.950 . S
C1980 C1979 1.398 . S
C1980 C1981 1.391 . S
C1981 H1969 0.950 . S
C1981 C1977 1.393 . S
C1981 C1980 1.391 . S
C1982 H1972 0.950 . S
C1982 C1983 1.386 . S
C1982 C1984 1.391 . S
C1983 C1982 1.386 . S
C1983 C1987 1.393 . S
C1984 H1973 0.950 . S
C1984 C1982 1.391 . S
C1984 C1985 1.400 . S
C1985 C1979 1.491 . S
C1985 C1984 1.400 . S
C1985 C1986 1.398 . S
C1986 H1974 0.950 . S
C1986 C1985 1.398 . S
C1986 C1987 1.391 . S
C1987 H1975 0.950 . S
C1987 C1983 1.393 . S
C1987 C1986 1.391 . S
H1988 C1996 0.950 . S
H1989 C2001 0.950 . S
H1990 C1998 0.950 . S
H1991 C2000 0.950 . S
H1992 C2002 0.950 . S
H1993 C2004 0.950 . S
H1994 C2006 0.950 . S
H1995 C2007 0.950 . S
C1996 H1988 0.950 . S
C1996 C1997 1.386 . S
C1996 C1998 1.391 . S
C1997 C1996 1.386 . S
C1997 C2001 1.393 . S
C1998 H1990 0.950 . S
C1998 C1996 1.391 . S
C1998 C1999 1.400 . S
C1999 C1998 1.400 . S
C1999 C2000 1.398 . S
C1999 C2005 1.491 1_545 S
C2000 H1991 0.950 . S
C2000 C1999 1.398 . S
C2000 C2001 1.391 . S
C2001 H1989 0.950 . S
C2001 C1997 1.393 . S
C2001 C2000 1.391 . S
C2002 H1992 0.950 . S
C2002 C2003 1.386 . S
C2002 C2004 1.391 . S
C2003 C2002 1.386 . S
C2003 C2007 1.393 . S
C2004 H1993 0.950 . S
C2004 C2002 1.391 . S
C2004 C2005 1.400 . S
C2005 C1999 1.491 1_565 S
C2005 C2004 1.400 . S
C2005 C2006 1.398 . S
C2006 H1994 0.950 . S
C2006 C2005 1.398 . S
C2006 C2007 1.391 . S
C2007 H1995 0.950 . S
C2007 C2003 1.393 . S
C2007 C2006 1.391 . S
H2008 C2016 0.950 . S
H2009 C2021 0.950 1_545 S
H2010 C2018 0.950 . S
H2011 C2020 0.950 . S
H2012 C2022 0.950 . S
H2013 C2024 0.950 . S
H2014 C2026 0.950 . S
H2015 C2027 0.950 1_565 S
C2016 H2008 0.950 . S
C2016 C2017 1.386 . S
C2016 C2018 1.391 . S
C2017 C2016 1.386 . S
C2017 C2021 1.393 . S
C2018 H2010 0.950 . S
C2018 C2016 1.391 . S
C2018 C2019 1.400 . S
C2019 C2018 1.400 . S
C2019 C2020 1.398 1_565 S
C2019 C2025 1.491 1_665 S
C2020 H2011 0.950 . S
C2020 C2019 1.398 1_545 S
C2020 C2021 1.391 1_545 S
C2021 H2009 0.950 1_565 S
C2021 C2017 1.393 . S
C2021 C2020 1.391 1_565 S
C2022 H2012 0.950 . S
C2022 C2023 1.386 . S
C2022 C2024 1.391 . S
C2023 C2022 1.386 . S
C2023 C2027 1.393 . S
C2024 H2013 0.950 . S
C2024 C2022 1.391 . S
C2024 C2025 1.400 . S
C2025 C2019 1.491 1_445 S
C2025 C2024 1.400 . S
C2025 C2026 1.398 1_545 S
C2026 H2014 0.950 . S
C2026 C2025 1.398 1_565 S
C2026 C2027 1.391 1_565 S
C2027 H2015 0.950 1_545 S
C2027 C2023 1.393 . S
C2027 C2026 1.391 1_545 S
H2028 C2036 0.950 . S
H2029 C2041 0.950 . S
H2030 C2038 0.950 . S
H2031 C2040 0.950 . S
H2032 C2042 0.950 . S
H2033 C2044 0.950 . S
H2034 C2046 0.950 . S
H2035 C2047 0.950 . S
C2036 H2028 0.950 . S
C2036 C2037 1.386 . S
C2036 C2038 1.391 . S
C2037 C2036 1.386 . S
C2037 C2041 1.393 1_655 S
C2038 H2030 0.950 . S
C2038 C2036 1.391 . S
C2038 C2039 1.400 . S
C2039 C2038 1.400 . S
C2039 C2040 1.398 1_655 S
C2039 C2045 1.491 1_655 S
C2040 H2031 0.950 . S
C2040 C2039 1.398 1_455 S
C2040 C2041 1.391 . S
C2041 H2029 0.950 . S
C2041 C2037 1.393 1_455 S
C2041 C2040 1.391 . S
C2042 H2032 0.950 . S
C2042 C2043 1.386 . S
C2042 C2044 1.391 . S
C2043 C2042 1.386 . S
C2043 C2047 1.393 1_455 S
C2044 H2033 0.950 . S
C2044 C2042 1.391 . S
C2044 C2045 1.400 . S
C2045 C2039 1.491 1_455 S
C2045 C2044 1.400 . S
C2045 C2046 1.398 1_455 S
C2046 H2034 0.950 . S
C2046 C2045 1.398 1_655 S
C2046 C2047 1.391 . S
C2047 H2035 0.950 . S
C2047 C2043 1.393 1_655 S
C2047 C2046 1.391 . S
C1417 C372 1.095 . S
C1423 C57 1.095 . S
C1437 C145 1.119 . S
C1443 C460 1.119 . S
C1457 C548 1.106 . S
C1463 C233 1.106 . S
C1477 C645 1.104 . S
C1483 C313 1.103 . S
C1497 C1085 1.082 . S
C1503 C753 1.082 . S
C1517 C841 1.081 . S
C1523 C1164 1.081 . S
C1537 C1252 1.106 . S
C1543 C929 1.105 . S
C1557 C1025 1.100 . S
C1563 C1340 1.099 . S
C1577 C29 1.124 . S
C1583 C1369 1.105 . S
C1597 C117 1.101 . S
C1603 C1113 1.120 . S
C1617 C205 1.125 . S
C1623 C1193 1.106 . S
C1637 C1281 1.101 . S
C1643 C284 1.105 . S
C1657 C401 1.109 . S
C1663 C812 1.100 . S
C1677 C489 1.121 . S
C1683 C900 1.124 . S
C1697 C997 1.102 . S
C1703 C577 1.105 . S
C1717 C724 1.102 . S
C1723 C673 1.121 . S
C1737 C49 1.543 . S
C1743 C937 1.543 . S
C1757 C1017 1.546 . S
C1763 C137 1.547 . S
C1777 C225 1.547 . S
C1783 C761 1.548 . S
C1797 C849 1.543 . S
C1803 C321 1.543 . S
C1817 C381 1.550 . S
C1823 C1261 1.550 . S
C1837 C469 1.543 . S
C1843 C1349 1.543 . S
C1857 C1076 1.545 . S
C1863 C557 1.545 . S
C1877 C1173 1.547 . S
C1883 C636 1.546 . S
C1897 C909 1.668 . S
C1903 C20 1.672 . S
C1917 C108 1.659 . S
C1923 C988 1.663 . S
C1937 C196 1.658 . S
C1943 C733 1.662 . S
C1957 C821 1.671 . S
C1963 C293 1.672 . S
C1977 C1289 1.660 . S
C1983 C409 1.657 . S
C1997 C1377 1.668 . S
C2003 C497 1.671 . S
C2017 C1105 1.670 . S
C2023 C585 1.672 . S
C2037 C665 1.664 . S
C2043 C1201 1.669 . S
