# Generated by pormake.
# Topology unf, (4)-cn, num edge types: 1
# Building blocks:
#     Node 0, Type 0, BuildingBlock: QUQFOY_clean_sbu_3, # of connection points: 4
#     Node 1, Type 0, BuildingBlock: QUQFOY_clean_sbu_3, # of connection points: 4
#     Node 2, Type 0, BuildingBlock: QUQFOY_clean_sbu_3, # of connection points: 4
#     Node 3, Type 0, BuildingBlock: QUQFOY_clean_sbu_3, # of connection points: 4
#     Node 4, Type 0, BuildingBlock: QUQFOY_clean_sbu_3, # of connection points: 4
#     Node 5, Type 0, BuildingBlock: QUQFOY_clean_sbu_3, # of connection points: 4
#     Node 6, Type 0, BuildingBlock: QUQFOY_clean_sbu_3, # of connection points: 4
#     Node 7, Type 0, BuildingBlock: QUQFOY_clean_sbu_3, # of connection points: 4
#     Node 8, Type 0, BuildingBlock: QUQFOY_clean_sbu_3, # of connection points: 4
#     Node 9, Type 0, BuildingBlock: QUQFOY_clean_sbu_3, # of connection points: 4
#     Node 10, Type 0, BuildingBlock: QUQFOY_clean_sbu_3, # of connection points: 4
#     Node 11, Type 0, BuildingBlock: QUQFOY_clean_sbu_3, # of connection points: 4
#     Edge 12, Type (0, 0), BuildingBlock: CIFDUS_clean_linker_0, # of connection points: 2
#     Edge 13, Type (0, 0), BuildingBlock: CIFDUS_clean_linker_0, # of connection points: 2
#     Edge 14, Type (0, 0), BuildingBlock: CIFDUS_clean_linker_0, # of connection points: 2
#     Edge 15, Type (0, 0), BuildingBlock: CIFDUS_clean_linker_0, # of connection points: 2
#     Edge 16, Type (0, 0), BuildingBlock: CIFDUS_clean_linker_0, # of connection points: 2
#     Edge 17, Type (0, 0), BuildingBlock: CIFDUS_clean_linker_0, # of connection points: 2
#     Edge 18, Type (0, 0), BuildingBlock: CIFDUS_clean_linker_0, # of connection points: 2
#     Edge 19, Type (0, 0), BuildingBlock: CIFDUS_clean_linker_0, # of connection points: 2
#     Edge 20, Type (0, 0), BuildingBlock: CIFDUS_clean_linker_0, # of connection points: 2
#     Edge 21, Type (0, 0), BuildingBlock: CIFDUS_clean_linker_0, # of connection points: 2
#     Edge 22, Type (0, 0), BuildingBlock: CIFDUS_clean_linker_0, # of connection points: 2
#     Edge 23, Type (0, 0), BuildingBlock: CIFDUS_clean_linker_0, # of connection points: 2
#     Edge 24, Type (0, 0), BuildingBlock: CIFDUS_clean_linker_0, # of connection points: 2
#     Edge 25, Type (0, 0), BuildingBlock: CIFDUS_clean_linker_0, # of connection points: 2
#     Edge 26, Type (0, 0), BuildingBlock: CIFDUS_clean_linker_0, # of connection points: 2
#     Edge 27, Type (0, 0), BuildingBlock: CIFDUS_clean_linker_0, # of connection points: 2
#     Edge 28, Type (0, 0), BuildingBlock: CIFDUS_clean_linker_0, # of connection points: 2
#     Edge 29, Type (0, 0), BuildingBlock: CIFDUS_clean_linker_0, # of connection points: 2
#     Edge 30, Type (0, 0), BuildingBlock: CIFDUS_clean_linker_0, # of connection points: 2
#     Edge 31, Type (0, 0), BuildingBlock: CIFDUS_clean_linker_0, # of connection points: 2
#     Edge 32, Type (0, 0), BuildingBlock: CIFDUS_clean_linker_0, # of connection points: 2
#     Edge 33, Type (0, 0), BuildingBlock: CIFDUS_clean_linker_0, # of connection points: 2
#     Edge 34, Type (0, 0), BuildingBlock: CIFDUS_clean_linker_0, # of connection points: 2
#     Edge 35, Type (0, 0), BuildingBlock: CIFDUS_clean_linker_0, # of connection points: 2
# Relax obj value: 0.223
# Max RMSD: 0.171
# Mean RMSD: 0.171
data_MOF--net-unf--node1-QUQFOY_clean_sbu_3--edge1-CIFDUS_clean_linker_0
_symmetry_space_group_name_H-M    P1
_symmetry_Int_Tables_number       1
_symmetry_cell_setting            triclinic
loop_
_symmetry_equiv_pos_as_xyz
'x, y, z'
_cell_length_a     34.079334
_cell_length_b     34.184284
_cell_length_c     34.113365
_cell_angle_alpha  90.193618
_cell_angle_beta   89.986286
_cell_angle_gamma 119.86807
loop_
_atom_site_label
_atom_site_type_symbol
_atom_site_fract_x
_atom_site_fract_y
_atom_site_fract_z
_atom_type_partial_charge
C0 C 0.10325 0.47598 0.01896 0.0
O1 O 0.12035 0.46552 0.99055 0.0
Cd2 Cd 0.14355 0.41043 0.0028 0.0
O3 O 0.10971 0.46811 0.05408 0.0
Cd4 Cd 0.1481 0.43858 0.09467 0.0
C5 C 0.05265 0.34869 0.06573 0.0
O6 O 0.199 0.42841 0.05175 0.0
O7 O 0.1693 0.38138 0.09994 0.0
O8 O 0.2062 0.50394 0.13025 0.0
C9 C 0.19538 0.39457 0.0704 0.0
O10 O 0.07385 0.35415 0.03356 0.0
C11 C 0.18752 0.49024 0.16349 0.0
O12 O 0.07033 0.37614 0.09433 0.0
O13 O 0.14945 0.45403 0.16424 0.0
C14 C 0.47429 0.58908 0.96859 0.0
O15 O 0.48754 0.61171 0.93716 0.0
Cd16 Cd 0.54163 0.6908 0.93505 0.0
O17 O 0.48447 0.60906 0.00167 0.0
Cd18 Cd 0.5303 0.6878 0.02365 0.0
C19 C 0.61598 0.6768 -0.00868 0.0
O20 O 0.53029 0.74159 0.9752 0.0
O21 O 0.59199 0.75907 0.00674 0.0
O22 O 0.48147 0.69172 0.07566 0.0
C23 C 0.57025 0.77153 0.9849 0.0
O24 O 0.60893 0.69042 0.95874 0.0
C25 C 0.51307 0.70689 0.10103 0.0
O26 O 0.58915 0.66789 0.02014 0.0
O27 O 0.55011 0.70942 0.09102 0.0
C28 C 0.38835 0.86016 0.02031 0.0
O29 O 0.373 0.83751 0.98896 0.0
Cd30 Cd 0.29907 0.82244 0.9704 0.0
O31 O 0.36163 0.86302 0.04454 0.0
Cd32 Cd 0.27998 0.83226 0.05231 0.0
C33 C 0.3142 0.92475 0.00169 0.0
O34 O 0.23235 0.77062 0.00647 0.0
O35 O 0.21351 0.82109 0.02068 0.0
O36 O 0.27107 0.78502 0.10901 0.0
C37 C 0.20218 0.78235 0.00699 0.0
O38 O 0.31334 0.89959 0.97372 0.0
C39 C 0.25117 0.80079 0.12981 0.0
O40 O 0.30347 0.90978 0.03644 0.0
O41 O 0.2476 0.83315 0.1155 0.0
C42 C 0.50138 0.88032 0.44873 0.0
O43 O 0.50227 0.85723 0.47746 0.0
Cd44 Cd 0.55803 0.83373 0.48018 0.0
O45 O 0.5218 0.88219 0.41691 0.0
Cd46 Cd 0.56685 0.8524 0.38614 0.0
C47 C 0.64155 0.93629 0.44356 0.0
O48 O 0.5554 0.78883 0.42629 0.0
O49 O 0.61928 0.82595 0.39556 0.0
O50 O 0.51913 0.81251 0.32932 0.0
C51 C 0.59355 0.79305 0.4173 0.0
O52 O 0.62453 0.90796 0.47148 0.0
C53 C 0.55025 0.8347 0.3045 0.0
O54 O 0.62601 0.92611 0.40874 0.0
O55 O 0.5872 0.86688 0.31775 0.0
C56 C 0.05632 0.6001 0.46192 0.0
O57 O 0.07486 0.62339 0.49245 0.0
Cd58 Cd 0.10661 0.70365 0.49694 0.0
O59 O 0.05814 0.61924 0.42952 0.0
Cd60 Cd 0.08812 0.69723 0.40695 0.0
C61 C 0.00701 0.69297 0.4651 0.0
O62 O 0.15596 0.74681 0.4453 0.0
O63 O 0.11666 0.77519 0.42127 0.0
O64 O 0.12756 0.69148 0.34968 0.0
C65 C 0.15276 0.78154 0.43767 0.0
O66 O 0.03665 0.70542 0.49217 0.0
C67 C 0.10816 0.70471 0.32562 0.0
O68 O 0.01511 0.68421 0.43068 0.0
O69 O 0.07661 0.71053 0.33905 0.0
C70 C 0.3565 0.47316 0.50912 0.0
O71 O 0.3234 0.45671 0.5328 0.0
Cd72 Cd 0.24723 0.40664 0.51075 0.0
O73 O 0.35004 0.47145 0.47224 0.0
Cd74 Cd 0.28831 0.44523 0.42423 0.0
C75 C 0.27948 0.34684 0.44946 0.0
O76 O 0.22294 0.43616 0.45993 0.0
O77 O 0.21019 0.39228 0.40987 0.0
O78 O 0.30119 0.5119 0.38792 0.0
C79 C 0.19444 0.4054 0.43742 0.0
O80 O 0.25824 0.34859 0.4796 0.0
C81 C 0.30896 0.49844 0.35559 0.0
O82 O 0.29713 0.37905 0.42488 0.0
O83 O 0.31114 0.46239 0.35618 0.0
C84 C 0.87919 0.49189 0.01099 0.0
O85 O 0.86204 0.49599 0.04266 0.0
Cd86 Cd 0.84244 0.55402 0.047 0.0
O87 O 0.87553 0.50995 0.97972 0.0
Cd88 Cd 0.83916 0.55408 0.96158 0.0
C89 C 0.93553 0.6325 -0.00198 0.0
O90 O 0.78018 0.5452 0.00827 0.0
O91 O 0.8245 0.61171 0.98467 0.0
O92 O 0.78993 0.50702 0.90769 0.0
C93 C 0.78748 0.58482 0.00136 0.0
O94 O 0.91387 0.62182 0.03028 0.0
C95 C 0.80316 0.54037 0.88458 0.0
O96 O 0.91756 0.61079 0.96667 0.0
O97 O 0.83532 0.57807 0.89626 0.0
C98 C 0.43227 0.34122 0.93619 0.0
O99 O 0.43758 0.32422 0.96738 0.0
Cd100 Cd 0.38688 0.24706 0.98337 0.0
O101 O 0.40585 0.31605 0.90929 0.0
Cd102 Cd 0.35544 0.23513 0.89618 0.0
C103 C 0.29669 0.26115 0.95841 0.0
O104 O 0.37973 0.19248 0.93621 0.0
O105 O 0.30751 0.16293 0.92643 0.0
O106 O 0.39466 0.23407 0.83698 0.0
C107 C 0.34017 0.15849 0.93884 0.0
O108 O 0.3192 0.25396 0.98442 0.0
C109 C 0.35959 0.21636 0.81536 0.0
O110 O 0.30362 0.2585 0.922 0.0
O111 O 0.32277 0.20959 0.83093 0.0
C112 C 0.6286 0.08016 0.00261 0.0
O113 O 0.65151 0.08721 0.03381 0.0
Cd114 Cd 0.7316 0.11571 0.03463 0.0
O115 O 0.64844 0.09479 0.96989 0.0
Cd116 Cd 0.72696 0.13371 0.9464 0.0
C117 C 0.71523 0.03404 0.96949 0.0
O118 O 0.77813 0.18257 -0.00158 0.0
O119 O 0.80169 0.14823 0.95991 0.0
O120 O 0.72316 0.18589 0.8982 0.0
C121 C 0.81077 0.17773 0.98628 0.0
O122 O 0.73118 0.0514 0.00294 0.0
C123 C 0.74004 0.17319 0.87107 0.0
O124 O 0.70612 0.05524 0.94385 0.0
O125 O 0.74784 0.14144 0.87885 0.0
C126 C 0.46873 0.09381 0.46999 0.0
O127 O 0.46897 0.11616 0.44028 0.0
Cd128 Cd 0.41528 0.14139 0.43372 0.0
O129 O 0.44698 0.09269 0.50072 0.0
Cd130 Cd 0.40126 0.12642 0.52281 0.0
C131 C 0.32641 0.0425 0.46738 0.0
O132 O 0.42027 0.19321 0.48278 0.0
O133 O 0.35077 0.15156 0.5012 0.0
O134 O 0.441 0.16291 0.58401 0.0
C135 C 0.38086 0.18815 0.48613 0.0
O136 O 0.34379 0.06996 0.43895 0.0
C137 C 0.4053 0.1444 0.6048 0.0
O138 O 0.34269 0.05299 0.50184 0.0
O139 O 0.36907 0.11556 0.58791 0.0
C140 C 0.87165 0.34871 0.51534 0.0
O141 O 0.85641 0.32345 0.48528 0.0
Cd142 Cd 0.83923 0.24623 0.48357 0.0
O143 O 0.87267 0.33232 0.54853 0.0
Cd144 Cd 0.85456 0.25945 0.57731 0.0
C145 C 0.94415 0.27845 0.52155 0.0
O146 O 0.79368 0.20263 0.53701 0.0
O147 O 0.83497 0.18192 0.56936 0.0
O148 O 0.81418 0.26249 0.63598 0.0
C149 C 0.80105 0.17118 0.54743 0.0
O150 O 0.91672 0.26256 0.49274 0.0
C151 C 0.84154 0.25956 0.65956 0.0
O152 O 0.9307 0.28253 0.55535 0.0
O153 O 0.8754 0.25901 0.64459 0.0
C154 C 0.60068 0.5094 0.5517 0.0
O155 O 0.626 0.50838 0.52485 0.0
Cd156 Cd 0.70223 0.56965 0.51818 0.0
O157 O 0.61784 0.53557 0.58107 0.0
Cd158 Cd 0.69173 0.58937 0.60919 0.0
C159 C 0.67215 0.64992 0.54419 0.0
O160 O 0.74883 0.58159 0.57303 0.0
O161 O 0.76808 0.6475 0.59756 0.0
O162 O 0.68808 0.54407 0.66517 0.0
C163 C 0.77933 0.62237 0.57904 0.0
O164 O 0.68524 0.6307 0.51953 0.0
C165 C 0.69563 0.57454 0.69037 0.0
O166 O 0.66877 0.64038 0.58062 0.0
O167 O 0.69731 0.61041 0.67788 0.0
H168 H 0.21366 0.38545 -0.00559 0.0
H169 H 0.21527 0.33922 0.11162 0.0
H170 H 0.24175 0.28948 0.08647 0.0
H171 H 0.26719 0.2616 0.03189 0.0
H172 H 0.26544 0.3068 0.91423 0.0
H173 H 0.23463 0.35329 0.9387 0.0
C174 C 0.22016 0.36469 0.01437 0.0
C175 C 0.2133 0.3664 0.05483 0.0
C176 C 0.23449 0.33546 -0.00039 0.0
C177 C 0.22074 0.33865 0.08038 0.0
C178 C 0.23564 0.31008 0.06603 0.0
C179 C 0.25947 0.28108 0.01144 0.0
C180 C 0.2689 0.28094 0.97134 0.0
C181 C 0.24278 0.30838 0.02576 0.0
C182 C 0.25829 0.30609 0.94524 0.0
C183 C 0.2412 0.33313 0.95927 0.0
H184 H 0.65843 0.83262 -0.00844 0.0
H185 H 0.53269 0.81502 0.9454 0.0
H186 H 0.57005 0.89571 0.92979 0.0
H187 H 0.63588 0.97217 0.93781 0.0
H188 H 0.75834 -0.0112 0.9905 0.0
H189 H 0.72503 0.90694 -0.00558 0.0
C190 C 0.63913 0.84621 0.9777 0.0
C191 C 0.5927 0.81817 0.9702 0.0
C192 C 0.66038 0.89233 0.96997 0.0
C193 C 0.56842 0.83612 0.95168 0.0
C194 C 0.58975 0.88217 0.94287 0.0
C195 C 0.6556 0.95766 0.94903 0.0
C196 C 0.69945 0.986 0.96371 0.0
C197 C 0.63538 0.91075 0.953 0.0
C198 C 0.72457 0.96729 0.979 0.0
C199 C 0.70545 0.92067 0.98144 0.0
H200 H 0.13149 0.79193 0.02744 0.0
H201 H 0.16564 0.70281 0.96523 0.0
H202 H 0.08494 0.65008 0.95339 0.0
H203 H 0.00474 0.62782 0.96456 0.0
H204 H 0.97253 0.71435 0.03303 0.0
H205 H 0.05297 0.77036 0.03838 0.0
C206 C 0.12147 0.76125 0.01084 0.0
C207 C 0.15439 0.75129 -0.00299 0.0
C208 C 0.07549 0.73085 0.00538 0.0
C209 C 0.1408 0.71111 0.9761 0.0
C210 C 0.09478 0.68107 0.96937 0.0
C211 C 0.01556 0.65936 0.98005 0.0
C212 C -0.01674 0.66761 -0.00196 0.0
C213 C 0.06185 0.69039 0.98434 0.0
C214 C -0.00285 0.70776 0.0189 0.0
C215 C 0.04296 0.73958 0.02198 0.0
H216 H 0.69438 0.69257 0.47478 0.0
H217 H 0.6143 0.6741 0.57832 0.0
H218 H 0.58094 0.71544 0.54742 0.0
H219 H 0.57273 0.75437 0.48954 0.0
H220 H 0.65485 0.77334 0.38729 0.0
H221 H 0.6886 0.73322 0.41888 0.0
C222 C 0.66983 0.6978 0.49077 0.0
C223 C 0.65665 0.68017 0.52867 0.0
C224 C 0.65064 0.72096 0.47278 0.0
C225 C 0.62521 0.68766 0.54917 0.0
C226 C 0.60582 0.71086 0.53138 0.0
C227 C 0.59768 0.74922 0.47418 0.0
C228 C 0.61102 0.76617 0.43605 0.0
C229 C 0.61778 0.72703 0.49292 0.0
C230 C 0.64401 0.76029 0.41661 0.0
C231 C 0.66342 0.73758 0.43467 0.0
H232 H 0.16417 0.85916 0.40789 0.0
H233 H 0.22032 0.80644 0.49201 0.0
H234 H 0.2776 0.88341 0.51059 0.0
H235 H 0.31208 0.96553 0.50188 0.0
H236 H 0.2587 0.01719 0.41421 0.0
H237 H 0.19929 0.94044 0.39818 0.0
C238 C 0.18884 0.86451 0.43042 0.0
C239 C 0.18801 0.82739 0.44877 0.0
C240 C 0.22184 0.90851 0.44035 0.0
C241 C 0.22047 0.83464 0.47748 0.0
C242 C 0.25303 0.87854 0.48817 0.0
C243 C 0.28703 0.95986 0.47962 0.0
C244 C 0.28918 -0.00333 0.45948 0.0
C245 C 0.254 0.91569 0.46976 0.0
C246 C 0.25739 -0.01083 0.43008 0.0
C247 C 0.22359 0.94542 0.42091 0.0
H248 H -0.01573 0.2797 0.45261 0.0
H249 H 0.01422 0.32435 0.57306 0.0
H250 H 0.09461 0.36875 0.55737 0.0
H251 H 0.15582 0.39814 0.50858 0.0
H252 H 0.12527 0.35285 0.38846 0.0
H253 H 0.04533 0.306 0.40484 0.0
C254 C 0.00834 0.29866 0.47563 0.0
C255 C -0.00687 0.29886 0.51389 0.0
C256 C 0.05427 0.32469 0.46631 0.0
C257 C 0.02495 0.32353 0.54332 0.0
C258 C 0.07091 0.34925 0.53433 0.0
C259 C 0.13154 0.37826 0.48599 0.0
C260 C 0.14613 0.37925 0.44732 0.0
C261 C 0.08579 0.35082 0.49575 0.0
C262 C 0.11462 0.35274 0.41842 0.0
C263 C 0.06902 0.32584 0.42777 0.0
H264 H 0.62007 0.61147 0.03276 0.0
H265 H 0.69769 0.72473 0.95651 0.0
H266 H 0.7598 0.70849 0.95665 0.0
H267 H 0.78916 0.65914 0.974 0.0
H268 H 0.7098 0.54143 0.04519 0.0
H269 H 0.65104 0.56252 0.05185 0.0
C270 C 0.65093 0.63288 0.01672 0.0
C271 C 0.6546 0.66922 -0.00532 0.0
C272 C 0.68581 0.62238 0.01585 0.0
C273 C 0.69426 0.69647 0.97349 0.0
C274 C 0.72967 0.68721 0.97358 0.0
C275 C 0.7593 0.6383 -0.00856 0.0
C276 C 0.75373 0.5988 0.0091 0.0
C277 C 0.72539 0.64978 -0.00601 0.0
C278 C 0.71471 0.57199 0.03128 0.0
C279 C 0.68117 0.58399 0.03502 0.0
H280 H 0.39402 0.12156 0.93762 0.0
H281 H 0.26715 0.10191 0.98236 0.0
H282 H 0.25027 0.02941 0.01038 0.0
H283 H 0.26897 0.96891 0.01752 0.0
H284 H 0.39137 0.98478 0.96578 0.0
H285 H 0.41313 0.06157 0.94538 0.0
C286 C 0.36301 0.10154 0.95395 0.0
C287 C 0.33185 0.11671 0.95807 0.0
C288 C 0.35276 0.05921 0.96853 0.0
C289 C 0.29144 0.0905 0.97874 0.0
C290 C 0.28182 0.04917 -0.00524 0.0
C291 C 0.30064 -0.01035 0.00229 0.0
C292 C 0.32876 0.97192 -0.00682 0.0
C293 C 0.31182 0.0328 0.98919 0.0
C294 C 0.36939 -0.00174 0.97291 0.0
C295 C 0.38174 0.04195 0.96126 0.0
H296 H 0.01583 0.26813 0.03049 0.0
H297 H -0.01775 0.3524 0.1006 0.0
H298 H 0.90188 0.30383 0.08476 0.0
H299 H 0.84316 0.24366 0.04286 0.0
H300 H 0.88006 0.16285 0.97071 0.0
H301 H 0.95699 0.20386 -0.00468 0.0
C302 C -0.00929 0.27515 0.04309 0.0
C303 C 0.00465 0.31367 0.06637 0.0
C304 C 0.94525 0.24823 0.03278 0.0
C305 C 0.97206 0.32252 0.08284 0.0
C306 C 0.92624 0.29515 0.07331 0.0
C307 C 0.86799 0.23482 0.03293 0.0
C308 C 0.85606 0.20082 0.00449 0.0
C309 C 0.91272 0.25896 0.04698 0.0
C310 C 0.88842 0.18933 -0.00786 0.0
C311 C 0.93249 0.21263 0.00628 0.0
H312 H 0.29732 0.17751 0.48143 0.0
H313 H 0.43727 0.27214 0.45576 0.0
H314 H 0.4165 0.3282 0.43557 0.0
H315 H 0.3594 0.35248 0.43233 0.0
H316 H 0.221 0.2587 0.46321 0.0
H317 H 0.24007 0.1994 0.4734 0.0
C318 C 0.32333 0.21025 0.4711 0.0
C319 C 0.36882 0.22095 0.47054 0.0
C320 C 0.31128 0.24221 0.46025 0.0
C321 C 0.40203 0.2633 0.45669 0.0
C322 C 0.39017 0.29528 0.44515 0.0
C323 C 0.33332 0.31864 0.44015 0.0
C324 C 0.28887 0.30952 0.44683 0.0
C325 C 0.34501 0.2854 0.44766 0.0
C326 C 0.25536 0.26608 0.45782 0.0
C327 C 0.26632 0.2324 0.46389 0.0
H328 H 0.75423 0.14452 0.47878 0.0
H329 H 0.79018 0.09481 0.58083 0.0
H330 H 0.74715 0.01781 0.55576 0.0
H331 H 0.69676 0.96449 0.50659 0.0
H332 H 0.66158 0.0132 0.40347 0.0
H333 H 0.7079 0.09094 0.42667 0.0
C334 C 0.75242 0.11672 0.49548 0.0
C335 C 0.7747 0.12504 0.53178 0.0
C336 C 0.72832 0.07258 0.48052 0.0
C337 C 0.77303 0.08904 0.55287 0.0
C338 C 0.74856 0.04508 0.53855 0.0
C339 C 0.69967 -0.00785 0.48894 0.0
C340 C 0.67562 0.98316 0.45354 0.0
C341 C 0.72584 0.03647 0.50259 0.0
C342 C 0.68004 0.01931 0.43075 0.0
C343 C 0.70611 0.06371 0.44419 0.0
H344 H -0.01718 0.72535 0.52712 0.0
H345 H 0.92762 0.634 0.4288 0.0
H346 H 0.85142 0.60332 0.45576 0.0
H347 H 0.80154 0.59823 0.51035 0.0
H348 H 0.85728 0.69121 0.60747 0.0
H349 H 0.93256 0.72505 0.57824 0.0
C350 C 0.95402 0.69921 0.51127 0.0
C351 C 0.96079 0.68169 0.47626 0.0
C352 C 0.91064 0.68138 0.52716 0.0
C353 C 0.9232 0.6482 0.45576 0.0
C354 C 0.87972 0.63027 0.47138 0.0
C355 C 0.83031 0.62576 0.52506 0.0
C356 C 0.82437 0.6418 0.56124 0.0
C357 C 0.87325 0.64573 0.50763 0.0
C358 C 0.86141 0.67818 0.57971 0.0
C359 C 0.90431 0.6976 0.56299 0.0
H360 H 0.24688 0.52191 0.33824 0.0
H361 H 0.35742 0.51128 0.28849 0.0
H362 H 0.33402 0.51922 0.22245 0.0
H363 H 0.27346 0.51319 0.17937 0.0
H364 H 0.15534 0.50846 0.22992 0.0
H365 H 0.19017 0.52321 0.29507 0.0
C366 C 0.26678 0.52308 0.31296 0.0
C367 C 0.30399 0.51645 0.31797 0.0
C368 C 0.25101 0.52405 0.27519 0.0
C369 C 0.32887 0.5167 0.28512 0.0
C370 C 0.31521 0.5208 0.24744 0.0
C371 C 0.25616 0.51698 0.20456 0.0
C372 C 0.2122 0.51016 0.20015 0.0
C373 C 0.27505 0.52217 0.2421 0.0
C374 C 0.18935 0.51386 0.23288 0.0
C375 C 0.20915 0.522 0.27004 0.0
H376 H 0.57847 0.78126 0.13513 0.0
H377 H 0.43987 0.67666 0.15041 0.0
H378 H 0.43757 0.70908 0.21433 0.0
H379 H 0.47741 0.7651 0.26738 0.0
H380 H 0.61506 0.87146 0.24846 0.0
H381 H 0.61496 0.84093 0.18398 0.0
C382 C 0.54775 0.76552 0.15252 0.0
C383 C 0.50973 0.72615 0.13877 0.0
C384 C 0.54647 0.7849 0.18835 0.0
C385 C 0.46969 0.70675 0.16082 0.0
C386 C 0.46842 0.72532 0.19723 0.0
C387 C 0.50708 0.78198 0.24887 0.0
C388 C 0.54637 0.82028 0.26301 0.0
C389 C 0.50688 0.76415 0.21152 0.0
C390 C 0.58444 0.84188 0.23851 0.0
C391 C 0.58456 0.8243 0.20165 0.0
H392 H 0.17901 0.80016 0.16295 0.0
H393 H 0.27372 0.75272 0.17969 0.0
H394 H 0.23558 0.71561 0.2407 0.0
H395 H 0.17656 0.69873 0.29008 0.0
H396 H 0.08028 0.74408 0.2714 0.0
H397 H 0.11718 0.77903 0.20979 0.0
C398 C 0.1915 0.78199 0.18015 0.0
C399 C 0.22956 0.77982 0.16735 0.0
C400 C 0.16874 0.75985 0.21448 0.0
C401 C 0.24472 0.7552 0.18927 0.0
C402 C 0.22283 0.73386 0.224 0.0
C403 C 0.16325 0.71569 0.27226 0.0
C404 C 0.12581 0.71892 0.28545 0.0
C405 C 0.18485 0.73606 0.23693 0.0
C406 C 0.10897 0.74098 0.26195 0.0
C407 C 0.13027 0.76132 0.22684 0.0
H408 H 0.79017 0.60515 0.85412 0.0
H409 H 0.76017 0.46839 0.8343 0.0
H410 H 0.72008 0.46523 0.77347 0.0
H411 H 0.69743 0.50341 0.7245 0.0
H412 H 0.72522 0.63928 0.74709 0.0
H413 H 0.76134 0.6403 0.809 0.0
C414 C 0.77505 0.57472 0.83633 0.0
C415 C 0.77896 0.53742 0.84793 0.0
C416 C 0.75122 0.57285 0.8023 0.0
C417 C 0.75804 0.49769 0.82548 0.0
C418 C 0.73505 0.49588 0.79088 0.0
C419 C 0.7107 0.53295 0.74329 0.0
C420 C 0.70898 0.57138 0.73097 0.0
C421 C 0.7318 0.53347 0.77884 0.0
C422 C 0.72612 0.60928 0.75577 0.0
C423 C 0.74713 0.61006 0.79106 0.0
H424 H 0.43364 0.2288 0.77456 0.0
H425 H 0.28864 0.16942 0.76546 0.0
H426 H 0.29 0.1398 0.70059 0.0
H427 H 0.33207 0.13054 0.64661 0.0
H428 H 0.47731 0.19212 0.65403 0.0
H429 H 0.47609 0.22062 0.71972 0.0
C430 C 0.40236 0.2096 0.7583 0.0
C431 C 0.36109 0.20142 0.77486 0.0
C432 C 0.40337 0.19265 0.72094 0.0
C433 C 0.32088 0.17643 0.75337 0.0
C434 C 0.32159 0.15926 0.71634 0.0
C435 C 0.36346 0.14979 0.66274 0.0
C436 C 0.4047 0.15883 0.64564 0.0
C437 C 0.36258 0.16695 0.69995 0.0
C438 C 0.44511 0.1845 0.66666 0.0
C439 C 0.44443 0.20094 0.70413 0.0
H440 H 0.81683 0.19487 0.83388 0.0
H441 H 0.69552 0.20375 0.82394 0.0
H442 H 0.71804 0.23535 0.75763 0.0
H443 H 0.76983 0.25414 0.70069 0.0
H444 H 0.89229 0.24712 0.71386 0.0
H445 H 0.87208 0.22184 0.78108 0.0
C446 C 0.79546 0.20401 0.81722 0.0
C447 C 0.7543 0.19636 0.83311 0.0
C448 C 0.80891 0.22252 0.77984 0.0
C449 C 0.72727 0.20919 0.81193 0.0
C450 C 0.74012 0.2271 0.77411 0.0
C451 C 0.79239 0.24777 0.71852 0.0
C452 C 0.83221 0.2519 0.70202 0.0
C453 C 0.78052 0.23307 0.75746 0.0
C454 C 0.86128 0.24389 0.7256 0.0
C455 C 0.84971 0.22924 0.76407 0.0
H456 H 0.02818 0.44658 0.06215 0.0
H457 H 0.09246 0.52144 0.95732 0.0
H458 H 0.02543 0.5282 0.94294 0.0
H459 H 0.94971 0.51434 0.96164 0.0
H460 H 0.88608 0.43823 0.06628 0.0
H461 H 0.95148 0.4288 0.07848 0.0
C462 C 0.02793 0.46507 0.03643 0.0
C463 C 0.06569 0.48471 0.01137 0.0
C464 C -0.01098 0.46741 0.02784 0.0
C465 C 0.06411 0.50692 0.9774 0.0
C466 C 0.02569 0.51035 0.96904 0.0
C467 C 0.94961 0.4947 0.98659 0.0
C468 C 0.91296 0.47686 0.01301 0.0
C469 C -0.01208 0.4906 -0.00594 0.0
C470 C 0.91374 0.45212 0.04548 0.0
C471 C 0.95132 0.44717 0.0527 0.0
H472 H 0.47209 0.53898 0.90554 0.0
H473 H 0.43985 0.52897 0.02891 0.0
H474 H 0.42835 0.45262 0.03012 0.0
H475 H 0.43101 0.39033 -0.00286 0.0
H476 H 0.46002 0.39832 0.87348 0.0
H477 H 0.47082 0.47482 0.87164 0.0
C478 C 0.46166 0.51986 0.93257 0.0
C479 C 0.45697 0.53986 0.96714 0.0
C480 C 0.45608 0.47632 0.93329 0.0
C481 C 0.44365 0.51448 0.00187 0.0
C482 C 0.43758 0.47099 0.00271 0.0
C483 C 0.44072 0.40924 0.96997 0.0
C484 C 0.44616 0.38947 0.93571 0.0
C485 C 0.44485 0.45211 0.96886 0.0
C486 C 0.45678 0.41346 0.90035 0.0
C487 C 0.46236 0.45684 0.89924 0.0
H488 H 0.43511 0.91888 0.96397 0.0
H489 H 0.44601 0.88261 0.08263 0.0
H490 H 0.52044 0.95092 0.08913 0.0
H491 H 0.58137 0.02112 0.06093 0.0
H492 H 0.5676 0.05881 0.94312 0.0
H493 H 0.49404 -0.00953 0.93699 0.0
C494 C 0.45444 0.92539 0.99087 0.0
C495 C 0.43623 0.89518 0.02233 0.0
C496 C 0.49571 0.96564 -0.00505 0.0
C497 C 0.46028 0.90488 0.05772 0.0
C498 C 0.50235 0.94417 0.06156 0.0
C499 C 0.56195 0.01496 0.03417 0.0
C500 C 0.58011 0.0452 0.00251 0.0
C501 C 0.52008 0.97508 0.0305 0.0
C502 C 0.55445 0.03629 0.96799 0.0
C503 C 0.51263 -0.00308 0.96426 0.0
H504 H 0.53119 0.95942 0.41117 0.0
H505 H 0.4411 0.87767 0.50333 0.0
H506 H 0.42662 0.93894 0.52072 0.0
H507 H 0.44011 0.01571 0.50976 0.0
H508 H 0.53102 0.09719 0.41788 0.0
H509 H 0.54595 0.03625 0.40122 0.0
C510 C 0.50768 0.95456 0.43461 0.0
C511 C 0.48658 0.91371 0.4555 0.0
C512 C 0.50076 -0.00971 0.44519 0.0
C513 C 0.45724 0.90856 0.48648 0.0
C514 C 0.44936 0.94373 0.49667 0.0
C515 C 0.46397 0.02055 0.48665 0.0
C516 C 0.48476 0.06111 0.46528 0.0
C517 C 0.47138 0.98492 0.47651 0.0
C518 C 0.51487 0.06644 0.43492 0.0
C519 C 0.52302 0.03145 0.42512 0.0
H520 H 0.91058 0.39401 0.44839 0.0
H521 H 0.89598 0.41393 0.5714 0.0
H522 H 0.95456 0.49314 0.56607 0.0
H523 H 0.01235 0.55542 0.52737 0.0
H524 H 0.02709 0.53582 0.40437 0.0
H525 H 0.96673 0.4571 0.4091 0.0
C526 C 0.91938 0.41589 0.47385 0.0
C527 C 0.8987 0.39812 0.51022 0.0
C528 C 0.95407 0.46097 0.47086 0.0
C529 C 0.91116 0.42684 0.54304 0.0
C530 C 0.94501 0.47197 0.54011 0.0
C531 C 0.00293 0.53374 0.50171 0.0
C532 C 0.02473 0.55118 0.4657 0.0
C533 C 0.96743 0.48905 0.50441 0.0
C534 C 0.01122 0.52298 0.43252 0.0
C535 C 0.97644 0.47815 0.43513 0.0
H536 H 0.4123 0.44939 0.47512 0.0
H537 H 0.39915 0.5172 0.5768 0.0
H538 H 0.47184 0.52909 0.60197 0.0
H539 H 0.54015 0.52298 0.59302 0.0
H540 H 0.55141 0.45301 0.49168 0.0
H541 H 0.47704 0.43737 0.46917 0.0
C542 C 0.42571 0.46737 0.50254 0.0
C543 C 0.40143 0.48382 0.52357 0.0
C544 C 0.4664 0.47261 0.51725 0.0
C545 C 0.41798 0.50526 0.55981 0.0
C546 C 0.4592 0.51164 0.57427 0.0
C547 C 0.52603 0.50346 0.56643 0.0
C548 C 0.55167 0.48961 0.54386 0.0
C549 C 0.48375 0.49559 0.55311 0.0
C550 C 0.5326 0.46424 0.50956 0.0
C551 C 0.49028 0.45572 0.49642 0.0
loop_
_geom_bond_atom_site_label_1
_geom_bond_atom_site_label_2
_geom_bond_distance
_geom_bond_site_symmetry_2
_ccdc_geom_bond_type
C0 O1 1.306 . S
C0 O3 1.160 . S
O1 C0 1.306 . S
O1 Cd2 2.228 1_554 S
Cd2 O1 2.228 1_556 S
Cd2 O6 2.273 1_556 S
Cd2 O10 2.277 1_556 S
O3 C0 1.160 . S
O3 Cd4 2.203 . S
Cd4 O3 2.203 . S
Cd4 O6 2.411 . S
Cd4 O7 2.333 . S
Cd4 O8 2.352 . S
Cd4 O12 2.277 . S
Cd4 O13 2.356 . S
C5 O10 1.209 1_655 S
C5 O12 1.226 1_655 S
O6 Cd2 2.273 1_554 S
O6 Cd4 2.411 . S
O6 C9 1.320 . S
O7 Cd4 2.333 . S
O7 C9 1.214 . S
O8 Cd4 2.352 . S
O8 C11 1.258 . S
C9 O6 1.320 . S
C9 O7 1.214 . S
O10 Cd2 2.277 1_554 S
O10 C5 1.209 1_455 S
C11 O8 1.258 . S
C11 O13 1.282 . S
O12 Cd4 2.277 . S
O12 C5 1.226 1_455 S
O13 Cd4 2.356 . S
O13 C11 1.282 . S
C14 O15 1.306 . S
C14 O17 1.160 . S
O15 C14 1.306 . S
O15 Cd16 2.228 1_554 S
Cd16 O15 2.228 1_556 S
Cd16 O20 2.273 1_556 S
Cd16 O24 2.277 1_556 S
O17 C14 1.160 . S
O17 Cd18 2.203 . S
Cd18 O17 2.203 . S
Cd18 O20 2.411 . S
Cd18 O21 2.333 . S
Cd18 O22 2.352 . S
Cd18 O26 2.277 . S
Cd18 O27 2.356 . S
C19 O24 1.209 . S
C19 O26 1.226 . S
O20 Cd16 2.273 1_554 S
O20 Cd18 2.411 . S
O20 C23 1.320 . S
O21 Cd18 2.333 . S
O21 C23 1.214 . S
O22 Cd18 2.352 . S
O22 C25 1.258 . S
C23 O20 1.320 . S
C23 O21 1.214 . S
O24 Cd16 2.277 1_554 S
O24 C19 1.209 . S
C25 O22 1.258 . S
C25 O27 1.282 . S
O26 Cd18 2.277 . S
O26 C19 1.226 . S
O27 Cd18 2.356 . S
O27 C25 1.282 . S
C28 O29 1.306 . S
C28 O31 1.160 . S
O29 C28 1.306 . S
O29 Cd30 2.228 1_554 S
Cd30 O29 2.228 1_556 S
Cd30 O34 2.273 1_556 S
Cd30 O38 2.277 1_556 S
O31 C28 1.160 . S
O31 Cd32 2.203 . S
Cd32 O31 2.203 . S
Cd32 O34 2.411 . S
Cd32 O35 2.333 . S
Cd32 O36 2.352 . S
Cd32 O40 2.277 . S
Cd32 O41 2.356 . S
C33 O38 1.209 1_545 S
C33 O40 1.226 1_545 S
O34 Cd30 2.273 1_554 S
O34 Cd32 2.411 . S
O34 C37 1.320 . S
O35 Cd32 2.333 . S
O35 C37 1.214 . S
O36 Cd32 2.352 . S
O36 C39 1.258 . S
C37 O34 1.320 . S
C37 O35 1.214 . S
O38 Cd30 2.277 1_554 S
O38 C33 1.209 1_565 S
C39 O36 1.258 . S
C39 O41 1.282 . S
O40 Cd32 2.277 . S
O40 C33 1.226 1_565 S
O41 Cd32 2.356 . S
O41 C39 1.282 . S
C42 O43 1.306 . S
C42 O45 1.160 . S
O43 C42 1.306 . S
O43 Cd44 2.228 . S
Cd44 O43 2.228 . S
Cd44 O48 2.273 . S
Cd44 O52 2.277 . S
O45 C42 1.160 . S
O45 Cd46 2.203 . S
Cd46 O45 2.203 . S
Cd46 O48 2.411 . S
Cd46 O49 2.333 . S
Cd46 O50 2.352 . S
Cd46 O54 2.277 . S
Cd46 O55 2.356 . S
C47 O52 1.209 1_545 S
C47 O54 1.226 1_545 S
O48 Cd44 2.273 . S
O48 Cd46 2.411 . S
O48 C51 1.320 . S
O49 Cd46 2.333 . S
O49 C51 1.214 . S
O50 Cd46 2.352 . S
O50 C53 1.258 . S
C51 O48 1.320 . S
C51 O49 1.214 . S
O52 Cd44 2.277 . S
O52 C47 1.209 1_565 S
C53 O50 1.258 . S
C53 O55 1.282 . S
O54 Cd46 2.277 . S
O54 C47 1.226 1_565 S
O55 Cd46 2.356 . S
O55 C53 1.282 . S
C56 O57 1.306 . S
C56 O59 1.160 . S
O57 C56 1.306 . S
O57 Cd58 2.228 . S
Cd58 O57 2.228 . S
Cd58 O62 2.273 . S
Cd58 O66 2.277 . S
O59 C56 1.160 . S
O59 Cd60 2.203 . S
Cd60 O59 2.203 . S
Cd60 O62 2.411 . S
Cd60 O63 2.333 . S
Cd60 O64 2.352 . S
Cd60 O68 2.277 . S
Cd60 O69 2.356 . S
C61 O66 1.209 1_655 S
C61 O68 1.226 1_655 S
O62 Cd58 2.273 . S
O62 Cd60 2.411 . S
O62 C65 1.320 . S
O63 Cd60 2.333 . S
O63 C65 1.214 . S
O64 Cd60 2.352 . S
O64 C67 1.258 . S
C65 O62 1.320 . S
C65 O63 1.214 . S
O66 Cd58 2.277 . S
O66 C61 1.209 1_455 S
C67 O64 1.258 . S
C67 O69 1.282 . S
O68 Cd60 2.277 . S
O68 C61 1.226 1_455 S
O69 Cd60 2.356 . S
O69 C67 1.282 . S
C70 O71 1.306 . S
C70 O73 1.160 . S
O71 C70 1.306 . S
O71 Cd72 2.228 . S
Cd72 O71 2.228 . S
Cd72 O76 2.273 . S
Cd72 O80 2.277 . S
O73 C70 1.160 . S
O73 Cd74 2.203 . S
Cd74 O73 2.203 . S
Cd74 O76 2.411 . S
Cd74 O77 2.333 . S
Cd74 O78 2.352 . S
Cd74 O82 2.277 . S
Cd74 O83 2.356 . S
C75 O80 1.209 . S
C75 O82 1.226 . S
O76 Cd72 2.273 . S
O76 Cd74 2.411 . S
O76 C79 1.320 . S
O77 Cd74 2.333 . S
O77 C79 1.214 . S
O78 Cd74 2.352 . S
O78 C81 1.258 . S
C79 O76 1.320 . S
C79 O77 1.214 . S
O80 Cd72 2.277 . S
O80 C75 1.209 . S
C81 O78 1.258 . S
C81 O83 1.282 . S
O82 Cd74 2.277 . S
O82 C75 1.226 . S
O83 Cd74 2.356 . S
O83 C81 1.282 . S
C84 O85 1.306 . S
C84 O87 1.160 . S
O85 C84 1.306 . S
O85 Cd86 2.228 1_556 S
Cd86 O85 2.228 1_554 S
Cd86 O90 2.273 1_554 S
Cd86 O94 2.277 1_554 S
O87 C84 1.160 . S
O87 Cd88 2.203 . S
Cd88 O87 2.203 . S
Cd88 O90 2.411 . S
Cd88 O91 2.333 . S
Cd88 O92 2.352 . S
Cd88 O96 2.277 . S
Cd88 O97 2.356 . S
C89 O94 1.209 1_455 S
C89 O96 1.226 1_455 S
O90 Cd86 2.273 1_556 S
O90 Cd88 2.411 . S
O90 C93 1.320 . S
O91 Cd88 2.333 . S
O91 C93 1.214 . S
O92 Cd88 2.352 . S
O92 C95 1.258 . S
C93 O90 1.320 . S
C93 O91 1.214 . S
O94 Cd86 2.277 1_556 S
O94 C89 1.209 1_655 S
C95 O92 1.258 . S
C95 O97 1.282 . S
O96 Cd88 2.277 . S
O96 C89 1.226 1_655 S
O97 Cd88 2.356 . S
O97 C95 1.282 . S
C98 O99 1.306 . S
C98 O101 1.160 . S
O99 C98 1.306 . S
O99 Cd100 2.228 1_556 S
Cd100 O99 2.228 1_554 S
Cd100 O104 2.273 1_554 S
Cd100 O108 2.277 1_554 S
O101 C98 1.160 . S
O101 Cd102 2.203 . S
Cd102 O101 2.203 . S
Cd102 O104 2.411 . S
Cd102 O105 2.333 . S
Cd102 O106 2.352 . S
Cd102 O110 2.277 . S
Cd102 O111 2.356 . S
C103 O108 1.209 . S
C103 O110 1.226 . S
O104 Cd100 2.273 1_556 S
O104 Cd102 2.411 . S
O104 C107 1.320 . S
O105 Cd102 2.333 . S
O105 C107 1.214 . S
O106 Cd102 2.352 . S
O106 C109 1.258 . S
C107 O104 1.320 . S
C107 O105 1.214 . S
O108 Cd100 2.277 1_556 S
O108 C103 1.209 . S
C109 O106 1.258 . S
C109 O111 1.282 . S
O110 Cd102 2.277 . S
O110 C103 1.226 . S
O111 Cd102 2.356 . S
O111 C109 1.282 . S
C112 O113 1.306 . S
C112 O115 1.160 . S
O113 C112 1.306 . S
O113 Cd114 2.228 1_556 S
Cd114 O113 2.228 1_554 S
Cd114 O118 2.273 1_554 S
Cd114 O122 2.277 1_554 S
O115 C112 1.160 . S
O115 Cd116 2.203 . S
Cd116 O115 2.203 . S
Cd116 O118 2.411 . S
Cd116 O119 2.333 . S
Cd116 O120 2.352 . S
Cd116 O124 2.277 . S
Cd116 O125 2.356 . S
C117 O122 1.209 1_565 S
C117 O124 1.226 1_565 S
O118 Cd114 2.273 1_556 S
O118 Cd116 2.411 . S
O118 C121 1.320 . S
O119 Cd116 2.333 . S
O119 C121 1.214 . S
O120 Cd116 2.352 . S
O120 C123 1.258 . S
C121 O118 1.320 . S
C121 O119 1.214 . S
O122 Cd114 2.277 1_556 S
O122 C117 1.209 1_545 S
C123 O120 1.258 . S
C123 O125 1.282 . S
O124 Cd116 2.277 . S
O124 C117 1.226 1_545 S
O125 Cd116 2.356 . S
O125 C123 1.282 . S
C126 O127 1.306 . S
C126 O129 1.160 . S
O127 C126 1.306 . S
O127 Cd128 2.228 . S
Cd128 O127 2.228 . S
Cd128 O132 2.273 . S
Cd128 O136 2.277 . S
O129 C126 1.160 . S
O129 Cd130 2.203 . S
Cd130 O129 2.203 . S
Cd130 O132 2.411 . S
Cd130 O133 2.333 . S
Cd130 O134 2.352 . S
Cd130 O138 2.277 . S
Cd130 O139 2.356 . S
C131 O136 1.209 1_565 S
C131 O138 1.226 1_565 S
O132 Cd128 2.273 . S
O132 Cd130 2.411 . S
O132 C135 1.320 . S
O133 Cd130 2.333 . S
O133 C135 1.214 . S
O134 Cd130 2.352 . S
O134 C137 1.258 . S
C135 O132 1.320 . S
C135 O133 1.214 . S
O136 Cd128 2.277 . S
O136 C131 1.209 1_545 S
C137 O134 1.258 . S
C137 O139 1.282 . S
O138 Cd130 2.277 . S
O138 C131 1.226 1_545 S
O139 Cd130 2.356 . S
O139 C137 1.282 . S
C140 O141 1.306 . S
C140 O143 1.160 . S
O141 C140 1.306 . S
O141 Cd142 2.228 . S
Cd142 O141 2.228 . S
Cd142 O146 2.273 . S
Cd142 O150 2.277 . S
O143 C140 1.160 . S
O143 Cd144 2.203 . S
Cd144 O143 2.203 . S
Cd144 O146 2.411 . S
Cd144 O147 2.333 . S
Cd144 O148 2.352 . S
Cd144 O152 2.277 . S
Cd144 O153 2.356 . S
C145 O150 1.209 1_455 S
C145 O152 1.226 1_455 S
O146 Cd142 2.273 . S
O146 Cd144 2.411 . S
O146 C149 1.320 . S
O147 Cd144 2.333 . S
O147 C149 1.214 . S
O148 Cd144 2.352 . S
O148 C151 1.258 . S
C149 O146 1.320 . S
C149 O147 1.214 . S
O150 Cd142 2.277 . S
O150 C145 1.209 1_655 S
C151 O148 1.258 . S
C151 O153 1.282 . S
O152 Cd144 2.277 . S
O152 C145 1.226 1_655 S
O153 Cd144 2.356 . S
O153 C151 1.282 . S
C154 O155 1.306 . S
C154 O157 1.160 . S
O155 C154 1.306 . S
O155 Cd156 2.228 . S
Cd156 O155 2.228 . S
Cd156 O160 2.273 . S
Cd156 O164 2.277 . S
O157 C154 1.160 . S
O157 Cd158 2.203 . S
Cd158 O157 2.203 . S
Cd158 O160 2.411 . S
Cd158 O161 2.333 . S
Cd158 O162 2.352 . S
Cd158 O166 2.277 . S
Cd158 O167 2.356 . S
C159 O164 1.209 . S
C159 O166 1.226 . S
O160 Cd156 2.273 . S
O160 Cd158 2.411 . S
O160 C163 1.320 . S
O161 Cd158 2.333 . S
O161 C163 1.214 . S
O162 Cd158 2.352 . S
O162 C165 1.258 . S
C163 O160 1.320 . S
C163 O161 1.214 . S
O164 Cd156 2.277 . S
O164 C159 1.209 . S
C165 O162 1.258 . S
C165 O167 1.282 . S
O166 Cd158 2.277 . S
O166 C159 1.226 . S
O167 Cd158 2.356 . S
O167 C165 1.282 . S
H168 C174 0.930 . S
H169 C177 0.930 . S
H170 C178 0.930 . S
H171 C179 0.930 . S
H172 C182 0.930 . S
H173 C183 0.930 . S
C174 H168 0.930 . S
C174 C175 1.355 1_556 S
C174 C176 1.415 . S
C175 C174 1.355 1_554 S
C175 C177 1.419 . S
C176 C174 1.415 . S
C176 C181 1.425 1_556 S
C176 C183 1.409 . S
C177 H169 0.930 . S
C177 C175 1.419 . S
C177 C178 1.362 . S
C178 H170 0.930 . S
C178 C177 1.362 . S
C178 C181 1.409 . S
C179 H171 0.930 . S
C179 C180 1.355 1_554 S
C179 C181 1.415 . S
C180 C179 1.355 1_556 S
C180 C182 1.419 . S
C181 C176 1.425 1_554 S
C181 C178 1.409 . S
C181 C179 1.415 . S
C182 H172 0.930 . S
C182 C180 1.419 . S
C182 C183 1.362 . S
C183 H173 0.930 . S
C183 C176 1.409 . S
C183 C182 1.362 . S
H184 C190 0.930 . S
H185 C193 0.930 . S
H186 C194 0.930 . S
H187 C195 0.930 . S
H188 C198 0.930 1_545 S
H189 C199 0.930 . S
C190 H184 0.930 . S
C190 C191 1.355 . S
C190 C192 1.415 . S
C191 C190 1.355 . S
C191 C193 1.419 1_554 S
C192 C190 1.415 . S
C192 C197 1.425 1_554 S
C192 C199 1.409 . S
C193 H185 0.930 . S
C193 C191 1.419 1_556 S
C193 C194 1.362 . S
C194 H186 0.930 . S
C194 C193 1.362 . S
C194 C197 1.409 . S
C195 H187 0.930 . S
C195 C196 1.355 . S
C195 C197 1.415 . S
C196 C195 1.355 . S
C196 C198 1.419 1_556 S
C197 C192 1.425 1_556 S
C197 C194 1.409 . S
C197 C195 1.415 . S
C198 H188 0.930 1_565 S
C198 C196 1.419 1_554 S
C198 C199 1.362 . S
C199 H189 0.930 . S
C199 C192 1.409 . S
C199 C198 1.362 . S
H200 C206 0.930 . S
H201 C209 0.930 . S
H202 C210 0.930 . S
H203 C211 0.930 . S
H204 C214 0.930 1_655 S
H205 C215 0.930 . S
C206 H200 0.930 . S
C206 C207 1.355 . S
C206 C208 1.415 . S
C207 C206 1.355 . S
C207 C209 1.419 1_554 S
C208 C206 1.415 . S
C208 C213 1.425 1_554 S
C208 C215 1.409 . S
C209 H201 0.930 . S
C209 C207 1.419 1_556 S
C209 C210 1.362 . S
C210 H202 0.930 . S
C210 C209 1.362 . S
C210 C213 1.409 . S
C211 H203 0.930 . S
C211 C212 1.355 . S
C211 C213 1.415 . S
C212 C211 1.355 . S
C212 C214 1.419 1_556 S
C213 C208 1.425 1_556 S
C213 C210 1.409 . S
C213 C211 1.415 . S
C214 H204 0.930 1_455 S
C214 C212 1.419 1_554 S
C214 C215 1.362 . S
C215 H205 0.930 . S
C215 C208 1.409 . S
C215 C214 1.362 . S
H216 C222 0.930 . S
H217 C225 0.930 . S
H218 C226 0.930 . S
H219 C227 0.930 . S
H220 C230 0.930 . S
H221 C231 0.930 . S
C222 H216 0.930 . S
C222 C223 1.355 . S
C222 C224 1.415 . S
C223 C222 1.355 . S
C223 C225 1.419 . S
C224 C222 1.415 . S
C224 C229 1.425 . S
C224 C231 1.409 . S
C225 H217 0.930 . S
C225 C223 1.419 . S
C225 C226 1.362 . S
C226 H218 0.930 . S
C226 C225 1.362 . S
C226 C229 1.409 . S
C227 H219 0.930 . S
C227 C228 1.355 . S
C227 C229 1.415 . S
C228 C227 1.355 . S
C228 C230 1.419 . S
C229 C224 1.425 . S
C229 C226 1.409 . S
C229 C227 1.415 . S
C230 H220 0.930 . S
C230 C228 1.419 . S
C230 C231 1.362 . S
C231 H221 0.930 . S
C231 C224 1.409 . S
C231 C230 1.362 . S
H232 C238 0.930 . S
H233 C241 0.930 . S
H234 C242 0.930 . S
H235 C243 0.930 . S
H236 C246 0.930 1_545 S
H237 C247 0.930 . S
C238 H232 0.930 . S
C238 C239 1.355 . S
C238 C240 1.415 . S
C239 C238 1.355 . S
C239 C241 1.419 . S
C240 C238 1.415 . S
C240 C245 1.425 . S
C240 C247 1.409 . S
C241 H233 0.930 . S
C241 C239 1.419 . S
C241 C242 1.362 . S
C242 H234 0.930 . S
C242 C241 1.362 . S
C242 C245 1.409 . S
C243 H235 0.930 . S
C243 C244 1.355 . S
C243 C245 1.415 . S
C244 C243 1.355 . S
C244 C246 1.419 . S
C245 C240 1.425 . S
C245 C242 1.409 . S
C245 C243 1.415 . S
C246 H236 0.930 1_565 S
C246 C244 1.419 . S
C246 C247 1.362 . S
C247 H237 0.930 . S
C247 C240 1.409 . S
C247 C246 1.362 . S
H248 C254 0.930 . S
H249 C257 0.930 . S
H250 C258 0.930 . S
H251 C259 0.930 . S
H252 C262 0.930 . S
H253 C263 0.930 . S
C254 H248 0.930 . S
C254 C255 1.355 . S
C254 C256 1.415 . S
C255 C254 1.355 . S
C255 C257 1.419 . S
C256 C254 1.415 . S
C256 C261 1.425 . S
C256 C263 1.409 . S
C257 H249 0.930 . S
C257 C255 1.419 . S
C257 C258 1.362 . S
C258 H250 0.930 . S
C258 C257 1.362 . S
C258 C261 1.409 . S
C259 H251 0.930 . S
C259 C260 1.355 . S
C259 C261 1.415 . S
C260 C259 1.355 . S
C260 C262 1.419 . S
C261 C256 1.425 . S
C261 C258 1.409 . S
C261 C259 1.415 . S
C262 H252 0.930 . S
C262 C260 1.419 . S
C262 C263 1.362 . S
C263 H253 0.930 . S
C263 C256 1.409 . S
C263 C262 1.362 . S
H264 C270 0.930 . S
H265 C273 0.930 . S
H266 C274 0.930 . S
H267 C275 0.930 . S
H268 C278 0.930 . S
H269 C279 0.930 . S
C270 H264 0.930 . S
C270 C271 1.355 . S
C270 C272 1.415 . S
C271 C270 1.355 . S
C271 C273 1.419 1_554 S
C272 C270 1.415 . S
C272 C277 1.425 1_554 S
C272 C279 1.409 . S
C273 H265 0.930 . S
C273 C271 1.419 1_556 S
C273 C274 1.362 . S
C274 H266 0.930 . S
C274 C273 1.362 . S
C274 C277 1.409 . S
C275 H267 0.930 . S
C275 C276 1.355 . S
C275 C277 1.415 . S
C276 C275 1.355 . S
C276 C278 1.419 1_556 S
C277 C272 1.425 1_556 S
C277 C274 1.409 . S
C277 C275 1.415 . S
C278 H268 0.930 . S
C278 C276 1.419 1_554 S
C278 C279 1.362 . S
C279 H269 0.930 . S
C279 C272 1.409 . S
C279 C278 1.362 . S
H280 C286 0.930 . S
H281 C289 0.930 . S
H282 C290 0.930 . S
H283 C291 0.930 . S
H284 C294 0.930 . S
H285 C295 0.930 . S
C286 H280 0.930 . S
C286 C287 1.355 . S
C286 C288 1.415 . S
C287 C286 1.355 . S
C287 C289 1.419 1_556 S
C288 C286 1.415 . S
C288 C293 1.425 1_556 S
C288 C295 1.409 . S
C289 H281 0.930 . S
C289 C287 1.419 1_554 S
C289 C290 1.362 . S
C290 H282 0.930 . S
C290 C289 1.362 . S
C290 C293 1.409 . S
C291 H283 0.930 . S
C291 C292 1.355 . S
C291 C293 1.415 . S
C292 C291 1.355 . S
C292 C294 1.419 1_554 S
C293 C288 1.425 1_554 S
C293 C290 1.409 . S
C293 C291 1.415 . S
C294 H284 0.930 . S
C294 C292 1.419 1_556 S
C294 C295 1.362 . S
C295 H285 0.930 . S
C295 C288 1.409 . S
C295 C294 1.362 . S
H296 C302 0.929 . S
H297 C305 0.930 . S
H298 C306 0.930 . S
H299 C307 0.930 . S
H300 C310 0.930 . S
H301 C311 0.930 . S
C302 H296 0.929 . S
C302 C303 1.356 1_556 S
C302 C304 1.414 . S
C303 C302 1.356 1_554 S
C303 C305 1.419 . S
C304 C302 1.414 . S
C304 C309 1.425 1_556 S
C304 C311 1.409 . S
C305 H297 0.930 . S
C305 C303 1.419 . S
C305 C306 1.362 . S
C306 H298 0.930 . S
C306 C305 1.362 . S
C306 C309 1.409 . S
C307 H299 0.930 . S
C307 C308 1.355 1_554 S
C307 C309 1.415 . S
C308 C307 1.355 1_556 S
C308 C310 1.419 . S
C309 C304 1.425 1_554 S
C309 C306 1.409 . S
C309 C307 1.415 . S
C310 H300 0.930 . S
C310 C308 1.419 . S
C310 C311 1.362 . S
C311 H301 0.930 . S
C311 C304 1.409 . S
C311 C310 1.362 . S
H312 C318 0.930 . S
H313 C321 0.930 . S
H314 C322 0.930 . S
H315 C323 0.930 . S
H316 C326 0.930 . S
H317 C327 0.930 . S
C318 H312 0.930 . S
C318 C319 1.355 . S
C318 C320 1.415 . S
C319 C318 1.355 . S
C319 C321 1.419 . S
C320 C318 1.415 . S
C320 C325 1.425 . S
C320 C327 1.409 . S
C321 H313 0.930 . S
C321 C319 1.419 . S
C321 C322 1.362 . S
C322 H314 0.930 . S
C322 C321 1.362 . S
C322 C325 1.409 . S
C323 H315 0.930 . S
C323 C324 1.355 . S
C323 C325 1.415 . S
C324 C323 1.355 . S
C324 C326 1.419 . S
C325 C320 1.425 . S
C325 C322 1.409 . S
C325 C323 1.415 . S
C326 H316 0.930 . S
C326 C324 1.419 . S
C326 C327 1.362 . S
C327 H317 0.930 . S
C327 C320 1.409 . S
C327 C326 1.362 . S
H328 C334 0.930 . S
H329 C337 0.930 . S
H330 C338 0.930 . S
H331 C339 0.930 . S
H332 C342 0.930 . S
H333 C343 0.930 . S
C334 H328 0.930 . S
C334 C335 1.355 . S
C334 C336 1.415 . S
C335 C334 1.355 . S
C335 C337 1.419 . S
C336 C334 1.415 . S
C336 C341 1.425 . S
C336 C343 1.409 . S
C337 H329 0.930 . S
C337 C335 1.419 . S
C337 C338 1.362 . S
C338 H330 0.930 . S
C338 C337 1.362 . S
C338 C341 1.409 . S
C339 H331 0.930 . S
C339 C340 1.355 . S
C339 C341 1.415 . S
C340 C339 1.355 . S
C340 C342 1.419 . S
C341 C336 1.425 . S
C341 C338 1.409 . S
C341 C339 1.415 . S
C342 H332 0.930 . S
C342 C340 1.419 . S
C342 C343 1.362 . S
C343 H333 0.930 . S
C343 C336 1.409 . S
C343 C342 1.362 . S
H344 C350 0.930 . S
H345 C353 0.930 . S
H346 C354 0.930 . S
H347 C355 0.930 . S
H348 C358 0.930 . S
H349 C359 0.930 . S
C350 H344 0.930 . S
C350 C351 1.355 . S
C350 C352 1.415 . S
C351 C350 1.355 . S
C351 C353 1.419 . S
C352 C350 1.415 . S
C352 C357 1.425 . S
C352 C359 1.409 . S
C353 H345 0.930 . S
C353 C351 1.419 . S
C353 C354 1.362 . S
C354 H346 0.930 . S
C354 C353 1.362 . S
C354 C357 1.409 . S
C355 H347 0.930 . S
C355 C356 1.355 . S
C355 C357 1.415 . S
C356 C355 1.355 . S
C356 C358 1.419 . S
C357 C352 1.425 . S
C357 C354 1.409 . S
C357 C355 1.415 . S
C358 H348 0.930 . S
C358 C356 1.419 . S
C358 C359 1.362 . S
C359 H349 0.930 . S
C359 C352 1.409 . S
C359 C358 1.362 . S
H360 C366 0.930 . S
H361 C369 0.930 . S
H362 C370 0.930 . S
H363 C371 0.930 . S
H364 C374 0.930 . S
H365 C375 0.930 . S
C366 H360 0.930 . S
C366 C367 1.355 . S
C366 C368 1.415 . S
C367 C366 1.355 . S
C367 C369 1.419 . S
C368 C366 1.415 . S
C368 C373 1.425 . S
C368 C375 1.409 . S
C369 H361 0.930 . S
C369 C367 1.419 . S
C369 C370 1.362 . S
C370 H362 0.930 . S
C370 C369 1.362 . S
C370 C373 1.409 . S
C371 H363 0.930 . S
C371 C372 1.355 . S
C371 C373 1.415 . S
C372 C371 1.355 . S
C372 C374 1.419 . S
C373 C368 1.425 . S
C373 C370 1.409 . S
C373 C371 1.415 . S
C374 H364 0.930 . S
C374 C372 1.419 . S
C374 C375 1.362 . S
C375 H365 0.930 . S
C375 C368 1.409 . S
C375 C374 1.362 . S
H376 C382 0.930 . S
H377 C385 0.930 . S
H378 C386 0.930 . S
H379 C387 0.930 . S
H380 C390 0.930 . S
H381 C391 0.930 . S
C382 H376 0.930 . S
C382 C383 1.355 . S
C382 C384 1.415 . S
C383 C382 1.355 . S
C383 C385 1.419 . S
C384 C382 1.415 . S
C384 C389 1.425 . S
C384 C391 1.409 . S
C385 H377 0.930 . S
C385 C383 1.419 . S
C385 C386 1.362 . S
C386 H378 0.930 . S
C386 C385 1.362 . S
C386 C389 1.409 . S
C387 H379 0.930 . S
C387 C388 1.355 . S
C387 C389 1.415 . S
C388 C387 1.355 . S
C388 C390 1.419 . S
C389 C384 1.425 . S
C389 C386 1.409 . S
C389 C387 1.415 . S
C390 H380 0.930 . S
C390 C388 1.419 . S
C390 C391 1.362 . S
C391 H381 0.930 . S
C391 C384 1.409 . S
C391 C390 1.362 . S
H392 C398 0.930 . S
H393 C401 0.930 . S
H394 C402 0.930 . S
H395 C403 0.930 . S
H396 C406 0.930 . S
H397 C407 0.930 . S
C398 H392 0.930 . S
C398 C399 1.355 . S
C398 C400 1.415 . S
C399 C398 1.355 . S
C399 C401 1.419 . S
C400 C398 1.415 . S
C400 C405 1.425 . S
C400 C407 1.409 . S
C401 H393 0.930 . S
C401 C399 1.419 . S
C401 C402 1.362 . S
C402 H394 0.930 . S
C402 C401 1.362 . S
C402 C405 1.409 . S
C403 H395 0.930 . S
C403 C404 1.355 . S
C403 C405 1.415 . S
C404 C403 1.355 . S
C404 C406 1.419 . S
C405 C400 1.425 . S
C405 C402 1.409 . S
C405 C403 1.415 . S
C406 H396 0.930 . S
C406 C404 1.419 . S
C406 C407 1.362 . S
C407 H397 0.930 . S
C407 C400 1.409 . S
C407 C406 1.362 . S
H408 C414 0.930 . S
H409 C417 0.930 . S
H410 C418 0.930 . S
H411 C419 0.930 . S
H412 C422 0.930 . S
H413 C423 0.930 . S
C414 H408 0.930 . S
C414 C415 1.355 . S
C414 C416 1.415 . S
C415 C414 1.355 . S
C415 C417 1.419 . S
C416 C414 1.415 . S
C416 C421 1.425 . S
C416 C423 1.409 . S
C417 H409 0.930 . S
C417 C415 1.419 . S
C417 C418 1.362 . S
C418 H410 0.930 . S
C418 C417 1.362 . S
C418 C421 1.409 . S
C419 H411 0.930 . S
C419 C420 1.355 . S
C419 C421 1.415 . S
C420 C419 1.355 . S
C420 C422 1.419 . S
C421 C416 1.425 . S
C421 C418 1.409 . S
C421 C419 1.415 . S
C422 H412 0.930 . S
C422 C420 1.419 . S
C422 C423 1.362 . S
C423 H413 0.930 . S
C423 C416 1.409 . S
C423 C422 1.362 . S
H424 C430 0.930 . S
H425 C433 0.930 . S
H426 C434 0.930 . S
H427 C435 0.930 . S
H428 C438 0.930 . S
H429 C439 0.930 . S
C430 H424 0.930 . S
C430 C431 1.355 . S
C430 C432 1.415 . S
C431 C430 1.355 . S
C431 C433 1.419 . S
C432 C430 1.415 . S
C432 C437 1.425 . S
C432 C439 1.409 . S
C433 H425 0.930 . S
C433 C431 1.419 . S
C433 C434 1.362 . S
C434 H426 0.930 . S
C434 C433 1.362 . S
C434 C437 1.409 . S
C435 H427 0.930 . S
C435 C436 1.355 . S
C435 C437 1.415 . S
C436 C435 1.355 . S
C436 C438 1.419 . S
C437 C432 1.425 . S
C437 C434 1.409 . S
C437 C435 1.415 . S
C438 H428 0.930 . S
C438 C436 1.419 . S
C438 C439 1.362 . S
C439 H429 0.930 . S
C439 C432 1.409 . S
C439 C438 1.362 . S
H440 C446 0.930 . S
H441 C449 0.930 . S
H442 C450 0.930 . S
H443 C451 0.930 . S
H444 C454 0.930 . S
H445 C455 0.930 . S
C446 H440 0.930 . S
C446 C447 1.355 . S
C446 C448 1.415 . S
C447 C446 1.355 . S
C447 C449 1.419 . S
C448 C446 1.415 . S
C448 C453 1.425 . S
C448 C455 1.409 . S
C449 H441 0.930 . S
C449 C447 1.419 . S
C449 C450 1.362 . S
C450 H442 0.930 . S
C450 C449 1.362 . S
C450 C453 1.409 . S
C451 H443 0.930 . S
C451 C452 1.355 . S
C451 C453 1.415 . S
C452 C451 1.355 . S
C452 C454 1.419 . S
C453 C448 1.425 . S
C453 C450 1.409 . S
C453 C451 1.415 . S
C454 H444 0.930 . S
C454 C452 1.419 . S
C454 C455 1.362 . S
C455 H445 0.930 . S
C455 C448 1.409 . S
C455 C454 1.362 . S
H456 C462 0.930 1_655 S
H457 C465 0.930 . S
H458 C466 0.930 . S
H459 C467 0.930 1_455 S
H460 C470 0.930 . S
H461 C471 0.930 . S
C462 H456 0.930 1_455 S
C462 C463 1.355 . S
C462 C464 1.415 1_455 S
C463 C462 1.355 . S
C463 C465 1.419 1_554 S
C464 C462 1.415 1_655 S
C464 C469 1.425 1_654 S
C464 C471 1.409 . S
C465 H457 0.930 . S
C465 C463 1.419 1_556 S
C465 C466 1.362 . S
C466 H458 0.930 . S
C466 C465 1.362 . S
C466 C469 1.409 . S
C467 H459 0.930 1_655 S
C467 C468 1.355 . S
C467 C469 1.415 1_655 S
C468 C467 1.355 . S
C468 C470 1.419 1_556 S
C469 C464 1.425 1_456 S
C469 C466 1.409 . S
C469 C467 1.415 1_455 S
C470 H460 0.930 . S
C470 C468 1.419 1_554 S
C470 C471 1.362 . S
C471 H461 0.930 . S
C471 C464 1.409 . S
C471 C470 1.362 . S
H472 C478 0.930 . S
H473 C481 0.930 . S
H474 C482 0.930 . S
H475 C483 0.930 . S
H476 C486 0.930 . S
H477 C487 0.930 . S
C478 H472 0.930 . S
C478 C479 1.355 . S
C478 C480 1.415 1_554 S
C479 C478 1.355 . S
C479 C481 1.419 . S
C480 C478 1.415 1_556 S
C480 C485 1.425 1_556 S
C480 C487 1.409 . S
C481 H473 0.930 . S
C481 C479 1.419 . S
C481 C482 1.362 . S
C482 H474 0.930 . S
C482 C481 1.362 . S
C482 C485 1.409 . S
C483 H475 0.930 . S
C483 C484 1.355 . S
C483 C485 1.415 1_556 S
C484 C483 1.355 . S
C484 C486 1.419 . S
C485 C480 1.425 1_554 S
C485 C482 1.409 . S
C485 C483 1.415 1_554 S
C486 H476 0.930 . S
C486 C484 1.419 . S
C486 C487 1.362 . S
C487 H477 0.930 . S
C487 C480 1.409 . S
C487 C486 1.362 . S
H488 C494 0.930 . S
H489 C497 0.930 . S
H490 C498 0.930 . S
H491 C499 0.930 . S
H492 C502 0.930 . S
H493 C503 0.930 . S
C494 H488 0.930 . S
C494 C495 1.355 . S
C494 C496 1.415 1_554 S
C495 C494 1.355 . S
C495 C497 1.419 1_565 S
C496 C494 1.415 1_556 S
C496 C501 1.425 1_566 S
C496 C503 1.409 . S
C497 H489 0.930 . S
C497 C495 1.419 1_545 S
C497 C498 1.362 . S
C498 H490 0.930 . S
C498 C497 1.362 . S
C498 C501 1.409 . S
C499 H491 0.930 . S
C499 C500 1.355 . S
C499 C501 1.415 1_556 S
C500 C499 1.355 . S
C500 C502 1.419 1_545 S
C501 C496 1.425 1_544 S
C501 C498 1.409 . S
C501 C499 1.415 1_554 S
C502 H492 0.930 . S
C502 C500 1.419 1_565 S
C502 C503 1.362 . S
C503 H493 0.930 . S
C503 C496 1.409 . S
C503 C502 1.362 . S
H504 C510 0.930 . S
H505 C513 0.930 . S
H506 C514 0.930 . S
H507 C515 0.930 . S
H508 C518 0.930 . S
H509 C519 0.930 . S
C510 H504 0.930 . S
C510 C511 1.355 . S
C510 C512 1.422 . S
C511 C510 1.355 . S
C511 C513 1.419 . S
C512 C510 1.422 . S
C512 C517 1.428 1_565 S
C512 C519 1.400 1_565 S
C513 H505 0.930 . S
C513 C511 1.419 . S
C513 C514 1.362 . S
C514 H506 0.930 . S
C514 C513 1.362 . S
C514 C517 1.400 1_565 S
C515 H507 0.930 . S
C515 C516 1.355 . S
C515 C517 1.422 . S
C516 C515 1.355 . S
C516 C518 1.419 . S
C517 C512 1.428 1_545 S
C517 C514 1.400 1_545 S
C517 C515 1.422 . S
C518 H508 0.930 . S
C518 C516 1.419 . S
C518 C519 1.362 . S
C519 H509 0.930 . S
C519 C512 1.400 1_545 S
C519 C518 1.362 . S
H520 C526 0.930 . S
H521 C529 0.930 . S
H522 C530 0.930 . S
H523 C531 0.930 . S
H524 C534 0.930 . S
H525 C535 0.930 . S
C526 H520 0.930 . S
C526 C527 1.355 . S
C526 C528 1.415 . S
C527 C526 1.355 . S
C527 C529 1.419 1_655 S
C528 C526 1.415 . S
C528 C533 1.425 1_655 S
C528 C535 1.409 . S
C529 H521 0.930 . S
C529 C527 1.419 1_455 S
C529 C530 1.362 . S
C530 H522 0.930 . S
C530 C529 1.362 . S
C530 C533 1.409 . S
C531 H523 0.930 . S
C531 C532 1.355 . S
C531 C533 1.415 . S
C532 C531 1.355 . S
C532 C534 1.419 1_455 S
C533 C528 1.425 1_455 S
C533 C530 1.409 . S
C533 C531 1.415 . S
C534 H524 0.930 . S
C534 C532 1.419 1_655 S
C534 C535 1.362 . S
C535 H525 0.930 . S
C535 C528 1.409 . S
C535 C534 1.362 . S
H536 C542 0.930 . S
H537 C545 0.930 . S
H538 C546 0.930 . S
H539 C547 0.930 . S
H540 C550 0.930 . S
H541 C551 0.930 . S
C542 H536 0.930 . S
C542 C543 1.355 . S
C542 C544 1.415 . S
C543 C542 1.355 . S
C543 C545 1.419 . S
C544 C542 1.415 . S
C544 C549 1.425 . S
C544 C551 1.409 . S
C545 H537 0.930 . S
C545 C543 1.419 . S
C545 C546 1.362 . S
C546 H538 0.930 . S
C546 C545 1.362 . S
C546 C549 1.409 . S
C547 H539 0.930 . S
C547 C548 1.355 . S
C547 C549 1.415 . S
C548 C547 1.355 . S
C548 C550 1.419 . S
C549 C544 1.425 . S
C549 C546 1.409 . S
C549 C547 1.415 . S
C550 H540 0.930 . S
C550 C548 1.419 . S
C550 C551 1.362 . S
C551 H541 0.930 . S
C551 C544 1.409 . S
C551 C550 1.362 . S
C175 C9 0.829 . S
C180 C103 0.861 . S
C191 C23 0.896 . S
C196 C117 0.874 . S
C207 C37 0.897 . S
C212 C89 0.873 . S
C223 C159 0.852 . S
C228 C51 0.840 . S
C239 C65 0.873 . S
C244 C131 0.882 . S
C255 C145 0.877 . S
C260 C79 0.844 . S
C271 C19 0.861 . S
C276 C93 0.891 . S
C287 C107 0.880 . S
C292 C33 0.855 . S
C303 C5 0.871 . S
C308 C121 0.834 . S
C319 C135 0.896 . S
C324 C75 0.868 . S
C335 C149 0.861 . S
C340 C47 0.851 . S
C351 C61 0.855 . S
C356 C163 0.835 . S
C367 C81 1.603 . S
C372 C11 1.569 . S
C383 C25 1.622 . S
C388 C53 1.608 . S
C399 C39 1.623 . S
C404 C67 1.599 . S
C415 C95 1.583 . S
C420 C165 1.565 . S
C431 C109 1.583 . S
C436 C137 1.617 . S
C447 C123 1.581 . S
C452 C151 1.565 . S
C463 C0 1.581 . S
C468 C84 1.581 . S
C479 C14 1.622 . S
C484 C98 1.622 . S
C495 C28 1.620 . S
C500 C112 1.620 . S
C511 C42 1.571 . S
C516 C126 1.571 . S
C527 C140 1.594 . S
C532 C56 1.594 . S
C543 C70 1.574 . S
C548 C154 1.574 . S
