# Generated by pormake.
# Topology uos, (4)-cn, num edge types: 1
# Building blocks:
#     Node 0, Type 0, BuildingBlock: QUQFOY_clean_sbu_1, # of connection points: 4
#     Node 1, Type 0, BuildingBlock: QUQFOY_clean_sbu_1, # of connection points: 4
#     Node 2, Type 0, BuildingBlock: QUQFOY_clean_sbu_1, # of connection points: 4
#     Node 3, Type 0, BuildingBlock: QUQFOY_clean_sbu_1, # of connection points: 4
#     Node 4, Type 0, BuildingBlock: QUQFOY_clean_sbu_1, # of connection points: 4
#     Node 5, Type 0, BuildingBlock: QUQFOY_clean_sbu_1, # of connection points: 4
#     Node 6, Type 0, BuildingBlock: QUQFOY_clean_sbu_1, # of connection points: 4
#     Node 7, Type 0, BuildingBlock: QUQFOY_clean_sbu_1, # of connection points: 4
#     Node 8, Type 0, BuildingBlock: QUQFOY_clean_sbu_1, # of connection points: 4
#     Node 9, Type 0, BuildingBlock: QUQFOY_clean_sbu_1, # of connection points: 4
#     Node 10, Type 0, BuildingBlock: QUQFOY_clean_sbu_1, # of connection points: 4
#     Node 11, Type 0, BuildingBlock: QUQFOY_clean_sbu_1, # of connection points: 4
#     Node 12, Type 0, BuildingBlock: QUQFOY_clean_sbu_1, # of connection points: 4
#     Node 13, Type 0, BuildingBlock: QUQFOY_clean_sbu_1, # of connection points: 4
#     Node 14, Type 0, BuildingBlock: QUQFOY_clean_sbu_1, # of connection points: 4
#     Node 15, Type 0, BuildingBlock: QUQFOY_clean_sbu_1, # of connection points: 4
#     Node 16, Type 0, BuildingBlock: QUQFOY_clean_sbu_1, # of connection points: 4
#     Node 17, Type 0, BuildingBlock: QUQFOY_clean_sbu_1, # of connection points: 4
#     Node 18, Type 0, BuildingBlock: QUQFOY_clean_sbu_1, # of connection points: 4
#     Node 19, Type 0, BuildingBlock: QUQFOY_clean_sbu_1, # of connection points: 4
#     Node 20, Type 0, BuildingBlock: QUQFOY_clean_sbu_1, # of connection points: 4
#     Node 21, Type 0, BuildingBlock: QUQFOY_clean_sbu_1, # of connection points: 4
#     Node 22, Type 0, BuildingBlock: QUQFOY_clean_sbu_1, # of connection points: 4
#     Node 23, Type 0, BuildingBlock: QUQFOY_clean_sbu_1, # of connection points: 4
#     Node 24, Type 0, BuildingBlock: QUQFOY_clean_sbu_1, # of connection points: 4
#     Node 25, Type 0, BuildingBlock: QUQFOY_clean_sbu_1, # of connection points: 4
#     Node 26, Type 0, BuildingBlock: QUQFOY_clean_sbu_1, # of connection points: 4
#     Node 27, Type 0, BuildingBlock: QUQFOY_clean_sbu_1, # of connection points: 4
#     Node 28, Type 0, BuildingBlock: QUQFOY_clean_sbu_1, # of connection points: 4
#     Node 29, Type 0, BuildingBlock: QUQFOY_clean_sbu_1, # of connection points: 4
#     Node 30, Type 0, BuildingBlock: QUQFOY_clean_sbu_1, # of connection points: 4
#     Node 31, Type 0, BuildingBlock: QUQFOY_clean_sbu_1, # of connection points: 4
#     Edge 32, Type (0, 0), BuildingBlock: MIFKUJ_clean_linker_0, # of connection points: 2
#     Edge 33, Type (0, 0), BuildingBlock: MIFKUJ_clean_linker_0, # of connection points: 2
#     Edge 34, Type (0, 0), BuildingBlock: MIFKUJ_clean_linker_0, # of connection points: 2
#     Edge 35, Type (0, 0), BuildingBlock: MIFKUJ_clean_linker_0, # of connection points: 2
#     Edge 36, Type (0, 0), BuildingBlock: MIFKUJ_clean_linker_0, # of connection points: 2
#     Edge 37, Type (0, 0), BuildingBlock: MIFKUJ_clean_linker_0, # of connection points: 2
#     Edge 38, Type (0, 0), BuildingBlock: MIFKUJ_clean_linker_0, # of connection points: 2
#     Edge 39, Type (0, 0), BuildingBlock: MIFKUJ_clean_linker_0, # of connection points: 2
#     Edge 40, Type (0, 0), BuildingBlock: MIFKUJ_clean_linker_0, # of connection points: 2
#     Edge 41, Type (0, 0), BuildingBlock: MIFKUJ_clean_linker_0, # of connection points: 2
#     Edge 42, Type (0, 0), BuildingBlock: MIFKUJ_clean_linker_0, # of connection points: 2
#     Edge 43, Type (0, 0), BuildingBlock: MIFKUJ_clean_linker_0, # of connection points: 2
#     Edge 44, Type (0, 0), BuildingBlock: MIFKUJ_clean_linker_0, # of connection points: 2
#     Edge 45, Type (0, 0), BuildingBlock: MIFKUJ_clean_linker_0, # of connection points: 2
#     Edge 46, Type (0, 0), BuildingBlock: MIFKUJ_clean_linker_0, # of connection points: 2
#     Edge 47, Type (0, 0), BuildingBlock: MIFKUJ_clean_linker_0, # of connection points: 2
#     Edge 48, Type (0, 0), BuildingBlock: MIFKUJ_clean_linker_0, # of connection points: 2
#     Edge 49, Type (0, 0), BuildingBlock: MIFKUJ_clean_linker_0, # of connection points: 2
#     Edge 50, Type (0, 0), BuildingBlock: MIFKUJ_clean_linker_0, # of connection points: 2
#     Edge 51, Type (0, 0), BuildingBlock: MIFKUJ_clean_linker_0, # of connection points: 2
#     Edge 52, Type (0, 0), BuildingBlock: MIFKUJ_clean_linker_0, # of connection points: 2
#     Edge 53, Type (0, 0), BuildingBlock: MIFKUJ_clean_linker_0, # of connection points: 2
#     Edge 54, Type (0, 0), BuildingBlock: MIFKUJ_clean_linker_0, # of connection points: 2
#     Edge 55, Type (0, 0), BuildingBlock: MIFKUJ_clean_linker_0, # of connection points: 2
#     Edge 56, Type (0, 0), BuildingBlock: MIFKUJ_clean_linker_0, # of connection points: 2
#     Edge 57, Type (0, 0), BuildingBlock: MIFKUJ_clean_linker_0, # of connection points: 2
#     Edge 58, Type (0, 0), BuildingBlock: MIFKUJ_clean_linker_0, # of connection points: 2
#     Edge 59, Type (0, 0), BuildingBlock: MIFKUJ_clean_linker_0, # of connection points: 2
#     Edge 60, Type (0, 0), BuildingBlock: MIFKUJ_clean_linker_0, # of connection points: 2
#     Edge 61, Type (0, 0), BuildingBlock: MIFKUJ_clean_linker_0, # of connection points: 2
#     Edge 62, Type (0, 0), BuildingBlock: MIFKUJ_clean_linker_0, # of connection points: 2
#     Edge 63, Type (0, 0), BuildingBlock: MIFKUJ_clean_linker_0, # of connection points: 2
#     Edge 64, Type (0, 0), BuildingBlock: MIFKUJ_clean_linker_0, # of connection points: 2
#     Edge 65, Type (0, 0), BuildingBlock: MIFKUJ_clean_linker_0, # of connection points: 2
#     Edge 66, Type (0, 0), BuildingBlock: MIFKUJ_clean_linker_0, # of connection points: 2
#     Edge 67, Type (0, 0), BuildingBlock: MIFKUJ_clean_linker_0, # of connection points: 2
#     Edge 68, Type (0, 0), BuildingBlock: MIFKUJ_clean_linker_0, # of connection points: 2
#     Edge 69, Type (0, 0), BuildingBlock: MIFKUJ_clean_linker_0, # of connection points: 2
#     Edge 70, Type (0, 0), BuildingBlock: MIFKUJ_clean_linker_0, # of connection points: 2
#     Edge 71, Type (0, 0), BuildingBlock: MIFKUJ_clean_linker_0, # of connection points: 2
#     Edge 72, Type (0, 0), BuildingBlock: MIFKUJ_clean_linker_0, # of connection points: 2
#     Edge 73, Type (0, 0), BuildingBlock: MIFKUJ_clean_linker_0, # of connection points: 2
#     Edge 74, Type (0, 0), BuildingBlock: MIFKUJ_clean_linker_0, # of connection points: 2
#     Edge 75, Type (0, 0), BuildingBlock: MIFKUJ_clean_linker_0, # of connection points: 2
#     Edge 76, Type (0, 0), BuildingBlock: MIFKUJ_clean_linker_0, # of connection points: 2
#     Edge 77, Type (0, 0), BuildingBlock: MIFKUJ_clean_linker_0, # of connection points: 2
#     Edge 78, Type (0, 0), BuildingBlock: MIFKUJ_clean_linker_0, # of connection points: 2
#     Edge 79, Type (0, 0), BuildingBlock: MIFKUJ_clean_linker_0, # of connection points: 2
#     Edge 80, Type (0, 0), BuildingBlock: MIFKUJ_clean_linker_0, # of connection points: 2
#     Edge 81, Type (0, 0), BuildingBlock: MIFKUJ_clean_linker_0, # of connection points: 2
#     Edge 82, Type (0, 0), BuildingBlock: MIFKUJ_clean_linker_0, # of connection points: 2
#     Edge 83, Type (0, 0), BuildingBlock: MIFKUJ_clean_linker_0, # of connection points: 2
#     Edge 84, Type (0, 0), BuildingBlock: MIFKUJ_clean_linker_0, # of connection points: 2
#     Edge 85, Type (0, 0), BuildingBlock: MIFKUJ_clean_linker_0, # of connection points: 2
#     Edge 86, Type (0, 0), BuildingBlock: MIFKUJ_clean_linker_0, # of connection points: 2
#     Edge 87, Type (0, 0), BuildingBlock: MIFKUJ_clean_linker_0, # of connection points: 2
#     Edge 88, Type (0, 0), BuildingBlock: MIFKUJ_clean_linker_0, # of connection points: 2
#     Edge 89, Type (0, 0), BuildingBlock: MIFKUJ_clean_linker_0, # of connection points: 2
#     Edge 90, Type (0, 0), BuildingBlock: MIFKUJ_clean_linker_0, # of connection points: 2
#     Edge 91, Type (0, 0), BuildingBlock: MIFKUJ_clean_linker_0, # of connection points: 2
#     Edge 92, Type (0, 0), BuildingBlock: MIFKUJ_clean_linker_0, # of connection points: 2
#     Edge 93, Type (0, 0), BuildingBlock: MIFKUJ_clean_linker_0, # of connection points: 2
#     Edge 94, Type (0, 0), BuildingBlock: MIFKUJ_clean_linker_0, # of connection points: 2
#     Edge 95, Type (0, 0), BuildingBlock: MIFKUJ_clean_linker_0, # of connection points: 2
# Relax obj value: 0.056
# Max RMSD: 0.125
# Mean RMSD: 0.125
data_MOF--net-uos--node1-QUQFOY_clean_sbu_1--edge1-MIFKUJ_clean_linker_0
_symmetry_space_group_name_H-M    P1
_symmetry_Int_Tables_number       1
_symmetry_cell_setting            triclinic
loop_
_symmetry_equiv_pos_as_xyz
'x, y, z'
_cell_length_a     115.90576
_cell_length_b     115.93127
_cell_length_c     30.903869
_cell_angle_alpha  90.003724
_cell_angle_beta   90.005373
_cell_angle_gamma 90.013037
loop_
_atom_site_label
_atom_site_type_symbol
_atom_site_fract_x
_atom_site_fract_y
_atom_site_fract_z
_atom_type_partial_charge
O0 O 0.15643 0.14692 0.18408 0.0
Cd1 Cd 0.16842 0.1496 0.13558 0.0
Cd2 Cd 0.16698 0.17227 0.17096 0.0
O3 O 0.15424 0.16477 0.2077 0.0
O4 O 0.16697 0.13533 0.09992 0.0
O5 O 0.16268 0.15266 0.07493 0.0
C6 C 0.16305 0.14164 0.06889 0.0
C7 C 0.16461 0.19181 0.15277 0.0
C8 C 0.15159 0.15414 0.20912 0.0
C9 C 0.18985 0.15919 0.17613 0.0
O10 O 0.18368 0.16784 0.18624 0.0
O11 O 0.18567 0.15103 0.15344 0.0
O12 O 0.16661 0.18851 0.19177 0.0
O13 O 0.16368 0.18393 0.12345 0.0
O14 O 0.11122 0.91553 0.42172 0.0
Cd15 Cd 0.10605 0.92532 0.36984 0.0
Cd16 Cd 0.08441 0.92188 0.40732 0.0
O17 O 0.09387 0.90981 0.44188 0.0
O18 O 0.11893 0.92441 0.32722 0.0
O19 O 0.10165 0.91692 0.31521 0.0
C20 C 0.11216 0.91851 0.30252 0.0
C21 C 0.06491 0.91746 0.39436 0.0
C22 C 0.10478 0.90933 0.44547 0.0
C23 C 0.09494 0.94614 0.40661 0.0
O24 O 0.08723 0.93922 0.42018 0.0
O25 O 0.10307 0.94252 0.38256 0.0
O26 O 0.06872 0.91979 0.43243 0.0
O27 O 0.07226 0.91736 0.36298 0.0
O28 O 0.34321 0.8547 0.66602 0.0
Cd29 Cd 0.33123 0.8525 0.61745 0.0
Cd30 Cd 0.33143 0.82948 0.65234 0.0
O31 O 0.34318 0.83711 0.69358 0.0
O32 O 0.33307 0.86684 0.58242 0.0
O33 O 0.33705 0.84949 0.55686 0.0
C34 C 0.33695 0.86054 0.55128 0.0
C35 C 0.33502 0.81004 0.63558 0.0
C36 C 0.34682 0.84745 0.69365 0.0
C37 C 0.30885 0.84298 0.65233 0.0
O38 O 0.31432 0.83372 0.66032 0.0
O39 O 0.31393 0.85156 0.63504 0.0
O40 O 0.3318 0.81326 0.67351 0.0
O41 O 0.33625 0.81791 0.60639 0.0
O42 O 0.39063 0.08547 0.92065 0.0
Cd43 Cd 0.39653 0.07597 0.86872 0.0
Cd44 Cd 0.41722 0.08038 0.90742 0.0
O45 O 0.40753 0.09264 0.93933 0.0
O46 O 0.38393 0.07653 0.8248 0.0
O47 O 0.40098 0.08473 0.81496 0.0
C48 C 0.39063 0.08279 0.80113 0.0
C49 C 0.4365 0.08506 0.89169 0.0
C50 C 0.39663 0.09236 0.94342 0.0
C51 C 0.40776 0.05591 0.90932 0.0
O52 O 0.4146 0.06337 0.92514 0.0
O53 O 0.40035 0.05884 0.88104 0.0
O54 O 0.43299 0.08331 0.93062 0.0
O55 O 0.42897 0.08435 0.861 0.0
O56 O 0.16482 0.85925 0.82693 0.0
Cd57 Cd 0.17467 0.85481 0.8795 0.0
Cd58 Cd 0.17253 0.83272 0.84288 0.0
O59 O 0.161 0.84162 0.80403 0.0
O60 O 0.17331 0.86807 0.92029 0.0
O61 O 0.16647 0.85068 0.93491 0.0
C62 C 0.16772 0.86136 0.94612 0.0
C63 C 0.16793 0.81334 0.85738 0.0
C64 C 0.15967 0.85247 0.80104 0.0
C65 C 0.1963 0.84415 0.84608 0.0
O66 O 0.18996 0.83583 0.83369 0.0
O67 O 0.19202 0.85251 0.86735 0.0
O68 O 0.17103 0.81676 0.81956 0.0
O69 O 0.1673 0.82099 0.88765 0.0
O70 O 0.39898 0.90627 0.06782 0.0
Cd71 Cd 0.40145 0.91809 0.11698 0.0
Cd72 Cd 0.42424 0.91733 0.08065 0.0
O73 O 0.41666 0.90514 0.04149 0.0
O74 O 0.38689 0.91643 0.15091 0.0
O75 O 0.40405 0.91229 0.17791 0.0
C76 C 0.39297 0.91254 0.1826 0.0
C77 C 0.44362 0.91412 0.09948 0.0
C78 C 0.40615 0.90206 0.04104 0.0
C79 C 0.41101 0.94007 0.07923 0.0
O80 O 0.41988 0.93424 0.06895 0.0
O81 O 0.40277 0.93543 0.10022 0.0
O82 O 0.44058 0.91681 0.06075 0.0
O83 O 0.43559 0.91315 0.12821 0.0
O84 O 0.33585 0.1415 0.32811 0.0
Cd85 Cd 0.32666 0.14686 0.3816 0.0
Cd86 Cd 0.33022 0.16802 0.34348 0.0
O87 O 0.34213 0.15867 0.3084 0.0
O88 O 0.32755 0.13377 0.42338 0.0
O89 O 0.33566 0.15074 0.43551 0.0
C90 C 0.33385 0.14023 0.44778 0.0
C91 C 0.33496 0.18725 0.35977 0.0
C92 C 0.34217 0.14777 0.30413 0.0
C93 C 0.30592 0.15806 0.34496 0.0
O94 O 0.31301 0.16527 0.32899 0.0
O95 O 0.30938 0.15042 0.3715 0.0
O96 O 0.3327 0.18393 0.32097 0.0
O97 O 0.33471 0.17956 0.38998 0.0
O98 O 0.10266 0.09342 0.58554 0.0
Cd99 Cd 0.10105 0.08146 0.63439 0.0
Cd100 Cd 0.07773 0.08086 0.59906 0.0
O101 O 0.08519 0.09253 0.55701 0.0
O102 O 0.11567 0.08371 0.66744 0.0
O103 O 0.09849 0.08713 0.69553 0.0
C104 C 0.10958 0.08734 0.69955 0.0
C105 C 0.05798 0.0837 0.61276 0.0
C106 C 0.09537 0.09658 0.55726 0.0
C107 C 0.09202 0.05871 0.60092 0.0
O108 O 0.08253 0.06382 0.59339 0.0
O109 O 0.10056 0.06415 0.61692 0.0
O110 O 0.06173 0.08035 0.5757 0.0
O111 O 0.06549 0.08556 0.6428 0.0
O112 O 0.84169 0.85404 0.82964 0.0
Cd113 Cd 0.83161 0.84934 0.88176 0.0
Cd114 Cd 0.83456 0.82747 0.84445 0.0
O115 O 0.84611 0.83656 0.80683 0.0
O116 O 0.8324 0.86274 0.92228 0.0
O117 O 0.83984 0.84566 0.93761 0.0
C118 C 0.83823 0.85631 0.9484 0.0
C119 C 0.83923 0.80819 0.86014 0.0
C120 C 0.84717 0.84744 0.80404 0.0
C121 C 0.81051 0.8381 0.84552 0.0
O122 O 0.81731 0.83027 0.83215 0.0
O123 O 0.81428 0.84627 0.86915 0.0
O124 O 0.83663 0.81153 0.82168 0.0
O125 O 0.83938 0.81588 0.89034 0.0
O126 O 0.88918 0.08689 0.57732 0.0
Cd127 Cd 0.89503 0.07699 0.62832 0.0
Cd128 Cd 0.91563 0.08141 0.58977 0.0
O129 O 0.90613 0.09417 0.55986 0.0
O130 O 0.88262 0.07751 0.67302 0.0
O131 O 0.89981 0.08548 0.68227 0.0
C132 C 0.8895 0.08361 0.69661 0.0
C133 C 0.93507 0.08524 0.60568 0.0
C134 C 0.89523 0.09398 0.55565 0.0
C135 C 0.90594 0.05707 0.58582 0.0
O136 O 0.91272 0.0646 0.5701 0.0
O137 O 0.89869 0.05988 0.61481 0.0
O138 O 0.93143 0.08408 0.5666 0.0
O139 O 0.92755 0.0846 0.63642 0.0
O140 O 0.65768 0.14618 0.32578 0.0
Cd141 Cd 0.66937 0.14838 0.37508 0.0
Cd142 Cd 0.66844 0.17168 0.34185 0.0
O143 O 0.65616 0.16411 0.30243 0.0
O144 O 0.66762 0.1338 0.40868 0.0
O145 O 0.66342 0.15093 0.43579 0.0
C146 C 0.66362 0.13985 0.44028 0.0
C147 C 0.66552 0.19131 0.35764 0.0
C148 C 0.65326 0.15356 0.30034 0.0
C149 C 0.69131 0.15832 0.33962 0.0
O150 O 0.68553 0.1674 0.33167 0.0
O151 O 0.6866 0.14967 0.35776 0.0
O152 O 0.66825 0.18778 0.31956 0.0
O153 O 0.66426 0.18362 0.38747 0.0
O154 O 0.61154 0.91566 0.08598 0.0
Cd155 Cd 0.60686 0.92523 0.13906 0.0
Cd156 Cd 0.5848 0.92271 0.10227 0.0
O157 O 0.59398 0.91147 0.06318 0.0
O158 O 0.61998 0.92381 0.1805 0.0
O159 O 0.60263 0.91667 0.19358 0.0
C160 C 0.61324 0.91798 0.20548 0.0
C161 C 0.56546 0.91769 0.11555 0.0
C162 C 0.60487 0.9104 0.06003 0.0
C163 C 0.59566 0.94674 0.10705 0.0
O164 O 0.58752 0.94023 0.09418 0.0
O165 O 0.60413 0.9426 0.12806 0.0
O166 O 0.56897 0.92097 0.07805 0.0
O167 O 0.573 0.91711 0.14621 0.0
O168 O 0.83562 0.14333 0.17206 0.0
Cd169 Cd 0.82621 0.14764 0.1181 0.0
Cd170 Cd 0.82822 0.16989 0.1543 0.0
O171 O 0.8395 0.16102 0.19421 0.0
O172 O 0.82772 0.13413 0.07847 0.0
O173 O 0.83485 0.15134 0.06313 0.0
C174 C 0.83356 0.14063 0.05264 0.0
C175 C 0.83307 0.18922 0.13984 0.0
C176 C 0.84069 0.15016 0.19797 0.0
C177 C 0.80442 0.15855 0.14922 0.0
O178 O 0.81073 0.16683 0.16225 0.0
O179 O 0.80878 0.15018 0.12826 0.0
O180 O 0.82975 0.18587 0.17749 0.0
O181 O 0.83374 0.18154 0.10969 0.0
O182 O 0.60349 0.0934 0.92194 0.0
Cd183 Cd 0.60069 0.08122 0.87475 0.0
Cd184 Cd 0.57802 0.08225 0.91233 0.0
O185 O 0.58602 0.09464 0.94998 0.0
O186 O 0.61499 0.08252 0.83917 0.0
O187 O 0.59767 0.08659 0.81355 0.0
C188 C 0.60871 0.08625 0.80776 0.0
C189 C 0.55857 0.08571 0.89529 0.0
C190 C 0.59652 0.09779 0.94902 0.0
C191 C 0.59126 0.05946 0.91452 0.0
O192 O 0.58222 0.0652 0.92352 0.0
O193 O 0.59963 0.06415 0.89446 0.0
O194 O 0.56184 0.08306 0.93382 0.0
O195 O 0.56641 0.08645 0.86573 0.0
O196 O 0.66642 0.85975 0.67967 0.0
Cd197 Cd 0.67569 0.85367 0.6274 0.0
Cd198 Cd 0.67069 0.83312 0.66552 0.0
O199 O 0.6586 0.84306 0.69726 0.0
O200 O 0.67553 0.8664 0.58396 0.0
O201 O 0.6667 0.8497 0.5736 0.0
C202 C 0.669 0.86001 0.56014 0.0
C203 C 0.66561 0.81406 0.6483 0.0
C204 C 0.65927 0.85393 0.70192 0.0
C205 C 0.69542 0.84179 0.66768 0.0
O206 O 0.68774 0.83523 0.68376 0.0
O207 O 0.69269 0.84924 0.63928 0.0
O208 O 0.66726 0.81735 0.68757 0.0
O209 O 0.66663 0.8217 0.61814 0.0
O210 O 0.89598 0.90965 0.42181 0.0
Cd211 Cd 0.90058 0.92038 0.37132 0.0
Cd212 Cd 0.92232 0.9182 0.4114 0.0
O213 O 0.9134 0.90633 0.44804 0.0
O214 O 0.88746 0.91936 0.32956 0.0
O215 O 0.90491 0.91269 0.31504 0.0
C216 C 0.89427 0.91397 0.30349 0.0
C217 C 0.94188 0.9144 0.39712 0.0
C218 C 0.90258 0.90458 0.44859 0.0
C219 C 0.91077 0.9418 0.40987 0.0
O220 O 0.9188 0.93529 0.42359 0.0
O221 O 0.90287 0.93777 0.38557 0.0
O222 O 0.93821 0.91676 0.43537 0.0
O223 O 0.93436 0.91391 0.36636 0.0
O224 O 0.65773 0.64719 0.67594 0.0
Cd225 Cd 0.66982 0.6505 0.62827 0.0
Cd226 Cd 0.66813 0.67283 0.66761 0.0
O227 O 0.65562 0.66466 0.70339 0.0
O228 O 0.66888 0.63622 0.59235 0.0
O229 O 0.66405 0.65342 0.56746 0.0
C230 C 0.66474 0.64241 0.56138 0.0
C231 C 0.66469 0.69224 0.65013 0.0
C232 C 0.65293 0.65405 0.7025 0.0
C233 C 0.69117 0.66022 0.67047 0.0
O234 O 0.68494 0.66869 0.68215 0.0
O235 O 0.68704 0.65226 0.64665 0.0
O236 O 0.66688 0.68898 0.68905 0.0
O237 O 0.6644 0.68442 0.62041 0.0
O238 O 0.6093 0.41543 0.9241 0.0
Cd239 Cd 0.60498 0.42488 0.87022 0.0
Cd240 Cd 0.58282 0.42302 0.90663 0.0
O241 O 0.59159 0.41153 0.94605 0.0
O242 O 0.61824 0.42311 0.82956 0.0
O243 O 0.60081 0.41627 0.81568 0.0
C244 C 0.61148 0.41738 0.80429 0.0
C245 C 0.56333 0.41867 0.89271 0.0
C246 C 0.60244 0.41033 0.94984 0.0
C247 C 0.59443 0.44672 0.90179 0.0
O248 O 0.58615 0.44044 0.91501 0.0
O249 O 0.6027 0.44233 0.88037 0.0
O250 O 0.56686 0.42185 0.9303 0.0
O251 O 0.57093 0.41779 0.86236 0.0
O252 O 0.8399 0.35706 0.17557 0.0
Cd253 Cd 0.82989 0.35172 0.12424 0.0
Cd254 Cd 0.83312 0.33046 0.16438 0.0
O255 O 0.84504 0.33988 0.19933 0.0
O256 O 0.83042 0.36479 0.08228 0.0
O257 O 0.83817 0.34773 0.0688 0.0
C258 C 0.83635 0.35826 0.05687 0.0
C259 C 0.83762 0.31119 0.14801 0.0
C260 C 0.84581 0.3508 0.20102 0.0
C261 C 0.80898 0.34079 0.16266 0.0
O262 O 0.81589 0.3333 0.17786 0.0
O263 O 0.81263 0.34857 0.13704 0.0
O264 O 0.83542 0.31451 0.18686 0.0
O265 O 0.83753 0.31891 0.11789 0.0
O266 O 0.89394 0.58722 0.41452 0.0
Cd267 Cd 0.89899 0.57726 0.36294 0.0
Cd268 Cd 0.92043 0.58082 0.39792 0.0
O269 O 0.91137 0.59285 0.43392 0.0
O270 O 0.88601 0.57793 0.32066 0.0
O271 O 0.90323 0.58542 0.30764 0.0
C272 C 0.8927 0.58373 0.29537 0.0
C273 C 0.93921 0.58569 0.37629 0.0
C274 C 0.90047 0.59335 0.4382 0.0
C275 C 0.91026 0.55663 0.40113 0.0
O276 O 0.91806 0.56361 0.41363 0.0
O277 O 0.90208 0.56013 0.37706 0.0
O278 O 0.93664 0.58385 0.41621 0.0
O279 O 0.93103 0.58493 0.34806 0.0
O280 O 0.66411 0.35985 0.32917 0.0
Cd281 Cd 0.67384 0.35397 0.38058 0.0
Cd282 Cd 0.66921 0.33338 0.34146 0.0
O283 O 0.65667 0.34303 0.31094 0.0
O284 O 0.67358 0.3667 0.42399 0.0
O285 O 0.66525 0.34977 0.43506 0.0
C286 C 0.66733 0.36015 0.44829 0.0
C287 C 0.66516 0.31397 0.35697 0.0
C288 C 0.65702 0.35394 0.30697 0.0
C289 C 0.69369 0.34278 0.33857 0.0
O290 O 0.6861 0.33613 0.32253 0.0
O291 O 0.69093 0.35005 0.36759 0.0
O292 O 0.6665 0.31762 0.318 0.0
O293 O 0.66572 0.32146 0.38781 0.0
O294 O 0.89403 0.41318 0.58335 0.0
Cd295 Cd 0.89834 0.42329 0.63545 0.0
Cd296 Cd 0.92053 0.42148 0.59886 0.0
O297 O 0.91163 0.41045 0.55809 0.0
O298 O 0.88515 0.4218 0.67654 0.0
O299 O 0.90265 0.41521 0.6909 0.0
C300 C 0.89197 0.41631 0.70227 0.0
C301 C 0.93979 0.41653 0.61379 0.0
C302 C 0.90083 0.40858 0.55612 0.0
C303 C 0.90914 0.44517 0.60369 0.0
O304 O 0.91766 0.43899 0.59213 0.0
O305 O 0.90055 0.44069 0.62301 0.0
O306 O 0.93655 0.42001 0.5762 0.0
O307 O 0.93201 0.41569 0.64354 0.0
O308 O 0.83781 0.64083 0.82066 0.0
Cd309 Cd 0.82826 0.64609 0.87337 0.0
Cd310 Cd 0.83186 0.6674 0.83641 0.0
O311 O 0.84389 0.65812 0.80154 0.0
O312 O 0.82915 0.63309 0.91552 0.0
O313 O 0.83703 0.65018 0.92758 0.0
C314 C 0.83531 0.63967 0.94001 0.0
C315 C 0.83674 0.68649 0.85422 0.0
C316 C 0.84416 0.64722 0.79726 0.0
C317 C 0.80754 0.65745 0.83673 0.0
O318 O 0.81462 0.66481 0.8217 0.0
O319 O 0.81101 0.64959 0.86232 0.0
O320 O 0.8345 0.6834 0.81512 0.0
O321 O 0.83635 0.67864 0.88386 0.0
O322 O 0.60394 0.59409 0.07651 0.0
Cd323 Cd 0.60291 0.58226 0.12605 0.0
Cd324 Cd 0.57939 0.5813 0.09486 0.0
O325 O 0.58612 0.59304 0.05137 0.0
O326 O 0.61743 0.58501 0.15922 0.0
O327 O 0.60011 0.58788 0.18704 0.0
C328 C 0.61119 0.58842 0.19128 0.0
C329 C 0.55971 0.58356 0.11151 0.0
C330 C 0.59627 0.59715 0.0495 0.0
C331 C 0.59409 0.55937 0.09427 0.0
O332 O 0.58446 0.56437 0.08832 0.0
O333 O 0.60271 0.56492 0.109 0.0
O334 O 0.56317 0.5802 0.07408 0.0
O335 O 0.56749 0.58586 0.14014 0.0
O336 O 0.34223 0.35464 0.32476 0.0
Cd337 Cd 0.33086 0.35114 0.37437 0.0
Cd338 Cd 0.33337 0.32862 0.33892 0.0
O339 O 0.34619 0.33684 0.30436 0.0
O340 O 0.33178 0.3654 0.41039 0.0
O341 O 0.33727 0.34829 0.43423 0.0
C342 C 0.33635 0.35927 0.44066 0.0
C343 C 0.33685 0.30919 0.35639 0.0
C344 C 0.34791 0.34764 0.30139 0.0
C345 C 0.30987 0.34063 0.3343 0.0
O346 O 0.31646 0.33238 0.32301 0.0
O347 O 0.31368 0.34879 0.35785 0.0
O348 O 0.33489 0.3125 0.31735 0.0
O349 O 0.33692 0.31698 0.38624 0.0
O350 O 0.39199 0.58889 0.07678 0.0
Cd351 Cd 0.39487 0.57802 0.12823 0.0
Cd352 Cd 0.41766 0.57895 0.09472 0.0
O353 O 0.40997 0.59098 0.05457 0.0
O354 O 0.38116 0.58026 0.16631 0.0
O355 O 0.39886 0.58503 0.18605 0.0
C356 C 0.38795 0.58481 0.19462 0.0
C357 C 0.43726 0.58197 0.11084 0.0
C358 C 0.39931 0.59342 0.05134 0.0
C359 C 0.40462 0.5559 0.09517 0.0
O360 O 0.4135 0.56179 0.08546 0.0
O361 O 0.3961 0.5606 0.11418 0.0
O362 O 0.43382 0.57901 0.07289 0.0
O363 O 0.4295 0.5835 0.14023 0.0
O364 O 0.15874 0.64548 0.82582 0.0
Cd365 Cd 0.16975 0.64958 0.87606 0.0
Cd366 Cd 0.16686 0.67144 0.83796 0.0
O367 O 0.15368 0.66304 0.80613 0.0
O368 O 0.16884 0.63557 0.91342 0.0
O369 O 0.16305 0.65278 0.93523 0.0
C370 C 0.16409 0.64187 0.94282 0.0
C371 C 0.16383 0.69104 0.85386 0.0
C372 C 0.15255 0.65218 0.80304 0.0
C373 C 0.19041 0.65959 0.83354 0.0
O374 O 0.18356 0.66734 0.81983 0.0
O375 O 0.18696 0.65203 0.86042 0.0
O376 O 0.16538 0.68742 0.81495 0.0
O377 O 0.16387 0.68346 0.88447 0.0
O378 O 0.10724 0.41325 0.58135 0.0
Cd379 Cd 0.10295 0.42338 0.63344 0.0
Cd380 Cd 0.08078 0.42139 0.59679 0.0
O381 O 0.08966 0.41026 0.5564 0.0
O382 O 0.11637 0.42211 0.6736 0.0
O383 O 0.09903 0.41533 0.68943 0.0
C384 C 0.10976 0.41658 0.69995 0.0
C385 C 0.06154 0.41648 0.61215 0.0
C386 C 0.10047 0.40852 0.55433 0.0
C387 C 0.09214 0.44512 0.60062 0.0
O388 O 0.08369 0.43885 0.58893 0.0
O389 O 0.10066 0.44075 0.62072 0.0
O390 O 0.06475 0.41984 0.57437 0.0
O391 O 0.06933 0.41576 0.64187 0.0
O392 O 0.33811 0.64317 0.67628 0.0
Cd393 Cd 0.32742 0.64721 0.62518 0.0
Cd394 Cd 0.32988 0.6693 0.66028 0.0
O395 O 0.34214 0.66091 0.69706 0.0
O396 O 0.32875 0.63367 0.58571 0.0
O397 O 0.3348 0.65113 0.56795 0.0
C398 C 0.33385 0.64032 0.55827 0.0
C399 C 0.33407 0.68847 0.64143 0.0
C400 C 0.34365 0.6501 0.70043 0.0
C401 C 0.30614 0.6579 0.66178 0.0
O402 O 0.31273 0.66605 0.67398 0.0
O403 O 0.31009 0.64967 0.63891 0.0
O404 O 0.33166 0.6855 0.6805 0.0
O405 O 0.33419 0.68047 0.61235 0.0
O406 O 0.10475 0.59007 0.42622 0.0
Cd407 Cd 0.1021 0.57958 0.37359 0.0
Cd408 Cd 0.07926 0.58093 0.40617 0.0
O409 O 0.08676 0.59295 0.44707 0.0
O410 O 0.11654 0.58173 0.33936 0.0
O411 O 0.09933 0.58665 0.31472 0.0
C412 C 0.11038 0.58634 0.30926 0.0
C413 C 0.06006 0.58417 0.38515 0.0
C414 C 0.0975 0.59487 0.4512 0.0
C415 C 0.09198 0.55766 0.40612 0.0
O416 O 0.08322 0.56371 0.41608 0.0
O417 O 0.10053 0.56219 0.38675 0.0
O418 O 0.06274 0.5811 0.42388 0.0
O419 O 0.06837 0.58571 0.35794 0.0
O420 O 0.16329 0.35979 0.17372 0.0
Cd421 Cd 0.17347 0.35443 0.12268 0.0
Cd422 Cd 0.16996 0.33342 0.16129 0.0
O423 O 0.15751 0.34252 0.19429 0.0
O424 O 0.17271 0.36712 0.0792 0.0
O425 O 0.1652 0.34981 0.06804 0.0
C426 C 0.16684 0.36026 0.05476 0.0
C427 C 0.16611 0.31403 0.14489 0.0
C428 C 0.15693 0.35344 0.1973 0.0
C429 C 0.19405 0.34372 0.16293 0.0
O430 O 0.1869 0.33649 0.1783 0.0
O431 O 0.19074 0.35124 0.13566 0.0
O432 O 0.16783 0.3175 0.18389 0.0
O433 O 0.16625 0.32169 0.11454 0.0
O434 O 0.39589 0.40853 0.92622 0.0
Cd435 Cd 0.39791 0.41988 0.87569 0.0
Cd436 Cd 0.42117 0.42005 0.90999 0.0
O437 O 0.4138 0.40785 0.95036 0.0
O438 O 0.38354 0.41746 0.84125 0.0
O439 O 0.40093 0.41375 0.81551 0.0
C440 C 0.38988 0.4136 0.81019 0.0
C441 C 0.44085 0.41718 0.89455 0.0
C442 C 0.40335 0.4046 0.95249 0.0
C443 C 0.40703 0.44244 0.9091 0.0
O444 O 0.41632 0.43709 0.91796 0.0
O445 O 0.39861 0.43723 0.89127 0.0
O446 O 0.43732 0.42033 0.93218 0.0
O447 O 0.43315 0.41561 0.86492 0.0
H448 H 0.29723 0.16896 0.27402 0.0
H449 H 0.27756 0.16847 0.24652 0.0
H450 H 0.26728 0.14708 0.35409 0.0
H451 H 0.28718 0.14713 0.38097 0.0
H452 H 0.25735 0.13943 0.2847 0.0
H453 H 0.26077 0.17668 0.34883 0.0
H454 H 0.26945 0.19573 0.36303 0.0
H455 H 0.26513 0.20499 0.22947 0.0
H456 H 0.25656 0.18592 0.21434 0.0
H457 H 0.19884 0.17146 0.24298 0.0
H458 H 0.21816 0.17046 0.27315 0.0
H459 H 0.2275 0.14488 0.17792 0.0
H460 H 0.20784 0.14548 0.14855 0.0
H461 H 0.23765 0.17585 0.2444 0.0
H462 H 0.24911 0.12776 0.2163 0.0
H463 H 0.23935 0.10888 0.21192 0.0
H464 H 0.21174 0.12163 0.29123 0.0
H465 H 0.22141 0.14053 0.29652 0.0
C466 C 0.29079 0.1642 0.2921 0.0
C467 C 0.29377 0.15817 0.32997 0.0
C468 C 0.27951 0.16395 0.27632 0.0
C469 C 0.27085 0.1579 0.29856 0.0
C470 C 0.27379 0.15182 0.33635 0.0
C471 C 0.28516 0.15191 0.35183 0.0
C472 C 0.25876 0.15795 0.28216 0.0
C473 C 0.25303 0.1474 0.27598 0.0
C474 C 0.253 0.16834 0.27142 0.0
C475 C 0.25812 0.17983 0.28039 0.0
C476 C 0.26175 0.18275 0.32242 0.0
C477 C 0.26664 0.19355 0.33065 0.0
C478 C 0.26787 0.20155 0.29715 0.0
C479 C 0.26419 0.19877 0.25538 0.0
C480 C 0.2593 0.18798 0.24697 0.0
C481 C 0.20497 0.1656 0.22835 0.0
C482 C 0.20178 0.15856 0.19325 0.0
C483 C 0.21606 0.16505 0.24568 0.0
C484 C 0.22433 0.15755 0.22812 0.0
C485 C 0.22124 0.15058 0.19266 0.0
C486 C 0.21001 0.15098 0.17569 0.0
C487 C 0.2362 0.15732 0.24674 0.0
C488 C 0.24193 0.16786 0.25314 0.0
C489 C 0.24177 0.14695 0.25908 0.0
C490 C 0.23593 0.1356 0.25637 0.0
C491 C 0.24098 0.12652 0.23289 0.0
C492 C 0.23545 0.11582 0.23024 0.0
C493 C 0.22491 0.11407 0.25115 0.0
C494 C 0.21988 0.12301 0.2749 0.0
C495 C 0.22537 0.13372 0.27769 0.0
H496 H 0.22065 0.10578 0.24904 0.0
H497 H 0.27166 0.20991 0.30358 0.0
H498 H 0.11263 0.96185 0.40437 0.0
H499 H 0.11295 0.98114 0.43682 0.0
H500 H 0.07751 0.97707 0.47638 0.0
H501 H 0.07712 0.95779 0.44438 0.0
H502 H 0.08232 0.9988 0.44071 0.0
H503 H 0.09796 0.97276 0.54811 0.0
H504 H 0.11149 0.95798 0.57478 0.0
H505 H 0.14004 0.98065 0.55002 0.0
H506 H 0.12667 0.99552 0.5226 0.0
H507 H 0.07494 0.04279 0.59176 0.0
H508 H 0.07635 0.02366 0.55939 0.0
H509 H 0.11308 0.02814 0.54395 0.0
H510 H 0.11177 0.04719 0.5781 0.0
H511 H 0.10875 0.00658 0.56369 0.0
H512 H 0.09376 0.03287 0.45886 0.0
H513 H 0.08073 0.04786 0.43027 0.0
H514 H 0.05178 0.02515 0.4463 0.0
H515 H 0.06461 0.01007 0.47555 0.0
C516 C 0.10486 0.96511 0.4195 0.0
C517 C 0.09485 0.95826 0.42191 0.0
C518 C 0.10508 0.97611 0.43825 0.0
C519 C 0.09529 0.98047 0.45939 0.0
C520 C 0.08517 0.97384 0.46032 0.0
C521 C 0.08497 0.96282 0.44205 0.0
C522 C 0.09561 0.99182 0.48161 0.0
C523 C 0.08802 1.00048 0.46785 0.0
C524 C 0.1033 0.9941 0.51616 0.0
C525 C 0.11133 0.9852 0.53285 0.0
C526 C 0.10713 0.97456 0.548 0.0
C527 C 0.11477 0.96617 0.56332 0.0
C528 C 0.12662 0.96836 0.56397 0.0
C529 C 0.13086 0.97896 0.54942 0.0
C530 C 0.12325 0.98737 0.53401 0.0
C531 C 0.08335 0.03964 0.58206 0.0
C532 C 0.09323 0.04654 0.58713 0.0
C533 C 0.08414 0.02872 0.56324 0.0
C534 C 0.09477 0.02458 0.54796 0.0
C535 C 0.10476 0.03118 0.55511 0.0
C536 C 0.10401 0.04206 0.57471 0.0
C537 C 0.09532 0.01357 0.52322 0.0
C538 C 0.10309 0.00496 0.5364 0.0
C539 C 0.08788 0.01137 0.4877 0.0
C540 C 0.08014 0.02037 0.46972 0.0
C541 C 0.08461 0.03109 0.45653 0.0
C542 C 0.07726 0.0396 0.44018 0.0
C543 C 0.06543 0.03746 0.43656 0.0
C544 C 0.06094 0.0268 0.44916 0.0
C545 C 0.06825 0.01826 0.46558 0.0
H546 H 0.05975 0.04406 0.42391 0.0
H547 H 0.13252 0.96185 0.57585 0.0
H548 H 0.21032 0.86307 0.83911 0.0
H549 H 0.22962 0.86392 0.8068 0.0
H550 H 0.22909 0.82706 0.78823 0.0
H551 H 0.20975 0.82615 0.81978 0.0
H552 H 0.25037 0.83607 0.82185 0.0
H553 H 0.22306 0.84262 0.70606 0.0
H554 H 0.2068 0.85261 0.67079 0.0
H555 H 0.22568 0.88447 0.67385 0.0
H556 H 0.24199 0.87469 0.70975 0.0
H557 H 0.29429 0.82542 0.6736 0.0
H558 H 0.27525 0.8268 0.70653 0.0
H559 H 0.27684 0.86392 0.69868 0.0
H560 H 0.29591 0.86259 0.66457 0.0
H561 H 0.25536 0.85641 0.68171 0.0
H562 H 0.28304 0.85016 0.79337 0.0
H563 H 0.29936 0.84067 0.83008 0.0
H564 H 0.28004 0.80913 0.8377 0.0
H565 H 0.26365 0.81839 0.80044 0.0
C566 C 0.21438 0.85512 0.82874 0.0
C567 C 0.2085 0.84454 0.83192 0.0
C568 C 0.22537 0.85564 0.81006 0.0
C569 C 0.23072 0.84556 0.79481 0.0
C570 C 0.22509 0.83493 0.79973 0.0
C571 C 0.21404 0.83443 0.81773 0.0
C572 C 0.24201 0.84609 0.77239 0.0
C573 C 0.25146 0.84043 0.79104 0.0
C574 C 0.24346 0.85208 0.73285 0.0
C575 C 0.23369 0.85795 0.71106 0.0
C576 C 0.2237 0.85178 0.69959 0.0
C577 C 0.21448 0.85739 0.6794 0.0
C578 C 0.21519 0.86917 0.67021 0.0
C579 C 0.22513 0.87535 0.68107 0.0
C580 C 0.23437 0.86977 0.70131 0.0
C581 C 0.29056 0.83389 0.67837 0.0
C582 C 0.29669 0.8439 0.66685 0.0
C583 C 0.27968 0.83467 0.69744 0.0
C584 C 0.27473 0.84547 0.70614 0.0
C585 C 0.28053 0.85549 0.6926 0.0
C586 C 0.29142 0.85471 0.67305 0.0
C587 C 0.26374 0.84621 0.73081 0.0
C588 C 0.25434 0.85212 0.71267 0.0
C589 C 0.26234 0.84054 0.77113 0.0
C590 C 0.27215 0.83495 0.79378 0.0
C591 C 0.2823 0.84118 0.8026 0.0
C592 C 0.29156 0.83585 0.82354 0.0
C593 C 0.29075 0.8243 0.83613 0.0
C594 C 0.28066 0.81807 0.82789 0.0
C595 C 0.27138 0.82336 0.8069 0.0
H596 H 0.29793 0.82018 0.85235 0.0
H597 H 0.20804 0.8735 0.65457 0.0
H598 H 0.39887 0.03618 0.87281 0.0
H599 H 0.39894 0.01668 0.90353 0.0
H600 H 0.4165 0.02949 0.017 0.0
H601 H 0.41697 0.04872 0.98561 0.0
H602 H 0.4256 0.01071 0.99834 0.0
H603 H 0.38634 0.02246 0.0135 0.0
H604 H 0.36739 0.02978 0.98984 0.0
H605 H 0.36355 0.00081 0.90445 0.0
H606 H 0.38256 0.9934 0.9272 0.0
H607 H 0.39553 0.95681 0.10448 0.0
H608 H 0.39448 0.97682 0.0788 0.0
H609 H 0.42318 0.97049 0.99311 0.0
H610 H 0.42453 0.9508 0.01948 0.0
H611 H 0.39032 0.98653 0.00411 0.0
H612 H 0.43969 0.99357 0.98075 0.0
H613 H 0.45797 0.98734 0.01431 0.0
H614 H 0.44036 0.98084 0.13408 0.0
H615 H 0.42201 0.98718 0.10144 0.0
C616 C 0.40279 0.03479 0.9042 0.0
C617 C 0.40795 0.04399 0.92667 0.0
C618 C 0.40275 0.02366 0.92194 0.0
C619 C 0.40757 0.02159 0.96301 0.0
C620 C 0.41275 0.03079 0.98527 0.0
C621 C 0.41301 0.04182 0.96722 0.0
C622 C 0.40749 0.00984 0.98273 0.0
C623 C 0.41786 0.00546 0.99957 0.0
C624 C 0.39736 0.00302 0.98547 0.0
C625 C 0.38592 0.00743 0.97176 0.0
C626 C 0.38149 0.0177 0.98945 0.0
C627 C 0.37073 0.02185 0.97624 0.0
C628 C 0.36428 0.01578 0.94558 0.0
C629 C 0.36856 0.00552 0.92815 0.0
C630 C 0.37933 0.00133 0.94122 0.0
C631 C 0.40166 0.95973 0.08039 0.0
C632 C 0.4102 0.95223 0.06447 0.0
C633 C 0.40102 0.97115 0.06559 0.0
C634 C 0.40887 0.97525 0.03449 0.0
C635 C 0.41721 0.96766 0.01789 0.0
C636 C 0.41795 0.95635 0.033 0.0
C637 C 0.40845 0.98741 0.0191 0.0
C638 C 0.39802 0.99184 0.00298 0.0
C639 C 0.41842 0.99447 0.01844 0.0
C640 C 0.42946 0.99075 0.03849 0.0
C641 C 0.43973 0.99086 0.0143 0.0
C642 C 0.4501 0.9873 0.03315 0.0
C643 C 0.45032 0.98367 0.07625 0.0
C644 C 0.44017 0.98362 0.10065 0.0
C645 C 0.42978 0.98718 0.08197 0.0
H646 H 0.45836 0.98091 0.09077 0.0
H647 H 0.35595 0.01901 0.9354 0.0
H648 H 0.8008 0.82368 0.7861 0.0
H649 H 0.78147 0.82448 0.75571 0.0
H650 H 0.77311 0.85295 0.84001 0.0
H651 H 0.79271 0.85246 0.86972 0.0
H652 H 0.76118 0.82128 0.78424 0.0
H653 H 0.75378 0.87075 0.79095 0.0
H654 H 0.76517 0.88873 0.78855 0.0
H655 H 0.79201 0.87129 0.71859 0.0
H656 H 0.78071 0.85326 0.72009 0.0
H657 H 0.70259 0.83209 0.74325 0.0
H658 H 0.72201 0.83165 0.77318 0.0
H659 H 0.7349 0.84933 0.66019 0.0
H660 H 0.71526 0.85028 0.63085 0.0
H661 H 0.74496 0.85781 0.72688 0.0
H662 H 0.73877 0.81933 0.67772 0.0
H663 H 0.72858 0.80076 0.67009 0.0
H664 H 0.73118 0.79511 0.80706 0.0
H665 H 0.74126 0.81373 0.81559 0.0
C666 C 0.79486 0.8301 0.79847 0.0
C667 C 0.79836 0.83805 0.8303 0.0
C668 C 0.78377 0.83053 0.78102 0.0
C669 C 0.77583 0.83886 0.79505 0.0
C670 C 0.77914 0.84658 0.82794 0.0
C671 C 0.79033 0.84624 0.84516 0.0
C672 C 0.76418 0.83945 0.77479 0.0
C673 C 0.75764 0.82929 0.77181 0.0
C674 C 0.75963 0.84981 0.75746 0.0
C675 C 0.76645 0.86063 0.75609 0.0
C676 C 0.76209 0.87077 0.77496 0.0
C677 C 0.76853 0.88096 0.77376 0.0
C678 C 0.77932 0.88114 0.75357 0.0
C679 C 0.78367 0.87113 0.73438 0.0
C680 C 0.77726 0.86092 0.73544 0.0
C681 C 0.70955 0.83583 0.72455 0.0
C682 C 0.70739 0.84113 0.68443 0.0
C683 C 0.72069 0.83554 0.74171 0.0
C684 C 0.73001 0.84025 0.71867 0.0
C685 C 0.72787 0.8456 0.67861 0.0
C686 C 0.71666 0.8461 0.66175 0.0
C687 C 0.74192 0.83965 0.73669 0.0
C688 C 0.7485 0.84981 0.73936 0.0
C689 C 0.7467 0.8292 0.75233 0.0
C690 C 0.74068 0.81797 0.74733 0.0
C691 C 0.7371 0.81416 0.70625 0.0
C692 C 0.73136 0.80363 0.70176 0.0
C693 C 0.72921 0.79678 0.73808 0.0
C694 C 0.73284 0.80044 0.77896 0.0
C695 C 0.73858 0.81097 0.78364 0.0
H696 H 0.72476 0.78862 0.73454 0.0
H697 H 0.7843 0.88904 0.75271 0.0
H698 H 0.92419 0.95175 0.4719 0.0
H699 H 0.92286 0.97112 0.50138 0.0
H700 H 0.89538 0.97902 0.41191 0.0
H701 H 0.89639 0.95934 0.3831 0.0
H702 H 0.92643 0.99119 0.47205 0.0
H703 H 0.87722 0.99893 0.45627 0.0
H704 H 0.85912 0.98773 0.45568 0.0
H705 H 0.8753 0.96095 0.53004 0.0
H706 H 0.89344 0.97206 0.53154 0.0
H707 H 0.9157 0.04987 0.51038 0.0
H708 H 0.91601 0.03049 0.48014 0.0
H709 H 0.89745 0.01775 0.59137 0.0
H710 H 0.89669 0.03736 0.62111 0.0
H711 H 0.88937 0.00777 0.52284 0.0
H712 H 0.92737 0.01375 0.57799 0.0
H713 H 0.9459 0.02385 0.58817 0.0
H714 H 0.95295 0.02106 0.45217 0.0
H715 H 0.93439 0.01107 0.44109 0.0
C716 C 0.91787 0.95758 0.45824 0.0
C717 C 0.91036 0.95394 0.42513 0.0
C718 C 0.91713 0.96871 0.47518 0.0
C719 C 0.90894 0.97655 0.45933 0.0
C720 C 0.90163 0.97308 0.42537 0.0
C721 C 0.90226 0.96184 0.40868 0.0
C722 C 0.90815 0.9883 0.47868 0.0
C723 C 0.91831 0.99481 0.48302 0.0
C724 C 0.89762 0.99298 0.49399 0.0
C725 C 0.88672 0.98627 0.49357 0.0
C726 C 0.8769 0.99067 0.47259 0.0
C727 C 0.86664 0.98433 0.47208 0.0
C728 C 0.86607 0.97362 0.49267 0.0
C729 C 0.87576 0.96923 0.51395 0.0
C730 C 0.88604 0.97553 0.51459 0.0
C731 C 0.91171 0.04296 0.52859 0.0
C732 C 0.90626 0.04515 0.56842 0.0
C733 C 0.91193 0.03184 0.51125 0.0
C734 C 0.90696 0.02257 0.53378 0.0
C735 C 0.90138 0.02475 0.57338 0.0
C736 C 0.90099 0.03594 0.59046 0.0
C737 C 0.90765 0.01065 0.51595 0.0
C738 C 0.89748 0.00414 0.51177 0.0
C739 C 0.91824 0.00579 0.50211 0.0
C740 C 0.92944 0.01176 0.50867 0.0
C741 C 0.93284 0.01536 0.55022 0.0
C742 C 0.94335 0.02106 0.55615 0.0
C743 C 0.95059 0.02312 0.52083 0.0
C744 C 0.94733 0.01947 0.4795 0.0
C745 C 0.93682 0.01378 0.47338 0.0
H746 H 0.95872 0.02754 0.52549 0.0
H747 H 0.85812 0.96872 0.49222 0.0
H748 H 0.7042 0.13902 0.32243 0.0
H749 H 0.72327 0.13823 0.28852 0.0
H750 H 0.72488 0.17543 0.28896 0.0
H751 H 0.7057 0.17625 0.3212 0.0
H752 H 0.73105 0.16825 0.2141 0.0
H753 H 0.74137 0.15751 0.35914 0.0
H754 H 0.74042 0.14615 0.42651 0.0
H755 H 0.74937 0.11546 0.35634 0.0
H756 H 0.75023 0.12662 0.28842 0.0
H757 H 0.79124 0.17636 0.17946 0.0
H758 H 0.7717 0.17537 0.20896 0.0
H759 H 0.77029 0.13902 0.17992 0.0
H760 H 0.78985 0.13993 0.14993 0.0
H761 H 0.76388 0.14454 0.26582 0.0
H762 H 0.75465 0.15628 0.12109 0.0
H763 H 0.7562 0.16833 0.05562 0.0
H764 H 0.74578 0.19811 0.12841 0.0
H765 H 0.74433 0.18626 0.1945 0.0
C766 C 0.70871 0.14702 0.31588 0.0
C767 C 0.70343 0.1577 0.32446 0.0
C768 C 0.71963 0.14656 0.29652 0.0
C769 C 0.72559 0.15678 0.28628 0.0
C770 C 0.72046 0.16742 0.29621 0.0
C771 C 0.7095 0.16788 0.31487 0.0
C772 C 0.73691 0.15647 0.26344 0.0
C773 C 0.73826 0.16317 0.22584 0.0
C774 C 0.74627 0.1496 0.27785 0.0
C775 C 0.74574 0.14288 0.31863 0.0
C776 C 0.74304 0.14832 0.35802 0.0
C777 C 0.74254 0.14192 0.39632 0.0
C778 C 0.7448 0.13008 0.39569 0.0
C779 C 0.7476 0.12463 0.35677 0.0
C780 C 0.74811 0.13098 0.31837 0.0
C781 C 0.78673 0.16817 0.17877 0.0
C782 C 0.79211 0.15822 0.16228 0.0
C783 C 0.77556 0.16763 0.19563 0.0
C784 C 0.76955 0.15712 0.19662 0.0
C785 C 0.77479 0.14721 0.17948 0.0
C786 C 0.78593 0.14777 0.16208 0.0
C787 C 0.758 0.15645 0.21717 0.0
C788 C 0.75663 0.14957 0.25417 0.0
C789 C 0.74866 0.16325 0.20258 0.0
C790 C 0.74948 0.1704 0.16284 0.0
C791 C 0.75278 0.16542 0.12323 0.0
C792 C 0.75362 0.17221 0.08599 0.0
C793 C 0.75111 0.18398 0.08788 0.0
C794 C 0.74773 0.18899 0.127 0.0
C795 C 0.74689 0.18223 0.16435 0.0
H796 H 0.75177 0.18923 0.059 0.0
H797 H 0.7444 0.12514 0.42537 0.0
H798 H 0.61092 0.04675 0.92714 0.0
H799 H 0.61251 0.02782 0.96163 0.0
H800 H 0.57542 0.02605 0.97219 0.0
H801 H 0.57382 0.04512 0.93933 0.0
H802 H 0.58417 0.01998 0.04482 0.0
H803 H 0.59183 0.00953 0.89731 0.0
H804 H 0.60166 0.01046 0.82662 0.0
H805 H 0.63386 0.00182 0.88721 0.0
H806 H 0.62424 0.00098 0.95838 0.0
H807 H 0.57727 0.95964 0.08055 0.0
H808 H 0.57753 0.97919 0.05098 0.0
H809 H 0.61424 0.98111 0.0723 0.0
H810 H 0.61404 0.96155 0.10254 0.0
H811 H 0.60697 0.98726 0.98675 0.0
H812 H 0.59821 0.99657 0.13439 0.0
H813 H 0.58755 0.99498 0.20316 0.0
H814 H 0.55627 0.00508 0.13907 0.0
H815 H 0.56672 0.00657 0.06975 0.0
C816 C 0.6031 0.04225 0.93628 0.0
C817 C 0.59224 0.04744 0.93051 0.0
C818 C 0.60401 0.03141 0.95596 0.0
C819 C 0.59408 0.02543 0.96937 0.0
C820 C 0.58322 0.03049 0.96243 0.0
C821 C 0.58232 0.04138 0.94341 0.0
C822 C 0.59493 0.01414 0.99224 0.0
C823 C 0.58905 0.0128 0.03173 0.0
C824 C 0.60153 0.00481 0.97596 0.0
C825 C 0.60734 0.00532 0.93323 0.0
C826 C 0.60102 0.00792 0.89561 0.0
C827 C 0.60655 0.00841 0.85545 0.0
C828 C 0.61838 0.00623 0.85245 0.0
C829 C 0.6247 0.00352 0.8896 0.0
C830 C 0.61921 0.00303 0.92984 0.0
C831 C 0.58538 0.96427 0.07953 0.0
C832 C 0.59563 0.95904 0.09395 0.0
C833 C 0.58551 0.97545 0.06264 0.0
C834 C 0.59591 0.98159 0.05944 0.0
C835 C 0.60614 0.9765 0.0745 0.0
C836 C 0.60599 0.96536 0.09203 0.0
C837 C 0.59609 0.99313 0.0387 0.0
C838 C 0.60216 0.9945 0.99975 0.0
C839 C 0.58953 0.00243 0.0551 0.0
C840 C 0.58323 0.00158 0.09679 0.0
C841 C 0.58904 0.99835 0.13488 0.0
C842 C 0.58304 0.99749 0.17398 0.0
C843 C 0.57123 0.9999 0.17546 0.0
C844 C 0.56541 0.00321 0.13786 0.0
C845 C 0.57137 0.00407 0.09867 0.0
H846 H 0.5666 0.99923 0.20577 0.0
H847 H 0.62265 0.00661 0.82133 0.0
H848 H 0.70955 0.64804 0.63723 0.0
H849 H 0.72927 0.64723 0.66598 0.0
H850 H 0.71919 0.66938 0.77172 0.0
H851 H 0.69981 0.67069 0.74207 0.0
H852 H 0.73842 0.67621 0.74666 0.0
H853 H 0.72359 0.63873 0.78093 0.0
H854 H 0.71465 0.61982 0.76625 0.0
H855 H 0.74261 0.61109 0.68119 0.0
H856 H 0.75165 0.63002 0.69497 0.0
H857 H 0.78916 0.64498 0.868 0.0
H858 H 0.76922 0.64517 0.84159 0.0
H859 H 0.77862 0.67016 0.74432 0.0
H860 H 0.79835 0.67031 0.77131 0.0
H861 H 0.75952 0.63946 0.76855 0.0
H862 H 0.75687 0.68799 0.72198 0.0
H863 H 0.76471 0.70666 0.74661 0.0
H864 H 0.76963 0.69285 0.87421 0.0
H865 H 0.76168 0.67416 0.85052 0.0
C866 C 0.71158 0.65274 0.66655 0.0
C867 C 0.70313 0.65947 0.68722 0.0
C868 C 0.72284 0.65221 0.68317 0.0
C869 C 0.72575 0.65814 0.72143 0.0
C870 C 0.71725 0.66478 0.74208 0.0
C871 C 0.70613 0.66551 0.72506 0.0
C872 C 0.73764 0.65771 0.73984 0.0
C873 C 0.743 0.66815 0.75138 0.0
C874 C 0.74363 0.64722 0.74695 0.0
C875 C 0.73823 0.63583 0.73865 0.0
C876 C 0.72779 0.63281 0.75886 0.0
C877 C 0.72271 0.62208 0.75074 0.0
C878 C 0.72805 0.61427 0.72271 0.0
C879 C 0.73848 0.61716 0.70284 0.0
C880 C 0.74359 0.62788 0.71082 0.0
C881 C 0.78694 0.65059 0.84123 0.0
C882 C 0.79534 0.65771 0.82208 0.0
C883 C 0.77555 0.65064 0.826 0.0
C884 C 0.77235 0.65778 0.79125 0.0
C885 C 0.78078 0.66476 0.77176 0.0
C886 C 0.79209 0.66482 0.78724 0.0
C887 C 0.76024 0.65794 0.77514 0.0
C888 C 0.75489 0.64749 0.76385 0.0
C889 C 0.75408 0.66839 0.76967 0.0
C890 C 0.75878 0.67964 0.78431 0.0
C891 C 0.75959 0.68896 0.75533 0.0
C892 C 0.76406 0.69954 0.76912 0.0
C893 C 0.7677 0.70093 0.81191 0.0
C894 C 0.76685 0.69175 0.84104 0.0
C895 C 0.76237 0.68116 0.82742 0.0
H896 H 0.77117 0.70913 0.82251 0.0
H897 H 0.7241 0.60597 0.71647 0.0
H898 H 0.61301 0.46139 0.9002 0.0
H899 H 0.61416 0.48085 0.93085 0.0
H900 H 0.57812 0.47921 0.96495 0.0
H901 H 0.57689 0.45979 0.93462 0.0
H902 H 0.58449 0.50039 0.92989 0.0
H903 H 0.59785 0.47376 0.03977 0.0
H904 H 0.61039 0.45836 0.06832 0.0
H905 H 0.64025 0.4795 0.04632 0.0
H906 H 0.62788 0.49498 0.01705 0.0
H907 H 0.57695 0.54358 0.0833 0.0
H908 H 0.57834 0.52462 0.04965 0.0
H909 H 0.61517 0.5288 0.03697 0.0
H910 H 0.61388 0.54776 0.07198 0.0
H911 H 0.61008 0.50694 0.05634 0.0
H912 H 0.59714 0.53404 0.95096 0.0
H913 H 0.585 0.5496 0.92124 0.0
H914 H 0.55507 0.52795 0.93169 0.0
H915 H 0.56701 0.5123 0.96207 0.0
C916 C 0.60529 0.46523 0.91363 0.0
C917 C 0.59487 0.45901 0.91512 0.0
C918 C 0.60598 0.47633 0.93138 0.0
C919 C 0.59626 0.48141 0.95064 0.0
C920 C 0.58574 0.47543 0.95037 0.0
C921 C 0.58506 0.46432 0.93306 0.0
C922 C 0.59705 0.49279 0.97247 0.0
C923 C 0.59001 0.5018 0.95773 0.0
C924 C 0.60453 0.49473 0.00798 0.0
C925 C 0.61196 0.48546 0.02577 0.0
C926 C 0.6071 0.47508 0.04068 0.0
C927 C 0.61417 0.46635 0.05706 0.0
C928 C 0.62611 0.46793 0.05901 0.0
C929 C 0.631 0.47828 0.04471 0.0
C930 C 0.62396 0.48703 0.02825 0.0
C931 C 0.58538 0.54042 0.07392 0.0
C932 C 0.5953 0.54723 0.07993 0.0
C933 C 0.58616 0.52959 0.05441 0.0
C934 C 0.59682 0.52541 0.03962 0.0
C935 C 0.60684 0.53189 0.04776 0.0
C936 C 0.60609 0.54271 0.06787 0.0
C937 C 0.59733 0.51451 0.01429 0.0
C938 C 0.60463 0.50559 0.02827 0.0
C939 C 0.59016 0.51267 0.97774 0.0
C940 C 0.58296 0.52202 0.95911 0.0
C941 C 0.58796 0.53262 0.94718 0.0
C942 C 0.58111 0.54145 0.93019 0.0
C943 C 0.56927 0.53977 0.92466 0.0
C944 C 0.56425 0.52924 0.93602 0.0
C945 C 0.57105 0.52038 0.95308 0.0
H946 H 0.56398 0.54662 0.91151 0.0
H947 H 0.63158 0.46116 0.07171 0.0
H948 H 0.7136 0.35137 0.37482 0.0
H949 H 0.73307 0.351 0.34387 0.0
H950 H 0.71991 0.33362 0.23059 0.0
H951 H 0.70068 0.33348 0.26213 0.0
H952 H 0.7388 0.32433 0.24923 0.0
H953 H 0.72696 0.36374 0.23426 0.0
H954 H 0.71978 0.38267 0.25887 0.0
H955 H 0.74908 0.38622 0.34288 0.0
H956 H 0.75636 0.36725 0.31915 0.0
H957 H 0.7913 0.355 0.1365 0.0
H958 H 0.77145 0.35534 0.16374 0.0
H959 H 0.77939 0.32727 0.2504 0.0
H960 H 0.79904 0.32667 0.22276 0.0
H961 H 0.76279 0.3597 0.24071 0.0
H962 H 0.75629 0.31041 0.26621 0.0
H963 H 0.76248 0.29209 0.23285 0.0
H964 H 0.76794 0.30938 0.1117 0.0
H965 H 0.76163 0.32776 0.14414 0.0
C966 C 0.7149 0.34743 0.34341 0.0
C967 C 0.70559 0.34245 0.321 0.0
C968 C 0.72601 0.34729 0.32557 0.0
C969 C 0.72798 0.34243 0.28447 0.0
C970 C 0.71868 0.3374 0.26233 0.0
C971 C 0.70765 0.33734 0.28045 0.0
C972 C 0.73968 0.34247 0.26436 0.0
C973 C 0.74402 0.33208 0.24745 0.0
C974 C 0.74647 0.3526 0.26103 0.0
C975 C 0.74214 0.36403 0.27523 0.0
C976 C 0.73183 0.36853 0.25819 0.0
C977 C 0.72775 0.37927 0.27195 0.0
C978 C 0.73396 0.38563 0.3025 0.0
C979 C 0.74427 0.38128 0.31927 0.0
C980 C 0.74838 0.37054 0.30565 0.0
C981 C 0.78878 0.34882 0.16105 0.0
C982 C 0.79677 0.34076 0.1772 0.0
C983 C 0.77745 0.34907 0.17677 0.0
C984 C 0.77387 0.34126 0.20887 0.0
C985 C 0.78185 0.33324 0.22508 0.0
C986 C 0.79312 0.33293 0.20924 0.0
C987 C 0.76188 0.34156 0.22601 0.0
C988 C 0.75752 0.35197 0.24248 0.0
C989 C 0.75491 0.33153 0.2277 0.0
C990 C 0.7586 0.32048 0.20778 0.0
C991 C 0.75877 0.31029 0.23241 0.0
C992 C 0.76231 0.2999 0.21367 0.0
C993 C 0.76564 0.29958 0.17023 0.0
C994 C 0.7654 0.30964 0.14539 0.0
C995 C 0.76186 0.32005 0.16396 0.0
H996 H 0.76838 0.29153 0.15579 0.0
H997 H 0.73079 0.39394 0.31312 0.0
H998 H 0.8902 0.45866 0.58879 0.0
H999 H 0.88986 0.47797 0.55633 0.0
H1000 H 0.92704 0.47868 0.55603 0.0
H1001 H 0.92748 0.45928 0.58741 0.0
H1002 H 0.9147 0.50026 0.5846 0.0
H1003 H 0.91662 0.47184 0.46876 0.0
H1004 H 0.90972 0.45457 0.42997 0.0
H1005 H 0.87676 0.47064 0.41026 0.0
H1006 H 0.88342 0.48795 0.44957 0.0
H1007 H 0.92789 0.54518 0.44116 0.0
H1008 H 0.92714 0.52641 0.47678 0.0
H1009 H 0.89162 0.52246 0.43764 0.0
H1010 H 0.89243 0.5411 0.40068 0.0
H1011 H 0.90191 0.5026 0.43152 0.0
H1012 H 0.8991 0.53105 0.54179 0.0
H1013 H 0.90448 0.54841 0.58323 0.0
H1014 H 0.93684 0.53285 0.61736 0.0
H1015 H 0.93172 0.51544 0.57562 0.0
C1016 C 0.8983 0.46301 0.58256 0.0
C1017 C 0.90887 0.45745 0.59054 0.0
C1018 C 0.89809 0.47401 0.56386 0.0
C1019 C 0.90843 0.47969 0.55362 0.0
C1020 C 0.91898 0.47442 0.56373 0.0
C1021 C 0.91921 0.46334 0.58157 0.0
C1022 C 0.90829 0.49078 0.52985 0.0
C1023 C 0.91202 0.5008 0.55102 0.0
C1024 C 0.90443 0.49147 0.48652 0.0
C1025 C 0.90047 0.48112 0.46254 0.0
C1026 C 0.90786 0.47165 0.45651 0.0
C1027 C 0.90401 0.46186 0.43436 0.0
C1028 C 0.8928 0.46149 0.41778 0.0
C1029 C 0.88543 0.47093 0.42319 0.0
C1030 C 0.88925 0.48073 0.44538 0.0
C1031 C 0.91995 0.54027 0.43969 0.0
C1032 C 0.9102 0.54469 0.41829 0.0
C1033 C 0.9195 0.52956 0.46038 0.0
C1034 C 0.90923 0.52313 0.4609 0.0
C1035 C 0.89963 0.52728 0.43797 0.0
C1036 C 0.90011 0.53795 0.41678 0.0
C1037 C 0.90848 0.51219 0.48601 0.0
C1038 C 0.90456 0.50216 0.46515 0.0
C1039 C 0.91196 0.51154 0.52997 0.0
C1040 C 0.91507 0.52198 0.55523 0.0
C1041 C 0.9074 0.53136 0.55787 0.0
C1042 C 0.9104 0.54121 0.58145 0.0
C1043 C 0.92101 0.54175 0.60282 0.0
C1044 C 0.92863 0.53242 0.60074 0.0
C1045 C 0.92568 0.52256 0.57716 0.0
H1046 H 0.92331 0.54938 0.62107 0.0
H1047 H 0.88983 0.45391 0.40064 0.0
H1048 H 0.30049 0.32705 0.2714 0.0
H1049 H 0.28119 0.32803 0.24067 0.0
H1050 H 0.27251 0.35555 0.32891 0.0
H1051 H 0.29206 0.35489 0.3589 0.0
H1052 H 0.26107 0.32416 0.26982 0.0
H1053 H 0.2525 0.37328 0.28404 0.0
H1054 H 0.26342 0.39156 0.28378 0.0
H1055 H 0.29039 0.3756 0.20969 0.0
H1056 H 0.27957 0.35728 0.20904 0.0
H1057 H 0.20203 0.33407 0.23733 0.0
H1058 H 0.22168 0.33397 0.26507 0.0
H1059 H 0.23319 0.35266 0.15229 0.0
H1060 H 0.2133 0.35326 0.1252 0.0
H1061 H 0.24369 0.36084 0.21901 0.0
H1062 H 0.23755 0.32254 0.1663 0.0
H1063 H 0.2275 0.30388 0.15865 0.0
H1064 H 0.23175 0.29742 0.29451 0.0
H1065 H 0.24168 0.3161 0.30311 0.0
C1066 C 0.2945 0.33331 0.28444 0.0
C1067 C 0.29786 0.34092 0.31761 0.0
C1068 C 0.28342 0.33385 0.26679 0.0
C1069 C 0.27538 0.34195 0.28201 0.0
C1070 C 0.27861 0.34938 0.3159 0.0
C1071 C 0.28978 0.34895 0.33326 0.0
C1072 C 0.26364 0.34246 0.26244 0.0
C1073 C 0.25728 0.33219 0.25874 0.0
C1074 C 0.25874 0.35288 0.24705 0.0
C1075 C 0.26527 0.36388 0.24691 0.0
C1076 C 0.26074 0.37369 0.26758 0.0
C1077 C 0.26692 0.38405 0.26761 0.0
C1078 C 0.27761 0.38473 0.24686 0.0
C1079 C 0.28213 0.37505 0.2259 0.0
C1080 C 0.27598 0.36467 0.22574 0.0
C1081 C 0.20873 0.33813 0.21825 0.0
C1082 C 0.20612 0.34358 0.1788 0.0
C1083 C 0.22 0.33803 0.23413 0.0
C1084 C 0.22901 0.34308 0.2104 0.0
C1085 C 0.22641 0.34866 0.17116 0.0
C1086 C 0.21505 0.34896 0.15561 0.0
C1087 C 0.24109 0.34255 0.22679 0.0
C1088 C 0.24749 0.35281 0.23002 0.0
C1089 C 0.24619 0.33205 0.24056 0.0
C1090 C 0.24028 0.32077 0.2354 0.0
C1091 C 0.23628 0.31717 0.19459 0.0
C1092 C 0.23061 0.30659 0.19008 0.0
C1093 C 0.22897 0.29949 0.22609 0.0
C1094 C 0.23302 0.30294 0.26666 0.0
C1095 C 0.23868 0.31351 0.27136 0.0
H1096 H 0.22459 0.2913 0.22259 0.0
H1097 H 0.28238 0.39275 0.24694 0.0
H1098 H 0.42246 0.54209 0.07036 0.0
H1099 H 0.42141 0.52295 0.03808 0.0
H1100 H 0.38441 0.52303 0.05305 0.0
H1101 H 0.38542 0.54217 0.08663 0.0
H1102 H 0.39275 0.50209 0.0693 0.0
H1103 H 0.3969 0.5293 0.95497 0.0
H1104 H 0.40541 0.54573 0.9156 0.0
H1105 H 0.43751 0.52748 0.90448 0.0
H1106 H 0.42924 0.511 0.94436 0.0
H1107 H 0.38715 0.45497 0.91984 0.0
H1108 H 0.38533 0.47446 0.94996 0.0
H1109 H 0.42236 0.47691 0.95972 0.0
H1110 H 0.42426 0.45747 0.93007 0.0
H1111 H 0.41194 0.49696 0.927 0.0
H1112 H 0.40751 0.47027 0.04658 0.0
H1113 H 0.39846 0.45396 0.08488 0.0
H1114 H 0.36585 0.47153 0.08327 0.0
H1115 H 0.37469 0.48789 0.04437 0.0
C1116 C 0.41409 0.53801 0.06726 0.0
C1117 C 0.40401 0.54372 0.08073 0.0
C1118 C 0.4135 0.52707 0.04852 0.0
C1119 C 0.4028 0.52166 0.04203 0.0
C1120 C 0.39275 0.52707 0.05738 0.0
C1121 C 0.39335 0.53801 0.07663 0.0
C1122 C 0.40218 0.51052 0.0182 0.0
C1123 C 0.39677 0.50103 0.03786 0.0
C1124 C 0.40748 0.50908 0.97721 0.0
C1125 C 0.41248 0.51895 0.95297 0.0
C1126 C 0.4058 0.52882 0.94439 0.0
C1127 C 0.41058 0.53814 0.92195 0.0
C1128 C 0.422 0.53766 0.90762 0.0
C1129 C 0.42866 0.52784 0.91563 0.0
C1130 C 0.42393 0.51851 0.93811 0.0
C1131 C 0.39491 0.45972 0.92787 0.0
C1132 C 0.40585 0.45465 0.9227 0.0
C1133 C 0.39384 0.47082 0.9453 0.0
C1134 C 0.40371 0.47708 0.95744 0.0
C1135 C 0.41464 0.47222 0.95064 0.0
C1136 C 0.4157 0.4611 0.93377 0.0
C1137 C 0.40273 0.48854 0.97851 0.0
C1138 C 0.40782 0.49808 0.95824 0.0
C1139 C 0.39703 0.49005 0.01863 0.0
C1140 C 0.39173 0.48024 0.04212 0.0
C1141 C 0.39839 0.47061 0.05405 0.0
C1142 C 0.3933 0.46137 0.07593 0.0
C1143 C 0.38157 0.46169 0.08638 0.0
C1144 C 0.37492 0.47128 0.07507 0.0
C1145 C 0.37997 0.48054 0.05313 0.0
H1146 H 0.37765 0.45453 0.10334 0.0
H1147 H 0.42568 0.54488 0.89025 0.0
H1148 H 0.28872 0.64306 0.63803 0.0
H1149 H 0.26876 0.64292 0.66422 0.0
H1150 H 0.27621 0.6721 0.74625 0.0
H1151 H 0.29594 0.67251 0.71949 0.0
H1152 H 0.2594 0.63961 0.7405 0.0
H1153 H 0.25332 0.68926 0.75707 0.0
H1154 H 0.2598 0.70708 0.72082 0.0
H1155 H 0.26569 0.68819 0.60336 0.0
H1156 H 0.25909 0.6703 0.6387 0.0
H1157 H 0.20982 0.65018 0.87043 0.0
H1158 H 0.22931 0.64952 0.83974 0.0
H1159 H 0.21692 0.66651 0.72438 0.0
H1160 H 0.19772 0.66777 0.75592 0.0
H1161 H 0.23584 0.67531 0.74163 0.0
H1162 H 0.22347 0.63599 0.73225 0.0
H1163 H 0.21592 0.61742 0.7591 0.0
H1164 H 0.24487 0.61428 0.84501 0.0
H1165 H 0.25252 0.6329 0.81904 0.0
C1166 C 0.28607 0.6495 0.66138 0.0
C1167 C 0.29393 0.65785 0.67633 0.0
C1168 C 0.27467 0.64937 0.6765 0.0
C1169 C 0.27091 0.65758 0.70686 0.0
C1170 C 0.2788 0.66582 0.72217 0.0
C1171 C 0.29012 0.66602 0.70685 0.0
C1172 C 0.2588 0.65757 0.72289 0.0
C1173 C 0.25422 0.6474 0.74063 0.0
C1174 C 0.25193 0.66766 0.72234 0.0
C1175 C 0.25582 0.67842 0.70071 0.0
C1176 C 0.25596 0.68892 0.72346 0.0
C1177 C 0.25965 0.69903 0.70308 0.0
C1178 C 0.26319 0.69876 0.65986 0.0
C1179 C 0.26299 0.68838 0.63688 0.0
C1180 C 0.25929 0.67825 0.65709 0.0
C1181 C 0.2113 0.65379 0.83859 0.0
C1182 C 0.20225 0.65907 0.81568 0.0
C1183 C 0.22242 0.65333 0.82087 0.0
C1184 C 0.22462 0.65781 0.77932 0.0
C1185 C 0.21554 0.66303 0.7565 0.0
C1186 C 0.20453 0.66374 0.77459 0.0
C1187 C 0.23638 0.65735 0.75969 0.0
C1188 C 0.24095 0.66747 0.74142 0.0
C1189 C 0.24306 0.6471 0.7584 0.0
C1190 C 0.2385 0.63589 0.77397 0.0
C1191 C 0.22818 0.63137 0.75706 0.0
C1192 C 0.2239 0.62084 0.7721 0.0
C1193 C 0.2299 0.61469 0.80382 0.0
C1194 C 0.24022 0.61906 0.82048 0.0
C1195 C 0.24454 0.62959 0.80559 0.0
H1196 H 0.22657 0.60654 0.81541 0.0
H1197 H 0.26605 0.7066 0.64415 0.0
H1198 H 0.11104 0.45903 0.59083 0.0
H1199 H 0.1117 0.47814 0.55749 0.0
H1200 H 0.07459 0.47798 0.54578 0.0
H1201 H 0.07395 0.4587 0.57739 0.0
H1202 H 0.08314 0.48442 0.47351 0.0
H1203 H 0.09012 0.49552 0.62074 0.0
H1204 H 0.09987 0.49519 0.69166 0.0
H1205 H 0.13174 0.50516 0.63154 0.0
H1206 H 0.12222 0.50541 0.56014 0.0
H1207 H 0.07403 0.54406 0.43181 0.0
H1208 H 0.07495 0.52475 0.46325 0.0
H1209 H 0.11188 0.52444 0.44633 0.0
H1210 H 0.11103 0.5438 0.41443 0.0
H1211 H 0.10452 0.51822 0.53061 0.0
H1212 H 0.09648 0.50797 0.38314 0.0
H1213 H 0.08592 0.50889 0.31396 0.0
H1214 H 0.05489 0.49791 0.3777 0.0
H1215 H 0.06523 0.49708 0.44741 0.0
C1216 C 0.10301 0.46316 0.58185 0.0
C1217 C 0.09244 0.45735 0.58673 0.0
C1218 C 0.10339 0.47411 0.5628 0.0
C1219 C 0.09319 0.47958 0.54922 0.0
C1220 C 0.08259 0.47394 0.55567 0.0
C1221 C 0.08223 0.46293 0.57399 0.0
C1222 C 0.09353 0.49087 0.52614 0.0
C1223 C 0.08769 0.49184 0.48642 0.0
C1224 C 0.09973 0.5005 0.54215 0.0
C1225 C 0.10548 0.50036 0.58504 0.0
C1226 C 0.09923 0.49755 0.6226 0.0
C1227 C 0.10471 0.4974 0.66289 0.0
C1228 C 0.11642 0.50012 0.66609 0.0
C1229 C 0.12267 0.50303 0.629 0.0
C1230 C 0.11724 0.50319 0.58862 0.0
C1231 C 0.08234 0.53984 0.43424 0.0
C1232 C 0.09246 0.54547 0.42057 0.0
C1233 C 0.08285 0.5288 0.45219 0.0
C1234 C 0.09348 0.52317 0.45709 0.0
C1235 C 0.10359 0.52865 0.44283 0.0
C1236 C 0.10308 0.53967 0.42435 0.0
C1237 C 0.094 0.51174 0.4786 0.0
C1238 C 0.10001 0.51075 0.51785 0.0
C1239 C 0.08784 0.50213 0.46251 0.0
C1240 C 0.08161 0.50256 0.42057 0.0
C1241 C 0.08738 0.50584 0.38248 0.0
C1242 C 0.08144 0.50633 0.34315 0.0
C1243 C 0.06973 0.50348 0.34145 0.0
C1244 C 0.06395 0.50012 0.37907 0.0
C1245 C 0.06985 0.49963 0.41848 0.0
H1246 H 0.06515 0.50386 0.31097 0.0
H1247 H 0.12065 0.5 0.69731 0.0
H1248 H 0.15852 0.11888 0.05525 0.0
H1249 H 0.14983 0.10994 0.99182 0.0
H1250 H 0.14865 0.14304 0.92808 0.0
H1251 H 0.15696 0.15215 0.99257 0.0
H1252 H 0.12953 0.13256 0.91348 0.0
H1253 H 0.16889 0.1214 0.90072 0.0
H1254 H 0.18759 0.11336 0.92402 0.0
H1255 H 0.17176 0.08035 0.94499 0.0
H1256 H 0.15293 0.08822 0.92235 0.0
H1257 H 0.13231 0.09269 0.70928 0.0
H1258 H 0.1416 0.10219 0.77031 0.0
H1259 H 0.10925 0.10241 0.83943 0.0
H1260 H 0.09976 0.09329 0.77737 0.0
H1261 H 0.14587 0.09706 0.84817 0.0
H1262 H 0.10765 0.12542 0.90641 0.0
H1263 H 0.09048 0.13506 0.87607 0.0
H1264 H 0.10676 0.13659 0.7514 0.0
H1265 H 0.12408 0.1271 0.78112 0.0
C1266 C 0.15651 0.12427 0.02763 0.0
C1267 C 0.1585 0.13623 0.02888 0.0
C1268 C 0.15156 0.11912 0.99121 0.0
C1269 C 0.14873 0.12576 0.9547 0.0
C1270 C 0.15077 0.13772 0.95577 0.0
C1271 C 0.15557 0.14291 0.99256 0.0
C1272 C 0.1434 0.12021 0.91599 0.0
C1273 C 0.13313 0.12481 0.89917 0.0
C1274 C 0.14817 0.11021 0.89659 0.0
C1275 C 0.15948 0.10543 0.91019 0.0
C1276 C 0.16938 0.11244 0.9106 0.0
C1277 C 0.18 0.10792 0.92364 0.0
C1278 C 0.18085 0.09636 0.93607 0.0
C1279 C 0.17108 0.0893 0.93539 0.0
C1280 C 0.16044 0.09379 0.92241 0.0
C1281 C 0.12715 0.09471 0.73751 0.0
C1282 C 0.11527 0.09226 0.73837 0.0
C1283 C 0.1325 0.10015 0.77251 0.0
C1284 C 0.12613 0.1032 0.80942 0.0
C1285 C 0.11432 0.10041 0.81099 0.0
C1286 C 0.10891 0.0951 0.77562 0.0
C1287 C 0.13192 0.10933 0.84592 0.0
C1288 C 0.14227 0.10482 0.86243 0.0
C1289 C 0.12743 0.11963 0.86401 0.0
C1290 C 0.1171 0.12544 0.84592 0.0
C1291 C 0.10757 0.12785 0.87256 0.0
C1292 C 0.09782 0.13328 0.85547 0.0
C1293 C 0.09751 0.1364 0.8118 0.0
C1294 C 0.10699 0.13413 0.78517 0.0
C1295 C 0.11677 0.12871 0.80212 0.0
H1296 H 0.08995 0.14059 0.79863 0.0
H1297 H 0.18909 0.09287 0.94616 0.0
H1298 H 0.17271 0.88164 0.98659 0.0
H1299 H 0.16277 0.89029 0.04835 0.0
H1300 H 0.14037 0.86067 0.05657 0.0
H1301 H 0.15041 0.85185 0.99489 0.0
H1302 H 0.12871 0.88256 0.05713 0.0
H1303 H 0.1596 0.86323 0.13087 0.0
H1304 H 0.17987 0.85791 0.14445 0.0
H1305 H 0.18833 0.89345 0.16735 0.0
H1306 H 0.16813 0.89901 0.15328 0.0
H1307 H 0.10297 0.90047 0.25687 0.0
H1308 H 0.11185 0.89002 0.19667 0.0
H1309 H 0.14042 0.91391 0.19759 0.0
H1310 H 0.1318 0.92407 0.25876 0.0
H1311 H 0.14853 0.89344 0.1934 0.0
H1312 H 0.11865 0.91335 0.11608 0.0
H1313 H 0.09875 0.9195 0.0998 0.0
H1314 H 0.08874 0.88421 0.0806 0.0
H1315 H 0.10855 0.87783 0.09731 0.0
C1316 C 0.16575 0.87689 0.0018 0.0
C1317 C 0.16236 0.86604 0.98593 0.0
C1318 C 0.16008 0.88185 0.0371 0.0
C1319 C 0.15084 0.87612 0.05704 0.0
C1320 C 0.14749 0.86523 0.04159 0.0
C1321 C 0.15327 0.86018 0.00658 0.0
C1322 C 0.14456 0.8817 0.09326 0.0
C1323 C 0.13296 0.88478 0.08729 0.0
C1324 C 0.15022 0.88487 0.13199 0.0
C1325 C 0.16237 0.88154 0.14065 0.0
C1326 C 0.1658 0.86992 0.13844 0.0
C1327 C 0.17728 0.86686 0.1463 0.0
C1328 C 0.18539 0.87534 0.15666 0.0
C1329 C 0.18204 0.88689 0.15928 0.0
C1330 C 0.17057 0.89 0.15142 0.0
C1331 C 0.11106 0.90358 0.24378 0.0
C1332 C 0.11668 0.91309 0.26257 0.0
C1333 C 0.11613 0.89761 0.20926 0.0
C1334 C 0.12681 0.90119 0.19225 0.0
C1335 C 0.13222 0.91092 0.2102 0.0
C1336 C 0.12725 0.91676 0.24506 0.0
C1337 C 0.13265 0.89453 0.15724 0.0
C1338 C 0.1442 0.89121 0.16342 0.0
C1339 C 0.12697 0.89129 0.11846 0.0
C1340 C 0.11505 0.8951 0.10842 0.0
C1341 C 0.11218 0.90689 0.10874 0.0
C1342 C 0.10092 0.91042 0.09936 0.0
C1343 C 0.09248 0.90225 0.0893 0.0
C1344 C 0.09528 0.89053 0.08847 0.0
C1345 C 0.10653 0.88695 0.09786 0.0
H1346 H 0.08377 0.905 0.08204 0.0
H1347 H 0.19427 0.87295 0.16274 0.0
H1348 H 0.37052 0.90614 0.19121 0.0
H1349 H 0.36113 0.89755 0.25389 0.0
H1350 H 0.39293 0.90006 0.32602 0.0
H1351 H 0.40255 0.90817 0.26223 0.0
H1352 H 0.38382 0.88063 0.34339 0.0
H1353 H 0.36888 0.91894 0.342 0.0
H1354 H 0.35966 0.93627 0.31126 0.0
H1355 H 0.32879 0.91692 0.28607 0.0
H1356 H 0.33788 0.89943 0.31617 0.0
H1357 H 0.3404 0.88346 0.53648 0.0
H1358 H 0.35001 0.89245 0.47503 0.0
H1359 H 0.354 0.85911 0.41476 0.0
H1360 H 0.34471 0.84997 0.47717 0.0
H1361 H 0.34579 0.89474 0.39455 0.0
H1362 H 0.37857 0.85836 0.35519 0.0
H1363 H 0.3891 0.84285 0.39303 0.0
H1364 H 0.38664 0.86163 0.51245 0.0
H1365 H 0.37623 0.8773 0.47523 0.0
C1366 C 0.37551 0.90495 0.2205 0.0
C1367 C 0.38726 0.90793 0.22187 0.0
C1368 C 0.3701 0.90006 0.25649 0.0
C1369 C 0.37622 0.89833 0.29519 0.0
C1370 C 0.38798 0.90131 0.29665 0.0
C1371 C 0.39347 0.90601 0.26025 0.0
C1372 C 0.37037 0.8932 0.33367 0.0
C1373 C 0.37551 0.88375 0.35456 0.0
C1374 C 0.35961 0.89735 0.34903 0.0
C1375 C 0.3541 0.90785 0.33101 0.0
C1376 C 0.36015 0.91837 0.32964 0.0
C1377 C 0.35495 0.92822 0.31237 0.0
C1378 C 0.34366 0.92769 0.29663 0.0
C1379 C 0.33754 0.91731 0.29823 0.0
C1380 C 0.34271 0.90743 0.31544 0.0
C1381 C 0.34326 0.87801 0.51008 0.0
C1382 C 0.34183 0.86597 0.51186 0.0
C1383 C 0.34875 0.88319 0.47485 0.0
C1384 C 0.3529 0.87648 0.44039 0.0
C1385 C 0.35111 0.86448 0.44133 0.0
C1386 C 0.34572 0.85926 0.47688 0.0
C1387 C 0.35918 0.8821 0.40393 0.0
C1388 C 0.3541 0.89163 0.38335 0.0
C1389 C 0.37017 0.87828 0.38988 0.0
C1390 C 0.37651 0.86894 0.41248 0.0
C1391 C 0.38031 0.85919 0.38949 0.0
C1392 C 0.38625 0.85037 0.41083 0.0
C1393 C 0.3885 0.85124 0.45514 0.0
C1394 C 0.38485 0.86094 0.47817 0.0
C1395 C 0.37892 0.86979 0.45698 0.0
H1396 H 0.3931 0.8444 0.47161 0.0
H1397 H 0.33964 0.93533 0.28327 0.0
H1398 H 0.37098 0.07736 0.75703 0.0
H1399 H 0.36254 0.08753 0.69541 0.0
H1400 H 0.39144 0.11095 0.69362 0.0
H1401 H 0.40002 0.10074 0.7553 0.0
H1402 H 0.36978 0.12208 0.69149 0.0
H1403 H 0.38956 0.09189 0.6159 0.0
H1404 H 0.39514 0.07179 0.60032 0.0
H1405 H 0.35978 0.06319 0.57434 0.0
H1406 H 0.35396 0.0832 0.59036 0.0
H1407 H 0.35206 0.14905 0.49373 0.0
H1408 H 0.3626 0.13977 0.55287 0.0
H1409 H 0.33875 0.11118 0.54951 0.0
H1410 H 0.32848 0.12022 0.4895 0.0
H1411 H 0.35939 0.10312 0.55296 0.0
H1412 H 0.33912 0.13237 0.63255 0.0
H1413 H 0.33284 0.15213 0.65036 0.0
H1414 H 0.36806 0.16219 0.67125 0.0
H1415 H 0.37456 0.14251 0.65302 0.0
C1416 C 0.37563 0.08459 0.74322 0.0
C1417 C 0.38619 0.08823 0.76101 0.0
C1418 C 0.37079 0.09038 0.70796 0.0
C1419 C 0.37637 0.09999 0.68987 0.0
C1420 C 0.38699 0.10356 0.70712 0.0
C1421 C 0.39192 0.09767 0.74215 0.0
C1422 C 0.37084 0.10647 0.65395 0.0
C1423 C 0.36767 0.11801 0.66085 0.0
C1424 C 0.36783 0.10107 0.61451 0.0
C1425 C 0.37131 0.08903 0.60469 0.0
C1426 C 0.38296 0.08569 0.6072 0.0
C1427 C 0.38617 0.07432 0.59823 0.0
C1428 C 0.37782 0.06621 0.58644 0.0
C1429 C 0.36624 0.06947 0.58351 0.0
C1430 C 0.36298 0.08083 0.59249 0.0
C1431 C 0.34898 0.14086 0.50602 0.0
C1432 C 0.33943 0.13537 0.48693 0.0
C1433 C 0.355 0.13556 0.53993 0.0
C1434 C 0.35146 0.12477 0.556 0.0
C1435 C 0.34172 0.11946 0.53765 0.0
C1436 C 0.33581 0.12467 0.50344 0.0
C1437 C 0.35811 0.11874 0.59059 0.0
C1438 C 0.36152 0.10726 0.58343 0.0
C1439 C 0.36122 0.12417 0.62999 0.0
C1440 C 0.35733 0.136 0.64096 0.0
C1441 C 0.34553 0.13882 0.6406 0.0
C1442 C 0.34193 0.15 0.65084 0.0
C1443 C 0.35005 0.15842 0.6618 0.0
C1444 C 0.36179 0.15566 0.66268 0.0
C1445 C 0.36543 0.1445 0.65243 0.0
H1446 H 0.34725 0.16707 0.66972 0.0
H1447 H 0.38032 0.05741 0.5795 0.0
H1448 H 0.83268 0.87656 0.98822 0.0
H1449 H 0.84272 0.88593 0.04809 0.0
H1450 H 0.86631 0.85721 0.05602 0.0
H1451 H 0.85596 0.84757 0.99706 0.0
H1452 H 0.86183 0.86429 0.13378 0.0
H1453 H 0.8735 0.8833 0.00422 0.0
H1454 H 0.87104 0.89346 0.93471 0.0
H1455 H 0.85345 0.9211 0.99947 0.0
H1456 H 0.85566 0.91104 0.06931 0.0
H1457 H 0.90365 0.89646 0.25549 0.0
H1458 H 0.89478 0.88635 0.19413 0.0
H1459 H 0.86566 0.90944 0.19953 0.0
H1460 H 0.87435 0.91944 0.26121 0.0
H1461 H 0.87428 0.9049 0.11368 0.0
H1462 H 0.8625 0.88469 0.24355 0.0
H1463 H 0.86602 0.87433 0.31198 0.0
H1464 H 0.88552 0.8486 0.24385 0.0
H1465 H 0.88225 0.85892 0.17506 0.0
C1466 C 0.83993 0.87217 0.00301 0.0
C1467 C 0.84357 0.86135 0.98771 0.0
C1468 C 0.84574 0.87759 0.03706 0.0
C1469 C 0.8555 0.87245 0.05593 0.0
C1470 C 0.85886 0.86141 0.04187 0.0
C1471 C 0.85293 0.85589 0.00818 0.0
C1472 C 0.86227 0.87869 0.08968 0.0
C1473 C 0.8647 0.8731 0.12899 0.0
C1474 C 0.86598 0.89025 0.08387 0.0
C1475 C 0.86466 0.89636 0.04195 0.0
C1476 C 0.86903 0.89151 0.00359 0.0
C1477 C 0.8677 0.89725 0.96414 0.0
C1478 C 0.86207 0.9079 0.96266 0.0
C1479 C 0.85779 0.91285 0.00066 0.0
C1480 C 0.8591 0.90713 0.0402 0.0
C1481 C 0.89544 0.89948 0.24321 0.0
C1482 C 0.88969 0.90874 0.26323 0.0
C1483 C 0.89036 0.89366 0.20833 0.0
C1484 C 0.87953 0.8971 0.19253 0.0
C1485 C 0.87402 0.90664 0.21126 0.0
C1486 C 0.87899 0.91233 0.24653 0.0
C1487 C 0.87369 0.89052 0.15755 0.0
C1488 C 0.87146 0.89606 0.11811 0.0
C1489 C 0.87033 0.87887 0.16298 0.0
C1490 C 0.87225 0.87264 0.20426 0.0
C1491 C 0.86763 0.87688 0.24322 0.0
C1492 C 0.86956 0.87101 0.28206 0.0
C1493 C 0.87602 0.86084 0.28229 0.0
C1494 C 0.88053 0.8565 0.24364 0.0
C1495 C 0.87864 0.86235 0.20472 0.0
H1496 H 0.87751 0.8563 0.31238 0.0
H1497 H 0.86104 0.91234 0.93209 0.0
H1498 H 0.85094 0.14991 0.00357 0.0
H1499 H 0.86145 0.14065 0.94429 0.0
H1500 H 0.83925 0.11088 0.95435 0.0
H1501 H 0.82903 0.11991 0.01451 0.0
H1502 H 0.8602 0.10386 0.9483 0.0
H1503 H 0.83756 0.13139 0.86915 0.0
H1504 H 0.83002 0.15064 0.85036 0.0
H1505 H 0.86439 0.16241 0.82304 0.0
H1506 H 0.87215 0.14326 0.84221 0.0
H1507 H 0.87044 0.07767 0.74336 0.0
H1508 H 0.86228 0.08772 0.80581 0.0
H1509 H 0.89046 0.11199 0.80319 0.0
H1510 H 0.8988 0.10185 0.74085 0.0
H1511 H 0.86806 0.1223 0.80652 0.0
H1512 H 0.89016 0.09366 0.88164 0.0
H1513 H 0.89689 0.07397 0.89805 0.0
H1514 H 0.8623 0.06384 0.93029 0.0
H1515 H 0.85533 0.08344 0.91347 0.0
C1516 C 0.84822 0.14145 0.99277 0.0
C1517 C 0.83915 0.13565 0.01373 0.0
C1518 C 0.85422 0.13616 0.95877 0.0
C1519 C 0.85112 0.12506 0.94447 0.0
C1520 C 0.84187 0.1194 0.9648 0.0
C1521 C 0.83599 0.12461 0.9991 0.0
C1522 C 0.8577 0.11912 0.90948 0.0
C1523 C 0.86178 0.10788 0.91715 0.0
C1524 C 0.86008 0.12441 0.8691 0.0
C1525 C 0.85544 0.13593 0.85759 0.0
C1526 C 0.84352 0.13811 0.85948 0.0
C1527 C 0.8392 0.149 0.84869 0.0
C1528 C 0.84673 0.15775 0.83564 0.0
C1529 C 0.85858 0.15562 0.83323 0.0
C1530 C 0.86293 0.14475 0.84402 0.0
C1531 C 0.875 0.08505 0.7564 0.0
C1532 C 0.88529 0.08895 0.73722 0.0
C1533 C 0.87032 0.09078 0.79211 0.0
C1534 C 0.87577 0.1006 0.80914 0.0
C1535 C 0.88613 0.10443 0.79051 0.0
C1536 C 0.89092 0.09858 0.75511 0.0
C1537 C 0.87033 0.10706 0.84531 0.0
C1538 C 0.86651 0.11837 0.83784 0.0
C1539 C 0.86804 0.10179 0.88566 0.0
C1540 C 0.87221 0.09 0.89592 0.0
C1541 C 0.88397 0.08721 0.89187 0.0
C1542 C 0.88783 0.07607 0.90132 0.0
C1543 C 0.88002 0.06765 0.91511 0.0
C1544 C 0.86834 0.07037 0.91957 0.0
C1545 C 0.86443 0.0815 0.91013 0.0
H1546 H 0.88303 0.05903 0.92241 0.0
H1547 H 0.84337 0.16617 0.82729 0.0
H1548 H 0.59826 0.0923 0.73123 0.0
H1549 H 0.60745 0.10054 0.66679 0.0
H1550 H 0.64052 0.09918 0.73076 0.0
H1551 H 0.63151 0.09056 0.79412 0.0
H1552 H 0.61803 0.11965 0.65265 0.0
H1553 H 0.66227 0.09597 0.66153 0.0
H1554 H 0.66999 0.07705 0.68369 0.0
H1555 H 0.63686 0.0615 0.66188 0.0
H1556 H 0.62899 0.0803 0.63906 0.0
H1557 H 0.65749 0.14957 0.51805 0.0
H1558 H 0.64827 0.13999 0.57969 0.0
H1559 H 0.64875 0.10771 0.51008 0.0
H1560 H 0.6584 0.1171 0.44957 0.0
H1561 H 0.65357 0.10329 0.58766 0.0
H1562 H 0.62372 0.12536 0.52056 0.0
H1563 H 0.61436 0.14278 0.49117 0.0
H1564 H 0.61577 0.15878 0.61638 0.0
H1565 H 0.62528 0.1415 0.6464 0.0
C1566 C 0.60751 0.09362 0.73125 0.0
C1567 C 0.61416 0.09067 0.76765 0.0
C1568 C 0.61275 0.09839 0.6945 0.0
C1569 C 0.62473 0.10037 0.69355 0.0
C1570 C 0.63133 0.09749 0.73008 0.0
C1571 C 0.62614 0.09259 0.76646 0.0
C1572 C 0.63032 0.10572 0.655 0.0
C1573 C 0.62579 0.11605 0.63838 0.0
C1574 C 0.64032 0.10095 0.63566 0.0
C1575 C 0.64501 0.08958 0.64899 0.0
C1576 C 0.65664 0.08851 0.66131 0.0
C1577 C 0.66105 0.0778 0.67401 0.0
C1578 C 0.65391 0.06809 0.67432 0.0
C1579 C 0.64237 0.06904 0.66179 0.0
C1580 C 0.63793 0.07972 0.64902 0.0
C1581 C 0.65572 0.14041 0.51613 0.0
C1582 C 0.65868 0.1341 0.47891 0.0
C1583 C 0.65036 0.13495 0.55124 0.0
C1584 C 0.6476 0.12314 0.54939 0.0
C1585 C 0.65077 0.11682 0.5125 0.0
C1586 C 0.65629 0.12221 0.47781 0.0
C1587 C 0.64137 0.1173 0.58554 0.0
C1588 C 0.6458 0.10689 0.60183 0.0
C1589 C 0.63105 0.12179 0.60351 0.0
C1590 C 0.62531 0.13218 0.58561 0.0
C1591 C 0.62211 0.13262 0.54175 0.0
C1592 C 0.61676 0.14247 0.52499 0.0
C1593 C 0.6145 0.15189 0.55187 0.0
C1594 C 0.61754 0.15148 0.59559 0.0
C1595 C 0.6229 0.14166 0.6125 0.0
H1596 H 0.61036 0.1595 0.53883 0.0
H1597 H 0.65734 0.05981 0.68419 0.0
H1598 H 0.6503 0.85174 0.5156 0.0
H1599 H 0.64012 0.86108 0.45572 0.0
H1600 H 0.66548 0.88835 0.45486 0.0
H1601 H 0.6754 0.87928 0.51566 0.0
H1602 H 0.64537 0.8975 0.45147 0.0
H1603 H 0.66355 0.86657 0.37392 0.0
H1604 H 0.66864 0.84637 0.35783 0.0
H1605 H 0.63282 0.83812 0.34029 0.0
H1606 H 0.6275 0.85825 0.35683 0.0
H1607 H 0.63369 0.92236 0.24594 0.0
H1608 H 0.64215 0.91208 0.30723 0.0
H1609 H 0.61198 0.89041 0.31515 0.0
H1610 H 0.60338 0.90076 0.25382 0.0
H1611 H 0.63312 0.87808 0.31603 0.0
H1612 H 0.61548 0.90987 0.39009 0.0
H1613 H 0.61111 0.93036 0.40376 0.0
H1614 H 0.64707 0.93723 0.42516 0.0
H1615 H 0.65168 0.9168 0.41101 0.0
C1616 C 0.65379 0.85964 0.5022 0.0
C1617 C 0.66366 0.86477 0.52038 0.0
C1618 C 0.64797 0.86497 0.46785 0.0
C1619 C 0.65204 0.87542 0.45042 0.0
C1620 C 0.66211 0.88034 0.46778 0.0
C1621 C 0.66782 0.87511 0.50245 0.0
C1622 C 0.64558 0.88155 0.41555 0.0
C1623 C 0.64284 0.89325 0.42165 0.0
C1624 C 0.64195 0.876 0.37701 0.0
C1625 C 0.64512 0.86389 0.36708 0.0
C1626 C 0.65675 0.86043 0.36698 0.0
C1627 C 0.65968 0.84899 0.35771 0.0
C1628 C 0.65106 0.84096 0.34817 0.0
C1629 C 0.63949 0.84435 0.34776 0.0
C1630 C 0.63652 0.85577 0.35705 0.0
C1631 C 0.62878 0.91549 0.26097 0.0
C1632 C 0.61784 0.9124 0.24507 0.0
C1633 C 0.63363 0.90963 0.29604 0.0
C1634 C 0.62769 0.90049 0.31581 0.0
C1635 C 0.61671 0.89743 0.30033 0.0
C1636 C 0.61178 0.90341 0.2655 0.0
C1637 C 0.63313 0.894 0.35188 0.0
C1638 C 0.63564 0.88225 0.346 0.0
C1639 C 0.63668 0.89953 0.39041 0.0
C1640 C 0.63393 0.91182 0.39912 0.0
C1641 C 0.62247 0.91577 0.39736 0.0
C1642 C 0.61994 0.92737 0.40527 0.0
C1643 C 0.62881 0.9351 0.41522 0.0
C1644 C 0.64021 0.93123 0.4174 0.0
C1645 C 0.64278 0.91964 0.40949 0.0
H1646 H 0.62684 0.94408 0.42133 0.0
H1647 H 0.65334 0.83211 0.341 0.0
H1648 H 0.65793 0.65268 0.48536 0.0
H1649 H 0.64916 0.64331 0.4223 0.0
H1650 H 0.65183 0.6103 0.48608 0.0
H1651 H 0.66101 0.6195 0.54798 0.0
H1652 H 0.65663 0.60716 0.40742 0.0
H1653 H 0.62579 0.62653 0.48011 0.0
H1654 H 0.61554 0.643 0.51288 0.0
H1655 H 0.61538 0.66046 0.39035 0.0
H1656 H 0.62577 0.64415 0.35697 0.0
H1657 H 0.60107 0.59361 0.26926 0.0
H1658 H 0.61026 0.60222 0.33299 0.0
H1659 H 0.6427 0.60353 0.26461 0.0
H1660 H 0.6337 0.59456 0.20183 0.0
H1661 H 0.61973 0.62191 0.34793 0.0
H1662 H 0.66523 0.60123 0.33119 0.0
H1663 H 0.67398 0.58307 0.30561 0.0
H1664 H 0.64215 0.56517 0.329 0.0
H1665 H 0.63326 0.58319 0.35524 0.0
C1666 C 0.65674 0.64341 0.48568 0.0
C1667 C 0.66016 0.63684 0.52171 0.0
C1668 C 0.65164 0.63806 0.44975 0.0
C1669 C 0.64961 0.62609 0.44958 0.0
C1670 C 0.65328 0.61953 0.48521 0.0
C1671 C 0.65853 0.62483 0.52072 0.0
C1672 C 0.64359 0.62034 0.41273 0.0
C1673 C 0.64857 0.61042 0.39442 0.0
C1674 C 0.63291 0.62436 0.39623 0.0
C1675 C 0.62666 0.63417 0.41616 0.0
C1676 C 0.62364 0.63391 0.46023 0.0
C1677 C 0.6178 0.64321 0.4789 0.0
C1678 C 0.61484 0.65278 0.45374 0.0
C1679 C 0.6177 0.65305 0.40982 0.0
C1680 C 0.62355 0.64378 0.391 0.0
C1681 C 0.61018 0.59563 0.26804 0.0
C1682 C 0.61667 0.59329 0.23062 0.0
C1683 C 0.61542 0.60061 0.30441 0.0
C1684 C 0.62723 0.60341 0.30397 0.0
C1685 C 0.63366 0.60121 0.26634 0.0
C1686 C 0.62848 0.5961 0.2303 0.0
C1687 C 0.63283 0.60881 0.34245 0.0
C1688 C 0.62779 0.61866 0.36095 0.0
C1689 C 0.64325 0.6045 0.36016 0.0
C1690 C 0.64856 0.59359 0.34476 0.0
C1691 C 0.66012 0.59341 0.33102 0.0
C1692 C 0.6651 0.58314 0.31638 0.0
C1693 C 0.65861 0.57298 0.31555 0.0
C1694 C 0.64715 0.57306 0.32949 0.0
C1695 C 0.64213 0.5833 0.3442 0.0
H1696 H 0.66248 0.56505 0.30418 0.0
H1697 H 0.61032 0.65997 0.46825 0.0
H1698 H 0.63185 0.42188 0.76357 0.0
H1699 H 0.64031 0.41165 0.70212 0.0
H1700 H 0.61035 0.38968 0.69506 0.0
H1701 H 0.60173 0.4 0.75646 0.0
H1702 H 0.63195 0.37764 0.69404 0.0
H1703 H 0.61317 0.40881 0.62017 0.0
H1704 H 0.60819 0.42914 0.60623 0.0
H1705 H 0.64386 0.43693 0.58267 0.0
H1706 H 0.64908 0.41666 0.59709 0.0
H1707 H 0.64906 0.35143 0.49409 0.0
H1708 H 0.63887 0.36057 0.55435 0.0
H1709 H 0.66348 0.38852 0.55327 0.0
H1710 H 0.6734 0.37964 0.49212 0.0
H1711 H 0.64313 0.39712 0.55744 0.0
H1712 H 0.66245 0.36685 0.63478 0.0
H1713 H 0.66816 0.34683 0.6511 0.0
H1714 H 0.63265 0.33764 0.67078 0.0
H1715 H 0.62672 0.35759 0.65402 0.0
C1716 C 0.627 0.41495 0.74871 0.0
C1717 C 0.6161 0.41177 0.76482 0.0
C1718 C 0.63184 0.40911 0.71357 0.0
C1719 C 0.62595 0.39991 0.694 0.0
C1720 C 0.61503 0.39675 0.70974 0.0
C1721 C 0.61009 0.40271 0.7446 0.0
C1722 C 0.63139 0.39348 0.65778 0.0
C1723 C 0.63423 0.38182 0.66382 0.0
C1724 C 0.63464 0.39904 0.61892 0.0
C1725 C 0.63152 0.41123 0.61009 0.0
C1726 C 0.61996 0.41487 0.61238 0.0
C1727 C 0.6171 0.42639 0.60432 0.0
C1728 C 0.62571 0.43433 0.59367 0.0
C1729 C 0.6372 0.43077 0.59096 0.0
C1730 C 0.64012 0.41927 0.59903 0.0
C1731 C 0.65239 0.35943 0.50715 0.0
C1732 C 0.66204 0.3648 0.48832 0.0
C1733 C 0.64656 0.36466 0.54171 0.0
C1734 C 0.65041 0.37524 0.5587 0.0
C1735 C 0.66027 0.3804 0.5407 0.0
C1736 C 0.66599 0.37528 0.50584 0.0
C1737 C 0.64391 0.38126 0.59374 0.0
C1738 C 0.64083 0.39287 0.58749 0.0
C1739 C 0.64058 0.37568 0.63261 0.0
C1740 C 0.64413 0.36368 0.64268 0.0
C1741 C 0.65585 0.36054 0.64224 0.0
C1742 C 0.65913 0.34921 0.65163 0.0
C1743 C 0.65077 0.34096 0.66184 0.0
C1744 C 0.63912 0.34403 0.66279 0.0
C1745 C 0.63579 0.35535 0.65338 0.0
H1746 H 0.65333 0.33219 0.66911 0.0
H1747 H 0.62347 0.44324 0.58744 0.0
H1748 H 0.87157 0.42083 0.74286 0.0
H1749 H 0.8631 0.41059 0.80427 0.0
H1750 H 0.89318 0.38882 0.81214 0.0
H1751 H 0.90183 0.39916 0.75083 0.0
H1752 H 0.87162 0.37667 0.81191 0.0
H1753 H 0.89003 0.40792 0.88706 0.0
H1754 H 0.89474 0.4283 0.90143 0.0
H1755 H 0.85894 0.43563 0.92413 0.0
H1756 H 0.85399 0.41531 0.90929 0.0
H1757 H 0.85457 0.34976 0.01029 0.0
H1758 H 0.86468 0.35916 0.95041 0.0
H1759 H 0.84 0.38703 0.95339 0.0
H1760 H 0.83019 0.3779 0.01431 0.0
H1761 H 0.86015 0.39578 0.94888 0.0
H1762 H 0.84111 0.36558 0.8705 0.0
H1763 H 0.8355 0.34557 0.85335 0.0
H1764 H 0.87105 0.33662 0.83346 0.0
H1765 H 0.87689 0.35655 0.85105 0.0
C1766 C 0.87646 0.41395 0.75794 0.0
C1767 C 0.88739 0.41082 0.74204 0.0
C1768 C 0.8716 0.40811 0.79305 0.0
C1769 C 0.87751 0.39895 0.81276 0.0
C1770 C 0.88848 0.39587 0.79734 0.0
C1771 C 0.89343 0.40183 0.76253 0.0
C1772 C 0.87202 0.39243 0.84865 0.0
C1773 C 0.86927 0.38077 0.84222 0.0
C1774 C 0.86867 0.39789 0.88756 0.0
C1775 C 0.87163 0.41011 0.89669 0.0
C1776 C 0.88315 0.41389 0.89476 0.0
C1777 C 0.88586 0.42543 0.90306 0.0
C1778 C 0.87714 0.43326 0.91359 0.0
C1779 C 0.86568 0.42956 0.91594 0.0
C1780 C 0.86292 0.41803 0.90763 0.0
C1781 C 0.85121 0.3578 0.99771 0.0
C1782 C 0.84158 0.36308 0.01701 0.0
C1783 C 0.85698 0.36318 0.96337 0.0
C1784 C 0.85309 0.37381 0.947 0.0
C1785 C 0.84324 0.37888 0.96546 0.0
C1786 C 0.83759 0.37362 1.00019 0.0
C1787 C 0.85953 0.37997 0.91214 0.0
C1788 C 0.8625 0.3916 0.91874 0.0
C1789 C 0.86292 0.37451 0.87312 0.0
C1790 C 0.85944 0.36252 0.86256 0.0
C1791 C 0.84774 0.35932 0.86282 0.0
C1792 C 0.84452 0.348 0.85295 0.0
C1793 C 0.85292 0.33982 0.84245 0.0
C1794 C 0.86456 0.34296 0.84168 0.0
C1795 C 0.86782 0.35427 0.85156 0.0
H1796 H 0.85041 0.33106 0.83481 0.0
H1797 H 0.87926 0.44219 0.92001 0.0
H1798 H 0.90181 0.60151 0.24795 0.0
H1799 H 0.89288 0.61146 0.18637 0.0
H1800 H 0.86422 0.58777 0.19073 0.0
H1801 H 0.87298 0.5779 0.25249 0.0
H1802 H 0.87263 0.59235 0.10575 0.0
H1803 H 0.8608 0.6128 0.23505 0.0
H1804 H 0.86427 0.6234 0.30299 0.0
H1805 H 0.88341 0.64916 0.23355 0.0
H1806 H 0.88019 0.6386 0.16523 0.0
H1807 H 0.83011 0.61966 0.98204 0.0
H1808 H 0.84057 0.61071 0.04177 0.0
H1809 H 0.86398 0.63964 0.04549 0.0
H1810 H 0.85325 0.64884 0.98649 0.0
H1811 H 0.85976 0.63287 0.12455 0.0
H1812 H 0.87126 0.61363 0.99535 0.0
H1813 H 0.86872 0.60325 0.92638 0.0
H1814 H 0.85173 0.57554 0.99303 0.0
H1815 H 0.85403 0.58584 0.06237 0.0
C1816 C 0.89368 0.59833 0.2354 0.0
C1817 C 0.88808 0.58893 0.25513 0.0
C1818 C 0.88857 0.60406 0.2004 0.0
C1819 C 0.87784 0.60041 0.18425 0.0
C1820 C 0.87249 0.59074 0.20274 0.0
C1821 C 0.8775 0.58512 0.23807 0.0
C1822 C 0.87195 0.60685 0.14909 0.0
C1823 C 0.86973 0.60118 0.10991 0.0
C1824 C 0.86848 0.61848 0.15413 0.0
C1825 C 0.87037 0.62484 0.19513 0.0
C1826 C 0.86584 0.62067 0.23433 0.0
C1827 C 0.86774 0.62668 0.27289 0.0
C1828 C 0.87409 0.63693 0.27261 0.0
C1829 C 0.87851 0.64121 0.23373 0.0
C1830 C 0.87665 0.63522 0.19508 0.0
C1831 C 0.83741 0.62418 0.99585 0.0
C1832 C 0.84089 0.63493 0.97933 0.0
C1833 C 0.84345 0.61901 0.02984 0.0
C1834 C 0.85327 0.62434 0.04747 0.0
C1835 C 0.85648 0.63531 0.03226 0.0
C1836 C 0.85034 0.64057 0.99856 0.0
C1837 C 0.86026 0.61833 0.08111 0.0
C1838 C 0.86273 0.62408 0.12006 0.0
C1839 C 0.8641 0.60681 0.07562 0.0
C1840 C 0.86273 0.60056 0.03401 0.0
C1841 C 0.86691 0.60536 0.99526 0.0
C1842 C 0.86553 0.59949 0.95611 0.0
C1843 C 0.86005 0.58875 0.95531 0.0
C1844 C 0.85596 0.58386 0.99369 0.0
C1845 C 0.85732 0.58971 0.03294 0.0
H1846 H 0.85898 0.58421 0.92496 0.0
H1847 H 0.87555 0.64157 0.3025 0.0
H1848 H 0.33982 0.38222 0.45405 0.0
H1849 H 0.34913 0.39152 0.51547 0.0
H1850 H 0.3527 0.35849 0.5785 0.0
H1851 H 0.3438 0.34904 0.51589 0.0
H1852 H 0.34457 0.39448 0.59428 0.0
H1853 H 0.3763 0.35796 0.64261 0.0
H1854 H 0.38694 0.34196 0.60826 0.0
H1855 H 0.38604 0.35971 0.48635 0.0
H1856 H 0.37553 0.37587 0.52009 0.0
H1857 H 0.36745 0.40725 0.79944 0.0
H1858 H 0.35857 0.3982 0.73658 0.0
H1859 H 0.39105 0.39981 0.66849 0.0
H1860 H 0.40013 0.40844 0.73244 0.0
H1861 H 0.38183 0.38024 0.65242 0.0
H1862 H 0.36766 0.41874 0.64664 0.0
H1863 H 0.35852 0.43656 0.67352 0.0
H1864 H 0.327 0.41813 0.69688 0.0
H1865 H 0.33599 0.40015 0.67066 0.0
C1866 C 0.34253 0.37691 0.48103 0.0
C1867 C 0.3411 0.36487 0.47997 0.0
C1868 C 0.34786 0.38226 0.51627 0.0
C1869 C 0.3518 0.37573 0.55156 0.0
C1870 C 0.35 0.36372 0.55129 0.0
C1871 C 0.34483 0.35833 0.51563 0.0
C1872 C 0.35783 0.38155 0.58825 0.0
C1873 C 0.35271 0.39134 0.60696 0.0
C1874 C 0.36861 0.37769 0.60431 0.0
C1875 C 0.37502 0.36806 0.58381 0.0
C1876 C 0.37841 0.35846 0.60851 0.0
C1877 C 0.38441 0.34937 0.58914 0.0
C1878 C 0.38713 0.3498 0.54512 0.0
C1879 C 0.38389 0.35936 0.5204 0.0
C1880 C 0.3779 0.36849 0.53962 0.0
C1881 C 0.37271 0.40576 0.77101 0.0
C1882 C 0.38449 0.40865 0.77083 0.0
C1883 C 0.36759 0.40061 0.73492 0.0
C1884 C 0.37405 0.39849 0.69729 0.0
C1885 C 0.38585 0.40136 0.69703 0.0
C1886 C 0.39103 0.40635 0.73352 0.0
C1887 C 0.36851 0.39311 0.65866 0.0
C1888 C 0.37369 0.38339 0.63969 0.0
C1889 C 0.35799 0.39729 0.64127 0.0
C1890 C 0.35254 0.40808 0.65703 0.0
C1891 C 0.3588 0.41847 0.65779 0.0
C1892 C 0.35364 0.4286 0.67287 0.0
C1893 C 0.34219 0.42847 0.687 0.0
C1894 C 0.33587 0.41821 0.68597 0.0
C1895 C 0.34099 0.40805 0.67096 0.0
H1896 H 0.33822 0.43632 0.69865 0.0
H1897 H 0.39177 0.34275 0.53018 0.0
H1898 H 0.33442 0.61775 0.53339 0.0
H1899 H 0.34454 0.60936 0.47175 0.0
H1900 H 0.35557 0.64324 0.43171 0.0
H1901 H 0.34541 0.65177 0.49358 0.0
H1902 H 0.34853 0.63004 0.36289 0.0
H1903 H 0.37429 0.6264 0.48224 0.0
H1904 H 0.38019 0.62122 0.55639 0.0
H1905 H 0.3729 0.58558 0.53031 0.0
H1906 H 0.36678 0.59057 0.45617 0.0
H1907 H 0.39966 0.59582 0.25998 0.0
H1908 H 0.39138 0.60622 0.32175 0.0
H1909 H 0.35719 0.59658 0.28024 0.0
H1910 H 0.36534 0.58627 0.21861 0.0
H1911 H 0.37794 0.59975 0.38989 0.0
H1912 H 0.33902 0.61915 0.2966 0.0
H1913 H 0.33421 0.62542 0.22249 0.0
H1914 H 0.37005 0.63171 0.19645 0.0
H1915 H 0.37506 0.62564 0.27057 0.0
C1916 C 0.33891 0.62346 0.51134 0.0
C1917 C 0.33914 0.63544 0.51854 0.0
C1918 C 0.34475 0.61863 0.47621 0.0
C1919 C 0.35096 0.62565 0.44748 0.0
C1920 C 0.35088 0.63766 0.4536 0.0
C1921 C 0.34506 0.64251 0.48896 0.0
C1922 C 0.35764 0.62037 0.41153 0.0
C1923 C 0.35497 0.62343 0.36878 0.0
C1924 C 0.36625 0.61193 0.41924 0.0
C1925 C 0.36998 0.60887 0.46373 0.0
C1926 C 0.37386 0.61747 0.49241 0.0
C1927 C 0.37726 0.61457 0.53443 0.0
C1928 C 0.3769 0.60308 0.54809 0.0
C1929 C 0.37316 0.59447 0.5197 0.0
C1930 C 0.36974 0.59733 0.47766 0.0
C1931 C 0.39039 0.59584 0.26423 0.0
C1932 C 0.38317 0.59025 0.23422 0.0
C1933 C 0.38567 0.60179 0.29954 0.0
C1934 C 0.37365 0.60233 0.30524 0.0
C1935 C 0.36647 0.59645 0.2761 0.0
C1936 C 0.37116 0.59049 0.24096 0.0
C1937 C 0.36854 0.60915 0.34122 0.0
C1938 C 0.37152 0.60638 0.38398 0.0
C1939 C 0.36037 0.618 0.33353 0.0
C1940 C 0.35742 0.62184 0.28905 0.0
C1941 C 0.34587 0.62192 0.27513 0.0
C1942 C 0.34311 0.62544 0.2331 0.0
C1943 C 0.35182 0.62893 0.20474 0.0
C1944 C 0.36331 0.62896 0.2184 0.0
C1945 C 0.36612 0.62547 0.2604 0.0
H1946 H 0.34967 0.63164 0.17221 0.0
H1947 H 0.37953 0.60086 0.58064 0.0
H1948 H 0.15719 0.6525 0.01795 0.0
H1949 H 0.14875 0.64339 0.08223 0.0
H1950 H 0.15108 0.61014 0.02003 0.0
H1951 H 0.15996 0.61908 0.95703 0.0
H1952 H 0.12999 0.63257 0.09695 0.0
H1953 H 0.15424 0.58863 0.08968 0.0
H1954 H 0.17331 0.58111 0.0682 0.0
H1955 H 0.1884 0.61445 0.08953 0.0
H1956 H 0.16947 0.62214 0.11167 0.0
H1957 H 0.10046 0.59291 0.23235 0.0
H1958 H 0.10988 0.60244 0.17103 0.0
H1959 H 0.14224 0.60204 0.24022 0.0
H1960 H 0.13301 0.59205 0.30028 0.0
H1961 H 0.14672 0.59737 0.16315 0.0
H1962 H 0.12433 0.62707 0.22931 0.0
H1963 H 0.10683 0.63636 0.25841 0.0
H1964 H 0.09088 0.63465 0.13317 0.0
H1965 H 0.10823 0.62521 0.10343 0.0
C1966 C 0.15602 0.64323 0.0183 0.0
C1967 C 0.15937 0.6365 0.98261 0.0
C1968 C 0.15114 0.63803 0.05495 0.0
C1969 C 0.14941 0.62602 0.05644 0.0
C1970 C 0.1526 0.61936 0.02042 0.0
C1971 C 0.15765 0.6245 0.98423 0.0
C1972 C 0.14407 0.62045 0.09508 0.0
C1973 C 0.13368 0.6249 0.11149 0.0
C1974 C 0.14895 0.61055 0.11484 0.0
C1975 C 0.16041 0.60598 0.10194 0.0
C1976 C 0.16164 0.59434 0.08995 0.0
C1977 C 0.17242 0.59005 0.07762 0.0
C1978 C 0.18205 0.59731 0.07737 0.0
C1979 C 0.18093 0.60886 0.08958 0.0
C1980 C 0.17017 0.61319 0.10197 0.0
C1981 C 0.10959 0.5948 0.23426 0.0
C1982 C 0.11598 0.59171 0.27114 0.0
C1983 C 0.11497 0.60034 0.19934 0.0
C1984 C 0.12677 0.60317 0.20109 0.0
C1985 C 0.13315 0.59996 0.23781 0.0
C1986 C 0.12785 0.59424 0.27225 0.0
C1987 C 0.13256 0.60942 0.16485 0.0
C1988 C 0.14303 0.60507 0.14875 0.0
C1989 C 0.12798 0.61965 0.14653 0.0
C1990 C 0.11754 0.62534 0.16425 0.0
C1991 C 0.11706 0.6286 0.20805 0.0
C1992 C 0.10717 0.6339 0.22465 0.0
C1993 C 0.09774 0.63606 0.19768 0.0
C1994 C 0.09818 0.63295 0.15403 0.0
C1995 C 0.10805 0.62764 0.13727 0.0
H1996 H 0.09009 0.64017 0.21059 0.0
H1997 H 0.19039 0.59397 0.06779 0.0
H1998 H 0.10044 0.39928 0.74924 0.0
H1999 H 0.10969 0.38885 0.80873 0.0
H2000 H 0.13931 0.41129 0.79931 0.0
H2001 H 0.1303 0.42141 0.73887 0.0
H2002 H 0.1465 0.39046 0.80484 0.0
H2003 H 0.11874 0.41258 0.88468 0.0
H2004 H 0.09942 0.41991 0.90371 0.0
H2005 H 0.08792 0.38538 0.92964 0.0
H2006 H 0.10714 0.37783 0.91021 0.0
H2007 H 0.17255 0.37966 0.00972 0.0
H2008 H 0.16246 0.38803 0.94773 0.0
H2009 H 0.13861 0.35949 0.9476 0.0
H2010 H 0.14879 0.35093 0.00944 0.0
H2011 H 0.12803 0.38192 0.94602 0.0
H2012 H 0.15693 0.36035 0.86981 0.0
H2013 H 0.1767 0.35388 0.85332 0.0
H2014 H 0.18655 0.38869 0.82344 0.0
H2015 H 0.16686 0.3954 0.84037 0.0
C2016 C 0.10886 0.40208 0.76029 0.0
C2017 C 0.11463 0.41117 0.73937 0.0
C2018 C 0.11414 0.39612 0.79439 0.0
C2019 C 0.12521 0.3993 0.80886 0.0
C2020 C 0.13082 0.4086 0.7887 0.0
C2021 C 0.12562 0.41443 0.75426 0.0
C2022 C 0.1312 0.39269 0.84365 0.0
C2023 C 0.14248 0.38874 0.83587 0.0
C2024 C 0.1259 0.39012 0.88386 0.0
C2025 C 0.11434 0.39464 0.89553 0.0
C2026 C 0.11206 0.40655 0.8941 0.0
C2027 C 0.10113 0.41074 0.90502 0.0
C2028 C 0.09244 0.40311 0.91775 0.0
C2029 C 0.09466 0.39128 0.9197 0.0
C2030 C 0.10557 0.38704 0.90877 0.0
C2031 C 0.16526 0.37507 0.99616 0.0
C2032 C 0.16149 0.36462 0.01441 0.0
C2033 C 0.1595 0.37987 0.96073 0.0
C2034 C 0.14979 0.37438 0.9431 0.0
C2035 C 0.14609 0.36385 0.96078 0.0
C2036 C 0.15196 0.35895 0.99588 0.0
C2037 C 0.14332 0.37991 0.90721 0.0
C2038 C 0.13197 0.38363 0.91482 0.0
C2039 C 0.1486 0.38241 0.86707 0.0
C2040 C 0.16044 0.37839 0.85673 0.0
C2041 C 0.16333 0.36665 0.86009 0.0
C2042 C 0.17452 0.36293 0.85058 0.0
C2043 C 0.18288 0.37087 0.83744 0.0
C2044 C 0.18006 0.38255 0.83367 0.0
C2045 C 0.16889 0.38631 0.84316 0.0
H2046 H 0.19154 0.36798 0.83009 0.0
H2047 H 0.08398 0.40637 0.9262 0.0
H2048 H 0.16682 0.29649 0.203 0.0
H2049 H 0.16615 0.27587 0.18888 0.0
H2050 H 0.16147 0.28241 0.05268 0.0
H2051 H 0.16222 0.30332 0.06652 0.0
H2052 H 0.14686 0.26386 0.09112 0.0
H2053 H 0.18621 0.27468 0.07503 0.0
H2054 H 0.20426 0.28474 0.09389 0.0
H2055 H 0.20585 0.26628 0.21418 0.0
H2056 H 0.18769 0.25624 0.19637 0.0
H2057 H 0.15976 0.20219 0.07455 0.0
H2058 H 0.15951 0.223 0.05885 0.0
H2059 H 0.1677 0.23021 0.19228 0.0
H2060 H 0.16793 0.20968 0.20814 0.0
H2061 H 0.1817 0.24195 0.13534 0.0
H2062 H 0.14082 0.23373 0.15559 0.0
H2063 H 0.1225 0.22399 0.13786 0.0
H2064 H 0.12394 0.23759 0.00873 0.0
H2065 H 0.14236 0.2473 0.02559 0.0
C2066 C 0.16555 0.29362 0.17 0.0
C2067 C 0.16466 0.30157 0.13582 0.0
C2068 C 0.16518 0.2818 0.16201 0.0
C2069 C 0.16388 0.27764 0.11973 0.0
C2070 C 0.16251 0.28549 0.08554 0.0
C2071 C 0.16296 0.2974 0.09349 0.0
C2072 C 0.16453 0.26504 0.11213 0.0
C2073 C 0.15455 0.25905 0.09965 0.0
C2074 C 0.17456 0.2588 0.12357 0.0
C2075 C 0.18554 0.26474 0.13442 0.0
C2076 C 0.19036 0.27282 0.10565 0.0
C2077 C 0.20062 0.27852 0.11613 0.0
C2078 C 0.20619 0.27616 0.15521 0.0
C2079 C 0.20152 0.2681 0.1839 0.0
C2080 C 0.19125 0.26239 0.1736 0.0
C2081 C 0.16144 0.20824 0.1005 0.0
C2082 C 0.16388 0.20427 0.14257 0.0
C2083 C 0.16129 0.2201 0.0915 0.0
C2084 C 0.16362 0.22814 0.12441 0.0
C2085 C 0.16594 0.22416 0.16636 0.0
C2086 C 0.16602 0.21239 0.17538 0.0
C2087 C 0.16389 0.24073 0.11597 0.0
C2088 C 0.17409 0.24674 0.12554 0.0
C2089 C 0.15408 0.24693 0.10172 0.0
C2090 C 0.14303 0.2411 0.09165 0.0
C2091 C 0.13729 0.23455 0.1233 0.0
C2092 C 0.12687 0.22905 0.11344 0.0
C2093 C 0.12208 0.23013 0.07214 0.0
C2094 C 0.12767 0.23674 0.04067 0.0
C2095 C 0.1381 0.24224 0.05036 0.0
H2096 H 0.11402 0.22588 0.06457 0.0
H2097 H 0.21414 0.28056 0.16319 0.0
H2098 H 0.95886 0.91309 0.4575 0.0
H2099 H 0.97961 0.9127 0.44586 0.0
H2100 H 0.9743 0.9121 0.30778 0.0
H2101 H 0.95329 0.91241 0.31921 0.0
H2102 H 0.99265 0.89749 0.33631 0.0
H2103 H 0.98095 0.93675 0.34987 0.0
H2104 H 0.97067 0.95324 0.38229 0.0
H2105 H 0.98968 0.94885 0.50038 0.0
H2106 H 0.99995 0.93221 0.46891 0.0
H2107 H 0.05325 0.91428 0.31748 0.0
H2108 H 0.03226 0.91278 0.30745 0.0
H2109 H 0.02745 0.91482 0.44564 0.0
H2110 H 0.0482 0.91637 0.45585 0.0
H2111 H 0.01398 0.93009 0.40289 0.0
H2112 H 0.02407 0.88958 0.39145 0.0
H2113 H 0.03415 0.87291 0.35942 0.0
H2114 H 0.01829 0.87984 0.23657 0.0
H2115 H 0.00823 0.89666 0.26778 0.0
C2116 C 0.96205 0.91277 0.42458 0.0
C2117 C 0.95441 0.91291 0.38925 0.0
C2118 C 0.97394 0.91255 0.418 0.0
C2119 C 0.9785 0.91256 0.37597 0.0
C2120 C 0.97094 0.91213 0.34048 0.0
C2121 C 0.95895 0.91233 0.34707 0.0
C2122 C 0.99115 0.91369 0.36996 0.0
C2123 C 0.99732 0.90472 0.35006 0.0
C2124 C 0.99724 0.9231 0.38811 0.0
C2125 C 0.99117 0.93318 0.40708 0.0
C2126 C 0.98288 0.93925 0.38285 0.0
C2127 C 0.97706 0.94863 0.40105 0.0
C2128 C 0.97951 0.95208 0.44339 0.0
C2129 C 0.9878 0.94617 0.46759 0.0
C2130 C 0.99363 0.93677 0.44956 0.0
C2131 C 0.04771 0.91428 0.34568 0.0
C2132 C 0.0524 0.91551 0.38744 0.0
C2133 C 0.03572 0.91341 0.33991 0.0
C2134 C 0.02829 0.91372 0.37582 0.0
C2135 C 0.03301 0.91464 0.41745 0.0
C2136 C 0.04491 0.9155 0.42322 0.0
C2137 C 0.01554 0.91368 0.37077 0.0
C2138 C 0.00933 0.92293 0.38848 0.0
C2139 C 0.00947 0.90456 0.3505 0.0
C2140 C 0.01552 0.89446 0.33179 0.0
C2141 C 0.02282 0.88762 0.3575 0.0
C2142 C 0.02851 0.87812 0.33953 0.0
C2143 C 0.02689 0.87534 0.29595 0.0
C2144 C 0.01955 0.88202 0.2703 0.0
C2145 C 0.01385 0.89153 0.28811 0.0
H2146 H 0.0313 0.86799 0.2821 0.0
H2147 H 0.97499 0.95934 0.45743 0.0
H2148 H 0.33762 0.79929 0.55669 0.0
H2149 H 0.34012 0.77851 0.54348 0.0
H2150 H 0.3396 0.77227 0.68106 0.0
H2151 H 0.33708 0.7928 0.69441 0.0
H2152 H 0.35686 0.76018 0.63983 0.0
H2153 H 0.3158 0.76816 0.62177 0.0
H2154 H 0.29918 0.7777 0.58708 0.0
H2155 H 0.30913 0.76365 0.46404 0.0
H2156 H 0.3259 0.75414 0.49799 0.0
H2157 H 0.33696 0.70608 0.69829 0.0
H2158 H 0.33995 0.72641 0.68265 0.0
H2159 H 0.33941 0.71921 0.54574 0.0
H2160 H 0.33633 0.69862 0.56126 0.0
H2161 H 0.32575 0.7379 0.56783 0.0
H2162 H 0.36449 0.72644 0.59054 0.0
H2163 H 0.38073 0.71664 0.62658 0.0
H2164 H 0.37535 0.73707 0.74067 0.0
H2165 H 0.35896 0.74688 0.70559 0.0
C2166 C 0.33813 0.79347 0.58404 0.0
C2167 C 0.3371 0.79768 0.62658 0.0
C2168 C 0.33952 0.78162 0.57645 0.0
C2169 C 0.34002 0.77385 0.61132 0.0
C2170 C 0.33928 0.77811 0.65369 0.0
C2171 C 0.33778 0.78986 0.66124 0.0
C2172 C 0.34088 0.76121 0.60458 0.0
C2173 C 0.35009 0.75529 0.62398 0.0
C2174 C 0.33225 0.75487 0.58259 0.0
C2175 C 0.32218 0.76058 0.56227 0.0
C2176 C 0.3145 0.76719 0.58725 0.0
C2177 C 0.30504 0.77258 0.56775 0.0
C2178 C 0.30312 0.77132 0.52336 0.0
C2179 C 0.31064 0.76464 0.4984 0.0
C2180 C 0.32012 0.75925 0.51775 0.0
C2181 C 0.33754 0.70876 0.66478 0.0
C2182 C 0.33642 0.70071 0.631 0.0
C2183 C 0.33932 0.7204 0.6559 0.0
C2184 C 0.34006 0.72432 0.61304 0.0
C2185 C 0.33894 0.71635 0.57905 0.0
C2186 C 0.33721 0.7046 0.58797 0.0
C2187 C 0.34149 0.73685 0.60469 0.0
C2188 C 0.33273 0.74276 0.58252 0.0
C2189 C 0.35055 0.7432 0.62414 0.0
C2190 C 0.36046 0.73738 0.64542 0.0
C2191 C 0.36672 0.7288 0.62341 0.0
C2192 C 0.37596 0.72324 0.64367 0.0
C2193 C 0.37907 0.72622 0.6859 0.0
C2194 C 0.37294 0.73478 0.70794 0.0
C2195 C 0.36369 0.74036 0.68785 0.0
H2196 H 0.38622 0.72191 0.70153 0.0
H2197 H 0.29579 0.77548 0.50832 0.0
H2198 H 0.44758 0.08699 0.81316 0.0
H2199 H 0.46835 0.08972 0.80083 0.0
H2200 H 0.47398 0.09095 0.93876 0.0
H2201 H 0.45342 0.08839 0.95121 0.0
H2202 H 0.48642 0.10715 0.89892 0.0
H2203 H 0.47858 0.06623 0.8791 0.0
H2204 H 0.46918 0.04957 0.84406 0.0
H2205 H 0.48334 0.0597 0.7214 0.0
H2206 H 0.49271 0.0765 0.75569 0.0
H2207 H 0.54114 0.08746 0.95366 0.0
H2208 H 0.52065 0.09004 0.93973 0.0
H2209 H 0.5272 0.09092 0.8024 0.0
H2210 H 0.54794 0.0883 0.81617 0.0
H2211 H 0.50884 0.07649 0.82496 0.0
H2212 H 0.51996 0.11536 0.85033 0.0
H2213 H 0.52971 0.13139 0.88795 0.0
H2214 H 0.50959 0.12487 0.002 0.0
H2215 H 0.49984 0.10869 0.96532 0.0
C2216 C 0.45326 0.08795 0.84078 0.0
C2217 C 0.44886 0.08742 0.88316 0.0
C2218 C 0.46512 0.08946 0.8337 0.0
C2219 C 0.47274 0.09045 0.8689 0.0
C2220 C 0.46828 0.09024 0.91108 0.0
C2221 C 0.4565 0.08872 0.91814 0.0
C2222 C 0.48543 0.09131 0.86273 0.0
C2223 C 0.49133 0.10045 0.88271 0.0
C2224 C 0.49183 0.08278 0.84037 0.0
C2225 C 0.48621 0.07269 0.81982 0.0
C2226 C 0.4796 0.06495 0.84459 0.0
C2227 C 0.4743 0.05548 0.82489 0.0
C2228 C 0.47563 0.0536 0.7805 0.0
C2229 C 0.48229 0.06118 0.75575 0.0
C2230 C 0.4876 0.07068 0.7753 0.0
C2231 C 0.53828 0.08826 0.92042 0.0
C2232 C 0.54619 0.08769 0.886 0.0
C2233 C 0.52655 0.08979 0.91253 0.0
C2234 C 0.52241 0.09081 0.87006 0.0
C2235 C 0.53024 0.09021 0.83544 0.0
C2236 C 0.54207 0.08875 0.84336 0.0
C2237 C 0.50981 0.09209 0.86264 0.0
C2238 C 0.50394 0.08336 0.84014 0.0
C2239 C 0.50342 0.10097 0.8829 0.0
C2240 C 0.5092 0.11077 0.90507 0.0
C2241 C 0.51766 0.1173 0.88352 0.0
C2242 C 0.52319 0.12642 0.90467 0.0
C2243 C 0.52028 0.12914 0.94735 0.0
C2244 C 0.51183 0.12275 0.96894 0.0
C2245 C 0.50628 0.11362 0.94794 0.0
H2246 H 0.52457 0.1362 0.96367 0.0
H2247 H 0.47152 0.04626 0.7653 0.0
H2248 H 0.16672 0.79627 0.79735 0.0
H2249 H 0.16341 0.77579 0.80899 0.0
H2250 H 0.16022 0.78166 0.94629 0.0
H2251 H 0.16364 0.80238 0.93485 0.0
H2252 H 0.17433 0.76305 0.92693 0.0
H2253 H 0.13645 0.77535 0.89015 0.0
H2254 H 0.12157 0.78566 0.84824 0.0
H2255 H 0.13011 0.76579 0.73542 0.0
H2256 H 0.14515 0.75548 0.77646 0.0
H2257 H 0.16131 0.70209 0.93227 0.0
H2258 H 0.15945 0.72295 0.94477 0.0
H2259 H 0.1613 0.72893 0.80716 0.0
H2260 H 0.16297 0.7083 0.79449 0.0
H2261 H 0.14479 0.7418 0.84239 0.0
H2262 H 0.18485 0.73256 0.87483 0.0
H2263 H 0.20033 0.72255 0.9147 0.0
H2264 H 0.18794 0.73682 0.03421 0.0
H2265 H 0.17229 0.74681 0.99503 0.0
C2266 C 0.16525 0.79327 0.83008 0.0
C2267 C 0.16542 0.80098 0.86519 0.0
C2268 C 0.1633 0.78153 0.83665 0.0
C2269 C 0.16141 0.7772 0.87844 0.0
C2270 C 0.1616 0.78484 0.91374 0.0
C2271 C 0.16351 0.79666 0.90714 0.0
C2272 C 0.15967 0.76461 0.88454 0.0
C2273 C 0.16769 0.75841 0.90934 0.0
C2274 C 0.15108 0.75855 0.8612 0.0
C2275 C 0.14197 0.76466 0.8364 0.0
C2276 C 0.1352 0.77322 0.85634 0.0
C2277 C 0.12673 0.77906 0.83274 0.0
C2278 C 0.1249 0.77639 0.78919 0.0
C2279 C 0.13153 0.76785 0.76917 0.0
C2280 C 0.14001 0.76199 0.79262 0.0
C2281 C 0.16125 0.70787 0.90474 0.0
C2282 C 0.16232 0.70353 0.8624 0.0
C2283 C 0.16023 0.71978 0.91193 0.0
C2284 C 0.16031 0.72752 0.87689 0.0
C2285 C 0.16118 0.72315 0.8347 0.0
C2286 C 0.16218 0.71132 0.82753 0.0
C2287 C 0.15974 0.74022 0.88332 0.0
C2288 C 0.15125 0.74645 0.86088 0.0
C2289 C 0.16793 0.74629 0.90864 0.0
C2290 C 0.17732 0.74029 0.93211 0.0
C2291 C 0.18537 0.73348 0.90965 0.0
C2292 C 0.19418 0.72783 0.93211 0.0
C2293 C 0.19509 0.72901 0.97698 0.0
C2294 C 0.18721 0.73589 0.99947 0.0
C2295 C 0.17837 0.74154 0.97716 0.0
H2296 H 0.20192 0.72464 0.99431 0.0
H2297 H 0.11835 0.78093 0.77097 0.0
H2298 H 0.46158 0.91366 0.04306 0.0
H2299 H 0.48199 0.91138 0.05894 0.0
H2300 H 0.47434 0.90836 0.19504 0.0
H2301 H 0.45366 0.91072 0.1793 0.0
H2302 H 0.49256 0.92325 0.17857 0.0
H2303 H 0.48259 0.88475 0.14224 0.0
H2304 H 0.47352 0.86918 0.09986 0.0
H2305 H 0.49428 0.8781 0.98978 0.0
H2306 H 0.50336 0.89384 0.03126 0.0
H2307 H 0.55414 0.91361 0.19246 0.0
H2308 H 0.53337 0.9102 0.20257 0.0
H2309 H 0.52826 0.9124 0.06455 0.0
H2310 H 0.5488 0.91571 0.05425 0.0
H2311 H 0.51626 0.89462 0.09898 0.0
H2312 H 0.52287 0.93529 0.13076 0.0
H2313 H 0.53163 0.95138 0.17142 0.0
H2314 H 0.51702 0.93837 0.28943 0.0
H2315 H 0.50829 0.92212 0.24946 0.0
C2316 C 0.46417 0.91245 0.07642 0.0
C2317 C 0.45597 0.91234 0.10993 0.0
C2318 C 0.47587 0.91109 0.08542 0.0
C2319 C 0.47969 0.90954 0.12811 0.0
C2320 C 0.47156 0.90948 0.16184 0.0
C2321 C 0.45977 0.91079 0.15279 0.0
C2322 C 0.49224 0.9084 0.13673 0.0
C2323 C 0.49773 0.9168 0.16212 0.0
C2324 C 0.499 0.90005 0.11496 0.0
C2325 C 0.49363 0.89052 0.08988 0.0
C2326 C 0.48518 0.88344 0.10892 0.0
C2327 C 0.48004 0.87458 0.08505 0.0
C2328 C 0.48332 0.87266 0.04215 0.0
C2329 C 0.49176 0.87959 0.02303 0.0
C2330 C 0.49692 0.88848 0.04674 0.0
C2331 C 0.54858 0.91326 0.16432 0.0
C2332 C 0.55311 0.91498 0.12257 0.0
C2333 C 0.53672 0.91135 0.17015 0.0
C2334 C 0.52926 0.9111 0.1343 0.0
C2335 C 0.53385 0.91252 0.09267 0.0
C2336 C 0.54561 0.91447 0.08687 0.0
C2337 C 0.51658 0.90976 0.13931 0.0
C2338 C 0.51107 0.90086 0.11645 0.0
C2339 C 0.50982 0.91767 0.16332 0.0
C2340 C 0.51507 0.92742 0.18726 0.0
C2341 C 0.52161 0.93581 0.16543 0.0
C2342 C 0.52655 0.94497 0.18833 0.0
C2343 C 0.52492 0.94587 0.23301 0.0
C2344 C 0.51831 0.93764 0.25484 0.0
C2345 C 0.51336 0.92846 0.23209 0.0
H2346 H 0.52875 0.95296 0.25068 0.0
H2347 H 0.47932 0.86579 0.02372 0.0
H2348 H 0.33841 0.20428 0.30082 0.0
H2349 H 0.34141 0.22474 0.314 0.0
H2350 H 0.34007 0.21883 0.4517 0.0
H2351 H 0.33696 0.19813 0.43866 0.0
H2352 H 0.32661 0.23722 0.42666 0.0
H2353 H 0.36548 0.2256 0.40675 0.0
H2354 H 0.38181 0.21558 0.37213 0.0
H2355 H 0.3767 0.23531 0.25612 0.0
H2356 H 0.36022 0.24533 0.28979 0.0
H2357 H 0.33832 0.29847 0.43577 0.0
H2358 H 0.34055 0.27771 0.4497 0.0
H2359 H 0.34176 0.27132 0.31226 0.0
H2360 H 0.33962 0.29185 0.29821 0.0
H2361 H 0.35807 0.25902 0.35476 0.0
H2362 H 0.31706 0.26737 0.37005 0.0
H2363 H 0.30032 0.27712 0.40308 0.0
H2364 H 0.30953 0.26337 0.52742 0.0
H2365 H 0.32641 0.25365 0.49513 0.0
C2366 C 0.33884 0.20727 0.33399 0.0
C2367 C 0.33746 0.19956 0.36871 0.0
C2368 C 0.34062 0.21899 0.34147 0.0
C2369 C 0.34111 0.22331 0.38384 0.0
C2370 C 0.33978 0.21566 0.41875 0.0
C2371 C 0.33805 0.20385 0.41125 0.0
C2372 C 0.34248 0.23592 0.39075 0.0
C2373 C 0.33365 0.24198 0.41195 0.0
C2374 C 0.35161 0.24214 0.3712 0.0
C2375 C 0.36157 0.23619 0.3508 0.0
C2376 C 0.36779 0.22776 0.37376 0.0
C2377 C 0.37708 0.22208 0.35431 0.0
C2378 C 0.38028 0.2248 0.31194 0.0
C2379 C 0.37421 0.23322 0.28895 0.0
C2380 C 0.36491 0.23891 0.30824 0.0
C2381 C 0.33914 0.29263 0.40861 0.0
C2382 C 0.33874 0.29681 0.36589 0.0
C2383 C 0.34038 0.28078 0.4166 0.0
C2384 C 0.34127 0.27296 0.38199 0.0
C2385 C 0.34114 0.27718 0.33948 0.0
C2386 C 0.33985 0.28895 0.33151 0.0
C2387 C 0.34197 0.2603 0.38911 0.0
C2388 C 0.3512 0.25424 0.37052 0.0
C2389 C 0.33321 0.25409 0.41099 0.0
C2390 C 0.32307 0.25992 0.43032 0.0
C2391 C 0.31557 0.26651 0.40449 0.0
C2392 C 0.30605 0.27201 0.42306 0.0
C2393 C 0.30389 0.2709 0.46735 0.0
C2394 C 0.31123 0.26425 0.49314 0.0
C2395 C 0.32077 0.25874 0.47473 0.0
H2396 H 0.29651 0.27516 0.48167 0.0
H2397 H 0.38747 0.22039 0.29693 0.0
H2398 H 0.94616 0.08732 0.68423 0.0
H2399 H 0.96711 0.08777 0.69691 0.0
H2400 H 0.97303 0.08642 0.55925 0.0
H2401 H 0.95233 0.08603 0.54634 0.0
H2402 H 0.98513 0.06974 0.60512 0.0
H2403 H 0.97713 0.1109 0.61252 0.0
H2404 H 0.96769 0.12817 0.64283 0.0
H2405 H 0.98237 0.12087 0.76745 0.0
H2406 H 0.99177 0.10346 0.73797 0.0
H2407 H 0.04113 0.08348 0.55186 0.0
H2408 H 0.02037 0.0843 0.5626 0.0
H2409 H 0.02537 0.08763 0.70035 0.0
H2410 H 0.04641 0.087 0.6897 0.0
H2411 H 0.00774 0.1017 0.67018 0.0
H2412 H 0.01774 0.06202 0.66133 0.0
H2413 H 0.02732 0.04475 0.63172 0.0
H2414 H 0.00873 0.04872 0.51246 0.0
H2415 H 0.99916 0.06612 0.54109 0.0
C2416 C 0.95194 0.08726 0.65672 0.0
C2417 C 0.94757 0.08659 0.61429 0.0
C2418 C 0.96389 0.08752 0.66401 0.0
C2419 C 0.97161 0.08707 0.62899 0.0
C2420 C 0.96723 0.0867 0.58673 0.0
C2421 C 0.95537 0.08651 0.57944 0.0
C2422 C 0.98427 0.08642 0.63553 0.0
C2423 C 0.99007 0.07674 0.61925 0.0
C2424 C 0.99067 0.09535 0.65555 0.0
C2425 C 0.98502 0.1058 0.67319 0.0
C2426 C 0.97825 0.11291 0.64649 0.0
C2427 C 0.97293 0.12274 0.66349 0.0
C2428 C 0.9744 0.12559 0.70708 0.0
C2429 C 0.98122 0.11864 0.73372 0.0
C2430 C 0.98654 0.10879 0.71688 0.0
C2431 C 0.03787 0.08444 0.58451 0.0
C2432 C 0.04542 0.08504 0.62 0.0
C2433 C 0.02597 0.08489 0.5906 0.0
C2434 C 0.02131 0.08578 0.63235 0.0
C2435 C 0.0288 0.08685 0.66787 0.0
C2436 C 0.04079 0.08648 0.66175 0.0
C2437 C 0.0086 0.08522 0.63808 0.0
C2438 C 0.00278 0.0946 0.65682 0.0
C2439 C 0.00213 0.07596 0.62059 0.0
C2440 C 0.00777 0.06542 0.60333 0.0
C2441 C 0.01574 0.05925 0.6287 0.0
C2442 C 0.02117 0.04943 0.61209 0.0
C2443 C 0.01865 0.04565 0.57022 0.0
C2444 C 0.01068 0.05166 0.5449 0.0
C2445 C 0.00523 0.06149 0.56133 0.0
H2446 H 0.02287 0.03805 0.55741 0.0
H2447 H 0.97028 0.13321 0.72018 0.0
H2448 H 0.84045 0.7038 0.79662 0.0
H2449 H 0.84377 0.72413 0.81142 0.0
H2450 H 0.8423 0.71746 0.94862 0.0
H2451 H 0.83886 0.69689 0.93394 0.0
H2452 H 0.82913 0.73618 0.925 0.0
H2453 H 0.86784 0.72409 0.90423 0.0
H2454 H 0.88401 0.71403 0.86878 0.0
H2455 H 0.87921 0.7345 0.75442 0.0
H2456 H 0.8629 0.74458 0.78891 0.0
H2457 H 0.84117 0.79716 0.93873 0.0
H2458 H 0.84358 0.77635 0.9512 0.0
H2459 H 0.84479 0.77065 0.81333 0.0
H2460 H 0.84247 0.79123 0.80073 0.0
H2461 H 0.86093 0.75792 0.85496 0.0
H2462 H 0.82001 0.76667 0.87051 0.0
H2463 H 0.80337 0.77647 0.90406 0.0
H2464 H 0.81236 0.76206 0.02756 0.0
H2465 H 0.82915 0.75229 0.99477 0.0
C2466 C 0.84091 0.70659 0.83002 0.0
C2467 C 0.8394 0.69871 0.86412 0.0
C2468 C 0.84288 0.71824 0.83843 0.0
C2469 C 0.84344 0.72231 0.88113 0.0
C2470 C 0.84197 0.71449 0.91542 0.0
C2471 C 0.84004 0.70275 0.90699 0.0
C2472 C 0.845 0.73485 0.88906 0.0
C2473 C 0.83625 0.74092 0.91071 0.0
C2474 C 0.85423 0.74105 0.87004 0.0
C2475 C 0.8641 0.73507 0.84916 0.0
C2476 C 0.87018 0.72641 0.87142 0.0
C2477 C 0.87938 0.7207 0.8515 0.0
C2478 C 0.88263 0.72362 0.80936 0.0
C2479 C 0.87669 0.73226 0.78708 0.0
C2480 C 0.86748 0.73798 0.80683 0.0
C2481 C 0.84208 0.79146 0.91117 0.0
C2482 C 0.84156 0.79583 0.86875 0.0
C2483 C 0.84341 0.77958 0.91832 0.0
C2484 C 0.84429 0.77193 0.88316 0.0
C2485 C 0.84416 0.77637 0.84095 0.0
C2486 C 0.84277 0.78816 0.83381 0.0
C2487 C 0.84484 0.75924 0.88938 0.0
C2488 C 0.854 0.75316 0.87034 0.0
C2489 C 0.83599 0.75303 0.9107 0.0
C2490 C 0.82591 0.75889 0.93034 0.0
C2491 C 0.81849 0.76568 0.90489 0.0
C2492 C 0.80902 0.77121 0.92375 0.0
C2493 C 0.80683 0.76992 0.96795 0.0
C2494 C 0.81408 0.76307 0.99336 0.0
C2495 C 0.82357 0.75754 0.97466 0.0
H2496 H 0.7995 0.7742 0.98249 0.0
H2497 H 0.88975 0.71919 0.79399 0.0
H2498 H 0.66655 0.20868 0.29891 0.0
H2499 H 0.66594 0.22934 0.31211 0.0
H2500 H 0.66121 0.22323 0.4486 0.0
H2501 H 0.66173 0.20229 0.43555 0.0
H2502 H 0.64726 0.24139 0.41574 0.0
H2503 H 0.68687 0.2309 0.41787 0.0
H2504 H 0.70458 0.22121 0.3928 0.0
H2505 H 0.70333 0.24033 0.27391 0.0
H2506 H 0.6855 0.25001 0.29797 0.0
H2507 H 0.6619 0.30291 0.43505 0.0
H2508 H 0.6612 0.28196 0.4477 0.0
H2509 H 0.66474 0.27599 0.31063 0.0
H2510 H 0.66534 0.29668 0.29771 0.0
H2511 H 0.6807 0.26385 0.36133 0.0
H2512 H 0.63954 0.27208 0.35646 0.0
H2513 H 0.62174 0.2816 0.38164 0.0
H2514 H 0.62631 0.26682 0.5079 0.0
H2515 H 0.64424 0.25734 0.48358 0.0
C2516 C 0.66531 0.21167 0.3318 0.0
C2517 C 0.6643 0.20382 0.36626 0.0
C2518 C 0.66499 0.22351 0.33928 0.0
C2519 C 0.66372 0.22782 0.3814 0.0
C2520 C 0.66225 0.22006 0.41587 0.0
C2521 C 0.66257 0.20812 0.40837 0.0
C2522 C 0.66436 0.24046 0.3886 0.0
C2523 C 0.65467 0.24631 0.40482 0.0
C2524 C 0.67402 0.24687 0.37423 0.0
C2525 C 0.68481 0.24115 0.35968 0.0
C2526 C 0.69033 0.23299 0.38626 0.0
C2527 C 0.70039 0.2275 0.37224 0.0
C2528 C 0.70507 0.23014 0.33177 0.0
C2529 C 0.6997 0.23829 0.30526 0.0
C2530 C 0.68962 0.2438 0.31911 0.0
C2531 C 0.6624 0.29712 0.40764 0.0
C2532 C 0.66372 0.30147 0.3654 0.0
C2533 C 0.66199 0.28517 0.41491 0.0
C2534 C 0.66298 0.27745 0.38008 0.0
C2535 C 0.66403 0.2818 0.33796 0.0
C2536 C 0.66434 0.29366 0.33066 0.0
C2537 C 0.66344 0.26479 0.38676 0.0
C2538 C 0.67339 0.25894 0.37321 0.0
C2539 C 0.65406 0.25843 0.40383 0.0
C2540 C 0.64331 0.26414 0.41839 0.0
C2541 C 0.63682 0.27096 0.38971 0.0
C2542 C 0.62669 0.27632 0.40379 0.0
C2543 C 0.62292 0.27485 0.44639 0.0
C2544 C 0.62926 0.26798 0.47495 0.0
C2545 C 0.6394 0.26261 0.46103 0.0
H2546 H 0.61507 0.279 0.45722 0.0
H2547 H 0.71286 0.22588 0.32097 0.0
H2548 H 0.83959 0.30045 0.06888 0.0
H2549 H 0.84159 0.27966 0.0552 0.0
H2550 H 0.84212 0.27331 0.19272 0.0
H2551 H 0.84026 0.29389 0.20654 0.0
H2552 H 0.85792 0.26032 0.1523 0.0
H2553 H 0.81745 0.27004 0.13271 0.0
H2554 H 0.80123 0.28038 0.09856 0.0
H2555 H 0.81079 0.26665 0.97457 0.0
H2556 H 0.82716 0.25634 0.00797 0.0
H2557 H 0.83565 0.20601 0.20034 0.0
H2558 H 0.83928 0.22646 0.18896 0.0
H2559 H 0.84023 0.22102 0.05096 0.0
H2560 H 0.83656 0.20033 0.06216 0.0
H2561 H 0.82646 0.23975 0.07544 0.0
H2562 H 0.86481 0.22686 0.10032 0.0
H2563 H 0.88038 0.21621 0.13713 0.0
H2564 H 0.8745 0.23569 0.2532 0.0
H2565 H 0.85878 0.24635 0.21731 0.0
C2566 C 0.84026 0.29461 0.09613 0.0
C2567 C 0.83971 0.29882 0.13879 0.0
C2568 C 0.84135 0.28274 0.08827 0.0
C2569 C 0.84191 0.27491 0.12296 0.0
C2570 C 0.84173 0.27917 0.16544 0.0
C2571 C 0.84061 0.29096 0.17328 0.0
C2572 C 0.8422 0.26223 0.11584 0.0
C2573 C 0.85105 0.25582 0.13546 0.0
C2574 C 0.83343 0.25636 0.09274 0.0
C2575 C 0.82361 0.26255 0.07271 0.0
C2576 C 0.81615 0.26931 0.0981 0.0
C2577 C 0.80692 0.27515 0.07891 0.0
C2578 C 0.80501 0.27421 0.0344 0.0
C2579 C 0.8123 0.2674 0.00902 0.0
C2580 C 0.82155 0.26155 0.02806 0.0
C2581 C 0.8367 0.20911 0.1675 0.0
C2582 C 0.83582 0.20153 0.13213 0.0
C2583 C 0.83883 0.22082 0.16107 0.0
C2584 C 0.84015 0.22526 0.11915 0.0
C2585 C 0.8393 0.21775 0.0836 0.0
C2586 C 0.83724 0.20594 0.09005 0.0
C2587 C 0.84195 0.23785 0.11324 0.0
C2588 C 0.83351 0.24424 0.09125 0.0
C2589 C 0.85106 0.24371 0.1344 0.0
C2590 C 0.86057 0.23738 0.15612 0.0
C2591 C 0.86679 0.22883 0.13378 0.0
C2592 C 0.87565 0.22279 0.15448 0.0
C2593 C 0.87842 0.22526 0.19749 0.0
C2594 C 0.87235 0.23379 0.21987 0.0
C2595 C 0.86347 0.23985 0.19934 0.0
H2596 H 0.88528 0.22058 0.21346 0.0
H2597 H 0.79786 0.27873 0.01959 0.0
H2598 H 0.66344 0.70296 0.57072 0.0
H2599 H 0.66107 0.7237 0.55672 0.0
H2600 H 0.65919 0.73005 0.69408 0.0
H2601 H 0.66153 0.70953 0.70821 0.0
H2602 H 0.64276 0.74212 0.64938 0.0
H2603 H 0.68401 0.73427 0.63948 0.0
H2604 H 0.70114 0.72473 0.60852 0.0
H2605 H 0.69289 0.73842 0.48316 0.0
H2606 H 0.67562 0.74793 0.51334 0.0
H2607 H 0.6611 0.79706 0.70639 0.0
H2608 H 0.65827 0.77661 0.69257 0.0
H2609 H 0.66161 0.78255 0.55535 0.0
H2610 H 0.66459 0.80323 0.56907 0.0
H2611 H 0.67464 0.76433 0.58196 0.0
H2612 H 0.6355 0.77549 0.59635 0.0
H2613 H 0.61868 0.78528 0.62847 0.0
H2614 H 0.62273 0.76552 0.74499 0.0
H2615 H 0.63968 0.75572 0.71384 0.0
C2616 C 0.66244 0.70879 0.59784 0.0
C2617 C 0.66272 0.70461 0.64057 0.0
C2618 C 0.66112 0.72062 0.58981 0.0
C2619 C 0.66 0.72842 0.62439 0.0
C2620 C 0.66 0.72419 0.6669 0.0
C2621 C 0.6614 0.71245 0.67492 0.0
C2622 C 0.6592 0.74106 0.61724 0.0
C2623 C 0.64972 0.74699 0.63459 0.0
C2624 C 0.66808 0.74738 0.59659 0.0
C2625 C 0.67845 0.74167 0.57852 0.0
C2626 C 0.6858 0.73516 0.60524 0.0
C2627 C 0.69554 0.72978 0.58786 0.0
C2628 C 0.69808 0.73093 0.54386 0.0
C2629 C 0.6909 0.73751 0.5172 0.0
C2630 C 0.68113 0.74289 0.53442 0.0
C2631 C 0.66113 0.79408 0.67316 0.0
C2632 C 0.66306 0.80179 0.63881 0.0
C2633 C 0.65944 0.78236 0.6653 0.0
C2634 C 0.65957 0.77805 0.62288 0.0
C2635 C 0.66141 0.78571 0.58832 0.0
C2636 C 0.66307 0.79751 0.5962 0.0
C2637 C 0.6584 0.76543 0.61567 0.0
C2638 C 0.66751 0.75948 0.59566 0.0
C2639 C 0.64916 0.75908 0.63387 0.0
C2640 C 0.63891 0.7649 0.65276 0.0
C2641 C 0.63285 0.77328 0.62892 0.0
C2642 C 0.62328 0.77882 0.64695 0.0
C2643 C 0.61964 0.77603 0.68875 0.0
C2644 C 0.62555 0.76767 0.71259 0.0
C2645 C 0.63513 0.7621 0.69473 0.0
H2646 H 0.61223 0.78034 0.70266 0.0
H2647 H 0.70563 0.72676 0.53047 0.0
H2648 H 0.55223 0.41395 0.81582 0.0
H2649 H 0.53141 0.41109 0.80477 0.0
H2650 H 0.52567 0.41556 0.94167 0.0
H2651 H 0.54626 0.41829 0.95292 0.0
H2652 H 0.51332 0.39778 0.91098 0.0
H2653 H 0.52113 0.4375 0.86897 0.0
H2654 H 0.53053 0.4526 0.82513 0.0
H2655 H 0.51635 0.43779 0.70938 0.0
H2656 H 0.50698 0.42251 0.75256 0.0
H2657 H 0.4582 0.41823 0.95351 0.0
H2658 H 0.47879 0.41581 0.94148 0.0
H2659 H 0.47266 0.40996 0.8056 0.0
H2660 H 0.45181 0.41245 0.81741 0.0
H2661 H 0.49084 0.42515 0.82082 0.0
H2662 H 0.47999 0.38752 0.86626 0.0
H2663 H 0.47029 0.37297 0.91164 0.0
H2664 H 0.49005 0.38392 0.02177 0.0
H2665 H 0.49975 0.39866 0.97723 0.0
C2666 C 0.54651 0.41424 0.84353 0.0
C2667 C 0.5509 0.41639 0.88522 0.0
C2668 C 0.53463 0.41265 0.83715 0.0
C2669 C 0.52697 0.41318 0.87238 0.0
C2670 C 0.5314 0.41508 0.91401 0.0
C2671 C 0.5432 0.41669 0.92035 0.0
C2672 C 0.51428 0.41207 0.86664 0.0
C2673 C 0.5084 0.40376 0.89125 0.0
C2674 C 0.50787 0.41961 0.83978 0.0
C2675 C 0.51349 0.42879 0.8139 0.0
C2676 C 0.5201 0.43741 0.83413 0.0
C2677 C 0.5254 0.44601 0.80942 0.0
C2678 C 0.52407 0.44613 0.76448 0.0
C2679 C 0.5174 0.43767 0.74418 0.0
C2680 C 0.51209 0.42904 0.76875 0.0
C2681 C 0.46117 0.41639 0.921 0.0
C2682 C 0.45334 0.4155 0.88642 0.0
C2683 C 0.47297 0.41496 0.91423 0.0
C2684 C 0.47726 0.41254 0.87276 0.0
C2685 C 0.46951 0.41175 0.83791 0.0
C2686 C 0.45762 0.41314 0.84473 0.0
C2687 C 0.48989 0.41115 0.86652 0.0
C2688 C 0.49576 0.41897 0.83968 0.0
C2689 C 0.49631 0.40317 0.89145 0.0
C2690 C 0.49057 0.39424 0.91838 0.0
C2691 C 0.48222 0.38688 0.90022 0.0
C2692 C 0.47673 0.37859 0.92579 0.0
C2693 C 0.47955 0.37753 0.96957 0.0
C2694 C 0.48788 0.38475 0.98785 0.0
C2695 C 0.49339 0.39306 0.96242 0.0
H2696 H 0.47528 0.3711 0.98932 0.0
H2697 H 0.52818 0.45279 0.7454 0.0
H2698 H 0.95617 0.59439 0.42734 0.0
H2699 H 0.97664 0.59632 0.41032 0.0
H2700 H 0.97029 0.58388 0.28099 0.0
H2701 H 0.94961 0.58211 0.29768 0.0
H2702 H 0.98779 0.57182 0.32639 0.0
H2703 H 0.97841 0.61042 0.2889 0.0
H2704 H 0.96941 0.62954 0.29799 0.0
H2705 H 0.98946 0.63532 0.4128 0.0
H2706 H 0.99845 0.61616 0.4048 0.0
H2707 H 0.05099 0.59491 0.31332 0.0
H2708 H 0.03045 0.59682 0.29418 0.0
H2709 H 0.02108 0.57806 0.40937 0.0
H2710 H 0.04137 0.5763 0.42901 0.0
H2711 H 0.01175 0.60686 0.34795 0.0
H2712 H 1.00012 0.55893 0.37735 0.0
H2713 H 0.00916 0.53979 0.36958 0.0
H2714 H 0.03102 0.5528 0.2686 0.0
H2715 H 0.022 0.57198 0.27528 0.0
C2716 C 0.95908 0.59224 0.39503 0.0
C2717 C 0.9513 0.58807 0.36386 0.0
C2718 C 0.97078 0.5934 0.38529 0.0
C2719 C 0.97497 0.5903 0.34434 0.0
C2720 C 0.9672 0.58638 0.31271 0.0
C2721 C 0.95541 0.58541 0.32223 0.0
C2722 C 0.9876 0.59019 0.33659 0.0
C2723 C 0.99303 0.57951 0.33038 0.0
C2724 C 0.99441 0.60025 0.3414 0.0
C2725 C 0.98907 0.61182 0.34632 0.0
C2726 C 0.98084 0.61573 0.31626 0.0
C2727 C 0.97575 0.62658 0.32119 0.0
C2728 C 0.97886 0.63363 0.35597 0.0
C2729 C 0.98707 0.62985 0.38586 0.0
C2730 C 0.99218 0.619 0.3811 0.0
C2731 C 0.04453 0.59121 0.3345 0.0
C2732 C 0.0478 0.58547 0.3727 0.0
C2733 C 0.03283 0.59233 0.32359 0.0
C2734 C 0.02429 0.5875 0.35024 0.0
C2735 C 0.02756 0.58177 0.38823 0.0
C2736 C 0.03916 0.58081 0.39946 0.0
C2737 C 0.01187 0.58844 0.33939 0.0
C2738 C 0.0065 0.59924 0.34261 0.0
C2739 C 0.00509 0.57849 0.33184 0.0
C2740 C 0.01042 0.56692 0.32701 0.0
C2741 C 0.0068 0.5577 0.35329 0.0
C2742 C 0.01194 0.54684 0.34912 0.0
C2743 C 0.02068 0.54509 0.31868 0.0
C2744 C 0.02428 0.55418 0.29225 0.0
C2745 C 0.01916 0.56505 0.29626 0.0
H2746 H 0.02465 0.53668 0.31553 0.0
H2747 H 0.97491 0.64203 0.35973 0.0
H2748 H 0.95704 0.41546 0.55446 0.0
H2749 H 0.97748 0.41214 0.56689 0.0
H2750 H 0.97115 0.40833 0.70368 0.0
H2751 H 0.95045 0.41176 0.69143 0.0
H2752 H 0.98953 0.42266 0.68672 0.0
H2753 H 0.97824 0.38485 0.64614 0.0
H2754 H 0.96839 0.36994 0.60287 0.0
H2755 H 0.98833 0.37948 0.49139 0.0
H2756 H 0.99819 0.39456 0.53379 0.0
H2757 H 0.05094 0.41187 0.69008 0.0
H2758 H 0.03024 0.40865 0.70276 0.0
H2759 H 0.02378 0.41213 0.56591 0.0
H2760 H 0.04424 0.41523 0.55305 0.0
H2761 H 0.01172 0.39439 0.59957 0.0
H2762 H 0.01954 0.43457 0.63626 0.0
H2763 H 0.02907 0.45002 0.67793 0.0
H2764 H 0.01548 0.43601 0.79604 0.0
H2765 H 0.00598 0.42039 0.75504 0.0
C2766 C 0.95993 0.41383 0.58723 0.0
C2767 C 0.9521 0.41386 0.62197 0.0
C2768 C 0.97164 0.41187 0.59425 0.0
C2769 C 0.97583 0.40982 0.63613 0.0
C2770 C 0.96807 0.40981 0.67105 0.0
C2771 C 0.95627 0.41174 0.664 0.0
C2772 C 0.98843 0.40827 0.64279 0.0
C2773 C 0.99438 0.41628 0.66859 0.0
C2774 C 0.99477 0.40001 0.61884 0.0
C2775 C 0.98893 0.39088 0.59318 0.0
C2776 C 0.98048 0.38382 0.61234 0.0
C2777 C 0.9749 0.37533 0.58796 0.0
C2778 C 0.97773 0.37377 0.5444 0.0
C2779 C 0.98616 0.38069 0.52515 0.0
C2780 C 0.99176 0.3892 0.54937 0.0
C2781 C 0.0451 0.41185 0.66273 0.0
C2782 C 0.04923 0.41386 0.62059 0.0
C2783 C 0.03328 0.41004 0.67003 0.0
C2784 C 0.02545 0.41022 0.63528 0.0
C2785 C 0.02964 0.41192 0.5932 0.0
C2786 C 0.04137 0.41375 0.58594 0.0
C2787 C 0.01281 0.40908 0.64199 0.0
C2788 C 0.00686 0.40055 0.61868 0.0
C2789 C 0.00649 0.41686 0.66813 0.0
C2790 C 0.01219 0.42624 0.69269 0.0
C2791 C 0.01867 0.43474 0.67115 0.0
C2792 C 0.02405 0.44353 0.69463 0.0
C2793 C 0.02292 0.44397 0.73962 0.0
C2794 C 0.01638 0.43564 0.76121 0.0
C2795 C 0.01099 0.42682 0.73787 0.0
H2796 H 0.02709 0.45079 0.75775 0.0
H2797 H 0.97339 0.36719 0.52558 0.0
H2798 H 0.44791 0.58933 0.18578 0.0
H2799 H 0.4688 0.59032 0.19989 0.0
H2800 H 0.47554 0.57804 0.07062 0.0
H2801 H 0.45494 0.57708 0.05629 0.0
H2802 H 0.48768 0.56606 0.1332 0.0
H2803 H 0.47888 0.60581 0.09416 0.0
H2804 H 0.46902 0.62449 0.10362 0.0
H2805 H 0.48324 0.62761 0.23141 0.0
H2806 H 0.49307 0.60886 0.22287 0.0
H2807 H 0.54208 0.57852 0.05688 0.0
H2808 H 0.5215 0.57885 0.07166 0.0
H2809 H 0.52809 0.59071 0.20158 0.0
H2810 H 0.54898 0.59043 0.18694 0.0
H2811 H 0.50937 0.60233 0.15897 0.0
H2812 H 0.52091 0.56402 0.19228 0.0
H2813 H 0.53106 0.54556 0.18129 0.0
H2814 H 0.51169 0.5396 0.06498 0.0
H2815 H 0.50155 0.55811 0.07488 0.0
C2816 C 0.45387 0.5869 0.16038 0.0
C2817 C 0.44976 0.58311 0.11994 0.0
C2818 C 0.46578 0.58748 0.16847 0.0
C2819 C 0.4737 0.58422 0.13631 0.0
C2820 C 0.46958 0.58053 0.09597 0.0
C2821 C 0.45778 0.58004 0.0878 0.0
C2822 C 0.48634 0.58436 0.14399 0.0
C2823 C 0.49242 0.57399 0.13893 0.0
C2824 C 0.49249 0.59463 0.15301 0.0
C2825 C 0.48657 0.60587 0.15812 0.0
C2826 C 0.47981 0.61043 0.12443 0.0
C2827 C 0.47425 0.62104 0.12959 0.0
C2828 C 0.47547 0.62721 0.16816 0.0
C2829 C 0.48228 0.6228 0.2016 0.0
C2830 C 0.48785 0.61219 0.19662 0.0
C2831 C 0.53922 0.58125 0.08863 0.0
C2832 C 0.5472 0.58438 0.12084 0.0
C2833 C 0.52742 0.5814 0.09705 0.0
C2834 C 0.52327 0.58465 0.13788 0.0
C2835 C 0.53114 0.58812 0.1699 0.0
C2836 C 0.54305 0.58793 0.16152 0.0
C2837 C 0.51069 0.5841 0.14635 0.0
C2838 C 0.50462 0.59436 0.15447 0.0
C2839 C 0.5045 0.57371 0.14022 0.0
C2840 C 0.5105 0.56249 0.13426 0.0
C2841 C 0.51886 0.55881 0.16421 0.0
C2842 C 0.52461 0.54833 0.15819 0.0
C2843 C 0.52203 0.54142 0.12244 0.0
C2844 C 0.51368 0.54496 0.09267 0.0
C2845 C 0.50791 0.55544 0.09852 0.0
H2846 H 0.52649 0.53331 0.11783 0.0
H2847 H 0.47116 0.63543 0.17208 0.0
H2848 H 0.13912 0.13413 0.20886 0.0
H2849 H 0.12732 0.12634 0.26792 0.0
H2850 H 0.13441 0.1566 0.34445 0.0
H2851 H 0.14594 0.16463 0.28524 0.0
H2852 H 0.14036 0.12984 0.37401 0.0
H2853 H 0.11129 0.15808 0.32925 0.0
H2854 H 0.09873 0.16717 0.27464 0.0
H2855 H 0.08296 0.13441 0.24789 0.0
H2856 H 0.09558 0.1251 0.30191 0.0
H2857 H 0.11135 0.11372 0.56276 0.0
H2858 H 0.11891 0.12557 0.5038 0.0
H2859 H 0.09593 0.10854 0.41421 0.0
H2860 H 0.08785 0.09721 0.47375 0.0
H2861 H 0.09777 0.12938 0.39004 0.0
H2862 H 0.12541 0.10058 0.42851 0.0
H2863 H 0.13822 0.08944 0.47659 0.0
H2864 H 0.15714 0.12022 0.50729 0.0
H2865 H 0.14434 0.13158 0.45979 0.0
C2866 C 0.138 0.13922 0.23797 0.0
C2867 C 0.14346 0.14998 0.24248 0.0
C2868 C 0.13124 0.13477 0.27152 0.0
C2869 C 0.13 0.14095 0.31022 0.0
C2870 C 0.13522 0.15179 0.31455 0.0
C2871 C 0.14178 0.15635 0.2807 0.0
C2872 C 0.1242 0.13557 0.34757 0.0
C2873 C 0.13106 0.12989 0.37811 0.0
C2874 C 0.11208 0.13527 0.3515 0.0
C2875 C 0.10448 0.14088 0.3192 0.0
C2876 C 0.10524 0.15279 0.31136 0.0
C2877 C 0.09809 0.15799 0.28061 0.0
C2878 C 0.09008 0.15137 0.2577 0.0
C2879 C 0.08918 0.13953 0.26559 0.0
C2880 C 0.09633 0.13429 0.2963 0.0
C2881 C 0.10782 0.11264 0.53056 0.0
C2882 C 0.0991 0.1045 0.52265 0.0
C2883 C 0.11219 0.11935 0.49681 0.0
C2884 C 0.10824 0.11772 0.45423 0.0
C2885 C 0.09917 0.10993 0.44668 0.0
C2886 C 0.09457 0.10345 0.48069 0.0
C2887 C 0.11394 0.12371 0.41741 0.0
C2888 C 0.10708 0.12941 0.38656 0.0
C2889 C 0.12611 0.12376 0.41247 0.0
C2890 C 0.13384 0.11695 0.44096 0.0
C2891 C 0.13226 0.10499 0.44575 0.0
C2892 C 0.13952 0.09863 0.47286 0.0
C2893 C 0.14847 0.10412 0.49508 0.0
C2894 C 0.15019 0.11598 0.49012 0.0
C2895 C 0.14294 0.12238 0.46309 0.0
H2896 H 0.15409 0.09919 0.51605 0.0
H2897 H 0.08454 0.15541 0.23391 0.0
H2898 H 0.0959 0.88979 0.48232 0.0
H2899 H 0.1045 0.87813 0.53996 0.0
H2900 H 0.13378 0.90116 0.54383 0.0
H2901 H 0.12555 0.91237 0.4847 0.0
H2902 H 0.14138 0.88107 0.55356 0.0
H2903 H 0.11001 0.90184 0.61924 0.0
H2904 H 0.08986 0.90822 0.62847 0.0
H2905 H 0.07916 0.87313 0.64783 0.0
H2906 H 0.09924 0.86653 0.63819 0.0
H2907 H 0.16015 0.87447 0.77015 0.0
H2908 H 0.14982 0.88219 0.70763 0.0
H2909 H 0.13303 0.84939 0.68879 0.0
H2910 H 0.14354 0.84144 0.75102 0.0
H2911 H 0.11858 0.87201 0.68518 0.0
H2912 H 0.15194 0.8524 0.62511 0.0
H2913 H 0.17275 0.84802 0.62259 0.0
H2914 H 0.18027 0.88374 0.59908 0.0
H2915 H 0.15951 0.88836 0.60213 0.0
C2916 C 0.10421 0.89229 0.49536 0.0
C2917 C 0.11004 0.90199 0.47915 0.0
C2918 C 0.10909 0.88568 0.52849 0.0
C2919 C 0.11971 0.88888 0.54697 0.0
C2920 C 0.1256 0.89847 0.53018 0.0
C2921 C 0.12087 0.9049 0.4964 0.0
C2922 C 0.12468 0.88241 0.58413 0.0
C2923 C 0.13636 0.87917 0.58232 0.0
C2924 C 0.11816 0.87973 0.62167 0.0
C2925 C 0.10609 0.88368 0.62748 0.0
C2926 C 0.10334 0.89548 0.62515 0.0
C2927 C 0.09194 0.89914 0.6305 0.0
C2928 C 0.08323 0.89109 0.63859 0.0
C2929 C 0.08591 0.87936 0.64147 0.0
C2930 C 0.0973 0.87565 0.63608 0.0
C2931 C 0.15418 0.8689 0.75304 0.0
C2932 C 0.15268 0.85733 0.76543 0.0
C2933 C 0.14832 0.87333 0.71731 0.0
C2934 C 0.14074 0.86632 0.69371 0.0
C2935 C 0.13887 0.8549 0.70676 0.0
C2936 C 0.1449 0.85038 0.74215 0.0
C2937 C 0.13518 0.87093 0.6544 0.0
C2938 C 0.12345 0.87381 0.65596 0.0
C2939 C 0.1417 0.87355 0.6171 0.0
C2940 C 0.15417 0.87074 0.6142 0.0
C2941 C 0.15803 0.85933 0.61971 0.0
C2942 C 0.16982 0.8568 0.61813 0.0
C2943 C 0.17783 0.8656 0.61079 0.0
C2944 C 0.17406 0.87694 0.6048 0.0
C2945 C 0.16228 0.87951 0.60639 0.0
H2946 H 0.18696 0.86363 0.60969 0.0
H2947 H 0.0744 0.89394 0.64273 0.0
H2948 H 0.41566 0.89825 0.96161 0.0
H2949 H 0.40738 0.88707 0.9019 0.0
H2950 H 0.3791 0.87674 0.98377 0.0
H2951 H 0.38713 0.88817 0.04336 0.0
H2952 H 0.39199 0.85859 0.92018 0.0
H2953 H 0.37088 0.89544 0.93246 0.0
H2954 H 0.37055 0.91667 0.93793 0.0
H2955 H 0.38979 0.91931 0.81959 0.0
H2956 H 0.39038 0.89807 0.81385 0.0
H2957 H 0.34851 0.83948 0.77628 0.0
H2958 H 0.36052 0.84717 0.83442 0.0
H2959 H 0.3758 0.87139 0.74499 0.0
H2960 H 0.36321 0.8642 0.68753 0.0
H2961 H 0.37117 0.8823 0.81166 0.0
H2962 H 0.39059 0.8466 0.79074 0.0
H2963 H 0.39283 0.82557 0.78255 0.0
H2964 H 0.37965 0.82041 0.91094 0.0
H2965 H 0.37718 0.84142 0.91971 0.0
C2966 C 0.40778 0.89344 0.96714 0.0
C2967 C 0.40199 0.89413 0.00704 0.0
C2968 C 0.40308 0.88707 0.93305 0.0
C2969 C 0.39267 0.88112 0.93866 0.0
C2970 C 0.38719 0.88126 0.97908 0.0
C2971 C 0.39174 0.88783 0.01291 0.0
C2972 C 0.38693 0.87569 0.90124 0.0
C2973 C 0.38733 0.86369 0.89648 0.0
C2974 C 0.38127 0.88246 0.8698 0.0
C2975 C 0.3808 0.8952 0.87303 0.0
C2976 C 0.37514 0.90056 0.90786 0.0
C2977 C 0.37488 0.91258 0.91095 0.0
C2978 C 0.38018 0.91934 0.8792 0.0
C2979 C 0.38571 0.91407 0.84421 0.0
C2980 C 0.38601 0.90204 0.84101 0.0
C2981 C 0.35454 0.84635 0.769 0.0
C2982 C 0.35494 0.85127 0.7275 0.0
C2983 C 0.36147 0.8507 0.8022 0.0
C2984 C 0.36924 0.85977 0.79416 0.0
C2985 C 0.36988 0.86442 0.7522 0.0
C2986 C 0.36271 0.86029 0.71932 0.0
C2987 C 0.37604 0.86499 0.83005 0.0
C2988 C 0.37586 0.87705 0.83476 0.0
C2989 C 0.38213 0.85823 0.86082 0.0
C2990 C 0.38361 0.84559 0.85573 0.0
C2991 C 0.38809 0.84098 0.81712 0.0
C2992 C 0.38941 0.82906 0.81239 0.0
C2993 C 0.38636 0.82166 0.84617 0.0
C2994 C 0.382 0.82616 0.88479 0.0
C2995 C 0.38065 0.83807 0.88968 0.0
H2996 H 0.38739 0.81243 0.84245 0.0
H2997 H 0.37997 0.92865 0.88165 0.0
H2998 H 0.40522 0.1115 0.98389 0.0
H2999 H 0.39646 0.12228 0.04341 0.0
H3000 H 0.36692 0.09962 0.04002 0.0
H3001 H 0.37539 0.08917 0.97932 0.0
H3002 H 0.35976 0.12011 0.0541 0.0
H3003 H 0.38986 0.09682 0.11566 0.0
H3004 H 0.40967 0.08941 0.12417 0.0
H3005 H 0.42171 0.12351 0.15438 0.0
H3006 H 0.40198 0.13114 0.1455 0.0
H3007 H 0.33935 0.12636 0.26914 0.0
H3008 H 0.34934 0.11822 0.20649 0.0
H3009 H 0.37031 0.14883 0.19685 0.0
H3010 H 0.3602 0.15719 0.25914 0.0
H3011 H 0.38224 0.12584 0.18911 0.0
H3012 H 0.35076 0.14833 0.13085 0.0
H3013 H 0.33041 0.15438 0.12591 0.0
H3014 H 0.32048 0.11977 0.09327 0.0
H3015 H 0.34076 0.11348 0.0987 0.0
C3016 C 0.39681 0.1089 0.9956 0.0
C3017 C 0.39102 0.09945 0.97709 0.0
C3018 C 0.39184 0.11502 0.02982 0.0
C3019 C 0.38113 0.11161 0.04691 0.0
C3020 C 0.37519 0.1024 0.02752 0.0
C3021 C 0.38005 0.09642 0.99281 0.0
C3022 C 0.37617 0.11745 0.08546 0.0
C3023 C 0.36468 0.12125 0.08366 0.0
C3024 C 0.3826 0.11914 0.124 0.0
C3025 C 0.39447 0.11457 0.12944 0.0
C3026 C 0.39675 0.10275 0.1238 0.0
C3027 C 0.40796 0.09851 0.12874 0.0
C3028 C 0.41695 0.10599 0.13968 0.0
C3029 C 0.41474 0.11773 0.14582 0.0
C3030 C 0.40354 0.12201 0.14087 0.0
C3031 C 0.34617 0.13132 0.25404 0.0
C3032 C 0.34897 0.14244 0.26897 0.0
C3033 C 0.35183 0.12667 0.2182 0.0
C3034 C 0.36048 0.13298 0.19707 0.0
C3035 C 0.36363 0.14387 0.21284 0.0
C3036 C 0.35783 0.14862 0.24828 0.0
C3037 C 0.36589 0.12831 0.15754 0.0
C3038 C 0.37743 0.12474 0.15928 0.0
C3039 C 0.35945 0.12663 0.11924 0.0
C3040 C 0.34727 0.13042 0.1156 0.0
C3041 C 0.34423 0.14199 0.12301 0.0
C3042 C 0.3327 0.14547 0.12004 0.0
C3043 C 0.32415 0.13746 0.1094 0.0
C3044 C 0.32711 0.12596 0.10157 0.0
C3045 C 0.33862 0.12244 0.10455 0.0
H3046 H 0.31524 0.14017 0.10712 0.0
H3047 H 0.42563 0.10269 0.1435 0.0
H3048 H 0.91217 0.89845 0.52582 0.0
H3049 H 0.90324 0.88748 0.58422 0.0
H3050 H 0.8728 0.88252 0.50585 0.0
H3051 H 0.88152 0.89398 0.44802 0.0
H3052 H 0.86634 0.88813 0.58114 0.0
H3053 H 0.89303 0.86018 0.52858 0.0
H3054 H 0.9119 0.85252 0.50552 0.0
H3055 H 0.92559 0.85847 0.63268 0.0
H3056 H 0.90684 0.86631 0.65636 0.0
H3057 H 0.85744 0.83616 0.73647 0.0
H3058 H 0.86734 0.8447 0.67451 0.0
H3059 H 0.86296 0.87856 0.73004 0.0
H3060 H 0.8528 0.87013 0.79163 0.0
H3061 H 0.88616 0.85696 0.6622 0.0
H3062 H 0.85734 0.89787 0.65135 0.0
H3063 H 0.83741 0.90375 0.66874 0.0
H3064 H 0.8261 0.86862 0.65728 0.0
H3065 H 0.84591 0.86255 0.63922 0.0
C3066 C 0.90362 0.89491 0.52084 0.0
C3067 C 0.89754 0.89707 0.48232 0.0
C3068 C 0.89853 0.88859 0.55422 0.0
C3069 C 0.88738 0.88402 0.54935 0.0
C3070 C 0.8814 0.88596 0.51048 0.0
C3071 C 0.8864 0.89248 0.47739 0.0
C3072 C 0.88173 0.87775 0.58559 0.0
C3073 C 0.87068 0.88129 0.59869 0.0
C3074 C 0.88727 0.86867 0.6082 0.0
C3075 C 0.89855 0.86392 0.59414 0.0
C3076 C 0.90009 0.85992 0.55154 0.0
C3077 C 0.91076 0.85554 0.53838 0.0
C3078 C 0.91995 0.85503 0.56759 0.0
C3079 C 0.91847 0.85888 0.61008 0.0
C3080 C 0.90782 0.86328 0.62341 0.0
C3081 C 0.85866 0.84542 0.73573 0.0
C3082 C 0.85422 0.85247 0.76883 0.0
C3083 C 0.86434 0.85028 0.70028 0.0
C3084 C 0.86572 0.86228 0.69727 0.0
C3085 C 0.86178 0.8693 0.73125 0.0
C3086 C 0.85602 0.86446 0.76654 0.0
C3087 C 0.8709 0.86749 0.65797 0.0
C3088 C 0.88184 0.86377 0.64443 0.0
C3089 C 0.86512 0.87615 0.63405 0.0
C3090 C 0.85314 0.87975 0.64438 0.0
C3091 C 0.85059 0.89141 0.65238 0.0
C3092 C 0.83932 0.89477 0.66237 0.0
C3093 C 0.83051 0.88656 0.66425 0.0
C3094 C 0.83294 0.87496 0.65598 0.0
C3095 C 0.84419 0.87156 0.64591 0.0
H3096 H 0.82179 0.88918 0.67204 0.0
H3097 H 0.9282 0.85164 0.55733 0.0
H3098 H 0.83937 0.1285 0.23172 0.0
H3099 H 0.84937 0.12098 0.29537 0.0
H3100 H 0.86727 0.15333 0.31038 0.0
H3101 H 0.85707 0.16109 0.24707 0.0
H3102 H 0.881 0.13044 0.31588 0.0
H3103 H 0.84853 0.15137 0.37508 0.0
H3104 H 0.82794 0.15659 0.37946 0.0
H3105 H 0.81923 0.12138 0.40763 0.0
H3106 H 0.83977 0.11591 0.40273 0.0
H3107 H 0.90375 0.11375 0.51938 0.0
H3108 H 0.89501 0.12532 0.46187 0.0
H3109 H 0.86571 0.10232 0.45948 0.0
H3110 H 0.87413 0.0911 0.51826 0.0
H3111 H 0.85831 0.12278 0.44901 0.0
H3112 H 0.88911 0.10091 0.38455 0.0
H3113 H 0.90912 0.09408 0.37564 0.0
H3114 H 0.92047 0.1288 0.35261 0.0
H3115 H 0.90053 0.13586 0.36192 0.0
C3116 C 0.8455 0.134 0.24827 0.0
C3117 C 0.84742 0.1454 0.23444 0.0
C3118 C 0.85117 0.1297 0.28467 0.0
C3119 C 0.85898 0.13664 0.30747 0.0
C3120 C 0.86124 0.14788 0.29306 0.0
C3121 C 0.8554 0.15229 0.25705 0.0
C3122 C 0.86451 0.13214 0.34704 0.0
C3123 C 0.87615 0.12895 0.34539 0.0
C3124 C 0.85801 0.12993 0.38481 0.0
C3125 C 0.84567 0.13322 0.38814 0.0
C3126 C 0.84222 0.14472 0.38181 0.0
C3127 C 0.83056 0.14772 0.38447 0.0
C3128 C 0.82228 0.13931 0.39371 0.0
C3129 C 0.82565 0.12788 0.40043 0.0
C3130 C 0.8373 0.12483 0.39776 0.0
C3131 C 0.89539 0.11124 0.50682 0.0
C3132 C 0.88965 0.10149 0.52316 0.0
C3133 C 0.89044 0.11781 0.47377 0.0
C3134 C 0.87981 0.11456 0.45561 0.0
C3135 C 0.87392 0.10501 0.47284 0.0
C3136 C 0.87876 0.09859 0.50645 0.0
C3137 C 0.87488 0.12086 0.41803 0.0
C3138 C 0.86329 0.12438 0.4199 0.0
C3139 C 0.88138 0.12315 0.38009 0.0
C3140 C 0.89336 0.11893 0.37443 0.0
C3141 C 0.89589 0.1071 0.3779 0.0
C3142 C 0.90721 0.10318 0.37273 0.0
C3143 C 0.91607 0.111 0.36371 0.0
C3144 C 0.91361 0.12276 0.3597 0.0
C3145 C 0.9023 0.12672 0.36489 0.0
H3146 H 0.92483 0.10796 0.35971 0.0
H3147 H 0.81326 0.14166 0.39575 0.0
H3148 H 0.64354 0.13223 0.29174 0.0
H3149 H 0.63233 0.12492 0.23086 0.0
H3150 H 0.63377 0.15837 0.16997 0.0
H3151 H 0.64489 0.16585 0.23126 0.0
H3152 H 0.61275 0.14783 0.15729 0.0
H3153 H 0.65278 0.13858 0.14045 0.0
H3154 H 0.67167 0.13087 0.16302 0.0
H3155 H 0.65688 0.09713 0.17758 0.0
H3156 H 0.63784 0.10468 0.15568 0.0
H3157 H 0.61716 0.10909 0.94801 0.0
H3158 H 0.6254 0.12116 0.00477 0.0
H3159 H 0.59441 0.11707 0.08065 0.0
H3160 H 0.58598 0.1052 0.0234 0.0
H3161 H 0.63077 0.11458 0.08209 0.0
H3162 H 0.59146 0.13982 0.15028 0.0
H3163 H 0.57344 0.14865 0.12377 0.0
H3164 H 0.58832 0.15252 0.99737 0.0
H3165 H 0.60648 0.14386 0.02325 0.0
C3166 C 0.64137 0.1381 0.26572 0.0
C3167 C 0.64525 0.14959 0.26609 0.0
C3168 C 0.63495 0.1339 0.23093 0.0
C3169 C 0.63241 0.14105 0.1956 0.0
C3170 C 0.63569 0.1527 0.1969 0.0
C3171 C 0.64207 0.15694 0.23189 0.0
C3172 C 0.62714 0.1361 0.15606 0.0
C3173 C 0.61665 0.14056 0.14076 0.0
C3174 C 0.63241 0.12681 0.13394 0.0
C3175 C 0.64387 0.12222 0.14679 0.0
C3176 C 0.65354 0.12953 0.14875 0.0
C3177 C 0.66427 0.12519 0.16139 0.0
C3178 C 0.66547 0.11352 0.17182 0.0
C3179 C 0.65593 0.10617 0.16953 0.0
C3180 C 0.64517 0.11047 0.15698 0.0
C3181 C 0.61202 0.11089 0.97649 0.0
C3182 C 0.60094 0.10611 0.98132 0.0
C3183 C 0.61675 0.11779 0.00893 0.0
C3184 C 0.61054 0.12003 0.04699 0.0
C3185 C 0.59931 0.1156 0.05133 0.0
C3186 C 0.59452 0.10877 0.01863 0.0
C3187 C 0.61621 0.12615 0.08344 0.0
C3188 C 0.62681 0.12188 0.09834 0.0
C3189 C 0.61114 0.13575 0.10445 0.0
C3190 C 0.60029 0.14108 0.08865 0.0
C3191 C 0.5909 0.14259 0.11688 0.0
C3192 C 0.58066 0.14756 0.10195 0.0
C3193 C 0.57972 0.15111 0.05888 0.0
C3194 C 0.58904 0.14973 0.03068 0.0
C3195 C 0.59931 0.14477 0.04545 0.0
H3196 H 0.57178 0.15495 0.04739 0.0
H3197 H 0.67379 0.11018 0.1816 0.0
H3198 H 0.63935 0.84624 0.73966 0.0
H3199 H 0.6288 0.85519 0.79981 0.0
H3200 H 0.65326 0.88319 0.8018 0.0
H3201 H 0.66367 0.87452 0.74109 0.0
H3202 H 0.64833 0.86962 0.88548 0.0
H3203 H 0.63065 0.89065 0.76601 0.0
H3204 H 0.6201 0.89184 0.69685 0.0
H3205 H 0.59174 0.87316 0.75235 0.0
H3206 H 0.6022 0.87171 0.82169 0.0
H3207 H 0.62698 0.91083 0.03012 0.0
H3208 H 0.63503 0.90017 0.96936 0.0
H3209 H 0.60227 0.88328 0.94938 0.0
H3210 H 0.59399 0.89434 0.00932 0.0
H3211 H 0.61038 0.88925 0.87528 0.0
H3212 H 0.62617 0.86901 0.99468 0.0
H3213 H 0.63607 0.86626 0.06453 0.0
H3214 H 0.66705 0.8809 0.01175 0.0
H3215 H 0.65729 0.88389 0.94172 0.0
C3216 C 0.64239 0.85437 0.7526 0.0
C3217 C 0.65233 0.85969 0.73569 0.0
C3218 C 0.63637 0.85945 0.78685 0.0
C3219 C 0.64031 0.8698 0.80508 0.0
C3220 C 0.65012 0.87519 0.788 0.0
C3221 C 0.65601 0.87026 0.75323 0.0
C3222 C 0.63452 0.87479 0.84326 0.0
C3223 C 0.64008 0.87402 0.88338 0.0
C3224 C 0.62356 0.88004 0.84046 0.0
C3225 C 0.61727 0.88094 0.79883 0.0
C3226 C 0.62222 0.88668 0.76332 0.0
C3227 C 0.61624 0.88743 0.72412 0.0
C3228 C 0.60527 0.88254 0.72016 0.0
C3229 C 0.60024 0.87692 0.75543 0.0
C3230 C 0.60619 0.87614 0.79469 0.0
C3231 C 0.62149 0.90478 0.01307 0.0
C3232 C 0.60985 0.90339 0.02467 0.0
C3233 C 0.62613 0.89864 0.97838 0.0
C3234 C 0.61932 0.89075 0.95518 0.0
C3235 C 0.6077 0.88929 0.96683 0.0
C3236 C 0.60299 0.89559 0.00117 0.0
C3237 C 0.6243 0.88436 0.91791 0.0
C3238 C 0.61858 0.88479 0.87783 0.0
C3239 C 0.63503 0.87855 0.92095 0.0
C3240 C 0.64096 0.87676 0.96301 0.0
C3241 C 0.63507 0.87172 0.99804 0.0
C3242 C 0.64066 0.87011 0.03766 0.0
C3243 C 0.65218 0.87342 0.0426 0.0
C3244 C 0.65813 0.87834 0.00788 0.0
C3245 C 0.65258 0.87998 0.9682 0.0
H3246 H 0.65649 0.87216 0.0733 0.0
H3247 H 0.60066 0.88313 0.68979 0.0
H3248 H 0.58672 0.59822 0.96893 0.0
H3249 H 0.59381 0.60927 0.90668 0.0
H3250 H 0.62005 0.62468 0.98685 0.0
H3251 H 0.61327 0.6134 0.04893 0.0
H3252 H 0.60524 0.6398 0.91841 0.0
H3253 H 0.63081 0.60612 0.94118 0.0
H3254 H 0.63364 0.5852 0.9513 0.0
H3255 H 0.61582 0.57851 0.83207 0.0
H3256 H 0.61273 0.59941 0.82166 0.0
H3257 H 0.64854 0.66234 0.78317 0.0
H3258 H 0.63632 0.65377 0.83867 0.0
H3259 H 0.62597 0.62713 0.74894 0.0
H3260 H 0.63883 0.63532 0.69416 0.0
H3261 H 0.63025 0.61744 0.81865 0.0
H3262 H 0.60727 0.65013 0.78643 0.0
H3263 H 0.60261 0.67058 0.77328 0.0
H3264 H 0.61259 0.67901 0.90329 0.0
H3265 H 0.61747 0.65863 0.91708 0.0
C3266 C 0.59387 0.60412 0.97346 0.0
C3267 C 0.59949 0.60493 0.01367 0.0
C3268 C 0.59789 0.6104 0.93794 0.0
C3269 C 0.60742 0.61776 0.94242 0.0
C3270 C 0.61265 0.61907 0.98301 0.0
C3271 C 0.60881 0.61259 0.01828 0.0
C3272 C 0.61263 0.62324 0.90404 0.0
C3273 C 0.61078 0.635 0.89656 0.0
C3274 C 0.61944 0.6168 0.87492 0.0
C3275 C 0.62142 0.60428 0.88094 0.0
C3276 C 0.6274 0.60017 0.91737 0.0
C3277 C 0.62907 0.58833 0.9231 0.0
C3278 C 0.62488 0.58053 0.89242 0.0
C3279 C 0.61904 0.58456 0.85586 0.0
C3280 C 0.61733 0.5964 0.85002 0.0
C3281 C 0.64355 0.65474 0.77514 0.0
C3282 C 0.64463 0.64949 0.7344 0.0
C3283 C 0.63647 0.64988 0.80683 0.0
C3284 C 0.63001 0.63989 0.79797 0.0
C3285 C 0.63085 0.63483 0.75673 0.0
C3286 C 0.63817 0.63952 0.72538 0.0
C3287 C 0.62311 0.63425 0.8327 0.0
C3288 C 0.62463 0.62237 0.83974 0.0
C3289 C 0.61576 0.64057 0.86074 0.0
C3290 C 0.61282 0.65285 0.85267 0.0
C3291 C 0.60855 0.65635 0.81213 0.0
C3292 C 0.60585 0.66793 0.80458 0.0
C3293 C 0.60732 0.67609 0.8374 0.0
C3294 C 0.61146 0.67268 0.87789 0.0
C3295 C 0.61418 0.66111 0.88561 0.0
H3296 H 0.60523 0.68505 0.83149 0.0
H3297 H 0.62618 0.57136 0.89691 0.0
H3298 H 0.65997 0.37529 0.27192 0.0
H3299 H 0.64887 0.3842 0.214 0.0
H3300 H 0.62614 0.3547 0.21084 0.0
H3301 H 0.63761 0.34548 0.26766 0.0
H3302 H 0.63103 0.36011 0.13315 0.0
H3303 H 0.6177 0.38193 0.25278 0.0
H3304 H 0.61888 0.39361 0.3193 0.0
H3305 H 0.6372 0.42004 0.25034 0.0
H3306 H 0.63628 0.40845 0.18351 0.0
H3307 H 0.59167 0.39347 0.99705 0.0
H3308 H 0.59941 0.38305 0.05987 0.0
H3309 H 0.63138 0.40181 0.04852 0.0
H3310 H 0.62388 0.41202 0.98527 0.0
H3311 H 0.61921 0.40124 0.13593 0.0
H3312 H 0.63341 0.37725 0.0175 0.0
H3313 H 0.63079 0.36527 0.9523 0.0
H3314 H 0.60836 0.34256 0.02284 0.0
H3315 H 0.61073 0.35452 0.08833 0.0
C3316 C 0.65253 0.37075 0.25927 0.0
C3317 C 0.64965 0.35969 0.27444 0.0
C3318 C 0.64614 0.37589 0.22624 0.0
C3319 C 0.63652 0.37023 0.20843 0.0
C3320 C 0.63351 0.35926 0.22405 0.0
C3321 C 0.64004 0.35401 0.25661 0.0
C3322 C 0.63004 0.37556 0.17203 0.0
C3323 C 0.62825 0.36904 0.13423 0.0
C3324 C 0.62643 0.38723 0.17307 0.0
C3325 C 0.62699 0.39427 0.21318 0.0
C3326 C 0.62205 0.3902 0.25185 0.0
C3327 C 0.62266 0.39681 0.28961 0.0
C3328 C 0.62813 0.40755 0.28907 0.0
C3329 C 0.63297 0.41172 0.25072 0.0
C3330 C 0.63239 0.40513 0.21287 0.0
C3331 C 0.60038 0.3953 0.00777 0.0
C3332 C 0.60718 0.40354 0.9862 0.0
C3333 C 0.60476 0.38935 0.04356 0.0
C3334 C 0.61592 0.39172 0.05869 0.0
C3335 C 0.62273 0.39991 0.03722 0.0
C3336 C 0.61846 0.40567 0.00099 0.0
C3337 C 0.62051 0.38584 0.09741 0.0
C3338 C 0.62189 0.39227 0.13546 0.0
C3339 C 0.62351 0.37405 0.09693 0.0
C3340 C 0.62212 0.36686 0.05762 0.0
C3341 C 0.62782 0.36978 0.01897 0.0
C3342 C 0.62641 0.36297 0.982 0.0
C3343 C 0.61938 0.35318 0.98338 0.0
C3344 C 0.61378 0.35016 0.02179 0.0
C3345 C 0.61516 0.35694 0.05884 0.0
H3346 H 0.6183 0.34792 0.95472 0.0
H3347 H 0.62859 0.41266 0.31833 0.0
H3348 H 0.91256 0.39785 0.4904 0.0
H3349 H 0.9044 0.38708 0.42961 0.0
H3350 H 0.87016 0.39254 0.48034 0.0
H3351 H 0.87822 0.40314 0.54145 0.0
H3352 H 0.87235 0.37108 0.45127 0.0
H3353 H 0.88046 0.40919 0.39881 0.0
H3354 H 0.89259 0.42624 0.38424 0.0
H3355 H 0.91489 0.40574 0.30428 0.0
H3356 H 0.90297 0.38853 0.31887 0.0
H3357 H 0.84778 0.3738 0.21924 0.0
H3358 H 0.8584 0.38272 0.27859 0.0
H3359 H 0.8712 0.34936 0.31751 0.0
H3360 H 0.86037 0.34029 0.25873 0.0
H3361 H 0.88025 0.38443 0.3016 0.0
H3362 H 0.87253 0.34839 0.42753 0.0
H3363 H 0.85847 0.33294 0.44302 0.0
H3364 H 0.83203 0.35205 0.3772 0.0
H3365 H 0.84589 0.36766 0.36183 0.0
C3366 C 0.9033 0.39669 0.48882 0.0
C3367 C 0.89604 0.40143 0.5207 0.0
C3368 C 0.89865 0.39057 0.45396 0.0
C3369 C 0.88666 0.38913 0.4502 0.0
C3370 C 0.87943 0.39355 0.48261 0.0
C3371 C 0.88406 0.39964 0.51747 0.0
C3372 C 0.88157 0.38333 0.41193 0.0
C3373 C 0.87414 0.37394 0.41853 0.0
C3374 C 0.88374 0.38721 0.36926 0.0
C3375 C 0.8909 0.39755 0.36031 0.0
C3376 C 0.888 0.4083 0.3784 0.0
C3377 C 0.89483 0.41799 0.37009 0.0
C3378 C 0.90453 0.41706 0.34345 0.0
C3379 C 0.90739 0.40644 0.32497 0.0
C3380 C 0.9006 0.39672 0.33322 0.0
C3381 C 0.85292 0.36834 0.24019 0.0
C3382 C 0.85313 0.35631 0.23447 0.0
C3383 C 0.85902 0.37348 0.27404 0.0
C3384 C 0.86547 0.3667 0.30284 0.0
C3385 C 0.86611 0.35474 0.29612 0.0
C3386 C 0.85995 0.34957 0.2624 0.0
C3387 C 0.87107 0.37213 0.34092 0.0
C3388 C 0.87859 0.38146 0.3343 0.0
C3389 C 0.86873 0.3684 0.38367 0.0
C3390 C 0.86029 0.35912 0.39312 0.0
C3391 C 0.86371 0.3493 0.41648 0.0
C3392 C 0.85578 0.34052 0.42523 0.0
C3393 C 0.84438 0.34149 0.41096 0.0
C3394 C 0.84087 0.35128 0.38807 0.0
C3395 C 0.84877 0.36009 0.3793 0.0
H3396 H 0.83825 0.33468 0.41773 0.0
H3397 H 0.9098 0.42458 0.33706 0.0
H3398 H 0.86259 0.65691 0.75556 0.0
H3399 H 0.8739 0.64859 0.69652 0.0
H3400 H 0.85314 0.6177 0.70176 0.0
H3401 H 0.84217 0.62575 0.76198 0.0
H3402 H 0.87405 0.61176 0.68851 0.0
H3403 H 0.849 0.64006 0.62456 0.0
H3404 H 0.84042 0.65934 0.61446 0.0
H3405 H 0.87376 0.67323 0.58353 0.0
H3406 H 0.88256 0.65404 0.59399 0.0
H3407 H 0.87903 0.59125 0.4733 0.0
H3408 H 0.87122 0.60151 0.53581 0.0
H3409 H 0.9024 0.62162 0.54497 0.0
H3410 H 0.91047 0.61118 0.48281 0.0
H3411 H 0.87829 0.63373 0.55158 0.0
H3412 H 0.90258 0.60373 0.61176 0.0
H3413 H 0.90954 0.58368 0.61703 0.0
H3414 H 0.87545 0.57228 0.65063 0.0
H3415 H 0.86825 0.59225 0.64484 0.0
C3416 C 0.8605 0.64831 0.74429 0.0
C3417 C 0.85145 0.64201 0.76325 0.0
C3418 C 0.86693 0.64358 0.71038 0.0
C3419 C 0.86424 0.6326 0.69403 0.0
C3420 C 0.85539 0.62619 0.71372 0.0
C3421 C 0.84911 0.63082 0.74813 0.0
C3422 C 0.87042 0.62781 0.65593 0.0
C3423 C 0.87491 0.61658 0.65859 0.0
C3424 C 0.87172 0.63412 0.61688 0.0
C3425 C 0.86645 0.64565 0.61055 0.0
C3426 C 0.85451 0.64724 0.61592 0.0
C3427 C 0.84961 0.65815 0.61008 0.0
C3428 C 0.85655 0.66751 0.5985 0.0
C3429 C 0.8684 0.66597 0.5926 0.0
C3430 C 0.87335 0.65509 0.59845 0.0
C3431 C 0.8842 0.59794 0.48823 0.0
C3432 C 0.89539 0.60038 0.47321 0.0
C3433 C 0.87973 0.60376 0.52397 0.0
C3434 C 0.88628 0.61224 0.54491 0.0
C3435 C 0.89725 0.61507 0.52908 0.0
C3436 C 0.90184 0.60909 0.49373 0.0
C3437 C 0.88174 0.61775 0.58443 0.0
C3438 C 0.87755 0.62906 0.58188 0.0
C3439 C 0.8805 0.61146 0.62327 0.0
C3440 C 0.88485 0.59947 0.62746 0.0
C3441 C 0.89655 0.59694 0.6199 0.0
C3442 C 0.90054 0.58559 0.62305 0.0
C3443 C 0.89294 0.57671 0.63404 0.0
C3444 C 0.88133 0.57916 0.64207 0.0
C3445 C 0.87729 0.5905 0.6389 0.0
H3446 H 0.89605 0.56792 0.63643 0.0
H3447 H 0.85273 0.67595 0.59398 0.0
H3448 H 0.36239 0.33534 0.24854 0.0
H3449 H 0.37505 0.34286 0.19182 0.0
H3450 H 0.3644 0.37754 0.22299 0.0
H3451 H 0.352 0.37015 0.28024 0.0
H3452 H 0.36972 0.35379 0.12107 0.0
H3453 H 0.38502 0.39671 0.20122 0.0
H3454 H 0.39036 0.40384 0.27369 0.0
H3455 H 0.3989 0.3694 0.3134 0.0
H3456 H 0.39378 0.36207 0.24101 0.0
H3457 H 0.38152 0.39694 0.96923 0.0
H3458 H 0.3751 0.38495 0.02919 0.0
H3459 H 0.41018 0.382 0.07447 0.0
H3460 H 0.41671 0.39427 0.01478 0.0
H3461 H 0.39642 0.38688 0.13949 0.0
H3462 H 0.39644 0.35881 0.0281 0.0
H3463 H 0.3924 0.35059 0.9561 0.0
H3464 H 0.35599 0.35306 0.97998 0.0
H3465 H 0.3598 0.36146 0.0519 0.0
C3466 C 0.36286 0.34458 0.24368 0.0
C3467 C 0.35617 0.35215 0.26896 0.0
C3468 C 0.37008 0.34886 0.21118 0.0
C3469 C 0.37077 0.36077 0.20338 0.0
C3470 C 0.36421 0.36833 0.22895 0.0
C3471 C 0.35706 0.36408 0.26158 0.0
C3472 C 0.37773 0.3653 0.16681 0.0
C3473 C 0.37563 0.36096 0.12516 0.0
C3474 C 0.38568 0.37447 0.17221 0.0
C3475 C 0.38894 0.37883 0.21571 0.0
C3476 C 0.3881 0.39066 0.22532 0.0
C3477 C 0.39108 0.39474 0.26642 0.0
C3478 C 0.39494 0.38708 0.29816 0.0
C3479 C 0.39587 0.37532 0.28883 0.0
C3480 C 0.39292 0.3712 0.24778 0.0
C3481 C 0.38791 0.39368 0.99161 0.0
C3482 C 0.39964 0.39659 0.98715 0.0
C3483 C 0.38423 0.38675 0.02583 0.0
C3484 C 0.39217 0.38246 0.05607 0.0
C3485 C 0.40391 0.3852 0.05145 0.0
C3486 C 0.40761 0.39219 0.01724 0.0
C3487 C 0.38805 0.37565 0.09368 0.0
C3488 C 0.39066 0.37958 0.13551 0.0
C3489 C 0.38077 0.36593 0.08853 0.0
C3490 C 0.37842 0.36083 0.04534 0.0
C3491 C 0.38757 0.35767 0.0179 0.0
C3492 C 0.38532 0.35297 0.97711 0.0
C3493 C 0.37395 0.35132 0.96345 0.0
C3494 C 0.3648 0.35434 0.9906 0.0
C3495 C 0.367 0.35906 0.03142 0.0
H3496 H 0.37223 0.34768 0.93185 0.0
H3497 H 0.39723 0.39025 0.32996 0.0
H3498 H 0.41229 0.60455 0.98987 0.0
H3499 H 0.40532 0.61653 0.93011 0.0
H3500 H 0.37028 0.61154 0.97337 0.0
H3501 H 0.37714 0.59979 0.03339 0.0
H3502 H 0.39183 0.61105 0.86399 0.0
H3503 H 0.35409 0.63457 0.95156 0.0
H3504 H 0.34969 0.6423 0.02406 0.0
H3505 H 0.38588 0.64622 0.0499 0.0
H3506 H 0.39049 0.63867 0.97735 0.0
H3507 H 0.34759 0.62752 0.72128 0.0
H3508 H 0.35963 0.62002 0.77949 0.0
H3509 H 0.36978 0.65466 0.81351 0.0
H3510 H 0.35753 0.66229 0.75579 0.0
H3511 H 0.36402 0.64317 0.88338 0.0
H3512 H 0.38885 0.63617 0.76403 0.0
H3513 H 0.3942 0.62933 0.6912 0.0
H3514 H 0.38625 0.59452 0.72814 0.0
H3515 H 0.38069 0.60117 0.80102 0.0
C3516 C 0.4031 0.6061 0.98693 0.0
C3517 C 0.39527 0.60121 0.0165 0.0
C3518 C 0.39914 0.61293 0.95268 0.0
C3519 C 0.3873 0.61503 0.94751 0.0
C3520 C 0.37948 0.61022 0.97715 0.0
C3521 C 0.38342 0.60345 0.0114 0.0
C3522 C 0.38297 0.62179 0.91014 0.0
C3523 C 0.38582 0.61813 0.86819 0.0
C3524 C 0.37534 0.63121 0.91563 0.0
C3525 C 0.37263 0.63597 0.95907 0.0
C3526 C 0.3611 0.63715 0.9726 0.0
C3527 C 0.35857 0.64148 0.01374 0.0
C3528 C 0.3675 0.64472 0.04161 0.0
C3529 C 0.37897 0.64367 0.02834 0.0
C3530 C 0.38155 0.63935 0.98722 0.0
C3531 C 0.35245 0.63356 0.74085 0.0
C3532 C 0.35157 0.64551 0.73388 0.0
C3533 C 0.35939 0.62924 0.77402 0.0
C3534 C 0.36571 0.63677 0.80059 0.0
C3535 C 0.36499 0.6487 0.79337 0.0
C3536 C 0.358 0.65303 0.76029 0.0
C3537 C 0.37257 0.63216 0.83726 0.0
C3538 C 0.37017 0.63621 0.87911 0.0
C3539 C 0.3808 0.62326 0.83161 0.0
C3540 C 0.38428 0.61919 0.78795 0.0
C3541 C 0.38817 0.62706 0.75656 0.0
C3542 C 0.39126 0.62322 0.71526 0.0
C3543 C 0.39055 0.6115 0.70502 0.0
C3544 C 0.38679 0.6036 0.73611 0.0
C3545 C 0.38369 0.6074 0.77745 0.0
H3546 H 0.39292 0.60855 0.67301 0.0
H3547 H 0.36552 0.64806 0.07347 0.0
H3548 H 0.15239 0.63023 0.77148 0.0
H3549 H 0.14072 0.62262 0.71214 0.0
H3550 H 0.12303 0.65518 0.7014 0.0
H3551 H 0.13489 0.66304 0.76029 0.0
H3552 H 0.1101 0.62879 0.7003 0.0
H3553 H 0.13678 0.65633 0.63123 0.0
H3554 H 0.15621 0.66469 0.62223 0.0
H3555 H 0.16977 0.63123 0.59119 0.0
H3556 H 0.15044 0.62266 0.60071 0.0
H3557 H 0.08562 0.61121 0.49773 0.0
H3558 H 0.09299 0.62308 0.55732 0.0
H3559 H 0.12622 0.60654 0.54557 0.0
H3560 H 0.11911 0.59517 0.48513 0.0
H3561 H 0.12974 0.62777 0.55766 0.0
H3562 H 0.10515 0.59962 0.62657 0.0
H3563 H 0.08694 0.58924 0.6404 0.0
H3564 H 0.07052 0.62104 0.67619 0.0
H3565 H 0.08861 0.63163 0.66206 0.0
C3566 C 0.14592 0.63575 0.75697 0.0
C3567 C 0.14461 0.64726 0.77042 0.0
C3568 C 0.13927 0.63138 0.72311 0.0
C3569 C 0.13107 0.63837 0.70258 0.0
C3570 C 0.12933 0.64969 0.71706 0.0
C3571 C 0.13613 0.65415 0.75053 0.0
C3572 C 0.12504 0.63398 0.66392 0.0
C3573 C 0.11422 0.62876 0.66876 0.0
C3574 C 0.13063 0.63369 0.62341 0.0
C3575 C 0.14221 0.63885 0.61711 0.0
C3576 C 0.14393 0.65075 0.62289 0.0
C3577 C 0.15492 0.65553 0.61761 0.0
C3578 C 0.16423 0.64849 0.60626 0.0
C3579 C 0.16256 0.63667 0.60004 0.0
C3580 C 0.15159 0.63185 0.60533 0.0
C3581 C 0.09451 0.61018 0.50783 0.0
C3582 C 0.10179 0.60227 0.48672 0.0
C3583 C 0.0987 0.61691 0.54203 0.0
C3584 C 0.11014 0.61562 0.5564 0.0
C3585 C 0.11739 0.60777 0.53506 0.0
C3586 C 0.11329 0.60123 0.50048 0.0
C3587 C 0.11473 0.62234 0.59364 0.0
C3588 C 0.12538 0.62797 0.58872 0.0
C3589 C 0.10905 0.62278 0.63427 0.0
C3590 C 0.09818 0.61643 0.64275 0.0
C3591 C 0.09763 0.60441 0.63707 0.0
C3592 C 0.08733 0.59849 0.64501 0.0
C3593 C 0.07757 0.60448 0.65902 0.0
C3594 C 0.07808 0.61641 0.66524 0.0
C3595 C 0.08835 0.62238 0.65729 0.0
H3596 H 0.06961 0.59988 0.66517 0.0
H3597 H 0.17273 0.6522 0.6022 0.0
H3598 H 0.15476 0.37632 0.21746 0.0
H3599 H 0.14373 0.38477 0.27684 0.0
H3600 H 0.13079 0.35109 0.31101 0.0
H3601 H 0.14195 0.34252 0.25218 0.0
H3602 H 0.12138 0.38591 0.29866 0.0
H3603 H 0.12965 0.34925 0.42117 0.0
H3604 H 0.14394 0.33392 0.43529 0.0
H3605 H 0.17015 0.35394 0.37204 0.0
H3606 H 0.15606 0.36944 0.35808 0.0
H3607 H 0.08883 0.39768 0.48861 0.0
H3608 H 0.0971 0.38726 0.42718 0.0
H3609 H 0.1313 0.39317 0.47766 0.0
H3610 H 0.12314 0.40341 0.53939 0.0
H3611 H 0.12946 0.3718 0.44725 0.0
H3612 H 0.12034 0.41008 0.3975 0.0
H3613 H 0.10768 0.42679 0.38405 0.0
H3614 H 0.08599 0.40596 0.30285 0.0
H3615 H 0.09846 0.38908 0.3163 0.0
C3616 C 0.14949 0.37071 0.23733 0.0
C3617 C 0.14934 0.35872 0.23034 0.0
C3618 C 0.14316 0.37556 0.27118 0.0
C3619 C 0.13657 0.36854 0.29868 0.0
C3620 C 0.13597 0.35664 0.29058 0.0
C3621 C 0.14234 0.35177 0.25685 0.0
C3622 C 0.13082 0.37361 0.33707 0.0
C3623 C 0.12308 0.38277 0.33113 0.0
C3624 C 0.13318 0.36963 0.37948 0.0
C3625 C 0.14177 0.36043 0.38816 0.0
C3626 C 0.13847 0.35038 0.4104 0.0
C3627 C 0.14653 0.34167 0.41837 0.0
C3628 C 0.15793 0.34293 0.40443 0.0
C3629 C 0.16131 0.35295 0.38266 0.0
C3630 C 0.15329 0.36169 0.37467 0.0
C3631 C 0.0981 0.39668 0.48686 0.0
C3632 C 0.10532 0.40145 0.5188 0.0
C3633 C 0.10282 0.39076 0.45164 0.0
C3634 C 0.11482 0.38957 0.44759 0.0
C3635 C 0.12201 0.39399 0.48014 0.0
C3636 C 0.11732 0.39988 0.51535 0.0
C3637 C 0.11999 0.38408 0.40886 0.0
C3638 C 0.12763 0.37483 0.41474 0.0
C3639 C 0.11774 0.38815 0.3665 0.0
C3640 C 0.11026 0.39829 0.35828 0.0
C3641 C 0.11282 0.40904 0.37705 0.0
C3642 C 0.10569 0.41855 0.36938 0.0
C3643 C 0.09602 0.41743 0.34272 0.0
C3644 C 0.09348 0.40681 0.32356 0.0
C3645 C 0.10057 0.39727 0.33117 0.0
H3646 H 0.09051 0.4248 0.33681 0.0
H3647 H 0.16416 0.33617 0.41059 0.0
loop_
_geom_bond_atom_site_label_1
_geom_bond_atom_site_label_2
_geom_bond_distance
_geom_bond_site_symmetry_2
_ccdc_geom_bond_type
O0 Cd1 2.223 . S
O0 C8 1.315 . S
Cd1 O0 2.223 . S
Cd1 O4 2.297 . S
Cd1 O5 2.439 . S
Cd1 O11 2.240 . S
Cd2 O3 2.240 . S
Cd2 O10 2.223 . S
Cd2 O12 2.297 . S
Cd2 O13 2.439 . S
O3 Cd2 2.240 . S
O3 C8 1.279 . S
O4 Cd1 2.297 . S
O4 C6 1.247 . S
O5 Cd1 2.439 . S
O5 C6 1.208 . S
C6 O4 1.247 . S
C6 O5 1.208 . S
C7 O12 1.247 . S
C7 O13 1.208 . S
C8 O0 1.315 . S
C8 O3 1.279 . S
C9 O10 1.315 . S
C9 O11 1.279 . S
O10 Cd2 2.223 . S
O10 C9 1.315 . S
O11 Cd1 2.240 . S
O11 C9 1.279 . S
O12 Cd2 2.297 . S
O12 C7 1.247 . S
O13 Cd2 2.439 . S
O13 C7 1.208 . S
O14 Cd15 2.223 . S
O14 C22 1.315 . S
Cd15 O14 2.223 . S
Cd15 O18 2.297 . S
Cd15 O19 2.439 . S
Cd15 O25 2.240 . S
Cd16 O17 2.240 . S
Cd16 O24 2.223 . S
Cd16 O26 2.297 . S
Cd16 O27 2.439 . S
O17 Cd16 2.240 . S
O17 C22 1.279 . S
O18 Cd15 2.297 . S
O18 C20 1.247 . S
O19 Cd15 2.439 . S
O19 C20 1.208 . S
C20 O18 1.247 . S
C20 O19 1.208 . S
C21 O26 1.247 . S
C21 O27 1.208 . S
C22 O14 1.315 . S
C22 O17 1.279 . S
C23 O24 1.315 . S
C23 O25 1.279 . S
O24 Cd16 2.223 . S
O24 C23 1.315 . S
O25 Cd15 2.240 . S
O25 C23 1.279 . S
O26 Cd16 2.297 . S
O26 C21 1.247 . S
O27 Cd16 2.439 . S
O27 C21 1.208 . S
O28 Cd29 2.223 . S
O28 C36 1.315 . S
Cd29 O28 2.223 . S
Cd29 O32 2.297 . S
Cd29 O33 2.439 . S
Cd29 O39 2.240 . S
Cd30 O31 2.240 . S
Cd30 O38 2.223 . S
Cd30 O40 2.297 . S
Cd30 O41 2.439 . S
O31 Cd30 2.240 . S
O31 C36 1.279 . S
O32 Cd29 2.297 . S
O32 C34 1.247 . S
O33 Cd29 2.439 . S
O33 C34 1.208 . S
C34 O32 1.247 . S
C34 O33 1.208 . S
C35 O40 1.247 . S
C35 O41 1.208 . S
C36 O28 1.315 . S
C36 O31 1.279 . S
C37 O38 1.315 . S
C37 O39 1.279 . S
O38 Cd30 2.223 . S
O38 C37 1.315 . S
O39 Cd29 2.240 . S
O39 C37 1.279 . S
O40 Cd30 2.297 . S
O40 C35 1.247 . S
O41 Cd30 2.439 . S
O41 C35 1.208 . S
O42 Cd43 2.223 . S
O42 C50 1.315 . S
Cd43 O42 2.223 . S
Cd43 O46 2.297 . S
Cd43 O47 2.439 . S
Cd43 O53 2.240 . S
Cd44 O45 2.240 . S
Cd44 O52 2.223 . S
Cd44 O54 2.297 . S
Cd44 O55 2.439 . S
O45 Cd44 2.240 . S
O45 C50 1.279 . S
O46 Cd43 2.297 . S
O46 C48 1.247 . S
O47 Cd43 2.439 . S
O47 C48 1.208 . S
C48 O46 1.247 . S
C48 O47 1.208 . S
C49 O54 1.247 . S
C49 O55 1.208 . S
C50 O42 1.315 . S
C50 O45 1.279 . S
C51 O52 1.315 . S
C51 O53 1.279 . S
O52 Cd44 2.223 . S
O52 C51 1.315 . S
O53 Cd43 2.240 . S
O53 C51 1.279 . S
O54 Cd44 2.297 . S
O54 C49 1.247 . S
O55 Cd44 2.439 . S
O55 C49 1.208 . S
O56 Cd57 2.223 . S
O56 C64 1.315 . S
Cd57 O56 2.223 . S
Cd57 O60 2.297 . S
Cd57 O61 2.439 . S
Cd57 O67 2.240 . S
Cd58 O59 2.240 . S
Cd58 O66 2.223 . S
Cd58 O68 2.297 . S
Cd58 O69 2.439 . S
O59 Cd58 2.240 . S
O59 C64 1.279 . S
O60 Cd57 2.297 . S
O60 C62 1.247 . S
O61 Cd57 2.439 . S
O61 C62 1.208 . S
C62 O60 1.247 . S
C62 O61 1.208 . S
C63 O68 1.247 . S
C63 O69 1.208 . S
C64 O56 1.315 . S
C64 O59 1.279 . S
C65 O66 1.315 . S
C65 O67 1.279 . S
O66 Cd58 2.223 . S
O66 C65 1.315 . S
O67 Cd57 2.240 . S
O67 C65 1.279 . S
O68 Cd58 2.297 . S
O68 C63 1.247 . S
O69 Cd58 2.439 . S
O69 C63 1.208 . S
O70 Cd71 2.223 . S
O70 C78 1.315 . S
Cd71 O70 2.223 . S
Cd71 O74 2.297 . S
Cd71 O75 2.439 . S
Cd71 O81 2.240 . S
Cd72 O73 2.240 . S
Cd72 O80 2.223 . S
Cd72 O82 2.297 . S
Cd72 O83 2.439 . S
O73 Cd72 2.240 . S
O73 C78 1.279 . S
O74 Cd71 2.297 . S
O74 C76 1.247 . S
O75 Cd71 2.439 . S
O75 C76 1.208 . S
C76 O74 1.247 . S
C76 O75 1.208 . S
C77 O82 1.247 . S
C77 O83 1.208 . S
C78 O70 1.315 . S
C78 O73 1.279 . S
C79 O80 1.315 . S
C79 O81 1.279 . S
O80 Cd72 2.223 . S
O80 C79 1.315 . S
O81 Cd71 2.240 . S
O81 C79 1.279 . S
O82 Cd72 2.297 . S
O82 C77 1.247 . S
O83 Cd72 2.439 . S
O83 C77 1.208 . S
O84 Cd85 2.223 . S
O84 C92 1.315 . S
Cd85 O84 2.223 . S
Cd85 O88 2.297 . S
Cd85 O89 2.439 . S
Cd85 O95 2.240 . S
Cd86 O87 2.240 . S
Cd86 O94 2.223 . S
Cd86 O96 2.297 . S
Cd86 O97 2.439 . S
O87 Cd86 2.240 . S
O87 C92 1.279 . S
O88 Cd85 2.297 . S
O88 C90 1.247 . S
O89 Cd85 2.439 . S
O89 C90 1.208 . S
C90 O88 1.247 . S
C90 O89 1.208 . S
C91 O96 1.247 . S
C91 O97 1.208 . S
C92 O84 1.315 . S
C92 O87 1.279 . S
C93 O94 1.315 . S
C93 O95 1.279 . S
O94 Cd86 2.223 . S
O94 C93 1.315 . S
O95 Cd85 2.240 . S
O95 C93 1.279 . S
O96 Cd86 2.297 . S
O96 C91 1.247 . S
O97 Cd86 2.439 . S
O97 C91 1.208 . S
O98 Cd99 2.223 . S
O98 C106 1.315 . S
Cd99 O98 2.223 . S
Cd99 O102 2.297 . S
Cd99 O103 2.439 . S
Cd99 O109 2.240 . S
Cd100 O101 2.240 . S
Cd100 O108 2.223 . S
Cd100 O110 2.297 . S
Cd100 O111 2.439 . S
O101 Cd100 2.240 . S
O101 C106 1.279 . S
O102 Cd99 2.297 . S
O102 C104 1.247 . S
O103 Cd99 2.439 . S
O103 C104 1.208 . S
C104 O102 1.247 . S
C104 O103 1.208 . S
C105 O110 1.247 . S
C105 O111 1.208 . S
C106 O98 1.315 . S
C106 O101 1.279 . S
C107 O108 1.315 . S
C107 O109 1.279 . S
O108 Cd100 2.223 . S
O108 C107 1.315 . S
O109 Cd99 2.240 . S
O109 C107 1.279 . S
O110 Cd100 2.297 . S
O110 C105 1.247 . S
O111 Cd100 2.439 . S
O111 C105 1.208 . S
O112 Cd113 2.223 . S
O112 C120 1.315 . S
Cd113 O112 2.223 . S
Cd113 O116 2.297 . S
Cd113 O117 2.439 . S
Cd113 O123 2.240 . S
Cd114 O115 2.240 . S
Cd114 O122 2.223 . S
Cd114 O124 2.297 . S
Cd114 O125 2.439 . S
O115 Cd114 2.240 . S
O115 C120 1.279 . S
O116 Cd113 2.297 . S
O116 C118 1.247 . S
O117 Cd113 2.439 . S
O117 C118 1.208 . S
C118 O116 1.247 . S
C118 O117 1.208 . S
C119 O124 1.247 . S
C119 O125 1.208 . S
C120 O112 1.315 . S
C120 O115 1.279 . S
C121 O122 1.315 . S
C121 O123 1.279 . S
O122 Cd114 2.223 . S
O122 C121 1.315 . S
O123 Cd113 2.240 . S
O123 C121 1.279 . S
O124 Cd114 2.297 . S
O124 C119 1.247 . S
O125 Cd114 2.439 . S
O125 C119 1.208 . S
O126 Cd127 2.223 . S
O126 C134 1.315 . S
Cd127 O126 2.223 . S
Cd127 O130 2.297 . S
Cd127 O131 2.439 . S
Cd127 O137 2.240 . S
Cd128 O129 2.240 . S
Cd128 O136 2.223 . S
Cd128 O138 2.297 . S
Cd128 O139 2.439 . S
O129 Cd128 2.240 . S
O129 C134 1.279 . S
O130 Cd127 2.297 . S
O130 C132 1.247 . S
O131 Cd127 2.439 . S
O131 C132 1.208 . S
C132 O130 1.247 . S
C132 O131 1.208 . S
C133 O138 1.247 . S
C133 O139 1.208 . S
C134 O126 1.315 . S
C134 O129 1.279 . S
C135 O136 1.315 . S
C135 O137 1.279 . S
O136 Cd128 2.223 . S
O136 C135 1.315 . S
O137 Cd127 2.240 . S
O137 C135 1.279 . S
O138 Cd128 2.297 . S
O138 C133 1.247 . S
O139 Cd128 2.439 . S
O139 C133 1.208 . S
O140 Cd141 2.223 . S
O140 C148 1.315 . S
Cd141 O140 2.223 . S
Cd141 O144 2.297 . S
Cd141 O145 2.439 . S
Cd141 O151 2.240 . S
Cd142 O143 2.240 . S
Cd142 O150 2.223 . S
Cd142 O152 2.297 . S
Cd142 O153 2.439 . S
O143 Cd142 2.240 . S
O143 C148 1.279 . S
O144 Cd141 2.297 . S
O144 C146 1.247 . S
O145 Cd141 2.439 . S
O145 C146 1.208 . S
C146 O144 1.247 . S
C146 O145 1.208 . S
C147 O152 1.247 . S
C147 O153 1.208 . S
C148 O140 1.315 . S
C148 O143 1.279 . S
C149 O150 1.315 . S
C149 O151 1.279 . S
O150 Cd142 2.223 . S
O150 C149 1.315 . S
O151 Cd141 2.240 . S
O151 C149 1.279 . S
O152 Cd142 2.297 . S
O152 C147 1.247 . S
O153 Cd142 2.439 . S
O153 C147 1.208 . S
O154 Cd155 2.223 . S
O154 C162 1.315 . S
Cd155 O154 2.223 . S
Cd155 O158 2.297 . S
Cd155 O159 2.439 . S
Cd155 O165 2.240 . S
Cd156 O157 2.240 . S
Cd156 O164 2.223 . S
Cd156 O166 2.297 . S
Cd156 O167 2.439 . S
O157 Cd156 2.240 . S
O157 C162 1.279 . S
O158 Cd155 2.297 . S
O158 C160 1.247 . S
O159 Cd155 2.439 . S
O159 C160 1.208 . S
C160 O158 1.247 . S
C160 O159 1.208 . S
C161 O166 1.247 . S
C161 O167 1.208 . S
C162 O154 1.315 . S
C162 O157 1.279 . S
C163 O164 1.315 . S
C163 O165 1.279 . S
O164 Cd156 2.223 . S
O164 C163 1.315 . S
O165 Cd155 2.240 . S
O165 C163 1.279 . S
O166 Cd156 2.297 . S
O166 C161 1.247 . S
O167 Cd156 2.439 . S
O167 C161 1.208 . S
O168 Cd169 2.223 . S
O168 C176 1.315 . S
Cd169 O168 2.223 . S
Cd169 O172 2.297 . S
Cd169 O173 2.439 . S
Cd169 O179 2.240 . S
Cd170 O171 2.240 . S
Cd170 O178 2.223 . S
Cd170 O180 2.297 . S
Cd170 O181 2.439 . S
O171 Cd170 2.240 . S
O171 C176 1.279 . S
O172 Cd169 2.297 . S
O172 C174 1.247 . S
O173 Cd169 2.439 . S
O173 C174 1.208 . S
C174 O172 1.247 . S
C174 O173 1.208 . S
C175 O180 1.247 . S
C175 O181 1.208 . S
C176 O168 1.315 . S
C176 O171 1.279 . S
C177 O178 1.315 . S
C177 O179 1.279 . S
O178 Cd170 2.223 . S
O178 C177 1.315 . S
O179 Cd169 2.240 . S
O179 C177 1.279 . S
O180 Cd170 2.297 . S
O180 C175 1.247 . S
O181 Cd170 2.439 . S
O181 C175 1.208 . S
O182 Cd183 2.223 . S
O182 C190 1.315 . S
Cd183 O182 2.223 . S
Cd183 O186 2.297 . S
Cd183 O187 2.439 . S
Cd183 O193 2.240 . S
Cd184 O185 2.240 . S
Cd184 O192 2.223 . S
Cd184 O194 2.297 . S
Cd184 O195 2.439 . S
O185 Cd184 2.240 . S
O185 C190 1.279 . S
O186 Cd183 2.297 . S
O186 C188 1.247 . S
O187 Cd183 2.439 . S
O187 C188 1.208 . S
C188 O186 1.247 . S
C188 O187 1.208 . S
C189 O194 1.247 . S
C189 O195 1.208 . S
C190 O182 1.315 . S
C190 O185 1.279 . S
C191 O192 1.315 . S
C191 O193 1.279 . S
O192 Cd184 2.223 . S
O192 C191 1.315 . S
O193 Cd183 2.240 . S
O193 C191 1.279 . S
O194 Cd184 2.297 . S
O194 C189 1.247 . S
O195 Cd184 2.439 . S
O195 C189 1.208 . S
O196 Cd197 2.223 . S
O196 C204 1.315 . S
Cd197 O196 2.223 . S
Cd197 O200 2.297 . S
Cd197 O201 2.439 . S
Cd197 O207 2.240 . S
Cd198 O199 2.240 . S
Cd198 O206 2.223 . S
Cd198 O208 2.297 . S
Cd198 O209 2.439 . S
O199 Cd198 2.240 . S
O199 C204 1.279 . S
O200 Cd197 2.297 . S
O200 C202 1.247 . S
O201 Cd197 2.439 . S
O201 C202 1.208 . S
C202 O200 1.247 . S
C202 O201 1.208 . S
C203 O208 1.247 . S
C203 O209 1.208 . S
C204 O196 1.315 . S
C204 O199 1.279 . S
C205 O206 1.315 . S
C205 O207 1.279 . S
O206 Cd198 2.223 . S
O206 C205 1.315 . S
O207 Cd197 2.240 . S
O207 C205 1.279 . S
O208 Cd198 2.297 . S
O208 C203 1.247 . S
O209 Cd198 2.439 . S
O209 C203 1.208 . S
O210 Cd211 2.223 . S
O210 C218 1.315 . S
Cd211 O210 2.223 . S
Cd211 O214 2.297 . S
Cd211 O215 2.439 . S
Cd211 O221 2.240 . S
Cd212 O213 2.240 . S
Cd212 O220 2.223 . S
Cd212 O222 2.297 . S
Cd212 O223 2.439 . S
O213 Cd212 2.240 . S
O213 C218 1.279 . S
O214 Cd211 2.297 . S
O214 C216 1.247 . S
O215 Cd211 2.439 . S
O215 C216 1.208 . S
C216 O214 1.247 . S
C216 O215 1.208 . S
C217 O222 1.247 . S
C217 O223 1.208 . S
C218 O210 1.315 . S
C218 O213 1.279 . S
C219 O220 1.315 . S
C219 O221 1.279 . S
O220 Cd212 2.223 . S
O220 C219 1.315 . S
O221 Cd211 2.240 . S
O221 C219 1.279 . S
O222 Cd212 2.297 . S
O222 C217 1.247 . S
O223 Cd212 2.439 . S
O223 C217 1.208 . S
O224 Cd225 2.223 . S
O224 C232 1.315 . S
Cd225 O224 2.223 . S
Cd225 O228 2.297 . S
Cd225 O229 2.439 . S
Cd225 O235 2.240 . S
Cd226 O227 2.240 . S
Cd226 O234 2.223 . S
Cd226 O236 2.297 . S
Cd226 O237 2.439 . S
O227 Cd226 2.240 . S
O227 C232 1.279 . S
O228 Cd225 2.297 . S
O228 C230 1.247 . S
O229 Cd225 2.439 . S
O229 C230 1.208 . S
C230 O228 1.247 . S
C230 O229 1.208 . S
C231 O236 1.247 . S
C231 O237 1.208 . S
C232 O224 1.315 . S
C232 O227 1.279 . S
C233 O234 1.315 . S
C233 O235 1.279 . S
O234 Cd226 2.223 . S
O234 C233 1.315 . S
O235 Cd225 2.240 . S
O235 C233 1.279 . S
O236 Cd226 2.297 . S
O236 C231 1.247 . S
O237 Cd226 2.439 . S
O237 C231 1.208 . S
O238 Cd239 2.223 . S
O238 C246 1.315 . S
Cd239 O238 2.223 . S
Cd239 O242 2.297 . S
Cd239 O243 2.439 . S
Cd239 O249 2.240 . S
Cd240 O241 2.240 . S
Cd240 O248 2.223 . S
Cd240 O250 2.297 . S
Cd240 O251 2.439 . S
O241 Cd240 2.240 . S
O241 C246 1.279 . S
O242 Cd239 2.297 . S
O242 C244 1.247 . S
O243 Cd239 2.439 . S
O243 C244 1.208 . S
C244 O242 1.247 . S
C244 O243 1.208 . S
C245 O250 1.247 . S
C245 O251 1.208 . S
C246 O238 1.315 . S
C246 O241 1.279 . S
C247 O248 1.315 . S
C247 O249 1.279 . S
O248 Cd240 2.223 . S
O248 C247 1.315 . S
O249 Cd239 2.240 . S
O249 C247 1.279 . S
O250 Cd240 2.297 . S
O250 C245 1.247 . S
O251 Cd240 2.439 . S
O251 C245 1.208 . S
O252 Cd253 2.223 . S
O252 C260 1.315 . S
Cd253 O252 2.223 . S
Cd253 O256 2.297 . S
Cd253 O257 2.439 . S
Cd253 O263 2.240 . S
Cd254 O255 2.240 . S
Cd254 O262 2.223 . S
Cd254 O264 2.297 . S
Cd254 O265 2.439 . S
O255 Cd254 2.240 . S
O255 C260 1.279 . S
O256 Cd253 2.297 . S
O256 C258 1.247 . S
O257 Cd253 2.439 . S
O257 C258 1.208 . S
C258 O256 1.247 . S
C258 O257 1.208 . S
C259 O264 1.247 . S
C259 O265 1.208 . S
C260 O252 1.315 . S
C260 O255 1.279 . S
C261 O262 1.315 . S
C261 O263 1.279 . S
O262 Cd254 2.223 . S
O262 C261 1.315 . S
O263 Cd253 2.240 . S
O263 C261 1.279 . S
O264 Cd254 2.297 . S
O264 C259 1.247 . S
O265 Cd254 2.439 . S
O265 C259 1.208 . S
O266 Cd267 2.223 . S
O266 C274 1.315 . S
Cd267 O266 2.223 . S
Cd267 O270 2.297 . S
Cd267 O271 2.439 . S
Cd267 O277 2.240 . S
Cd268 O269 2.240 . S
Cd268 O276 2.223 . S
Cd268 O278 2.297 . S
Cd268 O279 2.439 . S
O269 Cd268 2.240 . S
O269 C274 1.279 . S
O270 Cd267 2.297 . S
O270 C272 1.247 . S
O271 Cd267 2.439 . S
O271 C272 1.208 . S
C272 O270 1.247 . S
C272 O271 1.208 . S
C273 O278 1.247 . S
C273 O279 1.208 . S
C274 O266 1.315 . S
C274 O269 1.279 . S
C275 O276 1.315 . S
C275 O277 1.279 . S
O276 Cd268 2.223 . S
O276 C275 1.315 . S
O277 Cd267 2.240 . S
O277 C275 1.279 . S
O278 Cd268 2.297 . S
O278 C273 1.247 . S
O279 Cd268 2.439 . S
O279 C273 1.208 . S
O280 Cd281 2.223 . S
O280 C288 1.315 . S
Cd281 O280 2.223 . S
Cd281 O284 2.297 . S
Cd281 O285 2.439 . S
Cd281 O291 2.240 . S
Cd282 O283 2.240 . S
Cd282 O290 2.223 . S
Cd282 O292 2.297 . S
Cd282 O293 2.439 . S
O283 Cd282 2.240 . S
O283 C288 1.279 . S
O284 Cd281 2.297 . S
O284 C286 1.247 . S
O285 Cd281 2.439 . S
O285 C286 1.208 . S
C286 O284 1.247 . S
C286 O285 1.208 . S
C287 O292 1.247 . S
C287 O293 1.208 . S
C288 O280 1.315 . S
C288 O283 1.279 . S
C289 O290 1.315 . S
C289 O291 1.279 . S
O290 Cd282 2.223 . S
O290 C289 1.315 . S
O291 Cd281 2.240 . S
O291 C289 1.279 . S
O292 Cd282 2.297 . S
O292 C287 1.247 . S
O293 Cd282 2.439 . S
O293 C287 1.208 . S
O294 Cd295 2.223 . S
O294 C302 1.315 . S
Cd295 O294 2.223 . S
Cd295 O298 2.297 . S
Cd295 O299 2.439 . S
Cd295 O305 2.240 . S
Cd296 O297 2.240 . S
Cd296 O304 2.223 . S
Cd296 O306 2.297 . S
Cd296 O307 2.439 . S
O297 Cd296 2.240 . S
O297 C302 1.279 . S
O298 Cd295 2.297 . S
O298 C300 1.247 . S
O299 Cd295 2.439 . S
O299 C300 1.208 . S
C300 O298 1.247 . S
C300 O299 1.208 . S
C301 O306 1.247 . S
C301 O307 1.208 . S
C302 O294 1.315 . S
C302 O297 1.279 . S
C303 O304 1.315 . S
C303 O305 1.279 . S
O304 Cd296 2.223 . S
O304 C303 1.315 . S
O305 Cd295 2.240 . S
O305 C303 1.279 . S
O306 Cd296 2.297 . S
O306 C301 1.247 . S
O307 Cd296 2.439 . S
O307 C301 1.208 . S
O308 Cd309 2.223 . S
O308 C316 1.315 . S
Cd309 O308 2.223 . S
Cd309 O312 2.297 . S
Cd309 O313 2.439 . S
Cd309 O319 2.240 . S
Cd310 O311 2.240 . S
Cd310 O318 2.223 . S
Cd310 O320 2.297 . S
Cd310 O321 2.439 . S
O311 Cd310 2.240 . S
O311 C316 1.279 . S
O312 Cd309 2.297 . S
O312 C314 1.247 . S
O313 Cd309 2.439 . S
O313 C314 1.208 . S
C314 O312 1.247 . S
C314 O313 1.208 . S
C315 O320 1.247 . S
C315 O321 1.208 . S
C316 O308 1.315 . S
C316 O311 1.279 . S
C317 O318 1.315 . S
C317 O319 1.279 . S
O318 Cd310 2.223 . S
O318 C317 1.315 . S
O319 Cd309 2.240 . S
O319 C317 1.279 . S
O320 Cd310 2.297 . S
O320 C315 1.247 . S
O321 Cd310 2.439 . S
O321 C315 1.208 . S
O322 Cd323 2.223 . S
O322 C330 1.315 . S
Cd323 O322 2.223 . S
Cd323 O326 2.297 . S
Cd323 O327 2.439 . S
Cd323 O333 2.240 . S
Cd324 O325 2.240 . S
Cd324 O332 2.223 . S
Cd324 O334 2.297 . S
Cd324 O335 2.439 . S
O325 Cd324 2.240 . S
O325 C330 1.279 . S
O326 Cd323 2.297 . S
O326 C328 1.247 . S
O327 Cd323 2.439 . S
O327 C328 1.208 . S
C328 O326 1.247 . S
C328 O327 1.208 . S
C329 O334 1.247 . S
C329 O335 1.208 . S
C330 O322 1.315 . S
C330 O325 1.279 . S
C331 O332 1.315 . S
C331 O333 1.279 . S
O332 Cd324 2.223 . S
O332 C331 1.315 . S
O333 Cd323 2.240 . S
O333 C331 1.279 . S
O334 Cd324 2.297 . S
O334 C329 1.247 . S
O335 Cd324 2.439 . S
O335 C329 1.208 . S
O336 Cd337 2.223 . S
O336 C344 1.315 . S
Cd337 O336 2.223 . S
Cd337 O340 2.297 . S
Cd337 O341 2.439 . S
Cd337 O347 2.240 . S
Cd338 O339 2.240 . S
Cd338 O346 2.223 . S
Cd338 O348 2.297 . S
Cd338 O349 2.439 . S
O339 Cd338 2.240 . S
O339 C344 1.279 . S
O340 Cd337 2.297 . S
O340 C342 1.247 . S
O341 Cd337 2.439 . S
O341 C342 1.208 . S
C342 O340 1.247 . S
C342 O341 1.208 . S
C343 O348 1.247 . S
C343 O349 1.208 . S
C344 O336 1.315 . S
C344 O339 1.279 . S
C345 O346 1.315 . S
C345 O347 1.279 . S
O346 Cd338 2.223 . S
O346 C345 1.315 . S
O347 Cd337 2.240 . S
O347 C345 1.279 . S
O348 Cd338 2.297 . S
O348 C343 1.247 . S
O349 Cd338 2.439 . S
O349 C343 1.208 . S
O350 Cd351 2.223 . S
O350 C358 1.315 . S
Cd351 O350 2.223 . S
Cd351 O354 2.297 . S
Cd351 O355 2.439 . S
Cd351 O361 2.240 . S
Cd352 O353 2.240 . S
Cd352 O360 2.223 . S
Cd352 O362 2.297 . S
Cd352 O363 2.439 . S
O353 Cd352 2.240 . S
O353 C358 1.279 . S
O354 Cd351 2.297 . S
O354 C356 1.247 . S
O355 Cd351 2.439 . S
O355 C356 1.208 . S
C356 O354 1.247 . S
C356 O355 1.208 . S
C357 O362 1.247 . S
C357 O363 1.208 . S
C358 O350 1.315 . S
C358 O353 1.279 . S
C359 O360 1.315 . S
C359 O361 1.279 . S
O360 Cd352 2.223 . S
O360 C359 1.315 . S
O361 Cd351 2.240 . S
O361 C359 1.279 . S
O362 Cd352 2.297 . S
O362 C357 1.247 . S
O363 Cd352 2.439 . S
O363 C357 1.208 . S
O364 Cd365 2.223 . S
O364 C372 1.315 . S
Cd365 O364 2.223 . S
Cd365 O368 2.297 . S
Cd365 O369 2.439 . S
Cd365 O375 2.240 . S
Cd366 O367 2.240 . S
Cd366 O374 2.223 . S
Cd366 O376 2.297 . S
Cd366 O377 2.439 . S
O367 Cd366 2.240 . S
O367 C372 1.279 . S
O368 Cd365 2.297 . S
O368 C370 1.247 . S
O369 Cd365 2.439 . S
O369 C370 1.208 . S
C370 O368 1.247 . S
C370 O369 1.208 . S
C371 O376 1.247 . S
C371 O377 1.208 . S
C372 O364 1.315 . S
C372 O367 1.279 . S
C373 O374 1.315 . S
C373 O375 1.279 . S
O374 Cd366 2.223 . S
O374 C373 1.315 . S
O375 Cd365 2.240 . S
O375 C373 1.279 . S
O376 Cd366 2.297 . S
O376 C371 1.247 . S
O377 Cd366 2.439 . S
O377 C371 1.208 . S
O378 Cd379 2.223 . S
O378 C386 1.315 . S
Cd379 O378 2.223 . S
Cd379 O382 2.297 . S
Cd379 O383 2.439 . S
Cd379 O389 2.240 . S
Cd380 O381 2.240 . S
Cd380 O388 2.223 . S
Cd380 O390 2.297 . S
Cd380 O391 2.439 . S
O381 Cd380 2.240 . S
O381 C386 1.279 . S
O382 Cd379 2.297 . S
O382 C384 1.247 . S
O383 Cd379 2.439 . S
O383 C384 1.208 . S
C384 O382 1.247 . S
C384 O383 1.208 . S
C385 O390 1.247 . S
C385 O391 1.208 . S
C386 O378 1.315 . S
C386 O381 1.279 . S
C387 O388 1.315 . S
C387 O389 1.279 . S
O388 Cd380 2.223 . S
O388 C387 1.315 . S
O389 Cd379 2.240 . S
O389 C387 1.279 . S
O390 Cd380 2.297 . S
O390 C385 1.247 . S
O391 Cd380 2.439 . S
O391 C385 1.208 . S
O392 Cd393 2.223 . S
O392 C400 1.315 . S
Cd393 O392 2.223 . S
Cd393 O396 2.297 . S
Cd393 O397 2.439 . S
Cd393 O403 2.240 . S
Cd394 O395 2.240 . S
Cd394 O402 2.223 . S
Cd394 O404 2.297 . S
Cd394 O405 2.439 . S
O395 Cd394 2.240 . S
O395 C400 1.279 . S
O396 Cd393 2.297 . S
O396 C398 1.247 . S
O397 Cd393 2.439 . S
O397 C398 1.208 . S
C398 O396 1.247 . S
C398 O397 1.208 . S
C399 O404 1.247 . S
C399 O405 1.208 . S
C400 O392 1.315 . S
C400 O395 1.279 . S
C401 O402 1.315 . S
C401 O403 1.279 . S
O402 Cd394 2.223 . S
O402 C401 1.315 . S
O403 Cd393 2.240 . S
O403 C401 1.279 . S
O404 Cd394 2.297 . S
O404 C399 1.247 . S
O405 Cd394 2.439 . S
O405 C399 1.208 . S
O406 Cd407 2.223 . S
O406 C414 1.315 . S
Cd407 O406 2.223 . S
Cd407 O410 2.297 . S
Cd407 O411 2.439 . S
Cd407 O417 2.240 . S
Cd408 O409 2.240 . S
Cd408 O416 2.223 . S
Cd408 O418 2.297 . S
Cd408 O419 2.439 . S
O409 Cd408 2.240 . S
O409 C414 1.279 . S
O410 Cd407 2.297 . S
O410 C412 1.247 . S
O411 Cd407 2.439 . S
O411 C412 1.208 . S
C412 O410 1.247 . S
C412 O411 1.208 . S
C413 O418 1.247 . S
C413 O419 1.208 . S
C414 O406 1.315 . S
C414 O409 1.279 . S
C415 O416 1.315 . S
C415 O417 1.279 . S
O416 Cd408 2.223 . S
O416 C415 1.315 . S
O417 Cd407 2.240 . S
O417 C415 1.279 . S
O418 Cd408 2.297 . S
O418 C413 1.247 . S
O419 Cd408 2.439 . S
O419 C413 1.208 . S
O420 Cd421 2.223 . S
O420 C428 1.315 . S
Cd421 O420 2.223 . S
Cd421 O424 2.297 . S
Cd421 O425 2.439 . S
Cd421 O431 2.240 . S
Cd422 O423 2.240 . S
Cd422 O430 2.223 . S
Cd422 O432 2.297 . S
Cd422 O433 2.439 . S
O423 Cd422 2.240 . S
O423 C428 1.279 . S
O424 Cd421 2.297 . S
O424 C426 1.247 . S
O425 Cd421 2.439 . S
O425 C426 1.208 . S
C426 O424 1.247 . S
C426 O425 1.208 . S
C427 O432 1.247 . S
C427 O433 1.208 . S
C428 O420 1.315 . S
C428 O423 1.279 . S
C429 O430 1.315 . S
C429 O431 1.279 . S
O430 Cd422 2.223 . S
O430 C429 1.315 . S
O431 Cd421 2.240 . S
O431 C429 1.279 . S
O432 Cd422 2.297 . S
O432 C427 1.247 . S
O433 Cd422 2.439 . S
O433 C427 1.208 . S
O434 Cd435 2.223 . S
O434 C442 1.315 . S
Cd435 O434 2.223 . S
Cd435 O438 2.297 . S
Cd435 O439 2.439 . S
Cd435 O445 2.240 . S
Cd436 O437 2.240 . S
Cd436 O444 2.223 . S
Cd436 O446 2.297 . S
Cd436 O447 2.439 . S
O437 Cd436 2.240 . S
O437 C442 1.279 . S
O438 Cd435 2.297 . S
O438 C440 1.247 . S
O439 Cd435 2.439 . S
O439 C440 1.208 . S
C440 O438 1.247 . S
C440 O439 1.208 . S
C441 O446 1.247 . S
C441 O447 1.208 . S
C442 O434 1.315 . S
C442 O437 1.279 . S
C443 O444 1.315 . S
C443 O445 1.279 . S
O444 Cd436 2.223 . S
O444 C443 1.315 . S
O445 Cd435 2.240 . S
O445 C443 1.279 . S
O446 Cd436 2.297 . S
O446 C441 1.247 . S
O447 Cd436 2.439 . S
O447 C441 1.208 . S
H448 C466 0.951 . S
H449 C468 0.951 . S
H450 C470 0.950 . S
H451 C471 0.950 . S
H452 C473 0.950 . S
H453 C476 0.950 . S
H454 C477 0.950 . S
H455 C479 0.950 . S
H456 C480 0.950 . S
H457 C481 0.951 . S
H458 C483 0.951 . S
H459 C485 0.950 . S
H460 C486 0.950 . S
H461 C488 0.950 . S
H462 C491 0.950 . S
H463 C492 0.950 . S
H464 C494 0.950 . S
H465 C495 0.950 . S
C466 H448 0.951 . S
C466 C467 1.366 . S
C466 C468 1.388 . S
C467 C466 1.366 . S
C467 C471 1.385 . S
C468 H449 0.951 . S
C468 C466 1.388 . S
C468 C469 1.366 . S
C469 C468 1.366 . S
C469 C470 1.414 . S
C469 C472 1.499 . S
C470 H450 0.950 . S
C470 C469 1.414 . S
C470 C471 1.374 . S
C471 H451 0.950 . S
C471 C467 1.385 . S
C471 C470 1.374 . S
C472 C469 1.499 . S
C472 C473 1.373 . S
C472 C474 1.389 . S
C473 H452 0.950 . S
C473 C472 1.373 . S
C473 C489 1.377 . S
C474 C472 1.389 . S
C474 C475 1.524 . S
C474 C488 1.377 . S
C475 C474 1.524 . S
C475 C476 1.397 . S
C475 C480 1.363 . S
C476 H453 0.950 . S
C476 C475 1.397 . S
C476 C477 1.334 . S
C477 H454 0.950 . S
C477 C476 1.334 . S
C477 C478 1.287 . S
C478 C477 1.287 . S
C478 C479 1.524 . S
C478 H497 0.913 . S
C479 H455 0.950 . S
C479 C478 1.524 . S
C479 C480 1.415 . S
C480 H456 0.950 . S
C480 C475 1.363 . S
C480 C479 1.415 . S
C481 H457 0.951 . S
C481 C482 1.366 . S
C481 C483 1.388 . S
C482 C481 1.366 . S
C482 C486 1.385 . S
C483 H458 0.951 . S
C483 C481 1.388 . S
C483 C484 1.366 . S
C484 C483 1.366 . S
C484 C485 1.414 . S
C484 C487 1.499 . S
C485 H459 0.950 . S
C485 C484 1.414 . S
C485 C486 1.374 . S
C486 H460 0.950 . S
C486 C482 1.385 . S
C486 C485 1.374 . S
C487 C484 1.499 . S
C487 C488 1.373 . S
C487 C489 1.389 . S
C488 H461 0.950 . S
C488 C474 1.377 . S
C488 C487 1.373 . S
C489 C473 1.377 . S
C489 C487 1.389 . S
C489 C490 1.524 . S
C490 C489 1.524 . S
C490 C491 1.397 . S
C490 C495 1.363 . S
C491 H462 0.950 . S
C491 C490 1.397 . S
C491 C492 1.334 . S
C492 H463 0.950 . S
C492 C491 1.334 . S
C492 C493 1.287 . S
C493 C492 1.287 . S
C493 C494 1.524 . S
C493 H496 0.999 . S
C494 H464 0.950 . S
C494 C493 1.524 . S
C494 C495 1.415 . S
C495 H465 0.950 . S
C495 C490 1.363 . S
C495 C494 1.415 . S
H496 C493 0.999 . S
H497 C478 0.913 . S
H498 C516 0.951 . S
H499 C518 0.951 . S
H500 C520 0.950 . S
H501 C521 0.950 . S
H502 C523 0.950 . S
H503 C526 0.950 . S
H504 C527 0.950 . S
H505 C529 0.950 . S
H506 C530 0.950 1_545 S
H507 C531 0.951 . S
H508 C533 0.951 . S
H509 C535 0.950 . S
H510 C536 0.950 . S
H511 C538 0.950 . S
H512 C541 0.950 . S
H513 C542 0.950 . S
H514 C544 0.950 . S
H515 C545 0.950 1_565 S
C516 H498 0.951 . S
C516 C517 1.366 . S
C516 C518 1.388 . S
C517 C516 1.366 . S
C517 C521 1.385 . S
C518 H499 0.951 . S
C518 C516 1.388 . S
C518 C519 1.366 . S
C519 C518 1.366 . S
C519 C520 1.414 . S
C519 C522 1.499 . S
C520 H500 0.950 . S
C520 C519 1.414 . S
C520 C521 1.374 . S
C521 H501 0.950 . S
C521 C517 1.385 . S
C521 C520 1.374 . S
C522 C519 1.499 . S
C522 C523 1.373 . S
C522 C524 1.389 . S
C523 H502 0.950 . S
C523 C522 1.373 . S
C523 C539 1.377 1_565 S
C524 C522 1.389 . S
C524 C525 1.524 . S
C524 C538 1.377 1_565 S
C525 C524 1.524 . S
C525 C526 1.397 . S
C525 C530 1.363 . S
C526 H503 0.950 . S
C526 C525 1.397 . S
C526 C527 1.334 . S
C527 H504 0.950 . S
C527 C526 1.334 . S
C527 C528 1.287 . S
C528 C527 1.287 . S
C528 C529 1.524 . S
C528 H547 0.913 . S
C529 H505 0.950 . S
C529 C528 1.524 . S
C529 C530 1.415 . S
C530 H506 0.950 1_565 S
C530 C525 1.363 . S
C530 C529 1.415 . S
C531 H507 0.951 . S
C531 C532 1.366 . S
C531 C533 1.388 . S
C532 C531 1.366 . S
C532 C536 1.385 . S
C533 H508 0.951 . S
C533 C531 1.388 . S
C533 C534 1.366 . S
C534 C533 1.366 . S
C534 C535 1.414 . S
C534 C537 1.499 . S
C535 H509 0.950 . S
C535 C534 1.414 . S
C535 C536 1.374 . S
C536 H510 0.950 . S
C536 C532 1.385 . S
C536 C535 1.374 . S
C537 C534 1.499 . S
C537 C538 1.373 . S
C537 C539 1.389 . S
C538 H511 0.950 . S
C538 C524 1.377 1_545 S
C538 C537 1.373 . S
C539 C523 1.377 1_545 S
C539 C537 1.389 . S
C539 C540 1.524 . S
C540 C539 1.524 . S
C540 C541 1.397 . S
C540 C545 1.363 . S
C541 H512 0.950 . S
C541 C540 1.397 . S
C541 C542 1.334 . S
C542 H513 0.950 . S
C542 C541 1.334 . S
C542 C543 1.287 . S
C543 C542 1.287 . S
C543 C544 1.524 . S
C543 H546 0.999 . S
C544 H514 0.950 . S
C544 C543 1.524 . S
C544 C545 1.415 . S
C545 H515 0.950 1_545 S
C545 C540 1.363 . S
C545 C544 1.415 . S
H546 C543 0.999 . S
H547 C528 0.913 . S
H548 C566 0.951 . S
H549 C568 0.951 . S
H550 C570 0.950 . S
H551 C571 0.950 . S
H552 C573 0.950 . S
H553 C576 0.950 . S
H554 C577 0.950 . S
H555 C579 0.950 . S
H556 C580 0.950 . S
H557 C581 0.951 . S
H558 C583 0.951 . S
H559 C585 0.950 . S
H560 C586 0.950 . S
H561 C588 0.950 . S
H562 C591 0.950 . S
H563 C592 0.950 . S
H564 C594 0.950 . S
H565 C595 0.950 . S
C566 H548 0.951 . S
C566 C567 1.366 . S
C566 C568 1.388 . S
C567 C566 1.366 . S
C567 C571 1.385 . S
C568 H549 0.951 . S
C568 C566 1.388 . S
C568 C569 1.366 . S
C569 C568 1.366 . S
C569 C570 1.414 . S
C569 C572 1.499 . S
C570 H550 0.950 . S
C570 C569 1.414 . S
C570 C571 1.374 . S
C571 H551 0.950 . S
C571 C567 1.385 . S
C571 C570 1.374 . S
C572 C569 1.499 . S
C572 C573 1.373 . S
C572 C574 1.389 . S
C573 H552 0.950 . S
C573 C572 1.373 . S
C573 C589 1.377 . S
C574 C572 1.389 . S
C574 C575 1.524 . S
C574 C588 1.377 . S
C575 C574 1.524 . S
C575 C576 1.397 . S
C575 C580 1.363 . S
C576 H553 0.950 . S
C576 C575 1.397 . S
C576 C577 1.334 . S
C577 H554 0.950 . S
C577 C576 1.334 . S
C577 C578 1.287 . S
C578 C577 1.287 . S
C578 C579 1.524 . S
C578 H597 0.913 . S
C579 H555 0.950 . S
C579 C578 1.524 . S
C579 C580 1.415 . S
C580 H556 0.950 . S
C580 C575 1.363 . S
C580 C579 1.415 . S
C581 H557 0.951 . S
C581 C582 1.366 . S
C581 C583 1.388 . S
C582 C581 1.366 . S
C582 C586 1.385 . S
C583 H558 0.951 . S
C583 C581 1.388 . S
C583 C584 1.366 . S
C584 C583 1.366 . S
C584 C585 1.414 . S
C584 C587 1.499 . S
C585 H559 0.950 . S
C585 C584 1.414 . S
C585 C586 1.374 . S
C586 H560 0.950 . S
C586 C582 1.385 . S
C586 C585 1.374 . S
C587 C584 1.499 . S
C587 C588 1.373 . S
C587 C589 1.389 . S
C588 H561 0.950 . S
C588 C574 1.377 . S
C588 C587 1.373 . S
C589 C573 1.377 . S
C589 C587 1.389 . S
C589 C590 1.524 . S
C590 C589 1.524 . S
C590 C591 1.397 . S
C590 C595 1.363 . S
C591 H562 0.950 . S
C591 C590 1.397 . S
C591 C592 1.334 . S
C592 H563 0.950 . S
C592 C591 1.334 . S
C592 C593 1.287 . S
C593 C592 1.287 . S
C593 C594 1.524 . S
C593 H596 0.999 . S
C594 H564 0.950 . S
C594 C593 1.524 . S
C594 C595 1.415 . S
C595 H565 0.950 . S
C595 C590 1.363 . S
C595 C594 1.415 . S
H596 C593 0.999 . S
H597 C578 0.913 . S
H598 C616 0.951 . S
H599 C618 0.951 . S
H600 C620 0.950 1_554 S
H601 C621 0.950 . S
H602 C623 0.950 . S
H603 C626 0.950 . S
H604 C627 0.950 . S
H605 C629 0.950 . S
H606 C630 0.950 . S
H607 C631 0.951 . S
H608 C633 0.951 . S
H609 C635 0.950 1_556 S
H610 C636 0.950 . S
H611 C638 0.950 . S
H612 C641 0.950 . S
H613 C642 0.950 . S
H614 C644 0.950 . S
H615 C645 0.950 . S
C616 H598 0.951 . S
C616 C617 1.366 . S
C616 C618 1.388 . S
C617 C616 1.366 . S
C617 C621 1.385 . S
C618 H599 0.951 . S
C618 C616 1.388 . S
C618 C619 1.366 . S
C619 C618 1.366 . S
C619 C620 1.414 . S
C619 C622 1.499 . S
C620 H600 0.950 1_556 S
C620 C619 1.414 . S
C620 C621 1.374 . S
C621 H601 0.950 . S
C621 C617 1.385 . S
C621 C620 1.374 . S
C622 C619 1.499 . S
C622 C623 1.373 1_556 S
C622 C624 1.389 . S
C623 H602 0.950 . S
C623 C622 1.373 1_554 S
C623 C639 1.377 1_545 S
C624 C622 1.389 . S
C624 C625 1.524 . S
C624 C638 1.377 1_545 S
C625 C624 1.524 . S
C625 C626 1.397 . S
C625 C630 1.363 1_545 S
C626 H603 0.950 . S
C626 C625 1.397 . S
C626 C627 1.334 . S
C627 H604 0.950 . S
C627 C626 1.334 . S
C627 C628 1.287 . S
C628 C627 1.287 . S
C628 C629 1.524 1_545 S
C628 H647 0.913 . S
C629 H605 0.950 . S
C629 C628 1.524 1_565 S
C629 C630 1.415 . S
C630 H606 0.950 . S
C630 C625 1.363 1_565 S
C630 C629 1.415 . S
C631 H607 0.951 . S
C631 C632 1.366 . S
C631 C633 1.388 . S
C632 C631 1.366 . S
C632 C636 1.385 . S
C633 H608 0.951 . S
C633 C631 1.388 . S
C633 C634 1.366 . S
C634 C633 1.366 . S
C634 C635 1.414 . S
C634 C637 1.499 . S
C635 H609 0.950 1_554 S
C635 C634 1.414 . S
C635 C636 1.374 . S
C636 H610 0.950 . S
C636 C632 1.385 . S
C636 C635 1.374 . S
C637 C634 1.499 . S
C637 C638 1.373 1_554 S
C637 C639 1.389 . S
C638 H611 0.950 . S
C638 C624 1.377 1_565 S
C638 C637 1.373 1_556 S
C639 C623 1.377 1_565 S
C639 C637 1.389 . S
C639 C640 1.524 . S
C640 C639 1.524 . S
C640 C641 1.397 . S
C640 C645 1.363 1_565 S
C641 H612 0.950 . S
C641 C640 1.397 . S
C641 C642 1.334 . S
C642 H613 0.950 . S
C642 C641 1.334 . S
C642 C643 1.287 . S
C643 C642 1.287 . S
C643 C644 1.524 1_565 S
C643 H646 0.999 . S
C644 H614 0.950 . S
C644 C643 1.524 1_545 S
C644 C645 1.415 . S
C645 H615 0.950 . S
C645 C640 1.363 1_545 S
C645 C644 1.415 . S
H646 C643 0.999 . S
H647 C628 0.913 . S
H648 C666 0.951 . S
H649 C668 0.951 . S
H650 C670 0.950 . S
H651 C671 0.950 . S
H652 C673 0.950 . S
H653 C676 0.950 . S
H654 C677 0.950 . S
H655 C679 0.950 . S
H656 C680 0.950 . S
H657 C681 0.951 . S
H658 C683 0.951 . S
H659 C685 0.950 . S
H660 C686 0.950 . S
H661 C688 0.950 . S
H662 C691 0.950 . S
H663 C692 0.950 . S
H664 C694 0.950 . S
H665 C695 0.950 . S
C666 H648 0.951 . S
C666 C667 1.366 . S
C666 C668 1.388 . S
C667 C666 1.366 . S
C667 C671 1.385 . S
C668 H649 0.951 . S
C668 C666 1.388 . S
C668 C669 1.366 . S
C669 C668 1.366 . S
C669 C670 1.414 . S
C669 C672 1.499 . S
C670 H650 0.950 . S
C670 C669 1.414 . S
C670 C671 1.374 . S
C671 H651 0.950 . S
C671 C667 1.385 . S
C671 C670 1.374 . S
C672 C669 1.499 . S
C672 C673 1.373 . S
C672 C674 1.389 . S
C673 H652 0.950 . S
C673 C672 1.373 . S
C673 C689 1.377 . S
C674 C672 1.389 . S
C674 C675 1.524 . S
C674 C688 1.377 . S
C675 C674 1.524 . S
C675 C676 1.397 . S
C675 C680 1.363 . S
C676 H653 0.950 . S
C676 C675 1.397 . S
C676 C677 1.334 . S
C677 H654 0.950 . S
C677 C676 1.334 . S
C677 C678 1.287 . S
C678 C677 1.287 . S
C678 C679 1.524 . S
C678 H697 0.913 . S
C679 H655 0.950 . S
C679 C678 1.524 . S
C679 C680 1.415 . S
C680 H656 0.950 . S
C680 C675 1.363 . S
C680 C679 1.415 . S
C681 H657 0.951 . S
C681 C682 1.366 . S
C681 C683 1.388 . S
C682 C681 1.366 . S
C682 C686 1.385 . S
C683 H658 0.951 . S
C683 C681 1.388 . S
C683 C684 1.366 . S
C684 C683 1.366 . S
C684 C685 1.414 . S
C684 C687 1.499 . S
C685 H659 0.950 . S
C685 C684 1.414 . S
C685 C686 1.374 . S
C686 H660 0.950 . S
C686 C682 1.385 . S
C686 C685 1.374 . S
C687 C684 1.499 . S
C687 C688 1.373 . S
C687 C689 1.389 . S
C688 H661 0.950 . S
C688 C674 1.377 . S
C688 C687 1.373 . S
C689 C673 1.377 . S
C689 C687 1.389 . S
C689 C690 1.524 . S
C690 C689 1.524 . S
C690 C691 1.397 . S
C690 C695 1.363 . S
C691 H662 0.950 . S
C691 C690 1.397 . S
C691 C692 1.334 . S
C692 H663 0.950 . S
C692 C691 1.334 . S
C692 C693 1.287 . S
C693 C692 1.287 . S
C693 C694 1.524 . S
C693 H696 0.999 . S
C694 H664 0.950 . S
C694 C693 1.524 . S
C694 C695 1.415 . S
C695 H665 0.950 . S
C695 C690 1.363 . S
C695 C694 1.415 . S
H696 C693 0.999 . S
H697 C678 0.913 . S
H698 C716 0.951 . S
H699 C718 0.951 . S
H700 C720 0.950 . S
H701 C721 0.950 . S
H702 C723 0.950 . S
H703 C726 0.950 . S
H704 C727 0.950 . S
H705 C729 0.950 . S
H706 C730 0.950 . S
H707 C731 0.951 . S
H708 C733 0.951 . S
H709 C735 0.950 . S
H710 C736 0.950 . S
H711 C738 0.950 . S
H712 C741 0.950 . S
H713 C742 0.950 . S
H714 C744 0.950 . S
H715 C745 0.950 . S
C716 H698 0.951 . S
C716 C717 1.366 . S
C716 C718 1.388 . S
C717 C716 1.366 . S
C717 C721 1.385 . S
C718 H699 0.951 . S
C718 C716 1.388 . S
C718 C719 1.366 . S
C719 C718 1.366 . S
C719 C720 1.414 . S
C719 C722 1.499 . S
C720 H700 0.950 . S
C720 C719 1.414 . S
C720 C721 1.374 . S
C721 H701 0.950 . S
C721 C717 1.385 . S
C721 C720 1.374 . S
C722 C719 1.499 . S
C722 C723 1.373 . S
C722 C724 1.389 . S
C723 H702 0.950 . S
C723 C722 1.373 . S
C723 C739 1.377 1_565 S
C724 C722 1.389 . S
C724 C725 1.524 . S
C724 C738 1.377 1_565 S
C725 C724 1.524 . S
C725 C726 1.397 . S
C725 C730 1.363 . S
C726 H703 0.950 . S
C726 C725 1.397 . S
C726 C727 1.334 . S
C727 H704 0.950 . S
C727 C726 1.334 . S
C727 C728 1.287 . S
C728 C727 1.287 . S
C728 C729 1.524 . S
C728 H747 0.913 . S
C729 H705 0.950 . S
C729 C728 1.524 . S
C729 C730 1.415 . S
C730 H706 0.950 . S
C730 C725 1.363 . S
C730 C729 1.415 . S
C731 H707 0.951 . S
C731 C732 1.366 . S
C731 C733 1.388 . S
C732 C731 1.366 . S
C732 C736 1.385 . S
C733 H708 0.951 . S
C733 C731 1.388 . S
C733 C734 1.366 . S
C734 C733 1.366 . S
C734 C735 1.414 . S
C734 C737 1.499 . S
C735 H709 0.950 . S
C735 C734 1.414 . S
C735 C736 1.374 . S
C736 H710 0.950 . S
C736 C732 1.385 . S
C736 C735 1.374 . S
C737 C734 1.499 . S
C737 C738 1.373 . S
C737 C739 1.389 . S
C738 H711 0.950 . S
C738 C724 1.377 1_545 S
C738 C737 1.373 . S
C739 C723 1.377 1_545 S
C739 C737 1.389 . S
C739 C740 1.524 . S
C740 C739 1.524 . S
C740 C741 1.397 . S
C740 C745 1.363 . S
C741 H712 0.950 . S
C741 C740 1.397 . S
C741 C742 1.334 . S
C742 H713 0.950 . S
C742 C741 1.334 . S
C742 C743 1.287 . S
C743 C742 1.287 . S
C743 C744 1.524 . S
C743 H746 0.999 . S
C744 H714 0.950 . S
C744 C743 1.524 . S
C744 C745 1.415 . S
C745 H715 0.950 . S
C745 C740 1.363 . S
C745 C744 1.415 . S
H746 C743 0.999 . S
H747 C728 0.913 . S
H748 C766 0.951 . S
H749 C768 0.951 . S
H750 C770 0.950 . S
H751 C771 0.950 . S
H752 C773 0.950 . S
H753 C776 0.950 . S
H754 C777 0.950 . S
H755 C779 0.950 . S
H756 C780 0.950 . S
H757 C781 0.951 . S
H758 C783 0.951 . S
H759 C785 0.950 . S
H760 C786 0.950 . S
H761 C788 0.950 . S
H762 C791 0.950 . S
H763 C792 0.950 . S
H764 C794 0.950 . S
H765 C795 0.950 . S
C766 H748 0.951 . S
C766 C767 1.366 . S
C766 C768 1.388 . S
C767 C766 1.366 . S
C767 C771 1.385 . S
C768 H749 0.951 . S
C768 C766 1.388 . S
C768 C769 1.366 . S
C769 C768 1.366 . S
C769 C770 1.414 . S
C769 C772 1.499 . S
C770 H750 0.950 . S
C770 C769 1.414 . S
C770 C771 1.374 . S
C771 H751 0.950 . S
C771 C767 1.385 . S
C771 C770 1.374 . S
C772 C769 1.499 . S
C772 C773 1.373 . S
C772 C774 1.389 . S
C773 H752 0.950 . S
C773 C772 1.373 . S
C773 C789 1.377 . S
C774 C772 1.389 . S
C774 C775 1.524 . S
C774 C788 1.377 . S
C775 C774 1.524 . S
C775 C776 1.397 . S
C775 C780 1.363 . S
C776 H753 0.950 . S
C776 C775 1.397 . S
C776 C777 1.334 . S
C777 H754 0.950 . S
C777 C776 1.334 . S
C777 C778 1.287 . S
C778 C777 1.287 . S
C778 C779 1.524 . S
C778 H797 0.913 . S
C779 H755 0.950 . S
C779 C778 1.524 . S
C779 C780 1.415 . S
C780 H756 0.950 . S
C780 C775 1.363 . S
C780 C779 1.415 . S
C781 H757 0.951 . S
C781 C782 1.366 . S
C781 C783 1.388 . S
C782 C781 1.366 . S
C782 C786 1.385 . S
C783 H758 0.951 . S
C783 C781 1.388 . S
C783 C784 1.366 . S
C784 C783 1.366 . S
C784 C785 1.414 . S
C784 C787 1.499 . S
C785 H759 0.950 . S
C785 C784 1.414 . S
C785 C786 1.374 . S
C786 H760 0.950 . S
C786 C782 1.385 . S
C786 C785 1.374 . S
C787 C784 1.499 . S
C787 C788 1.373 . S
C787 C789 1.389 . S
C788 H761 0.950 . S
C788 C774 1.377 . S
C788 C787 1.373 . S
C789 C773 1.377 . S
C789 C787 1.389 . S
C789 C790 1.524 . S
C790 C789 1.524 . S
C790 C791 1.397 . S
C790 C795 1.363 . S
C791 H762 0.950 . S
C791 C790 1.397 . S
C791 C792 1.334 . S
C792 H763 0.950 . S
C792 C791 1.334 . S
C792 C793 1.287 . S
C793 C792 1.287 . S
C793 C794 1.524 . S
C793 H796 0.999 . S
C794 H764 0.950 . S
C794 C793 1.524 . S
C794 C795 1.415 . S
C795 H765 0.950 . S
C795 C790 1.363 . S
C795 C794 1.415 . S
H796 C793 0.999 . S
H797 C778 0.913 . S
H798 C816 0.951 . S
H799 C818 0.951 . S
H800 C820 0.950 . S
H801 C821 0.950 . S
H802 C823 0.950 . S
H803 C826 0.950 . S
H804 C827 0.950 . S
H805 C829 0.950 . S
H806 C830 0.950 . S
H807 C831 0.951 . S
H808 C833 0.951 . S
H809 C835 0.950 . S
H810 C836 0.950 . S
H811 C838 0.950 . S
H812 C841 0.950 . S
H813 C842 0.950 . S
H814 C844 0.950 . S
H815 C845 0.950 . S
C816 H798 0.951 . S
C816 C817 1.366 . S
C816 C818 1.388 . S
C817 C816 1.366 . S
C817 C821 1.385 . S
C818 H799 0.951 . S
C818 C816 1.388 . S
C818 C819 1.366 . S
C819 C818 1.366 . S
C819 C820 1.414 . S
C819 C822 1.499 . S
C820 H800 0.950 . S
C820 C819 1.414 . S
C820 C821 1.374 . S
C821 H801 0.950 . S
C821 C817 1.385 . S
C821 C820 1.374 . S
C822 C819 1.499 . S
C822 C823 1.373 1_556 S
C822 C824 1.389 . S
C823 H802 0.950 . S
C823 C822 1.373 1_554 S
C823 C839 1.377 1_545 S
C824 C822 1.389 . S
C824 C825 1.524 . S
C824 C838 1.377 1_545 S
C825 C824 1.524 . S
C825 C826 1.397 . S
C825 C830 1.363 1_545 S
C826 H803 0.950 . S
C826 C825 1.397 . S
C826 C827 1.334 . S
C827 H804 0.950 . S
C827 C826 1.334 . S
C827 C828 1.287 . S
C828 C827 1.287 . S
C828 C829 1.524 1_545 S
C828 H847 0.913 . S
C829 H805 0.950 . S
C829 C828 1.524 1_565 S
C829 C830 1.415 . S
C830 H806 0.950 . S
C830 C825 1.363 1_565 S
C830 C829 1.415 . S
C831 H807 0.951 . S
C831 C832 1.366 . S
C831 C833 1.388 . S
C832 C831 1.366 . S
C832 C836 1.385 . S
C833 H808 0.951 . S
C833 C831 1.388 . S
C833 C834 1.366 . S
C834 C833 1.366 . S
C834 C835 1.414 . S
C834 C837 1.499 . S
C835 H809 0.950 . S
C835 C834 1.414 . S
C835 C836 1.374 . S
C836 H810 0.950 . S
C836 C832 1.385 . S
C836 C835 1.374 . S
C837 C834 1.499 . S
C837 C838 1.373 1_554 S
C837 C839 1.389 . S
C838 H811 0.950 . S
C838 C824 1.377 1_565 S
C838 C837 1.373 1_556 S
C839 C823 1.377 1_565 S
C839 C837 1.389 . S
C839 C840 1.524 . S
C840 C839 1.524 . S
C840 C841 1.397 . S
C840 C845 1.363 1_565 S
C841 H812 0.950 . S
C841 C840 1.397 . S
C841 C842 1.334 . S
C842 H813 0.950 . S
C842 C841 1.334 . S
C842 C843 1.287 . S
C843 C842 1.287 . S
C843 C844 1.524 1_565 S
C843 H846 0.999 . S
C844 H814 0.950 . S
C844 C843 1.524 1_545 S
C844 C845 1.415 . S
C845 H815 0.950 . S
C845 C840 1.363 1_545 S
C845 C844 1.415 . S
H846 C843 0.999 . S
H847 C828 0.913 . S
H848 C866 0.951 . S
H849 C868 0.951 . S
H850 C870 0.950 . S
H851 C871 0.950 . S
H852 C873 0.950 . S
H853 C876 0.950 . S
H854 C877 0.950 . S
H855 C879 0.950 . S
H856 C880 0.950 . S
H857 C881 0.951 . S
H858 C883 0.951 . S
H859 C885 0.950 . S
H860 C886 0.950 . S
H861 C888 0.950 . S
H862 C891 0.950 . S
H863 C892 0.950 . S
H864 C894 0.950 . S
H865 C895 0.950 . S
C866 H848 0.951 . S
C866 C867 1.366 . S
C866 C868 1.388 . S
C867 C866 1.366 . S
C867 C871 1.385 . S
C868 H849 0.951 . S
C868 C866 1.388 . S
C868 C869 1.366 . S
C869 C868 1.366 . S
C869 C870 1.414 . S
C869 C872 1.499 . S
C870 H850 0.950 . S
C870 C869 1.414 . S
C870 C871 1.374 . S
C871 H851 0.950 . S
C871 C867 1.385 . S
C871 C870 1.374 . S
C872 C869 1.499 . S
C872 C873 1.373 . S
C872 C874 1.389 . S
C873 H852 0.950 . S
C873 C872 1.373 . S
C873 C889 1.377 . S
C874 C872 1.389 . S
C874 C875 1.524 . S
C874 C888 1.377 . S
C875 C874 1.524 . S
C875 C876 1.397 . S
C875 C880 1.363 . S
C876 H853 0.950 . S
C876 C875 1.397 . S
C876 C877 1.334 . S
C877 H854 0.950 . S
C877 C876 1.334 . S
C877 C878 1.287 . S
C878 C877 1.287 . S
C878 C879 1.524 . S
C878 H897 0.913 . S
C879 H855 0.950 . S
C879 C878 1.524 . S
C879 C880 1.415 . S
C880 H856 0.950 . S
C880 C875 1.363 . S
C880 C879 1.415 . S
C881 H857 0.951 . S
C881 C882 1.366 . S
C881 C883 1.388 . S
C882 C881 1.366 . S
C882 C886 1.385 . S
C883 H858 0.951 . S
C883 C881 1.388 . S
C883 C884 1.366 . S
C884 C883 1.366 . S
C884 C885 1.414 . S
C884 C887 1.499 . S
C885 H859 0.950 . S
C885 C884 1.414 . S
C885 C886 1.374 . S
C886 H860 0.950 . S
C886 C882 1.385 . S
C886 C885 1.374 . S
C887 C884 1.499 . S
C887 C888 1.373 . S
C887 C889 1.389 . S
C888 H861 0.950 . S
C888 C874 1.377 . S
C888 C887 1.373 . S
C889 C873 1.377 . S
C889 C887 1.389 . S
C889 C890 1.524 . S
C890 C889 1.524 . S
C890 C891 1.397 . S
C890 C895 1.363 . S
C891 H862 0.950 . S
C891 C890 1.397 . S
C891 C892 1.334 . S
C892 H863 0.950 . S
C892 C891 1.334 . S
C892 C893 1.287 . S
C893 C892 1.287 . S
C893 C894 1.524 . S
C893 H896 0.999 . S
C894 H864 0.950 . S
C894 C893 1.524 . S
C894 C895 1.415 . S
C895 H865 0.950 . S
C895 C890 1.363 . S
C895 C894 1.415 . S
H896 C893 0.999 . S
H897 C878 0.913 . S
H898 C916 0.951 . S
H899 C918 0.951 . S
H900 C920 0.950 1_554 S
H901 C921 0.950 . S
H902 C923 0.950 . S
H903 C926 0.950 1_554 S
H904 C927 0.950 . S
H905 C929 0.950 . S
H906 C930 0.950 . S
H907 C931 0.951 . S
H908 C933 0.951 . S
H909 C935 0.950 1_556 S
H910 C936 0.950 . S
H911 C938 0.950 . S
H912 C941 0.950 1_556 S
H913 C942 0.950 . S
H914 C944 0.950 . S
H915 C945 0.950 . S
C916 H898 0.951 . S
C916 C917 1.366 . S
C916 C918 1.388 . S
C917 C916 1.366 . S
C917 C921 1.385 . S
C918 H899 0.951 . S
C918 C916 1.388 . S
C918 C919 1.366 . S
C919 C918 1.366 . S
C919 C920 1.414 . S
C919 C922 1.499 . S
C920 H900 0.950 1_556 S
C920 C919 1.414 . S
C920 C921 1.374 . S
C921 H901 0.950 . S
C921 C917 1.385 . S
C921 C920 1.374 . S
C922 C919 1.499 . S
C922 C923 1.373 1_556 S
C922 C924 1.389 . S
C923 H902 0.950 . S
C923 C922 1.373 1_554 S
C923 C939 1.377 . S
C924 C922 1.389 . S
C924 C925 1.524 . S
C924 C938 1.377 . S
C925 C924 1.524 . S
C925 C926 1.397 . S
C925 C930 1.363 . S
C926 H903 0.950 1_556 S
C926 C925 1.397 . S
C926 C927 1.334 . S
C927 H904 0.950 . S
C927 C926 1.334 . S
C927 C928 1.287 . S
C928 C927 1.287 . S
C928 C929 1.524 . S
C928 H947 0.913 . S
C929 H905 0.950 . S
C929 C928 1.524 . S
C929 C930 1.415 . S
C930 H906 0.950 . S
C930 C925 1.363 . S
C930 C929 1.415 . S
C931 H907 0.951 . S
C931 C932 1.366 . S
C931 C933 1.388 . S
C932 C931 1.366 . S
C932 C936 1.385 . S
C933 H908 0.951 . S
C933 C931 1.388 . S
C933 C934 1.366 . S
C934 C933 1.366 . S
C934 C935 1.414 . S
C934 C937 1.499 . S
C935 H909 0.950 1_554 S
C935 C934 1.414 . S
C935 C936 1.374 . S
C936 H910 0.950 . S
C936 C932 1.385 . S
C936 C935 1.374 . S
C937 C934 1.499 . S
C937 C938 1.373 1_554 S
C937 C939 1.389 . S
C938 H911 0.950 . S
C938 C924 1.377 . S
C938 C937 1.373 1_556 S
C939 C923 1.377 . S
C939 C937 1.389 . S
C939 C940 1.524 . S
C940 C939 1.524 . S
C940 C941 1.397 . S
C940 C945 1.363 . S
C941 H912 0.950 1_554 S
C941 C940 1.397 . S
C941 C942 1.334 . S
C942 H913 0.950 . S
C942 C941 1.334 . S
C942 C943 1.287 . S
C943 C942 1.287 . S
C943 C944 1.524 . S
C943 H946 0.999 . S
C944 H914 0.950 . S
C944 C943 1.524 . S
C944 C945 1.415 . S
C945 H915 0.950 . S
C945 C940 1.363 . S
C945 C944 1.415 . S
H946 C943 0.999 . S
H947 C928 0.913 . S
H948 C966 0.951 . S
H949 C968 0.951 . S
H950 C970 0.950 . S
H951 C971 0.950 . S
H952 C973 0.950 . S
H953 C976 0.950 . S
H954 C977 0.950 . S
H955 C979 0.950 . S
H956 C980 0.950 . S
H957 C981 0.951 . S
H958 C983 0.951 . S
H959 C985 0.950 . S
H960 C986 0.950 . S
H961 C988 0.950 . S
H962 C991 0.950 . S
H963 C992 0.950 . S
H964 C994 0.950 . S
H965 C995 0.950 . S
C966 H948 0.951 . S
C966 C967 1.366 . S
C966 C968 1.388 . S
C967 C966 1.366 . S
C967 C971 1.385 . S
C968 H949 0.951 . S
C968 C966 1.388 . S
C968 C969 1.366 . S
C969 C968 1.366 . S
C969 C970 1.414 . S
C969 C972 1.499 . S
C970 H950 0.950 . S
C970 C969 1.414 . S
C970 C971 1.374 . S
C971 H951 0.950 . S
C971 C967 1.385 . S
C971 C970 1.374 . S
C972 C969 1.499 . S
C972 C973 1.373 . S
C972 C974 1.389 . S
C973 H952 0.950 . S
C973 C972 1.373 . S
C973 C989 1.377 . S
C974 C972 1.389 . S
C974 C975 1.524 . S
C974 C988 1.377 . S
C975 C974 1.524 . S
C975 C976 1.397 . S
C975 C980 1.363 . S
C976 H953 0.950 . S
C976 C975 1.397 . S
C976 C977 1.334 . S
C977 H954 0.950 . S
C977 C976 1.334 . S
C977 C978 1.287 . S
C978 C977 1.287 . S
C978 C979 1.524 . S
C978 H997 0.913 . S
C979 H955 0.950 . S
C979 C978 1.524 . S
C979 C980 1.415 . S
C980 H956 0.950 . S
C980 C975 1.363 . S
C980 C979 1.415 . S
C981 H957 0.951 . S
C981 C982 1.366 . S
C981 C983 1.388 . S
C982 C981 1.366 . S
C982 C986 1.385 . S
C983 H958 0.951 . S
C983 C981 1.388 . S
C983 C984 1.366 . S
C984 C983 1.366 . S
C984 C985 1.414 . S
C984 C987 1.499 . S
C985 H959 0.950 . S
C985 C984 1.414 . S
C985 C986 1.374 . S
C986 H960 0.950 . S
C986 C982 1.385 . S
C986 C985 1.374 . S
C987 C984 1.499 . S
C987 C988 1.373 . S
C987 C989 1.389 . S
C988 H961 0.950 . S
C988 C974 1.377 . S
C988 C987 1.373 . S
C989 C973 1.377 . S
C989 C987 1.389 . S
C989 C990 1.524 . S
C990 C989 1.524 . S
C990 C991 1.397 . S
C990 C995 1.363 . S
C991 H962 0.950 . S
C991 C990 1.397 . S
C991 C992 1.334 . S
C992 H963 0.950 . S
C992 C991 1.334 . S
C992 C993 1.287 . S
C993 C992 1.287 . S
C993 C994 1.524 . S
C993 H996 0.999 . S
C994 H964 0.950 . S
C994 C993 1.524 . S
C994 C995 1.415 . S
C995 H965 0.950 . S
C995 C990 1.363 . S
C995 C994 1.415 . S
H996 C993 0.999 . S
H997 C978 0.913 . S
H998 C1016 0.951 . S
H999 C1018 0.951 . S
H1000 C1020 0.950 . S
H1001 C1021 0.950 . S
H1002 C1023 0.950 . S
H1003 C1026 0.950 . S
H1004 C1027 0.950 . S
H1005 C1029 0.950 . S
H1006 C1030 0.950 . S
H1007 C1031 0.951 . S
H1008 C1033 0.951 . S
H1009 C1035 0.950 . S
H1010 C1036 0.950 . S
H1011 C1038 0.950 . S
H1012 C1041 0.950 . S
H1013 C1042 0.950 . S
H1014 C1044 0.950 . S
H1015 C1045 0.950 . S
C1016 H998 0.951 . S
C1016 C1017 1.366 . S
C1016 C1018 1.388 . S
C1017 C1016 1.366 . S
C1017 C1021 1.385 . S
C1018 H999 0.951 . S
C1018 C1016 1.388 . S
C1018 C1019 1.366 . S
C1019 C1018 1.366 . S
C1019 C1020 1.414 . S
C1019 C1022 1.499 . S
C1020 H1000 0.950 . S
C1020 C1019 1.414 . S
C1020 C1021 1.374 . S
C1021 H1001 0.950 . S
C1021 C1017 1.385 . S
C1021 C1020 1.374 . S
C1022 C1019 1.499 . S
C1022 C1023 1.373 . S
C1022 C1024 1.389 . S
C1023 H1002 0.950 . S
C1023 C1022 1.373 . S
C1023 C1039 1.377 . S
C1024 C1022 1.389 . S
C1024 C1025 1.524 . S
C1024 C1038 1.377 . S
C1025 C1024 1.524 . S
C1025 C1026 1.397 . S
C1025 C1030 1.363 . S
C1026 H1003 0.950 . S
C1026 C1025 1.397 . S
C1026 C1027 1.334 . S
C1027 H1004 0.950 . S
C1027 C1026 1.334 . S
C1027 C1028 1.287 . S
C1028 C1027 1.287 . S
C1028 C1029 1.524 . S
C1028 H1047 0.913 . S
C1029 H1005 0.950 . S
C1029 C1028 1.524 . S
C1029 C1030 1.415 . S
C1030 H1006 0.950 . S
C1030 C1025 1.363 . S
C1030 C1029 1.415 . S
C1031 H1007 0.951 . S
C1031 C1032 1.366 . S
C1031 C1033 1.388 . S
C1032 C1031 1.366 . S
C1032 C1036 1.385 . S
C1033 H1008 0.951 . S
C1033 C1031 1.388 . S
C1033 C1034 1.366 . S
C1034 C1033 1.366 . S
C1034 C1035 1.414 . S
C1034 C1037 1.499 . S
C1035 H1009 0.950 . S
C1035 C1034 1.414 . S
C1035 C1036 1.374 . S
C1036 H1010 0.950 . S
C1036 C1032 1.385 . S
C1036 C1035 1.374 . S
C1037 C1034 1.499 . S
C1037 C1038 1.373 . S
C1037 C1039 1.389 . S
C1038 H1011 0.950 . S
C1038 C1024 1.377 . S
C1038 C1037 1.373 . S
C1039 C1023 1.377 . S
C1039 C1037 1.389 . S
C1039 C1040 1.524 . S
C1040 C1039 1.524 . S
C1040 C1041 1.397 . S
C1040 C1045 1.363 . S
C1041 H1012 0.950 . S
C1041 C1040 1.397 . S
C1041 C1042 1.334 . S
C1042 H1013 0.950 . S
C1042 C1041 1.334 . S
C1042 C1043 1.287 . S
C1043 C1042 1.287 . S
C1043 C1044 1.524 . S
C1043 H1046 0.999 . S
C1044 H1014 0.950 . S
C1044 C1043 1.524 . S
C1044 C1045 1.415 . S
C1045 H1015 0.950 . S
C1045 C1040 1.363 . S
C1045 C1044 1.415 . S
H1046 C1043 0.999 . S
H1047 C1028 0.913 . S
H1048 C1066 0.951 . S
H1049 C1068 0.951 . S
H1050 C1070 0.950 . S
H1051 C1071 0.950 . S
H1052 C1073 0.950 . S
H1053 C1076 0.950 . S
H1054 C1077 0.950 . S
H1055 C1079 0.950 . S
H1056 C1080 0.950 . S
H1057 C1081 0.951 . S
H1058 C1083 0.951 . S
H1059 C1085 0.950 . S
H1060 C1086 0.950 . S
H1061 C1088 0.950 . S
H1062 C1091 0.950 . S
H1063 C1092 0.950 . S
H1064 C1094 0.950 . S
H1065 C1095 0.950 . S
C1066 H1048 0.951 . S
C1066 C1067 1.366 . S
C1066 C1068 1.388 . S
C1067 C1066 1.366 . S
C1067 C1071 1.385 . S
C1068 H1049 0.951 . S
C1068 C1066 1.388 . S
C1068 C1069 1.366 . S
C1069 C1068 1.366 . S
C1069 C1070 1.414 . S
C1069 C1072 1.499 . S
C1070 H1050 0.950 . S
C1070 C1069 1.414 . S
C1070 C1071 1.374 . S
C1071 H1051 0.950 . S
C1071 C1067 1.385 . S
C1071 C1070 1.374 . S
C1072 C1069 1.499 . S
C1072 C1073 1.373 . S
C1072 C1074 1.389 . S
C1073 H1052 0.950 . S
C1073 C1072 1.373 . S
C1073 C1089 1.377 . S
C1074 C1072 1.389 . S
C1074 C1075 1.524 . S
C1074 C1088 1.377 . S
C1075 C1074 1.524 . S
C1075 C1076 1.397 . S
C1075 C1080 1.363 . S
C1076 H1053 0.950 . S
C1076 C1075 1.397 . S
C1076 C1077 1.334 . S
C1077 H1054 0.950 . S
C1077 C1076 1.334 . S
C1077 C1078 1.287 . S
C1078 C1077 1.287 . S
C1078 C1079 1.524 . S
C1078 H1097 0.913 . S
C1079 H1055 0.950 . S
C1079 C1078 1.524 . S
C1079 C1080 1.415 . S
C1080 H1056 0.950 . S
C1080 C1075 1.363 . S
C1080 C1079 1.415 . S
C1081 H1057 0.951 . S
C1081 C1082 1.366 . S
C1081 C1083 1.388 . S
C1082 C1081 1.366 . S
C1082 C1086 1.385 . S
C1083 H1058 0.951 . S
C1083 C1081 1.388 . S
C1083 C1084 1.366 . S
C1084 C1083 1.366 . S
C1084 C1085 1.414 . S
C1084 C1087 1.499 . S
C1085 H1059 0.950 . S
C1085 C1084 1.414 . S
C1085 C1086 1.374 . S
C1086 H1060 0.950 . S
C1086 C1082 1.385 . S
C1086 C1085 1.374 . S
C1087 C1084 1.499 . S
C1087 C1088 1.373 . S
C1087 C1089 1.389 . S
C1088 H1061 0.950 . S
C1088 C1074 1.377 . S
C1088 C1087 1.373 . S
C1089 C1073 1.377 . S
C1089 C1087 1.389 . S
C1089 C1090 1.524 . S
C1090 C1089 1.524 . S
C1090 C1091 1.397 . S
C1090 C1095 1.363 . S
C1091 H1062 0.950 . S
C1091 C1090 1.397 . S
C1091 C1092 1.334 . S
C1092 H1063 0.950 . S
C1092 C1091 1.334 . S
C1092 C1093 1.287 . S
C1093 C1092 1.287 . S
C1093 C1094 1.524 . S
C1093 H1096 0.999 . S
C1094 H1064 0.950 . S
C1094 C1093 1.524 . S
C1094 C1095 1.415 . S
C1095 H1065 0.950 . S
C1095 C1090 1.363 . S
C1095 C1094 1.415 . S
H1096 C1093 0.999 . S
H1097 C1078 0.913 . S
H1098 C1116 0.951 . S
H1099 C1118 0.951 1_556 S
H1100 C1120 0.950 . S
H1101 C1121 0.950 . S
H1102 C1123 0.950 . S
H1103 C1126 0.950 . S
H1104 C1127 0.950 . S
H1105 C1129 0.950 . S
H1106 C1130 0.950 . S
H1107 C1131 0.951 . S
H1108 C1133 0.951 1_554 S
H1109 C1135 0.950 . S
H1110 C1136 0.950 . S
H1111 C1138 0.950 . S
H1112 C1141 0.950 . S
H1113 C1142 0.950 . S
H1114 C1144 0.950 . S
H1115 C1145 0.950 . S
C1116 H1098 0.951 . S
C1116 C1117 1.366 . S
C1116 C1118 1.388 . S
C1117 C1116 1.366 . S
C1117 C1121 1.385 . S
C1118 H1099 0.951 1_554 S
C1118 C1116 1.388 . S
C1118 C1119 1.366 . S
C1119 C1118 1.366 . S
C1119 C1120 1.414 . S
C1119 C1122 1.499 . S
C1120 H1100 0.950 . S
C1120 C1119 1.414 . S
C1120 C1121 1.374 . S
C1121 H1101 0.950 . S
C1121 C1117 1.385 . S
C1121 C1120 1.374 . S
C1122 C1119 1.499 . S
C1122 C1123 1.373 . S
C1122 C1124 1.389 1_554 S
C1123 H1102 0.950 . S
C1123 C1122 1.373 . S
C1123 C1139 1.377 . S
C1124 C1122 1.389 1_556 S
C1124 C1125 1.524 . S
C1124 C1138 1.377 . S
C1125 C1124 1.524 . S
C1125 C1126 1.397 . S
C1125 C1130 1.363 . S
C1126 H1103 0.950 . S
C1126 C1125 1.397 . S
C1126 C1127 1.334 . S
C1127 H1104 0.950 . S
C1127 C1126 1.334 . S
C1127 C1128 1.287 . S
C1128 C1127 1.287 . S
C1128 C1129 1.524 . S
C1128 H1147 0.913 . S
C1129 H1105 0.950 . S
C1129 C1128 1.524 . S
C1129 C1130 1.415 . S
C1130 H1106 0.950 . S
C1130 C1125 1.363 . S
C1130 C1129 1.415 . S
C1131 H1107 0.951 . S
C1131 C1132 1.366 . S
C1131 C1133 1.388 . S
C1132 C1131 1.366 . S
C1132 C1136 1.385 . S
C1133 H1108 0.951 1_556 S
C1133 C1131 1.388 . S
C1133 C1134 1.366 . S
C1134 C1133 1.366 . S
C1134 C1135 1.414 . S
C1134 C1137 1.499 . S
C1135 H1109 0.950 . S
C1135 C1134 1.414 . S
C1135 C1136 1.374 . S
C1136 H1110 0.950 . S
C1136 C1132 1.385 . S
C1136 C1135 1.374 . S
C1137 C1134 1.499 . S
C1137 C1138 1.373 . S
C1137 C1139 1.389 1_556 S
C1138 H1111 0.950 . S
C1138 C1124 1.377 . S
C1138 C1137 1.373 . S
C1139 C1123 1.377 . S
C1139 C1137 1.389 1_554 S
C1139 C1140 1.524 . S
C1140 C1139 1.524 . S
C1140 C1141 1.397 . S
C1140 C1145 1.363 . S
C1141 H1112 0.950 . S
C1141 C1140 1.397 . S
C1141 C1142 1.334 . S
C1142 H1113 0.950 . S
C1142 C1141 1.334 . S
C1142 C1143 1.287 . S
C1143 C1142 1.287 . S
C1143 C1144 1.524 . S
C1143 H1146 0.999 . S
C1144 H1114 0.950 . S
C1144 C1143 1.524 . S
C1144 C1145 1.415 . S
C1145 H1115 0.950 . S
C1145 C1140 1.363 . S
C1145 C1144 1.415 . S
H1146 C1143 0.999 . S
H1147 C1128 0.913 . S
H1148 C1166 0.951 . S
H1149 C1168 0.951 . S
H1150 C1170 0.950 . S
H1151 C1171 0.950 . S
H1152 C1173 0.950 . S
H1153 C1176 0.950 . S
H1154 C1177 0.950 . S
H1155 C1179 0.950 . S
H1156 C1180 0.950 . S
H1157 C1181 0.951 . S
H1158 C1183 0.951 . S
H1159 C1185 0.950 . S
H1160 C1186 0.950 . S
H1161 C1188 0.950 . S
H1162 C1191 0.950 . S
H1163 C1192 0.950 . S
H1164 C1194 0.950 . S
H1165 C1195 0.950 . S
C1166 H1148 0.951 . S
C1166 C1167 1.366 . S
C1166 C1168 1.388 . S
C1167 C1166 1.366 . S
C1167 C1171 1.385 . S
C1168 H1149 0.951 . S
C1168 C1166 1.388 . S
C1168 C1169 1.366 . S
C1169 C1168 1.366 . S
C1169 C1170 1.414 . S
C1169 C1172 1.499 . S
C1170 H1150 0.950 . S
C1170 C1169 1.414 . S
C1170 C1171 1.374 . S
C1171 H1151 0.950 . S
C1171 C1167 1.385 . S
C1171 C1170 1.374 . S
C1172 C1169 1.499 . S
C1172 C1173 1.373 . S
C1172 C1174 1.389 . S
C1173 H1152 0.950 . S
C1173 C1172 1.373 . S
C1173 C1189 1.377 . S
C1174 C1172 1.389 . S
C1174 C1175 1.524 . S
C1174 C1188 1.377 . S
C1175 C1174 1.524 . S
C1175 C1176 1.397 . S
C1175 C1180 1.363 . S
C1176 H1153 0.950 . S
C1176 C1175 1.397 . S
C1176 C1177 1.334 . S
C1177 H1154 0.950 . S
C1177 C1176 1.334 . S
C1177 C1178 1.287 . S
C1178 C1177 1.287 . S
C1178 C1179 1.524 . S
C1178 H1197 0.913 . S
C1179 H1155 0.950 . S
C1179 C1178 1.524 . S
C1179 C1180 1.415 . S
C1180 H1156 0.950 . S
C1180 C1175 1.363 . S
C1180 C1179 1.415 . S
C1181 H1157 0.951 . S
C1181 C1182 1.366 . S
C1181 C1183 1.388 . S
C1182 C1181 1.366 . S
C1182 C1186 1.385 . S
C1183 H1158 0.951 . S
C1183 C1181 1.388 . S
C1183 C1184 1.366 . S
C1184 C1183 1.366 . S
C1184 C1185 1.414 . S
C1184 C1187 1.499 . S
C1185 H1159 0.950 . S
C1185 C1184 1.414 . S
C1185 C1186 1.374 . S
C1186 H1160 0.950 . S
C1186 C1182 1.385 . S
C1186 C1185 1.374 . S
C1187 C1184 1.499 . S
C1187 C1188 1.373 . S
C1187 C1189 1.389 . S
C1188 H1161 0.950 . S
C1188 C1174 1.377 . S
C1188 C1187 1.373 . S
C1189 C1173 1.377 . S
C1189 C1187 1.389 . S
C1189 C1190 1.524 . S
C1190 C1189 1.524 . S
C1190 C1191 1.397 . S
C1190 C1195 1.363 . S
C1191 H1162 0.950 . S
C1191 C1190 1.397 . S
C1191 C1192 1.334 . S
C1192 H1163 0.950 . S
C1192 C1191 1.334 . S
C1192 C1193 1.287 . S
C1193 C1192 1.287 . S
C1193 C1194 1.524 . S
C1193 H1196 0.999 . S
C1194 H1164 0.950 . S
C1194 C1193 1.524 . S
C1194 C1195 1.415 . S
C1195 H1165 0.950 . S
C1195 C1190 1.363 . S
C1195 C1194 1.415 . S
H1196 C1193 0.999 . S
H1197 C1178 0.913 . S
H1198 C1216 0.951 . S
H1199 C1218 0.951 . S
H1200 C1220 0.950 . S
H1201 C1221 0.950 . S
H1202 C1223 0.950 . S
H1203 C1226 0.950 . S
H1204 C1227 0.950 . S
H1205 C1229 0.950 . S
H1206 C1230 0.950 . S
H1207 C1231 0.951 . S
H1208 C1233 0.951 . S
H1209 C1235 0.950 . S
H1210 C1236 0.950 . S
H1211 C1238 0.950 . S
H1212 C1241 0.950 . S
H1213 C1242 0.950 . S
H1214 C1244 0.950 . S
H1215 C1245 0.950 . S
C1216 H1198 0.951 . S
C1216 C1217 1.366 . S
C1216 C1218 1.388 . S
C1217 C1216 1.366 . S
C1217 C1221 1.385 . S
C1218 H1199 0.951 . S
C1218 C1216 1.388 . S
C1218 C1219 1.366 . S
C1219 C1218 1.366 . S
C1219 C1220 1.414 . S
C1219 C1222 1.499 . S
C1220 H1200 0.950 . S
C1220 C1219 1.414 . S
C1220 C1221 1.374 . S
C1221 H1201 0.950 . S
C1221 C1217 1.385 . S
C1221 C1220 1.374 . S
C1222 C1219 1.499 . S
C1222 C1223 1.373 . S
C1222 C1224 1.389 . S
C1223 H1202 0.950 . S
C1223 C1222 1.373 . S
C1223 C1239 1.377 . S
C1224 C1222 1.389 . S
C1224 C1225 1.524 . S
C1224 C1238 1.377 . S
C1225 C1224 1.524 . S
C1225 C1226 1.397 . S
C1225 C1230 1.363 . S
C1226 H1203 0.950 . S
C1226 C1225 1.397 . S
C1226 C1227 1.334 . S
C1227 H1204 0.950 . S
C1227 C1226 1.334 . S
C1227 C1228 1.287 . S
C1228 C1227 1.287 . S
C1228 C1229 1.524 . S
C1228 H1247 0.913 . S
C1229 H1205 0.950 . S
C1229 C1228 1.524 . S
C1229 C1230 1.415 . S
C1230 H1206 0.950 . S
C1230 C1225 1.363 . S
C1230 C1229 1.415 . S
C1231 H1207 0.951 . S
C1231 C1232 1.366 . S
C1231 C1233 1.388 . S
C1232 C1231 1.366 . S
C1232 C1236 1.385 . S
C1233 H1208 0.951 . S
C1233 C1231 1.388 . S
C1233 C1234 1.366 . S
C1234 C1233 1.366 . S
C1234 C1235 1.414 . S
C1234 C1237 1.499 . S
C1235 H1209 0.950 . S
C1235 C1234 1.414 . S
C1235 C1236 1.374 . S
C1236 H1210 0.950 . S
C1236 C1232 1.385 . S
C1236 C1235 1.374 . S
C1237 C1234 1.499 . S
C1237 C1238 1.373 . S
C1237 C1239 1.389 . S
C1238 H1211 0.950 . S
C1238 C1224 1.377 . S
C1238 C1237 1.373 . S
C1239 C1223 1.377 . S
C1239 C1237 1.389 . S
C1239 C1240 1.524 . S
C1240 C1239 1.524 . S
C1240 C1241 1.397 . S
C1240 C1245 1.363 . S
C1241 H1212 0.950 . S
C1241 C1240 1.397 . S
C1241 C1242 1.334 . S
C1242 H1213 0.950 . S
C1242 C1241 1.334 . S
C1242 C1243 1.287 . S
C1243 C1242 1.287 . S
C1243 C1244 1.524 . S
C1243 H1246 0.999 . S
C1244 H1214 0.950 . S
C1244 C1243 1.524 . S
C1244 C1245 1.415 . S
C1245 H1215 0.950 . S
C1245 C1240 1.363 . S
C1245 C1244 1.415 . S
H1246 C1243 0.999 . S
H1247 C1228 0.913 . S
H1248 C1266 0.951 . S
H1249 C1268 0.951 . S
H1250 C1270 0.950 . S
H1251 C1271 0.950 . S
H1252 C1273 0.950 . S
H1253 C1276 0.950 . S
H1254 C1277 0.950 . S
H1255 C1279 0.950 . S
H1256 C1280 0.950 . S
H1257 C1281 0.951 . S
H1258 C1283 0.951 . S
H1259 C1285 0.950 . S
H1260 C1286 0.950 . S
H1261 C1288 0.950 . S
H1262 C1291 0.950 . S
H1263 C1292 0.950 . S
H1264 C1294 0.950 . S
H1265 C1295 0.950 . S
C1266 H1248 0.951 . S
C1266 C1267 1.366 . S
C1266 C1268 1.388 1_554 S
C1267 C1266 1.366 . S
C1267 C1271 1.385 1_554 S
C1268 H1249 0.951 . S
C1268 C1266 1.388 1_556 S
C1268 C1269 1.366 . S
C1269 C1268 1.366 . S
C1269 C1270 1.414 . S
C1269 C1272 1.499 . S
C1270 H1250 0.950 . S
C1270 C1269 1.414 . S
C1270 C1271 1.374 . S
C1271 H1251 0.950 . S
C1271 C1267 1.385 1_556 S
C1271 C1270 1.374 . S
C1272 C1269 1.499 . S
C1272 C1273 1.373 . S
C1272 C1274 1.389 . S
C1273 H1252 0.950 . S
C1273 C1272 1.373 . S
C1273 C1289 1.377 . S
C1274 C1272 1.389 . S
C1274 C1275 1.524 . S
C1274 C1288 1.377 . S
C1275 C1274 1.524 . S
C1275 C1276 1.397 . S
C1275 C1280 1.363 . S
C1276 H1253 0.950 . S
C1276 C1275 1.397 . S
C1276 C1277 1.334 . S
C1277 H1254 0.950 . S
C1277 C1276 1.334 . S
C1277 C1278 1.287 . S
C1278 C1277 1.287 . S
C1278 C1279 1.524 . S
C1278 H1297 0.913 . S
C1279 H1255 0.950 . S
C1279 C1278 1.524 . S
C1279 C1280 1.415 . S
C1280 H1256 0.950 . S
C1280 C1275 1.363 . S
C1280 C1279 1.415 . S
C1281 H1257 0.951 . S
C1281 C1282 1.366 . S
C1281 C1283 1.388 . S
C1282 C1281 1.366 . S
C1282 C1286 1.385 . S
C1283 H1258 0.951 . S
C1283 C1281 1.388 . S
C1283 C1284 1.366 . S
C1284 C1283 1.366 . S
C1284 C1285 1.414 . S
C1284 C1287 1.499 . S
C1285 H1259 0.950 . S
C1285 C1284 1.414 . S
C1285 C1286 1.374 . S
C1286 H1260 0.950 . S
C1286 C1282 1.385 . S
C1286 C1285 1.374 . S
C1287 C1284 1.499 . S
C1287 C1288 1.373 . S
C1287 C1289 1.389 . S
C1288 H1261 0.950 . S
C1288 C1274 1.377 . S
C1288 C1287 1.373 . S
C1289 C1273 1.377 . S
C1289 C1287 1.389 . S
C1289 C1290 1.524 . S
C1290 C1289 1.524 . S
C1290 C1291 1.397 . S
C1290 C1295 1.363 . S
C1291 H1262 0.950 . S
C1291 C1290 1.397 . S
C1291 C1292 1.334 . S
C1292 H1263 0.950 . S
C1292 C1291 1.334 . S
C1292 C1293 1.287 . S
C1293 C1292 1.287 . S
C1293 C1294 1.524 . S
C1293 H1296 0.999 . S
C1294 H1264 0.950 . S
C1294 C1293 1.524 . S
C1294 C1295 1.415 . S
C1295 H1265 0.950 . S
C1295 C1290 1.363 . S
C1295 C1294 1.415 . S
H1296 C1293 0.999 . S
H1297 C1278 0.913 . S
H1298 C1316 0.951 . S
H1299 C1318 0.951 . S
H1300 C1320 0.950 . S
H1301 C1321 0.950 . S
H1302 C1323 0.950 . S
H1303 C1326 0.950 . S
H1304 C1327 0.950 . S
H1305 C1329 0.950 . S
H1306 C1330 0.950 . S
H1307 C1331 0.951 . S
H1308 C1333 0.951 . S
H1309 C1335 0.950 . S
H1310 C1336 0.950 . S
H1311 C1338 0.950 . S
H1312 C1341 0.950 . S
H1313 C1342 0.950 . S
H1314 C1344 0.950 . S
H1315 C1345 0.950 . S
C1316 H1298 0.951 . S
C1316 C1317 1.366 1_554 S
C1316 C1318 1.388 . S
C1317 C1316 1.366 1_556 S
C1317 C1321 1.385 . S
C1318 H1299 0.951 . S
C1318 C1316 1.388 . S
C1318 C1319 1.366 . S
C1319 C1318 1.366 . S
C1319 C1320 1.414 . S
C1319 C1322 1.499 . S
C1320 H1300 0.950 . S
C1320 C1319 1.414 . S
C1320 C1321 1.374 1_554 S
C1321 H1301 0.950 . S
C1321 C1317 1.385 . S
C1321 C1320 1.374 1_556 S
C1322 C1319 1.499 . S
C1322 C1323 1.373 . S
C1322 C1324 1.389 . S
C1323 H1302 0.950 . S
C1323 C1322 1.373 . S
C1323 C1339 1.377 . S
C1324 C1322 1.389 . S
C1324 C1325 1.524 . S
C1324 C1338 1.377 . S
C1325 C1324 1.524 . S
C1325 C1326 1.397 . S
C1325 C1330 1.363 . S
C1326 H1303 0.950 . S
C1326 C1325 1.397 . S
C1326 C1327 1.334 . S
C1327 H1304 0.950 . S
C1327 C1326 1.334 . S
C1327 C1328 1.287 . S
C1328 C1327 1.287 . S
C1328 C1329 1.524 . S
C1328 H1347 0.913 . S
C1329 H1305 0.950 . S
C1329 C1328 1.524 . S
C1329 C1330 1.415 . S
C1330 H1306 0.950 . S
C1330 C1325 1.363 . S
C1330 C1329 1.415 . S
C1331 H1307 0.951 . S
C1331 C1332 1.366 . S
C1331 C1333 1.388 . S
C1332 C1331 1.366 . S
C1332 C1336 1.385 . S
C1333 H1308 0.951 . S
C1333 C1331 1.388 . S
C1333 C1334 1.366 . S
C1334 C1333 1.366 . S
C1334 C1335 1.414 . S
C1334 C1337 1.499 . S
C1335 H1309 0.950 . S
C1335 C1334 1.414 . S
C1335 C1336 1.374 . S
C1336 H1310 0.950 . S
C1336 C1332 1.385 . S
C1336 C1335 1.374 . S
C1337 C1334 1.499 . S
C1337 C1338 1.373 . S
C1337 C1339 1.389 . S
C1338 H1311 0.950 . S
C1338 C1324 1.377 . S
C1338 C1337 1.373 . S
C1339 C1323 1.377 . S
C1339 C1337 1.389 . S
C1339 C1340 1.524 . S
C1340 C1339 1.524 . S
C1340 C1341 1.397 . S
C1340 C1345 1.363 . S
C1341 H1312 0.950 . S
C1341 C1340 1.397 . S
C1341 C1342 1.334 . S
C1342 H1313 0.950 . S
C1342 C1341 1.334 . S
C1342 C1343 1.287 . S
C1343 C1342 1.287 . S
C1343 C1344 1.524 . S
C1343 H1346 0.999 . S
C1344 H1314 0.950 . S
C1344 C1343 1.524 . S
C1344 C1345 1.415 . S
C1345 H1315 0.950 . S
C1345 C1340 1.363 . S
C1345 C1344 1.415 . S
H1346 C1343 0.999 . S
H1347 C1328 0.913 . S
H1348 C1366 0.951 . S
H1349 C1368 0.951 . S
H1350 C1370 0.950 . S
H1351 C1371 0.950 . S
H1352 C1373 0.950 . S
H1353 C1376 0.950 . S
H1354 C1377 0.950 . S
H1355 C1379 0.950 . S
H1356 C1380 0.950 . S
H1357 C1381 0.951 . S
H1358 C1383 0.951 . S
H1359 C1385 0.950 . S
H1360 C1386 0.950 . S
H1361 C1388 0.950 . S
H1362 C1391 0.950 . S
H1363 C1392 0.950 . S
H1364 C1394 0.950 . S
H1365 C1395 0.950 . S
C1366 H1348 0.951 . S
C1366 C1367 1.366 . S
C1366 C1368 1.388 . S
C1367 C1366 1.366 . S
C1367 C1371 1.385 . S
C1368 H1349 0.951 . S
C1368 C1366 1.388 . S
C1368 C1369 1.366 . S
C1369 C1368 1.366 . S
C1369 C1370 1.414 . S
C1369 C1372 1.499 . S
C1370 H1350 0.950 . S
C1370 C1369 1.414 . S
C1370 C1371 1.374 . S
C1371 H1351 0.950 . S
C1371 C1367 1.385 . S
C1371 C1370 1.374 . S
C1372 C1369 1.499 . S
C1372 C1373 1.373 . S
C1372 C1374 1.389 . S
C1373 H1352 0.950 . S
C1373 C1372 1.373 . S
C1373 C1389 1.377 . S
C1374 C1372 1.389 . S
C1374 C1375 1.524 . S
C1374 C1388 1.377 . S
C1375 C1374 1.524 . S
C1375 C1376 1.397 . S
C1375 C1380 1.363 . S
C1376 H1353 0.950 . S
C1376 C1375 1.397 . S
C1376 C1377 1.334 . S
C1377 H1354 0.950 . S
C1377 C1376 1.334 . S
C1377 C1378 1.287 . S
C1378 C1377 1.287 . S
C1378 C1379 1.524 . S
C1378 H1397 0.913 . S
C1379 H1355 0.950 . S
C1379 C1378 1.524 . S
C1379 C1380 1.415 . S
C1380 H1356 0.950 . S
C1380 C1375 1.363 . S
C1380 C1379 1.415 . S
C1381 H1357 0.951 . S
C1381 C1382 1.366 . S
C1381 C1383 1.388 . S
C1382 C1381 1.366 . S
C1382 C1386 1.385 . S
C1383 H1358 0.951 . S
C1383 C1381 1.388 . S
C1383 C1384 1.366 . S
C1384 C1383 1.366 . S
C1384 C1385 1.414 . S
C1384 C1387 1.499 . S
C1385 H1359 0.950 . S
C1385 C1384 1.414 . S
C1385 C1386 1.374 . S
C1386 H1360 0.950 . S
C1386 C1382 1.385 . S
C1386 C1385 1.374 . S
C1387 C1384 1.499 . S
C1387 C1388 1.373 . S
C1387 C1389 1.389 . S
C1388 H1361 0.950 . S
C1388 C1374 1.377 . S
C1388 C1387 1.373 . S
C1389 C1373 1.377 . S
C1389 C1387 1.389 . S
C1389 C1390 1.524 . S
C1390 C1389 1.524 . S
C1390 C1391 1.397 . S
C1390 C1395 1.363 . S
C1391 H1362 0.950 . S
C1391 C1390 1.397 . S
C1391 C1392 1.334 . S
C1392 H1363 0.950 . S
C1392 C1391 1.334 . S
C1392 C1393 1.287 . S
C1393 C1392 1.287 . S
C1393 C1394 1.524 . S
C1393 H1396 0.999 . S
C1394 H1364 0.950 . S
C1394 C1393 1.524 . S
C1394 C1395 1.415 . S
C1395 H1365 0.950 . S
C1395 C1390 1.363 . S
C1395 C1394 1.415 . S
H1396 C1393 0.999 . S
H1397 C1378 0.913 . S
H1398 C1416 0.951 . S
H1399 C1418 0.951 . S
H1400 C1420 0.950 . S
H1401 C1421 0.950 . S
H1402 C1423 0.950 . S
H1403 C1426 0.950 . S
H1404 C1427 0.950 . S
H1405 C1429 0.950 . S
H1406 C1430 0.950 . S
H1407 C1431 0.951 . S
H1408 C1433 0.951 . S
H1409 C1435 0.950 . S
H1410 C1436 0.950 . S
H1411 C1438 0.950 . S
H1412 C1441 0.950 . S
H1413 C1442 0.950 . S
H1414 C1444 0.950 . S
H1415 C1445 0.950 . S
C1416 H1398 0.951 . S
C1416 C1417 1.366 . S
C1416 C1418 1.388 . S
C1417 C1416 1.366 . S
C1417 C1421 1.385 . S
C1418 H1399 0.951 . S
C1418 C1416 1.388 . S
C1418 C1419 1.366 . S
C1419 C1418 1.366 . S
C1419 C1420 1.414 . S
C1419 C1422 1.499 . S
C1420 H1400 0.950 . S
C1420 C1419 1.414 . S
C1420 C1421 1.374 . S
C1421 H1401 0.950 . S
C1421 C1417 1.385 . S
C1421 C1420 1.374 . S
C1422 C1419 1.499 . S
C1422 C1423 1.373 . S
C1422 C1424 1.389 . S
C1423 H1402 0.950 . S
C1423 C1422 1.373 . S
C1423 C1439 1.377 . S
C1424 C1422 1.389 . S
C1424 C1425 1.524 . S
C1424 C1438 1.377 . S
C1425 C1424 1.524 . S
C1425 C1426 1.397 . S
C1425 C1430 1.363 . S
C1426 H1403 0.950 . S
C1426 C1425 1.397 . S
C1426 C1427 1.334 . S
C1427 H1404 0.950 . S
C1427 C1426 1.334 . S
C1427 C1428 1.287 . S
C1428 C1427 1.287 . S
C1428 C1429 1.524 . S
C1428 H1447 0.913 . S
C1429 H1405 0.950 . S
C1429 C1428 1.524 . S
C1429 C1430 1.415 . S
C1430 H1406 0.950 . S
C1430 C1425 1.363 . S
C1430 C1429 1.415 . S
C1431 H1407 0.951 . S
C1431 C1432 1.366 . S
C1431 C1433 1.388 . S
C1432 C1431 1.366 . S
C1432 C1436 1.385 . S
C1433 H1408 0.951 . S
C1433 C1431 1.388 . S
C1433 C1434 1.366 . S
C1434 C1433 1.366 . S
C1434 C1435 1.414 . S
C1434 C1437 1.499 . S
C1435 H1409 0.950 . S
C1435 C1434 1.414 . S
C1435 C1436 1.374 . S
C1436 H1410 0.950 . S
C1436 C1432 1.385 . S
C1436 C1435 1.374 . S
C1437 C1434 1.499 . S
C1437 C1438 1.373 . S
C1437 C1439 1.389 . S
C1438 H1411 0.950 . S
C1438 C1424 1.377 . S
C1438 C1437 1.373 . S
C1439 C1423 1.377 . S
C1439 C1437 1.389 . S
C1439 C1440 1.524 . S
C1440 C1439 1.524 . S
C1440 C1441 1.397 . S
C1440 C1445 1.363 . S
C1441 H1412 0.950 . S
C1441 C1440 1.397 . S
C1441 C1442 1.334 . S
C1442 H1413 0.950 . S
C1442 C1441 1.334 . S
C1442 C1443 1.287 . S
C1443 C1442 1.287 . S
C1443 C1444 1.524 . S
C1443 H1446 0.999 . S
C1444 H1414 0.950 . S
C1444 C1443 1.524 . S
C1444 C1445 1.415 . S
C1445 H1415 0.950 . S
C1445 C1440 1.363 . S
C1445 C1444 1.415 . S
H1446 C1443 0.999 . S
H1447 C1428 0.913 . S
H1448 C1466 0.951 . S
H1449 C1468 0.951 . S
H1450 C1470 0.950 . S
H1451 C1471 0.950 . S
H1452 C1473 0.950 . S
H1453 C1476 0.950 . S
H1454 C1477 0.950 . S
H1455 C1479 0.950 . S
H1456 C1480 0.950 . S
H1457 C1481 0.951 . S
H1458 C1483 0.951 . S
H1459 C1485 0.950 . S
H1460 C1486 0.950 . S
H1461 C1488 0.950 . S
H1462 C1491 0.950 . S
H1463 C1492 0.950 . S
H1464 C1494 0.950 . S
H1465 C1495 0.950 . S
C1466 H1448 0.951 . S
C1466 C1467 1.366 . S
C1466 C1468 1.388 1_556 S
C1467 C1466 1.366 . S
C1467 C1471 1.385 1_556 S
C1468 H1449 0.951 . S
C1468 C1466 1.388 1_554 S
C1468 C1469 1.366 . S
C1469 C1468 1.366 . S
C1469 C1470 1.414 . S
C1469 C1472 1.499 . S
C1470 H1450 0.950 . S
C1470 C1469 1.414 . S
C1470 C1471 1.374 . S
C1471 H1451 0.950 . S
C1471 C1467 1.385 1_554 S
C1471 C1470 1.374 . S
C1472 C1469 1.499 . S
C1472 C1473 1.373 . S
C1472 C1474 1.389 . S
C1473 H1452 0.950 . S
C1473 C1472 1.373 . S
C1473 C1489 1.377 . S
C1474 C1472 1.389 . S
C1474 C1475 1.524 . S
C1474 C1488 1.377 . S
C1475 C1474 1.524 . S
C1475 C1476 1.397 . S
C1475 C1480 1.363 . S
C1476 H1453 0.950 . S
C1476 C1475 1.397 . S
C1476 C1477 1.334 1_554 S
C1477 H1454 0.950 . S
C1477 C1476 1.334 1_556 S
C1477 C1478 1.287 . S
C1478 C1477 1.287 . S
C1478 C1479 1.524 . S
C1478 H1497 0.913 . S
C1479 H1455 0.950 . S
C1479 C1478 1.524 . S
C1479 C1480 1.415 1_556 S
C1480 H1456 0.950 . S
C1480 C1475 1.363 . S
C1480 C1479 1.415 1_554 S
C1481 H1457 0.951 . S
C1481 C1482 1.366 . S
C1481 C1483 1.388 . S
C1482 C1481 1.366 . S
C1482 C1486 1.385 . S
C1483 H1458 0.951 . S
C1483 C1481 1.388 . S
C1483 C1484 1.366 . S
C1484 C1483 1.366 . S
C1484 C1485 1.414 . S
C1484 C1487 1.499 . S
C1485 H1459 0.950 . S
C1485 C1484 1.414 . S
C1485 C1486 1.374 . S
C1486 H1460 0.950 . S
C1486 C1482 1.385 . S
C1486 C1485 1.374 . S
C1487 C1484 1.499 . S
C1487 C1488 1.373 . S
C1487 C1489 1.389 . S
C1488 H1461 0.950 . S
C1488 C1474 1.377 . S
C1488 C1487 1.373 . S
C1489 C1473 1.377 . S
C1489 C1487 1.389 . S
C1489 C1490 1.524 . S
C1490 C1489 1.524 . S
C1490 C1491 1.397 . S
C1490 C1495 1.363 . S
C1491 H1462 0.950 . S
C1491 C1490 1.397 . S
C1491 C1492 1.334 . S
C1492 H1463 0.950 . S
C1492 C1491 1.334 . S
C1492 C1493 1.287 . S
C1493 C1492 1.287 . S
C1493 C1494 1.524 . S
C1493 H1496 0.999 . S
C1494 H1464 0.950 . S
C1494 C1493 1.524 . S
C1494 C1495 1.415 . S
C1495 H1465 0.950 . S
C1495 C1490 1.363 . S
C1495 C1494 1.415 . S
H1496 C1493 0.999 . S
H1497 C1478 0.913 . S
H1498 C1516 0.951 . S
H1499 C1518 0.951 . S
H1500 C1520 0.950 . S
H1501 C1521 0.950 . S
H1502 C1523 0.950 . S
H1503 C1526 0.950 . S
H1504 C1527 0.950 . S
H1505 C1529 0.950 . S
H1506 C1530 0.950 . S
H1507 C1531 0.951 . S
H1508 C1533 0.951 . S
H1509 C1535 0.950 . S
H1510 C1536 0.950 . S
H1511 C1538 0.950 . S
H1512 C1541 0.950 . S
H1513 C1542 0.950 . S
H1514 C1544 0.950 . S
H1515 C1545 0.950 . S
C1516 H1498 0.951 . S
C1516 C1517 1.366 1_556 S
C1516 C1518 1.388 . S
C1517 C1516 1.366 1_554 S
C1517 C1521 1.385 . S
C1518 H1499 0.951 . S
C1518 C1516 1.388 . S
C1518 C1519 1.366 . S
C1519 C1518 1.366 . S
C1519 C1520 1.414 . S
C1519 C1522 1.499 . S
C1520 H1500 0.950 . S
C1520 C1519 1.414 . S
C1520 C1521 1.374 1_556 S
C1521 H1501 0.950 . S
C1521 C1517 1.385 . S
C1521 C1520 1.374 1_554 S
C1522 C1519 1.499 . S
C1522 C1523 1.373 . S
C1522 C1524 1.389 . S
C1523 H1502 0.950 . S
C1523 C1522 1.373 . S
C1523 C1539 1.377 . S
C1524 C1522 1.389 . S
C1524 C1525 1.524 . S
C1524 C1538 1.377 . S
C1525 C1524 1.524 . S
C1525 C1526 1.397 . S
C1525 C1530 1.363 . S
C1526 H1503 0.950 . S
C1526 C1525 1.397 . S
C1526 C1527 1.334 . S
C1527 H1504 0.950 . S
C1527 C1526 1.334 . S
C1527 C1528 1.287 . S
C1528 C1527 1.287 . S
C1528 C1529 1.524 . S
C1528 H1547 0.913 . S
C1529 H1505 0.950 . S
C1529 C1528 1.524 . S
C1529 C1530 1.415 . S
C1530 H1506 0.950 . S
C1530 C1525 1.363 . S
C1530 C1529 1.415 . S
C1531 H1507 0.951 . S
C1531 C1532 1.366 . S
C1531 C1533 1.388 . S
C1532 C1531 1.366 . S
C1532 C1536 1.385 . S
C1533 H1508 0.951 . S
C1533 C1531 1.388 . S
C1533 C1534 1.366 . S
C1534 C1533 1.366 . S
C1534 C1535 1.414 . S
C1534 C1537 1.499 . S
C1535 H1509 0.950 . S
C1535 C1534 1.414 . S
C1535 C1536 1.374 . S
C1536 H1510 0.950 . S
C1536 C1532 1.385 . S
C1536 C1535 1.374 . S
C1537 C1534 1.499 . S
C1537 C1538 1.373 . S
C1537 C1539 1.389 . S
C1538 H1511 0.950 . S
C1538 C1524 1.377 . S
C1538 C1537 1.373 . S
C1539 C1523 1.377 . S
C1539 C1537 1.389 . S
C1539 C1540 1.524 . S
C1540 C1539 1.524 . S
C1540 C1541 1.397 . S
C1540 C1545 1.363 . S
C1541 H1512 0.950 . S
C1541 C1540 1.397 . S
C1541 C1542 1.334 . S
C1542 H1513 0.950 . S
C1542 C1541 1.334 . S
C1542 C1543 1.287 . S
C1543 C1542 1.287 . S
C1543 C1544 1.524 . S
C1543 H1546 0.999 . S
C1544 H1514 0.950 . S
C1544 C1543 1.524 . S
C1544 C1545 1.415 . S
C1545 H1515 0.950 . S
C1545 C1540 1.363 . S
C1545 C1544 1.415 . S
H1546 C1543 0.999 . S
H1547 C1528 0.913 . S
H1548 C1566 0.951 . S
H1549 C1568 0.951 . S
H1550 C1570 0.950 . S
H1551 C1571 0.950 . S
H1552 C1573 0.950 . S
H1553 C1576 0.950 . S
H1554 C1577 0.950 . S
H1555 C1579 0.950 . S
H1556 C1580 0.950 . S
H1557 C1581 0.951 . S
H1558 C1583 0.951 . S
H1559 C1585 0.950 . S
H1560 C1586 0.950 . S
H1561 C1588 0.950 . S
H1562 C1591 0.950 . S
H1563 C1592 0.950 . S
H1564 C1594 0.950 . S
H1565 C1595 0.950 . S
C1566 H1548 0.951 . S
C1566 C1567 1.366 . S
C1566 C1568 1.388 . S
C1567 C1566 1.366 . S
C1567 C1571 1.385 . S
C1568 H1549 0.951 . S
C1568 C1566 1.388 . S
C1568 C1569 1.366 . S
C1569 C1568 1.366 . S
C1569 C1570 1.414 . S
C1569 C1572 1.499 . S
C1570 H1550 0.950 . S
C1570 C1569 1.414 . S
C1570 C1571 1.374 . S
C1571 H1551 0.950 . S
C1571 C1567 1.385 . S
C1571 C1570 1.374 . S
C1572 C1569 1.499 . S
C1572 C1573 1.373 . S
C1572 C1574 1.389 . S
C1573 H1552 0.950 . S
C1573 C1572 1.373 . S
C1573 C1589 1.377 . S
C1574 C1572 1.389 . S
C1574 C1575 1.524 . S
C1574 C1588 1.377 . S
C1575 C1574 1.524 . S
C1575 C1576 1.397 . S
C1575 C1580 1.363 . S
C1576 H1553 0.950 . S
C1576 C1575 1.397 . S
C1576 C1577 1.334 . S
C1577 H1554 0.950 . S
C1577 C1576 1.334 . S
C1577 C1578 1.287 . S
C1578 C1577 1.287 . S
C1578 C1579 1.524 . S
C1578 H1597 0.913 . S
C1579 H1555 0.950 . S
C1579 C1578 1.524 . S
C1579 C1580 1.415 . S
C1580 H1556 0.950 . S
C1580 C1575 1.363 . S
C1580 C1579 1.415 . S
C1581 H1557 0.951 . S
C1581 C1582 1.366 . S
C1581 C1583 1.388 . S
C1582 C1581 1.366 . S
C1582 C1586 1.385 . S
C1583 H1558 0.951 . S
C1583 C1581 1.388 . S
C1583 C1584 1.366 . S
C1584 C1583 1.366 . S
C1584 C1585 1.414 . S
C1584 C1587 1.499 . S
C1585 H1559 0.950 . S
C1585 C1584 1.414 . S
C1585 C1586 1.374 . S
C1586 H1560 0.950 . S
C1586 C1582 1.385 . S
C1586 C1585 1.374 . S
C1587 C1584 1.499 . S
C1587 C1588 1.373 . S
C1587 C1589 1.389 . S
C1588 H1561 0.950 . S
C1588 C1574 1.377 . S
C1588 C1587 1.373 . S
C1589 C1573 1.377 . S
C1589 C1587 1.389 . S
C1589 C1590 1.524 . S
C1590 C1589 1.524 . S
C1590 C1591 1.397 . S
C1590 C1595 1.363 . S
C1591 H1562 0.950 . S
C1591 C1590 1.397 . S
C1591 C1592 1.334 . S
C1592 H1563 0.950 . S
C1592 C1591 1.334 . S
C1592 C1593 1.287 . S
C1593 C1592 1.287 . S
C1593 C1594 1.524 . S
C1593 H1596 0.999 . S
C1594 H1564 0.950 . S
C1594 C1593 1.524 . S
C1594 C1595 1.415 . S
C1595 H1565 0.950 . S
C1595 C1590 1.363 . S
C1595 C1594 1.415 . S
H1596 C1593 0.999 . S
H1597 C1578 0.913 . S
H1598 C1616 0.951 . S
H1599 C1618 0.951 . S
H1600 C1620 0.950 . S
H1601 C1621 0.950 . S
H1602 C1623 0.950 . S
H1603 C1626 0.950 . S
H1604 C1627 0.950 . S
H1605 C1629 0.950 . S
H1606 C1630 0.950 . S
H1607 C1631 0.951 . S
H1608 C1633 0.951 . S
H1609 C1635 0.950 . S
H1610 C1636 0.950 . S
H1611 C1638 0.950 . S
H1612 C1641 0.950 . S
H1613 C1642 0.950 . S
H1614 C1644 0.950 . S
H1615 C1645 0.950 . S
C1616 H1598 0.951 . S
C1616 C1617 1.366 . S
C1616 C1618 1.388 . S
C1617 C1616 1.366 . S
C1617 C1621 1.385 . S
C1618 H1599 0.951 . S
C1618 C1616 1.388 . S
C1618 C1619 1.366 . S
C1619 C1618 1.366 . S
C1619 C1620 1.414 . S
C1619 C1622 1.499 . S
C1620 H1600 0.950 . S
C1620 C1619 1.414 . S
C1620 C1621 1.374 . S
C1621 H1601 0.950 . S
C1621 C1617 1.385 . S
C1621 C1620 1.374 . S
C1622 C1619 1.499 . S
C1622 C1623 1.373 . S
C1622 C1624 1.389 . S
C1623 H1602 0.950 . S
C1623 C1622 1.373 . S
C1623 C1639 1.377 . S
C1624 C1622 1.389 . S
C1624 C1625 1.524 . S
C1624 C1638 1.377 . S
C1625 C1624 1.524 . S
C1625 C1626 1.397 . S
C1625 C1630 1.363 . S
C1626 H1603 0.950 . S
C1626 C1625 1.397 . S
C1626 C1627 1.334 . S
C1627 H1604 0.950 . S
C1627 C1626 1.334 . S
C1627 C1628 1.287 . S
C1628 C1627 1.287 . S
C1628 C1629 1.524 . S
C1628 H1647 0.913 . S
C1629 H1605 0.950 . S
C1629 C1628 1.524 . S
C1629 C1630 1.415 . S
C1630 H1606 0.950 . S
C1630 C1625 1.363 . S
C1630 C1629 1.415 . S
C1631 H1607 0.951 . S
C1631 C1632 1.366 . S
C1631 C1633 1.388 . S
C1632 C1631 1.366 . S
C1632 C1636 1.385 . S
C1633 H1608 0.951 . S
C1633 C1631 1.388 . S
C1633 C1634 1.366 . S
C1634 C1633 1.366 . S
C1634 C1635 1.414 . S
C1634 C1637 1.499 . S
C1635 H1609 0.950 . S
C1635 C1634 1.414 . S
C1635 C1636 1.374 . S
C1636 H1610 0.950 . S
C1636 C1632 1.385 . S
C1636 C1635 1.374 . S
C1637 C1634 1.499 . S
C1637 C1638 1.373 . S
C1637 C1639 1.389 . S
C1638 H1611 0.950 . S
C1638 C1624 1.377 . S
C1638 C1637 1.373 . S
C1639 C1623 1.377 . S
C1639 C1637 1.389 . S
C1639 C1640 1.524 . S
C1640 C1639 1.524 . S
C1640 C1641 1.397 . S
C1640 C1645 1.363 . S
C1641 H1612 0.950 . S
C1641 C1640 1.397 . S
C1641 C1642 1.334 . S
C1642 H1613 0.950 . S
C1642 C1641 1.334 . S
C1642 C1643 1.287 . S
C1643 C1642 1.287 . S
C1643 C1644 1.524 . S
C1643 H1646 0.999 . S
C1644 H1614 0.950 . S
C1644 C1643 1.524 . S
C1644 C1645 1.415 . S
C1645 H1615 0.950 . S
C1645 C1640 1.363 . S
C1645 C1644 1.415 . S
H1646 C1643 0.999 . S
H1647 C1628 0.913 . S
H1648 C1666 0.951 . S
H1649 C1668 0.951 . S
H1650 C1670 0.950 . S
H1651 C1671 0.950 . S
H1652 C1673 0.950 . S
H1653 C1676 0.950 . S
H1654 C1677 0.950 . S
H1655 C1679 0.950 . S
H1656 C1680 0.950 . S
H1657 C1681 0.951 . S
H1658 C1683 0.951 . S
H1659 C1685 0.950 . S
H1660 C1686 0.950 . S
H1661 C1688 0.950 . S
H1662 C1691 0.950 . S
H1663 C1692 0.950 . S
H1664 C1694 0.950 . S
H1665 C1695 0.950 . S
C1666 H1648 0.951 . S
C1666 C1667 1.366 . S
C1666 C1668 1.388 . S
C1667 C1666 1.366 . S
C1667 C1671 1.385 . S
C1668 H1649 0.951 . S
C1668 C1666 1.388 . S
C1668 C1669 1.366 . S
C1669 C1668 1.366 . S
C1669 C1670 1.414 . S
C1669 C1672 1.499 . S
C1670 H1650 0.950 . S
C1670 C1669 1.414 . S
C1670 C1671 1.374 . S
C1671 H1651 0.950 . S
C1671 C1667 1.385 . S
C1671 C1670 1.374 . S
C1672 C1669 1.499 . S
C1672 C1673 1.373 . S
C1672 C1674 1.389 . S
C1673 H1652 0.950 . S
C1673 C1672 1.373 . S
C1673 C1689 1.377 . S
C1674 C1672 1.389 . S
C1674 C1675 1.524 . S
C1674 C1688 1.377 . S
C1675 C1674 1.524 . S
C1675 C1676 1.397 . S
C1675 C1680 1.363 . S
C1676 H1653 0.950 . S
C1676 C1675 1.397 . S
C1676 C1677 1.334 . S
C1677 H1654 0.950 . S
C1677 C1676 1.334 . S
C1677 C1678 1.287 . S
C1678 C1677 1.287 . S
C1678 C1679 1.524 . S
C1678 H1697 0.913 . S
C1679 H1655 0.950 . S
C1679 C1678 1.524 . S
C1679 C1680 1.415 . S
C1680 H1656 0.950 . S
C1680 C1675 1.363 . S
C1680 C1679 1.415 . S
C1681 H1657 0.951 . S
C1681 C1682 1.366 . S
C1681 C1683 1.388 . S
C1682 C1681 1.366 . S
C1682 C1686 1.385 . S
C1683 H1658 0.951 . S
C1683 C1681 1.388 . S
C1683 C1684 1.366 . S
C1684 C1683 1.366 . S
C1684 C1685 1.414 . S
C1684 C1687 1.499 . S
C1685 H1659 0.950 . S
C1685 C1684 1.414 . S
C1685 C1686 1.374 . S
C1686 H1660 0.950 . S
C1686 C1682 1.385 . S
C1686 C1685 1.374 . S
C1687 C1684 1.499 . S
C1687 C1688 1.373 . S
C1687 C1689 1.389 . S
C1688 H1661 0.950 . S
C1688 C1674 1.377 . S
C1688 C1687 1.373 . S
C1689 C1673 1.377 . S
C1689 C1687 1.389 . S
C1689 C1690 1.524 . S
C1690 C1689 1.524 . S
C1690 C1691 1.397 . S
C1690 C1695 1.363 . S
C1691 H1662 0.950 . S
C1691 C1690 1.397 . S
C1691 C1692 1.334 . S
C1692 H1663 0.950 . S
C1692 C1691 1.334 . S
C1692 C1693 1.287 . S
C1693 C1692 1.287 . S
C1693 C1694 1.524 . S
C1693 H1696 0.999 . S
C1694 H1664 0.950 . S
C1694 C1693 1.524 . S
C1694 C1695 1.415 . S
C1695 H1665 0.950 . S
C1695 C1690 1.363 . S
C1695 C1694 1.415 . S
H1696 C1693 0.999 . S
H1697 C1678 0.913 . S
H1698 C1716 0.951 . S
H1699 C1718 0.951 . S
H1700 C1720 0.950 . S
H1701 C1721 0.950 . S
H1702 C1723 0.950 . S
H1703 C1726 0.950 . S
H1704 C1727 0.950 . S
H1705 C1729 0.950 . S
H1706 C1730 0.950 . S
H1707 C1731 0.951 . S
H1708 C1733 0.951 . S
H1709 C1735 0.950 . S
H1710 C1736 0.950 . S
H1711 C1738 0.950 . S
H1712 C1741 0.950 . S
H1713 C1742 0.950 . S
H1714 C1744 0.950 . S
H1715 C1745 0.950 . S
C1716 H1698 0.951 . S
C1716 C1717 1.366 . S
C1716 C1718 1.388 . S
C1717 C1716 1.366 . S
C1717 C1721 1.385 . S
C1718 H1699 0.951 . S
C1718 C1716 1.388 . S
C1718 C1719 1.366 . S
C1719 C1718 1.366 . S
C1719 C1720 1.414 . S
C1719 C1722 1.499 . S
C1720 H1700 0.950 . S
C1720 C1719 1.414 . S
C1720 C1721 1.374 . S
C1721 H1701 0.950 . S
C1721 C1717 1.385 . S
C1721 C1720 1.374 . S
C1722 C1719 1.499 . S
C1722 C1723 1.373 . S
C1722 C1724 1.389 . S
C1723 H1702 0.950 . S
C1723 C1722 1.373 . S
C1723 C1739 1.377 . S
C1724 C1722 1.389 . S
C1724 C1725 1.524 . S
C1724 C1738 1.377 . S
C1725 C1724 1.524 . S
C1725 C1726 1.397 . S
C1725 C1730 1.363 . S
C1726 H1703 0.950 . S
C1726 C1725 1.397 . S
C1726 C1727 1.334 . S
C1727 H1704 0.950 . S
C1727 C1726 1.334 . S
C1727 C1728 1.287 . S
C1728 C1727 1.287 . S
C1728 C1729 1.524 . S
C1728 H1747 0.913 . S
C1729 H1705 0.950 . S
C1729 C1728 1.524 . S
C1729 C1730 1.415 . S
C1730 H1706 0.950 . S
C1730 C1725 1.363 . S
C1730 C1729 1.415 . S
C1731 H1707 0.951 . S
C1731 C1732 1.366 . S
C1731 C1733 1.388 . S
C1732 C1731 1.366 . S
C1732 C1736 1.385 . S
C1733 H1708 0.951 . S
C1733 C1731 1.388 . S
C1733 C1734 1.366 . S
C1734 C1733 1.366 . S
C1734 C1735 1.414 . S
C1734 C1737 1.499 . S
C1735 H1709 0.950 . S
C1735 C1734 1.414 . S
C1735 C1736 1.374 . S
C1736 H1710 0.950 . S
C1736 C1732 1.385 . S
C1736 C1735 1.374 . S
C1737 C1734 1.499 . S
C1737 C1738 1.373 . S
C1737 C1739 1.389 . S
C1738 H1711 0.950 . S
C1738 C1724 1.377 . S
C1738 C1737 1.373 . S
C1739 C1723 1.377 . S
C1739 C1737 1.389 . S
C1739 C1740 1.524 . S
C1740 C1739 1.524 . S
C1740 C1741 1.397 . S
C1740 C1745 1.363 . S
C1741 H1712 0.950 . S
C1741 C1740 1.397 . S
C1741 C1742 1.334 . S
C1742 H1713 0.950 . S
C1742 C1741 1.334 . S
C1742 C1743 1.287 . S
C1743 C1742 1.287 . S
C1743 C1744 1.524 . S
C1743 H1746 0.999 . S
C1744 H1714 0.950 . S
C1744 C1743 1.524 . S
C1744 C1745 1.415 . S
C1745 H1715 0.950 . S
C1745 C1740 1.363 . S
C1745 C1744 1.415 . S
H1746 C1743 0.999 . S
H1747 C1728 0.913 . S
H1748 C1766 0.951 . S
H1749 C1768 0.951 . S
H1750 C1770 0.950 . S
H1751 C1771 0.950 . S
H1752 C1773 0.950 . S
H1753 C1776 0.950 . S
H1754 C1777 0.950 . S
H1755 C1779 0.950 . S
H1756 C1780 0.950 . S
H1757 C1781 0.951 . S
H1758 C1783 0.951 . S
H1759 C1785 0.950 . S
H1760 C1786 0.950 . S
H1761 C1788 0.950 . S
H1762 C1791 0.950 . S
H1763 C1792 0.950 . S
H1764 C1794 0.950 . S
H1765 C1795 0.950 . S
C1766 H1748 0.951 . S
C1766 C1767 1.366 . S
C1766 C1768 1.388 . S
C1767 C1766 1.366 . S
C1767 C1771 1.385 . S
C1768 H1749 0.951 . S
C1768 C1766 1.388 . S
C1768 C1769 1.366 . S
C1769 C1768 1.366 . S
C1769 C1770 1.414 . S
C1769 C1772 1.499 . S
C1770 H1750 0.950 . S
C1770 C1769 1.414 . S
C1770 C1771 1.374 . S
C1771 H1751 0.950 . S
C1771 C1767 1.385 . S
C1771 C1770 1.374 . S
C1772 C1769 1.499 . S
C1772 C1773 1.373 . S
C1772 C1774 1.389 . S
C1773 H1752 0.950 . S
C1773 C1772 1.373 . S
C1773 C1789 1.377 . S
C1774 C1772 1.389 . S
C1774 C1775 1.524 . S
C1774 C1788 1.377 . S
C1775 C1774 1.524 . S
C1775 C1776 1.397 . S
C1775 C1780 1.363 . S
C1776 H1753 0.950 . S
C1776 C1775 1.397 . S
C1776 C1777 1.334 . S
C1777 H1754 0.950 . S
C1777 C1776 1.334 . S
C1777 C1778 1.287 . S
C1778 C1777 1.287 . S
C1778 C1779 1.524 . S
C1778 H1797 0.913 . S
C1779 H1755 0.950 . S
C1779 C1778 1.524 . S
C1779 C1780 1.415 . S
C1780 H1756 0.950 . S
C1780 C1775 1.363 . S
C1780 C1779 1.415 . S
C1781 H1757 0.951 . S
C1781 C1782 1.366 . S
C1781 C1783 1.388 1_554 S
C1782 C1781 1.366 . S
C1782 C1786 1.385 1_554 S
C1783 H1758 0.951 . S
C1783 C1781 1.388 1_556 S
C1783 C1784 1.366 . S
C1784 C1783 1.366 . S
C1784 C1785 1.414 . S
C1784 C1787 1.499 . S
C1785 H1759 0.950 . S
C1785 C1784 1.414 . S
C1785 C1786 1.374 . S
C1786 H1760 0.950 . S
C1786 C1782 1.385 1_556 S
C1786 C1785 1.374 . S
C1787 C1784 1.499 . S
C1787 C1788 1.373 . S
C1787 C1789 1.389 . S
C1788 H1761 0.950 . S
C1788 C1774 1.377 . S
C1788 C1787 1.373 . S
C1789 C1773 1.377 . S
C1789 C1787 1.389 . S
C1789 C1790 1.524 . S
C1790 C1789 1.524 . S
C1790 C1791 1.397 . S
C1790 C1795 1.363 . S
C1791 H1762 0.950 . S
C1791 C1790 1.397 . S
C1791 C1792 1.334 . S
C1792 H1763 0.950 . S
C1792 C1791 1.334 . S
C1792 C1793 1.287 . S
C1793 C1792 1.287 . S
C1793 C1794 1.524 . S
C1793 H1796 0.999 . S
C1794 H1764 0.950 . S
C1794 C1793 1.524 . S
C1794 C1795 1.415 . S
C1795 H1765 0.950 . S
C1795 C1790 1.363 . S
C1795 C1794 1.415 . S
H1796 C1793 0.999 . S
H1797 C1778 0.913 . S
H1798 C1816 0.951 . S
H1799 C1818 0.951 . S
H1800 C1820 0.950 . S
H1801 C1821 0.950 . S
H1802 C1823 0.950 . S
H1803 C1826 0.950 . S
H1804 C1827 0.950 . S
H1805 C1829 0.950 . S
H1806 C1830 0.950 . S
H1807 C1831 0.951 . S
H1808 C1833 0.951 . S
H1809 C1835 0.950 . S
H1810 C1836 0.950 . S
H1811 C1838 0.950 . S
H1812 C1841 0.950 . S
H1813 C1842 0.950 . S
H1814 C1844 0.950 . S
H1815 C1845 0.950 . S
C1816 H1798 0.951 . S
C1816 C1817 1.366 . S
C1816 C1818 1.388 . S
C1817 C1816 1.366 . S
C1817 C1821 1.385 . S
C1818 H1799 0.951 . S
C1818 C1816 1.388 . S
C1818 C1819 1.366 . S
C1819 C1818 1.366 . S
C1819 C1820 1.414 . S
C1819 C1822 1.499 . S
C1820 H1800 0.950 . S
C1820 C1819 1.414 . S
C1820 C1821 1.374 . S
C1821 H1801 0.950 . S
C1821 C1817 1.385 . S
C1821 C1820 1.374 . S
C1822 C1819 1.499 . S
C1822 C1823 1.373 . S
C1822 C1824 1.389 . S
C1823 H1802 0.950 . S
C1823 C1822 1.373 . S
C1823 C1839 1.377 . S
C1824 C1822 1.389 . S
C1824 C1825 1.524 . S
C1824 C1838 1.377 . S
C1825 C1824 1.524 . S
C1825 C1826 1.397 . S
C1825 C1830 1.363 . S
C1826 H1803 0.950 . S
C1826 C1825 1.397 . S
C1826 C1827 1.334 . S
C1827 H1804 0.950 . S
C1827 C1826 1.334 . S
C1827 C1828 1.287 . S
C1828 C1827 1.287 . S
C1828 C1829 1.524 . S
C1828 H1847 0.913 . S
C1829 H1805 0.950 . S
C1829 C1828 1.524 . S
C1829 C1830 1.415 . S
C1830 H1806 0.950 . S
C1830 C1825 1.363 . S
C1830 C1829 1.415 . S
C1831 H1807 0.951 . S
C1831 C1832 1.366 . S
C1831 C1833 1.388 1_556 S
C1832 C1831 1.366 . S
C1832 C1836 1.385 1_556 S
C1833 H1808 0.951 . S
C1833 C1831 1.388 1_554 S
C1833 C1834 1.366 . S
C1834 C1833 1.366 . S
C1834 C1835 1.414 . S
C1834 C1837 1.499 . S
C1835 H1809 0.950 . S
C1835 C1834 1.414 . S
C1835 C1836 1.374 . S
C1836 H1810 0.950 . S
C1836 C1832 1.385 1_554 S
C1836 C1835 1.374 . S
C1837 C1834 1.499 . S
C1837 C1838 1.373 . S
C1837 C1839 1.389 . S
C1838 H1811 0.950 . S
C1838 C1824 1.377 . S
C1838 C1837 1.373 . S
C1839 C1823 1.377 . S
C1839 C1837 1.389 . S
C1839 C1840 1.524 . S
C1840 C1839 1.524 . S
C1840 C1841 1.397 . S
C1840 C1845 1.363 . S
C1841 H1812 0.950 . S
C1841 C1840 1.397 . S
C1841 C1842 1.334 1_554 S
C1842 H1813 0.950 . S
C1842 C1841 1.334 1_556 S
C1842 C1843 1.287 . S
C1843 C1842 1.287 . S
C1843 C1844 1.524 . S
C1843 H1846 0.999 . S
C1844 H1814 0.950 . S
C1844 C1843 1.524 . S
C1844 C1845 1.415 1_556 S
C1845 H1815 0.950 . S
C1845 C1840 1.363 . S
C1845 C1844 1.415 1_554 S
H1846 C1843 0.999 . S
H1847 C1828 0.913 . S
H1848 C1866 0.951 . S
H1849 C1868 0.951 . S
H1850 C1870 0.950 . S
H1851 C1871 0.950 . S
H1852 C1873 0.950 . S
H1853 C1876 0.950 . S
H1854 C1877 0.950 . S
H1855 C1879 0.950 . S
H1856 C1880 0.950 . S
H1857 C1881 0.951 . S
H1858 C1883 0.951 . S
H1859 C1885 0.950 . S
H1860 C1886 0.950 . S
H1861 C1888 0.950 . S
H1862 C1891 0.950 . S
H1863 C1892 0.950 . S
H1864 C1894 0.950 . S
H1865 C1895 0.950 . S
C1866 H1848 0.951 . S
C1866 C1867 1.366 . S
C1866 C1868 1.388 . S
C1867 C1866 1.366 . S
C1867 C1871 1.385 . S
C1868 H1849 0.951 . S
C1868 C1866 1.388 . S
C1868 C1869 1.366 . S
C1869 C1868 1.366 . S
C1869 C1870 1.414 . S
C1869 C1872 1.499 . S
C1870 H1850 0.950 . S
C1870 C1869 1.414 . S
C1870 C1871 1.374 . S
C1871 H1851 0.950 . S
C1871 C1867 1.385 . S
C1871 C1870 1.374 . S
C1872 C1869 1.499 . S
C1872 C1873 1.373 . S
C1872 C1874 1.389 . S
C1873 H1852 0.950 . S
C1873 C1872 1.373 . S
C1873 C1889 1.377 . S
C1874 C1872 1.389 . S
C1874 C1875 1.524 . S
C1874 C1888 1.377 . S
C1875 C1874 1.524 . S
C1875 C1876 1.397 . S
C1875 C1880 1.363 . S
C1876 H1853 0.950 . S
C1876 C1875 1.397 . S
C1876 C1877 1.334 . S
C1877 H1854 0.950 . S
C1877 C1876 1.334 . S
C1877 C1878 1.287 . S
C1878 C1877 1.287 . S
C1878 C1879 1.524 . S
C1878 H1897 0.913 . S
C1879 H1855 0.950 . S
C1879 C1878 1.524 . S
C1879 C1880 1.415 . S
C1880 H1856 0.950 . S
C1880 C1875 1.363 . S
C1880 C1879 1.415 . S
C1881 H1857 0.951 . S
C1881 C1882 1.366 . S
C1881 C1883 1.388 . S
C1882 C1881 1.366 . S
C1882 C1886 1.385 . S
C1883 H1858 0.951 . S
C1883 C1881 1.388 . S
C1883 C1884 1.366 . S
C1884 C1883 1.366 . S
C1884 C1885 1.414 . S
C1884 C1887 1.499 . S
C1885 H1859 0.950 . S
C1885 C1884 1.414 . S
C1885 C1886 1.374 . S
C1886 H1860 0.950 . S
C1886 C1882 1.385 . S
C1886 C1885 1.374 . S
C1887 C1884 1.499 . S
C1887 C1888 1.373 . S
C1887 C1889 1.389 . S
C1888 H1861 0.950 . S
C1888 C1874 1.377 . S
C1888 C1887 1.373 . S
C1889 C1873 1.377 . S
C1889 C1887 1.389 . S
C1889 C1890 1.524 . S
C1890 C1889 1.524 . S
C1890 C1891 1.397 . S
C1890 C1895 1.363 . S
C1891 H1862 0.950 . S
C1891 C1890 1.397 . S
C1891 C1892 1.334 . S
C1892 H1863 0.950 . S
C1892 C1891 1.334 . S
C1892 C1893 1.287 . S
C1893 C1892 1.287 . S
C1893 C1894 1.524 . S
C1893 H1896 0.999 . S
C1894 H1864 0.950 . S
C1894 C1893 1.524 . S
C1894 C1895 1.415 . S
C1895 H1865 0.950 . S
C1895 C1890 1.363 . S
C1895 C1894 1.415 . S
H1896 C1893 0.999 . S
H1897 C1878 0.913 . S
H1898 C1916 0.951 . S
H1899 C1918 0.951 . S
H1900 C1920 0.950 . S
H1901 C1921 0.950 . S
H1902 C1923 0.950 . S
H1903 C1926 0.950 . S
H1904 C1927 0.950 . S
H1905 C1929 0.950 . S
H1906 C1930 0.950 . S
H1907 C1931 0.951 . S
H1908 C1933 0.951 . S
H1909 C1935 0.950 . S
H1910 C1936 0.950 . S
H1911 C1938 0.950 . S
H1912 C1941 0.950 . S
H1913 C1942 0.950 . S
H1914 C1944 0.950 . S
H1915 C1945 0.950 . S
C1916 H1898 0.951 . S
C1916 C1917 1.366 . S
C1916 C1918 1.388 . S
C1917 C1916 1.366 . S
C1917 C1921 1.385 . S
C1918 H1899 0.951 . S
C1918 C1916 1.388 . S
C1918 C1919 1.366 . S
C1919 C1918 1.366 . S
C1919 C1920 1.414 . S
C1919 C1922 1.499 . S
C1920 H1900 0.950 . S
C1920 C1919 1.414 . S
C1920 C1921 1.374 . S
C1921 H1901 0.950 . S
C1921 C1917 1.385 . S
C1921 C1920 1.374 . S
C1922 C1919 1.499 . S
C1922 C1923 1.373 . S
C1922 C1924 1.389 . S
C1923 H1902 0.950 . S
C1923 C1922 1.373 . S
C1923 C1939 1.377 . S
C1924 C1922 1.389 . S
C1924 C1925 1.524 . S
C1924 C1938 1.377 . S
C1925 C1924 1.524 . S
C1925 C1926 1.397 . S
C1925 C1930 1.363 . S
C1926 H1903 0.950 . S
C1926 C1925 1.397 . S
C1926 C1927 1.334 . S
C1927 H1904 0.950 . S
C1927 C1926 1.334 . S
C1927 C1928 1.287 . S
C1928 C1927 1.287 . S
C1928 C1929 1.524 . S
C1928 H1947 0.913 . S
C1929 H1905 0.950 . S
C1929 C1928 1.524 . S
C1929 C1930 1.415 . S
C1930 H1906 0.950 . S
C1930 C1925 1.363 . S
C1930 C1929 1.415 . S
C1931 H1907 0.951 . S
C1931 C1932 1.366 . S
C1931 C1933 1.388 . S
C1932 C1931 1.366 . S
C1932 C1936 1.385 . S
C1933 H1908 0.951 . S
C1933 C1931 1.388 . S
C1933 C1934 1.366 . S
C1934 C1933 1.366 . S
C1934 C1935 1.414 . S
C1934 C1937 1.499 . S
C1935 H1909 0.950 . S
C1935 C1934 1.414 . S
C1935 C1936 1.374 . S
C1936 H1910 0.950 . S
C1936 C1932 1.385 . S
C1936 C1935 1.374 . S
C1937 C1934 1.499 . S
C1937 C1938 1.373 . S
C1937 C1939 1.389 . S
C1938 H1911 0.950 . S
C1938 C1924 1.377 . S
C1938 C1937 1.373 . S
C1939 C1923 1.377 . S
C1939 C1937 1.389 . S
C1939 C1940 1.524 . S
C1940 C1939 1.524 . S
C1940 C1941 1.397 . S
C1940 C1945 1.363 . S
C1941 H1912 0.950 . S
C1941 C1940 1.397 . S
C1941 C1942 1.334 . S
C1942 H1913 0.950 . S
C1942 C1941 1.334 . S
C1942 C1943 1.287 . S
C1943 C1942 1.287 . S
C1943 C1944 1.524 . S
C1943 H1946 0.999 . S
C1944 H1914 0.950 . S
C1944 C1943 1.524 . S
C1944 C1945 1.415 . S
C1945 H1915 0.950 . S
C1945 C1940 1.363 . S
C1945 C1944 1.415 . S
H1946 C1943 0.999 . S
H1947 C1928 0.913 . S
H1948 C1966 0.951 . S
H1949 C1968 0.951 . S
H1950 C1970 0.950 . S
H1951 C1971 0.950 . S
H1952 C1973 0.950 . S
H1953 C1976 0.950 . S
H1954 C1977 0.950 . S
H1955 C1979 0.950 . S
H1956 C1980 0.950 . S
H1957 C1981 0.951 . S
H1958 C1983 0.951 . S
H1959 C1985 0.950 . S
H1960 C1986 0.950 . S
H1961 C1988 0.950 . S
H1962 C1991 0.950 . S
H1963 C1992 0.950 . S
H1964 C1994 0.950 . S
H1965 C1995 0.950 . S
C1966 H1948 0.951 . S
C1966 C1967 1.366 1_554 S
C1966 C1968 1.388 . S
C1967 C1966 1.366 1_556 S
C1967 C1971 1.385 . S
C1968 H1949 0.951 . S
C1968 C1966 1.388 . S
C1968 C1969 1.366 . S
C1969 C1968 1.366 . S
C1969 C1970 1.414 . S
C1969 C1972 1.499 . S
C1970 H1950 0.950 . S
C1970 C1969 1.414 . S
C1970 C1971 1.374 1_554 S
C1971 H1951 0.950 . S
C1971 C1967 1.385 . S
C1971 C1970 1.374 1_556 S
C1972 C1969 1.499 . S
C1972 C1973 1.373 . S
C1972 C1974 1.389 . S
C1973 H1952 0.950 . S
C1973 C1972 1.373 . S
C1973 C1989 1.377 . S
C1974 C1972 1.389 . S
C1974 C1975 1.524 . S
C1974 C1988 1.377 . S
C1975 C1974 1.524 . S
C1975 C1976 1.397 . S
C1975 C1980 1.363 . S
C1976 H1953 0.950 . S
C1976 C1975 1.397 . S
C1976 C1977 1.334 . S
C1977 H1954 0.950 . S
C1977 C1976 1.334 . S
C1977 C1978 1.287 . S
C1978 C1977 1.287 . S
C1978 C1979 1.524 . S
C1978 H1997 0.913 . S
C1979 H1955 0.950 . S
C1979 C1978 1.524 . S
C1979 C1980 1.415 . S
C1980 H1956 0.950 . S
C1980 C1975 1.363 . S
C1980 C1979 1.415 . S
C1981 H1957 0.951 . S
C1981 C1982 1.366 . S
C1981 C1983 1.388 . S
C1982 C1981 1.366 . S
C1982 C1986 1.385 . S
C1983 H1958 0.951 . S
C1983 C1981 1.388 . S
C1983 C1984 1.366 . S
C1984 C1983 1.366 . S
C1984 C1985 1.414 . S
C1984 C1987 1.499 . S
C1985 H1959 0.950 . S
C1985 C1984 1.414 . S
C1985 C1986 1.374 . S
C1986 H1960 0.950 . S
C1986 C1982 1.385 . S
C1986 C1985 1.374 . S
C1987 C1984 1.499 . S
C1987 C1988 1.373 . S
C1987 C1989 1.389 . S
C1988 H1961 0.950 . S
C1988 C1974 1.377 . S
C1988 C1987 1.373 . S
C1989 C1973 1.377 . S
C1989 C1987 1.389 . S
C1989 C1990 1.524 . S
C1990 C1989 1.524 . S
C1990 C1991 1.397 . S
C1990 C1995 1.363 . S
C1991 H1962 0.950 . S
C1991 C1990 1.397 . S
C1991 C1992 1.334 . S
C1992 H1963 0.950 . S
C1992 C1991 1.334 . S
C1992 C1993 1.287 . S
C1993 C1992 1.287 . S
C1993 C1994 1.524 . S
C1993 H1996 0.999 . S
C1994 H1964 0.950 . S
C1994 C1993 1.524 . S
C1994 C1995 1.415 . S
C1995 H1965 0.950 . S
C1995 C1990 1.363 . S
C1995 C1994 1.415 . S
H1996 C1993 0.999 . S
H1997 C1978 0.913 . S
H1998 C2016 0.951 . S
H1999 C2018 0.951 . S
H2000 C2020 0.950 . S
H2001 C2021 0.950 . S
H2002 C2023 0.950 . S
H2003 C2026 0.950 . S
H2004 C2027 0.950 . S
H2005 C2029 0.950 . S
H2006 C2030 0.950 . S
H2007 C2031 0.951 . S
H2008 C2033 0.951 . S
H2009 C2035 0.950 . S
H2010 C2036 0.950 . S
H2011 C2038 0.950 . S
H2012 C2041 0.950 . S
H2013 C2042 0.950 . S
H2014 C2044 0.950 . S
H2015 C2045 0.950 . S
C2016 H1998 0.951 . S
C2016 C2017 1.366 . S
C2016 C2018 1.388 . S
C2017 C2016 1.366 . S
C2017 C2021 1.385 . S
C2018 H1999 0.951 . S
C2018 C2016 1.388 . S
C2018 C2019 1.366 . S
C2019 C2018 1.366 . S
C2019 C2020 1.414 . S
C2019 C2022 1.499 . S
C2020 H2000 0.950 . S
C2020 C2019 1.414 . S
C2020 C2021 1.374 . S
C2021 H2001 0.950 . S
C2021 C2017 1.385 . S
C2021 C2020 1.374 . S
C2022 C2019 1.499 . S
C2022 C2023 1.373 . S
C2022 C2024 1.389 . S
C2023 H2002 0.950 . S
C2023 C2022 1.373 . S
C2023 C2039 1.377 . S
C2024 C2022 1.389 . S
C2024 C2025 1.524 . S
C2024 C2038 1.377 . S
C2025 C2024 1.524 . S
C2025 C2026 1.397 . S
C2025 C2030 1.363 . S
C2026 H2003 0.950 . S
C2026 C2025 1.397 . S
C2026 C2027 1.334 . S
C2027 H2004 0.950 . S
C2027 C2026 1.334 . S
C2027 C2028 1.287 . S
C2028 C2027 1.287 . S
C2028 C2029 1.524 . S
C2028 H2047 0.913 . S
C2029 H2005 0.950 . S
C2029 C2028 1.524 . S
C2029 C2030 1.415 . S
C2030 H2006 0.950 . S
C2030 C2025 1.363 . S
C2030 C2029 1.415 . S
C2031 H2007 0.951 . S
C2031 C2032 1.366 1_556 S
C2031 C2033 1.388 . S
C2032 C2031 1.366 1_554 S
C2032 C2036 1.385 . S
C2033 H2008 0.951 . S
C2033 C2031 1.388 . S
C2033 C2034 1.366 . S
C2034 C2033 1.366 . S
C2034 C2035 1.414 . S
C2034 C2037 1.499 . S
C2035 H2009 0.950 . S
C2035 C2034 1.414 . S
C2035 C2036 1.374 1_556 S
C2036 H2010 0.950 . S
C2036 C2032 1.385 . S
C2036 C2035 1.374 1_554 S
C2037 C2034 1.499 . S
C2037 C2038 1.373 . S
C2037 C2039 1.389 . S
C2038 H2011 0.950 . S
C2038 C2024 1.377 . S
C2038 C2037 1.373 . S
C2039 C2023 1.377 . S
C2039 C2037 1.389 . S
C2039 C2040 1.524 . S
C2040 C2039 1.524 . S
C2040 C2041 1.397 . S
C2040 C2045 1.363 . S
C2041 H2012 0.950 . S
C2041 C2040 1.397 . S
C2041 C2042 1.334 . S
C2042 H2013 0.950 . S
C2042 C2041 1.334 . S
C2042 C2043 1.287 . S
C2043 C2042 1.287 . S
C2043 C2044 1.524 . S
C2043 H2046 0.999 . S
C2044 H2014 0.950 . S
C2044 C2043 1.524 . S
C2044 C2045 1.415 . S
C2045 H2015 0.950 . S
C2045 C2040 1.363 . S
C2045 C2044 1.415 . S
H2046 C2043 0.999 . S
H2047 C2028 0.913 . S
H2048 C2066 0.951 . S
H2049 C2068 0.951 . S
H2050 C2070 0.950 . S
H2051 C2071 0.950 . S
H2052 C2073 0.950 . S
H2053 C2076 0.950 . S
H2054 C2077 0.950 . S
H2055 C2079 0.950 . S
H2056 C2080 0.950 . S
H2057 C2081 0.951 . S
H2058 C2083 0.951 . S
H2059 C2085 0.950 . S
H2060 C2086 0.950 . S
H2061 C2088 0.950 . S
H2062 C2091 0.950 . S
H2063 C2092 0.950 . S
H2064 C2094 0.950 . S
H2065 C2095 0.950 . S
C2066 H2048 0.951 . S
C2066 C2067 1.366 . S
C2066 C2068 1.388 . S
C2067 C2066 1.366 . S
C2067 C2071 1.385 . S
C2068 H2049 0.951 . S
C2068 C2066 1.388 . S
C2068 C2069 1.366 . S
C2069 C2068 1.366 . S
C2069 C2070 1.414 . S
C2069 C2072 1.499 . S
C2070 H2050 0.950 . S
C2070 C2069 1.414 . S
C2070 C2071 1.374 . S
C2071 H2051 0.950 . S
C2071 C2067 1.385 . S
C2071 C2070 1.374 . S
C2072 C2069 1.499 . S
C2072 C2073 1.373 . S
C2072 C2074 1.389 . S
C2073 H2052 0.950 . S
C2073 C2072 1.373 . S
C2073 C2089 1.377 . S
C2074 C2072 1.389 . S
C2074 C2075 1.524 . S
C2074 C2088 1.377 . S
C2075 C2074 1.524 . S
C2075 C2076 1.397 . S
C2075 C2080 1.363 . S
C2076 H2053 0.950 . S
C2076 C2075 1.397 . S
C2076 C2077 1.334 . S
C2077 H2054 0.950 . S
C2077 C2076 1.334 . S
C2077 C2078 1.287 . S
C2078 C2077 1.287 . S
C2078 C2079 1.524 . S
C2078 H2097 0.913 . S
C2079 H2055 0.950 . S
C2079 C2078 1.524 . S
C2079 C2080 1.415 . S
C2080 H2056 0.950 . S
C2080 C2075 1.363 . S
C2080 C2079 1.415 . S
C2081 H2057 0.951 . S
C2081 C2082 1.366 . S
C2081 C2083 1.388 . S
C2082 C2081 1.366 . S
C2082 C2086 1.385 . S
C2083 H2058 0.951 . S
C2083 C2081 1.388 . S
C2083 C2084 1.366 . S
C2084 C2083 1.366 . S
C2084 C2085 1.414 . S
C2084 C2087 1.499 . S
C2085 H2059 0.950 . S
C2085 C2084 1.414 . S
C2085 C2086 1.374 . S
C2086 H2060 0.950 . S
C2086 C2082 1.385 . S
C2086 C2085 1.374 . S
C2087 C2084 1.499 . S
C2087 C2088 1.373 . S
C2087 C2089 1.389 . S
C2088 H2061 0.950 . S
C2088 C2074 1.377 . S
C2088 C2087 1.373 . S
C2089 C2073 1.377 . S
C2089 C2087 1.389 . S
C2089 C2090 1.524 . S
C2090 C2089 1.524 . S
C2090 C2091 1.397 . S
C2090 C2095 1.363 . S
C2091 H2062 0.950 . S
C2091 C2090 1.397 . S
C2091 C2092 1.334 . S
C2092 H2063 0.950 . S
C2092 C2091 1.334 . S
C2092 C2093 1.287 . S
C2093 C2092 1.287 . S
C2093 C2094 1.524 . S
C2093 H2096 0.999 . S
C2094 H2064 0.950 . S
C2094 C2093 1.524 . S
C2094 C2095 1.415 . S
C2095 H2065 0.950 . S
C2095 C2090 1.363 . S
C2095 C2094 1.415 . S
H2096 C2093 0.999 . S
H2097 C2078 0.913 . S
H2098 C2116 0.951 . S
H2099 C2118 0.951 . S
H2100 C2120 0.950 . S
H2101 C2121 0.950 . S
H2102 C2123 0.950 . S
H2103 C2126 0.950 . S
H2104 C2127 0.950 . S
H2105 C2129 0.950 . S
H2106 C2130 0.950 . S
H2107 C2131 0.951 . S
H2108 C2133 0.951 . S
H2109 C2135 0.950 . S
H2110 C2136 0.950 . S
H2111 C2138 0.950 . S
H2112 C2141 0.950 . S
H2113 C2142 0.950 . S
H2114 C2144 0.950 . S
H2115 C2145 0.950 . S
C2116 H2098 0.951 . S
C2116 C2117 1.366 . S
C2116 C2118 1.388 . S
C2117 C2116 1.366 . S
C2117 C2121 1.385 . S
C2118 H2099 0.951 . S
C2118 C2116 1.388 . S
C2118 C2119 1.366 . S
C2119 C2118 1.366 . S
C2119 C2120 1.414 . S
C2119 C2122 1.499 . S
C2120 H2100 0.950 . S
C2120 C2119 1.414 . S
C2120 C2121 1.374 . S
C2121 H2101 0.950 . S
C2121 C2117 1.385 . S
C2121 C2120 1.374 . S
C2122 C2119 1.499 . S
C2122 C2123 1.373 . S
C2122 C2124 1.389 . S
C2123 H2102 0.950 . S
C2123 C2122 1.373 . S
C2123 C2139 1.377 1_655 S
C2124 C2122 1.389 . S
C2124 C2125 1.524 . S
C2124 C2138 1.377 1_655 S
C2125 C2124 1.524 . S
C2125 C2126 1.397 . S
C2125 C2130 1.363 . S
C2126 H2103 0.950 . S
C2126 C2125 1.397 . S
C2126 C2127 1.334 . S
C2127 H2104 0.950 . S
C2127 C2126 1.334 . S
C2127 C2128 1.287 . S
C2128 C2127 1.287 . S
C2128 C2129 1.524 . S
C2128 H2147 0.913 . S
C2129 H2105 0.950 . S
C2129 C2128 1.524 . S
C2129 C2130 1.415 . S
C2130 H2106 0.950 . S
C2130 C2125 1.363 . S
C2130 C2129 1.415 . S
C2131 H2107 0.951 . S
C2131 C2132 1.366 . S
C2131 C2133 1.388 . S
C2132 C2131 1.366 . S
C2132 C2136 1.385 . S
C2133 H2108 0.951 . S
C2133 C2131 1.388 . S
C2133 C2134 1.366 . S
C2134 C2133 1.366 . S
C2134 C2135 1.414 . S
C2134 C2137 1.499 . S
C2135 H2109 0.950 . S
C2135 C2134 1.414 . S
C2135 C2136 1.374 . S
C2136 H2110 0.950 . S
C2136 C2132 1.385 . S
C2136 C2135 1.374 . S
C2137 C2134 1.499 . S
C2137 C2138 1.373 . S
C2137 C2139 1.389 . S
C2138 H2111 0.950 . S
C2138 C2124 1.377 1_455 S
C2138 C2137 1.373 . S
C2139 C2123 1.377 1_455 S
C2139 C2137 1.389 . S
C2139 C2140 1.524 . S
C2140 C2139 1.524 . S
C2140 C2141 1.397 . S
C2140 C2145 1.363 . S
C2141 H2112 0.950 . S
C2141 C2140 1.397 . S
C2141 C2142 1.334 . S
C2142 H2113 0.950 . S
C2142 C2141 1.334 . S
C2142 C2143 1.287 . S
C2143 C2142 1.287 . S
C2143 C2144 1.524 . S
C2143 H2146 0.999 . S
C2144 H2114 0.950 . S
C2144 C2143 1.524 . S
C2144 C2145 1.415 . S
C2145 H2115 0.950 . S
C2145 C2140 1.363 . S
C2145 C2144 1.415 . S
H2146 C2143 0.999 . S
H2147 C2128 0.913 . S
H2148 C2166 0.951 . S
H2149 C2168 0.951 . S
H2150 C2170 0.950 . S
H2151 C2171 0.950 . S
H2152 C2173 0.950 . S
H2153 C2176 0.950 . S
H2154 C2177 0.950 . S
H2155 C2179 0.950 . S
H2156 C2180 0.950 . S
H2157 C2181 0.951 . S
H2158 C2183 0.951 . S
H2159 C2185 0.950 . S
H2160 C2186 0.950 . S
H2161 C2188 0.950 . S
H2162 C2191 0.950 . S
H2163 C2192 0.950 . S
H2164 C2194 0.950 . S
H2165 C2195 0.950 . S
C2166 H2148 0.951 . S
C2166 C2167 1.366 . S
C2166 C2168 1.388 . S
C2167 C2166 1.366 . S
C2167 C2171 1.385 . S
C2168 H2149 0.951 . S
C2168 C2166 1.388 . S
C2168 C2169 1.366 . S
C2169 C2168 1.366 . S
C2169 C2170 1.414 . S
C2169 C2172 1.499 . S
C2170 H2150 0.950 . S
C2170 C2169 1.414 . S
C2170 C2171 1.374 . S
C2171 H2151 0.950 . S
C2171 C2167 1.385 . S
C2171 C2170 1.374 . S
C2172 C2169 1.499 . S
C2172 C2173 1.373 . S
C2172 C2174 1.389 . S
C2173 H2152 0.950 . S
C2173 C2172 1.373 . S
C2173 C2189 1.377 . S
C2174 C2172 1.389 . S
C2174 C2175 1.524 . S
C2174 C2188 1.377 . S
C2175 C2174 1.524 . S
C2175 C2176 1.397 . S
C2175 C2180 1.363 . S
C2176 H2153 0.950 . S
C2176 C2175 1.397 . S
C2176 C2177 1.334 . S
C2177 H2154 0.950 . S
C2177 C2176 1.334 . S
C2177 C2178 1.287 . S
C2178 C2177 1.287 . S
C2178 C2179 1.524 . S
C2178 H2197 0.913 . S
C2179 H2155 0.950 . S
C2179 C2178 1.524 . S
C2179 C2180 1.415 . S
C2180 H2156 0.950 . S
C2180 C2175 1.363 . S
C2180 C2179 1.415 . S
C2181 H2157 0.951 . S
C2181 C2182 1.366 . S
C2181 C2183 1.388 . S
C2182 C2181 1.366 . S
C2182 C2186 1.385 . S
C2183 H2158 0.951 . S
C2183 C2181 1.388 . S
C2183 C2184 1.366 . S
C2184 C2183 1.366 . S
C2184 C2185 1.414 . S
C2184 C2187 1.499 . S
C2185 H2159 0.950 . S
C2185 C2184 1.414 . S
C2185 C2186 1.374 . S
C2186 H2160 0.950 . S
C2186 C2182 1.385 . S
C2186 C2185 1.374 . S
C2187 C2184 1.499 . S
C2187 C2188 1.373 . S
C2187 C2189 1.389 . S
C2188 H2161 0.950 . S
C2188 C2174 1.377 . S
C2188 C2187 1.373 . S
C2189 C2173 1.377 . S
C2189 C2187 1.389 . S
C2189 C2190 1.524 . S
C2190 C2189 1.524 . S
C2190 C2191 1.397 . S
C2190 C2195 1.363 . S
C2191 H2162 0.950 . S
C2191 C2190 1.397 . S
C2191 C2192 1.334 . S
C2192 H2163 0.950 . S
C2192 C2191 1.334 . S
C2192 C2193 1.287 . S
C2193 C2192 1.287 . S
C2193 C2194 1.524 . S
C2193 H2196 0.999 . S
C2194 H2164 0.950 . S
C2194 C2193 1.524 . S
C2194 C2195 1.415 . S
C2195 H2165 0.950 . S
C2195 C2190 1.363 . S
C2195 C2194 1.415 . S
H2196 C2193 0.999 . S
H2197 C2178 0.913 . S
H2198 C2216 0.951 . S
H2199 C2218 0.951 . S
H2200 C2220 0.950 . S
H2201 C2221 0.950 . S
H2202 C2223 0.950 . S
H2203 C2226 0.950 . S
H2204 C2227 0.950 . S
H2205 C2229 0.950 . S
H2206 C2230 0.950 . S
H2207 C2231 0.951 . S
H2208 C2233 0.951 . S
H2209 C2235 0.950 . S
H2210 C2236 0.950 . S
H2211 C2238 0.950 . S
H2212 C2241 0.950 . S
H2213 C2242 0.950 1_554 S
H2214 C2244 0.950 . S
H2215 C2245 0.950 . S
C2216 H2198 0.951 . S
C2216 C2217 1.366 . S
C2216 C2218 1.388 . S
C2217 C2216 1.366 . S
C2217 C2221 1.385 . S
C2218 H2199 0.951 . S
C2218 C2216 1.388 . S
C2218 C2219 1.366 . S
C2219 C2218 1.366 . S
C2219 C2220 1.414 . S
C2219 C2222 1.499 . S
C2220 H2200 0.950 . S
C2220 C2219 1.414 . S
C2220 C2221 1.374 . S
C2221 H2201 0.950 . S
C2221 C2217 1.385 . S
C2221 C2220 1.374 . S
C2222 C2219 1.499 . S
C2222 C2223 1.373 . S
C2222 C2224 1.389 . S
C2223 H2202 0.950 . S
C2223 C2222 1.373 . S
C2223 C2239 1.377 . S
C2224 C2222 1.389 . S
C2224 C2225 1.524 . S
C2224 C2238 1.377 . S
C2225 C2224 1.524 . S
C2225 C2226 1.397 . S
C2225 C2230 1.363 . S
C2226 H2203 0.950 . S
C2226 C2225 1.397 . S
C2226 C2227 1.334 . S
C2227 H2204 0.950 . S
C2227 C2226 1.334 . S
C2227 C2228 1.287 . S
C2228 C2227 1.287 . S
C2228 C2229 1.524 . S
C2228 H2247 0.913 . S
C2229 H2205 0.950 . S
C2229 C2228 1.524 . S
C2229 C2230 1.415 . S
C2230 H2206 0.950 . S
C2230 C2225 1.363 . S
C2230 C2229 1.415 . S
C2231 H2207 0.951 . S
C2231 C2232 1.366 . S
C2231 C2233 1.388 . S
C2232 C2231 1.366 . S
C2232 C2236 1.385 . S
C2233 H2208 0.951 . S
C2233 C2231 1.388 . S
C2233 C2234 1.366 . S
C2234 C2233 1.366 . S
C2234 C2235 1.414 . S
C2234 C2237 1.499 . S
C2235 H2209 0.950 . S
C2235 C2234 1.414 . S
C2235 C2236 1.374 . S
C2236 H2210 0.950 . S
C2236 C2232 1.385 . S
C2236 C2235 1.374 . S
C2237 C2234 1.499 . S
C2237 C2238 1.373 . S
C2237 C2239 1.389 . S
C2238 H2211 0.950 . S
C2238 C2224 1.377 . S
C2238 C2237 1.373 . S
C2239 C2223 1.377 . S
C2239 C2237 1.389 . S
C2239 C2240 1.524 . S
C2240 C2239 1.524 . S
C2240 C2241 1.397 . S
C2240 C2245 1.363 . S
C2241 H2212 0.950 . S
C2241 C2240 1.397 . S
C2241 C2242 1.334 . S
C2242 H2213 0.950 1_556 S
C2242 C2241 1.334 . S
C2242 C2243 1.287 1_556 S
C2243 C2242 1.287 1_554 S
C2243 C2244 1.524 . S
C2243 H2246 0.999 . S
C2244 H2214 0.950 . S
C2244 C2243 1.524 . S
C2244 C2245 1.415 1_554 S
C2245 H2215 0.950 . S
C2245 C2240 1.363 . S
C2245 C2244 1.415 1_556 S
H2246 C2243 0.999 . S
H2247 C2228 0.913 . S
H2248 C2266 0.951 . S
H2249 C2268 0.951 . S
H2250 C2270 0.950 . S
H2251 C2271 0.950 . S
H2252 C2273 0.950 . S
H2253 C2276 0.950 . S
H2254 C2277 0.950 . S
H2255 C2279 0.950 . S
H2256 C2280 0.950 . S
H2257 C2281 0.951 . S
H2258 C2283 0.951 . S
H2259 C2285 0.950 . S
H2260 C2286 0.950 . S
H2261 C2288 0.950 . S
H2262 C2291 0.950 . S
H2263 C2292 0.950 . S
H2264 C2294 0.950 . S
H2265 C2295 0.950 . S
C2266 H2248 0.951 . S
C2266 C2267 1.366 . S
C2266 C2268 1.388 . S
C2267 C2266 1.366 . S
C2267 C2271 1.385 . S
C2268 H2249 0.951 . S
C2268 C2266 1.388 . S
C2268 C2269 1.366 . S
C2269 C2268 1.366 . S
C2269 C2270 1.414 . S
C2269 C2272 1.499 . S
C2270 H2250 0.950 . S
C2270 C2269 1.414 . S
C2270 C2271 1.374 . S
C2271 H2251 0.950 . S
C2271 C2267 1.385 . S
C2271 C2270 1.374 . S
C2272 C2269 1.499 . S
C2272 C2273 1.373 . S
C2272 C2274 1.389 . S
C2273 H2252 0.950 . S
C2273 C2272 1.373 . S
C2273 C2289 1.377 . S
C2274 C2272 1.389 . S
C2274 C2275 1.524 . S
C2274 C2288 1.377 . S
C2275 C2274 1.524 . S
C2275 C2276 1.397 . S
C2275 C2280 1.363 . S
C2276 H2253 0.950 . S
C2276 C2275 1.397 . S
C2276 C2277 1.334 . S
C2277 H2254 0.950 . S
C2277 C2276 1.334 . S
C2277 C2278 1.287 . S
C2278 C2277 1.287 . S
C2278 C2279 1.524 . S
C2278 H2297 0.913 . S
C2279 H2255 0.950 . S
C2279 C2278 1.524 . S
C2279 C2280 1.415 . S
C2280 H2256 0.950 . S
C2280 C2275 1.363 . S
C2280 C2279 1.415 . S
C2281 H2257 0.951 . S
C2281 C2282 1.366 . S
C2281 C2283 1.388 . S
C2282 C2281 1.366 . S
C2282 C2286 1.385 . S
C2283 H2258 0.951 . S
C2283 C2281 1.388 . S
C2283 C2284 1.366 . S
C2284 C2283 1.366 . S
C2284 C2285 1.414 . S
C2284 C2287 1.499 . S
C2285 H2259 0.950 . S
C2285 C2284 1.414 . S
C2285 C2286 1.374 . S
C2286 H2260 0.950 . S
C2286 C2282 1.385 . S
C2286 C2285 1.374 . S
C2287 C2284 1.499 . S
C2287 C2288 1.373 . S
C2287 C2289 1.389 . S
C2288 H2261 0.950 . S
C2288 C2274 1.377 . S
C2288 C2287 1.373 . S
C2289 C2273 1.377 . S
C2289 C2287 1.389 . S
C2289 C2290 1.524 . S
C2290 C2289 1.524 . S
C2290 C2291 1.397 . S
C2290 C2295 1.363 . S
C2291 H2262 0.950 . S
C2291 C2290 1.397 . S
C2291 C2292 1.334 1_556 S
C2292 H2263 0.950 . S
C2292 C2291 1.334 1_554 S
C2292 C2293 1.287 . S
C2293 C2292 1.287 . S
C2293 C2294 1.524 1_554 S
C2293 H2296 0.999 . S
C2294 H2264 0.950 . S
C2294 C2293 1.524 1_556 S
C2294 C2295 1.415 . S
C2295 H2265 0.950 . S
C2295 C2290 1.363 . S
C2295 C2294 1.415 . S
H2296 C2293 0.999 . S
H2297 C2278 0.913 . S
H2298 C2316 0.951 . S
H2299 C2318 0.951 . S
H2300 C2320 0.950 . S
H2301 C2321 0.950 . S
H2302 C2323 0.950 . S
H2303 C2326 0.950 . S
H2304 C2327 0.950 1_556 S
H2305 C2329 0.950 . S
H2306 C2330 0.950 . S
H2307 C2331 0.951 . S
H2308 C2333 0.951 . S
H2309 C2335 0.950 . S
H2310 C2336 0.950 . S
H2311 C2338 0.950 . S
H2312 C2341 0.950 . S
H2313 C2342 0.950 . S
H2314 C2344 0.950 . S
H2315 C2345 0.950 . S
C2316 H2298 0.951 . S
C2316 C2317 1.366 . S
C2316 C2318 1.388 . S
C2317 C2316 1.366 . S
C2317 C2321 1.385 . S
C2318 H2299 0.951 . S
C2318 C2316 1.388 . S
C2318 C2319 1.366 . S
C2319 C2318 1.366 . S
C2319 C2320 1.414 . S
C2319 C2322 1.499 . S
C2320 H2300 0.950 . S
C2320 C2319 1.414 . S
C2320 C2321 1.374 . S
C2321 H2301 0.950 . S
C2321 C2317 1.385 . S
C2321 C2320 1.374 . S
C2322 C2319 1.499 . S
C2322 C2323 1.373 . S
C2322 C2324 1.389 . S
C2323 H2302 0.950 . S
C2323 C2322 1.373 . S
C2323 C2339 1.377 . S
C2324 C2322 1.389 . S
C2324 C2325 1.524 . S
C2324 C2338 1.377 . S
C2325 C2324 1.524 . S
C2325 C2326 1.397 . S
C2325 C2330 1.363 . S
C2326 H2303 0.950 . S
C2326 C2325 1.397 . S
C2326 C2327 1.334 . S
C2327 H2304 0.950 1_554 S
C2327 C2326 1.334 . S
C2327 C2328 1.287 1_554 S
C2328 C2327 1.287 1_556 S
C2328 C2329 1.524 . S
C2328 H2347 0.913 . S
C2329 H2305 0.950 . S
C2329 C2328 1.524 . S
C2329 C2330 1.415 1_556 S
C2330 H2306 0.950 . S
C2330 C2325 1.363 . S
C2330 C2329 1.415 1_554 S
C2331 H2307 0.951 . S
C2331 C2332 1.366 . S
C2331 C2333 1.388 . S
C2332 C2331 1.366 . S
C2332 C2336 1.385 . S
C2333 H2308 0.951 . S
C2333 C2331 1.388 . S
C2333 C2334 1.366 . S
C2334 C2333 1.366 . S
C2334 C2335 1.414 . S
C2334 C2337 1.499 . S
C2335 H2309 0.950 . S
C2335 C2334 1.414 . S
C2335 C2336 1.374 . S
C2336 H2310 0.950 . S
C2336 C2332 1.385 . S
C2336 C2335 1.374 . S
C2337 C2334 1.499 . S
C2337 C2338 1.373 . S
C2337 C2339 1.389 . S
C2338 H2311 0.950 . S
C2338 C2324 1.377 . S
C2338 C2337 1.373 . S
C2339 C2323 1.377 . S
C2339 C2337 1.389 . S
C2339 C2340 1.524 . S
C2340 C2339 1.524 . S
C2340 C2341 1.397 . S
C2340 C2345 1.363 . S
C2341 H2312 0.950 . S
C2341 C2340 1.397 . S
C2341 C2342 1.334 . S
C2342 H2313 0.950 . S
C2342 C2341 1.334 . S
C2342 C2343 1.287 . S
C2343 C2342 1.287 . S
C2343 C2344 1.524 . S
C2343 H2346 0.999 . S
C2344 H2314 0.950 . S
C2344 C2343 1.524 . S
C2344 C2345 1.415 . S
C2345 H2315 0.950 . S
C2345 C2340 1.363 . S
C2345 C2344 1.415 . S
H2346 C2343 0.999 . S
H2347 C2328 0.913 . S
H2348 C2366 0.951 . S
H2349 C2368 0.951 . S
H2350 C2370 0.950 . S
H2351 C2371 0.950 . S
H2352 C2373 0.950 . S
H2353 C2376 0.950 . S
H2354 C2377 0.950 . S
H2355 C2379 0.950 . S
H2356 C2380 0.950 . S
H2357 C2381 0.951 . S
H2358 C2383 0.951 . S
H2359 C2385 0.950 . S
H2360 C2386 0.950 . S
H2361 C2388 0.950 . S
H2362 C2391 0.950 . S
H2363 C2392 0.950 . S
H2364 C2394 0.950 . S
H2365 C2395 0.950 . S
C2366 H2348 0.951 . S
C2366 C2367 1.366 . S
C2366 C2368 1.388 . S
C2367 C2366 1.366 . S
C2367 C2371 1.385 . S
C2368 H2349 0.951 . S
C2368 C2366 1.388 . S
C2368 C2369 1.366 . S
C2369 C2368 1.366 . S
C2369 C2370 1.414 . S
C2369 C2372 1.499 . S
C2370 H2350 0.950 . S
C2370 C2369 1.414 . S
C2370 C2371 1.374 . S
C2371 H2351 0.950 . S
C2371 C2367 1.385 . S
C2371 C2370 1.374 . S
C2372 C2369 1.499 . S
C2372 C2373 1.373 . S
C2372 C2374 1.389 . S
C2373 H2352 0.950 . S
C2373 C2372 1.373 . S
C2373 C2389 1.377 . S
C2374 C2372 1.389 . S
C2374 C2375 1.524 . S
C2374 C2388 1.377 . S
C2375 C2374 1.524 . S
C2375 C2376 1.397 . S
C2375 C2380 1.363 . S
C2376 H2353 0.950 . S
C2376 C2375 1.397 . S
C2376 C2377 1.334 . S
C2377 H2354 0.950 . S
C2377 C2376 1.334 . S
C2377 C2378 1.287 . S
C2378 C2377 1.287 . S
C2378 C2379 1.524 . S
C2378 H2397 0.913 . S
C2379 H2355 0.950 . S
C2379 C2378 1.524 . S
C2379 C2380 1.415 . S
C2380 H2356 0.950 . S
C2380 C2375 1.363 . S
C2380 C2379 1.415 . S
C2381 H2357 0.951 . S
C2381 C2382 1.366 . S
C2381 C2383 1.388 . S
C2382 C2381 1.366 . S
C2382 C2386 1.385 . S
C2383 H2358 0.951 . S
C2383 C2381 1.388 . S
C2383 C2384 1.366 . S
C2384 C2383 1.366 . S
C2384 C2385 1.414 . S
C2384 C2387 1.499 . S
C2385 H2359 0.950 . S
C2385 C2384 1.414 . S
C2385 C2386 1.374 . S
C2386 H2360 0.950 . S
C2386 C2382 1.385 . S
C2386 C2385 1.374 . S
C2387 C2384 1.499 . S
C2387 C2388 1.373 . S
C2387 C2389 1.389 . S
C2388 H2361 0.950 . S
C2388 C2374 1.377 . S
C2388 C2387 1.373 . S
C2389 C2373 1.377 . S
C2389 C2387 1.389 . S
C2389 C2390 1.524 . S
C2390 C2389 1.524 . S
C2390 C2391 1.397 . S
C2390 C2395 1.363 . S
C2391 H2362 0.950 . S
C2391 C2390 1.397 . S
C2391 C2392 1.334 . S
C2392 H2363 0.950 . S
C2392 C2391 1.334 . S
C2392 C2393 1.287 . S
C2393 C2392 1.287 . S
C2393 C2394 1.524 . S
C2393 H2396 0.999 . S
C2394 H2364 0.950 . S
C2394 C2393 1.524 . S
C2394 C2395 1.415 . S
C2395 H2365 0.950 . S
C2395 C2390 1.363 . S
C2395 C2394 1.415 . S
H2396 C2393 0.999 . S
H2397 C2378 0.913 . S
H2398 C2416 0.951 . S
H2399 C2418 0.951 . S
H2400 C2420 0.950 . S
H2401 C2421 0.950 . S
H2402 C2423 0.950 . S
H2403 C2426 0.950 . S
H2404 C2427 0.950 . S
H2405 C2429 0.950 . S
H2406 C2430 0.950 . S
H2407 C2431 0.951 . S
H2408 C2433 0.951 . S
H2409 C2435 0.950 . S
H2410 C2436 0.950 . S
H2411 C2438 0.950 . S
H2412 C2441 0.950 . S
H2413 C2442 0.950 . S
H2414 C2444 0.950 . S
H2415 C2445 0.950 . S
C2416 H2398 0.951 . S
C2416 C2417 1.366 . S
C2416 C2418 1.388 . S
C2417 C2416 1.366 . S
C2417 C2421 1.385 . S
C2418 H2399 0.951 . S
C2418 C2416 1.388 . S
C2418 C2419 1.366 . S
C2419 C2418 1.366 . S
C2419 C2420 1.414 . S
C2419 C2422 1.499 . S
C2420 H2400 0.950 . S
C2420 C2419 1.414 . S
C2420 C2421 1.374 . S
C2421 H2401 0.950 . S
C2421 C2417 1.385 . S
C2421 C2420 1.374 . S
C2422 C2419 1.499 . S
C2422 C2423 1.373 . S
C2422 C2424 1.389 . S
C2423 H2402 0.950 . S
C2423 C2422 1.373 . S
C2423 C2439 1.377 1_655 S
C2424 C2422 1.389 . S
C2424 C2425 1.524 . S
C2424 C2438 1.377 1_655 S
C2425 C2424 1.524 . S
C2425 C2426 1.397 . S
C2425 C2430 1.363 . S
C2426 H2403 0.950 . S
C2426 C2425 1.397 . S
C2426 C2427 1.334 . S
C2427 H2404 0.950 . S
C2427 C2426 1.334 . S
C2427 C2428 1.287 . S
C2428 C2427 1.287 . S
C2428 C2429 1.524 . S
C2428 H2447 0.913 . S
C2429 H2405 0.950 . S
C2429 C2428 1.524 . S
C2429 C2430 1.415 . S
C2430 H2406 0.950 . S
C2430 C2425 1.363 . S
C2430 C2429 1.415 . S
C2431 H2407 0.951 . S
C2431 C2432 1.366 . S
C2431 C2433 1.388 . S
C2432 C2431 1.366 . S
C2432 C2436 1.385 . S
C2433 H2408 0.951 . S
C2433 C2431 1.388 . S
C2433 C2434 1.366 . S
C2434 C2433 1.366 . S
C2434 C2435 1.414 . S
C2434 C2437 1.499 . S
C2435 H2409 0.950 . S
C2435 C2434 1.414 . S
C2435 C2436 1.374 . S
C2436 H2410 0.950 . S
C2436 C2432 1.385 . S
C2436 C2435 1.374 . S
C2437 C2434 1.499 . S
C2437 C2438 1.373 . S
C2437 C2439 1.389 . S
C2438 H2411 0.950 . S
C2438 C2424 1.377 1_455 S
C2438 C2437 1.373 . S
C2439 C2423 1.377 1_455 S
C2439 C2437 1.389 . S
C2439 C2440 1.524 . S
C2440 C2439 1.524 . S
C2440 C2441 1.397 . S
C2440 C2445 1.363 . S
C2441 H2412 0.950 . S
C2441 C2440 1.397 . S
C2441 C2442 1.334 . S
C2442 H2413 0.950 . S
C2442 C2441 1.334 . S
C2442 C2443 1.287 . S
C2443 C2442 1.287 . S
C2443 C2444 1.524 . S
C2443 H2446 0.999 . S
C2444 H2414 0.950 . S
C2444 C2443 1.524 . S
C2444 C2445 1.415 . S
C2445 H2415 0.950 . S
C2445 C2440 1.363 . S
C2445 C2444 1.415 . S
H2446 C2443 0.999 . S
H2447 C2428 0.913 . S
H2448 C2466 0.951 . S
H2449 C2468 0.951 . S
H2450 C2470 0.950 . S
H2451 C2471 0.950 . S
H2452 C2473 0.950 . S
H2453 C2476 0.950 . S
H2454 C2477 0.950 . S
H2455 C2479 0.950 . S
H2456 C2480 0.950 . S
H2457 C2481 0.951 . S
H2458 C2483 0.951 . S
H2459 C2485 0.950 . S
H2460 C2486 0.950 . S
H2461 C2488 0.950 . S
H2462 C2491 0.950 . S
H2463 C2492 0.950 . S
H2464 C2494 0.950 . S
H2465 C2495 0.954 . S
C2466 H2448 0.951 . S
C2466 C2467 1.366 . S
C2466 C2468 1.388 . S
C2467 C2466 1.366 . S
C2467 C2471 1.385 . S
C2468 H2449 0.951 . S
C2468 C2466 1.388 . S
C2468 C2469 1.366 . S
C2469 C2468 1.366 . S
C2469 C2470 1.414 . S
C2469 C2472 1.499 . S
C2470 H2450 0.950 . S
C2470 C2469 1.414 . S
C2470 C2471 1.374 . S
C2471 H2451 0.950 . S
C2471 C2467 1.385 . S
C2471 C2470 1.374 . S
C2472 C2469 1.499 . S
C2472 C2473 1.373 . S
C2472 C2474 1.389 . S
C2473 H2452 0.950 . S
C2473 C2472 1.373 . S
C2473 C2489 1.377 . S
C2474 C2472 1.389 . S
C2474 C2475 1.524 . S
C2474 C2488 1.377 . S
C2475 C2474 1.524 . S
C2475 C2476 1.397 . S
C2475 C2480 1.363 . S
C2476 H2453 0.950 . S
C2476 C2475 1.397 . S
C2476 C2477 1.334 . S
C2477 H2454 0.950 . S
C2477 C2476 1.334 . S
C2477 C2478 1.287 . S
C2478 C2477 1.287 . S
C2478 C2479 1.524 . S
C2478 H2497 0.913 . S
C2479 H2455 0.950 . S
C2479 C2478 1.524 . S
C2479 C2480 1.415 . S
C2480 H2456 0.950 . S
C2480 C2475 1.363 . S
C2480 C2479 1.415 . S
C2481 H2457 0.951 . S
C2481 C2482 1.366 . S
C2481 C2483 1.388 . S
C2482 C2481 1.366 . S
C2482 C2486 1.385 . S
C2483 H2458 0.951 . S
C2483 C2481 1.388 . S
C2483 C2484 1.366 . S
C2484 C2483 1.366 . S
C2484 C2485 1.414 . S
C2484 C2487 1.499 . S
C2485 H2459 0.950 . S
C2485 C2484 1.414 . S
C2485 C2486 1.374 . S
C2486 H2460 0.950 . S
C2486 C2482 1.385 . S
C2486 C2485 1.374 . S
C2487 C2484 1.499 . S
C2487 C2488 1.373 . S
C2487 C2489 1.389 . S
C2488 H2461 0.950 . S
C2488 C2474 1.377 . S
C2488 C2487 1.373 . S
C2489 C2473 1.377 . S
C2489 C2487 1.389 . S
C2489 C2490 1.524 . S
C2490 C2489 1.524 . S
C2490 C2491 1.397 . S
C2490 C2495 1.348 1_556 S
C2491 H2462 0.950 . S
C2491 C2490 1.397 . S
C2491 C2492 1.334 . S
C2492 H2463 0.950 . S
C2492 C2491 1.334 . S
C2492 C2493 1.287 1_556 S
C2493 C2492 1.287 1_554 S
C2493 C2494 1.524 . S
C2493 H2496 0.999 . S
C2494 H2464 0.950 . S
C2494 C2493 1.524 . S
C2494 C2495 1.426 . S
C2495 H2465 0.954 . S
C2495 C2490 1.348 1_554 S
C2495 C2494 1.426 . S
H2496 C2493 0.999 . S
H2497 C2478 0.913 . S
H2498 C2516 0.951 . S
H2499 C2518 0.951 . S
H2500 C2520 0.950 . S
H2501 C2521 0.950 . S
H2502 C2523 0.950 . S
H2503 C2526 0.950 . S
H2504 C2527 0.950 . S
H2505 C2529 0.950 . S
H2506 C2530 0.950 . S
H2507 C2531 0.951 . S
H2508 C2533 0.951 . S
H2509 C2535 0.950 . S
H2510 C2536 0.950 . S
H2511 C2538 0.950 . S
H2512 C2541 0.950 . S
H2513 C2542 0.950 . S
H2514 C2544 0.950 . S
H2515 C2545 0.950 . S
C2516 H2498 0.951 . S
C2516 C2517 1.366 . S
C2516 C2518 1.388 . S
C2517 C2516 1.366 . S
C2517 C2521 1.385 . S
C2518 H2499 0.951 . S
C2518 C2516 1.388 . S
C2518 C2519 1.366 . S
C2519 C2518 1.366 . S
C2519 C2520 1.414 . S
C2519 C2522 1.499 . S
C2520 H2500 0.950 . S
C2520 C2519 1.414 . S
C2520 C2521 1.374 . S
C2521 H2501 0.950 . S
C2521 C2517 1.385 . S
C2521 C2520 1.374 . S
C2522 C2519 1.499 . S
C2522 C2523 1.373 . S
C2522 C2524 1.389 . S
C2523 H2502 0.950 . S
C2523 C2522 1.373 . S
C2523 C2539 1.377 . S
C2524 C2522 1.389 . S
C2524 C2525 1.524 . S
C2524 C2538 1.377 . S
C2525 C2524 1.524 . S
C2525 C2526 1.397 . S
C2525 C2530 1.363 . S
C2526 H2503 0.950 . S
C2526 C2525 1.397 . S
C2526 C2527 1.334 . S
C2527 H2504 0.950 . S
C2527 C2526 1.334 . S
C2527 C2528 1.287 . S
C2528 C2527 1.287 . S
C2528 C2529 1.524 . S
C2528 H2547 0.913 . S
C2529 H2505 0.950 . S
C2529 C2528 1.524 . S
C2529 C2530 1.415 . S
C2530 H2506 0.950 . S
C2530 C2525 1.363 . S
C2530 C2529 1.415 . S
C2531 H2507 0.951 . S
C2531 C2532 1.366 . S
C2531 C2533 1.388 . S
C2532 C2531 1.366 . S
C2532 C2536 1.385 . S
C2533 H2508 0.951 . S
C2533 C2531 1.388 . S
C2533 C2534 1.366 . S
C2534 C2533 1.366 . S
C2534 C2535 1.414 . S
C2534 C2537 1.499 . S
C2535 H2509 0.950 . S
C2535 C2534 1.414 . S
C2535 C2536 1.374 . S
C2536 H2510 0.950 . S
C2536 C2532 1.385 . S
C2536 C2535 1.374 . S
C2537 C2534 1.499 . S
C2537 C2538 1.373 . S
C2537 C2539 1.389 . S
C2538 H2511 0.950 . S
C2538 C2524 1.377 . S
C2538 C2537 1.373 . S
C2539 C2523 1.377 . S
C2539 C2537 1.389 . S
C2539 C2540 1.524 . S
C2540 C2539 1.524 . S
C2540 C2541 1.397 . S
C2540 C2545 1.363 . S
C2541 H2512 0.950 . S
C2541 C2540 1.397 . S
C2541 C2542 1.334 . S
C2542 H2513 0.950 . S
C2542 C2541 1.334 . S
C2542 C2543 1.287 . S
C2543 C2542 1.287 . S
C2543 C2544 1.524 . S
C2543 H2546 0.999 . S
C2544 H2514 0.950 . S
C2544 C2543 1.524 . S
C2544 C2545 1.415 . S
C2545 H2515 0.950 . S
C2545 C2540 1.363 . S
C2545 C2544 1.415 . S
H2546 C2543 0.999 . S
H2547 C2528 0.913 . S
H2548 C2566 0.951 . S
H2549 C2568 0.951 . S
H2550 C2570 0.950 . S
H2551 C2571 0.950 . S
H2552 C2573 0.950 . S
H2553 C2576 0.950 . S
H2554 C2577 0.950 . S
H2555 C2579 0.950 . S
H2556 C2580 0.950 1_554 S
H2557 C2581 0.951 . S
H2558 C2583 0.951 . S
H2559 C2585 0.950 . S
H2560 C2586 0.950 . S
H2561 C2588 0.950 . S
H2562 C2591 0.950 . S
H2563 C2592 0.950 . S
H2564 C2594 0.950 . S
H2565 C2595 0.950 . S
C2566 H2548 0.951 . S
C2566 C2567 1.366 . S
C2566 C2568 1.388 . S
C2567 C2566 1.366 . S
C2567 C2571 1.385 . S
C2568 H2549 0.951 . S
C2568 C2566 1.388 . S
C2568 C2569 1.366 . S
C2569 C2568 1.366 . S
C2569 C2570 1.414 . S
C2569 C2572 1.499 . S
C2570 H2550 0.950 . S
C2570 C2569 1.414 . S
C2570 C2571 1.374 . S
C2571 H2551 0.950 . S
C2571 C2567 1.385 . S
C2571 C2570 1.374 . S
C2572 C2569 1.499 . S
C2572 C2573 1.373 . S
C2572 C2574 1.389 . S
C2573 H2552 0.950 . S
C2573 C2572 1.373 . S
C2573 C2589 1.377 . S
C2574 C2572 1.389 . S
C2574 C2575 1.524 . S
C2574 C2588 1.377 . S
C2575 C2574 1.524 . S
C2575 C2576 1.397 . S
C2575 C2580 1.363 1_554 S
C2576 H2553 0.950 . S
C2576 C2575 1.397 . S
C2576 C2577 1.334 1_554 S
C2577 H2554 0.950 . S
C2577 C2576 1.334 1_556 S
C2577 C2578 1.287 . S
C2578 C2577 1.287 . S
C2578 C2579 1.524 . S
C2578 H2597 0.913 . S
C2579 H2555 0.950 . S
C2579 C2578 1.524 . S
C2579 C2580 1.415 . S
C2580 H2556 0.950 1_556 S
C2580 C2575 1.363 1_556 S
C2580 C2579 1.415 . S
C2581 H2557 0.951 . S
C2581 C2582 1.366 . S
C2581 C2583 1.388 . S
C2582 C2581 1.366 . S
C2582 C2586 1.385 . S
C2583 H2558 0.951 . S
C2583 C2581 1.388 . S
C2583 C2584 1.366 . S
C2584 C2583 1.366 . S
C2584 C2585 1.414 . S
C2584 C2587 1.499 . S
C2585 H2559 0.950 . S
C2585 C2584 1.414 . S
C2585 C2586 1.374 . S
C2586 H2560 0.950 . S
C2586 C2582 1.385 . S
C2586 C2585 1.374 . S
C2587 C2584 1.499 . S
C2587 C2588 1.373 . S
C2587 C2589 1.389 . S
C2588 H2561 0.950 . S
C2588 C2574 1.377 . S
C2588 C2587 1.373 . S
C2589 C2573 1.377 . S
C2589 C2587 1.389 . S
C2589 C2590 1.524 . S
C2590 C2589 1.524 . S
C2590 C2591 1.397 . S
C2590 C2595 1.363 . S
C2591 H2562 0.950 . S
C2591 C2590 1.397 . S
C2591 C2592 1.334 . S
C2592 H2563 0.950 . S
C2592 C2591 1.334 . S
C2592 C2593 1.287 . S
C2593 C2592 1.287 . S
C2593 C2594 1.524 . S
C2593 H2596 0.999 . S
C2594 H2564 0.950 . S
C2594 C2593 1.524 . S
C2594 C2595 1.415 . S
C2595 H2565 0.950 . S
C2595 C2590 1.363 . S
C2595 C2594 1.415 . S
H2596 C2593 0.999 . S
H2597 C2578 0.913 . S
H2598 C2616 0.951 . S
H2599 C2618 0.951 . S
H2600 C2620 0.950 . S
H2601 C2621 0.950 . S
H2602 C2623 0.950 . S
H2603 C2626 0.950 . S
H2604 C2627 0.950 . S
H2605 C2629 0.950 . S
H2606 C2630 0.950 . S
H2607 C2631 0.951 . S
H2608 C2633 0.951 . S
H2609 C2635 0.950 . S
H2610 C2636 0.950 . S
H2611 C2638 0.950 . S
H2612 C2641 0.950 . S
H2613 C2642 0.950 . S
H2614 C2644 0.950 . S
H2615 C2645 0.950 . S
C2616 H2598 0.951 . S
C2616 C2617 1.366 . S
C2616 C2618 1.388 . S
C2617 C2616 1.366 . S
C2617 C2621 1.385 . S
C2618 H2599 0.951 . S
C2618 C2616 1.388 . S
C2618 C2619 1.366 . S
C2619 C2618 1.366 . S
C2619 C2620 1.414 . S
C2619 C2622 1.499 . S
C2620 H2600 0.950 . S
C2620 C2619 1.414 . S
C2620 C2621 1.374 . S
C2621 H2601 0.950 . S
C2621 C2617 1.385 . S
C2621 C2620 1.374 . S
C2622 C2619 1.499 . S
C2622 C2623 1.373 . S
C2622 C2624 1.389 . S
C2623 H2602 0.950 . S
C2623 C2622 1.373 . S
C2623 C2639 1.377 . S
C2624 C2622 1.389 . S
C2624 C2625 1.524 . S
C2624 C2638 1.377 . S
C2625 C2624 1.524 . S
C2625 C2626 1.397 . S
C2625 C2630 1.363 . S
C2626 H2603 0.950 . S
C2626 C2625 1.397 . S
C2626 C2627 1.334 . S
C2627 H2604 0.950 . S
C2627 C2626 1.334 . S
C2627 C2628 1.287 . S
C2628 C2627 1.287 . S
C2628 C2629 1.524 . S
C2628 H2647 0.913 . S
C2629 H2605 0.950 . S
C2629 C2628 1.524 . S
C2629 C2630 1.415 . S
C2630 H2606 0.950 . S
C2630 C2625 1.363 . S
C2630 C2629 1.415 . S
C2631 H2607 0.951 . S
C2631 C2632 1.366 . S
C2631 C2633 1.388 . S
C2632 C2631 1.366 . S
C2632 C2636 1.385 . S
C2633 H2608 0.951 . S
C2633 C2631 1.388 . S
C2633 C2634 1.366 . S
C2634 C2633 1.366 . S
C2634 C2635 1.414 . S
C2634 C2637 1.499 . S
C2635 H2609 0.950 . S
C2635 C2634 1.414 . S
C2635 C2636 1.374 . S
C2636 H2610 0.950 . S
C2636 C2632 1.385 . S
C2636 C2635 1.374 . S
C2637 C2634 1.499 . S
C2637 C2638 1.373 . S
C2637 C2639 1.389 . S
C2638 H2611 0.950 . S
C2638 C2624 1.377 . S
C2638 C2637 1.373 . S
C2639 C2623 1.377 . S
C2639 C2637 1.389 . S
C2639 C2640 1.524 . S
C2640 C2639 1.524 . S
C2640 C2641 1.397 . S
C2640 C2645 1.363 . S
C2641 H2612 0.950 . S
C2641 C2640 1.397 . S
C2641 C2642 1.334 . S
C2642 H2613 0.950 . S
C2642 C2641 1.334 . S
C2642 C2643 1.287 . S
C2643 C2642 1.287 . S
C2643 C2644 1.524 . S
C2643 H2646 0.999 . S
C2644 H2614 0.950 . S
C2644 C2643 1.524 . S
C2644 C2645 1.415 . S
C2645 H2615 0.950 . S
C2645 C2640 1.363 . S
C2645 C2644 1.415 . S
H2646 C2643 0.999 . S
H2647 C2628 0.913 . S
H2648 C2666 0.951 . S
H2649 C2668 0.951 . S
H2650 C2670 0.950 . S
H2651 C2671 0.950 . S
H2652 C2673 0.950 . S
H2653 C2676 0.950 . S
H2654 C2677 0.950 . S
H2655 C2679 0.950 . S
H2656 C2680 0.950 . S
H2657 C2681 0.951 . S
H2658 C2683 0.951 . S
H2659 C2685 0.950 . S
H2660 C2686 0.950 . S
H2661 C2688 0.950 . S
H2662 C2691 0.950 . S
H2663 C2692 0.950 1_554 S
H2664 C2694 0.950 . S
H2665 C2695 0.950 . S
C2666 H2648 0.951 . S
C2666 C2667 1.366 . S
C2666 C2668 1.388 . S
C2667 C2666 1.366 . S
C2667 C2671 1.385 . S
C2668 H2649 0.951 . S
C2668 C2666 1.388 . S
C2668 C2669 1.366 . S
C2669 C2668 1.366 . S
C2669 C2670 1.414 . S
C2669 C2672 1.499 . S
C2670 H2650 0.950 . S
C2670 C2669 1.414 . S
C2670 C2671 1.374 . S
C2671 H2651 0.950 . S
C2671 C2667 1.385 . S
C2671 C2670 1.374 . S
C2672 C2669 1.499 . S
C2672 C2673 1.373 . S
C2672 C2674 1.389 . S
C2673 H2652 0.950 . S
C2673 C2672 1.373 . S
C2673 C2689 1.377 . S
C2674 C2672 1.389 . S
C2674 C2675 1.524 . S
C2674 C2688 1.377 . S
C2675 C2674 1.524 . S
C2675 C2676 1.397 . S
C2675 C2680 1.363 . S
C2676 H2653 0.950 . S
C2676 C2675 1.397 . S
C2676 C2677 1.334 . S
C2677 H2654 0.950 . S
C2677 C2676 1.334 . S
C2677 C2678 1.287 . S
C2678 C2677 1.287 . S
C2678 C2679 1.524 . S
C2678 H2697 0.913 . S
C2679 H2655 0.950 . S
C2679 C2678 1.524 . S
C2679 C2680 1.415 . S
C2680 H2656 0.950 . S
C2680 C2675 1.363 . S
C2680 C2679 1.415 . S
C2681 H2657 0.951 . S
C2681 C2682 1.366 . S
C2681 C2683 1.388 . S
C2682 C2681 1.366 . S
C2682 C2686 1.385 . S
C2683 H2658 0.951 . S
C2683 C2681 1.388 . S
C2683 C2684 1.366 . S
C2684 C2683 1.366 . S
C2684 C2685 1.414 . S
C2684 C2687 1.499 . S
C2685 H2659 0.950 . S
C2685 C2684 1.414 . S
C2685 C2686 1.374 . S
C2686 H2660 0.950 . S
C2686 C2682 1.385 . S
C2686 C2685 1.374 . S
C2687 C2684 1.499 . S
C2687 C2688 1.373 . S
C2687 C2689 1.389 . S
C2688 H2661 0.950 . S
C2688 C2674 1.377 . S
C2688 C2687 1.373 . S
C2689 C2673 1.377 . S
C2689 C2687 1.389 . S
C2689 C2690 1.524 . S
C2690 C2689 1.524 . S
C2690 C2691 1.397 . S
C2690 C2695 1.363 . S
C2691 H2662 0.950 . S
C2691 C2690 1.397 . S
C2691 C2692 1.334 . S
C2692 H2663 0.950 1_556 S
C2692 C2691 1.334 . S
C2692 C2693 1.287 1_556 S
C2693 C2692 1.287 1_554 S
C2693 C2694 1.524 1_554 S
C2693 H2696 0.999 . S
C2694 H2664 0.950 . S
C2694 C2693 1.524 1_556 S
C2694 C2695 1.415 . S
C2695 H2665 0.950 . S
C2695 C2690 1.363 . S
C2695 C2694 1.415 . S
H2696 C2693 0.999 . S
H2697 C2678 0.913 . S
H2698 C2716 0.951 . S
H2699 C2718 0.951 . S
H2700 C2720 0.950 . S
H2701 C2721 0.950 . S
H2702 C2723 0.950 . S
H2703 C2726 0.950 . S
H2704 C2727 0.950 . S
H2705 C2729 0.950 . S
H2706 C2730 0.950 . S
H2707 C2731 0.951 . S
H2708 C2733 0.951 . S
H2709 C2735 0.950 . S
H2710 C2736 0.950 . S
H2711 C2738 0.950 . S
H2712 C2741 0.950 . S
H2713 C2742 0.950 . S
H2714 C2744 0.950 . S
H2715 C2745 0.950 . S
C2716 H2698 0.951 . S
C2716 C2717 1.366 . S
C2716 C2718 1.388 . S
C2717 C2716 1.366 . S
C2717 C2721 1.385 . S
C2718 H2699 0.951 . S
C2718 C2716 1.388 . S
C2718 C2719 1.366 . S
C2719 C2718 1.366 . S
C2719 C2720 1.414 . S
C2719 C2722 1.499 . S
C2720 H2700 0.950 . S
C2720 C2719 1.414 . S
C2720 C2721 1.374 . S
C2721 H2701 0.950 . S
C2721 C2717 1.385 . S
C2721 C2720 1.374 . S
C2722 C2719 1.499 . S
C2722 C2723 1.373 . S
C2722 C2724 1.389 . S
C2723 H2702 0.950 . S
C2723 C2722 1.373 . S
C2723 C2739 1.377 1_655 S
C2724 C2722 1.389 . S
C2724 C2725 1.524 . S
C2724 C2738 1.377 1_655 S
C2725 C2724 1.524 . S
C2725 C2726 1.397 . S
C2725 C2730 1.363 . S
C2726 H2703 0.950 . S
C2726 C2725 1.397 . S
C2726 C2727 1.334 . S
C2727 H2704 0.950 . S
C2727 C2726 1.334 . S
C2727 C2728 1.287 . S
C2728 C2727 1.287 . S
C2728 C2729 1.524 . S
C2728 H2747 0.913 . S
C2729 H2705 0.950 . S
C2729 C2728 1.524 . S
C2729 C2730 1.415 . S
C2730 H2706 0.950 . S
C2730 C2725 1.363 . S
C2730 C2729 1.415 . S
C2731 H2707 0.951 . S
C2731 C2732 1.366 . S
C2731 C2733 1.388 . S
C2732 C2731 1.366 . S
C2732 C2736 1.385 . S
C2733 H2708 0.951 . S
C2733 C2731 1.388 . S
C2733 C2734 1.366 . S
C2734 C2733 1.366 . S
C2734 C2735 1.414 . S
C2734 C2737 1.499 . S
C2735 H2709 0.950 . S
C2735 C2734 1.414 . S
C2735 C2736 1.374 . S
C2736 H2710 0.950 . S
C2736 C2732 1.385 . S
C2736 C2735 1.374 . S
C2737 C2734 1.499 . S
C2737 C2738 1.373 . S
C2737 C2739 1.389 . S
C2738 H2711 0.950 . S
C2738 C2724 1.377 1_455 S
C2738 C2737 1.373 . S
C2739 C2723 1.377 1_455 S
C2739 C2737 1.389 . S
C2739 C2740 1.524 . S
C2740 C2739 1.524 . S
C2740 C2741 1.397 . S
C2740 C2745 1.363 . S
C2741 H2712 0.950 . S
C2741 C2740 1.397 . S
C2741 C2742 1.334 . S
C2742 H2713 0.950 . S
C2742 C2741 1.334 . S
C2742 C2743 1.287 . S
C2743 C2742 1.287 . S
C2743 C2744 1.524 . S
C2743 H2746 0.999 . S
C2744 H2714 0.950 . S
C2744 C2743 1.524 . S
C2744 C2745 1.415 . S
C2745 H2715 0.950 . S
C2745 C2740 1.363 . S
C2745 C2744 1.415 . S
H2746 C2743 0.999 . S
H2747 C2728 0.913 . S
H2748 C2766 0.951 . S
H2749 C2768 0.951 . S
H2750 C2770 0.950 . S
H2751 C2771 0.950 . S
H2752 C2773 0.950 . S
H2753 C2776 0.950 . S
H2754 C2777 0.950 . S
H2755 C2779 0.950 . S
H2756 C2780 0.950 . S
H2757 C2781 0.951 . S
H2758 C2783 0.951 . S
H2759 C2785 0.950 . S
H2760 C2786 0.950 . S
H2761 C2788 0.950 . S
H2762 C2791 0.950 . S
H2763 C2792 0.950 . S
H2764 C2794 0.950 . S
H2765 C2795 0.950 . S
C2766 H2748 0.951 . S
C2766 C2767 1.366 . S
C2766 C2768 1.388 . S
C2767 C2766 1.366 . S
C2767 C2771 1.385 . S
C2768 H2749 0.951 . S
C2768 C2766 1.388 . S
C2768 C2769 1.366 . S
C2769 C2768 1.366 . S
C2769 C2770 1.414 . S
C2769 C2772 1.499 . S
C2770 H2750 0.950 . S
C2770 C2769 1.414 . S
C2770 C2771 1.374 . S
C2771 H2751 0.950 . S
C2771 C2767 1.385 . S
C2771 C2770 1.374 . S
C2772 C2769 1.499 . S
C2772 C2773 1.373 . S
C2772 C2774 1.389 . S
C2773 H2752 0.950 . S
C2773 C2772 1.373 . S
C2773 C2789 1.377 1_655 S
C2774 C2772 1.389 . S
C2774 C2775 1.524 . S
C2774 C2788 1.377 1_655 S
C2775 C2774 1.524 . S
C2775 C2776 1.397 . S
C2775 C2780 1.363 . S
C2776 H2753 0.950 . S
C2776 C2775 1.397 . S
C2776 C2777 1.334 . S
C2777 H2754 0.950 . S
C2777 C2776 1.334 . S
C2777 C2778 1.287 . S
C2778 C2777 1.287 . S
C2778 C2779 1.524 . S
C2778 H2797 0.913 . S
C2779 H2755 0.950 . S
C2779 C2778 1.524 . S
C2779 C2780 1.415 . S
C2780 H2756 0.950 . S
C2780 C2775 1.363 . S
C2780 C2779 1.415 . S
C2781 H2757 0.951 . S
C2781 C2782 1.366 . S
C2781 C2783 1.388 . S
C2782 C2781 1.366 . S
C2782 C2786 1.385 . S
C2783 H2758 0.951 . S
C2783 C2781 1.388 . S
C2783 C2784 1.366 . S
C2784 C2783 1.366 . S
C2784 C2785 1.414 . S
C2784 C2787 1.499 . S
C2785 H2759 0.950 . S
C2785 C2784 1.414 . S
C2785 C2786 1.374 . S
C2786 H2760 0.950 . S
C2786 C2782 1.385 . S
C2786 C2785 1.374 . S
C2787 C2784 1.499 . S
C2787 C2788 1.373 . S
C2787 C2789 1.389 . S
C2788 H2761 0.950 . S
C2788 C2774 1.377 1_455 S
C2788 C2787 1.373 . S
C2789 C2773 1.377 1_455 S
C2789 C2787 1.389 . S
C2789 C2790 1.524 . S
C2790 C2789 1.524 . S
C2790 C2791 1.397 . S
C2790 C2795 1.363 . S
C2791 H2762 0.950 . S
C2791 C2790 1.397 . S
C2791 C2792 1.334 . S
C2792 H2763 0.950 . S
C2792 C2791 1.334 . S
C2792 C2793 1.287 . S
C2793 C2792 1.287 . S
C2793 C2794 1.524 . S
C2793 H2796 0.999 . S
C2794 H2764 0.950 . S
C2794 C2793 1.524 . S
C2794 C2795 1.415 . S
C2795 H2765 0.950 . S
C2795 C2790 1.363 . S
C2795 C2794 1.415 . S
H2796 C2793 0.999 . S
H2797 C2778 0.913 . S
H2798 C2816 0.951 . S
H2799 C2818 0.951 . S
H2800 C2820 0.950 . S
H2801 C2821 0.950 . S
H2802 C2823 0.950 . S
H2803 C2826 0.950 . S
H2804 C2827 0.950 . S
H2805 C2829 0.950 . S
H2806 C2830 0.950 . S
H2807 C2831 0.951 . S
H2808 C2833 0.951 . S
H2809 C2835 0.950 . S
H2810 C2836 0.950 . S
H2811 C2838 0.950 . S
H2812 C2841 0.950 . S
H2813 C2842 0.950 . S
H2814 C2844 0.950 . S
H2815 C2845 0.950 . S
C2816 H2798 0.951 . S
C2816 C2817 1.366 . S
C2816 C2818 1.388 . S
C2817 C2816 1.366 . S
C2817 C2821 1.385 . S
C2818 H2799 0.951 . S
C2818 C2816 1.388 . S
C2818 C2819 1.366 . S
C2819 C2818 1.366 . S
C2819 C2820 1.414 . S
C2819 C2822 1.499 . S
C2820 H2800 0.950 . S
C2820 C2819 1.414 . S
C2820 C2821 1.374 . S
C2821 H2801 0.950 . S
C2821 C2817 1.385 . S
C2821 C2820 1.374 . S
C2822 C2819 1.499 . S
C2822 C2823 1.373 . S
C2822 C2824 1.389 . S
C2823 H2802 0.950 . S
C2823 C2822 1.373 . S
C2823 C2839 1.377 . S
C2824 C2822 1.389 . S
C2824 C2825 1.524 . S
C2824 C2838 1.377 . S
C2825 C2824 1.524 . S
C2825 C2826 1.397 . S
C2825 C2830 1.363 . S
C2826 H2803 0.950 . S
C2826 C2825 1.397 . S
C2826 C2827 1.334 . S
C2827 H2804 0.950 . S
C2827 C2826 1.334 . S
C2827 C2828 1.287 . S
C2828 C2827 1.287 . S
C2828 C2829 1.524 . S
C2828 H2847 0.913 . S
C2829 H2805 0.950 . S
C2829 C2828 1.524 . S
C2829 C2830 1.415 . S
C2830 H2806 0.950 . S
C2830 C2825 1.363 . S
C2830 C2829 1.415 . S
C2831 H2807 0.951 . S
C2831 C2832 1.366 . S
C2831 C2833 1.388 . S
C2832 C2831 1.366 . S
C2832 C2836 1.385 . S
C2833 H2808 0.951 . S
C2833 C2831 1.388 . S
C2833 C2834 1.366 . S
C2834 C2833 1.366 . S
C2834 C2835 1.414 . S
C2834 C2837 1.499 . S
C2835 H2809 0.950 . S
C2835 C2834 1.414 . S
C2835 C2836 1.374 . S
C2836 H2810 0.950 . S
C2836 C2832 1.385 . S
C2836 C2835 1.374 . S
C2837 C2834 1.499 . S
C2837 C2838 1.373 . S
C2837 C2839 1.389 . S
C2838 H2811 0.950 . S
C2838 C2824 1.377 . S
C2838 C2837 1.373 . S
C2839 C2823 1.377 . S
C2839 C2837 1.389 . S
C2839 C2840 1.524 . S
C2840 C2839 1.524 . S
C2840 C2841 1.397 . S
C2840 C2845 1.363 . S
C2841 H2812 0.950 . S
C2841 C2840 1.397 . S
C2841 C2842 1.334 . S
C2842 H2813 0.950 . S
C2842 C2841 1.334 . S
C2842 C2843 1.287 . S
C2843 C2842 1.287 . S
C2843 C2844 1.524 . S
C2843 H2846 0.999 . S
C2844 H2814 0.950 . S
C2844 C2843 1.524 . S
C2844 C2845 1.415 . S
C2845 H2815 0.950 . S
C2845 C2840 1.363 . S
C2845 C2844 1.415 . S
H2846 C2843 0.999 . S
H2847 C2828 0.913 . S
H2848 C2866 0.951 . S
H2849 C2868 0.951 . S
H2850 C2870 0.950 . S
H2851 C2871 0.950 . S
H2852 C2873 0.950 . S
H2853 C2876 0.950 . S
H2854 C2877 0.950 . S
H2855 C2879 0.950 . S
H2856 C2880 0.950 . S
H2857 C2881 0.951 . S
H2858 C2883 0.951 . S
H2859 C2885 0.950 . S
H2860 C2886 0.950 . S
H2861 C2888 0.950 . S
H2862 C2891 0.950 . S
H2863 C2892 0.950 . S
H2864 C2894 0.950 . S
H2865 C2895 0.950 . S
C2866 H2848 0.951 . S
C2866 C2867 1.366 . S
C2866 C2868 1.388 . S
C2867 C2866 1.366 . S
C2867 C2871 1.385 . S
C2868 H2849 0.951 . S
C2868 C2866 1.388 . S
C2868 C2869 1.366 . S
C2869 C2868 1.366 . S
C2869 C2870 1.414 . S
C2869 C2872 1.499 . S
C2870 H2850 0.950 . S
C2870 C2869 1.414 . S
C2870 C2871 1.374 . S
C2871 H2851 0.950 . S
C2871 C2867 1.385 . S
C2871 C2870 1.374 . S
C2872 C2869 1.499 . S
C2872 C2873 1.373 . S
C2872 C2874 1.389 . S
C2873 H2852 0.950 . S
C2873 C2872 1.373 . S
C2873 C2889 1.377 . S
C2874 C2872 1.389 . S
C2874 C2875 1.524 . S
C2874 C2888 1.377 . S
C2875 C2874 1.524 . S
C2875 C2876 1.397 . S
C2875 C2880 1.363 . S
C2876 H2853 0.950 . S
C2876 C2875 1.397 . S
C2876 C2877 1.334 . S
C2877 H2854 0.950 . S
C2877 C2876 1.334 . S
C2877 C2878 1.287 . S
C2878 C2877 1.287 . S
C2878 C2879 1.524 . S
C2878 H2897 0.913 . S
C2879 H2855 0.950 . S
C2879 C2878 1.524 . S
C2879 C2880 1.415 . S
C2880 H2856 0.950 . S
C2880 C2875 1.363 . S
C2880 C2879 1.415 . S
C2881 H2857 0.951 . S
C2881 C2882 1.366 . S
C2881 C2883 1.388 . S
C2882 C2881 1.366 . S
C2882 C2886 1.385 . S
C2883 H2858 0.951 . S
C2883 C2881 1.388 . S
C2883 C2884 1.366 . S
C2884 C2883 1.366 . S
C2884 C2885 1.414 . S
C2884 C2887 1.499 . S
C2885 H2859 0.950 . S
C2885 C2884 1.414 . S
C2885 C2886 1.374 . S
C2886 H2860 0.950 . S
C2886 C2882 1.385 . S
C2886 C2885 1.374 . S
C2887 C2884 1.499 . S
C2887 C2888 1.373 . S
C2887 C2889 1.389 . S
C2888 H2861 0.950 . S
C2888 C2874 1.377 . S
C2888 C2887 1.373 . S
C2889 C2873 1.377 . S
C2889 C2887 1.389 . S
C2889 C2890 1.524 . S
C2890 C2889 1.524 . S
C2890 C2891 1.397 . S
C2890 C2895 1.363 . S
C2891 H2862 0.950 . S
C2891 C2890 1.397 . S
C2891 C2892 1.334 . S
C2892 H2863 0.950 . S
C2892 C2891 1.334 . S
C2892 C2893 1.287 . S
C2893 C2892 1.287 . S
C2893 C2894 1.524 . S
C2893 H2896 0.999 . S
C2894 H2864 0.950 . S
C2894 C2893 1.524 . S
C2894 C2895 1.415 . S
C2895 H2865 0.950 . S
C2895 C2890 1.363 . S
C2895 C2894 1.415 . S
H2896 C2893 0.999 . S
H2897 C2878 0.913 . S
H2898 C2916 0.951 . S
H2899 C2918 0.951 . S
H2900 C2920 0.950 . S
H2901 C2921 0.950 . S
H2902 C2923 0.950 . S
H2903 C2926 0.950 . S
H2904 C2927 0.950 . S
H2905 C2929 0.950 . S
H2906 C2930 0.950 . S
H2907 C2931 0.951 . S
H2908 C2933 0.951 . S
H2909 C2935 0.950 . S
H2910 C2936 0.950 . S
H2911 C2938 0.950 . S
H2912 C2941 0.950 . S
H2913 C2942 0.950 . S
H2914 C2944 0.950 . S
H2915 C2945 0.950 . S
C2916 H2898 0.951 . S
C2916 C2917 1.366 . S
C2916 C2918 1.388 . S
C2917 C2916 1.366 . S
C2917 C2921 1.385 . S
C2918 H2899 0.951 . S
C2918 C2916 1.388 . S
C2918 C2919 1.366 . S
C2919 C2918 1.366 . S
C2919 C2920 1.414 . S
C2919 C2922 1.499 . S
C2920 H2900 0.950 . S
C2920 C2919 1.414 . S
C2920 C2921 1.374 . S
C2921 H2901 0.950 . S
C2921 C2917 1.385 . S
C2921 C2920 1.374 . S
C2922 C2919 1.499 . S
C2922 C2923 1.373 . S
C2922 C2924 1.389 . S
C2923 H2902 0.950 . S
C2923 C2922 1.373 . S
C2923 C2939 1.377 . S
C2924 C2922 1.389 . S
C2924 C2925 1.524 . S
C2924 C2938 1.377 . S
C2925 C2924 1.524 . S
C2925 C2926 1.397 . S
C2925 C2930 1.363 . S
C2926 H2903 0.950 . S
C2926 C2925 1.397 . S
C2926 C2927 1.334 . S
C2927 H2904 0.950 . S
C2927 C2926 1.334 . S
C2927 C2928 1.287 . S
C2928 C2927 1.287 . S
C2928 C2929 1.524 . S
C2928 H2947 0.913 . S
C2929 H2905 0.950 . S
C2929 C2928 1.524 . S
C2929 C2930 1.415 . S
C2930 H2906 0.950 . S
C2930 C2925 1.363 . S
C2930 C2929 1.415 . S
C2931 H2907 0.951 . S
C2931 C2932 1.366 . S
C2931 C2933 1.388 . S
C2932 C2931 1.366 . S
C2932 C2936 1.385 . S
C2933 H2908 0.951 . S
C2933 C2931 1.388 . S
C2933 C2934 1.366 . S
C2934 C2933 1.366 . S
C2934 C2935 1.414 . S
C2934 C2937 1.499 . S
C2935 H2909 0.950 . S
C2935 C2934 1.414 . S
C2935 C2936 1.374 . S
C2936 H2910 0.950 . S
C2936 C2932 1.385 . S
C2936 C2935 1.374 . S
C2937 C2934 1.499 . S
C2937 C2938 1.373 . S
C2937 C2939 1.389 . S
C2938 H2911 0.950 . S
C2938 C2924 1.377 . S
C2938 C2937 1.373 . S
C2939 C2923 1.377 . S
C2939 C2937 1.389 . S
C2939 C2940 1.524 . S
C2940 C2939 1.524 . S
C2940 C2941 1.397 . S
C2940 C2945 1.363 . S
C2941 H2912 0.950 . S
C2941 C2940 1.397 . S
C2941 C2942 1.334 . S
C2942 H2913 0.950 . S
C2942 C2941 1.334 . S
C2942 C2943 1.287 . S
C2943 C2942 1.287 . S
C2943 C2944 1.524 . S
C2943 H2946 0.999 . S
C2944 H2914 0.950 . S
C2944 C2943 1.524 . S
C2944 C2945 1.415 . S
C2945 H2915 0.950 . S
C2945 C2940 1.363 . S
C2945 C2944 1.415 . S
H2946 C2943 0.999 . S
H2947 C2928 0.913 . S
H2948 C2966 0.951 . S
H2949 C2968 0.951 . S
H2950 C2970 0.950 . S
H2951 C2971 0.950 . S
H2952 C2973 0.950 . S
H2953 C2976 0.950 . S
H2954 C2977 0.950 . S
H2955 C2979 0.950 . S
H2956 C2980 0.950 . S
H2957 C2981 0.951 . S
H2958 C2983 0.951 . S
H2959 C2985 0.950 . S
H2960 C2986 0.950 . S
H2961 C2988 0.950 . S
H2962 C2991 0.950 . S
H2963 C2992 0.950 . S
H2964 C2994 0.950 . S
H2965 C2995 0.950 . S
C2966 H2948 0.951 . S
C2966 C2967 1.366 1_556 S
C2966 C2968 1.388 . S
C2967 C2966 1.366 1_554 S
C2967 C2971 1.385 . S
C2968 H2949 0.951 . S
C2968 C2966 1.388 . S
C2968 C2969 1.366 . S
C2969 C2968 1.366 . S
C2969 C2970 1.414 . S
C2969 C2972 1.499 . S
C2970 H2950 0.950 . S
C2970 C2969 1.414 . S
C2970 C2971 1.374 1_556 S
C2971 H2951 0.950 . S
C2971 C2967 1.385 . S
C2971 C2970 1.374 1_554 S
C2972 C2969 1.499 . S
C2972 C2973 1.373 . S
C2972 C2974 1.389 . S
C2973 H2952 0.950 . S
C2973 C2972 1.373 . S
C2973 C2989 1.377 . S
C2974 C2972 1.389 . S
C2974 C2975 1.524 . S
C2974 C2988 1.377 . S
C2975 C2974 1.524 . S
C2975 C2976 1.397 . S
C2975 C2980 1.363 . S
C2976 H2953 0.950 . S
C2976 C2975 1.397 . S
C2976 C2977 1.334 . S
C2977 H2954 0.950 . S
C2977 C2976 1.334 . S
C2977 C2978 1.287 . S
C2978 C2977 1.287 . S
C2978 C2979 1.524 . S
C2978 H2997 0.913 . S
C2979 H2955 0.950 . S
C2979 C2978 1.524 . S
C2979 C2980 1.415 . S
C2980 H2956 0.950 . S
C2980 C2975 1.363 . S
C2980 C2979 1.415 . S
C2981 H2957 0.951 . S
C2981 C2982 1.366 . S
C2981 C2983 1.388 . S
C2982 C2981 1.366 . S
C2982 C2986 1.385 . S
C2983 H2958 0.951 . S
C2983 C2981 1.388 . S
C2983 C2984 1.366 . S
C2984 C2983 1.366 . S
C2984 C2985 1.414 . S
C2984 C2987 1.499 . S
C2985 H2959 0.950 . S
C2985 C2984 1.414 . S
C2985 C2986 1.374 . S
C2986 H2960 0.950 . S
C2986 C2982 1.385 . S
C2986 C2985 1.374 . S
C2987 C2984 1.499 . S
C2987 C2988 1.373 . S
C2987 C2989 1.389 . S
C2988 H2961 0.950 . S
C2988 C2974 1.377 . S
C2988 C2987 1.373 . S
C2989 C2973 1.377 . S
C2989 C2987 1.389 . S
C2989 C2990 1.524 . S
C2990 C2989 1.524 . S
C2990 C2991 1.397 . S
C2990 C2995 1.363 . S
C2991 H2962 0.950 . S
C2991 C2990 1.397 . S
C2991 C2992 1.334 . S
C2992 H2963 0.950 . S
C2992 C2991 1.334 . S
C2992 C2993 1.287 . S
C2993 C2992 1.287 . S
C2993 C2994 1.524 . S
C2993 H2996 0.999 . S
C2994 H2964 0.950 . S
C2994 C2993 1.524 . S
C2994 C2995 1.415 . S
C2995 H2965 0.950 . S
C2995 C2990 1.363 . S
C2995 C2994 1.415 . S
H2996 C2993 0.999 . S
H2997 C2978 0.913 . S
H2998 C3016 0.951 . S
H2999 C3018 0.951 . S
H3000 C3020 0.950 . S
H3001 C3021 0.950 . S
H3002 C3023 0.950 . S
H3003 C3026 0.950 . S
H3004 C3027 0.950 . S
H3005 C3029 0.950 . S
H3006 C3030 0.950 . S
H3007 C3031 0.951 . S
H3008 C3033 0.951 . S
H3009 C3035 0.950 . S
H3010 C3036 0.950 . S
H3011 C3038 0.950 . S
H3012 C3041 0.950 . S
H3013 C3042 0.950 . S
H3014 C3044 0.950 . S
H3015 C3045 0.950 . S
C3016 H2998 0.951 . S
C3016 C3017 1.366 . S
C3016 C3018 1.388 1_556 S
C3017 C3016 1.366 . S
C3017 C3021 1.385 1_556 S
C3018 H2999 0.951 . S
C3018 C3016 1.388 1_554 S
C3018 C3019 1.366 . S
C3019 C3018 1.366 . S
C3019 C3020 1.414 . S
C3019 C3022 1.499 . S
C3020 H3000 0.950 . S
C3020 C3019 1.414 . S
C3020 C3021 1.374 . S
C3021 H3001 0.950 . S
C3021 C3017 1.385 1_554 S
C3021 C3020 1.374 . S
C3022 C3019 1.499 . S
C3022 C3023 1.373 . S
C3022 C3024 1.389 . S
C3023 H3002 0.950 . S
C3023 C3022 1.373 . S
C3023 C3039 1.377 . S
C3024 C3022 1.389 . S
C3024 C3025 1.524 . S
C3024 C3038 1.377 . S
C3025 C3024 1.524 . S
C3025 C3026 1.397 . S
C3025 C3030 1.363 . S
C3026 H3003 0.950 . S
C3026 C3025 1.397 . S
C3026 C3027 1.334 . S
C3027 H3004 0.950 . S
C3027 C3026 1.334 . S
C3027 C3028 1.287 . S
C3028 C3027 1.287 . S
C3028 C3029 1.524 . S
C3028 H3047 0.913 . S
C3029 H3005 0.950 . S
C3029 C3028 1.524 . S
C3029 C3030 1.415 . S
C3030 H3006 0.950 . S
C3030 C3025 1.363 . S
C3030 C3029 1.415 . S
C3031 H3007 0.951 . S
C3031 C3032 1.366 . S
C3031 C3033 1.388 . S
C3032 C3031 1.366 . S
C3032 C3036 1.385 . S
C3033 H3008 0.951 . S
C3033 C3031 1.388 . S
C3033 C3034 1.366 . S
C3034 C3033 1.366 . S
C3034 C3035 1.414 . S
C3034 C3037 1.499 . S
C3035 H3009 0.950 . S
C3035 C3034 1.414 . S
C3035 C3036 1.374 . S
C3036 H3010 0.950 . S
C3036 C3032 1.385 . S
C3036 C3035 1.374 . S
C3037 C3034 1.499 . S
C3037 C3038 1.373 . S
C3037 C3039 1.389 . S
C3038 H3011 0.950 . S
C3038 C3024 1.377 . S
C3038 C3037 1.373 . S
C3039 C3023 1.377 . S
C3039 C3037 1.389 . S
C3039 C3040 1.524 . S
C3040 C3039 1.524 . S
C3040 C3041 1.397 . S
C3040 C3045 1.363 . S
C3041 H3012 0.950 . S
C3041 C3040 1.397 . S
C3041 C3042 1.334 . S
C3042 H3013 0.950 . S
C3042 C3041 1.334 . S
C3042 C3043 1.287 . S
C3043 C3042 1.287 . S
C3043 C3044 1.524 . S
C3043 H3046 0.999 . S
C3044 H3014 0.950 . S
C3044 C3043 1.524 . S
C3044 C3045 1.415 . S
C3045 H3015 0.950 . S
C3045 C3040 1.363 . S
C3045 C3044 1.415 . S
H3046 C3043 0.999 . S
H3047 C3028 0.913 . S
H3048 C3066 0.951 . S
H3049 C3068 0.951 . S
H3050 C3070 0.950 . S
H3051 C3071 0.950 . S
H3052 C3073 0.950 . S
H3053 C3076 0.950 . S
H3054 C3077 0.950 . S
H3055 C3079 0.950 . S
H3056 C3080 0.950 . S
H3057 C3081 0.951 . S
H3058 C3083 0.951 . S
H3059 C3085 0.950 . S
H3060 C3086 0.950 . S
H3061 C3088 0.950 . S
H3062 C3091 0.950 . S
H3063 C3092 0.950 . S
H3064 C3094 0.950 . S
H3065 C3095 0.950 . S
C3066 H3048 0.951 . S
C3066 C3067 1.366 . S
C3066 C3068 1.388 . S
C3067 C3066 1.366 . S
C3067 C3071 1.385 . S
C3068 H3049 0.951 . S
C3068 C3066 1.388 . S
C3068 C3069 1.366 . S
C3069 C3068 1.366 . S
C3069 C3070 1.414 . S
C3069 C3072 1.499 . S
C3070 H3050 0.950 . S
C3070 C3069 1.414 . S
C3070 C3071 1.374 . S
C3071 H3051 0.950 . S
C3071 C3067 1.385 . S
C3071 C3070 1.374 . S
C3072 C3069 1.499 . S
C3072 C3073 1.373 . S
C3072 C3074 1.389 . S
C3073 H3052 0.950 . S
C3073 C3072 1.373 . S
C3073 C3089 1.377 . S
C3074 C3072 1.389 . S
C3074 C3075 1.524 . S
C3074 C3088 1.377 . S
C3075 C3074 1.524 . S
C3075 C3076 1.397 . S
C3075 C3080 1.363 . S
C3076 H3053 0.950 . S
C3076 C3075 1.397 . S
C3076 C3077 1.334 . S
C3077 H3054 0.950 . S
C3077 C3076 1.334 . S
C3077 C3078 1.287 . S
C3078 C3077 1.287 . S
C3078 C3079 1.524 . S
C3078 H3097 0.913 . S
C3079 H3055 0.950 . S
C3079 C3078 1.524 . S
C3079 C3080 1.415 . S
C3080 H3056 0.950 . S
C3080 C3075 1.363 . S
C3080 C3079 1.415 . S
C3081 H3057 0.951 . S
C3081 C3082 1.366 . S
C3081 C3083 1.388 . S
C3082 C3081 1.366 . S
C3082 C3086 1.385 . S
C3083 H3058 0.951 . S
C3083 C3081 1.388 . S
C3083 C3084 1.366 . S
C3084 C3083 1.366 . S
C3084 C3085 1.414 . S
C3084 C3087 1.499 . S
C3085 H3059 0.950 . S
C3085 C3084 1.414 . S
C3085 C3086 1.374 . S
C3086 H3060 0.950 . S
C3086 C3082 1.385 . S
C3086 C3085 1.374 . S
C3087 C3084 1.499 . S
C3087 C3088 1.373 . S
C3087 C3089 1.389 . S
C3088 H3061 0.950 . S
C3088 C3074 1.377 . S
C3088 C3087 1.373 . S
C3089 C3073 1.377 . S
C3089 C3087 1.389 . S
C3089 C3090 1.524 . S
C3090 C3089 1.524 . S
C3090 C3091 1.397 . S
C3090 C3095 1.363 . S
C3091 H3062 0.950 . S
C3091 C3090 1.397 . S
C3091 C3092 1.334 . S
C3092 H3063 0.950 . S
C3092 C3091 1.334 . S
C3092 C3093 1.287 . S
C3093 C3092 1.287 . S
C3093 C3094 1.524 . S
C3093 H3096 0.999 . S
C3094 H3064 0.950 . S
C3094 C3093 1.524 . S
C3094 C3095 1.415 . S
C3095 H3065 0.950 . S
C3095 C3090 1.363 . S
C3095 C3094 1.415 . S
H3096 C3093 0.999 . S
H3097 C3078 0.913 . S
H3098 C3116 0.951 . S
H3099 C3118 0.951 . S
H3100 C3120 0.950 . S
H3101 C3121 0.950 . S
H3102 C3123 0.950 . S
H3103 C3126 0.950 . S
H3104 C3127 0.950 . S
H3105 C3129 0.950 . S
H3106 C3130 0.950 . S
H3107 C3131 0.951 . S
H3108 C3133 0.951 . S
H3109 C3135 0.950 . S
H3110 C3136 0.950 . S
H3111 C3138 0.950 . S
H3112 C3141 0.950 . S
H3113 C3142 0.950 . S
H3114 C3144 0.950 . S
H3115 C3145 0.950 . S
C3116 H3098 0.951 . S
C3116 C3117 1.366 . S
C3116 C3118 1.388 . S
C3117 C3116 1.366 . S
C3117 C3121 1.385 . S
C3118 H3099 0.951 . S
C3118 C3116 1.388 . S
C3118 C3119 1.366 . S
C3119 C3118 1.366 . S
C3119 C3120 1.414 . S
C3119 C3122 1.499 . S
C3120 H3100 0.950 . S
C3120 C3119 1.414 . S
C3120 C3121 1.374 . S
C3121 H3101 0.950 . S
C3121 C3117 1.385 . S
C3121 C3120 1.374 . S
C3122 C3119 1.499 . S
C3122 C3123 1.373 . S
C3122 C3124 1.389 . S
C3123 H3102 0.950 . S
C3123 C3122 1.373 . S
C3123 C3139 1.377 . S
C3124 C3122 1.389 . S
C3124 C3125 1.524 . S
C3124 C3138 1.377 . S
C3125 C3124 1.524 . S
C3125 C3126 1.397 . S
C3125 C3130 1.363 . S
C3126 H3103 0.950 . S
C3126 C3125 1.397 . S
C3126 C3127 1.334 . S
C3127 H3104 0.950 . S
C3127 C3126 1.334 . S
C3127 C3128 1.287 . S
C3128 C3127 1.287 . S
C3128 C3129 1.524 . S
C3128 H3147 0.913 . S
C3129 H3105 0.950 . S
C3129 C3128 1.524 . S
C3129 C3130 1.415 . S
C3130 H3106 0.950 . S
C3130 C3125 1.363 . S
C3130 C3129 1.415 . S
C3131 H3107 0.951 . S
C3131 C3132 1.366 . S
C3131 C3133 1.388 . S
C3132 C3131 1.366 . S
C3132 C3136 1.385 . S
C3133 H3108 0.951 . S
C3133 C3131 1.388 . S
C3133 C3134 1.366 . S
C3134 C3133 1.366 . S
C3134 C3135 1.414 . S
C3134 C3137 1.499 . S
C3135 H3109 0.950 . S
C3135 C3134 1.414 . S
C3135 C3136 1.374 . S
C3136 H3110 0.950 . S
C3136 C3132 1.385 . S
C3136 C3135 1.374 . S
C3137 C3134 1.499 . S
C3137 C3138 1.373 . S
C3137 C3139 1.389 . S
C3138 H3111 0.950 . S
C3138 C3124 1.377 . S
C3138 C3137 1.373 . S
C3139 C3123 1.377 . S
C3139 C3137 1.389 . S
C3139 C3140 1.524 . S
C3140 C3139 1.524 . S
C3140 C3141 1.397 . S
C3140 C3145 1.363 . S
C3141 H3112 0.950 . S
C3141 C3140 1.397 . S
C3141 C3142 1.334 . S
C3142 H3113 0.950 . S
C3142 C3141 1.334 . S
C3142 C3143 1.287 . S
C3143 C3142 1.287 . S
C3143 C3144 1.524 . S
C3143 H3146 0.999 . S
C3144 H3114 0.950 . S
C3144 C3143 1.524 . S
C3144 C3145 1.415 . S
C3145 H3115 0.950 . S
C3145 C3140 1.363 . S
C3145 C3144 1.415 . S
H3146 C3143 0.999 . S
H3147 C3128 0.913 . S
H3148 C3166 0.951 . S
H3149 C3168 0.951 . S
H3150 C3170 0.950 . S
H3151 C3171 0.950 . S
H3152 C3173 0.950 . S
H3153 C3176 0.950 . S
H3154 C3177 0.950 . S
H3155 C3179 0.950 . S
H3156 C3180 0.950 . S
H3157 C3181 0.951 . S
H3158 C3183 0.951 . S
H3159 C3185 0.950 . S
H3160 C3186 0.950 . S
H3161 C3188 0.950 . S
H3162 C3191 0.950 . S
H3163 C3192 0.950 . S
H3164 C3194 0.950 . S
H3165 C3195 0.950 . S
C3166 H3148 0.951 . S
C3166 C3167 1.366 . S
C3166 C3168 1.388 . S
C3167 C3166 1.366 . S
C3167 C3171 1.385 . S
C3168 H3149 0.951 . S
C3168 C3166 1.388 . S
C3168 C3169 1.366 . S
C3169 C3168 1.366 . S
C3169 C3170 1.414 . S
C3169 C3172 1.499 . S
C3170 H3150 0.950 . S
C3170 C3169 1.414 . S
C3170 C3171 1.374 . S
C3171 H3151 0.950 . S
C3171 C3167 1.385 . S
C3171 C3170 1.374 . S
C3172 C3169 1.499 . S
C3172 C3173 1.373 . S
C3172 C3174 1.389 . S
C3173 H3152 0.950 . S
C3173 C3172 1.373 . S
C3173 C3189 1.377 . S
C3174 C3172 1.389 . S
C3174 C3175 1.524 . S
C3174 C3188 1.377 . S
C3175 C3174 1.524 . S
C3175 C3176 1.397 . S
C3175 C3180 1.363 . S
C3176 H3153 0.950 . S
C3176 C3175 1.397 . S
C3176 C3177 1.334 . S
C3177 H3154 0.950 . S
C3177 C3176 1.334 . S
C3177 C3178 1.287 . S
C3178 C3177 1.287 . S
C3178 C3179 1.524 . S
C3178 H3197 0.913 . S
C3179 H3155 0.950 . S
C3179 C3178 1.524 . S
C3179 C3180 1.415 . S
C3180 H3156 0.950 . S
C3180 C3175 1.363 . S
C3180 C3179 1.415 . S
C3181 H3157 0.951 . S
C3181 C3182 1.366 . S
C3181 C3183 1.388 1_556 S
C3182 C3181 1.366 . S
C3182 C3186 1.385 1_556 S
C3183 H3158 0.951 . S
C3183 C3181 1.388 1_554 S
C3183 C3184 1.366 . S
C3184 C3183 1.366 . S
C3184 C3185 1.414 . S
C3184 C3187 1.499 . S
C3185 H3159 0.950 . S
C3185 C3184 1.414 . S
C3185 C3186 1.374 . S
C3186 H3160 0.950 . S
C3186 C3182 1.385 1_554 S
C3186 C3185 1.374 . S
C3187 C3184 1.499 . S
C3187 C3188 1.373 . S
C3187 C3189 1.389 . S
C3188 H3161 0.950 . S
C3188 C3174 1.377 . S
C3188 C3187 1.373 . S
C3189 C3173 1.377 . S
C3189 C3187 1.389 . S
C3189 C3190 1.524 . S
C3190 C3189 1.524 . S
C3190 C3191 1.397 . S
C3190 C3195 1.363 . S
C3191 H3162 0.950 . S
C3191 C3190 1.397 . S
C3191 C3192 1.334 . S
C3192 H3163 0.950 . S
C3192 C3191 1.334 . S
C3192 C3193 1.287 . S
C3193 C3192 1.287 . S
C3193 C3194 1.524 . S
C3193 H3196 0.999 . S
C3194 H3164 0.950 . S
C3194 C3193 1.524 . S
C3194 C3195 1.415 . S
C3195 H3165 0.950 . S
C3195 C3190 1.363 . S
C3195 C3194 1.415 . S
H3196 C3193 0.999 . S
H3197 C3178 0.913 . S
H3198 C3216 0.951 . S
H3199 C3218 0.951 . S
H3200 C3220 0.950 . S
H3201 C3221 0.950 . S
H3202 C3223 0.950 . S
H3203 C3226 0.950 . S
H3204 C3227 0.950 . S
H3205 C3229 0.950 . S
H3206 C3230 0.950 . S
H3207 C3231 0.951 . S
H3208 C3233 0.951 . S
H3209 C3235 0.950 . S
H3210 C3236 0.950 . S
H3211 C3238 0.950 . S
H3212 C3241 0.950 . S
H3213 C3242 0.950 . S
H3214 C3244 0.950 . S
H3215 C3245 0.950 . S
C3216 H3198 0.951 . S
C3216 C3217 1.366 . S
C3216 C3218 1.388 . S
C3217 C3216 1.366 . S
C3217 C3221 1.385 . S
C3218 H3199 0.951 . S
C3218 C3216 1.388 . S
C3218 C3219 1.366 . S
C3219 C3218 1.366 . S
C3219 C3220 1.414 . S
C3219 C3222 1.499 . S
C3220 H3200 0.950 . S
C3220 C3219 1.414 . S
C3220 C3221 1.374 . S
C3221 H3201 0.950 . S
C3221 C3217 1.385 . S
C3221 C3220 1.374 . S
C3222 C3219 1.499 . S
C3222 C3223 1.373 . S
C3222 C3224 1.389 . S
C3223 H3202 0.950 . S
C3223 C3222 1.373 . S
C3223 C3239 1.377 . S
C3224 C3222 1.389 . S
C3224 C3225 1.524 . S
C3224 C3238 1.377 . S
C3225 C3224 1.524 . S
C3225 C3226 1.397 . S
C3225 C3230 1.363 . S
C3226 H3203 0.950 . S
C3226 C3225 1.397 . S
C3226 C3227 1.334 . S
C3227 H3204 0.950 . S
C3227 C3226 1.334 . S
C3227 C3228 1.287 . S
C3228 C3227 1.287 . S
C3228 C3229 1.524 . S
C3228 H3247 0.913 . S
C3229 H3205 0.950 . S
C3229 C3228 1.524 . S
C3229 C3230 1.415 . S
C3230 H3206 0.950 . S
C3230 C3225 1.363 . S
C3230 C3229 1.415 . S
C3231 H3207 0.951 . S
C3231 C3232 1.366 . S
C3231 C3233 1.388 1_554 S
C3232 C3231 1.366 . S
C3232 C3236 1.385 1_554 S
C3233 H3208 0.951 . S
C3233 C3231 1.388 1_556 S
C3233 C3234 1.366 . S
C3234 C3233 1.366 . S
C3234 C3235 1.414 . S
C3234 C3237 1.499 . S
C3235 H3209 0.950 . S
C3235 C3234 1.414 . S
C3235 C3236 1.374 . S
C3236 H3210 0.950 . S
C3236 C3232 1.385 1_556 S
C3236 C3235 1.374 . S
C3237 C3234 1.499 . S
C3237 C3238 1.373 . S
C3237 C3239 1.389 . S
C3238 H3211 0.950 . S
C3238 C3224 1.377 . S
C3238 C3237 1.373 . S
C3239 C3223 1.377 . S
C3239 C3237 1.389 . S
C3239 C3240 1.524 . S
C3240 C3239 1.524 . S
C3240 C3241 1.397 . S
C3240 C3245 1.363 . S
C3241 H3212 0.950 . S
C3241 C3240 1.397 . S
C3241 C3242 1.334 1_556 S
C3242 H3213 0.950 . S
C3242 C3241 1.334 1_554 S
C3242 C3243 1.287 . S
C3243 C3242 1.287 . S
C3243 C3244 1.524 . S
C3243 H3246 0.999 . S
C3244 H3214 0.950 . S
C3244 C3243 1.524 . S
C3244 C3245 1.415 1_554 S
C3245 H3215 0.950 . S
C3245 C3240 1.363 . S
C3245 C3244 1.415 1_556 S
H3246 C3243 0.999 . S
H3247 C3228 0.913 . S
H3248 C3266 0.951 . S
H3249 C3268 0.951 . S
H3250 C3270 0.950 . S
H3251 C3271 0.950 . S
H3252 C3273 0.950 . S
H3253 C3276 0.950 . S
H3254 C3277 0.950 . S
H3255 C3279 0.950 . S
H3256 C3280 0.950 . S
H3257 C3281 0.951 . S
H3258 C3283 0.951 . S
H3259 C3285 0.950 . S
H3260 C3286 0.950 . S
H3261 C3288 0.950 . S
H3262 C3291 0.950 . S
H3263 C3292 0.950 . S
H3264 C3294 0.950 . S
H3265 C3295 0.950 . S
C3266 H3248 0.951 . S
C3266 C3267 1.366 1_556 S
C3266 C3268 1.388 . S
C3267 C3266 1.366 1_554 S
C3267 C3271 1.385 . S
C3268 H3249 0.951 . S
C3268 C3266 1.388 . S
C3268 C3269 1.366 . S
C3269 C3268 1.366 . S
C3269 C3270 1.414 . S
C3269 C3272 1.499 . S
C3270 H3250 0.950 . S
C3270 C3269 1.414 . S
C3270 C3271 1.374 1_556 S
C3271 H3251 0.950 . S
C3271 C3267 1.385 . S
C3271 C3270 1.374 1_554 S
C3272 C3269 1.499 . S
C3272 C3273 1.373 . S
C3272 C3274 1.389 . S
C3273 H3252 0.950 . S
C3273 C3272 1.373 . S
C3273 C3289 1.377 . S
C3274 C3272 1.389 . S
C3274 C3275 1.524 . S
C3274 C3288 1.377 . S
C3275 C3274 1.524 . S
C3275 C3276 1.397 . S
C3275 C3280 1.363 . S
C3276 H3253 0.950 . S
C3276 C3275 1.397 . S
C3276 C3277 1.334 . S
C3277 H3254 0.950 . S
C3277 C3276 1.334 . S
C3277 C3278 1.287 . S
C3278 C3277 1.287 . S
C3278 C3279 1.524 . S
C3278 H3297 0.913 . S
C3279 H3255 0.950 . S
C3279 C3278 1.524 . S
C3279 C3280 1.415 . S
C3280 H3256 0.950 . S
C3280 C3275 1.363 . S
C3280 C3279 1.415 . S
C3281 H3257 0.951 . S
C3281 C3282 1.366 . S
C3281 C3283 1.388 . S
C3282 C3281 1.366 . S
C3282 C3286 1.385 . S
C3283 H3258 0.951 . S
C3283 C3281 1.388 . S
C3283 C3284 1.366 . S
C3284 C3283 1.366 . S
C3284 C3285 1.414 . S
C3284 C3287 1.499 . S
C3285 H3259 0.950 . S
C3285 C3284 1.414 . S
C3285 C3286 1.374 . S
C3286 H3260 0.950 . S
C3286 C3282 1.385 . S
C3286 C3285 1.374 . S
C3287 C3284 1.499 . S
C3287 C3288 1.373 . S
C3287 C3289 1.389 . S
C3288 H3261 0.950 . S
C3288 C3274 1.377 . S
C3288 C3287 1.373 . S
C3289 C3273 1.377 . S
C3289 C3287 1.389 . S
C3289 C3290 1.524 . S
C3290 C3289 1.524 . S
C3290 C3291 1.397 . S
C3290 C3295 1.363 . S
C3291 H3262 0.950 . S
C3291 C3290 1.397 . S
C3291 C3292 1.334 . S
C3292 H3263 0.950 . S
C3292 C3291 1.334 . S
C3292 C3293 1.287 . S
C3293 C3292 1.287 . S
C3293 C3294 1.524 . S
C3293 H3296 0.999 . S
C3294 H3264 0.950 . S
C3294 C3293 1.524 . S
C3294 C3295 1.415 . S
C3295 H3265 0.950 . S
C3295 C3290 1.363 . S
C3295 C3294 1.415 . S
H3296 C3293 0.999 . S
H3297 C3278 0.913 . S
H3298 C3316 0.951 . S
H3299 C3318 0.951 . S
H3300 C3320 0.950 . S
H3301 C3321 0.950 . S
H3302 C3323 0.950 . S
H3303 C3326 0.950 . S
H3304 C3327 0.950 . S
H3305 C3329 0.950 . S
H3306 C3330 0.950 . S
H3307 C3331 0.951 1_556 S
H3308 C3333 0.951 . S
H3309 C3335 0.950 . S
H3310 C3336 0.950 1_556 S
H3311 C3338 0.950 . S
H3312 C3341 0.950 . S
H3313 C3342 0.950 . S
H3314 C3344 0.950 . S
H3315 C3345 0.950 . S
C3316 H3298 0.951 . S
C3316 C3317 1.366 . S
C3316 C3318 1.388 . S
C3317 C3316 1.366 . S
C3317 C3321 1.385 . S
C3318 H3299 0.951 . S
C3318 C3316 1.388 . S
C3318 C3319 1.366 . S
C3319 C3318 1.366 . S
C3319 C3320 1.414 . S
C3319 C3322 1.499 . S
C3320 H3300 0.950 . S
C3320 C3319 1.414 . S
C3320 C3321 1.374 . S
C3321 H3301 0.950 . S
C3321 C3317 1.385 . S
C3321 C3320 1.374 . S
C3322 C3319 1.499 . S
C3322 C3323 1.373 . S
C3322 C3324 1.389 . S
C3323 H3302 0.950 . S
C3323 C3322 1.373 . S
C3323 C3339 1.377 . S
C3324 C3322 1.389 . S
C3324 C3325 1.524 . S
C3324 C3338 1.377 . S
C3325 C3324 1.524 . S
C3325 C3326 1.397 . S
C3325 C3330 1.363 . S
C3326 H3303 0.950 . S
C3326 C3325 1.397 . S
C3326 C3327 1.334 . S
C3327 H3304 0.950 . S
C3327 C3326 1.334 . S
C3327 C3328 1.287 . S
C3328 C3327 1.287 . S
C3328 C3329 1.524 . S
C3328 H3347 0.913 . S
C3329 H3305 0.950 . S
C3329 C3328 1.524 . S
C3329 C3330 1.415 . S
C3330 H3306 0.950 . S
C3330 C3325 1.363 . S
C3330 C3329 1.415 . S
C3331 H3307 0.951 1_554 S
C3331 C3332 1.366 1_554 S
C3331 C3333 1.388 . S
C3332 C3331 1.366 1_556 S
C3332 C3336 1.385 1_556 S
C3333 H3308 0.951 . S
C3333 C3331 1.388 . S
C3333 C3334 1.366 . S
C3334 C3333 1.366 . S
C3334 C3335 1.414 . S
C3334 C3337 1.499 . S
C3335 H3309 0.950 . S
C3335 C3334 1.414 . S
C3335 C3336 1.374 . S
C3336 H3310 0.950 1_554 S
C3336 C3332 1.385 1_554 S
C3336 C3335 1.374 . S
C3337 C3334 1.499 . S
C3337 C3338 1.373 . S
C3337 C3339 1.389 . S
C3338 H3311 0.950 . S
C3338 C3324 1.377 . S
C3338 C3337 1.373 . S
C3339 C3323 1.377 . S
C3339 C3337 1.389 . S
C3339 C3340 1.524 . S
C3340 C3339 1.524 . S
C3340 C3341 1.397 . S
C3340 C3345 1.363 . S
C3341 H3312 0.950 . S
C3341 C3340 1.397 . S
C3341 C3342 1.334 1_554 S
C3342 H3313 0.950 . S
C3342 C3341 1.334 1_556 S
C3342 C3343 1.287 . S
C3343 C3342 1.287 . S
C3343 C3344 1.524 1_556 S
C3343 H3346 0.999 . S
C3344 H3314 0.950 . S
C3344 C3343 1.524 1_554 S
C3344 C3345 1.415 . S
C3345 H3315 0.950 . S
C3345 C3340 1.363 . S
C3345 C3344 1.415 . S
H3346 C3343 0.999 . S
H3347 C3328 0.913 . S
H3348 C3366 0.951 . S
H3349 C3368 0.951 . S
H3350 C3370 0.950 . S
H3351 C3371 0.950 . S
H3352 C3373 0.950 . S
H3353 C3376 0.950 . S
H3354 C3377 0.950 . S
H3355 C3379 0.950 . S
H3356 C3380 0.950 . S
H3357 C3381 0.951 . S
H3358 C3383 0.951 . S
H3359 C3385 0.950 . S
H3360 C3386 0.950 . S
H3361 C3388 0.950 . S
H3362 C3391 0.950 . S
H3363 C3392 0.950 . S
H3364 C3394 0.950 . S
H3365 C3395 0.950 . S
C3366 H3348 0.951 . S
C3366 C3367 1.366 . S
C3366 C3368 1.388 . S
C3367 C3366 1.366 . S
C3367 C3371 1.385 . S
C3368 H3349 0.951 . S
C3368 C3366 1.388 . S
C3368 C3369 1.366 . S
C3369 C3368 1.366 . S
C3369 C3370 1.414 . S
C3369 C3372 1.499 . S
C3370 H3350 0.950 . S
C3370 C3369 1.414 . S
C3370 C3371 1.374 . S
C3371 H3351 0.950 . S
C3371 C3367 1.385 . S
C3371 C3370 1.374 . S
C3372 C3369 1.499 . S
C3372 C3373 1.373 . S
C3372 C3374 1.389 . S
C3373 H3352 0.950 . S
C3373 C3372 1.373 . S
C3373 C3389 1.377 . S
C3374 C3372 1.389 . S
C3374 C3375 1.524 . S
C3374 C3388 1.377 . S
C3375 C3374 1.524 . S
C3375 C3376 1.397 . S
C3375 C3380 1.363 . S
C3376 H3353 0.950 . S
C3376 C3375 1.397 . S
C3376 C3377 1.334 . S
C3377 H3354 0.950 . S
C3377 C3376 1.334 . S
C3377 C3378 1.287 . S
C3378 C3377 1.287 . S
C3378 C3379 1.524 . S
C3378 H3397 0.913 . S
C3379 H3355 0.950 . S
C3379 C3378 1.524 . S
C3379 C3380 1.415 . S
C3380 H3356 0.950 . S
C3380 C3375 1.363 . S
C3380 C3379 1.415 . S
C3381 H3357 0.951 . S
C3381 C3382 1.366 . S
C3381 C3383 1.388 . S
C3382 C3381 1.366 . S
C3382 C3386 1.385 . S
C3383 H3358 0.951 . S
C3383 C3381 1.388 . S
C3383 C3384 1.366 . S
C3384 C3383 1.366 . S
C3384 C3385 1.414 . S
C3384 C3387 1.499 . S
C3385 H3359 0.950 . S
C3385 C3384 1.414 . S
C3385 C3386 1.374 . S
C3386 H3360 0.950 . S
C3386 C3382 1.385 . S
C3386 C3385 1.374 . S
C3387 C3384 1.499 . S
C3387 C3388 1.373 . S
C3387 C3389 1.389 . S
C3388 H3361 0.950 . S
C3388 C3374 1.377 . S
C3388 C3387 1.373 . S
C3389 C3373 1.377 . S
C3389 C3387 1.389 . S
C3389 C3390 1.524 . S
C3390 C3389 1.524 . S
C3390 C3391 1.397 . S
C3390 C3395 1.363 . S
C3391 H3362 0.950 . S
C3391 C3390 1.397 . S
C3391 C3392 1.334 . S
C3392 H3363 0.950 . S
C3392 C3391 1.334 . S
C3392 C3393 1.287 . S
C3393 C3392 1.287 . S
C3393 C3394 1.524 . S
C3393 H3396 0.999 . S
C3394 H3364 0.950 . S
C3394 C3393 1.524 . S
C3394 C3395 1.415 . S
C3395 H3365 0.950 . S
C3395 C3390 1.363 . S
C3395 C3394 1.415 . S
H3396 C3393 0.999 . S
H3397 C3378 0.913 . S
H3398 C3416 0.951 . S
H3399 C3418 0.951 . S
H3400 C3420 0.950 . S
H3401 C3421 0.950 . S
H3402 C3423 0.950 . S
H3403 C3426 0.950 . S
H3404 C3427 0.950 . S
H3405 C3429 0.950 . S
H3406 C3430 0.950 . S
H3407 C3431 0.951 . S
H3408 C3433 0.951 . S
H3409 C3435 0.950 . S
H3410 C3436 0.950 . S
H3411 C3438 0.950 . S
H3412 C3441 0.950 . S
H3413 C3442 0.950 . S
H3414 C3444 0.950 . S
H3415 C3445 0.950 . S
C3416 H3398 0.951 . S
C3416 C3417 1.366 . S
C3416 C3418 1.388 . S
C3417 C3416 1.366 . S
C3417 C3421 1.385 . S
C3418 H3399 0.951 . S
C3418 C3416 1.388 . S
C3418 C3419 1.366 . S
C3419 C3418 1.366 . S
C3419 C3420 1.414 . S
C3419 C3422 1.499 . S
C3420 H3400 0.950 . S
C3420 C3419 1.414 . S
C3420 C3421 1.374 . S
C3421 H3401 0.950 . S
C3421 C3417 1.385 . S
C3421 C3420 1.374 . S
C3422 C3419 1.499 . S
C3422 C3423 1.373 . S
C3422 C3424 1.389 . S
C3423 H3402 0.950 . S
C3423 C3422 1.373 . S
C3423 C3439 1.377 . S
C3424 C3422 1.389 . S
C3424 C3425 1.524 . S
C3424 C3438 1.377 . S
C3425 C3424 1.524 . S
C3425 C3426 1.397 . S
C3425 C3430 1.363 . S
C3426 H3403 0.950 . S
C3426 C3425 1.397 . S
C3426 C3427 1.334 . S
C3427 H3404 0.950 . S
C3427 C3426 1.334 . S
C3427 C3428 1.287 . S
C3428 C3427 1.287 . S
C3428 C3429 1.524 . S
C3428 H3447 0.913 . S
C3429 H3405 0.950 . S
C3429 C3428 1.524 . S
C3429 C3430 1.415 . S
C3430 H3406 0.950 . S
C3430 C3425 1.363 . S
C3430 C3429 1.415 . S
C3431 H3407 0.951 . S
C3431 C3432 1.366 . S
C3431 C3433 1.388 . S
C3432 C3431 1.366 . S
C3432 C3436 1.385 . S
C3433 H3408 0.951 . S
C3433 C3431 1.388 . S
C3433 C3434 1.366 . S
C3434 C3433 1.366 . S
C3434 C3435 1.414 . S
C3434 C3437 1.499 . S
C3435 H3409 0.950 . S
C3435 C3434 1.414 . S
C3435 C3436 1.374 . S
C3436 H3410 0.950 . S
C3436 C3432 1.385 . S
C3436 C3435 1.374 . S
C3437 C3434 1.499 . S
C3437 C3438 1.373 . S
C3437 C3439 1.389 . S
C3438 H3411 0.950 . S
C3438 C3424 1.377 . S
C3438 C3437 1.373 . S
C3439 C3423 1.377 . S
C3439 C3437 1.389 . S
C3439 C3440 1.524 . S
C3440 C3439 1.524 . S
C3440 C3441 1.397 . S
C3440 C3445 1.363 . S
C3441 H3412 0.950 . S
C3441 C3440 1.397 . S
C3441 C3442 1.334 . S
C3442 H3413 0.950 . S
C3442 C3441 1.334 . S
C3442 C3443 1.287 . S
C3443 C3442 1.287 . S
C3443 C3444 1.524 . S
C3443 H3446 0.999 . S
C3444 H3414 0.950 . S
C3444 C3443 1.524 . S
C3444 C3445 1.415 . S
C3445 H3415 0.950 . S
C3445 C3440 1.363 . S
C3445 C3444 1.415 . S
H3446 C3443 0.999 . S
H3447 C3428 0.913 . S
H3448 C3466 0.951 . S
H3449 C3468 0.951 . S
H3450 C3470 0.950 . S
H3451 C3471 0.950 . S
H3452 C3473 0.950 . S
H3453 C3476 0.950 . S
H3454 C3477 0.950 . S
H3455 C3479 0.950 . S
H3456 C3480 0.950 . S
H3457 C3481 0.951 . S
H3458 C3483 0.951 . S
H3459 C3485 0.950 . S
H3460 C3486 0.950 . S
H3461 C3488 0.950 . S
H3462 C3491 0.950 . S
H3463 C3492 0.950 . S
H3464 C3494 0.950 . S
H3465 C3495 0.950 . S
C3466 H3448 0.951 . S
C3466 C3467 1.366 . S
C3466 C3468 1.388 . S
C3467 C3466 1.366 . S
C3467 C3471 1.385 . S
C3468 H3449 0.951 . S
C3468 C3466 1.388 . S
C3468 C3469 1.366 . S
C3469 C3468 1.366 . S
C3469 C3470 1.414 . S
C3469 C3472 1.499 . S
C3470 H3450 0.950 . S
C3470 C3469 1.414 . S
C3470 C3471 1.374 . S
C3471 H3451 0.950 . S
C3471 C3467 1.385 . S
C3471 C3470 1.374 . S
C3472 C3469 1.499 . S
C3472 C3473 1.373 . S
C3472 C3474 1.389 . S
C3473 H3452 0.950 . S
C3473 C3472 1.373 . S
C3473 C3489 1.377 . S
C3474 C3472 1.389 . S
C3474 C3475 1.524 . S
C3474 C3488 1.377 . S
C3475 C3474 1.524 . S
C3475 C3476 1.397 . S
C3475 C3480 1.363 . S
C3476 H3453 0.950 . S
C3476 C3475 1.397 . S
C3476 C3477 1.334 . S
C3477 H3454 0.950 . S
C3477 C3476 1.334 . S
C3477 C3478 1.287 . S
C3478 C3477 1.287 . S
C3478 C3479 1.524 . S
C3478 H3497 0.913 . S
C3479 H3455 0.950 . S
C3479 C3478 1.524 . S
C3479 C3480 1.415 . S
C3480 H3456 0.950 . S
C3480 C3475 1.363 . S
C3480 C3479 1.415 . S
C3481 H3457 0.951 . S
C3481 C3482 1.366 . S
C3481 C3483 1.388 1_556 S
C3482 C3481 1.366 . S
C3482 C3486 1.385 1_556 S
C3483 H3458 0.951 . S
C3483 C3481 1.388 1_554 S
C3483 C3484 1.366 . S
C3484 C3483 1.366 . S
C3484 C3485 1.414 . S
C3484 C3487 1.499 . S
C3485 H3459 0.950 . S
C3485 C3484 1.414 . S
C3485 C3486 1.374 . S
C3486 H3460 0.950 . S
C3486 C3482 1.385 1_554 S
C3486 C3485 1.374 . S
C3487 C3484 1.499 . S
C3487 C3488 1.373 . S
C3487 C3489 1.389 . S
C3488 H3461 0.950 . S
C3488 C3474 1.377 . S
C3488 C3487 1.373 . S
C3489 C3473 1.377 . S
C3489 C3487 1.389 . S
C3489 C3490 1.524 . S
C3490 C3489 1.524 . S
C3490 C3491 1.397 . S
C3490 C3495 1.363 . S
C3491 H3462 0.950 . S
C3491 C3490 1.397 . S
C3491 C3492 1.334 1_554 S
C3492 H3463 0.950 . S
C3492 C3491 1.334 1_556 S
C3492 C3493 1.287 . S
C3493 C3492 1.287 . S
C3493 C3494 1.524 . S
C3493 H3496 0.999 . S
C3494 H3464 0.950 . S
C3494 C3493 1.524 . S
C3494 C3495 1.415 1_556 S
C3495 H3465 0.950 . S
C3495 C3490 1.363 . S
C3495 C3494 1.415 1_554 S
H3496 C3493 0.999 . S
H3497 C3478 0.913 . S
H3498 C3516 0.951 . S
H3499 C3518 0.951 . S
H3500 C3520 0.950 . S
H3501 C3521 0.950 . S
H3502 C3523 0.950 . S
H3503 C3526 0.950 . S
H3504 C3527 0.950 . S
H3505 C3529 0.950 . S
H3506 C3530 0.950 . S
H3507 C3531 0.951 . S
H3508 C3533 0.951 . S
H3509 C3535 0.950 . S
H3510 C3536 0.950 . S
H3511 C3538 0.950 . S
H3512 C3541 0.950 . S
H3513 C3542 0.950 . S
H3514 C3544 0.950 . S
H3515 C3545 0.950 . S
C3516 H3498 0.951 . S
C3516 C3517 1.366 . S
C3516 C3518 1.388 1_554 S
C3517 C3516 1.366 . S
C3517 C3521 1.385 1_554 S
C3518 H3499 0.951 . S
C3518 C3516 1.388 1_556 S
C3518 C3519 1.366 . S
C3519 C3518 1.366 . S
C3519 C3520 1.414 . S
C3519 C3522 1.499 . S
C3520 H3500 0.950 . S
C3520 C3519 1.414 . S
C3520 C3521 1.374 . S
C3521 H3501 0.950 . S
C3521 C3517 1.385 1_556 S
C3521 C3520 1.374 . S
C3522 C3519 1.499 . S
C3522 C3523 1.373 . S
C3522 C3524 1.389 . S
C3523 H3502 0.950 . S
C3523 C3522 1.373 . S
C3523 C3539 1.377 . S
C3524 C3522 1.389 . S
C3524 C3525 1.524 . S
C3524 C3538 1.377 . S
C3525 C3524 1.524 . S
C3525 C3526 1.397 . S
C3525 C3530 1.363 . S
C3526 H3503 0.950 . S
C3526 C3525 1.397 . S
C3526 C3527 1.334 1_556 S
C3527 H3504 0.950 . S
C3527 C3526 1.334 1_554 S
C3527 C3528 1.287 . S
C3528 C3527 1.287 . S
C3528 C3529 1.524 . S
C3528 H3547 0.913 . S
C3529 H3505 0.950 . S
C3529 C3528 1.524 . S
C3529 C3530 1.415 1_554 S
C3530 H3506 0.950 . S
C3530 C3525 1.363 . S
C3530 C3529 1.415 1_556 S
C3531 H3507 0.951 . S
C3531 C3532 1.366 . S
C3531 C3533 1.388 . S
C3532 C3531 1.366 . S
C3532 C3536 1.385 . S
C3533 H3508 0.951 . S
C3533 C3531 1.388 . S
C3533 C3534 1.366 . S
C3534 C3533 1.366 . S
C3534 C3535 1.414 . S
C3534 C3537 1.499 . S
C3535 H3509 0.950 . S
C3535 C3534 1.414 . S
C3535 C3536 1.374 . S
C3536 H3510 0.950 . S
C3536 C3532 1.385 . S
C3536 C3535 1.374 . S
C3537 C3534 1.499 . S
C3537 C3538 1.373 . S
C3537 C3539 1.389 . S
C3538 H3511 0.950 . S
C3538 C3524 1.377 . S
C3538 C3537 1.373 . S
C3539 C3523 1.377 . S
C3539 C3537 1.389 . S
C3539 C3540 1.524 . S
C3540 C3539 1.524 . S
C3540 C3541 1.397 . S
C3540 C3545 1.363 . S
C3541 H3512 0.950 . S
C3541 C3540 1.397 . S
C3541 C3542 1.334 . S
C3542 H3513 0.950 . S
C3542 C3541 1.334 . S
C3542 C3543 1.287 . S
C3543 C3542 1.287 . S
C3543 C3544 1.524 . S
C3543 H3546 0.999 . S
C3544 H3514 0.950 . S
C3544 C3543 1.524 . S
C3544 C3545 1.415 . S
C3545 H3515 0.950 . S
C3545 C3540 1.363 . S
C3545 C3544 1.415 . S
H3546 C3543 0.999 . S
H3547 C3528 0.913 . S
H3548 C3566 0.951 . S
H3549 C3568 0.951 . S
H3550 C3570 0.950 . S
H3551 C3571 0.950 . S
H3552 C3573 0.950 . S
H3553 C3576 0.950 . S
H3554 C3577 0.950 . S
H3555 C3579 0.950 . S
H3556 C3580 0.950 . S
H3557 C3581 0.951 . S
H3558 C3583 0.951 . S
H3559 C3585 0.950 . S
H3560 C3586 0.950 . S
H3561 C3588 0.950 . S
H3562 C3591 0.950 . S
H3563 C3592 0.950 . S
H3564 C3594 0.950 . S
H3565 C3595 0.950 . S
C3566 H3548 0.951 . S
C3566 C3567 1.366 . S
C3566 C3568 1.388 . S
C3567 C3566 1.366 . S
C3567 C3571 1.385 . S
C3568 H3549 0.951 . S
C3568 C3566 1.388 . S
C3568 C3569 1.366 . S
C3569 C3568 1.366 . S
C3569 C3570 1.414 . S
C3569 C3572 1.499 . S
C3570 H3550 0.950 . S
C3570 C3569 1.414 . S
C3570 C3571 1.374 . S
C3571 H3551 0.950 . S
C3571 C3567 1.385 . S
C3571 C3570 1.374 . S
C3572 C3569 1.499 . S
C3572 C3573 1.373 . S
C3572 C3574 1.389 . S
C3573 H3552 0.950 . S
C3573 C3572 1.373 . S
C3573 C3589 1.377 . S
C3574 C3572 1.389 . S
C3574 C3575 1.524 . S
C3574 C3588 1.377 . S
C3575 C3574 1.524 . S
C3575 C3576 1.397 . S
C3575 C3580 1.363 . S
C3576 H3553 0.950 . S
C3576 C3575 1.397 . S
C3576 C3577 1.334 . S
C3577 H3554 0.950 . S
C3577 C3576 1.334 . S
C3577 C3578 1.287 . S
C3578 C3577 1.287 . S
C3578 C3579 1.524 . S
C3578 H3597 0.913 . S
C3579 H3555 0.950 . S
C3579 C3578 1.524 . S
C3579 C3580 1.415 . S
C3580 H3556 0.950 . S
C3580 C3575 1.363 . S
C3580 C3579 1.415 . S
C3581 H3557 0.951 . S
C3581 C3582 1.366 . S
C3581 C3583 1.388 . S
C3582 C3581 1.366 . S
C3582 C3586 1.385 . S
C3583 H3558 0.951 . S
C3583 C3581 1.388 . S
C3583 C3584 1.366 . S
C3584 C3583 1.366 . S
C3584 C3585 1.414 . S
C3584 C3587 1.499 . S
C3585 H3559 0.950 . S
C3585 C3584 1.414 . S
C3585 C3586 1.374 . S
C3586 H3560 0.950 . S
C3586 C3582 1.385 . S
C3586 C3585 1.374 . S
C3587 C3584 1.499 . S
C3587 C3588 1.373 . S
C3587 C3589 1.389 . S
C3588 H3561 0.950 . S
C3588 C3574 1.377 . S
C3588 C3587 1.373 . S
C3589 C3573 1.377 . S
C3589 C3587 1.389 . S
C3589 C3590 1.524 . S
C3590 C3589 1.524 . S
C3590 C3591 1.397 . S
C3590 C3595 1.363 . S
C3591 H3562 0.950 . S
C3591 C3590 1.397 . S
C3591 C3592 1.334 . S
C3592 H3563 0.950 . S
C3592 C3591 1.334 . S
C3592 C3593 1.287 . S
C3593 C3592 1.287 . S
C3593 C3594 1.524 . S
C3593 H3596 0.999 . S
C3594 H3564 0.950 . S
C3594 C3593 1.524 . S
C3594 C3595 1.415 . S
C3595 H3565 0.950 . S
C3595 C3590 1.363 . S
C3595 C3594 1.415 . S
H3596 C3593 0.999 . S
H3597 C3578 0.913 . S
H3598 C3616 0.951 . S
H3599 C3618 0.951 . S
H3600 C3620 0.950 . S
H3601 C3621 0.950 . S
H3602 C3623 0.950 . S
H3603 C3626 0.950 . S
H3604 C3627 0.950 . S
H3605 C3629 0.950 . S
H3606 C3630 0.950 . S
H3607 C3631 0.951 . S
H3608 C3633 0.951 . S
H3609 C3635 0.950 . S
H3610 C3636 0.950 . S
H3611 C3638 0.950 . S
H3612 C3641 0.950 . S
H3613 C3642 0.950 . S
H3614 C3644 0.950 . S
H3615 C3645 0.950 . S
C3616 H3598 0.951 . S
C3616 C3617 1.366 . S
C3616 C3618 1.388 . S
C3617 C3616 1.366 . S
C3617 C3621 1.385 . S
C3618 H3599 0.951 . S
C3618 C3616 1.388 . S
C3618 C3619 1.366 . S
C3619 C3618 1.366 . S
C3619 C3620 1.414 . S
C3619 C3622 1.499 . S
C3620 H3600 0.950 . S
C3620 C3619 1.414 . S
C3620 C3621 1.374 . S
C3621 H3601 0.950 . S
C3621 C3617 1.385 . S
C3621 C3620 1.374 . S
C3622 C3619 1.499 . S
C3622 C3623 1.373 . S
C3622 C3624 1.389 . S
C3623 H3602 0.950 . S
C3623 C3622 1.373 . S
C3623 C3639 1.377 . S
C3624 C3622 1.389 . S
C3624 C3625 1.524 . S
C3624 C3638 1.377 . S
C3625 C3624 1.524 . S
C3625 C3626 1.397 . S
C3625 C3630 1.363 . S
C3626 H3603 0.950 . S
C3626 C3625 1.397 . S
C3626 C3627 1.334 . S
C3627 H3604 0.950 . S
C3627 C3626 1.334 . S
C3627 C3628 1.287 . S
C3628 C3627 1.287 . S
C3628 C3629 1.524 . S
C3628 H3647 0.913 . S
C3629 H3605 0.950 . S
C3629 C3628 1.524 . S
C3629 C3630 1.415 . S
C3630 H3606 0.950 . S
C3630 C3625 1.363 . S
C3630 C3629 1.415 . S
C3631 H3607 0.951 . S
C3631 C3632 1.366 . S
C3631 C3633 1.388 . S
C3632 C3631 1.366 . S
C3632 C3636 1.385 . S
C3633 H3608 0.951 . S
C3633 C3631 1.388 . S
C3633 C3634 1.366 . S
C3634 C3633 1.366 . S
C3634 C3635 1.414 . S
C3634 C3637 1.499 . S
C3635 H3609 0.950 . S
C3635 C3634 1.414 . S
C3635 C3636 1.374 . S
C3636 H3610 0.950 . S
C3636 C3632 1.385 . S
C3636 C3635 1.374 . S
C3637 C3634 1.499 . S
C3637 C3638 1.373 . S
C3637 C3639 1.389 . S
C3638 H3611 0.950 . S
C3638 C3624 1.377 . S
C3638 C3637 1.373 . S
C3639 C3623 1.377 . S
C3639 C3637 1.389 . S
C3639 C3640 1.524 . S
C3640 C3639 1.524 . S
C3640 C3641 1.397 . S
C3640 C3645 1.363 . S
C3641 H3612 0.950 . S
C3641 C3640 1.397 . S
C3641 C3642 1.334 . S
C3642 H3613 0.950 . S
C3642 C3641 1.334 . S
C3642 C3643 1.287 . S
C3643 C3642 1.287 . S
C3643 C3644 1.524 . S
C3643 H3646 0.999 . S
C3644 H3614 0.950 . S
C3644 C3643 1.524 . S
C3644 C3645 1.415 . S
C3645 H3615 0.950 . S
C3645 C3640 1.363 . S
C3645 C3644 1.415 . S
H3646 C3643 0.999 . S
H3647 C3628 0.913 . S
C467 C93 1.278 . S
C482 C9 1.277 . S
C517 C23 1.278 . S
C532 C107 1.278 . S
C567 C65 1.278 . S
C582 C37 1.278 . S
C617 C51 1.277 . S
C632 C79 1.278 . S
C667 C121 1.278 . S
C682 C205 1.278 . S
C717 C219 1.278 . S
C732 C135 1.278 . S
C767 C149 1.277 . S
C782 C177 1.278 . S
C817 C191 1.278 . S
C832 C163 1.278 . S
C867 C233 1.277 . S
C882 C317 1.278 . S
C917 C247 1.278 . S
C932 C331 1.279 . S
C967 C289 1.277 . S
C982 C261 1.278 . S
C1017 C303 1.278 . S
C1032 C275 1.279 . S
C1067 C345 1.277 . S
C1082 C429 1.278 . S
C1117 C359 1.278 . S
C1132 C443 1.279 . S
C1167 C401 1.278 . S
C1182 C373 1.277 . S
C1217 C387 1.278 . S
C1232 C415 1.278 . S
C1267 C6 1.242 . S
C1282 C104 1.241 . S
C1317 C62 1.241 . S
C1332 C20 1.241 . S
C1367 C76 1.242 . S
C1382 C34 1.241 . S
C1417 C48 1.241 . S
C1432 C90 1.241 . S
C1467 C118 1.241 . S
C1482 C216 1.241 . S
C1517 C174 1.241 . S
C1532 C132 1.241 . S
C1567 C188 1.242 . S
C1582 C146 1.241 . S
C1617 C202 1.241 . S
C1632 C160 1.241 . S
C1667 C230 1.241 . S
C1682 C328 1.242 . S
C1717 C244 1.241 . S
C1732 C286 1.241 . S
C1767 C300 1.241 . S
C1782 C258 1.241 . S
C1817 C272 1.241 . S
C1832 C314 1.241 . S
C1867 C342 1.241 . S
C1882 C440 1.242 . S
C1917 C398 1.241 . S
C1932 C356 1.242 . S
C1967 C370 1.242 . S
C1982 C412 1.241 . S
C2017 C384 1.241 . S
C2032 C426 1.241 . S
C2067 C427 1.637 . S
C2082 C7 1.638 . S
C2117 C217 1.637 . S
C2132 C21 1.637 . S
C2167 C35 1.637 . S
C2182 C399 1.637 . S
C2217 C49 1.637 . S
C2232 C189 1.638 . S
C2267 C63 1.638 . S
C2282 C371 1.637 . S
C2317 C77 1.638 . S
C2332 C161 1.637 . S
C2367 C91 1.638 . S
C2382 C343 1.637 . S
C2417 C133 1.637 . S
C2432 C105 1.638 . S
C2467 C315 1.638 . S
C2482 C119 1.637 . S
C2517 C147 1.637 . S
C2532 C287 1.638 . S
C2567 C259 1.637 . S
C2582 C175 1.638 . S
C2617 C231 1.637 . S
C2632 C203 1.638 . S
C2667 C245 1.637 . S
C2682 C441 1.638 . S
C2717 C273 1.637 . S
C2732 C413 1.638 . S
C2767 C301 1.638 . S
C2782 C385 1.637 . S
C2817 C357 1.638 . S
C2832 C329 1.637 . S
C2867 C8 2.144 . S
C2882 C106 2.144 . S
C2917 C22 2.144 . S
C2932 C64 2.144 . S
C2967 C78 2.144 . S
C2982 C36 2.144 . S
C3017 C50 2.144 . S
C3032 C92 2.144 . S
C3067 C218 2.144 . S
C3082 C120 2.144 . S
C3117 C176 2.144 . S
C3132 C134 2.144 . S
C3167 C148 2.144 . S
C3182 C190 2.144 . S
C3217 C204 2.144 . S
C3232 C162 2.144 . S
C3267 C330 2.144 . S
C3282 C232 2.144 . S
C3317 C288 2.144 . S
C3332 C246 2.144 . S
C3367 C302 2.144 . S
C3382 C260 2.144 . S
C3417 C316 2.144 . S
C3432 C274 2.144 . S
C3467 C344 2.144 . S
C3482 C442 2.144 . S
C3517 C358 2.144 . S
C3532 C400 2.144 . S
C3567 C372 2.144 . S
C3582 C414 2.144 . S
C3617 C428 2.144 . S
C3632 C386 2.144 . S
