# Generated by pormake.
# Topology wjx, (5)-cn, num edge types: 1
# Building blocks:
#     Node 0, Type 0, BuildingBlock: XOMCOT_clean_sbu_0, # of connection points: 5
#     Node 1, Type 0, BuildingBlock: XOMCOT_clean_sbu_0, # of connection points: 5
#     Node 2, Type 0, BuildingBlock: XOMCOT_clean_sbu_0, # of connection points: 5
#     Node 3, Type 0, BuildingBlock: XOMCOT_clean_sbu_0, # of connection points: 5
#     Node 4, Type 0, BuildingBlock: XOMCOT_clean_sbu_0, # of connection points: 5
#     Node 5, Type 0, BuildingBlock: XOMCOT_clean_sbu_0, # of connection points: 5
#     Node 6, Type 0, BuildingBlock: XOMCOT_clean_sbu_0, # of connection points: 5
#     Node 7, Type 0, BuildingBlock: XOMCOT_clean_sbu_0, # of connection points: 5
#     Node 8, Type 0, BuildingBlock: XOMCOT_clean_sbu_0, # of connection points: 5
#     Node 9, Type 0, BuildingBlock: XOMCOT_clean_sbu_0, # of connection points: 5
#     Node 10, Type 0, BuildingBlock: XOMCOT_clean_sbu_0, # of connection points: 5
#     Node 11, Type 0, BuildingBlock: XOMCOT_clean_sbu_0, # of connection points: 5
#     Edge 12, Type (0, 0), BuildingBlock: EYOCIG_clean_linker_4, # of connection points: 2
#     Edge 13, Type (0, 0), BuildingBlock: EYOCIG_clean_linker_4, # of connection points: 2
#     Edge 14, Type (0, 0), BuildingBlock: EYOCIG_clean_linker_4, # of connection points: 2
#     Edge 15, Type (0, 0), BuildingBlock: EYOCIG_clean_linker_4, # of connection points: 2
#     Edge 16, Type (0, 0), BuildingBlock: EYOCIG_clean_linker_4, # of connection points: 2
#     Edge 17, Type (0, 0), BuildingBlock: EYOCIG_clean_linker_4, # of connection points: 2
#     Edge 18, Type (0, 0), BuildingBlock: EYOCIG_clean_linker_4, # of connection points: 2
#     Edge 19, Type (0, 0), BuildingBlock: EYOCIG_clean_linker_4, # of connection points: 2
#     Edge 20, Type (0, 0), BuildingBlock: EYOCIG_clean_linker_4, # of connection points: 2
#     Edge 21, Type (0, 0), BuildingBlock: EYOCIG_clean_linker_4, # of connection points: 2
#     Edge 22, Type (0, 0), BuildingBlock: EYOCIG_clean_linker_4, # of connection points: 2
#     Edge 23, Type (0, 0), BuildingBlock: EYOCIG_clean_linker_4, # of connection points: 2
#     Edge 24, Type (0, 0), BuildingBlock: EYOCIG_clean_linker_4, # of connection points: 2
#     Edge 25, Type (0, 0), BuildingBlock: EYOCIG_clean_linker_4, # of connection points: 2
#     Edge 26, Type (0, 0), BuildingBlock: EYOCIG_clean_linker_4, # of connection points: 2
#     Edge 27, Type (0, 0), BuildingBlock: EYOCIG_clean_linker_4, # of connection points: 2
#     Edge 28, Type (0, 0), BuildingBlock: EYOCIG_clean_linker_4, # of connection points: 2
#     Edge 29, Type (0, 0), BuildingBlock: EYOCIG_clean_linker_4, # of connection points: 2
#     Edge 30, Type (0, 0), BuildingBlock: EYOCIG_clean_linker_4, # of connection points: 2
#     Edge 31, Type (0, 0), BuildingBlock: EYOCIG_clean_linker_4, # of connection points: 2
#     Edge 32, Type (0, 0), BuildingBlock: EYOCIG_clean_linker_4, # of connection points: 2
#     Edge 33, Type (0, 0), BuildingBlock: EYOCIG_clean_linker_4, # of connection points: 2
#     Edge 34, Type (0, 0), BuildingBlock: EYOCIG_clean_linker_4, # of connection points: 2
#     Edge 35, Type (0, 0), BuildingBlock: EYOCIG_clean_linker_4, # of connection points: 2
#     Edge 36, Type (0, 0), BuildingBlock: EYOCIG_clean_linker_4, # of connection points: 2
#     Edge 37, Type (0, 0), BuildingBlock: EYOCIG_clean_linker_4, # of connection points: 2
#     Edge 38, Type (0, 0), BuildingBlock: EYOCIG_clean_linker_4, # of connection points: 2
#     Edge 39, Type (0, 0), BuildingBlock: EYOCIG_clean_linker_4, # of connection points: 2
#     Edge 40, Type (0, 0), BuildingBlock: EYOCIG_clean_linker_4, # of connection points: 2
#     Edge 41, Type (0, 0), BuildingBlock: EYOCIG_clean_linker_4, # of connection points: 2
# Relax obj value: 0.150
# Max RMSD: 0.138
# Mean RMSD: 0.138
data_MOF--net-wjx--node1-XOMCOT_clean_sbu_0--edge1-EYOCIG_clean_linker_4
_symmetry_space_group_name_H-M    P1
_symmetry_Int_Tables_number       1
_symmetry_cell_setting            triclinic
loop_
_symmetry_equiv_pos_as_xyz
'x, y, z'
_cell_length_a     57.339297
_cell_length_b     57.388573
_cell_length_c     14.487293
_cell_angle_alpha  90.067921
_cell_angle_beta   90.009312
_cell_angle_gamma 119.99233
loop_
_atom_site_label
_atom_site_type_symbol
_atom_site_fract_x
_atom_site_fract_y
_atom_site_fract_z
_atom_type_partial_charge
Co0 Co 0.11968 0.4288 0.13195 0.0
C1 C 0.12234 0.4304 0.33903 0.0
C2 C 0.13701 0.40595 0.27964 0.0
C3 C 0.1379 0.40431 0.37432 0.0
N4 N 0.12777 0.42274 0.25718 0.0
N5 N 0.12865 0.41966 0.41062 0.0
H6 H 0.11294 0.44246 0.34748 0.0
H7 H 0.14215 0.39507 0.23033 0.0
C8 C 0.17752 0.44297 0.12362 0.0
O9 O 0.18193 0.4566 0.20069 0.0
N10 N 0.1114 0.434 1.00729 0.0
C11 C 0.098 0.44664 0.981 0.0
C12 C 0.09715 0.44686 0.88588 0.0
C13 C 0.11843 0.42658 0.92844 0.0
N14 N 0.11001 0.43431 0.85388 0.0
C15 C 0.12373 0.47697 0.20525 0.0
C16 C 0.16801 0.5132 0.10447 0.0
C17 C 0.15526 0.52271 0.16312 0.0
C18 C 0.13293 0.50438 0.21372 0.0
C19 C 0.15808 0.48544 0.09788 0.0
N20 N 0.13676 0.46765 0.15072 0.0
H21 H 0.10513 0.46328 0.23897 0.0
H22 H 0.16678 0.47837 0.04682 0.0
H23 H 0.08973 0.45536 0.02772 0.0
H24 H 0.12964 0.41602 0.92554 0.0
O25 O 0.08364 0.41899 0.16945 0.0
O26 O 0.09587 0.39018 0.11874 0.0
O27 O 0.1542 0.43118 0.08631 0.0
C28 C 0.07698 0.39442 0.1495 0.0
H29 H 0.14411 0.39227 0.4134 0.0
H30 H 0.08809 0.45574 0.84352 0.0
H31 H 0.18474 0.52694 0.06156 0.0
H32 H 0.12198 0.5111 0.25687 0.0
Co33 Co 0.69871 0.11498 0.46757 0.0
C34 C 0.69969 0.11772 0.6746 0.0
C35 C 0.73885 0.13233 0.61562 0.0
C36 C 0.74134 0.13323 0.71032 0.0
N37 N 0.71282 0.12312 0.5929 0.0
N38 N 0.71671 0.12402 0.74635 0.0
H39 H 0.67822 0.10835 0.68282 0.0
H40 H 0.75488 0.13744 0.56646 0.0
C41 C 0.74217 0.17282 0.46 0.0
O42 O 0.73282 0.17708 0.537 0.0
N43 N 0.68524 0.10664 0.34285 0.0
C44 C 0.65918 0.09308 0.31654 0.0
C45 C 0.65808 0.09225 0.22143 0.0
C46 C 0.69966 0.11378 0.26401 0.0
N47 N 0.68348 0.10527 0.18945 0.0
C48 C 0.65436 0.1188 0.54033 0.0
C49 C 0.66242 0.16315 0.44009 0.0
C50 C 0.64018 0.15041 0.49868 0.0
C51 C 0.63614 0.12801 0.54892 0.0
C52 C 0.68025 0.1532 0.43336 0.0
N53 N 0.67674 0.13188 0.48607 0.0
H54 H 0.64948 0.10019 0.57388 0.0
H55 H 0.69603 0.16193 0.38239 0.0
H56 H 0.6422 0.08471 0.36324 0.0
H57 H 0.72144 0.12513 0.26114 0.0
O58 O 0.67265 0.07891 0.50498 0.0
O59 O 0.7138 0.09141 0.45456 0.0
O60 O 0.73075 0.14957 0.42226 0.0
C61 C 0.69073 0.07243 0.4853 0.0
H62 H 0.75958 0.13942 0.74959 0.0
H63 H 0.64011 0.08307 0.17905 0.0
H64 H 0.66543 0.17992 0.3974 0.0
H65 H 0.61847 0.11706 0.59197 0.0
Co66 Co 0.59182 0.69455 0.80022 0.0
C67 C 0.59017 0.69559 1.00724 0.0
C68 C 0.61439 0.73475 0.94825 0.0
C69 C 0.616 0.73725 0.04296 0.0
N70 N 0.59774 0.7087 0.92552 0.0
N71 N 0.6008 0.71263 0.07901 0.0
H72 H 0.57825 0.67412 1.01547 0.0
H73 H 0.6252 0.75079 0.89911 0.0
C74 C 0.57738 0.73802 0.79138 0.0
O75 O 0.56372 0.72881 0.86831 0.0
N76 N 0.58674 0.68106 0.6755 0.0
C77 C 0.57418 0.65503 0.64909 0.0
C78 C 0.57395 0.65395 0.55396 0.0
C79 C 0.59409 0.69549 0.59671 0.0
N80 N 0.58641 0.67934 0.52207 0.0
C81 C 0.54366 0.6503 0.87301 0.0
C82 C 0.50728 0.65819 0.77224 0.0
C83 C 0.49782 0.63601 0.83102 0.0
C84 C 0.51623 0.63207 0.88156 0.0
C85 C 0.53506 0.67604 0.76559 0.0
N86 N 0.55293 0.67261 0.8185 0.0
H87 H 0.55741 0.64546 0.90676 0.0
H88 H 0.54209 0.69177 0.71453 0.0
H89 H 0.56551 0.63807 0.69573 0.0
H90 H 0.60456 0.71725 0.59391 0.0
O91 O 0.60185 0.66851 0.83797 0.0
O92 O 0.63051 0.70958 0.78758 0.0
O93 O 0.58926 0.72655 0.75438 0.0
C94 C 0.62642 0.68653 0.81841 0.0
H95 H 0.62795 0.75552 0.08223 0.0
H96 H 0.5651 0.636 0.51151 0.0
H97 H 0.49349 0.66114 0.72935 0.0
H98 H 0.50955 0.61446 0.9248 0.0
Co99 Co 0.90498 0.5867 0.13609 0.0
C100 C 0.90397 0.58583 0.33991 0.0
C101 C 0.88454 0.60648 0.28398 0.0
C102 C 0.884 0.60773 0.37887 0.0
N103 N 0.89696 0.59269 0.25992 0.0
N104 N 0.89622 0.59481 0.413 0.0
H105 H 0.9149 0.575 0.34444 0.0
H106 H 0.87693 0.61549 0.23591 0.0
C107 C 0.85189 0.56674 0.0374 0.0
O108 O 0.85459 0.54763 0.99786 0.0
N109 N 0.9134 0.58137 1.01024 0.0
C110 C 0.92863 0.57078 0.982 0.0
C111 C 0.93006 0.57151 0.8872 0.0
C112 C 0.9069 0.58958 0.93176 0.0
N113 N 0.9163 0.58317 0.85652 0.0
C114 C 0.9059 0.5382 0.17149 0.0
C115 C 0.85149 0.5045 0.20042 0.0
C116 C 0.8687 0.49379 0.19982 0.0
C117 C 0.89619 0.51099 0.18736 0.0
C118 C 0.86218 0.53213 0.18429 0.0
N119 N 0.88889 0.54831 0.16371 0.0
H120 H 0.92735 0.55111 0.16687 0.0
H121 H 0.84895 0.54038 0.18932 0.0
H122 H 0.9389 0.56369 0.0259 0.0
H123 H 0.89552 0.59996 0.92949 0.0
O124 O 0.94145 0.59798 0.17297 0.0
O125 O 0.92777 0.62537 0.11966 0.0
O126 O 0.86957 0.58318 0.09399 0.0
C127 C 0.94726 0.62216 0.15099 0.0
H128 H 0.87574 0.61772 0.41965 0.0
H129 H 0.9405 0.56423 0.84411 0.0
H130 H 0.83016 0.49177 0.21359 0.0
H131 H 0.91019 0.50349 0.1903 0.0
Co132 Co 0.32527 0.9003 0.46585 0.0
C133 C 0.32427 0.89764 0.67285 0.0
C134 C 0.28508 0.88278 0.61365 0.0
C135 C 0.2826 0.88192 0.70835 0.0
N136 N 0.31114 0.89213 0.59106 0.0
N137 N 0.30724 0.89128 0.74452 0.0
H138 H 0.34576 0.90714 0.68119 0.0
H139 H 0.26903 0.87757 0.56442 0.0
C140 C 0.28185 0.84242 0.45707 0.0
O141 O 0.29107 0.83807 0.53417 0.0
N142 N 0.33877 0.90869 0.34125 0.0
C143 C 0.36483 0.92227 0.31511 0.0
C144 C 0.36593 0.92316 0.22 0.0
C145 C 0.32435 0.90158 0.26232 0.0
N146 N 0.34053 0.91014 0.18786 0.0
C147 C 0.36965 0.89659 0.53889 0.0
C148 C 0.36168 0.85221 0.43861 0.0
C149 C 0.38388 0.86498 0.49751 0.0
C150 C 0.38788 0.88739 0.54776 0.0
C151 C 0.34384 0.86214 0.43162 0.0
N152 N 0.3473 0.88348 0.48436 0.0
H153 H 0.3745 0.9152 0.57251 0.0
H154 H 0.32809 0.85339 0.38046 0.0
H155 H 0.3818 0.93064 0.36192 0.0
H156 H 0.30258 0.89023 0.2593 0.0
O157 O 0.35127 0.93638 0.50372 0.0
O158 O 0.31012 0.92381 0.45297 0.0
O159 O 0.2933 0.86571 0.41991 0.0
C160 C 0.33316 0.94282 0.48395 0.0
H161 H 0.26433 0.87564 0.74752 0.0
H162 H 0.3839 0.93236 0.17774 0.0
H163 H 0.35871 0.83543 0.39592 0.0
H164 H 0.40552 0.89837 0.59106 0.0
Co165 Co 0.4328 0.32093 0.79894 0.0
C166 C 0.43452 0.31994 1.00595 0.0
C167 C 0.4103 0.28077 0.94665 0.0
C168 C 0.40868 0.27828 0.04133 0.0
N169 N 0.42695 0.30682 0.92413 0.0
N170 N 0.42388 0.30291 0.07757 0.0
H171 H 0.44641 0.34142 1.01434 0.0
H172 H 0.39948 0.26472 0.89738 0.0
C173 C 0.44729 0.27756 0.78994 0.0
O174 O 0.46102 0.28688 0.86679 0.0
N175 N 0.43779 0.33439 0.67434 0.0
C176 C 0.45024 0.36042 0.64821 0.0
C177 C 0.45045 0.36151 0.55311 0.0
C178 C 0.43047 0.31997 0.5954 0.0
N179 N 0.43808 0.33612 0.52095 0.0
C180 C 0.48103 0.36521 0.87175 0.0
C181 C 0.51725 0.35739 0.76968 0.0
C182 C 0.52678 0.37962 0.82845 0.0
C183 C 0.50846 0.38351 0.87972 0.0
C184 C 0.48947 0.33947 0.76362 0.0
N185 N 0.47169 0.34289 0.81708 0.0
H186 H 0.46731 0.37002 0.90593 0.0
H187 H 0.48237 0.32371 0.71246 0.0
H188 H 0.45887 0.37738 0.69504 0.0
H189 H 0.42009 0.29821 0.59236 0.0
O190 O 0.42278 0.34695 0.83698 0.0
O191 O 0.39412 0.30583 0.78634 0.0
O192 O 0.43536 0.28895 0.75292 0.0
C193 C 0.39821 0.32888 0.81736 0.0
H194 H 0.39673 0.26003 0.08045 0.0
H195 H 0.45922 0.37946 0.51086 0.0
H196 H 0.53096 0.35447 0.72626 0.0
H197 H 0.5152 0.40116 0.92298 0.0
Co198 Co 0.59144 0.90005 0.57354 0.0
C199 C 0.58976 0.89737 0.36652 0.0
C200 C 0.6141 0.88252 0.42555 0.0
C201 C 0.61573 0.88168 0.33084 0.0
N202 N 0.59737 0.89184 0.44825 0.0
N203 N 0.60045 0.89103 0.29477 0.0
H204 H 0.57778 0.90687 0.35829 0.0
H205 H 0.62495 0.87732 0.47472 0.0
C206 C 0.5771 0.84219 0.58217 0.0
O207 O 0.56346 0.83774 0.50513 0.0
N208 N 0.58635 0.90846 0.69821 0.0
C209 C 0.57384 0.922 0.72446 0.0
C210 C 0.57361 0.92289 0.81958 0.0
C211 C 0.59369 0.90139 0.77709 0.0
N212 N 0.58604 0.90992 0.85162 0.0
C213 C 0.54329 0.89621 0.50061 0.0
C214 C 0.50693 0.85192 0.60094 0.0
C215 C 0.49747 0.86468 0.54228 0.0
C216 C 0.51586 0.88703 0.49197 0.0
C217 C 0.53471 0.86183 0.60771 0.0
N218 N 0.55256 0.88314 0.55501 0.0
H219 H 0.55703 0.9148 0.46701 0.0
H220 H 0.54174 0.85309 0.65871 0.0
H221 H 0.56519 0.93032 0.67772 0.0
H222 H 0.60414 0.89007 0.78002 0.0
O223 O 0.60144 0.93609 0.53586 0.0
O224 O 0.63012 0.92366 0.58643 0.0
O225 O 0.58892 0.86551 0.61932 0.0
C226 C 0.62601 0.94261 0.55556 0.0
H227 H 0.62774 0.87543 0.2916 0.0
H228 H 0.56481 0.93205 0.86192 0.0
H229 H 0.49314 0.83517 0.64366 0.0
H230 H 0.50918 0.898 0.44883 0.0
Co231 Co 0.69996 0.58716 0.90016 0.0
C232 C 0.70093 0.58555 0.69294 0.0
C233 C 0.73978 0.6113 0.75251 0.0
C234 C 0.74232 0.61302 0.65789 0.0
N235 N 0.71392 0.59371 0.77479 0.0
N236 N 0.7179 0.59685 0.62152 0.0
H237 H 0.67957 0.57258 0.68432 0.0
H238 H 0.75564 0.62258 0.80198 0.0
C239 C 0.74319 0.57255 0.90204 0.0
O240 O 0.73313 0.55933 0.82476 0.0
N241 N 0.68664 0.58153 0.02496 0.0
C242 C 0.6606 0.56893 0.05133 0.0
C243 C 0.65956 0.56867 0.1464 0.0
C244 C 0.70113 0.5889 0.10369 0.0
N245 N 0.68499 0.58118 0.17825 0.0
C246 C 0.65537 0.5393 0.82663 0.0
C247 C 0.6634 0.5027 0.92514 0.0
C248 C 0.64093 0.49342 0.86763 0.0
C249 C 0.63692 0.51193 0.81816 0.0
C250 C 0.68145 0.53041 0.93178 0.0
N251 N 0.67793 0.54839 0.88001 0.0
H252 H 0.65054 0.55317 0.79378 0.0
H253 H 0.69741 0.5373 0.98213 0.0
H254 H 0.64359 0.56036 1.00467 0.0
H255 H 0.72292 0.59953 0.10644 0.0
O256 O 0.6738 0.5973 0.86481 0.0
O257 O 0.71498 0.62578 0.91532 0.0
O258 O 0.73218 0.58434 0.94306 0.0
C259 C 0.69185 0.62178 0.88534 0.0
H260 H 0.76046 0.62561 0.61888 0.0
H261 H 0.64163 0.55989 0.18884 0.0
H262 H 0.66641 0.48882 0.96721 0.0
H263 H 0.6191 0.50539 0.77593 0.0
Co264 Co 0.11948 0.69486 0.2378 0.0
C265 C 0.12223 0.69579 0.03087 0.0
C266 C 0.13742 0.73502 0.08997 0.0
C267 C 0.13832 0.73747 0.99528 0.0
N268 N 0.12784 0.70895 0.11262 0.0
N269 N 0.12874 0.7128 0.95916 0.0
H270 H 0.11252 0.6743 0.02259 0.0
H271 H 0.14274 0.7511 0.13916 0.0
C272 C 0.17748 0.73808 0.24715 0.0
O273 O 0.18189 0.72879 0.17025 0.0
N274 N 0.11091 0.68138 0.36237 0.0
C275 C 0.09714 0.65535 0.38838 0.0
C276 C 0.09627 0.65422 0.48349 0.0
C277 C 0.11814 0.69577 0.44138 0.0
N278 N 0.10947 0.67959 0.51576 0.0
C279 C 0.12311 0.65041 0.16504 0.0
C280 C 0.16737 0.65825 0.26587 0.0
C281 C 0.15464 0.63609 0.20681 0.0
C282 C 0.13227 0.63215 0.15632 0.0
C283 C 0.15748 0.67611 0.27273 0.0
N284 N 0.13621 0.67273 0.21968 0.0
H285 H 0.10453 0.64562 0.1312 0.0
H286 H 0.16621 0.69184 0.32397 0.0
H287 H 0.08867 0.6384 0.34149 0.0
H288 H 0.12968 0.71752 0.44452 0.0
O289 O 0.08336 0.669 0.19959 0.0
O290 O 0.09607 0.71015 0.25025 0.0
O291 O 0.15413 0.72673 0.28401 0.0
C292 C 0.07701 0.68717 0.21911 0.0
H293 H 0.14474 0.75573 0.95606 0.0
H294 H 0.08695 0.63626 0.52565 0.0
H295 H 0.18411 0.66118 0.30876 0.0
H296 H 0.12131 0.61454 0.1129 0.0
Co297 Co 0.43256 0.1152 0.57238 0.0
C298 C 0.43424 0.11789 0.36537 0.0
C299 C 0.40987 0.13268 0.42456 0.0
C300 C 0.40825 0.13357 0.32987 0.0
N301 N 0.4266 0.12337 0.44715 0.0
N302 N 0.42356 0.12424 0.2937 0.0
H303 H 0.44624 0.10842 0.35702 0.0
H304 H 0.39901 0.13787 0.47379 0.0
C305 C 0.447 0.17304 0.58097 0.0
O306 O 0.46063 0.17737 0.504 0.0
N307 N 0.43766 0.10684 0.69702 0.0
C308 C 0.45018 0.09331 0.72323 0.0
C309 C 0.45041 0.09245 0.81834 0.0
C310 C 0.43033 0.11394 0.77591 0.0
N311 N 0.43799 0.10543 0.85041 0.0
C312 C 0.48072 0.11906 0.49953 0.0
C313 C 0.51704 0.16333 0.60054 0.0
C314 C 0.52653 0.1506 0.54173 0.0
C315 C 0.50816 0.12826 0.49107 0.0
C316 C 0.48926 0.1534 0.60712 0.0
N317 N 0.47143 0.13211 0.55408 0.0
H318 H 0.46699 0.10047 0.46569 0.0
H319 H 0.48221 0.1621 0.65827 0.0
H320 H 0.45882 0.08497 0.67646 0.0
H321 H 0.41989 0.12526 0.77887 0.0
O322 O 0.42253 0.07915 0.53455 0.0
O323 O 0.39389 0.09163 0.58514 0.0
O324 O 0.43513 0.14976 0.6182 0.0
C325 C 0.39797 0.07266 0.55421 0.0
H326 H 0.39625 0.13983 0.29069 0.0
H327 H 0.45921 0.0833 0.86065 0.0
H328 H 0.53081 0.18006 0.64353 0.0
H329 H 0.51487 0.11732 0.44782 0.0
Co330 Co 0.32537 0.42842 0.90606 0.0
C331 C 0.32436 0.43001 0.69904 0.0
C332 C 0.28516 0.40581 0.75808 0.0
C333 C 0.28267 0.40414 0.66337 0.0
N334 N 0.31123 0.42247 0.78078 0.0
N335 N 0.30731 0.41934 0.6273 0.0
H336 H 0.34584 0.44193 0.6908 0.0
H337 H 0.2691 0.39502 0.80724 0.0
C338 C 0.28194 0.44289 0.91475 0.0
O339 O 0.29116 0.45649 0.83777 0.0
N340 N 0.33888 0.4335 0.03075 0.0
C341 C 0.36493 0.44596 0.05707 0.0
C342 C 0.36602 0.44613 0.15219 0.0
C343 C 0.32444 0.42614 0.10957 0.0
N344 N 0.34061 0.43373 0.18415 0.0
C345 C 0.36973 0.47647 0.8332 0.0
C346 C 0.36185 0.51289 0.93379 0.0
C347 C 0.38405 0.5223 0.87498 0.0
C348 C 0.38799 0.50387 0.82455 0.0
C349 C 0.34398 0.48514 0.94055 0.0
N350 N 0.3474 0.46726 0.88771 0.0
H351 H 0.37455 0.4627 0.7995 0.0
H352 H 0.32822 0.47815 0.99162 0.0
H353 H 0.38191 0.45459 1.01038 0.0
H354 H 0.30267 0.41571 0.11244 0.0
O355 O 0.35137 0.41832 0.8683 0.0
O356 O 0.31023 0.38977 0.91882 0.0
O357 O 0.2934 0.43105 0.9519 0.0
C358 C 0.33327 0.3938 0.88794 0.0
H359 H 0.26439 0.39217 0.62412 0.0
H360 H 0.38399 0.45488 0.19458 0.0
H361 H 0.35891 0.5267 0.97661 0.0
H362 H 0.40561 0.51051 0.78129 0.0
Co363 Co 0.90427 0.32159 0.24389 0.0
C364 C 0.90132 0.32093 0.03706 0.0
C365 C 0.88558 0.28157 0.09523 0.0
C366 C 0.8848 0.27922 1.00053 0.0
N367 N 0.89538 0.30765 0.1185 0.0
N368 N 0.89472 0.30396 0.96498 0.0
H369 H 0.9115 0.34246 0.02939 0.0
H370 H 0.88019 0.26541 0.14397 0.0
C371 C 0.84654 0.27811 0.25536 0.0
O372 O 0.8417 0.28782 0.18041 0.0
N373 N 0.91344 0.33492 0.36858 0.0
C374 C 0.92754 0.36095 0.39476 0.0
C375 C 0.92859 0.3621 0.48982 0.0
C376 C 0.90618 0.32055 0.44748 0.0
N377 N 0.91514 0.33675 0.52192 0.0
C378 C 0.8989 0.36552 0.17515 0.0
C379 C 0.85655 0.35766 0.28709 0.0
C380 C 0.86842 0.38004 0.22902 0.0
C381 C 0.88973 0.3839 0.17242 0.0
C382 C 0.86639 0.3397 0.28781 0.0
N383 N 0.8868 0.3432 0.23 0.0
H384 H 0.91692 0.37039 0.13744 0.0
H385 H 0.85849 0.32391 0.33877 0.0
H386 H 0.93602 0.37789 0.34799 0.0
H387 H 0.8943 0.29882 0.45056 0.0
O388 O 0.94002 0.34799 0.2041 0.0
O389 O 0.92824 0.30688 0.25259 0.0
O390 O 0.87011 0.28929 0.2907 0.0
C391 C 0.94688 0.33007 0.22161 0.0
H392 H 0.87834 0.26098 0.96094 0.0
H393 H 0.93808 0.38007 0.5321 0.0
H394 H 0.84064 0.3547 0.33432 0.0
H395 H 0.90003 0.40164 0.12934 0.0
C396 C 0.02584 0.35845 0.17483 0.0
C397 C 0.04957 0.37321 0.16086 0.0
C398 C 0.99783 0.34477 0.19281 0.0
C399 C 0.97423 0.33626 0.20794 0.0
C400 C 0.67628 0.02153 0.51147 0.0
C401 C 0.68486 0.04516 0.49721 0.0
C402 C 0.66235 0.99355 0.52935 0.0
C403 C 0.64738 0.9699 0.54366 0.0
C404 C 0.67705 0.65809 0.86157 0.0
C405 C 0.68586 0.64316 0.87485 0.0
C406 C 0.66289 0.67199 0.84434 0.0
C407 C 0.64781 0.68058 0.83023 0.0
C408 C 0.02614 0.67305 0.19226 0.0
C409 C 0.04977 0.68148 0.20681 0.0
C410 C 0.99811 0.65917 0.17458 0.0
C411 C 0.97442 0.64403 0.16105 0.0
C412 C 0.36157 0.02172 0.528 0.0
C413 C 0.37658 0.04537 0.5423 0.0
C414 C 0.3476 0.99373 0.51014 0.0
C415 C 0.33901 0.97009 0.49585 0.0
C416 C 0.34775 0.35735 0.8617 0.0
C417 C 0.33913 0.37238 0.87602 0.0
C418 C 0.36176 0.34336 0.84379 0.0
C419 C 0.3768 0.33476 0.82941 0.0
C420 C 0.11786 0.42802 0.68042 0.0
C421 C 0.11438 0.43078 0.76091 0.0
C422 C 0.12172 0.42514 0.58565 0.0
C423 C 0.1249 0.42265 0.50467 0.0
C424 C 0.70426 0.11708 0.92127 0.0
C425 C 0.70993 0.12026 0.84033 0.0
C426 C 0.69754 0.11319 1.01601 0.0
C427 C 0.69134 0.10968 0.09649 0.0
C428 C 0.59257 0.69344 0.34867 0.0
C429 C 0.58986 0.68721 0.42913 0.0
C430 C 0.5954 0.70019 0.25395 0.0
C431 C 0.59785 0.70587 0.173 0.0
C432 C 0.90834 0.5889 0.68297 0.0
C433 C 0.91168 0.58652 0.76379 0.0
C434 C 0.90441 0.59073 0.5877 0.0
C435 C 0.90083 0.59238 0.50655 0.0
C436 C 0.32646 0.90224 1.01431 0.0
C437 C 0.33267 0.90574 0.09483 0.0
C438 C 0.31971 0.89832 0.91953 0.0
C439 C 0.31402 0.8951 0.83855 0.0
C440 C 0.4292 0.31535 0.2526 0.0
C441 C 0.42679 0.30968 0.1716 0.0
C442 C 0.43198 0.32207 0.34739 0.0
C443 C 0.43465 0.32827 0.42793 0.0
C444 C 0.59222 0.90203 0.0251 0.0
C445 C 0.5895 0.90553 0.94461 0.0
C446 C 0.59505 0.89812 0.11984 0.0
C447 C 0.5975 0.89487 0.20079 0.0
C448 C 0.70566 0.59082 0.44646 0.0
C449 C 0.71122 0.59354 0.52748 0.0
C450 C 0.69905 0.58775 0.35166 0.0
C451 C 0.69289 0.58488 0.27116 0.0
C452 C 0.11755 0.69359 0.68937 0.0
C453 C 0.11397 0.68741 0.60882 0.0
C454 C 0.12154 0.70031 0.78417 0.0
C455 C 0.12484 0.706 0.86515 0.0
C456 C 0.42899 0.11724 0.1187 0.0
C457 C 0.42653 0.12044 0.19968 0.0
C458 C 0.43182 0.11334 0.02392 0.0
C459 C 0.43453 0.10983 0.94341 0.0
C460 C 0.31977 0.42468 0.45235 0.0
C461 C 0.31408 0.42225 0.5333 0.0
C462 C 0.32652 0.4275 0.35761 0.0
C463 C 0.33274 0.43024 0.27712 0.0
C464 C 0.90677 0.32297 0.69546 0.0
C465 C 0.91047 0.32902 0.61491 0.0
C466 C 0.90256 0.31643 0.79025 0.0
C467 C 0.899 0.31083 0.87117 0.0
C468 C 0.16688 0.57323 0.17748 0.0
C469 C 0.16316 0.55079 0.16662 0.0
C470 C 0.16667 0.59747 0.19155 0.0
C471 C 0.16267 0.61601 0.20262 0.0
C472 C 0.60148 0.16236 0.5134 0.0
C473 C 0.62008 0.15843 0.50252 0.0
C474 C 0.57715 0.16242 0.5273 0.0
C475 C 0.55464 0.15857 0.53811 0.0
C476 C 0.4472 0.59723 0.84583 0.0
C477 C 0.4697 0.61587 0.83483 0.0
C478 C 0.42285 0.57288 0.85997 0.0
C479 C 0.40421 0.55039 0.87102 0.0
C480 C 0.85644 0.41895 0.22887 0.0
C481 C 0.86073 0.40042 0.23263 0.0
C482 C 0.85564 0.44311 0.22175 0.0
C483 C 0.85904 0.4655 0.21275 0.0
C484 C 0.44687 0.85293 0.52729 0.0
C485 C 0.46936 0.85673 0.53839 0.0
C486 C 0.42257 0.85302 0.51298 0.0
C487 C 0.40398 0.85696 0.50175 0.0
C488 C 0.60184 0.44291 0.85413 0.0
C489 C 0.62059 0.46538 0.86426 0.0
C490 C 0.57741 0.41854 0.84129 0.0
C491 C 0.55487 0.39986 0.8313 0.0
C492 C 0.24026 0.44189 0.99733 0.0
C493 C 0.25928 0.44228 0.95994 0.0
C494 C 0.21817 0.4419 0.0411 0.0
C495 C 0.19954 0.44231 0.07843 0.0
C496 C 0.80614 0.23596 0.33664 0.0
C497 C 0.82474 0.2552 0.30016 0.0
C498 C 0.78401 0.21367 0.37916 0.0
C499 C 0.76491 0.19491 0.41558 0.0
C500 C 0.57823 0.80162 0.6648 0.0
C501 C 0.57779 0.82021 0.6274 0.0
C502 C 0.5783 0.77959 0.70859 0.0
C503 C 0.57796 0.76061 0.74601 0.0
C504 C 0.80913 0.57103 0.99643 0.0
C505 C 0.82876 0.56936 1.01591 0.0
C506 C 0.78614 0.5725 0.96914 0.0
C507 C 0.76656 0.57309 0.94129 0.0
C508 C 0.24024 0.80173 0.37415 0.0
C509 C 0.25923 0.82037 0.41172 0.0
C510 C 0.21817 0.77967 0.33014 0.0
C511 C 0.19954 0.76068 0.29255 0.0
C512 C 0.44619 0.23586 0.70738 0.0
C513 C 0.44663 0.2549 0.74479 0.0
C514 C 0.44612 0.21376 0.66356 0.0
C515 C 0.44646 0.1951 0.62616 0.0
loop_
_geom_bond_atom_site_label_1
_geom_bond_atom_site_label_2
_geom_bond_distance
_geom_bond_site_symmetry_2
_ccdc_geom_bond_type
Co0 N4 2.148 . S
Co0 N10 2.128 1_554 S
Co0 N20 2.194 . S
Co0 O25 2.351 . S
Co0 O26 2.155 . S
Co0 O27 2.096 . S
C1 N4 1.301 . S
C1 N5 1.328 . S
C1 H6 0.930 . S
C2 C3 1.333 . S
C2 N4 1.317 . S
C2 H7 0.930 . S
C3 C2 1.333 . S
C3 N5 1.350 . S
C3 H29 0.931 . S
N4 Co0 2.148 . S
N4 C1 1.301 . S
N4 C2 1.317 . S
N5 C1 1.328 . S
N5 C3 1.350 . S
H6 C1 0.930 . S
H7 C2 0.930 . S
C8 O9 1.224 . S
C8 O27 1.247 . S
O9 C8 1.224 . S
N10 Co0 2.128 1_556 S
N10 C11 1.355 . S
N10 C13 1.311 . S
C11 N10 1.355 . S
C11 C12 1.363 . S
C11 H23 0.929 . S
C12 C11 1.363 . S
C12 N14 1.375 . S
C12 H30 0.931 . S
C13 N10 1.311 . S
C13 N14 1.347 . S
C13 H24 0.929 . S
N14 C12 1.375 . S
N14 C13 1.347 . S
C15 C18 1.365 . S
C15 N20 1.328 . S
C15 H21 0.929 . S
C16 C17 1.362 . S
C16 C19 1.378 . S
C16 H31 0.929 . S
C17 C16 1.362 . S
C17 C18 1.366 . S
C18 C15 1.365 . S
C18 C17 1.366 . S
C18 H32 0.930 . S
C19 C16 1.378 . S
C19 N20 1.315 . S
C19 H22 0.930 . S
N20 Co0 2.194 . S
N20 C15 1.328 . S
N20 C19 1.315 . S
H21 C15 0.929 . S
H22 C19 0.930 . S
H23 C11 0.929 . S
H24 C13 0.929 . S
O25 Co0 2.351 . S
O25 C28 1.244 . S
O26 Co0 2.155 . S
O26 C28 1.240 . S
O27 Co0 2.096 . S
O27 C8 1.247 . S
C28 O25 1.244 . S
C28 O26 1.240 . S
H29 C3 0.931 . S
H30 C12 0.931 . S
H31 C16 0.929 . S
H32 C18 0.930 . S
Co33 N37 2.148 . S
Co33 N43 2.128 . S
Co33 N53 2.194 . S
Co33 O58 2.351 . S
Co33 O59 2.155 . S
Co33 O60 2.096 . S
C34 N37 1.301 . S
C34 N38 1.328 . S
C34 H39 0.930 . S
C35 C36 1.333 . S
C35 N37 1.317 . S
C35 H40 0.930 . S
C36 C35 1.333 . S
C36 N38 1.350 . S
C36 H62 0.931 . S
N37 Co33 2.148 . S
N37 C34 1.301 . S
N37 C35 1.317 . S
N38 C34 1.328 . S
N38 C36 1.350 . S
H39 C34 0.930 . S
H40 C35 0.930 . S
C41 O42 1.224 . S
C41 O60 1.247 . S
O42 C41 1.224 . S
N43 Co33 2.128 . S
N43 C44 1.355 . S
N43 C46 1.311 . S
C44 N43 1.355 . S
C44 C45 1.363 . S
C44 H56 0.929 . S
C45 C44 1.363 . S
C45 N47 1.375 . S
C45 H63 0.931 . S
C46 N43 1.311 . S
C46 N47 1.347 . S
C46 H57 0.929 . S
N47 C45 1.375 . S
N47 C46 1.347 . S
C48 C51 1.365 . S
C48 N53 1.328 . S
C48 H54 0.929 . S
C49 C50 1.362 . S
C49 C52 1.378 . S
C49 H64 0.929 . S
C50 C49 1.362 . S
C50 C51 1.366 . S
C51 C48 1.365 . S
C51 C50 1.366 . S
C51 H65 0.930 . S
C52 C49 1.378 . S
C52 N53 1.315 . S
C52 H55 0.930 . S
N53 Co33 2.194 . S
N53 C48 1.328 . S
N53 C52 1.315 . S
H54 C48 0.929 . S
H55 C52 0.930 . S
H56 C44 0.929 . S
H57 C46 0.929 . S
O58 Co33 2.351 . S
O58 C61 1.244 . S
O59 Co33 2.155 . S
O59 C61 1.240 . S
O60 Co33 2.096 . S
O60 C41 1.247 . S
C61 O58 1.244 . S
C61 O59 1.240 . S
H62 C36 0.931 . S
H63 C45 0.931 . S
H64 C49 0.929 . S
H65 C51 0.930 . S
Co66 N70 2.148 . S
Co66 N76 2.128 . S
Co66 N86 2.194 . S
Co66 O91 2.351 . S
Co66 O92 2.155 . S
Co66 O93 2.096 . S
C67 N70 1.301 . S
C67 N71 1.328 1_556 S
C67 H72 0.930 . S
C68 C69 1.333 1_556 S
C68 N70 1.317 . S
C68 H73 0.930 . S
C69 C68 1.333 1_554 S
C69 N71 1.350 . S
C69 H95 0.931 . S
N70 Co66 2.148 . S
N70 C67 1.301 . S
N70 C68 1.317 . S
N71 C67 1.328 1_554 S
N71 C69 1.350 . S
H72 C67 0.930 . S
H73 C68 0.930 . S
C74 O75 1.224 . S
C74 O93 1.247 . S
O75 C74 1.224 . S
N76 Co66 2.128 . S
N76 C77 1.355 . S
N76 C79 1.311 . S
C77 N76 1.355 . S
C77 C78 1.363 . S
C77 H89 0.929 . S
C78 C77 1.363 . S
C78 N80 1.375 . S
C78 H96 0.931 . S
C79 N76 1.311 . S
C79 N80 1.347 . S
C79 H90 0.929 . S
N80 C78 1.375 . S
N80 C79 1.347 . S
C81 C84 1.365 . S
C81 N86 1.328 . S
C81 H87 0.929 . S
C82 C83 1.362 . S
C82 C85 1.378 . S
C82 H97 0.929 . S
C83 C82 1.362 . S
C83 C84 1.366 . S
C84 C81 1.365 . S
C84 C83 1.366 . S
C84 H98 0.930 . S
C85 C82 1.378 . S
C85 N86 1.315 . S
C85 H88 0.930 . S
N86 Co66 2.194 . S
N86 C81 1.328 . S
N86 C85 1.315 . S
H87 C81 0.929 . S
H88 C85 0.930 . S
H89 C77 0.929 . S
H90 C79 0.929 . S
O91 Co66 2.351 . S
O91 C94 1.244 . S
O92 Co66 2.155 . S
O92 C94 1.240 . S
O93 Co66 2.096 . S
O93 C74 1.247 . S
C94 O91 1.244 . S
C94 O92 1.240 . S
H95 C69 0.931 . S
H96 C78 0.931 . S
H97 C82 0.929 . S
H98 C84 0.930 . S
Co99 N103 2.148 . S
Co99 N109 2.128 1_554 S
Co99 N119 2.194 . S
Co99 O124 2.351 . S
Co99 O125 2.155 . S
Co99 O126 2.096 . S
C100 N103 1.301 . S
C100 N104 1.328 . S
C100 H105 0.930 . S
C101 C102 1.333 . S
C101 N103 1.317 . S
C101 H106 0.930 . S
C102 C101 1.333 . S
C102 N104 1.350 . S
C102 H128 0.931 . S
N103 Co99 2.148 . S
N103 C100 1.301 . S
N103 C101 1.317 . S
N104 C100 1.328 . S
N104 C102 1.350 . S
H105 C100 0.930 . S
H106 C101 0.930 . S
C107 O108 1.224 . S
C107 O126 1.247 . S
O108 C107 1.224 . S
N109 Co99 2.128 1_556 S
N109 C110 1.355 . S
N109 C112 1.311 . S
C110 N109 1.355 . S
C110 C111 1.363 . S
C110 H122 0.929 . S
C111 C110 1.363 . S
C111 N113 1.375 . S
C111 H129 0.931 . S
C112 N109 1.311 . S
C112 N113 1.347 . S
C112 H123 0.929 . S
N113 C111 1.375 . S
N113 C112 1.347 . S
C114 C117 1.365 . S
C114 N119 1.328 . S
C114 H120 0.929 . S
C115 C116 1.362 . S
C115 C118 1.378 . S
C115 H130 0.929 . S
C116 C115 1.362 . S
C116 C117 1.366 . S
C117 C114 1.365 . S
C117 C116 1.366 . S
C117 H131 0.930 . S
C118 C115 1.378 . S
C118 N119 1.315 . S
C118 H121 0.930 . S
N119 Co99 2.194 . S
N119 C114 1.328 . S
N119 C118 1.315 . S
H120 C114 0.929 . S
H121 C118 0.930 . S
H122 C110 0.929 . S
H123 C112 0.929 . S
O124 Co99 2.351 . S
O124 C127 1.244 . S
O125 Co99 2.155 . S
O125 C127 1.240 . S
O126 Co99 2.096 . S
O126 C107 1.247 . S
C127 O124 1.244 . S
C127 O125 1.240 . S
H128 C102 0.931 . S
H129 C111 0.931 . S
H130 C115 0.929 . S
H131 C117 0.930 . S
Co132 N136 2.148 . S
Co132 N142 2.128 . S
Co132 N152 2.194 . S
Co132 O157 2.351 . S
Co132 O158 2.155 . S
Co132 O159 2.096 . S
C133 N136 1.301 . S
C133 N137 1.328 . S
C133 H138 0.930 . S
C134 C135 1.333 . S
C134 N136 1.317 . S
C134 H139 0.930 . S
C135 C134 1.333 . S
C135 N137 1.350 . S
C135 H161 0.931 . S
N136 Co132 2.148 . S
N136 C133 1.301 . S
N136 C134 1.317 . S
N137 C133 1.328 . S
N137 C135 1.350 . S
H138 C133 0.930 . S
H139 C134 0.930 . S
C140 O141 1.224 . S
C140 O159 1.247 . S
O141 C140 1.224 . S
N142 Co132 2.128 . S
N142 C143 1.355 . S
N142 C145 1.311 . S
C143 N142 1.355 . S
C143 C144 1.363 . S
C143 H155 0.929 . S
C144 C143 1.363 . S
C144 N146 1.375 . S
C144 H162 0.931 . S
C145 N142 1.311 . S
C145 N146 1.347 . S
C145 H156 0.929 . S
N146 C144 1.375 . S
N146 C145 1.347 . S
C147 C150 1.365 . S
C147 N152 1.328 . S
C147 H153 0.929 . S
C148 C149 1.362 . S
C148 C151 1.378 . S
C148 H163 0.929 . S
C149 C148 1.362 . S
C149 C150 1.366 . S
C150 C147 1.365 . S
C150 C149 1.366 . S
C150 H164 0.930 . S
C151 C148 1.378 . S
C151 N152 1.315 . S
C151 H154 0.930 . S
N152 Co132 2.194 . S
N152 C147 1.328 . S
N152 C151 1.315 . S
H153 C147 0.929 . S
H154 C151 0.930 . S
H155 C143 0.929 . S
H156 C145 0.929 . S
O157 Co132 2.351 . S
O157 C160 1.244 . S
O158 Co132 2.155 . S
O158 C160 1.240 . S
O159 Co132 2.096 . S
O159 C140 1.247 . S
C160 O157 1.244 . S
C160 O158 1.240 . S
H161 C135 0.931 . S
H162 C144 0.931 . S
H163 C148 0.929 . S
H164 C150 0.930 . S
Co165 N169 2.148 . S
Co165 N175 2.128 . S
Co165 N185 2.194 . S
Co165 O190 2.351 . S
Co165 O191 2.155 . S
Co165 O192 2.096 . S
C166 N169 1.301 . S
C166 N170 1.328 1_556 S
C166 H171 0.930 . S
C167 C168 1.333 1_556 S
C167 N169 1.317 . S
C167 H172 0.930 . S
C168 C167 1.333 1_554 S
C168 N170 1.350 . S
C168 H194 0.931 . S
N169 Co165 2.148 . S
N169 C166 1.301 . S
N169 C167 1.317 . S
N170 C166 1.328 1_554 S
N170 C168 1.350 . S
H171 C166 0.930 . S
H172 C167 0.930 . S
C173 O174 1.224 . S
C173 O192 1.247 . S
O174 C173 1.224 . S
N175 Co165 2.128 . S
N175 C176 1.355 . S
N175 C178 1.311 . S
C176 N175 1.355 . S
C176 C177 1.363 . S
C176 H188 0.929 . S
C177 C176 1.363 . S
C177 N179 1.375 . S
C177 H195 0.931 . S
C178 N175 1.311 . S
C178 N179 1.347 . S
C178 H189 0.929 . S
N179 C177 1.375 . S
N179 C178 1.347 . S
C180 C183 1.365 . S
C180 N185 1.328 . S
C180 H186 0.929 . S
C181 C182 1.362 . S
C181 C184 1.378 . S
C181 H196 0.929 . S
C182 C181 1.362 . S
C182 C183 1.366 . S
C183 C180 1.365 . S
C183 C182 1.366 . S
C183 H197 0.930 . S
C184 C181 1.378 . S
C184 N185 1.315 . S
C184 H187 0.930 . S
N185 Co165 2.194 . S
N185 C180 1.328 . S
N185 C184 1.315 . S
H186 C180 0.929 . S
H187 C184 0.930 . S
H188 C176 0.929 . S
H189 C178 0.929 . S
O190 Co165 2.351 . S
O190 C193 1.244 . S
O191 Co165 2.155 . S
O191 C193 1.240 . S
O192 Co165 2.096 . S
O192 C173 1.247 . S
C193 O190 1.244 . S
C193 O191 1.240 . S
H194 C168 0.931 . S
H195 C177 0.931 . S
H196 C181 0.929 . S
H197 C183 0.930 . S
Co198 N202 2.148 . S
Co198 N208 2.128 . S
Co198 N218 2.194 . S
Co198 O223 2.351 . S
Co198 O224 2.155 . S
Co198 O225 2.096 . S
C199 N202 1.301 . S
C199 N203 1.328 . S
C199 H204 0.930 . S
C200 C201 1.333 . S
C200 N202 1.317 . S
C200 H205 0.930 . S
C201 C200 1.333 . S
C201 N203 1.350 . S
C201 H227 0.931 . S
N202 Co198 2.148 . S
N202 C199 1.301 . S
N202 C200 1.317 . S
N203 C199 1.328 . S
N203 C201 1.350 . S
H204 C199 0.930 . S
H205 C200 0.930 . S
C206 O207 1.224 . S
C206 O225 1.247 . S
O207 C206 1.224 . S
N208 Co198 2.128 . S
N208 C209 1.355 . S
N208 C211 1.311 . S
C209 N208 1.355 . S
C209 C210 1.363 . S
C209 H221 0.929 . S
C210 C209 1.363 . S
C210 N212 1.375 . S
C210 H228 0.931 . S
C211 N208 1.311 . S
C211 N212 1.347 . S
C211 H222 0.929 . S
N212 C210 1.375 . S
N212 C211 1.347 . S
C213 C216 1.365 . S
C213 N218 1.328 . S
C213 H219 0.929 . S
C214 C215 1.362 . S
C214 C217 1.378 . S
C214 H229 0.929 . S
C215 C214 1.362 . S
C215 C216 1.366 . S
C216 C213 1.365 . S
C216 C215 1.366 . S
C216 H230 0.930 . S
C217 C214 1.378 . S
C217 N218 1.315 . S
C217 H220 0.930 . S
N218 Co198 2.194 . S
N218 C213 1.328 . S
N218 C217 1.315 . S
H219 C213 0.929 . S
H220 C217 0.930 . S
H221 C209 0.929 . S
H222 C211 0.929 . S
O223 Co198 2.351 . S
O223 C226 1.244 . S
O224 Co198 2.155 . S
O224 C226 1.240 . S
O225 Co198 2.096 . S
O225 C206 1.247 . S
C226 O223 1.244 . S
C226 O224 1.240 . S
H227 C201 0.931 . S
H228 C210 0.931 . S
H229 C214 0.929 . S
H230 C216 0.930 . S
Co231 N235 2.148 . S
Co231 N241 2.128 1_556 S
Co231 N251 2.194 . S
Co231 O256 2.351 . S
Co231 O257 2.155 . S
Co231 O258 2.096 . S
C232 N235 1.301 . S
C232 N236 1.328 . S
C232 H237 0.930 . S
C233 C234 1.333 . S
C233 N235 1.317 . S
C233 H238 0.930 . S
C234 C233 1.333 . S
C234 N236 1.350 . S
C234 H260 0.931 . S
N235 Co231 2.148 . S
N235 C232 1.301 . S
N235 C233 1.317 . S
N236 C232 1.328 . S
N236 C234 1.350 . S
H237 C232 0.930 . S
H238 C233 0.930 . S
C239 O240 1.224 . S
C239 O258 1.247 . S
O240 C239 1.224 . S
N241 Co231 2.128 1_554 S
N241 C242 1.355 . S
N241 C244 1.311 . S
C242 N241 1.355 . S
C242 C243 1.363 . S
C242 H254 0.929 . S
C243 C242 1.363 . S
C243 N245 1.375 . S
C243 H261 0.931 . S
C244 N241 1.311 . S
C244 N245 1.347 . S
C244 H255 0.929 . S
N245 C243 1.375 . S
N245 C244 1.347 . S
C246 C249 1.365 . S
C246 N251 1.328 . S
C246 H252 0.929 . S
C247 C248 1.362 . S
C247 C250 1.378 . S
C247 H262 0.929 . S
C248 C247 1.362 . S
C248 C249 1.366 . S
C249 C246 1.365 . S
C249 C248 1.366 . S
C249 H263 0.930 . S
C250 C247 1.378 . S
C250 N251 1.315 . S
C250 H253 0.930 . S
N251 Co231 2.194 . S
N251 C246 1.328 . S
N251 C250 1.315 . S
H252 C246 0.929 . S
H253 C250 0.930 . S
H254 C242 0.929 . S
H255 C244 0.929 . S
O256 Co231 2.351 . S
O256 C259 1.244 . S
O257 Co231 2.155 . S
O257 C259 1.240 . S
O258 Co231 2.096 . S
O258 C239 1.247 . S
C259 O256 1.244 . S
C259 O257 1.240 . S
H260 C234 0.931 . S
H261 C243 0.931 . S
H262 C247 0.929 . S
H263 C249 0.930 . S
Co264 N268 2.148 . S
Co264 N274 2.128 . S
Co264 N284 2.194 . S
Co264 O289 2.351 . S
Co264 O290 2.155 . S
Co264 O291 2.096 . S
C265 N268 1.301 . S
C265 N269 1.328 1_554 S
C265 H270 0.930 . S
C266 C267 1.333 1_554 S
C266 N268 1.317 . S
C266 H271 0.930 . S
C267 C266 1.333 1_556 S
C267 N269 1.350 . S
C267 H293 0.931 . S
N268 Co264 2.148 . S
N268 C265 1.301 . S
N268 C266 1.317 . S
N269 C265 1.328 1_556 S
N269 C267 1.350 . S
H270 C265 0.930 . S
H271 C266 0.930 . S
C272 O273 1.224 . S
C272 O291 1.247 . S
O273 C272 1.224 . S
N274 Co264 2.128 . S
N274 C275 1.355 . S
N274 C277 1.311 . S
C275 N274 1.355 . S
C275 C276 1.363 . S
C275 H287 0.929 . S
C276 C275 1.363 . S
C276 N278 1.375 . S
C276 H294 0.931 . S
C277 N274 1.311 . S
C277 N278 1.347 . S
C277 H288 0.929 . S
N278 C276 1.375 . S
N278 C277 1.347 . S
C279 C282 1.365 . S
C279 N284 1.328 . S
C279 H285 0.929 . S
C280 C281 1.362 . S
C280 C283 1.378 . S
C280 H295 0.929 . S
C281 C280 1.362 . S
C281 C282 1.366 . S
C282 C279 1.365 . S
C282 C281 1.366 . S
C282 H296 0.930 . S
C283 C280 1.378 . S
C283 N284 1.315 . S
C283 H286 0.930 . S
N284 Co264 2.194 . S
N284 C279 1.328 . S
N284 C283 1.315 . S
H285 C279 0.929 . S
H286 C283 0.930 . S
H287 C275 0.929 . S
H288 C277 0.929 . S
O289 Co264 2.351 . S
O289 C292 1.244 . S
O290 Co264 2.155 . S
O290 C292 1.240 . S
O291 Co264 2.096 . S
O291 C272 1.247 . S
C292 O289 1.244 . S
C292 O290 1.240 . S
H293 C267 0.931 . S
H294 C276 0.931 . S
H295 C280 0.929 . S
H296 C282 0.930 . S
Co297 N301 2.148 . S
Co297 N307 2.128 . S
Co297 N317 2.194 . S
Co297 O322 2.351 . S
Co297 O323 2.155 . S
Co297 O324 2.096 . S
C298 N301 1.301 . S
C298 N302 1.328 . S
C298 H303 0.930 . S
C299 C300 1.333 . S
C299 N301 1.317 . S
C299 H304 0.930 . S
C300 C299 1.333 . S
C300 N302 1.350 . S
C300 H326 0.931 . S
N301 Co297 2.148 . S
N301 C298 1.301 . S
N301 C299 1.317 . S
N302 C298 1.328 . S
N302 C300 1.350 . S
H303 C298 0.930 . S
H304 C299 0.930 . S
C305 O306 1.224 . S
C305 O324 1.247 . S
O306 C305 1.224 . S
N307 Co297 2.128 . S
N307 C308 1.355 . S
N307 C310 1.311 . S
C308 N307 1.355 . S
C308 C309 1.363 . S
C308 H320 0.929 . S
C309 C308 1.363 . S
C309 N311 1.375 . S
C309 H327 0.931 . S
C310 N307 1.311 . S
C310 N311 1.347 . S
C310 H321 0.929 . S
N311 C309 1.375 . S
N311 C310 1.347 . S
C312 C315 1.365 . S
C312 N317 1.328 . S
C312 H318 0.929 . S
C313 C314 1.362 . S
C313 C316 1.378 . S
C313 H328 0.929 . S
C314 C313 1.362 . S
C314 C315 1.366 . S
C315 C312 1.365 . S
C315 C314 1.366 . S
C315 H329 0.930 . S
C316 C313 1.378 . S
C316 N317 1.315 . S
C316 H319 0.930 . S
N317 Co297 2.194 . S
N317 C312 1.328 . S
N317 C316 1.315 . S
H318 C312 0.929 . S
H319 C316 0.930 . S
H320 C308 0.929 . S
H321 C310 0.929 . S
O322 Co297 2.351 . S
O322 C325 1.244 . S
O323 Co297 2.155 . S
O323 C325 1.240 . S
O324 Co297 2.096 . S
O324 C305 1.247 . S
C325 O322 1.244 . S
C325 O323 1.240 . S
H326 C300 0.931 . S
H327 C309 0.931 . S
H328 C313 0.929 . S
H329 C315 0.930 . S
Co330 N334 2.148 . S
Co330 N340 2.128 1_556 S
Co330 N350 2.194 . S
Co330 O355 2.351 . S
Co330 O356 2.155 . S
Co330 O357 2.096 . S
C331 N334 1.301 . S
C331 N335 1.328 . S
C331 H336 0.930 . S
C332 C333 1.333 . S
C332 N334 1.317 . S
C332 H337 0.930 . S
C333 C332 1.333 . S
C333 N335 1.350 . S
C333 H359 0.931 . S
N334 Co330 2.148 . S
N334 C331 1.301 . S
N334 C332 1.317 . S
N335 C331 1.328 . S
N335 C333 1.350 . S
H336 C331 0.930 . S
H337 C332 0.930 . S
C338 O339 1.224 . S
C338 O357 1.247 . S
O339 C338 1.224 . S
N340 Co330 2.128 1_554 S
N340 C341 1.355 . S
N340 C343 1.311 . S
C341 N340 1.355 . S
C341 C342 1.363 . S
C341 H353 0.929 . S
C342 C341 1.363 . S
C342 N344 1.375 . S
C342 H360 0.931 . S
C343 N340 1.311 . S
C343 N344 1.347 . S
C343 H354 0.929 . S
N344 C342 1.375 . S
N344 C343 1.347 . S
C345 C348 1.365 . S
C345 N350 1.328 . S
C345 H351 0.929 . S
C346 C347 1.362 . S
C346 C349 1.378 . S
C346 H361 0.929 . S
C347 C346 1.362 . S
C347 C348 1.366 . S
C348 C345 1.365 . S
C348 C347 1.366 . S
C348 H362 0.930 . S
C349 C346 1.378 . S
C349 N350 1.315 . S
C349 H352 0.930 . S
N350 Co330 2.194 . S
N350 C345 1.328 . S
N350 C349 1.315 . S
H351 C345 0.929 . S
H352 C349 0.930 . S
H353 C341 0.929 . S
H354 C343 0.929 . S
O355 Co330 2.351 . S
O355 C358 1.244 . S
O356 Co330 2.155 . S
O356 C358 1.240 . S
O357 Co330 2.096 . S
O357 C338 1.247 . S
C358 O355 1.244 . S
C358 O356 1.240 . S
H359 C333 0.931 . S
H360 C342 0.931 . S
H361 C346 0.929 . S
H362 C348 0.930 . S
Co363 N367 2.148 . S
Co363 N373 2.128 . S
Co363 N383 2.194 . S
Co363 O388 2.351 . S
Co363 O389 2.155 . S
Co363 O390 2.096 . S
C364 N367 1.301 . S
C364 N368 1.328 1_554 S
C364 H369 0.930 . S
C365 C366 1.333 1_554 S
C365 N367 1.317 . S
C365 H370 0.930 . S
C366 C365 1.333 1_556 S
C366 N368 1.350 . S
C366 H392 0.931 . S
N367 Co363 2.148 . S
N367 C364 1.301 . S
N367 C365 1.317 . S
N368 C364 1.328 1_556 S
N368 C366 1.350 . S
H369 C364 0.930 . S
H370 C365 0.930 . S
C371 O372 1.224 . S
C371 O390 1.247 . S
O372 C371 1.224 . S
N373 Co363 2.128 . S
N373 C374 1.355 . S
N373 C376 1.311 . S
C374 N373 1.355 . S
C374 C375 1.363 . S
C374 H386 0.929 . S
C375 C374 1.363 . S
C375 N377 1.375 . S
C375 H393 0.931 . S
C376 N373 1.311 . S
C376 N377 1.347 . S
C376 H387 0.929 . S
N377 C375 1.375 . S
N377 C376 1.347 . S
C378 C381 1.365 . S
C378 N383 1.328 . S
C378 H384 0.929 . S
C379 C380 1.362 . S
C379 C382 1.378 . S
C379 H394 0.929 . S
C380 C379 1.362 . S
C380 C381 1.366 . S
C381 C378 1.365 . S
C381 C380 1.366 . S
C381 H395 0.930 . S
C382 C379 1.378 . S
C382 N383 1.315 . S
C382 H385 0.930 . S
N383 Co363 2.194 . S
N383 C378 1.328 . S
N383 C382 1.315 . S
H384 C378 0.929 . S
H385 C382 0.930 . S
H386 C374 0.929 . S
H387 C376 0.929 . S
O388 Co363 2.351 . S
O388 C391 1.244 . S
O389 Co363 2.155 . S
O389 C391 1.240 . S
O390 Co363 2.096 . S
O390 C371 1.247 . S
C391 O388 1.244 . S
C391 O389 1.240 . S
H392 C366 0.931 . S
H393 C375 0.931 . S
H394 C379 0.929 . S
H395 C381 0.930 . S
C396 C397 1.170 . S
C396 C398 1.380 1_455 S
C397 C396 1.170 . S
C398 C396 1.380 1_655 S
C398 C399 1.170 . S
C399 C398 1.170 . S
C400 C401 1.170 . S
C400 C402 1.380 1_545 S
C401 C400 1.170 . S
C402 C400 1.380 1_565 S
C402 C403 1.170 . S
C403 C402 1.170 . S
C404 C405 1.170 . S
C404 C406 1.380 . S
C405 C404 1.170 . S
C406 C404 1.380 . S
C406 C407 1.170 . S
C407 C406 1.170 . S
C408 C409 1.170 . S
C408 C410 1.380 1_455 S
C409 C408 1.170 . S
C410 C408 1.380 1_655 S
C410 C411 1.170 . S
C411 C410 1.170 . S
C412 C413 1.170 . S
C412 C414 1.380 1_545 S
C413 C412 1.170 . S
C414 C412 1.380 1_565 S
C414 C415 1.170 . S
C415 C414 1.170 . S
C416 C417 1.170 . S
C416 C418 1.380 . S
C417 C416 1.170 . S
C418 C416 1.380 . S
C418 C419 1.170 . S
C419 C418 1.170 . S
C420 C421 1.170 . S
C420 C422 1.380 . S
C421 C420 1.170 . S
C422 C420 1.380 . S
C422 C423 1.170 . S
C423 C422 1.170 . S
C424 C425 1.170 . S
C424 C426 1.380 1_556 S
C425 C424 1.170 . S
C426 C424 1.380 1_554 S
C426 C427 1.170 . S
C427 C426 1.170 . S
C428 C429 1.170 . S
C428 C430 1.380 . S
C429 C428 1.170 . S
C430 C428 1.380 . S
C430 C431 1.170 . S
C431 C430 1.170 . S
C432 C433 1.170 . S
C432 C434 1.380 . S
C433 C432 1.170 . S
C434 C432 1.380 . S
C434 C435 1.170 . S
C435 C434 1.170 . S
C436 C437 1.170 . S
C436 C438 1.380 1_554 S
C437 C436 1.170 . S
C438 C436 1.380 1_556 S
C438 C439 1.170 . S
C439 C438 1.170 . S
C440 C441 1.170 . S
C440 C442 1.380 . S
C441 C440 1.170 . S
C442 C440 1.380 . S
C442 C443 1.170 . S
C443 C442 1.170 . S
C444 C445 1.170 . S
C444 C446 1.380 1_556 S
C445 C444 1.170 . S
C446 C444 1.380 1_554 S
C446 C447 1.170 . S
C447 C446 1.170 . S
C448 C449 1.170 . S
C448 C450 1.380 . S
C449 C448 1.170 . S
C450 C448 1.380 . S
C450 C451 1.170 . S
C451 C450 1.170 . S
C452 C453 1.170 . S
C452 C454 1.380 . S
C453 C452 1.170 . S
C454 C452 1.380 . S
C454 C455 1.170 . S
C455 C454 1.170 . S
C456 C457 1.170 . S
C456 C458 1.380 1_554 S
C457 C456 1.170 . S
C458 C456 1.380 1_556 S
C458 C459 1.170 . S
C459 C458 1.170 . S
C460 C461 1.170 . S
C460 C462 1.380 . S
C461 C460 1.170 . S
C462 C460 1.380 . S
C462 C463 1.170 . S
C463 C462 1.170 . S
C464 C465 1.170 . S
C464 C466 1.380 . S
C465 C464 1.170 . S
C466 C464 1.380 . S
C466 C467 1.170 . S
C467 C466 1.170 . S
C468 C469 1.170 . S
C468 C470 1.380 . S
C469 C468 1.170 . S
C470 C468 1.380 . S
C470 C471 1.170 . S
C471 C470 1.170 . S
C472 C473 1.170 . S
C472 C474 1.380 . S
C473 C472 1.170 . S
C474 C472 1.380 . S
C474 C475 1.170 . S
C475 C474 1.170 . S
C476 C477 1.170 . S
C476 C478 1.380 . S
C477 C476 1.170 . S
C478 C476 1.380 . S
C478 C479 1.170 . S
C479 C478 1.170 . S
C480 C481 1.170 . S
C480 C482 1.380 . S
C481 C480 1.170 . S
C482 C480 1.380 . S
C482 C483 1.170 . S
C483 C482 1.170 . S
C484 C485 1.170 . S
C484 C486 1.380 . S
C485 C484 1.170 . S
C486 C484 1.380 . S
C486 C487 1.170 . S
C487 C486 1.170 . S
C488 C489 1.170 . S
C488 C490 1.380 . S
C489 C488 1.170 . S
C490 C488 1.380 . S
C490 C491 1.170 . S
C491 C490 1.170 . S
C492 C493 1.170 . S
C492 C494 1.380 1_556 S
C493 C492 1.170 . S
C494 C492 1.380 1_554 S
C494 C495 1.170 . S
C495 C494 1.170 . S
C496 C497 1.170 . S
C496 C498 1.380 . S
C497 C496 1.170 . S
C498 C496 1.380 . S
C498 C499 1.170 . S
C499 C498 1.170 . S
C500 C501 1.170 . S
C500 C502 1.380 . S
C501 C500 1.170 . S
C502 C500 1.380 . S
C502 C503 1.170 . S
C503 C502 1.170 . S
C504 C505 1.170 . S
C504 C506 1.380 1_554 S
C505 C504 1.170 . S
C506 C504 1.380 1_556 S
C506 C507 1.170 . S
C507 C506 1.170 . S
C508 C509 1.170 . S
C508 C510 1.380 . S
C509 C508 1.170 . S
C510 C508 1.380 . S
C510 C511 1.170 . S
C511 C510 1.170 . S
C512 C513 1.170 . S
C512 C514 1.380 . S
C513 C512 1.170 . S
C514 C512 1.380 . S
C514 C515 1.170 . S
C515 C514 1.170 . S
C397 C28 1.401 . S
C399 C391 1.399 . S
C401 C61 1.378 . S
C403 C226 1.374 . S
C405 C259 1.380 . S
C407 C94 1.387 . S
C409 C292 1.388 . S
C411 C127 1.382 . S
C413 C325 1.398 . S
C415 C160 1.393 . S
C417 C358 1.401 . S
C419 C193 1.398 . S
C421 N14 1.439 . S
C423 N5 1.428 . S
C425 N38 1.427 . S
C427 N47 1.440 . S
C429 N80 1.450 . S
C431 N71 1.425 . S
C433 N113 1.429 . S
C435 N104 1.436 . S
C437 N146 1.449 . S
C439 N137 1.424 . S
C441 N170 1.446 . S
C443 N179 1.433 . S
C445 N212 1.427 . S
C447 N203 1.438 . S
C449 N236 1.431 . S
C451 N245 1.447 . S
C453 N278 1.419 . S
C455 N269 1.451 . S
C457 N302 1.424 . S
C459 N311 1.447 . S
C461 N335 1.452 . S
C463 N344 1.420 . S
C465 N377 1.439 . S
C467 N368 1.428 . S
C469 C17 1.604 . S
C471 C281 1.603 . S
C473 C50 1.591 . S
C475 C314 1.587 . S
C477 C83 1.588 . S
C479 C347 1.587 . S
C481 C380 1.604 . S
C483 C116 1.601 . S
C485 C215 1.593 . S
C487 C149 1.587 . S
C489 C248 1.602 . S
C491 C182 1.604 . S
C493 C338 1.206 . S
C495 C8 1.191 . S
C497 C371 1.187 . S
C499 C41 1.188 . S
C501 C206 1.193 . S
C503 C74 1.204 . S
C505 C107 1.207 . S
C507 C239 1.179 . S
C509 C140 1.188 . S
C511 C272 1.207 . S
C513 C173 1.207 . S
C515 C305 1.188 . S
