# Generated by pormake.
# Topology rob, (6)-cn, num edge types: 1
# Building blocks:
#     Node 0, Type 0, BuildingBlock: KUMBOL_clean_sbu_0, # of connection points: 6
#     Node 1, Type 0, BuildingBlock: KUMBOL_clean_sbu_0, # of connection points: 6
#     Node 2, Type 0, BuildingBlock: KUMBOL_clean_sbu_0, # of connection points: 6
#     Node 3, Type 0, BuildingBlock: KUMBOL_clean_sbu_0, # of connection points: 6
#     Edge 4, Type (0, 0), BuildingBlock: EYOCIG_clean_linker_4, # of connection points: 2
#     Edge 5, Type (0, 0), BuildingBlock: EYOCIG_clean_linker_4, # of connection points: 2
#     Edge 6, Type (0, 0), BuildingBlock: EYOCIG_clean_linker_4, # of connection points: 2
#     Edge 7, Type (0, 0), BuildingBlock: EYOCIG_clean_linker_4, # of connection points: 2
#     Edge 8, Type (0, 0), BuildingBlock: EYOCIG_clean_linker_4, # of connection points: 2
#     Edge 9, Type (0, 0), BuildingBlock: EYOCIG_clean_linker_4, # of connection points: 2
#     Edge 10, Type (0, 0), BuildingBlock: EYOCIG_clean_linker_4, # of connection points: 2
#     Edge 11, Type (0, 0), BuildingBlock: EYOCIG_clean_linker_4, # of connection points: 2
#     Edge 12, Type (0, 0), BuildingBlock: EYOCIG_clean_linker_4, # of connection points: 2
#     Edge 13, Type (0, 0), BuildingBlock: EYOCIG_clean_linker_4, # of connection points: 2
#     Edge 14, Type (0, 0), BuildingBlock: EYOCIG_clean_linker_4, # of connection points: 2
#     Edge 15, Type (0, 0), BuildingBlock: EYOCIG_clean_linker_4, # of connection points: 2
# Relax obj value: 0.039
# Max RMSD: 0.171
# Mean RMSD: 0.171
data_MOF--net-rob--node1-KUMBOL_clean_sbu_0--edge1-EYOCIG_clean_linker_4
_symmetry_space_group_name_H-M    P1
_symmetry_Int_Tables_number       1
_symmetry_cell_setting            triclinic
loop_
_symmetry_equiv_pos_as_xyz
'x, y, z'
_cell_length_a     13.591998
_cell_length_b     20.022092
_cell_length_c     28.155337
_cell_angle_alpha  118.47055
_cell_angle_beta   90.000001
_cell_angle_gamma 90.007691
loop_
_atom_site_label
_atom_site_type_symbol
_atom_site_fract_x
_atom_site_fract_y
_atom_site_fract_z
_atom_type_partial_charge
Gd0 Gd 0.3432 0.19252 0.97296 0.0
Gd1 Gd 0.15597 0.32258 0.06418 0.0
C2 C 0.87896 0.41396 0.02299 0.0
C3 C 0.90514 0.55016 0.07346 0.0
C4 C 0.02815 0.46324 0.07502 0.0
C5 C 0.97151 0.40208 0.04045 0.0
C6 C 0.99662 0.53807 0.09129 0.0
C7 C 0.84578 0.48831 0.04009 0.0
C8 C 0.8231 0.35083 0.9882 0.0
C9 C 0.86023 0.27812 0.97129 0.0
N10 N 0.00697 0.33104 0.02382 0.0
C11 C 0.95234 0.26917 0.98964 0.0
H12 H 0.97822 0.21214 0.97592 0.0
C13 C 0.17307 0.50824 0.12717 0.0
N14 N 0.11518 0.44959 0.09205 0.0
C15 C 0.14705 0.58328 0.1427 0.0
C16 C 0.05916 0.59812 0.124 0.0
H17 H 0.241 0.49687 0.14193 0.0
H18 H 0.77551 0.4985 0.02658 0.0
H19 H 0.52089 0.30298 0.06135 0.0
H20 H 0.7518 0.35761 0.9738 0.0
H21 H 0.81775 0.22877 0.94424 0.0
H22 H 0.87987 0.60676 0.08447 0.0
H23 H 0.25802 0.0182 0.89546 0.0
H24 H 0.74837 0.15759 0.06249 0.0
H25 H 0.68184 0.28639 0.09256 0.0
H26 H 0.62041 0.90838 0.95186 0.0
H27 H 0.19502 0.62953 0.16869 0.0
H28 H 0.04185 0.65594 0.13419 0.0
H29 H 0.72486 0.01668 1.00958 0.0
H30 H 0.30437 0.88556 0.86848 0.0
N31 N 0.49249 0.18407 1.01312 0.0
C32 C 0.67688 0.16435 0.04827 0.0
C33 C 0.63941 0.23704 0.06547 0.0
C34 C 0.62104 0.1012 1.01348 0.0
C35 C 0.52824 0.11306 0.99626 0.0
C36 C 0.54703 0.24596 0.04738 0.0
N37 N 0.38424 0.06552 0.94499 0.0
C38 C 0.47155 0.05188 0.96176 0.0
C39 C 0.35243 0.93181 0.89435 0.0
C40 C 0.44063 0.91699 0.91279 0.0
C41 C 0.32621 0.00686 0.91002 0.0
C42 C 0.50327 0.97706 0.94537 0.0
H43 H 0.4581 0.85916 0.90252 0.0
O44 O 0.36289 0.13788 0.88568 0.0
O45 O 0.21269 0.26246 0.98088 0.0
O46 O 0.10525 0.19976 0.02625 0.0
O47 O 0.24747 0.12514 1.00134 0.0
O48 O 0.21159 0.15437 0.91745 0.0
O49 O 0.43974 0.24265 0.93763 0.0
O50 O 0.13572 0.37728 0.15143 0.0
O51 O 0.28634 0.25269 0.05617 0.0
O52 O 0.39407 0.31528 1.01093 0.0
O53 O 0.25197 0.39004 0.03597 0.0
O54 O 0.28749 0.36042 0.11986 0.0
O55 O 0.05911 0.27246 0.09936 0.0
C56 C 0.1668 0.21876 0.93855 0.0
C57 C 0.59498 0.96499 0.96297 0.0
C58 C 0.65441 0.02685 0.99624 0.0
C59 C 0.42255 0.19046 0.88831 0.0
C60 C 0.50612 0.16741 0.85131 0.0
C61 C 0.58452 0.12515 0.85564 0.0
C62 C 0.50966 0.19319 0.81299 0.0
C63 C 0.59145 0.1774 0.77925 0.0
C64 C 0.66616 0.10903 0.82165 0.0
C65 C 0.66973 0.13497 0.78347 0.0
C66 C 0.15241 0.13557 1.01342 0.0
C67 C 0.33229 0.29602 0.09855 0.0
C68 C 0.076 0.32468 0.14871 0.0
C69 C 0.99215 0.34767 0.18553 0.0
C70 C 0.91352 0.38939 0.18077 0.0
C71 C 0.98853 0.32223 0.22404 0.0
C72 C 0.90639 0.33778 0.25752 0.0
C73 C 0.83154 0.40529 0.21451 0.0
C74 C 0.82786 0.37965 0.25287 0.0
C75 C 0.347 0.37953 0.02383 0.0
H76 H 0.58303 0.10567 0.88552 0.0
H77 H 0.44945 0.22673 0.81014 0.0
H78 H 0.72703 0.07678 0.82512 0.0
H79 H 0.73364 0.12239 0.75758 0.0
H80 H 0.91507 0.40859 0.15074 0.0
H81 H 0.04892 0.28908 0.22721 0.0
H82 H 0.77049 0.43713 0.21072 0.0
H83 H 0.76369 0.39203 0.27854 0.0
Gd84 Gd 0.84267 0.69193 0.97232 0.0
Gd85 Gd 0.65659 0.82256 0.06421 0.0
C86 C 0.37882 0.9148 0.02449 0.0
C87 C 0.40533 0.05093 0.07521 0.0
C88 C 0.52863 0.96367 0.07599 0.0
C89 C 0.4717 0.90267 0.04147 0.0
C90 C 0.49705 0.0386 0.09265 0.0
C91 C 0.34567 0.98924 0.04192 0.0
C92 C 0.32266 0.85182 0.98976 0.0
C93 C 0.35991 0.77902 0.97238 0.0
N94 N 0.50724 0.83155 0.02439 0.0
C95 C 0.4524 0.76983 0.99021 0.0
H96 H 0.47837 0.71275 0.97615 0.0
C97 C 0.67419 0.00821 0.1276 0.0
N98 N 0.61598 0.94974 0.09256 0.0
C99 C 0.64806 0.08337 0.14357 0.0
C100 C 0.55979 0.09851 0.12536 0.0
H101 H 0.74239 0.99662 0.142 0.0
H102 H 0.27518 0.99963 0.02874 0.0
H103 H 0.02075 0.80121 0.06051 0.0
H104 H 0.25109 0.85879 0.97573 0.0
H105 H 0.31722 0.72979 0.94535 0.0
H106 H 0.38004 0.1076 0.08647 0.0
H107 H 0.75649 0.51809 0.89415 0.0
H108 H 0.24782 0.6547 0.06055 0.0
H109 H 0.18182 0.78384 0.09132 0.0
H110 H 0.11885 0.40614 0.94893 0.0
H111 H 0.69622 0.1295 0.16954 0.0
H112 H 0.54229 0.15645 0.13595 0.0
H113 H 0.22364 0.51389 1.00709 0.0
H114 H 0.80283 0.38501 0.86585 0.0
N115 N 0.99178 0.68248 1.01208 0.0
C116 C 0.17627 0.66183 0.04657 0.0
C117 C 0.1391 0.7347 0.06417 0.0
C118 C 0.12009 0.59897 1.01167 0.0
C119 C 0.02724 0.6113 0.99477 0.0
C120 C 0.04666 0.74408 0.04637 0.0
N121 N 0.88288 0.5646 0.94367 0.0
C122 C 0.97025 0.55044 0.96009 0.0
C123 C 0.85091 0.43103 0.89204 0.0
C124 C 0.93923 0.41563 0.91006 0.0
C125 C 0.82469 0.5063 0.90844 0.0
C126 C 0.00186 0.47543 0.94308 0.0
H127 H 0.95692 0.35756 0.89904 0.0
O128 O 0.85735 0.64008 0.88499 0.0
O129 O 0.71296 0.76291 0.98086 0.0
O130 O 0.6057 0.69968 0.02612 0.0
O131 O 0.74744 0.62444 1.00074 0.0
O132 O 0.71047 0.655 0.91721 0.0
O133 O 0.94477 0.73894 0.9371 0.0
O134 O 0.63802 0.87642 0.15152 0.0
O135 O 0.78659 0.75219 0.05572 0.0
O136 O 0.89395 0.81462 1.01013 0.0
O137 O 0.75241 0.89002 0.03594 0.0
O138 O 0.78861 0.85986 0.1195 0.0
O139 O 0.55884 0.77292 0.09938 0.0
C140 C 0.66655 0.71977 0.93859 0.0
C141 C 0.09354 0.46289 0.96046 0.0
C142 C 0.15318 0.52445 0.99398 0.0
C143 C 0.92228 0.68961 0.88768 0.0
C144 C 0.0027 0.66274 0.8486 0.0
C145 C 0.07448 0.6124 0.84849 0.0
C146 C 0.00894 0.69103 0.81177 0.0
C147 C 0.08671 0.66946 0.77494 0.0
C148 C 0.15218 0.59067 0.8115 0.0
C149 C 0.15826 0.61886 0.77464 0.0
C150 C 0.65253 0.63529 1.01317 0.0
C151 C 0.83294 0.79526 0.09802 0.0
C152 C 0.57707 0.82448 0.14877 0.0
C153 C 0.49388 0.84842 0.18607 0.0
C154 C 0.41673 0.89212 0.18232 0.0
C155 C 0.48954 0.82237 0.22422 0.0
C156 C 0.40819 0.83937 0.2584 0.0
C157 C 0.33552 0.90942 0.21673 0.0
C158 C 0.33117 0.88326 0.25478 0.0
C159 C 0.84724 0.87909 0.02333 0.0
H160 H 0.07079 0.59065 0.87706 0.0
H161 H 0.95374 0.73051 0.81221 0.0
H162 H 0.20813 0.55235 0.81165 0.0
H163 H 0.21894 0.60165 0.74628 0.0
H164 H 0.41883 0.91188 0.1526 0.0
H165 H 0.54879 0.78775 0.22664 0.0
H166 H 0.27558 0.94276 0.21369 0.0
H167 H 0.26763 0.8968 0.28101 0.0
Gd168 Gd 0.3422 0.8229 0.56434 0.0
Gd169 Gd 0.1564 0.69197 0.47236 0.0
C170 C 0.87861 0.59974 0.51207 0.0
C171 C 0.90489 0.46361 0.46119 0.0
C172 C 0.02835 0.55085 0.46051 0.0
C173 C 0.97149 0.61185 0.49507 0.0
C174 C 0.99661 0.47593 0.44372 0.0
C175 C 0.84537 0.52531 0.49459 0.0
C176 C 0.82256 0.66274 0.54686 0.0
C177 C 0.85988 0.73553 0.56426 0.0
N178 N 0.00711 0.68295 0.51218 0.0
C179 C 0.95234 0.74469 0.54638 0.0
H180 H 0.97838 0.80176 0.56039 0.0
C181 C 0.17385 0.50634 0.40886 0.0
N182 N 0.11575 0.56479 0.44398 0.0
C183 C 0.14749 0.43115 0.39269 0.0
C184 C 0.05915 0.41599 0.41083 0.0
H185 H 0.24209 0.51795 0.39449 0.0
H186 H 0.77489 0.51492 0.50778 0.0
H187 H 0.52039 0.71364 0.47636 0.0
H188 H 0.751 0.65578 0.56091 0.0
H189 H 0.81725 0.78477 0.59132 0.0
H190 H 0.87949 0.40695 0.44986 0.0
H191 H 0.25618 0.99673 0.64262 0.0
H192 H 0.74669 0.86019 0.47551 0.0
H193 H 0.6811 0.73103 0.44518 0.0
H194 H 0.61785 0.10873 0.58722 0.0
H195 H 0.19551 0.38503 0.3666 0.0
H196 H 0.04139 0.358 0.40001 0.0
H197 H 0.72247 1.00099 0.5289 0.0
H198 H 0.30239 0.12982 0.67082 0.0
N199 N 0.49117 0.83237 0.52448 0.0
C200 C 0.67528 0.85305 0.48962 0.0
C201 C 0.63834 0.78016 0.47227 0.0
C202 C 0.61913 0.9159 0.52453 0.0
C203 C 0.52646 0.90356 0.54161 0.0
C204 C 0.54611 0.77077 0.49027 0.0
N205 N 0.38236 0.95024 0.59293 0.0
C206 C 0.46954 0.96441 0.57633 0.0
C207 C 0.3504 0.08381 0.64456 0.0
C208 C 0.43856 0.09921 0.62639 0.0
C209 C 0.32425 0.00853 0.62823 0.0
C210 C 0.50108 0.03942 0.59327 0.0
H211 H 0.45618 0.15728 0.63737 0.0
O212 O 0.35758 0.87502 0.65167 0.0
O213 O 0.21248 0.75202 0.55576 0.0
O214 O 0.10538 0.81475 0.51004 0.0
O215 O 0.24683 0.89036 0.53594 0.0
O216 O 0.20999 0.85991 0.61942 0.0
O217 O 0.44384 0.77554 0.59947 0.0
O218 O 0.14121 0.63936 0.38501 0.0
O219 O 0.28619 0.76269 0.48094 0.0
O220 O 0.39329 0.70012 0.52661 0.0
O221 O 0.25176 0.62461 0.50085 0.0
O222 O 0.28878 0.65477 0.41739 0.0
O223 O 0.05566 0.73945 0.43688 0.0
C224 C 0.16603 0.79515 0.59801 0.0
C225 C 0.59261 0.05198 0.57575 0.0
C226 C 0.65213 0.99042 0.54213 0.0
C227 C 0.42201 0.82514 0.64891 0.0
C228 C 0.50294 0.85158 0.68769 0.0
C229 C 0.57578 0.9007 0.68704 0.0
C230 C 0.50887 0.82372 0.72478 0.0
C231 C 0.58743 0.84447 0.76108 0.0
C232 C 0.65425 0.92164 0.72351 0.0
C233 C 0.66006 0.89385 0.7606 0.0
C234 C 0.15204 0.87927 0.52321 0.0
C235 C 0.33278 0.71952 0.43875 0.0
C236 C 0.07733 0.68943 0.38752 0.0
C237 C 0.99642 0.66309 0.34874 0.0
C238 C 0.9237 0.61377 0.34922 0.0
C239 C 0.9905 0.69109 0.31173 0.0
C240 C 0.91209 0.67027 0.27533 0.0
C241 C 0.84537 0.59277 0.31266 0.0
C242 C 0.83959 0.62069 0.27563 0.0
C243 C 0.34658 0.63565 0.51353 0.0
H244 H 0.57237 0.92205 0.65823 0.0
H245 H 0.45289 0.78511 0.7249 0.0
H246 H 0.711 0.95903 0.72277 0.0
H247 H 0.72137 0.9104 0.78853 0.0
H248 H 0.9271 0.59229 0.37795 0.0
H249 H 0.04641 0.72983 0.31173 0.0
H250 H 0.7887 0.55523 0.31326 0.0
H251 H 0.7784 0.60407 0.24762 0.0
Gd252 Gd 0.84266 0.32249 0.56414 0.0
Gd253 Gd 0.65569 0.19231 0.47276 0.0
C254 C 0.37874 0.10008 0.51325 0.0
C255 C 0.40487 0.96394 0.46217 0.0
C256 C 0.52799 0.0512 0.46119 0.0
C257 C 0.47133 0.11219 0.49596 0.0
C258 C 0.49636 0.97627 0.44449 0.0
C259 C 0.34555 0.02564 0.49579 0.0
C260 C 0.32289 0.16307 0.54825 0.0
C261 C 0.36008 0.23586 0.5655 0.0
N262 N 0.50684 0.18329 0.51294 0.0
C263 C 0.45222 0.24503 0.54728 0.0
H264 H 0.47813 0.3021 0.56117 0.0
C265 C 0.67297 1.00668 0.40906 0.0
N266 N 0.61509 0.06513 0.44438 0.0
C267 C 0.64679 0.9315 0.39301 0.0
C268 C 0.55879 0.91635 0.41145 0.0
H269 H 0.74095 0.01828 0.39448 0.0
H270 H 0.27526 0.01525 0.50917 0.0
H271 H 0.02053 0.21194 0.47599 0.0
H272 H 0.25157 0.15611 0.56253 0.0
H273 H 0.31759 0.28511 0.5927 0.0
H274 H 0.37952 0.90725 0.45084 0.0
H275 H 0.75771 0.49683 0.64171 0.0
H276 H 0.24746 0.35729 0.47419 0.0
H277 H 0.18125 0.22849 0.44454 0.0
H278 H 0.11946 0.6065 0.5846 0.0
H279 H 0.69468 0.88538 0.36679 0.0
H280 H 0.54125 0.85838 0.40077 0.0
H281 H 0.22384 0.49819 0.52688 0.0
H282 H 0.80391 0.62944 0.66845 0.0
N283 N 0.99193 0.33085 0.52393 0.0
C284 C 0.17607 0.35054 0.48851 0.0
C285 C 0.13878 0.27786 0.47156 0.0
C286 C 0.12021 0.4137 0.52324 0.0
C287 C 0.02754 0.40187 0.54061 0.0
C288 C 0.04653 0.26895 0.48979 0.0
N289 N 0.88374 0.44946 0.59203 0.0
C290 C 0.97089 0.46307 0.5751 0.0
C291 C 0.85191 0.58317 0.64256 0.0
C292 C 0.93995 0.59795 0.62395 0.0
C293 C 0.82578 0.50815 0.62704 0.0
C294 C 0.00253 0.53787 0.59135 0.0
H295 H 0.95734 0.65576 0.6341 0.0
O296 O 0.86345 0.37755 0.65139 0.0
O297 O 0.71213 0.25263 0.55613 0.0
O298 O 0.60479 0.31503 0.51056 0.0
O299 O 0.74679 0.3899 0.53583 0.0
O300 O 0.71106 0.36063 0.61964 0.0
O301 O 0.93816 0.27177 0.59945 0.0
O302 O 0.63934 0.13982 0.38546 0.0
O303 O 0.78581 0.26264 0.48094 0.0
O304 O 0.89322 0.19957 0.5261 0.0
O305 O 0.75113 0.12469 0.50099 0.0
O306 O 0.78748 0.1548 0.41733 0.0
O307 O 0.55476 0.24026 0.43773 0.0
C308 C 0.66623 0.29625 0.59846 0.0
C309 C 0.09411 0.54992 0.5736 0.0
C310 C 0.15349 0.48804 0.54033 0.0
C311 C 0.92212 0.32444 0.64875 0.0
C312 C 0.00637 0.34675 0.68528 0.0
C313 C 0.08571 0.38753 0.68008 0.0
C314 C 0.00971 0.32138 0.72383 0.0
C315 C 0.09228 0.33606 0.75692 0.0
C316 C 0.16811 0.40258 0.71343 0.0
C317 C 0.17152 0.377 0.75182 0.0
C318 C 0.65183 0.3793 0.52351 0.0
C319 C 0.83198 0.21933 0.43863 0.0
C320 C 0.57578 0.19027 0.38828 0.0
C321 C 0.49447 0.16457 0.34977 0.0
C322 C 0.42043 0.11664 0.35093 0.0
C323 C 0.48932 0.19215 0.3125 0.0
C324 C 0.41033 0.17234 0.27655 0.0
C325 C 0.34153 0.09661 0.3148 0.0
C326 C 0.33646 0.12417 0.27754 0.0
C327 C 0.84615 0.13527 0.51317 0.0
H328 H 0.08439 0.40663 0.64999 0.0
H329 H 0.94877 0.28893 0.72733 0.0
H330 H 0.22969 0.43371 0.70932 0.0
H331 H 0.23603 0.3887 0.77719 0.0
H332 H 0.42325 0.09554 0.3799 0.0
H333 H 0.54624 0.22987 0.312 0.0
H334 H 0.28388 0.0601 0.31589 0.0
H335 H 0.27479 0.10836 0.24988 0.0
C336 C 0.53582 0.53157 1.01638 0.0
C337 C 0.59448 0.57532 1.01382 0.0
C338 C 0.46345 0.48345 0.02073 0.0
C339 C 0.40485 0.43963 0.02324 0.0
C340 C 0.46327 0.53177 0.51649 0.0
C341 C 0.40469 0.57564 0.51405 0.0
C342 C 0.5355 0.48344 0.52066 0.0
C343 C 0.594 0.43947 0.52305 0.0
C344 C 0.03614 0.03142 1.01631 0.0
C345 C 0.09463 0.07538 1.01392 0.0
C346 C 0.96389 0.98308 0.02047 0.0
C347 C 0.90531 0.93917 0.02287 0.0
C348 C 0.96272 0.03124 0.51603 0.0
C349 C 0.90408 0.07512 0.51363 0.0
C350 C 0.03514 0.98305 0.52023 0.0
C351 C 0.09385 0.93926 0.52269 0.0
C352 C 0.39875 0.22737 0.208 0.0
C353 C 0.40469 0.20259 0.23939 0.0
C354 C 0.38673 0.25181 0.1689 0.0
C355 C 0.36243 0.26885 0.13498 0.0
C356 C 0.3979 0.78672 0.32837 0.0
C357 C 0.4033 0.81043 0.29635 0.0
C358 C 0.38633 0.7632 0.36799 0.0
C359 C 0.36248 0.74661 0.40221 0.0
C360 C 0.61281 0.76436 0.86831 0.0
C361 C 0.63687 0.74703 0.90213 0.0
C362 C 0.60043 0.78904 0.82936 0.0
C363 C 0.59389 0.81401 0.7981 0.0
C364 C 0.61175 0.25308 0.66936 0.0
C365 C 0.63598 0.26944 0.63507 0.0
C366 C 0.60035 0.22973 0.70907 0.0
C367 C 0.59551 0.20617 0.74119 0.0
C368 C 0.88684 0.75055 0.16821 0.0
C369 C 0.86275 0.76786 0.13438 0.0
C370 C 0.89918 0.72586 0.20715 0.0
C371 C 0.9057 0.70082 0.23837 0.0
C372 C 0.88594 0.26273 0.36778 0.0
C373 C 0.86198 0.24638 0.40211 0.0
C374 C 0.8973 0.28594 0.32799 0.0
C375 C 0.90221 0.30929 0.29574 0.0
C376 C 0.10089 0.28442 0.8275 0.0
C377 C 0.09613 0.30767 0.79519 0.0
C378 C 0.11225 0.26147 0.86743 0.0
C379 C 0.13648 0.2454 0.90186 0.0
C380 C 0.11236 0.75041 0.66822 0.0
C381 C 0.13641 0.76786 0.63446 0.0
C382 C 0.10001 0.7255 0.70704 0.0
C383 C 0.09337 0.70025 0.73813 0.0
loop_
_geom_bond_atom_site_label_1
_geom_bond_atom_site_label_2
_geom_bond_distance
_geom_bond_site_symmetry_2
_ccdc_geom_bond_type
Gd0 N31 2.661 . S
Gd0 N37 2.601 . S
Gd0 O44 2.545 . S
Gd0 O45 2.606 . S
Gd0 O47 2.429 . S
Gd0 O48 2.545 . S
Gd0 O49 2.412 . S
Gd0 O51 2.362 1_556 S
Gd0 O52 2.324 . S
Gd0 C59 2.828 . S
Gd1 N10 2.661 1_455 S
Gd1 N14 2.601 . S
Gd1 O45 2.362 1_554 S
Gd1 O46 2.324 . S
Gd1 O50 2.545 . S
Gd1 O51 2.606 . S
Gd1 O53 2.429 . S
Gd1 O54 2.545 . S
Gd1 O55 2.412 . S
Gd1 C68 2.828 . S
C2 C5 1.417 1_556 S
C2 C7 1.431 1_556 S
C2 C8 1.412 . S
C3 C6 1.437 . S
C3 C7 1.317 . S
C3 H22 0.929 . S
C4 C5 1.426 . S
C4 C6 1.413 . S
C4 N14 1.359 1_655 S
C5 C2 1.417 1_554 S
C5 C4 1.426 . S
C5 N10 1.350 . S
C6 C3 1.437 . S
C6 C4 1.413 . S
C6 C16 1.391 . S
C7 C2 1.431 1_554 S
C7 C3 1.317 . S
C7 H18 0.930 1_554 S
C8 C2 1.412 . S
C8 C9 1.355 . S
C8 H20 0.930 . S
C9 C8 1.355 . S
C9 C11 1.402 . S
C9 H21 0.930 . S
N10 Gd1 2.661 1_655 S
N10 C5 1.350 . S
N10 C11 1.307 1_554 S
C11 C9 1.402 . S
C11 N10 1.307 1_556 S
C11 H12 0.930 . S
H12 C11 0.930 . S
C13 N14 1.334 . S
C13 C15 1.394 . S
C13 H17 0.930 . S
N14 Gd1 2.601 . S
N14 C4 1.359 1_455 S
N14 C13 1.334 . S
C15 C13 1.394 . S
C15 C16 1.359 1_455 S
C15 H27 0.930 . S
C16 C6 1.391 . S
C16 C15 1.359 1_655 S
C16 H28 0.929 . S
H17 C13 0.930 . S
H18 C7 0.930 1_556 S
H19 C36 0.930 . S
H20 C8 0.930 . S
H21 C9 0.930 . S
H22 C3 0.929 . S
H23 C41 0.930 . S
H24 C32 0.930 . S
H25 C33 0.930 . S
H26 C57 0.929 . S
H27 C15 0.930 . S
H28 C16 0.929 . S
H29 C58 0.930 1_554 S
H30 C39 0.930 . S
N31 Gd0 2.661 . S
N31 C35 1.350 . S
N31 C36 1.307 1_556 S
C32 H24 0.930 . S
C32 C33 1.355 . S
C32 C34 1.412 . S
C33 H25 0.930 . S
C33 C32 1.355 . S
C33 C36 1.402 . S
C34 C32 1.412 . S
C34 C35 1.417 1_554 S
C34 C58 1.431 1_554 S
C35 N31 1.350 . S
C35 C34 1.417 1_556 S
C35 C38 1.426 . S
C36 H19 0.930 . S
C36 N31 1.307 1_554 S
C36 C33 1.402 . S
N37 Gd0 2.601 . S
N37 C38 1.359 . S
N37 C41 1.334 1_545 S
C38 C35 1.426 . S
C38 N37 1.359 . S
C38 C42 1.413 1_545 S
C39 H30 0.930 . S
C39 C40 1.359 . S
C39 C41 1.394 . S
C40 C39 1.359 . S
C40 C42 1.391 . S
C40 H43 0.929 . S
C41 H23 0.930 . S
C41 N37 1.334 1_565 S
C41 C39 1.394 . S
C42 C38 1.413 1_565 S
C42 C40 1.391 . S
C42 C57 1.437 . S
H43 C40 0.929 . S
O44 Gd0 2.545 . S
O44 C59 1.258 . S
O45 Gd0 2.606 . S
O45 Gd1 2.362 1_556 S
O45 C56 1.284 . S
O46 Gd1 2.324 . S
O46 C66 1.254 1_554 S
O47 Gd0 2.429 . S
O47 C66 1.268 . S
O48 Gd0 2.545 . S
O48 C56 1.250 . S
O49 Gd0 2.412 . S
O49 C59 1.252 . S
O50 Gd1 2.545 . S
O50 C68 1.258 . S
O51 Gd0 2.362 1_554 S
O51 Gd1 2.606 . S
O51 C67 1.284 . S
O52 Gd0 2.324 . S
O52 C75 1.254 1_556 S
O53 Gd1 2.429 . S
O53 C75 1.268 . S
O54 Gd1 2.545 . S
O54 C67 1.250 . S
O55 Gd1 2.412 . S
O55 C68 1.252 . S
C56 O45 1.284 . S
C56 O48 1.250 . S
C57 H26 0.929 . S
C57 C42 1.437 . S
C57 C58 1.317 1_565 S
C58 H29 0.930 1_556 S
C58 C34 1.431 1_556 S
C58 C57 1.317 1_545 S
C59 Gd0 2.828 . S
C59 O44 1.258 . S
C59 O49 1.252 . S
C59 C60 1.497 . S
C60 C59 1.497 . S
C60 C61 1.395 . S
C60 C62 1.380 . S
C61 C60 1.395 . S
C61 C64 1.398 1_545 S
C61 H76 0.930 1_545 S
C62 C60 1.380 . S
C62 C63 1.391 . S
C62 H77 0.930 . S
C63 C62 1.391 . S
C63 C65 1.387 . S
C64 C61 1.398 1_565 S
C64 C65 1.380 1_565 S
C64 H78 0.930 . S
C65 C63 1.387 . S
C65 C64 1.380 1_545 S
C65 H79 0.930 . S
C66 O46 1.254 1_556 S
C66 O47 1.268 . S
C67 O51 1.284 . S
C67 O54 1.250 . S
C68 Gd1 2.828 . S
C68 O50 1.258 . S
C68 O55 1.252 . S
C68 C69 1.497 . S
C69 C68 1.497 . S
C69 C70 1.395 1_455 S
C69 C71 1.380 1_455 S
C70 C69 1.395 1_655 S
C70 C73 1.398 . S
C70 H80 0.930 1_655 S
C71 C69 1.380 1_655 S
C71 C72 1.391 . S
C71 H81 0.930 . S
C72 C71 1.391 . S
C72 C74 1.387 . S
C73 C70 1.398 . S
C73 C74 1.380 . S
C73 H82 0.930 . S
C74 C72 1.387 . S
C74 C73 1.380 . S
C74 H83 0.930 . S
C75 O52 1.254 1_554 S
C75 O53 1.268 . S
H76 C61 0.930 1_565 S
H77 C62 0.930 . S
H78 C64 0.930 . S
H79 C65 0.930 . S
H80 C70 0.930 1_455 S
H81 C71 0.930 . S
H82 C73 0.930 . S
H83 C74 0.930 . S
Gd84 N115 2.661 1_655 S
Gd84 N121 2.601 . S
Gd84 O128 2.545 . S
Gd84 O129 2.606 . S
Gd84 O131 2.429 . S
Gd84 O132 2.545 . S
Gd84 O133 2.412 . S
Gd84 O135 2.362 1_556 S
Gd84 O136 2.324 . S
Gd84 C143 2.828 . S
Gd85 N94 2.661 . S
Gd85 N98 2.601 . S
Gd85 O129 2.362 1_554 S
Gd85 O130 2.324 . S
Gd85 O134 2.545 . S
Gd85 O135 2.606 . S
Gd85 O137 2.429 . S
Gd85 O138 2.545 . S
Gd85 O139 2.412 . S
Gd85 C152 2.828 . S
C86 C89 1.417 1_556 S
C86 C91 1.431 1_556 S
C86 C92 1.412 . S
C87 C90 1.437 . S
C87 C91 1.317 1_545 S
C87 H106 0.929 . S
C88 C89 1.426 . S
C88 C90 1.413 1_565 S
C88 N98 1.359 . S
C89 C86 1.417 1_554 S
C89 C88 1.426 . S
C89 N94 1.350 . S
C90 C87 1.437 . S
C90 C88 1.413 1_545 S
C90 C100 1.391 . S
C91 C86 1.431 1_554 S
C91 C87 1.317 1_565 S
C91 H102 0.930 1_554 S
C92 C86 1.412 . S
C92 C93 1.355 . S
C92 H104 0.930 . S
C93 C92 1.355 . S
C93 C95 1.402 . S
C93 H105 0.930 . S
N94 Gd85 2.661 . S
N94 C89 1.350 . S
N94 C95 1.307 1_554 S
C95 C93 1.402 . S
C95 N94 1.307 1_556 S
C95 H96 0.930 . S
H96 C95 0.930 . S
C97 N98 1.334 1_545 S
C97 C99 1.394 . S
C97 H101 0.930 . S
N98 Gd85 2.601 . S
N98 C88 1.359 . S
N98 C97 1.334 1_565 S
C99 C97 1.394 . S
C99 C100 1.359 . S
C99 H111 0.930 . S
C100 C90 1.391 . S
C100 C99 1.359 . S
C100 H112 0.929 . S
H101 C97 0.930 . S
H102 C91 0.930 1_556 S
H103 C120 0.930 . S
H104 C92 0.930 . S
H105 C93 0.930 . S
H106 C87 0.929 . S
H107 C125 0.930 . S
H108 C116 0.930 . S
H109 C117 0.930 . S
H110 C141 0.929 . S
H111 C99 0.930 . S
H112 C100 0.929 . S
H113 C142 0.930 1_554 S
H114 C123 0.930 . S
N115 Gd84 2.661 1_455 S
N115 C119 1.350 . S
N115 C120 1.307 1_556 S
C116 H108 0.930 . S
C116 C117 1.355 . S
C116 C118 1.412 . S
C117 H109 0.930 . S
C117 C116 1.355 . S
C117 C120 1.402 . S
C118 C116 1.412 . S
C118 C119 1.417 1_554 S
C118 C142 1.431 1_554 S
C119 N115 1.350 . S
C119 C118 1.417 1_556 S
C119 C122 1.426 . S
C120 H103 0.930 . S
C120 N115 1.307 1_554 S
C120 C117 1.402 . S
N121 Gd84 2.601 . S
N121 C122 1.359 1_655 S
N121 C125 1.334 . S
C122 C119 1.426 . S
C122 N121 1.359 1_455 S
C122 C126 1.413 . S
C123 H114 0.930 . S
C123 C124 1.359 1_655 S
C123 C125 1.394 . S
C124 C123 1.359 1_455 S
C124 C126 1.391 . S
C124 H127 0.929 . S
C125 H107 0.930 . S
C125 N121 1.334 . S
C125 C123 1.394 . S
C126 C122 1.413 . S
C126 C124 1.391 . S
C126 C141 1.437 . S
H127 C124 0.929 . S
O128 Gd84 2.545 . S
O128 C143 1.258 . S
O129 Gd84 2.606 . S
O129 Gd85 2.362 1_556 S
O129 C140 1.284 . S
O130 Gd85 2.324 . S
O130 C150 1.254 1_554 S
O131 Gd84 2.429 . S
O131 C150 1.268 . S
O132 Gd84 2.545 . S
O132 C140 1.250 . S
O133 Gd84 2.412 . S
O133 C143 1.252 . S
O134 Gd85 2.545 . S
O134 C152 1.258 . S
O135 Gd84 2.362 1_554 S
O135 Gd85 2.606 . S
O135 C151 1.284 . S
O136 Gd84 2.324 . S
O136 C159 1.254 1_556 S
O137 Gd85 2.429 . S
O137 C159 1.268 . S
O138 Gd85 2.545 . S
O138 C151 1.250 . S
O139 Gd85 2.412 . S
O139 C152 1.252 . S
C140 O129 1.284 . S
C140 O132 1.250 . S
C141 H110 0.929 . S
C141 C126 1.437 . S
C141 C142 1.317 . S
C142 H113 0.930 1_556 S
C142 C118 1.431 1_556 S
C142 C141 1.317 . S
C143 Gd84 2.828 . S
C143 O128 1.258 . S
C143 O133 1.252 . S
C143 C144 1.497 . S
C144 C143 1.497 . S
C144 C145 1.395 1_655 S
C144 C146 1.380 1_655 S
C145 C144 1.395 1_455 S
C145 C148 1.398 . S
C145 H160 0.930 1_455 S
C146 C144 1.380 1_455 S
C146 C147 1.391 . S
C146 H161 0.930 . S
C147 C146 1.391 . S
C147 C149 1.387 . S
C148 C145 1.398 . S
C148 C149 1.380 . S
C148 H162 0.930 . S
C149 C147 1.387 . S
C149 C148 1.380 . S
C149 H163 0.930 . S
C150 O130 1.254 1_556 S
C150 O131 1.268 . S
C151 O135 1.284 . S
C151 O138 1.250 . S
C152 Gd85 2.828 . S
C152 O134 1.258 . S
C152 O139 1.252 . S
C152 C153 1.497 . S
C153 C152 1.497 . S
C153 C154 1.395 . S
C153 C155 1.380 . S
C154 C153 1.395 . S
C154 C157 1.398 1_565 S
C154 H164 0.930 1_565 S
C155 C153 1.380 . S
C155 C156 1.391 . S
C155 H165 0.930 . S
C156 C155 1.391 . S
C156 C158 1.387 . S
C157 C154 1.398 1_545 S
C157 C158 1.380 1_545 S
C157 H166 0.930 . S
C158 C156 1.387 . S
C158 C157 1.380 1_565 S
C158 H167 0.930 . S
C159 O136 1.254 1_554 S
C159 O137 1.268 . S
H160 C145 0.930 1_655 S
H161 C146 0.930 . S
H162 C148 0.930 . S
H163 C149 0.930 . S
H164 C154 0.930 1_545 S
H165 C155 0.930 . S
H166 C157 0.930 . S
H167 C158 0.930 . S
Gd168 N199 2.661 . S
Gd168 N205 2.601 . S
Gd168 O212 2.545 . S
Gd168 O213 2.606 . S
Gd168 O215 2.429 . S
Gd168 O216 2.545 . S
Gd168 O217 2.412 . S
Gd168 O219 2.362 . S
Gd168 O220 2.324 . S
Gd168 C227 2.828 . S
Gd169 N178 2.661 1_455 S
Gd169 N182 2.601 . S
Gd169 O213 2.362 . S
Gd169 O214 2.324 . S
Gd169 O218 2.545 . S
Gd169 O219 2.606 . S
Gd169 O221 2.429 . S
Gd169 O222 2.545 . S
Gd169 O223 2.412 . S
Gd169 C236 2.828 . S
C170 C173 1.417 . S
C170 C175 1.431 . S
C170 C176 1.412 . S
C171 C174 1.437 . S
C171 C175 1.317 . S
C171 H190 0.929 . S
C172 C173 1.426 . S
C172 C174 1.413 . S
C172 N182 1.359 1_655 S
C173 C170 1.417 . S
C173 C172 1.426 . S
C173 N178 1.350 . S
C174 C171 1.437 . S
C174 C172 1.413 . S
C174 C184 1.391 . S
C175 C170 1.431 . S
C175 C171 1.317 . S
C175 H186 0.930 . S
C176 C170 1.412 . S
C176 C177 1.355 . S
C176 H188 0.930 . S
C177 C176 1.355 . S
C177 C179 1.402 . S
C177 H189 0.930 . S
N178 Gd169 2.661 1_655 S
N178 C173 1.350 . S
N178 C179 1.307 . S
C179 C177 1.402 . S
C179 N178 1.307 . S
C179 H180 0.930 . S
H180 C179 0.930 . S
C181 N182 1.334 . S
C181 C183 1.394 . S
C181 H185 0.930 . S
N182 Gd169 2.601 . S
N182 C172 1.359 1_455 S
N182 C181 1.334 . S
C183 C181 1.394 . S
C183 C184 1.359 1_455 S
C183 H195 0.930 . S
C184 C174 1.391 . S
C184 C183 1.359 1_655 S
C184 H196 0.929 . S
H185 C181 0.930 . S
H186 C175 0.930 . S
H187 C204 0.930 . S
H188 C176 0.930 . S
H189 C177 0.930 . S
H190 C171 0.929 . S
H191 C209 0.930 . S
H192 C200 0.930 . S
H193 C201 0.930 . S
H194 C225 0.929 . S
H195 C183 0.930 . S
H196 C184 0.929 . S
H197 C226 0.930 . S
H198 C207 0.930 . S
N199 Gd168 2.661 . S
N199 C203 1.350 . S
N199 C204 1.307 . S
C200 H192 0.930 . S
C200 C201 1.355 . S
C200 C202 1.412 . S
C201 H193 0.930 . S
C201 C200 1.355 . S
C201 C204 1.402 . S
C202 C200 1.412 . S
C202 C203 1.417 . S
C202 C226 1.431 . S
C203 N199 1.350 . S
C203 C202 1.417 . S
C203 C206 1.426 . S
C204 H187 0.930 . S
C204 N199 1.307 . S
C204 C201 1.402 . S
N205 Gd168 2.601 . S
N205 C206 1.359 . S
N205 C209 1.334 1_565 S
C206 C203 1.426 . S
C206 N205 1.359 . S
C206 C210 1.413 1_565 S
C207 H198 0.930 . S
C207 C208 1.359 . S
C207 C209 1.394 . S
C208 C207 1.359 . S
C208 C210 1.391 . S
C208 H211 0.929 . S
C209 H191 0.930 . S
C209 N205 1.334 1_545 S
C209 C207 1.394 . S
C210 C206 1.413 1_545 S
C210 C208 1.391 . S
C210 C225 1.437 . S
H211 C208 0.929 . S
O212 Gd168 2.545 . S
O212 C227 1.258 . S
O213 Gd168 2.606 . S
O213 Gd169 2.362 . S
O213 C224 1.284 . S
O214 Gd169 2.324 . S
O214 C234 1.254 . S
O215 Gd168 2.429 . S
O215 C234 1.268 . S
O216 Gd168 2.545 . S
O216 C224 1.250 . S
O217 Gd168 2.412 . S
O217 C227 1.252 . S
O218 Gd169 2.545 . S
O218 C236 1.258 . S
O219 Gd168 2.362 . S
O219 Gd169 2.606 . S
O219 C235 1.284 . S
O220 Gd168 2.324 . S
O220 C243 1.254 . S
O221 Gd169 2.429 . S
O221 C243 1.268 . S
O222 Gd169 2.545 . S
O222 C235 1.250 . S
O223 Gd169 2.412 . S
O223 C236 1.252 . S
C224 O213 1.284 . S
C224 O216 1.250 . S
C225 H194 0.929 . S
C225 C210 1.437 . S
C225 C226 1.317 1_545 S
C226 H197 0.930 . S
C226 C202 1.431 . S
C226 C225 1.317 1_565 S
C227 Gd168 2.828 . S
C227 O212 1.258 . S
C227 O217 1.252 . S
C227 C228 1.497 . S
C228 C227 1.497 . S
C228 C229 1.395 . S
C228 C230 1.380 . S
C229 C228 1.395 . S
C229 C232 1.398 1_565 S
C229 H244 0.930 1_565 S
C230 C228 1.380 . S
C230 C231 1.391 . S
C230 H245 0.930 . S
C231 C230 1.391 . S
C231 C233 1.387 . S
C232 C229 1.398 1_545 S
C232 C233 1.380 1_545 S
C232 H246 0.930 . S
C233 C231 1.387 . S
C233 C232 1.380 1_565 S
C233 H247 0.930 . S
C234 O214 1.254 . S
C234 O215 1.268 . S
C235 O219 1.284 . S
C235 O222 1.250 . S
C236 Gd169 2.828 . S
C236 O218 1.258 . S
C236 O223 1.252 . S
C236 C237 1.497 . S
C237 C236 1.497 . S
C237 C238 1.395 1_455 S
C237 C239 1.380 1_455 S
C238 C237 1.395 1_655 S
C238 C241 1.398 . S
C238 H248 0.930 1_655 S
C239 C237 1.380 1_655 S
C239 C240 1.391 . S
C239 H249 0.930 . S
C240 C239 1.391 . S
C240 C242 1.387 . S
C241 C238 1.398 . S
C241 C242 1.380 . S
C241 H250 0.930 . S
C242 C240 1.387 . S
C242 C241 1.380 . S
C242 H251 0.930 . S
C243 O220 1.254 . S
C243 O221 1.268 . S
H244 C229 0.930 1_545 S
H245 C230 0.930 . S
H246 C232 0.930 . S
H247 C233 0.930 . S
H248 C238 0.930 1_455 S
H249 C239 0.930 . S
H250 C241 0.930 . S
H251 C242 0.930 . S
Gd252 N283 2.661 1_655 S
Gd252 N289 2.601 . S
Gd252 O296 2.545 . S
Gd252 O297 2.606 . S
Gd252 O299 2.429 . S
Gd252 O300 2.545 . S
Gd252 O301 2.412 . S
Gd252 O303 2.362 . S
Gd252 O304 2.324 . S
Gd252 C311 2.828 . S
Gd253 N262 2.661 . S
Gd253 N266 2.601 . S
Gd253 O297 2.362 . S
Gd253 O298 2.324 . S
Gd253 O302 2.545 . S
Gd253 O303 2.606 . S
Gd253 O305 2.429 . S
Gd253 O306 2.545 . S
Gd253 O307 2.412 . S
Gd253 C320 2.828 . S
C254 C257 1.417 . S
C254 C259 1.431 . S
C254 C260 1.412 . S
C255 C258 1.437 . S
C255 C259 1.317 1_565 S
C255 H274 0.929 . S
C256 C257 1.426 . S
C256 C258 1.413 1_545 S
C256 N266 1.359 . S
C257 C254 1.417 . S
C257 C256 1.426 . S
C257 N262 1.350 . S
C258 C255 1.437 . S
C258 C256 1.413 1_565 S
C258 C268 1.391 . S
C259 C254 1.431 . S
C259 C255 1.317 1_545 S
C259 H270 0.930 . S
C260 C254 1.412 . S
C260 C261 1.355 . S
C260 H272 0.930 . S
C261 C260 1.355 . S
C261 C263 1.402 . S
C261 H273 0.930 . S
N262 Gd253 2.661 . S
N262 C257 1.350 . S
N262 C263 1.307 . S
C263 C261 1.402 . S
C263 N262 1.307 . S
C263 H264 0.930 . S
H264 C263 0.930 . S
C265 N266 1.334 1_565 S
C265 C267 1.394 . S
C265 H269 0.930 . S
N266 Gd253 2.601 . S
N266 C256 1.359 . S
N266 C265 1.334 1_545 S
C267 C265 1.394 . S
C267 C268 1.359 . S
C267 H279 0.930 . S
C268 C258 1.391 . S
C268 C267 1.359 . S
C268 H280 0.929 . S
H269 C265 0.930 . S
H270 C259 0.930 . S
H271 C288 0.930 . S
H272 C260 0.930 . S
H273 C261 0.930 . S
H274 C255 0.929 . S
H275 C293 0.930 . S
H276 C284 0.930 . S
H277 C285 0.930 . S
H278 C309 0.929 . S
H279 C267 0.930 . S
H280 C268 0.929 . S
H281 C310 0.930 . S
H282 C291 0.930 . S
N283 Gd252 2.661 1_455 S
N283 C287 1.350 . S
N283 C288 1.307 . S
C284 H276 0.930 . S
C284 C285 1.355 . S
C284 C286 1.412 . S
C285 H277 0.930 . S
C285 C284 1.355 . S
C285 C288 1.402 . S
C286 C284 1.412 . S
C286 C287 1.417 . S
C286 C310 1.431 . S
C287 N283 1.350 . S
C287 C286 1.417 . S
C287 C290 1.426 . S
C288 H271 0.930 . S
C288 N283 1.307 . S
C288 C285 1.402 . S
N289 Gd252 2.601 . S
N289 C290 1.359 1_655 S
N289 C293 1.334 . S
C290 C287 1.426 . S
C290 N289 1.359 1_455 S
C290 C294 1.413 . S
C291 H282 0.930 . S
C291 C292 1.359 1_655 S
C291 C293 1.394 . S
C292 C291 1.359 1_455 S
C292 C294 1.391 . S
C292 H295 0.929 . S
C293 H275 0.930 . S
C293 N289 1.334 . S
C293 C291 1.394 . S
C294 C290 1.413 . S
C294 C292 1.391 . S
C294 C309 1.437 . S
H295 C292 0.929 . S
O296 Gd252 2.545 . S
O296 C311 1.258 . S
O297 Gd252 2.606 . S
O297 Gd253 2.362 . S
O297 C308 1.284 . S
O298 Gd253 2.324 . S
O298 C318 1.254 . S
O299 Gd252 2.429 . S
O299 C318 1.268 . S
O300 Gd252 2.545 . S
O300 C308 1.250 . S
O301 Gd252 2.412 . S
O301 C311 1.252 . S
O302 Gd253 2.545 . S
O302 C320 1.258 . S
O303 Gd252 2.362 . S
O303 Gd253 2.606 . S
O303 C319 1.284 . S
O304 Gd252 2.324 . S
O304 C327 1.254 . S
O305 Gd253 2.429 . S
O305 C327 1.268 . S
O306 Gd253 2.545 . S
O306 C319 1.250 . S
O307 Gd253 2.412 . S
O307 C320 1.252 . S
C308 O297 1.284 . S
C308 O300 1.250 . S
C309 H278 0.929 . S
C309 C294 1.437 . S
C309 C310 1.317 . S
C310 H281 0.930 . S
C310 C286 1.431 . S
C310 C309 1.317 . S
C311 Gd252 2.828 . S
C311 O296 1.258 . S
C311 O301 1.252 . S
C311 C312 1.497 . S
C312 C311 1.497 . S
C312 C313 1.395 1_655 S
C312 C314 1.380 1_655 S
C313 C312 1.395 1_455 S
C313 C316 1.398 . S
C313 H328 0.930 1_455 S
C314 C312 1.380 1_455 S
C314 C315 1.391 . S
C314 H329 0.930 . S
C315 C314 1.391 . S
C315 C317 1.387 . S
C316 C313 1.398 . S
C316 C317 1.380 . S
C316 H330 0.930 . S
C317 C315 1.387 . S
C317 C316 1.380 . S
C317 H331 0.930 . S
C318 O298 1.254 . S
C318 O299 1.268 . S
C319 O303 1.284 . S
C319 O306 1.250 . S
C320 Gd253 2.828 . S
C320 O302 1.258 . S
C320 O307 1.252 . S
C320 C321 1.497 . S
C321 C320 1.497 . S
C321 C322 1.395 . S
C321 C323 1.380 . S
C322 C321 1.395 . S
C322 C325 1.398 1_545 S
C322 H332 0.930 1_545 S
C323 C321 1.380 . S
C323 C324 1.391 . S
C323 H333 0.930 . S
C324 C323 1.391 . S
C324 C326 1.387 . S
C325 C322 1.398 1_565 S
C325 C326 1.380 1_565 S
C325 H334 0.930 . S
C326 C324 1.387 . S
C326 C325 1.380 1_545 S
C326 H335 0.930 . S
C327 O304 1.254 . S
C327 O305 1.268 . S
H328 C313 0.930 1_655 S
H329 C314 0.930 . S
H330 C316 0.930 . S
H331 C317 0.930 . S
H332 C322 0.930 1_565 S
H333 C323 0.930 . S
H334 C325 0.930 . S
H335 C326 0.930 . S
C336 C337 1.170 . S
C336 C338 1.380 . S
C337 C336 1.170 . S
C338 C336 1.380 . S
C338 C339 1.166 1_556 S
C339 C338 1.166 1_554 S
C340 C341 1.170 . S
C340 C342 1.380 . S
C341 C340 1.170 . S
C342 C340 1.380 . S
C342 C343 1.170 . S
C343 C342 1.170 . S
C344 C345 1.170 1_554 S
C344 C346 1.380 1_445 S
C345 C344 1.170 1_556 S
C346 C344 1.380 1_665 S
C346 C347 1.170 . S
C347 C346 1.170 . S
C348 C349 1.170 . S
C348 C350 1.380 1_645 S
C349 C348 1.170 . S
C350 C348 1.380 1_465 S
C350 C351 1.170 . S
C351 C350 1.170 . S
C352 C353 1.170 . S
C352 C354 1.380 . S
C353 C352 1.170 . S
C354 C352 1.380 . S
C354 C355 1.170 . S
C355 C354 1.170 . S
C356 C357 1.170 . S
C356 C358 1.380 . S
C357 C356 1.170 . S
C358 C356 1.380 . S
C358 C359 1.170 . S
C359 C358 1.170 . S
C360 C361 1.170 . S
C360 C362 1.380 . S
C361 C360 1.170 . S
C362 C360 1.380 . S
C362 C363 1.170 . S
C363 C362 1.170 . S
C364 C365 1.170 . S
C364 C366 1.380 . S
C365 C364 1.170 . S
C366 C364 1.380 . S
C366 C367 1.170 . S
C367 C366 1.170 . S
C368 C369 1.170 . S
C368 C370 1.380 . S
C369 C368 1.170 . S
C370 C368 1.380 . S
C370 C371 1.170 . S
C371 C370 1.170 . S
C372 C373 1.170 . S
C372 C374 1.380 . S
C373 C372 1.170 . S
C374 C372 1.380 . S
C374 C375 1.170 . S
C375 C374 1.170 . S
C376 C377 1.170 . S
C376 C378 1.380 . S
C377 C376 1.170 . S
C378 C376 1.380 . S
C378 C379 1.170 . S
C379 C378 1.170 . S
C380 C381 1.170 . S
C380 C382 1.380 . S
C381 C380 1.170 . S
C382 C380 1.380 . S
C382 C383 1.170 . S
C383 C382 1.170 . S
C337 C150 1.526 . S
C339 C75 1.524 . S
C341 C243 1.514 . S
C343 C318 1.506 . S
C345 C66 1.528 . S
C347 C159 1.496 . S
C349 C327 1.517 . S
C351 C234 1.504 . S
C353 C324 1.346 . S
C355 C67 1.291 . S
C357 C156 1.325 . S
C359 C235 1.330 . S
C361 C140 1.321 . S
C363 C231 1.363 . S
C365 C308 1.281 . S
C367 C63 1.333 . S
C369 C151 1.300 . S
C371 C240 1.351 . S
C373 C319 1.284 . S
C375 C72 1.352 . S
C377 C315 1.321 . S
C379 C56 1.315 . S
C381 C224 1.287 . S
C383 C147 1.363 . S
