# Generated by pormake.
# Topology fcj, (5)-cn, num edge types: 1
# Building blocks:
#     Node 0, Type 0, BuildingBlock: BEQFEK_clean_sbu_0, # of connection points: 5
#     Node 1, Type 0, BuildingBlock: BEQFEK_clean_sbu_0, # of connection points: 5
#     Node 2, Type 0, BuildingBlock: BEQFEK_clean_sbu_0, # of connection points: 5
#     Node 3, Type 0, BuildingBlock: BEQFEK_clean_sbu_0, # of connection points: 5
#     Node 4, Type 0, BuildingBlock: BEQFEK_clean_sbu_0, # of connection points: 5
#     Node 5, Type 0, BuildingBlock: BEQFEK_clean_sbu_0, # of connection points: 5
#     Node 6, Type 0, BuildingBlock: BEQFEK_clean_sbu_0, # of connection points: 5
#     Node 7, Type 0, BuildingBlock: BEQFEK_clean_sbu_0, # of connection points: 5
#     Node 8, Type 0, BuildingBlock: BEQFEK_clean_sbu_0, # of connection points: 5
#     Node 9, Type 0, BuildingBlock: BEQFEK_clean_sbu_0, # of connection points: 5
#     Node 10, Type 0, BuildingBlock: BEQFEK_clean_sbu_0, # of connection points: 5
#     Node 11, Type 0, BuildingBlock: BEQFEK_clean_sbu_0, # of connection points: 5
#     Node 12, Type 0, BuildingBlock: BEQFEK_clean_sbu_0, # of connection points: 5
#     Node 13, Type 0, BuildingBlock: BEQFEK_clean_sbu_0, # of connection points: 5
#     Node 14, Type 0, BuildingBlock: BEQFEK_clean_sbu_0, # of connection points: 5
#     Node 15, Type 0, BuildingBlock: BEQFEK_clean_sbu_0, # of connection points: 5
#     Node 16, Type 0, BuildingBlock: BEQFEK_clean_sbu_0, # of connection points: 5
#     Node 17, Type 0, BuildingBlock: BEQFEK_clean_sbu_0, # of connection points: 5
#     Node 18, Type 0, BuildingBlock: BEQFEK_clean_sbu_0, # of connection points: 5
#     Node 19, Type 0, BuildingBlock: BEQFEK_clean_sbu_0, # of connection points: 5
#     Node 20, Type 0, BuildingBlock: BEQFEK_clean_sbu_0, # of connection points: 5
#     Node 21, Type 0, BuildingBlock: BEQFEK_clean_sbu_0, # of connection points: 5
#     Node 22, Type 0, BuildingBlock: BEQFEK_clean_sbu_0, # of connection points: 5
#     Node 23, Type 0, BuildingBlock: BEQFEK_clean_sbu_0, # of connection points: 5
#     Edge 24, Type (0, 0), BuildingBlock: AJUNOK_clean_linker_0, # of connection points: 2
#     Edge 25, Type (0, 0), BuildingBlock: AJUNOK_clean_linker_0, # of connection points: 2
#     Edge 26, Type (0, 0), BuildingBlock: AJUNOK_clean_linker_0, # of connection points: 2
#     Edge 27, Type (0, 0), BuildingBlock: AJUNOK_clean_linker_0, # of connection points: 2
#     Edge 28, Type (0, 0), BuildingBlock: AJUNOK_clean_linker_0, # of connection points: 2
#     Edge 29, Type (0, 0), BuildingBlock: AJUNOK_clean_linker_0, # of connection points: 2
#     Edge 30, Type (0, 0), BuildingBlock: AJUNOK_clean_linker_0, # of connection points: 2
#     Edge 31, Type (0, 0), BuildingBlock: AJUNOK_clean_linker_0, # of connection points: 2
#     Edge 32, Type (0, 0), BuildingBlock: AJUNOK_clean_linker_0, # of connection points: 2
#     Edge 33, Type (0, 0), BuildingBlock: AJUNOK_clean_linker_0, # of connection points: 2
#     Edge 34, Type (0, 0), BuildingBlock: AJUNOK_clean_linker_0, # of connection points: 2
#     Edge 35, Type (0, 0), BuildingBlock: AJUNOK_clean_linker_0, # of connection points: 2
#     Edge 36, Type (0, 0), BuildingBlock: AJUNOK_clean_linker_0, # of connection points: 2
#     Edge 37, Type (0, 0), BuildingBlock: AJUNOK_clean_linker_0, # of connection points: 2
#     Edge 38, Type (0, 0), BuildingBlock: AJUNOK_clean_linker_0, # of connection points: 2
#     Edge 39, Type (0, 0), BuildingBlock: AJUNOK_clean_linker_0, # of connection points: 2
#     Edge 40, Type (0, 0), BuildingBlock: AJUNOK_clean_linker_0, # of connection points: 2
#     Edge 41, Type (0, 0), BuildingBlock: AJUNOK_clean_linker_0, # of connection points: 2
#     Edge 42, Type (0, 0), BuildingBlock: AJUNOK_clean_linker_0, # of connection points: 2
#     Edge 43, Type (0, 0), BuildingBlock: AJUNOK_clean_linker_0, # of connection points: 2
#     Edge 44, Type (0, 0), BuildingBlock: AJUNOK_clean_linker_0, # of connection points: 2
#     Edge 45, Type (0, 0), BuildingBlock: AJUNOK_clean_linker_0, # of connection points: 2
#     Edge 46, Type (0, 0), BuildingBlock: AJUNOK_clean_linker_0, # of connection points: 2
#     Edge 47, Type (0, 0), BuildingBlock: AJUNOK_clean_linker_0, # of connection points: 2
#     Edge 48, Type (0, 0), BuildingBlock: AJUNOK_clean_linker_0, # of connection points: 2
#     Edge 49, Type (0, 0), BuildingBlock: AJUNOK_clean_linker_0, # of connection points: 2
#     Edge 50, Type (0, 0), BuildingBlock: AJUNOK_clean_linker_0, # of connection points: 2
#     Edge 51, Type (0, 0), BuildingBlock: AJUNOK_clean_linker_0, # of connection points: 2
#     Edge 52, Type (0, 0), BuildingBlock: AJUNOK_clean_linker_0, # of connection points: 2
#     Edge 53, Type (0, 0), BuildingBlock: AJUNOK_clean_linker_0, # of connection points: 2
#     Edge 54, Type (0, 0), BuildingBlock: AJUNOK_clean_linker_0, # of connection points: 2
#     Edge 55, Type (0, 0), BuildingBlock: AJUNOK_clean_linker_0, # of connection points: 2
#     Edge 56, Type (0, 0), BuildingBlock: AJUNOK_clean_linker_0, # of connection points: 2
#     Edge 57, Type (0, 0), BuildingBlock: AJUNOK_clean_linker_0, # of connection points: 2
#     Edge 58, Type (0, 0), BuildingBlock: AJUNOK_clean_linker_0, # of connection points: 2
#     Edge 59, Type (0, 0), BuildingBlock: AJUNOK_clean_linker_0, # of connection points: 2
#     Edge 60, Type (0, 0), BuildingBlock: AJUNOK_clean_linker_0, # of connection points: 2
#     Edge 61, Type (0, 0), BuildingBlock: AJUNOK_clean_linker_0, # of connection points: 2
#     Edge 62, Type (0, 0), BuildingBlock: AJUNOK_clean_linker_0, # of connection points: 2
#     Edge 63, Type (0, 0), BuildingBlock: AJUNOK_clean_linker_0, # of connection points: 2
#     Edge 64, Type (0, 0), BuildingBlock: AJUNOK_clean_linker_0, # of connection points: 2
#     Edge 65, Type (0, 0), BuildingBlock: AJUNOK_clean_linker_0, # of connection points: 2
#     Edge 66, Type (0, 0), BuildingBlock: AJUNOK_clean_linker_0, # of connection points: 2
#     Edge 67, Type (0, 0), BuildingBlock: AJUNOK_clean_linker_0, # of connection points: 2
#     Edge 68, Type (0, 0), BuildingBlock: AJUNOK_clean_linker_0, # of connection points: 2
#     Edge 69, Type (0, 0), BuildingBlock: AJUNOK_clean_linker_0, # of connection points: 2
#     Edge 70, Type (0, 0), BuildingBlock: AJUNOK_clean_linker_0, # of connection points: 2
#     Edge 71, Type (0, 0), BuildingBlock: AJUNOK_clean_linker_0, # of connection points: 2
#     Edge 72, Type (0, 0), BuildingBlock: AJUNOK_clean_linker_0, # of connection points: 2
#     Edge 73, Type (0, 0), BuildingBlock: AJUNOK_clean_linker_0, # of connection points: 2
#     Edge 74, Type (0, 0), BuildingBlock: AJUNOK_clean_linker_0, # of connection points: 2
#     Edge 75, Type (0, 0), BuildingBlock: AJUNOK_clean_linker_0, # of connection points: 2
#     Edge 76, Type (0, 0), BuildingBlock: AJUNOK_clean_linker_0, # of connection points: 2
#     Edge 77, Type (0, 0), BuildingBlock: AJUNOK_clean_linker_0, # of connection points: 2
#     Edge 78, Type (0, 0), BuildingBlock: AJUNOK_clean_linker_0, # of connection points: 2
#     Edge 79, Type (0, 0), BuildingBlock: AJUNOK_clean_linker_0, # of connection points: 2
#     Edge 80, Type (0, 0), BuildingBlock: AJUNOK_clean_linker_0, # of connection points: 2
#     Edge 81, Type (0, 0), BuildingBlock: AJUNOK_clean_linker_0, # of connection points: 2
#     Edge 82, Type (0, 0), BuildingBlock: AJUNOK_clean_linker_0, # of connection points: 2
#     Edge 83, Type (0, 0), BuildingBlock: AJUNOK_clean_linker_0, # of connection points: 2
# Relax obj value: 0.321
# Max RMSD: 0.220
# Mean RMSD: 0.220
data_MOF--net-fcj--node1-BEQFEK_clean_sbu_0--edge1-AJUNOK_clean_linker_0
_symmetry_space_group_name_H-M    P1
_symmetry_Int_Tables_number       1
_symmetry_cell_setting            triclinic
loop_
_symmetry_equiv_pos_as_xyz
'x, y, z'
_cell_length_a     40.472392
_cell_length_b     40.492652
_cell_length_c     40.508094
_cell_angle_alpha  90.077346
_cell_angle_beta   89.878976
_cell_angle_gamma 90.00132
loop_
_atom_site_label
_atom_site_type_symbol
_atom_site_fract_x
_atom_site_fract_y
_atom_site_fract_z
_atom_type_partial_charge
Co0 Co 0.10882 0.16106 0.31602 0.0
Co1 Co 0.06139 0.21338 0.34928 0.0
C2 C 0.03565 0.1538 0.31334 0.0
O3 O 0.06449 0.14244 0.30744 0.0
O4 O 0.0311 0.18065 0.32917 0.0
C5 C 0.15054 0.13032 0.26991 0.0
O6 O 0.12946 0.14478 0.24999 0.0
C7 C 0.0047 0.24888 0.37835 0.0
C8 C 0.03005 0.28448 0.41101 0.0
C9 C 0.99896 0.27369 0.40156 0.0
N10 N 0.03753 0.24435 0.37571 0.0
N11 N 0.05248 0.2662 0.39474 0.0
C12 C 0.98042 0.23373 0.35496 0.0
H13 H 0.99207 0.23032 0.33039 0.0
H14 H 0.97291 0.2091 0.36432 0.0
H15 H 0.95823 0.2495 0.35195 0.0
C16 C 0.13589 0.15843 0.38228 0.0
N17 N 0.11405 0.17076 0.3607 0.0
N18 N 0.0939 0.1913 0.3759 0.0
C19 C 0.10198 0.19167 0.40834 0.0
C20 C 0.12888 0.17112 0.41313 0.0
C21 C 0.16416 0.13644 0.37289 0.0
H22 H 0.15436 0.11289 0.36289 0.0
H23 H 0.18056 0.13103 0.3941 0.0
H24 H 0.17891 0.14853 0.35321 0.0
O25 O 0.11277 0.20059 0.28888 0.0
O26 O 0.08017 0.23857 0.31105 0.0
H27 H 0.09375 0.23405 0.43872 0.0
H28 H 0.08608 0.19556 0.45889 0.0
C29 C 0.08335 0.20899 0.43516 0.0
H30 H 0.05676 0.21062 0.42892 0.0
H31 H 0.07806 0.26909 0.39605 0.0
O32 O 0.14521 0.13179 0.30076 0.0
C33 C 0.10008 0.22922 0.28851 0.0
Co34 Co 0.57692 0.35923 0.05849 0.0
Co35 Co 0.5289 0.30858 0.09311 0.0
C36 C 0.59164 0.28759 0.058 0.0
O37 O 0.60082 0.31705 0.05147 0.0
O38 O 0.565 0.28158 0.07377 0.0
C39 C 0.63004 0.40906 0.04215 0.0
O40 O 0.65324 0.39044 0.05502 0.0
C41 C 0.50758 0.2523 0.13397 0.0
C42 C 0.45579 0.26594 0.14458 0.0
C43 C 0.47905 0.24137 0.1497 0.0
N44 N 0.50124 0.28179 0.12012 0.0
N45 N 0.47031 0.28987 0.12674 0.0
C46 C 0.54072 0.23598 0.13318 0.0
H47 H 0.56031 0.25476 0.13707 0.0
H48 H 0.5426 0.2165 0.15234 0.0
H49 H 0.54478 0.22483 0.10846 0.0
C50 C 0.57368 0.39016 0.12401 0.0
N51 N 0.56541 0.36581 0.10303 0.0
N52 N 0.54529 0.34512 0.11803 0.0
C53 C 0.54043 0.35576 0.14937 0.0
C54 C 0.55828 0.38461 0.15391 0.0
C55 C 0.59546 0.41882 0.11549 0.0
H56 H 0.62055 0.40955 0.10967 0.0
H57 H 0.59745 0.43683 0.13604 0.0
H58 H 0.58542 0.43173 0.09358 0.0
O59 O 0.53723 0.35733 0.03079 0.0
O60 O 0.50204 0.32243 0.05435 0.0
H61 H 0.49287 0.34092 0.16661 0.0
H62 H 0.52191 0.35027 0.19912 0.0
C63 C 0.51907 0.33892 0.17432 0.0
H64 H 0.52559 0.31235 0.17555 0.0
H65 H 0.45896 0.3115 0.11857 0.0
O66 O 0.60037 0.39879 0.04162 0.0
C67 C 0.50978 0.34214 0.03115 0.0
Co68 Co 0.38925 0.8323 0.81394 0.0
Co69 Co 0.43589 0.77826 0.84495 0.0
C70 C 0.46042 0.8423 0.81256 0.0
O71 O 0.43195 0.85494 0.80759 0.0
O72 O 0.46384 0.81396 0.82586 0.0
C73 C 0.33777 0.88554 0.79725 0.0
O74 O 0.35666 0.91087 0.80464 0.0
C75 C 0.49394 0.75484 0.88233 0.0
C76 C 0.47788 0.70494 0.89721 0.0
C77 C 0.50404 0.72692 0.89938 0.0
N78 N 0.46313 0.74969 0.87089 0.0
N79 N 0.45374 0.71978 0.87992 0.0
C80 C 0.51297 0.78612 0.87747 0.0
H81 H 0.49652 0.80765 0.88162 0.0
H82 H 0.53434 0.78757 0.89455 0.0
H83 H 0.5221 0.78717 0.85164 0.0
C84 C 0.36031 0.83003 0.88004 0.0
N85 N 0.38306 0.81971 0.85816 0.0
N86 N 0.40088 0.79602 0.87143 0.0
C87 C 0.38934 0.79025 0.90233 0.0
C88 C 0.36329 0.8117 0.90853 0.0
C89 C 0.33547 0.85663 0.87365 0.0
H90 H 0.34829 0.87867 0.86374 0.0
H91 H 0.3219 0.86387 0.89634 0.0
H92 H 0.3173 0.84771 0.85526 0.0
O93 O 0.38961 0.79367 0.7842 0.0
O94 O 0.41939 0.75318 0.80575 0.0
H95 H 0.39705 0.73979 0.91514 0.0
H96 H 0.39114 0.76684 0.95016 0.0
C97 C 0.40251 0.76463 0.92529 0.0
H98 H 0.4297 0.76726 0.92736 0.0
H99 H 0.43098 0.7093 0.87383 0.0
O100 O 0.34913 0.85639 0.79948 0.0
C101 C 0.40129 0.76456 0.78271 0.0
Co102 Co 0.90521 0.64782 0.55052 0.0
Co103 Co 0.95884 0.69159 0.58513 0.0
C104 C 0.894 0.71787 0.55522 0.0
O105 O 0.88139 0.68974 0.54864 0.0
O106 O 0.92266 0.7206 0.56808 0.0
C107 C 0.85471 0.59751 0.52631 0.0
O108 O 0.82913 0.61316 0.53877 0.0
C109 C 0.98386 0.74796 0.62386 0.0
C110 C 0.03292 0.72951 0.63887 0.0
C111 C 0.01224 0.75664 0.64082 0.0
N112 N 0.98745 0.71685 0.61266 0.0
N113 N 0.01687 0.70605 0.6217 0.0
C114 C 0.95416 0.76907 0.61788 0.0
H115 H 0.95351 0.77628 0.59147 0.0
H116 H 0.93143 0.75475 0.62334 0.0
H117 H 0.95468 0.79169 0.63337 0.0
C118 C 0.90694 0.61352 0.61377 0.0
N119 N 0.91761 0.63776 0.5939 0.0
N120 N 0.94116 0.65449 0.60874 0.0
C121 C 0.94658 0.64066 0.63868 0.0
C122 C 0.92503 0.61415 0.64265 0.0
C123 C 0.87936 0.59039 0.60542 0.0
H124 H 0.85839 0.60472 0.59534 0.0
H125 H 0.87064 0.57655 0.6274 0.0
H126 H 0.88791 0.57258 0.5864 0.0
O127 O 0.94329 0.65333 0.52116 0.0
O128 O 0.98486 0.67887 0.54518 0.0
H129 H 0.97183 0.63752 0.68567 0.0
H130 H 0.97129 0.67801 0.66672 0.0
C131 C 0.97322 0.6511 0.66196 0.0
H132 H 0.99758 0.64605 0.65048 0.0
H133 H 0.02648 0.68301 0.61518 0.0
O134 O 0.88359 0.60913 0.52993 0.0
C135 C 0.97243 0.66474 0.52004 0.0
Co136 Co 0.60618 0.34433 0.68434 0.0
Co137 Co 0.55868 0.29019 0.65419 0.0
C138 C 0.53439 0.35347 0.6878 0.0
O139 O 0.563 0.36615 0.69215 0.0
O140 O 0.53058 0.32538 0.67397 0.0
C141 C 0.65802 0.39789 0.70053 0.0
O142 O 0.63902 0.42311 0.69321 0.0
C143 C 0.50037 0.2621 0.62041 0.0
C144 C 0.51948 0.21311 0.60576 0.0
C145 C 0.49157 0.23283 0.60488 0.0
N146 N 0.53216 0.25978 0.62985 0.0
N147 N 0.54335 0.23039 0.62105 0.0
C148 C 0.47919 0.29185 0.62597 0.0
H149 H 0.47248 0.29335 0.65251 0.0
H150 H 0.49329 0.31447 0.61961 0.0
H151 H 0.45629 0.29068 0.61098 0.0
C152 C 0.63381 0.34138 0.61749 0.0
N153 N 0.61122 0.33166 0.63981 0.0
N154 N 0.59274 0.30824 0.62691 0.0
C155 C 0.60357 0.30211 0.59585 0.0
C156 C 0.62981 0.32307 0.58902 0.0
C157 C 0.66033 0.36631 0.62398 0.0
H158 H 0.64891 0.38931 0.63348 0.0
H159 H 0.6747 0.37223 0.60141 0.0
H160 H 0.67752 0.35647 0.64284 0.0
O161 O 0.60659 0.30585 0.71412 0.0
O162 O 0.57627 0.26572 0.69268 0.0
H163 H 0.59739 0.25146 0.58284 0.0
H164 H 0.59979 0.27899 0.54796 0.0
C165 C 0.59007 0.27609 0.57344 0.0
H166 H 0.56272 0.27751 0.57304 0.0
H167 H 0.56714 0.22187 0.62611 0.0
O168 O 0.64675 0.36864 0.69827 0.0
C169 C 0.59469 0.27684 0.71554 0.0
Co170 Co 0.40827 0.85154 0.43821 0.0
Co171 Co 0.46434 0.80731 0.40728 0.0
C172 C 0.40037 0.77994 0.43766 0.0
O173 O 0.38691 0.80806 0.44264 0.0
O174 O 0.42917 0.77717 0.42491 0.0
C175 C 0.35509 0.90359 0.45663 0.0
O176 O 0.32887 0.88658 0.44792 0.0
C177 C 0.4927 0.75388 0.36611 0.0
C178 C 0.54249 0.7739 0.35615 0.0
C179 C 0.52208 0.74723 0.34962 0.0
N180 N 0.49558 0.78332 0.38132 0.0
N181 N 0.52546 0.79505 0.3753 0.0
C182 C 0.46207 0.73326 0.3667 0.0
H183 H 0.43998 0.74938 0.36488 0.0
H184 H 0.46203 0.71503 0.34621 0.0
H185 H 0.46073 0.71989 0.39057 0.0
C186 C 0.41166 0.88263 0.3733 0.0
N187 N 0.42184 0.85945 0.39466 0.0
N188 N 0.44621 0.84247 0.38142 0.0
C189 C 0.45256 0.85499 0.35104 0.0
C190 C 0.43073 0.88075 0.34512 0.0
C191 C 0.38481 0.90713 0.38016 0.0
H192 H 0.36266 0.89393 0.38935 0.0
H193 H 0.37794 0.92138 0.35785 0.0
H194 H 0.39333 0.92473 0.39933 0.0
O195 O 0.44576 0.8509 0.46892 0.0
O196 O 0.48783 0.82338 0.44742 0.0
H197 H 0.50358 0.8488 0.33932 0.0
H198 H 0.47744 0.8552 0.30381 0.0
C199 C 0.47917 0.84311 0.32833 0.0
H200 H 0.47721 0.81597 0.32524 0.0
H201 H 0.53422 0.81753 0.38436 0.0
O202 O 0.38362 0.89086 0.45382 0.0
C203 C 0.47514 0.8401 0.47086 0.0
Co204 Co 0.9011 0.65239 0.1797 0.0
Co205 Co 0.93897 0.71595 0.15597 0.0
C206 C 0.97229 0.65251 0.18221 0.0
O207 O 0.94619 0.63481 0.18362 0.0
O208 O 0.97145 0.6827 0.1731 0.0
C209 C 0.84883 0.59669 0.19603 0.0
O210 O 0.86121 0.57068 0.18106 0.0
C211 C 0.99194 0.7466 0.11685 0.0
C212 C 0.97416 0.79785 0.11174 0.0
C213 C 2e-05 0.77701 0.10324 0.0
N214 N 0.96271 0.74937 0.13253 0.0
N215 N 0.95218 0.78007 0.12927 0.0
C216 C 0.01085 0.715 0.11395 0.0
H217 H 0.02546 0.71122 0.13679 0.0
H218 H 0.99347 0.69395 0.11138 0.0
H219 H 0.02791 0.71558 0.09247 0.0
C220 C 0.87247 0.65733 0.11378 0.0
N221 N 0.89301 0.66856 0.13723 0.0
N222 N 0.90734 0.69586 0.12707 0.0
C223 C 0.89578 0.70309 0.09659 0.0
C224 C 0.87364 0.6786 0.08709 0.0
C225 C 0.85013 0.62821 0.11829 0.0
H226 H 0.83201 0.63383 0.13807 0.0
H227 H 0.86504 0.60661 0.12601 0.0
H228 H 0.83629 0.62187 0.0956 0.0
O229 O 0.89874 0.68741 0.21284 0.0
O230 O 0.91869 0.73551 0.19691 0.0
H231 H 0.8993 0.75545 0.09155 0.0
H232 H 0.89245 0.73373 0.05303 0.0
C233 C 0.90539 0.73293 0.07715 0.0
H234 H 0.93246 0.73268 0.07286 0.0
H235 H 0.93005 0.78893 0.13919 0.0
O236 O 0.86379 0.62423 0.19463 0.0
C237 C 0.90499 0.71749 0.21879 0.0
Co238 Co 0.10748 0.15368 0.941 0.0
Co239 Co 0.04985 0.19592 0.90931 0.0
C240 C 0.11045 0.2256 0.94332 0.0
O241 O 0.12544 0.19825 0.94795 0.0
O242 O 0.08234 0.2271 0.92918 0.0
C243 C 0.13448 0.10808 0.98661 0.0
O244 O 0.12012 0.12844 0.00746 0.0
C245 C 0.01861 0.25114 0.87324 0.0
C246 C 0.97117 0.22851 0.85865 0.0
C247 C 0.98932 0.2574 0.85675 0.0
N248 N 0.01807 0.21967 0.88391 0.0
N249 N 0.98949 0.20644 0.87532 0.0
C250 C 0.04645 0.27468 0.87909 0.0
H251 H 0.04631 0.2823 0.90542 0.0
H252 H 0.07033 0.26217 0.87401 0.0
H253 H 0.04416 0.29696 0.86333 0.0
C254 C 0.10749 0.12378 0.87587 0.0
N255 N 0.09623 0.14698 0.89669 0.0
N256 N 0.0709 0.16227 0.88335 0.0
C257 C 0.06477 0.14827 0.8536 0.0
C258 C 0.08769 0.12323 0.84813 0.0
C259 C 0.13527 0.10065 0.88353 0.0
H260 H 0.15544 0.11419 0.89618 0.0
H261 H 0.14514 0.08903 0.86071 0.0
H262 H 0.12607 0.08093 0.90016 0.0
O263 O 0.06841 0.1511 0.96994 0.0
O264 O 0.02616 0.17788 0.94799 0.0
H265 H 0.03684 0.14341 0.80834 0.0
H266 H 0.0337 0.18302 0.82881 0.0
C267 C 0.03542 0.15597 0.83264 0.0
H268 H 0.01275 0.14751 0.8455 0.0
H269 H 0.98218 0.18253 0.88147 0.0
O270 O 0.13574 0.11613 0.95632 0.0
C271 C 0.03869 0.16103 0.97127 0.0
Co272 Co 0.31835 0.09698 0.1531 0.0
Co273 Co 0.3422 0.05814 0.21568 0.0
C274 C 0.31543 0.02602 0.15171 0.0
O275 O 0.31372 0.05239 0.13452 0.0
O276 O 0.32528 0.02656 0.18162 0.0
C277 C 0.30253 0.15048 0.09865 0.0
O278 O 0.31663 0.13823 0.07209 0.0
C279 C 0.38079 0.00429 0.24457 0.0
C280 C 0.38476 0.01974 0.2967 0.0
C281 C 0.39339 0.99475 0.27491 0.0
N282 N 0.3653 0.03345 0.24834 0.0
N283 N 0.36788 0.04262 0.27953 0.0
C284 C 0.38464 0.98696 0.21216 0.0
H285 H 0.36134 0.97382 0.20618 0.0
H286 H 0.38924 0.00533 0.19235 0.0
H287 H 0.4052 0.96884 0.21294 0.0
C288 C 0.38426 0.12577 0.15889 0.0
N289 N 0.36103 0.10455 0.1693 0.0
N290 N 0.37092 0.09022 0.19664 0.0
C291 C 0.40081 0.10263 0.20489 0.0
C292 C 0.41031 0.12529 0.18094 0.0
C293 C 0.38 0.14831 0.12995 0.0
H294 H 0.37123 0.13379 0.10849 0.0
H295 H 0.40317 0.16118 0.12315 0.0
H296 H 0.36113 0.16722 0.1361 0.0
O297 O 0.28522 0.09915 0.18834 0.0
O298 O 0.30161 0.07805 0.23578 0.0
H299 H 0.40366 0.09909 0.25739 0.0
H300 H 0.44282 0.10782 0.23739 0.0
C301 C 0.41932 0.0938 0.2355 0.0
H302 H 0.42478 0.06695 0.23533 0.0
H303 H 0.35784 0.06434 0.28916 0.0
O304 O 0.30406 0.13498 0.12583 0.0
C305 C 0.27966 0.09232 0.21839 0.0
Co306 Co 0.63996 0.56077 0.91317 0.0
Co307 Co 0.69365 0.59342 0.95865 0.0
C308 C 0.71154 0.55108 0.8998 0.0
O309 O 0.68128 0.54744 0.89186 0.0
O310 O 0.72026 0.56928 0.92409 0.0
C311 C 0.58771 0.54182 0.86257 0.0
O312 O 0.60407 0.55344 0.83706 0.0
C313 C 0.75222 0.63086 0.98201 0.0
C314 C 0.73491 0.64581 0.03159 0.0
C315 C 0.76177 0.64767 0.01044 0.0
N316 N 0.7212 0.61968 0.9864 0.0
N317 N 0.71105 0.6288 0.01606 0.0
C318 C 0.7714 0.62644 0.95073 0.0
H319 H 0.78092 0.60077 0.9495 0.0
H320 H 0.75485 0.63009 0.92922 0.0
H321 H 0.79242 0.64402 0.94939 0.0
C322 C 0.61434 0.62798 0.91155 0.0
N323 N 0.63757 0.60617 0.92063 0.0
N324 N 0.659 0.62058 0.94034 0.0
C325 C 0.64957 0.65245 0.94449 0.0
C326 C 0.62111 0.65802 0.92615 0.0
C327 C 0.5843 0.61937 0.89179 0.0
H328 H 0.57054 0.59929 0.90432 0.0
H329 H 0.59216 0.61061 0.86709 0.0
H330 H 0.56751 0.64075 0.88852 0.0
O331 O 0.63833 0.53638 0.95438 0.0
O332 O 0.67617 0.55731 0.98773 0.0
H333 H 0.66091 0.66974 0.9929 0.0
H334 H 0.65689 0.70207 0.96256 0.0
C335 C 0.66611 0.67662 0.96692 0.0
H336 H 0.69322 0.67588 0.96296 0.0
H337 H 0.68792 0.62297 0.02587 0.0
O338 O 0.5999 0.544 0.89131 0.0
C339 C 0.65375 0.53615 0.98156 0.0
Co340 Co 0.18856 0.88356 0.67369 0.0
Co341 Co 0.15129 0.93967 0.71191 0.0
C342 C 0.1952 0.95642 0.65656 0.0
O343 O 0.20196 0.92582 0.65287 0.0
O344 O 0.17385 0.96622 0.67758 0.0
C345 C 0.20387 0.83463 0.62078 0.0
O346 O 0.18663 0.85175 0.59936 0.0
C347 C 0.12321 0.99877 0.74433 0.0
C348 C 0.08402 0.97618 0.7749 0.0
C349 C 0.09827 0.00628 0.76697 0.0
N350 N 0.12257 0.96606 0.73849 0.0
N351 N 0.09943 0.95273 0.75723 0.0
C352 C 0.15062 0.02071 0.73267 0.0
H353 H 0.14359 0.03192 0.70871 0.0
H354 H 0.15572 0.04065 0.75077 0.0
H355 H 0.17347 0.00608 0.72877 0.0
C356 C 0.12219 0.85503 0.67103 0.0
N357 N 0.14297 0.87947 0.67948 0.0
N358 N 0.12611 0.90418 0.69228 0.0
C359 C 0.09348 0.89689 0.68987 0.0
C360 C 0.09031 0.86533 0.67706 0.0
C361 C 0.13251 0.82194 0.65805 0.0
H362 H 0.15607 0.81416 0.66956 0.0
H363 H 0.13572 0.82353 0.63092 0.0
H364 H 0.1135 0.80286 0.66304 0.0
O365 O 0.21033 0.8823 0.7157 0.0
O366 O 0.1881 0.92467 0.7424 0.0
H367 H 0.05388 0.91409 0.7204 0.0
H368 H 0.04634 0.91737 0.67714 0.0
C369 C 0.0656 0.92025 0.69642 0.0
H370 H 0.07441 0.94617 0.69655 0.0
H371 H 0.09517 0.9274 0.75912 0.0
O372 O 0.2069 0.8451 0.65018 0.0
C373 C 0.20904 0.90119 0.74058 0.0
Co374 Co 0.84382 0.43758 0.39549 0.0
Co375 Co 0.80425 0.40696 0.45499 0.0
C376 C 0.77225 0.43943 0.39442 0.0
O377 O 0.79909 0.44366 0.37843 0.0
O378 O 0.77178 0.42628 0.42304 0.0
C379 C 0.88585 0.48307 0.36362 0.0
O380 O 0.8647 0.50371 0.37708 0.0
C381 C 0.75123 0.36671 0.48416 0.0
C382 C 0.77062 0.35757 0.53421 0.0
C383 C 0.74375 0.35152 0.51393 0.0
N384 N 0.7812 0.38084 0.48669 0.0
N385 N 0.79265 0.37522 0.51668 0.0
C386 C 0.73042 0.36779 0.45372 0.0
H387 H 0.74634 0.36543 0.4315 0.0
H388 H 0.71167 0.34778 0.45387 0.0
H389 H 0.71761 0.39199 0.45252 0.0
C390 C 0.87484 0.37327 0.39592 0.0
N391 N 0.85125 0.39365 0.40708 0.0
N392 N 0.83789 0.3813 0.43393 0.0
C393 C 0.85398 0.35304 0.44158 0.0
C394 C 0.87817 0.34727 0.41775 0.0
C395 C 0.89585 0.37999 0.36622 0.0
H396 H 0.88079 0.39165 0.34658 0.0
H397 H 0.90698 0.35682 0.3566 0.0
H398 H 0.91605 0.39711 0.37317 0.0
O399 O 0.84767 0.46732 0.43416 0.0
O400 O 0.82278 0.44587 0.47792 0.0
H401 H 0.86581 0.31278 0.47469 0.0
H402 H 0.82331 0.3267 0.47552 0.0
C403 C 0.84943 0.33468 0.47325 0.0
H404 H 0.85503 0.35141 0.49419 0.0
H405 H 0.81518 0.38412 0.52546 0.0
O406 O 0.87996 0.45235 0.36557 0.0
C407 C 0.83924 0.46895 0.46437 0.0
Co408 Co 0.80907 0.38399 0.82184 0.0
Co409 Co 0.84785 0.44123 0.78768 0.0
C410 C 0.80428 0.45689 0.84271 0.0
O411 O 0.79729 0.42616 0.8441 0.0
O412 O 0.82636 0.46777 0.82297 0.0
C413 C 0.7941 0.33449 0.87378 0.0
O414 O 0.8124 0.35098 0.89487 0.0
C415 C 0.87836 0.49851 0.75332 0.0
C416 C 0.91802 0.47314 0.72563 0.0
C417 C 0.90433 0.50402 0.73116 0.0
N418 N 0.8779 0.46618 0.76105 0.0
N419 N 0.90133 0.45121 0.74395 0.0
C420 C 0.8512 0.52172 0.76291 0.0
H421 H 0.8282 0.50774 0.76819 0.0
H422 H 0.85834 0.53505 0.78575 0.0
H423 H 0.84641 0.53992 0.74303 0.0
C424 C 0.87448 0.35338 0.82324 0.0
N425 N 0.85435 0.37874 0.81602 0.0
N426 N 0.87192 0.40417 0.80607 0.0
C427 C 0.90435 0.39635 0.8095 0.0
C428 C 0.90673 0.36374 0.81963 0.0
C429 C 0.86316 0.31965 0.83334 0.0
H430 H 0.83905 0.31378 0.82181 0.0
H431 H 0.86071 0.31882 0.86058 0.0
H432 H 0.88131 0.30045 0.82609 0.0
O433 O 0.78688 0.38466 0.77994 0.0
O434 O 0.8096 0.42899 0.75729 0.0
H435 H 0.94658 0.41446 0.78332 0.0
H436 H 0.94996 0.41648 0.82718 0.0
C437 C 0.93261 0.41993 0.80628 0.0
H438 H 0.92377 0.44585 0.80614 0.0
H439 H 0.90492 0.42572 0.74351 0.0
O440 O 0.79014 0.34555 0.84474 0.0
C441 C 0.78804 0.40596 0.75713 0.0
Co442 Co 0.36178 0.05498 0.58378 0.0
Co443 Co 0.30693 0.09069 0.54332 0.0
C444 C 0.29005 0.04864 0.60134 0.0
O445 O 0.3205 0.04215 0.60635 0.0
O446 O 0.28091 0.06846 0.57868 0.0
C447 C 0.41186 0.03609 0.63448 0.0
O448 O 0.39321 0.04702 0.65874 0.0
C449 C 0.24762 0.12573 0.51984 0.0
C450 C 0.26767 0.15022 0.4754 0.0
C451 C 0.23913 0.1462 0.49383 0.0
N452 N 0.27989 0.1184 0.51714 0.0
N453 N 0.29168 0.13308 0.49049 0.0
C454 C 0.22562 0.11334 0.5468 0.0
H455 H 0.22235 0.08627 0.54404 0.0
H456 H 0.23755 0.11797 0.571 0.0
H457 H 0.20111 0.12561 0.54634 0.0
C458 C 0.38964 0.12172 0.58637 0.0
N459 N 0.36573 0.10054 0.57735 0.0
N460 N 0.34274 0.11648 0.56091 0.0
C461 C 0.3512 0.14886 0.55979 0.0
C462 C 0.38119 0.15293 0.57575 0.0
C463 C 0.42078 0.11214 0.60382 0.0
H464 H 0.43252 0.09103 0.59088 0.0
H465 H 0.41463 0.1046 0.62938 0.0
H466 H 0.43871 0.13284 0.60501 0.0
O467 O 0.36184 0.03153 0.54215 0.0
O468 O 0.32131 0.05383 0.51314 0.0
H469 H 0.33642 0.17643 0.51749 0.0
H470 H 0.33766 0.20008 0.555 0.0
C471 C 0.33113 0.17567 0.54434 0.0
H472 H 0.30442 0.17094 0.54815 0.0
H473 H 0.31603 0.13082 0.48226 0.0
O474 O 0.4015 0.03761 0.60504 0.0
C475 C 0.34401 0.03234 0.51652 0.0
Co476 Co 0.68995 0.60639 0.3283 0.0
Co477 Co 0.65584 0.56094 0.27561 0.0
C478 C 0.68582 0.5353 0.33983 0.0
O479 O 0.6927 0.56372 0.35168 0.0
O480 O 0.67255 0.53198 0.3115 0.0
C481 C 0.70909 0.65593 0.38112 0.0
O482 O 0.69439 0.63944 0.40488 0.0
C483 C 0.61389 0.50618 0.25284 0.0
C484 C 0.60274 0.52154 0.20178 0.0
C485 C 0.5974 0.49652 0.22445 0.0
N486 N 0.62834 0.53556 0.24713 0.0
N487 N 0.62146 0.54463 0.2166 0.0
C488 C 0.61507 0.48846 0.28518 0.0
H489 H 0.61134 0.50635 0.30564 0.0
H490 H 0.59594 0.46886 0.2865 0.0
H491 H 0.63983 0.47712 0.2883 0.0
C492 C 0.62588 0.64039 0.32485 0.0
N493 N 0.6464 0.61607 0.31531 0.0
N494 N 0.63162 0.59764 0.29299 0.0
C495 C 0.60091 0.60984 0.28782 0.0
C496 C 0.59646 0.6372 0.30798 0.0
C497 C 0.63446 0.66684 0.34921 0.0
H498 H 0.6566 0.6804 0.34048 0.0
H499 H 0.64006 0.65526 0.37331 0.0
H500 H 0.61401 0.68475 0.35275 0.0
O501 O 0.71956 0.60301 0.29013 0.0
O502 O 0.69604 0.57443 0.25002 0.0
H503 H 0.58588 0.59922 0.2385 0.0
H504 H 0.55212 0.60835 0.26631 0.0
C505 C 0.57645 0.59589 0.264 0.0
H506 H 0.57343 0.56905 0.26853 0.0
H507 H 0.62997 0.5664 0.20573 0.0
O508 O 0.70896 0.64471 0.35185 0.0
C509 C 0.72035 0.59097 0.26121 0.0
Co510 Co 0.15093 0.93534 0.09815 0.0
Co511 Co 0.18968 0.90922 0.0365 0.0
C512 C 0.22185 0.93449 0.10096 0.0
O513 O 0.19519 0.93762 0.11755 0.0
O514 O 0.22161 0.92484 0.07093 0.0
C515 C 0.10036 0.95236 0.15387 0.0
O516 O 0.11564 0.93983 0.17954 0.0
C517 C 0.24207 0.8676 0.00874 0.0
C518 C 0.22737 0.86372 0.95643 0.0
C519 C 0.25149 0.8541 0.97868 0.0
N520 N 0.2138 0.88452 0.00439 0.0
N521 N 0.20508 0.88199 0.97308 0.0
C522 C 0.25866 0.86338 0.04142 0.0
H523 H 0.23977 0.85987 0.06101 0.0
H524 H 0.27584 0.842 0.04106 0.0
H525 H 0.27278 0.88611 0.04737 0.0
C526 C 0.1184 0.87122 0.09205 0.0
N527 N 0.14134 0.89302 0.08212 0.0
N528 N 0.15547 0.8823 0.05491 0.0
C529 C 0.14106 0.85342 0.04618 0.0
C530 C 0.1173 0.84543 0.06972 0.0
C531 C 0.09593 0.87639 0.12098 0.0
H532 H 0.07778 0.89597 0.11492 0.0
H533 H 0.11069 0.88443 0.14254 0.0
H534 H 0.08219 0.85363 0.12755 0.0
O535 O 0.15049 0.96858 0.06273 0.0
O536 O 0.1724 0.95071 0.01604 0.0
H537 H 0.14469 0.85099 0.99365 0.0
H538 H 0.13316 0.81231 0.01303 0.0
C539 C 0.14877 0.83474 0.01529 0.0
H540 H 0.1752 0.82747 0.01539 0.0
H541 H 0.18407 0.89301 0.96303 0.0
O542 O 0.11349 0.95073 0.12542 0.0
C543 C 0.15821 0.97337 0.0327 0.0
Co544 Co 0.17284 0.30999 0.11131 0.0
Co545 Co 0.22614 0.3444 0.06646 0.0
C546 C 0.16241 0.31303 0.04039 0.0
O547 O 0.14986 0.30658 0.06859 0.0
O548 O 0.19073 0.32652 0.03754 0.0
C549 C 0.11963 0.2903 0.16047 0.0
O550 O 0.09563 0.30325 0.14297 0.0
C551 C 0.24834 0.38532 0.01085 0.0
C552 C 0.29956 0.3971 0.02526 0.0
C553 C 0.27667 0.40145 0.00022 0.0
N554 N 0.25427 0.37206 0.04069 0.0
N555 N 0.28486 0.37942 0.04926 0.0
C556 C 0.21596 0.38296 0.99327 0.0
H557 H 0.1954 0.38566 0.01123 0.0
H558 H 0.21379 0.40226 0.97397 0.0
H559 H 0.21388 0.35827 0.98151 0.0
C560 C 0.1754 0.374 0.14499 0.0
N561 N 0.18544 0.35365 0.12076 0.0
N562 N 0.2082 0.36852 0.10291 0.0
C563 C 0.2133 0.39908 0.11552 0.0
C564 C 0.19263 0.40329 0.14259 0.0
C565 C 0.14979 0.36554 0.17032 0.0
H566 H 0.15861 0.3445 0.18541 0.0
H567 H 0.12671 0.35831 0.15761 0.0
H568 H 0.14425 0.38658 0.18698 0.0
O569 O 0.21135 0.28077 0.1081 0.0
O570 O 0.25192 0.30464 0.08027 0.0
H571 H 0.263 0.41369 0.10584 0.0
H572 H 0.23547 0.44762 0.1152 0.0
C573 C 0.23766 0.42348 0.10236 0.0
H574 H 0.23358 0.42695 0.07552 0.0
H575 H 0.29599 0.37163 0.07114 0.0
O576 O 0.14914 0.29133 0.14979 0.0
C577 C 0.24048 0.28021 0.09645 0.0
Co578 Co 0.6566 0.19027 0.89453 0.0
Co579 Co 0.70606 0.15416 0.94216 0.0
C580 C 0.64947 0.19483 0.96779 0.0
O581 O 0.63828 0.20086 0.93892 0.0
O582 O 0.67514 0.17717 0.97252 0.0
C583 C 0.60461 0.21192 0.8432 0.0
O584 O 0.57875 0.19771 0.85674 0.0
C585 C 0.74691 0.127 0.9962 0.0
C586 C 0.77564 0.08965 0.96876 0.0
C587 C 0.77133 0.10282 9e-05 0.0
N588 N 0.73681 0.12664 0.96457 0.0
N589 N 0.75483 0.10497 0.94821 0.0
C590 C 0.73715 0.1537 0.0199 0.0
H591 H 0.72711 0.17527 0.00644 0.0
H592 H 0.7178 0.14425 0.03688 0.0
H593 H 0.75875 0.1621 0.03448 0.0
C594 C 0.65192 0.12378 0.86588 0.0
N595 N 0.66354 0.14479 0.88881 0.0
N596 N 0.68193 0.1285 0.91007 0.0
C597 C 0.68071 0.096 0.9021 0.0
C598 C 0.66218 0.09225 0.8737 0.0
C599 C 0.63359 0.13403 0.83552 0.0
H600 H 0.64564 0.15595 0.82439 0.0
H601 H 0.60791 0.14057 0.84245 0.0
H602 H 0.63269 0.11396 0.81686 0.0
O603 O 0.6977 0.21423 0.89073 0.0
O604 O 0.73424 0.18964 0.9228 0.0
H605 H 0.71751 0.05933 0.91182 0.0
H606 H 0.67639 0.04697 0.92157 0.0
C607 C 0.69382 0.06814 0.92243 0.0
H608 H 0.69711 0.0758 0.94849 0.0
H609 H 0.7539 0.10163 0.9227 0.0
O610 O 0.63274 0.2095 0.8567 0.0
C611 C 0.72645 0.21239 0.90273 0.0
Co612 Co 0.55931 0.90036 0.65211 0.0
Co613 Co 0.59513 0.9541 0.69543 0.0
C614 C 0.55584 0.89503 0.72309 0.0
O615 O 0.55025 0.88115 0.6954 0.0
O616 O 0.57192 0.92207 0.72529 0.0
C617 C 0.53511 0.84894 0.60101 0.0
O618 O 0.5459 0.82244 0.61623 0.0
C619 C 0.63003 0.98112 0.7532 0.0
C620 C 0.64871 0.02829 0.7333 0.0
C621 C 0.64696 0.00958 0.76178 0.0
N622 N 0.62261 0.98265 0.72088 0.0
N623 N 0.63379 0.01101 0.70923 0.0
C624 C 0.61933 0.95395 0.77579 0.0
H625 H 0.62385 0.9297 0.76382 0.0
H626 H 0.63272 0.95508 0.79965 0.0
H627 H 0.59241 0.95625 0.78057 0.0
C628 C 0.62415 0.89617 0.62161 0.0
N629 N 0.60467 0.90777 0.64577 0.0
N630 N 0.6193 0.93278 0.66046 0.0
C631 C 0.6481 0.93892 0.64449 0.0
C632 C 0.65185 0.91598 0.6191 0.0
C633 C 0.61539 0.86779 0.59965 0.0
H634 H 0.60414 0.84789 0.61465 0.0
H635 H 0.63758 0.85789 0.58688 0.0
H636 H 0.59738 0.87607 0.58079 0.0
O637 O 0.53451 0.94221 0.65012 0.0
O638 O 0.55969 0.98199 0.67805 0.0
H639 H 0.69172 0.9685 0.63495 0.0
H640 H 0.67537 0.97089 0.67644 0.0
C641 C 0.66881 0.96898 0.64995 0.0
H642 H 0.65438 0.99109 0.64284 0.0
H643 H 0.62955 0.01951 0.68532 0.0
O644 O 0.53971 0.87736 0.61347 0.0
C645 C 0.5361 0.97187 0.66017 0.0
Co646 Co 0.84023 0.81192 0.39364 0.0
Co647 Co 0.78256 0.84657 0.43375 0.0
C648 C 0.84216 0.81131 0.46508 0.0
O649 O 0.85736 0.80505 0.43819 0.0
O650 O 0.81444 0.82632 0.4656 0.0
C651 C 0.86865 0.76507 0.35001 0.0
O652 O 0.8524 0.74488 0.36954 0.0
C653 C 0.74837 0.87715 0.49057 0.0
C654 C 0.71031 0.90733 0.46599 0.0
C655 C 0.7231 0.89978 0.49679 0.0
N656 N 0.75155 0.87353 0.45764 0.0
N657 N 0.72795 0.89077 0.44329 0.0
C658 C 0.76376 0.85372 0.51463 0.0
H659 H 0.76566 0.82892 0.50326 0.0
H660 H 0.78899 0.86235 0.52097 0.0
H661 H 0.74873 0.85119 0.53739 0.0
C662 C 0.84606 0.87672 0.36498 0.0
N663 N 0.83146 0.8566 0.38679 0.0
N664 N 0.80603 0.8716 0.4005 0.0
C665 C 0.80329 0.9019 0.38644 0.0
C666 C 0.82836 0.90573 0.36326 0.0
C667 C 0.87567 0.8677 0.34469 0.0
H668 H 0.89351 0.85361 0.35992 0.0
H669 H 0.88803 0.89008 0.33477 0.0
H670 H 0.86774 0.85206 0.32367 0.0
O671 O 0.80016 0.78448 0.39014 0.0
O672 O 0.75794 0.80841 0.4155 0.0
H673 H 0.75298 0.916 0.38074 0.0
H674 H 0.78082 0.95014 0.38126 0.0
C675 C 0.77573 0.92571 0.39239 0.0
H676 H 0.77195 0.92901 0.41927 0.0
H677 H 0.72275 0.89 0.41813 0.0
O678 O 0.86933 0.79556 0.3573 0.0
C679 C 0.7701 0.78445 0.39917 0.0
Co680 Co 0.95366 0.09014 0.14574 0.0
Co681 Co 0.9111 0.04183 0.18891 0.0
C682 C 0.94771 0.09999 0.21778 0.0
O683 O 0.95771 0.11069 0.18986 0.0
O684 O 0.9298 0.07424 0.22046 0.0
C685 C 0.97979 0.14339 0.10072 0.0
O686 O 0.96633 0.16724 0.11817 0.0
C687 C 0.87701 0.00786 0.24288 0.0
C688 C 0.84289 0.97518 0.21563 0.0
C689 C 0.8521 0.9845 0.24725 0.0
N690 N 0.88063 0.01326 0.21035 0.0
N691 N 0.86091 0.99292 0.19424 0.0
C692 C 0.90183 0.01941 0.26772 0.0
H693 H 0.92642 0.02164 0.25584 0.0
H694 H 0.89456 0.04412 0.27711 0.0
H695 H 0.90402 0.00189 0.28862 0.0
C696 C 0.89187 0.0944 0.10824 0.0
N697 N 0.90935 0.08284 0.13395 0.0
N698 N 0.89026 0.06409 0.15244 0.0
C699 C 0.85937 0.06457 0.1395 0.0
C700 C 0.85987 0.08287 0.11063 0.0
C701 C 0.90528 0.1168 0.08207 0.0
H702 H 0.91301 0.14028 0.0937 0.0
H703 H 0.88659 0.12277 0.06301 0.0
H704 H 0.92698 0.1051 0.07007 0.0
O705 O 0.97849 0.04902 0.14745 0.0
O706 O 0.9491 0.01309 0.17629 0.0
H707 H 0.82454 0.02508 0.14382 0.0
H708 H 0.80717 0.06506 0.1498 0.0
C709 C 0.82923 0.04969 0.15487 0.0
H710 H 0.83212 0.04783 0.18197 0.0
H711 H 0.86084 0.99008 0.16866 0.0
O712 O 0.97672 0.11361 0.1099 0.0
C713 C 0.97493 0.02064 0.16008 0.0
Co714 Co 0.33726 0.68289 0.60011 0.0
Co715 Co 0.28354 0.65026 0.55383 0.0
C716 C 0.34427 0.68697 0.52797 0.0
O717 O 0.35717 0.69188 0.55635 0.0
O718 O 0.31688 0.6717 0.52448 0.0
C719 C 0.38888 0.7031 0.65313 0.0
O720 O 0.4151 0.69122 0.63809 0.0
C721 C 0.25697 0.61151 0.49807 0.0
C722 C 0.20725 0.59915 0.51698 0.0
C723 C 0.22777 0.59547 0.48982 0.0
N724 N 0.25372 0.62399 0.5287 0.0
N725 N 0.22398 0.61643 0.53983 0.0
C726 C 0.28777 0.61433 0.47782 0.0
H727 H 0.30967 0.61007 0.49371 0.0
H728 H 0.28773 0.59638 0.45708 0.0
H729 H 0.28967 0.63977 0.46783 0.0
C730 C 0.33778 0.61615 0.62796 0.0
N731 N 0.32715 0.63789 0.60534 0.0
N732 N 0.30393 0.62408 0.58727 0.0
C733 C 0.29887 0.593 0.59836 0.0
C734 C 0.32037 0.58703 0.62427 0.0
C735 C 0.36176 0.6243 0.65483 0.0
H736 H 0.35116 0.64392 0.67078 0.0
H737 H 0.38492 0.63362 0.64362 0.0
H738 H 0.3676 0.60258 0.67041 0.0
O739 O 0.29708 0.70957 0.60207 0.0
O740 O 0.25709 0.68714 0.57241 0.0
H741 H 0.24815 0.58004 0.59242 0.0
H742 H 0.27545 0.54507 0.59681 0.0
C743 C 0.27281 0.57005 0.58586 0.0
H744 H 0.2745 0.56818 0.5586 0.0
H745 H 0.21487 0.6236 0.5629 0.0
O746 O 0.36062 0.70045 0.63976 0.0
C747 C 0.26771 0.70991 0.59122 0.0
Co748 Co 0.05812 0.5953 0.34774 0.0
Co749 Co 0.08422 0.53434 0.30728 0.0
C750 C 0.0619 0.59948 0.27598 0.0
O751 O 0.05829 0.61499 0.30322 0.0
O752 O 0.07127 0.56941 0.27537 0.0
C753 C 0.04483 0.65236 0.39656 0.0
O754 O 0.06859 0.67201 0.38651 0.0
C755 C 0.12734 0.50434 0.25708 0.0
C756 C 0.12986 0.45263 0.27412 0.0
C757 C 0.14158 0.474 0.25011 0.0
N758 N 0.10839 0.50113 0.28423 0.0
N759 N 0.10991 0.47013 0.29419 0.0
C760 C 0.13301 0.53626 0.23943 0.0
H761 H 0.13408 0.55686 0.2575 0.0
H762 H 0.15622 0.53548 0.2248 0.0
H763 H 0.11201 0.54089 0.22249 0.0
C764 C 0.12122 0.58498 0.3828 0.0
N765 N 0.09932 0.57683 0.35923 0.0
N766 N 0.11077 0.55147 0.34235 0.0
C767 C 0.14073 0.54308 0.35457 0.0
C768 C 0.14825 0.56431 0.38032 0.0
C769 C 0.11594 0.61114 0.40837 0.0
H770 H 0.09091 0.6086 0.41914 0.0
H771 H 0.11839 0.63567 0.39658 0.0
H772 H 0.13426 0.60947 0.42864 0.0
O773 O 0.02375 0.56139 0.34599 0.0
O774 O 0.04125 0.51504 0.32299 0.0
H775 H 0.14872 0.49192 0.34463 0.0
H776 H 0.18582 0.51444 0.35509 0.0
C777 C 0.16194 0.51571 0.34171 0.0
H778 H 0.16681 0.51961 0.31506 0.0
H779 H 0.09754 0.46098 0.31492 0.0
O780 O 0.04036 0.62441 0.38298 0.0
C781 C 0.01845 0.53194 0.3367 0.0
Co782 Co 0.43295 0.40932 0.85077 0.0
Co783 Co 0.40106 0.46464 0.80705 0.0
C784 C 0.43923 0.4048 0.77966 0.0
O785 O 0.44289 0.39005 0.80726 0.0
O786 O 0.42426 0.43246 0.77745 0.0
C787 C 0.45315 0.3563 0.90137 0.0
O788 O 0.44769 0.33057 0.88237 0.0
C789 C 0.36252 0.48884 0.75077 0.0
C790 C 0.34829 0.53864 0.76794 0.0
C791 C 0.34553 0.51708 0.74151 0.0
N792 N 0.37449 0.49345 0.78136 0.0
N793 N 0.36584 0.52325 0.79149 0.0
C794 C 0.36724 0.45792 0.7311 0.0
H795 H 0.3924 0.45797 0.72015 0.0
H796 H 0.36517 0.43609 0.74751 0.0
H797 H 0.34875 0.45609 0.71098 0.0
C798 C 0.36623 0.4073 0.87838 0.0
N799 N 0.3878 0.41865 0.85585 0.0
N800 N 0.37453 0.44353 0.83984 0.0
C801 C 0.3442 0.4494 0.85268 0.0
C802 C 0.33799 0.42645 0.87738 0.0
C803 C 0.37407 0.38119 0.90328 0.0
H804 H 0.3859 0.35994 0.8907 0.0
H805 H 0.35163 0.3724 0.91631 0.0
H806 H 0.39141 0.39141 0.92184 0.0
O807 O 0.45987 0.44967 0.85364 0.0
O808 O 0.43711 0.49121 0.82646 0.0
H809 H 0.33535 0.50128 0.85053 0.0
H810 H 0.29851 0.47675 0.8565 0.0
C811 C 0.32272 0.47798 0.84363 0.0
H812 H 0.31862 0.47807 0.81657 0.0
H813 H 0.37252 0.53333 0.81425 0.0
O814 O 0.44852 0.3852 0.89025 0.0
C815 C 0.4601 0.47961 0.84436 0.0
C816 C 0.18194 0.13137 0.47732 0.0
C817 C 0.20609 0.15583 0.48228 0.0
C818 C 0.15442 0.13758 0.45737 0.0
C819 C 0.15027 0.16844 0.44221 0.0
H820 H 0.18582 0.10648 0.48628 0.0
H821 H 0.13784 0.11739 0.45153 0.0
S822 S 0.20391 0.24184 0.45143 0.0
N823 N 0.22222 0.21292 0.47357 0.0
N824 N 0.17017 0.22463 0.43627 0.0
C825 C 0.17249 0.19392 0.44954 0.0
C826 C 0.20063 0.18754 0.46951 0.0
C827 C 0.5413 0.43561 0.18248 0.0
C828 C 0.56054 0.40677 0.1826 0.0
C829 C 0.55199 0.46411 0.19897 0.0
C830 C 0.58204 0.46446 0.21631 0.0
H831 H 0.51977 0.43723 0.1667 0.0
H832 H 0.53795 0.4867 0.19603 0.0
S833 S 0.63948 0.3939 0.22656 0.0
N834 N 0.6092 0.37912 0.2036 0.0
N835 N 0.62945 0.43259 0.23476 0.0
C836 C 0.59987 0.4348 0.21913 0.0
C837 C 0.58898 0.40587 0.20224 0.0
C838 C 0.30909 0.79746 0.93233 0.0
C839 C 0.33974 0.81323 0.93625 0.0
C840 C 0.28083 0.80923 0.94858 0.0
C841 C 0.28242 0.8369 0.96952 0.0
H842 H 0.30627 0.77817 0.91398 0.0
H843 H 0.25717 0.79807 0.94291 0.0
S844 S 0.35771 0.88487 0.99002 0.0
N845 N 0.37077 0.85597 0.96432 0.0
N846 N 0.31775 0.87821 0.99505 0.0
C847 C 0.31353 0.85101 0.97586 0.0
C848 C 0.34225 0.83903 0.95921 0.0
C849 C 0.92335 0.52861 0.6783 0.0
C850 C 0.91263 0.53358 0.71104 0.0
C851 C 0.92945 0.55512 0.65724 0.0
C852 C 0.92484 0.58778 0.66781 0.0
H853 H 0.92598 0.50393 0.66829 0.0
H854 H 0.93647 0.54996 0.63191 0.0
S855 S 0.90245 0.61492 0.75225 0.0
N856 N 0.90265 0.57417 0.75438 0.0
N857 N 0.91186 0.62421 0.71365 0.0
C858 C 0.91599 0.59348 0.70083 0.0
C859 C 0.91033 0.56631 0.7227 0.0
C860 C 0.68245 0.35533 0.5204 0.0
C861 C 0.71196 0.33765 0.52543 0.0
C862 C 0.65383 0.34773 0.53845 0.0
C863 C 0.65384 0.32208 0.56173 0.0
H864 H 0.68222 0.37703 0.50482 0.0
H865 H 0.63257 0.36386 0.53639 0.0
S866 S 0.72315 0.2657 0.5807 0.0
N867 N 0.73828 0.29122 0.55271 0.0
N868 N 0.68434 0.27696 0.58646 0.0
C869 C 0.68215 0.30241 0.56475 0.0
C870 C 0.71133 0.31027 0.54667 0.0
C871 C 0.43622 0.96367 0.30603 0.0
C872 C 0.40886 0.96316 0.28469 0.0
C873 C 0.44656 0.935 0.32239 0.0
C874 C 0.42969 0.90501 0.3181 0.0
H875 H 0.44833 0.98683 0.3118 0.0
H876 H 0.46579 0.93701 0.34086 0.0
S877 S 0.35797 0.88996 0.26365 0.0
N878 N 0.36635 0.92957 0.25878 0.0
N879 N 0.38599 0.87576 0.2896 0.0
C880 C 0.40401 0.90356 0.29498 0.0
C881 C 0.39346 0.9327 0.27826 0.0
C882 C 0.82366 0.69823 0.05782 0.0
C883 C 0.85122 0.67725 0.05843 0.0
C884 C 0.79566 0.69001 0.0392 0.0
C885 C 0.79443 0.66066 0.02053 0.0
H886 H 0.82249 0.71937 0.07421 0.0
H887 H 0.77388 0.70543 0.04144 0.0
S888 S 0.86219 0.59963 0.01139 0.0
N889 N 0.87737 0.62813 0.03629 0.0
N890 N 0.82455 0.61209 0.00189 0.0
C891 C 0.8231 0.64114 0.01863 0.0
C892 C 0.85164 0.64968 0.03742 0.0
C893 C 0.08405 0.03512 0.81918 0.0
C894 C 0.092 0.03732 0.78543 0.0
C895 C 0.08068 0.06335 0.83863 0.0
C896 C 0.08537 0.09495 0.82525 0.0
H897 H 0.08162 0.01132 0.83113 0.0
H898 H 0.07564 0.06036 0.86475 0.0
S899 S 0.10062 0.11488 0.7374 0.0
N900 N 0.09918 0.0741 0.73841 0.0
N901 N 0.09496 0.1274 0.77585 0.0
C902 C 0.09127 0.09787 0.79128 0.0
C903 C 0.09414 0.06896 0.77115 0.0
C904 C 0.43414 0.17795 0.20056 0.0
C905 C 0.43753 0.14944 0.18114 0.0
C906 C 0.45063 0.20717 0.192 0.0
C907 C 0.47108 0.20867 0.16389 0.0
H908 H 0.41611 0.17865 0.22037 0.0
H909 H 0.44528 0.2294 0.20594 0.0
S910 S 0.49055 0.13912 0.10739 0.0
N911 N 0.46525 0.12307 0.13509 0.0
N912 N 0.49574 0.17805 0.11836 0.0
C913 C 0.47704 0.17934 0.14621 0.0
C914 C 0.46041 0.1496 0.15512 0.0
C915 C 0.59489 0.70599 0.899 0.0
C916 C 0.59763 0.68582 0.92706 0.0
C917 C 0.56515 0.72223 0.89169 0.0
C918 C 0.53721 0.71841 0.91208 0.0
H919 H 0.61467 0.70651 0.88094 0.0
H920 H 0.56316 0.73512 0.86837 0.0
S921 S 0.53347 0.67202 0.99076 0.0
N922 N 0.57152 0.66605 0.97718 0.0
N923 N 0.51547 0.69628 0.9634 0.0
C924 C 0.54071 0.70076 0.94169 0.0
C925 C 0.57106 0.68463 0.94928 0.0
C926 C 0.05334 0.82015 0.69444 0.0
C927 C 0.0606 0.8452 0.6716 0.0
C928 C 0.03488 0.79244 0.68504 0.0
C929 C 0.0227 0.78936 0.65275 0.0
H930 H 0.06475 0.8204 0.71861 0.0
H931 H 0.0321 0.77228 0.70239 0.0
S932 S 0.03234 0.84995 0.58498 0.0
N933 N 0.05233 0.86659 0.61639 0.0
N934 N 0.01686 0.81482 0.59879 0.0
C935 C 0.02731 0.81565 0.63064 0.0
C936 C 0.04647 0.84362 0.64011 0.0
C937 C 0.96814 0.32475 0.41577 0.0
C938 C 0.96762 0.29041 0.41063 0.0
C939 C 0.93899 0.34245 0.42068 0.0
C940 C 0.90811 0.32664 0.42017 0.0
H941 H 0.99111 0.33843 0.41457 0.0
H942 H 0.94052 0.36904 0.4233 0.0
S943 S 0.89347 0.23659 0.41534 0.0
N944 N 0.934 0.24049 0.41218 0.0
N945 N 0.87868 0.27449 0.41873 0.0
C946 C 0.90719 0.29215 0.41776 0.0
C947 C 0.93711 0.27385 0.41355 0.0
C948 C 0.97183 0.31593 0.86501 0.0
C949 C 0.97647 0.28884 0.84372 0.0
C950 C 0.95166 0.34257 0.85571 0.0
C951 C 0.93615 0.34296 0.82472 0.0
H952 H 0.9815 0.31523 0.88992 0.0
H953 H 0.94608 0.36157 0.87373 0.0
S954 S 0.94426 0.28025 0.75866 0.0
N955 N 0.96667 0.26559 0.78937 0.0
N956 N 0.92953 0.31605 0.77163 0.0
C957 C 0.94311 0.31753 0.80225 0.0
C958 C 0.96305 0.29025 0.81187 0.0
C959 C 0.42791 0.18658 0.5555 0.0
C960 C 0.40237 0.18233 0.5786 0.0
C961 C 0.4558 0.20559 0.56321 0.0
C962 C 0.45877 0.22119 0.59408 0.0
H963 H 0.42772 0.17273 0.53259 0.0
H964 H 0.47613 0.20628 0.54578 0.0
S965 S 0.39724 0.2194 0.66196 0.0
N966 N 0.38056 0.19665 0.6325 0.0
N967 N 0.43283 0.23275 0.64703 0.0
C968 C 0.43217 0.21917 0.61635 0.0
C969 C 0.40393 0.1996 0.60856 0.0
C970 C 0.54686 0.65825 0.33711 0.0
C971 C 0.56871 0.6606 0.31022 0.0
C972 C 0.52898 0.68591 0.34803 0.0
C973 C 0.53285 0.71676 0.33256 0.0
H974 H 0.5459 0.63578 0.35158 0.0
H975 H 0.51455 0.68378 0.37047 0.0
S976 S 0.5839 0.73435 0.25859 0.0
N977 N 0.59062 0.69488 0.26635 0.0
N978 N 0.55725 0.747 0.28684 0.0
C979 C 0.55252 0.71857 0.304 0.0
C980 C 0.57038 0.69038 0.29277 0.0
C981 C 0.06187 0.77879 0.10157 0.0
C982 C 0.03135 0.78777 0.08756 0.0
C983 C 0.09116 0.79495 0.09241 0.0
C984 C 0.09087 0.82039 0.06888 0.0
H985 H 0.06283 0.76135 0.12176 0.0
H986 H 0.11359 0.78964 0.10597 0.0
S987 S 0.01849 0.84994 0.02173 0.0
N988 N 0.00339 0.82116 0.04638 0.0
N989 N 0.05854 0.8515 0.02938 0.0
C990 C 0.06117 0.82753 0.05267 0.0
C991 C 0.03133 0.8113 0.06207 0.0
C992 C 0.15143 0.47103 0.18925 0.0
C993 C 0.16208 0.46409 0.22155 0.0
C994 C 0.16509 0.45429 0.16208 0.0
C995 C 0.19001 0.43056 0.1665 0.0
H996 H 0.13038 0.48703 0.18521 0.0
H997 H 0.15386 0.45745 0.13803 0.0
S998 S 0.23004 0.40769 0.24525 0.0
N999 N 0.20174 0.43514 0.25587 0.0
N1000 N 0.22756 0.40402 0.20472 0.0
C1001 C 0.20317 0.42612 0.19816 0.0
C1002 C 0.18905 0.44274 0.22579 0.0
C1003 C 0.63113 0.04782 0.84496 0.0
C1004 C 0.66127 0.06372 0.85126 0.0
C1005 C 0.62747 0.02733 0.81727 0.0
C1006 C 0.65373 0.0228 0.79492 0.0
H1007 H 0.60973 0.05304 0.86021 0.0
H1008 H 0.60326 0.01728 0.8119 0.0
S1009 S 0.73825 0.05693 0.80223 0.0
N1010 N 0.71841 0.07157 0.8348 0.0
N1011 N 0.71132 0.03372 0.78222 0.0
C1012 C 0.68448 0.03696 0.80216 0.0
C1013 C 0.68833 0.05728 0.83058 0.0
C1014 C 0.65611 0.92054 0.55836 0.0
C1015 C 0.67228 0.91846 0.58892 0.0
C1016 C 0.67317 0.91568 0.52884 0.0
C1017 C 0.70734 0.90938 0.52857 0.0
H1018 H 0.62962 0.92424 0.5573 0.0
H1019 H 0.65899 0.91543 0.50619 0.0
S1020 S 0.76249 0.91129 0.60175 0.0
N1021 N 0.72488 0.91473 0.61731 0.0
N1022 N 0.75788 0.90959 0.56126 0.0
C1023 C 0.72449 0.91145 0.5588 0.0
C1024 C 0.70673 0.91508 0.58915 0.0
C1025 C 0.83309 0.93343 0.27507 0.0
C1026 C 0.84168 0.96698 0.27762 0.0
C1027 C 0.82675 0.91457 0.30307 0.0
C1028 C 0.82934 0.92828 0.33479 0.0
H1029 H 0.8325 0.9211 0.25133 0.0
H1030 H 0.82112 0.88859 0.29991 0.0
S1031 S 0.84424 0.01615 0.35503 0.0
N1032 N 0.84579 0.0146 0.31429 0.0
N1033 N 0.83745 0.9779 0.36745 0.0
C1034 C 0.83571 0.96214 0.33788 0.0
C1035 C 0.84104 0.98181 0.30912 0.0
C1036 C 0.80449 0.09923 0.0884 0.0
C1037 C 0.83508 0.08361 0.08403 0.0
C1038 C 0.78303 0.10376 0.06163 0.0
C1039 C 0.79217 0.09436 0.02929 0.0
H1040 H 0.79749 0.10887 0.11235 0.0
H1041 H 0.75938 0.11495 0.06666 0.0
S1042 S 0.86827 0.04757 0.00676 0.0
N1043 N 0.8716 0.05417 0.04678 0.0
N1044 N 0.83299 0.06477 0.9959 0.0
C1045 C 0.82211 0.07678 0.02535 0.0
C1046 C 0.84319 0.07112 0.05281 0.0
C1047 C 0.35342 0.52218 0.68067 0.0
C1048 C 0.33316 0.52652 0.70861 0.0
C1049 C 0.34678 0.53904 0.65123 0.0
C1050 C 0.3196 0.56043 0.64889 0.0
H1051 H 0.37619 0.50826 0.6824 0.0
H1052 H 0.36462 0.53773 0.63128 0.0
S1053 S 0.25658 0.57645 0.71322 0.0
N1054 N 0.28287 0.55072 0.73081 0.0
N1055 N 0.27042 0.58231 0.67529 0.0
C1056 C 0.29752 0.5625 0.67549 0.0
C1057 C 0.30438 0.54561 0.7055 0.0
C1058 C 0.17873 0.54464 0.42946 0.0
C1059 C 0.17744 0.56555 0.40191 0.0
C1060 C 0.19792 0.55302 0.45701 0.0
C1061 C 0.21653 0.5824 0.45768 0.0
H1062 H 0.16246 0.52345 0.43098 0.0
H1063 H 0.19629 0.53769 0.47885 0.0
S1064 S 0.22334 0.64366 0.39005 0.0
N1065 N 0.19819 0.61505 0.37549 0.0
N1066 N 0.23405 0.63112 0.42729 0.0
C1067 C 0.21753 0.60198 0.42908 0.0
C1068 C 0.198 0.5934 0.4011 0.0
C1069 C 0.27617 0.39582 0.93874 0.0
C1070 C 0.28466 0.41429 0.96696 0.0
C1071 C 0.29062 0.40263 0.908 0.0
C1072 C 0.31385 0.42813 0.90457 0.0
H1073 H 0.26071 0.37412 0.94085 0.0
H1074 H 0.28596 0.38597 0.88758 0.0
S1075 S 0.34118 0.48625 0.9696 0.0
N1076 N 0.31504 0.4613 0.98858 0.0
N1077 N 0.34225 0.4739 0.93073 0.0
C1078 C 0.3203 0.44853 0.93179 0.0
C1079 C 0.30577 0.44155 0.96308 0.0
C1080 C 0.13888 0.25769 0.20882 0.0
C1081 C 0.11391 0.27683 0.19407 0.0
C1082 C 0.13486 0.2442 0.24028 0.0
C1083 C 0.10582 0.24945 0.25864 0.0
H1084 H 0.16162 0.25232 0.19569 0.0
H1085 H 0.1544 0.22868 0.24992 0.0
S1086 S 0.03365 0.29942 0.23246 0.0
N1087 N 0.05962 0.30177 0.20104 0.0
N1088 N 0.05206 0.27623 0.26046 0.0
C1089 C 0.08107 0.26957 0.24488 0.0
C1090 C 0.08505 0.28317 0.2125 0.0
C1091 C 0.47141 0.321 0.94911 0.0
C1092 C 0.46349 0.35238 0.9364 0.0
C1093 C 0.48387 0.31739 0.98127 0.0
C1094 C 0.48891 0.34503 0.00166 0.0
H1095 H 0.46914 0.29919 0.93377 0.0
H1096 H 0.49147 0.29309 0.98948 0.0
S1097 S 0.46798 0.43183 0.98264 0.0
N1098 N 0.45821 0.41124 0.94885 0.0
N1099 N 0.48251 0.40405 0.00859 0.0
C1100 C 0.4795 0.37616 0.99012 0.0
C1101 C 0.46651 0.37994 0.95768 0.0
C1102 C 0.42136 0.72545 0.7388 0.0
C1103 C 0.39614 0.74566 0.75171 0.0
C1104 C 0.41901 0.71188 0.70686 0.0
C1105 C 0.39117 0.71767 0.68685 0.0
H1106 H 0.44366 0.72117 0.75289 0.0
H1107 H 0.43925 0.69688 0.69779 0.0
S1108 S 0.31736 0.76731 0.71024 0.0
N1109 N 0.34183 0.76957 0.74268 0.0
N1110 N 0.3372 0.74413 0.68315 0.0
C1111 C 0.36532 0.73701 0.70005 0.0
C1112 C 0.36785 0.75095 0.73232 0.0
C1113 C 0.04102 0.67175 0.45535 0.0
C1114 C 0.0256 0.65962 0.4267 0.0
C1115 C 0.02382 0.67342 0.48556 0.0
C1116 C 0.99063 0.66309 0.48805 0.0
H1117 H 0.06686 0.67871 0.45472 0.0
H1118 H 0.03679 0.68235 0.50716 0.0
S1119 S 0.93846 0.63289 0.41859 0.0
N1120 N 0.97504 0.63946 0.40185 0.0
N1121 N 0.94249 0.64278 0.45788 0.0
C1122 C 0.97476 0.65214 0.45896 0.0
C1123 C 0.99229 0.65037 0.42851 0.0
C1124 C 0.57593 0.22171 0.78906 0.0
C1125 C 0.60255 0.22816 0.81041 0.0
C1126 C 0.57439 0.23614 0.75755 0.0
C1127 C 0.59923 0.25783 0.74642 0.0
H1128 H 0.55615 0.20536 0.79666 0.0
H1129 H 0.55301 0.23113 0.7423 0.0
S1130 S 0.67482 0.28201 0.79223 0.0
N1131 N 0.65486 0.25716 0.81762 0.0
N1132 N 0.65181 0.28407 0.75873 0.0
C1133 C 0.62626 0.26398 0.76728 0.0
C1134 C 0.62794 0.24924 0.79917 0.0
C1135 C 0.52898 0.82169 0.54553 0.0
C1136 C 0.51997 0.84686 0.56778 0.0
C1137 C 0.51579 0.82057 0.51343 0.0
C1138 C 0.49278 0.84433 0.50268 0.0
H1139 H 0.54651 0.80287 0.55285 0.0
H1140 H 0.52285 0.80036 0.49735 0.0
S1141 S 0.46114 0.91529 0.55159 0.0
N1142 N 0.48685 0.89621 0.57672 0.0
N1143 N 0.46206 0.89405 0.51683 0.0
C1144 C 0.48393 0.8698 0.52467 0.0
C1145 C 0.49749 0.87107 0.55709 0.0
C1146 C 0.88745 0.77535 0.29146 0.0
C1147 C 0.88135 0.75316 0.31764 0.0
C1148 C 0.89558 0.76397 0.25958 0.0
C1149 C 0.89784 0.72998 0.2527 0.0
H1150 H 0.88494 0.80168 0.29529 0.0
H1151 H 0.89933 0.78187 0.24008 0.0
S1152 S 0.88818 0.66193 0.31372 0.0
N1153 N 0.88095 0.69583 0.33507 0.0
N1154 N 0.89632 0.67438 0.27585 0.0
C1155 C 0.89321 0.70768 0.27914 0.0
C1156 C 0.88497 0.71926 0.31138 0.0
C1157 C 0.02878 0.12887 0.02247 0.0
C1158 C 0.02059 0.15604 0.00257 0.0
C1159 C 0.01581 0.12552 0.05426 0.0
C1160 C 0.99443 0.14943 0.06776 0.0
H1161 H 0.04574 0.11014 0.01355 0.0
H1162 H 0.0229 0.10402 0.0685 0.0
S1163 S 0.9653 0.22542 0.02583 0.0
N1164 N 0.9897 0.20741 0.99848 0.0
N1165 N 0.96526 0.20112 0.05856 0.0
C1166 C 0.98587 0.17674 0.04814 0.0
C1167 C 0.99885 0.17997 0.01543 0.0
C1168 C 0.24051 0.10249 0.26593 0.0
C1169 C 0.24622 0.09977 0.23177 0.0
C1170 C 0.20914 0.11113 0.27827 0.0
C1171 C 0.18231 0.11722 0.2569 0.0
H1172 H 0.26056 0.09878 0.2832 0.0
H1173 H 0.20621 0.11399 0.3047 0.0
S1174 S 0.18318 0.10904 0.1656 0.0
N1175 N 0.22139 0.10078 0.17695 0.0
N1176 N 0.163 0.11696 0.20012 0.0
C1177 C 0.18739 0.11305 0.22283 0.0
C1178 C 0.21916 0.10437 0.21029 0.0
C1179 C 0.61622 0.49324 0.00371 0.0
C1180 C 0.64784 0.50754 0.00341 0.0
C1181 C 0.61086 0.46188 0.01698 0.0
C1182 C 0.63696 0.44316 0.03035 0.0
H1183 H 0.59559 0.50584 0.99225 0.0
H1184 H 0.58605 0.45193 0.01572 0.0
S1185 S 0.7242 0.47061 0.03778 0.0
N1186 N 0.70538 0.50172 0.01936 0.0
N1187 N 0.6954 0.44247 0.04452 0.0
C1188 C 0.6685 0.45786 0.03173 0.0
C1189 C 0.67389 0.49013 0.01831 0.0
C1190 C 0.25714 0.92586 0.76991 0.0
C1191 C 0.23667 0.89841 0.76404 0.0
C1192 C 0.2895 0.92176 0.78189 0.0
C1193 C 0.30239 0.89007 0.78829 0.0
H1194 H 0.24912 0.95034 0.76272 0.0
H1195 H 0.30498 0.94341 0.78452 0.0
S1196 S 0.25614 0.81084 0.78169 0.0
N1197 N 0.2298 0.83919 0.769 0.0
N1198 N 0.29004 0.83111 0.79167 0.0
C1199 C 0.28095 0.86273 0.78496 0.0
C1200 C 0.24822 0.86702 0.77285 0.0
C1201 C 0.82248 0.51164 0.50598 0.0
C1202 C 0.84531 0.50026 0.48226 0.0
C1203 C 0.82519 0.54341 0.5197 0.0
C1204 C 0.85109 0.5647 0.51053 0.0
H1205 H 0.80174 0.49634 0.51321 0.0
H1206 H 0.80703 0.55123 0.53778 0.0
S1207 S 0.91778 0.54634 0.45004 0.0
N1208 N 0.89496 0.51258 0.45069 0.0
N1209 N 0.90024 0.57194 0.47653 0.0
C1210 C 0.8744 0.55334 0.48729 0.0
C1211 C 0.87147 0.52122 0.47316 0.0
C1212 C 0.74609 0.37623 0.72411 0.0
C1213 C 0.75956 0.40651 0.73434 0.0
C1214 C 0.71384 0.37417 0.71196 0.0
C1215 C 0.6934 0.40228 0.70975 0.0
H1216 H 0.75993 0.35357 0.72741 0.0
H1217 H 0.7045 0.34992 0.70556 0.0
S1218 S 0.71814 0.48809 0.73062 0.0
N1219 N 0.75113 0.4657 0.73924 0.0
N1220 N 0.69026 0.46197 0.71628 0.0
C1221 C 0.70734 0.43314 0.7178 0.0
C1222 C 0.74049 0.43522 0.73007 0.0
C1223 C 0.32134 0.95367 0.47207 0.0
C1224 C 0.35244 0.93865 0.46754 0.0
C1225 C 0.31861 0.98585 0.48495 0.0
C1226 C 0.34689 0.004 0.49378 0.0
H1227 H 0.2989 0.94008 0.46688 0.0
H1228 H 0.29423 0.99561 0.49016 0.0
S1229 S 0.43407 0.97837 0.4826 0.0
N1230 N 0.41227 0.94648 0.46962 0.0
N1231 N 0.40673 0.00635 0.49409 0.0
C1232 C 0.37803 0.99024 0.48733 0.0
C1233 C 0.38092 0.95773 0.47418 0.0
C1234 C 0.79301 0.57038 0.20484 0.0
C1235 C 0.81584 0.59557 0.21228 0.0
C1236 C 0.76138 0.56983 0.2194 0.0
C1237 C 0.7516 0.59427 0.24218 0.0
H1238 H 0.79954 0.55097 0.18759 0.0
H1239 H 0.74493 0.54956 0.21356 0.0
S1240 S 0.80175 0.66617 0.26945 0.0
N1241 N 0.82597 0.64597 0.2436 0.0
N1242 N 0.76696 0.64498 0.27059 0.0
C1243 C 0.77402 0.61988 0.24934 0.0
C1244 C 0.806 0.6205 0.23454 0.0
C1245 C 0.13585 0.03052 0.03875 0.0
C1246 C 0.15221 0.00698 0.01888 0.0
C1247 C 0.13135 0.06307 0.02836 0.0
C1248 C 0.14271 0.07391 0.9974 0.0
H1249 H 0.12637 0.02392 0.06289 0.0
H1250 H 0.11824 0.07971 0.04475 0.0
S1251 S 0.18765 0.02272 0.93576 0.0
N1252 N 0.1803 0.99712 0.96663 0.0
N1253 N 0.17162 0.05857 0.94692 0.0
C1254 C 0.15921 0.05083 0.9771 0.0
C1255 C 0.16394 0.01739 0.98783 0.0
C1256 C 0.29496 0.20699 0.07375 0.0
C1257 C 0.28734 0.18391 0.09862 0.0
C1258 C 0.28128 0.23896 0.07411 0.0
C1259 C 0.25923 0.24884 0.09919 0.0
H1260 H 0.31159 0.20036 0.05383 0.0
H1261 H 0.28706 0.25557 0.05397 0.0
S1262 S 0.23201 0.1982 0.17069 0.0
N1263 N 0.25679 0.1737 0.14951 0.0
N1264 N 0.23145 0.23338 0.15021 0.0
C1265 C 0.25202 0.22622 0.12457 0.0
C1266 C 0.26592 0.19388 0.12426 0.0
C1267 C 0.76281 0.28427 0.85715 0.0
C1268 C 0.78012 0.3016 0.88187 0.0
C1269 C 0.74762 0.25408 0.86369 0.0
C1270 C 0.74926 0.23966 0.89511 0.0
H1271 H 0.76009 0.29441 0.83258 0.0
H1272 H 0.73336 0.24249 0.84422 0.0
S1273 S 0.79297 0.27332 0.96807 0.0
N1274 N 0.79943 0.30097 0.93879 0.0
N1275 N 0.77057 0.24382 0.95097 0.0
C1276 C 0.76773 0.25564 0.91973 0.0
C1277 C 0.78316 0.28674 0.91315 0.0
C1278 C 0.45756 0.01995 0.67301 0.0
C1279 C 0.44552 0.02302 0.64057 0.0
C1280 C 0.48842 0.00545 0.6792 0.0
C1281 C 0.50799 0.99344 0.65315 0.0
H1282 H 0.44271 0.02786 0.69384 0.0
H1283 H 0.49619 0.002 0.70455 0.0
S1284 S 0.49042 -0.00084 0.5638 0.0
N1285 N 0.45781 0.01576 0.58187 0.0
N1286 N 0.51512 0.98776 0.59407 0.0
C1287 C 0.49717 0.99769 0.62071 0.0
C1288 C 0.46609 0.01273 0.61425 0.0
C1289 C 0.74538 0.70218 0.36303 0.0
C1290 C 0.72335 0.68923 0.38666 0.0
C1291 C 0.75905 0.73366 0.36658 0.0
C1292 C 0.75096 0.75384 0.39366 0.0
H1293 H 0.75268 0.68766 0.34174 0.0
H1294 H 0.77661 0.74204 0.34818 0.0
S1295 S 0.69386 0.73229 0.46211 0.0
N1296 N 0.69346 0.69947 0.43785 0.0
N1297 N 0.71919 0.75896 0.44445 0.0
C1298 C 0.72838 0.74167 0.41715 0.0
C1299 C 0.71467 0.70927 0.41374 0.0
C1300 C 0.02247 0.99783 0.12926 0.0
C1301 C 0.00341 0.99804 0.1582 0.0
C1302 C 0.0533 0.98247 0.12827 0.0
C1303 C 0.06675 0.96696 0.15636 0.0
H1304 H 0.01393 0.01062 0.10739 0.0
H1305 H 0.06704 0.9837 0.10533 0.0
S1306 S 0.02581 0.95972 0.23814 0.0
N1307 N -0.0008 0.98063 0.21543 0.0
N1308 N 0.0576 0.95162 0.21377 0.0
C1309 C 0.04742 0.96605 0.1853 0.0
C1310 C 0.01561 0.98154 0.18615 0.0
C1311 C 0.25339 0.75586 0.62893 0.0
C1312 C 0.24732 0.73906 0.59921 0.0
C1313 C 0.23899 0.78645 0.63547 0.0
C1314 C 0.21797 0.80183 0.61248 0.0
H1315 H 0.27011 0.7456 0.64709 0.0
H1316 H 0.24504 0.79836 0.65865 0.0
S1317 S 0.19288 0.76729 0.53135 0.0
N1318 N 0.218 0.73919 0.5469 0.0
N1319 N 0.1906 0.79706 0.5592 0.0
C1320 C 0.21084 0.78487 0.58296 0.0
C1321 C 0.22547 0.75335 0.57638 0.0
C1322 C 0.97793 0.48492 0.34316 0.0
C1323 C 0.98428 0.51893 0.34034 0.0
C1324 C 0.94569 0.47321 0.3491 0.0
C1325 C 0.91868 0.49508 0.35225 0.0
H1326 H 0.99807 0.46735 0.34191 0.0
H1327 H 0.94222 0.44693 0.35243 0.0
S1328 S 0.92147 0.58593 0.34143 0.0
N1329 N 0.96018 0.57398 0.33728 0.0
N1330 N 0.90014 0.55197 0.34839 0.0
C1331 C 0.92454 0.5289 0.34751 0.0
C1332 C 0.95716 0.54081 0.34159 0.0
C1333 C 0.53498 0.53407 0.83078 0.0
C1334 C 0.55421 0.52748 0.85892 0.0
C1335 C 0.50329 0.52034 0.82715 0.0
C1336 C 0.49001 0.49925 0.85137 0.0
H1337 H 0.54453 0.5497 0.81129 0.0
H1338 H 0.48981 0.52502 0.80456 0.0
S1339 S 0.52948 0.47538 0.93037 0.0
N1340 N 0.55683 0.49942 0.91208 0.0
N1341 N 0.49767 0.47369 0.90502 0.0
C1342 C 0.50854 0.49329 0.88001 0.0
C1343 C 0.54054 0.50736 0.88384 0.0
C1344 C 0.96522 0.14704 0.2534 0.0
C1345 C 0.96377 0.11293 0.24757 0.0
C1346 C 0.98641 0.15992 0.27753 0.0
C1347 C 0.0076 0.13911 0.29559 0.0
H1348 H 0.95106 0.16388 0.23823 0.0
H1349 H 0.98814 0.18651 0.2801 0.0
S1350 S 0.01175 0.04791 0.29056 0.0
N1351 N 0.98352 0.05841 0.26314 0.0
N1352 N 0.02431 0.08283 0.30753 0.0
C1353 C 0.00515 0.1049 0.29106 0.0
C1354 C 0.98296 0.09173 0.26722 0.0
C1355 C 0.58863 0.23549 0.02568 0.0
C1356 C 0.60819 0.25998 0.04086 0.0
C1357 C 0.60232 0.21322 0.00293 0.0
C1358 C 0.63618 0.21395 0.99564 0.0
H1359 H 0.56214 0.23499 0.02958 0.0
H1360 H 0.5862 0.19611 0.99016 0.0
S1361 S 0.69852 0.27101 0.03086 0.0
N1362 N 0.66334 0.28242 0.04823 0.0
N1363 N 0.68939 0.23946 0.00665 0.0
C1364 C 0.65637 0.23678 0.01225 0.0
C1365 C 0.6423 0.2601 0.03462 0.0
C1366 C 0.53588 0.84905 0.75852 0.0
C1367 C 0.53755 0.88302 0.75208 0.0
C1368 C 0.51264 0.83643 0.78082 0.0
C1369 C 0.4895 0.85728 0.79646 0.0
H1370 H 0.55155 0.832 0.74504 0.0
H1371 H 0.51114 0.80988 0.78376 0.0
S1372 S 0.48566 0.94844 0.78996 0.0
N1373 N 0.51636 0.93769 0.76525 0.0
N1374 N 0.47159 0.91372 0.80611 0.0
C1375 C 0.4922 0.89148 0.79165 0.0
C1376 C 0.51654 0.90443 0.76969 0.0
C1377 C 0.89934 0.77161 0.52629 0.0
C1378 C 0.8787 0.74749 0.5406 0.0
C1379 C 0.8869 0.79432 0.50342 0.0
C1380 C 0.8533 0.79433 0.49507 0.0
H1381 H 0.92579 0.77107 0.53034 0.0
H1382 H 0.90396 0.81062 0.49077 0.0
S1383 S 0.78824 0.73958 0.52926 0.0
N1384 N 0.82259 0.72731 0.54745 0.0
N1385 N 0.799 0.77063 0.50514 0.0
C1386 C 0.83189 0.77253 0.5116 0.0
C1387 C 0.84466 0.74893 0.53429 0.0
C1388 C 0.46055 0.35888 0.74448 0.0
C1389 C 0.45827 0.39284 0.75097 0.0
C1390 C 0.4835 0.34668 0.72158 0.0
C1391 C 0.50577 0.36794 0.70527 0.0
H1392 H 0.44539 0.34155 0.75814 0.0
H1393 H 0.48536 0.32016 0.71846 0.0
S1394 S 0.50822 0.45913 0.712 0.0
N1395 N 0.47832 0.44786 0.73741 0.0
N1396 N 0.52252 0.42465 0.69546 0.0
C1397 C 0.50268 0.40205 0.71039 0.0
C1398 C 0.47863 0.41458 0.73298 0.0
C1399 C 0.39258 0.70801 0.49587 0.0
C1400 C 0.35822 0.70467 0.49932 0.0
C1401 C 0.4061 0.7303 0.4731 0.0
C1402 C 0.38567 0.75081 0.45386 0.0
H1403 H 0.40908 0.69439 0.5119 0.0
H1404 H 0.43269 0.73336 0.47252 0.0
S1405 S 0.29422 0.74958 0.45159 0.0
N1406 N 0.30405 0.72149 0.47942 0.0
N1407 N 0.32961 0.76452 0.43778 0.0
C1408 C 0.35136 0.7464 0.45575 0.0
C1409 C 0.33759 0.723 0.4782 0.0
C1410 C 0.0185 0.66104 0.22144 0.0
C1411 C 0.00236 0.64032 0.19868 0.0
C1412 C 0.04057 0.64812 0.24468 0.0
C1413 C 0.04775 0.61414 0.24555 0.0
H1414 H 0.01182 0.68689 0.22333 0.0
H1415 H 0.0502 0.6645 0.26352 0.0
S1416 S 0.01754 0.5511 0.18594 0.0
N1417 N 0.99871 0.58551 0.17488 0.0
N1418 N 0.04118 0.56111 0.21758 0.0
C1419 C 0.03477 0.59396 0.22022 0.0
C1420 C 0.0117 0.60707 0.19708 0.0
C1421 C 0.16838 0.28375 0.98681 0.0
C1422 C 0.14746 0.29814 0.01071 0.0
C1423 C 0.15595 0.26187 0.96309 0.0
C1424 C 0.1221 0.25467 0.96173 0.0
H1425 H 0.1949 0.28716 0.98811 0.0
H1426 H 0.17311 0.24918 0.94689 0.0
S1427 S 0.05647 0.28954 0.01558 0.0
N1428 N 0.09104 0.30606 0.02959 0.0
N1429 N 0.06738 0.26605 0.98403 0.0
C1430 C 0.10056 0.27127 0.98347 0.0
C1431 C 0.11333 0.29277 0.00824 0.0
C1432 C 0.27217 0.96859 0.09256 0.0
C1433 C 0.25231 0.94969 0.114 0.0
C1434 C 0.29494 0.99152 0.1049 0.0
C1435 C 0.29923 0.99575 0.13906 0.0
H1436 H 0.26803 0.96792 0.06615 0.0
H1437 H 0.30766 0.00751 0.08762 0.0
S1438 S 0.25828 0.94689 0.20515 0.0
N1439 N 0.24177 0.93306 0.17055 0.0
N1440 N 0.28544 0.97519 0.19397 0.0
C1441 C 0.28231 0.97415 0.16058 0.0
C1442 C 0.25856 0.95138 0.14798 0.0
C1443 C 0.79117 0.51358 0.86556 0.0
C1444 C 0.78181 0.48051 0.85973 0.0
C1445 C 0.76859 0.53667 0.87872 0.0
C1446 C 0.73565 0.52767 0.8853 0.0
H1447 H 0.81602 0.52169 0.8598 0.0
H1448 H 0.77674 0.56176 0.88318 0.0
S1449 S 0.69875 0.44422 0.87542 0.0
N1450 N 0.73723 0.44007 0.86271 0.0
N1451 N 0.69523 0.48323 0.88651 0.0
C1452 C 0.72616 0.49469 0.87989 0.0
C1453 C 0.7491 0.47119 0.86734 0.0
C1454 C 0.27352 0.99387 0.62264 0.0
C1455 C 0.26515 0.02708 0.61709 0.0
C1456 C 0.25019 0.97122 0.63398 0.0
C1457 C 0.2175 0.98083 0.64094 0.0
H1458 H 0.29822 0.98493 0.61739 0.0
H1459 H 0.25823 0.94603 0.63804 0.0
S1460 S 0.18297 0.06512 0.63116 0.0
N1461 N 0.22188 0.06865 0.6192 0.0
N1462 N 0.17794 0.02606 0.64184 0.0
C1463 C 0.20873 0.01407 0.63588 0.0
C1464 C 0.23252 0.03716 0.62357 0.0
C1465 C 0.71369 0.4808 0.33572 0.0
C1466 C 0.69989 0.50572 0.35578 0.0
C1467 C 0.73525 0.45721 0.34888 0.0
C1468 C 0.74273 0.45704 0.38267 0.0
H1469 H 0.71023 0.48121 0.3092 0.0
H1470 H 0.74767 0.44029 0.33223 0.0
S1471 S 0.70871 0.51348 0.44646 0.0
N1472 N 0.69231 0.52654 0.41153 0.0
N1473 N 0.73175 0.48127 0.43658 0.0
C1474 C 0.72643 0.47964 0.4035 0.0
C1475 C 0.70525 0.50427 0.38995 0.0
loop_
_geom_bond_atom_site_label_1
_geom_bond_atom_site_label_2
_geom_bond_distance
_geom_bond_site_symmetry_2
_ccdc_geom_bond_type
Co0 O3 1.970 . S
Co0 N17 1.989 . S
Co0 O25 1.967 . S
Co0 O32 1.920 . S
Co1 O4 1.966 . S
Co1 N10 2.022 . S
Co1 N18 1.993 . S
Co1 O26 1.941 . S
C2 O3 1.258 . S
C2 O4 1.263 . S
O3 Co0 1.970 . S
O3 C2 1.258 . S
O4 Co1 1.966 . S
O4 C2 1.263 . S
C5 O6 1.235 . S
C5 O32 1.289 . S
O6 C5 1.235 . S
C7 C9 1.400 1_455 S
C7 N10 1.351 . S
C7 C12 1.501 1_455 S
C8 C9 1.387 1_455 S
C8 N11 1.341 . S
C9 C7 1.400 1_655 S
C9 C8 1.387 1_655 S
N10 Co1 2.022 . S
N10 C7 1.351 . S
N10 N11 1.365 . S
N11 C8 1.341 . S
N11 N10 1.365 . S
N11 H31 0.862 . S
C12 C7 1.501 1_655 S
C12 H13 0.961 . S
C12 H14 0.961 . S
C12 H15 0.960 . S
H13 C12 0.961 . S
H14 C12 0.961 . S
H15 C12 0.960 . S
C16 N17 1.342 . S
C16 C20 1.401 . S
C16 C21 1.499 . S
N17 Co0 1.989 . S
N17 C16 1.342 . S
N17 N18 1.388 . S
N18 Co1 1.993 . S
N18 N17 1.388 . S
N18 C19 1.346 . S
C19 N18 1.346 . S
C19 C20 1.396 . S
C19 C29 1.510 . S
C20 C16 1.401 . S
C20 C19 1.396 . S
C21 C16 1.499 . S
C21 H22 0.959 . S
C21 H23 0.960 . S
C21 H24 0.961 . S
H22 C21 0.959 . S
H23 C21 0.960 . S
H24 C21 0.961 . S
O25 Co0 1.967 . S
O25 C33 1.258 . S
O26 Co1 1.941 . S
O26 C33 1.266 . S
H27 C29 0.959 . S
H28 C29 0.961 . S
C29 C19 1.510 . S
C29 H27 0.959 . S
C29 H28 0.961 . S
C29 H30 0.960 . S
H30 C29 0.960 . S
H31 N11 0.862 . S
O32 Co0 1.920 . S
O32 C5 1.289 . S
C33 O25 1.258 . S
C33 O26 1.266 . S
Co34 O37 1.970 . S
Co34 N51 1.989 . S
Co34 O59 1.967 . S
Co34 O66 1.920 . S
Co35 O38 1.966 . S
Co35 N44 2.022 . S
Co35 N52 1.993 . S
Co35 O60 1.941 . S
C36 O37 1.258 . S
C36 O38 1.263 . S
O37 Co34 1.970 . S
O37 C36 1.258 . S
O38 Co35 1.966 . S
O38 C36 1.263 . S
C39 O40 1.235 . S
C39 O66 1.289 . S
O40 C39 1.235 . S
C41 C43 1.400 . S
C41 N44 1.351 . S
C41 C46 1.501 . S
C42 C43 1.387 . S
C42 N45 1.341 . S
C43 C41 1.400 . S
C43 C42 1.387 . S
N44 Co35 2.022 . S
N44 C41 1.351 . S
N44 N45 1.365 . S
N45 C42 1.341 . S
N45 N44 1.365 . S
N45 H65 0.862 . S
C46 C41 1.501 . S
C46 H47 0.961 . S
C46 H48 0.961 . S
C46 H49 0.960 . S
H47 C46 0.961 . S
H48 C46 0.961 . S
H49 C46 0.960 . S
C50 N51 1.342 . S
C50 C54 1.401 . S
C50 C55 1.499 . S
N51 Co34 1.989 . S
N51 C50 1.342 . S
N51 N52 1.388 . S
N52 Co35 1.993 . S
N52 N51 1.388 . S
N52 C53 1.346 . S
C53 N52 1.346 . S
C53 C54 1.396 . S
C53 C63 1.510 . S
C54 C50 1.401 . S
C54 C53 1.396 . S
C55 C50 1.499 . S
C55 H56 0.959 . S
C55 H57 0.960 . S
C55 H58 0.961 . S
H56 C55 0.959 . S
H57 C55 0.960 . S
H58 C55 0.961 . S
O59 Co34 1.967 . S
O59 C67 1.258 . S
O60 Co35 1.941 . S
O60 C67 1.266 . S
H61 C63 0.959 . S
H62 C63 0.961 . S
C63 C53 1.510 . S
C63 H61 0.959 . S
C63 H62 0.961 . S
C63 H64 0.960 . S
H64 C63 0.960 . S
H65 N45 0.862 . S
O66 Co34 1.920 . S
O66 C39 1.289 . S
C67 O59 1.258 . S
C67 O60 1.266 . S
Co68 O71 1.970 . S
Co68 N85 1.989 . S
Co68 O93 1.967 . S
Co68 O100 1.920 . S
Co69 O72 1.966 . S
Co69 N78 2.022 . S
Co69 N86 1.993 . S
Co69 O94 1.941 . S
C70 O71 1.258 . S
C70 O72 1.263 . S
O71 Co68 1.970 . S
O71 C70 1.258 . S
O72 Co69 1.966 . S
O72 C70 1.263 . S
C73 O74 1.235 . S
C73 O100 1.289 . S
O74 C73 1.235 . S
C75 C77 1.400 . S
C75 N78 1.351 . S
C75 C80 1.501 . S
C76 C77 1.387 . S
C76 N79 1.341 . S
C77 C75 1.400 . S
C77 C76 1.387 . S
N78 Co69 2.022 . S
N78 C75 1.351 . S
N78 N79 1.365 . S
N79 C76 1.341 . S
N79 N78 1.365 . S
N79 H99 0.862 . S
C80 C75 1.501 . S
C80 H81 0.961 . S
C80 H82 0.961 . S
C80 H83 0.960 . S
H81 C80 0.961 . S
H82 C80 0.961 . S
H83 C80 0.960 . S
C84 N85 1.342 . S
C84 C88 1.401 . S
C84 C89 1.499 . S
N85 Co68 1.989 . S
N85 C84 1.342 . S
N85 N86 1.388 . S
N86 Co69 1.993 . S
N86 N85 1.388 . S
N86 C87 1.346 . S
C87 N86 1.346 . S
C87 C88 1.396 . S
C87 C97 1.510 . S
C88 C84 1.401 . S
C88 C87 1.396 . S
C89 C84 1.499 . S
C89 H90 0.959 . S
C89 H91 0.960 . S
C89 H92 0.961 . S
H90 C89 0.959 . S
H91 C89 0.960 . S
H92 C89 0.961 . S
O93 Co68 1.967 . S
O93 C101 1.258 . S
O94 Co69 1.941 . S
O94 C101 1.266 . S
H95 C97 0.959 . S
H96 C97 0.961 . S
C97 C87 1.510 . S
C97 H95 0.959 . S
C97 H96 0.961 . S
C97 H98 0.960 . S
H98 C97 0.960 . S
H99 N79 0.862 . S
O100 Co68 1.920 . S
O100 C73 1.289 . S
C101 O93 1.258 . S
C101 O94 1.266 . S
Co102 O105 1.970 . S
Co102 N119 1.989 . S
Co102 O127 1.967 . S
Co102 O134 1.920 . S
Co103 O106 1.966 . S
Co103 N112 2.022 . S
Co103 N120 1.993 . S
Co103 O128 1.941 . S
C104 O105 1.258 . S
C104 O106 1.263 . S
O105 Co102 1.970 . S
O105 C104 1.258 . S
O106 Co103 1.966 . S
O106 C104 1.263 . S
C107 O108 1.235 . S
C107 O134 1.289 . S
O108 C107 1.235 . S
C109 C111 1.401 1_655 S
C109 N112 1.351 . S
C109 C114 1.501 . S
C110 C111 1.386 . S
C110 N113 1.341 . S
C111 C109 1.401 1_455 S
C111 C110 1.386 . S
N112 Co103 2.022 . S
N112 C109 1.351 . S
N112 N113 1.365 1_655 S
N113 C110 1.341 . S
N113 N112 1.365 1_455 S
N113 H133 0.862 . S
C114 C109 1.501 . S
C114 H115 0.961 . S
C114 H116 0.961 . S
C114 H117 0.960 . S
H115 C114 0.961 . S
H116 C114 0.961 . S
H117 C114 0.960 . S
C118 N119 1.342 . S
C118 C122 1.401 . S
C118 C123 1.499 . S
N119 Co102 1.989 . S
N119 C118 1.342 . S
N119 N120 1.388 . S
N120 Co103 1.993 . S
N120 N119 1.388 . S
N120 C121 1.346 . S
C121 N120 1.346 . S
C121 C122 1.396 . S
C121 C131 1.510 . S
C122 C118 1.401 . S
C122 C121 1.396 . S
C123 C118 1.499 . S
C123 H124 0.959 . S
C123 H125 0.960 . S
C123 H126 0.961 . S
H124 C123 0.959 . S
H125 C123 0.960 . S
H126 C123 0.961 . S
O127 Co102 1.967 . S
O127 C135 1.258 . S
O128 Co103 1.941 . S
O128 C135 1.266 . S
H129 C131 0.959 . S
H130 C131 0.961 . S
C131 C121 1.510 . S
C131 H129 0.959 . S
C131 H130 0.961 . S
C131 H132 0.960 . S
H132 C131 0.960 . S
H133 N113 0.862 . S
O134 Co102 1.920 . S
O134 C107 1.289 . S
C135 O127 1.258 . S
C135 O128 1.266 . S
Co136 O139 1.970 . S
Co136 N153 1.989 . S
Co136 O161 1.967 . S
Co136 O168 1.920 . S
Co137 O140 1.966 . S
Co137 N146 2.022 . S
Co137 N154 1.993 . S
Co137 O162 1.941 . S
C138 O139 1.258 . S
C138 O140 1.263 . S
O139 Co136 1.970 . S
O139 C138 1.258 . S
O140 Co137 1.966 . S
O140 C138 1.263 . S
C141 O142 1.235 . S
C141 O168 1.289 . S
O142 C141 1.235 . S
C143 C145 1.400 . S
C143 N146 1.351 . S
C143 C148 1.501 . S
C144 C145 1.387 . S
C144 N147 1.341 . S
C145 C143 1.400 . S
C145 C144 1.387 . S
N146 Co137 2.022 . S
N146 C143 1.351 . S
N146 N147 1.365 . S
N147 C144 1.341 . S
N147 N146 1.365 . S
N147 H167 0.862 . S
C148 C143 1.501 . S
C148 H149 0.961 . S
C148 H150 0.961 . S
C148 H151 0.960 . S
H149 C148 0.961 . S
H150 C148 0.961 . S
H151 C148 0.960 . S
C152 N153 1.342 . S
C152 C156 1.401 . S
C152 C157 1.499 . S
N153 Co136 1.989 . S
N153 C152 1.342 . S
N153 N154 1.388 . S
N154 Co137 1.993 . S
N154 N153 1.388 . S
N154 C155 1.346 . S
C155 N154 1.346 . S
C155 C156 1.396 . S
C155 C165 1.510 . S
C156 C152 1.401 . S
C156 C155 1.396 . S
C157 C152 1.499 . S
C157 H158 0.959 . S
C157 H159 0.960 . S
C157 H160 0.961 . S
H158 C157 0.959 . S
H159 C157 0.960 . S
H160 C157 0.961 . S
O161 Co136 1.967 . S
O161 C169 1.258 . S
O162 Co137 1.941 . S
O162 C169 1.266 . S
H163 C165 0.959 . S
H164 C165 0.961 . S
C165 C155 1.510 . S
C165 H163 0.959 . S
C165 H164 0.961 . S
C165 H166 0.960 . S
H166 C165 0.960 . S
H167 N147 0.862 . S
O168 Co136 1.920 . S
O168 C141 1.289 . S
C169 O161 1.258 . S
C169 O162 1.266 . S
Co170 O173 1.970 . S
Co170 N187 1.989 . S
Co170 O195 1.967 . S
Co170 O202 1.920 . S
Co171 O174 1.966 . S
Co171 N180 2.022 . S
Co171 N188 1.993 . S
Co171 O196 1.941 . S
C172 O173 1.258 . S
C172 O174 1.263 . S
O173 Co170 1.970 . S
O173 C172 1.258 . S
O174 Co171 1.966 . S
O174 C172 1.263 . S
C175 O176 1.235 . S
C175 O202 1.289 . S
O176 C175 1.235 . S
C177 C179 1.400 . S
C177 N180 1.351 . S
C177 C182 1.501 . S
C178 C179 1.387 . S
C178 N181 1.341 . S
C179 C177 1.400 . S
C179 C178 1.387 . S
N180 Co171 2.022 . S
N180 C177 1.351 . S
N180 N181 1.365 . S
N181 C178 1.341 . S
N181 N180 1.365 . S
N181 H201 0.862 . S
C182 C177 1.501 . S
C182 H183 0.961 . S
C182 H184 0.961 . S
C182 H185 0.960 . S
H183 C182 0.961 . S
H184 C182 0.961 . S
H185 C182 0.960 . S
C186 N187 1.342 . S
C186 C190 1.401 . S
C186 C191 1.499 . S
N187 Co170 1.989 . S
N187 C186 1.342 . S
N187 N188 1.388 . S
N188 Co171 1.993 . S
N188 N187 1.388 . S
N188 C189 1.346 . S
C189 N188 1.346 . S
C189 C190 1.396 . S
C189 C199 1.510 . S
C190 C186 1.401 . S
C190 C189 1.396 . S
C191 C186 1.499 . S
C191 H192 0.959 . S
C191 H193 0.960 . S
C191 H194 0.961 . S
H192 C191 0.959 . S
H193 C191 0.960 . S
H194 C191 0.961 . S
O195 Co170 1.967 . S
O195 C203 1.258 . S
O196 Co171 1.941 . S
O196 C203 1.266 . S
H197 C199 0.959 . S
H198 C199 0.961 . S
C199 C189 1.510 . S
C199 H197 0.959 . S
C199 H198 0.961 . S
C199 H200 0.960 . S
H200 C199 0.960 . S
H201 N181 0.862 . S
O202 Co170 1.920 . S
O202 C175 1.289 . S
C203 O195 1.258 . S
C203 O196 1.266 . S
Co204 O207 1.970 . S
Co204 N221 1.989 . S
Co204 O229 1.967 . S
Co204 O236 1.920 . S
Co205 O208 1.966 . S
Co205 N214 2.022 . S
Co205 N222 1.993 . S
Co205 O230 1.941 . S
C206 O207 1.258 . S
C206 O208 1.263 . S
O207 Co204 1.970 . S
O207 C206 1.258 . S
O208 Co205 1.966 . S
O208 C206 1.263 . S
C209 O210 1.235 . S
C209 O236 1.289 . S
O210 C209 1.235 . S
C211 C213 1.395 1_655 S
C211 N214 1.373 . S
C211 C216 1.488 1_655 S
C212 C213 1.387 1_655 S
C212 N215 1.341 . S
C213 C211 1.395 1_455 S
C213 C212 1.387 1_455 S
N214 Co205 2.022 . S
N214 C211 1.373 . S
N214 N215 1.365 . S
N215 C212 1.341 . S
N215 N214 1.365 . S
N215 H235 0.862 . S
C216 C211 1.488 1_455 S
C216 H217 0.961 . S
C216 H218 0.961 . S
C216 H219 0.960 . S
H217 C216 0.961 . S
H218 C216 0.961 . S
H219 C216 0.960 . S
C220 N221 1.342 . S
C220 C224 1.401 . S
C220 C225 1.499 . S
N221 Co204 1.989 . S
N221 C220 1.342 . S
N221 N222 1.388 . S
N222 Co205 1.993 . S
N222 N221 1.388 . S
N222 C223 1.346 . S
C223 N222 1.346 . S
C223 C224 1.396 . S
C223 C233 1.510 . S
C224 C220 1.401 . S
C224 C223 1.396 . S
C225 C220 1.499 . S
C225 H226 0.959 . S
C225 H227 0.960 . S
C225 H228 0.961 . S
H226 C225 0.959 . S
H227 C225 0.960 . S
H228 C225 0.961 . S
O229 Co204 1.967 . S
O229 C237 1.258 . S
O230 Co205 1.941 . S
O230 C237 1.266 . S
H231 C233 0.959 . S
H232 C233 0.961 . S
C233 C223 1.510 . S
C233 H231 0.959 . S
C233 H232 0.961 . S
C233 H234 0.960 . S
H234 C233 0.960 . S
H235 N215 0.862 . S
O236 Co204 1.920 . S
O236 C209 1.289 . S
C237 O229 1.258 . S
C237 O230 1.266 . S
Co238 O241 1.970 . S
Co238 N255 1.989 . S
Co238 O263 1.967 . S
Co238 O270 1.920 . S
Co239 O242 1.966 . S
Co239 N248 2.022 . S
Co239 N256 1.993 . S
Co239 O264 1.941 . S
C240 O241 1.258 . S
C240 O242 1.263 . S
O241 Co238 1.970 . S
O241 C240 1.258 . S
O242 Co239 1.966 . S
O242 C240 1.263 . S
C243 O244 1.235 . S
C243 O270 1.289 . S
O244 C243 1.235 . S
C245 C247 1.407 . S
C245 N248 1.351 . S
C245 C250 1.501 . S
C246 C247 1.381 1_655 S
C246 N249 1.341 . S
C247 C245 1.407 . S
C247 C246 1.381 1_455 S
N248 Co239 2.022 . S
N248 C245 1.351 . S
N248 N249 1.365 1_455 S
N249 C246 1.341 . S
N249 N248 1.365 1_655 S
N249 H269 0.862 . S
C250 C245 1.501 . S
C250 H251 0.961 . S
C250 H252 0.961 . S
C250 H253 0.960 . S
H251 C250 0.961 . S
H252 C250 0.961 . S
H253 C250 0.960 . S
C254 N255 1.342 . S
C254 C258 1.401 . S
C254 C259 1.499 . S
N255 Co238 1.989 . S
N255 C254 1.342 . S
N255 N256 1.388 . S
N256 Co239 1.993 . S
N256 N255 1.388 . S
N256 C257 1.346 . S
C257 N256 1.346 . S
C257 C258 1.396 . S
C257 C267 1.510 . S
C258 C254 1.401 . S
C258 C257 1.396 . S
C259 C254 1.499 . S
C259 H260 0.959 . S
C259 H261 0.960 . S
C259 H262 0.961 . S
H260 C259 0.959 . S
H261 C259 0.960 . S
H262 C259 0.961 . S
O263 Co238 1.967 . S
O263 C271 1.258 . S
O264 Co239 1.941 . S
O264 C271 1.266 . S
H265 C267 0.959 . S
H266 C267 0.961 . S
C267 C257 1.510 . S
C267 H265 0.959 . S
C267 H266 0.961 . S
C267 H268 0.960 . S
H268 C267 0.960 . S
H269 N249 0.862 . S
O270 Co238 1.920 . S
O270 C243 1.289 . S
C271 O263 1.258 . S
C271 O264 1.266 . S
Co272 O275 1.970 . S
Co272 N289 1.989 . S
Co272 O297 1.967 . S
Co272 O304 1.920 . S
Co273 O276 1.966 . S
Co273 N282 2.022 . S
Co273 N290 1.993 . S
Co273 O298 1.941 . S
C274 O275 1.258 . S
C274 O276 1.263 . S
O275 Co272 1.970 . S
O275 C274 1.258 . S
O276 Co273 1.966 . S
O276 C274 1.263 . S
C277 O278 1.235 . S
C277 O304 1.289 . S
O278 C277 1.235 . S
C279 C281 1.400 1_545 S
C279 N282 1.351 . S
C279 C284 1.501 1_545 S
C280 C281 1.387 1_545 S
C280 N283 1.341 . S
C281 C279 1.400 1_565 S
C281 C280 1.387 1_565 S
N282 Co273 2.022 . S
N282 C279 1.351 . S
N282 N283 1.365 . S
N283 C280 1.341 . S
N283 N282 1.365 . S
N283 H303 0.862 . S
C284 C279 1.501 1_565 S
C284 H285 0.961 . S
C284 H286 0.961 . S
C284 H287 0.960 . S
H285 C284 0.961 . S
H286 C284 0.961 . S
H287 C284 0.960 . S
C288 N289 1.342 . S
C288 C292 1.401 . S
C288 C293 1.499 . S
N289 Co272 1.989 . S
N289 C288 1.342 . S
N289 N290 1.388 . S
N290 Co273 1.993 . S
N290 N289 1.388 . S
N290 C291 1.346 . S
C291 N290 1.346 . S
C291 C292 1.396 . S
C291 C301 1.510 . S
C292 C288 1.401 . S
C292 C291 1.396 . S
C293 C288 1.499 . S
C293 H294 0.959 . S
C293 H295 0.960 . S
C293 H296 0.961 . S
H294 C293 0.959 . S
H295 C293 0.960 . S
H296 C293 0.961 . S
O297 Co272 1.967 . S
O297 C305 1.258 . S
O298 Co273 1.941 . S
O298 C305 1.266 . S
H299 C301 0.959 . S
H300 C301 0.961 . S
C301 C291 1.510 . S
C301 H299 0.959 . S
C301 H300 0.961 . S
C301 H302 0.960 . S
H302 C301 0.960 . S
H303 N283 0.862 . S
O304 Co272 1.920 . S
O304 C277 1.289 . S
C305 O297 1.258 . S
C305 O298 1.266 . S
Co306 O309 1.970 . S
Co306 N323 1.989 . S
Co306 O331 1.967 . S
Co306 O338 1.920 . S
Co307 O310 1.966 . S
Co307 N316 2.022 . S
Co307 N324 1.993 . S
Co307 O332 1.941 . S
C308 O309 1.258 . S
C308 O310 1.263 . S
O309 Co306 1.970 . S
O309 C308 1.258 . S
O310 Co307 1.966 . S
O310 C308 1.263 . S
C311 O312 1.235 . S
C311 O338 1.289 . S
O312 C311 1.235 . S
C313 C315 1.401 1_556 S
C313 N316 1.351 . S
C313 C318 1.501 . S
C314 C315 1.386 . S
C314 N317 1.341 . S
C315 C313 1.401 1_554 S
C315 C314 1.386 . S
N316 Co307 2.022 . S
N316 C313 1.351 . S
N316 N317 1.365 1_556 S
N317 C314 1.341 . S
N317 N316 1.365 1_554 S
N317 H337 0.862 . S
C318 C313 1.501 . S
C318 H319 0.961 . S
C318 H320 0.961 . S
C318 H321 0.960 . S
H319 C318 0.961 . S
H320 C318 0.961 . S
H321 C318 0.960 . S
C322 N323 1.342 . S
C322 C326 1.401 . S
C322 C327 1.499 . S
N323 Co306 1.989 . S
N323 C322 1.342 . S
N323 N324 1.388 . S
N324 Co307 1.993 . S
N324 N323 1.388 . S
N324 C325 1.346 . S
C325 N324 1.346 . S
C325 C326 1.396 . S
C325 C335 1.510 . S
C326 C322 1.401 . S
C326 C325 1.396 . S
C327 C322 1.499 . S
C327 H328 0.959 . S
C327 H329 0.960 . S
C327 H330 0.961 . S
H328 C327 0.959 . S
H329 C327 0.960 . S
H330 C327 0.961 . S
O331 Co306 1.967 . S
O331 C339 1.258 . S
O332 Co307 1.941 . S
O332 C339 1.266 . S
H333 C335 0.959 . S
H334 C335 0.961 . S
C335 C325 1.510 . S
C335 H333 0.959 . S
C335 H334 0.961 . S
C335 H336 0.960 . S
H336 C335 0.960 . S
H337 N317 0.862 . S
O338 Co306 1.920 . S
O338 C311 1.289 . S
C339 O331 1.258 . S
C339 O332 1.266 . S
Co340 O343 1.970 . S
Co340 N357 1.989 . S
Co340 O365 1.967 . S
Co340 O372 1.920 . S
Co341 O344 1.966 . S
Co341 N350 2.022 . S
Co341 N358 1.993 . S
Co341 O366 1.941 . S
C342 O343 1.258 . S
C342 O344 1.263 . S
O343 Co340 1.970 . S
O343 C342 1.258 . S
O344 Co341 1.966 . S
O344 C342 1.263 . S
C345 O346 1.235 . S
C345 O372 1.289 . S
O346 C345 1.235 . S
C347 C349 1.395 1_565 S
C347 N350 1.373 . S
C347 C352 1.488 1_565 S
C348 C349 1.387 1_565 S
C348 N351 1.341 . S
C349 C347 1.395 1_545 S
C349 C348 1.387 1_545 S
N350 Co341 2.022 . S
N350 C347 1.373 . S
N350 N351 1.365 . S
N351 C348 1.341 . S
N351 N350 1.365 . S
N351 H371 0.862 . S
C352 C347 1.488 1_545 S
C352 H353 0.961 . S
C352 H354 0.961 . S
C352 H355 0.960 . S
H353 C352 0.961 . S
H354 C352 0.961 . S
H355 C352 0.960 . S
C356 N357 1.342 . S
C356 C360 1.401 . S
C356 C361 1.499 . S
N357 Co340 1.989 . S
N357 C356 1.342 . S
N357 N358 1.388 . S
N358 Co341 1.993 . S
N358 N357 1.388 . S
N358 C359 1.346 . S
C359 N358 1.346 . S
C359 C360 1.396 . S
C359 C369 1.510 . S
C360 C356 1.401 . S
C360 C359 1.396 . S
C361 C356 1.499 . S
C361 H362 0.959 . S
C361 H363 0.960 . S
C361 H364 0.961 . S
H362 C361 0.959 . S
H363 C361 0.960 . S
H364 C361 0.961 . S
O365 Co340 1.967 . S
O365 C373 1.258 . S
O366 Co341 1.941 . S
O366 C373 1.266 . S
H367 C369 0.959 . S
H368 C369 0.961 . S
C369 C359 1.510 . S
C369 H367 0.959 . S
C369 H368 0.961 . S
C369 H370 0.960 . S
H370 C369 0.960 . S
H371 N351 0.862 . S
O372 Co340 1.920 . S
O372 C345 1.289 . S
C373 O365 1.258 . S
C373 O366 1.266 . S
Co374 O377 1.970 . S
Co374 N391 1.989 . S
Co374 O399 1.967 . S
Co374 O406 1.920 . S
Co375 O378 1.966 . S
Co375 N384 2.022 . S
Co375 N392 1.993 . S
Co375 O400 1.941 . S
C376 O377 1.258 . S
C376 O378 1.263 . S
O377 Co374 1.970 . S
O377 C376 1.258 . S
O378 Co375 1.966 . S
O378 C376 1.263 . S
C379 O380 1.235 . S
C379 O406 1.289 . S
O380 C379 1.235 . S
C381 C383 1.400 . S
C381 N384 1.351 . S
C381 C386 1.501 . S
C382 C383 1.387 . S
C382 N385 1.341 . S
C383 C381 1.400 . S
C383 C382 1.387 . S
N384 Co375 2.022 . S
N384 C381 1.351 . S
N384 N385 1.365 . S
N385 C382 1.341 . S
N385 N384 1.365 . S
N385 H405 0.862 . S
C386 C381 1.501 . S
C386 H387 0.961 . S
C386 H388 0.961 . S
C386 H389 0.960 . S
H387 C386 0.961 . S
H388 C386 0.961 . S
H389 C386 0.960 . S
C390 N391 1.342 . S
C390 C394 1.401 . S
C390 C395 1.499 . S
N391 Co374 1.989 . S
N391 C390 1.342 . S
N391 N392 1.388 . S
N392 Co375 1.993 . S
N392 N391 1.388 . S
N392 C393 1.346 . S
C393 N392 1.346 . S
C393 C394 1.396 . S
C393 C403 1.510 . S
C394 C390 1.401 . S
C394 C393 1.396 . S
C395 C390 1.499 . S
C395 H396 0.959 . S
C395 H397 0.960 . S
C395 H398 0.961 . S
H396 C395 0.959 . S
H397 C395 0.960 . S
H398 C395 0.961 . S
O399 Co374 1.967 . S
O399 C407 1.258 . S
O400 Co375 1.941 . S
O400 C407 1.266 . S
H401 C403 0.959 . S
H402 C403 0.961 . S
C403 C393 1.510 . S
C403 H401 0.959 . S
C403 H402 0.961 . S
C403 H404 0.960 . S
H404 C403 0.960 . S
H405 N385 0.862 . S
O406 Co374 1.920 . S
O406 C379 1.289 . S
C407 O399 1.258 . S
C407 O400 1.266 . S
Co408 O411 1.970 . S
Co408 N425 1.989 . S
Co408 O433 1.967 . S
Co408 O440 1.920 . S
Co409 O412 1.966 . S
Co409 N418 2.022 . S
Co409 N426 1.993 . S
Co409 O434 1.941 . S
C410 O411 1.258 . S
C410 O412 1.263 . S
O411 Co408 1.970 . S
O411 C410 1.258 . S
O412 Co409 1.966 . S
O412 C410 1.263 . S
C413 O414 1.235 . S
C413 O440 1.289 . S
O414 C413 1.235 . S
C415 C417 1.400 . S
C415 N418 1.351 . S
C415 C420 1.501 . S
C416 C417 1.387 . S
C416 N419 1.341 . S
C417 C415 1.400 . S
C417 C416 1.387 . S
N418 Co409 2.022 . S
N418 C415 1.351 . S
N418 N419 1.365 . S
N419 C416 1.341 . S
N419 N418 1.365 . S
N419 H439 0.862 . S
C420 C415 1.501 . S
C420 H421 0.961 . S
C420 H422 0.961 . S
C420 H423 0.960 . S
H421 C420 0.961 . S
H422 C420 0.961 . S
H423 C420 0.960 . S
C424 N425 1.342 . S
C424 C428 1.401 . S
C424 C429 1.499 . S
N425 Co408 1.989 . S
N425 C424 1.342 . S
N425 N426 1.388 . S
N426 Co409 1.993 . S
N426 N425 1.388 . S
N426 C427 1.346 . S
C427 N426 1.346 . S
C427 C428 1.396 . S
C427 C437 1.510 . S
C428 C424 1.401 . S
C428 C427 1.396 . S
C429 C424 1.499 . S
C429 H430 0.959 . S
C429 H431 0.960 . S
C429 H432 0.961 . S
H430 C429 0.959 . S
H431 C429 0.960 . S
H432 C429 0.961 . S
O433 Co408 1.967 . S
O433 C441 1.258 . S
O434 Co409 1.941 . S
O434 C441 1.266 . S
H435 C437 0.959 . S
H436 C437 0.961 . S
C437 C427 1.510 . S
C437 H435 0.959 . S
C437 H436 0.961 . S
C437 H438 0.960 . S
H438 C437 0.960 . S
H439 N419 0.862 . S
O440 Co408 1.920 . S
O440 C413 1.289 . S
C441 O433 1.258 . S
C441 O434 1.266 . S
Co442 O445 1.970 . S
Co442 N459 1.989 . S
Co442 O467 1.967 . S
Co442 O474 1.920 . S
Co443 O446 1.966 . S
Co443 N452 2.022 . S
Co443 N460 1.993 . S
Co443 O468 1.941 . S
C444 O445 1.258 . S
C444 O446 1.263 . S
O445 Co442 1.970 . S
O445 C444 1.258 . S
O446 Co443 1.966 . S
O446 C444 1.263 . S
C447 O448 1.235 . S
C447 O474 1.289 . S
O448 C447 1.235 . S
C449 C451 1.400 . S
C449 N452 1.351 . S
C449 C454 1.501 . S
C450 C451 1.387 . S
C450 N453 1.341 . S
C451 C449 1.400 . S
C451 C450 1.387 . S
N452 Co443 2.022 . S
N452 C449 1.351 . S
N452 N453 1.365 . S
N453 C450 1.341 . S
N453 N452 1.365 . S
N453 H473 0.862 . S
C454 C449 1.501 . S
C454 H455 0.961 . S
C454 H456 0.961 . S
C454 H457 0.960 . S
H455 C454 0.961 . S
H456 C454 0.961 . S
H457 C454 0.960 . S
C458 N459 1.342 . S
C458 C462 1.401 . S
C458 C463 1.499 . S
N459 Co442 1.989 . S
N459 C458 1.342 . S
N459 N460 1.388 . S
N460 Co443 1.993 . S
N460 N459 1.388 . S
N460 C461 1.346 . S
C461 N460 1.346 . S
C461 C462 1.396 . S
C461 C471 1.510 . S
C462 C458 1.401 . S
C462 C461 1.396 . S
C463 C458 1.499 . S
C463 H464 0.959 . S
C463 H465 0.960 . S
C463 H466 0.961 . S
H464 C463 0.959 . S
H465 C463 0.960 . S
H466 C463 0.961 . S
O467 Co442 1.967 . S
O467 C475 1.258 . S
O468 Co443 1.941 . S
O468 C475 1.266 . S
H469 C471 0.959 . S
H470 C471 0.961 . S
C471 C461 1.510 . S
C471 H469 0.959 . S
C471 H470 0.961 . S
C471 H472 0.960 . S
H472 C471 0.960 . S
H473 N453 0.862 . S
O474 Co442 1.920 . S
O474 C447 1.289 . S
C475 O467 1.258 . S
C475 O468 1.266 . S
Co476 O479 1.970 . S
Co476 N493 1.989 . S
Co476 O501 1.967 . S
Co476 O508 1.920 . S
Co477 O480 1.966 . S
Co477 N486 2.022 . S
Co477 N494 1.993 . S
Co477 O502 1.941 . S
C478 O479 1.258 . S
C478 O480 1.263 . S
O479 Co476 1.970 . S
O479 C478 1.258 . S
O480 Co477 1.966 . S
O480 C478 1.263 . S
C481 O482 1.235 . S
C481 O508 1.289 . S
O482 C481 1.235 . S
C483 C485 1.400 . S
C483 N486 1.351 . S
C483 C488 1.501 . S
C484 C485 1.387 . S
C484 N487 1.341 . S
C485 C483 1.400 . S
C485 C484 1.387 . S
N486 Co477 2.022 . S
N486 C483 1.351 . S
N486 N487 1.365 . S
N487 C484 1.341 . S
N487 N486 1.365 . S
N487 H507 0.862 . S
C488 C483 1.501 . S
C488 H489 0.961 . S
C488 H490 0.961 . S
C488 H491 0.960 . S
H489 C488 0.961 . S
H490 C488 0.961 . S
H491 C488 0.960 . S
C492 N493 1.342 . S
C492 C496 1.401 . S
C492 C497 1.499 . S
N493 Co476 1.989 . S
N493 C492 1.342 . S
N493 N494 1.388 . S
N494 Co477 1.993 . S
N494 N493 1.388 . S
N494 C495 1.346 . S
C495 N494 1.346 . S
C495 C496 1.396 . S
C495 C505 1.510 . S
C496 C492 1.401 . S
C496 C495 1.396 . S
C497 C492 1.499 . S
C497 H498 0.959 . S
C497 H499 0.960 . S
C497 H500 0.961 . S
H498 C497 0.959 . S
H499 C497 0.960 . S
H500 C497 0.961 . S
O501 Co476 1.967 . S
O501 C509 1.258 . S
O502 Co477 1.941 . S
O502 C509 1.266 . S
H503 C505 0.959 . S
H504 C505 0.961 . S
C505 C495 1.510 . S
C505 H503 0.959 . S
C505 H504 0.961 . S
C505 H506 0.960 . S
H506 C505 0.960 . S
H507 N487 0.862 . S
O508 Co476 1.920 . S
O508 C481 1.289 . S
C509 O501 1.258 . S
C509 O502 1.266 . S
Co510 O513 1.970 . S
Co510 N527 1.989 . S
Co510 O535 1.967 . S
Co510 O542 1.920 . S
Co511 O514 1.966 . S
Co511 N520 2.022 . S
Co511 N528 1.993 . S
Co511 O536 1.941 . S
C512 O513 1.258 . S
C512 O514 1.263 . S
O513 Co510 1.970 . S
O513 C512 1.258 . S
O514 Co511 1.966 . S
O514 C512 1.263 . S
C515 O516 1.235 . S
C515 O542 1.289 . S
O516 C515 1.235 . S
C517 C519 1.407 . S
C517 N520 1.351 . S
C517 C522 1.501 . S
C518 C519 1.381 1_556 S
C518 N521 1.341 . S
C519 C517 1.407 . S
C519 C518 1.381 1_554 S
N520 Co511 2.022 . S
N520 C517 1.351 . S
N520 N521 1.365 1_554 S
N521 C518 1.341 . S
N521 N520 1.365 1_556 S
N521 H541 0.862 . S
C522 C517 1.501 . S
C522 H523 0.961 . S
C522 H524 0.961 . S
C522 H525 0.960 . S
H523 C522 0.961 . S
H524 C522 0.961 . S
H525 C522 0.960 . S
C526 N527 1.342 . S
C526 C530 1.401 . S
C526 C531 1.499 . S
N527 Co510 1.989 . S
N527 C526 1.342 . S
N527 N528 1.388 . S
N528 Co511 1.993 . S
N528 N527 1.388 . S
N528 C529 1.346 . S
C529 N528 1.346 . S
C529 C530 1.396 . S
C529 C539 1.510 . S
C530 C526 1.401 . S
C530 C529 1.396 . S
C531 C526 1.499 . S
C531 H532 0.959 . S
C531 H533 0.960 . S
C531 H534 0.961 . S
H532 C531 0.959 . S
H533 C531 0.960 . S
H534 C531 0.961 . S
O535 Co510 1.967 . S
O535 C543 1.258 . S
O536 Co511 1.941 . S
O536 C543 1.266 . S
H537 C539 0.959 . S
H538 C539 0.961 . S
C539 C529 1.510 . S
C539 H537 0.959 . S
C539 H538 0.961 . S
C539 H540 0.960 . S
H540 C539 0.960 . S
H541 N521 0.862 . S
O542 Co510 1.920 . S
O542 C515 1.289 . S
C543 O535 1.258 . S
C543 O536 1.266 . S
Co544 O547 1.970 . S
Co544 N561 1.989 . S
Co544 O569 1.967 . S
Co544 O576 1.920 . S
Co545 O548 1.966 . S
Co545 N554 2.022 . S
Co545 N562 1.993 . S
Co545 O570 1.941 . S
C546 O547 1.258 . S
C546 O548 1.263 . S
O547 Co544 1.970 . S
O547 C546 1.258 . S
O548 Co545 1.966 . S
O548 C546 1.263 . S
C549 O550 1.235 . S
C549 O576 1.289 . S
O550 C549 1.235 . S
C551 C553 1.400 1_554 S
C551 N554 1.351 . S
C551 C556 1.501 1_554 S
C552 C553 1.387 1_554 S
C552 N555 1.341 . S
C553 C551 1.400 1_556 S
C553 C552 1.387 1_556 S
N554 Co545 2.022 . S
N554 C551 1.351 . S
N554 N555 1.365 . S
N555 C552 1.341 . S
N555 N554 1.365 . S
N555 H575 0.862 . S
C556 C551 1.501 1_556 S
C556 H557 0.961 . S
C556 H558 0.961 . S
C556 H559 0.960 . S
H557 C556 0.961 . S
H558 C556 0.961 . S
H559 C556 0.960 . S
C560 N561 1.342 . S
C560 C564 1.401 . S
C560 C565 1.499 . S
N561 Co544 1.989 . S
N561 C560 1.342 . S
N561 N562 1.388 . S
N562 Co545 1.993 . S
N562 N561 1.388 . S
N562 C563 1.346 . S
C563 N562 1.346 . S
C563 C564 1.396 . S
C563 C573 1.510 . S
C564 C560 1.401 . S
C564 C563 1.396 . S
C565 C560 1.499 . S
C565 H566 0.959 . S
C565 H567 0.960 . S
C565 H568 0.961 . S
H566 C565 0.959 . S
H567 C565 0.960 . S
H568 C565 0.961 . S
O569 Co544 1.967 . S
O569 C577 1.258 . S
O570 Co545 1.941 . S
O570 C577 1.266 . S
H571 C573 0.959 . S
H572 C573 0.961 . S
C573 C563 1.510 . S
C573 H571 0.959 . S
C573 H572 0.961 . S
C573 H574 0.960 . S
H574 C573 0.960 . S
H575 N555 0.862 . S
O576 Co544 1.920 . S
O576 C549 1.289 . S
C577 O569 1.258 . S
C577 O570 1.266 . S
Co578 O581 1.970 . S
Co578 N595 1.989 . S
Co578 O603 1.967 . S
Co578 O610 1.920 . S
Co579 O582 1.966 . S
Co579 N588 2.022 . S
Co579 N596 1.993 . S
Co579 O604 1.941 . S
C580 O581 1.258 . S
C580 O582 1.263 . S
O581 Co578 1.970 . S
O581 C580 1.258 . S
O582 Co579 1.966 . S
O582 C580 1.263 . S
C583 O584 1.235 . S
C583 O610 1.289 . S
O584 C583 1.235 . S
C585 C587 1.395 1_556 S
C585 N588 1.373 . S
C585 C590 1.488 1_556 S
C586 C587 1.387 1_556 S
C586 N589 1.341 . S
C587 C585 1.395 1_554 S
C587 C586 1.387 1_554 S
N588 Co579 2.022 . S
N588 C585 1.373 . S
N588 N589 1.365 . S
N589 C586 1.341 . S
N589 N588 1.365 . S
N589 H609 0.862 . S
C590 C585 1.488 1_554 S
C590 H591 0.961 . S
C590 H592 0.961 . S
C590 H593 0.960 . S
H591 C590 0.961 . S
H592 C590 0.961 . S
H593 C590 0.960 . S
C594 N595 1.342 . S
C594 C598 1.401 . S
C594 C599 1.499 . S
N595 Co578 1.989 . S
N595 C594 1.342 . S
N595 N596 1.388 . S
N596 Co579 1.993 . S
N596 N595 1.388 . S
N596 C597 1.346 . S
C597 N596 1.346 . S
C597 C598 1.396 . S
C597 C607 1.510 . S
C598 C594 1.401 . S
C598 C597 1.396 . S
C599 C594 1.499 . S
C599 H600 0.959 . S
C599 H601 0.960 . S
C599 H602 0.961 . S
H600 C599 0.959 . S
H601 C599 0.960 . S
H602 C599 0.961 . S
O603 Co578 1.967 . S
O603 C611 1.258 . S
O604 Co579 1.941 . S
O604 C611 1.266 . S
H605 C607 0.959 . S
H606 C607 0.961 . S
C607 C597 1.510 . S
C607 H605 0.959 . S
C607 H606 0.961 . S
C607 H608 0.960 . S
H608 C607 0.960 . S
H609 N589 0.862 . S
O610 Co578 1.920 . S
O610 C583 1.289 . S
C611 O603 1.258 . S
C611 O604 1.266 . S
Co612 O615 1.970 . S
Co612 N629 1.989 . S
Co612 O637 1.967 . S
Co612 O644 1.920 . S
Co613 O616 1.966 . S
Co613 N622 2.022 . S
Co613 N630 1.993 . S
Co613 O638 1.941 . S
C614 O615 1.258 . S
C614 O616 1.263 . S
O615 Co612 1.970 . S
O615 C614 1.258 . S
O616 Co613 1.966 . S
O616 C614 1.263 . S
C617 O618 1.235 . S
C617 O644 1.289 . S
O618 C617 1.235 . S
C619 C621 1.401 1_565 S
C619 N622 1.351 . S
C619 C624 1.501 . S
C620 C621 1.386 . S
C620 N623 1.341 . S
C621 C619 1.401 1_545 S
C621 C620 1.386 . S
N622 Co613 2.022 . S
N622 C619 1.351 . S
N622 N623 1.365 1_565 S
N623 C620 1.341 . S
N623 N622 1.365 1_545 S
N623 H643 0.862 . S
C624 C619 1.501 . S
C624 H625 0.961 . S
C624 H626 0.961 . S
C624 H627 0.960 . S
H625 C624 0.961 . S
H626 C624 0.961 . S
H627 C624 0.960 . S
C628 N629 1.342 . S
C628 C632 1.401 . S
C628 C633 1.499 . S
N629 Co612 1.989 . S
N629 C628 1.342 . S
N629 N630 1.388 . S
N630 Co613 1.993 . S
N630 N629 1.388 . S
N630 C631 1.346 . S
C631 N630 1.346 . S
C631 C632 1.396 . S
C631 C641 1.510 . S
C632 C628 1.401 . S
C632 C631 1.396 . S
C633 C628 1.499 . S
C633 H634 0.959 . S
C633 H635 0.960 . S
C633 H636 0.961 . S
H634 C633 0.959 . S
H635 C633 0.960 . S
H636 C633 0.961 . S
O637 Co612 1.967 . S
O637 C645 1.258 . S
O638 Co613 1.941 . S
O638 C645 1.266 . S
H639 C641 0.959 . S
H640 C641 0.961 . S
C641 C631 1.510 . S
C641 H639 0.959 . S
C641 H640 0.961 . S
C641 H642 0.960 . S
H642 C641 0.960 . S
H643 N623 0.862 . S
O644 Co612 1.920 . S
O644 C617 1.289 . S
C645 O637 1.258 . S
C645 O638 1.266 . S
Co646 O649 1.970 . S
Co646 N663 1.989 . S
Co646 O671 1.967 . S
Co646 O678 1.920 . S
Co647 O650 1.966 . S
Co647 N656 2.022 . S
Co647 N664 1.993 . S
Co647 O672 1.941 . S
C648 O649 1.258 . S
C648 O650 1.263 . S
O649 Co646 1.970 . S
O649 C648 1.258 . S
O650 Co647 1.966 . S
O650 C648 1.263 . S
C651 O652 1.235 . S
C651 O678 1.289 . S
O652 C651 1.235 . S
C653 C655 1.400 . S
C653 N656 1.351 . S
C653 C658 1.501 . S
C654 C655 1.387 . S
C654 N657 1.341 . S
C655 C653 1.400 . S
C655 C654 1.387 . S
N656 Co647 2.022 . S
N656 C653 1.351 . S
N656 N657 1.365 . S
N657 C654 1.341 . S
N657 N656 1.365 . S
N657 H677 0.862 . S
C658 C653 1.501 . S
C658 H659 0.961 . S
C658 H660 0.961 . S
C658 H661 0.960 . S
H659 C658 0.961 . S
H660 C658 0.961 . S
H661 C658 0.960 . S
C662 N663 1.342 . S
C662 C666 1.401 . S
C662 C667 1.499 . S
N663 Co646 1.989 . S
N663 C662 1.342 . S
N663 N664 1.388 . S
N664 Co647 1.993 . S
N664 N663 1.388 . S
N664 C665 1.346 . S
C665 N664 1.346 . S
C665 C666 1.396 . S
C665 C675 1.510 . S
C666 C662 1.401 . S
C666 C665 1.396 . S
C667 C662 1.499 . S
C667 H668 0.959 . S
C667 H669 0.960 . S
C667 H670 0.961 . S
H668 C667 0.959 . S
H669 C667 0.960 . S
H670 C667 0.961 . S
O671 Co646 1.967 . S
O671 C679 1.258 . S
O672 Co647 1.941 . S
O672 C679 1.266 . S
H673 C675 0.959 . S
H674 C675 0.961 . S
C675 C665 1.510 . S
C675 H673 0.959 . S
C675 H674 0.961 . S
C675 H676 0.960 . S
H676 C675 0.960 . S
H677 N657 0.862 . S
O678 Co646 1.920 . S
O678 C651 1.289 . S
C679 O671 1.258 . S
C679 O672 1.266 . S
Co680 O683 1.970 . S
Co680 N697 1.989 . S
Co680 O705 1.967 . S
Co680 O712 1.920 . S
Co681 O684 1.966 . S
Co681 N690 2.022 . S
Co681 N698 1.993 . S
Co681 O706 1.941 . S
C682 O683 1.258 . S
C682 O684 1.263 . S
O683 Co680 1.970 . S
O683 C682 1.258 . S
O684 Co681 1.966 . S
O684 C682 1.263 . S
C685 O686 1.235 . S
C685 O712 1.289 . S
O686 C685 1.235 . S
C687 C689 1.407 . S
C687 N690 1.351 . S
C687 C692 1.501 . S
C688 C689 1.381 1_565 S
C688 N691 1.341 . S
C689 C687 1.407 . S
C689 C688 1.381 1_545 S
N690 Co681 2.022 . S
N690 C687 1.351 . S
N690 N691 1.365 1_545 S
N691 C688 1.341 . S
N691 N690 1.365 1_565 S
N691 H711 0.862 . S
C692 C687 1.501 . S
C692 H693 0.961 . S
C692 H694 0.961 . S
C692 H695 0.960 . S
H693 C692 0.961 . S
H694 C692 0.961 . S
H695 C692 0.960 . S
C696 N697 1.342 . S
C696 C700 1.401 . S
C696 C701 1.499 . S
N697 Co680 1.989 . S
N697 C696 1.342 . S
N697 N698 1.388 . S
N698 Co681 1.993 . S
N698 N697 1.388 . S
N698 C699 1.346 . S
C699 N698 1.346 . S
C699 C700 1.396 . S
C699 C709 1.510 . S
C700 C696 1.401 . S
C700 C699 1.396 . S
C701 C696 1.499 . S
C701 H702 0.959 . S
C701 H703 0.960 . S
C701 H704 0.961 . S
H702 C701 0.959 . S
H703 C701 0.960 . S
H704 C701 0.961 . S
O705 Co680 1.967 . S
O705 C713 1.258 . S
O706 Co681 1.941 . S
O706 C713 1.266 . S
H707 C709 0.959 . S
H708 C709 0.961 . S
C709 C699 1.510 . S
C709 H707 0.959 . S
C709 H708 0.961 . S
C709 H710 0.960 . S
H710 C709 0.960 . S
H711 N691 0.862 . S
O712 Co680 1.920 . S
O712 C685 1.289 . S
C713 O705 1.258 . S
C713 O706 1.266 . S
Co714 O717 1.970 . S
Co714 N731 1.989 . S
Co714 O739 1.967 . S
Co714 O746 1.920 . S
Co715 O718 1.966 . S
Co715 N724 2.022 . S
Co715 N732 1.993 . S
Co715 O740 1.941 . S
C716 O717 1.258 . S
C716 O718 1.263 . S
O717 Co714 1.970 . S
O717 C716 1.258 . S
O718 Co715 1.966 . S
O718 C716 1.263 . S
C719 O720 1.235 . S
C719 O746 1.289 . S
O720 C719 1.235 . S
C721 C723 1.400 . S
C721 N724 1.351 . S
C721 C726 1.501 . S
C722 C723 1.387 . S
C722 N725 1.341 . S
C723 C721 1.400 . S
C723 C722 1.387 . S
N724 Co715 2.022 . S
N724 C721 1.351 . S
N724 N725 1.365 . S
N725 C722 1.341 . S
N725 N724 1.365 . S
N725 H745 0.862 . S
C726 C721 1.501 . S
C726 H727 0.961 . S
C726 H728 0.961 . S
C726 H729 0.960 . S
H727 C726 0.961 . S
H728 C726 0.961 . S
H729 C726 0.960 . S
C730 N731 1.342 . S
C730 C734 1.401 . S
C730 C735 1.499 . S
N731 Co714 1.989 . S
N731 C730 1.342 . S
N731 N732 1.388 . S
N732 Co715 1.993 . S
N732 N731 1.388 . S
N732 C733 1.346 . S
C733 N732 1.346 . S
C733 C734 1.396 . S
C733 C743 1.510 . S
C734 C730 1.401 . S
C734 C733 1.396 . S
C735 C730 1.499 . S
C735 H736 0.959 . S
C735 H737 0.960 . S
C735 H738 0.961 . S
H736 C735 0.959 . S
H737 C735 0.960 . S
H738 C735 0.961 . S
O739 Co714 1.967 . S
O739 C747 1.258 . S
O740 Co715 1.941 . S
O740 C747 1.266 . S
H741 C743 0.959 . S
H742 C743 0.961 . S
C743 C733 1.510 . S
C743 H741 0.959 . S
C743 H742 0.961 . S
C743 H744 0.960 . S
H744 C743 0.960 . S
H745 N725 0.862 . S
O746 Co714 1.920 . S
O746 C719 1.289 . S
C747 O739 1.258 . S
C747 O740 1.266 . S
Co748 O751 1.970 . S
Co748 N765 1.989 . S
Co748 O773 1.967 . S
Co748 O780 1.920 . S
Co749 O752 1.966 . S
Co749 N758 2.022 . S
Co749 N766 1.993 . S
Co749 O774 1.941 . S
C750 O751 1.258 . S
C750 O752 1.263 . S
O751 Co748 1.970 . S
O751 C750 1.258 . S
O752 Co749 1.966 . S
O752 C750 1.263 . S
C753 O754 1.235 . S
C753 O780 1.289 . S
O754 C753 1.235 . S
C755 C757 1.400 . S
C755 N758 1.351 . S
C755 C760 1.501 . S
C756 C757 1.387 . S
C756 N759 1.341 . S
C757 C755 1.400 . S
C757 C756 1.387 . S
N758 Co749 2.022 . S
N758 C755 1.351 . S
N758 N759 1.365 . S
N759 C756 1.341 . S
N759 N758 1.365 . S
N759 H779 0.862 . S
C760 C755 1.501 . S
C760 H761 0.961 . S
C760 H762 0.961 . S
C760 H763 0.960 . S
H761 C760 0.961 . S
H762 C760 0.961 . S
H763 C760 0.960 . S
C764 N765 1.342 . S
C764 C768 1.401 . S
C764 C769 1.499 . S
N765 Co748 1.989 . S
N765 C764 1.342 . S
N765 N766 1.388 . S
N766 Co749 1.993 . S
N766 N765 1.388 . S
N766 C767 1.346 . S
C767 N766 1.346 . S
C767 C768 1.396 . S
C767 C777 1.510 . S
C768 C764 1.401 . S
C768 C767 1.396 . S
C769 C764 1.499 . S
C769 H770 0.959 . S
C769 H771 0.960 . S
C769 H772 0.961 . S
H770 C769 0.959 . S
H771 C769 0.960 . S
H772 C769 0.961 . S
O773 Co748 1.967 . S
O773 C781 1.258 . S
O774 Co749 1.941 . S
O774 C781 1.266 . S
H775 C777 0.959 . S
H776 C777 0.961 . S
C777 C767 1.510 . S
C777 H775 0.959 . S
C777 H776 0.961 . S
C777 H778 0.960 . S
H778 C777 0.960 . S
H779 N759 0.862 . S
O780 Co748 1.920 . S
O780 C753 1.289 . S
C781 O773 1.258 . S
C781 O774 1.266 . S
Co782 O785 1.970 . S
Co782 N799 1.989 . S
Co782 O807 1.967 . S
Co782 O814 1.920 . S
Co783 O786 1.966 . S
Co783 N792 2.022 . S
Co783 N800 1.993 . S
Co783 O808 1.941 . S
C784 O785 1.258 . S
C784 O786 1.263 . S
O785 Co782 1.970 . S
O785 C784 1.258 . S
O786 Co783 1.966 . S
O786 C784 1.263 . S
C787 O788 1.235 . S
C787 O814 1.289 . S
O788 C787 1.235 . S
C789 C791 1.400 . S
C789 N792 1.351 . S
C789 C794 1.501 . S
C790 C791 1.387 . S
C790 N793 1.341 . S
C791 C789 1.400 . S
C791 C790 1.387 . S
N792 Co783 2.022 . S
N792 C789 1.351 . S
N792 N793 1.365 . S
N793 C790 1.341 . S
N793 N792 1.365 . S
N793 H813 0.862 . S
C794 C789 1.501 . S
C794 H795 0.961 . S
C794 H796 0.961 . S
C794 H797 0.960 . S
H795 C794 0.961 . S
H796 C794 0.961 . S
H797 C794 0.960 . S
C798 N799 1.342 . S
C798 C802 1.401 . S
C798 C803 1.499 . S
N799 Co782 1.989 . S
N799 C798 1.342 . S
N799 N800 1.388 . S
N800 Co783 1.993 . S
N800 N799 1.388 . S
N800 C801 1.346 . S
C801 N800 1.346 . S
C801 C802 1.396 . S
C801 C811 1.510 . S
C802 C798 1.401 . S
C802 C801 1.396 . S
C803 C798 1.499 . S
C803 H804 0.959 . S
C803 H805 0.960 . S
C803 H806 0.961 . S
H804 C803 0.959 . S
H805 C803 0.960 . S
H806 C803 0.961 . S
O807 Co782 1.967 . S
O807 C815 1.258 . S
O808 Co783 1.941 . S
O808 C815 1.266 . S
H809 C811 0.959 . S
H810 C811 0.961 . S
C811 C801 1.510 . S
C811 H809 0.959 . S
C811 H810 0.961 . S
C811 H812 0.960 . S
H812 C811 0.960 . S
H813 N793 0.862 . S
O814 Co782 1.920 . S
O814 C787 1.289 . S
C815 O807 1.258 . S
C815 O808 1.266 . S
C816 C817 1.369 . S
C816 C818 1.419 . S
C816 H820 0.930 . S
C817 C816 1.369 . S
C817 C826 1.429 . S
C818 C816 1.419 . S
C818 C819 1.363 . S
C818 H821 0.929 . S
C819 C818 1.363 . S
C819 C825 1.428 . S
H820 C816 0.930 . S
H821 C818 0.929 . S
S822 N823 1.613 . S
S822 N824 1.610 . S
N823 S822 1.613 . S
N823 C826 1.350 . S
N824 S822 1.610 . S
N824 C825 1.351 . S
C825 C819 1.428 . S
C825 N824 1.351 . S
C825 C826 1.434 . S
C826 C817 1.429 . S
C826 N823 1.350 . S
C826 C825 1.434 . S
C827 C828 1.369 . S
C827 C829 1.419 . S
C827 H831 0.930 . S
C828 C827 1.369 . S
C828 C837 1.429 . S
C829 C827 1.419 . S
C829 C830 1.363 . S
C829 H832 0.929 . S
C830 C829 1.363 . S
C830 C836 1.428 . S
H831 C827 0.930 . S
H832 C829 0.929 . S
S833 N834 1.613 . S
S833 N835 1.610 . S
N834 S833 1.613 . S
N834 C837 1.350 . S
N835 S833 1.610 . S
N835 C836 1.351 . S
C836 C830 1.428 . S
C836 N835 1.351 . S
C836 C837 1.434 . S
C837 C828 1.429 . S
C837 N834 1.350 . S
C837 C836 1.434 . S
C838 C839 1.369 . S
C838 C840 1.419 . S
C838 H842 0.930 . S
C839 C838 1.369 . S
C839 C848 1.429 . S
C840 C838 1.419 . S
C840 C841 1.363 . S
C840 H843 0.929 . S
C841 C840 1.363 . S
C841 C847 1.428 . S
H842 C838 0.930 . S
H843 C840 0.929 . S
S844 N845 1.613 1_554 S
S844 N846 1.610 . S
N845 S844 1.613 1_556 S
N845 C848 1.350 . S
N846 S844 1.610 . S
N846 C847 1.351 1_554 S
C847 C841 1.428 . S
C847 N846 1.351 1_556 S
C847 C848 1.434 . S
C848 C839 1.429 . S
C848 N845 1.350 . S
C848 C847 1.434 . S
C849 C850 1.369 . S
C849 C851 1.419 . S
C849 H853 0.930 . S
C850 C849 1.369 . S
C850 C859 1.429 . S
C851 C849 1.419 . S
C851 C852 1.363 . S
C851 H854 0.929 . S
C852 C851 1.363 . S
C852 C858 1.428 . S
H853 C849 0.930 . S
H854 C851 0.929 . S
S855 N856 1.613 . S
S855 N857 1.610 . S
N856 S855 1.613 . S
N856 C859 1.350 . S
N857 S855 1.610 . S
N857 C858 1.351 . S
C858 C852 1.428 . S
C858 N857 1.351 . S
C858 C859 1.434 . S
C859 C850 1.429 . S
C859 N856 1.350 . S
C859 C858 1.434 . S
C860 C861 1.369 . S
C860 C862 1.419 . S
C860 H864 0.930 . S
C861 C860 1.369 . S
C861 C870 1.429 . S
C862 C860 1.419 . S
C862 C863 1.363 . S
C862 H865 0.929 . S
C863 C862 1.363 . S
C863 C869 1.428 . S
H864 C860 0.930 . S
H865 C862 0.929 . S
S866 N867 1.613 . S
S866 N868 1.610 . S
N867 S866 1.613 . S
N867 C870 1.350 . S
N868 S866 1.610 . S
N868 C869 1.351 . S
C869 C863 1.428 . S
C869 N868 1.351 . S
C869 C870 1.434 . S
C870 C861 1.429 . S
C870 N867 1.350 . S
C870 C869 1.434 . S
C871 C872 1.369 . S
C871 C873 1.419 . S
C871 H875 0.930 . S
C872 C871 1.369 . S
C872 C881 1.429 . S
C873 C871 1.419 . S
C873 C874 1.363 . S
C873 H876 0.929 . S
C874 C873 1.363 . S
C874 C880 1.428 . S
H875 C871 0.930 . S
H876 C873 0.929 . S
S877 N878 1.613 . S
S877 N879 1.610 . S
N878 S877 1.613 . S
N878 C881 1.350 . S
N879 S877 1.610 . S
N879 C880 1.351 . S
C880 C874 1.428 . S
C880 N879 1.351 . S
C880 C881 1.434 . S
C881 C872 1.429 . S
C881 N878 1.350 . S
C881 C880 1.434 . S
C882 C883 1.369 . S
C882 C884 1.419 . S
C882 H886 0.930 . S
C883 C882 1.369 . S
C883 C892 1.429 . S
C884 C882 1.419 . S
C884 C885 1.363 . S
C884 H887 0.929 . S
C885 C884 1.363 . S
C885 C891 1.428 . S
H886 C882 0.930 . S
H887 C884 0.929 . S
S888 N889 1.613 . S
S888 N890 1.610 . S
N889 S888 1.613 . S
N889 C892 1.350 . S
N890 S888 1.610 . S
N890 C891 1.351 . S
C891 C885 1.428 . S
C891 N890 1.351 . S
C891 C892 1.434 . S
C892 C883 1.429 . S
C892 N889 1.350 . S
C892 C891 1.434 . S
C893 C894 1.369 . S
C893 C895 1.419 . S
C893 H897 0.930 . S
C894 C893 1.369 . S
C894 C903 1.429 . S
C895 C893 1.419 . S
C895 C896 1.363 . S
C895 H898 0.929 . S
C896 C895 1.363 . S
C896 C902 1.428 . S
H897 C893 0.930 . S
H898 C895 0.929 . S
S899 N900 1.613 . S
S899 N901 1.610 . S
N900 S899 1.613 . S
N900 C903 1.350 . S
N901 S899 1.610 . S
N901 C902 1.351 . S
C902 C896 1.428 . S
C902 N901 1.351 . S
C902 C903 1.434 . S
C903 C894 1.429 . S
C903 N900 1.350 . S
C903 C902 1.434 . S
C904 C905 1.369 . S
C904 C906 1.419 . S
C904 H908 0.930 . S
C905 C904 1.369 . S
C905 C914 1.429 . S
C906 C904 1.419 . S
C906 C907 1.363 . S
C906 H909 0.929 . S
C907 C906 1.363 . S
C907 C913 1.428 . S
H908 C904 0.930 . S
H909 C906 0.929 . S
S910 N911 1.613 . S
S910 N912 1.610 . S
N911 S910 1.613 . S
N911 C914 1.350 . S
N912 S910 1.610 . S
N912 C913 1.351 . S
C913 C907 1.428 . S
C913 N912 1.351 . S
C913 C914 1.434 . S
C914 C905 1.429 . S
C914 N911 1.350 . S
C914 C913 1.434 . S
C915 C916 1.369 . S
C915 C917 1.419 . S
C915 H919 0.930 . S
C916 C915 1.369 . S
C916 C925 1.429 . S
C917 C915 1.419 . S
C917 C918 1.363 . S
C917 H920 0.929 . S
C918 C917 1.363 . S
C918 C924 1.428 . S
H919 C915 0.930 . S
H920 C917 0.929 . S
S921 N922 1.613 . S
S921 N923 1.610 . S
N922 S921 1.613 . S
N922 C925 1.350 . S
N923 S921 1.610 . S
N923 C924 1.351 . S
C924 C918 1.428 . S
C924 N923 1.351 . S
C924 C925 1.434 . S
C925 C916 1.429 . S
C925 N922 1.350 . S
C925 C924 1.434 . S
C926 C927 1.369 . S
C926 C928 1.419 . S
C926 H930 0.930 . S
C927 C926 1.369 . S
C927 C936 1.429 . S
C928 C926 1.419 . S
C928 C929 1.363 . S
C928 H931 0.929 1_455 S
C929 C928 1.363 . S
C929 C935 1.428 . S
H930 C926 0.930 . S
H931 C928 0.929 1_655 S
S932 N933 1.613 . S
S932 N934 1.610 . S
N933 S932 1.613 . S
N933 C936 1.350 . S
N934 S932 1.610 . S
N934 C935 1.351 . S
C935 C929 1.428 . S
C935 N934 1.351 . S
C935 C936 1.434 . S
C936 C927 1.429 . S
C936 N933 1.350 . S
C936 C935 1.434 . S
C937 C938 1.369 . S
C937 C939 1.419 . S
C937 H941 0.930 . S
C938 C937 1.369 . S
C938 C947 1.429 . S
C939 C937 1.419 . S
C939 C940 1.363 . S
C939 H942 0.929 . S
C940 C939 1.363 . S
C940 C946 1.428 . S
H941 C937 0.930 . S
H942 C939 0.929 . S
S943 N944 1.613 . S
S943 N945 1.610 . S
N944 S943 1.613 . S
N944 C947 1.350 . S
N945 S943 1.610 . S
N945 C946 1.351 . S
C946 C940 1.428 . S
C946 N945 1.351 . S
C946 C947 1.434 . S
C947 C938 1.429 . S
C947 N944 1.350 . S
C947 C946 1.434 . S
C948 C949 1.369 . S
C948 C950 1.419 . S
C948 H952 0.930 . S
C949 C948 1.369 . S
C949 C958 1.429 . S
C950 C948 1.419 . S
C950 C951 1.363 . S
C950 H953 0.929 . S
C951 C950 1.363 . S
C951 C957 1.428 . S
H952 C948 0.930 . S
H953 C950 0.929 . S
S954 N955 1.613 . S
S954 N956 1.610 . S
N955 S954 1.613 . S
N955 C958 1.350 . S
N956 S954 1.610 . S
N956 C957 1.351 . S
C957 C951 1.428 . S
C957 N956 1.351 . S
C957 C958 1.434 . S
C958 C949 1.429 . S
C958 N955 1.350 . S
C958 C957 1.434 . S
C959 C960 1.369 . S
C959 C961 1.419 . S
C959 H963 0.930 . S
C960 C959 1.369 . S
C960 C969 1.429 . S
C961 C959 1.419 . S
C961 C962 1.363 . S
C961 H964 0.929 . S
C962 C961 1.363 . S
C962 C968 1.428 . S
H963 C959 0.930 . S
H964 C961 0.929 . S
S965 N966 1.613 . S
S965 N967 1.610 . S
N966 S965 1.613 . S
N966 C969 1.350 . S
N967 S965 1.610 . S
N967 C968 1.351 . S
C968 C962 1.428 . S
C968 N967 1.351 . S
C968 C969 1.434 . S
C969 C960 1.429 . S
C969 N966 1.350 . S
C969 C968 1.434 . S
C970 C971 1.369 . S
C970 C972 1.419 . S
C970 H974 0.930 . S
C971 C970 1.369 . S
C971 C980 1.429 . S
C972 C970 1.419 . S
C972 C973 1.363 . S
C972 H975 0.929 . S
C973 C972 1.363 . S
C973 C979 1.428 . S
H974 C970 0.930 . S
H975 C972 0.929 . S
S976 N977 1.613 . S
S976 N978 1.610 . S
N977 S976 1.613 . S
N977 C980 1.350 . S
N978 S976 1.610 . S
N978 C979 1.351 . S
C979 C973 1.428 . S
C979 N978 1.351 . S
C979 C980 1.434 . S
C980 C971 1.429 . S
C980 N977 1.350 . S
C980 C979 1.434 . S
C981 C982 1.369 . S
C981 C983 1.419 . S
C981 H985 0.930 . S
C982 C981 1.369 . S
C982 C991 1.429 . S
C983 C981 1.419 . S
C983 C984 1.363 . S
C983 H986 0.929 . S
C984 C983 1.363 . S
C984 C990 1.428 . S
H985 C981 0.930 . S
H986 C983 0.929 . S
S987 N988 1.613 1_556 S
S987 N989 1.610 1_556 S
N988 S987 1.613 1_554 S
N988 C991 1.350 . S
N989 S987 1.610 1_554 S
N989 C990 1.351 . S
C990 C984 1.428 . S
C990 N989 1.351 . S
C990 C991 1.434 . S
C991 C982 1.429 . S
C991 N988 1.350 . S
C991 C990 1.434 . S
C992 C993 1.369 . S
C992 C994 1.419 . S
C992 H996 0.930 . S
C993 C992 1.369 . S
C993 C1002 1.429 . S
C994 C992 1.419 . S
C994 C995 1.363 . S
C994 H997 0.929 . S
C995 C994 1.363 . S
C995 C1001 1.428 . S
H996 C992 0.930 . S
H997 C994 0.929 . S
S998 N999 1.613 . S
S998 N1000 1.610 . S
N999 S998 1.613 . S
N999 C1002 1.350 . S
N1000 S998 1.610 . S
N1000 C1001 1.351 . S
C1001 C995 1.428 . S
C1001 N1000 1.351 . S
C1001 C1002 1.434 . S
C1002 C993 1.429 . S
C1002 N999 1.350 . S
C1002 C1001 1.434 . S
C1003 C1004 1.369 . S
C1003 C1005 1.419 . S
C1003 H1007 0.930 . S
C1004 C1003 1.369 . S
C1004 C1013 1.429 . S
C1005 C1003 1.419 . S
C1005 C1006 1.363 . S
C1005 H1008 0.929 1_545 S
C1006 C1005 1.363 . S
C1006 C1012 1.428 . S
H1007 C1003 0.930 . S
H1008 C1005 0.929 1_565 S
S1009 N1010 1.613 . S
S1009 N1011 1.610 . S
N1010 S1009 1.613 . S
N1010 C1013 1.350 . S
N1011 S1009 1.610 . S
N1011 C1012 1.351 . S
C1012 C1006 1.428 . S
C1012 N1011 1.351 . S
C1012 C1013 1.434 . S
C1013 C1004 1.429 . S
C1013 N1010 1.350 . S
C1013 C1012 1.434 . S
C1014 C1015 1.369 . S
C1014 C1016 1.419 . S
C1014 H1018 0.930 . S
C1015 C1014 1.369 . S
C1015 C1024 1.429 . S
C1016 C1014 1.419 . S
C1016 C1017 1.363 . S
C1016 H1019 0.929 . S
C1017 C1016 1.363 . S
C1017 C1023 1.428 . S
H1018 C1014 0.930 . S
H1019 C1016 0.929 . S
S1020 N1021 1.613 . S
S1020 N1022 1.610 . S
N1021 S1020 1.613 . S
N1021 C1024 1.350 . S
N1022 S1020 1.610 . S
N1022 C1023 1.351 . S
C1023 C1017 1.428 . S
C1023 N1022 1.351 . S
C1023 C1024 1.434 . S
C1024 C1015 1.429 . S
C1024 N1021 1.350 . S
C1024 C1023 1.434 . S
C1025 C1026 1.369 . S
C1025 C1027 1.419 . S
C1025 H1029 0.930 . S
C1026 C1025 1.369 . S
C1026 C1035 1.429 . S
C1027 C1025 1.419 . S
C1027 C1028 1.363 . S
C1027 H1030 0.929 . S
C1028 C1027 1.363 . S
C1028 C1034 1.428 . S
H1029 C1025 0.930 . S
H1030 C1027 0.929 . S
S1031 N1032 1.613 . S
S1031 N1033 1.610 1_545 S
N1032 S1031 1.613 . S
N1032 C1035 1.350 1_545 S
N1033 S1031 1.610 1_565 S
N1033 C1034 1.351 . S
C1034 C1028 1.428 . S
C1034 N1033 1.351 . S
C1034 C1035 1.434 . S
C1035 C1026 1.429 . S
C1035 N1032 1.350 1_565 S
C1035 C1034 1.434 . S
C1036 C1037 1.369 . S
C1036 C1038 1.419 . S
C1036 H1040 0.930 . S
C1037 C1036 1.369 . S
C1037 C1046 1.429 . S
C1038 C1036 1.419 . S
C1038 C1039 1.363 . S
C1038 H1041 0.929 . S
C1039 C1038 1.363 . S
C1039 C1045 1.428 . S
H1040 C1036 0.930 . S
H1041 C1038 0.929 . S
S1042 N1043 1.613 . S
S1042 N1044 1.610 . S
N1043 S1042 1.613 . S
N1043 C1046 1.350 . S
N1044 S1042 1.610 . S
N1044 C1045 1.351 . S
C1045 C1039 1.428 . S
C1045 N1044 1.351 . S
C1045 C1046 1.434 . S
C1046 C1037 1.429 . S
C1046 N1043 1.350 . S
C1046 C1045 1.434 . S
C1047 C1048 1.369 . S
C1047 C1049 1.419 . S
C1047 H1051 0.930 . S
C1048 C1047 1.369 . S
C1048 C1057 1.429 . S
C1049 C1047 1.419 . S
C1049 C1050 1.363 . S
C1049 H1052 0.929 . S
C1050 C1049 1.363 . S
C1050 C1056 1.428 . S
H1051 C1047 0.930 . S
H1052 C1049 0.929 . S
S1053 N1054 1.613 . S
S1053 N1055 1.610 . S
N1054 S1053 1.613 . S
N1054 C1057 1.350 . S
N1055 S1053 1.610 . S
N1055 C1056 1.351 . S
C1056 C1050 1.428 . S
C1056 N1055 1.351 . S
C1056 C1057 1.434 . S
C1057 C1048 1.429 . S
C1057 N1054 1.350 . S
C1057 C1056 1.434 . S
C1058 C1059 1.369 . S
C1058 C1060 1.419 . S
C1058 H1062 0.930 . S
C1059 C1058 1.369 . S
C1059 C1068 1.429 . S
C1060 C1058 1.419 . S
C1060 C1061 1.363 . S
C1060 H1063 0.929 . S
C1061 C1060 1.363 . S
C1061 C1067 1.428 . S
H1062 C1058 0.930 . S
H1063 C1060 0.929 . S
S1064 N1065 1.613 . S
S1064 N1066 1.610 . S
N1065 S1064 1.613 . S
N1065 C1068 1.350 . S
N1066 S1064 1.610 . S
N1066 C1067 1.351 . S
C1067 C1061 1.428 . S
C1067 N1066 1.351 . S
C1067 C1068 1.434 . S
C1068 C1059 1.429 . S
C1068 N1065 1.350 . S
C1068 C1067 1.434 . S
C1069 C1070 1.369 . S
C1069 C1071 1.419 . S
C1069 H1073 0.930 . S
C1070 C1069 1.369 . S
C1070 C1079 1.429 . S
C1071 C1069 1.419 . S
C1071 C1072 1.363 . S
C1071 H1074 0.929 . S
C1072 C1071 1.363 . S
C1072 C1078 1.428 . S
H1073 C1069 0.930 . S
H1074 C1071 0.929 . S
S1075 N1076 1.613 . S
S1075 N1077 1.610 . S
N1076 S1075 1.613 . S
N1076 C1079 1.350 . S
N1077 S1075 1.610 . S
N1077 C1078 1.351 . S
C1078 C1072 1.428 . S
C1078 N1077 1.351 . S
C1078 C1079 1.434 . S
C1079 C1070 1.429 . S
C1079 N1076 1.350 . S
C1079 C1078 1.434 . S
C1080 C1081 1.369 . S
C1080 C1082 1.419 . S
C1080 H1084 0.930 . S
C1081 C1080 1.369 . S
C1081 C1090 1.429 . S
C1082 C1080 1.419 . S
C1082 C1083 1.363 . S
C1082 H1085 0.929 . S
C1083 C1082 1.363 . S
C1083 C1089 1.428 . S
H1084 C1080 0.930 . S
H1085 C1082 0.929 . S
S1086 N1087 1.613 . S
S1086 N1088 1.610 . S
N1087 S1086 1.613 . S
N1087 C1090 1.350 . S
N1088 S1086 1.610 . S
N1088 C1089 1.351 . S
C1089 C1083 1.428 . S
C1089 N1088 1.351 . S
C1089 C1090 1.434 . S
C1090 C1081 1.429 . S
C1090 N1087 1.350 . S
C1090 C1089 1.434 . S
C1091 C1092 1.369 . S
C1091 C1093 1.419 . S
C1091 H1095 0.930 . S
C1092 C1091 1.369 . S
C1092 C1101 1.429 . S
C1093 C1091 1.419 . S
C1093 C1094 1.365 . S
C1093 H1096 0.929 . S
C1094 C1093 1.365 . S
C1094 C1100 1.430 . S
H1095 C1091 0.930 . S
H1096 C1093 0.929 . S
S1097 N1098 1.613 . S
S1097 N1099 1.610 1_556 S
N1098 S1097 1.613 . S
N1098 C1101 1.350 . S
N1099 S1097 1.610 1_554 S
N1099 C1100 1.351 1_554 S
C1100 C1094 1.430 . S
C1100 N1099 1.351 1_556 S
C1100 C1101 1.434 . S
C1101 C1092 1.429 . S
C1101 N1098 1.350 . S
C1101 C1100 1.434 . S
C1102 C1103 1.369 . S
C1102 C1104 1.419 . S
C1102 H1106 0.930 . S
C1103 C1102 1.369 . S
C1103 C1112 1.429 . S
C1104 C1102 1.419 . S
C1104 C1105 1.363 . S
C1104 H1107 0.929 . S
C1105 C1104 1.363 . S
C1105 C1111 1.428 . S
H1106 C1102 0.930 . S
H1107 C1104 0.929 . S
S1108 N1109 1.613 . S
S1108 N1110 1.610 . S
N1109 S1108 1.613 . S
N1109 C1112 1.350 . S
N1110 S1108 1.610 . S
N1110 C1111 1.351 . S
C1111 C1105 1.428 . S
C1111 N1110 1.351 . S
C1111 C1112 1.434 . S
C1112 C1103 1.429 . S
C1112 N1109 1.350 . S
C1112 C1111 1.434 . S
C1113 C1114 1.369 . S
C1113 C1115 1.419 . S
C1113 H1117 0.930 . S
C1114 C1113 1.369 . S
C1114 C1123 1.429 1_455 S
C1115 C1113 1.419 . S
C1115 C1116 1.363 1_455 S
C1115 H1118 0.929 . S
C1116 C1115 1.363 1_655 S
C1116 C1122 1.428 . S
H1117 C1113 0.930 . S
H1118 C1115 0.929 . S
S1119 N1120 1.613 . S
S1119 N1121 1.610 . S
N1120 S1119 1.613 . S
N1120 C1123 1.350 . S
N1121 S1119 1.610 . S
N1121 C1122 1.351 . S
C1122 C1116 1.428 . S
C1122 N1121 1.351 . S
C1122 C1123 1.434 . S
C1123 C1114 1.429 1_655 S
C1123 N1120 1.350 . S
C1123 C1122 1.434 . S
C1124 C1125 1.369 . S
C1124 C1126 1.419 . S
C1124 H1128 0.930 . S
C1125 C1124 1.369 . S
C1125 C1134 1.429 . S
C1126 C1124 1.419 . S
C1126 C1127 1.363 . S
C1126 H1129 0.929 . S
C1127 C1126 1.363 . S
C1127 C1133 1.428 . S
H1128 C1124 0.930 . S
H1129 C1126 0.929 . S
S1130 N1131 1.613 . S
S1130 N1132 1.610 . S
N1131 S1130 1.613 . S
N1131 C1134 1.350 . S
N1132 S1130 1.610 . S
N1132 C1133 1.351 . S
C1133 C1127 1.428 . S
C1133 N1132 1.351 . S
C1133 C1134 1.434 . S
C1134 C1125 1.429 . S
C1134 N1131 1.350 . S
C1134 C1133 1.434 . S
C1135 C1136 1.369 . S
C1135 C1137 1.419 . S
C1135 H1139 0.930 . S
C1136 C1135 1.369 . S
C1136 C1145 1.429 . S
C1137 C1135 1.419 . S
C1137 C1138 1.363 . S
C1137 H1140 0.929 . S
C1138 C1137 1.363 . S
C1138 C1144 1.428 . S
H1139 C1135 0.930 . S
H1140 C1137 0.929 . S
S1141 N1142 1.613 . S
S1141 N1143 1.610 . S
N1142 S1141 1.613 . S
N1142 C1145 1.350 . S
N1143 S1141 1.610 . S
N1143 C1144 1.351 . S
C1144 C1138 1.428 . S
C1144 N1143 1.351 . S
C1144 C1145 1.434 . S
C1145 C1136 1.429 . S
C1145 N1142 1.350 . S
C1145 C1144 1.434 . S
C1146 C1147 1.369 . S
C1146 C1148 1.419 . S
C1146 H1150 0.930 . S
C1147 C1146 1.369 . S
C1147 C1156 1.429 . S
C1148 C1146 1.419 . S
C1148 C1149 1.363 . S
C1148 H1151 0.929 . S
C1149 C1148 1.363 . S
C1149 C1155 1.428 . S
H1150 C1146 0.930 . S
H1151 C1148 0.929 . S
S1152 N1153 1.613 . S
S1152 N1154 1.610 . S
N1153 S1152 1.613 . S
N1153 C1156 1.350 . S
N1154 S1152 1.610 . S
N1154 C1155 1.351 . S
C1155 C1149 1.428 . S
C1155 N1154 1.351 . S
C1155 C1156 1.434 . S
C1156 C1147 1.429 . S
C1156 N1153 1.350 . S
C1156 C1155 1.434 . S
C1157 C1158 1.381 . S
C1157 C1159 1.419 . S
C1157 H1161 0.930 . S
C1158 C1157 1.381 . S
C1158 C1167 1.431 1_455 S
C1159 C1157 1.419 . S
C1159 C1160 1.363 1_455 S
C1159 H1162 0.929 . S
C1160 C1159 1.363 1_655 S
C1160 C1166 1.428 . S
H1161 C1157 0.930 . S
H1162 C1159 0.929 . S
S1163 N1164 1.613 1_554 S
S1163 N1165 1.610 . S
N1164 S1163 1.613 1_556 S
N1164 C1167 1.350 1_556 S
N1165 S1163 1.610 . S
N1165 C1166 1.351 . S
C1166 C1160 1.428 . S
C1166 N1165 1.351 . S
C1166 C1167 1.434 . S
C1167 C1158 1.431 1_655 S
C1167 N1164 1.350 1_554 S
C1167 C1166 1.434 . S
C1168 C1169 1.369 . S
C1168 C1170 1.419 . S
C1168 H1172 0.930 . S
C1169 C1168 1.369 . S
C1169 C1178 1.429 . S
C1170 C1168 1.419 . S
C1170 C1171 1.363 . S
C1170 H1173 0.929 . S
C1171 C1170 1.363 . S
C1171 C1177 1.428 . S
H1172 C1168 0.930 . S
H1173 C1170 0.929 . S
S1174 N1175 1.613 . S
S1174 N1176 1.610 . S
N1175 S1174 1.613 . S
N1175 C1178 1.350 . S
N1176 S1174 1.610 . S
N1176 C1177 1.351 . S
C1177 C1171 1.428 . S
C1177 N1176 1.351 . S
C1177 C1178 1.434 . S
C1178 C1169 1.429 . S
C1178 N1175 1.350 . S
C1178 C1177 1.434 . S
C1179 C1180 1.369 1_554 S
C1179 C1181 1.419 . S
C1179 H1183 0.930 . S
C1180 C1179 1.369 1_556 S
C1180 C1189 1.429 . S
C1181 C1179 1.419 . S
C1181 C1182 1.363 . S
C1181 H1184 0.929 . S
C1182 C1181 1.363 . S
C1182 C1188 1.428 1_554 S
H1183 C1179 0.930 . S
H1184 C1181 0.929 . S
S1185 N1186 1.613 . S
S1185 N1187 1.610 . S
N1186 S1185 1.613 . S
N1186 C1189 1.350 . S
N1187 S1185 1.610 . S
N1187 C1188 1.351 . S
C1188 C1182 1.428 1_556 S
C1188 N1187 1.351 . S
C1188 C1189 1.434 . S
C1189 C1180 1.429 . S
C1189 N1186 1.350 . S
C1189 C1188 1.434 . S
C1190 C1191 1.369 . S
C1190 C1192 1.419 . S
C1190 H1194 0.930 . S
C1191 C1190 1.369 . S
C1191 C1200 1.429 . S
C1192 C1190 1.419 . S
C1192 C1193 1.363 . S
C1192 H1195 0.929 . S
C1193 C1192 1.363 . S
C1193 C1199 1.428 . S
H1194 C1190 0.930 . S
H1195 C1192 0.929 . S
S1196 N1197 1.613 . S
S1196 N1198 1.610 . S
N1197 S1196 1.613 . S
N1197 C1200 1.350 . S
N1198 S1196 1.610 . S
N1198 C1199 1.351 . S
C1199 C1193 1.428 . S
C1199 N1198 1.351 . S
C1199 C1200 1.434 . S
C1200 C1191 1.429 . S
C1200 N1197 1.350 . S
C1200 C1199 1.434 . S
C1201 C1202 1.369 . S
C1201 C1203 1.419 . S
C1201 H1205 0.930 . S
C1202 C1201 1.369 . S
C1202 C1211 1.429 . S
C1203 C1201 1.419 . S
C1203 C1204 1.363 . S
C1203 H1206 0.929 . S
C1204 C1203 1.363 . S
C1204 C1210 1.428 . S
H1205 C1201 0.930 . S
H1206 C1203 0.929 . S
S1207 N1208 1.613 . S
S1207 N1209 1.610 . S
N1208 S1207 1.613 . S
N1208 C1211 1.350 . S
N1209 S1207 1.610 . S
N1209 C1210 1.351 . S
C1210 C1204 1.428 . S
C1210 N1209 1.351 . S
C1210 C1211 1.434 . S
C1211 C1202 1.429 . S
C1211 N1208 1.350 . S
C1211 C1210 1.434 . S
C1212 C1213 1.369 . S
C1212 C1214 1.419 . S
C1212 H1216 0.930 . S
C1213 C1212 1.369 . S
C1213 C1222 1.429 . S
C1214 C1212 1.419 . S
C1214 C1215 1.363 . S
C1214 H1217 0.929 . S
C1215 C1214 1.363 . S
C1215 C1221 1.428 . S
H1216 C1212 0.930 . S
H1217 C1214 0.929 . S
S1218 N1219 1.613 . S
S1218 N1220 1.610 . S
N1219 S1218 1.613 . S
N1219 C1222 1.350 . S
N1220 S1218 1.610 . S
N1220 C1221 1.351 . S
C1221 C1215 1.428 . S
C1221 N1220 1.351 . S
C1221 C1222 1.434 . S
C1222 C1213 1.429 . S
C1222 N1219 1.350 . S
C1222 C1221 1.434 . S
C1223 C1224 1.369 . S
C1223 C1225 1.419 . S
C1223 H1227 0.930 . S
C1224 C1223 1.369 . S
C1224 C1233 1.429 . S
C1225 C1223 1.419 . S
C1225 C1226 1.364 . S
C1225 H1228 0.929 . S
C1226 C1225 1.364 . S
C1226 C1232 1.429 . S
H1227 C1223 0.930 . S
H1228 C1225 0.929 . S
S1229 N1230 1.613 . S
S1229 N1231 1.610 1_565 S
N1230 S1229 1.613 . S
N1230 C1233 1.350 . S
N1231 S1229 1.610 1_545 S
N1231 C1232 1.351 1_545 S
C1232 C1226 1.429 . S
C1232 N1231 1.351 1_565 S
C1232 C1233 1.434 . S
C1233 C1224 1.429 . S
C1233 N1230 1.350 . S
C1233 C1232 1.434 . S
C1234 C1235 1.369 . S
C1234 C1236 1.419 . S
C1234 H1238 0.930 . S
C1235 C1234 1.369 . S
C1235 C1244 1.429 . S
C1236 C1234 1.419 . S
C1236 C1237 1.363 . S
C1236 H1239 0.929 . S
C1237 C1236 1.363 . S
C1237 C1243 1.428 . S
H1238 C1234 0.930 . S
H1239 C1236 0.929 . S
S1240 N1241 1.613 . S
S1240 N1242 1.610 . S
N1241 S1240 1.613 . S
N1241 C1244 1.350 . S
N1242 S1240 1.610 . S
N1242 C1243 1.351 . S
C1243 C1237 1.428 . S
C1243 N1242 1.351 . S
C1243 C1244 1.434 . S
C1244 C1235 1.429 . S
C1244 N1241 1.350 . S
C1244 C1243 1.434 . S
C1245 C1246 1.379 . S
C1245 C1247 1.419 . S
C1245 H1249 0.930 . S
C1246 C1245 1.379 . S
C1246 C1255 1.432 1_554 S
C1247 C1245 1.419 . S
C1247 C1248 1.363 1_554 S
C1247 H1250 0.929 . S
C1248 C1247 1.363 1_556 S
C1248 C1254 1.428 . S
H1249 C1245 0.930 . S
H1250 C1247 0.929 . S
S1251 N1252 1.613 1_545 S
S1251 N1253 1.610 . S
N1252 S1251 1.613 1_565 S
N1252 C1255 1.350 1_565 S
N1253 S1251 1.610 . S
N1253 C1254 1.351 . S
C1254 C1248 1.428 . S
C1254 N1253 1.351 . S
C1254 C1255 1.434 . S
C1255 C1246 1.432 1_556 S
C1255 N1252 1.350 1_545 S
C1255 C1254 1.434 . S
C1256 C1257 1.369 . S
C1256 C1258 1.419 . S
C1256 H1260 0.930 . S
C1257 C1256 1.369 . S
C1257 C1266 1.429 . S
C1258 C1256 1.419 . S
C1258 C1259 1.363 . S
C1258 H1261 0.929 . S
C1259 C1258 1.363 . S
C1259 C1265 1.428 . S
H1260 C1256 0.930 . S
H1261 C1258 0.929 . S
S1262 N1263 1.613 . S
S1262 N1264 1.610 . S
N1263 S1262 1.613 . S
N1263 C1266 1.350 . S
N1264 S1262 1.610 . S
N1264 C1265 1.351 . S
C1265 C1259 1.428 . S
C1265 N1264 1.351 . S
C1265 C1266 1.434 . S
C1266 C1257 1.429 . S
C1266 N1263 1.350 . S
C1266 C1265 1.434 . S
C1267 C1268 1.369 . S
C1267 C1269 1.419 . S
C1267 H1271 0.930 . S
C1268 C1267 1.369 . S
C1268 C1277 1.429 . S
C1269 C1267 1.419 . S
C1269 C1270 1.363 . S
C1269 H1272 0.929 . S
C1270 C1269 1.363 . S
C1270 C1276 1.428 . S
H1271 C1267 0.930 . S
H1272 C1269 0.929 . S
S1273 N1274 1.613 . S
S1273 N1275 1.610 . S
N1274 S1273 1.613 . S
N1274 C1277 1.350 . S
N1275 S1273 1.610 . S
N1275 C1276 1.351 . S
C1276 C1270 1.428 . S
C1276 N1275 1.351 . S
C1276 C1277 1.434 . S
C1277 C1268 1.429 . S
C1277 N1274 1.350 . S
C1277 C1276 1.434 . S
C1278 C1279 1.369 . S
C1278 C1280 1.419 . S
C1278 H1282 0.930 . S
C1279 C1278 1.369 . S
C1279 C1288 1.429 . S
C1280 C1278 1.419 . S
C1280 C1281 1.363 1_545 S
C1280 H1283 0.929 . S
C1281 C1280 1.363 1_565 S
C1281 C1287 1.428 . S
H1282 C1278 0.930 . S
H1283 C1280 0.929 . S
S1284 N1285 1.613 1_565 S
S1284 N1286 1.610 . S
N1285 S1284 1.613 1_545 S
N1285 C1288 1.350 . S
N1286 S1284 1.610 . S
N1286 C1287 1.351 . S
C1287 C1281 1.428 . S
C1287 N1286 1.351 . S
C1287 C1288 1.434 1_565 S
C1288 C1279 1.429 . S
C1288 N1285 1.350 . S
C1288 C1287 1.434 1_545 S
C1289 C1290 1.369 . S
C1289 C1291 1.419 . S
C1289 H1293 0.930 . S
C1290 C1289 1.369 . S
C1290 C1299 1.429 . S
C1291 C1289 1.419 . S
C1291 C1292 1.363 . S
C1291 H1294 0.929 . S
C1292 C1291 1.363 . S
C1292 C1298 1.428 . S
H1293 C1289 0.930 . S
H1294 C1291 0.929 . S
S1295 N1296 1.613 . S
S1295 N1297 1.610 . S
N1296 S1295 1.613 . S
N1296 C1299 1.350 . S
N1297 S1295 1.610 . S
N1297 C1298 1.351 . S
C1298 C1292 1.428 . S
C1298 N1297 1.351 . S
C1298 C1299 1.434 . S
C1299 C1290 1.429 . S
C1299 N1296 1.350 . S
C1299 C1298 1.434 . S
C1300 C1301 1.382 . S
C1300 C1302 1.419 1_545 S
C1300 H1304 0.930 . S
C1301 C1300 1.382 . S
C1301 C1310 1.434 1_545 S
C1302 C1300 1.419 1_565 S
C1302 C1303 1.363 . S
C1302 H1305 0.929 . S
C1303 C1302 1.363 . S
C1303 C1309 1.428 . S
H1304 C1300 0.930 . S
H1305 C1302 0.929 . S
S1306 N1307 1.613 1_455 S
S1306 N1308 1.610 . S
N1307 S1306 1.613 1_655 S
N1307 C1310 1.350 1_655 S
N1308 S1306 1.610 . S
N1308 C1309 1.351 . S
C1309 C1303 1.428 . S
C1309 N1308 1.351 . S
C1309 C1310 1.434 . S
C1310 C1301 1.434 1_565 S
C1310 N1307 1.350 1_455 S
C1310 C1309 1.434 . S
C1311 C1312 1.369 . S
C1311 C1313 1.419 . S
C1311 H1315 0.930 . S
C1312 C1311 1.369 . S
C1312 C1321 1.429 . S
C1313 C1311 1.419 . S
C1313 C1314 1.363 . S
C1313 H1316 0.929 . S
C1314 C1313 1.363 . S
C1314 C1320 1.428 . S
H1315 C1311 0.930 . S
H1316 C1313 0.929 . S
S1317 N1318 1.613 . S
S1317 N1319 1.610 . S
N1318 S1317 1.613 . S
N1318 C1321 1.350 . S
N1319 S1317 1.610 . S
N1319 C1320 1.351 . S
C1320 C1314 1.428 . S
C1320 N1319 1.351 . S
C1320 C1321 1.434 . S
C1321 C1312 1.429 . S
C1321 N1318 1.350 . S
C1321 C1320 1.434 . S
C1322 C1323 1.371 . S
C1322 C1324 1.419 . S
C1322 H1326 0.930 1_655 S
C1323 C1322 1.371 . S
C1323 C1332 1.437 . S
C1324 C1322 1.419 . S
C1324 C1325 1.363 . S
C1324 H1327 0.929 . S
C1325 C1324 1.363 . S
C1325 C1331 1.428 . S
H1326 C1322 0.930 1_455 S
H1327 C1324 0.929 . S
S1328 N1329 1.613 . S
S1328 N1330 1.610 . S
N1329 S1328 1.613 . S
N1329 C1332 1.350 . S
N1330 S1328 1.610 . S
N1330 C1331 1.351 . S
C1331 C1325 1.428 . S
C1331 N1330 1.351 . S
C1331 C1332 1.434 . S
C1332 C1323 1.437 . S
C1332 N1329 1.350 . S
C1332 C1331 1.434 . S
C1333 C1334 1.369 . S
C1333 C1335 1.419 . S
C1333 H1337 0.930 . S
C1334 C1333 1.369 . S
C1334 C1343 1.429 . S
C1335 C1333 1.419 . S
C1335 C1336 1.363 . S
C1335 H1338 0.929 . S
C1336 C1335 1.363 . S
C1336 C1342 1.428 . S
H1337 C1333 0.930 . S
H1338 C1335 0.929 . S
S1339 N1340 1.613 . S
S1339 N1341 1.610 . S
N1340 S1339 1.613 . S
N1340 C1343 1.350 . S
N1341 S1339 1.610 . S
N1341 C1342 1.351 . S
C1342 C1336 1.428 . S
C1342 N1341 1.351 . S
C1342 C1343 1.434 . S
C1343 C1334 1.429 . S
C1343 N1340 1.350 . S
C1343 C1342 1.434 . S
C1344 C1345 1.369 . S
C1344 C1346 1.419 . S
C1344 H1348 0.930 . S
C1345 C1344 1.369 . S
C1345 C1354 1.429 1_655 S
C1346 C1344 1.419 . S
C1346 C1347 1.363 1_655 S
C1346 H1349 0.929 . S
C1347 C1346 1.363 1_455 S
C1347 C1353 1.428 . S
H1348 C1344 0.930 . S
H1349 C1346 0.929 . S
S1350 N1351 1.613 . S
S1350 N1352 1.610 . S
N1351 S1350 1.613 . S
N1351 C1354 1.350 . S
N1352 S1350 1.610 . S
N1352 C1353 1.351 . S
C1353 C1347 1.428 . S
C1353 N1352 1.351 . S
C1353 C1354 1.434 . S
C1354 C1345 1.429 1_455 S
C1354 N1351 1.350 . S
C1354 C1353 1.434 . S
C1355 C1356 1.369 . S
C1355 C1357 1.419 1_554 S
C1355 H1359 0.930 . S
C1356 C1355 1.369 . S
C1356 C1365 1.429 . S
C1357 C1355 1.419 1_556 S
C1357 C1358 1.363 . S
C1357 H1360 0.929 . S
C1358 C1357 1.363 . S
C1358 C1364 1.428 . S
H1359 C1355 0.930 . S
H1360 C1357 0.929 . S
S1361 N1362 1.613 1_556 S
S1361 N1363 1.610 . S
N1362 S1361 1.613 1_554 S
N1362 C1365 1.350 . S
N1363 S1361 1.610 . S
N1363 C1364 1.351 . S
C1364 C1358 1.428 . S
C1364 N1363 1.351 . S
C1364 C1365 1.434 1_556 S
C1365 C1356 1.429 . S
C1365 N1362 1.350 . S
C1365 C1364 1.434 1_554 S
C1366 C1367 1.369 . S
C1366 C1368 1.419 . S
C1366 H1370 0.930 . S
C1367 C1366 1.369 . S
C1367 C1376 1.429 . S
C1368 C1366 1.419 . S
C1368 C1369 1.363 . S
C1368 H1371 0.929 . S
C1369 C1368 1.363 . S
C1369 C1375 1.428 . S
H1370 C1366 0.930 . S
H1371 C1368 0.929 . S
S1372 N1373 1.613 . S
S1372 N1374 1.610 . S
N1373 S1372 1.613 . S
N1373 C1376 1.350 . S
N1374 S1372 1.610 . S
N1374 C1375 1.351 . S
C1375 C1369 1.428 . S
C1375 N1374 1.351 . S
C1375 C1376 1.434 . S
C1376 C1367 1.429 . S
C1376 N1373 1.350 . S
C1376 C1375 1.434 . S
C1377 C1378 1.369 . S
C1377 C1379 1.419 . S
C1377 H1381 0.930 . S
C1378 C1377 1.369 . S
C1378 C1387 1.429 . S
C1379 C1377 1.419 . S
C1379 C1380 1.363 . S
C1379 H1382 0.929 . S
C1380 C1379 1.363 . S
C1380 C1386 1.428 . S
H1381 C1377 0.930 . S
H1382 C1379 0.929 . S
S1383 N1384 1.613 . S
S1383 N1385 1.610 . S
N1384 S1383 1.613 . S
N1384 C1387 1.350 . S
N1385 S1383 1.610 . S
N1385 C1386 1.351 . S
C1386 C1380 1.428 . S
C1386 N1385 1.351 . S
C1386 C1387 1.434 . S
C1387 C1378 1.429 . S
C1387 N1384 1.350 . S
C1387 C1386 1.434 . S
C1388 C1389 1.369 . S
C1388 C1390 1.419 . S
C1388 H1392 0.930 . S
C1389 C1388 1.369 . S
C1389 C1398 1.429 . S
C1390 C1388 1.419 . S
C1390 C1391 1.363 . S
C1390 H1393 0.929 . S
C1391 C1390 1.363 . S
C1391 C1397 1.428 . S
H1392 C1388 0.930 . S
H1393 C1390 0.929 . S
S1394 N1395 1.613 . S
S1394 N1396 1.610 . S
N1395 S1394 1.613 . S
N1395 C1398 1.350 . S
N1396 S1394 1.610 . S
N1396 C1397 1.351 . S
C1397 C1391 1.428 . S
C1397 N1396 1.351 . S
C1397 C1398 1.434 . S
C1398 C1389 1.429 . S
C1398 N1395 1.350 . S
C1398 C1397 1.434 . S
C1399 C1400 1.369 . S
C1399 C1401 1.419 . S
C1399 H1403 0.930 . S
C1400 C1399 1.369 . S
C1400 C1409 1.429 . S
C1401 C1399 1.419 . S
C1401 C1402 1.363 . S
C1401 H1404 0.929 . S
C1402 C1401 1.363 . S
C1402 C1408 1.428 . S
H1403 C1399 0.930 . S
H1404 C1401 0.929 . S
S1405 N1406 1.613 . S
S1405 N1407 1.610 . S
N1406 S1405 1.613 . S
N1406 C1409 1.350 . S
N1407 S1405 1.610 . S
N1407 C1408 1.351 . S
C1408 C1402 1.428 . S
C1408 N1407 1.351 . S
C1408 C1409 1.434 . S
C1409 C1400 1.429 . S
C1409 N1406 1.350 . S
C1409 C1408 1.434 . S
C1410 C1411 1.369 . S
C1410 C1412 1.419 1_655 S
C1410 H1414 0.930 . S
C1411 C1410 1.369 . S
C1411 C1420 1.429 1_655 S
C1412 C1410 1.419 1_455 S
C1412 C1413 1.363 . S
C1412 H1415 0.928 1_455 S
C1413 C1412 1.363 . S
C1413 C1419 1.428 . S
H1414 C1410 0.930 . S
H1415 C1412 0.928 1_655 S
S1416 N1417 1.613 . S
S1416 N1418 1.610 . S
N1417 S1416 1.613 . S
N1417 C1420 1.350 . S
N1418 S1416 1.610 . S
N1418 C1419 1.351 . S
C1419 C1413 1.428 . S
C1419 N1418 1.351 . S
C1419 C1420 1.434 . S
C1420 C1411 1.429 1_455 S
C1420 N1417 1.350 . S
C1420 C1419 1.434 . S
C1421 C1422 1.369 1_556 S
C1421 C1423 1.419 . S
C1421 H1425 0.930 . S
C1422 C1421 1.369 1_554 S
C1422 C1431 1.429 . S
C1423 C1421 1.419 . S
C1423 C1424 1.363 . S
C1423 H1426 0.929 . S
C1424 C1423 1.363 . S
C1424 C1430 1.428 1_556 S
H1425 C1421 0.930 . S
H1426 C1423 0.929 . S
S1427 N1428 1.613 . S
S1427 N1429 1.610 . S
N1428 S1427 1.613 . S
N1428 C1431 1.350 . S
N1429 S1427 1.610 . S
N1429 C1430 1.351 . S
C1430 C1424 1.428 1_554 S
C1430 N1429 1.351 . S
C1430 C1431 1.434 . S
C1431 C1422 1.429 . S
C1431 N1428 1.350 . S
C1431 C1430 1.434 . S
C1432 C1433 1.369 . S
C1432 C1434 1.419 1_565 S
C1432 H1436 0.930 . S
C1433 C1432 1.369 . S
C1433 C1442 1.429 . S
C1434 C1432 1.419 1_545 S
C1434 C1435 1.363 . S
C1434 H1437 0.929 . S
C1435 C1434 1.363 . S
C1435 C1441 1.428 . S
H1436 C1432 0.930 . S
H1437 C1434 0.929 . S
S1438 N1439 1.613 1_545 S
S1438 N1440 1.610 . S
N1439 S1438 1.613 1_565 S
N1439 C1442 1.350 . S
N1440 S1438 1.610 . S
N1440 C1441 1.351 . S
C1441 C1435 1.428 . S
C1441 N1440 1.351 . S
C1441 C1442 1.434 1_545 S
C1442 C1433 1.429 . S
C1442 N1439 1.350 . S
C1442 C1441 1.434 1_565 S
C1443 C1444 1.369 . S
C1443 C1445 1.419 . S
C1443 H1447 0.930 . S
C1444 C1443 1.369 . S
C1444 C1453 1.429 . S
C1445 C1443 1.419 . S
C1445 C1446 1.363 . S
C1445 H1448 0.929 . S
C1446 C1445 1.363 . S
C1446 C1452 1.428 . S
H1447 C1443 0.930 . S
H1448 C1445 0.929 . S
S1449 N1450 1.613 . S
S1449 N1451 1.610 . S
N1450 S1449 1.613 . S
N1450 C1453 1.350 . S
N1451 S1449 1.610 . S
N1451 C1452 1.351 . S
C1452 C1446 1.428 . S
C1452 N1451 1.351 . S
C1452 C1453 1.434 . S
C1453 C1444 1.429 . S
C1453 N1450 1.350 . S
C1453 C1452 1.434 . S
C1454 C1455 1.369 1_565 S
C1454 C1456 1.419 . S
C1454 H1458 0.930 . S
C1455 C1454 1.369 1_545 S
C1455 C1464 1.429 . S
C1456 C1454 1.419 . S
C1456 C1457 1.363 . S
C1456 H1459 0.929 . S
C1457 C1456 1.363 . S
C1457 C1463 1.428 1_565 S
H1458 C1454 0.930 . S
H1459 C1456 0.929 . S
S1460 N1461 1.613 . S
S1460 N1462 1.610 . S
N1461 S1460 1.613 . S
N1461 C1464 1.350 . S
N1462 S1460 1.610 . S
N1462 C1463 1.351 . S
C1463 C1457 1.428 1_545 S
C1463 N1462 1.351 . S
C1463 C1464 1.434 . S
C1464 C1455 1.429 . S
C1464 N1461 1.350 . S
C1464 C1463 1.434 . S
C1465 C1466 1.369 . S
C1465 C1467 1.419 . S
C1465 H1469 0.930 . S
C1466 C1465 1.369 . S
C1466 C1475 1.429 . S
C1467 C1465 1.419 . S
C1467 C1468 1.363 . S
C1467 H1470 0.929 . S
C1468 C1467 1.363 . S
C1468 C1474 1.428 . S
H1469 C1465 0.930 . S
H1470 C1467 0.929 . S
S1471 N1472 1.613 . S
S1471 N1473 1.610 . S
N1472 S1471 1.613 . S
N1472 C1475 1.350 . S
N1473 S1471 1.610 . S
N1473 C1474 1.351 . S
C1474 C1468 1.428 . S
C1474 N1473 1.351 . S
C1474 C1475 1.434 . S
C1475 C1466 1.429 . S
C1475 N1472 1.350 . S
C1475 C1474 1.434 . S
C817 C451 1.519 . S
C819 C20 1.670 . S
C828 C54 1.670 . S
C830 C485 1.518 . S
C839 C88 1.670 . S
C841 C519 1.513 1_556 S
C850 C417 1.519 . S
C852 C122 1.670 . S
C861 C383 1.515 . S
C863 C156 1.669 . S
C872 C281 1.508 . S
C874 C190 1.667 . S
C883 C224 1.667 . S
C885 C315 1.510 . S
C894 C349 1.519 . S
C896 C258 1.670 . S
C905 C292 1.671 . S
C907 C43 1.518 . S
C916 C326 1.670 . S
C918 C77 1.518 . S
C927 C360 1.667 . S
C929 C111 1.509 . S
C938 C9 1.518 . S
C940 C394 1.670 . S
C949 C247 1.516 1_655 S
C951 C428 1.670 . S
C960 C462 1.667 . S
C962 C145 1.509 . S
C971 C496 1.667 . S
C973 C179 1.510 . S
C982 C213 1.519 . S
C984 C530 1.670 . S
C993 C757 1.520 . S
C995 C564 1.670 . S
C1004 C598 1.667 . S
C1006 C621 1.510 . S
C1015 C632 1.671 . S
C1017 C655 1.519 . S
C1026 C689 1.515 1_565 S
C1028 C666 1.670 . S
C1037 C700 1.666 . S
C1039 C587 1.508 . S
C1048 C791 1.520 . S
C1050 C734 1.670 . S
C1059 C768 1.670 . S
C1061 C723 1.517 . S
C1070 C553 1.516 . S
C1072 C802 1.669 . S
C1081 C549 1.439 . S
C1083 C33 1.454 . S
C1092 C787 1.437 . S
C1094 C67 1.452 1_556 S
C1103 C101 1.454 . S
C1105 C719 1.438 . S
C1114 C753 1.442 . S
C1116 C135 1.450 . S
C1125 C583 1.443 . S
C1127 C169 1.449 . S
C1136 C617 1.442 . S
C1138 C203 1.450 . S
C1147 C651 1.445 . S
C1149 C237 1.448 . S
C1158 C271 1.437 1_554 S
C1160 C685 1.444 . S
C1169 C305 1.448 . S
C1171 C5 1.444 . S
C1180 C339 1.447 . S
C1182 C39 1.444 . S
C1191 C373 1.456 . S
C1193 C73 1.438 . S
C1202 C407 1.453 . S
C1204 C107 1.439 . S
C1213 C441 1.447 . S
C1215 C141 1.444 . S
C1224 C175 1.437 . S
C1226 C475 1.454 1_565 S
C1235 C209 1.445 . S
C1237 C509 1.448 . S
C1246 C543 1.443 1_545 S
C1248 C243 1.440 . S
C1257 C277 1.441 . S
C1259 C577 1.451 . S
C1268 C413 1.447 . S
C1270 C611 1.448 . S
C1279 C447 1.439 . S
C1281 C645 1.452 . S
C1290 C481 1.440 . S
C1292 C679 1.453 . S
C1301 C713 1.432 1_455 S
C1303 C515 1.445 . S
C1312 C747 1.449 . S
C1314 C345 1.445 . S
C1323 C781 1.440 1_655 S
C1325 C379 1.443 . S
C1334 C311 1.438 . S
C1336 C815 1.453 . S
C1345 C682 1.243 . S
C1347 C2 1.244 . S
C1356 C36 1.244 . S
C1358 C580 1.244 . S
C1367 C614 1.244 . S
C1369 C70 1.245 . S
C1378 C104 1.244 . S
C1380 C648 1.244 . S
C1389 C784 1.245 . S
C1391 C138 1.246 . S
C1400 C716 1.245 . S
C1402 C172 1.246 . S
C1411 C206 1.247 . S
C1413 C750 1.246 . S
C1422 C546 1.243 . S
C1424 C240 1.243 . S
C1433 C512 1.244 . S
C1435 C274 1.244 . S
C1444 C410 1.243 . S
C1446 C308 1.244 . S
C1455 C444 1.247 . S
C1457 C342 1.246 . S
C1466 C478 1.243 . S
C1468 C376 1.244 . S
