# Generated by pormake.
# Topology wjv, (5)-cn, num edge types: 1
# Building blocks:
#     Node 0, Type 0, BuildingBlock: XOMCOT_clean_sbu_1, # of connection points: 5
#     Node 1, Type 0, BuildingBlock: XOMCOT_clean_sbu_1, # of connection points: 5
#     Node 2, Type 0, BuildingBlock: XOMCOT_clean_sbu_1, # of connection points: 5
#     Node 3, Type 0, BuildingBlock: XOMCOT_clean_sbu_1, # of connection points: 5
#     Node 4, Type 0, BuildingBlock: XOMCOT_clean_sbu_1, # of connection points: 5
#     Node 5, Type 0, BuildingBlock: XOMCOT_clean_sbu_1, # of connection points: 5
#     Node 6, Type 0, BuildingBlock: XOMCOT_clean_sbu_1, # of connection points: 5
#     Node 7, Type 0, BuildingBlock: XOMCOT_clean_sbu_1, # of connection points: 5
#     Node 8, Type 0, BuildingBlock: XOMCOT_clean_sbu_1, # of connection points: 5
#     Node 9, Type 0, BuildingBlock: XOMCOT_clean_sbu_1, # of connection points: 5
#     Node 10, Type 0, BuildingBlock: XOMCOT_clean_sbu_1, # of connection points: 5
#     Node 11, Type 0, BuildingBlock: XOMCOT_clean_sbu_1, # of connection points: 5
#     Edge 12, Type (0, 0), BuildingBlock: CIFDUS_clean_linker_0, # of connection points: 2
#     Edge 13, Type (0, 0), BuildingBlock: CIFDUS_clean_linker_0, # of connection points: 2
#     Edge 14, Type (0, 0), BuildingBlock: CIFDUS_clean_linker_0, # of connection points: 2
#     Edge 15, Type (0, 0), BuildingBlock: CIFDUS_clean_linker_0, # of connection points: 2
#     Edge 16, Type (0, 0), BuildingBlock: CIFDUS_clean_linker_0, # of connection points: 2
#     Edge 17, Type (0, 0), BuildingBlock: CIFDUS_clean_linker_0, # of connection points: 2
#     Edge 18, Type (0, 0), BuildingBlock: CIFDUS_clean_linker_0, # of connection points: 2
#     Edge 19, Type (0, 0), BuildingBlock: CIFDUS_clean_linker_0, # of connection points: 2
#     Edge 20, Type (0, 0), BuildingBlock: CIFDUS_clean_linker_0, # of connection points: 2
#     Edge 21, Type (0, 0), BuildingBlock: CIFDUS_clean_linker_0, # of connection points: 2
#     Edge 22, Type (0, 0), BuildingBlock: CIFDUS_clean_linker_0, # of connection points: 2
#     Edge 23, Type (0, 0), BuildingBlock: CIFDUS_clean_linker_0, # of connection points: 2
#     Edge 24, Type (0, 0), BuildingBlock: CIFDUS_clean_linker_0, # of connection points: 2
#     Edge 25, Type (0, 0), BuildingBlock: CIFDUS_clean_linker_0, # of connection points: 2
#     Edge 26, Type (0, 0), BuildingBlock: CIFDUS_clean_linker_0, # of connection points: 2
#     Edge 27, Type (0, 0), BuildingBlock: CIFDUS_clean_linker_0, # of connection points: 2
#     Edge 28, Type (0, 0), BuildingBlock: CIFDUS_clean_linker_0, # of connection points: 2
#     Edge 29, Type (0, 0), BuildingBlock: CIFDUS_clean_linker_0, # of connection points: 2
#     Edge 30, Type (0, 0), BuildingBlock: CIFDUS_clean_linker_0, # of connection points: 2
#     Edge 31, Type (0, 0), BuildingBlock: CIFDUS_clean_linker_0, # of connection points: 2
#     Edge 32, Type (0, 0), BuildingBlock: CIFDUS_clean_linker_0, # of connection points: 2
#     Edge 33, Type (0, 0), BuildingBlock: CIFDUS_clean_linker_0, # of connection points: 2
#     Edge 34, Type (0, 0), BuildingBlock: CIFDUS_clean_linker_0, # of connection points: 2
#     Edge 35, Type (0, 0), BuildingBlock: CIFDUS_clean_linker_0, # of connection points: 2
#     Edge 36, Type (0, 0), BuildingBlock: CIFDUS_clean_linker_0, # of connection points: 2
#     Edge 37, Type (0, 0), BuildingBlock: CIFDUS_clean_linker_0, # of connection points: 2
#     Edge 38, Type (0, 0), BuildingBlock: CIFDUS_clean_linker_0, # of connection points: 2
#     Edge 39, Type (0, 0), BuildingBlock: CIFDUS_clean_linker_0, # of connection points: 2
#     Edge 40, Type (0, 0), BuildingBlock: CIFDUS_clean_linker_0, # of connection points: 2
#     Edge 41, Type (0, 0), BuildingBlock: CIFDUS_clean_linker_0, # of connection points: 2
# Relax obj value: 0.263
# Max RMSD: 0.168
# Mean RMSD: 0.168
data_MOF--net-wjv--node1-XOMCOT_clean_sbu_1--edge1-CIFDUS_clean_linker_0
_symmetry_space_group_name_H-M    P1
_symmetry_Int_Tables_number       1
_symmetry_cell_setting            triclinic
loop_
_symmetry_equiv_pos_as_xyz
'x, y, z'
_cell_length_a     30.857657
_cell_length_b     30.46778
_cell_length_c     44.571757
_cell_angle_alpha  90.597254
_cell_angle_beta   89.893662
_cell_angle_gamma 119.59781
loop_
_atom_site_label
_atom_site_type_symbol
_atom_site_fract_x
_atom_site_fract_y
_atom_site_fract_z
_atom_type_partial_charge
C0 C 0.24029 0.39266 0.26395 0.0
C1 C 0.24786 0.37647 0.2912 0.0
N2 N 0.28479 0.36532 0.28815 0.0
N3 N 0.27086 0.39037 0.24303 0.0
C4 C 0.29864 0.37514 0.259 0.0
H5 H 0.2139 0.40551 0.25969 0.0
Co6 Co 0.27391 0.41351 0.20264 0.0
C7 C 0.38569 0.46234 0.18596 0.0
O8 O 0.37216 0.44575 0.15833 0.0
N9 N 0.2764 0.43954 0.16332 0.0
C10 C 0.30049 0.49279 0.12473 0.0
C11 C 0.30887 0.48699 0.15444 0.0
C12 C 0.24616 0.41885 0.13898 0.0
N13 N 0.2608 0.44979 0.11514 0.0
O14 O 0.19719 0.3776 0.19976 0.0
H15 H 0.33744 0.51568 0.16861 0.0
H16 H 0.21332 0.38229 0.13836 0.0
O17 O 0.35143 0.45281 0.20578 0.0
C18 C 0.15897 0.33856 0.21084 0.0
O19 O 0.16598 0.3099 0.22978 0.0
N20 N 0.27494 0.35531 0.18588 0.0
C21 C 0.28531 0.28035 0.1553 0.0
C22 C 0.32192 0.31344 0.17522 0.0
C23 C 0.31576 0.34969 0.19035 0.0
C24 C 0.23736 0.32091 0.16776 0.0
C25 C 0.24223 0.28399 0.15179 0.0
H26 H 0.34541 0.37342 0.20519 0.0
H27 H 0.20287 0.32089 0.16516 0.0
H28 H 0.33038 0.37377 0.25037 0.0
H29 H 0.22743 0.37314 0.31158 0.0
H30 H 0.32131 0.52627 0.11137 0.0
H31 H 0.35454 0.31018 0.18031 0.0
H32 H 0.21184 0.25752 0.13761 0.0
C33 C 0.86789 0.21587 0.58951 0.0
C34 C 0.88736 0.2222 0.61793 0.0
N35 N 0.91119 0.2716 0.62494 0.0
N36 N 0.87886 0.26101 0.57781 0.0
C37 C 0.90478 0.29426 0.60054 0.0
H38 H 0.84769 0.17983 0.57841 0.0
Co39 Co 0.86013 0.2722 0.5379 0.0
C40 C 0.93898 0.38574 0.52857 0.0
O41 O 0.94774 0.37519 0.50133 0.0
N42 N 0.8377 0.28225 0.49905 0.0
C43 C 0.82656 0.31805 0.45827 0.0
C44 C 0.84213 0.32539 0.4878 0.0
C45 C 0.81397 0.24806 0.47643 0.0
N46 N 0.80926 0.26931 0.45105 0.0
O47 O 0.81407 0.19505 0.53232 0.0
H48 H 0.85584 0.36053 0.50002 0.0
H49 H 0.8027 0.20845 0.47772 0.0
O50 O 0.90492 0.34978 0.54452 0.0
C51 C 0.81699 0.15586 0.52365 0.0
O52 O 0.86053 0.16078 0.51691 0.0
N53 N 0.91683 0.27206 0.52006 0.0
C54 C 1.00655 0.29649 0.49185 0.0
C55 C 1.00605 0.31138 0.52146 0.0
C56 C 0.96113 0.2986 0.53511 0.0
C57 C 0.91708 0.25469 0.49158 0.0
C58 C 0.96148 0.26637 0.4771 0.0
H59 H 0.96333 0.3143 0.55703 0.0
H60 H 0.88344 0.23096 0.47957 0.0
H61 H 0.91992 0.33451 0.59902 0.0
H62 H 0.88576 0.19262 0.63195 0.0
H63 H 0.82773 0.34633 0.44327 0.0
H64 H 0.04028 0.33313 0.53409 0.0
H65 H 0.96054 0.25224 0.45456 0.0
C66 C 0.63358 0.8479 0.92889 0.0
C67 C 0.64947 0.87153 0.95647 0.0
N68 N 0.64971 0.91585 0.95593 0.0
N69 N 0.6254 0.87746 0.90998 0.0
C70 C 0.63327 0.91736 0.92788 0.0
H71 H 0.62764 0.81072 0.92329 0.0
Co72 Co 0.60016 0.85925 0.86918 0.0
C73 C 0.55069 0.92489 0.85746 0.0
O74 O 0.56199 0.92714 0.82888 0.0
N75 N 0.57178 0.83801 0.83004 0.0
C76 C 0.50961 0.80062 0.79689 0.0
C77 C 0.52217 0.81744 0.82601 0.0
C78 C 0.58822 0.83147 0.80282 0.0
N79 N 0.55119 0.80925 0.78217 0.0
O80 O 0.63526 0.81693 0.86331 0.0
H81 H 0.49636 0.81409 0.84348 0.0
H82 H 0.6256 0.83953 0.79824 0.0
O83 O 0.56227 0.89871 0.87511 0.0
C84 C 0.67836 0.82326 0.87097 0.0
O85 O 0.70942 0.86478 0.88551 0.0
N86 N 0.65715 0.91879 0.85349 0.0
C87 C 0.74223 1.00748 0.8356 0.0
C88 C 0.70675 0.00916 0.85429 0.0
C89 C 0.66503 0.96513 0.86263 0.0
C90 C 0.69095 0.9167 0.83434 0.0
C91 C 0.73354 0.96044 0.82505 0.0
H92 H 0.64035 0.96996 0.87722 0.0
H93 H 0.68707 0.88146 0.82678 0.0
H94 H 0.62416 0.94564 0.92134 0.0
H95 H 0.65953 0.85651 0.97542 0.0
H96 H 0.4724 0.78282 0.78746 0.0
H97 H 0.71201 0.04415 0.86409 0.0
H98 H 0.76008 0.9572 0.81059 0.0
C99 C 0.78815 0.72267 0.2307 0.0
C100 C 0.78206 0.73851 0.2587 0.0
N101 N 0.76328 0.69871 0.27719 0.0
N102 N 0.77242 0.67271 0.23114 0.0
C103 C 0.75835 0.65937 0.26009 0.0
H104 H 0.80065 0.74557 0.21078 0.0
Co105 Co 0.76277 0.63305 0.19581 0.0
C106 C 0.6701 0.53557 0.22856 0.0
O107 O 0.68137 0.50858 0.24639 0.0
N108 N 0.75326 0.59364 0.16017 0.0
C109 C 0.71641 0.53496 0.12446 0.0
C110 C 0.71464 0.54719 0.15399 0.0
C111 C 0.77874 0.60803 0.13383 0.0
N112 N 0.75639 0.57349 0.11159 0.0
O113 O 0.8168 0.62042 0.20877 0.0
H114 H 0.68499 0.52422 0.16918 0.0
H115 H 0.81068 0.64488 0.13019 0.0
O116 O 0.70632 0.57379 0.2157 0.0
C117 C 0.85698 0.65412 0.19602 0.0
O118 O 0.85368 0.68702 0.17877 0.0
N119 N 0.71805 0.65211 0.18183 0.0
C120 C 0.68977 0.72342 0.17185 0.0
C121 C 0.66723 0.68831 0.19481 0.0
C122 C 0.68236 0.65284 0.19965 0.0
C123 C 0.73481 0.68156 0.15704 0.0
C124 C 0.72018 0.71682 0.15118 0.0
H125 H 0.6711 0.63172 0.2202 0.0
H126 H 0.76547 0.68389 0.14431 0.0
H127 H 0.74248 0.62115 0.26818 0.0
H128 H 0.79028 0.7763 0.26495 0.0
H129 H 0.68884 0.50119 0.11293 0.0
H130 H 0.64368 0.69271 0.21122 0.0
H131 H 0.73899 0.74384 0.13351 0.0
C132 C 0.1114 0.82125 0.56955 0.0
C133 C 0.08605 0.81874 0.59537 0.0
N134 N 0.08511 0.78264 0.61301 0.0
N135 N 0.12706 0.78714 0.57049 0.0
C136 C 0.11149 0.76489 0.59775 0.0
H137 H 0.1149 0.84405 0.55033 0.0
Co138 Co 0.15216 0.77194 0.53533 0.0
C139 C 0.1523 0.67501 0.56504 0.0
O140 O 0.18007 0.67119 0.586 0.0
N141 N 0.17807 0.75856 0.49973 0.0
C142 C 0.21983 0.73513 0.46878 0.0
C143 C 0.20268 0.73234 0.49747 0.0
C144 C 0.1825 0.77842 0.47194 0.0
N145 N 0.20763 0.76453 0.45257 0.0
O146 O 0.22001 0.83093 0.54392 0.0
H147 H 0.20942 0.7132 0.51552 0.0
H148 H 0.16953 0.80444 0.46635 0.0
O149 O 0.16268 0.72039 0.55772 0.0
C150 C 0.2245 0.87016 0.53027 0.0
O151 O 0.18651 0.86445 0.51409 0.0
N152 N 0.08704 0.7223 0.52541 0.0
C153 C 0.98427 0.67301 0.5172 0.0
C154 C 1.00522 0.65941 0.54056 0.0
C155 C 0.05631 0.6862 0.54507 0.0
C156 C 0.06745 0.73279 0.50095 0.0
C157 C 0.01605 0.70845 0.49631 0.0
H158 H 0.06993 0.68056 0.56594 0.0
H159 H 0.09097 0.76401 0.48676 0.0
H160 H 0.11544 0.73335 0.60516 0.0
H161 H 0.0671 0.83995 0.60001 0.0
H162 H 0.24033 0.71708 0.46073 0.0
H163 H 0.98204 0.63221 0.5572 0.0
H164 H 1.00147 0.72121 0.47838 0.0
C165 C 0.29607 0.06855 0.90054 0.0
C166 C 0.2793 0.04619 0.92798 0.0
N167 N 0.31701 0.06784 0.94791 0.0
N168 N 0.34461 0.10397 0.90259 0.0
C169 C 0.35615 0.10359 0.9321 0.0
H170 H 0.27492 0.05769 0.87982 0.0
Co171 Co 0.38144 0.13366 0.86679 0.0
C172 C 0.48267 0.14582 0.89365 0.0
O173 O 0.51657 0.17636 0.91294 0.0
N174 N 0.41572 0.16391 0.83069 0.0
C175 C 0.46905 0.20678 0.79412 0.0
C176 C 0.46446 0.19183 0.82374 0.0
C177 C 0.39191 0.16427 0.80533 0.0
N178 N 0.42303 0.1891 0.78239 0.0
O179 O 0.38004 0.19784 0.87633 0.0
H180 H 0.49496 0.20134 0.8391 0.0
H181 H 0.35184 0.14462 0.8037 0.0
O182 O 0.44638 0.1545 0.88774 0.0
C183 C 0.34474 0.20185 0.8633 0.0
O184 O 0.3126 0.1636 0.84686 0.0
N185 N 0.37747 0.07085 0.85643 0.0
C186 C 0.33888 0.96822 0.8464 0.0
C187 C 0.3618 0.98984 0.8737 0.0
C188 C 0.37982 0.04111 0.87849 0.0
C189 C 0.36227 0.05093 0.82827 0.0
C190 C 0.3445 0.99991 0.8225 0.0
H191 H 0.3922 0.05578 0.90081 0.0
H192 H 0.35801 0.07212 0.81068 0.0
H193 H 0.39327 0.12629 0.94129 0.0
H194 H 0.24231 0.01547 0.93277 0.0
H195 H 0.50377 0.22945 0.78246 0.0
H196 H 0.35828 0.96643 0.89272 0.0
H197 H 0.32667 0.98412 0.8011 0.0
C198 C 0.73392 0.79192 0.48627 0.0
C199 C 0.74711 0.78452 0.45794 0.0
N200 N 0.70531 0.75686 0.44178 0.0
N201 N 0.68384 0.76843 0.48847 0.0
C202 C 0.66726 0.74796 0.46069 0.0
H203 H 0.7593 0.81205 0.50453 0.0
Co204 Co 0.65207 0.76497 0.52561 0.0
C205 C 0.56764 0.65868 0.52987 0.0
O206 O 0.57986 0.66438 0.55842 0.0
N207 N 0.6199 0.76355 0.56301 0.0
C208 C 0.55864 0.75876 0.59205 0.0
C209 C 0.5724 0.75462 0.56329 0.0
C210 C 0.63469 0.77508 0.5922 0.0
N211 N 0.59782 0.77175 0.61034 0.0
O212 O 0.63436 0.81528 0.51071 0.0
H213 H 0.54918 0.74615 0.54354 0.0
H214 H 0.67176 0.78672 0.60026 0.0
O215 O 0.58898 0.698 0.51254 0.0
C216 C 0.66547 0.85754 0.52364 0.0
O217 O 0.69619 0.85668 0.54367 0.0
N218 N 0.67878 0.72571 0.54017 0.0
C219 C 0.741 0.68562 0.55112 0.0
C220 C 0.70158 0.66214 0.53075 0.0
C221 C 0.67281 0.68422 0.52448 0.0
C222 C 0.71628 0.74839 0.5607 0.0
C223 C 0.74749 0.72857 0.56689 0.0
H224 H 0.6487 0.67003 0.50512 0.0
H225 H 0.72591 0.78506 0.56972 0.0
H226 H 0.62824 0.72556 0.45474 0.0
H227 H 0.78468 0.79851 0.44976 0.0
H228 H 0.52297 0.75427 0.59881 0.0
H229 H 0.69573 0.62946 0.51769 0.0
H230 H 0.77913 0.74943 0.58168 0.0
C231 C 0.92592 0.72911 0.81038 0.0
C232 C 0.94564 0.74194 0.78205 0.0
N233 N 0.9561 0.70644 0.77202 0.0
N234 N 0.92311 0.6852 0.81839 0.0
C235 C 0.94194 0.67225 0.79436 0.0
H236 H 0.91514 0.75116 0.82444 0.0
Co237 Co 0.89848 0.65524 0.85635 0.0
C238 C 0.9214 0.5704 0.86064 0.0
O239 O 0.92538 0.58038 0.88954 0.0
N240 N 0.87131 0.62484 0.89423 0.0
C241 C 0.81336 0.56666 0.92375 0.0
C242 C 0.83008 0.57874 0.89485 0.0
C243 C 0.8788 0.63994 0.92356 0.0
N244 N 0.84388 0.60516 0.94187 0.0
O245 O 0.82959 0.63491 0.84287 0.0
H246 H 0.8125 0.55557 0.87521 0.0
H247 H 0.9076 0.67623 0.93156 0.0
O248 O 0.90348 0.59212 0.84356 0.0
C249 C 0.8236 0.67134 0.85342 0.0
O250 O 0.85998 0.70649 0.86956 0.0
N251 N 0.96412 0.68502 0.87007 0.0
C252 C 0.06361 0.75645 0.87853 0.0
C253 C 0.05048 0.71404 0.86046 0.0
C254 C 1.00052 0.67969 0.85577 0.0
C255 C 0.97664 0.7252 0.88873 0.0
C256 C 0.02631 0.76081 0.89393 0.0
H257 H 0.99189 0.65246 0.83802 0.0
H258 H 0.94819 0.73298 0.89694 0.0
H259 H 0.94551 0.63869 0.7932 0.0
H260 H 0.95323 0.77571 0.77005 0.0
H261 H 0.78082 0.53231 0.93087 0.0
H262 H 0.07804 0.71061 0.84709 0.0
H263 H 0.03516 0.79406 0.90736 0.0
C264 C 0.20679 0.92742 0.15093 0.0
C265 C 0.21512 0.94927 0.12309 0.0
N266 N 0.24661 0.93862 0.10799 0.0
N267 N 0.23344 0.90345 0.15395 0.0
C268 C 0.25681 0.91021 0.127 0.0
H269 H 0.18449 0.93088 0.16856 0.0
Co270 Co 0.23956 0.87901 0.19226 0.0
C271 C 0.34418 0.89977 0.19683 0.0
O272 O 0.34083 0.91392 0.22426 0.0
N273 N 0.2437 0.85277 0.23059 0.0
C274 C 0.25054 0.79941 0.26165 0.0
C275 C 0.25338 0.81414 0.23237 0.0
C276 C 0.23331 0.85943 0.25945 0.0
N277 N 0.23777 0.82783 0.27872 0.0
O278 O 0.19012 0.80948 0.17985 0.0
H279 H 0.26118 0.79696 0.21328 0.0
H280 H 0.22167 0.88581 0.26662 0.0
O281 O 0.30486 0.88026 0.1796 0.0
C282 C 0.14971 0.80244 0.1929 0.0
O283 O 0.15231 0.83934 0.20973 0.0
N284 N 0.27756 0.94617 0.20482 0.0
C285 C 0.28997 0.04161 0.19843 0.0
C286 C 0.32155 0.02831 0.18328 0.0
C287 C 0.31473 0.98021 0.18685 0.0
C288 C 0.25184 0.96143 0.22292 0.0
C289 C 0.25935 0.01011 0.22116 0.0
H290 H 0.33166 0.96796 0.17016 0.0
H291 H 0.21875 0.93413 0.23417 0.0
H292 H 0.2827 0.89689 0.12196 0.0
H293 H 0.19951 0.97169 0.11461 0.0
H294 H 0.25568 0.76884 0.26961 0.0
H295 H 0.34547 0.051 0.16528 0.0
H296 H 0.23528 0.0197 0.23399 0.0
C297 C 0.34103 0.1985 0.46282 0.0
C298 C 0.33555 0.20955 0.43357 0.0
N299 N 0.35865 0.25999 0.43071 0.0
N300 N 0.36753 0.24175 0.47871 0.0
C301 C 0.37872 0.27845 0.45811 0.0
H302 H 0.32223 0.16123 0.47237 0.0
Co303 Co 0.36849 0.24745 0.52158 0.0
C304 C 0.43747 0.35943 0.53376 0.0
O305 O 0.40589 0.3555 0.55468 0.0
N306 N 0.36862 0.25258 0.56493 0.0
C307 C 0.34735 0.25977 0.6119 0.0
C308 C 0.33885 0.26347 0.58217 0.0
C309 C 0.39549 0.24288 0.58547 0.0
N310 N 0.38259 0.24632 0.61414 0.0
O311 O 0.40312 0.20709 0.52488 0.0
H312 H 0.31259 0.27434 0.57418 0.0
H313 H 0.42278 0.23178 0.57963 0.0
O314 O 0.43017 0.31909 0.5193 0.0
C315 C 0.36618 0.16189 0.529 0.0
O316 O 0.32121 0.15611 0.52996 0.0
N317 N 0.32462 0.27262 0.51783 0.0
C318 C 0.2425 0.27841 0.49794 0.0
C319 C 0.29044 0.32011 0.49559 0.0
C320 C 0.3312 0.31605 0.50515 0.0
C321 C 0.27781 0.23334 0.52228 0.0
C322 C 0.23627 0.23567 0.513 0.0
H323 H 0.36733 0.34583 0.49936 0.0
H324 H 0.2726 0.199 0.53222 0.0
H325 H 0.39762 0.31825 0.4635 0.0
H326 H 0.31162 0.18263 0.41673 0.0
H327 H 0.32873 0.26637 0.63057 0.0
H328 H 0.29703 0.35393 0.48404 0.0
H329 H 0.19973 0.20342 0.51673 0.0
C330 C 0.09565 0.29944 0.8146 0.0
C331 C 0.07034 0.28284 0.78779 0.0
N332 N 0.06273 0.31939 0.77659 0.0
N333 N 0.10376 0.34623 0.82087 0.0
C334 C 0.08384 0.35777 0.79694 0.0
H335 H 0.10495 0.27755 0.82954 0.0
Co336 Co 0.12952 0.37793 0.85876 0.0
C337 C 0.10889 0.46414 0.86206 0.0
O338 O 0.09821 0.45028 0.89013 0.0
N339 N 0.15778 0.41056 0.89654 0.0
C340 C 0.21651 0.47209 0.92468 0.0
C341 C 0.19575 0.45871 0.89662 0.0
C342 C 0.15693 0.39526 0.92532 0.0
N343 N 0.19237 0.43227 0.9428 0.0
O344 O 0.19776 0.39481 0.84552 0.0
H345 H 0.20952 0.48198 0.87691 0.0
H346 H 0.13416 0.35697 0.93285 0.0
O347 O 0.12692 0.44184 0.8452 0.0
C348 C 0.20635 0.36241 0.85918 0.0
O349 O 0.17236 0.33138 0.8779 0.0
N350 N 0.06396 0.35035 0.87245 0.0
C351 C 0.96525 0.27452 0.87417 0.0
C352 C 0.97866 0.31859 0.85833 0.0
C353 C 0.02832 0.35544 0.85721 0.0
C354 C 0.0505 0.30997 0.89058 0.0
C355 C 1.00099 0.27178 0.89219 0.0
H356 H 0.03803 0.38336 0.84035 0.0
H357 H 0.07866 0.30334 0.90033 0.0
H358 H 0.08138 0.3919 0.79548 0.0
H359 H 0.05583 0.24542 0.77812 0.0
H360 H 0.24886 0.50759 0.93094 0.0
H361 H 0.95261 0.3216 0.84339 0.0
H362 H 0.99187 0.23795 0.90462 0.0
C363 C 0.74845 0.16468 0.12739 0.0
C364 C 0.7415 0.14329 0.0992 0.0
N365 N 0.73901 0.09793 0.10135 0.0
N366 N 0.75085 0.13385 0.1479 0.0
C367 C 0.74626 0.09398 0.13113 0.0
H368 H 0.74934 0.19979 0.13285 0.0
Co369 Co 0.74765 0.14863 0.18959 0.0
C370 C 0.63558 0.08012 0.20308 0.0
O371 O 0.64728 0.06995 0.22946 0.0
N372 N 0.74309 0.16609 0.23042 0.0
C373 C 0.71446 0.1928 0.26851 0.0
C374 C 0.70936 0.18005 0.23855 0.0
C375 C 0.77027 0.17355 0.25596 0.0
N376 N 0.75271 0.18868 0.27952 0.0
O377 O 0.82368 0.18851 0.1931 0.0
H378 H 0.68315 0.18212 0.22338 0.0
H379 H 0.80319 0.16978 0.25729 0.0
O380 O 0.67091 0.11105 0.1857 0.0
C381 C 0.86171 0.20302 0.17568 0.0
O382 O 0.85437 0.19202 0.14693 0.0
N383 N 0.74733 0.08818 0.20128 0.0
C384 C 0.74884 0.99882 0.21039 0.0
C385 C 0.70748 0.99814 0.19752 0.0
C386 C 0.70842 0.04292 0.19204 0.0
C387 C 0.78633 0.08886 0.21648 0.0
C388 C 0.78812 0.04438 0.22099 0.0
H389 H 0.67984 0.04047 0.17727 0.0
H390 H 0.81788 0.12366 0.22391 0.0
H391 H 0.74672 0.06181 0.14049 0.0
H392 H 0.73667 0.15964 0.07897 0.0
H393 H 0.69329 0.2065 0.28096 0.0
H394 H 0.67636 0.96337 0.189 0.0
H395 H 0.82079 0.04598 0.23107 0.0
H396 H 0.37474 0.26155 0.3708 0.0
H397 H 0.31402 0.31531 0.43929 0.0
H398 H 0.28598 0.35347 0.40164 0.0
H399 H 0.27707 0.37006 0.34886 0.0
H400 H 0.3387 0.31728 0.27956 0.0
H401 H 0.36932 0.28216 0.31746 0.0
C402 C 0.35597 0.28225 0.37733 0.0
C403 C 0.34699 0.28623 0.40797 0.0
C404 C 0.34031 0.30462 0.35525 0.0
C405 C 0.32224 0.31276 0.4161 0.0
C406 C 0.30591 0.33425 0.39444 0.0
C407 C 0.29692 0.35073 0.34185 0.0
C408 C 0.30492 0.34637 0.311 0.0
C409 C 0.31443 0.3302 0.36387 0.0
C410 C 0.3319 0.32184 0.30288 0.0
C411 C 0.3493 0.30127 0.32465 0.0
H412 H 0.89054 0.23511 0.68098 0.0
H413 H 1.00138 0.3574 0.62897 0.0
H414 H 0.05821 0.38652 0.67242 0.0
H415 H 0.07909 0.37202 0.72463 0.0
H416 H 0.96674 0.24834 0.77518 0.0
H417 H 0.90796 0.2253 0.73344 0.0
C418 C 0.92693 0.26852 0.67926 0.0
C419 C 0.94163 0.29382 0.65163 0.0
C420 C 0.9594 0.28465 0.70425 0.0
C421 C 0.98883 0.3374 0.64995 0.0
C422 C 0.02152 0.3538 0.67479 0.0
C423 C 0.04144 0.34066 0.72654 0.0
C424 C 0.0273 0.31165 0.75297 0.0
C425 C 1.00767 0.3271 0.70198 0.0
C426 C 0.9785 0.27088 0.75505 0.0
C427 C 0.94492 0.25768 0.73115 0.0
H428 H 0.67364 0.90919 1.01449 0.0
H429 H 0.6616 0.01081 0.95237 0.0
H430 H 0.68808 0.07487 0.99139 0.0
H431 H 0.71547 0.10349 0.04273 0.0
H432 H 0.72972 1.00357 0.10514 0.0
H433 H 0.70248 0.9387 0.06626 0.0
C434 C 0.67676 0.94518 1.00917 0.0
C435 C 0.66481 0.95391 0.97989 0.0
C436 C 0.69294 0.98297 0.03191 0.0
C437 C 0.66942 1.00155 0.97429 0.0
C438 C 0.68508 0.03886 0.99675 0.0
C439 C 0.71302 0.06789 0.04825 0.0
C440 C 0.72504 0.05961 0.07758 0.0
C441 C 0.69707 0.03014 1.02563 0.0
C442 C 0.72102 0.01222 0.08328 0.0
C443 C 0.70522 0.97459 0.06085 0.0
H444 H 0.70402 0.73197 0.3011 0.0
H445 H 0.79602 0.66745 0.3238 0.0
H446 H 0.7845 0.67775 0.37745 0.0
H447 H 0.75286 0.71084 0.41794 0.0
H448 H 0.65545 0.7692 0.39575 0.0
H449 H 0.66352 0.75512 0.34207 0.0
C450 C 0.72094 0.71964 0.31791 0.0
C451 C 0.75117 0.69924 0.30856 0.0
C452 C 0.71312 0.72471 0.34877 0.0
C453 C 0.77255 0.68299 0.33047 0.0
C454 C 0.76611 0.68914 0.36111 0.0
C455 C 0.73285 0.71971 0.4013 0.0
C456 C 0.70375 0.74128 0.41078 0.0
C457 C 0.73715 0.71071 0.37055 0.0
C458 C 0.67773 0.75232 0.38904 0.0
C459 C 0.68271 0.74458 0.35835 0.0
H460 H 0.10364 0.74623 0.66439 0.0
H461 H 0.99297 0.76968 0.61973 0.0
H462 H 0.94139 0.74413 0.66443 0.0
H463 H 0.93062 0.72287 0.7178 0.0
H464 H 0.03783 0.6963 0.7636 0.0
H465 H 0.0874 0.71461 0.71734 0.0
C466 C 0.068 0.74511 0.66445 0.0
C467 C 0.05304 0.76142 0.63889 0.0
C468 C 0.03792 0.73006 0.69061 0.0
C469 C 1.00633 0.75911 0.63929 0.0
C470 C 0.97653 0.74416 0.66485 0.0
C471 C 0.96444 0.7203 0.71742 0.0
C472 C 0.98065 0.70842 0.74399 0.0
C473 C 0.99248 0.73091 0.69087 0.0
C474 C 0.02442 0.70495 0.7433 0.0
C475 C 0.05291 0.71585 0.7169 0.0
H476 H 0.27493 0.9725 0.96865 0.0
H477 H 0.35404 0.12822 0.99713 0.0
H478 H 0.34143 0.10211 0.04992 0.0
H479 H 0.30182 0.03422 0.08819 0.0
H480 H 0.22783 0.87876 0.05937 0.0
H481 H 0.24428 0.90498 1.00672 0.0
C482 C 0.2898 1.00069 0.98644 0.0
C483 C 0.31503 0.05242 0.97889 0.0
C484 C 0.28305 0.98521 1.01674 0.0
C485 C 0.33467 0.08837 1.00225 0.0
C486 C 0.32717 0.07333 0.03245 0.0
C487 C 0.29031 1.00626 0.07031 0.0
C488 C 0.26386 0.95447 0.07765 0.0
C489 C 0.30067 0.02185 0.04002 0.0
C490 C 0.2488 0.91861 0.05431 0.0
C491 C 0.2579 0.93371 1.02421 0.0
H492 H 0.13845 0.40283 0.99422 0.0
H493 H 0.28518 0.45561 0.95794 0.0
H494 H 0.31951 0.4647 1.0084 0.0
H495 H 0.30939 0.46447 0.06315 0.0
H496 H 0.16333 0.40964 0.10061 0.0
H497 H 0.12706 0.39493 0.04991 0.0
C498 C 0.17766 0.41535 0.99752 0.0
C499 C 0.2094 0.42895 0.97242 0.0
C500 C 0.19739 0.42109 0.02689 0.0
C501 C 0.26025 0.44543 0.97695 0.0
C502 C 0.27991 0.4508 1.00579 0.0
C503 C 0.26963 0.44922 0.06008 0.0
C504 C 0.23912 0.43885 0.08543 0.0
C505 C 0.24916 0.4401 0.03095 0.0
C506 C 0.18748 0.41808 0.08134 0.0
C507 C 0.16683 0.40971 0.05236 0.0
H508 H 0.70933 0.14705 0.33192 0.0
H509 H 0.84169 0.26861 0.29357 0.0
H510 H 0.87121 0.30553 0.34376 0.0
H511 H 0.85676 0.30541 0.3986 0.0
H512 H 0.72772 0.18018 0.43747 0.0
H513 H 0.69938 0.14207 0.38743 0.0
C514 C 0.74509 0.18104 0.33479 0.0
C515 C 0.77362 0.20501 0.3092 0.0
C516 C 0.76196 0.20154 0.36381 0.0
C517 C 0.81966 0.24925 0.313 0.0
C518 C 0.83619 0.2705 0.34166 0.0
C519 C 0.82245 0.26979 0.396 0.0
C520 C 0.79378 0.24605 0.42163 0.0
C521 C 0.80727 0.24746 0.36721 0.0
C522 C 0.75007 0.19928 0.41809 0.0
C523 C 0.73395 0.17756 0.38947 0.0
H524 H 0.63078 0.8523 0.7443 0.0
H525 H 0.47822 0.73207 0.75029 0.0
H526 H 0.47996 0.70932 0.69804 0.0
H527 H 0.52326 0.72461 0.64985 0.0
H528 H 0.67592 0.84304 0.64279 0.0
H529 H 0.67601 0.86479 0.69601 0.0
C530 C 0.59809 0.82083 0.73427 0.0
C531 C 0.55414 0.79455 0.75142 0.0
C532 C 0.59933 0.80752 0.70385 0.0
C533 C 0.51218 0.75392 0.73775 0.0
C534 C 0.5132 0.74056 0.70778 0.0
C535 C 0.55658 0.75517 0.65996 0.0
C536 C 0.59944 0.78228 0.64224 0.0
C537 C 0.55626 0.76742 0.6905 0.0
C538 C 0.64257 0.82127 0.6559 0.0
C539 C 0.64248 0.8339 0.68632 0.0
H540 H 0.75736 0.5723 0.97084 0.0
H541 H 0.91601 0.64576 0.98476 0.0
H542 H 0.90373 0.64462 0.03937 0.0
H543 H 0.84635 0.61821 0.08354 0.0
H544 H 0.68784 0.54445 0.06768 0.0
H545 H 0.7014 0.55026 1.01373 0.0
C546 C 0.78926 0.58804 0.98584 0.0
C547 C 0.83748 0.6086 0.9738 0.0
C548 C 0.7818 0.58698 1.01698 0.0
C549 C 0.87854 0.62988 0.99349 0.0
C550 C 0.87144 0.62895 1.02471 0.0
C551 C 0.81498 0.60373 0.06818 0.0
C552 C 0.76605 0.57996 0.0797 0.0
C553 C 0.82309 0.60699 0.0368 0.0
C554 C 0.72573 0.56163 0.0595 0.0
C555 C 0.73345 0.56522 0.02859 0.0
H556 H 0.16329 0.79787 0.41281 0.0
H557 H 0.28407 0.76554 0.4219 0.0
H558 H 0.30391 0.78283 0.36925 0.0
H559 H 0.28614 0.80442 0.31986 0.0
H560 H 0.16834 0.84015 0.30958 0.0
H561 H 0.14913 0.82563 0.36324 0.0
C562 C 0.19427 0.79513 0.4034 0.0
C563 C 0.22124 0.77915 0.42157 0.0
C564 C 0.20625 0.80593 0.37271 0.0
C565 C 0.26141 0.77609 0.40866 0.0
C566 C 0.27322 0.78643 0.3784 0.0
C567 C 0.25623 0.80899 0.32936 0.0
C568 C 0.22849 0.82291 0.31067 0.0
C569 C 0.24553 0.80064 0.36012 0.0
C570 C 0.19046 0.8297 0.32348 0.0
C571 C 0.1793 0.82109 0.35415 0.0
H572 H 0.48312 0.22753 0.73289 0.0
H573 H 0.32995 0.16335 0.76213 0.0
H574 H 0.30491 0.17121 0.71242 0.0
H575 H 0.32495 0.19923 0.66101 0.0
H576 H 0.47631 0.26691 0.6299 0.0
H577 H 0.50323 0.25447 0.67961 0.0
C578 C 0.44429 0.21539 0.72859 0.0
C579 C 0.4089 0.19465 0.75206 0.0
C580 C 0.42952 0.2207 0.69937 0.0
C581 C 0.35864 0.17892 0.74528 0.0
C582 C 0.34391 0.18359 0.71654 0.0
C583 C 0.36391 0.21137 0.66508 0.0
C584 C 0.39862 0.23451 0.64192 0.0
C585 C 0.37891 0.20479 0.69357 0.0
C586 C 0.4488 0.24887 0.64733 0.0
C587 C 0.46416 0.24207 0.67584 0.0
H588 H 0.62126 0.55583 0.18243 0.0
H589 H 0.59432 0.48058 0.26737 0.0
H590 H 0.50588 0.45407 0.26366 0.0
H591 H 0.43381 0.44989 0.23558 0.0
H592 H 0.46198 0.52703 0.15124 0.0
H593 H 0.55099 0.55677 0.15626 0.0
C594 C 0.59656 0.53513 0.20065 0.0
C595 C 0.61578 0.52173 0.22556 0.0
C596 C 0.54506 0.52041 0.19867 0.0
C597 C 0.58159 0.49222 0.24797 0.0
C598 C 0.53056 0.47701 0.24596 0.0
C599 C 0.45956 0.47424 0.21869 0.0
C600 C 0.44061 0.48657 0.19317 0.0
C601 C 0.51152 0.49078 0.22141 0.0
C602 C 0.47501 0.51706 0.17122 0.0
C603 C 0.52621 0.53393 0.17395 0.0
H604 H 0.99201 0.47342 0.49669 0.0
H605 H 0.96217 0.419 0.58747 0.0
H606 H 0.02401 0.50266 0.60608 0.0
H607 H 0.09035 0.59082 0.59663 0.0
H608 H 0.11689 0.64678 0.50623 0.0
H609 H 0.05297 0.564 0.48768 0.0
C610 C 0.99853 0.4798 0.52063 0.0
C611 C 0.97204 0.43887 0.54054 0.0
C612 C 0.03411 0.52875 0.53131 0.0
C613 C 0.98128 0.44885 0.57146 0.0
C614 C 0.01709 0.49703 0.58215 0.0
C615 C 0.08206 0.58515 0.57282 0.0
C616 C 0.10944 0.62585 0.55297 0.0
C617 C 0.04432 0.53714 0.56229 0.0
C618 C 0.0974 0.6171 0.52223 0.0
C619 C 0.06048 0.56932 0.51157 0.0
H620 H 0.50218 0.08157 0.92558 0.0
H621 H 0.47861 0.11247 0.8348 0.0
H622 H 0.49456 0.04596 0.81629 0.0
H623 H 0.51939 0.98119 0.82546 0.0
H624 H 0.54303 0.94993 0.91631 0.0
H625 H 0.52279 0.01357 0.93498 0.0
C626 C 0.50013 0.07353 0.90171 0.0
C627 C 0.4883 0.10215 0.88175 0.0
C628 C 0.50962 0.0349 0.89115 0.0
C629 C 0.48661 0.09119 0.85089 0.0
C630 C 0.496 0.05297 0.84024 0.0
C631 C 0.51975 0.98778 0.84943 0.0
C632 C 0.53308 0.96021 0.86934 0.0
C633 C 0.50806 0.02484 0.8601 0.0
C634 C 0.53299 0.9699 0.90029 0.0
C635 C 0.52154 1.00667 0.91102 0.0
H636 H 0.41976 0.42722 0.50291 0.0
H637 H 0.53663 0.41377 0.54727 0.0
H638 H 0.58916 0.5059 0.54708 0.0
H639 H 0.59651 0.58969 0.54134 0.0
H640 H 0.48169 0.60445 0.49548 0.0
H641 H 0.43364 0.51203 0.48892 0.0
C642 C 0.45744 0.44382 0.51137 0.0
C643 C 0.47433 0.41246 0.52447 0.0
C644 C 0.48744 0.4973 0.51136 0.0
C645 C 0.52291 0.43609 0.53628 0.0
C646 C 0.55274 0.48906 0.53653 0.0
C647 C 0.56192 0.57318 0.52877 0.0
C648 C 0.54336 0.60482 0.51851 0.0
C649 C 0.53476 0.52005 0.52505 0.0
C650 C 0.49756 0.5818 0.50315 0.0
C651 C 0.46986 0.52869 0.4997 0.0
H652 H 0.01673 0.60309 0.877 0.0
H653 H 0.90176 0.49198 0.81978 0.0
H654 H 0.95454 0.45343 0.80987 0.0
H655 H 0.03008 0.44617 0.82279 0.0
H656 H 0.143 0.55955 0.88036 0.0
H657 H 0.09577 0.60409 0.88309 0.0
C658 C 1.00343 0.57133 0.86153 0.0
C659 C 0.95497 0.55091 0.84904 0.0
C660 C 0.03422 0.55 0.85574 0.0
C661 C 0.93875 0.5091 0.82952 0.0
C662 C 0.96907 0.48691 0.824 0.0
C663 C 0.04535 0.48133 0.83523 0.0
C664 C 0.091 0.49925 0.85135 0.0
C665 C 0.01658 0.5063 0.83762 0.0
C666 C 0.10907 0.54515 0.86721 0.0
C667 C 0.0814 0.57024 0.86928 0.0
H668 H 0.57048 0.98165 0.21576 0.0
H669 H 0.58092 0.10684 0.16588 0.0
H670 H 0.49159 0.05734 0.15363 0.0
H671 H 0.40859 0.98211 0.16266 0.0
H672 H 0.39946 0.85774 0.21286 0.0
H673 H 0.49009 0.90216 0.21818 0.0
C674 C 0.55341 0.9981 0.20195 0.0
C675 C 0.58257 0.04859 0.1923 0.0
C676 C 0.50208 0.96904 0.19467 0.0
C677 C 0.55968 0.06848 0.17386 0.0
C678 C 0.50842 0.04002 0.16687 0.0
C679 C 0.4262 0.96359 0.17374 0.0
C680 C 0.39629 0.91561 0.18693 0.0
C681 C 0.47885 0.99058 0.17775 0.0
C682 C 0.42096 0.89358 0.2017 0.0
C683 C 0.47299 0.91962 0.20533 0.0
H684 H 0.07231 0.29696 0.24371 0.0
H685 H 0.12642 0.33884 0.1535 0.0
H686 H 0.04058 0.30084 0.13491 0.0
H687 H 0.94936 0.25261 0.14382 0.0
H688 H 0.89483 0.21599 0.23444 0.0
H689 H 0.98075 0.25539 0.25316 0.0
C690 C 0.06537 0.29839 0.22 0.0
C691 C 0.10646 0.32114 0.2001 0.0
C692 C 0.0154 0.27714 0.20947 0.0
C693 C 0.09622 0.32245 0.16948 0.0
C694 C 0.04681 0.30027 0.15878 0.0
C695 C 0.95602 0.25333 0.16774 0.0
C696 C 0.91475 0.23045 0.18755 0.0
C697 C 1.00598 0.27704 0.17849 0.0
C698 C 0.92508 0.23271 0.21848 0.0
C699 C 0.97453 0.25531 0.22924 0.0
H700 H 0.66632 0.93052 0.55982 0.0
H701 H 0.69299 0.90239 0.46868 0.0
H702 H 0.73956 0.9936 0.45965 0.0
H703 H 0.78429 0.08161 0.48035 0.0
H704 H 0.7537 0.10967 0.5707 0.0
H705 H 0.69716 0.01896 0.57734 0.0
C706 C 0.68038 0.94426 0.53755 0.0
C707 C 0.67515 0.90904 0.51479 0.0
C708 C 0.70763 0.99714 0.53264 0.0
C709 C 0.69497 0.92799 0.48636 0.0
C710 C 0.72252 0.98045 0.48139 0.0
C711 C 0.76411 0.06802 0.50122 0.0
C712 C 0.77354 0.10289 0.52504 0.0
C713 C 0.73082 0.01546 0.50471 0.0
C714 C 0.74706 0.08426 0.55191 0.0
C715 C 0.7149 0.03211 0.55576 0.0
H716 H 0.6531 0.72277 0.8814 0.0
H717 H 0.75449 0.85533 0.83223 0.0
H718 H 0.80289 0.81529 0.81737 0.0
H719 H 0.82421 0.74835 0.82415 0.0
H720 H 0.72755 0.6167 0.87502 0.0
H721 H 0.66951 0.64933 0.88268 0.0
C722 C 0.68489 0.74218 0.86669 0.0
C723 C 0.69959 0.7922 0.8577 0.0
C724 C 0.71382 0.71892 0.85857 0.0
C725 C 0.7418 0.81694 0.83927 0.0
C726 C 0.76981 0.79404 0.83083 0.0
C727 C 0.78928 0.72561 0.83576 0.0
C728 C 0.77983 0.67916 0.84814 0.0
C729 C 0.75716 0.74572 0.84103 0.0
C730 C 0.7352 0.65147 0.86421 0.0
C731 C 0.7024 0.67081 0.86911 0.0
H732 H 0.92593 0.66527 0.15423 0.0
H733 H 0.9052 0.66668 0.24974 0.0
H734 H 0.99569 0.70713 0.25736 0.0
H735 H 0.08091 0.75429 0.23617 0.0
H736 H 0.10209 0.7524 0.14072 0.0
H737 H 0.01165 0.6989 0.13374 0.0
C738 C 0.94111 0.67262 0.17682 0.0
C739 C 0.90838 0.66218 0.20146 0.0
C740 C 0.99351 0.69637 0.18093 0.0
C741 C 0.92895 0.67297 0.23048 0.0
C742 C 0.98095 0.69685 0.23475 0.0
C743 C 0.06593 0.74066 0.21388 0.0
C744 C 0.09873 0.75731 0.18897 0.0
C745 C 0.01367 0.71037 0.21009 0.0
C746 C 0.07833 0.73968 0.1603 0.0
C747 C 0.02634 0.7096 0.15632 0.0
H748 H 0.27531 0.94293 0.57493 0.0
H749 H 0.27525 0.91384 0.48017 0.0
H750 H 0.32965 1.00363 0.4712 0.0
H751 H 0.36325 0.09197 0.48885 0.0
H752 H 0.365 0.12247 0.58334 0.0
H753 H 0.32592 0.03219 0.59381 0.0
C754 C 0.28918 0.95591 0.55254 0.0
C755 C 0.27132 0.92079 0.52831 0.0
C756 C 0.32062 1.0087 0.54734 0.0
C757 C 0.2887 0.93933 0.49935 0.0
C758 C 0.31959 0.9911 0.49411 0.0
C759 C 0.358 0.07923 0.51188 0.0
C760 C 0.36883 0.11497 0.53527 0.0
C761 C 0.33414 0.02651 0.51771 0.0
C762 C 0.35905 0.09667 0.56486 0.0
C763 C 0.33549 0.04452 0.57084 0.0
H764 H 0.26586 0.35163 0.90007 0.0
H765 H 0.23717 0.34325 0.80508 0.0
H766 H 0.28219 0.29633 0.79774 0.0
H767 H 0.31813 0.24613 0.81946 0.0
H768 H 0.34904 0.25642 0.91428 0.0
H769 H 0.3155 0.31426 0.92054 0.0
C770 C 0.27124 0.3414 0.87755 0.0
C771 C 0.24851 0.35202 0.85305 0.0
C772 C 0.2968 0.31363 0.87361 0.0
C773 C 0.25509 0.33718 0.82422 0.0
C774 C 0.28021 0.3094 0.82014 0.0
C775 C 0.31879 0.26207 0.84144 0.0
C776 C 0.33625 0.24649 0.86643 0.0
C777 C 0.29954 0.29571 0.84479 0.0
C778 C 0.33657 0.26775 0.89463 0.0
C779 C 0.31686 0.30061 0.89821 0.0
H780 H 0.21143 0.18409 0.15655 0.0
H781 H 0.36559 0.27658 0.13175 0.0
H782 H 0.38129 0.20727 0.14265 0.0
H783 H 0.35527 0.12981 0.17117 0.0
H784 H 0.19949 0.03638 0.19352 0.0
H785 H 0.18101 0.09838 0.17283 0.0
C786 C 0.2479 0.18843 0.15202 0.0
C787 C 0.2879 0.23579 0.14485 0.0
C788 C 0.25706 0.14957 0.15966 0.0
C789 C 0.3346 0.24049 0.13827 0.0
C790 C 0.34381 0.20132 0.14503 0.0
C791 C 0.31714 0.12251 0.17112 0.0
C792 C 0.2795 0.07977 0.18543 0.0
C793 C 0.30609 0.15725 0.15798 0.0
C794 C 0.23005 0.07058 0.18455 0.0
C795 C 0.21901 0.10535 0.17199 0.0
H796 H 0.22532 0.35742 0.49374 0.0
H797 H 0.1626 0.19959 0.47027 0.0
H798 H 0.0833 0.19434 0.45833 0.0
H799 H 0.02847 0.23003 0.4659 0.0
H800 H 0.0913 0.38751 0.48926 0.0
H801 H 0.17514 0.39837 0.48792 0.0
C802 C 0.195 0.3223 0.48501 0.0
C803 C 0.19901 0.27843 0.48432 0.0
C804 C 0.14971 0.31958 0.47794 0.0
C805 C 0.15948 0.23335 0.47255 0.0
C806 C 0.11432 0.23038 0.46534 0.0
C807 C 0.06072 0.26718 0.46926 0.0
C808 C 0.05429 0.30757 0.47858 0.0
C809 C 0.1083 0.27256 0.46964 0.0
C810 C 0.09596 0.35574 0.48268 0.0
C811 C 0.14367 0.36181 0.48222 0.0
H812 H 0.75776 0.10251 0.82883 0.0
H813 H 0.83563 0.01764 0.83395 0.0
H814 H 0.91318 0.09504 0.84489 0.0
H815 H 0.95517 0.18343 0.86105 0.0
H816 H 0.87285 0.26394 0.86587 0.0
H817 H 0.79941 0.19047 0.84496 0.0
C818 C 0.79172 0.10088 0.83235 0.0
C819 C 0.79048 0.05414 0.83164 0.0
C820 C 0.83465 0.1442 0.84185 0.0
C821 C 0.83526 0.05298 0.83452 0.0
C822 C 0.87944 0.09707 0.84147 0.0
C823 C 0.92081 0.18455 0.85826 0.0
C824 C 0.91892 0.22851 0.86566 0.0
C825 C 0.87875 0.14212 0.84688 0.0
C826 C 0.87483 0.23016 0.86067 0.0
C827 C 0.83314 0.18848 0.84848 0.0
H828 H 0.73892 0.9471 0.16025 0.0
H829 H 0.76457 0.94723 0.25529 0.0
H830 H 0.74678 0.85922 0.25157 0.0
H831 H 0.71601 0.78107 0.22176 0.0
H832 H 0.68133 0.77999 0.12782 0.0
H833 H 0.7082 0.87003 0.13083 0.0
C834 C 0.74098 0.92781 0.1801 0.0
C835 C 0.75195 0.95252 0.20808 0.0
C836 C 0.72708 0.87704 0.17813 0.0
C837 C 0.75598 0.92837 0.23361 0.0
C838 C 0.74496 0.87809 0.23152 0.0
C839 C 0.71285 0.80021 0.20219 0.0
C840 C 0.69546 0.77397 0.17475 0.0
C841 C 0.72846 0.85164 0.20411 0.0
C842 C 0.69361 0.7995 0.14923 0.0
C843 C 0.70958 0.85085 0.15086 0.0
H844 H 0.77798 0.66105 0.50281 0.0
H845 H 0.79435 0.68159 0.599 0.0
H846 H 0.86899 0.67292 0.59701 0.0
H847 H 0.93379 0.67041 0.56728 0.0
H848 H 0.91737 0.64961 0.47109 0.0
H849 H 0.83673 0.64649 0.4739 0.0
C850 C 0.79662 0.66178 0.52356 0.0
C851 C 0.78063 0.67186 0.55109 0.0
C852 C 0.83931 0.65708 0.52219 0.0
C853 C 0.80628 0.67428 0.57756 0.0
C854 C 0.84876 0.66924 0.57642 0.0
C855 C 0.91188 0.66315 0.54697 0.0
C856 C 0.93149 0.6601 0.51896 0.0
C857 C 0.86625 0.66207 0.54874 0.0
C858 C 0.90313 0.65236 0.49285 0.0
C859 C 0.85719 0.65065 0.49446 0.0
H860 H 0.24948 0.95775 0.84138 0.0
H861 H 0.32508 0.87357 0.8586 0.0
H862 H 0.24495 0.79917 0.87173 0.0
H863 H 0.15387 0.7607 0.88025 0.0
H864 H 0.08285 0.85048 0.86562 0.0
H865 H 0.16172 0.92138 0.85041 0.0
C866 C 0.24826 0.92258 0.84711 0.0
C867 C 0.29233 0.92003 0.84805 0.0
C868 C 0.20343 0.88199 0.8561 0.0
C869 C 0.29098 0.87537 0.85692 0.0
C870 C 0.24552 0.83344 0.86481 0.0
C871 C 0.15612 0.79613 0.8741 0.0
C872 C 0.11304 0.80084 0.87457 0.0
C873 C 0.20166 0.83677 0.86501 0.0
C874 C 0.11586 0.84653 0.86633 0.0
C875 C 0.16067 0.88675 0.8571 0.0
loop_
_geom_bond_atom_site_label_1
_geom_bond_atom_site_label_2
_geom_bond_distance
_geom_bond_site_symmetry_2
_ccdc_geom_bond_type
C0 C1 1.351 . S
C0 N3 1.368 . S
C0 H5 0.931 . S
C1 C0 1.351 . S
C1 N2 1.373 . S
C1 H29 0.930 . S
N2 C1 1.373 . S
N2 C4 1.340 . S
N3 C0 1.368 . S
N3 C4 1.321 . S
N3 Co6 2.135 . S
C4 N2 1.340 . S
C4 N3 1.321 . S
C4 H28 0.930 . S
H5 C0 0.931 . S
Co6 N3 2.135 . S
Co6 N9 2.121 . S
Co6 O14 2.055 . S
Co6 O17 2.039 . S
Co6 N20 2.140 . S
C7 O8 1.227 . S
C7 O17 1.265 . S
O8 C7 1.227 . S
N9 Co6 2.121 . S
N9 C11 1.375 . S
N9 C12 1.313 . S
C10 C11 1.338 . S
C10 N13 1.377 . S
C10 H30 0.930 . S
C11 N9 1.375 . S
C11 C10 1.338 . S
C11 H15 0.931 . S
C12 N9 1.313 . S
C12 N13 1.344 . S
C12 H16 0.930 . S
N13 C10 1.377 . S
N13 C12 1.344 . S
O14 Co6 2.055 . S
O14 C18 1.253 . S
H15 C11 0.931 . S
H16 C12 0.930 . S
O17 Co6 2.039 . S
O17 C7 1.265 . S
C18 O14 1.253 . S
C18 O19 1.227 . S
O19 C18 1.227 . S
N20 Co6 2.140 . S
N20 C23 1.346 . S
N20 C24 1.345 . S
C21 C22 1.387 . S
C21 C25 1.391 . S
C22 C21 1.387 . S
C22 C23 1.369 . S
C22 H31 0.929 . S
C23 N20 1.346 . S
C23 C22 1.369 . S
C23 H26 0.928 . S
C24 N20 1.345 . S
C24 C25 1.371 . S
C24 H27 0.931 . S
C25 C21 1.391 . S
C25 C24 1.371 . S
C25 H32 0.930 . S
H26 C23 0.928 . S
H27 C24 0.931 . S
H28 C4 0.930 . S
H29 C1 0.930 . S
H30 C10 0.930 . S
H31 C22 0.929 . S
H32 C25 0.930 . S
C33 C34 1.351 . S
C33 N36 1.368 . S
C33 H38 0.931 . S
C34 C33 1.351 . S
C34 N35 1.373 . S
C34 H62 0.930 . S
N35 C34 1.373 . S
N35 C37 1.340 . S
N36 C33 1.368 . S
N36 C37 1.321 . S
N36 Co39 2.135 . S
C37 N35 1.340 . S
C37 N36 1.321 . S
C37 H61 0.930 . S
H38 C33 0.931 . S
Co39 N36 2.135 . S
Co39 N42 2.121 . S
Co39 O47 2.055 . S
Co39 O50 2.039 . S
Co39 N53 2.140 . S
C40 O41 1.227 . S
C40 O50 1.265 . S
O41 C40 1.227 . S
N42 Co39 2.121 . S
N42 C44 1.375 . S
N42 C45 1.313 . S
C43 C44 1.338 . S
C43 N46 1.377 . S
C43 H63 0.930 . S
C44 N42 1.375 . S
C44 C43 1.338 . S
C44 H48 0.931 . S
C45 N42 1.313 . S
C45 N46 1.344 . S
C45 H49 0.930 . S
N46 C43 1.377 . S
N46 C45 1.344 . S
O47 Co39 2.055 . S
O47 C51 1.253 . S
H48 C44 0.931 . S
H49 C45 0.930 . S
O50 Co39 2.039 . S
O50 C40 1.265 . S
C51 O47 1.253 . S
C51 O52 1.227 . S
O52 C51 1.227 . S
N53 Co39 2.140 . S
N53 C56 1.346 . S
N53 C57 1.345 . S
C54 C55 1.387 . S
C54 C58 1.391 . S
C55 C54 1.387 . S
C55 C56 1.369 1_455 S
C55 H64 0.929 . S
C56 N53 1.346 . S
C56 C55 1.369 1_655 S
C56 H59 0.928 . S
C57 N53 1.345 . S
C57 C58 1.371 1_655 S
C57 H60 0.931 . S
C58 C54 1.391 . S
C58 C57 1.371 1_455 S
C58 H65 0.930 . S
H59 C56 0.928 . S
H60 C57 0.931 . S
H61 C37 0.930 . S
H62 C34 0.930 . S
H63 C43 0.930 . S
H64 C55 0.929 . S
H65 C58 0.930 . S
C66 C67 1.351 . S
C66 N69 1.368 . S
C66 H71 0.931 . S
C67 C66 1.351 . S
C67 N68 1.373 . S
C67 H95 0.930 . S
N68 C67 1.373 . S
N68 C70 1.340 . S
N69 C66 1.368 . S
N69 C70 1.321 . S
N69 Co72 2.135 . S
C70 N68 1.340 . S
C70 N69 1.321 . S
C70 H94 0.930 . S
H71 C66 0.931 . S
Co72 N69 2.135 . S
Co72 N75 2.121 . S
Co72 O80 2.055 . S
Co72 O83 2.039 . S
Co72 N86 2.140 . S
C73 O74 1.227 . S
C73 O83 1.265 . S
O74 C73 1.227 . S
N75 Co72 2.121 . S
N75 C77 1.375 . S
N75 C78 1.313 . S
C76 C77 1.338 . S
C76 N79 1.377 . S
C76 H96 0.930 . S
C77 N75 1.375 . S
C77 C76 1.338 . S
C77 H81 0.931 . S
C78 N75 1.313 . S
C78 N79 1.344 . S
C78 H82 0.930 . S
N79 C76 1.377 . S
N79 C78 1.344 . S
O80 Co72 2.055 . S
O80 C84 1.253 . S
H81 C77 0.931 . S
H82 C78 0.930 . S
O83 Co72 2.039 . S
O83 C73 1.265 . S
C84 O80 1.253 . S
C84 O85 1.227 . S
O85 C84 1.227 . S
N86 Co72 2.140 . S
N86 C89 1.346 . S
N86 C90 1.345 . S
C87 C88 1.387 . S
C87 C91 1.391 . S
C88 C87 1.387 . S
C88 C89 1.369 1_545 S
C88 H97 0.929 . S
C89 N86 1.346 . S
C89 C88 1.369 1_565 S
C89 H92 0.928 . S
C90 N86 1.345 . S
C90 C91 1.371 1_565 S
C90 H93 0.931 . S
C91 C87 1.391 . S
C91 C90 1.371 1_545 S
C91 H98 0.930 . S
H92 C89 0.928 . S
H93 C90 0.931 . S
H94 C70 0.930 . S
H95 C67 0.930 . S
H96 C76 0.930 . S
H97 C88 0.929 . S
H98 C91 0.930 . S
C99 C100 1.351 . S
C99 N102 1.368 . S
C99 H104 0.931 . S
C100 C99 1.351 . S
C100 N101 1.373 . S
C100 H128 0.930 . S
N101 C100 1.373 . S
N101 C103 1.340 . S
N102 C99 1.368 . S
N102 C103 1.321 . S
N102 Co105 2.135 . S
C103 N101 1.340 . S
C103 N102 1.321 . S
C103 H127 0.930 . S
H104 C99 0.931 . S
Co105 N102 2.135 . S
Co105 N108 2.121 . S
Co105 O113 2.055 . S
Co105 O116 2.039 . S
Co105 N119 2.140 . S
C106 O107 1.227 . S
C106 O116 1.265 . S
O107 C106 1.227 . S
N108 Co105 2.121 . S
N108 C110 1.375 . S
N108 C111 1.313 . S
C109 C110 1.338 . S
C109 N112 1.377 . S
C109 H129 0.930 . S
C110 N108 1.375 . S
C110 C109 1.338 . S
C110 H114 0.931 . S
C111 N108 1.313 . S
C111 N112 1.344 . S
C111 H115 0.930 . S
N112 C109 1.377 . S
N112 C111 1.344 . S
O113 Co105 2.055 . S
O113 C117 1.253 . S
H114 C110 0.931 . S
H115 C111 0.930 . S
O116 Co105 2.039 . S
O116 C106 1.265 . S
C117 O113 1.253 . S
C117 O118 1.227 . S
O118 C117 1.227 . S
N119 Co105 2.140 . S
N119 C122 1.346 . S
N119 C123 1.345 . S
C120 C121 1.387 . S
C120 C124 1.391 . S
C121 C120 1.387 . S
C121 C122 1.369 . S
C121 H130 0.929 . S
C122 N119 1.346 . S
C122 C121 1.369 . S
C122 H125 0.928 . S
C123 N119 1.345 . S
C123 C124 1.371 . S
C123 H126 0.931 . S
C124 C120 1.391 . S
C124 C123 1.371 . S
C124 H131 0.930 . S
H125 C122 0.928 . S
H126 C123 0.931 . S
H127 C103 0.930 . S
H128 C100 0.930 . S
H129 C109 0.930 . S
H130 C121 0.929 . S
H131 C124 0.930 . S
C132 C133 1.351 . S
C132 N135 1.368 . S
C132 H137 0.931 . S
C133 C132 1.351 . S
C133 N134 1.373 . S
C133 H161 0.930 . S
N134 C133 1.373 . S
N134 C136 1.340 . S
N135 C132 1.368 . S
N135 C136 1.321 . S
N135 Co138 2.135 . S
C136 N134 1.340 . S
C136 N135 1.321 . S
C136 H160 0.930 . S
H137 C132 0.931 . S
Co138 N135 2.135 . S
Co138 N141 2.121 . S
Co138 O146 2.055 . S
Co138 O149 2.039 . S
Co138 N152 2.140 . S
C139 O140 1.227 . S
C139 O149 1.265 . S
O140 C139 1.227 . S
N141 Co138 2.121 . S
N141 C143 1.375 . S
N141 C144 1.313 . S
C142 C143 1.338 . S
C142 N145 1.377 . S
C142 H162 0.930 . S
C143 N141 1.375 . S
C143 C142 1.338 . S
C143 H147 0.931 . S
C144 N141 1.313 . S
C144 N145 1.344 . S
C144 H148 0.930 . S
N145 C142 1.377 . S
N145 C144 1.344 . S
O146 Co138 2.055 . S
O146 C150 1.253 . S
H147 C143 0.931 . S
H148 C144 0.930 . S
O149 Co138 2.039 . S
O149 C139 1.265 . S
C150 O146 1.253 . S
C150 O151 1.227 . S
O151 C150 1.227 . S
N152 Co138 2.140 . S
N152 C155 1.346 . S
N152 C156 1.345 . S
C153 C154 1.387 . S
C153 C157 1.391 . S
C154 C153 1.387 . S
C154 C155 1.369 1_655 S
C154 H163 0.929 . S
C155 N152 1.346 . S
C155 C154 1.369 1_455 S
C155 H158 0.928 . S
C156 N152 1.345 . S
C156 C157 1.371 1_455 S
C156 H159 0.931 . S
C157 C153 1.391 . S
C157 C156 1.371 1_655 S
C157 H164 0.930 . S
H158 C155 0.928 . S
H159 C156 0.931 . S
H160 C136 0.930 . S
H161 C133 0.930 . S
H162 C142 0.930 . S
H163 C154 0.929 . S
H164 C157 0.930 . S
C165 C166 1.351 . S
C165 N168 1.368 . S
C165 H170 0.931 . S
C166 C165 1.351 . S
C166 N167 1.373 . S
C166 H194 0.930 . S
N167 C166 1.373 . S
N167 C169 1.340 . S
N168 C165 1.368 . S
N168 C169 1.321 . S
N168 Co171 2.135 . S
C169 N167 1.340 . S
C169 N168 1.321 . S
C169 H193 0.930 . S
H170 C165 0.931 . S
Co171 N168 2.135 . S
Co171 N174 2.121 . S
Co171 O179 2.055 . S
Co171 O182 2.039 . S
Co171 N185 2.140 . S
C172 O173 1.227 . S
C172 O182 1.265 . S
O173 C172 1.227 . S
N174 Co171 2.121 . S
N174 C176 1.375 . S
N174 C177 1.313 . S
C175 C176 1.338 . S
C175 N178 1.377 . S
C175 H195 0.930 . S
C176 N174 1.375 . S
C176 C175 1.338 . S
C176 H180 0.931 . S
C177 N174 1.313 . S
C177 N178 1.344 . S
C177 H181 0.930 . S
N178 C175 1.377 . S
N178 C177 1.344 . S
O179 Co171 2.055 . S
O179 C183 1.253 . S
H180 C176 0.931 . S
H181 C177 0.930 . S
O182 Co171 2.039 . S
O182 C172 1.265 . S
C183 O179 1.253 . S
C183 O184 1.227 . S
O184 C183 1.227 . S
N185 Co171 2.140 . S
N185 C188 1.346 . S
N185 C189 1.345 . S
C186 C187 1.387 . S
C186 C190 1.391 . S
C187 C186 1.387 . S
C187 C188 1.369 1_565 S
C187 H196 0.929 . S
C188 N185 1.346 . S
C188 C187 1.369 1_545 S
C188 H191 0.928 . S
C189 N185 1.345 . S
C189 C190 1.371 1_545 S
C189 H192 0.931 . S
C190 C186 1.391 . S
C190 C189 1.371 1_565 S
C190 H197 0.930 . S
H191 C188 0.928 . S
H192 C189 0.931 . S
H193 C169 0.930 . S
H194 C166 0.930 . S
H195 C175 0.930 . S
H196 C187 0.929 . S
H197 C190 0.930 . S
C198 C199 1.351 . S
C198 N201 1.368 . S
C198 H203 0.931 . S
C199 C198 1.351 . S
C199 N200 1.373 . S
C199 H227 0.930 . S
N200 C199 1.373 . S
N200 C202 1.340 . S
N201 C198 1.368 . S
N201 C202 1.321 . S
N201 Co204 2.135 . S
C202 N200 1.340 . S
C202 N201 1.321 . S
C202 H226 0.930 . S
H203 C198 0.931 . S
Co204 N201 2.135 . S
Co204 N207 2.121 . S
Co204 O212 2.055 . S
Co204 O215 2.039 . S
Co204 N218 2.140 . S
C205 O206 1.227 . S
C205 O215 1.265 . S
O206 C205 1.227 . S
N207 Co204 2.121 . S
N207 C209 1.375 . S
N207 C210 1.313 . S
C208 C209 1.338 . S
C208 N211 1.377 . S
C208 H228 0.930 . S
C209 N207 1.375 . S
C209 C208 1.338 . S
C209 H213 0.931 . S
C210 N207 1.313 . S
C210 N211 1.344 . S
C210 H214 0.930 . S
N211 C208 1.377 . S
N211 C210 1.344 . S
O212 Co204 2.055 . S
O212 C216 1.253 . S
H213 C209 0.931 . S
H214 C210 0.930 . S
O215 Co204 2.039 . S
O215 C205 1.265 . S
C216 O212 1.253 . S
C216 O217 1.227 . S
O217 C216 1.227 . S
N218 Co204 2.140 . S
N218 C221 1.346 . S
N218 C222 1.345 . S
C219 C220 1.387 . S
C219 C223 1.391 . S
C220 C219 1.387 . S
C220 C221 1.369 . S
C220 H229 0.929 . S
C221 N218 1.346 . S
C221 C220 1.369 . S
C221 H224 0.928 . S
C222 N218 1.345 . S
C222 C223 1.371 . S
C222 H225 0.931 . S
C223 C219 1.391 . S
C223 C222 1.371 . S
C223 H230 0.930 . S
H224 C221 0.928 . S
H225 C222 0.931 . S
H226 C202 0.930 . S
H227 C199 0.930 . S
H228 C208 0.930 . S
H229 C220 0.929 . S
H230 C223 0.930 . S
C231 C232 1.351 . S
C231 N234 1.368 . S
C231 H236 0.931 . S
C232 C231 1.351 . S
C232 N233 1.373 . S
C232 H260 0.930 . S
N233 C232 1.373 . S
N233 C235 1.340 . S
N234 C231 1.368 . S
N234 C235 1.321 . S
N234 Co237 2.135 . S
C235 N233 1.340 . S
C235 N234 1.321 . S
C235 H259 0.930 . S
H236 C231 0.931 . S
Co237 N234 2.135 . S
Co237 N240 2.121 . S
Co237 O245 2.055 . S
Co237 O248 2.039 . S
Co237 N251 2.140 . S
C238 O239 1.227 . S
C238 O248 1.265 . S
O239 C238 1.227 . S
N240 Co237 2.121 . S
N240 C242 1.375 . S
N240 C243 1.313 . S
C241 C242 1.338 . S
C241 N244 1.377 . S
C241 H261 0.930 . S
C242 N240 1.375 . S
C242 C241 1.338 . S
C242 H246 0.931 . S
C243 N240 1.313 . S
C243 N244 1.344 . S
C243 H247 0.930 . S
N244 C241 1.377 . S
N244 C243 1.344 . S
O245 Co237 2.055 . S
O245 C249 1.253 . S
H246 C242 0.931 . S
H247 C243 0.930 . S
O248 Co237 2.039 . S
O248 C238 1.265 . S
C249 O245 1.253 . S
C249 O250 1.227 . S
O250 C249 1.227 . S
N251 Co237 2.140 . S
N251 C254 1.346 . S
N251 C255 1.345 . S
C252 C253 1.387 . S
C252 C256 1.391 . S
C253 C252 1.387 . S
C253 C254 1.369 1_455 S
C253 H262 0.929 . S
C254 N251 1.346 . S
C254 C253 1.369 1_655 S
C254 H257 0.928 . S
C255 N251 1.345 . S
C255 C256 1.371 1_655 S
C255 H258 0.931 . S
C256 C252 1.391 . S
C256 C255 1.371 1_455 S
C256 H263 0.930 . S
H257 C254 0.928 . S
H258 C255 0.931 . S
H259 C235 0.930 . S
H260 C232 0.930 . S
H261 C241 0.930 . S
H262 C253 0.929 . S
H263 C256 0.930 . S
C264 C265 1.351 . S
C264 N267 1.368 . S
C264 H269 0.931 . S
C265 C264 1.351 . S
C265 N266 1.373 . S
C265 H293 0.930 . S
N266 C265 1.373 . S
N266 C268 1.340 . S
N267 C264 1.368 . S
N267 C268 1.321 . S
N267 Co270 2.135 . S
C268 N266 1.340 . S
C268 N267 1.321 . S
C268 H292 0.930 . S
H269 C264 0.931 . S
Co270 N267 2.135 . S
Co270 N273 2.121 . S
Co270 O278 2.055 . S
Co270 O281 2.039 . S
Co270 N284 2.140 . S
C271 O272 1.227 . S
C271 O281 1.265 . S
O272 C271 1.227 . S
N273 Co270 2.121 . S
N273 C275 1.375 . S
N273 C276 1.313 . S
C274 C275 1.338 . S
C274 N277 1.377 . S
C274 H294 0.930 . S
C275 N273 1.375 . S
C275 C274 1.338 . S
C275 H279 0.931 . S
C276 N273 1.313 . S
C276 N277 1.344 . S
C276 H280 0.930 . S
N277 C274 1.377 . S
N277 C276 1.344 . S
O278 Co270 2.055 . S
O278 C282 1.253 . S
H279 C275 0.931 . S
H280 C276 0.930 . S
O281 Co270 2.039 . S
O281 C271 1.265 . S
C282 O278 1.253 . S
C282 O283 1.227 . S
O283 C282 1.227 . S
N284 Co270 2.140 . S
N284 C287 1.346 . S
N284 C288 1.345 . S
C285 C286 1.387 . S
C285 C289 1.391 . S
C286 C285 1.387 . S
C286 C287 1.369 1_545 S
C286 H295 0.929 . S
C287 N284 1.346 . S
C287 C286 1.369 1_565 S
C287 H290 0.928 . S
C288 N284 1.345 . S
C288 C289 1.371 1_565 S
C288 H291 0.931 . S
C289 C285 1.391 . S
C289 C288 1.371 1_545 S
C289 H296 0.930 . S
H290 C287 0.928 . S
H291 C288 0.931 . S
H292 C268 0.930 . S
H293 C265 0.930 . S
H294 C274 0.930 . S
H295 C286 0.929 . S
H296 C289 0.930 . S
C297 C298 1.351 . S
C297 N300 1.368 . S
C297 H302 0.931 . S
C298 C297 1.351 . S
C298 N299 1.373 . S
C298 H326 0.930 . S
N299 C298 1.373 . S
N299 C301 1.340 . S
N300 C297 1.368 . S
N300 C301 1.321 . S
N300 Co303 2.135 . S
C301 N299 1.340 . S
C301 N300 1.321 . S
C301 H325 0.930 . S
H302 C297 0.931 . S
Co303 N300 2.135 . S
Co303 N306 2.121 . S
Co303 O311 2.055 . S
Co303 O314 2.039 . S
Co303 N317 2.140 . S
C304 O305 1.227 . S
C304 O314 1.265 . S
O305 C304 1.227 . S
N306 Co303 2.121 . S
N306 C308 1.375 . S
N306 C309 1.313 . S
C307 C308 1.338 . S
C307 N310 1.377 . S
C307 H327 0.930 . S
C308 N306 1.375 . S
C308 C307 1.338 . S
C308 H312 0.931 . S
C309 N306 1.313 . S
C309 N310 1.344 . S
C309 H313 0.930 . S
N310 C307 1.377 . S
N310 C309 1.344 . S
O311 Co303 2.055 . S
O311 C315 1.253 . S
H312 C308 0.931 . S
H313 C309 0.930 . S
O314 Co303 2.039 . S
O314 C304 1.265 . S
C315 O311 1.253 . S
C315 O316 1.227 . S
O316 C315 1.227 . S
N317 Co303 2.140 . S
N317 C320 1.346 . S
N317 C321 1.345 . S
C318 C319 1.387 . S
C318 C322 1.391 . S
C319 C318 1.387 . S
C319 C320 1.369 . S
C319 H328 0.929 . S
C320 N317 1.346 . S
C320 C319 1.369 . S
C320 H323 0.928 . S
C321 N317 1.345 . S
C321 C322 1.371 . S
C321 H324 0.931 . S
C322 C318 1.391 . S
C322 C321 1.371 . S
C322 H329 0.930 . S
H323 C320 0.928 . S
H324 C321 0.931 . S
H325 C301 0.930 . S
H326 C298 0.930 . S
H327 C307 0.930 . S
H328 C319 0.929 . S
H329 C322 0.930 . S
C330 C331 1.351 . S
C330 N333 1.368 . S
C330 H335 0.931 . S
C331 C330 1.351 . S
C331 N332 1.373 . S
C331 H359 0.930 . S
N332 C331 1.373 . S
N332 C334 1.340 . S
N333 C330 1.368 . S
N333 C334 1.321 . S
N333 Co336 2.135 . S
C334 N332 1.340 . S
C334 N333 1.321 . S
C334 H358 0.930 . S
H335 C330 0.931 . S
Co336 N333 2.135 . S
Co336 N339 2.121 . S
Co336 O344 2.055 . S
Co336 O347 2.039 . S
Co336 N350 2.140 . S
C337 O338 1.227 . S
C337 O347 1.265 . S
O338 C337 1.227 . S
N339 Co336 2.121 . S
N339 C341 1.375 . S
N339 C342 1.313 . S
C340 C341 1.338 . S
C340 N343 1.377 . S
C340 H360 0.930 . S
C341 N339 1.375 . S
C341 C340 1.338 . S
C341 H345 0.931 . S
C342 N339 1.313 . S
C342 N343 1.344 . S
C342 H346 0.930 . S
N343 C340 1.377 . S
N343 C342 1.344 . S
O344 Co336 2.055 . S
O344 C348 1.253 . S
H345 C341 0.931 . S
H346 C342 0.930 . S
O347 Co336 2.039 . S
O347 C337 1.265 . S
C348 O344 1.253 . S
C348 O349 1.227 . S
O349 C348 1.227 . S
N350 Co336 2.140 . S
N350 C353 1.346 . S
N350 C354 1.345 . S
C351 C352 1.387 . S
C351 C355 1.391 . S
C352 C351 1.387 . S
C352 C353 1.369 1_655 S
C352 H361 0.929 . S
C353 N350 1.346 . S
C353 C352 1.369 1_455 S
C353 H356 0.928 . S
C354 N350 1.345 . S
C354 C355 1.371 1_455 S
C354 H357 0.931 . S
C355 C351 1.391 . S
C355 C354 1.371 1_655 S
C355 H362 0.930 . S
H356 C353 0.928 . S
H357 C354 0.931 . S
H358 C334 0.930 . S
H359 C331 0.930 . S
H360 C340 0.930 . S
H361 C352 0.929 . S
H362 C355 0.930 . S
C363 C364 1.351 . S
C363 N366 1.368 . S
C363 H368 0.931 . S
C364 C363 1.351 . S
C364 N365 1.373 . S
C364 H392 0.930 . S
N365 C364 1.373 . S
N365 C367 1.340 . S
N366 C363 1.368 . S
N366 C367 1.321 . S
N366 Co369 2.135 . S
C367 N365 1.340 . S
C367 N366 1.321 . S
C367 H391 0.930 . S
H368 C363 0.931 . S
Co369 N366 2.135 . S
Co369 N372 2.121 . S
Co369 O377 2.055 . S
Co369 O380 2.039 . S
Co369 N383 2.140 . S
C370 O371 1.227 . S
C370 O380 1.265 . S
O371 C370 1.227 . S
N372 Co369 2.121 . S
N372 C374 1.375 . S
N372 C375 1.313 . S
C373 C374 1.338 . S
C373 N376 1.377 . S
C373 H393 0.930 . S
C374 N372 1.375 . S
C374 C373 1.338 . S
C374 H378 0.931 . S
C375 N372 1.313 . S
C375 N376 1.344 . S
C375 H379 0.930 . S
N376 C373 1.377 . S
N376 C375 1.344 . S
O377 Co369 2.055 . S
O377 C381 1.253 . S
H378 C374 0.931 . S
H379 C375 0.930 . S
O380 Co369 2.039 . S
O380 C370 1.265 . S
C381 O377 1.253 . S
C381 O382 1.227 . S
O382 C381 1.227 . S
N383 Co369 2.140 . S
N383 C386 1.346 . S
N383 C387 1.345 . S
C384 C385 1.387 . S
C384 C388 1.391 . S
C385 C384 1.387 . S
C385 C386 1.369 1_565 S
C385 H394 0.929 . S
C386 N383 1.346 . S
C386 C385 1.369 1_545 S
C386 H389 0.928 . S
C387 N383 1.345 . S
C387 C388 1.371 1_545 S
C387 H390 0.931 . S
C388 C384 1.391 . S
C388 C387 1.371 1_565 S
C388 H395 0.930 . S
H389 C386 0.928 . S
H390 C387 0.931 . S
H391 C367 0.930 . S
H392 C364 0.930 . S
H393 C373 0.930 . S
H394 C385 0.929 . S
H395 C388 0.930 . S
H396 C402 0.930 . S
H397 C405 0.930 . S
H398 C406 0.930 . S
H399 C407 0.930 . S
H400 C410 0.930 . S
H401 C411 0.930 . S
C402 H396 0.930 . S
C402 C403 1.355 . S
C402 C404 1.415 . S
C403 C402 1.355 . S
C403 C405 1.419 . S
C404 C402 1.415 . S
C404 C409 1.425 . S
C404 C411 1.409 . S
C405 H397 0.930 . S
C405 C403 1.419 . S
C405 C406 1.362 . S
C406 H398 0.930 . S
C406 C405 1.362 . S
C406 C409 1.409 . S
C407 H399 0.930 . S
C407 C408 1.355 . S
C407 C409 1.415 . S
C408 C407 1.355 . S
C408 C410 1.419 . S
C409 C404 1.425 . S
C409 C406 1.409 . S
C409 C407 1.415 . S
C410 H400 0.930 . S
C410 C408 1.419 . S
C410 C411 1.362 . S
C411 H401 0.930 . S
C411 C404 1.409 . S
C411 C410 1.362 . S
H412 C418 0.930 . S
H413 C421 0.930 1_455 S
H414 C422 0.930 . S
H415 C423 0.930 . S
H416 C426 0.930 1_655 S
H417 C427 0.930 . S
C418 H412 0.930 . S
C418 C419 1.355 . S
C418 C420 1.415 . S
C419 C418 1.355 . S
C419 C421 1.419 . S
C420 C418 1.415 . S
C420 C425 1.425 1_655 S
C420 C427 1.409 . S
C421 H413 0.930 1_655 S
C421 C419 1.419 . S
C421 C422 1.362 1_655 S
C422 H414 0.930 . S
C422 C421 1.362 1_455 S
C422 C425 1.409 . S
C423 H415 0.930 . S
C423 C424 1.355 . S
C423 C425 1.415 . S
C424 C423 1.355 . S
C424 C426 1.419 . S
C425 C420 1.425 1_455 S
C425 C422 1.409 . S
C425 C423 1.415 . S
C426 H416 0.930 1_455 S
C426 C424 1.419 . S
C426 C427 1.362 1_455 S
C427 H417 0.930 . S
C427 C420 1.409 . S
C427 C426 1.362 1_655 S
H428 C434 0.930 . S
H429 C437 0.930 . S
H430 C438 0.930 . S
H431 C439 0.930 . S
H432 C442 0.930 . S
H433 C443 0.930 . S
C434 H428 0.930 . S
C434 C435 1.355 . S
C434 C436 1.415 1_556 S
C435 C434 1.355 . S
C435 C437 1.419 . S
C436 C434 1.415 1_554 S
C436 C441 1.425 1_564 S
C436 C443 1.409 . S
C437 H429 0.930 . S
C437 C435 1.419 . S
C437 C438 1.362 1_565 S
C438 H430 0.930 . S
C438 C437 1.362 1_545 S
C438 C441 1.409 . S
C439 H431 0.930 . S
C439 C440 1.355 . S
C439 C441 1.415 1_554 S
C440 C439 1.355 . S
C440 C442 1.419 . S
C441 C436 1.425 1_546 S
C441 C438 1.409 . S
C441 C439 1.415 1_556 S
C442 H432 0.930 . S
C442 C440 1.419 . S
C442 C443 1.362 1_545 S
C443 H433 0.930 . S
C443 C436 1.409 . S
C443 C442 1.362 1_565 S
H444 C450 0.930 . S
H445 C453 0.930 . S
H446 C454 0.930 . S
H447 C455 0.930 . S
H448 C458 0.930 . S
H449 C459 0.930 . S
C450 H444 0.930 . S
C450 C451 1.355 . S
C450 C452 1.415 . S
C451 C450 1.355 . S
C451 C453 1.419 . S
C452 C450 1.415 . S
C452 C457 1.425 . S
C452 C459 1.409 . S
C453 H445 0.930 . S
C453 C451 1.419 . S
C453 C454 1.362 . S
C454 H446 0.930 . S
C454 C453 1.362 . S
C454 C457 1.409 . S
C455 H447 0.930 . S
C455 C456 1.355 . S
C455 C457 1.415 . S
C456 C455 1.355 . S
C456 C458 1.419 . S
C457 C452 1.425 . S
C457 C454 1.409 . S
C457 C455 1.415 . S
C458 H448 0.930 . S
C458 C456 1.419 . S
C458 C459 1.362 . S
C459 H449 0.930 . S
C459 C452 1.409 . S
C459 C458 1.362 . S
H460 C466 0.930 . S
H461 C469 0.930 1_655 S
H462 C470 0.930 . S
H463 C471 0.930 . S
H464 C474 0.930 1_455 S
H465 C475 0.930 . S
C466 H460 0.930 . S
C466 C467 1.355 . S
C466 C468 1.415 . S
C467 C466 1.355 . S
C467 C469 1.419 . S
C468 C466 1.415 . S
C468 C473 1.425 1_455 S
C468 C475 1.409 . S
C469 H461 0.930 1_455 S
C469 C467 1.419 . S
C469 C470 1.362 1_455 S
C470 H462 0.930 . S
C470 C469 1.362 1_655 S
C470 C473 1.409 . S
C471 H463 0.930 . S
C471 C472 1.355 . S
C471 C473 1.415 . S
C472 C471 1.355 . S
C472 C474 1.419 . S
C473 C468 1.425 1_655 S
C473 C470 1.409 . S
C473 C471 1.415 . S
C474 H464 0.930 1_655 S
C474 C472 1.419 . S
C474 C475 1.362 1_655 S
C475 H465 0.930 . S
C475 C468 1.409 . S
C475 C474 1.362 1_455 S
H476 C482 0.930 1_565 S
H477 C485 0.930 . S
H478 C486 0.930 . S
H479 C487 0.930 1_545 S
H480 C490 0.930 . S
H481 C491 0.930 . S
C482 H476 0.930 1_545 S
C482 C483 1.355 . S
C482 C484 1.415 1_545 S
C483 C482 1.355 . S
C483 C485 1.419 . S
C484 C482 1.415 1_565 S
C484 C489 1.425 1_566 S
C484 C491 1.409 . S
C485 H477 0.930 . S
C485 C483 1.419 . S
C485 C486 1.362 1_556 S
C486 H478 0.930 . S
C486 C485 1.362 1_554 S
C486 C489 1.409 . S
C487 H479 0.930 1_565 S
C487 C488 1.355 . S
C487 C489 1.415 1_565 S
C488 C487 1.355 . S
C488 C490 1.419 . S
C489 C484 1.425 1_544 S
C489 C486 1.409 . S
C489 C487 1.415 1_545 S
C490 H480 0.930 . S
C490 C488 1.419 . S
C490 C491 1.362 1_554 S
C491 H481 0.930 . S
C491 C484 1.409 . S
C491 C490 1.362 1_556 S
H492 C498 0.930 . S
H493 C501 0.930 . S
H494 C502 0.930 . S
H495 C503 0.930 . S
H496 C506 0.930 . S
H497 C507 0.930 . S
C498 H492 0.930 . S
C498 C499 1.355 . S
C498 C500 1.415 . S
C499 C498 1.355 . S
C499 C501 1.419 . S
C500 C498 1.415 . S
C500 C505 1.425 1_556 S
C500 C507 1.409 1_556 S
C501 H493 0.930 . S
C501 C499 1.419 . S
C501 C502 1.362 . S
C502 H494 0.930 . S
C502 C501 1.362 . S
C502 C505 1.409 1_556 S
C503 H495 0.930 . S
C503 C504 1.355 . S
C503 C505 1.415 . S
C504 C503 1.355 . S
C504 C506 1.419 . S
C505 C500 1.425 1_554 S
C505 C502 1.409 1_554 S
C505 C503 1.415 . S
C506 H496 0.930 . S
C506 C504 1.419 . S
C506 C507 1.362 . S
C507 H497 0.930 . S
C507 C500 1.409 1_554 S
C507 C506 1.362 . S
H508 C514 0.930 . S
H509 C517 0.930 . S
H510 C518 0.930 . S
H511 C519 0.930 . S
H512 C522 0.930 . S
H513 C523 0.930 . S
C514 H508 0.930 . S
C514 C515 1.355 . S
C514 C516 1.415 . S
C515 C514 1.355 . S
C515 C517 1.419 . S
C516 C514 1.415 . S
C516 C521 1.425 . S
C516 C523 1.409 . S
C517 H509 0.930 . S
C517 C515 1.419 . S
C517 C518 1.362 . S
C518 H510 0.930 . S
C518 C517 1.362 . S
C518 C521 1.409 . S
C519 H511 0.930 . S
C519 C520 1.355 . S
C519 C521 1.415 . S
C520 C519 1.355 . S
C520 C522 1.419 . S
C521 C516 1.425 . S
C521 C518 1.409 . S
C521 C519 1.415 . S
C522 H512 0.930 . S
C522 C520 1.419 . S
C522 C523 1.362 . S
C523 H513 0.930 . S
C523 C516 1.409 . S
C523 C522 1.362 . S
H524 C530 0.930 . S
H525 C533 0.930 . S
H526 C534 0.930 . S
H527 C535 0.930 . S
H528 C538 0.930 . S
H529 C539 0.930 . S
C530 H524 0.930 . S
C530 C531 1.355 . S
C530 C532 1.415 . S
C531 C530 1.355 . S
C531 C533 1.419 . S
C532 C530 1.415 . S
C532 C537 1.425 . S
C532 C539 1.409 . S
C533 H525 0.930 . S
C533 C531 1.419 . S
C533 C534 1.362 . S
C534 H526 0.930 . S
C534 C533 1.362 . S
C534 C537 1.409 . S
C535 H527 0.930 . S
C535 C536 1.355 . S
C535 C537 1.415 . S
C536 C535 1.355 . S
C536 C538 1.419 . S
C537 C532 1.425 . S
C537 C534 1.409 . S
C537 C535 1.415 . S
C538 H528 0.930 . S
C538 C536 1.419 . S
C538 C539 1.362 . S
C539 H529 0.930 . S
C539 C532 1.409 . S
C539 C538 1.362 . S
H540 C546 0.930 . S
H541 C549 0.930 . S
H542 C550 0.930 1_554 S
H543 C551 0.930 . S
H544 C554 0.930 . S
H545 C555 0.930 1_556 S
C546 H540 0.930 . S
C546 C547 1.355 . S
C546 C548 1.415 . S
C547 C546 1.355 . S
C547 C549 1.419 . S
C548 C546 1.415 . S
C548 C553 1.425 1_556 S
C548 C555 1.409 1_556 S
C549 H541 0.930 . S
C549 C547 1.419 . S
C549 C550 1.362 . S
C550 H542 0.930 1_556 S
C550 C549 1.362 . S
C550 C553 1.409 1_556 S
C551 H543 0.930 . S
C551 C552 1.355 . S
C551 C553 1.415 . S
C552 C551 1.355 . S
C552 C554 1.419 . S
C553 C548 1.425 1_554 S
C553 C550 1.409 1_554 S
C553 C551 1.415 . S
C554 H544 0.930 . S
C554 C552 1.419 . S
C554 C555 1.362 . S
C555 H545 0.930 1_554 S
C555 C548 1.409 1_554 S
C555 C554 1.362 . S
H556 C562 0.930 . S
H557 C565 0.930 . S
H558 C566 0.930 . S
H559 C567 0.930 . S
H560 C570 0.930 . S
H561 C571 0.930 . S
C562 H556 0.930 . S
C562 C563 1.355 . S
C562 C564 1.415 . S
C563 C562 1.355 . S
C563 C565 1.419 . S
C564 C562 1.415 . S
C564 C569 1.425 . S
C564 C571 1.409 . S
C565 H557 0.930 . S
C565 C563 1.419 . S
C565 C566 1.362 . S
C566 H558 0.930 . S
C566 C565 1.362 . S
C566 C569 1.409 . S
C567 H559 0.930 . S
C567 C568 1.355 . S
C567 C569 1.415 . S
C568 C567 1.355 . S
C568 C570 1.419 . S
C569 C564 1.425 . S
C569 C566 1.409 . S
C569 C567 1.415 . S
C570 H560 0.930 . S
C570 C568 1.419 . S
C570 C571 1.362 . S
C571 H561 0.930 . S
C571 C564 1.409 . S
C571 C570 1.362 . S
H572 C578 0.930 . S
H573 C581 0.930 . S
H574 C582 0.930 . S
H575 C583 0.930 . S
H576 C586 0.930 . S
H577 C587 0.930 . S
C578 H572 0.930 . S
C578 C579 1.355 . S
C578 C580 1.415 . S
C579 C578 1.355 . S
C579 C581 1.419 . S
C580 C578 1.415 . S
C580 C585 1.425 . S
C580 C587 1.409 . S
C581 H573 0.930 . S
C581 C579 1.419 . S
C581 C582 1.362 . S
C582 H574 0.930 . S
C582 C581 1.362 . S
C582 C585 1.409 . S
C583 H575 0.930 . S
C583 C584 1.355 . S
C583 C585 1.415 . S
C584 C583 1.355 . S
C584 C586 1.419 . S
C585 C580 1.425 . S
C585 C582 1.409 . S
C585 C583 1.415 . S
C586 H576 0.930 . S
C586 C584 1.419 . S
C586 C587 1.362 . S
C587 H577 0.930 . S
C587 C580 1.409 . S
C587 C586 1.362 . S
H588 C594 0.930 . S
H589 C597 0.930 . S
H590 C598 0.930 . S
H591 C599 0.930 . S
H592 C602 0.930 . S
H593 C603 0.930 . S
C594 H588 0.930 . S
C594 C595 1.355 . S
C594 C596 1.415 . S
C595 C594 1.355 . S
C595 C597 1.419 . S
C596 C594 1.415 . S
C596 C601 1.425 . S
C596 C603 1.409 . S
C597 H589 0.930 . S
C597 C595 1.419 . S
C597 C598 1.362 . S
C598 H590 0.930 . S
C598 C597 1.362 . S
C598 C601 1.409 . S
C599 H591 0.930 . S
C599 C600 1.355 . S
C599 C601 1.415 . S
C600 C599 1.355 . S
C600 C602 1.419 . S
C601 C596 1.425 . S
C601 C598 1.409 . S
C601 C599 1.415 . S
C602 H592 0.930 . S
C602 C600 1.419 . S
C602 C603 1.362 . S
C603 H593 0.930 . S
C603 C596 1.409 . S
C603 C602 1.362 . S
H604 C610 0.930 . S
H605 C613 0.930 . S
H606 C614 0.930 . S
H607 C615 0.930 . S
H608 C618 0.930 . S
H609 C619 0.930 . S
C610 H604 0.930 . S
C610 C611 1.355 . S
C610 C612 1.415 . S
C611 C610 1.355 . S
C611 C613 1.419 . S
C612 C610 1.415 . S
C612 C617 1.425 1_655 S
C612 C619 1.409 . S
C613 H605 0.930 . S
C613 C611 1.419 . S
C613 C614 1.362 1_655 S
C614 H606 0.930 . S
C614 C613 1.362 1_455 S
C614 C617 1.409 . S
C615 H607 0.930 . S
C615 C616 1.355 . S
C615 C617 1.415 . S
C616 C615 1.355 . S
C616 C618 1.419 . S
C617 C612 1.425 1_455 S
C617 C614 1.409 . S
C617 C615 1.415 . S
C618 H608 0.930 . S
C618 C616 1.419 . S
C618 C619 1.362 1_455 S
C619 H609 0.930 . S
C619 C612 1.409 . S
C619 C618 1.362 1_655 S
H620 C626 0.930 . S
H621 C629 0.930 . S
H622 C630 0.930 . S
H623 C631 0.930 . S
H624 C634 0.930 . S
H625 C635 0.930 . S
C626 H620 0.930 . S
C626 C627 1.355 . S
C626 C628 1.415 . S
C627 C626 1.355 . S
C627 C629 1.419 . S
C628 C626 1.415 . S
C628 C633 1.425 1_545 S
C628 C635 1.409 . S
C629 H621 0.930 . S
C629 C627 1.419 . S
C629 C630 1.362 1_545 S
C630 H622 0.930 . S
C630 C629 1.362 1_565 S
C630 C633 1.409 . S
C631 H623 0.930 . S
C631 C632 1.355 . S
C631 C633 1.415 . S
C632 C631 1.355 . S
C632 C634 1.419 . S
C633 C628 1.425 1_565 S
C633 C630 1.409 . S
C633 C631 1.415 . S
C634 H624 0.930 . S
C634 C632 1.419 . S
C634 C635 1.362 1_565 S
C635 H625 0.930 . S
C635 C628 1.409 . S
C635 C634 1.362 1_545 S
H636 C642 0.930 . S
H637 C645 0.930 . S
H638 C646 0.930 . S
H639 C647 0.930 . S
H640 C650 0.930 . S
H641 C651 0.930 . S
C642 H636 0.930 . S
C642 C643 1.355 . S
C642 C644 1.415 . S
C643 C642 1.355 . S
C643 C645 1.419 . S
C644 C642 1.415 . S
C644 C649 1.425 . S
C644 C651 1.409 . S
C645 H637 0.930 . S
C645 C643 1.419 . S
C645 C646 1.362 . S
C646 H638 0.930 . S
C646 C645 1.362 . S
C646 C649 1.409 . S
C647 H639 0.930 . S
C647 C648 1.355 . S
C647 C649 1.415 . S
C648 C647 1.355 . S
C648 C650 1.419 . S
C649 C644 1.425 . S
C649 C646 1.409 . S
C649 C647 1.415 . S
C650 H640 0.930 . S
C650 C648 1.419 . S
C650 C651 1.362 . S
C651 H641 0.930 . S
C651 C644 1.409 . S
C651 C650 1.362 . S
H652 C658 0.930 . S
H653 C661 0.930 . S
H654 C662 0.930 . S
H655 C663 0.930 . S
H656 C666 0.930 . S
H657 C667 0.930 . S
C658 H652 0.930 . S
C658 C659 1.355 . S
C658 C660 1.415 . S
C659 C658 1.355 . S
C659 C661 1.419 . S
C660 C658 1.415 . S
C660 C665 1.425 1_655 S
C660 C667 1.409 1_655 S
C661 H653 0.930 . S
C661 C659 1.419 . S
C661 C662 1.362 . S
C662 H654 0.930 . S
C662 C661 1.362 . S
C662 C665 1.409 1_655 S
C663 H655 0.930 . S
C663 C664 1.355 . S
C663 C665 1.415 . S
C664 C663 1.355 . S
C664 C666 1.419 . S
C665 C660 1.425 1_455 S
C665 C662 1.409 1_455 S
C665 C663 1.415 . S
C666 H656 0.930 . S
C666 C664 1.419 . S
C666 C667 1.362 . S
C667 H657 0.930 . S
C667 C660 1.409 1_455 S
C667 C666 1.362 . S
H668 C674 0.930 . S
H669 C677 0.930 . S
H670 C678 0.930 . S
H671 C679 0.930 . S
H672 C682 0.930 . S
H673 C683 0.930 . S
C674 H668 0.930 . S
C674 C675 1.355 . S
C674 C676 1.415 1_545 S
C675 C674 1.355 . S
C675 C677 1.419 . S
C676 C674 1.415 1_565 S
C676 C681 1.425 1_565 S
C676 C683 1.409 . S
C677 H669 0.930 . S
C677 C675 1.419 . S
C677 C678 1.362 . S
C678 H670 0.930 . S
C678 C677 1.362 . S
C678 C681 1.409 . S
C679 H671 0.930 . S
C679 C680 1.355 . S
C679 C681 1.415 1_565 S
C680 C679 1.355 . S
C680 C682 1.419 . S
C681 C676 1.425 1_545 S
C681 C678 1.409 . S
C681 C679 1.415 1_545 S
C682 H672 0.930 . S
C682 C680 1.419 . S
C682 C683 1.362 . S
C683 H673 0.930 . S
C683 C676 1.409 . S
C683 C682 1.362 . S
H684 C690 0.930 . S
H685 C693 0.930 . S
H686 C694 0.930 . S
H687 C695 0.930 . S
H688 C698 0.930 . S
H689 C699 0.930 . S
C690 H684 0.930 . S
C690 C691 1.355 . S
C690 C692 1.415 . S
C691 C690 1.355 . S
C691 C693 1.419 . S
C692 C690 1.415 . S
C692 C697 1.425 1_455 S
C692 C699 1.409 1_455 S
C693 H685 0.930 . S
C693 C691 1.419 . S
C693 C694 1.362 . S
C694 H686 0.930 . S
C694 C693 1.362 . S
C694 C697 1.409 1_455 S
C695 H687 0.930 . S
C695 C696 1.355 . S
C695 C697 1.415 . S
C696 C695 1.355 . S
C696 C698 1.419 . S
C697 C692 1.425 1_655 S
C697 C694 1.409 1_655 S
C697 C695 1.415 . S
C698 H688 0.930 . S
C698 C696 1.419 . S
C698 C699 1.362 . S
C699 H689 0.930 . S
C699 C692 1.409 1_655 S
C699 C698 1.362 . S
H700 C706 0.930 . S
H701 C709 0.930 . S
H702 C710 0.930 . S
H703 C711 0.930 . S
H704 C714 0.930 . S
H705 C715 0.930 . S
C706 H700 0.930 . S
C706 C707 1.355 . S
C706 C708 1.415 . S
C707 C706 1.355 . S
C707 C709 1.419 . S
C708 C706 1.415 . S
C708 C713 1.425 1_565 S
C708 C715 1.409 1_565 S
C709 H701 0.930 . S
C709 C707 1.419 . S
C709 C710 1.362 . S
C710 H702 0.930 . S
C710 C709 1.362 . S
C710 C713 1.409 1_565 S
C711 H703 0.930 . S
C711 C712 1.355 . S
C711 C713 1.415 . S
C712 C711 1.355 . S
C712 C714 1.419 . S
C713 C708 1.425 1_545 S
C713 C710 1.409 1_545 S
C713 C711 1.415 . S
C714 H704 0.930 . S
C714 C712 1.419 . S
C714 C715 1.362 . S
C715 H705 0.930 . S
C715 C708 1.409 1_545 S
C715 C714 1.362 . S
H716 C722 0.930 . S
H717 C725 0.930 . S
H718 C726 0.930 . S
H719 C727 0.930 . S
H720 C730 0.930 . S
H721 C731 0.930 . S
C722 H716 0.930 . S
C722 C723 1.355 . S
C722 C724 1.415 . S
C723 C722 1.355 . S
C723 C725 1.419 . S
C724 C722 1.415 . S
C724 C729 1.425 . S
C724 C731 1.409 . S
C725 H717 0.930 . S
C725 C723 1.419 . S
C725 C726 1.362 . S
C726 H718 0.930 . S
C726 C725 1.362 . S
C726 C729 1.409 . S
C727 H719 0.930 . S
C727 C728 1.355 . S
C727 C729 1.415 . S
C728 C727 1.355 . S
C728 C730 1.419 . S
C729 C724 1.425 . S
C729 C726 1.409 . S
C729 C727 1.415 . S
C730 H720 0.930 . S
C730 C728 1.419 . S
C730 C731 1.362 . S
C731 H721 0.930 . S
C731 C724 1.409 . S
C731 C730 1.362 . S
H732 C738 0.930 . S
H733 C741 0.930 . S
H734 C742 0.930 . S
H735 C743 0.930 . S
H736 C746 0.930 . S
H737 C747 0.930 . S
C738 H732 0.930 . S
C738 C739 1.355 . S
C738 C740 1.415 . S
C739 C738 1.355 . S
C739 C741 1.419 . S
C740 C738 1.415 . S
C740 C745 1.425 1_655 S
C740 C747 1.409 1_655 S
C741 H733 0.930 . S
C741 C739 1.419 . S
C741 C742 1.362 . S
C742 H734 0.930 . S
C742 C741 1.362 . S
C742 C745 1.409 1_655 S
C743 H735 0.930 . S
C743 C744 1.355 . S
C743 C745 1.415 . S
C744 C743 1.355 . S
C744 C746 1.419 . S
C745 C740 1.425 1_455 S
C745 C742 1.409 1_455 S
C745 C743 1.415 . S
C746 H736 0.930 . S
C746 C744 1.419 . S
C746 C747 1.362 . S
C747 H737 0.930 . S
C747 C740 1.409 1_455 S
C747 C746 1.362 . S
H748 C754 0.930 . S
H749 C757 0.930 . S
H750 C758 0.930 . S
H751 C759 0.930 . S
H752 C762 0.930 . S
H753 C763 0.930 . S
C754 H748 0.930 . S
C754 C755 1.355 . S
C754 C756 1.415 . S
C755 C754 1.355 . S
C755 C757 1.419 . S
C756 C754 1.415 . S
C756 C761 1.425 1_565 S
C756 C763 1.409 1_565 S
C757 H749 0.930 . S
C757 C755 1.419 . S
C757 C758 1.362 . S
C758 H750 0.930 . S
C758 C757 1.362 . S
C758 C761 1.409 1_565 S
C759 H751 0.930 . S
C759 C760 1.355 . S
C759 C761 1.415 . S
C760 C759 1.355 . S
C760 C762 1.419 . S
C761 C756 1.425 1_545 S
C761 C758 1.409 1_545 S
C761 C759 1.415 . S
C762 H752 0.930 . S
C762 C760 1.419 . S
C762 C763 1.362 . S
C763 H753 0.930 . S
C763 C756 1.409 1_545 S
C763 C762 1.362 . S
H764 C770 0.930 . S
H765 C773 0.930 . S
H766 C774 0.930 . S
H767 C775 0.930 . S
H768 C778 0.930 . S
H769 C779 0.930 . S
C770 H764 0.930 . S
C770 C771 1.355 . S
C770 C772 1.415 . S
C771 C770 1.355 . S
C771 C773 1.419 . S
C772 C770 1.415 . S
C772 C777 1.425 . S
C772 C779 1.409 . S
C773 H765 0.930 . S
C773 C771 1.419 . S
C773 C774 1.362 . S
C774 H766 0.930 . S
C774 C773 1.362 . S
C774 C777 1.409 . S
C775 H767 0.930 . S
C775 C776 1.355 . S
C775 C777 1.415 . S
C776 C775 1.355 . S
C776 C778 1.419 . S
C777 C772 1.425 . S
C777 C774 1.409 . S
C777 C775 1.415 . S
C778 H768 0.930 . S
C778 C776 1.419 . S
C778 C779 1.362 . S
C779 H769 0.930 . S
C779 C772 1.409 . S
C779 C778 1.362 . S
H780 C786 0.930 . S
H781 C789 0.930 . S
H782 C790 0.930 . S
H783 C791 0.930 . S
H784 C794 0.930 . S
H785 C795 0.930 . S
C786 H780 0.930 . S
C786 C787 1.355 . S
C786 C788 1.415 . S
C787 C786 1.355 . S
C787 C789 1.419 . S
C788 C786 1.415 . S
C788 C793 1.425 . S
C788 C795 1.409 . S
C789 H781 0.930 . S
C789 C787 1.419 . S
C789 C790 1.362 . S
C790 H782 0.930 . S
C790 C789 1.362 . S
C790 C793 1.409 . S
C791 H783 0.930 . S
C791 C792 1.355 . S
C791 C793 1.415 . S
C792 C791 1.355 . S
C792 C794 1.419 . S
C793 C788 1.425 . S
C793 C790 1.409 . S
C793 C791 1.415 . S
C794 H784 0.930 . S
C794 C792 1.419 . S
C794 C795 1.362 . S
C795 H785 0.930 . S
C795 C788 1.409 . S
C795 C794 1.362 . S
H796 C802 0.930 . S
H797 C805 0.930 . S
H798 C806 0.930 . S
H799 C807 0.930 . S
H800 C810 0.930 . S
H801 C811 0.930 . S
C802 H796 0.930 . S
C802 C803 1.355 . S
C802 C804 1.415 . S
C803 C802 1.355 . S
C803 C805 1.419 . S
C804 C802 1.415 . S
C804 C809 1.425 . S
C804 C811 1.409 . S
C805 H797 0.930 . S
C805 C803 1.419 . S
C805 C806 1.362 . S
C806 H798 0.930 . S
C806 C805 1.362 . S
C806 C809 1.409 . S
C807 H799 0.930 . S
C807 C808 1.355 . S
C807 C809 1.415 . S
C808 C807 1.355 . S
C808 C810 1.419 . S
C809 C804 1.425 . S
C809 C806 1.409 . S
C809 C807 1.415 . S
C810 H800 0.930 . S
C810 C808 1.419 . S
C810 C811 1.362 . S
C811 H801 0.930 . S
C811 C804 1.409 . S
C811 C810 1.362 . S
H812 C818 0.930 . S
H813 C821 0.930 . S
H814 C822 0.930 . S
H815 C823 0.930 . S
H816 C826 0.930 . S
H817 C827 0.930 . S
C818 H812 0.930 . S
C818 C819 1.355 . S
C818 C820 1.415 . S
C819 C818 1.355 . S
C819 C821 1.419 . S
C820 C818 1.415 . S
C820 C825 1.425 . S
C820 C827 1.409 . S
C821 H813 0.930 . S
C821 C819 1.419 . S
C821 C822 1.362 . S
C822 H814 0.930 . S
C822 C821 1.362 . S
C822 C825 1.409 . S
C823 H815 0.930 . S
C823 C824 1.355 . S
C823 C825 1.415 . S
C824 C823 1.355 . S
C824 C826 1.419 . S
C825 C820 1.425 . S
C825 C822 1.409 . S
C825 C823 1.415 . S
C826 H816 0.930 . S
C826 C824 1.419 . S
C826 C827 1.362 . S
C827 H817 0.930 . S
C827 C820 1.409 . S
C827 C826 1.362 . S
H828 C834 0.930 . S
H829 C837 0.930 . S
H830 C838 0.930 . S
H831 C839 0.930 . S
H832 C842 0.930 . S
H833 C843 0.930 . S
C834 H828 0.930 . S
C834 C835 1.355 . S
C834 C836 1.415 . S
C835 C834 1.355 . S
C835 C837 1.419 . S
C836 C834 1.415 . S
C836 C841 1.425 . S
C836 C843 1.409 . S
C837 H829 0.930 . S
C837 C835 1.419 . S
C837 C838 1.362 . S
C838 H830 0.930 . S
C838 C837 1.362 . S
C838 C841 1.409 . S
C839 H831 0.930 . S
C839 C840 1.355 . S
C839 C841 1.415 . S
C840 C839 1.355 . S
C840 C842 1.419 . S
C841 C836 1.425 . S
C841 C838 1.409 . S
C841 C839 1.415 . S
C842 H832 0.930 . S
C842 C840 1.419 . S
C842 C843 1.362 . S
C843 H833 0.930 . S
C843 C836 1.409 . S
C843 C842 1.362 . S
H844 C850 0.930 . S
H845 C853 0.930 . S
H846 C854 0.930 . S
H847 C855 0.930 . S
H848 C858 0.930 . S
H849 C859 0.930 . S
C850 H844 0.930 . S
C850 C851 1.355 . S
C850 C852 1.415 . S
C851 C850 1.355 . S
C851 C853 1.419 . S
C852 C850 1.415 . S
C852 C857 1.425 . S
C852 C859 1.409 . S
C853 H845 0.930 . S
C853 C851 1.419 . S
C853 C854 1.362 . S
C854 H846 0.930 . S
C854 C853 1.362 . S
C854 C857 1.409 . S
C855 H847 0.930 . S
C855 C856 1.355 . S
C855 C857 1.415 . S
C856 C855 1.355 . S
C856 C858 1.419 . S
C857 C852 1.425 . S
C857 C854 1.409 . S
C857 C855 1.415 . S
C858 H848 0.930 . S
C858 C856 1.419 . S
C858 C859 1.362 . S
C859 H849 0.930 . S
C859 C852 1.409 . S
C859 C858 1.362 . S
H860 C866 0.930 . S
H861 C869 0.930 . S
H862 C870 0.930 . S
H863 C871 0.930 . S
H864 C874 0.930 . S
H865 C875 0.930 . S
C866 H860 0.930 . S
C866 C867 1.355 . S
C866 C868 1.415 . S
C867 C866 1.355 . S
C867 C869 1.419 . S
C868 C866 1.415 . S
C868 C873 1.425 . S
C868 C875 1.409 . S
C869 H861 0.930 . S
C869 C867 1.419 . S
C869 C870 1.362 . S
C870 H862 0.930 . S
C870 C869 1.362 . S
C870 C873 1.409 . S
C871 H863 0.930 . S
C871 C872 1.355 . S
C871 C873 1.415 . S
C872 C871 1.355 . S
C872 C874 1.419 . S
C873 C868 1.425 . S
C873 C870 1.409 . S
C873 C871 1.415 . S
C874 H864 0.930 . S
C874 C872 1.419 . S
C874 C875 1.362 . S
C875 H865 0.930 . S
C875 C868 1.409 . S
C875 C874 1.362 . S
C403 N299 1.652 . S
C408 N2 1.659 . S
C419 N35 1.669 . S
C424 N332 1.644 . S
C435 N68 1.686 . S
C440 N365 1.637 . S
C451 N101 1.661 . S
C456 N200 1.685 . S
C467 N134 1.660 . S
C472 N233 1.651 . S
C483 N167 1.673 . S
C488 N266 1.675 . S
C499 N343 1.628 . S
C504 N13 1.638 . S
C515 N376 1.623 . S
C520 N46 1.636 . S
C531 N79 1.612 . S
C536 N211 1.629 . S
C547 N244 1.599 . S
C552 N112 1.591 . S
C563 N145 1.591 . S
C568 N277 1.600 . S
C579 N178 1.620 . S
C584 N310 1.602 . S
C595 C106 1.604 . S
C600 C7 1.615 . S
C611 C40 1.537 . S
C616 C139 1.540 . S
C627 C172 1.564 . S
C632 C73 1.554 . S
C643 C304 1.636 . S
C648 C205 1.630 . S
C659 C238 1.580 . S
C664 C337 1.593 . S
C675 C370 1.592 . S
C680 C271 1.604 . S
C691 C18 1.693 . S
C696 C381 1.718 . S
C707 C216 1.741 . S
C712 C51 1.714 . S
C723 C84 1.694 . S
C728 C249 1.746 . S
C739 C117 1.694 . S
C744 C282 1.746 . S
C755 C150 1.721 . S
C760 C315 1.691 . S
C771 C348 1.715 . S
C776 C183 1.741 . S
C787 C21 0.451 . S
C792 C285 0.418 . S
C803 C318 0.392 . S
C808 C54 0.423 . S
C819 C87 0.484 . S
C824 C351 0.505 . S
C835 C384 0.514 . S
C840 C120 0.502 . S
C851 C219 0.515 . S
C856 C153 0.512 . S
C867 C186 0.397 . S
C872 C252 0.373 . S
