# Generated by pormake.
# Topology uot, (4)-cn, num edge types: 1
# Building blocks:
#     Node 0, Type 0, BuildingBlock: CEKHIL_clean_sbu_0, # of connection points: 4
#     Node 1, Type 0, BuildingBlock: CEKHIL_clean_sbu_0, # of connection points: 4
#     Node 2, Type 0, BuildingBlock: CEKHIL_clean_sbu_0, # of connection points: 4
#     Node 3, Type 0, BuildingBlock: CEKHIL_clean_sbu_0, # of connection points: 4
#     Node 4, Type 0, BuildingBlock: CEKHIL_clean_sbu_0, # of connection points: 4
#     Node 5, Type 0, BuildingBlock: CEKHIL_clean_sbu_0, # of connection points: 4
#     Node 6, Type 0, BuildingBlock: CEKHIL_clean_sbu_0, # of connection points: 4
#     Node 7, Type 0, BuildingBlock: CEKHIL_clean_sbu_0, # of connection points: 4
#     Node 8, Type 0, BuildingBlock: CEKHIL_clean_sbu_0, # of connection points: 4
#     Node 9, Type 0, BuildingBlock: CEKHIL_clean_sbu_0, # of connection points: 4
#     Node 10, Type 0, BuildingBlock: CEKHIL_clean_sbu_0, # of connection points: 4
#     Node 11, Type 0, BuildingBlock: CEKHIL_clean_sbu_0, # of connection points: 4
#     Node 12, Type 0, BuildingBlock: CEKHIL_clean_sbu_0, # of connection points: 4
#     Node 13, Type 0, BuildingBlock: CEKHIL_clean_sbu_0, # of connection points: 4
#     Node 14, Type 0, BuildingBlock: CEKHIL_clean_sbu_0, # of connection points: 4
#     Node 15, Type 0, BuildingBlock: CEKHIL_clean_sbu_0, # of connection points: 4
#     Edge 16, Type (0, 0), BuildingBlock: KIFKEQ_clean_linker_1, # of connection points: 2
#     Edge 17, Type (0, 0), BuildingBlock: KIFKEQ_clean_linker_1, # of connection points: 2
#     Edge 18, Type (0, 0), BuildingBlock: KIFKEQ_clean_linker_1, # of connection points: 2
#     Edge 19, Type (0, 0), BuildingBlock: KIFKEQ_clean_linker_1, # of connection points: 2
#     Edge 20, Type (0, 0), BuildingBlock: KIFKEQ_clean_linker_1, # of connection points: 2
#     Edge 21, Type (0, 0), BuildingBlock: KIFKEQ_clean_linker_1, # of connection points: 2
#     Edge 22, Type (0, 0), BuildingBlock: KIFKEQ_clean_linker_1, # of connection points: 2
#     Edge 23, Type (0, 0), BuildingBlock: KIFKEQ_clean_linker_1, # of connection points: 2
#     Edge 24, Type (0, 0), BuildingBlock: KIFKEQ_clean_linker_1, # of connection points: 2
#     Edge 25, Type (0, 0), BuildingBlock: KIFKEQ_clean_linker_1, # of connection points: 2
#     Edge 26, Type (0, 0), BuildingBlock: KIFKEQ_clean_linker_1, # of connection points: 2
#     Edge 27, Type (0, 0), BuildingBlock: KIFKEQ_clean_linker_1, # of connection points: 2
#     Edge 28, Type (0, 0), BuildingBlock: KIFKEQ_clean_linker_1, # of connection points: 2
#     Edge 29, Type (0, 0), BuildingBlock: KIFKEQ_clean_linker_1, # of connection points: 2
#     Edge 30, Type (0, 0), BuildingBlock: KIFKEQ_clean_linker_1, # of connection points: 2
#     Edge 31, Type (0, 0), BuildingBlock: KIFKEQ_clean_linker_1, # of connection points: 2
#     Edge 32, Type (0, 0), BuildingBlock: KIFKEQ_clean_linker_1, # of connection points: 2
#     Edge 33, Type (0, 0), BuildingBlock: KIFKEQ_clean_linker_1, # of connection points: 2
#     Edge 34, Type (0, 0), BuildingBlock: KIFKEQ_clean_linker_1, # of connection points: 2
#     Edge 35, Type (0, 0), BuildingBlock: KIFKEQ_clean_linker_1, # of connection points: 2
#     Edge 36, Type (0, 0), BuildingBlock: KIFKEQ_clean_linker_1, # of connection points: 2
#     Edge 37, Type (0, 0), BuildingBlock: KIFKEQ_clean_linker_1, # of connection points: 2
#     Edge 38, Type (0, 0), BuildingBlock: KIFKEQ_clean_linker_1, # of connection points: 2
#     Edge 39, Type (0, 0), BuildingBlock: KIFKEQ_clean_linker_1, # of connection points: 2
#     Edge 40, Type (0, 0), BuildingBlock: KIFKEQ_clean_linker_1, # of connection points: 2
#     Edge 41, Type (0, 0), BuildingBlock: KIFKEQ_clean_linker_1, # of connection points: 2
#     Edge 42, Type (0, 0), BuildingBlock: KIFKEQ_clean_linker_1, # of connection points: 2
#     Edge 43, Type (0, 0), BuildingBlock: KIFKEQ_clean_linker_1, # of connection points: 2
#     Edge 44, Type (0, 0), BuildingBlock: KIFKEQ_clean_linker_1, # of connection points: 2
#     Edge 45, Type (0, 0), BuildingBlock: KIFKEQ_clean_linker_1, # of connection points: 2
#     Edge 46, Type (0, 0), BuildingBlock: KIFKEQ_clean_linker_1, # of connection points: 2
#     Edge 47, Type (0, 0), BuildingBlock: KIFKEQ_clean_linker_1, # of connection points: 2
# Relax obj value: 0.066
# Max RMSD: 0.082
# Mean RMSD: 0.082
data_MOF--net-uot--node1-CEKHIL_clean_sbu_0--edge1-KIFKEQ_clean_linker_1
_symmetry_space_group_name_H-M    P1
_symmetry_Int_Tables_number       1
_symmetry_cell_setting            triclinic
loop_
_symmetry_equiv_pos_as_xyz
'x, y, z'
_cell_length_a     44.762652
_cell_length_b     44.777517
_cell_length_c     41.0268
_cell_angle_alpha  89.967382
_cell_angle_beta   90.035652
_cell_angle_gamma 90.004296
loop_
_atom_site_label
_atom_site_type_symbol
_atom_site_fract_x
_atom_site_fract_y
_atom_site_fract_z
_atom_type_partial_charge
Co0 Co 0.18586 0.41401 0.34007 0.0
O1 O 0.20878 0.38224 0.35891 0.0
O2 O 0.22789 0.41874 0.32913 0.0
C3 C 0.14919 0.38469 0.31958 0.0
O4 O 0.16854 0.45008 0.31591 0.0
Co5 Co 0.12041 0.42523 0.36411 0.0
O6 O 0.11936 0.45354 0.32707 0.0
C7 C 0.17181 0.44707 0.40303 0.0
C8 C 0.23211 0.3941 0.34538 0.0
C9 C 0.14266 0.46229 0.31196 0.0
O10 O 0.19066 0.43892 0.38099 0.0
O11 O 0.14386 0.44109 0.40171 0.0
O12 O 0.17405 0.38806 0.30368 0.0
O13 O 0.14868 0.39652 0.34815 0.0
Co14 Co 0.41696 0.81078 0.6605 0.0
O15 O 0.38325 0.78814 0.64612 0.0
O16 O 0.42143 0.76938 0.67378 0.0
C17 C 0.39119 0.84977 0.68088 0.0
O18 O 0.45511 0.82822 0.67982 0.0
Co19 Co 0.4285 0.87272 0.62788 0.0
O20 O 0.46051 0.87533 0.66127 0.0
C21 C 0.44102 0.81757 0.59182 0.0
C22 C 0.39579 0.76509 0.6595 0.0
C23 C 0.46891 0.85349 0.67906 0.0
O24 O 0.43822 0.8023 0.61818 0.0
O25 O 0.43458 0.84535 0.58975 0.0
O26 O 0.39451 0.82561 0.69807 0.0
O27 O 0.40039 0.84806 0.65117 0.0
Co28 Co 0.8137 0.58529 0.33843 0.0
O29 O 0.7925 0.61678 0.36021 0.0
O30 O 0.77121 0.58138 0.33044 0.0
C31 C 0.84944 0.61466 0.31597 0.0
O32 O 0.82816 0.54973 0.31172 0.0
Co33 Co 0.88044 0.57122 0.3547 0.0
O34 O 0.8783 0.54687 0.31445 0.0
C35 C 0.83189 0.54984 0.39837 0.0
C36 C 0.76833 0.6055 0.34781 0.0
C37 C 0.85331 0.5385 0.30268 0.0
O38 O 0.81143 0.55931 0.37878 0.0
O39 O 0.85981 0.55467 0.39397 0.0
O40 O 0.82346 0.61219 0.30211 0.0
O41 O 0.85185 0.60171 0.34389 0.0
Co42 Co 0.58302 0.1959 0.66493 0.0
O43 O 0.61642 0.21885 0.64998 0.0
O44 O 0.57674 0.23779 0.67495 0.0
C45 C 0.60933 0.15924 0.68959 0.0
O46 O 0.54474 0.17874 0.6841 0.0
Co47 Co 0.57395 0.13171 0.63753 0.0
O48 O 0.54034 0.13056 0.66908 0.0
C49 C 0.56046 0.1837 0.59632 0.0
C50 C 0.60257 0.2421 0.6612 0.0
C51 C 0.53111 0.15341 0.68468 0.0
O52 O 0.56301 0.20095 0.62121 0.0
O53 O 0.56709 0.15589 0.59695 0.0
O54 O 0.60444 0.18437 0.70448 0.0
O55 O 0.60122 0.1585 0.6594 0.0
Co56 Co 0.20078 0.58755 0.66831 0.0
O57 O 0.22555 0.6204 0.65565 0.0
O58 O 0.24209 0.57864 0.67872 0.0
C59 C 0.16494 0.61451 0.69345 0.0
O60 O 0.18145 0.54943 0.68517 0.0
Co61 Co 0.13614 0.58261 0.64044 0.0
O62 O 0.13214 0.55109 0.67431 0.0
C63 C 0.18816 0.56987 0.59854 0.0
C64 C 0.24786 0.60483 0.66651 0.0
C65 C 0.15474 0.53908 0.688 0.0
O66 O 0.20547 0.56947 0.62355 0.0
O67 O 0.16067 0.57772 0.5998 0.0
O68 O 0.18945 0.60776 0.70877 0.0
O69 O 0.16448 0.60765 0.66294 0.0
Co70 Co 0.59222 0.81183 0.33429 0.0
O71 O 0.62754 0.79316 0.35082 0.0
O72 O 0.59186 0.76937 0.32401 0.0
C73 C 0.61528 0.85175 0.31193 0.0
O74 O 0.55303 0.82492 0.31309 0.0
Co75 Co 0.57478 0.87444 0.36199 0.0
O76 O 0.54692 0.87389 0.32429 0.0
C77 C 0.56528 0.82043 0.4015 0.0
C78 C 0.61757 0.7683 0.33889 0.0
C79 C 0.53944 0.8501 0.30926 0.0
O80 O 0.57086 0.80387 0.37665 0.0
O81 O 0.56868 0.84882 0.4016 0.0
O82 O 0.61424 0.82657 0.29624 0.0
O83 O 0.60539 0.85082 0.34142 0.0
Co84 Co 0.80831 0.41471 0.66893 0.0
O85 O 0.78795 0.3792 0.65603 0.0
O86 O 0.76554 0.41908 0.67645 0.0
C87 C 0.84517 0.39149 0.6967 0.0
O88 O 0.82337 0.455 0.68562 0.0
Co89 Co 0.8731 0.42392 0.64276 0.0
O90 O 0.87197 0.45935 0.67175 0.0
C91 C 0.82171 0.43111 0.59884 0.0
C92 C 0.76335 0.39206 0.66487 0.0
C93 C 0.84853 0.46909 0.6859 0.0
O94 O 0.80388 0.43133 0.62339 0.0
O95 O 0.84955 0.42488 0.60116 0.0
O96 O 0.81956 0.39645 0.71057 0.0
O97 O 0.84637 0.39788 0.6661 0.0
Co98 Co 0.41569 0.19933 0.33137 0.0
O99 O 0.38231 0.22162 0.34764 0.0
O100 O 0.41973 0.24116 0.31937 0.0
C101 C 0.38943 0.16078 0.31021 0.0
O102 O 0.45355 0.18255 0.31047 0.0
Co103 Co 0.42785 0.13628 0.36125 0.0
O104 O 0.4599 0.13517 0.32787 0.0
C105 C 0.44042 0.1902 0.39943 0.0
C106 C 0.39458 0.245 0.33471 0.0
C107 C 0.4678 0.1575 0.31054 0.0
O108 O 0.43783 0.20639 0.37365 0.0
O109 O 0.43367 0.16245 0.40038 0.0
O110 O 0.39234 0.18543 0.29378 0.0
O111 O 0.39933 0.16174 0.33969 0.0
Co112 Co 0.69514 0.9167 0.83059 0.0
O113 O 0.71651 0.88212 0.84487 0.0
O114 O 0.73765 0.92142 0.8217 0.0
C115 C 0.65812 0.89212 0.80465 0.0
O116 O 0.67905 0.95591 0.81211 0.0
Co117 Co 0.63069 0.92592 0.8579 0.0
O118 O 0.63057 0.95974 0.82659 0.0
C119 C 0.68256 0.93783 0.89972 0.0
C120 C 0.74063 0.89493 0.83446 0.0
C121 C 0.65356 0.96938 0.81149 0.0
O122 O 0.70004 0.93566 0.87494 0.0
O123 O 0.65473 0.93134 0.89875 0.0
O124 O 0.68355 0.89659 0.79021 0.0
O125 O 0.65734 0.89944 0.83503 0.0
Co126 Co 0.91463 0.31286 0.15725 0.0
O127 O 0.88298 0.2929 0.13447 0.0
O128 O 0.91627 0.27032 0.1659 0.0
C129 C 0.88603 0.35026 0.17728 0.0
O130 O 0.94978 0.32615 0.18537 0.0
Co131 Co 0.93247 0.37862 0.14056 0.0
O132 O 0.95423 0.37616 0.18255 0.0
C133 C 0.95448 0.32822 0.09984 0.0
C134 C 0.8926 0.26834 0.1476 0.0
C135 C 0.96131 0.35101 0.19489 0.0
O136 O 0.94214 0.3086 0.11848 0.0
O137 O 0.95131 0.35644 0.10362 0.0
O138 O 0.88677 0.32453 0.19193 0.0
O139 O 0.90031 0.35154 0.15008 0.0
Co140 Co 0.30867 0.08542 0.83357 0.0
O141 O 0.2853 0.11614 0.85373 0.0
O142 O 0.26661 0.07779 0.82619 0.0
C143 C 0.34194 0.11593 0.80902 0.0
O144 O 0.32577 0.04994 0.80877 0.0
Co145 Co 0.37605 0.07703 0.85067 0.0
O146 O 0.37596 0.05142 0.81123 0.0
C147 C 0.32915 0.05458 0.89565 0.0
C148 C 0.26203 0.1023 0.84241 0.0
C149 C 0.35174 0.04066 0.79988 0.0
O150 O 0.30831 0.06153 0.87536 0.0
O151 O 0.35675 0.0609 0.89104 0.0
O152 O 0.31613 0.11085 0.79564 0.0
O153 O 0.34549 0.10495 0.83782 0.0
Co154 Co 0.08741 0.69068 0.16084 0.0
O155 O 0.12273 0.71005 0.14526 0.0
O156 O 0.08544 0.73329 0.16991 0.0
C157 C 0.11091 0.6523 0.18574 0.0
O158 O 0.04802 0.67721 0.18106 0.0
Co159 Co 0.07244 0.62677 0.13554 0.0
O160 O 0.04357 0.62771 0.17231 0.0
C161 C 0.06208 0.67897 0.09327 0.0
C162 C 0.11172 0.73479 0.15639 0.0
C163 C 0.03504 0.65189 0.18586 0.0
O164 O 0.06723 0.69668 0.11731 0.0
O165 O 0.06587 0.65065 0.0947 0.0
O166 O 0.10828 0.67791 0.20033 0.0
O167 O 0.10219 0.65181 0.15576 0.0
Co168 Co 0.69224 0.09078 0.16003 0.0
O169 O 0.71415 0.12323 0.14111 0.0
O170 O 0.73455 0.08588 0.16885 0.0
C171 C 0.65605 0.11839 0.18372 0.0
O172 O 0.67629 0.05391 0.18337 0.0
Co173 Co 0.62696 0.07884 0.13699 0.0
O174 O 0.62658 0.05139 0.17509 0.0
C175 C 0.67756 0.06237 0.09476 0.0
C176 C 0.73799 0.11067 0.15271 0.0
C177 C 0.65044 0.04235 0.18898 0.0
O178 O 0.69595 0.0675 0.11818 0.0
O179 O 0.64961 0.06834 0.09628 0.0
O180 O 0.68177 0.11503 0.19795 0.0
O181 O 0.6544 0.10798 0.15444 0.0
Co182 Co 0.09033 0.3086 0.83293 0.0
O183 O 0.1264 0.28872 0.84481 0.0
O184 O 0.08711 0.2662 0.82308 0.0
C185 C 0.11193 0.34769 0.80749 0.0
O186 O 0.04969 0.32334 0.81711 0.0
Co187 Co 0.07925 0.37139 0.86387 0.0
O188 O 0.04399 0.37082 0.83454 0.0
C189 C 0.07407 0.31741 0.90382 0.0
C190 C 0.11409 0.26418 0.83486 0.0
C191 C 0.03494 0.34807 0.8186 0.0
O192 O 0.07373 0.30128 0.87794 0.0
O193 O 0.07984 0.34539 0.90367 0.0
O194 O 0.10837 0.32256 0.79211 0.0
O195 O 0.10563 0.34697 0.83811 0.0
Co196 Co 0.31016 0.91704 0.16717 0.0
O197 O 0.28914 0.883 0.15057 0.0
O198 O 0.2679 0.92042 0.17732 0.0
C199 C 0.34836 0.89137 0.19004 0.0
O200 O 0.32523 0.95554 0.18825 0.0
Co201 Co 0.3745 0.93085 0.14184 0.0
O202 O 0.37463 0.95971 0.17854 0.0
C203 C 0.322 0.94016 0.09948 0.0
C204 C 0.26508 0.89497 0.16232 0.0
C205 C 0.35075 0.96828 0.19266 0.0
O206 O 0.30429 0.93808 0.12406 0.0
O207 O 0.35005 0.93474 0.10108 0.0
O208 O 0.32326 0.89432 0.20564 0.0
O209 O 0.34831 0.90141 0.16063 0.0
Co210 Co 0.91922 0.69739 0.82727 0.0
O211 O 0.88635 0.72119 0.84211 0.0
O212 O 0.92637 0.73918 0.81697 0.0
C213 C 0.89189 0.66124 0.80296 0.0
O214 O 0.95711 0.67903 0.8083 0.0
Co215 Co 0.9262 0.63301 0.85531 0.0
O216 O 0.95981 0.63081 0.82383 0.0
C217 C 0.94129 0.68486 0.89599 0.0
C218 C 0.90063 0.7441 0.83071 0.0
C219 C 0.96993 0.65323 0.8081 0.0
O220 O 0.93949 0.70207 0.87095 0.0
O221 O 0.93352 0.65734 0.89563 0.0
O222 O 0.89742 0.68612 0.7878 0.0
O223 O 0.90004 0.66057 0.83312 0.0
H224 H 0.24628 0.34673 0.38324 0.0
H225 H 0.28368 0.40581 0.31072 0.0
H226 H 0.29082 0.31649 0.3818 0.0
H227 H 0.32948 0.3756 0.30991 0.0
H228 H 0.38064 0.28487 0.28647 0.0
H229 H 0.34559 0.32677 0.29108 0.0
H230 H 0.34146 0.31296 0.39531 0.0
H231 H 0.37474 0.27023 0.3901 0.0
C232 C 0.26434 0.35363 0.36737 0.0
C233 C 0.26132 0.37862 0.34698 0.0
C234 C 0.29018 0.33635 0.36675 0.0
C235 C 0.31403 0.34359 0.34587 0.0
C236 C 0.3115 0.36924 0.32614 0.0
C237 C 0.28539 0.38667 0.32677 0.0
C238 C 0.37268 0.2914 0.31036 0.0
C239 C 0.37994 0.27428 0.3379 0.0
C240 C 0.35267 0.31542 0.31308 0.0
C241 C 0.34005 0.32284 0.3435 0.0
C242 C 0.34989 0.30732 0.37136 0.0
C243 C 0.36916 0.283 0.36849 0.0
H244 H 0.40792 0.71444 0.6955 0.0
H245 H 0.34937 0.74967 0.62109 0.0
H246 H 0.379 0.66772 0.69583 0.0
H247 H 0.32069 0.70406 0.62174 0.0
H248 H 0.27753 0.61975 0.61199 0.0
H249 H 0.32122 0.65211 0.60831 0.0
H250 H 0.32805 0.65269 0.71342 0.0
H251 H 0.28509 0.61884 0.71671 0.0
C252 C 0.38918 0.71206 0.67899 0.0
C253 C 0.38078 0.73574 0.65841 0.0
C254 C 0.3726 0.68543 0.67925 0.0
C255 C 0.34768 0.68203 0.65863 0.0
C256 C 0.34009 0.70551 0.63744 0.0
C257 C 0.35639 0.73192 0.63734 0.0
C258 C 0.28917 0.62592 0.63416 0.0
C259 C 0.27815 0.61708 0.66459 0.0
C260 C 0.314 0.64461 0.63215 0.0
C261 C 0.32762 0.65563 0.66062 0.0
C262 C 0.31814 0.64456 0.69104 0.0
C263 C 0.29355 0.62526 0.69298 0.0
H264 H 0.60412 0.71109 0.31805 0.0
H265 H 0.67181 0.76307 0.36723 0.0
H266 H 0.63552 0.66633 0.32371 0.0
H267 H 0.70299 0.71943 0.37196 0.0
H268 H 0.74953 0.6388 0.39887 0.0
H269 H 0.70783 0.67365 0.39979 0.0
H270 H 0.68211 0.64518 0.30309 0.0
H271 H 0.72311 0.60899 0.30313 0.0
C272 C 0.62557 0.71295 0.3301 0.0
C273 C 0.63542 0.74061 0.34226 0.0
C274 C 0.64358 0.68738 0.33327 0.0
C275 C 0.67166 0.68911 0.34872 0.0
C276 C 0.68122 0.71688 0.36078 0.0
C277 C 0.66336 0.74214 0.35773 0.0
C278 C 0.73447 0.63946 0.37819 0.0
C279 C 0.73969 0.62154 0.35079 0.0
C280 C 0.7107 0.65959 0.37855 0.0
C281 C 0.69212 0.66292 0.35109 0.0
C282 C 0.69595 0.64326 0.32465 0.0
C283 C 0.71946 0.62256 0.32462 0.0
H284 H 0.62834 0.26568 0.60789 0.0
H285 H 0.60892 0.28444 0.70873 0.0
H286 H 0.66137 0.30883 0.6056 0.0
H287 H 0.64354 0.32696 0.70721 0.0
H288 H 0.70777 0.40638 0.69005 0.0
H289 H 0.66196 0.37605 0.68639 0.0
H290 H 0.70991 0.31061 0.62936 0.0
H291 H 0.75447 0.34054 0.6324 0.0
C292 C 0.6308 0.27949 0.62941 0.0
C293 C 0.61652 0.27171 0.65856 0.0
C294 C 0.64982 0.30408 0.62822 0.0
C295 C 0.65579 0.32081 0.6565 0.0
C296 C 0.63944 0.31455 0.68501 0.0
C297 C 0.61972 0.2902 0.68595 0.0
C298 C 0.70818 0.3857 0.6764 0.0
C299 C 0.73473 0.37582 0.6616 0.0
C300 C 0.68207 0.36831 0.67441 0.0
C301 C 0.68214 0.34106 0.65726 0.0
C302 C 0.70867 0.33176 0.64208 0.0
C303 C 0.73447 0.34887 0.64415 0.0
H304 H 0.75221 0.84571 0.8702 0.0
H305 H 0.79413 0.90761 0.80364 0.0
H306 H 0.79676 0.81549 0.8708 0.0
H307 H 0.8399 0.87714 0.80476 0.0
H308 H 0.89052 0.78473 0.78214 0.0
H309 H 0.85627 0.82745 0.78514 0.0
H310 H 0.84701 0.81324 0.88887 0.0
H311 H 0.87964 0.76985 0.88526 0.0
C312 C 0.77121 0.85315 0.856 0.0
C313 C 0.76955 0.87901 0.83675 0.0
C314 C 0.79703 0.8359 0.85662 0.0
C315 C 0.82216 0.84396 0.83808 0.0
C316 C 0.8209 0.87028 0.81928 0.0
C317 C 0.79481 0.8878 0.81877 0.0
C318 C 0.88174 0.79142 0.80563 0.0
C319 C 0.88729 0.774 0.83343 0.0
C320 C 0.86218 0.81588 0.80741 0.0
C321 C 0.84829 0.82334 0.83713 0.0
C322 C 0.85658 0.8076 0.86542 0.0
C323 C 0.87544 0.7829 0.86347 0.0
H324 H 0.78208 0.11845 0.19798 0.0
H325 H 0.7591 0.13601 0.09774 0.0
H326 H 0.82463 0.15255 0.19354 0.0
H327 H 0.80252 0.16834 0.09232 0.0
H328 H 0.9038 0.21337 0.17523 0.0
H329 H 0.87181 0.16899 0.17295 0.0
H330 H 0.81027 0.21679 0.11055 0.0
H331 H 0.84243 0.25998 0.11182 0.0
C332 C 0.78685 0.1288 0.17469 0.0
C333 C 0.76723 0.12511 0.14833 0.0
C334 C 0.81127 0.14828 0.17204 0.0
C335 C 0.81666 0.16387 0.14276 0.0
C336 C 0.79851 0.15762 0.11558 0.0
C337 C 0.77378 0.13889 0.11852 0.0
C338 C 0.88369 0.21403 0.16055 0.0
C339 C 0.8756 0.24021 0.14378 0.0
C340 C 0.86525 0.1887 0.15942 0.0
C341 C 0.83838 0.18913 0.14153 0.0
C342 C 0.83101 0.21514 0.12401 0.0
C343 C 0.84941 0.24019 0.12498 0.0
H344 H 0.16726 0.25607 0.86445 0.0
H345 H 0.09845 0.20801 0.81236 0.0
H346 H 0.19627 0.21104 0.86919 0.0
H347 H 0.12795 0.1618 0.81767 0.0
H348 H 0.21838 0.10614 0.79614 0.0
H349 H 0.17633 0.14121 0.79666 0.0
H350 H 0.19676 0.1637 0.89664 0.0
H351 H 0.2395 0.13005 0.89533 0.0
C352 C 0.15812 0.23573 0.85421 0.0
C353 C 0.13053 0.23568 0.83795 0.0
C354 C 0.1747 0.20969 0.8573 0.0
C355 C 0.16423 0.18262 0.84433 0.0
C356 C 0.13653 0.18232 0.82803 0.0
C357 C 0.11967 0.20868 0.82502 0.0
C358 C 0.21319 0.11796 0.81847 0.0
C359 C 0.23231 0.11594 0.84553 0.0
C360 C 0.18911 0.13798 0.81881 0.0
C361 C 0.18374 0.15582 0.84641 0.0
C362 C 0.20087 0.15093 0.87467 0.0
C363 C 0.22522 0.13156 0.87406 0.0
H364 H 0.22084 0.88757 0.20779 0.0
H365 H 0.2449 0.86719 0.10851 0.0
H366 H 0.17887 0.85241 0.20422 0.0
H367 H 0.20235 0.83366 0.1041 0.0
H368 H 0.16497 0.74211 0.12647 0.0
H369 H 0.19694 0.78541 0.12624 0.0
H370 H 0.13122 0.83477 0.18147 0.0
H371 H 0.09902 0.79028 0.1825 0.0
C372 C 0.21648 0.8763 0.18491 0.0
C373 C 0.23624 0.87955 0.15859 0.0
C374 C 0.19244 0.85625 0.18279 0.0
C375 C 0.18767 0.8396 0.15411 0.0
C376 C 0.20591 0.84531 0.1269 0.0
C377 C 0.23018 0.86467 0.1293 0.0
C378 C 0.15704 0.76219 0.13838 0.0
C379 C 0.12941 0.76269 0.15453 0.0
C380 C 0.17535 0.78727 0.13798 0.0
C381 C 0.16659 0.81384 0.15349 0.0
C382 C 0.13868 0.81464 0.16935 0.0
C383 C 0.12019 0.78926 0.16979 0.0
H384 H 0.0973 0.50266 0.31247 0.0
H385 H 0.18134 0.48346 0.26493 0.0
H386 H 0.09288 0.54859 0.28142 0.0
H387 H 0.17641 0.52983 0.2332 0.0
H388 H 0.126 0.59819 0.15983 0.0
H389 H 0.13652 0.55173 0.18937 0.0
H390 H 0.12484 0.59794 0.28074 0.0
H391 H 0.11482 0.64438 0.25142 0.0
C392 C 0.11476 0.50804 0.29517 0.0
C393 C 0.13973 0.48928 0.29121 0.0
C394 C 0.11226 0.53453 0.27757 0.0
C395 C 0.13441 0.54281 0.25519 0.0
C396 C 0.15906 0.52385 0.25041 0.0
C397 C 0.16187 0.49742 0.26855 0.0
C398 C 0.12605 0.59846 0.18623 0.0
C399 C 0.11947 0.62484 0.20336 0.0
C400 C 0.13222 0.57195 0.20306 0.0
C401 C 0.13138 0.57133 0.23725 0.0
C402 C 0.12548 0.59786 0.25434 0.0
C403 C 0.11982 0.62442 0.23757 0.0
H404 H 0.51105 0.89689 0.67208 0.0
H405 H 0.48961 0.8189 0.72973 0.0
H406 H 0.55707 0.90332 0.70265 0.0
H407 H 0.53608 0.82561 0.76058 0.0
H408 H 0.60376 0.87704 0.82988 0.0
H409 H 0.55803 0.86524 0.79982 0.0
H410 H 0.60577 0.87479 0.709 0.0
H411 H 0.65146 0.88645 0.73893 0.0
C412 C 0.51607 0.88113 0.69136 0.0
C413 C 0.49657 0.85736 0.69847 0.0
C414 C 0.5426 0.88472 0.70869 0.0
C415 C 0.55021 0.86485 0.73379 0.0
C416 C 0.53066 0.84127 0.74133 0.0
C417 C 0.50416 0.8374 0.72363 0.0
C418 C 0.60452 0.87632 0.8035 0.0
C419 C 0.6311 0.88282 0.78671 0.0
C420 C 0.57841 0.86942 0.78635 0.0
C421 C 0.57837 0.86927 0.75213 0.0
C422 C 0.60515 0.87504 0.7354 0.0
C423 C 0.6313 0.8816 0.75252 0.0
H424 H 0.88617 0.40629 0.15203 0.0
H425 H 0.86103 0.35652 0.23804 0.0
H426 H 0.87418 0.4528 0.17971 0.0
H427 H 0.84862 0.40348 0.26569 0.0
H428 H 0.80969 0.49648 0.29384 0.0
H429 H 0.81316 0.45054 0.26149 0.0
H430 H 0.90094 0.4768 0.2287 0.0
H431 H 0.89772 0.52228 0.26116 0.0
C432 C 0.87774 0.40523 0.17674 0.0
C433 C 0.87494 0.37775 0.19305 0.0
C434 C 0.87089 0.4319 0.19254 0.0
C435 C 0.86072 0.4317 0.22485 0.0
C436 C 0.8563 0.40418 0.24067 0.0
C437 C 0.86349 0.37737 0.22492 0.0
C438 C 0.82948 0.49262 0.27927 0.0
C439 C 0.85346 0.51292 0.27999 0.0
C440 C 0.83154 0.46628 0.26104 0.0
C441 C 0.85732 0.46019 0.24272 0.0
C442 C 0.88073 0.48107 0.24245 0.0
C443 C 0.87892 0.50704 0.26108 0.0
H444 H 0.50909 0.19062 0.73216 0.0
H445 H 0.48859 0.11023 0.67826 0.0
H446 H 0.46171 0.18583 0.76159 0.0
H447 H 0.44151 0.10571 0.70743 0.0
H448 H 0.34704 0.1218 0.74294 0.0
H449 H 0.39223 0.13414 0.71222 0.0
H450 H 0.44014 0.14777 0.80235 0.0
H451 H 0.3951 0.13528 0.83307 0.0
C452 C 0.49451 0.17202 0.72653 0.0
C453 C 0.5027 0.15074 0.70297 0.0
C454 C 0.46745 0.16929 0.74338 0.0
C455 C 0.44789 0.14554 0.73656 0.0
C456 C 0.45597 0.12447 0.71284 0.0
C457 C 0.48311 0.12694 0.69638 0.0
C458 C 0.36707 0.12796 0.75616 0.0
C459 C 0.36765 0.12745 0.79036 0.0
C460 C 0.39294 0.13483 0.7386 0.0
C461 C 0.41968 0.14172 0.75495 0.0
C462 C 0.41979 0.14272 0.78915 0.0
C463 C 0.39406 0.13546 0.80669 0.0
H464 H 0.19449 0.49386 0.69919 0.0
H465 H 0.10402 0.52193 0.71946 0.0
H466 H 0.18535 0.44701 0.7285 0.0
H467 H 0.09522 0.47544 0.74916 0.0
H468 H 0.10672 0.40438 0.83072 0.0
H469 H 0.11823 0.45093 0.80244 0.0
H470 H 0.14768 0.40103 0.71844 0.0
H471 H 0.13551 0.35419 0.74649 0.0
C472 C 0.17279 0.49014 0.71015 0.0
C473 C 0.14994 0.5115 0.70703 0.0
C474 C 0.16755 0.46332 0.72668 0.0
C475 C 0.1396 0.45775 0.74096 0.0
C476 C 0.11699 0.47933 0.73843 0.0
C477 C 0.12201 0.50583 0.72137 0.0
C478 C 0.11568 0.40327 0.80626 0.0
C479 C 0.12009 0.37567 0.79072 0.0
C480 C 0.12219 0.42991 0.7901 0.0
C481 C 0.13379 0.42944 0.75835 0.0
C482 C 0.13889 0.40187 0.74302 0.0
C483 C 0.13182 0.37518 0.75898 0.0
H484 H 0.40423 0.89154 0.16414 0.0
H485 H 0.35553 0.86722 0.25111 0.0
H486 H 0.45097 0.87793 0.19064 0.0
H487 H 0.4027 0.85302 0.2775 0.0
H488 H 0.49572 0.80809 0.29985 0.0
H489 H 0.44867 0.81467 0.26962 0.0
H490 H 0.47679 0.90301 0.24076 0.0
H491 H 0.52317 0.89675 0.27124 0.0
C492 C 0.40344 0.88304 0.18884 0.0
C493 C 0.37619 0.88078 0.20569 0.0
C494 C 0.43024 0.87521 0.20394 0.0
C495 C 0.43039 0.86449 0.23607 0.0
C496 C 0.4031 0.86104 0.25259 0.0
C497 C 0.3762 0.86932 0.23759 0.0
C498 C 0.49194 0.82867 0.28658 0.0
C499 C 0.51302 0.85192 0.2878 0.0
C500 C 0.46501 0.83252 0.2696 0.0
C501 C 0.45918 0.85935 0.25297 0.0
C502 C 0.48081 0.88205 0.25322 0.0
C503 C 0.5073 0.87848 0.27069 0.0
H504 H 0.88863 0.51311 0.6735 0.0
H505 H 0.81385 0.49142 0.73575 0.0
H506 H 0.8948 0.56043 0.70155 0.0
H507 H 0.82027 0.53929 0.76419 0.0
H508 H 0.87604 0.6076 0.82963 0.0
H509 H 0.86126 0.5621 0.80084 0.0
H510 H 0.86727 0.60899 0.7091 0.0
H511 H 0.88199 0.65444 0.73779 0.0
C512 C 0.87342 0.51847 0.69317 0.0
C513 C 0.85083 0.49839 0.70252 0.0
C514 C 0.87683 0.54576 0.70906 0.0
C515 C 0.85797 0.5536 0.73497 0.0
C516 C 0.83517 0.53372 0.74431 0.0
C517 C 0.83143 0.50644 0.72798 0.0
C518 C 0.87386 0.60826 0.80335 0.0
C519 C 0.88042 0.6345 0.78593 0.0
C520 C 0.86521 0.58228 0.78692 0.0
C521 C 0.86326 0.58198 0.75274 0.0
C522 C 0.86885 0.60852 0.73545 0.0
C523 C 0.87722 0.63454 0.75188 0.0
H524 H 0.65078 0.12867 0.24897 0.0
H525 H 0.60096 0.13146 0.15881 0.0
H526 H 0.60549 0.1412 0.27916 0.0
H527 H 0.55562 0.14424 0.18913 0.0
H528 H 0.48667 0.19147 0.25839 0.0
H529 H 0.53302 0.18547 0.22704 0.0
H530 H 0.55785 0.11084 0.28791 0.0
H531 H 0.51196 0.11648 0.31882 0.0
C532 C 0.63026 0.13235 0.23556 0.0
C533 C 0.62936 0.1289 0.20155 0.0
C534 C 0.60433 0.13943 0.25285 0.0
C535 C 0.57705 0.14354 0.23647 0.0
C536 C 0.5764 0.14137 0.20233 0.0
C537 C 0.60229 0.13391 0.18503 0.0
C538 C 0.50206 0.17382 0.26503 0.0
C539 C 0.49552 0.1544 0.29103 0.0
C540 C 0.52849 0.17036 0.24706 0.0
C541 C 0.54907 0.14782 0.25523 0.0
C542 C 0.54258 0.12863 0.28132 0.0
C543 C 0.51611 0.13175 0.29885 0.0
H544 H 0.61185 0.01244 0.82146 0.0
H545 H 0.68795 0.99106 0.76102 0.0
H546 H 0.60496 0.05891 0.79189 0.0
H547 H 0.68076 0.03806 0.73103 0.0
H548 H 0.62484 0.10515 0.66368 0.0
H549 H 0.63932 0.05985 0.69323 0.0
H550 H 0.63282 0.1077 0.78427 0.0
H551 H 0.61851 0.15289 0.75488 0.0
C552 C 0.62716 0.01764 0.80182 0.0
C553 C 0.6504 0.99793 0.79351 0.0
C554 C 0.62332 0.04444 0.78506 0.0
C555 C 0.64238 0.05215 0.75927 0.0
C556 C 0.6657 0.03256 0.7508 0.0
C557 C 0.66987 0.00579 0.76801 0.0
C558 C 0.62682 0.10604 0.68997 0.0
C559 C 0.62032 0.13249 0.707 0.0
C560 C 0.63529 0.08019 0.70683 0.0
C561 C 0.63705 0.08026 0.74102 0.0
C562 C 0.63139 0.10696 0.75791 0.0
C563 C 0.62326 0.13284 0.74108 0.0
H564 H 0.09381 0.38178 0.34657 0.0
H565 H 0.14215 0.36171 0.2581 0.0
H566 H 0.047 0.36904 0.31969 0.0
H567 H 0.095 0.34841 0.23134 0.0
H568 H 0.0034 0.3075 0.20319 0.0
H569 H 0.04919 0.31081 0.2359 0.0
H570 H 0.02132 0.39706 0.27165 0.0
H571 H 0.97601 0.39406 0.23869 0.0
C572 C 0.09452 0.3743 0.3215 0.0
C573 C 0.12163 0.37318 0.30426 0.0
C574 C 0.06769 0.36698 0.30619 0.0
C575 C 0.06745 0.35793 0.27348 0.0
C576 C 0.09468 0.35517 0.25669 0.0
C577 C 0.12158 0.3629 0.27192 0.0
C578 C 0.00682 0.32685 0.21858 0.0
C579 C 0.98622 0.35056 0.21845 0.0
C580 C 0.03307 0.32883 0.23701 0.0
C581 C 0.03872 0.3542 0.25614 0.0
C582 C 0.01738 0.37717 0.25725 0.0
C583 C 0.99151 0.37549 0.23837 0.0
H584 H 0.39826 0.02573 0.76032 0.0
H585 H 0.31026 0.99679 0.78998 0.0
H586 H 0.40431 0.97999 0.72868 0.0
H587 H 0.31657 0.9508 0.75848 0.0
H588 H 0.36624 0.85842 0.74081 0.0
H589 H 0.35312 0.90605 0.76624 0.0
H590 H 0.38089 0.95281 0.67936 0.0
H591 H 0.39362 0.90531 0.65372 0.0
C592 C 0.38009 0.00974 0.75978 0.0
C593 C 0.35385 0.01476 0.77773 0.0
C594 C 0.38351 0.98366 0.74155 0.0
C595 C 0.36094 0.96189 0.74131 0.0
C596 C 0.33434 0.96722 0.75847 0.0
C597 C 0.33069 0.99358 0.77628 0.0
C598 C 0.36922 0.87885 0.72703 0.0
C599 C 0.38115 0.87818 0.69539 0.0
C600 C 0.36156 0.90604 0.7415 0.0
C601 C 0.36608 0.93302 0.72473 0.0
C602 C 0.37737 0.9323 0.69283 0.0
C603 C 0.38461 0.90511 0.67819 0.0
H604 H 0.85278 0.63921 0.25464 0.0
H605 H 0.90655 0.61576 0.33836 0.0
H606 H 0.89836 0.65245 0.2246 0.0
H607 H 0.95165 0.62833 0.30822 0.0
H608 H 0.0177 0.60512 0.22329 0.0
H609 H 0.9725 0.60057 0.25606 0.0
H610 H 0.94654 0.68999 0.22885 0.0
H611 H 0.99243 0.69489 0.19629 0.0
C612 C 0.8742 0.63724 0.26673 0.0
C613 C 0.8761 0.62607 0.2987 0.0
C614 C 0.90021 0.6449 0.24961 0.0
C615 C 0.92841 0.64115 0.26411 0.0
C616 C 0.93015 0.63117 0.29645 0.0
C617 C 0.90429 0.62395 0.31364 0.0
C618 C 0.0025 0.62392 0.22447 0.0
C619 C 0.00856 0.65037 0.20728 0.0
C620 C 0.97671 0.62134 0.24329 0.0
C621 C 0.95613 0.64493 0.2449 0.0
C622 C 0.96211 0.67149 0.22786 0.0
C623 C 0.98837 0.67434 0.20949 0.0
H624 H 0.69324 1.00038 0.20201 0.0
H625 H 0.60224 0.02493 0.22463 0.0
H626 H 0.68726 0.95426 0.23359 0.0
H627 H 0.59652 0.9792 0.25643 0.0
H628 H 0.60831 0.90808 0.33583 0.0
H629 H 0.61928 0.9552 0.30846 0.0
H630 H 0.65299 0.90694 0.22522 0.0
H631 H 0.64153 0.85956 0.25238 0.0
C632 C 0.67217 0.99616 0.21415 0.0
C633 C 0.64817 0.01619 0.21082 0.0
C634 C 0.66871 0.96972 0.23197 0.0
C635 C 0.64143 0.96323 0.24732 0.0
C636 C 0.61784 0.98378 0.24498 0.0
C637 C 0.62109 0.00987 0.22669 0.0
C638 C 0.61818 0.90746 0.31176 0.0
C639 C 0.62384 0.88012 0.29612 0.0
C640 C 0.62442 0.93444 0.29613 0.0
C641 C 0.63693 0.93464 0.26478 0.0
C642 C 0.64354 0.90735 0.24951 0.0
C643 C 0.63684 0.8803 0.26496 0.0
H644 H 0.89944 0.37572 0.67204 0.0
H645 H 0.85065 0.38379 0.76243 0.0
H646 H 0.94419 0.36134 0.7023 0.0
H647 H 0.89542 0.3693 0.79267 0.0
H648 H 0.99095 0.38835 0.83083 0.0
H649 H 0.94413 0.39515 0.80193 0.0
H650 H 0.96561 0.32093 0.73903 0.0
H651 H 0.01302 0.31399 0.76813 0.0
C652 C 0.89822 0.37417 0.69836 0.0
C653 C 0.87164 0.3811 0.71493 0.0
C654 C 0.92377 0.36571 0.71563 0.0
C655 C 0.92329 0.36426 0.74982 0.0
C656 C 0.89648 0.37048 0.76632 0.0
C657 C 0.87086 0.37871 0.74903 0.0
C658 C 0.98577 0.37333 0.81092 0.0
C659 C 0.00585 0.35072 0.80164 0.0
C660 C 0.95875 0.3771 0.79456 0.0
C661 C 0.95119 0.35854 0.76829 0.0
C662 C 0.971 0.33564 0.75913 0.0
C663 C 0.99802 0.3316 0.77585 0.0
H664 H 0.39144 0.105 0.33662 0.0
H665 H 0.36455 0.15266 0.24983 0.0
H666 H 0.37888 0.05777 0.31045 0.0
H667 H 0.35141 0.10511 0.22384 0.0
H668 H 0.30837 0.01152 0.20236 0.0
H669 H 0.31444 0.05859 0.23243 0.0
H670 H 0.40374 0.03226 0.25985 0.0
H671 H 0.39799 0.98578 0.22947 0.0
C672 C 0.38256 0.10545 0.31208 0.0
C673 C 0.37927 0.13255 0.29515 0.0
C674 C 0.37538 0.07839 0.29714 0.0
C675 C 0.36426 0.07786 0.26517 0.0
C676 C 0.35977 0.10498 0.24863 0.0
C677 C 0.36742 0.13212 0.26342 0.0
C678 C 0.3291 0.01569 0.21521 0.0
C679 C 0.35273 0.99505 0.21361 0.0
C680 C 0.33264 0.04263 0.23214 0.0
C681 C 0.35955 0.04896 0.24838 0.0
C682 C 0.38271 0.02783 0.2477 0.0
C683 C 0.37944 1.0013 0.23025 0.0
H684 H 0.11335 0.63515 0.66635 0.0
H685 H 0.15482 0.61592 0.75911 0.0
H686 H 0.06653 0.647 0.69411 0.0
H687 H 0.10792 0.62765 0.78682 0.0
H688 H 0.00984 0.60759 0.81433 0.0
H689 H 0.05767 0.60154 0.78718 0.0
H690 H 0.04352 0.68397 0.73483 0.0
H691 H 0.99528 0.69031 0.76225 0.0
C692 C 0.11254 0.63379 0.6927 0.0
C693 C 0.13769 0.62449 0.71057 0.0
C694 C 0.08579 0.6407 0.70856 0.0
C695 C 0.08356 0.63808 0.74257 0.0
C696 C 0.10896 0.62959 0.76053 0.0
C697 C 0.13582 0.62303 0.74469 0.0
C698 C 0.01674 0.62448 0.79698 0.0
C699 C 0.9986 0.64945 0.79044 0.0
C700 C 0.04433 0.62109 0.78166 0.0
C701 C 0.05442 0.64239 0.75912 0.0
C702 C 0.03624 0.6672 0.75212 0.0
C703 C 0.00868 0.67083 0.76784 0.0
H704 H 0.17636 0.59144 0.53832 0.0
H705 H 0.22338 0.52089 0.58842 0.0
H706 H 0.18144 0.56443 0.48708 0.0
H707 H 0.22762 0.4932 0.53703 0.0
H708 H 0.22863 0.45554 0.42863 0.0
H709 H 0.24251 0.48959 0.47351 0.0
H710 H 0.1504 0.51717 0.48169 0.0
H711 H 0.13667 0.48392 0.43813 0.0
C712 C 0.18857 0.57055 0.53812 0.0
C713 C 0.19898 0.55792 0.56727 0.0
C714 C 0.19151 0.55511 0.50885 0.0
C715 C 0.2043 0.52645 0.50832 0.0
C716 C 0.2177 0.51527 0.5368 0.0
C717 C 0.21518 0.53105 0.56617 0.0
C718 C 0.21151 0.46899 0.44011 0.0
C719 C 0.18153 0.46681 0.42997 0.0
C720 C 0.21944 0.48841 0.46565 0.0
C721 C 0.19759 0.50636 0.48061 0.0
C722 C 0.16785 0.50413 0.4702 0.0
C723 C 0.15993 0.48466 0.44539 0.0
H724 H 0.52069 0.77923 0.40239 0.0
H725 H 0.57703 0.83243 0.46501 0.0
H726 H 0.48904 0.76653 0.44925 0.0
H727 H 0.54617 0.81882 0.51186 0.0
H728 H 0.48971 0.78135 0.59252 0.0
H729 H 0.5223 0.77041 0.54598 0.0
H730 H 0.45894 0.81261 0.48142 0.0
H731 H 0.42697 0.82453 0.52791 0.0
C732 C 0.52697 0.78715 0.42638 0.0
C733 C 0.55109 0.80692 0.43025 0.0
C734 C 0.5089 0.77992 0.45305 0.0
C735 C 0.51536 0.79164 0.48399 0.0
C736 C 0.54102 0.80923 0.48827 0.0
C737 C 0.55853 0.81714 0.46152 0.0
C738 C 0.4823 0.7873 0.56822 0.0
C739 C 0.45603 0.80394 0.56365 0.0
C740 C 0.50093 0.78109 0.54172 0.0
C741 C 0.49298 0.79066 0.51031 0.0
C742 C 0.46532 0.80473 0.50541 0.0
C743 C 0.44715 0.81167 0.53195 0.0
H744 H 0.86969 0.51639 0.43478 0.0
H745 H 0.77611 0.53914 0.42552 0.0
H746 H 0.85836 0.4838 0.47971 0.0
H747 H 0.76471 0.50569 0.47164 0.0
H748 H 0.78344 0.47729 0.58637 0.0
H749 H 0.77866 0.50375 0.53426 0.0
H750 H 0.83129 0.43529 0.48751 0.0
H751 H 0.83689 0.40957 0.53951 0.0
C752 C 0.84657 0.51452 0.4423 0.0
C753 C 0.82381 0.53057 0.42644 0.0
C754 C 0.84005 0.49542 0.46795 0.0
C755 C 0.81059 0.49172 0.47878 0.0
C756 C 0.78761 0.50798 0.4635 0.0
C757 C 0.79414 0.52708 0.43722 0.0
C758 C 0.79303 0.46742 0.56466 0.0
C759 C 0.81105 0.44178 0.56692 0.0
C760 C 0.79023 0.48252 0.53487 0.0
C761 C 0.80519 0.47189 0.50709 0.0
C762 C 0.82005 0.44427 0.50874 0.0
C763 C 0.82323 0.42954 0.53844 0.0
H764 H 0.42391 0.18336 0.46253 0.0
H765 H 0.49145 0.22306 0.40125 0.0
H766 H 0.45507 0.19243 0.51052 0.0
H767 H 0.52321 0.23107 0.4493 0.0
H768 H 0.51735 0.22655 0.59165 0.0
H769 H 0.48741 0.23871 0.54331 0.0
H770 H 0.54198 0.1797 0.48544 0.0
H771 H 0.57125 0.16672 0.53375 0.0
C772 C 0.44502 0.19489 0.45955 0.0
C773 C 0.45536 0.20256 0.42836 0.0
C774 C 0.46277 0.20014 0.48693 0.0
C775 C 0.49143 0.21239 0.4834 0.0
C776 C 0.50106 0.22178 0.45249 0.0
C777 C 0.4829 0.2173 0.42514 0.0
C778 C 0.52341 0.2168 0.56842 0.0
C779 C 0.54646 0.19553 0.56641 0.0
C780 C 0.5063 0.22376 0.54089 0.0
C781 C 0.51263 0.21024 0.51083 0.0
C782 C 0.537 0.19067 0.50834 0.0
C783 C 0.55358 0.18312 0.53596 0.0
H784 H 0.66128 0.0719 0.03183 0.0
H785 H 0.71728 0.01635 0.09246 0.0
H786 H 0.67289 0.04044 0.98474 0.0
H787 H 0.72791 0.98413 0.04539 0.0
H788 H 0.71965 0.98576 0.90394 0.0
H789 H 0.72718 0.01746 0.95201 0.0
H790 H 0.67754 0.95475 0.01058 0.0
H791 H 0.66897 0.92363 0.96242 0.0
C792 C 0.67651 0.0533 0.03488 0.0
C793 C 0.68838 0.04647 0.06565 0.0
C794 C 0.68325 0.03545 0.00799 0.0
C795 C 0.70134 0.01009 0.01164 0.0
C796 C 0.71414 0.0038 0.0421 0.0
C797 C 0.70808 0.02219 0.06887 0.0
C798 C 0.71124 0.97827 0.92731 0.0
C799 C 0.69365 0.95235 0.92958 0.0
C800 C 0.71548 0.99643 0.95467 0.0
C801 C 0.70298 0.98835 0.98476 0.0
C802 C 0.68761 0.96118 0.98761 0.0
C803 C 0.68266 0.94348 0.96013 0.0
H804 H 0.02486 0.28292 0.91357 0.0
H805 H 0.09896 0.32421 0.96347 0.0
H806 H 0.99888 0.27666 0.96558 0.0
H807 H 0.07387 0.31659 0.01555 0.0
H808 H 0.99801 0.36137 0.07229 0.0
H809 H 0.03132 0.34818 0.02867 0.0
H810 H 0.99264 0.25985 0.02434 0.0
H811 H 0.95832 0.27339 0.0689 0.0
C812 C 0.03617 0.28929 0.93587 0.0
C813 C 0.06353 0.30459 0.9347 0.0
C814 C 0.02135 0.28562 0.96565 0.0
C815 C 0.03402 0.2969 0.99449 0.0
C816 C 0.06326 0.3084 0.99356 0.0
C817 C 0.07768 0.31268 0.96385 0.0
C818 C 0.99646 0.33904 0.06229 0.0
C819 C 0.97518 0.31856 0.07383 0.0
C820 C 0.01601 0.33129 0.03751 0.0
C821 C 0.01498 0.30279 0.02334 0.0
C822 C 0.99401 0.28193 0.03499 0.0
C823 C 0.97441 0.28967 0.06037 0.0
H824 H 0.36789 0.02356 0.93345 0.0
H825 H 0.27396 0.04471 0.92408 0.0
H826 H 0.35724 0.99272 0.98029 0.0
H827 H 0.26334 0.01329 0.97206 0.0
H828 H 0.33452 0.91785 0.04009 0.0
H829 H 0.32855 0.94348 0.9881 0.0
H830 H 0.27981 0.01414 0.03591 0.0
H831 H 0.28518 0.98787 0.08823 0.0
C832 C 0.34489 0.02176 0.94142 0.0
C833 C 0.32178 0.03668 0.92493 0.0
C834 C 0.33878 0.00377 0.96816 0.0
C835 C 0.30942 1.00024 0.97942 0.0
C836 C 0.28614 0.01554 0.9636 0.0
C837 C 0.29224 0.03342 0.93624 0.0
C838 C 0.32161 0.93831 0.03929 0.0
C839 C 0.31069 0.95119 0.06805 0.0
C840 C 0.31821 0.95297 0.00961 0.0
C841 C 0.3043 0.98105 0.00823 0.0
C842 C 0.2906 0.99249 0.0364 0.0
C843 C 0.29369 0.97752 0.06625 0.0
H844 H 0.99088 0.71983 0.89934 0.0
H845 H 0.92647 0.67332 0.95897 0.0
H846 H 0.02244 0.72781 0.94751 0.0
H847 H 0.95743 0.68237 0.00717 0.0
H848 H 0.01722 0.71981 0.08939 0.0
H849 H 0.9866 0.73095 0.04119 0.0
H850 H 0.04463 0.67619 0.98234 0.0
H851 H 0.07447 0.66407 0.03058 0.0
C852 C 0.98295 0.71239 0.92293 0.0
C853 C 0.95636 0.69587 0.92556 0.0
C854 C 1.001 0.7169 0.95035 0.0
C855 C 0.99217 0.70578 0.98085 0.0
C856 C 0.96446 0.69141 0.9839 0.0
C857 C 0.94685 0.68615 0.95639 0.0
C858 C 0.02388 0.7109 0.06595 0.0
C859 C 0.04808 0.69103 0.06356 0.0
C860 C 0.00638 0.71723 0.03852 0.0
C861 C 0.01348 0.70451 0.00825 0.0
C862 C 0.039 0.6865 0.00542 0.0
C863 C 0.05595 0.67949 0.03295 0.0
loop_
_geom_bond_atom_site_label_1
_geom_bond_atom_site_label_2
_geom_bond_distance
_geom_bond_site_symmetry_2
_ccdc_geom_bond_type
Co0 O1 2.216 . S
Co0 O2 2.091 . S
Co0 O4 2.004 . S
Co0 O10 2.021 . S
Co0 O12 2.137 . S
Co0 O13 2.244 . S
O1 Co0 2.216 . S
O1 C8 1.247 . S
O2 Co0 2.091 . S
O2 C8 1.261 . S
C3 O12 1.247 . S
C3 O13 1.272 . S
O4 Co0 2.004 . S
O4 C9 1.259 . S
Co5 O6 2.061 . S
Co5 O11 2.052 . S
Co5 O13 2.135 . S
O6 Co5 2.061 . S
O6 C9 1.235 . S
C7 O10 1.238 . S
C7 O11 1.241 . S
C8 O1 1.247 . S
C8 O2 1.261 . S
C9 O4 1.259 . S
C9 O6 1.235 . S
O10 Co0 2.021 . S
O10 C7 1.238 . S
O11 Co5 2.052 . S
O11 C7 1.241 . S
O12 Co0 2.137 . S
O12 C3 1.247 . S
O13 Co0 2.244 . S
O13 C3 1.272 . S
O13 Co5 2.135 . S
Co14 O15 2.216 . S
Co14 O16 2.091 . S
Co14 O18 2.004 . S
Co14 O24 2.021 . S
Co14 O26 2.137 . S
Co14 O27 2.244 . S
O15 Co14 2.216 . S
O15 C22 1.247 . S
O16 Co14 2.091 . S
O16 C22 1.261 . S
C17 O26 1.247 . S
C17 O27 1.272 . S
O18 Co14 2.004 . S
O18 C23 1.259 . S
Co19 O20 2.061 . S
Co19 O25 2.052 . S
Co19 O27 2.135 . S
O20 Co19 2.061 . S
O20 C23 1.235 . S
C21 O24 1.238 . S
C21 O25 1.241 . S
C22 O15 1.247 . S
C22 O16 1.261 . S
C23 O18 1.259 . S
C23 O20 1.235 . S
O24 Co14 2.021 . S
O24 C21 1.238 . S
O25 Co19 2.052 . S
O25 C21 1.241 . S
O26 Co14 2.137 . S
O26 C17 1.247 . S
O27 Co14 2.244 . S
O27 C17 1.272 . S
O27 Co19 2.135 . S
Co28 O29 2.216 . S
Co28 O30 2.091 . S
Co28 O32 2.004 . S
Co28 O38 2.021 . S
Co28 O40 2.137 . S
Co28 O41 2.244 . S
O29 Co28 2.216 . S
O29 C36 1.247 . S
O30 Co28 2.091 . S
O30 C36 1.261 . S
C31 O40 1.247 . S
C31 O41 1.272 . S
O32 Co28 2.004 . S
O32 C37 1.259 . S
Co33 O34 2.061 . S
Co33 O39 2.052 . S
Co33 O41 2.135 . S
O34 Co33 2.061 . S
O34 C37 1.235 . S
C35 O38 1.238 . S
C35 O39 1.241 . S
C36 O29 1.247 . S
C36 O30 1.261 . S
C37 O32 1.259 . S
C37 O34 1.235 . S
O38 Co28 2.021 . S
O38 C35 1.238 . S
O39 Co33 2.052 . S
O39 C35 1.241 . S
O40 Co28 2.137 . S
O40 C31 1.247 . S
O41 Co28 2.244 . S
O41 C31 1.272 . S
O41 Co33 2.135 . S
Co42 O43 2.216 . S
Co42 O44 2.091 . S
Co42 O46 2.004 . S
Co42 O52 2.021 . S
Co42 O54 2.137 . S
Co42 O55 2.244 . S
O43 Co42 2.216 . S
O43 C50 1.247 . S
O44 Co42 2.091 . S
O44 C50 1.261 . S
C45 O54 1.247 . S
C45 O55 1.272 . S
O46 Co42 2.004 . S
O46 C51 1.259 . S
Co47 O48 2.061 . S
Co47 O53 2.052 . S
Co47 O55 2.135 . S
O48 Co47 2.061 . S
O48 C51 1.235 . S
C49 O52 1.238 . S
C49 O53 1.241 . S
C50 O43 1.247 . S
C50 O44 1.261 . S
C51 O46 1.259 . S
C51 O48 1.235 . S
O52 Co42 2.021 . S
O52 C49 1.238 . S
O53 Co47 2.052 . S
O53 C49 1.241 . S
O54 Co42 2.137 . S
O54 C45 1.247 . S
O55 Co42 2.244 . S
O55 C45 1.272 . S
O55 Co47 2.135 . S
Co56 O57 2.216 . S
Co56 O58 2.091 . S
Co56 O60 2.004 . S
Co56 O66 2.021 . S
Co56 O68 2.137 . S
Co56 O69 2.244 . S
O57 Co56 2.216 . S
O57 C64 1.247 . S
O58 Co56 2.091 . S
O58 C64 1.261 . S
C59 O68 1.247 . S
C59 O69 1.272 . S
O60 Co56 2.004 . S
O60 C65 1.259 . S
Co61 O62 2.061 . S
Co61 O67 2.052 . S
Co61 O69 2.135 . S
O62 Co61 2.061 . S
O62 C65 1.235 . S
C63 O66 1.238 . S
C63 O67 1.241 . S
C64 O57 1.247 . S
C64 O58 1.261 . S
C65 O60 1.259 . S
C65 O62 1.235 . S
O66 Co56 2.021 . S
O66 C63 1.238 . S
O67 Co61 2.052 . S
O67 C63 1.241 . S
O68 Co56 2.137 . S
O68 C59 1.247 . S
O69 Co56 2.244 . S
O69 C59 1.272 . S
O69 Co61 2.135 . S
Co70 O71 2.216 . S
Co70 O72 2.091 . S
Co70 O74 2.004 . S
Co70 O80 2.021 . S
Co70 O82 2.137 . S
Co70 O83 2.244 . S
O71 Co70 2.216 . S
O71 C78 1.247 . S
O72 Co70 2.091 . S
O72 C78 1.261 . S
C73 O82 1.247 . S
C73 O83 1.272 . S
O74 Co70 2.004 . S
O74 C79 1.259 . S
Co75 O76 2.061 . S
Co75 O81 2.052 . S
Co75 O83 2.135 . S
O76 Co75 2.061 . S
O76 C79 1.235 . S
C77 O80 1.238 . S
C77 O81 1.241 . S
C78 O71 1.247 . S
C78 O72 1.261 . S
C79 O74 1.259 . S
C79 O76 1.235 . S
O80 Co70 2.021 . S
O80 C77 1.238 . S
O81 Co75 2.052 . S
O81 C77 1.241 . S
O82 Co70 2.137 . S
O82 C73 1.247 . S
O83 Co70 2.244 . S
O83 C73 1.272 . S
O83 Co75 2.135 . S
Co84 O85 2.216 . S
Co84 O86 2.091 . S
Co84 O88 2.004 . S
Co84 O94 2.021 . S
Co84 O96 2.137 . S
Co84 O97 2.244 . S
O85 Co84 2.216 . S
O85 C92 1.247 . S
O86 Co84 2.091 . S
O86 C92 1.261 . S
C87 O96 1.247 . S
C87 O97 1.272 . S
O88 Co84 2.004 . S
O88 C93 1.259 . S
Co89 O90 2.061 . S
Co89 O95 2.052 . S
Co89 O97 2.135 . S
O90 Co89 2.061 . S
O90 C93 1.235 . S
C91 O94 1.238 . S
C91 O95 1.241 . S
C92 O85 1.247 . S
C92 O86 1.261 . S
C93 O88 1.259 . S
C93 O90 1.235 . S
O94 Co84 2.021 . S
O94 C91 1.238 . S
O95 Co89 2.052 . S
O95 C91 1.241 . S
O96 Co84 2.137 . S
O96 C87 1.247 . S
O97 Co84 2.244 . S
O97 C87 1.272 . S
O97 Co89 2.135 . S
Co98 O99 2.216 . S
Co98 O100 2.091 . S
Co98 O102 2.004 . S
Co98 O108 2.021 . S
Co98 O110 2.137 . S
Co98 O111 2.244 . S
O99 Co98 2.216 . S
O99 C106 1.247 . S
O100 Co98 2.091 . S
O100 C106 1.261 . S
C101 O110 1.247 . S
C101 O111 1.272 . S
O102 Co98 2.004 . S
O102 C107 1.259 . S
Co103 O104 2.061 . S
Co103 O109 2.052 . S
Co103 O111 2.135 . S
O104 Co103 2.061 . S
O104 C107 1.235 . S
C105 O108 1.238 . S
C105 O109 1.241 . S
C106 O99 1.247 . S
C106 O100 1.261 . S
C107 O102 1.259 . S
C107 O104 1.235 . S
O108 Co98 2.021 . S
O108 C105 1.238 . S
O109 Co103 2.052 . S
O109 C105 1.241 . S
O110 Co98 2.137 . S
O110 C101 1.247 . S
O111 Co98 2.244 . S
O111 C101 1.272 . S
O111 Co103 2.135 . S
Co112 O113 2.216 . S
Co112 O114 2.091 . S
Co112 O116 2.004 . S
Co112 O122 2.021 . S
Co112 O124 2.137 . S
Co112 O125 2.244 . S
O113 Co112 2.216 . S
O113 C120 1.247 . S
O114 Co112 2.091 . S
O114 C120 1.261 . S
C115 O124 1.247 . S
C115 O125 1.272 . S
O116 Co112 2.004 . S
O116 C121 1.259 1_565 S
Co117 O118 2.053 1_565 S
Co117 O123 2.052 . S
Co117 O125 2.135 . S
O118 Co117 2.053 1_545 S
O118 C121 1.236 . S
C119 O122 1.238 . S
C119 O123 1.241 . S
C120 O113 1.247 . S
C120 O114 1.261 . S
C121 O116 1.259 1_545 S
C121 O118 1.236 . S
O122 Co112 2.021 . S
O122 C119 1.238 . S
O123 Co117 2.052 . S
O123 C119 1.241 . S
O124 Co112 2.137 . S
O124 C115 1.247 . S
O125 Co112 2.244 . S
O125 C115 1.272 . S
O125 Co117 2.135 . S
Co126 O127 2.216 . S
Co126 O128 2.091 . S
Co126 O130 2.004 . S
Co126 O136 2.021 . S
Co126 O138 2.137 . S
Co126 O139 2.244 . S
O127 Co126 2.216 . S
O127 C134 1.247 . S
O128 Co126 2.091 . S
O128 C134 1.261 . S
C129 O138 1.247 . S
C129 O139 1.272 . S
O130 Co126 2.004 . S
O130 C135 1.259 1_655 S
Co131 O132 2.053 1_655 S
Co131 O137 2.052 . S
Co131 O139 2.135 . S
O132 Co131 2.053 1_455 S
O132 C135 1.236 . S
C133 O136 1.238 . S
C133 O137 1.241 . S
C134 O127 1.247 . S
C134 O128 1.261 . S
C135 O130 1.259 1_455 S
C135 O132 1.236 . S
O136 Co126 2.021 . S
O136 C133 1.238 . S
O137 Co131 2.052 . S
O137 C133 1.241 . S
O138 Co126 2.137 . S
O138 C129 1.247 . S
O139 Co126 2.244 . S
O139 C129 1.272 . S
O139 Co131 2.135 . S
Co140 O141 2.216 . S
Co140 O142 2.091 . S
Co140 O144 2.004 . S
Co140 O150 2.021 . S
Co140 O152 2.137 . S
Co140 O153 2.244 . S
O141 Co140 2.216 . S
O141 C148 1.247 . S
O142 Co140 2.091 . S
O142 C148 1.261 . S
C143 O152 1.247 . S
C143 O153 1.272 . S
O144 Co140 2.004 . S
O144 C149 1.259 1_545 S
Co145 O146 2.053 1_545 S
Co145 O151 2.052 . S
Co145 O153 2.135 . S
O146 Co145 2.053 1_565 S
O146 C149 1.236 . S
C147 O150 1.238 . S
C147 O151 1.241 . S
C148 O141 1.247 . S
C148 O142 1.261 . S
C149 O144 1.259 1_565 S
C149 O146 1.236 . S
O150 Co140 2.021 . S
O150 C147 1.238 . S
O151 Co145 2.052 . S
O151 C147 1.241 . S
O152 Co140 2.137 . S
O152 C143 1.247 . S
O153 Co140 2.244 . S
O153 C143 1.272 . S
O153 Co145 2.135 . S
Co154 O155 2.216 . S
Co154 O156 2.091 . S
Co154 O158 2.004 . S
Co154 O164 2.021 . S
Co154 O166 2.137 . S
Co154 O167 2.244 . S
O155 Co154 2.216 . S
O155 C162 1.247 . S
O156 Co154 2.091 . S
O156 C162 1.261 . S
C157 O166 1.247 . S
C157 O167 1.272 . S
O158 Co154 2.004 . S
O158 C163 1.259 1_455 S
Co159 O160 2.053 1_455 S
Co159 O165 2.052 . S
Co159 O167 2.135 . S
O160 Co159 2.053 1_655 S
O160 C163 1.236 . S
C161 O164 1.238 . S
C161 O165 1.241 . S
C162 O155 1.247 . S
C162 O156 1.261 . S
C163 O158 1.259 1_655 S
C163 O160 1.236 . S
O164 Co154 2.021 . S
O164 C161 1.238 . S
O165 Co159 2.052 . S
O165 C161 1.241 . S
O166 Co154 2.137 . S
O166 C157 1.247 . S
O167 Co154 2.244 . S
O167 C157 1.272 . S
O167 Co159 2.135 . S
Co168 O169 2.216 . S
Co168 O170 2.091 . S
Co168 O172 2.004 . S
Co168 O178 2.021 . S
Co168 O180 2.137 . S
Co168 O181 2.244 . S
O169 Co168 2.216 . S
O169 C176 1.247 . S
O170 Co168 2.091 . S
O170 C176 1.261 . S
C171 O180 1.247 . S
C171 O181 1.272 . S
O172 Co168 2.004 . S
O172 C177 1.259 1_545 S
Co173 O174 2.053 1_545 S
Co173 O179 2.052 . S
Co173 O181 2.135 . S
O174 Co173 2.053 1_565 S
O174 C177 1.236 . S
C175 O178 1.238 . S
C175 O179 1.241 . S
C176 O169 1.247 . S
C176 O170 1.261 . S
C177 O172 1.259 1_565 S
C177 O174 1.236 . S
O178 Co168 2.021 . S
O178 C175 1.238 . S
O179 Co173 2.052 . S
O179 C175 1.241 . S
O180 Co168 2.137 . S
O180 C171 1.247 . S
O181 Co168 2.244 . S
O181 C171 1.272 . S
O181 Co173 2.135 . S
Co182 O183 2.216 . S
Co182 O184 2.091 . S
Co182 O186 2.004 . S
Co182 O192 2.021 . S
Co182 O194 2.137 . S
Co182 O195 2.244 . S
O183 Co182 2.216 . S
O183 C190 1.247 . S
O184 Co182 2.091 . S
O184 C190 1.261 . S
C185 O194 1.247 . S
C185 O195 1.272 . S
O186 Co182 2.004 . S
O186 C191 1.259 1_455 S
Co187 O188 2.053 1_455 S
Co187 O193 2.052 . S
Co187 O195 2.135 . S
O188 Co187 2.053 1_655 S
O188 C191 1.236 . S
C189 O192 1.238 . S
C189 O193 1.241 . S
C190 O183 1.247 . S
C190 O184 1.261 . S
C191 O186 1.259 1_655 S
C191 O188 1.236 . S
O192 Co182 2.021 . S
O192 C189 1.238 . S
O193 Co187 2.052 . S
O193 C189 1.241 . S
O194 Co182 2.137 . S
O194 C185 1.247 . S
O195 Co182 2.244 . S
O195 C185 1.272 . S
O195 Co187 2.135 . S
Co196 O197 2.216 . S
Co196 O198 2.091 . S
Co196 O200 2.004 . S
Co196 O206 2.021 . S
Co196 O208 2.137 . S
Co196 O209 2.244 . S
O197 Co196 2.216 . S
O197 C204 1.247 . S
O198 Co196 2.091 . S
O198 C204 1.261 . S
C199 O208 1.247 . S
C199 O209 1.272 . S
O200 Co196 2.004 . S
O200 C205 1.259 1_565 S
Co201 O202 2.053 1_565 S
Co201 O207 2.052 . S
Co201 O209 2.135 . S
O202 Co201 2.053 1_545 S
O202 C205 1.236 . S
C203 O206 1.238 . S
C203 O207 1.241 . S
C204 O197 1.247 . S
C204 O198 1.261 . S
C205 O200 1.259 1_545 S
C205 O202 1.236 . S
O206 Co196 2.021 . S
O206 C203 1.238 . S
O207 Co201 2.052 . S
O207 C203 1.241 . S
O208 Co196 2.137 . S
O208 C199 1.247 . S
O209 Co196 2.244 . S
O209 C199 1.272 . S
O209 Co201 2.135 . S
Co210 O211 2.216 . S
Co210 O212 2.091 . S
Co210 O214 2.004 . S
Co210 O220 2.021 . S
Co210 O222 2.137 . S
Co210 O223 2.244 . S
O211 Co210 2.216 . S
O211 C218 1.247 . S
O212 Co210 2.091 . S
O212 C218 1.261 . S
C213 O222 1.247 . S
C213 O223 1.272 . S
O214 Co210 2.004 . S
O214 C219 1.259 1_655 S
Co215 O216 2.053 1_655 S
Co215 O221 2.052 . S
Co215 O223 2.135 . S
O216 Co215 2.053 1_455 S
O216 C219 1.236 . S
C217 O220 1.238 . S
C217 O221 1.241 . S
C218 O211 1.247 . S
C218 O212 1.261 . S
C219 O214 1.259 1_455 S
C219 O216 1.236 . S
O220 Co210 2.021 . S
O220 C217 1.238 . S
O221 Co215 2.052 . S
O221 C217 1.241 . S
O222 Co210 2.137 . S
O222 C213 1.247 . S
O223 Co210 2.244 . S
O223 C213 1.272 . S
O223 Co215 2.135 . S
H224 C232 0.950 . S
H225 C237 0.950 . S
H226 C234 0.950 . S
H227 C236 0.950 . S
H228 C238 0.950 . S
H229 C240 0.950 . S
H230 C242 0.950 . S
H231 C243 0.950 . S
C232 H224 0.950 . S
C232 C233 1.386 . S
C232 C234 1.391 . S
C233 C232 1.386 . S
C233 C237 1.393 . S
C234 H226 0.950 . S
C234 C232 1.391 . S
C234 C235 1.400 . S
C235 C234 1.400 . S
C235 C236 1.398 . S
C235 C241 1.491 . S
C236 H227 0.950 . S
C236 C235 1.398 . S
C236 C237 1.391 . S
C237 H225 0.950 . S
C237 C233 1.393 . S
C237 C236 1.391 . S
C238 H228 0.950 . S
C238 C239 1.386 . S
C238 C240 1.391 . S
C239 C238 1.386 . S
C239 C243 1.393 . S
C240 H229 0.950 . S
C240 C238 1.391 . S
C240 C241 1.400 . S
C241 C235 1.491 . S
C241 C240 1.400 . S
C241 C242 1.398 . S
C242 H230 0.950 . S
C242 C241 1.398 . S
C242 C243 1.391 . S
C243 H231 0.950 . S
C243 C239 1.393 . S
C243 C242 1.391 . S
H244 C252 0.950 . S
H245 C257 0.950 . S
H246 C254 0.950 . S
H247 C256 0.950 . S
H248 C258 0.950 . S
H249 C260 0.950 . S
H250 C262 0.950 . S
H251 C263 0.950 . S
C252 H244 0.950 . S
C252 C253 1.386 . S
C252 C254 1.391 . S
C253 C252 1.386 . S
C253 C257 1.393 . S
C254 H246 0.950 . S
C254 C252 1.391 . S
C254 C255 1.400 . S
C255 C254 1.400 . S
C255 C256 1.398 . S
C255 C261 1.491 . S
C256 H247 0.950 . S
C256 C255 1.398 . S
C256 C257 1.391 . S
C257 H245 0.950 . S
C257 C253 1.393 . S
C257 C256 1.391 . S
C258 H248 0.950 . S
C258 C259 1.386 . S
C258 C260 1.391 . S
C259 C258 1.386 . S
C259 C263 1.393 . S
C260 H249 0.950 . S
C260 C258 1.391 . S
C260 C261 1.400 . S
C261 C255 1.491 . S
C261 C260 1.400 . S
C261 C262 1.398 . S
C262 H250 0.950 . S
C262 C261 1.398 . S
C262 C263 1.391 . S
C263 H251 0.950 . S
C263 C259 1.393 . S
C263 C262 1.391 . S
H264 C272 0.950 . S
H265 C277 0.950 . S
H266 C274 0.950 . S
H267 C276 0.950 . S
H268 C278 0.950 . S
H269 C280 0.950 . S
H270 C282 0.950 . S
H271 C283 0.950 . S
C272 H264 0.950 . S
C272 C273 1.386 . S
C272 C274 1.391 . S
C273 C272 1.386 . S
C273 C277 1.393 . S
C274 H266 0.950 . S
C274 C272 1.391 . S
C274 C275 1.400 . S
C275 C274 1.400 . S
C275 C276 1.398 . S
C275 C281 1.491 . S
C276 H267 0.950 . S
C276 C275 1.398 . S
C276 C277 1.391 . S
C277 H265 0.950 . S
C277 C273 1.393 . S
C277 C276 1.391 . S
C278 H268 0.950 . S
C278 C279 1.386 . S
C278 C280 1.391 . S
C279 C278 1.386 . S
C279 C283 1.393 . S
C280 H269 0.950 . S
C280 C278 1.391 . S
C280 C281 1.400 . S
C281 C275 1.491 . S
C281 C280 1.400 . S
C281 C282 1.398 . S
C282 H270 0.950 . S
C282 C281 1.398 . S
C282 C283 1.391 . S
C283 H271 0.950 . S
C283 C279 1.393 . S
C283 C282 1.391 . S
H284 C292 0.950 . S
H285 C297 0.950 . S
H286 C294 0.950 . S
H287 C296 0.950 . S
H288 C298 0.950 . S
H289 C300 0.950 . S
H290 C302 0.950 . S
H291 C303 0.950 . S
C292 H284 0.950 . S
C292 C293 1.386 . S
C292 C294 1.391 . S
C293 C292 1.386 . S
C293 C297 1.393 . S
C294 H286 0.950 . S
C294 C292 1.391 . S
C294 C295 1.400 . S
C295 C294 1.400 . S
C295 C296 1.398 . S
C295 C301 1.491 . S
C296 H287 0.950 . S
C296 C295 1.398 . S
C296 C297 1.391 . S
C297 H285 0.950 . S
C297 C293 1.393 . S
C297 C296 1.391 . S
C298 H288 0.950 . S
C298 C299 1.386 . S
C298 C300 1.391 . S
C299 C298 1.386 . S
C299 C303 1.393 . S
C300 H289 0.950 . S
C300 C298 1.391 . S
C300 C301 1.400 . S
C301 C295 1.491 . S
C301 C300 1.400 . S
C301 C302 1.398 . S
C302 H290 0.950 . S
C302 C301 1.398 . S
C302 C303 1.391 . S
C303 H291 0.950 . S
C303 C299 1.393 . S
C303 C302 1.391 . S
H304 C312 0.950 . S
H305 C317 0.950 . S
H306 C314 0.950 . S
H307 C316 0.950 . S
H308 C318 0.950 . S
H309 C320 0.950 . S
H310 C322 0.950 . S
H311 C323 0.950 . S
C312 H304 0.950 . S
C312 C313 1.386 . S
C312 C314 1.391 . S
C313 C312 1.386 . S
C313 C317 1.393 . S
C314 H306 0.950 . S
C314 C312 1.391 . S
C314 C315 1.400 . S
C315 C314 1.400 . S
C315 C316 1.398 . S
C315 C321 1.491 . S
C316 H307 0.950 . S
C316 C315 1.398 . S
C316 C317 1.391 . S
C317 H305 0.950 . S
C317 C313 1.393 . S
C317 C316 1.391 . S
C318 H308 0.950 . S
C318 C319 1.386 . S
C318 C320 1.391 . S
C319 C318 1.386 . S
C319 C323 1.393 . S
C320 H309 0.950 . S
C320 C318 1.391 . S
C320 C321 1.400 . S
C321 C315 1.491 . S
C321 C320 1.400 . S
C321 C322 1.398 . S
C322 H310 0.950 . S
C322 C321 1.398 . S
C322 C323 1.391 . S
C323 H311 0.950 . S
C323 C319 1.393 . S
C323 C322 1.391 . S
H324 C332 0.950 . S
H325 C337 0.950 . S
H326 C334 0.950 . S
H327 C336 0.950 . S
H328 C338 0.950 . S
H329 C340 0.950 . S
H330 C342 0.950 . S
H331 C343 0.950 . S
C332 H324 0.950 . S
C332 C333 1.386 . S
C332 C334 1.391 . S
C333 C332 1.386 . S
C333 C337 1.393 . S
C334 H326 0.950 . S
C334 C332 1.391 . S
C334 C335 1.400 . S
C335 C334 1.400 . S
C335 C336 1.398 . S
C335 C341 1.491 . S
C336 H327 0.950 . S
C336 C335 1.398 . S
C336 C337 1.391 . S
C337 H325 0.950 . S
C337 C333 1.393 . S
C337 C336 1.391 . S
C338 H328 0.950 . S
C338 C339 1.386 . S
C338 C340 1.391 . S
C339 C338 1.386 . S
C339 C343 1.393 . S
C340 H329 0.950 . S
C340 C338 1.391 . S
C340 C341 1.400 . S
C341 C335 1.491 . S
C341 C340 1.400 . S
C341 C342 1.398 . S
C342 H330 0.950 . S
C342 C341 1.398 . S
C342 C343 1.391 . S
C343 H331 0.950 . S
C343 C339 1.393 . S
C343 C342 1.391 . S
H344 C352 0.950 . S
H345 C357 0.950 . S
H346 C354 0.950 . S
H347 C356 0.950 . S
H348 C358 0.950 . S
H349 C360 0.950 . S
H350 C362 0.950 . S
H351 C363 0.950 . S
C352 H344 0.950 . S
C352 C353 1.386 . S
C352 C354 1.391 . S
C353 C352 1.386 . S
C353 C357 1.393 . S
C354 H346 0.950 . S
C354 C352 1.391 . S
C354 C355 1.400 . S
C355 C354 1.400 . S
C355 C356 1.398 . S
C355 C361 1.491 . S
C356 H347 0.950 . S
C356 C355 1.398 . S
C356 C357 1.391 . S
C357 H345 0.950 . S
C357 C353 1.393 . S
C357 C356 1.391 . S
C358 H348 0.950 . S
C358 C359 1.386 . S
C358 C360 1.391 . S
C359 C358 1.386 . S
C359 C363 1.393 . S
C360 H349 0.950 . S
C360 C358 1.391 . S
C360 C361 1.400 . S
C361 C355 1.491 . S
C361 C360 1.400 . S
C361 C362 1.398 . S
C362 H350 0.950 . S
C362 C361 1.398 . S
C362 C363 1.391 . S
C363 H351 0.950 . S
C363 C359 1.393 . S
C363 C362 1.391 . S
H364 C372 0.950 . S
H365 C377 0.950 . S
H366 C374 0.950 . S
H367 C376 0.950 . S
H368 C378 0.950 . S
H369 C380 0.950 . S
H370 C382 0.950 . S
H371 C383 0.950 . S
C372 H364 0.950 . S
C372 C373 1.386 . S
C372 C374 1.391 . S
C373 C372 1.386 . S
C373 C377 1.393 . S
C374 H366 0.950 . S
C374 C372 1.391 . S
C374 C375 1.400 . S
C375 C374 1.400 . S
C375 C376 1.398 . S
C375 C381 1.491 . S
C376 H367 0.950 . S
C376 C375 1.398 . S
C376 C377 1.391 . S
C377 H365 0.950 . S
C377 C373 1.393 . S
C377 C376 1.391 . S
C378 H368 0.950 . S
C378 C379 1.386 . S
C378 C380 1.391 . S
C379 C378 1.386 . S
C379 C383 1.393 . S
C380 H369 0.950 . S
C380 C378 1.391 . S
C380 C381 1.400 . S
C381 C375 1.491 . S
C381 C380 1.400 . S
C381 C382 1.398 . S
C382 H370 0.950 . S
C382 C381 1.398 . S
C382 C383 1.391 . S
C383 H371 0.950 . S
C383 C379 1.393 . S
C383 C382 1.391 . S
H384 C392 0.950 . S
H385 C397 0.950 . S
H386 C394 0.950 . S
H387 C396 0.950 . S
H388 C398 0.950 . S
H389 C400 0.950 . S
H390 C402 0.950 . S
H391 C403 0.950 . S
C392 H384 0.950 . S
C392 C393 1.386 . S
C392 C394 1.391 . S
C393 C392 1.386 . S
C393 C397 1.393 . S
C394 H386 0.950 . S
C394 C392 1.391 . S
C394 C395 1.400 . S
C395 C394 1.400 . S
C395 C396 1.398 . S
C395 C401 1.491 . S
C396 H387 0.950 . S
C396 C395 1.398 . S
C396 C397 1.391 . S
C397 H385 0.950 . S
C397 C393 1.393 . S
C397 C396 1.391 . S
C398 H388 0.950 . S
C398 C399 1.386 . S
C398 C400 1.391 . S
C399 C398 1.386 . S
C399 C403 1.393 . S
C400 H389 0.950 . S
C400 C398 1.391 . S
C400 C401 1.400 . S
C401 C395 1.491 . S
C401 C400 1.400 . S
C401 C402 1.398 . S
C402 H390 0.950 . S
C402 C401 1.398 . S
C402 C403 1.391 . S
C403 H391 0.950 . S
C403 C399 1.393 . S
C403 C402 1.391 . S
H404 C412 0.950 . S
H405 C417 0.950 . S
H406 C414 0.950 . S
H407 C416 0.950 . S
H408 C418 0.950 . S
H409 C420 0.950 . S
H410 C422 0.950 . S
H411 C423 0.950 . S
C412 H404 0.950 . S
C412 C413 1.386 . S
C412 C414 1.391 . S
C413 C412 1.386 . S
C413 C417 1.393 . S
C414 H406 0.950 . S
C414 C412 1.391 . S
C414 C415 1.400 . S
C415 C414 1.400 . S
C415 C416 1.398 . S
C415 C421 1.491 . S
C416 H407 0.950 . S
C416 C415 1.398 . S
C416 C417 1.391 . S
C417 H405 0.950 . S
C417 C413 1.393 . S
C417 C416 1.391 . S
C418 H408 0.950 . S
C418 C419 1.386 . S
C418 C420 1.391 . S
C419 C418 1.386 . S
C419 C423 1.393 . S
C420 H409 0.950 . S
C420 C418 1.391 . S
C420 C421 1.400 . S
C421 C415 1.491 . S
C421 C420 1.400 . S
C421 C422 1.398 . S
C422 H410 0.950 . S
C422 C421 1.398 . S
C422 C423 1.391 . S
C423 H411 0.950 . S
C423 C419 1.393 . S
C423 C422 1.391 . S
H424 C432 0.950 . S
H425 C437 0.950 . S
H426 C434 0.950 . S
H427 C436 0.950 . S
H428 C438 0.950 . S
H429 C440 0.950 . S
H430 C442 0.950 . S
H431 C443 0.950 . S
C432 H424 0.950 . S
C432 C433 1.386 . S
C432 C434 1.391 . S
C433 C432 1.386 . S
C433 C437 1.393 . S
C434 H426 0.950 . S
C434 C432 1.391 . S
C434 C435 1.400 . S
C435 C434 1.400 . S
C435 C436 1.398 . S
C435 C441 1.491 . S
C436 H427 0.950 . S
C436 C435 1.398 . S
C436 C437 1.391 . S
C437 H425 0.950 . S
C437 C433 1.393 . S
C437 C436 1.391 . S
C438 H428 0.950 . S
C438 C439 1.386 . S
C438 C440 1.391 . S
C439 C438 1.386 . S
C439 C443 1.393 . S
C440 H429 0.950 . S
C440 C438 1.391 . S
C440 C441 1.400 . S
C441 C435 1.491 . S
C441 C440 1.400 . S
C441 C442 1.398 . S
C442 H430 0.950 . S
C442 C441 1.398 . S
C442 C443 1.391 . S
C443 H431 0.950 . S
C443 C439 1.393 . S
C443 C442 1.391 . S
H444 C452 0.950 . S
H445 C457 0.950 . S
H446 C454 0.950 . S
H447 C456 0.950 . S
H448 C458 0.950 . S
H449 C460 0.950 . S
H450 C462 0.950 . S
H451 C463 0.950 . S
C452 H444 0.950 . S
C452 C453 1.386 . S
C452 C454 1.391 . S
C453 C452 1.386 . S
C453 C457 1.393 . S
C454 H446 0.950 . S
C454 C452 1.391 . S
C454 C455 1.400 . S
C455 C454 1.400 . S
C455 C456 1.398 . S
C455 C461 1.491 . S
C456 H447 0.950 . S
C456 C455 1.398 . S
C456 C457 1.391 . S
C457 H445 0.950 . S
C457 C453 1.393 . S
C457 C456 1.391 . S
C458 H448 0.950 . S
C458 C459 1.386 . S
C458 C460 1.391 . S
C459 C458 1.386 . S
C459 C463 1.393 . S
C460 H449 0.950 . S
C460 C458 1.391 . S
C460 C461 1.400 . S
C461 C455 1.491 . S
C461 C460 1.400 . S
C461 C462 1.398 . S
C462 H450 0.950 . S
C462 C461 1.398 . S
C462 C463 1.391 . S
C463 H451 0.950 . S
C463 C459 1.393 . S
C463 C462 1.391 . S
H464 C472 0.950 . S
H465 C477 0.950 . S
H466 C474 0.950 . S
H467 C476 0.950 . S
H468 C478 0.950 . S
H469 C480 0.950 . S
H470 C482 0.950 . S
H471 C483 0.950 . S
C472 H464 0.950 . S
C472 C473 1.386 . S
C472 C474 1.391 . S
C473 C472 1.386 . S
C473 C477 1.393 . S
C474 H466 0.950 . S
C474 C472 1.391 . S
C474 C475 1.400 . S
C475 C474 1.400 . S
C475 C476 1.398 . S
C475 C481 1.491 . S
C476 H467 0.950 . S
C476 C475 1.398 . S
C476 C477 1.391 . S
C477 H465 0.950 . S
C477 C473 1.393 . S
C477 C476 1.391 . S
C478 H468 0.950 . S
C478 C479 1.386 . S
C478 C480 1.391 . S
C479 C478 1.386 . S
C479 C483 1.393 . S
C480 H469 0.950 . S
C480 C478 1.391 . S
C480 C481 1.400 . S
C481 C475 1.491 . S
C481 C480 1.400 . S
C481 C482 1.398 . S
C482 H470 0.950 . S
C482 C481 1.398 . S
C482 C483 1.391 . S
C483 H471 0.950 . S
C483 C479 1.393 . S
C483 C482 1.391 . S
H484 C492 0.950 . S
H485 C497 0.950 . S
H486 C494 0.950 . S
H487 C496 0.950 . S
H488 C498 0.950 . S
H489 C500 0.950 . S
H490 C502 0.950 . S
H491 C503 0.950 . S
C492 H484 0.950 . S
C492 C493 1.386 . S
C492 C494 1.391 . S
C493 C492 1.386 . S
C493 C497 1.393 . S
C494 H486 0.950 . S
C494 C492 1.391 . S
C494 C495 1.400 . S
C495 C494 1.400 . S
C495 C496 1.398 . S
C495 C501 1.491 . S
C496 H487 0.950 . S
C496 C495 1.398 . S
C496 C497 1.391 . S
C497 H485 0.950 . S
C497 C493 1.393 . S
C497 C496 1.391 . S
C498 H488 0.950 . S
C498 C499 1.386 . S
C498 C500 1.391 . S
C499 C498 1.386 . S
C499 C503 1.393 . S
C500 H489 0.950 . S
C500 C498 1.391 . S
C500 C501 1.400 . S
C501 C495 1.491 . S
C501 C500 1.400 . S
C501 C502 1.398 . S
C502 H490 0.950 . S
C502 C501 1.398 . S
C502 C503 1.391 . S
C503 H491 0.950 . S
C503 C499 1.393 . S
C503 C502 1.391 . S
H504 C512 0.950 . S
H505 C517 0.950 . S
H506 C514 0.950 . S
H507 C516 0.950 . S
H508 C518 0.950 . S
H509 C520 0.950 . S
H510 C522 0.950 . S
H511 C523 0.950 . S
C512 H504 0.950 . S
C512 C513 1.386 . S
C512 C514 1.391 . S
C513 C512 1.386 . S
C513 C517 1.393 . S
C514 H506 0.950 . S
C514 C512 1.391 . S
C514 C515 1.400 . S
C515 C514 1.400 . S
C515 C516 1.398 . S
C515 C521 1.491 . S
C516 H507 0.950 . S
C516 C515 1.398 . S
C516 C517 1.391 . S
C517 H505 0.950 . S
C517 C513 1.393 . S
C517 C516 1.391 . S
C518 H508 0.950 . S
C518 C519 1.386 . S
C518 C520 1.391 . S
C519 C518 1.386 . S
C519 C523 1.393 . S
C520 H509 0.950 . S
C520 C518 1.391 . S
C520 C521 1.400 . S
C521 C515 1.491 . S
C521 C520 1.400 . S
C521 C522 1.398 . S
C522 H510 0.950 . S
C522 C521 1.398 . S
C522 C523 1.391 . S
C523 H511 0.950 . S
C523 C519 1.393 . S
C523 C522 1.391 . S
H524 C532 0.950 . S
H525 C537 0.950 . S
H526 C534 0.950 . S
H527 C536 0.950 . S
H528 C538 0.950 . S
H529 C540 0.950 . S
H530 C542 0.950 . S
H531 C543 0.950 . S
C532 H524 0.950 . S
C532 C533 1.386 . S
C532 C534 1.391 . S
C533 C532 1.386 . S
C533 C537 1.393 . S
C534 H526 0.950 . S
C534 C532 1.391 . S
C534 C535 1.400 . S
C535 C534 1.400 . S
C535 C536 1.398 . S
C535 C541 1.491 . S
C536 H527 0.950 . S
C536 C535 1.398 . S
C536 C537 1.391 . S
C537 H525 0.950 . S
C537 C533 1.393 . S
C537 C536 1.391 . S
C538 H528 0.950 . S
C538 C539 1.386 . S
C538 C540 1.391 . S
C539 C538 1.386 . S
C539 C543 1.393 . S
C540 H529 0.950 . S
C540 C538 1.391 . S
C540 C541 1.400 . S
C541 C535 1.491 . S
C541 C540 1.400 . S
C541 C542 1.398 . S
C542 H530 0.950 . S
C542 C541 1.398 . S
C542 C543 1.391 . S
C543 H531 0.950 . S
C543 C539 1.393 . S
C543 C542 1.391 . S
H544 C552 0.950 . S
H545 C557 0.950 . S
H546 C554 0.950 . S
H547 C556 0.950 . S
H548 C558 0.950 . S
H549 C560 0.950 . S
H550 C562 0.950 . S
H551 C563 0.950 . S
C552 H544 0.950 . S
C552 C553 1.386 . S
C552 C554 1.391 . S
C553 C552 1.386 . S
C553 C557 1.393 . S
C554 H546 0.950 . S
C554 C552 1.391 . S
C554 C555 1.400 . S
C555 C554 1.400 . S
C555 C556 1.398 . S
C555 C561 1.491 . S
C556 H547 0.950 . S
C556 C555 1.398 . S
C556 C557 1.391 . S
C557 H545 0.950 . S
C557 C553 1.393 . S
C557 C556 1.391 . S
C558 H548 0.950 . S
C558 C559 1.386 . S
C558 C560 1.391 . S
C559 C558 1.386 . S
C559 C563 1.393 . S
C560 H549 0.950 . S
C560 C558 1.391 . S
C560 C561 1.400 . S
C561 C555 1.491 . S
C561 C560 1.400 . S
C561 C562 1.398 . S
C562 H550 0.950 . S
C562 C561 1.398 . S
C562 C563 1.391 . S
C563 H551 0.950 . S
C563 C559 1.393 . S
C563 C562 1.391 . S
H564 C572 0.950 . S
H565 C577 0.950 . S
H566 C574 0.950 . S
H567 C576 0.950 . S
H568 C578 0.950 . S
H569 C580 0.950 . S
H570 C582 0.950 . S
H571 C583 0.950 . S
C572 H564 0.950 . S
C572 C573 1.386 . S
C572 C574 1.391 . S
C573 C572 1.386 . S
C573 C577 1.393 . S
C574 H566 0.950 . S
C574 C572 1.391 . S
C574 C575 1.400 . S
C575 C574 1.400 . S
C575 C576 1.398 . S
C575 C581 1.491 . S
C576 H567 0.950 . S
C576 C575 1.398 . S
C576 C577 1.391 . S
C577 H565 0.950 . S
C577 C573 1.393 . S
C577 C576 1.391 . S
C578 H568 0.950 . S
C578 C579 1.386 . S
C578 C580 1.391 . S
C579 C578 1.386 . S
C579 C583 1.393 . S
C580 H569 0.950 . S
C580 C578 1.391 . S
C580 C581 1.400 . S
C581 C575 1.491 . S
C581 C580 1.400 . S
C581 C582 1.398 . S
C582 H570 0.950 . S
C582 C581 1.398 . S
C582 C583 1.391 . S
C583 H571 0.950 . S
C583 C579 1.393 . S
C583 C582 1.391 . S
H584 C592 0.950 . S
H585 C597 0.950 . S
H586 C594 0.950 . S
H587 C596 0.950 . S
H588 C598 0.950 . S
H589 C600 0.950 . S
H590 C602 0.950 . S
H591 C603 0.950 . S
C592 H584 0.950 . S
C592 C593 1.386 . S
C592 C594 1.391 . S
C593 C592 1.386 . S
C593 C597 1.393 . S
C594 H586 0.950 . S
C594 C592 1.391 . S
C594 C595 1.400 . S
C595 C594 1.400 . S
C595 C596 1.398 . S
C595 C601 1.491 . S
C596 H587 0.950 . S
C596 C595 1.398 . S
C596 C597 1.391 . S
C597 H585 0.950 . S
C597 C593 1.393 . S
C597 C596 1.391 . S
C598 H588 0.950 . S
C598 C599 1.386 . S
C598 C600 1.391 . S
C599 C598 1.386 . S
C599 C603 1.393 . S
C600 H589 0.950 . S
C600 C598 1.391 . S
C600 C601 1.400 . S
C601 C595 1.491 . S
C601 C600 1.400 . S
C601 C602 1.398 . S
C602 H590 0.950 . S
C602 C601 1.398 . S
C602 C603 1.391 . S
C603 H591 0.950 . S
C603 C599 1.393 . S
C603 C602 1.391 . S
H604 C612 0.950 . S
H605 C617 0.950 . S
H606 C614 0.950 . S
H607 C616 0.950 . S
H608 C618 0.950 . S
H609 C620 0.950 . S
H610 C622 0.950 . S
H611 C623 0.950 . S
C612 H604 0.950 . S
C612 C613 1.386 . S
C612 C614 1.391 . S
C613 C612 1.386 . S
C613 C617 1.393 . S
C614 H606 0.950 . S
C614 C612 1.391 . S
C614 C615 1.400 . S
C615 C614 1.400 . S
C615 C616 1.398 . S
C615 C621 1.491 . S
C616 H607 0.950 . S
C616 C615 1.398 . S
C616 C617 1.391 . S
C617 H605 0.950 . S
C617 C613 1.393 . S
C617 C616 1.391 . S
C618 H608 0.950 . S
C618 C619 1.386 . S
C618 C620 1.391 . S
C619 C618 1.386 . S
C619 C623 1.393 . S
C620 H609 0.950 . S
C620 C618 1.391 . S
C620 C621 1.400 . S
C621 C615 1.491 . S
C621 C620 1.400 . S
C621 C622 1.398 . S
C622 H610 0.950 . S
C622 C621 1.398 . S
C622 C623 1.391 . S
C623 H611 0.950 . S
C623 C619 1.393 . S
C623 C622 1.391 . S
H624 C632 0.950 . S
H625 C637 0.950 . S
H626 C634 0.950 . S
H627 C636 0.950 . S
H628 C638 0.950 . S
H629 C640 0.950 . S
H630 C642 0.950 . S
H631 C643 0.950 . S
C632 H624 0.950 . S
C632 C633 1.386 . S
C632 C634 1.391 . S
C633 C632 1.386 . S
C633 C637 1.393 . S
C634 H626 0.950 . S
C634 C632 1.391 . S
C634 C635 1.400 . S
C635 C634 1.400 . S
C635 C636 1.398 . S
C635 C641 1.491 . S
C636 H627 0.950 . S
C636 C635 1.398 . S
C636 C637 1.391 . S
C637 H625 0.950 . S
C637 C633 1.393 . S
C637 C636 1.391 . S
C638 H628 0.950 . S
C638 C639 1.386 . S
C638 C640 1.391 . S
C639 C638 1.386 . S
C639 C643 1.393 . S
C640 H629 0.950 . S
C640 C638 1.391 . S
C640 C641 1.400 . S
C641 C635 1.491 . S
C641 C640 1.400 . S
C641 C642 1.398 . S
C642 H630 0.950 . S
C642 C641 1.398 . S
C642 C643 1.391 . S
C643 H631 0.950 . S
C643 C639 1.393 . S
C643 C642 1.391 . S
H644 C652 0.950 . S
H645 C657 0.950 . S
H646 C654 0.950 . S
H647 C656 0.950 . S
H648 C658 0.950 . S
H649 C660 0.950 . S
H650 C662 0.950 . S
H651 C663 0.950 . S
C652 H644 0.950 . S
C652 C653 1.386 . S
C652 C654 1.391 . S
C653 C652 1.386 . S
C653 C657 1.393 . S
C654 H646 0.950 . S
C654 C652 1.391 . S
C654 C655 1.400 . S
C655 C654 1.400 . S
C655 C656 1.398 . S
C655 C661 1.491 . S
C656 H647 0.950 . S
C656 C655 1.398 . S
C656 C657 1.391 . S
C657 H645 0.950 . S
C657 C653 1.393 . S
C657 C656 1.391 . S
C658 H648 0.950 . S
C658 C659 1.386 . S
C658 C660 1.391 . S
C659 C658 1.386 . S
C659 C663 1.393 . S
C660 H649 0.950 . S
C660 C658 1.391 . S
C660 C661 1.400 . S
C661 C655 1.491 . S
C661 C660 1.400 . S
C661 C662 1.398 . S
C662 H650 0.950 . S
C662 C661 1.398 . S
C662 C663 1.391 . S
C663 H651 0.950 . S
C663 C659 1.393 . S
C663 C662 1.391 . S
H664 C672 0.950 . S
H665 C677 0.950 . S
H666 C674 0.950 . S
H667 C676 0.950 . S
H668 C678 0.950 . S
H669 C680 0.950 . S
H670 C682 0.950 . S
H671 C683 0.950 . S
C672 H664 0.950 . S
C672 C673 1.386 . S
C672 C674 1.391 . S
C673 C672 1.386 . S
C673 C677 1.393 . S
C674 H666 0.950 . S
C674 C672 1.391 . S
C674 C675 1.400 . S
C675 C674 1.400 . S
C675 C676 1.398 . S
C675 C681 1.491 . S
C676 H667 0.950 . S
C676 C675 1.398 . S
C676 C677 1.391 . S
C677 H665 0.950 . S
C677 C673 1.393 . S
C677 C676 1.391 . S
C678 H668 0.950 . S
C678 C679 1.386 . S
C678 C680 1.391 . S
C679 C678 1.386 . S
C679 C683 1.393 . S
C680 H669 0.950 . S
C680 C678 1.391 . S
C680 C681 1.400 . S
C681 C675 1.491 . S
C681 C680 1.400 . S
C681 C682 1.398 . S
C682 H670 0.950 . S
C682 C681 1.398 . S
C682 C683 1.391 . S
C683 H671 0.950 . S
C683 C679 1.393 . S
C683 C682 1.391 . S
H684 C692 0.950 . S
H685 C697 0.950 . S
H686 C694 0.950 . S
H687 C696 0.950 . S
H688 C698 0.950 . S
H689 C700 0.950 . S
H690 C702 0.950 . S
H691 C703 0.950 . S
C692 H684 0.950 . S
C692 C693 1.386 . S
C692 C694 1.391 . S
C693 C692 1.386 . S
C693 C697 1.393 . S
C694 H686 0.950 . S
C694 C692 1.391 . S
C694 C695 1.400 . S
C695 C694 1.400 . S
C695 C696 1.398 . S
C695 C701 1.491 . S
C696 H687 0.950 . S
C696 C695 1.398 . S
C696 C697 1.391 . S
C697 H685 0.950 . S
C697 C693 1.393 . S
C697 C696 1.391 . S
C698 H688 0.950 . S
C698 C699 1.386 . S
C698 C700 1.391 . S
C699 C698 1.386 . S
C699 C703 1.393 . S
C700 H689 0.950 . S
C700 C698 1.391 . S
C700 C701 1.400 . S
C701 C695 1.491 . S
C701 C700 1.400 . S
C701 C702 1.398 . S
C702 H690 0.950 . S
C702 C701 1.398 . S
C702 C703 1.391 . S
C703 H691 0.950 . S
C703 C699 1.393 . S
C703 C702 1.391 . S
H704 C712 0.950 . S
H705 C717 0.950 . S
H706 C714 0.950 . S
H707 C716 0.950 . S
H708 C718 0.950 . S
H709 C720 0.950 . S
H710 C722 0.950 . S
H711 C723 0.950 . S
C712 H704 0.950 . S
C712 C713 1.386 . S
C712 C714 1.391 . S
C713 C712 1.386 . S
C713 C717 1.393 . S
C714 H706 0.950 . S
C714 C712 1.391 . S
C714 C715 1.400 . S
C715 C714 1.400 . S
C715 C716 1.398 . S
C715 C721 1.491 . S
C716 H707 0.950 . S
C716 C715 1.398 . S
C716 C717 1.391 . S
C717 H705 0.950 . S
C717 C713 1.393 . S
C717 C716 1.391 . S
C718 H708 0.950 . S
C718 C719 1.386 . S
C718 C720 1.391 . S
C719 C718 1.386 . S
C719 C723 1.393 . S
C720 H709 0.950 . S
C720 C718 1.391 . S
C720 C721 1.400 . S
C721 C715 1.491 . S
C721 C720 1.400 . S
C721 C722 1.398 . S
C722 H710 0.950 . S
C722 C721 1.398 . S
C722 C723 1.391 . S
C723 H711 0.950 . S
C723 C719 1.393 . S
C723 C722 1.391 . S
H724 C732 0.950 . S
H725 C737 0.950 . S
H726 C734 0.950 . S
H727 C736 0.950 . S
H728 C738 0.950 . S
H729 C740 0.950 . S
H730 C742 0.950 . S
H731 C743 0.950 . S
C732 H724 0.950 . S
C732 C733 1.386 . S
C732 C734 1.391 . S
C733 C732 1.386 . S
C733 C737 1.393 . S
C734 H726 0.950 . S
C734 C732 1.391 . S
C734 C735 1.400 . S
C735 C734 1.400 . S
C735 C736 1.398 . S
C735 C741 1.491 . S
C736 H727 0.950 . S
C736 C735 1.398 . S
C736 C737 1.391 . S
C737 H725 0.950 . S
C737 C733 1.393 . S
C737 C736 1.391 . S
C738 H728 0.950 . S
C738 C739 1.386 . S
C738 C740 1.391 . S
C739 C738 1.386 . S
C739 C743 1.393 . S
C740 H729 0.950 . S
C740 C738 1.391 . S
C740 C741 1.400 . S
C741 C735 1.491 . S
C741 C740 1.400 . S
C741 C742 1.398 . S
C742 H730 0.950 . S
C742 C741 1.398 . S
C742 C743 1.391 . S
C743 H731 0.950 . S
C743 C739 1.393 . S
C743 C742 1.391 . S
H744 C752 0.950 . S
H745 C757 0.950 . S
H746 C754 0.950 . S
H747 C756 0.950 . S
H748 C758 0.950 . S
H749 C760 0.950 . S
H750 C762 0.950 . S
H751 C763 0.950 . S
C752 H744 0.950 . S
C752 C753 1.386 . S
C752 C754 1.391 . S
C753 C752 1.386 . S
C753 C757 1.393 . S
C754 H746 0.950 . S
C754 C752 1.391 . S
C754 C755 1.400 . S
C755 C754 1.400 . S
C755 C756 1.398 . S
C755 C761 1.491 . S
C756 H747 0.950 . S
C756 C755 1.398 . S
C756 C757 1.391 . S
C757 H745 0.950 . S
C757 C753 1.393 . S
C757 C756 1.391 . S
C758 H748 0.950 . S
C758 C759 1.386 . S
C758 C760 1.391 . S
C759 C758 1.386 . S
C759 C763 1.393 . S
C760 H749 0.950 . S
C760 C758 1.391 . S
C760 C761 1.400 . S
C761 C755 1.491 . S
C761 C760 1.400 . S
C761 C762 1.398 . S
C762 H750 0.950 . S
C762 C761 1.398 . S
C762 C763 1.391 . S
C763 H751 0.950 . S
C763 C759 1.393 . S
C763 C762 1.391 . S
H764 C772 0.950 . S
H765 C777 0.950 . S
H766 C774 0.950 . S
H767 C776 0.950 . S
H768 C778 0.950 . S
H769 C780 0.950 . S
H770 C782 0.950 . S
H771 C783 0.950 . S
C772 H764 0.950 . S
C772 C773 1.386 . S
C772 C774 1.391 . S
C773 C772 1.386 . S
C773 C777 1.393 . S
C774 H766 0.950 . S
C774 C772 1.391 . S
C774 C775 1.400 . S
C775 C774 1.400 . S
C775 C776 1.398 . S
C775 C781 1.491 . S
C776 H767 0.950 . S
C776 C775 1.398 . S
C776 C777 1.391 . S
C777 H765 0.950 . S
C777 C773 1.393 . S
C777 C776 1.391 . S
C778 H768 0.950 . S
C778 C779 1.386 . S
C778 C780 1.391 . S
C779 C778 1.386 . S
C779 C783 1.393 . S
C780 H769 0.950 . S
C780 C778 1.391 . S
C780 C781 1.400 . S
C781 C775 1.491 . S
C781 C780 1.400 . S
C781 C782 1.398 . S
C782 H770 0.950 . S
C782 C781 1.398 . S
C782 C783 1.391 . S
C783 H771 0.950 . S
C783 C779 1.393 . S
C783 C782 1.391 . S
H784 C792 0.950 . S
H785 C797 0.950 . S
H786 C794 0.950 . S
H787 C796 0.950 . S
H788 C798 0.950 . S
H789 C800 0.950 . S
H790 C802 0.950 . S
H791 C803 0.950 . S
C792 H784 0.950 . S
C792 C793 1.386 . S
C792 C794 1.391 . S
C793 C792 1.386 . S
C793 C797 1.393 . S
C794 H786 0.950 . S
C794 C792 1.391 . S
C794 C795 1.400 . S
C795 C794 1.400 . S
C795 C796 1.398 . S
C795 C801 1.491 1_544 S
C796 H787 0.950 . S
C796 C795 1.398 . S
C796 C797 1.391 . S
C797 H785 0.950 . S
C797 C793 1.393 . S
C797 C796 1.391 . S
C798 H788 0.950 . S
C798 C799 1.386 . S
C798 C800 1.391 . S
C799 C798 1.386 . S
C799 C803 1.393 . S
C800 H789 0.950 . S
C800 C798 1.391 . S
C800 C801 1.400 . S
C801 C795 1.491 1_566 S
C801 C800 1.400 . S
C801 C802 1.398 . S
C802 H790 0.950 . S
C802 C801 1.398 . S
C802 C803 1.391 . S
C803 H791 0.950 . S
C803 C799 1.393 . S
C803 C802 1.391 . S
H804 C812 0.950 1_655 S
H805 C817 0.950 . S
H806 C814 0.950 . S
H807 C816 0.950 . S
H808 C818 0.950 1_455 S
H809 C820 0.950 . S
H810 C822 0.950 . S
H811 C823 0.950 . S
C812 H804 0.950 1_455 S
C812 C813 1.386 . S
C812 C814 1.391 1_455 S
C813 C812 1.386 . S
C813 C817 1.393 . S
C814 H806 0.950 . S
C814 C812 1.391 1_655 S
C814 C815 1.400 1_655 S
C815 C814 1.400 1_455 S
C815 C816 1.398 . S
C815 C821 1.491 1_456 S
C816 H807 0.950 . S
C816 C815 1.398 . S
C816 C817 1.391 . S
C817 H805 0.950 . S
C817 C813 1.393 . S
C817 C816 1.391 . S
C818 H808 0.950 1_655 S
C818 C819 1.386 . S
C818 C820 1.391 1_655 S
C819 C818 1.386 . S
C819 C823 1.393 . S
C820 H809 0.950 . S
C820 C818 1.391 1_455 S
C820 C821 1.400 1_455 S
C821 C815 1.491 1_654 S
C821 C820 1.400 1_655 S
C821 C822 1.398 . S
C822 H810 0.950 . S
C822 C821 1.398 . S
C822 C823 1.391 . S
C823 H811 0.950 . S
C823 C819 1.393 . S
C823 C822 1.391 . S
H824 C832 0.950 . S
H825 C837 0.950 . S
H826 C834 0.950 . S
H827 C836 0.950 . S
H828 C838 0.950 . S
H829 C840 0.950 . S
H830 C842 0.950 . S
H831 C843 0.950 . S
C832 H824 0.950 . S
C832 C833 1.386 . S
C832 C834 1.391 . S
C833 C832 1.386 . S
C833 C837 1.393 . S
C834 H826 0.950 . S
C834 C832 1.391 . S
C834 C835 1.400 . S
C835 C834 1.400 . S
C835 C836 1.398 . S
C835 C841 1.491 1_546 S
C836 H827 0.950 . S
C836 C835 1.398 . S
C836 C837 1.391 . S
C837 H825 0.950 . S
C837 C833 1.393 . S
C837 C836 1.391 . S
C838 H828 0.950 . S
C838 C839 1.386 . S
C838 C840 1.391 . S
C839 C838 1.386 . S
C839 C843 1.393 . S
C840 H829 0.950 . S
C840 C838 1.391 . S
C840 C841 1.400 . S
C841 C835 1.491 1_564 S
C841 C840 1.400 . S
C841 C842 1.398 . S
C842 H830 0.950 . S
C842 C841 1.398 . S
C842 C843 1.391 . S
C843 H831 0.950 . S
C843 C839 1.393 . S
C843 C842 1.391 . S
H844 C852 0.950 . S
H845 C857 0.950 . S
H846 C854 0.950 . S
H847 C856 0.950 . S
H848 C858 0.950 . S
H849 C860 0.950 . S
H850 C862 0.950 . S
H851 C863 0.950 . S
C852 H844 0.950 . S
C852 C853 1.386 1_455 S
C852 C854 1.391 . S
C853 C852 1.386 1_655 S
C853 C857 1.393 . S
C854 H846 0.950 . S
C854 C852 1.391 . S
C854 C855 1.400 1_455 S
C855 C854 1.400 1_655 S
C855 C856 1.398 . S
C855 C861 1.491 1_656 S
C856 H847 0.950 . S
C856 C855 1.398 . S
C856 C857 1.391 . S
C857 H845 0.950 . S
C857 C853 1.393 . S
C857 C856 1.391 . S
C858 H848 0.950 . S
C858 C859 1.386 1_655 S
C858 C860 1.391 . S
C859 C858 1.386 1_455 S
C859 C863 1.393 . S
C860 H849 0.950 . S
C860 C858 1.391 . S
C860 C861 1.400 1_655 S
C861 C855 1.491 1_454 S
C861 C860 1.400 1_455 S
C861 C862 1.398 . S
C862 H850 0.950 . S
C862 C861 1.398 . S
C862 C863 1.391 . S
C863 H851 0.950 . S
C863 C859 1.393 . S
C863 C862 1.391 . S
C233 C8 1.251 . S
C239 C106 1.260 . S
C253 C22 1.252 . S
C259 C64 1.259 . S
C273 C78 1.251 . S
C279 C36 1.260 . S
C293 C50 1.257 . S
C299 C92 1.255 . S
C313 C120 1.251 . S
C319 C218 1.260 . S
C333 C176 1.259 . S
C339 C134 1.252 . S
C353 C190 1.260 . S
C359 C148 1.252 . S
C373 C204 1.253 . S
C379 C162 1.258 . S
C393 C9 1.351 . S
C399 C157 1.410 . S
C413 C23 1.355 . S
C419 C115 1.408 . S
C433 C129 1.409 . S
C439 C37 1.333 . S
C453 C51 1.362 . S
C459 C143 1.409 . S
C473 C65 1.353 . S
C479 C185 1.410 . S
C493 C199 1.410 . S
C499 C79 1.356 . S
C513 C93 1.352 . S
C519 C213 1.411 . S
C533 C171 1.411 . S
C539 C107 1.340 . S
C553 C121 1.355 . S
C559 C45 1.408 . S
C573 C3 1.410 . S
C579 C135 1.359 . S
C593 C149 1.334 . S
C599 C17 1.409 . S
C613 C31 1.409 . S
C619 C163 1.335 . S
C633 C177 1.362 . S
C639 C73 1.409 . S
C653 C87 1.408 . S
C659 C191 1.355 . S
C673 C101 1.409 . S
C679 C205 1.340 . S
C693 C59 1.408 . S
C699 C219 1.356 . S
C713 C63 1.598 . S
C719 C7 1.578 . S
C733 C77 1.596 . S
C739 C21 1.578 . S
C753 C35 1.585 . S
C759 C91 1.595 . S
C773 C105 1.578 . S
C779 C49 1.595 . S
C793 C175 1.593 . S
C799 C119 1.587 . S
C813 C189 1.595 . S
C819 C133 1.584 . S
C833 C147 1.592 . S
C839 C203 1.589 . S
C853 C217 1.598 . S
C859 C161 1.577 . S
