# Generated by pormake.
# Topology can, (4)-cn, num edge types: 1
# Building blocks:
#     Node 0, Type 0, BuildingBlock: TATPOV_clean_sbu_0, # of connection points: 4
#     Node 1, Type 0, BuildingBlock: TATPOV_clean_sbu_0, # of connection points: 4
#     Node 2, Type 0, BuildingBlock: TATPOV_clean_sbu_0, # of connection points: 4
#     Node 3, Type 0, BuildingBlock: TATPOV_clean_sbu_0, # of connection points: 4
#     Node 4, Type 0, BuildingBlock: TATPOV_clean_sbu_0, # of connection points: 4
#     Node 5, Type 0, BuildingBlock: TATPOV_clean_sbu_0, # of connection points: 4
#     Node 6, Type 0, BuildingBlock: TATPOV_clean_sbu_0, # of connection points: 4
#     Node 7, Type 0, BuildingBlock: TATPOV_clean_sbu_0, # of connection points: 4
#     Node 8, Type 0, BuildingBlock: TATPOV_clean_sbu_0, # of connection points: 4
#     Node 9, Type 0, BuildingBlock: TATPOV_clean_sbu_0, # of connection points: 4
#     Node 10, Type 0, BuildingBlock: TATPOV_clean_sbu_0, # of connection points: 4
#     Node 11, Type 0, BuildingBlock: TATPOV_clean_sbu_0, # of connection points: 4
#     Edge 12, Type (0, 0), BuildingBlock: CIFDUS_clean_linker_0, # of connection points: 2
#     Edge 13, Type (0, 0), BuildingBlock: CIFDUS_clean_linker_0, # of connection points: 2
#     Edge 14, Type (0, 0), BuildingBlock: CIFDUS_clean_linker_0, # of connection points: 2
#     Edge 15, Type (0, 0), BuildingBlock: CIFDUS_clean_linker_0, # of connection points: 2
#     Edge 16, Type (0, 0), BuildingBlock: CIFDUS_clean_linker_0, # of connection points: 2
#     Edge 17, Type (0, 0), BuildingBlock: CIFDUS_clean_linker_0, # of connection points: 2
#     Edge 18, Type (0, 0), BuildingBlock: CIFDUS_clean_linker_0, # of connection points: 2
#     Edge 19, Type (0, 0), BuildingBlock: CIFDUS_clean_linker_0, # of connection points: 2
#     Edge 20, Type (0, 0), BuildingBlock: CIFDUS_clean_linker_0, # of connection points: 2
#     Edge 21, Type (0, 0), BuildingBlock: CIFDUS_clean_linker_0, # of connection points: 2
#     Edge 22, Type (0, 0), BuildingBlock: CIFDUS_clean_linker_0, # of connection points: 2
#     Edge 23, Type (0, 0), BuildingBlock: CIFDUS_clean_linker_0, # of connection points: 2
#     Edge 24, Type (0, 0), BuildingBlock: CIFDUS_clean_linker_0, # of connection points: 2
#     Edge 25, Type (0, 0), BuildingBlock: CIFDUS_clean_linker_0, # of connection points: 2
#     Edge 26, Type (0, 0), BuildingBlock: CIFDUS_clean_linker_0, # of connection points: 2
#     Edge 27, Type (0, 0), BuildingBlock: CIFDUS_clean_linker_0, # of connection points: 2
#     Edge 28, Type (0, 0), BuildingBlock: CIFDUS_clean_linker_0, # of connection points: 2
#     Edge 29, Type (0, 0), BuildingBlock: CIFDUS_clean_linker_0, # of connection points: 2
#     Edge 30, Type (0, 0), BuildingBlock: CIFDUS_clean_linker_0, # of connection points: 2
#     Edge 31, Type (0, 0), BuildingBlock: CIFDUS_clean_linker_0, # of connection points: 2
#     Edge 32, Type (0, 0), BuildingBlock: CIFDUS_clean_linker_0, # of connection points: 2
#     Edge 33, Type (0, 0), BuildingBlock: CIFDUS_clean_linker_0, # of connection points: 2
#     Edge 34, Type (0, 0), BuildingBlock: CIFDUS_clean_linker_0, # of connection points: 2
#     Edge 35, Type (0, 0), BuildingBlock: CIFDUS_clean_linker_0, # of connection points: 2
# Relax obj value: 0.055
# Max RMSD: 0.072
# Mean RMSD: 0.072
data_MOF--net-can--node1-TATPOV_clean_sbu_0--edge1-CIFDUS_clean_linker_0
_symmetry_space_group_name_H-M    P1
_symmetry_Int_Tables_number       1
_symmetry_cell_setting            triclinic
loop_
_symmetry_equiv_pos_as_xyz
'x, y, z'
_cell_length_a     49.451143
_cell_length_b     49.550761
_cell_length_c     24.006313
_cell_angle_alpha  90.090692
_cell_angle_beta   90.336258
_cell_angle_gamma 119.76269
loop_
_atom_site_label
_atom_site_type_symbol
_atom_site_fract_x
_atom_site_fract_y
_atom_site_fract_z
_atom_type_partial_charge
Zn0 Zn 0.04036 0.39142 0.24686 0.0
Zn1 Zn 0.09927 0.4112 0.23386 0.0
O2 O 0.08438 0.38321 0.30498 0.0
O3 O 0.03346 0.36178 0.30706 0.0
O4 O 0.14408 0.41967 0.22565 0.0
O5 O 0.02819 0.37511 0.17048 0.0
O6 O 0.07798 0.3913 0.15749 0.0
C7 C 0.05832 0.36471 0.32762 0.0
C8 C 0.07942 0.4584 0.26153 0.0
O9 O 0.10173 0.45398 0.24694 0.0
O10 O 0.05205 0.43555 0.26589 0.0
C11 C 0.16099 0.424 0.26873 0.0
O12 O 0.1499 0.42503 0.31779 0.0
C13 C 0.04992 0.37811 0.13918 0.0
Zn14 Zn 0.66266 0.03265 0.73354 0.0
Zn15 Zn 0.70743 0.08976 0.73219 0.0
O16 O 0.71423 0.06964 0.8039 0.0
O17 O 0.68071 0.01976 0.79417 0.0
O18 O 0.74625 0.13269 0.72823 0.0
O19 O 0.66852 0.02297 0.65629 0.0
O20 O 0.70818 0.07071 0.6552 0.0
C21 C 0.70274 0.04164 0.82095 0.0
C22 C 0.64143 0.07713 0.74856 0.0
O23 O 0.66974 0.09727 0.73872 0.0
O24 O 0.63318 0.04853 0.75105 0.0
C25 C 0.7564 0.15306 0.76692 0.0
O26 O 0.74083 0.14699 0.81371 0.0
C27 C 0.69138 0.0445 0.63111 0.0
Zn28 Zn 0.64837 0.65019 0.22485 0.0
Zn29 Zn 0.63116 0.69202 0.21779 0.0
O30 O 0.66013 0.70288 0.28796 0.0
O31 O 0.67884 0.67087 0.28532 0.0
O32 O 0.62271 0.72843 0.21472 0.0
O33 O 0.66451 0.6567 0.14834 0.0
O34 O 0.65033 0.69227 0.14052 0.0
C35 C 0.67804 0.69348 0.30786 0.0
C36 C 0.58183 0.62479 0.23914 0.0
O37 O 0.58786 0.65242 0.2281 0.0
O38 O 0.60371 0.6185 0.24188 0.0
C39 C 0.61124 0.73437 0.25726 0.0
O40 O 0.60425 0.7161 0.30079 0.0
C41 C 0.6626 0.67709 0.11987 0.0
Zn42 Zn 1.00362 0.63696 0.71011 0.0
Zn43 Zn 0.94561 0.6216 0.71979 0.0
O44 O 0.96684 0.64384 0.79484 0.0
O45 O 1.01606 0.65695 0.78404 0.0
O46 O 0.90164 0.61566 0.72397 0.0
O47 O 1.0125 0.66384 0.64479 0.0
O48 O 0.96207 0.64646 0.64517 0.0
C49 C 0.99481 0.65659 0.81344 0.0
C50 C 0.96159 0.57028 0.70494 0.0
O51 O 0.94049 0.57727 0.71517 0.0
O52 O 0.98967 0.59154 0.69949 0.0
C53 C 0.88044 0.59641 0.75604 0.0
O54 O 0.88663 0.57882 0.78854 0.0
C55 C 0.98869 0.66235 0.62223 0.0
Zn56 Zn 0.37924 1.01231 0.20575 0.0
Zn57 Zn 0.34433 0.95252 0.20638 0.0
O58 O 0.34272 0.96855 0.28601 0.0
O59 O 0.37093 0.01958 0.28279 0.0
O60 O 0.3099 0.90693 0.20795 0.0
O61 O 0.35768 0.02079 0.14497 0.0
O62 O 0.33202 0.9699 0.13711 0.0
C63 C 0.35388 0.99511 0.30967 0.0
C64 C 0.4127 0.97794 0.18632 0.0
O65 O 0.38639 0.95353 0.19397 0.0
O66 O 0.41483 1.00452 0.1884 0.0
C67 C 0.30649 0.8895 0.24932 0.0
O68 O 0.32671 0.90079 0.29061 0.0
C69 C 0.33825 0.99664 0.11905 0.0
Zn70 Zn 0.4092 0.37547 0.71524 0.0
Zn71 Zn 0.42023 0.3295 0.71405 0.0
O72 O 0.40193 0.32853 0.79237 0.0
O73 O 0.39519 0.36922 0.79327 0.0
O74 O 0.42496 0.29074 0.71493 0.0
O75 O 0.37707 0.35818 0.65646 0.0
O76 O 0.39105 0.32275 0.6452 0.0
C77 C 0.39351 0.34585 0.81753 0.0
C78 C 0.47378 0.39549 0.69594 0.0
O79 O 0.46529 0.367 0.70508 0.0
O80 O 0.4539 0.40451 0.69553 0.0
C81 C 0.43952 0.28683 0.7552 0.0
O82 O 0.45192 0.30845 0.79394 0.0
C83 C 0.37494 0.33522 0.62982 0.0
Zn84 Zn 0.63497 0.01591 0.22298 0.0
Zn85 Zn 0.62413 0.95877 0.21008 0.0
O86 O 0.6545 0.98495 0.146 0.0
O87 O 0.66507 0.03299 0.16163 0.0
O88 O 0.61985 0.91586 0.19917 0.0
O89 O 0.65186 0.01928 0.29913 0.0
O90 O 0.64292 0.9713 0.28994 0.0
C91 C 0.66912 1.01381 0.13334 0.0
C92 C 0.57011 0.97253 0.2018 0.0
O93 O 0.57897 0.95229 0.20255 0.0
O94 O 0.58979 1.00104 0.20865 0.0
C95 C 0.60964 0.8953 0.23719 0.0
O96 O 0.60022 0.90135 0.28423 0.0
C97 C 0.65309 0.99624 0.31857 0.0
Zn98 Zn 0.62358 0.62387 0.69232 0.0
Zn99 Zn 0.67456 0.62134 0.70051 0.0
O100 O 0.68147 0.65181 0.63493 0.0
O101 O 0.64014 0.65752 0.637 0.0
O102 O 0.71632 0.62211 0.70372 0.0
O103 O 0.62514 0.63631 0.77079 0.0
O104 O 0.67072 0.63867 0.77747 0.0
C105 C 0.66645 0.66491 0.61698 0.0
C106 C 0.61259 0.56275 0.67041 0.0
O107 O 0.64113 0.57464 0.68512 0.0
O108 O 0.59996 0.57953 0.66781 0.0
C109 C 0.72208 0.60396 0.73253 0.0
O110 O 0.69995 0.58279 0.76359 0.0
C111 C 0.64947 0.64301 0.79852 0.0
Zn112 Zn 0.02642 0.62996 0.23793 0.0
Zn113 Zn 0.08111 0.67816 0.21951 0.0
O114 O 0.05444 0.67437 0.14902 0.0
O115 O 1.00966 0.63186 0.1638 0.0
O116 O 0.12263 0.7177 0.20569 0.0
O117 O 1.01765 0.65004 0.30103 0.0
O118 O 0.06583 0.6885 0.29337 0.0
C119 C 0.02676 0.65471 0.1332 0.0
C120 C 0.0751 0.61439 0.24167 0.0
O121 O 0.09213 0.64258 0.2264 0.0
O122 O 0.04647 0.60389 0.25131 0.0
C123 C 0.14477 0.72805 0.24132 0.0
O124 O 0.14097 0.71231 0.2874 0.0
C125 C 0.03969 0.67566 0.31849 0.0
Zn126 Zn 0.41118 1.00181 0.73659 0.0
Zn127 Zn 0.41648 0.05661 0.72705 0.0
O128 O 0.39926 0.03439 0.65093 0.0
O129 O 0.39995 0.99044 0.65741 0.0
O130 O 0.41808 0.09834 0.71667 0.0
O131 O 0.37671 0.98781 0.7904 0.0
O132 O 0.38518 0.03579 0.79218 0.0
C133 C 0.39441 1.00874 0.62944 0.0
C134 C 0.473 0.05026 0.76156 0.0
O135 O 0.46244 0.06784 0.74541 0.0
O136 O 0.45517 0.02114 0.76376 0.0
C137 C 0.431 0.12063 0.75163 0.0
O138 O 0.44432 0.11698 0.79629 0.0
C139 C 0.37061 1.00784 0.80999 0.0
Zn140 Zn 0.41041 0.39222 0.23157 0.0
Zn141 Zn 0.36659 0.40678 0.2384 0.0
O142 O 0.36269 0.38859 0.15843 0.0
O143 O 0.40098 0.37811 0.15353 0.0
O144 O 0.32947 0.41442 0.24328 0.0
O145 O 0.39299 0.36024 0.28972 0.0
O146 O 0.35854 0.37534 0.30335 0.0
C147 C 0.37786 0.37828 0.13135 0.0
C148 C 0.43477 0.45704 0.25652 0.0
O149 O 0.40642 0.4504 0.25056 0.0
O150 O 0.44202 0.43598 0.25178 0.0
C151 C 0.31801 0.42041 0.20048 0.0
O152 O 0.33114 0.42298 0.1519 0.0
C153 C 0.37024 0.35825 0.31667 0.0
Zn154 Zn 0.03091 0.40449 0.70628 0.0
Zn155 Zn 0.97389 0.3606 0.7239 0.0
O156 O 0.98907 0.34659 0.6545 0.0
O157 O 0.03885 0.38101 0.64809 0.0
O158 O 0.9305 0.3232 0.73475 0.0
O159 O 0.04484 0.40339 0.78315 0.0
O160 O 0.99779 0.36405 0.79797 0.0
C161 C 1.01543 0.35624 0.63119 0.0
C162 C 0.98645 0.42548 0.6915 0.0
O163 O 0.96694 0.39836 0.70899 0.0
O164 O 1.01473 0.43303 0.6851 0.0
C165 C 0.91419 0.3182 0.77836 0.0
O166 O 0.92529 0.33851 0.81939 0.0
C167 C 0.02564 0.38236 0.81486 0.0
H168 H 0.08865 0.40121 0.05068 0.0
H169 H 0.99392 0.33562 0.09532 0.0
H170 H 0.97829 0.32869 -0.00254 0.0
H171 H 0.99018 0.34622 0.90054 0.0
H172 H 0.08465 0.41361 0.85691 0.0
H173 H 0.10159 0.41472 0.95256 0.0
C174 C 0.06478 0.38485 0.03882 0.0
C175 C 0.04245 0.36923 0.08006 0.0
C176 C 0.05571 0.38167 -0.01741 0.0
C177 C 1.01151 0.34818 0.0642 0.0
C178 C 1.00249 0.34428 0.00829 0.0
C179 C 1.01452 0.36085 0.91185 0.0
C180 C 0.03593 0.38015 0.87178 0.0
C181 C 0.02416 0.36175 0.9673 0.0
C182 C 0.06749 0.39882 0.88705 0.0
C183 C 0.0773 0.39946 0.94181 0.0
H184 H 0.695 0.04833 0.37183 0.0
H185 H 0.63738 0.94931 0.39351 0.0
H186 H 0.64869 0.95535 0.4937 0.0
H187 H 0.66799 0.98975 0.57554 0.0
H188 H 0.72425 0.08899 0.55345 0.0
H189 H 0.72099 0.08183 0.45245 0.0
C190 C 0.68533 0.02801 0.39842 0.0
C191 C 0.66484 0.9985 0.37586 0.0
C192 C 0.69153 0.03176 0.45569 0.0
C193 C 0.65303 0.97225 0.4102 0.0
C194 C 0.65934 0.97575 0.46742 0.0
C195 C 0.68002 1.00978 0.54864 0.0
C196 C 0.69574 0.03993 0.57179 0.0
C197 C 0.67749 1.00553 0.49076 0.0
C198 C 0.71178 0.06559 0.5366 0.0
C199 C 0.70975 0.06153 0.47887 0.0
H200 H 0.63477 0.68916 0.03406 0.0
H201 H 0.70798 0.66893 0.07358 0.0
H202 H 0.71291 0.65957 0.97519 0.0
H203 H 0.69111 0.64982 0.88015 0.0
H204 H 0.61518 0.66661 0.84295 0.0
H205 H 0.61661 0.68452 0.93775 0.0
C206 C 0.65241 0.68363 0.02081 0.0
C207 C 0.67086 0.67958 0.06067 0.0
C208 C 0.65413 0.67691 0.96465 0.0
C209 C 0.69342 0.67202 0.04332 0.0
C210 C 0.69609 0.66645 -0.0128 0.0
C211 C 0.67516 0.65774 0.8927 0.0
C212 C 0.65274 0.6563 0.85487 0.0
C213 C 0.67567 0.66755 0.94781 0.0
C214 C 0.63233 0.66687 0.87157 0.0
C215 C 0.63317 0.67729 0.92577 0.0
H216 H 0.98516 0.663 0.36546 0.0
H217 H 0.08466 0.71521 0.39186 0.0
H218 H 0.07665 0.7223 0.49004 0.0
H219 H 0.04179 0.70345 0.57037 0.0
H220 H 0.94249 0.64724 0.54458 0.0
H221 H 0.94991 0.65273 0.44388 0.0
C222 C 1.00512 0.67657 0.39244 0.0
C223 C 0.03547 0.68782 0.37198 0.0
C224 C 1.00031 0.67953 0.44901 0.0
C225 C 0.06109 0.70603 0.40683 0.0
C226 C 0.05649 0.70987 0.46304 0.0
C227 C 1.02167 0.69307 0.54275 0.0
C228 C 0.9917 0.67416 0.56478 0.0
C229 C 0.02625 0.69517 0.48504 0.0
C230 C 0.96582 0.66157 0.52868 0.0
C231 C 0.97009 0.66445 0.47105 0.0
H232 H 0.36202 0.04601 0.88096 0.0
H233 H 0.33187 0.94944 0.84801 0.0
H234 H 0.31044 0.93556 0.94114 0.0
H235 H 0.31275 0.95277 0.03743 0.0
H236 H 0.34458 0.04953 0.07171 0.0
H237 H 0.35156 0.06105 0.97258 0.0
C238 C 0.34989 0.02183 0.89356 0.0
C239 C 0.3497 0.99903 0.8585 0.0
C240 C 0.33816 1.01399 0.94784 0.0
C241 C 0.33326 0.96766 0.87492 0.0
C242 C 0.32095 0.95962 0.92827 0.0
C243 C 0.32003 0.97614 0.02314 0.0
C244 C 0.3294 1.00044 0.06192 0.0
C245 C 0.32515 0.98287 0.96618 0.0
C246 C 0.33809 0.03049 0.04266 0.0
C247 C 0.34234 0.0372 -0.01409 0.0
H248 H 0.33406 0.35899 0.40151 0.0
H249 H 0.3862 0.31514 0.34762 0.0
H250 H 0.3859 0.29694 0.4417 0.0
H251 H 0.38201 0.30466 0.54167 0.0
H252 H 0.33099 0.34955 0.59593 0.0
H253 H 0.31888 0.35516 0.4997 0.0
C254 C 0.34446 0.34461 0.40998 0.0
C255 C 0.36112 0.33948 0.36813 0.0
C256 C 0.34483 0.3347 0.46464 0.0
C257 C 0.37397 0.32026 0.37953 0.0
C258 C 0.37389 0.30982 0.43343 0.0
C259 C 0.36725 0.31458 0.53254 0.0
C260 C 0.35839 0.32765 0.57564 0.0
C261 C 0.36112 0.31861 0.4769 0.0
C262 C 0.33884 0.34003 0.56324 0.0
C263 C 0.33201 0.34342 0.50814 0.0
H264 H 0.95757 0.6339 0.90364 0.0
H265 H 0.05006 0.70257 0.85331 0.0
H266 H 0.06764 0.71113 0.95024 0.0
H267 H 0.05871 0.69309 0.04714 0.0
H268 H 0.96676 0.62201 0.09619 0.0
H269 H 0.94708 0.62054 0.00248 0.0
C270 C 0.98127 0.65141 0.91417 0.0
C271 C 1.00254 0.66739 0.87161 0.0
C272 C 0.99156 0.65529 0.96978 0.0
C273 C 0.03333 0.68983 0.88558 0.0
C274 C 0.04345 0.69459 0.94092 0.0
C275 C 0.03428 0.67766 0.03753 0.0
C276 C 1.01447 0.65729 0.07834 0.0
C277 C 1.02313 0.67645 -0.0169 0.0
C278 C 0.98275 0.63758 0.0653 0.0
C279 C 0.97137 0.63673 0.01168 0.0
H280 H 0.35087 0.95468 0.3878 0.0
H281 H 0.35416 0.04264 0.36665 0.0
H282 H 0.3648 0.05385 0.46605 0.0
H283 H 0.37998 0.04165 0.55596 0.0
H284 H 0.37991 0.95493 0.57491 0.0
H285 H 0.36146 0.9404 0.47953 0.0
C286 C 0.35298 0.97584 0.40535 0.0
C287 C 0.35183 0.99783 0.37027 0.0
C288 C 0.36051 0.98275 0.46189 0.0
C289 C 0.35503 0.02541 0.39315 0.0
C290 C 0.36138 0.03195 0.4498 0.0
C291 C 0.37575 0.0195 0.53932 0.0
C292 C 0.38183 0.9997 0.57229 0.0
C293 C 0.36542 1.01134 0.48409 0.0
C294 C 0.37587 0.97088 0.55027 0.0
C295 C 0.36517 0.96243 0.49572 0.0
H296 H 0.36113 0.36803 0.87279 0.0
H297 H 0.40609 0.31308 0.8949 0.0
H298 H 0.40098 0.31484 -0.00409 0.0
H299 H 0.39105 0.33867 0.07694 0.0
H300 H 0.34756 0.39494 0.05501 0.0
H301 H 0.34436 0.38562 0.95437 0.0
C302 C 0.36937 0.35601 0.89969 0.0
C303 C 0.38457 0.34101 0.87667 0.0
C304 C 0.36688 0.35763 0.9575 0.0
C305 C 0.39451 0.32495 0.91174 0.0
C306 C 0.39178 0.32613 0.96944 0.0
C307 C 0.38046 0.34854 0.05018 0.0
C308 C 0.37017 0.36802 0.07295 0.0
C309 C 0.37917 0.34346 -0.00735 0.0
C310 C 0.35584 0.38007 0.03824 0.0
C311 C 0.35418 0.37488 -0.01922 0.0
H312 H 0.0687 0.36618 0.58201 0.0
H313 H 0.96865 0.31434 0.56313 0.0
H314 H 0.9742 0.3046 0.46527 0.0
H315 H 1.00693 0.32238 0.38234 0.0
H316 H 0.10671 0.37927 0.40018 0.0
H317 H 0.10192 0.37452 0.50126 0.0
C318 C 0.04808 0.35206 0.55685 0.0
C319 C 1.0183 0.34192 0.57916 0.0
C320 C 0.05146 0.34779 0.50019 0.0
C321 C 0.99183 0.32289 0.54667 0.0
C322 C 0.99501 0.31749 0.49058 0.0
C323 C 0.02775 0.333 0.40825 0.0
C324 C 0.05703 0.35215 0.38396 0.0
C325 C 0.02465 0.33161 0.46628 0.0
C326 C 0.08384 0.36491 0.41785 0.0
C327 C 0.08107 0.36246 0.47575 0.0
H328 H 0.72568 0.08062 0.90998 0.0
H329 H 0.69403 0.98611 0.85835 0.0
H330 H 0.68569 0.96926 0.95512 0.0
H331 H 0.67584 0.97953 0.05093 0.0
H332 H 0.70575 0.07396 0.10148 0.0
H333 H 0.72658 0.09256 0.00925 0.0
C334 C 0.71816 0.05659 0.92005 0.0
C335 C 0.70966 0.03452 0.87716 0.0
C336 C 0.71223 0.0468 0.97569 0.0
C337 C 0.70015 1.00346 0.89079 0.0
C338 C 0.69512 0.99372 0.94612 0.0
C339 C 0.68762 1.00424 0.04218 0.0
C340 C 0.68823 0.02511 0.08245 0.0
C341 C 0.69914 0.01486 -0.01148 0.0
C342 C 0.70414 0.05718 0.07076 0.0
C343 C 0.71615 0.06794 0.01794 0.0
H344 H 0.66177 0.72008 0.3902 0.0
H345 H 0.7264 0.68837 0.35067 0.0
H346 H 0.73441 0.68318 0.44942 0.0
H347 H 0.71171 0.67374 0.54297 0.0
H348 H 0.64475 0.70276 0.58119 0.0
H349 H 0.64948 0.72338 0.48769 0.0
C350 C 0.67861 0.71333 0.40326 0.0
C351 C 0.69256 0.70351 0.36342 0.0
C352 C 0.68204 0.70903 0.46005 0.0
C353 C 0.71473 0.69528 0.38081 0.0
C354 C 0.71915 0.69204 0.43729 0.0
C355 C 0.69896 0.68549 0.5314 0.0
C356 C 0.67701 0.68558 0.56808 0.0
C357 C 0.70109 0.69656 0.4769 0.0
C358 C 0.66111 0.70148 0.55298 0.0
C359 C 0.66376 0.71331 0.49945 0.0
H360 H 0.05848 0.56944 0.31748 0.0
H361 H 0.11869 0.61029 0.17668 0.0
H362 H 0.12949 0.56689 0.17472 0.0
H363 H 0.11513 0.51319 0.20534 0.0
H364 H 0.05315 0.47327 0.34465 0.0
H365 H 0.05012 0.52051 0.35557 0.0
C366 C 0.07445 0.56915 0.28698 0.0
C367 C 0.08744 0.59272 0.24686 0.0
C368 C 0.08003 0.54408 0.28569 0.0
C369 C 0.10841 0.59235 0.20803 0.0
C370 C 0.11436 0.56741 0.20668 0.0
C371 C 0.10172 0.51531 0.23892 0.0
C372 C 0.08413 0.4897 0.27386 0.0
C373 C 0.0994 0.54252 0.24416 0.0
C374 C 0.06662 0.49257 0.31697 0.0
C375 C 0.0648 0.51954 0.32317 0.0
H376 H 0.52539 0.09336 0.70705 0.0
H377 H 0.49415 0.0333 0.8503 0.0
H378 H 0.54636 0.04121 0.86492 0.0
H379 H 0.59764 0.05691 0.82702 0.0
H380 H 0.62988 0.11534 0.68222 0.0
H381 H 0.58099 0.11692 0.6784 0.0
C382 C 0.53041 0.08294 0.74245 0.0
C383 C 0.50598 0.06254 0.7773 0.0
C384 C 0.56053 0.08688 0.74969 0.0
C385 C 0.51259 0.04889 0.82275 0.0
C386 C 0.54239 0.05328 0.831 0.0
C387 C 0.59428 0.07073 0.79563 0.0
C388 C 0.61701 0.08575 0.75473 0.0
C389 C 0.56608 0.07095 0.79321 0.0
C390 C 0.61264 0.10372 0.71431 0.0
C391 C 0.58457 0.10433 0.71184 0.0
H392 H 0.56369 0.57473 0.30386 0.0
H393 H 0.5276 0.61692 0.19104 0.0
H394 H 0.47638 0.56933 0.19172 0.0
H395 H 0.44413 0.51295 0.21534 0.0
H396 H 0.48278 0.4722 0.32635 0.0
H397 H 0.53041 0.52197 0.33611 0.0
C398 C 0.54449 0.57371 0.28001 0.0
C399 C 0.5495 0.59906 0.24682 0.0
C400 C 0.51553 0.54635 0.2801 0.0
C401 C 0.5243 0.59763 0.21687 0.0
C402 C 0.49509 0.57034 0.217 0.0
C403 C 0.46273 0.5153 0.24265 0.0
C404 C 0.4601 0.48888 0.26965 0.0
C405 C 0.49068 0.54413 0.24713 0.0
C406 C 0.48442 0.49213 0.30468 0.0
C407 C 0.51171 0.52057 0.31023 0.0
H408 H 0.98689 0.54828 0.63265 0.0
H409 H 0.92149 0.51964 0.76752 0.0
H410 H 0.91986 0.46921 0.77117 0.0
H411 H 0.94338 0.43659 0.74392 0.0
H412 H 1.0099 0.46792 0.61004 0.0
H413 H 1.00441 0.51361 0.59748 0.0
C414 C 0.97179 0.53074 0.66216 0.0
C415 C 0.95464 0.53768 0.70016 0.0
C416 C 0.97142 0.50233 0.66443 0.0
C417 C 0.93488 0.51472 0.73776 0.0
C418 C 0.93418 0.48603 0.74011 0.0
C419 C 0.956 0.45308 0.71122 0.0
C420 C 0.97736 0.4491 0.67846 0.0
C421 C 0.95324 0.47998 0.70485 0.0
C422 C 0.99367 0.47068 0.63629 0.0
C423 C 0.99059 0.49687 0.62907 0.0
H424 H 0.42746 0.93297 0.21722 0.0
H425 H 0.46302 0.02035 0.13074 0.0
H426 H 0.51369 0.02423 0.12289 0.0
H427 H 0.54954 1.00633 0.14878 0.0
H428 H 0.51675 0.91991 0.23624 0.0
H429 H 0.46342 0.91181 0.23473 0.0
C430 C 0.44619 0.9525 0.19585 0.0
C431 C 0.44151 0.97658 0.17538 0.0
C432 C 0.47586 0.95492 0.19201 0.0
C433 C 0.46603 1.00175 0.14772 0.0
C434 C 0.4951 1.00403 0.14309 0.0
C435 C 0.53066 0.98548 0.16697 0.0
C436 C 0.53709 0.96396 0.1932 0.0
C437 C 0.50051 0.9813 0.16648 0.0
C438 C 0.51234 0.93682 0.21577 0.0
C439 C 0.48192 0.93234 0.21523 0.0
H440 H 0.60496 0.51229 0.73002 0.0
H441 H 0.57497 0.53902 0.58137 0.0
H442 H 0.53147 0.48633 0.57022 0.0
H443 H 0.49654 0.43628 0.61263 0.0
H444 H 0.5239 0.4087 0.76296 0.0
H445 H 0.57394 0.45761 0.76341 0.0
C446 C 0.58951 0.50614 0.69421 0.0
C447 C 0.59293 0.52944 0.65673 0.0
C448 C 0.56375 0.47578 0.68899 0.0
C449 C 0.57261 0.52142 0.61081 0.0
C450 C 0.54763 0.49136 0.60458 0.0
C451 C 0.51396 0.4406 0.64441 0.0
C452 C 0.50669 0.41921 0.68778 0.0
C453 C 0.54212 0.46885 0.64489 0.0
C454 C 0.52922 0.42485 0.72891 0.0
C455 C 0.55765 0.45296 0.72945 0.0
H456 H 0.19299 0.42558 0.17472 0.0
H457 H 0.19825 0.42539 0.35426 0.0
H458 H 0.24711 0.42469 0.34937 0.0
H459 H 0.28789 0.42256 0.29434 0.0
H460 H 0.28326 0.4238 0.11484 0.0
H461 H 0.235 0.42572 0.11969 0.0
C462 C 0.20489 0.42554 0.21279 0.0
C463 C 0.19173 0.42542 0.26475 0.0
C464 C 0.23321 0.42522 0.20979 0.0
C465 C 0.20767 0.42549 0.3136 0.0
C466 C 0.23568 0.42502 0.31091 0.0
C467 C 0.27639 0.42334 0.25627 0.0
C468 C 0.28926 0.42289 0.20434 0.0
C469 C 0.24858 0.42462 0.25926 0.0
C470 C 0.27402 0.42411 0.15548 0.0
C471 C 0.2463 0.42517 0.15815 0.0
H472 H 0.88532 0.27052 0.7032 0.0
H473 H 0.87374 0.30073 0.86565 0.0
H474 H 0.82399 0.25287 0.87604 0.0
H475 H 0.78404 0.20187 0.83999 0.0
H476 H 0.79564 0.1716 0.6776 0.0
H477 H 0.8449 0.21992 0.66642 0.0
C478 C 0.87191 0.26672 0.74085 0.0
C479 C 0.88345 0.28931 0.7836 0.0
C480 C 0.84323 0.23901 0.74671 0.0
C481 C 0.8656 0.28385 0.83203 0.0
C482 C 0.83707 0.25641 0.83807 0.0
C483 C 0.79727 0.20582 0.80206 0.0
C484 C 0.78603 0.18296 0.75979 0.0
C485 C 0.82571 0.23374 0.79583 0.0
C486 C 0.8036 0.18867 0.71092 0.0
C487 C 0.83186 0.21635 0.70445 0.0
H488 H 0.62662 0.77967 0.1782 0.0
H489 H 0.58661 0.7518 0.34182 0.0
H490 H 0.58169 0.79819 0.34905 0.0
H491 H 0.59016 0.84757 0.31083 0.0
H492 H 0.63042 0.87627 0.14769 0.0
H493 H 0.63363 0.82877 0.13845 0.0
C494 C 0.61667 0.78365 0.21531 0.0
C495 C 0.60711 0.76216 0.25944 0.0
C496 C 0.61399 0.81065 0.21945 0.0
C497 C 0.59427 0.76783 0.30718 0.0
C498 C 0.59144 0.79445 0.31145 0.0
C499 C 0.59951 0.84345 0.27306 0.0
C500 C 0.61011 0.86564 0.23013 0.0
C501 C 0.60145 0.81615 0.2681 0.0
C502 C 0.6221 0.8597 0.18151 0.0
C503 C 0.624 0.83251 0.1762 0.0
H504 H 0.86051 0.63114 0.69856 0.0
H505 H 0.82972 0.55603 0.81646 0.0
H506 H 0.77843 0.55175 0.81954 0.0
H507 H 0.7421 0.56925 0.78917 0.0
H508 H 0.77278 0.64451 0.67168 0.0
H509 H 0.82409 0.64873 0.66823 0.0
C510 C 0.8426 0.6138 0.72491 0.0
C511 C 0.84914 0.59394 0.75721 0.0
C512 C 0.81301 0.61147 0.72667 0.0
C513 C 0.82552 0.57167 0.79113 0.0
C514 C 0.79608 0.56918 0.79296 0.0
C515 C 0.75997 0.58661 0.76277 0.0
C516 C 0.75341 0.60652 0.73075 0.0
C517 C 0.78955 0.58896 0.76097 0.0
C518 C 0.77702 0.62885 0.69684 0.0
C519 C 0.80645 0.63129 0.6948 0.0
H520 H 0.25731 0.86025 0.17625 0.0
H521 H 0.29361 0.84691 0.33144 0.0
H522 H 0.24754 0.79585 0.34165 0.0
H523 H 0.19612 0.75555 0.30863 0.0
H524 H 0.15919 0.76847 0.15393 0.0
H525 H 0.20623 0.81887 0.14154 0.0
C526 C 0.25526 0.84611 0.21214 0.0
C527 C 0.27901 0.85762 0.25307 0.0
C528 C 0.22846 0.81663 0.21805 0.0
C529 C 0.2758 0.83885 0.29928 0.0
C530 C 0.24937 0.80956 0.30525 0.0
C531 C 0.19833 0.76928 0.27204 0.0
C532 C 0.17397 0.75813 0.23242 0.0
C533 C 0.22542 0.79832 0.26522 0.0
C534 C 0.17746 0.77636 0.18521 0.0
C535 C 0.20439 0.80527 0.17809 0.0
H536 H 0.41454 0.23577 0.68592 0.0
H537 H 0.46924 0.27274 0.83627 0.0
H538 H 0.47173 0.22521 0.8478 0.0
H539 H 0.45774 0.1727 0.81676 0.0
H540 H 0.40308 0.13511 0.66668 0.0
H541 H 0.40132 0.18315 0.65365 0.0
C542 C 0.4271 0.23348 0.72109 0.0
C543 C 0.44162 0.25794 0.76017 0.0
C544 C 0.42843 0.20585 0.72771 0.0
C545 C 0.45778 0.25443 0.80548 0.0
C546 C 0.45923 0.22717 0.81222 0.0
C547 C 0.44546 0.17495 0.78108 0.0
C548 C 0.43051 0.15015 0.74288 0.0
C549 C 0.44451 0.20266 0.77382 0.0
C550 C 0.4148 0.15371 0.69685 0.0
C551 C 0.41376 0.18123 0.68936 0.0
loop_
_geom_bond_atom_site_label_1
_geom_bond_atom_site_label_2
_geom_bond_distance
_geom_bond_site_symmetry_2
_ccdc_geom_bond_type
Zn0 O3 2.031 . S
Zn0 O5 2.049 . S
Zn0 O10 2.067 . S
Zn1 O2 1.962 . S
Zn1 O4 1.986 . S
Zn1 O6 1.996 . S
Zn1 O9 1.943 . S
O2 Zn1 1.962 . S
O2 C7 1.254 . S
O3 Zn0 2.031 . S
O3 C7 1.269 . S
O4 Zn1 1.986 . S
O4 C11 1.262 . S
O5 Zn0 2.049 . S
O5 C13 1.260 . S
O6 Zn1 1.996 . S
O6 C13 1.257 . S
C7 O2 1.254 . S
C7 O3 1.269 . S
C8 O9 1.249 . S
C8 O10 1.270 . S
O9 Zn1 1.943 . S
O9 C8 1.249 . S
O10 Zn0 2.067 . S
O10 C8 1.270 . S
C11 O4 1.262 . S
C11 O12 1.232 . S
O12 C11 1.232 . S
C13 O5 1.260 . S
C13 O6 1.257 . S
Zn14 O17 2.031 . S
Zn14 O19 2.049 . S
Zn14 O24 2.067 . S
Zn15 O16 1.962 . S
Zn15 O18 1.986 . S
Zn15 O20 1.996 . S
Zn15 O23 1.943 . S
O16 Zn15 1.962 . S
O16 C21 1.254 . S
O17 Zn14 2.031 . S
O17 C21 1.269 . S
O18 Zn15 1.986 . S
O18 C25 1.262 . S
O19 Zn14 2.049 . S
O19 C27 1.260 . S
O20 Zn15 1.996 . S
O20 C27 1.257 . S
C21 O16 1.254 . S
C21 O17 1.269 . S
C22 O23 1.249 . S
C22 O24 1.270 . S
O23 Zn15 1.943 . S
O23 C22 1.249 . S
O24 Zn14 2.067 . S
O24 C22 1.270 . S
C25 O18 1.262 . S
C25 O26 1.232 . S
O26 C25 1.232 . S
C27 O19 1.260 . S
C27 O20 1.257 . S
Zn28 O31 2.031 . S
Zn28 O33 2.049 . S
Zn28 O38 2.067 . S
Zn29 O30 1.962 . S
Zn29 O32 1.986 . S
Zn29 O34 1.996 . S
Zn29 O37 1.943 . S
O30 Zn29 1.962 . S
O30 C35 1.254 . S
O31 Zn28 2.031 . S
O31 C35 1.269 . S
O32 Zn29 1.986 . S
O32 C39 1.262 . S
O33 Zn28 2.049 . S
O33 C41 1.260 . S
O34 Zn29 1.996 . S
O34 C41 1.257 . S
C35 O30 1.254 . S
C35 O31 1.269 . S
C36 O37 1.249 . S
C36 O38 1.270 . S
O37 Zn29 1.943 . S
O37 C36 1.249 . S
O38 Zn28 2.067 . S
O38 C36 1.270 . S
C39 O32 1.262 . S
C39 O40 1.232 . S
O40 C39 1.232 . S
C41 O33 1.260 . S
C41 O34 1.257 . S
Zn42 O45 2.031 . S
Zn42 O47 2.049 . S
Zn42 O52 2.067 . S
Zn43 O44 1.962 . S
Zn43 O46 1.986 . S
Zn43 O48 1.996 . S
Zn43 O51 1.943 . S
O44 Zn43 1.962 . S
O44 C49 1.254 . S
O45 Zn42 2.031 . S
O45 C49 1.269 . S
O46 Zn43 1.986 . S
O46 C53 1.262 . S
O47 Zn42 2.049 . S
O47 C55 1.260 . S
O48 Zn43 1.996 . S
O48 C55 1.257 . S
C49 O44 1.254 . S
C49 O45 1.269 . S
C50 O51 1.249 . S
C50 O52 1.270 . S
O51 Zn43 1.943 . S
O51 C50 1.249 . S
O52 Zn42 2.067 . S
O52 C50 1.270 . S
C53 O46 1.262 . S
C53 O54 1.232 . S
O54 C53 1.232 . S
C55 O47 1.260 . S
C55 O48 1.257 . S
Zn56 O59 2.031 . S
Zn56 O61 2.049 . S
Zn56 O66 2.067 . S
Zn57 O58 1.962 . S
Zn57 O60 1.986 . S
Zn57 O62 1.996 . S
Zn57 O65 1.943 . S
O58 Zn57 1.962 . S
O58 C63 1.254 . S
O59 Zn56 2.031 . S
O59 C63 1.269 . S
O60 Zn57 1.986 . S
O60 C67 1.262 . S
O61 Zn56 2.049 . S
O61 C69 1.260 . S
O62 Zn57 1.996 . S
O62 C69 1.257 . S
C63 O58 1.254 . S
C63 O59 1.269 . S
C64 O65 1.249 . S
C64 O66 1.270 . S
O65 Zn57 1.943 . S
O65 C64 1.249 . S
O66 Zn56 2.067 . S
O66 C64 1.270 . S
C67 O60 1.262 . S
C67 O68 1.232 . S
O68 C67 1.232 . S
C69 O61 1.260 . S
C69 O62 1.257 . S
Zn70 O73 2.031 . S
Zn70 O75 2.049 . S
Zn70 O80 2.067 . S
Zn71 O72 1.962 . S
Zn71 O74 1.986 . S
Zn71 O76 1.996 . S
Zn71 O79 1.943 . S
O72 Zn71 1.962 . S
O72 C77 1.254 . S
O73 Zn70 2.031 . S
O73 C77 1.269 . S
O74 Zn71 1.986 . S
O74 C81 1.262 . S
O75 Zn70 2.049 . S
O75 C83 1.260 . S
O76 Zn71 1.996 . S
O76 C83 1.257 . S
C77 O72 1.254 . S
C77 O73 1.269 . S
C78 O79 1.249 . S
C78 O80 1.270 . S
O79 Zn71 1.943 . S
O79 C78 1.249 . S
O80 Zn70 2.067 . S
O80 C78 1.270 . S
C81 O74 1.262 . S
C81 O82 1.232 . S
O82 C81 1.232 . S
C83 O75 1.260 . S
C83 O76 1.257 . S
Zn84 O87 2.031 . S
Zn84 O89 2.049 . S
Zn84 O94 2.067 . S
Zn85 O86 1.962 . S
Zn85 O88 1.986 . S
Zn85 O90 1.996 . S
Zn85 O93 1.943 . S
O86 Zn85 1.962 . S
O86 C91 1.254 . S
O87 Zn84 2.031 . S
O87 C91 1.269 . S
O88 Zn85 1.986 . S
O88 C95 1.262 . S
O89 Zn84 2.049 . S
O89 C97 1.260 . S
O90 Zn85 1.996 . S
O90 C97 1.257 . S
C91 O86 1.254 . S
C91 O87 1.269 . S
C92 O93 1.249 . S
C92 O94 1.270 . S
O93 Zn85 1.943 . S
O93 C92 1.249 . S
O94 Zn84 2.067 . S
O94 C92 1.270 . S
C95 O88 1.262 . S
C95 O96 1.232 . S
O96 C95 1.232 . S
C97 O89 1.260 . S
C97 O90 1.257 . S
Zn98 O101 2.031 . S
Zn98 O103 2.049 . S
Zn98 O108 2.067 . S
Zn99 O100 1.962 . S
Zn99 O102 1.986 . S
Zn99 O104 1.996 . S
Zn99 O107 1.943 . S
O100 Zn99 1.962 . S
O100 C105 1.254 . S
O101 Zn98 2.031 . S
O101 C105 1.269 . S
O102 Zn99 1.986 . S
O102 C109 1.262 . S
O103 Zn98 2.049 . S
O103 C111 1.260 . S
O104 Zn99 1.996 . S
O104 C111 1.257 . S
C105 O100 1.254 . S
C105 O101 1.269 . S
C106 O107 1.249 . S
C106 O108 1.270 . S
O107 Zn99 1.943 . S
O107 C106 1.249 . S
O108 Zn98 2.067 . S
O108 C106 1.270 . S
C109 O102 1.262 . S
C109 O110 1.232 . S
O110 C109 1.232 . S
C111 O103 1.260 . S
C111 O104 1.257 . S
Zn112 O115 2.031 . S
Zn112 O117 2.049 . S
Zn112 O122 2.067 . S
Zn113 O114 1.962 . S
Zn113 O116 1.986 . S
Zn113 O118 1.996 . S
Zn113 O121 1.943 . S
O114 Zn113 1.962 . S
O114 C119 1.254 . S
O115 Zn112 2.031 . S
O115 C119 1.269 . S
O116 Zn113 1.986 . S
O116 C123 1.262 . S
O117 Zn112 2.049 . S
O117 C125 1.260 . S
O118 Zn113 1.996 . S
O118 C125 1.257 . S
C119 O114 1.254 . S
C119 O115 1.269 . S
C120 O121 1.249 . S
C120 O122 1.270 . S
O121 Zn113 1.943 . S
O121 C120 1.249 . S
O122 Zn112 2.067 . S
O122 C120 1.270 . S
C123 O116 1.262 . S
C123 O124 1.232 . S
O124 C123 1.232 . S
C125 O117 1.260 . S
C125 O118 1.257 . S
Zn126 O129 2.031 . S
Zn126 O131 2.049 . S
Zn126 O136 2.067 . S
Zn127 O128 1.962 . S
Zn127 O130 1.986 . S
Zn127 O132 1.996 . S
Zn127 O135 1.943 . S
O128 Zn127 1.962 . S
O128 C133 1.254 . S
O129 Zn126 2.031 . S
O129 C133 1.269 . S
O130 Zn127 1.986 . S
O130 C137 1.262 . S
O131 Zn126 2.049 . S
O131 C139 1.260 . S
O132 Zn127 1.996 . S
O132 C139 1.257 . S
C133 O128 1.254 . S
C133 O129 1.269 . S
C134 O135 1.249 . S
C134 O136 1.270 . S
O135 Zn127 1.943 . S
O135 C134 1.249 . S
O136 Zn126 2.067 . S
O136 C134 1.270 . S
C137 O130 1.262 . S
C137 O138 1.232 . S
O138 C137 1.232 . S
C139 O131 1.260 . S
C139 O132 1.257 . S
Zn140 O143 2.031 . S
Zn140 O145 2.049 . S
Zn140 O150 2.067 . S
Zn141 O142 1.962 . S
Zn141 O144 1.986 . S
Zn141 O146 1.996 . S
Zn141 O149 1.943 . S
O142 Zn141 1.962 . S
O142 C147 1.254 . S
O143 Zn140 2.031 . S
O143 C147 1.269 . S
O144 Zn141 1.986 . S
O144 C151 1.262 . S
O145 Zn140 2.049 . S
O145 C153 1.260 . S
O146 Zn141 1.996 . S
O146 C153 1.257 . S
C147 O142 1.254 . S
C147 O143 1.269 . S
C148 O149 1.249 . S
C148 O150 1.270 . S
O149 Zn141 1.943 . S
O149 C148 1.249 . S
O150 Zn140 2.067 . S
O150 C148 1.270 . S
C151 O144 1.262 . S
C151 O152 1.232 . S
O152 C151 1.232 . S
C153 O145 1.260 . S
C153 O146 1.257 . S
Zn154 O157 2.031 . S
Zn154 O159 2.049 . S
Zn154 O164 2.067 . S
Zn155 O156 1.962 . S
Zn155 O158 1.986 . S
Zn155 O160 1.996 . S
Zn155 O163 1.943 . S
O156 Zn155 1.962 . S
O156 C161 1.254 . S
O157 Zn154 2.031 . S
O157 C161 1.269 . S
O158 Zn155 1.986 . S
O158 C165 1.262 . S
O159 Zn154 2.049 . S
O159 C167 1.260 . S
O160 Zn155 1.996 . S
O160 C167 1.257 . S
C161 O156 1.254 . S
C161 O157 1.269 . S
C162 O163 1.249 . S
C162 O164 1.270 . S
O163 Zn155 1.943 . S
O163 C162 1.249 . S
O164 Zn154 2.067 . S
O164 C162 1.270 . S
C165 O158 1.262 . S
C165 O166 1.232 . S
O166 C165 1.232 . S
C167 O159 1.260 . S
C167 O160 1.257 . S
H168 C174 0.930 . S
H169 C177 0.930 . S
H170 C178 0.930 . S
H171 C179 0.930 . S
H172 C182 0.930 . S
H173 C183 0.930 . S
C174 H168 0.930 . S
C174 C175 1.355 . S
C174 C176 1.415 1_554 S
C175 C174 1.355 . S
C175 C177 1.419 1_455 S
C176 C174 1.415 1_556 S
C176 C181 1.425 1_456 S
C176 C183 1.409 . S
C177 H169 0.930 . S
C177 C175 1.419 1_655 S
C177 C178 1.362 . S
C178 H170 0.930 . S
C178 C177 1.362 . S
C178 C181 1.409 . S
C179 H171 0.930 . S
C179 C180 1.355 . S
C179 C181 1.415 1_556 S
C180 C179 1.355 . S
C180 C182 1.419 1_655 S
C181 C176 1.425 1_654 S
C181 C178 1.409 . S
C181 C179 1.415 1_554 S
C182 H172 0.930 . S
C182 C180 1.419 1_455 S
C182 C183 1.362 . S
C183 H173 0.930 . S
C183 C176 1.409 . S
C183 C182 1.362 . S
H184 C190 0.930 . S
H185 C193 0.930 . S
H186 C194 0.930 . S
H187 C195 0.930 . S
H188 C198 0.930 . S
H189 C199 0.930 . S
C190 H184 0.930 . S
C190 C191 1.355 . S
C190 C192 1.415 . S
C191 C190 1.355 . S
C191 C193 1.419 . S
C192 C190 1.415 . S
C192 C197 1.425 1_565 S
C192 C199 1.409 1_565 S
C193 H185 0.930 . S
C193 C191 1.419 . S
C193 C194 1.362 . S
C194 H186 0.930 . S
C194 C193 1.362 . S
C194 C197 1.409 1_565 S
C195 H187 0.930 . S
C195 C196 1.355 . S
C195 C197 1.415 . S
C196 C195 1.355 . S
C196 C198 1.419 . S
C197 C192 1.425 1_545 S
C197 C194 1.409 1_545 S
C197 C195 1.415 . S
C198 H188 0.930 . S
C198 C196 1.419 . S
C198 C199 1.362 . S
C199 H189 0.930 . S
C199 C192 1.409 1_545 S
C199 C198 1.362 . S
H200 C206 0.930 . S
H201 C209 0.930 . S
H202 C210 0.930 . S
H203 C211 0.930 . S
H204 C214 0.930 . S
H205 C215 0.930 . S
C206 H200 0.930 . S
C206 C207 1.355 . S
C206 C208 1.415 . S
C207 C206 1.355 . S
C207 C209 1.419 . S
C208 C206 1.415 . S
C208 C213 1.425 1_554 S
C208 C215 1.409 1_554 S
C209 H201 0.930 . S
C209 C207 1.419 . S
C209 C210 1.362 . S
C210 H202 0.930 . S
C210 C209 1.362 . S
C210 C213 1.409 1_554 S
C211 H203 0.930 . S
C211 C212 1.355 . S
C211 C213 1.415 . S
C212 C211 1.355 . S
C212 C214 1.419 . S
C213 C208 1.425 1_556 S
C213 C210 1.409 1_556 S
C213 C211 1.415 . S
C214 H204 0.930 . S
C214 C212 1.419 . S
C214 C215 1.362 . S
C215 H205 0.930 . S
C215 C208 1.409 1_556 S
C215 C214 1.362 . S
H216 C222 0.930 1_655 S
H217 C225 0.930 . S
H218 C226 0.930 . S
H219 C227 0.930 1_455 S
H220 C230 0.930 . S
H221 C231 0.930 . S
C222 H216 0.930 1_455 S
C222 C223 1.355 . S
C222 C224 1.415 1_455 S
C223 C222 1.355 . S
C223 C225 1.419 . S
C224 C222 1.415 1_655 S
C224 C229 1.425 1_655 S
C224 C231 1.409 . S
C225 H217 0.930 . S
C225 C223 1.419 . S
C225 C226 1.362 . S
C226 H218 0.930 . S
C226 C225 1.362 . S
C226 C229 1.409 . S
C227 H219 0.930 1_655 S
C227 C228 1.355 . S
C227 C229 1.415 1_655 S
C228 C227 1.355 . S
C228 C230 1.419 . S
C229 C224 1.425 1_455 S
C229 C226 1.409 . S
C229 C227 1.415 1_455 S
C230 H220 0.930 . S
C230 C228 1.419 . S
C230 C231 1.362 . S
C231 H221 0.930 . S
C231 C224 1.409 . S
C231 C230 1.362 . S
H232 C238 0.930 . S
H233 C241 0.930 . S
H234 C242 0.930 . S
H235 C243 0.930 . S
H236 C246 0.930 . S
H237 C247 0.930 . S
C238 H232 0.930 . S
C238 C239 1.355 . S
C238 C240 1.415 . S
C239 C238 1.355 . S
C239 C241 1.419 . S
C240 C238 1.415 . S
C240 C245 1.425 1_546 S
C240 C247 1.409 1_556 S
C241 H233 0.930 . S
C241 C239 1.419 . S
C241 C242 1.362 1_545 S
C242 H234 0.930 . S
C242 C241 1.362 1_565 S
C242 C245 1.409 1_556 S
C243 H235 0.930 . S
C243 C244 1.355 . S
C243 C245 1.415 . S
C244 C243 1.355 . S
C244 C246 1.419 . S
C245 C240 1.425 1_564 S
C245 C242 1.409 1_554 S
C245 C243 1.415 . S
C246 H236 0.930 . S
C246 C244 1.419 . S
C246 C247 1.362 1_565 S
C247 H237 0.930 . S
C247 C240 1.409 1_554 S
C247 C246 1.362 1_545 S
H248 C254 0.930 . S
H249 C257 0.930 . S
H250 C258 0.930 . S
H251 C259 0.930 . S
H252 C262 0.930 . S
H253 C263 0.930 . S
C254 H248 0.930 . S
C254 C255 1.355 . S
C254 C256 1.415 . S
C255 C254 1.355 . S
C255 C257 1.419 . S
C256 C254 1.415 . S
C256 C261 1.425 . S
C256 C263 1.409 . S
C257 H249 0.930 . S
C257 C255 1.419 . S
C257 C258 1.362 . S
C258 H250 0.930 . S
C258 C257 1.362 . S
C258 C261 1.409 . S
C259 H251 0.930 . S
C259 C260 1.355 . S
C259 C261 1.415 . S
C260 C259 1.355 . S
C260 C262 1.419 . S
C261 C256 1.425 . S
C261 C258 1.409 . S
C261 C259 1.415 . S
C262 H252 0.930 . S
C262 C260 1.419 . S
C262 C263 1.362 . S
C263 H253 0.930 . S
C263 C256 1.409 . S
C263 C262 1.362 . S
H264 C270 0.930 . S
H265 C273 0.930 . S
H266 C274 0.930 . S
H267 C275 0.930 . S
H268 C278 0.930 . S
H269 C279 0.930 . S
C270 H264 0.930 . S
C270 C271 1.355 . S
C270 C272 1.415 . S
C271 C270 1.355 . S
C271 C273 1.419 . S
C272 C270 1.415 . S
C272 C277 1.425 1_656 S
C272 C279 1.409 1_556 S
C273 H265 0.930 . S
C273 C271 1.419 . S
C273 C274 1.362 1_655 S
C274 H266 0.930 . S
C274 C273 1.362 1_455 S
C274 C277 1.409 1_556 S
C275 H267 0.930 . S
C275 C276 1.355 . S
C275 C277 1.415 . S
C276 C275 1.355 . S
C276 C278 1.419 . S
C277 C272 1.425 1_454 S
C277 C274 1.409 1_554 S
C277 C275 1.415 . S
C278 H268 0.930 . S
C278 C276 1.419 . S
C278 C279 1.362 1_455 S
C279 H269 0.930 . S
C279 C272 1.409 1_554 S
C279 C278 1.362 1_655 S
H280 C286 0.930 . S
H281 C289 0.930 . S
H282 C290 0.930 . S
H283 C291 0.930 . S
H284 C294 0.930 . S
H285 C295 0.930 . S
C286 H280 0.930 . S
C286 C287 1.355 . S
C286 C288 1.415 . S
C287 C286 1.355 . S
C287 C289 1.419 1_565 S
C288 C286 1.415 . S
C288 C293 1.425 1_565 S
C288 C295 1.409 . S
C289 H281 0.930 . S
C289 C287 1.419 1_545 S
C289 C290 1.362 . S
C290 H282 0.930 . S
C290 C289 1.362 . S
C290 C293 1.409 . S
C291 H283 0.930 . S
C291 C292 1.355 . S
C291 C293 1.415 . S
C292 C291 1.355 . S
C292 C294 1.419 1_545 S
C293 C288 1.425 1_545 S
C293 C290 1.409 . S
C293 C291 1.415 . S
C294 H284 0.930 . S
C294 C292 1.419 1_565 S
C294 C295 1.362 . S
C295 H285 0.930 . S
C295 C288 1.409 . S
C295 C294 1.362 . S
H296 C302 0.930 . S
H297 C305 0.930 . S
H298 C306 0.930 . S
H299 C307 0.930 . S
H300 C310 0.930 . S
H301 C311 0.930 . S
C302 H296 0.930 . S
C302 C303 1.355 . S
C302 C304 1.415 . S
C303 C302 1.355 . S
C303 C305 1.419 . S
C304 C302 1.415 . S
C304 C309 1.425 1_556 S
C304 C311 1.409 . S
C305 H297 0.930 . S
C305 C303 1.419 . S
C305 C306 1.362 1_556 S
C306 H298 0.930 . S
C306 C305 1.362 1_554 S
C306 C309 1.409 . S
C307 H299 0.930 . S
C307 C308 1.355 . S
C307 C309 1.415 . S
C308 C307 1.355 . S
C308 C310 1.419 . S
C309 C304 1.425 1_554 S
C309 C306 1.409 . S
C309 C307 1.415 . S
C310 H300 0.930 . S
C310 C308 1.419 . S
C310 C311 1.362 1_554 S
C311 H301 0.930 . S
C311 C304 1.409 . S
C311 C310 1.362 1_556 S
H312 C318 0.955 . S
H313 C321 0.930 . S
H314 C322 0.930 . S
H315 C323 0.955 . S
H316 C326 0.930 . S
H317 C327 0.930 . S
C318 H312 0.955 . S
C318 C319 1.319 1_455 S
C318 C320 1.427 . S
C319 C318 1.319 1_655 S
C319 C321 1.419 . S
C320 C318 1.427 . S
C320 C325 1.425 1_455 S
C320 C327 1.409 . S
C321 H313 0.930 . S
C321 C319 1.419 . S
C321 C322 1.362 . S
C322 H314 0.930 . S
C322 C321 1.362 . S
C322 C325 1.409 . S
C323 H315 0.955 . S
C323 C324 1.318 1_655 S
C323 C325 1.427 . S
C324 C323 1.318 1_455 S
C324 C326 1.419 . S
C325 C320 1.425 1_655 S
C325 C322 1.409 . S
C325 C323 1.427 . S
C326 H316 0.930 . S
C326 C324 1.419 . S
C326 C327 1.362 . S
C327 H317 0.930 . S
C327 C320 1.409 . S
C327 C326 1.362 . S
H328 C334 0.930 . S
H329 C337 0.930 . S
H330 C338 0.930 . S
H331 C339 0.930 . S
H332 C342 0.930 . S
H333 C343 0.930 . S
C334 H328 0.930 . S
C334 C335 1.355 . S
C334 C336 1.415 1_556 S
C335 C334 1.355 . S
C335 C337 1.419 1_545 S
C336 C334 1.415 1_554 S
C336 C341 1.425 1_544 S
C336 C343 1.409 . S
C337 H329 0.930 . S
C337 C335 1.419 1_565 S
C337 C338 1.362 . S
C338 H330 0.930 . S
C338 C337 1.362 . S
C338 C341 1.409 . S
C339 H331 0.930 . S
C339 C340 1.355 . S
C339 C341 1.415 1_554 S
C340 C339 1.355 . S
C340 C342 1.419 1_565 S
C341 C336 1.425 1_566 S
C341 C338 1.409 . S
C341 C339 1.415 1_556 S
C342 H332 0.930 . S
C342 C340 1.419 1_545 S
C342 C343 1.362 . S
C343 H333 0.930 . S
C343 C336 1.409 . S
C343 C342 1.362 . S
H344 C350 0.930 . S
H345 C353 0.930 . S
H346 C354 0.930 . S
H347 C355 0.930 . S
H348 C358 0.930 . S
H349 C359 0.930 . S
C350 H344 0.930 . S
C350 C351 1.355 . S
C350 C352 1.415 . S
C351 C350 1.355 . S
C351 C353 1.419 . S
C352 C350 1.415 . S
C352 C357 1.425 . S
C352 C359 1.409 . S
C353 H345 0.930 . S
C353 C351 1.419 . S
C353 C354 1.362 . S
C354 H346 0.930 . S
C354 C353 1.362 . S
C354 C357 1.409 . S
C355 H347 0.930 . S
C355 C356 1.355 . S
C355 C357 1.415 . S
C356 C355 1.355 . S
C356 C358 1.419 . S
C357 C352 1.425 . S
C357 C354 1.409 . S
C357 C355 1.415 . S
C358 H348 0.930 . S
C358 C356 1.419 . S
C358 C359 1.362 . S
C359 H349 0.930 . S
C359 C352 1.409 . S
C359 C358 1.362 . S
H360 C366 0.930 . S
H361 C369 0.930 . S
H362 C370 0.930 . S
H363 C371 0.930 . S
H364 C374 0.930 . S
H365 C375 0.930 . S
C366 H360 0.930 . S
C366 C367 1.355 . S
C366 C368 1.415 . S
C367 C366 1.355 . S
C367 C369 1.419 . S
C368 C366 1.415 . S
C368 C373 1.425 . S
C368 C375 1.409 . S
C369 H361 0.930 . S
C369 C367 1.419 . S
C369 C370 1.362 . S
C370 H362 0.930 . S
C370 C369 1.362 . S
C370 C373 1.409 . S
C371 H363 0.930 . S
C371 C372 1.355 . S
C371 C373 1.415 . S
C372 C371 1.355 . S
C372 C374 1.419 . S
C373 C368 1.425 . S
C373 C370 1.409 . S
C373 C371 1.415 . S
C374 H364 0.930 . S
C374 C372 1.419 . S
C374 C375 1.362 . S
C375 H365 0.930 . S
C375 C368 1.409 . S
C375 C374 1.362 . S
H376 C382 0.930 . S
H377 C385 0.930 . S
H378 C386 0.930 . S
H379 C387 0.930 . S
H380 C390 0.930 . S
H381 C391 0.930 . S
C382 H376 0.930 . S
C382 C383 1.355 . S
C382 C384 1.415 . S
C383 C382 1.355 . S
C383 C385 1.419 . S
C384 C382 1.415 . S
C384 C389 1.425 . S
C384 C391 1.409 . S
C385 H377 0.930 . S
C385 C383 1.419 . S
C385 C386 1.362 . S
C386 H378 0.930 . S
C386 C385 1.362 . S
C386 C389 1.409 . S
C387 H379 0.930 . S
C387 C388 1.355 . S
C387 C389 1.415 . S
C388 C387 1.355 . S
C388 C390 1.419 . S
C389 C384 1.425 . S
C389 C386 1.409 . S
C389 C387 1.415 . S
C390 H380 0.930 . S
C390 C388 1.419 . S
C390 C391 1.362 . S
C391 H381 0.930 . S
C391 C384 1.409 . S
C391 C390 1.362 . S
H392 C398 0.930 . S
H393 C401 0.930 . S
H394 C402 0.930 . S
H395 C403 0.930 . S
H396 C406 0.930 . S
H397 C407 0.930 . S
C398 H392 0.930 . S
C398 C399 1.355 . S
C398 C400 1.415 . S
C399 C398 1.355 . S
C399 C401 1.419 . S
C400 C398 1.415 . S
C400 C405 1.425 . S
C400 C407 1.409 . S
C401 H393 0.930 . S
C401 C399 1.419 . S
C401 C402 1.362 . S
C402 H394 0.930 . S
C402 C401 1.362 . S
C402 C405 1.409 . S
C403 H395 0.930 . S
C403 C404 1.355 . S
C403 C405 1.415 . S
C404 C403 1.355 . S
C404 C406 1.419 . S
C405 C400 1.425 . S
C405 C402 1.409 . S
C405 C403 1.415 . S
C406 H396 0.930 . S
C406 C404 1.419 . S
C406 C407 1.362 . S
C407 H397 0.930 . S
C407 C400 1.409 . S
C407 C406 1.362 . S
H408 C414 0.930 . S
H409 C417 0.930 . S
H410 C418 0.930 . S
H411 C419 0.930 . S
H412 C422 0.930 . S
H413 C423 0.930 . S
C414 H408 0.930 . S
C414 C415 1.355 . S
C414 C416 1.415 . S
C415 C414 1.355 . S
C415 C417 1.419 . S
C416 C414 1.415 . S
C416 C421 1.425 . S
C416 C423 1.409 . S
C417 H409 0.930 . S
C417 C415 1.419 . S
C417 C418 1.362 . S
C418 H410 0.930 . S
C418 C417 1.362 . S
C418 C421 1.409 . S
C419 H411 0.930 . S
C419 C420 1.355 . S
C419 C421 1.415 . S
C420 C419 1.355 . S
C420 C422 1.419 . S
C421 C416 1.425 . S
C421 C418 1.409 . S
C421 C419 1.415 . S
C422 H412 0.930 . S
C422 C420 1.419 . S
C422 C423 1.362 . S
C423 H413 0.930 . S
C423 C416 1.409 . S
C423 C422 1.362 . S
H424 C430 0.930 . S
H425 C433 0.930 . S
H426 C434 0.930 . S
H427 C435 0.930 . S
H428 C438 0.930 . S
H429 C439 0.930 . S
C430 H424 0.930 . S
C430 C431 1.355 . S
C430 C432 1.415 . S
C431 C430 1.355 . S
C431 C433 1.419 . S
C432 C430 1.415 . S
C432 C437 1.425 . S
C432 C439 1.409 . S
C433 H425 0.930 . S
C433 C431 1.419 . S
C433 C434 1.362 . S
C434 H426 0.930 . S
C434 C433 1.362 . S
C434 C437 1.409 . S
C435 H427 0.930 . S
C435 C436 1.355 . S
C435 C437 1.415 . S
C436 C435 1.355 . S
C436 C438 1.419 . S
C437 C432 1.425 . S
C437 C434 1.409 . S
C437 C435 1.415 . S
C438 H428 0.930 . S
C438 C436 1.419 . S
C438 C439 1.362 . S
C439 H429 0.930 . S
C439 C432 1.409 . S
C439 C438 1.362 . S
H440 C446 0.930 . S
H441 C449 0.930 . S
H442 C450 0.930 . S
H443 C451 0.930 . S
H444 C454 0.930 . S
H445 C455 0.930 . S
C446 H440 0.930 . S
C446 C447 1.355 . S
C446 C448 1.415 . S
C447 C446 1.355 . S
C447 C449 1.419 . S
C448 C446 1.415 . S
C448 C453 1.425 . S
C448 C455 1.409 . S
C449 H441 0.930 . S
C449 C447 1.419 . S
C449 C450 1.362 . S
C450 H442 0.930 . S
C450 C449 1.362 . S
C450 C453 1.409 . S
C451 H443 0.930 . S
C451 C452 1.355 . S
C451 C453 1.415 . S
C452 C451 1.355 . S
C452 C454 1.419 . S
C453 C448 1.425 . S
C453 C450 1.409 . S
C453 C451 1.415 . S
C454 H444 0.930 . S
C454 C452 1.419 . S
C454 C455 1.362 . S
C455 H445 0.930 . S
C455 C448 1.409 . S
C455 C454 1.362 . S
H456 C462 0.930 . S
H457 C465 0.930 . S
H458 C466 0.930 . S
H459 C467 0.930 . S
H460 C470 0.930 . S
H461 C471 0.930 . S
C462 H456 0.930 . S
C462 C463 1.355 . S
C462 C464 1.415 . S
C463 C462 1.355 . S
C463 C465 1.419 . S
C464 C462 1.415 . S
C464 C469 1.425 . S
C464 C471 1.409 . S
C465 H457 0.930 . S
C465 C463 1.419 . S
C465 C466 1.362 . S
C466 H458 0.930 . S
C466 C465 1.362 . S
C466 C469 1.409 . S
C467 H459 0.930 . S
C467 C468 1.355 . S
C467 C469 1.415 . S
C468 C467 1.355 . S
C468 C470 1.419 . S
C469 C464 1.425 . S
C469 C466 1.409 . S
C469 C467 1.415 . S
C470 H460 0.930 . S
C470 C468 1.419 . S
C470 C471 1.362 . S
C471 H461 0.930 . S
C471 C464 1.409 . S
C471 C470 1.362 . S
H472 C478 0.930 . S
H473 C481 0.930 . S
H474 C482 0.930 . S
H475 C483 0.930 . S
H476 C486 0.930 . S
H477 C487 0.930 . S
C478 H472 0.930 . S
C478 C479 1.355 . S
C478 C480 1.415 . S
C479 C478 1.355 . S
C479 C481 1.419 . S
C480 C478 1.415 . S
C480 C485 1.425 . S
C480 C487 1.409 . S
C481 H473 0.930 . S
C481 C479 1.419 . S
C481 C482 1.362 . S
C482 H474 0.930 . S
C482 C481 1.362 . S
C482 C485 1.409 . S
C483 H475 0.930 . S
C483 C484 1.355 . S
C483 C485 1.415 . S
C484 C483 1.355 . S
C484 C486 1.419 . S
C485 C480 1.425 . S
C485 C482 1.409 . S
C485 C483 1.415 . S
C486 H476 0.930 . S
C486 C484 1.419 . S
C486 C487 1.362 . S
C487 H477 0.930 . S
C487 C480 1.409 . S
C487 C486 1.362 . S
H488 C494 0.930 . S
H489 C497 0.930 . S
H490 C498 0.930 . S
H491 C499 0.930 . S
H492 C502 0.930 . S
H493 C503 0.930 . S
C494 H488 0.930 . S
C494 C495 1.355 . S
C494 C496 1.415 . S
C495 C494 1.355 . S
C495 C497 1.419 . S
C496 C494 1.415 . S
C496 C501 1.425 . S
C496 C503 1.409 . S
C497 H489 0.930 . S
C497 C495 1.419 . S
C497 C498 1.362 . S
C498 H490 0.930 . S
C498 C497 1.362 . S
C498 C501 1.409 . S
C499 H491 0.930 . S
C499 C500 1.355 . S
C499 C501 1.415 . S
C500 C499 1.355 . S
C500 C502 1.419 . S
C501 C496 1.425 . S
C501 C498 1.409 . S
C501 C499 1.415 . S
C502 H492 0.930 . S
C502 C500 1.419 . S
C502 C503 1.362 . S
C503 H493 0.930 . S
C503 C496 1.409 . S
C503 C502 1.362 . S
H504 C510 0.930 . S
H505 C513 0.930 . S
H506 C514 0.930 . S
H507 C515 0.930 . S
H508 C518 0.930 . S
H509 C519 0.930 . S
C510 H504 0.930 . S
C510 C511 1.355 . S
C510 C512 1.415 . S
C511 C510 1.355 . S
C511 C513 1.419 . S
C512 C510 1.415 . S
C512 C517 1.425 . S
C512 C519 1.409 . S
C513 H505 0.930 . S
C513 C511 1.419 . S
C513 C514 1.362 . S
C514 H506 0.930 . S
C514 C513 1.362 . S
C514 C517 1.409 . S
C515 H507 0.930 . S
C515 C516 1.355 . S
C515 C517 1.415 . S
C516 C515 1.355 . S
C516 C518 1.419 . S
C517 C512 1.425 . S
C517 C514 1.409 . S
C517 C515 1.415 . S
C518 H508 0.930 . S
C518 C516 1.419 . S
C518 C519 1.362 . S
C519 H509 0.930 . S
C519 C512 1.409 . S
C519 C518 1.362 . S
H520 C526 0.930 . S
H521 C529 0.930 . S
H522 C530 0.930 . S
H523 C531 0.930 . S
H524 C534 0.930 . S
H525 C535 0.930 . S
C526 H520 0.930 . S
C526 C527 1.355 . S
C526 C528 1.415 . S
C527 C526 1.355 . S
C527 C529 1.419 . S
C528 C526 1.415 . S
C528 C533 1.425 . S
C528 C535 1.409 . S
C529 H521 0.930 . S
C529 C527 1.419 . S
C529 C530 1.362 . S
C530 H522 0.930 . S
C530 C529 1.362 . S
C530 C533 1.409 . S
C531 H523 0.930 . S
C531 C532 1.355 . S
C531 C533 1.415 . S
C532 C531 1.355 . S
C532 C534 1.419 . S
C533 C528 1.425 . S
C533 C530 1.409 . S
C533 C531 1.415 . S
C534 H524 0.930 . S
C534 C532 1.419 . S
C534 C535 1.362 . S
C535 H525 0.930 . S
C535 C528 1.409 . S
C535 C534 1.362 . S
H536 C542 0.930 . S
H537 C545 0.930 . S
H538 C546 0.930 . S
H539 C547 0.930 . S
H540 C550 0.930 . S
H541 C551 0.930 . S
C542 H536 0.930 . S
C542 C543 1.355 . S
C542 C544 1.415 . S
C543 C542 1.355 . S
C543 C545 1.419 . S
C544 C542 1.415 . S
C544 C549 1.425 . S
C544 C551 1.409 . S
C545 H537 0.930 . S
C545 C543 1.419 . S
C545 C546 1.362 . S
C546 H538 0.930 . S
C546 C545 1.362 . S
C546 C549 1.409 . S
C547 H539 0.930 . S
C547 C548 1.355 . S
C547 C549 1.415 . S
C548 C547 1.355 . S
C548 C550 1.419 . S
C549 C544 1.425 . S
C549 C546 1.409 . S
C549 C547 1.415 . S
C550 H540 0.930 . S
C550 C548 1.419 . S
C550 C551 1.362 . S
C551 H541 0.930 . S
C551 C544 1.409 . S
C551 C550 1.362 . S
C175 C13 1.235 . S
C180 C167 1.276 . S
C191 C97 1.276 . S
C196 C27 1.340 . S
C207 C41 1.295 . S
C212 C111 1.238 . S
C223 C125 1.343 . S
C228 C55 1.283 . S
C239 C139 1.257 . S
C244 C69 1.326 . S
C255 C153 1.236 . S
C260 C83 1.288 . S
C271 C49 1.446 . S
C276 C119 1.464 . S
C287 C63 1.465 . S
C292 C133 1.446 . S
C303 C77 1.466 . S
C308 C147 1.478 . S
C319 C161 1.468 . S
C324 C7 1.477 . S
C335 C21 1.461 . S
C340 C91 1.447 . S
C351 C35 1.462 . S
C356 C105 1.447 . S
C367 C120 1.401 . S
C372 C8 1.447 . S
C383 C134 1.368 . S
C388 C22 1.415 . S
C399 C36 1.407 . S
C404 C148 1.369 . S
C415 C50 1.436 . S
C420 C162 1.375 . S
C431 C64 1.389 . S
C436 C92 1.445 . S
C447 C106 1.436 . S
C452 C78 1.429 . S
C463 C11 1.356 . S
C468 C151 1.359 . S
C479 C165 1.362 . S
C484 C25 1.358 . S
C495 C39 1.353 . S
C500 C95 1.351 . S
C511 C53 1.354 . S
C516 C109 1.351 . S
C527 C67 1.355 . S
C532 C123 1.352 . S
C543 C81 1.356 . S
C548 C137 1.353 . S
