# Generated by pormake.
# Topology vbm, (6)-cn, num edge types: 1
# Building blocks:
#     Node 0, Type 0, BuildingBlock: VOLQOD_clean_sbu_1, # of connection points: 6
#     Node 1, Type 0, BuildingBlock: VOLQOD_clean_sbu_1, # of connection points: 6
#     Node 2, Type 0, BuildingBlock: VOLQOD_clean_sbu_1, # of connection points: 6
#     Node 3, Type 0, BuildingBlock: VOLQOD_clean_sbu_1, # of connection points: 6
#     Node 4, Type 0, BuildingBlock: VOLQOD_clean_sbu_1, # of connection points: 6
#     Node 5, Type 0, BuildingBlock: VOLQOD_clean_sbu_1, # of connection points: 6
#     Node 6, Type 0, BuildingBlock: VOLQOD_clean_sbu_1, # of connection points: 6
#     Node 7, Type 0, BuildingBlock: VOLQOD_clean_sbu_1, # of connection points: 6
#     Node 8, Type 0, BuildingBlock: VOLQOD_clean_sbu_1, # of connection points: 6
#     Node 9, Type 0, BuildingBlock: VOLQOD_clean_sbu_1, # of connection points: 6
#     Node 10, Type 0, BuildingBlock: VOLQOD_clean_sbu_1, # of connection points: 6
#     Node 11, Type 0, BuildingBlock: VOLQOD_clean_sbu_1, # of connection points: 6
#     Node 12, Type 0, BuildingBlock: VOLQOD_clean_sbu_1, # of connection points: 6
#     Node 13, Type 0, BuildingBlock: VOLQOD_clean_sbu_1, # of connection points: 6
#     Node 14, Type 0, BuildingBlock: VOLQOD_clean_sbu_1, # of connection points: 6
#     Node 15, Type 0, BuildingBlock: VOLQOD_clean_sbu_1, # of connection points: 6
#     Edge 16, Type (0, 0), BuildingBlock: CIFDUS_clean_linker_0, # of connection points: 2
#     Edge 17, Type (0, 0), BuildingBlock: CIFDUS_clean_linker_0, # of connection points: 2
#     Edge 18, Type (0, 0), BuildingBlock: CIFDUS_clean_linker_0, # of connection points: 2
#     Edge 19, Type (0, 0), BuildingBlock: CIFDUS_clean_linker_0, # of connection points: 2
#     Edge 20, Type (0, 0), BuildingBlock: CIFDUS_clean_linker_0, # of connection points: 2
#     Edge 21, Type (0, 0), BuildingBlock: CIFDUS_clean_linker_0, # of connection points: 2
#     Edge 22, Type (0, 0), BuildingBlock: CIFDUS_clean_linker_0, # of connection points: 2
#     Edge 23, Type (0, 0), BuildingBlock: CIFDUS_clean_linker_0, # of connection points: 2
#     Edge 24, Type (0, 0), BuildingBlock: CIFDUS_clean_linker_0, # of connection points: 2
#     Edge 25, Type (0, 0), BuildingBlock: CIFDUS_clean_linker_0, # of connection points: 2
#     Edge 26, Type (0, 0), BuildingBlock: CIFDUS_clean_linker_0, # of connection points: 2
#     Edge 27, Type (0, 0), BuildingBlock: CIFDUS_clean_linker_0, # of connection points: 2
#     Edge 28, Type (0, 0), BuildingBlock: CIFDUS_clean_linker_0, # of connection points: 2
#     Edge 29, Type (0, 0), BuildingBlock: CIFDUS_clean_linker_0, # of connection points: 2
#     Edge 30, Type (0, 0), BuildingBlock: CIFDUS_clean_linker_0, # of connection points: 2
#     Edge 31, Type (0, 0), BuildingBlock: CIFDUS_clean_linker_0, # of connection points: 2
#     Edge 32, Type (0, 0), BuildingBlock: CIFDUS_clean_linker_0, # of connection points: 2
#     Edge 33, Type (0, 0), BuildingBlock: CIFDUS_clean_linker_0, # of connection points: 2
#     Edge 34, Type (0, 0), BuildingBlock: CIFDUS_clean_linker_0, # of connection points: 2
#     Edge 35, Type (0, 0), BuildingBlock: CIFDUS_clean_linker_0, # of connection points: 2
#     Edge 36, Type (0, 0), BuildingBlock: CIFDUS_clean_linker_0, # of connection points: 2
#     Edge 37, Type (0, 0), BuildingBlock: CIFDUS_clean_linker_0, # of connection points: 2
#     Edge 38, Type (0, 0), BuildingBlock: CIFDUS_clean_linker_0, # of connection points: 2
#     Edge 39, Type (0, 0), BuildingBlock: CIFDUS_clean_linker_0, # of connection points: 2
#     Edge 40, Type (0, 0), BuildingBlock: CIFDUS_clean_linker_0, # of connection points: 2
#     Edge 41, Type (0, 0), BuildingBlock: CIFDUS_clean_linker_0, # of connection points: 2
#     Edge 42, Type (0, 0), BuildingBlock: CIFDUS_clean_linker_0, # of connection points: 2
#     Edge 43, Type (0, 0), BuildingBlock: CIFDUS_clean_linker_0, # of connection points: 2
#     Edge 44, Type (0, 0), BuildingBlock: CIFDUS_clean_linker_0, # of connection points: 2
#     Edge 45, Type (0, 0), BuildingBlock: CIFDUS_clean_linker_0, # of connection points: 2
#     Edge 46, Type (0, 0), BuildingBlock: CIFDUS_clean_linker_0, # of connection points: 2
#     Edge 47, Type (0, 0), BuildingBlock: CIFDUS_clean_linker_0, # of connection points: 2
#     Edge 48, Type (0, 0), BuildingBlock: CIFDUS_clean_linker_0, # of connection points: 2
#     Edge 49, Type (0, 0), BuildingBlock: CIFDUS_clean_linker_0, # of connection points: 2
#     Edge 50, Type (0, 0), BuildingBlock: CIFDUS_clean_linker_0, # of connection points: 2
#     Edge 51, Type (0, 0), BuildingBlock: CIFDUS_clean_linker_0, # of connection points: 2
#     Edge 52, Type (0, 0), BuildingBlock: CIFDUS_clean_linker_0, # of connection points: 2
#     Edge 53, Type (0, 0), BuildingBlock: CIFDUS_clean_linker_0, # of connection points: 2
#     Edge 54, Type (0, 0), BuildingBlock: CIFDUS_clean_linker_0, # of connection points: 2
#     Edge 55, Type (0, 0), BuildingBlock: CIFDUS_clean_linker_0, # of connection points: 2
#     Edge 56, Type (0, 0), BuildingBlock: CIFDUS_clean_linker_0, # of connection points: 2
#     Edge 57, Type (0, 0), BuildingBlock: CIFDUS_clean_linker_0, # of connection points: 2
#     Edge 58, Type (0, 0), BuildingBlock: CIFDUS_clean_linker_0, # of connection points: 2
#     Edge 59, Type (0, 0), BuildingBlock: CIFDUS_clean_linker_0, # of connection points: 2
#     Edge 60, Type (0, 0), BuildingBlock: CIFDUS_clean_linker_0, # of connection points: 2
#     Edge 61, Type (0, 0), BuildingBlock: CIFDUS_clean_linker_0, # of connection points: 2
#     Edge 62, Type (0, 0), BuildingBlock: CIFDUS_clean_linker_0, # of connection points: 2
#     Edge 63, Type (0, 0), BuildingBlock: CIFDUS_clean_linker_0, # of connection points: 2
# Relax obj value: 0.098
# Max RMSD: 0.118
# Mean RMSD: 0.118
data_MOF--net-vbm--node1-VOLQOD_clean_sbu_1--edge1-CIFDUS_clean_linker_0
_symmetry_space_group_name_H-M    P1
_symmetry_Int_Tables_number       1
_symmetry_cell_setting            triclinic
loop_
_symmetry_equiv_pos_as_xyz
'x, y, z'
_cell_length_a     58.021165
_cell_length_b     15.116629
_cell_length_c     60.438145
_cell_angle_alpha  89.907923
_cell_angle_beta   89.917234
_cell_angle_gamma 90.008824
loop_
_atom_site_label
_atom_site_type_symbol
_atom_site_fract_x
_atom_site_fract_y
_atom_site_fract_z
_atom_type_partial_charge
O0 O 0.09818 0.23577 0.09982 0.0
Zn1 Zn 0.09811 0.10626 0.09303 0.0
O2 O 0.11798 0.04106 0.11324 0.0
Zn3 Zn 0.14101 0.97488 0.09631 0.0
Zn4 Zn 0.13297 0.1221 0.13351 0.0
Zn5 Zn 0.09939 0.96047 0.13048 0.0
O6 O 0.13957 0.84522 0.10323 0.0
O7 O 0.10738 0.83642 0.12315 0.0
O8 O 0.10851 0.09189 0.06174 0.0
O9 O 0.13581 -0.01105 0.0634 0.0
O10 O 0.17292 0.02074 0.10239 0.0
O11 O 0.16659 0.12651 0.12724 0.0
O12 O 0.12743 0.09149 0.16566 0.0
O13 O 0.06543 0.06455 0.09487 0.0
O14 O 0.10428 0.97512 0.16303 0.0
O15 O 0.06595 0.9756 0.12416 0.0
C16 C 0.1089 0.28059 0.1143 0.0
C17 C 0.12417 0.80021 0.11316 0.0
C18 C 0.18006 0.08315 0.1147 0.0
C19 C 0.12296 0.041 0.05234 0.0
C20 C 0.11562 0.03008 0.17462 0.0
C21 C 0.05513 0.01553 0.10885 0.0
O22 O 0.12242 0.24489 0.12819 0.0
O23 O 0.87875 0.7283 0.10302 0.0
Zn24 Zn 0.87975 0.86092 0.09894 0.0
O25 O 0.85763 0.91932 0.11824 0.0
Zn26 Zn 0.83413 0.98167 0.10105 0.0
Zn27 Zn 0.84333 0.83308 0.13742 0.0
Zn28 Zn 0.87367 0.00297 0.13658 0.0
O29 O 0.83546 0.11375 0.1063 0.0
O30 O 0.86742 0.12567 0.12638 0.0
O31 O 0.87273 0.88693 0.06718 0.0
O32 O 0.83979 0.9621 0.06862 0.0
O33 O 0.80234 0.93312 0.10686 0.0
O34 O 0.81047 0.82155 0.12954 0.0
O35 O 0.84536 0.86552 0.16968 0.0
O36 O 0.9119 0.90081 0.10542 0.0
O37 O 0.86357 -0.00546 0.16813 0.0
O38 O 0.90769 0.98462 0.13536 0.0
C39 C 0.86856 0.68001 0.11726 0.0
C40 C 0.85103 0.16044 0.11548 0.0
C41 C 0.79631 0.86482 0.11776 0.0
C42 C 0.85592 0.92544 0.05768 0.0
C43 C 0.85311 0.93476 0.17905 0.0
C44 C 0.92035 0.94609 0.12117 0.0
O45 O 0.85552 0.71253 0.13205 0.0
O46 O 0.08967 0.70901 0.38211 0.0
Zn47 Zn 0.08941 0.84259 0.38565 0.0
O48 O 0.10928 0.89966 0.3637 0.0
Zn49 Zn 0.13494 0.96178 0.37793 0.0
Zn50 Zn 0.12127 0.81188 0.34352 0.0
Zn51 Zn 0.09131 0.98319 0.3467 0.0
O52 O 0.13309 0.09391 0.37276 0.0
O53 O 0.09962 0.10618 0.35515 0.0
O54 O 0.10022 0.87172 0.41632 0.0
O55 O 0.13316 0.94427 0.41089 0.0
O56 O 0.16583 0.91356 0.36837 0.0
O57 O 0.15516 0.80178 0.34686 0.0
O58 O 0.11452 0.8402 0.31164 0.0
O59 O 0.05679 0.88563 0.3831 0.0
O60 O 0.09681 0.97014 0.31398 0.0
O61 O 0.05767 0.97143 0.35323 0.0
C62 C 0.09866 0.66008 0.36728 0.0
C63 C 0.11693 0.1408 0.36464 0.0
C64 C 0.17066 0.84604 0.35668 0.0
C65 C 0.11815 0.91014 0.4237 0.0
C66 C 0.1056 0.90802 0.30255 0.0
C67 C 0.04668 0.93438 0.36894 0.0
O68 O 0.11019 0.69208 0.35129 0.0
O69 O 0.8718 0.277 0.38404 0.0
Zn70 Zn 0.87354 0.14291 0.38655 0.0
O71 O 0.85131 0.08782 0.36659 0.0
Zn72 Zn 0.82702 0.02574 0.38277 0.0
Zn73 Zn 0.83798 0.17576 0.3472 0.0
Zn74 Zn 0.86708 0.00334 0.34841 0.0
O75 O 0.82748 0.89359 0.37667 0.0
O76 O 0.86077 0.88069 0.35869 0.0
O77 O 0.86671 0.1069 0.41801 0.0
O78 O 0.83294 0.03758 0.41533 0.0
O79 O 0.79568 0.07956 0.37699 0.0
O80 O 0.80465 0.18829 0.35373 0.0
O81 O 0.84165 0.14612 0.31478 0.0
O82 O 0.90604 0.10517 0.37918 0.0
O83 O 0.85748 0.01269 0.31688 0.0
O84 O 0.90097 0.02116 0.34941 0.0
C85 C 0.86211 0.3266 0.36972 0.0
C86 C 0.84361 0.84631 0.36856 0.0
C87 C 0.79007 0.14705 0.36555 0.0
C88 C 0.84953 0.06778 0.42683 0.0
C89 C 0.84861 0.07508 0.30563 0.0
C90 C 0.91404 0.05985 0.36317 0.0
O91 O 0.85005 0.29522 0.35405 0.0
O92 O 0.88245 0.67214 0.85246 0.0
Zn93 Zn 0.88498 0.8032 0.84562 0.0
O94 O 0.86555 0.8718 0.86599 0.0
Zn95 Zn 0.84099 0.93272 0.84967 0.0
Zn96 Zn 0.85248 0.7944 0.88806 0.0
Zn97 Zn 0.88374 0.95604 0.88216 0.0
O98 O 0.84117 0.06533 0.85569 0.0
O99 O 0.87309 0.07762 0.87571 0.0
O100 O 0.87501 0.82253 0.81409 0.0
O101 O 0.84707 0.92265 0.81712 0.0
O102 O 0.80988 0.87333 0.85549 0.0
O103 O 0.81929 0.78044 0.88252 0.0
O104 O 0.85655 0.83599 0.91921 0.0
O105 O 0.91851 0.84417 0.84733 0.0
O106 O 0.88291 0.94072 0.91505 0.0
O107 O 0.91608 0.94942 0.87284 0.0
C108 C 0.87513 0.632 0.86965 0.0
C109 C 0.85615 0.1125 0.86566 0.0
C110 C 0.80452 0.81271 0.86931 0.0
C111 C 0.86039 0.87489 0.80544 0.0
C112 C 0.87027 0.89274 0.92732 0.0
C113 C 0.92778 0.90419 0.85918 0.0
O114 O 0.86517 0.67247 0.8854 0.0
O115 O 0.09512 0.32251 0.84358 0.0
Zn116 Zn 0.09422 0.18717 0.84155 0.0
O117 O 0.11708 0.13299 0.86131 0.0
Zn118 Zn 0.1413 0.07135 0.84474 0.0
Zn119 Zn 0.13054 0.22296 0.8798 0.0
Zn120 Zn 0.10234 0.04889 0.88072 0.0
O121 O 0.1417 0.9391 0.85148 0.0
O122 O 0.10966 0.92589 0.87142 0.0
O123 O 0.1006 0.15026 0.81012 0.0
O124 O 0.13388 0.07779 0.81237 0.0
O125 O 0.17254 0.12981 0.84897 0.0
O126 O 0.1637 0.23527 0.87308 0.0
O127 O 0.12673 0.19937 0.91232 0.0
O128 O 0.06221 0.14276 0.84892 0.0
O129 O 0.11139 0.06482 0.91256 0.0
O130 O 0.06833 0.05916 0.87871 0.0
C131 C 0.10576 0.37262 0.85714 0.0
C132 C 0.12625 0.89158 0.86071 0.0
C133 C 0.17814 0.19681 0.86059 0.0
C134 C 0.11714 0.10816 0.80108 0.0
C135 C 0.1199 0.13087 0.92269 0.0
C136 C 0.05485 0.09451 0.86471 0.0
O137 O 0.11864 0.34144 0.8722 0.0
O138 O 0.88031 0.21662 0.63126 0.0
Zn139 Zn 0.88315 0.08596 0.63772 0.0
O140 O 0.86413 0.01564 0.61775 0.0
Zn141 Zn 0.84074 0.95111 0.63446 0.0
Zn142 Zn 0.84958 0.09496 0.59736 0.0
Zn143 Zn 0.88233 0.93475 0.60025 0.0
O144 O 0.84133 0.82092 0.62754 0.0
O145 O 0.87181 0.81103 0.6054 0.0
O146 O 0.87429 0.06435 0.66952 0.0
O147 O 0.84767 0.95904 0.66683 0.0
O148 O 0.80915 0.00572 0.63018 0.0
O149 O 0.8172 0.11353 0.60629 0.0
O150 O 0.85117 0.05386 0.56612 0.0
O151 O 0.91644 0.0493 0.63447 0.0
O152 O 0.88051 0.95993 0.56737 0.0
O153 O 0.91496 0.93918 0.61004 0.0
C154 C 0.87359 0.25573 0.61376 0.0
C155 C 0.85553 0.77505 0.61627 0.0
C156 C 0.80324 0.0738 0.61909 0.0
C157 C 0.86062 0.00867 0.67836 0.0
C158 C 0.86583 0.00481 0.55645 0.0
C159 C 0.92611 -0.01212 0.6234 0.0
O160 O 0.8636 0.2147 0.59819 0.0
O161 O 0.10843 0.74925 0.63472 0.0
Zn162 Zn 0.10553 0.88259 0.63742 0.0
O163 O 0.12453 0.94349 0.61539 0.0
Zn164 Zn 0.15084 0.00404 0.62911 0.0
Zn165 Zn 0.13595 0.85785 0.59451 0.0
Zn166 Zn 0.10575 0.02822 0.59958 0.0
O167 O 0.15135 0.13528 0.62127 0.0
O168 O 0.11705 0.14979 0.60522 0.0
O169 O 0.115 0.9221 0.66787 0.0
O170 O 0.147 0.00031 0.66212 0.0
O171 O 0.1811 0.94237 0.62209 0.0
O172 O 0.1695 0.84425 0.59723 0.0
O173 O 0.12819 0.88813 0.56323 0.0
O174 O 0.07204 0.91542 0.63431 0.0
O175 O 0.10538 0.00539 0.56667 0.0
O176 O 0.07344 0.0269 0.61033 0.0
C177 C 0.11618 0.70214 0.6189 0.0
C178 C 0.13533 0.18319 0.61317 0.0
C179 C 0.18523 0.87815 0.60902 0.0
C180 C 0.13188 0.96767 0.67505 0.0
C181 C 0.11553 0.94787 0.55477 0.0
C182 C 0.06233 0.9777 0.62362 0.0
O183 O 0.12535 0.73653 0.60184 0.0
O184 O 0.60461 0.74879 0.10677 0.0
Zn185 Zn 0.59817 0.61998 0.10441 0.0
O186 O 0.6186 0.55156 0.12298 0.0
Zn187 Zn 0.63978 0.48182 0.1048 0.0
Zn188 Zn 0.63523 0.63213 0.14175 0.0
Zn189 Zn 0.60073 0.47561 0.14184 0.0
O190 O 0.63958 0.3543 0.11415 0.0
O191 O 0.61122 0.35172 0.13901 0.0
O192 O 0.60223 0.58699 0.0728 0.0
O193 O 0.62975 0.4847 0.07297 0.0
O194 O 0.67215 0.53212 0.10631 0.0
O195 O 0.66746 0.63625 0.13191 0.0
O196 O 0.63416 0.59862 0.17383 0.0
O197 O 0.56509 0.59794 0.11212 0.0
O198 O 0.60483 0.50447 0.17363 0.0
O199 O 0.56736 0.48178 0.13464 0.0
C200 C 0.61443 0.79376 0.12179 0.0
C201 C 0.62689 0.31329 0.12795 0.0
C202 C 0.6799 0.59565 0.11796 0.0
C203 C 0.61489 0.53134 0.06278 0.0
C204 C 0.61981 0.54958 0.18396 0.0
C205 C 0.55563 0.53697 0.12346 0.0
O206 O 0.62472 0.75682 0.1379 0.0
O207 O 0.38167 0.1814 0.09024 0.0
Zn208 Zn 0.38548 0.31316 0.08827 0.0
O209 O 0.36223 0.37441 0.10566 0.0
Zn210 Zn 0.33973 0.43186 0.08609 0.0
Zn211 Zn 0.34755 0.28983 0.1252 0.0
Zn212 Zn 0.37697 0.46243 0.12385 0.0
O213 O 0.3392 0.56469 0.09098 0.0
O214 O 0.36914 0.58269 0.11348 0.0
O215 O 0.38338 0.34943 0.05636 0.0
O216 O 0.34909 0.41479 0.05395 0.0
O217 O 0.30776 0.38189 0.09117 0.0
O218 O 0.31422 0.28695 0.11868 0.0
O219 O 0.35156 0.31915 0.15765 0.0
O220 O 0.4172 0.34108 0.099 0.0
O221 O 0.36761 0.45226 0.15576 0.0
O222 O 0.41111 0.45169 0.12246 0.0
C223 C 0.37028 0.13331 0.10365 0.0
C224 C 0.3533 0.6142 0.10133 0.0
C225 C 0.30074 0.32395 0.10496 0.0
C226 C 0.36752 0.3858 0.04499 0.0
C227 C 0.35869 0.3896 0.16695 0.0
C228 C 0.42462 0.39953 0.1123 0.0
O229 O 0.35754 0.16643 0.11862 0.0
O230 O 0.59774 0.27106 0.39241 0.0
Zn231 Zn 0.59381 0.40213 0.39567 0.0
O232 O 0.61154 0.46504 0.37327 0.0
Zn233 Zn 0.63569 0.53742 0.38697 0.0
Zn234 Zn 0.62519 0.38068 0.35336 0.0
Zn235 Zn 0.59115 0.53666 0.35577 0.0
O236 O 0.63204 0.66525 0.37817 0.0
O237 O 0.59957 0.66303 0.35847 0.0
O238 O 0.6051 0.43348 0.42563 0.0
O239 O 0.63276 0.53321 0.42014 0.0
O240 O 0.66773 0.48939 0.3798 0.0
O241 O 0.65841 0.37304 0.35923 0.0
O242 O 0.6209 0.41107 0.32136 0.0
O243 O 0.55975 0.42967 0.39381 0.0
O244 O 0.5927 0.50958 0.32373 0.0
O245 O 0.55874 0.51977 0.36474 0.0
C246 C 0.60486 0.22424 0.37632 0.0
C247 C 0.61632 0.70429 0.36717 0.0
C248 C 0.67326 0.41925 0.36936 0.0
C249 C 0.62021 0.48681 0.43296 0.0
C250 C 0.60611 0.46148 0.31237 0.0
C251 C 0.54865 0.47677 0.37999 0.0
O252 O 0.6137 0.25907 0.35913 0.0
O253 O 0.37176 0.73656 0.3684 0.0
Zn254 Zn 0.37233 0.60686 0.37508 0.0
O255 O 0.35145 0.54139 0.35597 0.0
Zn256 Zn 0.32836 0.47904 0.37414 0.0
Zn257 Zn 0.3368 0.62223 0.33535 0.0
Zn258 Zn 0.36908 0.45783 0.33865 0.0
O259 O 0.32917 0.34757 0.3681 0.0
O260 O 0.36085 0.33585 0.34748 0.0
O261 O 0.36367 0.5928 0.4068 0.0
O262 O 0.33491 0.49568 0.40703 0.0
O263 O 0.29639 0.52774 0.36806 0.0
O264 O 0.30336 0.62668 0.34157 0.0
O265 O 0.34173 0.58947 0.30323 0.0
O266 O 0.40483 0.56473 0.37187 0.0
O267 O 0.36287 0.46781 0.30609 0.0
O268 O 0.40292 0.4715 0.34355 0.0
C269 C 0.36067 0.78171 0.35421 0.0
C270 C 0.3443 0.30107 0.35819 0.0
C271 C 0.2896 0.58778 0.35474 0.0
C272 C 0.34912 0.54553 0.41719 0.0
C273 C 0.35212 0.52425 0.29439 0.0
C274 C 0.41444 0.51322 0.35805 0.0
O275 O 0.34706 0.74603 0.34041 0.0
O276 O 0.38994 0.21427 0.83321 0.0
Zn277 Zn 0.39221 0.34911 0.83122 0.0
O278 O 0.37059 0.40517 0.85197 0.0
Zn279 Zn 0.34612 0.46976 0.83655 0.0
Zn280 Zn 0.35615 0.31506 0.86967 0.0
Zn281 Zn 0.38688 0.485 0.87169 0.0
O282 O 0.34682 0.60029 0.84406 0.0
O283 O 0.37868 0.61004 0.86437 0.0
O284 O 0.38539 0.39104 0.79973 0.0
O285 O 0.3523 0.46395 0.80403 0.0
O286 O 0.31432 0.41612 0.84117 0.0
O287 O 0.3238 0.2977 0.86087 0.0
O288 O 0.35635 0.34411 0.90191 0.0
O289 O 0.42504 0.38282 0.83886 0.0
O290 O 0.37948 0.46098 0.9041 0.0
O291 O 0.42082 0.47672 0.86693 0.0
C292 C 0.38111 0.16529 0.84822 0.0
C293 C 0.36209 0.646 0.85399 0.0
C294 C 0.3091 0.34264 0.85022 0.0
C295 C 0.36837 0.43416 0.79178 0.0
C296 C 0.36655 0.40318 0.91321 0.0
C297 C 0.43348 0.43467 0.85336 0.0
O298 O 0.36964 0.19735 0.86422 0.0
O299 O 0.61742 0.66158 0.85991 0.0
Zn300 Zn 0.61336 0.53078 0.85424 0.0
O301 O 0.63219 0.4595 0.87419 0.0
Zn302 Zn 0.65759 0.40385 0.85794 0.0
Zn303 Zn 0.64452 0.53517 0.89692 0.0
Zn304 Zn 0.61325 0.37051 0.8885 0.0
O305 O 0.65749 0.26984 0.86196 0.0
O306 O 0.62536 0.25226 0.88156 0.0
O307 O 0.62247 0.50792 0.82285 0.0
O308 O 0.65398 0.425 0.82554 0.0
O309 O 0.68796 0.46066 0.86604 0.0
O310 O 0.67873 0.5403 0.89567 0.0
O311 O 0.63452 0.4999 0.92689 0.0
O312 O 0.57974 0.49789 0.8569 0.0
O313 O 0.61269 0.38109 0.9218 0.0
O314 O 0.58078 0.37549 0.87738 0.0
C315 C 0.62545 0.70115 0.87679 0.0
C316 C 0.64267 0.22031 0.87149 0.0
C317 C 0.69348 0.51192 0.88187 0.0
C318 C 0.63916 0.4663 0.81402 0.0
C319 C 0.62205 0.4378 0.93442 0.0
C320 C 0.56979 0.43135 0.86569 0.0
O321 O 0.63473 0.65954 0.89268 0.0
O322 O 0.3953 0.83015 0.62493 0.0
Zn323 Zn 0.3969 0.69511 0.62653 0.0
O324 O 0.37448 0.64004 0.60676 0.0
Zn325 Zn 0.35116 0.57513 0.62364 0.0
Zn326 Zn 0.36029 0.73066 0.58907 0.0
Zn327 Zn 0.38936 0.55909 0.58653 0.0
O328 O 0.35036 0.44535 0.61506 0.0
O329 O 0.38306 0.43481 0.59597 0.0
O330 O 0.39231 0.65251 0.65803 0.0
O331 O 0.36021 0.57291 0.65579 0.0
O332 O 0.31985 0.63468 0.62146 0.0
O333 O 0.32807 0.74601 0.59863 0.0
O334 O 0.36083 0.70469 0.55645 0.0
O335 O 0.42858 0.6561 0.61773 0.0
O336 O 0.37818 0.57389 0.55507 0.0
O337 O 0.42358 0.57432 0.58747 0.0
C338 C 0.38568 0.87989 0.61057 0.0
C339 C 0.36618 0.39916 0.60603 0.0
C340 C 0.31418 0.70519 0.61123 0.0
C341 C 0.37692 0.60402 0.667 0.0
C342 C 0.36771 0.63756 0.54561 0.0
C343 C 0.43658 0.61121 0.60165 0.0
O344 O 0.37347 0.84849 0.59504 0.0
O345 O 0.60596 0.22546 0.63982 0.0
Zn346 Zn 0.60487 0.35934 0.64227 0.0
O347 O 0.6279 0.41719 0.62356 0.0
Zn348 Zn 0.65164 0.47773 0.64109 0.0
Zn349 Zn 0.64207 0.32891 0.60519 0.0
Zn350 Zn 0.61286 0.50206 0.60451 0.0
O351 O 0.65161 0.61003 0.63535 0.0
O352 O 0.62121 0.62439 0.61327 0.0
O353 O 0.61053 0.39156 0.6737 0.0
O354 O 0.64396 0.46398 0.67334 0.0
O355 O 0.68344 0.42515 0.63621 0.0
O356 O 0.67528 0.32181 0.61131 0.0
O357 O 0.63739 0.35144 0.57299 0.0
O358 O 0.573 0.40147 0.63514 0.0
O359 O 0.6208 0.48381 0.57259 0.0
O360 O 0.57871 0.49512 0.60733 0.0
C361 C 0.61772 0.17641 0.62695 0.0
C362 C 0.63716 0.65793 0.62493 0.0
C363 C 0.68948 0.36104 0.62384 0.0
C364 C 0.62681 0.43121 0.68367 0.0
C365 C 0.62959 0.41807 0.56256 0.0
C366 C 0.56534 0.45473 0.62059 0.0
O367 O 0.63137 0.20869 0.61266 0.0
H368 H 0.19431 0.2506 0.10998 0.0
H369 H 0.21882 0.98186 0.11412 0.0
H370 H 0.25876 0.03394 0.1111 0.0
H371 H 0.28635 0.15637 0.1082 0.0
H372 H 0.26184 0.42404 0.10084 0.0
H373 H 0.22186 0.37207 0.1039 0.0
C374 C 0.20848 0.20375 0.1103 0.0
C375 C 0.20396 0.11298 0.11268 0.0
C376 C 0.23113 0.23394 0.10783 0.0
C377 C 0.22215 0.0521 0.11249 0.0
C378 C 0.24486 0.08183 0.11075 0.0
C379 C 0.27218 0.20311 0.10719 0.0
C380 C 0.27676 0.29375 0.10459 0.0
C381 C 0.24949 0.17258 0.10854 0.0
C382 C 0.2585 0.35396 0.10285 0.0
C383 C 0.23577 0.32433 0.10471 0.0
H384 H 0.78473 0.69353 0.11509 0.0
H385 H 0.75602 0.95678 0.11462 0.0
H386 H 0.71701 0.89465 0.11316 0.0
H387 H 0.69149 0.76569 0.11459 0.0
H388 H 0.71999 0.50235 0.11331 0.0
H389 H 0.75914 0.56435 0.11253 0.0
C390 C 0.76987 0.73713 0.11464 0.0
C391 C 0.77296 0.82931 0.11543 0.0
C392 C 0.74774 0.70101 0.11342 0.0
C393 C 0.75384 0.88562 0.11422 0.0
C394 C 0.73165 0.85016 0.11341 0.0
C395 C 0.70634 0.72205 0.11394 0.0
C396 C 0.70318 0.62997 0.11434 0.0
C397 C 0.72847 0.75808 0.11338 0.0
C398 C 0.72225 0.57349 0.11305 0.0
C399 C 0.7445 0.6089 0.11275 0.0
H400 H 0.27635 0.75708 0.35221 0.0
H401 H 0.24998 0.4922 0.36022 0.0
H402 H 0.21042 0.54988 0.36074 0.0
H403 H 0.1837 0.67585 0.35855 0.0
H404 H 0.21044 0.9415 0.35396 0.0
H405 H 0.24987 0.88337 0.35244 0.0
C406 C 0.26189 0.71205 0.35399 0.0
C407 C 0.26583 0.62062 0.35584 0.0
C408 C 0.23949 0.74585 0.35486 0.0
C409 C 0.24718 0.5628 0.35868 0.0
C410 C 0.22467 0.59573 0.35893 0.0
C411 C 0.19821 0.72082 0.3571 0.0
C412 C 0.19438 0.81255 0.35601 0.0
C413 C 0.22067 0.68707 0.35692 0.0
C414 C 0.21315 0.87065 0.3547 0.0
C415 C 0.23559 0.83745 0.35382 0.0
H416 H 0.77844 0.31944 0.3649 0.0
H417 H 0.74967 0.0572 0.37078 0.0
H418 H 0.71081 0.12014 0.37291 0.0
H419 H 0.68534 0.24892 0.37206 0.0
H420 H 0.7139 0.512 0.36858 0.0
H421 H 0.75296 0.44947 0.3668 0.0
C422 C 0.76361 0.27617 0.36655 0.0
C423 C 0.7667 0.18385 0.3673 0.0
C424 C 0.74154 0.31291 0.36829 0.0
C425 C 0.74756 0.12835 0.37003 0.0
C426 C 0.72544 0.1643 0.37124 0.0
C427 C 0.70015 0.29258 0.37092 0.0
C428 C 0.69692 0.38471 0.37011 0.0
C429 C 0.72228 0.2563 0.37023 0.0
C430 C 0.71612 0.44088 0.36917 0.0
C431 C 0.73833 0.40513 0.36805 0.0
H432 H 0.71251 0.60664 0.84904 0.0
H433 H 0.72378 0.51724 0.91588 0.0
H434 H 0.75867 0.60806 0.91827 0.0
H435 H 0.78513 0.71459 0.90164 0.0
H436 H 0.77309 0.81123 0.83541 0.0
H437 H 0.73862 0.71822 0.83271 0.0
C438 C 0.72299 0.60582 0.8639 0.0
C439 C 0.71622 0.55378 0.88206 0.0
C440 C 0.74232 0.66121 0.86545 0.0
C441 C 0.72917 0.55542 0.9016 0.0
C442 C 0.74887 0.60799 0.90302 0.0
C443 C 0.77489 0.71595 0.88664 0.0
C444 C 0.78168 0.76957 0.86872 0.0
C445 C 0.75541 0.66181 0.88514 0.0
C446 C 0.76811 0.77119 0.8495 0.0
C447 C 0.74859 0.71719 0.84786 0.0
H448 H 0.26857 0.42751 0.85652 0.0
H449 H 0.29804 0.17413 0.84031 0.0
H450 H 0.25982 0.10602 0.84084 0.0
H451 H 0.2182 0.117 0.84811 0.0
H452 H 0.18941 0.36846 0.86755 0.0
H453 H 0.22698 0.43852 0.86373 0.0
C454 C 0.26645 0.35781 0.85278 0.0
C455 C 0.28582 0.30581 0.84824 0.0
C456 C 0.24458 0.31843 0.85402 0.0
C457 C 0.28316 0.21516 0.84381 0.0
C458 C 0.26138 0.17619 0.84419 0.0
C459 C 0.22021 0.18707 0.85144 0.0
C460 C 0.20115 0.23714 0.85826 0.0
C461 C 0.242 0.22684 0.84966 0.0
C462 C 0.20394 0.32801 0.86258 0.0
C463 C 0.22538 0.36844 0.86028 0.0
H464 H 0.69962 0.18919 0.62619 0.0
H465 H 0.73083 0.44807 0.62532 0.0
H466 H 0.7693 0.38017 0.62418 0.0
H467 H 0.79345 0.24698 0.62122 0.0
H468 H 0.76215 -0.01162 0.62432 0.0
H469 H 0.72387 0.0565 0.62691 0.0
C470 C 0.71491 0.23061 0.62585 0.0
C471 C 0.71266 0.32315 0.62546 0.0
C472 C 0.73668 0.19122 0.6255 0.0
C473 C 0.73236 0.37665 0.62553 0.0
C474 C 0.75422 0.33786 0.62479 0.0
C475 C 0.7782 0.2057 0.62249 0.0
C476 C 0.78035 0.11304 0.62218 0.0
C477 C 0.7565 0.24528 0.62438 0.0
C478 C 0.76071 0.05983 0.6244 0.0
C479 C 0.73894 0.09872 0.62583 0.0
H480 H 0.22687 0.9472 0.62075 0.0
H481 H 0.19396 0.70772 0.59813 0.0
H482 H 0.23058 0.62977 0.59913 0.0
H483 H 0.27245 0.63033 0.60503 0.0
H484 H 0.30604 0.87208 0.62443 0.0
H485 H 0.26885 0.94796 0.62647 0.0
C486 C 0.22779 0.87806 0.61605 0.0
C487 C 0.20783 0.83374 0.6092 0.0
C488 C 0.24904 0.83366 0.61627 0.0
C489 C 0.20919 0.74396 0.60314 0.0
C490 C 0.2301 0.69891 0.60385 0.0
C491 C 0.27143 0.69912 0.61004 0.0
C492 C 0.29161 0.74568 0.61483 0.0
C493 C 0.25016 0.74313 0.61025 0.0
C494 C 0.29045 0.83529 0.62083 0.0
C495 C 0.26929 0.87868 0.6219 0.0
H496 H 0.11121 0.0581 0.27871 0.0
H497 H 0.10223 0.77615 0.27216 0.0
H498 H 0.10415 0.78945 0.23184 0.0
H499 H 0.10861 0.8812 0.19857 0.0
H500 H 0.1207 0.16153 0.20514 0.0
H501 H 0.11752 0.14903 0.24541 0.0
C502 C 0.10952 -0.00022 0.2684 0.0
C503 C 0.10633 0.91642 0.27827 0.0
C504 C 0.11136 0.00764 0.24532 0.0
C505 C 0.10464 0.84099 0.26485 0.0
C506 C 0.10574 0.84857 0.24184 0.0
C507 C 0.11052 0.93955 0.20884 0.0
C508 C 0.11472 0.02225 0.19895 0.0
C509 C 0.10914 0.93152 0.23192 0.0
C510 C 0.11752 0.09712 0.21241 0.0
C511 C 0.11561 0.09006 0.2354 0.0
H512 H 0.84614 0.92181 0.28287 0.0
H513 H 0.84772 0.20517 0.27423 0.0
H514 H 0.84881 0.18646 0.23403 0.0
H515 H 0.85131 0.08914 0.20158 0.0
H516 H 0.84809 0.80598 0.2103 0.0
H517 H 0.84557 0.82503 0.2504 0.0
C518 C 0.84663 0.97949 0.27217 0.0
C519 C 0.84712 0.0647 0.28144 0.0
C520 C 0.84706 0.96821 0.24919 0.0
C521 C 0.84734 0.13891 0.26744 0.0
C522 C 0.84807 0.12823 0.24449 0.0
C523 C 0.85002 0.03165 0.21228 0.0
C524 C 0.85017 0.94626 0.20309 0.0
C525 C 0.84828 0.04316 0.23523 0.0
C526 C 0.84805 0.87234 0.21704 0.0
C527 C 0.84667 0.88318 0.23993 0.0
H528 H 0.85903 0.85628 0.70141 0.0
H529 H 0.86177 0.13951 0.70915 0.0
H530 H 0.86057 0.12286 0.74949 0.0
H531 H 0.85911 0.02711 0.78242 0.0
H532 H 0.86082 0.74382 0.77471 0.0
H533 H 0.85987 0.76047 0.73435 0.0
C534 C 0.85928 0.91417 0.71201 0.0
C535 C 0.86024 -0.00104 0.70254 0.0
C536 C 0.85938 0.90384 0.73505 0.0
C537 C 0.86102 0.07369 0.71624 0.0
C538 C 0.86028 0.06416 0.73922 0.0
C539 C 0.85914 0.96924 0.77182 0.0
C540 C 0.85973 0.88442 0.78128 0.0
C541 C 0.85948 0.97955 0.74878 0.0
C542 C 0.86029 0.80963 0.7676 0.0
C543 C 0.85974 0.81919 0.74462 0.0
H544 H 0.15296 0.06855 0.77399 0.0
H545 H 0.07907 0.10183 0.77475 0.0
H546 H 0.07705 0.05618 0.73604 0.0
H547 H 0.09623 0.00484 0.70215 0.0
H548 H 0.17028 0.98199 0.70054 0.0
H549 H 0.17232 0.02453 0.73957 0.0
C550 C 0.13643 0.06612 0.76564 0.0
C551 C 0.11619 0.08818 0.77721 0.0
C552 C 0.13542 0.04082 0.74336 0.0
C553 C 0.09492 0.08566 0.76615 0.0
C554 C 0.09372 0.059 0.74408 0.0
C555 C 0.11276 0.00841 0.71046 0.0
C556 C 0.13305 -0.01086 0.69874 0.0
C557 C 0.11383 0.03576 0.73259 0.0
C558 C 0.15445 -0.00394 0.7094 0.0
C559 C 0.15562 0.02055 0.73163 0.0
H560 H 0.64161 0.49473 0.28502 0.0
H561 H 0.56828 0.44983 0.28662 0.0
H562 H 0.56603 0.47373 0.2466 0.0
H563 H 0.5849 0.50962 0.21155 0.0
H564 H 0.65772 0.56723 0.2102 0.0
H565 H 0.66027 0.53787 0.24997 0.0
C566 C 0.62527 0.48922 0.27643 0.0
C567 C 0.6052 0.46915 0.28833 0.0
C568 C 0.62401 0.50664 0.25371 0.0
C569 C 0.58391 0.46438 0.27747 0.0
C570 C 0.58263 0.4784 0.25473 0.0
C571 C 0.60131 0.51596 0.22 0.0
C572 C 0.62111 0.54009 0.2081 0.0
C573 C 0.60254 0.50015 0.24274 0.0
C574 C 0.64223 0.54925 0.21916 0.0
C575 C 0.64372 0.53184 0.24181 0.0
H576 H 0.35547 0.37135 0.27124 0.0
H577 H 0.34821 0.65356 0.26309 0.0
H578 H 0.34976 0.63668 0.22286 0.0
H579 H 0.35407 0.54192 0.19009 0.0
H580 H 0.35875 0.25889 0.19814 0.0
H581 H 0.35725 0.27573 0.23838 0.0
C582 C 0.35422 0.42912 0.26063 0.0
C583 C 0.35195 0.51367 0.27009 0.0
C584 C 0.35468 0.41871 0.23755 0.0
C585 C 0.34996 0.58781 0.25618 0.0
C586 C 0.35092 0.57821 0.2332 0.0
C587 C 0.35476 0.48396 0.20067 0.0
C588 C 0.35674 0.39935 0.19121 0.0
C589 C 0.35342 0.49406 0.22373 0.0
C590 C 0.35722 0.32469 0.20506 0.0
C591 C 0.35643 0.33431 0.22805 0.0
H592 H 0.40273 0.49454 0.76511 0.0
H593 H 0.33091 0.42164 0.76551 0.0
H594 H 0.32718 0.46762 0.72689 0.0
H595 H 0.34395 0.53257 0.69346 0.0
H596 H 0.41513 0.61547 0.69342 0.0
H597 H 0.41943 0.56308 0.7315 0.0
C598 C 0.38641 0.48765 0.75655 0.0
C599 C 0.36718 0.45375 0.76792 0.0
C600 C 0.38418 0.51737 0.73457 0.0
C601 C 0.34594 0.44704 0.75695 0.0
C602 C 0.34379 0.47367 0.73494 0.0
C603 C 0.36041 0.5394 0.70176 0.0
C604 C 0.37917 0.57794 0.69056 0.0
C605 C 0.36271 0.50985 0.72367 0.0
C606 C 0.40034 0.58668 0.70168 0.0
C607 C 0.40286 0.55618 0.72342 0.0
H608 H 0.60418 0.47068 0.78483 0.0
H609 H 0.67824 0.45369 0.78927 0.0
H610 H 0.68108 0.44518 0.74893 0.0
H611 H 0.66231 0.43928 0.71254 0.0
H612 H 0.58807 0.44441 0.70859 0.0
H613 H 0.58543 0.46086 0.74869 0.0
C614 C 0.62093 0.4658 0.77691 0.0
C615 C 0.64097 0.46339 0.78982 0.0
C616 C 0.62236 0.45842 0.75389 0.0
C617 C 0.66258 0.45551 0.77953 0.0
C618 C 0.66421 0.45074 0.75654 0.0
C619 C 0.6456 0.44439 0.72052 0.0
C620 C 0.62543 0.4409 0.70778 0.0
C621 C 0.6442 0.45163 0.74357 0.0
C622 C 0.60382 0.44644 0.71818 0.0
C623 C 0.60229 0.45612 0.74105 0.0
H624 H 0.12714 -0.0119 0.94898 0.0
H625 H 0.11574 0.27001 0.95076 0.0
H626 H 0.11576 0.26688 -0.00881 0.0
H627 H 0.11781 0.18331 0.02593 0.0
H628 H 0.13208 0.90346 0.02451 0.0
H629 H 0.13231 0.90623 0.98396 0.0
C630 C 0.12471 0.04872 0.95828 0.0
C631 C 0.12122 0.12901 0.94702 0.0
C632 C 0.12526 0.0467 0.98149 0.0
C633 C 0.11847 0.20747 0.95914 0.0
C634 C 0.11841 0.20568 0.98222 0.0
C635 C 0.12102 0.12303 0.0167 0.0
C636 C 0.12467 0.04314 0.02804 0.0
C637 C 0.1216 0.1256 -0.00646 0.0
C638 C 0.12923 0.96569 0.01603 0.0
C639 C 0.12927 0.96722 -0.0071 0.0
H640 H 0.83475 0.88896 0.95607 0.0
H641 H 0.90845 0.92188 0.95218 0.0
H642 H 0.91061 0.93498 -0.00749 0.0
H643 H 0.89147 0.93358 0.02884 0.0
H644 H 0.81741 0.91354 0.0324 0.0
H645 H 0.81532 0.89961 -0.00787 0.0
C646 C 0.85124 0.89895 0.96414 0.0
C647 C 0.87145 0.90342 0.95142 0.0
C648 C 0.85223 0.90898 0.98715 0.0
C649 C 0.89271 0.91811 0.96181 0.0
C650 C 0.89395 0.92544 0.98479 0.0
C651 C 0.87491 0.92648 0.02073 0.0
C652 C 0.85465 0.92382 0.03341 0.0
C653 C 0.87382 0.92049 -0.00238 0.0
C654 C 0.83321 0.91596 0.02284 0.0
C655 C 0.83202 0.90759 -0.00011 0.0
H656 H 0.08604 0.94914 0.45451 0.0
H657 H 0.15794 0.88509 0.44635 0.0
H658 H 0.16347 0.89026 0.48649 0.0
H659 H 0.14759 0.91065 0.52384 0.0
H660 H 0.07658 -0.01155 0.53187 0.0
H661 H 0.07087 0.98111 0.49176 0.0
C662 C 0.10287 0.9363 0.46162 0.0
C663 C 0.12152 0.91575 0.44773 0.0
C664 C 0.10604 0.94217 0.48456 0.0
C665 C 0.14339 0.90086 0.45688 0.0
C666 C 0.14653 0.90369 0.47976 0.0
C667 C 0.1309 0.92615 0.51674 0.0
C668 C 0.11245 0.94921 0.53063 0.0
C669 C 0.12795 0.92392 0.49374 0.0
C670 C 0.091 0.97066 0.52137 0.0
C671 C 0.08772 0.96611 0.49851 0.0
H672 H 0.83008 0.03321 0.52884 0.0
H673 H 0.903 0.97779 0.52956 0.0
H674 H 0.90458 -0.00532 0.48928 0.0
H675 H 0.88531 0.03106 0.45405 0.0
H676 H 0.81194 0.07643 0.45339 0.0
H677 H 0.8104 0.05828 0.49357 0.0
C678 C 0.84629 0.02431 0.52014 0.0
C679 C 0.86642 0.005 0.53208 0.0
C680 C 0.84699 0.03315 0.49709 0.0
C681 C 0.88726 -0.00762 0.52065 0.0
C682 C 0.88819 0.00262 0.49768 0.0
C683 C 0.86905 0.03717 0.46279 0.0
C684 C 0.84881 0.05614 0.45097 0.0
C685 C 0.86821 0.02417 0.48577 0.0
C686 C 0.82772 0.06212 0.46227 0.0
C687 C 0.82684 0.05175 0.48518 0.0
H688 H 0.62107 0.38494 0.03747 0.0
H689 H 0.6043 0.66285 0.03424 0.0
H690 H 0.60368 0.65643 -0.00606 0.0
H691 H 0.61043 0.5746 0.95978 0.0
H692 H 0.62495 0.2953 0.96212 0.0
H693 H 0.62363 0.29863 0.00277 0.0
C694 C 0.61719 0.44374 0.02786 0.0
C695 C 0.61303 0.52446 0.03864 0.0
C696 C 0.61642 0.43919 0.00469 0.0
C697 C 0.60759 0.60008 0.02619 0.0
C698 C 0.60728 0.59655 0.0032 0.0
C699 C 0.61303 0.51437 0.96927 0.0
C700 C 0.61801 0.43512 0.95831 0.0
C701 C 0.61202 0.5169 -0.00767 0.0
C702 C 0.62106 0.35692 0.97046 0.0
C703 C 0.62045 0.35905 -0.00641 0.0
H704 H 0.39852 0.42904 0.9453 0.0
H705 H 0.32627 0.37772 0.93493 0.0
H706 H 0.31979 0.37311 0.97491 0.0
H707 H 0.33494 0.37861 0.01288 0.0
H708 H 0.40786 0.4144 0.02321 0.0
H709 H 0.41389 0.42997 0.98334 0.0
C710 C 0.38137 0.41765 0.95189 0.0
C711 C 0.36286 0.40442 0.93733 0.0
C712 C 0.37794 0.41175 0.97488 0.0
C713 C 0.34076 0.38807 0.94592 0.0
C714 C 0.33705 0.38543 0.96874 0.0
C715 C 0.3521 0.3903 0.00635 0.0
C716 C 0.3709 0.39573 0.02089 0.0
C717 C 0.35554 0.39639 0.98339 0.0
C718 C 0.39313 0.40961 0.01228 0.0
C719 C 0.39658 0.41875 0.98951 0.0
H720 H 0.62045 0.34901 0.46069 0.0
H721 H 0.62872 0.63222 0.45838 0.0
H722 H 0.63271 0.63635 0.49881 0.0
H723 H 0.63227 0.55862 0.53476 0.0
H724 H 0.62667 0.27392 0.53616 0.0
H725 H 0.62337 0.27075 0.49593 0.0
C726 C 0.62314 0.41155 0.4691 0.0
C727 C 0.62396 0.49033 0.45689 0.0
C728 C 0.62592 0.41291 0.49204 0.0
C729 C 0.62797 0.57093 0.46768 0.0
C730 C 0.63019 0.57322 0.49069 0.0
C731 C 0.63043 0.49605 0.52618 0.0
C732 C 0.62949 0.41671 0.53828 0.0
C733 C 0.62895 0.4946 0.50304 0.0
C734 C 0.62747 0.33576 0.5271 0.0
C735 C 0.62548 0.3339 0.50416 0.0
H736 H 0.35648 0.49455 0.52064 0.0
H737 H 0.3699 0.77478 0.51681 0.0
H738 H 0.36478 0.77117 0.47669 0.0
H739 H 0.35773 0.68766 0.44265 0.0
H740 H 0.34126 0.40994 0.44625 0.0
H741 H 0.34599 0.41308 0.48658 0.0
C742 C 0.35826 0.55462 0.51094 0.0
C743 C 0.36383 0.63463 0.52152 0.0
C744 C 0.35463 0.55248 0.48795 0.0
C745 C 0.36567 0.71249 0.50895 0.0
C746 C 0.36276 0.71043 0.48605 0.0
C747 C 0.35503 0.62798 0.45232 0.0
C748 C 0.34937 0.54852 0.44159 0.0
C749 C 0.3574 0.63077 0.47538 0.0
C750 C 0.34557 0.47188 0.45423 0.0
C751 C 0.34841 0.47361 0.47723 0.0
H752 H 0.95006 0.96372 0.08722 0.0
H753 H 0.94629 0.95343 0.15844 0.0
H754 H 0.98812 0.97183 0.16088 0.0
H755 H 0.02553 -0.00836 0.14266 0.0
H756 H 0.02892 0.01486 0.07158 0.0
H757 H 0.98728 -0.00895 0.06907 0.0
C758 C 0.9585 0.96505 0.10323 0.0
C759 C 0.94539 0.95642 0.12262 0.0
C760 C 0.98232 0.97835 0.10448 0.0
C761 C 0.95623 0.95992 0.14333 0.0
C762 C 0.98005 0.97034 0.14472 0.0
C763 C 0.0171 -0.00872 0.12664 0.0
C764 C 0.03009 0.00423 0.10732 0.0
C765 C -0.00677 0.97974 0.1254 0.0
C766 C 0.0191 0.00518 0.08666 0.0
C767 C -0.00461 -0.00871 0.08521 0.0
H768 H 0.94389 0.01772 0.39562 0.0
H769 H 0.9393 0.06912 0.3256 0.0
H770 H 0.98031 0.03551 0.32117 0.0
H771 H 0.01703 -0.0123 0.33711 0.0
H772 H 0.02096 0.92415 0.40665 0.0
H773 H 0.9805 0.96489 0.41139 0.0
C774 C 0.95205 0.02257 0.3795 0.0
C775 C 0.93894 0.04691 0.361 0.0
C776 C 0.97532 -0.00029 0.37696 0.0
C777 C 0.94931 0.05102 0.34004 0.0
C778 C 0.97264 0.03152 0.3375 0.0
C779 C 0.00901 0.98268 0.35329 0.0
C780 C 0.02191 0.95318 0.37149 0.0
C781 C 0.98574 0.00497 0.35582 0.0
C782 C 0.01129 0.94611 0.39234 0.0
C783 C 0.98823 0.96994 0.39509 0.0
H784 H 0.02884 0.01881 0.833 0.0
H785 H 0.02717 0.11403 0.90017 0.0
H786 H 0.98773 0.05951 0.90454 0.0
H787 H 0.95442 0.98279 0.8896 0.0
H788 H 0.95597 0.87927 0.82313 0.0
H789 H -0.00476 0.93659 0.81824 0.0
C790 C 0.01955 0.02874 0.8484 0.0
C791 C 0.0304 0.07184 0.86612 0.0
C792 C -0.00273 -0.00592 0.85103 0.0
C793 C 0.01879 0.08221 0.88628 0.0
C794 C -0.00359 0.05048 0.88881 0.0
C795 C 0.96335 0.9724 0.87403 0.0
C796 C 0.95233 0.92732 0.8567 0.0
C797 C 0.98562 0.00568 0.87138 0.0
C798 C 0.9642 0.91328 0.83675 0.0
C799 C 0.98651 0.94681 0.8339 0.0
H800 H 0.95979 0.10979 0.62776 0.0
H801 H 0.94746 0.82887 0.62459 0.0
H802 H 0.98886 0.80008 0.62676 0.0
H803 H 0.02864 0.85546 0.6271 0.0
H804 H 0.04103 0.1366 0.62596 0.0
H805 H -0.0004 0.16519 0.62808 0.0
C806 C 0.96626 0.04244 0.6278 0.0
C807 C 0.95084 0.97151 0.62607 0.0
C808 C 0.99005 0.02663 0.62818 0.0
C809 C 0.95921 0.88436 0.62581 0.0
C810 C 0.9828 0.8679 0.62707 0.0
C811 C 0.02218 0.92278 0.62759 0.0
C812 C 0.03761 -0.00614 0.62646 0.0
C813 C -0.00161 0.93856 0.6279 0.0
C814 C 0.02925 0.08102 0.62675 0.0
C815 C 0.00565 0.09735 0.62796 0.0
H816 H 0.4477 0.55213 0.11741 0.0
H817 H 0.4569 0.26948 0.11354 0.0
H818 H 0.49857 0.28737 0.11818 0.0
H819 H 0.53221 0.38399 0.12233 0.0
H820 H 0.52337 0.66722 0.12234 0.0
H821 H 0.48147 0.64899 0.12025 0.0
C822 C 0.45888 0.4946 0.11775 0.0
C823 C 0.44949 0.4097 0.11535 0.0
C824 C 0.48271 0.50568 0.11967 0.0
C825 C 0.46397 0.33542 0.11537 0.0
C826 C 0.48768 0.34563 0.11804 0.0
C827 C 0.52103 0.44152 0.12204 0.0
C828 C 0.53058 0.52668 0.12268 0.0
C829 C 0.49721 0.43047 0.12008 0.0
C830 C 0.51618 0.6011 0.12186 0.0
C831 C 0.49233 0.59068 0.1207 0.0
H832 H 0.44158 0.51065 0.3944 0.0
H833 H 0.44312 0.48916 0.32323 0.0
H834 H 0.48505 0.47495 0.32399 0.0
H835 H 0.52107 0.47274 0.34472 0.0
H836 H 0.52004 0.48302 0.41598 0.0
H837 H 0.47784 0.49673 0.41551 0.0
C838 C 0.45119 0.50292 0.37911 0.0
C839 C 0.43951 0.50194 0.35876 0.0
C840 C 0.47518 0.4926 0.37973 0.0
C841 C 0.45189 0.49018 0.33904 0.0
C842 C 0.47579 0.48222 0.33947 0.0
C843 C 0.51155 0.47785 0.36014 0.0
C844 C 0.5234 0.47815 0.38034 0.0
C845 C 0.48756 0.48396 0.35969 0.0
C846 C 0.51107 0.48286 0.40027 0.0
C847 C 0.48706 0.49103 0.39997 0.0
H848 H 0.46689 0.31004 0.85146 0.0
H849 H 0.45571 0.59066 0.85795 0.0
H850 H 0.49726 0.6155 0.86093 0.0
H851 H 0.53667 0.55666 0.86295 0.0
H852 H 0.54756 0.27473 0.86053 0.0
H853 H 0.50631 0.25066 0.85474 0.0
C854 C 0.47368 0.37648 0.85335 0.0
C855 C 0.4585 0.44854 0.85434 0.0
C856 C 0.49747 0.38981 0.85591 0.0
C857 C 0.46725 0.53436 0.85718 0.0
C858 C 0.49093 0.54855 0.85887 0.0
C859 C 0.52995 0.49012 0.86103 0.0
C860 C 0.54498 0.4176 0.86205 0.0
C861 C 0.50619 0.47672 0.85845 0.0
C862 C 0.53618 0.33148 0.85988 0.0
C863 C 0.51265 0.31772 0.85652 0.0
H864 H 0.4619 0.55972 0.63619 0.0
H865 H 0.46559 0.61182 0.56616 0.0
H866 H 0.50626 0.56707 0.56576 0.0
H867 H 0.54041 0.51178 0.58554 0.0
H868 H 0.53522 0.44731 0.65498 0.0
H869 H 0.49518 0.49685 0.65541 0.0
C870 C 0.47177 0.5622 0.62093 0.0
C871 C 0.4612 0.59047 0.60132 0.0
C872 C 0.49461 0.53297 0.62071 0.0
C873 C 0.47369 0.5911 0.58145 0.0
C874 C 0.4968 0.56522 0.58123 0.0
C875 C 0.53043 0.50824 0.60072 0.0
C876 C 0.54066 0.4763 0.62021 0.0
C877 C 0.50737 0.5356 0.60076 0.0
C878 C 0.52759 0.47107 0.63974 0.0
C879 C 0.5048 0.49999 0.64004 0.0
H880 H 0.08849 0.68784 0.11029 0.0
H881 H 0.1626 0.69771 0.11536 0.0
H882 H 0.16418 0.53589 0.11701 0.0
H883 H 0.14429 0.39284 0.11752 0.0
H884 H 0.07058 0.38214 0.10906 0.0
H885 H 0.06884 0.54429 0.10827 0.0
C886 C 0.10495 0.65425 0.11176 0.0
C887 C 0.12539 0.70359 0.11295 0.0
C888 C 0.10571 0.56191 0.11217 0.0
C889 C 0.1467 0.66029 0.11442 0.0
C890 C 0.14758 0.56821 0.11545 0.0
C891 C 0.12787 0.4264 0.11563 0.0
C892 C 0.10753 0.37698 0.11371 0.0
C893 C 0.12718 0.5186 0.11447 0.0
C894 C 0.08636 0.41988 0.11069 0.0
C895 C 0.0854 0.51208 0.11024 0.0
H896 H 0.88723 0.27104 0.1118 0.0
H897 H 0.813 0.26582 0.11559 0.0
H898 H 0.81207 0.42777 0.1166 0.0
H899 H 0.83259 0.56963 0.11812 0.0
H900 H 0.90653 0.57619 0.11135 0.0
H901 H 0.90753 0.41387 0.10976 0.0
C902 C 0.87087 0.30564 0.11273 0.0
C903 C 0.85021 0.25732 0.11389 0.0
C904 C 0.87051 0.39824 0.1129 0.0
C905 C 0.82907 0.30215 0.11469 0.0
C906 C 0.82856 0.39442 0.11537 0.0
C907 C 0.84889 0.53517 0.1163 0.0
C908 C 0.86952 0.58355 0.11526 0.0
C909 C 0.84919 0.44288 0.1148 0.0
C910 C 0.89053 0.53941 0.11234 0.0
C911 C 0.89107 0.44705 0.11146 0.0
H912 H 0.08111 0.25006 0.37223 0.0
H913 H 0.15461 0.24734 0.3614 0.0
H914 H 0.15527 0.4094 0.36164 0.0
H915 H 0.13457 0.55075 0.36314 0.0
H916 H 0.06164 0.5547 0.37674 0.0
H917 H 0.06099 0.39216 0.37737 0.0
C918 C 0.09726 0.28522 0.37 0.0
C919 C 0.11776 0.23762 0.36648 0.0
C920 C 0.09753 0.37785 0.37062 0.0
C921 C 0.13867 0.28312 0.36407 0.0
C922 C 0.13902 0.37545 0.36414 0.0
C923 C 0.11857 0.51571 0.36631 0.0
C924 C 0.09809 0.56351 0.36955 0.0
C925 C 0.11851 0.42326 0.3671 0.0
C926 C 0.07752 0.51849 0.37413 0.0
C927 C 0.07718 0.42598 0.37442 0.0
H928 H 0.82599 0.43609 0.36684 0.0
H929 H 0.89925 0.43198 0.37851 0.0
H930 H 0.89983 0.59443 0.37963 0.0
H931 H 0.87956 0.73668 0.37533 0.0
H932 H 0.80582 0.73966 0.36638 0.0
H933 H 0.8052 0.57757 0.36633 0.0
C934 C 0.84205 0.47105 0.3697 0.0
C935 C 0.86264 0.42317 0.37224 0.0
C936 C 0.84209 0.56353 0.37079 0.0
C937 C 0.88329 0.46817 0.37643 0.0
C938 C 0.88359 0.56067 0.377 0.0
C939 C 0.86336 0.70159 0.37348 0.0
C940 C 0.84278 0.74937 0.37056 0.0
C941 C 0.86313 0.60889 0.37389 0.0
C942 C 0.82183 0.70384 0.36861 0.0
C943 C 0.8215 0.61146 0.36849 0.0
H944 H 0.87758 0.22808 0.89266 0.0
H945 H 0.83386 0.2156 0.83503 0.0
H946 H 0.83757 0.37587 0.83008 0.0
H947 H 0.85402 0.51924 0.84189 0.0
H948 H 0.89579 0.53079 0.90068 0.0
H949 H 0.89266 0.37013 0.90516 0.0
C950 C 0.86873 0.26037 0.87906 0.0
C951 C 0.85552 0.21003 0.86419 0.0
C952 C 0.87104 0.35185 0.8763 0.0
C953 C 0.84398 0.25299 0.84681 0.0
C954 C 0.8463 0.34441 0.84384 0.0
C955 C 0.86273 0.48583 0.8554 0.0
C956 C 0.87563 0.53529 0.87064 0.0
C957 C 0.86004 0.39425 0.85832 0.0
C958 C 0.88621 0.49293 0.88858 0.0
C959 C 0.88423 0.40158 0.89122 0.0
H960 H 0.14239 0.48008 0.85813 0.0
H961 H 0.06855 0.48093 0.85036 0.0
H962 H 0.06856 0.64357 0.85053 0.0
H963 H 0.08959 0.78426 0.85515 0.0
H964 H 0.16371 0.78245 0.86043 0.0
H965 H 0.16371 0.62037 0.85891 0.0
C966 C 0.12632 0.51612 0.85631 0.0
C967 C 0.10543 0.4694 0.85452 0.0
C968 C 0.12658 0.60875 0.85611 0.0
C969 C 0.08476 0.51602 0.85177 0.0
C970 C 0.0848 0.60866 0.85199 0.0
C971 C 0.10573 0.74816 0.85591 0.0
C972 C 0.12663 0.7946 0.85827 0.0
C973 C 0.10557 0.65553 0.85454 0.0
C974 C 0.14747 0.74776 0.85873 0.0
C975 C 0.14744 0.65537 0.8579 0.0
H976 H 0.87763 0.6585 0.58971 0.0
H977 H 0.83262 0.67314 0.64656 0.0
H978 H 0.83597 0.51345 0.65188 0.0
H979 H 0.85233 0.36995 0.64073 0.0
H980 H 0.89519 0.35435 0.58263 0.0
H981 H 0.89261 0.51509 0.57769 0.0
C982 C 0.86842 0.62676 0.60319 0.0
C983 C 0.85496 0.67764 0.61775 0.0
C984 C 0.87047 0.53527 0.60617 0.0
C985 C 0.84298 0.6354 0.63502 0.0
C986 C 0.84506 0.54426 0.63821 0.0
C987 C 0.86139 0.40249 0.62726 0.0
C988 C 0.87443 0.35209 0.61237 0.0
C989 C 0.85899 0.49383 0.62406 0.0
C990 C 0.88547 0.39316 0.59447 0.0
C991 C 0.88382 0.4845 0.59157 0.0
H992 H 0.10138 0.29112 0.62619 0.0
H993 H 0.17197 0.29101 0.60385 0.0
H994 H 0.17213 0.45356 0.60379 0.0
H995 H 0.1514 0.59453 0.60858 0.0
H996 H 0.08184 0.59405 0.63378 0.0
H997 H 0.08195 0.43172 0.63439 0.0
C998 C 0.11681 0.32695 0.62138 0.0
C999 C 0.13654 0.28007 0.61469 0.0
C1000 C 0.11685 0.41952 0.62188 0.0
C1001 C 0.15661 0.32633 0.60895 0.0
C1002 C 0.15665 0.41888 0.60887 0.0
C1003 C 0.1363 0.55858 0.61424 0.0
C1004 C 0.11648 0.60526 0.6208 0.0
C1005 C 0.13676 0.46596 0.61502 0.0
C1006 C 0.09719 0.55889 0.62858 0.0
C1007 C 0.09726 0.46645 0.62887 0.0
H1008 H 0.62445 0.91285 0.15373 0.0
H1009 H 0.608 0.89061 0.08429 0.0
H1010 H 0.61316 0.04966 0.07962 0.0
H1011 H 0.62156 0.19551 0.09545 0.0
H1012 H 0.63458 0.21967 0.16532 0.0
H1013 H 0.63215 0.05868 0.16967 0.0
C1014 C 0.62195 0.9429 0.1376 0.0
C1015 C 0.61582 0.89036 0.11942 0.0
C1016 C 0.6247 0.03425 0.13508 0.0
C1017 C 0.6125 0.92999 0.09861 0.0
C1018 C 0.61563 0.02071 0.09587 0.0
C1019 C 0.62429 0.16481 0.11148 0.0
C1020 C 0.62868 0.21761 0.12998 0.0
C1021 C 0.62175 0.07335 0.11397 0.0
C1022 C 0.63151 0.1789 0.15088 0.0
C1023 C 0.62995 0.08743 0.15337 0.0
H1024 H 0.38881 0.72542 0.09625 0.0
H1025 H 0.31477 0.71762 0.10193 0.0
H1026 H 0.31353 0.87987 0.10324 0.0
H1027 H 0.334 0.02268 0.10493 0.0
H1028 H 0.40777 0.0299 0.09639 0.0
H1029 H 0.4088 0.86811 0.09404 0.0
C1030 C 0.37241 0.75957 0.09758 0.0
C1031 C 0.35192 0.71066 0.09925 0.0
C1032 C 0.37189 0.852 0.09799 0.0
C1033 C 0.3307 0.75466 0.1006 0.0
C1034 C 0.33004 0.84702 0.10149 0.0
C1035 C 0.35025 -0.01156 0.10253 0.0
C1036 C 0.37085 0.03695 0.1012 0.0
C1037 C 0.35057 0.89614 0.10059 0.0
C1038 C 0.39179 -0.00692 0.09758 0.0
C1039 C 0.39236 0.90098 0.09625 0.0
H1040 H 0.60828 0.10562 0.34314 0.0
H1041 H 0.60271 0.12608 0.4142 0.0
H1042 H 0.60781 0.96625 0.41773 0.0
H1043 H 0.61432 0.82079 0.40052 0.0
H1044 H 0.61711 0.7999 0.32949 0.0
H1045 H 0.61319 0.96067 0.32595 0.0
C1046 C 0.60806 0.07503 0.3594 0.0
C1047 C 0.60518 0.12732 0.37837 0.0
C1048 C 0.61093 0.98355 0.36129 0.0
C1049 C 0.60472 0.08693 0.39932 0.0
C1050 C 0.60785 -0.00421 0.40138 0.0
C1051 C 0.61441 0.85218 0.38436 0.0
C1052 C 0.61648 0.80035 0.36528 0.0
C1053 C 0.61119 0.94367 0.38249 0.0
C1054 C 0.61589 0.8399 0.34431 0.0
C1055 C 0.61348 0.93124 0.34231 0.0
H1056 H 0.32475 0.89291 0.35292 0.0
H1057 H 0.39878 0.88457 0.35864 0.0
H1058 H 0.40009 0.0465 0.36068 0.0
H1059 H 0.38007 0.18918 0.36026 0.0
H1060 H 0.30582 0.1974 0.35768 0.0
H1061 H 0.30451 0.03553 0.35532 0.0
C1062 C 0.34114 0.92698 0.35447 0.0
C1063 C 0.3617 0.87822 0.35522 0.0
C1064 C 0.34162 0.01914 0.3564 0.0
C1065 C 0.38283 0.92175 0.35785 0.0
C1066 C 0.38355 0.01384 0.35905 0.0
C1067 C 0.36362 0.15528 0.35926 0.0
C1068 C 0.34307 0.20428 0.35891 0.0
C1069 C 0.36305 0.06299 0.35828 0.0
C1070 C 0.32181 0.16037 0.35801 0.0
C1071 C 0.32108 0.06824 0.35653 0.0
H1072 H 0.39837 0.75424 0.84729 0.0
H1073 H 0.32463 0.7539 0.85632 0.0
H1074 H 0.32417 0.91591 0.85469 0.0
H1075 H 0.345 0.05676 0.85208 0.0
H1076 H 0.41824 0.05828 0.84012 0.0
H1077 H 0.41877 0.89566 0.84119 0.0
C1078 C 0.38224 0.78995 0.84892 0.0
C1079 C 0.36158 0.74303 0.85231 0.0
C1080 C 0.38208 0.88254 0.84732 0.0
C1081 C 0.34069 0.78916 0.85385 0.0
C1082 C 0.34045 0.88146 0.85292 0.0
C1083 C 0.36105 0.02118 0.84957 0.0
C1084 C 0.38162 0.06847 0.84628 0.0
C1085 C 0.36106 0.92863 0.84986 0.0
C1086 C 0.40226 0.02259 0.84266 0.0
C1087 C 0.40254 0.93001 0.8434 0.0
H1088 H 0.62479 0.10362 0.90022 0.0
H1089 H 0.66318 0.11978 0.83917 0.0
H1090 H 0.65975 0.95904 0.83448 0.0
H1091 H 0.64451 0.81458 0.84744 0.0
H1092 H 0.60776 0.8012 0.90939 0.0
H1093 H 0.61124 0.96142 0.91381 0.0
C1094 C 0.63255 0.07198 0.88593 0.0
C1095 C 0.6441 0.12322 0.86999 0.0
C1096 C 0.63031 0.98067 0.88331 0.0
C1097 C 0.65434 0.08139 0.85173 0.0
C1098 C 0.65215 -0.01017 0.84893 0.0
C1099 C 0.63699 0.84753 0.86166 0.0
C1100 C 0.62542 0.79769 0.87785 0.0
C1101 C 0.63982 0.93908 0.86445 0.0
C1102 C 0.61636 0.8394 0.89662 0.0
C1103 C 0.61852 0.93048 0.89922 0.0
H1104 H 0.34941 -0.01183 0.60793 0.0
H1105 H 0.42289 -0.01284 0.61826 0.0
H1106 H 0.42324 0.14982 0.61773 0.0
H1107 H 0.40261 0.29113 0.61234 0.0
H1108 H 0.32872 0.29075 0.60464 0.0
H1109 H 0.32841 0.12876 0.60614 0.0
C1110 C 0.36547 0.02383 0.6102 0.0
C1111 C 0.38617 0.97666 0.61284 0.0
C1112 C 0.3654 0.11639 0.6102 0.0
C1113 C 0.40683 0.0227 0.61618 0.0
C1114 C 0.407 0.11533 0.61576 0.0
C1115 C 0.38647 0.25532 0.611 0.0
C1116 C 0.36572 0.30211 0.60801 0.0
C1117 C 0.38642 0.16268 0.61242 0.0
C1118 C 0.34484 0.25571 0.60682 0.0
C1119 C 0.3447 0.16339 0.60765 0.0
H1120 H 0.60074 0.76605 0.6295 0.0
H1121 H 0.67496 0.76514 0.6257 0.0
H1122 H 0.67533 0.92739 0.62662 0.0
H1123 H 0.65426 0.06832 0.6265 0.0
H1124 H 0.58025 0.06957 0.63295 0.0
H1125 H 0.57993 0.90712 0.63322 0.0
C1126 C 0.61698 0.80164 0.62894 0.0
C1127 C 0.6378 0.75462 0.62717 0.0
C1128 C 0.61701 0.89415 0.62995 0.0
C1129 C 0.65878 0.80056 0.62697 0.0
C1130 C 0.65896 0.89295 0.62744 0.0
C1131 C 0.63809 0.03274 0.62808 0.0
C1132 C 0.61725 0.07984 0.62937 0.0
C1133 C 0.63815 0.94022 0.62861 0.0
C1134 C 0.59642 0.034 0.63188 0.0
C1135 C 0.59627 0.94152 0.63194 0.0
loop_
_geom_bond_atom_site_label_1
_geom_bond_atom_site_label_2
_geom_bond_distance
_geom_bond_site_symmetry_2
_ccdc_geom_bond_type
O0 Zn1 1.953 . S
O0 C16 1.225 . S
Zn1 O0 1.953 . S
Zn1 O2 1.949 . S
Zn1 O8 1.919 . S
Zn1 O13 1.924 . S
O2 Zn1 1.949 . S
O2 Zn3 1.923 1_545 S
O2 Zn4 1.950 . S
O2 Zn5 1.945 1_545 S
Zn3 O2 1.923 1_565 S
Zn3 O6 1.933 . S
Zn3 O9 1.941 1_565 S
Zn3 O10 1.965 1_565 S
Zn4 O2 1.950 . S
Zn4 O11 1.938 . S
Zn4 O12 1.906 . S
Zn4 O22 1.953 . S
Zn5 O2 1.945 1_565 S
Zn5 O7 1.932 . S
Zn5 O14 1.977 . S
Zn5 O15 1.910 . S
O6 Zn3 1.933 . S
O6 C17 1.226 . S
O7 Zn5 1.932 . S
O7 C17 1.307 . S
O8 Zn1 1.919 . S
O8 C19 1.253 . S
O9 Zn3 1.941 1_545 S
O9 C19 1.283 . S
O10 Zn3 1.965 1_545 S
O10 C18 1.303 . S
O11 Zn4 1.938 . S
O11 C18 1.247 . S
O12 Zn4 1.906 . S
O12 C20 1.304 . S
O13 Zn1 1.924 . S
O13 C21 1.311 . S
O14 Zn5 1.977 . S
O14 C20 1.272 1_565 S
O15 Zn5 1.910 . S
O15 C21 1.231 1_565 S
C16 O0 1.225 . S
C16 O22 1.298 . S
C17 O6 1.226 . S
C17 O7 1.307 . S
C18 O10 1.303 . S
C18 O11 1.247 . S
C19 O8 1.253 . S
C19 O9 1.283 . S
C20 O12 1.304 . S
C20 O14 1.272 1_545 S
C21 O13 1.311 . S
C21 O15 1.231 1_545 S
O22 Zn4 1.953 . S
O22 C16 1.298 . S
O23 Zn24 1.953 . S
O23 C39 1.225 . S
Zn24 O23 1.953 . S
Zn24 O25 1.949 . S
Zn24 O31 1.919 . S
Zn24 O36 1.924 . S
O25 Zn24 1.949 . S
O25 Zn26 1.923 1_565 S
O25 Zn27 1.950 . S
O25 Zn28 1.945 1_565 S
Zn26 O25 1.923 1_545 S
Zn26 O29 1.933 . S
Zn26 O32 1.941 1_545 S
Zn26 O33 1.965 1_545 S
Zn27 O25 1.950 . S
Zn27 O34 1.938 . S
Zn27 O35 1.906 . S
Zn27 O45 1.953 . S
Zn28 O25 1.945 1_545 S
Zn28 O30 1.932 . S
Zn28 O37 1.977 . S
Zn28 O38 1.910 . S
O29 Zn26 1.933 . S
O29 C40 1.226 . S
O30 Zn28 1.932 . S
O30 C40 1.307 . S
O31 Zn24 1.919 . S
O31 C42 1.253 . S
O32 Zn26 1.941 1_565 S
O32 C42 1.283 . S
O33 Zn26 1.965 1_565 S
O33 C41 1.303 . S
O34 Zn27 1.938 . S
O34 C41 1.247 . S
O35 Zn27 1.906 . S
O35 C43 1.304 . S
O36 Zn24 1.924 . S
O36 C44 1.311 . S
O37 Zn28 1.977 . S
O37 C43 1.272 1_545 S
O38 Zn28 1.910 . S
O38 C44 1.231 1_545 S
C39 O23 1.225 . S
C39 O45 1.298 . S
C40 O29 1.226 . S
C40 O30 1.307 . S
C41 O33 1.303 . S
C41 O34 1.247 . S
C42 O31 1.253 . S
C42 O32 1.283 . S
C43 O35 1.304 . S
C43 O37 1.272 1_565 S
C44 O36 1.311 . S
C44 O38 1.231 1_565 S
O45 Zn27 1.953 . S
O45 C39 1.298 . S
O46 Zn47 1.953 . S
O46 C62 1.225 . S
Zn47 O46 1.953 . S
Zn47 O48 1.949 . S
Zn47 O54 1.919 . S
Zn47 O59 1.924 . S
O48 Zn47 1.949 . S
O48 Zn49 1.923 1_565 S
O48 Zn50 1.950 . S
O48 Zn51 1.945 1_565 S
Zn49 O48 1.923 1_545 S
Zn49 O52 1.933 . S
Zn49 O55 1.941 1_545 S
Zn49 O56 1.965 1_545 S
Zn50 O48 1.950 . S
Zn50 O57 1.938 . S
Zn50 O58 1.906 . S
Zn50 O68 1.953 . S
Zn51 O48 1.945 1_545 S
Zn51 O53 1.932 . S
Zn51 O60 1.977 . S
Zn51 O61 1.910 . S
O52 Zn49 1.933 . S
O52 C63 1.226 . S
O53 Zn51 1.932 . S
O53 C63 1.307 . S
O54 Zn47 1.919 . S
O54 C65 1.253 . S
O55 Zn49 1.941 1_565 S
O55 C65 1.283 . S
O56 Zn49 1.965 1_565 S
O56 C64 1.303 . S
O57 Zn50 1.938 . S
O57 C64 1.247 . S
O58 Zn50 1.906 . S
O58 C66 1.304 . S
O59 Zn47 1.924 . S
O59 C67 1.311 . S
O60 Zn51 1.977 . S
O60 C66 1.272 1_545 S
O61 Zn51 1.910 . S
O61 C67 1.231 1_545 S
C62 O46 1.225 . S
C62 O68 1.298 . S
C63 O52 1.226 . S
C63 O53 1.307 . S
C64 O56 1.303 . S
C64 O57 1.247 . S
C65 O54 1.253 . S
C65 O55 1.283 . S
C66 O58 1.304 . S
C66 O60 1.272 1_565 S
C67 O59 1.311 . S
C67 O61 1.231 1_565 S
O68 Zn50 1.953 . S
O68 C62 1.298 . S
O69 Zn70 1.953 . S
O69 C85 1.225 . S
Zn70 O69 1.953 . S
Zn70 O71 1.949 . S
Zn70 O77 1.919 . S
Zn70 O82 1.924 . S
O71 Zn70 1.949 . S
O71 Zn72 1.923 1_545 S
O71 Zn73 1.950 . S
O71 Zn74 1.945 1_545 S
Zn72 O71 1.923 1_565 S
Zn72 O75 1.933 . S
Zn72 O78 1.941 1_565 S
Zn72 O79 1.965 1_565 S
Zn73 O71 1.950 . S
Zn73 O80 1.938 . S
Zn73 O81 1.906 . S
Zn73 O91 1.953 . S
Zn74 O71 1.945 1_565 S
Zn74 O76 1.932 . S
Zn74 O83 1.977 . S
Zn74 O84 1.910 . S
O75 Zn72 1.933 . S
O75 C86 1.226 . S
O76 Zn74 1.932 . S
O76 C86 1.307 . S
O77 Zn70 1.919 . S
O77 C88 1.253 . S
O78 Zn72 1.941 1_545 S
O78 C88 1.283 . S
O79 Zn72 1.965 1_545 S
O79 C87 1.303 . S
O80 Zn73 1.938 . S
O80 C87 1.247 . S
O81 Zn73 1.906 . S
O81 C89 1.304 . S
O82 Zn70 1.924 . S
O82 C90 1.311 . S
O83 Zn74 1.977 . S
O83 C89 1.272 1_565 S
O84 Zn74 1.910 . S
O84 C90 1.231 1_565 S
C85 O69 1.225 . S
C85 O91 1.298 . S
C86 O75 1.226 . S
C86 O76 1.307 . S
C87 O79 1.303 . S
C87 O80 1.247 . S
C88 O77 1.253 . S
C88 O78 1.283 . S
C89 O81 1.304 . S
C89 O83 1.272 1_545 S
C90 O82 1.311 . S
C90 O84 1.231 1_545 S
O91 Zn73 1.953 . S
O91 C85 1.298 . S
O92 Zn93 1.953 . S
O92 C108 1.225 . S
Zn93 O92 1.953 . S
Zn93 O94 1.949 . S
Zn93 O100 1.919 . S
Zn93 O105 1.924 . S
O94 Zn93 1.949 . S
O94 Zn95 1.923 1_565 S
O94 Zn96 1.950 . S
O94 Zn97 1.945 1_565 S
Zn95 O94 1.923 1_545 S
Zn95 O98 1.933 . S
Zn95 O101 1.941 . S
Zn95 O102 1.965 1_545 S
Zn96 O94 1.950 . S
Zn96 O103 1.938 . S
Zn96 O104 1.906 . S
Zn96 O114 1.953 . S
Zn97 O94 1.945 1_545 S
Zn97 O99 1.932 . S
Zn97 O106 1.977 . S
Zn97 O107 1.910 . S
O98 Zn95 1.933 . S
O98 C109 1.226 . S
O99 Zn97 1.932 . S
O99 C109 1.307 . S
O100 Zn93 1.919 . S
O100 C111 1.253 . S
O101 Zn95 1.941 . S
O101 C111 1.283 1_545 S
O102 Zn95 1.965 1_565 S
O102 C110 1.303 . S
O103 Zn96 1.938 . S
O103 C110 1.247 . S
O104 Zn96 1.906 . S
O104 C112 1.304 . S
O105 Zn93 1.924 . S
O105 C113 1.311 . S
O106 Zn97 1.977 . S
O106 C112 1.272 1_545 S
O107 Zn97 1.910 . S
O107 C113 1.231 1_545 S
C108 O92 1.225 . S
C108 O114 1.298 . S
C109 O98 1.226 . S
C109 O99 1.307 . S
C110 O102 1.303 . S
C110 O103 1.247 . S
C111 O100 1.253 . S
C111 O101 1.283 1_565 S
C112 O104 1.304 . S
C112 O106 1.272 1_565 S
C113 O105 1.311 . S
C113 O107 1.231 1_565 S
O114 Zn96 1.953 . S
O114 C108 1.298 . S
O115 Zn116 1.953 . S
O115 C131 1.225 . S
Zn116 O115 1.953 . S
Zn116 O117 1.949 . S
Zn116 O123 1.919 . S
Zn116 O128 1.924 . S
O117 Zn116 1.949 . S
O117 Zn118 1.923 1_545 S
O117 Zn119 1.950 . S
O117 Zn120 1.945 1_545 S
Zn118 O117 1.923 1_565 S
Zn118 O121 1.933 . S
Zn118 O124 1.941 . S
Zn118 O125 1.965 1_565 S
Zn119 O117 1.950 . S
Zn119 O126 1.938 . S
Zn119 O127 1.906 . S
Zn119 O137 1.953 . S
Zn120 O117 1.945 1_565 S
Zn120 O122 1.932 . S
Zn120 O129 1.977 . S
Zn120 O130 1.910 . S
O121 Zn118 1.933 . S
O121 C132 1.226 . S
O122 Zn120 1.932 . S
O122 C132 1.307 . S
O123 Zn116 1.919 . S
O123 C134 1.253 . S
O124 Zn118 1.941 . S
O124 C134 1.283 1_565 S
O125 Zn118 1.965 1_545 S
O125 C133 1.303 . S
O126 Zn119 1.938 . S
O126 C133 1.247 . S
O127 Zn119 1.906 . S
O127 C135 1.304 . S
O128 Zn116 1.924 . S
O128 C136 1.311 . S
O129 Zn120 1.977 . S
O129 C135 1.272 1_565 S
O130 Zn120 1.910 . S
O130 C136 1.231 1_565 S
C131 O115 1.225 . S
C131 O137 1.298 . S
C132 O121 1.226 . S
C132 O122 1.307 . S
C133 O125 1.303 . S
C133 O126 1.247 . S
C134 O123 1.253 . S
C134 O124 1.283 1_545 S
C135 O127 1.304 . S
C135 O129 1.272 1_545 S
C136 O128 1.311 . S
C136 O130 1.231 1_545 S
O137 Zn119 1.953 . S
O137 C131 1.298 . S
O138 Zn139 1.953 . S
O138 C154 1.225 . S
Zn139 O138 1.953 . S
Zn139 O140 1.949 . S
Zn139 O146 1.919 . S
Zn139 O151 1.924 . S
O140 Zn139 1.949 . S
O140 Zn141 1.923 1_545 S
O140 Zn142 1.950 . S
O140 Zn143 1.945 1_545 S
Zn141 O140 1.923 1_565 S
Zn141 O144 1.933 . S
Zn141 O147 1.941 . S
Zn141 O148 1.965 1_565 S
Zn142 O140 1.950 . S
Zn142 O149 1.938 . S
Zn142 O150 1.906 . S
Zn142 O160 1.953 . S
Zn143 O140 1.945 1_565 S
Zn143 O145 1.932 . S
Zn143 O152 1.977 . S
Zn143 O153 1.910 . S
O144 Zn141 1.933 . S
O144 C155 1.226 . S
O145 Zn143 1.932 . S
O145 C155 1.307 . S
O146 Zn139 1.919 . S
O146 C157 1.253 . S
O147 Zn141 1.941 . S
O147 C157 1.283 1_565 S
O148 Zn141 1.965 1_545 S
O148 C156 1.303 . S
O149 Zn142 1.938 . S
O149 C156 1.247 . S
O150 Zn142 1.906 . S
O150 C158 1.304 . S
O151 Zn139 1.924 . S
O151 C159 1.311 . S
O152 Zn143 1.977 . S
O152 C158 1.272 1_565 S
O153 Zn143 1.910 . S
O153 C159 1.231 1_565 S
C154 O138 1.225 . S
C154 O160 1.298 . S
C155 O144 1.226 . S
C155 O145 1.307 . S
C156 O148 1.303 . S
C156 O149 1.247 . S
C157 O146 1.253 . S
C157 O147 1.283 1_545 S
C158 O150 1.304 . S
C158 O152 1.272 1_545 S
C159 O151 1.311 . S
C159 O153 1.231 1_545 S
O160 Zn142 1.953 . S
O160 C154 1.298 . S
O161 Zn162 1.953 . S
O161 C177 1.225 . S
Zn162 O161 1.953 . S
Zn162 O163 1.949 . S
Zn162 O169 1.919 . S
Zn162 O174 1.924 . S
O163 Zn162 1.949 . S
O163 Zn164 1.923 1_565 S
O163 Zn165 1.950 . S
O163 Zn166 1.945 1_565 S
Zn164 O163 1.923 1_545 S
Zn164 O167 1.933 . S
Zn164 O170 1.941 . S
Zn164 O171 1.965 1_545 S
Zn165 O163 1.950 . S
Zn165 O172 1.938 . S
Zn165 O173 1.906 . S
Zn165 O183 1.953 . S
Zn166 O163 1.945 1_545 S
Zn166 O168 1.932 . S
Zn166 O175 1.977 . S
Zn166 O176 1.910 . S
O167 Zn164 1.933 . S
O167 C178 1.226 . S
O168 Zn166 1.932 . S
O168 C178 1.307 . S
O169 Zn162 1.919 . S
O169 C180 1.253 . S
O170 Zn164 1.941 . S
O170 C180 1.283 1_545 S
O171 Zn164 1.965 1_565 S
O171 C179 1.303 . S
O172 Zn165 1.938 . S
O172 C179 1.247 . S
O173 Zn165 1.906 . S
O173 C181 1.304 . S
O174 Zn162 1.924 . S
O174 C182 1.311 . S
O175 Zn166 1.977 . S
O175 C181 1.272 1_545 S
O176 Zn166 1.910 . S
O176 C182 1.231 1_545 S
C177 O161 1.225 . S
C177 O183 1.298 . S
C178 O167 1.226 . S
C178 O168 1.307 . S
C179 O171 1.303 . S
C179 O172 1.247 . S
C180 O169 1.253 . S
C180 O170 1.283 1_565 S
C181 O173 1.304 . S
C181 O175 1.272 1_565 S
C182 O174 1.311 . S
C182 O176 1.231 1_565 S
O183 Zn165 1.953 . S
O183 C177 1.298 . S
O184 Zn185 1.953 . S
O184 C200 1.225 . S
Zn185 O184 1.953 . S
Zn185 O186 1.949 . S
Zn185 O192 1.919 . S
Zn185 O197 1.924 . S
O186 Zn185 1.949 . S
O186 Zn187 1.923 . S
O186 Zn188 1.950 . S
O186 Zn189 1.945 . S
Zn187 O186 1.923 . S
Zn187 O190 1.933 . S
Zn187 O193 1.941 . S
Zn187 O194 1.965 . S
Zn188 O186 1.950 . S
Zn188 O195 1.938 . S
Zn188 O196 1.906 . S
Zn188 O206 1.953 . S
Zn189 O186 1.945 . S
Zn189 O191 1.932 . S
Zn189 O198 1.977 . S
Zn189 O199 1.910 . S
O190 Zn187 1.933 . S
O190 C201 1.226 . S
O191 Zn189 1.932 . S
O191 C201 1.307 . S
O192 Zn185 1.919 . S
O192 C203 1.253 . S
O193 Zn187 1.941 . S
O193 C203 1.283 . S
O194 Zn187 1.965 . S
O194 C202 1.303 . S
O195 Zn188 1.938 . S
O195 C202 1.247 . S
O196 Zn188 1.906 . S
O196 C204 1.304 . S
O197 Zn185 1.924 . S
O197 C205 1.311 . S
O198 Zn189 1.977 . S
O198 C204 1.272 . S
O199 Zn189 1.910 . S
O199 C205 1.231 . S
C200 O184 1.225 . S
C200 O206 1.298 . S
C201 O190 1.226 . S
C201 O191 1.307 . S
C202 O194 1.303 . S
C202 O195 1.247 . S
C203 O192 1.253 . S
C203 O193 1.283 . S
C204 O196 1.304 . S
C204 O198 1.272 . S
C205 O197 1.311 . S
C205 O199 1.231 . S
O206 Zn188 1.953 . S
O206 C200 1.298 . S
O207 Zn208 1.953 . S
O207 C223 1.225 . S
Zn208 O207 1.953 . S
Zn208 O209 1.949 . S
Zn208 O215 1.919 . S
Zn208 O220 1.924 . S
O209 Zn208 1.949 . S
O209 Zn210 1.923 . S
O209 Zn211 1.950 . S
O209 Zn212 1.945 . S
Zn210 O209 1.923 . S
Zn210 O213 1.933 . S
Zn210 O216 1.941 . S
Zn210 O217 1.965 . S
Zn211 O209 1.950 . S
Zn211 O218 1.938 . S
Zn211 O219 1.906 . S
Zn211 O229 1.953 . S
Zn212 O209 1.945 . S
Zn212 O214 1.932 . S
Zn212 O221 1.977 . S
Zn212 O222 1.910 . S
O213 Zn210 1.933 . S
O213 C224 1.226 . S
O214 Zn212 1.932 . S
O214 C224 1.307 . S
O215 Zn208 1.919 . S
O215 C226 1.253 . S
O216 Zn210 1.941 . S
O216 C226 1.283 . S
O217 Zn210 1.965 . S
O217 C225 1.303 . S
O218 Zn211 1.938 . S
O218 C225 1.247 . S
O219 Zn211 1.906 . S
O219 C227 1.304 . S
O220 Zn208 1.924 . S
O220 C228 1.311 . S
O221 Zn212 1.977 . S
O221 C227 1.272 . S
O222 Zn212 1.910 . S
O222 C228 1.231 . S
C223 O207 1.225 . S
C223 O229 1.298 . S
C224 O213 1.226 . S
C224 O214 1.307 . S
C225 O217 1.303 . S
C225 O218 1.247 . S
C226 O215 1.253 . S
C226 O216 1.283 . S
C227 O219 1.304 . S
C227 O221 1.272 . S
C228 O220 1.311 . S
C228 O222 1.231 . S
O229 Zn211 1.953 . S
O229 C223 1.298 . S
O230 Zn231 1.953 . S
O230 C246 1.225 . S
Zn231 O230 1.953 . S
Zn231 O232 1.949 . S
Zn231 O238 1.919 . S
Zn231 O243 1.924 . S
O232 Zn231 1.949 . S
O232 Zn233 1.923 . S
O232 Zn234 1.950 . S
O232 Zn235 1.945 . S
Zn233 O232 1.923 . S
Zn233 O236 1.933 . S
Zn233 O239 1.941 . S
Zn233 O240 1.965 . S
Zn234 O232 1.950 . S
Zn234 O241 1.938 . S
Zn234 O242 1.906 . S
Zn234 O252 1.953 . S
Zn235 O232 1.945 . S
Zn235 O237 1.932 . S
Zn235 O244 1.977 . S
Zn235 O245 1.910 . S
O236 Zn233 1.933 . S
O236 C247 1.226 . S
O237 Zn235 1.932 . S
O237 C247 1.307 . S
O238 Zn231 1.919 . S
O238 C249 1.253 . S
O239 Zn233 1.941 . S
O239 C249 1.283 . S
O240 Zn233 1.965 . S
O240 C248 1.303 . S
O241 Zn234 1.938 . S
O241 C248 1.247 . S
O242 Zn234 1.906 . S
O242 C250 1.304 . S
O243 Zn231 1.924 . S
O243 C251 1.311 . S
O244 Zn235 1.977 . S
O244 C250 1.272 . S
O245 Zn235 1.910 . S
O245 C251 1.231 . S
C246 O230 1.225 . S
C246 O252 1.298 . S
C247 O236 1.226 . S
C247 O237 1.307 . S
C248 O240 1.303 . S
C248 O241 1.247 . S
C249 O238 1.253 . S
C249 O239 1.283 . S
C250 O242 1.304 . S
C250 O244 1.272 . S
C251 O243 1.311 . S
C251 O245 1.231 . S
O252 Zn234 1.953 . S
O252 C246 1.298 . S
O253 Zn254 1.953 . S
O253 C269 1.225 . S
Zn254 O253 1.953 . S
Zn254 O255 1.949 . S
Zn254 O261 1.919 . S
Zn254 O266 1.924 . S
O255 Zn254 1.949 . S
O255 Zn256 1.923 . S
O255 Zn257 1.950 . S
O255 Zn258 1.945 . S
Zn256 O255 1.923 . S
Zn256 O259 1.933 . S
Zn256 O262 1.941 . S
Zn256 O263 1.965 . S
Zn257 O255 1.950 . S
Zn257 O264 1.938 . S
Zn257 O265 1.906 . S
Zn257 O275 1.953 . S
Zn258 O255 1.945 . S
Zn258 O260 1.932 . S
Zn258 O267 1.977 . S
Zn258 O268 1.910 . S
O259 Zn256 1.933 . S
O259 C270 1.226 . S
O260 Zn258 1.932 . S
O260 C270 1.307 . S
O261 Zn254 1.919 . S
O261 C272 1.253 . S
O262 Zn256 1.941 . S
O262 C272 1.283 . S
O263 Zn256 1.965 . S
O263 C271 1.303 . S
O264 Zn257 1.938 . S
O264 C271 1.247 . S
O265 Zn257 1.906 . S
O265 C273 1.304 . S
O266 Zn254 1.924 . S
O266 C274 1.311 . S
O267 Zn258 1.977 . S
O267 C273 1.272 . S
O268 Zn258 1.910 . S
O268 C274 1.231 . S
C269 O253 1.225 . S
C269 O275 1.298 . S
C270 O259 1.226 . S
C270 O260 1.307 . S
C271 O263 1.303 . S
C271 O264 1.247 . S
C272 O261 1.253 . S
C272 O262 1.283 . S
C273 O265 1.304 . S
C273 O267 1.272 . S
C274 O266 1.311 . S
C274 O268 1.231 . S
O275 Zn257 1.953 . S
O275 C269 1.298 . S
O276 Zn277 1.953 . S
O276 C292 1.225 . S
Zn277 O276 1.953 . S
Zn277 O278 1.949 . S
Zn277 O284 1.919 . S
Zn277 O289 1.924 . S
O278 Zn277 1.949 . S
O278 Zn279 1.923 . S
O278 Zn280 1.950 . S
O278 Zn281 1.945 . S
Zn279 O278 1.923 . S
Zn279 O282 1.933 . S
Zn279 O285 1.941 . S
Zn279 O286 1.965 . S
Zn280 O278 1.950 . S
Zn280 O287 1.938 . S
Zn280 O288 1.906 . S
Zn280 O298 1.953 . S
Zn281 O278 1.945 . S
Zn281 O283 1.932 . S
Zn281 O290 1.977 . S
Zn281 O291 1.910 . S
O282 Zn279 1.933 . S
O282 C293 1.226 . S
O283 Zn281 1.932 . S
O283 C293 1.307 . S
O284 Zn277 1.919 . S
O284 C295 1.253 . S
O285 Zn279 1.941 . S
O285 C295 1.283 . S
O286 Zn279 1.965 . S
O286 C294 1.303 . S
O287 Zn280 1.938 . S
O287 C294 1.247 . S
O288 Zn280 1.906 . S
O288 C296 1.304 . S
O289 Zn277 1.924 . S
O289 C297 1.311 . S
O290 Zn281 1.977 . S
O290 C296 1.272 . S
O291 Zn281 1.910 . S
O291 C297 1.231 . S
C292 O276 1.225 . S
C292 O298 1.298 . S
C293 O282 1.226 . S
C293 O283 1.307 . S
C294 O286 1.303 . S
C294 O287 1.247 . S
C295 O284 1.253 . S
C295 O285 1.283 . S
C296 O288 1.304 . S
C296 O290 1.272 . S
C297 O289 1.311 . S
C297 O291 1.231 . S
O298 Zn280 1.953 . S
O298 C292 1.298 . S
O299 Zn300 1.953 . S
O299 C315 1.225 . S
Zn300 O299 1.953 . S
Zn300 O301 1.949 . S
Zn300 O307 1.919 . S
Zn300 O312 1.924 . S
O301 Zn300 1.949 . S
O301 Zn302 1.923 . S
O301 Zn303 1.950 . S
O301 Zn304 1.945 . S
Zn302 O301 1.923 . S
Zn302 O305 1.933 . S
Zn302 O308 1.941 . S
Zn302 O309 1.965 . S
Zn303 O301 1.950 . S
Zn303 O310 1.938 . S
Zn303 O311 1.906 . S
Zn303 O321 1.953 . S
Zn304 O301 1.945 . S
Zn304 O306 1.932 . S
Zn304 O313 1.977 . S
Zn304 O314 1.910 . S
O305 Zn302 1.933 . S
O305 C316 1.226 . S
O306 Zn304 1.932 . S
O306 C316 1.307 . S
O307 Zn300 1.919 . S
O307 C318 1.253 . S
O308 Zn302 1.941 . S
O308 C318 1.283 . S
O309 Zn302 1.965 . S
O309 C317 1.303 . S
O310 Zn303 1.938 . S
O310 C317 1.247 . S
O311 Zn303 1.906 . S
O311 C319 1.304 . S
O312 Zn300 1.924 . S
O312 C320 1.311 . S
O313 Zn304 1.977 . S
O313 C319 1.272 . S
O314 Zn304 1.910 . S
O314 C320 1.231 . S
C315 O299 1.225 . S
C315 O321 1.298 . S
C316 O305 1.226 . S
C316 O306 1.307 . S
C317 O309 1.303 . S
C317 O310 1.247 . S
C318 O307 1.253 . S
C318 O308 1.283 . S
C319 O311 1.304 . S
C319 O313 1.272 . S
C320 O312 1.311 . S
C320 O314 1.231 . S
O321 Zn303 1.953 . S
O321 C315 1.298 . S
O322 Zn323 1.953 . S
O322 C338 1.225 . S
Zn323 O322 1.953 . S
Zn323 O324 1.949 . S
Zn323 O330 1.919 . S
Zn323 O335 1.924 . S
O324 Zn323 1.949 . S
O324 Zn325 1.923 . S
O324 Zn326 1.950 . S
O324 Zn327 1.945 . S
Zn325 O324 1.923 . S
Zn325 O328 1.933 . S
Zn325 O331 1.941 . S
Zn325 O332 1.965 . S
Zn326 O324 1.950 . S
Zn326 O333 1.938 . S
Zn326 O334 1.906 . S
Zn326 O344 1.953 . S
Zn327 O324 1.945 . S
Zn327 O329 1.932 . S
Zn327 O336 1.977 . S
Zn327 O337 1.910 . S
O328 Zn325 1.933 . S
O328 C339 1.226 . S
O329 Zn327 1.932 . S
O329 C339 1.307 . S
O330 Zn323 1.919 . S
O330 C341 1.253 . S
O331 Zn325 1.941 . S
O331 C341 1.283 . S
O332 Zn325 1.965 . S
O332 C340 1.303 . S
O333 Zn326 1.938 . S
O333 C340 1.247 . S
O334 Zn326 1.906 . S
O334 C342 1.304 . S
O335 Zn323 1.924 . S
O335 C343 1.311 . S
O336 Zn327 1.977 . S
O336 C342 1.272 . S
O337 Zn327 1.910 . S
O337 C343 1.231 . S
C338 O322 1.225 . S
C338 O344 1.298 . S
C339 O328 1.226 . S
C339 O329 1.307 . S
C340 O332 1.303 . S
C340 O333 1.247 . S
C341 O330 1.253 . S
C341 O331 1.283 . S
C342 O334 1.304 . S
C342 O336 1.272 . S
C343 O335 1.311 . S
C343 O337 1.231 . S
O344 Zn326 1.953 . S
O344 C338 1.298 . S
O345 Zn346 1.953 . S
O345 C361 1.225 . S
Zn346 O345 1.953 . S
Zn346 O347 1.949 . S
Zn346 O353 1.919 . S
Zn346 O358 1.924 . S
O347 Zn346 1.949 . S
O347 Zn348 1.923 . S
O347 Zn349 1.950 . S
O347 Zn350 1.945 . S
Zn348 O347 1.923 . S
Zn348 O351 1.933 . S
Zn348 O354 1.941 . S
Zn348 O355 1.965 . S
Zn349 O347 1.950 . S
Zn349 O356 1.938 . S
Zn349 O357 1.906 . S
Zn349 O367 1.953 . S
Zn350 O347 1.945 . S
Zn350 O352 1.932 . S
Zn350 O359 1.977 . S
Zn350 O360 1.910 . S
O351 Zn348 1.933 . S
O351 C362 1.226 . S
O352 Zn350 1.932 . S
O352 C362 1.307 . S
O353 Zn346 1.919 . S
O353 C364 1.253 . S
O354 Zn348 1.941 . S
O354 C364 1.283 . S
O355 Zn348 1.965 . S
O355 C363 1.303 . S
O356 Zn349 1.938 . S
O356 C363 1.247 . S
O357 Zn349 1.906 . S
O357 C365 1.304 . S
O358 Zn346 1.924 . S
O358 C366 1.311 . S
O359 Zn350 1.977 . S
O359 C365 1.272 . S
O360 Zn350 1.910 . S
O360 C366 1.231 . S
C361 O345 1.225 . S
C361 O367 1.298 . S
C362 O351 1.226 . S
C362 O352 1.307 . S
C363 O355 1.303 . S
C363 O356 1.247 . S
C364 O353 1.253 . S
C364 O354 1.283 . S
C365 O357 1.304 . S
C365 O359 1.272 . S
C366 O358 1.311 . S
C366 O360 1.231 . S
O367 Zn349 1.953 . S
O367 C361 1.298 . S
H368 C374 0.930 . S
H369 C377 0.930 . S
H370 C378 0.930 . S
H371 C379 0.930 . S
H372 C382 0.930 . S
H373 C383 0.930 . S
C374 H368 0.930 . S
C374 C375 1.355 . S
C374 C376 1.415 . S
C375 C374 1.355 . S
C375 C377 1.419 . S
C376 C374 1.415 . S
C376 C381 1.425 . S
C376 C383 1.409 . S
C377 H369 0.930 . S
C377 C375 1.419 . S
C377 C378 1.362 . S
C378 H370 0.930 . S
C378 C377 1.362 . S
C378 C381 1.409 . S
C379 H371 0.930 . S
C379 C380 1.355 . S
C379 C381 1.415 . S
C380 C379 1.355 . S
C380 C382 1.419 . S
C381 C376 1.425 . S
C381 C378 1.409 . S
C381 C379 1.415 . S
C382 H372 0.930 . S
C382 C380 1.419 . S
C382 C383 1.362 . S
C383 H373 0.930 . S
C383 C376 1.409 . S
C383 C382 1.362 . S
H384 C390 0.930 . S
H385 C393 0.930 . S
H386 C394 0.930 . S
H387 C395 0.930 . S
H388 C398 0.930 . S
H389 C399 0.930 . S
C390 H384 0.930 . S
C390 C391 1.355 . S
C390 C392 1.415 . S
C391 C390 1.355 . S
C391 C393 1.419 . S
C392 C390 1.415 . S
C392 C397 1.425 . S
C392 C399 1.409 . S
C393 H385 0.930 . S
C393 C391 1.419 . S
C393 C394 1.362 . S
C394 H386 0.930 . S
C394 C393 1.362 . S
C394 C397 1.409 . S
C395 H387 0.930 . S
C395 C396 1.355 . S
C395 C397 1.415 . S
C396 C395 1.355 . S
C396 C398 1.419 . S
C397 C392 1.425 . S
C397 C394 1.409 . S
C397 C395 1.415 . S
C398 H388 0.930 . S
C398 C396 1.419 . S
C398 C399 1.362 . S
C399 H389 0.930 . S
C399 C392 1.409 . S
C399 C398 1.362 . S
H400 C406 0.930 . S
H401 C409 0.930 . S
H402 C410 0.930 . S
H403 C411 0.930 . S
H404 C414 0.930 . S
H405 C415 0.930 . S
C406 H400 0.930 . S
C406 C407 1.355 . S
C406 C408 1.415 . S
C407 C406 1.355 . S
C407 C409 1.419 . S
C408 C406 1.415 . S
C408 C413 1.425 . S
C408 C415 1.409 . S
C409 H401 0.930 . S
C409 C407 1.419 . S
C409 C410 1.362 . S
C410 H402 0.930 . S
C410 C409 1.362 . S
C410 C413 1.409 . S
C411 H403 0.930 . S
C411 C412 1.355 . S
C411 C413 1.415 . S
C412 C411 1.355 . S
C412 C414 1.419 . S
C413 C408 1.425 . S
C413 C410 1.409 . S
C413 C411 1.415 . S
C414 H404 0.930 . S
C414 C412 1.419 . S
C414 C415 1.362 . S
C415 H405 0.930 . S
C415 C408 1.409 . S
C415 C414 1.362 . S
H416 C422 0.930 . S
H417 C425 0.930 . S
H418 C426 0.930 . S
H419 C427 0.930 . S
H420 C430 0.930 . S
H421 C431 0.930 . S
C422 H416 0.930 . S
C422 C423 1.355 . S
C422 C424 1.415 . S
C423 C422 1.355 . S
C423 C425 1.419 . S
C424 C422 1.415 . S
C424 C429 1.425 . S
C424 C431 1.409 . S
C425 H417 0.930 . S
C425 C423 1.419 . S
C425 C426 1.362 . S
C426 H418 0.930 . S
C426 C425 1.362 . S
C426 C429 1.409 . S
C427 H419 0.930 . S
C427 C428 1.355 . S
C427 C429 1.415 . S
C428 C427 1.355 . S
C428 C430 1.419 . S
C429 C424 1.425 . S
C429 C426 1.409 . S
C429 C427 1.415 . S
C430 H420 0.930 . S
C430 C428 1.419 . S
C430 C431 1.362 . S
C431 H421 0.930 . S
C431 C424 1.409 . S
C431 C430 1.362 . S
H432 C438 0.930 . S
H433 C441 0.930 . S
H434 C442 0.930 . S
H435 C443 0.930 . S
H436 C446 0.930 . S
H437 C447 0.930 . S
C438 H432 0.930 . S
C438 C439 1.355 . S
C438 C440 1.415 . S
C439 C438 1.355 . S
C439 C441 1.419 . S
C440 C438 1.415 . S
C440 C445 1.425 . S
C440 C447 1.409 . S
C441 H433 0.930 . S
C441 C439 1.419 . S
C441 C442 1.362 . S
C442 H434 0.930 . S
C442 C441 1.362 . S
C442 C445 1.409 . S
C443 H435 0.930 . S
C443 C444 1.355 . S
C443 C445 1.415 . S
C444 C443 1.355 . S
C444 C446 1.419 . S
C445 C440 1.425 . S
C445 C442 1.409 . S
C445 C443 1.415 . S
C446 H436 0.930 . S
C446 C444 1.419 . S
C446 C447 1.362 . S
C447 H437 0.930 . S
C447 C440 1.409 . S
C447 C446 1.362 . S
H448 C454 0.930 . S
H449 C457 0.930 . S
H450 C458 0.930 . S
H451 C459 0.930 . S
H452 C462 0.930 . S
H453 C463 0.930 . S
C454 H448 0.930 . S
C454 C455 1.355 . S
C454 C456 1.415 . S
C455 C454 1.355 . S
C455 C457 1.419 . S
C456 C454 1.415 . S
C456 C461 1.425 . S
C456 C463 1.409 . S
C457 H449 0.930 . S
C457 C455 1.419 . S
C457 C458 1.362 . S
C458 H450 0.930 . S
C458 C457 1.362 . S
C458 C461 1.409 . S
C459 H451 0.930 . S
C459 C460 1.355 . S
C459 C461 1.415 . S
C460 C459 1.355 . S
C460 C462 1.419 . S
C461 C456 1.425 . S
C461 C458 1.409 . S
C461 C459 1.415 . S
C462 H452 0.930 . S
C462 C460 1.419 . S
C462 C463 1.362 . S
C463 H453 0.930 . S
C463 C456 1.409 . S
C463 C462 1.362 . S
H464 C470 0.930 . S
H465 C473 0.930 . S
H466 C474 0.930 . S
H467 C475 0.930 . S
H468 C478 0.930 . S
H469 C479 0.930 . S
C470 H464 0.930 . S
C470 C471 1.355 . S
C470 C472 1.415 . S
C471 C470 1.355 . S
C471 C473 1.419 . S
C472 C470 1.415 . S
C472 C477 1.425 . S
C472 C479 1.409 . S
C473 H465 0.930 . S
C473 C471 1.419 . S
C473 C474 1.362 . S
C474 H466 0.930 . S
C474 C473 1.362 . S
C474 C477 1.409 . S
C475 H467 0.930 . S
C475 C476 1.355 . S
C475 C477 1.415 . S
C476 C475 1.355 . S
C476 C478 1.419 . S
C477 C472 1.425 . S
C477 C474 1.409 . S
C477 C475 1.415 . S
C478 H468 0.930 . S
C478 C476 1.419 . S
C478 C479 1.362 . S
C479 H469 0.930 . S
C479 C472 1.409 . S
C479 C478 1.362 . S
H480 C486 0.930 . S
H481 C489 0.930 . S
H482 C490 0.930 . S
H483 C491 0.930 . S
H484 C494 0.930 . S
H485 C495 0.930 . S
C486 H480 0.930 . S
C486 C487 1.355 . S
C486 C488 1.415 . S
C487 C486 1.355 . S
C487 C489 1.419 . S
C488 C486 1.415 . S
C488 C493 1.425 . S
C488 C495 1.409 . S
C489 H481 0.930 . S
C489 C487 1.419 . S
C489 C490 1.362 . S
C490 H482 0.930 . S
C490 C489 1.362 . S
C490 C493 1.409 . S
C491 H483 0.930 . S
C491 C492 1.355 . S
C491 C493 1.415 . S
C492 C491 1.355 . S
C492 C494 1.419 . S
C493 C488 1.425 . S
C493 C490 1.409 . S
C493 C491 1.415 . S
C494 H484 0.930 . S
C494 C492 1.419 . S
C494 C495 1.362 . S
C495 H485 0.930 . S
C495 C488 1.409 . S
C495 C494 1.362 . S
H496 C502 0.930 . S
H497 C505 0.930 . S
H498 C506 0.930 . S
H499 C507 0.930 . S
H500 C510 0.930 . S
H501 C511 0.930 . S
C502 H496 0.930 . S
C502 C503 1.355 . S
C502 C504 1.415 . S
C503 C502 1.355 . S
C503 C505 1.419 1_545 S
C504 C502 1.415 . S
C504 C509 1.425 1_545 S
C504 C511 1.409 . S
C505 H497 0.930 . S
C505 C503 1.419 1_565 S
C505 C506 1.362 . S
C506 H498 0.930 . S
C506 C505 1.362 . S
C506 C509 1.409 . S
C507 H499 0.930 . S
C507 C508 1.355 . S
C507 C509 1.415 . S
C508 C507 1.355 . S
C508 C510 1.419 1_565 S
C509 C504 1.425 1_565 S
C509 C506 1.409 . S
C509 C507 1.415 . S
C510 H500 0.930 . S
C510 C508 1.419 1_545 S
C510 C511 1.362 . S
C511 H501 0.930 . S
C511 C504 1.409 . S
C511 C510 1.362 . S
H512 C518 0.930 . S
H513 C521 0.930 . S
H514 C522 0.930 . S
H515 C523 0.930 . S
H516 C526 0.930 . S
H517 C527 0.930 . S
C518 H512 0.930 . S
C518 C519 1.355 1_565 S
C518 C520 1.415 . S
C519 C518 1.355 1_545 S
C519 C521 1.419 . S
C520 C518 1.415 . S
C520 C525 1.425 1_565 S
C520 C527 1.409 . S
C521 H513 0.930 . S
C521 C519 1.419 . S
C521 C522 1.362 . S
C522 H514 0.930 . S
C522 C521 1.362 . S
C522 C525 1.409 . S
C523 H515 0.930 . S
C523 C524 1.355 1_545 S
C523 C525 1.415 . S
C524 C523 1.355 1_565 S
C524 C526 1.419 . S
C525 C520 1.425 1_545 S
C525 C522 1.409 . S
C525 C523 1.415 . S
C526 H516 0.930 . S
C526 C524 1.419 . S
C526 C527 1.362 . S
C527 H517 0.930 . S
C527 C520 1.409 . S
C527 C526 1.362 . S
H528 C534 0.930 . S
H529 C537 0.930 . S
H530 C538 0.930 . S
H531 C539 0.930 . S
H532 C542 0.930 . S
H533 C543 0.930 . S
C534 H528 0.930 . S
C534 C535 1.355 1_565 S
C534 C536 1.415 . S
C535 C534 1.355 1_545 S
C535 C537 1.419 . S
C536 C534 1.415 . S
C536 C541 1.425 1_565 S
C536 C543 1.409 . S
C537 H529 0.930 . S
C537 C535 1.419 . S
C537 C538 1.362 . S
C538 H530 0.930 . S
C538 C537 1.362 . S
C538 C541 1.409 . S
C539 H531 0.930 . S
C539 C540 1.355 1_545 S
C539 C541 1.415 . S
C540 C539 1.355 1_565 S
C540 C542 1.419 . S
C541 C536 1.425 1_545 S
C541 C538 1.409 . S
C541 C539 1.415 . S
C542 H532 0.930 . S
C542 C540 1.419 . S
C542 C543 1.362 . S
C543 H533 0.930 . S
C543 C536 1.409 . S
C543 C542 1.362 . S
H544 C550 0.930 . S
H545 C553 0.930 . S
H546 C554 0.930 . S
H547 C555 0.930 . S
H548 C558 0.930 . S
H549 C559 0.930 . S
C550 H544 0.930 . S
C550 C551 1.355 1_545 S
C550 C552 1.415 . S
C551 C550 1.355 1_565 S
C551 C553 1.419 . S
C552 C550 1.415 . S
C552 C557 1.425 1_545 S
C552 C559 1.409 . S
C553 H545 0.930 . S
C553 C551 1.419 . S
C553 C554 1.362 . S
C554 H546 0.930 . S
C554 C553 1.362 . S
C554 C557 1.409 . S
C555 H547 0.930 . S
C555 C556 1.355 1_565 S
C555 C557 1.415 . S
C556 C555 1.355 1_545 S
C556 C558 1.419 . S
C557 C552 1.425 1_565 S
C557 C554 1.409 . S
C557 C555 1.415 . S
C558 H548 0.930 . S
C558 C556 1.419 . S
C558 C559 1.362 . S
C559 H549 0.930 . S
C559 C552 1.409 . S
C559 C558 1.362 . S
H560 C566 0.930 . S
H561 C569 0.930 . S
H562 C570 0.930 . S
H563 C571 0.930 . S
H564 C574 0.930 . S
H565 C575 0.930 . S
C566 H560 0.930 . S
C566 C567 1.355 . S
C566 C568 1.415 . S
C567 C566 1.355 . S
C567 C569 1.419 . S
C568 C566 1.415 . S
C568 C573 1.425 . S
C568 C575 1.409 . S
C569 H561 0.930 . S
C569 C567 1.419 . S
C569 C570 1.362 . S
C570 H562 0.930 . S
C570 C569 1.362 . S
C570 C573 1.409 . S
C571 H563 0.930 . S
C571 C572 1.355 . S
C571 C573 1.415 . S
C572 C571 1.355 . S
C572 C574 1.419 . S
C573 C568 1.425 . S
C573 C570 1.409 . S
C573 C571 1.415 . S
C574 H564 0.930 . S
C574 C572 1.419 . S
C574 C575 1.362 . S
C575 H565 0.930 . S
C575 C568 1.409 . S
C575 C574 1.362 . S
H576 C582 0.930 . S
H577 C585 0.930 . S
H578 C586 0.930 . S
H579 C587 0.930 . S
H580 C590 0.930 . S
H581 C591 0.930 . S
C582 H576 0.930 . S
C582 C583 1.355 . S
C582 C584 1.415 . S
C583 C582 1.355 . S
C583 C585 1.419 . S
C584 C582 1.415 . S
C584 C589 1.425 . S
C584 C591 1.409 . S
C585 H577 0.930 . S
C585 C583 1.419 . S
C585 C586 1.362 . S
C586 H578 0.930 . S
C586 C585 1.362 . S
C586 C589 1.409 . S
C587 H579 0.930 . S
C587 C588 1.355 . S
C587 C589 1.415 . S
C588 C587 1.355 . S
C588 C590 1.419 . S
C589 C584 1.425 . S
C589 C586 1.409 . S
C589 C587 1.415 . S
C590 H580 0.930 . S
C590 C588 1.419 . S
C590 C591 1.362 . S
C591 H581 0.930 . S
C591 C584 1.409 . S
C591 C590 1.362 . S
H592 C598 0.930 . S
H593 C601 0.930 . S
H594 C602 0.930 . S
H595 C603 0.930 . S
H596 C606 0.930 . S
H597 C607 0.930 . S
C598 H592 0.930 . S
C598 C599 1.355 . S
C598 C600 1.415 . S
C599 C598 1.355 . S
C599 C601 1.419 . S
C600 C598 1.415 . S
C600 C605 1.425 . S
C600 C607 1.409 . S
C601 H593 0.930 . S
C601 C599 1.419 . S
C601 C602 1.362 . S
C602 H594 0.930 . S
C602 C601 1.362 . S
C602 C605 1.409 . S
C603 H595 0.930 . S
C603 C604 1.355 . S
C603 C605 1.415 . S
C604 C603 1.355 . S
C604 C606 1.419 . S
C605 C600 1.425 . S
C605 C602 1.409 . S
C605 C603 1.415 . S
C606 H596 0.930 . S
C606 C604 1.419 . S
C606 C607 1.362 . S
C607 H597 0.930 . S
C607 C600 1.409 . S
C607 C606 1.362 . S
H608 C614 0.930 . S
H609 C617 0.930 . S
H610 C618 0.930 . S
H611 C619 0.930 . S
H612 C622 0.930 . S
H613 C623 0.930 . S
C614 H608 0.930 . S
C614 C615 1.355 . S
C614 C616 1.415 . S
C615 C614 1.355 . S
C615 C617 1.419 . S
C616 C614 1.415 . S
C616 C621 1.425 . S
C616 C623 1.409 . S
C617 H609 0.930 . S
C617 C615 1.419 . S
C617 C618 1.362 . S
C618 H610 0.930 . S
C618 C617 1.362 . S
C618 C621 1.409 . S
C619 H611 0.930 . S
C619 C620 1.355 . S
C619 C621 1.415 . S
C620 C619 1.355 . S
C620 C622 1.419 . S
C621 C616 1.425 . S
C621 C618 1.409 . S
C621 C619 1.415 . S
C622 H612 0.930 . S
C622 C620 1.419 . S
C622 C623 1.362 . S
C623 H613 0.930 . S
C623 C616 1.409 . S
C623 C622 1.362 . S
H624 C630 0.930 . S
H625 C633 0.930 . S
H626 C634 0.930 . S
H627 C635 0.930 . S
H628 C638 0.930 . S
H629 C639 0.930 . S
C630 H624 0.930 . S
C630 C631 1.355 1_565 S
C630 C632 1.415 . S
C631 C630 1.355 1_545 S
C631 C633 1.419 . S
C632 C630 1.415 . S
C632 C637 1.425 1_566 S
C632 C639 1.409 1_556 S
C633 H625 0.930 . S
C633 C631 1.419 . S
C633 C634 1.362 . S
C634 H626 0.930 . S
C634 C633 1.362 . S
C634 C637 1.409 1_556 S
C635 H627 0.930 . S
C635 C636 1.355 . S
C635 C637 1.415 . S
C636 C635 1.355 . S
C636 C638 1.419 1_545 S
C637 C632 1.425 1_544 S
C637 C634 1.409 1_554 S
C637 C635 1.415 . S
C638 H628 0.930 . S
C638 C636 1.419 1_565 S
C638 C639 1.362 . S
C639 H629 0.930 . S
C639 C632 1.409 1_554 S
C639 C638 1.362 . S
H640 C646 0.930 . S
H641 C649 0.930 . S
H642 C650 0.930 . S
H643 C651 0.930 . S
H644 C654 0.930 . S
H645 C655 0.930 . S
C646 H640 0.930 . S
C646 C647 1.355 . S
C646 C648 1.415 . S
C647 C646 1.355 . S
C647 C649 1.419 1_565 S
C648 C646 1.415 . S
C648 C653 1.425 1_566 S
C648 C655 1.409 1_556 S
C649 H641 0.930 . S
C649 C647 1.419 1_545 S
C649 C650 1.362 . S
C650 H642 0.930 . S
C650 C649 1.362 . S
C650 C653 1.409 1_556 S
C651 H643 0.930 . S
C651 C652 1.355 1_545 S
C651 C653 1.415 . S
C652 C651 1.355 1_565 S
C652 C654 1.419 . S
C653 C648 1.425 1_544 S
C653 C650 1.409 1_554 S
C653 C651 1.415 . S
C654 H644 0.930 . S
C654 C652 1.419 . S
C654 C655 1.362 . S
C655 H645 0.930 . S
C655 C648 1.409 1_554 S
C655 C654 1.362 . S
H656 C662 0.930 . S
H657 C665 0.930 . S
H658 C666 0.930 . S
H659 C667 0.930 . S
H660 C670 0.930 . S
H661 C671 0.930 . S
C662 H656 0.930 . S
C662 C663 1.355 1_545 S
C662 C664 1.415 . S
C663 C662 1.355 1_565 S
C663 C665 1.419 . S
C664 C662 1.415 . S
C664 C669 1.425 1_545 S
C664 C671 1.409 . S
C665 H657 0.930 . S
C665 C663 1.419 . S
C665 C666 1.362 . S
C666 H658 0.930 . S
C666 C665 1.362 . S
C666 C669 1.409 . S
C667 H659 0.930 . S
C667 C668 1.361 . S
C667 C669 1.415 . S
C668 C667 1.361 . S
C668 C670 1.412 1_565 S
C669 C664 1.425 1_565 S
C669 C666 1.409 . S
C669 C667 1.415 . S
C670 H660 0.930 . S
C670 C668 1.412 1_545 S
C670 C671 1.362 . S
C671 H661 0.930 . S
C671 C664 1.409 . S
C671 C670 1.362 . S
H672 C678 0.930 . S
H673 C681 0.930 . S
H674 C682 0.930 . S
H675 C683 0.930 . S
H676 C686 0.930 . S
H677 C687 0.930 . S
C678 H672 0.930 . S
C678 C679 1.355 1_565 S
C678 C680 1.415 . S
C679 C678 1.355 1_545 S
C679 C681 1.419 . S
C680 C678 1.415 . S
C680 C685 1.425 1_565 S
C680 C687 1.409 . S
C681 H673 0.930 . S
C681 C679 1.419 . S
C681 C682 1.362 . S
C682 H674 0.930 . S
C682 C681 1.362 . S
C682 C685 1.409 . S
C683 H675 0.930 . S
C683 C684 1.355 . S
C683 C685 1.415 . S
C684 C683 1.355 . S
C684 C686 1.419 1_545 S
C685 C680 1.425 1_545 S
C685 C682 1.409 . S
C685 C683 1.415 . S
C686 H676 0.930 . S
C686 C684 1.419 1_565 S
C686 C687 1.362 . S
C687 H677 0.930 . S
C687 C680 1.409 . S
C687 C686 1.362 . S
H688 C694 0.930 . S
H689 C697 0.930 . S
H690 C698 0.930 . S
H691 C699 0.930 . S
H692 C702 0.930 . S
H693 C703 0.930 . S
C694 H688 0.930 . S
C694 C695 1.355 . S
C694 C696 1.415 . S
C695 C694 1.355 . S
C695 C697 1.419 . S
C696 C694 1.415 . S
C696 C701 1.425 1_554 S
C696 C703 1.409 1_554 S
C697 H689 0.930 . S
C697 C695 1.419 . S
C697 C698 1.362 . S
C698 H690 0.930 . S
C698 C697 1.362 . S
C698 C701 1.409 1_554 S
C699 H691 0.930 . S
C699 C700 1.355 . S
C699 C701 1.415 . S
C700 C699 1.355 . S
C700 C702 1.419 . S
C701 C696 1.425 1_556 S
C701 C698 1.409 1_556 S
C701 C699 1.415 . S
C702 H692 0.930 . S
C702 C700 1.419 . S
C702 C703 1.362 . S
C703 H693 0.930 . S
C703 C696 1.409 1_556 S
C703 C702 1.362 . S
H704 C710 0.930 . S
H705 C713 0.930 . S
H706 C714 0.930 . S
H707 C715 0.930 . S
H708 C718 0.930 . S
H709 C719 0.930 . S
C710 H704 0.930 . S
C710 C711 1.355 . S
C710 C712 1.415 . S
C711 C710 1.355 . S
C711 C713 1.419 . S
C712 C710 1.415 . S
C712 C717 1.425 1_556 S
C712 C719 1.409 1_556 S
C713 H705 0.930 . S
C713 C711 1.419 . S
C713 C714 1.362 . S
C714 H706 0.930 . S
C714 C713 1.362 . S
C714 C717 1.409 1_556 S
C715 H707 0.930 . S
C715 C716 1.355 . S
C715 C717 1.415 . S
C716 C715 1.355 . S
C716 C718 1.419 . S
C717 C712 1.425 1_554 S
C717 C714 1.409 1_554 S
C717 C715 1.415 . S
C718 H708 0.930 . S
C718 C716 1.419 . S
C718 C719 1.362 . S
C719 H709 0.930 . S
C719 C712 1.409 1_554 S
C719 C718 1.362 . S
H720 C726 0.930 . S
H721 C729 0.930 . S
H722 C730 0.930 . S
H723 C731 0.930 . S
H724 C734 0.930 . S
H725 C735 0.930 . S
C726 H720 0.930 . S
C726 C727 1.355 . S
C726 C728 1.415 . S
C727 C726 1.355 . S
C727 C729 1.419 . S
C728 C726 1.415 . S
C728 C733 1.425 . S
C728 C735 1.409 . S
C729 H721 0.930 . S
C729 C727 1.419 . S
C729 C730 1.362 . S
C730 H722 0.930 . S
C730 C729 1.362 . S
C730 C733 1.409 . S
C731 H723 0.930 . S
C731 C732 1.355 . S
C731 C733 1.415 . S
C732 C731 1.355 . S
C732 C734 1.419 . S
C733 C728 1.425 . S
C733 C730 1.409 . S
C733 C731 1.415 . S
C734 H724 0.930 . S
C734 C732 1.419 . S
C734 C735 1.362 . S
C735 H725 0.930 . S
C735 C728 1.409 . S
C735 C734 1.362 . S
H736 C742 0.930 . S
H737 C745 0.930 . S
H738 C746 0.930 . S
H739 C747 0.930 . S
H740 C750 0.930 . S
H741 C751 0.930 . S
C742 H736 0.930 . S
C742 C743 1.355 . S
C742 C744 1.415 . S
C743 C742 1.355 . S
C743 C745 1.419 . S
C744 C742 1.415 . S
C744 C749 1.425 . S
C744 C751 1.409 . S
C745 H737 0.930 . S
C745 C743 1.419 . S
C745 C746 1.362 . S
C746 H738 0.930 . S
C746 C745 1.362 . S
C746 C749 1.409 . S
C747 H739 0.930 . S
C747 C748 1.355 . S
C747 C749 1.415 . S
C748 C747 1.355 . S
C748 C750 1.419 . S
C749 C744 1.425 . S
C749 C746 1.409 . S
C749 C747 1.415 . S
C750 H740 0.930 . S
C750 C748 1.419 . S
C750 C751 1.362 . S
C751 H741 0.930 . S
C751 C744 1.409 . S
C751 C750 1.362 . S
H752 C758 0.930 . S
H753 C761 0.930 . S
H754 C762 0.930 . S
H755 C763 0.930 . S
H756 C766 0.930 . S
H757 C767 0.930 . S
C758 H752 0.930 . S
C758 C759 1.355 . S
C758 C760 1.415 . S
C759 C758 1.355 . S
C759 C761 1.419 . S
C760 C758 1.415 . S
C760 C765 1.425 1_665 S
C760 C767 1.409 1_655 S
C761 H753 0.930 . S
C761 C759 1.419 . S
C761 C762 1.362 1_565 S
C762 H754 0.930 . S
C762 C761 1.362 1_545 S
C762 C765 1.409 1_655 S
C763 H755 0.930 . S
C763 C764 1.355 . S
C763 C765 1.415 . S
C764 C763 1.355 . S
C764 C766 1.419 . S
C765 C760 1.425 1_445 S
C765 C762 1.409 1_455 S
C765 C763 1.415 . S
C766 H756 0.930 . S
C766 C764 1.419 . S
C766 C767 1.362 1_545 S
C767 H757 0.930 . S
C767 C760 1.409 1_455 S
C767 C766 1.362 1_565 S
H768 C774 0.930 . S
H769 C777 0.930 . S
H770 C778 0.930 1_455 S
H771 C779 0.930 . S
H772 C782 0.930 . S
H773 C783 0.930 1_655 S
C774 H768 0.930 . S
C774 C775 1.355 1_565 S
C774 C776 1.415 . S
C775 C774 1.355 1_545 S
C775 C777 1.419 . S
C776 C774 1.415 . S
C776 C781 1.425 1_665 S
C776 C783 1.409 1_655 S
C777 H769 0.930 . S
C777 C775 1.419 . S
C777 C778 1.362 . S
C778 H770 0.930 1_655 S
C778 C777 1.362 . S
C778 C781 1.409 1_655 S
C779 H771 0.930 . S
C779 C780 1.355 1_545 S
C779 C781 1.415 . S
C780 C779 1.355 1_565 S
C780 C782 1.419 . S
C781 C776 1.425 1_445 S
C781 C778 1.409 1_455 S
C781 C779 1.415 . S
C782 H772 0.930 . S
C782 C780 1.419 . S
C782 C783 1.362 . S
C783 H773 0.930 1_455 S
C783 C776 1.409 1_455 S
C783 C782 1.362 . S
H784 C790 0.930 . S
H785 C793 0.930 . S
H786 C794 0.930 . S
H787 C795 0.930 . S
H788 C798 0.930 . S
H789 C799 0.930 . S
C790 H784 0.930 . S
C790 C791 1.355 . S
C790 C792 1.415 . S
C791 C790 1.355 . S
C791 C793 1.419 1_545 S
C792 C790 1.415 . S
C792 C797 1.425 1_445 S
C792 C799 1.409 1_455 S
C793 H785 0.930 . S
C793 C791 1.419 1_565 S
C793 C794 1.362 . S
C794 H786 0.930 . S
C794 C793 1.362 . S
C794 C797 1.409 1_455 S
C795 H787 0.930 . S
C795 C796 1.355 . S
C795 C797 1.415 . S
C796 C795 1.355 . S
C796 C798 1.419 1_565 S
C797 C792 1.425 1_665 S
C797 C794 1.409 1_655 S
C797 C795 1.415 . S
C798 H788 0.930 . S
C798 C796 1.419 1_545 S
C798 C799 1.362 . S
C799 H789 0.930 . S
C799 C792 1.409 1_655 S
C799 C798 1.362 . S
H800 C806 0.930 . S
H801 C809 0.930 . S
H802 C810 0.930 . S
H803 C811 0.930 . S
H804 C814 0.930 . S
H805 C815 0.930 . S
C806 H800 0.930 . S
C806 C807 1.355 . S
C806 C808 1.415 . S
C807 C806 1.355 . S
C807 C809 1.419 1_545 S
C808 C806 1.415 . S
C808 C813 1.425 1_645 S
C808 C815 1.409 1_655 S
C809 H801 0.930 . S
C809 C807 1.419 1_565 S
C809 C810 1.362 . S
C810 H802 0.930 . S
C810 C809 1.362 . S
C810 C813 1.409 1_655 S
C811 H803 0.930 . S
C811 C812 1.355 . S
C811 C813 1.415 . S
C812 C811 1.355 . S
C812 C814 1.419 1_565 S
C813 C808 1.425 1_465 S
C813 C810 1.409 1_455 S
C813 C811 1.415 . S
C814 H804 0.930 . S
C814 C812 1.419 1_545 S
C814 C815 1.362 . S
C815 H805 0.930 . S
C815 C808 1.409 1_455 S
C815 C814 1.362 . S
H816 C822 0.930 . S
H817 C825 0.930 . S
H818 C826 0.930 . S
H819 C827 0.930 . S
H820 C830 0.930 . S
H821 C831 0.930 . S
C822 H816 0.930 . S
C822 C823 1.355 . S
C822 C824 1.415 . S
C823 C822 1.355 . S
C823 C825 1.419 . S
C824 C822 1.415 . S
C824 C829 1.425 . S
C824 C831 1.409 . S
C825 H817 0.930 . S
C825 C823 1.419 . S
C825 C826 1.362 . S
C826 H818 0.930 . S
C826 C825 1.362 . S
C826 C829 1.409 . S
C827 H819 0.930 . S
C827 C828 1.355 . S
C827 C829 1.415 . S
C828 C827 1.355 . S
C828 C830 1.419 . S
C829 C824 1.425 . S
C829 C826 1.409 . S
C829 C827 1.415 . S
C830 H820 0.930 . S
C830 C828 1.419 . S
C830 C831 1.362 . S
C831 H821 0.930 . S
C831 C824 1.409 . S
C831 C830 1.362 . S
H832 C838 0.930 . S
H833 C841 0.930 . S
H834 C842 0.930 . S
H835 C843 0.930 . S
H836 C846 0.930 . S
H837 C847 0.930 . S
C838 H832 0.930 . S
C838 C839 1.355 . S
C838 C840 1.415 . S
C839 C838 1.355 . S
C839 C841 1.419 . S
C840 C838 1.415 . S
C840 C845 1.425 . S
C840 C847 1.409 . S
C841 H833 0.930 . S
C841 C839 1.419 . S
C841 C842 1.362 . S
C842 H834 0.930 . S
C842 C841 1.362 . S
C842 C845 1.409 . S
C843 H835 0.930 . S
C843 C844 1.355 . S
C843 C845 1.415 . S
C844 C843 1.355 . S
C844 C846 1.419 . S
C845 C840 1.425 . S
C845 C842 1.409 . S
C845 C843 1.415 . S
C846 H836 0.930 . S
C846 C844 1.419 . S
C846 C847 1.362 . S
C847 H837 0.930 . S
C847 C840 1.409 . S
C847 C846 1.362 . S
H848 C854 0.930 . S
H849 C857 0.930 . S
H850 C858 0.930 . S
H851 C859 0.930 . S
H852 C862 0.930 . S
H853 C863 0.930 . S
C854 H848 0.930 . S
C854 C855 1.355 . S
C854 C856 1.415 . S
C855 C854 1.355 . S
C855 C857 1.419 . S
C856 C854 1.415 . S
C856 C861 1.425 . S
C856 C863 1.409 . S
C857 H849 0.930 . S
C857 C855 1.419 . S
C857 C858 1.362 . S
C858 H850 0.930 . S
C858 C857 1.362 . S
C858 C861 1.409 . S
C859 H851 0.930 . S
C859 C860 1.355 . S
C859 C861 1.415 . S
C860 C859 1.355 . S
C860 C862 1.419 . S
C861 C856 1.425 . S
C861 C858 1.409 . S
C861 C859 1.415 . S
C862 H852 0.930 . S
C862 C860 1.419 . S
C862 C863 1.362 . S
C863 H853 0.930 . S
C863 C856 1.409 . S
C863 C862 1.362 . S
H864 C870 0.930 . S
H865 C873 0.930 . S
H866 C874 0.930 . S
H867 C875 0.930 . S
H868 C878 0.930 . S
H869 C879 0.930 . S
C870 H864 0.930 . S
C870 C871 1.355 . S
C870 C872 1.415 . S
C871 C870 1.355 . S
C871 C873 1.419 . S
C872 C870 1.415 . S
C872 C877 1.425 . S
C872 C879 1.409 . S
C873 H865 0.930 . S
C873 C871 1.419 . S
C873 C874 1.362 . S
C874 H866 0.930 . S
C874 C873 1.362 . S
C874 C877 1.409 . S
C875 H867 0.930 . S
C875 C876 1.355 . S
C875 C877 1.415 . S
C876 C875 1.355 . S
C876 C878 1.419 . S
C877 C872 1.425 . S
C877 C874 1.409 . S
C877 C875 1.415 . S
C878 H868 0.930 . S
C878 C876 1.419 . S
C878 C879 1.362 . S
C879 H869 0.930 . S
C879 C872 1.409 . S
C879 C878 1.362 . S
H880 C886 0.930 . S
H881 C889 0.930 . S
H882 C890 0.930 . S
H883 C891 0.930 . S
H884 C894 0.930 . S
H885 C895 0.930 . S
C886 H880 0.930 . S
C886 C887 1.355 . S
C886 C888 1.415 . S
C887 C886 1.355 . S
C887 C889 1.419 . S
C888 C886 1.415 . S
C888 C893 1.425 . S
C888 C895 1.409 . S
C889 H881 0.930 . S
C889 C887 1.419 . S
C889 C890 1.362 . S
C890 H882 0.930 . S
C890 C889 1.362 . S
C890 C893 1.409 . S
C891 H883 0.930 . S
C891 C892 1.355 . S
C891 C893 1.415 . S
C892 C891 1.355 . S
C892 C894 1.419 . S
C893 C888 1.425 . S
C893 C890 1.409 . S
C893 C891 1.415 . S
C894 H884 0.930 . S
C894 C892 1.419 . S
C894 C895 1.362 . S
C895 H885 0.930 . S
C895 C888 1.409 . S
C895 C894 1.362 . S
H896 C902 0.930 . S
H897 C905 0.930 . S
H898 C906 0.930 . S
H899 C907 0.930 . S
H900 C910 0.930 . S
H901 C911 0.930 . S
C902 H896 0.930 . S
C902 C903 1.355 . S
C902 C904 1.415 . S
C903 C902 1.355 . S
C903 C905 1.419 . S
C904 C902 1.415 . S
C904 C909 1.425 . S
C904 C911 1.409 . S
C905 H897 0.930 . S
C905 C903 1.419 . S
C905 C906 1.362 . S
C906 H898 0.930 . S
C906 C905 1.362 . S
C906 C909 1.409 . S
C907 H899 0.930 . S
C907 C908 1.355 . S
C907 C909 1.415 . S
C908 C907 1.355 . S
C908 C910 1.419 . S
C909 C904 1.425 . S
C909 C906 1.409 . S
C909 C907 1.415 . S
C910 H900 0.930 . S
C910 C908 1.419 . S
C910 C911 1.362 . S
C911 H901 0.930 . S
C911 C904 1.409 . S
C911 C910 1.362 . S
H912 C918 0.930 . S
H913 C921 0.930 . S
H914 C922 0.930 . S
H915 C923 0.930 . S
H916 C926 0.930 . S
H917 C927 0.930 . S
C918 H912 0.930 . S
C918 C919 1.355 . S
C918 C920 1.415 . S
C919 C918 1.355 . S
C919 C921 1.419 . S
C920 C918 1.415 . S
C920 C925 1.425 . S
C920 C927 1.409 . S
C921 H913 0.930 . S
C921 C919 1.419 . S
C921 C922 1.362 . S
C922 H914 0.930 . S
C922 C921 1.362 . S
C922 C925 1.409 . S
C923 H915 0.930 . S
C923 C924 1.355 . S
C923 C925 1.415 . S
C924 C923 1.355 . S
C924 C926 1.419 . S
C925 C920 1.425 . S
C925 C922 1.409 . S
C925 C923 1.415 . S
C926 H916 0.930 . S
C926 C924 1.419 . S
C926 C927 1.362 . S
C927 H917 0.930 . S
C927 C920 1.409 . S
C927 C926 1.362 . S
H928 C934 0.930 . S
H929 C937 0.930 . S
H930 C938 0.930 . S
H931 C939 0.930 . S
H932 C942 0.930 . S
H933 C943 0.930 . S
C934 H928 0.930 . S
C934 C935 1.355 . S
C934 C936 1.415 . S
C935 C934 1.355 . S
C935 C937 1.419 . S
C936 C934 1.415 . S
C936 C941 1.425 . S
C936 C943 1.409 . S
C937 H929 0.930 . S
C937 C935 1.419 . S
C937 C938 1.362 . S
C938 H930 0.930 . S
C938 C937 1.362 . S
C938 C941 1.409 . S
C939 H931 0.930 . S
C939 C940 1.355 . S
C939 C941 1.415 . S
C940 C939 1.355 . S
C940 C942 1.419 . S
C941 C936 1.425 . S
C941 C938 1.409 . S
C941 C939 1.415 . S
C942 H932 0.930 . S
C942 C940 1.419 . S
C942 C943 1.362 . S
C943 H933 0.930 . S
C943 C936 1.409 . S
C943 C942 1.362 . S
H944 C950 0.930 . S
H945 C953 0.930 . S
H946 C954 0.930 . S
H947 C955 0.930 . S
H948 C958 0.930 . S
H949 C959 0.930 . S
C950 H944 0.930 . S
C950 C951 1.355 . S
C950 C952 1.415 . S
C951 C950 1.355 . S
C951 C953 1.419 . S
C952 C950 1.415 . S
C952 C957 1.425 . S
C952 C959 1.409 . S
C953 H945 0.930 . S
C953 C951 1.419 . S
C953 C954 1.362 . S
C954 H946 0.930 . S
C954 C953 1.362 . S
C954 C957 1.409 . S
C955 H947 0.930 . S
C955 C956 1.355 . S
C955 C957 1.415 . S
C956 C955 1.355 . S
C956 C958 1.419 . S
C957 C952 1.425 . S
C957 C954 1.409 . S
C957 C955 1.415 . S
C958 H948 0.930 . S
C958 C956 1.419 . S
C958 C959 1.362 . S
C959 H949 0.930 . S
C959 C952 1.409 . S
C959 C958 1.362 . S
H960 C966 0.930 . S
H961 C969 0.930 . S
H962 C970 0.930 . S
H963 C971 0.930 . S
H964 C974 0.930 . S
H965 C975 0.930 . S
C966 H960 0.930 . S
C966 C967 1.355 . S
C966 C968 1.415 . S
C967 C966 1.355 . S
C967 C969 1.419 . S
C968 C966 1.415 . S
C968 C973 1.425 . S
C968 C975 1.409 . S
C969 H961 0.930 . S
C969 C967 1.419 . S
C969 C970 1.362 . S
C970 H962 0.930 . S
C970 C969 1.362 . S
C970 C973 1.409 . S
C971 H963 0.930 . S
C971 C972 1.355 . S
C971 C973 1.415 . S
C972 C971 1.355 . S
C972 C974 1.419 . S
C973 C968 1.425 . S
C973 C970 1.409 . S
C973 C971 1.415 . S
C974 H964 0.930 . S
C974 C972 1.419 . S
C974 C975 1.362 . S
C975 H965 0.930 . S
C975 C968 1.409 . S
C975 C974 1.362 . S
H976 C982 0.930 . S
H977 C985 0.930 . S
H978 C986 0.930 . S
H979 C987 0.930 . S
H980 C990 0.930 . S
H981 C991 0.930 . S
C982 H976 0.930 . S
C982 C983 1.355 . S
C982 C984 1.415 . S
C983 C982 1.355 . S
C983 C985 1.419 . S
C984 C982 1.415 . S
C984 C989 1.425 . S
C984 C991 1.409 . S
C985 H977 0.930 . S
C985 C983 1.419 . S
C985 C986 1.362 . S
C986 H978 0.930 . S
C986 C985 1.362 . S
C986 C989 1.409 . S
C987 H979 0.930 . S
C987 C988 1.355 . S
C987 C989 1.415 . S
C988 C987 1.355 . S
C988 C990 1.419 . S
C989 C984 1.425 . S
C989 C986 1.409 . S
C989 C987 1.415 . S
C990 H980 0.930 . S
C990 C988 1.419 . S
C990 C991 1.362 . S
C991 H981 0.930 . S
C991 C984 1.409 . S
C991 C990 1.362 . S
H992 C998 0.930 . S
H993 C1001 0.930 . S
H994 C1002 0.930 . S
H995 C1003 0.930 . S
H996 C1006 0.930 . S
H997 C1007 0.930 . S
C998 H992 0.930 . S
C998 C999 1.355 . S
C998 C1000 1.415 . S
C999 C998 1.355 . S
C999 C1001 1.419 . S
C1000 C998 1.415 . S
C1000 C1005 1.425 . S
C1000 C1007 1.409 . S
C1001 H993 0.930 . S
C1001 C999 1.419 . S
C1001 C1002 1.362 . S
C1002 H994 0.930 . S
C1002 C1001 1.362 . S
C1002 C1005 1.409 . S
C1003 H995 0.930 . S
C1003 C1004 1.355 . S
C1003 C1005 1.415 . S
C1004 C1003 1.355 . S
C1004 C1006 1.419 . S
C1005 C1000 1.425 . S
C1005 C1002 1.409 . S
C1005 C1003 1.415 . S
C1006 H996 0.930 . S
C1006 C1004 1.419 . S
C1006 C1007 1.362 . S
C1007 H997 0.930 . S
C1007 C1000 1.409 . S
C1007 C1006 1.362 . S
H1008 C1014 0.930 . S
H1009 C1017 0.930 . S
H1010 C1018 0.930 1_545 S
H1011 C1019 0.930 . S
H1012 C1022 0.930 . S
H1013 C1023 0.930 . S
C1014 H1008 0.930 . S
C1014 C1015 1.355 . S
C1014 C1016 1.415 1_565 S
C1015 C1014 1.355 . S
C1015 C1017 1.419 . S
C1016 C1014 1.415 1_545 S
C1016 C1021 1.425 . S
C1016 C1023 1.409 . S
C1017 H1009 0.930 . S
C1017 C1015 1.419 . S
C1017 C1018 1.362 . S
C1018 H1010 0.930 1_565 S
C1018 C1017 1.362 . S
C1018 C1021 1.409 1_565 S
C1019 H1011 0.930 . S
C1019 C1020 1.355 . S
C1019 C1021 1.415 . S
C1020 C1019 1.355 . S
C1020 C1022 1.419 . S
C1021 C1016 1.425 . S
C1021 C1018 1.409 1_545 S
C1021 C1019 1.415 . S
C1022 H1012 0.930 . S
C1022 C1020 1.419 . S
C1022 C1023 1.362 . S
C1023 H1013 0.930 . S
C1023 C1016 1.409 . S
C1023 C1022 1.362 . S
H1024 C1030 0.930 . S
H1025 C1033 0.930 . S
H1026 C1034 0.930 . S
H1027 C1035 0.930 . S
H1028 C1038 0.930 . S
H1029 C1039 0.930 . S
C1030 H1024 0.930 . S
C1030 C1031 1.355 . S
C1030 C1032 1.415 . S
C1031 C1030 1.355 . S
C1031 C1033 1.419 . S
C1032 C1030 1.415 . S
C1032 C1037 1.425 . S
C1032 C1039 1.409 . S
C1033 H1025 0.930 . S
C1033 C1031 1.419 . S
C1033 C1034 1.362 . S
C1034 H1026 0.930 . S
C1034 C1033 1.362 . S
C1034 C1037 1.409 . S
C1035 H1027 0.930 . S
C1035 C1036 1.355 . S
C1035 C1037 1.415 1_545 S
C1036 C1035 1.355 . S
C1036 C1038 1.419 . S
C1037 C1032 1.425 . S
C1037 C1034 1.409 . S
C1037 C1035 1.415 1_565 S
C1038 H1028 0.930 . S
C1038 C1036 1.419 . S
C1038 C1039 1.362 1_545 S
C1039 H1029 0.930 . S
C1039 C1032 1.409 . S
C1039 C1038 1.362 1_565 S
H1040 C1046 0.930 . S
H1041 C1049 0.930 . S
H1042 C1050 0.932 . S
H1043 C1051 0.930 . S
H1044 C1054 0.930 . S
H1045 C1055 0.930 . S
C1046 H1040 0.930 . S
C1046 C1047 1.355 . S
C1046 C1048 1.415 1_545 S
C1047 C1046 1.355 . S
C1047 C1049 1.419 . S
C1048 C1046 1.415 1_565 S
C1048 C1053 1.425 . S
C1048 C1055 1.409 . S
C1049 H1041 0.930 . S
C1049 C1047 1.419 . S
C1049 C1050 1.362 . S
C1050 H1042 0.932 . S
C1050 C1049 1.362 . S
C1050 C1053 1.409 1_545 S
C1051 H1043 0.930 . S
C1051 C1052 1.355 . S
C1051 C1053 1.415 . S
C1052 C1051 1.355 . S
C1052 C1054 1.419 . S
C1053 C1048 1.425 . S
C1053 C1050 1.409 1_565 S
C1053 C1051 1.415 . S
C1054 H1044 0.930 . S
C1054 C1052 1.419 . S
C1054 C1055 1.362 . S
C1055 H1045 0.930 . S
C1055 C1048 1.409 . S
C1055 C1054 1.362 . S
H1056 C1062 0.930 . S
H1057 C1065 0.930 . S
H1058 C1066 0.930 1_545 S
H1059 C1067 0.930 . S
H1060 C1070 0.930 . S
H1061 C1071 0.930 . S
C1062 H1056 0.930 . S
C1062 C1063 1.355 . S
C1062 C1064 1.415 1_565 S
C1063 C1062 1.355 . S
C1063 C1065 1.419 . S
C1064 C1062 1.415 1_545 S
C1064 C1069 1.425 . S
C1064 C1071 1.409 . S
C1065 H1057 0.930 . S
C1065 C1063 1.419 . S
C1065 C1066 1.362 . S
C1066 H1058 0.930 1_565 S
C1066 C1065 1.362 . S
C1066 C1069 1.409 1_565 S
C1067 H1059 0.930 . S
C1067 C1068 1.355 . S
C1067 C1069 1.415 . S
C1068 C1067 1.355 . S
C1068 C1070 1.419 . S
C1069 C1064 1.425 . S
C1069 C1066 1.409 1_545 S
C1069 C1067 1.415 . S
C1070 H1060 0.930 . S
C1070 C1068 1.419 . S
C1070 C1071 1.362 . S
C1071 H1061 0.930 . S
C1071 C1064 1.409 . S
C1071 C1070 1.362 . S
H1072 C1078 0.930 . S
H1073 C1081 0.930 . S
H1074 C1082 0.930 . S
H1075 C1083 0.930 . S
H1076 C1086 0.930 . S
H1077 C1087 0.930 . S
C1078 H1072 0.930 . S
C1078 C1079 1.355 . S
C1078 C1080 1.415 . S
C1079 C1078 1.355 . S
C1079 C1081 1.419 . S
C1080 C1078 1.415 . S
C1080 C1085 1.425 . S
C1080 C1087 1.409 1_565 S
C1081 H1073 0.930 . S
C1081 C1079 1.419 . S
C1081 C1082 1.362 . S
C1082 H1074 0.930 . S
C1082 C1081 1.362 . S
C1082 C1085 1.409 . S
C1083 H1075 0.930 . S
C1083 C1084 1.355 . S
C1083 C1085 1.415 1_545 S
C1084 C1083 1.355 . S
C1084 C1086 1.419 . S
C1085 C1080 1.425 . S
C1085 C1082 1.409 . S
C1085 C1083 1.415 1_565 S
C1086 H1076 0.930 . S
C1086 C1084 1.419 . S
C1086 C1087 1.362 . S
C1087 H1077 0.930 . S
C1087 C1080 1.409 1_545 S
C1087 C1086 1.362 . S
H1088 C1094 0.930 . S
H1089 C1097 0.930 . S
H1090 C1098 0.930 . S
H1091 C1099 0.930 . S
H1092 C1102 0.930 . S
H1093 C1103 0.930 1_545 S
C1094 H1088 0.930 . S
C1094 C1095 1.355 . S
C1094 C1096 1.415 . S
C1095 C1094 1.355 . S
C1095 C1097 1.419 . S
C1096 C1094 1.415 . S
C1096 C1101 1.425 . S
C1096 C1103 1.409 1_545 S
C1097 H1089 0.930 . S
C1097 C1095 1.419 . S
C1097 C1098 1.362 . S
C1098 H1090 0.930 . S
C1098 C1097 1.362 . S
C1098 C1101 1.409 . S
C1099 H1091 0.930 . S
C1099 C1100 1.355 . S
C1099 C1101 1.415 1_565 S
C1100 C1099 1.355 . S
C1100 C1102 1.419 . S
C1101 C1096 1.425 . S
C1101 C1098 1.409 . S
C1101 C1099 1.415 1_545 S
C1102 H1092 0.930 . S
C1102 C1100 1.419 . S
C1102 C1103 1.362 . S
C1103 H1093 0.930 1_565 S
C1103 C1096 1.409 1_565 S
C1103 C1102 1.362 . S
H1104 C1110 0.930 . S
H1105 C1113 0.930 . S
H1106 C1114 0.930 . S
H1107 C1115 0.930 . S
H1108 C1118 0.930 . S
H1109 C1119 0.930 . S
C1110 H1104 0.930 . S
C1110 C1111 1.355 . S
C1110 C1112 1.415 1_565 S
C1111 C1110 1.355 . S
C1111 C1113 1.419 . S
C1112 C1110 1.415 1_545 S
C1112 C1117 1.425 . S
C1112 C1119 1.409 . S
C1113 H1105 0.930 . S
C1113 C1111 1.419 . S
C1113 C1114 1.362 1_565 S
C1114 H1106 0.930 . S
C1114 C1113 1.362 1_545 S
C1114 C1117 1.409 . S
C1115 H1107 0.930 . S
C1115 C1116 1.355 . S
C1115 C1117 1.415 . S
C1116 C1115 1.355 . S
C1116 C1118 1.419 . S
C1117 C1112 1.425 . S
C1117 C1114 1.409 . S
C1117 C1115 1.415 . S
C1118 H1108 0.930 . S
C1118 C1116 1.419 . S
C1118 C1119 1.362 . S
C1119 H1109 0.930 . S
C1119 C1112 1.409 . S
C1119 C1118 1.362 . S
H1120 C1126 0.930 . S
H1121 C1129 0.930 . S
H1122 C1130 0.930 . S
H1123 C1131 0.930 . S
H1124 C1134 0.930 . S
H1125 C1135 0.930 . S
C1126 H1120 0.930 . S
C1126 C1127 1.355 . S
C1126 C1128 1.415 . S
C1127 C1126 1.355 . S
C1127 C1129 1.419 . S
C1128 C1126 1.415 . S
C1128 C1133 1.425 . S
C1128 C1135 1.409 . S
C1129 H1121 0.930 . S
C1129 C1127 1.419 . S
C1129 C1130 1.362 . S
C1130 H1122 0.930 . S
C1130 C1129 1.362 . S
C1130 C1133 1.409 . S
C1131 H1123 0.930 . S
C1131 C1132 1.355 . S
C1131 C1133 1.415 1_545 S
C1132 C1131 1.355 . S
C1132 C1134 1.419 . S
C1133 C1128 1.425 . S
C1133 C1130 1.409 . S
C1133 C1131 1.415 1_565 S
C1134 H1124 0.930 . S
C1134 C1132 1.419 . S
C1134 C1135 1.362 1_545 S
C1135 H1125 0.930 . S
C1135 C1128 1.409 . S
C1135 C1134 1.362 1_565 S
C375 C18 1.556 . S
C380 C225 1.520 . S
C391 C41 1.551 . S
C396 C202 1.525 . S
C407 C271 1.556 . S
C412 C64 1.520 . S
C423 C87 1.543 . S
C428 C248 1.533 . S
C439 C317 1.447 . S
C444 C110 1.479 . S
C455 C294 1.448 . S
C460 C133 1.478 . S
C471 C363 1.478 . S
C476 C156 1.454 . S
C487 C179 1.458 . S
C492 C340 1.468 . S
C503 C66 1.411 1_545 S
C508 C20 1.440 1_565 S
C519 C89 1.408 . S
C524 C43 1.410 . S
C535 C157 1.388 . S
C540 C111 1.392 . S
C551 C134 1.427 1_565 S
C556 C180 1.416 1_545 S
C567 C250 1.445 . S
C572 C204 1.466 . S
C583 C273 1.419 . S
C588 C227 1.405 . S
C599 C295 1.437 . S
C604 C341 1.447 . S
C615 C318 1.459 . S
C620 C364 1.458 . S
C631 C135 1.419 . S
C636 C19 1.458 . S
C647 C112 1.449 . S
C652 C42 1.415 . S
C663 C65 1.416 . S
C668 C181 1.449 . S
C679 C158 1.424 . S
C684 C88 1.444 . S
C695 C203 1.418 . S
C700 C319 1.473 . S
C711 C296 1.455 . S
C716 C226 1.451 . S
C727 C249 1.464 . S
C732 C365 1.419 . S
C743 C342 1.436 . S
C748 C272 1.466 . S
C759 C44 1.477 . S
C764 C21 1.457 . S
C775 C90 1.499 . S
C780 C67 1.491 . S
C791 C136 1.515 . S
C796 C113 1.518 . S
C807 C159 1.516 . S
C812 C182 1.516 . S
C823 C228 1.492 . S
C828 C205 1.500 . S
C839 C274 1.493 . S
C844 C251 1.478 . S
C855 C297 1.532 . S
C860 C320 1.520 . S
C871 C343 1.583 . S
C876 C366 1.572 . S
C887 C17 1.316 . S
C892 C16 1.314 . S
C903 C40 1.333 . S
C908 C39 1.333 . S
C919 C63 1.335 . S
C924 C62 1.335 . S
C935 C85 1.330 . S
C940 C86 1.332 . S
C951 C109 1.325 . S
C956 C108 1.322 . S
C967 C131 1.298 . S
C972 C132 1.304 . S
C983 C155 1.315 . S
C988 C154 1.310 . S
C999 C178 1.304 . S
C1004 C177 1.297 . S
C1015 C200 1.305 . S
C1020 C201 1.309 . S
C1031 C224 1.334 . S
C1036 C223 1.334 . S
C1047 C246 1.303 . S
C1052 C247 1.307 . S
C1063 C269 1.303 . S
C1068 C270 1.309 . S
C1079 C293 1.304 . S
C1084 C292 1.298 . S
C1095 C316 1.323 . S
C1100 C315 1.320 . S
C1111 C338 1.331 . S
C1116 C339 1.332 . S
C1127 C362 1.337 . S
C1132 C361 1.337 . S
