# Generated by pormake.
# Topology whk, (6)-cn, num edge types: 1
# Building blocks:
#     Node 0, Type 0, BuildingBlock: PAMTOO_clean_sbu_0, # of connection points: 6
#     Node 1, Type 0, BuildingBlock: PAMTOO_clean_sbu_0, # of connection points: 6
#     Node 2, Type 0, BuildingBlock: PAMTOO_clean_sbu_0, # of connection points: 6
#     Node 3, Type 0, BuildingBlock: PAMTOO_clean_sbu_0, # of connection points: 6
#     Node 4, Type 0, BuildingBlock: PAMTOO_clean_sbu_0, # of connection points: 6
#     Node 5, Type 0, BuildingBlock: PAMTOO_clean_sbu_0, # of connection points: 6
#     Node 6, Type 0, BuildingBlock: PAMTOO_clean_sbu_0, # of connection points: 6
#     Node 7, Type 0, BuildingBlock: PAMTOO_clean_sbu_0, # of connection points: 6
#     Node 8, Type 0, BuildingBlock: PAMTOO_clean_sbu_0, # of connection points: 6
#     Node 9, Type 0, BuildingBlock: PAMTOO_clean_sbu_0, # of connection points: 6
#     Node 10, Type 0, BuildingBlock: PAMTOO_clean_sbu_0, # of connection points: 6
#     Node 11, Type 0, BuildingBlock: PAMTOO_clean_sbu_0, # of connection points: 6
#     Node 12, Type 0, BuildingBlock: PAMTOO_clean_sbu_0, # of connection points: 6
#     Node 13, Type 0, BuildingBlock: PAMTOO_clean_sbu_0, # of connection points: 6
#     Node 14, Type 0, BuildingBlock: PAMTOO_clean_sbu_0, # of connection points: 6
#     Node 15, Type 0, BuildingBlock: PAMTOO_clean_sbu_0, # of connection points: 6
#     Edge 16, Type (0, 0), BuildingBlock: TEMPAE_clean_linker_10, # of connection points: 2
#     Edge 17, Type (0, 0), BuildingBlock: TEMPAE_clean_linker_10, # of connection points: 2
#     Edge 18, Type (0, 0), BuildingBlock: TEMPAE_clean_linker_10, # of connection points: 2
#     Edge 19, Type (0, 0), BuildingBlock: TEMPAE_clean_linker_10, # of connection points: 2
#     Edge 20, Type (0, 0), BuildingBlock: TEMPAE_clean_linker_10, # of connection points: 2
#     Edge 21, Type (0, 0), BuildingBlock: TEMPAE_clean_linker_10, # of connection points: 2
#     Edge 22, Type (0, 0), BuildingBlock: TEMPAE_clean_linker_10, # of connection points: 2
#     Edge 23, Type (0, 0), BuildingBlock: TEMPAE_clean_linker_10, # of connection points: 2
#     Edge 24, Type (0, 0), BuildingBlock: TEMPAE_clean_linker_10, # of connection points: 2
#     Edge 25, Type (0, 0), BuildingBlock: TEMPAE_clean_linker_10, # of connection points: 2
#     Edge 26, Type (0, 0), BuildingBlock: TEMPAE_clean_linker_10, # of connection points: 2
#     Edge 27, Type (0, 0), BuildingBlock: TEMPAE_clean_linker_10, # of connection points: 2
#     Edge 28, Type (0, 0), BuildingBlock: TEMPAE_clean_linker_10, # of connection points: 2
#     Edge 29, Type (0, 0), BuildingBlock: TEMPAE_clean_linker_10, # of connection points: 2
#     Edge 30, Type (0, 0), BuildingBlock: TEMPAE_clean_linker_10, # of connection points: 2
#     Edge 31, Type (0, 0), BuildingBlock: TEMPAE_clean_linker_10, # of connection points: 2
#     Edge 32, Type (0, 0), BuildingBlock: TEMPAE_clean_linker_10, # of connection points: 2
#     Edge 33, Type (0, 0), BuildingBlock: TEMPAE_clean_linker_10, # of connection points: 2
#     Edge 34, Type (0, 0), BuildingBlock: TEMPAE_clean_linker_10, # of connection points: 2
#     Edge 35, Type (0, 0), BuildingBlock: TEMPAE_clean_linker_10, # of connection points: 2
#     Edge 36, Type (0, 0), BuildingBlock: TEMPAE_clean_linker_10, # of connection points: 2
#     Edge 37, Type (0, 0), BuildingBlock: TEMPAE_clean_linker_10, # of connection points: 2
#     Edge 38, Type (0, 0), BuildingBlock: TEMPAE_clean_linker_10, # of connection points: 2
#     Edge 39, Type (0, 0), BuildingBlock: TEMPAE_clean_linker_10, # of connection points: 2
#     Edge 40, Type (0, 0), BuildingBlock: TEMPAE_clean_linker_10, # of connection points: 2
#     Edge 41, Type (0, 0), BuildingBlock: TEMPAE_clean_linker_10, # of connection points: 2
#     Edge 42, Type (0, 0), BuildingBlock: TEMPAE_clean_linker_10, # of connection points: 2
#     Edge 43, Type (0, 0), BuildingBlock: TEMPAE_clean_linker_10, # of connection points: 2
#     Edge 44, Type (0, 0), BuildingBlock: TEMPAE_clean_linker_10, # of connection points: 2
#     Edge 45, Type (0, 0), BuildingBlock: TEMPAE_clean_linker_10, # of connection points: 2
#     Edge 46, Type (0, 0), BuildingBlock: TEMPAE_clean_linker_10, # of connection points: 2
#     Edge 47, Type (0, 0), BuildingBlock: TEMPAE_clean_linker_10, # of connection points: 2
#     Edge 48, Type (0, 0), BuildingBlock: TEMPAE_clean_linker_10, # of connection points: 2
#     Edge 49, Type (0, 0), BuildingBlock: TEMPAE_clean_linker_10, # of connection points: 2
#     Edge 50, Type (0, 0), BuildingBlock: TEMPAE_clean_linker_10, # of connection points: 2
#     Edge 51, Type (0, 0), BuildingBlock: TEMPAE_clean_linker_10, # of connection points: 2
#     Edge 52, Type (0, 0), BuildingBlock: TEMPAE_clean_linker_10, # of connection points: 2
#     Edge 53, Type (0, 0), BuildingBlock: TEMPAE_clean_linker_10, # of connection points: 2
#     Edge 54, Type (0, 0), BuildingBlock: TEMPAE_clean_linker_10, # of connection points: 2
#     Edge 55, Type (0, 0), BuildingBlock: TEMPAE_clean_linker_10, # of connection points: 2
#     Edge 56, Type (0, 0), BuildingBlock: TEMPAE_clean_linker_10, # of connection points: 2
#     Edge 57, Type (0, 0), BuildingBlock: TEMPAE_clean_linker_10, # of connection points: 2
#     Edge 58, Type (0, 0), BuildingBlock: TEMPAE_clean_linker_10, # of connection points: 2
#     Edge 59, Type (0, 0), BuildingBlock: TEMPAE_clean_linker_10, # of connection points: 2
#     Edge 60, Type (0, 0), BuildingBlock: TEMPAE_clean_linker_10, # of connection points: 2
#     Edge 61, Type (0, 0), BuildingBlock: TEMPAE_clean_linker_10, # of connection points: 2
#     Edge 62, Type (0, 0), BuildingBlock: TEMPAE_clean_linker_10, # of connection points: 2
#     Edge 63, Type (0, 0), BuildingBlock: TEMPAE_clean_linker_10, # of connection points: 2
# Relax obj value: 0.598
# Max RMSD: 0.318
# Mean RMSD: 0.318
data_MOF--net-whk--node1-PAMTOO_clean_sbu_0--edge1-TEMPAE_clean_linker_10
_symmetry_space_group_name_H-M    P1
_symmetry_Int_Tables_number       1
_symmetry_cell_setting            triclinic
loop_
_symmetry_equiv_pos_as_xyz
'x, y, z'
_cell_length_a     46.403045
_cell_length_b     46.46905
_cell_length_c     40.449546
_cell_angle_alpha  90.085617
_cell_angle_beta   89.946346
_cell_angle_gamma 89.950888
loop_
_atom_site_label
_atom_site_type_symbol
_atom_site_fract_x
_atom_site_fract_y
_atom_site_fract_z
_atom_type_partial_charge
Dy0 Dy 0.57529 0.20709 0.42549 0.0
Dy1 Dy 0.62259 0.23685 0.37792 0.0
C2 C 0.58902 0.18745 0.35229 0.0
O3 O 0.61707 0.19552 0.44962 0.0
O4 O 0.64297 0.19718 0.40143 0.0
O5 O 0.53355 0.2072 0.44991 0.0
O6 O 0.55788 0.16779 0.4463 0.0
O7 O 0.63174 0.25865 0.42568 0.0
O8 O 0.59336 0.24328 0.45794 0.0
O9 O 0.59011 0.27193 0.38485 0.0
O10 O 0.55244 0.24178 0.39638 0.0
O11 O 0.6604 0.26059 0.36285 0.0
O12 O 0.63562 0.23731 0.3265 0.0
C13 C 0.64015 0.18861 0.43247 0.0
O14 O 0.58817 0.17783 0.38265 0.0
O15 O 0.58828 0.21519 0.34951 0.0
C16 C 0.50632 0.16336 0.44475 0.0
C17 C 0.4546 0.13202 0.43131 0.0
C18 C 0.48166 0.11821 0.43142 0.0
C19 C 0.50707 0.1336 0.43811 0.0
C20 C 0.47932 0.17724 0.44447 0.0
C21 C 0.4539 0.16185 0.43775 0.0
C22 C 0.53318 0.17937 0.45405 0.0
C23 C 0.61646 0.25979 0.45312 0.0
C24 C 0.56245 0.26783 0.39021 0.0
C25 C 0.68577 0.23124 0.32656 0.0
C26 C 0.7318 0.20522 0.35814 0.0
C27 C 0.70754 0.18869 0.35043 0.0
C28 C 0.68426 0.20185 0.3348 0.0
C29 C 0.71274 0.24463 0.32574 0.0
C30 C 0.73614 0.2312 0.34093 0.0
C31 C 0.66035 0.24903 0.33343 0.0
H32 H 0.4833 0.09541 0.42621 0.0
H33 H 0.52733 0.12202 0.43838 0.0
H34 H 0.47773 0.20001 0.44996 0.0
H35 H 0.43357 0.17328 0.43843 0.0
H36 H 0.70449 0.16788 0.3618 0.0
H37 H 0.66386 0.19058 0.33454 0.0
H38 H 0.71458 0.26708 0.31884 0.0
H39 H 0.75534 0.24391 0.3452 0.0
Dy40 Dy 0.35542 0.55993 0.42637 0.0
Dy41 Dy 0.32183 0.6047 0.37861 0.0
C42 C 0.37287 0.5716 0.35198 0.0
O43 O 0.36696 0.60272 0.44859 0.0
O44 O 0.3579 0.63067 0.40273 0.0
O45 O 0.35728 0.5191 0.45259 0.0
O46 O 0.39565 0.54469 0.44708 0.0
O47 O 0.30492 0.6177 0.428 0.0
O48 O 0.31761 0.57684 0.4575 0.0
O49 O 0.28991 0.57001 0.3884 0.0
O50 O 0.32208 0.53398 0.39862 0.0
O51 O 0.28521 0.62647 0.35712 0.0
O52 O 0.32644 0.62684 0.33233 0.0
C53 C 0.36963 0.62723 0.43242 0.0
O54 O 0.38322 0.57126 0.38203 0.0
O55 O 0.34497 0.57154 0.34942 0.0
C56 C 0.4018 0.49374 0.44705 0.0
C57 C 0.43529 0.44396 0.43142 0.0
C58 C 0.43178 0.46644 0.40832 0.0
C59 C 0.41526 0.49098 0.41602 0.0
C60 C 0.40491 0.47128 0.46995 0.0
C61 C 0.42136 0.44676 0.46228 0.0
C62 C 0.38514 0.52 0.45633 0.0
C63 C 0.3025 0.60107 0.4542 0.0
C64 C 0.2955 0.54266 0.3929 0.0
C65 C 0.29809 0.66849 0.32791 0.0
C66 C 0.30432 0.72575 0.34548 0.0
C67 C 0.2776 0.71227 0.34989 0.0
C68 C 0.27446 0.6835 0.34111 0.0
C69 C 0.32217 0.68404 0.31662 0.0
C70 C 0.32533 0.71277 0.32561 0.0
C71 C 0.30033 0.63724 0.33286 0.0
H72 H 0.4423 0.4654 0.38444 0.0
H73 H 0.41325 0.50794 0.39782 0.0
H74 H 0.39469 0.47277 0.49399 0.0
H75 H 0.42297 0.42986 0.48058 0.0
H76 H 0.26105 0.72231 0.36493 0.0
H77 H 0.25514 0.67223 0.34875 0.0
H78 H 0.34021 0.67323 0.30493 0.0
H79 H 0.34596 0.72315 0.32171 0.0
Dy80 Dy 0.9924 0.35296 0.43178 0.0
Dy81 Dy 0.94038 0.32607 0.3897 0.0
C82 C 0.97722 0.36983 0.35574 0.0
O83 O 0.95246 0.3683 0.45811 0.0
O84 O 0.92736 0.36902 0.41021 0.0
O85 O 0.03464 0.35069 0.4548 0.0
O86 O 1.01273 0.3915 0.45081 0.0
O87 O 0.93081 0.31204 0.44091 0.0
O88 O 0.97568 0.31605 0.4643 0.0
O89 O 0.97175 0.28969 0.39306 0.0
O90 O 1.01205 0.31706 0.40177 0.0
O91 O 0.91244 0.29291 0.37017 0.0
O92 O 0.9037 0.33776 0.35949 0.0
C93 C 0.92982 0.37672 0.44122 0.0
O94 O 0.98247 0.37998 0.38565 0.0
O95 O 0.97116 0.34261 0.35302 0.0
C96 C 0.06406 0.39249 0.44979 0.0
C97 C 0.11644 0.42144 0.43433 0.0
C98 C 0.09486 0.41752 0.41015 0.0
C99 C 0.06896 0.40323 0.4178 0.0
C100 C 0.08564 0.39594 0.47374 0.0
C101 C 0.11145 0.41018 0.46616 0.0
C102 C 0.03649 0.37841 0.45913 0.0
C103 C 0.94952 0.30449 0.46354 0.0
C104 C 0.99988 0.29194 0.39578 0.0
C105 C 0.86773 0.31213 0.38736 0.0
C106 C 0.82793 0.31748 0.44013 0.0
C107 C 0.84891 0.2956 0.44004 0.0
C108 C 0.8675 0.29228 0.41345 0.0
C109 C 0.84864 0.33561 0.38869 0.0
C110 C 0.8289 0.33823 0.41472 0.0
C111 C 0.89262 0.31235 0.36458 0.0
H112 H 0.09768 0.42605 0.38547 0.0
H113 H 0.05265 0.40088 0.39885 0.0
H114 H 0.08243 0.38777 0.49855 0.0
H115 H 0.1276 0.41225 0.48532 0.0
H116 H 0.84953 0.27918 0.45896 0.0
H117 H 0.88201 0.2741 0.41367 0.0
H118 H 0.84916 0.35209 0.36977 0.0
H119 H 0.81363 0.35585 0.41418 0.0
Dy120 Dy 0.2077 0.9955 0.43053 0.0
Dy121 Dy 0.25345 0.9529 0.39459 0.0
C122 C 0.19665 0.96686 0.35532 0.0
O123 O 0.18925 0.95389 0.44819 0.0
O124 O 0.22127 0.92384 0.42106 0.0
O125 O 0.19714 0.03994 0.42331 0.0
O126 O 0.17406 1.01563 0.46089 0.0
O127 O 0.27136 0.96023 0.44483 0.0
O128 O 0.2346 0.98105 0.4747 0.0
O129 O 0.26606 0.99727 0.37938 0.0
O130 O 0.25157 1.01616 0.42781 0.0
O131 O 0.29824 0.94686 0.38153 0.0
O132 O 0.26756 0.91254 0.37314 0.0
C133 C 0.1987 0.92791 0.44065 0.0
O134 O 0.18661 0.97951 0.38243 0.0
O135 O 0.2236 0.95887 0.35292 0.0
C136 C 0.15259 0.06012 0.44069 0.0
C137 C 0.11436 0.10683 0.42789 0.0
C138 C 0.12129 0.08667 0.40294 0.0
C139 C 0.14029 0.0637 0.40921 0.0
C140 C 0.14469 0.07929 0.46595 0.0
C141 C 0.12593 0.10232 0.45969 0.0
C142 C 0.17744 0.04056 0.44635 0.0
C143 C 0.26026 0.96859 0.4729 0.0
C144 C 0.26901 1.01679 0.40238 0.0
C145 C 0.30811 0.90301 0.40557 0.0
C146 C 0.3321 0.87453 0.46058 0.0
C147 C 0.30414 0.88602 0.46191 0.0
C148 C 0.29214 0.89908 0.43458 0.0
C149 C 0.33721 0.89536 0.40512 0.0
C150 C 0.34915 0.88107 0.43235 0.0
C151 C 0.29449 0.91921 0.37886 0.0
H152 H 0.11251 0.08893 0.37829 0.0
H153 H 0.14624 0.04942 0.38913 0.0
H154 H 0.1543 0.07739 0.49026 0.0
H155 H 0.12167 0.11739 0.47954 0.0
H156 H 0.29021 0.88278 0.48289 0.0
H157 H 0.26992 0.90576 0.43619 0.0
H158 H 0.35034 0.89957 0.38352 0.0
H159 H 0.37111 0.87352 0.43002 0.0
Dy160 Dy 0.06616 0.84754 0.10067 0.0
Dy161 Dy 0.11821 0.81622 0.13803 0.0
C162 C 0.08613 0.86294 0.17506 0.0
O163 O 0.10524 0.86623 0.07528 0.0
O164 O 0.1351 0.85832 0.11903 0.0
O165 O 1.02066 0.85556 0.1039 0.0
O166 O 0.04511 0.87556 0.06458 0.0
O167 O 0.12568 0.80801 0.08459 0.0
O168 O 0.07899 0.80998 0.06715 0.0
O169 O 0.08642 0.77999 0.13409 0.0
O170 O 0.04661 0.80721 0.12214 0.0
O171 O 0.14553 0.78037 0.15129 0.0
O172 O 0.15541 0.82322 0.16925 0.0
C173 C 0.13005 0.87044 0.09033 0.0
O174 O 0.08024 0.87376 0.1457 0.0
O175 O 0.09069 0.83528 0.17705 0.0
C176 C 1.00047 0.89793 0.08155 0.0
C177 C 0.9555 0.93874 0.09121 0.0
C178 C 0.97754 0.93532 0.11492 0.0
C179 C 0.99971 0.91505 0.11021 0.0
C180 C 0.97926 0.90205 0.05736 0.0
C181 C 0.95707 0.9221 0.06209 0.0
C182 C 1.01988 0.87272 0.07852 0.0
C183 C 0.10563 0.80014 0.06375 0.0
C184 C 0.05854 0.78218 0.12892 0.0
C185 C 0.19115 0.79974 0.13823 0.0
C186 C 0.23449 0.8074 0.08974 0.0
C187 C 0.21323 0.786 0.08614 0.0
C188 C 0.1923 0.78193 0.11019 0.0
C189 C 0.21076 0.8227 0.14068 0.0
C190 C 0.23203 0.82665 0.11657 0.0
C191 C 0.16578 0.7983 0.16024 0.0
H192 H 0.97745 0.94797 0.13742 0.0
H193 H 1.01568 0.91207 0.12943 0.0
H194 H 0.97906 0.88874 0.03533 0.0
H195 H 0.94042 0.92356 0.04344 0.0
H196 H 0.21385 0.77057 0.06615 0.0
H197 H 0.17691 0.7647 0.10652 0.0
H198 H 0.20953 0.83774 0.16112 0.0
H199 H 0.24732 0.84401 0.11979 0.0
Dy200 Dy 0.7054 0.06135 0.09217 0.0
Dy201 Dy 0.74211 0.12069 0.10104 0.0
C202 C 0.7034 0.10144 0.16064 0.0
O203 O 0.67889 0.09656 0.0676 0.0
O204 O 0.69628 0.1344 0.09804 0.0
O205 O 0.6891 1.02392 0.11685 0.0
O206 O 0.67804 0.03096 0.06461 0.0
O207 O 0.73265 0.1095 0.04894 0.0
O208 O 0.74082 0.0627 0.05286 0.0
O209 O 0.77483 0.08673 0.1129 0.0
O210 O 0.74842 0.04495 0.10892 0.0
O211 O 0.78282 0.13992 0.08791 0.0
O212 O 0.74744 0.16683 0.10471 0.0
C213 C 0.67682 0.1234 0.07829 0.0
O214 O 0.69068 0.0837 0.1395 0.0
O215 O 0.72781 0.11438 0.15313 0.0
C216 C 0.65919 0.98692 0.09206 0.0
C217 C 0.62562 0.93595 0.09924 0.0
C218 C 0.64911 0.94159 0.1203 0.0
C219 C 0.6655 0.96671 0.11687 0.0
C220 C 0.63639 0.98104 0.07022 0.0
C221 C 0.61975 0.95591 0.07382 0.0
C222 C 0.67536 1.0146 0.09082 0.0
C223 C 0.74544 0.08693 0.03706 0.0
C224 C 0.77294 0.05851 0.11389 0.0
C225 C 0.77209 0.17997 0.05561 0.0
C226 C 0.77381 0.20966 0.9948 0.0
C227 C 0.79947 0.20008 1.01019 0.0
C228 C 0.7985 0.18641 0.04086 0.0
C229 C 0.74666 0.18438 0.03745 0.0
C230 C 0.74754 0.19887 1.0072 0.0
C231 C 0.77154 0.16558 0.088 0.0
H232 H 0.65492 0.92658 0.13963 0.0
H233 H 0.68307 0.97041 0.13397 0.0
H234 H 0.63088 0.99626 0.05098 0.0
H235 H 0.60176 0.95258 0.05723 0.0
H236 H 0.8205 0.20624 1.00112 0.0
H237 H 0.81838 0.18223 0.05391 0.0
H238 H 0.72598 0.17757 0.04712 0.0
H239 H 0.72739 0.20344 0.99489 0.0
Dy240 Dy 0.48917 0.69812 0.09466 0.0
Dy241 Dy 0.44133 0.7253 0.14391 0.0
C242 C 0.47777 0.67634 0.1676 0.0
O243 O 0.44726 0.68594 0.07102 0.0
O244 O 0.42202 0.68558 0.11971 0.0
O245 O 0.53085 0.70021 0.07014 0.0
O246 O 0.50789 0.65999 0.07237 0.0
O247 O 0.43177 0.74897 0.09744 0.0
O248 O 0.46976 0.73485 0.06374 0.0
O249 O 0.47244 0.76137 0.13686 0.0
O250 O 0.51096 0.73233 0.12538 0.0
O251 O 0.40225 0.74652 0.15973 0.0
O252 O 0.42981 0.72632 0.19578 0.0
C253 C 0.42451 0.67814 0.08826 0.0
O254 O 0.47879 0.66741 0.13692 0.0
O255 O 0.4764 0.70399 0.17157 0.0
C256 C 0.55918 0.65744 0.07418 0.0
C257 C 0.6108 0.62708 0.09066 0.0
C258 C 0.58931 0.63246 0.11466 0.0
C259 C 0.56387 0.64742 0.10653 0.0
C260 C 0.5806 0.65242 0.0503 0.0
C261 C 0.606 0.6375 0.05837 0.0
C262 C 0.53207 0.67258 0.0647 0.0
C263 C 0.44656 0.75108 0.06971 0.0
C264 C 0.50019 0.75805 0.13161 0.0
C265 C 0.38012 0.71755 0.19887 0.0
C266 C 0.33341 0.69173 0.16884 0.0
C267 C 0.32914 0.71671 0.18804 0.0
C268 C 0.35291 0.73015 0.2024 0.0
C269 C 0.3819 0.68838 0.18958 0.0
C270 C 0.35818 0.67526 0.17471 0.0
C271 C 0.40419 0.7363 0.18968 0.0
H272 H 0.59186 0.62461 0.13968 0.0
H273 H 0.54771 0.65094 0.12547 0.0
H274 H 0.57763 0.65998 0.02521 0.0
H275 H 0.62204 0.63435 0.03924 0.0
H276 H 0.30954 0.72921 0.18553 0.0
H277 H 0.35088 0.75232 0.21043 0.0
H278 H 0.40259 0.67766 0.18788 0.0
H279 H 0.36127 0.65504 0.1619 0.0
Dy280 Dy 0.85034 0.48929 0.10283 0.0
Dy281 Dy 0.81973 0.4459 0.15373 0.0
C282 C 0.87066 0.47909 0.17767 0.0
O283 O 0.86012 0.44604 0.08024 0.0
O284 O 0.85624 0.42128 0.12894 0.0
O285 O 0.85239 0.5304 0.07753 0.0
O286 O 0.88997 0.50322 0.07891 0.0
O287 O 0.8016 0.43215 0.1055 0.0
O288 O 0.81126 0.47222 0.07384 0.0
O289 O 0.78621 0.4797 0.14566 0.0
O290 O 0.81684 0.51565 0.13 0.0
O291 O 0.78401 0.42454 0.17756 0.0
O292 O 0.8274 0.41756 0.19525 0.0
C293 C 0.86478 0.42262 0.09781 0.0
O294 O 0.87925 0.47875 0.14674 0.0
O295 O 0.84302 0.47873 0.18267 0.0
C296 C 0.89838 0.55395 0.07964 0.0
C297 C 0.93391 0.6029 0.09321 0.0
C298 C 0.90874 0.59743 0.11184 0.0
C299 C 0.89126 0.57332 0.10518 0.0
C300 C 0.92353 0.55918 0.06124 0.0
C301 C 0.94102 0.58321 0.06789 0.0
C302 C 0.87991 0.52855 0.07141 0.0
C303 C 0.79654 0.44807 0.07931 0.0
C304 C 0.79075 0.50676 0.13802 0.0
C305 C 0.80036 0.37696 0.17949 0.0
C306 C 0.80289 0.3437 0.12218 0.0
C307 C 0.82781 0.34757 0.14097 0.0
C308 C 0.82649 0.36374 0.16997 0.0
C309 C 0.77474 0.36813 0.16395 0.0
C310 C 0.77609 0.35203 0.13492 0.0
C311 C 0.80156 0.40668 0.1923 0.0
H312 H 0.90217 0.61207 0.13128 0.0
H313 H 0.87205 0.56995 0.11991 0.0
H314 H 0.92968 0.54462 0.0415 0.0
H315 H 0.96036 0.58614 0.05328 0.0
H316 H 0.84845 0.33988 0.13205 0.0
H317 H 0.84659 0.36916 0.18208 0.0
H318 H 0.75419 0.37728 0.17121 0.0
H319 H 0.75647 0.34784 0.12124 0.0
Dy320 Dy 0.4389 0.82183 0.63389 0.0
Dy321 Dy 0.49017 0.8505 0.59261 0.0
C322 C 0.44875 0.80133 0.55985 0.0
O323 O 0.4714 0.78602 0.63151 0.0
O324 O 0.51086 0.81444 0.62154 0.0
O325 O 0.40597 0.79058 0.6454 0.0
O326 O 0.40821 0.83064 0.67279 0.0
O327 O 0.48076 0.8759 0.64011 0.0
O328 O 0.47048 0.83711 0.67063 0.0
O329 O 0.44947 0.8671 0.5683 0.0
O330 O 0.42599 0.86615 0.61717 0.0
O331 O 0.53312 0.85 0.57114 0.0
O332 O 0.50898 0.88958 0.57275 0.0
C333 C 0.49949 0.789 0.628 0.0
O334 O 0.42958 0.80973 0.58169 0.0
O335 O 0.47501 0.81271 0.56016 0.0
C336 C 0.36429 0.81827 0.64944 0.0
C337 C 0.31245 0.82654 0.61534 0.0
C338 C 0.33841 0.83568 0.60127 0.0
C339 C 0.36411 0.83102 0.61796 0.0
C340 C 0.33831 0.81306 0.66562 0.0
C341 C 0.31242 0.81746 0.64879 0.0
C342 C 0.39193 0.80934 0.66336 0.0
C343 C 0.47597 0.86456 0.66949 0.0
C344 C 0.42754 0.87538 0.58666 0.0
C345 C 0.5605 0.89374 0.57691 0.0
C346 C 0.61208 0.92502 0.59139 0.0
C347 C 0.58533 0.93919 0.58841 0.0
C348 C 0.56 0.92383 0.5812 0.0
C349 C 0.58716 0.8795 0.58016 0.0
C350 C 0.6125 0.89487 0.5874 0.0
C351 C 0.53389 0.87775 0.5666 0.0
H352 H 0.33926 0.84313 0.57594 0.0
H353 H 0.38394 0.83523 0.60503 0.0
H354 H 0.33806 0.80376 0.69016 0.0
H355 H 0.29283 0.8103 0.66077 0.0
H356 H 0.58387 0.96227 0.59168 0.0
H357 H 0.54002 0.93567 0.57858 0.0
H358 H 0.5886 0.85645 0.57653 0.0
H359 H 0.63261 0.88311 0.58897 0.0
Dy360 Dy 0.74769 0.44178 0.63983 0.0
Dy361 Dy 0.70884 0.49146 0.60311 0.0
C362 C 0.7586 0.45483 0.56315 0.0
O363 O 0.77768 0.47708 0.62505 0.0
O364 O 0.74557 0.51376 0.62973 0.0
O365 O 0.75993 0.39803 0.65072 0.0
O366 O 0.78175 0.43359 0.67482 0.0
O367 O 0.684 0.47634 0.64844 0.0
O368 O 0.72258 0.46364 0.67931 0.0
O369 O 0.69641 0.44958 0.57867 0.0
O370 O 0.70741 0.41962 0.62203 0.0
O371 O 0.7048 0.53508 0.58459 0.0
O372 O 0.66755 0.50746 0.58513 0.0
C373 C 0.77244 0.50472 0.62712 0.0
O374 O 0.75971 0.43613 0.58738 0.0
O375 O 0.74286 0.47872 0.56472 0.0
C376 C 0.77729 0.39073 0.70481 0.0
C377 C 0.77553 0.35864 0.76352 0.0
C378 C 0.75013 0.37071 0.75054 0.0
C379 C 0.75104 0.38685 0.72144 0.0
C380 C 0.80273 0.37966 0.71831 0.0
C381 C 0.80188 0.36368 0.74743 0.0
C382 C 0.77863 0.40578 0.6731 0.0
C383 C 0.69487 0.46803 0.6769 0.0
C384 C 0.69453 0.42427 0.59342 0.0
C385 C 0.65855 0.55833 0.58939 0.0
C386 C 0.62391 0.60814 0.60231 0.0
C387 C 0.61438 0.58621 0.58079 0.0
C388 C 0.63143 0.56179 0.57444 0.0
C389 C 0.668 0.57985 0.61142 0.0
C390 C 0.65089 0.60434 0.61785 0.0
C391 C 0.67713 0.53334 0.57954 0.0
H392 H 0.72955 0.36702 0.76248 0.0
H393 H 0.73122 0.39559 0.71145 0.0
H394 H 0.82317 0.38268 0.70581 0.0
H395 H 0.82167 0.35419 0.75656 0.0
H396 H 0.59363 0.58788 0.56872 0.0
H397 H 0.62354 0.54571 0.55728 0.0
H398 H 0.68884 0.57805 0.62326 0.0
H399 H 0.65923 0.6207 0.63433 0.0
Dy400 Dy 0.1166 0.73221 0.64158 0.0
Dy401 Dy 0.06977 0.70563 0.5921 0.0
C402 C 0.11344 0.75791 0.5675 0.0
O403 O 0.08615 0.76915 0.63491 0.0
O404 O 0.04744 0.74149 0.62022 0.0
O405 O 0.15521 0.75343 0.65871 0.0
O406 O 0.12751 0.73169 0.69351 0.0
O407 O 0.08007 0.67514 0.63481 0.0
O408 O 0.08079 0.71187 0.66895 0.0
O409 O 0.1114 0.69323 0.56793 0.0
O410 O 0.13707 0.69317 0.61624 0.0
O411 O 0.05166 0.66739 0.56907 0.0
O412 O 1.02784 0.70717 0.56837 0.0
C413 C 0.05854 0.76675 0.62816 0.0
O414 O 0.12703 0.75631 0.59597 0.0
O415 O 0.09051 0.74153 0.56073 0.0
C416 C 0.17716 0.7238 0.69736 0.0
C417 C 0.22621 0.69551 0.67611 0.0
C418 C 0.20062 0.6798 0.6797 0.0
C419 C 0.17571 0.69429 0.68963 0.0
C420 C 0.20404 0.73641 0.70273 0.0
C421 C 0.2289 0.72139 0.69404 0.0
C422 C 0.15299 0.74233 0.68819 0.0
C423 C 0.07992 0.68419 0.66547 0.0
C424 C 0.13445 0.68566 0.58474 0.0
C425 C 1.00034 0.66356 0.57061 0.0
C426 C 0.94865 0.63241 0.58514 0.0
C427 C 0.95977 0.65302 0.60747 0.0
C428 C 0.98524 0.66837 0.6003 0.0
C429 C 0.98946 0.64296 0.54845 0.0
C430 C 0.96409 0.62764 0.55556 0.0
C431 C 1.02719 0.67967 0.56201 0.0
H432 H 0.19839 0.659 0.66786 0.0
H433 H 0.15511 0.68375 0.68613 0.0
H434 H 0.20568 0.75905 0.70886 0.0
H435 H 0.24894 0.73334 0.69374 0.0
H436 H 0.94858 0.65766 0.63036 0.0
H437 H 0.99307 0.68408 0.61794 0.0
H438 H 1.00068 0.63866 0.52546 0.0
H439 H 0.9568 0.61169 0.53791 0.0
Dy440 Dy 0.81201 0.10852 0.6388 0.0
Dy441 Dy 0.85649 0.06628 0.59829 0.0
C442 C 0.80016 0.09614 0.56287 0.0
O443 O 0.79671 0.06304 0.64651 0.0
O444 O 0.81572 0.0408 0.60139 0.0
O445 O 0.78805 0.14675 0.65274 0.0
O446 O 0.78666 0.10848 0.68322 0.0
O447 O 0.86796 0.06504 0.65317 0.0
O448 O 0.85406 0.11075 0.66399 0.0
O449 O 0.8732 0.11074 0.58669 0.0
O450 O 0.83716 0.14013 0.60759 0.0
O451 O 0.86522 1.02736 0.57038 0.0
O452 O 0.90062 0.05382 0.58647 0.0
C453 C 0.79586 0.04244 0.6243 0.0
O454 O 0.78866 0.10109 0.59197 0.0
O455 O 0.8273 0.08723 0.55922 0.0
C456 C 0.78785 0.15202 0.71093 0.0
C457 C 0.80259 0.18193 0.76902 0.0
C458 C 0.82416 0.17193 0.74744 0.0
C459 C 0.81683 0.1573 0.71856 0.0
C460 C 0.76633 0.16032 0.73324 0.0
C461 C 0.77361 0.17527 0.76206 0.0
C462 C 0.78042 0.13571 0.68115 0.0
C463 C 0.8693 0.08834 0.67174 0.0
C464 C 0.86151 0.13647 0.59099 0.0
C465 C 0.90967 1.00311 0.58209 0.0
C466 C 0.94123 0.95149 0.5957 0.0
C467 C 0.91358 0.9562 0.60935 0.0
C468 C 0.89802 0.98161 0.60262 0.0
C469 C 0.93736 0.99872 0.56892 0.0
C470 C 0.9529 0.97339 0.5756 0.0
C471 C 0.89312 0.02955 0.57282 0.0
H472 H 0.84664 0.17676 0.75202 0.0
H473 H 0.83379 0.15061 0.70188 0.0
H474 H 0.74388 0.15583 0.72802 0.0
H475 H 0.75641 0.18317 0.77778 0.0
H476 H 0.90359 0.93993 0.62467 0.0
H477 H 0.87671 0.98425 0.61316 0.0
H478 H 0.94695 1.01486 0.55306 0.0
H479 H 0.97422 0.97107 0.56504 0.0
Dy480 Dy 0.93868 0.23849 0.89677 0.0
Dy481 Dy 0.98661 0.20075 0.93665 0.0
C482 C 0.94768 0.25097 0.97402 0.0
O483 O 0.97403 0.26764 0.91275 0.0
O484 O 1.0099 0.23513 0.9074 0.0
O485 O 0.93431 0.26567 0.85395 0.0
O486 O 0.89745 0.25792 0.8858 0.0
O487 O 0.97405 0.1748 0.89115 0.0
O488 O 0.96181 0.21256 0.85889 0.0
O489 O 0.94309 0.18646 0.95601 0.0
O490 O 0.91627 0.19695 0.90966 0.0
O491 O 1.00377 0.15949 0.95314 0.0
O492 O 1.02851 0.19812 0.9604 0.0
C493 C 1.00142 0.26212 0.90905 0.0
O494 O 0.9298 0.25104 0.94889 0.0
O495 O 0.97188 0.23549 0.97377 0.0
C496 C 0.90573 0.30519 0.86715 0.0
C497 C 0.89468 0.36368 0.87885 0.0
C498 C 0.90759 0.34676 0.90342 0.0
C499 C 0.91302 0.31766 0.89766 0.0
C500 C 0.89615 0.32275 0.84131 0.0
C501 C 0.89061 0.35191 0.84713 0.0
C502 C 0.90857 0.27401 0.86253 0.0
C503 C 0.9667 0.18505 0.86206 0.0
C504 C 0.91964 0.18292 0.9378 0.0
C505 C 0.05534 0.15416 0.95273 0.0
C506 C 0.10788 0.12379 0.93873 0.0
C507 C 0.10211 0.15096 0.92451 0.0
C508 C 0.07629 0.16594 0.93144 0.0
C509 C 0.06085 0.12695 0.96652 0.0
C510 C 0.08659 0.11202 0.95966 0.0
C511 C 1.02844 0.17014 0.96235 0.0
H512 H 0.9107 0.35531 0.92802 0.0
H513 H 0.9214 0.30459 0.91761 0.0
H514 H 0.89144 0.31362 0.81729 0.0
H515 H 0.88018 0.36439 0.82794 0.0
H516 H 0.11784 0.16105 0.90852 0.0
H517 H 0.0729 0.18689 0.92042 0.0
H518 H 0.04524 0.11724 0.98302 0.0
H519 H 0.08967 0.09104 0.97071 0.0
Dy520 Dy 0.31567 0.93973 0.88435 0.0
Dy521 Dy 0.35196 0.98667 0.92809 0.0
C522 C 0.29866 0.94933 0.96113 0.0
O523 O 0.28376 0.97406 0.89643 0.0
O524 O 0.31602 1.01078 0.90167 0.0
O525 O 0.30014 0.93209 0.83498 0.0
O526 O 0.29431 0.8996 0.87283 0.0
O527 O 0.37958 0.97229 0.88451 0.0
O528 O 0.34188 0.96706 0.85091 0.0
O529 O 0.36313 0.94372 0.95081 0.0
O530 O 0.35374 0.91535 0.90529 0.0
O531 O 0.35508 0.02863 0.95215 0.0
O532 O 0.39319 1.00292 0.94523 0.0
C533 C 0.28912 1.00165 0.89919 0.0
O534 O 0.29567 0.93454 0.93364 0.0
O535 O 0.31767 0.97062 0.96451 0.0
C536 C 0.25781 0.90502 0.83218 0.0
C537 C 0.20102 0.89362 0.8113 0.0
C538 C 0.20639 0.90412 0.84345 0.0
C539 C 0.23462 0.90968 0.85386 0.0
C540 C 0.25233 0.89765 0.7993 0.0
C541 C 0.22427 0.89225 0.78884 0.0
C542 C 0.28787 0.90792 0.84291 0.0
C543 C 0.36967 0.96796 0.8546 0.0
C544 C 0.36529 0.91886 0.93497 0.0
C545 C 0.3997 0.05436 0.94506 0.0
C546 C 0.4338 0.1046 0.93178 0.0
C547 C 0.43708 0.07917 0.91292 0.0
C548 C 0.42035 0.05445 0.91948 0.0
C549 C 0.39606 0.07979 0.9635 0.0
C550 C 0.41274 0.10445 0.957 0.0
C551 C 0.38307 1.02784 0.95439 0.0
H552 H 0.18904 0.90619 0.86121 0.0
H553 H 0.23842 0.91646 0.87912 0.0
H554 H 0.26995 0.89477 0.78198 0.0
H555 H 0.22141 0.88441 0.76386 0.0
H556 H 0.45312 0.07803 0.89352 0.0
H557 H 0.42391 0.03527 0.90478 0.0
H558 H 0.38043 0.08051 0.98341 0.0
H559 H 0.40898 0.12352 0.97179 0.0
Dy560 Dy 0.61724 0.32019 0.89535 0.0
Dy561 Dy 0.5626 0.34866 0.93221 0.0
C562 C 0.59929 0.29668 0.96708 0.0
O563 O 0.58666 0.28284 0.89747 0.0
O564 O 0.54589 0.31063 0.90255 0.0
O565 O 0.66171 0.30639 0.89572 0.0
O566 O 0.63995 0.31365 0.84916 0.0
O567 O 0.57657 0.37659 0.88842 0.0
O568 O 0.58805 0.33849 0.85764 0.0
O569 O 0.60094 0.36193 0.96301 0.0
O570 O 0.6289 0.3629 0.91734 0.0
O571 O 0.51748 0.34758 0.94578 0.0
O572 O 0.54217 0.38616 0.95453 0.0
C573 C 0.55834 0.28512 0.89908 0.0
O574 O 0.61929 0.2992 0.94431 0.0
O575 O 0.57513 0.31197 0.96666 0.0
C576 C 0.68438 0.33676 0.85831 0.0
C577 C 0.72198 0.3843 0.85933 0.0
C578 C 0.7327 0.35595 0.85885 0.0
C579 C 0.71413 0.33236 0.8585 0.0
C580 C 0.67356 0.36514 0.85879 0.0
C581 C 0.69222 0.38873 0.86017 0.0
C582 C 0.66467 0.31261 0.86451 0.0
C583 C 0.58348 0.36604 0.85927 0.0
C584 C 0.62518 0.36938 0.94856 0.0
C585 C 0.49154 0.39217 0.94514 0.0
C586 C 0.44084 0.4245 0.9307 0.0
C587 C 0.45928 0.43249 0.95681 0.0
C588 C 0.48419 0.41654 0.96392 0.0
C589 C 0.47358 0.38438 0.91857 0.0
C590 C 0.44858 0.40037 0.91142 0.0
C591 C 0.51673 0.37434 0.95534 0.0
H592 H 0.7556 0.35206 0.85992 0.0
H593 H 0.72296 0.31079 0.85953 0.0
H594 H 0.6506 0.36908 0.85937 0.0
H595 H 0.68344 0.41027 0.86176 0.0
H596 H 0.45449 0.45118 0.97187 0.0
H597 H 0.49756 0.42303 0.98457 0.0
H598 H 0.47853 0.36564 0.90365 0.0
H599 H 0.43493 0.39333 0.89129 0.0
Dy600 Dy 0.23644 0.61275 0.88715 0.0
Dy601 Dy 0.20166 0.5629 0.9271 0.0
C602 C 0.25582 0.59774 0.96162 0.0
O603 O 0.26916 0.57856 0.89546 0.0
O604 O 0.23707 0.54134 0.89741 0.0
O605 O 0.25155 0.6561 0.88002 0.0
O606 O 0.25542 0.6248 0.84038 0.0
O607 O 0.17431 0.57728 0.88308 0.0
O608 O 0.21293 0.58534 0.85145 0.0
O609 O 0.1906 0.6044 0.95318 0.0
O610 O 0.19535 0.63201 0.90695 0.0
O611 O 0.16119 0.54518 0.94516 0.0
O612 O 0.2004 0.52048 0.94917 0.0
C613 C 0.26388 0.55084 0.89574 0.0
O614 O 0.25762 0.61528 0.93624 0.0
O615 O 0.23718 0.5761 0.96308 0.0
C616 C 0.23866 0.67069 0.82685 0.0
C617 C 0.20709 0.71183 0.79139 0.0
C618 C 0.19372 0.69569 0.81636 0.0
C619 C 0.20935 0.67516 0.83377 0.0
C620 C 0.25139 0.68465 0.79999 0.0
C621 C 0.23559 0.70492 0.78211 0.0
C622 C 0.25564 0.65197 0.84841 0.0
C623 C 0.18508 0.58327 0.85383 0.0
C624 C 0.18574 0.62868 0.93731 0.0
C625 C 0.15641 0.49385 0.94531 0.0
C626 C 0.12671 0.44099 0.93403 0.0
C627 C 0.14947 0.44975 0.91315 0.0
C628 C 0.16419 0.47582 0.91876 0.0
C629 C 0.13345 0.48543 0.96573 0.0
C630 C 0.11881 0.45946 0.96021 0.0
C631 C 0.17259 0.52061 0.95352 0.0
H632 H 0.17194 0.70043 0.82432 0.0
H633 H 0.19891 0.66386 0.85384 0.0
H634 H 0.27378 0.6808 0.79377 0.0
H635 H 0.24633 0.71655 0.76249 0.0
H636 H 0.15637 0.43616 0.89287 0.0
H637 H 0.18188 0.48169 0.90264 0.0
H638 H 0.12699 0.49888 0.98635 0.0
H639 H 0.10113 0.45392 0.97648 0.0
C640 C 0.60275 0.18139 0.29249 0.0
C641 C 0.60272 0.1704 0.32486 0.0
C642 C 0.61907 0.16848 0.26701 0.0
C643 C 0.63613 0.14383 0.2737 0.0
C644 C 0.63567 0.13216 0.30615 0.0
C645 C 0.61895 0.14545 0.33122 0.0
C646 C 0.61867 0.18183 0.233 0.0
C647 C 0.65366 0.10619 0.31476 0.0
C648 C 0.65973 0.09932 0.19822 0.0
C649 C 0.68757 0.10994 0.19169 0.0
C650 C 0.64323 0.10942 0.22526 0.0
C651 C 0.6546 0.13075 0.2467 0.0
C652 C 0.68303 0.14087 0.24088 0.0
C653 C 0.69907 0.13041 0.21365 0.0
C654 C 0.61315 0.09788 0.23024 0.0
C655 C 0.69639 0.16323 0.26314 0.0
H656 H 0.59049 0.20071 0.28722 0.0
H657 H 0.61961 0.13698 0.35615 0.0
H658 H 0.64059 0.18947 0.22647 0.0
H659 H 0.61238 0.16553 0.21429 0.0
H660 H 0.60353 0.2003 0.23138 0.0
H661 H 0.6491 0.09817 0.34009 0.0
H662 H 0.64973 0.08854 0.29683 0.0
H663 H 0.67684 0.11185 0.31319 0.0
H664 H 0.65038 0.08356 0.18164 0.0
H665 H 0.72048 0.13885 0.20916 0.0
H666 H 0.59724 0.11543 0.22659 0.0
H667 H 0.61052 0.08993 0.25592 0.0
H668 H 0.60801 0.08009 0.21284 0.0
H669 H 0.68267 0.18279 0.26386 0.0
H670 H 0.71838 0.16948 0.25501 0.0
H671 H 0.69772 0.15469 0.28866 0.0
C672 C 0.46287 0.62763 0.19061 0.0
C673 C 0.46778 0.6572 0.19528 0.0
C674 C 0.44988 0.61065 0.21557 0.0
C675 C 0.44073 0.62356 0.24568 0.0
C676 C 0.44627 0.65323 0.25073 0.0
C677 C 0.46021 0.66937 0.22597 0.0
C678 C 0.44516 0.579 0.2093 0.0
C679 C 0.43622 0.66839 0.28173 0.0
C680 C 0.37751 0.59171 0.29433 0.0
C681 C 0.39087 0.58111 0.32307 0.0
C682 C 0.39344 0.60498 0.26886 0.0
C683 C 0.42387 0.6068 0.27116 0.0
C684 C 0.43771 0.59449 0.29911 0.0
C685 C 0.42109 0.58227 0.32489 0.0
C686 C 0.37739 0.61867 0.24046 0.0
C687 C 0.47009 0.59498 0.30225 0.0
H688 H 0.46861 0.61784 0.16717 0.0
H689 H 0.46412 0.69203 0.23031 0.0
H690 H 0.45293 0.56619 0.23066 0.0
H691 H 0.42178 0.57468 0.20657 0.0
H692 H 0.45635 0.57148 0.18659 0.0
H693 H 0.44251 0.69144 0.28219 0.0
H694 H 0.41239 0.66702 0.28359 0.0
H695 H 0.44528 0.65771 0.30391 0.0
H696 H 0.35426 0.59085 0.29226 0.0
H697 H 0.43178 0.57405 0.34674 0.0
H698 H 0.38694 0.61222 0.21643 0.0
H699 H 0.37921 0.64242 0.2424 0.0
H700 H 0.35415 0.61292 0.2404 0.0
H701 H 0.48026 0.58731 0.27901 0.0
H702 H 0.47779 0.58143 0.32305 0.0
H703 H 0.47749 0.61738 0.30647 0.0
C704 C 0.96868 0.41941 0.33088 0.0
C705 C 0.96852 0.38927 0.32778 0.0
C706 C 0.95611 0.43725 0.30642 0.0
C707 C 0.94248 0.42477 0.2784 0.0
C708 C 0.94327 0.39446 0.27461 0.0
C709 C 0.95646 0.37727 0.29894 0.0
C710 C 0.95647 0.46943 0.31121 0.0
C711 C 0.92875 0.37993 0.24564 0.0
C712 C 0.87871 0.46148 0.23584 0.0
C713 C 0.89032 0.46958 0.20508 0.0
C714 C 0.89565 0.44797 0.26023 0.0
C715 C 0.92534 0.44278 0.25436 0.0
C716 C 0.93763 0.45243 0.22417 0.0
C717 C 0.91999 0.46542 0.19984 0.0
C718 C 0.88129 0.43775 0.29161 0.0
C719 C 0.96922 0.44799 0.21698 0.0
H720 H 0.97783 0.42906 0.35289 0.0
H721 H 0.95608 0.3541 0.29595 0.0
H722 H 0.96336 0.4803 0.28811 0.0
H723 H 0.93441 0.47711 0.31706 0.0
H724 H 0.97108 0.47603 0.33159 0.0
H725 H 0.93227 0.35628 0.24545 0.0
H726 H 0.90521 0.3841 0.24656 0.0
H727 H 0.93688 0.38891 0.22203 0.0
H728 H 0.85589 0.46445 0.24041 0.0
H729 H 0.92934 0.47155 0.17632 0.0
H730 H 0.89309 0.44583 0.31356 0.0
H731 H 0.88184 0.41389 0.29256 0.0
H732 H 0.85848 0.44488 0.29338 0.0
H733 H 0.98244 0.45474 0.23847 0.0
H734 H 0.97635 0.46015 0.19481 0.0
H735 H 0.97346 0.42479 0.21267 0.0
C736 C 0.1467 0.95788 0.33111 0.0
C737 C 0.17685 0.95808 0.32754 0.0
C738 C 0.12863 0.94536 0.30674 0.0
C739 C 0.14085 0.93252 0.27803 0.0
C740 C 0.17113 0.93383 0.27371 0.0
C741 C 0.18857 0.94656 0.29823 0.0
C742 C 0.09651 0.94486 0.31237 0.0
C743 C 0.18541 0.92055 0.24377 0.0
C744 C 0.10509 0.8693 0.23307 0.0
C745 C 0.09561 0.8818 0.20333 0.0
C746 C 0.11854 0.88575 0.25803 0.0
C747 C 0.12266 0.91575 0.25366 0.0
C748 C 0.11177 0.92881 0.22448 0.0
C749 C 0.09852 0.91176 0.19972 0.0
C750 C 0.12974 0.87061 0.28843 0.0
C751 C 0.11529 0.96067 0.21869 0.0
H752 H 0.13722 0.96652 0.35353 0.0
H753 H 0.21173 0.94657 0.29477 0.0
H754 H 0.08499 0.95234 0.28994 0.0
H755 H 0.08945 0.92246 0.31725 0.0
H756 H 0.08999 0.95854 0.33365 0.0
H757 H 0.20896 0.92476 0.24301 0.0
H758 H 0.18196 0.89692 0.2439 0.0
H759 H 0.17559 0.92905 0.22078 0.0
H760 H 0.10304 0.84626 0.23643 0.0
H761 H 0.09143 0.92181 0.17698 0.0
H762 H 0.12206 0.88166 0.31111 0.0
H763 H 0.15364 0.87142 0.28862 0.0
H764 H 0.12293 0.84772 0.28945 0.0
H765 H 0.10863 0.973 0.24093 0.0
H766 H 0.10252 0.96825 0.19717 0.0
H767 H 0.13834 0.96558 0.21404 0.0
C768 C 0.37636 0.94849 0.79683 0.0
C769 C 0.38876 0.9582 0.82658 0.0
C770 C 0.39304 0.9356 0.77164 0.0
C771 C 0.42325 0.93249 0.77564 0.0
C772 C 0.43615 0.9434 0.80495 0.0
C773 C 0.41882 0.95587 0.83007 0.0
C774 C 0.37802 0.92414 0.74124 0.0
C775 C 0.46824 0.94108 0.81025 0.0
C776 C 0.45702 0.8697 0.72768 0.0
C777 C 0.46704 0.88287 0.69853 0.0
C778 C 0.44378 0.88566 0.75323 0.0
C779 C 0.44062 0.9159 0.75024 0.0
C780 C 0.45208 0.92961 0.72171 0.0
C781 C 0.46493 0.913 0.69621 0.0
C782 C 0.43178 0.86983 0.78277 0.0
C783 C 0.44971 0.96176 0.71747 0.0
H784 H 0.35323 0.94998 0.79357 0.0
H785 H 0.42879 0.96319 0.8528 0.0
H786 H 0.38796 0.93322 0.7186 0.0
H787 H 0.3806 0.90042 0.73999 0.0
H788 H 0.35464 0.92928 0.74109 0.0
H789 H 0.47545 0.95322 0.83242 0.0
H790 H 0.47431 0.91815 0.81339 0.0
H791 H 0.47999 0.94926 0.78829 0.0
H792 H 0.45839 0.84651 0.73006 0.0
H793 H 0.47242 0.92358 0.67395 0.0
H794 H 0.40795 0.87188 0.78311 0.0
H795 H 0.43999 0.87946 0.80602 0.0
H796 H 0.43742 0.84659 0.78247 0.0
H797 H 0.42686 0.96773 0.71327 0.0
H798 H 0.4627 0.96962 0.69625 0.0
H799 H 0.45691 0.97297 0.74025 0.0
C800 C 0.59894 0.41435 0.83529 0.0
C801 C 0.59439 0.38461 0.83141 0.0
C802 C 0.6132 0.43076 0.81065 0.0
C803 C 0.62345 0.41726 0.78133 0.0
C804 C 0.61817 0.38744 0.77699 0.0
C805 C 0.60371 0.37168 0.80176 0.0
C806 C 0.6182 0.4624 0.81658 0.0
C807 C 0.62898 0.37176 0.74669 0.0
C808 C 0.64567 0.45876 0.70282 0.0
C809 C 0.67592 0.45889 0.7052 0.0
C810 C 0.62827 0.44644 0.72793 0.0
C811 C 0.64125 0.43353 0.75608 0.0
C812 C 0.67171 0.43437 0.75884 0.0
C813 C 0.68846 0.44718 0.73382 0.0
C814 C 0.59598 0.44633 0.72376 0.0
C815 C 0.68687 0.42117 0.788 0.0
H816 H 0.59223 0.42468 0.85807 0.0
H817 H 0.6006 0.34877 0.79828 0.0
H818 H 0.64149 0.46625 0.82087 0.0
H819 H 0.61185 0.47505 0.79451 0.0
H820 H 0.60601 0.47049 0.83834 0.0
H821 H 0.6529 0.37221 0.74625 0.0
H822 H 0.62184 0.34895 0.74601 0.0
H823 H 0.62133 0.38265 0.72395 0.0
H824 H 0.63557 0.46755 0.68091 0.0
H825 H 0.71172 0.44708 0.73629 0.0
H826 H 0.58541 0.45484 0.74638 0.0
H827 H 0.58835 0.42392 0.72024 0.0
H828 H 0.58897 0.45938 0.70223 0.0
H829 H 0.68113 0.43349 0.81053 0.0
H830 H 0.7107 0.42138 0.78527 0.0
H831 H 0.67976 0.39859 0.79146 0.0
C832 C 0.09176 0.67729 0.72586 0.0
C833 C 0.08972 0.66558 0.69382 0.0
C834 C 0.10491 0.66213 0.75207 0.0
C835 C 0.1162 0.63413 0.74667 0.0
C836 C 0.11305 0.62163 0.71477 0.0
C837 C 0.1 0.63744 0.68882 0.0
C838 C 0.10741 0.67651 0.78543 0.0
C839 C 0.12445 0.59185 0.70768 0.0
C840 C 0.17995 0.61067 0.80058 0.0
C841 C 0.16694 0.59408 0.82558 0.0
C842 C 0.16378 0.62356 0.77513 0.0
C843 C 0.13358 0.61926 0.77341 0.0
C844 C 0.12027 0.60188 0.79801 0.0
C845 C 0.13697 0.5899 0.82401 0.0
C846 C 0.17902 0.64276 0.75069 0.0
C847 C 0.0883 0.59622 0.79711 0.0
H848 H 0.08385 0.69891 0.73031 0.0
H849 H 0.09878 0.62807 0.66431 0.0
H850 H 0.09406 0.66476 0.80371 0.0
H851 H 0.13 0.67574 0.79431 0.0
H852 H 0.1002 0.69931 0.7849 0.0
H853 H 0.11753 0.58379 0.68307 0.0
H854 H 0.14835 0.59214 0.70838 0.0
H855 H 0.11705 0.57656 0.72694 0.0
H856 H 0.20296 0.61452 0.80144 0.0
H857 H 0.12654 0.5773 0.84309 0.0
H858 H 0.17016 0.6649 0.75248 0.0
H859 H 0.17518 0.63496 0.72515 0.0
H860 H 0.20264 0.64378 0.75501 0.0
H861 H 0.07643 0.61646 0.80227 0.0
H862 H 0.08166 0.57984 0.81557 0.0
H863 H 0.08177 0.58879 0.77213 0.0
C864 C 0.91693 0.09035 0.70178 0.0
C865 C 0.88671 0.09071 0.70261 0.0
C866 C 0.93331 0.10138 0.72851 0.0
C867 C 0.91917 0.11313 0.7567 0.0
C868 C 0.8887 0.11151 0.75844 0.0
C869 C 0.87297 0.10053 0.73146 0.0
C870 C 0.96568 0.10229 0.72557 0.0
C871 C 0.8725 0.12312 0.788 0.0
C872 C 0.95696 0.13557 0.83746 0.0
C873 C 0.95912 0.16558 0.83364 0.0
C874 C 0.9454 0.11793 0.81212 0.0
C875 C 0.93545 0.13047 0.78221 0.0
C876 C 0.93873 0.16056 0.77779 0.0
C877 C 0.95055 0.17756 0.80326 0.0
C878 C 0.94267 0.08602 0.81803 0.0
C879 C 0.92828 0.17519 0.74669 0.0
H880 H 0.92772 0.08341 0.67936 0.0
H881 H 0.84961 0.10109 0.73216 0.0
H882 H 0.97266 0.12475 0.72086 0.0
H883 H 0.97592 0.09524 0.74898 0.0
H884 H 0.97365 0.0885 0.70504 0.0
H885 H 0.84888 0.11966 0.78599 0.0
H886 H 0.88028 0.11261 0.81092 0.0
H887 H 0.8766 0.14653 0.79067 0.0
H888 H 0.96327 0.12593 0.86073 0.0
H889 H 0.95201 0.20063 0.79973 0.0
H890 H 0.94938 0.07371 0.79579 0.0
H891 H 0.9198 0.08065 0.82308 0.0
H892 H 0.95581 0.07886 0.83945 0.0
H893 H 0.93758 0.16454 0.72455 0.0
H894 H 0.93401 0.19839 0.74604 0.0
H895 H 0.90449 0.17325 0.74498 0.0
C896 C 0.40459 0.12726 0.40658 0.0
C897 C 0.42727 0.11534 0.42513 0.0
C898 C 0.37869 0.11205 0.40113 0.0
C899 C 0.37508 0.08408 0.41449 0.0
C900 C 0.39793 0.07182 0.43303 0.0
C901 C 0.42359 0.0875 0.43809 0.0
C902 C 0.35504 0.12605 0.38123 0.0
C903 C 0.39511 0.04219 0.44798 0.0
C904 C 0.29911 0.05493 0.43001 0.0
C905 C 0.29512 0.03577 0.40346 0.0
C906 C 0.3247 0.07097 0.43357 0.0
C907 C 0.34715 0.068 0.41002 0.0
C908 C 0.34307 0.04917 0.38276 0.0
C909 C 0.3172 0.03333 0.37981 0.0
C910 C 0.32792 0.09068 0.46304 0.0
C911 C 0.36634 0.04523 0.35708 0.0
H912 H 0.40714 0.14851 0.39599 0.0
H913 H 0.44061 0.07809 0.45287 0.0
H914 H 0.34933 0.11225 0.35982 0.0
H915 H 0.33537 0.12834 0.39665 0.0
H916 H 0.36129 0.14765 0.37195 0.0
H917 H 0.41507 0.03525 0.46085 0.0
H918 H 0.37705 0.04192 0.46598 0.0
H919 H 0.38997 1.02622 0.42845 0.0
H920 H 0.28239 0.05703 0.44858 0.0
H921 H 0.31457 1.01852 0.35931 0.0
H922 H 0.33314 0.11281 0.45472 0.0
H923 H 0.34606 0.08323 0.4787 0.0
H924 H 0.30811 0.0915 0.47845 0.0
H925 H 0.37244 0.06635 0.34643 0.0
H926 H 0.35952 0.03072 0.33669 0.0
H927 H 0.38591 0.03609 0.36881 0.0
C928 C 0.4539 0.40571 0.39178 0.0
C929 C 0.45355 0.41791 0.42364 0.0
C930 C 0.47091 0.3813 0.38432 0.0
C931 C 0.48814 0.36847 0.40924 0.0
C932 C 0.48793 0.38066 0.44141 0.0
C933 C 0.4708 0.40509 0.44816 0.0
C934 C 0.4704 0.36918 0.34969 0.0
C935 C 0.50596 0.36794 0.4688 0.0
C936 C 0.51358 0.29013 0.4012 0.0
C937 C 0.54256 0.29331 0.3917 0.0
C938 C 0.49554 0.31425 0.40628 0.0
C939 C 0.50654 0.34246 0.40177 0.0
C940 C 0.53552 0.34578 0.3913 0.0
C941 C 0.55309 0.32132 0.38646 0.0
C942 C 0.46486 0.30953 0.41744 0.0
C943 C 0.54828 0.3753 0.38604 0.0
H944 H 0.44051 0.41499 0.37263 0.0
H945 H 0.47128 0.41442 0.47271 0.0
H946 H 0.49249 0.36915 0.33917 0.0
H947 H 0.46293 0.34651 0.35023 0.0
H948 H 0.45608 0.38164 0.333 0.0
H949 H 0.50319 0.37961 0.49258 0.0
H950 H 0.50008 0.34504 0.47258 0.0
H951 H 0.52908 0.3685 0.46183 0.0
H952 H 0.50509 0.26875 0.40556 0.0
H953 H 0.5754 0.32425 0.37926 0.0
H954 H 0.44973 0.3207 0.40055 0.0
H955 H 0.46177 0.31891 0.44244 0.0
H956 H 0.45908 0.28635 0.41833 0.0
H957 H 0.53476 0.38782 0.36862 0.0
H958 H 0.57061 0.3743 0.37616 0.0
H959 H 0.54862 0.38723 0.40982 0.0
C960 C 0.15582 0.45646 0.45016 0.0
C961 C 0.14376 0.43758 0.42674 0.0
C962 C 0.18126 0.47197 0.44347 0.0
C963 C 0.19528 0.46873 0.41253 0.0
C964 C 0.18338 0.44961 0.38883 0.0
C965 C 0.15786 0.43435 0.39617 0.0
C966 C 0.19289 0.49225 0.46944 0.0
C967 C 0.19749 0.44546 0.35553 0.0
C968 C 0.24288 0.53153 0.38564 0.0
C969 C 0.27068 0.52211 0.39432 0.0
C970 C 0.21845 0.51411 0.39053 0.0
C971 C 0.22156 0.48638 0.40458 0.0
C972 C 0.24963 0.4763 0.41242 0.0
C973 C 0.27381 0.49422 0.40718 0.0
C974 C 0.18911 0.52585 0.38162 0.0
C975 C 0.25403 0.44693 0.42745 0.0
H976 H 0.14502 0.4596 0.47365 0.0
H977 H 0.14909 0.41964 0.37798 0.0
H978 H 0.21562 0.48679 0.47517 0.0
H979 H 0.19265 0.51463 0.45991 0.0
H980 H 0.18019 0.49156 0.49271 0.0
H981 H 0.18614 0.42923 0.34015 0.0
H982 H 0.19785 0.46619 0.34195 0.0
H983 H 0.2202 0.43854 0.35877 0.0
H984 H 0.24002 0.55297 0.37564 0.0
H985 H 0.29505 0.4867 0.41421 0.0
H986 H 0.17591 0.52834 0.40433 0.0
H987 H 0.17763 0.51058 0.36516 0.0
H988 H 0.19043 0.54706 0.36908 0.0
H989 H 0.24379 0.44621 0.45224 0.0
H990 H 0.27721 0.44142 0.43012 0.0
H991 H 0.24348 0.43024 0.41202 0.0
C992 C 0.09886 0.14757 0.39012 0.0
C993 C 0.0965 0.1332 0.42062 0.0
C994 C 0.08344 0.17314 0.38366 0.0
C995 C 0.06532 0.18512 0.40835 0.0
C996 C 0.06258 0.17065 0.43903 0.0
C997 C 0.07794 0.14493 0.44467 0.0
C998 C 0.08683 0.18756 0.35047 0.0
C999 C 0.04359 0.18254 0.46615 0.0
C1000 C 0.04641 0.26539 0.40659 0.0
C1001 C 1.01779 0.26512 0.39526 0.0
C1002 C 0.06226 0.23966 0.41036 0.0
C1003 C 0.04941 0.21285 0.40233 0.0
C1004 C 1.02091 0.21255 0.38974 0.0
C1005 C 1.00546 0.23854 0.38655 0.0
C1006 C 0.09245 0.24111 0.4241 0.0
C1007 C 1.00639 0.18463 0.38043 0.0
H1008 H 0.11336 0.13924 0.3714 0.0
H1009 H 0.07535 0.13398 0.46811 0.0
H1010 H 0.06541 0.19057 0.33878 0.0
H1011 H 0.09642 0.20923 0.35377 0.0
H1012 H 0.10072 0.17496 0.33337 0.0
H1013 H 0.04388 0.16892 0.4887 0.0
H1014 H 0.0508 0.20454 0.47293 0.0
H1015 H 1.02104 0.1843 0.45731 0.0
H1016 H 0.05618 0.28565 0.4137 0.0
H1017 H 0.98341 0.23792 0.37779 0.0
H1018 H 0.10773 0.23007 0.4072 0.0
H1019 H 0.09331 0.22972 0.44817 0.0
H1020 H 0.09985 0.26361 0.42786 0.0
H1021 H 1.02012 0.17232 0.36293 0.0
H1022 H 0.98495 0.18812 0.36891 0.0
H1023 H 1.00352 0.17113 0.40279 0.0
C1024 C 0.91731 0.9733 0.07084 0.0
C1025 C 0.93024 0.95842 0.09718 0.0
C1026 C 0.89224 0.98993 0.07543 0.0
C1027 C 0.87985 0.9925 0.10734 0.0
C1028 C 0.89327 0.97836 0.13428 0.0
C1029 C 0.91808 0.9614 0.12888 0.0
C1030 C 0.87912 1.00484 0.04595 0.0
C1031 C 0.88111 0.98075 0.1688 0.0
C1032 C 0.82698 0.05486 0.12015 0.0
C1033 C 0.80011 0.04124 0.11643 0.0
C1034 C 0.853 0.03922 0.11828 0.0
C1035 C 0.85238 1.00917 0.1122 0.0
C1036 C 0.82535 0.99519 0.10923 0.0
C1037 C 0.79967 1.01129 0.11155 0.0
C1038 C 0.8812 0.05508 0.12179 0.0
C1039 C 0.82356 0.96334 0.10212 0.0
H1040 H 0.92675 0.97191 0.04638 0.0
H1041 H 0.92747 0.94985 0.14948 0.0
H1042 H 0.85547 1.00133 0.04511 0.0
H1043 H 0.8829 1.0283 0.04817 0.0
H1044 H 0.88863 0.99736 0.02224 0.0
H1045 H 0.89492 0.96989 0.18742 0.0
H1046 H 0.87875 1.00373 0.17581 0.0
H1047 H 0.85932 0.97098 0.16962 0.0
H1048 H 0.82779 0.07796 0.12371 0.0
H1049 H 0.77921 1.00042 0.10832 0.0
H1050 H 0.89237 0.05565 0.09755 0.0
H1051 H 0.89556 0.04375 0.13942 0.0
H1052 H 0.87808 0.07757 0.13044 0.0
H1053 H 0.83354 0.95872 0.07773 0.0
H1054 H 0.80099 0.95541 0.10181 0.0
H1055 H 0.83581 0.95106 0.12095 0.0
C1056 C 0.54915 0.78137 0.12635 0.0
C1057 C 0.51915 0.78403 0.12999 0.0
C1058 C 0.56681 0.80576 0.12179 0.0
C1059 C 0.55428 0.83359 0.12044 0.0
C1060 C 0.52406 0.83642 0.12442 0.0
C1061 C 0.50696 0.81174 0.12928 0.0
C1062 C 0.59892 0.80169 0.11799 0.0
C1063 C 0.50964 0.86553 0.12288 0.0
C1064 C 0.60108 0.89984 0.13658 0.0
C1065 C 0.60717 0.90971 0.10444 0.0
C1066 C 0.58421 0.8751 0.14207 0.0
C1067 C 0.57269 0.85975 0.11485 0.0
C1068 C 0.57847 0.86965 0.08236 0.0
C1069 C 0.59564 0.89436 0.07756 0.0
C1070 C 0.57863 0.86546 0.17712 0.0
C1071 C 0.5665 0.85411 0.0526 0.0
H1072 H 0.55886 0.76016 0.12667 0.0
H1073 H 0.48382 0.81418 0.13166 0.0
H1074 H 0.60595 0.80965 0.09343 0.0
H1075 H 0.6105 0.81453 0.13693 0.0
H1076 H 0.60547 0.77879 0.12042 0.0
H1077 H 0.48598 0.86419 0.1268 0.0
H1078 H 0.51892 0.88004 0.14189 0.0
H1079 H 0.51371 0.87554 0.09844 0.0
H1080 H 0.60922 0.91168 0.15767 0.0
H1081 H 0.60034 0.90141 0.05261 0.0
H1082 H 0.58608 0.84295 0.18043 0.0
H1083 H 0.55515 0.86582 0.18228 0.0
H1084 H 0.58968 0.87929 0.1956 0.0
H1085 H 0.57435 0.83156 0.05225 0.0
H1086 H 0.57272 0.8646 0.02899 0.0
H1087 H 0.54264 0.85333 0.05408 0.0
C1088 C 0.65007 0.59108 0.07621 0.0
C1089 C 0.63786 0.6105 0.09901 0.0
C1090 C 0.67532 0.57535 0.0836 0.0
C1091 C 0.68904 0.57885 0.11467 0.0
C1092 C 0.67693 0.59843 0.1378 0.0
C1093 C 0.65165 0.61392 0.12975 0.0
C1094 C 0.68716 0.55467 0.05814 0.0
C1095 C 0.69065 0.60295 0.17121 0.0
C1096 C 0.73753 0.51701 0.14379 0.0
C1097 C 0.76532 0.52671 0.13545 0.0
C1098 C 0.71279 0.53393 0.1379 0.0
C1099 C 0.71554 0.56146 0.12316 0.0
C1100 C 0.74357 0.57177 0.11551 0.0
C1101 C 0.76801 0.55437 0.12172 0.0
C1102 C 0.68355 0.52191 0.14662 0.0
C1103 C 0.7477 0.60089 0.09978 0.0
H1104 H 0.63959 0.58772 0.0526 0.0
H1105 H 0.64287 0.62903 0.14753 0.0
H1106 H 0.70988 0.56015 0.05236 0.0
H1107 H 0.68703 0.53247 0.06818 0.0
H1108 H 0.67454 0.55491 0.03482 0.0
H1109 H 0.67892 0.61913 0.18635 0.0
H1110 H 0.69121 0.58232 0.18496 0.0
H1111 H 0.71328 0.61016 0.16812 0.0
H1112 H 0.73492 0.49573 0.1543 0.0
H1113 H 0.7892 0.56216 0.11488 0.0
H1114 H 0.67062 0.51899 0.1238 0.0
H1115 H 0.67168 0.53723 0.1627 0.0
H1116 H 0.68504 0.50086 0.15951 0.0
H1117 H 0.73744 0.60112 0.07501 0.0
H1118 H 0.77082 0.60655 0.09693 0.0
H1119 H 0.73699 0.61776 0.11486 0.0
C1120 C 0.05266 0.72792 0.12852 0.0
C1121 C 0.04018 0.75551 0.12777 0.0
C1122 C 0.03591 0.7028 0.12408 0.0
C1123 C 1.00575 0.70501 0.11876 0.0
C1124 C 0.99294 0.73275 0.11868 0.0
C1125 C 1.01019 0.75749 0.1231 0.0
C1126 C 0.05066 0.67385 0.12425 0.0
C1127 C 0.96098 0.73637 0.11317 0.0
C1128 C 0.966 0.64391 0.07385 0.0
C1129 C 0.95253 0.62899 0.0999 0.0
C1130 C 0.98345 0.66831 0.07964 0.0
C1131 C 0.9877 0.6785 0.11236 0.0
C1132 C 0.97427 0.66358 0.13879 0.0
C1133 C 0.95698 0.63917 0.1323 0.0
C1134 C 0.99719 0.68338 0.05059 0.0
C1135 C 0.97817 0.67343 0.17407 0.0
H1136 H 0.07576 0.72591 0.13176 0.0
H1137 H 1.00013 0.77853 0.1223 0.0
H1138 H 0.04021 0.65944 0.14252 0.0
H1139 H 0.04845 0.66354 0.09963 0.0
H1140 H 0.07395 0.67553 0.13029 0.0
H1141 H 0.95406 0.75922 0.11495 0.0
H1142 H 0.9551 0.72807 0.08835 0.0
H1143 H 0.94875 0.72363 0.13162 0.0
H1144 H 0.96255 0.6368 0.04864 0.0
H1145 H 0.94722 0.62781 0.15281 0.0
H1146 H 1.02092 0.6842 0.05381 0.0
H1147 H 0.9894 0.70593 0.04927 0.0
H1148 H 0.99236 0.67255 0.02673 0.0
H1149 H 1.0014 0.67344 0.18053 0.0
H1150 H 0.9665 0.65952 0.19193 0.0
H1151 H 0.97026 0.69584 0.17687 0.0
C1152 C 0.76821 1.00174 0.59772 0.0
C1153 C 0.77045 1.0225 0.62293 0.0
C1154 C 0.74302 0.98514 0.59353 0.0
C1155 C 0.71918 0.9892 0.61501 0.0
C1156 C 0.72156 1.00954 0.64106 0.0
C1157 C 0.74703 1.02587 0.64469 0.0
C1158 C 0.74164 0.96376 0.56544 0.0
C1159 C 0.69682 1.01467 0.6646 0.0
C1160 C 0.64416 0.96861 0.58309 0.0
C1161 C 0.63941 0.94165 0.59793 0.0
C1162 C 0.66978 0.98427 0.58858 0.0
C1163 C 0.6915 0.97289 0.60948 0.0
C1164 C 0.68685 0.94578 0.62465 0.0
C1165 C 0.66102 0.93057 0.61872 0.0
C1166 C 0.67371 1.01296 0.57169 0.0
C1167 C 0.70926 0.93277 0.64715 0.0
H1168 H 0.78595 0.9989 0.58057 0.0
H1169 H 0.74825 0.04189 0.66415 0.0
H1170 H 0.7358 0.94216 0.57495 0.0
H1171 H 0.7246 0.97028 0.54774 0.0
H1172 H 0.7624 0.96208 0.55187 0.0
H1173 H 0.70247 0.0301 0.68456 0.0
H1174 H 0.67805 1.02328 0.65081 0.0
H1175 H 0.69 0.99408 0.67603 0.0
H1176 H 0.62801 0.97734 0.56657 0.0
H1177 H 0.65764 0.91003 0.63074 0.0
H1178 H 0.69289 1.0122 0.55532 0.0
H1179 H 0.67763 0.03001 0.59037 0.0
H1180 H 0.65467 1.01914 0.55665 0.0
H1181 H 0.72978 0.92978 0.63346 0.0
H1182 H 0.70242 0.91164 0.65727 0.0
H1183 H 0.71373 0.94757 0.66806 0.0
C1184 C 0.60418 0.64804 0.63919 0.0
C1185 C 0.606 0.63493 0.60786 0.0
C1186 C 0.58734 0.67302 0.64455 0.0
C1187 C 0.57182 0.68559 0.618 0.0
C1188 C 0.57364 0.67255 0.58633 0.0
C1189 C 0.59057 0.64758 0.58168 0.0
C1190 C 0.58601 0.6859 0.67878 0.0
C1191 C 0.55773 0.68509 0.55715 0.0
C1192 C 0.50693 0.73521 0.63398 0.0
C1193 C 0.51858 0.7628 0.62882 0.0
C1194 C 0.52404 0.71012 0.63133 0.0
C1195 C 0.55371 0.71232 0.62317 0.0
C1196 C 0.56576 0.74011 0.61871 0.0
C1197 C 0.54817 0.76485 0.6216 0.0
C1198 C 0.51011 0.68113 0.63644 0.0
C1199 C 0.59716 0.74372 0.60991 0.0
H1200 H 0.6156 0.63849 0.6598 0.0
H1201 H 0.59203 0.63818 0.55721 0.0
H1202 H 0.5936 0.70853 0.67816 0.0
H1203 H 0.56338 0.68623 0.68766 0.0
H1204 H 0.59932 0.67376 0.69683 0.0
H1205 H 0.56126 0.67251 0.53412 0.0
H1206 H 0.53427 0.68577 0.5624 0.0
H1207 H 0.56486 0.70756 0.55286 0.0
H1208 H 0.48416 0.7331 0.63941 0.0
H1209 H 0.55758 0.78586 0.61732 0.0
H1210 H 0.52221 0.66864 0.65522 0.0
H1211 H 0.5108 0.66866 0.61304 0.0
H1212 H 0.4873 0.683 0.64454 0.0
H1213 H 0.6109 0.73266 0.6284 0.0
H1214 H 0.60364 0.7667 0.60867 0.0
H1215 H 0.60153 0.73355 0.58558 0.0
C1216 C 0.91477 0.60661 0.62482 0.0
C1217 C 0.92132 0.61584 0.59254 0.0
C1218 C 0.88984 0.59015 0.63173 0.0
C1219 C 0.87065 0.58249 0.60587 0.0
C1220 C 0.87681 0.59216 0.57337 0.0
C1221 C 0.90184 0.60862 0.56716 0.0
C1222 C 0.88443 0.5803 0.66672 0.0
C1223 C 0.85719 0.58464 0.54489 0.0
C1224 C 0.82484 0.51438 0.61524 0.0
C1225 C 0.79734 0.52521 0.62328 0.0
C1226 C 0.84857 0.53265 0.60968 0.0
C1227 C 0.84524 0.56289 0.61234 0.0
C1228 C 0.81763 0.57408 0.62069 0.0
C1229 C 0.79406 0.5552 0.6259 0.0
C1230 C 0.87725 0.51948 0.60046 0.0
C1231 C 0.81294 0.60609 0.6238 0.0
H1232 H 0.92957 0.61157 0.64472 0.0
H1233 H 0.90609 0.61593 0.54221 0.0
H1234 H 0.86243 0.58661 0.67469 0.0
H1235 H 0.88566 0.55648 0.6679 0.0
H1236 H 0.90027 0.58943 0.68444 0.0
H1237 H 0.86414 0.59482 0.52137 0.0
H1238 H 0.85677 0.56096 0.54134 0.0
H1239 H 0.83482 0.59158 0.55045 0.0
H1240 H 0.82788 0.49136 0.6127 0.0
H1241 H 0.77304 0.56397 0.63186 0.0
H1242 H 0.89401 0.52625 0.61839 0.0
H1243 H 0.88404 0.52725 0.57574 0.0
H1244 H 0.87649 0.49558 0.59987 0.0
H1245 H 0.8279 0.61518 0.64247 0.0
H1246 H 0.79049 0.61149 0.63107 0.0
H1247 H 0.81781 0.61673 0.5999 0.0
C1248 C 0.95685 0.91013 0.63288 0.0
C1249 C 0.95771 0.92391 0.60193 0.0
C1250 C 0.97242 0.88447 0.63895 0.0
C1251 C 0.98943 0.87193 0.61354 0.0
C1252 C 0.9903 0.88563 0.58223 0.0
C1253 C 0.97454 0.91123 0.57684 0.0
C1254 C 0.97083 0.87088 0.67276 0.0
C1255 C 1.00794 0.8732 0.55426 0.0
C1256 C 0.05174 0.82056 0.63449 0.0
C1257 C 0.03997 0.79333 0.62745 0.0
C1258 C 0.03545 0.84607 0.63078 0.0
C1259 C 1.0065 0.84469 0.61962 0.0
C1260 C 0.99427 0.81724 0.6132 0.0
C1261 C 1.01104 0.79205 0.61716 0.0
C1262 C 0.04956 0.87464 0.63803 0.0
C1263 C 0.96359 0.81451 0.60128 0.0
H1264 H 0.94435 0.91966 0.65271 0.0
H1265 H 0.97515 0.92113 0.55262 0.0
H1266 H 0.96293 0.84842 0.67066 0.0
H1267 H 0.99267 0.86994 0.68385 0.0
H1268 H 0.95638 0.88291 0.68979 0.0
H1269 H 1.00634 0.88624 0.53134 0.0
H1270 H 0.03093 0.87189 0.56162 0.0
H1271 H 1.00066 0.85098 0.54872 0.0
H1272 H 0.07401 0.82208 0.64231 0.0
H1273 H 1.00159 0.77132 0.61142 0.0
H1274 H 0.03639 0.88705 0.65598 0.0
H1275 H 0.05083 0.88755 0.61502 0.0
H1276 H 0.07165 0.87212 0.64817 0.0
H1277 H 0.94874 0.82555 0.61869 0.0
H1278 H 0.95675 0.79171 0.59876 0.0
H1279 H 0.9613 0.8252 0.57692 0.0
C1280 C 0.1493 0.09152 0.95702 0.0
C1281 C 0.13583 0.10781 0.93207 0.0
C1282 C 0.17494 0.07584 0.95106 0.0
C1283 C 0.18793 0.0762 0.91928 0.0
C1284 C 0.17475 0.09291 0.89409 0.0
C1285 C 0.14909 0.10842 0.90073 0.0
C1286 C 0.18799 0.05851 0.97884 0.0
C1287 C 0.18747 0.09393 0.85977 0.0
C1288 C 0.26697 0.05084 0.91136 0.0
C1289 C 0.26381 1.02197 0.90153 0.0
C1290 C 0.24267 0.06884 0.91667 0.0
C1291 C 0.21432 0.05794 0.91207 0.0
C1292 C 0.21112 0.02903 0.90142 0.0
C1293 C 0.23566 1.01157 0.89637 0.0
C1294 C 0.24733 0.09941 0.92803 0.0
C1295 C 0.18161 1.01619 0.89603 0.0
H1296 H 0.13988 0.09111 0.98153 0.0
H1297 H 0.13901 0.1205 0.88099 0.0
H1298 H 0.18805 0.03533 0.97221 0.0
H1299 H 0.21074 0.065 0.98275 0.0
H1300 H 0.17605 0.06124 1.00246 0.0
H1301 H 0.17564 0.10895 0.8433 0.0
H1302 H 0.21037 0.1007 0.86095 0.0
H1303 H 0.18699 0.07212 0.84858 0.0
H1304 H 0.28842 0.05922 0.91573 0.0
H1305 H 0.23262 0.98939 0.88882 0.0
H1306 H 0.23781 0.10241 0.95298 0.0
H1307 H 0.2362 0.11456 0.91114 0.0
H1308 H 0.27054 0.10518 0.92909 0.0
H1309 H 0.1695 1.01601 0.91969 0.0
H1310 H 0.18267 0.99383 0.88635 0.0
H1311 H 0.16916 0.02955 0.87837 0.0
C1312 C 0.46084 0.13886 0.89345 0.0
C1313 C 0.45237 0.13093 0.92563 0.0
C1314 C 0.47806 0.16348 0.88751 0.0
C1315 C 0.48733 0.18098 0.91427 0.0
C1316 C 0.47901 0.17306 0.94678 0.0
C1317 C 0.4618 0.14836 0.95202 0.0
C1318 C 0.48627 0.17084 0.85243 0.0
C1319 C 0.48835 0.19073 0.9762 0.0
C1320 C 0.55293 0.23101 0.90421 0.0
C1321 C 0.54014 0.25824 0.89988 0.0
C1322 C 0.53616 0.20586 0.90852 0.0
C1323 C 0.5056 0.20755 0.90837 0.0
C1324 C 0.49256 0.23488 0.90343 0.0
C1325 C 0.50986 0.25973 0.89941 0.0
C1326 C 0.55127 0.17751 0.91409 0.0
C1327 C 0.4602 0.23801 0.90309 0.0
H1328 H 0.45362 0.12605 0.87266 0.0
H1329 H 0.45606 0.14248 0.97708 0.0
H1330 H 0.478 0.19254 0.84605 0.0
H1331 H 0.51008 0.17155 0.85002 0.0
H1332 H 0.47767 0.15508 0.83429 0.0
H1333 H 0.48077 0.1815 0.99998 0.0
H1334 H 0.51219 0.19224 0.97683 0.0
H1335 H 0.47988 0.21297 0.97396 0.0
H1336 H 0.57621 0.22937 0.90519 0.0
H1337 H 0.49954 0.28049 0.89639 0.0
H1338 H 0.54369 0.16134 0.89586 0.0
H1339 H 0.54592 0.1692 0.93905 0.0
H1340 H 0.57507 0.17942 0.91206 0.0
H1341 H 0.45073 0.2235 0.88421 0.0
H1342 H 0.45326 0.26042 0.89778 0.0
H1343 H 0.45125 0.23153 0.92742 0.0
C1344 C 0.3968 0.45177 0.95034 0.0
C1345 C 0.41358 0.44108 0.92406 0.0
C1346 C 0.37167 0.46811 0.94467 0.0
C1347 C 0.36275 0.47401 0.91186 0.0
C1348 C 0.37922 0.46285 0.8852 0.0
C1349 C 0.40432 0.44659 0.89158 0.0
C1350 C 0.35489 0.47946 0.97391 0.0
C1351 C 0.3707 0.46868 0.84984 0.0
C1352 C 0.28519 0.50059 0.89875 0.0
C1353 C 0.28896 0.53054 0.897 0.0
C1354 C 0.30896 0.48186 0.90288 0.0
C1355 C 0.33724 0.49327 0.90559 0.0
C1356 C 0.34116 0.52343 0.90336 0.0
C1357 C 0.31715 0.54155 0.89902 0.0
C1358 C 0.30374 0.44989 0.90508 0.0
C1359 C 0.37072 0.53674 0.90645 0.0
H1360 H 0.40325 0.44728 0.97554 0.0
H1361 H 0.41711 0.43878 0.87101 0.0
H1362 H 0.3547 0.50333 0.97345 0.0
H1363 H 0.33216 0.47221 0.97248 0.0
H1364 H 0.36409 0.47231 0.99788 0.0
H1365 H 0.3847 0.45715 0.83188 0.0
H1366 H 0.34802 0.46211 0.84565 0.0
H1367 H 0.37207 0.49211 0.84481 0.0
H1368 H 0.26361 0.49176 0.89745 0.0
H1369 H 0.32055 0.5646 0.89802 0.0
H1370 H 0.31032 0.44196 0.92981 0.0
H1371 H 0.3171 0.43839 0.88651 0.0
H1372 H 0.28075 0.44423 0.90101 0.0
H1373 H 0.37962 0.53229 0.93137 0.0
H1374 H 0.37035 0.56042 0.90269 0.0
H1375 H 0.38565 0.52703 0.88812 0.0
C1376 C 0.10442 0.40286 0.89699 0.0
C1377 C 0.11125 0.41282 0.92889 0.0
C1378 C 0.08863 0.37721 0.89212 0.0
C1379 C 0.07933 0.36085 0.91973 0.0
C1380 C 0.08683 0.37036 0.95192 0.0
C1381 C 0.10261 0.39604 0.95607 0.0
C1382 C 0.08106 0.36812 0.85737 0.0
C1383 C 0.07751 0.35376 0.98215 0.0
C1384 C 1.01123 0.31514 0.91246 0.0
C1385 C 1.02209 0.28692 0.90973 0.0
C1386 C 0.02955 0.33911 0.91526 0.0
C1387 C 0.05982 0.33521 0.91525 0.0
C1388 C 0.07107 0.30688 0.91194 0.0
C1389 C 0.05211 0.2831 0.90928 0.0
C1390 C 1.01635 0.36868 0.91889 0.0
C1391 C 0.10315 0.30166 0.91177 0.0
H1392 H 0.11066 0.41559 0.87574 0.0
H1393 H 0.10815 0.40303 0.98083 0.0
H1394 H 0.08743 0.34539 0.85316 0.0
H1395 H 0.05739 0.36947 0.85385 0.0
H1396 H 0.09168 0.3818 0.83844 0.0
H1397 H 0.08655 0.36291 1.00532 0.0
H1398 H 0.05365 0.35393 0.98402 0.0
H1399 H 0.08437 0.33096 0.98005 0.0
H1400 H 0.98814 0.31863 0.9129 0.0
H1401 H 0.06083 0.26152 0.90731 0.0
H1402 H 1.02468 0.3832 0.89935 0.0
H1403 H 1.02253 0.37811 0.94308 0.0
H1404 H 0.99244 0.36823 0.91734 0.0
H1405 H 0.1135 0.31466 0.89209 0.0
H1406 H 0.10859 0.27863 0.90773 0.0
H1407 H 0.11253 0.30866 0.93568 0.0
C1408 C 0.77196 0.20916 0.39792 0.0
C1409 C 0.74274 0.20456 0.39237 0.0
C1410 C 0.78089 0.22528 0.42531 0.0
C1411 C 0.75984 0.23665 0.44743 0.0
C1412 C 0.73146 0.226 0.44602 0.0
C1413 C 0.72301 0.21051 0.41792 0.0
C1414 C 0.81198 0.23436 0.42631 0.0
C1415 C 0.70933 0.23422 0.47178 0.0
C1416 C 0.802 0.29418 0.48721 0.0
C1417 C 0.80112 0.31278 0.45974 0.0
C1418 C 0.78377 0.27005 0.4879 0.0
C1419 C 0.76472 0.26589 0.46119 0.0
C1420 C 0.75749 0.28981 0.44105 0.0
C1421 C 0.77531 0.31401 0.44187 0.0
C1422 C 0.78765 0.24738 0.51407 0.0
C1423 C 0.73465 0.28816 0.41451 0.0
H1424 H 0.78724 0.20409 0.37844 0.0
H1425 H 0.70029 0.20719 0.4137 0.0
H1426 H 0.81388 0.25537 0.41361 0.0
H1427 H 0.81988 0.23642 0.45197 0.0
H1428 H 0.82608 0.21876 0.41313 0.0
H1429 H 0.71264 0.22058 0.49392 0.0
H1430 H 0.71173 0.25683 0.48008 0.0
H1431 H 0.68698 0.23108 0.46273 0.0
H1432 H 0.82015 0.2951 0.50405 0.0
H1433 H 0.77226 0.33038 0.42318 0.0
H1434 H 0.76728 0.23536 0.51814 0.0
H1435 H 0.79465 0.25728 0.53774 0.0
H1436 H 0.80447 0.23181 0.50629 0.0
H1437 H 0.74215 0.27378 0.39438 0.0
H1438 H 0.72987 0.30959 0.40367 0.0
H1439 H 0.71432 0.27926 0.42454 0.0
C1440 C 0.32109 0.73155 0.40231 0.0
C1441 C 0.3143 0.74441 0.37205 0.0
C1442 C 0.33008 0.74809 0.42908 0.0
C1443 C 0.33221 0.77819 0.42549 0.0
C1444 C 0.32626 0.79109 0.39435 0.0
C1445 C 0.31747 0.7739 0.36776 0.0
C1446 C 0.33602 0.73317 0.46124 0.0
C1447 C 0.32828 0.82311 0.38935 0.0
C1448 C 0.31655 0.83209 0.49139 0.0
C1449 C 0.33976 0.85018 0.48326 0.0
C1450 C 0.31328 0.80684 0.47295 0.0
C1451 C 0.33725 0.79678 0.45462 0.0
C1452 C 0.36462 0.8095 0.46021 0.0
C1453 C 0.36577 0.83597 0.47692 0.0
C1454 C 0.28337 0.79471 0.46843 0.0
C1455 C 0.39186 0.79682 0.44646 0.0
H1456 H 0.31896 0.70841 0.40511 0.0
H1457 H 0.3125 0.78343 0.34399 0.0
H1458 H 0.35123 0.74577 0.47648 0.0
H1459 H 0.3155 0.73035 0.47485 0.0
H1460 H 0.34493 0.71131 0.45706 0.0
H1461 H 0.3227 0.8297 0.36375 0.0
H1462 H 0.31341 0.8342 0.40669 0.0
H1463 H 0.35058 0.83027 0.39468 0.0
H1464 H 0.29785 0.84068 0.50397 0.0
H1465 H 0.38574 0.84804 0.47744 0.0
H1466 H 0.28377 0.77111 0.46468 0.0
H1467 H 0.27357 0.80452 0.4461 0.0
H1468 H 0.26928 0.79985 0.48987 0.0
H1469 H 0.39756 0.77807 0.46198 0.0
H1470 H 0.41012 0.81225 0.44728 0.0
H1471 H 0.38886 0.78945 0.4206 0.0
C1472 C 0.29318 0.69904 0.12963 0.0
C1473 C 0.32234 0.6934 0.13465 0.0
C1474 C 0.28448 0.71684 0.10357 0.0
C1475 C 0.30565 0.72878 0.08206 0.0
C1476 C 0.33394 0.71777 0.08282 0.0
C1477 C 0.34212 0.70042 0.10951 0.0
C1478 C 0.25351 0.72653 0.10302 0.0
C1479 C 0.35618 0.7267 0.05756 0.0
C1480 C 0.26318 0.78642 0.04326 0.0
C1481 C 0.2624 0.80371 0.07187 0.0
C1482 C 0.28203 0.76277 0.0421 0.0
C1483 C 0.30064 0.75824 0.06914 0.0
C1484 C 0.30654 0.78155 0.09072 0.0
C1485 C 0.28747 0.80484 0.09118 0.0
C1486 C 0.27901 0.74072 0.01505 0.0
C1487 C 0.32924 0.77964 0.11737 0.0
H1488 H 0.27785 0.69321 0.14874 0.0
H1489 H 0.36477 0.69608 0.11311 0.0
H1490 H 0.25201 0.7479 0.11512 0.0
H1491 H 0.24543 0.72828 0.07737 0.0
H1492 H 0.23927 0.71147 0.11671 0.0
H1493 H 0.37848 0.72364 0.06684 0.0
H1494 H 0.35342 0.7133 0.0351 0.0
H1495 H 0.35346 0.74938 0.04974 0.0
H1496 H 0.24572 0.7877 0.02554 0.0
H1497 H 0.28927 0.82024 0.11118 0.0
H1498 H 0.30007 0.73027 1.00991 0.0
H1499 H 0.27072 0.75071 0.99201 0.0
H1500 H 0.26352 0.72386 0.02278 0.0
H1501 H 0.32194 0.7646 0.13693 0.0
H1502 H 0.33345 0.8009 0.129 0.0
H1503 H 0.34978 0.77134 0.1071 0.0
C1504 C 0.80322 0.30138 0.08639 0.0
C1505 C 0.80451 0.33099 0.08923 0.0
C1506 C 0.80048 0.28851 0.05548 0.0
C1507 C 0.79829 0.30578 0.02651 0.0
C1508 C 0.80147 0.33598 0.02937 0.0
C1509 C 0.80502 0.34826 0.06089 0.0
C1510 C 0.79939 0.25633 0.0544 0.0
C1511 C 0.80094 0.35541 0.99966 0.0
C1512 C 0.80102 0.24832 0.96502 0.0
C1513 C 0.77424 0.23691 0.97477 0.0
C1514 C 0.80896 0.27589 0.97613 0.0
C1515 C 0.78889 0.29182 0.99509 0.0
C1516 C 0.75942 0.28457 0.99232 0.0
C1517 C 0.75215 0.25703 0.98089 0.0
C1518 C 0.83961 0.28555 0.97181 0.0
C1519 C 0.73631 0.30302 1.00769 0.0
H1520 H 0.80348 0.28831 0.10861 0.0
H1521 H 0.8073 0.37135 0.06347 0.0
H1522 H 0.77768 0.2494 0.04638 0.0
H1523 H 0.81594 0.24869 0.03678 0.0
H1524 H 0.80386 0.24624 0.07876 0.0
H1525 H 0.82309 0.35718 0.98955 0.0
H1526 H 0.78689 0.34669 0.97995 0.0
H1527 H 0.7935 0.37741 1.00628 0.0
H1528 H 0.81745 0.2342 0.95496 0.0
H1529 H 0.73005 0.25005 0.9837 0.0
H1530 H 0.85408 0.2709 0.98563 0.0
H1531 H 0.8429 0.308 0.98027 0.0
H1532 H 0.84575 0.28397 0.94531 0.0
H1533 H 0.73362 0.29688 0.03403 0.0
H1534 H 0.71532 0.29989 0.99501 0.0
H1535 H 0.74228 0.32607 1.00666 0.0
C1536 C 0.26858 0.70385 0.64046 0.0
C1537 C 0.23957 0.69634 0.64291 0.0
C1538 C 0.27721 0.72445 0.61721 0.0
C1539 C 0.25644 0.73561 0.59459 0.0
C1540 C 0.22967 0.72171 0.59137 0.0
C1541 C 0.22116 0.70278 0.61629 0.0
C1542 C 0.30675 0.73769 0.62131 0.0
C1543 C 0.20819 0.72982 0.56493 0.0
C1544 C 0.26126 0.81403 0.60711 0.0
C1545 C 0.28874 0.81691 0.59342 0.0
C1546 C 0.24672 0.78783 0.60374 0.0
C1547 C 0.25925 0.76594 0.58375 0.0
C1548 C 0.28122 0.77333 0.56137 0.0
C1549 C 0.29617 0.79909 0.56654 0.0
C1550 C 0.2213 0.78218 0.62611 0.0
C1551 C 0.29145 0.75224 0.53561 0.0
H1552 H 0.28296 0.69819 0.66057 0.0
H1553 H 0.19853 0.69773 0.61799 0.0
H1554 H 0.31862 0.73785 0.59758 0.0
H1555 H 0.30449 0.76023 0.62981 0.0
H1556 H 0.32013 0.72598 0.63966 0.0
H1557 H 0.18709 0.73536 0.57624 0.0
H1558 H 0.21556 0.74779 0.54901 0.0
H1559 H 0.2044 0.71088 0.54892 0.0
H1560 H 0.2543 0.82926 0.62583 0.0
H1561 H 0.31637 0.80222 0.55362 0.0
H1562 H 0.2272 0.76577 0.64474 0.0
H1563 H 0.2029 0.77384 0.61161 0.0
H1564 H 0.21404 0.80185 0.63936 0.0
H1565 H 0.30969 0.76101 0.52109 0.0
H1566 H 0.27328 0.74702 0.51882 0.0
H1567 H 0.29839 0.7317 0.54695 0.0
C1568 C 0.79411 0.20698 0.82344 0.0
C1569 C 0.8092 0.20479 0.79342 0.0
C1570 C 0.79118 0.23379 0.83925 0.0
C1571 C 0.80202 0.2586 0.82332 0.0
C1572 C 0.82215 0.25525 0.79708 0.0
C1573 C 0.82568 0.22819 0.78272 0.0
C1574 C 0.77389 0.23577 0.87073 0.0
C1575 C 0.83605 0.28062 0.77995 0.0
C1576 C 0.7557 0.31366 0.78654 0.0
C1577 C 0.77433 0.33703 0.79021 0.0
C1578 C 0.76108 0.28788 0.80317 0.0
C1579 C 0.78543 0.28595 0.82429 0.0
C1580 C 0.79953 0.31146 0.83412 0.0
C1581 C 0.79496 0.33661 0.8156 0.0
C1582 C 0.74335 0.26184 0.79396 0.0
C1583 C 0.82139 0.31116 0.86165 0.0
H1584 H 0.7826 0.18847 0.83297 0.0
H1585 H 0.83817 0.22652 0.76014 0.0
H1586 H 0.77364 0.25788 0.88119 0.0
H1587 H 0.75145 0.22853 0.86623 0.0
H1588 H 0.78321 0.22093 0.88939 0.0
H1589 H 0.85322 0.27386 0.76241 0.0
H1590 H 0.81951 0.2927 0.76581 0.0
H1591 H 0.84583 0.29544 0.79816 0.0
H1592 H 0.73913 0.31424 0.76767 0.0
H1593 H 0.80841 0.35525 0.8198 0.0
H1594 H 0.73601 0.25056 0.81653 0.0
H1595 H 0.75659 0.24666 0.77912 0.0
H1596 H 0.72401 0.26765 0.77922 0.0
H1597 H 0.81071 0.30414 0.88485 0.0
H1598 H 0.83106 0.3327 0.86569 0.0
H1599 H 0.8388 0.29542 0.85645 0.0
C1600 C 0.85148 0.37964 0.90728 0.0
C1601 C 0.87561 0.38746 0.88892 0.0
C1602 C 0.82586 0.39506 0.90445 0.0
C1603 C 0.82539 0.42113 0.88589 0.0
C1604 C 0.85192 0.43239 0.8741 0.0
C1605 C 0.87651 0.41457 0.87393 0.0
C1606 C 0.79908 0.38084 0.91791 0.0
C1607 C 0.85424 0.46214 0.8596 0.0
C1608 C 0.7632 0.40899 0.83369 0.0
C1609 C 0.74269 0.40846 0.85892 0.0
C1610 C 0.7906 0.42042 0.83937 0.0
C1611 C 0.79733 0.4307 0.87143 0.0
C1612 C 0.77427 0.43803 0.89279 0.0
C1613 C 0.74685 0.42601 0.88677 0.0
C1614 C 0.81299 0.41793 0.81248 0.0
C1615 C 0.77943 0.45542 0.92363 0.0
H1616 H 0.85128 0.35892 0.91965 0.0
H1617 H 0.89572 0.42117 0.8607 0.0
H1618 H 0.79091 0.39348 0.93909 0.0
H1619 H 0.78223 0.37936 0.8988 0.0
H1620 H 0.80313 0.35853 0.92651 0.0
H1621 H 0.86376 0.46104 0.83444 0.0
H1622 H 0.83325 0.47357 0.85869 0.0
H1623 H 0.86931 0.47502 0.87495 0.0
H1624 H 0.75886 0.39757 0.811 0.0
H1625 H 0.73008 0.42771 0.90532 0.0
H1626 H 0.8299 0.40221 0.81953 0.0
H1627 H 0.82332 0.43909 0.80845 0.0
H1628 H 0.80342 0.41118 0.78862 0.0
H1629 H 0.80074 0.46628 0.92303 0.0
H1630 H 0.77841 0.44147 0.94577 0.0
H1631 H 0.76228 0.47193 0.92625 0.0
C1632 C 0.16617 0.87215 0.77073 0.0
C1633 C 0.1744 0.87683 0.8038 0.0
C1634 C 0.15677 0.84476 0.76068 0.0
C1635 C 0.15568 0.82253 0.78439 0.0
C1636 C 0.15506 0.82996 0.81831 0.0
C1637 C 0.1645 0.85736 0.82779 0.0
C1638 C 0.15382 0.83828 0.72435 0.0
C1639 C 0.15072 0.80744 0.84468 0.0
C1640 C 0.16371 0.74181 0.77646 0.0
C1641 C 0.19365 0.73916 0.78054 0.0
C1642 C 0.15066 0.76902 0.77393 0.0
C1643 C 0.16805 0.79397 0.77581 0.0
C1644 C 0.19855 0.79107 0.77617 0.0
C1645 C 0.2108 0.76381 0.77893 0.0
C1646 C 0.11829 0.77066 0.77139 0.0
C1647 C 0.21859 0.8167 0.77688 0.0
H1648 H 0.1715 0.88802 0.75209 0.0
H1649 H 0.1688 0.8612 0.85373 0.0
H1650 H 0.17528 0.83273 0.71398 0.0
H1651 H 0.13918 0.81975 0.72014 0.0
H1652 H 0.14556 0.85736 0.71081 0.0
H1653 H 0.14608 0.81732 0.86914 0.0
H1654 H 0.1327 0.79293 0.838 0.0
H1655 H 0.17056 0.7942 0.84696 0.0
H1656 H 0.15037 0.72272 0.77653 0.0
H1657 H 0.23392 0.76212 0.78215 0.0
H1658 H 0.11024 0.75405 0.75393 0.0
H1659 H 0.11068 0.7921 0.76311 0.0
H1660 H 0.10864 0.76583 0.79586 0.0
H1661 H 0.21372 0.83142 0.75612 0.0
H1662 H 0.24162 0.8104 0.77482 0.0
H1663 H 0.21583 0.82859 0.80045 0.0
C1664 C 0.68116 0.15267 0.43 0.0
C1665 C 0.66355 0.17126 0.44854 0.0
C1666 C 0.7048 0.13814 0.44447 0.0
C1667 C 0.71108 0.14205 0.47854 0.0
C1668 C 0.69275 0.16016 0.49754 0.0
C1669 C 0.66914 0.17416 0.48248 0.0
C1670 C 0.72326 0.11888 0.42315 0.0
C1671 C 0.69853 0.16541 0.53377 0.0
C1672 C 0.75456 0.08919 0.53133 0.0
C1673 C 0.78129 0.10311 0.53427 0.0
C1674 C 0.7323 0.10051 0.51146 0.0
C1675 C 0.73635 0.12704 0.49474 0.0
C1676 C 0.76388 0.14039 0.4964 0.0
C1677 C 0.78599 0.12825 0.51598 0.0
C1678 C 0.7038 0.08494 0.51009 0.0
C1679 C 0.76938 0.16873 0.47965 0.0
H1680 H 0.67644 0.14956 0.40404 0.0
H1681 H 0.65569 0.1884 0.49711 0.0
H1682 H 0.74524 0.12808 0.42112 0.0
H1683 H 0.72536 0.09732 0.43467 0.0
H1684 H 0.71432 0.1163 0.39785 0.0
H1685 H 0.68274 0.18053 0.54499 0.0
H1686 H 0.69772 0.14479 0.54751 0.0
H1687 H 0.72049 0.17442 0.537 0.0
H1688 H 0.75055 0.0701 0.54604 0.0
H1689 H 0.80621 0.13964 0.51899 0.0
H1690 H 0.69606 0.08341 0.4842 0.0
H1691 H 0.68743 0.0972 0.52433 0.0
H1692 H 0.70525 0.0629 0.52059 0.0
H1693 H 0.76163 0.16803 0.45377 0.0
H1694 H 0.79257 0.17464 0.47968 0.0
H1695 H 0.75718 0.1858 0.49278 0.0
C1696 C 0.45935 0.76325 0.51515 0.0
C1697 C 0.44017 0.77672 0.53724 0.0
C1698 C 0.45135 0.73816 0.49707 0.0
C1699 C 0.42309 0.72622 0.50032 0.0
C1700 C 0.40414 0.7394 0.52358 0.0
C1701 C 0.41264 0.76437 0.54084 0.0
C1702 C 0.47386 0.72416 0.47542 0.0
C1703 C 0.37527 0.7267 0.53288 0.0
C1704 C 0.39147 0.67742 0.43159 0.0
C1705 C 0.38583 0.65172 0.44858 0.0
C1706 C 0.40546 0.70099 0.44699 0.0
C1707 C 0.41352 0.69958 0.48102 0.0
C1708 C 0.41001 0.67267 0.49735 0.0
C1709 C 0.39597 0.6495 0.48127 0.0
C1710 C 0.41085 0.72705 0.42584 0.0
C1711 C 0.4206 0.66801 0.5322 0.0
H1712 H 0.48096 0.77179 0.51258 0.0
H1713 H 0.39757 0.77362 0.55839 0.0
H1714 H 0.46943 0.70102 0.47094 0.0
H1715 H 0.4746 0.7354 0.45126 0.0
H1716 H 0.49557 0.72618 0.48675 0.0
H1717 H 0.35886 0.74399 0.5352 0.0
H1718 H 0.36734 0.71019 0.5154 0.0
H1719 H 0.37708 0.71668 0.55769 0.0
H1720 H 0.38467 0.67941 0.40605 0.0
H1721 H 0.39268 0.62963 0.49474 0.0
H1722 H 0.42103 0.72037 0.40217 0.0
H1723 H 0.4249 0.74324 0.43757 0.0
H1724 H 0.38994 0.73707 0.41935 0.0
H1725 H 0.43809 0.68314 0.53909 0.0
H1726 H 0.42869 0.64566 0.5353 0.0
H1727 H 0.40237 0.67084 0.54966 0.0
C1728 C 0.88397 0.40527 0.43675 0.0
C1729 C 0.90592 0.39367 0.45668 0.0
C1730 C 0.85963 0.41881 0.45061 0.0
C1731 C 0.85673 0.42064 0.48539 0.0
C1732 C 0.87922 0.40978 0.50567 0.0
C1733 C 0.90356 0.39658 0.49111 0.0
C1734 C 0.83645 0.43017 0.42793 0.0
C1735 C 0.87698 0.41095 0.54288 0.0
C1736 C 0.80061 0.46905 0.52773 0.0
C1737 C 0.77911 0.44905 0.53577 0.0
C1738 C 0.82557 0.4605 0.51019 0.0
C1739 C 0.8291 0.43126 0.50058 0.0
C1740 C 0.80652 0.41152 0.507 0.0
C1741 C 0.78196 0.42063 0.52445 0.0
C1742 C 0.84892 0.48236 0.50381 0.0
C1743 C 0.80905 0.38023 0.49732 0.0
H1744 H 0.88546 0.40328 0.4101 0.0
H1745 H 0.92022 0.38759 0.50677 0.0
H1746 H 0.81687 0.41663 0.43019 0.0
H1747 H 0.83037 0.45242 0.43511 0.0
H1748 H 0.84336 0.43017 0.40162 0.0
H1749 H 0.89699 0.40337 0.55517 0.0
H1750 H 0.87239 0.43326 0.55116 0.0
H1751 H 0.85878 0.39728 0.5512 0.0
H1752 H 0.79897 0.49081 0.53727 0.0
H1753 H 0.76561 0.40499 0.5311 0.0
H1754 H 0.85656 0.48089 0.47786 0.0
H1755 H 0.86762 0.47784 0.52008 0.0
H1756 H 0.84146 0.50469 0.50874 0.0
H1757 H 0.78886 0.36807 0.50205 0.0
H1758 H 0.82678 0.36997 0.51144 0.0
H1759 H 0.81448 0.37834 0.47074 0.0
C1760 C 0.15209 0.79273 0.5502 0.0
C1761 C 0.12505 0.78007 0.54368 0.0
C1762 C 0.16303 0.81566 0.53128 0.0
C1763 C 0.14687 0.82666 0.50446 0.0
C1764 C 0.12001 0.81342 0.49675 0.0
C1765 C 0.1094 0.79039 0.51642 0.0
C1766 C 0.19173 0.82865 0.54076 0.0
C1767 C 0.10223 0.82398 0.46805 0.0
C1768 C 0.16365 0.90507 0.48107 0.0
C1769 C 0.1839 0.90202 0.45538 0.0
C1770 C 0.15082 0.88091 0.49639 0.0
C1771 C 0.15789 0.85264 0.48569 0.0
C1772 C 0.17765 0.84942 0.4591 0.0
C1773 C 0.1905 0.87396 0.44455 0.0
C1774 C 0.13046 0.88565 0.52501 0.0
C1775 C 0.18586 0.81995 0.44649 0.0
H1776 H 0.16479 0.78511 0.57084 0.0
H1777 H 0.08856 0.78103 0.51095 0.0
H1778 H 0.207 0.82723 0.51972 0.0
H1779 H 0.18894 0.8518 0.54676 0.0
H1780 H 0.20159 0.81778 0.56241 0.0
H1781 H 0.08308 0.81019 0.46352 0.0
H1782 H 0.09478 0.84627 0.473 0.0
H1783 H 0.11555 0.8246 0.44527 0.0
H1784 H 0.15831 0.92645 0.48992 0.0
H1785 H 0.20597 0.87106 0.42473 0.0
H1786 H 0.13995 0.87648 0.54787 0.0
H1787 H 0.1098 0.87431 0.52052 0.0
H1788 H 0.12587 0.90882 0.52932 0.0
H1789 H 0.19922 0.80876 0.46521 0.0
H1790 H 0.1983 0.82104 0.42305 0.0
H1791 H 0.1663 0.8067 0.44237 0.0
C1792 C 0.27263 0.91178 0.99321 0.0
C1793 C 0.27824 0.94114 0.98801 0.0
C1794 C 0.2489 0.90246 1.01203 0.0
C1795 C 0.22978 0.92297 0.02595 0.0
C1796 C 0.23606 0.95274 0.02214 0.0
C1797 C 0.26024 0.96149 1.00324 0.0
C1798 C 0.24355 0.87053 0.0156 0.0
C1799 C 0.21648 0.97538 0.03668 0.0
C1800 C 0.153 0.89518 0.04105 0.0
C1801 C 0.154 0.88717 0.07449 0.0
C1802 C 0.17707 0.90785 0.02529 0.0
C1803 C 0.20285 0.9129 0.04334 0.0
C1804 C 0.20356 0.90584 0.07738 0.0
C1805 C 0.17932 0.89308 0.09242 0.0
C1806 C 0.17533 0.91468 0.98889 0.0
C1807 C 0.23035 0.91077 0.09776 0.0
H1808 H 0.2863 0.89591 0.98126 0.0
H1809 H 0.264 0.98417 0.99873 0.0
H1810 H 0.24094 0.86476 0.04203 0.0
H1811 H 0.22323 0.86468 1.00282 0.0
H1812 H 0.26134 0.85738 1.00505 0.0
H1813 H 0.22562 0.99737 0.03428 0.0
H1814 H 0.19536 0.97484 0.02387 0.0
H1815 H 0.21241 0.97088 0.06321 0.0
H1816 H 0.13376 0.89062 0.02681 0.0
H1817 H 0.18055 0.88709 0.11826 0.0
H1818 H 0.15329 0.91146 0.97884 0.0
H1819 H 0.19047 0.90064 0.97502 0.0
H1820 H 0.18193 0.93728 0.98437 0.0
H1821 H 0.24796 0.89664 0.08871 0.0
H1822 H 0.22679 0.90624 0.12441 0.0
H1823 H 0.23777 0.93333 0.09505 0.0
C1824 C 0.64412 0.16545 0.08591 0.0
C1825 C 0.655 0.14377 0.06512 0.0
C1826 C 0.6295 0.18947 0.07305 0.0
C1827 C 0.62624 0.19238 0.03842 0.0
C1828 C 0.63531 0.1695 0.0175 0.0
C1829 C 0.64942 0.14535 0.03114 0.0
C1830 C 0.6195 0.21278 0.09643 0.0
C1831 C 0.63226 0.17162 0.98045 0.0
C1832 C 0.58233 0.25358 0.99933 0.0
C1833 C 0.60414 0.27331 0.99148 0.0
C1834 C 0.58885 0.22746 0.0156 0.0
C1835 C 0.61786 0.22093 0.02397 0.0
C1836 C 0.63959 0.2416 0.01757 0.0
C1837 C 0.63248 0.26738 1.00148 0.0
C1838 C 0.5649 0.2063 0.0221 0.0
C1839 C 0.67077 0.23589 0.02615 0.0
H1840 H 0.64835 0.16431 0.11224 0.0
H1841 H 0.65808 0.12888 0.01492 0.0
H1842 H 0.6341 0.2316 0.09449 0.0
H1843 H 0.59751 0.22014 0.08974 0.0
H1844 H 0.61937 0.20537 0.12253 0.0
H1845 H 0.63719 0.1509 0.96793 0.0
H1846 H 0.61009 0.17835 0.97374 0.0
H1847 H 0.64726 0.18826 0.97094 0.0
H1848 H 0.56051 0.25768 0.99099 0.0
H1849 H 0.64946 0.28248 0.99531 0.0
H1850 H 0.56776 0.19551 0.04633 0.0
H1851 H 0.5652 0.18943 1.00265 0.0
H1852 H 0.54346 0.21693 0.02165 0.0
H1853 H 0.6729 0.23088 0.05284 0.0
H1854 H 0.68494 0.25446 0.02036 0.0
H1855 H 0.67856 0.21685 1.01218 0.0
C1856 C 0.27597 0.62791 1.00677 0.0
C1857 C 0.27733 0.60255 0.98818 0.0
C1858 C 0.29958 0.63728 0.02577 0.0
C1859 C 0.32574 0.62143 0.02569 0.0
C1860 C 0.32672 0.59498 1.00804 0.0
C1861 C 0.30254 0.58588 0.98948 0.0
C1862 C 0.297 0.66522 0.04422 0.0
C1863 C 0.35385 0.57709 1.0072 0.0
C1864 C 0.39509 0.66517 0.03801 0.0
C1865 C 0.40087 0.66143 0.07179 0.0
C1866 C 0.37112 0.65196 0.02276 0.0
C1867 C 0.35254 0.63393 0.04142 0.0
C1868 C 0.35905 0.62908 0.07525 0.0
C1869 C 0.38304 0.64281 0.08993 0.0
C1870 C 0.36504 0.65829 0.98685 0.0
C1871 C 0.34019 0.61004 0.09629 0.0
H1872 H 0.25678 0.64119 1.00518 0.0
H1873 H 0.304 0.56665 0.97435 0.0
H1874 H 0.30506 0.66261 0.06978 0.0
H1875 H 0.31046 0.68159 0.03172 0.0
H1876 H 0.27444 0.67319 0.04528 0.0
H1877 H 0.35029 0.55578 0.99542 0.0
H1878 H 0.37076 0.58864 0.99308 0.0
H1879 H 0.36215 0.57377 0.03263 0.0
H1880 H 0.40863 0.67953 0.02372 0.0
H1881 H 0.38771 0.63924 0.11581 0.0
H1882 H 0.34415 0.66978 0.98467 0.0
H1883 H 0.36315 0.63793 0.97267 0.0
H1884 H 0.38209 0.67175 0.97535 0.0
H1885 H 0.31911 0.62073 0.10043 0.0
H1886 H 0.35005 0.6055 0.12076 0.0
H1887 H 0.33593 0.58934 0.08349 0.0
C1888 C 0.87877 0.39244 0.04807 0.0
C1889 C 0.87966 0.39706 0.08239 0.0
C1890 C 0.8918 0.36802 0.03334 0.0
C1891 C 0.90694 0.34771 0.05307 0.0
C1892 C 0.90837 0.35261 0.08771 0.0
C1893 C 0.89446 0.37683 0.1019 0.0
C1894 C 0.88946 0.3641 0.99643 0.0
C1895 C 0.92472 0.3323 0.10991 0.0
C1896 C 0.91373 0.27169 0.01615 0.0
C1897 C 0.94089 0.27224 1.00082 0.0
C1898 C 0.90331 0.29532 0.03474 0.0
C1899 C 0.91993 0.32084 0.03752 0.0
C1900 C 0.94799 0.32102 0.02332 0.0
C1901 C 0.95809 0.29683 1.00522 0.0
C1902 C 0.87372 0.29359 0.04997 0.0
C1903 C 0.96692 0.34729 0.02582 0.0
H1904 H 0.86731 0.40768 0.03265 0.0
H1905 H 0.89545 0.38009 0.12842 0.0
H1906 H 0.91104 0.36708 0.98521 0.0
H1907 H 0.88219 0.34199 0.99036 0.0
H1908 H 0.87437 0.37974 0.98497 0.0
H1909 H 0.92613 0.3404 0.13571 0.0
H1910 H 0.91396 0.31101 0.11025 0.0
H1911 H 0.94687 0.32895 0.10024 0.0
H1912 H 0.90007 0.25304 1.01245 0.0
H1913 H 0.97874 0.29791 0.99271 0.0
H1914 H 0.85975 0.31036 0.03895 0.0
H1915 H 0.8748 0.29801 0.07687 0.0
H1916 H 0.86364 0.27217 0.0463 0.0
H1917 H 0.95837 0.3644 1.00944 0.0
H1918 H 0.9895 0.34263 0.01835 0.0
H1919 H 0.96686 0.35585 0.05145 0.0
C1920 C 0.38246 0.90488 0.59556 0.0
C1921 C 0.4037 0.8943 0.57381 0.0
C1922 C 0.35869 0.9211 0.5843 0.0
C1923 C 0.35512 0.92652 0.54998 0.0
C1924 C 0.37736 0.91708 0.52807 0.0
C1925 C 0.40115 0.90115 0.54021 0.0
C1926 C 0.33805 0.93259 0.61001 0.0
C1927 C 0.37703 0.92422 0.49173 0.0
C1928 C 0.27764 0.93637 0.51792 0.0
C1929 C 0.27906 0.96316 0.50209 0.0
C1930 C 0.3016 0.9249 0.53514 0.0
C1931 C 0.3279 0.94064 0.5368 0.0
C1932 C 0.32826 0.96904 0.52369 0.0
C1933 C 0.30423 0.97956 0.50595 0.0
C1934 C 0.29912 0.89512 0.54978 0.0
C1935 C 0.35432 0.98825 0.52662 0.0
H1936 H 0.38424 0.90045 0.62179 0.0
H1937 H 0.41758 0.89371 0.52314 0.0
H1938 H 0.32148 0.94732 0.59985 0.0
H1939 H 0.32723 0.91429 0.62254 0.0
H1940 H 0.35031 0.94433 0.62936 0.0
H1941 H 0.38793 0.90715 0.47711 0.0
H1942 H 0.35497 0.92754 0.482 0.0
H1943 H 0.38942 0.94432 0.48779 0.0
H1944 H 0.25858 0.92322 0.51441 0.0
H1945 H 0.30587 1.00004 0.49325 0.0
H1946 H 0.27918 0.88387 0.54178 0.0
H1947 H 0.29854 0.89663 0.57709 0.0
H1948 H 0.31802 0.88181 0.5428 0.0
H1949 H 0.36954 0.98104 0.54606 0.0
H1950 H 0.3475 1.01065 0.53225 0.0
H1951 H 0.36573 0.98887 0.50251 0.0
C1952 C 0.68064 0.3717 0.58915 0.0
C1953 C 0.67918 0.39986 0.5765 0.0
C1954 C 0.66845 0.34812 0.57206 0.0
C1955 C 0.65414 0.35254 0.5415 0.0
C1956 C 0.65166 0.38104 0.52923 0.0
C1957 C 0.66423 0.40421 0.5467 0.0
C1958 C 0.67193 0.31826 0.58613 0.0
C1959 C 0.63657 0.38699 0.49691 0.0
C1960 C 0.65417 0.29281 0.47642 0.0
C1961 C 0.62608 0.28149 0.47839 0.0
C1962 C 0.66359 0.31515 0.49728 0.0
C1963 C 0.64445 0.32727 0.52077 0.0
C1964 C 0.61617 0.31569 0.52347 0.0
C1965 C 0.60739 0.29286 0.50245 0.0
C1966 C 0.69403 0.32624 0.4936 0.0
C1967 C 0.59493 0.32799 0.54793 0.0
H1968 H 0.69209 0.36785 0.61206 0.0
H1969 H 0.66276 0.42574 0.53658 0.0
H1970 H 0.65081 0.30711 0.587 0.0
H1971 H 0.68628 0.3054 0.56985 0.0
H1972 H 0.68128 0.31855 0.6114 0.0
H1973 H 0.63406 0.4104 0.49218 0.0
H1974 H 0.64909 0.37739 0.47627 0.0
H1975 H 0.61494 0.37683 0.49676 0.0
H1976 H 0.66892 0.28445 0.45801 0.0
H1977 H 0.58559 0.28463 0.50409 0.0
H1978 H 0.70549 0.32495 0.5176 0.0
H1979 H 0.69364 0.34921 0.48615 0.0
H1980 H 0.70655 0.31399 0.47492 0.0
H1981 H 0.60436 0.32809 0.57312 0.0
H1982 H 0.57441 0.31571 0.54846 0.0
H1983 H 0.59008 0.35067 0.54139 0.0
C1984 C 0.27953 0.63842 0.49046 0.0
C1985 C 0.28049 0.60984 0.47933 0.0
C1986 C 0.25638 0.64884 0.50976 0.0
C1987 C 0.23268 0.63065 0.51732 0.0
C1988 C 0.2338 0.6015 0.50653 0.0
C1989 C 0.25779 0.59139 0.48809 0.0
C1990 C 0.25712 0.67964 0.52137 0.0
C1991 C 0.20896 0.58134 0.51293 0.0
C1992 C 0.1789 0.65352 0.58534 0.0
C1993 C 0.1581 0.66907 0.56752 0.0
C1994 C 0.2032 0.64106 0.5696 0.0
C1995 C 0.20622 0.64261 0.53469 0.0
C1996 C 0.18414 0.65649 0.51634 0.0
C1997 C 0.16065 0.66965 0.53286 0.0
C1998 C 0.22627 0.62733 0.59056 0.0
C1999 C 0.18569 0.65819 0.47913 0.0
H2000 H 0.29684 0.65289 0.48352 0.0
H2001 H 0.25796 0.56947 0.47888 0.0
H2002 H 0.23951 0.69199 0.5095 0.0
H2003 H 0.25379 0.68046 0.54848 0.0
H2004 H 0.2779 0.69028 0.51542 0.0
H2005 H 0.21358 0.55906 0.50442 0.0
H2006 H 0.20377 0.58082 0.53969 0.0
H2007 H 0.1895 0.58929 0.49987 0.0
H2008 H 0.17674 0.65197 0.61194 0.0
H2009 H 0.14465 0.68116 0.51853 0.0
H2010 H 0.24661 0.63969 0.58802 0.0
H2011 H 0.23067 0.60509 0.58195 0.0
H2012 H 0.22027 0.62667 0.61714 0.0
H2013 H 0.20413 0.67192 0.47172 0.0
H2014 H 0.16571 0.66729 0.4682 0.0
H2015 H 0.18942 0.63647 0.46849 0.0
C2016 C 0.90425 0.15972 0.56249 0.0
C2017 C 0.87637 0.16221 0.57597 0.0
C2018 C 0.91822 0.18327 0.54727 0.0
C2019 C 0.90411 0.21031 0.54502 0.0
C2020 C 0.87621 0.21317 0.55914 0.0
C2021 C 0.8628 0.18927 0.57446 0.0
C2022 C 0.94784 0.17892 0.53264 0.0
C2023 C 0.86009 0.24133 0.55716 0.0
C2024 C 0.94695 0.27822 0.51926 0.0
C2025 C 0.94052 0.27997 0.48541 0.0
C2026 C 0.93546 0.2557 0.53909 0.0
C2027 C 0.91714 0.23444 0.5248 0.0
C2028 C 0.91128 0.23598 0.49052 0.0
C2029 C 0.92327 0.25825 0.47148 0.0
C2030 C 0.94246 0.25492 0.57545 0.0
C2031 C 0.89197 0.21423 0.47377 0.0
H2032 H 0.91523 0.13915 0.56354 0.0
H2033 H 0.84132 0.19171 0.58464 0.0
H2034 H 0.94671 0.18082 0.50533 0.0
H2035 H 0.96276 0.19587 0.54158 0.0
H2036 H 0.95703 0.15753 0.53888 0.0
H2037 H 0.8395 0.24079 0.57116 0.0
H2038 H 0.87361 0.25906 0.56699 0.0
H2039 H 0.85531 0.24645 0.53094 0.0
H2040 H 0.96027 0.29475 0.53036 0.0
H2041 H 0.91914 0.25862 0.44518 0.0
H2042 H 0.95206 0.23381 0.58199 0.0
H2043 H 0.92237 0.25727 0.5901 0.0
H2044 H 0.95766 0.27225 0.58274 0.0
H2045 H 0.90097 0.19227 0.47684 0.0
H2046 H 0.88933 0.21856 0.44694 0.0
H2047 H 0.87033 0.21442 0.48546 0.0
C2048 C 0.88988 0.16063 0.9833 0.0
C2049 C 0.89609 0.16334 0.94953 0.0
C2050 C 0.86652 0.14379 0.99464 0.0
C2051 C 0.84905 0.12829 0.97173 0.0
C2052 C 0.8569 0.12922 0.93768 0.0
C2053 C 0.87958 0.14729 0.92703 0.0
C2054 C 0.86137 0.14267 0.03147 0.0
C2055 C 0.84218 0.11091 0.91191 0.0
C2056 C 0.79718 0.07819 0.01924 0.0
C2057 C 0.77063 0.09211 0.01466 0.0
C2058 C 0.82258 0.08831 1.00361 0.0
C2059 C 0.82171 0.11331 0.98321 0.0
C2060 C 0.79431 0.12558 0.97619 0.0
C2061 C 0.76944 0.11511 0.99222 0.0
C2062 C 0.85022 0.07228 1.0101 0.0
C2063 C 0.79079 0.14987 0.95173 0.0
H2064 H 0.90282 0.17245 1.00102 0.0
H2065 H 0.88474 0.14839 0.9009 0.0
H2066 H 0.86716 0.16345 0.04332 0.0
H2067 H 0.83881 0.13735 0.03798 0.0
H2068 H 0.87559 0.12596 0.0423 0.0
H2069 H 0.85864 0.09836 0.89808 0.0
H2070 H 0.82627 0.09565 0.92238 0.0
H2071 H 0.83136 0.12504 0.89362 0.0
H2072 H 0.79852 0.06036 0.03643 0.0
H2073 H 0.74893 0.1257 0.98803 0.0
H2074 H 0.85683 0.07583 0.03616 0.0
H2075 H 0.86805 0.07879 0.99345 0.0
H2076 H 0.84651 0.04883 1.00701 0.0
H2077 H 0.80855 0.16574 0.95354 0.0
H2078 H 0.76987 0.16113 0.95481 0.0
H2079 H 0.79092 0.14087 0.92636 0.0
C2080 C 0.3779 0.86573 0.93875 0.0
C2081 C 0.38027 0.89385 0.95145 0.0
C2082 C 0.39021 0.8418 0.9552 0.0
C2083 C 0.40573 0.84578 0.9851 0.0
C2084 C 0.40898 0.87422 0.99747 0.0
C2085 C 0.39615 0.89771 0.98074 0.0
C2086 C 0.38569 0.81206 0.94112 0.0
C2087 C 0.42541 0.87982 0.02901 0.0
C2088 C 0.40847 0.78555 0.04969 0.0
C2089 C 0.43619 0.77361 0.04561 0.0
C2090 C 0.39823 0.80815 0.02968 0.0
C2091 C 0.41622 0.82019 1.00502 0.0
C2092 C 0.4442 0.80821 1.0004 0.0
C2093 C 0.45374 0.78499 0.02048 0.0
C2094 C 0.3681 0.81948 0.03544 0.0
C2095 C 0.46438 0.82046 0.97482 0.0
H2096 H 0.3657 0.8622 0.91628 0.0
H2097 H 0.39838 0.91917 0.99092 0.0
H2098 H 0.40663 0.80073 0.93859 0.0
H2099 H 0.37219 0.79924 0.9583 0.0
H2100 H 0.37497 0.81258 0.91659 0.0
H2101 H 0.42825 0.90317 0.03391 0.0
H2102 H 0.41373 0.87014 0.05019 0.0
H2103 H 0.44697 0.8695 0.02782 0.0
H2104 H 0.3946 0.77745 0.06908 0.0
H2105 H 0.47527 0.7764 0.01718 0.0
H2106 H 0.35548 0.81839 1.01219 0.0
H2107 H 0.36902 0.8424 0.04306 0.0
H2108 H 0.35642 0.80723 0.05479 0.0
H2109 H 0.45388 0.8205 0.95019 0.0
H2110 H 0.48487 0.80818 0.97313 0.0
H2111 H 0.46944 0.84316 0.98109 0.0
C2112 C 0.75898 0.41145 0.0637 0.0
C2113 C 0.77234 0.4381 0.05718 0.0
C2114 C 0.73503 0.40162 0.04565 0.0
C2115 C 0.72288 0.41913 0.02065 0.0
C2116 C 0.73601 0.44616 0.01383 0.0
C2117 C 0.76062 0.45524 0.03193 0.0
C2118 C 0.72247 0.37266 0.05462 0.0
C2119 C 0.72355 0.46583 0.98791 0.0
C2120 C 0.67771 0.38044 0.95501 0.0
C2121 C 0.64939 0.38363 0.96683 0.0
C2122 C 0.70143 0.39222 0.9719 0.0
C2123 C 0.69717 0.40854 1.00112 0.0
C2124 C 0.66856 0.41223 0.01303 0.0
C2125 C 0.64508 0.3995 0.99601 0.0
C2126 C 0.7313 0.38564 0.95954 0.0
C2127 C 0.66286 0.429 0.04429 0.0
H2128 H 0.76694 0.39804 0.08356 0.0
H2129 H 0.77016 0.47605 0.02688 0.0
H2130 H 0.70733 0.3755 0.07563 0.0
H2131 H 0.71056 0.36251 0.03395 0.0
H2132 H 0.73965 0.3576 0.06274 0.0
H2133 H 0.70174 0.47291 0.99573 0.0
H2134 H 0.73713 0.48517 0.98379 0.0
H2135 H 0.72108 0.45414 0.96414 0.0
H2136 H 0.68155 0.36768 0.93299 0.0
H2137 H 0.62338 0.40203 1.00551 0.0
H2138 H 0.74196 0.37097 0.97724 0.0
H2139 H 0.74424 0.40558 0.95856 0.0
H2140 H 0.73125 0.3753 0.93477 0.0
H2141 H 0.67193 0.41716 0.06569 0.0
H2142 H 0.63947 0.43246 0.04863 0.0
H2143 H 0.67377 0.45023 0.04319 0.0
C2144 C 0.09396 0.75682 0.02789 0.0
C2145 C 0.11376 0.77752 0.03897 0.0
C2146 C 0.10318 0.7324 1.00966 0.0
C2147 C 0.13289 0.72857 1.00214 0.0
C2148 C 0.15267 0.75016 1.01201 0.0
C2149 C 0.14293 0.77409 0.03029 0.0
C2150 C 0.08124 0.71014 0.99956 0.0
C2151 C 0.18451 0.74746 1.00477 0.0
C2152 C 0.16557 0.65356 0.98809 0.0
C2153 C 0.16995 0.65307 0.95372 0.0
C2154 C 0.15282 0.67753 1.00397 0.0
C2155 C 0.14375 0.70167 0.98515 0.0
C2156 C 0.1473 0.70089 0.95032 0.0
C2157 C 0.16044 0.67683 0.93514 0.0
C2158 C 0.15001 0.67745 0.04115 0.0
C2159 C 0.13812 0.72596 0.92911 0.0
H2160 H 0.07149 0.75892 0.03485 0.0
H2161 H 0.15853 0.78984 0.03872 0.0
H2162 H 0.05882 0.7172 1.00485 0.0
H2163 H 0.08323 0.70535 0.97277 0.0
H2164 H 0.08536 0.68979 0.01309 0.0
H2165 H 0.19418 0.73154 0.02193 0.0
H2166 H 0.18833 0.7397 0.9792 0.0
H2167 H 0.19591 0.76828 1.00797 0.0
H2168 H 0.17293 0.63553 1.00282 0.0
H2169 H 0.16356 0.67683 0.90858 0.0
H2170 H 0.12751 0.6824 0.04849 0.0
H2171 H 0.16396 0.6945 0.0518 0.0
H2172 H 0.15629 0.65646 0.05212 0.0
H2173 H 0.11542 0.73184 0.93454 0.0
H2174 H 0.14018 0.72122 0.90228 0.0
H2175 H 0.1516 0.74501 0.93496 0.0
loop_
_geom_bond_atom_site_label_1
_geom_bond_atom_site_label_2
_geom_bond_distance
_geom_bond_site_symmetry_2
_ccdc_geom_bond_type
Dy0 O3 2.307 . S
Dy0 O5 2.395 . S
Dy0 O6 2.379 . S
Dy0 O8 2.339 . S
Dy0 O10 2.298 . S
Dy0 O14 2.275 . S
Dy0 C22 2.738 . S
Dy1 O4 2.298 . S
Dy1 O7 2.275 . S
Dy1 O9 2.307 . S
Dy1 O11 2.395 . S
Dy1 O12 2.379 . S
Dy1 O15 2.339 . S
Dy1 C31 2.738 . S
C2 O14 1.254 . S
C2 O15 1.257 . S
O3 Dy0 2.307 . S
O3 C13 1.266 . S
O4 Dy1 2.298 . S
O4 C13 1.236 . S
O5 Dy0 2.395 . S
O5 C22 1.255 . S
O6 Dy0 2.379 . S
O6 C22 1.249 . S
O7 Dy1 2.275 . S
O7 C23 1.254 . S
O8 Dy0 2.339 . S
O8 C23 1.257 . S
O9 Dy1 2.307 . S
O9 C24 1.266 . S
O10 Dy0 2.298 . S
O10 C24 1.236 . S
O11 Dy1 2.395 . S
O11 C31 1.255 . S
O12 Dy1 2.379 . S
O12 C31 1.249 . S
C13 O3 1.266 . S
C13 O4 1.236 . S
O14 Dy0 2.275 . S
O14 C2 1.254 . S
O15 Dy1 2.339 . S
O15 C2 1.257 . S
C16 C19 1.344 . S
C16 C20 1.328 . S
C16 C22 1.516 . S
C17 C18 1.304 . S
C17 C21 1.323 . S
C18 C17 1.304 . S
C18 C19 1.371 . S
C18 H32 0.930 . S
C19 C16 1.344 . S
C19 C18 1.371 . S
C19 H33 0.931 . S
C20 C16 1.328 . S
C20 C21 1.433 . S
C20 H34 0.931 . S
C21 C17 1.323 . S
C21 C20 1.433 . S
C21 H35 0.933 . S
C22 Dy0 2.738 . S
C22 O5 1.255 . S
C22 O6 1.249 . S
C22 C16 1.516 . S
C23 O7 1.254 . S
C23 O8 1.257 . S
C24 O9 1.266 . S
C24 O10 1.236 . S
C25 C28 1.344 . S
C25 C29 1.328 . S
C25 C31 1.516 . S
C26 C27 1.304 . S
C26 C30 1.323 . S
C27 C26 1.304 . S
C27 C28 1.371 . S
C27 H36 0.930 . S
C28 C25 1.344 . S
C28 C27 1.371 . S
C28 H37 0.931 . S
C29 C25 1.328 . S
C29 C30 1.433 . S
C29 H38 0.931 . S
C30 C26 1.323 . S
C30 C29 1.433 . S
C30 H39 0.933 . S
C31 Dy1 2.738 . S
C31 O11 1.255 . S
C31 O12 1.249 . S
C31 C25 1.516 . S
H32 C18 0.930 . S
H33 C19 0.931 . S
H34 C20 0.931 . S
H35 C21 0.933 . S
H36 C27 0.930 . S
H37 C28 0.931 . S
H38 C29 0.931 . S
H39 C30 0.933 . S
Dy40 O43 2.307 . S
Dy40 O45 2.395 . S
Dy40 O46 2.379 . S
Dy40 O48 2.339 . S
Dy40 O50 2.298 . S
Dy40 O54 2.275 . S
Dy40 C62 2.738 . S
Dy41 O44 2.298 . S
Dy41 O47 2.275 . S
Dy41 O49 2.307 . S
Dy41 O51 2.395 . S
Dy41 O52 2.379 . S
Dy41 O55 2.339 . S
Dy41 C71 2.738 . S
C42 O54 1.254 . S
C42 O55 1.257 . S
O43 Dy40 2.307 . S
O43 C53 1.266 . S
O44 Dy41 2.298 . S
O44 C53 1.236 . S
O45 Dy40 2.395 . S
O45 C62 1.255 . S
O46 Dy40 2.379 . S
O46 C62 1.249 . S
O47 Dy41 2.275 . S
O47 C63 1.254 . S
O48 Dy40 2.339 . S
O48 C63 1.257 . S
O49 Dy41 2.307 . S
O49 C64 1.266 . S
O50 Dy40 2.298 . S
O50 C64 1.236 . S
O51 Dy41 2.395 . S
O51 C71 1.255 . S
O52 Dy41 2.379 . S
O52 C71 1.249 . S
C53 O43 1.266 . S
C53 O44 1.236 . S
O54 Dy40 2.275 . S
O54 C42 1.254 . S
O55 Dy41 2.339 . S
O55 C42 1.257 . S
C56 C59 1.344 . S
C56 C60 1.328 . S
C56 C62 1.516 . S
C57 C58 1.304 . S
C57 C61 1.323 . S
C58 C57 1.304 . S
C58 C59 1.371 . S
C58 H72 0.930 . S
C59 C56 1.344 . S
C59 C58 1.371 . S
C59 H73 0.931 . S
C60 C56 1.328 . S
C60 C61 1.433 . S
C60 H74 0.931 . S
C61 C57 1.323 . S
C61 C60 1.433 . S
C61 H75 0.933 . S
C62 Dy40 2.738 . S
C62 O45 1.255 . S
C62 O46 1.249 . S
C62 C56 1.516 . S
C63 O47 1.254 . S
C63 O48 1.257 . S
C64 O49 1.266 . S
C64 O50 1.236 . S
C65 C68 1.344 . S
C65 C69 1.328 . S
C65 C71 1.516 . S
C66 C67 1.304 . S
C66 C70 1.323 . S
C67 C66 1.304 . S
C67 C68 1.371 . S
C67 H76 0.930 . S
C68 C65 1.344 . S
C68 C67 1.371 . S
C68 H77 0.931 . S
C69 C65 1.328 . S
C69 C70 1.433 . S
C69 H78 0.931 . S
C70 C66 1.323 . S
C70 C69 1.433 . S
C70 H79 0.933 . S
C71 Dy41 2.738 . S
C71 O51 1.255 . S
C71 O52 1.249 . S
C71 C65 1.516 . S
H72 C58 0.930 . S
H73 C59 0.931 . S
H74 C60 0.931 . S
H75 C61 0.933 . S
H76 C67 0.930 . S
H77 C68 0.931 . S
H78 C69 0.931 . S
H79 C70 0.933 . S
Dy80 O83 2.307 . S
Dy80 O85 2.395 1_655 S
Dy80 O86 2.379 1_655 S
Dy80 O88 2.339 . S
Dy80 O90 2.298 1_655 S
Dy80 O94 2.275 . S
Dy80 C102 2.738 1_655 S
Dy81 O84 2.298 . S
Dy81 O87 2.275 . S
Dy81 O89 2.307 . S
Dy81 O91 2.395 . S
Dy81 O92 2.379 . S
Dy81 O95 2.339 . S
Dy81 C111 2.738 . S
C82 O94 1.254 . S
C82 O95 1.257 . S
O83 Dy80 2.307 . S
O83 C93 1.266 . S
O84 Dy81 2.298 . S
O84 C93 1.236 . S
O85 Dy80 2.395 1_455 S
O85 C102 1.255 . S
O86 Dy80 2.379 1_455 S
O86 C102 1.249 . S
O87 Dy81 2.275 . S
O87 C103 1.254 . S
O88 Dy80 2.339 . S
O88 C103 1.257 . S
O89 Dy81 2.307 . S
O89 C104 1.266 . S
O90 Dy80 2.298 1_455 S
O90 C104 1.236 1_455 S
O91 Dy81 2.395 . S
O91 C111 1.255 . S
O92 Dy81 2.379 . S
O92 C111 1.249 . S
C93 O83 1.266 . S
C93 O84 1.236 . S
O94 Dy80 2.275 . S
O94 C82 1.254 . S
O95 Dy81 2.339 . S
O95 C82 1.257 . S
C96 C99 1.344 . S
C96 C100 1.328 . S
C96 C102 1.516 . S
C97 C98 1.304 . S
C97 C101 1.323 . S
C98 C97 1.304 . S
C98 C99 1.371 . S
C98 H112 0.930 . S
C99 C96 1.344 . S
C99 C98 1.371 . S
C99 H113 0.931 . S
C100 C96 1.328 . S
C100 C101 1.433 . S
C100 H114 0.931 . S
C101 C97 1.323 . S
C101 C100 1.433 . S
C101 H115 0.933 . S
C102 Dy80 2.738 1_455 S
C102 O85 1.255 . S
C102 O86 1.249 . S
C102 C96 1.516 . S
C103 O87 1.254 . S
C103 O88 1.257 . S
C104 O89 1.266 . S
C104 O90 1.236 1_655 S
C105 C108 1.344 . S
C105 C109 1.328 . S
C105 C111 1.516 . S
C106 C107 1.304 . S
C106 C110 1.323 . S
C107 C106 1.304 . S
C107 C108 1.371 . S
C107 H116 0.930 . S
C108 C105 1.344 . S
C108 C107 1.371 . S
C108 H117 0.931 . S
C109 C105 1.328 . S
C109 C110 1.433 . S
C109 H118 0.931 . S
C110 C106 1.323 . S
C110 C109 1.433 . S
C110 H119 0.933 . S
C111 Dy81 2.738 . S
C111 O91 1.255 . S
C111 O92 1.249 . S
C111 C105 1.516 . S
H112 C98 0.930 . S
H113 C99 0.931 . S
H114 C100 0.931 . S
H115 C101 0.933 . S
H116 C107 0.930 . S
H117 C108 0.931 . S
H118 C109 0.931 . S
H119 C110 0.933 . S
Dy120 O123 2.307 . S
Dy120 O125 2.395 1_565 S
Dy120 O126 2.379 1_565 S
Dy120 O128 2.339 . S
Dy120 O130 2.298 1_565 S
Dy120 O134 2.275 . S
Dy120 C142 2.738 1_565 S
Dy121 O124 2.298 . S
Dy121 O127 2.275 . S
Dy121 O129 2.307 . S
Dy121 O131 2.395 . S
Dy121 O132 2.379 . S
Dy121 O135 2.339 . S
Dy121 C151 2.738 . S
C122 O134 1.254 . S
C122 O135 1.257 . S
O123 Dy120 2.307 . S
O123 C133 1.266 . S
O124 Dy121 2.298 . S
O124 C133 1.236 . S
O125 Dy120 2.395 1_545 S
O125 C142 1.255 . S
O126 Dy120 2.379 1_545 S
O126 C142 1.249 . S
O127 Dy121 2.275 . S
O127 C143 1.254 . S
O128 Dy120 2.339 . S
O128 C143 1.257 . S
O129 Dy121 2.307 . S
O129 C144 1.266 . S
O130 Dy120 2.298 1_545 S
O130 C144 1.236 1_545 S
O131 Dy121 2.395 . S
O131 C151 1.255 . S
O132 Dy121 2.379 . S
O132 C151 1.249 . S
C133 O123 1.266 . S
C133 O124 1.236 . S
O134 Dy120 2.275 . S
O134 C122 1.254 . S
O135 Dy121 2.339 . S
O135 C122 1.257 . S
C136 C139 1.344 . S
C136 C140 1.328 . S
C136 C142 1.516 . S
C137 C138 1.304 . S
C137 C141 1.323 . S
C138 C137 1.304 . S
C138 C139 1.371 . S
C138 H152 0.930 . S
C139 C136 1.344 . S
C139 C138 1.371 . S
C139 H153 0.931 . S
C140 C136 1.328 . S
C140 C141 1.433 . S
C140 H154 0.931 . S
C141 C137 1.323 . S
C141 C140 1.433 . S
C141 H155 0.933 . S
C142 Dy120 2.738 1_545 S
C142 O125 1.255 . S
C142 O126 1.249 . S
C142 C136 1.516 . S
C143 O127 1.254 . S
C143 O128 1.257 . S
C144 O129 1.266 . S
C144 O130 1.236 1_565 S
C145 C148 1.344 . S
C145 C149 1.328 . S
C145 C151 1.516 . S
C146 C147 1.304 . S
C146 C150 1.323 . S
C147 C146 1.304 . S
C147 C148 1.371 . S
C147 H156 0.930 . S
C148 C145 1.344 . S
C148 C147 1.371 . S
C148 H157 0.931 . S
C149 C145 1.328 . S
C149 C150 1.433 . S
C149 H158 0.931 . S
C150 C146 1.323 . S
C150 C149 1.433 . S
C150 H159 0.933 . S
C151 Dy121 2.738 . S
C151 O131 1.255 . S
C151 O132 1.249 . S
C151 C145 1.516 . S
H152 C138 0.930 . S
H153 C139 0.931 . S
H154 C140 0.931 . S
H155 C141 0.933 . S
H156 C147 0.930 . S
H157 C148 0.931 . S
H158 C149 0.931 . S
H159 C150 0.933 . S
Dy160 O163 2.307 . S
Dy160 O165 2.395 1_455 S
Dy160 O166 2.379 1_455 S
Dy160 O168 2.339 . S
Dy160 O170 2.298 1_455 S
Dy160 O174 2.275 . S
Dy160 C182 2.738 1_455 S
Dy161 O164 2.298 . S
Dy161 O167 2.275 . S
Dy161 O169 2.307 . S
Dy161 O171 2.395 . S
Dy161 O172 2.379 . S
Dy161 O175 2.339 . S
Dy161 C191 2.738 . S
C162 O174 1.254 . S
C162 O175 1.257 . S
O163 Dy160 2.307 . S
O163 C173 1.266 . S
O164 Dy161 2.298 . S
O164 C173 1.236 . S
O165 Dy160 2.395 1_655 S
O165 C182 1.255 . S
O166 Dy160 2.379 1_655 S
O166 C182 1.249 . S
O167 Dy161 2.275 . S
O167 C183 1.254 . S
O168 Dy160 2.339 . S
O168 C183 1.257 . S
O169 Dy161 2.307 . S
O169 C184 1.266 . S
O170 Dy160 2.298 1_655 S
O170 C184 1.236 1_655 S
O171 Dy161 2.395 . S
O171 C191 1.255 . S
O172 Dy161 2.379 . S
O172 C191 1.249 . S
C173 O163 1.266 . S
C173 O164 1.236 . S
O174 Dy160 2.275 . S
O174 C162 1.254 . S
O175 Dy161 2.339 . S
O175 C162 1.257 . S
C176 C179 1.344 . S
C176 C180 1.328 . S
C176 C182 1.516 . S
C177 C178 1.304 . S
C177 C181 1.323 . S
C178 C177 1.304 . S
C178 C179 1.371 . S
C178 H192 0.930 . S
C179 C176 1.344 . S
C179 C178 1.371 . S
C179 H193 0.931 . S
C180 C176 1.328 . S
C180 C181 1.433 . S
C180 H194 0.931 . S
C181 C177 1.323 . S
C181 C180 1.433 . S
C181 H195 0.933 . S
C182 Dy160 2.738 1_655 S
C182 O165 1.255 . S
C182 O166 1.249 . S
C182 C176 1.516 . S
C183 O167 1.254 . S
C183 O168 1.257 . S
C184 O169 1.266 . S
C184 O170 1.236 1_455 S
C185 C188 1.344 . S
C185 C189 1.328 . S
C185 C191 1.516 . S
C186 C187 1.304 . S
C186 C190 1.323 . S
C187 C186 1.304 . S
C187 C188 1.371 . S
C187 H196 0.930 . S
C188 C185 1.344 . S
C188 C187 1.371 . S
C188 H197 0.931 . S
C189 C185 1.328 . S
C189 C190 1.433 . S
C189 H198 0.931 . S
C190 C186 1.323 . S
C190 C189 1.433 . S
C190 H199 0.933 . S
C191 Dy161 2.738 . S
C191 O171 1.255 . S
C191 O172 1.249 . S
C191 C185 1.516 . S
H192 C178 0.930 . S
H193 C179 0.931 . S
H194 C180 0.931 . S
H195 C181 0.933 . S
H196 C187 0.930 . S
H197 C188 0.931 . S
H198 C189 0.931 . S
H199 C190 0.933 . S
Dy200 O203 2.307 . S
Dy200 O205 2.395 1_545 S
Dy200 O206 2.379 1_545 S
Dy200 O208 2.339 . S
Dy200 O210 2.298 1_545 S
Dy200 O214 2.275 . S
Dy200 C222 2.738 1_545 S
Dy201 O204 2.298 . S
Dy201 O207 2.275 . S
Dy201 O209 2.307 . S
Dy201 O211 2.395 . S
Dy201 O212 2.379 . S
Dy201 O215 2.339 . S
Dy201 C231 2.738 . S
C202 O214 1.254 . S
C202 O215 1.257 . S
O203 Dy200 2.307 . S
O203 C213 1.266 . S
O204 Dy201 2.298 . S
O204 C213 1.236 . S
O205 Dy200 2.395 1_565 S
O205 C222 1.255 . S
O206 Dy200 2.379 1_565 S
O206 C222 1.249 . S
O207 Dy201 2.275 . S
O207 C223 1.254 . S
O208 Dy200 2.339 . S
O208 C223 1.257 . S
O209 Dy201 2.307 . S
O209 C224 1.266 . S
O210 Dy200 2.298 1_565 S
O210 C224 1.236 1_565 S
O211 Dy201 2.395 . S
O211 C231 1.255 . S
O212 Dy201 2.379 . S
O212 C231 1.249 . S
C213 O203 1.266 . S
C213 O204 1.236 . S
O214 Dy200 2.275 . S
O214 C202 1.254 . S
O215 Dy201 2.339 . S
O215 C202 1.257 . S
C216 C219 1.344 . S
C216 C220 1.328 . S
C216 C222 1.516 . S
C217 C218 1.304 . S
C217 C221 1.323 . S
C218 C217 1.304 . S
C218 C219 1.371 . S
C218 H232 0.930 . S
C219 C216 1.344 . S
C219 C218 1.371 . S
C219 H233 0.931 . S
C220 C216 1.328 . S
C220 C221 1.433 . S
C220 H234 0.931 . S
C221 C217 1.323 . S
C221 C220 1.433 . S
C221 H235 0.933 . S
C222 Dy200 2.738 1_565 S
C222 O205 1.255 . S
C222 O206 1.249 . S
C222 C216 1.516 . S
C223 O207 1.254 . S
C223 O208 1.257 . S
C224 O209 1.266 . S
C224 O210 1.236 1_545 S
C225 C228 1.344 . S
C225 C229 1.328 . S
C225 C231 1.516 . S
C226 C227 1.304 . S
C226 C230 1.323 . S
C227 C226 1.304 . S
C227 C228 1.371 . S
C227 H236 0.930 . S
C228 C225 1.344 . S
C228 C227 1.371 . S
C228 H237 0.931 . S
C229 C225 1.328 . S
C229 C230 1.433 . S
C229 H238 0.931 . S
C230 C226 1.323 . S
C230 C229 1.433 . S
C230 H239 0.933 . S
C231 Dy201 2.738 . S
C231 O211 1.255 . S
C231 O212 1.249 . S
C231 C225 1.516 . S
H232 C218 0.930 . S
H233 C219 0.931 . S
H234 C220 0.931 . S
H235 C221 0.933 . S
H236 C227 0.930 . S
H237 C228 0.931 . S
H238 C229 0.931 . S
H239 C230 0.933 . S
Dy240 O243 2.307 . S
Dy240 O245 2.395 . S
Dy240 O246 2.379 . S
Dy240 O248 2.339 . S
Dy240 O250 2.298 . S
Dy240 O254 2.275 . S
Dy240 C262 2.738 . S
Dy241 O244 2.298 . S
Dy241 O247 2.275 . S
Dy241 O249 2.307 . S
Dy241 O251 2.395 . S
Dy241 O252 2.379 . S
Dy241 O255 2.339 . S
Dy241 C271 2.738 . S
C242 O254 1.254 . S
C242 O255 1.257 . S
O243 Dy240 2.307 . S
O243 C253 1.266 . S
O244 Dy241 2.298 . S
O244 C253 1.236 . S
O245 Dy240 2.395 . S
O245 C262 1.255 . S
O246 Dy240 2.379 . S
O246 C262 1.249 . S
O247 Dy241 2.275 . S
O247 C263 1.254 . S
O248 Dy240 2.339 . S
O248 C263 1.257 . S
O249 Dy241 2.307 . S
O249 C264 1.266 . S
O250 Dy240 2.298 . S
O250 C264 1.236 . S
O251 Dy241 2.395 . S
O251 C271 1.255 . S
O252 Dy241 2.379 . S
O252 C271 1.249 . S
C253 O243 1.266 . S
C253 O244 1.236 . S
O254 Dy240 2.275 . S
O254 C242 1.254 . S
O255 Dy241 2.339 . S
O255 C242 1.257 . S
C256 C259 1.344 . S
C256 C260 1.328 . S
C256 C262 1.516 . S
C257 C258 1.304 . S
C257 C261 1.323 . S
C258 C257 1.304 . S
C258 C259 1.371 . S
C258 H272 0.930 . S
C259 C256 1.344 . S
C259 C258 1.371 . S
C259 H273 0.931 . S
C260 C256 1.328 . S
C260 C261 1.433 . S
C260 H274 0.931 . S
C261 C257 1.323 . S
C261 C260 1.433 . S
C261 H275 0.933 . S
C262 Dy240 2.738 . S
C262 O245 1.255 . S
C262 O246 1.249 . S
C262 C256 1.516 . S
C263 O247 1.254 . S
C263 O248 1.257 . S
C264 O249 1.266 . S
C264 O250 1.236 . S
C265 C268 1.344 . S
C265 C269 1.328 . S
C265 C271 1.516 . S
C266 C267 1.304 . S
C266 C270 1.323 . S
C267 C266 1.304 . S
C267 C268 1.371 . S
C267 H276 0.930 . S
C268 C265 1.344 . S
C268 C267 1.371 . S
C268 H277 0.931 . S
C269 C265 1.328 . S
C269 C270 1.433 . S
C269 H278 0.931 . S
C270 C266 1.323 . S
C270 C269 1.433 . S
C270 H279 0.933 . S
C271 Dy241 2.738 . S
C271 O251 1.255 . S
C271 O252 1.249 . S
C271 C265 1.516 . S
H272 C258 0.930 . S
H273 C259 0.931 . S
H274 C260 0.931 . S
H275 C261 0.933 . S
H276 C267 0.930 . S
H277 C268 0.931 . S
H278 C269 0.931 . S
H279 C270 0.933 . S
Dy280 O283 2.307 . S
Dy280 O285 2.395 . S
Dy280 O286 2.379 . S
Dy280 O288 2.339 . S
Dy280 O290 2.298 . S
Dy280 O294 2.275 . S
Dy280 C302 2.738 . S
Dy281 O284 2.298 . S
Dy281 O287 2.275 . S
Dy281 O289 2.307 . S
Dy281 O291 2.395 . S
Dy281 O292 2.379 . S
Dy281 O295 2.339 . S
Dy281 C311 2.738 . S
C282 O294 1.254 . S
C282 O295 1.257 . S
O283 Dy280 2.307 . S
O283 C293 1.266 . S
O284 Dy281 2.298 . S
O284 C293 1.236 . S
O285 Dy280 2.395 . S
O285 C302 1.255 . S
O286 Dy280 2.379 . S
O286 C302 1.249 . S
O287 Dy281 2.275 . S
O287 C303 1.254 . S
O288 Dy280 2.339 . S
O288 C303 1.257 . S
O289 Dy281 2.307 . S
O289 C304 1.266 . S
O290 Dy280 2.298 . S
O290 C304 1.236 . S
O291 Dy281 2.395 . S
O291 C311 1.255 . S
O292 Dy281 2.379 . S
O292 C311 1.249 . S
C293 O283 1.266 . S
C293 O284 1.236 . S
O294 Dy280 2.275 . S
O294 C282 1.254 . S
O295 Dy281 2.339 . S
O295 C282 1.257 . S
C296 C299 1.344 . S
C296 C300 1.328 . S
C296 C302 1.516 . S
C297 C298 1.304 . S
C297 C301 1.323 . S
C298 C297 1.304 . S
C298 C299 1.371 . S
C298 H312 0.930 . S
C299 C296 1.344 . S
C299 C298 1.371 . S
C299 H313 0.931 . S
C300 C296 1.328 . S
C300 C301 1.433 . S
C300 H314 0.931 . S
C301 C297 1.323 . S
C301 C300 1.433 . S
C301 H315 0.933 . S
C302 Dy280 2.738 . S
C302 O285 1.255 . S
C302 O286 1.249 . S
C302 C296 1.516 . S
C303 O287 1.254 . S
C303 O288 1.257 . S
C304 O289 1.266 . S
C304 O290 1.236 . S
C305 C308 1.344 . S
C305 C309 1.328 . S
C305 C311 1.516 . S
C306 C307 1.304 . S
C306 C310 1.323 . S
C307 C306 1.304 . S
C307 C308 1.371 . S
C307 H316 0.930 . S
C308 C305 1.344 . S
C308 C307 1.371 . S
C308 H317 0.931 . S
C309 C305 1.328 . S
C309 C310 1.433 . S
C309 H318 0.931 . S
C310 C306 1.323 . S
C310 C309 1.433 . S
C310 H319 0.933 . S
C311 Dy281 2.738 . S
C311 O291 1.255 . S
C311 O292 1.249 . S
C311 C305 1.516 . S
H312 C298 0.930 . S
H313 C299 0.931 . S
H314 C300 0.931 . S
H315 C301 0.933 . S
H316 C307 0.930 . S
H317 C308 0.931 . S
H318 C309 0.931 . S
H319 C310 0.933 . S
Dy320 O323 2.307 . S
Dy320 O325 2.395 . S
Dy320 O326 2.379 . S
Dy320 O328 2.339 . S
Dy320 O330 2.298 . S
Dy320 O334 2.275 . S
Dy320 C342 2.738 . S
Dy321 O324 2.298 . S
Dy321 O327 2.275 . S
Dy321 O329 2.307 . S
Dy321 O331 2.395 . S
Dy321 O332 2.379 . S
Dy321 O335 2.339 . S
Dy321 C351 2.738 . S
C322 O334 1.254 . S
C322 O335 1.257 . S
O323 Dy320 2.307 . S
O323 C333 1.266 . S
O324 Dy321 2.298 . S
O324 C333 1.236 . S
O325 Dy320 2.395 . S
O325 C342 1.255 . S
O326 Dy320 2.379 . S
O326 C342 1.249 . S
O327 Dy321 2.275 . S
O327 C343 1.254 . S
O328 Dy320 2.339 . S
O328 C343 1.257 . S
O329 Dy321 2.307 . S
O329 C344 1.266 . S
O330 Dy320 2.298 . S
O330 C344 1.236 . S
O331 Dy321 2.395 . S
O331 C351 1.255 . S
O332 Dy321 2.379 . S
O332 C351 1.249 . S
C333 O323 1.266 . S
C333 O324 1.236 . S
O334 Dy320 2.275 . S
O334 C322 1.254 . S
O335 Dy321 2.339 . S
O335 C322 1.257 . S
C336 C339 1.344 . S
C336 C340 1.328 . S
C336 C342 1.516 . S
C337 C338 1.304 . S
C337 C341 1.323 . S
C338 C337 1.304 . S
C338 C339 1.371 . S
C338 H352 0.930 . S
C339 C336 1.344 . S
C339 C338 1.371 . S
C339 H353 0.931 . S
C340 C336 1.328 . S
C340 C341 1.433 . S
C340 H354 0.931 . S
C341 C337 1.323 . S
C341 C340 1.433 . S
C341 H355 0.933 . S
C342 Dy320 2.738 . S
C342 O325 1.255 . S
C342 O326 1.249 . S
C342 C336 1.516 . S
C343 O327 1.254 . S
C343 O328 1.257 . S
C344 O329 1.266 . S
C344 O330 1.236 . S
C345 C348 1.344 . S
C345 C349 1.328 . S
C345 C351 1.516 . S
C346 C347 1.304 . S
C346 C350 1.323 . S
C347 C346 1.304 . S
C347 C348 1.371 . S
C347 H356 0.930 . S
C348 C345 1.344 . S
C348 C347 1.371 . S
C348 H357 0.931 . S
C349 C345 1.328 . S
C349 C350 1.433 . S
C349 H358 0.931 . S
C350 C346 1.323 . S
C350 C349 1.433 . S
C350 H359 0.933 . S
C351 Dy321 2.738 . S
C351 O331 1.255 . S
C351 O332 1.249 . S
C351 C345 1.516 . S
H352 C338 0.930 . S
H353 C339 0.931 . S
H354 C340 0.931 . S
H355 C341 0.933 . S
H356 C347 0.930 . S
H357 C348 0.931 . S
H358 C349 0.931 . S
H359 C350 0.933 . S
Dy360 O363 2.307 . S
Dy360 O365 2.395 . S
Dy360 O366 2.379 . S
Dy360 O368 2.339 . S
Dy360 O370 2.298 . S
Dy360 O374 2.275 . S
Dy360 C382 2.738 . S
Dy361 O364 2.298 . S
Dy361 O367 2.275 . S
Dy361 O369 2.307 . S
Dy361 O371 2.395 . S
Dy361 O372 2.379 . S
Dy361 O375 2.339 . S
Dy361 C391 2.738 . S
C362 O374 1.254 . S
C362 O375 1.257 . S
O363 Dy360 2.307 . S
O363 C373 1.266 . S
O364 Dy361 2.298 . S
O364 C373 1.236 . S
O365 Dy360 2.395 . S
O365 C382 1.255 . S
O366 Dy360 2.379 . S
O366 C382 1.249 . S
O367 Dy361 2.275 . S
O367 C383 1.254 . S
O368 Dy360 2.339 . S
O368 C383 1.257 . S
O369 Dy361 2.307 . S
O369 C384 1.266 . S
O370 Dy360 2.298 . S
O370 C384 1.236 . S
O371 Dy361 2.395 . S
O371 C391 1.255 . S
O372 Dy361 2.379 . S
O372 C391 1.249 . S
C373 O363 1.266 . S
C373 O364 1.236 . S
O374 Dy360 2.275 . S
O374 C362 1.254 . S
O375 Dy361 2.339 . S
O375 C362 1.257 . S
C376 C379 1.344 . S
C376 C380 1.328 . S
C376 C382 1.516 . S
C377 C378 1.304 . S
C377 C381 1.323 . S
C378 C377 1.304 . S
C378 C379 1.371 . S
C378 H392 0.930 . S
C379 C376 1.344 . S
C379 C378 1.371 . S
C379 H393 0.931 . S
C380 C376 1.328 . S
C380 C381 1.433 . S
C380 H394 0.931 . S
C381 C377 1.323 . S
C381 C380 1.433 . S
C381 H395 0.933 . S
C382 Dy360 2.738 . S
C382 O365 1.255 . S
C382 O366 1.249 . S
C382 C376 1.516 . S
C383 O367 1.254 . S
C383 O368 1.257 . S
C384 O369 1.266 . S
C384 O370 1.236 . S
C385 C388 1.344 . S
C385 C389 1.328 . S
C385 C391 1.516 . S
C386 C387 1.304 . S
C386 C390 1.323 . S
C387 C386 1.304 . S
C387 C388 1.371 . S
C387 H396 0.930 . S
C388 C385 1.344 . S
C388 C387 1.371 . S
C388 H397 0.931 . S
C389 C385 1.328 . S
C389 C390 1.433 . S
C389 H398 0.931 . S
C390 C386 1.323 . S
C390 C389 1.433 . S
C390 H399 0.933 . S
C391 Dy361 2.738 . S
C391 O371 1.255 . S
C391 O372 1.249 . S
C391 C385 1.516 . S
H392 C378 0.930 . S
H393 C379 0.931 . S
H394 C380 0.931 . S
H395 C381 0.933 . S
H396 C387 0.930 . S
H397 C388 0.931 . S
H398 C389 0.931 . S
H399 C390 0.933 . S
Dy400 O403 2.307 . S
Dy400 O405 2.395 . S
Dy400 O406 2.379 . S
Dy400 O408 2.339 . S
Dy400 O410 2.298 . S
Dy400 O414 2.275 . S
Dy400 C422 2.738 . S
Dy401 O404 2.298 1_455 S
Dy401 O407 2.275 . S
Dy401 O409 2.307 . S
Dy401 O411 2.395 1_455 S
Dy401 O412 2.379 1_455 S
Dy401 O415 2.339 . S
Dy401 C431 2.738 1_455 S
C402 O414 1.254 . S
C402 O415 1.257 . S
O403 Dy400 2.307 . S
O403 C413 1.266 . S
O404 Dy401 2.298 1_655 S
O404 C413 1.236 1_655 S
O405 Dy400 2.395 . S
O405 C422 1.255 . S
O406 Dy400 2.379 . S
O406 C422 1.249 . S
O407 Dy401 2.275 . S
O407 C423 1.254 . S
O408 Dy400 2.339 . S
O408 C423 1.257 . S
O409 Dy401 2.307 . S
O409 C424 1.266 . S
O410 Dy400 2.298 . S
O410 C424 1.236 . S
O411 Dy401 2.395 1_655 S
O411 C431 1.255 . S
O412 Dy401 2.379 1_655 S
O412 C431 1.249 . S
C413 O403 1.266 . S
C413 O404 1.236 1_455 S
O414 Dy400 2.275 . S
O414 C402 1.254 . S
O415 Dy401 2.339 . S
O415 C402 1.257 . S
C416 C419 1.344 . S
C416 C420 1.328 . S
C416 C422 1.516 . S
C417 C418 1.304 . S
C417 C421 1.323 . S
C418 C417 1.304 . S
C418 C419 1.371 . S
C418 H432 0.930 . S
C419 C416 1.344 . S
C419 C418 1.371 . S
C419 H433 0.931 . S
C420 C416 1.328 . S
C420 C421 1.433 . S
C420 H434 0.931 . S
C421 C417 1.323 . S
C421 C420 1.433 . S
C421 H435 0.933 . S
C422 Dy400 2.738 . S
C422 O405 1.255 . S
C422 O406 1.249 . S
C422 C416 1.516 . S
C423 O407 1.254 . S
C423 O408 1.257 . S
C424 O409 1.266 . S
C424 O410 1.236 . S
C425 C428 1.344 . S
C425 C429 1.328 . S
C425 C431 1.516 . S
C426 C427 1.304 . S
C426 C430 1.323 . S
C427 C426 1.304 . S
C427 C428 1.371 . S
C427 H436 0.930 . S
C428 C425 1.344 . S
C428 C427 1.371 . S
C428 H437 0.931 . S
C429 C425 1.328 . S
C429 C430 1.433 . S
C429 H438 0.931 . S
C430 C426 1.323 . S
C430 C429 1.433 . S
C430 H439 0.933 . S
C431 Dy401 2.738 1_655 S
C431 O411 1.255 . S
C431 O412 1.249 . S
C431 C425 1.516 . S
H432 C418 0.930 . S
H433 C419 0.931 . S
H434 C420 0.931 . S
H435 C421 0.933 . S
H436 C427 0.930 . S
H437 C428 0.931 . S
H438 C429 0.931 . S
H439 C430 0.933 . S
Dy440 O443 2.307 . S
Dy440 O445 2.395 . S
Dy440 O446 2.379 . S
Dy440 O448 2.339 . S
Dy440 O450 2.298 . S
Dy440 O454 2.275 . S
Dy440 C462 2.738 . S
Dy441 O444 2.298 1_545 S
Dy441 O447 2.275 . S
Dy441 O449 2.307 . S
Dy441 O451 2.395 1_545 S
Dy441 O452 2.379 1_545 S
Dy441 O455 2.339 . S
Dy441 C471 2.738 1_545 S
C442 O454 1.254 . S
C442 O455 1.257 . S
O443 Dy440 2.307 . S
O443 C453 1.266 . S
O444 Dy441 2.298 1_565 S
O444 C453 1.236 1_565 S
O445 Dy440 2.395 . S
O445 C462 1.255 . S
O446 Dy440 2.379 . S
O446 C462 1.249 . S
O447 Dy441 2.275 . S
O447 C463 1.254 . S
O448 Dy440 2.339 . S
O448 C463 1.257 . S
O449 Dy441 2.307 . S
O449 C464 1.266 . S
O450 Dy440 2.298 . S
O450 C464 1.236 . S
O451 Dy441 2.395 1_565 S
O451 C471 1.255 . S
O452 Dy441 2.379 1_565 S
O452 C471 1.249 . S
C453 O443 1.266 . S
C453 O444 1.236 1_545 S
O454 Dy440 2.275 . S
O454 C442 1.254 . S
O455 Dy441 2.339 . S
O455 C442 1.257 . S
C456 C459 1.344 . S
C456 C460 1.328 . S
C456 C462 1.516 . S
C457 C458 1.304 . S
C457 C461 1.323 . S
C458 C457 1.304 . S
C458 C459 1.371 . S
C458 H472 0.930 . S
C459 C456 1.344 . S
C459 C458 1.371 . S
C459 H473 0.931 . S
C460 C456 1.328 . S
C460 C461 1.433 . S
C460 H474 0.931 . S
C461 C457 1.323 . S
C461 C460 1.433 . S
C461 H475 0.933 . S
C462 Dy440 2.738 . S
C462 O445 1.255 . S
C462 O446 1.249 . S
C462 C456 1.516 . S
C463 O447 1.254 . S
C463 O448 1.257 . S
C464 O449 1.266 . S
C464 O450 1.236 . S
C465 C468 1.344 . S
C465 C469 1.328 . S
C465 C471 1.516 . S
C466 C467 1.304 . S
C466 C470 1.323 . S
C467 C466 1.304 . S
C467 C468 1.371 . S
C467 H476 0.930 . S
C468 C465 1.344 . S
C468 C467 1.371 . S
C468 H477 0.931 . S
C469 C465 1.328 . S
C469 C470 1.433 . S
C469 H478 0.931 . S
C470 C466 1.323 . S
C470 C469 1.433 . S
C470 H479 0.933 . S
C471 Dy441 2.738 1_565 S
C471 O451 1.255 . S
C471 O452 1.249 . S
C471 C465 1.516 . S
H472 C458 0.930 . S
H473 C459 0.931 . S
H474 C460 0.931 . S
H475 C461 0.933 . S
H476 C467 0.930 . S
H477 C468 0.931 . S
H478 C469 0.931 . S
H479 C470 0.933 . S
Dy480 O483 2.307 . S
Dy480 O485 2.395 . S
Dy480 O486 2.379 . S
Dy480 O488 2.339 . S
Dy480 O490 2.298 . S
Dy480 O494 2.275 . S
Dy480 C502 2.738 . S
Dy481 O484 2.298 1_655 S
Dy481 O487 2.275 . S
Dy481 O489 2.307 . S
Dy481 O491 2.395 1_655 S
Dy481 O492 2.379 1_655 S
Dy481 O495 2.339 . S
Dy481 C511 2.738 1_655 S
C482 O494 1.254 . S
C482 O495 1.257 . S
O483 Dy480 2.307 . S
O483 C493 1.266 . S
O484 Dy481 2.298 1_455 S
O484 C493 1.236 1_455 S
O485 Dy480 2.395 . S
O485 C502 1.255 . S
O486 Dy480 2.379 . S
O486 C502 1.249 . S
O487 Dy481 2.275 . S
O487 C503 1.254 . S
O488 Dy480 2.339 . S
O488 C503 1.257 . S
O489 Dy481 2.307 . S
O489 C504 1.266 . S
O490 Dy480 2.298 . S
O490 C504 1.236 . S
O491 Dy481 2.395 1_455 S
O491 C511 1.255 . S
O492 Dy481 2.379 1_455 S
O492 C511 1.249 . S
C493 O483 1.266 . S
C493 O484 1.236 1_655 S
O494 Dy480 2.275 . S
O494 C482 1.254 . S
O495 Dy481 2.339 . S
O495 C482 1.257 . S
C496 C499 1.344 . S
C496 C500 1.328 . S
C496 C502 1.516 . S
C497 C498 1.304 . S
C497 C501 1.323 . S
C498 C497 1.304 . S
C498 C499 1.371 . S
C498 H512 0.930 . S
C499 C496 1.344 . S
C499 C498 1.371 . S
C499 H513 0.931 . S
C500 C496 1.328 . S
C500 C501 1.433 . S
C500 H514 0.931 . S
C501 C497 1.323 . S
C501 C500 1.433 . S
C501 H515 0.933 . S
C502 Dy480 2.738 . S
C502 O485 1.255 . S
C502 O486 1.249 . S
C502 C496 1.516 . S
C503 O487 1.254 . S
C503 O488 1.257 . S
C504 O489 1.266 . S
C504 O490 1.236 . S
C505 C508 1.344 . S
C505 C509 1.328 . S
C505 C511 1.516 . S
C506 C507 1.304 . S
C506 C510 1.323 . S
C507 C506 1.304 . S
C507 C508 1.371 . S
C507 H516 0.930 . S
C508 C505 1.344 . S
C508 C507 1.371 . S
C508 H517 0.931 . S
C509 C505 1.328 . S
C509 C510 1.433 . S
C509 H518 0.931 . S
C510 C506 1.323 . S
C510 C509 1.433 . S
C510 H519 0.933 . S
C511 Dy481 2.738 1_455 S
C511 O491 1.255 . S
C511 O492 1.249 . S
C511 C505 1.516 . S
H512 C498 0.930 . S
H513 C499 0.931 . S
H514 C500 0.931 . S
H515 C501 0.933 . S
H516 C507 0.930 . S
H517 C508 0.931 . S
H518 C509 0.931 . S
H519 C510 0.933 . S
Dy520 O523 2.307 . S
Dy520 O525 2.395 . S
Dy520 O526 2.379 . S
Dy520 O528 2.339 . S
Dy520 O530 2.298 . S
Dy520 O534 2.275 . S
Dy520 C542 2.738 . S
Dy521 O524 2.298 1_565 S
Dy521 O527 2.275 . S
Dy521 O529 2.307 . S
Dy521 O531 2.395 1_565 S
Dy521 O532 2.379 1_565 S
Dy521 O535 2.339 . S
Dy521 C551 2.738 1_565 S
C522 O534 1.254 . S
C522 O535 1.257 . S
O523 Dy520 2.307 . S
O523 C533 1.266 . S
O524 Dy521 2.298 1_545 S
O524 C533 1.236 1_545 S
O525 Dy520 2.395 . S
O525 C542 1.255 . S
O526 Dy520 2.379 . S
O526 C542 1.249 . S
O527 Dy521 2.275 . S
O527 C543 1.254 . S
O528 Dy520 2.339 . S
O528 C543 1.257 . S
O529 Dy521 2.307 . S
O529 C544 1.266 . S
O530 Dy520 2.298 . S
O530 C544 1.236 . S
O531 Dy521 2.395 1_545 S
O531 C551 1.255 . S
O532 Dy521 2.379 1_545 S
O532 C551 1.249 . S
C533 O523 1.266 . S
C533 O524 1.236 1_565 S
O534 Dy520 2.275 . S
O534 C522 1.254 . S
O535 Dy521 2.339 . S
O535 C522 1.257 . S
C536 C539 1.344 . S
C536 C540 1.328 . S
C536 C542 1.516 . S
C537 C538 1.304 . S
C537 C541 1.323 . S
C538 C537 1.304 . S
C538 C539 1.371 . S
C538 H552 0.930 . S
C539 C536 1.344 . S
C539 C538 1.371 . S
C539 H553 0.931 . S
C540 C536 1.328 . S
C540 C541 1.433 . S
C540 H554 0.931 . S
C541 C537 1.323 . S
C541 C540 1.433 . S
C541 H555 0.933 . S
C542 Dy520 2.738 . S
C542 O525 1.255 . S
C542 O526 1.249 . S
C542 C536 1.516 . S
C543 O527 1.254 . S
C543 O528 1.257 . S
C544 O529 1.266 . S
C544 O530 1.236 . S
C545 C548 1.344 . S
C545 C549 1.328 . S
C545 C551 1.516 . S
C546 C547 1.304 . S
C546 C550 1.323 . S
C547 C546 1.304 . S
C547 C548 1.371 . S
C547 H556 0.930 . S
C548 C545 1.344 . S
C548 C547 1.371 . S
C548 H557 0.931 . S
C549 C545 1.328 . S
C549 C550 1.433 . S
C549 H558 0.931 . S
C550 C546 1.323 . S
C550 C549 1.433 . S
C550 H559 0.933 . S
C551 Dy521 2.738 1_545 S
C551 O531 1.255 . S
C551 O532 1.249 . S
C551 C545 1.516 . S
H552 C538 0.930 . S
H553 C539 0.931 . S
H554 C540 0.931 . S
H555 C541 0.933 . S
H556 C547 0.930 . S
H557 C548 0.931 . S
H558 C549 0.931 . S
H559 C550 0.933 . S
Dy560 O563 2.307 . S
Dy560 O565 2.395 . S
Dy560 O566 2.379 . S
Dy560 O568 2.339 . S
Dy560 O570 2.298 . S
Dy560 O574 2.275 . S
Dy560 C582 2.738 . S
Dy561 O564 2.298 . S
Dy561 O567 2.275 . S
Dy561 O569 2.307 . S
Dy561 O571 2.395 . S
Dy561 O572 2.379 . S
Dy561 O575 2.339 . S
Dy561 C591 2.738 . S
C562 O574 1.254 . S
C562 O575 1.257 . S
O563 Dy560 2.307 . S
O563 C573 1.266 . S
O564 Dy561 2.298 . S
O564 C573 1.236 . S
O565 Dy560 2.395 . S
O565 C582 1.255 . S
O566 Dy560 2.379 . S
O566 C582 1.249 . S
O567 Dy561 2.275 . S
O567 C583 1.254 . S
O568 Dy560 2.339 . S
O568 C583 1.257 . S
O569 Dy561 2.307 . S
O569 C584 1.266 . S
O570 Dy560 2.298 . S
O570 C584 1.236 . S
O571 Dy561 2.395 . S
O571 C591 1.255 . S
O572 Dy561 2.379 . S
O572 C591 1.249 . S
C573 O563 1.266 . S
C573 O564 1.236 . S
O574 Dy560 2.275 . S
O574 C562 1.254 . S
O575 Dy561 2.339 . S
O575 C562 1.257 . S
C576 C579 1.344 . S
C576 C580 1.328 . S
C576 C582 1.516 . S
C577 C578 1.304 . S
C577 C581 1.323 . S
C578 C577 1.304 . S
C578 C579 1.371 . S
C578 H592 0.930 . S
C579 C576 1.344 . S
C579 C578 1.371 . S
C579 H593 0.931 . S
C580 C576 1.328 . S
C580 C581 1.433 . S
C580 H594 0.931 . S
C581 C577 1.323 . S
C581 C580 1.433 . S
C581 H595 0.933 . S
C582 Dy560 2.738 . S
C582 O565 1.255 . S
C582 O566 1.249 . S
C582 C576 1.516 . S
C583 O567 1.254 . S
C583 O568 1.257 . S
C584 O569 1.266 . S
C584 O570 1.236 . S
C585 C588 1.344 . S
C585 C589 1.328 . S
C585 C591 1.516 . S
C586 C587 1.304 . S
C586 C590 1.323 . S
C587 C586 1.304 . S
C587 C588 1.371 . S
C587 H596 0.930 . S
C588 C585 1.344 . S
C588 C587 1.371 . S
C588 H597 0.931 . S
C589 C585 1.328 . S
C589 C590 1.433 . S
C589 H598 0.931 . S
C590 C586 1.323 . S
C590 C589 1.433 . S
C590 H599 0.933 . S
C591 Dy561 2.738 . S
C591 O571 1.255 . S
C591 O572 1.249 . S
C591 C585 1.516 . S
H592 C578 0.930 . S
H593 C579 0.931 . S
H594 C580 0.931 . S
H595 C581 0.933 . S
H596 C587 0.930 . S
H597 C588 0.931 . S
H598 C589 0.931 . S
H599 C590 0.933 . S
Dy600 O603 2.307 . S
Dy600 O605 2.395 . S
Dy600 O606 2.379 . S
Dy600 O608 2.339 . S
Dy600 O610 2.298 . S
Dy600 O614 2.275 . S
Dy600 C622 2.738 . S
Dy601 O604 2.298 . S
Dy601 O607 2.275 . S
Dy601 O609 2.307 . S
Dy601 O611 2.395 . S
Dy601 O612 2.379 . S
Dy601 O615 2.339 . S
Dy601 C631 2.738 . S
C602 O614 1.254 . S
C602 O615 1.257 . S
O603 Dy600 2.307 . S
O603 C613 1.266 . S
O604 Dy601 2.298 . S
O604 C613 1.236 . S
O605 Dy600 2.395 . S
O605 C622 1.255 . S
O606 Dy600 2.379 . S
O606 C622 1.249 . S
O607 Dy601 2.275 . S
O607 C623 1.254 . S
O608 Dy600 2.339 . S
O608 C623 1.257 . S
O609 Dy601 2.307 . S
O609 C624 1.266 . S
O610 Dy600 2.298 . S
O610 C624 1.236 . S
O611 Dy601 2.395 . S
O611 C631 1.255 . S
O612 Dy601 2.379 . S
O612 C631 1.249 . S
C613 O603 1.266 . S
C613 O604 1.236 . S
O614 Dy600 2.275 . S
O614 C602 1.254 . S
O615 Dy601 2.339 . S
O615 C602 1.257 . S
C616 C619 1.344 . S
C616 C620 1.328 . S
C616 C622 1.516 . S
C617 C618 1.304 . S
C617 C621 1.323 . S
C618 C617 1.304 . S
C618 C619 1.371 . S
C618 H632 0.930 . S
C619 C616 1.344 . S
C619 C618 1.371 . S
C619 H633 0.931 . S
C620 C616 1.328 . S
C620 C621 1.433 . S
C620 H634 0.931 . S
C621 C617 1.323 . S
C621 C620 1.433 . S
C621 H635 0.933 . S
C622 Dy600 2.738 . S
C622 O605 1.255 . S
C622 O606 1.249 . S
C622 C616 1.516 . S
C623 O607 1.254 . S
C623 O608 1.257 . S
C624 O609 1.266 . S
C624 O610 1.236 . S
C625 C628 1.344 . S
C625 C629 1.328 . S
C625 C631 1.516 . S
C626 C627 1.304 . S
C626 C630 1.323 . S
C627 C626 1.304 . S
C627 C628 1.371 . S
C627 H636 0.930 . S
C628 C625 1.344 . S
C628 C627 1.371 . S
C628 H637 0.931 . S
C629 C625 1.328 . S
C629 C630 1.433 . S
C629 H638 0.931 . S
C630 C626 1.323 . S
C630 C629 1.433 . S
C630 H639 0.933 . S
C631 Dy601 2.738 . S
C631 O611 1.255 . S
C631 O612 1.249 . S
C631 C625 1.516 . S
H632 C618 0.930 . S
H633 C619 0.931 . S
H634 C620 0.931 . S
H635 C621 0.933 . S
H636 C627 0.930 . S
H637 C628 0.931 . S
H638 C629 0.931 . S
H639 C630 0.933 . S
C640 C641 1.391 . S
C640 C642 1.394 . S
C640 H656 0.931 . S
C641 C640 1.391 . S
C641 C645 1.376 . S
C642 C640 1.394 . S
C642 C643 1.369 . S
C642 C646 1.531 . S
C643 C642 1.369 . S
C643 C644 1.410 . S
C643 C651 1.503 . S
C644 C643 1.410 . S
C644 C645 1.392 . S
C644 C647 1.511 . S
C645 C641 1.376 . S
C645 C644 1.392 . S
C645 H657 0.929 . S
C646 C642 1.531 . S
C646 H658 0.960 . S
C646 H659 0.962 . S
C646 H660 0.960 . S
C647 C644 1.511 . S
C647 H661 0.961 . S
C647 H662 0.961 . S
C647 H663 0.961 . S
C648 C649 1.370 . S
C648 C650 1.363 . S
C648 H664 0.931 . S
C649 C648 1.370 . S
C649 C653 1.408 . S
C650 C648 1.363 . S
C650 C651 1.370 . S
C650 C654 1.524 . S
C651 C643 1.503 . S
C651 C650 1.370 . S
C651 C652 1.403 . S
C652 C651 1.403 . S
C652 C653 1.404 . S
C652 C655 1.539 . S
C653 C649 1.408 . S
C653 C652 1.404 . S
C653 H665 0.930 . S
C654 C650 1.524 . S
C654 H666 0.956 . S
C654 H667 0.961 . S
C654 H668 0.961 . S
C655 C652 1.539 . S
C655 H669 0.958 . S
C655 H670 0.961 . S
C655 H671 0.960 . S
H656 C640 0.931 . S
H657 C645 0.929 . S
H658 C646 0.960 . S
H659 C646 0.962 . S
H660 C646 0.960 . S
H661 C647 0.961 . S
H662 C647 0.961 . S
H663 C647 0.961 . S
H664 C648 0.931 . S
H665 C653 0.930 . S
H666 C654 0.956 . S
H667 C654 0.961 . S
H668 C654 0.961 . S
H669 C655 0.958 . S
H670 C655 0.961 . S
H671 C655 0.960 . S
C672 C673 1.391 . S
C672 C674 1.394 . S
C672 H688 0.931 . S
C673 C672 1.391 . S
C673 C677 1.376 . S
C674 C672 1.394 . S
C674 C675 1.369 . S
C674 C678 1.531 . S
C675 C674 1.369 . S
C675 C676 1.410 . S
C675 C683 1.503 . S
C676 C675 1.410 . S
C676 C677 1.392 . S
C676 C679 1.511 . S
C677 C673 1.376 . S
C677 C676 1.392 . S
C677 H689 0.929 . S
C678 C674 1.531 . S
C678 H690 0.960 . S
C678 H691 0.962 . S
C678 H692 0.960 . S
C679 C676 1.511 . S
C679 H693 0.961 . S
C679 H694 0.961 . S
C679 H695 0.961 . S
C680 C681 1.370 . S
C680 C682 1.363 . S
C680 H696 0.931 . S
C681 C680 1.370 . S
C681 C685 1.408 . S
C682 C680 1.363 . S
C682 C683 1.370 . S
C682 C686 1.524 . S
C683 C675 1.503 . S
C683 C682 1.370 . S
C683 C684 1.403 . S
C684 C683 1.403 . S
C684 C685 1.404 . S
C684 C687 1.539 . S
C685 C681 1.408 . S
C685 C684 1.404 . S
C685 H697 0.930 . S
C686 C682 1.524 . S
C686 H698 0.956 . S
C686 H699 0.961 . S
C686 H700 0.961 . S
C687 C684 1.539 . S
C687 H701 0.958 . S
C687 H702 0.961 . S
C687 H703 0.960 . S
H688 C672 0.931 . S
H689 C677 0.929 . S
H690 C678 0.960 . S
H691 C678 0.962 . S
H692 C678 0.960 . S
H693 C679 0.961 . S
H694 C679 0.961 . S
H695 C679 0.961 . S
H696 C680 0.931 . S
H697 C685 0.930 . S
H698 C686 0.956 . S
H699 C686 0.961 . S
H700 C686 0.961 . S
H701 C687 0.958 . S
H702 C687 0.961 . S
H703 C687 0.960 . S
C704 C705 1.391 . S
C704 C706 1.394 . S
C704 H720 0.931 . S
C705 C704 1.391 . S
C705 C709 1.376 . S
C706 C704 1.394 . S
C706 C707 1.369 . S
C706 C710 1.531 . S
C707 C706 1.369 . S
C707 C708 1.410 . S
C707 C715 1.503 . S
C708 C707 1.410 . S
C708 C709 1.392 . S
C708 C711 1.511 . S
C709 C705 1.376 . S
C709 C708 1.392 . S
C709 H721 0.929 . S
C710 C706 1.531 . S
C710 H722 0.960 . S
C710 H723 0.962 . S
C710 H724 0.960 . S
C711 C708 1.511 . S
C711 H725 0.961 . S
C711 H726 0.961 . S
C711 H727 0.961 . S
C712 C713 1.370 . S
C712 C714 1.363 . S
C712 H728 0.931 . S
C713 C712 1.370 . S
C713 C717 1.408 . S
C714 C712 1.363 . S
C714 C715 1.370 . S
C714 C718 1.524 . S
C715 C707 1.503 . S
C715 C714 1.370 . S
C715 C716 1.403 . S
C716 C715 1.403 . S
C716 C717 1.404 . S
C716 C719 1.539 . S
C717 C713 1.408 . S
C717 C716 1.404 . S
C717 H729 0.930 . S
C718 C714 1.524 . S
C718 H730 0.956 . S
C718 H731 0.961 . S
C718 H732 0.961 . S
C719 C716 1.539 . S
C719 H733 0.958 . S
C719 H734 0.961 . S
C719 H735 0.960 . S
H720 C704 0.931 . S
H721 C709 0.929 . S
H722 C710 0.960 . S
H723 C710 0.962 . S
H724 C710 0.960 . S
H725 C711 0.961 . S
H726 C711 0.961 . S
H727 C711 0.961 . S
H728 C712 0.931 . S
H729 C717 0.930 . S
H730 C718 0.956 . S
H731 C718 0.961 . S
H732 C718 0.961 . S
H733 C719 0.958 . S
H734 C719 0.961 . S
H735 C719 0.960 . S
C736 C737 1.391 . S
C736 C738 1.394 . S
C736 H752 0.931 . S
C737 C736 1.391 . S
C737 C741 1.376 . S
C738 C736 1.394 . S
C738 C739 1.369 . S
C738 C742 1.531 . S
C739 C738 1.369 . S
C739 C740 1.410 . S
C739 C747 1.503 . S
C740 C739 1.410 . S
C740 C741 1.392 . S
C740 C743 1.511 . S
C741 C737 1.376 . S
C741 C740 1.392 . S
C741 H753 0.929 . S
C742 C738 1.531 . S
C742 H754 0.960 . S
C742 H755 0.962 . S
C742 H756 0.960 . S
C743 C740 1.511 . S
C743 H757 0.961 . S
C743 H758 0.961 . S
C743 H759 0.961 . S
C744 C745 1.370 . S
C744 C746 1.363 . S
C744 H760 0.931 . S
C745 C744 1.370 . S
C745 C749 1.408 . S
C746 C744 1.363 . S
C746 C747 1.370 . S
C746 C750 1.524 . S
C747 C739 1.503 . S
C747 C746 1.370 . S
C747 C748 1.403 . S
C748 C747 1.403 . S
C748 C749 1.404 . S
C748 C751 1.539 . S
C749 C745 1.408 . S
C749 C748 1.404 . S
C749 H761 0.930 . S
C750 C746 1.524 . S
C750 H762 0.956 . S
C750 H763 0.961 . S
C750 H764 0.961 . S
C751 C748 1.539 . S
C751 H765 0.958 . S
C751 H766 0.961 . S
C751 H767 0.960 . S
H752 C736 0.931 . S
H753 C741 0.929 . S
H754 C742 0.960 . S
H755 C742 0.962 . S
H756 C742 0.960 . S
H757 C743 0.961 . S
H758 C743 0.961 . S
H759 C743 0.961 . S
H760 C744 0.931 . S
H761 C749 0.930 . S
H762 C750 0.956 . S
H763 C750 0.961 . S
H764 C750 0.961 . S
H765 C751 0.958 . S
H766 C751 0.961 . S
H767 C751 0.960 . S
C768 C769 1.391 . S
C768 C770 1.394 . S
C768 H784 0.931 . S
C769 C768 1.391 . S
C769 C773 1.376 . S
C770 C768 1.394 . S
C770 C771 1.369 . S
C770 C774 1.531 . S
C771 C770 1.369 . S
C771 C772 1.410 . S
C771 C779 1.503 . S
C772 C771 1.410 . S
C772 C773 1.392 . S
C772 C775 1.511 . S
C773 C769 1.376 . S
C773 C772 1.392 . S
C773 H785 0.929 . S
C774 C770 1.531 . S
C774 H786 0.960 . S
C774 H787 0.962 . S
C774 H788 0.960 . S
C775 C772 1.511 . S
C775 H789 0.961 . S
C775 H790 0.961 . S
C775 H791 0.961 . S
C776 C777 1.370 . S
C776 C778 1.363 . S
C776 H792 0.931 . S
C777 C776 1.370 . S
C777 C781 1.408 . S
C778 C776 1.363 . S
C778 C779 1.370 . S
C778 C782 1.524 . S
C779 C771 1.503 . S
C779 C778 1.370 . S
C779 C780 1.403 . S
C780 C779 1.403 . S
C780 C781 1.404 . S
C780 C783 1.539 . S
C781 C777 1.408 . S
C781 C780 1.404 . S
C781 H793 0.930 . S
C782 C778 1.524 . S
C782 H794 0.956 . S
C782 H795 0.961 . S
C782 H796 0.961 . S
C783 C780 1.539 . S
C783 H797 0.958 . S
C783 H798 0.961 . S
C783 H799 0.960 . S
H784 C768 0.931 . S
H785 C773 0.929 . S
H786 C774 0.960 . S
H787 C774 0.962 . S
H788 C774 0.960 . S
H789 C775 0.961 . S
H790 C775 0.961 . S
H791 C775 0.961 . S
H792 C776 0.931 . S
H793 C781 0.930 . S
H794 C782 0.956 . S
H795 C782 0.961 . S
H796 C782 0.961 . S
H797 C783 0.958 . S
H798 C783 0.961 . S
H799 C783 0.960 . S
C800 C801 1.391 . S
C800 C802 1.394 . S
C800 H816 0.931 . S
C801 C800 1.391 . S
C801 C805 1.376 . S
C802 C800 1.394 . S
C802 C803 1.369 . S
C802 C806 1.531 . S
C803 C802 1.369 . S
C803 C804 1.410 . S
C803 C811 1.503 . S
C804 C803 1.410 . S
C804 C805 1.392 . S
C804 C807 1.511 . S
C805 C801 1.376 . S
C805 C804 1.392 . S
C805 H817 0.929 . S
C806 C802 1.531 . S
C806 H818 0.960 . S
C806 H819 0.962 . S
C806 H820 0.960 . S
C807 C804 1.511 . S
C807 H821 0.961 . S
C807 H822 0.961 . S
C807 H823 0.961 . S
C808 C809 1.370 . S
C808 C810 1.363 . S
C808 H824 0.931 . S
C809 C808 1.370 . S
C809 C813 1.408 . S
C810 C808 1.363 . S
C810 C811 1.370 . S
C810 C814 1.524 . S
C811 C803 1.503 . S
C811 C810 1.370 . S
C811 C812 1.403 . S
C812 C811 1.403 . S
C812 C813 1.404 . S
C812 C815 1.539 . S
C813 C809 1.408 . S
C813 C812 1.404 . S
C813 H825 0.930 . S
C814 C810 1.524 . S
C814 H826 0.956 . S
C814 H827 0.961 . S
C814 H828 0.961 . S
C815 C812 1.539 . S
C815 H829 0.958 . S
C815 H830 0.961 . S
C815 H831 0.960 . S
H816 C800 0.931 . S
H817 C805 0.929 . S
H818 C806 0.960 . S
H819 C806 0.962 . S
H820 C806 0.960 . S
H821 C807 0.961 . S
H822 C807 0.961 . S
H823 C807 0.961 . S
H824 C808 0.931 . S
H825 C813 0.930 . S
H826 C814 0.956 . S
H827 C814 0.961 . S
H828 C814 0.961 . S
H829 C815 0.958 . S
H830 C815 0.961 . S
H831 C815 0.960 . S
C832 C833 1.391 . S
C832 C834 1.394 . S
C832 H848 0.931 . S
C833 C832 1.391 . S
C833 C837 1.376 . S
C834 C832 1.394 . S
C834 C835 1.369 . S
C834 C838 1.531 . S
C835 C834 1.369 . S
C835 C836 1.410 . S
C835 C843 1.503 . S
C836 C835 1.410 . S
C836 C837 1.392 . S
C836 C839 1.511 . S
C837 C833 1.376 . S
C837 C836 1.392 . S
C837 H849 0.929 . S
C838 C834 1.531 . S
C838 H850 0.960 . S
C838 H851 0.962 . S
C838 H852 0.960 . S
C839 C836 1.511 . S
C839 H853 0.961 . S
C839 H854 0.961 . S
C839 H855 0.961 . S
C840 C841 1.370 . S
C840 C842 1.363 . S
C840 H856 0.931 . S
C841 C840 1.370 . S
C841 C845 1.408 . S
C842 C840 1.363 . S
C842 C843 1.370 . S
C842 C846 1.524 . S
C843 C835 1.503 . S
C843 C842 1.370 . S
C843 C844 1.403 . S
C844 C843 1.403 . S
C844 C845 1.404 . S
C844 C847 1.539 . S
C845 C841 1.408 . S
C845 C844 1.404 . S
C845 H857 0.930 . S
C846 C842 1.524 . S
C846 H858 0.956 . S
C846 H859 0.961 . S
C846 H860 0.961 . S
C847 C844 1.539 . S
C847 H861 0.958 . S
C847 H862 0.961 . S
C847 H863 0.960 . S
H848 C832 0.931 . S
H849 C837 0.929 . S
H850 C838 0.960 . S
H851 C838 0.962 . S
H852 C838 0.960 . S
H853 C839 0.961 . S
H854 C839 0.961 . S
H855 C839 0.961 . S
H856 C840 0.931 . S
H857 C845 0.930 . S
H858 C846 0.956 . S
H859 C846 0.961 . S
H860 C846 0.961 . S
H861 C847 0.958 . S
H862 C847 0.961 . S
H863 C847 0.960 . S
C864 C865 1.391 . S
C864 C866 1.394 . S
C864 H880 0.931 . S
C865 C864 1.391 . S
C865 C869 1.376 . S
C866 C864 1.394 . S
C866 C867 1.369 . S
C866 C870 1.531 . S
C867 C866 1.369 . S
C867 C868 1.410 . S
C867 C875 1.503 . S
C868 C867 1.410 . S
C868 C869 1.392 . S
C868 C871 1.511 . S
C869 C865 1.376 . S
C869 C868 1.392 . S
C869 H881 0.929 . S
C870 C866 1.531 . S
C870 H882 0.960 . S
C870 H883 0.962 . S
C870 H884 0.960 . S
C871 C868 1.511 . S
C871 H885 0.961 . S
C871 H886 0.961 . S
C871 H887 0.961 . S
C872 C873 1.370 . S
C872 C874 1.363 . S
C872 H888 0.931 . S
C873 C872 1.370 . S
C873 C877 1.408 . S
C874 C872 1.363 . S
C874 C875 1.370 . S
C874 C878 1.524 . S
C875 C867 1.503 . S
C875 C874 1.370 . S
C875 C876 1.403 . S
C876 C875 1.403 . S
C876 C877 1.404 . S
C876 C879 1.539 . S
C877 C873 1.408 . S
C877 C876 1.404 . S
C877 H889 0.930 . S
C878 C874 1.524 . S
C878 H890 0.956 . S
C878 H891 0.961 . S
C878 H892 0.961 . S
C879 C876 1.539 . S
C879 H893 0.958 . S
C879 H894 0.961 . S
C879 H895 0.960 . S
H880 C864 0.931 . S
H881 C869 0.929 . S
H882 C870 0.960 . S
H883 C870 0.962 . S
H884 C870 0.960 . S
H885 C871 0.961 . S
H886 C871 0.961 . S
H887 C871 0.961 . S
H888 C872 0.931 . S
H889 C877 0.930 . S
H890 C878 0.956 . S
H891 C878 0.961 . S
H892 C878 0.961 . S
H893 C879 0.958 . S
H894 C879 0.961 . S
H895 C879 0.960 . S
C896 C897 1.391 . S
C896 C898 1.394 . S
C896 H912 0.931 . S
C897 C896 1.391 . S
C897 C901 1.376 . S
C898 C896 1.394 . S
C898 C899 1.369 . S
C898 C902 1.531 . S
C899 C898 1.369 . S
C899 C900 1.410 . S
C899 C907 1.503 . S
C900 C899 1.410 . S
C900 C901 1.392 . S
C900 C903 1.511 . S
C901 C897 1.376 . S
C901 C900 1.392 . S
C901 H913 0.929 . S
C902 C898 1.531 . S
C902 H914 0.960 . S
C902 H915 0.962 . S
C902 H916 0.960 . S
C903 C900 1.511 . S
C903 H917 0.961 . S
C903 H918 0.961 . S
C903 H919 0.961 . S
C904 C905 1.370 . S
C904 C906 1.363 . S
C904 H920 0.931 . S
C905 C904 1.370 . S
C905 C909 1.408 . S
C906 C904 1.363 . S
C906 C907 1.370 . S
C906 C910 1.524 . S
C907 C899 1.503 . S
C907 C906 1.370 . S
C907 C908 1.403 . S
C908 C907 1.403 . S
C908 C909 1.404 . S
C908 C911 1.539 . S
C909 C905 1.408 . S
C909 C908 1.404 . S
C909 H921 0.930 . S
C910 C906 1.524 . S
C910 H922 0.956 . S
C910 H923 0.961 . S
C910 H924 0.961 . S
C911 C908 1.539 . S
C911 H925 0.958 . S
C911 H926 0.961 . S
C911 H927 0.960 . S
H912 C896 0.931 . S
H913 C901 0.929 . S
H914 C902 0.960 . S
H915 C902 0.962 . S
H916 C902 0.960 . S
H917 C903 0.961 . S
H918 C903 0.961 . S
H919 C903 0.961 . S
H920 C904 0.931 . S
H921 C909 0.930 . S
H922 C910 0.956 . S
H923 C910 0.961 . S
H924 C910 0.961 . S
H925 C911 0.958 . S
H926 C911 0.961 . S
H927 C911 0.960 . S
C928 C929 1.391 . S
C928 C930 1.394 . S
C928 H944 0.931 . S
C929 C928 1.391 . S
C929 C933 1.376 . S
C930 C928 1.394 . S
C930 C931 1.369 . S
C930 C934 1.531 . S
C931 C930 1.369 . S
C931 C932 1.410 . S
C931 C939 1.503 . S
C932 C931 1.410 . S
C932 C933 1.392 . S
C932 C935 1.511 . S
C933 C929 1.376 . S
C933 C932 1.392 . S
C933 H945 0.929 . S
C934 C930 1.531 . S
C934 H946 0.960 . S
C934 H947 0.962 . S
C934 H948 0.960 . S
C935 C932 1.511 . S
C935 H949 0.961 . S
C935 H950 0.961 . S
C935 H951 0.961 . S
C936 C937 1.370 . S
C936 C938 1.363 . S
C936 H952 0.931 . S
C937 C936 1.370 . S
C937 C941 1.408 . S
C938 C936 1.363 . S
C938 C939 1.370 . S
C938 C942 1.524 . S
C939 C931 1.503 . S
C939 C938 1.370 . S
C939 C940 1.403 . S
C940 C939 1.403 . S
C940 C941 1.404 . S
C940 C943 1.539 . S
C941 C937 1.408 . S
C941 C940 1.404 . S
C941 H953 0.930 . S
C942 C938 1.524 . S
C942 H954 0.956 . S
C942 H955 0.961 . S
C942 H956 0.961 . S
C943 C940 1.539 . S
C943 H957 0.958 . S
C943 H958 0.961 . S
C943 H959 0.960 . S
H944 C928 0.931 . S
H945 C933 0.929 . S
H946 C934 0.960 . S
H947 C934 0.962 . S
H948 C934 0.960 . S
H949 C935 0.961 . S
H950 C935 0.961 . S
H951 C935 0.961 . S
H952 C936 0.931 . S
H953 C941 0.930 . S
H954 C942 0.956 . S
H955 C942 0.961 . S
H956 C942 0.961 . S
H957 C943 0.958 . S
H958 C943 0.961 . S
H959 C943 0.960 . S
C960 C961 1.391 . S
C960 C962 1.394 . S
C960 H976 0.931 . S
C961 C960 1.391 . S
C961 C965 1.376 . S
C962 C960 1.394 . S
C962 C963 1.369 . S
C962 C966 1.531 . S
C963 C962 1.369 . S
C963 C964 1.410 . S
C963 C971 1.503 . S
C964 C963 1.410 . S
C964 C965 1.392 . S
C964 C967 1.511 . S
C965 C961 1.376 . S
C965 C964 1.392 . S
C965 H977 0.929 . S
C966 C962 1.531 . S
C966 H978 0.960 . S
C966 H979 0.962 . S
C966 H980 0.960 . S
C967 C964 1.511 . S
C967 H981 0.961 . S
C967 H982 0.961 . S
C967 H983 0.961 . S
C968 C969 1.370 . S
C968 C970 1.363 . S
C968 H984 0.931 . S
C969 C968 1.370 . S
C969 C973 1.408 . S
C970 C968 1.363 . S
C970 C971 1.370 . S
C970 C974 1.524 . S
C971 C963 1.503 . S
C971 C970 1.370 . S
C971 C972 1.403 . S
C972 C971 1.403 . S
C972 C973 1.404 . S
C972 C975 1.539 . S
C973 C969 1.408 . S
C973 C972 1.404 . S
C973 H985 0.930 . S
C974 C970 1.524 . S
C974 H986 0.956 . S
C974 H987 0.961 . S
C974 H988 0.961 . S
C975 C972 1.539 . S
C975 H989 0.958 . S
C975 H990 0.961 . S
C975 H991 0.960 . S
H976 C960 0.931 . S
H977 C965 0.929 . S
H978 C966 0.960 . S
H979 C966 0.962 . S
H980 C966 0.960 . S
H981 C967 0.961 . S
H982 C967 0.961 . S
H983 C967 0.961 . S
H984 C968 0.931 . S
H985 C973 0.930 . S
H986 C974 0.956 . S
H987 C974 0.961 . S
H988 C974 0.961 . S
H989 C975 0.958 . S
H990 C975 0.961 . S
H991 C975 0.960 . S
C992 C993 1.391 . S
C992 C994 1.394 . S
C992 H1008 0.931 . S
C993 C992 1.391 . S
C993 C997 1.376 . S
C994 C992 1.394 . S
C994 C995 1.369 . S
C994 C998 1.531 . S
C995 C994 1.369 . S
C995 C996 1.410 . S
C995 C1003 1.503 . S
C996 C995 1.410 . S
C996 C997 1.392 . S
C996 C999 1.511 . S
C997 C993 1.376 . S
C997 C996 1.392 . S
C997 H1009 0.929 . S
C998 C994 1.531 . S
C998 H1010 0.960 . S
C998 H1011 0.962 . S
C998 H1012 0.960 . S
C999 C996 1.511 . S
C999 H1013 0.961 . S
C999 H1014 0.961 . S
C999 H1015 0.961 . S
C1000 C1001 1.370 . S
C1000 C1002 1.363 . S
C1000 H1016 0.931 . S
C1001 C1000 1.370 . S
C1001 C1005 1.408 . S
C1002 C1000 1.363 . S
C1002 C1003 1.370 . S
C1002 C1006 1.524 . S
C1003 C995 1.503 . S
C1003 C1002 1.370 . S
C1003 C1004 1.403 . S
C1004 C1003 1.403 . S
C1004 C1005 1.404 . S
C1004 C1007 1.539 . S
C1005 C1001 1.408 . S
C1005 C1004 1.404 . S
C1005 H1017 0.930 1_455 S
C1006 C1002 1.524 . S
C1006 H1018 0.956 . S
C1006 H1019 0.961 . S
C1006 H1020 0.961 . S
C1007 C1004 1.539 . S
C1007 H1021 0.958 . S
C1007 H1022 0.961 1_455 S
C1007 H1023 0.960 . S
H1008 C992 0.931 . S
H1009 C997 0.929 . S
H1010 C998 0.960 . S
H1011 C998 0.962 . S
H1012 C998 0.960 . S
H1013 C999 0.961 . S
H1014 C999 0.961 . S
H1015 C999 0.961 . S
H1016 C1000 0.931 . S
H1017 C1005 0.930 1_655 S
H1018 C1006 0.956 . S
H1019 C1006 0.961 . S
H1020 C1006 0.961 . S
H1021 C1007 0.958 . S
H1022 C1007 0.961 1_655 S
H1023 C1007 0.960 . S
C1024 C1025 1.391 . S
C1024 C1026 1.394 . S
C1024 H1040 0.931 . S
C1025 C1024 1.391 . S
C1025 C1029 1.376 . S
C1026 C1024 1.394 . S
C1026 C1027 1.369 . S
C1026 C1030 1.531 . S
C1027 C1026 1.369 . S
C1027 C1028 1.410 . S
C1027 C1035 1.503 . S
C1028 C1027 1.410 . S
C1028 C1029 1.392 . S
C1028 C1031 1.511 . S
C1029 C1025 1.376 . S
C1029 C1028 1.392 . S
C1029 H1041 0.929 . S
C1030 C1026 1.531 . S
C1030 H1042 0.960 . S
C1030 H1043 0.962 . S
C1030 H1044 0.960 . S
C1031 C1028 1.511 . S
C1031 H1045 0.961 . S
C1031 H1046 0.961 . S
C1031 H1047 0.961 . S
C1032 C1033 1.370 . S
C1032 C1034 1.363 . S
C1032 H1048 0.931 . S
C1033 C1032 1.370 . S
C1033 C1037 1.408 . S
C1034 C1032 1.363 . S
C1034 C1035 1.370 . S
C1034 C1038 1.524 . S
C1035 C1027 1.503 . S
C1035 C1034 1.370 . S
C1035 C1036 1.403 . S
C1036 C1035 1.403 . S
C1036 C1037 1.404 . S
C1036 C1039 1.539 . S
C1037 C1033 1.408 . S
C1037 C1036 1.404 . S
C1037 H1049 0.930 . S
C1038 C1034 1.524 . S
C1038 H1050 0.956 . S
C1038 H1051 0.961 . S
C1038 H1052 0.961 . S
C1039 C1036 1.539 . S
C1039 H1053 0.958 . S
C1039 H1054 0.961 . S
C1039 H1055 0.960 . S
H1040 C1024 0.931 . S
H1041 C1029 0.929 . S
H1042 C1030 0.960 . S
H1043 C1030 0.962 . S
H1044 C1030 0.960 . S
H1045 C1031 0.961 . S
H1046 C1031 0.961 . S
H1047 C1031 0.961 . S
H1048 C1032 0.931 . S
H1049 C1037 0.930 . S
H1050 C1038 0.956 . S
H1051 C1038 0.961 . S
H1052 C1038 0.961 . S
H1053 C1039 0.958 . S
H1054 C1039 0.961 . S
H1055 C1039 0.960 . S
C1056 C1057 1.391 . S
C1056 C1058 1.394 . S
C1056 H1072 0.931 . S
C1057 C1056 1.391 . S
C1057 C1061 1.376 . S
C1058 C1056 1.394 . S
C1058 C1059 1.369 . S
C1058 C1062 1.531 . S
C1059 C1058 1.369 . S
C1059 C1060 1.410 . S
C1059 C1067 1.503 . S
C1060 C1059 1.410 . S
C1060 C1061 1.392 . S
C1060 C1063 1.511 . S
C1061 C1057 1.376 . S
C1061 C1060 1.392 . S
C1061 H1073 0.929 . S
C1062 C1058 1.531 . S
C1062 H1074 0.960 . S
C1062 H1075 0.962 . S
C1062 H1076 0.960 . S
C1063 C1060 1.511 . S
C1063 H1077 0.961 . S
C1063 H1078 0.961 . S
C1063 H1079 0.961 . S
C1064 C1065 1.370 . S
C1064 C1066 1.363 . S
C1064 H1080 0.931 . S
C1065 C1064 1.370 . S
C1065 C1069 1.408 . S
C1066 C1064 1.363 . S
C1066 C1067 1.370 . S
C1066 C1070 1.524 . S
C1067 C1059 1.503 . S
C1067 C1066 1.370 . S
C1067 C1068 1.403 . S
C1068 C1067 1.403 . S
C1068 C1069 1.404 . S
C1068 C1071 1.539 . S
C1069 C1065 1.408 . S
C1069 C1068 1.404 . S
C1069 H1081 0.930 . S
C1070 C1066 1.524 . S
C1070 H1082 0.956 . S
C1070 H1083 0.961 . S
C1070 H1084 0.961 . S
C1071 C1068 1.539 . S
C1071 H1085 0.958 . S
C1071 H1086 0.961 . S
C1071 H1087 0.960 . S
H1072 C1056 0.931 . S
H1073 C1061 0.929 . S
H1074 C1062 0.960 . S
H1075 C1062 0.962 . S
H1076 C1062 0.960 . S
H1077 C1063 0.961 . S
H1078 C1063 0.961 . S
H1079 C1063 0.961 . S
H1080 C1064 0.931 . S
H1081 C1069 0.930 . S
H1082 C1070 0.956 . S
H1083 C1070 0.961 . S
H1084 C1070 0.961 . S
H1085 C1071 0.958 . S
H1086 C1071 0.961 . S
H1087 C1071 0.960 . S
C1088 C1089 1.391 . S
C1088 C1090 1.394 . S
C1088 H1104 0.931 . S
C1089 C1088 1.391 . S
C1089 C1093 1.376 . S
C1090 C1088 1.394 . S
C1090 C1091 1.369 . S
C1090 C1094 1.531 . S
C1091 C1090 1.369 . S
C1091 C1092 1.410 . S
C1091 C1099 1.503 . S
C1092 C1091 1.410 . S
C1092 C1093 1.392 . S
C1092 C1095 1.511 . S
C1093 C1089 1.376 . S
C1093 C1092 1.392 . S
C1093 H1105 0.929 . S
C1094 C1090 1.531 . S
C1094 H1106 0.960 . S
C1094 H1107 0.962 . S
C1094 H1108 0.960 . S
C1095 C1092 1.511 . S
C1095 H1109 0.961 . S
C1095 H1110 0.961 . S
C1095 H1111 0.961 . S
C1096 C1097 1.370 . S
C1096 C1098 1.363 . S
C1096 H1112 0.931 . S
C1097 C1096 1.370 . S
C1097 C1101 1.408 . S
C1098 C1096 1.363 . S
C1098 C1099 1.370 . S
C1098 C1102 1.524 . S
C1099 C1091 1.503 . S
C1099 C1098 1.370 . S
C1099 C1100 1.403 . S
C1100 C1099 1.403 . S
C1100 C1101 1.404 . S
C1100 C1103 1.539 . S
C1101 C1097 1.408 . S
C1101 C1100 1.404 . S
C1101 H1113 0.930 . S
C1102 C1098 1.524 . S
C1102 H1114 0.956 . S
C1102 H1115 0.961 . S
C1102 H1116 0.961 . S
C1103 C1100 1.539 . S
C1103 H1117 0.958 . S
C1103 H1118 0.961 . S
C1103 H1119 0.960 . S
H1104 C1088 0.931 . S
H1105 C1093 0.929 . S
H1106 C1094 0.960 . S
H1107 C1094 0.962 . S
H1108 C1094 0.960 . S
H1109 C1095 0.961 . S
H1110 C1095 0.961 . S
H1111 C1095 0.961 . S
H1112 C1096 0.931 . S
H1113 C1101 0.930 . S
H1114 C1102 0.956 . S
H1115 C1102 0.961 . S
H1116 C1102 0.961 . S
H1117 C1103 0.958 . S
H1118 C1103 0.961 . S
H1119 C1103 0.960 . S
C1120 C1121 1.391 . S
C1120 C1122 1.394 . S
C1120 H1136 0.931 . S
C1121 C1120 1.391 . S
C1121 C1125 1.376 . S
C1122 C1120 1.394 . S
C1122 C1123 1.369 . S
C1122 C1126 1.531 . S
C1123 C1122 1.369 . S
C1123 C1124 1.410 . S
C1123 C1131 1.503 . S
C1124 C1123 1.410 . S
C1124 C1125 1.392 . S
C1124 C1127 1.511 . S
C1125 C1121 1.376 . S
C1125 C1124 1.392 . S
C1125 H1137 0.929 . S
C1126 C1122 1.531 . S
C1126 H1138 0.960 . S
C1126 H1139 0.962 . S
C1126 H1140 0.960 . S
C1127 C1124 1.511 . S
C1127 H1141 0.961 . S
C1127 H1142 0.961 . S
C1127 H1143 0.961 . S
C1128 C1129 1.370 . S
C1128 C1130 1.363 . S
C1128 H1144 0.931 . S
C1129 C1128 1.370 . S
C1129 C1133 1.408 . S
C1130 C1128 1.363 . S
C1130 C1131 1.370 . S
C1130 C1134 1.524 . S
C1131 C1123 1.503 . S
C1131 C1130 1.370 . S
C1131 C1132 1.403 . S
C1132 C1131 1.403 . S
C1132 C1133 1.404 . S
C1132 C1135 1.539 . S
C1133 C1129 1.408 . S
C1133 C1132 1.404 . S
C1133 H1145 0.930 . S
C1134 C1130 1.524 . S
C1134 H1146 0.956 . S
C1134 H1147 0.961 . S
C1134 H1148 0.961 . S
C1135 C1132 1.539 . S
C1135 H1149 0.958 . S
C1135 H1150 0.961 . S
C1135 H1151 0.960 . S
H1136 C1120 0.931 . S
H1137 C1125 0.929 . S
H1138 C1126 0.960 . S
H1139 C1126 0.962 . S
H1140 C1126 0.960 . S
H1141 C1127 0.961 . S
H1142 C1127 0.961 . S
H1143 C1127 0.961 . S
H1144 C1128 0.931 . S
H1145 C1133 0.930 . S
H1146 C1134 0.956 . S
H1147 C1134 0.961 . S
H1148 C1134 0.961 . S
H1149 C1135 0.958 . S
H1150 C1135 0.961 . S
H1151 C1135 0.960 . S
C1152 C1153 1.391 . S
C1152 C1154 1.394 . S
C1152 H1168 0.931 . S
C1153 C1152 1.391 . S
C1153 C1157 1.376 . S
C1154 C1152 1.394 . S
C1154 C1155 1.369 . S
C1154 C1158 1.531 . S
C1155 C1154 1.369 . S
C1155 C1156 1.410 . S
C1155 C1163 1.503 . S
C1156 C1155 1.410 . S
C1156 C1157 1.392 . S
C1156 C1159 1.511 . S
C1157 C1153 1.376 . S
C1157 C1156 1.392 . S
C1157 H1169 0.929 . S
C1158 C1154 1.531 . S
C1158 H1170 0.960 . S
C1158 H1171 0.962 . S
C1158 H1172 0.960 . S
C1159 C1156 1.511 . S
C1159 H1173 0.961 . S
C1159 H1174 0.961 . S
C1159 H1175 0.961 . S
C1160 C1161 1.370 . S
C1160 C1162 1.363 . S
C1160 H1176 0.931 . S
C1161 C1160 1.370 . S
C1161 C1165 1.408 . S
C1162 C1160 1.363 . S
C1162 C1163 1.370 . S
C1162 C1166 1.524 . S
C1163 C1155 1.503 . S
C1163 C1162 1.370 . S
C1163 C1164 1.403 . S
C1164 C1163 1.403 . S
C1164 C1165 1.404 . S
C1164 C1167 1.539 . S
C1165 C1161 1.408 . S
C1165 C1164 1.404 . S
C1165 H1177 0.930 . S
C1166 C1162 1.524 . S
C1166 H1178 0.956 . S
C1166 H1179 0.961 . S
C1166 H1180 0.961 . S
C1167 C1164 1.539 . S
C1167 H1181 0.958 . S
C1167 H1182 0.961 . S
C1167 H1183 0.960 . S
H1168 C1152 0.931 . S
H1169 C1157 0.929 . S
H1170 C1158 0.960 . S
H1171 C1158 0.962 . S
H1172 C1158 0.960 . S
H1173 C1159 0.961 . S
H1174 C1159 0.961 . S
H1175 C1159 0.961 . S
H1176 C1160 0.931 . S
H1177 C1165 0.930 . S
H1178 C1166 0.956 . S
H1179 C1166 0.961 . S
H1180 C1166 0.961 . S
H1181 C1167 0.958 . S
H1182 C1167 0.961 . S
H1183 C1167 0.960 . S
C1184 C1185 1.391 . S
C1184 C1186 1.394 . S
C1184 H1200 0.931 . S
C1185 C1184 1.391 . S
C1185 C1189 1.376 . S
C1186 C1184 1.394 . S
C1186 C1187 1.369 . S
C1186 C1190 1.531 . S
C1187 C1186 1.369 . S
C1187 C1188 1.410 . S
C1187 C1195 1.503 . S
C1188 C1187 1.410 . S
C1188 C1189 1.392 . S
C1188 C1191 1.511 . S
C1189 C1185 1.376 . S
C1189 C1188 1.392 . S
C1189 H1201 0.929 . S
C1190 C1186 1.531 . S
C1190 H1202 0.960 . S
C1190 H1203 0.962 . S
C1190 H1204 0.960 . S
C1191 C1188 1.511 . S
C1191 H1205 0.961 . S
C1191 H1206 0.961 . S
C1191 H1207 0.961 . S
C1192 C1193 1.370 . S
C1192 C1194 1.363 . S
C1192 H1208 0.931 . S
C1193 C1192 1.370 . S
C1193 C1197 1.408 . S
C1194 C1192 1.363 . S
C1194 C1195 1.370 . S
C1194 C1198 1.524 . S
C1195 C1187 1.503 . S
C1195 C1194 1.370 . S
C1195 C1196 1.403 . S
C1196 C1195 1.403 . S
C1196 C1197 1.404 . S
C1196 C1199 1.539 . S
C1197 C1193 1.408 . S
C1197 C1196 1.404 . S
C1197 H1209 0.930 . S
C1198 C1194 1.524 . S
C1198 H1210 0.956 . S
C1198 H1211 0.961 . S
C1198 H1212 0.961 . S
C1199 C1196 1.539 . S
C1199 H1213 0.958 . S
C1199 H1214 0.961 . S
C1199 H1215 0.960 . S
H1200 C1184 0.931 . S
H1201 C1189 0.929 . S
H1202 C1190 0.960 . S
H1203 C1190 0.962 . S
H1204 C1190 0.960 . S
H1205 C1191 0.961 . S
H1206 C1191 0.961 . S
H1207 C1191 0.961 . S
H1208 C1192 0.931 . S
H1209 C1197 0.930 . S
H1210 C1198 0.956 . S
H1211 C1198 0.961 . S
H1212 C1198 0.961 . S
H1213 C1199 0.958 . S
H1214 C1199 0.961 . S
H1215 C1199 0.960 . S
C1216 C1217 1.391 . S
C1216 C1218 1.394 . S
C1216 H1232 0.931 . S
C1217 C1216 1.391 . S
C1217 C1221 1.376 . S
C1218 C1216 1.394 . S
C1218 C1219 1.369 . S
C1218 C1222 1.531 . S
C1219 C1218 1.369 . S
C1219 C1220 1.410 . S
C1219 C1227 1.503 . S
C1220 C1219 1.410 . S
C1220 C1221 1.392 . S
C1220 C1223 1.511 . S
C1221 C1217 1.376 . S
C1221 C1220 1.392 . S
C1221 H1233 0.929 . S
C1222 C1218 1.531 . S
C1222 H1234 0.960 . S
C1222 H1235 0.962 . S
C1222 H1236 0.960 . S
C1223 C1220 1.511 . S
C1223 H1237 0.961 . S
C1223 H1238 0.961 . S
C1223 H1239 0.961 . S
C1224 C1225 1.370 . S
C1224 C1226 1.363 . S
C1224 H1240 0.931 . S
C1225 C1224 1.370 . S
C1225 C1229 1.408 . S
C1226 C1224 1.363 . S
C1226 C1227 1.370 . S
C1226 C1230 1.524 . S
C1227 C1219 1.503 . S
C1227 C1226 1.370 . S
C1227 C1228 1.403 . S
C1228 C1227 1.403 . S
C1228 C1229 1.404 . S
C1228 C1231 1.539 . S
C1229 C1225 1.408 . S
C1229 C1228 1.404 . S
C1229 H1241 0.930 . S
C1230 C1226 1.524 . S
C1230 H1242 0.956 . S
C1230 H1243 0.961 . S
C1230 H1244 0.961 . S
C1231 C1228 1.539 . S
C1231 H1245 0.958 . S
C1231 H1246 0.961 . S
C1231 H1247 0.960 . S
H1232 C1216 0.931 . S
H1233 C1221 0.929 . S
H1234 C1222 0.960 . S
H1235 C1222 0.962 . S
H1236 C1222 0.960 . S
H1237 C1223 0.961 . S
H1238 C1223 0.961 . S
H1239 C1223 0.961 . S
H1240 C1224 0.931 . S
H1241 C1229 0.930 . S
H1242 C1230 0.956 . S
H1243 C1230 0.961 . S
H1244 C1230 0.961 . S
H1245 C1231 0.958 . S
H1246 C1231 0.961 . S
H1247 C1231 0.960 . S
C1248 C1249 1.391 . S
C1248 C1250 1.394 . S
C1248 H1264 0.931 . S
C1249 C1248 1.391 . S
C1249 C1253 1.376 . S
C1250 C1248 1.394 . S
C1250 C1251 1.369 . S
C1250 C1254 1.531 . S
C1251 C1250 1.369 . S
C1251 C1252 1.410 . S
C1251 C1259 1.503 . S
C1252 C1251 1.410 . S
C1252 C1253 1.392 . S
C1252 C1255 1.511 . S
C1253 C1249 1.376 . S
C1253 C1252 1.392 . S
C1253 H1265 0.929 . S
C1254 C1250 1.531 . S
C1254 H1266 0.960 . S
C1254 H1267 0.962 . S
C1254 H1268 0.960 . S
C1255 C1252 1.511 . S
C1255 H1269 0.961 . S
C1255 H1270 0.961 . S
C1255 H1271 0.961 . S
C1256 C1257 1.370 . S
C1256 C1258 1.363 . S
C1256 H1272 0.931 1_655 S
C1257 C1256 1.370 . S
C1257 C1261 1.408 . S
C1258 C1256 1.363 . S
C1258 C1259 1.370 . S
C1258 C1262 1.524 . S
C1259 C1251 1.503 . S
C1259 C1258 1.370 . S
C1259 C1260 1.403 . S
C1260 C1259 1.403 . S
C1260 C1261 1.404 . S
C1260 C1263 1.539 . S
C1261 C1257 1.408 . S
C1261 C1260 1.404 . S
C1261 H1273 0.930 . S
C1262 C1258 1.524 . S
C1262 H1274 0.956 . S
C1262 H1275 0.961 . S
C1262 H1276 0.918 1_655 S
C1263 C1260 1.539 . S
C1263 H1277 0.958 . S
C1263 H1278 0.961 . S
C1263 H1279 0.960 . S
H1264 C1248 0.931 . S
H1265 C1253 0.929 . S
H1266 C1254 0.960 . S
H1267 C1254 0.962 . S
H1268 C1254 0.960 . S
H1269 C1255 0.961 . S
H1270 C1255 0.961 . S
H1271 C1255 0.961 . S
H1272 C1256 0.931 1_455 S
H1273 C1261 0.930 . S
H1274 C1262 0.956 . S
H1275 C1262 0.961 . S
H1276 C1262 0.918 1_455 S
H1277 C1263 0.958 . S
H1278 C1263 0.961 . S
H1279 C1263 0.960 . S
C1280 C1281 1.391 . S
C1280 C1282 1.394 . S
C1280 H1296 0.931 . S
C1281 C1280 1.391 . S
C1281 C1285 1.376 . S
C1282 C1280 1.394 . S
C1282 C1283 1.369 . S
C1282 C1286 1.531 . S
C1283 C1282 1.369 . S
C1283 C1284 1.410 . S
C1283 C1291 1.503 . S
C1284 C1283 1.410 . S
C1284 C1285 1.392 . S
C1284 C1287 1.511 . S
C1285 C1281 1.376 . S
C1285 C1284 1.392 . S
C1285 H1297 0.929 . S
C1286 C1282 1.531 . S
C1286 H1298 0.960 . S
C1286 H1299 0.962 . S
C1286 H1300 0.960 . S
C1287 C1284 1.511 . S
C1287 H1301 0.961 . S
C1287 H1302 0.961 . S
C1287 H1303 0.961 . S
C1288 C1289 1.370 . S
C1288 C1290 1.363 . S
C1288 H1304 0.931 . S
C1289 C1288 1.370 . S
C1289 C1293 1.408 . S
C1290 C1288 1.363 . S
C1290 C1291 1.370 . S
C1290 C1294 1.524 . S
C1291 C1283 1.503 . S
C1291 C1290 1.370 . S
C1291 C1292 1.403 . S
C1292 C1291 1.403 . S
C1292 C1293 1.404 . S
C1292 C1295 1.539 . S
C1293 C1289 1.408 . S
C1293 C1292 1.404 . S
C1293 H1305 0.930 1_545 S
C1294 C1290 1.524 . S
C1294 H1306 0.956 . S
C1294 H1307 0.961 . S
C1294 H1308 0.961 . S
C1295 C1292 1.539 . S
C1295 H1309 0.958 . S
C1295 H1310 0.961 1_545 S
C1295 H1311 0.960 . S
H1296 C1280 0.931 . S
H1297 C1285 0.929 . S
H1298 C1286 0.960 . S
H1299 C1286 0.962 . S
H1300 C1286 0.960 . S
H1301 C1287 0.961 . S
H1302 C1287 0.961 . S
H1303 C1287 0.961 . S
H1304 C1288 0.931 . S
H1305 C1293 0.930 1_565 S
H1306 C1294 0.956 . S
H1307 C1294 0.961 . S
H1308 C1294 0.961 . S
H1309 C1295 0.958 . S
H1310 C1295 0.961 1_565 S
H1311 C1295 0.960 . S
C1312 C1313 1.391 . S
C1312 C1314 1.394 . S
C1312 H1328 0.931 . S
C1313 C1312 1.391 . S
C1313 C1317 1.376 . S
C1314 C1312 1.394 . S
C1314 C1315 1.369 . S
C1314 C1318 1.531 . S
C1315 C1314 1.369 . S
C1315 C1316 1.410 . S
C1315 C1323 1.503 . S
C1316 C1315 1.410 . S
C1316 C1317 1.392 . S
C1316 C1319 1.511 . S
C1317 C1313 1.376 . S
C1317 C1316 1.392 . S
C1317 H1329 0.929 . S
C1318 C1314 1.531 . S
C1318 H1330 0.960 . S
C1318 H1331 0.962 . S
C1318 H1332 0.960 . S
C1319 C1316 1.511 . S
C1319 H1333 0.961 . S
C1319 H1334 0.961 . S
C1319 H1335 0.961 . S
C1320 C1321 1.370 . S
C1320 C1322 1.363 . S
C1320 H1336 0.931 . S
C1321 C1320 1.370 . S
C1321 C1325 1.408 . S
C1322 C1320 1.363 . S
C1322 C1323 1.370 . S
C1322 C1326 1.524 . S
C1323 C1315 1.503 . S
C1323 C1322 1.370 . S
C1323 C1324 1.403 . S
C1324 C1323 1.403 . S
C1324 C1325 1.404 . S
C1324 C1327 1.539 . S
C1325 C1321 1.408 . S
C1325 C1324 1.404 . S
C1325 H1337 0.930 . S
C1326 C1322 1.524 . S
C1326 H1338 0.956 . S
C1326 H1339 0.961 . S
C1326 H1340 0.961 . S
C1327 C1324 1.539 . S
C1327 H1341 0.958 . S
C1327 H1342 0.961 . S
C1327 H1343 0.960 . S
H1328 C1312 0.931 . S
H1329 C1317 0.929 . S
H1330 C1318 0.960 . S
H1331 C1318 0.962 . S
H1332 C1318 0.960 . S
H1333 C1319 0.961 . S
H1334 C1319 0.961 . S
H1335 C1319 0.961 . S
H1336 C1320 0.931 . S
H1337 C1325 0.930 . S
H1338 C1326 0.956 . S
H1339 C1326 0.961 . S
H1340 C1326 0.961 . S
H1341 C1327 0.958 . S
H1342 C1327 0.961 . S
H1343 C1327 0.960 . S
C1344 C1345 1.391 . S
C1344 C1346 1.394 . S
C1344 H1360 0.931 . S
C1345 C1344 1.391 . S
C1345 C1349 1.376 . S
C1346 C1344 1.394 . S
C1346 C1347 1.369 . S
C1346 C1350 1.531 . S
C1347 C1346 1.369 . S
C1347 C1348 1.410 . S
C1347 C1355 1.503 . S
C1348 C1347 1.410 . S
C1348 C1349 1.392 . S
C1348 C1351 1.511 . S
C1349 C1345 1.376 . S
C1349 C1348 1.392 . S
C1349 H1361 0.929 . S
C1350 C1346 1.531 . S
C1350 H1362 0.960 . S
C1350 H1363 0.962 . S
C1350 H1364 0.960 . S
C1351 C1348 1.511 . S
C1351 H1365 0.961 . S
C1351 H1366 0.961 . S
C1351 H1367 0.961 . S
C1352 C1353 1.370 . S
C1352 C1354 1.363 . S
C1352 H1368 0.931 . S
C1353 C1352 1.370 . S
C1353 C1357 1.408 . S
C1354 C1352 1.363 . S
C1354 C1355 1.370 . S
C1354 C1358 1.524 . S
C1355 C1347 1.503 . S
C1355 C1354 1.370 . S
C1355 C1356 1.403 . S
C1356 C1355 1.403 . S
C1356 C1357 1.404 . S
C1356 C1359 1.539 . S
C1357 C1353 1.408 . S
C1357 C1356 1.404 . S
C1357 H1369 0.930 . S
C1358 C1354 1.524 . S
C1358 H1370 0.956 . S
C1358 H1371 0.961 . S
C1358 H1372 0.961 . S
C1359 C1356 1.539 . S
C1359 H1373 0.958 . S
C1359 H1374 0.961 . S
C1359 H1375 0.960 . S
H1360 C1344 0.931 . S
H1361 C1349 0.929 . S
H1362 C1350 0.960 . S
H1363 C1350 0.962 . S
H1364 C1350 0.960 . S
H1365 C1351 0.961 . S
H1366 C1351 0.961 . S
H1367 C1351 0.961 . S
H1368 C1352 0.931 . S
H1369 C1357 0.930 . S
H1370 C1358 0.956 . S
H1371 C1358 0.961 . S
H1372 C1358 0.961 . S
H1373 C1359 0.958 . S
H1374 C1359 0.961 . S
H1375 C1359 0.960 . S
C1376 C1377 1.391 . S
C1376 C1378 1.394 . S
C1376 H1392 0.931 . S
C1377 C1376 1.391 . S
C1377 C1381 1.376 . S
C1378 C1376 1.394 . S
C1378 C1379 1.369 . S
C1378 C1382 1.531 . S
C1379 C1378 1.369 . S
C1379 C1380 1.410 . S
C1379 C1387 1.503 . S
C1380 C1379 1.410 . S
C1380 C1381 1.392 . S
C1380 C1383 1.511 . S
C1381 C1377 1.376 . S
C1381 C1380 1.392 . S
C1381 H1393 0.929 . S
C1382 C1378 1.531 . S
C1382 H1394 0.960 . S
C1382 H1395 0.962 . S
C1382 H1396 0.960 . S
C1383 C1380 1.511 . S
C1383 H1397 0.961 . S
C1383 H1398 0.961 . S
C1383 H1399 0.961 . S
C1384 C1385 1.370 . S
C1384 C1386 1.363 . S
C1384 H1400 0.931 . S
C1385 C1384 1.370 . S
C1385 C1389 1.408 . S
C1386 C1384 1.363 . S
C1386 C1387 1.370 . S
C1386 C1390 1.524 . S
C1387 C1379 1.503 . S
C1387 C1386 1.370 . S
C1387 C1388 1.403 . S
C1388 C1387 1.403 . S
C1388 C1389 1.404 . S
C1388 C1391 1.539 . S
C1389 C1385 1.408 . S
C1389 C1388 1.404 . S
C1389 H1401 0.930 . S
C1390 C1386 1.524 . S
C1390 H1402 0.956 . S
C1390 H1403 0.961 . S
C1390 H1404 0.961 . S
C1391 C1388 1.539 . S
C1391 H1405 0.958 . S
C1391 H1406 0.961 . S
C1391 H1407 0.960 . S
H1392 C1376 0.931 . S
H1393 C1381 0.929 . S
H1394 C1382 0.960 . S
H1395 C1382 0.962 . S
H1396 C1382 0.960 . S
H1397 C1383 0.961 . S
H1398 C1383 0.961 . S
H1399 C1383 0.961 . S
H1400 C1384 0.931 . S
H1401 C1389 0.930 . S
H1402 C1390 0.956 . S
H1403 C1390 0.961 . S
H1404 C1390 0.961 . S
H1405 C1391 0.958 . S
H1406 C1391 0.961 . S
H1407 C1391 0.960 . S
C1408 C1409 1.391 . S
C1408 C1410 1.394 . S
C1408 H1424 0.931 . S
C1409 C1408 1.391 . S
C1409 C1413 1.376 . S
C1410 C1408 1.394 . S
C1410 C1411 1.369 . S
C1410 C1414 1.531 . S
C1411 C1410 1.369 . S
C1411 C1412 1.410 . S
C1411 C1419 1.503 . S
C1412 C1411 1.410 . S
C1412 C1413 1.392 . S
C1412 C1415 1.511 . S
C1413 C1409 1.376 . S
C1413 C1412 1.392 . S
C1413 H1425 0.929 . S
C1414 C1410 1.531 . S
C1414 H1426 0.960 . S
C1414 H1427 0.962 . S
C1414 H1428 0.960 . S
C1415 C1412 1.511 . S
C1415 H1429 0.961 . S
C1415 H1430 0.961 . S
C1415 H1431 0.961 . S
C1416 C1417 1.370 . S
C1416 C1418 1.363 . S
C1416 H1432 0.931 . S
C1417 C1416 1.370 . S
C1417 C1421 1.408 . S
C1418 C1416 1.363 . S
C1418 C1419 1.370 . S
C1418 C1422 1.524 . S
C1419 C1411 1.503 . S
C1419 C1418 1.370 . S
C1419 C1420 1.403 . S
C1420 C1419 1.403 . S
C1420 C1421 1.404 . S
C1420 C1423 1.539 . S
C1421 C1417 1.408 . S
C1421 C1420 1.404 . S
C1421 H1433 0.930 . S
C1422 C1418 1.524 . S
C1422 H1434 0.956 . S
C1422 H1435 0.961 . S
C1422 H1436 0.961 . S
C1423 C1420 1.539 . S
C1423 H1437 0.958 . S
C1423 H1438 0.961 . S
C1423 H1439 0.960 . S
H1424 C1408 0.931 . S
H1425 C1413 0.929 . S
H1426 C1414 0.960 . S
H1427 C1414 0.962 . S
H1428 C1414 0.960 . S
H1429 C1415 0.961 . S
H1430 C1415 0.961 . S
H1431 C1415 0.961 . S
H1432 C1416 0.931 . S
H1433 C1421 0.930 . S
H1434 C1422 0.956 . S
H1435 C1422 0.961 . S
H1436 C1422 0.961 . S
H1437 C1423 0.958 . S
H1438 C1423 0.961 . S
H1439 C1423 0.960 . S
C1440 C1441 1.391 . S
C1440 C1442 1.394 . S
C1440 H1456 0.931 . S
C1441 C1440 1.391 . S
C1441 C1445 1.376 . S
C1442 C1440 1.394 . S
C1442 C1443 1.369 . S
C1442 C1446 1.531 . S
C1443 C1442 1.369 . S
C1443 C1444 1.410 . S
C1443 C1451 1.503 . S
C1444 C1443 1.410 . S
C1444 C1445 1.392 . S
C1444 C1447 1.511 . S
C1445 C1441 1.376 . S
C1445 C1444 1.392 . S
C1445 H1457 0.929 . S
C1446 C1442 1.531 . S
C1446 H1458 0.960 . S
C1446 H1459 0.962 . S
C1446 H1460 0.960 . S
C1447 C1444 1.511 . S
C1447 H1461 0.961 . S
C1447 H1462 0.961 . S
C1447 H1463 0.961 . S
C1448 C1449 1.370 . S
C1448 C1450 1.363 . S
C1448 H1464 0.931 . S
C1449 C1448 1.370 . S
C1449 C1453 1.408 . S
C1450 C1448 1.363 . S
C1450 C1451 1.370 . S
C1450 C1454 1.524 . S
C1451 C1443 1.503 . S
C1451 C1450 1.370 . S
C1451 C1452 1.403 . S
C1452 C1451 1.403 . S
C1452 C1453 1.404 . S
C1452 C1455 1.539 . S
C1453 C1449 1.408 . S
C1453 C1452 1.404 . S
C1453 H1465 0.930 . S
C1454 C1450 1.524 . S
C1454 H1466 0.956 . S
C1454 H1467 0.961 . S
C1454 H1468 0.961 . S
C1455 C1452 1.539 . S
C1455 H1469 0.958 . S
C1455 H1470 0.961 . S
C1455 H1471 0.960 . S
H1456 C1440 0.931 . S
H1457 C1445 0.929 . S
H1458 C1446 0.960 . S
H1459 C1446 0.962 . S
H1460 C1446 0.960 . S
H1461 C1447 0.961 . S
H1462 C1447 0.961 . S
H1463 C1447 0.961 . S
H1464 C1448 0.931 . S
H1465 C1453 0.930 . S
H1466 C1454 0.956 . S
H1467 C1454 0.961 . S
H1468 C1454 0.961 . S
H1469 C1455 0.958 . S
H1470 C1455 0.961 . S
H1471 C1455 0.960 . S
C1472 C1473 1.391 . S
C1472 C1474 1.394 . S
C1472 H1488 0.931 . S
C1473 C1472 1.391 . S
C1473 C1477 1.376 . S
C1474 C1472 1.394 . S
C1474 C1475 1.369 . S
C1474 C1478 1.531 . S
C1475 C1474 1.369 . S
C1475 C1476 1.410 . S
C1475 C1483 1.503 . S
C1476 C1475 1.410 . S
C1476 C1477 1.392 . S
C1476 C1479 1.511 . S
C1477 C1473 1.376 . S
C1477 C1476 1.392 . S
C1477 H1489 0.929 . S
C1478 C1474 1.531 . S
C1478 H1490 0.960 . S
C1478 H1491 0.962 . S
C1478 H1492 0.960 . S
C1479 C1476 1.511 . S
C1479 H1493 0.961 . S
C1479 H1494 0.961 . S
C1479 H1495 0.961 . S
C1480 C1481 1.370 . S
C1480 C1482 1.363 . S
C1480 H1496 0.931 . S
C1481 C1480 1.370 . S
C1481 C1485 1.408 . S
C1482 C1480 1.363 . S
C1482 C1483 1.370 . S
C1482 C1486 1.524 . S
C1483 C1475 1.503 . S
C1483 C1482 1.370 . S
C1483 C1484 1.403 . S
C1484 C1483 1.403 . S
C1484 C1485 1.404 . S
C1484 C1487 1.539 . S
C1485 C1481 1.408 . S
C1485 C1484 1.404 . S
C1485 H1497 0.930 . S
C1486 C1482 1.524 . S
C1486 H1498 0.956 . S
C1486 H1499 0.961 . S
C1486 H1500 0.961 . S
C1487 C1484 1.539 . S
C1487 H1501 0.958 . S
C1487 H1502 0.961 . S
C1487 H1503 0.960 . S
H1488 C1472 0.931 . S
H1489 C1477 0.929 . S
H1490 C1478 0.960 . S
H1491 C1478 0.962 . S
H1492 C1478 0.960 . S
H1493 C1479 0.961 . S
H1494 C1479 0.961 . S
H1495 C1479 0.961 . S
H1496 C1480 0.931 . S
H1497 C1485 0.930 . S
H1498 C1486 0.956 . S
H1499 C1486 0.961 . S
H1500 C1486 0.961 . S
H1501 C1487 0.958 . S
H1502 C1487 0.961 . S
H1503 C1487 0.960 . S
C1504 C1505 1.391 . S
C1504 C1506 1.394 . S
C1504 H1520 0.931 . S
C1505 C1504 1.391 . S
C1505 C1509 1.376 . S
C1506 C1504 1.394 . S
C1506 C1507 1.369 . S
C1506 C1510 1.531 . S
C1507 C1506 1.369 . S
C1507 C1508 1.410 . S
C1507 C1515 1.503 . S
C1508 C1507 1.410 . S
C1508 C1509 1.392 . S
C1508 C1511 1.511 . S
C1509 C1505 1.376 . S
C1509 C1508 1.392 . S
C1509 H1521 0.929 . S
C1510 C1506 1.531 . S
C1510 H1522 0.960 . S
C1510 H1523 0.962 . S
C1510 H1524 0.960 . S
C1511 C1508 1.511 . S
C1511 H1525 0.961 . S
C1511 H1526 0.961 . S
C1511 H1527 0.961 . S
C1512 C1513 1.370 . S
C1512 C1514 1.363 . S
C1512 H1528 0.931 . S
C1513 C1512 1.370 . S
C1513 C1517 1.408 . S
C1514 C1512 1.363 . S
C1514 C1515 1.370 . S
C1514 C1518 1.524 . S
C1515 C1507 1.503 . S
C1515 C1514 1.370 . S
C1515 C1516 1.403 . S
C1516 C1515 1.403 . S
C1516 C1517 1.404 . S
C1516 C1519 1.539 . S
C1517 C1513 1.408 . S
C1517 C1516 1.404 . S
C1517 H1529 0.930 . S
C1518 C1514 1.524 . S
C1518 H1530 0.956 . S
C1518 H1531 0.961 . S
C1518 H1532 0.961 . S
C1519 C1516 1.539 . S
C1519 H1533 0.958 . S
C1519 H1534 0.961 . S
C1519 H1535 0.960 . S
H1520 C1504 0.931 . S
H1521 C1509 0.929 . S
H1522 C1510 0.960 . S
H1523 C1510 0.962 . S
H1524 C1510 0.960 . S
H1525 C1511 0.961 . S
H1526 C1511 0.961 . S
H1527 C1511 0.961 . S
H1528 C1512 0.931 . S
H1529 C1517 0.930 . S
H1530 C1518 0.956 . S
H1531 C1518 0.961 . S
H1532 C1518 0.961 . S
H1533 C1519 0.958 . S
H1534 C1519 0.961 . S
H1535 C1519 0.960 . S
C1536 C1537 1.391 . S
C1536 C1538 1.394 . S
C1536 H1552 0.931 . S
C1537 C1536 1.391 . S
C1537 C1541 1.376 . S
C1538 C1536 1.394 . S
C1538 C1539 1.369 . S
C1538 C1542 1.531 . S
C1539 C1538 1.369 . S
C1539 C1540 1.410 . S
C1539 C1547 1.503 . S
C1540 C1539 1.410 . S
C1540 C1541 1.392 . S
C1540 C1543 1.511 . S
C1541 C1537 1.376 . S
C1541 C1540 1.392 . S
C1541 H1553 0.929 . S
C1542 C1538 1.531 . S
C1542 H1554 0.960 . S
C1542 H1555 0.962 . S
C1542 H1556 0.960 . S
C1543 C1540 1.511 . S
C1543 H1557 0.961 . S
C1543 H1558 0.961 . S
C1543 H1559 0.961 . S
C1544 C1545 1.370 . S
C1544 C1546 1.363 . S
C1544 H1560 0.931 . S
C1545 C1544 1.370 . S
C1545 C1549 1.408 . S
C1546 C1544 1.363 . S
C1546 C1547 1.370 . S
C1546 C1550 1.524 . S
C1547 C1539 1.503 . S
C1547 C1546 1.370 . S
C1547 C1548 1.403 . S
C1548 C1547 1.403 . S
C1548 C1549 1.404 . S
C1548 C1551 1.539 . S
C1549 C1545 1.408 . S
C1549 C1548 1.404 . S
C1549 H1561 0.930 . S
C1550 C1546 1.524 . S
C1550 H1562 0.956 . S
C1550 H1563 0.961 . S
C1550 H1564 0.961 . S
C1551 C1548 1.539 . S
C1551 H1565 0.958 . S
C1551 H1566 0.961 . S
C1551 H1567 0.960 . S
H1552 C1536 0.931 . S
H1553 C1541 0.929 . S
H1554 C1542 0.960 . S
H1555 C1542 0.962 . S
H1556 C1542 0.960 . S
H1557 C1543 0.961 . S
H1558 C1543 0.961 . S
H1559 C1543 0.961 . S
H1560 C1544 0.931 . S
H1561 C1549 0.930 . S
H1562 C1550 0.956 . S
H1563 C1550 0.961 . S
H1564 C1550 0.961 . S
H1565 C1551 0.958 . S
H1566 C1551 0.961 . S
H1567 C1551 0.960 . S
C1568 C1569 1.391 . S
C1568 C1570 1.394 . S
C1568 H1584 0.931 . S
C1569 C1568 1.391 . S
C1569 C1573 1.376 . S
C1570 C1568 1.394 . S
C1570 C1571 1.369 . S
C1570 C1574 1.531 . S
C1571 C1570 1.369 . S
C1571 C1572 1.410 . S
C1571 C1579 1.503 . S
C1572 C1571 1.410 . S
C1572 C1573 1.392 . S
C1572 C1575 1.511 . S
C1573 C1569 1.376 . S
C1573 C1572 1.392 . S
C1573 H1585 0.929 . S
C1574 C1570 1.531 . S
C1574 H1586 0.960 . S
C1574 H1587 0.962 . S
C1574 H1588 0.960 . S
C1575 C1572 1.511 . S
C1575 H1589 0.961 . S
C1575 H1590 0.961 . S
C1575 H1591 0.961 . S
C1576 C1577 1.370 . S
C1576 C1578 1.363 . S
C1576 H1592 0.931 . S
C1577 C1576 1.370 . S
C1577 C1581 1.408 . S
C1578 C1576 1.363 . S
C1578 C1579 1.370 . S
C1578 C1582 1.524 . S
C1579 C1571 1.503 . S
C1579 C1578 1.370 . S
C1579 C1580 1.403 . S
C1580 C1579 1.403 . S
C1580 C1581 1.404 . S
C1580 C1583 1.539 . S
C1581 C1577 1.408 . S
C1581 C1580 1.404 . S
C1581 H1593 0.930 . S
C1582 C1578 1.524 . S
C1582 H1594 0.956 . S
C1582 H1595 0.961 . S
C1582 H1596 0.961 . S
C1583 C1580 1.539 . S
C1583 H1597 0.958 . S
C1583 H1598 0.961 . S
C1583 H1599 0.960 . S
H1584 C1568 0.931 . S
H1585 C1573 0.929 . S
H1586 C1574 0.960 . S
H1587 C1574 0.962 . S
H1588 C1574 0.960 . S
H1589 C1575 0.961 . S
H1590 C1575 0.961 . S
H1591 C1575 0.961 . S
H1592 C1576 0.931 . S
H1593 C1581 0.930 . S
H1594 C1582 0.956 . S
H1595 C1582 0.961 . S
H1596 C1582 0.961 . S
H1597 C1583 0.958 . S
H1598 C1583 0.961 . S
H1599 C1583 0.960 . S
C1600 C1601 1.391 . S
C1600 C1602 1.394 . S
C1600 H1616 0.931 . S
C1601 C1600 1.391 . S
C1601 C1605 1.376 . S
C1602 C1600 1.394 . S
C1602 C1603 1.369 . S
C1602 C1606 1.531 . S
C1603 C1602 1.369 . S
C1603 C1604 1.410 . S
C1603 C1611 1.503 . S
C1604 C1603 1.410 . S
C1604 C1605 1.392 . S
C1604 C1607 1.511 . S
C1605 C1601 1.376 . S
C1605 C1604 1.392 . S
C1605 H1617 0.929 . S
C1606 C1602 1.531 . S
C1606 H1618 0.960 . S
C1606 H1619 0.962 . S
C1606 H1620 0.960 . S
C1607 C1604 1.511 . S
C1607 H1621 0.961 . S
C1607 H1622 0.961 . S
C1607 H1623 0.961 . S
C1608 C1609 1.370 . S
C1608 C1610 1.363 . S
C1608 H1624 0.931 . S
C1609 C1608 1.370 . S
C1609 C1613 1.408 . S
C1610 C1608 1.363 . S
C1610 C1611 1.370 . S
C1610 C1614 1.524 . S
C1611 C1603 1.503 . S
C1611 C1610 1.370 . S
C1611 C1612 1.403 . S
C1612 C1611 1.403 . S
C1612 C1613 1.404 . S
C1612 C1615 1.539 . S
C1613 C1609 1.408 . S
C1613 C1612 1.404 . S
C1613 H1625 0.930 . S
C1614 C1610 1.524 . S
C1614 H1626 0.956 . S
C1614 H1627 0.961 . S
C1614 H1628 0.961 . S
C1615 C1612 1.539 . S
C1615 H1629 0.958 . S
C1615 H1630 0.961 . S
C1615 H1631 0.960 . S
H1616 C1600 0.931 . S
H1617 C1605 0.929 . S
H1618 C1606 0.960 . S
H1619 C1606 0.962 . S
H1620 C1606 0.960 . S
H1621 C1607 0.961 . S
H1622 C1607 0.961 . S
H1623 C1607 0.961 . S
H1624 C1608 0.931 . S
H1625 C1613 0.930 . S
H1626 C1614 0.956 . S
H1627 C1614 0.961 . S
H1628 C1614 0.961 . S
H1629 C1615 0.958 . S
H1630 C1615 0.961 . S
H1631 C1615 0.960 . S
C1632 C1633 1.391 . S
C1632 C1634 1.394 . S
C1632 H1648 0.931 . S
C1633 C1632 1.391 . S
C1633 C1637 1.376 . S
C1634 C1632 1.394 . S
C1634 C1635 1.369 . S
C1634 C1638 1.531 . S
C1635 C1634 1.369 . S
C1635 C1636 1.410 . S
C1635 C1643 1.503 . S
C1636 C1635 1.410 . S
C1636 C1637 1.392 . S
C1636 C1639 1.511 . S
C1637 C1633 1.376 . S
C1637 C1636 1.392 . S
C1637 H1649 0.929 . S
C1638 C1634 1.531 . S
C1638 H1650 0.960 . S
C1638 H1651 0.962 . S
C1638 H1652 0.960 . S
C1639 C1636 1.511 . S
C1639 H1653 0.961 . S
C1639 H1654 0.961 . S
C1639 H1655 0.961 . S
C1640 C1641 1.370 . S
C1640 C1642 1.363 . S
C1640 H1656 0.931 . S
C1641 C1640 1.370 . S
C1641 C1645 1.408 . S
C1642 C1640 1.363 . S
C1642 C1643 1.370 . S
C1642 C1646 1.524 . S
C1643 C1635 1.503 . S
C1643 C1642 1.370 . S
C1643 C1644 1.403 . S
C1644 C1643 1.403 . S
C1644 C1645 1.404 . S
C1644 C1647 1.539 . S
C1645 C1641 1.408 . S
C1645 C1644 1.404 . S
C1645 H1657 0.930 . S
C1646 C1642 1.524 . S
C1646 H1658 0.956 . S
C1646 H1659 0.961 . S
C1646 H1660 0.961 . S
C1647 C1644 1.539 . S
C1647 H1661 0.958 . S
C1647 H1662 0.961 . S
C1647 H1663 0.960 . S
H1648 C1632 0.931 . S
H1649 C1637 0.929 . S
H1650 C1638 0.960 . S
H1651 C1638 0.962 . S
H1652 C1638 0.960 . S
H1653 C1639 0.961 . S
H1654 C1639 0.961 . S
H1655 C1639 0.961 . S
H1656 C1640 0.931 . S
H1657 C1645 0.930 . S
H1658 C1646 0.956 . S
H1659 C1646 0.961 . S
H1660 C1646 0.961 . S
H1661 C1647 0.958 . S
H1662 C1647 0.961 . S
H1663 C1647 0.960 . S
C1664 C1665 1.391 . S
C1664 C1666 1.394 . S
C1664 H1680 0.931 . S
C1665 C1664 1.391 . S
C1665 C1669 1.376 . S
C1666 C1664 1.394 . S
C1666 C1667 1.369 . S
C1666 C1670 1.531 . S
C1667 C1666 1.369 . S
C1667 C1668 1.410 . S
C1667 C1675 1.503 . S
C1668 C1667 1.410 . S
C1668 C1669 1.392 . S
C1668 C1671 1.511 . S
C1669 C1665 1.376 . S
C1669 C1668 1.392 . S
C1669 H1681 0.929 . S
C1670 C1666 1.531 . S
C1670 H1682 0.960 . S
C1670 H1683 0.962 . S
C1670 H1684 0.960 . S
C1671 C1668 1.511 . S
C1671 H1685 0.961 . S
C1671 H1686 0.961 . S
C1671 H1687 0.961 . S
C1672 C1673 1.370 . S
C1672 C1674 1.363 . S
C1672 H1688 0.931 . S
C1673 C1672 1.370 . S
C1673 C1677 1.408 . S
C1674 C1672 1.363 . S
C1674 C1675 1.370 . S
C1674 C1678 1.524 . S
C1675 C1667 1.503 . S
C1675 C1674 1.370 . S
C1675 C1676 1.403 . S
C1676 C1675 1.403 . S
C1676 C1677 1.404 . S
C1676 C1679 1.539 . S
C1677 C1673 1.408 . S
C1677 C1676 1.404 . S
C1677 H1689 0.930 . S
C1678 C1674 1.524 . S
C1678 H1690 0.956 . S
C1678 H1691 0.961 . S
C1678 H1692 0.961 . S
C1679 C1676 1.539 . S
C1679 H1693 0.958 . S
C1679 H1694 0.961 . S
C1679 H1695 0.960 . S
H1680 C1664 0.931 . S
H1681 C1669 0.929 . S
H1682 C1670 0.960 . S
H1683 C1670 0.962 . S
H1684 C1670 0.960 . S
H1685 C1671 0.961 . S
H1686 C1671 0.961 . S
H1687 C1671 0.961 . S
H1688 C1672 0.931 . S
H1689 C1677 0.930 . S
H1690 C1678 0.956 . S
H1691 C1678 0.961 . S
H1692 C1678 0.961 . S
H1693 C1679 0.958 . S
H1694 C1679 0.961 . S
H1695 C1679 0.960 . S
C1696 C1697 1.391 . S
C1696 C1698 1.394 . S
C1696 H1712 0.931 . S
C1697 C1696 1.391 . S
C1697 C1701 1.376 . S
C1698 C1696 1.394 . S
C1698 C1699 1.369 . S
C1698 C1702 1.531 . S
C1699 C1698 1.369 . S
C1699 C1700 1.410 . S
C1699 C1707 1.503 . S
C1700 C1699 1.410 . S
C1700 C1701 1.392 . S
C1700 C1703 1.511 . S
C1701 C1697 1.376 . S
C1701 C1700 1.392 . S
C1701 H1713 0.929 . S
C1702 C1698 1.531 . S
C1702 H1714 0.960 . S
C1702 H1715 0.962 . S
C1702 H1716 0.960 . S
C1703 C1700 1.511 . S
C1703 H1717 0.961 . S
C1703 H1718 0.961 . S
C1703 H1719 0.961 . S
C1704 C1705 1.370 . S
C1704 C1706 1.363 . S
C1704 H1720 0.931 . S
C1705 C1704 1.370 . S
C1705 C1709 1.408 . S
C1706 C1704 1.363 . S
C1706 C1707 1.370 . S
C1706 C1710 1.524 . S
C1707 C1699 1.503 . S
C1707 C1706 1.370 . S
C1707 C1708 1.403 . S
C1708 C1707 1.403 . S
C1708 C1709 1.404 . S
C1708 C1711 1.539 . S
C1709 C1705 1.408 . S
C1709 C1708 1.404 . S
C1709 H1721 0.930 . S
C1710 C1706 1.524 . S
C1710 H1722 0.956 . S
C1710 H1723 0.961 . S
C1710 H1724 0.961 . S
C1711 C1708 1.539 . S
C1711 H1725 0.958 . S
C1711 H1726 0.961 . S
C1711 H1727 0.960 . S
H1712 C1696 0.931 . S
H1713 C1701 0.929 . S
H1714 C1702 0.960 . S
H1715 C1702 0.962 . S
H1716 C1702 0.960 . S
H1717 C1703 0.961 . S
H1718 C1703 0.961 . S
H1719 C1703 0.961 . S
H1720 C1704 0.931 . S
H1721 C1709 0.930 . S
H1722 C1710 0.956 . S
H1723 C1710 0.961 . S
H1724 C1710 0.961 . S
H1725 C1711 0.958 . S
H1726 C1711 0.961 . S
H1727 C1711 0.960 . S
C1728 C1729 1.391 . S
C1728 C1730 1.394 . S
C1728 H1744 0.931 . S
C1729 C1728 1.391 . S
C1729 C1733 1.376 . S
C1730 C1728 1.394 . S
C1730 C1731 1.369 . S
C1730 C1734 1.531 . S
C1731 C1730 1.369 . S
C1731 C1732 1.410 . S
C1731 C1739 1.503 . S
C1732 C1731 1.410 . S
C1732 C1733 1.392 . S
C1732 C1735 1.511 . S
C1733 C1729 1.376 . S
C1733 C1732 1.392 . S
C1733 H1745 0.929 . S
C1734 C1730 1.531 . S
C1734 H1746 0.960 . S
C1734 H1747 0.962 . S
C1734 H1748 0.960 . S
C1735 C1732 1.511 . S
C1735 H1749 0.961 . S
C1735 H1750 0.961 . S
C1735 H1751 0.961 . S
C1736 C1737 1.370 . S
C1736 C1738 1.363 . S
C1736 H1752 0.931 . S
C1737 C1736 1.370 . S
C1737 C1741 1.408 . S
C1738 C1736 1.363 . S
C1738 C1739 1.370 . S
C1738 C1742 1.524 . S
C1739 C1731 1.503 . S
C1739 C1738 1.370 . S
C1739 C1740 1.403 . S
C1740 C1739 1.403 . S
C1740 C1741 1.404 . S
C1740 C1743 1.539 . S
C1741 C1737 1.408 . S
C1741 C1740 1.404 . S
C1741 H1753 0.930 . S
C1742 C1738 1.524 . S
C1742 H1754 0.956 . S
C1742 H1755 0.961 . S
C1742 H1756 0.961 . S
C1743 C1740 1.539 . S
C1743 H1757 0.958 . S
C1743 H1758 0.961 . S
C1743 H1759 0.960 . S
H1744 C1728 0.931 . S
H1745 C1733 0.929 . S
H1746 C1734 0.960 . S
H1747 C1734 0.962 . S
H1748 C1734 0.960 . S
H1749 C1735 0.961 . S
H1750 C1735 0.961 . S
H1751 C1735 0.961 . S
H1752 C1736 0.931 . S
H1753 C1741 0.930 . S
H1754 C1742 0.956 . S
H1755 C1742 0.961 . S
H1756 C1742 0.961 . S
H1757 C1743 0.958 . S
H1758 C1743 0.961 . S
H1759 C1743 0.960 . S
C1760 C1761 1.391 . S
C1760 C1762 1.394 . S
C1760 H1776 0.931 . S
C1761 C1760 1.391 . S
C1761 C1765 1.376 . S
C1762 C1760 1.394 . S
C1762 C1763 1.369 . S
C1762 C1766 1.531 . S
C1763 C1762 1.369 . S
C1763 C1764 1.410 . S
C1763 C1771 1.503 . S
C1764 C1763 1.410 . S
C1764 C1765 1.392 . S
C1764 C1767 1.511 . S
C1765 C1761 1.376 . S
C1765 C1764 1.392 . S
C1765 H1777 0.929 . S
C1766 C1762 1.531 . S
C1766 H1778 0.960 . S
C1766 H1779 0.962 . S
C1766 H1780 0.960 . S
C1767 C1764 1.511 . S
C1767 H1781 0.961 . S
C1767 H1782 0.961 . S
C1767 H1783 0.961 . S
C1768 C1769 1.370 . S
C1768 C1770 1.363 . S
C1768 H1784 0.931 . S
C1769 C1768 1.370 . S
C1769 C1773 1.408 . S
C1770 C1768 1.363 . S
C1770 C1771 1.370 . S
C1770 C1774 1.524 . S
C1771 C1763 1.503 . S
C1771 C1770 1.370 . S
C1771 C1772 1.403 . S
C1772 C1771 1.403 . S
C1772 C1773 1.404 . S
C1772 C1775 1.539 . S
C1773 C1769 1.408 . S
C1773 C1772 1.404 . S
C1773 H1785 0.930 . S
C1774 C1770 1.524 . S
C1774 H1786 0.956 . S
C1774 H1787 0.961 . S
C1774 H1788 0.961 . S
C1775 C1772 1.539 . S
C1775 H1789 0.958 . S
C1775 H1790 0.961 . S
C1775 H1791 0.960 . S
H1776 C1760 0.931 . S
H1777 C1765 0.929 . S
H1778 C1766 0.960 . S
H1779 C1766 0.962 . S
H1780 C1766 0.960 . S
H1781 C1767 0.961 . S
H1782 C1767 0.961 . S
H1783 C1767 0.961 . S
H1784 C1768 0.931 . S
H1785 C1773 0.930 . S
H1786 C1774 0.956 . S
H1787 C1774 0.961 . S
H1788 C1774 0.961 . S
H1789 C1775 0.958 . S
H1790 C1775 0.961 . S
H1791 C1775 0.960 . S
C1792 C1793 1.391 . S
C1792 C1794 1.394 . S
C1792 H1808 0.931 . S
C1793 C1792 1.391 . S
C1793 C1797 1.376 1_556 S
C1794 C1792 1.394 . S
C1794 C1795 1.369 1_556 S
C1794 C1798 1.531 . S
C1795 C1794 1.369 1_554 S
C1795 C1796 1.410 . S
C1795 C1803 1.503 . S
C1796 C1795 1.410 . S
C1796 C1797 1.392 . S
C1796 C1799 1.511 . S
C1797 C1793 1.376 1_554 S
C1797 C1796 1.392 . S
C1797 H1809 0.929 . S
C1798 C1794 1.531 . S
C1798 H1810 0.960 . S
C1798 H1811 0.962 . S
C1798 H1812 0.960 . S
C1799 C1796 1.511 . S
C1799 H1813 0.961 . S
C1799 H1814 0.961 . S
C1799 H1815 0.961 . S
C1800 C1801 1.370 . S
C1800 C1802 1.363 . S
C1800 H1816 0.931 . S
C1801 C1800 1.370 . S
C1801 C1805 1.408 . S
C1802 C1800 1.363 . S
C1802 C1803 1.370 . S
C1802 C1806 1.524 1_554 S
C1803 C1795 1.503 . S
C1803 C1802 1.370 . S
C1803 C1804 1.403 . S
C1804 C1803 1.403 . S
C1804 C1805 1.404 . S
C1804 C1807 1.539 . S
C1805 C1801 1.408 . S
C1805 C1804 1.404 . S
C1805 H1817 0.930 . S
C1806 C1802 1.524 1_556 S
C1806 H1818 0.956 . S
C1806 H1819 0.961 . S
C1806 H1820 0.961 . S
C1807 C1804 1.539 . S
C1807 H1821 0.958 . S
C1807 H1822 0.961 . S
C1807 H1823 0.960 . S
H1808 C1792 0.931 . S
H1809 C1797 0.929 . S
H1810 C1798 0.960 . S
H1811 C1798 0.962 . S
H1812 C1798 0.960 . S
H1813 C1799 0.961 . S
H1814 C1799 0.961 . S
H1815 C1799 0.961 . S
H1816 C1800 0.931 . S
H1817 C1805 0.930 . S
H1818 C1806 0.956 . S
H1819 C1806 0.961 . S
H1820 C1806 0.961 . S
H1821 C1807 0.958 . S
H1822 C1807 0.961 . S
H1823 C1807 0.960 . S
C1824 C1825 1.391 . S
C1824 C1826 1.394 . S
C1824 H1840 0.931 . S
C1825 C1824 1.391 . S
C1825 C1829 1.376 . S
C1826 C1824 1.394 . S
C1826 C1827 1.369 . S
C1826 C1830 1.531 . S
C1827 C1826 1.369 . S
C1827 C1828 1.410 . S
C1827 C1835 1.503 . S
C1828 C1827 1.410 . S
C1828 C1829 1.392 . S
C1828 C1831 1.511 . S
C1829 C1825 1.376 . S
C1829 C1828 1.392 . S
C1829 H1841 0.929 . S
C1830 C1826 1.531 . S
C1830 H1842 0.960 . S
C1830 H1843 0.962 . S
C1830 H1844 0.960 . S
C1831 C1828 1.511 . S
C1831 H1845 0.961 . S
C1831 H1846 0.961 . S
C1831 H1847 0.961 . S
C1832 C1833 1.370 . S
C1832 C1834 1.363 . S
C1832 H1848 0.931 . S
C1833 C1832 1.370 . S
C1833 C1837 1.408 1_556 S
C1834 C1832 1.363 . S
C1834 C1835 1.370 1_556 S
C1834 C1838 1.524 . S
C1835 C1827 1.503 . S
C1835 C1834 1.370 1_554 S
C1835 C1836 1.403 . S
C1836 C1835 1.403 . S
C1836 C1837 1.404 . S
C1836 C1839 1.539 . S
C1837 C1833 1.408 1_554 S
C1837 C1836 1.404 . S
C1837 H1849 0.930 . S
C1838 C1834 1.524 . S
C1838 H1850 0.956 . S
C1838 H1851 0.961 . S
C1838 H1852 0.961 . S
C1839 C1836 1.539 . S
C1839 H1853 0.958 . S
C1839 H1854 0.961 . S
C1839 H1855 0.960 . S
H1840 C1824 0.931 . S
H1841 C1829 0.929 . S
H1842 C1830 0.960 . S
H1843 C1830 0.962 . S
H1844 C1830 0.960 . S
H1845 C1831 0.961 . S
H1846 C1831 0.961 . S
H1847 C1831 0.961 . S
H1848 C1832 0.931 . S
H1849 C1837 0.930 . S
H1850 C1838 0.956 . S
H1851 C1838 0.961 . S
H1852 C1838 0.961 . S
H1853 C1839 0.958 . S
H1854 C1839 0.961 . S
H1855 C1839 0.960 . S
C1856 C1857 1.391 1_554 S
C1856 C1858 1.394 . S
C1856 H1872 0.931 . S
C1857 C1856 1.391 1_556 S
C1857 C1861 1.376 . S
C1858 C1856 1.394 . S
C1858 C1859 1.369 . S
C1858 C1862 1.531 . S
C1859 C1858 1.369 . S
C1859 C1860 1.410 1_554 S
C1859 C1867 1.503 . S
C1860 C1859 1.410 1_556 S
C1860 C1861 1.392 . S
C1860 C1863 1.511 . S
C1861 C1857 1.376 . S
C1861 C1860 1.392 . S
C1861 H1873 0.929 . S
C1862 C1858 1.531 . S
C1862 H1874 0.960 . S
C1862 H1875 0.962 . S
C1862 H1876 0.960 . S
C1863 C1860 1.511 . S
C1863 H1877 0.961 . S
C1863 H1878 0.961 . S
C1863 H1879 0.961 1_556 S
C1864 C1865 1.370 . S
C1864 C1866 1.363 . S
C1864 H1880 0.931 1_554 S
C1865 C1864 1.370 . S
C1865 C1869 1.408 . S
C1866 C1864 1.363 . S
C1866 C1867 1.370 . S
C1866 C1870 1.524 1_554 S
C1867 C1859 1.503 . S
C1867 C1866 1.370 . S
C1867 C1868 1.403 . S
C1868 C1867 1.403 . S
C1868 C1869 1.404 . S
C1868 C1871 1.539 . S
C1869 C1865 1.408 . S
C1869 C1868 1.404 . S
C1869 H1881 0.930 . S
C1870 C1866 1.524 1_556 S
C1870 H1882 0.956 . S
C1870 H1883 0.961 . S
C1870 H1884 0.961 . S
C1871 C1868 1.539 . S
C1871 H1885 0.958 . S
C1871 H1886 0.961 . S
C1871 H1887 0.960 . S
H1872 C1856 0.931 . S
H1873 C1861 0.929 . S
H1874 C1862 0.960 . S
H1875 C1862 0.962 . S
H1876 C1862 0.960 . S
H1877 C1863 0.961 . S
H1878 C1863 0.961 . S
H1879 C1863 0.961 1_554 S
H1880 C1864 0.931 1_556 S
H1881 C1869 0.930 . S
H1882 C1870 0.956 . S
H1883 C1870 0.961 . S
H1884 C1870 0.961 . S
H1885 C1871 0.958 . S
H1886 C1871 0.961 . S
H1887 C1871 0.960 . S
C1888 C1889 1.391 . S
C1888 C1890 1.394 1_554 S
C1888 H1904 0.931 1_554 S
C1889 C1888 1.391 . S
C1889 C1893 1.376 . S
C1890 C1888 1.394 1_556 S
C1890 C1891 1.369 1_556 S
C1890 C1894 1.531 . S
C1891 C1890 1.369 1_554 S
C1891 C1892 1.410 . S
C1891 C1899 1.503 . S
C1892 C1891 1.410 . S
C1892 C1893 1.392 . S
C1892 C1895 1.511 . S
C1893 C1889 1.376 . S
C1893 C1892 1.392 . S
C1893 H1905 0.929 . S
C1894 C1890 1.531 . S
C1894 H1906 0.960 . S
C1894 H1907 0.962 . S
C1894 H1908 0.960 . S
C1895 C1892 1.511 . S
C1895 H1909 0.961 . S
C1895 H1910 0.961 . S
C1895 H1911 0.961 . S
C1896 C1897 1.370 . S
C1896 C1898 1.363 1_556 S
C1896 H1912 0.931 . S
C1897 C1896 1.370 . S
C1897 C1901 1.414 . S
C1898 C1896 1.363 1_554 S
C1898 C1899 1.370 . S
C1898 C1902 1.524 . S
C1899 C1891 1.503 . S
C1899 C1898 1.370 . S
C1899 C1900 1.403 . S
C1900 C1899 1.403 . S
C1900 C1901 1.398 1_554 S
C1900 C1903 1.539 . S
C1901 C1897 1.414 . S
C1901 C1900 1.398 1_556 S
C1901 H1913 0.931 . S
C1902 C1898 1.524 . S
C1902 H1914 0.956 1_554 S
C1902 H1915 0.961 . S
C1902 H1916 0.961 1_554 S
C1903 C1900 1.539 . S
C1903 H1917 0.958 . S
C1903 H1918 0.961 . S
C1903 H1919 0.960 . S
H1904 C1888 0.931 1_556 S
H1905 C1893 0.929 . S
H1906 C1894 0.960 . S
H1907 C1894 0.962 . S
H1908 C1894 0.960 . S
H1909 C1895 0.961 . S
H1910 C1895 0.961 . S
H1911 C1895 0.961 . S
H1912 C1896 0.931 . S
H1913 C1901 0.931 . S
H1914 C1902 0.956 1_556 S
H1915 C1902 0.961 . S
H1916 C1902 0.961 1_556 S
H1917 C1903 0.958 . S
H1918 C1903 0.961 . S
H1919 C1903 0.960 . S
C1920 C1921 1.391 . S
C1920 C1922 1.394 . S
C1920 H1936 0.931 . S
C1921 C1920 1.391 . S
C1921 C1925 1.376 . S
C1922 C1920 1.394 . S
C1922 C1923 1.369 . S
C1922 C1926 1.531 . S
C1923 C1922 1.369 . S
C1923 C1924 1.410 . S
C1923 C1931 1.503 . S
C1924 C1923 1.410 . S
C1924 C1925 1.392 . S
C1924 C1927 1.511 . S
C1925 C1921 1.376 . S
C1925 C1924 1.392 . S
C1925 H1937 0.929 . S
C1926 C1922 1.531 . S
C1926 H1938 0.960 . S
C1926 H1939 0.962 . S
C1926 H1940 0.960 . S
C1927 C1924 1.511 . S
C1927 H1941 0.961 . S
C1927 H1942 0.961 . S
C1927 H1943 0.961 . S
C1928 C1929 1.370 . S
C1928 C1930 1.363 . S
C1928 H1944 0.931 . S
C1929 C1928 1.370 . S
C1929 C1933 1.408 . S
C1930 C1928 1.363 . S
C1930 C1931 1.370 . S
C1930 C1934 1.524 . S
C1931 C1923 1.503 . S
C1931 C1930 1.370 . S
C1931 C1932 1.403 . S
C1932 C1931 1.403 . S
C1932 C1933 1.404 . S
C1932 C1935 1.539 . S
C1933 C1929 1.408 . S
C1933 C1932 1.404 . S
C1933 H1945 0.930 . S
C1934 C1930 1.524 . S
C1934 H1946 0.956 . S
C1934 H1947 0.961 . S
C1934 H1948 0.961 . S
C1935 C1932 1.539 . S
C1935 H1949 0.958 . S
C1935 H1950 0.961 . S
C1935 H1951 0.960 . S
H1936 C1920 0.931 . S
H1937 C1925 0.929 . S
H1938 C1926 0.960 . S
H1939 C1926 0.962 . S
H1940 C1926 0.960 . S
H1941 C1927 0.961 . S
H1942 C1927 0.961 . S
H1943 C1927 0.961 . S
H1944 C1928 0.931 . S
H1945 C1933 0.930 . S
H1946 C1934 0.956 . S
H1947 C1934 0.961 . S
H1948 C1934 0.961 . S
H1949 C1935 0.958 . S
H1950 C1935 0.961 . S
H1951 C1935 0.960 . S
C1952 C1953 1.391 . S
C1952 C1954 1.394 . S
C1952 H1968 0.931 . S
C1953 C1952 1.391 . S
C1953 C1957 1.376 . S
C1954 C1952 1.394 . S
C1954 C1955 1.369 . S
C1954 C1958 1.531 . S
C1955 C1954 1.369 . S
C1955 C1956 1.410 . S
C1955 C1963 1.503 . S
C1956 C1955 1.410 . S
C1956 C1957 1.392 . S
C1956 C1959 1.511 . S
C1957 C1953 1.376 . S
C1957 C1956 1.392 . S
C1957 H1969 0.929 . S
C1958 C1954 1.531 . S
C1958 H1970 0.960 . S
C1958 H1971 0.962 . S
C1958 H1972 0.960 . S
C1959 C1956 1.511 . S
C1959 H1973 0.961 . S
C1959 H1974 0.961 . S
C1959 H1975 0.961 . S
C1960 C1961 1.370 . S
C1960 C1962 1.363 . S
C1960 H1976 0.931 . S
C1961 C1960 1.370 . S
C1961 C1965 1.408 . S
C1962 C1960 1.363 . S
C1962 C1963 1.370 . S
C1962 C1966 1.524 . S
C1963 C1955 1.503 . S
C1963 C1962 1.370 . S
C1963 C1964 1.403 . S
C1964 C1963 1.403 . S
C1964 C1965 1.404 . S
C1964 C1967 1.539 . S
C1965 C1961 1.408 . S
C1965 C1964 1.404 . S
C1965 H1977 0.930 . S
C1966 C1962 1.524 . S
C1966 H1978 0.956 . S
C1966 H1979 0.961 . S
C1966 H1980 0.961 . S
C1967 C1964 1.539 . S
C1967 H1981 0.958 . S
C1967 H1982 0.961 . S
C1967 H1983 0.960 . S
H1968 C1952 0.931 . S
H1969 C1957 0.929 . S
H1970 C1958 0.960 . S
H1971 C1958 0.962 . S
H1972 C1958 0.960 . S
H1973 C1959 0.961 . S
H1974 C1959 0.961 . S
H1975 C1959 0.961 . S
H1976 C1960 0.931 . S
H1977 C1965 0.930 . S
H1978 C1966 0.956 . S
H1979 C1966 0.961 . S
H1980 C1966 0.961 . S
H1981 C1967 0.958 . S
H1982 C1967 0.961 . S
H1983 C1967 0.960 . S
C1984 C1985 1.391 . S
C1984 C1986 1.394 . S
C1984 H2000 0.931 . S
C1985 C1984 1.391 . S
C1985 C1989 1.376 . S
C1986 C1984 1.394 . S
C1986 C1987 1.369 . S
C1986 C1990 1.531 . S
C1987 C1986 1.369 . S
C1987 C1988 1.410 . S
C1987 C1995 1.503 . S
C1988 C1987 1.410 . S
C1988 C1989 1.392 . S
C1988 C1991 1.511 . S
C1989 C1985 1.376 . S
C1989 C1988 1.392 . S
C1989 H2001 0.929 . S
C1990 C1986 1.531 . S
C1990 H2002 0.960 . S
C1990 H2003 0.962 . S
C1990 H2004 0.960 . S
C1991 C1988 1.511 . S
C1991 H2005 0.961 . S
C1991 H2006 0.961 . S
C1991 H2007 0.961 . S
C1992 C1993 1.370 . S
C1992 C1994 1.363 . S
C1992 H2008 0.931 . S
C1993 C1992 1.370 . S
C1993 C1997 1.408 . S
C1994 C1992 1.363 . S
C1994 C1995 1.370 . S
C1994 C1998 1.524 . S
C1995 C1987 1.503 . S
C1995 C1994 1.370 . S
C1995 C1996 1.403 . S
C1996 C1995 1.403 . S
C1996 C1997 1.404 . S
C1996 C1999 1.539 . S
C1997 C1993 1.408 . S
C1997 C1996 1.404 . S
C1997 H2009 0.930 . S
C1998 C1994 1.524 . S
C1998 H2010 0.956 . S
C1998 H2011 0.961 . S
C1998 H2012 0.961 . S
C1999 C1996 1.539 . S
C1999 H2013 0.958 . S
C1999 H2014 0.961 . S
C1999 H2015 0.960 . S
H2000 C1984 0.931 . S
H2001 C1989 0.929 . S
H2002 C1990 0.960 . S
H2003 C1990 0.962 . S
H2004 C1990 0.960 . S
H2005 C1991 0.961 . S
H2006 C1991 0.961 . S
H2007 C1991 0.961 . S
H2008 C1992 0.931 . S
H2009 C1997 0.930 . S
H2010 C1998 0.956 . S
H2011 C1998 0.961 . S
H2012 C1998 0.961 . S
H2013 C1999 0.958 . S
H2014 C1999 0.961 . S
H2015 C1999 0.960 . S
C2016 C2017 1.391 . S
C2016 C2018 1.394 . S
C2016 H2032 0.931 . S
C2017 C2016 1.391 . S
C2017 C2021 1.376 . S
C2018 C2016 1.394 . S
C2018 C2019 1.369 . S
C2018 C2022 1.531 . S
C2019 C2018 1.369 . S
C2019 C2020 1.410 . S
C2019 C2027 1.503 . S
C2020 C2019 1.410 . S
C2020 C2021 1.392 . S
C2020 C2023 1.511 . S
C2021 C2017 1.376 . S
C2021 C2020 1.392 . S
C2021 H2033 0.929 . S
C2022 C2018 1.531 . S
C2022 H2034 0.960 . S
C2022 H2035 0.962 . S
C2022 H2036 0.960 . S
C2023 C2020 1.511 . S
C2023 H2037 0.961 . S
C2023 H2038 0.961 . S
C2023 H2039 0.961 . S
C2024 C2025 1.370 . S
C2024 C2026 1.363 . S
C2024 H2040 0.931 . S
C2025 C2024 1.370 . S
C2025 C2029 1.408 . S
C2026 C2024 1.363 . S
C2026 C2027 1.370 . S
C2026 C2030 1.524 . S
C2027 C2019 1.503 . S
C2027 C2026 1.370 . S
C2027 C2028 1.403 . S
C2028 C2027 1.403 . S
C2028 C2029 1.404 . S
C2028 C2031 1.539 . S
C2029 C2025 1.408 . S
C2029 C2028 1.404 . S
C2029 H2041 0.930 . S
C2030 C2026 1.524 . S
C2030 H2042 0.956 . S
C2030 H2043 0.961 . S
C2030 H2044 0.961 . S
C2031 C2028 1.539 . S
C2031 H2045 0.958 . S
C2031 H2046 0.961 . S
C2031 H2047 0.960 . S
H2032 C2016 0.931 . S
H2033 C2021 0.929 . S
H2034 C2022 0.960 . S
H2035 C2022 0.962 . S
H2036 C2022 0.960 . S
H2037 C2023 0.961 . S
H2038 C2023 0.961 . S
H2039 C2023 0.961 . S
H2040 C2024 0.931 . S
H2041 C2029 0.930 . S
H2042 C2030 0.956 . S
H2043 C2030 0.961 . S
H2044 C2030 0.961 . S
H2045 C2031 0.958 . S
H2046 C2031 0.961 . S
H2047 C2031 0.960 . S
C2048 C2049 1.391 . S
C2048 C2050 1.394 . S
C2048 H2064 0.931 . S
C2049 C2048 1.391 . S
C2049 C2053 1.376 . S
C2050 C2048 1.394 . S
C2050 C2051 1.369 . S
C2050 C2054 1.531 1_556 S
C2051 C2050 1.369 . S
C2051 C2052 1.410 . S
C2051 C2059 1.503 . S
C2052 C2051 1.410 . S
C2052 C2053 1.392 . S
C2052 C2055 1.511 . S
C2053 C2049 1.376 . S
C2053 C2052 1.392 . S
C2053 H2065 0.929 . S
C2054 C2050 1.531 1_554 S
C2054 H2066 0.960 . S
C2054 H2067 0.962 . S
C2054 H2068 0.960 . S
C2055 C2052 1.511 . S
C2055 H2069 0.961 . S
C2055 H2070 0.961 . S
C2055 H2071 0.961 . S
C2056 C2057 1.370 1_556 S
C2056 C2058 1.363 . S
C2056 H2072 0.931 . S
C2057 C2056 1.370 1_554 S
C2057 C2061 1.408 . S
C2058 C2056 1.363 . S
C2058 C2059 1.370 . S
C2058 C2062 1.524 . S
C2059 C2051 1.503 . S
C2059 C2058 1.370 . S
C2059 C2060 1.403 1_556 S
C2060 C2059 1.403 1_554 S
C2060 C2061 1.404 . S
C2060 C2063 1.539 . S
C2061 C2057 1.408 . S
C2061 C2060 1.404 . S
C2061 H2073 0.930 . S
C2062 C2058 1.524 . S
C2062 H2074 0.956 . S
C2062 H2075 0.961 . S
C2062 H2076 0.961 . S
C2063 C2060 1.539 . S
C2063 H2077 0.958 . S
C2063 H2078 0.961 . S
C2063 H2079 0.960 . S
H2064 C2048 0.931 . S
H2065 C2053 0.929 . S
H2066 C2054 0.960 . S
H2067 C2054 0.962 . S
H2068 C2054 0.960 . S
H2069 C2055 0.961 . S
H2070 C2055 0.961 . S
H2071 C2055 0.961 . S
H2072 C2056 0.931 . S
H2073 C2061 0.930 . S
H2074 C2062 0.956 . S
H2075 C2062 0.961 . S
H2076 C2062 0.961 . S
H2077 C2063 0.958 . S
H2078 C2063 0.961 . S
H2079 C2063 0.960 . S
C2080 C2081 1.391 . S
C2080 C2082 1.394 . S
C2080 H2096 0.931 . S
C2081 C2080 1.391 . S
C2081 C2085 1.376 . S
C2082 C2080 1.394 . S
C2082 C2083 1.369 . S
C2082 C2086 1.531 . S
C2083 C2082 1.369 . S
C2083 C2084 1.410 . S
C2083 C2091 1.503 . S
C2084 C2083 1.410 . S
C2084 C2085 1.392 . S
C2084 C2087 1.511 1_556 S
C2085 C2081 1.376 . S
C2085 C2084 1.392 . S
C2085 H2097 0.929 . S
C2086 C2082 1.531 . S
C2086 H2098 0.960 . S
C2086 H2099 0.962 . S
C2086 H2100 0.960 . S
C2087 C2084 1.511 1_554 S
C2087 H2101 0.961 . S
C2087 H2102 0.961 . S
C2087 H2103 0.972 . S
C2088 C2089 1.370 . S
C2088 C2090 1.363 . S
C2088 H2104 0.931 . S
C2089 C2088 1.370 . S
C2089 C2093 1.408 1_554 S
C2090 C2088 1.363 . S
C2090 C2091 1.370 1_554 S
C2090 C2094 1.524 . S
C2091 C2083 1.503 . S
C2091 C2090 1.370 1_556 S
C2091 C2092 1.403 . S
C2092 C2091 1.403 . S
C2092 C2093 1.404 . S
C2092 C2095 1.539 . S
C2093 C2089 1.408 1_556 S
C2093 C2092 1.404 . S
C2093 H2105 0.930 . S
C2094 C2090 1.524 . S
C2094 H2106 0.956 . S
C2094 H2107 0.961 . S
C2094 H2108 0.961 . S
C2095 C2092 1.539 . S
C2095 H2109 0.958 . S
C2095 H2110 0.961 . S
C2095 H2111 0.960 . S
H2096 C2080 0.931 . S
H2097 C2085 0.929 . S
H2098 C2086 0.960 . S
H2099 C2086 0.962 . S
H2100 C2086 0.960 . S
H2101 C2087 0.961 . S
H2102 C2087 0.961 . S
H2103 C2087 0.972 . S
H2104 C2088 0.931 . S
H2105 C2093 0.930 . S
H2106 C2094 0.956 . S
H2107 C2094 0.961 . S
H2108 C2094 0.961 . S
H2109 C2095 0.958 . S
H2110 C2095 0.961 . S
H2111 C2095 0.960 . S
C2112 C2113 1.391 . S
C2112 C2114 1.394 . S
C2112 H2128 0.931 . S
C2113 C2112 1.391 . S
C2113 C2117 1.376 1_554 S
C2114 C2112 1.394 . S
C2114 C2115 1.369 1_554 S
C2114 C2118 1.531 . S
C2115 C2114 1.369 1_556 S
C2115 C2116 1.410 . S
C2115 C2123 1.503 . S
C2116 C2115 1.410 . S
C2116 C2117 1.392 . S
C2116 C2119 1.511 . S
C2117 C2113 1.376 1_556 S
C2117 C2116 1.392 . S
C2117 H2129 0.929 . S
C2118 C2114 1.531 . S
C2118 H2130 0.960 . S
C2118 H2131 0.962 . S
C2118 H2132 0.960 . S
C2119 C2116 1.511 . S
C2119 H2133 0.961 . S
C2119 H2134 0.961 . S
C2119 H2135 0.961 . S
C2120 C2121 1.370 . S
C2120 C2122 1.363 . S
C2120 H2136 0.931 . S
C2121 C2120 1.370 . S
C2121 C2125 1.408 . S
C2122 C2120 1.363 . S
C2122 C2123 1.370 . S
C2122 C2126 1.524 . S
C2123 C2115 1.503 . S
C2123 C2122 1.370 . S
C2123 C2124 1.403 . S
C2124 C2123 1.403 . S
C2124 C2125 1.404 . S
C2124 C2127 1.539 . S
C2125 C2121 1.408 . S
C2125 C2124 1.404 . S
C2125 H2137 0.930 . S
C2126 C2122 1.524 . S
C2126 H2138 0.956 . S
C2126 H2139 0.961 . S
C2126 H2140 0.961 . S
C2127 C2124 1.539 . S
C2127 H2141 0.958 1_556 S
C2127 H2142 0.961 . S
C2127 H2143 0.960 . S
H2128 C2112 0.931 . S
H2129 C2117 0.929 . S
H2130 C2118 0.960 . S
H2131 C2118 0.962 . S
H2132 C2118 0.960 . S
H2133 C2119 0.961 . S
H2134 C2119 0.961 . S
H2135 C2119 0.961 . S
H2136 C2120 0.931 . S
H2137 C2125 0.930 . S
H2138 C2126 0.956 . S
H2139 C2126 0.961 . S
H2140 C2126 0.961 . S
H2141 C2127 0.958 1_554 S
H2142 C2127 0.961 . S
H2143 C2127 0.960 . S
C2144 C2145 1.391 1_556 S
C2144 C2146 1.394 . S
C2144 H2160 0.931 . S
C2145 C2144 1.391 1_554 S
C2145 C2149 1.376 . S
C2146 C2144 1.394 . S
C2146 C2147 1.369 . S
C2146 C2150 1.531 . S
C2147 C2146 1.369 . S
C2147 C2148 1.410 1_556 S
C2147 C2155 1.503 . S
C2148 C2147 1.410 1_554 S
C2148 C2149 1.392 . S
C2148 C2151 1.511 . S
C2149 C2145 1.376 . S
C2149 C2148 1.392 . S
C2149 H2161 0.929 . S
C2150 C2146 1.531 . S
C2150 H2162 0.960 . S
C2150 H2163 0.962 . S
C2150 H2164 0.960 . S
C2151 C2148 1.511 . S
C2151 H2165 0.961 . S
C2151 H2166 0.961 . S
C2151 H2167 0.961 . S
C2152 C2153 1.370 . S
C2152 C2154 1.363 . S
C2152 H2168 0.931 . S
C2153 C2152 1.370 . S
C2153 C2157 1.408 . S
C2154 C2152 1.363 . S
C2154 C2155 1.370 . S
C2154 C2158 1.524 . S
C2155 C2147 1.503 . S
C2155 C2154 1.370 . S
C2155 C2156 1.403 . S
C2156 C2155 1.403 . S
C2156 C2157 1.404 . S
C2156 C2159 1.539 . S
C2157 C2153 1.408 . S
C2157 C2156 1.404 . S
C2157 H2169 0.930 . S
C2158 C2154 1.524 . S
C2158 H2170 0.956 . S
C2158 H2171 0.961 . S
C2158 H2172 0.961 . S
C2159 C2156 1.539 . S
C2159 H2173 0.958 . S
C2159 H2174 0.961 1_556 S
C2159 H2175 0.960 1_556 S
H2160 C2144 0.931 . S
H2161 C2149 0.929 . S
H2162 C2150 0.960 . S
H2163 C2150 0.962 . S
H2164 C2150 0.960 . S
H2165 C2151 0.961 . S
H2166 C2151 0.961 . S
H2167 C2151 0.961 . S
H2168 C2152 0.931 . S
H2169 C2157 0.930 . S
H2170 C2158 0.956 . S
H2171 C2158 0.961 . S
H2172 C2158 0.961 . S
H2173 C2159 0.958 . S
H2174 C2159 0.961 1_554 S
H2175 C2159 0.960 1_554 S
C641 C2 2.314 . S
C649 C202 2.337 . S
C673 C242 2.358 . S
C681 C42 2.362 . S
C705 C82 2.361 . S
C713 C282 2.345 . S
C737 C122 2.354 . S
C745 C162 2.343 . S
C769 C543 2.342 . S
C777 C343 2.341 . S
C801 C583 2.348 . S
C809 C383 2.357 . S
C833 C423 2.340 . S
C841 C623 2.340 . S
C865 C463 2.335 . S
C873 C503 2.352 . S
C897 C17 1.858 . S
C905 C144 1.788 1_545 S
C929 C57 1.853 . S
C937 C24 1.774 . S
C961 C97 1.900 . S
C969 C64 1.764 . S
C993 C137 1.854 . S
C1001 C104 1.773 1_455 S
C1025 C177 1.901 . S
C1033 C224 1.765 1_565 S
C1057 C264 1.745 . S
C1065 C217 1.891 . S
C1089 C257 1.900 . S
C1097 C304 1.764 . S
C1121 C184 1.769 1_655 S
C1129 C297 1.871 . S
C1153 C453 1.776 1_565 S
C1161 C346 1.888 . S
C1185 C386 1.885 . S
C1193 C333 1.758 . S
C1217 C426 1.877 . S
C1225 C373 1.786 . S
C1249 C466 1.883 . S
C1257 C413 1.783 1_655 S
C1281 C506 1.878 . S
C1289 C533 1.760 1_545 S
C1313 C546 1.900 . S
C1321 C573 1.759 . S
C1345 C586 1.871 . S
C1353 C613 1.788 . S
C1377 C626 1.866 . S
C1385 C493 1.789 1_455 S
C1409 C26 1.426 . S
C1417 C106 1.407 . S
C1441 C66 1.417 . S
C1449 C146 1.396 . S
C1473 C266 1.405 . S
C1481 C186 1.406 . S
C1505 C306 1.417 . S
C1513 C226 1.408 . S
C1537 C417 1.398 . S
C1545 C337 1.399 . S
C1569 C457 1.429 . S
C1577 C377 1.403 . S
C1601 C497 1.398 . S
C1609 C577 1.399 . S
C1633 C537 1.427 . S
C1641 C617 1.405 . S
C1665 C13 2.680 . S
C1673 C442 2.675 . S
C1697 C322 2.654 . S
C1705 C53 2.697 . S
C1729 C93 2.685 . S
C1737 C362 2.672 . S
C1761 C402 2.666 . S
C1769 C133 2.693 . S
C1793 C522 2.676 . S
C1801 C173 2.691 . S
C1825 C213 2.680 . S
C1833 C562 2.676 . S
C1857 C602 2.675 . S
C1865 C253 2.692 . S
C1889 C293 2.690 . S
C1897 C482 2.671 . S
C1921 C344 2.683 . S
C1929 C143 2.674 . S
C1953 C384 2.681 . S
C1961 C23 2.675 . S
C1985 C63 2.653 . S
C1993 C424 2.697 . S
C2017 C464 2.696 . S
C2025 C103 2.666 . S
C2049 C504 2.693 . S
C2057 C223 2.668 . S
C2081 C544 2.684 . S
C2089 C263 2.673 . S
C2113 C303 2.659 . S
C2121 C584 2.696 . S
C2145 C183 2.665 . S
C2153 C624 2.695 . S
