# Generated by pormake.
# Topology smt, (6)-cn, num edge types: 1
# Building blocks:
#     Node 0, Type 0, BuildingBlock: MIDCAF_clean_sbu_0, # of connection points: 6
#     Node 1, Type 0, BuildingBlock: MIDCAF_clean_sbu_0, # of connection points: 6
#     Node 2, Type 0, BuildingBlock: MIDCAF_clean_sbu_0, # of connection points: 6
#     Node 3, Type 0, BuildingBlock: MIDCAF_clean_sbu_0, # of connection points: 6
#     Node 4, Type 0, BuildingBlock: MIDCAF_clean_sbu_0, # of connection points: 6
#     Node 5, Type 0, BuildingBlock: MIDCAF_clean_sbu_0, # of connection points: 6
#     Edge 6, Type (0, 0), BuildingBlock: FUNLAD_clean_linker_1, # of connection points: 2
#     Edge 7, Type (0, 0), BuildingBlock: FUNLAD_clean_linker_1, # of connection points: 2
#     Edge 8, Type (0, 0), BuildingBlock: FUNLAD_clean_linker_1, # of connection points: 2
#     Edge 9, Type (0, 0), BuildingBlock: FUNLAD_clean_linker_1, # of connection points: 2
#     Edge 10, Type (0, 0), BuildingBlock: FUNLAD_clean_linker_1, # of connection points: 2
#     Edge 11, Type (0, 0), BuildingBlock: FUNLAD_clean_linker_1, # of connection points: 2
#     Edge 12, Type (0, 0), BuildingBlock: FUNLAD_clean_linker_1, # of connection points: 2
#     Edge 13, Type (0, 0), BuildingBlock: FUNLAD_clean_linker_1, # of connection points: 2
#     Edge 14, Type (0, 0), BuildingBlock: FUNLAD_clean_linker_1, # of connection points: 2
#     Edge 15, Type (0, 0), BuildingBlock: FUNLAD_clean_linker_1, # of connection points: 2
#     Edge 16, Type (0, 0), BuildingBlock: FUNLAD_clean_linker_1, # of connection points: 2
#     Edge 17, Type (0, 0), BuildingBlock: FUNLAD_clean_linker_1, # of connection points: 2
#     Edge 18, Type (0, 0), BuildingBlock: FUNLAD_clean_linker_1, # of connection points: 2
#     Edge 19, Type (0, 0), BuildingBlock: FUNLAD_clean_linker_1, # of connection points: 2
#     Edge 20, Type (0, 0), BuildingBlock: FUNLAD_clean_linker_1, # of connection points: 2
#     Edge 21, Type (0, 0), BuildingBlock: FUNLAD_clean_linker_1, # of connection points: 2
#     Edge 22, Type (0, 0), BuildingBlock: FUNLAD_clean_linker_1, # of connection points: 2
#     Edge 23, Type (0, 0), BuildingBlock: FUNLAD_clean_linker_1, # of connection points: 2
# Relax obj value: 0.229
# Max RMSD: 0.198
# Mean RMSD: 0.198
data_MOF--net-smt--node1-MIDCAF_clean_sbu_0--edge1-FUNLAD_clean_linker_1
_symmetry_space_group_name_H-M    P1
_symmetry_Int_Tables_number       1
_symmetry_cell_setting            triclinic
loop_
_symmetry_equiv_pos_as_xyz
'x, y, z'
_cell_length_a     35.717081
_cell_length_b     35.15292
_cell_length_c     26.099755
_cell_angle_alpha  90.20552
_cell_angle_beta   89.362529
_cell_angle_gamma 120.30673
loop_
_atom_site_label
_atom_site_type_symbol
_atom_site_fract_x
_atom_site_fract_y
_atom_site_fract_z
_atom_type_partial_charge
Zn0 Zn 0.50016 0.1178 0.95595 0.0
Zn1 Zn 0.37155 0.0521 0.05914 0.0
Zn2 Zn 0.43043 0.08442 0.00043 0.0
C3 C 0.34552 0.01655 0.96031 0.0
C4 C 0.39762 0.13861 0.06352 0.0
O5 O 0.47196 0.14193 0.04756 0.0
O6 O 0.53183 0.14446 0.02047 0.0
C7 C 0.4728 0.03038 0.95601 0.0
O8 O 0.37537 0.05575 0.94777 0.0
O9 O 0.34112 0.00491 0.00681 0.0
O10 O 0.36162 0.10308 0.06479 0.0
O11 O 0.43186 0.13785 0.0488 0.0
O12 O 0.49721 0.06395 0.92948 0.0
O13 O 0.44958 0.03294 0.9927 0.0
O14 O 0.41189 0.09826 0.92653 0.0
O15 O 0.47995 0.14901 0.91123 0.0
C16 C 0.44013 0.13199 0.90096 0.0
O17 O 0.44095 0.03749 0.04352 0.0
O18 O 0.40864 0.04577 0.1113 0.0
C19 C 0.51234 0.1547 0.05355 0.0
C20 C 0.43463 0.03494 0.09233 0.0
Zn21 Zn 0.4082 0.56565 0.11523 0.0
Zn22 Zn 0.34942 0.43881 0.25287 0.0
Zn23 Zn 0.37667 0.50382 0.18168 0.0
C24 C 0.38363 0.41374 0.17153 0.0
C25 C 0.27794 0.44792 0.22351 0.0
O26 O 0.42878 0.56745 0.2151 0.0
O27 O 0.46312 0.60961 0.14814 0.0
C28 C 0.4102 0.4966 0.07002 0.0
O29 O 0.38955 0.45077 0.15418 0.0
O30 O 0.36554 0.39965 0.21471 0.0
O31 O 0.28868 0.42675 0.25306 0.0
O32 O 0.30622 0.478 0.19347 0.0
O33 O 0.41063 0.53115 0.0561 0.0
O34 O 0.40152 0.48344 0.11681 0.0
O35 O 0.32266 0.51335 0.15719 0.0
O36 O 0.36 0.57803 0.11855 0.0
C37 C 0.32441 0.54715 0.13563 0.0
O38 O 0.41345 0.53273 0.25153 0.0
O39 O 0.38916 0.4776 0.30709 0.0
C40 C 0.45994 0.60367 0.19594 0.0
C41 C 0.41424 0.51774 0.29613 0.0
Zn42 Zn 0.83744 0.3832 0.29229 0.0
Zn43 Zn 0.91396 0.30927 0.37891 0.0
Zn44 Zn 0.87081 0.34265 0.32999 0.0
C45 C 0.96667 0.36007 0.29703 0.0
C46 C 0.83313 0.23918 0.34151 0.0
O47 O 0.86266 0.38495 0.38686 0.0
O48 O 0.85448 0.43268 0.34063 0.0
C49 C 0.90151 0.39802 0.22512 0.0
O50 O 0.93376 0.36507 0.28959 0.0
O51 O 0.96671 0.33732 0.3344 0.0
O52 O 0.86762 0.24785 0.36413 0.0
O53 O 0.82736 0.27043 0.32533 0.0
O54 O 0.8659 0.39723 0.22434 0.0
O55 O 0.91136 0.38219 0.2638 0.0
O56 O 0.80656 0.2922 0.30046 0.0
O57 O 0.77659 0.33374 0.29492 0.0
C58 C 0.7732 0.29627 0.29226 0.0
O59 O 0.88072 0.36283 0.41193 0.0
O60 O 0.91595 0.33373 0.44882 0.0
C61 C 0.85959 0.41984 0.38364 0.0
C62 C 0.89797 0.35674 0.4519 0.0
Zn63 Zn 0.58803 0.93399 0.58285 0.0
Zn64 Zn 0.47615 0.84999 0.46006 0.0
Zn65 Zn 0.52551 0.89682 0.517 0.0
C66 C 0.53505 0.82365 0.46634 0.0
C67 C 0.51047 0.93431 0.42514 0.0
O68 O 0.50309 0.89146 0.59866 0.0
O69 O 0.55647 0.9503 0.63483 0.0
C70 C 0.53477 0.83833 0.58987 0.0
O71 O 0.55713 0.86492 0.47683 0.0
O72 O 0.49419 0.80463 0.46617 0.0
O73 O 0.50481 0.89835 0.40717 0.0
O74 O 0.50961 0.93853 0.47364 0.0
O75 O 0.57408 0.86953 0.58797 0.0
O76 O 0.50455 0.84587 0.57567 0.0
O77 O 0.58536 0.9114 0.47999 0.0
O78 O 0.6202 0.97301 0.52284 0.0
C79 C 0.61545 0.95185 0.48183 0.0
O80 O 0.4687 0.85319 0.5645 0.0
O81 O 0.42504 0.8436 0.50043 0.0
C82 C 0.5177 0.91863 0.6363 0.0
C83 C 0.43057 0.84179 0.54788 0.0
Zn84 Zn 0.58816 0.45934 0.61119 0.0
Zn85 Zn 0.67818 0.58875 0.75281 0.0
Zn86 Zn 0.63146 0.52674 0.67978 0.0
C87 C 0.63198 0.61825 0.6914 0.0
C88 C 0.73787 0.57869 0.69558 0.0
O89 O 0.59034 0.46097 0.71847 0.0
O90 O 0.55714 0.40951 0.65934 0.0
C91 C 0.56514 0.52546 0.59801 0.0
O92 O 0.61579 0.57982 0.67069 0.0
O93 O 0.66104 0.6306 0.72496 0.0
O94 O 0.73683 0.59869 0.73539 0.0
O95 O 0.70254 0.5526 0.6718 0.0
O96 O 0.556 0.48724 0.58446 0.0
O97 O 0.59394 0.5468 0.63227 0.0
O98 O 0.67966 0.52382 0.63146 0.0
O99 O 0.64301 0.46946 0.57652 0.0
C100 C 0.67868 0.50018 0.59327 0.0
O101 O 0.60587 0.49622 0.75344 0.0
O102 O 0.64232 0.54878 0.81029 0.0
C103 C 0.56463 0.42037 0.7058 0.0
C104 C 0.61246 0.51005 0.79991 0.0
Zn105 Zn 0.12796 0.58333 0.78651 0.0
Zn106 Zn 0.02625 0.62362 0.84338 0.0
Zn107 Zn 0.08209 0.61325 0.81245 0.0
C108 C 0.02785 0.6345 0.74412 0.0
C109 C 0.11026 0.69382 0.87187 0.0
O110 O 0.12734 0.62608 0.87786 0.0
O111 O 0.15729 0.58717 0.85272 0.0
C112 C 0.03959 0.51761 0.77326 0.0
O113 O 0.06775 0.6515 0.75707 0.0
O114 O -0.00126 0.60696 0.77403 0.0
O115 O 0.07568 0.68963 0.85335 0.0
O116 O 0.11348 0.65896 0.8757 0.0
O117 O 0.07767 0.52547 0.76408 0.0
O118 O 0.03361 0.54666 0.79527 0.0
O119 O 0.11359 0.65952 0.75256 0.0
O120 O 0.1585 0.63485 0.73772 0.0
C121 C 0.14679 0.66284 0.72945 0.0
O122 O 0.08199 0.61285 0.89677 0.0
O123 O 0.01105 0.57951 0.90196 0.0
C124 C 0.15294 0.61076 0.88621 0.0
C125 C 0.04674 0.58875 0.92205 0.0
H126 H 0.30218 0.99339 0.89217 0.0
C127 C 0.31555 0.98345 0.92303 0.0
H128 H 0.31596 0.93211 0.96367 0.0
H129 H 0.12785 0.78138 0.96118 0.0
H130 H 0.13236 0.81015 0.04674 0.0
H131 H 0.19483 0.88159 0.0719 0.0
H132 H 0.25304 0.92475 0.01153 0.0
C133 C 0.30125 0.94039 0.93258 0.0
C134 C 0.2602 0.90248 0.91276 0.0
C135 C 0.22604 0.87751 0.94834 0.0
C136 C 0.19007 0.83614 0.93396 0.0
C137 C 0.15639 0.81247 0.97028 0.0
C138 C 0.1584 0.82874 0.01952 0.0
C139 C 0.19355 0.86895 0.03367 0.0
C140 C 0.22693 0.89325 -0.00133 0.0
H141 H 0.17018 0.73842 0.91414 0.0
C142 C 0.14609 0.73739 0.88822 0.0
H143 H 0.12866 0.77439 0.84065 0.0
H144 H 0.31843 0.94247 0.83458 0.0
H145 H 0.31252 0.91528 0.74761 0.0
H146 H 0.24913 0.84476 0.72176 0.0
H147 H 0.19219 0.79995 0.78318 0.0
C148 C 0.15103 0.77535 0.86921 0.0
C149 C 0.18809 0.81949 0.8839 0.0
C150 C 0.22085 0.84568 0.84732 0.0
C151 C 0.25713 0.88699 0.86191 0.0
C152 C 0.29013 0.91133 0.82527 0.0
C153 C 0.28705 0.89611 0.77525 0.0
C154 C 0.25136 0.85634 0.76072 0.0
C155 C 0.21881 0.83103 0.79629 0.0
H156 H 0.41104 0.3985 0.10275 0.0
C157 C 0.398 0.38748 0.1411 0.0
H158 H 0.38375 0.34029 0.19915 0.0
H159 H 0.37991 0.21978 0.00311 0.0
H160 H 0.32182 0.22878 0.9692 0.0
H161 H 0.30167 0.27926 0.01047 0.0
H162 H 0.34002 0.32178 0.08492 0.0
C163 C 0.3951 0.35039 0.16004 0.0
C164 C 0.40917 0.32278 0.13123 0.0
C165 C 0.3849 0.2966 0.08914 0.0
C166 C 0.39504 0.26574 0.06684 0.0
C167 C 0.37214 0.24207 0.02289 0.0
C168 C 0.339 0.24721 0.0028 0.0
C169 C 0.32776 0.27574 0.02594 0.0
C170 C 0.3502 0.30011 0.06868 0.0
H171 H 0.36889 0.17514 0.09769 0.0
C172 C 0.39853 0.17928 0.08024 0.0
H173 H 0.46215 0.22581 0.05571 0.0
H174 H 0.46554 0.37133 0.20687 0.0
H175 H 0.52411 0.36264 0.2399 0.0
H176 H 0.53893 0.30642 0.2043 0.0
H177 H 0.49595 0.25907 0.13466 0.0
C178 C 0.43187 0.2204 0.07252 0.0
C179 C 0.42761 0.25907 0.08849 0.0
C180 C 0.45347 0.28697 0.12852 0.0
C181 C 0.44434 0.3189 0.14974 0.0
C182 C 0.47061 0.34611 0.18993 0.0
C183 C 0.50441 0.34158 0.2091 0.0
C184 C 0.51285 0.30999 0.18894 0.0
C185 C 0.48783 0.28294 0.14909 0.0
H186 H 0.00459 0.40003 0.22972 0.0
C187 C 0.0052 0.38191 0.26282 0.0
H188 H 0.04287 0.36391 0.30712 0.0
H189 H 0.1704 0.40264 0.11385 0.0
H190 H 0.1085 0.34509 0.06837 0.0
H191 H 0.03417 0.31505 0.10272 0.0
H192 H 0.0212 0.34223 0.18279 0.0
C193 C 0.0414 0.38077 0.27305 0.0
C194 C 0.08261 0.40644 0.24362 0.0
C195 C 0.08936 0.39049 0.19653 0.0
C196 C 0.13227 0.40775 0.17676 0.0
C197 C 0.13848 0.39055 0.13047 0.0
C198 C 0.10325 0.35763 0.10402 0.0
C199 C 0.06138 0.3407 0.12338 0.0
C200 C 0.05435 0.35656 0.16934 0.0
H201 H 0.21606 0.42369 0.26398 0.0
C202 C 0.23331 0.43959 0.22867 0.0
H203 H 0.22749 0.46193 0.15603 0.0
H204 H 0.07908 0.45142 0.32732 0.0
H205 H 0.13995 0.51517 0.36663 0.0
H206 H 0.21397 0.54647 0.3307 0.0
H207 H 0.22761 0.51384 0.25559 0.0
C208 C 0.21278 0.44971 0.19324 0.0
C209 C 0.16794 0.44061 0.20439 0.0
C210 C 0.16032 0.46101 0.24698 0.0
C211 C 0.11764 0.44351 0.26703 0.0
C212 C 0.11103 0.46343 0.31074 0.0
C213 C 0.1456 0.50012 0.33344 0.0
C214 C 0.18729 0.51772 0.31324 0.0
C215 C 0.19475 0.49853 0.27048 0.0
H216 H 0.80731 0.16929 0.35672 0.0
C217 C 0.79912 0.1923 0.33957 0.0
H218 H 0.74877 0.19971 0.31009 0.0
H219 H 0.70003 0.99021 0.36434 0.0
H220 H 0.74864 0.99813 0.29382 0.0
H221 H 0.78451 0.06627 0.24197 0.0
H222 H 0.77276 0.12745 0.26123 0.0
C223 C 0.75809 0.17718 0.32505 0.0
C224 C 0.72413 0.13148 0.33994 0.0
C225 C 0.72889 0.09505 0.32598 0.0
C226 C 0.70705 0.05521 0.35468 0.0
C227 C 0.71527 0.0208 0.34302 0.0
C228 C 0.743 0.02495 0.30266 0.0
C229 C 0.76326 0.06336 0.27349 0.0
C230 C 0.75648 0.0982 0.28497 0.0
H231 H 0.62286 0.96185 0.39759 0.0
C232 C 0.63685 0.9764 0.43435 0.0
H233 H 0.68068 0.03324 0.47465 0.0
H234 H 0.70071 0.19174 0.37033 0.0
H235 H 0.64396 0.17921 0.43122 0.0
H236 H 0.60099 0.10729 0.47456 0.0
H237 H 0.61558 0.0478 0.45796 0.0
C238 C 0.66803 0.01898 0.4373 0.0
C239 C 0.67882 0.05137 0.39526 0.0
C240 C 0.66795 0.08462 0.40246 0.0
C241 C 0.6914 0.12529 0.37578 0.0
C242 C 0.68291 0.15955 0.38793 0.0
C243 C 0.65049 0.15287 0.42308 0.0
C244 C 0.62637 0.11244 0.44757 0.0
C245 C 0.63512 0.0787 0.43787 0.0
H246 H 0.49399 0.76534 0.59438 0.0
C247 C 0.52505 0.79359 0.60454 0.0
H248 H 0.58747 0.81646 0.63405 0.0
H249 H 0.51633 0.61742 0.71918 0.0
H250 H 0.46353 0.62548 0.77017 0.0
H251 H 0.45225 0.68839 0.75651 0.0
H252 H 0.49346 0.74348 0.69136 0.0
C253 C 0.55627 0.78782 0.62508 0.0
C254 C 0.55475 0.74475 0.62663 0.0
C255 C 0.53007 0.71266 0.66441 0.0
C256 C 0.53691 0.67655 0.67258 0.0
C257 C 0.51239 0.64538 0.71122 0.0
C258 C 0.48204 0.64967 0.74085 0.0
C259 C 0.47569 0.6851 0.73315 0.0
C260 C 0.4995 0.71647 0.6956 0.0
H261 H 0.64205 0.68486 0.68227 0.0
C262 C 0.61904 0.65016 0.67563 0.0
H263 H 0.55527 0.60415 0.65386 0.0
H264 H 0.60167 0.7962 0.54524 0.0
H265 H 0.653 0.78722 0.49252 0.0
H266 H 0.66574 0.72543 0.50735 0.0
H267 H 0.62833 0.67327 0.57595 0.0
C268 C 0.58005 0.63867 0.65659 0.0
C269 C 0.56902 0.67322 0.64366 0.0
C270 C 0.59131 0.70358 0.60329 0.0
C271 C 0.5839 0.73911 0.59461 0.0
C272 C 0.60652 0.76892 0.55397 0.0
C273 C 0.63577 0.76394 0.52308 0.0
C274 C 0.64301 0.72923 0.53152 0.0
C275 C 0.62122 0.69941 0.57109 0.0
H276 H 0.01134 0.68146 0.71603 0.0
C277 C 0.01375 0.65325 0.70351 0.0
H278 H -0.01145 0.59835 0.65622 0.0
H279 H 0.80187 0.5401 0.73936 0.0
H280 H 0.81266 0.48033 0.76423 0.0
H281 H 0.88078 0.48184 0.74279 0.0
H282 H 0.93859 0.54378 0.69782 0.0
C283 C 0.98492 0.62556 0.66933 0.0
C284 C 0.94042 0.61971 0.6683 0.0
C285 C 0.90517 0.58122 0.69067 0.0
C286 C 0.86495 0.57919 0.70057 0.0
C287 C 0.83223 0.54258 0.72825 0.0
C288 C 0.83815 0.5081 0.74344 0.0
C289 C 0.87653 0.50904 0.7316 0.0
C290 C 0.90966 0.54504 0.70572 0.0
H291 H 0.77845 0.55907 0.65108 0.0
C292 C 0.77934 0.58301 0.67809 0.0
H293 H 0.81943 0.63859 0.72339 0.0
H294 H -0.00147 0.69437 0.61737 0.0
H295 H 0.98674 0.75322 0.58864 0.0
H296 H 0.9162 0.74872 0.60297 0.0
H297 H 0.85703 0.68551 0.64617 0.0
C298 C 0.81768 0.61351 0.69744 0.0
C299 C 0.85885 0.61424 0.68467 0.0
C300 C 0.89303 0.65126 0.65913 0.0
C301 C 0.93383 0.65402 0.65103 0.0
C302 C 0.96727 0.69122 0.62528 0.0
C303 C 0.96082 0.725 0.60834 0.0
C304 C 0.92108 0.72244 0.61638 0.0
C305 C 0.88743 0.68606 0.64136 0.0
H306 H 0.48107 0.01254 0.11063 0.0
C307 C 0.45829 0.0213 0.12686 0.0
H308 H 0.43071 0.031 0.1941 0.0
H309 H 0.49238 0.89824 0.28983 0.0
H310 H 0.44868 0.84567 0.22514 0.0
H311 H 0.41521 0.86612 0.15672 0.0
H312 H 0.42584 0.93941 0.15206 0.0
C313 C 0.45237 0.02065 0.17807 0.0
C314 C 0.47601 0.00903 0.21578 0.0
C315 C 0.46913 0.96563 0.21809 0.0
C316 C 0.48773 0.95362 0.25837 0.0
C317 C 0.47966 0.90973 0.2601 0.0
C318 C 0.45428 0.8789 0.22333 0.0
C319 C 0.43551 0.89043 0.18472 0.0
C320 C 0.44235 0.93301 0.18223 0.0
H321 H 0.49406 0.98382 0.39902 0.0
C322 C 0.51177 0.96714 0.38911 0.0
H323 H 0.54585 0.9534 0.33294 0.0
H324 H 0.49693 0.09542 0.22164 0.0
H325 H 0.54166 0.1486 0.28584 0.0
H326 H 0.57498 0.12802 0.35452 0.0
H327 H 0.56334 0.05383 0.35975 0.0
C328 C 0.52773 0.96996 0.34137 0.0
C329 C 0.51234 0.98472 0.29697 0.0
C330 C 0.52042 0.02845 0.29366 0.0
C331 C 0.5018 0.04045 0.25343 0.0
C332 C 0.50976 0.08423 0.25166 0.0
C333 C 0.53559 0.1152 0.28814 0.0
C334 C 0.55438 0.10362 0.32681 0.0
C335 C 0.54722 0.06088 0.32955 0.0
H336 H 0.47243 0.57883 0.3208 0.0
C337 C 0.44704 0.54674 0.33325 0.0
H338 H 0.42283 0.50102 0.39415 0.0
H339 H 0.62176 0.59769 0.47107 0.0
H340 H 0.64079 0.57919 0.38899 0.0
H341 H 0.58805 0.5506 0.31862 0.0
H342 H 0.51651 0.54104 0.32961 0.0
C343 C 0.44853 0.53284 0.38043 0.0
C344 C 0.48414 0.55979 0.41635 0.0
C345 C 0.52601 0.56532 0.40864 0.0
C346 C 0.55596 0.58045 0.44967 0.0
C347 C 0.59747 0.58543 0.44156 0.0
C348 C 0.60887 0.57508 0.39456 0.0
C349 C 0.57921 0.55907 0.35492 0.0
C350 C 0.53816 0.55393 0.36173 0.0
H351 H 0.50846 0.52202 0.56334 0.0
C352 C 0.54248 0.54454 0.57169 0.0
H353 H 0.59901 0.60195 0.54874 0.0
H354 H 0.41175 0.56471 0.43808 0.0
H355 H 0.39432 0.58658 0.51953 0.0
H356 H 0.4447 0.60831 0.59233 0.0
H357 H 0.51259 0.60826 0.58356 0.0
C358 C 0.56414 0.58199 0.54466 0.0
C359 C 0.5428 0.58716 0.49867 0.0
C360 C 0.50336 0.58723 0.50406 0.0
C361 C 0.47417 0.57402 0.46256 0.0
C362 C 0.43474 0.57395 0.46894 0.0
C363 C 0.42448 0.58654 0.5153 0.0
C364 C 0.45283 0.59882 0.55625 0.0
C365 C 0.4917 0.59885 0.5509 0.0
H366 H 0.01107 0.45308 0.7363 0.0
C367 C 0.00379 0.47807 0.74948 0.0
H368 H 0.96409 0.50537 0.73929 0.0
H369 H 0.96702 0.45709 0.50398 0.0
H370 H 0.01473 0.53597 0.50327 0.0
H371 H 0.03448 0.57842 0.58372 0.0
H372 H 0.00644 0.54188 0.6653 0.0
C373 C 0.96972 0.4787 0.72941 0.0
C374 C 0.95072 0.45385 0.68116 0.0
C375 C 0.96674 0.47568 0.63345 0.0
C376 C 0.95511 0.45114 0.58703 0.0
C377 C 0.97349 0.4738 0.54036 0.0
C378 C 0.00134 0.51925 0.53937 0.0
C379 C 0.01248 0.54315 0.58462 0.0
C380 C -0.00411 0.52174 0.63121 0.0
H381 H 0.88457 0.39984 0.50157 0.0
C382 C 0.89911 0.3792 0.50045 0.0
H383 H 0.93446 0.35634 0.54163 0.0
H384 H 0.9104 0.40346 0.76526 0.0
H385 H 0.85979 0.32438 0.76647 0.0
H386 H 0.83918 0.28152 0.68621 0.0
H387 H 0.86894 0.31732 0.60424 0.0
C388 C 0.92058 0.37764 0.54165 0.0
C389 C 0.92703 0.4047 0.58845 0.0
C390 C 0.90902 0.38341 0.63595 0.0
C391 C 0.92083 0.40804 0.6823 0.0
C392 C 0.90264 0.386 0.72915 0.0
C393 C 0.87351 0.34077 0.7303 0.0
C394 C 0.86191 0.31663 0.68509 0.0
C395 C 0.87934 0.33752 0.63835 0.0
H396 H 0.45564 0.88645 0.68002 0.0
C397 C 0.48953 0.9121 0.68144 0.0
H398 H 0.53898 0.96204 0.726 0.0
H399 H 0.39949 0.99023 0.84918 0.0
H400 H 0.38957 0.01847 0.76955 0.0
H401 H 0.41912 0.00789 0.68837 0.0
H402 H 0.45912 0.96904 0.68675 0.0
C403 C 0.50484 0.93719 0.72364 0.0
C404 C 0.47695 0.93286 0.76875 0.0
C405 C 0.45277 0.95474 0.769 0.0
C406 C 0.43526 0.9603 0.81588 0.0
C407 C 0.41299 0.98416 0.81505 0.0
C408 C 0.4071 0.00077 0.7694 0.0
C409 C 0.42374 0.99484 0.72372 0.0
C410 C 0.44666 0.97246 0.72334 0.0
H411 H 0.50027 0.9909 0.93126 0.0
C412 C 0.46937 0.98869 0.93987 0.0
H413 H 0.40432 0.95968 0.91876 0.0
H414 H 0.51411 0.88205 0.77938 0.0
H415 H 0.51822 0.84722 0.85787 0.0
H416 H 0.48636 0.85527 0.93871 0.0
H417 H 0.45046 0.89856 0.9417 0.0
C418 C 0.43468 0.96016 0.91257 0.0
C419 C 0.44198 0.94379 0.86248 0.0
C420 C 0.46163 0.91743 0.8609 0.0
C421 C 0.47951 0.91234 0.81412 0.0
C422 C 0.50016 0.88701 0.81401 0.0
C423 C 0.50256 0.86675 0.85867 0.0
C424 C 0.48463 0.8713 0.90422 0.0
C425 C 0.46438 0.89635 0.90554 0.0
H426 H 0.45071 0.46853 0.05066 0.0
C427 C 0.42741 0.47647 0.03499 0.0
H428 H 0.39801 0.48395 0.96995 0.0
H429 H 0.57018 0.56404 0.83941 0.0
H430 H 0.54271 0.61309 0.82242 0.0
H431 H 0.47512 0.60109 0.86358 0.0
H432 H 0.43426 0.53969 0.92075 0.0
C433 C 0.42189 0.47631 0.98421 0.0
C434 C 0.45478 0.47658 0.94849 0.0
C435 C 0.47808 0.51301 0.9149 0.0
C436 C 0.51749 0.5205 0.89201 0.0
C437 C 0.54031 0.55701 0.85846 0.0
C438 C 0.52492 0.5855 0.84827 0.0
C439 C 0.48686 0.57871 0.87139 0.0
C440 C 0.4637 0.54314 0.90445 0.0
H441 H 0.55023 0.45429 0.82549 0.0
C442 C 0.5788 0.48414 0.83852 0.0
H443 H 0.60416 0.53396 0.89445 0.0
H444 H 0.40991 0.39592 0.99469 0.0
H445 H 0.43679 0.34564 0.00991 0.0
H446 H 0.50954 0.36378 0.98109 0.0
H447 H 0.55502 0.43076 0.9314 0.0
C448 C 0.57663 0.5028 0.88248 0.0
C449 C 0.53368 0.49204 0.90341 0.0
C450 C 0.50864 0.45382 0.93339 0.0
C451 C 0.46814 0.4451 0.95405 0.0
C452 C 0.44204 0.4051 0.98068 0.0
C453 C 0.45692 0.37599 0.98952 0.0
C454 C 0.49787 0.38604 0.97255 0.0
C455 C 0.52351 0.42438 0.94433 0.0
H456 H 0.07997 0.58406 0.99068 0.0
C457 C 0.04852 0.57204 0.97311 0.0
H458 H 0.9812 0.52742 0.97874 0.0
H459 H -0.00949 0.39622 0.13204 0.0
H460 H -0.00422 0.36222 0.05286 0.0
H461 H 0.00916 0.40107 0.97009 0.0
H462 H 0.01783 0.47426 0.96601 0.0
C463 C 0.01259 0.54114 -0.00302 0.0
C464 C 0.01415 0.52195 0.04688 0.0
C465 C 0.00878 0.47923 0.04828 0.0
C466 C 0.00046 0.45658 0.0957 0.0
C467 C -0.00417 0.41418 0.09655 0.0
C468 C -0.00093 0.39455 0.05154 0.0
C469 C 0.00666 0.41646 0.00494 0.0
C470 C 0.01137 0.4583 0.00306 0.0
H471 H 0.91584 0.41314 0.14383 0.0
C472 C 0.93085 0.4179 0.18115 0.0
H473 H 0.98723 0.4569 0.22403 0.0
H474 H 0.03117 0.60668 0.05821 0.0
H475 H 0.03262 0.64277 0.13826 0.0
H476 H 0.01817 0.60331 0.22065 0.0
H477 H 0.00221 0.52755 0.22349 0.0
C478 C 0.97288 0.44832 0.18624 0.0
C479 C -0.00341 0.47638 0.14123 0.0
C480 C 0.00763 0.52116 0.14068 0.0
C481 C 0.01615 0.54398 0.09322 0.0
C482 C 0.02481 0.58796 0.09324 0.0
C483 C 0.02569 0.60903 0.1389 0.0
C484 C 0.01753 0.5868 0.1853 0.0
C485 C 0.00832 0.54328 0.18639 0.0
H486 H 0.39794 0.15668 0.87225 0.0
C487 C 0.42792 0.15655 0.86536 0.0
H488 H 0.48845 0.18554 0.82743 0.0
H489 H 0.44712 0.30632 0.68415 0.0
H490 H 0.39537 0.23941 0.64174 0.0
H491 H 0.37252 0.16668 0.67972 0.0
H492 H 0.40188 0.16076 0.76094 0.0
C493 C 0.45861 0.18625 0.83332 0.0
C494 C 0.46139 0.22844 0.81848 0.0
C495 C 0.44283 0.23176 0.77247 0.0
C496 C 0.45566 0.27401 0.75123 0.0
C497 C 0.43819 0.27571 0.70331 0.0
C498 C 0.40844 0.23732 0.67816 0.0
C499 C 0.39562 0.19636 0.69948 0.0
C500 C 0.41271 0.19341 0.74597 0.0
H501 H 0.57109 0.37857 0.76284 0.0
C502 C 0.54773 0.385 0.74442 0.0
H503 H 0.4827 0.36459 0.73091 0.0
H504 H 0.49944 0.23338 0.91051 0.0
H505 H 0.55053 0.29968 0.95507 0.0
H506 H 0.57065 0.37276 0.92085 0.0
H507 H 0.53771 0.37987 0.84349 0.0
C508 C 0.50481 0.35699 0.75047 0.0
C509 C 0.48676 0.31311 0.77684 0.0
C510 C 0.50205 0.30943 0.82564 0.0
C511 C 0.49003 0.26716 0.8458 0.0
C512 C 0.50777 0.26453 0.89308 0.0
C513 C 0.53692 0.30235 0.91933 0.0
C514 C 0.5481 0.3435 0.90011 0.0
C515 C 0.52976 0.34713 0.85491 0.0
H516 H 0.17503 0.64241 0.96212 0.0
C517 C 0.1738 0.61739 0.93648 0.0
H518 H 0.18713 0.56568 0.9267 0.0
H519 H 0.34517 0.65915 0.08137 0.0
H520 H 0.38048 0.71344 0.01452 0.0
H521 H 0.33932 0.71603 0.94072 0.0
H522 H 0.26237 0.66394 0.93351 0.0
C523 C 0.18999 0.59205 0.95122 0.0
C524 C 0.21185 0.59779 0.00098 0.0
C525 C 0.25648 0.62933 0.00547 0.0
C526 C 0.28005 0.62788 0.04825 0.0
C527 C 0.32518 0.65862 0.05035 0.0
C528 C 0.34606 0.69011 0.01203 0.0
C529 C 0.3229 0.69157 0.97048 0.0
C530 C 0.27871 0.66147 0.96686 0.0
H531 H 0.26011 0.52025 0.10176 0.0
C532 C 0.28496 0.54815 0.12272 0.0
H533 H 0.31063 0.61414 0.14419 0.0
H534 H 0.12534 0.53689 0.00703 0.0
H535 H 0.08847 0.48602 0.07756 0.0
H536 H 0.12798 0.48728 0.15457 0.0
H537 H 0.2061 0.53709 0.16022 0.0
C538 C 0.28504 0.58645 0.12364 0.0
C539 C 0.25862 0.59484 0.08646 0.0
C540 C 0.21301 0.56687 0.08481 0.0
C541 C 0.18971 0.56771 0.04144 0.0
C542 C 0.14452 0.53781 0.03936 0.0
C543 C 0.12288 0.50876 0.07968 0.0
C544 C 0.14534 0.50916 0.12294 0.0
C545 C 0.18998 0.53769 0.12563 0.0
H546 H 0.51812 0.18438 0.13053 0.0
C547 C 0.5353 0.17739 0.10078 0.0
H548 H 0.59243 0.17724 0.07933 0.0
H549 H 0.68544 0.32478 0.25794 0.0
H550 H 0.66299 0.36937 0.21251 0.0
H551 H 0.61166 0.33866 0.141 0.0
H552 H 0.58232 0.26296 0.11492 0.0
C553 C 0.57612 0.18603 0.10844 0.0
C554 C 0.59955 0.20225 0.15758 0.0
C555 C 0.61554 0.24637 0.17327 0.0
C556 C 0.64531 0.26402 0.21451 0.0
C557 C 0.6622 0.30893 0.22774 0.0
C558 C 0.64978 0.33523 0.20168 0.0
C559 C 0.62092 0.31797 0.16142 0.0
C560 C 0.60411 0.27422 0.14703 0.0
H561 H 0.73624 0.23955 0.24151 0.0
C562 C 0.73304 0.26004 0.27047 0.0
H563 H 0.69259 0.27892 0.30752 0.0
H564 H 0.57155 0.11512 0.14009 0.0
H565 H 0.59227 0.06922 0.18697 0.0
H566 H 0.64201 0.09911 0.26022 0.0
H567 H 0.67161 0.17519 0.28616 0.0
C568 C 0.69482 0.25829 0.27796 0.0
C569 C 0.65908 0.23741 0.23987 0.0
C570 C 0.64067 0.19241 0.22622 0.0
C571 C 0.61136 0.17502 0.18467 0.0
C572 C 0.59442 0.13025 0.17094 0.0
C573 C 0.60585 0.10343 0.19769 0.0
C574 C 0.63382 0.12024 0.2389 0.0
C575 C 0.65083 0.16405 0.25329 0.0
H576 H 0.54068 0.76551 0.45935 0.0
C577 C 0.5547 0.79908 0.44511 0.0
H578 H 0.57993 0.8397 0.38053 0.0
H579 H 0.54239 0.63933 0.30738 0.0
H580 H 0.60579 0.65487 0.35666 0.0
H581 H 0.64452 0.72295 0.40742 0.0
H582 H 0.62038 0.77651 0.4085 0.0
C583 C 0.5688 0.80707 0.39634 0.0
C584 C 0.55012 0.76935 0.35988 0.0
C585 C 0.56498 0.73886 0.3586 0.0
C586 C 0.54255 0.69955 0.32923 0.0
C587 C 0.5579 0.66949 0.32925 0.0
C588 C 0.59429 0.67802 0.35735 0.0
C589 C 0.61616 0.71643 0.3859 0.0
C590 C 0.60191 0.74672 0.38646 0.0
H591 H 0.52156 0.6647 0.21212 0.0
C592 C 0.4906 0.64027 0.22874 0.0
H593 H 0.44595 0.62618 0.28911 0.0
H594 H 0.51342 0.82169 0.35219 0.0
H595 H 0.45029 0.8062 0.30343 0.0
H596 H 0.41214 0.73865 0.25148 0.0
H597 H 0.43656 0.68566 0.24925 0.0
C598 C 0.47857 0.64813 0.27454 0.0
C599 C 0.50511 0.69081 0.30144 0.0
C600 C 0.49116 0.72208 0.30125 0.0
C601 C 0.51369 0.76141 0.33036 0.0
C602 C 0.4981 0.79141 0.3305 0.0
C603 C 0.46179 0.78301 0.30247 0.0
C604 C 0.44024 0.74492 0.27342 0.0
C605 C 0.45459 0.71472 0.27263 0.0
H606 H 0.83347 0.4168 0.46031 0.0
C607 C 0.85329 0.43952 0.43013 0.0
H608 H 0.88262 0.50353 0.40044 0.0
H609 H 0.71849 0.51595 0.46193 0.0
H610 H 0.73345 0.54249 0.37425 0.0
H611 H 0.79596 0.54785 0.32659 0.0
H612 H 0.84376 0.527 0.36609 0.0
C613 C 0.86253 0.48158 0.43094 0.0
C614 C 0.8362 0.49406 0.46399 0.0
C615 C 0.80972 0.50832 0.44037 0.0
C616 C 0.77376 0.5054 0.46775 0.0
C617 C 0.74641 0.51776 0.4429 0.0
C618 C 0.75458 0.53301 0.39256 0.0
C619 C 0.78973 0.53598 0.36574 0.0
C620 C 0.81694 0.52365 0.38902 0.0
H621 H 0.74748 0.54272 0.5716 0.0
C622 C 0.71969 0.50965 0.56879 0.0
H623 H 0.69644 0.44501 0.54149 0.0
H624 H 0.8895 0.47951 0.52466 0.0
H625 H 0.87619 0.45598 0.61418 0.0
H626 H 0.81114 0.44621 0.65989 0.0
H627 H 0.76041 0.46257 0.61801 0.0
C628 C 0.72355 0.47857 0.5437 0.0
C629 C 0.76493 0.48888 0.51848 0.0
C630 C 0.79438 0.47987 0.54397 0.0
C631 C 0.83076 0.48353 0.51694 0.0
C632 C 0.86052 0.47554 0.54333 0.0
C633 C 0.85344 0.46241 0.59454 0.0
C634 C 0.81694 0.45722 0.62046 0.0
C635 C 0.78787 0.46629 0.59586 0.0
H636 H 0.39184 0.80778 0.61657 0.0
C637 C 0.39371 0.82716 0.58328 0.0
H638 H 0.36491 0.85605 0.54037 0.0
H639 H 0.17701 0.6984 0.59098 0.0
H640 H 0.17733 0.70286 0.49809 0.0
H641 H 0.24278 0.75769 0.45113 0.0
H642 H 0.30802 0.80828 0.49648 0.0
C643 C 0.3618 0.83568 0.57317 0.0
C644 C 0.31965 0.81228 0.60101 0.0
C645 C 0.28144 0.78409 0.5734 0.0
C646 C 0.24377 0.75237 0.60024 0.0
C647 C 0.20645 0.7231 0.57221 0.0
C648 C 0.20621 0.72533 0.51896 0.0
C649 C 0.24306 0.75622 0.49254 0.0
C650 C 0.28039 0.78515 0.51917 0.0
H651 H 0.16392 0.72502 0.68888 0.0
C652 C 0.17395 0.70112 0.69659 0.0
H653 H 0.2237 0.68549 0.68985 0.0
H654 H 0.38184 0.8721 0.6648 0.0
H655 H 0.38 0.86952 0.75826 0.0
H656 H 0.31625 0.81164 0.80466 0.0
H657 H 0.25348 0.75632 0.75818 0.0
C658 C 0.21274 0.70833 0.68028 0.0
C659 C 0.24481 0.74915 0.65409 0.0
C660 C 0.28097 0.78088 0.68188 0.0
C661 C 0.3182 0.8133 0.65523 0.0
C662 C 0.35356 0.84563 0.6836 0.0
C663 C 0.35272 0.84476 0.73701 0.0
C664 C 0.31679 0.81208 0.76318 0.0
C665 C 0.28114 0.78044 0.73612 0.0
loop_
_geom_bond_atom_site_label_1
_geom_bond_atom_site_label_2
_geom_bond_distance
_geom_bond_site_symmetry_2
_ccdc_geom_bond_type
Zn0 O6 1.924 . S
Zn0 O12 1.898 . S
Zn0 O15 1.905 . S
Zn1 O9 1.905 . S
Zn1 O10 1.898 . S
Zn1 O18 1.920 . S
Zn2 O5 2.080 . S
Zn2 O8 2.114 1_554 S
Zn2 O11 2.120 . S
Zn2 O13 2.120 1_554 S
Zn2 O14 2.114 1_554 S
Zn2 O17 2.080 . S
C3 O8 1.166 . S
C3 O9 1.182 1_556 S
C4 O10 1.167 . S
C4 O11 1.299 . S
O5 Zn2 2.080 . S
O5 C19 1.305 . S
O6 Zn0 1.924 . S
O6 C19 1.230 1_556 S
C7 O12 1.167 . S
C7 O13 1.299 . S
O8 Zn2 2.114 1_556 S
O8 C3 1.166 . S
O9 Zn1 1.905 . S
O9 C3 1.182 1_554 S
O10 Zn1 1.898 . S
O10 C4 1.167 . S
O11 Zn2 2.120 . S
O11 C4 1.299 . S
O12 Zn0 1.898 . S
O12 C7 1.167 . S
O13 Zn2 2.120 1_556 S
O13 C7 1.299 . S
O14 Zn2 2.114 1_556 S
O14 C16 1.166 . S
O15 Zn0 1.905 . S
O15 C16 1.182 . S
C16 O14 1.166 . S
C16 O15 1.182 . S
O17 Zn2 2.080 . S
O17 C20 1.305 . S
O18 Zn1 1.920 . S
O18 C20 1.234 . S
C19 O5 1.305 . S
C19 O6 1.230 1_554 S
C20 O17 1.305 . S
C20 O18 1.234 . S
Zn21 O27 1.920 . S
Zn21 O33 1.898 . S
Zn21 O36 1.905 . S
Zn22 O30 1.905 . S
Zn22 O31 1.898 . S
Zn22 O39 1.920 . S
Zn23 O26 2.080 . S
Zn23 O29 2.114 . S
Zn23 O32 2.120 . S
Zn23 O34 2.120 . S
Zn23 O35 2.114 . S
Zn23 O38 2.080 . S
C24 O29 1.166 . S
C24 O30 1.182 . S
C25 O31 1.167 . S
C25 O32 1.299 . S
O26 Zn23 2.080 . S
O26 C40 1.305 . S
O27 Zn21 1.920 . S
O27 C40 1.234 . S
C28 O33 1.167 . S
C28 O34 1.299 . S
O29 Zn23 2.114 . S
O29 C24 1.166 . S
O30 Zn22 1.905 . S
O30 C24 1.182 . S
O31 Zn22 1.898 . S
O31 C25 1.167 . S
O32 Zn23 2.120 . S
O32 C25 1.299 . S
O33 Zn21 1.898 . S
O33 C28 1.167 . S
O34 Zn23 2.120 . S
O34 C28 1.299 . S
O35 Zn23 2.114 . S
O35 C37 1.166 . S
O36 Zn21 1.905 . S
O36 C37 1.182 . S
C37 O35 1.166 . S
C37 O36 1.182 . S
O38 Zn23 2.080 . S
O38 C41 1.305 . S
O39 Zn22 1.920 . S
O39 C41 1.234 . S
C40 O26 1.305 . S
C40 O27 1.234 . S
C41 O38 1.305 . S
C41 O39 1.234 . S
Zn42 O48 1.920 . S
Zn42 O54 1.898 . S
Zn42 O57 1.905 . S
Zn43 O51 1.905 . S
Zn43 O52 1.898 . S
Zn43 O60 1.920 . S
Zn44 O47 2.080 . S
Zn44 O50 2.114 . S
Zn44 O53 2.120 . S
Zn44 O55 2.120 . S
Zn44 O56 2.114 . S
Zn44 O59 2.080 . S
C45 O50 1.166 . S
C45 O51 1.182 . S
C46 O52 1.167 . S
C46 O53 1.299 . S
O47 Zn44 2.080 . S
O47 C61 1.305 . S
O48 Zn42 1.920 . S
O48 C61 1.234 . S
C49 O54 1.167 . S
C49 O55 1.299 . S
O50 Zn44 2.114 . S
O50 C45 1.166 . S
O51 Zn43 1.905 . S
O51 C45 1.182 . S
O52 Zn43 1.898 . S
O52 C46 1.167 . S
O53 Zn44 2.120 . S
O53 C46 1.299 . S
O54 Zn42 1.898 . S
O54 C49 1.167 . S
O55 Zn44 2.120 . S
O55 C49 1.299 . S
O56 Zn44 2.114 . S
O56 C58 1.166 . S
O57 Zn42 1.905 . S
O57 C58 1.182 . S
C58 O56 1.166 . S
C58 O57 1.182 . S
O59 Zn44 2.080 . S
O59 C62 1.305 . S
O60 Zn43 1.920 . S
O60 C62 1.234 . S
C61 O47 1.305 . S
C61 O48 1.234 . S
C62 O59 1.305 . S
C62 O60 1.234 . S
Zn63 O69 1.920 . S
Zn63 O75 1.898 . S
Zn63 O78 1.905 . S
Zn64 O72 1.905 . S
Zn64 O73 1.898 . S
Zn64 O81 1.920 . S
Zn65 O68 2.080 . S
Zn65 O71 2.114 . S
Zn65 O74 2.120 . S
Zn65 O76 2.120 . S
Zn65 O77 2.114 . S
Zn65 O80 2.080 . S
C66 O71 1.166 . S
C66 O72 1.182 . S
C67 O73 1.167 . S
C67 O74 1.299 . S
O68 Zn65 2.080 . S
O68 C82 1.305 . S
O69 Zn63 1.920 . S
O69 C82 1.234 . S
C70 O75 1.167 . S
C70 O76 1.299 . S
O71 Zn65 2.114 . S
O71 C66 1.166 . S
O72 Zn64 1.905 . S
O72 C66 1.182 . S
O73 Zn64 1.898 . S
O73 C67 1.167 . S
O74 Zn65 2.120 . S
O74 C67 1.299 . S
O75 Zn63 1.898 . S
O75 C70 1.167 . S
O76 Zn65 2.120 . S
O76 C70 1.299 . S
O77 Zn65 2.114 . S
O77 C79 1.166 . S
O78 Zn63 1.905 . S
O78 C79 1.182 . S
C79 O77 1.166 . S
C79 O78 1.182 . S
O80 Zn65 2.080 . S
O80 C83 1.305 . S
O81 Zn64 1.920 . S
O81 C83 1.234 . S
C82 O68 1.305 . S
C82 O69 1.234 . S
C83 O80 1.305 . S
C83 O81 1.234 . S
Zn84 O90 1.920 . S
Zn84 O96 1.898 . S
Zn84 O99 1.905 . S
Zn85 O93 1.905 . S
Zn85 O94 1.898 . S
Zn85 O102 1.920 . S
Zn86 O89 2.080 . S
Zn86 O92 2.114 . S
Zn86 O95 2.120 . S
Zn86 O97 2.120 . S
Zn86 O98 2.114 . S
Zn86 O101 2.080 . S
C87 O92 1.166 . S
C87 O93 1.182 . S
C88 O94 1.167 . S
C88 O95 1.299 . S
O89 Zn86 2.080 . S
O89 C103 1.305 . S
O90 Zn84 1.920 . S
O90 C103 1.234 . S
C91 O96 1.167 . S
C91 O97 1.299 . S
O92 Zn86 2.114 . S
O92 C87 1.166 . S
O93 Zn85 1.905 . S
O93 C87 1.182 . S
O94 Zn85 1.898 . S
O94 C88 1.167 . S
O95 Zn86 2.120 . S
O95 C88 1.299 . S
O96 Zn84 1.898 . S
O96 C91 1.167 . S
O97 Zn86 2.120 . S
O97 C91 1.299 . S
O98 Zn86 2.114 . S
O98 C100 1.166 . S
O99 Zn84 1.905 . S
O99 C100 1.182 . S
C100 O98 1.166 . S
C100 O99 1.182 . S
O101 Zn86 2.080 . S
O101 C104 1.305 . S
O102 Zn85 1.920 . S
O102 C104 1.234 . S
C103 O89 1.305 . S
C103 O90 1.234 . S
C104 O101 1.305 . S
C104 O102 1.234 . S
Zn105 O111 1.920 . S
Zn105 O117 1.898 . S
Zn105 O120 1.905 . S
Zn106 O114 1.905 . S
Zn106 O115 1.898 . S
Zn106 O123 1.920 . S
Zn107 O110 2.080 . S
Zn107 O113 2.114 . S
Zn107 O116 2.120 . S
Zn107 O118 2.120 . S
Zn107 O119 2.114 . S
Zn107 O122 2.080 . S
C108 O113 1.166 . S
C108 O114 1.182 . S
C109 O115 1.167 . S
C109 O116 1.299 . S
O110 Zn107 2.080 . S
O110 C124 1.305 . S
O111 Zn105 1.920 . S
O111 C124 1.234 . S
C112 O117 1.167 . S
C112 O118 1.299 . S
O113 Zn107 2.114 . S
O113 C108 1.166 . S
O114 Zn106 1.905 . S
O114 C108 1.182 . S
O115 Zn106 1.898 . S
O115 C109 1.167 . S
O116 Zn107 2.120 . S
O116 C109 1.299 . S
O117 Zn105 1.898 . S
O117 C112 1.167 . S
O118 Zn107 2.120 . S
O118 C112 1.299 . S
O119 Zn107 2.114 . S
O119 C121 1.166 . S
O120 Zn105 1.905 . S
O120 C121 1.182 . S
C121 O119 1.166 . S
C121 O120 1.182 . S
O122 Zn107 2.080 . S
O122 C125 1.305 . S
O123 Zn106 1.920 . S
O123 C125 1.234 . S
C124 O110 1.305 . S
C124 O111 1.234 . S
C125 O122 1.305 . S
C125 O123 1.234 . S
H126 C127 0.951 . S
C127 H126 0.951 . S
C127 C133 1.265 1_545 S
H128 C133 0.950 1_554 S
H129 C137 0.949 . S
H130 C138 0.950 . S
H131 C139 0.951 . S
H132 C140 0.951 . S
C133 C127 1.265 1_565 S
C133 H128 0.950 1_556 S
C133 C134 1.478 . S
C134 C133 1.478 . S
C134 C135 1.397 . S
C134 C151 1.394 . S
C135 C134 1.397 . S
C135 C136 1.438 . S
C135 C140 1.429 1_556 S
C136 C135 1.438 . S
C136 C137 1.428 . S
C136 C149 1.394 . S
C137 H129 0.949 . S
C137 C136 1.428 . S
C137 C138 1.345 1_556 S
C138 H130 0.950 . S
C138 C137 1.345 1_554 S
C138 C139 1.424 . S
C139 H131 0.951 . S
C139 C138 1.424 . S
C139 C140 1.347 . S
C140 H132 0.951 . S
C140 C135 1.429 1_554 S
C140 C139 1.347 . S
H141 C142 0.951 . S
C142 H141 0.951 . S
C142 C148 1.265 . S
H143 C148 0.950 . S
H144 C152 0.949 . S
H145 C153 0.950 . S
H146 C154 0.951 . S
H147 C155 0.951 . S
C148 C142 1.265 . S
C148 H143 0.950 . S
C148 C149 1.478 . S
C149 C136 1.394 . S
C149 C148 1.478 . S
C149 C150 1.397 . S
C150 C149 1.397 . S
C150 C151 1.438 . S
C150 C155 1.429 . S
C151 C134 1.394 . S
C151 C150 1.438 . S
C151 C152 1.428 . S
C152 H144 0.949 . S
C152 C151 1.428 . S
C152 C153 1.345 . S
C153 H145 0.950 . S
C153 C152 1.345 . S
C153 C154 1.424 . S
C154 H146 0.951 . S
C154 C153 1.424 . S
C154 C155 1.347 . S
C155 H147 0.951 . S
C155 C150 1.429 . S
C155 C154 1.347 . S
H156 C157 0.951 . S
C157 H156 0.951 . S
C157 C163 1.265 . S
H158 C163 0.950 . S
H159 C167 0.949 . S
H160 C168 0.950 . S
H161 C169 0.951 1_556 S
H162 C170 0.951 . S
C163 C157 1.265 . S
C163 H158 0.950 . S
C163 C164 1.478 . S
C164 C163 1.478 . S
C164 C165 1.397 . S
C164 C181 1.394 . S
C165 C164 1.397 . S
C165 C166 1.438 . S
C165 C170 1.429 . S
C166 C165 1.438 . S
C166 C167 1.428 . S
C166 C179 1.394 . S
C167 H159 0.949 . S
C167 C166 1.428 . S
C167 C168 1.345 1_554 S
C168 H160 0.950 . S
C168 C167 1.345 1_556 S
C168 C169 1.424 1_556 S
C169 H161 0.951 1_554 S
C169 C168 1.424 1_554 S
C169 C170 1.347 . S
C170 H162 0.951 . S
C170 C165 1.429 . S
C170 C169 1.347 . S
H171 C172 0.951 . S
C172 H171 0.951 . S
C172 C178 1.265 . S
H173 C178 0.950 . S
H174 C182 0.949 . S
H175 C183 0.950 . S
H176 C184 0.951 . S
H177 C185 0.951 . S
C178 C172 1.265 . S
C178 H173 0.950 . S
C178 C179 1.478 . S
C179 C166 1.394 . S
C179 C178 1.478 . S
C179 C180 1.397 . S
C180 C179 1.397 . S
C180 C181 1.438 . S
C180 C185 1.429 . S
C181 C164 1.394 . S
C181 C180 1.438 . S
C181 C182 1.428 . S
C182 H174 0.949 . S
C182 C181 1.428 . S
C182 C183 1.345 . S
C183 H175 0.950 . S
C183 C182 1.345 . S
C183 C184 1.424 . S
C184 H176 0.951 . S
C184 C183 1.424 . S
C184 C185 1.347 . S
C185 H177 0.951 . S
C185 C180 1.429 . S
C185 C184 1.347 . S
H186 C187 0.951 . S
C187 H186 0.951 . S
C187 C193 1.265 1_655 S
H188 C193 0.950 . S
H189 C197 0.949 . S
H190 C198 0.950 . S
H191 C199 0.951 . S
H192 C200 0.951 . S
C193 C187 1.265 1_455 S
C193 H188 0.950 . S
C193 C194 1.478 . S
C194 C193 1.478 . S
C194 C195 1.397 . S
C194 C211 1.394 . S
C195 C194 1.397 . S
C195 C196 1.438 . S
C195 C200 1.429 . S
C196 C195 1.438 . S
C196 C197 1.428 . S
C196 C209 1.394 . S
C197 H189 0.949 . S
C197 C196 1.428 . S
C197 C198 1.345 . S
C198 H190 0.950 . S
C198 C197 1.345 . S
C198 C199 1.424 . S
C199 H191 0.951 . S
C199 C198 1.424 . S
C199 C200 1.347 . S
C200 H192 0.951 . S
C200 C195 1.429 . S
C200 C199 1.347 . S
H201 C202 0.951 . S
C202 H201 0.951 . S
C202 C208 1.265 . S
H203 C208 0.950 . S
H204 C212 0.949 . S
H205 C213 0.950 . S
H206 C214 0.951 . S
H207 C215 0.951 . S
C208 C202 1.265 . S
C208 H203 0.950 . S
C208 C209 1.478 . S
C209 C196 1.394 . S
C209 C208 1.478 . S
C209 C210 1.397 . S
C210 C209 1.397 . S
C210 C211 1.438 . S
C210 C215 1.429 . S
C211 C194 1.394 . S
C211 C210 1.438 . S
C211 C212 1.428 . S
C212 H204 0.949 . S
C212 C211 1.428 . S
C212 C213 1.345 . S
C213 H205 0.950 . S
C213 C212 1.345 . S
C213 C214 1.424 . S
C214 H206 0.951 . S
C214 C213 1.424 . S
C214 C215 1.347 . S
C215 H207 0.951 . S
C215 C210 1.429 . S
C215 C214 1.347 . S
H216 C217 0.951 . S
C217 H216 0.951 . S
C217 C223 1.265 . S
H218 C223 0.950 . S
H219 C227 0.949 . S
H220 C228 0.950 . S
H221 C229 0.951 . S
H222 C230 0.951 . S
C223 C217 1.265 . S
C223 H218 0.950 . S
C223 C224 1.478 . S
C224 C223 1.478 . S
C224 C225 1.397 . S
C224 C241 1.394 . S
C225 C224 1.397 . S
C225 C226 1.438 . S
C225 C230 1.429 . S
C226 C225 1.438 . S
C226 C227 1.428 . S
C226 C239 1.394 . S
C227 H219 0.949 . S
C227 C226 1.428 . S
C227 C228 1.345 . S
C228 H220 0.950 . S
C228 C227 1.345 . S
C228 C229 1.424 . S
C229 H221 0.951 . S
C229 C228 1.424 . S
C229 C230 1.347 . S
C230 H222 0.951 . S
C230 C225 1.429 . S
C230 C229 1.347 . S
H231 C232 0.951 1_545 S
C232 H231 0.951 1_565 S
C232 C238 1.265 1_565 S
H233 C238 0.947 1_565 S
H234 C242 0.949 . S
H235 C243 0.950 . S
H236 C244 0.951 . S
H237 C245 0.951 . S
C238 C232 1.265 1_545 S
C238 H233 0.947 1_545 S
C238 C239 1.478 . S
C239 C226 1.394 . S
C239 C238 1.478 . S
C239 C240 1.397 . S
C240 C239 1.397 . S
C240 C241 1.438 . S
C240 C245 1.429 . S
C241 C224 1.394 . S
C241 C240 1.438 . S
C241 C242 1.428 . S
C242 H234 0.949 . S
C242 C241 1.428 . S
C242 C243 1.345 . S
C243 H235 0.950 . S
C243 C242 1.345 . S
C243 C244 1.424 . S
C244 H236 0.951 . S
C244 C243 1.424 . S
C244 C245 1.347 . S
C245 H237 0.951 . S
C245 C240 1.429 . S
C245 C244 1.347 . S
H246 C247 0.951 . S
C247 H246 0.951 . S
C247 C253 1.265 . S
H248 C253 0.950 . S
H249 C257 0.949 . S
H250 C258 0.950 . S
H251 C259 0.951 . S
H252 C260 0.951 . S
C253 C247 1.265 . S
C253 H248 0.950 . S
C253 C254 1.478 . S
C254 C253 1.478 . S
C254 C255 1.397 . S
C254 C271 1.394 . S
C255 C254 1.397 . S
C255 C256 1.438 . S
C255 C260 1.429 . S
C256 C255 1.438 . S
C256 C257 1.428 . S
C256 C269 1.394 . S
C257 H249 0.949 . S
C257 C256 1.428 . S
C257 C258 1.345 . S
C258 H250 0.950 . S
C258 C257 1.345 . S
C258 C259 1.424 . S
C259 H251 0.951 . S
C259 C258 1.424 . S
C259 C260 1.347 . S
C260 H252 0.951 . S
C260 C255 1.429 . S
C260 C259 1.347 . S
H261 C262 0.951 . S
C262 H261 0.951 . S
C262 C268 1.265 . S
H263 C268 0.950 . S
H264 C272 0.949 . S
H265 C273 0.950 . S
H266 C274 0.951 . S
H267 C275 0.951 . S
C268 C262 1.265 . S
C268 H263 0.950 . S
C268 C269 1.478 . S
C269 C256 1.394 . S
C269 C268 1.478 . S
C269 C270 1.397 . S
C270 C269 1.397 . S
C270 C271 1.438 . S
C270 C275 1.429 . S
C271 C254 1.394 . S
C271 C270 1.438 . S
C271 C272 1.428 . S
C272 H264 0.949 . S
C272 C271 1.428 . S
C272 C273 1.345 . S
C273 H265 0.950 . S
C273 C272 1.345 . S
C273 C274 1.424 . S
C274 H266 0.951 . S
C274 C273 1.424 . S
C274 C275 1.347 . S
C275 H267 0.951 . S
C275 C270 1.429 . S
C275 C274 1.347 . S
H276 C277 0.951 . S
C277 H276 0.951 . S
C277 C283 1.265 1_455 S
H278 C283 0.950 . S
H279 C287 0.949 . S
H280 C288 0.950 . S
H281 C289 0.951 . S
H282 C290 0.951 . S
C283 C277 1.265 1_655 S
C283 H278 0.950 . S
C283 C284 1.478 . S
C284 C283 1.478 . S
C284 C285 1.397 . S
C284 C301 1.394 . S
C285 C284 1.397 . S
C285 C286 1.438 . S
C285 C290 1.429 . S
C286 C285 1.438 . S
C286 C287 1.428 . S
C286 C299 1.394 . S
C287 H279 0.949 . S
C287 C286 1.428 . S
C287 C288 1.345 . S
C288 H280 0.950 . S
C288 C287 1.345 . S
C288 C289 1.424 . S
C289 H281 0.951 . S
C289 C288 1.424 . S
C289 C290 1.347 . S
C290 H282 0.951 . S
C290 C285 1.429 . S
C290 C289 1.347 . S
H291 C292 0.951 . S
C292 H291 0.951 . S
C292 C298 1.265 . S
H293 C298 0.950 . S
H294 C302 0.949 . S
H295 C303 0.950 . S
H296 C304 0.951 . S
H297 C305 0.951 . S
C298 C292 1.265 . S
C298 H293 0.950 . S
C298 C299 1.478 . S
C299 C286 1.394 . S
C299 C298 1.478 . S
C299 C300 1.397 . S
C300 C299 1.397 . S
C300 C301 1.438 . S
C300 C305 1.429 . S
C301 C284 1.394 . S
C301 C300 1.438 . S
C301 C302 1.428 . S
C302 H294 0.949 . S
C302 C301 1.428 . S
C302 C303 1.345 . S
C303 H295 0.950 . S
C303 C302 1.345 . S
C303 C304 1.424 . S
C304 H296 0.951 . S
C304 C303 1.424 . S
C304 C305 1.347 . S
C305 H297 0.951 . S
C305 C300 1.429 . S
C305 C304 1.347 . S
H306 C307 0.951 . S
C307 H306 0.951 . S
C307 C313 1.265 . S
H308 C313 0.950 . S
H309 C317 0.949 . S
H310 C318 0.950 . S
H311 C319 0.951 . S
H312 C320 0.951 . S
C313 C307 1.265 . S
C313 H308 0.950 . S
C313 C314 1.478 . S
C314 C313 1.478 . S
C314 C315 1.397 1_545 S
C314 C331 1.394 . S
C315 C314 1.397 1_565 S
C315 C316 1.438 . S
C315 C320 1.429 . S
C316 C315 1.438 . S
C316 C317 1.428 . S
C316 C329 1.394 . S
C317 H309 0.949 . S
C317 C316 1.428 . S
C317 C318 1.345 . S
C318 H310 0.950 . S
C318 C317 1.345 . S
C318 C319 1.424 . S
C319 H311 0.951 . S
C319 C318 1.424 . S
C319 C320 1.347 . S
C320 H312 0.951 . S
C320 C315 1.429 . S
C320 C319 1.347 . S
H321 C322 0.951 . S
C322 H321 0.951 . S
C322 C328 1.265 . S
H323 C328 0.950 . S
H324 C332 0.949 . S
H325 C333 0.950 . S
H326 C334 0.951 . S
H327 C335 0.951 . S
C328 C322 1.265 . S
C328 H323 0.950 . S
C328 C329 1.478 . S
C329 C316 1.394 . S
C329 C328 1.478 . S
C329 C330 1.397 1_565 S
C330 C329 1.397 1_545 S
C330 C331 1.438 . S
C330 C335 1.429 . S
C331 C314 1.394 . S
C331 C330 1.438 . S
C331 C332 1.428 . S
C332 H324 0.949 . S
C332 C331 1.428 . S
C332 C333 1.345 . S
C333 H325 0.950 . S
C333 C332 1.345 . S
C333 C334 1.424 . S
C334 H326 0.951 . S
C334 C333 1.424 . S
C334 C335 1.347 . S
C335 H327 0.951 . S
C335 C330 1.429 . S
C335 C334 1.347 . S
H336 C337 0.951 . S
C337 H336 0.951 . S
C337 C343 1.265 . S
H338 C343 0.950 . S
H339 C347 0.949 . S
H340 C348 0.950 . S
H341 C349 0.951 . S
H342 C350 0.951 . S
C343 C337 1.265 . S
C343 H338 0.950 . S
C343 C344 1.478 . S
C344 C343 1.478 . S
C344 C345 1.397 . S
C344 C361 1.394 . S
C345 C344 1.397 . S
C345 C346 1.438 . S
C345 C350 1.429 . S
C346 C345 1.438 . S
C346 C347 1.428 . S
C346 C359 1.394 . S
C347 H339 0.949 . S
C347 C346 1.428 . S
C347 C348 1.345 . S
C348 H340 0.950 . S
C348 C347 1.345 . S
C348 C349 1.424 . S
C349 H341 0.951 . S
C349 C348 1.424 . S
C349 C350 1.347 . S
C350 H342 0.951 . S
C350 C345 1.429 . S
C350 C349 1.347 . S
H351 C352 0.951 . S
C352 H351 0.951 . S
C352 C358 1.265 . S
H353 C358 0.950 . S
H354 C362 0.949 . S
H355 C363 0.950 . S
H356 C364 0.951 . S
H357 C365 0.951 . S
C358 C352 1.265 . S
C358 H353 0.950 . S
C358 C359 1.478 . S
C359 C346 1.394 . S
C359 C358 1.478 . S
C359 C360 1.397 . S
C360 C359 1.397 . S
C360 C361 1.438 . S
C360 C365 1.429 . S
C361 C344 1.394 . S
C361 C360 1.438 . S
C361 C362 1.428 . S
C362 H354 0.949 . S
C362 C361 1.428 . S
C362 C363 1.345 . S
C363 H355 0.950 . S
C363 C362 1.345 . S
C363 C364 1.424 . S
C364 H356 0.951 . S
C364 C363 1.424 . S
C364 C365 1.347 . S
C365 H357 0.951 . S
C365 C360 1.429 . S
C365 C364 1.347 . S
H366 C367 0.951 . S
C367 H366 0.951 . S
C367 C373 1.265 . S
H368 C373 0.950 1_655 S
H369 C377 0.949 . S
H370 C378 0.950 . S
H371 C379 0.951 . S
H372 C380 0.951 . S
C373 C367 1.265 . S
C373 H368 0.950 1_455 S
C373 C374 1.478 . S
C374 C373 1.478 . S
C374 C375 1.397 . S
C374 C391 1.394 . S
C375 C374 1.397 . S
C375 C376 1.438 1_455 S
C375 C380 1.429 . S
C376 C375 1.438 1_655 S
C376 C377 1.428 . S
C376 C389 1.394 . S
C377 H369 0.949 . S
C377 C376 1.428 . S
C377 C378 1.345 1_655 S
C378 H370 0.950 . S
C378 C377 1.345 1_455 S
C378 C379 1.424 . S
C379 H371 0.951 . S
C379 C378 1.424 . S
C379 C380 1.347 . S
C380 H372 0.951 . S
C380 C375 1.429 . S
C380 C379 1.347 . S
H381 C382 0.951 . S
C382 H381 0.951 . S
C382 C388 1.265 . S
H383 C388 0.950 1_455 S
H384 C392 0.949 . S
H385 C393 0.950 . S
H386 C394 0.951 . S
H387 C395 0.951 . S
C388 C382 1.265 . S
C388 H383 0.950 1_655 S
C388 C389 1.478 . S
C389 C376 1.394 . S
C389 C388 1.478 . S
C389 C390 1.397 . S
C390 C389 1.397 . S
C390 C391 1.438 1_655 S
C390 C395 1.429 . S
C391 C374 1.394 . S
C391 C390 1.438 1_455 S
C391 C392 1.428 . S
C392 H384 0.949 . S
C392 C391 1.428 . S
C392 C393 1.345 . S
C393 H385 0.950 . S
C393 C392 1.345 . S
C393 C394 1.424 1_455 S
C394 H386 0.951 . S
C394 C393 1.424 1_655 S
C394 C395 1.347 . S
C395 H387 0.951 . S
C395 C390 1.429 . S
C395 C394 1.347 . S
H396 C397 0.951 . S
C397 H396 0.951 . S
C397 C403 1.265 . S
H398 C403 0.950 . S
H399 C407 0.949 . S
H400 C408 0.950 . S
H401 C409 0.951 . S
H402 C410 0.951 . S
C403 C397 1.265 . S
C403 H398 0.950 . S
C403 C404 1.478 . S
C404 C403 1.478 . S
C404 C405 1.397 1_565 S
C404 C421 1.394 . S
C405 C404 1.397 1_545 S
C405 C406 1.438 . S
C405 C410 1.429 . S
C406 C405 1.438 . S
C406 C407 1.428 . S
C406 C419 1.394 . S
C407 H399 0.949 . S
C407 C406 1.428 . S
C407 C408 1.345 . S
C408 H400 0.950 . S
C408 C407 1.345 . S
C408 C409 1.424 . S
C409 H401 0.951 . S
C409 C408 1.424 . S
C409 C410 1.347 . S
C410 H402 0.951 . S
C410 C405 1.429 . S
C410 C409 1.347 . S
H411 C412 0.951 . S
C412 H411 0.951 . S
C412 C418 1.265 . S
H413 C418 0.950 . S
H414 C422 0.949 . S
H415 C423 0.950 . S
H416 C424 0.951 . S
H417 C425 0.951 . S
C418 C412 1.265 . S
C418 H413 0.950 . S
C418 C419 1.478 . S
C419 C406 1.394 . S
C419 C418 1.478 . S
C419 C420 1.397 1_545 S
C420 C419 1.397 1_565 S
C420 C421 1.438 . S
C420 C425 1.429 . S
C421 C404 1.394 . S
C421 C420 1.438 . S
C421 C422 1.428 . S
C422 H414 0.949 . S
C422 C421 1.428 . S
C422 C423 1.345 . S
C423 H415 0.950 . S
C423 C422 1.345 . S
C423 C424 1.424 . S
C424 H416 0.951 . S
C424 C423 1.424 . S
C424 C425 1.347 . S
C425 H417 0.951 . S
C425 C420 1.429 . S
C425 C424 1.347 . S
H426 C427 0.951 . S
C427 H426 0.951 . S
C427 C433 1.265 . S
H428 C433 0.948 1_556 S
H429 C437 0.949 . S
H430 C438 0.950 . S
H431 C439 0.951 . S
H432 C440 0.951 . S
C433 C427 1.265 . S
C433 H428 0.948 1_554 S
C433 C434 1.478 1_554 S
C434 C433 1.478 1_556 S
C434 C435 1.397 . S
C434 C451 1.394 . S
C435 C434 1.397 . S
C435 C436 1.438 . S
C435 C440 1.429 . S
C436 C435 1.438 . S
C436 C437 1.428 . S
C436 C449 1.394 . S
C437 H429 0.949 . S
C437 C436 1.428 . S
C437 C438 1.345 . S
C438 H430 0.950 . S
C438 C437 1.345 . S
C438 C439 1.424 . S
C439 H431 0.951 . S
C439 C438 1.424 . S
C439 C440 1.347 . S
C440 H432 0.951 . S
C440 C435 1.429 . S
C440 C439 1.347 . S
H441 C442 0.951 . S
C442 H441 0.951 . S
C442 C448 1.265 . S
H443 C448 0.950 . S
H444 C452 0.949 1_554 S
H445 C453 0.950 . S
H446 C454 0.951 . S
H447 C455 0.951 . S
C448 C442 1.265 . S
C448 H443 0.950 . S
C448 C449 1.478 . S
C449 C436 1.394 . S
C449 C448 1.478 . S
C449 C450 1.397 . S
C450 C449 1.397 . S
C450 C451 1.438 . S
C450 C455 1.429 . S
C451 C434 1.394 . S
C451 C450 1.438 . S
C451 C452 1.428 . S
C452 H444 0.949 1_556 S
C452 C451 1.428 . S
C452 C453 1.345 . S
C453 H445 0.950 . S
C453 C452 1.345 . S
C453 C454 1.424 . S
C454 H446 0.951 . S
C454 C453 1.424 . S
C454 C455 1.347 . S
C455 H447 0.951 . S
C455 C450 1.429 . S
C455 C454 1.347 . S
H456 C457 0.951 1_554 S
C457 H456 0.951 1_556 S
C457 C463 1.265 1_556 S
H458 C463 0.950 1_656 S
H459 C467 0.949 . S
H460 C468 0.950 . S
H461 C469 0.951 1_556 S
H462 C470 0.951 1_456 S
C463 C457 1.265 1_554 S
C463 H458 0.950 1_454 S
C463 C464 1.478 . S
C464 C463 1.478 . S
C464 C465 1.397 1_455 S
C464 C481 1.394 . S
C465 C464 1.397 1_655 S
C465 C466 1.438 . S
C465 C470 1.429 . S
C466 C465 1.438 . S
C466 C467 1.428 . S
C466 C479 1.394 . S
C467 H459 0.949 . S
C467 C466 1.428 . S
C467 C468 1.345 . S
C468 H460 0.950 . S
C468 C467 1.345 . S
C468 C469 1.424 . S
C469 H461 0.951 1_554 S
C469 C468 1.424 . S
C469 C470 1.347 . S
C470 H462 0.951 1_654 S
C470 C465 1.429 . S
C470 C469 1.347 . S
H471 C472 0.951 . S
C472 H471 0.951 . S
C472 C478 1.265 . S
H473 C478 0.950 1_455 S
H474 C482 0.949 . S
H475 C483 0.950 . S
H476 C484 0.951 . S
H477 C485 0.951 1_655 S
C478 C472 1.265 . S
C478 H473 0.950 1_655 S
C478 C479 1.478 . S
C479 C466 1.394 . S
C479 C478 1.478 . S
C479 C480 1.392 . S
C480 C479 1.392 . S
C480 C481 1.439 1_655 S
C480 C485 1.435 1_655 S
C481 C464 1.394 . S
C481 C480 1.439 1_455 S
C481 C482 1.428 . S
C482 H474 0.949 . S
C482 C481 1.428 . S
C482 C483 1.345 . S
C483 H475 0.950 . S
C483 C482 1.345 . S
C483 C484 1.424 . S
C484 H476 0.951 . S
C484 C483 1.424 . S
C484 C485 1.344 . S
C485 H477 0.951 1_455 S
C485 C480 1.435 1_455 S
C485 C484 1.344 . S
H486 C487 0.951 . S
C487 H486 0.951 . S
C487 C493 1.265 . S
H488 C493 0.950 . S
H489 C497 0.949 . S
H490 C498 0.950 . S
H491 C499 0.951 . S
H492 C500 0.951 . S
C493 C487 1.265 . S
C493 H488 0.950 . S
C493 C494 1.478 . S
C494 C493 1.478 . S
C494 C495 1.397 . S
C494 C511 1.394 . S
C495 C494 1.397 . S
C495 C496 1.438 . S
C495 C500 1.429 . S
C496 C495 1.438 . S
C496 C497 1.428 . S
C496 C509 1.394 . S
C497 H489 0.949 . S
C497 C496 1.428 . S
C497 C498 1.345 . S
C498 H490 0.950 . S
C498 C497 1.345 . S
C498 C499 1.424 . S
C499 H491 0.951 . S
C499 C498 1.424 . S
C499 C500 1.347 . S
C500 H492 0.951 . S
C500 C495 1.429 . S
C500 C499 1.347 . S
H501 C502 0.951 . S
C502 H501 0.951 . S
C502 C508 1.265 . S
H503 C508 0.950 . S
H504 C512 0.949 . S
H505 C513 0.950 . S
H506 C514 0.951 . S
H507 C515 0.951 . S
C508 C502 1.265 . S
C508 H503 0.950 . S
C508 C509 1.478 . S
C509 C496 1.394 . S
C509 C508 1.478 . S
C509 C510 1.397 . S
C510 C509 1.397 . S
C510 C511 1.438 . S
C510 C515 1.429 . S
C511 C494 1.394 . S
C511 C510 1.438 . S
C511 C512 1.428 . S
C512 H504 0.949 . S
C512 C511 1.428 . S
C512 C513 1.345 . S
C513 H505 0.950 . S
C513 C512 1.345 . S
C513 C514 1.424 . S
C514 H506 0.951 . S
C514 C513 1.424 . S
C514 C515 1.347 . S
C515 H507 0.951 . S
C515 C510 1.429 . S
C515 C514 1.347 . S
H516 C517 0.951 . S
C517 H516 0.951 . S
C517 C523 1.265 . S
H518 C523 0.950 . S
H519 C527 0.949 . S
H520 C528 0.950 . S
H521 C529 0.951 . S
H522 C530 0.951 . S
C523 C517 1.265 . S
C523 H518 0.950 . S
C523 C524 1.478 . S
C524 C523 1.478 . S
C524 C525 1.397 . S
C524 C541 1.394 . S
C525 C524 1.397 . S
C525 C526 1.438 1_556 S
C525 C530 1.429 . S
C526 C525 1.438 1_554 S
C526 C527 1.428 . S
C526 C539 1.394 . S
C527 H519 0.949 . S
C527 C526 1.428 . S
C527 C528 1.345 . S
C528 H520 0.950 . S
C528 C527 1.345 . S
C528 C529 1.424 . S
C529 H521 0.951 . S
C529 C528 1.424 . S
C529 C530 1.347 1_554 S
C530 H522 0.951 . S
C530 C525 1.429 . S
C530 C529 1.347 1_556 S
H531 C532 0.951 . S
C532 H531 0.951 . S
C532 C538 1.265 . S
H533 C538 0.950 . S
H534 C542 0.949 . S
H535 C543 0.950 . S
H536 C544 0.951 . S
H537 C545 0.951 1_554 S
C538 C532 1.265 . S
C538 H533 0.950 . S
C538 C539 1.478 . S
C539 C526 1.394 . S
C539 C538 1.478 . S
C539 C540 1.397 1_554 S
C540 C539 1.397 1_556 S
C540 C541 1.438 . S
C540 C545 1.429 . S
C541 C524 1.394 . S
C541 C540 1.438 . S
C541 C542 1.428 . S
C542 H534 0.949 . S
C542 C541 1.428 . S
C542 C543 1.345 . S
C543 H535 0.950 . S
C543 C542 1.345 . S
C543 C544 1.424 . S
C544 H536 0.951 . S
C544 C543 1.424 . S
C544 C545 1.347 . S
C545 H537 0.951 1_556 S
C545 C540 1.429 . S
C545 C544 1.347 . S
H546 C547 0.951 . S
C547 H546 0.951 . S
C547 C553 1.265 . S
H548 C553 0.950 . S
H549 C557 0.949 . S
H550 C558 0.950 . S
H551 C559 0.951 . S
H552 C560 0.951 . S
C553 C547 1.265 . S
C553 H548 0.950 . S
C553 C554 1.478 . S
C554 C553 1.478 . S
C554 C555 1.397 . S
C554 C571 1.394 . S
C555 C554 1.397 . S
C555 C556 1.438 . S
C555 C560 1.429 . S
C556 C555 1.438 . S
C556 C557 1.428 . S
C556 C569 1.394 . S
C557 H549 0.949 . S
C557 C556 1.428 . S
C557 C558 1.345 . S
C558 H550 0.950 . S
C558 C557 1.345 . S
C558 C559 1.424 . S
C559 H551 0.951 . S
C559 C558 1.424 . S
C559 C560 1.347 . S
C560 H552 0.951 . S
C560 C555 1.429 . S
C560 C559 1.347 . S
H561 C562 0.951 . S
C562 H561 0.951 . S
C562 C568 1.265 . S
H563 C568 0.950 . S
H564 C572 0.949 . S
H565 C573 0.950 . S
H566 C574 0.951 . S
H567 C575 0.951 . S
C568 C562 1.265 . S
C568 H563 0.950 . S
C568 C569 1.478 . S
C569 C556 1.394 . S
C569 C568 1.478 . S
C569 C570 1.397 . S
C570 C569 1.397 . S
C570 C571 1.438 . S
C570 C575 1.429 . S
C571 C554 1.394 . S
C571 C570 1.438 . S
C571 C572 1.428 . S
C572 H564 0.949 . S
C572 C571 1.428 . S
C572 C573 1.345 . S
C573 H565 0.950 . S
C573 C572 1.345 . S
C573 C574 1.424 . S
C574 H566 0.951 . S
C574 C573 1.424 . S
C574 C575 1.347 . S
C575 H567 0.951 . S
C575 C570 1.429 . S
C575 C574 1.347 . S
H576 C577 0.951 . S
C577 H576 0.951 . S
C577 C583 1.265 . S
H578 C583 0.950 . S
H579 C587 0.949 . S
H580 C588 0.950 . S
H581 C589 0.951 . S
H582 C590 0.951 . S
C583 C577 1.265 . S
C583 H578 0.950 . S
C583 C584 1.478 . S
C584 C583 1.478 . S
C584 C585 1.397 . S
C584 C601 1.394 . S
C585 C584 1.397 . S
C585 C586 1.438 . S
C585 C590 1.429 . S
C586 C585 1.438 . S
C586 C587 1.428 . S
C586 C599 1.394 . S
C587 H579 0.949 . S
C587 C586 1.428 . S
C587 C588 1.345 . S
C588 H580 0.950 . S
C588 C587 1.345 . S
C588 C589 1.424 . S
C589 H581 0.951 . S
C589 C588 1.424 . S
C589 C590 1.347 . S
C590 H582 0.951 . S
C590 C585 1.429 . S
C590 C589 1.347 . S
H591 C592 0.951 . S
C592 H591 0.951 . S
C592 C598 1.265 . S
H593 C598 0.950 . S
H594 C602 0.949 . S
H595 C603 0.950 . S
H596 C604 0.951 . S
H597 C605 0.951 . S
C598 C592 1.265 . S
C598 H593 0.950 . S
C598 C599 1.478 . S
C599 C586 1.394 . S
C599 C598 1.478 . S
C599 C600 1.397 . S
C600 C599 1.397 . S
C600 C601 1.438 . S
C600 C605 1.429 . S
C601 C584 1.394 . S
C601 C600 1.438 . S
C601 C602 1.428 . S
C602 H594 0.949 . S
C602 C601 1.428 . S
C602 C603 1.345 . S
C603 H595 0.950 . S
C603 C602 1.345 . S
C603 C604 1.424 . S
C604 H596 0.951 . S
C604 C603 1.424 . S
C604 C605 1.347 . S
C605 H597 0.951 . S
C605 C600 1.429 . S
C605 C604 1.347 . S
H606 C607 0.951 . S
C607 H606 0.951 . S
C607 C613 1.265 . S
H608 C613 0.950 . S
H609 C617 0.949 . S
H610 C618 0.950 . S
H611 C619 0.951 . S
H612 C620 0.951 . S
C613 C607 1.265 . S
C613 H608 0.950 . S
C613 C614 1.478 . S
C614 C613 1.478 . S
C614 C615 1.397 . S
C614 C631 1.394 . S
C615 C614 1.397 . S
C615 C616 1.438 . S
C615 C620 1.429 . S
C616 C615 1.438 . S
C616 C617 1.428 . S
C616 C629 1.394 . S
C617 H609 0.949 . S
C617 C616 1.428 . S
C617 C618 1.345 . S
C618 H610 0.950 . S
C618 C617 1.345 . S
C618 C619 1.424 . S
C619 H611 0.951 . S
C619 C618 1.424 . S
C619 C620 1.347 . S
C620 H612 0.951 . S
C620 C615 1.429 . S
C620 C619 1.347 . S
H621 C622 0.951 . S
C622 H621 0.951 . S
C622 C628 1.265 . S
H623 C628 0.950 . S
H624 C632 0.949 . S
H625 C633 0.950 . S
H626 C634 0.951 . S
H627 C635 0.951 . S
C628 C622 1.265 . S
C628 H623 0.950 . S
C628 C629 1.478 . S
C629 C616 1.394 . S
C629 C628 1.478 . S
C629 C630 1.397 . S
C630 C629 1.397 . S
C630 C631 1.438 . S
C630 C635 1.429 . S
C631 C614 1.394 . S
C631 C630 1.438 . S
C631 C632 1.428 . S
C632 H624 0.949 . S
C632 C631 1.428 . S
C632 C633 1.345 . S
C633 H625 0.950 . S
C633 C632 1.345 . S
C633 C634 1.424 . S
C634 H626 0.951 . S
C634 C633 1.424 . S
C634 C635 1.347 . S
C635 H627 0.951 . S
C635 C630 1.429 . S
C635 C634 1.347 . S
H636 C637 0.951 . S
C637 H636 0.951 . S
C637 C643 1.265 . S
H638 C643 0.950 . S
H639 C647 0.949 . S
H640 C648 0.950 . S
H641 C649 0.951 . S
H642 C650 0.951 . S
C643 C637 1.265 . S
C643 H638 0.950 . S
C643 C644 1.478 . S
C644 C643 1.478 . S
C644 C645 1.397 . S
C644 C661 1.394 . S
C645 C644 1.397 . S
C645 C646 1.438 . S
C645 C650 1.429 . S
C646 C645 1.438 . S
C646 C647 1.428 . S
C646 C659 1.394 . S
C647 H639 0.949 . S
C647 C646 1.428 . S
C647 C648 1.345 . S
C648 H640 0.950 . S
C648 C647 1.345 . S
C648 C649 1.424 . S
C649 H641 0.951 . S
C649 C648 1.424 . S
C649 C650 1.347 . S
C650 H642 0.951 . S
C650 C645 1.429 . S
C650 C649 1.347 . S
H651 C652 0.951 . S
C652 H651 0.951 . S
C652 C658 1.265 . S
H653 C658 0.950 . S
H654 C662 0.949 . S
H655 C663 0.950 . S
H656 C664 0.951 . S
H657 C665 0.951 . S
C658 C652 1.265 . S
C658 H653 0.950 . S
C658 C659 1.478 . S
C659 C646 1.394 . S
C659 C658 1.478 . S
C659 C660 1.397 . S
C660 C659 1.397 . S
C660 C661 1.438 . S
C660 C665 1.429 . S
C661 C644 1.394 . S
C661 C660 1.438 . S
C661 C662 1.428 . S
C662 H654 0.949 . S
C662 C661 1.428 . S
C662 C663 1.345 . S
C663 H655 0.950 . S
C663 C662 1.345 . S
C663 C664 1.424 . S
C664 H656 0.951 . S
C664 C663 1.424 . S
C664 C665 1.347 . S
C665 H657 0.951 . S
C665 C660 1.429 . S
C665 C664 1.347 . S
C127 C3 1.021 . S
C142 C109 1.001 . S
C157 C24 1.013 . S
C172 C4 0.932 . S
C187 C45 1.050 . S
C202 C25 0.937 . S
C217 C46 0.942 . S
C232 C79 0.979 . S
C247 C70 1.051 . S
C262 C87 0.929 . S
C277 C108 0.881 . S
C292 C88 1.061 . S
C307 C20 1.504 . S
C322 C67 1.313 . S
C337 C41 1.462 . S
C352 C91 1.290 . S
C367 C112 1.274 . S
C382 C62 1.497 . S
C397 C82 1.504 . S
C412 C7 1.309 . S
C427 C28 1.403 . S
C442 C104 1.466 . S
C457 C125 1.467 . S
C472 C49 1.285 . S
C487 C16 1.330 . S
C502 C103 1.343 . S
C517 C124 1.403 . S
C532 C37 1.164 . S
C547 C19 1.402 . S
C562 C58 1.275 . S
C577 C66 1.183 . S
C592 C40 1.323 . S
C607 C61 1.357 . S
C622 C100 1.326 . S
C637 C83 1.400 . S
C652 C121 1.279 . S
