# Generated by pormake.
# Topology uol, (4)-cn, num edge types: 1
# Building blocks:
#     Node 0, Type 0, BuildingBlock: NAWXER_clean_sbu_0, # of connection points: 4
#     Node 1, Type 0, BuildingBlock: NAWXER_clean_sbu_0, # of connection points: 4
#     Node 2, Type 0, BuildingBlock: NAWXER_clean_sbu_0, # of connection points: 4
#     Node 3, Type 0, BuildingBlock: NAWXER_clean_sbu_0, # of connection points: 4
#     Node 4, Type 0, BuildingBlock: NAWXER_clean_sbu_0, # of connection points: 4
#     Node 5, Type 0, BuildingBlock: NAWXER_clean_sbu_0, # of connection points: 4
#     Node 6, Type 0, BuildingBlock: NAWXER_clean_sbu_0, # of connection points: 4
#     Node 7, Type 0, BuildingBlock: NAWXER_clean_sbu_0, # of connection points: 4
#     Node 8, Type 0, BuildingBlock: NAWXER_clean_sbu_0, # of connection points: 4
#     Node 9, Type 0, BuildingBlock: NAWXER_clean_sbu_0, # of connection points: 4
#     Node 10, Type 0, BuildingBlock: NAWXER_clean_sbu_0, # of connection points: 4
#     Node 11, Type 0, BuildingBlock: NAWXER_clean_sbu_0, # of connection points: 4
#     Edge 12, Type (0, 0), BuildingBlock: ZUJKAS_clean_linker_0, # of connection points: 2
#     Edge 13, Type (0, 0), BuildingBlock: ZUJKAS_clean_linker_0, # of connection points: 2
#     Edge 14, Type (0, 0), BuildingBlock: ZUJKAS_clean_linker_0, # of connection points: 2
#     Edge 15, Type (0, 0), BuildingBlock: ZUJKAS_clean_linker_0, # of connection points: 2
#     Edge 16, Type (0, 0), BuildingBlock: ZUJKAS_clean_linker_0, # of connection points: 2
#     Edge 17, Type (0, 0), BuildingBlock: ZUJKAS_clean_linker_0, # of connection points: 2
#     Edge 18, Type (0, 0), BuildingBlock: ZUJKAS_clean_linker_0, # of connection points: 2
#     Edge 19, Type (0, 0), BuildingBlock: ZUJKAS_clean_linker_0, # of connection points: 2
#     Edge 20, Type (0, 0), BuildingBlock: ZUJKAS_clean_linker_0, # of connection points: 2
#     Edge 21, Type (0, 0), BuildingBlock: ZUJKAS_clean_linker_0, # of connection points: 2
#     Edge 22, Type (0, 0), BuildingBlock: ZUJKAS_clean_linker_0, # of connection points: 2
#     Edge 23, Type (0, 0), BuildingBlock: ZUJKAS_clean_linker_0, # of connection points: 2
#     Edge 24, Type (0, 0), BuildingBlock: ZUJKAS_clean_linker_0, # of connection points: 2
#     Edge 25, Type (0, 0), BuildingBlock: ZUJKAS_clean_linker_0, # of connection points: 2
#     Edge 26, Type (0, 0), BuildingBlock: ZUJKAS_clean_linker_0, # of connection points: 2
#     Edge 27, Type (0, 0), BuildingBlock: ZUJKAS_clean_linker_0, # of connection points: 2
#     Edge 28, Type (0, 0), BuildingBlock: ZUJKAS_clean_linker_0, # of connection points: 2
#     Edge 29, Type (0, 0), BuildingBlock: ZUJKAS_clean_linker_0, # of connection points: 2
#     Edge 30, Type (0, 0), BuildingBlock: ZUJKAS_clean_linker_0, # of connection points: 2
#     Edge 31, Type (0, 0), BuildingBlock: ZUJKAS_clean_linker_0, # of connection points: 2
#     Edge 32, Type (0, 0), BuildingBlock: ZUJKAS_clean_linker_0, # of connection points: 2
#     Edge 33, Type (0, 0), BuildingBlock: ZUJKAS_clean_linker_0, # of connection points: 2
#     Edge 34, Type (0, 0), BuildingBlock: ZUJKAS_clean_linker_0, # of connection points: 2
#     Edge 35, Type (0, 0), BuildingBlock: ZUJKAS_clean_linker_0, # of connection points: 2
# Relax obj value: 0.141
# Max RMSD: 0.284
# Mean RMSD: 0.284
data_MOF--net-uol--node1-NAWXER_clean_sbu_0--edge1-ZUJKAS_clean_linker_0
_symmetry_space_group_name_H-M    P1
_symmetry_Int_Tables_number       1
_symmetry_cell_setting            triclinic
loop_
_symmetry_equiv_pos_as_xyz
'x, y, z'
_cell_length_a     43.885809
_cell_length_b     43.917126
_cell_length_c     85.459188
_cell_angle_alpha  89.971708
_cell_angle_beta   90.038423
_cell_angle_gamma 120.01533
loop_
_atom_site_label
_atom_site_type_symbol
_atom_site_fract_x
_atom_site_fract_y
_atom_site_fract_z
_atom_type_partial_charge
C0 C 0.13978 0.33401 0.08895 0.0
C1 C 0.06103 0.31422 0.13261 0.0
O2 O 0.15606 0.35515 0.10031 0.0
Zn3 Zn 0.14197 0.36626 0.12311 0.0
O4 O 0.10678 0.31349 0.08991 0.0
Zn5 Zn 0.10041 0.32691 0.11046 0.0
O6 O 0.10736 0.37877 0.10703 0.0
O7 O 0.15235 0.41405 0.12182 0.0
O8 O 0.05383 0.30084 0.11902 0.0
O9 O 0.09254 0.33858 0.13577 0.0
O10 O 0.17207 0.35821 0.13639 0.0
O11 O 0.13075 0.31017 0.12488 0.0
C12 C 0.12851 0.40976 0.11222 0.0
C13 C 0.15747 0.32529 0.13409 0.0
C14 C 0.83584 0.15229 0.30054 0.0
C15 C 0.72257 0.12292 0.27816 0.0
O16 O 0.82424 0.12535 0.2915 0.0
Zn17 Zn 0.77763 0.09499 0.27693 0.0
O18 O 0.81769 0.1672 0.30248 0.0
Zn19 Zn 0.77956 0.13685 0.28917 0.0
O20 O 0.75725 0.08759 0.30206 0.0
O21 O 0.75696 0.04865 0.28567 0.0
O22 O 0.74211 0.14713 0.28761 0.0
O23 O 0.73254 0.10171 0.27318 0.0
O24 O 0.7982 0.1009 0.2566 0.0
O25 O 0.80473 0.15031 0.26633 0.0
C26 C 0.75021 0.05604 0.2991 0.0
C27 C 0.81015 0.13372 0.2553 0.0
C28 C 0.68611 0.83306 0.46752 0.0
C29 C 0.60278 0.72031 0.44475 0.0
O30 O 0.70169 0.82167 0.45853 0.0
Zn31 Zn 0.68601 0.77535 0.444 0.0
O32 O 0.65303 0.81476 0.46939 0.0
Zn33 Zn 0.64553 0.77681 0.45601 0.0
O34 O 0.67164 0.75367 0.4689 0.0
O35 O 0.71187 0.75514 0.45302 0.0
O36 O 0.5979 0.73972 0.45419 0.0
O37 O 0.63412 0.7302 0.43996 0.0
O38 O 0.70106 0.79608 0.4237 0.0
O39 O 0.65753 0.80191 0.43317 0.0
C40 C 0.6967 0.74726 0.46624 0.0
C41 C 0.67982 0.80757 0.42223 0.0
C42 C 0.87112 0.67331 0.58965 0.0
C43 C 0.95196 0.69477 0.63271 0.0
O44 O 0.8555 0.65204 0.60106 0.0
Zn45 Zn 0.8709 0.64168 0.62381 0.0
O46 O 0.90401 0.69448 0.59046 0.0
Zn47 Zn 0.9114 0.68153 0.6109 0.0
O48 O 0.90519 0.62981 0.60733 0.0
O49 O 0.86138 0.59429 0.62266 0.0
O50 O 0.95801 0.70901 0.6193 0.0
O51 O 0.92098 0.6694 0.63589 0.0
O52 O 0.84107 0.64946 0.63747 0.0
O53 O 0.88097 0.69746 0.62547 0.0
C54 C 0.88481 0.59884 0.61278 0.0
C55 C 0.85486 0.68222 0.63497 0.0
C56 C 0.17635 0.8552 0.80121 0.0
C57 C 0.28962 0.88387 0.7793 0.0
O58 O 0.18704 0.88071 0.79138 0.0
Zn59 Zn 0.23388 0.91063 0.77677 0.0
O60 O 0.19532 0.84152 0.80404 0.0
Zn61 Zn 0.23255 0.87028 0.79013 0.0
O62 O 0.25444 0.92053 0.80193 0.0
O63 O 0.25392 0.95775 0.78475 0.0
O64 O 0.27035 0.86032 0.78906 0.0
O65 O 0.27928 0.90438 0.77381 0.0
O66 O 0.21419 0.90257 0.75612 0.0
O67 O 0.20645 0.85417 0.76753 0.0
C68 C 0.26097 0.95164 0.79839 0.0
C69 C 0.20158 0.86952 0.75578 0.0
C70 C 0.31277 0.25984 0.96498 0.0
C71 C 0.33084 0.20099 0.92078 0.0
O72 O 0.33796 0.25363 0.96766 0.0
Zn73 Zn 0.36451 0.23101 0.95473 0.0
O74 O 0.29775 0.25211 0.95172 0.0
Zn75 Zn 0.32402 0.23241 0.94269 0.0
O76 O 0.30843 0.18588 0.95707 0.0
O77 O 0.35708 0.19287 0.96799 0.0
O78 O 0.30936 0.21217 0.9223 0.0
O79 O 0.35303 0.20652 0.93176 0.0
O80 O 0.41205 0.26836 0.95313 0.0
O81 O 0.3758 0.27794 0.93893 0.0
C82 C 0.32403 0.17447 0.96605 0.0
C83 C 0.40712 0.28792 0.9438 0.0
C84 C 0.68495 0.85362 0.70676 0.0
C85 C 0.60172 0.88397 0.72882 0.0
O86 O 0.70045 0.88037 0.7159 0.0
Zn87 Zn 0.68461 0.91128 0.73025 0.0
O88 O 0.65201 0.83935 0.70456 0.0
Zn89 Zn 0.64449 0.86976 0.71789 0.0
O90 O 0.67163 0.91916 0.70516 0.0
O91 O 0.71127 0.95743 0.72141 0.0
O92 O 0.59686 0.85964 0.71943 0.0
O93 O 0.63297 0.90514 0.73379 0.0
O94 O 0.69829 0.90516 0.7508 0.0
O95 O 0.65589 0.85594 0.74071 0.0
C96 C 0.69677 0.95047 0.70804 0.0
C97 C 0.6774 0.87229 0.75195 0.0
C98 C 0.8097 0.67559 0.91847 0.0
C99 C 0.74993 0.69646 0.87536 0.0
O100 O 0.8043 0.65448 0.90703 0.0
Zn101 Zn 0.7782 0.64369 0.88438 0.0
O102 O 0.79751 0.69636 0.91773 0.0
Zn103 Zn 0.77734 0.68353 0.89722 0.0
O104 O 0.73159 0.63197 0.90058 0.0
O105 O 0.74056 0.59614 0.88583 0.0
O106 O 0.75806 0.71083 0.88875 0.0
O107 O 0.75572 0.6712 0.87226 0.0
O108 O 0.81542 0.65155 0.87047 0.0
O109 O 0.82394 0.69947 0.88272 0.0
C110 C 0.72125 0.60086 0.89539 0.0
C111 C 0.83454 0.68425 0.8731 0.0
C112 C 0.15671 0.83486 0.03893 0.0
C113 C 0.12869 0.72224 0.06145 0.0
O114 O 0.13019 0.82337 0.04822 0.0
Zn115 Zn 0.10026 0.77687 0.06283 0.0
O116 O 0.17148 0.81667 0.03672 0.0
Zn117 Zn 0.14186 0.77879 0.0503 0.0
O118 O 0.09206 0.75555 0.03784 0.0
O119 O 0.05378 0.75654 0.05419 0.0
O120 O 0.15271 0.74179 0.05193 0.0
O121 O 0.1073 0.73197 0.06645 0.0
O122 O 0.10672 0.79707 0.08331 0.0
O123 O 0.15599 0.80451 0.07299 0.0
C124 C 0.06064 0.74894 0.04082 0.0
C125 C 0.13973 0.80956 0.08429 0.0
C126 C 0.31503 0.05771 0.20798 0.0
C127 C 0.33375 0.13488 0.25213 0.0
O128 O 0.3403 0.08904 0.20525 0.0
Zn129 Zn 0.36736 0.1382 0.2182 0.0
O130 O 0.30031 0.05053 0.2213 0.0
Zn131 Zn 0.32687 0.09647 0.23028 0.0
O132 O 0.3114 0.12755 0.2159 0.0
O133 O 0.36009 0.16904 0.20496 0.0
O134 O 0.31235 0.1022 0.25066 0.0
O135 O 0.35593 0.15147 0.24115 0.0
O136 O 0.41486 0.14803 0.21979 0.0
O137 O 0.37849 0.10235 0.234 0.0
C138 C 0.32706 0.15454 0.20692 0.0
C139 C 0.40982 0.1235 0.22911 0.0
C140 C 0.28956 0.40714 0.39529 0.0
C141 C 0.17611 0.32232 0.37348 0.0
O142 O 0.27982 0.37616 0.40047 0.0
Zn143 Zn 0.23485 0.32422 0.39713 0.0
O144 O 0.26983 0.41142 0.3858 0.0
Zn145 Zn 0.23253 0.36355 0.38451 0.0
O146 O 0.20741 0.35238 0.40733 0.0
O147 O 0.21515 0.3108 0.4177 0.0
O148 O 0.19433 0.35525 0.3712 0.0
O149 O 0.18779 0.3073 0.38269 0.0
O150 O 0.25551 0.29834 0.38858 0.0
O151 O 0.25482 0.33633 0.3719 0.0
C152 C 0.20264 0.33127 0.41869 0.0
C153 C 0.26204 0.31202 0.37504 0.0
C154 C 0.88596 0.2874 0.56138 0.0
C155 C 0.85644 0.17365 0.53987 0.0
O156 O 0.90654 0.27717 0.56695 0.0
Zn157 Zn 0.91313 0.23185 0.56367 0.0
O158 O 0.86245 0.26808 0.55161 0.0
Zn159 Zn 0.87223 0.23034 0.55075 0.0
O160 O 0.85731 0.20522 0.57362 0.0
O161 O 0.90617 0.21213 0.58422 0.0
O162 O 0.84237 0.19236 0.53732 0.0
O163 O 0.88276 0.18493 0.54929 0.0
O164 O 0.95977 0.25141 0.55522 0.0
O165 O 0.92206 0.25239 0.5385 0.0
C166 C 0.87322 0.2001 0.58507 0.0
C167 C 0.95329 0.2587 0.54169 0.0
H168 H 0.07677 0.67057 0.07943 0.0
H169 H 0.07234 0.61529 0.08804 0.0
H170 H 0.16955 0.6431 0.0643 0.0
H171 H 0.17378 0.69786 0.05537 0.0
H172 H 0.11933 0.57523 0.0588 0.0
H173 H 0.1294 0.60367 0.1225 0.0
H174 H 0.09415 0.60578 0.11284 0.0
H175 H 0.13901 0.63692 0.10787 0.0
C176 C 0.09723 0.66494 0.07607 0.0
C177 C 0.1257 0.68872 0.06676 0.0
C178 C 0.09476 0.63341 0.08107 0.0
C179 C 0.1209 0.6253 0.07701 0.0
C180 C 0.14912 0.64884 0.0676 0.0
H181 H 0.17318 0.47911 0.11874 0.0
H182 H 0.16901 0.52975 0.10989 0.0
C183 C 0.15151 0.68019 0.06253 0.0
C184 C 0.11898 0.59223 0.08239 0.0
H185 H 0.11851 0.54723 0.11508 0.0
C186 C 0.11904 0.56902 0.07111 0.0
C187 C 0.11901 0.5844 0.09845 0.0
C188 C 0.12071 0.60911 0.11114 0.0
C189 C 0.11943 0.53836 0.07543 0.0
C190 C 0.11894 0.53027 0.09149 0.0
C191 C 0.11859 0.55333 0.10277 0.0
C192 C 0.12076 0.49907 0.09687 0.0
C193 C 0.1216 0.5156 0.06275 0.0
C194 C 0.0948 0.46488 0.09262 0.0
C195 C 0.09725 0.43578 0.09757 0.0
C196 C 0.1255 0.44035 0.10702 0.0
C197 C 0.15108 0.47461 0.11147 0.0
C198 C 0.14872 0.50362 0.10644 0.0
H199 H 0.13063 0.52991 0.05146 0.0
H200 H 0.13984 0.50608 0.06614 0.0
H201 H 0.09513 0.49236 0.06087 0.0
H202 H 0.07257 0.46067 0.08552 0.0
H203 H 0.07695 0.40974 0.09405 0.0
H204 H 0.69679 0.16664 0.28476 0.0
H205 H 0.64083 0.16071 0.27656 0.0
H206 H 0.61488 0.06486 0.25209 0.0
H207 H 0.67136 0.07095 0.26001 0.0
H208 H 0.60116 0.10824 0.23456 0.0
H209 H 0.5437 0.09404 0.29356 0.0
H210 H 0.58603 0.13296 0.29187 0.0
H211 H 0.5823 0.09037 0.29006 0.0
C212 C 0.67918 0.14418 0.27769 0.0
C213 C 0.68852 0.11917 0.2731 0.0
C214 C 0.64703 0.1407 0.2731 0.0
C215 C 0.6233 0.11193 0.264 0.0
C216 C 0.63267 0.08711 0.25924 0.0
H217 H 0.40861 0.07121 0.24721 0.0
H218 H 0.45884 0.06488 0.25519 0.0
C219 C 0.66496 0.09064 0.26376 0.0
C220 C 0.58938 0.10868 0.25899 0.0
H221 H 0.51616 0.1083 0.27279 0.0
C222 C 0.58239 0.10786 0.24292 0.0
C223 C 0.56455 0.10753 0.26989 0.0
C224 C 0.56931 0.10589 0.2873 0.0
C225 C 0.55199 0.10744 0.23746 0.0
C226 C 0.52832 0.10861 0.24836 0.0
C227 C 0.53454 0.10789 0.26443 0.0
C228 C 0.49773 0.11196 0.24333 0.0
C229 C 0.54555 0.1057 0.22005 0.0
C230 C 0.50295 0.14079 0.23425 0.0
C231 C 0.47439 0.14441 0.22963 0.0
C232 C 0.43994 0.11946 0.23417 0.0
C233 C 0.43478 0.09084 0.24349 0.0
C234 C 0.46344 0.08718 0.24805 0.0
H235 H 0.55926 0.0938 0.21381 0.0
H236 H 0.51702 0.09019 0.21731 0.0
H237 H 0.55594 0.13275 0.21545 0.0
H238 H 0.52923 0.16077 0.23082 0.0
H239 H 0.47941 0.16695 0.22258 0.0
H240 H 0.60349 0.66872 0.42687 0.0
H241 H 0.55279 0.61311 0.41835 0.0
H242 H 0.48289 0.64064 0.44177 0.0
H243 H 0.5332 0.69567 0.4506 0.0
H244 H 0.46602 0.57307 0.44771 0.0
H245 H 0.48344 0.60002 0.38385 0.0
H246 H 0.521 0.60275 0.39359 0.0
H247 H 0.50697 0.63372 0.39831 0.0
C248 C 0.57731 0.66295 0.43017 0.0
C249 C 0.57242 0.68671 0.43937 0.0
C250 C 0.54835 0.63124 0.42522 0.0
C251 C 0.51401 0.62293 0.42924 0.0
C252 C 0.50914 0.64651 0.43851 0.0
H253 H 0.31444 0.47648 0.38866 0.0
H254 H 0.36974 0.52706 0.39716 0.0
C255 C 0.53798 0.67803 0.44352 0.0
C256 C 0.48292 0.5896 0.42403 0.0
H257 H 0.43767 0.54398 0.39158 0.0
C258 C 0.45986 0.56661 0.43544 0.0
C259 C 0.47478 0.58143 0.40801 0.0
C260 C 0.49763 0.60587 0.3952 0.0
C261 C 0.42868 0.53589 0.43128 0.0
C262 C 0.42071 0.52753 0.41527 0.0
C263 C 0.44397 0.55031 0.40385 0.0
C264 C 0.38742 0.49636 0.41007 0.0
C265 C 0.40395 0.5134 0.44409 0.0
C266 C 0.37907 0.46218 0.41438 0.0
C267 C 0.34725 0.43312 0.40964 0.0
C268 C 0.32339 0.43771 0.40034 0.0
C269 C 0.33216 0.47196 0.39583 0.0
C270 C 0.36382 0.50094 0.40065 0.0
H271 H 0.40961 0.52786 0.45535 0.0
H272 H 0.37614 0.50403 0.44083 0.0
H273 H 0.40701 0.49007 0.44596 0.0
H274 H 0.39722 0.45795 0.42137 0.0
H275 H 0.34144 0.40709 0.4132 0.0
H276 H 0.92146 0.59498 0.5876 0.0
H277 H 0.92398 0.54339 0.57842 0.0
H278 H 0.85942 0.48312 0.61736 0.0
H279 H 0.85586 0.534 0.62628 0.0
H280 H 0.94814 0.5033 0.59146 0.0
H281 H 0.80478 0.42168 0.58107 0.0
H282 H 0.82582 0.46819 0.585 0.0
H283 H 0.81476 0.43732 0.60083 0.0
C284 C 0.9078 0.57071 0.59419 0.0
C285 C 0.88809 0.56846 0.60755 0.0
C286 C 0.90929 0.54128 0.58895 0.0
C287 C 0.89124 0.50915 0.59701 0.0
C288 C 0.87269 0.50729 0.61068 0.0
H289 H 0.92127 0.32813 0.58673 0.0
H290 H 0.92418 0.38283 0.59516 0.0
C291 C 0.87084 0.5365 0.61582 0.0
C292 C 0.89155 0.47749 0.59113 0.0
H293 H 0.83757 0.3919 0.58056 0.0
C294 C 0.92399 0.47898 0.58898 0.0
C295 C 0.86005 0.44593 0.58764 0.0
C296 C 0.82442 0.44322 0.58859 0.0
C297 C 0.92576 0.44956 0.58372 0.0
C298 C 0.89417 0.41754 0.58094 0.0
C299 C 0.86179 0.41629 0.58286 0.0
C300 C 0.8938 0.38509 0.57567 0.0
C301 C 0.96145 0.45338 0.58091 0.0
C302 C 0.87505 0.36762 0.56214 0.0
C303 C 0.87273 0.33605 0.5575 0.0
C304 C 0.88933 0.32132 0.56623 0.0
C305 C 0.90846 0.33898 0.57969 0.0
C306 C 0.91036 0.3704 0.58445 0.0
H307 H 0.9819 0.4813 0.57899 0.0
H308 H 0.96923 0.4438 0.59133 0.0
H309 H 0.96103 0.43777 0.57061 0.0
H310 H 0.86198 0.37834 0.55518 0.0
H311 H 0.8579 0.3232 0.54704 0.0
H312 H 0.53209 0.83983 0.72258 0.0
H313 H 0.48207 0.84533 0.73115 0.0
H314 H 0.55237 0.94184 0.75513 0.0
H315 H 0.60276 0.93616 0.74686 0.0
H316 H 0.49608 0.89833 0.77308 0.0
H317 H 0.45023 0.911 0.71439 0.0
H318 H 0.45404 0.87233 0.71605 0.0
H319 H 0.49279 0.91511 0.71758 0.0
C320 C 0.53703 0.86236 0.72962 0.0
C321 C 0.57149 0.88767 0.73397 0.0
C322 C 0.50836 0.86558 0.73442 0.0
C323 C 0.51351 0.89438 0.7435 0.0
C324 C 0.54783 0.91955 0.74801 0.0
H325 H 0.34037 0.93513 0.76081 0.0
H326 H 0.39654 0.94085 0.75274 0.0
C327 C 0.57658 0.91626 0.74328 0.0
C328 C 0.48287 0.89736 0.74874 0.0
H329 H 0.40925 0.89693 0.73545 0.0
C330 C 0.47728 0.8984 0.76485 0.0
C331 C 0.45865 0.89808 0.738 0.0
C332 C 0.46439 0.89945 0.72054 0.0
C333 C 0.44744 0.89875 0.77053 0.0
C334 C 0.42212 0.89724 0.7598 0.0
C335 C 0.42841 0.8976 0.74368 0.0
C336 C 0.38851 0.89431 0.76504 0.0
C337 C 0.44345 0.90089 0.78797 0.0
C338 C 0.36513 0.86601 0.77446 0.0
C339 C 0.33316 0.86277 0.77915 0.0
C340 C 0.32365 0.88753 0.77434 0.0
C341 C 0.34691 0.91563 0.76473 0.0
C342 C 0.37902 0.91896 0.76012 0.0
H343 H 0.46933 0.91295 0.79401 0.0
H344 H 0.43055 0.91645 0.79078 0.0
H345 H 0.42696 0.87395 0.79271 0.0
H346 H 0.37142 0.84613 0.77804 0.0
H347 H 0.31575 0.84064 0.78643 0.0
H348 H 0.40623 0.33985 0.92622 0.0
H349 H 0.45682 0.39586 0.91801 0.0
H350 H 0.52688 0.36827 0.9413 0.0
H351 H 0.47669 0.31284 0.94982 0.0
H352 H 0.54342 0.43568 0.9475 0.0
H353 H 0.52645 0.40984 0.88354 0.0
H354 H 0.48882 0.40683 0.89331 0.0
H355 H 0.50294 0.37585 0.89789 0.0
C356 C 0.43242 0.3457 0.92956 0.0
C357 C 0.4374 0.32179 0.93863 0.0
C358 C 0.46132 0.37765 0.92479 0.0
C359 C 0.49567 0.38605 0.92886 0.0
C360 C 0.50062 0.36233 0.93801 0.0
H361 H 0.69548 0.53141 0.8888 0.0
H362 H 0.6398 0.48134 0.89723 0.0
C363 C 0.47185 0.33059 0.94284 0.0
C364 C 0.52672 0.41953 0.92376 0.0
H365 H 0.57234 0.46555 0.89147 0.0
C366 C 0.54969 0.44234 0.93525 0.0
C367 C 0.53499 0.42795 0.90777 0.0
C368 C 0.51222 0.40374 0.89489 0.0
C369 C 0.58098 0.47305 0.9312 0.0
C370 C 0.58914 0.4816 0.91521 0.0
C371 C 0.5659 0.45907 0.90373 0.0
C372 C 0.62271 0.51254 0.91011 0.0
C373 C 0.60564 0.4953 0.94408 0.0
C374 C 0.63155 0.54684 0.91445 0.0
C375 C 0.66363 0.57563 0.90974 0.0
C376 C 0.68723 0.57063 0.90046 0.0
C377 C 0.67798 0.53626 0.89596 0.0
C378 C 0.64609 0.50756 0.90073 0.0
H379 H 0.59968 0.48077 0.95534 0.0
H380 H 0.63343 0.50439 0.94091 0.0
H381 H 0.60289 0.51882 0.94591 0.0
H382 H 0.61359 0.55137 0.92141 0.0
H383 H 0.66982 0.60178 0.9133 0.0
H384 H 0.35217 0.21101 0.18719 0.0
H385 H 0.3193 0.23599 0.17489 0.0
H386 H 0.22363 0.15584 0.19633 0.0
H387 H 0.25635 0.13079 0.20886 0.0
H388 H 0.26134 0.20433 0.1543 0.0
H389 H 0.22881 0.24857 0.20958 0.0
H390 H 0.26205 0.23589 0.20857 0.0
H391 H 0.21627 0.20286 0.2089 0.0
C392 C 0.32413 0.19864 0.18931 0.0
C393 C 0.30692 0.16901 0.1991 0.0
C394 C 0.30539 0.21293 0.18224 0.0
C395 C 0.26916 0.19801 0.18486 0.0
C396 C 0.25172 0.16808 0.19438 0.0
H397 H 0.13438 0.25484 0.13122 0.0
H398 H 0.1593 0.22173 0.14353 0.0
C399 C 0.27044 0.15373 0.20147 0.0
C400 C 0.24984 0.21406 0.17764 0.0
H401 H 0.20519 0.25708 0.18625 0.0
C402 C 0.24888 0.21572 0.16126 0.0
C403 C 0.23398 0.22918 0.18679 0.0
C404 C 0.23547 0.22939 0.20444 0.0
C405 C 0.23262 0.23231 0.15376 0.0
C406 C 0.21652 0.24719 0.16291 0.0
C407 C 0.21731 0.24535 0.17929 0.0
C408 C 0.20056 0.26663 0.15574 0.0
C409 C 0.23376 0.23478 0.13613 0.0
C410 C 0.21499 0.3026 0.15883 0.0
C411 C 0.20079 0.32152 0.15189 0.0
C412 C 0.1717 0.30478 0.14177 0.0
C413 C 0.15688 0.26855 0.1389 0.0
C414 C 0.17117 0.24962 0.14586 0.0
H415 H 0.25339 0.22864 0.13107 0.0
H416 H 0.20752 0.21569 0.13134 0.0
H417 H 0.24024 0.2615 0.13226 0.0
H418 H 0.23762 0.31617 0.16646 0.0
H419 H 0.21281 0.34935 0.1544 0.0
H420 H 0.86749 0.20839 0.32043 0.0
H421 H 0.92528 0.23286 0.33274 0.0
H422 H 0.94011 0.15257 0.31106 0.0
H423 H 0.88236 0.12802 0.29851 0.0
H424 H 0.95126 0.20074 0.35321 0.0
H425 H 0.02809 0.24522 0.29792 0.0
H426 H 0.98222 0.23276 0.29897 0.0
H427 H 0.9947 0.19957 0.29857 0.0
C428 C 0.88298 0.19586 0.31826 0.0
C429 C 0.87038 0.16635 0.3084 0.0
C430 C 0.91598 0.20987 0.32534 0.0
C431 C 0.93711 0.19478 0.32265 0.0
C432 C 0.92442 0.16494 0.31307 0.0
H433 H 0.12894 0.25177 0.3763 0.0
H434 H 0.07094 0.21846 0.36396 0.0
C435 C 0.89135 0.15087 0.30597 0.0
C436 C 0.97249 0.21062 0.32986 0.0
H437 H 0.06021 0.25375 0.32125 0.0
C438 C 0.97511 0.21217 0.34625 0.0
C439 C 1.00349 0.22579 0.32071 0.0
C440 C 1.0022 0.22611 0.30307 0.0
C441 C 0.00799 0.22875 0.35375 0.0
C442 C 0.03899 0.24373 0.34459 0.0
C443 C 0.03635 0.24195 0.32821 0.0
C444 C 0.07441 0.26329 0.35176 0.0
C445 C 0.00931 0.23114 0.37137 0.0
C446 C 0.09585 0.29929 0.34869 0.0
C447 C 0.12897 0.31833 0.35564 0.0
C448 C 0.1414 0.30168 0.36577 0.0
C449 C 0.12009 0.26542 0.36862 0.0
C450 C 0.08689 0.24637 0.36164 0.0
H451 H 0.98352 0.22488 0.37645 0.0
H452 H 0.01657 0.21212 0.37615 0.0
H453 H 0.02951 0.25788 0.37525 0.0
H454 H 0.08672 0.31279 0.34106 0.0
H455 H 0.14469 0.34618 0.35315 0.0
H456 H 0.80144 0.14265 0.51937 0.0
H457 H 0.77643 0.08454 0.50743 0.0
H458 H 0.85381 0.06777 0.53091 0.0
H459 H 0.87889 0.12587 0.54311 0.0
H460 H 0.80868 0.05731 0.48797 0.0
H461 H 0.75932 0.98116 0.54323 0.0
H462 H 0.77291 0.02726 0.54191 0.0
H463 H 0.8053 0.01375 0.54307 0.0
C464 C 0.81321 0.12667 0.52202 0.0
C465 C 0.84207 0.13885 0.53227 0.0
C466 C 0.79889 0.09348 0.51516 0.0
C467 C 0.813 0.07173 0.51844 0.0
C468 C 0.84218 0.08395 0.52844 0.0
H469 H 0.75694 0.87962 0.46575 0.0
H470 H 0.78977 0.93738 0.47825 0.0
C471 C 0.85657 0.11722 0.53533 0.0
C472 C 0.79694 0.03627 0.51134 0.0
H473 H 0.75171 0.94868 0.52011 0.0
C474 C 0.79637 0.03352 0.49497 0.0
C475 C 0.7806 0.00537 0.52055 0.0
C476 C 0.77919 0.00682 0.53816 0.0
C477 C 0.77969 1.00063 0.48753 0.0
C478 C 0.7636 0.96973 0.49673 0.0
C479 C 0.76434 0.97246 0.51311 0.0
C480 C 0.74425 0.93433 0.48957 0.0
C481 C 0.77843 0.99924 0.46988 0.0
C482 C 0.70797 0.91316 0.49214 0.0
C483 C 0.68917 0.88014 0.48509 0.0
C484 C 0.70635 0.86757 0.47539 0.0
C485 C 0.74287 0.88859 0.47309 0.0
C486 C 0.76166 0.92166 0.48015 0.0
H487 H 0.78522 0.02505 0.46466 0.0
H488 H 0.79764 0.9918 0.46553 0.0
H489 H 0.75188 0.97918 0.46571 0.0
H490 H 0.69408 0.92245 0.49942 0.0
H491 H 0.6611 0.86462 0.48716 0.0
H492 H 0.79959 0.65779 0.65535 0.0
H493 H 0.77439 0.69068 0.66736 0.0
H494 H 0.85217 0.78527 0.64433 0.0
H495 H 0.87739 0.75249 0.63207 0.0
H496 H 0.80594 0.74967 0.68705 0.0
H497 H 0.7582 0.77779 0.63164 0.0
H498 H 0.77186 0.74533 0.63293 0.0
H499 H 0.80419 0.79127 0.63198 0.0
C500 C 0.8114 0.68559 0.65282 0.0
C501 C 0.8404 0.70247 0.64267 0.0
C502 C 0.79698 0.70435 0.65972 0.0
C503 C 0.81113 0.74027 0.65657 0.0
C504 C 0.84048 0.7574 0.64669 0.0
H505 H 0.75551 0.87675 0.70915 0.0
H506 H 0.78809 0.85125 0.69691 0.0
C507 C 0.85495 0.73865 0.63976 0.0
C508 C 0.79494 0.75957 0.66364 0.0
H509 H 0.75069 0.80286 0.65473 0.0
C510 C 0.79398 0.76146 0.68001 0.0
C511 C 0.77906 0.77454 0.65438 0.0
C512 C 0.77801 0.77197 0.63676 0.0
C513 C 0.7774 0.77783 0.6874 0.0
C514 C 0.76184 0.79312 0.67814 0.0
C515 C 0.76293 0.79136 0.66177 0.0
C516 C 0.74266 0.80943 0.68522 0.0
C517 C 0.7757 0.77766 0.70504 0.0
C518 C 0.70655 0.7949 0.68237 0.0
C519 C 0.68791 0.80946 0.68926 0.0
C520 C 0.70509 0.83899 0.69909 0.0
C521 C 0.74145 0.85391 0.7017 0.0
C522 C 0.76009 0.83928 0.69479 0.0
H523 H 0.78199 0.75827 0.71026 0.0
H524 H 0.79509 0.80411 0.70952 0.0
H525 H 0.74917 0.7715 0.70908 0.0
H526 H 0.69265 0.77192 0.67497 0.0
H527 H 0.65996 0.79736 0.68696 0.0
H528 H 0.8562 0.66767 0.84617 0.0
H529 H 0.91415 0.69968 0.83391 0.0
H530 H 0.9495 0.77745 0.87063 0.0
H531 H 0.89096 0.74634 0.88256 0.0
H532 H 0.97381 0.80828 0.8434 0.0
H533 H 0.99915 0.69728 0.84851 0.0
H534 H 0.96016 0.68545 0.83739 0.0
H535 H 0.96202 0.69676 0.85777 0.0
C536 C 0.87631 0.69164 0.85161 0.0
C537 C 0.86918 0.70436 0.86539 0.0
C538 C 0.90951 0.70978 0.84465 0.0
C539 C 0.93651 0.74045 0.85158 0.0
C540 C 0.92916 0.7537 0.86513 0.0
H541 H 0.15609 0.81997 0.82888 0.0
H542 H 0.09876 0.79515 0.84161 0.0
C543 C 0.89572 0.73591 0.87194 0.0
C544 C 0.97241 0.75861 0.84472 0.0
H545 H 0.03861 0.74507 0.83237 0.0
C546 C 0.98811 0.79454 0.84108 0.0
C547 C 0.99137 0.74086 0.84196 0.0
C548 C 0.97746 0.70308 0.84677 0.0
C549 C 0.02199 0.81306 0.83456 0.0
C550 C 0.04017 0.79484 0.83106 0.0
C551 C 0.02459 0.75902 0.83488 0.0
C552 C 0.07562 0.81225 0.82372 0.0
C553 C 0.03817 0.85209 0.83187 0.0
C554 C 0.08189 0.83035 0.80945 0.0
C555 C 0.11497 0.84523 0.80231 0.0
C556 C 0.14202 0.8414 0.80911 0.0
C557 C 0.13568 0.82321 0.82334 0.0
C558 C 0.10291 0.809 0.83062 0.0
H559 H 0.02628 0.86363 0.83964 0.0
H560 H 0.06702 0.86614 0.83392 0.0
H561 H 0.03329 0.85675 0.8196 0.0
H562 H 0.06103 0.83232 0.80363 0.0
H563 H 0.11902 0.85876 0.79124 0.0
H564 H 0.13332 0.88189 0.04188 0.0
H565 H 0.15697 0.93929 0.02914 0.0
H566 H 0.23482 0.92333 0.00568 0.0
H567 H 0.21128 0.86591 0.0182 0.0
H568 H 0.22561 0.9967 0.03133 0.0
H569 H 0.19119 0.95137 0.96995 0.0
H570 H 0.17169 0.92235 0.98648 0.0
H571 H 0.21493 0.93356 0.97983 0.0
C572 C 0.15531 0.89047 0.03392 0.0
C573 C 0.17033 0.86925 0.03101 0.0
C574 C 0.16879 0.92327 0.02667 0.0
C575 C 0.19729 0.93528 0.01631 0.0
C576 C 0.21235 0.91422 0.0134 0.0
H577 H 0.34881 0.14361 0.98625 0.0
H578 H 0.31576 0.08613 0.9988 0.0
C579 C 0.19897 0.88148 0.02064 0.0
C580 C 0.21232 0.97046 0.009 0.0
H581 H 0.23217 0.01244 0.97369 0.0
C582 C 0.22677 1.00017 0.01873 0.0
C583 C 0.21338 0.97486 0.99257 0.0
C584 C 0.19667 0.94385 0.98158 0.0
C585 C 0.24341 0.03427 0.01245 0.0
C586 C 0.246 0.03867 0.99602 0.0
C587 C 0.23043 0.00896 0.98629 0.0
C588 C 0.26568 0.07387 0.98868 0.0
C589 C 0.25808 0.06528 0.02345 0.0
C590 C 0.24858 0.08573 0.97859 0.0
C591 C 0.26743 0.11857 0.97132 0.0
C592 C 0.3038 0.13998 0.97394 0.0
C593 C 0.32082 0.12789 0.98403 0.0
C594 C 0.30194 0.09511 0.99129 0.0
H595 H 0.24562 0.05769 0.03519 0.0
H596 H 0.28675 0.07575 0.02493 0.0
H597 H 0.25422 0.08666 0.01871 0.0
H598 H 0.22063 0.06957 0.97635 0.0
H599 H 0.25355 0.12704 0.96359 0.0
H600 H 0.11422 0.288 0.06439 0.0
H601 H 0.14772 0.28066 0.04335 0.0
H602 H 0.24366 0.36688 0.06173 0.0
H603 H 0.21039 0.37453 0.08288 0.0
H604 H 0.23438 0.36599 0.02754 0.0
H605 H 0.21462 0.23997 0.05182 0.0
H606 H 0.17519 0.24243 0.04951 0.0
H607 H 0.20813 0.27079 0.06329 0.0
C608 C 0.1424 0.30565 0.06391 0.0
C609 C 0.15964 0.33173 0.0754 0.0
C610 C 0.1615 0.30129 0.05191 0.0
C611 C 0.19817 0.32291 0.05114 0.0
C612 C 0.21537 0.34983 0.06219 0.0
H613 H 0.3344 0.27325 0.99554 0.0
H614 H 0.30984 0.29224 0.01658 0.0
C615 C 0.1963 0.35413 0.07427 0.0
C616 C 0.21855 0.31665 0.03902 0.0
H617 H 0.23974 0.25578 0.02647 0.0
C618 C 0.23576 0.34201 0.02732 0.0
C619 C 0.22069 0.28558 0.03893 0.0
C620 C 0.20396 0.2582 0.05162 0.0
C621 C 0.2542 0.33656 0.01522 0.0
C622 C 0.25514 0.30483 0.01479 0.0
C623 C 0.23881 0.27999 0.02677 0.0
C624 C 0.27195 0.29623 1.00179 0.0
C625 C 0.27262 0.36482 1.00303 0.0
C626 C 0.25885 0.29226 0.9865 0.0
C627 C 0.27275 0.28135 0.97446 0.0
C628 C 0.29999 0.27406 0.97749 0.0
C629 C 0.31352 0.27873 0.99278 0.0
C630 C 0.2995 0.28954 0.00483 0.0
H631 H 0.27751 0.39081 0.00726 0.0
H632 H 0.29811 0.36717 0.99961 0.0
H633 H 0.2558 0.35788 0.99243 0.0
H634 H 0.23714 0.29661 0.98395 0.0
H635 H 0.26162 0.27793 0.96284 0.0
H636 H 0.84813 0.11437 0.23689 0.0
H637 H 0.88899 0.14813 0.21599 0.0
H638 H 0.86246 0.22981 0.22162 0.0
H639 H 0.82302 0.19691 0.24326 0.0
H640 H 0.88236 0.16835 0.18896 0.0
H641 H 0.96599 0.28862 0.22345 0.0
H642 H 0.93216 0.24877 0.23235 0.0
H643 H 0.92106 0.27846 0.22272 0.0
C644 C 0.85096 0.13952 0.23367 0.0
C645 C 0.83253 0.1531 0.24178 0.0
C646 C 0.87439 0.15886 0.22171 0.0
C647 C 0.87954 0.19199 0.21739 0.0
C648 C 0.86 0.20495 0.22505 0.0
H649 H 0.98988 0.28387 0.12909 0.0
H650 H 0.94479 0.25684 0.14939 0.0
C651 C 0.83715 0.18596 0.23731 0.0
C652 C 0.90516 0.21244 0.20478 0.0
H653 H 0.97696 0.2921 0.19615 0.0
C654 C 0.90311 0.1954 0.19058 0.0
C655 C 0.93264 0.24761 0.2069 0.0
C656 C 0.93838 0.26681 0.22223 0.0
C657 C 0.92782 0.21218 0.17858 0.0
C658 C 0.95447 0.24779 0.18046 0.0
C659 C 0.95634 0.26498 0.19459 0.0
C660 C 0.98171 0.2671 0.16826 0.0
C661 C 0.92583 0.19089 0.16435 0.0
C662 C 0.01762 0.284 0.1722 0.0
C663 C 0.04343 0.30058 0.16069 0.0
C664 C 0.03384 0.3001 0.14497 0.0
C665 C 0.99799 0.2842 0.14109 0.0
C666 C 0.9722 0.26843 0.15267 0.0
H667 H 0.91157 0.16224 0.16691 0.0
H668 H 0.91123 0.19554 0.15492 0.0
H669 H 0.95246 0.19832 0.15995 0.0
H670 H 0.02575 0.28359 0.18413 0.0
H671 H 0.07088 0.31257 0.16401 0.0
H672 H 0.70944 0.98507 0.29547 0.0
H673 H 0.68948 0.93989 0.3158 0.0
H674 H 0.74227 0.02056 0.35077 0.0
H675 H 0.7603 0.06575 0.33059 0.0
H676 H 0.72437 0.92186 0.33305 0.0
H677 H 0.65331 0.96293 0.37323 0.0
H678 H 0.66733 0.98214 0.35408 0.0
H679 H 0.69739 0.99827 0.37042 0.0
C680 C 0.71618 0.99311 0.30755 0.0
C681 C 0.73617 0.02889 0.31148 0.0
C682 C 0.70484 0.96729 0.31917 0.0
C683 C 0.71379 0.97665 0.33494 0.0
C684 C 0.73385 0.0125 0.33883 0.0
H685 H 0.73651 0.84482 0.40331 0.0
H686 H 0.74237 0.88395 0.38184 0.0
C687 C 0.74442 0.03838 0.32726 0.0
C688 C 0.70444 0.94892 0.34705 0.0
H689 H 0.67241 0.92461 0.38415 0.0
C690 C 0.71252 0.92225 0.34413 0.0
C691 C 0.68833 0.94875 0.36144 0.0
C692 C 0.67574 0.97435 0.36489 0.0
C693 C 0.70601 0.89624 0.3553 0.0
C694 C 0.69252 0.89775 0.37015 0.0
C695 C 0.68331 0.92367 0.37289 0.0
C696 C 0.68862 0.87336 0.38312 0.0
C697 C 0.71322 0.86716 0.35087 0.0
C698 C 0.65688 0.85527 0.3915 0.0
C699 C 0.6538 0.83358 0.40413 0.0
C700 C 0.68227 0.82921 0.40849 0.0
C701 C 0.71389 0.84712 0.40005 0.0
C702 C 0.71719 0.86936 0.38767 0.0
H703 H 0.71053 0.86235 0.33804 0.0
H704 H 0.74068 0.875 0.3541 0.0
H705 H 0.69507 0.84216 0.35692 0.0
H706 H 0.63449 0.85803 0.38831 0.0
H707 H 0.62915 0.82021 0.41046 0.0
H708 H 0.89567 0.7183 0.56472 0.0
H709 H 0.86138 0.72511 0.5439 0.0
H710 H 0.76606 0.63987 0.56323 0.0
H711 H 0.80017 0.63273 0.58419 0.0
H712 H 0.7737 0.63975 0.52891 0.0
H713 H 0.79554 0.76677 0.5528 0.0
H714 H 0.83473 0.76399 0.55023 0.0
H715 H 0.80228 0.73608 0.56428 0.0
C716 C 0.86745 0.70074 0.56451 0.0
C717 C 0.85065 0.6751 0.57621 0.0
C718 C 0.84789 0.7048 0.55262 0.0
C719 C 0.81118 0.68333 0.55218 0.0
C720 C 0.79439 0.6568 0.56344 0.0
H721 H 0.67525 0.73422 0.49682 0.0
H722 H 0.69949 0.71481 0.51786 0.0
C723 C 0.81393 0.65279 0.5754 0.0
C724 C 0.79041 0.68946 0.54019 0.0
H725 H 0.76986 0.75075 0.52754 0.0
C726 C 0.77262 0.66388 0.52864 0.0
C727 C 0.78867 0.72075 0.54003 0.0
C728 C 0.80604 0.74841 0.55256 0.0
C729 C 0.75407 0.66936 0.51658 0.0
C730 C 0.75359 0.70133 0.51605 0.0
C731 C 0.77043 0.72635 0.52791 0.0
C732 C 0.73682 0.71001 0.50305 0.0
C733 C 0.73509 0.64091 0.50453 0.0
C734 C 0.74971 0.71366 0.48773 0.0
C735 C 0.736 0.72483 0.47569 0.0
C736 C 0.70918 0.73269 0.47874 0.0
C737 C 0.69581 0.7283 0.49405 0.0
C738 C 0.70965 0.71724 0.5061 0.0
H739 H 0.72997 0.6149 0.50885 0.0
H740 H 0.70966 0.63885 0.50119 0.0
H741 H 0.75162 0.64745 0.49386 0.0
H742 H 0.77113 0.70888 0.48517 0.0
H743 H 0.74699 0.72801 0.46406 0.0
H744 H 0.15823 0.79818 0.75407 0.0
H745 H 0.11798 0.76452 0.73275 0.0
H746 H 0.15448 0.85976 0.70602 0.0
H747 H 0.19452 0.89374 0.7273 0.0
H748 H 0.06455 0.78496 0.71956 0.0
H749 H 0.15773 0.78152 0.6764 0.0
H750 H 0.16636 0.78569 0.69721 0.0
H751 H 0.1708 0.82252 0.68626 0.0
C752 C 0.15805 0.81193 0.74358 0.0
C753 C 0.17957 0.84867 0.74239 0.0
C754 C 0.13499 0.79266 0.73144 0.0
C755 C 0.13349 0.80969 0.71783 0.0
C756 C 0.15553 0.84616 0.71641 0.0
H757 H 0.0156 0.75556 0.63183 0.0
H758 H 0.05918 0.78114 0.65276 0.0
C759 C 0.1783 0.86551 0.72859 0.0
C760 C 0.10734 0.78982 0.70548 0.0
H761 H 0.09919 0.76013 0.66796 0.0
C762 C 0.07195 0.77919 0.70831 0.0
C763 C 0.11732 0.78278 0.69083 0.0
C764 C 0.15508 0.79347 0.6874 0.0
C765 C 0.04624 0.76246 0.69667 0.0
C766 C 0.05612 0.75522 0.68196 0.0
C767 C 0.09158 0.76552 0.67924 0.0
C768 C 0.03034 0.73837 0.66903 0.0
C769 C 0.00907 0.75406 0.70006 0.0
C770 C 1.0 0.70536 0.67104 0.0
C771 C 0.97479 0.69082 0.65914 0.0
C772 C 0.97976 0.70873 0.64488 0.0
C773 C 0.01091 0.74106 0.64266 0.0
C774 C 0.03588 0.75574 0.65462 0.0
H775 H 0.00804 0.76981 0.71001 0.0
H776 H 0.99701 0.75905 0.68967 0.0
H777 H 0.99291 0.72587 0.70324 0.0
H778 H 0.99559 0.69098 0.68188 0.0
H779 H 0.95127 0.6657 0.66117 0.0
H780 H 0.38226 0.18983 0.90876 0.0
H781 H 0.37753 0.15282 0.88638 0.0
H782 H 0.26905 0.12509 0.88014 0.0
H783 H 0.27429 0.16347 0.90182 0.0
H784 H 0.34094 0.08653 0.88206 0.0
H785 H 0.29989 0.14703 0.83631 0.0
H786 H 0.3153 0.16732 0.85518 0.0
H787 H 0.26988 0.13385 0.85242 0.0
C788 C 0.3576 0.17625 0.90242 0.0
C789 C 0.32878 0.17987 0.90691 0.0
C790 C 0.35488 0.15504 0.88966 0.0
C791 C 0.32315 0.13666 0.88128 0.0
C792 C 0.29423 0.13994 0.88596 0.0
H793 H 0.25221 0.94376 0.82995 0.0
H794 H 0.27057 0.9899 0.84964 0.0
C795 C 0.29717 0.16173 0.89846 0.0
C796 C 0.31953 0.11252 0.86826 0.0
H797 H 0.28641 0.08748 0.83138 0.0
C798 C 0.3295 0.08712 0.87089 0.0
C799 C 0.30539 0.1136 0.85349 0.0
C800 C 0.29743 0.14221 0.84914 0.0
C801 C 0.32446 0.06203 0.85946 0.0
C802 C 0.30751 0.06124 0.84522 0.0
C803 C 0.29884 0.08751 0.84236 0.0
C804 C 0.29764 0.03305 0.8333 0.0
C805 C 0.33788 0.03703 0.86278 0.0
C806 C 0.30549 0.04166 0.8174 0.0
C807 C 0.29392 0.01523 0.80604 0.0
C808 C 0.27478 0.97964 0.81039 0.0
C809 C 0.26744 0.97098 0.82629 0.0
C810 C 0.27822 0.9974 0.83759 0.0
H811 H 0.36086 0.0491 0.87082 0.0
H812 H 0.31688 0.01317 0.86863 0.0
H813 H 0.34576 0.02903 0.85189 0.0
H814 H 0.32028 0.0689 0.81373 0.0
H815 H 0.29993 0.02265 0.79386 0.0
H816 H 0.72332 0.89817 0.77656 0.0
H817 H 0.73052 0.86498 0.79779 0.0
H818 H 0.6443 0.76888 0.77957 0.0
H819 H 0.63676 0.80183 0.75823 0.0
H820 H 0.6451 0.77831 0.8137 0.0
H821 H 0.77146 0.79837 0.78963 0.0
H822 H 0.76887 0.8377 0.79193 0.0
H823 H 0.74067 0.80484 0.77809 0.0
C824 C 0.70564 0.87002 0.77711 0.0
C825 C 0.6796 0.85264 0.76561 0.0
C826 C 0.70991 0.85109 0.78923 0.0
C827 C 0.68826 0.81447 0.7901 0.0
C828 C 0.66136 0.79714 0.77903 0.0
H829 H 0.73584 0.67601 0.84472 0.0
H830 H 0.71736 0.70191 0.82407 0.0
C831 C 0.65713 0.81603 0.76685 0.0
C832 C 0.69454 0.79422 0.80229 0.0
H833 H 0.75527 0.77275 0.81484 0.0
C834 C 0.66908 0.77693 0.81395 0.0
C835 C 0.72565 0.79211 0.80242 0.0
C836 C 0.75317 0.80896 0.78979 0.0
C837 C 0.67441 0.75831 0.82602 0.0
C838 C 0.70609 0.75724 0.82644 0.0
C839 C 0.73109 0.77379 0.81454 0.0
C840 C 0.71429 0.73968 0.83925 0.0
C841 C 0.64605 0.73974 0.83815 0.0
C842 C 0.71856 0.75225 0.85465 0.0
C843 C 0.7292 0.73757 0.86649 0.0
C844 C 0.73588 0.71009 0.86313 0.0
C845 C 0.73084 0.69707 0.84774 0.0
C846 C 0.72032 0.71185 0.83591 0.0
H847 H 0.6202 0.73552 0.83402 0.0
H848 H 0.64323 0.7139 0.84127 0.0
H849 H 0.6533 0.75604 0.84891 0.0
H850 H 0.71466 0.77412 0.85743 0.0
H851 H 0.73292 0.74831 0.87819 0.0
H852 H 0.82995 0.72047 0.94344 0.0
H853 H 0.87131 0.72756 0.96421 0.0
H854 H 0.8822 0.64304 0.94467 0.0
H855 H 0.84071 0.63562 0.92378 0.0
H856 H 0.87462 0.64231 0.97885 0.0
H857 H 0.97884 0.77046 0.95536 0.0
H858 H 0.93667 0.7671 0.95814 0.0
H859 H 0.94145 0.73979 0.94385 0.0
C860 C 0.84085 0.70314 0.9436 0.0
C861 C 0.83216 0.67761 0.93186 0.0
C862 C 0.86461 0.70735 0.95545 0.0
C863 C 0.88015 0.68617 0.95582 0.0
C864 C 0.87058 0.65976 0.94452 0.0
H865 H 0.06814 0.73665 0.01003 0.0
H866 H 0.02389 0.71774 0.98928 0.0
C867 C 0.84688 0.65558 0.9326 0.0
C868 C 0.90717 0.6924 0.96777 0.0
H869 H 0.98904 0.75391 0.98039 0.0
C870 C 0.89973 0.6666 0.97917 0.0
C871 C 0.94007 0.7239 0.96799 0.0
C872 C 0.95001 0.75184 0.95562 0.0
C873 C 0.92399 0.67198 0.99111 0.0
C874 C 0.95633 0.70408 0.99167 0.0
C875 C 0.96414 0.7294 0.97999 0.0
C876 C 0.98215 0.71251 0.00449 0.0
C877 C 0.91492 0.64326 1.00297 0.0
C878 C 0.97333 0.71572 0.01994 0.0
C879 C 0.99856 0.7266 0.03183 0.0
C880 C 0.03318 0.73459 0.02848 0.0
C881 C 0.04172 0.73061 0.01304 0.0
C882 C 0.01649 0.71985 1.00115 0.0
H883 H 0.89391 0.61733 0.99863 0.0
H884 H 0.93842 0.6412 0.00602 0.0
H885 H 0.90525 0.64952 0.01382 0.0
H886 H 0.94718 0.71082 0.02274 0.0
H887 H 0.99109 0.72948 0.04357 0.0
H888 H 0.21065 0.84141 0.08994 0.0
H889 H 0.24363 0.88186 0.11126 0.0
H890 H 0.14699 0.86875 0.13048 0.0
H891 H 0.1138 0.8285 0.10923 0.0
H892 H 0.20086 0.93969 0.1264 0.0
H893 H 0.24882 0.86135 0.15826 0.0
H894 H 0.25703 0.86593 0.13754 0.0
H895 H 0.21259 0.84182 0.14459 0.0
C896 C 0.19634 0.84678 0.09881 0.0
C897 C 0.15955 0.83168 0.09787 0.0
C898 C 0.21524 0.86981 0.11102 0.0
C899 C 0.19771 0.87807 0.12251 0.0
C900 C 0.16099 0.86263 0.12175 0.0
H901 H 0.26449 0.98835 0.21039 0.0
H902 H 0.23858 0.94525 0.18928 0.0
C903 C 0.14207 0.83956 0.10959 0.0
C904 C 0.21766 0.90429 0.13487 0.0
H905 H 0.27017 0.91984 0.16688 0.0
C906 C 0.21609 0.93542 0.13523 0.0
C907 C 0.23731 0.89848 0.14642 0.0
C908 C 0.23895 0.86499 0.14684 0.0
C909 C 0.23362 0.96094 0.14684 0.0
C910 C 0.25357 0.95533 0.15829 0.0
C911 C 0.25512 0.92417 0.15797 0.0
C912 C 0.27151 0.98084 0.17114 0.0
C913 C 0.22996 0.99333 0.14699 0.0
C914 C 0.29922 0.0149 0.16797 0.0
C915 C 0.31417 0.03965 0.18002 0.0
C916 C 0.30162 0.03074 0.19545 0.0
C917 C 0.27469 0.99617 0.19864 0.0
C918 C 0.25987 0.97145 0.1866 0.0
H919 H 0.20816 0.99035 0.13933 0.0
H920 H 0.22517 0.99932 0.15906 0.0
H921 H 0.25477 0.01616 0.14272 0.0
H922 H 0.30888 0.02251 0.15613 0.0
H923 H 0.33494 0.06598 0.17717 0.0
H924 H 0.38452 0.19822 0.26386 0.0
H925 H 0.37931 0.23059 0.28609 0.0
H926 H 0.27156 0.14849 0.29271 0.0
H927 H 0.27729 0.11534 0.27118 0.0
H928 H 0.34133 0.25912 0.29039 0.0
H929 H 0.30366 0.15868 0.33645 0.0
H930 H 0.31905 0.15403 0.31754 0.0
H931 H 0.27341 0.14107 0.32044 0.0
C932 C 0.35993 0.18688 0.27025 0.0
C933 C 0.33146 0.15404 0.26591 0.0
C934 C 0.35693 0.20543 0.28292 0.0
C935 C 0.32526 0.1917 0.29137 0.0
C936 C 0.29669 0.15913 0.28684 0.0
H937 H 0.2521 0.31123 0.34354 0.0
H938 H 0.27064 0.28425 0.3235 0.0
C939 C 0.29992 0.14026 0.27442 0.0
C940 C 0.32136 0.2121 0.30436 0.0
H941 H 0.2892 0.20398 0.34142 0.0
C942 C 0.33041 0.24719 0.30164 0.0
C943 C 0.30787 0.197 0.31921 0.0
C944 C 0.30086 0.16077 0.32363 0.0
C945 C 0.32513 0.26708 0.31307 0.0
C946 C 0.30892 0.25099 0.32743 0.0
C947 C 0.30109 0.21632 0.33036 0.0
C948 C 0.29914 0.26912 0.33949 0.0
C949 C 0.33754 0.30524 0.30965 0.0
C950 C 0.30786 0.26873 0.3553 0.0
C951 C 0.29622 0.2831 0.36684 0.0
C952 C 0.27614 0.29873 0.36278 0.0
C953 C 0.26804 0.29985 0.34697 0.0
C954 C 0.27891 0.28467 0.33547 0.0
H955 H 0.36011 0.31643 0.30139 0.0
H956 H 0.31589 0.30738 0.30402 0.0
H957 H 0.34566 0.32136 0.32048 0.0
H958 H 0.32332 0.25685 0.35876 0.0
H959 H 0.30285 0.28189 0.37895 0.0
H960 H 0.18233 0.28525 0.44325 0.0
H961 H 0.14166 0.27793 0.46437 0.0
H962 H 0.13195 0.36419 0.44611 0.0
H963 H 0.17268 0.37182 0.42487 0.0
H964 H 0.14051 0.36301 0.4804 0.0
H965 H 0.03394 0.23743 0.45583 0.0
H966 H 0.07587 0.23993 0.4581 0.0
H967 H 0.07129 0.26839 0.4444 0.0
C968 C 0.17184 0.30292 0.44377 0.0
C969 C 0.18062 0.329 0.43229 0.0
C970 C 0.14849 0.29858 0.45583 0.0
C971 C 0.1335 0.32022 0.45666 0.0
C972 C 0.14317 0.34713 0.44561 0.0
H973 H 0.94691 0.27239 0.51098 0.0
H974 H 0.99136 0.29076 0.49038 0.0
C975 C 0.16642 0.35142 0.43348 0.0
C976 C 0.10685 0.3139 0.46879 0.0
H977 H 0.02432 0.25336 0.48105 0.0
C978 C 0.11504 0.33914 0.48054 0.0
C979 C 0.0735 0.28295 0.46878 0.0
C980 C 0.06284 0.25568 0.45605 0.0
C981 C 0.09099 0.33376 0.49257 0.0
C982 C 0.0581 0.30221 0.49285 0.0
C983 C 0.04963 0.27743 0.48086 0.0
C984 C 0.03221 0.29392 0.50562 0.0
C985 C 0.10084 0.36194 0.50479 0.0
C986 C 0.04047 0.2897 0.52104 0.0
C987 C 0.01512 0.27916 0.53285 0.0
C988 C 0.98094 0.27248 0.52945 0.0
C989 C 0.97297 0.27738 0.51403 0.0
C990 C 0.99832 0.28784 0.50223 0.0
H991 H 0.12244 0.38782 0.50071 0.0
H992 H 0.07783 0.36471 0.50799 0.0
H993 H 0.11001 0.35457 0.51549 0.0
H994 H 0.06625 0.2936 0.52387 0.0
H995 H 0.02213 0.27552 0.54458 0.0
H996 H 0.67722 0.94268 0.67718 0.0
H997 H 0.70329 0.98654 0.6563 0.0
H998 H 0.773 0.06341 0.68973 0.0
H999 H 0.74708 0.01989 0.7107 0.0
H1000 H 0.74104 0.08877 0.66719 0.0
H1001 H 0.80463 0.0196 0.63988 0.0
H1002 H 0.75802 0.99341 0.64318 0.0
H1003 H 0.78747 0.01041 0.65957 0.0
C1004 C 0.69786 0.969 0.68014 0.0
C1005 C 0.71024 0.97768 0.6956 0.0
C1006 C 0.71281 0.99398 0.66817 0.0
C1007 C 0.74035 0.02805 0.67146 0.0
C1008 C 0.75183 0.03721 0.68696 0.0
H1009 H 0.89864 0.18178 0.61041 0.0
H1010 H 0.86503 0.14142 0.63155 0.0
C1011 C 0.73702 0.01225 0.69891 0.0
C1012 C 0.75833 0.05378 0.6587 0.0
H1013 H 0.81174 0.07026 0.62702 0.0
C1014 C 0.75639 0.08473 0.65836 0.0
C1015 C 0.77865 0.04854 0.64732 0.0
C1016 C 0.78268 0.01636 0.64749 0.0
C1017 C 0.7742 0.11059 0.64686 0.0
C1018 C 0.79427 0.10518 0.63541 0.0
C1019 C 0.7962 0.07424 0.63578 0.0
C1020 C 0.81441 0.13166 0.62317 0.0
C1021 C 0.77214 0.14384 0.64725 0.0
C1022 C 0.79708 0.13977 0.6115 0.0
C1023 C 0.81624 0.16288 0.59935 0.0
C1024 C 0.85308 0.1782 0.59864 0.0
C1025 C 0.87034 0.17055 0.61058 0.0
C1026 C 0.85118 0.14742 0.62267 0.0
H1027 H 0.76171 0.14713 0.65858 0.0
H1028 H 0.79848 0.16723 0.64521 0.0
H1029 H 0.75437 0.1429 0.63778 0.0
H1030 H 0.76867 0.12749 0.61155 0.0
H1031 H 0.80209 0.16806 0.59032 0.0
loop_
_geom_bond_atom_site_label_1
_geom_bond_atom_site_label_2
_geom_bond_distance
_geom_bond_site_symmetry_2
_ccdc_geom_bond_type
C0 O2 1.247 . S
C0 O4 1.258 . S
C1 O8 1.247 . S
C1 O9 1.258 . S
O2 C0 1.247 . S
O2 Zn3 2.028 . S
Zn3 O2 2.028 . S
Zn3 O7 2.035 . S
Zn3 O9 2.035 . S
Zn3 O10 2.028 . S
O4 C0 1.258 . S
O4 Zn5 2.035 . S
Zn5 O4 2.035 . S
Zn5 O6 2.028 . S
Zn5 O8 2.028 . S
Zn5 O11 2.035 . S
O6 Zn5 2.028 . S
O6 C12 1.247 . S
O7 Zn3 2.035 . S
O7 C12 1.258 . S
O8 C1 1.247 . S
O8 Zn5 2.028 . S
O9 C1 1.258 . S
O9 Zn3 2.035 . S
O10 Zn3 2.028 . S
O10 C13 1.247 . S
O11 Zn5 2.035 . S
O11 C13 1.258 . S
C12 O6 1.247 . S
C12 O7 1.258 . S
C13 O10 1.247 . S
C13 O11 1.258 . S
C14 O16 1.247 . S
C14 O18 1.258 . S
C15 O22 1.247 . S
C15 O23 1.258 . S
O16 C14 1.247 . S
O16 Zn17 2.028 . S
Zn17 O16 2.028 . S
Zn17 O21 2.035 . S
Zn17 O23 2.035 . S
Zn17 O24 2.028 . S
O18 C14 1.258 . S
O18 Zn19 2.035 . S
Zn19 O18 2.035 . S
Zn19 O20 2.028 . S
Zn19 O22 2.028 . S
Zn19 O25 2.035 . S
O20 Zn19 2.028 . S
O20 C26 1.247 . S
O21 Zn17 2.035 . S
O21 C26 1.258 . S
O22 C15 1.247 . S
O22 Zn19 2.028 . S
O23 C15 1.258 . S
O23 Zn17 2.035 . S
O24 Zn17 2.028 . S
O24 C27 1.247 . S
O25 Zn19 2.035 . S
O25 C27 1.258 . S
C26 O20 1.247 . S
C26 O21 1.258 . S
C27 O24 1.247 . S
C27 O25 1.258 . S
C28 O30 1.247 . S
C28 O32 1.258 . S
C29 O36 1.247 . S
C29 O37 1.258 . S
O30 C28 1.247 . S
O30 Zn31 2.028 . S
Zn31 O30 2.028 . S
Zn31 O35 2.035 . S
Zn31 O37 2.035 . S
Zn31 O38 2.028 . S
O32 C28 1.258 . S
O32 Zn33 2.035 . S
Zn33 O32 2.035 . S
Zn33 O34 2.028 . S
Zn33 O36 2.028 . S
Zn33 O39 2.035 . S
O34 Zn33 2.028 . S
O34 C40 1.247 . S
O35 Zn31 2.035 . S
O35 C40 1.258 . S
O36 C29 1.247 . S
O36 Zn33 2.028 . S
O37 C29 1.258 . S
O37 Zn31 2.035 . S
O38 Zn31 2.028 . S
O38 C41 1.247 . S
O39 Zn33 2.035 . S
O39 C41 1.258 . S
C40 O34 1.247 . S
C40 O35 1.258 . S
C41 O38 1.247 . S
C41 O39 1.258 . S
C42 O44 1.247 . S
C42 O46 1.258 . S
C43 O50 1.247 . S
C43 O51 1.258 . S
O44 C42 1.247 . S
O44 Zn45 2.028 . S
Zn45 O44 2.028 . S
Zn45 O49 2.035 . S
Zn45 O51 2.035 . S
Zn45 O52 2.028 . S
O46 C42 1.258 . S
O46 Zn47 2.035 . S
Zn47 O46 2.035 . S
Zn47 O48 2.028 . S
Zn47 O50 2.028 . S
Zn47 O53 2.035 . S
O48 Zn47 2.028 . S
O48 C54 1.247 . S
O49 Zn45 2.035 . S
O49 C54 1.258 . S
O50 C43 1.247 . S
O50 Zn47 2.028 . S
O51 C43 1.258 . S
O51 Zn45 2.035 . S
O52 Zn45 2.028 . S
O52 C55 1.247 . S
O53 Zn47 2.035 . S
O53 C55 1.258 . S
C54 O48 1.247 . S
C54 O49 1.258 . S
C55 O52 1.247 . S
C55 O53 1.258 . S
C56 O58 1.247 . S
C56 O60 1.258 . S
C57 O64 1.247 . S
C57 O65 1.258 . S
O58 C56 1.247 . S
O58 Zn59 2.028 . S
Zn59 O58 2.028 . S
Zn59 O63 2.035 . S
Zn59 O65 2.035 . S
Zn59 O66 2.028 . S
O60 C56 1.258 . S
O60 Zn61 2.035 . S
Zn61 O60 2.035 . S
Zn61 O62 2.028 . S
Zn61 O64 2.028 . S
Zn61 O67 2.035 . S
O62 Zn61 2.028 . S
O62 C68 1.247 . S
O63 Zn59 2.035 . S
O63 C68 1.258 . S
O64 C57 1.247 . S
O64 Zn61 2.028 . S
O65 C57 1.258 . S
O65 Zn59 2.035 . S
O66 Zn59 2.028 . S
O66 C69 1.247 . S
O67 Zn61 2.035 . S
O67 C69 1.258 . S
C68 O62 1.247 . S
C68 O63 1.258 . S
C69 O66 1.247 . S
C69 O67 1.258 . S
C70 O72 1.247 . S
C70 O74 1.258 . S
C71 O78 1.247 . S
C71 O79 1.258 . S
O72 C70 1.247 . S
O72 Zn73 2.028 . S
Zn73 O72 2.028 . S
Zn73 O77 2.035 . S
Zn73 O79 2.035 . S
Zn73 O80 2.028 . S
O74 C70 1.258 . S
O74 Zn75 2.035 . S
Zn75 O74 2.035 . S
Zn75 O76 2.028 . S
Zn75 O78 2.028 . S
Zn75 O81 2.035 . S
O76 Zn75 2.028 . S
O76 C82 1.247 . S
O77 Zn73 2.035 . S
O77 C82 1.258 . S
O78 C71 1.247 . S
O78 Zn75 2.028 . S
O79 C71 1.258 . S
O79 Zn73 2.035 . S
O80 Zn73 2.028 . S
O80 C83 1.247 . S
O81 Zn75 2.035 . S
O81 C83 1.258 . S
C82 O76 1.247 . S
C82 O77 1.258 . S
C83 O80 1.247 . S
C83 O81 1.258 . S
C84 O86 1.247 . S
C84 O88 1.258 . S
C85 O92 1.247 . S
C85 O93 1.258 . S
O86 C84 1.247 . S
O86 Zn87 2.028 . S
Zn87 O86 2.028 . S
Zn87 O91 2.035 . S
Zn87 O93 2.035 . S
Zn87 O94 2.028 . S
O88 C84 1.258 . S
O88 Zn89 2.035 . S
Zn89 O88 2.035 . S
Zn89 O90 2.028 . S
Zn89 O92 2.028 . S
Zn89 O95 2.035 . S
O90 Zn89 2.028 . S
O90 C96 1.247 . S
O91 Zn87 2.035 . S
O91 C96 1.258 . S
O92 C85 1.247 . S
O92 Zn89 2.028 . S
O93 C85 1.258 . S
O93 Zn87 2.035 . S
O94 Zn87 2.028 . S
O94 C97 1.247 . S
O95 Zn89 2.035 . S
O95 C97 1.258 . S
C96 O90 1.247 . S
C96 O91 1.258 . S
C97 O94 1.247 . S
C97 O95 1.258 . S
C98 O100 1.247 . S
C98 O102 1.258 . S
C99 O106 1.247 . S
C99 O107 1.258 . S
O100 C98 1.247 . S
O100 Zn101 2.028 . S
Zn101 O100 2.028 . S
Zn101 O105 2.035 . S
Zn101 O107 2.035 . S
Zn101 O108 2.028 . S
O102 C98 1.258 . S
O102 Zn103 2.035 . S
Zn103 O102 2.035 . S
Zn103 O104 2.028 . S
Zn103 O106 2.028 . S
Zn103 O109 2.035 . S
O104 Zn103 2.028 . S
O104 C110 1.247 . S
O105 Zn101 2.035 . S
O105 C110 1.258 . S
O106 C99 1.247 . S
O106 Zn103 2.028 . S
O107 C99 1.258 . S
O107 Zn101 2.035 . S
O108 Zn101 2.028 . S
O108 C111 1.247 . S
O109 Zn103 2.035 . S
O109 C111 1.258 . S
C110 O104 1.247 . S
C110 O105 1.258 . S
C111 O108 1.247 . S
C111 O109 1.258 . S
C112 O114 1.247 . S
C112 O116 1.258 . S
C113 O120 1.247 . S
C113 O121 1.258 . S
O114 C112 1.247 . S
O114 Zn115 2.028 . S
Zn115 O114 2.028 . S
Zn115 O119 2.035 . S
Zn115 O121 2.035 . S
Zn115 O122 2.028 . S
O116 C112 1.258 . S
O116 Zn117 2.035 . S
Zn117 O116 2.035 . S
Zn117 O118 2.028 . S
Zn117 O120 2.028 . S
Zn117 O123 2.035 . S
O118 Zn117 2.028 . S
O118 C124 1.247 . S
O119 Zn115 2.035 . S
O119 C124 1.258 . S
O120 C113 1.247 . S
O120 Zn117 2.028 . S
O121 C113 1.258 . S
O121 Zn115 2.035 . S
O122 Zn115 2.028 . S
O122 C125 1.247 . S
O123 Zn117 2.035 . S
O123 C125 1.258 . S
C124 O118 1.247 . S
C124 O119 1.258 . S
C125 O122 1.247 . S
C125 O123 1.258 . S
C126 O128 1.247 . S
C126 O130 1.258 . S
C127 O134 1.247 . S
C127 O135 1.258 . S
O128 C126 1.247 . S
O128 Zn129 2.028 . S
Zn129 O128 2.028 . S
Zn129 O133 2.035 . S
Zn129 O135 2.035 . S
Zn129 O136 2.028 . S
O130 C126 1.258 . S
O130 Zn131 2.035 . S
Zn131 O130 2.035 . S
Zn131 O132 2.028 . S
Zn131 O134 2.028 . S
Zn131 O137 2.035 . S
O132 Zn131 2.028 . S
O132 C138 1.247 . S
O133 Zn129 2.035 . S
O133 C138 1.258 . S
O134 C127 1.247 . S
O134 Zn131 2.028 . S
O135 C127 1.258 . S
O135 Zn129 2.035 . S
O136 Zn129 2.028 . S
O136 C139 1.247 . S
O137 Zn131 2.035 . S
O137 C139 1.258 . S
C138 O132 1.247 . S
C138 O133 1.258 . S
C139 O136 1.247 . S
C139 O137 1.258 . S
C140 O142 1.247 . S
C140 O144 1.258 . S
C141 O148 1.247 . S
C141 O149 1.258 . S
O142 C140 1.247 . S
O142 Zn143 2.028 . S
Zn143 O142 2.028 . S
Zn143 O147 2.035 . S
Zn143 O149 2.035 . S
Zn143 O150 2.028 . S
O144 C140 1.258 . S
O144 Zn145 2.035 . S
Zn145 O144 2.035 . S
Zn145 O146 2.028 . S
Zn145 O148 2.028 . S
Zn145 O151 2.035 . S
O146 Zn145 2.028 . S
O146 C152 1.247 . S
O147 Zn143 2.035 . S
O147 C152 1.258 . S
O148 C141 1.247 . S
O148 Zn145 2.028 . S
O149 C141 1.258 . S
O149 Zn143 2.035 . S
O150 Zn143 2.028 . S
O150 C153 1.247 . S
O151 Zn145 2.035 . S
O151 C153 1.258 . S
C152 O146 1.247 . S
C152 O147 1.258 . S
C153 O150 1.247 . S
C153 O151 1.258 . S
C154 O156 1.247 . S
C154 O158 1.258 . S
C155 O162 1.247 . S
C155 O163 1.258 . S
O156 C154 1.247 . S
O156 Zn157 2.028 . S
Zn157 O156 2.028 . S
Zn157 O161 2.035 . S
Zn157 O163 2.035 . S
Zn157 O164 2.028 . S
O158 C154 1.258 . S
O158 Zn159 2.035 . S
Zn159 O158 2.035 . S
Zn159 O160 2.028 . S
Zn159 O162 2.028 . S
Zn159 O165 2.035 . S
O160 Zn159 2.028 . S
O160 C166 1.247 . S
O161 Zn157 2.035 . S
O161 C166 1.258 . S
O162 C155 1.247 . S
O162 Zn159 2.028 . S
O163 C155 1.258 . S
O163 Zn157 2.035 . S
O164 Zn157 2.028 . S
O164 C167 1.247 . S
O165 Zn159 2.035 . S
O165 C167 1.258 . S
C166 O160 1.247 . S
C166 O161 1.258 . S
C167 O164 1.247 . S
C167 O165 1.258 . S
H168 C176 0.929 . S
H169 C178 0.930 . S
H170 C180 0.930 . S
H171 C183 0.929 . S
H172 C186 0.930 . S
H173 C188 0.960 . S
H174 C188 0.960 . S
H175 C188 0.960 . S
C176 H168 0.929 . S
C176 C177 1.377 . S
C176 C178 1.384 . S
C177 C176 1.377 . S
C177 C183 1.390 . S
C178 H169 0.930 . S
C178 C176 1.384 . S
C178 C179 1.372 . S
C179 C178 1.372 . S
C179 C180 1.400 . S
C179 C184 1.490 . S
C180 H170 0.930 . S
C180 C179 1.400 . S
C180 C183 1.386 . S
H181 C197 0.930 . S
H182 C198 0.931 . S
C183 H171 0.929 . S
C183 C177 1.390 . S
C183 C180 1.386 . S
C184 C179 1.490 . S
C184 C186 1.395 . S
C184 C187 1.403 . S
H185 C191 0.930 . S
C186 H172 0.930 . S
C186 C184 1.395 . S
C186 C189 1.403 . S
C187 C184 1.403 . S
C187 C188 1.524 . S
C187 C191 1.400 . S
C188 H173 0.960 . S
C188 H174 0.960 . S
C188 H175 0.960 . S
C188 C187 1.524 . S
C189 C186 1.403 . S
C189 C190 1.392 . S
C189 C193 1.495 . S
C190 C189 1.392 . S
C190 C191 1.385 . S
C190 C192 1.478 . S
C191 H185 0.930 . S
C191 C187 1.400 . S
C191 C190 1.385 . S
C192 C190 1.478 . S
C192 C194 1.381 . S
C192 C198 1.383 . S
C193 C189 1.495 . S
C193 H199 0.959 . S
C193 H200 0.961 . S
C193 H201 0.960 . S
C194 C192 1.381 . S
C194 C195 1.394 . S
C194 H202 0.930 . S
C195 C194 1.394 . S
C195 C196 1.383 . S
C195 H203 0.929 . S
C196 C195 1.383 . S
C196 C197 1.377 . S
C197 H181 0.930 . S
C197 C196 1.377 . S
C197 C198 1.379 . S
C198 H182 0.931 . S
C198 C192 1.383 . S
C198 C197 1.379 . S
H199 C193 0.959 . S
H200 C193 0.961 . S
H201 C193 0.960 . S
H202 C194 0.930 . S
H203 C195 0.929 . S
H204 C212 0.929 . S
H205 C214 0.930 . S
H206 C216 0.930 . S
H207 C219 0.929 . S
H208 C222 0.930 . S
H209 C224 0.960 . S
H210 C224 0.960 . S
H211 C224 0.960 . S
C212 H204 0.929 . S
C212 C213 1.377 . S
C212 C214 1.384 . S
C213 C212 1.377 . S
C213 C219 1.390 . S
C214 H205 0.930 . S
C214 C212 1.384 . S
C214 C215 1.372 . S
C215 C214 1.372 . S
C215 C216 1.400 . S
C215 C220 1.490 . S
C216 H206 0.930 . S
C216 C215 1.400 . S
C216 C219 1.386 . S
H217 C233 0.930 . S
H218 C234 0.931 . S
C219 H207 0.929 . S
C219 C213 1.390 . S
C219 C216 1.386 . S
C220 C215 1.490 . S
C220 C222 1.395 . S
C220 C223 1.403 . S
H221 C227 0.930 . S
C222 H208 0.930 . S
C222 C220 1.395 . S
C222 C225 1.403 . S
C223 C220 1.403 . S
C223 C224 1.524 . S
C223 C227 1.400 . S
C224 H209 0.960 . S
C224 H210 0.960 . S
C224 H211 0.960 . S
C224 C223 1.524 . S
C225 C222 1.403 . S
C225 C226 1.392 . S
C225 C229 1.495 . S
C226 C225 1.392 . S
C226 C227 1.385 . S
C226 C228 1.478 . S
C227 H221 0.930 . S
C227 C223 1.400 . S
C227 C226 1.385 . S
C228 C226 1.478 . S
C228 C230 1.381 . S
C228 C234 1.383 . S
C229 C225 1.495 . S
C229 H235 0.959 . S
C229 H236 0.961 . S
C229 H237 0.960 . S
C230 C228 1.381 . S
C230 C231 1.394 . S
C230 H238 0.930 . S
C231 C230 1.394 . S
C231 C232 1.383 . S
C231 H239 0.929 . S
C232 C231 1.383 . S
C232 C233 1.377 . S
C233 H217 0.930 . S
C233 C232 1.377 . S
C233 C234 1.379 . S
C234 H218 0.931 . S
C234 C228 1.383 . S
C234 C233 1.379 . S
H235 C229 0.959 . S
H236 C229 0.961 . S
H237 C229 0.960 . S
H238 C230 0.930 . S
H239 C231 0.929 . S
H240 C248 0.929 . S
H241 C250 0.930 . S
H242 C252 0.930 . S
H243 C255 0.929 . S
H244 C258 0.930 . S
H245 C260 0.960 . S
H246 C260 0.960 . S
H247 C260 0.960 . S
C248 H240 0.929 . S
C248 C249 1.377 . S
C248 C250 1.384 . S
C249 C248 1.377 . S
C249 C255 1.390 . S
C250 H241 0.930 . S
C250 C248 1.384 . S
C250 C251 1.372 . S
C251 C250 1.372 . S
C251 C252 1.400 . S
C251 C256 1.490 . S
C252 H242 0.930 . S
C252 C251 1.400 . S
C252 C255 1.386 . S
H253 C269 0.930 . S
H254 C270 0.931 . S
C255 H243 0.929 . S
C255 C249 1.390 . S
C255 C252 1.386 . S
C256 C251 1.490 . S
C256 C258 1.395 . S
C256 C259 1.403 . S
H257 C263 0.930 . S
C258 H244 0.930 . S
C258 C256 1.395 . S
C258 C261 1.403 . S
C259 C256 1.403 . S
C259 C260 1.524 . S
C259 C263 1.400 . S
C260 H245 0.960 . S
C260 H246 0.960 . S
C260 H247 0.960 . S
C260 C259 1.524 . S
C261 C258 1.403 . S
C261 C262 1.392 . S
C261 C265 1.495 . S
C262 C261 1.392 . S
C262 C263 1.385 . S
C262 C264 1.478 . S
C263 H257 0.930 . S
C263 C259 1.400 . S
C263 C262 1.385 . S
C264 C262 1.478 . S
C264 C266 1.381 . S
C264 C270 1.383 . S
C265 C261 1.495 . S
C265 H271 0.959 . S
C265 H272 0.961 . S
C265 H273 0.960 . S
C266 C264 1.381 . S
C266 C267 1.394 . S
C266 H274 0.930 . S
C267 C266 1.394 . S
C267 C268 1.383 . S
C267 H275 0.929 . S
C268 C267 1.383 . S
C268 C269 1.377 . S
C269 H253 0.930 . S
C269 C268 1.377 . S
C269 C270 1.379 . S
C270 H254 0.931 . S
C270 C264 1.383 . S
C270 C269 1.379 . S
H271 C265 0.959 . S
H272 C265 0.961 . S
H273 C265 0.960 . S
H274 C266 0.930 . S
H275 C267 0.929 . S
H276 C284 0.929 . S
H277 C286 0.930 . S
H278 C288 0.930 . S
H279 C291 0.929 . S
H280 C294 0.930 . S
H281 C296 0.960 . S
H282 C296 0.960 . S
H283 C296 0.960 . S
C284 H276 0.929 . S
C284 C285 1.377 . S
C284 C286 1.384 . S
C285 C284 1.377 . S
C285 C291 1.390 . S
C286 H277 0.930 . S
C286 C284 1.384 . S
C286 C287 1.372 . S
C287 C286 1.372 . S
C287 C288 1.400 . S
C287 C292 1.490 . S
C288 H278 0.930 . S
C288 C287 1.400 . S
C288 C291 1.386 . S
H289 C305 0.930 . S
H290 C306 0.931 . S
C291 H279 0.929 . S
C291 C285 1.390 . S
C291 C288 1.386 . S
C292 C287 1.490 . S
C292 C294 1.395 . S
C292 C295 1.403 . S
H293 C299 0.930 . S
C294 H280 0.930 . S
C294 C292 1.395 . S
C294 C297 1.403 . S
C295 C292 1.403 . S
C295 C296 1.524 . S
C295 C299 1.400 . S
C296 H281 0.960 . S
C296 H282 0.960 . S
C296 H283 0.960 . S
C296 C295 1.524 . S
C297 C294 1.403 . S
C297 C298 1.392 . S
C297 C301 1.495 . S
C298 C297 1.392 . S
C298 C299 1.385 . S
C298 C300 1.478 . S
C299 H293 0.930 . S
C299 C295 1.400 . S
C299 C298 1.385 . S
C300 C298 1.478 . S
C300 C302 1.381 . S
C300 C306 1.383 . S
C301 C297 1.495 . S
C301 H307 0.959 . S
C301 H308 0.961 . S
C301 H309 0.960 . S
C302 C300 1.381 . S
C302 C303 1.394 . S
C302 H310 0.930 . S
C303 C302 1.394 . S
C303 C304 1.383 . S
C303 H311 0.929 . S
C304 C303 1.383 . S
C304 C305 1.377 . S
C305 H289 0.930 . S
C305 C304 1.377 . S
C305 C306 1.379 . S
C306 H290 0.931 . S
C306 C300 1.383 . S
C306 C305 1.379 . S
H307 C301 0.959 . S
H308 C301 0.961 . S
H309 C301 0.960 . S
H310 C302 0.930 . S
H311 C303 0.929 . S
H312 C320 0.929 . S
H313 C322 0.930 . S
H314 C324 0.930 . S
H315 C327 0.929 . S
H316 C330 0.930 . S
H317 C332 0.960 . S
H318 C332 0.960 . S
H319 C332 0.960 . S
C320 H312 0.929 . S
C320 C321 1.377 . S
C320 C322 1.384 . S
C321 C320 1.377 . S
C321 C327 1.390 . S
C322 H313 0.930 . S
C322 C320 1.384 . S
C322 C323 1.372 . S
C323 C322 1.372 . S
C323 C324 1.400 . S
C323 C328 1.490 . S
C324 H314 0.930 . S
C324 C323 1.400 . S
C324 C327 1.386 . S
H325 C341 0.930 . S
H326 C342 0.931 . S
C327 H315 0.929 . S
C327 C321 1.390 . S
C327 C324 1.386 . S
C328 C323 1.490 . S
C328 C330 1.395 . S
C328 C331 1.403 . S
H329 C335 0.930 . S
C330 H316 0.930 . S
C330 C328 1.395 . S
C330 C333 1.403 . S
C331 C328 1.403 . S
C331 C332 1.524 . S
C331 C335 1.400 . S
C332 H317 0.960 . S
C332 H318 0.960 . S
C332 H319 0.960 . S
C332 C331 1.524 . S
C333 C330 1.403 . S
C333 C334 1.392 . S
C333 C337 1.495 . S
C334 C333 1.392 . S
C334 C335 1.385 . S
C334 C336 1.478 . S
C335 H329 0.930 . S
C335 C331 1.400 . S
C335 C334 1.385 . S
C336 C334 1.478 . S
C336 C338 1.381 . S
C336 C342 1.383 . S
C337 C333 1.495 . S
C337 H343 0.959 . S
C337 H344 0.961 . S
C337 H345 0.960 . S
C338 C336 1.381 . S
C338 C339 1.394 . S
C338 H346 0.930 . S
C339 C338 1.394 . S
C339 C340 1.383 . S
C339 H347 0.929 . S
C340 C339 1.383 . S
C340 C341 1.377 . S
C341 H325 0.930 . S
C341 C340 1.377 . S
C341 C342 1.379 . S
C342 H326 0.931 . S
C342 C336 1.383 . S
C342 C341 1.379 . S
H343 C337 0.959 . S
H344 C337 0.961 . S
H345 C337 0.960 . S
H346 C338 0.930 . S
H347 C339 0.929 . S
H348 C356 0.929 . S
H349 C358 0.930 . S
H350 C360 0.930 . S
H351 C363 0.929 . S
H352 C366 0.930 . S
H353 C368 0.960 . S
H354 C368 0.960 . S
H355 C368 0.960 . S
C356 H348 0.929 . S
C356 C357 1.377 . S
C356 C358 1.384 . S
C357 C356 1.377 . S
C357 C363 1.390 . S
C358 H349 0.930 . S
C358 C356 1.384 . S
C358 C359 1.372 . S
C359 C358 1.372 . S
C359 C360 1.400 . S
C359 C364 1.490 . S
C360 H350 0.930 . S
C360 C359 1.400 . S
C360 C363 1.386 . S
H361 C377 0.930 . S
H362 C378 0.931 . S
C363 H351 0.929 . S
C363 C357 1.390 . S
C363 C360 1.386 . S
C364 C359 1.490 . S
C364 C366 1.395 . S
C364 C367 1.403 . S
H365 C371 0.930 . S
C366 H352 0.930 . S
C366 C364 1.395 . S
C366 C369 1.403 . S
C367 C364 1.403 . S
C367 C368 1.524 . S
C367 C371 1.400 . S
C368 H353 0.960 . S
C368 H354 0.960 . S
C368 H355 0.960 . S
C368 C367 1.524 . S
C369 C366 1.403 . S
C369 C370 1.392 . S
C369 C373 1.495 . S
C370 C369 1.392 . S
C370 C371 1.385 . S
C370 C372 1.478 . S
C371 H365 0.930 . S
C371 C367 1.400 . S
C371 C370 1.385 . S
C372 C370 1.478 . S
C372 C374 1.381 . S
C372 C378 1.383 . S
C373 C369 1.495 . S
C373 H379 0.959 . S
C373 H380 0.961 . S
C373 H381 0.960 . S
C374 C372 1.381 . S
C374 C375 1.394 . S
C374 H382 0.930 . S
C375 C374 1.394 . S
C375 C376 1.383 . S
C375 H383 0.929 . S
C376 C375 1.383 . S
C376 C377 1.377 . S
C377 H361 0.930 . S
C377 C376 1.377 . S
C377 C378 1.379 . S
C378 H362 0.931 . S
C378 C372 1.383 . S
C378 C377 1.379 . S
H379 C373 0.959 . S
H380 C373 0.961 . S
H381 C373 0.960 . S
H382 C374 0.930 . S
H383 C375 0.929 . S
H384 C392 0.929 . S
H385 C394 0.930 . S
H386 C396 0.930 . S
H387 C399 0.929 . S
H388 C402 0.930 . S
H389 C404 0.960 . S
H390 C404 0.960 . S
H391 C404 0.960 . S
C392 H384 0.929 . S
C392 C393 1.377 . S
C392 C394 1.384 . S
C393 C392 1.377 . S
C393 C399 1.390 . S
C394 H385 0.930 . S
C394 C392 1.384 . S
C394 C395 1.372 . S
C395 C394 1.372 . S
C395 C396 1.400 . S
C395 C400 1.490 . S
C396 H386 0.930 . S
C396 C395 1.400 . S
C396 C399 1.386 . S
H397 C413 0.930 . S
H398 C414 0.931 . S
C399 H387 0.929 . S
C399 C393 1.390 . S
C399 C396 1.386 . S
C400 C395 1.490 . S
C400 C402 1.395 . S
C400 C403 1.403 . S
H401 C407 0.930 . S
C402 H388 0.930 . S
C402 C400 1.395 . S
C402 C405 1.403 . S
C403 C400 1.403 . S
C403 C404 1.524 . S
C403 C407 1.400 . S
C404 H389 0.960 . S
C404 H390 0.960 . S
C404 H391 0.960 . S
C404 C403 1.524 . S
C405 C402 1.403 . S
C405 C406 1.392 . S
C405 C409 1.495 . S
C406 C405 1.392 . S
C406 C407 1.385 . S
C406 C408 1.478 . S
C407 H401 0.930 . S
C407 C403 1.400 . S
C407 C406 1.385 . S
C408 C406 1.478 . S
C408 C410 1.381 . S
C408 C414 1.383 . S
C409 C405 1.495 . S
C409 H415 0.959 . S
C409 H416 0.961 . S
C409 H417 0.960 . S
C410 C408 1.381 . S
C410 C411 1.394 . S
C410 H418 0.930 . S
C411 C410 1.394 . S
C411 C412 1.383 . S
C411 H419 0.929 . S
C412 C411 1.383 . S
C412 C413 1.377 . S
C413 H397 0.930 . S
C413 C412 1.377 . S
C413 C414 1.379 . S
C414 H398 0.931 . S
C414 C408 1.383 . S
C414 C413 1.379 . S
H415 C409 0.959 . S
H416 C409 0.961 . S
H417 C409 0.960 . S
H418 C410 0.930 . S
H419 C411 0.929 . S
H420 C428 0.929 . S
H421 C430 0.930 . S
H422 C432 0.930 . S
H423 C435 0.929 . S
H424 C438 0.930 . S
H425 C440 0.977 . S
H426 C440 0.944 1_655 S
H427 C440 0.955 1_655 S
C428 H420 0.929 . S
C428 C429 1.377 . S
C428 C430 1.384 . S
C429 C428 1.377 . S
C429 C435 1.390 . S
C430 H421 0.930 . S
C430 C428 1.384 . S
C430 C431 1.372 . S
C431 C430 1.372 . S
C431 C432 1.400 . S
C431 C436 1.490 . S
C432 H422 0.930 . S
C432 C431 1.400 . S
C432 C435 1.386 . S
H433 C449 0.930 . S
H434 C450 0.931 . S
C435 H423 0.929 . S
C435 C429 1.390 . S
C435 C432 1.386 . S
C436 C431 1.490 . S
C436 C438 1.395 . S
C436 C439 1.403 . S
H437 C443 0.930 . S
C438 H424 0.930 . S
C438 C436 1.395 . S
C438 C441 1.404 1_655 S
C439 C436 1.403 . S
C439 C440 1.518 1_655 S
C439 C443 1.400 1_655 S
C440 H425 0.977 . S
C440 H426 0.944 1_455 S
C440 H427 0.955 1_455 S
C440 C439 1.518 1_455 S
C441 C438 1.404 1_455 S
C441 C442 1.392 . S
C441 C445 1.489 1_455 S
C442 C441 1.392 . S
C442 C443 1.385 . S
C442 C444 1.478 . S
C443 H437 0.930 . S
C443 C439 1.400 1_455 S
C443 C442 1.385 . S
C444 C442 1.478 . S
C444 C446 1.381 . S
C444 C450 1.383 . S
C445 C441 1.489 1_655 S
C445 H451 0.978 . S
C445 H452 0.955 1_655 S
C445 H453 0.953 1_655 S
C446 C444 1.381 . S
C446 C447 1.394 . S
C446 H454 0.930 . S
C447 C446 1.394 . S
C447 C448 1.383 . S
C447 H455 0.929 . S
C448 C447 1.383 . S
C448 C449 1.377 . S
C449 H433 0.930 . S
C449 C448 1.377 . S
C449 C450 1.379 . S
C450 H434 0.931 . S
C450 C444 1.383 . S
C450 C449 1.379 . S
H451 C445 0.978 . S
H452 C445 0.955 1_455 S
H453 C445 0.953 1_455 S
H454 C446 0.930 . S
H455 C447 0.929 . S
H456 C464 0.929 . S
H457 C466 0.930 . S
H458 C468 0.930 . S
H459 C471 0.929 . S
H460 C474 0.930 . S
H461 C476 0.960 . S
H462 C476 0.960 1_545 S
H463 C476 0.960 1_545 S
C464 H456 0.929 . S
C464 C465 1.377 . S
C464 C466 1.384 . S
C465 C464 1.377 . S
C465 C471 1.390 . S
C466 H457 0.930 . S
C466 C464 1.384 . S
C466 C467 1.372 . S
C467 C466 1.372 . S
C467 C468 1.400 . S
C467 C472 1.490 . S
C468 H458 0.930 . S
C468 C467 1.400 . S
C468 C471 1.386 . S
H469 C485 0.930 . S
H470 C486 0.931 . S
C471 H459 0.929 . S
C471 C465 1.390 . S
C471 C468 1.386 . S
C472 C467 1.490 . S
C472 C474 1.395 . S
C472 C475 1.408 . S
H473 C479 0.930 . S
C474 H460 0.930 . S
C474 C472 1.395 . S
C474 C477 1.403 . S
C475 C472 1.408 . S
C475 C476 1.526 1_545 S
C475 C479 1.393 1_545 S
C476 H461 0.960 . S
C476 H462 0.960 1_565 S
C476 H463 0.960 1_565 S
C476 C475 1.526 1_565 S
C477 C474 1.403 . S
C477 C478 1.392 1_545 S
C477 C481 1.495 . S
C478 C477 1.392 1_565 S
C478 C479 1.385 . S
C478 C480 1.478 . S
C479 H473 0.930 . S
C479 C475 1.393 1_565 S
C479 C478 1.385 . S
C480 C478 1.478 . S
C480 C482 1.381 . S
C480 C486 1.383 . S
C481 C477 1.495 . S
C481 H487 0.959 . S
C481 H488 0.961 1_545 S
C481 H489 0.960 . S
C482 C480 1.381 . S
C482 C483 1.394 . S
C482 H490 0.930 . S
C483 C482 1.394 . S
C483 C484 1.383 . S
C483 H491 0.929 . S
C484 C483 1.383 . S
C484 C485 1.377 . S
C485 H469 0.930 . S
C485 C484 1.377 . S
C485 C486 1.379 . S
C486 H470 0.931 . S
C486 C480 1.383 . S
C486 C485 1.379 . S
H487 C481 0.959 . S
H488 C481 0.961 1_565 S
H489 C481 0.960 . S
H490 C482 0.930 . S
H491 C483 0.929 . S
H492 C500 0.929 . S
H493 C502 0.930 . S
H494 C504 0.930 . S
H495 C507 0.929 . S
H496 C510 0.930 . S
H497 C512 0.960 . S
H498 C512 0.960 . S
H499 C512 0.960 . S
C500 H492 0.929 . S
C500 C501 1.377 . S
C500 C502 1.384 . S
C501 C500 1.377 . S
C501 C507 1.390 . S
C502 H493 0.930 . S
C502 C500 1.384 . S
C502 C503 1.372 . S
C503 C502 1.372 . S
C503 C504 1.400 . S
C503 C508 1.490 . S
C504 H494 0.930 . S
C504 C503 1.400 . S
C504 C507 1.386 . S
H505 C521 0.930 . S
H506 C522 0.931 . S
C507 H495 0.929 . S
C507 C501 1.390 . S
C507 C504 1.386 . S
C508 C503 1.490 . S
C508 C510 1.395 . S
C508 C511 1.403 . S
H509 C515 0.930 . S
C510 H496 0.930 . S
C510 C508 1.395 . S
C510 C513 1.403 . S
C511 C508 1.403 . S
C511 C512 1.524 . S
C511 C515 1.400 . S
C512 H497 0.960 . S
C512 H498 0.960 . S
C512 H499 0.960 . S
C512 C511 1.524 . S
C513 C510 1.403 . S
C513 C514 1.392 . S
C513 C517 1.495 . S
C514 C513 1.392 . S
C514 C515 1.385 . S
C514 C516 1.478 . S
C515 H509 0.930 . S
C515 C511 1.400 . S
C515 C514 1.385 . S
C516 C514 1.478 . S
C516 C518 1.381 . S
C516 C522 1.383 . S
C517 C513 1.495 . S
C517 H523 0.959 . S
C517 H524 0.961 . S
C517 H525 0.960 . S
C518 C516 1.381 . S
C518 C519 1.394 . S
C518 H526 0.930 . S
C519 C518 1.394 . S
C519 C520 1.383 . S
C519 H527 0.929 . S
C520 C519 1.383 . S
C520 C521 1.377 . S
C521 H505 0.930 . S
C521 C520 1.377 . S
C521 C522 1.379 . S
C522 H506 0.931 . S
C522 C516 1.383 . S
C522 C521 1.379 . S
H523 C517 0.959 . S
H524 C517 0.961 . S
H525 C517 0.960 . S
H526 C518 0.930 . S
H527 C519 0.929 . S
H528 C536 0.929 . S
H529 C538 0.930 . S
H530 C540 0.930 . S
H531 C543 0.929 . S
H532 C546 0.930 . S
H533 C548 0.960 1_455 S
H534 C548 0.960 . S
H535 C548 0.960 . S
C536 H528 0.929 . S
C536 C537 1.377 . S
C536 C538 1.384 . S
C537 C536 1.377 . S
C537 C543 1.390 . S
C538 H529 0.930 . S
C538 C536 1.384 . S
C538 C539 1.372 . S
C539 C538 1.372 . S
C539 C540 1.400 . S
C539 C544 1.490 . S
C540 H530 0.930 . S
C540 C539 1.400 . S
C540 C543 1.386 . S
H541 C557 0.930 . S
H542 C558 0.931 . S
C543 H531 0.929 . S
C543 C537 1.390 . S
C543 C540 1.386 . S
C544 C539 1.490 . S
C544 C546 1.395 . S
C544 C547 1.403 . S
H545 C551 0.930 . S
C546 H532 0.930 . S
C546 C544 1.395 . S
C546 C549 1.403 1_655 S
C547 C544 1.403 . S
C547 C548 1.524 . S
C547 C551 1.400 1_655 S
C548 H533 0.960 1_655 S
C548 H534 0.960 . S
C548 H535 0.960 . S
C548 C547 1.524 . S
C549 C546 1.403 1_455 S
C549 C550 1.392 . S
C549 C553 1.495 . S
C550 C549 1.392 . S
C550 C551 1.385 . S
C550 C552 1.478 . S
C551 H545 0.930 . S
C551 C547 1.400 1_455 S
C551 C550 1.385 . S
C552 C550 1.478 . S
C552 C554 1.381 . S
C552 C558 1.383 . S
C553 C549 1.495 . S
C553 H559 0.959 1_455 S
C553 H560 0.961 . S
C553 H561 0.960 . S
C554 C552 1.381 . S
C554 C555 1.394 . S
C554 H562 0.930 . S
C555 C554 1.394 . S
C555 C556 1.383 . S
C555 H563 0.929 . S
C556 C555 1.383 . S
C556 C557 1.377 . S
C557 H541 0.930 . S
C557 C556 1.377 . S
C557 C558 1.379 . S
C558 H542 0.931 . S
C558 C552 1.383 . S
C558 C557 1.379 . S
H559 C553 0.959 1_655 S
H560 C553 0.961 . S
H561 C553 0.960 . S
H562 C554 0.930 . S
H563 C555 0.929 . S
H564 C572 0.929 . S
H565 C574 0.930 . S
H566 C576 0.930 . S
H567 C579 0.929 . S
H568 C582 0.930 . S
H569 C584 0.960 . S
H570 C584 0.960 . S
H571 C584 0.960 . S
C572 H564 0.929 . S
C572 C573 1.377 . S
C572 C574 1.384 . S
C573 C572 1.377 . S
C573 C579 1.390 . S
C574 H565 0.930 . S
C574 C572 1.384 . S
C574 C575 1.372 . S
C575 C574 1.372 . S
C575 C576 1.400 . S
C575 C580 1.490 . S
C576 H566 0.930 . S
C576 C575 1.400 . S
C576 C579 1.386 . S
H577 C593 0.930 . S
H578 C594 0.931 . S
C579 H567 0.929 . S
C579 C573 1.390 . S
C579 C576 1.386 . S
C580 C575 1.490 . S
C580 C582 1.395 1_565 S
C580 C583 1.403 1_554 S
H581 C587 0.930 . S
C582 H568 0.930 . S
C582 C580 1.395 1_545 S
C582 C585 1.403 . S
C583 C580 1.403 1_556 S
C583 C584 1.524 . S
C583 C587 1.400 1_565 S
C584 H569 0.960 . S
C584 H570 0.960 . S
C584 H571 0.960 . S
C584 C583 1.524 . S
C585 C582 1.403 . S
C585 C586 1.392 1_554 S
C585 C589 1.495 . S
C586 C585 1.392 1_556 S
C586 C587 1.385 . S
C586 C588 1.478 . S
C587 H581 0.930 . S
C587 C583 1.400 1_545 S
C587 C586 1.385 . S
C588 C586 1.478 . S
C588 C590 1.381 . S
C588 C594 1.383 . S
C589 C585 1.495 . S
C589 H595 0.959 . S
C589 H596 0.961 . S
C589 H597 0.960 . S
C590 C588 1.381 . S
C590 C591 1.394 . S
C590 H598 0.930 . S
C591 C590 1.394 . S
C591 C592 1.383 . S
C591 H599 0.929 . S
C592 C591 1.383 . S
C592 C593 1.377 . S
C593 H577 0.930 . S
C593 C592 1.377 . S
C593 C594 1.379 . S
C594 H578 0.931 . S
C594 C588 1.383 . S
C594 C593 1.379 . S
H595 C589 0.959 . S
H596 C589 0.961 . S
H597 C589 0.960 . S
H598 C590 0.930 . S
H599 C591 0.929 . S
H600 C608 0.929 . S
H601 C610 0.930 . S
H602 C612 0.930 . S
H603 C615 0.929 . S
H604 C618 0.930 . S
H605 C620 0.960 . S
H606 C620 0.960 . S
H607 C620 0.960 . S
C608 H600 0.929 . S
C608 C609 1.377 . S
C608 C610 1.384 . S
C609 C608 1.377 . S
C609 C615 1.390 . S
C610 H601 0.930 . S
C610 C608 1.384 . S
C610 C611 1.372 . S
C611 C610 1.372 . S
C611 C612 1.400 . S
C611 C616 1.490 . S
C612 H602 0.930 . S
C612 C611 1.400 . S
C612 C615 1.386 . S
H613 C629 0.930 . S
H614 C630 0.931 . S
C615 H603 0.929 . S
C615 C609 1.390 . S
C615 C612 1.386 . S
C616 C611 1.490 . S
C616 C618 1.395 . S
C616 C619 1.403 . S
H617 C623 0.930 . S
C618 H604 0.930 . S
C618 C616 1.395 . S
C618 C621 1.403 . S
C619 C616 1.403 . S
C619 C620 1.524 . S
C619 C623 1.400 . S
C620 H605 0.960 . S
C620 H606 0.960 . S
C620 H607 0.960 . S
C620 C619 1.524 . S
C621 C618 1.403 . S
C621 C622 1.392 . S
C621 C625 1.495 1_554 S
C622 C621 1.392 . S
C622 C623 1.385 . S
C622 C624 1.478 . S
C623 H617 0.930 . S
C623 C619 1.400 . S
C623 C622 1.385 . S
C624 C622 1.478 . S
C624 C626 1.382 1_554 S
C624 C630 1.383 1_554 S
C625 C621 1.495 1_556 S
C625 H631 0.963 . S
C625 H632 0.961 . S
C625 H633 0.960 . S
C626 C624 1.382 1_556 S
C626 C627 1.390 . S
C626 H634 0.933 1_556 S
C627 C626 1.390 . S
C627 C628 1.383 . S
C627 H635 0.929 . S
C628 C627 1.383 . S
C628 C629 1.377 . S
C629 H613 0.930 . S
C629 C628 1.377 . S
C629 C630 1.379 . S
C630 H614 0.931 . S
C630 C624 1.383 1_556 S
C630 C629 1.379 . S
H631 C625 0.963 . S
H632 C625 0.961 . S
H633 C625 0.960 . S
H634 C626 0.933 1_554 S
H635 C627 0.929 . S
H636 C644 0.929 . S
H637 C646 0.930 . S
H638 C648 0.930 . S
H639 C651 0.929 . S
H640 C654 0.930 . S
H641 C656 0.960 . S
H642 C656 0.960 . S
H643 C656 0.960 . S
C644 H636 0.929 . S
C644 C645 1.377 . S
C644 C646 1.384 . S
C645 C644 1.377 . S
C645 C651 1.390 . S
C646 H637 0.930 . S
C646 C644 1.384 . S
C646 C647 1.372 . S
C647 C646 1.372 . S
C647 C648 1.400 . S
C647 C652 1.490 . S
C648 H638 0.930 . S
C648 C647 1.400 . S
C648 C651 1.386 . S
H649 C665 0.930 . S
H650 C666 0.931 . S
C651 H639 0.929 . S
C651 C645 1.390 . S
C651 C648 1.386 . S
C652 C647 1.490 . S
C652 C654 1.395 . S
C652 C655 1.403 . S
H653 C659 0.930 1_455 S
C654 H640 0.930 . S
C654 C652 1.395 . S
C654 C657 1.403 . S
C655 C652 1.403 . S
C655 C656 1.524 . S
C655 C659 1.400 . S
C656 H641 0.960 . S
C656 H642 0.960 . S
C656 H643 0.960 . S
C656 C655 1.524 . S
C657 C654 1.403 . S
C657 C658 1.392 . S
C657 C661 1.495 . S
C658 C657 1.392 . S
C658 C659 1.385 . S
C658 C660 1.478 1_655 S
C659 H653 0.930 1_655 S
C659 C655 1.400 . S
C659 C658 1.385 . S
C660 C658 1.478 1_455 S
C660 C662 1.381 . S
C660 C666 1.383 . S
C661 C657 1.495 . S
C661 H667 0.959 . S
C661 H668 0.961 . S
C661 H669 0.960 . S
C662 C660 1.381 . S
C662 C663 1.394 . S
C662 H670 0.930 . S
C663 C662 1.394 . S
C663 C664 1.383 . S
C663 H671 0.929 . S
C664 C663 1.383 . S
C664 C665 1.377 . S
C665 H649 0.930 . S
C665 C664 1.377 . S
C665 C666 1.379 . S
C666 H650 0.931 . S
C666 C660 1.383 . S
C666 C665 1.379 . S
H667 C661 0.959 . S
H668 C661 0.961 . S
H669 C661 0.960 . S
H670 C662 0.930 . S
H671 C663 0.929 . S
H672 C680 0.929 . S
H673 C682 0.930 1_565 S
H674 C684 0.930 . S
H675 C687 0.929 . S
H676 C690 0.930 . S
H677 C692 0.960 . S
H678 C692 0.960 . S
H679 C692 0.960 . S
C680 H672 0.929 . S
C680 C681 1.377 . S
C680 C682 1.384 . S
C681 C680 1.377 . S
C681 C687 1.390 . S
C682 H673 0.930 1_545 S
C682 C680 1.384 . S
C682 C683 1.372 . S
C683 C682 1.372 . S
C683 C684 1.400 . S
C683 C688 1.490 1_545 S
C684 H674 0.930 . S
C684 C683 1.400 . S
C684 C687 1.386 . S
H685 C701 0.930 . S
H686 C702 0.931 . S
C687 H675 0.929 . S
C687 C681 1.390 . S
C687 C684 1.386 . S
C688 C683 1.490 1_565 S
C688 C690 1.395 . S
C688 C691 1.403 . S
H689 C695 0.930 . S
C690 H676 0.930 . S
C690 C688 1.395 . S
C690 C693 1.403 . S
C691 C688 1.403 . S
C691 C692 1.524 1_565 S
C691 C695 1.400 . S
C692 H677 0.960 . S
C692 H678 0.960 . S
C692 H679 0.960 . S
C692 C691 1.524 1_545 S
C693 C690 1.403 . S
C693 C694 1.392 . S
C693 C697 1.495 . S
C694 C693 1.392 . S
C694 C695 1.385 . S
C694 C696 1.478 . S
C695 H689 0.930 . S
C695 C691 1.400 . S
C695 C694 1.385 . S
C696 C694 1.478 . S
C696 C698 1.381 . S
C696 C702 1.383 . S
C697 C693 1.495 . S
C697 H703 0.959 . S
C697 H704 0.961 . S
C697 H705 0.960 . S
C698 C696 1.381 . S
C698 C699 1.394 . S
C698 H706 0.930 . S
C699 C698 1.394 . S
C699 C700 1.383 . S
C699 H707 0.929 . S
C700 C699 1.383 . S
C700 C701 1.377 . S
C701 H685 0.930 . S
C701 C700 1.377 . S
C701 C702 1.379 . S
C702 H686 0.931 . S
C702 C696 1.383 . S
C702 C701 1.379 . S
H703 C697 0.959 . S
H704 C697 0.961 . S
H705 C697 0.960 . S
H706 C698 0.930 . S
H707 C699 0.929 . S
H708 C716 0.929 . S
H709 C718 0.930 . S
H710 C720 0.930 . S
H711 C723 0.929 . S
H712 C726 0.930 . S
H713 C728 0.960 . S
H714 C728 0.960 . S
H715 C728 0.960 . S
C716 H708 0.929 . S
C716 C717 1.377 . S
C716 C718 1.384 . S
C717 C716 1.377 . S
C717 C723 1.390 . S
C718 H709 0.930 . S
C718 C716 1.384 . S
C718 C719 1.372 . S
C719 C718 1.372 . S
C719 C720 1.400 . S
C719 C724 1.490 . S
C720 H710 0.930 . S
C720 C719 1.400 . S
C720 C723 1.386 . S
H721 C737 0.930 . S
H722 C738 0.931 . S
C723 H711 0.929 . S
C723 C717 1.390 . S
C723 C720 1.386 . S
C724 C719 1.490 . S
C724 C726 1.395 . S
C724 C727 1.403 . S
H725 C731 0.930 . S
C726 H712 0.930 . S
C726 C724 1.395 . S
C726 C729 1.403 . S
C727 C724 1.403 . S
C727 C728 1.524 . S
C727 C731 1.400 . S
C728 H713 0.960 . S
C728 H714 0.960 . S
C728 H715 0.960 . S
C728 C727 1.524 . S
C729 C726 1.403 . S
C729 C730 1.392 . S
C729 C733 1.495 . S
C730 C729 1.392 . S
C730 C731 1.385 . S
C730 C732 1.478 . S
C731 H725 0.930 . S
C731 C727 1.400 . S
C731 C730 1.385 . S
C732 C730 1.478 . S
C732 C734 1.381 . S
C732 C738 1.383 . S
C733 C729 1.495 . S
C733 H739 0.959 . S
C733 H740 0.961 . S
C733 H741 0.960 . S
C734 C732 1.381 . S
C734 C735 1.394 . S
C734 H742 0.930 . S
C735 C734 1.394 . S
C735 C736 1.383 . S
C735 H743 0.929 . S
C736 C735 1.383 . S
C736 C737 1.377 . S
C737 H721 0.930 . S
C737 C736 1.377 . S
C737 C738 1.379 . S
C738 H722 0.931 . S
C738 C732 1.383 . S
C738 C737 1.379 . S
H739 C733 0.959 . S
H740 C733 0.961 . S
H741 C733 0.960 . S
H742 C734 0.930 . S
H743 C735 0.929 . S
H744 C752 0.929 . S
H745 C754 0.930 . S
H746 C756 0.930 . S
H747 C759 0.929 . S
H748 C762 0.930 . S
H749 C764 0.960 . S
H750 C764 0.960 . S
H751 C764 0.960 . S
C752 H744 0.929 . S
C752 C753 1.377 . S
C752 C754 1.384 . S
C753 C752 1.377 . S
C753 C759 1.390 . S
C754 H745 0.930 . S
C754 C752 1.384 . S
C754 C755 1.372 . S
C755 C754 1.372 . S
C755 C756 1.400 . S
C755 C760 1.490 . S
C756 H746 0.930 . S
C756 C755 1.400 . S
C756 C759 1.386 . S
H757 C773 0.930 . S
H758 C774 0.931 . S
C759 H747 0.929 . S
C759 C753 1.390 . S
C759 C756 1.386 . S
C760 C755 1.490 . S
C760 C762 1.395 . S
C760 C763 1.403 . S
H761 C767 0.930 . S
C762 H748 0.930 . S
C762 C760 1.395 . S
C762 C765 1.403 1_455 S
C763 C760 1.403 . S
C763 C764 1.524 . S
C763 C767 1.400 . S
C764 H749 0.960 . S
C764 H750 0.960 . S
C764 H751 0.960 . S
C764 C763 1.524 . S
C765 C762 1.403 1_655 S
C765 C766 1.392 . S
C765 C769 1.495 . S
C766 C765 1.392 . S
C766 C767 1.384 1_655 S
C766 C768 1.478 . S
C767 H761 0.930 . S
C767 C763 1.400 . S
C767 C766 1.384 1_455 S
C768 C766 1.478 . S
C768 C770 1.381 . S
C768 C774 1.383 . S
C769 C765 1.495 . S
C769 H775 0.959 . S
C769 H776 0.961 . S
C769 H777 0.960 . S
C770 C768 1.381 . S
C770 C771 1.394 . S
C770 H778 0.930 . S
C771 C770 1.394 . S
C771 C772 1.383 . S
C771 H779 0.929 . S
C772 C771 1.383 . S
C772 C773 1.377 . S
C773 H757 0.930 . S
C773 C772 1.377 . S
C773 C774 1.379 . S
C774 H758 0.931 . S
C774 C768 1.383 . S
C774 C773 1.379 . S
H775 C769 0.959 . S
H776 C769 0.961 . S
H777 C769 0.960 . S
H778 C770 0.930 . S
H779 C771 0.929 . S
H780 C788 0.929 . S
H781 C790 0.930 . S
H782 C792 0.930 . S
H783 C795 0.929 . S
H784 C798 0.930 . S
H785 C800 0.960 . S
H786 C800 0.960 . S
H787 C800 0.960 . S
C788 H780 0.929 . S
C788 C789 1.377 . S
C788 C790 1.384 . S
C789 C788 1.377 . S
C789 C795 1.390 . S
C790 H781 0.930 . S
C790 C788 1.384 . S
C790 C791 1.372 . S
C791 C790 1.372 . S
C791 C792 1.400 . S
C791 C796 1.490 . S
C792 H782 0.930 . S
C792 C791 1.400 . S
C792 C795 1.386 . S
H793 C809 0.930 . S
H794 C810 0.931 . S
C795 H783 0.929 . S
C795 C789 1.390 . S
C795 C792 1.386 . S
C796 C791 1.490 . S
C796 C798 1.395 . S
C796 C799 1.403 . S
H797 C803 0.930 . S
C798 H784 0.930 . S
C798 C796 1.395 . S
C798 C801 1.403 . S
C799 C796 1.403 . S
C799 C800 1.524 . S
C799 C803 1.400 . S
C800 H785 0.960 . S
C800 H786 0.960 . S
C800 H787 0.960 . S
C800 C799 1.524 . S
C801 C798 1.403 . S
C801 C802 1.392 . S
C801 C805 1.495 . S
C802 C801 1.392 . S
C802 C803 1.385 . S
C802 C804 1.478 1_545 S
C803 H797 0.930 . S
C803 C799 1.400 . S
C803 C802 1.385 . S
C804 C802 1.478 1_565 S
C804 C806 1.381 . S
C804 C810 1.383 . S
C805 C801 1.495 . S
C805 H811 0.959 . S
C805 H812 0.961 1_545 S
C805 H813 0.960 . S
C806 C804 1.381 . S
C806 C807 1.394 . S
C806 H814 0.930 1_565 S
C807 C806 1.394 . S
C807 C808 1.383 . S
C807 H815 0.929 . S
C808 C807 1.383 . S
C808 C809 1.377 . S
C809 H793 0.930 . S
C809 C808 1.377 . S
C809 C810 1.379 . S
C810 H794 0.931 . S
C810 C804 1.383 . S
C810 C809 1.379 . S
H811 C805 0.959 . S
H812 C805 0.961 1_565 S
H813 C805 0.960 . S
H814 C806 0.930 1_545 S
H815 C807 0.929 . S
H816 C824 0.929 . S
H817 C826 0.930 . S
H818 C828 0.930 . S
H819 C831 0.929 . S
H820 C834 0.930 . S
H821 C836 0.960 . S
H822 C836 0.960 . S
H823 C836 0.960 . S
C824 H816 0.929 . S
C824 C825 1.377 . S
C824 C826 1.384 . S
C825 C824 1.377 . S
C825 C831 1.390 . S
C826 H817 0.930 . S
C826 C824 1.384 . S
C826 C827 1.372 . S
C827 C826 1.372 . S
C827 C828 1.400 . S
C827 C832 1.490 . S
C828 H818 0.930 . S
C828 C827 1.400 . S
C828 C831 1.386 . S
H829 C845 0.930 . S
H830 C846 0.931 . S
C831 H819 0.929 . S
C831 C825 1.390 . S
C831 C828 1.386 . S
C832 C827 1.490 . S
C832 C834 1.395 . S
C832 C835 1.403 . S
H833 C839 0.930 . S
C834 H820 0.930 . S
C834 C832 1.395 . S
C834 C837 1.403 . S
C835 C832 1.403 . S
C835 C836 1.524 . S
C835 C839 1.400 . S
C836 H821 0.960 . S
C836 H822 0.960 . S
C836 H823 0.960 . S
C836 C835 1.524 . S
C837 C834 1.403 . S
C837 C838 1.392 . S
C837 C841 1.495 . S
C838 C837 1.392 . S
C838 C839 1.385 . S
C838 C840 1.478 . S
C839 H833 0.930 . S
C839 C835 1.400 . S
C839 C838 1.385 . S
C840 C838 1.478 . S
C840 C842 1.381 . S
C840 C846 1.383 . S
C841 C837 1.495 . S
C841 H847 0.959 . S
C841 H848 0.961 . S
C841 H849 0.960 . S
C842 C840 1.381 . S
C842 C843 1.394 . S
C842 H850 0.930 . S
C843 C842 1.394 . S
C843 C844 1.383 . S
C843 H851 0.929 . S
C844 C843 1.383 . S
C844 C845 1.377 . S
C845 H829 0.930 . S
C845 C844 1.377 . S
C845 C846 1.379 . S
C846 H830 0.931 . S
C846 C840 1.383 . S
C846 C845 1.379 . S
H847 C841 0.959 . S
H848 C841 0.961 . S
H849 C841 0.960 . S
H850 C842 0.930 . S
H851 C843 0.929 . S
H852 C860 0.929 . S
H853 C862 0.930 . S
H854 C864 0.930 . S
H855 C867 0.929 . S
H856 C870 0.930 . S
H857 C872 0.960 . S
H858 C872 0.960 . S
H859 C872 0.960 . S
C860 H852 0.929 . S
C860 C861 1.377 . S
C860 C862 1.384 . S
C861 C860 1.377 . S
C861 C867 1.390 . S
C862 H853 0.930 . S
C862 C860 1.384 . S
C862 C863 1.372 . S
C863 C862 1.372 . S
C863 C864 1.400 . S
C863 C868 1.490 . S
C864 H854 0.930 . S
C864 C863 1.400 . S
C864 C867 1.386 . S
H865 C881 0.930 1_556 S
H866 C882 0.931 . S
C867 H855 0.929 . S
C867 C861 1.390 . S
C867 C864 1.386 . S
C868 C863 1.490 . S
C868 C870 1.395 . S
C868 C871 1.403 . S
H869 C875 0.930 1_455 S
C870 H856 0.930 . S
C870 C868 1.395 . S
C870 C873 1.403 . S
C871 C868 1.403 . S
C871 C872 1.524 . S
C871 C875 1.400 . S
C872 H857 0.960 . S
C872 H858 0.960 . S
C872 H859 0.960 . S
C872 C871 1.524 . S
C873 C870 1.403 . S
C873 C874 1.392 . S
C873 C877 1.495 . S
C874 C873 1.392 . S
C874 C875 1.385 . S
C874 C876 1.478 1_655 S
C875 H869 0.930 1_655 S
C875 C871 1.400 . S
C875 C874 1.385 . S
C876 C874 1.478 1_455 S
C876 C878 1.381 1_556 S
C876 C882 1.383 . S
C877 C873 1.495 . S
C877 H883 0.959 . S
C877 H884 0.961 . S
C877 H885 0.960 . S
C878 C876 1.381 1_554 S
C878 C879 1.394 . S
C878 H886 0.930 1_455 S
C879 C878 1.394 . S
C879 C880 1.383 . S
C879 H887 0.929 . S
C880 C879 1.383 . S
C880 C881 1.377 . S
C881 H865 0.930 1_554 S
C881 C880 1.377 . S
C881 C882 1.379 1_554 S
C882 H866 0.931 . S
C882 C876 1.383 . S
C882 C881 1.379 1_556 S
H883 C877 0.959 . S
H884 C877 0.961 . S
H885 C877 0.960 . S
H886 C878 0.930 1_655 S
H887 C879 0.929 . S
H888 C896 0.929 . S
H889 C898 0.930 . S
H890 C900 0.930 . S
H891 C903 0.929 . S
H892 C906 0.930 . S
H893 C908 0.960 . S
H894 C908 0.960 . S
H895 C908 0.960 . S
C896 H888 0.929 . S
C896 C897 1.377 . S
C896 C898 1.384 . S
C897 C896 1.377 . S
C897 C903 1.390 . S
C898 H889 0.930 . S
C898 C896 1.384 . S
C898 C899 1.372 . S
C899 C898 1.372 . S
C899 C900 1.400 . S
C899 C904 1.490 . S
C900 H890 0.930 . S
C900 C899 1.400 . S
C900 C903 1.386 . S
H901 C917 0.930 . S
H902 C918 0.931 1_565 S
C903 H891 0.929 . S
C903 C897 1.390 . S
C903 C900 1.386 . S
C904 C899 1.490 . S
C904 C906 1.395 . S
C904 C907 1.403 . S
H905 C911 0.930 . S
C906 H892 0.930 . S
C906 C904 1.395 . S
C906 C909 1.403 . S
C907 C904 1.403 . S
C907 C908 1.524 . S
C907 C911 1.400 . S
C908 H893 0.960 . S
C908 H894 0.960 . S
C908 H895 0.960 . S
C908 C907 1.524 . S
C909 C906 1.403 . S
C909 C910 1.392 . S
C909 C913 1.495 1_565 S
C910 C909 1.392 . S
C910 C911 1.385 . S
C910 C912 1.478 1_565 S
C911 H905 0.930 . S
C911 C907 1.400 . S
C911 C910 1.385 . S
C912 C910 1.478 1_545 S
C912 C914 1.381 . S
C912 C918 1.383 . S
C913 C909 1.495 1_545 S
C913 H919 0.959 1_545 S
C913 H920 0.961 . S
C913 H921 0.960 . S
C914 C912 1.381 . S
C914 C915 1.394 . S
C914 H922 0.930 . S
C915 C914 1.394 . S
C915 C916 1.383 . S
C915 H923 0.929 . S
C916 C915 1.383 . S
C916 C917 1.377 . S
C917 H901 0.930 . S
C917 C916 1.377 . S
C917 C918 1.379 . S
C918 H902 0.931 1_545 S
C918 C912 1.383 . S
C918 C917 1.379 . S
H919 C913 0.959 1_565 S
H920 C913 0.961 . S
H921 C913 0.960 . S
H922 C914 0.930 . S
H923 C915 0.929 . S
H924 C932 0.929 . S
H925 C934 0.930 . S
H926 C936 0.930 . S
H927 C939 0.929 . S
H928 C942 0.930 . S
H929 C944 0.960 . S
H930 C944 0.960 . S
H931 C944 0.960 . S
C932 H924 0.929 . S
C932 C933 1.377 . S
C932 C934 1.384 . S
C933 C932 1.377 . S
C933 C939 1.390 . S
C934 H925 0.930 . S
C934 C932 1.384 . S
C934 C935 1.372 . S
C935 C934 1.372 . S
C935 C936 1.400 . S
C935 C940 1.490 . S
C936 H926 0.930 . S
C936 C935 1.400 . S
C936 C939 1.386 . S
H937 C953 0.930 . S
H938 C954 0.931 . S
C939 H927 0.929 . S
C939 C933 1.390 . S
C939 C936 1.386 . S
C940 C935 1.490 . S
C940 C942 1.395 . S
C940 C943 1.403 . S
H941 C947 0.930 . S
C942 H928 0.930 . S
C942 C940 1.395 . S
C942 C945 1.403 . S
C943 C940 1.403 . S
C943 C944 1.524 . S
C943 C947 1.400 . S
C944 H929 0.960 . S
C944 H930 0.960 . S
C944 H931 0.960 . S
C944 C943 1.524 . S
C945 C942 1.403 . S
C945 C946 1.392 . S
C945 C949 1.495 . S
C946 C945 1.392 . S
C946 C947 1.385 . S
C946 C948 1.478 . S
C947 H941 0.930 . S
C947 C943 1.400 . S
C947 C946 1.385 . S
C948 C946 1.478 . S
C948 C950 1.381 . S
C948 C954 1.383 . S
C949 C945 1.495 . S
C949 H955 0.959 . S
C949 H956 0.961 . S
C949 H957 0.960 . S
C950 C948 1.381 . S
C950 C951 1.394 . S
C950 H958 0.930 . S
C951 C950 1.394 . S
C951 C952 1.383 . S
C951 H959 0.929 . S
C952 C951 1.383 . S
C952 C953 1.377 . S
C953 H937 0.930 . S
C953 C952 1.377 . S
C953 C954 1.379 . S
C954 H938 0.931 . S
C954 C948 1.383 . S
C954 C953 1.379 . S
H955 C949 0.959 . S
H956 C949 0.961 . S
H957 C949 0.960 . S
H958 C950 0.930 . S
H959 C951 0.929 . S
H960 C968 0.929 . S
H961 C970 0.930 . S
H962 C972 0.930 . S
H963 C975 0.929 . S
H964 C978 0.930 . S
H965 C980 0.960 . S
H966 C980 0.960 . S
H967 C980 0.960 . S
C968 H960 0.929 . S
C968 C969 1.377 . S
C968 C970 1.384 . S
C969 C968 1.377 . S
C969 C975 1.390 . S
C970 H961 0.930 . S
C970 C968 1.384 . S
C970 C971 1.372 . S
C971 C970 1.372 . S
C971 C972 1.400 . S
C971 C976 1.490 . S
C972 H962 0.930 . S
C972 C971 1.400 . S
C972 C975 1.386 . S
H973 C989 0.930 . S
H974 C990 0.931 . S
C975 H963 0.929 . S
C975 C969 1.390 . S
C975 C972 1.386 . S
C976 C971 1.490 . S
C976 C978 1.395 . S
C976 C979 1.403 . S
H977 C983 0.930 1_655 S
C978 H964 0.930 . S
C978 C976 1.395 . S
C978 C981 1.403 . S
C979 C976 1.403 . S
C979 C980 1.524 . S
C979 C983 1.400 . S
C980 H965 0.960 . S
C980 H966 0.960 . S
C980 H967 0.960 . S
C980 C979 1.524 . S
C981 C978 1.403 . S
C981 C982 1.392 . S
C981 C985 1.495 . S
C982 C981 1.392 . S
C982 C983 1.385 . S
C982 C984 1.478 1_455 S
C983 H977 0.930 1_455 S
C983 C979 1.400 . S
C983 C982 1.385 . S
C984 C982 1.478 1_655 S
C984 C986 1.381 . S
C984 C990 1.383 . S
C985 C981 1.495 . S
C985 H991 0.959 . S
C985 H992 0.961 . S
C985 H993 0.960 . S
C986 C984 1.381 . S
C986 C987 1.394 . S
C986 H994 0.930 . S
C987 C986 1.394 . S
C987 C988 1.383 . S
C987 H995 0.929 . S
C988 C987 1.383 . S
C988 C989 1.377 . S
C989 H973 0.930 . S
C989 C988 1.377 . S
C989 C990 1.379 . S
C990 H974 0.931 . S
C990 C984 1.383 . S
C990 C989 1.379 . S
H991 C985 0.959 . S
H992 C985 0.961 . S
H993 C985 0.960 . S
H994 C986 0.930 . S
H995 C987 0.929 . S
H996 C1004 0.929 . S
H997 C1006 0.930 . S
H998 C1008 0.930 1_545 S
H999 C1011 0.929 . S
H1000 C1014 0.930 . S
H1001 C1016 0.960 . S
H1002 C1016 0.960 1_565 S
H1003 C1016 0.960 . S
C1004 H996 0.929 . S
C1004 C1005 1.377 . S
C1004 C1006 1.384 . S
C1005 C1004 1.377 . S
C1005 C1011 1.390 . S
C1006 H997 0.930 . S
C1006 C1004 1.384 . S
C1006 C1007 1.372 . S
C1007 C1006 1.372 . S
C1007 C1008 1.400 . S
C1007 C1012 1.490 1_565 S
C1008 H998 0.930 1_565 S
C1008 C1007 1.400 . S
C1008 C1011 1.386 . S
H1009 C1025 0.930 . S
H1010 C1026 0.931 . S
C1011 H999 0.929 . S
C1011 C1005 1.390 . S
C1011 C1008 1.386 . S
C1012 C1007 1.490 1_545 S
C1012 C1014 1.395 . S
C1012 C1015 1.403 . S
H1013 C1019 0.930 . S
C1014 H1000 0.930 . S
C1014 C1012 1.395 . S
C1014 C1017 1.403 . S
C1015 C1012 1.403 . S
C1015 C1016 1.524 . S
C1015 C1019 1.400 . S
C1016 H1001 0.960 . S
C1016 H1002 0.960 1_545 S
C1016 H1003 0.960 . S
C1016 C1015 1.524 . S
C1017 C1014 1.403 . S
C1017 C1018 1.392 . S
C1017 C1021 1.495 . S
C1018 C1017 1.392 . S
C1018 C1019 1.385 . S
C1018 C1020 1.478 . S
C1019 H1013 0.930 . S
C1019 C1015 1.400 . S
C1019 C1018 1.385 . S
C1020 C1018 1.478 . S
C1020 C1022 1.381 . S
C1020 C1026 1.383 . S
C1021 C1017 1.495 . S
C1021 H1027 0.959 . S
C1021 H1028 0.961 . S
C1021 H1029 0.960 . S
C1022 C1020 1.381 . S
C1022 C1023 1.394 . S
C1022 H1030 0.930 . S
C1023 C1022 1.394 . S
C1023 C1024 1.383 . S
C1023 H1031 0.929 . S
C1024 C1023 1.383 . S
C1024 C1025 1.377 . S
C1025 H1009 0.930 . S
C1025 C1024 1.377 . S
C1025 C1026 1.379 . S
C1026 H1010 0.931 . S
C1026 C1020 1.383 . S
C1026 C1025 1.379 . S
H1027 C1021 0.959 . S
H1028 C1021 0.961 . S
H1029 C1021 0.960 . S
H1030 C1022 0.930 . S
H1031 C1023 0.929 . S
C177 C113 1.557 . S
C196 C12 1.556 . S
C213 C15 1.550 . S
C232 C139 1.538 . S
C249 C29 1.557 . S
C268 C140 1.556 . S
C285 C54 1.554 . S
C304 C154 1.566 . S
C321 C85 1.550 . S
C340 C57 1.535 . S
C357 C83 1.556 . S
C376 C110 1.548 . S
C393 C138 1.310 . S
C412 C13 1.302 . S
C429 C14 1.309 . S
C448 C141 1.308 . S
C465 C155 1.303 . S
C484 C28 1.322 . S
C501 C55 1.310 . S
C520 C84 1.296 . S
C537 C111 1.302 . S
C556 C56 1.319 . S
C573 C112 1.307 . S
C592 C82 1.289 . S
C609 C0 2.016 . S
C628 C70 1.969 . S
C645 C27 2.015 . S
C664 C1 1.964 . S
C681 C26 1.989 . S
C700 C41 2.008 . S
C717 C42 2.016 . S
C736 C40 1.980 . S
C753 C69 2.019 . S
C772 C43 1.981 . S
C789 C71 2.017 . S
C808 C68 1.999 . S
C825 C97 2.014 . S
C844 C99 1.984 . S
C861 C98 2.017 . S
C880 C124 1.997 . S
C897 C125 2.017 . S
C916 C126 1.965 . S
C933 C127 2.017 . S
C952 C153 1.997 . S
C969 C152 2.016 . S
C988 C167 1.966 . S
C1005 C96 1.985 . S
C1024 C166 2.024 . S
