# Generated by pormake.
# Topology whz, (6)-cn, num edge types: 1
# Building blocks:
#     Node 0, Type 0, BuildingBlock: JUFBIX_clean_sbu_0, # of connection points: 6
#     Node 1, Type 0, BuildingBlock: JUFBIX_clean_sbu_0, # of connection points: 6
#     Node 2, Type 0, BuildingBlock: JUFBIX_clean_sbu_0, # of connection points: 6
#     Node 3, Type 0, BuildingBlock: JUFBIX_clean_sbu_0, # of connection points: 6
#     Node 4, Type 0, BuildingBlock: JUFBIX_clean_sbu_0, # of connection points: 6
#     Node 5, Type 0, BuildingBlock: JUFBIX_clean_sbu_0, # of connection points: 6
#     Node 6, Type 0, BuildingBlock: JUFBIX_clean_sbu_0, # of connection points: 6
#     Node 7, Type 0, BuildingBlock: JUFBIX_clean_sbu_0, # of connection points: 6
#     Node 8, Type 0, BuildingBlock: JUFBIX_clean_sbu_0, # of connection points: 6
#     Node 9, Type 0, BuildingBlock: JUFBIX_clean_sbu_0, # of connection points: 6
#     Node 10, Type 0, BuildingBlock: JUFBIX_clean_sbu_0, # of connection points: 6
#     Node 11, Type 0, BuildingBlock: JUFBIX_clean_sbu_0, # of connection points: 6
#     Node 12, Type 0, BuildingBlock: JUFBIX_clean_sbu_0, # of connection points: 6
#     Node 13, Type 0, BuildingBlock: JUFBIX_clean_sbu_0, # of connection points: 6
#     Node 14, Type 0, BuildingBlock: JUFBIX_clean_sbu_0, # of connection points: 6
#     Node 15, Type 0, BuildingBlock: JUFBIX_clean_sbu_0, # of connection points: 6
#     Edge 16, Type (0, 0), BuildingBlock: CIFDUS_clean_linker_0, # of connection points: 2
#     Edge 17, Type (0, 0), BuildingBlock: CIFDUS_clean_linker_0, # of connection points: 2
#     Edge 18, Type (0, 0), BuildingBlock: CIFDUS_clean_linker_0, # of connection points: 2
#     Edge 19, Type (0, 0), BuildingBlock: CIFDUS_clean_linker_0, # of connection points: 2
#     Edge 20, Type (0, 0), BuildingBlock: CIFDUS_clean_linker_0, # of connection points: 2
#     Edge 21, Type (0, 0), BuildingBlock: CIFDUS_clean_linker_0, # of connection points: 2
#     Edge 22, Type (0, 0), BuildingBlock: CIFDUS_clean_linker_0, # of connection points: 2
#     Edge 23, Type (0, 0), BuildingBlock: CIFDUS_clean_linker_0, # of connection points: 2
#     Edge 24, Type (0, 0), BuildingBlock: CIFDUS_clean_linker_0, # of connection points: 2
#     Edge 25, Type (0, 0), BuildingBlock: CIFDUS_clean_linker_0, # of connection points: 2
#     Edge 26, Type (0, 0), BuildingBlock: CIFDUS_clean_linker_0, # of connection points: 2
#     Edge 27, Type (0, 0), BuildingBlock: CIFDUS_clean_linker_0, # of connection points: 2
#     Edge 28, Type (0, 0), BuildingBlock: CIFDUS_clean_linker_0, # of connection points: 2
#     Edge 29, Type (0, 0), BuildingBlock: CIFDUS_clean_linker_0, # of connection points: 2
#     Edge 30, Type (0, 0), BuildingBlock: CIFDUS_clean_linker_0, # of connection points: 2
#     Edge 31, Type (0, 0), BuildingBlock: CIFDUS_clean_linker_0, # of connection points: 2
#     Edge 32, Type (0, 0), BuildingBlock: CIFDUS_clean_linker_0, # of connection points: 2
#     Edge 33, Type (0, 0), BuildingBlock: CIFDUS_clean_linker_0, # of connection points: 2
#     Edge 34, Type (0, 0), BuildingBlock: CIFDUS_clean_linker_0, # of connection points: 2
#     Edge 35, Type (0, 0), BuildingBlock: CIFDUS_clean_linker_0, # of connection points: 2
#     Edge 36, Type (0, 0), BuildingBlock: CIFDUS_clean_linker_0, # of connection points: 2
#     Edge 37, Type (0, 0), BuildingBlock: CIFDUS_clean_linker_0, # of connection points: 2
#     Edge 38, Type (0, 0), BuildingBlock: CIFDUS_clean_linker_0, # of connection points: 2
#     Edge 39, Type (0, 0), BuildingBlock: CIFDUS_clean_linker_0, # of connection points: 2
#     Edge 40, Type (0, 0), BuildingBlock: CIFDUS_clean_linker_0, # of connection points: 2
#     Edge 41, Type (0, 0), BuildingBlock: CIFDUS_clean_linker_0, # of connection points: 2
#     Edge 42, Type (0, 0), BuildingBlock: CIFDUS_clean_linker_0, # of connection points: 2
#     Edge 43, Type (0, 0), BuildingBlock: CIFDUS_clean_linker_0, # of connection points: 2
#     Edge 44, Type (0, 0), BuildingBlock: CIFDUS_clean_linker_0, # of connection points: 2
#     Edge 45, Type (0, 0), BuildingBlock: CIFDUS_clean_linker_0, # of connection points: 2
#     Edge 46, Type (0, 0), BuildingBlock: CIFDUS_clean_linker_0, # of connection points: 2
#     Edge 47, Type (0, 0), BuildingBlock: CIFDUS_clean_linker_0, # of connection points: 2
#     Edge 48, Type (0, 0), BuildingBlock: CIFDUS_clean_linker_0, # of connection points: 2
#     Edge 49, Type (0, 0), BuildingBlock: CIFDUS_clean_linker_0, # of connection points: 2
#     Edge 50, Type (0, 0), BuildingBlock: CIFDUS_clean_linker_0, # of connection points: 2
#     Edge 51, Type (0, 0), BuildingBlock: CIFDUS_clean_linker_0, # of connection points: 2
#     Edge 52, Type (0, 0), BuildingBlock: CIFDUS_clean_linker_0, # of connection points: 2
#     Edge 53, Type (0, 0), BuildingBlock: CIFDUS_clean_linker_0, # of connection points: 2
#     Edge 54, Type (0, 0), BuildingBlock: CIFDUS_clean_linker_0, # of connection points: 2
#     Edge 55, Type (0, 0), BuildingBlock: CIFDUS_clean_linker_0, # of connection points: 2
#     Edge 56, Type (0, 0), BuildingBlock: CIFDUS_clean_linker_0, # of connection points: 2
#     Edge 57, Type (0, 0), BuildingBlock: CIFDUS_clean_linker_0, # of connection points: 2
#     Edge 58, Type (0, 0), BuildingBlock: CIFDUS_clean_linker_0, # of connection points: 2
#     Edge 59, Type (0, 0), BuildingBlock: CIFDUS_clean_linker_0, # of connection points: 2
#     Edge 60, Type (0, 0), BuildingBlock: CIFDUS_clean_linker_0, # of connection points: 2
#     Edge 61, Type (0, 0), BuildingBlock: CIFDUS_clean_linker_0, # of connection points: 2
#     Edge 62, Type (0, 0), BuildingBlock: CIFDUS_clean_linker_0, # of connection points: 2
#     Edge 63, Type (0, 0), BuildingBlock: CIFDUS_clean_linker_0, # of connection points: 2
# Relax obj value: 0.402
# Max RMSD: 0.258
# Mean RMSD: 0.258
data_MOF--net-whz--node1-JUFBIX_clean_sbu_0--edge1-CIFDUS_clean_linker_0
_symmetry_space_group_name_H-M    P1
_symmetry_Int_Tables_number       1
_symmetry_cell_setting            triclinic
loop_
_symmetry_equiv_pos_as_xyz
'x, y, z'
_cell_length_a     36.163986
_cell_length_b     36.328067
_cell_length_c     39.619642
_cell_angle_alpha  90.00445
_cell_angle_beta   90.414356
_cell_angle_gamma 89.877406
loop_
_atom_site_label
_atom_site_type_symbol
_atom_site_fract_x
_atom_site_fract_y
_atom_site_fract_z
_atom_type_partial_charge
Co0 Co 0.26558 0.13578 0.14982 0.0
C1 C 0.3245 0.09185 0.16683 0.0
Co2 Co 0.31852 0.161 0.13445 0.0
C3 C 0.18771 0.11453 0.15185 0.0
C4 C 0.21749 0.10442 0.19784 0.0
N5 N 0.22149 0.11771 0.16628 0.0
N6 N 0.16295 0.09957 0.17327 0.0
C7 C 0.1817 0.09342 0.20222 0.0
H8 H 0.18168 0.12231 0.12602 0.0
H9 H 0.23935 0.10272 0.21656 0.0
C10 C 0.25889 0.20532 0.12056 0.0
N11 N 0.36456 0.17763 0.11953 0.0
C12 C 0.38457 0.20809 0.12712 0.0
C13 C 0.38728 0.15704 0.10031 0.0
N14 N 0.41891 0.2069 0.11358 0.0
C15 C 0.4204 0.17486 0.09656 0.0
C16 C 0.28066 0.11906 0.0846 0.0
O17 O 0.24165 0.17842 0.13363 0.0
O18 O 0.29394 0.20378 0.11747 0.0
O19 O 0.30991 0.13722 0.0913 0.0
O20 O 0.25739 0.11326 0.1078 0.0
O21 O 0.34282 0.11775 0.15319 0.0
H22 H 0.38066 0.13007 0.09047 0.0
H23 H 0.37471 0.22993 0.14333 0.0
O24 O 0.28955 0.09361 0.16626 0.0
O25 O 0.27309 0.15936 0.19137 0.0
O26 O 0.32471 0.18604 0.17646 0.0
C27 C 0.29939 0.18106 0.19806 0.0
H28 H 0.17038 0.08188 0.22511 0.0
H29 H 0.44389 0.16479 0.08249 0.0
Co30 Co 0.63138 0.51361 0.39043 0.0
C31 C 0.67291 0.57609 0.40676 0.0
Co32 Co 0.60588 0.5663 0.3743 0.0
C33 C 0.65782 0.43738 0.39309 0.0
C34 C 0.67041 0.46882 0.43738 0.0
N35 N 0.65392 0.47122 0.4068 0.0
N36 N 0.67631 0.41414 0.41396 0.0
C37 C 0.68412 0.43396 0.44184 0.0
H38 H 0.6477 0.43015 0.36819 0.0
H39 H 0.6722 0.49107 0.45546 0.0
C40 C 0.56315 0.5037 0.36155 0.0
N41 N 0.58289 0.60931 0.35893 0.0
C42 C 0.57739 0.64179 0.37488 0.0
C43 C 0.56582 0.61329 0.32877 0.0
N44 N 0.55733 0.66573 0.3559 0.0
C45 C 0.55013 0.64776 0.32685 0.0
C46 C 0.64805 0.53148 0.32502 0.0
O47 O 0.58956 0.48628 0.37568 0.0
O48 O 0.5656 0.5383 0.3574 0.0
O49 O 0.62998 0.56061 0.33181 0.0
O50 O 0.65325 0.50733 0.34778 0.0
O51 O 0.64652 0.59383 0.39271 0.0
H52 H 0.56455 0.59227 0.30945 0.0
H53 H 0.58727 0.64743 0.40021 0.0
O54 O 0.67242 0.54118 0.40598 0.0
O55 O 0.60849 0.5196 0.43208 0.0
O56 O 0.58092 0.57046 0.41603 0.0
C57 C 0.58584 0.54539 0.43797 0.0
H58 H 0.69826 0.42387 0.46416 0.0
H59 H 0.53502 0.65886 0.30547 0.0
Co60 Co 0.27056 0.87588 0.64615 0.0
C61 C 0.21808 0.92747 0.6625 0.0
Co62 Co 0.21378 0.85682 0.63308 0.0
C63 C 0.34999 0.89618 0.64609 0.0
C64 C 0.32357 0.90054 0.69406 0.0
N65 N 0.31725 0.89053 0.66169 0.0
N66 N 0.37611 0.90932 0.66766 0.0
C67 C 0.3594 0.91154 0.69783 0.0
H68 H 0.35413 0.89211 0.61932 0.0
H69 H 0.30313 0.90099 0.71383 0.0
C70 C 0.26847 0.80494 0.62095 0.0
N71 N 0.16515 0.84351 0.61993 0.0
C72 C 0.14457 0.81302 0.62635 0.0
C73 C 0.14178 0.86611 0.60319 0.0
N74 N 0.10927 0.81603 0.61448 0.0
C75 C 0.10779 0.84948 0.59979 0.0
C76 C 0.2539 0.89207 0.58099 0.0
O77 O 0.28884 0.83002 0.63346 0.0
O78 O 0.23395 0.81113 0.61626 0.0
O79 O 0.22225 0.87959 0.58933 0.0
O80 O 0.2798 0.89359 0.60277 0.0
O81 O 0.19525 0.90306 0.65213 0.0
H82 H 0.14883 0.8934 0.59446 0.0
H83 H 0.15501 0.78955 0.64031 0.0
O84 O 0.25234 0.92148 0.65933 0.0
O85 O 0.26093 0.8568 0.68907 0.0
O86 O 0.20715 0.83345 0.67552 0.0
C87 C 0.23305 0.83786 0.69691 0.0
H88 H 0.37194 0.921 0.72114 0.0
H89 H 0.08385 0.86122 0.58724 0.0
Co90 Co 0.89219 0.50994 0.89431 0.0
C91 C 0.84499 0.45251 0.90963 0.0
Co92 Co 0.91334 0.45532 0.87798 0.0
C93 C 0.8667 0.58737 0.89691 0.0
C94 C 0.8595 0.55702 0.94264 0.0
N95 N 0.87365 0.55424 0.91125 0.0
N96 N 0.84847 0.61022 0.91817 0.0
C97 C 0.84415 0.59115 0.94693 0.0
H98 H 0.87352 0.59407 0.87108 0.0
H99 H 0.8592 0.53506 0.96108 0.0
C100 C 0.96167 0.51237 0.86569 0.0
N101 N 0.92938 0.40868 0.8633 0.0
C102 C 0.9598 0.38849 0.87145 0.0
C103 C 0.9086 0.38582 0.84424 0.0
N104 N 0.95843 0.35391 0.85846 0.0
C105 C 0.92625 0.35245 0.84118 0.0
C106 C 0.87369 0.49491 0.82842 0.0
O107 O 0.93726 0.53219 0.88016 0.0
O108 O 0.95579 0.4782 0.86078 0.0
O109 O 0.88889 0.46402 0.8351 0.0
O110 O 0.87125 0.51917 0.85141 0.0
O111 O 0.87021 0.43272 0.89666 0.0
H112 H 0.8816 0.39255 0.83404 0.0
H113 H 0.98178 0.39844 0.88771 0.0
O114 O 0.84836 0.48718 0.9088 0.0
O115 O 0.91418 0.50099 0.93641 0.0
O116 O 0.93915 0.44905 0.92001 0.0
C117 C 0.93529 0.47394 0.94229 0.0
H118 H 0.83067 0.60114 0.96947 0.0
H119 H 0.91595 0.32883 0.82741 0.0
Co120 Co 0.7122 0.86451 0.88459 0.0
C121 C 0.75808 0.80935 0.90869 0.0
Co122 Co 0.77172 0.8767 0.87806 0.0
C123 C 0.64183 0.825 0.88584 0.0
C124 C 0.63649 0.88156 0.89994 0.0
N125 N 0.66161 0.85623 0.89042 0.0
N126 N 0.60531 0.82986 0.89209 0.0
C127 C 0.60205 0.86555 0.901 0.0
H128 H 0.65407 0.7993 0.87771 0.0
H129 H 0.64285 0.90993 0.90587 0.0
C130 C 0.72779 0.92998 0.84952 0.0
N131 N 0.8216 0.88449 0.8712 0.0
C132 C 0.84096 0.91624 0.8717 0.0
C133 C 0.84602 0.85862 0.86134 0.0
N134 N 0.87646 0.91114 0.8623 0.0
C135 C 0.87967 0.8748 0.85605 0.0
C136 C 0.74056 0.8361 0.82616 0.0
O137 O 0.70151 0.91021 0.86085 0.0
O138 O 0.76086 0.92072 0.85602 0.0
O139 O 0.76947 0.852 0.83684 0.0
O140 O 0.71078 0.8389 0.84283 0.0
O141 O 0.7826 0.83195 0.89931 0.0
H142 H 0.83954 0.82994 0.85732 0.0
H143 H 0.8289 0.94268 0.87779 0.0
O144 O 0.72409 0.81852 0.90662 0.0
O145 O 0.71482 0.88973 0.92734 0.0
O146 O 0.774 0.9009 0.91966 0.0
C147 C 0.74532 0.90318 0.93779 0.0
H148 H 0.57672 0.87909 0.90847 0.0
H149 H 0.90456 0.86071 0.84822 0.0
Co150 Co 0.41502 0.45668 0.63367 0.0
C151 C 0.45302 0.52265 0.64765 0.0
Co152 Co 0.38829 0.50769 0.61451 0.0
C153 C 0.45647 0.38607 0.64086 0.0
C154 C 0.44497 0.41388 0.68728 0.0
N155 N 0.43882 0.416 0.6537 0.0
N156 N 0.47345 0.3659 0.66532 0.0
C157 C 0.4658 0.38336 0.69442 0.0
H158 H 0.45834 0.38019 0.61414 0.0
H159 H 0.43617 0.43409 0.70559 0.0
C160 C 0.35207 0.44201 0.5969 0.0
N161 N 0.36424 0.5474 0.59442 0.0
C162 C 0.35312 0.57999 0.60733 0.0
C163 C 0.3501 0.5468 0.56276 0.0
N164 N 0.33218 0.59925 0.58506 0.0
C165 C 0.33029 0.57847 0.55703 0.0
C166 C 0.4408 0.47691 0.57215 0.0
O167 O 0.3785 0.42575 0.61242 0.0
O168 O 0.35069 0.47688 0.59729 0.0
O169 O 0.41574 0.5011 0.57524 0.0
O170 O 0.4451 0.45268 0.59499 0.0
O171 O 0.4271 0.53833 0.6311 0.0
H172 H 0.35302 0.52415 0.54525 0.0
H173 H 0.35899 0.58876 0.63293 0.0
O174 O 0.45143 0.48817 0.6532 0.0
O175 O 0.38505 0.46242 0.67305 0.0
O176 O 0.36154 0.51455 0.65467 0.0
C177 C 0.36479 0.49054 0.67776 0.0
H178 H 0.47532 0.37507 0.71926 0.0
H179 H 0.31549 0.58566 0.5341 0.0
Co180 Co 0.81381 0.16049 0.38297 0.0
C181 C 0.75963 0.2125 0.39964 0.0
Co182 Co 0.75597 0.14452 0.37015 0.0
C183 C 0.88155 0.20474 0.38994 0.0
C184 C 0.88606 0.15168 0.41296 0.0
N185 N 0.86199 0.17372 0.39644 0.0
N186 N 0.91693 0.20272 0.40152 0.0
C187 C 0.91959 0.16929 0.41614 0.0
H188 H 0.87033 0.22789 0.37602 0.0
H189 H 0.87986 0.12414 0.42158 0.0
C190 C 0.80957 0.09322 0.35058 0.0
N191 N 0.70957 0.13001 0.3531 0.0
C192 C 0.67402 0.13034 0.36393 0.0
C193 C 0.70746 0.11544 0.32178 0.0
N194 N 0.65029 0.11679 0.3402 0.0
C195 C 0.6717 0.1073 0.31396 0.0
C196 C 0.79275 0.18603 0.32138 0.0
O197 O 0.83279 0.11643 0.36209 0.0
O198 O 0.77541 0.09979 0.3539 0.0
O199 O 0.76449 0.16733 0.32868 0.0
O200 O 0.81998 0.18644 0.34175 0.0
O201 O 0.73724 0.18965 0.3862 0.0
H202 H 0.73075 0.11072 0.30535 0.0
H203 H 0.66578 0.14043 0.38846 0.0
O204 O 0.79389 0.20431 0.40235 0.0
O205 O 0.80591 0.13511 0.42511 0.0
O206 O 0.74758 0.12303 0.4124 0.0
C207 C 0.77442 0.12224 0.43335 0.0
H208 H 0.94403 0.15819 0.42837 0.0
H209 H 0.66245 0.09427 0.29084 0.0
Co210 Co 0.11762 0.56492 0.12258 0.0
C211 C 0.06053 0.5197 0.13708 0.0
Co212 Co 0.13171 0.50673 0.11247 0.0
C213 C 0.07792 0.63552 0.12762 0.0
C214 C 0.13511 0.63949 0.14115 0.0
N215 N 0.10934 0.61527 0.13057 0.0
N216 N 0.08319 0.67144 0.13584 0.0
C217 C 0.11928 0.6738 0.14434 0.0
H218 H 0.05175 0.62409 0.11943 0.0
H219 H 0.16365 0.63256 0.14657 0.0
C220 C 0.18811 0.55064 0.0939 0.0
N221 N 0.13897 0.45723 0.10327 0.0
C222 C 0.16732 0.4345 0.11131 0.0
C223 C 0.11541 0.43633 0.08505 0.0
N224 N 0.16225 0.40018 0.09877 0.0
C225 C 0.1296 0.40151 0.08215 0.0
C226 C 0.09746 0.54153 0.05879 0.0
O227 O 0.16547 0.57582 0.10282 0.0
O228 O 0.17959 0.51725 0.09882 0.0
O229 O 0.11522 0.51323 0.06802 0.0
O230 O 0.09463 0.56873 0.07888 0.0
O231 O 0.08312 0.49625 0.12548 0.0
H232 H 0.08959 0.44594 0.07423 0.0
H233 H 0.19097 0.44296 0.12626 0.0
O234 O 0.07051 0.55301 0.14066 0.0
O235 O 0.13913 0.55924 0.16717 0.0
O236 O 0.14755 0.50022 0.15719 0.0
C237 C 0.14863 0.52728 0.17743 0.0
H238 H 0.13318 0.69838 0.15314 0.0
H239 H 0.11695 0.37912 0.06829 0.0
Co240 Co 0.75766 0.64778 0.63776 0.0
C241 C 0.80778 0.59562 0.6619 0.0
Co242 Co 0.81665 0.66158 0.62665 0.0
C243 C 0.67726 0.62821 0.63583 0.0
C244 C 0.70132 0.63189 0.68514 0.0
N245 N 0.70935 0.63649 0.65216 0.0
N246 N 0.64998 0.61868 0.65758 0.0
C247 C 0.66528 0.62155 0.68852 0.0
H248 H 0.67441 0.6277 0.60862 0.0
H249 H 0.72075 0.63457 0.70585 0.0
C250 C 0.76538 0.71503 0.60661 0.0
N251 N 0.86624 0.67204 0.61518 0.0
C252 C 0.88692 0.70265 0.62091 0.0
C253 C 0.89015 0.64785 0.60151 0.0
N254 N 0.9228 0.69832 0.6116 0.0
C255 C 0.92462 0.66376 0.59927 0.0
C256 C 0.77717 0.62276 0.57576 0.0
O257 O 0.74192 0.69252 0.6186 0.0
O258 O 0.79963 0.70625 0.60591 0.0
O259 O 0.80872 0.63573 0.58426 0.0
O260 O 0.75033 0.62418 0.59628 0.0
O261 O 0.83221 0.61676 0.64928 0.0
H262 H 0.88312 0.62003 0.59417 0.0
H263 H 0.87605 0.72727 0.63264 0.0
O264 O 0.7739 0.60358 0.65771 0.0
O265 O 0.76566 0.67279 0.6782 0.0
O266 O 0.8229 0.68789 0.66782 0.0
C267 C 0.79476 0.68972 0.6867 0.0
H268 H 0.65162 0.61601 0.71218 0.0
H269 H 0.94911 0.65078 0.58915 0.0
Co270 Co 0.13356 1.00708 0.88977 0.0
C271 C 0.18285 0.05778 0.91536 0.0
Co272 Co 0.11593 0.06472 0.87929 0.0
C273 C 0.1623 0.93107 0.8863 0.0
C274 C 0.14442 0.94689 0.93553 0.0
N275 N 0.1462 0.95914 0.90332 0.0
N276 N 0.16979 0.90205 0.90668 0.0
C277 C 0.15839 0.91201 0.93753 0.0
H278 H 0.16927 0.93212 0.8598 0.0
H279 H 0.13554 0.96276 0.95702 0.0
C280 C 0.06633 0.01247 0.85652 0.0
N281 N 0.10447 0.11364 0.86785 0.0
C282 C 0.07343 0.13388 0.87289 0.0
C283 C 0.12863 0.13751 0.85421 0.0
N284 N 0.07751 0.16948 0.86315 0.0
C285 C 0.11228 0.1716 0.8513 0.0
C286 C 0.15692 0.02794 0.82797 0.0
O287 O 0.09081 0.99024 0.86757 0.0
O288 O 0.07127 0.04714 0.85889 0.0
O289 O 0.14073 0.05786 0.83623 0.0
O290 O 0.15967 1.00213 0.84944 0.0
O291 O 0.16106 0.08119 0.90168 0.0
H292 H 0.15669 0.13067 0.84725 0.0
H293 H 0.04868 0.12292 0.8843 0.0
O294 O 0.17587 0.02383 0.91214 0.0
O295 O 0.10566 0.01251 0.92922 0.0
O296 O 0.08985 0.06982 0.92071 0.0
C297 C 0.08777 0.0407 0.93834 0.0
H298 H 0.1619 0.89595 0.96037 0.0
H299 H 0.12503 0.19601 0.84097 0.0
Co300 Co 0.76554 0.37949 0.13875 0.0
C301 C 0.71448 0.43033 0.16154 0.0
Co302 Co 0.70768 0.36368 0.12723 0.0
C303 C 0.84211 0.40462 0.13436 0.0
C304 C 0.82233 0.39981 0.18494 0.0
N305 N 0.81278 0.39314 0.15245 0.0
N306 N 0.86904 0.41852 0.15441 0.0
C307 C 0.85678 0.41518 0.1862 0.0
H308 H 0.84283 0.40489 0.10706 0.0
H309 H 0.80459 0.39582 0.20647 0.0
C310 C 0.76044 0.31167 0.10817 0.0
N311 N 0.65886 0.35212 0.11584 0.0
C312 C 0.63886 0.32136 0.12182 0.0
C313 C 0.63456 0.37587 0.10174 0.0
N314 N 0.60298 0.32523 0.11225 0.0
C315 C 0.60039 0.35952 0.09949 0.0
C316 C 0.74385 0.40392 0.07668 0.0
O317 O 0.78297 0.33531 0.12004 0.0
O318 O 0.72589 0.31917 0.10687 0.0
O319 O 0.71336 0.3891 0.08489 0.0
O320 O 0.771 0.40339 0.09711 0.0
O321 O 0.69066 0.40819 0.14925 0.0
H322 H 0.64111 0.40371 0.09419 0.0
H323 H 0.65014 0.29706 0.13393 0.0
O324 O 0.74841 0.42298 0.15809 0.0
O325 O 0.75979 0.35464 0.17955 0.0
O326 O 0.70311 0.33752 0.16858 0.0
C327 C 0.73144 0.33651 0.18768 0.0
H328 H 0.87129 0.42419 0.20872 0.0
H329 H 0.57557 0.37197 0.08913 0.0
Co330 Co 0.38637 1.01062 0.39854 0.0
C331 C 0.3574 0.94223 0.41402 0.0
Co332 Co 0.4229 0.96451 0.38396 0.0
C333 C 0.35123 0.08199 0.39634 0.0
C334 C 0.33267 0.04894 0.43756 0.0
N335 N 0.35483 0.04836 0.41033 0.0
N336 N 0.32791 0.1037 0.41394 0.0
C337 C 0.31607 0.08285 0.43982 0.0
H338 H 0.36603 0.09051 0.37403 0.0
H339 H 0.32985 0.0266 0.4554 0.0
C340 C 0.45317 0.03388 0.37305 0.0
N341 N 0.45626 0.92625 0.37436 0.0
C342 C 0.45108 0.88966 0.36939 0.0
C343 C 0.49336 0.9301 0.37628 0.0
N344 N 0.48351 0.87085 0.36849 0.0
C345 C 0.51001 0.89644 0.37256 0.0
C346 C 0.37744 0.98674 0.33197 0.0
O347 O 0.42345 0.04519 0.38637 0.0
O348 O 0.45743 0.99972 0.36744 0.0
O349 O 0.40092 0.96186 0.33985 0.0
O350 O 0.36746 1.01032 0.35386 0.0
O351 O 0.38782 0.93012 0.40225 0.0
H352 H 0.50764 0.95559 0.38162 0.0
H353 H 0.42412 0.87683 0.36814 0.0
O354 O 0.35038 0.97633 0.4118 0.0
O355 O 0.40571 0.01121 0.44256 0.0
O356 O 0.44513 0.96876 0.42711 0.0
C357 C 0.43366 0.99139 0.44909 0.0
H358 H 0.29801 0.09188 0.45986 0.0
H359 H 0.53947 0.89117 0.37337 0.0
Co360 Co 0.20376 0.3628 0.37706 0.0
C361 C 0.25276 0.30774 0.39556 0.0
Co362 Co 0.2624 0.37501 0.36481 0.0
C363 C 0.13446 0.32213 0.38542 0.0
C364 C 0.13038 0.37809 0.40173 0.0
N365 N 0.15443 0.35349 0.38892 0.0
N366 N 0.09884 0.32628 0.39534 0.0
C367 C 0.0964 0.36158 0.40567 0.0
H368 H 0.14575 0.29695 0.37511 0.0
H369 H 0.13706 0.4064 0.40761 0.0
C370 C 0.21398 0.42937 0.34311 0.0
N371 N 0.31071 0.3849 0.35047 0.0
C372 C 0.34234 0.39297 0.36748 0.0
C373 C 0.31959 0.38927 0.31762 0.0
N374 N 0.37008 0.40225 0.34631 0.0
C375 C 0.35574 0.39945 0.31503 0.0
C376 C 0.22367 0.33616 0.31533 0.0
O377 O 0.18925 0.40804 0.35489 0.0
O378 O 0.24774 0.42074 0.34698 0.0
O379 O 0.25303 0.35268 0.32334 0.0
O380 O 0.19659 0.33631 0.33555 0.0
O381 O 0.27663 0.32879 0.38214 0.0
H382 H 0.30069 0.38694 0.29648 0.0
H383 H 0.34446 0.39391 0.39473 0.0
O384 O 0.2192 0.31819 0.39756 0.0
O385 O 0.21261 0.3882 0.4196 0.0
O386 O 0.27139 0.39608 0.40712 0.0
C387 C 0.24513 0.39855 0.42812 0.0
H388 H 0.07191 0.3746 0.41575 0.0
H389 H 0.3701 0.40543 0.29179 0.0
Co390 Co 0.91603 0.95585 0.13634 0.0
C391 C 0.9637 0.01291 0.15252 0.0
Co392 Co 0.89521 0.01149 0.12183 0.0
C393 C 0.96271 0.88912 0.13994 0.0
C394 C 0.91321 0.88528 0.1689 0.0
N395 N 0.93265 0.90882 0.14964 0.0
N396 N 0.96246 0.85419 0.15217 0.0
C397 C 0.93133 0.85199 0.17056 0.0
H398 H 0.9836 0.89973 0.12314 0.0
H399 H 0.88679 0.89149 0.18021 0.0
C400 C 0.84819 0.95412 0.10355 0.0
N401 N 0.8769 0.05658 0.10602 0.0
C402 C 0.86977 0.08934 0.121 0.0
C403 C 0.86433 0.06072 0.07404 0.0
N404 N 0.85297 0.11328 0.0995 0.0
C405 C 0.84982 0.09524 0.06999 0.0
C406 C 0.93951 0.97789 0.07368 0.0
O407 O 0.87275 0.93391 0.11732 0.0
O408 O 0.85228 0.98876 0.10412 0.0
O409 O 0.91937 1.00527 0.08076 0.0
O410 O 0.94095 0.95086 0.09406 0.0
O411 O 0.93895 0.03349 0.13923 0.0
H412 H 0.86478 0.03951 0.05489 0.0
H413 H 0.87555 0.09504 0.14733 0.0
O414 O 0.9587 0.97825 0.15437 0.0
O415 O 0.89229 0.96313 0.17928 0.0
O416 O 0.87242 0.01799 0.16386 0.0
C417 C 0.87592 0.99326 0.18635 0.0
H418 H 0.92205 0.82793 0.18416 0.0
H419 H 0.83773 0.10621 0.04701 0.0
Co420 Co 0.32182 0.66045 0.87973 0.0
C421 C 0.26399 0.70604 0.89729 0.0
Co422 Co 0.26646 0.63635 0.86926 0.0
C423 C 0.3884 0.70772 0.88342 0.0
C424 C 0.39338 0.6567 0.91002 0.0
N425 N 0.36923 0.67702 0.89177 0.0
N426 N 0.42359 0.70703 0.89563 0.0
C427 C 0.42646 0.67495 0.91253 0.0
H428 H 0.37712 0.72954 0.86783 0.0
H429 H 0.38758 0.62978 0.92033 0.0
C430 C 0.32301 0.59145 0.84812 0.0
N431 N 0.22068 0.61841 0.85539 0.0
C432 C 0.18834 0.61289 0.87159 0.0
C433 C 0.21424 0.60698 0.82348 0.0
N434 N 0.16224 0.59835 0.85083 0.0
C435 C 0.17861 0.595 0.82056 0.0
C436 C 0.29706 0.67998 0.81795 0.0
O437 O 0.34365 0.61637 0.86074 0.0
O438 O 0.28834 0.59452 0.85093 0.0
O439 O 0.27027 0.66041 0.82755 0.0
O440 O 0.32513 0.68389 0.83704 0.0
O441 O 0.24454 0.67893 0.88736 0.0
H442 H 0.23436 0.60709 0.80341 0.0
H443 H 0.18433 0.61869 0.89811 0.0
O444 O 0.29921 0.70408 0.89676 0.0
O445 O 0.31656 0.63796 0.92362 0.0
O446 O 0.26269 0.61318 0.91127 0.0
C447 C 0.28853 0.61916 0.9324 0.0
H448 H 0.45076 0.6652 0.9259 0.0
H449 H 0.16578 0.58475 0.79767 0.0
Co450 Co 0.61253 0.06939 0.63883 0.0
C451 C 0.57115 1.00686 0.65264 0.0
Co452 Co 0.63891 0.01707 0.62287 0.0
C453 C 0.57826 0.1429 0.63723 0.0
C454 C 0.58256 0.12015 0.68698 0.0
N455 N 0.59023 0.11275 0.65438 0.0
N456 N 0.56409 0.16879 0.65806 0.0
C457 C 0.56687 0.15451 0.68931 0.0
H458 H 0.58037 0.14607 0.61015 0.0
H459 H 0.58784 0.10166 0.70786 0.0
C460 C 0.67873 0.07969 0.60576 0.0
N461 N 0.66137 0.97482 0.60599 0.0
C462 C 0.66551 0.94059 0.61891 0.0
C463 C 0.6779 0.97335 0.57557 0.0
N464 N 0.68423 0.91809 0.59772 0.0
C465 C 0.69192 0.93875 0.57047 0.0
C466 C 0.59198 0.04862 0.57532 0.0
O467 O 0.65196 0.09703 0.61924 0.0
O468 O 0.67937 0.04483 0.60741 0.0
O469 O 0.61534 0.02338 0.58115 0.0
O470 O 0.58562 0.0728 0.59769 0.0
O471 O 0.59714 0.98964 0.63788 0.0
H472 H 0.67952 0.99608 0.55801 0.0
H473 H 0.65538 0.93253 0.64346 0.0
O474 O 0.57352 0.04148 0.65695 0.0
O475 O 0.63892 0.06409 0.68073 0.0
O476 O 0.66203 1.01068 0.66527 0.0
C477 C 0.65759 0.03529 0.68767 0.0
H478 H 0.55767 0.16786 0.71222 0.0
H479 H 0.70613 0.92936 0.5481 0.0
H480 H 0.28313 0.25201 0.19045 0.0
H481 H 0.29588 0.16676 0.26516 0.0
H482 H 0.26679 0.20629 0.30766 0.0
H483 H 0.23666 0.26473 0.32281 0.0
H484 H 0.22394 0.34997 0.24813 0.0
H485 H 0.25205 0.31007 0.20539 0.0
C486 C 0.2806 0.24272 0.21638 0.0
C487 C 0.29292 0.20734 0.22532 0.0
C488 C 0.26205 0.26476 0.23991 0.0
C489 C 0.28786 0.19455 0.25834 0.0
C490 C 0.27051 0.21678 0.2823 0.0
C491 C 0.23874 0.27384 0.29679 0.0
C492 C 0.22692 0.30944 0.288 0.0
C493 C 0.25681 0.2516 0.27313 0.0
C494 C 0.23146 0.322 0.25484 0.0
C495 C 0.24834 0.29958 0.23075 0.0
H496 H 0.45005 0.53754 0.53414 0.0
H497 H 0.49614 0.42969 0.55353 0.0
H498 H 0.54799 0.44362 0.51629 0.0
H499 H 0.57956 0.48626 0.47873 0.0
H500 H 0.53303 0.59394 0.45924 0.0
H501 H 0.48232 0.58063 0.49779 0.0
C502 C 0.47111 0.51676 0.52992 0.0
C503 C 0.46907 0.48239 0.54619 0.0
C504 C 0.50109 0.52532 0.50943 0.0
C505 C 0.49694 0.45614 0.54092 0.0
C506 C 0.5267 0.46425 0.51999 0.0
C507 C 0.5587 0.50716 0.48327 0.0
C508 C 0.56 0.54109 0.46615 0.0
C509 C 0.52914 0.49886 0.50442 0.0
C510 C 0.53268 0.56771 0.47224 0.0
C511 C 0.50351 0.55995 0.49392 0.0
H512 H 0.22594 0.7647 0.6969 0.0
H513 H 0.25477 0.85709 0.75991 0.0
H514 H 0.28297 0.8156 0.80147 0.0
H515 H 0.30198 0.7533 0.81827 0.0
H516 H 0.27234 0.66078 0.75583 0.0
H517 H 0.24362 0.70219 0.71439 0.0
C518 C 0.23708 0.77548 0.72041 0.0
C519 C 0.23744 0.81359 0.72604 0.0
C520 C 0.25476 0.75169 0.74322 0.0
C521 C 0.25334 0.82764 0.75577 0.0
C522 C 0.2701 0.80406 0.77908 0.0
C523 C 0.29011 0.74247 0.7951 0.0
C524 C 0.2901 0.70442 0.78935 0.0
C525 C 0.27188 0.76617 0.77258 0.0
C526 C 0.27351 0.69024 0.76 0.0
C527 C 0.25646 0.71377 0.73679 0.0
H528 H 1.00856 0.47933 0.9357 0.0
H529 H 0.92095 0.4842 0.00865 0.0
H530 H 0.96338 0.51122 0.05029 0.0
H531 H 0.02462 0.53594 0.06474 0.0
H532 H 0.11276 0.53012 0.99248 0.0
H533 H 0.07039 0.50308 0.95063 0.0
C534 C 0.99926 0.48512 0.96114 0.0
C535 C 0.9622 0.47866 0.96972 0.0
C536 C 0.02329 0.50234 0.98418 0.0
C537 C 0.94975 0.48786 1.0021 0.0
C538 C 0.97375 0.50401 0.02554 0.0
C539 C 0.03411 0.52977 0.03943 0.0
C540 C 0.07116 0.53626 0.03099 0.0
C541 C 1.01026 0.51225 0.01652 0.0
C542 C 0.0839 0.52659 0.99884 0.0
C543 C 0.05993 0.51041 0.97531 0.0
H544 H 0.8027 0.8187 0.79199 0.0
H545 H 0.6861 0.79377 0.79813 0.0
H546 H 0.69393 0.74406 0.75731 0.0
H547 H 0.73366 0.70741 0.72148 0.0
H548 H 0.85004 0.73255 0.7138 0.0
H549 H 0.84261 0.7822 0.75511 0.0
C550 C 0.77884 0.80272 0.78414 0.0
C551 C 0.74378 0.80997 0.79798 0.0
C552 C 0.78366 0.77387 0.76124 0.0
C553 C 0.71327 0.78889 0.78767 0.0
C554 C 0.7178 0.76029 0.76462 0.0
C555 C 0.75766 0.72337 0.729 0.0
C556 C 0.7925 0.71613 0.71478 0.0
C557 C 0.75293 0.75232 0.75168 0.0
C558 C 0.82306 0.7374 0.72465 0.0
C559 C 0.81871 0.76594 0.74795 0.0
H560 H 0.79235 0.32307 0.22556 0.0
H561 H 0.67981 0.28694 0.20936 0.0
H562 H 0.69075 0.23451 0.24687 0.0
H563 H 0.73243 0.19873 0.28262 0.0
H564 H 0.84477 0.23515 0.29942 0.0
H565 H 0.83408 0.28724 0.26139 0.0
C566 C 0.76994 0.30406 0.23049 0.0
C567 C 0.73517 0.309 0.2148 0.0
C568 C 0.77674 0.27359 0.25115 0.0
C569 C 0.70665 0.28396 0.22139 0.0
C570 C 0.71305 0.25377 0.24245 0.0
C571 C 0.75488 0.2177 0.2777 0.0
C572 C 0.78948 0.21299 0.29374 0.0
C573 C 0.74813 0.24811 0.25697 0.0
C574 C 0.81805 0.23799 0.28715 0.0
C575 C 0.81178 0.26798 0.2658 0.0
H576 H 0.95203 0.039 0.03654 0.0
H577 H 0.98859 0.92656 0.04987 0.0
H578 H 0.03939 0.93742 0.01063 0.0
H579 H 0.07387 0.97908 0.97438 0.0
H580 H 0.03813 0.09183 0.96174 0.0
H581 H 0.98675 0.08076 1.00032 0.0
C582 C 0.97074 0.01657 0.03059 0.0
C583 C 0.96633 0.98183 0.04597 0.0
C584 C 1.00041 0.02336 0.009 0.0
C585 C 0.99113 0.95337 0.03815 0.0
C586 C 0.02036 0.95971 0.01604 0.0
C587 C 0.05525 1.00153 0.9803 0.0
C588 C 0.06011 0.03642 0.96536 0.0
C589 C 0.02553 0.99474 1.0018 0.0
C590 C 0.03532 0.0649 0.97316 0.0
C591 C 1.00574 0.05844 0.9949 0.0
H592 H 0.50742 0.98636 0.45101 0.0
H593 H 0.41351 0.02151 0.50939 0.0
H594 H 0.4551 0.04752 0.55231 0.0
H595 H 0.51836 0.05944 0.57305 0.0
H596 H 0.61151 0.02502 0.51335 0.0
H597 H 0.56977 1.0011 0.46988 0.0
C598 C 0.49604 0.99904 0.47348 0.0
C599 C 0.45762 1.00134 0.47761 0.0
C600 C 0.51988 0.01524 0.49697 0.0
C601 C 0.44313 0.01893 0.50616 0.0
C602 C 0.46682 0.03419 0.53037 0.0
C603 C 0.52936 0.04773 0.55 0.0
C604 C 0.56772 0.04424 0.54598 0.0
C605 C 0.50524 0.03283 0.52581 0.0
C606 C 0.58194 0.02824 0.51656 0.0
C607 C 0.55817 0.0141 0.49205 0.0
H608 H 0.19005 0.12292 0.94919 0.0
H609 H 0.24065 0.01608 0.93767 0.0
H610 H 0.27869 0.02655 0.98779 0.0
H611 H 0.29132 0.06258 0.03974 0.0
H612 H 0.23967 0.16866 0.05158 0.0
H613 H 0.20864 0.16217 0.99692 0.0
C614 C 0.21019 0.10243 0.95704 0.0
C615 C 0.21219 0.06868 0.93979 0.0
C616 C 0.23146 0.10823 0.98651 0.0
C617 C 0.23831 0.04227 0.95057 0.0
C618 C 0.25998 0.0481 0.97943 0.0
C619 C 0.27391 0.08446 0.02984 0.0
C620 C 0.26768 0.11601 0.0494 0.0
C621 C 0.2558 0.08037 0.99839 0.0
C622 C 0.24485 0.14418 0.03669 0.0
C623 C 0.22703 0.14045 1.00551 0.0
H624 H 0.70964 0.53598 0.28601 0.0
H625 H 0.59615 0.50046 0.28616 0.0
H626 H 0.60451 0.4697 0.23182 0.0
H627 H 0.64669 0.44564 0.18854 0.0
H628 H 0.76012 0.48245 0.18796 0.0
H629 H 0.74899 0.5206 0.23728 0.0
C630 C 0.68666 0.52231 0.27355 0.0
C631 C 0.65245 0.52025 0.28972 0.0
C632 C 0.69168 0.50468 0.24228 0.0
C633 C 0.62272 0.50235 0.27378 0.0
C634 C 0.62751 0.48465 0.24285 0.0
C635 C 0.66865 0.46282 0.19859 0.0
C636 C 0.7043 0.46052 0.1849 0.0
C637 C 0.66223 0.48459 0.22737 0.0
C638 C 0.73244 0.4832 0.19822 0.0
C639 C 0.72622 0.50497 0.22663 0.0
H640 H 0.30788 0.86132 0.5446 0.0
H641 H 0.21948 0.9407 0.53822 0.0
H642 H 0.24047 0.95931 0.48184 0.0
H643 H 0.28888 0.95808 0.43824 0.0
H644 H 0.37666 0.8776 0.44483 0.0
H645 H 0.3501 0.85319 0.49666 0.0
C646 C 0.29296 0.88235 0.53055 0.0
C647 C 0.26267 0.90021 0.54549 0.0
C648 C 0.30492 0.8924 0.4982 0.0
C649 C 0.24302 0.92687 0.52712 0.0
C650 C 0.25506 0.93746 0.49499 0.0
C651 C 0.30163 0.93448 0.45045 0.0
C652 C 0.33508 0.92004 0.43783 0.0
C653 C 0.28662 0.92109 0.48072 0.0
C654 C 0.35098 0.88928 0.45386 0.0
C655 C 0.33605 0.87561 0.48381 0.0
H656 H 0.87507 0.58111 0.69138 0.0
H657 H 0.76162 0.54452 0.68903 0.0
H658 H 0.77244 0.50691 0.73901 0.0
H659 H 0.8119 0.4909 0.78825 0.0
H660 H 0.92508 0.52736 0.79055 0.0
H661 H 0.91678 0.5581 0.73608 0.0
C662 C 0.853 0.56414 0.70121 0.0
C663 C 0.8175 0.56612 0.68653 0.0
C664 C 0.85921 0.54281 0.73047 0.0
C665 C 0.78922 0.54388 0.69984 0.0
C666 C 0.79527 0.52242 0.72865 0.0
C667 C 0.83484 0.50483 0.77628 0.0
C668 C 0.86903 0.50689 0.79311 0.0
C669 C 0.82977 0.52269 0.74494 0.0
C670 C 0.89857 0.52533 0.77775 0.0
C671 C 0.89379 0.54304 0.7467 0.0
H672 H 0.79921 0.9905 0.06328 0.0
H673 H 0.833 0.88113 0.0933 0.0
H674 H 0.79719 0.85495 0.04668 0.0
H675 H 0.76612 0.86413 0.99179 0.0
H676 H 0.73698 0.97357 0.95941 0.0
H677 H 0.76079 0.99891 0.01268 0.0
C678 C 0.79802 0.96085 0.06022 0.0
C679 C 0.81928 0.93785 0.08148 0.0
C680 C 0.7785 0.9461 0.03264 0.0
C681 C 0.81718 0.8995 0.07718 0.0
C682 C 0.79688 0.88451 0.05037 0.0
C683 C 0.76387 0.89336 0.99711 0.0
C684 C 0.74956 0.9171 0.97228 0.0
C685 C 0.77886 0.90766 0.02712 0.0
C686 C 0.74741 0.95496 0.97863 0.0
C687 C 0.76132 0.96937 0.00888 0.0
H688 H 0.28306 0.54986 0.80483 0.0
H689 H 0.39548 0.57244 0.83576 0.0
H690 H 0.41828 0.53726 0.78732 0.0
H691 H 0.40583 0.50791 0.73201 0.0
H692 H 0.29332 0.49422 0.69798 0.0
H693 H 0.27068 0.51815 0.75192 0.0
C694 C 0.31263 0.54654 0.80155 0.0
C695 C 0.33756 0.5639 0.82396 0.0
C696 C 0.32536 0.52822 0.77276 0.0
C697 C 0.37571 0.55935 0.81898 0.0
C698 C 0.38872 0.53948 0.79114 0.0
C699 C 0.37638 0.50942 0.73695 0.0
C700 C 0.35105 0.49897 0.71162 0.0
C701 C 0.36377 0.52494 0.76726 0.0
C702 C 0.31304 0.5018 0.71747 0.0
C703 C 0.30023 0.51558 0.74816 0.0
H704 H 0.73589 0.16157 0.47801 0.0
H705 H 0.79644 0.0602 0.46672 0.0
H706 H 0.77704 0.04055 0.52325 0.0
H707 H 0.73668 0.0494 0.57224 0.0
H708 H 0.67503 0.15067 0.58271 0.0
H709 H 0.70231 0.17398 0.53075 0.0
C710 C 0.74521 0.13544 0.48831 0.0
C711 C 0.76709 0.11202 0.4685 0.0
C712 C 0.73397 0.12455 0.52064 0.0
C713 C 0.77944 0.0784 0.48175 0.0
C714 C 0.76833 0.06728 0.51395 0.0
C715 C 0.72989 0.07698 0.56369 0.0
C716 C 0.70337 0.09804 0.58119 0.0
C717 C 0.74478 0.08973 0.53321 0.0
C718 C 0.69524 0.13381 0.56982 0.0
C719 C 0.71051 0.147 0.53984 0.0
H720 H 0.14636 0.44679 0.31613 0.0
H721 H 0.26095 0.47976 0.3159 0.0
H722 H 0.24987 0.51804 0.26639 0.0
H723 H 0.21002 0.53379 0.21741 0.0
H724 H 0.09603 0.49989 0.2172 0.0
H725 H 0.10425 0.47091 0.27244 0.0
C726 C 0.16866 0.46318 0.30588 0.0
C727 C 0.20453 0.45981 0.31949 0.0
C728 C 0.1623 0.48474 0.27686 0.0
C729 C 0.23308 0.48141 0.30581 0.0
C730 C 0.22686 0.50324 0.27728 0.0
C731 C 0.18684 0.52112 0.23013 0.0
C732 C 0.15247 0.51905 0.21363 0.0
C733 C 0.19197 0.50389 0.26171 0.0
C734 C 0.12265 0.502 0.22982 0.0
C735 C 0.1274 0.48522 0.26126 0.0
H736 H 0.73919 0.66184 0.52995 0.0
H737 H 0.79658 0.55895 0.54389 0.0
H738 H 0.77375 0.53738 0.48874 0.0
H739 H 0.731 0.54519 0.44062 0.0
H740 H 0.67234 0.64796 0.42772 0.0
H741 H 0.70316 0.67278 0.4778 0.0
C742 C 0.74727 0.63501 0.52043 0.0
C743 C 0.76936 0.61184 0.54066 0.0
C744 C 0.73383 0.62291 0.48898 0.0
C745 C 0.77972 0.57715 0.52849 0.0
C746 C 0.76654 0.56487 0.4971 0.0
C747 C 0.72561 0.57337 0.4482 0.0
C748 C 0.69897 0.59451 0.43052 0.0
C749 C 0.74269 0.58713 0.47761 0.0
C750 C 0.69261 0.63103 0.44071 0.0
C751 C 0.70996 0.64513 0.46962 0.0
H752 H 0.21497 0.03694 0.78421 0.0
H753 H 0.10463 0.99401 0.79216 0.0
H754 H 0.11075 0.9626 0.73803 0.0
H755 H 0.15115 0.93973 0.6928 0.0
H756 H 0.26098 0.98465 0.6835 0.0
H757 H 0.25107 0.02345 0.73264 0.0
C758 C 0.19203 0.0216 0.77348 0.0
C759 C 0.15948 0.01745 0.79209 0.0
C760 C 0.19574 1.00366 0.74204 0.0
C761 C 0.12996 0.99734 0.77816 0.0
C762 C 0.13348 0.97931 0.74724 0.0
C763 C 0.17244 0.95889 0.70078 0.0
C764 C 0.20696 0.95856 0.68473 0.0
C765 C 0.16675 0.98115 0.72948 0.0
C766 C 0.23419 0.9838 0.69555 0.0
C767 C 0.22872 1.00596 0.72392 0.0
H768 H 0.76696 0.36407 0.02404 0.0
H769 H 0.7364 0.47393 0.05375 0.0
H770 H 0.75919 0.49813 0.99996 0.0
H771 H 0.79598 0.48885 0.94912 0.0
H772 H 0.83164 0.37941 0.9217 0.0
H773 H 0.79763 0.35391 0.96936 0.0
C774 C 0.7644 0.39314 0.01812 0.0
C775 C 0.74986 0.41734 0.04228 0.0
C776 C 0.77866 0.40681 0.98773 0.0
C777 C 0.74718 0.45499 0.0351 0.0
C778 C 0.76038 0.46874 1.00452 0.0
C779 C 0.79561 0.45929 0.95297 0.0
C780 C 0.81678 0.43612 0.93204 0.0
C781 C 0.77735 0.44505 0.98121 0.0
C782 C 0.81578 0.3979 0.93745 0.0
C783 C 0.79657 0.38333 0.96489 0.0
H784 H 0.29106 0.03941 0.20452 0.0
H785 H 0.39871 0.08276 0.18034 0.0
H786 H 0.42609 0.0475 0.22691 0.0
H787 H 0.41745 0.01283 0.28012 0.0
H788 H 0.30855 0.97578 0.30696 0.0
H789 H 0.28358 0.9997 0.25367 0.0
C790 C 0.32069 0.04057 0.20882 0.0
C791 C 0.34271 0.06409 0.18904 0.0
C792 C 0.33592 0.02149 0.23646 0.0
C793 C 0.38105 0.06503 0.19513 0.0
C794 C 0.39669 0.04504 0.22195 0.0
C795 C 0.38854 1.00889 0.27356 0.0
C796 C 0.36485 0.992 0.2969 0.0
C797 C 0.37416 0.02436 0.24359 0.0
C798 C 0.32724 0.98809 0.28896 0.0
C799 C 0.31299 1.00207 0.25867 0.0
H800 H 0.28794 0.46694 0.56873 0.0
H801 H 0.36271 0.37415 0.56861 0.0
H802 H 0.33356 0.35109 0.51694 0.0
H803 H 0.29326 0.36235 0.46757 0.0
H804 H 0.21801 0.4544 0.46746 0.0
H805 H 0.24105 0.47303 0.52348 0.0
C806 C 0.29724 0.44112 0.55792 0.0
C807 C 0.32779 0.42248 0.57241 0.0
C808 C 0.28081 0.42844 0.5278 0.0
C809 C 0.33926 0.38898 0.55817 0.0
C810 C 0.32288 0.37603 0.52834 0.0
C811 C 0.28157 0.38619 0.48016 0.0
C812 C 0.25444 0.40741 0.46349 0.0
C813 C 0.29473 0.39635 0.51227 0.0
C814 C 0.23901 0.43787 0.47992 0.0
C815 C 0.25226 0.44847 0.51183 0.0
H816 H 0.81636 0.98494 0.22784 0.0
H817 H 0.9268 0.02857 0.22301 0.0
H818 H 0.91868 0.0594 0.27729 0.0
H819 H 0.87699 0.08116 0.32179 0.0
H820 H 0.76619 0.0377 0.32667 0.0
H821 H 0.77787 0.99906 0.27767 0.0
C822 C 0.83881 1.0004 0.23927 0.0
C823 C 0.87205 1.00463 0.22175 0.0
C824 C 0.83383 0.01834 0.27047 0.0
C825 C 0.901 0.02496 0.23638 0.0
C826 C 0.89634 0.0427 0.2673 0.0
C827 C 0.85579 0.06242 0.31279 0.0
C828 C 0.82063 0.06287 0.32765 0.0
C829 C 0.86243 0.04061 0.28407 0.0
C830 C 0.79347 0.0383 0.31556 0.0
C831 C 0.8 0.01626 0.28731 0.0
H832 H 0.21304 0.61796 0.07294 0.0
H833 H 0.23294 0.50127 0.06236 0.0
H834 H 0.27014 0.51232 0.01257 0.0
H835 H 0.28757 0.55412 0.96621 0.0
H836 H 0.27044 0.67072 0.97773 0.0
H837 H 0.24195 0.66084 0.03283 0.0
C838 C 0.22643 0.59505 0.06037 0.0
C839 C 0.21932 0.55883 0.07099 0.0
C840 C 0.24789 0.60151 0.03147 0.0
C841 C 0.23737 0.5295 0.05458 0.0
C842 C 0.25855 0.53569 0.02584 0.0
C843 C 0.27869 0.5773 0.98143 0.0
C844 C 0.28099 0.61299 0.96829 0.0
C845 C 0.26253 0.5714 0.01315 0.0
C846 C 0.26918 0.64301 0.98779 0.0
C847 C 0.25265 0.63735 0.01912 0.0
H848 H 0.72492 0.02058 0.71502 0.0
H849 H 0.60908 0.02776 0.73837 0.0
H850 H 0.62025 0.99833 0.79315 0.0
H851 H 0.66227 0.96317 0.83094 0.0
H852 H 0.77904 0.96091 0.80873 0.0
H853 H 0.76836 0.99637 0.75772 0.0
C854 C 0.70243 0.01663 0.73262 0.0
C855 C 0.66636 0.02618 0.72297 0.0
C856 C 0.70915 1.00024 0.76422 0.0
C857 C 0.6372 0.02089 0.74567 0.0
C858 C 0.64352 1.00379 0.77683 0.0
C859 C 0.68543 0.97121 0.81536 0.0
C860 C 0.72123 0.95869 0.82348 0.0
C861 C 0.67927 0.99225 0.78594 0.0
C862 C 0.75104 0.96979 0.80314 0.0
C863 C 0.74503 0.98999 0.7737 0.0
H864 H 0.4921 0.19234 0.11366 0.0
H865 H 0.41299 0.28084 0.1214 0.0
H866 H 0.46351 0.32566 0.12304 0.0
H867 H 0.53007 0.33968 0.11968 0.0
H868 H 0.60885 0.2509 0.11116 0.0
H869 H 0.55853 0.20613 0.11252 0.0
C870 C 0.48583 0.22144 0.11553 0.0
C871 C 0.44867 0.23322 0.11697 0.0
C872 C 0.515 0.24697 0.11628 0.0
C873 C 0.44123 0.27101 0.12035 0.0
C874 C 0.47014 0.29664 0.12108 0.0
C875 C 0.53626 0.31056 0.11795 0.0
C876 C 0.57332 0.29876 0.11498 0.0
C877 C 0.5071 0.28495 0.11861 0.0
C878 C 0.58076 0.2608 0.11363 0.0
C879 C 0.55193 0.23518 0.11421 0.0
H880 H 0.49684 0.70252 0.33337 0.0
H881 H 0.59348 0.71328 0.39705 0.0
H882 H 0.57777 0.77757 0.40807 0.0
H883 H 0.53844 0.8315 0.3974 0.0
H884 H 0.4421 0.82162 0.3334 0.0
H885 H 0.45561 0.75609 0.32487 0.0
C886 C 0.51454 0.71894 0.34957 0.0
C887 C 0.54656 0.70304 0.3641 0.0
C888 C 0.50538 0.75604 0.3557 0.0
C889 C 0.56864 0.7246 0.38569 0.0
C890 C 0.55977 0.76148 0.39184 0.0
C891 C 0.52045 0.81508 0.38146 0.0
C892 C 0.48956 0.83162 0.36564 0.0
C893 C 0.52852 0.7776 0.37661 0.0
C894 C 0.46597 0.80961 0.34587 0.0
C895 C 0.47384 0.7722 0.34086 0.0
H896 H 0.99643 0.68341 0.61698 0.0
H897 H 0.91805 0.77297 0.61192 0.0
H898 H 0.96881 0.81727 0.61353 0.0
H899 H 0.03558 0.83082 0.61465 0.0
H900 H 0.11418 0.74148 0.61935 0.0
H901 H 0.06335 0.69708 0.61978 0.0
C902 C 0.99032 0.71259 0.61603 0.0
C903 C 0.95307 0.72458 0.61406 0.0
C904 C 0.01984 0.73808 0.61693 0.0
C905 C 0.94611 0.7627 0.61364 0.0
C906 C 0.97527 0.78814 0.61438 0.0
C907 C 0.04176 0.80165 0.61557 0.0
C908 C 0.07904 0.78972 0.61665 0.0
C909 C 1.01226 0.77618 0.61573 0.0
C910 C 0.08604 0.75167 0.61867 0.0
C911 C 0.05687 0.72619 0.61872 0.0
H912 H 0.94382 0.28085 0.85875 0.0
H913 H 0.03265 0.35932 0.86761 0.0
H914 H 0.07754 0.30886 0.87109 0.0
H915 H 0.09172 0.24242 0.86942 0.0
H916 H 1.00275 0.16409 0.86024 0.0
H917 H 0.95778 0.21447 0.85924 0.0
C918 C 0.973 0.28701 0.86127 0.0
C919 C 0.98478 0.32405 0.86254 0.0
C920 C 0.99866 0.25779 0.8632 0.0
C921 C 0.02272 0.33125 0.86669 0.0
C922 C 0.04843 0.30234 0.8685 0.0
C923 C 0.06252 0.23629 0.86704 0.0
C924 C 0.05079 0.19929 0.86459 0.0
C925 C 0.03676 0.2655 0.8664 0.0
C926 C 1.01267 0.19209 0.86235 0.0
C927 C 0.98692 0.22097 0.86157 0.0
H928 H 0.53168 0.84213 0.8836 0.0
H929 H 0.61242 0.75572 0.89796 0.0
H930 H 0.56321 0.71 0.89851 0.0
H931 H 0.49733 0.69453 0.89697 0.0
H932 H 0.41597 0.78056 0.88462 0.0
H933 H 0.46537 0.82635 0.88101 0.0
C934 C 0.53862 0.81336 0.88706 0.0
C935 C 0.57602 0.80265 0.89092 0.0
C936 C 0.51 0.78706 0.8877 0.0
C937 C 0.58418 0.76498 0.89462 0.0
C938 C 0.55594 0.73873 0.89515 0.0
C939 C 0.49022 0.7233 0.89376 0.0
C940 C 0.45273 0.73398 0.89148 0.0
C941 C 0.51876 0.74948 0.89207 0.0
C942 C 0.44441 0.7714 0.88633 0.0
C943 C 0.47271 0.79765 0.88447 0.0
H944 H 0.46734 0.30779 0.62205 0.0
H945 H 0.5346 0.35291 0.70224 0.0
H946 H 0.57039 0.29632 0.70531 0.0
H947 H 0.57903 0.23194 0.6894 0.0
H948 H 0.51436 0.18527 0.60868 0.0
H949 H 0.48157 0.24423 0.60111 0.0
C950 C 0.49027 0.30534 0.63967 0.0
C951 C 0.49766 0.33431 0.66245 0.0
C952 C 0.51105 0.27228 0.64138 0.0
C953 C 0.52763 0.33076 0.68508 0.0
C954 C 0.54826 0.29841 0.6868 0.0
C955 C 0.55806 0.23493 0.66988 0.0
C956 C 0.54881 0.20441 0.64986 0.0
C957 C 0.53956 0.26866 0.66582 0.0
C958 C 0.52196 0.20854 0.62431 0.0
C959 C 0.5031 0.24216 0.62018 0.0
H960 H 0.02478 0.3386 0.39182 0.0
H961 H 0.10627 0.25195 0.39876 0.0
H962 H 0.05712 0.20601 0.40043 0.0
H963 H 0.99096 0.19029 0.4011 0.0
H964 H 0.90932 0.27683 0.39501 0.0
H965 H 0.95848 0.32276 0.39174 0.0
C966 C 0.03191 0.30972 0.39393 0.0
C967 C 0.0695 0.299 0.39532 0.0
C968 C 1.00336 0.2833 0.39501 0.0
C969 C 0.07785 0.26121 0.39734 0.0
C970 C 0.04965 0.23484 0.3985 0.0
C971 C 0.98378 0.21918 0.39933 0.0
C972 C 0.94617 0.22988 0.39855 0.0
C973 C 1.01229 0.24555 0.39756 0.0
C974 C 0.93778 0.26757 0.39544 0.0
C975 C 0.96598 0.29394 0.39375 0.0
H976 H 0.09568 0.74479 0.12972 0.0
H977 H 1.00911 0.66509 0.14498 0.0
H978 H 0.96388 0.71473 0.15027 0.0
H979 H 0.94906 0.78081 0.15248 0.0
H980 H 0.03555 0.86074 0.13811 0.0
H981 H 0.08051 0.81104 0.13049 0.0
C982 C 0.06698 0.73817 0.13436 0.0
C983 C 0.05607 0.70095 0.13713 0.0
C984 C 0.04102 0.767 0.1376 0.0
C985 C 0.01846 0.69321 0.14244 0.0
C986 C 0.99253 0.7217 0.1457 0.0
C987 C 0.97777 0.78749 0.14792 0.0
C988 C 0.98881 0.82473 0.14622 0.0
C989 C 1.00354 0.7587 0.14366 0.0
C990 C 0.02609 0.83253 0.13941 0.0
C991 C 0.0519 0.80404 0.13522 0.0
H992 H 0.28271 0.27658 0.12019 0.0
H993 H 0.18721 0.20836 0.10124 0.0
H994 H 0.14902 0.2629 0.09266 0.0
H995 H 0.14181 0.32923 0.09382 0.0
H996 H 0.23622 0.39894 0.11248 0.0
H997 H 0.27562 0.3445 0.11882 0.0
C998 C 0.2537 0.27379 0.11358 0.0
C999 C 0.23778 0.23857 0.11123 0.0
C1000 C 0.23159 0.30542 0.10931 0.0
C1001 C 0.20004 0.23522 0.10323 0.0
C1002 C 0.17815 0.26637 0.09843 0.0
C1003 C 0.17108 0.33279 0.09867 0.0
C1004 C 0.1859 0.36832 0.10248 0.0
C1005 C 0.1935 0.30153 0.10191 0.0
C1006 C 0.22387 0.372 0.10974 0.0
C1007 C 0.2465 0.34085 0.11311 0.0
H1008 H 0.40628 0.45396 0.31181 0.0
H1009 H 0.41473 0.38356 0.39905 0.0
H1010 H 0.47741 0.40683 0.4104 0.0
H1011 H 0.52952 0.44793 0.39516 0.0
H1012 H 0.51838 0.51929 0.30862 0.0
H1013 H 0.45724 0.49395 0.29653 0.0
C1014 C 0.42197 0.44327 0.33307 0.0
C1015 C 0.40614 0.41672 0.35432 0.0
C1016 C 0.45759 0.45666 0.33922 0.0
C1017 C 0.42636 0.40408 0.38242 0.0
C1018 C 0.46222 0.41718 0.38871 0.0
C1019 C 0.51385 0.45734 0.37335 0.0
C1020 C 0.52842 0.48505 0.35249 0.0
C1021 C 0.47816 0.44341 0.36715 0.0
C1022 C 0.50768 0.49782 0.32482 0.0
C1023 C 0.47272 0.4835 0.31802 0.0
H1024 H 0.23741 0.74432 0.59056 0.0
H1025 H 0.33731 0.78273 0.63946 0.0
H1026 H 0.36493 0.72216 0.63428 0.0
H1027 H 0.36142 0.6579 0.6159 0.0
H1028 H 0.26377 0.61923 0.56444 0.0
H1029 H 0.23463 0.67981 0.57063 0.0
C1030 C 0.26526 0.73943 0.59987 0.0
C1031 C 0.28513 0.76819 0.61527 0.0
C1032 C 0.28143 0.70431 0.59655 0.0
C1033 C 0.32128 0.76131 0.62726 0.0
C1034 C 0.33719 0.72654 0.6245 0.0
C1035 C 0.33366 0.66281 0.60637 0.0
C1036 C 0.31465 0.63435 0.58995 0.0
C1037 C 0.31755 0.69781 0.60931 0.0
C1038 C 0.27892 0.64097 0.57708 0.0
C1039 C 0.26228 0.67553 0.58062 0.0
H1040 H 0.99883 0.56804 0.89706 0.0
H1041 H 1.00659 0.48939 0.81574 0.0
H1042 H 0.06981 0.50877 0.80467 0.0
H1043 H 0.12321 0.54573 0.81932 0.0
H1044 H 0.11741 0.62502 0.90013 0.0
H1045 H 0.05329 0.60681 0.91105 0.0
C1046 C 0.01424 0.55571 0.87656 0.0
C1047 C 0.99807 0.52759 0.85699 0.0
C1048 C 0.05099 0.56651 0.87075 0.0
C1049 C 0.01848 0.51116 0.83102 0.0
C1050 C 0.05464 0.5221 0.82478 0.0
C1051 C 0.10789 0.55961 0.83897 0.0
C1052 C 0.12502 0.58708 0.85856 0.0
C1053 C 0.07123 0.54942 0.84468 0.0
C1054 C 0.10496 0.6037 0.88475 0.0
C1055 C 0.06823 0.5935 0.8908 0.0
H1056 H 0.81953 0.77616 0.88613 0.0
H1057 H 0.72181 0.75577 0.94498 0.0
H1058 H 0.74125 0.69139 0.95273 0.0
H1059 H 0.78621 0.64127 0.94217 0.0
H1060 H 0.88174 0.66222 0.88062 0.0
H1061 H 0.86247 0.72641 0.87377 0.0
C1062 C 0.80259 0.75789 0.90106 0.0
C1063 C 0.76963 0.77096 0.91562 0.0
C1064 C 0.81333 0.72105 0.90441 0.0
C1065 C 0.74751 0.74649 0.93394 0.0
C1066 C 0.75856 0.70973 0.9382 0.0
C1067 C 0.80283 0.65998 0.92736 0.0
C1068 C 0.83558 0.64718 0.91211 0.0
C1069 C 0.79142 0.69675 0.92347 0.0
C1070 C 0.85641 0.67141 0.89237 0.0
C1071 C 0.84553 0.7081 0.88871 0.0
H1072 H 0.61038 0.57242 0.69603 0.0
H1073 H 0.60613 0.63406 0.60308 0.0
H1074 H 0.54265 0.61245 0.59301 0.0
H1075 H 0.4887 0.57475 0.61065 0.0
H1076 H 0.49547 0.51272 0.70333 0.0
H1077 H 0.55726 0.5371 0.71428 0.0
C1078 C 0.59554 0.58183 0.67381 0.0
C1079 C 0.61303 0.6053 0.65055 0.0
C1080 C 0.55924 0.56959 0.66846 0.0
C1081 C 0.5935 0.61592 0.62132 0.0
C1082 C 0.55709 0.6038 0.61574 0.0
C1083 C 0.50345 0.56739 0.63362 0.0
C1084 C 0.48737 0.54246 0.65651 0.0
C1085 C 0.53962 0.58065 0.63921 0.0
C1086 C 0.50714 0.53215 0.68562 0.0
C1087 C 0.54255 0.54586 0.69173 0.0
H1088 H 0.69783 0.24739 0.37694 0.0
H1089 H 0.79359 0.26192 0.44122 0.0
H1090 H 0.77589 0.32588 0.45138 0.0
H1091 H 0.73491 0.37813 0.44006 0.0
H1092 H 0.63987 0.36456 0.37489 0.0
H1093 H 0.65609 0.2998 0.36635 0.0
C1094 C 0.71452 0.2644 0.39359 0.0
C1095 C 0.74683 0.24987 0.40855 0.0
C1096 C 0.70466 0.3014 0.39866 0.0
C1097 C 0.76854 0.27243 0.42953 0.0
C1098 C 0.75852 0.30903 0.43523 0.0
C1099 C 0.71745 0.36095 0.4243 0.0
C1100 C 0.68611 0.37617 0.40826 0.0
C1101 C 0.7269 0.32387 0.41962 0.0
C1102 C 0.66432 0.35366 0.38726 0.0
C1103 C 0.67343 0.31657 0.38259 0.0
H1104 H 0.90064 0.47704 0.18402 0.0
H1105 H 0.91253 0.39987 0.10212 0.0
H1106 H 0.97284 0.42632 0.08842 0.0
H1107 H 0.0236 0.46798 0.10266 0.0
H1108 H 1.01187 0.54602 0.18396 0.0
H1109 H 0.94961 0.5224 0.19537 0.0
C1110 C 0.91655 0.46599 0.16326 0.0
C1111 C 0.90271 0.43612 0.14445 0.0
C1112 C 0.95104 0.48121 0.15575 0.0
C1113 C 0.92285 0.42276 0.11692 0.0
C1114 C 0.9573 0.4377 0.10927 0.0
C1115 C 1.0074 0.47977 0.12294 0.0
C1116 C 0.02231 0.50805 0.14304 0.0
C1117 C 0.97191 0.46634 0.12901 0.0
C1118 C 1.00085 0.52398 0.16848 0.0
C1119 C 0.96544 0.51045 0.17497 0.0
H1120 H 0.70343 0.74958 0.62792 0.0
H1121 H 0.80155 0.76622 0.56849 0.0
H1122 H 0.78475 0.83097 0.56048 0.0
H1123 H 0.74358 0.88313 0.57239 0.0
H1124 H 0.64673 0.86694 0.63347 0.0
H1125 H 0.66215 0.80165 0.63954 0.0
C1126 C 0.72088 0.7672 0.61274 0.0
C1127 C 0.7535 0.753 0.59845 0.0
C1128 C 0.71161 0.80453 0.60909 0.0
C1129 C 0.77619 0.77642 0.57952 0.0
C1130 C 0.76668 0.81345 0.5751 0.0
C1131 C 0.72563 0.86527 0.58676 0.0
C1132 C 0.69392 0.87989 0.60235 0.0
C1133 C 0.73469 0.82785 0.59009 0.0
C1134 C 0.67144 0.85649 0.62152 0.0
C1135 C 0.6801 0.81912 0.62474 0.0
H1136 H 0.93606 0.90733 0.82232 0.0
H1137 H 0.88169 0.97658 0.89526 0.0
H1138 H 0.93407 0.019 0.89461 0.0
H1139 H 0.9989 0.03159 0.87909 0.0
H1140 H 0.05518 0.95705 0.81209 0.0
H1141 H 0.99852 0.92167 0.80426 0.0
C1142 C 0.9356 0.93161 0.83817 0.0
C1143 C 0.90526 0.93829 0.85931 0.0
C1144 C 0.96623 0.95507 0.83852 0.0
C1145 C 0.90467 0.97066 0.87878 0.0
C1146 C 0.93472 0.99486 0.87854 0.0
C1147 C 0.9982 1.00832 0.86192 0.0
C1148 C 0.03072 0.99723 0.8456 0.0
C1149 C 0.96609 0.98678 0.85922 0.0
C1150 C 0.03018 0.9664 0.82431 0.0
C1151 C 0.99793 0.94595 0.82016 0.0
H1152 H 0.79304 0.14566 0.07186 0.0
H1153 H 0.88329 0.16384 0.14152 0.0
H1154 H 0.86342 0.22788 0.14897 0.0
H1155 H 0.82095 0.27862 0.1349 0.0
H1156 H 0.72916 0.25965 0.06696 0.0
H1157 H 0.74963 0.19591 0.05888 0.0
C1158 C 0.80851 0.1637 0.08852 0.0
C1159 C 0.83986 0.15013 0.10589 0.0
C1160 C 0.7969 0.20032 0.09258 0.0
C1161 C 0.85902 0.17358 0.12805 0.0
C1162 C 0.84782 0.21022 0.13206 0.0
C1163 C 0.80569 0.2607 0.11793 0.0
C1164 C 0.77393 0.27401 0.10101 0.0
C1165 C 0.81701 0.22393 0.11422 0.0
C1166 C 0.75387 0.25016 0.07992 0.0
C1167 C 0.76548 0.21372 0.07545 0.0
H1168 H 0.48898 0.06009 0.31816 0.0
H1169 H 0.49061 0.05992 0.42675 0.0
H1170 H 0.55194 0.08838 0.4272 0.0
H1171 H 0.608 0.1071 0.39601 0.0
H1172 H 0.60271 0.11314 0.28727 0.0
H1173 H 0.54007 0.08949 0.28754 0.0
C1174 C 0.50251 0.06722 0.3418 0.0
C1175 C 0.48578 0.05786 0.37233 0.0
C1176 C 0.53733 0.08436 0.34184 0.0
C1177 C 0.50329 0.06702 0.40295 0.0
C1178 C 0.53835 0.08317 0.40321 0.0
C1179 C 0.59289 0.10407 0.37247 0.0
C1180 C 0.61084 0.11051 0.34165 0.0
C1181 C 0.55614 0.09112 0.37273 0.0
C1182 C 0.59038 0.10688 0.31139 0.0
C1183 C 0.5543 0.09355 0.31143 0.0
H1184 H 0.31564 0.27153 0.37937 0.0
H1185 H 0.21217 0.25843 0.43169 0.0
H1186 H 0.22642 0.19359 0.44182 0.0
H1187 H 0.267 0.14032 0.4337 0.0
H1188 H 0.37036 0.15363 0.38131 0.0
H1189 H 0.35685 0.21866 0.37253 0.0
C1190 C 0.29642 0.25466 0.39342 0.0
C1191 C 0.26302 0.26981 0.40497 0.0
C1192 C 0.30442 0.21734 0.39858 0.0
C1193 C 0.23816 0.24743 0.42268 0.0
C1194 C 0.24619 0.21034 0.42833 0.0
C1195 C 0.28678 0.15748 0.42069 0.0
C1196 C 0.31961 0.14198 0.40817 0.0
C1197 C 0.27905 0.19495 0.41606 0.0
C1198 C 0.34461 0.16457 0.39077 0.0
C1199 C 0.33708 0.20189 0.38601 0.0
H1200 H 0.9983 0.07334 0.12776 0.0
H1201 H 1.0096 0.98569 0.20067 0.0
H1202 H 0.07234 1.00569 0.21405 0.0
H1203 H 0.12492 0.04505 0.20242 0.0
H1204 H 0.11557 0.13214 0.12887 0.0
H1205 H 0.05117 0.11486 0.11768 0.0
C1206 C 0.01435 0.05911 0.14699 0.0
C1207 C 0.99947 0.02821 0.16333 0.0
C1208 C 0.05081 0.07019 0.15393 0.0
C1209 C 0.02061 1.00954 0.18778 0.0
C1210 C 0.05647 0.02086 0.19535 0.0
C1211 C 0.10872 0.06074 0.18436 0.0
C1212 C 0.12499 0.08996 0.16663 0.0
C1213 C 0.072 0.0507 0.17817 0.0
C1214 C 0.10378 0.10931 0.14262 0.0
C1215 C 0.06692 0.0996 0.1364 0.0
H1216 H 0.15577 0.83553 0.93183 0.0
H1217 H 0.22892 0.8943 0.86572 0.0
H1218 H 0.26735 0.83898 0.85953 0.0
H1219 H 0.28018 0.77384 0.87376 0.0
H1220 H 0.20427 0.71467 0.93708 0.0
H1221 H 0.16728 0.77055 0.94459 0.0
C1222 C 0.18007 0.83606 0.91597 0.0
C1223 C 0.18966 0.86876 0.89931 0.0
C1224 C 0.20179 0.80436 0.91265 0.0
C1225 C 0.22085 0.86922 0.87843 0.0
C1226 C 0.24297 0.83776 0.87521 0.0
C1227 C 0.25585 0.77352 0.8896 0.0
C1228 C 0.24515 0.74066 0.90544 0.0
C1229 C 0.23389 0.80528 0.8925 0.0
C1230 C 0.21311 0.73998 0.92514 0.0
C1231 C 0.19188 0.77174 0.92916 0.0
H1232 H 0.41367 0.96157 0.70123 0.0
H1233 H 0.42186 0.88609 0.61759 0.0
H1234 H 0.48508 0.90748 0.60687 0.0
H1235 H 0.53751 0.94907 0.62104 0.0
H1236 H 0.52684 0.02428 0.70475 0.0
H1237 H 0.46537 1.00038 0.71659 0.0
C1238 C 0.42934 0.94911 0.68102 0.0
C1239 C 0.41308 0.92189 0.66051 0.0
C1240 C 0.4654 0.96126 0.67531 0.0
C1241 C 0.43361 0.90719 0.63367 0.0
C1242 C 0.46983 0.91923 0.62772 0.0
C1243 C 0.52192 0.95958 0.64226 0.0
C1244 C 0.53667 0.98817 0.66221 0.0
C1245 C 0.48602 0.94631 0.64842 0.0
C1246 C 0.51602 1.00221 0.68917 0.0
C1247 C 0.48084 0.9887 0.69583 0.0
loop_
_geom_bond_atom_site_label_1
_geom_bond_atom_site_label_2
_geom_bond_distance
_geom_bond_site_symmetry_2
_ccdc_geom_bond_type
Co0 N5 2.057 . S
Co0 O17 2.021 . S
Co0 O20 2.062 . S
Co0 O24 2.117 . S
Co0 O25 2.020 . S
C1 O21 1.259 . S
C1 O24 1.258 . S
Co2 N11 2.057 . S
Co2 O18 2.117 . S
Co2 O19 2.020 . S
Co2 O21 2.021 . S
Co2 O26 2.062 . S
C3 N5 1.316 . S
C3 N6 1.347 . S
C3 H8 0.931 . S
C4 N5 1.375 . S
C4 C7 1.350 . S
C4 H9 0.930 . S
N5 Co0 2.057 . S
N5 C3 1.316 . S
N5 C4 1.375 . S
N6 C3 1.347 . S
N6 C7 1.373 . S
C7 C4 1.350 . S
C7 N6 1.373 . S
C7 H28 0.931 . S
H8 C3 0.931 . S
H9 C4 0.930 . S
C10 O17 1.259 . S
C10 O18 1.258 . S
N11 Co2 2.057 . S
N11 C12 1.316 . S
N11 C13 1.375 . S
C12 N11 1.316 . S
C12 N14 1.347 . S
C12 H23 0.931 . S
C13 N11 1.375 . S
C13 C15 1.350 . S
C13 H22 0.930 . S
N14 C12 1.347 . S
N14 C15 1.373 . S
C15 C13 1.350 . S
C15 N14 1.373 . S
C15 H29 0.931 . S
C16 O19 1.256 . S
C16 O20 1.255 . S
O17 Co0 2.021 . S
O17 C10 1.259 . S
O18 Co2 2.117 . S
O18 C10 1.258 . S
O19 Co2 2.020 . S
O19 C16 1.256 . S
O20 Co0 2.062 . S
O20 C16 1.255 . S
O21 C1 1.259 . S
O21 Co2 2.021 . S
H22 C13 0.930 . S
H23 C12 0.931 . S
O24 Co0 2.117 . S
O24 C1 1.258 . S
O25 Co0 2.020 . S
O25 C27 1.256 . S
O26 Co2 2.062 . S
O26 C27 1.255 . S
C27 O25 1.256 . S
C27 O26 1.255 . S
H28 C7 0.931 . S
H29 C15 0.931 . S
Co30 N35 2.057 . S
Co30 O47 2.021 . S
Co30 O50 2.062 . S
Co30 O54 2.117 . S
Co30 O55 2.020 . S
C31 O51 1.259 . S
C31 O54 1.258 . S
Co32 N41 2.057 . S
Co32 O48 2.117 . S
Co32 O49 2.020 . S
Co32 O51 2.021 . S
Co32 O56 2.062 . S
C33 N35 1.316 . S
C33 N36 1.347 . S
C33 H38 0.931 . S
C34 N35 1.375 . S
C34 C37 1.350 . S
C34 H39 0.930 . S
N35 Co30 2.057 . S
N35 C33 1.316 . S
N35 C34 1.375 . S
N36 C33 1.347 . S
N36 C37 1.373 . S
C37 C34 1.350 . S
C37 N36 1.373 . S
C37 H58 0.931 . S
H38 C33 0.931 . S
H39 C34 0.930 . S
C40 O47 1.259 . S
C40 O48 1.258 . S
N41 Co32 2.057 . S
N41 C42 1.316 . S
N41 C43 1.375 . S
C42 N41 1.316 . S
C42 N44 1.347 . S
C42 H53 0.931 . S
C43 N41 1.375 . S
C43 C45 1.350 . S
C43 H52 0.930 . S
N44 C42 1.347 . S
N44 C45 1.373 . S
C45 C43 1.350 . S
C45 N44 1.373 . S
C45 H59 0.931 . S
C46 O49 1.256 . S
C46 O50 1.255 . S
O47 Co30 2.021 . S
O47 C40 1.259 . S
O48 Co32 2.117 . S
O48 C40 1.258 . S
O49 Co32 2.020 . S
O49 C46 1.256 . S
O50 Co30 2.062 . S
O50 C46 1.255 . S
O51 C31 1.259 . S
O51 Co32 2.021 . S
H52 C43 0.930 . S
H53 C42 0.931 . S
O54 Co30 2.117 . S
O54 C31 1.258 . S
O55 Co30 2.020 . S
O55 C57 1.256 . S
O56 Co32 2.062 . S
O56 C57 1.255 . S
C57 O55 1.256 . S
C57 O56 1.255 . S
H58 C37 0.931 . S
H59 C45 0.931 . S
Co60 N65 2.057 . S
Co60 O77 2.021 . S
Co60 O80 2.062 . S
Co60 O84 2.117 . S
Co60 O85 2.020 . S
C61 O81 1.259 . S
C61 O84 1.258 . S
Co62 N71 2.057 . S
Co62 O78 2.117 . S
Co62 O79 2.020 . S
Co62 O81 2.021 . S
Co62 O86 2.062 . S
C63 N65 1.316 . S
C63 N66 1.347 . S
C63 H68 0.931 . S
C64 N65 1.375 . S
C64 C67 1.350 . S
C64 H69 0.930 . S
N65 Co60 2.057 . S
N65 C63 1.316 . S
N65 C64 1.375 . S
N66 C63 1.347 . S
N66 C67 1.373 . S
C67 C64 1.350 . S
C67 N66 1.373 . S
C67 H88 0.931 . S
H68 C63 0.931 . S
H69 C64 0.930 . S
C70 O77 1.259 . S
C70 O78 1.258 . S
N71 Co62 2.057 . S
N71 C72 1.316 . S
N71 C73 1.375 . S
C72 N71 1.316 . S
C72 N74 1.347 . S
C72 H83 0.931 . S
C73 N71 1.375 . S
C73 C75 1.350 . S
C73 H82 0.930 . S
N74 C72 1.347 . S
N74 C75 1.373 . S
C75 C73 1.350 . S
C75 N74 1.373 . S
C75 H89 0.931 . S
C76 O79 1.256 . S
C76 O80 1.255 . S
O77 Co60 2.021 . S
O77 C70 1.259 . S
O78 Co62 2.117 . S
O78 C70 1.258 . S
O79 Co62 2.020 . S
O79 C76 1.256 . S
O80 Co60 2.062 . S
O80 C76 1.255 . S
O81 C61 1.259 . S
O81 Co62 2.021 . S
H82 C73 0.930 . S
H83 C72 0.931 . S
O84 Co60 2.117 . S
O84 C61 1.258 . S
O85 Co60 2.020 . S
O85 C87 1.256 . S
O86 Co62 2.062 . S
O86 C87 1.255 . S
C87 O85 1.256 . S
C87 O86 1.255 . S
H88 C67 0.931 . S
H89 C75 0.931 . S
Co90 N95 2.057 . S
Co90 O107 2.021 . S
Co90 O110 2.062 . S
Co90 O114 2.117 . S
Co90 O115 2.020 . S
C91 O111 1.259 . S
C91 O114 1.258 . S
Co92 N101 2.057 . S
Co92 O108 2.117 . S
Co92 O109 2.020 . S
Co92 O111 2.021 . S
Co92 O116 2.062 . S
C93 N95 1.316 . S
C93 N96 1.347 . S
C93 H98 0.931 . S
C94 N95 1.375 . S
C94 C97 1.350 . S
C94 H99 0.930 . S
N95 Co90 2.057 . S
N95 C93 1.316 . S
N95 C94 1.375 . S
N96 C93 1.347 . S
N96 C97 1.373 . S
C97 C94 1.350 . S
C97 N96 1.373 . S
C97 H118 0.931 . S
H98 C93 0.931 . S
H99 C94 0.930 . S
C100 O107 1.259 . S
C100 O108 1.258 . S
N101 Co92 2.057 . S
N101 C102 1.316 . S
N101 C103 1.375 . S
C102 N101 1.316 . S
C102 N104 1.347 . S
C102 H113 0.931 . S
C103 N101 1.375 . S
C103 C105 1.350 . S
C103 H112 0.930 . S
N104 C102 1.347 . S
N104 C105 1.373 . S
C105 C103 1.350 . S
C105 N104 1.373 . S
C105 H119 0.931 1_655 S
C106 O109 1.256 . S
C106 O110 1.255 . S
O107 Co90 2.021 . S
O107 C100 1.259 . S
O108 Co92 2.117 . S
O108 C100 1.258 . S
O109 Co92 2.020 . S
O109 C106 1.256 . S
O110 Co90 2.062 . S
O110 C106 1.255 . S
O111 C91 1.259 . S
O111 Co92 2.021 . S
H112 C103 0.930 . S
H113 C102 0.931 . S
O114 Co90 2.117 . S
O114 C91 1.258 . S
O115 Co90 2.020 . S
O115 C117 1.256 . S
O116 Co92 2.062 . S
O116 C117 1.255 . S
C117 O115 1.256 . S
C117 O116 1.255 . S
H118 C97 0.931 . S
H119 C105 0.931 1_455 S
Co120 N125 2.057 . S
Co120 O137 2.021 . S
Co120 O140 2.062 . S
Co120 O144 2.117 . S
Co120 O145 2.020 . S
C121 O141 1.259 . S
C121 O144 1.258 . S
Co122 N131 2.057 . S
Co122 O138 2.117 . S
Co122 O139 2.020 . S
Co122 O141 2.021 . S
Co122 O146 2.062 . S
C123 N125 1.316 . S
C123 N126 1.347 . S
C123 H128 0.931 . S
C124 N125 1.375 . S
C124 C127 1.350 . S
C124 H129 0.930 . S
N125 Co120 2.057 . S
N125 C123 1.316 . S
N125 C124 1.375 . S
N126 C123 1.347 . S
N126 C127 1.373 . S
C127 C124 1.350 . S
C127 N126 1.373 . S
C127 H148 0.931 . S
H128 C123 0.931 . S
H129 C124 0.930 . S
C130 O137 1.259 . S
C130 O138 1.258 . S
N131 Co122 2.057 . S
N131 C132 1.316 . S
N131 C133 1.375 . S
C132 N131 1.316 . S
C132 N134 1.347 . S
C132 H143 0.931 . S
C133 N131 1.375 . S
C133 C135 1.350 . S
C133 H142 0.930 . S
N134 C132 1.347 . S
N134 C135 1.373 . S
C135 C133 1.350 . S
C135 N134 1.373 . S
C135 H149 0.931 . S
C136 O139 1.256 . S
C136 O140 1.255 . S
O137 Co120 2.021 . S
O137 C130 1.259 . S
O138 Co122 2.117 . S
O138 C130 1.258 . S
O139 Co122 2.020 . S
O139 C136 1.256 . S
O140 Co120 2.062 . S
O140 C136 1.255 . S
O141 C121 1.259 . S
O141 Co122 2.021 . S
H142 C133 0.930 . S
H143 C132 0.931 . S
O144 Co120 2.117 . S
O144 C121 1.258 . S
O145 Co120 2.020 . S
O145 C147 1.256 . S
O146 Co122 2.062 . S
O146 C147 1.255 . S
C147 O145 1.256 . S
C147 O146 1.255 . S
H148 C127 0.931 . S
H149 C135 0.931 . S
Co150 N155 2.057 . S
Co150 O167 2.021 . S
Co150 O170 2.062 . S
Co150 O174 2.117 . S
Co150 O175 2.020 . S
C151 O171 1.259 . S
C151 O174 1.258 . S
Co152 N161 2.057 . S
Co152 O168 2.117 . S
Co152 O169 2.020 . S
Co152 O171 2.021 . S
Co152 O176 2.062 . S
C153 N155 1.316 . S
C153 N156 1.347 . S
C153 H158 0.931 . S
C154 N155 1.375 . S
C154 C157 1.350 . S
C154 H159 0.930 . S
N155 Co150 2.057 . S
N155 C153 1.316 . S
N155 C154 1.375 . S
N156 C153 1.347 . S
N156 C157 1.373 . S
C157 C154 1.350 . S
C157 N156 1.373 . S
C157 H178 0.931 . S
H158 C153 0.931 . S
H159 C154 0.930 . S
C160 O167 1.259 . S
C160 O168 1.258 . S
N161 Co152 2.057 . S
N161 C162 1.316 . S
N161 C163 1.375 . S
C162 N161 1.316 . S
C162 N164 1.347 . S
C162 H173 0.931 . S
C163 N161 1.375 . S
C163 C165 1.350 . S
C163 H172 0.930 . S
N164 C162 1.347 . S
N164 C165 1.373 . S
C165 C163 1.350 . S
C165 N164 1.373 . S
C165 H179 0.931 . S
C166 O169 1.256 . S
C166 O170 1.255 . S
O167 Co150 2.021 . S
O167 C160 1.259 . S
O168 Co152 2.117 . S
O168 C160 1.258 . S
O169 Co152 2.020 . S
O169 C166 1.256 . S
O170 Co150 2.062 . S
O170 C166 1.255 . S
O171 C151 1.259 . S
O171 Co152 2.021 . S
H172 C163 0.930 . S
H173 C162 0.931 . S
O174 Co150 2.117 . S
O174 C151 1.258 . S
O175 Co150 2.020 . S
O175 C177 1.256 . S
O176 Co152 2.062 . S
O176 C177 1.255 . S
C177 O175 1.256 . S
C177 O176 1.255 . S
H178 C157 0.931 . S
H179 C165 0.931 . S
Co180 N185 2.057 . S
Co180 O197 2.021 . S
Co180 O200 2.062 . S
Co180 O204 2.117 . S
Co180 O205 2.020 . S
C181 O201 1.259 . S
C181 O204 1.258 . S
Co182 N191 2.057 . S
Co182 O198 2.117 . S
Co182 O199 2.020 . S
Co182 O201 2.021 . S
Co182 O206 2.062 . S
C183 N185 1.316 . S
C183 N186 1.347 . S
C183 H188 0.931 . S
C184 N185 1.375 . S
C184 C187 1.350 . S
C184 H189 0.930 . S
N185 Co180 2.057 . S
N185 C183 1.316 . S
N185 C184 1.375 . S
N186 C183 1.347 . S
N186 C187 1.373 . S
C187 C184 1.350 . S
C187 N186 1.373 . S
C187 H208 0.931 . S
H188 C183 0.931 . S
H189 C184 0.930 . S
C190 O197 1.259 . S
C190 O198 1.258 . S
N191 Co182 2.057 . S
N191 C192 1.316 . S
N191 C193 1.375 . S
C192 N191 1.316 . S
C192 N194 1.347 . S
C192 H203 0.931 . S
C193 N191 1.375 . S
C193 C195 1.350 . S
C193 H202 0.930 . S
N194 C192 1.347 . S
N194 C195 1.373 . S
C195 C193 1.350 . S
C195 N194 1.373 . S
C195 H209 0.931 . S
C196 O199 1.256 . S
C196 O200 1.255 . S
O197 Co180 2.021 . S
O197 C190 1.259 . S
O198 Co182 2.117 . S
O198 C190 1.258 . S
O199 Co182 2.020 . S
O199 C196 1.256 . S
O200 Co180 2.062 . S
O200 C196 1.255 . S
O201 C181 1.259 . S
O201 Co182 2.021 . S
H202 C193 0.930 . S
H203 C192 0.931 . S
O204 Co180 2.117 . S
O204 C181 1.258 . S
O205 Co180 2.020 . S
O205 C207 1.256 . S
O206 Co182 2.062 . S
O206 C207 1.255 . S
C207 O205 1.256 . S
C207 O206 1.255 . S
H208 C187 0.931 . S
H209 C195 0.931 . S
Co210 N215 2.057 . S
Co210 O227 2.021 . S
Co210 O230 2.062 . S
Co210 O234 2.117 . S
Co210 O235 2.020 . S
C211 O231 1.259 . S
C211 O234 1.258 . S
Co212 N221 2.057 . S
Co212 O228 2.117 . S
Co212 O229 2.020 . S
Co212 O231 2.021 . S
Co212 O236 2.062 . S
C213 N215 1.316 . S
C213 N216 1.347 . S
C213 H218 0.931 . S
C214 N215 1.375 . S
C214 C217 1.350 . S
C214 H219 0.930 . S
N215 Co210 2.057 . S
N215 C213 1.316 . S
N215 C214 1.375 . S
N216 C213 1.347 . S
N216 C217 1.373 . S
C217 C214 1.350 . S
C217 N216 1.373 . S
C217 H238 0.931 1_455 S
H218 C213 0.931 . S
H219 C214 0.930 . S
C220 O227 1.259 . S
C220 O228 1.258 . S
N221 Co212 2.057 . S
N221 C222 1.316 . S
N221 C223 1.375 . S
C222 N221 1.316 . S
C222 N224 1.347 . S
C222 H233 0.931 . S
C223 N221 1.375 . S
C223 C225 1.350 . S
C223 H232 0.930 . S
N224 C222 1.347 . S
N224 C225 1.373 . S
C225 C223 1.350 . S
C225 N224 1.373 . S
C225 H239 0.931 . S
C226 O229 1.256 . S
C226 O230 1.255 . S
O227 Co210 2.021 . S
O227 C220 1.259 . S
O228 Co212 2.117 . S
O228 C220 1.258 . S
O229 Co212 2.020 . S
O229 C226 1.256 . S
O230 Co210 2.062 . S
O230 C226 1.255 . S
O231 C211 1.259 . S
O231 Co212 2.021 . S
H232 C223 0.930 . S
H233 C222 0.931 . S
O234 Co210 2.117 . S
O234 C211 1.258 . S
O235 Co210 2.020 . S
O235 C237 1.256 . S
O236 Co212 2.062 . S
O236 C237 1.255 . S
C237 O235 1.256 . S
C237 O236 1.255 . S
H238 C217 0.931 1_655 S
H239 C225 0.931 . S
Co240 N245 2.057 . S
Co240 O257 2.021 . S
Co240 O260 2.062 . S
Co240 O264 2.117 . S
Co240 O265 2.020 . S
C241 O261 1.259 . S
C241 O264 1.258 . S
Co242 N251 2.057 . S
Co242 O258 2.117 . S
Co242 O259 2.020 . S
Co242 O261 2.021 . S
Co242 O266 2.062 . S
C243 N245 1.316 . S
C243 N246 1.347 . S
C243 H248 0.931 . S
C244 N245 1.375 . S
C244 C247 1.350 . S
C244 H249 0.930 . S
N245 Co240 2.057 . S
N245 C243 1.316 . S
N245 C244 1.375 . S
N246 C243 1.347 . S
N246 C247 1.373 . S
C247 C244 1.350 . S
C247 N246 1.373 . S
C247 H268 0.931 . S
H248 C243 0.931 . S
H249 C244 0.930 . S
C250 O257 1.259 . S
C250 O258 1.258 . S
N251 Co242 2.057 . S
N251 C252 1.316 . S
N251 C253 1.375 . S
C252 N251 1.316 . S
C252 N254 1.347 . S
C252 H263 0.931 . S
C253 N251 1.375 . S
C253 C255 1.350 . S
C253 H262 0.930 . S
N254 C252 1.347 . S
N254 C255 1.373 . S
C255 C253 1.350 . S
C255 N254 1.373 . S
C255 H269 0.931 . S
C256 O259 1.256 . S
C256 O260 1.255 . S
O257 Co240 2.021 . S
O257 C250 1.259 . S
O258 Co242 2.117 . S
O258 C250 1.258 . S
O259 Co242 2.020 . S
O259 C256 1.256 . S
O260 Co240 2.062 . S
O260 C256 1.255 . S
O261 C241 1.259 . S
O261 Co242 2.021 . S
H262 C253 0.930 . S
H263 C252 0.931 . S
O264 Co240 2.117 . S
O264 C241 1.258 . S
O265 Co240 2.020 . S
O265 C267 1.256 . S
O266 Co242 2.062 . S
O266 C267 1.255 . S
C267 O265 1.256 . S
C267 O266 1.255 . S
H268 C247 0.931 . S
H269 C255 0.931 . S
Co270 N275 2.057 . S
Co270 O287 2.021 . S
Co270 O290 2.062 . S
Co270 O294 2.117 1_565 S
Co270 O295 2.020 . S
C271 O291 1.259 . S
C271 O294 1.258 . S
Co272 N281 2.057 . S
Co272 O288 2.117 . S
Co272 O289 2.020 . S
Co272 O291 2.021 . S
Co272 O296 2.062 . S
C273 N275 1.316 . S
C273 N276 1.347 . S
C273 H278 0.931 . S
C274 N275 1.375 . S
C274 C277 1.350 . S
C274 H279 0.930 . S
N275 Co270 2.057 . S
N275 C273 1.316 . S
N275 C274 1.375 . S
N276 C273 1.347 . S
N276 C277 1.373 . S
C277 C274 1.350 . S
C277 N276 1.373 . S
C277 H298 0.931 . S
H278 C273 0.931 . S
H279 C274 0.930 . S
C280 O287 1.259 . S
C280 O288 1.258 1_565 S
N281 Co272 2.057 . S
N281 C282 1.316 . S
N281 C283 1.375 . S
C282 N281 1.316 . S
C282 N284 1.347 . S
C282 H293 0.931 . S
C283 N281 1.375 . S
C283 C285 1.350 . S
C283 H292 0.930 . S
N284 C282 1.347 . S
N284 C285 1.373 . S
C285 C283 1.350 . S
C285 N284 1.373 . S
C285 H299 0.931 1_455 S
C286 O289 1.256 . S
C286 O290 1.255 1_545 S
O287 Co270 2.021 . S
O287 C280 1.259 . S
O288 Co272 2.117 . S
O288 C280 1.258 1_545 S
O289 Co272 2.020 . S
O289 C286 1.256 . S
O290 Co270 2.062 . S
O290 C286 1.255 1_565 S
O291 C271 1.259 . S
O291 Co272 2.021 . S
H292 C283 0.930 . S
H293 C282 0.931 . S
O294 Co270 2.117 1_545 S
O294 C271 1.258 . S
O295 Co270 2.020 . S
O295 C297 1.256 1_565 S
O296 Co272 2.062 . S
O296 C297 1.255 . S
C297 O295 1.256 1_545 S
C297 O296 1.255 . S
H298 C277 0.931 . S
H299 C285 0.931 1_655 S
Co300 N305 2.057 . S
Co300 O317 2.021 . S
Co300 O320 2.062 . S
Co300 O324 2.117 . S
Co300 O325 2.020 . S
C301 O321 1.259 . S
C301 O324 1.258 . S
Co302 N311 2.057 . S
Co302 O318 2.117 . S
Co302 O319 2.020 . S
Co302 O321 2.021 . S
Co302 O326 2.062 . S
C303 N305 1.316 . S
C303 N306 1.347 . S
C303 H308 0.931 . S
C304 N305 1.375 . S
C304 C307 1.350 . S
C304 H309 0.930 . S
N305 Co300 2.057 . S
N305 C303 1.316 . S
N305 C304 1.375 . S
N306 C303 1.347 . S
N306 C307 1.373 . S
C307 C304 1.350 . S
C307 N306 1.373 . S
C307 H328 0.931 . S
H308 C303 0.931 . S
H309 C304 0.930 . S
C310 O317 1.259 . S
C310 O318 1.258 . S
N311 Co302 2.057 . S
N311 C312 1.316 . S
N311 C313 1.375 . S
C312 N311 1.316 . S
C312 N314 1.347 . S
C312 H323 0.931 . S
C313 N311 1.375 . S
C313 C315 1.350 . S
C313 H322 0.930 . S
N314 C312 1.347 . S
N314 C315 1.373 . S
C315 C313 1.350 . S
C315 N314 1.373 . S
C315 H329 0.931 . S
C316 O319 1.256 . S
C316 O320 1.255 . S
O317 Co300 2.021 . S
O317 C310 1.259 . S
O318 Co302 2.117 . S
O318 C310 1.258 . S
O319 Co302 2.020 . S
O319 C316 1.256 . S
O320 Co300 2.062 . S
O320 C316 1.255 . S
O321 C301 1.259 . S
O321 Co302 2.021 . S
H322 C313 0.930 . S
H323 C312 0.931 . S
O324 Co300 2.117 . S
O324 C301 1.258 . S
O325 Co300 2.020 . S
O325 C327 1.256 . S
O326 Co302 2.062 . S
O326 C327 1.255 . S
C327 O325 1.256 . S
C327 O326 1.255 . S
H328 C307 0.931 . S
H329 C315 0.931 . S
Co330 N335 2.057 . S
Co330 O347 2.021 . S
Co330 O350 2.062 . S
Co330 O354 2.117 1_545 S
Co330 O355 2.020 . S
C331 O351 1.259 . S
C331 O354 1.258 . S
Co332 N341 2.057 . S
Co332 O348 2.117 . S
Co332 O349 2.020 . S
Co332 O351 2.021 . S
Co332 O356 2.062 . S
C333 N335 1.316 . S
C333 N336 1.347 . S
C333 H338 0.931 . S
C334 N335 1.375 . S
C334 C337 1.350 . S
C334 H339 0.930 . S
N335 Co330 2.057 . S
N335 C333 1.316 . S
N335 C334 1.375 . S
N336 C333 1.347 . S
N336 C337 1.373 . S
C337 C334 1.350 . S
C337 N336 1.373 . S
C337 H358 0.931 . S
H338 C333 0.931 . S
H339 C334 0.930 . S
C340 O347 1.259 . S
C340 O348 1.258 1_545 S
N341 Co332 2.057 . S
N341 C342 1.316 . S
N341 C343 1.375 . S
C342 N341 1.316 . S
C342 N344 1.347 . S
C342 H353 0.931 . S
C343 N341 1.375 . S
C343 C345 1.350 . S
C343 H352 0.930 . S
N344 C342 1.347 . S
N344 C345 1.373 . S
C345 C343 1.350 . S
C345 N344 1.373 . S
C345 H359 0.931 . S
C346 O349 1.256 . S
C346 O350 1.255 1_565 S
O347 Co330 2.021 . S
O347 C340 1.259 . S
O348 Co332 2.117 . S
O348 C340 1.258 1_565 S
O349 Co332 2.020 . S
O349 C346 1.256 . S
O350 Co330 2.062 . S
O350 C346 1.255 1_545 S
O351 C331 1.259 . S
O351 Co332 2.021 . S
H352 C343 0.930 . S
H353 C342 0.931 . S
O354 Co330 2.117 1_565 S
O354 C331 1.258 . S
O355 Co330 2.020 . S
O355 C357 1.256 1_545 S
O356 Co332 2.062 . S
O356 C357 1.255 . S
C357 O355 1.256 1_565 S
C357 O356 1.255 . S
H358 C337 0.931 . S
H359 C345 0.931 . S
Co360 N365 2.057 . S
Co360 O377 2.021 . S
Co360 O380 2.062 . S
Co360 O384 2.117 . S
Co360 O385 2.020 . S
C361 O381 1.259 . S
C361 O384 1.258 . S
Co362 N371 2.057 . S
Co362 O378 2.117 . S
Co362 O379 2.020 . S
Co362 O381 2.021 . S
Co362 O386 2.062 . S
C363 N365 1.316 . S
C363 N366 1.347 . S
C363 H368 0.931 . S
C364 N365 1.375 . S
C364 C367 1.350 . S
C364 H369 0.930 . S
N365 Co360 2.057 . S
N365 C363 1.316 . S
N365 C364 1.375 . S
N366 C363 1.347 . S
N366 C367 1.373 . S
C367 C364 1.350 . S
C367 N366 1.373 . S
C367 H388 0.931 . S
H368 C363 0.931 . S
H369 C364 0.930 . S
C370 O377 1.259 . S
C370 O378 1.258 . S
N371 Co362 2.057 . S
N371 C372 1.316 . S
N371 C373 1.375 . S
C372 N371 1.316 . S
C372 N374 1.347 . S
C372 H383 0.931 . S
C373 N371 1.375 . S
C373 C375 1.350 . S
C373 H382 0.930 . S
N374 C372 1.347 . S
N374 C375 1.373 . S
C375 C373 1.350 . S
C375 N374 1.373 . S
C375 H389 0.931 . S
C376 O379 1.256 . S
C376 O380 1.255 . S
O377 Co360 2.021 . S
O377 C370 1.259 . S
O378 Co362 2.117 . S
O378 C370 1.258 . S
O379 Co362 2.020 . S
O379 C376 1.256 . S
O380 Co360 2.062 . S
O380 C376 1.255 . S
O381 C361 1.259 . S
O381 Co362 2.021 . S
H382 C373 0.930 . S
H383 C372 0.931 . S
O384 Co360 2.117 . S
O384 C361 1.258 . S
O385 Co360 2.020 . S
O385 C387 1.256 . S
O386 Co362 2.062 . S
O386 C387 1.255 . S
C387 O385 1.256 . S
C387 O386 1.255 . S
H388 C367 0.931 . S
H389 C375 0.931 . S
Co390 N395 2.057 . S
Co390 O407 2.021 . S
Co390 O410 2.062 . S
Co390 O414 2.117 . S
Co390 O415 2.020 . S
C391 O411 1.259 . S
C391 O414 1.258 1_545 S
Co392 N401 2.057 . S
Co392 O408 2.117 1_545 S
Co392 O409 2.020 . S
Co392 O411 2.021 . S
Co392 O416 2.062 . S
C393 N395 1.316 . S
C393 N396 1.347 . S
C393 H398 0.931 . S
C394 N395 1.375 . S
C394 C397 1.350 . S
C394 H399 0.930 . S
N395 Co390 2.057 . S
N395 C393 1.316 . S
N395 C394 1.375 . S
N396 C393 1.347 . S
N396 C397 1.373 . S
C397 C394 1.350 . S
C397 N396 1.373 . S
C397 H418 0.931 1_655 S
H398 C393 0.931 . S
H399 C394 0.930 . S
C400 O407 1.259 . S
C400 O408 1.258 . S
N401 Co392 2.057 . S
N401 C402 1.316 . S
N401 C403 1.375 . S
C402 N401 1.316 . S
C402 N404 1.347 . S
C402 H413 0.931 . S
C403 N401 1.375 . S
C403 C405 1.350 . S
C403 H412 0.930 . S
N404 C402 1.347 . S
N404 C405 1.373 . S
C405 C403 1.350 . S
C405 N404 1.373 . S
C405 H419 0.931 . S
C406 O409 1.256 1_565 S
C406 O410 1.255 . S
O407 Co390 2.021 . S
O407 C400 1.259 . S
O408 Co392 2.117 1_565 S
O408 C400 1.258 . S
O409 Co392 2.020 . S
O409 C406 1.256 1_545 S
O410 Co390 2.062 . S
O410 C406 1.255 . S
O411 C391 1.259 . S
O411 Co392 2.021 . S
H412 C403 0.930 . S
H413 C402 0.931 . S
O414 Co390 2.117 . S
O414 C391 1.258 1_565 S
O415 Co390 2.020 . S
O415 C417 1.256 . S
O416 Co392 2.062 . S
O416 C417 1.255 1_545 S
C417 O415 1.256 . S
C417 O416 1.255 1_565 S
H418 C397 0.931 1_455 S
H419 C405 0.931 . S
Co420 N425 2.057 . S
Co420 O437 2.021 . S
Co420 O440 2.062 . S
Co420 O444 2.117 . S
Co420 O445 2.020 . S
C421 O441 1.259 . S
C421 O444 1.258 . S
Co422 N431 2.057 . S
Co422 O438 2.117 . S
Co422 O439 2.020 . S
Co422 O441 2.021 . S
Co422 O446 2.062 . S
C423 N425 1.316 . S
C423 N426 1.347 . S
C423 H428 0.931 . S
C424 N425 1.375 . S
C424 C427 1.350 . S
C424 H429 0.930 . S
N425 Co420 2.057 . S
N425 C423 1.316 . S
N425 C424 1.375 . S
N426 C423 1.347 . S
N426 C427 1.373 . S
C427 C424 1.350 . S
C427 N426 1.373 . S
C427 H448 0.931 . S
H428 C423 0.931 . S
H429 C424 0.930 . S
C430 O437 1.259 . S
C430 O438 1.258 . S
N431 Co422 2.057 . S
N431 C432 1.316 . S
N431 C433 1.375 . S
C432 N431 1.316 . S
C432 N434 1.347 . S
C432 H443 0.931 . S
C433 N431 1.375 . S
C433 C435 1.350 . S
C433 H442 0.930 . S
N434 C432 1.347 . S
N434 C435 1.373 . S
C435 C433 1.350 . S
C435 N434 1.373 . S
C435 H449 0.931 . S
C436 O439 1.256 . S
C436 O440 1.255 . S
O437 Co420 2.021 . S
O437 C430 1.259 . S
O438 Co422 2.117 . S
O438 C430 1.258 . S
O439 Co422 2.020 . S
O439 C436 1.256 . S
O440 Co420 2.062 . S
O440 C436 1.255 . S
O441 C421 1.259 . S
O441 Co422 2.021 . S
H442 C433 0.930 . S
H443 C432 0.931 . S
O444 Co420 2.117 . S
O444 C421 1.258 . S
O445 Co420 2.020 . S
O445 C447 1.256 . S
O446 Co422 2.062 . S
O446 C447 1.255 . S
C447 O445 1.256 . S
C447 O446 1.255 . S
H448 C427 0.931 . S
H449 C435 0.931 . S
Co450 N455 2.057 . S
Co450 O467 2.021 . S
Co450 O470 2.062 . S
Co450 O474 2.117 . S
Co450 O475 2.020 . S
C451 O471 1.259 . S
C451 O474 1.258 1_565 S
Co452 N461 2.057 . S
Co452 O468 2.117 1_565 S
Co452 O469 2.020 . S
Co452 O471 2.021 . S
Co452 O476 2.062 . S
C453 N455 1.316 . S
C453 N456 1.347 . S
C453 H458 0.931 . S
C454 N455 1.375 . S
C454 C457 1.350 . S
C454 H459 0.930 . S
N455 Co450 2.057 . S
N455 C453 1.316 . S
N455 C454 1.375 . S
N456 C453 1.347 . S
N456 C457 1.373 . S
C457 C454 1.350 . S
C457 N456 1.373 . S
C457 H478 0.931 . S
H458 C453 0.931 . S
H459 C454 0.930 . S
C460 O467 1.259 . S
C460 O468 1.258 . S
N461 Co452 2.057 . S
N461 C462 1.316 . S
N461 C463 1.375 . S
C462 N461 1.316 . S
C462 N464 1.347 . S
C462 H473 0.931 . S
C463 N461 1.375 . S
C463 C465 1.350 . S
C463 H472 0.930 . S
N464 C462 1.347 . S
N464 C465 1.373 . S
C465 C463 1.350 . S
C465 N464 1.373 . S
C465 H479 0.931 . S
C466 O469 1.256 1_545 S
C466 O470 1.255 . S
O467 Co450 2.021 . S
O467 C460 1.259 . S
O468 Co452 2.117 1_545 S
O468 C460 1.258 . S
O469 Co452 2.020 . S
O469 C466 1.256 1_565 S
O470 Co450 2.062 . S
O470 C466 1.255 . S
O471 C451 1.259 . S
O471 Co452 2.021 . S
H472 C463 0.930 . S
H473 C462 0.931 . S
O474 Co450 2.117 . S
O474 C451 1.258 1_545 S
O475 Co450 2.020 . S
O475 C477 1.256 . S
O476 Co452 2.062 . S
O476 C477 1.255 1_565 S
C477 O475 1.256 . S
C477 O476 1.255 1_545 S
H478 C457 0.931 . S
H479 C465 0.931 . S
H480 C486 0.930 . S
H481 C489 0.930 . S
H482 C490 0.930 . S
H483 C491 0.930 . S
H484 C494 0.930 . S
H485 C495 0.930 . S
C486 H480 0.930 . S
C486 C487 1.355 . S
C486 C488 1.415 . S
C487 C486 1.355 . S
C487 C489 1.419 . S
C488 C486 1.415 . S
C488 C493 1.425 . S
C488 C495 1.409 . S
C489 H481 0.930 . S
C489 C487 1.419 . S
C489 C490 1.362 . S
C490 H482 0.930 . S
C490 C489 1.362 . S
C490 C493 1.409 . S
C491 H483 0.930 . S
C491 C492 1.355 . S
C491 C493 1.415 . S
C492 C491 1.355 . S
C492 C494 1.419 . S
C493 C488 1.425 . S
C493 C490 1.409 . S
C493 C491 1.415 . S
C494 H484 0.930 . S
C494 C492 1.419 . S
C494 C495 1.362 . S
C495 H485 0.930 . S
C495 C488 1.409 . S
C495 C494 1.362 . S
H496 C502 0.930 . S
H497 C505 0.930 . S
H498 C506 0.930 . S
H499 C507 0.930 . S
H500 C510 0.930 . S
H501 C511 0.930 . S
C502 H496 0.930 . S
C502 C503 1.355 . S
C502 C504 1.415 . S
C503 C502 1.355 . S
C503 C505 1.419 . S
C504 C502 1.415 . S
C504 C509 1.425 . S
C504 C511 1.409 . S
C505 H497 0.930 . S
C505 C503 1.419 . S
C505 C506 1.362 . S
C506 H498 0.930 . S
C506 C505 1.362 . S
C506 C509 1.409 . S
C507 H499 0.930 . S
C507 C508 1.355 . S
C507 C509 1.415 . S
C508 C507 1.355 . S
C508 C510 1.419 . S
C509 C504 1.425 . S
C509 C506 1.409 . S
C509 C507 1.415 . S
C510 H500 0.930 . S
C510 C508 1.419 . S
C510 C511 1.362 . S
C511 H501 0.930 . S
C511 C504 1.409 . S
C511 C510 1.362 . S
H512 C518 0.930 . S
H513 C521 0.930 . S
H514 C522 0.930 . S
H515 C523 0.930 . S
H516 C526 0.930 . S
H517 C527 0.930 . S
C518 H512 0.930 . S
C518 C519 1.355 . S
C518 C520 1.415 . S
C519 C518 1.355 . S
C519 C521 1.419 . S
C520 C518 1.415 . S
C520 C525 1.425 . S
C520 C527 1.409 . S
C521 H513 0.930 . S
C521 C519 1.419 . S
C521 C522 1.362 . S
C522 H514 0.930 . S
C522 C521 1.362 . S
C522 C525 1.409 . S
C523 H515 0.930 . S
C523 C524 1.355 . S
C523 C525 1.415 . S
C524 C523 1.355 . S
C524 C526 1.419 . S
C525 C520 1.425 . S
C525 C522 1.409 . S
C525 C523 1.415 . S
C526 H516 0.930 . S
C526 C524 1.419 . S
C526 C527 1.362 . S
C527 H517 0.930 . S
C527 C520 1.409 . S
C527 C526 1.362 . S
H528 C534 0.930 1_554 S
H529 C537 0.930 . S
H530 C538 0.930 . S
H531 C539 0.930 1_556 S
H532 C542 0.930 . S
H533 C543 0.930 . S
C534 H528 0.930 1_556 S
C534 C535 1.355 . S
C534 C536 1.415 1_556 S
C535 C534 1.355 . S
C535 C537 1.419 . S
C536 C534 1.415 1_554 S
C536 C541 1.425 1_654 S
C536 C543 1.409 1_655 S
C537 H529 0.930 . S
C537 C535 1.419 . S
C537 C538 1.362 . S
C538 H530 0.930 . S
C538 C537 1.362 . S
C538 C541 1.409 1_655 S
C539 H531 0.930 1_554 S
C539 C540 1.355 . S
C539 C541 1.415 1_554 S
C540 C539 1.355 . S
C540 C542 1.419 . S
C541 C536 1.425 1_456 S
C541 C538 1.409 1_455 S
C541 C539 1.415 1_556 S
C542 H532 0.930 . S
C542 C540 1.419 . S
C542 C543 1.362 . S
C543 H533 0.930 . S
C543 C536 1.409 1_455 S
C543 C542 1.362 . S
H544 C550 0.930 . S
H545 C553 0.930 . S
H546 C554 0.930 . S
H547 C555 0.930 . S
H548 C558 0.930 . S
H549 C559 0.930 . S
C550 H544 0.930 . S
C550 C551 1.355 . S
C550 C552 1.415 . S
C551 C550 1.355 . S
C551 C553 1.419 . S
C552 C550 1.415 . S
C552 C557 1.425 . S
C552 C559 1.409 . S
C553 H545 0.930 . S
C553 C551 1.419 . S
C553 C554 1.362 . S
C554 H546 0.930 . S
C554 C553 1.362 . S
C554 C557 1.409 . S
C555 H547 0.930 . S
C555 C556 1.355 . S
C555 C557 1.415 . S
C556 C555 1.355 . S
C556 C558 1.419 . S
C557 C552 1.425 . S
C557 C554 1.409 . S
C557 C555 1.415 . S
C558 H548 0.930 . S
C558 C556 1.419 . S
C558 C559 1.362 . S
C559 H549 0.930 . S
C559 C552 1.409 . S
C559 C558 1.362 . S
H560 C566 0.930 . S
H561 C569 0.930 . S
H562 C570 0.930 . S
H563 C571 0.930 . S
H564 C574 0.930 . S
H565 C575 0.930 . S
C566 H560 0.930 . S
C566 C567 1.355 . S
C566 C568 1.415 . S
C567 C566 1.355 . S
C567 C569 1.419 . S
C568 C566 1.415 . S
C568 C573 1.425 . S
C568 C575 1.409 . S
C569 H561 0.930 . S
C569 C567 1.419 . S
C569 C570 1.362 . S
C570 H562 0.930 . S
C570 C569 1.362 . S
C570 C573 1.409 . S
C571 H563 0.930 . S
C571 C572 1.355 . S
C571 C573 1.415 . S
C572 C571 1.355 . S
C572 C574 1.419 . S
C573 C568 1.425 . S
C573 C570 1.409 . S
C573 C571 1.415 . S
C574 H564 0.930 . S
C574 C572 1.419 . S
C574 C575 1.362 . S
C575 H565 0.930 . S
C575 C568 1.409 . S
C575 C574 1.362 . S
H576 C582 0.930 1_556 S
H577 C585 0.930 . S
H578 C586 0.930 . S
H579 C587 0.930 1_554 S
H580 C590 0.930 . S
H581 C591 0.930 . S
C582 H576 0.930 1_554 S
C582 C583 1.355 . S
C582 C584 1.415 1_554 S
C583 C582 1.355 . S
C583 C585 1.419 . S
C584 C582 1.415 1_556 S
C584 C589 1.425 1_666 S
C584 C591 1.409 . S
C585 H577 0.930 . S
C585 C583 1.419 . S
C585 C586 1.362 1_665 S
C586 H578 0.930 . S
C586 C585 1.362 1_445 S
C586 C589 1.409 . S
C587 H579 0.930 1_556 S
C587 C588 1.355 . S
C587 C589 1.415 1_556 S
C588 C587 1.355 . S
C588 C590 1.419 . S
C589 C584 1.425 1_444 S
C589 C586 1.409 . S
C589 C587 1.415 1_554 S
C590 H580 0.930 . S
C590 C588 1.419 . S
C590 C591 1.362 1_445 S
C591 H581 0.930 . S
C591 C584 1.409 . S
C591 C590 1.362 1_665 S
H592 C598 0.930 . S
H593 C601 0.930 . S
H594 C602 0.930 . S
H595 C603 0.930 . S
H596 C606 0.930 . S
H597 C607 0.930 . S
C598 H592 0.930 . S
C598 C599 1.355 . S
C598 C600 1.415 . S
C599 C598 1.355 . S
C599 C601 1.419 1_565 S
C600 C598 1.415 . S
C600 C605 1.425 1_565 S
C600 C607 1.409 . S
C601 H593 0.930 . S
C601 C599 1.419 1_545 S
C601 C602 1.362 . S
C602 H594 0.930 . S
C602 C601 1.362 . S
C602 C605 1.409 . S
C603 H595 0.930 . S
C603 C604 1.355 . S
C603 C605 1.415 . S
C604 C603 1.355 . S
C604 C606 1.419 1_545 S
C605 C600 1.425 1_545 S
C605 C602 1.409 . S
C605 C603 1.415 . S
C606 H596 0.930 . S
C606 C604 1.419 1_565 S
C606 C607 1.362 . S
C607 H597 0.930 . S
C607 C600 1.409 . S
C607 C606 1.362 . S
H608 C614 0.930 . S
H609 C617 0.930 . S
H610 C618 0.930 . S
H611 C619 0.930 . S
H612 C622 0.930 . S
H613 C623 0.930 . S
C614 H608 0.930 . S
C614 C615 1.355 . S
C614 C616 1.408 1_556 S
C615 C614 1.355 . S
C615 C617 1.419 . S
C616 C614 1.408 1_554 S
C616 C621 1.424 1_554 S
C616 C623 1.417 . S
C617 H609 0.930 . S
C617 C615 1.419 . S
C617 C618 1.362 . S
C618 H610 0.930 . S
C618 C617 1.362 . S
C618 C621 1.409 . S
C619 H611 0.930 . S
C619 C620 1.355 . S
C619 C621 1.415 1_554 S
C620 C619 1.355 . S
C620 C622 1.419 . S
C621 C616 1.424 1_556 S
C621 C618 1.409 . S
C621 C619 1.415 1_556 S
C622 H612 0.930 . S
C622 C620 1.419 . S
C622 C623 1.362 . S
C623 H613 0.930 . S
C623 C616 1.417 . S
C623 C622 1.362 . S
H624 C630 0.930 . S
H625 C633 0.930 . S
H626 C634 0.930 . S
H627 C635 0.930 . S
H628 C638 0.930 . S
H629 C639 0.930 . S
C630 H624 0.930 . S
C630 C631 1.355 . S
C630 C632 1.415 . S
C631 C630 1.355 . S
C631 C633 1.419 . S
C632 C630 1.415 . S
C632 C637 1.425 . S
C632 C639 1.409 . S
C633 H625 0.930 . S
C633 C631 1.419 . S
C633 C634 1.362 . S
C634 H626 0.930 . S
C634 C633 1.362 . S
C634 C637 1.409 . S
C635 H627 0.930 . S
C635 C636 1.355 . S
C635 C637 1.415 . S
C636 C635 1.355 . S
C636 C638 1.419 . S
C637 C632 1.425 . S
C637 C634 1.409 . S
C637 C635 1.415 . S
C638 H628 0.930 . S
C638 C636 1.419 . S
C638 C639 1.362 . S
C639 H629 0.930 . S
C639 C632 1.409 . S
C639 C638 1.362 . S
H640 C646 0.930 . S
H641 C649 0.930 . S
H642 C650 0.930 . S
H643 C651 0.930 . S
H644 C654 0.930 . S
H645 C655 0.930 . S
C646 H640 0.930 . S
C646 C647 1.355 . S
C646 C648 1.415 . S
C647 C646 1.355 . S
C647 C649 1.419 . S
C648 C646 1.415 . S
C648 C653 1.425 . S
C648 C655 1.409 . S
C649 H641 0.930 . S
C649 C647 1.419 . S
C649 C650 1.362 . S
C650 H642 0.930 . S
C650 C649 1.362 . S
C650 C653 1.409 . S
C651 H643 0.930 . S
C651 C652 1.355 . S
C651 C653 1.415 . S
C652 C651 1.355 . S
C652 C654 1.419 . S
C653 C648 1.425 . S
C653 C650 1.409 . S
C653 C651 1.415 . S
C654 H644 0.930 . S
C654 C652 1.419 . S
C654 C655 1.362 . S
C655 H645 0.930 . S
C655 C648 1.409 . S
C655 C654 1.362 . S
H656 C662 0.930 . S
H657 C665 0.930 . S
H658 C666 0.930 . S
H659 C667 0.930 . S
H660 C670 0.930 . S
H661 C671 0.930 . S
C662 H656 0.930 . S
C662 C663 1.355 . S
C662 C664 1.415 . S
C663 C662 1.355 . S
C663 C665 1.419 . S
C664 C662 1.415 . S
C664 C669 1.425 . S
C664 C671 1.409 . S
C665 H657 0.930 . S
C665 C663 1.419 . S
C665 C666 1.362 . S
C666 H658 0.930 . S
C666 C665 1.362 . S
C666 C669 1.409 . S
C667 H659 0.930 . S
C667 C668 1.355 . S
C667 C669 1.415 . S
C668 C667 1.355 . S
C668 C670 1.419 . S
C669 C664 1.425 . S
C669 C666 1.409 . S
C669 C667 1.415 . S
C670 H660 0.930 . S
C670 C668 1.419 . S
C670 C671 1.362 . S
C671 H661 0.930 . S
C671 C664 1.409 . S
C671 C670 1.362 . S
H672 C678 0.930 . S
H673 C681 0.930 . S
H674 C682 0.930 . S
H675 C683 0.930 . S
H676 C686 0.930 . S
H677 C687 0.930 . S
C678 H672 0.930 . S
C678 C679 1.355 . S
C678 C680 1.415 . S
C679 C678 1.355 . S
C679 C681 1.419 . S
C680 C678 1.415 . S
C680 C685 1.425 1_554 S
C680 C687 1.409 . S
C681 H673 0.930 . S
C681 C679 1.419 . S
C681 C682 1.362 1_554 S
C682 H674 0.930 . S
C682 C681 1.362 1_556 S
C682 C685 1.409 . S
C683 H675 0.930 . S
C683 C684 1.355 . S
C683 C685 1.415 . S
C684 C683 1.355 . S
C684 C686 1.419 . S
C685 C680 1.425 1_556 S
C685 C682 1.409 . S
C685 C683 1.415 . S
C686 H676 0.930 . S
C686 C684 1.419 . S
C686 C687 1.362 1_556 S
C687 H677 0.930 . S
C687 C680 1.409 . S
C687 C686 1.362 1_554 S
H688 C694 0.930 . S
H689 C697 0.930 . S
H690 C698 0.930 . S
H691 C699 0.930 . S
H692 C702 0.930 . S
H693 C703 0.930 . S
C694 H688 0.930 . S
C694 C695 1.355 . S
C694 C696 1.415 . S
C695 C694 1.355 . S
C695 C697 1.419 . S
C696 C694 1.415 . S
C696 C701 1.425 . S
C696 C703 1.409 . S
C697 H689 0.930 . S
C697 C695 1.419 . S
C697 C698 1.362 . S
C698 H690 0.930 . S
C698 C697 1.362 . S
C698 C701 1.409 . S
C699 H691 0.930 . S
C699 C700 1.355 . S
C699 C701 1.415 . S
C700 C699 1.355 . S
C700 C702 1.419 . S
C701 C696 1.425 . S
C701 C698 1.409 . S
C701 C699 1.415 . S
C702 H692 0.930 . S
C702 C700 1.419 . S
C702 C703 1.362 . S
C703 H693 0.930 . S
C703 C696 1.409 . S
C703 C702 1.362 . S
H704 C710 0.930 . S
H705 C713 0.930 . S
H706 C714 0.930 . S
H707 C715 0.930 . S
H708 C718 0.930 . S
H709 C719 0.930 . S
C710 H704 0.930 . S
C710 C711 1.355 . S
C710 C712 1.415 . S
C711 C710 1.355 . S
C711 C713 1.419 . S
C712 C710 1.415 . S
C712 C717 1.425 . S
C712 C719 1.409 . S
C713 H705 0.930 . S
C713 C711 1.419 . S
C713 C714 1.362 . S
C714 H706 0.930 . S
C714 C713 1.362 . S
C714 C717 1.409 . S
C715 H707 0.930 . S
C715 C716 1.355 . S
C715 C717 1.415 . S
C716 C715 1.355 . S
C716 C718 1.419 . S
C717 C712 1.425 . S
C717 C714 1.409 . S
C717 C715 1.415 . S
C718 H708 0.930 . S
C718 C716 1.419 . S
C718 C719 1.362 . S
C719 H709 0.930 . S
C719 C712 1.409 . S
C719 C718 1.362 . S
H720 C726 0.930 . S
H721 C729 0.930 . S
H722 C730 0.930 . S
H723 C731 0.930 . S
H724 C734 0.930 . S
H725 C735 0.930 . S
C726 H720 0.930 . S
C726 C727 1.355 . S
C726 C728 1.415 . S
C727 C726 1.355 . S
C727 C729 1.419 . S
C728 C726 1.415 . S
C728 C733 1.425 . S
C728 C735 1.409 . S
C729 H721 0.930 . S
C729 C727 1.419 . S
C729 C730 1.362 . S
C730 H722 0.930 . S
C730 C729 1.362 . S
C730 C733 1.409 . S
C731 H723 0.930 . S
C731 C732 1.355 . S
C731 C733 1.415 . S
C732 C731 1.355 . S
C732 C734 1.419 . S
C733 C728 1.425 . S
C733 C730 1.409 . S
C733 C731 1.415 . S
C734 H724 0.930 . S
C734 C732 1.419 . S
C734 C735 1.362 . S
C735 H725 0.930 . S
C735 C728 1.409 . S
C735 C734 1.362 . S
H736 C742 0.930 . S
H737 C745 0.930 . S
H738 C746 0.930 . S
H739 C747 0.930 . S
H740 C750 0.930 . S
H741 C751 0.930 . S
C742 H736 0.930 . S
C742 C743 1.355 . S
C742 C744 1.415 . S
C743 C742 1.355 . S
C743 C745 1.419 . S
C744 C742 1.415 . S
C744 C749 1.425 . S
C744 C751 1.409 . S
C745 H737 0.930 . S
C745 C743 1.419 . S
C745 C746 1.362 . S
C746 H738 0.930 . S
C746 C745 1.362 . S
C746 C749 1.409 . S
C747 H739 0.930 . S
C747 C748 1.355 . S
C747 C749 1.415 . S
C748 C747 1.355 . S
C748 C750 1.419 . S
C749 C744 1.425 . S
C749 C746 1.409 . S
C749 C747 1.415 . S
C750 H740 0.930 . S
C750 C748 1.419 . S
C750 C751 1.362 . S
C751 H741 0.930 . S
C751 C744 1.409 . S
C751 C750 1.362 . S
H752 C758 0.930 . S
H753 C761 0.930 . S
H754 C762 0.930 . S
H755 C763 0.930 . S
H756 C766 0.930 . S
H757 C767 0.918 1_545 S
C758 H752 0.930 . S
C758 C759 1.355 . S
C758 C760 1.415 1_545 S
C759 C758 1.355 . S
C759 C761 1.419 1_545 S
C760 C758 1.415 1_565 S
C760 C765 1.425 . S
C760 C767 1.413 . S
C761 H753 0.930 . S
C761 C759 1.419 1_565 S
C761 C762 1.362 . S
C762 H754 0.930 . S
C762 C761 1.362 . S
C762 C765 1.409 . S
C763 H755 0.930 . S
C763 C764 1.355 . S
C763 C765 1.415 . S
C764 C763 1.355 . S
C764 C766 1.419 . S
C765 C760 1.425 . S
C765 C762 1.409 . S
C765 C763 1.415 . S
C766 H756 0.930 . S
C766 C764 1.419 . S
C766 C767 1.371 . S
C767 H757 0.918 1_565 S
C767 C760 1.413 . S
C767 C766 1.371 . S
H768 C774 0.930 . S
H769 C777 0.930 . S
H770 C778 0.930 . S
H771 C779 0.930 . S
H772 C782 0.930 . S
H773 C783 0.930 . S
C774 H768 0.930 . S
C774 C775 1.355 . S
C774 C776 1.415 . S
C775 C774 1.355 . S
C775 C777 1.419 . S
C776 C774 1.415 . S
C776 C781 1.425 1_554 S
C776 C783 1.409 . S
C777 H769 0.930 . S
C777 C775 1.419 . S
C777 C778 1.362 1_554 S
C778 H770 0.930 . S
C778 C777 1.362 1_556 S
C778 C781 1.409 . S
C779 H771 0.930 . S
C779 C780 1.355 . S
C779 C781 1.415 . S
C780 C779 1.355 . S
C780 C782 1.419 . S
C781 C776 1.425 1_556 S
C781 C778 1.409 . S
C781 C779 1.415 . S
C782 H772 0.930 . S
C782 C780 1.419 . S
C782 C783 1.362 1_556 S
C783 H773 0.930 . S
C783 C776 1.409 . S
C783 C782 1.362 1_554 S
H784 C790 0.930 . S
H785 C793 0.930 . S
H786 C794 0.930 . S
H787 C795 0.930 . S
H788 C798 0.930 . S
H789 C799 0.930 . S
C790 H784 0.930 . S
C790 C791 1.355 . S
C790 C792 1.415 . S
C791 C790 1.355 . S
C791 C793 1.419 . S
C792 C790 1.415 . S
C792 C797 1.425 . S
C792 C799 1.409 1_545 S
C793 H785 0.930 . S
C793 C791 1.419 . S
C793 C794 1.362 . S
C794 H786 0.930 . S
C794 C793 1.362 . S
C794 C797 1.409 . S
C795 H787 0.930 . S
C795 C796 1.355 1_545 S
C795 C797 1.415 . S
C796 C795 1.355 1_565 S
C796 C798 1.419 . S
C797 C792 1.425 . S
C797 C794 1.409 . S
C797 C795 1.415 . S
C798 H788 0.930 . S
C798 C796 1.419 . S
C798 C799 1.362 . S
C799 H789 0.930 . S
C799 C792 1.409 1_565 S
C799 C798 1.362 . S
H800 C806 0.930 . S
H801 C809 0.930 . S
H802 C810 0.930 . S
H803 C811 0.930 . S
H804 C814 0.930 . S
H805 C815 0.930 . S
C806 H800 0.930 . S
C806 C807 1.355 . S
C806 C808 1.415 . S
C807 C806 1.355 . S
C807 C809 1.419 . S
C808 C806 1.415 . S
C808 C813 1.425 . S
C808 C815 1.409 . S
C809 H801 0.930 . S
C809 C807 1.419 . S
C809 C810 1.362 . S
C810 H802 0.930 . S
C810 C809 1.362 . S
C810 C813 1.409 . S
C811 H803 0.930 . S
C811 C812 1.355 . S
C811 C813 1.415 . S
C812 C811 1.355 . S
C812 C814 1.419 . S
C813 C808 1.425 . S
C813 C810 1.409 . S
C813 C811 1.415 . S
C814 H804 0.930 . S
C814 C812 1.419 . S
C814 C815 1.362 . S
C815 H805 0.930 . S
C815 C808 1.409 . S
C815 C814 1.362 . S
H816 C822 0.947 . S
H817 C825 0.930 . S
H818 C826 0.930 . S
H819 C827 0.930 . S
H820 C830 0.930 . S
H821 C831 0.930 . S
C822 H816 0.947 . S
C822 C823 1.356 . S
C822 C824 1.398 1_565 S
C823 C822 1.356 . S
C823 C825 1.419 1_565 S
C824 C822 1.398 1_545 S
C824 C829 1.425 . S
C824 C831 1.409 . S
C825 H817 0.930 . S
C825 C823 1.419 1_545 S
C825 C826 1.362 . S
C826 H818 0.930 . S
C826 C825 1.362 . S
C826 C829 1.409 . S
C827 H819 0.930 . S
C827 C828 1.355 . S
C827 C829 1.415 . S
C828 C827 1.355 . S
C828 C830 1.419 . S
C829 C824 1.425 . S
C829 C826 1.409 . S
C829 C827 1.415 . S
C830 H820 0.930 . S
C830 C828 1.419 . S
C830 C831 1.362 . S
C831 H821 0.930 . S
C831 C824 1.409 . S
C831 C830 1.362 . S
H832 C838 0.930 . S
H833 C841 0.930 . S
H834 C842 0.930 . S
H835 C843 0.930 . S
H836 C846 0.930 . S
H837 C847 0.930 1_554 S
C838 H832 0.930 . S
C838 C839 1.355 . S
C838 C840 1.415 . S
C839 C838 1.355 . S
C839 C841 1.419 . S
C840 C838 1.415 . S
C840 C845 1.425 1_554 S
C840 C847 1.409 1_554 S
C841 H833 0.930 . S
C841 C839 1.419 . S
C841 C842 1.362 . S
C842 H834 0.930 . S
C842 C841 1.362 . S
C842 C845 1.409 1_554 S
C843 H835 0.930 . S
C843 C844 1.355 . S
C843 C845 1.415 . S
C844 C843 1.355 . S
C844 C846 1.419 . S
C845 C840 1.425 1_556 S
C845 C842 1.409 1_556 S
C845 C843 1.415 . S
C846 H836 0.930 . S
C846 C844 1.419 . S
C846 C847 1.362 . S
C847 H837 0.930 1_556 S
C847 C840 1.409 1_556 S
C847 C846 1.362 . S
H848 C854 0.930 . S
H849 C857 0.930 . S
H850 C858 0.930 . S
H851 C859 0.930 . S
H852 C862 0.930 . S
H853 C863 0.930 . S
C854 H848 0.930 . S
C854 C855 1.355 1_565 S
C854 C856 1.415 . S
C855 C854 1.355 1_545 S
C855 C857 1.419 . S
C856 C854 1.415 . S
C856 C861 1.425 . S
C856 C863 1.409 . S
C857 H849 0.930 . S
C857 C855 1.419 . S
C857 C858 1.362 . S
C858 H850 0.930 . S
C858 C857 1.362 . S
C858 C861 1.409 1_545 S
C859 H851 0.930 . S
C859 C860 1.355 . S
C859 C861 1.415 . S
C860 C859 1.355 . S
C860 C862 1.419 . S
C861 C856 1.425 . S
C861 C858 1.409 1_565 S
C861 C859 1.415 . S
C862 H852 0.930 . S
C862 C860 1.419 . S
C862 C863 1.362 . S
C863 H853 0.930 . S
C863 C856 1.409 . S
C863 C862 1.362 . S
H864 C870 0.930 . S
H865 C873 0.930 . S
H866 C874 0.930 . S
H867 C875 0.930 . S
H868 C878 0.930 . S
H869 C879 0.930 . S
C870 H864 0.930 . S
C870 C871 1.355 . S
C870 C872 1.415 . S
C871 C870 1.355 . S
C871 C873 1.419 . S
C872 C870 1.415 . S
C872 C877 1.425 . S
C872 C879 1.409 . S
C873 H865 0.930 . S
C873 C871 1.419 . S
C873 C874 1.362 . S
C874 H866 0.930 . S
C874 C873 1.362 . S
C874 C877 1.409 . S
C875 H867 0.930 . S
C875 C876 1.355 . S
C875 C877 1.415 . S
C876 C875 1.355 . S
C876 C878 1.419 . S
C877 C872 1.425 . S
C877 C874 1.409 . S
C877 C875 1.415 . S
C878 H868 0.930 . S
C878 C876 1.419 . S
C878 C879 1.362 . S
C879 H869 0.930 . S
C879 C872 1.409 . S
C879 C878 1.362 . S
H880 C886 0.930 . S
H881 C889 0.930 . S
H882 C890 0.930 . S
H883 C891 0.930 . S
H884 C894 0.930 . S
H885 C895 0.930 . S
C886 H880 0.930 . S
C886 C887 1.355 . S
C886 C888 1.415 . S
C887 C886 1.355 . S
C887 C889 1.419 . S
C888 C886 1.415 . S
C888 C893 1.425 . S
C888 C895 1.409 . S
C889 H881 0.930 . S
C889 C887 1.419 . S
C889 C890 1.362 . S
C890 H882 0.930 . S
C890 C889 1.362 . S
C890 C893 1.409 . S
C891 H883 0.930 . S
C891 C892 1.355 . S
C891 C893 1.415 . S
C892 C891 1.355 . S
C892 C894 1.419 . S
C893 C888 1.425 . S
C893 C890 1.409 . S
C893 C891 1.415 . S
C894 H884 0.930 . S
C894 C892 1.419 . S
C894 C895 1.362 . S
C895 H885 0.930 . S
C895 C888 1.409 . S
C895 C894 1.362 . S
H896 C902 0.930 . S
H897 C905 0.930 . S
H898 C906 0.930 . S
H899 C907 0.930 . S
H900 C910 0.930 . S
H901 C911 0.930 . S
C902 H896 0.930 . S
C902 C903 1.355 . S
C902 C904 1.415 1_655 S
C903 C902 1.355 . S
C903 C905 1.419 . S
C904 C902 1.415 1_455 S
C904 C909 1.425 1_455 S
C904 C911 1.409 . S
C905 H897 0.930 . S
C905 C903 1.419 . S
C905 C906 1.362 . S
C906 H898 0.930 . S
C906 C905 1.362 . S
C906 C909 1.409 . S
C907 H899 0.930 . S
C907 C908 1.355 . S
C907 C909 1.415 1_455 S
C908 C907 1.355 . S
C908 C910 1.419 . S
C909 C904 1.425 1_655 S
C909 C906 1.409 . S
C909 C907 1.415 1_655 S
C910 H900 0.930 . S
C910 C908 1.419 . S
C910 C911 1.362 . S
C911 H901 0.930 . S
C911 C904 1.409 . S
C911 C910 1.362 . S
H912 C918 0.930 . S
H913 C921 0.930 . S
H914 C922 0.930 . S
H915 C923 0.930 . S
H916 C926 0.930 . S
H917 C927 0.930 . S
C918 H912 0.930 . S
C918 C919 1.355 . S
C918 C920 1.415 . S
C919 C918 1.355 . S
C919 C921 1.419 1_655 S
C920 C918 1.415 . S
C920 C925 1.425 1_655 S
C920 C927 1.409 . S
C921 H913 0.930 . S
C921 C919 1.419 1_455 S
C921 C922 1.362 . S
C922 H914 0.930 . S
C922 C921 1.362 . S
C922 C925 1.409 . S
C923 H915 0.930 . S
C923 C924 1.355 . S
C923 C925 1.415 . S
C924 C923 1.355 . S
C924 C926 1.419 1_455 S
C925 C920 1.425 1_455 S
C925 C922 1.409 . S
C925 C923 1.415 . S
C926 H916 0.930 . S
C926 C924 1.419 1_655 S
C926 C927 1.362 . S
C927 H917 0.930 . S
C927 C920 1.409 . S
C927 C926 1.362 . S
H928 C934 0.930 . S
H929 C937 0.930 . S
H930 C938 0.930 . S
H931 C939 0.930 . S
H932 C942 0.930 . S
H933 C943 0.930 . S
C934 H928 0.930 . S
C934 C935 1.355 . S
C934 C936 1.415 . S
C935 C934 1.355 . S
C935 C937 1.419 . S
C936 C934 1.415 . S
C936 C941 1.425 . S
C936 C943 1.409 . S
C937 H929 0.930 . S
C937 C935 1.419 . S
C937 C938 1.362 . S
C938 H930 0.930 . S
C938 C937 1.362 . S
C938 C941 1.409 . S
C939 H931 0.930 . S
C939 C940 1.355 . S
C939 C941 1.415 . S
C940 C939 1.355 . S
C940 C942 1.419 . S
C941 C936 1.425 . S
C941 C938 1.409 . S
C941 C939 1.415 . S
C942 H932 0.930 . S
C942 C940 1.419 . S
C942 C943 1.362 . S
C943 H933 0.930 . S
C943 C936 1.409 . S
C943 C942 1.362 . S
H944 C950 0.930 . S
H945 C953 0.930 . S
H946 C954 0.930 . S
H947 C955 0.930 . S
H948 C958 0.930 . S
H949 C959 0.930 . S
C950 H944 0.930 . S
C950 C951 1.355 . S
C950 C952 1.415 . S
C951 C950 1.355 . S
C951 C953 1.419 . S
C952 C950 1.415 . S
C952 C957 1.425 . S
C952 C959 1.409 . S
C953 H945 0.930 . S
C953 C951 1.419 . S
C953 C954 1.362 . S
C954 H946 0.930 . S
C954 C953 1.362 . S
C954 C957 1.409 . S
C955 H947 0.930 . S
C955 C956 1.355 . S
C955 C957 1.415 . S
C956 C955 1.355 . S
C956 C958 1.419 . S
C957 C952 1.425 . S
C957 C954 1.409 . S
C957 C955 1.415 . S
C958 H948 0.930 . S
C958 C956 1.419 . S
C958 C959 1.362 . S
C959 H949 0.930 . S
C959 C952 1.409 . S
C959 C958 1.362 . S
H960 C966 0.930 . S
H961 C969 0.930 . S
H962 C970 0.930 . S
H963 C971 0.930 . S
H964 C974 0.930 . S
H965 C975 0.930 . S
C966 H960 0.930 . S
C966 C967 1.355 . S
C966 C968 1.415 1_455 S
C967 C966 1.355 . S
C967 C969 1.419 . S
C968 C966 1.415 1_655 S
C968 C973 1.425 1_655 S
C968 C975 1.409 . S
C969 H961 0.930 . S
C969 C967 1.419 . S
C969 C970 1.362 . S
C970 H962 0.930 . S
C970 C969 1.362 . S
C970 C973 1.409 . S
C971 H963 0.930 . S
C971 C972 1.355 . S
C971 C973 1.415 1_655 S
C972 C971 1.355 . S
C972 C974 1.419 . S
C973 C968 1.425 1_455 S
C973 C970 1.409 . S
C973 C971 1.415 1_455 S
C974 H964 0.930 . S
C974 C972 1.419 . S
C974 C975 1.362 . S
C975 H965 0.930 . S
C975 C968 1.409 . S
C975 C974 1.362 . S
H976 C982 0.930 . S
H977 C985 0.930 . S
H978 C986 0.930 . S
H979 C987 0.930 . S
H980 C990 0.930 . S
H981 C991 0.930 . S
C982 H976 0.930 . S
C982 C983 1.355 . S
C982 C984 1.415 . S
C983 C982 1.355 . S
C983 C985 1.419 1_455 S
C984 C982 1.415 . S
C984 C989 1.425 1_455 S
C984 C991 1.409 . S
C985 H977 0.930 . S
C985 C983 1.419 1_655 S
C985 C986 1.362 . S
C986 H978 0.930 . S
C986 C985 1.362 . S
C986 C989 1.409 . S
C987 H979 0.930 . S
C987 C988 1.355 . S
C987 C989 1.415 . S
C988 C987 1.355 . S
C988 C990 1.419 1_655 S
C989 C984 1.425 1_655 S
C989 C986 1.409 . S
C989 C987 1.415 . S
C990 H980 0.930 . S
C990 C988 1.419 1_455 S
C990 C991 1.362 . S
C991 H981 0.930 . S
C991 C984 1.409 . S
C991 C990 1.362 . S
H992 C998 0.930 . S
H993 C1001 0.930 . S
H994 C1002 0.930 . S
H995 C1003 0.930 . S
H996 C1006 0.930 . S
H997 C1007 0.930 . S
C998 H992 0.930 . S
C998 C999 1.355 . S
C998 C1000 1.415 . S
C999 C998 1.355 . S
C999 C1001 1.419 . S
C1000 C998 1.415 . S
C1000 C1005 1.425 . S
C1000 C1007 1.409 . S
C1001 H993 0.930 . S
C1001 C999 1.419 . S
C1001 C1002 1.362 . S
C1002 H994 0.930 . S
C1002 C1001 1.362 . S
C1002 C1005 1.409 . S
C1003 H995 0.930 . S
C1003 C1004 1.355 . S
C1003 C1005 1.415 . S
C1004 C1003 1.355 . S
C1004 C1006 1.419 . S
C1005 C1000 1.425 . S
C1005 C1002 1.409 . S
C1005 C1003 1.415 . S
C1006 H996 0.930 . S
C1006 C1004 1.419 . S
C1006 C1007 1.362 . S
C1007 H997 0.930 . S
C1007 C1000 1.409 . S
C1007 C1006 1.362 . S
H1008 C1014 0.930 . S
H1009 C1017 0.930 . S
H1010 C1018 0.930 . S
H1011 C1019 0.930 . S
H1012 C1022 0.930 . S
H1013 C1023 0.930 . S
C1014 H1008 0.930 . S
C1014 C1015 1.355 . S
C1014 C1016 1.415 . S
C1015 C1014 1.355 . S
C1015 C1017 1.419 . S
C1016 C1014 1.415 . S
C1016 C1021 1.425 . S
C1016 C1023 1.409 . S
C1017 H1009 0.930 . S
C1017 C1015 1.419 . S
C1017 C1018 1.362 . S
C1018 H1010 0.930 . S
C1018 C1017 1.362 . S
C1018 C1021 1.409 . S
C1019 H1011 0.930 . S
C1019 C1020 1.355 . S
C1019 C1021 1.415 . S
C1020 C1019 1.355 . S
C1020 C1022 1.419 . S
C1021 C1016 1.425 . S
C1021 C1018 1.409 . S
C1021 C1019 1.415 . S
C1022 H1012 0.930 . S
C1022 C1020 1.419 . S
C1022 C1023 1.362 . S
C1023 H1013 0.930 . S
C1023 C1016 1.409 . S
C1023 C1022 1.362 . S
H1024 C1030 0.930 . S
H1025 C1033 0.930 . S
H1026 C1034 0.930 . S
H1027 C1035 0.930 . S
H1028 C1038 0.930 . S
H1029 C1039 0.930 . S
C1030 H1024 0.930 . S
C1030 C1031 1.355 . S
C1030 C1032 1.415 . S
C1031 C1030 1.355 . S
C1031 C1033 1.419 . S
C1032 C1030 1.415 . S
C1032 C1037 1.425 . S
C1032 C1039 1.409 . S
C1033 H1025 0.930 . S
C1033 C1031 1.419 . S
C1033 C1034 1.362 . S
C1034 H1026 0.930 . S
C1034 C1033 1.362 . S
C1034 C1037 1.409 . S
C1035 H1027 0.930 . S
C1035 C1036 1.355 . S
C1035 C1037 1.415 . S
C1036 C1035 1.355 . S
C1036 C1038 1.419 . S
C1037 C1032 1.425 . S
C1037 C1034 1.409 . S
C1037 C1035 1.415 . S
C1038 H1028 0.930 . S
C1038 C1036 1.419 . S
C1038 C1039 1.362 . S
C1039 H1029 0.930 . S
C1039 C1032 1.409 . S
C1039 C1038 1.362 . S
H1040 C1046 0.930 . S
H1041 C1049 0.922 1_655 S
H1042 C1050 0.930 . S
H1043 C1051 0.930 . S
H1044 C1054 0.930 . S
H1045 C1055 0.930 . S
C1046 H1040 0.930 . S
C1046 C1047 1.355 . S
C1046 C1048 1.415 1_655 S
C1047 C1046 1.355 . S
C1047 C1049 1.419 1_655 S
C1048 C1046 1.415 1_455 S
C1048 C1053 1.425 . S
C1048 C1055 1.409 . S
C1049 H1041 0.922 1_455 S
C1049 C1047 1.419 1_455 S
C1049 C1050 1.362 . S
C1050 H1042 0.930 . S
C1050 C1049 1.362 . S
C1050 C1053 1.409 . S
C1051 H1043 0.930 . S
C1051 C1052 1.355 . S
C1051 C1053 1.415 . S
C1052 C1051 1.355 . S
C1052 C1054 1.419 . S
C1053 C1048 1.425 . S
C1053 C1050 1.409 . S
C1053 C1051 1.415 . S
C1054 H1044 0.930 . S
C1054 C1052 1.419 . S
C1054 C1055 1.362 . S
C1055 H1045 0.930 . S
C1055 C1048 1.409 . S
C1055 C1054 1.362 . S
H1056 C1062 0.930 . S
H1057 C1065 0.930 . S
H1058 C1066 0.930 . S
H1059 C1067 0.930 . S
H1060 C1070 0.930 . S
H1061 C1071 0.930 . S
C1062 H1056 0.930 . S
C1062 C1063 1.355 . S
C1062 C1064 1.415 . S
C1063 C1062 1.355 . S
C1063 C1065 1.419 . S
C1064 C1062 1.415 . S
C1064 C1069 1.425 . S
C1064 C1071 1.409 . S
C1065 H1057 0.930 . S
C1065 C1063 1.419 . S
C1065 C1066 1.362 . S
C1066 H1058 0.930 . S
C1066 C1065 1.362 . S
C1066 C1069 1.409 . S
C1067 H1059 0.930 . S
C1067 C1068 1.355 . S
C1067 C1069 1.415 . S
C1068 C1067 1.355 . S
C1068 C1070 1.419 . S
C1069 C1064 1.425 . S
C1069 C1066 1.409 . S
C1069 C1067 1.415 . S
C1070 H1060 0.930 . S
C1070 C1068 1.419 . S
C1070 C1071 1.362 . S
C1071 H1061 0.930 . S
C1071 C1064 1.409 . S
C1071 C1070 1.362 . S
H1072 C1078 0.930 . S
H1073 C1081 0.930 . S
H1074 C1082 0.930 . S
H1075 C1083 0.930 . S
H1076 C1086 0.930 . S
H1077 C1087 0.930 . S
C1078 H1072 0.930 . S
C1078 C1079 1.355 . S
C1078 C1080 1.415 . S
C1079 C1078 1.355 . S
C1079 C1081 1.419 . S
C1080 C1078 1.415 . S
C1080 C1085 1.425 . S
C1080 C1087 1.409 . S
C1081 H1073 0.930 . S
C1081 C1079 1.419 . S
C1081 C1082 1.362 . S
C1082 H1074 0.930 . S
C1082 C1081 1.362 . S
C1082 C1085 1.409 . S
C1083 H1075 0.930 . S
C1083 C1084 1.355 . S
C1083 C1085 1.415 . S
C1084 C1083 1.355 . S
C1084 C1086 1.419 . S
C1085 C1080 1.425 . S
C1085 C1082 1.409 . S
C1085 C1083 1.415 . S
C1086 H1076 0.930 . S
C1086 C1084 1.419 . S
C1086 C1087 1.362 . S
C1087 H1077 0.930 . S
C1087 C1080 1.409 . S
C1087 C1086 1.362 . S
H1088 C1094 0.930 . S
H1089 C1097 0.930 . S
H1090 C1098 0.930 . S
H1091 C1099 0.930 . S
H1092 C1102 0.930 . S
H1093 C1103 0.930 . S
C1094 H1088 0.930 . S
C1094 C1095 1.355 . S
C1094 C1096 1.415 . S
C1095 C1094 1.355 . S
C1095 C1097 1.419 . S
C1096 C1094 1.415 . S
C1096 C1101 1.425 . S
C1096 C1103 1.409 . S
C1097 H1089 0.930 . S
C1097 C1095 1.419 . S
C1097 C1098 1.362 . S
C1098 H1090 0.930 . S
C1098 C1097 1.362 . S
C1098 C1101 1.409 . S
C1099 H1091 0.930 . S
C1099 C1100 1.355 . S
C1099 C1101 1.415 . S
C1100 C1099 1.355 . S
C1100 C1102 1.419 . S
C1101 C1096 1.425 . S
C1101 C1098 1.409 . S
C1101 C1099 1.415 . S
C1102 H1092 0.930 . S
C1102 C1100 1.419 . S
C1102 C1103 1.362 . S
C1103 H1093 0.930 . S
C1103 C1096 1.409 . S
C1103 C1102 1.362 . S
H1104 C1110 0.930 . S
H1105 C1113 0.930 . S
H1106 C1114 0.930 . S
H1107 C1115 0.930 . S
H1108 C1118 0.930 1_455 S
H1109 C1119 0.930 . S
C1110 H1104 0.930 . S
C1110 C1111 1.355 . S
C1110 C1112 1.415 . S
C1111 C1110 1.355 . S
C1111 C1113 1.419 . S
C1112 C1110 1.415 . S
C1112 C1117 1.425 . S
C1112 C1119 1.409 . S
C1113 H1105 0.930 . S
C1113 C1111 1.419 . S
C1113 C1114 1.362 . S
C1114 H1106 0.930 . S
C1114 C1113 1.362 . S
C1114 C1117 1.409 . S
C1115 H1107 0.930 . S
C1115 C1116 1.355 . S
C1115 C1117 1.415 1_455 S
C1116 C1115 1.355 . S
C1116 C1118 1.419 1_455 S
C1117 C1112 1.425 . S
C1117 C1114 1.409 . S
C1117 C1115 1.415 1_655 S
C1118 H1108 0.930 1_655 S
C1118 C1116 1.419 1_655 S
C1118 C1119 1.362 . S
C1119 H1109 0.930 . S
C1119 C1112 1.409 . S
C1119 C1118 1.362 . S
H1120 C1126 0.930 . S
H1121 C1129 0.930 . S
H1122 C1130 0.930 . S
H1123 C1131 0.930 . S
H1124 C1134 0.930 . S
H1125 C1135 0.930 . S
C1126 H1120 0.930 . S
C1126 C1127 1.355 . S
C1126 C1128 1.415 . S
C1127 C1126 1.355 . S
C1127 C1129 1.419 . S
C1128 C1126 1.415 . S
C1128 C1133 1.425 . S
C1128 C1135 1.409 . S
C1129 H1121 0.930 . S
C1129 C1127 1.419 . S
C1129 C1130 1.362 . S
C1130 H1122 0.930 . S
C1130 C1129 1.362 . S
C1130 C1133 1.409 . S
C1131 H1123 0.930 . S
C1131 C1132 1.355 . S
C1131 C1133 1.415 . S
C1132 C1131 1.355 . S
C1132 C1134 1.419 . S
C1133 C1128 1.425 . S
C1133 C1130 1.409 . S
C1133 C1131 1.415 . S
C1134 H1124 0.930 . S
C1134 C1132 1.419 . S
C1134 C1135 1.362 . S
C1135 H1125 0.930 . S
C1135 C1128 1.409 . S
C1135 C1134 1.362 . S
H1136 C1142 0.930 . S
H1137 C1145 0.930 . S
H1138 C1146 0.930 . S
H1139 C1147 0.930 1_545 S
H1140 C1150 0.930 . S
H1141 C1151 0.930 . S
C1142 H1136 0.930 . S
C1142 C1143 1.355 . S
C1142 C1144 1.415 . S
C1143 C1142 1.355 . S
C1143 C1145 1.419 . S
C1144 C1142 1.415 . S
C1144 C1149 1.425 . S
C1144 C1151 1.409 . S
C1145 H1137 0.930 . S
C1145 C1143 1.419 . S
C1145 C1146 1.362 . S
C1146 H1138 0.930 . S
C1146 C1145 1.362 . S
C1146 C1149 1.409 . S
C1147 H1139 0.930 1_565 S
C1147 C1148 1.355 1_655 S
C1147 C1149 1.415 . S
C1148 C1147 1.355 1_455 S
C1148 C1150 1.419 . S
C1149 C1144 1.425 . S
C1149 C1146 1.409 . S
C1149 C1147 1.415 . S
C1150 H1140 0.930 . S
C1150 C1148 1.419 . S
C1150 C1151 1.362 1_455 S
C1151 H1141 0.930 . S
C1151 C1144 1.409 . S
C1151 C1150 1.362 1_655 S
H1152 C1158 0.930 . S
H1153 C1161 0.930 . S
H1154 C1162 0.930 . S
H1155 C1163 0.930 . S
H1156 C1166 0.930 . S
H1157 C1167 0.930 . S
C1158 H1152 0.930 . S
C1158 C1159 1.355 . S
C1158 C1160 1.415 . S
C1159 C1158 1.355 . S
C1159 C1161 1.419 . S
C1160 C1158 1.415 . S
C1160 C1165 1.425 . S
C1160 C1167 1.409 . S
C1161 H1153 0.930 . S
C1161 C1159 1.419 . S
C1161 C1162 1.362 . S
C1162 H1154 0.930 . S
C1162 C1161 1.362 . S
C1162 C1165 1.409 . S
C1163 H1155 0.930 . S
C1163 C1164 1.355 . S
C1163 C1165 1.415 . S
C1164 C1163 1.355 . S
C1164 C1166 1.419 . S
C1165 C1160 1.425 . S
C1165 C1162 1.409 . S
C1165 C1163 1.415 . S
C1166 H1156 0.930 . S
C1166 C1164 1.419 . S
C1166 C1167 1.362 . S
C1167 H1157 0.930 . S
C1167 C1160 1.409 . S
C1167 C1166 1.362 . S
H1168 C1174 0.930 . S
H1169 C1177 0.930 . S
H1170 C1178 0.930 . S
H1171 C1179 0.930 . S
H1172 C1182 0.930 . S
H1173 C1183 0.930 . S
C1174 H1168 0.930 . S
C1174 C1175 1.355 . S
C1174 C1176 1.415 . S
C1175 C1174 1.355 . S
C1175 C1177 1.419 . S
C1176 C1174 1.415 . S
C1176 C1181 1.425 . S
C1176 C1183 1.409 . S
C1177 H1169 0.930 . S
C1177 C1175 1.419 . S
C1177 C1178 1.362 . S
C1178 H1170 0.930 . S
C1178 C1177 1.362 . S
C1178 C1181 1.409 . S
C1179 H1171 0.930 . S
C1179 C1180 1.355 . S
C1179 C1181 1.415 . S
C1180 C1179 1.355 . S
C1180 C1182 1.419 . S
C1181 C1176 1.425 . S
C1181 C1178 1.409 . S
C1181 C1179 1.415 . S
C1182 H1172 0.930 . S
C1182 C1180 1.419 . S
C1182 C1183 1.362 . S
C1183 H1173 0.930 . S
C1183 C1176 1.409 . S
C1183 C1182 1.362 . S
H1184 C1190 0.930 . S
H1185 C1193 0.930 . S
H1186 C1194 0.930 . S
H1187 C1195 0.930 . S
H1188 C1198 0.930 . S
H1189 C1199 0.930 . S
C1190 H1184 0.930 . S
C1190 C1191 1.355 . S
C1190 C1192 1.415 . S
C1191 C1190 1.355 . S
C1191 C1193 1.419 . S
C1192 C1190 1.415 . S
C1192 C1197 1.425 . S
C1192 C1199 1.409 . S
C1193 H1185 0.930 . S
C1193 C1191 1.419 . S
C1193 C1194 1.362 . S
C1194 H1186 0.930 . S
C1194 C1193 1.362 . S
C1194 C1197 1.409 . S
C1195 H1187 0.930 . S
C1195 C1196 1.355 . S
C1195 C1197 1.415 . S
C1196 C1195 1.355 . S
C1196 C1198 1.419 . S
C1197 C1192 1.425 . S
C1197 C1194 1.409 . S
C1197 C1195 1.415 . S
C1198 H1188 0.930 . S
C1198 C1196 1.419 . S
C1198 C1199 1.362 . S
C1199 H1189 0.930 . S
C1199 C1192 1.409 . S
C1199 C1198 1.362 . S
H1200 C1206 0.930 . S
H1201 C1209 0.922 1_655 S
H1202 C1210 0.912 1_565 S
H1203 C1211 0.930 . S
H1204 C1214 0.930 . S
H1205 C1215 0.930 . S
C1206 H1200 0.930 . S
C1206 C1207 1.355 . S
C1206 C1208 1.415 1_655 S
C1207 C1206 1.355 . S
C1207 C1209 1.419 1_645 S
C1208 C1206 1.415 1_455 S
C1208 C1213 1.425 . S
C1208 C1215 1.409 . S
C1209 H1201 0.922 1_455 S
C1209 C1207 1.419 1_465 S
C1209 C1210 1.356 1_565 S
C1210 H1202 0.912 1_545 S
C1210 C1209 1.356 1_545 S
C1210 C1213 1.434 . S
C1211 H1203 0.930 . S
C1211 C1212 1.355 . S
C1211 C1213 1.415 . S
C1212 C1211 1.355 . S
C1212 C1214 1.419 . S
C1213 C1208 1.425 . S
C1213 C1210 1.434 . S
C1213 C1211 1.415 . S
C1214 H1204 0.930 . S
C1214 C1212 1.419 . S
C1214 C1215 1.362 . S
C1215 H1205 0.930 . S
C1215 C1208 1.409 . S
C1215 C1214 1.362 . S
H1216 C1222 0.930 . S
H1217 C1225 0.930 . S
H1218 C1226 0.930 . S
H1219 C1227 0.930 . S
H1220 C1230 0.930 . S
H1221 C1231 0.930 . S
C1222 H1216 0.930 . S
C1222 C1223 1.355 . S
C1222 C1224 1.415 . S
C1223 C1222 1.355 . S
C1223 C1225 1.419 . S
C1224 C1222 1.415 . S
C1224 C1229 1.425 . S
C1224 C1231 1.409 . S
C1225 H1217 0.930 . S
C1225 C1223 1.419 . S
C1225 C1226 1.362 . S
C1226 H1218 0.930 . S
C1226 C1225 1.362 . S
C1226 C1229 1.409 . S
C1227 H1219 0.930 . S
C1227 C1228 1.355 . S
C1227 C1229 1.415 . S
C1228 C1227 1.355 . S
C1228 C1230 1.419 . S
C1229 C1224 1.425 . S
C1229 C1226 1.409 . S
C1229 C1227 1.415 . S
C1230 H1220 0.930 . S
C1230 C1228 1.419 . S
C1230 C1231 1.362 . S
C1231 H1221 0.930 . S
C1231 C1224 1.409 . S
C1231 C1230 1.362 . S
H1232 C1238 0.930 . S
H1233 C1241 0.930 . S
H1234 C1242 0.930 . S
H1235 C1243 0.930 . S
H1236 C1246 0.930 . S
H1237 C1247 0.930 . S
C1238 H1232 0.930 . S
C1238 C1239 1.355 . S
C1238 C1240 1.415 . S
C1239 C1238 1.355 . S
C1239 C1241 1.419 . S
C1240 C1238 1.415 . S
C1240 C1245 1.425 . S
C1240 C1247 1.409 . S
C1241 H1233 0.930 . S
C1241 C1239 1.419 . S
C1241 C1242 1.362 . S
C1242 H1234 0.930 . S
C1242 C1241 1.362 . S
C1242 C1245 1.409 . S
C1243 H1235 0.930 . S
C1243 C1244 1.355 . S
C1243 C1245 1.415 . S
C1244 C1243 1.355 . S
C1244 C1246 1.419 . S
C1245 C1240 1.425 . S
C1245 C1242 1.409 . S
C1245 C1243 1.415 . S
C1246 H1236 0.930 . S
C1246 C1244 1.419 . S
C1246 C1247 1.362 . S
C1247 H1237 0.930 . S
C1247 C1240 1.409 . S
C1247 C1246 1.362 . S
C487 C27 1.086 . S
C492 C376 1.086 . S
C503 C166 1.056 . S
C508 C57 1.056 . S
C519 C87 1.081 . S
C524 C436 1.081 . S
C535 C117 1.010 . S
C540 C226 1.010 . S
C551 C136 1.095 . S
C556 C267 1.095 . S
C567 C327 1.032 . S
C572 C196 1.032 . S
C583 C406 1.011 . S
C588 C297 1.011 . S
C599 C357 1.036 . S
C604 C466 1.036 . S
C615 C271 1.606 . S
C620 C16 1.533 . S
C631 C46 1.527 . S
C636 C301 1.589 . S
C647 C76 1.590 . S
C652 C331 1.562 . S
C663 C241 1.602 . S
C668 C106 1.524 . S
C679 C400 1.555 . S
C684 C147 1.583 . S
C695 C430 1.555 . S
C700 C177 1.578 . S
C711 C207 1.587 . S
C716 C460 1.557 . S
C727 C370 1.576 . S
C732 C237 1.538 . S
C743 C256 1.583 . S
C748 C31 1.555 . S
C759 C286 1.523 . S
C764 C61 1.599 . S
C775 C316 1.587 . S
C780 C91 1.557 . S
C791 C1 1.557 . S
C796 C346 1.588 . S
C807 C160 1.561 . S
C812 C387 1.560 . S
C823 C417 1.524 . S
C828 C190 1.593 . S
C839 C220 1.574 . S
C844 C447 1.541 . S
C855 C477 1.558 . S
C860 C130 1.562 . S
C871 N14 1.292 . S
C876 N314 1.278 . S
C887 N44 1.318 . S
C892 N344 1.279 . S
C903 N254 1.294 . S
C908 N74 1.277 . S
C919 N104 1.293 . S
C924 N284 1.278 . S
C935 N126 1.277 . S
C940 N426 1.295 . S
C951 N156 1.276 . S
C956 N456 1.309 . S
C967 N366 1.277 . S
C972 N186 1.312 . S
C983 N216 1.283 . S
C988 N396 1.285 . S
C999 C10 1.150 . S
C1004 N224 1.200 . S
C1015 N374 1.232 . S
C1020 C40 1.186 . S
C1031 C70 1.148 . S
C1036 N164 1.195 . S
C1047 C100 1.220 . S
C1052 N434 1.246 . S
C1063 C121 1.163 . S
C1068 N96 1.216 . S
C1079 N246 1.247 . S
C1084 C151 1.233 . S
C1095 C181 1.233 . S
C1100 N36 1.247 . S
C1111 N306 1.238 . S
C1116 C211 1.198 . S
C1127 C250 1.220 . S
C1132 N464 1.217 . S
C1143 N134 1.189 . S
C1148 C280 1.171 . S
C1159 N404 1.246 . S
C1164 C310 1.234 . S
C1175 C340 1.152 . S
C1180 N194 1.203 . S
C1191 C361 1.235 . S
C1196 N336 1.246 . S
C1207 C391 1.193 . S
C1212 N6 1.236 . S
C1223 N276 1.210 . S
C1228 C421 1.157 . S
C1239 N66 1.232 . S
C1244 C451 1.234 . S
