# Generated by pormake.
# Topology wjg, (4)-cn, num edge types: 1
# Building blocks:
#     Node 0, Type 0, BuildingBlock: CEKHIL_clean_sbu_0, # of connection points: 4
#     Node 1, Type 0, BuildingBlock: CEKHIL_clean_sbu_0, # of connection points: 4
#     Node 2, Type 0, BuildingBlock: CEKHIL_clean_sbu_0, # of connection points: 4
#     Node 3, Type 0, BuildingBlock: CEKHIL_clean_sbu_0, # of connection points: 4
#     Node 4, Type 0, BuildingBlock: CEKHIL_clean_sbu_0, # of connection points: 4
#     Node 5, Type 0, BuildingBlock: CEKHIL_clean_sbu_0, # of connection points: 4
#     Node 6, Type 0, BuildingBlock: CEKHIL_clean_sbu_0, # of connection points: 4
#     Node 7, Type 0, BuildingBlock: CEKHIL_clean_sbu_0, # of connection points: 4
#     Node 8, Type 0, BuildingBlock: CEKHIL_clean_sbu_0, # of connection points: 4
#     Node 9, Type 0, BuildingBlock: CEKHIL_clean_sbu_0, # of connection points: 4
#     Node 10, Type 0, BuildingBlock: CEKHIL_clean_sbu_0, # of connection points: 4
#     Node 11, Type 0, BuildingBlock: CEKHIL_clean_sbu_0, # of connection points: 4
#     Edge 12, Type (0, 0), BuildingBlock: KIFKEQ_clean_linker_1, # of connection points: 2
#     Edge 13, Type (0, 0), BuildingBlock: KIFKEQ_clean_linker_1, # of connection points: 2
#     Edge 14, Type (0, 0), BuildingBlock: KIFKEQ_clean_linker_1, # of connection points: 2
#     Edge 15, Type (0, 0), BuildingBlock: KIFKEQ_clean_linker_1, # of connection points: 2
#     Edge 16, Type (0, 0), BuildingBlock: KIFKEQ_clean_linker_1, # of connection points: 2
#     Edge 17, Type (0, 0), BuildingBlock: KIFKEQ_clean_linker_1, # of connection points: 2
#     Edge 18, Type (0, 0), BuildingBlock: KIFKEQ_clean_linker_1, # of connection points: 2
#     Edge 19, Type (0, 0), BuildingBlock: KIFKEQ_clean_linker_1, # of connection points: 2
#     Edge 20, Type (0, 0), BuildingBlock: KIFKEQ_clean_linker_1, # of connection points: 2
#     Edge 21, Type (0, 0), BuildingBlock: KIFKEQ_clean_linker_1, # of connection points: 2
#     Edge 22, Type (0, 0), BuildingBlock: KIFKEQ_clean_linker_1, # of connection points: 2
#     Edge 23, Type (0, 0), BuildingBlock: KIFKEQ_clean_linker_1, # of connection points: 2
#     Edge 24, Type (0, 0), BuildingBlock: KIFKEQ_clean_linker_1, # of connection points: 2
#     Edge 25, Type (0, 0), BuildingBlock: KIFKEQ_clean_linker_1, # of connection points: 2
#     Edge 26, Type (0, 0), BuildingBlock: KIFKEQ_clean_linker_1, # of connection points: 2
#     Edge 27, Type (0, 0), BuildingBlock: KIFKEQ_clean_linker_1, # of connection points: 2
#     Edge 28, Type (0, 0), BuildingBlock: KIFKEQ_clean_linker_1, # of connection points: 2
#     Edge 29, Type (0, 0), BuildingBlock: KIFKEQ_clean_linker_1, # of connection points: 2
#     Edge 30, Type (0, 0), BuildingBlock: KIFKEQ_clean_linker_1, # of connection points: 2
#     Edge 31, Type (0, 0), BuildingBlock: KIFKEQ_clean_linker_1, # of connection points: 2
#     Edge 32, Type (0, 0), BuildingBlock: KIFKEQ_clean_linker_1, # of connection points: 2
#     Edge 33, Type (0, 0), BuildingBlock: KIFKEQ_clean_linker_1, # of connection points: 2
#     Edge 34, Type (0, 0), BuildingBlock: KIFKEQ_clean_linker_1, # of connection points: 2
#     Edge 35, Type (0, 0), BuildingBlock: KIFKEQ_clean_linker_1, # of connection points: 2
# Relax obj value: 0.334
# Max RMSD: 0.121
# Mean RMSD: 0.111
data_MOF--net-wjg--node1-CEKHIL_clean_sbu_0--edge1-KIFKEQ_clean_linker_1
_symmetry_space_group_name_H-M    P1
_symmetry_Int_Tables_number       1
_symmetry_cell_setting            triclinic
loop_
_symmetry_equiv_pos_as_xyz
'x, y, z'
_cell_length_a     31.314102
_cell_length_b     31.180544
_cell_length_c     40.761894
_cell_angle_alpha  89.858428
_cell_angle_beta   90.082709
_cell_angle_gamma 120.1317
loop_
_atom_site_label
_atom_site_type_symbol
_atom_site_fract_x
_atom_site_fract_y
_atom_site_fract_z
_atom_type_partial_charge
Co0 Co 0.14289 0.38569 0.30671 0.0
O1 O 0.12059 0.38753 0.2636 0.0
O2 O 0.07041 0.34964 0.30532 0.0
C3 C 0.20018 0.46648 0.3079 0.0
O4 O 0.15881 0.38004 0.35519 0.0
Co5 Co 0.25253 0.40953 0.30811 0.0
O6 O 0.24021 0.40402 0.35613 0.0
C7 C 0.17453 0.31098 0.28793 0.0
C8 C 0.07601 0.36189 0.27428 0.0
C9 C 0.19893 0.38932 0.37054 0.0
O10 O 0.14203 0.32222 0.29671 0.0
O11 O 0.22075 0.34272 0.28656 0.0
O12 O 0.15473 0.45262 0.31527 0.0
O13 O 0.20744 0.43208 0.29671 0.0
Co14 Co 0.73062 0.14606 0.65454 0.0
O15 O 0.72773 0.13543 0.6082 0.0
O16 O 0.68739 0.07547 0.6443 0.0
C17 C 0.7201 0.21204 0.65048 0.0
O18 O 0.72658 0.14832 0.70526 0.0
Co19 Co 0.8166 0.24782 0.67983 0.0
O20 O 0.77321 0.22941 0.71863 0.0
C21 C 0.83326 0.1633 0.66882 0.0
C22 C 0.69773 0.08904 0.61363 0.0
C23 C 0.74215 0.18464 0.72605 0.0
O24 O 0.78882 0.1355 0.65861 0.0
O25 O 0.85122 0.20872 0.67715 0.0
O26 O 0.68191 0.16765 0.6506 0.0
O27 O 0.7624 0.21452 0.6498 0.0
Co28 Co 0.52586 0.71799 0.97479 0.0
O29 O 0.53443 0.71333 0.92882 0.0
O30 O 0.58814 0.71928 0.96629 0.0
C31 C 0.44666 0.65598 0.97419 0.0
O32 O 0.52661 0.72503 0.0252 0.0
Co33 Co 0.44523 0.74445 0.99433 0.0
O34 O 0.45976 0.73067 0.03923 0.0
C35 C 0.54472 0.82315 0.97342 0.0
C36 C 0.57598 0.71599 0.93534 0.0
C37 C 0.49831 0.72875 0.04683 0.0
O38 O 0.56003 0.79197 0.9716 0.0
O39 O 0.49966 0.81067 0.97891 0.0
O40 O 0.48172 0.64565 0.97774 0.0
O41 O 0.46069 0.70195 0.96943 0.0
Co42 Co 0.86077 0.61474 0.32471 0.0
O43 O 0.87296 0.62212 0.27853 0.0
O44 O 0.93159 0.64279 0.31541 0.0
C45 C 0.79536 0.53752 0.32042 0.0
O46 O 0.85668 0.60944 0.37553 0.0
Co47 Co 0.75804 0.59807 0.34763 0.0
O48 O 0.77535 0.57347 0.38722 0.0
C49 C 0.84175 0.69976 0.33562 0.0
C50 C 0.91916 0.63953 0.2845 0.0
C51 C 0.81978 0.58853 0.39586 0.0
O52 O 0.8706 0.68357 0.32729 0.0
O53 O 0.79621 0.67191 0.34318 0.0
O54 O 0.83966 0.54405 0.32177 0.0
O55 O 0.79275 0.57737 0.31895 0.0
Co56 Co 0.24979 0.83063 0.65286 0.0
O57 O 0.26056 0.83908 0.60648 0.0
O58 O 0.29624 0.90046 0.6419 0.0
C59 C 0.25674 0.7624 0.65704 0.0
O60 O 0.24415 0.82984 0.7035 0.0
Co61 Co 0.15206 0.73229 0.67032 0.0
O62 O 0.17546 0.7564 0.71551 0.0
C63 C 0.14718 0.81685 0.64445 0.0
C64 C 0.28982 0.88578 0.61135 0.0
C65 C 0.2128 0.79755 0.72415 0.0
O66 O 0.19371 0.84444 0.64934 0.0
O67 O 0.1248 0.76951 0.64633 0.0
O68 O 0.29632 0.80587 0.65654 0.0
O69 O 0.21641 0.76221 0.65064 0.0
Co70 Co 0.44768 0.28083 0.98177 0.0
O71 O 0.44265 0.28486 0.93511 0.0
O72 O 0.38293 0.272 0.96931 0.0
C73 C 0.52344 0.34875 0.98448 0.0
O74 O 0.44323 0.27385 0.03239 0.0
Co75 Co 0.53459 0.26593 1.0057 0.0
O76 O 0.51322 0.27625 0.04931 0.0
C77 C 0.44203 0.18058 0.98152 0.0
C78 C 0.39862 0.2774 0.93907 0.0
C79 C 0.472 0.2737 0.05533 0.0
O80 O 0.42162 0.20743 0.97886 0.0
O81 O 0.48771 0.19805 0.98842 0.0
O82 O 0.48483 0.35388 0.98529 0.0
O83 O 0.51494 0.30443 0.97982 0.0
Co84 Co 0.58438 0.84532 0.35616 0.0
O85 O 0.59374 0.85016 0.40256 0.0
O86 O 0.61466 0.91488 0.37086 0.0
C87 C 0.50647 0.78183 0.35991 0.0
O88 O 0.57744 0.84853 0.30568 0.0
Co89 Co 0.56116 0.74361 0.32549 0.0
O90 O 0.53856 0.7686 0.28878 0.0
C91 C 0.66492 0.82366 0.33659 0.0
C92 C 0.61151 0.89726 0.40046 0.0
C93 C 0.55545 0.81459 0.28339 0.0
O94 O 0.65129 0.8524 0.34955 0.0
O95 O 0.63498 0.77941 0.32691 0.0
O96 O 0.51511 0.82698 0.36195 0.0
O97 O 0.54482 0.77691 0.35828 0.0
Co98 Co 0.76279 0.61231 0.70848 0.0
O99 O 0.74626 0.61673 0.75278 0.0
O100 O 0.72677 0.64869 0.71081 0.0
C101 C 0.73938 0.53145 0.71007 0.0
O102 O 0.77725 0.61235 0.65903 0.0
Co103 Co 0.84833 0.58824 0.70397 0.0
O104 O 0.83511 0.58904 0.65637 0.0
C105 C 0.87073 0.68826 0.72138 0.0
C106 C 0.72689 0.64226 0.74251 0.0
C107 C 0.80657 0.60202 0.6427 0.0
O108 O 0.82653 0.67657 0.71356 0.0
O109 O 0.88513 0.6565 0.72344 0.0
O110 O 0.70669 0.54458 0.70451 0.0
O111 O 0.7823 0.5669 0.71853 0.0
Co112 Co 0.17638 0.71961 0.03822 0.0
O113 O 0.16791 0.71518 0.08479 0.0
O114 O 0.12015 0.72762 0.05113 0.0
C115 C 0.18461 0.652 0.03533 0.0
O116 O 0.17836 0.72652 0.98762 0.0
Co117 Co 0.27842 0.73581 0.01424 0.0
O118 O 0.24585 0.72395 0.97081 0.0
C119 C 0.27 0.82085 0.03753 0.0
C120 C 0.13073 0.72174 0.08124 0.0
C121 C 0.20704 0.72627 0.96472 0.0
O122 O 0.223 0.7931 0.04114 0.0
O123 O 0.29874 0.80424 0.03014 0.0
O124 O 0.14083 0.64673 0.0346 0.0
O125 O 0.22042 0.69638 0.04004 0.0
Co126 Co 0.40139 0.15525 0.36565 0.0
O127 O 0.40167 0.14428 0.4118 0.0
O128 O 0.37602 0.08445 0.3753 0.0
C129 C 0.47812 0.2216 0.36408 0.0
O130 O 0.39886 0.15907 0.31498 0.0
Co131 Co 0.40844 0.25711 0.34978 0.0
O132 O 0.40962 0.23541 0.30422 0.0
C133 C 0.31462 0.17309 0.3714 0.0
C134 C 0.38428 0.09785 0.40609 0.0
C135 C 0.40329 0.19353 0.29487 0.0
O136 O 0.33233 0.14409 0.36802 0.0
O137 O 0.34117 0.2204 0.37018 0.0
O138 O 0.472 0.17726 0.36296 0.0
O139 O 0.43877 0.22348 0.37011 0.0
Co140 Co 0.23115 0.35932 0.68695 0.0
O141 O 0.2272 0.34607 0.73319 0.0
O142 O 0.27378 0.33233 0.69932 0.0
C143 C 0.24058 0.4356 0.69266 0.0
O144 O 0.24194 0.37023 0.63662 0.0
Co145 Co 0.14971 0.37752 0.65642 0.0
O146 O 0.19991 0.40847 0.62169 0.0
C147 C 0.13082 0.27498 0.66636 0.0
C148 C 0.25836 0.33095 0.72927 0.0
C149 C 0.23023 0.39371 0.61532 0.0
O150 O 0.17377 0.29048 0.67893 0.0
O151 O 0.11455 0.30348 0.65723 0.0
O152 O 0.27859 0.4296 0.69483 0.0
O153 O 0.19853 0.39537 0.69013 0.0
Co154 Co 0.80689 0.27678 0.03688 0.0
O155 O 0.81963 0.28199 0.08295 0.0
O156 O 0.86955 0.27913 0.04586 0.0
C157 C 0.78512 0.33562 0.03689 0.0
O158 O 0.80169 0.26967 0.98652 0.0
Co159 Co 0.69847 0.24426 0.01634 0.0
O160 O 0.72696 0.25794 0.97151 0.0
C161 C 0.72393 0.17051 0.04074 0.0
C162 C 0.85971 0.28146 0.07671 0.0
C163 C 0.76911 0.2634 0.96455 0.0
O164 O 0.77025 0.20276 0.04032 0.0
O165 O 0.68996 0.18117 0.03571 0.0
O166 O 0.83133 0.34858 0.03383 0.0
O167 O 0.75519 0.28914 0.04153 0.0
H168 H 0.29486 0.50414 0.28877 0.0
H169 H 0.19783 0.54216 0.3403 0.0
H170 H 0.36514 0.58419 0.3029 0.0
H171 H 0.26916 0.62293 0.35483 0.0
H172 H 0.47962 0.68703 0.37263 0.0
H173 H 0.40101 0.61351 0.3605 0.0
H174 H 0.34251 0.70532 0.32698 0.0
H175 H 0.42191 0.7799 0.33974 0.0
C176 C 0.28855 0.52976 0.30299 0.0
C177 C 0.24119 0.51678 0.31395 0.0
C178 C 0.32873 0.57548 0.31109 0.0
C179 C 0.32238 0.60901 0.33043 0.0
C180 C 0.27473 0.5974 0.33997 0.0
C181 C 0.2342 0.55133 0.33178 0.0
C182 C 0.44987 0.69162 0.36301 0.0
C183 C 0.45681 0.73883 0.35655 0.0
C184 C 0.40502 0.64964 0.35605 0.0
C185 C 0.3664 0.65406 0.34219 0.0
C186 C 0.37203 0.70127 0.33758 0.0
C187 C 0.41722 0.74367 0.34481 0.0
H188 H 0.64086 0.21816 0.67291 0.0
H189 H 0.7916 0.30647 0.63948 0.0
H190 H 0.64055 0.29416 0.68803 0.0
H191 H 0.79097 0.38169 0.65386 0.0
H192 H 0.65828 0.45434 0.68113 0.0
H193 H 0.64845 0.37417 0.66492 0.0
H194 H 0.78992 0.41589 0.70842 0.0
H195 H 0.80008 0.49561 0.72403 0.0
C196 C 0.67349 0.25378 0.66828 0.0
C197 C 0.71651 0.25669 0.65551 0.0
C198 C 0.67329 0.29709 0.67688 0.0
C199 C 0.71609 0.34356 0.67271 0.0
C200 C 0.75793 0.34623 0.65813 0.0
C201 C 0.75821 0.30324 0.64976 0.0
C202 C 0.68694 0.44599 0.68745 0.0
C203 C 0.73025 0.48127 0.70341 0.0
C204 C 0.68125 0.40022 0.67826 0.0
C205 C 0.71886 0.3894 0.6849 0.0
C206 C 0.76092 0.42384 0.70229 0.0
C207 C 0.76662 0.46936 0.71137 0.0
H208 H 0.39968 0.57775 0.01677 0.0
H209 H 0.37541 0.65242 0.93593 0.0
H210 H 0.31147 0.53645 0.03025 0.0
H211 H 0.28862 0.61216 0.94894 0.0
H212 H 0.15784 0.59056 0.98244 0.0
H213 H 0.2046 0.55189 0.96315 0.0
H214 H 0.28308 0.58779 0.05555 0.0
H215 H 0.23644 0.62557 0.0743 0.0
C216 C 0.37505 0.58349 1.00105 0.0
C217 C 0.39396 0.61912 0.97601 0.0
C218 C 0.32464 0.55988 0.00867 0.0
C219 C 0.29311 0.57196 0.99128 0.0
C220 C 0.31139 0.60179 0.96305 0.0
C221 C 0.36147 0.62559 0.95576 0.0
C222 C 0.18308 0.58736 0.99913 0.0
C223 C 0.19474 0.61175 0.02942 0.0
C224 C 0.20993 0.56537 0.98814 0.0
C225 C 0.24889 0.56841 0.00731 0.0
C226 C 0.25383 0.58501 0.03989 0.0
C227 C 0.22738 0.60719 0.05067 0.0
H228 H 0.56264 0.22688 0.34134 0.0
H229 H 0.50096 0.31712 0.37175 0.0
H230 H 0.64081 0.30181 0.32851 0.0
H231 H 0.57906 0.39163 0.36008 0.0
H232 H 0.70244 0.51405 0.3045 0.0
H233 H 0.62671 0.43582 0.31337 0.0
H234 H 0.71101 0.37293 0.35379 0.0
H235 H 0.78743 0.45132 0.34364 0.0
C236 C 0.56598 0.26274 0.34549 0.0
C237 C 0.52581 0.26635 0.35734 0.0
C238 C 0.61072 0.30557 0.3383 0.0
C239 C 0.61599 0.35264 0.34299 0.0
C240 C 0.5759 0.35595 0.35545 0.0
C241 C 0.53122 0.31328 0.36237 0.0
C242 C 0.70482 0.48338 0.31505 0.0
C243 C 0.7506 0.48869 0.32365 0.0
C244 C 0.66143 0.43867 0.32033 0.0
C245 C 0.66277 0.39844 0.33483 0.0
C246 C 0.7088 0.40319 0.34244 0.0
C247 C 0.75248 0.448 0.33675 0.0
H248 H 0.18209 0.67847 0.68355 0.0
H249 H 0.33287 0.74426 0.65026 0.0
H250 H 0.18095 0.60183 0.69596 0.0
H251 H 0.33102 0.66609 0.66058 0.0
H252 H 0.32205 0.52652 0.704 0.0
H253 H 0.32824 0.60762 0.6988 0.0
H254 H 0.17582 0.53566 0.66716 0.0
H255 H 0.16908 0.45561 0.67439 0.0
C256 C 0.21491 0.6763 0.67864 0.0
C257 C 0.25736 0.71694 0.66562 0.0
C258 C 0.21423 0.63221 0.68553 0.0
C259 C 0.25555 0.62724 0.67866 0.0
C260 C 0.29863 0.66858 0.66643 0.0
C261 C 0.29965 0.71325 0.66028 0.0
C262 C 0.28992 0.52833 0.69618 0.0
C263 C 0.24508 0.4848 0.68966 0.0
C264 C 0.2935 0.57474 0.69298 0.0
C265 C 0.25244 0.57835 0.68277 0.0
C266 C 0.20789 0.53454 0.67594 0.0
C267 C 0.20412 0.48842 0.67974 0.0
H268 H 0.81327 0.41624 0.99664 0.0
H269 H 0.71439 0.33222 0.07537 0.0
H270 H 0.76492 0.45727 0.98657 0.0
H271 H 0.66653 0.37211 0.06571 0.0
H272 H 0.56004 0.40282 0.04026 0.0
H273 H 0.64538 0.43574 0.05834 0.0
H274 H 0.68441 0.4124 0.96098 0.0
H275 H 0.60006 0.38074 0.94331 0.0
C276 C 0.78242 0.4081 0.01256 0.0
C277 C 0.76652 0.37041 0.03617 0.0
C278 C 0.75478 0.43151 1.00688 0.0
C279 C 0.71129 0.41749 0.02493 0.0
C280 C 0.69974 0.38435 0.05134 0.0
C281 C 0.7268 0.36076 0.05665 0.0
C282 C 0.58778 0.40794 0.02237 0.0
C283 C 0.5739 0.38873 0.99064 0.0
C284 C 0.63658 0.42644 0.0327 0.0
C285 C 0.67128 0.42484 0.01146 0.0
C286 C 0.65885 0.41388 0.97817 0.0
C287 C 0.61028 0.39542 0.96795 0.0
H288 H 0.09832 0.23555 0.32113 0.0
H289 H 0.21964 0.26738 0.25619 0.0
H290 H 0.10121 0.16431 0.34287 0.0
H291 H 0.22133 0.19534 0.27714 0.0
H292 H 0.25598 0.1031 0.32762 0.0
H293 H 0.18743 0.10419 0.30003 0.0
H294 H 0.1851 0.19913 0.37605 0.0
H295 H 0.25478 0.19974 0.40272 0.0
C296 C 0.12354 0.22563 0.30996 0.0
C297 C 0.16017 0.25809 0.28788 0.0
C298 C 0.12497 0.1846 0.32244 0.0
C299 C 0.16226 0.17514 0.31234 0.0
C300 C 0.19227 0.20186 0.28556 0.0
C301 C 0.1916 0.24348 0.27363 0.0
C302 C 0.23875 0.12157 0.33956 0.0
C303 C 0.26128 0.15243 0.36681 0.0
C304 C 0.19946 0.12216 0.32367 0.0
C305 C 0.18179 0.1526 0.33548 0.0
C306 C 0.19804 0.17536 0.3663 0.0
C307 C 0.23813 0.1759 0.38165 0.0
H308 H 0.84671 0.1029 0.62627 0.0
H309 H 0.89251 0.17612 0.71994 0.0
H310 H 0.91751 0.08953 0.62659 0.0
H311 H 0.96237 0.16372 0.72052 0.0
H312 H 0.1016 0.20455 0.71435 0.0
H313 H 0.01783 0.13352 0.71676 0.0
H314 H -0.00317 0.15695 0.61481 0.0
H315 H 0.08011 0.226 0.61251 0.0
C316 C 0.87099 0.11453 0.64739 0.0
C317 C 0.86583 0.14237 0.67242 0.0
C318 C 0.91138 0.10678 0.6477 0.0
C319 C 0.94692 0.12707 0.67296 0.0
C320 C 0.93658 0.14779 0.70036 0.0
C321 C 0.8968 0.15583 0.69987 0.0
C322 C 0.07996 0.19227 0.69202 0.0
C323 C 0.09591 0.22164 0.66365 0.0
C324 C 0.03183 0.15171 0.69335 0.0
C325 C -0.00059 0.1419 0.6667 0.0
C326 C 0.01981 0.16422 0.63629 0.0
C327 C 0.06776 0.20434 0.63491 0.0
H328 H 0.63804 0.09329 0.06306 0.0
H329 H 0.77542 0.12896 0.01572 0.0
H330 H 0.60191 0.00777 0.04466 0.0
H331 H 0.73873 0.04325 0.9968 0.0
H332 H 0.5306 0.90127 0.96301 0.0
H333 H 0.58248 0.98489 0.98382 0.0
H334 H 0.69361 0.94873 0.01218 0.0
H335 H 0.6418 0.86467 0.99104 0.0
C336 C 0.66091 0.08242 0.04962 0.0
C337 C 0.70904 0.11775 0.04023 0.0
C338 C 0.64018 0.03375 0.03882 0.0
C339 C 0.66713 0.01982 0.0183 0.0
C340 C 0.71715 0.05348 0.01225 0.0
C341 C 0.73813 0.10234 0.02329 0.0
C342 C 0.56662 0.91144 0.97286 0.0
C343 C 0.5817 0.87622 0.97595 0.0
C344 C 0.59602 0.95905 0.98511 0.0
C345 C 0.64098 0.97227 1.0007 0.0
C346 C 0.65866 0.93894 1.0007 0.0
C347 C 0.62916 0.89107 0.98833 0.0
H348 H 0.74276 0.88301 0.377 0.0
H349 H 0.70602 0.80641 0.28422 0.0
H350 H 0.82529 0.89257 0.37422 0.0
H351 H 0.7865 0.81477 0.28139 0.0
H352 H 0.88018 0.76706 0.28568 0.0
H353 H 0.87113 0.84041 0.28292 0.0
H354 H 0.83361 0.82315 0.38606 0.0
H355 H 0.8441 0.75175 0.38858 0.0
C356 C 0.75297 0.86971 0.35556 0.0
C357 C 0.71773 0.84195 0.33156 0.0
C358 C 0.8002 0.87531 0.35384 0.0
C359 C 0.8122 0.85278 0.32826 0.0
C360 C 0.77911 0.83227 0.30177 0.0
C361 C 0.73224 0.82649 0.30361 0.0
C362 C 0.87303 0.78109 0.30805 0.0
C363 C 0.86074 0.75318 0.33702 0.0
C364 C 0.86768 0.82299 0.30656 0.0
C365 C 0.84817 0.83552 0.33368 0.0
C366 C 0.84704 0.81394 0.36427 0.0
C367 C 0.85264 0.77247 0.3658 0.0
H368 H 0.06326 0.79112 0.61001 0.0
H369 H 0.15944 0.89148 0.68439 0.0
H370 H -0.00542 0.79642 0.6328 0.0
H371 H 0.09005 0.89523 0.70814 0.0
H372 H 0.95873 0.73419 0.75385 0.0
H373 H 0.03245 0.80607 0.73293 0.0
H374 H 0.94437 0.83191 0.66275 0.0
H375 H 0.87013 0.7608 0.68452 0.0
C376 C 0.0703 0.8167 0.63 0.0
C377 C 0.11601 0.83963 0.64607 0.0
C378 C 0.03097 0.82004 0.64308 0.0
C379 C 0.03679 0.84499 0.67294 0.0
C380 C 0.08461 0.87541 0.68531 0.0
C381 C 0.12431 0.87311 0.67167 0.0
C382 C 0.95477 0.75695 0.73533 0.0
C383 C 0.90915 0.74102 0.72003 0.0
C384 C -0.00299 0.79854 0.72344 0.0
C385 C -0.00586 0.82369 0.69554 0.0
C386 C 0.94751 0.8129 0.68409 0.0
C387 C 0.90504 0.77192 0.69653 0.0
H388 H 0.46673 0.11078 0.96642 0.0
H389 H 0.3463 0.12831 1.00154 0.0
H390 H 0.42151 0.02359 0.98189 0.0
H391 H 0.30192 0.0417 0.01843 0.0
H392 H 0.22202 0.87045 0.02115 0.0
H393 H 0.25988 0.95667 1.00398 0.0
H394 H 0.4031 0.97993 0.03237 0.0
H395 H 0.36539 0.89311 0.04813 0.0
C396 C 0.43019 0.0957 0.97694 0.0
C397 C 0.41011 0.12629 0.98288 0.0
C398 C 0.40459 0.04598 0.98632 0.0
C399 C 0.35875 0.02602 1.00237 0.0
C400 C 0.33715 0.05582 1.00619 0.0
C401 C 0.36248 0.10544 0.99631 0.0
C402 C 0.26145 0.89431 0.02449 0.0
C403 C 0.29084 0.87498 0.03576 0.0
C404 C 0.2832 0.94374 0.01446 0.0
C405 C 0.3347 0.97491 0.01594 0.0
C406 C 0.36352 0.95646 0.02975 0.0
C407 C 0.34188 0.90693 0.0393 0.0
H408 H 0.82836 0.24087 0.13651 0.0
H409 H 0.96111 0.32779 0.08 0.0
H410 H 0.8772 0.25657 0.18622 0.0
H411 H 0.01054 0.34359 0.13008 0.0
H412 H 0.07155 0.42019 0.22772 0.0
H413 H 0.01964 0.39456 0.17906 0.0
H414 H 0.93982 0.24454 0.2162 0.0
H415 H 0.99234 0.27079 0.26553 0.0
C416 C 0.86823 0.26259 0.13467 0.0
C417 C 0.89104 0.28344 0.10446 0.0
C418 C 0.89617 0.27141 0.16317 0.0
C419 C 0.94762 0.30188 0.16224 0.0
C420 C 0.97077 0.32052 0.13164 0.0
C421 C 0.94269 0.31111 0.10291 0.0
C422 C 0.04214 0.38191 0.22585 0.0
C423 C 0.03563 0.3475 0.25045 0.0
C424 C 0.01299 0.36707 0.1977 0.0
C425 C 0.97655 0.31728 0.1933 0.0
C426 C 0.96787 0.28318 0.21883 0.0
C427 C -0.00266 0.2982 0.24724 0.0
H428 H 0.69115 -0.00122 0.60345 0.0
H429 H 0.66102 0.10618 0.5587 0.0
H430 H 0.67295 0.95407 0.55132 0.0
H431 H 0.64037 0.06076 0.50722 0.0
H432 H 0.65599 -0.00067 0.40921 0.0
H433 H 0.67525 0.04385 0.46164 0.0
H434 H 0.61285 0.90426 0.51371 0.0
H435 H 0.59601 0.86092 0.46228 0.0
C436 C 0.67901 0.01178 0.58274 0.0
C437 C 0.67698 0.05553 0.58515 0.0
C438 C 0.66878 0.98643 0.55271 0.0
C439 C 0.65559 0.00395 0.5246 0.0
C440 C 0.65162 0.04668 0.52778 0.0
C441 C 0.66264 0.0723 0.55751 0.0
C442 C 0.64678 0.97845 0.43192 0.0
C443 C 0.62459 0.92661 0.43135 0.0
C444 C 0.65742 0.0038 0.46207 0.0
C445 C 0.64566 0.97777 0.49226 0.0
C446 C 0.62349 0.92597 0.49134 0.0
C447 C 0.61342 0.90095 0.46151 0.0
H448 H 0.57615 0.74601 0.87321 0.0
H449 H 0.6428 0.68294 0.93487 0.0
H450 H 0.61621 0.73589 0.82531 0.0
H451 H 0.68193 0.67095 0.88648 0.0
H452 H 0.77338 0.68481 0.79859 0.0
H453 H 0.74221 0.70947 0.84504 0.0
H454 H 0.60976 0.67236 0.79022 0.0
H455 H 0.64246 0.6493 0.74298 0.0
C456 C 0.59968 0.73008 0.87652 0.0
C457 C 0.60625 0.71507 0.90781 0.0
C458 C 0.62231 0.72388 0.84892 0.0
C459 C 0.65185 0.70199 0.85174 0.0
C460 C 0.65984 0.68847 0.88332 0.0
C461 C 0.63749 0.69525 0.91114 0.0
C462 C 0.73794 0.68283 0.79626 0.0
C463 C 0.71023 0.66516 0.76724 0.0
C464 C 0.71981 0.69642 0.82307 0.0
C465 C 0.67303 0.69209 0.82181 0.0
C466 C 0.64616 0.67655 0.79209 0.0
C467 C 0.66476 0.66344 0.76492 0.0
H468 H 0.15966 0.72802 0.14447 0.0
H469 H 0.03728 0.71055 0.08552 0.0
H470 H 0.11113 0.71213 0.1938 0.0
H471 H 0.98854 0.6963 0.13562 0.0
H472 H 0.89645 0.60494 0.22266 0.0
H473 H 0.94816 0.63157 0.17427 0.0
H474 H 0.0718 0.73623 0.23295 0.0
H475 H 0.01948 0.70785 0.28216 0.0
C476 C 0.12244 0.72159 0.14204 0.0
C477 C 0.10213 0.7199 0.11086 0.0
C478 C 0.09464 0.71286 0.17059 0.0
C479 C 0.04553 0.70228 0.16898 0.0
C480 C 0.02594 0.70326 0.13786 0.0
C481 C 0.05395 0.71195 0.10909 0.0
C482 C 0.93477 0.63359 0.22539 0.0
C483 C 0.95385 0.65428 0.25635 0.0
C484 C 0.96438 0.64936 0.1974 0.0
C485 C 0.01414 0.6868 0.19928 0.0
C486 C 0.03367 0.70712 0.23044 0.0
C487 C 0.00386 0.69084 0.25874 0.0
H488 H 0.31954 -0.0035 0.41144 0.0
H489 H 0.4281 0.12372 0.46546 0.0
H490 H 0.29952 0.94619 0.46158 0.0
H491 H 0.40956 0.07395 0.51474 0.0
H492 H 0.32482 0.98652 0.60629 0.0
H493 H 0.34878 0.03621 0.55588 0.0
H494 H 0.32708 0.90871 0.50057 0.0
H495 H 0.302 0.85933 0.55041 0.0
C496 C 0.33971 0.01344 0.43378 0.0
C497 C 0.37515 0.06412 0.43442 0.0
C498 C 0.32834 0.98474 0.46261 0.0
C499 C 0.35249 0.00605 0.49259 0.0
C500 C 0.38917 0.05633 0.4926 0.0
C501 C 0.40013 0.08484 0.46408 0.0
C502 C 0.32594 0.96949 0.58342 0.0
C503 C 0.31145 0.91901 0.58243 0.0
C504 C 0.3396 -0.00214 0.55441 0.0
C505 C 0.33947 0.97647 0.5238 0.0
C506 C 0.32657 0.92636 0.52329 0.0
C507 C 0.31265 0.89812 0.55208 0.0
H508 H 0.40568 0.24714 0.87838 0.0
H509 H 0.32832 0.3058 0.93266 0.0
H510 H 0.36916 0.25425 0.8276 0.0
H511 H 0.29296 0.31524 0.88134 0.0
H512 H 0.2099 0.29709 0.78695 0.0
H513 H 0.23864 0.27846 0.83741 0.0
H514 H 0.37517 0.31262 0.78932 0.0
H515 H 0.34497 0.32924 0.73818 0.0
C516 C 0.38052 0.26143 0.87944 0.0
C517 C 0.3699 0.27593 0.9096 0.0
C518 C 0.35994 0.26607 0.85013 0.0
C519 C 0.32856 0.28615 0.84988 0.0
C520 C 0.31655 0.29914 0.88033 0.0
C521 C 0.33673 0.29376 0.9099 0.0
C522 C 0.2459 0.30009 0.78701 0.0
C523 C 0.27518 0.31468 0.75846 0.0
C524 C 0.26265 0.28985 0.81619 0.0
C525 C 0.3096 0.29446 0.81797 0.0
C526 C 0.3385 0.30792 0.78906 0.0
C527 C 0.32133 0.31758 0.7596 0.0
H528 H 0.24711 0.35094 0.40355 0.0
H529 H 0.15436 0.41478 0.41907 0.0
H530 H 0.26168 0.35249 0.46244 0.0
H531 H 0.1691 0.4165 0.47844 0.0
H532 H 0.25349 0.47031 0.57399 0.0
H533 H 0.24335 0.46521 0.51459 0.0
H534 H 0.22064 0.31679 0.51661 0.0
H535 H 0.23041 0.32184 0.57651 0.0
C536 C 0.22912 0.3646 0.4197 0.0
C537 C 0.1995 0.38273 0.40665 0.0
C538 C 0.23752 0.36543 0.45348 0.0
C539 C 0.21717 0.38519 0.47518 0.0
C540 C 0.18597 0.40169 0.4623 0.0
C541 C 0.17691 0.40013 0.42837 0.0
C542 C 0.24801 0.43716 0.56166 0.0
C543 C 0.24301 0.39656 0.58002 0.0
C544 C 0.24122 0.4339 0.52766 0.0
C545 C 0.22966 0.39007 0.51092 0.0
C546 C 0.22911 0.35098 0.5288 0.0
C547 C 0.23555 0.35412 0.56308 0.0
H548 H 0.77026 0.31598 0.91103 0.0
H549 H 0.77702 0.18668 0.94015 0.0
H550 H 0.75856 0.28877 0.85405 0.0
H551 H 0.76232 0.15732 0.8834 0.0
H552 H 0.77668 0.1441 0.77019 0.0
H553 H 0.78815 0.1637 0.82868 0.0
H554 H 0.69723 0.23133 0.82009 0.0
H555 H 0.68829 0.21374 0.7615 0.0
C556 C 0.77038 0.28222 0.905 0.0
C557 C 0.77581 0.25415 0.92985 0.0
C558 C 0.76243 0.2658 0.8724 0.0
C559 C 0.75803 0.2199 0.86384 0.0
C560 C 0.76566 0.19288 0.88869 0.0
C561 C 0.77462 0.20992 0.92127 0.0
C562 C 0.75734 0.16109 0.78124 0.0
C563 C 0.73064 0.17636 0.76142 0.0
C564 C 0.76445 0.17306 0.81479 0.0
C565 C 0.7449 0.20056 0.82931 0.0
C566 C 0.71445 0.21173 0.80984 0.0
C567 C 0.70799 0.20037 0.77633 0.0
H568 H 0.48068 0.80869 0.2461 0.0
H569 H 0.63068 0.83919 0.24144 0.0
H570 H 0.47092 0.79043 0.18751 0.0
H571 H 0.62063 0.81814 0.18334 0.0
H572 H 0.58999 0.79278 0.07184 0.0
H573 H 0.60865 0.82654 0.12754 0.0
H574 H 0.45825 0.72319 0.15628 0.0
H575 H 0.43963 0.69167 0.1005 0.0
C576 C 0.51232 0.81372 0.23215 0.0
C577 C 0.55683 0.82672 0.24822 0.0
C578 C 0.50639 0.80171 0.19867 0.0
C579 C 0.54439 0.80092 0.18053 0.0
C580 C 0.59037 0.81818 0.1961 0.0
C581 C 0.59648 0.83105 0.22947 0.0
C582 C 0.56144 0.77644 0.0904 0.0
C583 C 0.51346 0.73915 0.08183 0.0
C584 C 0.57192 0.79617 0.12236 0.0
C585 C 0.53472 0.77877 0.14663 0.0
C586 C 0.4876 0.73919 0.13828 0.0
C587 C 0.47705 0.72015 0.10637 0.0
H588 H 0.75783 0.51827 0.43866 0.0
H589 H 0.89543 0.6572 0.43463 0.0
H590 H 0.75522 0.52559 0.49794 0.0
H591 H 0.89295 0.6646 0.49447 0.0
H592 H 0.8888 0.63153 0.60626 0.0
H593 H 0.89602 0.62792 0.54713 0.0
H594 H 0.74068 0.57775 0.53681 0.0
H595 H 0.73334 0.58098 0.59672 0.0
C596 C 0.78822 0.54994 0.45059 0.0
C597 C 0.82696 0.58713 0.43184 0.0
C598 C 0.78625 0.5545 0.48457 0.0
C599 C 0.82311 0.59629 0.50099 0.0
C600 C 0.86373 0.63198 0.4826 0.0
C601 C 0.86559 0.6275 0.44834 0.0
C602 C 0.85612 0.62017 0.59141 0.0
C603 C 0.81032 0.60622 0.6063 0.0
C604 C 0.86043 0.61836 0.5574 0.0
C605 C 0.81897 0.6021 0.5371 0.0
C606 C 0.77331 0.58978 0.55179 0.0
C607 C 0.76909 0.59214 0.58605 0.0
H608 H 0.23794 0.69773 0.91113 0.0
H609 H 0.1631 0.77676 0.93853 0.0
H610 H 0.24358 0.72551 0.85481 0.0
H611 H 0.16881 0.80493 0.88149 0.0
H612 H 0.14385 0.79193 0.76639 0.0
H613 H 0.14016 0.7769 0.82535 0.0
H614 H 0.28854 0.80116 0.82254 0.0
H615 H 0.29171 0.81564 0.76316 0.0
C616 C 0.22205 0.72063 0.90505 0.0
C617 C 0.2 0.73492 0.92956 0.0
C618 C 0.226 0.73723 0.8727 0.0
C619 C 0.20792 0.76867 0.86356 0.0
C620 C 0.18346 0.781 0.88762 0.0
C621 C 0.17964 0.7644 0.92028 0.0
C622 C 0.17638 0.79587 0.77863 0.0
C623 C 0.21828 0.80545 0.76017 0.0
C624 C 0.17416 0.787 0.81247 0.0
C625 C 0.21361 0.78681 0.82879 0.0
C626 C 0.25701 0.80003 0.8107 0.0
C627 C 0.25935 0.80931 0.77676 0.0
H628 H 0.46525 0.17798 0.25554 0.0
H629 H 0.34023 0.20031 0.25285 0.0
H630 H 0.4775 0.19512 0.19646 0.0
H631 H 0.35245 0.21795 0.19416 0.0
H632 H 0.3773 0.22222 0.08085 0.0
H633 H 0.35422 0.19234 0.13751 0.0
H634 H 0.50801 0.27166 0.16534 0.0
H635 H 0.53077 0.3011 0.10938 0.0
C636 C 0.43921 0.18454 0.24207 0.0
C637 C 0.40138 0.18707 0.25873 0.0
C638 C 0.44671 0.19537 0.20831 0.0
C639 C 0.41651 0.20894 0.19048 0.0
C640 C 0.37637 0.2076 0.20683 0.0
C641 C 0.36918 0.19718 0.24051 0.0
C642 C 0.40598 0.2342 0.09928 0.0
C643 C 0.45591 0.26413 0.0904 0.0
C644 C 0.39284 0.21663 0.13173 0.0
C645 C 0.42934 0.2284 0.15599 0.0
C646 C 0.47891 0.26034 0.14728 0.0
C647 C 0.49193 0.27789 0.11514 0.0
loop_
_geom_bond_atom_site_label_1
_geom_bond_atom_site_label_2
_geom_bond_distance
_geom_bond_site_symmetry_2
_ccdc_geom_bond_type
Co0 O1 2.216 . S
Co0 O2 2.091 . S
Co0 O4 2.004 . S
Co0 O10 2.021 . S
Co0 O12 2.137 . S
Co0 O13 2.244 . S
O1 Co0 2.216 . S
O1 C8 1.247 . S
O2 Co0 2.091 . S
O2 C8 1.261 . S
C3 O12 1.247 . S
C3 O13 1.272 . S
O4 Co0 2.004 . S
O4 C9 1.259 . S
Co5 O6 2.061 . S
Co5 O11 2.052 . S
Co5 O13 2.135 . S
O6 Co5 2.061 . S
O6 C9 1.235 . S
C7 O10 1.238 . S
C7 O11 1.241 . S
C8 O1 1.247 . S
C8 O2 1.261 . S
C9 O4 1.259 . S
C9 O6 1.235 . S
O10 Co0 2.021 . S
O10 C7 1.238 . S
O11 Co5 2.052 . S
O11 C7 1.241 . S
O12 Co0 2.137 . S
O12 C3 1.247 . S
O13 Co0 2.244 . S
O13 C3 1.272 . S
O13 Co5 2.135 . S
Co14 O15 2.216 . S
Co14 O16 2.091 . S
Co14 O18 2.004 . S
Co14 O24 2.021 . S
Co14 O26 2.137 . S
Co14 O27 2.244 . S
O15 Co14 2.216 . S
O15 C22 1.247 . S
O16 Co14 2.091 . S
O16 C22 1.261 . S
C17 O26 1.247 . S
C17 O27 1.272 . S
O18 Co14 2.004 . S
O18 C23 1.259 . S
Co19 O20 2.061 . S
Co19 O25 2.052 . S
Co19 O27 2.135 . S
O20 Co19 2.061 . S
O20 C23 1.235 . S
C21 O24 1.238 . S
C21 O25 1.241 . S
C22 O15 1.247 . S
C22 O16 1.261 . S
C23 O18 1.259 . S
C23 O20 1.235 . S
O24 Co14 2.021 . S
O24 C21 1.238 . S
O25 Co19 2.052 . S
O25 C21 1.241 . S
O26 Co14 2.137 . S
O26 C17 1.247 . S
O27 Co14 2.244 . S
O27 C17 1.272 . S
O27 Co19 2.135 . S
Co28 O29 2.216 . S
Co28 O30 2.091 . S
Co28 O32 2.004 1_556 S
Co28 O38 2.021 . S
Co28 O40 2.137 . S
Co28 O41 2.244 . S
O29 Co28 2.216 . S
O29 C36 1.247 . S
O30 Co28 2.091 . S
O30 C36 1.261 . S
C31 O40 1.247 . S
C31 O41 1.271 . S
O32 Co28 2.004 1_554 S
O32 C37 1.259 . S
Co33 O34 2.061 . S
Co33 O39 2.052 . S
Co33 O41 2.135 1_554 S
O34 Co33 2.061 . S
O34 C37 1.235 . S
C35 O38 1.238 . S
C35 O39 1.241 1_556 S
C36 O29 1.247 . S
C36 O30 1.261 . S
C37 O32 1.259 . S
C37 O34 1.235 . S
O38 Co28 2.021 . S
O38 C35 1.238 . S
O39 Co33 2.052 . S
O39 C35 1.241 1_554 S
O40 Co28 2.137 . S
O40 C31 1.247 . S
O41 Co28 2.244 . S
O41 C31 1.271 . S
O41 Co33 2.135 1_556 S
Co42 O43 2.216 . S
Co42 O44 2.091 . S
Co42 O46 2.004 . S
Co42 O52 2.021 . S
Co42 O54 2.137 . S
Co42 O55 2.244 . S
O43 Co42 2.216 . S
O43 C50 1.247 . S
O44 Co42 2.091 . S
O44 C50 1.261 . S
C45 O54 1.247 . S
C45 O55 1.272 . S
O46 Co42 2.004 . S
O46 C51 1.259 . S
Co47 O48 2.061 . S
Co47 O53 2.052 . S
Co47 O55 2.135 . S
O48 Co47 2.061 . S
O48 C51 1.235 . S
C49 O52 1.238 . S
C49 O53 1.241 . S
C50 O43 1.247 . S
C50 O44 1.261 . S
C51 O46 1.259 . S
C51 O48 1.235 . S
O52 Co42 2.021 . S
O52 C49 1.238 . S
O53 Co47 2.052 . S
O53 C49 1.241 . S
O54 Co42 2.137 . S
O54 C45 1.247 . S
O55 Co42 2.244 . S
O55 C45 1.272 . S
O55 Co47 2.135 . S
Co56 O57 2.216 . S
Co56 O58 2.091 . S
Co56 O60 2.004 . S
Co56 O66 2.021 . S
Co56 O68 2.137 . S
Co56 O69 2.244 . S
O57 Co56 2.216 . S
O57 C64 1.247 . S
O58 Co56 2.091 . S
O58 C64 1.261 . S
C59 O68 1.247 . S
C59 O69 1.272 . S
O60 Co56 2.004 . S
O60 C65 1.259 . S
Co61 O62 2.061 . S
Co61 O67 2.052 . S
Co61 O69 2.135 . S
O62 Co61 2.061 . S
O62 C65 1.235 . S
C63 O66 1.238 . S
C63 O67 1.241 . S
C64 O57 1.247 . S
C64 O58 1.261 . S
C65 O60 1.259 . S
C65 O62 1.235 . S
O66 Co56 2.021 . S
O66 C63 1.238 . S
O67 Co61 2.052 . S
O67 C63 1.241 . S
O68 Co56 2.137 . S
O68 C59 1.247 . S
O69 Co56 2.244 . S
O69 C59 1.272 . S
O69 Co61 2.135 . S
Co70 O71 2.216 . S
Co70 O72 2.091 . S
Co70 O74 2.004 1_556 S
Co70 O80 2.021 . S
Co70 O82 2.137 . S
Co70 O83 2.244 . S
O71 Co70 2.216 . S
O71 C78 1.247 . S
O72 Co70 2.091 . S
O72 C78 1.261 . S
C73 O82 1.247 . S
C73 O83 1.271 . S
O74 Co70 2.004 1_554 S
O74 C79 1.259 . S
Co75 O76 2.061 . S
Co75 O81 2.052 . S
Co75 O83 2.135 1_554 S
O76 Co75 2.061 . S
O76 C79 1.235 . S
C77 O80 1.238 . S
C77 O81 1.241 1_556 S
C78 O71 1.247 . S
C78 O72 1.261 . S
C79 O74 1.259 . S
C79 O76 1.235 . S
O80 Co70 2.021 . S
O80 C77 1.238 . S
O81 Co75 2.052 . S
O81 C77 1.241 1_554 S
O82 Co70 2.137 . S
O82 C73 1.247 . S
O83 Co70 2.244 . S
O83 C73 1.271 . S
O83 Co75 2.135 1_556 S
Co84 O85 2.216 . S
Co84 O86 2.091 . S
Co84 O88 2.004 . S
Co84 O94 2.021 . S
Co84 O96 2.137 . S
Co84 O97 2.244 . S
O85 Co84 2.216 . S
O85 C92 1.247 . S
O86 Co84 2.091 . S
O86 C92 1.261 . S
C87 O96 1.247 . S
C87 O97 1.272 . S
O88 Co84 2.004 . S
O88 C93 1.259 . S
Co89 O90 2.061 . S
Co89 O95 2.052 . S
Co89 O97 2.135 . S
O90 Co89 2.061 . S
O90 C93 1.235 . S
C91 O94 1.238 . S
C91 O95 1.241 . S
C92 O85 1.247 . S
C92 O86 1.261 . S
C93 O88 1.259 . S
C93 O90 1.235 . S
O94 Co84 2.021 . S
O94 C91 1.238 . S
O95 Co89 2.052 . S
O95 C91 1.241 . S
O96 Co84 2.137 . S
O96 C87 1.247 . S
O97 Co84 2.244 . S
O97 C87 1.272 . S
O97 Co89 2.135 . S
Co98 O99 2.216 . S
Co98 O100 2.091 . S
Co98 O102 2.004 . S
Co98 O108 2.021 . S
Co98 O110 2.137 . S
Co98 O111 2.244 . S
O99 Co98 2.216 . S
O99 C106 1.247 . S
O100 Co98 2.091 . S
O100 C106 1.261 . S
C101 O110 1.247 . S
C101 O111 1.272 . S
O102 Co98 2.004 . S
O102 C107 1.259 . S
Co103 O104 2.061 . S
Co103 O109 2.052 . S
Co103 O111 2.135 . S
O104 Co103 2.061 . S
O104 C107 1.235 . S
C105 O108 1.238 . S
C105 O109 1.241 . S
C106 O99 1.247 . S
C106 O100 1.261 . S
C107 O102 1.259 . S
C107 O104 1.235 . S
O108 Co98 2.021 . S
O108 C105 1.238 . S
O109 Co103 2.052 . S
O109 C105 1.241 . S
O110 Co98 2.137 . S
O110 C101 1.247 . S
O111 Co98 2.244 . S
O111 C101 1.272 . S
O111 Co103 2.135 . S
Co112 O113 2.216 . S
Co112 O114 2.091 . S
Co112 O116 2.004 1_554 S
Co112 O122 2.021 . S
Co112 O124 2.137 . S
Co112 O125 2.244 . S
O113 Co112 2.216 . S
O113 C120 1.247 . S
O114 Co112 2.091 . S
O114 C120 1.261 . S
C115 O124 1.247 . S
C115 O125 1.271 . S
O116 Co112 2.004 1_556 S
O116 C121 1.259 . S
Co117 O118 2.061 . S
Co117 O123 2.052 . S
Co117 O125 2.135 1_556 S
O118 Co117 2.061 . S
O118 C121 1.235 . S
C119 O122 1.238 . S
C119 O123 1.241 1_554 S
C120 O113 1.247 . S
C120 O114 1.261 . S
C121 O116 1.259 . S
C121 O118 1.235 . S
O122 Co112 2.021 . S
O122 C119 1.238 . S
O123 Co117 2.052 . S
O123 C119 1.241 1_556 S
O124 Co112 2.137 . S
O124 C115 1.247 . S
O125 Co112 2.244 . S
O125 C115 1.271 . S
O125 Co117 2.135 1_554 S
Co126 O127 2.216 . S
Co126 O128 2.091 . S
Co126 O130 2.004 . S
Co126 O136 2.021 . S
Co126 O138 2.137 . S
Co126 O139 2.244 . S
O127 Co126 2.216 . S
O127 C134 1.247 . S
O128 Co126 2.091 . S
O128 C134 1.261 . S
C129 O138 1.247 . S
C129 O139 1.272 . S
O130 Co126 2.004 . S
O130 C135 1.259 . S
Co131 O132 2.061 . S
Co131 O137 2.052 . S
Co131 O139 2.135 . S
O132 Co131 2.061 . S
O132 C135 1.235 . S
C133 O136 1.238 . S
C133 O137 1.241 . S
C134 O127 1.247 . S
C134 O128 1.261 . S
C135 O130 1.259 . S
C135 O132 1.235 . S
O136 Co126 2.021 . S
O136 C133 1.238 . S
O137 Co131 2.052 . S
O137 C133 1.241 . S
O138 Co126 2.137 . S
O138 C129 1.247 . S
O139 Co126 2.244 . S
O139 C129 1.272 . S
O139 Co131 2.135 . S
Co140 O141 2.216 . S
Co140 O142 2.091 . S
Co140 O144 2.004 . S
Co140 O150 2.021 . S
Co140 O152 2.137 . S
Co140 O153 2.244 . S
O141 Co140 2.216 . S
O141 C148 1.247 . S
O142 Co140 2.091 . S
O142 C148 1.261 . S
C143 O152 1.247 . S
C143 O153 1.272 . S
O144 Co140 2.004 . S
O144 C149 1.259 . S
Co145 O146 2.061 . S
Co145 O151 2.052 . S
Co145 O153 2.135 . S
O146 Co145 2.061 . S
O146 C149 1.235 . S
C147 O150 1.238 . S
C147 O151 1.241 . S
C148 O141 1.247 . S
C148 O142 1.261 . S
C149 O144 1.259 . S
C149 O146 1.235 . S
O150 Co140 2.021 . S
O150 C147 1.238 . S
O151 Co145 2.052 . S
O151 C147 1.241 . S
O152 Co140 2.137 . S
O152 C143 1.247 . S
O153 Co140 2.244 . S
O153 C143 1.272 . S
O153 Co145 2.135 . S
Co154 O155 2.216 . S
Co154 O156 2.091 . S
Co154 O158 2.004 1_554 S
Co154 O164 2.021 . S
Co154 O166 2.137 . S
Co154 O167 2.244 . S
O155 Co154 2.216 . S
O155 C162 1.247 . S
O156 Co154 2.091 . S
O156 C162 1.261 . S
C157 O166 1.247 . S
C157 O167 1.271 . S
O158 Co154 2.004 1_556 S
O158 C163 1.259 . S
Co159 O160 2.061 . S
Co159 O165 2.052 . S
Co159 O167 2.135 1_556 S
O160 Co159 2.061 . S
O160 C163 1.235 . S
C161 O164 1.238 . S
C161 O165 1.241 1_554 S
C162 O155 1.247 . S
C162 O156 1.261 . S
C163 O158 1.259 . S
C163 O160 1.235 . S
O164 Co154 2.021 . S
O164 C161 1.238 . S
O165 Co159 2.052 . S
O165 C161 1.241 1_556 S
O166 Co154 2.137 . S
O166 C157 1.247 . S
O167 Co154 2.244 . S
O167 C157 1.271 . S
O167 Co159 2.135 1_554 S
H168 C176 0.950 . S
H169 C181 0.950 . S
H170 C178 0.950 . S
H171 C180 0.950 . S
H172 C182 0.950 . S
H173 C184 0.950 . S
H174 C186 0.950 . S
H175 C187 0.950 . S
C176 H168 0.950 . S
C176 C177 1.386 . S
C176 C178 1.391 . S
C177 C176 1.386 . S
C177 C181 1.393 . S
C178 H170 0.950 . S
C178 C176 1.391 . S
C178 C179 1.400 . S
C179 C178 1.400 . S
C179 C180 1.398 . S
C179 C185 1.491 . S
C180 H171 0.950 . S
C180 C179 1.398 . S
C180 C181 1.391 . S
C181 H169 0.950 . S
C181 C177 1.393 . S
C181 C180 1.391 . S
C182 H172 0.950 . S
C182 C183 1.386 . S
C182 C184 1.391 . S
C183 C182 1.386 . S
C183 C187 1.393 . S
C184 H173 0.950 . S
C184 C182 1.391 . S
C184 C185 1.400 . S
C185 C179 1.491 . S
C185 C184 1.400 . S
C185 C186 1.398 . S
C186 H174 0.950 . S
C186 C185 1.398 . S
C186 C187 1.391 . S
C187 H175 0.950 . S
C187 C183 1.393 . S
C187 C186 1.391 . S
H188 C196 0.950 . S
H189 C201 0.950 . S
H190 C198 0.950 . S
H191 C200 0.950 . S
H192 C202 0.950 . S
H193 C204 0.950 . S
H194 C206 0.950 . S
H195 C207 0.950 . S
C196 H188 0.950 . S
C196 C197 1.386 . S
C196 C198 1.391 . S
C197 C196 1.386 . S
C197 C201 1.393 . S
C198 H190 0.950 . S
C198 C196 1.391 . S
C198 C199 1.400 . S
C199 C198 1.400 . S
C199 C200 1.398 . S
C199 C205 1.491 . S
C200 H191 0.950 . S
C200 C199 1.398 . S
C200 C201 1.391 . S
C201 H189 0.950 . S
C201 C197 1.393 . S
C201 C200 1.391 . S
C202 H192 0.950 . S
C202 C203 1.386 . S
C202 C204 1.391 . S
C203 C202 1.386 . S
C203 C207 1.393 . S
C204 H193 0.950 . S
C204 C202 1.391 . S
C204 C205 1.400 . S
C205 C199 1.491 . S
C205 C204 1.400 . S
C205 C206 1.398 . S
C206 H194 0.950 . S
C206 C205 1.398 . S
C206 C207 1.391 . S
C207 H195 0.950 . S
C207 C203 1.393 . S
C207 C206 1.391 . S
H208 C216 0.950 . S
H209 C221 0.950 . S
H210 C218 0.950 . S
H211 C220 0.950 . S
H212 C222 0.950 . S
H213 C224 0.950 . S
H214 C226 0.950 . S
H215 C227 0.950 . S
C216 H208 0.950 . S
C216 C217 1.386 1_554 S
C216 C218 1.391 . S
C217 C216 1.386 1_556 S
C217 C221 1.393 . S
C218 H210 0.950 . S
C218 C216 1.391 . S
C218 C219 1.400 1_554 S
C219 C218 1.400 1_556 S
C219 C220 1.398 . S
C219 C225 1.491 1_556 S
C220 H211 0.950 . S
C220 C219 1.398 . S
C220 C221 1.391 . S
C221 H209 0.950 . S
C221 C217 1.393 . S
C221 C220 1.391 . S
C222 H212 0.950 . S
C222 C223 1.386 1_556 S
C222 C224 1.391 . S
C223 C222 1.386 1_554 S
C223 C227 1.393 . S
C224 H213 0.950 . S
C224 C222 1.391 . S
C224 C225 1.400 1_556 S
C225 C219 1.491 1_554 S
C225 C224 1.400 1_554 S
C225 C226 1.398 . S
C226 H214 0.950 . S
C226 C225 1.398 . S
C226 C227 1.391 . S
C227 H215 0.950 . S
C227 C223 1.393 . S
C227 C226 1.391 . S
H228 C236 0.950 . S
H229 C241 0.950 . S
H230 C238 0.950 . S
H231 C240 0.950 . S
H232 C242 0.950 . S
H233 C244 0.950 . S
H234 C246 0.950 . S
H235 C247 0.950 . S
C236 H228 0.950 . S
C236 C237 1.386 . S
C236 C238 1.391 . S
C237 C236 1.386 . S
C237 C241 1.393 . S
C238 H230 0.950 . S
C238 C236 1.391 . S
C238 C239 1.400 . S
C239 C238 1.400 . S
C239 C240 1.398 . S
C239 C245 1.491 . S
C240 H231 0.950 . S
C240 C239 1.398 . S
C240 C241 1.391 . S
C241 H229 0.950 . S
C241 C237 1.393 . S
C241 C240 1.391 . S
C242 H232 0.950 . S
C242 C243 1.386 . S
C242 C244 1.391 . S
C243 C242 1.386 . S
C243 C247 1.393 . S
C244 H233 0.950 . S
C244 C242 1.391 . S
C244 C245 1.400 . S
C245 C239 1.491 . S
C245 C244 1.400 . S
C245 C246 1.398 . S
C246 H234 0.950 . S
C246 C245 1.398 . S
C246 C247 1.391 . S
C247 H235 0.950 . S
C247 C243 1.393 . S
C247 C246 1.391 . S
H248 C256 0.950 . S
H249 C261 0.950 . S
H250 C258 0.950 . S
H251 C260 0.950 . S
H252 C262 0.950 . S
H253 C264 0.950 . S
H254 C266 0.950 . S
H255 C267 0.950 . S
C256 H248 0.950 . S
C256 C257 1.386 . S
C256 C258 1.391 . S
C257 C256 1.386 . S
C257 C261 1.393 . S
C258 H250 0.950 . S
C258 C256 1.391 . S
C258 C259 1.400 . S
C259 C258 1.400 . S
C259 C260 1.398 . S
C259 C265 1.491 . S
C260 H251 0.950 . S
C260 C259 1.398 . S
C260 C261 1.391 . S
C261 H249 0.950 . S
C261 C257 1.393 . S
C261 C260 1.391 . S
C262 H252 0.950 . S
C262 C263 1.386 . S
C262 C264 1.391 . S
C263 C262 1.386 . S
C263 C267 1.393 . S
C264 H253 0.950 . S
C264 C262 1.391 . S
C264 C265 1.400 . S
C265 C259 1.491 . S
C265 C264 1.400 . S
C265 C266 1.398 . S
C266 H254 0.950 . S
C266 C265 1.398 . S
C266 C267 1.391 . S
C267 H255 0.950 . S
C267 C263 1.393 . S
C267 C266 1.391 . S
H268 C276 0.950 . S
H269 C281 0.950 . S
H270 C278 0.950 . S
H271 C280 0.950 . S
H272 C282 0.950 . S
H273 C284 0.950 . S
H274 C286 0.950 . S
H275 C287 0.950 . S
C276 H268 0.950 . S
C276 C277 1.386 . S
C276 C278 1.391 . S
C277 C276 1.386 . S
C277 C281 1.393 1_554 S
C278 H270 0.950 . S
C278 C276 1.391 . S
C278 C279 1.411 . S
C279 C278 1.411 . S
C279 C280 1.388 1_554 S
C279 C285 1.490 1_554 S
C280 H271 0.950 . S
C280 C279 1.388 1_556 S
C280 C281 1.391 . S
C281 H269 0.950 . S
C281 C277 1.393 1_556 S
C281 C280 1.391 . S
C282 H272 0.950 . S
C282 C283 1.386 . S
C282 C284 1.391 . S
C283 C282 1.386 . S
C283 C287 1.393 1_556 S
C284 H273 0.950 . S
C284 C282 1.391 . S
C284 C285 1.407 . S
C285 C279 1.490 1_556 S
C285 C284 1.407 . S
C285 C286 1.392 1_556 S
C286 H274 0.950 . S
C286 C285 1.392 1_554 S
C286 C287 1.391 . S
C287 H275 0.950 . S
C287 C283 1.393 1_554 S
C287 C286 1.391 . S
H288 C296 0.950 . S
H289 C301 0.950 . S
H290 C298 0.950 . S
H291 C300 0.950 . S
H292 C302 0.950 . S
H293 C304 0.950 . S
H294 C306 0.950 . S
H295 C307 0.950 . S
C296 H288 0.950 . S
C296 C297 1.386 . S
C296 C298 1.391 . S
C297 C296 1.386 . S
C297 C301 1.393 . S
C298 H290 0.950 . S
C298 C296 1.391 . S
C298 C299 1.400 . S
C299 C298 1.400 . S
C299 C300 1.398 . S
C299 C305 1.491 . S
C300 H291 0.950 . S
C300 C299 1.398 . S
C300 C301 1.391 . S
C301 H289 0.950 . S
C301 C297 1.393 . S
C301 C300 1.391 . S
C302 H292 0.950 . S
C302 C303 1.386 . S
C302 C304 1.391 . S
C303 C302 1.386 . S
C303 C307 1.393 . S
C304 H293 0.950 . S
C304 C302 1.391 . S
C304 C305 1.400 . S
C305 C299 1.491 . S
C305 C304 1.400 . S
C305 C306 1.398 . S
C306 H294 0.950 . S
C306 C305 1.398 . S
C306 C307 1.391 . S
C307 H295 0.950 . S
C307 C303 1.393 . S
C307 C306 1.391 . S
H308 C316 0.950 . S
H309 C321 0.950 . S
H310 C318 0.950 . S
H311 C320 0.950 . S
H312 C322 0.950 . S
H313 C324 0.950 . S
H314 C326 0.950 . S
H315 C327 0.950 . S
C316 H308 0.950 . S
C316 C317 1.386 . S
C316 C318 1.391 . S
C317 C316 1.386 . S
C317 C321 1.393 . S
C318 H310 0.950 . S
C318 C316 1.391 . S
C318 C319 1.400 . S
C319 C318 1.400 . S
C319 C320 1.398 . S
C319 C325 1.491 1_655 S
C320 H311 0.950 . S
C320 C319 1.398 . S
C320 C321 1.391 . S
C321 H309 0.950 . S
C321 C317 1.393 . S
C321 C320 1.391 . S
C322 H312 0.950 . S
C322 C323 1.386 . S
C322 C324 1.391 . S
C323 C322 1.386 . S
C323 C327 1.393 . S
C324 H313 0.950 . S
C324 C322 1.391 . S
C324 C325 1.400 . S
C325 C319 1.491 1_455 S
C325 C324 1.400 . S
C325 C326 1.398 . S
C326 H314 0.950 . S
C326 C325 1.398 . S
C326 C327 1.391 . S
C327 H315 0.950 . S
C327 C323 1.393 . S
C327 C326 1.391 . S
H328 C336 0.950 . S
H329 C341 0.950 . S
H330 C338 0.950 . S
H331 C340 0.950 . S
H332 C342 0.950 . S
H333 C344 0.950 . S
H334 C346 0.950 . S
H335 C347 0.950 . S
C336 H328 0.950 . S
C336 C337 1.386 . S
C336 C338 1.391 . S
C337 C336 1.386 . S
C337 C341 1.393 1_554 S
C338 H330 0.950 . S
C338 C336 1.391 . S
C338 C339 1.400 . S
C339 C338 1.400 . S
C339 C340 1.398 1_554 S
C339 C345 1.491 1_544 S
C340 H331 0.950 . S
C340 C339 1.398 1_556 S
C340 C341 1.391 . S
C341 H329 0.950 . S
C341 C337 1.393 1_556 S
C341 C340 1.391 . S
C342 H332 0.950 . S
C342 C343 1.386 . S
C342 C344 1.391 . S
C343 C342 1.386 . S
C343 C347 1.393 1_556 S
C344 H333 0.950 . S
C344 C342 1.391 . S
C344 C345 1.400 . S
C345 C339 1.491 1_566 S
C345 C344 1.400 . S
C345 C346 1.398 1_556 S
C346 H334 0.950 . S
C346 C345 1.398 1_554 S
C346 C347 1.391 . S
C347 H335 0.950 . S
C347 C343 1.393 1_554 S
C347 C346 1.391 . S
H348 C356 0.950 . S
H349 C361 0.950 . S
H350 C358 0.950 . S
H351 C360 0.950 . S
H352 C362 0.950 . S
H353 C364 0.950 . S
H354 C366 0.950 . S
H355 C367 0.950 . S
C356 H348 0.950 . S
C356 C357 1.386 . S
C356 C358 1.391 . S
C357 C356 1.386 . S
C357 C361 1.393 . S
C358 H350 0.950 . S
C358 C356 1.391 . S
C358 C359 1.400 . S
C359 C358 1.400 . S
C359 C360 1.398 . S
C359 C365 1.491 . S
C360 H351 0.950 . S
C360 C359 1.398 . S
C360 C361 1.391 . S
C361 H349 0.950 . S
C361 C357 1.393 . S
C361 C360 1.391 . S
C362 H352 0.950 . S
C362 C363 1.386 . S
C362 C364 1.391 . S
C363 C362 1.386 . S
C363 C367 1.393 . S
C364 H353 0.950 . S
C364 C362 1.391 . S
C364 C365 1.400 . S
C365 C359 1.491 . S
C365 C364 1.400 . S
C365 C366 1.398 . S
C366 H354 0.950 . S
C366 C365 1.398 . S
C366 C367 1.391 . S
C367 H355 0.950 . S
C367 C363 1.393 . S
C367 C366 1.391 . S
H368 C376 0.950 . S
H369 C381 0.950 . S
H370 C378 0.950 . S
H371 C380 0.950 . S
H372 C382 0.950 . S
H373 C384 0.950 . S
H374 C386 0.950 . S
H375 C387 0.950 . S
C376 H368 0.950 . S
C376 C377 1.386 . S
C376 C378 1.391 . S
C377 C376 1.386 . S
C377 C381 1.393 . S
C378 H370 0.950 . S
C378 C376 1.391 . S
C378 C379 1.400 . S
C379 C378 1.400 . S
C379 C380 1.398 . S
C379 C385 1.491 1_455 S
C380 H371 0.950 . S
C380 C379 1.398 . S
C380 C381 1.391 . S
C381 H369 0.950 . S
C381 C377 1.393 . S
C381 C380 1.391 . S
C382 H372 0.950 . S
C382 C383 1.386 . S
C382 C384 1.391 . S
C383 C382 1.386 . S
C383 C387 1.393 . S
C384 H373 0.950 . S
C384 C382 1.391 . S
C384 C385 1.400 . S
C385 C379 1.491 1_655 S
C385 C384 1.400 . S
C385 C386 1.398 . S
C386 H374 0.950 . S
C386 C385 1.398 . S
C386 C387 1.391 . S
C387 H375 0.950 . S
C387 C383 1.393 . S
C387 C386 1.391 . S
H388 C396 0.950 . S
H389 C401 0.950 . S
H390 C398 0.950 . S
H391 C400 0.950 . S
H392 C402 0.950 . S
H393 C404 0.950 . S
H394 C406 0.950 . S
H395 C407 0.950 . S
C396 H388 0.950 . S
C396 C397 1.386 . S
C396 C398 1.391 . S
C397 C396 1.386 . S
C397 C401 1.393 1_556 S
C398 H390 0.950 . S
C398 C396 1.391 . S
C398 C399 1.400 . S
C399 C398 1.400 . S
C399 C400 1.398 1_556 S
C399 C405 1.489 1_546 S
C400 H391 0.950 . S
C400 C399 1.398 1_554 S
C400 C401 1.391 . S
C401 H389 0.950 . S
C401 C397 1.393 1_554 S
C401 C400 1.391 . S
C402 H392 0.950 . S
C402 C403 1.386 . S
C402 C404 1.391 . S
C403 C402 1.386 . S
C403 C407 1.393 1_554 S
C404 H393 0.950 . S
C404 C402 1.391 . S
C404 C405 1.413 . S
C405 C399 1.489 1_564 S
C405 C404 1.413 . S
C405 C406 1.388 1_554 S
C406 H394 0.950 . S
C406 C405 1.388 1_556 S
C406 C407 1.391 . S
C407 H395 0.950 . S
C407 C403 1.393 1_556 S
C407 C406 1.391 . S
H408 C416 0.950 . S
H409 C421 0.950 . S
H410 C418 0.950 . S
H411 C420 0.950 . S
H412 C422 0.950 . S
H413 C424 0.950 1_655 S
H414 C426 0.950 . S
H415 C427 0.950 . S
C416 H408 0.950 . S
C416 C417 1.386 . S
C416 C418 1.391 . S
C417 C416 1.386 . S
C417 C421 1.393 . S
C418 H410 0.950 . S
C418 C416 1.391 . S
C418 C419 1.400 . S
C419 C418 1.400 . S
C419 C420 1.398 . S
C419 C425 1.491 1_655 S
C420 H411 0.950 . S
C420 C419 1.398 . S
C420 C421 1.391 . S
C421 H409 0.950 . S
C421 C417 1.393 . S
C421 C420 1.391 . S
C422 H412 0.950 . S
C422 C423 1.386 . S
C422 C424 1.391 . S
C423 C422 1.386 . S
C423 C427 1.393 . S
C424 H413 0.950 1_455 S
C424 C422 1.391 . S
C424 C425 1.400 . S
C425 C419 1.491 1_455 S
C425 C424 1.400 . S
C425 C426 1.398 . S
C426 H414 0.950 . S
C426 C425 1.398 . S
C426 C427 1.391 . S
C427 H415 0.950 . S
C427 C423 1.393 . S
C427 C426 1.391 . S
H428 C436 0.950 1_565 S
H429 C441 0.950 . S
H430 C438 0.950 . S
H431 C440 0.950 . S
H432 C442 0.950 1_545 S
H433 C444 0.950 . S
H434 C446 0.950 . S
H435 C447 0.950 . S
C436 H428 0.950 1_545 S
C436 C437 1.386 . S
C436 C438 1.391 1_545 S
C437 C436 1.386 . S
C437 C441 1.393 . S
C438 H430 0.950 . S
C438 C436 1.391 1_565 S
C438 C439 1.400 1_565 S
C439 C438 1.400 1_545 S
C439 C440 1.398 . S
C439 C445 1.491 1_545 S
C440 H431 0.950 . S
C440 C439 1.398 . S
C440 C441 1.391 . S
C441 H429 0.950 . S
C441 C437 1.393 . S
C441 C440 1.391 . S
C442 H432 0.950 1_565 S
C442 C443 1.386 . S
C442 C444 1.391 1_565 S
C443 C442 1.386 . S
C443 C447 1.393 . S
C444 H433 0.950 . S
C444 C442 1.391 1_545 S
C444 C445 1.400 1_545 S
C445 C439 1.491 1_565 S
C445 C444 1.400 1_565 S
C445 C446 1.398 . S
C446 H434 0.950 . S
C446 C445 1.398 . S
C446 C447 1.391 . S
C447 H435 0.950 . S
C447 C443 1.393 . S
C447 C446 1.391 . S
H448 C456 0.950 . S
H449 C461 0.950 . S
H450 C458 0.950 . S
H451 C460 0.950 . S
H452 C462 0.950 . S
H453 C464 0.950 . S
H454 C466 0.950 . S
H455 C467 0.950 . S
C456 H448 0.950 . S
C456 C457 1.386 . S
C456 C458 1.391 . S
C457 C456 1.386 . S
C457 C461 1.393 . S
C458 H450 0.950 . S
C458 C456 1.391 . S
C458 C459 1.400 . S
C459 C458 1.400 . S
C459 C460 1.398 . S
C459 C465 1.491 . S
C460 H451 0.950 . S
C460 C459 1.398 . S
C460 C461 1.391 . S
C461 H449 0.950 . S
C461 C457 1.393 . S
C461 C460 1.391 . S
C462 H452 0.950 . S
C462 C463 1.386 . S
C462 C464 1.391 . S
C463 C462 1.386 . S
C463 C467 1.393 . S
C464 H453 0.950 . S
C464 C462 1.391 . S
C464 C465 1.400 . S
C465 C459 1.491 . S
C465 C464 1.400 . S
C465 C466 1.398 . S
C466 H454 0.950 . S
C466 C465 1.398 . S
C466 C467 1.391 . S
C467 H455 0.950 . S
C467 C463 1.393 . S
C467 C466 1.391 . S
H468 C476 0.950 . S
H469 C481 0.950 . S
H470 C478 0.950 . S
H471 C480 0.950 1_655 S
H472 C482 0.950 . S
H473 C484 0.950 . S
H474 C486 0.950 . S
H475 C487 0.950 . S
C476 H468 0.950 . S
C476 C477 1.386 . S
C476 C478 1.391 . S
C477 C476 1.386 . S
C477 C481 1.393 . S
C478 H470 0.950 . S
C478 C476 1.391 . S
C478 C479 1.400 . S
C479 C478 1.400 . S
C479 C480 1.398 . S
C479 C485 1.491 1_455 S
C480 H471 0.950 1_455 S
C480 C479 1.398 . S
C480 C481 1.392 . S
C481 H469 0.950 . S
C481 C477 1.393 . S
C481 C480 1.392 . S
C482 H472 0.950 . S
C482 C483 1.386 . S
C482 C484 1.391 . S
C483 C482 1.386 . S
C483 C487 1.393 . S
C484 H473 0.950 . S
C484 C482 1.391 . S
C484 C485 1.400 . S
C485 C479 1.491 1_655 S
C485 C484 1.400 . S
C485 C486 1.398 1_655 S
C486 H474 0.950 . S
C486 C485 1.398 1_455 S
C486 C487 1.391 1_455 S
C487 H475 0.950 . S
C487 C483 1.393 . S
C487 C486 1.391 1_655 S
H488 C496 0.950 1_565 S
H489 C501 0.950 . S
H490 C498 0.950 . S
H491 C500 0.950 . S
H492 C502 0.950 1_545 S
H493 C504 0.950 . S
H494 C506 0.950 . S
H495 C507 0.950 . S
C496 H488 0.950 1_545 S
C496 C497 1.386 . S
C496 C498 1.391 1_545 S
C497 C496 1.386 . S
C497 C501 1.393 . S
C498 H490 0.950 . S
C498 C496 1.391 1_565 S
C498 C499 1.400 1_565 S
C499 C498 1.400 1_545 S
C499 C500 1.398 . S
C499 C505 1.491 1_545 S
C500 H491 0.950 . S
C500 C499 1.398 . S
C500 C501 1.391 . S
C501 H489 0.950 . S
C501 C497 1.393 . S
C501 C500 1.391 . S
C502 H492 0.950 1_565 S
C502 C503 1.386 . S
C502 C504 1.391 1_565 S
C503 C502 1.386 . S
C503 C507 1.393 . S
C504 H493 0.950 . S
C504 C502 1.391 1_545 S
C504 C505 1.400 1_545 S
C505 C499 1.491 1_565 S
C505 C504 1.400 1_565 S
C505 C506 1.398 . S
C506 H494 0.950 . S
C506 C505 1.398 . S
C506 C507 1.391 . S
C507 H495 0.950 . S
C507 C503 1.393 . S
C507 C506 1.391 . S
H508 C516 0.950 . S
H509 C521 0.950 . S
H510 C518 0.950 . S
H511 C520 0.950 . S
H512 C522 0.950 . S
H513 C524 0.950 . S
H514 C526 0.950 . S
H515 C527 0.950 . S
C516 H508 0.950 . S
C516 C517 1.386 . S
C516 C518 1.391 . S
C517 C516 1.386 . S
C517 C521 1.393 . S
C518 H510 0.950 . S
C518 C516 1.391 . S
C518 C519 1.400 . S
C519 C518 1.400 . S
C519 C520 1.398 . S
C519 C525 1.491 . S
C520 H511 0.950 . S
C520 C519 1.398 . S
C520 C521 1.391 . S
C521 H509 0.950 . S
C521 C517 1.393 . S
C521 C520 1.391 . S
C522 H512 0.950 . S
C522 C523 1.386 . S
C522 C524 1.391 . S
C523 C522 1.386 . S
C523 C527 1.393 . S
C524 H513 0.950 . S
C524 C522 1.391 . S
C524 C525 1.400 . S
C525 C519 1.491 . S
C525 C524 1.400 . S
C525 C526 1.398 . S
C526 H514 0.950 . S
C526 C525 1.398 . S
C526 C527 1.391 . S
C527 H515 0.950 . S
C527 C523 1.393 . S
C527 C526 1.391 . S
H528 C536 0.950 . S
H529 C541 0.950 . S
H530 C538 0.950 . S
H531 C540 0.950 . S
H532 C542 0.950 . S
H533 C544 0.950 . S
H534 C546 0.950 . S
H535 C547 0.950 . S
C536 H528 0.950 . S
C536 C537 1.386 . S
C536 C538 1.391 . S
C537 C536 1.386 . S
C537 C541 1.393 . S
C538 H530 0.950 . S
C538 C536 1.391 . S
C538 C539 1.400 . S
C539 C538 1.400 . S
C539 C540 1.398 . S
C539 C545 1.491 . S
C540 H531 0.950 . S
C540 C539 1.398 . S
C540 C541 1.391 . S
C541 H529 0.950 . S
C541 C537 1.393 . S
C541 C540 1.391 . S
C542 H532 0.950 . S
C542 C543 1.386 . S
C542 C544 1.391 . S
C543 C542 1.386 . S
C543 C547 1.393 . S
C544 H533 0.950 . S
C544 C542 1.391 . S
C544 C545 1.400 . S
C545 C539 1.491 . S
C545 C544 1.400 . S
C545 C546 1.398 . S
C546 H534 0.950 . S
C546 C545 1.398 . S
C546 C547 1.391 . S
C547 H535 0.950 . S
C547 C543 1.393 . S
C547 C546 1.391 . S
H548 C556 0.950 . S
H549 C561 0.950 . S
H550 C558 0.950 . S
H551 C560 0.950 . S
H552 C562 0.950 . S
H553 C564 0.950 . S
H554 C566 0.950 . S
H555 C567 0.950 . S
C556 H548 0.950 . S
C556 C557 1.386 . S
C556 C558 1.391 . S
C557 C556 1.386 . S
C557 C561 1.393 . S
C558 H550 0.950 . S
C558 C556 1.391 . S
C558 C559 1.400 . S
C559 C558 1.400 . S
C559 C560 1.398 . S
C559 C565 1.491 . S
C560 H551 0.950 . S
C560 C559 1.398 . S
C560 C561 1.391 . S
C561 H549 0.950 . S
C561 C557 1.393 . S
C561 C560 1.391 . S
C562 H552 0.950 . S
C562 C563 1.386 . S
C562 C564 1.391 . S
C563 C562 1.386 . S
C563 C567 1.393 . S
C564 H553 0.950 . S
C564 C562 1.391 . S
C564 C565 1.400 . S
C565 C559 1.491 . S
C565 C564 1.400 . S
C565 C566 1.398 . S
C566 H554 0.950 . S
C566 C565 1.398 . S
C566 C567 1.391 . S
C567 H555 0.950 . S
C567 C563 1.393 . S
C567 C566 1.391 . S
H568 C576 0.950 . S
H569 C581 0.950 . S
H570 C578 0.950 . S
H571 C580 0.950 . S
H572 C582 0.950 . S
H573 C584 0.950 . S
H574 C586 0.950 . S
H575 C587 0.950 . S
C576 H568 0.950 . S
C576 C577 1.386 . S
C576 C578 1.391 . S
C577 C576 1.386 . S
C577 C581 1.393 . S
C578 H570 0.950 . S
C578 C576 1.391 . S
C578 C579 1.400 . S
C579 C578 1.400 . S
C579 C580 1.398 . S
C579 C585 1.491 . S
C580 H571 0.950 . S
C580 C579 1.398 . S
C580 C581 1.391 . S
C581 H569 0.950 . S
C581 C577 1.393 . S
C581 C580 1.391 . S
C582 H572 0.950 . S
C582 C583 1.386 . S
C582 C584 1.391 . S
C583 C582 1.386 . S
C583 C587 1.393 . S
C584 H573 0.950 . S
C584 C582 1.391 . S
C584 C585 1.400 . S
C585 C579 1.491 . S
C585 C584 1.400 . S
C585 C586 1.398 . S
C586 H574 0.950 . S
C586 C585 1.398 . S
C586 C587 1.391 . S
C587 H575 0.950 . S
C587 C583 1.393 . S
C587 C586 1.391 . S
H588 C596 0.950 . S
H589 C601 0.950 . S
H590 C598 0.950 . S
H591 C600 0.950 . S
H592 C602 0.950 . S
H593 C604 0.950 . S
H594 C606 0.950 . S
H595 C607 0.950 . S
C596 H588 0.950 . S
C596 C597 1.386 . S
C596 C598 1.391 . S
C597 C596 1.386 . S
C597 C601 1.393 . S
C598 H590 0.950 . S
C598 C596 1.391 . S
C598 C599 1.400 . S
C599 C598 1.400 . S
C599 C600 1.398 . S
C599 C605 1.491 . S
C600 H591 0.950 . S
C600 C599 1.398 . S
C600 C601 1.391 . S
C601 H589 0.950 . S
C601 C597 1.393 . S
C601 C600 1.391 . S
C602 H592 0.950 . S
C602 C603 1.386 . S
C602 C604 1.391 . S
C603 C602 1.386 . S
C603 C607 1.393 . S
C604 H593 0.950 . S
C604 C602 1.391 . S
C604 C605 1.400 . S
C605 C599 1.491 . S
C605 C604 1.400 . S
C605 C606 1.398 . S
C606 H594 0.950 . S
C606 C605 1.398 . S
C606 C607 1.391 . S
C607 H595 0.950 . S
C607 C603 1.393 . S
C607 C606 1.391 . S
H608 C616 0.950 . S
H609 C621 0.950 . S
H610 C618 0.950 . S
H611 C620 0.950 . S
H612 C622 0.950 . S
H613 C624 0.950 . S
H614 C626 0.950 . S
H615 C627 0.950 . S
C616 H608 0.950 . S
C616 C617 1.386 . S
C616 C618 1.391 . S
C617 C616 1.386 . S
C617 C621 1.393 . S
C618 H610 0.950 . S
C618 C616 1.391 . S
C618 C619 1.400 . S
C619 C618 1.400 . S
C619 C620 1.398 . S
C619 C625 1.491 . S
C620 H611 0.950 . S
C620 C619 1.398 . S
C620 C621 1.391 . S
C621 H609 0.950 . S
C621 C617 1.393 . S
C621 C620 1.391 . S
C622 H612 0.950 . S
C622 C623 1.386 . S
C622 C624 1.391 . S
C623 C622 1.386 . S
C623 C627 1.393 . S
C624 H613 0.950 . S
C624 C622 1.391 . S
C624 C625 1.400 . S
C625 C619 1.491 . S
C625 C624 1.400 . S
C625 C626 1.398 . S
C626 H614 0.950 . S
C626 C625 1.398 . S
C626 C627 1.391 . S
C627 H615 0.950 . S
C627 C623 1.393 . S
C627 C626 1.391 . S
H628 C636 0.950 . S
H629 C641 0.950 . S
H630 C638 0.950 . S
H631 C640 0.950 . S
H632 C642 0.950 . S
H633 C644 0.950 . S
H634 C646 0.950 . S
H635 C647 0.950 . S
C636 H628 0.950 . S
C636 C637 1.386 . S
C636 C638 1.391 . S
C637 C636 1.386 . S
C637 C641 1.393 . S
C638 H630 0.950 . S
C638 C636 1.391 . S
C638 C639 1.400 . S
C639 C638 1.400 . S
C639 C640 1.398 . S
C639 C645 1.491 . S
C640 H631 0.950 . S
C640 C639 1.398 . S
C640 C641 1.391 . S
C641 H629 0.950 . S
C641 C637 1.393 . S
C641 C640 1.391 . S
C642 H632 0.950 . S
C642 C643 1.386 . S
C642 C644 1.391 . S
C643 C642 1.386 . S
C643 C647 1.393 . S
C644 H633 0.950 . S
C644 C642 1.391 . S
C644 C645 1.400 . S
C645 C639 1.491 . S
C645 C644 1.400 . S
C645 C646 1.398 . S
C646 H634 0.950 . S
C646 C645 1.398 . S
C646 C647 1.391 . S
C647 H635 0.950 . S
C647 C643 1.393 . S
C647 C646 1.391 . S
C177 C3 1.582 . S
C183 C87 1.581 . S
C197 C17 1.577 . S
C203 C101 1.584 . S
C217 C31 1.490 . S
C223 C115 1.501 . S
C237 C129 1.587 . S
C243 C45 1.572 . S
C257 C59 1.582 . S
C263 C143 1.581 . S
C277 C157 1.493 . S
C283 C73 1.489 . S
C297 C7 1.044 . S
C303 C133 1.009 . S
C317 C21 1.032 . S
C323 C147 1.049 . S
C337 C161 0.956 . S
C343 C35 0.993 . S
C357 C91 1.025 . S
C363 C49 1.051 . S
C377 C63 1.017 . S
C383 C105 1.052 . S
C397 C77 0.960 . S
C403 C119 0.971 . S
C417 C162 1.732 . S
C423 C8 1.724 . S
C437 C22 1.905 . S
C443 C92 1.903 . S
C457 C36 1.723 . S
C463 C106 1.717 . S
C477 C120 1.732 . S
C483 C50 1.725 . S
C497 C134 1.894 . S
C503 C64 1.893 . S
C517 C78 1.722 . S
C523 C148 1.716 . S
C537 C9 0.901 . S
C543 C149 0.895 . S
C557 C163 1.073 . S
C563 C23 1.070 . S
C577 C93 1.068 . S
C583 C37 1.078 . S
C597 C51 0.959 . S
C603 C107 0.962 . S
C617 C121 1.067 . S
C623 C65 1.082 . S
C637 C135 1.074 . S
C643 C79 1.083 . S
