# Generated by pormake.
# Topology pcb, (4)-cn, num edge types: 1
# Building blocks:
#     Node 0, Type 0, BuildingBlock: KUFVIS_clean_sbu_0, # of connection points: 4
#     Node 1, Type 0, BuildingBlock: KUFVIS_clean_sbu_0, # of connection points: 4
#     Node 2, Type 0, BuildingBlock: KUFVIS_clean_sbu_0, # of connection points: 4
#     Node 3, Type 0, BuildingBlock: KUFVIS_clean_sbu_0, # of connection points: 4
#     Node 4, Type 0, BuildingBlock: KUFVIS_clean_sbu_0, # of connection points: 4
#     Node 5, Type 0, BuildingBlock: KUFVIS_clean_sbu_0, # of connection points: 4
#     Node 6, Type 0, BuildingBlock: KUFVIS_clean_sbu_0, # of connection points: 4
#     Node 7, Type 0, BuildingBlock: KUFVIS_clean_sbu_0, # of connection points: 4
#     Node 8, Type 0, BuildingBlock: KUFVIS_clean_sbu_0, # of connection points: 4
#     Node 9, Type 0, BuildingBlock: KUFVIS_clean_sbu_0, # of connection points: 4
#     Node 10, Type 0, BuildingBlock: KUFVIS_clean_sbu_0, # of connection points: 4
#     Node 11, Type 0, BuildingBlock: KUFVIS_clean_sbu_0, # of connection points: 4
#     Node 12, Type 0, BuildingBlock: KUFVIS_clean_sbu_0, # of connection points: 4
#     Node 13, Type 0, BuildingBlock: KUFVIS_clean_sbu_0, # of connection points: 4
#     Node 14, Type 0, BuildingBlock: KUFVIS_clean_sbu_0, # of connection points: 4
#     Node 15, Type 0, BuildingBlock: KUFVIS_clean_sbu_0, # of connection points: 4
#     Edge 16, Type (0, 0), BuildingBlock: TEMPAE_clean_linker_10, # of connection points: 2
#     Edge 17, Type (0, 0), BuildingBlock: TEMPAE_clean_linker_10, # of connection points: 2
#     Edge 18, Type (0, 0), BuildingBlock: TEMPAE_clean_linker_10, # of connection points: 2
#     Edge 19, Type (0, 0), BuildingBlock: TEMPAE_clean_linker_10, # of connection points: 2
#     Edge 20, Type (0, 0), BuildingBlock: TEMPAE_clean_linker_10, # of connection points: 2
#     Edge 21, Type (0, 0), BuildingBlock: TEMPAE_clean_linker_10, # of connection points: 2
#     Edge 22, Type (0, 0), BuildingBlock: TEMPAE_clean_linker_10, # of connection points: 2
#     Edge 23, Type (0, 0), BuildingBlock: TEMPAE_clean_linker_10, # of connection points: 2
#     Edge 24, Type (0, 0), BuildingBlock: TEMPAE_clean_linker_10, # of connection points: 2
#     Edge 25, Type (0, 0), BuildingBlock: TEMPAE_clean_linker_10, # of connection points: 2
#     Edge 26, Type (0, 0), BuildingBlock: TEMPAE_clean_linker_10, # of connection points: 2
#     Edge 27, Type (0, 0), BuildingBlock: TEMPAE_clean_linker_10, # of connection points: 2
#     Edge 28, Type (0, 0), BuildingBlock: TEMPAE_clean_linker_10, # of connection points: 2
#     Edge 29, Type (0, 0), BuildingBlock: TEMPAE_clean_linker_10, # of connection points: 2
#     Edge 30, Type (0, 0), BuildingBlock: TEMPAE_clean_linker_10, # of connection points: 2
#     Edge 31, Type (0, 0), BuildingBlock: TEMPAE_clean_linker_10, # of connection points: 2
#     Edge 32, Type (0, 0), BuildingBlock: TEMPAE_clean_linker_10, # of connection points: 2
#     Edge 33, Type (0, 0), BuildingBlock: TEMPAE_clean_linker_10, # of connection points: 2
#     Edge 34, Type (0, 0), BuildingBlock: TEMPAE_clean_linker_10, # of connection points: 2
#     Edge 35, Type (0, 0), BuildingBlock: TEMPAE_clean_linker_10, # of connection points: 2
#     Edge 36, Type (0, 0), BuildingBlock: TEMPAE_clean_linker_10, # of connection points: 2
#     Edge 37, Type (0, 0), BuildingBlock: TEMPAE_clean_linker_10, # of connection points: 2
#     Edge 38, Type (0, 0), BuildingBlock: TEMPAE_clean_linker_10, # of connection points: 2
#     Edge 39, Type (0, 0), BuildingBlock: TEMPAE_clean_linker_10, # of connection points: 2
#     Edge 40, Type (0, 0), BuildingBlock: TEMPAE_clean_linker_10, # of connection points: 2
#     Edge 41, Type (0, 0), BuildingBlock: TEMPAE_clean_linker_10, # of connection points: 2
#     Edge 42, Type (0, 0), BuildingBlock: TEMPAE_clean_linker_10, # of connection points: 2
#     Edge 43, Type (0, 0), BuildingBlock: TEMPAE_clean_linker_10, # of connection points: 2
#     Edge 44, Type (0, 0), BuildingBlock: TEMPAE_clean_linker_10, # of connection points: 2
#     Edge 45, Type (0, 0), BuildingBlock: TEMPAE_clean_linker_10, # of connection points: 2
#     Edge 46, Type (0, 0), BuildingBlock: TEMPAE_clean_linker_10, # of connection points: 2
#     Edge 47, Type (0, 0), BuildingBlock: TEMPAE_clean_linker_10, # of connection points: 2
# Relax obj value: 0.289
# Max RMSD: 0.149
# Mean RMSD: 0.149
data_MOF--net-pcb--node1-KUFVIS_clean_sbu_0--edge1-TEMPAE_clean_linker_10
_symmetry_space_group_name_H-M    P1
_symmetry_Int_Tables_number       1
_symmetry_cell_setting            triclinic
loop_
_symmetry_equiv_pos_as_xyz
'x, y, z'
_cell_length_a     39.310438
_cell_length_b     49.280916
_cell_length_c     49.283495
_cell_angle_alpha  89.99711
_cell_angle_beta   89.998048
_cell_angle_gamma 90.000137
loop_
_atom_site_label
_atom_site_type_symbol
_atom_site_fract_x
_atom_site_fract_y
_atom_site_fract_z
_atom_type_partial_charge
Mn0 Mn 0.178 0.16838 0.13408 0.0
Mn1 Mn 0.13748 0.22196 0.10574 0.0
C2 C 0.12388 0.18036 0.14858 0.0
C3 C 0.19239 0.12234 0.13658 0.0
C4 C 0.19386 0.22788 0.14733 0.0
O5 O 0.20318 0.17314 0.09824 0.0
O6 O 0.17352 0.20825 0.08096 0.0
C7 C 0.10558 0.19589 0.05786 0.0
N8 N 0.10269 0.21074 0.08107 0.0
C9 C 0.04344 0.21943 0.07241 0.0
C10 C 0.04584 0.20437 0.04834 0.0
C11 C 0.077 0.19241 0.04113 0.0
C12 C 0.07276 0.22216 0.08829 0.0
H13 H 0.12953 0.1869 0.05204 0.0
C14 C 0.19623 0.18965 0.07903 0.0
O15 O 0.21156 0.14101 0.14704 0.0
O16 O 0.16524 0.13045 0.12391 0.0
N17 N 0.10121 0.23654 0.12713 0.0
C18 C 0.10242 0.24811 0.15222 0.0
C19 C 0.07268 0.25922 0.16344 0.0
C20 C 0.04217 0.25866 0.1486 0.0
C21 C 0.04157 0.24666 0.12281 0.0
C22 C 0.0719 0.23565 0.11281 0.0
H23 H 0.12584 0.24869 0.16365 0.0
O24 O 0.14438 0.16702 0.16438 0.0
O25 O 0.13576 0.18677 0.12478 0.0
O26 O 0.19962 0.20263 0.15033 0.0
O27 O 0.17176 0.23699 0.13078 0.0
C28 C 0.01197 0.24485 0.10679 0.0
C29 C 0.01293 0.23132 0.08156 0.0
H30 H 0.02383 0.2016 0.0354 0.0
H31 H 0.07904 0.18067 0.02264 0.0
H32 H 0.0733 0.26831 0.18342 0.0
H33 H 0.01932 0.26732 0.1573 0.0
H34 H 0.9882 0.25345 0.11383 0.0
H35 H 0.98986 0.22964 0.06966 0.0
Mn36 Mn 0.82084 0.13488 0.16622 0.0
Mn37 Mn 0.86187 0.10694 0.21976 0.0
C38 C 0.87483 0.14982 0.17805 0.0
C39 C 0.80618 0.1372 0.12024 0.0
C40 C 0.80503 0.14811 0.22574 0.0
O41 O 0.7961 0.09886 0.17111 0.0
O42 O 0.82609 0.08186 0.20617 0.0
C43 C 0.89426 0.05926 0.19371 0.0
N44 N 0.89692 0.08251 0.20852 0.0
C45 C 0.95626 0.07424 0.21722 0.0
C46 C 0.9541 0.05014 0.20219 0.0
C47 C 0.92302 0.04272 0.19024 0.0
C48 C 0.92678 0.08995 0.21992 0.0
H49 H 0.87037 0.05327 0.18473 0.0
C50 C 0.80333 0.07973 0.18764 0.0
O51 O 0.78698 0.14754 0.13896 0.0
O52 O 0.83353 0.12477 0.12827 0.0
N53 N 0.89794 0.12862 0.23425 0.0
C54 C 0.89647 0.15371 0.24579 0.0
C55 C 0.92608 0.16513 0.25691 0.0
C56 C 0.95673 0.15047 0.25639 0.0
C57 C 0.95761 0.12468 0.24439 0.0
C58 C 0.92739 0.11449 0.23337 0.0
H59 H 0.87293 0.16498 0.24637 0.0
O60 O 0.85409 0.16544 0.16474 0.0
O61 O 0.86326 0.12594 0.18453 0.0
O62 O 0.79916 0.15102 0.2005 0.0
O63 O 0.82736 0.13175 0.23483 0.0
C64 C 0.98736 0.10884 0.24262 0.0
C65 C 0.98667 0.0836 0.22912 0.0
H66 H 0.97624 0.03734 0.19944 0.0
H67 H 0.92117 0.0242 0.17852 0.0
H68 H 0.92525 0.18511 0.26599 0.0
H69 H 0.97948 0.15931 0.26508 0.0
H70 H 0.01105 0.11603 0.25124 0.0
H71 H 0.00985 0.07184 0.22746 0.0
Mn72 Mn 0.82124 0.83865 0.13444 0.0
Mn73 Mn 0.86176 0.78502 0.10619 0.0
C74 C 0.87539 0.82672 0.14891 0.0
C75 C 0.80684 0.88469 0.13688 0.0
C76 C 0.80544 0.77916 0.14784 0.0
O77 O 0.79601 0.83381 0.09863 0.0
O78 O 0.82564 0.79864 0.08143 0.0
C79 C 0.89351 0.81099 0.0582 0.0
N80 N 0.89647 0.79621 0.08144 0.0
C81 C 0.95571 0.78754 0.0727 0.0
C82 C 0.95324 0.80254 0.0486 0.0
C83 C 0.92205 0.81445 0.04142 0.0
C84 C 0.92644 0.78483 0.08865 0.0
H85 H 0.86954 0.81995 0.05239 0.0
C86 C 0.80292 0.81722 0.07947 0.0
O87 O 0.78768 0.86603 0.14739 0.0
O88 O 0.83396 0.87656 0.12419 0.0
N89 N 0.8981 0.77052 0.12756 0.0
C90 C 0.89696 0.75901 0.15268 0.0
C91 C 0.92673 0.74794 0.16388 0.0
C92 C 0.9572 0.74848 0.14899 0.0
C93 C 0.95774 0.76043 0.12317 0.0
C94 C 0.92737 0.7714 0.11319 0.0
H95 H 0.87356 0.75843 0.16415 0.0
O96 O 0.85489 0.84007 0.16471 0.0
O97 O 0.86348 0.82026 0.12514 0.0
O98 O 0.79965 0.80441 0.15077 0.0
O99 O 0.82756 0.77002 0.13132 0.0
C100 C 0.98729 0.76222 0.1071 0.0
C101 C 0.98626 0.77568 0.08184 0.0
H102 H 0.97521 0.80529 0.03562 0.0
H103 H 0.91996 0.82615 0.0229 0.0
H104 H 0.92617 0.73889 0.18388 0.0
H105 H 0.98009 0.73985 0.15767 0.0
H106 H 0.01108 0.75365 0.11412 0.0
H107 H 0.0093 0.77736 0.0699 0.0
Mn108 Mn 0.17852 0.87216 0.16613 0.0
Mn109 Mn 0.13756 0.90028 0.21961 0.0
C110 C 0.12451 0.85731 0.17803 0.0
C111 C 0.19313 0.86965 0.12014 0.0
C112 C 0.19431 0.85904 0.22568 0.0
O113 O 0.20331 0.90817 0.17088 0.0
O114 O 0.17342 0.92526 0.20596 0.0
C115 C 0.10532 0.94796 0.19343 0.0
N116 N 0.10259 0.92475 0.2083 0.0
C117 C 0.04328 0.93317 0.217 0.0
C118 C 0.0455 0.95722 0.20189 0.0
C119 C 0.07661 0.96455 0.18992 0.0
C120 C 0.07271 0.91741 0.21973 0.0
H121 H 0.12923 0.95388 0.18443 0.0
C122 C 0.19615 0.92734 0.1874 0.0
O123 O 0.21233 0.85936 0.13889 0.0
O124 O 0.16581 0.88215 0.12814 0.0
N125 N 0.10143 0.87871 0.23416 0.0
C126 C 0.10283 0.85365 0.24578 0.0
C127 C 0.07319 0.84233 0.25695 0.0
C128 C 0.04258 0.85705 0.2564 0.0
C129 C 0.04178 0.8828 0.24432 0.0
C130 C 0.07203 0.89291 0.23326 0.0
H131 H 0.12633 0.84233 0.24639 0.0
O132 O 0.14522 0.84162 0.16476 0.0
O133 O 0.13611 0.8812 0.18443 0.0
O134 O 0.20019 0.85609 0.20045 0.0
O135 O 0.172 0.87544 0.23474 0.0
C136 C 0.01207 0.8987 0.24251 0.0
C137 C 0.01284 0.92391 0.22893 0.0
H138 H 0.02341 0.97006 0.19912 0.0
H139 H 0.07851 0.98303 0.17815 0.0
H140 H 0.07396 0.82238 0.26609 0.0
H141 H 0.01981 0.84828 0.26513 0.0
H142 H 0.98837 0.89158 0.25116 0.0
H143 H 0.9897 0.93571 0.22725 0.0
Mn144 Mn 0.17951 0.83941 0.8705 0.0
Mn145 Mn 0.1392 0.78576 0.8989 0.0
C146 C 0.12538 0.82735 0.85609 0.0
C147 C 0.19376 0.88546 0.86797 0.0
C148 C 0.19546 0.77993 0.85719 0.0
O149 O 0.20479 0.8347 0.9063 0.0
O150 O 0.17529 0.79952 0.92361 0.0
C151 C 0.10741 0.81178 0.94686 0.0
N152 N 0.10448 0.79692 0.92366 0.0
C153 C 0.04531 0.78805 0.93252 0.0
C154 C 0.04776 0.80312 0.95657 0.0
C155 C 0.0789 0.81518 0.96368 0.0
C156 C 0.07456 0.78541 0.91653 0.0
H157 H 0.13135 0.82084 0.95261 0.0
C158 C 0.19793 0.81816 0.92551 0.0
O159 O 0.21297 0.86683 0.85748 0.0
O160 O 0.16668 0.87731 0.88069 0.0
N161 N 0.10289 0.77112 0.8776 0.0
C162 C 0.10403 0.75956 0.85251 0.0
C163 C 0.0743 0.74834 0.8414 0.0
C164 C 0.04387 0.74878 0.85634 0.0
C165 C 0.04333 0.7608 0.88213 0.0
C166 C 0.07365 0.77192 0.89202 0.0
H167 H 0.12739 0.75905 0.84101 0.0
O168 O 0.14581 0.84071 0.84025 0.0
O169 O 0.13733 0.82095 0.87987 0.0
O170 O 0.20117 0.80518 0.8542 0.0
O171 O 0.17341 0.77079 0.87377 0.0
C172 C 0.0138 0.76251 0.89825 0.0
C173 C 0.01482 0.77605 0.92347 0.0
H174 H 0.0258 0.80583 0.96958 0.0
H175 H 0.08096 0.82693 0.98216 0.0
H176 H 0.07487 0.73924 0.82142 0.0
H177 H 0.02102 0.74002 0.84773 0.0
H178 H 0.99005 0.75383 0.89129 0.0
H179 H 0.9918 0.77766 0.93544 0.0
Mn180 Mn 0.17726 0.13519 0.8385 0.0
Mn181 Mn 0.13655 0.10659 0.78516 0.0
C182 C 0.12294 0.14942 0.82675 0.0
C183 C 0.19198 0.13788 0.88445 0.0
C184 C 0.19245 0.14853 0.7789 0.0
O185 O 0.20269 0.09948 0.8337 0.0
O186 O 0.17305 0.0821 0.79864 0.0
C187 C 0.10554 0.05849 0.81151 0.0
N188 N 0.10221 0.08163 0.79661 0.0
C189 C 0.04305 0.07236 0.78816 0.0
C190 C 0.0459 0.04836 0.80328 0.0
C191 C 0.07723 0.04149 0.81515 0.0
C192 C 0.0721 0.08854 0.7853 0.0
H193 H 0.12963 0.05292 0.82042 0.0
C194 C 0.19588 0.08028 0.81714 0.0
O195 O 0.21094 0.14838 0.86566 0.0
O196 O 0.16487 0.12506 0.87651 0.0
N197 N 0.09986 0.12763 0.77075 0.0
C198 C 0.10062 0.15271 0.75911 0.0
C199 C 0.07067 0.16357 0.74801 0.0
C200 C 0.04042 0.14841 0.74866 0.0
C201 C 0.04026 0.12266 0.76077 0.0
C202 C 0.07079 0.11301 0.77175 0.0
H203 H 0.12385 0.16437 0.75844 0.0
O204 O 0.14343 0.16535 0.83996 0.0
O205 O 0.13493 0.12566 0.82033 0.0
O206 O 0.1985 0.15148 0.8041 0.0
O207 O 0.17034 0.13192 0.7699 0.0
C208 C 0.01093 0.10634 0.76271 0.0
C209 C 0.01234 0.08117 0.77632 0.0
H210 H 0.02411 0.03521 0.80616 0.0
H211 H 0.07962 0.02306 0.82693 0.0
H212 H 0.07094 0.18353 0.73885 0.0
H213 H 0.01741 0.15682 0.73998 0.0
H214 H 0.98702 0.11312 0.75415 0.0
H215 H 0.98947 0.06904 0.77811 0.0
Mn216 Mn 0.81931 0.16633 0.87043 0.0
Mn217 Mn 0.85968 0.22 0.89871 0.0
C218 C 0.87344 0.17835 0.85596 0.0
C219 C 0.80504 0.12028 0.86795 0.0
C220 C 0.80339 0.2258 0.85704 0.0
O221 O 0.79408 0.17109 0.90624 0.0
O222 O 0.82358 0.20633 0.92344 0.0
C223 C 0.89143 0.19404 0.94672 0.0
N224 N 0.89439 0.20886 0.92349 0.0
C225 C 0.95356 0.2177 0.93234 0.0
C226 C 0.9511 0.20266 0.95642 0.0
C227 C 0.91994 0.19065 0.96354 0.0
C228 C 0.92432 0.22033 0.91634 0.0
H229 H 0.86748 0.18501 0.95248 0.0
C230 C 0.80093 0.18769 0.9254 0.0
O231 O 0.78583 0.13891 0.85746 0.0
O232 O 0.83214 0.12844 0.88064 0.0
N233 N 0.89602 0.23458 0.87739 0.0
C234 C 0.8949 0.24612 0.85228 0.0
C235 C 0.92464 0.2573 0.84115 0.0
C236 C 0.95507 0.25686 0.8561 0.0
C237 C 0.95559 0.24487 0.8819 0.0
C238 C 0.92526 0.23378 0.89181 0.0
H239 H 0.87153 0.24663 0.84077 0.0
O240 O 0.85297 0.16499 0.84015 0.0
O241 O 0.86152 0.18478 0.87974 0.0
O242 O 0.79764 0.20054 0.85412 0.0
O243 O 0.8255 0.23496 0.87356 0.0
C244 C 0.98511 0.24316 0.89803 0.0
C245 C 0.98408 0.22966 0.92327 0.0
H246 H 0.97304 0.19997 0.96943 0.0
H247 H 0.91785 0.17893 0.98204 0.0
H248 H 0.92409 0.26637 0.82116 0.0
H249 H 0.97792 0.2656 0.84748 0.0
H250 H 0.00888 0.25182 0.89106 0.0
H251 H 0.00709 0.22806 0.93525 0.0
Mn252 Mn 0.82159 0.87056 0.83871 0.0
Mn253 Mn 0.86228 0.89901 0.78527 0.0
C254 C 0.87588 0.85626 0.82696 0.0
C255 C 0.80692 0.86804 0.88468 0.0
C256 C 0.80632 0.8571 0.77915 0.0
O257 O 0.79619 0.90627 0.83382 0.0
O258 O 0.82583 0.92356 0.79871 0.0
C259 C 0.89337 0.94714 0.81149 0.0
N260 N 0.89666 0.92396 0.79664 0.0
C261 C 0.95583 0.93317 0.78814 0.0
C262 C 0.95302 0.9572 0.8032 0.0
C263 C 0.92171 0.96412 0.81507 0.0
C264 C 0.92676 0.91701 0.78533 0.0
H265 H 0.8693 0.95274 0.82041 0.0
C266 C 0.80301 0.92544 0.81722 0.0
O267 O 0.78793 0.85748 0.86594 0.0
O268 O 0.83404 0.8808 0.87667 0.0
N269 N 0.89894 0.8779 0.77089 0.0
C270 C 0.89814 0.8528 0.75932 0.0
C271 C 0.92807 0.84188 0.74824 0.0
C272 C 0.95833 0.85703 0.74882 0.0
C273 C 0.95853 0.8828 0.76087 0.0
C274 C 0.92802 0.8925 0.77184 0.0
H275 H 0.8749 0.84114 0.75871 0.0
O276 O 0.85539 0.84039 0.84022 0.0
O277 O 0.86391 0.88002 0.82049 0.0
O278 O 0.80029 0.85421 0.80437 0.0
O279 O 0.82845 0.87366 0.7701 0.0
C280 C 0.98789 0.8991 0.76275 0.0
C281 C 0.98652 0.9243 0.7763 0.0
H282 H 0.97483 0.97034 0.80604 0.0
H283 H 0.91935 0.98259 0.82681 0.0
H284 H 0.92777 0.8219 0.73914 0.0
H285 H 0.98133 0.84857 0.74016 0.0
H286 H 0.01178 0.89229 0.7542 0.0
H287 H 0.00941 0.93642 0.77805 0.0
Mn288 Mn 0.67914 0.6665 0.63426 0.0
Mn289 Mn 0.63931 0.72037 0.60586 0.0
C290 C 0.62508 0.67882 0.64862 0.0
C291 C 0.69304 0.62036 0.63677 0.0
C292 C 0.69554 0.72588 0.64763 0.0
O293 O 0.70455 0.67114 0.59851 0.0
O294 O 0.67531 0.70645 0.58118 0.0
C295 C 0.60736 0.69458 0.55786 0.0
N296 N 0.60452 0.70942 0.58108 0.0
C297 C 0.54541 0.71853 0.57225 0.0
C298 C 0.54775 0.70348 0.54817 0.0
C299 C 0.57882 0.69132 0.54104 0.0
C300 C 0.57468 0.72104 0.58823 0.0
H301 H 0.63124 0.68544 0.5521 0.0
C302 C 0.69785 0.68772 0.5793 0.0
O303 O 0.71236 0.6389 0.64731 0.0
O304 O 0.66605 0.62867 0.62402 0.0
N305 N 0.6031 0.73518 0.62716 0.0
C306 C 0.60432 0.74673 0.65226 0.0
C307 C 0.57466 0.75804 0.6634 0.0
C308 C 0.54422 0.75771 0.64847 0.0
C309 C 0.5436 0.74572 0.62267 0.0
C310 C 0.57385 0.73451 0.61275 0.0
H311 H 0.6277 0.74717 0.66375 0.0
O312 O 0.64536 0.66533 0.66447 0.0
O313 O 0.63714 0.68518 0.62486 0.0
O314 O 0.70102 0.7006 0.65064 0.0
O315 O 0.67362 0.73515 0.63101 0.0
C316 C 0.51405 0.74413 0.60656 0.0
C317 C 0.51498 0.73063 0.58132 0.0
H318 H 0.52578 0.70088 0.53516 0.0
H319 H 0.58081 0.67959 0.52254 0.0
H320 H 0.57529 0.76712 0.68338 0.0
H321 H 0.52142 0.76653 0.65711 0.0
H322 H 0.49035 0.75289 0.61354 0.0
H323 H 0.49195 0.72912 0.56935 0.0
Mn324 Mn 0.32145 0.63552 0.6659 0.0
Mn325 Mn 0.36226 0.60714 0.71931 0.0
C326 C 0.37562 0.65004 0.67773 0.0
C327 C 0.30681 0.63814 0.61993 0.0
C328 C 0.30594 0.64873 0.72548 0.0
O329 O 0.29632 0.59965 0.67067 0.0
O330 O 0.3261 0.58239 0.70572 0.0
C331 C 0.39392 0.55925 0.69307 0.0
N332 N 0.39693 0.58243 0.70795 0.0
C333 C 0.45616 0.57359 0.71657 0.0
C334 C 0.45364 0.54955 0.70147 0.0
C335 C 0.42244 0.54245 0.68953 0.0
C336 C 0.42692 0.58956 0.71934 0.0
H337 H 0.36993 0.5535 0.6841 0.0
C338 C 0.30332 0.58046 0.68719 0.0
O339 O 0.28772 0.64854 0.63869 0.0
O340 O 0.33401 0.62546 0.62791 0.0
N341 N 0.39865 0.62845 0.7338 0.0
C342 C 0.39756 0.65353 0.74542 0.0
C343 C 0.42734 0.66463 0.75656 0.0
C344 C 0.45778 0.64969 0.75598 0.0
C345 C 0.45827 0.62393 0.7439 0.0
C346 C 0.42789 0.61405 0.73287 0.0
H347 H 0.37419 0.66502 0.74604 0.0
O348 O 0.35503 0.66586 0.66449 0.0
O349 O 0.3638 0.62622 0.68414 0.0
O350 O 0.29999 0.65171 0.70026 0.0
O351 O 0.32813 0.63221 0.7345 0.0
C352 C 0.4878 0.60782 0.74206 0.0
C353 C 0.48672 0.58263 0.72848 0.0
H354 H 0.47559 0.53656 0.69866 0.0
H355 H 0.42031 0.52399 0.67775 0.0
H356 H 0.42681 0.68459 0.7657 0.0
H357 H 0.48066 0.65829 0.76469 0.0
H358 H 0.51159 0.61477 0.75068 0.0
H359 H 0.50973 0.57067 0.72676 0.0
Mn360 Mn 0.31904 0.33927 0.63393 0.0
Mn361 Mn 0.35899 0.28549 0.60547 0.0
C362 C 0.37307 0.32694 0.64835 0.0
C363 C 0.30511 0.3854 0.63649 0.0
C364 C 0.30266 0.27985 0.64715 0.0
O365 O 0.29373 0.3347 0.59812 0.0
O366 O 0.32304 0.29946 0.58075 0.0
C367 C 0.39105 0.31142 0.55759 0.0
N368 N 0.39384 0.29652 0.58077 0.0
C369 C 0.45298 0.28744 0.57201 0.0
C370 C 0.45069 0.30256 0.54797 0.0
C371 C 0.41963 0.31473 0.54082 0.0
C372 C 0.42367 0.28489 0.58794 0.0
H373 H 0.36718 0.32058 0.55181 0.0
C374 C 0.3005 0.31818 0.57888 0.0
O375 O 0.28577 0.36684 0.64697 0.0
O376 O 0.33214 0.37713 0.62378 0.0
N377 N 0.39516 0.27064 0.62679 0.0
C378 C 0.39388 0.25903 0.65187 0.0
C379 C 0.42352 0.2477 0.66302 0.0
C380 C 0.454 0.24807 0.64814 0.0
C381 C 0.45467 0.26012 0.62237 0.0
C382 C 0.42444 0.27135 0.61243 0.0
H383 H 0.37048 0.25858 0.66332 0.0
O384 O 0.35273 0.34039 0.66419 0.0
O385 O 0.36108 0.32063 0.62456 0.0
O386 O 0.29714 0.30512 0.6502 0.0
O387 O 0.32462 0.27064 0.63054 0.0
C388 C 0.48426 0.26176 0.6063 0.0
C389 C 0.48338 0.27533 0.5811 0.0
H390 H 0.47269 0.3052 0.535 0.0
H391 H 0.41768 0.32652 0.52235 0.0
H392 H 0.42284 0.23857 0.68299 0.0
H393 H 0.47678 0.23923 0.65678 0.0
H394 H 0.50794 0.25298 0.6133 0.0
H395 H 0.50644 0.27687 0.56917 0.0
Mn396 Mn 0.67658 0.37023 0.66609 0.0
Mn397 Mn 0.63577 0.39843 0.71959 0.0
C398 C 0.62243 0.35563 0.6779 0.0
C399 C 0.69121 0.36778 0.6201 0.0
C400 C 0.6922 0.3569 0.72561 0.0
O401 O 0.70166 0.4061 0.67095 0.0
O402 O 0.67183 0.42328 0.70602 0.0
C403 C 0.60391 0.44633 0.69352 0.0
N404 N 0.601 0.4231 0.70834 0.0
C405 C 0.54175 0.43177 0.71703 0.0
C406 C 0.54416 0.45586 0.702 0.0
C407 C 0.57533 0.46307 0.69005 0.0
C408 C 0.57105 0.41586 0.71973 0.0
H409 H 0.62787 0.45216 0.68455 0.0
C410 C 0.69461 0.42527 0.68749 0.0
O411 O 0.71031 0.35733 0.63883 0.0
O412 O 0.66399 0.3804 0.62813 0.0
N413 N 0.59947 0.37699 0.73406 0.0
C414 C 0.60067 0.35188 0.7456 0.0
C415 C 0.57093 0.34067 0.75671 0.0
C416 C 0.54044 0.35553 0.75619 0.0
C417 C 0.53984 0.38133 0.7442 0.0
C418 C 0.57018 0.39133 0.73318 0.0
H419 H 0.62408 0.34045 0.74617 0.0
O420 O 0.64303 0.33987 0.6646 0.0
O421 O 0.63423 0.37944 0.68437 0.0
O422 O 0.69808 0.35396 0.70038 0.0
O423 O 0.67001 0.3734 0.73469 0.0
C424 C 0.51026 0.39738 0.74242 0.0
C425 C 0.51123 0.42262 0.72892 0.0
H426 H 0.52216 0.46881 0.69924 0.0
H427 H 0.57738 0.48158 0.67833 0.0
H428 H 0.57154 0.32068 0.76578 0.0
H429 H 0.51759 0.34685 0.76487 0.0
H430 H 0.48649 0.39035 0.75103 0.0
H431 H 0.48817 0.43454 0.72726 0.0
Mn432 Mn 0.67764 0.3387 0.37027 0.0
Mn433 Mn 0.63681 0.28518 0.39841 0.0
C434 C 0.62346 0.32697 0.35572 0.0
C435 C 0.69229 0.38468 0.36787 0.0
C436 C 0.69318 0.27918 0.35684 0.0
O437 O 0.70275 0.33376 0.40611 0.0
O438 O 0.67295 0.29865 0.42323 0.0
C439 C 0.60511 0.3112 0.4464 0.0
N440 N 0.60211 0.29644 0.42314 0.0
C441 C 0.54283 0.28791 0.43184 0.0
C442 C 0.54534 0.30288 0.45596 0.0
C443 C 0.57657 0.31471 0.46317 0.0
C444 C 0.57211 0.28515 0.41591 0.0
H445 H 0.62912 0.32009 0.45223 0.0
C446 C 0.69573 0.31717 0.42524 0.0
O447 O 0.71138 0.36597 0.35738 0.0
O448 O 0.66509 0.37665 0.38051 0.0
N449 N 0.60042 0.27081 0.37699 0.0
C450 C 0.60154 0.25933 0.35186 0.0
C451 C 0.57174 0.24834 0.34064 0.0
C452 C 0.54126 0.24893 0.35552 0.0
C453 C 0.54075 0.26086 0.38135 0.0
C454 C 0.57115 0.27175 0.39135 0.0
H455 H 0.62494 0.2587 0.34041 0.0
O456 O 0.64406 0.34025 0.33995 0.0
O457 O 0.63529 0.32044 0.3795 0.0
O458 O 0.6991 0.30441 0.35395 0.0
O459 O 0.67097 0.27009 0.3733 0.0
C460 C 0.51118 0.2627 0.39741 0.0
C461 C 0.51225 0.27614 0.42268 0.0
H462 H 0.52337 0.30567 0.46893 0.0
H463 H 0.57869 0.32638 0.4817 0.0
H464 H 0.57228 0.23931 0.32063 0.0
H465 H 0.51835 0.24035 0.34682 0.0
H466 H 0.48737 0.25418 0.39037 0.0
H467 H 0.48921 0.27785 0.43461 0.0
Mn468 Mn 0.67847 0.63459 0.33858 0.0
Mn469 Mn 0.63758 0.60647 0.28507 0.0
C470 C 0.62438 0.64931 0.32676 0.0
C471 C 0.69312 0.63695 0.38456 0.0
C472 C 0.69409 0.64792 0.27906 0.0
O473 O 0.70346 0.59869 0.3337 0.0
O474 O 0.67362 0.58159 0.29861 0.0
C475 C 0.60568 0.55862 0.31121 0.0
N476 N 0.60279 0.58184 0.29637 0.0
C477 C 0.54351 0.57322 0.28775 0.0
C478 C 0.54591 0.54914 0.30281 0.0
C479 C 0.57708 0.54192 0.31473 0.0
C480 C 0.57284 0.58909 0.285 0.0
H481 H 0.62964 0.55278 0.32016 0.0
C482 C 0.69639 0.57955 0.31713 0.0
O483 O 0.71225 0.64738 0.36584 0.0
O484 O 0.66585 0.62441 0.37653 0.0
N485 N 0.60129 0.62793 0.27061 0.0
C486 C 0.60252 0.65301 0.25903 0.0
C487 C 0.57279 0.66423 0.2479 0.0
C488 C 0.54228 0.64939 0.24845 0.0
C489 C 0.54165 0.62361 0.2605 0.0
C490 C 0.57198 0.61361 0.27152 0.0
H491 H 0.62595 0.66443 0.25843 0.0
O492 O 0.64502 0.66501 0.34008 0.0
O493 O 0.63609 0.62547 0.32029 0.0
O494 O 0.70001 0.65082 0.30429 0.0
O495 O 0.67185 0.63149 0.26997 0.0
C496 C 0.51205 0.6076 0.26232 0.0
C497 C 0.51299 0.58238 0.27586 0.0
H498 H 0.52389 0.53622 0.3056 0.0
H499 H 0.57912 0.52342 0.32647 0.0
H500 H 0.57342 0.6842 0.23879 0.0
H501 H 0.51944 0.65808 0.23976 0.0
H502 H 0.48828 0.61464 0.25372 0.0
H503 H 0.48992 0.57049 0.27756 0.0
Mn504 Mn 0.32098 0.66823 0.37028 0.0
Mn505 Mn 0.36177 0.72168 0.3986 0.0
C506 C 0.3752 0.67998 0.35582 0.0
C507 C 0.30633 0.62225 0.3678 0.0
C508 C 0.3055 0.72778 0.35695 0.0
O509 O 0.29579 0.6731 0.40609 0.0
O510 O 0.32558 0.70815 0.42334 0.0
C511 C 0.39337 0.69554 0.44656 0.0
N512 N 0.39642 0.71035 0.42334 0.0
C513 C 0.45568 0.71886 0.43213 0.0
C514 C 0.45313 0.70382 0.45621 0.0
C515 C 0.42188 0.69197 0.46336 0.0
C516 C 0.42644 0.72166 0.41617 0.0
H517 H 0.36935 0.68663 0.45234 0.0
C518 C 0.30278 0.68963 0.42528 0.0
O519 O 0.28727 0.64099 0.35731 0.0
O520 O 0.3335 0.63026 0.38048 0.0
N521 N 0.3982 0.7361 0.37726 0.0
C522 C 0.39713 0.74764 0.35215 0.0
C523 C 0.42696 0.75866 0.34099 0.0
C524 C 0.45741 0.75803 0.35591 0.0
C525 C 0.45787 0.74604 0.38171 0.0
C526 C 0.42745 0.73512 0.39165 0.0
H527 H 0.37376 0.74829 0.34067 0.0
O528 O 0.35464 0.66673 0.34001 0.0
O529 O 0.36332 0.68646 0.3796 0.0
O530 O 0.29958 0.70255 0.354 0.0
O531 O 0.32766 0.73683 0.37348 0.0
C532 C 0.4874 0.74415 0.3978 0.0
C533 C 0.48629 0.73065 0.42304 0.0
H534 H 0.47507 0.70099 0.4692 0.0
H535 H 0.41972 0.68025 0.48185 0.0
H536 H 0.42646 0.76774 0.321 0.0
H537 H 0.48033 0.76663 0.34726 0.0
H538 H 0.51123 0.75268 0.39081 0.0
H539 H 0.5093 0.72891 0.43499 0.0
Mn540 Mn 0.32017 0.37236 0.33835 0.0
Mn541 Mn 0.36113 0.40065 0.28496 0.0
C542 C 0.3743 0.35771 0.32655 0.0
C543 C 0.30544 0.36982 0.38431 0.0
C544 C 0.30471 0.35915 0.27877 0.0
O545 O 0.29515 0.40826 0.33355 0.0
O546 O 0.325 0.42544 0.2985 0.0
C547 C 0.39284 0.44848 0.31128 0.0
N548 N 0.39583 0.42531 0.29638 0.0
C549 C 0.45511 0.43405 0.28788 0.0
C550 C 0.45261 0.45808 0.303 0.0
C551 C 0.42139 0.46522 0.31489 0.0
C552 C 0.42583 0.41813 0.28504 0.0
H553 H 0.36884 0.45425 0.32021 0.0
C554 C 0.3022 0.42742 0.31701 0.0
O555 O 0.28636 0.35944 0.36554 0.0
O556 O 0.33271 0.38241 0.37635 0.0
N557 N 0.39751 0.37929 0.2705 0.0
C558 C 0.39638 0.35424 0.25885 0.0
C559 C 0.42617 0.34311 0.24773 0.0
C560 C 0.45663 0.358 0.24836 0.0
C561 C 0.45716 0.38374 0.26048 0.0
C562 C 0.42678 0.39366 0.27149 0.0
H563 H 0.37299 0.34279 0.25818 0.0
O564 O 0.35365 0.34195 0.3398 0.0
O565 O 0.36258 0.38156 0.32014 0.0
O566 O 0.29871 0.35621 0.30398 0.0
O567 O 0.32697 0.37561 0.26975 0.0
C568 C 0.48672 0.3998 0.2624 0.0
C569 C 0.48568 0.42497 0.27601 0.0
H570 H 0.47458 0.47103 0.30586 0.0
H571 H 0.41927 0.48368 0.32667 0.0
H572 H 0.42561 0.32316 0.23856 0.0
H573 H 0.47951 0.34938 0.23967 0.0
H574 H 0.51053 0.39282 0.25381 0.0
H575 H 0.50872 0.4369 0.27778 0.0
C576 C 0.25976 0.32464 0.26695 0.0
C577 C 0.28706 0.34118 0.25894 0.0
C578 C 0.24454 0.30635 0.24868 0.0
C579 C 0.25715 0.30425 0.22182 0.0
C580 C 0.28451 0.32098 0.21356 0.0
C581 C 0.29893 0.33932 0.23209 0.0
C582 C 0.21509 0.28914 0.25818 0.0
C583 C 0.29893 0.31923 0.1852 0.0
C584 C 0.23853 0.23947 0.18215 0.0
C585 C 0.2116 0.24765 0.16531 0.0
C586 C 0.25378 0.25771 0.20045 0.0
C587 C 0.2416 0.28472 0.20225 0.0
C588 C 0.21463 0.29315 0.1852 0.0
C589 C 0.20015 0.27464 0.16687 0.0
C590 C 0.2828 0.24802 0.21802 0.0
C591 C 0.20067 0.32168 0.18661 0.0
H592 H 0.25034 0.32587 0.28759 0.0
H593 H 0.32014 0.35179 0.22561 0.0
H594 H 0.19267 0.29257 0.24494 0.0
H595 H 0.22182 0.26733 0.25662 0.0
H596 H 0.20778 0.2936 0.27949 0.0
H597 H 0.32045 0.33349 0.182 0.0
H598 H 0.30798 0.29829 0.18115 0.0
H599 H 0.27882 0.3238 0.17009 0.0
H600 H 0.24761 0.21873 0.18115 0.0
H601 H 0.17924 0.28126 0.15416 0.0
H602 H 0.27574 0.24978 0.23975 0.0
H603 H 0.30549 0.26101 0.21475 0.0
H604 H 0.28984 0.22661 0.21376 0.0
H605 H 0.19134 0.32596 0.20742 0.0
H606 H 0.17947 0.32502 0.17209 0.0
H607 H 0.22112 0.33654 0.18217 0.0
C608 C 0.73812 0.26755 0.32227 0.0
C609 C 0.71092 0.25941 0.33886 0.0
C610 C 0.75347 0.24931 0.304 0.0
C611 C 0.74112 0.22237 0.302 0.0
C612 C 0.71385 0.21399 0.31878 0.0
C613 C 0.69928 0.2325 0.33707 0.0
C614 C 0.78279 0.25894 0.28672 0.0
C615 C 0.69971 0.18554 0.31714 0.0
C616 C 0.76 0.18263 0.23731 0.0
C617 C 0.78714 0.166 0.2455 0.0
C618 C 0.7446 0.20088 0.25552 0.0
C619 C 0.75682 0.20284 0.2825 0.0
C620 C 0.78399 0.186 0.29095 0.0
C621 C 0.79862 0.16772 0.27246 0.0
C622 C 0.71537 0.21824 0.24583 0.0
C623 C 0.79799 0.18757 0.31945 0.0
H624 H 0.74736 0.28823 0.32343 0.0
H625 H 0.67816 0.22593 0.34958 0.0
H626 H 0.80536 0.24586 0.29017 0.0
H627 H 0.77604 0.25725 0.26493 0.0
H628 H 0.78989 0.28031 0.2911 0.0
H629 H 0.67826 0.18225 0.33144 0.0
H630 H 0.69066 0.18137 0.29622 0.0
H631 H 0.71998 0.17057 0.32172 0.0
H632 H 0.75088 0.18152 0.21659 0.0
H633 H 0.81969 0.15517 0.27908 0.0
H634 H 0.72222 0.24001 0.24751 0.0
H635 H 0.69275 0.21486 0.25886 0.0
H636 H 0.70833 0.21386 0.22444 0.0
H637 H 0.80714 0.20845 0.32365 0.0
H638 H 0.81933 0.17318 0.3228 0.0
H639 H 0.77761 0.18306 0.33435 0.0
C640 C 0.7607 0.76762 0.18261 0.0
C641 C 0.78769 0.75942 0.16584 0.0
C642 C 0.74539 0.74939 0.20091 0.0
C643 C 0.75757 0.72239 0.20275 0.0
C644 C 0.78461 0.71394 0.18579 0.0
C645 C 0.79915 0.73244 0.16747 0.0
C646 C 0.71629 0.75909 0.21839 0.0
C647 C 0.79856 0.68542 0.18725 0.0
C648 C 0.73908 0.68244 0.26739 0.0
C649 C 0.71182 0.66591 0.25929 0.0
C650 C 0.75439 0.70074 0.24917 0.0
C651 C 0.74191 0.70285 0.22227 0.0
C652 C 0.71459 0.68613 0.21392 0.0
C653 C 0.70008 0.66779 0.23241 0.0
C654 C 0.7838 0.71796 0.25876 0.0
C655 C 0.70031 0.68789 0.18552 0.0
H656 H 0.75161 0.78835 0.18157 0.0
H657 H 0.82011 0.72582 0.15482 0.0
H658 H 0.69361 0.74611 0.21504 0.0
H659 H 0.72325 0.75731 0.24014 0.0
H660 H 0.7093 0.78051 0.21412 0.0
H661 H 0.81986 0.68208 0.17281 0.0
H662 H 0.80778 0.68113 0.2081 0.0
H663 H 0.77815 0.67056 0.18273 0.0
H664 H 0.74841 0.6812 0.28805 0.0
H665 H 0.67891 0.65532 0.22586 0.0
H666 H 0.77708 0.73976 0.25717 0.0
H667 H 0.80629 0.71452 0.2456 0.0
H668 H 0.79099 0.71349 0.2801 0.0
H669 H 0.69129 0.70883 0.18145 0.0
H670 H 0.6788 0.67363 0.18226 0.0
H671 H 0.72049 0.68331 0.17047 0.0
C672 C 0.29957 0.77448 0.33719 0.0
C673 C 0.28784 0.74759 0.33896 0.0
C674 C 0.28511 0.79302 0.31888 0.0
C675 C 0.25786 0.7847 0.30206 0.0
C676 C 0.24541 0.75779 0.30405 0.0
C677 C 0.26066 0.73952 0.32233 0.0
C678 C 0.29936 0.82144 0.31725 0.0
C679 C 0.21609 0.74823 0.28673 0.0
C680 C 0.2006 0.83948 0.27243 0.0
C681 C 0.21213 0.84115 0.24548 0.0
C682 C 0.21514 0.82118 0.29094 0.0
C683 C 0.24227 0.80427 0.28254 0.0
C684 C 0.25455 0.80619 0.25557 0.0
C685 C 0.23923 0.82446 0.23733 0.0
C686 C 0.20108 0.81964 0.31943 0.0
C687 C 0.28373 0.78877 0.24592 0.0
H688 H 0.32069 0.78101 0.34974 0.0
H689 H 0.25135 0.71885 0.32348 0.0
H690 H 0.30847 0.82559 0.29635 0.0
H691 H 0.27913 0.83646 0.3218 0.0
H692 H 0.32079 0.82468 0.33158 0.0
H693 H 0.2089 0.72687 0.2911 0.0
H694 H 0.19357 0.76136 0.29015 0.0
H695 H 0.2229 0.74989 0.26495 0.0
H696 H 0.17956 0.85207 0.27901 0.0
H697 H 0.24839 0.82554 0.21662 0.0
H698 H 0.22145 0.82411 0.33435 0.0
H699 H 0.19184 0.79879 0.32363 0.0
H700 H 0.17979 0.83408 0.32275 0.0
H701 H 0.30633 0.79209 0.25899 0.0
H702 H 0.29085 0.79314 0.22454 0.0
H703 H 0.2768 0.76701 0.24758 0.0
C704 C 0.26113 0.68335 0.7373 0.0
C705 C 0.28834 0.66672 0.74531 0.0
C706 C 0.24596 0.70165 0.75559 0.0
C707 C 0.25853 0.70367 0.78247 0.0
C708 C 0.28581 0.68685 0.79073 0.0
C709 C 0.30018 0.66851 0.77218 0.0
C710 C 0.21659 0.71896 0.7461 0.0
C711 C 0.30019 0.68851 0.8191 0.0
C712 C 0.24009 0.76837 0.82233 0.0
C713 C 0.21313 0.76019 0.83915 0.0
C714 C 0.25528 0.75016 0.80397 0.0
C715 C 0.24301 0.72318 0.80208 0.0
C716 C 0.21601 0.71475 0.81909 0.0
C717 C 0.2016 0.73323 0.83749 0.0
C718 C 0.28435 0.75984 0.78644 0.0
C719 C 0.20195 0.68626 0.81758 0.0
H720 H 0.25174 0.68219 0.71666 0.0
H721 H 0.32131 0.65596 0.77865 0.0
H722 H 0.19413 0.71555 0.75931 0.0
H723 H 0.2234 0.74075 0.74773 0.0
H724 H 0.20931 0.71457 0.72477 0.0
H725 H 0.32166 0.6742 0.82228 0.0
H726 H 0.30929 0.70942 0.82321 0.0
H727 H 0.28005 0.68393 0.83418 0.0
H728 H 0.24924 0.78909 0.8234 0.0
H729 H 0.18067 0.72661 0.85017 0.0
H730 H 0.27732 0.75815 0.76471 0.0
H731 H 0.307 0.7468 0.7897 0.0
H732 H 0.29145 0.78123 0.79077 0.0
H733 H 0.19265 0.68206 0.79674 0.0
H734 H 0.18069 0.68294 0.83206 0.0
H735 H 0.22232 0.67134 0.82202 0.0
C736 C 0.19759 0.16871 0.73233 0.0
C737 C 0.20986 0.16662 0.75905 0.0
C738 C 0.21185 0.18712 0.71378 0.0
C739 C 0.23946 0.20366 0.72188 0.0
C740 C 0.25244 0.20135 0.74862 0.0
C741 C 0.23735 0.18301 0.76692 0.0
C742 C 0.19701 0.18912 0.68558 0.0
C743 C 0.28218 0.21834 0.75792 0.0
C744 C 0.29602 0.23306 0.66654 0.0
C745 C 0.28488 0.26014 0.66518 0.0
C746 C 0.28158 0.21459 0.68493 0.0
C747 C 0.25496 0.22316 0.70225 0.0
C748 C 0.24307 0.25027 0.70066 0.0
C749 C 0.25828 0.26846 0.68228 0.0
C750 C 0.29521 0.18595 0.68611 0.0
C751 C 0.21441 0.2601 0.71852 0.0
H752 H 0.17623 0.15635 0.72597 0.0
H753 H 0.24707 0.1816 0.78745 0.0
H754 H 0.1882 0.21016 0.6817 0.0
H755 H 0.21682 0.18442 0.67025 0.0
H756 H 0.17524 0.17506 0.68254 0.0
H757 H 0.28971 0.21377 0.77916 0.0
H758 H 0.3044 0.2148 0.7445 0.0
H759 H 0.27566 0.2402 0.75647 0.0
H760 H 0.31667 0.22633 0.65363 0.0
H761 H 0.24944 0.28927 0.68145 0.0
H762 H 0.27454 0.17126 0.68178 0.0
H763 H 0.30478 0.18152 0.70682 0.0
H764 H 0.31618 0.18251 0.67139 0.0
H765 H 0.19154 0.24728 0.71542 0.0
H766 H 0.20755 0.28158 0.71438 0.0
H767 H 0.22176 0.25823 0.74017 0.0
C768 C 0.79721 0.27246 0.83726 0.0
C769 C 0.78565 0.24552 0.83901 0.0
C770 C 0.78269 0.29093 0.8189 0.0
C771 C 0.75556 0.28249 0.80202 0.0
C772 C 0.74328 0.25552 0.80399 0.0
C773 C 0.75859 0.23733 0.82232 0.0
C774 C 0.79676 0.31941 0.81729 0.0
C775 C 0.71409 0.24584 0.78661 0.0
C776 C 0.69822 0.33715 0.7723 0.0
C777 C 0.7099 0.33892 0.74539 0.0
C778 C 0.71271 0.31882 0.79081 0.0
C779 C 0.73992 0.30199 0.78246 0.0
C780 C 0.75232 0.30398 0.75553 0.0
C781 C 0.73705 0.32227 0.73728 0.0
C782 C 0.69851 0.31721 0.81925 0.0
C783 C 0.78161 0.28664 0.74593 0.0
H784 H 0.81823 0.27908 0.84985 0.0
H785 H 0.74941 0.21662 0.82346 0.0
H786 H 0.80592 0.32359 0.79641 0.0
H787 H 0.77643 0.33434 0.8218 0.0
H788 H 0.81813 0.32274 0.83167 0.0
H789 H 0.70701 0.22445 0.79098 0.0
H790 H 0.69147 0.25888 0.78996 0.0
H791 H 0.72097 0.24751 0.76484 0.0
H792 H 0.67713 0.34971 0.77885 0.0
H793 H 0.74632 0.32342 0.7166 0.0
H794 H 0.71877 0.32178 0.83424 0.0
H795 H 0.68943 0.2963 0.82342 0.0
H796 H 0.67708 0.33153 0.82251 0.0
H797 H 0.80417 0.29006 0.75903 0.0
H798 H 0.78875 0.291 0.72456 0.0
H799 H 0.7748 0.26486 0.74762 0.0
C800 C 0.76113 0.82284 0.76723 0.0
C801 C 0.78884 0.839 0.75936 0.0
C802 C 0.74594 0.80452 0.74898 0.0
C803 C 0.75903 0.80197 0.7223 0.0
C804 C 0.78688 0.81827 0.7142 0.0
C805 C 0.80122 0.83668 0.73269 0.0
C806 C 0.71595 0.78779 0.75827 0.0
C807 C 0.80185 0.816 0.68607 0.0
C808 C 0.73976 0.73712 0.68293 0.0
C809 C 0.71336 0.74555 0.66568 0.0
C810 C 0.75504 0.75529 0.7013 0.0
C811 C 0.74343 0.78248 0.70272 0.0
C812 C 0.717 0.79115 0.68526 0.0
C813 C 0.70249 0.7727 0.6669 0.0
C814 C 0.78346 0.74533 0.71933 0.0
C815 C 0.70368 0.81989 0.68624 0.0
H816 H 0.75132 0.82444 0.78772 0.0
H817 H 0.82275 0.84886 0.72634 0.0
H818 H 0.69385 0.79143 0.74476 0.0
H819 H 0.72222 0.76588 0.75696 0.0
H820 H 0.70836 0.79253 0.77946 0.0
H821 H 0.8238 0.82987 0.68303 0.0
H822 H 0.81042 0.79488 0.68233 0.0
H823 H 0.78219 0.82077 0.67065 0.0
H824 H 0.7484 0.71625 0.68222 0.0
H825 H 0.68198 0.77951 0.65387 0.0
H826 H 0.776 0.74739 0.74094 0.0
H827 H 0.80651 0.75796 0.71624 0.0
H828 H 0.79009 0.72378 0.71535 0.0
H829 H 0.69406 0.8245 0.7069 0.0
H830 H 0.68283 0.8234 0.67144 0.0
H831 H 0.72454 0.83441 0.6819 0.0
C832 C 0.23102 0.15318 0.92167 0.0
C833 C 0.19961 0.14228 0.91361 0.0
C834 C 0.23727 0.16012 0.94891 0.0
C835 C 0.21128 0.15649 0.96845 0.0
C836 C 0.17995 0.1446 0.96057 0.0
C837 C 0.17461 0.13745 0.9333 0.0
C838 C 0.27119 0.17226 0.95655 0.0
C839 C 0.15143 0.14056 0.98072 0.0
C840 C 0.22318 0.15834 0.04499 0.0
C841 C 0.20951 0.18392 0.05132 0.0
C842 C 0.2263 0.14973 0.01787 0.0
C843 C 0.2154 0.16705 0.99665 0.0
C844 C 0.20462 0.19375 0.00282 0.0
C845 C 0.20206 0.20191 0.03002 0.0
C846 C 0.2387 0.12133 0.01213 0.0
C847 C 0.19289 0.21299 0.98087 0.0
H848 H 0.25057 0.15682 0.90659 0.0
H849 H 0.15027 0.12908 0.92724 0.0
H850 H 0.26783 0.19401 0.96169 0.0
H851 H 0.28163 0.16204 0.9748 0.0
H852 H 0.29004 0.17067 0.93983 0.0
H853 H 0.12923 0.12996 0.97164 0.0
H854 H 0.16054 0.1286 0.99835 0.0
H855 H 0.14282 0.16054 0.98852 0.0
H856 H 0.22914 0.14424 0.06119 0.0
H857 H 0.19185 0.22183 0.03457 0.0
H858 H 0.25644 0.12119 0.99462 0.0
H859 H 0.21671 0.10827 0.00677 0.0
H860 H 0.25172 0.11228 0.02998 0.0
H861 H 0.21172 0.21383 0.96414 0.0
H862 H 0.18879 0.23388 0.98868 0.0
H863 H 0.16858 0.20553 0.97217 0.0
C864 C 0.79469 0.20025 0.97429 0.0
C865 C 0.78766 0.18201 0.95311 0.0
C866 C 0.7923 0.19224 1.00153 0.0
C867 C 0.78213 0.16543 0.00789 0.0
C868 C 0.77162 0.14782 0.98678 0.0
C869 C 0.77455 0.15629 0.95961 0.0
C870 C 0.80357 0.21179 0.02336 0.0
C871 C 0.75989 0.11927 0.99272 0.0
C872 C 0.82361 0.13682 0.07141 0.0
C873 C 0.79849 0.14136 0.09107 0.0
C874 C 0.81811 0.14374 0.0441 0.0
C875 C 0.78651 0.15511 0.03615 0.0
C876 C 0.76043 0.15846 0.05567 0.0
C877 C 0.76683 0.15176 0.08294 0.0
C878 C 0.84672 0.14001 0.02397 0.0
C879 C 0.72624 0.17005 0.04796 0.0
H880 H 0.80447 0.22027 0.96959 0.0
H881 H 0.76892 0.14199 0.94351 0.0
H882 H 0.78475 0.21244 0.0401 0.0
H883 H 0.82808 0.20477 0.03208 0.0
H884 H 0.80715 0.2327 0.01541 0.0
H885 H 0.74707 0.10992 0.97494 0.0
H886 H 0.78218 0.10658 0.99816 0.0
H887 H 0.74216 0.11898 0.01023 0.0
H888 H 0.84814 0.12884 0.07752 0.0
H889 H 0.74719 0.15517 0.098 0.0
H890 H 0.85485 0.16008 0.01604 0.0
H891 H 0.8379 0.12782 0.00642 0.0
H892 H 0.86917 0.12981 0.03311 0.0
H893 H 0.72909 0.19181 0.04265 0.0
H894 H 0.70743 0.16832 0.0647 0.0
H895 H 0.71602 0.15955 0.02979 0.0
C896 C 0.82435 0.86864 0.93351 0.0
C897 C 0.79931 0.86377 0.91385 0.0
C898 C 0.81902 0.86163 0.96081 0.0
C899 C 0.78766 0.84984 0.96877 0.0
C900 C 0.76165 0.84616 0.94926 0.0
C901 C 0.76788 0.85295 0.92199 0.0
C902 C 0.84758 0.86572 0.98092 0.0
C903 C 0.7277 0.83412 0.95699 0.0
C904 C 0.79688 0.80471 0.03055 0.0
C905 C 0.78955 0.82282 0.05177 0.0
C906 C 0.79427 0.81273 0.00332 0.0
C907 C 0.78355 0.83942 0.99702 0.0
C908 C 0.77275 0.85686 0.01818 0.0
C909 C 0.77593 0.84839 0.04533 0.0
C910 C 0.8059 0.79337 0.98145 0.0
C911 C 0.76041 0.88525 0.0123 0.0
H912 H 0.84871 0.87694 0.92738 0.0
H913 H 0.74831 0.84928 0.90694 0.0
H914 H 0.83852 0.87778 0.99849 0.0
H915 H 0.85613 0.84576 0.98882 0.0
H916 H 0.86979 0.87622 0.97177 0.0
H917 H 0.70883 0.83567 0.94028 0.0
H918 H 0.73099 0.81239 0.96223 0.0
H919 H 0.71731 0.84445 0.9752 0.0
H920 H 0.80706 0.7848 0.03519 0.0
H921 H 0.77005 0.86259 0.06146 0.0
H922 H 0.83022 0.80073 0.97269 0.0
H923 H 0.78704 0.79249 0.96474 0.0
H924 H 0.80994 0.7725 0.98935 0.0
H925 H 0.78242 0.89826 0.00686 0.0
H926 H 0.74744 0.89441 0.03012 0.0
H927 H 0.74264 0.88534 0.99482 0.0
C928 C 0.17564 0.86989 0.07132 0.0
C929 C 0.20075 0.86534 0.09098 0.0
C930 C 0.18105 0.86282 0.04404 0.0
C931 C 0.21256 0.85127 0.03611 0.0
C932 C 0.23864 0.8479 0.05563 0.0
C933 C 0.23233 0.85476 0.08287 0.0
C934 C 0.15243 0.86657 0.02392 0.0
C935 C 0.27274 0.83612 0.04794 0.0
C936 C 0.20404 0.80585 0.97448 0.0
C937 C 0.2112 0.82395 0.9532 0.0
C938 C 0.20648 0.81399 1.00169 0.0
C939 C 0.21683 0.84079 0.0079 0.0
C940 C 0.22745 0.85825 0.9867 0.0
C941 C 0.22448 0.84965 0.95957 0.0
C942 C 0.19507 0.7946 0.02361 0.0
C943 C 0.23938 0.88677 0.99249 0.0
H944 H 0.15117 0.878 0.07742 0.0
H945 H 0.25197 0.85134 0.09793 0.0
H946 H 0.16132 0.87864 0.00629 0.0
H947 H 0.14415 0.84651 0.01611 0.0
H948 H 0.13008 0.87693 0.03303 0.0
H949 H 0.29158 0.83785 0.06465 0.0
H950 H 0.26973 0.81435 0.04275 0.0
H951 H 0.28301 0.84649 0.02971 0.0
H952 H 0.19413 0.78584 0.9699 0.0
H953 H 0.23021 0.86384 0.9434 0.0
H954 H 0.17063 0.80178 0.03231 0.0
H955 H 0.21391 0.79395 0.04035 0.0
H956 H 0.19134 0.77368 0.01578 0.0
H957 H 0.21718 0.89959 0.99788 0.0
H958 H 0.25223 0.89599 0.97465 0.0
H959 H 0.25713 0.88707 0.00998 0.0
C960 C 0.07583 0.18248 0.18167 0.0
C961 C 0.08714 0.18092 0.15477 0.0
C962 C 0.04118 0.17937 0.18803 0.0
C963 C 0.01733 0.17529 0.16686 0.0
C964 C 0.02864 0.17451 0.13961 0.0
C965 C 0.06352 0.17622 0.13407 0.0
C966 C 0.03063 0.17855 0.21745 0.0
C967 C 0.00397 0.17108 0.11633 0.0
C968 C 0.93536 0.13578 0.17392 0.0
C969 C 0.91149 0.15632 0.17855 0.0
C970 C 0.97017 0.14157 0.17225 0.0
C971 C 0.98116 0.16891 0.17301 0.0
C972 C 0.95706 0.18992 0.17694 0.0
C973 C 0.92248 0.18331 0.18002 0.0
C974 C 0.99513 0.11847 0.16891 0.0
C975 C 0.96733 0.2194 0.17606 0.0
H976 H 0.09425 0.18515 0.19783 0.0
H977 H 0.07239 0.1731 0.11352 0.0
H978 H 0.00656 0.18977 0.22085 0.0
H979 H 0.02617 0.15713 0.22331 0.0
H980 H 0.05055 0.18705 0.23099 0.0
H981 H 0.01687 0.17139 0.0963 0.0
H982 H 0.99006 0.15161 0.11804 0.0
H983 H 0.98466 0.18749 0.11698 0.0
H984 H 0.92673 0.11516 0.17085 0.0
H985 H 0.90386 0.19934 0.18263 0.0
H986 H 0.01439 0.1193 0.18535 0.0
H987 H 0.00906 0.12024 0.14946 0.0
H988 H 0.98246 0.09835 0.16924 0.0
H989 H 0.99077 0.22305 0.18803 0.0
H990 H 0.94689 0.23294 0.18374 0.0
H991 H 0.97291 0.22503 0.15475 0.0
C992 C 0.82448 0.93348 0.13604 0.0
C993 C 0.79942 0.9139 0.14115 0.0
C994 C 0.81935 0.96081 0.14303 0.0
C995 C 0.78819 0.96888 0.15507 0.0
C996 C 0.76214 0.94945 0.15901 0.0
C997 C 0.76816 0.92215 0.1522 0.0
C998 C 0.84792 0.98084 0.13865 0.0
C999 C 0.7284 0.95728 0.17134 0.0
C1000 C 0.79797 0.03072 0.20007 0.0
C1001 C 0.79025 0.05193 0.18205 0.0
C1002 C 0.79538 0.00348 0.19206 0.0
C1003 C 0.78431 0.99716 0.16547 0.0
C1004 C 0.77323 0.0183 0.14811 0.0
C1005 C 0.77638 0.04546 0.15657 0.0
C1006 C 0.80731 0.98163 0.21133 0.0
C1007 C 0.76056 0.0124 0.11982 0.0
H1008 H 0.8487 0.92728 0.12755 0.0
H1009 H 0.74857 0.90716 0.15606 0.0
H1010 H 0.83875 0.99844 0.12667 0.0
H1011 H 0.85681 0.98873 0.15852 0.0
H1012 H 0.86994 0.97163 0.12793 0.0
H1013 H 0.70946 0.9406 0.17006 0.0
H1014 H 0.73204 0.96261 0.19302 0.0
H1015 H 0.7179 0.97546 0.16103 0.0
H1016 H 0.80836 0.03538 0.21991 0.0
H1017 H 0.77022 0.06158 0.14244 0.0
H1018 H 0.83148 0.97283 0.20372 0.0
H1019 H 0.78843 0.96495 0.21245 0.0
H1020 H 0.81172 0.98956 0.23214 0.0
H1021 H 0.7824 0.00685 0.10668 0.0
H1022 H 0.74756 0.03022 0.11071 0.0
H1023 H 0.74272 0.99495 0.11991 0.0
C1024 C 0.92349 0.82475 0.18196 0.0
C1025 C 0.91213 0.82621 0.15507 0.0
C1026 C 0.95815 0.82789 0.18827 0.0
C1027 C 0.98196 0.83191 0.16706 0.0
C1028 C 0.9706 0.83261 0.13982 0.0
C1029 C 0.93572 0.83087 0.13432 0.0
C1030 C 0.96875 0.82881 0.21767 0.0
C1031 C 0.99524 0.83598 0.1165 0.0
C1032 C 0.06399 0.87139 0.17391 0.0
C1033 C 0.08785 0.85084 0.17858 0.0
C1034 C 0.02916 0.86561 0.17229 0.0
C1035 C 0.01814 0.83829 0.17314 0.0
C1036 C 0.04223 0.81727 0.17711 0.0
C1037 C 0.07682 0.82386 0.18014 0.0
C1038 C 0.00423 0.88873 0.16892 0.0
C1039 C 0.03193 0.7878 0.17634 0.0
H1040 H 0.90511 0.82211 0.19815 0.0
H1041 H 0.9268 0.83392 0.11378 0.0
H1042 H 0.9928 0.81756 0.22109 0.0
H1043 H 0.97328 0.85024 0.22345 0.0
H1044 H 0.94883 0.8204 0.23127 0.0
H1045 H 0.9823 0.83561 0.09649 0.0
H1046 H 0.00915 0.85545 0.11814 0.0
H1047 H 0.01455 0.81957 0.11718 0.0
H1048 H 0.07263 0.89199 0.17077 0.0
H1049 H 0.09542 0.80783 0.18278 0.0
H1050 H 0.985 0.88796 0.18538 0.0
H1051 H 0.99026 0.88691 0.14949 0.0
H1052 H 0.01692 0.90884 0.16917 0.0
H1053 H 0.00848 0.7842 0.18832 0.0
H1054 H 0.05236 0.77427 0.18405 0.0
H1055 H 0.02634 0.7821 0.15504 0.0
C1056 C 0.17474 0.07355 0.13587 0.0
C1057 C 0.19983 0.09313 0.14085 0.0
C1058 C 0.17992 0.04622 0.14286 0.0
C1059 C 0.21117 0.03815 0.15475 0.0
C1060 C 0.23725 0.0576 0.15856 0.0
C1061 C 0.23117 0.08489 0.15177 0.0
C1062 C 0.15132 0.02618 0.13862 0.0
C1063 C 0.27108 0.04977 0.17073 0.0
C1064 C 0.20171 0.97633 0.19982 0.0
C1065 C 0.20927 0.95511 0.18175 0.0
C1066 C 0.20426 0.00356 0.19179 0.0
C1067 C 0.21513 0.00988 0.16515 0.0
C1068 C 0.22607 0.98873 0.14774 0.0
C1069 C 0.22296 0.96157 0.15622 0.0
C1070 C 0.19249 0.02542 0.21112 0.0
C1071 C 0.23853 0.99463 0.11939 0.0
H1072 H 0.15046 0.07974 0.12749 0.0
H1073 H 0.25078 0.09989 0.15552 0.0
H1074 H 0.16039 0.00859 0.1266 0.0
H1075 H 0.14259 0.01829 0.15854 0.0
H1076 H 0.12922 0.03539 0.12802 0.0
H1077 H 0.29001 0.06645 0.16935 0.0
H1078 H 0.26761 0.04444 0.19242 0.0
H1079 H 0.28151 0.03159 0.16038 0.0
H1080 H 0.19147 0.97167 0.2197 0.0
H1081 H 0.22899 0.94545 0.14205 0.0
H1082 H 0.16826 0.03422 0.20363 0.0
H1083 H 0.21138 0.04211 0.21212 0.0
H1084 H 0.18825 0.01749 0.23195 0.0
H1085 H 0.2166 1.00016 0.10635 0.0
H1086 H 0.25147 0.9768 0.11022 0.0
H1087 H 0.25637 0.01207 0.11938 0.0
C1088 C 0.9362 0.87089 0.83109 0.0
C1089 C 0.91263 0.85013 0.82644 0.0
C1090 C 0.9711 0.86543 0.83272 0.0
C1091 C 0.9825 0.8382 0.83189 0.0
C1092 C 0.9587 0.81697 0.82794 0.0
C1093 C 0.92403 0.82325 0.82491 0.0
C1094 C 0.99571 0.88876 0.83606 0.0
C1095 C 0.96941 0.78759 0.82873 0.0
C1096 C 0.07728 0.82523 0.82305 0.0
C1097 C 0.08863 0.82673 0.84995 0.0
C1098 C 0.0426 0.82824 0.81675 0.0
C1099 C 0.01877 0.83213 0.83797 0.0
C1100 C 0.03013 0.8329 0.86521 0.0
C1101 C 0.06503 0.83131 0.87069 0.0
C1102 C 0.03198 0.82912 0.78736 0.0
C1103 C 0.00548 0.83615 0.88853 0.0
H1104 H 0.92726 0.89142 0.8342 0.0
H1105 H 0.90565 0.80705 0.82227 0.0
H1106 H 0.00973 0.88709 0.85548 0.0
H1107 H 0.01494 0.88814 0.81958 0.0
H1108 H 0.98274 0.90876 0.83578 0.0
H1109 H 0.99294 0.78419 0.81681 0.0
H1110 H 0.97498 0.78194 0.85005 0.0
H1111 H 0.94919 0.77388 0.82098 0.0
H1112 H 0.09567 0.82267 0.80686 0.0
H1113 H 0.07393 0.83441 0.89123 0.0
H1114 H 0.0271 0.85053 0.78163 0.0
H1115 H 0.00811 0.81764 0.78393 0.0
H1116 H 0.05201 0.82094 0.77372 0.0
H1117 H 0.99137 0.85553 0.88687 0.0
H1118 H 0.01844 0.83591 0.90853 0.0
H1119 H 0.98634 0.81961 0.88789 0.0
C1120 C 0.17588 0.93419 0.86856 0.0
C1121 C 0.2011 0.91468 0.86368 0.0
C1122 C 0.18095 0.96152 0.86154 0.0
C1123 C 0.21222 0.96967 0.84972 0.0
C1124 C 0.23841 0.95031 0.84603 0.0
C1125 C 0.23244 0.923 0.85284 0.0
C1126 C 0.15222 0.98147 0.86565 0.0
C1127 C 0.27227 0.95823 0.83394 0.0
C1128 C 0.20234 0.03139 0.80461 0.0
C1129 C 0.20952 0.05266 0.82272 0.0
C1130 C 0.20522 0.00418 0.81262 0.0
C1131 C 0.21606 0.99794 0.83929 0.0
C1132 C 0.2267 0.01915 0.85673 0.0
C1133 C 0.22326 0.0463 0.84826 0.0
C1134 C 0.19377 0.98224 0.79327 0.0
C1135 C 0.23914 0.01335 0.8851 0.0
H1136 H 0.15159 0.92793 0.87689 0.0
H1137 H 0.25214 0.90806 0.84916 0.0
H1138 H 0.16113 0.9991 0.87769 0.0
H1139 H 0.14356 0.98931 0.84569 0.0
H1140 H 0.1301 0.97219 0.87618 0.0
H1141 H 0.29129 0.94163 0.83547 0.0
H1142 H 0.26889 0.96345 0.81222 0.0
H1143 H 0.28251 0.9765 0.84426 0.0
H1144 H 0.19208 0.03598 0.78471 0.0
H1145 H 0.22901 0.06246 0.86246 0.0
H1146 H 0.16953 0.97334 0.80065 0.0
H1147 H 0.21277 0.96564 0.79237 0.0
H1148 H 0.18963 0.99012 0.77241 0.0
H1149 H 0.2172 0.00777 0.89812 0.0
H1150 H 0.25196 0.03124 0.89425 0.0
H1151 H 0.25708 0.99597 0.88516 0.0
C1152 C 0.07476 0.18239 0.82466 0.0
C1153 C 0.08618 0.15552 0.82624 0.0
C1154 C 0.04008 0.18866 0.8277 0.0
C1155 C 0.0163 0.16742 0.83171 0.0
C1156 C 0.02773 0.1402 0.83259 0.0
C1157 C 0.06264 0.13476 0.83095 0.0
C1158 C 0.02935 0.21804 0.82844 0.0
C1159 C 0.00314 0.11686 0.83599 0.0
C1160 C 0.93379 0.17438 0.87054 0.0
C1161 C 0.91018 0.17893 0.84979 0.0
C1162 C 0.96869 0.17276 0.86504 0.0
C1163 C 0.98003 0.17348 0.83779 0.0
C1164 C 0.95619 0.17733 0.81658 0.0
C1165 C 0.92152 0.18036 0.82289 0.0
C1166 C 0.99335 0.16955 0.88836 0.0
C1167 C 0.96679 0.17638 0.78718 0.0
H1168 H 0.09311 0.1986 0.82198 0.0
H1169 H 0.0716 0.11424 0.8341 0.0
H1170 H 0.00577 0.2214 0.81657 0.0
H1171 H 0.02387 0.22373 0.84976 0.0
H1172 H 0.04953 0.23173 0.8206 0.0
H1173 H 0.01613 0.09687 0.83576 0.0
H1174 H 0.98912 0.11856 0.8554 0.0
H1175 H 0.98391 0.11743 0.81951 0.0
H1176 H 0.9249 0.17132 0.89109 0.0
H1177 H 0.90311 0.18291 0.8067 0.0
H1178 H 0.01249 0.18609 0.88768 0.0
H1179 H 0.00746 0.15018 0.88672 0.0
H1180 H 0.98041 0.16983 0.90836 0.0
H1181 H 0.99061 0.18792 0.78371 0.0
H1182 H 0.94672 0.18446 0.77353 0.0
H1183 H 0.97177 0.15498 0.78152 0.0
C1184 C 0.79665 0.97432 0.80465 0.0
C1185 C 0.78939 0.95307 0.82275 0.0
C1186 C 0.79376 1.00154 0.81263 0.0
C1187 C 0.78281 0.0078 0.83927 0.0
C1188 C 0.77208 0.9866 0.85669 0.0
C1189 C 0.77554 0.95945 0.84825 0.0
C1190 C 0.8053 0.02347 0.79329 0.0
C1191 C 0.75953 0.99242 0.88503 0.0
C1192 C 0.8229 0.07155 0.86861 0.0
C1193 C 0.79771 0.09106 0.86366 0.0
C1194 C 0.81785 0.04421 0.86158 0.0
C1195 C 0.78663 0.03608 0.84969 0.0
C1196 C 0.76045 0.05544 0.84593 0.0
C1197 C 0.76641 0.08275 0.85275 0.0
C1198 C 0.84656 0.02426 0.86577 0.0
C1199 C 0.72664 0.04752 0.83376 0.0
H1200 H 0.807 0.96972 0.78478 0.0
H1201 H 0.76971 0.9433 0.86244 0.0
H1202 H 0.78632 0.04008 0.79235 0.0
H1203 H 0.82952 0.03235 0.80073 0.0
H1204 H 0.80951 0.01557 0.77245 0.0
H1205 H 0.74666 0.97454 0.89416 0.0
H1206 H 0.78141 0.99801 0.89811 0.0
H1207 H 0.7416 0.00981 0.88503 0.0
H1208 H 0.84716 0.0778 0.87699 0.0
H1209 H 0.74672 0.09769 0.84902 0.0
H1210 H 0.85529 0.01641 0.84585 0.0
H1211 H 0.83759 0.00664 0.87781 0.0
H1212 H 0.86863 0.03353 0.87636 0.0
H1213 H 0.73011 0.0423 0.81204 0.0
H1214 H 0.70762 0.06413 0.83523 0.0
H1215 H 0.71635 0.02926 0.84405 0.0
C1216 C 0.73242 0.65152 0.42189 0.0
C1217 C 0.70079 0.6411 0.41374 0.0
C1218 C 0.73878 0.65822 0.44916 0.0
C1219 C 0.71267 0.65487 0.46866 0.0
C1220 C 0.68109 0.64348 0.46068 0.0
C1221 C 0.67565 0.63654 0.43338 0.0
C1222 C 0.77295 0.66983 0.45691 0.0
C1223 C 0.65245 0.63975 0.48078 0.0
C1224 C 0.72435 0.65623 0.54523 0.0
C1225 C 0.7112 0.68196 0.55163 0.0
C1226 C 0.7274 0.6477 0.51808 0.0
C1227 C 0.71696 0.66526 0.4969 0.0
C1228 C 0.70676 0.69209 0.50317 0.0
C1229 C 0.70426 0.70015 0.53039 0.0
C1230 C 0.73919 0.61915 0.51224 0.0
C1231 C 0.69555 0.71158 0.48127 0.0
H1232 H 0.75207 0.65495 0.40684 0.0
H1233 H 0.65113 0.62854 0.42724 0.0
H1234 H 0.7701 0.69161 0.46212 0.0
H1235 H 0.78311 0.65939 0.47513 0.0
H1236 H 0.79181 0.66803 0.44021 0.0
H1237 H 0.63003 0.62951 0.47163 0.0
H1238 H 0.66125 0.62758 0.49836 0.0
H1239 H 0.64428 0.65982 0.48867 0.0
H1240 H 0.72992 0.64196 0.56137 0.0
H1241 H 0.69447 0.72019 0.53501 0.0
H1242 H 0.75695 0.61883 0.49474 0.0
H1243 H 0.71693 0.60642 0.50681 0.0
H1244 H 0.75198 0.60986 0.53006 0.0
H1245 H 0.71445 0.71221 0.46458 0.0
H1246 H 0.6919 0.7325 0.48916 0.0
H1247 H 0.6711 0.70452 0.4725 0.0
C1248 C 0.26781 0.65339 0.58266 0.0
C1249 C 0.29923 0.64253 0.59076 0.0
C1250 C 0.2616 0.66031 0.55542 0.0
C1251 C 0.28763 0.6567 0.5359 0.0
C1252 C 0.31897 0.64487 0.54382 0.0
C1253 C 0.32428 0.63774 0.5711 0.0
C1254 C 0.22767 0.67241 0.54773 0.0
C1255 C 0.34753 0.64084 0.5237 0.0
C1256 C 0.27578 0.6584 0.45935 0.0
C1257 C 0.28944 0.68398 0.45298 0.0
C1258 C 0.27265 0.64985 0.48649 0.0
C1259 C 0.28351 0.66722 0.50769 0.0
C1260 C 0.29426 0.69392 0.50146 0.0
C1261 C 0.29684 0.70202 0.47425 0.0
C1262 C 0.2603 0.62144 0.49228 0.0
C1263 C 0.30593 0.71321 0.52338 0.0
H1264 H 0.24823 0.657 0.59772 0.0
H1265 H 0.34863 0.62941 0.57719 0.0
H1266 H 0.231 0.69416 0.54255 0.0
H1267 H 0.21725 0.66215 0.5295 0.0
H1268 H 0.2088 0.67085 0.56444 0.0
H1269 H 0.36973 0.63029 0.53281 0.0
H1270 H 0.33846 0.62886 0.50608 0.0
H1271 H 0.3561 0.66083 0.51588 0.0
H1272 H 0.26985 0.64426 0.44319 0.0
H1273 H 0.30705 0.72193 0.46966 0.0
H1274 H 0.24253 0.62132 0.50978 0.0
H1275 H 0.2823 0.60842 0.49769 0.0
H1276 H 0.24731 0.61234 0.47445 0.0
H1277 H 0.2871 0.71404 0.54011 0.0
H1278 H 0.30997 0.73409 0.51553 0.0
H1279 H 0.33026 0.70581 0.53209 0.0
C1280 C 0.32284 0.37009 0.43316 0.0
C1281 C 0.29775 0.36552 0.41347 0.0
C1282 C 0.31738 0.36301 0.46043 0.0
C1283 C 0.28586 0.35147 0.46833 0.0
C1284 C 0.25981 0.34811 0.44879 0.0
C1285 C 0.26616 0.35495 0.42155 0.0
C1286 C 0.34598 0.36676 0.48057 0.0
C1287 C 0.22568 0.33634 0.45645 0.0
C1288 C 0.29436 0.30596 0.52989 0.0
C1289 C 0.28724 0.32403 0.5512 0.0
C1290 C 0.29191 0.31414 0.5027 0.0
C1291 C 0.28157 0.34095 0.49652 0.0
C1292 C 0.27098 0.35839 0.51776 0.0
C1293 C 0.27399 0.34975 0.54487 0.0
C1294 C 0.3033 0.29478 0.48075 0.0
C1295 C 0.25905 0.38692 0.51201 0.0
H1296 H 0.34731 0.37819 0.42708 0.0
H1297 H 0.24655 0.35152 0.40647 0.0
H1298 H 0.33707 0.37882 0.4982 0.0
H1299 H 0.35425 0.34669 0.48838 0.0
H1300 H 0.36834 0.37712 0.47148 0.0
H1301 H 0.20685 0.33813 0.43974 0.0
H1302 H 0.22867 0.31455 0.46159 0.0
H1303 H 0.21543 0.34667 0.4747 0.0
H1304 H 0.30425 0.28594 0.53445 0.0
H1305 H 0.26828 0.36392 0.56107 0.0
H1306 H 0.32773 0.30197 0.47204 0.0
H1307 H 0.28445 0.29414 0.46403 0.0
H1308 H 0.30705 0.27384 0.48856 0.0
H1309 H 0.28125 0.39975 0.50665 0.0
H1310 H 0.24618 0.3961 0.52986 0.0
H1311 H 0.24131 0.38725 0.49451 0.0
C1312 C 0.72251 0.34833 0.45947 0.0
C1313 C 0.70901 0.32274 0.45297 0.0
C1314 C 0.72556 0.35678 0.48664 0.0
C1315 C 0.71477 0.33927 0.50776 0.0
C1316 C 0.70418 0.31256 0.5014 0.0
C1317 C 0.70168 0.30458 0.47415 0.0
C1318 C 0.73774 0.3852 0.49258 0.0
C1319 C 0.69259 0.29313 0.52322 0.0
C1320 C 0.73031 0.35281 0.5828 0.0
C1321 C 0.69882 0.36353 0.59093 0.0
C1322 C 0.73659 0.34603 0.55553 0.0
C1323 C 0.71056 0.34964 0.53601 0.0
C1324 C 0.67914 0.36132 0.54397 0.0
C1325 C 0.67377 0.36831 0.57127 0.0
C1326 C 0.7706 0.33409 0.54781 0.0
C1327 C 0.65059 0.36533 0.52385 0.0
H1328 H 0.72838 0.36257 0.44337 0.0
H1329 H 0.6916 0.28465 0.46946 0.0
H1330 H 0.71565 0.39811 0.49803 0.0
H1331 H 0.75548 0.38531 0.51009 0.0
H1332 H 0.75069 0.39443 0.47479 0.0
H1333 H 0.68869 0.27226 0.51528 0.0
H1334 H 0.71141 0.29229 0.53996 0.0
H1335 H 0.66821 0.3004 0.53194 0.0
H1336 H 0.7499 0.34921 0.59785 0.0
H1337 H 0.64937 0.37654 0.57739 0.0
H1338 H 0.78098 0.34449 0.52964 0.0
H1339 H 0.76739 0.31236 0.54251 0.0
H1340 H 0.78943 0.33563 0.56455 0.0
H1341 H 0.6596 0.37744 0.50628 0.0
H1342 H 0.62831 0.37576 0.53299 0.0
H1343 H 0.64214 0.34535 0.51593 0.0
C1344 C 0.57694 0.68124 0.6816 0.0
C1345 C 0.58833 0.67964 0.65472 0.0
C1346 C 0.54224 0.67838 0.68787 0.0
C1347 C 0.51843 0.6745 0.66664 0.0
C1348 C 0.52982 0.67369 0.63941 0.0
C1349 C 0.56473 0.67514 0.63395 0.0
C1350 C 0.53159 0.67757 0.71726 0.0
C1351 C 0.50519 0.67048 0.61607 0.0
C1352 C 0.43599 0.63557 0.67353 0.0
C1353 C 0.41235 0.65627 0.67821 0.0
C1354 C 0.47087 0.64112 0.67188 0.0
C1355 C 0.48217 0.66837 0.6727 0.0
C1356 C 0.4583 0.68955 0.67665 0.0
C1357 C 0.42364 0.68319 0.67972 0.0
C1358 C 0.49556 0.61784 0.66851 0.0
C1359 C 0.46892 0.71895 0.67583 0.0
H1360 H 0.59533 0.68376 0.6978 0.0
H1361 H 0.57365 0.67199 0.61342 0.0
H1362 H 0.50756 0.68885 0.72063 0.0
H1363 H 0.52704 0.65616 0.72311 0.0
H1364 H 0.55151 0.68601 0.73085 0.0
H1365 H 0.51816 0.67071 0.59608 0.0
H1366 H 0.49102 0.65113 0.61772 0.0
H1367 H 0.48608 0.68705 0.6167 0.0
H1368 H 0.42713 0.61502 0.67041 0.0
H1369 H 0.40521 0.69934 0.68236 0.0
H1370 H 0.5148 0.61849 0.68497 0.0
H1371 H 0.50954 0.61955 0.64908 0.0
H1372 H 0.48266 0.59781 0.66878 0.0
H1373 H 0.49227 0.72242 0.68796 0.0
H1374 H 0.44855 0.73265 0.68335 0.0
H1375 H 0.47481 0.72453 0.65455 0.0
C1376 C 0.29728 0.53151 0.69966 0.0
C1377 C 0.28992 0.55276 0.68158 0.0
C1378 C 0.29445 0.50429 0.69166 0.0
C1379 C 0.28349 0.49801 0.66503 0.0
C1380 C 0.27276 0.51921 0.64761 0.0
C1381 C 0.27614 0.54636 0.65606 0.0
C1382 C 0.30602 0.48237 0.711 0.0
C1383 C 0.26021 0.51338 0.61927 0.0
C1384 C 0.32324 0.43408 0.63577 0.0
C1385 C 0.29796 0.41465 0.64077 0.0
C1386 C 0.31833 0.46144 0.64275 0.0
C1387 C 0.28717 0.46971 0.65466 0.0
C1388 C 0.26091 0.45043 0.65849 0.0
C1389 C 0.26672 0.42309 0.65171 0.0
C1390 C 0.34713 0.4813 0.63848 0.0
C1391 C 0.22717 0.45847 0.67068 0.0
H1392 H 0.30759 0.53612 0.71954 0.0
H1393 H 0.27026 0.56251 0.64188 0.0
H1394 H 0.28698 0.4658 0.71203 0.0
H1395 H 0.33017 0.47342 0.70351 0.0
H1396 H 0.31036 0.49029 0.73182 0.0
H1397 H 0.24744 0.53128 0.6101 0.0
H1398 H 0.28208 0.5077 0.60622 0.0
H1399 H 0.2422 0.49604 0.61929 0.0
H1400 H 0.34745 0.42773 0.62737 0.0
H1401 H 0.24696 0.40822 0.65549 0.0
H1402 H 0.35594 0.48915 0.65839 0.0
H1403 H 0.33821 0.49893 0.62644 0.0
H1404 H 0.36913 0.47194 0.62788 0.0
H1405 H 0.23071 0.46381 0.69237 0.0
H1406 H 0.20808 0.4419 0.66934 0.0
H1407 H 0.2169 0.4767 0.66032 0.0
C1408 C 0.57442 0.32246 0.67977 0.0
C1409 C 0.5857 0.34939 0.67835 0.0
C1410 C 0.53977 0.3161 0.67666 0.0
C1411 C 0.5159 0.33728 0.67275 0.0
C1412 C 0.52719 0.36454 0.67203 0.0
C1413 C 0.56206 0.37009 0.67372 0.0
C1414 C 0.52918 0.28669 0.67574 0.0
C1415 C 0.50249 0.38783 0.6687 0.0
C1416 C 0.43346 0.33064 0.63382 0.0
C1417 C 0.40979 0.32609 0.65453 0.0
C1418 C 0.46836 0.33207 0.63935 0.0
C1419 C 0.47966 0.33116 0.6666 0.0
C1420 C 0.45578 0.32722 0.68778 0.0
C1421 C 0.4211 0.32439 0.68143 0.0
C1422 C 0.49306 0.33536 0.61607 0.0
C1423 C 0.46635 0.32792 0.71719 0.0
H1424 H 0.59286 0.30631 0.68238 0.0
H1425 H 0.57091 0.39065 0.67067 0.0
H1426 H 0.50571 0.28319 0.6877 0.0
H1427 H 0.52353 0.28114 0.65441 0.0
H1428 H 0.54948 0.273 0.68337 0.0
H1429 H 0.51538 0.40785 0.66905 0.0
H1430 H 0.48854 0.38617 0.64926 0.0
H1431 H 0.48322 0.38711 0.68515 0.0
H1432 H 0.42461 0.33387 0.61329 0.0
H1433 H 0.40266 0.32183 0.69758 0.0
H1434 H 0.51218 0.3188 0.6167 0.0
H1435 H 0.5072 0.35472 0.6178 0.0
H1436 H 0.48015 0.33518 0.59605 0.0
H1437 H 0.4903 0.31654 0.72056 0.0
H1438 H 0.44635 0.31953 0.73072 0.0
H1439 H 0.47104 0.3493 0.72309 0.0
C1440 C 0.67489 0.57169 0.63593 0.0
C1441 C 0.70015 0.5911 0.64104 0.0
C1442 C 0.67973 0.54432 0.64292 0.0
C1443 C 0.71081 0.53604 0.65495 0.0
C1444 C 0.73706 0.5553 0.65889 0.0
C1445 C 0.73132 0.58265 0.65209 0.0
C1446 C 0.65095 0.52448 0.63854 0.0
C1447 C 0.77073 0.54724 0.67121 0.0
C1448 C 0.70045 0.47424 0.69993 0.0
C1449 C 0.70796 0.45299 0.6819 0.0
C1450 C 0.70329 0.50146 0.69193 0.0
C1451 C 0.71441 0.50773 0.66534 0.0
C1452 C 0.72527 0.48653 0.64796 0.0
C1453 C 0.72187 0.45938 0.65642 0.0
C1454 C 0.69159 0.52338 0.71121 0.0
C1455 C 0.73798 0.49237 0.61967 0.0
H1456 H 0.65073 0.57805 0.62745 0.0
H1457 H 0.75107 0.59751 0.65595 0.0
H1458 H 0.65993 0.50683 0.62654 0.0
H1459 H 0.64199 0.51663 0.65841 0.0
H1460 H 0.62903 0.53384 0.62783 0.0
H1461 H 0.78983 0.56381 0.66995 0.0
H1462 H 0.76704 0.5419 0.69288 0.0
H1463 H 0.78104 0.52901 0.66088 0.0
H1464 H 0.69004 0.46964 0.71977 0.0
H1465 H 0.72786 0.44323 0.64227 0.0
H1466 H 0.6675 0.53234 0.70361 0.0
H1467 H 0.71063 0.53994 0.71233 0.0
H1468 H 0.6871 0.51546 0.73202 0.0
H1469 H 0.71619 0.49806 0.60654 0.0
H1470 H 0.75079 0.47447 0.61054 0.0
H1471 H 0.756 0.5097 0.61976 0.0
C1472 C 0.42209 0.32438 0.32438 0.0
C1473 C 0.41099 0.35133 0.326 0.0
C1474 C 0.4567 0.31785 0.32739 0.0
C1475 C 0.48073 0.33889 0.33142 0.0
C1476 C 0.46962 0.3662 0.33233 0.0
C1477 C 0.43478 0.37191 0.33072 0.0
C1478 C 0.46708 0.28839 0.32809 0.0
C1479 C 0.49449 0.38935 0.33575 0.0
C1480 C 0.56312 0.33129 0.37027 0.0
C1481 C 0.58671 0.32662 0.34953 0.0
C1482 C 0.52825 0.33315 0.36476 0.0
C1483 C 0.51692 0.33255 0.3375 0.0
C1484 C 0.54074 0.32856 0.3163 0.0
C1485 C 0.57538 0.3253 0.32262 0.0
C1486 C 0.50361 0.3365 0.38807 0.0
C1487 C 0.53017 0.32961 0.2869 0.0
H1488 H 0.40354 0.30832 0.32169 0.0
H1489 H 0.42607 0.3925 0.33389 0.0
H1490 H 0.4906 0.28487 0.31619 0.0
H1491 H 0.47252 0.28262 0.34939 0.0
H1492 H 0.44673 0.27486 0.32024 0.0
H1493 H 0.48174 0.40944 0.33553 0.0
H1494 H 0.50847 0.38752 0.35517 0.0
H1495 H 0.51373 0.38864 0.31928 0.0
H1496 H 0.57203 0.33426 0.39083 0.0
H1497 H 0.59377 0.32266 0.30644 0.0
H1498 H 0.48428 0.3201 0.38735 0.0
H1499 H 0.48972 0.35598 0.38646 0.0
H1500 H 0.51653 0.33609 0.40808 0.0
H1501 H 0.55015 0.32137 0.27325 0.0
H1502 H 0.52547 0.35106 0.28124 0.0
H1503 H 0.5062 0.31827 0.28341 0.0
C1504 C 0.73129 0.42201 0.35277 0.0
C1505 C 0.69989 0.41387 0.36363 0.0
C1506 C 0.7375 0.44929 0.34597 0.0
C1507 C 0.71149 0.4688 0.34971 0.0
C1508 C 0.68017 0.46083 0.36156 0.0
C1509 C 0.67486 0.43352 0.36856 0.0
C1510 C 0.7714 0.45702 0.33385 0.0
C1511 C 0.65163 0.48094 0.36573 0.0
C1512 C 0.72335 0.54535 0.34825 0.0
C1513 C 0.70965 0.55181 0.32271 0.0
C1514 C 0.72649 0.51819 0.35671 0.0
C1515 C 0.71557 0.49705 0.33929 0.0
C1516 C 0.70475 0.50337 0.31264 0.0
C1517 C 0.70217 0.5306 0.30462 0.0
C1518 C 0.73891 0.51229 0.38507 0.0
C1519 C 0.69302 0.48151 0.2933 0.0
H1520 H 0.75085 0.40697 0.34905 0.0
H1521 H 0.65053 0.42739 0.3769 0.0
H1522 H 0.76802 0.46228 0.31213 0.0
H1523 H 0.78183 0.47523 0.34416 0.0
H1524 H 0.79027 0.44031 0.33533 0.0
H1525 H 0.62946 0.47179 0.3763 0.0
H1526 H 0.66074 0.49851 0.37776 0.0
H1527 H 0.64299 0.48884 0.34579 0.0
H1528 H 0.72934 0.56147 0.36243 0.0
H1529 H 0.69193 0.53526 0.28474 0.0
H1530 H 0.75668 0.4948 0.38511 0.0
H1531 H 0.71694 0.50684 0.39812 0.0
H1532 H 0.75192 0.5301 0.39421 0.0
H1533 H 0.71186 0.46479 0.29236 0.0
H1534 H 0.68889 0.48943 0.27245 0.0
H1535 H 0.66872 0.47276 0.30072 0.0
C1536 C 0.57662 0.68267 0.32465 0.0
C1537 C 0.5877 0.65571 0.3262 0.0
C1538 C 0.54202 0.68921 0.32766 0.0
C1539 C 0.51797 0.66817 0.33161 0.0
C1540 C 0.52904 0.64085 0.33244 0.0
C1541 C 0.56388 0.63512 0.33083 0.0
C1542 C 0.53166 0.71868 0.32845 0.0
C1543 C 0.50415 0.6177 0.33578 0.0
C1544 C 0.43552 0.67565 0.37042 0.0
C1545 C 0.41195 0.68037 0.34967 0.0
C1546 C 0.47039 0.67382 0.36493 0.0
C1547 C 0.48176 0.67451 0.33769 0.0
C1548 C 0.45797 0.67856 0.31647 0.0
C1549 C 0.42333 0.68179 0.32277 0.0
C1550 C 0.49501 0.6704 0.38825 0.0
C1551 C 0.46859 0.67761 0.28708 0.0
H1552 H 0.59519 0.69873 0.32203 0.0
H1553 H 0.57257 0.61453 0.33395 0.0
H1554 H 0.50814 0.72225 0.31656 0.0
H1555 H 0.52622 0.72438 0.34977 0.0
H1556 H 0.55202 0.73222 0.32064 0.0
H1557 H 0.51689 0.59761 0.33551 0.0
H1558 H 0.49015 0.61948 0.35519 0.0
H1559 H 0.48494 0.61847 0.3193 0.0
H1560 H 0.42658 0.67261 0.39096 0.0
H1561 H 0.40496 0.68448 0.30659 0.0
H1562 H 0.51434 0.68679 0.38759 0.0
H1563 H 0.50889 0.65092 0.3866 0.0
H1564 H 0.48206 0.67075 0.40825 0.0
H1565 H 0.49255 0.68897 0.28365 0.0
H1566 H 0.44863 0.68589 0.27344 0.0
H1567 H 0.47331 0.65619 0.28136 0.0
C1568 C 0.2963 0.47636 0.30451 0.0
C1569 C 0.2889 0.45514 0.32261 0.0
C1570 C 0.29371 0.50359 0.31252 0.0
C1571 C 0.28296 0.5099 0.3392 0.0
C1572 C 0.2721 0.48875 0.35663 0.0
C1573 C 0.27525 0.46159 0.34816 0.0
C1574 C 0.30538 0.52546 0.29316 0.0
C1575 C 0.25974 0.49464 0.38502 0.0
C1576 C 0.32375 0.57342 0.36842 0.0
C1577 C 0.29872 0.59307 0.36354 0.0
C1578 C 0.31842 0.54611 0.36142 0.0
C1579 C 0.28707 0.53815 0.34962 0.0
C1580 C 0.26106 0.55766 0.34592 0.0
C1581 C 0.26729 0.58494 0.35271 0.0
C1582 C 0.34696 0.526 0.36553 0.0
C1583 C 0.22712 0.54994 0.33385 0.0
H1584 H 0.3065 0.47171 0.2846 0.0
H1585 H 0.26932 0.44547 0.36236 0.0
H1586 H 0.28654 0.54218 0.29226 0.0
H1587 H 0.3297 0.53421 0.30055 0.0
H1588 H 0.30945 0.51755 0.27231 0.0
H1589 H 0.24676 0.47683 0.39417 0.0
H1590 H 0.28174 0.50009 0.39803 0.0
H1591 H 0.24198 0.51213 0.38508 0.0
H1592 H 0.3481 0.57954 0.37673 0.0
H1593 H 0.24773 0.59999 0.34903 0.0
H1594 H 0.35554 0.5181 0.34558 0.0
H1595 H 0.33789 0.50842 0.37758 0.0
H1596 H 0.36917 0.53514 0.37606 0.0
H1597 H 0.23044 0.5447 0.31213 0.0
H1598 H 0.20826 0.56666 0.33538 0.0
H1599 H 0.21671 0.53174 0.34418 0.0
loop_
_geom_bond_atom_site_label_1
_geom_bond_atom_site_label_2
_geom_bond_distance
_geom_bond_site_symmetry_2
_ccdc_geom_bond_type
Mn0 O5 2.095 . S
Mn0 O15 2.162 . S
Mn0 O16 2.297 . S
Mn0 O24 2.385 . S
Mn0 O25 2.209 . S
Mn0 O26 2.094 . S
Mn1 O6 2.121 . S
Mn1 N8 2.257 . S
Mn1 N17 2.282 . S
Mn1 O25 2.215 . S
Mn1 O27 2.117 . S
C2 O24 1.234 . S
C2 O25 1.283 . S
C3 O15 1.281 . S
C3 O16 1.236 . S
C4 O26 1.240 . S
C4 O27 1.264 . S
O5 Mn0 2.095 . S
O5 C14 1.250 . S
O6 Mn1 2.121 . S
O6 C14 1.258 . S
C7 N8 1.326 . S
C7 C11 1.460 . S
C7 H13 0.929 . S
N8 Mn1 2.257 . S
N8 C7 1.326 . S
N8 C12 1.362 . S
C9 C10 1.258 . S
C9 C12 1.431 . S
C9 C29 1.449 . S
C10 C9 1.258 . S
C10 C11 1.477 . S
C10 H30 0.931 . S
C11 C7 1.460 . S
C11 C10 1.477 . S
C11 H31 0.930 . S
C12 N8 1.362 . S
C12 C9 1.431 . S
C12 C22 1.476 . S
H13 C7 0.929 . S
C14 O5 1.250 . S
C14 O6 1.258 . S
O15 Mn0 2.162 . S
O15 C3 1.281 . S
O16 Mn0 2.297 . S
O16 C3 1.236 . S
N17 Mn1 2.282 . S
N17 C18 1.328 . S
N17 C22 1.318 . S
C18 N17 1.328 . S
C18 C19 1.457 . S
C18 H23 0.929 . S
C19 C18 1.457 . S
C19 C20 1.291 . S
C19 H32 0.931 . S
C20 C19 1.291 . S
C20 C21 1.373 . S
C20 H33 0.929 . S
C21 C20 1.373 . S
C21 C22 1.396 . S
C21 C28 1.403 . S
C22 C12 1.476 . S
C22 N17 1.318 . S
C22 C21 1.396 . S
H23 C18 0.929 . S
O24 Mn0 2.385 . S
O24 C2 1.234 . S
O25 Mn0 2.209 . S
O25 Mn1 2.215 . S
O25 C2 1.283 . S
O26 Mn0 2.094 . S
O26 C4 1.240 . S
O27 Mn1 2.117 . S
O27 C4 1.264 . S
C28 C21 1.403 . S
C28 C29 1.399 . S
C28 H34 0.929 . S
C29 C9 1.449 . S
C29 C28 1.399 . S
C29 H35 0.930 . S
H30 C10 0.931 . S
H31 C11 0.930 . S
H32 C19 0.931 . S
H33 C20 0.929 . S
H34 C28 0.929 . S
H35 C29 0.930 . S
Mn36 O41 2.095 . S
Mn36 O51 2.162 . S
Mn36 O52 2.297 . S
Mn36 O60 2.385 . S
Mn36 O61 2.209 . S
Mn36 O62 2.094 . S
Mn37 O42 2.121 . S
Mn37 N44 2.257 . S
Mn37 N53 2.282 . S
Mn37 O61 2.215 . S
Mn37 O63 2.117 . S
C38 O60 1.234 . S
C38 O61 1.283 . S
C39 O51 1.281 . S
C39 O52 1.236 . S
C40 O62 1.240 . S
C40 O63 1.264 . S
O41 Mn36 2.095 . S
O41 C50 1.250 . S
O42 Mn37 2.121 . S
O42 C50 1.258 . S
C43 N44 1.326 . S
C43 C47 1.460 . S
C43 H49 0.929 . S
N44 Mn37 2.257 . S
N44 C43 1.326 . S
N44 C48 1.362 . S
C45 C46 1.258 . S
C45 C48 1.431 . S
C45 C65 1.449 . S
C46 C45 1.258 . S
C46 C47 1.477 . S
C46 H66 0.931 . S
C47 C43 1.460 . S
C47 C46 1.477 . S
C47 H67 0.930 . S
C48 N44 1.362 . S
C48 C45 1.431 . S
C48 C58 1.476 . S
H49 C43 0.929 . S
C50 O41 1.250 . S
C50 O42 1.258 . S
O51 Mn36 2.162 . S
O51 C39 1.281 . S
O52 Mn36 2.297 . S
O52 C39 1.236 . S
N53 Mn37 2.282 . S
N53 C54 1.328 . S
N53 C58 1.318 . S
C54 N53 1.328 . S
C54 C55 1.457 . S
C54 H59 0.929 . S
C55 C54 1.457 . S
C55 C56 1.291 . S
C55 H68 0.931 . S
C56 C55 1.291 . S
C56 C57 1.373 . S
C56 H69 0.929 . S
C57 C56 1.373 . S
C57 C58 1.396 . S
C57 C64 1.403 . S
C58 C48 1.476 . S
C58 N53 1.318 . S
C58 C57 1.396 . S
H59 C54 0.929 . S
O60 Mn36 2.385 . S
O60 C38 1.234 . S
O61 Mn36 2.209 . S
O61 Mn37 2.215 . S
O61 C38 1.283 . S
O62 Mn36 2.094 . S
O62 C40 1.240 . S
O63 Mn37 2.117 . S
O63 C40 1.264 . S
C64 C57 1.403 . S
C64 C65 1.399 . S
C64 H70 0.929 . S
C65 C45 1.449 . S
C65 C64 1.399 . S
C65 H71 0.930 . S
H66 C46 0.931 . S
H67 C47 0.930 . S
H68 C55 0.931 . S
H69 C56 0.929 . S
H70 C64 0.929 . S
H71 C65 0.930 . S
Mn72 O77 2.095 . S
Mn72 O87 2.162 . S
Mn72 O88 2.297 . S
Mn72 O96 2.385 . S
Mn72 O97 2.209 . S
Mn72 O98 2.094 . S
Mn73 O78 2.121 . S
Mn73 N80 2.257 . S
Mn73 N89 2.282 . S
Mn73 O97 2.215 . S
Mn73 O99 2.117 . S
C74 O96 1.234 . S
C74 O97 1.283 . S
C75 O87 1.281 . S
C75 O88 1.236 . S
C76 O98 1.240 . S
C76 O99 1.264 . S
O77 Mn72 2.095 . S
O77 C86 1.250 . S
O78 Mn73 2.121 . S
O78 C86 1.258 . S
C79 N80 1.326 . S
C79 C83 1.460 . S
C79 H85 0.929 . S
N80 Mn73 2.257 . S
N80 C79 1.326 . S
N80 C84 1.362 . S
C81 C82 1.258 . S
C81 C84 1.431 . S
C81 C101 1.449 . S
C82 C81 1.258 . S
C82 C83 1.477 . S
C82 H102 0.931 . S
C83 C79 1.460 . S
C83 C82 1.477 . S
C83 H103 0.930 . S
C84 N80 1.362 . S
C84 C81 1.431 . S
C84 C94 1.476 . S
H85 C79 0.929 . S
C86 O77 1.250 . S
C86 O78 1.258 . S
O87 Mn72 2.162 . S
O87 C75 1.281 . S
O88 Mn72 2.297 . S
O88 C75 1.236 . S
N89 Mn73 2.282 . S
N89 C90 1.328 . S
N89 C94 1.318 . S
C90 N89 1.328 . S
C90 C91 1.457 . S
C90 H95 0.929 . S
C91 C90 1.457 . S
C91 C92 1.291 . S
C91 H104 0.931 . S
C92 C91 1.291 . S
C92 C93 1.373 . S
C92 H105 0.929 . S
C93 C92 1.373 . S
C93 C94 1.396 . S
C93 C100 1.403 . S
C94 C84 1.476 . S
C94 N89 1.318 . S
C94 C93 1.396 . S
H95 C90 0.929 . S
O96 Mn72 2.385 . S
O96 C74 1.234 . S
O97 Mn72 2.209 . S
O97 Mn73 2.215 . S
O97 C74 1.283 . S
O98 Mn72 2.094 . S
O98 C76 1.240 . S
O99 Mn73 2.117 . S
O99 C76 1.264 . S
C100 C93 1.403 . S
C100 C101 1.399 . S
C100 H106 0.929 . S
C101 C81 1.449 . S
C101 C100 1.399 . S
C101 H107 0.930 . S
H102 C82 0.931 . S
H103 C83 0.930 . S
H104 C91 0.931 . S
H105 C92 0.929 . S
H106 C100 0.929 . S
H107 C101 0.930 . S
Mn108 O113 2.095 . S
Mn108 O123 2.162 . S
Mn108 O124 2.297 . S
Mn108 O132 2.385 . S
Mn108 O133 2.209 . S
Mn108 O134 2.094 . S
Mn109 O114 2.121 . S
Mn109 N116 2.257 . S
Mn109 N125 2.282 . S
Mn109 O133 2.215 . S
Mn109 O135 2.117 . S
C110 O132 1.234 . S
C110 O133 1.283 . S
C111 O123 1.281 . S
C111 O124 1.236 . S
C112 O134 1.240 . S
C112 O135 1.264 . S
O113 Mn108 2.095 . S
O113 C122 1.250 . S
O114 Mn109 2.121 . S
O114 C122 1.258 . S
C115 N116 1.326 . S
C115 C119 1.460 . S
C115 H121 0.929 . S
N116 Mn109 2.257 . S
N116 C115 1.326 . S
N116 C120 1.362 . S
C117 C118 1.258 . S
C117 C120 1.431 . S
C117 C137 1.449 . S
C118 C117 1.258 . S
C118 C119 1.477 . S
C118 H138 0.931 . S
C119 C115 1.460 . S
C119 C118 1.477 . S
C119 H139 0.930 . S
C120 N116 1.362 . S
C120 C117 1.431 . S
C120 C130 1.476 . S
H121 C115 0.929 . S
C122 O113 1.250 . S
C122 O114 1.258 . S
O123 Mn108 2.162 . S
O123 C111 1.281 . S
O124 Mn108 2.297 . S
O124 C111 1.236 . S
N125 Mn109 2.282 . S
N125 C126 1.328 . S
N125 C130 1.318 . S
C126 N125 1.328 . S
C126 C127 1.457 . S
C126 H131 0.929 . S
C127 C126 1.457 . S
C127 C128 1.291 . S
C127 H140 0.931 . S
C128 C127 1.291 . S
C128 C129 1.373 . S
C128 H141 0.929 . S
C129 C128 1.373 . S
C129 C130 1.396 . S
C129 C136 1.403 . S
C130 C120 1.476 . S
C130 N125 1.318 . S
C130 C129 1.396 . S
H131 C126 0.929 . S
O132 Mn108 2.385 . S
O132 C110 1.234 . S
O133 Mn108 2.209 . S
O133 Mn109 2.215 . S
O133 C110 1.283 . S
O134 Mn108 2.094 . S
O134 C112 1.240 . S
O135 Mn109 2.117 . S
O135 C112 1.264 . S
C136 C129 1.403 . S
C136 C137 1.399 . S
C136 H142 0.929 . S
C137 C117 1.449 . S
C137 C136 1.399 . S
C137 H143 0.930 . S
H138 C118 0.931 . S
H139 C119 0.930 . S
H140 C127 0.931 . S
H141 C128 0.929 . S
H142 C136 0.929 . S
H143 C137 0.930 . S
Mn144 O149 2.095 . S
Mn144 O159 2.162 . S
Mn144 O160 2.297 . S
Mn144 O168 2.385 . S
Mn144 O169 2.209 . S
Mn144 O170 2.094 . S
Mn145 O150 2.121 . S
Mn145 N152 2.257 . S
Mn145 N161 2.282 . S
Mn145 O169 2.215 . S
Mn145 O171 2.117 . S
C146 O168 1.234 . S
C146 O169 1.283 . S
C147 O159 1.281 . S
C147 O160 1.236 . S
C148 O170 1.240 . S
C148 O171 1.264 . S
O149 Mn144 2.095 . S
O149 C158 1.250 . S
O150 Mn145 2.121 . S
O150 C158 1.258 . S
C151 N152 1.326 . S
C151 C155 1.460 . S
C151 H157 0.929 . S
N152 Mn145 2.257 . S
N152 C151 1.326 . S
N152 C156 1.362 . S
C153 C154 1.258 . S
C153 C156 1.431 . S
C153 C173 1.449 . S
C154 C153 1.258 . S
C154 C155 1.477 . S
C154 H174 0.931 . S
C155 C151 1.460 . S
C155 C154 1.477 . S
C155 H175 0.930 . S
C156 N152 1.362 . S
C156 C153 1.431 . S
C156 C166 1.476 . S
H157 C151 0.929 . S
C158 O149 1.250 . S
C158 O150 1.258 . S
O159 Mn144 2.162 . S
O159 C147 1.281 . S
O160 Mn144 2.297 . S
O160 C147 1.236 . S
N161 Mn145 2.282 . S
N161 C162 1.328 . S
N161 C166 1.318 . S
C162 N161 1.328 . S
C162 C163 1.457 . S
C162 H167 0.929 . S
C163 C162 1.457 . S
C163 C164 1.291 . S
C163 H176 0.931 . S
C164 C163 1.291 . S
C164 C165 1.373 . S
C164 H177 0.929 . S
C165 C164 1.373 . S
C165 C166 1.396 . S
C165 C172 1.403 . S
C166 C156 1.476 . S
C166 N161 1.318 . S
C166 C165 1.396 . S
H167 C162 0.929 . S
O168 Mn144 2.385 . S
O168 C146 1.234 . S
O169 Mn144 2.209 . S
O169 Mn145 2.215 . S
O169 C146 1.283 . S
O170 Mn144 2.094 . S
O170 C148 1.240 . S
O171 Mn145 2.117 . S
O171 C148 1.264 . S
C172 C165 1.403 . S
C172 C173 1.399 . S
C172 H178 0.929 . S
C173 C153 1.449 . S
C173 C172 1.399 . S
C173 H179 0.930 . S
H174 C154 0.931 . S
H175 C155 0.930 . S
H176 C163 0.931 . S
H177 C164 0.929 . S
H178 C172 0.929 . S
H179 C173 0.930 . S
Mn180 O185 2.095 . S
Mn180 O195 2.162 . S
Mn180 O196 2.297 . S
Mn180 O204 2.385 . S
Mn180 O205 2.209 . S
Mn180 O206 2.094 . S
Mn181 O186 2.121 . S
Mn181 N188 2.257 . S
Mn181 N197 2.282 . S
Mn181 O205 2.215 . S
Mn181 O207 2.117 . S
C182 O204 1.234 . S
C182 O205 1.283 . S
C183 O195 1.281 . S
C183 O196 1.236 . S
C184 O206 1.240 . S
C184 O207 1.264 . S
O185 Mn180 2.095 . S
O185 C194 1.250 . S
O186 Mn181 2.121 . S
O186 C194 1.258 . S
C187 N188 1.326 . S
C187 C191 1.460 . S
C187 H193 0.929 . S
N188 Mn181 2.257 . S
N188 C187 1.326 . S
N188 C192 1.362 . S
C189 C190 1.258 . S
C189 C192 1.431 . S
C189 C209 1.449 . S
C190 C189 1.258 . S
C190 C191 1.477 . S
C190 H210 0.931 . S
C191 C187 1.460 . S
C191 C190 1.477 . S
C191 H211 0.930 . S
C192 N188 1.362 . S
C192 C189 1.431 . S
C192 C202 1.476 . S
H193 C187 0.929 . S
C194 O185 1.250 . S
C194 O186 1.258 . S
O195 Mn180 2.162 . S
O195 C183 1.281 . S
O196 Mn180 2.297 . S
O196 C183 1.236 . S
N197 Mn181 2.282 . S
N197 C198 1.328 . S
N197 C202 1.318 . S
C198 N197 1.328 . S
C198 C199 1.457 . S
C198 H203 0.929 . S
C199 C198 1.457 . S
C199 C200 1.291 . S
C199 H212 0.931 . S
C200 C199 1.291 . S
C200 C201 1.373 . S
C200 H213 0.929 . S
C201 C200 1.373 . S
C201 C202 1.396 . S
C201 C208 1.403 . S
C202 C192 1.476 . S
C202 N197 1.318 . S
C202 C201 1.396 . S
H203 C198 0.929 . S
O204 Mn180 2.385 . S
O204 C182 1.234 . S
O205 Mn180 2.209 . S
O205 Mn181 2.215 . S
O205 C182 1.283 . S
O206 Mn180 2.094 . S
O206 C184 1.240 . S
O207 Mn181 2.117 . S
O207 C184 1.264 . S
C208 C201 1.403 . S
C208 C209 1.399 . S
C208 H214 0.929 . S
C209 C189 1.449 . S
C209 C208 1.399 . S
C209 H215 0.930 . S
H210 C190 0.931 . S
H211 C191 0.930 . S
H212 C199 0.931 . S
H213 C200 0.929 . S
H214 C208 0.929 . S
H215 C209 0.930 . S
Mn216 O221 2.095 . S
Mn216 O231 2.162 . S
Mn216 O232 2.297 . S
Mn216 O240 2.385 . S
Mn216 O241 2.209 . S
Mn216 O242 2.094 . S
Mn217 O222 2.121 . S
Mn217 N224 2.257 . S
Mn217 N233 2.282 . S
Mn217 O241 2.215 . S
Mn217 O243 2.117 . S
C218 O240 1.234 . S
C218 O241 1.283 . S
C219 O231 1.281 . S
C219 O232 1.236 . S
C220 O242 1.240 . S
C220 O243 1.264 . S
O221 Mn216 2.095 . S
O221 C230 1.250 . S
O222 Mn217 2.121 . S
O222 C230 1.258 . S
C223 N224 1.326 . S
C223 C227 1.460 . S
C223 H229 0.929 . S
N224 Mn217 2.257 . S
N224 C223 1.326 . S
N224 C228 1.362 . S
C225 C226 1.258 . S
C225 C228 1.431 . S
C225 C245 1.449 . S
C226 C225 1.258 . S
C226 C227 1.477 . S
C226 H246 0.931 . S
C227 C223 1.460 . S
C227 C226 1.477 . S
C227 H247 0.930 . S
C228 N224 1.362 . S
C228 C225 1.431 . S
C228 C238 1.476 . S
H229 C223 0.929 . S
C230 O221 1.250 . S
C230 O222 1.258 . S
O231 Mn216 2.162 . S
O231 C219 1.281 . S
O232 Mn216 2.297 . S
O232 C219 1.236 . S
N233 Mn217 2.282 . S
N233 C234 1.328 . S
N233 C238 1.318 . S
C234 N233 1.328 . S
C234 C235 1.457 . S
C234 H239 0.929 . S
C235 C234 1.457 . S
C235 C236 1.291 . S
C235 H248 0.931 . S
C236 C235 1.291 . S
C236 C237 1.373 . S
C236 H249 0.929 . S
C237 C236 1.373 . S
C237 C238 1.396 . S
C237 C244 1.403 . S
C238 C228 1.476 . S
C238 N233 1.318 . S
C238 C237 1.396 . S
H239 C234 0.929 . S
O240 Mn216 2.385 . S
O240 C218 1.234 . S
O241 Mn216 2.209 . S
O241 Mn217 2.215 . S
O241 C218 1.283 . S
O242 Mn216 2.094 . S
O242 C220 1.240 . S
O243 Mn217 2.117 . S
O243 C220 1.264 . S
C244 C237 1.403 . S
C244 C245 1.399 . S
C244 H250 0.929 . S
C245 C225 1.449 . S
C245 C244 1.399 . S
C245 H251 0.930 . S
H246 C226 0.931 . S
H247 C227 0.930 . S
H248 C235 0.931 . S
H249 C236 0.929 . S
H250 C244 0.929 . S
H251 C245 0.930 . S
Mn252 O257 2.095 . S
Mn252 O267 2.162 . S
Mn252 O268 2.297 . S
Mn252 O276 2.385 . S
Mn252 O277 2.209 . S
Mn252 O278 2.094 . S
Mn253 O258 2.121 . S
Mn253 N260 2.257 . S
Mn253 N269 2.282 . S
Mn253 O277 2.215 . S
Mn253 O279 2.117 . S
C254 O276 1.234 . S
C254 O277 1.283 . S
C255 O267 1.281 . S
C255 O268 1.236 . S
C256 O278 1.240 . S
C256 O279 1.264 . S
O257 Mn252 2.095 . S
O257 C266 1.250 . S
O258 Mn253 2.121 . S
O258 C266 1.258 . S
C259 N260 1.326 . S
C259 C263 1.460 . S
C259 H265 0.929 . S
N260 Mn253 2.257 . S
N260 C259 1.326 . S
N260 C264 1.362 . S
C261 C262 1.258 . S
C261 C264 1.431 . S
C261 C281 1.449 . S
C262 C261 1.258 . S
C262 C263 1.477 . S
C262 H282 0.931 . S
C263 C259 1.460 . S
C263 C262 1.477 . S
C263 H283 0.930 . S
C264 N260 1.362 . S
C264 C261 1.431 . S
C264 C274 1.476 . S
H265 C259 0.929 . S
C266 O257 1.250 . S
C266 O258 1.258 . S
O267 Mn252 2.162 . S
O267 C255 1.281 . S
O268 Mn252 2.297 . S
O268 C255 1.236 . S
N269 Mn253 2.282 . S
N269 C270 1.328 . S
N269 C274 1.318 . S
C270 N269 1.328 . S
C270 C271 1.457 . S
C270 H275 0.929 . S
C271 C270 1.457 . S
C271 C272 1.291 . S
C271 H284 0.931 . S
C272 C271 1.291 . S
C272 C273 1.373 . S
C272 H285 0.929 . S
C273 C272 1.373 . S
C273 C274 1.396 . S
C273 C280 1.403 . S
C274 C264 1.476 . S
C274 N269 1.318 . S
C274 C273 1.396 . S
H275 C270 0.929 . S
O276 Mn252 2.385 . S
O276 C254 1.234 . S
O277 Mn252 2.209 . S
O277 Mn253 2.215 . S
O277 C254 1.283 . S
O278 Mn252 2.094 . S
O278 C256 1.240 . S
O279 Mn253 2.117 . S
O279 C256 1.264 . S
C280 C273 1.403 . S
C280 C281 1.399 . S
C280 H286 0.929 . S
C281 C261 1.449 . S
C281 C280 1.399 . S
C281 H287 0.930 . S
H282 C262 0.931 . S
H283 C263 0.930 . S
H284 C271 0.931 . S
H285 C272 0.929 . S
H286 C280 0.929 . S
H287 C281 0.930 . S
Mn288 O293 2.095 . S
Mn288 O303 2.162 . S
Mn288 O304 2.297 . S
Mn288 O312 2.385 . S
Mn288 O313 2.209 . S
Mn288 O314 2.094 . S
Mn289 O294 2.121 . S
Mn289 N296 2.257 . S
Mn289 N305 2.282 . S
Mn289 O313 2.215 . S
Mn289 O315 2.117 . S
C290 O312 1.234 . S
C290 O313 1.283 . S
C291 O303 1.281 . S
C291 O304 1.236 . S
C292 O314 1.240 . S
C292 O315 1.264 . S
O293 Mn288 2.095 . S
O293 C302 1.250 . S
O294 Mn289 2.121 . S
O294 C302 1.258 . S
C295 N296 1.326 . S
C295 C299 1.460 . S
C295 H301 0.929 . S
N296 Mn289 2.257 . S
N296 C295 1.326 . S
N296 C300 1.362 . S
C297 C298 1.258 . S
C297 C300 1.431 . S
C297 C317 1.449 . S
C298 C297 1.258 . S
C298 C299 1.477 . S
C298 H318 0.931 . S
C299 C295 1.460 . S
C299 C298 1.477 . S
C299 H319 0.930 . S
C300 N296 1.362 . S
C300 C297 1.431 . S
C300 C310 1.476 . S
H301 C295 0.929 . S
C302 O293 1.250 . S
C302 O294 1.258 . S
O303 Mn288 2.162 . S
O303 C291 1.281 . S
O304 Mn288 2.297 . S
O304 C291 1.236 . S
N305 Mn289 2.282 . S
N305 C306 1.328 . S
N305 C310 1.318 . S
C306 N305 1.328 . S
C306 C307 1.457 . S
C306 H311 0.929 . S
C307 C306 1.457 . S
C307 C308 1.291 . S
C307 H320 0.931 . S
C308 C307 1.291 . S
C308 C309 1.373 . S
C308 H321 0.929 . S
C309 C308 1.373 . S
C309 C310 1.396 . S
C309 C316 1.403 . S
C310 C300 1.476 . S
C310 N305 1.318 . S
C310 C309 1.396 . S
H311 C306 0.929 . S
O312 Mn288 2.385 . S
O312 C290 1.234 . S
O313 Mn288 2.209 . S
O313 Mn289 2.215 . S
O313 C290 1.283 . S
O314 Mn288 2.094 . S
O314 C292 1.240 . S
O315 Mn289 2.117 . S
O315 C292 1.264 . S
C316 C309 1.403 . S
C316 C317 1.399 . S
C316 H322 0.929 . S
C317 C297 1.449 . S
C317 C316 1.399 . S
C317 H323 0.930 . S
H318 C298 0.931 . S
H319 C299 0.930 . S
H320 C307 0.931 . S
H321 C308 0.929 . S
H322 C316 0.929 . S
H323 C317 0.930 . S
Mn324 O329 2.095 . S
Mn324 O339 2.162 . S
Mn324 O340 2.297 . S
Mn324 O348 2.385 . S
Mn324 O349 2.209 . S
Mn324 O350 2.094 . S
Mn325 O330 2.121 . S
Mn325 N332 2.257 . S
Mn325 N341 2.282 . S
Mn325 O349 2.215 . S
Mn325 O351 2.117 . S
C326 O348 1.234 . S
C326 O349 1.283 . S
C327 O339 1.281 . S
C327 O340 1.236 . S
C328 O350 1.240 . S
C328 O351 1.264 . S
O329 Mn324 2.095 . S
O329 C338 1.250 . S
O330 Mn325 2.121 . S
O330 C338 1.258 . S
C331 N332 1.326 . S
C331 C335 1.460 . S
C331 H337 0.929 . S
N332 Mn325 2.257 . S
N332 C331 1.326 . S
N332 C336 1.362 . S
C333 C334 1.258 . S
C333 C336 1.431 . S
C333 C353 1.449 . S
C334 C333 1.258 . S
C334 C335 1.477 . S
C334 H354 0.931 . S
C335 C331 1.460 . S
C335 C334 1.477 . S
C335 H355 0.930 . S
C336 N332 1.362 . S
C336 C333 1.431 . S
C336 C346 1.476 . S
H337 C331 0.929 . S
C338 O329 1.250 . S
C338 O330 1.258 . S
O339 Mn324 2.162 . S
O339 C327 1.281 . S
O340 Mn324 2.297 . S
O340 C327 1.236 . S
N341 Mn325 2.282 . S
N341 C342 1.328 . S
N341 C346 1.318 . S
C342 N341 1.328 . S
C342 C343 1.457 . S
C342 H347 0.929 . S
C343 C342 1.457 . S
C343 C344 1.291 . S
C343 H356 0.931 . S
C344 C343 1.291 . S
C344 C345 1.373 . S
C344 H357 0.929 . S
C345 C344 1.373 . S
C345 C346 1.396 . S
C345 C352 1.403 . S
C346 C336 1.476 . S
C346 N341 1.318 . S
C346 C345 1.396 . S
H347 C342 0.929 . S
O348 Mn324 2.385 . S
O348 C326 1.234 . S
O349 Mn324 2.209 . S
O349 Mn325 2.215 . S
O349 C326 1.283 . S
O350 Mn324 2.094 . S
O350 C328 1.240 . S
O351 Mn325 2.117 . S
O351 C328 1.264 . S
C352 C345 1.403 . S
C352 C353 1.399 . S
C352 H358 0.929 . S
C353 C333 1.449 . S
C353 C352 1.399 . S
C353 H359 0.930 . S
H354 C334 0.931 . S
H355 C335 0.930 . S
H356 C343 0.931 . S
H357 C344 0.929 . S
H358 C352 0.929 . S
H359 C353 0.930 . S
Mn360 O365 2.095 . S
Mn360 O375 2.162 . S
Mn360 O376 2.297 . S
Mn360 O384 2.385 . S
Mn360 O385 2.209 . S
Mn360 O386 2.094 . S
Mn361 O366 2.121 . S
Mn361 N368 2.257 . S
Mn361 N377 2.282 . S
Mn361 O385 2.215 . S
Mn361 O387 2.117 . S
C362 O384 1.234 . S
C362 O385 1.283 . S
C363 O375 1.281 . S
C363 O376 1.236 . S
C364 O386 1.240 . S
C364 O387 1.264 . S
O365 Mn360 2.095 . S
O365 C374 1.250 . S
O366 Mn361 2.121 . S
O366 C374 1.258 . S
C367 N368 1.326 . S
C367 C371 1.460 . S
C367 H373 0.929 . S
N368 Mn361 2.257 . S
N368 C367 1.326 . S
N368 C372 1.362 . S
C369 C370 1.258 . S
C369 C372 1.431 . S
C369 C389 1.449 . S
C370 C369 1.258 . S
C370 C371 1.477 . S
C370 H390 0.931 . S
C371 C367 1.460 . S
C371 C370 1.477 . S
C371 H391 0.930 . S
C372 N368 1.362 . S
C372 C369 1.431 . S
C372 C382 1.476 . S
H373 C367 0.929 . S
C374 O365 1.250 . S
C374 O366 1.258 . S
O375 Mn360 2.162 . S
O375 C363 1.281 . S
O376 Mn360 2.297 . S
O376 C363 1.236 . S
N377 Mn361 2.282 . S
N377 C378 1.328 . S
N377 C382 1.318 . S
C378 N377 1.328 . S
C378 C379 1.457 . S
C378 H383 0.929 . S
C379 C378 1.457 . S
C379 C380 1.291 . S
C379 H392 0.931 . S
C380 C379 1.291 . S
C380 C381 1.373 . S
C380 H393 0.929 . S
C381 C380 1.373 . S
C381 C382 1.396 . S
C381 C388 1.403 . S
C382 C372 1.476 . S
C382 N377 1.318 . S
C382 C381 1.396 . S
H383 C378 0.929 . S
O384 Mn360 2.385 . S
O384 C362 1.234 . S
O385 Mn360 2.209 . S
O385 Mn361 2.215 . S
O385 C362 1.283 . S
O386 Mn360 2.094 . S
O386 C364 1.240 . S
O387 Mn361 2.117 . S
O387 C364 1.264 . S
C388 C381 1.403 . S
C388 C389 1.399 . S
C388 H394 0.929 . S
C389 C369 1.449 . S
C389 C388 1.399 . S
C389 H395 0.930 . S
H390 C370 0.931 . S
H391 C371 0.930 . S
H392 C379 0.931 . S
H393 C380 0.929 . S
H394 C388 0.929 . S
H395 C389 0.930 . S
Mn396 O401 2.095 . S
Mn396 O411 2.162 . S
Mn396 O412 2.297 . S
Mn396 O420 2.385 . S
Mn396 O421 2.209 . S
Mn396 O422 2.094 . S
Mn397 O402 2.121 . S
Mn397 N404 2.257 . S
Mn397 N413 2.282 . S
Mn397 O421 2.215 . S
Mn397 O423 2.117 . S
C398 O420 1.234 . S
C398 O421 1.283 . S
C399 O411 1.281 . S
C399 O412 1.236 . S
C400 O422 1.240 . S
C400 O423 1.264 . S
O401 Mn396 2.095 . S
O401 C410 1.250 . S
O402 Mn397 2.121 . S
O402 C410 1.258 . S
C403 N404 1.326 . S
C403 C407 1.460 . S
C403 H409 0.929 . S
N404 Mn397 2.257 . S
N404 C403 1.326 . S
N404 C408 1.362 . S
C405 C406 1.258 . S
C405 C408 1.431 . S
C405 C425 1.449 . S
C406 C405 1.258 . S
C406 C407 1.477 . S
C406 H426 0.931 . S
C407 C403 1.460 . S
C407 C406 1.477 . S
C407 H427 0.930 . S
C408 N404 1.362 . S
C408 C405 1.431 . S
C408 C418 1.476 . S
H409 C403 0.929 . S
C410 O401 1.250 . S
C410 O402 1.258 . S
O411 Mn396 2.162 . S
O411 C399 1.281 . S
O412 Mn396 2.297 . S
O412 C399 1.236 . S
N413 Mn397 2.282 . S
N413 C414 1.328 . S
N413 C418 1.318 . S
C414 N413 1.328 . S
C414 C415 1.457 . S
C414 H419 0.929 . S
C415 C414 1.457 . S
C415 C416 1.291 . S
C415 H428 0.931 . S
C416 C415 1.291 . S
C416 C417 1.373 . S
C416 H429 0.929 . S
C417 C416 1.373 . S
C417 C418 1.396 . S
C417 C424 1.403 . S
C418 C408 1.476 . S
C418 N413 1.318 . S
C418 C417 1.396 . S
H419 C414 0.929 . S
O420 Mn396 2.385 . S
O420 C398 1.234 . S
O421 Mn396 2.209 . S
O421 Mn397 2.215 . S
O421 C398 1.283 . S
O422 Mn396 2.094 . S
O422 C400 1.240 . S
O423 Mn397 2.117 . S
O423 C400 1.264 . S
C424 C417 1.403 . S
C424 C425 1.399 . S
C424 H430 0.929 . S
C425 C405 1.449 . S
C425 C424 1.399 . S
C425 H431 0.930 . S
H426 C406 0.931 . S
H427 C407 0.930 . S
H428 C415 0.931 . S
H429 C416 0.929 . S
H430 C424 0.929 . S
H431 C425 0.930 . S
Mn432 O437 2.095 . S
Mn432 O447 2.162 . S
Mn432 O448 2.297 . S
Mn432 O456 2.385 . S
Mn432 O457 2.209 . S
Mn432 O458 2.094 . S
Mn433 O438 2.121 . S
Mn433 N440 2.257 . S
Mn433 N449 2.282 . S
Mn433 O457 2.215 . S
Mn433 O459 2.117 . S
C434 O456 1.234 . S
C434 O457 1.283 . S
C435 O447 1.281 . S
C435 O448 1.236 . S
C436 O458 1.240 . S
C436 O459 1.264 . S
O437 Mn432 2.095 . S
O437 C446 1.250 . S
O438 Mn433 2.121 . S
O438 C446 1.258 . S
C439 N440 1.326 . S
C439 C443 1.460 . S
C439 H445 0.929 . S
N440 Mn433 2.257 . S
N440 C439 1.326 . S
N440 C444 1.362 . S
C441 C442 1.258 . S
C441 C444 1.431 . S
C441 C461 1.449 . S
C442 C441 1.258 . S
C442 C443 1.477 . S
C442 H462 0.931 . S
C443 C439 1.460 . S
C443 C442 1.477 . S
C443 H463 0.930 . S
C444 N440 1.362 . S
C444 C441 1.431 . S
C444 C454 1.476 . S
H445 C439 0.929 . S
C446 O437 1.250 . S
C446 O438 1.258 . S
O447 Mn432 2.162 . S
O447 C435 1.281 . S
O448 Mn432 2.297 . S
O448 C435 1.236 . S
N449 Mn433 2.282 . S
N449 C450 1.328 . S
N449 C454 1.318 . S
C450 N449 1.328 . S
C450 C451 1.457 . S
C450 H455 0.929 . S
C451 C450 1.457 . S
C451 C452 1.291 . S
C451 H464 0.931 . S
C452 C451 1.291 . S
C452 C453 1.373 . S
C452 H465 0.929 . S
C453 C452 1.373 . S
C453 C454 1.396 . S
C453 C460 1.403 . S
C454 C444 1.476 . S
C454 N449 1.318 . S
C454 C453 1.396 . S
H455 C450 0.929 . S
O456 Mn432 2.385 . S
O456 C434 1.234 . S
O457 Mn432 2.209 . S
O457 Mn433 2.215 . S
O457 C434 1.283 . S
O458 Mn432 2.094 . S
O458 C436 1.240 . S
O459 Mn433 2.117 . S
O459 C436 1.264 . S
C460 C453 1.403 . S
C460 C461 1.399 . S
C460 H466 0.929 . S
C461 C441 1.449 . S
C461 C460 1.399 . S
C461 H467 0.930 . S
H462 C442 0.931 . S
H463 C443 0.930 . S
H464 C451 0.931 . S
H465 C452 0.929 . S
H466 C460 0.929 . S
H467 C461 0.930 . S
Mn468 O473 2.095 . S
Mn468 O483 2.162 . S
Mn468 O484 2.297 . S
Mn468 O492 2.385 . S
Mn468 O493 2.209 . S
Mn468 O494 2.094 . S
Mn469 O474 2.121 . S
Mn469 N476 2.257 . S
Mn469 N485 2.282 . S
Mn469 O493 2.215 . S
Mn469 O495 2.117 . S
C470 O492 1.234 . S
C470 O493 1.283 . S
C471 O483 1.281 . S
C471 O484 1.236 . S
C472 O494 1.240 . S
C472 O495 1.264 . S
O473 Mn468 2.095 . S
O473 C482 1.250 . S
O474 Mn469 2.121 . S
O474 C482 1.258 . S
C475 N476 1.326 . S
C475 C479 1.460 . S
C475 H481 0.929 . S
N476 Mn469 2.257 . S
N476 C475 1.326 . S
N476 C480 1.362 . S
C477 C478 1.258 . S
C477 C480 1.431 . S
C477 C497 1.449 . S
C478 C477 1.258 . S
C478 C479 1.477 . S
C478 H498 0.931 . S
C479 C475 1.460 . S
C479 C478 1.477 . S
C479 H499 0.930 . S
C480 N476 1.362 . S
C480 C477 1.431 . S
C480 C490 1.476 . S
H481 C475 0.929 . S
C482 O473 1.250 . S
C482 O474 1.258 . S
O483 Mn468 2.162 . S
O483 C471 1.281 . S
O484 Mn468 2.297 . S
O484 C471 1.236 . S
N485 Mn469 2.282 . S
N485 C486 1.328 . S
N485 C490 1.318 . S
C486 N485 1.328 . S
C486 C487 1.457 . S
C486 H491 0.929 . S
C487 C486 1.457 . S
C487 C488 1.291 . S
C487 H500 0.931 . S
C488 C487 1.291 . S
C488 C489 1.373 . S
C488 H501 0.929 . S
C489 C488 1.373 . S
C489 C490 1.396 . S
C489 C496 1.403 . S
C490 C480 1.476 . S
C490 N485 1.318 . S
C490 C489 1.396 . S
H491 C486 0.929 . S
O492 Mn468 2.385 . S
O492 C470 1.234 . S
O493 Mn468 2.209 . S
O493 Mn469 2.215 . S
O493 C470 1.283 . S
O494 Mn468 2.094 . S
O494 C472 1.240 . S
O495 Mn469 2.117 . S
O495 C472 1.264 . S
C496 C489 1.403 . S
C496 C497 1.399 . S
C496 H502 0.929 . S
C497 C477 1.449 . S
C497 C496 1.399 . S
C497 H503 0.930 . S
H498 C478 0.931 . S
H499 C479 0.930 . S
H500 C487 0.931 . S
H501 C488 0.929 . S
H502 C496 0.929 . S
H503 C497 0.930 . S
Mn504 O509 2.095 . S
Mn504 O519 2.162 . S
Mn504 O520 2.297 . S
Mn504 O528 2.385 . S
Mn504 O529 2.209 . S
Mn504 O530 2.094 . S
Mn505 O510 2.121 . S
Mn505 N512 2.257 . S
Mn505 N521 2.282 . S
Mn505 O529 2.215 . S
Mn505 O531 2.117 . S
C506 O528 1.234 . S
C506 O529 1.283 . S
C507 O519 1.281 . S
C507 O520 1.236 . S
C508 O530 1.240 . S
C508 O531 1.264 . S
O509 Mn504 2.095 . S
O509 C518 1.250 . S
O510 Mn505 2.121 . S
O510 C518 1.258 . S
C511 N512 1.326 . S
C511 C515 1.460 . S
C511 H517 0.929 . S
N512 Mn505 2.257 . S
N512 C511 1.326 . S
N512 C516 1.362 . S
C513 C514 1.258 . S
C513 C516 1.431 . S
C513 C533 1.449 . S
C514 C513 1.258 . S
C514 C515 1.477 . S
C514 H534 0.931 . S
C515 C511 1.460 . S
C515 C514 1.477 . S
C515 H535 0.930 . S
C516 N512 1.362 . S
C516 C513 1.431 . S
C516 C526 1.476 . S
H517 C511 0.929 . S
C518 O509 1.250 . S
C518 O510 1.258 . S
O519 Mn504 2.162 . S
O519 C507 1.281 . S
O520 Mn504 2.297 . S
O520 C507 1.236 . S
N521 Mn505 2.282 . S
N521 C522 1.328 . S
N521 C526 1.318 . S
C522 N521 1.328 . S
C522 C523 1.457 . S
C522 H527 0.929 . S
C523 C522 1.457 . S
C523 C524 1.291 . S
C523 H536 0.931 . S
C524 C523 1.291 . S
C524 C525 1.373 . S
C524 H537 0.929 . S
C525 C524 1.373 . S
C525 C526 1.396 . S
C525 C532 1.403 . S
C526 C516 1.476 . S
C526 N521 1.318 . S
C526 C525 1.396 . S
H527 C522 0.929 . S
O528 Mn504 2.385 . S
O528 C506 1.234 . S
O529 Mn504 2.209 . S
O529 Mn505 2.215 . S
O529 C506 1.283 . S
O530 Mn504 2.094 . S
O530 C508 1.240 . S
O531 Mn505 2.117 . S
O531 C508 1.264 . S
C532 C525 1.403 . S
C532 C533 1.399 . S
C532 H538 0.929 . S
C533 C513 1.449 . S
C533 C532 1.399 . S
C533 H539 0.930 . S
H534 C514 0.931 . S
H535 C515 0.930 . S
H536 C523 0.931 . S
H537 C524 0.929 . S
H538 C532 0.929 . S
H539 C533 0.930 . S
Mn540 O545 2.095 . S
Mn540 O555 2.162 . S
Mn540 O556 2.297 . S
Mn540 O564 2.385 . S
Mn540 O565 2.209 . S
Mn540 O566 2.094 . S
Mn541 O546 2.121 . S
Mn541 N548 2.257 . S
Mn541 N557 2.282 . S
Mn541 O565 2.215 . S
Mn541 O567 2.117 . S
C542 O564 1.234 . S
C542 O565 1.283 . S
C543 O555 1.281 . S
C543 O556 1.236 . S
C544 O566 1.240 . S
C544 O567 1.264 . S
O545 Mn540 2.095 . S
O545 C554 1.250 . S
O546 Mn541 2.121 . S
O546 C554 1.258 . S
C547 N548 1.326 . S
C547 C551 1.460 . S
C547 H553 0.929 . S
N548 Mn541 2.257 . S
N548 C547 1.326 . S
N548 C552 1.362 . S
C549 C550 1.258 . S
C549 C552 1.431 . S
C549 C569 1.449 . S
C550 C549 1.258 . S
C550 C551 1.477 . S
C550 H570 0.931 . S
C551 C547 1.460 . S
C551 C550 1.477 . S
C551 H571 0.930 . S
C552 N548 1.362 . S
C552 C549 1.431 . S
C552 C562 1.476 . S
H553 C547 0.929 . S
C554 O545 1.250 . S
C554 O546 1.258 . S
O555 Mn540 2.162 . S
O555 C543 1.281 . S
O556 Mn540 2.297 . S
O556 C543 1.236 . S
N557 Mn541 2.282 . S
N557 C558 1.328 . S
N557 C562 1.318 . S
C558 N557 1.328 . S
C558 C559 1.457 . S
C558 H563 0.929 . S
C559 C558 1.457 . S
C559 C560 1.291 . S
C559 H572 0.931 . S
C560 C559 1.291 . S
C560 C561 1.373 . S
C560 H573 0.929 . S
C561 C560 1.373 . S
C561 C562 1.396 . S
C561 C568 1.403 . S
C562 C552 1.476 . S
C562 N557 1.318 . S
C562 C561 1.396 . S
H563 C558 0.929 . S
O564 Mn540 2.385 . S
O564 C542 1.234 . S
O565 Mn540 2.209 . S
O565 Mn541 2.215 . S
O565 C542 1.283 . S
O566 Mn540 2.094 . S
O566 C544 1.240 . S
O567 Mn541 2.117 . S
O567 C544 1.264 . S
C568 C561 1.403 . S
C568 C569 1.399 . S
C568 H574 0.929 . S
C569 C549 1.449 . S
C569 C568 1.399 . S
C569 H575 0.930 . S
H570 C550 0.931 . S
H571 C551 0.930 . S
H572 C559 0.931 . S
H573 C560 0.929 . S
H574 C568 0.929 . S
H575 C569 0.930 . S
C576 C577 1.391 . S
C576 C578 1.394 . S
C576 H592 0.931 . S
C577 C576 1.391 . S
C577 C581 1.376 . S
C578 C576 1.394 . S
C578 C579 1.369 . S
C578 C582 1.531 . S
C579 C578 1.369 . S
C579 C580 1.410 . S
C579 C587 1.503 . S
C580 C579 1.410 . S
C580 C581 1.392 . S
C580 C583 1.511 . S
C581 C577 1.376 . S
C581 C580 1.392 . S
C581 H593 0.929 . S
C582 C578 1.531 . S
C582 H594 0.960 . S
C582 H595 0.962 . S
C582 H596 0.960 . S
C583 C580 1.511 . S
C583 H597 0.961 . S
C583 H598 0.961 . S
C583 H599 0.961 . S
C584 C585 1.370 . S
C584 C586 1.363 . S
C584 H600 0.931 . S
C585 C584 1.370 . S
C585 C589 1.408 . S
C586 C584 1.363 . S
C586 C587 1.370 . S
C586 C590 1.524 . S
C587 C579 1.503 . S
C587 C586 1.370 . S
C587 C588 1.403 . S
C588 C587 1.403 . S
C588 C589 1.404 . S
C588 C591 1.539 . S
C589 C585 1.408 . S
C589 C588 1.404 . S
C589 H601 0.930 . S
C590 C586 1.524 . S
C590 H602 0.956 . S
C590 H603 0.961 . S
C590 H604 0.961 . S
C591 C588 1.539 . S
C591 H605 0.958 . S
C591 H606 0.961 . S
C591 H607 0.960 . S
H592 C576 0.931 . S
H593 C581 0.929 . S
H594 C582 0.960 . S
H595 C582 0.962 . S
H596 C582 0.960 . S
H597 C583 0.961 . S
H598 C583 0.961 . S
H599 C583 0.961 . S
H600 C584 0.931 . S
H601 C589 0.930 . S
H602 C590 0.956 . S
H603 C590 0.961 . S
H604 C590 0.961 . S
H605 C591 0.958 . S
H606 C591 0.961 . S
H607 C591 0.960 . S
C608 C609 1.391 . S
C608 C610 1.394 . S
C608 H624 0.931 . S
C609 C608 1.391 . S
C609 C613 1.376 . S
C610 C608 1.394 . S
C610 C611 1.369 . S
C610 C614 1.531 . S
C611 C610 1.369 . S
C611 C612 1.410 . S
C611 C619 1.503 . S
C612 C611 1.410 . S
C612 C613 1.392 . S
C612 C615 1.511 . S
C613 C609 1.376 . S
C613 C612 1.392 . S
C613 H625 0.929 . S
C614 C610 1.531 . S
C614 H626 0.960 . S
C614 H627 0.962 . S
C614 H628 0.960 . S
C615 C612 1.511 . S
C615 H629 0.961 . S
C615 H630 0.961 . S
C615 H631 0.961 . S
C616 C617 1.370 . S
C616 C618 1.363 . S
C616 H632 0.931 . S
C617 C616 1.370 . S
C617 C621 1.408 . S
C618 C616 1.363 . S
C618 C619 1.370 . S
C618 C622 1.524 . S
C619 C611 1.503 . S
C619 C618 1.370 . S
C619 C620 1.403 . S
C620 C619 1.403 . S
C620 C621 1.404 . S
C620 C623 1.539 . S
C621 C617 1.408 . S
C621 C620 1.404 . S
C621 H633 0.930 . S
C622 C618 1.524 . S
C622 H634 0.956 . S
C622 H635 0.961 . S
C622 H636 0.961 . S
C623 C620 1.539 . S
C623 H637 0.958 . S
C623 H638 0.961 . S
C623 H639 0.960 . S
H624 C608 0.931 . S
H625 C613 0.929 . S
H626 C614 0.960 . S
H627 C614 0.962 . S
H628 C614 0.960 . S
H629 C615 0.961 . S
H630 C615 0.961 . S
H631 C615 0.961 . S
H632 C616 0.931 . S
H633 C621 0.930 . S
H634 C622 0.956 . S
H635 C622 0.961 . S
H636 C622 0.961 . S
H637 C623 0.958 . S
H638 C623 0.961 . S
H639 C623 0.960 . S
C640 C641 1.391 . S
C640 C642 1.394 . S
C640 H656 0.931 . S
C641 C640 1.391 . S
C641 C645 1.376 . S
C642 C640 1.394 . S
C642 C643 1.369 . S
C642 C646 1.531 . S
C643 C642 1.369 . S
C643 C644 1.410 . S
C643 C651 1.503 . S
C644 C643 1.410 . S
C644 C645 1.392 . S
C644 C647 1.511 . S
C645 C641 1.376 . S
C645 C644 1.392 . S
C645 H657 0.929 . S
C646 C642 1.531 . S
C646 H658 0.960 . S
C646 H659 0.962 . S
C646 H660 0.960 . S
C647 C644 1.511 . S
C647 H661 0.961 . S
C647 H662 0.961 . S
C647 H663 0.961 . S
C648 C649 1.370 . S
C648 C650 1.363 . S
C648 H664 0.931 . S
C649 C648 1.370 . S
C649 C653 1.408 . S
C650 C648 1.363 . S
C650 C651 1.370 . S
C650 C654 1.524 . S
C651 C643 1.503 . S
C651 C650 1.370 . S
C651 C652 1.403 . S
C652 C651 1.403 . S
C652 C653 1.404 . S
C652 C655 1.539 . S
C653 C649 1.408 . S
C653 C652 1.404 . S
C653 H665 0.930 . S
C654 C650 1.524 . S
C654 H666 0.956 . S
C654 H667 0.961 . S
C654 H668 0.961 . S
C655 C652 1.539 . S
C655 H669 0.958 . S
C655 H670 0.961 . S
C655 H671 0.960 . S
H656 C640 0.931 . S
H657 C645 0.929 . S
H658 C646 0.960 . S
H659 C646 0.962 . S
H660 C646 0.960 . S
H661 C647 0.961 . S
H662 C647 0.961 . S
H663 C647 0.961 . S
H664 C648 0.931 . S
H665 C653 0.930 . S
H666 C654 0.956 . S
H667 C654 0.961 . S
H668 C654 0.961 . S
H669 C655 0.958 . S
H670 C655 0.961 . S
H671 C655 0.960 . S
C672 C673 1.391 . S
C672 C674 1.394 . S
C672 H688 0.931 . S
C673 C672 1.391 . S
C673 C677 1.376 . S
C674 C672 1.394 . S
C674 C675 1.369 . S
C674 C678 1.531 . S
C675 C674 1.369 . S
C675 C676 1.410 . S
C675 C683 1.503 . S
C676 C675 1.410 . S
C676 C677 1.392 . S
C676 C679 1.511 . S
C677 C673 1.376 . S
C677 C676 1.392 . S
C677 H689 0.929 . S
C678 C674 1.531 . S
C678 H690 0.960 . S
C678 H691 0.962 . S
C678 H692 0.960 . S
C679 C676 1.511 . S
C679 H693 0.961 . S
C679 H694 0.961 . S
C679 H695 0.961 . S
C680 C681 1.370 . S
C680 C682 1.363 . S
C680 H696 0.931 . S
C681 C680 1.370 . S
C681 C685 1.408 . S
C682 C680 1.363 . S
C682 C683 1.370 . S
C682 C686 1.524 . S
C683 C675 1.503 . S
C683 C682 1.370 . S
C683 C684 1.403 . S
C684 C683 1.403 . S
C684 C685 1.404 . S
C684 C687 1.539 . S
C685 C681 1.408 . S
C685 C684 1.404 . S
C685 H697 0.930 . S
C686 C682 1.524 . S
C686 H698 0.956 . S
C686 H699 0.961 . S
C686 H700 0.961 . S
C687 C684 1.539 . S
C687 H701 0.958 . S
C687 H702 0.961 . S
C687 H703 0.960 . S
H688 C672 0.931 . S
H689 C677 0.929 . S
H690 C678 0.960 . S
H691 C678 0.962 . S
H692 C678 0.960 . S
H693 C679 0.961 . S
H694 C679 0.961 . S
H695 C679 0.961 . S
H696 C680 0.931 . S
H697 C685 0.930 . S
H698 C686 0.956 . S
H699 C686 0.961 . S
H700 C686 0.961 . S
H701 C687 0.958 . S
H702 C687 0.961 . S
H703 C687 0.960 . S
C704 C705 1.391 . S
C704 C706 1.394 . S
C704 H720 0.931 . S
C705 C704 1.391 . S
C705 C709 1.376 . S
C706 C704 1.394 . S
C706 C707 1.369 . S
C706 C710 1.531 . S
C707 C706 1.369 . S
C707 C708 1.410 . S
C707 C715 1.503 . S
C708 C707 1.410 . S
C708 C709 1.392 . S
C708 C711 1.511 . S
C709 C705 1.376 . S
C709 C708 1.392 . S
C709 H721 0.929 . S
C710 C706 1.531 . S
C710 H722 0.960 . S
C710 H723 0.962 . S
C710 H724 0.960 . S
C711 C708 1.511 . S
C711 H725 0.961 . S
C711 H726 0.961 . S
C711 H727 0.961 . S
C712 C713 1.370 . S
C712 C714 1.363 . S
C712 H728 0.931 . S
C713 C712 1.370 . S
C713 C717 1.408 . S
C714 C712 1.363 . S
C714 C715 1.370 . S
C714 C718 1.524 . S
C715 C707 1.503 . S
C715 C714 1.370 . S
C715 C716 1.403 . S
C716 C715 1.403 . S
C716 C717 1.404 . S
C716 C719 1.539 . S
C717 C713 1.408 . S
C717 C716 1.404 . S
C717 H729 0.930 . S
C718 C714 1.524 . S
C718 H730 0.956 . S
C718 H731 0.961 . S
C718 H732 0.961 . S
C719 C716 1.539 . S
C719 H733 0.958 . S
C719 H734 0.961 . S
C719 H735 0.960 . S
H720 C704 0.931 . S
H721 C709 0.929 . S
H722 C710 0.960 . S
H723 C710 0.962 . S
H724 C710 0.960 . S
H725 C711 0.961 . S
H726 C711 0.961 . S
H727 C711 0.961 . S
H728 C712 0.931 . S
H729 C717 0.930 . S
H730 C718 0.956 . S
H731 C718 0.961 . S
H732 C718 0.961 . S
H733 C719 0.958 . S
H734 C719 0.961 . S
H735 C719 0.960 . S
C736 C737 1.391 . S
C736 C738 1.394 . S
C736 H752 0.931 . S
C737 C736 1.391 . S
C737 C741 1.376 . S
C738 C736 1.394 . S
C738 C739 1.369 . S
C738 C742 1.531 . S
C739 C738 1.369 . S
C739 C740 1.410 . S
C739 C747 1.503 . S
C740 C739 1.410 . S
C740 C741 1.392 . S
C740 C743 1.511 . S
C741 C737 1.376 . S
C741 C740 1.392 . S
C741 H753 0.929 . S
C742 C738 1.531 . S
C742 H754 0.960 . S
C742 H755 0.962 . S
C742 H756 0.960 . S
C743 C740 1.511 . S
C743 H757 0.961 . S
C743 H758 0.961 . S
C743 H759 0.961 . S
C744 C745 1.370 . S
C744 C746 1.363 . S
C744 H760 0.931 . S
C745 C744 1.370 . S
C745 C749 1.408 . S
C746 C744 1.363 . S
C746 C747 1.370 . S
C746 C750 1.524 . S
C747 C739 1.503 . S
C747 C746 1.370 . S
C747 C748 1.403 . S
C748 C747 1.403 . S
C748 C749 1.404 . S
C748 C751 1.539 . S
C749 C745 1.408 . S
C749 C748 1.404 . S
C749 H761 0.930 . S
C750 C746 1.524 . S
C750 H762 0.956 . S
C750 H763 0.961 . S
C750 H764 0.961 . S
C751 C748 1.539 . S
C751 H765 0.958 . S
C751 H766 0.961 . S
C751 H767 0.960 . S
H752 C736 0.931 . S
H753 C741 0.929 . S
H754 C742 0.960 . S
H755 C742 0.962 . S
H756 C742 0.960 . S
H757 C743 0.961 . S
H758 C743 0.961 . S
H759 C743 0.961 . S
H760 C744 0.931 . S
H761 C749 0.930 . S
H762 C750 0.956 . S
H763 C750 0.961 . S
H764 C750 0.961 . S
H765 C751 0.958 . S
H766 C751 0.961 . S
H767 C751 0.960 . S
C768 C769 1.391 . S
C768 C770 1.394 . S
C768 H784 0.931 . S
C769 C768 1.391 . S
C769 C773 1.376 . S
C770 C768 1.394 . S
C770 C771 1.369 . S
C770 C774 1.531 . S
C771 C770 1.369 . S
C771 C772 1.410 . S
C771 C779 1.503 . S
C772 C771 1.410 . S
C772 C773 1.392 . S
C772 C775 1.511 . S
C773 C769 1.376 . S
C773 C772 1.392 . S
C773 H785 0.929 . S
C774 C770 1.531 . S
C774 H786 0.960 . S
C774 H787 0.962 . S
C774 H788 0.960 . S
C775 C772 1.511 . S
C775 H789 0.961 . S
C775 H790 0.961 . S
C775 H791 0.961 . S
C776 C777 1.370 . S
C776 C778 1.363 . S
C776 H792 0.931 . S
C777 C776 1.370 . S
C777 C781 1.408 . S
C778 C776 1.363 . S
C778 C779 1.370 . S
C778 C782 1.524 . S
C779 C771 1.503 . S
C779 C778 1.370 . S
C779 C780 1.403 . S
C780 C779 1.403 . S
C780 C781 1.404 . S
C780 C783 1.539 . S
C781 C777 1.408 . S
C781 C780 1.404 . S
C781 H793 0.930 . S
C782 C778 1.524 . S
C782 H794 0.956 . S
C782 H795 0.961 . S
C782 H796 0.961 . S
C783 C780 1.539 . S
C783 H797 0.958 . S
C783 H798 0.961 . S
C783 H799 0.960 . S
H784 C768 0.931 . S
H785 C773 0.929 . S
H786 C774 0.960 . S
H787 C774 0.962 . S
H788 C774 0.960 . S
H789 C775 0.961 . S
H790 C775 0.961 . S
H791 C775 0.961 . S
H792 C776 0.931 . S
H793 C781 0.930 . S
H794 C782 0.956 . S
H795 C782 0.961 . S
H796 C782 0.961 . S
H797 C783 0.958 . S
H798 C783 0.961 . S
H799 C783 0.960 . S
C800 C801 1.391 . S
C800 C802 1.394 . S
C800 H816 0.931 . S
C801 C800 1.391 . S
C801 C805 1.376 . S
C802 C800 1.394 . S
C802 C803 1.369 . S
C802 C806 1.531 . S
C803 C802 1.369 . S
C803 C804 1.410 . S
C803 C811 1.503 . S
C804 C803 1.410 . S
C804 C805 1.392 . S
C804 C807 1.511 . S
C805 C801 1.376 . S
C805 C804 1.392 . S
C805 H817 0.929 . S
C806 C802 1.531 . S
C806 H818 0.960 . S
C806 H819 0.962 . S
C806 H820 0.960 . S
C807 C804 1.511 . S
C807 H821 0.961 . S
C807 H822 0.961 . S
C807 H823 0.961 . S
C808 C809 1.370 . S
C808 C810 1.363 . S
C808 H824 0.931 . S
C809 C808 1.370 . S
C809 C813 1.408 . S
C810 C808 1.363 . S
C810 C811 1.370 . S
C810 C814 1.524 . S
C811 C803 1.503 . S
C811 C810 1.370 . S
C811 C812 1.403 . S
C812 C811 1.403 . S
C812 C813 1.404 . S
C812 C815 1.539 . S
C813 C809 1.408 . S
C813 C812 1.404 . S
C813 H825 0.930 . S
C814 C810 1.524 . S
C814 H826 0.956 . S
C814 H827 0.961 . S
C814 H828 0.961 . S
C815 C812 1.539 . S
C815 H829 0.958 . S
C815 H830 0.961 . S
C815 H831 0.960 . S
H816 C800 0.931 . S
H817 C805 0.929 . S
H818 C806 0.960 . S
H819 C806 0.962 . S
H820 C806 0.960 . S
H821 C807 0.961 . S
H822 C807 0.961 . S
H823 C807 0.961 . S
H824 C808 0.931 . S
H825 C813 0.930 . S
H826 C814 0.956 . S
H827 C814 0.961 . S
H828 C814 0.961 . S
H829 C815 0.958 . S
H830 C815 0.961 . S
H831 C815 0.960 . S
C832 C833 1.391 . S
C832 C834 1.394 . S
C832 H848 0.931 . S
C833 C832 1.391 . S
C833 C837 1.376 . S
C834 C832 1.394 . S
C834 C835 1.369 . S
C834 C838 1.531 . S
C835 C834 1.369 . S
C835 C836 1.410 . S
C835 C843 1.503 1_556 S
C836 C835 1.410 . S
C836 C837 1.392 . S
C836 C839 1.511 . S
C837 C833 1.376 . S
C837 C836 1.392 . S
C837 H849 0.929 . S
C838 C834 1.531 . S
C838 H850 0.978 . S
C838 H851 0.962 . S
C838 H852 0.960 . S
C839 C836 1.511 . S
C839 H853 0.961 . S
C839 H854 0.961 1_556 S
C839 H855 0.961 . S
C840 C841 1.370 . S
C840 C842 1.363 . S
C840 H856 0.931 . S
C841 C840 1.370 . S
C841 C845 1.408 . S
C842 C840 1.363 . S
C842 C843 1.370 . S
C842 C846 1.524 . S
C843 C835 1.503 1_554 S
C843 C842 1.370 . S
C843 C844 1.403 . S
C844 C843 1.403 . S
C844 C845 1.404 . S
C844 C847 1.539 . S
C845 C841 1.408 . S
C845 C844 1.404 . S
C845 H857 0.930 . S
C846 C842 1.524 . S
C846 H858 0.956 . S
C846 H859 0.961 . S
C846 H860 0.961 . S
C847 C844 1.539 . S
C847 H861 0.958 . S
C847 H862 0.961 . S
C847 H863 0.960 . S
H848 C832 0.931 . S
H849 C837 0.929 . S
H850 C838 0.978 . S
H851 C838 0.962 . S
H852 C838 0.960 . S
H853 C839 0.961 . S
H854 C839 0.961 1_554 S
H855 C839 0.961 . S
H856 C840 0.931 . S
H857 C845 0.930 . S
H858 C846 0.956 . S
H859 C846 0.961 . S
H860 C846 0.961 . S
H861 C847 0.958 . S
H862 C847 0.961 . S
H863 C847 0.960 . S
C864 C865 1.391 . S
C864 C866 1.394 . S
C864 H880 0.931 . S
C865 C864 1.391 . S
C865 C869 1.376 . S
C866 C864 1.394 . S
C866 C867 1.369 . S
C866 C870 1.531 . S
C867 C866 1.369 . S
C867 C868 1.410 . S
C867 C875 1.503 1_556 S
C868 C867 1.410 . S
C868 C869 1.392 . S
C868 C871 1.511 . S
C869 C865 1.376 . S
C869 C868 1.392 . S
C869 H881 0.929 . S
C870 C866 1.531 . S
C870 H882 0.960 1_556 S
C870 H883 0.962 . S
C870 H884 0.960 . S
C871 C868 1.511 . S
C871 H885 0.961 . S
C871 H886 0.961 . S
C871 H887 0.961 . S
C872 C873 1.370 . S
C872 C874 1.363 . S
C872 H888 0.931 . S
C873 C872 1.370 . S
C873 C877 1.408 . S
C874 C872 1.363 . S
C874 C875 1.370 . S
C874 C878 1.524 . S
C875 C867 1.503 1_554 S
C875 C874 1.370 . S
C875 C876 1.403 . S
C876 C875 1.403 . S
C876 C877 1.404 . S
C876 C879 1.539 . S
C877 C873 1.408 . S
C877 C876 1.404 . S
C877 H889 0.930 . S
C878 C874 1.524 . S
C878 H890 0.956 . S
C878 H891 0.961 1_554 S
C878 H892 0.961 . S
C879 C876 1.539 . S
C879 H893 0.958 . S
C879 H894 0.961 . S
C879 H895 0.960 1_554 S
H880 C864 0.931 . S
H881 C869 0.929 . S
H882 C870 0.960 1_554 S
H883 C870 0.962 . S
H884 C870 0.960 . S
H885 C871 0.961 . S
H886 C871 0.961 . S
H887 C871 0.961 . S
H888 C872 0.931 . S
H889 C877 0.930 . S
H890 C878 0.956 . S
H891 C878 0.961 1_556 S
H892 C878 0.961 . S
H893 C879 0.958 . S
H894 C879 0.961 . S
H895 C879 0.960 1_556 S
C896 C897 1.391 . S
C896 C898 1.394 . S
C896 H912 0.931 . S
C897 C896 1.391 . S
C897 C901 1.376 . S
C898 C896 1.394 . S
C898 C899 1.369 . S
C898 C902 1.531 . S
C899 C898 1.369 . S
C899 C900 1.410 . S
C899 C907 1.503 1_556 S
C900 C899 1.410 . S
C900 C901 1.392 . S
C900 C903 1.511 . S
C901 C897 1.376 . S
C901 C900 1.392 . S
C901 H913 0.929 . S
C902 C898 1.531 . S
C902 H914 0.960 1_556 S
C902 H915 0.962 . S
C902 H916 0.960 . S
C903 C900 1.511 . S
C903 H917 0.961 . S
C903 H918 0.961 1_556 S
C903 H919 0.961 . S
C904 C905 1.370 . S
C904 C906 1.363 . S
C904 H920 0.931 . S
C905 C904 1.370 . S
C905 C909 1.408 . S
C906 C904 1.363 . S
C906 C907 1.370 . S
C906 C910 1.524 . S
C907 C899 1.503 1_554 S
C907 C906 1.370 . S
C907 C908 1.403 . S
C908 C907 1.403 . S
C908 C909 1.404 . S
C908 C911 1.539 . S
C909 C905 1.408 . S
C909 C908 1.404 . S
C909 H921 0.930 . S
C910 C906 1.524 . S
C910 H922 0.956 1_554 S
C910 H923 0.961 1_554 S
C910 H924 0.961 . S
C911 C908 1.539 . S
C911 H925 0.958 . S
C911 H926 0.961 . S
C911 H927 0.960 . S
H912 C896 0.931 . S
H913 C901 0.929 . S
H914 C902 0.960 1_554 S
H915 C902 0.962 . S
H916 C902 0.960 . S
H917 C903 0.961 . S
H918 C903 0.961 1_554 S
H919 C903 0.961 . S
H920 C904 0.931 . S
H921 C909 0.930 . S
H922 C910 0.956 1_556 S
H923 C910 0.961 1_556 S
H924 C910 0.961 . S
H925 C911 0.958 . S
H926 C911 0.961 . S
H927 C911 0.960 . S
C928 C929 1.391 . S
C928 C930 1.394 . S
C928 H944 0.931 . S
C929 C928 1.391 . S
C929 C933 1.376 . S
C930 C928 1.394 . S
C930 C931 1.369 . S
C930 C934 1.531 . S
C931 C930 1.369 . S
C931 C932 1.410 . S
C931 C939 1.503 1_554 S
C932 C931 1.410 . S
C932 C933 1.392 . S
C932 C935 1.511 . S
C933 C929 1.376 . S
C933 C932 1.392 . S
C933 H945 0.929 . S
C934 C930 1.531 . S
C934 H946 0.960 1_554 S
C934 H947 0.972 . S
C934 H948 0.960 . S
C935 C932 1.511 . S
C935 H949 0.961 . S
C935 H950 0.964 1_554 S
C935 H951 0.961 . S
C936 C937 1.370 . S
C936 C938 1.363 . S
C936 H952 0.931 . S
C937 C936 1.370 . S
C937 C941 1.408 . S
C938 C936 1.363 . S
C938 C939 1.370 . S
C938 C942 1.524 . S
C939 C931 1.503 1_556 S
C939 C938 1.370 . S
C939 C940 1.403 . S
C940 C939 1.403 . S
C940 C941 1.404 . S
C940 C943 1.539 . S
C941 C937 1.408 . S
C941 C940 1.404 . S
C941 H953 0.930 . S
C942 C938 1.524 . S
C942 H954 0.956 . S
C942 H955 0.967 . S
C942 H956 0.961 . S
C943 C940 1.539 . S
C943 H957 0.958 . S
C943 H958 0.961 . S
C943 H959 0.985 . S
H944 C928 0.931 . S
H945 C933 0.929 . S
H946 C934 0.960 1_556 S
H947 C934 0.972 . S
H948 C934 0.960 . S
H949 C935 0.961 . S
H950 C935 0.964 1_556 S
H951 C935 0.961 . S
H952 C936 0.931 . S
H953 C941 0.930 . S
H954 C942 0.956 . S
H955 C942 0.967 . S
H956 C942 0.961 . S
H957 C943 0.958 . S
H958 C943 0.961 . S
H959 C943 0.985 . S
C960 C961 1.391 . S
C960 C962 1.394 . S
C960 H976 0.931 . S
C961 C960 1.391 . S
C961 C965 1.376 . S
C962 C960 1.394 . S
C962 C963 1.369 . S
C962 C966 1.531 . S
C963 C962 1.369 . S
C963 C964 1.410 . S
C963 C971 1.503 1_455 S
C964 C963 1.410 . S
C964 C965 1.392 . S
C964 C967 1.511 . S
C965 C961 1.376 . S
C965 C964 1.392 . S
C965 H977 0.929 . S
C966 C962 1.531 . S
C966 H978 0.960 1_455 S
C966 H979 0.962 . S
C966 H980 0.960 . S
C967 C964 1.511 . S
C967 H981 0.961 . S
C967 H982 0.961 1_455 S
C967 H983 0.961 . S
C968 C969 1.370 . S
C968 C970 1.363 . S
C968 H984 0.931 . S
C969 C968 1.370 . S
C969 C973 1.408 . S
C970 C968 1.363 . S
C970 C971 1.370 . S
C970 C974 1.524 . S
C971 C963 1.503 1_655 S
C971 C970 1.370 . S
C971 C972 1.403 . S
C972 C971 1.403 . S
C972 C973 1.404 . S
C972 C975 1.539 . S
C973 C969 1.408 . S
C973 C972 1.404 . S
C973 H985 0.930 . S
C974 C970 1.524 . S
C974 H986 0.956 . S
C974 H987 0.962 . S
C974 H988 0.961 . S
C975 C972 1.539 . S
C975 H989 0.958 . S
C975 H990 0.961 . S
C975 H991 0.960 1_655 S
H976 C960 0.931 . S
H977 C965 0.929 . S
H978 C966 0.960 1_655 S
H979 C966 0.962 . S
H980 C966 0.960 . S
H981 C967 0.961 . S
H982 C967 0.961 1_655 S
H983 C967 0.961 . S
H984 C968 0.931 . S
H985 C973 0.930 . S
H986 C974 0.956 . S
H987 C974 0.962 . S
H988 C974 0.961 . S
H989 C975 0.958 . S
H990 C975 0.961 . S
H991 C975 0.960 1_455 S
C992 C993 1.391 . S
C992 C994 1.394 . S
C992 H1008 0.931 . S
C993 C992 1.391 . S
C993 C997 1.376 . S
C994 C992 1.394 . S
C994 C995 1.369 . S
C994 C998 1.531 . S
C995 C994 1.369 . S
C995 C996 1.410 . S
C995 C1003 1.503 1_565 S
C996 C995 1.410 . S
C996 C997 1.392 . S
C996 C999 1.511 . S
C997 C993 1.376 . S
C997 C996 1.392 . S
C997 H1009 0.929 . S
C998 C994 1.531 . S
C998 H1010 0.960 1_565 S
C998 H1011 0.962 . S
C998 H1012 0.960 . S
C999 C996 1.511 . S
C999 H1013 0.961 . S
C999 H1014 0.955 1_565 S
C999 H1015 0.961 . S
C1000 C1001 1.370 . S
C1000 C1002 1.363 . S
C1000 H1016 0.931 . S
C1001 C1000 1.370 . S
C1001 C1005 1.408 . S
C1002 C1000 1.363 . S
C1002 C1003 1.370 . S
C1002 C1006 1.524 . S
C1003 C995 1.503 1_545 S
C1003 C1002 1.370 . S
C1003 C1004 1.403 . S
C1004 C1003 1.403 . S
C1004 C1005 1.404 . S
C1004 C1007 1.539 . S
C1005 C1001 1.408 . S
C1005 C1004 1.404 . S
C1005 H1017 0.930 . S
C1006 C1002 1.524 . S
C1006 H1018 0.956 . S
C1006 H1019 0.961 1_545 S
C1006 H1020 0.961 . S
C1007 C1004 1.539 . S
C1007 H1021 0.958 . S
C1007 H1022 0.961 . S
C1007 H1023 0.960 . S
H1008 C992 0.931 . S
H1009 C997 0.929 . S
H1010 C998 0.960 1_545 S
H1011 C998 0.962 . S
H1012 C998 0.960 . S
H1013 C999 0.961 . S
H1014 C999 0.955 1_545 S
H1015 C999 0.961 . S
H1016 C1000 0.931 . S
H1017 C1005 0.930 . S
H1018 C1006 0.956 . S
H1019 C1006 0.961 1_565 S
H1020 C1006 0.961 . S
H1021 C1007 0.958 . S
H1022 C1007 0.961 . S
H1023 C1007 0.960 . S
C1024 C1025 1.391 . S
C1024 C1026 1.394 . S
C1024 H1040 0.931 . S
C1025 C1024 1.391 . S
C1025 C1029 1.376 . S
C1026 C1024 1.394 . S
C1026 C1027 1.369 . S
C1026 C1030 1.531 . S
C1027 C1026 1.369 . S
C1027 C1028 1.410 . S
C1027 C1035 1.503 1_655 S
C1028 C1027 1.410 . S
C1028 C1029 1.392 . S
C1028 C1031 1.511 . S
C1029 C1025 1.376 . S
C1029 C1028 1.392 . S
C1029 H1041 0.929 . S
C1030 C1026 1.531 . S
C1030 H1042 0.960 1_655 S
C1030 H1043 0.962 . S
C1030 H1044 0.960 . S
C1031 C1028 1.511 . S
C1031 H1045 0.961 . S
C1031 H1046 0.931 1_655 S
C1031 H1047 0.961 . S
C1032 C1033 1.370 . S
C1032 C1034 1.363 . S
C1032 H1048 0.931 . S
C1033 C1032 1.370 . S
C1033 C1037 1.408 . S
C1034 C1032 1.363 . S
C1034 C1035 1.370 . S
C1034 C1038 1.524 . S
C1035 C1027 1.503 1_455 S
C1035 C1034 1.370 . S
C1035 C1036 1.403 . S
C1036 C1035 1.403 . S
C1036 C1037 1.404 . S
C1036 C1039 1.539 . S
C1037 C1033 1.408 . S
C1037 C1036 1.404 . S
C1037 H1049 0.930 . S
C1038 C1034 1.524 . S
C1038 H1050 0.956 . S
C1038 H1051 0.961 1_455 S
C1038 H1052 0.961 . S
C1039 C1036 1.539 . S
C1039 H1053 0.958 . S
C1039 H1054 0.961 . S
C1039 H1055 0.957 . S
H1040 C1024 0.931 . S
H1041 C1029 0.929 . S
H1042 C1030 0.960 1_455 S
H1043 C1030 0.962 . S
H1044 C1030 0.960 . S
H1045 C1031 0.961 . S
H1046 C1031 0.931 1_455 S
H1047 C1031 0.961 . S
H1048 C1032 0.931 . S
H1049 C1037 0.930 . S
H1050 C1038 0.956 . S
H1051 C1038 0.961 1_655 S
H1052 C1038 0.961 . S
H1053 C1039 0.958 . S
H1054 C1039 0.961 . S
H1055 C1039 0.957 . S
C1056 C1057 1.391 . S
C1056 C1058 1.394 . S
C1056 H1072 0.931 . S
C1057 C1056 1.391 . S
C1057 C1061 1.376 . S
C1058 C1056 1.394 . S
C1058 C1059 1.369 . S
C1058 C1062 1.531 . S
C1059 C1058 1.369 . S
C1059 C1060 1.410 . S
C1059 C1067 1.503 1_545 S
C1060 C1059 1.410 . S
C1060 C1061 1.392 . S
C1060 C1063 1.511 . S
C1061 C1057 1.376 . S
C1061 C1060 1.392 . S
C1061 H1073 0.929 . S
C1062 C1058 1.531 . S
C1062 H1074 0.960 1_545 S
C1062 H1075 0.962 . S
C1062 H1076 0.960 . S
C1063 C1060 1.511 . S
C1063 H1077 0.961 . S
C1063 H1078 0.965 1_545 S
C1063 H1079 0.961 . S
C1064 C1065 1.370 . S
C1064 C1066 1.363 . S
C1064 H1080 0.931 . S
C1065 C1064 1.370 . S
C1065 C1069 1.408 . S
C1066 C1064 1.363 . S
C1066 C1067 1.370 . S
C1066 C1070 1.524 . S
C1067 C1059 1.503 1_565 S
C1067 C1066 1.370 . S
C1067 C1068 1.403 . S
C1068 C1067 1.403 . S
C1068 C1069 1.404 . S
C1068 C1071 1.539 . S
C1069 C1065 1.408 . S
C1069 C1068 1.404 . S
C1069 H1081 0.930 . S
C1070 C1066 1.524 . S
C1070 H1082 0.956 . S
C1070 H1083 0.961 1_565 S
C1070 H1084 0.961 . S
C1071 C1068 1.539 . S
C1071 H1085 0.958 . S
C1071 H1086 0.961 . S
C1071 H1087 0.960 . S
H1072 C1056 0.931 . S
H1073 C1061 0.929 . S
H1074 C1062 0.960 1_565 S
H1075 C1062 0.962 . S
H1076 C1062 0.960 . S
H1077 C1063 0.961 . S
H1078 C1063 0.965 1_565 S
H1079 C1063 0.961 . S
H1080 C1064 0.931 . S
H1081 C1069 0.930 . S
H1082 C1070 0.956 . S
H1083 C1070 0.961 1_545 S
H1084 C1070 0.961 . S
H1085 C1071 0.958 . S
H1086 C1071 0.961 . S
H1087 C1071 0.960 . S
C1088 C1089 1.391 . S
C1088 C1090 1.394 . S
C1088 H1104 0.931 . S
C1089 C1088 1.391 . S
C1089 C1093 1.376 . S
C1090 C1088 1.394 . S
C1090 C1091 1.369 . S
C1090 C1094 1.531 . S
C1091 C1090 1.369 . S
C1091 C1092 1.410 . S
C1091 C1099 1.503 1_655 S
C1092 C1091 1.410 . S
C1092 C1093 1.392 . S
C1092 C1095 1.511 . S
C1093 C1089 1.376 . S
C1093 C1092 1.392 . S
C1093 H1105 0.929 . S
C1094 C1090 1.531 . S
C1094 H1106 0.955 1_655 S
C1094 H1107 0.962 . S
C1094 H1108 0.960 . S
C1095 C1092 1.511 . S
C1095 H1109 0.961 . S
C1095 H1110 0.961 1_655 S
C1095 H1111 0.961 . S
C1096 C1097 1.370 . S
C1096 C1098 1.363 . S
C1096 H1112 0.931 . S
C1097 C1096 1.370 . S
C1097 C1101 1.408 . S
C1098 C1096 1.363 . S
C1098 C1099 1.370 . S
C1098 C1102 1.524 . S
C1099 C1091 1.503 1_455 S
C1099 C1098 1.370 . S
C1099 C1100 1.403 . S
C1100 C1099 1.403 . S
C1100 C1101 1.404 . S
C1100 C1103 1.539 . S
C1101 C1097 1.408 . S
C1101 C1100 1.404 . S
C1101 H1113 0.930 . S
C1102 C1098 1.524 . S
C1102 H1114 0.956 . S
C1102 H1115 0.949 1_455 S
C1102 H1116 0.961 . S
C1103 C1100 1.539 . S
C1103 H1117 0.958 . S
C1103 H1118 0.961 . S
C1103 H1119 0.965 . S
H1104 C1088 0.931 . S
H1105 C1093 0.929 . S
H1106 C1094 0.955 1_455 S
H1107 C1094 0.962 . S
H1108 C1094 0.960 . S
H1109 C1095 0.961 . S
H1110 C1095 0.961 1_455 S
H1111 C1095 0.961 . S
H1112 C1096 0.931 . S
H1113 C1101 0.930 . S
H1114 C1102 0.956 . S
H1115 C1102 0.949 1_655 S
H1116 C1102 0.961 . S
H1117 C1103 0.958 . S
H1118 C1103 0.961 . S
H1119 C1103 0.965 . S
C1120 C1121 1.391 . S
C1120 C1122 1.394 . S
C1120 H1136 0.931 . S
C1121 C1120 1.391 . S
C1121 C1125 1.376 . S
C1122 C1120 1.394 . S
C1122 C1123 1.369 . S
C1122 C1126 1.531 . S
C1123 C1122 1.369 . S
C1123 C1124 1.410 . S
C1123 C1131 1.503 1_565 S
C1124 C1123 1.410 . S
C1124 C1125 1.392 . S
C1124 C1127 1.511 . S
C1125 C1121 1.376 . S
C1125 C1124 1.392 . S
C1125 H1137 0.929 . S
C1126 C1122 1.531 . S
C1126 H1138 0.960 1_565 S
C1126 H1139 0.962 . S
C1126 H1140 0.960 . S
C1127 C1124 1.511 . S
C1127 H1141 0.961 . S
C1127 H1142 0.952 1_565 S
C1127 H1143 0.961 . S
C1128 C1129 1.370 . S
C1128 C1130 1.363 . S
C1128 H1144 0.931 . S
C1129 C1128 1.370 . S
C1129 C1133 1.408 . S
C1130 C1128 1.363 . S
C1130 C1131 1.370 . S
C1130 C1134 1.524 . S
C1131 C1123 1.503 1_545 S
C1131 C1130 1.370 . S
C1131 C1132 1.403 . S
C1132 C1131 1.403 . S
C1132 C1133 1.404 . S
C1132 C1135 1.539 . S
C1133 C1129 1.408 . S
C1133 C1132 1.404 . S
C1133 H1145 0.930 . S
C1134 C1130 1.524 . S
C1134 H1146 0.956 . S
C1134 H1147 0.961 1_545 S
C1134 H1148 0.961 . S
C1135 C1132 1.539 . S
C1135 H1149 0.958 . S
C1135 H1150 0.961 . S
C1135 H1151 0.960 . S
H1136 C1120 0.931 . S
H1137 C1125 0.929 . S
H1138 C1126 0.960 1_545 S
H1139 C1126 0.962 . S
H1140 C1126 0.960 . S
H1141 C1127 0.961 . S
H1142 C1127 0.952 1_545 S
H1143 C1127 0.961 . S
H1144 C1128 0.931 . S
H1145 C1133 0.930 . S
H1146 C1134 0.956 . S
H1147 C1134 0.961 1_565 S
H1148 C1134 0.961 . S
H1149 C1135 0.958 . S
H1150 C1135 0.961 . S
H1151 C1135 0.960 . S
C1152 C1153 1.391 . S
C1152 C1154 1.394 . S
C1152 H1168 0.931 . S
C1153 C1152 1.391 . S
C1153 C1157 1.376 . S
C1154 C1152 1.394 . S
C1154 C1155 1.369 . S
C1154 C1158 1.531 . S
C1155 C1154 1.369 . S
C1155 C1156 1.410 . S
C1155 C1163 1.503 1_455 S
C1156 C1155 1.410 . S
C1156 C1157 1.392 . S
C1156 C1159 1.511 . S
C1157 C1153 1.376 . S
C1157 C1156 1.392 . S
C1157 H1169 0.929 . S
C1158 C1154 1.531 . S
C1158 H1170 0.960 1_455 S
C1158 H1171 0.962 . S
C1158 H1172 0.960 . S
C1159 C1156 1.511 . S
C1159 H1173 0.961 . S
C1159 H1174 0.961 1_455 S
C1159 H1175 0.961 . S
C1160 C1161 1.370 . S
C1160 C1162 1.363 . S
C1160 H1176 0.931 . S
C1161 C1160 1.370 . S
C1161 C1165 1.408 . S
C1162 C1160 1.363 . S
C1162 C1163 1.370 . S
C1162 C1166 1.524 . S
C1163 C1155 1.503 1_655 S
C1163 C1162 1.370 . S
C1163 C1164 1.403 . S
C1164 C1163 1.403 . S
C1164 C1165 1.404 . S
C1164 C1167 1.539 . S
C1165 C1161 1.408 . S
C1165 C1164 1.404 . S
C1165 H1177 0.930 . S
C1166 C1162 1.524 . S
C1166 H1178 0.956 . S
C1166 H1179 0.973 . S
C1166 H1180 0.961 . S
C1167 C1164 1.539 . S
C1167 H1181 0.958 . S
C1167 H1182 0.961 . S
C1167 H1183 0.960 1_655 S
H1168 C1152 0.931 . S
H1169 C1157 0.929 . S
H1170 C1158 0.960 1_655 S
H1171 C1158 0.962 . S
H1172 C1158 0.960 . S
H1173 C1159 0.961 . S
H1174 C1159 0.961 1_655 S
H1175 C1159 0.961 . S
H1176 C1160 0.931 . S
H1177 C1165 0.930 . S
H1178 C1166 0.956 . S
H1179 C1166 0.973 . S
H1180 C1166 0.961 . S
H1181 C1167 0.958 . S
H1182 C1167 0.961 . S
H1183 C1167 0.960 1_455 S
C1184 C1185 1.391 . S
C1184 C1186 1.394 . S
C1184 H1200 0.931 . S
C1185 C1184 1.391 . S
C1185 C1189 1.376 . S
C1186 C1184 1.394 . S
C1186 C1187 1.369 . S
C1186 C1190 1.531 . S
C1187 C1186 1.369 . S
C1187 C1188 1.410 . S
C1187 C1195 1.503 1_565 S
C1188 C1187 1.410 . S
C1188 C1189 1.392 . S
C1188 C1191 1.511 . S
C1189 C1185 1.376 . S
C1189 C1188 1.392 . S
C1189 H1201 0.929 . S
C1190 C1186 1.531 . S
C1190 H1202 0.981 . S
C1190 H1203 0.962 . S
C1190 H1204 0.960 . S
C1191 C1188 1.511 . S
C1191 H1205 0.961 . S
C1191 H1206 0.961 1_565 S
C1191 H1207 0.961 . S
C1192 C1193 1.370 . S
C1192 C1194 1.363 . S
C1192 H1208 0.931 . S
C1193 C1192 1.370 . S
C1193 C1197 1.408 . S
C1194 C1192 1.363 . S
C1194 C1195 1.370 . S
C1194 C1198 1.524 . S
C1195 C1187 1.503 1_545 S
C1195 C1194 1.370 . S
C1195 C1196 1.403 . S
C1196 C1195 1.403 . S
C1196 C1197 1.404 . S
C1196 C1199 1.539 . S
C1197 C1193 1.408 . S
C1197 C1196 1.404 . S
C1197 H1209 0.930 . S
C1198 C1194 1.524 . S
C1198 H1210 0.956 1_545 S
C1198 H1211 0.961 1_545 S
C1198 H1212 0.961 . S
C1199 C1196 1.539 . S
C1199 H1213 0.958 . S
C1199 H1214 0.961 . S
C1199 H1215 0.960 . S
H1200 C1184 0.931 . S
H1201 C1189 0.929 . S
H1202 C1190 0.981 . S
H1203 C1190 0.962 . S
H1204 C1190 0.960 . S
H1205 C1191 0.961 . S
H1206 C1191 0.961 1_545 S
H1207 C1191 0.961 . S
H1208 C1192 0.931 . S
H1209 C1197 0.930 . S
H1210 C1198 0.956 1_565 S
H1211 C1198 0.961 1_565 S
H1212 C1198 0.961 . S
H1213 C1199 0.958 . S
H1214 C1199 0.961 . S
H1215 C1199 0.960 . S
C1216 C1217 1.391 . S
C1216 C1218 1.394 . S
C1216 H1232 0.931 . S
C1217 C1216 1.391 . S
C1217 C1221 1.376 . S
C1218 C1216 1.394 . S
C1218 C1219 1.369 . S
C1218 C1222 1.531 . S
C1219 C1218 1.369 . S
C1219 C1220 1.410 . S
C1219 C1227 1.503 . S
C1220 C1219 1.410 . S
C1220 C1221 1.392 . S
C1220 C1223 1.511 . S
C1221 C1217 1.376 . S
C1221 C1220 1.392 . S
C1221 H1233 0.929 . S
C1222 C1218 1.531 . S
C1222 H1234 0.960 . S
C1222 H1235 0.962 . S
C1222 H1236 0.960 . S
C1223 C1220 1.511 . S
C1223 H1237 0.961 . S
C1223 H1238 0.961 . S
C1223 H1239 0.961 . S
C1224 C1225 1.370 . S
C1224 C1226 1.363 . S
C1224 H1240 0.931 . S
C1225 C1224 1.370 . S
C1225 C1229 1.408 . S
C1226 C1224 1.363 . S
C1226 C1227 1.370 . S
C1226 C1230 1.524 . S
C1227 C1219 1.503 . S
C1227 C1226 1.370 . S
C1227 C1228 1.403 . S
C1228 C1227 1.403 . S
C1228 C1229 1.404 . S
C1228 C1231 1.539 . S
C1229 C1225 1.408 . S
C1229 C1228 1.404 . S
C1229 H1241 0.930 . S
C1230 C1226 1.524 . S
C1230 H1242 0.956 . S
C1230 H1243 0.961 . S
C1230 H1244 0.961 . S
C1231 C1228 1.539 . S
C1231 H1245 0.958 . S
C1231 H1246 0.961 . S
C1231 H1247 0.960 . S
H1232 C1216 0.931 . S
H1233 C1221 0.929 . S
H1234 C1222 0.960 . S
H1235 C1222 0.962 . S
H1236 C1222 0.960 . S
H1237 C1223 0.961 . S
H1238 C1223 0.961 . S
H1239 C1223 0.961 . S
H1240 C1224 0.931 . S
H1241 C1229 0.930 . S
H1242 C1230 0.956 . S
H1243 C1230 0.961 . S
H1244 C1230 0.961 . S
H1245 C1231 0.958 . S
H1246 C1231 0.961 . S
H1247 C1231 0.960 . S
C1248 C1249 1.391 . S
C1248 C1250 1.394 . S
C1248 H1264 0.931 . S
C1249 C1248 1.391 . S
C1249 C1253 1.376 . S
C1250 C1248 1.394 . S
C1250 C1251 1.369 . S
C1250 C1254 1.531 . S
C1251 C1250 1.369 . S
C1251 C1252 1.410 . S
C1251 C1259 1.503 . S
C1252 C1251 1.410 . S
C1252 C1253 1.392 . S
C1252 C1255 1.511 . S
C1253 C1249 1.376 . S
C1253 C1252 1.392 . S
C1253 H1265 0.929 . S
C1254 C1250 1.531 . S
C1254 H1266 0.960 . S
C1254 H1267 0.962 . S
C1254 H1268 0.960 . S
C1255 C1252 1.511 . S
C1255 H1269 0.961 . S
C1255 H1270 0.961 . S
C1255 H1271 0.961 . S
C1256 C1257 1.370 . S
C1256 C1258 1.363 . S
C1256 H1272 0.931 . S
C1257 C1256 1.370 . S
C1257 C1261 1.408 . S
C1258 C1256 1.363 . S
C1258 C1259 1.370 . S
C1258 C1262 1.524 . S
C1259 C1251 1.503 . S
C1259 C1258 1.370 . S
C1259 C1260 1.403 . S
C1260 C1259 1.403 . S
C1260 C1261 1.404 . S
C1260 C1263 1.539 . S
C1261 C1257 1.408 . S
C1261 C1260 1.404 . S
C1261 H1273 0.930 . S
C1262 C1258 1.524 . S
C1262 H1274 0.956 . S
C1262 H1275 0.961 . S
C1262 H1276 0.961 . S
C1263 C1260 1.539 . S
C1263 H1277 0.958 . S
C1263 H1278 0.961 . S
C1263 H1279 0.960 . S
H1264 C1248 0.931 . S
H1265 C1253 0.929 . S
H1266 C1254 0.960 . S
H1267 C1254 0.962 . S
H1268 C1254 0.960 . S
H1269 C1255 0.961 . S
H1270 C1255 0.961 . S
H1271 C1255 0.961 . S
H1272 C1256 0.931 . S
H1273 C1261 0.930 . S
H1274 C1262 0.956 . S
H1275 C1262 0.961 . S
H1276 C1262 0.961 . S
H1277 C1263 0.958 . S
H1278 C1263 0.961 . S
H1279 C1263 0.960 . S
C1280 C1281 1.391 . S
C1280 C1282 1.394 . S
C1280 H1296 0.931 . S
C1281 C1280 1.391 . S
C1281 C1285 1.376 . S
C1282 C1280 1.394 . S
C1282 C1283 1.369 . S
C1282 C1286 1.531 . S
C1283 C1282 1.369 . S
C1283 C1284 1.410 . S
C1283 C1291 1.503 . S
C1284 C1283 1.410 . S
C1284 C1285 1.392 . S
C1284 C1287 1.511 . S
C1285 C1281 1.376 . S
C1285 C1284 1.392 . S
C1285 H1297 0.929 . S
C1286 C1282 1.531 . S
C1286 H1298 0.960 . S
C1286 H1299 0.962 . S
C1286 H1300 0.960 . S
C1287 C1284 1.511 . S
C1287 H1301 0.961 . S
C1287 H1302 0.961 . S
C1287 H1303 0.961 . S
C1288 C1289 1.370 . S
C1288 C1290 1.363 . S
C1288 H1304 0.931 . S
C1289 C1288 1.370 . S
C1289 C1293 1.408 . S
C1290 C1288 1.363 . S
C1290 C1291 1.370 . S
C1290 C1294 1.524 . S
C1291 C1283 1.503 . S
C1291 C1290 1.370 . S
C1291 C1292 1.403 . S
C1292 C1291 1.403 . S
C1292 C1293 1.404 . S
C1292 C1295 1.539 . S
C1293 C1289 1.408 . S
C1293 C1292 1.404 . S
C1293 H1305 0.930 . S
C1294 C1290 1.524 . S
C1294 H1306 0.956 . S
C1294 H1307 0.961 . S
C1294 H1308 0.961 . S
C1295 C1292 1.539 . S
C1295 H1309 0.958 . S
C1295 H1310 0.961 . S
C1295 H1311 0.960 . S
H1296 C1280 0.931 . S
H1297 C1285 0.929 . S
H1298 C1286 0.960 . S
H1299 C1286 0.962 . S
H1300 C1286 0.960 . S
H1301 C1287 0.961 . S
H1302 C1287 0.961 . S
H1303 C1287 0.961 . S
H1304 C1288 0.931 . S
H1305 C1293 0.930 . S
H1306 C1294 0.956 . S
H1307 C1294 0.961 . S
H1308 C1294 0.961 . S
H1309 C1295 0.958 . S
H1310 C1295 0.961 . S
H1311 C1295 0.960 . S
C1312 C1313 1.391 . S
C1312 C1314 1.394 . S
C1312 H1328 0.931 . S
C1313 C1312 1.391 . S
C1313 C1317 1.376 . S
C1314 C1312 1.394 . S
C1314 C1315 1.369 . S
C1314 C1318 1.531 . S
C1315 C1314 1.369 . S
C1315 C1316 1.410 . S
C1315 C1323 1.503 . S
C1316 C1315 1.410 . S
C1316 C1317 1.392 . S
C1316 C1319 1.511 . S
C1317 C1313 1.376 . S
C1317 C1316 1.392 . S
C1317 H1329 0.929 . S
C1318 C1314 1.531 . S
C1318 H1330 0.960 . S
C1318 H1331 0.962 . S
C1318 H1332 0.960 . S
C1319 C1316 1.511 . S
C1319 H1333 0.961 . S
C1319 H1334 0.961 . S
C1319 H1335 0.961 . S
C1320 C1321 1.370 . S
C1320 C1322 1.363 . S
C1320 H1336 0.931 . S
C1321 C1320 1.370 . S
C1321 C1325 1.408 . S
C1322 C1320 1.363 . S
C1322 C1323 1.370 . S
C1322 C1326 1.524 . S
C1323 C1315 1.503 . S
C1323 C1322 1.370 . S
C1323 C1324 1.403 . S
C1324 C1323 1.403 . S
C1324 C1325 1.404 . S
C1324 C1327 1.539 . S
C1325 C1321 1.408 . S
C1325 C1324 1.404 . S
C1325 H1337 0.930 . S
C1326 C1322 1.524 . S
C1326 H1338 0.956 . S
C1326 H1339 0.961 . S
C1326 H1340 0.961 . S
C1327 C1324 1.539 . S
C1327 H1341 0.958 . S
C1327 H1342 0.961 . S
C1327 H1343 0.960 . S
H1328 C1312 0.931 . S
H1329 C1317 0.929 . S
H1330 C1318 0.960 . S
H1331 C1318 0.962 . S
H1332 C1318 0.960 . S
H1333 C1319 0.961 . S
H1334 C1319 0.961 . S
H1335 C1319 0.961 . S
H1336 C1320 0.931 . S
H1337 C1325 0.930 . S
H1338 C1326 0.956 . S
H1339 C1326 0.961 . S
H1340 C1326 0.961 . S
H1341 C1327 0.958 . S
H1342 C1327 0.961 . S
H1343 C1327 0.960 . S
C1344 C1345 1.391 . S
C1344 C1346 1.394 . S
C1344 H1360 0.931 . S
C1345 C1344 1.391 . S
C1345 C1349 1.376 . S
C1346 C1344 1.394 . S
C1346 C1347 1.369 . S
C1346 C1350 1.531 . S
C1347 C1346 1.369 . S
C1347 C1348 1.410 . S
C1347 C1355 1.503 . S
C1348 C1347 1.410 . S
C1348 C1349 1.392 . S
C1348 C1351 1.511 . S
C1349 C1345 1.376 . S
C1349 C1348 1.392 . S
C1349 H1361 0.929 . S
C1350 C1346 1.531 . S
C1350 H1362 0.960 . S
C1350 H1363 0.962 . S
C1350 H1364 0.960 . S
C1351 C1348 1.511 . S
C1351 H1365 0.961 . S
C1351 H1366 0.961 . S
C1351 H1367 0.961 . S
C1352 C1353 1.370 . S
C1352 C1354 1.363 . S
C1352 H1368 0.931 . S
C1353 C1352 1.370 . S
C1353 C1357 1.408 . S
C1354 C1352 1.363 . S
C1354 C1355 1.370 . S
C1354 C1358 1.524 . S
C1355 C1347 1.503 . S
C1355 C1354 1.370 . S
C1355 C1356 1.403 . S
C1356 C1355 1.403 . S
C1356 C1357 1.404 . S
C1356 C1359 1.539 . S
C1357 C1353 1.408 . S
C1357 C1356 1.404 . S
C1357 H1369 0.930 . S
C1358 C1354 1.524 . S
C1358 H1370 0.956 . S
C1358 H1371 0.961 . S
C1358 H1372 0.961 . S
C1359 C1356 1.539 . S
C1359 H1373 0.958 . S
C1359 H1374 0.961 . S
C1359 H1375 0.960 . S
H1360 C1344 0.931 . S
H1361 C1349 0.929 . S
H1362 C1350 0.960 . S
H1363 C1350 0.962 . S
H1364 C1350 0.960 . S
H1365 C1351 0.961 . S
H1366 C1351 0.961 . S
H1367 C1351 0.961 . S
H1368 C1352 0.931 . S
H1369 C1357 0.930 . S
H1370 C1358 0.956 . S
H1371 C1358 0.961 . S
H1372 C1358 0.961 . S
H1373 C1359 0.958 . S
H1374 C1359 0.961 . S
H1375 C1359 0.960 . S
C1376 C1377 1.391 . S
C1376 C1378 1.394 . S
C1376 H1392 0.931 . S
C1377 C1376 1.391 . S
C1377 C1381 1.376 . S
C1378 C1376 1.394 . S
C1378 C1379 1.369 . S
C1378 C1382 1.531 . S
C1379 C1378 1.369 . S
C1379 C1380 1.410 . S
C1379 C1387 1.503 . S
C1380 C1379 1.410 . S
C1380 C1381 1.392 . S
C1380 C1383 1.511 . S
C1381 C1377 1.376 . S
C1381 C1380 1.392 . S
C1381 H1393 0.929 . S
C1382 C1378 1.531 . S
C1382 H1394 0.960 . S
C1382 H1395 0.962 . S
C1382 H1396 0.960 . S
C1383 C1380 1.511 . S
C1383 H1397 0.961 . S
C1383 H1398 0.961 . S
C1383 H1399 0.961 . S
C1384 C1385 1.370 . S
C1384 C1386 1.363 . S
C1384 H1400 0.931 . S
C1385 C1384 1.370 . S
C1385 C1389 1.408 . S
C1386 C1384 1.363 . S
C1386 C1387 1.370 . S
C1386 C1390 1.524 . S
C1387 C1379 1.503 . S
C1387 C1386 1.370 . S
C1387 C1388 1.403 . S
C1388 C1387 1.403 . S
C1388 C1389 1.404 . S
C1388 C1391 1.539 . S
C1389 C1385 1.408 . S
C1389 C1388 1.404 . S
C1389 H1401 0.930 . S
C1390 C1386 1.524 . S
C1390 H1402 0.956 . S
C1390 H1403 0.961 . S
C1390 H1404 0.961 . S
C1391 C1388 1.539 . S
C1391 H1405 0.958 . S
C1391 H1406 0.961 . S
C1391 H1407 0.960 . S
H1392 C1376 0.931 . S
H1393 C1381 0.929 . S
H1394 C1382 0.960 . S
H1395 C1382 0.962 . S
H1396 C1382 0.960 . S
H1397 C1383 0.961 . S
H1398 C1383 0.961 . S
H1399 C1383 0.961 . S
H1400 C1384 0.931 . S
H1401 C1389 0.930 . S
H1402 C1390 0.956 . S
H1403 C1390 0.961 . S
H1404 C1390 0.961 . S
H1405 C1391 0.958 . S
H1406 C1391 0.961 . S
H1407 C1391 0.960 . S
C1408 C1409 1.391 . S
C1408 C1410 1.394 . S
C1408 H1424 0.931 . S
C1409 C1408 1.391 . S
C1409 C1413 1.376 . S
C1410 C1408 1.394 . S
C1410 C1411 1.369 . S
C1410 C1414 1.531 . S
C1411 C1410 1.369 . S
C1411 C1412 1.410 . S
C1411 C1419 1.503 . S
C1412 C1411 1.410 . S
C1412 C1413 1.392 . S
C1412 C1415 1.511 . S
C1413 C1409 1.376 . S
C1413 C1412 1.392 . S
C1413 H1425 0.929 . S
C1414 C1410 1.531 . S
C1414 H1426 0.960 . S
C1414 H1427 0.962 . S
C1414 H1428 0.960 . S
C1415 C1412 1.511 . S
C1415 H1429 0.961 . S
C1415 H1430 0.961 . S
C1415 H1431 0.961 . S
C1416 C1417 1.370 . S
C1416 C1418 1.363 . S
C1416 H1432 0.931 . S
C1417 C1416 1.370 . S
C1417 C1421 1.408 . S
C1418 C1416 1.363 . S
C1418 C1419 1.370 . S
C1418 C1422 1.524 . S
C1419 C1411 1.503 . S
C1419 C1418 1.370 . S
C1419 C1420 1.403 . S
C1420 C1419 1.403 . S
C1420 C1421 1.404 . S
C1420 C1423 1.539 . S
C1421 C1417 1.408 . S
C1421 C1420 1.404 . S
C1421 H1433 0.930 . S
C1422 C1418 1.524 . S
C1422 H1434 0.956 . S
C1422 H1435 0.961 . S
C1422 H1436 0.961 . S
C1423 C1420 1.539 . S
C1423 H1437 0.958 . S
C1423 H1438 0.961 . S
C1423 H1439 0.960 . S
H1424 C1408 0.931 . S
H1425 C1413 0.929 . S
H1426 C1414 0.960 . S
H1427 C1414 0.962 . S
H1428 C1414 0.960 . S
H1429 C1415 0.961 . S
H1430 C1415 0.961 . S
H1431 C1415 0.961 . S
H1432 C1416 0.931 . S
H1433 C1421 0.930 . S
H1434 C1422 0.956 . S
H1435 C1422 0.961 . S
H1436 C1422 0.961 . S
H1437 C1423 0.958 . S
H1438 C1423 0.961 . S
H1439 C1423 0.960 . S
C1440 C1441 1.391 . S
C1440 C1442 1.394 . S
C1440 H1456 0.931 . S
C1441 C1440 1.391 . S
C1441 C1445 1.376 . S
C1442 C1440 1.394 . S
C1442 C1443 1.369 . S
C1442 C1446 1.531 . S
C1443 C1442 1.369 . S
C1443 C1444 1.410 . S
C1443 C1451 1.503 . S
C1444 C1443 1.410 . S
C1444 C1445 1.392 . S
C1444 C1447 1.511 . S
C1445 C1441 1.376 . S
C1445 C1444 1.392 . S
C1445 H1457 0.929 . S
C1446 C1442 1.531 . S
C1446 H1458 0.960 . S
C1446 H1459 0.962 . S
C1446 H1460 0.960 . S
C1447 C1444 1.511 . S
C1447 H1461 0.961 . S
C1447 H1462 0.961 . S
C1447 H1463 0.961 . S
C1448 C1449 1.370 . S
C1448 C1450 1.363 . S
C1448 H1464 0.931 . S
C1449 C1448 1.370 . S
C1449 C1453 1.408 . S
C1450 C1448 1.363 . S
C1450 C1451 1.370 . S
C1450 C1454 1.524 . S
C1451 C1443 1.503 . S
C1451 C1450 1.370 . S
C1451 C1452 1.403 . S
C1452 C1451 1.403 . S
C1452 C1453 1.404 . S
C1452 C1455 1.539 . S
C1453 C1449 1.408 . S
C1453 C1452 1.404 . S
C1453 H1465 0.930 . S
C1454 C1450 1.524 . S
C1454 H1466 0.956 . S
C1454 H1467 0.961 . S
C1454 H1468 0.961 . S
C1455 C1452 1.539 . S
C1455 H1469 0.958 . S
C1455 H1470 0.961 . S
C1455 H1471 0.960 . S
H1456 C1440 0.931 . S
H1457 C1445 0.929 . S
H1458 C1446 0.960 . S
H1459 C1446 0.962 . S
H1460 C1446 0.960 . S
H1461 C1447 0.961 . S
H1462 C1447 0.961 . S
H1463 C1447 0.961 . S
H1464 C1448 0.931 . S
H1465 C1453 0.930 . S
H1466 C1454 0.956 . S
H1467 C1454 0.961 . S
H1468 C1454 0.961 . S
H1469 C1455 0.958 . S
H1470 C1455 0.961 . S
H1471 C1455 0.960 . S
C1472 C1473 1.391 . S
C1472 C1474 1.394 . S
C1472 H1488 0.931 . S
C1473 C1472 1.391 . S
C1473 C1477 1.376 . S
C1474 C1472 1.394 . S
C1474 C1475 1.369 . S
C1474 C1478 1.531 . S
C1475 C1474 1.369 . S
C1475 C1476 1.410 . S
C1475 C1483 1.503 . S
C1476 C1475 1.410 . S
C1476 C1477 1.392 . S
C1476 C1479 1.511 . S
C1477 C1473 1.376 . S
C1477 C1476 1.392 . S
C1477 H1489 0.929 . S
C1478 C1474 1.531 . S
C1478 H1490 0.960 . S
C1478 H1491 0.962 . S
C1478 H1492 0.960 . S
C1479 C1476 1.511 . S
C1479 H1493 0.961 . S
C1479 H1494 0.961 . S
C1479 H1495 0.961 . S
C1480 C1481 1.370 . S
C1480 C1482 1.363 . S
C1480 H1496 0.931 . S
C1481 C1480 1.370 . S
C1481 C1485 1.408 . S
C1482 C1480 1.363 . S
C1482 C1483 1.370 . S
C1482 C1486 1.524 . S
C1483 C1475 1.503 . S
C1483 C1482 1.370 . S
C1483 C1484 1.403 . S
C1484 C1483 1.403 . S
C1484 C1485 1.404 . S
C1484 C1487 1.539 . S
C1485 C1481 1.408 . S
C1485 C1484 1.404 . S
C1485 H1497 0.930 . S
C1486 C1482 1.524 . S
C1486 H1498 0.956 . S
C1486 H1499 0.961 . S
C1486 H1500 0.961 . S
C1487 C1484 1.539 . S
C1487 H1501 0.958 . S
C1487 H1502 0.961 . S
C1487 H1503 0.960 . S
H1488 C1472 0.931 . S
H1489 C1477 0.929 . S
H1490 C1478 0.960 . S
H1491 C1478 0.962 . S
H1492 C1478 0.960 . S
H1493 C1479 0.961 . S
H1494 C1479 0.961 . S
H1495 C1479 0.961 . S
H1496 C1480 0.931 . S
H1497 C1485 0.930 . S
H1498 C1486 0.956 . S
H1499 C1486 0.961 . S
H1500 C1486 0.961 . S
H1501 C1487 0.958 . S
H1502 C1487 0.961 . S
H1503 C1487 0.960 . S
C1504 C1505 1.391 . S
C1504 C1506 1.394 . S
C1504 H1520 0.931 . S
C1505 C1504 1.391 . S
C1505 C1509 1.376 . S
C1506 C1504 1.394 . S
C1506 C1507 1.369 . S
C1506 C1510 1.531 . S
C1507 C1506 1.369 . S
C1507 C1508 1.410 . S
C1507 C1515 1.503 . S
C1508 C1507 1.410 . S
C1508 C1509 1.392 . S
C1508 C1511 1.511 . S
C1509 C1505 1.376 . S
C1509 C1508 1.392 . S
C1509 H1521 0.929 . S
C1510 C1506 1.531 . S
C1510 H1522 0.960 . S
C1510 H1523 0.962 . S
C1510 H1524 0.960 . S
C1511 C1508 1.511 . S
C1511 H1525 0.961 . S
C1511 H1526 0.961 . S
C1511 H1527 0.961 . S
C1512 C1513 1.370 . S
C1512 C1514 1.363 . S
C1512 H1528 0.931 . S
C1513 C1512 1.370 . S
C1513 C1517 1.408 . S
C1514 C1512 1.363 . S
C1514 C1515 1.370 . S
C1514 C1518 1.524 . S
C1515 C1507 1.503 . S
C1515 C1514 1.370 . S
C1515 C1516 1.403 . S
C1516 C1515 1.403 . S
C1516 C1517 1.404 . S
C1516 C1519 1.539 . S
C1517 C1513 1.408 . S
C1517 C1516 1.404 . S
C1517 H1529 0.930 . S
C1518 C1514 1.524 . S
C1518 H1530 0.956 . S
C1518 H1531 0.961 . S
C1518 H1532 0.961 . S
C1519 C1516 1.539 . S
C1519 H1533 0.958 . S
C1519 H1534 0.961 . S
C1519 H1535 0.960 . S
H1520 C1504 0.931 . S
H1521 C1509 0.929 . S
H1522 C1510 0.960 . S
H1523 C1510 0.962 . S
H1524 C1510 0.960 . S
H1525 C1511 0.961 . S
H1526 C1511 0.961 . S
H1527 C1511 0.961 . S
H1528 C1512 0.931 . S
H1529 C1517 0.930 . S
H1530 C1518 0.956 . S
H1531 C1518 0.961 . S
H1532 C1518 0.961 . S
H1533 C1519 0.958 . S
H1534 C1519 0.961 . S
H1535 C1519 0.960 . S
C1536 C1537 1.391 . S
C1536 C1538 1.394 . S
C1536 H1552 0.931 . S
C1537 C1536 1.391 . S
C1537 C1541 1.376 . S
C1538 C1536 1.394 . S
C1538 C1539 1.369 . S
C1538 C1542 1.531 . S
C1539 C1538 1.369 . S
C1539 C1540 1.410 . S
C1539 C1547 1.503 . S
C1540 C1539 1.410 . S
C1540 C1541 1.392 . S
C1540 C1543 1.511 . S
C1541 C1537 1.376 . S
C1541 C1540 1.392 . S
C1541 H1553 0.929 . S
C1542 C1538 1.531 . S
C1542 H1554 0.960 . S
C1542 H1555 0.962 . S
C1542 H1556 0.960 . S
C1543 C1540 1.511 . S
C1543 H1557 0.961 . S
C1543 H1558 0.961 . S
C1543 H1559 0.961 . S
C1544 C1545 1.370 . S
C1544 C1546 1.363 . S
C1544 H1560 0.931 . S
C1545 C1544 1.370 . S
C1545 C1549 1.408 . S
C1546 C1544 1.363 . S
C1546 C1547 1.370 . S
C1546 C1550 1.524 . S
C1547 C1539 1.503 . S
C1547 C1546 1.370 . S
C1547 C1548 1.403 . S
C1548 C1547 1.403 . S
C1548 C1549 1.404 . S
C1548 C1551 1.539 . S
C1549 C1545 1.408 . S
C1549 C1548 1.404 . S
C1549 H1561 0.930 . S
C1550 C1546 1.524 . S
C1550 H1562 0.956 . S
C1550 H1563 0.961 . S
C1550 H1564 0.961 . S
C1551 C1548 1.539 . S
C1551 H1565 0.958 . S
C1551 H1566 0.961 . S
C1551 H1567 0.960 . S
H1552 C1536 0.931 . S
H1553 C1541 0.929 . S
H1554 C1542 0.960 . S
H1555 C1542 0.962 . S
H1556 C1542 0.960 . S
H1557 C1543 0.961 . S
H1558 C1543 0.961 . S
H1559 C1543 0.961 . S
H1560 C1544 0.931 . S
H1561 C1549 0.930 . S
H1562 C1550 0.956 . S
H1563 C1550 0.961 . S
H1564 C1550 0.961 . S
H1565 C1551 0.958 . S
H1566 C1551 0.961 . S
H1567 C1551 0.960 . S
C1568 C1569 1.391 . S
C1568 C1570 1.394 . S
C1568 H1584 0.931 . S
C1569 C1568 1.391 . S
C1569 C1573 1.376 . S
C1570 C1568 1.394 . S
C1570 C1571 1.369 . S
C1570 C1574 1.531 . S
C1571 C1570 1.369 . S
C1571 C1572 1.410 . S
C1571 C1579 1.503 . S
C1572 C1571 1.410 . S
C1572 C1573 1.392 . S
C1572 C1575 1.511 . S
C1573 C1569 1.376 . S
C1573 C1572 1.392 . S
C1573 H1585 0.929 . S
C1574 C1570 1.531 . S
C1574 H1586 0.960 . S
C1574 H1587 0.962 . S
C1574 H1588 0.960 . S
C1575 C1572 1.511 . S
C1575 H1589 0.961 . S
C1575 H1590 0.961 . S
C1575 H1591 0.961 . S
C1576 C1577 1.370 . S
C1576 C1578 1.363 . S
C1576 H1592 0.931 . S
C1577 C1576 1.370 . S
C1577 C1581 1.408 . S
C1578 C1576 1.363 . S
C1578 C1579 1.370 . S
C1578 C1582 1.524 . S
C1579 C1571 1.503 . S
C1579 C1578 1.370 . S
C1579 C1580 1.403 . S
C1580 C1579 1.403 . S
C1580 C1581 1.404 . S
C1580 C1583 1.539 . S
C1581 C1577 1.408 . S
C1581 C1580 1.404 . S
C1581 H1593 0.930 . S
C1582 C1578 1.524 . S
C1582 H1594 0.956 . S
C1582 H1595 0.961 . S
C1582 H1596 0.961 . S
C1583 C1580 1.539 . S
C1583 H1597 0.958 . S
C1583 H1598 0.961 . S
C1583 H1599 0.960 . S
H1584 C1568 0.931 . S
H1585 C1573 0.929 . S
H1586 C1574 0.960 . S
H1587 C1574 0.962 . S
H1588 C1574 0.960 . S
H1589 C1575 0.961 . S
H1590 C1575 0.961 . S
H1591 C1575 0.961 . S
H1592 C1576 0.931 . S
H1593 C1581 0.930 . S
H1594 C1582 0.956 . S
H1595 C1582 0.961 . S
H1596 C1582 0.961 . S
H1597 C1583 0.958 . S
H1598 C1583 0.961 . S
H1599 C1583 0.960 . S
C577 C544 0.979 . S
C585 C4 1.000 . S
C609 C436 1.002 . S
C617 C40 0.991 . S
C641 C76 1.012 . S
C649 C472 0.980 . S
C673 C508 0.999 . S
C681 C112 0.984 . S
C705 C328 0.977 . S
C713 C148 1.001 . S
C737 C184 1.006 . S
C745 C364 0.982 . S
C769 C220 0.961 . S
C777 C400 1.004 . S
C801 C256 0.969 . S
C809 C292 1.003 . S
C833 C183 1.444 . S
C841 C14 1.368 . S
C865 C230 1.409 . S
C873 C39 1.443 . S
C897 C255 1.442 . S
C905 C86 1.377 . S
C929 C111 1.437 . S
C937 C158 1.397 . S
C961 C2 1.546 . S
C969 C38 1.547 . S
C993 C75 1.438 . S
C1001 C50 1.394 . S
C1025 C74 1.549 . S
C1033 C110 1.550 . S
C1057 C3 1.438 . S
C1065 C122 1.395 . S
C1089 C254 1.537 . S
C1097 C146 1.544 . S
C1121 C147 1.438 . S
C1129 C194 1.394 . S
C1153 C182 1.543 . S
C1161 C218 1.545 . S
C1185 C266 1.380 . S
C1193 C219 1.445 . S
C1217 C471 1.444 . S
C1225 C302 1.369 . S
C1249 C327 1.444 . S
C1257 C518 1.368 . S
C1281 C543 1.438 . S
C1289 C374 1.395 . S
C1313 C446 1.350 . S
C1321 C399 1.446 . S
C1345 C290 1.546 . S
C1353 C326 1.546 . S
C1377 C338 1.408 . S
C1385 C363 1.443 . S
C1409 C398 1.548 . S
C1417 C362 1.550 . S
C1441 C291 1.438 . S
C1449 C410 1.393 . S
C1473 C542 1.549 . S
C1481 C434 1.548 . S
C1505 C435 1.444 . S
C1513 C482 1.369 . S
C1537 C470 1.547 . S
C1545 C506 1.547 . S
C1569 C554 1.413 . S
C1577 C507 1.443 . S
