# Generated by pormake.
# Topology unn, (4)-cn, num edge types: 1
# Building blocks:
#     Node 0, Type 0, BuildingBlock: KOZSID_clean_sbu_0, # of connection points: 4
#     Node 1, Type 0, BuildingBlock: KOZSID_clean_sbu_0, # of connection points: 4
#     Node 2, Type 0, BuildingBlock: KOZSID_clean_sbu_0, # of connection points: 4
#     Node 3, Type 0, BuildingBlock: KOZSID_clean_sbu_0, # of connection points: 4
#     Node 4, Type 0, BuildingBlock: KOZSID_clean_sbu_0, # of connection points: 4
#     Node 5, Type 0, BuildingBlock: KOZSID_clean_sbu_0, # of connection points: 4
#     Node 6, Type 0, BuildingBlock: KOZSID_clean_sbu_0, # of connection points: 4
#     Node 7, Type 0, BuildingBlock: KOZSID_clean_sbu_0, # of connection points: 4
#     Node 8, Type 0, BuildingBlock: KOZSID_clean_sbu_0, # of connection points: 4
#     Node 9, Type 0, BuildingBlock: KOZSID_clean_sbu_0, # of connection points: 4
#     Node 10, Type 0, BuildingBlock: KOZSID_clean_sbu_0, # of connection points: 4
#     Node 11, Type 0, BuildingBlock: KOZSID_clean_sbu_0, # of connection points: 4
#     Node 12, Type 0, BuildingBlock: KOZSID_clean_sbu_0, # of connection points: 4
#     Node 13, Type 0, BuildingBlock: KOZSID_clean_sbu_0, # of connection points: 4
#     Node 14, Type 0, BuildingBlock: KOZSID_clean_sbu_0, # of connection points: 4
#     Node 15, Type 0, BuildingBlock: KOZSID_clean_sbu_0, # of connection points: 4
#     Node 16, Type 0, BuildingBlock: KOZSID_clean_sbu_0, # of connection points: 4
#     Node 17, Type 0, BuildingBlock: KOZSID_clean_sbu_0, # of connection points: 4
#     Edge 18, Type (0, 0), BuildingBlock: OJICUG_clean_linker_0, # of connection points: 2
#     Edge 19, Type (0, 0), BuildingBlock: OJICUG_clean_linker_0, # of connection points: 2
#     Edge 20, Type (0, 0), BuildingBlock: OJICUG_clean_linker_0, # of connection points: 2
#     Edge 21, Type (0, 0), BuildingBlock: OJICUG_clean_linker_0, # of connection points: 2
#     Edge 22, Type (0, 0), BuildingBlock: OJICUG_clean_linker_0, # of connection points: 2
#     Edge 23, Type (0, 0), BuildingBlock: OJICUG_clean_linker_0, # of connection points: 2
#     Edge 24, Type (0, 0), BuildingBlock: OJICUG_clean_linker_0, # of connection points: 2
#     Edge 25, Type (0, 0), BuildingBlock: OJICUG_clean_linker_0, # of connection points: 2
#     Edge 26, Type (0, 0), BuildingBlock: OJICUG_clean_linker_0, # of connection points: 2
#     Edge 27, Type (0, 0), BuildingBlock: OJICUG_clean_linker_0, # of connection points: 2
#     Edge 28, Type (0, 0), BuildingBlock: OJICUG_clean_linker_0, # of connection points: 2
#     Edge 29, Type (0, 0), BuildingBlock: OJICUG_clean_linker_0, # of connection points: 2
#     Edge 30, Type (0, 0), BuildingBlock: OJICUG_clean_linker_0, # of connection points: 2
#     Edge 31, Type (0, 0), BuildingBlock: OJICUG_clean_linker_0, # of connection points: 2
#     Edge 32, Type (0, 0), BuildingBlock: OJICUG_clean_linker_0, # of connection points: 2
#     Edge 33, Type (0, 0), BuildingBlock: OJICUG_clean_linker_0, # of connection points: 2
#     Edge 34, Type (0, 0), BuildingBlock: OJICUG_clean_linker_0, # of connection points: 2
#     Edge 35, Type (0, 0), BuildingBlock: OJICUG_clean_linker_0, # of connection points: 2
#     Edge 36, Type (0, 0), BuildingBlock: OJICUG_clean_linker_0, # of connection points: 2
#     Edge 37, Type (0, 0), BuildingBlock: OJICUG_clean_linker_0, # of connection points: 2
#     Edge 38, Type (0, 0), BuildingBlock: OJICUG_clean_linker_0, # of connection points: 2
#     Edge 39, Type (0, 0), BuildingBlock: OJICUG_clean_linker_0, # of connection points: 2
#     Edge 40, Type (0, 0), BuildingBlock: OJICUG_clean_linker_0, # of connection points: 2
#     Edge 41, Type (0, 0), BuildingBlock: OJICUG_clean_linker_0, # of connection points: 2
#     Edge 42, Type (0, 0), BuildingBlock: OJICUG_clean_linker_0, # of connection points: 2
#     Edge 43, Type (0, 0), BuildingBlock: OJICUG_clean_linker_0, # of connection points: 2
#     Edge 44, Type (0, 0), BuildingBlock: OJICUG_clean_linker_0, # of connection points: 2
#     Edge 45, Type (0, 0), BuildingBlock: OJICUG_clean_linker_0, # of connection points: 2
#     Edge 46, Type (0, 0), BuildingBlock: OJICUG_clean_linker_0, # of connection points: 2
#     Edge 47, Type (0, 0), BuildingBlock: OJICUG_clean_linker_0, # of connection points: 2
#     Edge 48, Type (0, 0), BuildingBlock: OJICUG_clean_linker_0, # of connection points: 2
#     Edge 49, Type (0, 0), BuildingBlock: OJICUG_clean_linker_0, # of connection points: 2
#     Edge 50, Type (0, 0), BuildingBlock: OJICUG_clean_linker_0, # of connection points: 2
#     Edge 51, Type (0, 0), BuildingBlock: OJICUG_clean_linker_0, # of connection points: 2
#     Edge 52, Type (0, 0), BuildingBlock: OJICUG_clean_linker_0, # of connection points: 2
#     Edge 53, Type (0, 0), BuildingBlock: OJICUG_clean_linker_0, # of connection points: 2
# Relax obj value: 0.054
# Max RMSD: 0.234
# Mean RMSD: 0.202
data_MOF--net-unn--node1-KOZSID_clean_sbu_0--edge1-OJICUG_clean_linker_0
_symmetry_space_group_name_H-M    P1
_symmetry_Int_Tables_number       1
_symmetry_cell_setting            triclinic
loop_
_symmetry_equiv_pos_as_xyz
'x, y, z'
_cell_length_a     42.58372
_cell_length_b     42.577772
_cell_length_c     38.648813
_cell_angle_alpha  89.682057
_cell_angle_beta   90.386043
_cell_angle_gamma 119.87193
loop_
_atom_site_label
_atom_site_type_symbol
_atom_site_fract_x
_atom_site_fract_y
_atom_site_fract_z
_atom_type_partial_charge
C0 C 0.99599 0.72346 0.35715 0.0
C1 C 1.00002 0.75362 0.37462 0.0
C2 C 0.01583 0.78223 0.35201 0.0
C3 C 0.0207 0.76821 0.32195 0.0
N4 N 0.00818 0.73227 0.32371 0.0
Co5 Co 0.01568 0.70392 0.28648 0.0
N6 N 0.0317 0.74346 0.25085 0.0
C7 C 0.04063 0.77785 0.2578 0.0
C8 C 0.04974 0.79925 0.22871 0.0
C9 C 0.04661 0.77705 0.20165 0.0
C10 C 0.03595 0.74317 0.21565 0.0
N11 N 0.02422 0.67579 0.24986 0.0
C12 C 0.03031 0.68149 0.2151 0.0
C13 C 0.03592 0.65503 0.20036 0.0
C14 C 0.03261 0.63169 0.22631 0.0
C15 C 0.0255 0.6452 0.25548 0.0
N16 N 0.99863 0.66339 0.3213 0.0
C17 C 1.00033 0.63288 0.31712 0.0
C18 C 0.98671 0.60929 0.34447 0.0
C19 C 0.97638 0.62612 0.36803 0.0
C20 C 0.98467 0.6594 0.35389 0.0
N21 N 0.96553 0.68516 0.26982 0.0
C22 C 0.898 0.66376 0.23808 0.0
C23 C 0.90978 0.63864 0.2441 0.0
C24 C 0.94376 0.64994 0.25979 0.0
C25 C 0.92007 0.6992 0.24956 0.0
C26 C 0.95317 0.70912 0.26558 0.0
N27 N 0.06644 0.72507 0.30325 0.0
C28 C 0.10644 0.75004 0.3526 0.0
C29 C 0.1341 0.77634 0.33195 0.0
C30 C 0.1285 0.77313 0.2959 0.0
C31 C 0.09489 0.74684 0.28212 0.0
C32 C 0.07322 0.72496 0.33793 0.0
H33 H 0.09136 0.74595 0.25443 0.0
H34 H 0.05257 0.70725 0.35546 0.0
H35 H 0.95272 0.63047 0.26303 0.0
H36 H 0.96914 0.73678 0.27354 0.0
C37 C 0.03582 0.78753 0.2912 0.0
C38 C 0.98424 0.6882 0.37466 0.0
C39 C 0.0324 0.71208 0.1951 0.0
C40 C 0.01421 0.62693 0.28691 0.0
H41 H 0.99342 0.75504 0.40134 0.0
H42 H 0.02337 0.8101 0.35711 0.0
H43 H 0.05684 0.82741 0.22716 0.0
H44 H 0.05178 0.78503 0.17475 0.0
H45 H 0.04169 0.65269 0.17358 0.0
H46 H 0.03383 0.607 0.2239 0.0
H47 H 0.985 0.58316 0.34718 0.0
H48 H 0.96556 0.6158 0.39347 0.0
H49 H 0.89344 0.61081 0.23574 0.0
H50 H 0.91187 0.71936 0.24605 0.0
H51 H 0.10974 0.74933 0.38033 0.0
H52 H 0.14911 0.7918 0.27832 0.0
C53 C 0.28372 0.29832 0.21172 0.0
C54 C 0.25724 0.26841 0.19416 0.0
C55 C 0.24395 0.23984 0.21688 0.0
C56 C 0.26292 0.25364 0.24711 0.0
N57 N 0.28684 0.28943 0.24533 0.0
Co58 Co 0.32298 0.31725 0.28277 0.0
N59 N 0.29911 0.27786 0.3184 0.0
C60 C 0.2732 0.24369 0.31142 0.0
C61 C 0.26067 0.22243 0.34056 0.0
C62 C 0.28005 0.2445 0.36767 0.0
C63 C 0.30367 0.27817 0.35367 0.0
N64 N 0.35995 0.34484 0.31957 0.0
C65 C 0.36032 0.33915 0.35438 0.0
C66 C 0.39261 0.36513 0.36931 0.0
C67 C 0.4128 0.38821 0.34342 0.0
C68 C 0.39204 0.37501 0.31411 0.0
N69 N 0.34685 0.35769 0.24797 0.0
C70 C 0.37925 0.38785 0.25235 0.0
C71 C 0.38946 0.41149 0.22499 0.0
C72 C 0.36225 0.39504 0.20119 0.0
C73 C 0.33702 0.36191 0.21521 0.0
N74 N 0.29239 0.33705 0.29911 0.0
C75 C 0.2474 0.35968 0.33077 0.0
C76 C 0.28427 0.38428 0.32476 0.0
C77 C 0.30638 0.37235 0.30915 0.0
C78 C 0.23347 0.32416 0.3193 0.0
C79 C 0.25606 0.31365 0.30327 0.0
N80 N 0.35172 0.29502 0.26632 0.0
C81 C 0.36652 0.26989 0.2172 0.0
C82 C 0.36766 0.24327 0.23787 0.0
C83 C 0.36502 0.24623 0.27388 0.0
C84 C 0.35789 0.2727 0.28753 0.0
C85 C 0.35863 0.29517 0.23174 0.0
H86 H 0.35515 0.27341 0.31518 0.0
H87 H 0.35605 0.31322 0.21414 0.0
H88 H 0.33483 0.39142 0.306 0.0
H89 H 0.24392 0.28595 0.29528 0.0
C90 C 0.25851 0.23423 0.27795 0.0
C91 C 0.30775 0.33335 0.19418 0.0
C92 C 0.33151 0.30908 0.37431 0.0
C93 C 0.39911 0.39337 0.2827 0.0
H94 H 0.24931 0.26708 0.16731 0.0
H95 H 0.2233 0.21213 0.21175 0.0
H96 H 0.23923 0.19448 0.3421 0.0
H97 H 0.27713 0.2366 0.39462 0.0
H98 H 0.40074 0.36737 0.39617 0.0
H99 H 0.43889 0.41258 0.34596 0.0
H100 H 0.41406 0.43736 0.22241 0.0
H101 H 0.36191 0.40546 0.17567 0.0
H102 H 0.29618 0.41215 0.33311 0.0
H103 H 0.20512 0.30438 0.32286 0.0
H104 H 0.37067 0.2708 0.18953 0.0
H105 H 0.36671 0.22731 0.29151 0.0
C106 C 0.71691 0.99072 0.21314 0.0
C107 C 0.74467 0.98794 0.19763 0.0
C108 C 0.76994 0.99445 0.22291 0.0
C109 C 0.75652 1.00112 0.25246 0.0
N110 N 0.72423 0.99904 0.24774 0.0
Co111 Co 0.69832 0.01129 0.28409 0.0
N112 N 0.73614 0.02274 0.32102 0.0
C113 C 0.7661 0.02019 0.3168 0.0
C114 C 0.78593 0.02635 0.34668 0.0
C115 C 0.76728 0.03305 0.37163 0.0
C116 C 0.73705 0.03087 0.3556 0.0
N117 N 0.67315 0.02593 0.31919 0.0
C118 C 0.68201 0.03837 0.35246 0.0
C119 C 0.65766 0.04787 0.36567 0.0
C120 C 0.63208 0.04011 0.34066 0.0
C121 C 0.64237 0.02679 0.31346 0.0
N122 N 0.65886 0.99754 0.24835 0.0
C123 C 0.62773 0.99778 0.2534 0.0
C124 C 0.60419 0.98488 0.22592 0.0
C125 C 0.62153 0.97624 0.20141 0.0
C126 C 0.65505 0.98486 0.21518 0.0
N127 N 0.67351 0.96012 0.30165 0.0
C128 C 0.65931 0.89327 0.33222 0.0
C129 C 0.65725 0.92003 0.35142 0.0
C130 C 0.66405 0.95263 0.33582 0.0
C131 C 0.66496 0.89942 0.29643 0.0
C132 C 0.67138 0.93251 0.28171 0.0
N133 N 0.72543 0.06243 0.26666 0.0
C134 C 0.75038 0.10297 0.21742 0.0
C135 C 0.77846 0.12967 0.2375 0.0
C136 C 0.77708 0.1231 0.27333 0.0
C137 C 0.75023 0.08985 0.28731 0.0
C138 C 0.72444 0.07013 0.2323 0.0
H139 H 0.7507 0.08625 0.31481 0.0
H140 H 0.70453 0.0509 0.21513 0.0
H141 H 0.6627 0.97185 0.35238 0.0
H142 H 0.67589 0.93582 0.25429 0.0
C143 C 0.77379 0.01057 0.28473 0.0
C144 C 0.68379 0.98462 0.19417 0.0
C145 C 0.71031 0.03749 0.37403 0.0
C146 C 0.6225 0.01251 0.28329 0.0
H147 H 0.7466 0.98195 0.17084 0.0
H148 H 0.79538 0.99483 0.21992 0.0
H149 H 0.81074 0.02549 0.3501 0.0
H150 H 0.77507 0.03879 0.39855 0.0
H151 H 0.65762 0.05805 0.39125 0.0
H152 H 0.60819 0.04284 0.34247 0.0
H153 H 0.57794 0.98294 0.22359 0.0
H154 H 0.61121 0.96605 0.17579 0.0
H155 H 0.65087 0.91622 0.37873 0.0
H156 H 0.66584 0.87947 0.27985 0.0
H157 H 0.74845 0.10701 0.18998 0.0
H158 H 0.79732 0.14287 0.29057 0.0
C159 C 0.94868 0.1856 0.74689 0.0
C160 C 0.9338 0.14927 0.73798 0.0
C161 C 0.95489 0.13726 0.75309 0.0
C162 C 0.98114 0.16655 0.77057 0.0
N163 N 0.97817 0.19651 0.76753 0.0
Co164 Co 0.00941 0.24362 0.79121 0.0
N165 N 0.04705 0.2301 0.80213 0.0
C166 C 0.04342 0.19698 0.79856 0.0
C167 C 0.07444 0.19594 0.80558 0.0
C168 C 0.09926 0.23045 0.81482 0.0
C169 C 0.08163 0.25052 0.81361 0.0
N170 N 0.04063 0.29033 0.81584 0.0
C171 C 0.07488 0.30468 0.82886 0.0
C172 C 0.08457 0.33627 0.84702 0.0
C173 C 0.05535 0.34158 0.84576 0.0
C174 C 0.0294 0.31302 0.82703 0.0
N175 N 0.97167 0.25679 0.77954 0.0
C176 C 0.96864 0.28376 0.79419 0.0
C177 C 0.94001 0.28656 0.78124 0.0
C178 C 0.92377 0.2594 0.75719 0.0
C179 C 0.94328 0.24127 0.75693 0.0
N180 N 0.98453 0.22304 0.83552 0.0
C181 C 0.95261 0.22784 0.8971 0.0
C182 C 0.93129 0.21106 0.86776 0.0
C183 C 0.94771 0.20832 0.83739 0.0
C184 C 0.98896 0.23629 0.89644 0.0
C185 C 1.00417 0.23297 0.86562 0.0
N186 N 0.0338 0.26623 0.7473 0.0
C187 C 0.05366 0.31744 0.70894 0.0
C188 C 0.06219 0.30015 0.68316 0.0
C189 C 0.05772 0.26576 0.69071 0.0
C190 C 0.0433 0.24915 0.72303 0.0
C191 C 0.03966 0.30026 0.74032 0.0
H192 H 0.03912 0.22236 0.72807 0.0
H193 H 0.03263 0.31459 0.75854 0.0
H194 H 0.93116 0.19813 0.81445 0.0
H195 H 0.03279 0.24243 0.86544 0.0
C196 C 0.01177 0.16833 0.78532 0.0
C197 C 0.93241 0.20775 0.73717 0.0
C198 C 0.0972 0.28706 0.82818 0.0
C199 C 0.99557 0.30818 0.81681 0.0
H200 H 0.90994 0.13281 0.72249 0.0
H201 H 0.95204 0.11064 0.75073 0.0
H202 H 0.07868 0.17296 0.80366 0.0
H203 H 0.12692 0.23948 0.82261 0.0
H204 H 0.10974 0.35313 0.86064 0.0
H205 H 0.05334 0.36371 0.85708 0.0
H206 H 0.93232 0.30645 0.78788 0.0
H207 H 0.9 0.25334 0.74197 0.0
H208 H 0.90285 0.20306 0.86716 0.0
H209 H 0.00621 0.24774 0.91894 0.0
H210 H 0.05719 0.3442 0.70469 0.0
H211 H 0.06411 0.25141 0.6715 0.0
C212 C 0.83676 0.76999 0.74621 0.0
C213 C 0.87307 0.79204 0.73766 0.0
C214 C 0.88402 0.82503 0.75211 0.0
C215 C 0.85415 0.82132 0.76885 0.0
N216 N 0.82474 0.7881 0.76593 0.0
Co217 Co 0.7772 0.77133 0.78917 0.0
N218 N 0.78985 0.82216 0.8003 0.0
C219 C 0.82278 0.85188 0.79715 0.0
C220 C 0.8236 0.88346 0.80563 0.0
C221 C 0.7891 0.8732 0.81537 0.0
C222 C 0.7692 0.83568 0.81259 0.0
N223 N 0.7302 0.75496 0.8135 0.0
C224 C 0.71563 0.77432 0.82713 0.0
C225 C 0.68393 0.75189 0.84483 0.0
C226 C 0.67876 0.71748 0.84276 0.0
C227 C 0.7075 0.72074 0.82398 0.0
N228 N 0.76488 0.7208 0.77722 0.0
C229 C 0.73765 0.69042 0.79114 0.0
C230 C 0.7356 0.65941 0.77839 0.0
C231 C 0.76358 0.67094 0.75531 0.0
C232 C 0.78145 0.70851 0.75541 0.0
N233 N 0.79763 0.76668 0.83373 0.0
C234 C 0.79033 0.72996 0.89623 0.0
C235 C 0.80647 0.72377 0.86751 0.0
C236 C 0.81072 0.74316 0.83667 0.0
C237 C 0.78437 0.75952 0.89462 0.0
C238 C 0.78868 0.77783 0.86333 0.0
N239 N 0.75461 0.7737 0.74515 0.0
C240 C 0.70294 0.74423 0.70685 0.0
C241 C 0.719 0.77223 0.68256 0.0
C242 C 0.75378 0.80135 0.69048 0.0
C243 C 0.77106 0.80162 0.72196 0.0
C244 C 0.72088 0.74551 0.73749 0.0
H245 H 0.79766 0.82416 0.72742 0.0
H246 H 0.7072 0.72296 0.75476 0.0
H247 H 0.82073 0.73601 0.81426 0.0
H248 H 0.78057 0.79801 0.86251 0.0
C249 C 0.85168 0.84957 0.78375 0.0
C250 C 0.8158 0.73151 0.73701 0.0
C251 C 0.7327 0.81409 0.82685 0.0
C252 C 0.71273 0.69222 0.8134 0.0
H253 H 0.89026 0.7851 0.72297 0.0
H254 H 0.91042 0.84907 0.75006 0.0
H255 H 0.84651 0.91071 0.8047 0.0
H256 H 0.78 0.89123 0.82471 0.0
H257 H 0.66688 0.75978 0.85856 0.0
H258 H 0.65665 0.69302 0.85362 0.0
H259 H 0.71581 0.63169 0.78469 0.0
H260 H 0.77045 0.65366 0.74061 0.0
H261 H 0.81286 0.70214 0.86778 0.0
H262 H 0.77377 0.76676 0.9167 0.0
H263 H 0.67681 0.72054 0.70197 0.0
H264 H 0.76753 0.82377 0.67263 0.0
C265 C 0.19275 0.9499 0.82601 0.0
C266 C 0.15704 0.93693 0.83609 0.0
C267 C 0.14597 0.95884 0.82113 0.0
C268 C 0.17521 0.98376 0.80269 0.0
N269 N 0.20437 0.97934 0.80505 0.0
Co270 Co 0.25119 0.00888 0.78016 0.0
N271 N 0.23874 0.04714 0.76803 0.0
C272 C 0.20585 0.04415 0.77107 0.0
C273 C 0.20487 0.07458 0.7612 0.0
C274 C 0.23922 0.0984 0.75075 0.0
C275 C 0.25928 0.08093 0.75466 0.0
N276 N 0.29762 0.03848 0.75458 0.0
C277 C 0.3125 0.07242 0.74063 0.0
C278 C 0.34377 0.08097 0.72252 0.0
C279 C 0.34832 0.0513 0.72468 0.0
C280 C 0.31968 0.02628 0.74395 0.0
N281 N 0.26315 0.97036 0.79271 0.0
C282 C 0.28947 0.96623 0.77804 0.0
C283 C 0.29105 0.93686 0.79073 0.0
C284 C 0.26368 0.92114 0.81455 0.0
C285 C 0.24667 0.94171 0.81499 0.0
N286 N 0.22929 0.98284 0.73653 0.0
C287 C 0.23314 0.94942 0.67558 0.0
C288 C 0.21643 0.92875 0.70523 0.0
C289 C 0.21411 0.94593 0.73528 0.0
C290 C 0.24183 0.98583 0.67556 0.0
C291 C 0.23899 1.0018 0.70606 0.0
N292 N 0.27529 0.03478 0.82316 0.0
C293 C 0.3285 0.05785 0.85947 0.0
C294 C 0.31453 0.07279 0.88267 0.0
C295 C 0.27968 0.06755 0.87571 0.0
C296 C 0.26055 0.04859 0.84567 0.0
C297 C 0.30879 0.0393 0.83034 0.0
H298 H 0.23409 0.04523 0.84059 0.0
H299 H 0.32114 0.02863 0.81361 0.0
H300 H 0.20382 0.92986 0.75845 0.0
H301 H 0.24879 0.03047 0.70566 0.0
C302 C 0.17739 0.01382 0.78624 0.0
C303 C 0.21307 0.9313 0.83442 0.0
C304 C 0.29609 0.09583 0.74114 0.0
C305 C 0.31406 0.9924 0.75499 0.0
H306 H 0.14023 0.91358 0.85199 0.0
H307 H 0.11989 0.95715 0.82384 0.0
H308 H 0.18199 0.07907 0.76188 0.0
H309 H 0.24815 0.12521 0.74043 0.0
H310 H 0.36095 0.10575 0.70851 0.0
H311 H 0.37003 0.04841 0.71363 0.0
H312 H 0.3101 0.92813 0.78384 0.0
H313 H 0.25657 0.89687 0.82935 0.0
H314 H 0.20815 0.90025 0.7063 0.0
H315 H 0.25318 1.0026 0.65278 0.0
H316 H 0.35462 0.05994 0.86391 0.0
H317 H 0.26754 0.0784 0.89296 0.0
C318 C 0.66315 0.05643 0.68984 0.0
C319 C 0.66769 0.08675 0.70738 0.0
C320 C 0.68371 0.11535 0.68478 0.0
C321 C 0.68819 0.10116 0.65464 0.0
N322 N 0.67521 0.06513 0.65635 0.0
Co323 Co 0.68207 0.03648 0.61898 0.0
N324 N 0.69849 0.07612 0.5834 0.0
C325 C 0.70789 0.11062 0.59043 0.0
C326 C 0.71721 0.13208 0.56137 0.0
C327 C 0.71374 0.10982 0.53426 0.0
C328 C 0.70268 0.07582 0.54818 0.0
N329 N 0.68997 0.00802 0.58223 0.0
C330 C 0.69612 0.01375 0.54748 0.0
C331 C 0.70125 0.98702 0.53266 0.0
C332 C 0.69755 0.96347 0.55853 0.0
C333 C 0.69072 0.97714 0.58775 0.0
N334 N 0.6646 0.99585 0.65375 0.0
C335 C 0.66574 0.96505 0.64946 0.0
C336 C 0.65194 0.94147 0.67679 0.0
C337 C 0.64209 0.95861 0.70048 0.0
C338 C 0.65082 0.99204 0.68641 0.0
N339 N 0.63196 0.0184 0.60251 0.0
C340 C 0.56434 0.99786 0.57142 0.0
C341 C 0.57565 0.97235 0.57727 0.0
C342 C 0.6097 0.98323 0.59263 0.0
C343 C 0.58695 0.03327 0.58269 0.0
C344 C 0.62009 0.04276 0.5984 0.0
N345 N 0.7328 0.05695 0.63561 0.0
C346 C 0.77286 0.08158 0.68494 0.0
C347 C 0.80058 0.10783 0.66431 0.0
C348 C 0.795 0.10472 0.62827 0.0
C349 C 0.76131 0.0786 0.61448 0.0
C350 C 0.7396 0.05666 0.67026 0.0
H351 H 0.75776 0.0778 0.58679 0.0
H352 H 0.71892 0.03898 0.68778 0.0
H353 H 0.61827 0.96344 0.59576 0.0
H354 H 0.63646 0.07041 0.60625 0.0
C355 C 0.70338 0.12041 0.62387 0.0
C356 C 0.65101 0.02107 0.7073 0.0
C357 C 0.69872 0.04461 0.52755 0.0
C358 C 0.6793 0.95887 0.61916 0.0
H359 H 0.66129 0.08827 0.73415 0.0
H360 H 0.69166 0.1433 0.68993 0.0
H361 H 0.72469 0.16035 0.55989 0.0
H362 H 0.71895 0.11783 0.50737 0.0
H363 H 0.70696 0.98463 0.50587 0.0
H364 H 0.69837 0.93857 0.55606 0.0
H365 H 0.64981 0.91515 0.67942 0.0
H366 H 0.6313 0.94837 0.72594 0.0
H367 H 0.55888 0.94452 0.56904 0.0
H368 H 0.57913 0.05373 0.57929 0.0
H369 H 0.77617 0.08082 0.71267 0.0
H370 H 0.81568 0.12335 0.61073 0.0
C371 C 0.9498 0.63335 0.54532 0.0
C372 C 0.92419 0.60301 0.52762 0.0
C373 C 0.91192 0.57438 0.5502 0.0
C374 C 0.9306 0.58859 0.58048 0.0
N375 N 0.95334 0.62465 0.57889 0.0
Co376 Co 0.98891 0.65333 0.61646 0.0
N377 N 0.96651 0.61345 0.65183 0.0
C378 C 0.94168 0.57893 0.64463 0.0
C379 C 0.92992 0.55733 0.6736 0.0
C380 C 0.94867 0.57954 0.70084 0.0
C381 C 0.97122 0.61364 0.68708 0.0
N382 N 0.02531 0.68184 0.65341 0.0
C383 C 0.02607 0.67596 0.68815 0.0
C384 C 0.05783 0.7028 0.70315 0.0
C385 C 0.07723 0.7266 0.67741 0.0
C386 C 0.05658 0.71295 0.64811 0.0
N387 N 0.01128 0.6942 0.58191 0.0
C388 C 0.04288 0.72523 0.58647 0.0
C389 C 0.0522 0.7489 0.55921 0.0
C390 C 0.0253 0.73158 0.53528 0.0
C391 C 1.00112 0.69796 0.54915 0.0
N392 N 0.95647 0.67087 0.63301 0.0
C393 C 0.90895 0.6908 0.6636 0.0
C394 C 0.94556 0.71653 0.65815 0.0
C395 C 0.96895 0.70597 0.64299 0.0
C396 C 0.89654 0.65545 0.65246 0.0
C397 C 0.9204 0.64624 0.63698 0.0
N398 N 0.01958 0.63342 0.59971 0.0
C399 C 0.03536 0.60963 0.55021 0.0
C400 C 0.03858 0.5842 0.57081 0.0
C401 C 0.03642 0.58709 0.60687 0.0
C402 C 0.02751 0.61223 0.62076 0.0
C403 C 0.02624 0.63388 0.56502 0.0
H404 H 0.02487 0.61276 0.64844 0.0
H405 H 0.02243 0.65122 0.54755 0.0
H406 H 0.99715 0.72596 0.64003 0.0
H407 H 0.90944 0.61862 0.62917 0.0
C408 C 0.92708 0.56925 0.61116 0.0
C409 C 0.97279 0.66872 0.52792 0.0
C410 C 0.99822 0.64492 0.70793 0.0
C411 C 0.06288 0.73143 0.61682 0.0
H412 H 0.91622 0.60148 0.50076 0.0
H413 H 0.89219 0.54639 0.54492 0.0
H414 H 0.90934 0.52902 0.67495 0.0
H415 H 0.94604 0.57142 0.7277 0.0
H416 H 0.06615 0.70511 0.72996 0.0
H417 H 0.10271 0.75164 0.68005 0.0
H418 H 0.0761 0.77536 0.55675 0.0
H419 H 0.02453 0.74178 0.50976 0.0
H420 H 0.95622 0.7443 0.66639 0.0
H421 H 0.86845 0.63484 0.65594 0.0
H422 H 0.0388 0.61025 0.52243 0.0
H423 H 0.03978 0.56895 0.62425 0.0
C424 C 0.40425 0.36463 0.68915 0.0
C425 C 0.4345 0.36682 0.70514 0.0
C426 C 0.4531 0.36009 0.68016 0.0
C427 C 0.43323 0.35392 0.6503 0.0
N428 N 0.4033 0.35651 0.65456 0.0
Co429 Co 0.36538 0.34502 0.61773 0.0
N430 N 0.39112 0.33252 0.5814 0.0
C431 C 0.4234 0.33456 0.58605 0.0
C432 C 0.43662 0.32762 0.55652 0.0
C433 C 0.41123 0.32095 0.53133 0.0
C434 C 0.3836 0.32393 0.54687 0.0
N435 N 0.32585 0.33127 0.58208 0.0
C436 C 0.32186 0.31836 0.54899 0.0
C437 C 0.28838 0.30993 0.53525 0.0
C438 C 0.27125 0.31891 0.55968 0.0
C439 C 0.29487 0.33183 0.58711 0.0
N440 N 0.34042 0.35992 0.6528 0.0
C441 C 0.30977 0.36104 0.64707 0.0
C442 C 0.29962 0.37447 0.67427 0.0
C443 C 0.32516 0.38205 0.69929 0.0
C444 C 0.34934 0.37235 0.68606 0.0
N445 N 0.39258 0.39608 0.60011 0.0
C446 C 0.44561 0.46321 0.57076 0.0
C447 C 0.41761 0.43638 0.55071 0.0
C448 C 0.39166 0.4036 0.56568 0.0
C449 C 0.44417 0.45682 0.60663 0.0
C450 C 0.41734 0.4236 0.6207 0.0
N451 N 0.34049 0.29391 0.63546 0.0
C452 C 0.32427 0.25402 0.68538 0.0
C453 C 0.3264 0.22723 0.66632 0.0
C454 C 0.332 0.23321 0.63051 0.0
C455 C 0.33836 0.26622 0.61565 0.0
C456 C 0.331 0.28653 0.66964 0.0
H457 H 0.34282 0.26938 0.58822 0.0
H458 H 0.32954 0.30577 0.68608 0.0
H459 H 0.37181 0.38426 0.54854 0.0
H460 H 0.41778 0.42009 0.64822 0.0
C461 C 0.4408 0.34416 0.61825 0.0
C462 C 0.37753 0.37124 0.70761 0.0
C463 C 0.35042 0.31777 0.52801 0.0
C464 C 0.28983 0.34679 0.61693 0.0
H465 H 0.44231 0.37255 0.73205 0.0
H466 H 0.47789 0.35919 0.68355 0.0
H467 H 0.462 0.32789 0.55349 0.0
H468 H 0.41296 0.31469 0.50457 0.0
H469 H 0.27796 0.29964 0.50967 0.0
H470 H 0.24509 0.31718 0.55735 0.0
H471 H 0.27583 0.37737 0.6761 0.0
H472 H 0.32518 0.39224 0.72489 0.0
H473 H 0.41577 0.44028 0.52322 0.0
H474 H 0.46436 0.47671 0.62382 0.0
H475 H 0.3179 0.25031 0.7127 0.0
H476 H 0.33289 0.2132 0.61404 0.0
C477 C 0.74982 0.58498 0.14608 0.0
C478 C 0.76794 0.56538 0.14705 0.0
C479 C 0.7436 0.5309 0.13726 0.0
C480 C 0.71236 0.53151 0.13022 0.0
N481 N 0.7154 0.56433 0.13431 0.0
Co482 Co 0.67732 0.5773 0.12351 0.0
N483 N 0.64681 0.53044 0.09909 0.0
C484 C 0.65044 0.50081 0.10152 0.0
C485 C 0.6246 0.47158 0.08366 0.0
C486 C 0.60306 0.48325 0.06894 0.0
C487 C 0.61726 0.51933 0.07847 0.0
N488 N 0.63911 0.5899 0.11201 0.0
C489 C 0.61073 0.57425 0.0894 0.0
C490 C 0.59077 0.59191 0.08996 0.0
C491 C 0.60665 0.61884 0.11425 0.0
C492 C 0.63554 0.6164 0.12702 0.0
N493 N 0.70782 0.62375 0.14878 0.0
C494 C 0.69608 0.64596 0.1602 0.0
C495 C 0.72164 0.67444 0.17929 0.0
C496 C 0.75115 0.6696 0.18054 0.0
C497 C 0.742 0.63835 0.16201 0.0
N498 N 0.70208 0.60085 0.08004 0.0
C499 C 0.73329 0.637 1.01745 0.0
C500 C 0.72245 0.65288 0.04268 0.0
C501 C 0.70711 0.63463 0.07331 0.0
C502 C 0.72939 0.60278 1.02469 0.0
C503 C 0.71349 0.58502 0.05621 0.0
N504 N 0.65223 0.55579 0.16751 0.0
C505 C 0.65643 0.56845 0.22854 0.0
C506 C 0.62008 0.55998 0.22914 0.0
C507 C 0.59884 0.54334 0.19972 0.0
C508 C 0.61539 0.54087 0.16931 0.0
C509 C 0.67176 0.56543 0.19768 0.0
H510 H 0.59891 0.53079 0.14632 0.0
H511 H 0.70041 0.57502 0.19755 0.0
H512 H 0.69871 0.64803 0.09128 0.0
H513 H 0.70993 0.55844 0.06105 0.0
C514 C 0.68114 0.50286 0.11638 0.0
C515 C 0.76477 0.62125 0.16112 0.0
C516 C 0.60017 0.54092 0.06943 0.0
C517 C 0.66214 0.64075 0.14992 0.0
H518 H 0.79561 0.5747 0.15499 0.0
H519 H 0.74831 0.50825 0.13497 0.0
H520 H 0.62227 0.44522 0.08088 0.0
H521 H 0.57931 0.46667 0.05337 0.0
H522 H 0.56689 0.58564 0.07483 0.0
H523 H 0.59852 0.63833 0.12121 0.0
H524 H 0.71918 0.6962 0.19087 0.0
H525 H 0.77615 0.68652 0.19438 0.0
H526 H 0.7254 0.67943 0.03864 0.0
H527 H 0.73749 0.58948 1.00585 0.0
H528 H 0.67362 0.57977 0.2511 0.0
H529 H 0.57039 0.5353 0.19909 0.0
C530 C 0.43866 0.16466 0.15794 0.0
C531 C 0.4603 0.20061 0.168 0.0
C532 C 0.49363 0.21244 0.15405 0.0
C533 C 0.49056 0.18344 0.13608 0.0
N534 N 0.45738 0.15379 0.1377 0.0
Co535 Co 0.44155 0.10734 0.11265 0.0
N536 N 0.49271 0.1206 0.10269 0.0
C537 C 0.5223 0.15327 0.10782 0.0
C538 C 0.55425 0.1541 0.10122 0.0
C539 C 0.54441 0.11994 0.0906 0.0
C540 C 0.50676 0.10031 0.09065 0.0
N541 N 0.42618 0.06147 0.08651 0.0
C542 C 0.44604 0.04738 0.07303 0.0
C543 C 0.42423 0.01652 0.05383 0.0
C544 C 0.3898 0.0114 0.05492 0.0
C545 C 0.39238 0.03936 0.07456 0.0
N546 N 0.39066 0.09433 0.12356 0.0
C547 C 0.36081 0.06784 0.10815 0.0
C548 C 0.32937 0.06511 0.12049 0.0
C549 C 0.34009 0.09184 0.14494 0.0
C550 C 0.37763 0.10967 0.14605 0.0
N551 N 0.43807 0.12959 0.0688 0.0
C552 C 0.40475 0.12898 1.00559 0.0
C553 C 0.39753 0.14251 0.03565 0.0
C554 C 0.41536 0.14368 0.06673 0.0
C555 C 0.43295 0.12093 1.00698 0.0
C556 C 0.44948 0.12176 0.03871 0.0
N557 N 0.44252 0.08302 0.15595 0.0
C558 C 0.41047 0.03059 0.19271 0.0
C559 C 0.43562 0.04709 0.21933 0.0
C560 C 0.46562 0.08163 0.21306 0.0
C561 C 0.46854 0.09923 0.18108 0.0
C562 C 0.41434 0.04876 0.16167 0.0
H563 H 0.49114 0.12615 0.17706 0.0
H564 H 0.39338 0.03509 0.14278 0.0
H565 H 0.40783 0.15253 0.08971 0.0
H566 H 0.46871 0.11236 0.03919 0.0
C567 C 0.51941 0.18162 0.12186 0.0
C568 C 0.40003 0.14296 0.1663 0.0
C569 C 0.48586 0.06456 0.07448 0.0
C570 C 0.36345 0.04407 0.08491 0.0
H571 H 0.45291 0.21699 0.18346 0.0
H572 H 0.51754 0.23875 0.15741 0.0
H573 H 0.58147 0.1767 0.10426 0.0
H574 H 0.56292 0.11089 0.08269 0.0
H575 H 0.43253 1.00001 0.03972 0.0
H576 H 0.36575 0.98978 0.04289 0.0
H577 H 0.30189 0.04564 0.11304 0.0
H578 H 0.32233 0.09794 0.15977 0.0
H579 H 0.37704 0.1505 0.03558 0.0
H580 H 0.44019 0.11109 0.98433 0.0
H581 H 0.38706 0.0039 0.1962 0.0
H582 H 0.48573 0.09544 0.23308 0.0
C583 C 0.85904 0.28197 0.1582 0.0
C584 C 0.82322 0.26864 0.16806 0.0
C585 C 0.812 0.29045 0.15313 0.0
C586 C 0.84126 0.31564 0.13491 0.0
N587 N 0.87057 0.31148 0.13738 0.0
Co588 Co 0.9175 0.34146 0.11283 0.0
N589 N 0.90487 0.37966 0.10101 0.0
C590 C 0.87188 0.37645 0.104 0.0
C591 C 0.87072 0.40683 0.0943 0.0
C592 C 0.90507 0.43085 0.08398 0.0
C593 C 0.92529 0.41356 0.0878 0.0
N594 N 0.96404 0.37151 0.08751 0.0
C595 C 0.9788 0.40552 0.07375 0.0
C596 C 0.01016 0.41435 0.05568 0.0
C597 C 0.01489 0.38478 0.05765 0.0
C598 C 0.98626 0.35953 0.07677 0.0
N599 N 0.92968 0.30304 0.1251 0.0
C600 C 0.95618 0.29922 0.11044 0.0
C601 C 0.95793 0.2699 0.12302 0.0
C602 C 0.9305 0.25393 0.14676 0.0
C603 C 0.91329 0.2743 0.14728 0.0
N604 N 0.89594 0.31575 0.06898 0.0
C605 C 0.89999 0.28247 1.00799 0.0
C606 C 0.88308 0.26173 0.03755 0.0
C607 C 0.88068 0.27884 0.06761 0.0
C608 C 0.90885 0.31893 1.00807 0.0
C609 C 0.90588 0.33483 0.03859 0.0
N610 N 0.94121 0.36685 0.15616 0.0
C611 C 0.99382 0.38883 0.1932 0.0
C612 C 0.97888 0.40185 0.21741 0.0
C613 C 0.94398 0.39648 0.21038 0.0
C614 C 0.92566 0.37906 0.17947 0.0
C615 C 0.97488 0.37175 0.16324 0.0
H616 H 0.89907 0.3754 0.17448 0.0
H617 H 0.98782 0.3622 0.14595 0.0
H618 H 0.87027 0.26268 0.09071 0.0
H619 H 0.91572 0.36351 0.03828 0.0
C620 C 0.84339 0.34582 0.11878 0.0
C621 C 0.87965 0.26369 0.16673 0.0
C622 C 0.96216 0.42874 0.07432 0.0
C623 C 0.98077 0.32563 0.08757 0.0
H624 H 0.80645 0.24516 0.18383 0.0
H625 H 0.78581 0.28854 0.15577 0.0
H626 H 0.84772 0.41112 0.09493 0.0
H627 H 0.91388 0.45768 0.07378 0.0
H628 H 0.02727 0.43923 0.04179 0.0
H629 H 0.0367 0.38209 0.04655 0.0
H630 H 0.97715 0.26138 0.11613 0.0
H631 H 0.92351 0.22964 0.16149 0.0
H632 H 0.8747 0.23319 0.03856 0.0
H633 H 0.92036 0.33577 0.98536 0.0
H634 H 0.02003 0.3911 0.19754 0.0
H635 H 0.93111 0.40593 0.22835 0.0
C636 C 0.32941 0.38836 1.02346 0.0
C637 C 0.33358 0.41849 0.04108 0.0
C638 C 0.34927 0.44715 1.01852 0.0
C639 C 0.35394 0.43317 0.98832 0.0
N640 N 0.34138 0.39722 0.98996 0.0
Co641 Co 0.34866 0.36894 0.95248 0.0
N642 N 0.36472 0.40865 0.91702 0.0
C643 C 0.37373 0.44302 0.92414 0.0
C644 C 0.3829 0.46457 0.89514 0.0
C645 C 0.37974 0.44249 0.86797 0.0
C646 C 0.369 0.40852 0.88181 0.0
N647 N 0.35697 0.34085 0.91563 0.0
C648 C 0.36312 0.34674 0.8809 0.0
C649 C 0.36855 0.32025 0.86596 0.0
C650 C 0.36505 0.29668 0.89175 0.0
C651 C 0.35803 0.31011 0.92103 0.0
N652 N 0.33156 0.32825 0.98715 0.0
C653 C 0.33299 0.29762 0.98272 0.0
C654 C 0.31934 0.27392 1.00998 0.0
C655 C 0.30929 0.29079 1.03376 0.0
C656 C 0.31779 0.32422 1.01984 0.0
N657 N 0.29846 0.35039 0.93596 0.0
C658 C 0.23086 0.32926 0.90443 0.0
C659 C 0.24253 0.30403 0.91035 0.0
C660 C 0.27655 0.3152 0.92591 0.0
C661 C 0.25309 0.36467 0.9159 0.0
C662 C 0.28621 0.37446 0.93183 0.0
N663 N 0.39946 0.38984 0.96909 0.0
C664 C 0.43973 0.41442 1.0183 0.0
C665 C 0.46741 0.44067 0.99762 0.0
C666 C 0.46163 0.43763 0.96159 0.0
C667 C 0.42787 0.41155 0.9479 0.0
C668 C 0.40637 0.38957 1.00371 0.0
H669 H 0.42423 0.41077 0.92023 0.0
H670 H 0.38574 0.37188 1.02127 0.0
H671 H 0.2854 0.29564 0.92905 0.0
H672 H 0.30229 0.4021 0.93983 0.0
C673 C 0.369 0.45258 0.9576 0.0
C674 C 0.31774 0.35305 0.04087 0.0
C675 C 0.36542 0.37753 0.86108 0.0
C676 C 0.34669 0.2917 0.95238 0.0
H677 H 0.32718 0.41989 0.06787 0.0
H678 H 0.35691 0.47501 1.02373 0.0
H679 H 0.39007 0.49276 0.89374 0.0
H680 H 0.38494 0.4506 0.84111 0.0
H681 H 0.37432 0.31802 0.83915 0.0
H682 H 0.36612 0.27193 0.88918 0.0
H683 H 0.31743 0.24769 1.01249 0.0
H684 H 0.29853 0.28039 0.05919 0.0
H685 H 0.22607 0.27621 0.90199 0.0
H686 H 0.24499 0.38492 0.91247 0.0
H687 H 0.44314 0.41357 0.046 0.0
H688 H 0.48222 0.45625 0.94399 0.0
C689 C 0.61686 0.96598 0.87787 0.0
C690 C 0.59098 0.93583 0.86015 0.0
C691 C 0.57843 0.90713 0.88266 0.0
C692 C 0.59724 0.9211 0.91293 0.0
N693 N 0.62031 0.9571 0.9114 0.0
Co694 Co 0.65618 0.98536 0.9489 0.0
N695 N 0.63342 0.94549 0.98422 0.0
C696 C 0.6082 0.9111 0.97703 0.0
C697 C 0.59622 0.88953 1.00601 0.0
C698 C 0.61519 0.91162 1.03324 0.0
C699 C 0.63809 0.94563 1.01947 0.0
N700 N 0.6929 0.01339 0.98576 0.0
C701 C 0.69356 0.00748 1.0205 0.0
C702 C 0.72554 0.03396 0.03547 0.0
C703 C 0.74519 0.05759 1.00971 0.0
C704 C 0.72445 0.0442 0.98041 0.0
N705 N 0.67889 0.02629 0.91445 0.0
C706 C 0.71075 0.05703 0.91898 0.0
C707 C 0.72026 0.08082 0.8918 0.0
C708 C 0.69318 0.06387 0.86796 0.0
C709 C 0.66871 0.03033 0.88178 0.0
N710 N 0.62439 0.00351 0.96579 0.0
C711 C 0.57775 0.02401 0.99761 0.0
C712 C 0.6145 0.0494 0.99195 0.0
C713 C 0.63742 0.03855 0.97624 0.0
C714 C 0.56483 0.98875 0.98575 0.0
C715 C 0.58823 0.97928 0.96972 0.0
N716 N 0.68617 0.96478 0.9318 0.0
C717 C 0.70119 0.94087 0.88188 0.0
C718 C 0.70327 0.91452 0.90203 0.0
C719 C 0.70111 0.91701 0.93815 0.0
C720 C 0.69322 0.9427 0.95248 0.0
C721 C 0.69296 0.96559 0.8971 0.0
H722 H 0.69056 0.94294 0.98018 0.0
H723 H 0.68989 0.9836 0.8799 0.0
H724 H 0.66571 0.05826 0.97328 0.0
H725 H 0.57684 0.95174 0.96147 0.0
C726 C 0.5935 0.90162 0.94357 0.0
C727 C 0.64013 1.00134 0.86054 0.0
C728 C 0.66533 0.97677 0.0403 0.0
C729 C 0.73086 0.06283 0.9492 0.0
H730 H 0.58299 0.93447 0.83331 0.0
H731 H 0.55843 0.87923 0.87734 0.0
H732 H 0.57532 0.86134 1.00737 0.0
H733 H 0.61246 0.90351 0.06011 0.0
H734 H 0.73381 0.03618 0.06229 0.0
H735 H 0.77087 0.08243 1.01234 0.0
H736 H 0.74439 0.1071 0.88932 0.0
H737 H 0.69248 0.07423 0.8425 0.0
H738 H 0.62572 0.07711 1.00061 0.0
H739 H 0.53661 0.96835 0.98892 0.0
H740 H 0.70476 0.94185 0.8541 0.0
H741 H 0.70365 0.89817 0.95524 0.0
C742 C 0.05018 0.65818 0.88067 0.0
C743 C 0.07794 0.65546 0.86508 0.0
C744 C 0.10323 0.66192 0.89031 0.0
C745 C 0.08984 0.66851 0.91992 0.0
N746 N 0.05754 0.66642 0.91528 0.0
Co747 Co 0.03168 0.67865 0.95171 0.0
N748 N 0.06959 0.69012 0.98855 0.0
C749 C 0.09954 0.68756 0.98426 0.0
C750 C 0.11943 0.69375 1.01411 0.0
C751 C 0.10083 0.70045 0.0391 0.0
C752 C 0.07056 0.69825 1.02314 0.0
N753 N 0.00658 0.69329 0.98688 0.0
C754 C 0.01551 0.70575 1.02013 0.0
C755 C 0.99116 0.7152 1.03343 0.0
C756 C 0.9655 0.70738 1.00849 0.0
C757 C 0.97575 0.69408 0.98125 0.0
N758 N 0.99215 0.66487 0.91606 0.0
C759 C 0.96097 0.665 0.92122 0.0
C760 C 0.93736 0.65203 0.8938 0.0
C761 C 0.95469 0.64347 0.86923 0.0
C762 C 0.98828 0.6522 0.88288 0.0
N763 N 0.00694 0.62747 0.96931 0.0
C764 C 0.99269 0.56061 0.99997 0.0
C765 C 0.99061 0.58739 1.0191 0.0
C766 C 0.99742 0.61998 1.00347 0.0
C767 C 0.99842 0.56676 0.96417 0.0
C768 C 1.00488 0.59985 0.94942 0.0
N769 N 0.05875 0.7298 0.93427 0.0
C770 C 0.08353 0.7704 0.88502 0.0
C771 C 0.11168 0.7971 0.90505 0.0
C772 C 0.11043 0.79049 0.94086 0.0
C773 C 0.08363 0.75722 0.95487 0.0
C774 C 0.05764 0.73753 0.89993 0.0
H775 H 0.08421 0.75361 0.98236 0.0
H776 H 0.03765 0.71832 0.8828 0.0
H777 H 0.99604 0.6392 1.02 0.0
H778 H 0.00946 0.60316 0.922 0.0
C779 C 0.10717 0.67795 0.95216 0.0
C780 C 0.01703 0.65213 0.86177 0.0
C781 C 0.04385 0.70487 0.04163 0.0
C782 C 0.95578 0.67973 0.95114 0.0
H783 H 0.07986 0.64956 0.83825 0.0
H784 H 0.12868 0.66234 0.88725 0.0
H785 H 0.14426 0.69291 1.01747 0.0
H786 H 0.10867 0.70622 0.06601 0.0
H787 H 0.99116 0.72536 0.05903 0.0
H788 H 0.94158 0.71005 1.01038 0.0
H789 H 0.91106 0.65001 0.89157 0.0
H790 H 0.9443 0.63325 0.84363 0.0
H791 H 0.98418 0.58359 0.04641 0.0
H792 H 0.99933 0.54679 0.94764 0.0
H793 H 0.08149 0.77446 0.8576 0.0
H794 H 0.13072 0.81024 0.95807 0.0
C795 C 0.28284 0.85499 0.41366 0.0
C796 C 0.26832 0.8188 0.40438 0.0
C797 C 0.28964 0.80694 0.41925 0.0
C798 C 0.31568 0.83619 0.43695 0.0
N799 N 0.31237 0.86598 0.43427 0.0
Co800 Co 0.34315 0.91289 0.45848 0.0
N801 N 0.38105 0.89967 0.46922 0.0
C802 C 0.37774 0.86672 0.46533 0.0
C803 C 0.40889 0.86591 0.47231 0.0
C804 C 0.43346 0.90041 0.48184 0.0
C805 C 0.41555 0.92022 0.48082 0.0
N806 N 0.37391 0.95936 0.48361 0.0
C807 C 0.40814 0.97384 0.4967 0.0
C808 C 0.41751 0.00518 0.51517 0.0
C809 C 0.3881 0.0102 0.51402 0.0
C810 C 0.36237 0.98172 0.49503 0.0
N811 N 0.30513 0.92573 0.44701 0.0
C812 C 0.30175 0.95237 0.46196 0.0
C813 C 0.27296 0.95496 0.44916 0.0
C814 C 0.25695 0.928 0.4249 0.0
C815 C 0.27675 0.91017 0.42437 0.0
N816 N 0.31814 0.8916 0.50258 0.0
C817 C 0.28598 0.89548 0.56434 0.0
C818 C 0.26475 0.87898 0.53488 0.0
C819 C 0.2813 0.87668 0.50441 0.0
C820 C 0.32236 0.90406 0.56365 0.0
C821 C 0.33771 0.90121 0.53272 0.0
N822 N 0.36778 0.93623 0.41489 0.0
C823 C 0.38749 0.98778 0.37694 0.0
C824 C 0.39699 0.9711 0.35139 0.0
C825 C 0.39295 0.93687 0.35872 0.0
C826 C 0.37815 0.91978 0.39075 0.0
C827 C 0.37318 0.97016 0.40811 0.0
H828 H 0.37429 0.8931 0.39563 0.0
H829 H 0.36547 0.98398 0.42627 0.0
H830 H 0.26481 0.86669 0.48141 0.0
H831 H 0.36636 0.91083 0.53254 0.0
C832 C 0.34633 0.83807 0.45177 0.0
C833 C 0.26611 0.87684 0.40438 0.0
C834 C 0.43075 0.95658 0.4957 0.0
C835 C 0.32847 0.97669 0.4848 0.0
H836 H 0.24451 0.80227 0.38886 0.0
H837 H 0.28706 0.78045 0.41665 0.0
H838 H 0.41339 0.84312 0.47015 0.0
H839 H 0.46113 0.9096 0.48969 0.0
H840 H 0.4426 0.02206 0.52889 0.0
H841 H 0.38583 0.03208 0.52556 0.0
H842 H 0.26498 0.97458 0.45606 0.0
H843 H 0.23312 0.92183 0.40974 0.0
H844 H 0.23629 0.8709 0.5343 0.0
H845 H 0.33956 0.9153 0.58622 0.0
H846 H 0.39023 0.01419 0.37249 0.0
H847 H 0.39982 0.92292 0.33947 0.0
C848 C 0.1794 0.44066 0.42135 0.0
C849 C 0.21686 0.46124 0.41862 0.0
C850 C 0.22661 0.4948 0.4308 0.0
C851 C 0.19485 0.49268 0.44082 0.0
N852 N 0.1653 0.45986 0.4361 0.0
Co853 Co 0.11479 0.44458 0.4519 0.0
N854 N 0.12993 0.49451 0.46956 0.0
C855 C 0.16315 0.52393 0.46691 0.0
C856 C 0.16544 0.55522 0.47886 0.0
C857 C 0.13154 0.54525 0.49018 0.0
C858 C 0.11056 0.50815 0.48479 0.0
N859 N 0.06479 0.42944 0.46929 0.0
C860 C 0.05202 0.44814 0.48757 0.0
C861 C 0.01571 0.42637 0.49554 0.0
C862 C 1.00521 0.39298 0.48178 0.0
C863 C 0.03562 0.39618 0.46633 0.0
N864 N 0.09987 0.39526 0.4327 0.0
C865 C 0.06612 0.36654 0.43318 0.0
C866 C 0.06309 0.3368 0.41646 0.0
C867 C 0.0971 0.34725 0.40448 0.0
C868 C 0.11913 0.38286 0.41478 0.0
N869 N 0.12528 0.42958 0.49746 0.0
C870 C 0.11386 0.38918 0.55892 0.0
C871 C 0.12872 0.3823 0.52967 0.0
C872 C 0.13471 0.40312 0.49948 0.0
C873 C 0.10973 0.41984 0.55808 0.0
C874 C 0.11596 0.43975 0.52748 0.0
N875 N 0.102 0.45737 0.40631 0.0
C876 C 0.09505 0.44618 0.34463 0.0
C877 C 0.06564 0.45235 0.3433 0.0
C878 C 0.05744 0.46484 0.37344 0.0
C879 C 0.07645 0.468 0.40426 0.0
C880 C 0.11285 0.44902 0.37612 0.0
H881 H 0.06885 0.47734 0.42666 0.0
H882 H 0.134 0.44238 0.37593 0.0
H883 H 0.14487 0.39601 0.47736 0.0
H884 H 0.11088 0.4619 0.5281 0.0
C885 C 0.19193 0.52113 0.45428 0.0
C886 C 0.15834 0.4038 0.40756 0.0
C887 C 0.07315 0.48676 0.49693 0.0
C888 C 0.03801 0.3687 0.44921 0.0
H889 H 0.23533 0.45308 0.40849 0.0
H890 H 0.25364 0.51803 0.43214 0.0
H891 H 0.18909 0.58201 0.47967 0.0
H892 H 0.12345 0.56319 0.50172 0.0
H893 H 0.99862 0.43394 0.5096 0.0
H894 H 0.97857 0.36916 0.483 0.0
H895 H 0.03897 0.31066 0.41316 0.0
H896 H 0.10477 0.33054 0.38985 0.0
H897 H 0.1336 0.35966 0.52925 0.0
H898 H 0.10014 0.42759 0.58058 0.0
H899 H 0.10303 0.43713 0.32191 0.0
H900 H 0.0359 0.47137 0.37347 0.0
C901 C 0.52562 0.61455 0.48993 0.0
C902 C 0.48959 0.60085 0.49924 0.0
C903 C 0.47816 0.62218 0.48363 0.0
C904 C 0.50752 0.64749 0.4656 0.0
N905 N 0.53708 0.64384 0.46883 0.0
Co906 Co 0.58427 0.67412 0.4448 0.0
N907 N 0.57121 0.71183 0.4322 0.0
C908 C 0.53798 0.70815 0.43444 0.0
C909 C 0.53659 0.73832 0.42437 0.0
C910 C 0.57104 0.76267 0.41461 0.0
C911 C 0.59156 0.74577 0.41909 0.0
N912 N 0.63106 0.70445 0.42001 0.0
C913 C 0.64573 0.73844 0.40623 0.0
C914 C 0.67746 0.74758 0.38868 0.0
C915 C 0.68253 0.71822 0.39104 0.0
C916 C 0.65371 0.69279 0.40985 0.0
N917 N 0.59685 0.63619 0.45787 0.0
C918 C 0.62375 0.63264 0.44379 0.0
C919 C 0.62573 0.60361 0.45687 0.0
C920 C 0.59804 0.58755 0.48034 0.0
C921 C 0.58046 0.60758 0.48021 0.0
N922 N 0.5635 0.64812 0.40091 0.0
C923 C 0.56765 0.61468 0.34007 0.0
C924 C 0.55091 0.59404 0.36973 0.0
C925 C 0.54849 0.61123 0.39972 0.0
C926 C 0.57643 0.65112 0.34002 0.0
C927 C 0.57347 0.66711 0.37047 0.0
N928 N 0.60718 0.69986 0.4882 0.0
C929 C 0.65894 0.72208 0.52644 0.0
C930 C 0.643 0.73436 0.55034 0.0
C931 C 0.60828 0.72895 0.5422 0.0
C932 C 0.5909 0.71177 0.51093 0.0
C933 C 0.6409 0.70525 0.49601 0.0
H934 H 0.56432 0.70786 0.50529 0.0
H935 H 0.65444 0.69603 0.47908 0.0
H936 H 0.53815 0.59517 0.42288 0.0
H937 H 0.58323 0.69578 0.37004 0.0
C938 C 0.50946 0.67739 0.44901 0.0
C939 C 0.54654 0.5968 0.49924 0.0
C940 C 0.62873 0.76134 0.40631 0.0
C941 C 0.64848 0.65909 0.42103 0.0
H942 H 0.47284 0.57743 0.51509 0.0
H943 H 0.45177 0.61991 0.48573 0.0
H944 H 0.51337 0.74227 0.42444 0.0
H945 H 0.57976 0.78946 0.40435 0.0
H946 H 0.69461 0.77252 0.3749 0.0
H947 H 0.7047 0.71583 0.38044 0.0
H948 H 0.64527 0.59537 0.45049 0.0
H949 H 0.59113 0.56344 0.49532 0.0
H950 H 0.54263 0.56554 0.37084 0.0
H951 H 0.58786 0.66787 0.31724 0.0
H952 H 0.68503 0.72433 0.53151 0.0
H953 H 0.59463 0.73791 0.55974 0.0
C954 C 0.00754 0.68433 0.13559 0.0
C955 C 0.03532 0.71217 0.15544 0.0
H956 H 0.98865 0.65987 0.08549 0.0
C957 C 0.06685 0.7372 0.13741 0.0
H958 H 0.98308 0.66413 0.14824 0.0
C959 C 0.07013 0.73468 0.10104 0.0
C960 C 0.04221 0.70677 0.08128 0.0
H961 H 0.08933 0.75853 0.15155 0.0
H962 H 0.09451 0.75486 0.0883 0.0
C963 C 0.01089 0.6817 0.09943 0.0
C964 C 0.2855 0.34659 0.09912 0.0
C965 C 0.31506 0.34903 0.08043 0.0
H966 H 0.25957 0.33931 0.14887 0.0
C967 C 0.34145 0.34542 0.09959 0.0
H968 H 0.26446 0.34892 0.08549 0.0
C969 C 0.33852 0.33965 0.13581 0.0
C970 C 0.30903 0.33717 0.15459 0.0
H971 H 0.36453 0.34694 0.08639 0.0
H972 H 0.35963 0.33731 0.14931 0.0
C973 C 0.28251 0.34071 0.13553 0.0
C974 C 0.67999 0.95427 0.13507 0.0
C975 C 0.68019 0.98246 0.15445 0.0
H976 H 0.67535 0.93012 0.08482 0.0
C977 C 0.67423 0.00766 0.13577 0.0
H978 H 0.68399 0.93399 0.14819 0.0
C979 C 0.66829 0.00488 0.09953 0.0
C980 C 0.66805 0.97678 0.08006 0.0
H981 H 0.67403 0.02974 0.14936 0.0
H982 H 0.66423 0.02518 0.08651 0.0
C983 C 0.67428 0.95163 0.0986 0.0
C984 C 0.6738 0.0171 0.46796 0.0
C985 C 0.70168 0.04477 0.48788 0.0
H986 H 0.65487 0.99275 0.41782 0.0
C987 C 0.73331 0.06966 0.4699 0.0
H988 H 0.64925 0.99701 0.48056 0.0
C989 C 0.73661 0.06717 0.43352 0.0
C990 C 0.70861 0.0394 0.41369 0.0
H991 H 0.75587 0.09084 0.48407 0.0
H992 H 0.76108 0.08724 0.42082 0.0
C993 C 0.67717 0.01448 0.4318 0.0
C994 C 0.94775 0.67521 0.46884 0.0
C995 C 0.97449 0.6725 0.48834 0.0
H996 H 0.92982 0.68271 0.41845 0.0
C997 C 1.00458 0.6758 0.47001 0.0
H998 H 0.92436 0.67318 0.48183 0.0
C999 C 0.00781 0.68148 0.43379 0.0
C1000 C 0.98118 0.68425 0.4142 0.0
H1001 H 0.0259 0.67414 0.48386 0.0
H1002 H 0.03132 0.6836 0.42093 0.0
C1003 C 0.95106 0.68104 0.43244 0.0
C1004 C 0.34586 0.28677 0.46917 0.0
C1005 C 0.34668 0.31537 0.48833 0.0
H1006 H 0.34056 0.26206 0.41909 0.0
C1007 C 0.34115 0.34077 0.4695 0.0
H1008 H 0.34952 0.26635 0.48244 0.0
C1009 C 0.33509 0.3378 0.43329 0.0
C1010 C 0.33423 0.30929 0.41403 0.0
H1011 H 0.34142 0.36316 0.48295 0.0
H1012 H 0.33144 0.35829 0.42011 0.0
C1013 C 0.33999 0.28391 0.43274 0.0
C1014 C 0.90339 0.21921 0.93957 0.0
C1015 C 0.93861 0.24051 0.92624 0.0
H1016 H 0.86345 0.21542 0.97584 0.0
C1017 C 0.96032 0.27556 0.93973 0.0
H1018 H 0.88588 0.19214 0.92978 0.0
C1019 C 0.94739 0.28896 0.96563 0.0
C1020 C 0.91232 0.26778 0.97916 0.0
H1021 H 0.9873 0.29308 0.92978 0.0
H1022 H 0.96526 0.31594 0.97548 0.0
C1023 C 0.89055 0.23254 0.966 0.0
C1024 C 0.72704 0.67077 0.96732 0.0
C1025 C 0.74672 0.65643 0.98375 0.0
H1026 H 0.72509 0.70449 0.92729 0.0
C1027 C 0.78041 0.66454 0.9698 0.0
H1028 H 0.70076 0.66463 0.97702 0.0
C1029 C 0.79474 0.68797 0.94104 0.0
C1030 C 0.77568 0.70382 0.9259 0.0
H1031 H 0.79629 0.65405 0.98199 0.0
H1032 H 0.82116 0.6946 0.93142 0.0
C1033 C 0.74123 0.694 0.93896 0.0
C1034 C 0.39659 0.12746 0.94081 0.0
C1035 C 0.38126 0.12005 0.97399 0.0
H1036 H 0.38769 0.11992 0.88623 0.0
C1037 C 0.34317 0.10063 0.97666 0.0
H1038 H 0.42571 0.14277 0.93771 0.0
C1039 C 0.32114 0.08697 0.94698 0.0
C1040 C 0.33669 0.09252 0.9139 0.0
H1041 H 0.33042 0.09418 1.00184 0.0
H1042 H 0.29212 0.07036 0.95014 0.0
C1043 C 0.37466 0.11419 0.91126 0.0
C1044 C 0.2806 0.95611 0.63327 0.0
C1045 C 0.24553 0.93482 0.64675 0.0
H1046 H 0.32055 0.96051 0.59733 0.0
C1047 C 0.22382 0.89962 0.63347 0.0
H1048 H 0.29842 0.98306 0.64321 0.0
C1049 C 0.23672 0.88647 0.60693 0.0
C1050 C 0.27193 0.90791 0.59363 0.0
H1051 H 0.19673 0.88242 0.6433 0.0
H1052 H 0.21925 0.85944 0.59702 0.0
C1053 C 0.29358 0.94288 0.60726 0.0
C1054 C 0.05402 0.33324 0.63345 0.0
C1055 C 0.07378 0.31833 0.64867 0.0
H1056 H 0.05086 0.36656 0.59367 0.0
C1057 C 0.10603 0.32471 0.63264 0.0
H1058 H 0.02877 0.32841 0.64477 0.0
C1059 C 0.11902 0.34709 0.60305 0.0
C1060 C 0.10005 0.36358 0.58909 0.0
H1061 H 0.12195 0.31375 0.64382 0.0
H1062 H 0.1445 0.35251 0.5919 0.0
C1063 C 0.0669 0.35545 0.60425 0.0
C1064 C 0.70044 0.77068 0.5856 0.0
C1065 C 0.66222 0.7503 0.58402 0.0
H1066 H 0.74823 0.79333 0.61733 0.0
C1067 C 0.6431 0.74211 0.61534 0.0
H1068 H 0.71629 0.77855 0.5621 0.0
C1069 C 0.6616 0.75147 0.64717 0.0
C1070 C 0.69981 0.769 0.64877 0.0
H1071 H 0.6138 0.72666 0.61545 0.0
H1072 H 0.64574 0.74366 0.67067 0.0
C1073 C 0.71893 0.77971 0.61743 0.0
C1074 C 0.40017 0.40294 0.8036 0.0
C1075 C 0.3685 0.37789 0.82143 0.0
H1076 H 0.42809 0.42082 0.75463 0.0
C1077 C 0.34073 0.35028 0.80139 0.0
H1078 H 0.42264 0.4241 0.81789 0.0
C1079 C 0.34423 0.34786 0.76523 0.0
C1080 C 0.37571 0.37293 0.74726 0.0
H1081 H 0.31617 0.33008 0.81389 0.0
H1082 H 0.32199 0.32619 0.75113 0.0
C1083 C 0.4036 0.40064 0.76722 0.0
C1084 C 0.67467 0.01397 0.76623 0.0
C1085 C 0.64814 0.01712 0.74684 0.0
H1086 H 0.69278 0.00626 0.81615 0.0
C1087 C 0.61826 0.01422 0.76527 0.0
H1088 H 0.69798 0.01582 0.75322 0.0
C1089 C 0.61507 0.00833 0.80167 0.0
C1090 C 0.64171 0.00524 0.82097 0.0
H1091 H 0.5971 0.01618 0.75144 0.0
H1092 H 0.59185 0.00654 0.81482 0.0
C1093 C 0.67155 0.00823 0.80245 0.0
C1094 C 0.01347 0.62224 0.80245 0.0
C1095 C 0.01339 0.65016 0.82204 0.0
H1096 H 0.00902 0.59847 0.75203 0.0
C1097 C 0.00708 0.67525 0.80359 0.0
H1098 H 0.01772 0.60203 0.81538 0.0
C1099 C 1.00104 0.6726 0.76736 0.0
C1100 C 1.0011 0.64478 0.74767 0.0
H1101 H 0.00666 0.69713 0.81735 0.0
H1102 H 0.99667 0.6928 0.75453 0.0
C1103 C 0.00771 0.61976 0.76599 0.0
C1104 C 0.61494 0.62113 0.29763 0.0
C1105 C 0.57991 0.59994 0.31124 0.0
H1106 H 0.65476 0.62525 0.26169 0.0
C1107 C 0.55811 0.56468 0.29813 0.0
H1108 H 0.63282 0.64813 0.30744 0.0
C1109 C 0.57091 0.55134 0.27167 0.0
C1110 C 0.60609 0.57265 0.25827 0.0
H1111 H 0.53105 0.54756 0.30804 0.0
H1112 H 0.55339 0.52426 0.2619 0.0
C1113 C 0.62781 0.60771 0.27171 0.0
C1114 C 0.39347 0.01718 0.26868 0.0
C1115 C 0.42759 0.02882 0.25384 0.0
H1116 H 0.35722 0.98951 0.31042 0.0
C1117 C 0.45172 0.02025 0.27086 0.0
H1118 H 0.37425 0.0233 0.25624 0.0
C1119 C 0.44159 1.00012 0.30198 0.0
C1120 C 0.4074 0.98877 0.3167 0.0
H1121 H 0.47804 0.02854 0.25983 0.0
H1122 H 0.46065 0.99411 0.31489 0.0
C1123 C 0.38361 0.99762 0.29962 0.0
C1124 C 1.00471 0.42401 0.31285 0.0
C1125 C 0.04286 0.44397 0.31122 0.0
H1126 H 0.95449 0.39491 0.28476 0.0
C1127 C 0.05911 0.45341 0.27846 0.0
H1128 H 0.99126 0.41611 0.33767 0.0
C1129 C 0.03806 0.44173 0.24825 0.0
C1130 C 1.00005 0.41965 0.24972 0.0
H1131 H 0.08829 0.46931 0.27615 0.0
H1132 H 0.05181 0.44915 0.22356 0.0
C1133 C 0.98356 0.41191 0.28248 0.0
C1134 C 0.19823 0.84469 0.39885 0.0
C1135 C 0.23213 0.85874 0.38293 0.0
H1136 H 0.1411 0.80925 0.39515 0.0
C1137 C 0.23336 0.84826 0.34871 0.0
H1138 H 0.19639 0.85166 0.42539 0.0
C1139 C 0.20172 0.82242 0.3317 0.0
C1140 C 0.16783 0.80662 0.34835 0.0
H1141 H 0.25924 0.85812 0.33605 0.0
H1142 H 0.20428 0.81354 0.30623 0.0
C1143 C 0.16656 0.81945 0.38168 0.0
C1144 C 0.20337 0.35012 0.37854 0.0
C1145 C 0.22334 0.37011 0.34951 0.0
H1146 H 0.1674 0.34514 0.41977 0.0
C1147 C 0.21921 0.39923 0.3381 0.0
H1148 H 0.20591 0.32745 0.38791 0.0
C1149 C 0.19609 0.40843 0.35557 0.0
C1150 C 0.17733 0.38942 0.38549 0.0
H1151 H 0.23377 0.41481 0.31558 0.0
H1152 H 0.19392 0.43139 0.3465 0.0
C1153 C 0.18098 0.35992 0.39656 0.0
C1154 C 0.66766 0.86099 0.38409 0.0
C1155 C 0.65547 0.85965 0.34971 0.0
H1156 H 0.6694 0.83122 0.42858 0.0
C1157 C 0.63879 0.82574 0.33294 0.0
H1158 H 0.68143 0.88644 0.39787 0.0
C1159 C 0.63285 0.79418 0.3505 0.0
C1160 C 0.64349 0.79556 0.38527 0.0
H1161 H 0.6287 0.82315 0.30673 0.0
H1162 H 0.61808 0.7683 0.33751 0.0
C1163 C 0.66149 0.82941 0.40164 0.0
C1164 C 0.8196 0.16331 0.18669 0.0
C1165 C 0.80836 0.16373 0.22095 0.0
H1166 H 0.85104 0.19419 0.14298 0.0
C1167 C 0.82533 0.1972 0.23852 0.0
H1168 H 0.80825 0.13823 0.17231 0.0
C1169 C 0.85098 0.22921 0.22182 0.0
C1170 C 0.86038 0.22885 0.18703 0.0
H1171 H 0.8176 0.19917 0.26468 0.0
H1172 H 0.86186 0.25471 0.23546 0.0
C1173 C 0.84491 0.19536 0.16994 0.0
C1174 C 0.83067 0.66561 0.1735 0.0
C1175 C 0.7981 0.63499 0.1833 0.0
H1176 H 0.88778 0.69859 0.18307 0.0
C1177 C 0.79827 0.61473 0.2122 0.0
H1178 H 0.83135 0.68152 0.15125 0.0
C1179 C 0.83063 0.62373 0.22973 0.0
C1180 C 0.86343 0.65384 0.21943 0.0
H1181 H 0.77346 0.59101 0.22036 0.0
H1182 H 0.82999 0.60718 0.2514 0.0
C1183 C 0.86293 0.67512 0.19155 0.0
C1184 C 0.35781 0.2007 0.18782 0.0
C1185 C 0.37129 0.21304 0.22154 0.0
H1186 H 0.35603 0.16889 0.14411 0.0
C1187 C 0.38902 0.19683 0.23865 0.0
H1188 H 0.34286 0.2112 0.17392 0.0
C1189 C 0.39503 0.17107 0.22182 0.0
C1190 C 0.38392 0.16105 0.1873 0.0
H1191 H 0.4 0.20529 0.26442 0.0
H1192 H 0.41074 0.1609 0.23494 0.0
C1193 C 0.36443 0.17552 0.17085 0.0
C1194 C 0.86828 0.15347 0.66431 0.0
C1195 C 0.83432 0.13801 0.68076 0.0
H1196 H 0.92584 0.18876 0.66895 0.0
C1197 C 0.83295 0.15101 0.71396 0.0
H1198 H 0.87087 0.14442 0.63894 0.0
C1199 C 0.8646 0.17614 0.73124 0.0
C1200 C 0.89857 0.18985 0.71554 0.0
H1201 H 0.80743 0.14103 0.72727 0.0
H1202 H 0.86267 0.18327 0.75769 0.0
C1203 C 0.89992 0.17917 0.68143 0.0
C1204 C 0.87036 0.7204 0.66522 0.0
C1205 C 0.88362 0.69983 0.68169 0.0
H1206 H 0.8371 0.74511 0.66939 0.0
C1207 C 0.87126 0.68642 0.71517 0.0
H1208 H 0.87908 0.73065 0.63927 0.0
C1209 C 0.84744 0.69481 0.73247 0.0
C1210 C 0.83467 0.71601 0.71632 0.0
H1211 H 0.88084 0.67023 0.72833 0.0
H1212 H 0.84013 0.68591 0.75899 0.0
C1213 C 0.84593 0.72814 0.68223 0.0
C1214 C 0.30002 0.12827 0.68513 0.0
C1215 C 0.31085 0.12989 0.71986 0.0
H1216 H 0.29566 0.15696 0.64122 0.0
C1217 C 0.32897 0.16385 0.73602 0.0
H1218 H 0.28514 0.10229 0.67232 0.0
C1219 C 0.33505 0.19531 0.7183 0.0
C1220 C 0.32267 0.19374 0.68397 0.0
H1221 H 0.33701 0.16584 0.76293 0.0
H1222 H 0.34889 0.22087 0.73191 0.0
C1223 C 0.30589 0.15972 0.66739 0.0
C1224 C 0.17793 0.86295 0.83741 0.0
C1225 C 0.19357 0.89639 0.85461 0.0
H1226 H 0.14116 0.80584 0.83967 0.0
C1227 C 0.18428 0.89666 0.88946 0.0
H1228 H 0.18398 0.86184 0.81042 0.0
C1229 C 0.15862 0.86463 0.90612 0.0
C1230 C 0.14152 0.8312 0.88847 0.0
H1231 H 0.1953 0.92212 0.90319 0.0
H1232 H 0.15102 0.86655 0.93235 0.0
C1233 C 0.15261 0.83087 0.85413 0.0
C1234 C 0.13094 0.28066 0.87916 0.0
C1235 C 0.13071 0.30074 0.85013 0.0
H1236 H 0.16275 0.27313 0.91829 0.0
C1237 C 0.16335 0.33114 0.84005 0.0
H1238 H 0.1061 0.25713 0.88757 0.0
C1239 C 0.19569 0.34058 0.85795 0.0
C1240 C 0.19621 0.31944 0.88595 0.0
H1241 H 0.164 0.34694 0.81772 0.0
H1242 H 0.22057 0.36388 0.84926 0.0
C1243 C 0.16337 0.28956 0.89652 0.0
C1244 C 0.69659 0.8456 0.83479 0.0
C1245 C 0.71891 0.83336 0.84907 0.0
H1246 H 0.67339 0.87977 0.84043 0.0
C1247 C 0.73386 0.84565 0.88218 0.0
H1248 H 0.68514 0.83695 0.80915 0.0
C1249 C 0.728 0.87102 0.89994 0.0
C1250 C 0.70708 0.88483 0.88496 0.0
H1251 H 0.75178 0.83713 0.89347 0.0
H1252 H 0.74134 0.88106 0.92464 0.0
C1253 C 0.69052 0.87075 0.85257 0.0
C1254 C 0.49212 0.53084 0.57137 0.0
C1255 C 0.47549 0.4972 0.55411 0.0
H1256 H 0.52828 0.58841 0.56786 0.0
C1257 C 0.487 0.49654 0.52002 0.0
H1258 H 0.48416 0.53297 0.59739 0.0
C1259 C 0.51227 0.5285 0.50311 0.0
C1260 C 0.5274 0.56216 0.51986 0.0
H1261 H 0.47589 0.47133 0.5059 0.0
H1262 H 0.51862 0.52712 0.47626 0.0
C1263 C 0.51769 0.56278 0.5545 0.0
C1264 C 0.49675 0.95872 0.56392 0.0
C1265 C 0.52968 0.98837 0.55317 0.0
H1266 H 0.43941 0.92666 0.55517 0.0
C1267 C 0.52925 0.00958 0.5252 0.0
H1268 H 0.49608 0.94224 0.58567 0.0
C1269 C 0.4969 1.00042 0.50747 0.0
C1270 C 0.46419 0.97022 0.5177 0.0
H1271 H 0.55421 0.0327 0.51638 0.0
H1272 H 0.49761 0.01621 0.48511 0.0
C1273 C 0.46432 0.95009 0.54671 0.0
C1274 C 0.03433 0.51543 0.50471 0.0
C1275 C 0.05822 0.50513 0.51896 0.0
H1276 H 0.0088 0.54755 0.51001 0.0
C1277 C 0.07322 0.51843 0.55187 0.0
H1278 H 0.02272 0.50594 0.47926 0.0
C1279 C 0.06602 0.54305 0.56932 0.0
C1280 C 0.04366 0.55508 0.55424 0.0
H1281 H 0.09219 0.51131 0.5632 0.0
H1282 H 0.07946 0.55397 0.5938 0.0
C1283 C 0.02698 0.53989 0.52217 0.0
C1284 C 0.50038 0.48346 0.04742 0.0
C1285 C 0.50135 0.47073 1.01396 0.0
H1286 H 0.5306 0.51553 0.09106 0.0
C1287 C 0.53511 0.48645 0.9971 0.0
H1288 H 0.47504 0.47333 0.06109 0.0
C1289 C 0.56692 0.51218 1.01397 0.0
C1290 C 0.56598 0.52261 0.04827 0.0
H1291 H 0.53745 0.47764 0.97152 0.0
H1292 H 0.59269 0.52204 1.00109 0.0
C1293 C 0.53222 0.50858 0.06446 0.0
C1294 C 0.53057 0.01133 0.04325 0.0
C1295 C 0.55282 0.03347 1.01619 0.0
H1296 H 0.49198 0.00373 0.08284 0.0
C1297 C 0.55037 0.06408 1.0067 0.0
H1298 H 0.53174 0.98749 0.05118 0.0
C1299 C 0.52681 0.07266 1.02415 0.0
C1300 C 0.50585 0.05146 0.05223 0.0
H1301 H 0.56662 0.08135 0.98568 0.0
H1302 H 0.52594 0.09675 1.01658 0.0
C1303 C 0.50758 0.02038 0.06123 0.0
C1304 C 0.97208 0.49304 1.00081 0.0
C1305 C 0.98882 0.52699 1.01752 0.0
H1306 H 0.95133 0.43558 1.00549 0.0
C1307 C 1.00101 0.52837 0.0519 0.0
H1308 H 0.96198 0.49042 0.9746 0.0
C1309 C 0.99485 0.49681 0.06951 0.0
C1310 C 0.97683 0.46293 0.0532 0.0
H1311 H 0.01481 0.55385 0.06564 0.0
H1312 H 1.0028 0.49868 0.09643 0.0
C1313 C 0.96613 0.46149 1.01844 0.0
loop_
_geom_bond_atom_site_label_1
_geom_bond_atom_site_label_2
_geom_bond_distance
_geom_bond_site_symmetry_2
_ccdc_geom_bond_type
C0 C1 1.443 . S
C0 N4 1.375 1_655 S
C0 C38 1.389 . S
C1 C0 1.443 . S
C1 C2 1.340 1_655 S
C1 H41 0.951 . S
C2 C1 1.340 1_455 S
C2 C3 1.439 . S
C2 H42 0.950 . S
C3 C2 1.439 . S
C3 N4 1.362 . S
C3 C37 1.395 . S
N4 C0 1.375 1_455 S
N4 C3 1.362 . S
N4 Co5 2.023 . S
Co5 N4 2.023 . S
Co5 N6 1.995 . S
Co5 N11 2.008 . S
Co5 N16 1.995 1_455 S
Co5 N21 2.282 1_455 S
Co5 N27 2.282 . S
N6 Co5 1.995 . S
N6 C7 1.376 . S
N6 C10 1.383 . S
C7 N6 1.376 . S
C7 C8 1.446 . S
C7 C37 1.391 . S
C8 C7 1.446 . S
C8 C9 1.339 . S
C8 H43 0.949 . S
C9 C8 1.339 . S
C9 C10 1.439 . S
C9 H44 0.950 . S
C10 N6 1.383 . S
C10 C9 1.439 . S
C10 C39 1.392 . S
N11 Co5 2.008 . S
N11 C12 1.376 . S
N11 C15 1.374 . S
C12 N11 1.376 . S
C12 C13 1.443 . S
C12 C39 1.389 . S
C13 C12 1.443 . S
C13 C14 1.340 . S
C13 H45 0.951 . S
C14 C13 1.340 . S
C14 C15 1.439 . S
C14 H46 0.950 . S
C15 N11 1.374 . S
C15 C14 1.439 . S
C15 C40 1.395 1_455 S
N16 Co5 1.995 1_655 S
N16 C17 1.376 . S
N16 C20 1.383 . S
C17 N16 1.376 . S
C17 C18 1.446 . S
C17 C40 1.391 . S
C18 C17 1.446 . S
C18 C19 1.339 . S
C18 H47 0.949 . S
C19 C18 1.339 . S
C19 C20 1.439 . S
C19 H48 0.950 . S
C20 N16 1.383 . S
C20 C19 1.439 . S
C20 C38 1.392 . S
N21 Co5 2.282 1_655 S
N21 C24 1.332 . S
N21 C26 1.332 . S
C22 C23 1.386 . S
C22 C25 1.388 . S
C23 C22 1.386 . S
C23 C24 1.382 . S
C23 H49 0.950 . S
C24 N21 1.332 . S
C24 C23 1.382 . S
C24 H35 0.952 . S
C25 C22 1.388 . S
C25 C26 1.382 . S
C25 H50 0.950 . S
C26 N21 1.332 . S
C26 C25 1.382 . S
C26 H36 0.948 . S
N27 Co5 2.282 . S
N27 C31 1.332 . S
N27 C32 1.332 . S
C28 C29 1.388 . S
C28 C32 1.382 . S
C28 H51 0.950 . S
C29 C28 1.388 . S
C29 C30 1.386 . S
C30 C29 1.386 . S
C30 C31 1.382 . S
C30 H52 0.950 . S
C31 N27 1.332 . S
C31 C30 1.382 . S
C31 H33 0.952 . S
C32 N27 1.332 . S
C32 C28 1.382 . S
C32 H34 0.948 . S
H33 C31 0.952 . S
H34 C32 0.948 . S
H35 C24 0.952 . S
H36 C26 0.948 . S
C37 C3 1.395 . S
C37 C7 1.391 . S
C38 C0 1.389 . S
C38 C20 1.392 . S
C39 C10 1.392 . S
C39 C12 1.389 . S
C40 C15 1.395 1_655 S
C40 C17 1.391 . S
H41 C1 0.951 . S
H42 C2 0.950 . S
H43 C8 0.949 . S
H44 C9 0.950 . S
H45 C13 0.951 . S
H46 C14 0.950 . S
H47 C18 0.949 . S
H48 C19 0.950 . S
H49 C23 0.950 . S
H50 C25 0.950 . S
H51 C28 0.950 . S
H52 C30 0.950 . S
C53 C54 1.443 . S
C53 N57 1.376 . S
C53 C91 1.389 . S
C54 C53 1.443 . S
C54 C55 1.340 . S
C54 H94 0.951 . S
C55 C54 1.340 . S
C55 C56 1.439 . S
C55 H95 0.950 . S
C56 C55 1.439 . S
C56 N57 1.374 . S
C56 C90 1.395 . S
N57 C53 1.376 . S
N57 C56 1.374 . S
N57 Co58 2.008 . S
Co58 N57 2.008 . S
Co58 N59 1.995 . S
Co58 N64 2.008 . S
Co58 N69 1.995 . S
Co58 N74 2.282 . S
Co58 N80 2.282 . S
N59 Co58 1.995 . S
N59 C60 1.376 . S
N59 C63 1.383 . S
C60 N59 1.376 . S
C60 C61 1.446 . S
C60 C90 1.391 . S
C61 C60 1.446 . S
C61 C62 1.339 . S
C61 H96 0.949 . S
C62 C61 1.339 . S
C62 C63 1.439 . S
C62 H97 0.950 . S
C63 N59 1.383 . S
C63 C62 1.439 . S
C63 C92 1.392 . S
N64 Co58 2.008 . S
N64 C65 1.376 . S
N64 C68 1.374 . S
C65 N64 1.376 . S
C65 C66 1.443 . S
C65 C92 1.389 . S
C66 C65 1.443 . S
C66 C67 1.340 . S
C66 H98 0.951 . S
C67 C66 1.340 . S
C67 C68 1.439 . S
C67 H99 0.950 . S
C68 N64 1.374 . S
C68 C67 1.439 . S
C68 C93 1.395 . S
N69 Co58 1.995 . S
N69 C70 1.376 . S
N69 C73 1.383 . S
C70 N69 1.376 . S
C70 C71 1.446 . S
C70 C93 1.391 . S
C71 C70 1.446 . S
C71 C72 1.339 . S
C71 H100 0.949 . S
C72 C71 1.339 . S
C72 C73 1.439 . S
C72 H101 0.950 . S
C73 N69 1.383 . S
C73 C72 1.439 . S
C73 C91 1.392 . S
N74 Co58 2.282 . S
N74 C77 1.332 . S
N74 C79 1.332 . S
C75 C76 1.386 . S
C75 C78 1.388 . S
C76 C75 1.386 . S
C76 C77 1.382 . S
C76 H102 0.950 . S
C77 N74 1.332 . S
C77 C76 1.382 . S
C77 H88 0.952 . S
C78 C75 1.388 . S
C78 C79 1.382 . S
C78 H103 0.950 . S
C79 N74 1.332 . S
C79 C78 1.382 . S
C79 H89 0.948 . S
N80 Co58 2.282 . S
N80 C84 1.332 . S
N80 C85 1.332 . S
C81 C82 1.388 . S
C81 C85 1.382 . S
C81 H104 0.950 . S
C82 C81 1.388 . S
C82 C83 1.386 . S
C83 C82 1.386 . S
C83 C84 1.382 . S
C83 H105 0.950 . S
C84 N80 1.332 . S
C84 C83 1.382 . S
C84 H86 0.952 . S
C85 N80 1.332 . S
C85 C81 1.382 . S
C85 H87 0.948 . S
H86 C84 0.952 . S
H87 C85 0.948 . S
H88 C77 0.952 . S
H89 C79 0.948 . S
C90 C56 1.395 . S
C90 C60 1.391 . S
C91 C53 1.389 . S
C91 C73 1.392 . S
C92 C63 1.392 . S
C92 C65 1.389 . S
C93 C68 1.395 . S
C93 C70 1.391 . S
H94 C54 0.951 . S
H95 C55 0.950 . S
H96 C61 0.949 . S
H97 C62 0.950 . S
H98 C66 0.951 . S
H99 C67 0.950 . S
H100 C71 0.949 . S
H101 C72 0.950 . S
H102 C76 0.950 . S
H103 C78 0.950 . S
H104 C81 0.950 . S
H105 C83 0.950 . S
C106 C107 1.443 . S
C106 N110 1.375 1_565 S
C106 C144 1.389 . S
C107 C106 1.443 . S
C107 C108 1.340 1_565 S
C107 H147 0.951 . S
C108 C107 1.340 1_545 S
C108 C109 1.439 . S
C108 H148 0.950 . S
C109 C108 1.439 . S
C109 N110 1.362 . S
C109 C143 1.395 . S
N110 C106 1.375 1_545 S
N110 C109 1.362 . S
N110 Co111 2.023 . S
Co111 N110 2.023 . S
Co111 N112 1.995 . S
Co111 N117 2.008 . S
Co111 N122 1.995 1_545 S
Co111 N127 2.282 1_545 S
Co111 N133 2.282 . S
N112 Co111 1.995 . S
N112 C113 1.376 . S
N112 C116 1.383 . S
C113 N112 1.376 . S
C113 C114 1.446 . S
C113 C143 1.391 . S
C114 C113 1.446 . S
C114 C115 1.339 . S
C114 H149 0.949 . S
C115 C114 1.339 . S
C115 C116 1.439 . S
C115 H150 0.950 . S
C116 N112 1.383 . S
C116 C115 1.439 . S
C116 C145 1.392 . S
N117 Co111 2.008 . S
N117 C118 1.376 . S
N117 C121 1.374 . S
C118 N117 1.376 . S
C118 C119 1.443 . S
C118 C145 1.389 . S
C119 C118 1.443 . S
C119 C120 1.340 . S
C119 H151 0.951 . S
C120 C119 1.340 . S
C120 C121 1.439 . S
C120 H152 0.950 . S
C121 N117 1.374 . S
C121 C120 1.439 . S
C121 C146 1.395 1_545 S
N122 Co111 1.995 1_565 S
N122 C123 1.376 . S
N122 C126 1.383 . S
C123 N122 1.376 . S
C123 C124 1.446 . S
C123 C146 1.391 . S
C124 C123 1.446 . S
C124 C125 1.339 . S
C124 H153 0.949 . S
C125 C124 1.339 . S
C125 C126 1.439 . S
C125 H154 0.950 . S
C126 N122 1.383 . S
C126 C125 1.439 . S
C126 C144 1.392 . S
N127 Co111 2.282 1_565 S
N127 C130 1.332 . S
N127 C132 1.332 . S
C128 C129 1.386 . S
C128 C131 1.388 . S
C129 C128 1.386 . S
C129 C130 1.382 . S
C129 H155 0.950 . S
C130 N127 1.332 . S
C130 C129 1.382 . S
C130 H141 0.952 . S
C131 C128 1.388 . S
C131 C132 1.382 . S
C131 H156 0.950 . S
C132 N127 1.332 . S
C132 C131 1.382 . S
C132 H142 0.948 . S
N133 Co111 2.282 . S
N133 C137 1.332 . S
N133 C138 1.332 . S
C134 C135 1.388 . S
C134 C138 1.382 . S
C134 H157 0.950 . S
C135 C134 1.388 . S
C135 C136 1.386 . S
C136 C135 1.386 . S
C136 C137 1.382 . S
C136 H158 0.950 . S
C137 N133 1.332 . S
C137 C136 1.382 . S
C137 H139 0.952 . S
C138 N133 1.332 . S
C138 C134 1.382 . S
C138 H140 0.948 . S
H139 C137 0.952 . S
H140 C138 0.948 . S
H141 C130 0.952 . S
H142 C132 0.948 . S
C143 C109 1.395 . S
C143 C113 1.391 . S
C144 C106 1.389 . S
C144 C126 1.392 . S
C145 C116 1.392 . S
C145 C118 1.389 . S
C146 C121 1.395 1_565 S
C146 C123 1.391 . S
H147 C107 0.951 . S
H148 C108 0.950 . S
H149 C114 0.949 . S
H150 C115 0.950 . S
H151 C119 0.951 . S
H152 C120 0.950 . S
H153 C124 0.949 . S
H154 C125 0.950 . S
H155 C129 0.950 . S
H156 C131 0.950 . S
H157 C134 0.950 . S
H158 C136 0.950 . S
C159 C160 1.443 . S
C159 N163 1.376 . S
C159 C197 1.389 . S
C160 C159 1.443 . S
C160 C161 1.340 . S
C160 H200 0.951 . S
C161 C160 1.340 . S
C161 C162 1.439 . S
C161 H201 0.950 . S
C162 C161 1.439 . S
C162 N163 1.374 . S
C162 C196 1.395 1_655 S
N163 C159 1.376 . S
N163 C162 1.374 . S
N163 Co164 2.008 1_655 S
Co164 N163 2.008 1_455 S
Co164 N165 1.995 . S
Co164 N170 2.008 . S
Co164 N175 1.995 1_455 S
Co164 N180 2.282 1_455 S
Co164 N186 2.282 . S
N165 Co164 1.995 . S
N165 C166 1.376 . S
N165 C169 1.383 . S
C166 N165 1.376 . S
C166 C167 1.446 . S
C166 C196 1.391 . S
C167 C166 1.446 . S
C167 C168 1.339 . S
C167 H202 0.949 . S
C168 C167 1.339 . S
C168 C169 1.439 . S
C168 H203 0.950 . S
C169 N165 1.383 . S
C169 C168 1.439 . S
C169 C198 1.392 . S
N170 Co164 2.008 . S
N170 C171 1.376 . S
N170 C174 1.374 . S
C171 N170 1.376 . S
C171 C172 1.443 . S
C171 C198 1.389 . S
C172 C171 1.443 . S
C172 C173 1.340 . S
C172 H204 0.951 . S
C173 C172 1.340 . S
C173 C174 1.439 . S
C173 H205 0.950 . S
C174 N170 1.374 . S
C174 C173 1.439 . S
C174 C199 1.395 . S
N175 Co164 1.995 1_655 S
N175 C176 1.376 . S
N175 C179 1.383 . S
C176 N175 1.376 . S
C176 C177 1.446 . S
C176 C199 1.391 1_655 S
C177 C176 1.446 . S
C177 C178 1.339 . S
C177 H206 0.949 . S
C178 C177 1.339 . S
C178 C179 1.439 . S
C178 H207 0.950 . S
C179 N175 1.383 . S
C179 C178 1.439 . S
C179 C197 1.392 . S
N180 Co164 2.282 1_655 S
N180 C183 1.332 . S
N180 C185 1.332 . S
C181 C182 1.386 . S
C181 C184 1.388 . S
C182 C181 1.386 . S
C182 C183 1.382 . S
C182 H208 0.950 . S
C183 N180 1.332 . S
C183 C182 1.382 . S
C183 H194 0.952 . S
C184 C181 1.388 . S
C184 C185 1.382 . S
C184 H209 0.950 . S
C185 N180 1.332 . S
C185 C184 1.382 . S
C185 H195 0.934 1_655 S
N186 Co164 2.282 . S
N186 C190 1.332 . S
N186 C191 1.332 . S
C187 C188 1.388 . S
C187 C191 1.382 . S
C187 H210 0.950 . S
C188 C187 1.388 . S
C188 C189 1.386 . S
C189 C188 1.386 . S
C189 C190 1.382 . S
C189 H211 0.950 . S
C190 N186 1.332 . S
C190 C189 1.382 . S
C190 H192 0.952 . S
C191 N186 1.332 . S
C191 C187 1.382 . S
C191 H193 0.948 . S
H192 C190 0.952 . S
H193 C191 0.948 . S
H194 C183 0.952 . S
H195 C185 0.934 1_455 S
C196 C162 1.395 1_455 S
C196 C166 1.391 . S
C197 C159 1.389 . S
C197 C179 1.392 . S
C198 C169 1.392 . S
C198 C171 1.389 . S
C199 C174 1.395 . S
C199 C176 1.391 1_455 S
H200 C160 0.951 . S
H201 C161 0.950 . S
H202 C167 0.949 . S
H203 C168 0.950 . S
H204 C172 0.951 . S
H205 C173 0.950 . S
H206 C177 0.949 . S
H207 C178 0.950 . S
H208 C182 0.950 . S
H209 C184 0.950 . S
H210 C187 0.950 . S
H211 C189 0.950 . S
C212 C213 1.443 . S
C212 N216 1.376 . S
C212 C250 1.389 . S
C213 C212 1.443 . S
C213 C214 1.340 . S
C213 H253 0.951 . S
C214 C213 1.340 . S
C214 C215 1.439 . S
C214 H254 0.950 . S
C215 C214 1.439 . S
C215 N216 1.374 . S
C215 C249 1.395 . S
N216 C212 1.376 . S
N216 C215 1.374 . S
N216 Co217 2.008 . S
Co217 N216 2.008 . S
Co217 N218 1.995 . S
Co217 N223 2.008 . S
Co217 N228 1.995 . S
Co217 N233 2.282 . S
Co217 N239 2.282 . S
N218 Co217 1.995 . S
N218 C219 1.376 . S
N218 C222 1.383 . S
C219 N218 1.376 . S
C219 C220 1.446 . S
C219 C249 1.391 . S
C220 C219 1.446 . S
C220 C221 1.339 . S
C220 H255 0.949 . S
C221 C220 1.339 . S
C221 C222 1.439 . S
C221 H256 0.950 . S
C222 N218 1.383 . S
C222 C221 1.439 . S
C222 C251 1.392 . S
N223 Co217 2.008 . S
N223 C224 1.376 . S
N223 C227 1.374 . S
C224 N223 1.376 . S
C224 C225 1.443 . S
C224 C251 1.389 . S
C225 C224 1.443 . S
C225 C226 1.340 . S
C225 H257 0.951 . S
C226 C225 1.340 . S
C226 C227 1.439 . S
C226 H258 0.950 . S
C227 N223 1.374 . S
C227 C226 1.439 . S
C227 C252 1.395 . S
N228 Co217 1.995 . S
N228 C229 1.376 . S
N228 C232 1.383 . S
C229 N228 1.376 . S
C229 C230 1.446 . S
C229 C252 1.391 . S
C230 C229 1.446 . S
C230 C231 1.339 . S
C230 H259 0.949 . S
C231 C230 1.339 . S
C231 C232 1.439 . S
C231 H260 0.950 . S
C232 N228 1.383 . S
C232 C231 1.439 . S
C232 C250 1.392 . S
N233 Co217 2.282 . S
N233 C236 1.332 . S
N233 C238 1.332 . S
C234 C235 1.386 . S
C234 C237 1.388 . S
C235 C234 1.386 . S
C235 C236 1.382 . S
C235 H261 0.950 . S
C236 N233 1.332 . S
C236 C235 1.382 . S
C236 H247 0.952 . S
C237 C234 1.388 . S
C237 C238 1.382 . S
C237 H262 0.950 . S
C238 N233 1.332 . S
C238 C237 1.382 . S
C238 H248 0.948 . S
N239 Co217 2.282 . S
N239 C243 1.332 . S
N239 C244 1.332 . S
C240 C241 1.388 . S
C240 C244 1.382 . S
C240 H263 0.950 . S
C241 C240 1.388 . S
C241 C242 1.386 . S
C242 C241 1.386 . S
C242 C243 1.382 . S
C242 H264 0.950 . S
C243 N239 1.332 . S
C243 C242 1.382 . S
C243 H245 0.952 . S
C244 N239 1.332 . S
C244 C240 1.382 . S
C244 H246 0.948 . S
H245 C243 0.952 . S
H246 C244 0.948 . S
H247 C236 0.952 . S
H248 C238 0.948 . S
C249 C215 1.395 . S
C249 C219 1.391 . S
C250 C212 1.389 . S
C250 C232 1.392 . S
C251 C222 1.392 . S
C251 C224 1.389 . S
C252 C227 1.395 . S
C252 C229 1.391 . S
H253 C213 0.951 . S
H254 C214 0.950 . S
H255 C220 0.949 . S
H256 C221 0.950 . S
H257 C225 0.951 . S
H258 C226 0.950 . S
H259 C230 0.949 . S
H260 C231 0.950 . S
H261 C235 0.950 . S
H262 C237 0.950 . S
H263 C240 0.950 . S
H264 C242 0.950 . S
C265 C266 1.443 . S
C265 N269 1.376 . S
C265 C303 1.389 . S
C266 C265 1.443 . S
C266 C267 1.340 . S
C266 H306 0.951 . S
C267 C266 1.340 . S
C267 C268 1.439 . S
C267 H307 0.950 . S
C268 C267 1.439 . S
C268 N269 1.374 . S
C268 C302 1.395 1_565 S
N269 C265 1.376 . S
N269 C268 1.374 . S
N269 Co270 2.008 1_565 S
Co270 N269 2.008 1_545 S
Co270 N271 1.995 . S
Co270 N276 2.008 . S
Co270 N281 1.995 1_545 S
Co270 N286 2.282 1_545 S
Co270 N292 2.282 . S
N271 Co270 1.995 . S
N271 C272 1.376 . S
N271 C275 1.383 . S
C272 N271 1.376 . S
C272 C273 1.446 . S
C272 C302 1.391 . S
C273 C272 1.446 . S
C273 C274 1.339 . S
C273 H308 0.949 . S
C274 C273 1.339 . S
C274 C275 1.439 . S
C274 H309 0.950 . S
C275 N271 1.383 . S
C275 C274 1.439 . S
C275 C304 1.392 . S
N276 Co270 2.008 . S
N276 C277 1.376 . S
N276 C280 1.374 . S
C277 N276 1.376 . S
C277 C278 1.443 . S
C277 C304 1.389 . S
C278 C277 1.443 . S
C278 C279 1.340 . S
C278 H310 0.951 . S
C279 C278 1.340 . S
C279 C280 1.439 . S
C279 H311 0.950 . S
C280 N276 1.374 . S
C280 C279 1.439 . S
C280 C305 1.395 . S
N281 Co270 1.995 1_565 S
N281 C282 1.376 . S
N281 C285 1.383 . S
C282 N281 1.376 . S
C282 C283 1.446 . S
C282 C305 1.391 1_565 S
C283 C282 1.446 . S
C283 C284 1.339 . S
C283 H312 0.949 . S
C284 C283 1.339 . S
C284 C285 1.439 . S
C284 H313 0.950 . S
C285 N281 1.383 . S
C285 C284 1.439 . S
C285 C303 1.392 . S
N286 Co270 2.282 1_565 S
N286 C289 1.332 . S
N286 C291 1.332 . S
C287 C288 1.386 . S
C287 C290 1.388 . S
C288 C287 1.386 . S
C288 C289 1.382 . S
C288 H314 0.950 . S
C289 N286 1.332 . S
C289 C288 1.382 . S
C289 H300 0.952 . S
C290 C287 1.388 . S
C290 C291 1.382 . S
C290 H315 0.950 . S
C291 N286 1.332 . S
C291 C290 1.382 . S
C291 H301 0.934 1_565 S
N292 Co270 2.282 . S
N292 C296 1.332 . S
N292 C297 1.332 . S
C293 C294 1.388 . S
C293 C297 1.382 . S
C293 H316 0.950 . S
C294 C293 1.388 . S
C294 C295 1.386 . S
C295 C294 1.386 . S
C295 C296 1.382 . S
C295 H317 0.950 . S
C296 N292 1.332 . S
C296 C295 1.382 . S
C296 H298 0.952 . S
C297 N292 1.332 . S
C297 C293 1.382 . S
C297 H299 0.948 . S
H298 C296 0.952 . S
H299 C297 0.948 . S
H300 C289 0.952 . S
H301 C291 0.934 1_545 S
C302 C268 1.395 1_545 S
C302 C272 1.391 . S
C303 C265 1.389 . S
C303 C285 1.392 . S
C304 C275 1.392 . S
C304 C277 1.389 . S
C305 C280 1.395 . S
C305 C282 1.391 1_545 S
H306 C266 0.951 . S
H307 C267 0.950 . S
H308 C273 0.949 . S
H309 C274 0.950 . S
H310 C278 0.951 . S
H311 C279 0.950 . S
H312 C283 0.949 . S
H313 C284 0.950 . S
H314 C288 0.950 . S
H315 C290 0.950 . S
H316 C293 0.950 . S
H317 C295 0.950 . S
C318 C319 1.443 . S
C318 N322 1.376 . S
C318 C356 1.389 . S
C319 C318 1.443 . S
C319 C320 1.340 . S
C319 H359 0.951 . S
C320 C319 1.340 . S
C320 C321 1.439 . S
C320 H360 0.950 . S
C321 C320 1.439 . S
C321 N322 1.374 . S
C321 C355 1.395 . S
N322 C318 1.376 . S
N322 C321 1.374 . S
N322 Co323 2.008 . S
Co323 N322 2.008 . S
Co323 N324 1.995 . S
Co323 N329 2.008 . S
Co323 N334 1.995 . S
Co323 N339 2.282 . S
Co323 N345 2.282 . S
N324 Co323 1.995 . S
N324 C325 1.376 . S
N324 C328 1.383 . S
C325 N324 1.376 . S
C325 C326 1.446 . S
C325 C355 1.391 . S
C326 C325 1.446 . S
C326 C327 1.339 . S
C326 H361 0.949 . S
C327 C326 1.339 . S
C327 C328 1.439 . S
C327 H362 0.950 . S
C328 N324 1.383 . S
C328 C327 1.439 . S
C328 C357 1.392 . S
N329 Co323 2.008 . S
N329 C330 1.376 . S
N329 C333 1.374 1_545 S
C330 N329 1.376 . S
C330 C331 1.443 . S
C330 C357 1.389 . S
C331 C330 1.443 . S
C331 C332 1.340 1_545 S
C331 H363 0.951 . S
C332 C331 1.340 1_565 S
C332 C333 1.439 . S
C332 H364 0.950 . S
C333 N329 1.374 1_565 S
C333 C332 1.439 . S
C333 C358 1.395 . S
N334 Co323 1.995 . S
N334 C335 1.376 1_545 S
N334 C338 1.383 . S
C335 N334 1.376 1_565 S
C335 C336 1.446 . S
C335 C358 1.391 . S
C336 C335 1.446 . S
C336 C337 1.339 . S
C336 H365 0.949 . S
C337 C336 1.339 . S
C337 C338 1.439 1_565 S
C337 H366 0.950 . S
C338 N334 1.383 . S
C338 C337 1.439 1_545 S
C338 C356 1.392 . S
N339 Co323 2.282 . S
N339 C342 1.332 1_545 S
N339 C344 1.332 . S
C340 C341 1.386 . S
C340 C343 1.388 1_565 S
C341 C340 1.386 . S
C341 C342 1.382 . S
C341 H367 0.950 . S
C342 N339 1.332 1_565 S
C342 C341 1.382 . S
C342 H353 0.952 . S
C343 C340 1.388 1_545 S
C343 C344 1.382 . S
C343 H368 0.950 . S
C344 N339 1.332 . S
C344 C343 1.382 . S
C344 H354 0.948 . S
N345 Co323 2.282 . S
N345 C349 1.332 . S
N345 C350 1.332 . S
C346 C347 1.388 . S
C346 C350 1.382 . S
C346 H369 0.950 . S
C347 C346 1.388 . S
C347 C348 1.386 . S
C348 C347 1.386 . S
C348 C349 1.382 . S
C348 H370 0.950 . S
C349 N345 1.332 . S
C349 C348 1.382 . S
C349 H351 0.952 . S
C350 N345 1.332 . S
C350 C346 1.382 . S
C350 H352 0.948 . S
H351 C349 0.952 . S
H352 C350 0.948 . S
H353 C342 0.952 . S
H354 C344 0.948 . S
C355 C321 1.395 . S
C355 C325 1.391 . S
C356 C318 1.389 . S
C356 C338 1.392 . S
C357 C328 1.392 . S
C357 C330 1.389 . S
C358 C333 1.395 . S
C358 C335 1.391 . S
H359 C319 0.951 . S
H360 C320 0.950 . S
H361 C326 0.949 . S
H362 C327 0.950 . S
H363 C331 0.951 . S
H364 C332 0.950 . S
H365 C336 0.949 . S
H366 C337 0.950 . S
H367 C341 0.950 . S
H368 C343 0.950 . S
H369 C346 0.950 . S
H370 C348 0.950 . S
C371 C372 1.443 . S
C371 N375 1.376 . S
C371 C409 1.389 . S
C372 C371 1.443 . S
C372 C373 1.340 . S
C372 H412 0.951 . S
C373 C372 1.340 . S
C373 C374 1.439 . S
C373 H413 0.950 . S
C374 C373 1.439 . S
C374 N375 1.374 . S
C374 C408 1.395 . S
N375 C371 1.376 . S
N375 C374 1.374 . S
N375 Co376 2.008 . S
Co376 N375 2.008 . S
Co376 N377 1.995 . S
Co376 N382 2.008 . S
Co376 N387 1.995 . S
Co376 N392 2.282 . S
Co376 N398 2.282 . S
N377 Co376 1.995 . S
N377 C378 1.376 . S
N377 C381 1.383 . S
C378 N377 1.376 . S
C378 C379 1.446 . S
C378 C408 1.391 . S
C379 C378 1.446 . S
C379 C380 1.339 . S
C379 H414 0.949 . S
C380 C379 1.339 . S
C380 C381 1.439 . S
C380 H415 0.950 . S
C381 N377 1.383 . S
C381 C380 1.439 . S
C381 C410 1.392 . S
N382 Co376 2.008 . S
N382 C383 1.376 . S
N382 C386 1.374 1_655 S
C383 N382 1.376 . S
C383 C384 1.443 1_655 S
C383 C410 1.389 . S
C384 C383 1.443 1_455 S
C384 C385 1.340 . S
C384 H416 0.951 . S
C385 C384 1.340 . S
C385 C386 1.439 . S
C385 H417 0.950 . S
C386 N382 1.374 1_455 S
C386 C385 1.439 . S
C386 C411 1.395 . S
N387 Co376 1.995 . S
N387 C388 1.376 1_655 S
N387 C391 1.383 . S
C388 N387 1.376 1_455 S
C388 C389 1.446 . S
C388 C411 1.391 . S
C389 C388 1.446 . S
C389 C390 1.339 . S
C389 H418 0.949 . S
C390 C389 1.339 . S
C390 C391 1.439 1_455 S
C390 H419 0.950 . S
C391 N387 1.383 . S
C391 C390 1.439 1_655 S
C391 C409 1.392 . S
N392 Co376 2.282 . S
N392 C395 1.332 . S
N392 C397 1.332 . S
C393 C394 1.386 . S
C393 C396 1.388 . S
C394 C393 1.386 . S
C394 C395 1.382 . S
C394 H420 0.950 . S
C395 N392 1.332 . S
C395 C394 1.382 . S
C395 H406 0.952 . S
C396 C393 1.388 . S
C396 C397 1.382 . S
C396 H421 0.950 . S
C397 N392 1.332 . S
C397 C396 1.382 . S
C397 H407 0.948 . S
N398 Co376 2.282 . S
N398 C402 1.332 . S
N398 C403 1.332 1_655 S
C399 C400 1.388 . S
C399 C403 1.382 . S
C399 H422 0.950 . S
C400 C399 1.388 . S
C400 C401 1.386 1_455 S
C401 C400 1.386 1_655 S
C401 C402 1.382 . S
C401 H423 0.950 . S
C402 N398 1.332 . S
C402 C401 1.382 . S
C402 H404 0.952 . S
C403 N398 1.332 1_455 S
C403 C399 1.382 . S
C403 H405 0.948 . S
H404 C402 0.952 . S
H405 C403 0.948 . S
H406 C395 0.952 . S
H407 C397 0.948 . S
C408 C374 1.395 . S
C408 C378 1.391 . S
C409 C371 1.389 . S
C409 C391 1.392 . S
C410 C381 1.392 . S
C410 C383 1.389 . S
C411 C386 1.395 . S
C411 C388 1.391 . S
H412 C372 0.951 . S
H413 C373 0.950 . S
H414 C379 0.949 . S
H415 C380 0.950 . S
H416 C384 0.951 . S
H417 C385 0.950 . S
H418 C389 0.949 . S
H419 C390 0.950 . S
H420 C394 0.950 . S
H421 C396 0.950 . S
H422 C399 0.950 . S
H423 C401 0.950 . S
C424 C425 1.443 . S
C424 N428 1.376 . S
C424 C462 1.389 . S
C425 C424 1.443 . S
C425 C426 1.340 . S
C425 H465 0.951 . S
C426 C425 1.340 . S
C426 C427 1.439 . S
C426 H466 0.950 . S
C427 C426 1.439 . S
C427 N428 1.374 . S
C427 C461 1.395 . S
N428 C424 1.376 . S
N428 C427 1.374 . S
N428 Co429 2.008 . S
Co429 N428 2.008 . S
Co429 N430 1.995 . S
Co429 N435 2.008 . S
Co429 N440 1.995 . S
Co429 N445 2.282 . S
Co429 N451 2.282 . S
N430 Co429 1.995 . S
N430 C431 1.376 . S
N430 C434 1.383 . S
C431 N430 1.376 . S
C431 C432 1.446 . S
C431 C461 1.391 . S
C432 C431 1.446 . S
C432 C433 1.339 . S
C432 H467 0.949 . S
C433 C432 1.339 . S
C433 C434 1.439 . S
C433 H468 0.950 . S
C434 N430 1.383 . S
C434 C433 1.439 . S
C434 C463 1.392 . S
N435 Co429 2.008 . S
N435 C436 1.376 . S
N435 C439 1.374 . S
C436 N435 1.376 . S
C436 C437 1.443 . S
C436 C463 1.389 . S
C437 C436 1.443 . S
C437 C438 1.340 . S
C437 H469 0.951 . S
C438 C437 1.340 . S
C438 C439 1.439 . S
C438 H470 0.950 . S
C439 N435 1.374 . S
C439 C438 1.439 . S
C439 C464 1.395 . S
N440 Co429 1.995 . S
N440 C441 1.376 . S
N440 C444 1.383 . S
C441 N440 1.376 . S
C441 C442 1.446 . S
C441 C464 1.391 . S
C442 C441 1.446 . S
C442 C443 1.339 . S
C442 H471 0.949 . S
C443 C442 1.339 . S
C443 C444 1.439 . S
C443 H472 0.950 . S
C444 N440 1.383 . S
C444 C443 1.439 . S
C444 C462 1.392 . S
N445 Co429 2.282 . S
N445 C448 1.332 . S
N445 C450 1.332 . S
C446 C447 1.386 . S
C446 C449 1.388 . S
C447 C446 1.386 . S
C447 C448 1.382 . S
C447 H473 0.950 . S
C448 N445 1.332 . S
C448 C447 1.382 . S
C448 H459 0.952 . S
C449 C446 1.388 . S
C449 C450 1.382 . S
C449 H474 0.950 . S
C450 N445 1.332 . S
C450 C449 1.382 . S
C450 H460 0.948 . S
N451 Co429 2.282 . S
N451 C455 1.332 . S
N451 C456 1.332 . S
C452 C453 1.388 . S
C452 C456 1.382 . S
C452 H475 0.950 . S
C453 C452 1.388 . S
C453 C454 1.386 . S
C454 C453 1.386 . S
C454 C455 1.382 . S
C454 H476 0.950 . S
C455 N451 1.332 . S
C455 C454 1.382 . S
C455 H457 0.952 . S
C456 N451 1.332 . S
C456 C452 1.382 . S
C456 H458 0.948 . S
H457 C455 0.952 . S
H458 C456 0.948 . S
H459 C448 0.952 . S
H460 C450 0.948 . S
C461 C427 1.395 . S
C461 C431 1.391 . S
C462 C424 1.389 . S
C462 C444 1.392 . S
C463 C434 1.392 . S
C463 C436 1.389 . S
C464 C439 1.395 . S
C464 C441 1.391 . S
H465 C425 0.951 . S
H466 C426 0.950 . S
H467 C432 0.949 . S
H468 C433 0.950 . S
H469 C437 0.951 . S
H470 C438 0.950 . S
H471 C442 0.949 . S
H472 C443 0.950 . S
H473 C447 0.950 . S
H474 C449 0.950 . S
H475 C452 0.950 . S
H476 C454 0.950 . S
C477 C478 1.443 . S
C477 N481 1.376 . S
C477 C515 1.389 . S
C478 C477 1.443 . S
C478 C479 1.340 . S
C478 H518 0.951 . S
C479 C478 1.340 . S
C479 C480 1.439 . S
C479 H519 0.950 . S
C480 C479 1.439 . S
C480 N481 1.374 . S
C480 C514 1.395 . S
N481 C477 1.376 . S
N481 C480 1.374 . S
N481 Co482 2.008 . S
Co482 N481 2.008 . S
Co482 N483 1.995 . S
Co482 N488 2.008 . S
Co482 N493 1.995 . S
Co482 N498 2.282 . S
Co482 N504 2.282 . S
N483 Co482 1.995 . S
N483 C484 1.376 . S
N483 C487 1.383 . S
C484 N483 1.376 . S
C484 C485 1.446 . S
C484 C514 1.391 . S
C485 C484 1.446 . S
C485 C486 1.339 . S
C485 H520 0.949 . S
C486 C485 1.339 . S
C486 C487 1.439 . S
C486 H521 0.950 . S
C487 N483 1.383 . S
C487 C486 1.439 . S
C487 C516 1.392 . S
N488 Co482 2.008 . S
N488 C489 1.376 . S
N488 C492 1.374 . S
C489 N488 1.376 . S
C489 C490 1.443 . S
C489 C516 1.389 . S
C490 C489 1.443 . S
C490 C491 1.340 . S
C490 H522 0.951 . S
C491 C490 1.340 . S
C491 C492 1.439 . S
C491 H523 0.950 . S
C492 N488 1.374 . S
C492 C491 1.439 . S
C492 C517 1.395 . S
N493 Co482 1.995 . S
N493 C494 1.376 . S
N493 C497 1.383 . S
C494 N493 1.376 . S
C494 C495 1.446 . S
C494 C517 1.391 . S
C495 C494 1.446 . S
C495 C496 1.339 . S
C495 H524 0.949 . S
C496 C495 1.339 . S
C496 C497 1.439 . S
C496 H525 0.950 . S
C497 N493 1.383 . S
C497 C496 1.439 . S
C497 C515 1.392 . S
N498 Co482 2.282 . S
N498 C501 1.332 . S
N498 C503 1.332 . S
C499 C500 1.386 . S
C499 C502 1.388 . S
C500 C499 1.386 . S
C500 C501 1.382 1_556 S
C500 H526 0.950 . S
C501 N498 1.332 . S
C501 C500 1.382 1_554 S
C501 H512 0.952 . S
C502 C499 1.388 . S
C502 C503 1.382 1_556 S
C502 H527 0.950 . S
C503 N498 1.332 . S
C503 C502 1.382 1_554 S
C503 H513 0.948 . S
N504 Co482 2.282 . S
N504 C508 1.332 . S
N504 C509 1.332 . S
C505 C506 1.388 . S
C505 C509 1.382 . S
C505 H528 0.950 . S
C506 C505 1.388 . S
C506 C507 1.386 . S
C507 C506 1.386 . S
C507 C508 1.382 . S
C507 H529 0.950 . S
C508 N504 1.332 . S
C508 C507 1.382 . S
C508 H510 0.952 . S
C509 N504 1.332 . S
C509 C505 1.382 . S
C509 H511 0.948 . S
H510 C508 0.952 . S
H511 C509 0.948 . S
H512 C501 0.952 . S
H513 C503 0.948 . S
C514 C480 1.395 . S
C514 C484 1.391 . S
C515 C477 1.389 . S
C515 C497 1.392 . S
C516 C487 1.392 . S
C516 C489 1.389 . S
C517 C492 1.395 . S
C517 C494 1.391 . S
H518 C478 0.951 . S
H519 C479 0.950 . S
H520 C485 0.949 . S
H521 C486 0.950 . S
H522 C490 0.951 . S
H523 C491 0.950 . S
H524 C495 0.949 . S
H525 C496 0.950 . S
H526 C500 0.950 . S
H527 C502 0.950 . S
H528 C505 0.950 . S
H529 C507 0.950 . S
C530 C531 1.443 . S
C530 N534 1.376 . S
C530 C568 1.389 . S
C531 C530 1.443 . S
C531 C532 1.340 . S
C531 H571 0.951 . S
C532 C531 1.340 . S
C532 C533 1.439 . S
C532 H572 0.950 . S
C533 C532 1.439 . S
C533 N534 1.374 . S
C533 C567 1.395 . S
N534 C530 1.376 . S
N534 C533 1.374 . S
N534 Co535 2.008 . S
Co535 N534 2.008 . S
Co535 N536 1.995 . S
Co535 N541 2.008 . S
Co535 N546 1.995 . S
Co535 N551 2.282 . S
Co535 N557 2.282 . S
N536 Co535 1.995 . S
N536 C537 1.376 . S
N536 C540 1.383 . S
C537 N536 1.376 . S
C537 C538 1.446 . S
C537 C567 1.391 . S
C538 C537 1.446 . S
C538 C539 1.339 . S
C538 H573 0.949 . S
C539 C538 1.339 . S
C539 C540 1.439 . S
C539 H574 0.950 . S
C540 N536 1.383 . S
C540 C539 1.439 . S
C540 C569 1.392 . S
N541 Co535 2.008 . S
N541 C542 1.376 . S
N541 C545 1.374 . S
C542 N541 1.376 . S
C542 C543 1.443 1_545 S
C542 C569 1.389 . S
C543 C542 1.443 1_565 S
C543 C544 1.340 . S
C543 H575 0.951 . S
C544 C543 1.340 . S
C544 C545 1.439 1_565 S
C544 H576 0.950 . S
C545 N541 1.374 . S
C545 C544 1.439 1_545 S
C545 C570 1.395 . S
N546 Co535 1.995 . S
N546 C547 1.376 . S
N546 C550 1.383 . S
C547 N546 1.376 . S
C547 C548 1.446 . S
C547 C570 1.391 . S
C548 C547 1.446 . S
C548 C549 1.339 . S
C548 H577 0.949 . S
C549 C548 1.339 . S
C549 C550 1.439 . S
C549 H578 0.950 . S
C550 N546 1.383 . S
C550 C549 1.439 . S
C550 C568 1.392 . S
N551 Co535 2.282 . S
N551 C554 1.332 . S
N551 C556 1.332 . S
C552 C553 1.386 . S
C552 C555 1.388 . S
C553 C552 1.386 . S
C553 C554 1.382 1_556 S
C553 H579 0.950 . S
C554 N551 1.332 . S
C554 C553 1.382 1_554 S
C554 H565 0.952 . S
C555 C552 1.388 . S
C555 C556 1.382 1_556 S
C555 H580 0.950 . S
C556 N551 1.332 . S
C556 C555 1.382 1_554 S
C556 H566 0.948 . S
N557 Co535 2.282 . S
N557 C561 1.332 . S
N557 C562 1.332 . S
C558 C559 1.388 . S
C558 C562 1.382 . S
C558 H581 0.950 . S
C559 C558 1.388 . S
C559 C560 1.386 . S
C560 C559 1.386 . S
C560 C561 1.382 . S
C560 H582 0.950 . S
C561 N557 1.332 . S
C561 C560 1.382 . S
C561 H563 0.952 . S
C562 N557 1.332 . S
C562 C558 1.382 . S
C562 H564 0.948 . S
H563 C561 0.952 . S
H564 C562 0.948 . S
H565 C554 0.952 . S
H566 C556 0.948 . S
C567 C533 1.395 . S
C567 C537 1.391 . S
C568 C530 1.389 . S
C568 C550 1.392 . S
C569 C540 1.392 . S
C569 C542 1.389 . S
C570 C545 1.395 . S
C570 C547 1.391 . S
H571 C531 0.951 . S
H572 C532 0.950 . S
H573 C538 0.949 . S
H574 C539 0.950 . S
H575 C543 0.951 . S
H576 C544 0.950 . S
H577 C548 0.949 . S
H578 C549 0.950 . S
H579 C553 0.950 . S
H580 C555 0.950 . S
H581 C558 0.950 . S
H582 C560 0.950 . S
C583 C584 1.443 . S
C583 N587 1.376 . S
C583 C621 1.389 . S
C584 C583 1.443 . S
C584 C585 1.340 . S
C584 H624 0.951 . S
C585 C584 1.340 . S
C585 C586 1.439 . S
C585 H625 0.950 . S
C586 C585 1.439 . S
C586 N587 1.374 . S
C586 C620 1.395 . S
N587 C583 1.376 . S
N587 C586 1.374 . S
N587 Co588 2.008 . S
Co588 N587 2.008 . S
Co588 N589 1.995 . S
Co588 N594 2.008 . S
Co588 N599 1.995 . S
Co588 N604 2.282 . S
Co588 N610 2.282 . S
N589 Co588 1.995 . S
N589 C590 1.376 . S
N589 C593 1.383 . S
C590 N589 1.376 . S
C590 C591 1.446 . S
C590 C620 1.391 . S
C591 C590 1.446 . S
C591 C592 1.339 . S
C591 H626 0.949 . S
C592 C591 1.339 . S
C592 C593 1.439 . S
C592 H627 0.950 . S
C593 N589 1.383 . S
C593 C592 1.439 . S
C593 C622 1.392 . S
N594 Co588 2.008 . S
N594 C595 1.376 . S
N594 C598 1.374 1_655 S
C595 N594 1.376 . S
C595 C596 1.443 1_655 S
C595 C622 1.389 . S
C596 C595 1.443 1_455 S
C596 C597 1.340 . S
C596 H628 0.951 . S
C597 C596 1.340 . S
C597 C598 1.439 . S
C597 H629 0.950 . S
C598 N594 1.374 1_455 S
C598 C597 1.439 . S
C598 C623 1.395 . S
N599 Co588 1.995 . S
N599 C600 1.376 . S
N599 C603 1.383 . S
C600 N599 1.376 . S
C600 C601 1.446 . S
C600 C623 1.391 1_655 S
C601 C600 1.446 . S
C601 C602 1.339 . S
C601 H630 0.949 . S
C602 C601 1.339 . S
C602 C603 1.439 . S
C602 H631 0.950 . S
C603 N599 1.383 . S
C603 C602 1.439 . S
C603 C621 1.392 . S
N604 Co588 2.282 . S
N604 C607 1.332 . S
N604 C609 1.332 . S
C605 C606 1.386 . S
C605 C608 1.388 . S
C606 C605 1.386 . S
C606 C607 1.382 1_556 S
C606 H632 0.950 . S
C607 N604 1.332 . S
C607 C606 1.382 1_554 S
C607 H618 0.952 . S
C608 C605 1.388 . S
C608 C609 1.382 1_556 S
C608 H633 0.950 . S
C609 N604 1.332 . S
C609 C608 1.382 1_554 S
C609 H619 0.948 . S
N610 Co588 2.282 . S
N610 C614 1.332 . S
N610 C615 1.332 . S
C611 C612 1.388 . S
C611 C615 1.382 . S
C611 H634 0.950 . S
C612 C611 1.388 . S
C612 C613 1.386 . S
C613 C612 1.386 . S
C613 C614 1.382 . S
C613 H635 0.950 . S
C614 N610 1.332 . S
C614 C613 1.382 . S
C614 H616 0.952 . S
C615 N610 1.332 . S
C615 C611 1.382 . S
C615 H617 0.948 . S
H616 C614 0.952 . S
H617 C615 0.948 . S
H618 C607 0.952 . S
H619 C609 0.948 . S
C620 C586 1.395 . S
C620 C590 1.391 . S
C621 C583 1.389 . S
C621 C603 1.392 . S
C622 C593 1.392 . S
C622 C595 1.389 . S
C623 C598 1.395 . S
C623 C600 1.391 1_455 S
H624 C584 0.951 . S
H625 C585 0.950 . S
H626 C591 0.949 . S
H627 C592 0.950 . S
H628 C596 0.951 . S
H629 C597 0.950 . S
H630 C601 0.949 . S
H631 C602 0.950 . S
H632 C606 0.950 . S
H633 C608 0.950 . S
H634 C611 0.950 . S
H635 C613 0.950 . S
C636 C637 1.448 . S
C636 N640 1.376 . S
C636 C674 1.389 . S
C637 C636 1.448 . S
C637 C638 1.346 . S
C637 H677 0.942 1_556 S
C638 C637 1.346 . S
C638 C639 1.439 . S
C638 H678 0.950 . S
C639 C638 1.439 . S
C639 N640 1.374 . S
C639 C673 1.395 . S
N640 C636 1.376 . S
N640 C639 1.374 . S
N640 Co641 2.008 . S
Co641 N640 2.008 . S
Co641 N642 1.995 . S
Co641 N647 2.008 . S
Co641 N652 1.995 . S
Co641 N657 2.282 . S
Co641 N663 2.282 . S
N642 Co641 1.995 . S
N642 C643 1.376 . S
N642 C646 1.383 . S
C643 N642 1.376 . S
C643 C644 1.446 . S
C643 C673 1.391 . S
C644 C643 1.446 . S
C644 C645 1.339 . S
C644 H679 0.949 . S
C645 C644 1.339 . S
C645 C646 1.439 . S
C645 H680 0.950 . S
C646 N642 1.383 . S
C646 C645 1.439 . S
C646 C675 1.392 . S
N647 Co641 2.008 . S
N647 C648 1.376 . S
N647 C651 1.374 . S
C648 N647 1.376 . S
C648 C649 1.443 . S
C648 C675 1.389 . S
C649 C648 1.443 . S
C649 C650 1.340 . S
C649 H681 0.951 . S
C650 C649 1.340 . S
C650 C651 1.439 . S
C650 H682 0.950 . S
C651 N647 1.374 . S
C651 C650 1.439 . S
C651 C676 1.395 . S
N652 Co641 1.995 . S
N652 C653 1.376 . S
N652 C656 1.383 . S
C653 N652 1.376 . S
C653 C654 1.446 . S
C653 C676 1.391 . S
C654 C653 1.446 . S
C654 C655 1.339 . S
C654 H683 0.949 . S
C655 C654 1.339 . S
C655 C656 1.439 . S
C655 H684 0.950 1_556 S
C656 N652 1.383 . S
C656 C655 1.439 . S
C656 C674 1.392 . S
N657 Co641 2.282 . S
N657 C660 1.332 . S
N657 C662 1.332 . S
C658 C659 1.386 . S
C658 C661 1.388 . S
C659 C658 1.386 . S
C659 C660 1.382 . S
C659 H685 0.950 . S
C660 N657 1.332 . S
C660 C659 1.382 . S
C660 H671 0.952 . S
C661 C658 1.388 . S
C661 C662 1.382 . S
C661 H686 0.950 . S
C662 N657 1.332 . S
C662 C661 1.382 . S
C662 H672 0.948 . S
N663 Co641 2.282 . S
N663 C667 1.332 . S
N663 C668 1.332 . S
C664 C665 1.388 . S
C664 C668 1.382 . S
C664 H687 0.950 . S
C665 C664 1.388 . S
C665 C666 1.386 . S
C666 C665 1.386 . S
C666 C667 1.382 . S
C666 H688 0.950 . S
C667 N663 1.332 . S
C667 C666 1.382 . S
C667 H669 0.952 . S
C668 N663 1.332 . S
C668 C664 1.382 . S
C668 H670 0.948 . S
H669 C667 0.952 . S
H670 C668 0.948 . S
H671 C660 0.952 . S
H672 C662 0.948 . S
C673 C639 1.395 . S
C673 C643 1.391 . S
C674 C636 1.389 . S
C674 C656 1.392 . S
C675 C646 1.392 . S
C675 C648 1.389 . S
C676 C651 1.395 . S
C676 C653 1.391 . S
H677 C637 0.942 1_554 S
H678 C638 0.950 . S
H679 C644 0.949 . S
H680 C645 0.950 . S
H681 C649 0.951 . S
H682 C650 0.950 . S
H683 C654 0.949 . S
H684 C655 0.950 1_554 S
H685 C659 0.950 . S
H686 C661 0.950 . S
H687 C664 0.950 . S
H688 C666 0.950 . S
C689 C690 1.443 . S
C689 N693 1.376 . S
C689 C727 1.389 . S
C690 C689 1.443 . S
C690 C691 1.340 . S
C690 H730 0.951 . S
C691 C690 1.340 . S
C691 C692 1.439 . S
C691 H731 0.950 . S
C692 C691 1.439 . S
C692 N693 1.374 . S
C692 C726 1.395 . S
N693 C689 1.376 . S
N693 C692 1.374 . S
N693 Co694 2.008 . S
Co694 N693 2.008 . S
Co694 N695 1.995 . S
Co694 N700 2.008 . S
Co694 N705 1.995 . S
Co694 N710 2.282 . S
Co694 N716 2.282 . S
N695 Co694 1.995 . S
N695 C696 1.376 . S
N695 C699 1.383 . S
C696 N695 1.376 . S
C696 C697 1.446 . S
C696 C726 1.391 . S
C697 C696 1.446 . S
C697 C698 1.339 . S
C697 H732 0.949 . S
C698 C697 1.339 . S
C698 C699 1.439 . S
C698 H733 0.950 1_556 S
C699 N695 1.383 . S
C699 C698 1.439 . S
C699 C728 1.392 . S
N700 Co694 2.008 . S
N700 C701 1.376 . S
N700 C704 1.374 1_565 S
C701 N700 1.376 . S
C701 C702 1.448 1_565 S
C701 C728 1.389 . S
C702 C701 1.448 1_545 S
C702 C703 1.346 . S
C702 H734 0.942 1_556 S
C703 C702 1.346 . S
C703 C704 1.439 . S
C703 H735 0.950 . S
C704 N700 1.374 1_545 S
C704 C703 1.439 . S
C704 C729 1.395 . S
N705 Co694 1.995 . S
N705 C706 1.376 1_565 S
N705 C709 1.383 . S
C706 N705 1.376 1_545 S
C706 C707 1.446 . S
C706 C729 1.391 . S
C707 C706 1.446 . S
C707 C708 1.339 . S
C707 H736 0.949 . S
C708 C707 1.339 . S
C708 C709 1.439 1_545 S
C708 H737 0.950 . S
C709 N705 1.383 . S
C709 C708 1.439 1_565 S
C709 C727 1.392 . S
N710 Co694 2.282 . S
N710 C713 1.332 1_565 S
N710 C715 1.332 . S
C711 C712 1.386 . S
C711 C714 1.388 1_545 S
C712 C711 1.386 . S
C712 C713 1.382 . S
C712 H738 0.950 . S
C713 N710 1.332 1_545 S
C713 C712 1.382 . S
C713 H724 0.952 . S
C714 C711 1.388 1_565 S
C714 C715 1.382 . S
C714 H739 0.950 . S
C715 N710 1.332 . S
C715 C714 1.382 . S
C715 H725 0.948 . S
N716 Co694 2.282 . S
N716 C720 1.332 . S
N716 C721 1.332 . S
C717 C718 1.388 . S
C717 C721 1.382 . S
C717 H740 0.950 . S
C718 C717 1.388 . S
C718 C719 1.386 . S
C719 C718 1.386 . S
C719 C720 1.382 . S
C719 H741 0.950 . S
C720 N716 1.332 . S
C720 C719 1.382 . S
C720 H722 0.952 . S
C721 N716 1.332 . S
C721 C717 1.382 . S
C721 H723 0.948 . S
H722 C720 0.952 . S
H723 C721 0.948 . S
H724 C713 0.952 . S
H725 C715 0.948 . S
C726 C692 1.395 . S
C726 C696 1.391 . S
C727 C689 1.389 . S
C727 C709 1.392 . S
C728 C699 1.392 . S
C728 C701 1.389 . S
C729 C704 1.395 . S
C729 C706 1.391 . S
H730 C690 0.951 . S
H731 C691 0.950 . S
H732 C697 0.949 . S
H733 C698 0.950 1_554 S
H734 C702 0.942 1_554 S
H735 C703 0.950 . S
H736 C707 0.949 . S
H737 C708 0.950 . S
H738 C712 0.950 . S
H739 C714 0.950 . S
H740 C717 0.950 . S
H741 C719 0.950 . S
C742 C743 1.443 . S
C742 N746 1.376 . S
C742 C780 1.389 . S
C743 C742 1.443 . S
C743 C744 1.340 . S
C743 H783 0.951 . S
C744 C743 1.340 . S
C744 C745 1.439 . S
C744 H784 0.950 . S
C745 C744 1.439 . S
C745 N746 1.374 . S
C745 C779 1.395 . S
N746 C742 1.376 . S
N746 C745 1.374 . S
N746 Co747 2.008 . S
Co747 N746 2.008 . S
Co747 N748 1.995 . S
Co747 N753 2.008 . S
Co747 N758 1.995 . S
Co747 N763 2.282 . S
Co747 N769 2.282 . S
N748 Co747 1.995 . S
N748 C749 1.376 . S
N748 C752 1.383 . S
C749 N748 1.376 . S
C749 C750 1.446 . S
C749 C779 1.391 . S
C750 C749 1.446 . S
C750 C751 1.339 . S
C750 H785 0.949 . S
C751 C750 1.339 . S
C751 C752 1.439 . S
C751 H786 0.950 1_556 S
C752 N748 1.383 . S
C752 C751 1.439 . S
C752 C781 1.392 . S
N753 Co747 2.008 . S
N753 C754 1.376 . S
N753 C757 1.374 1_455 S
C754 N753 1.376 . S
C754 C755 1.448 . S
C754 C781 1.389 . S
C755 C754 1.448 . S
C755 C756 1.346 1_455 S
C755 H787 0.942 1_556 S
C756 C755 1.346 1_655 S
C756 C757 1.439 . S
C756 H788 0.950 . S
C757 N753 1.374 1_655 S
C757 C756 1.439 . S
C757 C782 1.395 . S
N758 Co747 1.995 . S
N758 C759 1.376 1_455 S
N758 C762 1.383 . S
C759 N758 1.376 1_655 S
C759 C760 1.446 . S
C759 C782 1.391 . S
C760 C759 1.446 . S
C760 C761 1.339 . S
C760 H789 0.949 . S
C761 C760 1.339 . S
C761 C762 1.439 1_655 S
C761 H790 0.950 . S
C762 N758 1.383 . S
C762 C761 1.439 1_455 S
C762 C780 1.392 . S
N763 Co747 2.282 . S
N763 C766 1.332 1_455 S
N763 C768 1.332 . S
C764 C765 1.386 . S
C764 C767 1.388 1_655 S
C765 C764 1.386 . S
C765 C766 1.382 . S
C765 H791 0.950 . S
C766 N763 1.332 1_655 S
C766 C765 1.382 . S
C766 H777 0.952 . S
C767 C764 1.388 1_455 S
C767 C768 1.382 . S
C767 H792 0.950 . S
C768 N763 1.332 . S
C768 C767 1.382 . S
C768 H778 0.948 . S
N769 Co747 2.282 . S
N769 C773 1.332 . S
N769 C774 1.332 . S
C770 C771 1.388 . S
C770 C774 1.382 . S
C770 H793 0.950 . S
C771 C770 1.388 . S
C771 C772 1.386 . S
C772 C771 1.386 . S
C772 C773 1.382 . S
C772 H794 0.950 . S
C773 N769 1.332 . S
C773 C772 1.382 . S
C773 H775 0.952 . S
C774 N769 1.332 . S
C774 C770 1.382 . S
C774 H776 0.948 . S
H775 C773 0.952 . S
H776 C774 0.948 . S
H777 C766 0.952 . S
H778 C768 0.948 . S
C779 C745 1.395 . S
C779 C749 1.391 . S
C780 C742 1.389 . S
C780 C762 1.392 . S
C781 C752 1.392 . S
C781 C754 1.389 . S
C782 C757 1.395 . S
C782 C759 1.391 . S
H783 C743 0.951 . S
H784 C744 0.950 . S
H785 C750 0.949 . S
H786 C751 0.950 1_554 S
H787 C755 0.942 1_554 S
H788 C756 0.950 . S
H789 C760 0.949 . S
H790 C761 0.950 . S
H791 C765 0.950 . S
H792 C767 0.950 . S
H793 C770 0.950 . S
H794 C772 0.950 . S
C795 C796 1.443 . S
C795 N799 1.376 . S
C795 C833 1.389 . S
C796 C795 1.443 . S
C796 C797 1.340 . S
C796 H836 0.951 . S
C797 C796 1.340 . S
C797 C798 1.439 . S
C797 H837 0.950 . S
C798 C797 1.439 . S
C798 N799 1.374 . S
C798 C832 1.395 . S
N799 C795 1.376 . S
N799 C798 1.374 . S
N799 Co800 2.008 . S
Co800 N799 2.008 . S
Co800 N801 1.995 . S
Co800 N806 2.008 . S
Co800 N811 1.995 . S
Co800 N816 2.282 . S
Co800 N822 2.282 . S
N801 Co800 1.995 . S
N801 C802 1.376 . S
N801 C805 1.383 . S
C802 N801 1.376 . S
C802 C803 1.446 . S
C802 C832 1.391 . S
C803 C802 1.446 . S
C803 C804 1.339 . S
C803 H838 0.949 . S
C804 C803 1.339 . S
C804 C805 1.439 . S
C804 H839 0.950 . S
C805 N801 1.383 . S
C805 C804 1.439 . S
C805 C834 1.392 . S
N806 Co800 2.008 . S
N806 C807 1.376 . S
N806 C810 1.374 1_565 S
C807 N806 1.376 . S
C807 C808 1.443 1_565 S
C807 C834 1.389 . S
C808 C807 1.443 1_545 S
C808 C809 1.340 . S
C808 H840 0.951 . S
C809 C808 1.340 . S
C809 C810 1.439 . S
C809 H841 0.950 . S
C810 N806 1.374 1_545 S
C810 C809 1.439 . S
C810 C835 1.395 . S
N811 Co800 1.995 . S
N811 C812 1.376 . S
N811 C815 1.383 . S
C812 N811 1.376 . S
C812 C813 1.446 . S
C812 C835 1.391 1_565 S
C813 C812 1.446 . S
C813 C814 1.339 . S
C813 H842 0.949 . S
C814 C813 1.339 . S
C814 C815 1.439 . S
C814 H843 0.950 . S
C815 N811 1.383 . S
C815 C814 1.439 . S
C815 C833 1.392 . S
N816 Co800 2.282 . S
N816 C819 1.332 . S
N816 C821 1.332 . S
C817 C818 1.386 . S
C817 C820 1.388 . S
C818 C817 1.386 . S
C818 C819 1.382 . S
C818 H844 0.950 . S
C819 N816 1.332 . S
C819 C818 1.382 . S
C819 H830 0.952 . S
C820 C817 1.388 . S
C820 C821 1.382 . S
C820 H845 0.950 . S
C821 N816 1.332 . S
C821 C820 1.382 . S
C821 H831 0.948 . S
N822 Co800 2.282 . S
N822 C826 1.332 . S
N822 C827 1.332 . S
C823 C824 1.388 . S
C823 C827 1.382 . S
C823 H846 0.950 . S
C824 C823 1.388 . S
C824 C825 1.386 . S
C825 C824 1.386 . S
C825 C826 1.382 . S
C825 H847 0.950 . S
C826 N822 1.332 . S
C826 C825 1.382 . S
C826 H828 0.952 . S
C827 N822 1.332 . S
C827 C823 1.382 . S
C827 H829 0.948 . S
H828 C826 0.952 . S
H829 C827 0.948 . S
H830 C819 0.952 . S
H831 C821 0.948 . S
C832 C798 1.395 . S
C832 C802 1.391 . S
C833 C795 1.389 . S
C833 C815 1.392 . S
C834 C805 1.392 . S
C834 C807 1.389 . S
C835 C810 1.395 . S
C835 C812 1.391 1_545 S
H836 C796 0.951 . S
H837 C797 0.950 . S
H838 C803 0.949 . S
H839 C804 0.950 . S
H840 C808 0.951 . S
H841 C809 0.950 . S
H842 C813 0.949 . S
H843 C814 0.950 . S
H844 C818 0.950 . S
H845 C820 0.950 . S
H846 C823 0.950 . S
H847 C825 0.950 . S
C848 C849 1.443 . S
C848 N852 1.376 . S
C848 C886 1.389 . S
C849 C848 1.443 . S
C849 C850 1.340 . S
C849 H889 0.951 . S
C850 C849 1.340 . S
C850 C851 1.439 . S
C850 H890 0.950 . S
C851 C850 1.439 . S
C851 N852 1.374 . S
C851 C885 1.395 . S
N852 C848 1.376 . S
N852 C851 1.374 . S
N852 Co853 2.008 . S
Co853 N852 2.008 . S
Co853 N854 1.995 . S
Co853 N859 2.008 . S
Co853 N864 1.995 . S
Co853 N869 2.282 . S
Co853 N875 2.282 . S
N854 Co853 1.995 . S
N854 C855 1.376 . S
N854 C858 1.383 . S
C855 N854 1.376 . S
C855 C856 1.446 . S
C855 C885 1.391 . S
C856 C855 1.446 . S
C856 C857 1.339 . S
C856 H891 0.949 . S
C857 C856 1.339 . S
C857 C858 1.439 . S
C857 H892 0.950 . S
C858 N854 1.383 . S
C858 C857 1.439 . S
C858 C887 1.392 . S
N859 Co853 2.008 . S
N859 C860 1.376 . S
N859 C863 1.374 . S
C860 N859 1.376 . S
C860 C861 1.443 1_455 S
C860 C887 1.389 . S
C861 C860 1.443 1_655 S
C861 C862 1.340 . S
C861 H893 0.951 . S
C862 C861 1.340 . S
C862 C863 1.439 1_655 S
C862 H894 0.950 . S
C863 N859 1.374 . S
C863 C862 1.439 1_455 S
C863 C888 1.395 . S
N864 Co853 1.995 . S
N864 C865 1.376 . S
N864 C868 1.383 . S
C865 N864 1.376 . S
C865 C866 1.446 . S
C865 C888 1.391 . S
C866 C865 1.446 . S
C866 C867 1.339 . S
C866 H895 0.949 . S
C867 C866 1.339 . S
C867 C868 1.439 . S
C867 H896 0.950 . S
C868 N864 1.383 . S
C868 C867 1.439 . S
C868 C886 1.392 . S
N869 Co853 2.282 . S
N869 C872 1.332 . S
N869 C874 1.332 . S
C870 C871 1.386 . S
C870 C873 1.388 . S
C871 C870 1.386 . S
C871 C872 1.382 . S
C871 H897 0.950 . S
C872 N869 1.332 . S
C872 C871 1.382 . S
C872 H883 0.952 . S
C873 C870 1.388 . S
C873 C874 1.382 . S
C873 H898 0.950 . S
C874 N869 1.332 . S
C874 C873 1.382 . S
C874 H884 0.948 . S
N875 Co853 2.282 . S
N875 C879 1.332 . S
N875 C880 1.332 . S
C876 C877 1.388 . S
C876 C880 1.382 . S
C876 H899 0.950 . S
C877 C876 1.388 . S
C877 C878 1.386 . S
C878 C877 1.386 . S
C878 C879 1.382 . S
C878 H900 0.950 . S
C879 N875 1.332 . S
C879 C878 1.382 . S
C879 H881 0.952 . S
C880 N875 1.332 . S
C880 C876 1.382 . S
C880 H882 0.948 . S
H881 C879 0.952 . S
H882 C880 0.948 . S
H883 C872 0.952 . S
H884 C874 0.948 . S
C885 C851 1.395 . S
C885 C855 1.391 . S
C886 C848 1.389 . S
C886 C868 1.392 . S
C887 C858 1.392 . S
C887 C860 1.389 . S
C888 C863 1.395 . S
C888 C865 1.391 . S
H889 C849 0.951 . S
H890 C850 0.950 . S
H891 C856 0.949 . S
H892 C857 0.950 . S
H893 C861 0.951 . S
H894 C862 0.950 . S
H895 C866 0.949 . S
H896 C867 0.950 . S
H897 C871 0.950 . S
H898 C873 0.950 . S
H899 C876 0.950 . S
H900 C878 0.950 . S
C901 C902 1.443 . S
C901 N905 1.376 . S
C901 C939 1.389 . S
C902 C901 1.443 . S
C902 C903 1.340 . S
C902 H942 0.951 . S
C903 C902 1.340 . S
C903 C904 1.439 . S
C903 H943 0.950 . S
C904 C903 1.439 . S
C904 N905 1.374 . S
C904 C938 1.395 . S
N905 C901 1.376 . S
N905 C904 1.374 . S
N905 Co906 2.008 . S
Co906 N905 2.008 . S
Co906 N907 1.995 . S
Co906 N912 2.008 . S
Co906 N917 1.995 . S
Co906 N922 2.282 . S
Co906 N928 2.282 . S
N907 Co906 1.995 . S
N907 C908 1.376 . S
N907 C911 1.383 . S
C908 N907 1.376 . S
C908 C909 1.446 . S
C908 C938 1.391 . S
C909 C908 1.446 . S
C909 C910 1.339 . S
C909 H944 0.949 . S
C910 C909 1.339 . S
C910 C911 1.439 . S
C910 H945 0.950 . S
C911 N907 1.383 . S
C911 C910 1.439 . S
C911 C940 1.392 . S
N912 Co906 2.008 . S
N912 C913 1.376 . S
N912 C916 1.374 . S
C913 N912 1.376 . S
C913 C914 1.443 . S
C913 C940 1.389 . S
C914 C913 1.443 . S
C914 C915 1.340 . S
C914 H946 0.951 . S
C915 C914 1.340 . S
C915 C916 1.439 . S
C915 H947 0.950 . S
C916 N912 1.374 . S
C916 C915 1.439 . S
C916 C941 1.395 . S
N917 Co906 1.995 . S
N917 C918 1.376 . S
N917 C921 1.383 . S
C918 N917 1.376 . S
C918 C919 1.446 . S
C918 C941 1.391 . S
C919 C918 1.446 . S
C919 C920 1.339 . S
C919 H948 0.949 . S
C920 C919 1.339 . S
C920 C921 1.439 . S
C920 H949 0.950 . S
C921 N917 1.383 . S
C921 C920 1.439 . S
C921 C939 1.392 . S
N922 Co906 2.282 . S
N922 C925 1.332 . S
N922 C927 1.332 . S
C923 C924 1.386 . S
C923 C926 1.388 . S
C924 C923 1.386 . S
C924 C925 1.382 . S
C924 H950 0.950 . S
C925 N922 1.332 . S
C925 C924 1.382 . S
C925 H936 0.952 . S
C926 C923 1.388 . S
C926 C927 1.382 . S
C926 H951 0.950 . S
C927 N922 1.332 . S
C927 C926 1.382 . S
C927 H937 0.948 . S
N928 Co906 2.282 . S
N928 C932 1.332 . S
N928 C933 1.332 . S
C929 C930 1.388 . S
C929 C933 1.382 . S
C929 H952 0.950 . S
C930 C929 1.388 . S
C930 C931 1.386 . S
C931 C930 1.386 . S
C931 C932 1.382 . S
C931 H953 0.950 . S
C932 N928 1.332 . S
C932 C931 1.382 . S
C932 H934 0.952 . S
C933 N928 1.332 . S
C933 C929 1.382 . S
C933 H935 0.948 . S
H934 C932 0.952 . S
H935 C933 0.948 . S
H936 C925 0.952 . S
H937 C927 0.948 . S
C938 C904 1.395 . S
C938 C908 1.391 . S
C939 C901 1.389 . S
C939 C921 1.392 . S
C940 C911 1.392 . S
C940 C913 1.389 . S
C941 C916 1.395 . S
C941 C918 1.391 . S
H942 C902 0.951 . S
H943 C903 0.950 . S
H944 C909 0.949 . S
H945 C910 0.950 . S
H946 C914 0.951 . S
H947 C915 0.950 . S
H948 C919 0.949 . S
H949 C920 0.950 . S
H950 C924 0.950 . S
H951 C926 0.950 . S
H952 C929 0.950 . S
H953 C931 0.950 . S
C954 C955 1.387 . S
C954 H958 0.950 . S
C954 C963 1.390 . S
C955 C954 1.387 . S
C955 C957 1.387 . S
H956 C963 0.950 . S
C957 C955 1.387 . S
C957 C959 1.390 . S
C957 H961 0.950 . S
H958 C954 0.950 . S
C959 C957 1.390 . S
C959 C960 1.387 . S
C959 H962 0.950 . S
C960 C959 1.387 . S
C960 C963 1.387 . S
H961 C957 0.950 . S
H962 C959 0.950 . S
C963 C954 1.390 . S
C963 H956 0.950 . S
C963 C960 1.387 . S
C964 C965 1.387 . S
C964 H968 0.950 . S
C964 C973 1.390 . S
C965 C964 1.387 . S
C965 C967 1.387 . S
H966 C973 0.950 . S
C967 C965 1.387 . S
C967 C969 1.390 . S
C967 H971 0.950 . S
H968 C964 0.950 . S
C969 C967 1.390 . S
C969 C970 1.387 . S
C969 H972 0.950 . S
C970 C969 1.387 . S
C970 C973 1.387 . S
H971 C967 0.950 . S
H972 C969 0.950 . S
C973 C964 1.390 . S
C973 H966 0.950 . S
C973 C970 1.387 . S
C974 C975 1.387 . S
C974 H978 0.950 . S
C974 C983 1.390 . S
C975 C974 1.387 . S
C975 C977 1.387 1_565 S
H976 C983 0.950 . S
C977 C975 1.387 1_545 S
C977 C979 1.390 1_545 S
C977 H981 0.950 . S
H978 C974 0.950 . S
C979 C977 1.390 1_565 S
C979 C980 1.387 . S
C979 H982 0.950 1_565 S
C980 C979 1.387 . S
C980 C983 1.387 . S
H981 C977 0.950 . S
H982 C979 0.950 1_545 S
C983 C974 1.390 . S
C983 H976 0.950 . S
C983 C980 1.387 . S
C984 C985 1.387 . S
C984 H988 0.966 . S
C984 C993 1.390 . S
C985 C984 1.387 . S
C985 C987 1.387 . S
H986 C993 0.950 1_565 S
C987 C985 1.387 . S
C987 C989 1.390 . S
C987 H991 0.950 . S
H988 C984 0.966 . S
C989 C987 1.390 . S
C989 C990 1.387 . S
C989 H992 0.950 . S
C990 C989 1.387 . S
C990 C993 1.387 . S
H991 C987 0.950 . S
H992 C989 0.950 . S
C993 C984 1.390 . S
C993 H986 0.950 1_545 S
C993 C990 1.387 . S
C994 C995 1.387 . S
C994 H998 0.950 . S
C994 C1003 1.390 . S
C995 C994 1.387 . S
C995 C997 1.387 . S
H996 C1003 0.950 . S
C997 C995 1.387 . S
C997 C999 1.390 . S
C997 H1001 0.950 1_655 S
H998 C994 0.950 . S
C999 C997 1.390 . S
C999 C1000 1.387 . S
C999 H1002 0.951 1_655 S
C1000 C999 1.387 . S
C1000 C1003 1.387 . S
H1001 C997 0.950 1_455 S
H1002 C999 0.951 1_455 S
C1003 C994 1.390 . S
C1003 H996 0.950 . S
C1003 C1000 1.387 . S
C1004 C1005 1.387 . S
C1004 H1008 0.950 . S
C1004 C1013 1.390 . S
C1005 C1004 1.387 . S
C1005 C1007 1.387 . S
H1006 C1013 0.950 . S
C1007 C1005 1.387 . S
C1007 C1009 1.390 . S
C1007 H1011 0.950 . S
H1008 C1004 0.950 . S
C1009 C1007 1.390 . S
C1009 C1010 1.387 . S
C1009 H1012 0.950 . S
C1010 C1009 1.387 . S
C1010 C1013 1.387 . S
H1011 C1007 0.950 . S
H1012 C1009 0.950 . S
C1013 C1004 1.390 . S
C1013 H1006 0.950 . S
C1013 C1010 1.387 . S
C1014 C1015 1.387 . S
C1014 H1018 0.950 . S
C1014 C1023 1.390 . S
C1015 C1014 1.387 . S
C1015 C1017 1.387 . S
H1016 C1023 0.950 . S
C1017 C1015 1.387 . S
C1017 C1019 1.390 . S
C1017 H1021 0.950 . S
H1018 C1014 0.950 . S
C1019 C1017 1.390 . S
C1019 C1020 1.387 . S
C1019 H1022 0.950 . S
C1020 C1019 1.387 . S
C1020 C1023 1.387 . S
H1021 C1017 0.950 . S
H1022 C1019 0.950 . S
C1023 C1014 1.390 . S
C1023 H1016 0.950 . S
C1023 C1020 1.387 . S
C1024 C1025 1.387 . S
C1024 H1028 0.950 . S
C1024 C1033 1.390 . S
C1025 C1024 1.387 . S
C1025 C1027 1.387 . S
H1026 C1033 0.950 . S
C1027 C1025 1.387 . S
C1027 C1029 1.390 . S
C1027 H1031 0.950 . S
H1028 C1024 0.950 . S
C1029 C1027 1.390 . S
C1029 C1030 1.387 . S
C1029 H1032 0.950 . S
C1030 C1029 1.387 . S
C1030 C1033 1.387 . S
H1031 C1027 0.950 . S
H1032 C1029 0.950 . S
C1033 C1024 1.390 . S
C1033 H1026 0.950 . S
C1033 C1030 1.387 . S
C1034 C1035 1.387 . S
C1034 H1038 0.950 . S
C1034 C1043 1.390 . S
C1035 C1034 1.387 . S
C1035 C1037 1.387 . S
H1036 C1043 0.950 . S
C1037 C1035 1.387 . S
C1037 C1039 1.390 . S
C1037 H1041 0.950 . S
H1038 C1034 0.950 . S
C1039 C1037 1.390 . S
C1039 C1040 1.387 . S
C1039 H1042 0.950 . S
C1040 C1039 1.387 . S
C1040 C1043 1.387 . S
H1041 C1037 0.950 . S
H1042 C1039 0.950 . S
C1043 C1034 1.390 . S
C1043 H1036 0.950 . S
C1043 C1040 1.387 . S
C1044 C1045 1.387 . S
C1044 H1048 0.950 1_565 S
C1044 C1053 1.390 . S
C1045 C1044 1.387 . S
C1045 C1047 1.387 . S
H1046 C1053 0.950 . S
C1047 C1045 1.387 . S
C1047 C1049 1.390 . S
C1047 H1051 0.950 . S
H1048 C1044 0.950 1_545 S
C1049 C1047 1.390 . S
C1049 C1050 1.387 . S
C1049 H1052 0.950 . S
C1050 C1049 1.387 . S
C1050 C1053 1.387 . S
H1051 C1047 0.950 . S
H1052 C1049 0.950 . S
C1053 C1044 1.390 . S
C1053 H1046 0.950 . S
C1053 C1050 1.387 . S
C1054 C1055 1.387 . S
C1054 H1058 0.950 . S
C1054 C1063 1.390 . S
C1055 C1054 1.387 . S
C1055 C1057 1.387 . S
H1056 C1063 0.950 . S
C1057 C1055 1.387 . S
C1057 C1059 1.390 . S
C1057 H1061 0.950 . S
H1058 C1054 0.950 . S
C1059 C1057 1.390 . S
C1059 C1060 1.387 . S
C1059 H1062 0.950 . S
C1060 C1059 1.387 . S
C1060 C1063 1.387 . S
H1061 C1057 0.950 . S
H1062 C1059 0.950 . S
C1063 C1054 1.390 . S
C1063 H1056 0.950 . S
C1063 C1060 1.387 . S
C1064 C1065 1.387 . S
C1064 H1068 0.950 . S
C1064 C1073 1.390 . S
C1065 C1064 1.387 . S
C1065 C1067 1.387 . S
H1066 C1073 0.950 . S
C1067 C1065 1.387 . S
C1067 C1069 1.390 . S
C1067 H1071 0.950 . S
H1068 C1064 0.950 . S
C1069 C1067 1.390 . S
C1069 C1070 1.387 . S
C1069 H1072 0.950 . S
C1070 C1069 1.387 . S
C1070 C1073 1.387 . S
H1071 C1067 0.950 . S
H1072 C1069 0.950 . S
C1073 C1064 1.390 . S
C1073 H1066 0.950 . S
C1073 C1070 1.387 . S
C1074 C1075 1.387 . S
C1074 H1078 0.950 . S
C1074 C1083 1.390 . S
C1075 C1074 1.387 . S
C1075 C1077 1.387 . S
H1076 C1083 0.950 . S
C1077 C1075 1.387 . S
C1077 C1079 1.390 . S
C1077 H1081 0.950 . S
H1078 C1074 0.950 . S
C1079 C1077 1.390 . S
C1079 C1080 1.387 . S
C1079 H1082 0.950 . S
C1080 C1079 1.387 . S
C1080 C1083 1.387 . S
H1081 C1077 0.950 . S
H1082 C1079 0.950 . S
C1083 C1074 1.390 . S
C1083 H1076 0.950 . S
C1083 C1080 1.387 . S
C1084 C1085 1.387 . S
C1084 H1088 0.950 . S
C1084 C1093 1.390 1_545 S
C1085 C1084 1.387 . S
C1085 C1087 1.387 . S
H1086 C1093 0.950 . S
C1087 C1085 1.387 . S
C1087 C1089 1.390 1_545 S
C1087 H1091 0.950 . S
H1088 C1084 0.950 . S
C1089 C1087 1.390 1_565 S
C1089 C1090 1.387 . S
C1089 H1092 0.950 . S
C1090 C1089 1.387 . S
C1090 C1093 1.387 . S
H1091 C1087 0.950 . S
H1092 C1089 0.950 . S
C1093 C1084 1.390 1_565 S
C1093 H1086 0.950 . S
C1093 C1090 1.387 . S
C1094 C1095 1.387 . S
C1094 H1098 0.950 . S
C1094 C1103 1.390 1_455 S
C1095 C1094 1.387 . S
C1095 C1097 1.387 . S
H1096 C1103 0.950 . S
C1097 C1095 1.387 . S
C1097 C1099 1.385 1_455 S
C1097 H1101 0.950 . S
H1098 C1094 0.950 . S
C1099 C1097 1.385 1_655 S
C1099 C1100 1.385 . S
C1099 H1102 0.958 . S
C1100 C1099 1.385 . S
C1100 C1103 1.387 . S
H1101 C1097 0.950 . S
H1102 C1099 0.958 . S
C1103 C1094 1.390 1_655 S
C1103 H1096 0.950 . S
C1103 C1100 1.387 . S
C1104 C1105 1.387 . S
C1104 H1108 0.950 . S
C1104 C1113 1.390 . S
C1105 C1104 1.387 . S
C1105 C1107 1.387 . S
H1106 C1113 0.950 . S
C1107 C1105 1.387 . S
C1107 C1109 1.390 . S
C1107 H1111 0.950 . S
H1108 C1104 0.950 . S
C1109 C1107 1.390 . S
C1109 C1110 1.387 . S
C1109 H1112 0.950 . S
C1110 C1109 1.387 . S
C1110 C1113 1.387 . S
H1111 C1107 0.950 . S
H1112 C1109 0.950 . S
C1113 C1104 1.390 . S
C1113 H1106 0.950 . S
C1113 C1110 1.387 . S
C1114 C1115 1.387 . S
C1114 H1118 0.950 . S
C1114 C1123 1.390 1_545 S
C1115 C1114 1.387 . S
C1115 C1117 1.387 . S
H1116 C1123 0.950 . S
C1117 C1115 1.387 . S
C1117 C1119 1.390 1_545 S
C1117 H1121 0.950 . S
H1118 C1114 0.950 . S
C1119 C1117 1.390 1_565 S
C1119 C1120 1.387 . S
C1119 H1122 0.950 . S
C1120 C1119 1.387 . S
C1120 C1123 1.387 . S
H1121 C1117 0.950 . S
H1122 C1119 0.950 . S
C1123 C1114 1.390 1_565 S
C1123 H1116 0.950 . S
C1123 C1120 1.387 . S
C1124 C1125 1.387 . S
C1124 H1128 0.950 . S
C1124 C1133 1.390 1_455 S
C1125 C1124 1.387 . S
C1125 C1127 1.387 . S
H1126 C1133 0.950 . S
C1127 C1125 1.387 . S
C1127 C1129 1.410 . S
C1127 H1131 0.950 . S
H1128 C1124 0.950 . S
C1129 C1127 1.410 . S
C1129 C1130 1.379 1_455 S
C1129 H1132 0.939 1_455 S
C1130 C1129 1.379 1_655 S
C1130 C1133 1.387 . S
H1131 C1127 0.950 . S
H1132 C1129 0.939 1_655 S
C1133 C1124 1.390 1_655 S
C1133 H1126 0.950 . S
C1133 C1130 1.387 . S
C1134 C1135 1.387 . S
C1134 H1138 0.950 . S
C1134 C1143 1.390 . S
C1135 C1134 1.387 . S
C1135 C1137 1.387 . S
H1136 C1143 0.950 . S
C1137 C1135 1.387 . S
C1137 C1139 1.390 . S
C1137 H1141 0.950 . S
H1138 C1134 0.950 . S
C1139 C1137 1.390 . S
C1139 C1140 1.387 . S
C1139 H1142 0.950 . S
C1140 C1139 1.387 . S
C1140 C1143 1.387 . S
H1141 C1137 0.950 . S
H1142 C1139 0.950 . S
C1143 C1134 1.390 . S
C1143 H1136 0.950 . S
C1143 C1140 1.387 . S
C1144 C1145 1.387 . S
C1144 H1148 0.950 . S
C1144 C1153 1.390 . S
C1145 C1144 1.387 . S
C1145 C1147 1.387 . S
H1146 C1153 0.950 . S
C1147 C1145 1.387 . S
C1147 C1149 1.390 . S
C1147 H1151 0.950 . S
H1148 C1144 0.950 . S
C1149 C1147 1.390 . S
C1149 C1150 1.387 . S
C1149 H1152 0.950 . S
C1150 C1149 1.387 . S
C1150 C1153 1.387 . S
H1151 C1147 0.950 . S
H1152 C1149 0.950 . S
C1153 C1144 1.390 . S
C1153 H1146 0.950 . S
C1153 C1150 1.387 . S
C1154 C1155 1.387 . S
C1154 H1158 0.950 . S
C1154 C1163 1.390 . S
C1155 C1154 1.387 . S
C1155 C1157 1.387 . S
H1156 C1163 0.950 . S
C1157 C1155 1.387 . S
C1157 C1159 1.390 . S
C1157 H1161 0.950 . S
H1158 C1154 0.950 . S
C1159 C1157 1.390 . S
C1159 C1160 1.387 . S
C1159 H1162 0.950 . S
C1160 C1159 1.387 . S
C1160 C1163 1.387 . S
H1161 C1157 0.950 . S
H1162 C1159 0.950 . S
C1163 C1154 1.390 . S
C1163 H1156 0.950 . S
C1163 C1160 1.387 . S
C1164 C1165 1.387 . S
C1164 H1168 0.950 . S
C1164 C1173 1.390 . S
C1165 C1164 1.387 . S
C1165 C1167 1.387 . S
H1166 C1173 0.950 . S
C1167 C1165 1.387 . S
C1167 C1169 1.390 . S
C1167 H1171 0.950 . S
H1168 C1164 0.950 . S
C1169 C1167 1.390 . S
C1169 C1170 1.387 . S
C1169 H1172 0.950 . S
C1170 C1169 1.387 . S
C1170 C1173 1.387 . S
H1171 C1167 0.950 . S
H1172 C1169 0.950 . S
C1173 C1164 1.390 . S
C1173 H1166 0.950 . S
C1173 C1170 1.387 . S
C1174 C1175 1.387 . S
C1174 H1178 0.950 . S
C1174 C1183 1.390 . S
C1175 C1174 1.387 . S
C1175 C1177 1.387 . S
H1176 C1183 0.950 . S
C1177 C1175 1.387 . S
C1177 C1179 1.390 . S
C1177 H1181 0.950 . S
H1178 C1174 0.950 . S
C1179 C1177 1.390 . S
C1179 C1180 1.387 . S
C1179 H1182 0.950 . S
C1180 C1179 1.387 . S
C1180 C1183 1.387 . S
H1181 C1177 0.950 . S
H1182 C1179 0.950 . S
C1183 C1174 1.390 . S
C1183 H1176 0.950 . S
C1183 C1180 1.387 . S
C1184 C1185 1.387 . S
C1184 H1188 0.950 . S
C1184 C1193 1.390 . S
C1185 C1184 1.387 . S
C1185 C1187 1.387 . S
H1186 C1193 0.950 . S
C1187 C1185 1.387 . S
C1187 C1189 1.390 . S
C1187 H1191 0.950 . S
H1188 C1184 0.950 . S
C1189 C1187 1.390 . S
C1189 C1190 1.387 . S
C1189 H1192 0.950 . S
C1190 C1189 1.387 . S
C1190 C1193 1.387 . S
H1191 C1187 0.950 . S
H1192 C1189 0.950 . S
C1193 C1184 1.390 . S
C1193 H1186 0.950 . S
C1193 C1190 1.387 . S
C1194 C1195 1.387 . S
C1194 H1198 0.950 . S
C1194 C1203 1.390 . S
C1195 C1194 1.387 . S
C1195 C1197 1.387 . S
H1196 C1203 0.950 . S
C1197 C1195 1.387 . S
C1197 C1199 1.390 . S
C1197 H1201 0.950 . S
H1198 C1194 0.950 . S
C1199 C1197 1.390 . S
C1199 C1200 1.387 . S
C1199 H1202 0.950 . S
C1200 C1199 1.387 . S
C1200 C1203 1.387 . S
H1201 C1197 0.950 . S
H1202 C1199 0.950 . S
C1203 C1194 1.390 . S
C1203 H1196 0.950 . S
C1203 C1200 1.387 . S
C1204 C1205 1.387 . S
C1204 H1208 0.950 . S
C1204 C1213 1.390 . S
C1205 C1204 1.387 . S
C1205 C1207 1.387 . S
H1206 C1213 0.950 . S
C1207 C1205 1.387 . S
C1207 C1209 1.390 . S
C1207 H1211 0.950 . S
H1208 C1204 0.950 . S
C1209 C1207 1.390 . S
C1209 C1210 1.387 . S
C1209 H1212 0.950 . S
C1210 C1209 1.387 . S
C1210 C1213 1.387 . S
H1211 C1207 0.950 . S
H1212 C1209 0.950 . S
C1213 C1204 1.390 . S
C1213 H1206 0.950 . S
C1213 C1210 1.387 . S
C1214 C1215 1.387 . S
C1214 H1218 0.950 . S
C1214 C1223 1.390 . S
C1215 C1214 1.387 . S
C1215 C1217 1.387 . S
H1216 C1223 0.950 . S
C1217 C1215 1.387 . S
C1217 C1219 1.390 . S
C1217 H1221 0.950 . S
H1218 C1214 0.950 . S
C1219 C1217 1.390 . S
C1219 C1220 1.387 . S
C1219 H1222 0.950 . S
C1220 C1219 1.387 . S
C1220 C1223 1.387 . S
H1221 C1217 0.950 . S
H1222 C1219 0.950 . S
C1223 C1214 1.390 . S
C1223 H1216 0.950 . S
C1223 C1220 1.387 . S
C1224 C1225 1.387 . S
C1224 H1228 0.950 . S
C1224 C1233 1.390 . S
C1225 C1224 1.387 . S
C1225 C1227 1.387 . S
H1226 C1233 0.950 . S
C1227 C1225 1.387 . S
C1227 C1229 1.390 . S
C1227 H1231 0.950 . S
H1228 C1224 0.950 . S
C1229 C1227 1.390 . S
C1229 C1230 1.387 . S
C1229 H1232 0.950 . S
C1230 C1229 1.387 . S
C1230 C1233 1.387 . S
H1231 C1227 0.950 . S
H1232 C1229 0.950 . S
C1233 C1224 1.390 . S
C1233 H1226 0.950 . S
C1233 C1230 1.387 . S
C1234 C1235 1.387 . S
C1234 H1238 0.950 . S
C1234 C1243 1.390 . S
C1235 C1234 1.387 . S
C1235 C1237 1.387 . S
H1236 C1243 0.950 . S
C1237 C1235 1.387 . S
C1237 C1239 1.390 . S
C1237 H1241 0.950 . S
H1238 C1234 0.950 . S
C1239 C1237 1.390 . S
C1239 C1240 1.387 . S
C1239 H1242 0.950 . S
C1240 C1239 1.387 . S
C1240 C1243 1.387 . S
H1241 C1237 0.950 . S
H1242 C1239 0.950 . S
C1243 C1234 1.390 . S
C1243 H1236 0.950 . S
C1243 C1240 1.387 . S
C1244 C1245 1.387 . S
C1244 H1248 0.950 . S
C1244 C1253 1.390 . S
C1245 C1244 1.387 . S
C1245 C1247 1.387 . S
H1246 C1253 0.950 . S
C1247 C1245 1.387 . S
C1247 C1249 1.390 . S
C1247 H1251 0.950 . S
H1248 C1244 0.950 . S
C1249 C1247 1.390 . S
C1249 C1250 1.387 . S
C1249 H1252 0.950 . S
C1250 C1249 1.387 . S
C1250 C1253 1.387 . S
H1251 C1247 0.950 . S
H1252 C1249 0.950 . S
C1253 C1244 1.390 . S
C1253 H1246 0.950 . S
C1253 C1250 1.387 . S
C1254 C1255 1.387 . S
C1254 H1258 0.950 . S
C1254 C1263 1.390 . S
C1255 C1254 1.387 . S
C1255 C1257 1.387 . S
H1256 C1263 0.950 . S
C1257 C1255 1.387 . S
C1257 C1259 1.390 . S
C1257 H1261 0.950 . S
H1258 C1254 0.950 . S
C1259 C1257 1.390 . S
C1259 C1260 1.387 . S
C1259 H1262 0.950 . S
C1260 C1259 1.387 . S
C1260 C1263 1.387 . S
H1261 C1257 0.950 . S
H1262 C1259 0.950 . S
C1263 C1254 1.390 . S
C1263 H1256 0.950 . S
C1263 C1260 1.387 . S
C1264 C1265 1.387 . S
C1264 H1268 0.950 . S
C1264 C1273 1.390 . S
C1265 C1264 1.387 . S
C1265 C1267 1.387 1_565 S
H1266 C1273 0.950 . S
C1267 C1265 1.387 1_545 S
C1267 C1269 1.390 . S
C1267 H1271 0.950 . S
H1268 C1264 0.950 . S
C1269 C1267 1.390 . S
C1269 C1270 1.387 1_545 S
C1269 H1272 0.950 . S
C1270 C1269 1.387 1_565 S
C1270 C1273 1.387 . S
H1271 C1267 0.950 . S
H1272 C1269 0.950 . S
C1273 C1264 1.390 . S
C1273 H1266 0.950 . S
C1273 C1270 1.387 . S
C1274 C1275 1.387 . S
C1274 H1278 0.950 . S
C1274 C1283 1.390 . S
C1275 C1274 1.387 . S
C1275 C1277 1.387 . S
H1276 C1283 0.950 . S
C1277 C1275 1.387 . S
C1277 C1279 1.390 . S
C1277 H1281 0.950 . S
H1278 C1274 0.950 . S
C1279 C1277 1.390 . S
C1279 C1280 1.387 . S
C1279 H1282 0.950 . S
C1280 C1279 1.387 . S
C1280 C1283 1.387 . S
H1281 C1277 0.950 . S
H1282 C1279 0.950 . S
C1283 C1274 1.390 . S
C1283 H1276 0.950 . S
C1283 C1280 1.387 . S
C1284 C1285 1.387 1_554 S
C1284 H1288 0.950 . S
C1284 C1293 1.390 . S
C1285 C1284 1.387 1_556 S
C1285 C1287 1.387 . S
H1286 C1293 0.950 . S
C1287 C1285 1.387 . S
C1287 C1289 1.398 . S
C1287 H1291 0.950 . S
H1288 C1284 0.950 . S
C1289 C1287 1.398 . S
C1289 C1290 1.376 1_556 S
C1289 H1292 0.954 . S
C1290 C1289 1.376 1_554 S
C1290 C1293 1.387 . S
H1291 C1287 0.950 . S
H1292 C1289 0.954 . S
C1293 C1284 1.390 . S
C1293 H1286 0.950 . S
C1293 C1290 1.387 . S
C1294 C1295 1.376 1_564 S
C1294 H1298 0.975 . S
C1294 C1303 1.377 1_565 S
C1295 C1294 1.376 1_546 S
C1295 C1297 1.387 . S
H1296 C1303 0.950 1_565 S
C1297 C1295 1.387 . S
C1297 C1299 1.390 1_556 S
C1297 H1301 0.950 . S
H1298 C1294 0.975 . S
C1299 C1297 1.390 1_554 S
C1299 C1300 1.387 . S
C1299 H1302 0.950 . S
C1300 C1299 1.387 . S
C1300 C1303 1.387 . S
H1301 C1297 0.950 . S
H1302 C1299 0.950 . S
C1303 C1294 1.377 1_545 S
C1303 H1296 0.950 1_545 S
C1303 C1300 1.387 . S
C1304 C1305 1.387 . S
C1304 H1308 0.950 . S
C1304 C1313 1.390 . S
C1305 C1304 1.387 . S
C1305 C1307 1.387 1_556 S
H1306 C1313 0.950 . S
C1307 C1305 1.387 1_554 S
C1307 C1309 1.390 . S
C1307 H1311 0.950 . S
H1308 C1304 0.950 . S
C1309 C1307 1.390 . S
C1309 C1310 1.387 . S
C1309 H1312 0.950 . S
C1310 C1309 1.387 . S
C1310 C1313 1.387 1_554 S
H1311 C1307 0.950 . S
H1312 C1309 0.950 . S
C1313 C1304 1.390 . S
C1313 H1306 0.950 . S
C1313 C1310 1.387 1_556 S
C955 C39 2.488 . S
C960 C781 2.488 1_554 S
C965 C674 2.499 1_554 S
C970 C91 2.499 . S
C975 C144 2.499 . S
C980 C728 2.490 1_554 S
C985 C357 2.488 . S
C990 C145 2.488 . S
C995 C409 2.499 . S
C1000 C38 2.499 . S
C1005 C463 2.490 . S
C1010 C92 2.489 . S
C1015 C181 1.837 . S
C1020 C605 1.836 . S
C1025 C499 1.840 . S
C1030 C234 1.840 . S
C1035 C552 1.837 . S
C1040 C294 1.821 . S
C1045 C287 1.840 . S
C1050 C817 1.839 . S
C1055 C188 1.824 . S
C1060 C870 1.839 . S
C1065 C930 1.822 . S
C1070 C241 1.822 . S
C1075 C675 2.490 . S
C1080 C462 2.499 . S
C1085 C356 2.498 . S
C1090 C727 2.498 . S
C1095 C780 2.499 . S
C1100 C410 2.490 . S
C1105 C923 1.839 . S
C1110 C506 1.823 . S
C1115 C559 1.824 . S
C1120 C824 1.824 . S
C1125 C877 1.824 . S
C1130 C612 1.824 . S
C1135 C833 1.576 . S
C1140 C29 1.581 . S
C1145 C75 1.576 . S
C1150 C886 1.576 . S
C1155 C128 1.576 . S
C1160 C940 1.581 . S
C1165 C135 1.581 . S
C1170 C621 1.575 . S
C1175 C515 1.576 . S
C1180 C22 1.576 . S
C1185 C82 1.581 . S
C1190 C568 1.575 . S
C1195 C347 1.582 . S
C1200 C197 1.577 . S
C1205 C393 1.577 . S
C1210 C250 1.577 . S
C1215 C304 1.583 . S
C1220 C453 1.582 . S
C1225 C303 1.576 . S
C1230 C771 1.581 . S
C1235 C198 1.583 . S
C1240 C658 1.577 . S
C1245 C251 1.581 . S
C1250 C718 1.580 . S
C1255 C446 1.577 . S
C1260 C939 1.577 . S
C1265 C340 1.577 . S
C1270 C834 1.583 . S
C1275 C887 1.581 . S
C1280 C400 1.581 . S
C1285 C665 1.581 . S
C1290 C516 1.582 . S
C1295 C711 1.576 . S
C1300 C569 1.582 . S
C1305 C764 1.578 . S
C1310 C622 1.583 . S
