# Generated by pormake.
# Topology umx, (4)-cn, num edge types: 1
# Building blocks:
#     Node 0, Type 0, BuildingBlock: CEKHIL_clean_sbu_0, # of connection points: 4
#     Node 1, Type 0, BuildingBlock: CEKHIL_clean_sbu_0, # of connection points: 4
#     Node 2, Type 0, BuildingBlock: CEKHIL_clean_sbu_0, # of connection points: 4
#     Node 3, Type 0, BuildingBlock: CEKHIL_clean_sbu_0, # of connection points: 4
#     Node 4, Type 0, BuildingBlock: CEKHIL_clean_sbu_0, # of connection points: 4
#     Node 5, Type 0, BuildingBlock: CEKHIL_clean_sbu_0, # of connection points: 4
#     Node 6, Type 0, BuildingBlock: CEKHIL_clean_sbu_0, # of connection points: 4
#     Node 7, Type 0, BuildingBlock: CEKHIL_clean_sbu_0, # of connection points: 4
#     Edge 8, Type (0, 0), BuildingBlock: EZIPEK_clean_linker_0, # of connection points: 2
#     Edge 9, Type (0, 0), BuildingBlock: EZIPEK_clean_linker_0, # of connection points: 2
#     Edge 10, Type (0, 0), BuildingBlock: EZIPEK_clean_linker_0, # of connection points: 2
#     Edge 11, Type (0, 0), BuildingBlock: EZIPEK_clean_linker_0, # of connection points: 2
#     Edge 12, Type (0, 0), BuildingBlock: EZIPEK_clean_linker_0, # of connection points: 2
#     Edge 13, Type (0, 0), BuildingBlock: EZIPEK_clean_linker_0, # of connection points: 2
#     Edge 14, Type (0, 0), BuildingBlock: EZIPEK_clean_linker_0, # of connection points: 2
#     Edge 15, Type (0, 0), BuildingBlock: EZIPEK_clean_linker_0, # of connection points: 2
#     Edge 16, Type (0, 0), BuildingBlock: EZIPEK_clean_linker_0, # of connection points: 2
#     Edge 17, Type (0, 0), BuildingBlock: EZIPEK_clean_linker_0, # of connection points: 2
#     Edge 18, Type (0, 0), BuildingBlock: EZIPEK_clean_linker_0, # of connection points: 2
#     Edge 19, Type (0, 0), BuildingBlock: EZIPEK_clean_linker_0, # of connection points: 2
#     Edge 20, Type (0, 0), BuildingBlock: EZIPEK_clean_linker_0, # of connection points: 2
#     Edge 21, Type (0, 0), BuildingBlock: EZIPEK_clean_linker_0, # of connection points: 2
#     Edge 22, Type (0, 0), BuildingBlock: EZIPEK_clean_linker_0, # of connection points: 2
#     Edge 23, Type (0, 0), BuildingBlock: EZIPEK_clean_linker_0, # of connection points: 2
# Relax obj value: 0.075
# Max RMSD: 0.186
# Mean RMSD: 0.186
data_MOF--net-umx--node1-CEKHIL_clean_sbu_0--edge1-EZIPEK_clean_linker_0
_symmetry_space_group_name_H-M    P1
_symmetry_Int_Tables_number       1
_symmetry_cell_setting            triclinic
loop_
_symmetry_equiv_pos_as_xyz
'x, y, z'
_cell_length_a     28.750594
_cell_length_b     28.76196
_cell_length_c     20.150538
_cell_angle_alpha  89.867746
_cell_angle_beta   90.053089
_cell_angle_gamma 90.02812
loop_
_atom_site_label
_atom_site_type_symbol
_atom_site_fract_x
_atom_site_fract_y
_atom_site_fract_z
_atom_type_partial_charge
Co0 Co 0.19393 0.43702 -0.00189 0.0
O1 O 0.25108 0.40361 0.98681 0.0
O2 O 0.18544 0.37245 0.02392 0.0
C3 C 0.19565 0.47226 0.89795 0.0
O4 O 0.12774 0.46064 0.01315 0.0
Co5 Co 0.19596 0.54368 0.00383 0.0
O6 O 0.12745 0.53893 0.0098 0.0
C7 C 0.21929 0.49143 0.12386 0.0
C8 C 0.22884 0.36717 0.00718 0.0
C9 C 0.10649 0.50007 0.01467 0.0
O10 O 0.21127 0.45344 0.09233 0.0
O11 O 0.21813 0.53154 0.09654 0.0
O12 O 0.18004 0.43025 0.90438 0.0
O13 O 0.21428 0.49039 0.95054 0.0
Co14 Co 0.5607 0.19735 0.48873 0.0
O15 O 0.59182 0.25625 0.48269 0.0
O16 O 0.62289 0.19243 0.52589 0.0
C17 C 0.53536 0.19835 0.38255 0.0
O18 O 0.53926 0.13018 0.5007 0.0
Co19 Co 0.45403 0.1937 0.47101 0.0
O20 O 0.4638 0.12521 0.47183 0.0
C21 C 0.49253 0.22312 0.59892 0.0
C22 C 0.62761 0.23581 0.50854 0.0
C23 C 0.50199 0.10649 0.48996 0.0
O24 O 0.53371 0.21288 0.57857 0.0
O25 O 0.45723 0.2248 0.56031 0.0
O26 O 0.57694 0.18421 0.3969 0.0
O27 O 0.51157 0.21488 0.43159 0.0
Co28 Co 0.81315 0.56772 -0.0003 0.0
O29 O 0.75271 0.5956 0.99196 0.0
O30 O 0.81678 0.63368 0.01994 0.0
C31 C 0.80933 0.52989 0.90192 0.0
O32 O 0.88195 0.55096 0.00868 0.0
Co33 Co 0.82134 0.46111 0.00923 0.0
O34 O 0.8893 0.47299 0.00931 0.0
C35 C 0.79427 0.51303 0.12719 0.0
C36 C 0.77258 0.63477 0.0059 0.0
C37 C 0.90667 0.51365 0.01063 0.0
O38 O 0.8022 0.55151 0.09636 0.0
O39 O 0.79493 0.47327 0.09908 0.0
O40 O 0.82164 0.57315 0.90463 0.0
O41 O 0.79548 0.51161 0.95722 0.0
Co42 Co 0.43261 0.81348 0.48608 0.0
O43 O 0.40236 0.75406 0.4804 0.0
O44 O 0.36677 0.81999 0.50573 0.0
C45 C 0.47116 0.80663 0.38897 0.0
O46 O 0.45163 0.88192 0.49234 0.0
Co47 Co 0.53849 0.81858 0.499 0.0
O48 O 0.52958 0.88691 0.49609 0.0
C49 C 0.48492 0.79227 0.61545 0.0
C50 C 0.36401 0.77559 0.49406 0.0
C51 C 0.48954 0.90575 0.4949 0.0
O52 O 0.44747 0.80267 0.58346 0.0
O53 O 0.52515 0.79193 0.58871 0.0
O54 O 0.42833 0.8206 0.39065 0.0
O55 O 0.48849 0.79305 0.44515 0.0
Co56 Co 0.19685 0.56521 0.52333 0.0
O57 O 0.25316 0.60073 0.52161 0.0
O58 O 0.18476 0.62639 0.48589 0.0
C59 C 0.20432 0.54071 0.62861 0.0
O60 O 0.13126 0.53719 0.52112 0.0
Co61 Co 0.20548 0.45816 0.5403 0.0
O62 O 0.13654 0.45996 0.53981 0.0
C63 C 0.22341 0.49971 0.4101 0.0
C64 C 0.22861 0.63446 0.49756 0.0
C65 C 0.11268 0.49663 0.52951 0.0
O66 O 0.21006 0.53934 0.43238 0.0
O67 O 0.22853 0.4636 0.44656 0.0
O68 O 0.18787 0.58167 0.61561 0.0
O69 O 0.22081 0.51809 0.57833 0.0
Co70 Co 0.43473 0.18872 0.01218 0.0
O71 O 0.40416 0.2475 0.02359 0.0
O72 O 0.36953 0.18322 0.98828 0.0
C73 C 0.47113 0.18979 0.11134 0.0
O74 O 0.45427 0.12102 -0.00208 0.0
Co75 Co 0.5408 0.18365 0.00335 0.0
O76 O 0.53216 0.11536 0.00446 0.0
C77 C 0.48907 0.21244 0.8854 0.0
C78 C 0.36641 0.22685 0.00464 0.0
C79 C 0.49205 0.09694 -0.00051 0.0
O80 O 0.45106 0.20526 0.91751 0.0
O81 O 0.52934 0.20866 0.91176 0.0
O82 O 0.42844 0.17585 0.10613 0.0
O83 O 0.48978 0.20669 0.05783 0.0
Co84 Co 0.81542 0.43538 0.52996 0.0
O85 O 0.75416 0.409 0.53549 0.0
O86 O 0.81617 0.37181 0.49753 0.0
C87 C 0.81342 0.46413 0.63345 0.0
O88 O 0.88473 0.45107 0.52006 0.0
Co89 Co 0.8299 0.54176 0.5416 0.0
O90 O 0.89646 0.52533 0.55097 0.0
C91 C 0.80134 0.5015 0.41326 0.0
C92 C 0.77225 0.37092 0.51319 0.0
C93 C 0.91173 0.48564 0.53359 0.0
O94 O 0.80253 0.46038 0.43849 0.0
O95 O 0.80899 0.53862 0.44646 0.0
O96 O 0.82499 0.42123 0.62275 0.0
O97 O 0.80094 0.48784 0.58176 0.0
Co98 Co 0.56328 0.80687 0.01413 0.0
O99 O 0.59487 0.74818 0.01366 0.0
O100 O 0.62532 0.81449 0.97761 0.0
C101 C 0.53831 0.80101 0.1199 0.0
O102 O 0.54076 0.87428 0.0104 0.0
Co103 Co 0.45573 0.80751 0.03256 0.0
O104 O 0.46398 0.87595 0.03372 0.0
C105 C 0.49498 0.78602 0.90156 0.0
C106 C 0.63056 0.77046 0.99078 0.0
C107 C 0.5022 0.89626 0.0199 0.0
O108 O 0.53608 0.79521 0.92325 0.0
O109 O 0.45879 0.78467 0.93848 0.0
O110 O 0.58021 0.81465 0.10654 0.0
O111 O 0.51443 0.78694 0.06927 0.0
C112 C 0.18454 0.47293 0.23472 0.0
C113 C 0.22306 0.48942 0.19721 0.0
C114 C 0.26243 0.5132 0.29995 0.0
C115 C 0.22532 0.49384 0.33725 0.0
N116 N 0.15403 0.44929 0.34139 0.0
N117 N 0.30165 0.51829 0.1934 0.0
C118 C 0.18757 0.47146 0.30496 0.0
C119 C 0.26292 0.50763 0.22967 0.0
N120 N 0.14364 0.46185 0.20367 0.0
N121 N 0.29667 0.53758 0.33162 0.0
H122 H 0.30317 0.51403 0.14203 0.0
H123 H 0.3334 0.52751 0.21446 0.0
H124 H 0.29831 0.54063 0.38316 0.0
H125 H 0.32176 0.55713 0.30688 0.0
H126 H 0.11264 0.45565 0.22886 0.0
H127 H 0.13903 0.46301 0.15245 0.0
H128 H 0.12928 0.42724 0.32056 0.0
H129 H 0.15255 0.45012 0.39304 0.0
C130 C 0.5111 0.25898 0.71027 0.0
C131 C 0.485 0.22671 0.67195 0.0
C132 C 0.46289 0.18523 0.77358 0.0
C133 C 0.48622 0.21908 0.81234 0.0
N134 N 0.52504 0.29318 0.81872 0.0
N135 N 0.42516 0.16685 0.67045 0.0
C136 C 0.50821 0.25751 0.78099 0.0
C137 C 0.45707 0.19271 0.70458 0.0
N138 N 0.53879 0.29087 0.6791 0.0
N139 N 0.4493 0.14392 0.80139 0.0
H140 H 0.41957 0.16909 0.61966 0.0
H141 H 0.40065 0.14585 0.69407 0.0
H142 H 0.45493 0.13528 0.851 0.0
H143 H 0.43731 0.11589 0.77349 0.0
H144 H 0.56308 0.31136 0.70387 0.0
H145 H 0.53893 0.29536 0.6277 0.0
H146 H 0.53752 0.3242 0.79882 0.0
H147 H 0.52269 0.29343 0.87038 0.0
C148 C 0.83636 0.4885 0.30185 0.0
C149 C 0.79864 0.5056 0.34014 0.0
C150 C 0.75745 0.52911 0.23839 0.0
C151 C 0.79564 0.51283 0.20056 0.0
N152 N 0.87463 0.48456 0.19523 0.0
N153 N 0.72556 0.54624 0.3475 0.0
C154 C 0.83589 0.49447 0.23206 0.0
C155 C 0.75988 0.52737 0.30915 0.0
N156 N 0.87282 0.46635 0.3322 0.0
N157 N 0.71844 0.54462 0.20643 0.0
H158 H 0.72509 0.54327 0.3991 0.0
H159 H 0.69865 0.56667 0.32899 0.0
H160 H 0.71623 0.547 0.15483 0.0
H161 H 0.68744 0.55289 0.23019 0.0
H162 H 0.89758 0.44686 0.30691 0.0
H163 H 0.87755 0.46524 0.38342 0.0
H164 H 0.90707 0.47705 0.2155 0.0
H165 H 0.87576 0.4874 0.14376 0.0
C166 C 0.4711 0.82553 0.79673 0.0
C167 C 0.48802 0.78492 0.82879 0.0
C168 C 0.49503 0.74606 0.72086 0.0
C169 C 0.48304 0.78839 0.6888 0.0
N170 N 0.47036 0.87115 0.69605 0.0
N171 N 0.52019 0.70777 0.82248 0.0
C172 C 0.47351 0.8288 0.72665 0.0
C173 C 0.50116 0.74542 0.79115 0.0
N174 N 0.45321 0.8614 0.83312 0.0
N175 N 0.49961 0.70644 0.68417 0.0
H176 H 0.52345 0.70567 0.87399 0.0
H177 H 0.5352 0.67993 0.79749 0.0
H178 H 0.49523 0.70601 0.63275 0.0
H179 H 0.50403 0.67355 0.70489 0.0
H180 H 0.43556 0.88935 0.81187 0.0
H181 H 0.45265 0.86178 0.88482 0.0
H182 H 0.46868 0.90253 0.72163 0.0
H183 H 0.47465 0.87546 0.64511 0.0
C184 C 0.84527 0.46839 0.74812 0.0
C185 C 0.8107 0.48224 0.70201 0.0
C186 C 0.77103 0.52486 0.79054 0.0
C187 C 0.80364 0.50701 0.8369 0.0
N188 N 0.85932 0.44709 0.8617 0.0
N189 N 0.73312 0.51322 0.68475 0.0
C190 C 0.83684 0.47406 0.81641 0.0
C191 C 0.77134 0.50779 0.72439 0.0
N192 N 0.88712 0.45179 0.72692 0.0
N193 N 0.73939 0.55755 0.80983 0.0
H194 H 0.73015 0.49861 0.63774 0.0
H195 H 0.70215 0.52788 0.70144 0.0
H196 H 0.73535 0.5676 0.8592 0.0
H197 H 0.71876 0.57598 0.77634 0.0
H198 H 0.91456 0.44452 0.75919 0.0
H199 H 0.89615 0.45137 0.67696 0.0
H200 H 0.88205 0.42044 0.84844 0.0
H201 H 0.84978 0.4473 0.9113 0.0
C202 C 0.53744 0.83438 0.23467 0.0
C203 C 0.52098 0.80028 0.18938 0.0
C204 C 0.47417 0.76612 0.27882 0.0
C205 C 0.49401 0.79812 0.32428 0.0
N206 N 0.55854 0.84852 0.3484 0.0
N207 N 0.48461 0.72473 0.17567 0.0
C208 C 0.53022 0.82766 0.30328 0.0
C209 C 0.49221 0.76352 0.2132 0.0
N210 N 0.55777 0.87453 0.21273 0.0
N211 N 0.43879 0.73759 0.29856 0.0
H212 H 0.50032 0.71908 0.1299 0.0
H213 H 0.4672 0.6955 0.19354 0.0
H214 H 0.42788 0.73522 0.3478 0.0
H215 H 0.41915 0.71788 0.26543 0.0
H216 H 0.56676 0.90156 0.2447 0.0
H217 H 0.56 0.88353 0.16272 0.0
H218 H 0.58777 0.86781 0.33483 0.0
H219 H 0.55584 0.8416 0.39883 0.0
C220 C 0.16129 0.51634 0.80263 0.0
C221 C 0.19996 0.49327 0.8311 0.0
C222 C 0.24343 0.5036 0.72742 0.0
C223 C 0.20274 0.52187 0.69695 0.0
N224 N 0.12017 0.53777 0.70289 0.0
N225 N 0.27589 0.45877 0.81831 0.0
C226 C 0.16092 0.52613 0.73384 0.0
C227 C 0.24051 0.48504 0.7928 0.0
N228 N 0.1252 0.53004 0.84167 0.0
N229 N 0.28536 0.50628 0.69572 0.0
H230 H 0.27588 0.4461 0.86685 0.0
H231 H 0.30369 0.44686 0.78992 0.0
H232 H 0.28951 0.52096 0.64877 0.0
H233 H 0.31684 0.49805 0.71851 0.0
H234 H 0.09837 0.55164 0.82558 0.0
H235 H 0.12479 0.5236 0.89213 0.0
H236 H 0.08781 0.53604 0.72598 0.0
H237 H 0.11754 0.54416 0.6522 0.0
C238 C 0.51687 0.15417 0.27921 0.0
C239 C 0.51798 0.19718 0.31328 0.0
C240 C 0.49001 0.23678 0.21285 0.0
C241 C 0.49269 0.19408 0.1778 0.0
N242 N 0.51846 0.11458 0.17415 0.0
N243 N 0.51395 0.28098 0.30942 0.0
C244 C 0.5091 0.15356 0.21001 0.0
C245 C 0.50678 0.23904 0.27933 0.0
N246 N 0.52107 0.1135 0.31354 0.0
N247 N 0.4702 0.27478 0.18341 0.0
H248 H 0.52643 0.28413 0.3578 0.0
H249 H 0.51125 0.31268 0.28463 0.0
H250 H 0.45898 0.27492 0.13418 0.0
H251 H 0.46213 0.30513 0.20902 0.0
H252 H 0.51534 0.08083 0.29286 0.0
H253 H 0.5253 0.11286 0.36454 0.0
H254 H 0.53507 0.08535 0.19351 0.0
H255 H 0.51408 0.11361 0.12321 0.0
C256 C 0.98277 0.52968 0.06821 0.0
C257 C 0.95804 0.51676 0.01023 0.0
C258 C 0.02935 0.48659 0.9601 0.0
C259 C 0.05497 0.50144 0.01655 0.0
N260 N 0.05756 0.54113 0.12195 0.0
N261 N 0.95934 0.49642 0.89474 0.0
C262 C 0.03207 0.52435 0.0699 0.0
C263 C 0.98184 0.49906 0.95438 0.0
N264 N 0.95899 0.54595 0.12203 0.0
N265 N 0.05003 0.46039 0.91191 0.0
H266 H 0.92539 0.50843 0.88843 0.0
H267 H 0.97576 0.4879 0.85035 0.0
H268 H 0.08493 0.45093 0.91277 0.0
H269 H 0.03155 0.44454 0.87365 0.0
H270 H 0.97371 0.55029 0.16881 0.0
H271 H 0.92358 0.55365 0.12047 0.0
H272 H 0.04409 0.56276 0.15851 0.0
H273 H 0.09313 0.53508 0.12724 0.0
C274 C 0.46429 0.98408 0.54093 0.0
C275 C 0.48812 0.95752 0.49228 0.0
C276 C 0.52979 0.02721 0.45544 0.0
C277 C 0.50238 0.05499 0.4982 0.0
N278 N 0.44297 0.06037 0.58218 0.0
N279 N 0.53078 0.9574 0.38962 0.0
C280 C 0.4693 0.03346 0.54099 0.0
C281 C 0.51726 0.98019 0.44569 0.0
N282 N 0.43809 0.96231 0.5882 0.0
N283 N 0.56826 0.04491 0.42474 0.0
H284 H 0.51795 0.92455 0.37793 0.0
H285 H 0.54891 0.97346 0.35108 0.0
H286 H 0.58031 0.07859 0.43225 0.0
H287 H 0.59118 0.02433 0.39757 0.0
H288 H 0.42524 0.97883 0.63026 0.0
H289 H 0.43052 0.92698 0.58699 0.0
H290 H 0.41406 0.04822 0.60801 0.0
H291 H 0.44953 0.09564 0.58902 0.0
C292 C 0.03772 0.46467 0.57665 0.0
C293 C 0.06103 0.49148 0.52725 0.0
C294 C 0.98558 0.50986 0.47625 0.0
C295 C 0.96288 0.48146 0.52414 0.0
N296 N 0.96936 0.41958 0.60438 0.0
N297 N 0.05753 0.52778 0.41905 0.0
C298 C 0.98959 0.45479 0.56922 0.0
C299 C 0.03509 0.51082 0.47381 0.0
N300 N 0.06064 0.45052 0.63263 0.0
N301 N 0.95982 0.53587 0.43287 0.0
H302 H 0.09358 0.52698 0.41366 0.0
H303 H 0.04032 0.53804 0.37595 0.0
H304 H 0.92371 0.53328 0.4294 0.0
H305 H 0.97413 0.56156 0.4026 0.0
H306 H 0.04375 0.4355 0.67309 0.0
H307 H 0.09543 0.45803 0.64209 0.0
H308 H 0.98825 0.39649 0.63384 0.0
H309 H 0.93477 0.4099 0.59773 0.0
C310 C 0.51349 0.97006 0.9535 0.0
C311 C 0.50096 0.9478 0.014 0.0
C312 C 0.47219 0.0221 0.05747 0.0
C313 C 0.48972 0.0453 0.00042 0.0
N314 N 0.52959 0.04227 0.8953 0.0
N315 N 0.47648 0.95411 0.12814 0.0
C316 C 0.51126 0.01948 0.94885 0.0
C317 C 0.48238 0.97424 0.06714 0.0
N318 N 0.52531 0.94398 0.89941 0.0
N319 N 0.44549 0.04546 0.10249 0.0
H320 H 0.48421 0.91934 0.13783 0.0
H321 H 0.46841 0.97286 0.17076 0.0
H322 H 0.43757 0.08063 0.09851 0.0
H323 H 0.42759 0.029 0.14085 0.0
H324 H 0.52932 0.95775 0.85193 0.0
H325 H 0.52758 0.90784 0.90045 0.0
H326 H 0.551 0.02638 0.86041 0.0
H327 H 0.52519 0.07786 0.88732 0.0
C328 C 0.27158 0.30491 0.06909 0.0
C329 C 0.25282 0.32174 0.00866 0.0
C330 C 0.30128 0.26756 0.94526 0.0
C331 C 0.32178 0.25241 0.00551 0.0
N332 N 0.31865 0.24643 0.12457 0.0
N333 N 0.23972 0.31182 0.8917 0.0
C334 C 0.30415 0.26773 0.06748 0.0
C335 C 0.26429 0.30037 0.94748 0.0
N336 N 0.26023 0.32624 0.12743 0.0
N337 N 0.31905 0.25274 0.88606 0.0
H338 H 0.21232 0.33561 0.89248 0.0
H339 H 0.24348 0.29497 0.84637 0.0
H340 H 0.34533 0.22787 0.88282 0.0
H341 H 0.30953 0.26661 0.84028 0.0
H342 H 0.27696 0.31966 0.1723 0.0
H343 H 0.23521 0.35241 0.13038 0.0
H344 H 0.30449 0.25312 0.17109 0.0
H345 H 0.34213 0.21878 0.12448 0.0
C346 C 0.72869 0.30904 0.45095 0.0
C347 C 0.74401 0.32786 0.51203 0.0
C348 C 0.68864 0.27874 0.57299 0.0
C349 C 0.67253 0.2608 0.51185 0.0
N350 N 0.68478 0.24861 0.39499 0.0
N351 N 0.7486 0.32187 0.63112 0.0
C352 C 0.6952 0.27261 0.45152 0.0
C353 C 0.72719 0.30974 0.57312 0.0
N354 N 0.74416 0.32767 0.39254 0.0
N355 N 0.66562 0.26811 0.63038 0.0
H356 H 0.77756 0.34368 0.63243 0.0
H357 H 0.74076 0.30689 0.67684 0.0
H358 H 0.63811 0.24447 0.63215 0.0
H359 H 0.67195 0.28458 0.67546 0.0
H360 H 0.73009 0.31944 0.34642 0.0
H361 H 0.7695 0.3536 0.39043 0.0
H362 H 0.70274 0.25264 0.35051 0.0
H363 H 0.661 0.22122 0.39443 0.0
C364 C 0.73458 0.70562 0.05509 0.0
C365 C 0.74601 0.67865 -0.00128 0.0
C366 C 0.68879 0.72117 0.93155 0.0
C367 C 0.67615 0.74685 0.98843 0.0
N368 N 0.69492 0.77369 0.09823 0.0
N369 N 0.74521 0.67024 0.8798 0.0
C370 C 0.70198 0.74255 0.04817 0.0
C371 C 0.72669 0.68961 0.93567 0.0
N372 N 0.7526 0.69419 0.11575 0.0
N373 N 0.66332 0.72557 0.87459 0.0
H374 H 0.77409 0.64837 0.8814 0.0
H375 H 0.73522 0.67943 0.83186 0.0
H376 H 0.63669 0.74999 0.86945 0.0
H377 H 0.66702 0.7037 0.83384 0.0
H378 H 0.74137 0.70888 0.16009 0.0
H379 H 0.77713 0.66787 0.12226 0.0
H380 H 0.71508 0.7749 0.14114 0.0
H381 H 0.67171 0.80138 0.09371 0.0
C382 C 0.30657 0.72882 0.42997 0.0
C383 C 0.31923 0.75017 0.49084 0.0
C384 C 0.25621 0.70852 0.54698 0.0
C385 C 0.25035 0.68066 0.48964 0.0
N386 N 0.26827 0.66391 0.3757 0.0
N387 N 0.30611 0.76169 0.60772 0.0
C388 C 0.27444 0.69126 0.43039 0.0
C389 C 0.29332 0.74127 0.5493 0.0
N390 N 0.32516 0.7449 0.37191 0.0
N391 N 0.22658 0.70289 0.59936 0.0
H392 H 0.33261 0.78635 0.61086 0.0
H393 H 0.29227 0.75251 0.65363 0.0
H394 H 0.19914 0.67914 0.59828 0.0
H395 H 0.2264 0.72439 0.64084 0.0
H396 H 0.31488 0.73331 0.32524 0.0
H397 H 0.34774 0.77329 0.37033 0.0
H398 H 0.289 0.66597 0.33346 0.0
H399 H 0.24338 0.63749 0.37395 0.0
loop_
_geom_bond_atom_site_label_1
_geom_bond_atom_site_label_2
_geom_bond_distance
_geom_bond_site_symmetry_2
_ccdc_geom_bond_type
Co0 O1 2.216 1_556 S
Co0 O2 2.091 1_556 S
Co0 O4 2.004 . S
Co0 O10 2.021 1_556 S
Co0 O12 2.137 . S
Co0 O13 2.244 . S
O1 Co0 2.216 1_554 S
O1 C8 1.247 . S
O2 Co0 2.091 1_554 S
O2 C8 1.261 . S
C3 O12 1.247 . S
C3 O13 1.272 . S
O4 Co0 2.004 . S
O4 C9 1.259 1_556 S
Co5 O6 2.061 . S
Co5 O11 2.052 . S
Co5 O13 2.135 1_554 S
O6 Co5 2.061 . S
O6 C9 1.235 . S
C7 O10 1.238 . S
C7 O11 1.241 . S
C8 O1 1.247 . S
C8 O2 1.261 . S
C9 O4 1.259 1_554 S
C9 O6 1.235 . S
O10 Co0 2.021 1_554 S
O10 C7 1.238 . S
O11 Co5 2.052 . S
O11 C7 1.241 . S
O12 Co0 2.137 . S
O12 C3 1.247 . S
O13 Co0 2.244 . S
O13 C3 1.272 . S
O13 Co5 2.135 1_556 S
Co14 O15 2.216 . S
Co14 O16 2.091 . S
Co14 O18 2.004 . S
Co14 O24 2.021 . S
Co14 O26 2.137 . S
Co14 O27 2.244 . S
O15 Co14 2.216 . S
O15 C22 1.247 . S
O16 Co14 2.091 . S
O16 C22 1.261 . S
C17 O26 1.247 . S
C17 O27 1.272 . S
O18 Co14 2.004 . S
O18 C23 1.259 . S
Co19 O20 2.061 . S
Co19 O25 2.052 . S
Co19 O27 2.135 . S
O20 Co19 2.061 . S
O20 C23 1.235 . S
C21 O24 1.238 . S
C21 O25 1.241 . S
C22 O15 1.247 . S
C22 O16 1.261 . S
C23 O18 1.259 . S
C23 O20 1.235 . S
O24 Co14 2.021 . S
O24 C21 1.238 . S
O25 Co19 2.052 . S
O25 C21 1.241 . S
O26 Co14 2.137 . S
O26 C17 1.247 . S
O27 Co14 2.244 . S
O27 C17 1.272 . S
O27 Co19 2.135 . S
Co28 O29 2.216 1_556 S
Co28 O30 2.091 1_556 S
Co28 O32 2.004 . S
Co28 O38 2.021 1_556 S
Co28 O40 2.137 . S
Co28 O41 2.244 . S
O29 Co28 2.216 1_554 S
O29 C36 1.247 . S
O30 Co28 2.091 1_554 S
O30 C36 1.261 . S
C31 O40 1.247 . S
C31 O41 1.272 . S
O32 Co28 2.004 . S
O32 C37 1.259 1_556 S
Co33 O34 2.061 . S
Co33 O39 2.052 . S
Co33 O41 2.135 1_554 S
O34 Co33 2.061 . S
O34 C37 1.235 . S
C35 O38 1.238 . S
C35 O39 1.241 . S
C36 O29 1.247 . S
C36 O30 1.261 . S
C37 O32 1.259 1_554 S
C37 O34 1.235 . S
O38 Co28 2.021 1_554 S
O38 C35 1.238 . S
O39 Co33 2.052 . S
O39 C35 1.241 . S
O40 Co28 2.137 . S
O40 C31 1.247 . S
O41 Co28 2.244 . S
O41 C31 1.272 . S
O41 Co33 2.135 1_556 S
Co42 O43 2.216 . S
Co42 O44 2.091 . S
Co42 O46 2.004 . S
Co42 O52 2.021 . S
Co42 O54 2.137 . S
Co42 O55 2.244 . S
O43 Co42 2.216 . S
O43 C50 1.247 . S
O44 Co42 2.091 . S
O44 C50 1.261 . S
C45 O54 1.247 . S
C45 O55 1.272 . S
O46 Co42 2.004 . S
O46 C51 1.259 . S
Co47 O48 2.061 . S
Co47 O53 2.052 . S
Co47 O55 2.135 . S
O48 Co47 2.061 . S
O48 C51 1.235 . S
C49 O52 1.238 . S
C49 O53 1.241 . S
C50 O43 1.247 . S
C50 O44 1.261 . S
C51 O46 1.259 . S
C51 O48 1.235 . S
O52 Co42 2.021 . S
O52 C49 1.238 . S
O53 Co47 2.052 . S
O53 C49 1.241 . S
O54 Co42 2.137 . S
O54 C45 1.247 . S
O55 Co42 2.244 . S
O55 C45 1.272 . S
O55 Co47 2.135 . S
Co56 O57 2.216 . S
Co56 O58 2.091 . S
Co56 O60 2.004 . S
Co56 O66 2.021 . S
Co56 O68 2.137 . S
Co56 O69 2.244 . S
O57 Co56 2.216 . S
O57 C64 1.247 . S
O58 Co56 2.091 . S
O58 C64 1.261 . S
C59 O68 1.247 . S
C59 O69 1.272 . S
O60 Co56 2.004 . S
O60 C65 1.259 . S
Co61 O62 2.061 . S
Co61 O67 2.052 . S
Co61 O69 2.135 . S
O62 Co61 2.061 . S
O62 C65 1.235 . S
C63 O66 1.238 . S
C63 O67 1.241 . S
C64 O57 1.247 . S
C64 O58 1.261 . S
C65 O60 1.259 . S
C65 O62 1.235 . S
O66 Co56 2.021 . S
O66 C63 1.238 . S
O67 Co61 2.052 . S
O67 C63 1.241 . S
O68 Co56 2.137 . S
O68 C59 1.247 . S
O69 Co56 2.244 . S
O69 C59 1.272 . S
O69 Co61 2.135 . S
Co70 O71 2.216 . S
Co70 O72 2.091 . S
Co70 O74 2.004 . S
Co70 O80 2.021 1_554 S
Co70 O82 2.137 . S
Co70 O83 2.244 . S
O71 Co70 2.216 . S
O71 C78 1.247 . S
O72 Co70 2.091 . S
O72 C78 1.261 . S
C73 O82 1.247 . S
C73 O83 1.272 . S
O74 Co70 2.004 . S
O74 C79 1.259 . S
Co75 O76 2.061 . S
Co75 O81 2.052 1_554 S
Co75 O83 2.135 . S
O76 Co75 2.061 . S
O76 C79 1.235 . S
C77 O80 1.238 . S
C77 O81 1.241 . S
C78 O71 1.247 . S
C78 O72 1.261 . S
C79 O74 1.259 . S
C79 O76 1.235 . S
O80 Co70 2.021 1_556 S
O80 C77 1.238 . S
O81 Co75 2.052 1_556 S
O81 C77 1.241 . S
O82 Co70 2.137 . S
O82 C73 1.247 . S
O83 Co70 2.244 . S
O83 C73 1.272 . S
O83 Co75 2.135 . S
Co84 O85 2.216 . S
Co84 O86 2.091 . S
Co84 O88 2.004 . S
Co84 O94 2.021 . S
Co84 O96 2.137 . S
Co84 O97 2.244 . S
O85 Co84 2.216 . S
O85 C92 1.247 . S
O86 Co84 2.091 . S
O86 C92 1.261 . S
C87 O96 1.247 . S
C87 O97 1.272 . S
O88 Co84 2.004 . S
O88 C93 1.259 . S
Co89 O90 2.061 . S
Co89 O95 2.052 . S
Co89 O97 2.135 . S
O90 Co89 2.061 . S
O90 C93 1.235 . S
C91 O94 1.238 . S
C91 O95 1.241 . S
C92 O85 1.247 . S
C92 O86 1.261 . S
C93 O88 1.259 . S
C93 O90 1.235 . S
O94 Co84 2.021 . S
O94 C91 1.238 . S
O95 Co89 2.052 . S
O95 C91 1.241 . S
O96 Co84 2.137 . S
O96 C87 1.247 . S
O97 Co84 2.244 . S
O97 C87 1.272 . S
O97 Co89 2.135 . S
Co98 O99 2.216 . S
Co98 O100 2.091 . S
Co98 O102 2.004 . S
Co98 O108 2.021 1_554 S
Co98 O110 2.137 . S
Co98 O111 2.244 . S
O99 Co98 2.216 . S
O99 C106 1.247 . S
O100 Co98 2.091 . S
O100 C106 1.261 . S
C101 O110 1.247 . S
C101 O111 1.272 . S
O102 Co98 2.004 . S
O102 C107 1.259 . S
Co103 O104 2.061 . S
Co103 O109 2.052 1_554 S
Co103 O111 2.135 . S
O104 Co103 2.061 . S
O104 C107 1.235 . S
C105 O108 1.238 . S
C105 O109 1.241 . S
C106 O99 1.247 . S
C106 O100 1.261 . S
C107 O102 1.259 . S
C107 O104 1.235 . S
O108 Co98 2.021 1_556 S
O108 C105 1.238 . S
O109 Co103 2.052 1_556 S
O109 C105 1.241 . S
O110 Co98 2.137 . S
O110 C101 1.247 . S
O111 Co98 2.244 . S
O111 C101 1.272 . S
O111 Co103 2.135 . S
C112 C113 1.363 . S
C112 C118 1.379 . S
C112 N120 1.356 . S
C113 C112 1.363 . S
C113 C119 1.363 . S
C114 C115 1.363 . S
C114 C119 1.379 . S
C114 N121 1.356 . S
C115 C114 1.363 . S
C115 C118 1.363 . S
N116 C118 1.356 . S
N116 H128 0.984 . S
N116 H129 0.985 . S
N117 C119 1.356 . S
N117 H122 0.984 . S
N117 H123 0.985 . S
C118 C112 1.379 . S
C118 C115 1.363 . S
C118 N116 1.356 . S
C119 C113 1.363 . S
C119 C114 1.379 . S
C119 N117 1.356 . S
N120 C112 1.356 . S
N120 H126 0.984 . S
N120 H127 0.984 . S
N121 C114 1.356 . S
N121 H124 0.984 . S
N121 H125 0.985 . S
H122 N117 0.984 . S
H123 N117 0.985 . S
H124 N121 0.984 . S
H125 N121 0.985 . S
H126 N120 0.984 . S
H127 N120 0.984 . S
H128 N116 0.984 . S
H129 N116 0.985 . S
C130 C131 1.363 . S
C130 C136 1.379 . S
C130 N138 1.356 . S
C131 C130 1.363 . S
C131 C137 1.363 . S
C132 C133 1.363 . S
C132 C137 1.379 . S
C132 N139 1.356 . S
C133 C132 1.363 . S
C133 C136 1.363 . S
N134 C136 1.356 . S
N134 H146 0.984 . S
N134 H147 0.985 . S
N135 C137 1.356 . S
N135 H140 0.984 . S
N135 H141 0.985 . S
C136 C130 1.379 . S
C136 C133 1.363 . S
C136 N134 1.356 . S
C137 C131 1.363 . S
C137 C132 1.379 . S
C137 N135 1.356 . S
N138 C130 1.356 . S
N138 H144 0.984 . S
N138 H145 0.984 . S
N139 C132 1.356 . S
N139 H142 0.984 . S
N139 H143 0.985 . S
H140 N135 0.984 . S
H141 N135 0.985 . S
H142 N139 0.984 . S
H143 N139 0.985 . S
H144 N138 0.984 . S
H145 N138 0.984 . S
H146 N134 0.984 . S
H147 N134 0.985 . S
C148 C149 1.363 . S
C148 C154 1.379 . S
C148 N156 1.356 . S
C149 C148 1.363 . S
C149 C155 1.363 . S
C150 C151 1.363 . S
C150 C155 1.379 . S
C150 N157 1.356 . S
C151 C150 1.363 . S
C151 C154 1.363 . S
N152 C154 1.356 . S
N152 H164 0.984 . S
N152 H165 0.985 . S
N153 C155 1.356 . S
N153 H158 0.984 . S
N153 H159 0.985 . S
C154 C148 1.379 . S
C154 C151 1.363 . S
C154 N152 1.356 . S
C155 C149 1.363 . S
C155 C150 1.379 . S
C155 N153 1.356 . S
N156 C148 1.356 . S
N156 H162 0.984 . S
N156 H163 0.984 . S
N157 C150 1.356 . S
N157 H160 0.984 . S
N157 H161 0.985 . S
H158 N153 0.984 . S
H159 N153 0.985 . S
H160 N157 0.984 . S
H161 N157 0.985 . S
H162 N156 0.984 . S
H163 N156 0.984 . S
H164 N152 0.984 . S
H165 N152 0.985 . S
C166 C167 1.363 . S
C166 C172 1.379 . S
C166 N174 1.356 . S
C167 C166 1.363 . S
C167 C173 1.363 . S
C168 C169 1.363 . S
C168 C173 1.379 . S
C168 N175 1.356 . S
C169 C168 1.363 . S
C169 C172 1.363 . S
N170 C172 1.356 . S
N170 H182 0.984 . S
N170 H183 0.985 . S
N171 C173 1.356 . S
N171 H176 0.984 . S
N171 H177 0.985 . S
C172 C166 1.379 . S
C172 C169 1.363 . S
C172 N170 1.356 . S
C173 C167 1.363 . S
C173 C168 1.379 . S
C173 N171 1.356 . S
N174 C166 1.356 . S
N174 H180 0.984 . S
N174 H181 0.984 . S
N175 C168 1.356 . S
N175 H178 0.984 . S
N175 H179 0.985 . S
H176 N171 0.984 . S
H177 N171 0.985 . S
H178 N175 0.984 . S
H179 N175 0.985 . S
H180 N174 0.984 . S
H181 N174 0.984 . S
H182 N170 0.984 . S
H183 N170 0.985 . S
C184 C185 1.363 . S
C184 C190 1.379 . S
C184 N192 1.356 . S
C185 C184 1.363 . S
C185 C191 1.363 . S
C186 C187 1.363 . S
C186 C191 1.379 . S
C186 N193 1.356 . S
C187 C186 1.363 . S
C187 C190 1.363 . S
N188 C190 1.356 . S
N188 H200 0.984 . S
N188 H201 0.985 . S
N189 C191 1.356 . S
N189 H194 0.984 . S
N189 H195 0.985 . S
C190 C184 1.379 . S
C190 C187 1.363 . S
C190 N188 1.356 . S
C191 C185 1.363 . S
C191 C186 1.379 . S
C191 N189 1.356 . S
N192 C184 1.356 . S
N192 H198 0.984 . S
N192 H199 0.984 . S
N193 C186 1.356 . S
N193 H196 0.984 . S
N193 H197 0.985 . S
H194 N189 0.984 . S
H195 N189 0.985 . S
H196 N193 0.984 . S
H197 N193 0.985 . S
H198 N192 0.984 . S
H199 N192 0.984 . S
H200 N188 0.984 . S
H201 N188 0.985 . S
C202 C203 1.363 . S
C202 C208 1.379 . S
C202 N210 1.356 . S
C203 C202 1.363 . S
C203 C209 1.363 . S
C204 C205 1.363 . S
C204 C209 1.379 . S
C204 N211 1.356 . S
C205 C204 1.363 . S
C205 C208 1.363 . S
N206 C208 1.356 . S
N206 H218 0.984 . S
N206 H219 0.985 . S
N207 C209 1.356 . S
N207 H212 0.984 . S
N207 H213 0.985 . S
C208 C202 1.379 . S
C208 C205 1.363 . S
C208 N206 1.356 . S
C209 C203 1.363 . S
C209 C204 1.379 . S
C209 N207 1.356 . S
N210 C202 1.356 . S
N210 H216 0.984 . S
N210 H217 0.984 . S
N211 C204 1.356 . S
N211 H214 0.984 . S
N211 H215 0.985 . S
H212 N207 0.984 . S
H213 N207 0.985 . S
H214 N211 0.984 . S
H215 N211 0.985 . S
H216 N210 0.984 . S
H217 N210 0.984 . S
H218 N206 0.984 . S
H219 N206 0.985 . S
C220 C221 1.363 . S
C220 C226 1.379 . S
C220 N228 1.356 . S
C221 C220 1.363 . S
C221 C227 1.363 . S
C222 C223 1.363 . S
C222 C227 1.379 . S
C222 N229 1.356 . S
C223 C222 1.363 . S
C223 C226 1.363 . S
N224 C226 1.356 . S
N224 H236 0.984 . S
N224 H237 0.985 . S
N225 C227 1.356 . S
N225 H230 0.984 . S
N225 H231 0.985 . S
C226 C220 1.379 . S
C226 C223 1.363 . S
C226 N224 1.356 . S
C227 C221 1.363 . S
C227 C222 1.379 . S
C227 N225 1.356 . S
N228 C220 1.356 . S
N228 H234 0.984 . S
N228 H235 0.984 . S
N229 C222 1.356 . S
N229 H232 0.984 . S
N229 H233 0.985 . S
H230 N225 0.984 . S
H231 N225 0.985 . S
H232 N229 0.984 . S
H233 N229 0.985 . S
H234 N228 0.984 . S
H235 N228 0.984 . S
H236 N224 0.984 . S
H237 N224 0.985 . S
C238 C239 1.363 . S
C238 C244 1.379 . S
C238 N246 1.356 . S
C239 C238 1.363 . S
C239 C245 1.363 . S
C240 C241 1.363 . S
C240 C245 1.379 . S
C240 N247 1.356 . S
C241 C240 1.363 . S
C241 C244 1.363 . S
N242 C244 1.356 . S
N242 H254 0.984 . S
N242 H255 0.985 . S
N243 C245 1.356 . S
N243 H248 0.984 . S
N243 H249 0.985 . S
C244 C238 1.379 . S
C244 C241 1.363 . S
C244 N242 1.356 . S
C245 C239 1.363 . S
C245 C240 1.379 . S
C245 N243 1.356 . S
N246 C238 1.356 . S
N246 H252 0.984 . S
N246 H253 0.984 . S
N247 C240 1.356 . S
N247 H250 0.984 . S
N247 H251 0.985 . S
H248 N243 0.984 . S
H249 N243 0.985 . S
H250 N247 0.984 . S
H251 N247 0.985 . S
H252 N246 0.984 . S
H253 N246 0.984 . S
H254 N242 0.984 . S
H255 N242 0.985 . S
C256 C257 1.363 . S
C256 C262 1.379 1_655 S
C256 N264 1.356 . S
C257 C256 1.363 . S
C257 C263 1.363 1_554 S
C258 C259 1.363 1_556 S
C258 C263 1.379 1_455 S
C258 N265 1.356 . S
C259 C258 1.363 1_554 S
C259 C262 1.363 . S
N260 C262 1.356 . S
N260 H272 0.984 . S
N260 H273 0.985 . S
N261 C263 1.356 . S
N261 H266 0.984 . S
N261 H267 0.985 . S
C262 C256 1.379 1_455 S
C262 C259 1.363 . S
C262 N260 1.356 . S
C263 C257 1.363 1_556 S
C263 C258 1.379 1_655 S
C263 N261 1.356 . S
N264 C256 1.356 . S
N264 H270 0.984 . S
N264 H271 0.984 . S
N265 C258 1.356 . S
N265 H268 0.984 . S
N265 H269 0.985 . S
H266 N261 0.984 . S
H267 N261 0.985 . S
H268 N265 0.984 . S
H269 N265 0.985 . S
H270 N264 0.984 . S
H271 N264 0.984 . S
H272 N260 0.984 . S
H273 N260 0.985 . S
C274 C275 1.363 . S
C274 C280 1.379 1_565 S
C274 N282 1.356 . S
C275 C274 1.363 . S
C275 C281 1.363 . S
C276 C277 1.363 . S
C276 C281 1.379 1_545 S
C276 N283 1.356 . S
C277 C276 1.363 . S
C277 C280 1.363 . S
N278 C280 1.356 . S
N278 H290 0.984 . S
N278 H291 0.985 . S
N279 C281 1.356 . S
N279 H284 0.984 . S
N279 H285 0.985 . S
C280 C274 1.379 1_545 S
C280 C277 1.363 . S
C280 N278 1.356 . S
C281 C275 1.363 . S
C281 C276 1.379 1_565 S
C281 N279 1.356 . S
N282 C274 1.356 . S
N282 H288 0.984 . S
N282 H289 0.984 . S
N283 C276 1.356 . S
N283 H286 0.984 . S
N283 H287 0.985 . S
H284 N279 0.984 . S
H285 N279 0.985 . S
H286 N283 0.984 . S
H287 N283 0.985 . S
H288 N282 0.984 . S
H289 N282 0.984 . S
H290 N278 0.984 . S
H291 N278 0.985 . S
C292 C293 1.363 . S
C292 C298 1.379 1_455 S
C292 N300 1.356 . S
C293 C292 1.363 . S
C293 C299 1.363 . S
C294 C295 1.363 . S
C294 C299 1.379 1_655 S
C294 N301 1.356 . S
C295 C294 1.363 . S
C295 C298 1.363 . S
N296 C298 1.356 . S
N296 H308 0.984 . S
N296 H309 0.985 . S
N297 C299 1.356 . S
N297 H302 0.984 . S
N297 H303 0.985 . S
C298 C292 1.379 1_655 S
C298 C295 1.363 . S
C298 N296 1.356 . S
C299 C293 1.363 . S
C299 C294 1.379 1_455 S
C299 N297 1.356 . S
N300 C292 1.356 . S
N300 H306 0.984 . S
N300 H307 0.984 . S
N301 C294 1.356 . S
N301 H304 0.984 . S
N301 H305 0.985 . S
H302 N297 0.984 . S
H303 N297 0.985 . S
H304 N301 0.984 . S
H305 N301 0.985 . S
H306 N300 0.984 . S
H307 N300 0.984 . S
H308 N296 0.984 . S
H309 N296 0.985 . S
C310 C311 1.363 1_556 S
C310 C316 1.379 1_565 S
C310 N318 1.356 . S
C311 C310 1.363 1_554 S
C311 C317 1.363 . S
C312 C313 1.363 . S
C312 C317 1.379 1_545 S
C312 N319 1.356 . S
C313 C312 1.363 . S
C313 C316 1.363 1_554 S
N314 C316 1.356 . S
N314 H326 0.984 . S
N314 H327 0.985 . S
N315 C317 1.356 . S
N315 H320 0.984 . S
N315 H321 0.985 . S
C316 C310 1.379 1_545 S
C316 C313 1.363 1_556 S
C316 N314 1.356 . S
C317 C311 1.363 . S
C317 C312 1.379 1_565 S
C317 N315 1.356 . S
N318 C310 1.356 . S
N318 H324 0.984 . S
N318 H325 0.984 . S
N319 C312 1.356 . S
N319 H322 0.984 . S
N319 H323 0.985 . S
H320 N315 0.984 . S
H321 N315 0.985 . S
H322 N319 0.984 . S
H323 N319 0.985 . S
H324 N318 0.984 . S
H325 N318 0.984 . S
H326 N314 0.984 . S
H327 N314 0.985 . S
C328 C329 1.363 . S
C328 C334 1.379 . S
C328 N336 1.356 . S
C329 C328 1.363 . S
C329 C335 1.363 1_554 S
C330 C331 1.363 1_556 S
C330 C335 1.379 . S
C330 N337 1.356 . S
C331 C330 1.363 1_554 S
C331 C334 1.363 . S
N332 C334 1.356 . S
N332 H344 0.984 . S
N332 H345 0.985 . S
N333 C335 1.356 . S
N333 H338 0.984 . S
N333 H339 0.985 . S
C334 C328 1.379 . S
C334 C331 1.363 . S
C334 N332 1.356 . S
C335 C329 1.363 1_556 S
C335 C330 1.379 . S
C335 N333 1.356 . S
N336 C328 1.356 . S
N336 H342 0.984 . S
N336 H343 0.984 . S
N337 C330 1.356 . S
N337 H340 0.984 . S
N337 H341 0.985 . S
H338 N333 0.984 . S
H339 N333 0.985 . S
H340 N337 0.984 . S
H341 N337 0.985 . S
H342 N336 0.984 . S
H343 N336 0.984 . S
H344 N332 0.984 . S
H345 N332 0.985 . S
C346 C347 1.363 . S
C346 C352 1.379 . S
C346 N354 1.356 . S
C347 C346 1.363 . S
C347 C353 1.363 . S
C348 C349 1.363 . S
C348 C353 1.379 . S
C348 N355 1.356 . S
C349 C348 1.363 . S
C349 C352 1.363 . S
N350 C352 1.356 . S
N350 H362 0.984 . S
N350 H363 0.985 . S
N351 C353 1.356 . S
N351 H356 0.984 . S
N351 H357 0.985 . S
C352 C346 1.379 . S
C352 C349 1.363 . S
C352 N350 1.356 . S
C353 C347 1.363 . S
C353 C348 1.379 . S
C353 N351 1.356 . S
N354 C346 1.356 . S
N354 H360 0.984 . S
N354 H361 0.984 . S
N355 C348 1.356 . S
N355 H358 0.984 . S
N355 H359 0.985 . S
H356 N351 0.984 . S
H357 N351 0.985 . S
H358 N355 0.984 . S
H359 N355 0.985 . S
H360 N354 0.984 . S
H361 N354 0.984 . S
H362 N350 0.984 . S
H363 N350 0.985 . S
C364 C365 1.363 . S
C364 C370 1.379 . S
C364 N372 1.356 . S
C365 C364 1.363 . S
C365 C371 1.363 1_554 S
C366 C367 1.363 1_556 S
C366 C371 1.379 . S
C366 N373 1.356 . S
C367 C366 1.363 1_554 S
C367 C370 1.363 . S
N368 C370 1.356 . S
N368 H380 0.984 . S
N368 H381 0.985 . S
N369 C371 1.356 . S
N369 H374 0.984 . S
N369 H375 0.985 . S
C370 C364 1.379 . S
C370 C367 1.363 . S
C370 N368 1.356 . S
C371 C365 1.363 1_556 S
C371 C366 1.379 . S
C371 N369 1.356 . S
N372 C364 1.356 . S
N372 H378 0.984 . S
N372 H379 0.984 . S
N373 C366 1.356 . S
N373 H376 0.984 . S
N373 H377 0.985 . S
H374 N369 0.984 . S
H375 N369 0.985 . S
H376 N373 0.984 . S
H377 N373 0.985 . S
H378 N372 0.984 . S
H379 N372 0.984 . S
H380 N368 0.984 . S
H381 N368 0.985 . S
C382 C383 1.363 . S
C382 C388 1.379 . S
C382 N390 1.356 . S
C383 C382 1.363 . S
C383 C389 1.363 . S
C384 C385 1.363 . S
C384 C389 1.379 . S
C384 N391 1.356 . S
C385 C384 1.363 . S
C385 C388 1.363 . S
N386 C388 1.356 . S
N386 H398 0.984 . S
N386 H399 0.985 . S
N387 C389 1.356 . S
N387 H392 0.984 . S
N387 H393 0.985 . S
C388 C382 1.379 . S
C388 C385 1.363 . S
C388 N386 1.356 . S
C389 C383 1.363 . S
C389 C384 1.379 . S
C389 N387 1.356 . S
N390 C382 1.356 . S
N390 H396 0.984 . S
N390 H397 0.984 . S
N391 C384 1.356 . S
N391 H394 0.984 . S
N391 H395 0.985 . S
H392 N387 0.984 . S
H393 N387 0.985 . S
H394 N391 0.984 . S
H395 N391 0.985 . S
H396 N390 0.984 . S
H397 N390 0.984 . S
H398 N386 0.984 . S
H399 N386 0.985 . S
C113 C7 1.447 . S
C115 C63 1.447 . S
C131 C21 1.447 . S
C133 C77 1.447 . S
C149 C91 1.447 . S
C151 C35 1.447 . S
C167 C105 1.447 . S
C169 C49 1.447 . S
C185 C87 1.338 . S
C187 C31 1.338 . S
C203 C101 1.338 . S
C205 C45 1.338 . S
C221 C3 1.338 . S
C223 C59 1.338 . S
C239 C17 1.338 . S
C241 C73 1.338 . S
C257 C37 1.393 . S
C259 C9 1.393 . S
C275 C51 1.393 . S
C277 C23 1.393 . S
C293 C65 1.393 . S
C295 C93 1.393 . S
C311 C107 1.393 . S
C313 C79 1.393 . S
C329 C8 1.402 . S
C331 C78 1.402 . S
C347 C92 1.402 . S
C349 C22 1.402 . S
C365 C36 1.402 . S
C367 C106 1.402 . S
C383 C50 1.402 . S
C385 C64 1.402 . S
