# Generated by pormake.
# Topology npo, (4)-cn, num edge types: 1
# Building blocks:
#     Node 0, Type 0, BuildingBlock: ICAMEG_clean_sbu_1, # of connection points: 4
#     Node 1, Type 0, BuildingBlock: ICAMEG_clean_sbu_1, # of connection points: 4
#     Node 2, Type 0, BuildingBlock: ICAMEG_clean_sbu_1, # of connection points: 4
#     Node 3, Type 0, BuildingBlock: ICAMEG_clean_sbu_1, # of connection points: 4
#     Node 4, Type 0, BuildingBlock: ICAMEG_clean_sbu_1, # of connection points: 4
#     Node 5, Type 0, BuildingBlock: ICAMEG_clean_sbu_1, # of connection points: 4
#     Edge 6, Type (0, 0), BuildingBlock: EYOCIG_clean_linker_4, # of connection points: 2
#     Edge 7, Type (0, 0), BuildingBlock: EYOCIG_clean_linker_4, # of connection points: 2
#     Edge 8, Type (0, 0), BuildingBlock: EYOCIG_clean_linker_4, # of connection points: 2
#     Edge 9, Type (0, 0), BuildingBlock: EYOCIG_clean_linker_4, # of connection points: 2
#     Edge 10, Type (0, 0), BuildingBlock: EYOCIG_clean_linker_4, # of connection points: 2
#     Edge 11, Type (0, 0), BuildingBlock: EYOCIG_clean_linker_4, # of connection points: 2
#     Edge 12, Type (0, 0), BuildingBlock: EYOCIG_clean_linker_4, # of connection points: 2
#     Edge 13, Type (0, 0), BuildingBlock: EYOCIG_clean_linker_4, # of connection points: 2
#     Edge 14, Type (0, 0), BuildingBlock: EYOCIG_clean_linker_4, # of connection points: 2
#     Edge 15, Type (0, 0), BuildingBlock: EYOCIG_clean_linker_4, # of connection points: 2
#     Edge 16, Type (0, 0), BuildingBlock: EYOCIG_clean_linker_4, # of connection points: 2
#     Edge 17, Type (0, 0), BuildingBlock: EYOCIG_clean_linker_4, # of connection points: 2
# Relax obj value: 0.239
# Max RMSD: 0.246
# Mean RMSD: 0.245
data_MOF--net-npo--node1-ICAMEG_clean_sbu_1--edge1-EYOCIG_clean_linker_4
_symmetry_space_group_name_H-M    P1
_symmetry_Int_Tables_number       1
_symmetry_cell_setting            triclinic
loop_
_symmetry_equiv_pos_as_xyz
'x, y, z'
_cell_length_a     36.84207
_cell_length_b     36.837618
_cell_length_c     21.207092
_cell_angle_alpha  89.968713
_cell_angle_beta   90.025627
_cell_angle_gamma 120.03376
loop_
_atom_site_label
_atom_site_type_symbol
_atom_site_fract_x
_atom_site_fract_y
_atom_site_fract_z
_atom_type_partial_charge
Co0 Co 0.57733 0.13641 0.17817 0.0
Co1 Co 0.56216 0.13555 0.33638 0.0
O2 O 0.55505 0.1054 0.25707 0.0
C3 C 0.4929 0.07781 0.11931 0.0
O4 O 0.47525 0.09681 0.1472 0.0
C5 C 0.58949 0.07788 0.39499 0.0
O6 O 0.62601 0.09726 0.36668 0.0
O7 O 0.6246 0.16589 0.32451 0.0
O8 O 0.6254 0.18376 0.22305 0.0
H9 H 0.62285 0.26324 0.47496 0.0
H10 H 0.56022 0.04914 0.19044 0.0
O11 O 0.53109 0.08884 0.1293 0.0
H12 H 0.71014 0.13309 0.13571 0.0
H13 H 0.61584 0.15209 0.94793 0.0
H14 H 0.61227 0.22525 0.14039 0.0
H15 H 0.66687 0.16657 0.14546 0.0
H16 H 0.58808 0.11319 0.04738 0.0
O17 O 0.5619 0.08835 0.38509 0.0
H18 H 0.61384 0.2243 0.37628 0.0
H19 H 0.52668 0.11039 0.46604 0.0
H20 H 0.64051 0.26536 0.04212 0.0
H21 H 0.6023 0.01431 0.18061 0.0
H22 H 0.64253 0.22879 0.94496 0.0
H23 H 0.67784 0.05639 0.15315 0.0
O24 O 0.54371 0.16497 0.1908 0.0
H25 H 0.41693 0.01046 0.32898 0.0
H26 H 0.50018 0.16265 0.36817 0.0
H27 H 0.42312 0.12688 0.37529 0.0
H28 H 0.38094 0.05021 0.35575 0.0
H29 H 0.49408 0.04754 0.32188 0.0
H30 H 0.53499 0.14808 0.56581 0.0
H31 H 0.58313 0.22512 0.5706 0.0
O32 O 0.56035 0.18257 0.29223 0.0
C33 C 0.64343 0.18785 0.27586 0.0
C34 C 0.60174 0.22968 0.47345 0.0
C35 C 0.55247 0.16504 0.52446 0.0
N36 N 0.56965 0.16512 0.41527 0.0
C37 C 0.59648 0.20744 0.41768 0.0
C38 C 0.54803 0.14384 0.46788 0.0
C39 C 0.57947 0.20827 0.5271 0.0
C40 C 0.593 0.06759 0.17799 0.0
N41 N 0.61095 0.10976 0.16804 0.0
C42 C 0.6167 0.04773 0.17269 0.0
C43 C 0.65909 0.07136 0.15734 0.0
C44 C 0.67723 0.1144 0.14755 0.0
C45 C 0.65257 0.13318 0.15322 0.0
C46 C 0.61512 0.16838 0.98995 0.0
C47 C 0.61301 0.20906 0.09837 0.0
C48 C 0.59929 0.14648 0.04635 0.0
N49 N 0.59866 0.16693 0.09974 0.0
C50 C 0.62903 0.23196 0.04282 0.0
C51 C 0.63012 0.21141 0.98833 0.0
C52 C 0.54637 0.18661 0.23946 0.0
C53 C 0.43496 0.04384 0.33784 0.0
C54 C 0.48208 0.12928 0.35961 0.0
C55 C 0.43843 0.10919 0.36376 0.0
C56 C 0.41479 0.06618 0.35279 0.0
N57 N 0.50165 0.10712 0.34515 0.0
C58 C 0.47866 0.06498 0.33411 0.0
Co59 Co 0.44275 0.57707 0.66842 0.0
Co60 Co 0.43173 0.56065 0.82665 0.0
O61 O 0.4527 0.55395 0.74531 0.0
C62 C 0.41864 0.49181 0.61522 0.0
O63 O 0.38653 0.4729 0.65353 0.0
C64 C 0.51526 0.58995 0.89056 0.0
O65 O 0.52778 0.6292 0.87707 0.0
O66 O 0.46333 0.62313 0.81546 0.0
O67 O 0.44446 0.62483 0.71546 0.0
H68 H 0.36738 0.6197 0.97357 0.0
H69 H 0.51254 0.55919 0.67536 0.0
O70 O 0.44284 0.53128 0.61705 0.0
H71 H 0.57907 0.70992 0.62581 0.0
H72 H 0.4626 0.61815 0.43921 0.0
H73 H 0.38844 0.61246 0.6357 0.0
H74 H 0.50233 0.66693 0.63693 0.0
H75 H 0.47487 0.58916 0.53644 0.0
O76 O 0.48023 0.56038 0.87066 0.0
H77 H 0.39531 0.61167 0.87223 0.0
H78 H 0.42491 0.52468 0.95522 0.0
H79 H 0.37549 0.64197 0.53969 0.0
H80 H 0.58939 0.60098 0.66411 0.0
H81 H 0.4128 0.64506 0.44052 0.0
H82 H 0.62316 0.67694 0.6393 0.0
O83 O 0.38074 0.54345 0.68357 0.0
H84 H 0.41131 0.41543 0.81376 0.0
H85 H 0.34347 0.49845 0.8623 0.0
H86 H 0.30224 0.42135 0.86873 0.0
H87 H 0.33619 0.37928 0.84451 0.0
H88 H 0.45131 0.49263 0.80732 0.0
H89 H 0.39752 0.53197 0.05762 0.0
H90 H 0.36819 0.57953 0.06715 0.0
O91 O 0.3818 0.55882 0.78626 0.0
C92 C 0.45935 0.64239 0.76817 0.0
C93 C 0.38003 0.59884 0.97002 0.0
C94 C 0.397 0.54966 0.0172 0.0
N95 N 0.41161 0.56763 0.90772 0.0
C96 C 0.3959 0.59416 0.91273 0.0
C97 C 0.41264 0.54579 0.95915 0.0
C98 C 0.38053 0.57632 0.0225 0.0
C99 C 0.52697 0.59215 0.66397 0.0
N100 N 0.50292 0.61049 0.65628 0.0
C101 C 0.57051 0.61568 0.65789 0.0
C102 C 0.58944 0.65831 0.64404 0.0
C103 C 0.56472 0.67683 0.63646 0.0
C104 C 0.52127 0.65232 0.64286 0.0
C105 C 0.44616 0.61698 0.48211 0.0
C106 C 0.4048 0.61367 0.59277 0.0
C107 C 0.45285 0.60044 0.53727 0.0
N108 N 0.4325 0.59923 0.59177 0.0
C109 C 0.39731 0.6304 0.53852 0.0
C110 C 0.41823 0.63209 0.4829 0.0
C111 C 0.36277 0.54558 0.73392 0.0
C112 C 0.39621 0.43342 0.82468 0.0
C113 C 0.35851 0.4804 0.85169 0.0
C114 C 0.33499 0.43674 0.85547 0.0
C115 C 0.35405 0.41316 0.84186 0.0
N116 N 0.3999 0.50007 0.835 0.0
C117 C 0.41875 0.47714 0.82137 0.0
Co118 Co 0.87311 0.43232 0.33378 0.0
Co119 Co 0.8723 0.44575 0.17535 0.0
O120 O 0.90327 0.45353 0.25404 0.0
C121 C 0.93001 0.51619 0.39552 0.0
O122 O 0.90759 0.53209 0.37398 0.0
C123 C 0.93399 0.42111 0.12588 0.0
O124 O 0.92103 0.38985 0.16581 0.0
O125 O 0.84203 0.38343 0.18863 0.0
O126 O 0.82522 0.38376 0.2904 0.0
H127 H 0.7432 0.38417 0.03968 0.0
H128 H 0.96015 0.44891 0.32011 0.0
O129 O 0.92145 0.47922 0.38089 0.0
H130 H 0.8762 0.29962 0.37871 0.0
H131 H 0.85979 0.39624 0.56489 0.0
H132 H 0.78474 0.398 0.37343 0.0
H133 H 0.84297 0.34311 0.36868 0.0
H134 H 0.89769 0.42305 0.46447 0.0
O135 O 0.91841 0.44504 0.12578 0.0
H136 H 0.78312 0.3939 0.13759 0.0
H137 H 0.89617 0.48005 0.04489 0.0
H138 H 0.74561 0.3707 0.4727 0.0
H139 H 0.99475 0.40661 0.33021 0.0
H140 H 0.78314 0.36958 0.56935 0.0
H141 H 0.95266 0.33138 0.3596 0.0
O142 O 0.8445 0.46591 0.3208 0.0
H143 H 0.99818 0.59047 0.17874 0.0
H144 H 0.84552 0.50802 0.14321 0.0
H145 H 0.88182 0.58508 0.13468 0.0
H146 H 0.95872 0.62684 0.15239 0.0
H147 H 0.9606 0.51337 0.18727 0.0
H148 H 0.8575 0.47096 0.94585 0.0
H149 H 0.7804 0.42297 0.94291 0.0
O150 O 0.82591 0.44824 0.22001 0.0
C151 C 0.82058 0.36515 0.23796 0.0
C152 C 0.77678 0.40521 0.04037 0.0
C153 C 0.84093 0.45388 0.98769 0.0
N154 N 0.84192 0.43764 0.09708 0.0
C155 C 0.79957 0.41088 0.0957 0.0
C156 C 0.86269 0.45876 0.04386 0.0
C157 C 0.79767 0.42697 0.98609 0.0
C158 C 0.94171 0.41628 0.33345 0.0
N159 N 0.89969 0.39863 0.3443 0.0
C160 C 0.96144 0.39245 0.33888 0.0
C161 C 0.9378 0.35023 0.3553 0.0
C162 C 0.8949 0.33239 0.36604 0.0
C163 C 0.87626 0.35719 0.36021 0.0
C164 C 0.84309 0.39658 0.52311 0.0
C165 C 0.80134 0.39767 0.41525 0.0
C166 C 0.86442 0.41188 0.46616 0.0
N167 N 0.84345 0.41199 0.41306 0.0
C168 C 0.779 0.38219 0.47136 0.0
C169 C 0.80008 0.3816 0.52556 0.0
C170 C 0.82252 0.46294 0.27242 0.0
C171 C 0.9647 0.57262 0.17067 0.0
C172 C 0.87899 0.52595 0.15096 0.0
C173 C 0.89938 0.56959 0.14602 0.0
C174 C 0.94252 0.593 0.15597 0.0
N175 N 0.90099 0.50618 0.16522 0.0
C176 C 0.94327 0.52895 0.17521 0.0
Co177 Co 0.44546 0.87287 0.8325 0.0
Co178 Co 0.43051 0.87165 0.67415 0.0
O179 O 0.45424 0.90287 0.75255 0.0
C180 C 0.41829 0.92831 0.89808 0.0
O181 O 0.37908 0.90355 0.88191 0.0
C182 C 0.51667 0.93413 0.62431 0.0
O183 O 0.53535 0.92246 0.6656 0.0
O184 O 0.46266 0.84152 0.68715 0.0
O185 O 0.44594 0.82485 0.78914 0.0
H186 H 0.36228 0.74203 0.53973 0.0
H187 H 0.51617 0.95985 0.81838 0.0
O188 O 0.44716 0.92148 0.87922 0.0
H189 H 0.58105 0.87564 0.87745 0.0
H190 H 0.46878 0.85998 0.06359 0.0
H191 H 0.39146 0.78455 0.87269 0.0
H192 H 0.50435 0.84256 0.86727 0.0
H193 H 0.4796 0.89772 0.96303 0.0
O194 O 0.47704 0.91761 0.62363 0.0
H195 H 0.39309 0.78236 0.63709 0.0
H196 H 0.41903 0.89495 0.54383 0.0
H197 H 0.37988 0.7456 0.97209 0.0
H198 H 0.59308 0.99431 0.82866 0.0
H199 H 0.4188 0.78332 0.06846 0.0
H200 H 0.626 0.95209 0.8583 0.0
O201 O 0.38324 0.84432 0.82001 0.0
H202 H 0.41163 0.99742 0.67808 0.0
H203 H 0.34121 0.84469 0.64324 0.0
H204 H 0.30036 0.88089 0.63547 0.0
H205 H 0.3356 0.95782 0.65286 0.0
H206 H 0.45123 0.95994 0.68584 0.0
H207 H 0.38878 0.85585 0.44533 0.0
H208 H 0.35984 0.77877 0.44296 0.0
O209 O 0.38185 0.82532 0.71944 0.0
C210 C 0.45968 0.82014 0.7365 0.0
C211 C 0.37473 0.77559 0.54018 0.0
C212 C 0.38965 0.83948 0.48718 0.0
N213 N 0.40771 0.84096 0.59628 0.0
C214 C 0.39221 0.79862 0.5952 0.0
C215 C 0.40691 0.86148 0.54305 0.0
C216 C 0.3734 0.79624 0.4859 0.0
C217 C 0.53026 0.94136 0.8318 0.0
N218 N 0.50576 0.89934 0.8427 0.0
C219 C 0.57383 0.961 0.83734 0.0
C220 C 0.59228 0.93729 0.85391 0.0
C221 C 0.56709 0.8944 0.86466 0.0
C222 C 0.52366 0.87584 0.85872 0.0
C223 C 0.45162 0.84321 0.02193 0.0
C224 C 0.40849 0.80124 0.91438 0.0
C225 C 0.4575 0.86444 0.96491 0.0
N226 N 0.43627 0.84336 0.91195 0.0
C227 C 0.40178 0.77899 0.97057 0.0
C228 C 0.4236 0.80018 0.02462 0.0
C229 C 0.36399 0.82212 0.77198 0.0
C230 C 0.39595 0.96392 0.67016 0.0
C231 C 0.3568 0.87818 0.65082 0.0
C232 C 0.3335 0.89851 0.64631 0.0
C233 C 0.35328 0.94167 0.65608 0.0
N234 N 0.39867 0.90025 0.66446 0.0
C235 C 0.41824 0.94255 0.67426 0.0
Co236 Co 0.56597 0.4309 0.16612 0.0
Co237 Co 0.57547 0.44686 0.32444 0.0
O238 O 0.55552 0.45398 0.24251 0.0
C239 C 0.59082 0.51595 0.11103 0.0
O240 O 0.62379 0.53475 0.14778 0.0
C241 C 0.49831 0.41788 0.40182 0.0
O242 O 0.49681 0.38182 0.40908 0.0
O243 O 0.54385 0.38448 0.31242 0.0
O244 O 0.56425 0.38318 0.2134 0.0
H245 H 0.63894 0.38765 0.47293 0.0
H246 H 0.49583 0.4483 0.17207 0.0
O247 O 0.56591 0.47664 0.11441 0.0
H248 H 0.43016 0.29759 0.12306 0.0
H249 H 0.54692 0.38934 0.93719 0.0
H250 H 0.6209 0.39605 0.13447 0.0
H251 H 0.50687 0.34101 0.13413 0.0
H252 H 0.53438 0.41859 0.03383 0.0
O253 O 0.52575 0.44607 0.36599 0.0
H254 H 0.61123 0.39553 0.3712 0.0
H255 H 0.58156 0.48272 0.45299 0.0
H256 H 0.63418 0.36633 0.03904 0.0
H257 H 0.41899 0.40607 0.16095 0.0
H258 H 0.59693 0.36268 0.93951 0.0
H259 H 0.38566 0.3301 0.13647 0.0
O260 O 0.62784 0.46464 0.18242 0.0
H261 H 0.59605 0.59226 0.31234 0.0
H262 H 0.66329 0.50886 0.3623 0.0
H263 H 0.70449 0.58587 0.36972 0.0
H264 H 0.67087 0.62815 0.34474 0.0
H265 H 0.55602 0.51506 0.30496 0.0
H266 H 0.60862 0.4755 0.55581 0.0
H267 H 0.63791 0.42795 0.56611 0.0
O268 O 0.62609 0.44925 0.28538 0.0
C269 C 0.54843 0.36537 0.2656 0.0
C270 C 0.62624 0.40846 0.46906 0.0
C271 C 0.6092 0.45774 0.51558 0.0
N272 N 0.59479 0.43956 0.40612 0.0
C273 C 0.61047 0.41303 0.41156 0.0
C274 C 0.59375 0.46156 0.45731 0.0
C275 C 0.62565 0.43107 0.52131 0.0
C276 C 0.48159 0.41536 0.16076 0.0
N277 N 0.50586 0.39726 0.15324 0.0
C278 C 0.43805 0.39157 0.15475 0.0
C279 C 0.41937 0.34894 0.1411 0.0
C280 C 0.44432 0.33068 0.13356 0.0
C281 C 0.48775 0.35544 0.13991 0.0
C282 C 0.56335 0.39076 0.98026 0.0
C283 C 0.60461 0.39464 0.09135 0.0
C284 C 0.55649 0.40744 0.03508 0.0
N285 N 0.57677 0.40889 0.08982 0.0
C286 C 0.61228 0.37779 0.03744 0.0
C287 C 0.59138 0.37578 0.98162 0.0
C288 C 0.6455 0.46268 0.2333 0.0
C289 C 0.611 0.57416 0.32359 0.0
C290 C 0.64836 0.52697 0.35135 0.0
C291 C 0.67188 0.5706 0.35571 0.0
C292 C 0.653 0.59429 0.34169 0.0
N293 N 0.60712 0.50741 0.33372 0.0
C294 C 0.58844 0.53045 0.31975 0.0
Co295 Co 0.13704 0.56427 0.6755 0.0
Co296 Co 0.13435 0.5762 0.83391 0.0
O297 O 0.10525 0.55484 0.75358 0.0
C298 C 0.07791 0.59007 0.61884 0.0
O299 O 0.09532 0.62545 0.6503 0.0
C300 C 0.08302 0.49514 0.90472 0.0
O301 O 0.11237 0.48532 0.89721 0.0
O302 O 0.16464 0.54422 0.82103 0.0
O303 O 0.18397 0.56306 0.72069 0.0
H304 H 0.26051 0.64158 0.97568 0.0
H305 H 0.0496 0.49408 0.68584 0.0
O306 O 0.09005 0.56353 0.62598 0.0
H307 H 0.13367 0.42813 0.63236 0.0
H308 H 0.1546 0.54274 0.44559 0.0
H309 H 0.22618 0.61858 0.63956 0.0
H310 H 0.16717 0.50491 0.64231 0.0
H311 H 0.11487 0.53124 0.5442 0.0
O312 O 0.08605 0.52787 0.87919 0.0
H313 H 0.22254 0.61251 0.876 0.0
H314 H 0.10764 0.58407 0.96377 0.0
H315 H 0.26713 0.63078 0.54213 0.0
H316 H 0.01476 0.41714 0.67583 0.0
H317 H 0.23135 0.59261 0.44423 0.0
H318 H 0.0569 0.38368 0.64906 0.0
O319 O 0.16561 0.62633 0.68996 0.0
H320 H 0.00997 0.59752 0.82636 0.0
H321 H 0.16157 0.66476 0.86936 0.0
H322 H 0.1263 0.70643 0.87756 0.0
H323 H 0.04992 0.6728 0.85611 0.0
H324 H 0.04657 0.55706 0.8181 0.0
H325 H 0.14438 0.61263 0.06458 0.0
H326 H 0.22142 0.64199 0.07083 0.0
O327 O 0.18192 0.6259 0.79192 0.0
C328 C 0.18714 0.54798 0.77292 0.0
C329 C 0.22694 0.62891 0.97356 0.0
C330 C 0.16175 0.61261 0.02346 0.0
N331 N 0.16292 0.59671 0.91398 0.0
C332 C 0.20524 0.61238 0.91722 0.0
C333 C 0.14109 0.5963 0.96632 0.0
C334 C 0.20498 0.62911 0.02692 0.0
C335 C 0.06808 0.47977 0.67359 0.0
N336 N 0.11029 0.50401 0.66416 0.0
C337 C 0.04821 0.43618 0.66821 0.0
C338 C 0.07188 0.41743 0.65326 0.0
C339 C 0.11494 0.44234 0.64387 0.0
C340 C 0.13374 0.48582 0.64962 0.0
C341 C 0.17054 0.55956 0.48793 0.0
C342 C 0.21034 0.60186 0.59718 0.0
C343 C 0.14818 0.55331 0.54385 0.0
N344 N 0.16819 0.57411 0.59766 0.0
C345 C 0.23371 0.60893 0.54212 0.0
C346 C 0.21361 0.58753 0.48722 0.0
C347 C 0.18656 0.64466 0.73958 0.0
C348 C 0.04322 0.61249 0.83607 0.0
C349 C 0.12832 0.64984 0.85996 0.0
C350 C 0.10851 0.67362 0.86474 0.0
C351 C 0.06567 0.65474 0.85269 0.0
N352 N 0.10606 0.60837 0.8438 0.0
C353 C 0.06408 0.58969 0.83172 0.0
C354 C 0.53325 0.25037 0.2454 0.0
C355 C 0.53763 0.22047 0.23555 0.0
C356 C 0.53362 0.2879 0.26153 0.0
C357 C 0.5385 0.32245 0.27071 0.0
C358 C 0.2862 0.53267 0.74546 0.0
C359 C 0.32016 0.537 0.73287 0.0
C360 C 0.24956 0.53309 0.76477 0.0
C361 C 0.22016 0.53801 0.77627 0.0
C362 C 0.72024 0.2514 0.26739 0.0
C363 C 0.68616 0.22161 0.27915 0.0
C364 C 0.75709 0.28833 0.24801 0.0
C365 C 0.78677 0.32239 0.23582 0.0
C366 C 0.47288 0.75648 0.74521 0.0
C367 C 0.46843 0.78623 0.73399 0.0
C368 C 0.473 0.7194 0.76295 0.0
C369 C 0.46866 0.68514 0.77313 0.0
C370 C 0.72257 0.47689 0.24572 0.0
C371 C 0.68834 0.47188 0.23311 0.0
C372 C 0.75964 0.47718 0.2647 0.0
C373 C 0.78924 0.47254 0.27599 0.0
C374 C 0.28675 0.7591 0.76601 0.0
C375 C 0.32114 0.78878 0.77626 0.0
C376 C 0.24964 0.72186 0.74854 0.0
C377 C 0.22014 0.6875 0.73742 0.0
C378 C 0.43986 0.98803 0.984 0.0
C379 C 0.42866 0.9605 0.94491 0.0
C380 C 0.45497 0.0192 0.03189 0.0
C381 C 0.47036 0.04602 0.07219 0.0
C382 C 0.45676 0.43932 0.48168 0.0
C383 C 0.47564 0.42939 0.44536 0.0
C384 C 0.43905 0.45345 0.52841 0.0
C385 C 0.42749 0.46841 0.56916 0.0
C386 C 0.02289 0.45605 0.98991 0.0
C387 C 0.05066 0.47321 0.95134 0.0
C388 C 0.99198 0.43977 0.03823 0.0
C389 C 0.96587 0.429 0.07955 0.0
C390 C 0.57055 0.02067 0.48454 0.0
C391 C 0.58114 0.04687 0.44327 0.0
C392 C 0.55578 0.99096 0.53472 0.0
C393 C 0.54042 0.96545 0.57694 0.0
C394 C 0.5549 0.56919 0.97509 0.0
C395 C 0.53785 0.58004 0.9367 0.0
C396 C 0.57126 0.55441 0.02304 0.0
C397 C 0.58231 0.53919 0.06416 0.0
C398 C 0.01979 0.57036 0.53092 0.0
C399 C 0.0463 0.58143 0.57167 0.0
C400 C 0.98899 0.55459 0.48245 0.0
C401 C 0.96186 0.53846 0.4427 0.0
loop_
_geom_bond_atom_site_label_1
_geom_bond_atom_site_label_2
_geom_bond_distance
_geom_bond_site_symmetry_2
_ccdc_geom_bond_type
Co0 O2 2.143 . S
Co0 O8 2.074 . S
Co0 O11 2.093 . S
Co0 O24 2.097 . S
Co0 N41 2.151 . S
Co0 N49 2.214 . S
Co1 O2 2.160 . S
Co1 O7 2.058 . S
Co1 O17 2.057 . S
Co1 O32 2.037 . S
Co1 N36 2.145 . S
Co1 N57 2.257 . S
O2 Co0 2.143 . S
O2 Co1 2.160 . S
C3 O4 1.278 . S
C3 O11 1.224 . S
O4 C3 1.278 . S
C5 O6 1.245 . S
C5 O17 1.232 . S
O6 C5 1.245 . S
O7 Co1 2.058 . S
O7 C33 1.269 . S
O8 Co0 2.074 . S
O8 C33 1.257 . S
H9 C34 0.930 . S
H10 C40 0.930 . S
O11 Co0 2.093 . S
O11 C3 1.224 . S
H12 C44 0.929 . S
H13 C46 0.930 . S
H14 C47 0.930 . S
H15 C45 0.929 . S
H16 C48 0.928 . S
O17 Co1 2.057 . S
O17 C5 1.232 . S
H18 C37 0.929 . S
H19 C38 0.929 . S
H20 C50 0.931 . S
H21 C42 0.929 . S
H22 C51 0.923 1_556 S
H23 C43 0.931 . S
O24 Co0 2.097 . S
O24 C52 1.214 . S
H25 C53 0.929 . S
H26 C54 0.929 . S
H27 C55 0.930 . S
H28 C56 0.929 . S
H29 C58 0.930 . S
H30 C35 0.930 . S
H31 C39 0.930 . S
O32 Co1 2.037 . S
O32 C52 1.234 . S
C33 O7 1.269 . S
C33 O8 1.257 . S
C34 H9 0.930 . S
C34 C37 1.388 . S
C34 C39 1.418 . S
C35 H30 0.930 . S
C35 C38 1.404 . S
C35 C39 1.353 . S
N36 Co1 2.145 . S
N36 C37 1.397 . S
N36 C38 1.334 . S
C37 H18 0.929 . S
C37 C34 1.388 . S
C37 N36 1.397 . S
C38 H19 0.929 . S
C38 C35 1.404 . S
C38 N36 1.334 . S
C39 H31 0.930 . S
C39 C34 1.418 . S
C39 C35 1.353 . S
C40 H10 0.930 . S
C40 N41 1.330 . S
C40 C42 1.446 . S
N41 Co0 2.151 . S
N41 C40 1.330 . S
N41 C45 1.418 . S
C42 H21 0.929 . S
C42 C40 1.446 . S
C42 C43 1.332 . S
C43 H23 0.931 . S
C43 C42 1.332 . S
C43 C44 1.267 . S
C44 H12 0.929 . S
C44 C43 1.267 . S
C44 C45 1.251 . S
C45 H15 0.929 . S
C45 N41 1.418 . S
C45 C44 1.251 . S
C46 H13 0.930 . S
C46 C48 1.406 1_556 S
C46 C51 1.259 1_556 S
C47 H14 0.930 . S
C47 N49 1.325 . S
C47 C50 1.357 . S
C48 H16 0.928 . S
C48 C46 1.406 1_554 S
C48 N49 1.261 . S
N49 Co0 2.214 . S
N49 C47 1.325 . S
N49 C48 1.261 . S
C50 H20 0.931 . S
C50 C47 1.357 . S
C50 C51 1.322 . S
C51 H22 0.923 1_554 S
C51 C46 1.259 1_554 S
C51 C50 1.322 . S
C52 O24 1.214 . S
C52 O32 1.234 . S
C53 H25 0.929 . S
C53 C56 1.391 . S
C53 C58 1.391 . S
C54 H26 0.929 . S
C54 C55 1.390 . S
C54 N57 1.391 . S
C55 H27 0.930 . S
C55 C54 1.390 . S
C55 C56 1.392 . S
C56 H28 0.929 . S
C56 C53 1.391 . S
C56 C55 1.392 . S
N57 Co1 2.257 . S
N57 C54 1.391 . S
N57 C58 1.388 . S
C58 H29 0.930 . S
C58 C53 1.391 . S
C58 N57 1.388 . S
Co59 O61 2.143 . S
Co59 O67 2.074 . S
Co59 O70 2.093 . S
Co59 O83 2.097 . S
Co59 N100 2.151 . S
Co59 N108 2.214 . S
Co60 O61 2.160 . S
Co60 O66 2.058 . S
Co60 O76 2.057 . S
Co60 O91 2.037 . S
Co60 N95 2.145 . S
Co60 N116 2.257 . S
O61 Co59 2.143 . S
O61 Co60 2.160 . S
C62 O63 1.278 . S
C62 O70 1.224 . S
O63 C62 1.278 . S
C64 O65 1.245 . S
C64 O76 1.232 . S
O65 C64 1.245 . S
O66 Co60 2.058 . S
O66 C92 1.269 . S
O67 Co59 2.074 . S
O67 C92 1.257 . S
H68 C93 0.930 . S
H69 C99 0.930 . S
O70 Co59 2.093 . S
O70 C62 1.224 . S
H71 C103 0.929 . S
H72 C105 0.930 . S
H73 C106 0.930 . S
H74 C104 0.929 . S
H75 C107 0.928 . S
O76 Co60 2.057 . S
O76 C64 1.232 . S
H77 C96 0.929 . S
H78 C97 0.929 . S
H79 C109 0.931 . S
H80 C101 0.929 . S
H81 C110 0.930 . S
H82 C102 0.931 . S
O83 Co59 2.097 . S
O83 C111 1.214 . S
H84 C112 0.929 . S
H85 C113 0.929 . S
H86 C114 0.930 . S
H87 C115 0.929 . S
H88 C117 0.930 . S
H89 C94 0.930 . S
H90 C98 0.930 . S
O91 Co60 2.037 . S
O91 C111 1.234 . S
C92 O66 1.269 . S
C92 O67 1.257 . S
C93 H68 0.930 . S
C93 C96 1.388 . S
C93 C98 1.418 1_556 S
C94 H89 0.930 . S
C94 C97 1.404 1_554 S
C94 C98 1.353 . S
N95 Co60 2.145 . S
N95 C96 1.397 . S
N95 C97 1.334 . S
C96 H77 0.929 . S
C96 C93 1.388 . S
C96 N95 1.397 . S
C97 H78 0.929 . S
C97 C94 1.404 1_556 S
C97 N95 1.334 . S
C98 H90 0.930 . S
C98 C93 1.418 1_554 S
C98 C94 1.353 . S
C99 H69 0.930 . S
C99 N100 1.330 . S
C99 C101 1.446 . S
N100 Co59 2.151 . S
N100 C99 1.330 . S
N100 C104 1.418 . S
C101 H80 0.929 . S
C101 C99 1.446 . S
C101 C102 1.332 . S
C102 H82 0.931 . S
C102 C101 1.332 . S
C102 C103 1.267 . S
C103 H71 0.929 . S
C103 C102 1.267 . S
C103 C104 1.251 . S
C104 H74 0.929 . S
C104 N100 1.418 . S
C104 C103 1.251 . S
C105 H72 0.930 . S
C105 C107 1.406 . S
C105 C110 1.261 . S
C106 H73 0.930 . S
C106 N108 1.325 . S
C106 C109 1.357 . S
C107 H75 0.928 . S
C107 C105 1.406 . S
C107 N108 1.261 . S
N108 Co59 2.214 . S
N108 C106 1.325 . S
N108 C107 1.261 . S
C109 H79 0.931 . S
C109 C106 1.357 . S
C109 C110 1.312 . S
C110 H81 0.930 . S
C110 C105 1.261 . S
C110 C109 1.312 . S
C111 O83 1.214 . S
C111 O91 1.234 . S
C112 H84 0.929 . S
C112 C115 1.391 . S
C112 C117 1.391 . S
C113 H85 0.929 . S
C113 C114 1.390 . S
C113 N116 1.391 . S
C114 H86 0.930 . S
C114 C113 1.390 . S
C114 C115 1.392 . S
C115 H87 0.929 . S
C115 C112 1.391 . S
C115 C114 1.392 . S
N116 Co60 2.257 . S
N116 C113 1.391 . S
N116 C117 1.388 . S
C117 H88 0.930 . S
C117 C112 1.391 . S
C117 N116 1.388 . S
Co118 O120 2.143 . S
Co118 O126 2.074 . S
Co118 O129 2.093 . S
Co118 O142 2.097 . S
Co118 N159 2.151 . S
Co118 N167 2.214 . S
Co119 O120 2.160 . S
Co119 O125 2.058 . S
Co119 O135 2.057 . S
Co119 O150 2.037 . S
Co119 N154 2.145 . S
Co119 N175 2.257 . S
O120 Co118 2.143 . S
O120 Co119 2.160 . S
C121 O122 1.278 . S
C121 O129 1.224 . S
O122 C121 1.278 . S
C123 O124 1.245 . S
C123 O135 1.232 . S
O124 C123 1.245 . S
O125 Co119 2.058 . S
O125 C151 1.269 . S
O126 Co118 2.074 . S
O126 C151 1.257 . S
H127 C152 0.930 . S
H128 C158 0.930 . S
O129 Co118 2.093 . S
O129 C121 1.224 . S
H130 C162 0.929 . S
H131 C164 0.930 . S
H132 C165 0.930 . S
H133 C163 0.929 . S
H134 C166 0.928 . S
O135 Co119 2.057 . S
O135 C123 1.232 . S
H136 C155 0.929 . S
H137 C156 0.929 . S
H138 C168 0.931 . S
H139 C160 0.929 . S
H140 C169 0.930 . S
H141 C161 0.931 . S
O142 Co118 2.097 . S
O142 C170 1.214 . S
H143 C171 0.929 . S
H144 C172 0.929 . S
H145 C173 0.930 . S
H146 C174 0.929 . S
H147 C176 0.930 . S
H148 C153 0.930 . S
H149 C157 0.930 . S
O150 Co119 2.037 . S
O150 C170 1.234 . S
C151 O125 1.269 . S
C151 O126 1.257 . S
C152 H127 0.930 . S
C152 C155 1.388 . S
C152 C157 1.418 1_554 S
C153 H148 0.930 . S
C153 C156 1.404 1_556 S
C153 C157 1.353 . S
N154 Co119 2.145 . S
N154 C155 1.397 . S
N154 C156 1.334 . S
C155 H136 0.929 . S
C155 C152 1.388 . S
C155 N154 1.397 . S
C156 H137 0.929 . S
C156 C153 1.404 1_554 S
C156 N154 1.334 . S
C157 H149 0.930 . S
C157 C152 1.418 1_556 S
C157 C153 1.353 . S
C158 H128 0.930 . S
C158 N159 1.330 . S
C158 C160 1.446 . S
N159 Co118 2.151 . S
N159 C158 1.330 . S
N159 C163 1.418 . S
C160 H139 0.929 . S
C160 C158 1.446 . S
C160 C161 1.332 . S
C161 H141 0.931 . S
C161 C160 1.332 . S
C161 C162 1.267 . S
C162 H130 0.929 . S
C162 C161 1.267 . S
C162 C163 1.251 . S
C163 H133 0.929 . S
C163 N159 1.418 . S
C163 C162 1.251 . S
C164 H131 0.930 . S
C164 C166 1.406 . S
C164 C169 1.261 . S
C165 H132 0.930 . S
C165 N167 1.325 . S
C165 C168 1.357 . S
C166 H134 0.928 . S
C166 C164 1.406 . S
C166 N167 1.261 . S
N167 Co118 2.214 . S
N167 C165 1.325 . S
N167 C166 1.261 . S
C168 H138 0.931 . S
C168 C165 1.357 . S
C168 C169 1.312 . S
C169 H140 0.930 . S
C169 C164 1.261 . S
C169 C168 1.312 . S
C170 O142 1.214 . S
C170 O150 1.234 . S
C171 H143 0.929 . S
C171 C174 1.391 . S
C171 C176 1.391 . S
C172 H144 0.929 . S
C172 C173 1.390 . S
C172 N175 1.391 . S
C173 H145 0.930 . S
C173 C172 1.390 . S
C173 C174 1.392 . S
C174 H146 0.929 . S
C174 C171 1.391 . S
C174 C173 1.392 . S
N175 Co119 2.257 . S
N175 C172 1.391 . S
N175 C176 1.388 . S
C176 H147 0.930 . S
C176 C171 1.391 . S
C176 N175 1.388 . S
Co177 O179 2.143 . S
Co177 O185 2.074 . S
Co177 O188 2.093 . S
Co177 O201 2.097 . S
Co177 N218 2.151 . S
Co177 N226 2.214 . S
Co178 O179 2.160 . S
Co178 O184 2.058 . S
Co178 O194 2.057 . S
Co178 O209 2.037 . S
Co178 N213 2.145 . S
Co178 N234 2.257 . S
O179 Co177 2.143 . S
O179 Co178 2.160 . S
C180 O181 1.278 . S
C180 O188 1.224 . S
O181 C180 1.278 . S
C182 O183 1.245 . S
C182 O194 1.232 . S
O183 C182 1.245 . S
O184 Co178 2.058 . S
O184 C210 1.269 . S
O185 Co177 2.074 . S
O185 C210 1.257 . S
H186 C211 0.930 . S
H187 C217 0.930 . S
O188 Co177 2.093 . S
O188 C180 1.224 . S
H189 C221 0.929 . S
H190 C223 0.930 . S
H191 C224 0.930 . S
H192 C222 0.929 . S
H193 C225 0.928 . S
O194 Co178 2.057 . S
O194 C182 1.232 . S
H195 C214 0.929 . S
H196 C215 0.929 . S
H197 C227 0.931 . S
H198 C219 0.929 . S
H199 C228 0.920 1_554 S
H200 C220 0.931 . S
O201 Co177 2.097 . S
O201 C229 1.214 . S
H202 C230 0.929 . S
H203 C231 0.929 . S
H204 C232 0.930 . S
H205 C233 0.929 . S
H206 C235 0.930 . S
H207 C212 0.930 . S
H208 C216 0.930 . S
O209 Co178 2.037 . S
O209 C229 1.234 . S
C210 O184 1.269 . S
C210 O185 1.257 . S
C211 H186 0.930 . S
C211 C214 1.388 . S
C211 C216 1.418 . S
C212 H207 0.930 . S
C212 C215 1.404 . S
C212 C216 1.353 . S
N213 Co178 2.145 . S
N213 C214 1.397 . S
N213 C215 1.334 . S
C214 H195 0.929 . S
C214 C211 1.388 . S
C214 N213 1.397 . S
C215 H196 0.929 . S
C215 C212 1.404 . S
C215 N213 1.334 . S
C216 H208 0.930 . S
C216 C211 1.418 . S
C216 C212 1.353 . S
C217 H187 0.930 . S
C217 N218 1.330 . S
C217 C219 1.446 . S
N218 Co177 2.151 . S
N218 C217 1.330 . S
N218 C222 1.418 . S
C219 H198 0.929 . S
C219 C217 1.446 . S
C219 C220 1.332 . S
C220 H200 0.931 . S
C220 C219 1.332 . S
C220 C221 1.267 . S
C221 H189 0.929 . S
C221 C220 1.267 . S
C221 C222 1.251 . S
C222 H192 0.929 . S
C222 N218 1.418 . S
C222 C221 1.251 . S
C223 H190 0.930 . S
C223 C225 1.406 1_554 S
C223 C228 1.258 1_554 S
C224 H191 0.930 . S
C224 N226 1.325 . S
C224 C227 1.357 . S
C225 H193 0.928 . S
C225 C223 1.406 1_556 S
C225 N226 1.261 . S
N226 Co177 2.214 . S
N226 C224 1.325 . S
N226 C225 1.261 . S
C227 H197 0.931 . S
C227 C224 1.357 . S
C227 C228 1.324 . S
C228 H199 0.920 1_556 S
C228 C223 1.258 1_556 S
C228 C227 1.324 . S
C229 O201 1.214 . S
C229 O209 1.234 . S
C230 H202 0.929 . S
C230 C233 1.391 . S
C230 C235 1.391 . S
C231 H203 0.929 . S
C231 C232 1.390 . S
C231 N234 1.391 . S
C232 H204 0.930 . S
C232 C231 1.390 . S
C232 C233 1.392 . S
C233 H205 0.929 . S
C233 C230 1.391 . S
C233 C232 1.392 . S
N234 Co178 2.257 . S
N234 C231 1.391 . S
N234 C235 1.388 . S
C235 H206 0.930 . S
C235 C230 1.391 . S
C235 N234 1.388 . S
Co236 O238 2.143 . S
Co236 O244 2.074 . S
Co236 O247 2.093 . S
Co236 O260 2.097 . S
Co236 N277 2.151 . S
Co236 N285 2.214 . S
Co237 O238 2.160 . S
Co237 O243 2.058 . S
Co237 O253 2.057 . S
Co237 O268 2.037 . S
Co237 N272 2.145 . S
Co237 N293 2.257 . S
O238 Co236 2.143 . S
O238 Co237 2.160 . S
C239 O240 1.278 . S
C239 O247 1.224 . S
O240 C239 1.278 . S
C241 O242 1.245 . S
C241 O253 1.232 . S
O242 C241 1.245 . S
O243 Co237 2.058 . S
O243 C269 1.269 . S
O244 Co236 2.074 . S
O244 C269 1.257 . S
H245 C270 0.930 . S
H246 C276 0.930 . S
O247 Co236 2.093 . S
O247 C239 1.224 . S
H248 C280 0.929 . S
H249 C282 0.930 . S
H250 C283 0.930 . S
H251 C281 0.929 . S
H252 C284 0.928 . S
O253 Co237 2.057 . S
O253 C241 1.232 . S
H254 C273 0.929 . S
H255 C274 0.929 . S
H256 C286 0.931 . S
H257 C278 0.929 . S
H258 C287 0.920 1_556 S
H259 C279 0.931 . S
O260 Co236 2.097 . S
O260 C288 1.214 . S
H261 C289 0.929 . S
H262 C290 0.929 . S
H263 C291 0.930 . S
H264 C292 0.929 . S
H265 C294 0.930 . S
H266 C271 0.930 . S
H267 C275 0.930 . S
O268 Co237 2.037 . S
O268 C288 1.234 . S
C269 O243 1.269 . S
C269 O244 1.257 . S
C270 H245 0.930 . S
C270 C273 1.388 . S
C270 C275 1.418 . S
C271 H266 0.930 . S
C271 C274 1.404 . S
C271 C275 1.353 . S
N272 Co237 2.145 . S
N272 C273 1.397 . S
N272 C274 1.334 . S
C273 H254 0.929 . S
C273 C270 1.388 . S
C273 N272 1.397 . S
C274 H255 0.929 . S
C274 C271 1.404 . S
C274 N272 1.334 . S
C275 H267 0.930 . S
C275 C270 1.418 . S
C275 C271 1.353 . S
C276 H246 0.930 . S
C276 N277 1.330 . S
C276 C278 1.446 . S
N277 Co236 2.151 . S
N277 C276 1.330 . S
N277 C281 1.418 . S
C278 H257 0.929 . S
C278 C276 1.446 . S
C278 C279 1.332 . S
C279 H259 0.931 . S
C279 C278 1.332 . S
C279 C280 1.267 . S
C280 H248 0.929 . S
C280 C279 1.267 . S
C280 C281 1.251 . S
C281 H251 0.929 . S
C281 N277 1.418 . S
C281 C280 1.251 . S
C282 H249 0.930 . S
C282 C284 1.406 1_556 S
C282 C287 1.258 1_556 S
C283 H250 0.930 . S
C283 N285 1.325 . S
C283 C286 1.357 . S
C284 H252 0.928 . S
C284 C282 1.406 1_554 S
C284 N285 1.261 . S
N285 Co236 2.214 . S
N285 C283 1.325 . S
N285 C284 1.261 . S
C286 H256 0.931 . S
C286 C283 1.357 . S
C286 C287 1.324 . S
C287 H258 0.920 1_554 S
C287 C282 1.258 1_554 S
C287 C286 1.324 . S
C288 O260 1.214 . S
C288 O268 1.234 . S
C289 H261 0.929 . S
C289 C292 1.391 . S
C289 C294 1.391 . S
C290 H262 0.929 . S
C290 C291 1.390 . S
C290 N293 1.391 . S
C291 H263 0.930 . S
C291 C290 1.390 . S
C291 C292 1.392 . S
C292 H264 0.929 . S
C292 C289 1.391 . S
C292 C291 1.392 . S
N293 Co237 2.257 . S
N293 C290 1.391 . S
N293 C294 1.388 . S
C294 H265 0.930 . S
C294 C289 1.391 . S
C294 N293 1.388 . S
Co295 O297 2.143 . S
Co295 O303 2.074 . S
Co295 O306 2.093 . S
Co295 O319 2.097 . S
Co295 N336 2.151 . S
Co295 N344 2.214 . S
Co296 O297 2.160 . S
Co296 O302 2.058 . S
Co296 O312 2.057 . S
Co296 O327 2.037 . S
Co296 N331 2.145 . S
Co296 N352 2.257 . S
O297 Co295 2.143 . S
O297 Co296 2.160 . S
C298 O299 1.278 . S
C298 O306 1.224 . S
O299 C298 1.278 . S
C300 O301 1.245 . S
C300 O312 1.232 . S
O301 C300 1.245 . S
O302 Co296 2.058 . S
O302 C328 1.269 . S
O303 Co295 2.074 . S
O303 C328 1.257 . S
H304 C329 0.930 . S
H305 C335 0.930 . S
O306 Co295 2.093 . S
O306 C298 1.224 . S
H307 C339 0.929 . S
H308 C341 0.930 . S
H309 C342 0.930 . S
H310 C340 0.929 . S
H311 C343 0.928 . S
O312 Co296 2.057 . S
O312 C300 1.232 . S
H313 C332 0.929 . S
H314 C333 0.929 . S
H315 C345 0.931 . S
H316 C337 0.929 . S
H317 C346 0.930 . S
H318 C338 0.931 . S
O319 Co295 2.097 . S
O319 C347 1.214 . S
H320 C348 0.929 . S
H321 C349 0.929 . S
H322 C350 0.930 . S
H323 C351 0.929 . S
H324 C353 0.930 . S
H325 C330 0.930 . S
H326 C334 0.930 . S
O327 Co296 2.037 . S
O327 C347 1.234 . S
C328 O302 1.269 . S
C328 O303 1.257 . S
C329 H304 0.930 . S
C329 C332 1.388 . S
C329 C334 1.418 1_556 S
C330 H325 0.930 . S
C330 C333 1.404 1_554 S
C330 C334 1.353 . S
N331 Co296 2.145 . S
N331 C332 1.397 . S
N331 C333 1.334 . S
C332 H313 0.929 . S
C332 C329 1.388 . S
C332 N331 1.397 . S
C333 H314 0.929 . S
C333 C330 1.404 1_556 S
C333 N331 1.334 . S
C334 H326 0.930 . S
C334 C329 1.418 1_554 S
C334 C330 1.353 . S
C335 H305 0.930 . S
C335 N336 1.330 . S
C335 C337 1.446 . S
N336 Co295 2.151 . S
N336 C335 1.330 . S
N336 C340 1.418 . S
C337 H316 0.929 . S
C337 C335 1.446 . S
C337 C338 1.332 . S
C338 H318 0.931 . S
C338 C337 1.332 . S
C338 C339 1.267 . S
C339 H307 0.929 . S
C339 C338 1.267 . S
C339 C340 1.251 . S
C340 H310 0.929 . S
C340 N336 1.418 . S
C340 C339 1.251 . S
C341 H308 0.930 . S
C341 C343 1.406 . S
C341 C346 1.261 . S
C342 H309 0.930 . S
C342 N344 1.325 . S
C342 C345 1.357 . S
C343 H311 0.928 . S
C343 C341 1.406 . S
C343 N344 1.261 . S
N344 Co295 2.214 . S
N344 C342 1.325 . S
N344 C343 1.261 . S
C345 H315 0.931 . S
C345 C342 1.357 . S
C345 C346 1.312 . S
C346 H317 0.930 . S
C346 C341 1.261 . S
C346 C345 1.312 . S
C347 O319 1.214 . S
C347 O327 1.234 . S
C348 H320 0.929 . S
C348 C351 1.391 . S
C348 C353 1.391 . S
C349 H321 0.929 . S
C349 C350 1.390 . S
C349 N352 1.391 . S
C350 H322 0.930 . S
C350 C349 1.390 . S
C350 C351 1.392 . S
C351 H323 0.929 . S
C351 C348 1.391 . S
C351 C350 1.392 . S
N352 Co296 2.257 . S
N352 C349 1.391 . S
N352 C353 1.388 . S
C353 H324 0.930 . S
C353 C348 1.391 . S
C353 N352 1.388 . S
C354 C355 1.170 . S
C354 C356 1.380 . S
C355 C354 1.170 . S
C356 C354 1.380 . S
C356 C357 1.170 . S
C357 C356 1.170 . S
C358 C359 1.170 . S
C358 C360 1.380 . S
C359 C358 1.170 . S
C360 C358 1.380 . S
C360 C361 1.170 . S
C361 C360 1.170 . S
C362 C363 1.170 . S
C362 C364 1.380 . S
C363 C362 1.170 . S
C364 C362 1.380 . S
C364 C365 1.170 . S
C365 C364 1.170 . S
C366 C367 1.170 . S
C366 C368 1.380 . S
C367 C366 1.170 . S
C368 C366 1.380 . S
C368 C369 1.170 . S
C369 C368 1.170 . S
C370 C371 1.170 . S
C370 C372 1.380 . S
C371 C370 1.170 . S
C372 C370 1.380 . S
C372 C373 1.170 . S
C373 C372 1.170 . S
C374 C375 1.170 . S
C374 C376 1.380 . S
C375 C374 1.170 . S
C376 C374 1.380 . S
C376 C377 1.170 . S
C377 C376 1.170 . S
C378 C379 1.170 . S
C378 C380 1.380 1_566 S
C379 C378 1.170 . S
C380 C378 1.380 1_544 S
C380 C381 1.170 . S
C381 C380 1.170 . S
C382 C383 1.170 . S
C382 C384 1.380 . S
C383 C382 1.170 . S
C384 C382 1.380 . S
C384 C385 1.170 . S
C385 C384 1.170 . S
C386 C387 1.170 . S
C386 C388 1.380 1_456 S
C387 C386 1.170 . S
C388 C386 1.380 1_654 S
C388 C389 1.170 . S
C389 C388 1.170 . S
C390 C391 1.170 . S
C390 C392 1.380 1_545 S
C391 C390 1.170 . S
C392 C390 1.380 1_565 S
C392 C393 1.170 . S
C393 C392 1.170 . S
C394 C395 1.170 . S
C394 C396 1.380 1_556 S
C395 C394 1.170 . S
C396 C394 1.380 1_554 S
C396 C397 1.170 . S
C397 C396 1.170 . S
C398 C399 1.170 . S
C398 C400 1.380 1_455 S
C399 C398 1.170 . S
C400 C398 1.380 1_655 S
C400 C401 1.170 . S
C401 C400 1.170 . S
C355 C52 1.424 . S
C357 C269 1.412 . S
C359 C111 1.418 . S
C361 C328 1.417 . S
C363 C33 1.437 . S
C365 C151 1.393 . S
C367 C210 1.394 . S
C369 C92 1.436 . S
C371 C288 1.418 . S
C373 C170 1.425 . S
C375 C229 1.402 . S
C377 C347 1.443 . S
C379 C180 1.497 . S
C381 C3 1.499 . S
C383 C241 1.505 . S
C385 C62 1.507 . S
C387 C300 1.502 . S
C389 C123 1.514 . S
C391 C5 1.510 . S
C393 C182 1.514 . S
C395 C64 1.505 . S
C397 C239 1.503 . S
C399 C298 1.489 . S
C401 C121 1.509 . S
