# Generated by pormake.
# Topology crs, (6)-cn, num edge types: 1
# Building blocks:
#     Node 0, Type 0, BuildingBlock: BETDIP_clean_sbu_0, # of connection points: 6
#     Node 1, Type 0, BuildingBlock: BETDIP_clean_sbu_0, # of connection points: 6
#     Node 2, Type 0, BuildingBlock: BETDIP_clean_sbu_0, # of connection points: 6
#     Node 3, Type 0, BuildingBlock: BETDIP_clean_sbu_0, # of connection points: 6
#     Node 4, Type 0, BuildingBlock: BETDIP_clean_sbu_0, # of connection points: 6
#     Node 5, Type 0, BuildingBlock: BETDIP_clean_sbu_0, # of connection points: 6
#     Node 6, Type 0, BuildingBlock: BETDIP_clean_sbu_0, # of connection points: 6
#     Node 7, Type 0, BuildingBlock: BETDIP_clean_sbu_0, # of connection points: 6
#     Node 8, Type 0, BuildingBlock: BETDIP_clean_sbu_0, # of connection points: 6
#     Node 9, Type 0, BuildingBlock: BETDIP_clean_sbu_0, # of connection points: 6
#     Node 10, Type 0, BuildingBlock: BETDIP_clean_sbu_0, # of connection points: 6
#     Node 11, Type 0, BuildingBlock: BETDIP_clean_sbu_0, # of connection points: 6
#     Node 12, Type 0, BuildingBlock: BETDIP_clean_sbu_0, # of connection points: 6
#     Node 13, Type 0, BuildingBlock: BETDIP_clean_sbu_0, # of connection points: 6
#     Node 14, Type 0, BuildingBlock: BETDIP_clean_sbu_0, # of connection points: 6
#     Node 15, Type 0, BuildingBlock: BETDIP_clean_sbu_0, # of connection points: 6
#     Edge 16, Type (0, 0), BuildingBlock: OJICUG_clean_linker_0, # of connection points: 2
#     Edge 17, Type (0, 0), BuildingBlock: OJICUG_clean_linker_0, # of connection points: 2
#     Edge 18, Type (0, 0), BuildingBlock: OJICUG_clean_linker_0, # of connection points: 2
#     Edge 19, Type (0, 0), BuildingBlock: OJICUG_clean_linker_0, # of connection points: 2
#     Edge 20, Type (0, 0), BuildingBlock: OJICUG_clean_linker_0, # of connection points: 2
#     Edge 21, Type (0, 0), BuildingBlock: OJICUG_clean_linker_0, # of connection points: 2
#     Edge 22, Type (0, 0), BuildingBlock: OJICUG_clean_linker_0, # of connection points: 2
#     Edge 23, Type (0, 0), BuildingBlock: OJICUG_clean_linker_0, # of connection points: 2
#     Edge 24, Type (0, 0), BuildingBlock: OJICUG_clean_linker_0, # of connection points: 2
#     Edge 25, Type (0, 0), BuildingBlock: OJICUG_clean_linker_0, # of connection points: 2
#     Edge 26, Type (0, 0), BuildingBlock: OJICUG_clean_linker_0, # of connection points: 2
#     Edge 27, Type (0, 0), BuildingBlock: OJICUG_clean_linker_0, # of connection points: 2
#     Edge 28, Type (0, 0), BuildingBlock: OJICUG_clean_linker_0, # of connection points: 2
#     Edge 29, Type (0, 0), BuildingBlock: OJICUG_clean_linker_0, # of connection points: 2
#     Edge 30, Type (0, 0), BuildingBlock: OJICUG_clean_linker_0, # of connection points: 2
#     Edge 31, Type (0, 0), BuildingBlock: OJICUG_clean_linker_0, # of connection points: 2
#     Edge 32, Type (0, 0), BuildingBlock: OJICUG_clean_linker_0, # of connection points: 2
#     Edge 33, Type (0, 0), BuildingBlock: OJICUG_clean_linker_0, # of connection points: 2
#     Edge 34, Type (0, 0), BuildingBlock: OJICUG_clean_linker_0, # of connection points: 2
#     Edge 35, Type (0, 0), BuildingBlock: OJICUG_clean_linker_0, # of connection points: 2
#     Edge 36, Type (0, 0), BuildingBlock: OJICUG_clean_linker_0, # of connection points: 2
#     Edge 37, Type (0, 0), BuildingBlock: OJICUG_clean_linker_0, # of connection points: 2
#     Edge 38, Type (0, 0), BuildingBlock: OJICUG_clean_linker_0, # of connection points: 2
#     Edge 39, Type (0, 0), BuildingBlock: OJICUG_clean_linker_0, # of connection points: 2
#     Edge 40, Type (0, 0), BuildingBlock: OJICUG_clean_linker_0, # of connection points: 2
#     Edge 41, Type (0, 0), BuildingBlock: OJICUG_clean_linker_0, # of connection points: 2
#     Edge 42, Type (0, 0), BuildingBlock: OJICUG_clean_linker_0, # of connection points: 2
#     Edge 43, Type (0, 0), BuildingBlock: OJICUG_clean_linker_0, # of connection points: 2
#     Edge 44, Type (0, 0), BuildingBlock: OJICUG_clean_linker_0, # of connection points: 2
#     Edge 45, Type (0, 0), BuildingBlock: OJICUG_clean_linker_0, # of connection points: 2
#     Edge 46, Type (0, 0), BuildingBlock: OJICUG_clean_linker_0, # of connection points: 2
#     Edge 47, Type (0, 0), BuildingBlock: OJICUG_clean_linker_0, # of connection points: 2
#     Edge 48, Type (0, 0), BuildingBlock: OJICUG_clean_linker_0, # of connection points: 2
#     Edge 49, Type (0, 0), BuildingBlock: OJICUG_clean_linker_0, # of connection points: 2
#     Edge 50, Type (0, 0), BuildingBlock: OJICUG_clean_linker_0, # of connection points: 2
#     Edge 51, Type (0, 0), BuildingBlock: OJICUG_clean_linker_0, # of connection points: 2
#     Edge 52, Type (0, 0), BuildingBlock: OJICUG_clean_linker_0, # of connection points: 2
#     Edge 53, Type (0, 0), BuildingBlock: OJICUG_clean_linker_0, # of connection points: 2
#     Edge 54, Type (0, 0), BuildingBlock: OJICUG_clean_linker_0, # of connection points: 2
#     Edge 55, Type (0, 0), BuildingBlock: OJICUG_clean_linker_0, # of connection points: 2
#     Edge 56, Type (0, 0), BuildingBlock: OJICUG_clean_linker_0, # of connection points: 2
#     Edge 57, Type (0, 0), BuildingBlock: OJICUG_clean_linker_0, # of connection points: 2
#     Edge 58, Type (0, 0), BuildingBlock: OJICUG_clean_linker_0, # of connection points: 2
#     Edge 59, Type (0, 0), BuildingBlock: OJICUG_clean_linker_0, # of connection points: 2
#     Edge 60, Type (0, 0), BuildingBlock: OJICUG_clean_linker_0, # of connection points: 2
#     Edge 61, Type (0, 0), BuildingBlock: OJICUG_clean_linker_0, # of connection points: 2
#     Edge 62, Type (0, 0), BuildingBlock: OJICUG_clean_linker_0, # of connection points: 2
#     Edge 63, Type (0, 0), BuildingBlock: OJICUG_clean_linker_0, # of connection points: 2
# Relax obj value: 0.489
# Max RMSD: 0.362
# Mean RMSD: 0.358
data_MOF--net-crs--node1-BETDIP_clean_sbu_0--edge1-OJICUG_clean_linker_0
_symmetry_space_group_name_H-M    P1
_symmetry_Int_Tables_number       1
_symmetry_cell_setting            triclinic
loop_
_symmetry_equiv_pos_as_xyz
'x, y, z'
_cell_length_a     29.913167
_cell_length_b     54.05102
_cell_length_c     31.941106
_cell_angle_alpha  90.016832
_cell_angle_beta   90.115688
_cell_angle_gamma 52.492684
loop_
_atom_site_label
_atom_site_type_symbol
_atom_site_fract_x
_atom_site_fract_y
_atom_site_fract_z
_atom_type_partial_charge
Tb0 Tb 0.93105 0.03494 0.05222 0.0
Tb1 Tb 0.0214 1.02514 0.99364 0.0
C2 C 0.85977 0.03304 0.08973 0.0
C3 C 0.8448 1.01173 0.08845 0.0
C4 C 0.84128 1.0 0.05042 0.0
C5 C 0.83699 0.97569 0.0502 0.0
C6 C 0.83691 0.96241 0.08802 0.0
C7 C 0.83819 0.9751 0.12605 0.0
C8 C 0.84187 0.99961 0.12621 0.0
C9 C 0.0169 0.02855 0.0899 0.0
C10 C 0.01438 0.97062 1.00246 0.0
C11 C 0.10654 1.01964 0.96883 0.0
C12 C 0.11019 0.04422 0.95524 0.0
C13 C 0.16102 0.04007 0.95868 0.0
C14 C 0.16188 0.06545 0.95323 0.0
C15 C 0.11169 0.09541 0.94485 0.0
C16 C 0.06133 0.09901 0.93968 0.0
C17 C 0.06067 0.07364 0.9447 0.0
C18 C 0.9309 0.04238 0.94789 0.0
C19 C 0.92723 0.09231 0.03318 0.0
O20 O 0.84733 0.0508 0.05684 0.0
O21 O 0.91063 1.02011 0.10394 0.0
O22 O 0.02004 1.01346 0.05788 0.0
O23 O 0.96543 0.04585 0.10288 0.0
O24 O 0.96636 0.99005 0.02273 0.0
O25 O 0.04815 0.97785 0.99311 0.0
O26 O 0.09344 1.02145 1.00826 0.0
O27 O 0.07726 1.01472 0.94472 0.0
O28 O 0.93765 0.03916 0.98723 0.0
O29 O 0.97592 0.03765 0.93346 0.0
O30 O -0.0228 0.0731 1.01519 0.0
O31 O 0.8964 0.08342 0.04448 0.0
H32 H 0.84409 1.00868 0.02089 0.0
H33 H 0.83509 0.96684 0.02036 0.0
H34 H 0.83897 0.96521 0.15578 0.0
H35 H 0.84526 1.00808 0.15589 0.0
H36 H 0.19952 1.01754 0.96718 0.0
H37 H 0.20157 0.06176 0.95671 0.0
H38 H 0.02173 0.12172 0.93392 0.0
H39 H 0.02082 0.07737 0.9424 0.0
Tb40 Tb 0.01578 0.27689 0.30367 0.0
Tb41 Tb 0.93829 0.2799 0.2335 0.0
C42 C 0.05278 0.29136 0.36176 0.0
C43 C 0.05024 0.31758 0.37856 0.0
C44 C -0.00073 0.34789 0.38069 0.0
C45 C -0.00317 0.37139 0.40171 0.0
C46 C 0.04533 0.36506 0.42073 0.0
C47 C 0.09668 0.335 0.41706 0.0
C48 C 0.099 0.31147 0.3963 0.0
C49 C 0.0573 0.21861 0.27861 0.0
C50 C 0.91996 0.27031 0.32829 0.0
C51 C 0.90011 0.26709 0.17412 0.0
C52 C 0.9006 0.2425 0.1537 0.0
C53 C 0.90394 0.21917 0.17635 0.0
C54 C 0.90305 0.19672 0.15521 0.0
C55 C 0.89912 0.1972 0.11117 0.0
C56 C 0.89572 0.22069 0.08888 0.0
C57 C 0.89639 0.24308 0.10995 0.0
C58 C 0.89718 0.33814 0.25899 0.0
C59 C 0.03499 0.28578 0.20892 0.0
O60 O 0.00666 0.29366 0.36439 0.0
O61 O 0.07948 0.27904 0.32632 0.0
O62 O 0.01343 0.24467 0.26647 0.0
O63 O 0.08043 0.2254 0.3058 0.0
O64 O 0.95226 0.27819 0.34041 0.0
O65 O 0.91491 0.26558 0.28828 0.0
O66 O 0.94662 0.26438 0.17185 0.0
O67 O 0.87504 0.27766 0.2105 0.0
O68 O 0.94099 0.31194 0.27061 0.0
O69 O 0.87356 0.33154 0.23204 0.0
O70 O 0.00242 0.2781 0.19674 0.0
O71 O 0.03972 0.2907 0.24885 0.0
H72 H 0.96109 0.35322 0.36705 0.0
H73 H 0.95686 0.39449 0.40337 0.0
H74 H 0.13465 0.32939 0.43148 0.0
H75 H 0.13865 0.28818 0.39519 0.0
H76 H 0.90739 0.21826 0.21017 0.0
H77 H 0.90653 0.17864 0.17323 0.0
H78 H 0.89215 0.22191 0.05506 0.0
H79 H 0.89347 0.26102 0.09195 0.0
Tb80 Tb 0.77021 0.27428 0.54721 0.0
Tb81 Tb 0.68579 0.28284 0.49171 0.0
C82 C 0.84107 0.27861 0.58085 0.0
C83 C 0.8406 0.30599 0.58427 0.0
C84 C 0.88489 0.30507 0.5675 0.0
C85 C 0.8815 0.33205 0.5665 0.0
C86 C 0.83365 0.36043 0.58223 0.0
C87 C 0.79006 0.36101 0.59987 0.0
C88 C 0.79346 0.33416 0.60089 0.0
C89 C 0.6867 0.28084 0.58813 0.0
C90 C 0.67784 0.34114 0.50544 0.0
C91 C 0.61512 0.27866 0.45736 0.0
C92 C 0.61586 0.25125 0.45337 0.0
C93 C 0.5709 0.25225 0.46872 0.0
C94 C 0.57453 0.2252 0.46952 0.0
C95 C 0.62331 0.19668 0.45502 0.0
C96 C 0.66754 0.19603 0.43865 0.0
C97 C 0.6639 0.22295 0.43784 0.0
C98 C 0.76952 0.2763 0.45099 0.0
C99 C 0.77747 0.21609 0.53413 0.0
O100 O 0.84696 0.26775 0.54306 0.0
O101 O 0.80187 0.2802 0.60164 0.0
O102 O 0.68113 0.29629 0.55572 0.0
O103 O 0.73907 0.26303 0.59924 0.0
O104 O 0.72744 0.32181 0.5237 0.0
O105 O 0.64744 0.33198 0.49485 0.0
O106 O 0.60917 0.2892 0.49536 0.0
O107 O 0.6543 0.27727 0.43688 0.0
O108 O 0.7749 0.26073 0.48319 0.0
O109 O 0.71711 0.29432 0.44004 0.0
O110 O 0.72813 0.2354 0.51549 0.0
O111 O 0.80802 0.22517 0.54473 0.0
H112 H 0.92152 0.28365 0.55436 0.0
H113 H 0.91626 0.33069 0.55331 0.0
H114 H 0.75215 0.38251 0.61155 0.0
H115 H 0.75807 0.33587 0.61347 0.0
H116 H 0.53358 0.27378 0.48102 0.0
H117 H 0.5393 0.22659 0.4817 0.0
H118 H 0.70612 0.17443 0.42794 0.0
H119 H 0.69979 0.22121 0.42639 0.0
Tb120 Tb 0.6897 0.0302 0.80543 0.0
Tb121 Tb 0.76527 0.02808 0.73433 0.0
C122 C 0.65427 1.0151 0.86382 0.0
C123 C 0.65479 0.98939 0.88021 0.0
C124 C 0.70462 0.95862 0.88205 0.0
C125 C 0.70556 0.93566 0.90328 0.0
C126 C 0.65671 0.94296 0.9229 0.0
C127 C 0.60637 0.97345 0.91934 0.0
C128 C 0.60554 0.99646 0.89835 0.0
C129 C 0.64754 0.08867 0.78018 0.0
C130 C 0.78488 0.03786 0.82947 0.0
C131 C 0.80202 0.04167 0.67498 0.0
C132 C 0.80147 0.06643 0.65499 0.0
C133 C 0.80096 0.08873 0.67803 0.0
C134 C 0.80209 0.11123 0.65722 0.0
C135 C 0.80351 0.1118 0.61312 0.0
C136 C 0.80418 0.08929 0.59045 0.0
C137 C 0.80318 0.06691 0.61117 0.0
C138 C 0.80698 0.96958 0.75941 0.0
C139 C 0.6688 1.02164 0.71037 0.0
O140 O 0.702 1.01124 0.8651 0.0
O141 O 0.62538 0.02915 0.82953 0.0
O142 O 0.69123 0.06259 0.76822 0.0
O143 O 0.62474 0.08183 0.80757 0.0
O144 O 0.75291 0.02983 0.8421 0.0
O145 O 0.78924 0.0424 0.78917 0.0
O146 O 0.75528 0.0446 0.67302 0.0
O147 O 0.82819 0.03038 0.71096 0.0
O148 O 0.76356 0.99572 0.77138 0.0
O149 O 0.8299 0.97637 0.73214 0.0
O150 O 0.69963 0.03048 0.69813 0.0
O151 O 0.66604 1.0159 0.75042 0.0
H152 H 0.74317 0.9525 0.86816 0.0
H153 H 0.74477 0.91222 0.90478 0.0
H154 H 0.56814 0.97984 0.93419 0.0
H155 H 0.56674 1.0201 0.89752 0.0
H156 H 0.79955 0.08882 0.71192 0.0
H157 H 0.80074 0.12851 0.67559 0.0
H158 H 0.80584 0.08882 0.55656 0.0
H159 H 0.80397 0.04976 0.59283 0.0
Tb160 Tb 0.51382 0.77686 0.30713 0.0
Tb161 Tb 0.43691 0.78026 0.23613 0.0
C162 C 0.55046 0.79133 0.3655 0.0
C163 C 0.54871 0.81741 0.38182 0.0
C164 C 0.49831 0.84799 0.38297 0.0
C165 C 0.49635 0.87146 0.40361 0.0
C166 C 0.54477 0.86482 0.42323 0.0
C167 C 0.59563 0.83449 0.42047 0.0
C168 C 0.59746 0.81098 0.40009 0.0
C169 C 0.55502 0.71874 0.28146 0.0
C170 C 0.41809 0.7699 0.33083 0.0
C171 C 0.39961 0.76621 0.1778 0.0
C172 C 0.40135 0.74016 0.16132 0.0
C173 C 0.45225 0.70989 0.15816 0.0
C174 C 0.45397 0.68665 0.13711 0.0
C175 C 0.40481 0.69317 0.11914 0.0
C176 C 0.35352 0.72308 0.12404 0.0
C177 C 0.35192 0.74641 0.14477 0.0
C178 C 0.39628 0.83834 0.26175 0.0
C179 C 0.5336 0.78628 0.2121 0.0
O180 O 0.50357 0.79437 0.3675 0.0
O181 O 0.57812 0.77821 0.3306 0.0
O182 O 0.51145 0.74494 0.26941 0.0
O183 O 0.57804 0.72527 0.30917 0.0
O184 O 0.45027 0.77772 0.34371 0.0
O185 O 0.41356 0.76557 0.29053 0.0
O186 O 0.44642 0.76325 0.17556 0.0
O187 O 0.37228 0.77912 0.21289 0.0
O188 O 0.43959 0.81207 0.27374 0.0
O189 O 0.37278 0.83193 0.23436 0.0
O190 O 0.50016 0.77931 0.19937 0.0
O191 O 0.53919 0.79024 0.25235 0.0
H192 H 0.46016 0.85358 0.36889 0.0
H193 H 0.45679 0.89477 0.40456 0.0
H194 H 0.63353 0.82866 0.43536 0.0
H195 H 0.63668 0.7875 0.39971 0.0
H196 H 0.49096 0.7044 0.1709 0.0
H197 H 0.49392 0.66362 0.13449 0.0
H198 H 0.31506 0.72877 0.11048 0.0
H199 H 0.31229 0.76965 0.14672 0.0
Tb200 Tb 0.2702 0.77404 0.55014 0.0
Tb201 Tb 0.18036 0.78217 0.49128 0.0
C202 C 0.34016 0.77784 0.58628 0.0
C203 C 0.35088 0.80099 0.58511 0.0
C204 C 0.3485 0.81507 0.54741 0.0
C205 C 0.34945 0.84058 0.54775 0.0
C206 C 0.35165 0.85289 0.58588 0.0
C207 C 0.35566 0.83806 0.62347 0.0
C208 C 0.3556 0.81228 0.62301 0.0
C209 C 0.18559 0.77951 0.58754 0.0
C210 C 0.18344 0.83815 0.49945 0.0
C211 C 0.09799 0.78434 0.46833 0.0
C212 C 0.09777 0.75787 0.45854 0.0
C213 C 0.05254 0.75823 0.47112 0.0
C214 C 0.05692 0.73097 0.46919 0.0
C215 C 0.10682 0.70289 0.45489 0.0
C216 C 0.15121 0.70301 0.44094 0.0
C217 C 0.14678 0.73018 0.44284 0.0
C218 C 0.27099 0.76531 0.44658 0.0
C219 C 0.27655 0.71567 0.53232 0.0
O220 O 0.35239 0.76076 0.55267 0.0
O221 O 0.29109 0.78855 0.60207 0.0
O222 O 0.18184 0.79445 0.55515 0.0
O223 O 0.23682 0.76303 0.60122 0.0
O224 O 0.23052 0.8198 0.52147 0.0
O225 O 0.15193 0.82971 0.48819 0.0
O226 O 0.10899 0.7856 0.50752 0.0
O227 O 0.1263 0.78904 0.44275 0.0
O228 O 0.2633 0.7689 0.48571 0.0
O229 O 0.22643 0.76969 0.43148 0.0
O230 O 0.22672 0.73434 0.51379 0.0
O231 O 0.30651 0.72517 0.54364 0.0
H232 H 0.34386 0.80718 0.51779 0.0
H233 H 0.34736 0.85098 0.51813 0.0
H234 H 0.3565 0.84709 0.65348 0.0
H235 H 0.35654 0.80204 0.65249 0.0
H236 H 0.01476 0.77926 0.48394 0.0
H237 H 0.02168 0.73173 0.47965 0.0
H238 H 0.19055 0.68174 0.43043 0.0
H239 H 0.18284 0.72912 0.43391 0.0
Tb240 Tb 0.18987 0.52982 0.80489 0.0
Tb241 Tb 0.26586 0.52805 0.73487 0.0
C242 C 0.15237 0.5147 0.86157 0.0
C243 C 0.15404 0.4885 0.87747 0.0
C244 C 0.20522 0.45867 0.88345 0.0
C245 C 0.20615 0.43556 0.90414 0.0
C246 C 0.15596 0.44173 0.91902 0.0
C247 C 0.1046 0.47113 0.91124 0.0
C248 C 0.10374 0.49433 0.89084 0.0
C249 C 0.14768 0.58852 0.78065 0.0
C250 C 0.28554 0.53646 0.83048 0.0
C251 C 0.30441 0.54236 0.67796 0.0
C252 C 0.3031 0.56818 0.66088 0.0
C253 C 0.25206 0.59719 0.65097 0.0
C254 C 0.25219 0.61959 0.62919 0.0
C255 C 0.30326 0.61351 0.61709 0.0
C256 C 0.35425 0.58503 0.62869 0.0
C257 C 0.35411 0.56252 0.65019 0.0
C258 C 0.30787 0.46938 0.75931 0.0
C259 C 0.16938 0.52215 0.70916 0.0
O260 O 0.19865 0.5122 0.86504 0.0
O261 O 0.12579 0.52763 0.82618 0.0
O262 O 0.19141 0.56255 0.76846 0.0
O263 O 0.12505 0.58144 0.80778 0.0
O264 O 0.25466 0.52755 0.84224 0.0
O265 O 0.28847 0.5424 0.79055 0.0
O266 O 0.25844 0.54457 0.6742 0.0
O267 O 0.32996 0.53033 0.71394 0.0
O268 O 0.2642 0.49541 0.7713 0.0
O269 O 0.33068 0.47638 0.73226 0.0
O270 O 0.20041 0.53099 0.69751 0.0
O271 O 0.16673 0.51595 0.74902 0.0
H272 H 0.24465 0.45346 0.87324 0.0
H273 H 0.2463 0.41292 0.909 0.0
H274 H 0.06533 0.4766 0.9224 0.0
H275 H 0.06383 0.51723 0.88674 0.0
H276 H 0.21206 0.60228 0.65897 0.0
H277 H 0.21221 0.64159 0.6214 0.0
H278 H 0.3942 0.57968 0.61978 0.0
H279 H 0.39396 0.54022 0.65727 0.0
Tb280 Tb 0.92955 0.53461 0.5478 0.0
Tb281 Tb 0.02855 0.52257 0.4888 0.0
C282 C 0.84144 0.54314 0.57173 0.0
C283 C 0.82606 0.52181 0.57341 0.0
C284 C 0.80975 0.51423 0.5373 0.0
C285 C 0.80524 0.48995 0.53818 0.0
C286 C 0.8164 0.47305 0.5753 0.0
C287 C 0.82913 0.48205 0.61193 0.0
C288 C 0.83347 0.50627 0.61105 0.0
C289 C 0.01933 0.52026 0.59221 0.0
C290 C 0.01841 0.46833 0.50382 0.0
C291 C 0.11619 0.51455 0.4648 0.0
C292 C 0.13026 0.53646 0.46278 0.0
C293 C 0.14408 0.54532 0.49898 0.0
C294 C 0.14609 0.57049 0.49782 0.0
C295 C 0.13497 0.58701 0.46035 0.0
C296 C 0.12532 0.57662 0.42359 0.0
C297 C 0.12333 0.55153 0.42476 0.0
C298 C 0.9386 0.5369 0.44461 0.0
C299 C 0.93912 0.58901 0.53215 0.0
O300 O 0.84616 0.55185 0.53467 0.0
O301 O 0.88266 0.53558 0.59684 0.0
O302 O 0.01175 0.52205 0.553 0.0
O303 O 0.97458 0.52524 0.60794 0.0
O304 O 0.9705 0.48746 0.52471 0.0
O305 O 0.05137 0.47584 0.49184 0.0
O306 O 0.11153 0.50601 0.50203 0.0
O307 O 0.07552 0.5214 0.43959 0.0
O308 O 0.94643 0.53513 0.48375 0.0
O309 O -0.01669 0.53186 0.42869 0.0
O310 O -0.01297 0.56997 0.51123 0.0
O311 O 0.90669 0.58127 0.54461 0.0
H312 H 0.80204 0.52638 0.5081 0.0
H313 H 0.79395 0.48409 0.50967 0.0
H314 H 0.83834 0.46947 0.64102 0.0
H315 H 0.84532 0.51183 0.63957 0.0
H316 H 0.15148 0.53357 0.52848 0.0
H317 H 0.15515 0.57742 0.52646 0.0
H318 H 0.11644 0.58882 0.3942 0.0
H319 H 0.1134 0.54497 0.39618 0.0
Tb320 Tb 0.27081 0.27278 0.04626 0.0
Tb321 Tb 0.18526 0.28244 0.99094 0.0
C322 C 0.34443 0.27399 0.0818 0.0
C323 C 0.35543 0.29704 0.08174 0.0
C324 C 0.35424 0.31115 0.04443 0.0
C325 C 0.35538 0.33657 0.04564 0.0
C326 C 0.3567 0.34871 0.0842 0.0
C327 C 0.36001 0.33374 0.1214 0.0
C328 C 0.35964 0.30806 0.12011 0.0
C329 C 0.18786 0.27871 0.08745 0.0
C330 C 0.1818 0.33956 1.00415 0.0
C331 C 0.11157 0.28129 0.95533 0.0
C332 C 0.10068 0.2582 0.95504 0.0
C333 C 0.10467 0.2428 0.99188 0.0
C334 C 0.10309 0.21755 0.99004 0.0
C335 C 0.09852 0.20684 0.95128 0.0
C336 C 0.09262 0.22305 0.91464 0.0
C337 C 0.09348 0.24856 0.91658 0.0
C338 C 0.26817 0.27666 0.94981 0.0
C339 C 0.2745 0.21563 0.03294 0.0
O340 O 0.35347 0.25886 0.04691 0.0
O341 O 0.29676 0.28384 0.09915 0.0
O342 O 0.18184 0.29457 0.05546 0.0
O343 O 0.24045 0.26064 0.09785 0.0
O344 O 0.23194 0.31948 0.02128 0.0
O345 O 0.14978 0.33125 0.99456 0.0
O346 O 0.10274 0.29614 0.99045 0.0
O347 O 0.15909 0.27163 0.9379 0.0
O348 O 0.27423 0.26068 0.98166 0.0
O349 O 0.21556 0.29472 0.93945 0.0
O350 O 0.22443 0.23559 1.01565 0.0
O351 O 0.30628 0.22404 0.04279 0.0
H352 H 0.3502 0.30342 1.01439 0.0
H353 H 0.35386 0.34715 1.01635 0.0
H354 H 0.3604 0.34262 0.15167 0.0
H355 H 0.35992 0.29771 0.14927 0.0
H356 H 0.11107 0.24948 0.02193 0.0
H357 H 0.10667 0.20602 1.01898 0.0
H358 H 0.08974 0.21528 0.8842 0.0
H359 H 0.09108 0.2599 0.88776 0.0
Tb360 Tb 0.19219 0.02931 0.30597 0.0
Tb361 Tb 0.26905 1.02663 0.23604 0.0
C362 C 0.154 1.01572 0.36415 0.0
C363 C 0.15585 0.99028 0.38298 0.0
C364 C 0.16192 0.96665 0.35894 0.0
C365 C 0.16242 0.94325 0.3785 0.0
C366 C 0.15712 0.9431 0.42232 0.0
C367 C 0.15095 0.96691 0.44601 0.0
C368 C 0.15031 0.99022 0.42652 0.0
C369 C 0.15034 0.08775 0.28077 0.0
C370 C 0.28909 0.03523 0.33095 0.0
C371 C 0.30845 0.03952 0.17785 0.0
C372 C 0.30409 0.0652 0.1568 0.0
C373 C 0.304 0.06576 0.1129 0.0
C374 C 0.3028 0.08864 0.09139 0.0
C375 C 0.30191 0.11147 0.11335 0.0
C376 C 0.30181 0.11098 0.15747 0.0
C377 C 0.30276 0.08807 0.17905 0.0
C378 C 0.31002 0.96822 0.26122 0.0
C379 C 0.17031 1.02266 0.21092 0.0
O380 O 0.19981 1.01364 0.36747 0.0
O381 O 0.12925 1.02651 0.32763 0.0
O382 O 0.19423 0.0617 0.26895 0.0
O383 O 0.12741 0.0809 0.30793 0.0
O384 O 0.25794 1.0265 0.34281 0.0
O385 O 0.29207 0.04108 0.29106 0.0
O386 O 0.26584 0.03874 0.17313 0.0
O387 O 0.32981 0.03163 0.21573 0.0
O388 O 0.26659 0.99442 0.27288 0.0
O389 O 0.33351 0.97485 0.23431 0.0
O390 O 0.20067 0.03205 0.19996 0.0
O391 O 0.16864 1.01542 0.25039 0.0
H392 H 0.16637 0.96625 0.32525 0.0
H393 H 0.16799 0.92498 0.35944 0.0
H394 H 0.1462 0.96769 0.47971 0.0
H395 H 0.1453 1.00836 0.44556 0.0
H396 H 0.30546 0.04819 0.09514 0.0
H397 H 0.30337 0.08818 0.05749 0.0
H398 H 0.30024 0.12854 0.17529 0.0
H399 H 0.30269 0.08817 0.21296 0.0
Tb400 Tb 0.5169 0.27719 0.80477 0.0
Tb401 Tb 0.43906 0.28075 0.73455 0.0
C402 C 0.55487 0.29126 0.86261 0.0
C403 C 0.5526 0.31745 0.87919 0.0
C404 C 0.50169 0.34778 0.88129 0.0
C405 C 0.49934 0.37124 0.90231 0.0
C406 C 0.54787 0.36486 0.92133 0.0
C407 C 0.59922 0.33484 0.91751 0.0
C408 C 0.60145 0.31132 0.89678 0.0
C409 C 0.55767 0.21911 0.77922 0.0
C410 C 0.42064 0.27101 0.82933 0.0
C411 C 0.40074 0.267 0.67659 0.0
C412 C 0.40423 0.24063 0.65928 0.0
C413 C 0.4553 0.21032 0.65845 0.0
C414 C 0.45879 0.18651 0.63737 0.0
C415 C 0.41124 0.19256 0.61699 0.0
C416 C 0.35976 0.22268 0.61926 0.0
C417 C 0.35641 0.2465 0.64009 0.0
C418 C 0.3983 0.33885 0.76015 0.0
C419 C 0.53575 0.28641 0.70989 0.0
O420 O 0.50863 0.2937 0.86553 0.0
O421 O 0.58123 0.27893 0.82706 0.0
O422 O 0.51402 0.24532 0.76732 0.0
O423 O 0.58118 0.2256 0.80647 0.0
O424 O 0.45368 0.27831 0.84185 0.0
O425 O 0.4153 0.26672 0.78924 0.0
O426 O 0.44597 0.26551 0.67319 0.0
O427 O 0.37556 0.27816 0.71278 0.0
O428 O 0.44192 0.31262 0.77202 0.0
O429 O 0.37482 0.33236 0.73287 0.0
O430 O 0.50345 0.27854 0.69775 0.0
O431 O 0.54043 0.29131 0.74987 0.0
H432 H 0.46345 0.35314 0.86772 0.0
H433 H 0.45937 0.39433 0.9041 0.0
H434 H 0.63721 0.32924 0.93191 0.0
H435 H 0.64108 0.28802 0.89564 0.0
H436 H 0.49272 0.20521 0.67324 0.0
H437 H 0.4988 0.16339 0.63679 0.0
H438 H 0.32253 0.22808 0.60376 0.0
H439 H 0.31671 0.26979 0.64024 0.0
Tb440 Tb 0.0147 0.77782 0.80363 0.0
Tb441 Tb 0.93631 0.78082 0.73494 0.0
C442 C 0.05419 0.79209 0.85992 0.0
C443 C 0.05024 0.81876 0.87653 0.0
C444 C -0.00135 0.84882 0.87816 0.0
C445 C -0.00501 0.87286 0.89869 0.0
C446 C 0.04288 0.8673 0.91769 0.0
C447 C 0.09482 0.83746 0.91455 0.0
C448 C 0.09836 0.8134 0.89428 0.0
C449 C 0.05605 0.7194 0.779 0.0
C450 C 0.91764 0.7726 0.83028 0.0
C451 C 0.89596 0.76756 0.6779 0.0
C452 C 0.9046 0.74085 0.65619 0.0
C453 C 0.90426 0.7183 0.67773 0.0
C454 C 0.90778 0.6948 0.65563 0.0
C455 C 0.91195 0.69334 0.61167 0.0
C456 C 0.91353 0.71553 0.59036 0.0
C457 C 0.90962 0.7391 0.61241 0.0
C458 C 0.89538 0.83923 0.75986 0.0
C459 C 0.03474 0.78415 0.70846 0.0
O460 O 0.00978 0.79295 0.86477 0.0
O461 O 0.07799 0.78121 0.82325 0.0
O462 O 0.01209 0.74544 0.76701 0.0
O463 O 0.07952 0.72626 0.80571 0.0
O464 O 0.95058 0.78026 0.84166 0.0
O465 O 0.91232 0.76761 0.79051 0.0
O466 O 0.93375 0.77203 0.67136 0.0
O467 O 0.87875 0.77279 0.71686 0.0
O468 O 0.93919 0.81306 0.77148 0.0
O469 O 0.87159 0.83252 0.73327 0.0
O470 O 0.00537 0.77399 0.69839 0.0
O471 O 0.03607 0.79211 0.74751 0.0
H472 H 0.96097 0.85353 0.86449 0.0
H473 H 0.95457 0.89577 0.89998 0.0
H474 H 0.13234 0.83242 0.92902 0.0
H475 H 0.13848 0.79031 0.8935 0.0
H476 H 0.90059 0.71899 0.71151 0.0
H477 H 0.90746 0.67769 0.67298 0.0
H478 H 0.91643 0.71512 0.55654 0.0
H479 H 0.90954 0.75638 0.59511 0.0
Tb480 Tb 0.68927 0.52933 0.30603 0.0
Tb481 Tb 0.76405 0.52743 0.2348 0.0
C482 C 0.65215 0.51587 0.36525 0.0
C483 C 0.65294 0.49108 0.38529 0.0
C484 C 0.65438 0.46847 0.36227 0.0
C485 C 0.65327 0.44598 0.38307 0.0
C486 C 0.65095 0.44573 0.42714 0.0
C487 C 0.64943 0.46852 0.44981 0.0
C488 C 0.6504 0.4909 0.42908 0.0
C489 C 0.64699 0.58799 0.28128 0.0
C490 C 0.78673 0.53502 0.32973 0.0
C491 C 0.80058 0.54215 0.17677 0.0
C492 C 0.79904 0.5681 0.16008 0.0
C493 C 0.7484 0.59847 0.15683 0.0
C494 C 0.74702 0.62159 0.1357 0.0
C495 C 0.79626 0.61484 0.11764 0.0
C496 C 0.84728 0.58478 0.12252 0.0
C497 C 0.84854 0.5616 0.14339 0.0
C498 C 0.80623 0.46877 0.25925 0.0
C499 C 0.66739 0.52116 0.21099 0.0
O500 O 0.69859 0.51325 0.36752 0.0
O501 O 0.62652 0.52678 0.32902 0.0
O502 O 0.69053 0.56195 0.26914 0.0
O503 O 0.62446 0.58099 0.30858 0.0
O504 O 0.75592 0.52617 0.34201 0.0
O505 O 0.78853 0.54129 0.28976 0.0
O506 O 0.75386 0.54501 0.17442 0.0
O507 O 0.82795 0.52925 0.21193 0.0
O508 O 0.76294 0.49477 0.27181 0.0
O509 O 0.82849 0.47579 0.23168 0.0
O510 O 0.6982 0.53001 0.1987 0.0
O511 O 0.66509 0.51517 0.25105 0.0
H512 H 0.65645 0.46816 0.32839 0.0
H513 H 0.65532 0.42846 0.36474 0.0
H514 H 0.6471 0.4692 0.48367 0.0
H515 H 0.64889 0.50829 0.44738 0.0
H516 H 0.70964 0.60414 0.16962 0.0
H517 H 0.70724 0.64472 0.1331 0.0
H518 H 0.8858 0.57884 0.10886 0.0
H519 H 0.88798 0.53827 0.14535 0.0
Tb520 Tb 0.76935 0.77314 0.0484 0.0
Tb521 Tb 0.68232 0.78496 0.99321 0.0
C522 C 0.84388 0.77393 0.08293 0.0
C523 C 0.84575 0.80032 0.08803 0.0
C524 C 0.89548 0.79669 0.08 0.0
C525 C 0.8955 0.82257 0.0811 0.0
C526 C 0.84563 0.85246 0.09009 0.0
C527 C 0.79618 0.8558 0.09858 0.0
C528 C 0.79625 0.83006 0.09764 0.0
C529 C 0.68547 0.78035 0.09006 0.0
C530 C 0.68072 0.84118 1.00825 0.0
C531 C 0.60807 0.78444 0.95741 0.0
C532 C 0.59691 0.76137 0.95705 0.0
C533 C 0.58614 0.75189 0.99416 0.0
C534 C 0.58428 0.7267 0.99391 0.0
C535 C 0.59373 0.71028 0.95666 0.0
C536 C 0.60226 0.72064 0.9193 0.0
C537 C 0.60346 0.74603 0.91949 0.0
C538 C 0.76684 0.77801 0.95263 0.0
C539 C 0.77006 0.71738 0.03329 0.0
O540 O 0.84792 0.76455 0.04448 0.0
O541 O 0.80388 0.77617 0.10344 0.0
O542 O 0.67979 0.79636 0.05822 0.0
O543 O 0.73824 0.7614 0.09982 0.0
O544 O 0.7299 0.82073 0.0265 0.0
O545 O 0.64825 0.83346 0.99723 0.0
O546 O 0.59931 0.79935 0.99246 0.0
O547 O 0.65551 0.77485 0.93988 0.0
O548 O 0.77171 0.7618 0.98378 0.0
O549 O 0.71431 0.79683 0.94217 0.0
O550 O 0.71916 0.73847 1.01798 0.0
O551 O 0.8039 0.72465 0.04172 0.0
H552 H 0.93395 0.77399 0.07219 0.0
H553 H 0.93445 0.81919 0.07485 0.0
H554 H 0.75678 0.87851 0.1047 0.0
H555 H 0.75695 0.83368 0.1033 0.0
H556 H 0.58095 0.76319 0.02365 0.0
H557 H 0.57644 0.71976 0.02309 0.0
H558 H 0.61036 0.70838 0.89011 0.0
H559 H 0.61208 0.75282 0.89051 0.0
Tb560 Tb 0.4298 0.03465 0.54924 0.0
Tb561 Tb 0.5302 1.02181 0.49092 0.0
C562 C 0.3433 0.04133 0.57235 0.0
C563 C 0.33923 1.01611 0.58106 0.0
C564 C 0.28917 1.01995 0.57372 0.0
C565 C 0.28833 0.9944 0.57723 0.0
C566 C 0.33779 0.96464 0.58768 0.0
C567 C 0.38746 0.96124 0.59568 0.0
C568 C 0.38807 0.98668 0.59259 0.0
C569 C 0.52109 1.01762 0.59383 0.0
C570 C 0.51908 0.968 0.50549 0.0
C571 C 0.61853 1.0132 0.46745 0.0
C572 C 0.63401 0.03446 0.46573 0.0
C573 C 0.64836 0.04292 0.50205 0.0
C574 C 0.65264 0.06727 0.50086 0.0
C575 C 0.64311 0.08339 0.46328 0.0
C576 C 0.63249 0.07345 0.42651 0.0
C577 C 0.62844 0.04913 0.42768 0.0
C578 C 0.43917 0.03776 0.44664 0.0
C579 C 0.44125 0.08826 0.53448 0.0
O580 O 0.35314 0.04355 0.53316 0.0
O581 O 0.37555 0.04296 0.59809 0.0
O582 O 0.51335 1.01991 0.55466 0.0
O583 O 0.47586 1.02308 0.60941 0.0
O584 O 0.47179 0.9871 0.52709 0.0
O585 O 0.5519 0.97541 0.49282 0.0
O586 O 0.61335 1.00474 0.50455 0.0
O587 O 0.57757 1.02066 0.44211 0.0
O588 O 0.4467 0.03659 0.48575 0.0
O589 O 0.48497 0.03135 0.43067 0.0
O590 O 0.49016 0.06865 0.51495 0.0
O591 O 0.40705 0.08128 0.54497 0.0
H592 H 0.25123 0.04244 0.56439 0.0
H593 H 0.24919 0.99789 0.57132 0.0
H594 H 0.42664 0.93866 0.60281 0.0
H595 H 0.42747 0.98306 0.59789 0.0
H596 H 0.65458 0.03147 0.53162 0.0
H597 H 0.66233 0.07385 0.52952 0.0
H598 H 0.62458 0.08541 0.39704 0.0
H599 H 0.6181 0.04286 0.39904 0.0
Tb600 Tb 0.42711 0.53424 0.05051 0.0
Tb601 Tb 0.52481 0.5238 0.9916 0.0
C602 C 0.34273 0.53889 0.07436 0.0
C603 C 0.33997 0.51318 0.08272 0.0
C604 C 0.29003 0.51673 0.0763 0.0
C605 C 0.29009 0.49088 0.07949 0.0
C606 C 0.3403 0.46111 0.08872 0.0
C607 C 0.38986 0.45798 0.09592 0.0
C608 C 0.38962 0.48373 0.0931 0.0
C609 C 0.51892 0.51752 0.09436 0.0
C610 C 0.51841 0.46837 1.00569 0.0
C611 C 0.60916 0.51942 0.96871 0.0
C612 C 0.61189 0.54527 0.96119 0.0
C613 C 0.65916 0.54304 0.97368 0.0
C614 C 0.65829 0.5692 0.9714 0.0
C615 C 0.60999 0.59793 0.95673 0.0
C616 C 0.56318 0.5998 0.94366 0.0
C617 C 0.56408 0.57379 0.94594 0.0
C618 C 0.43308 0.54047 0.94772 0.0
C619 C 0.43314 0.5898 0.03569 0.0
O620 O 0.35145 0.54177 0.03514 0.0
O621 O 0.37495 0.54068 0.09989 0.0
O622 O 0.51049 0.51985 0.05522 0.0
O623 O 0.47414 0.52262 0.11029 0.0
O624 O 0.47059 0.48693 0.02689 0.0
O625 O 0.55035 0.47656 0.99386 0.0
O626 O 0.60045 0.51607 1.00772 0.0
O627 O 0.57736 0.5176 0.94269 0.0
O628 O 0.44152 0.53805 0.98686 0.0
O629 O 0.47789 0.53536 0.9318 0.0
O630 O 0.48098 0.57124 1.01455 0.0
O631 O 0.40142 0.58152 0.04781 0.0
H632 H 0.25147 0.53926 0.06791 0.0
H633 H 0.25104 0.49413 0.07424 0.0
H634 H 0.42951 0.43541 0.10218 0.0
H635 H 0.42889 0.48037 0.09769 0.0
H636 H 0.69606 0.52136 0.98614 0.0
H637 H 0.69515 0.56701 0.98144 0.0
H638 H 0.52494 0.62168 0.93306 0.0
H639 H 0.52649 0.57634 0.93705 0.0
C640 C 0.87527 0.13768 0.08266 0.0
C641 C 0.91135 0.12267 0.0481 0.0
H642 H 0.84339 0.17289 0.12993 0.0
C643 C 0.93967 0.13404 0.03259 0.0
H644 H 0.85326 0.12934 0.0957 0.0
C645 C 0.93433 0.15877 0.05235 0.0
C646 C 0.90073 0.17268 0.08829 0.0
H647 H 0.96796 0.12296 1.00617 0.0
H648 H 0.95859 0.16605 0.04053 0.0
C649 C 0.87027 0.16232 0.10269 0.0
C650 C 0.80657 0.26793 0.37806 0.0
C651 C 0.81456 0.26918 0.42125 0.0
H652 H 0.83337 0.2667 0.31542 0.0
C653 C 0.86007 0.26877 0.43388 0.0
H654 H 0.77155 0.26858 0.36712 0.0
C655 C 0.89521 0.26836 0.40394 0.0
C656 C 0.88613 0.26797 0.36059 0.0
H657 H 0.86676 0.27051 0.46665 0.0
H658 H 0.92866 0.26913 0.41481 0.0
C659 C 0.84205 0.26697 0.34828 0.0
C660 C 0.83361 0.14621 0.60439 0.0
C661 C 0.80188 0.13646 0.59053 0.0
H662 H 0.85221 0.17854 0.59666 0.0
C663 C 0.76712 0.15101 0.55517 0.0
H664 H 0.86133 0.1352 0.63123 0.0
C665 C 0.76234 0.1755 0.53528 0.0
C666 C 0.79223 0.18614 0.54999 0.0
H667 H 0.74164 0.14436 0.54379 0.0
H668 H 0.7333 0.18697 0.50933 0.0
C669 C 0.82903 0.17072 0.5842 0.0
C670 C 0.88842 0.04983 0.8768 0.0
C671 C 0.88777 0.04466 0.91999 0.0
H672 H 0.85743 0.05205 0.81532 0.0
C673 C 0.85041 0.03875 0.93376 0.0
H674 H 0.91653 0.05443 0.86473 0.0
C675 C 0.81629 0.037 0.90488 0.0
C676 C 0.81827 0.04137 0.86137 0.0
H677 H 0.84879 0.03463 0.96659 0.0
H678 H 0.78907 0.03168 0.91662 0.0
C679 C 0.85436 0.04835 0.84817 0.0
C680 C 0.07166 1.00907 0.15739 0.0
C681 C 0.06408 1.02179 0.11717 0.0
H682 H 0.11074 0.99901 0.21796 0.0
C683 C 0.09317 0.03396 0.10766 0.0
H684 H 0.04849 1.00045 0.16635 0.0
C685 C 0.12893 0.03328 0.13738 0.0
C686 C 0.13574 1.02108 0.17801 0.0
H687 H 0.08598 0.04563 0.07811 0.0
H688 H 0.14952 0.04351 0.12895 0.0
C689 C 0.10704 1.00856 0.18723 0.0
C690 C -0.00839 0.43291 0.49412 0.0
C691 C 0.03075 0.43895 0.48782 0.0
H692 H 0.96556 0.40501 0.4779 0.0
C693 C 0.07711 0.41897 0.46144 0.0
H694 H 0.9553 0.44768 0.51417 0.0
C695 C 0.08273 0.39447 0.44043 0.0
C696 C 0.04191 0.38957 0.44513 0.0
H697 H 0.10794 0.42295 0.45567 0.0
H698 H 0.11783 0.38013 0.41924 0.0
C699 C -0.00297 0.40862 0.47293 0.0
C700 C 0.59638 0.28795 0.60467 0.0
C701 C 0.64164 0.28768 0.61761 0.0
H702 H 0.52785 0.28739 0.62328 0.0
C703 C 0.64932 0.2889 0.66085 0.0
H704 H 0.58995 0.28623 0.57184 0.0
C705 C 0.61374 0.28974 0.69039 0.0
C706 C 0.56986 0.28864 0.67778 0.0
H707 H 0.68413 0.28837 0.67203 0.0
H708 H 0.62216 0.29004 0.7233 0.0
C709 C 0.56114 0.28823 0.63437 0.0
C710 C 0.6168 0.9151 0.94472 0.0
C711 C 0.65903 0.91905 0.94813 0.0
H712 H 0.5899 0.88759 0.9615 0.0
C713 C 0.70448 0.89953 0.97544 0.0
H714 H 0.58118 0.92983 0.92397 0.0
C715 C 0.7092 0.87563 0.99717 0.0
C716 C 0.66871 0.87047 0.99211 0.0
H717 H 0.73708 0.90238 0.97951 0.0
H718 H 0.74621 0.86031 1.01641 0.0
C719 C 0.62169 0.89097 0.96638 0.0
C720 C 0.15453 0.28288 0.16061 0.0
C721 C 0.14333 0.28534 0.11736 0.0
H722 H 0.12936 0.2817 0.2228 0.0
C723 C 0.09382 0.28995 0.10427 0.0
H724 H 0.19238 0.27917 0.17191 0.0
C725 C 0.05795 0.29056 0.13377 0.0
C726 C 0.07008 0.28738 0.17708 0.0
H727 H 0.08412 0.29167 0.07129 0.0
H728 H 0.02114 0.2931 0.1226 0.0
C729 C 0.11825 0.28429 0.18995 0.0
C730 C 0.62133 0.41111 0.43548 0.0
C731 C 0.65252 0.4211 0.44971 0.0
H732 H 0.60343 0.37846 0.44274 0.0
C733 C 0.68682 0.40677 0.48533 0.0
H734 H 0.59396 0.42197 0.40844 0.0
C735 C 0.69178 0.38218 0.50508 0.0
C736 C 0.66257 0.37125 0.48991 0.0
H737 H 0.71183 0.41364 0.497 0.0
H738 H 0.72047 0.37086 0.53124 0.0
C739 C 0.62609 0.38651 0.45551 0.0
C740 C 0.59397 1.02708 0.60783 0.0
C741 C 0.56548 1.01506 0.62023 0.0
H742 H 0.6488 0.03864 0.62594 0.0
C743 C 0.57326 1.00426 0.66172 0.0
H744 H 0.58709 0.03682 0.57682 0.0
C745 C 0.6075 1.00577 0.69014 0.0
C746 C 0.63529 1.01834 0.67837 0.0
H747 H 0.55149 0.99523 0.67271 0.0
H748 H 0.61123 0.99753 0.7218 0.0
C749 C 0.62867 0.02855 0.6364 0.0
C750 C 0.07249 0.92215 0.95839 0.0
C751 C 0.02613 0.94178 0.98491 0.0
H752 H 0.11385 0.88341 0.91601 0.0
C753 C -0.01276 0.93554 0.99079 0.0
H754 H 0.10313 0.92632 0.95297 0.0
C755 C -0.00689 0.91121 0.96933 0.0
C756 C 0.03827 0.89231 0.94169 0.0
H757 H 0.95115 0.95 1.01107 0.0
H758 H 0.962 0.90732 0.9742 0.0
C759 C 0.07859 0.8976 0.93712 0.0
C760 C 0.07449 0.1484 0.91745 0.0
C761 C 0.11065 0.12324 0.94462 0.0
H762 H 0.04095 0.19475 0.89898 0.0
C763 C 0.14332 0.12568 0.97349 0.0
H764 H 0.04916 0.14722 0.8945 0.0
C765 C 0.13952 0.15268 0.97541 0.0
C766 C 0.10249 0.17811 0.94889 0.0
H767 H 0.17097 0.10702 0.99539 0.0
H768 H 0.16585 0.15352 0.99767 0.0
C769 C 0.07022 0.17557 0.91972 0.0
C770 C 0.56524 0.64491 0.27012 0.0
C771 C 0.62416 0.62097 0.27043 0.0
H772 H 0.49684 0.69435 0.27125 0.0
C773 C 0.65928 0.63004 0.26818 0.0
H774 H 0.53675 0.63891 0.27235 0.0
C775 C 0.6362 0.66197 0.26892 0.0
C776 C 0.57731 0.6859 0.27038 0.0
H777 H 0.70463 0.61252 0.2691 0.0
H778 H 0.66476 0.66796 0.27023 0.0
C779 C 0.54213 0.67684 0.26936 0.0
C780 C 0.31306 0.90593 0.55778 0.0
C781 C 0.34758 0.88171 0.58663 0.0
H782 H 0.2833 0.95079 0.53507 0.0
C783 C 0.37719 0.88558 0.61675 0.0
H784 H 0.28887 0.90407 0.53461 0.0
C785 C 0.37253 0.91286 0.6179 0.0
C786 C 0.33892 0.93679 0.58851 0.0
H787 H 0.40466 0.86737 0.63922 0.0
H788 H 0.3956 0.91508 0.6418 0.0
C789 C 0.309 0.93306 0.55855 0.0
C790 C 0.04291 0.67743 0.76873 0.0
C791 C 0.0782 0.68643 0.7689 0.0
H792 H 0.03737 0.63959 0.77272 0.0
C793 C 0.13705 0.66244 0.76724 0.0
H794 H -0.00235 0.69499 0.77079 0.0
C795 C 0.16001 0.63053 0.76699 0.0
C796 C 0.12482 0.62154 0.76996 0.0
H797 H 0.16569 0.66839 0.7679 0.0
H798 H 0.20536 0.61297 0.76759 0.0
C799 C 0.06591 0.64552 0.76999 0.0
C800 C 0.8035 0.41119 0.61286 0.0
C801 C 0.82841 0.38954 0.57986 0.0
H802 H 0.7783 0.45488 0.63667 0.0
C803 C 0.84724 0.39623 0.54446 0.0
H804 H 0.78899 0.4067 0.64079 0.0
C805 C 0.84213 0.42369 0.54247 0.0
C806 C 0.81775 0.44514 0.57575 0.0
H807 H 0.86577 0.38032 0.51817 0.0
H808 H 0.85854 0.42771 0.51531 0.0
C809 C 0.79789 0.43871 0.61071 0.0
C810 C 0.38988 0.911 0.27296 0.0
C811 C 0.33124 0.93549 0.27181 0.0
H812 H 0.45672 0.86132 0.2728 0.0
C813 C 0.29486 0.92724 0.2733 0.0
H814 H 0.41931 0.91637 0.27134 0.0
C815 C 0.3165 0.89555 0.27279 0.0
C816 C 0.37515 0.87105 0.27227 0.0
H817 H 0.2497 0.94521 0.27163 0.0
H818 H 0.28707 0.89019 0.27097 0.0
C819 C 0.41153 0.8793 0.27393 0.0
C820 C 0.38931 0.41235 0.77002 0.0
C821 C 0.33045 0.43644 0.77007 0.0
H822 H 0.45727 0.36285 0.76897 0.0
C823 C 0.29504 0.42759 0.77305 0.0
H824 H 0.41801 0.41818 0.76731 0.0
C825 C 0.31773 0.39573 0.77267 0.0
C826 C 0.37653 0.37164 0.77086 0.0
H827 H 0.24972 0.44524 0.77251 0.0
H828 H 0.28892 0.38989 0.77193 0.0
C829 C 0.41205 0.38049 0.77114 0.0
C830 C 0.113 0.77153 0.60582 0.0
C831 C 0.1387 0.7858 0.61427 0.0
H832 H 0.05979 0.76011 0.62818 0.0
C833 C 0.1284 0.80034 0.6534 0.0
H834 H 0.12245 0.75855 0.57714 0.0
C835 C 0.09371 0.80052 0.68333 0.0
C836 C 0.06843 0.78591 0.67524 0.0
H837 H 0.14903 0.81063 0.6615 0.0
H838 H 0.08783 0.81151 0.71328 0.0
C839 C 0.07779 0.77193 0.63562 0.0
C840 C 0.13171 0.90646 0.42729 0.0
C841 C 0.1599 0.91772 0.44364 0.0
H842 H 0.1158 0.87291 0.43272 0.0
C843 C 0.19177 0.90425 0.48049 0.0
H844 H 0.10626 0.91662 0.39923 0.0
C845 C 0.19702 0.87942 0.49976 0.0
C846 C 0.17024 0.86751 0.4828 0.0
H847 H 0.2142 0.91226 0.49374 0.0
H848 H 0.22331 0.86905 0.5274 0.0
C849 C 0.13658 0.8817 0.44681 0.0
C850 C 0.95392 0.65239 0.55561 0.0
C851 C 0.91486 0.66866 0.58818 0.0
H852 H -0.00829 0.61481 0.51184 0.0
C853 C 0.87952 0.66069 0.59884 0.0
H854 H -0.01817 0.65794 0.54672 0.0
C855 C 0.88477 0.63609 0.57863 0.0
C856 C 0.92583 0.61873 0.5475 0.0
H857 H 0.84832 0.67319 0.62331 0.0
H858 H 0.85823 0.62989 0.58877 0.0
C859 C 0.95947 0.62766 0.53557 0.0
C860 C 0.31473 0.75757 0.37638 0.0
C861 C 0.31436 0.76312 0.41952 0.0
H862 H 0.34685 0.75507 0.31548 0.0
C863 C 0.35111 0.76933 0.434 0.0
H864 H 0.28715 0.7527 0.36385 0.0
C865 C 0.38563 0.77106 0.40572 0.0
C866 C 0.38456 0.76636 0.36222 0.0
H867 H 0.35195 0.77372 0.46688 0.0
H868 H 0.41235 0.77662 0.41788 0.0
C869 C 0.34914 0.75905 0.34838 0.0
C870 C 0.26373 0.15082 0.05535 0.0
C871 C 0.29955 0.13613 0.09017 0.0
H872 H 0.22876 0.18692 1.00934 0.0
C873 C 0.3319 0.14569 0.10304 0.0
H874 H 0.23805 0.14414 0.0448 0.0
C875 C 0.32686 0.17018 0.0825 0.0
C876 C 0.28895 0.18582 0.04894 0.0
H877 H 0.36051 0.13452 0.12938 0.0
H878 H 0.35066 0.17781 0.09425 0.0
C879 C 0.2584 0.17538 0.03504 0.0
C880 C 0.8546 0.77353 0.93599 0.0
C881 C 0.81218 0.77119 0.92339 0.0
H882 H 0.92078 0.77607 0.91697 0.0
C883 C 0.8069 0.7678 0.88038 0.0
H884 H 0.85872 0.77724 0.96859 0.0
C885 C 0.84228 0.76714 0.85073 0.0
C886 C 0.88358 0.77055 0.86289 0.0
H887 H 0.77405 0.76652 0.86943 0.0
H888 H 0.83576 0.76501 0.81797 0.0
C889 C 0.88974 0.77329 0.90616 0.0
C890 C 0.26542 0.6515 0.55769 0.0
C891 C 0.30286 0.63663 0.59157 0.0
H892 H 0.22941 0.68725 0.51137 0.0
C893 C 0.33809 0.64486 0.60157 0.0
H894 H 0.23871 0.64515 0.54854 0.0
C895 C 0.33298 0.66906 0.58001 0.0
C896 C 0.29272 0.68536 0.54793 0.0
H897 H 0.36752 0.63369 0.62745 0.0
H898 H 0.3582 0.67616 0.59017 0.0
C899 C 0.26057 0.67545 0.53607 0.0
C900 C 0.33157 1.02662 0.40437 0.0
C901 C 0.32299 0.03814 0.363 0.0
H902 H 0.37543 1.01667 0.46311 0.0
C903 C 0.34958 0.05148 0.35166 0.0
H904 H 0.31254 1.01582 0.41437 0.0
C905 C 0.38448 0.05253 0.37991 0.0
C906 C 0.39418 0.0405 0.42082 0.0
H907 H 0.34437 0.06071 0.32043 0.0
H908 H 0.40523 0.06223 0.36922 0.0
C909 C 0.36701 0.02758 0.43278 0.0
C910 C 0.81201 0.90413 0.1195 0.0
C911 C 0.84432 0.88033 0.08983 0.0
H912 H 0.78285 0.949 0.14142 0.0
C913 C 0.87373 0.88386 0.05923 0.0
H914 H 0.78934 0.902 0.1438 0.0
C915 C 0.87094 0.9106 0.05841 0.0
C916 C 0.83833 0.93449 0.08798 0.0
H917 H 0.89838 0.86616 0.03558 0.0
H918 H 0.89501 0.91231 0.03493 0.0
C919 C 0.80878 0.93096 0.11843 0.0
C920 C 0.60887 0.16122 0.49262 0.0
C921 C 0.62898 0.16747 0.45761 0.0
H922 H 0.5972 0.12991 0.52177 0.0
C923 C 0.65578 0.14525 0.42537 0.0
H924 H 0.58888 0.17759 0.51834 0.0
C925 C 0.66204 0.11755 0.42791 0.0
C926 C 0.64096 0.11154 0.46247 0.0
H927 H 0.67134 0.14939 0.39778 0.0
H928 H 0.68312 0.10091 0.40256 0.0
C929 C 0.61462 0.1336 0.49496 0.0
C930 C 0.79343 0.42689 0.27186 0.0
C931 C 0.8288 0.4358 0.26982 0.0
H932 H 0.78751 0.38914 0.2697 0.0
C933 C 0.88767 0.41177 0.27027 0.0
H934 H 0.74811 0.4445 0.27079 0.0
C935 C 0.91051 0.37988 0.27104 0.0
C936 C 0.87509 0.37098 0.26987 0.0
H937 H 0.91633 0.41766 0.26822 0.0
H938 H 0.95578 0.36228 0.26933 0.0
C939 C 0.81624 0.39501 0.27113 0.0
C940 C 0.10198 0.63795 0.49233 0.0
C941 C 0.13 0.61606 0.4598 0.0
H942 H 0.07296 0.68237 0.51642 0.0
C943 C 0.15032 0.62296 0.42569 0.0
H944 H 0.08511 0.63356 0.51879 0.0
C945 C 0.14223 0.65124 0.42388 0.0
C946 C 0.11391 0.67323 0.45625 0.0
H947 H 0.17248 0.60651 0.40028 0.0
H948 H 0.15772 0.65599 0.39684 0.0
C949 C 0.09411 0.66619 0.49061 0.0
C950 C 0.56636 0.14569 0.76891 0.0
C951 C 0.62519 0.12156 0.76931 0.0
H952 H 0.49854 0.19523 0.76961 0.0
C953 C 0.66076 0.13031 0.76687 0.0
H954 H 0.53754 0.13993 0.77126 0.0
C955 C 0.63822 0.16216 0.76727 0.0
C956 C 0.57942 0.1863 0.76859 0.0
H957 H 0.70606 0.11263 0.76786 0.0
H958 H 0.66711 0.16792 0.76841 0.0
C959 C 0.54378 0.17754 0.76782 0.0
C960 C 0.74975 0.65737 0.0639 0.0
C961 C 0.79376 0.63888 0.09267 0.0
H962 H 0.70898 0.69581 0.02145 0.0
C963 C 0.83433 0.64396 0.09777 0.0
H964 H 0.71866 0.65354 0.05857 0.0
C965 C 0.82898 0.66828 0.07635 0.0
C966 C 0.78314 0.68784 0.04922 0.0
H967 H 0.86884 0.63 0.11966 0.0
H968 H 0.85924 0.67264 0.08258 0.0
C969 C 0.74462 0.68143 0.04231 0.0
C970 C 0.88537 0.5506 0.37716 0.0
C971 C 0.8936 0.53972 0.41864 0.0
H972 H 0.84598 0.55803 0.31756 0.0
C973 C 0.86444 0.52817 0.43149 0.0
H974 H 0.90755 0.55931 0.36582 0.0
C975 C 0.82864 0.52728 0.40334 0.0
C976 C 0.82146 0.53765 0.3614 0.0
H977 H 0.87153 0.51843 0.46251 0.0
H978 H 0.80798 0.51757 0.41413 0.0
C979 C 0.85001 0.54971 0.34921 0.0
C980 C 0.10704 0.50709 0.68836 0.0
C981 C 0.13539 0.51939 0.67687 0.0
H982 H 0.05008 0.49728 0.67074 0.0
C983 C 0.12861 0.52993 0.63505 0.0
H984 H 0.1108 0.49861 0.71987 0.0
C985 C 0.09329 0.52901 0.60638 0.0
C986 C 0.06424 0.51727 0.61856 0.0
H987 H 0.14915 0.53983 0.62479 0.0
H988 H 0.08639 0.53892 0.5755 0.0
C989 C 0.07218 0.50615 0.65988 0.0
C990 C 0.55482 0.79312 0.13719 0.0
C991 C 0.56844 0.78833 0.18034 0.0
H992 H 0.5793 0.79599 0.07483 0.0
C993 C 0.61779 0.78408 0.19295 0.0
H994 H 0.51707 0.79664 0.12616 0.0
C995 C 0.65371 0.78301 0.1635 0.0
C996 C 0.64106 0.78703 0.12037 0.0
H997 H 0.63008 0.78027 0.22562 0.0
H998 H 0.69247 0.7783 0.1746 0.0
C999 C 0.59031 0.79292 0.10766 0.0
C1000 C 0.62448 0.52997 0.13774 0.0
C1001 C 0.63352 0.51814 0.17897 0.0
H1002 H 0.58071 0.53997 0.07898 0.0
C1003 C 0.60779 0.50425 0.18994 0.0
H1004 H 0.64279 0.54121 0.12798 0.0
C1005 C 0.57345 0.50287 0.16139 0.0
C1006 C 0.56338 0.51517 0.12056 0.0
H1007 H 0.61336 0.49478 0.22105 0.0
H1008 H 0.55343 0.49269 0.17178 0.0
C1009 C 0.58954 0.52875 0.1091 0.0
C1010 C 0.37676 0.40872 0.11765 0.0
C1011 C 0.34222 0.43302 0.08893 0.0
H1012 H 0.4099 0.3628 0.13789 0.0
C1013 C 0.312 0.42951 0.059 0.0
H1014 H 0.4001 0.41079 0.14148 0.0
C1015 C 0.31665 0.40222 0.05758 0.0
C1016 C 0.35207 0.37766 0.08574 0.0
H1017 H 0.28558 0.44755 0.03605 0.0
H1018 H 0.29218 0.40049 0.03449 0.0
C1019 C 0.38192 0.38129 0.11589 0.0
C1020 C 0.04492 0.17644 0.26768 0.0
C1021 C 0.07988 0.18566 0.26816 0.0
H1022 H 0.04001 0.13838 0.27164 0.0
C1023 C 0.13882 0.16184 0.26687 0.0
H1024 H -0.00039 0.19388 0.26951 0.0
C1025 C 0.16219 0.12987 0.2668 0.0
C1026 C 0.12729 0.12068 0.26953 0.0
H1027 H 0.16719 0.16797 0.26781 0.0
H1028 H 0.20756 0.11245 0.26783 0.0
C1029 C 0.06832 0.14449 0.26907 0.0
C1030 C 0.20334 0.37734 0.99723 0.0
C1031 C 0.16787 0.3692 0.98773 0.0
H1032 H 0.22746 0.40637 0.9828 0.0
C1033 C 0.12498 0.38697 0.95776 0.0
H1034 H 0.23643 0.36444 0.02042 0.0
C1035 C 0.11986 0.41119 0.93617 0.0
C1036 C 0.15778 0.4179 0.94394 0.0
H1037 H 0.09713 0.38125 0.94948 0.0
H1038 H 0.08784 0.42373 0.91213 0.0
C1039 C 0.19856 0.40123 0.97545 0.0
C1040 C 0.36275 0.26499 0.93331 0.0
C1041 C 0.31259 0.2704 0.92004 0.0
H1042 H 0.43584 0.26161 0.91545 0.0
C1043 C 0.30069 0.274 0.87685 0.0
H1044 H 0.37312 0.26228 0.96625 0.0
C1045 C 0.33684 0.27296 0.84779 0.0
C1046 C 0.38564 0.26911 0.86089 0.0
H1047 H 0.2624 0.27831 0.86538 0.0
H1048 H 0.32515 0.27641 0.815 0.0
C1049 C 0.39851 0.26479 0.90412 0.0
C1050 C 0.36226 0.52934 0.93291 0.0
C1051 C 0.38866 0.5428 0.92146 0.0
H1052 H 0.30909 0.51684 0.91383 0.0
C1053 C 0.37886 0.55498 0.88059 0.0
H1054 H 0.37074 0.51831 0.96314 0.0
C1055 C 0.34472 0.55353 0.85195 0.0
C1056 C 0.31888 0.53968 0.86283 0.0
H1057 H 0.399 0.5651 0.87022 0.0
H1058 H 0.33945 0.56289 0.82081 0.0
C1059 C 0.32753 0.52802 0.90413 0.0
C1060 C 0.57607 0.67491 0.92318 0.0
C1061 C 0.59721 0.68168 0.95694 0.0
H1062 H 0.56485 0.64285 0.89614 0.0
C1063 C 0.62336 0.66039 0.99039 0.0
H1064 H 0.55513 0.69091 0.89711 0.0
C1065 C 0.62823 0.63301 0.99011 0.0
C1066 C 0.60716 0.62627 0.9563 0.0
H1067 H 0.64067 0.66467 1.01666 0.0
H1068 H 0.64772 0.61737 1.01669 0.0
C1069 C 0.58117 0.64748 0.92281 0.0
C1070 C 0.90979 0.88062 0.77134 0.0
C1071 C 0.87384 0.87206 0.7702 0.0
H1072 H 0.9167 0.918 0.76846 0.0
C1073 C 0.81511 0.89637 0.77139 0.0
H1074 H 0.95501 0.8628 0.76975 0.0
C1075 C 0.79295 0.92816 0.77205 0.0
C1076 C 0.82885 0.93671 0.77002 0.0
H1077 H 0.78597 0.89078 0.77005 0.0
H1078 H 0.74769 0.94597 0.771 0.0
C1079 C 0.88761 0.9124 0.7705 0.0
C1080 C 0.37456 0.16298 0.59629 0.0
C1081 C 0.41577 0.16766 0.59275 0.0
H1082 H 0.3497 0.13445 0.58029 0.0
C1083 C 0.46204 0.14806 0.56628 0.0
H1084 H 0.33841 0.17774 0.61647 0.0
C1085 C 0.46831 0.12347 0.54525 0.0
C1086 C 0.42862 0.11771 0.55039 0.0
H1087 H 0.49388 0.15148 0.5622 0.0
H1088 H 0.50558 0.1083 0.52622 0.0
C1089 C 0.38099 0.1382 0.57544 0.0
C1090 C 0.49981 0.40766 0.97449 0.0
C1091 C 0.54426 0.38926 0.94615 0.0
H1092 H 0.45773 0.44631 1.01633 0.0
C1093 C 0.58423 0.39477 0.94129 0.0
H1094 H 0.46904 0.40354 0.97959 0.0
C1095 C 0.57798 0.41938 0.96259 0.0
C1096 C 0.53187 0.43878 0.98944 0.0
H1097 H 0.61903 0.38088 0.91971 0.0
H1098 H 0.60802 0.42392 0.95665 0.0
C1099 C 0.4938 0.432 0.99597 0.0
C1100 C 0.49634 0.90883 0.47471 0.0
C1101 C 0.54164 0.88931 0.44744 0.0
H1102 H 0.45448 0.94829 0.5152 0.0
C1103 C 0.5831 0.89374 0.44308 0.0
H1104 H 0.46433 0.90559 0.47941 0.0
C1105 C 0.57773 0.91825 0.46387 0.0
C1106 C 0.53098 0.93868 0.48972 0.0
H1107 H 0.61855 0.87902 0.4223 0.0
H1108 H 0.6091 0.92185 0.45838 0.0
C1109 C 0.49116 0.93311 0.49569 0.0
C1110 C 0.45659 0.62678 0.04371 0.0
C1111 C 0.41943 0.61953 0.05154 0.0
H1112 H 0.48108 0.65555 0.05895 0.0
C1113 C 0.37433 0.63852 0.07935 0.0
H1114 H 0.49179 0.61284 0.02249 0.0
C1115 C 0.3684 0.66311 0.10043 0.0
C1116 C 0.40768 0.669 0.09436 0.0
H1117 H 0.34502 0.63361 0.08628 0.0
H1118 H 0.33452 0.67663 0.12282 0.0
C1119 C 0.45091 0.6511 0.06498 0.0
loop_
_geom_bond_atom_site_label_1
_geom_bond_atom_site_label_2
_geom_bond_distance
_geom_bond_site_symmetry_2
_ccdc_geom_bond_type
Tb0 C2 2.809 . S
Tb0 O20 2.484 . S
Tb0 O21 2.440 . S
Tb0 O22 2.658 1_655 S
Tb0 O23 2.409 1_655 S
Tb0 O24 2.378 1_655 S
Tb0 O28 2.325 1_564 S
Tb0 O31 2.341 1_565 S
Tb1 C11 2.809 . S
Tb1 O22 2.325 1_546 S
Tb1 O25 2.341 1_545 S
Tb1 O26 2.484 . S
Tb1 O27 2.440 . S
Tb1 O28 2.658 1_455 S
Tb1 O29 2.409 1_455 S
Tb1 O30 2.378 1_455 S
C2 Tb0 2.809 . S
C2 C3 1.514 . S
C2 O20 1.248 . S
C2 O21 1.266 . S
C3 C2 1.514 . S
C3 C4 1.359 . S
C3 C8 1.348 . S
C4 C3 1.359 . S
C4 C5 1.380 . S
C4 H32 0.929 1_554 S
C5 C4 1.380 . S
C5 C6 1.347 . S
C5 H33 0.931 1_554 S
C6 C5 1.347 . S
C6 C7 1.369 . S
C7 C6 1.369 . S
C7 C8 1.408 . S
C7 H34 0.930 . S
C8 C3 1.348 . S
C8 C7 1.408 . S
C8 H35 0.930 . S
C9 O22 1.281 . S
C9 O23 1.254 . S
C10 O24 1.236 1_556 S
C10 O25 1.266 . S
C11 Tb1 2.809 . S
C11 C12 1.514 . S
C11 O26 1.248 . S
C11 O27 1.266 . S
C12 C11 1.514 . S
C12 C13 1.359 . S
C12 C17 1.348 . S
C13 C12 1.359 . S
C13 C14 1.380 . S
C13 H36 0.929 1_556 S
C14 C13 1.380 . S
C14 C15 1.347 . S
C14 H37 0.931 1_556 S
C15 C14 1.347 . S
C15 C16 1.369 . S
C16 C15 1.369 . S
C16 C17 1.408 . S
C16 H38 0.930 . S
C17 C12 1.348 . S
C17 C16 1.408 . S
C17 H39 0.930 . S
C18 O28 1.281 . S
C18 O29 1.254 . S
C19 O30 1.236 1_554 S
C19 O31 1.266 . S
O20 Tb0 2.484 . S
O20 C2 1.248 . S
O21 Tb0 2.440 . S
O21 C2 1.266 . S
O22 Tb0 2.658 1_455 S
O22 Tb1 2.325 1_564 S
O22 C9 1.281 . S
O23 Tb0 2.409 1_455 S
O23 C9 1.254 . S
O24 Tb0 2.378 1_455 S
O24 C10 1.236 1_554 S
O25 Tb1 2.341 1_565 S
O25 C10 1.266 . S
O26 Tb1 2.484 . S
O26 C11 1.248 . S
O27 Tb1 2.440 . S
O27 C11 1.266 . S
O28 Tb0 2.325 1_546 S
O28 Tb1 2.658 1_655 S
O28 C18 1.281 . S
O29 Tb1 2.409 1_655 S
O29 C18 1.254 . S
O30 Tb1 2.378 1_655 S
O30 C19 1.236 1_556 S
O31 Tb0 2.341 1_545 S
O31 C19 1.266 . S
H32 C4 0.929 1_556 S
H33 C5 0.931 1_556 S
H34 C7 0.930 . S
H35 C8 0.930 . S
H36 C13 0.929 1_554 S
H37 C14 0.931 1_554 S
H38 C16 0.930 . S
H39 C17 0.930 . S
Tb40 C42 2.809 . S
Tb40 O60 2.485 . S
Tb40 O61 2.440 . S
Tb40 O62 2.658 . S
Tb40 O63 2.409 . S
Tb40 O64 2.378 1_455 S
Tb40 O68 2.325 1_455 S
Tb40 O71 2.341 . S
Tb41 C51 2.809 . S
Tb41 O62 2.325 1_655 S
Tb41 O65 2.341 . S
Tb41 O66 2.484 . S
Tb41 O67 2.440 . S
Tb41 O68 2.658 . S
Tb41 O69 2.409 . S
Tb41 O70 2.378 1_655 S
C42 Tb40 2.809 . S
C42 C43 1.514 . S
C42 O60 1.257 . S
C42 O61 1.266 . S
C43 C42 1.514 . S
C43 C44 1.359 1_455 S
C43 C48 1.348 . S
C44 C43 1.359 1_655 S
C44 C45 1.380 . S
C44 H72 0.929 . S
C45 C44 1.380 . S
C45 C46 1.347 1_655 S
C45 H73 0.931 . S
C46 C45 1.347 1_455 S
C46 C47 1.369 . S
C47 C46 1.369 . S
C47 C48 1.408 . S
C47 H74 0.930 . S
C48 C43 1.348 . S
C48 C47 1.408 . S
C48 H75 0.930 . S
C49 O62 1.281 . S
C49 O63 1.254 . S
C50 O64 1.236 . S
C50 O65 1.266 . S
C51 Tb41 2.809 . S
C51 C52 1.514 . S
C51 O66 1.247 . S
C51 O67 1.266 . S
C52 C51 1.514 . S
C52 C53 1.359 1_655 S
C52 C57 1.348 . S
C53 C52 1.359 1_455 S
C53 C54 1.380 . S
C53 H76 0.929 . S
C54 C53 1.380 . S
C54 C55 1.347 1_455 S
C54 H77 0.931 . S
C55 C54 1.347 1_655 S
C55 C56 1.369 . S
C56 C55 1.369 . S
C56 C57 1.408 . S
C56 H78 0.930 . S
C57 C52 1.348 . S
C57 C56 1.408 . S
C57 H79 0.930 . S
C58 O68 1.281 . S
C58 O69 1.254 . S
C59 O70 1.236 . S
C59 O71 1.266 . S
O60 Tb40 2.485 . S
O60 C42 1.257 . S
O61 Tb40 2.440 . S
O61 C42 1.266 . S
O62 Tb40 2.658 . S
O62 Tb41 2.325 1_455 S
O62 C49 1.281 . S
O63 Tb40 2.409 . S
O63 C49 1.254 . S
O64 Tb40 2.378 1_655 S
O64 C50 1.236 . S
O65 Tb41 2.341 . S
O65 C50 1.266 . S
O66 Tb41 2.484 . S
O66 C51 1.247 . S
O67 Tb41 2.440 . S
O67 C51 1.266 . S
O68 Tb40 2.325 1_655 S
O68 Tb41 2.658 . S
O68 C58 1.281 . S
O69 Tb41 2.409 . S
O69 C58 1.254 . S
O70 Tb41 2.378 1_455 S
O70 C59 1.236 . S
O71 Tb40 2.341 . S
O71 C59 1.266 . S
H72 C44 0.929 . S
H73 C45 0.931 . S
H74 C47 0.930 . S
H75 C48 0.930 . S
H76 C53 0.929 . S
H77 C54 0.931 . S
H78 C56 0.930 . S
H79 C57 0.930 . S
Tb80 C82 2.809 . S
Tb80 O100 2.484 . S
Tb80 O101 2.440 . S
Tb80 O102 2.658 . S
Tb80 O103 2.409 . S
Tb80 O104 2.378 . S
Tb80 O108 2.325 . S
Tb80 O111 2.341 . S
Tb81 C91 2.809 . S
Tb81 O102 2.325 . S
Tb81 O105 2.341 . S
Tb81 O106 2.484 . S
Tb81 O107 2.440 . S
Tb81 O108 2.658 . S
Tb81 O109 2.409 . S
Tb81 O110 2.378 . S
C82 Tb80 2.809 . S
C82 C83 1.514 . S
C82 O100 1.248 . S
C82 O101 1.266 . S
C83 C82 1.514 . S
C83 C84 1.359 . S
C83 C88 1.348 . S
C84 C83 1.359 . S
C84 C85 1.380 . S
C84 H112 0.929 . S
C85 C84 1.380 . S
C85 C86 1.347 . S
C85 H113 0.931 . S
C86 C85 1.347 . S
C86 C87 1.369 . S
C87 C86 1.369 . S
C87 C88 1.408 . S
C87 H114 0.930 . S
C88 C83 1.348 . S
C88 C87 1.408 . S
C88 H115 0.930 . S
C89 O102 1.281 . S
C89 O103 1.254 . S
C90 O104 1.236 . S
C90 O105 1.266 . S
C91 Tb81 2.809 . S
C91 C92 1.514 . S
C91 O106 1.248 . S
C91 O107 1.266 . S
C92 C91 1.514 . S
C92 C93 1.359 . S
C92 C97 1.348 . S
C93 C92 1.359 . S
C93 C94 1.380 . S
C93 H116 0.929 . S
C94 C93 1.380 . S
C94 C95 1.347 . S
C94 H117 0.931 . S
C95 C94 1.347 . S
C95 C96 1.369 . S
C96 C95 1.369 . S
C96 C97 1.408 . S
C96 H118 0.930 . S
C97 C92 1.348 . S
C97 C96 1.408 . S
C97 H119 0.930 . S
C98 O108 1.281 . S
C98 O109 1.254 . S
C99 O110 1.236 . S
C99 O111 1.266 . S
O100 Tb80 2.484 . S
O100 C82 1.248 . S
O101 Tb80 2.440 . S
O101 C82 1.266 . S
O102 Tb80 2.658 . S
O102 Tb81 2.325 . S
O102 C89 1.281 . S
O103 Tb80 2.409 . S
O103 C89 1.254 . S
O104 Tb80 2.378 . S
O104 C90 1.236 . S
O105 Tb81 2.341 . S
O105 C90 1.266 . S
O106 Tb81 2.484 . S
O106 C91 1.248 . S
O107 Tb81 2.440 . S
O107 C91 1.266 . S
O108 Tb80 2.325 . S
O108 Tb81 2.658 . S
O108 C98 1.281 . S
O109 Tb81 2.409 . S
O109 C98 1.254 . S
O110 Tb81 2.378 . S
O110 C99 1.236 . S
O111 Tb80 2.341 . S
O111 C99 1.266 . S
H112 C84 0.929 . S
H113 C85 0.931 . S
H114 C87 0.930 . S
H115 C88 0.930 . S
H116 C93 0.929 . S
H117 C94 0.931 . S
H118 C96 0.930 . S
H119 C97 0.930 . S
Tb120 C122 2.809 . S
Tb120 O140 2.484 . S
Tb120 O141 2.440 . S
Tb120 O142 2.658 1_565 S
Tb120 O143 2.409 1_565 S
Tb120 O144 2.377 1_565 S
Tb120 O148 2.325 . S
Tb120 O151 2.341 1_565 S
Tb121 C131 2.809 . S
Tb121 O142 2.325 . S
Tb121 O145 2.342 1_545 S
Tb121 O146 2.484 . S
Tb121 O147 2.440 . S
Tb121 O148 2.658 1_545 S
Tb121 O149 2.409 1_545 S
Tb121 O150 2.378 . S
C122 Tb120 2.809 . S
C122 C123 1.514 . S
C122 O140 1.248 . S
C122 O141 1.266 . S
C123 C122 1.514 . S
C123 C124 1.359 . S
C123 C128 1.348 . S
C124 C123 1.359 . S
C124 C125 1.380 . S
C124 H152 0.929 . S
C125 C124 1.380 . S
C125 C126 1.347 . S
C125 H153 0.931 . S
C126 C125 1.347 . S
C126 C127 1.369 . S
C127 C126 1.369 . S
C127 C128 1.408 . S
C127 H154 0.930 . S
C128 C123 1.348 . S
C128 C127 1.408 . S
C128 H155 0.930 . S
C129 O142 1.281 . S
C129 O143 1.254 . S
C130 O144 1.237 1_565 S
C130 O145 1.265 . S
C131 Tb121 2.809 . S
C131 C132 1.514 . S
C131 O146 1.248 . S
C131 O147 1.266 . S
C132 C131 1.514 . S
C132 C133 1.359 . S
C132 C137 1.348 . S
C133 C132 1.359 . S
C133 C134 1.380 . S
C133 H156 0.929 . S
C134 C133 1.380 . S
C134 C135 1.347 . S
C134 H157 0.931 . S
C135 C134 1.347 . S
C135 C136 1.369 . S
C136 C135 1.369 . S
C136 C137 1.408 . S
C136 H158 0.930 . S
C137 C132 1.348 . S
C137 C136 1.408 . S
C137 H159 0.930 . S
C138 O148 1.281 . S
C138 O149 1.254 . S
C139 O150 1.236 . S
C139 O151 1.266 . S
O140 Tb120 2.484 . S
O140 C122 1.248 . S
O141 Tb120 2.440 . S
O141 C122 1.266 . S
O142 Tb120 2.658 1_545 S
O142 Tb121 2.325 . S
O142 C129 1.281 . S
O143 Tb120 2.409 1_545 S
O143 C129 1.254 . S
O144 Tb120 2.377 1_545 S
O144 C130 1.237 1_545 S
O145 Tb121 2.342 1_565 S
O145 C130 1.265 . S
O146 Tb121 2.484 . S
O146 C131 1.248 . S
O147 Tb121 2.440 . S
O147 C131 1.266 . S
O148 Tb120 2.325 . S
O148 Tb121 2.658 1_565 S
O148 C138 1.281 . S
O149 Tb121 2.409 1_565 S
O149 C138 1.254 . S
O150 Tb121 2.378 . S
O150 C139 1.236 . S
O151 Tb120 2.341 1_545 S
O151 C139 1.266 . S
H152 C124 0.929 . S
H153 C125 0.931 . S
H154 C127 0.930 . S
H155 C128 0.930 . S
H156 C133 0.929 . S
H157 C134 0.931 . S
H158 C136 0.930 . S
H159 C137 0.930 . S
Tb160 C162 2.809 . S
Tb160 O180 2.484 . S
Tb160 O181 2.440 . S
Tb160 O182 2.658 . S
Tb160 O183 2.409 . S
Tb160 O184 2.378 . S
Tb160 O188 2.325 . S
Tb160 O191 2.341 . S
Tb161 C171 2.809 . S
Tb161 O182 2.325 . S
Tb161 O185 2.341 . S
Tb161 O186 2.484 . S
Tb161 O187 2.440 . S
Tb161 O188 2.658 . S
Tb161 O189 2.409 . S
Tb161 O190 2.378 . S
C162 Tb160 2.809 . S
C162 C163 1.514 . S
C162 O180 1.248 . S
C162 O181 1.266 . S
C163 C162 1.514 . S
C163 C164 1.359 . S
C163 C168 1.348 . S
C164 C163 1.359 . S
C164 C165 1.380 . S
C164 H192 0.929 . S
C165 C164 1.380 . S
C165 C166 1.347 . S
C165 H193 0.931 . S
C166 C165 1.347 . S
C166 C167 1.369 . S
C167 C166 1.369 . S
C167 C168 1.408 . S
C167 H194 0.930 . S
C168 C163 1.348 . S
C168 C167 1.408 . S
C168 H195 0.930 . S
C169 O182 1.281 . S
C169 O183 1.254 . S
C170 O184 1.236 . S
C170 O185 1.266 . S
C171 Tb161 2.809 . S
C171 C172 1.514 . S
C171 O186 1.248 . S
C171 O187 1.266 . S
C172 C171 1.514 . S
C172 C173 1.359 . S
C172 C177 1.348 . S
C173 C172 1.359 . S
C173 C174 1.380 . S
C173 H196 0.929 . S
C174 C173 1.380 . S
C174 C175 1.347 . S
C174 H197 0.931 . S
C175 C174 1.347 . S
C175 C176 1.369 . S
C176 C175 1.369 . S
C176 C177 1.408 . S
C176 H198 0.930 . S
C177 C172 1.348 . S
C177 C176 1.408 . S
C177 H199 0.930 . S
C178 O188 1.281 . S
C178 O189 1.254 . S
C179 O190 1.236 . S
C179 O191 1.266 . S
O180 Tb160 2.484 . S
O180 C162 1.248 . S
O181 Tb160 2.440 . S
O181 C162 1.266 . S
O182 Tb160 2.658 . S
O182 Tb161 2.325 . S
O182 C169 1.281 . S
O183 Tb160 2.409 . S
O183 C169 1.254 . S
O184 Tb160 2.378 . S
O184 C170 1.236 . S
O185 Tb161 2.341 . S
O185 C170 1.266 . S
O186 Tb161 2.484 . S
O186 C171 1.248 . S
O187 Tb161 2.440 . S
O187 C171 1.266 . S
O188 Tb160 2.325 . S
O188 Tb161 2.658 . S
O188 C178 1.281 . S
O189 Tb161 2.409 . S
O189 C178 1.254 . S
O190 Tb161 2.378 . S
O190 C179 1.236 . S
O191 Tb160 2.341 . S
O191 C179 1.266 . S
H192 C164 0.929 . S
H193 C165 0.931 . S
H194 C167 0.930 . S
H195 C168 0.930 . S
H196 C173 0.929 . S
H197 C174 0.931 . S
H198 C176 0.930 . S
H199 C177 0.930 . S
Tb200 C202 2.809 . S
Tb200 O220 2.484 . S
Tb200 O221 2.440 . S
Tb200 O222 2.658 . S
Tb200 O223 2.409 . S
Tb200 O224 2.378 . S
Tb200 O228 2.325 . S
Tb200 O231 2.341 . S
Tb201 C211 2.809 . S
Tb201 O222 2.325 . S
Tb201 O225 2.341 . S
Tb201 O226 2.484 . S
Tb201 O227 2.440 . S
Tb201 O228 2.658 . S
Tb201 O229 2.409 . S
Tb201 O230 2.378 . S
C202 Tb200 2.809 . S
C202 C203 1.514 . S
C202 O220 1.248 . S
C202 O221 1.266 . S
C203 C202 1.514 . S
C203 C204 1.359 . S
C203 C208 1.348 . S
C204 C203 1.359 . S
C204 C205 1.380 . S
C204 H232 0.929 . S
C205 C204 1.380 . S
C205 C206 1.347 . S
C205 H233 0.931 . S
C206 C205 1.347 . S
C206 C207 1.369 . S
C207 C206 1.369 . S
C207 C208 1.408 . S
C207 H234 0.930 . S
C208 C203 1.348 . S
C208 C207 1.408 . S
C208 H235 0.930 . S
C209 O222 1.281 . S
C209 O223 1.254 . S
C210 O224 1.236 . S
C210 O225 1.266 . S
C211 Tb201 2.809 . S
C211 C212 1.514 . S
C211 O226 1.248 . S
C211 O227 1.266 . S
C212 C211 1.514 . S
C212 C213 1.359 . S
C212 C217 1.348 . S
C213 C212 1.359 . S
C213 C214 1.380 . S
C213 H236 0.929 . S
C214 C213 1.380 . S
C214 C215 1.347 . S
C214 H237 0.931 . S
C215 C214 1.347 . S
C215 C216 1.369 . S
C216 C215 1.369 . S
C216 C217 1.408 . S
C216 H238 0.930 . S
C217 C212 1.348 . S
C217 C216 1.408 . S
C217 H239 0.930 . S
C218 O228 1.281 . S
C218 O229 1.254 . S
C219 O230 1.236 . S
C219 O231 1.266 . S
O220 Tb200 2.484 . S
O220 C202 1.248 . S
O221 Tb200 2.440 . S
O221 C202 1.266 . S
O222 Tb200 2.658 . S
O222 Tb201 2.325 . S
O222 C209 1.281 . S
O223 Tb200 2.409 . S
O223 C209 1.254 . S
O224 Tb200 2.378 . S
O224 C210 1.236 . S
O225 Tb201 2.341 . S
O225 C210 1.266 . S
O226 Tb201 2.484 . S
O226 C211 1.248 . S
O227 Tb201 2.440 . S
O227 C211 1.266 . S
O228 Tb200 2.325 . S
O228 Tb201 2.658 . S
O228 C218 1.281 . S
O229 Tb201 2.409 . S
O229 C218 1.254 . S
O230 Tb201 2.378 . S
O230 C219 1.236 . S
O231 Tb200 2.341 . S
O231 C219 1.266 . S
H232 C204 0.929 . S
H233 C205 0.931 . S
H234 C207 0.930 . S
H235 C208 0.930 . S
H236 C213 0.929 . S
H237 C214 0.931 . S
H238 C216 0.930 . S
H239 C217 0.930 . S
Tb240 C242 2.809 . S
Tb240 O260 2.484 . S
Tb240 O261 2.440 . S
Tb240 O262 2.658 . S
Tb240 O263 2.409 . S
Tb240 O264 2.378 . S
Tb240 O268 2.325 . S
Tb240 O271 2.341 . S
Tb241 C251 2.809 . S
Tb241 O262 2.325 . S
Tb241 O265 2.341 . S
Tb241 O266 2.484 . S
Tb241 O267 2.440 . S
Tb241 O268 2.658 . S
Tb241 O269 2.409 . S
Tb241 O270 2.378 . S
C242 Tb240 2.809 . S
C242 C243 1.514 . S
C242 O260 1.248 . S
C242 O261 1.266 . S
C243 C242 1.514 . S
C243 C244 1.359 . S
C243 C248 1.348 . S
C244 C243 1.359 . S
C244 C245 1.380 . S
C244 H272 0.929 . S
C245 C244 1.380 . S
C245 C246 1.347 . S
C245 H273 0.931 . S
C246 C245 1.347 . S
C246 C247 1.369 . S
C247 C246 1.369 . S
C247 C248 1.408 . S
C247 H274 0.930 . S
C248 C243 1.348 . S
C248 C247 1.408 . S
C248 H275 0.930 . S
C249 O262 1.281 . S
C249 O263 1.254 . S
C250 O264 1.236 . S
C250 O265 1.266 . S
C251 Tb241 2.809 . S
C251 C252 1.514 . S
C251 O266 1.248 . S
C251 O267 1.266 . S
C252 C251 1.514 . S
C252 C253 1.359 . S
C252 C257 1.348 . S
C253 C252 1.359 . S
C253 C254 1.380 . S
C253 H276 0.929 . S
C254 C253 1.380 . S
C254 C255 1.347 . S
C254 H277 0.931 . S
C255 C254 1.347 . S
C255 C256 1.369 . S
C256 C255 1.369 . S
C256 C257 1.408 . S
C256 H278 0.930 . S
C257 C252 1.348 . S
C257 C256 1.408 . S
C257 H279 0.930 . S
C258 O268 1.281 . S
C258 O269 1.254 . S
C259 O270 1.236 . S
C259 O271 1.266 . S
O260 Tb240 2.484 . S
O260 C242 1.248 . S
O261 Tb240 2.440 . S
O261 C242 1.266 . S
O262 Tb240 2.658 . S
O262 Tb241 2.325 . S
O262 C249 1.281 . S
O263 Tb240 2.409 . S
O263 C249 1.254 . S
O264 Tb240 2.378 . S
O264 C250 1.236 . S
O265 Tb241 2.341 . S
O265 C250 1.266 . S
O266 Tb241 2.484 . S
O266 C251 1.248 . S
O267 Tb241 2.440 . S
O267 C251 1.266 . S
O268 Tb240 2.325 . S
O268 Tb241 2.658 . S
O268 C258 1.281 . S
O269 Tb241 2.409 . S
O269 C258 1.254 . S
O270 Tb241 2.378 . S
O270 C259 1.236 . S
O271 Tb240 2.341 . S
O271 C259 1.266 . S
H272 C244 0.929 . S
H273 C245 0.931 . S
H274 C247 0.930 . S
H275 C248 0.930 . S
H276 C253 0.929 . S
H277 C254 0.931 . S
H278 C256 0.930 . S
H279 C257 0.930 . S
Tb280 C282 2.809 . S
Tb280 O300 2.484 . S
Tb280 O301 2.440 . S
Tb280 O302 2.658 1_655 S
Tb280 O303 2.409 1_655 S
Tb280 O304 2.378 1_655 S
Tb280 O308 2.325 . S
Tb280 O311 2.341 . S
Tb281 C291 2.809 . S
Tb281 O302 2.325 . S
Tb281 O305 2.341 . S
Tb281 O306 2.484 . S
Tb281 O307 2.440 . S
Tb281 O308 2.658 1_455 S
Tb281 O309 2.409 1_455 S
Tb281 O310 2.378 1_455 S
C282 Tb280 2.809 . S
C282 C283 1.514 . S
C282 O300 1.248 . S
C282 O301 1.266 . S
C283 C282 1.514 . S
C283 C284 1.359 . S
C283 C288 1.348 . S
C284 C283 1.359 . S
C284 C285 1.380 . S
C284 H312 0.929 . S
C285 C284 1.380 . S
C285 C286 1.347 . S
C285 H313 0.931 . S
C286 C285 1.347 . S
C286 C287 1.369 . S
C287 C286 1.369 . S
C287 C288 1.408 . S
C287 H314 0.930 . S
C288 C283 1.348 . S
C288 C287 1.408 . S
C288 H315 0.930 . S
C289 O302 1.281 . S
C289 O303 1.254 . S
C290 O304 1.236 . S
C290 O305 1.266 . S
C291 Tb281 2.809 . S
C291 C292 1.514 . S
C291 O306 1.248 . S
C291 O307 1.266 . S
C292 C291 1.514 . S
C292 C293 1.359 . S
C292 C297 1.348 . S
C293 C292 1.359 . S
C293 C294 1.380 . S
C293 H316 0.929 . S
C294 C293 1.380 . S
C294 C295 1.347 . S
C294 H317 0.931 . S
C295 C294 1.347 . S
C295 C296 1.369 . S
C296 C295 1.369 . S
C296 C297 1.408 . S
C296 H318 0.930 . S
C297 C292 1.348 . S
C297 C296 1.408 . S
C297 H319 0.930 . S
C298 O308 1.281 . S
C298 O309 1.254 . S
C299 O310 1.236 . S
C299 O311 1.266 . S
O300 Tb280 2.484 . S
O300 C282 1.248 . S
O301 Tb280 2.440 . S
O301 C282 1.266 . S
O302 Tb280 2.658 1_455 S
O302 Tb281 2.325 . S
O302 C289 1.281 . S
O303 Tb280 2.409 1_455 S
O303 C289 1.254 . S
O304 Tb280 2.378 1_455 S
O304 C290 1.236 . S
O305 Tb281 2.341 . S
O305 C290 1.266 . S
O306 Tb281 2.484 . S
O306 C291 1.248 . S
O307 Tb281 2.440 . S
O307 C291 1.266 . S
O308 Tb280 2.325 . S
O308 Tb281 2.658 1_655 S
O308 C298 1.281 . S
O309 Tb281 2.409 1_655 S
O309 C298 1.254 . S
O310 Tb281 2.378 1_655 S
O310 C299 1.236 . S
O311 Tb280 2.341 . S
O311 C299 1.266 . S
H312 C284 0.929 . S
H313 C285 0.931 . S
H314 C287 0.930 . S
H315 C288 0.930 . S
H316 C293 0.929 . S
H317 C294 0.931 . S
H318 C296 0.930 . S
H319 C297 0.930 . S
Tb320 C322 2.809 . S
Tb320 O340 2.484 . S
Tb320 O341 2.440 . S
Tb320 O342 2.658 . S
Tb320 O343 2.409 . S
Tb320 O344 2.378 . S
Tb320 O348 2.325 1_554 S
Tb320 O351 2.341 . S
Tb321 C331 2.809 . S
Tb321 O342 2.325 1_556 S
Tb321 O345 2.341 . S
Tb321 O346 2.484 . S
Tb321 O347 2.440 . S
Tb321 O348 2.658 . S
Tb321 O349 2.409 . S
Tb321 O350 2.378 . S
C322 Tb320 2.809 . S
C322 C323 1.514 . S
C322 O340 1.248 . S
C322 O341 1.266 . S
C323 C322 1.514 . S
C323 C324 1.359 . S
C323 C328 1.348 . S
C324 C323 1.359 . S
C324 C325 1.380 . S
C324 H352 0.929 1_554 S
C325 C324 1.380 . S
C325 C326 1.347 . S
C325 H353 0.931 1_554 S
C326 C325 1.347 . S
C326 C327 1.369 . S
C327 C326 1.369 . S
C327 C328 1.408 . S
C327 H354 0.930 . S
C328 C323 1.348 . S
C328 C327 1.408 . S
C328 H355 0.930 . S
C329 O342 1.281 . S
C329 O343 1.254 . S
C330 O344 1.236 1_556 S
C330 O345 1.266 . S
C331 Tb321 2.809 . S
C331 C332 1.514 . S
C331 O346 1.248 . S
C331 O347 1.266 . S
C332 C331 1.514 . S
C332 C333 1.359 . S
C332 C337 1.348 . S
C333 C332 1.359 . S
C333 C334 1.380 . S
C333 H356 0.929 1_556 S
C334 C333 1.380 . S
C334 C335 1.347 . S
C334 H357 0.931 1_556 S
C335 C334 1.347 . S
C335 C336 1.369 . S
C336 C335 1.369 . S
C336 C337 1.408 . S
C336 H358 0.930 . S
C337 C332 1.348 . S
C337 C336 1.408 . S
C337 H359 0.930 . S
C338 O348 1.281 . S
C338 O349 1.254 . S
C339 O350 1.236 1_554 S
C339 O351 1.266 . S
O340 Tb320 2.484 . S
O340 C322 1.248 . S
O341 Tb320 2.440 . S
O341 C322 1.266 . S
O342 Tb320 2.658 . S
O342 Tb321 2.325 1_554 S
O342 C329 1.281 . S
O343 Tb320 2.409 . S
O343 C329 1.254 . S
O344 Tb320 2.378 . S
O344 C330 1.236 1_554 S
O345 Tb321 2.341 . S
O345 C330 1.266 . S
O346 Tb321 2.484 . S
O346 C331 1.248 . S
O347 Tb321 2.440 . S
O347 C331 1.266 . S
O348 Tb320 2.325 1_556 S
O348 Tb321 2.658 . S
O348 C338 1.281 . S
O349 Tb321 2.409 . S
O349 C338 1.254 . S
O350 Tb321 2.378 . S
O350 C339 1.236 1_556 S
O351 Tb320 2.341 . S
O351 C339 1.266 . S
H352 C324 0.929 1_556 S
H353 C325 0.931 1_556 S
H354 C327 0.930 . S
H355 C328 0.930 . S
H356 C333 0.929 1_554 S
H357 C334 0.931 1_554 S
H358 C336 0.930 . S
H359 C337 0.930 . S
Tb360 C362 2.809 . S
Tb360 O380 2.484 . S
Tb360 O381 2.440 . S
Tb360 O382 2.658 1_565 S
Tb360 O383 2.409 1_565 S
Tb360 O384 2.376 1_565 S
Tb360 O388 2.325 . S
Tb360 O391 2.341 1_565 S
Tb361 C371 2.809 . S
Tb361 O382 2.325 . S
Tb361 O385 2.342 1_545 S
Tb361 O386 2.484 . S
Tb361 O387 2.440 . S
Tb361 O388 2.658 1_545 S
Tb361 O389 2.409 1_545 S
Tb361 O390 2.378 . S
C362 Tb360 2.809 . S
C362 C363 1.514 . S
C362 O380 1.248 . S
C362 O381 1.266 . S
C363 C362 1.514 . S
C363 C364 1.359 . S
C363 C368 1.348 . S
C364 C363 1.359 . S
C364 C365 1.380 . S
C364 H392 0.929 . S
C365 C364 1.380 . S
C365 C366 1.347 . S
C365 H393 0.931 . S
C366 C365 1.347 . S
C366 C367 1.369 . S
C367 C366 1.369 . S
C367 C368 1.408 . S
C367 H394 0.930 . S
C368 C363 1.348 . S
C368 C367 1.408 . S
C368 H395 0.930 . S
C369 O382 1.281 . S
C369 O383 1.254 . S
C370 O384 1.238 1_565 S
C370 O385 1.264 . S
C371 Tb361 2.809 . S
C371 C372 1.514 . S
C371 O386 1.248 . S
C371 O387 1.266 . S
C372 C371 1.514 . S
C372 C373 1.359 . S
C372 C377 1.348 . S
C373 C372 1.359 . S
C373 C374 1.380 . S
C373 H396 0.929 . S
C374 C373 1.380 . S
C374 C375 1.347 . S
C374 H397 0.931 . S
C375 C374 1.347 . S
C375 C376 1.369 . S
C376 C375 1.369 . S
C376 C377 1.408 . S
C376 H398 0.930 . S
C377 C372 1.348 . S
C377 C376 1.408 . S
C377 H399 0.930 . S
C378 O388 1.281 . S
C378 O389 1.254 . S
C379 O390 1.236 . S
C379 O391 1.266 . S
O380 Tb360 2.484 . S
O380 C362 1.248 . S
O381 Tb360 2.440 . S
O381 C362 1.266 . S
O382 Tb360 2.658 1_545 S
O382 Tb361 2.325 . S
O382 C369 1.281 . S
O383 Tb360 2.409 1_545 S
O383 C369 1.254 . S
O384 Tb360 2.376 1_545 S
O384 C370 1.238 1_545 S
O385 Tb361 2.342 1_565 S
O385 C370 1.264 . S
O386 Tb361 2.484 . S
O386 C371 1.248 . S
O387 Tb361 2.440 . S
O387 C371 1.266 . S
O388 Tb360 2.325 . S
O388 Tb361 2.658 1_565 S
O388 C378 1.281 . S
O389 Tb361 2.409 1_565 S
O389 C378 1.254 . S
O390 Tb361 2.378 . S
O390 C379 1.236 . S
O391 Tb360 2.341 1_545 S
O391 C379 1.266 . S
H392 C364 0.929 . S
H393 C365 0.931 . S
H394 C367 0.930 . S
H395 C368 0.930 . S
H396 C373 0.929 . S
H397 C374 0.931 . S
H398 C376 0.930 . S
H399 C377 0.930 . S
Tb400 C402 2.809 . S
Tb400 O420 2.484 . S
Tb400 O421 2.440 . S
Tb400 O422 2.658 . S
Tb400 O423 2.409 . S
Tb400 O424 2.378 . S
Tb400 O428 2.325 . S
Tb400 O431 2.341 . S
Tb401 C411 2.809 . S
Tb401 O422 2.325 . S
Tb401 O425 2.341 . S
Tb401 O426 2.484 . S
Tb401 O427 2.440 . S
Tb401 O428 2.658 . S
Tb401 O429 2.409 . S
Tb401 O430 2.378 . S
C402 Tb400 2.809 . S
C402 C403 1.514 . S
C402 O420 1.248 . S
C402 O421 1.266 . S
C403 C402 1.514 . S
C403 C404 1.359 . S
C403 C408 1.348 . S
C404 C403 1.359 . S
C404 C405 1.380 . S
C404 H432 0.929 . S
C405 C404 1.380 . S
C405 C406 1.347 . S
C405 H433 0.931 . S
C406 C405 1.347 . S
C406 C407 1.369 . S
C407 C406 1.369 . S
C407 C408 1.408 . S
C407 H434 0.930 . S
C408 C403 1.348 . S
C408 C407 1.408 . S
C408 H435 0.930 . S
C409 O422 1.281 . S
C409 O423 1.254 . S
C410 O424 1.236 . S
C410 O425 1.266 . S
C411 Tb401 2.809 . S
C411 C412 1.514 . S
C411 O426 1.248 . S
C411 O427 1.266 . S
C412 C411 1.514 . S
C412 C413 1.359 . S
C412 C417 1.348 . S
C413 C412 1.359 . S
C413 C414 1.380 . S
C413 H436 0.929 . S
C414 C413 1.380 . S
C414 C415 1.347 . S
C414 H437 0.931 . S
C415 C414 1.347 . S
C415 C416 1.369 . S
C416 C415 1.369 . S
C416 C417 1.408 . S
C416 H438 0.930 . S
C417 C412 1.348 . S
C417 C416 1.408 . S
C417 H439 0.930 . S
C418 O428 1.281 . S
C418 O429 1.254 . S
C419 O430 1.236 . S
C419 O431 1.266 . S
O420 Tb400 2.484 . S
O420 C402 1.248 . S
O421 Tb400 2.440 . S
O421 C402 1.266 . S
O422 Tb400 2.658 . S
O422 Tb401 2.325 . S
O422 C409 1.281 . S
O423 Tb400 2.409 . S
O423 C409 1.254 . S
O424 Tb400 2.378 . S
O424 C410 1.236 . S
O425 Tb401 2.341 . S
O425 C410 1.266 . S
O426 Tb401 2.484 . S
O426 C411 1.248 . S
O427 Tb401 2.440 . S
O427 C411 1.266 . S
O428 Tb400 2.325 . S
O428 Tb401 2.658 . S
O428 C418 1.281 . S
O429 Tb401 2.409 . S
O429 C418 1.254 . S
O430 Tb401 2.378 . S
O430 C419 1.236 . S
O431 Tb400 2.341 . S
O431 C419 1.266 . S
H432 C404 0.929 . S
H433 C405 0.931 . S
H434 C407 0.930 . S
H435 C408 0.930 . S
H436 C413 0.929 . S
H437 C414 0.931 . S
H438 C416 0.930 . S
H439 C417 0.930 . S
Tb440 C442 2.809 . S
Tb440 O460 2.485 . S
Tb440 O461 2.440 . S
Tb440 O462 2.658 . S
Tb440 O463 2.409 . S
Tb440 O464 2.378 1_455 S
Tb440 O468 2.325 1_455 S
Tb440 O471 2.341 . S
Tb441 C451 2.809 . S
Tb441 O462 2.325 1_655 S
Tb441 O465 2.341 . S
Tb441 O466 2.484 1_655 S
Tb441 O467 2.440 . S
Tb441 O468 2.658 . S
Tb441 O469 2.409 . S
Tb441 O470 2.378 1_655 S
C442 Tb440 2.809 . S
C442 C443 1.514 . S
C442 O460 1.256 . S
C442 O461 1.266 . S
C443 C442 1.514 . S
C443 C444 1.359 1_455 S
C443 C448 1.348 . S
C444 C443 1.359 1_655 S
C444 C445 1.380 . S
C444 H472 0.929 . S
C445 C444 1.380 . S
C445 C446 1.347 1_655 S
C445 H473 0.931 . S
C446 C445 1.347 1_455 S
C446 C447 1.369 . S
C447 C446 1.369 . S
C447 C448 1.408 . S
C447 H474 0.930 . S
C448 C443 1.348 . S
C448 C447 1.408 . S
C448 H475 0.930 . S
C449 O462 1.281 . S
C449 O463 1.254 . S
C450 O464 1.236 . S
C450 O465 1.266 . S
C451 Tb441 2.809 . S
C451 C452 1.514 . S
C451 O466 1.249 1_655 S
C451 O467 1.266 . S
C452 C451 1.514 . S
C452 C453 1.359 1_655 S
C452 C457 1.348 . S
C453 C452 1.359 1_455 S
C453 C454 1.380 . S
C453 H476 0.929 . S
C454 C453 1.380 . S
C454 C455 1.347 1_455 S
C454 H477 0.931 . S
C455 C454 1.347 1_655 S
C455 C456 1.369 . S
C456 C455 1.369 . S
C456 C457 1.408 . S
C456 H478 0.930 . S
C457 C452 1.348 . S
C457 C456 1.408 . S
C457 H479 0.930 . S
C458 O468 1.281 . S
C458 O469 1.254 . S
C459 O470 1.236 . S
C459 O471 1.266 . S
O460 Tb440 2.485 . S
O460 C442 1.256 . S
O461 Tb440 2.440 . S
O461 C442 1.266 . S
O462 Tb440 2.658 . S
O462 Tb441 2.325 1_455 S
O462 C449 1.281 . S
O463 Tb440 2.409 . S
O463 C449 1.254 . S
O464 Tb440 2.378 1_655 S
O464 C450 1.236 . S
O465 Tb441 2.341 . S
O465 C450 1.266 . S
O466 Tb441 2.484 1_455 S
O466 C451 1.249 1_455 S
O467 Tb441 2.440 . S
O467 C451 1.266 . S
O468 Tb440 2.325 1_655 S
O468 Tb441 2.658 . S
O468 C458 1.281 . S
O469 Tb441 2.409 . S
O469 C458 1.254 . S
O470 Tb441 2.378 1_455 S
O470 C459 1.236 . S
O471 Tb440 2.341 . S
O471 C459 1.266 . S
H472 C444 0.929 . S
H473 C445 0.931 . S
H474 C447 0.930 . S
H475 C448 0.930 . S
H476 C453 0.929 . S
H477 C454 0.931 . S
H478 C456 0.930 . S
H479 C457 0.930 . S
Tb480 C482 2.809 . S
Tb480 O500 2.484 . S
Tb480 O501 2.440 . S
Tb480 O502 2.658 . S
Tb480 O503 2.409 . S
Tb480 O504 2.378 . S
Tb480 O508 2.325 . S
Tb480 O511 2.341 . S
Tb481 C491 2.809 . S
Tb481 O502 2.325 . S
Tb481 O505 2.341 . S
Tb481 O506 2.484 . S
Tb481 O507 2.440 . S
Tb481 O508 2.658 . S
Tb481 O509 2.409 . S
Tb481 O510 2.378 . S
C482 Tb480 2.809 . S
C482 C483 1.514 . S
C482 O500 1.248 . S
C482 O501 1.266 . S
C483 C482 1.514 . S
C483 C484 1.359 . S
C483 C488 1.348 . S
C484 C483 1.359 . S
C484 C485 1.380 . S
C484 H512 0.929 . S
C485 C484 1.380 . S
C485 C486 1.347 . S
C485 H513 0.931 . S
C486 C485 1.347 . S
C486 C487 1.369 . S
C487 C486 1.369 . S
C487 C488 1.408 . S
C487 H514 0.930 . S
C488 C483 1.348 . S
C488 C487 1.408 . S
C488 H515 0.930 . S
C489 O502 1.281 . S
C489 O503 1.254 . S
C490 O504 1.236 . S
C490 O505 1.266 . S
C491 Tb481 2.809 . S
C491 C492 1.514 . S
C491 O506 1.248 . S
C491 O507 1.266 . S
C492 C491 1.514 . S
C492 C493 1.359 . S
C492 C497 1.348 . S
C493 C492 1.359 . S
C493 C494 1.380 . S
C493 H516 0.929 . S
C494 C493 1.380 . S
C494 C495 1.347 . S
C494 H517 0.931 . S
C495 C494 1.347 . S
C495 C496 1.369 . S
C496 C495 1.369 . S
C496 C497 1.408 . S
C496 H518 0.930 . S
C497 C492 1.348 . S
C497 C496 1.408 . S
C497 H519 0.930 . S
C498 O508 1.281 . S
C498 O509 1.254 . S
C499 O510 1.236 . S
C499 O511 1.266 . S
O500 Tb480 2.484 . S
O500 C482 1.248 . S
O501 Tb480 2.440 . S
O501 C482 1.266 . S
O502 Tb480 2.658 . S
O502 Tb481 2.325 . S
O502 C489 1.281 . S
O503 Tb480 2.409 . S
O503 C489 1.254 . S
O504 Tb480 2.378 . S
O504 C490 1.236 . S
O505 Tb481 2.341 . S
O505 C490 1.266 . S
O506 Tb481 2.484 . S
O506 C491 1.248 . S
O507 Tb481 2.440 . S
O507 C491 1.266 . S
O508 Tb480 2.325 . S
O508 Tb481 2.658 . S
O508 C498 1.281 . S
O509 Tb481 2.409 . S
O509 C498 1.254 . S
O510 Tb481 2.378 . S
O510 C499 1.236 . S
O511 Tb480 2.341 . S
O511 C499 1.266 . S
H512 C484 0.929 . S
H513 C485 0.931 . S
H514 C487 0.930 . S
H515 C488 0.930 . S
H516 C493 0.929 . S
H517 C494 0.931 . S
H518 C496 0.930 . S
H519 C497 0.930 . S
Tb520 C522 2.809 . S
Tb520 O540 2.484 . S
Tb520 O541 2.440 . S
Tb520 O542 2.658 . S
Tb520 O543 2.409 . S
Tb520 O544 2.378 . S
Tb520 O548 2.325 1_554 S
Tb520 O551 2.341 . S
Tb521 C531 2.809 . S
Tb521 O542 2.325 1_556 S
Tb521 O545 2.341 . S
Tb521 O546 2.484 . S
Tb521 O547 2.440 . S
Tb521 O548 2.658 . S
Tb521 O549 2.409 . S
Tb521 O550 2.378 . S
C522 Tb520 2.809 . S
C522 C523 1.514 . S
C522 O540 1.248 . S
C522 O541 1.266 . S
C523 C522 1.514 . S
C523 C524 1.359 . S
C523 C528 1.348 . S
C524 C523 1.359 . S
C524 C525 1.380 . S
C524 H552 0.929 1_554 S
C525 C524 1.380 . S
C525 C526 1.347 . S
C525 H553 0.931 1_554 S
C526 C525 1.347 . S
C526 C527 1.369 . S
C527 C526 1.369 . S
C527 C528 1.408 . S
C527 H554 0.930 . S
C528 C523 1.348 . S
C528 C527 1.408 . S
C528 H555 0.930 . S
C529 O542 1.281 . S
C529 O543 1.254 . S
C530 O544 1.236 1_556 S
C530 O545 1.266 . S
C531 Tb521 2.809 . S
C531 C532 1.514 . S
C531 O546 1.248 . S
C531 O547 1.266 . S
C532 C531 1.514 . S
C532 C533 1.359 . S
C532 C537 1.348 . S
C533 C532 1.359 . S
C533 C534 1.380 . S
C533 H556 0.929 1_556 S
C534 C533 1.380 . S
C534 C535 1.347 . S
C534 H557 0.931 1_556 S
C535 C534 1.347 . S
C535 C536 1.369 . S
C536 C535 1.369 . S
C536 C537 1.408 . S
C536 H558 0.930 . S
C537 C532 1.348 . S
C537 C536 1.408 . S
C537 H559 0.930 . S
C538 O548 1.281 . S
C538 O549 1.254 . S
C539 O550 1.236 1_554 S
C539 O551 1.266 . S
O540 Tb520 2.484 . S
O540 C522 1.248 . S
O541 Tb520 2.440 . S
O541 C522 1.266 . S
O542 Tb520 2.658 . S
O542 Tb521 2.325 1_554 S
O542 C529 1.281 . S
O543 Tb520 2.409 . S
O543 C529 1.254 . S
O544 Tb520 2.378 . S
O544 C530 1.236 1_554 S
O545 Tb521 2.341 . S
O545 C530 1.266 . S
O546 Tb521 2.484 . S
O546 C531 1.248 . S
O547 Tb521 2.440 . S
O547 C531 1.266 . S
O548 Tb520 2.325 1_556 S
O548 Tb521 2.658 . S
O548 C538 1.281 . S
O549 Tb521 2.409 . S
O549 C538 1.254 . S
O550 Tb521 2.378 . S
O550 C539 1.236 1_556 S
O551 Tb520 2.341 . S
O551 C539 1.266 . S
H552 C524 0.929 1_556 S
H553 C525 0.931 1_556 S
H554 C527 0.930 . S
H555 C528 0.930 . S
H556 C533 0.929 1_554 S
H557 C534 0.931 1_554 S
H558 C536 0.930 . S
H559 C537 0.930 . S
Tb560 C562 2.809 . S
Tb560 O580 2.484 . S
Tb560 O581 2.440 . S
Tb560 O582 2.658 . S
Tb560 O583 2.409 . S
Tb560 O584 2.378 . S
Tb560 O588 2.325 1_565 S
Tb560 O591 2.341 1_565 S
Tb561 C571 2.809 . S
Tb561 O582 2.325 1_545 S
Tb561 O585 2.341 1_545 S
Tb561 O586 2.484 . S
Tb561 O587 2.440 . S
Tb561 O588 2.658 . S
Tb561 O589 2.409 . S
Tb561 O590 2.378 . S
C562 Tb560 2.809 . S
C562 C563 1.514 . S
C562 O580 1.248 . S
C562 O581 1.266 . S
C563 C562 1.514 . S
C563 C564 1.359 . S
C563 C568 1.348 . S
C564 C563 1.359 . S
C564 C565 1.380 . S
C564 H592 0.929 . S
C565 C564 1.380 . S
C565 C566 1.347 . S
C565 H593 0.931 . S
C566 C565 1.347 . S
C566 C567 1.369 . S
C567 C566 1.369 . S
C567 C568 1.408 . S
C567 H594 0.930 . S
C568 C563 1.348 . S
C568 C567 1.408 . S
C568 H595 0.930 . S
C569 O582 1.281 . S
C569 O583 1.254 . S
C570 O584 1.236 . S
C570 O585 1.266 . S
C571 Tb561 2.809 . S
C571 C572 1.514 . S
C571 O586 1.248 . S
C571 O587 1.266 . S
C572 C571 1.514 . S
C572 C573 1.359 . S
C572 C577 1.348 . S
C573 C572 1.359 . S
C573 C574 1.380 . S
C573 H596 0.929 . S
C574 C573 1.380 . S
C574 C575 1.347 . S
C574 H597 0.931 . S
C575 C574 1.347 . S
C575 C576 1.369 . S
C576 C575 1.369 . S
C576 C577 1.408 . S
C576 H598 0.930 . S
C577 C572 1.348 . S
C577 C576 1.408 . S
C577 H599 0.930 . S
C578 O588 1.281 . S
C578 O589 1.254 . S
C579 O590 1.236 . S
C579 O591 1.266 . S
O580 Tb560 2.484 . S
O580 C562 1.248 . S
O581 Tb560 2.440 . S
O581 C562 1.266 . S
O582 Tb560 2.658 . S
O582 Tb561 2.325 1_565 S
O582 C569 1.281 . S
O583 Tb560 2.409 . S
O583 C569 1.254 . S
O584 Tb560 2.378 . S
O584 C570 1.236 . S
O585 Tb561 2.341 1_565 S
O585 C570 1.266 . S
O586 Tb561 2.484 . S
O586 C571 1.248 . S
O587 Tb561 2.440 . S
O587 C571 1.266 . S
O588 Tb560 2.325 1_545 S
O588 Tb561 2.658 . S
O588 C578 1.281 . S
O589 Tb561 2.409 . S
O589 C578 1.254 . S
O590 Tb561 2.378 . S
O590 C579 1.236 . S
O591 Tb560 2.341 1_545 S
O591 C579 1.266 . S
H592 C564 0.929 . S
H593 C565 0.931 . S
H594 C567 0.930 . S
H595 C568 0.930 . S
H596 C573 0.929 . S
H597 C574 0.931 . S
H598 C576 0.930 . S
H599 C577 0.930 . S
Tb600 C602 2.809 . S
Tb600 O620 2.484 . S
Tb600 O621 2.440 . S
Tb600 O622 2.658 . S
Tb600 O623 2.409 . S
Tb600 O624 2.378 . S
Tb600 O628 2.325 1_554 S
Tb600 O631 2.341 . S
Tb601 C611 2.809 . S
Tb601 O622 2.325 1_556 S
Tb601 O625 2.341 . S
Tb601 O626 2.484 . S
Tb601 O627 2.440 . S
Tb601 O628 2.658 . S
Tb601 O629 2.409 . S
Tb601 O630 2.378 . S
C602 Tb600 2.809 . S
C602 C603 1.514 . S
C602 O620 1.248 . S
C602 O621 1.266 . S
C603 C602 1.514 . S
C603 C604 1.359 . S
C603 C608 1.348 . S
C604 C603 1.359 . S
C604 C605 1.380 . S
C604 H632 0.929 1_554 S
C605 C604 1.380 . S
C605 C606 1.347 . S
C605 H633 0.931 1_554 S
C606 C605 1.347 . S
C606 C607 1.369 . S
C607 C606 1.369 . S
C607 C608 1.408 . S
C607 H634 0.930 . S
C608 C603 1.348 . S
C608 C607 1.408 . S
C608 H635 0.930 . S
C609 O622 1.281 . S
C609 O623 1.254 . S
C610 O624 1.236 1_556 S
C610 O625 1.266 . S
C611 Tb601 2.809 . S
C611 C612 1.514 . S
C611 O626 1.248 . S
C611 O627 1.266 . S
C612 C611 1.514 . S
C612 C613 1.359 . S
C612 C617 1.348 . S
C613 C612 1.359 . S
C613 C614 1.380 . S
C613 H636 0.929 1_556 S
C614 C613 1.380 . S
C614 C615 1.347 . S
C614 H637 0.931 1_556 S
C615 C614 1.347 . S
C615 C616 1.369 . S
C616 C615 1.369 . S
C616 C617 1.408 . S
C616 H638 0.930 . S
C617 C612 1.348 . S
C617 C616 1.408 . S
C617 H639 0.930 . S
C618 O628 1.281 . S
C618 O629 1.254 . S
C619 O630 1.236 1_554 S
C619 O631 1.266 . S
O620 Tb600 2.484 . S
O620 C602 1.248 . S
O621 Tb600 2.440 . S
O621 C602 1.266 . S
O622 Tb600 2.658 . S
O622 Tb601 2.325 1_554 S
O622 C609 1.281 . S
O623 Tb600 2.409 . S
O623 C609 1.254 . S
O624 Tb600 2.378 . S
O624 C610 1.236 1_554 S
O625 Tb601 2.341 . S
O625 C610 1.266 . S
O626 Tb601 2.484 . S
O626 C611 1.248 . S
O627 Tb601 2.440 . S
O627 C611 1.266 . S
O628 Tb600 2.325 1_556 S
O628 Tb601 2.658 . S
O628 C618 1.281 . S
O629 Tb601 2.409 . S
O629 C618 1.254 . S
O630 Tb601 2.378 . S
O630 C619 1.236 1_556 S
O631 Tb600 2.341 . S
O631 C619 1.266 . S
H632 C604 0.929 1_556 S
H633 C605 0.931 1_556 S
H634 C607 0.930 . S
H635 C608 0.930 . S
H636 C613 0.929 1_554 S
H637 C614 0.931 1_554 S
H638 C616 0.930 . S
H639 C617 0.930 . S
C640 C641 1.387 . S
C640 H644 0.950 1_655 S
C640 C649 1.390 . S
C641 C640 1.387 . S
C641 C643 1.387 . S
H642 C649 0.950 1_455 S
C643 C641 1.387 . S
C643 C645 1.390 1_554 S
C643 H647 0.950 1_554 S
H644 C640 0.950 1_455 S
C645 C643 1.390 1_556 S
C645 C646 1.387 1_556 S
C645 H648 0.950 . S
C646 C645 1.387 1_554 S
C646 C649 1.387 . S
H647 C643 0.950 1_556 S
H648 C645 0.950 . S
C649 C640 1.390 . S
C649 H642 0.950 1_655 S
C649 C646 1.387 . S
C650 C651 1.387 . S
C650 H654 0.950 . S
C650 C659 1.390 . S
C651 C650 1.387 . S
C651 C653 1.387 . S
H652 C659 0.950 . S
C653 C651 1.387 . S
C653 C655 1.390 . S
C653 H657 0.950 . S
H654 C650 0.950 . S
C655 C653 1.390 . S
C655 C656 1.387 . S
C655 H658 0.950 . S
C656 C655 1.387 . S
C656 C659 1.387 . S
H657 C653 0.950 . S
H658 C655 0.950 . S
C659 C650 1.390 . S
C659 H652 0.950 . S
C659 C656 1.387 . S
C660 C661 1.387 . S
C660 H664 0.950 . S
C660 C669 1.390 . S
C661 C660 1.387 . S
C661 C663 1.387 . S
H662 C669 0.950 . S
C663 C661 1.387 . S
C663 C665 1.390 . S
C663 H667 0.950 . S
H664 C660 0.950 . S
C665 C663 1.390 . S
C665 C666 1.387 . S
C665 H668 0.950 . S
C666 C665 1.387 . S
C666 C669 1.387 . S
H667 C663 0.950 . S
H668 C665 0.950 . S
C669 C660 1.390 . S
C669 H662 0.950 . S
C669 C666 1.387 . S
C670 C671 1.387 . S
C670 H674 0.950 . S
C670 C679 1.390 . S
C671 C670 1.387 . S
C671 C673 1.387 1_545 S
H672 C679 0.950 . S
C673 C671 1.387 1_565 S
C673 C675 1.390 . S
C673 H677 0.950 . S
H674 C670 0.950 . S
C675 C673 1.390 . S
C675 C676 1.399 . S
C675 H678 0.950 . S
C676 C675 1.399 . S
C676 C679 1.344 1_565 S
H677 C673 0.950 . S
H678 C675 0.950 . S
C679 C670 1.390 . S
C679 H672 0.950 . S
C679 C676 1.344 1_545 S
C680 C681 1.387 . S
C680 H684 0.950 . S
C680 C689 1.390 . S
C681 C680 1.387 . S
C681 C683 1.387 1_565 S
H682 C689 0.950 . S
C683 C681 1.387 1_545 S
C683 C685 1.390 . S
C683 H687 0.950 . S
H684 C680 0.950 . S
C685 C683 1.390 . S
C685 C686 1.387 . S
C685 H688 0.950 . S
C686 C685 1.387 . S
C686 C689 1.387 1_545 S
H687 C683 0.950 . S
H688 C685 0.950 . S
C689 C680 1.390 . S
C689 H682 0.950 . S
C689 C686 1.387 1_565 S
C690 C691 1.387 . S
C690 H694 0.950 . S
C690 C699 1.390 . S
C691 C690 1.387 . S
C691 C693 1.387 . S
H692 C699 0.950 . S
C693 C691 1.387 . S
C693 C695 1.390 . S
C693 H697 0.950 . S
H694 C690 0.950 . S
C695 C693 1.390 . S
C695 C696 1.387 . S
C695 H698 0.950 . S
C696 C695 1.387 . S
C696 C699 1.387 . S
H697 C693 0.950 . S
H698 C695 0.950 . S
C699 C690 1.390 . S
C699 H692 0.950 . S
C699 C696 1.387 . S
C700 C701 1.387 . S
C700 H704 0.950 . S
C700 C709 1.390 . S
C701 C700 1.387 . S
C701 C703 1.387 . S
H702 C709 0.950 . S
C703 C701 1.387 . S
C703 C705 1.390 . S
C703 H707 0.950 . S
H704 C700 0.950 . S
C705 C703 1.390 . S
C705 C706 1.387 . S
C705 H708 0.950 . S
C706 C705 1.387 . S
C706 C709 1.387 . S
H707 C703 0.950 . S
H708 C705 0.950 . S
C709 C700 1.390 . S
C709 H702 0.950 . S
C709 C706 1.387 . S
C710 C711 1.387 . S
C710 H714 0.950 . S
C710 C719 1.390 . S
C711 C710 1.387 . S
C711 C713 1.387 1_556 S
H712 C719 0.950 . S
C713 C711 1.387 1_554 S
C713 C715 1.390 . S
C713 H717 0.950 . S
H714 C710 0.950 . S
C715 C713 1.390 . S
C715 C716 1.387 1_554 S
C715 H718 0.950 . S
C716 C715 1.387 1_556 S
C716 C719 1.387 . S
H717 C713 0.950 . S
H718 C715 0.950 . S
C719 C710 1.390 . S
C719 H712 0.950 . S
C719 C716 1.387 . S
C720 C721 1.387 . S
C720 H724 0.950 . S
C720 C729 1.390 . S
C721 C720 1.387 . S
C721 C723 1.387 . S
H722 C729 0.950 . S
C723 C721 1.387 . S
C723 C725 1.390 . S
C723 H727 0.950 . S
H724 C720 0.950 . S
C725 C723 1.390 . S
C725 C726 1.387 . S
C725 H728 0.950 . S
C726 C725 1.387 . S
C726 C729 1.387 . S
H727 C723 0.950 . S
H728 C725 0.950 . S
C729 C720 1.390 . S
C729 H722 0.950 . S
C729 C726 1.387 . S
C730 C731 1.387 . S
C730 H734 0.950 . S
C730 C739 1.390 . S
C731 C730 1.387 . S
C731 C733 1.387 . S
H732 C739 0.950 . S
C733 C731 1.387 . S
C733 C735 1.390 . S
C733 H737 0.950 . S
H734 C730 0.950 . S
C735 C733 1.390 . S
C735 C736 1.387 . S
C735 H738 0.950 . S
C736 C735 1.387 . S
C736 C739 1.387 . S
H737 C733 0.950 . S
H738 C735 0.950 . S
C739 C730 1.390 . S
C739 H732 0.950 . S
C739 C736 1.387 . S
C740 C741 1.387 1_545 S
C740 H744 0.950 . S
C740 C749 1.390 . S
C741 C740 1.387 1_565 S
C741 C743 1.387 . S
H742 C749 0.950 . S
C743 C741 1.387 . S
C743 C745 1.390 . S
C743 H747 0.950 . S
H744 C740 0.950 . S
C745 C743 1.390 . S
C745 C746 1.387 1_565 S
C745 H748 0.950 . S
C746 C745 1.387 1_545 S
C746 C749 1.387 . S
H747 C743 0.950 . S
H748 C745 0.950 . S
C749 C740 1.390 . S
C749 H742 0.950 . S
C749 C746 1.387 . S
C750 C751 1.387 . S
C750 H754 0.950 . S
C750 C759 1.390 . S
C751 C750 1.387 . S
C751 C753 1.387 1_556 S
H752 C759 0.950 . S
C753 C751 1.387 1_554 S
C753 C755 1.390 . S
C753 H757 0.950 . S
H754 C750 0.950 . S
C755 C753 1.390 . S
C755 C756 1.387 1_554 S
C755 H758 0.950 . S
C756 C755 1.387 1_556 S
C756 C759 1.387 . S
H757 C753 0.950 . S
H758 C755 0.950 . S
C759 C750 1.390 . S
C759 H752 0.950 . S
C759 C756 1.387 . S
C760 C761 1.387 . S
C760 H764 0.950 . S
C760 C769 1.390 . S
C761 C760 1.387 . S
C761 C763 1.387 . S
H762 C769 0.950 . S
C763 C761 1.387 . S
C763 C765 1.390 . S
C763 H767 0.950 1_556 S
H764 C760 0.950 . S
C765 C763 1.390 . S
C765 C766 1.387 . S
C765 H768 0.950 1_556 S
C766 C765 1.387 . S
C766 C769 1.387 . S
H767 C763 0.950 1_554 S
H768 C765 0.950 1_554 S
C769 C760 1.390 . S
C769 H762 0.950 . S
C769 C766 1.387 . S
C770 C771 1.387 . S
C770 H774 0.950 . S
C770 C779 1.390 . S
C771 C770 1.387 . S
C771 C773 1.387 . S
H772 C779 0.950 . S
C773 C771 1.387 . S
C773 C775 1.390 . S
C773 H777 0.950 . S
H774 C770 0.950 . S
C775 C773 1.390 . S
C775 C776 1.387 . S
C775 H778 0.950 . S
C776 C775 1.387 . S
C776 C779 1.387 . S
H777 C773 0.950 . S
H778 C775 0.950 . S
C779 C770 1.390 . S
C779 H772 0.950 . S
C779 C776 1.387 . S
C780 C781 1.387 . S
C780 H784 0.950 . S
C780 C789 1.390 . S
C781 C780 1.387 . S
C781 C783 1.387 . S
H782 C789 0.950 . S
C783 C781 1.387 . S
C783 C785 1.390 . S
C783 H787 0.950 . S
H784 C780 0.950 . S
C785 C783 1.390 . S
C785 C786 1.387 . S
C785 H788 0.950 . S
C786 C785 1.387 . S
C786 C789 1.387 . S
H787 C783 0.950 . S
H788 C785 0.950 . S
C789 C780 1.390 . S
C789 H782 0.950 . S
C789 C786 1.387 . S
C790 C791 1.387 . S
C790 H794 0.950 . S
C790 C799 1.390 . S
C791 C790 1.387 . S
C791 C793 1.387 . S
H792 C799 0.950 . S
C793 C791 1.387 . S
C793 C795 1.390 . S
C793 H797 0.950 . S
H794 C790 0.950 . S
C795 C793 1.390 . S
C795 C796 1.387 . S
C795 H798 0.950 . S
C796 C795 1.387 . S
C796 C799 1.387 . S
H797 C793 0.950 . S
H798 C795 0.950 . S
C799 C790 1.390 . S
C799 H792 0.950 . S
C799 C796 1.387 . S
C800 C801 1.387 . S
C800 H804 0.950 . S
C800 C809 1.390 . S
C801 C800 1.387 . S
C801 C803 1.387 . S
H802 C809 0.950 . S
C803 C801 1.387 . S
C803 C805 1.390 . S
C803 H807 0.950 . S
H804 C800 0.950 . S
C805 C803 1.390 . S
C805 C806 1.387 . S
C805 H808 0.950 . S
C806 C805 1.387 . S
C806 C809 1.387 . S
H807 C803 0.950 . S
H808 C805 0.950 . S
C809 C800 1.390 . S
C809 H802 0.950 . S
C809 C806 1.387 . S
C810 C811 1.387 . S
C810 H814 0.950 . S
C810 C819 1.390 . S
C811 C810 1.387 . S
C811 C813 1.387 . S
H812 C819 0.950 . S
C813 C811 1.387 . S
C813 C815 1.390 . S
C813 H817 0.950 . S
H814 C810 0.950 . S
C815 C813 1.390 . S
C815 C816 1.387 . S
C815 H818 0.950 . S
C816 C815 1.387 . S
C816 C819 1.387 . S
H817 C813 0.950 . S
H818 C815 0.950 . S
C819 C810 1.390 . S
C819 H812 0.950 . S
C819 C816 1.387 . S
C820 C821 1.387 . S
C820 H824 0.950 . S
C820 C829 1.390 . S
C821 C820 1.387 . S
C821 C823 1.387 . S
H822 C829 0.950 . S
C823 C821 1.387 . S
C823 C825 1.390 . S
C823 H827 0.950 . S
H824 C820 0.950 . S
C825 C823 1.390 . S
C825 C826 1.387 . S
C825 H828 0.950 . S
C826 C825 1.387 . S
C826 C829 1.387 . S
H827 C823 0.950 . S
H828 C825 0.950 . S
C829 C820 1.390 . S
C829 H822 0.950 . S
C829 C826 1.387 . S
C830 C831 1.387 . S
C830 H834 0.950 . S
C830 C839 1.390 . S
C831 C830 1.387 . S
C831 C833 1.387 . S
H832 C839 0.950 . S
C833 C831 1.387 . S
C833 C835 1.390 . S
C833 H837 0.950 . S
H834 C830 0.950 . S
C835 C833 1.390 . S
C835 C836 1.387 . S
C835 H838 0.950 . S
C836 C835 1.387 . S
C836 C839 1.387 . S
H837 C833 0.950 . S
H838 C835 0.950 . S
C839 C830 1.390 . S
C839 H832 0.950 . S
C839 C836 1.387 . S
C840 C841 1.387 . S
C840 H844 0.950 . S
C840 C849 1.390 . S
C841 C840 1.387 . S
C841 C843 1.387 . S
H842 C849 0.950 . S
C843 C841 1.387 . S
C843 C845 1.390 . S
C843 H847 0.950 . S
H844 C840 0.950 . S
C845 C843 1.390 . S
C845 C846 1.387 . S
C845 H848 0.950 . S
C846 C845 1.387 . S
C846 C849 1.387 . S
H847 C843 0.950 . S
H848 C845 0.950 . S
C849 C840 1.390 . S
C849 H842 0.950 . S
C849 C846 1.387 . S
C850 C851 1.387 . S
C850 H854 0.950 . S
C850 C859 1.390 . S
C851 C850 1.387 . S
C851 C853 1.387 . S
H852 C859 0.950 . S
C853 C851 1.387 . S
C853 C855 1.390 . S
C853 H857 0.950 . S
H854 C850 0.950 . S
C855 C853 1.390 . S
C855 C856 1.387 . S
C855 H858 0.950 . S
C856 C855 1.387 . S
C856 C859 1.387 . S
H857 C853 0.950 . S
H858 C855 0.950 . S
C859 C850 1.390 . S
C859 H852 0.950 . S
C859 C856 1.387 . S
C860 C861 1.387 . S
C860 H864 0.950 . S
C860 C869 1.390 . S
C861 C860 1.387 . S
C861 C863 1.387 . S
H862 C869 0.950 . S
C863 C861 1.387 . S
C863 C865 1.390 . S
C863 H867 0.950 . S
H864 C860 0.950 . S
C865 C863 1.390 . S
C865 C866 1.387 . S
C865 H868 0.950 . S
C866 C865 1.387 . S
C866 C869 1.387 . S
H867 C863 0.950 . S
H868 C865 0.950 . S
C869 C860 1.390 . S
C869 H862 0.950 . S
C869 C866 1.387 . S
C870 C871 1.387 . S
C870 H874 0.950 . S
C870 C879 1.390 . S
C871 C870 1.387 . S
C871 C873 1.387 . S
H872 C879 0.950 . S
C873 C871 1.387 . S
C873 C875 1.390 . S
C873 H877 0.950 1_554 S
H874 C870 0.950 . S
C875 C873 1.390 . S
C875 C876 1.387 . S
C875 H878 0.946 1_554 S
C876 C875 1.387 . S
C876 C879 1.387 . S
H877 C873 0.950 1_556 S
H878 C875 0.946 1_556 S
C879 C870 1.390 . S
C879 H872 0.950 . S
C879 C876 1.387 . S
C880 C881 1.387 . S
C880 H884 0.950 . S
C880 C889 1.390 . S
C881 C880 1.387 . S
C881 C883 1.387 . S
H882 C889 0.950 . S
C883 C881 1.387 . S
C883 C885 1.390 . S
C883 H887 0.950 . S
H884 C880 0.950 . S
C885 C883 1.390 . S
C885 C886 1.387 . S
C885 H888 0.950 . S
C886 C885 1.387 . S
C886 C889 1.387 . S
H887 C883 0.950 . S
H888 C885 0.950 . S
C889 C880 1.390 . S
C889 H882 0.950 . S
C889 C886 1.387 . S
C890 C891 1.387 . S
C890 H894 0.950 . S
C890 C899 1.390 . S
C891 C890 1.387 . S
C891 C893 1.387 . S
H892 C899 0.950 . S
C893 C891 1.387 . S
C893 C895 1.390 . S
C893 H897 0.950 . S
H894 C890 0.950 . S
C895 C893 1.390 . S
C895 C896 1.387 . S
C895 H898 0.950 . S
C896 C895 1.387 . S
C896 C899 1.387 . S
H897 C893 0.950 . S
H898 C895 0.950 . S
C899 C890 1.390 . S
C899 H892 0.950 . S
C899 C896 1.387 . S
C900 C901 1.391 1_545 S
C900 H904 0.916 1_545 S
C900 C909 1.423 . S
C901 C900 1.391 1_565 S
C901 C903 1.363 1_565 S
H902 C909 0.950 . S
C903 C901 1.363 1_545 S
C903 C905 1.390 . S
C903 H907 0.950 . S
H904 C900 0.916 1_565 S
C905 C903 1.390 . S
C905 C906 1.387 . S
C905 H908 0.950 . S
C906 C905 1.387 . S
C906 C909 1.387 . S
H907 C903 0.950 . S
H908 C905 0.950 . S
C909 C900 1.423 . S
C909 H902 0.950 . S
C909 C906 1.387 . S
C910 C911 1.387 . S
C910 H914 0.950 . S
C910 C919 1.390 . S
C911 C910 1.387 . S
C911 C913 1.387 . S
H912 C919 0.950 . S
C913 C911 1.387 . S
C913 C915 1.390 . S
C913 H917 0.950 1_554 S
H914 C910 0.950 . S
C915 C913 1.390 . S
C915 C916 1.387 . S
C915 H918 0.950 1_554 S
C916 C915 1.387 . S
C916 C919 1.387 . S
H917 C913 0.950 1_556 S
H918 C915 0.950 1_556 S
C919 C910 1.390 . S
C919 H912 0.950 . S
C919 C916 1.387 . S
C920 C921 1.387 . S
C920 H924 0.950 . S
C920 C929 1.390 . S
C921 C920 1.387 . S
C921 C923 1.387 . S
H922 C929 0.950 . S
C923 C921 1.387 . S
C923 C925 1.390 . S
C923 H927 0.950 . S
H924 C920 0.950 . S
C925 C923 1.390 . S
C925 C926 1.387 . S
C925 H928 0.950 . S
C926 C925 1.387 . S
C926 C929 1.387 . S
H927 C923 0.950 . S
H928 C925 0.950 . S
C929 C920 1.390 . S
C929 H922 0.950 . S
C929 C926 1.387 . S
C930 C931 1.387 . S
C930 H934 0.950 . S
C930 C939 1.390 . S
C931 C930 1.387 . S
C931 C933 1.387 . S
H932 C939 0.950 . S
C933 C931 1.387 . S
C933 C935 1.390 . S
C933 H937 0.950 . S
H934 C930 0.950 . S
C935 C933 1.390 . S
C935 C936 1.387 . S
C935 H938 0.950 . S
C936 C935 1.387 . S
C936 C939 1.387 . S
H937 C933 0.950 . S
H938 C935 0.950 . S
C939 C930 1.390 . S
C939 H932 0.950 . S
C939 C936 1.387 . S
C940 C941 1.387 . S
C940 H944 0.950 . S
C940 C949 1.390 . S
C941 C940 1.387 . S
C941 C943 1.387 . S
H942 C949 0.950 . S
C943 C941 1.387 . S
C943 C945 1.390 . S
C943 H947 0.950 . S
H944 C940 0.950 . S
C945 C943 1.390 . S
C945 C946 1.387 . S
C945 H948 0.950 . S
C946 C945 1.387 . S
C946 C949 1.387 . S
H947 C943 0.950 . S
H948 C945 0.950 . S
C949 C940 1.390 . S
C949 H942 0.950 . S
C949 C946 1.387 . S
C950 C951 1.387 . S
C950 H954 0.950 . S
C950 C959 1.390 . S
C951 C950 1.387 . S
C951 C953 1.387 . S
H952 C959 0.950 . S
C953 C951 1.387 . S
C953 C955 1.390 . S
C953 H957 0.950 . S
H954 C950 0.950 . S
C955 C953 1.390 . S
C955 C956 1.387 . S
C955 H958 0.950 . S
C956 C955 1.387 . S
C956 C959 1.387 . S
H957 C953 0.950 . S
H958 C955 0.950 . S
C959 C950 1.390 . S
C959 H952 0.950 . S
C959 C956 1.387 . S
C960 C961 1.387 1_556 S
C960 H964 0.950 . S
C960 C969 1.390 . S
C961 C960 1.387 1_554 S
C961 C963 1.387 . S
H962 C969 0.950 . S
C963 C961 1.387 . S
C963 C965 1.390 . S
C963 H967 0.950 . S
H964 C960 0.950 . S
C965 C963 1.390 . S
C965 C966 1.387 . S
C965 H968 0.950 . S
C966 C965 1.387 . S
C966 C969 1.387 1_554 S
H967 C963 0.950 . S
H968 C965 0.950 . S
C969 C960 1.390 . S
C969 H962 0.950 . S
C969 C966 1.387 1_556 S
C970 C971 1.387 . S
C970 H974 0.950 . S
C970 C979 1.390 . S
C971 C970 1.387 . S
C971 C973 1.387 . S
H972 C979 0.950 . S
C973 C971 1.387 . S
C973 C975 1.390 . S
C973 H977 0.950 . S
H974 C970 0.950 . S
C975 C973 1.390 . S
C975 C976 1.387 . S
C975 H978 0.950 . S
C976 C975 1.387 . S
C976 C979 1.387 . S
H977 C973 0.950 . S
H978 C975 0.950 . S
C979 C970 1.390 . S
C979 H972 0.950 . S
C979 C976 1.387 . S
C980 C981 1.387 . S
C980 H984 0.950 . S
C980 C989 1.390 . S
C981 C980 1.387 . S
C981 C983 1.387 . S
H982 C989 0.950 . S
C983 C981 1.387 . S
C983 C985 1.390 . S
C983 H987 0.950 . S
H984 C980 0.950 . S
C985 C983 1.390 . S
C985 C986 1.387 . S
C985 H988 0.950 . S
C986 C985 1.387 . S
C986 C989 1.387 . S
H987 C983 0.950 . S
H988 C985 0.950 . S
C989 C980 1.390 . S
C989 H982 0.950 . S
C989 C986 1.387 . S
C990 C991 1.387 . S
C990 H994 0.950 . S
C990 C999 1.390 . S
C991 C990 1.387 . S
C991 C993 1.387 . S
H992 C999 0.950 . S
C993 C991 1.387 . S
C993 C995 1.390 . S
C993 H997 0.950 . S
H994 C990 0.950 . S
C995 C993 1.390 . S
C995 C996 1.387 . S
C995 H998 0.950 . S
C996 C995 1.387 . S
C996 C999 1.387 . S
H997 C993 0.950 . S
H998 C995 0.950 . S
C999 C990 1.390 . S
C999 H992 0.950 . S
C999 C996 1.387 . S
C1000 C1001 1.387 . S
C1000 H1004 0.950 . S
C1000 C1009 1.390 . S
C1001 C1000 1.387 . S
C1001 C1003 1.387 . S
H1002 C1009 0.950 . S
C1003 C1001 1.387 . S
C1003 C1005 1.390 . S
C1003 H1007 0.950 . S
H1004 C1000 0.950 . S
C1005 C1003 1.390 . S
C1005 C1006 1.387 . S
C1005 H1008 0.950 . S
C1006 C1005 1.387 . S
C1006 C1009 1.387 . S
H1007 C1003 0.950 . S
H1008 C1005 0.950 . S
C1009 C1000 1.390 . S
C1009 H1002 0.950 . S
C1009 C1006 1.387 . S
C1010 C1011 1.387 . S
C1010 H1014 0.950 . S
C1010 C1019 1.390 . S
C1011 C1010 1.387 . S
C1011 C1013 1.387 . S
H1012 C1019 0.950 . S
C1013 C1011 1.387 . S
C1013 C1015 1.390 . S
C1013 H1017 0.950 1_554 S
H1014 C1010 0.950 . S
C1015 C1013 1.390 . S
C1015 C1016 1.387 . S
C1015 H1018 0.950 1_554 S
C1016 C1015 1.387 . S
C1016 C1019 1.387 . S
H1017 C1013 0.950 1_556 S
H1018 C1015 0.950 1_556 S
C1019 C1010 1.390 . S
C1019 H1012 0.950 . S
C1019 C1016 1.387 . S
C1020 C1021 1.387 . S
C1020 H1024 0.950 . S
C1020 C1029 1.390 . S
C1021 C1020 1.387 . S
C1021 C1023 1.387 . S
H1022 C1029 0.950 . S
C1023 C1021 1.387 . S
C1023 C1025 1.390 . S
C1023 H1027 0.950 . S
H1024 C1020 0.950 . S
C1025 C1023 1.390 . S
C1025 C1026 1.387 . S
C1025 H1028 0.950 . S
C1026 C1025 1.387 . S
C1026 C1029 1.387 . S
H1027 C1023 0.950 . S
H1028 C1025 0.950 . S
C1029 C1020 1.390 . S
C1029 H1022 0.950 . S
C1029 C1026 1.387 . S
C1030 C1031 1.387 1_554 S
C1030 H1034 0.950 . S
C1030 C1039 1.390 . S
C1031 C1030 1.387 1_556 S
C1031 C1033 1.387 . S
H1032 C1039 0.950 . S
C1033 C1031 1.387 . S
C1033 C1035 1.390 . S
C1033 H1037 0.950 . S
H1034 C1030 0.950 . S
C1035 C1033 1.390 . S
C1035 C1036 1.387 . S
C1035 H1038 0.950 . S
C1036 C1035 1.387 . S
C1036 C1039 1.387 1_556 S
H1037 C1033 0.950 . S
H1038 C1035 0.950 . S
C1039 C1030 1.390 . S
C1039 H1032 0.950 . S
C1039 C1036 1.387 1_554 S
C1040 C1041 1.387 . S
C1040 H1044 0.950 . S
C1040 C1049 1.390 . S
C1041 C1040 1.387 . S
C1041 C1043 1.387 . S
H1042 C1049 0.950 . S
C1043 C1041 1.387 . S
C1043 C1045 1.390 . S
C1043 H1047 0.950 . S
H1044 C1040 0.950 . S
C1045 C1043 1.390 . S
C1045 C1046 1.387 . S
C1045 H1048 0.950 . S
C1046 C1045 1.387 . S
C1046 C1049 1.387 . S
H1047 C1043 0.950 . S
H1048 C1045 0.950 . S
C1049 C1040 1.390 . S
C1049 H1042 0.950 . S
C1049 C1046 1.387 . S
C1050 C1051 1.387 . S
C1050 H1054 0.950 . S
C1050 C1059 1.390 . S
C1051 C1050 1.387 . S
C1051 C1053 1.387 . S
H1052 C1059 0.950 . S
C1053 C1051 1.387 . S
C1053 C1055 1.390 . S
C1053 H1057 0.950 . S
H1054 C1050 0.950 . S
C1055 C1053 1.390 . S
C1055 C1056 1.387 . S
C1055 H1058 0.950 . S
C1056 C1055 1.387 . S
C1056 C1059 1.387 . S
H1057 C1053 0.950 . S
H1058 C1055 0.950 . S
C1059 C1050 1.390 . S
C1059 H1052 0.950 . S
C1059 C1056 1.387 . S
C1060 C1061 1.387 . S
C1060 H1064 0.950 . S
C1060 C1069 1.390 . S
C1061 C1060 1.387 . S
C1061 C1063 1.387 . S
H1062 C1069 0.950 . S
C1063 C1061 1.387 . S
C1063 C1065 1.390 . S
C1063 H1067 0.950 1_556 S
H1064 C1060 0.950 . S
C1065 C1063 1.390 . S
C1065 C1066 1.387 . S
C1065 H1068 0.950 1_556 S
C1066 C1065 1.387 . S
C1066 C1069 1.387 . S
H1067 C1063 0.950 1_554 S
H1068 C1065 0.950 1_554 S
C1069 C1060 1.390 . S
C1069 H1062 0.950 . S
C1069 C1066 1.387 . S
C1070 C1071 1.387 . S
C1070 H1074 0.950 . S
C1070 C1079 1.390 . S
C1071 C1070 1.387 . S
C1071 C1073 1.387 . S
H1072 C1079 0.950 . S
C1073 C1071 1.387 . S
C1073 C1075 1.390 . S
C1073 H1077 0.950 . S
H1074 C1070 0.950 . S
C1075 C1073 1.390 . S
C1075 C1076 1.387 . S
C1075 H1078 0.950 . S
C1076 C1075 1.387 . S
C1076 C1079 1.387 . S
H1077 C1073 0.950 . S
H1078 C1075 0.950 . S
C1079 C1070 1.390 . S
C1079 H1072 0.950 . S
C1079 C1076 1.387 . S
C1080 C1081 1.387 . S
C1080 H1084 0.950 . S
C1080 C1089 1.390 . S
C1081 C1080 1.387 . S
C1081 C1083 1.387 . S
H1082 C1089 0.950 . S
C1083 C1081 1.387 . S
C1083 C1085 1.390 . S
C1083 H1087 0.950 . S
H1084 C1080 0.950 . S
C1085 C1083 1.390 . S
C1085 C1086 1.387 . S
C1085 H1088 0.950 . S
C1086 C1085 1.387 . S
C1086 C1089 1.387 . S
H1087 C1083 0.950 . S
H1088 C1085 0.950 . S
C1089 C1080 1.390 . S
C1089 H1082 0.950 . S
C1089 C1086 1.387 . S
C1090 C1091 1.387 1_554 S
C1090 H1094 0.950 . S
C1090 C1099 1.390 . S
C1091 C1090 1.387 1_556 S
C1091 C1093 1.387 . S
H1092 C1099 0.950 . S
C1093 C1091 1.387 . S
C1093 C1095 1.390 . S
C1093 H1097 0.950 . S
H1094 C1090 0.950 . S
C1095 C1093 1.390 . S
C1095 C1096 1.387 . S
C1095 H1098 0.950 . S
C1096 C1095 1.387 . S
C1096 C1099 1.387 1_556 S
H1097 C1093 0.950 . S
H1098 C1095 0.950 . S
C1099 C1090 1.390 . S
C1099 H1092 0.950 . S
C1099 C1096 1.387 1_554 S
C1100 C1101 1.387 . S
C1100 H1104 0.950 . S
C1100 C1109 1.390 . S
C1101 C1100 1.387 . S
C1101 C1103 1.387 . S
H1102 C1109 0.950 . S
C1103 C1101 1.387 . S
C1103 C1105 1.390 . S
C1103 H1107 0.950 . S
H1104 C1100 0.950 . S
C1105 C1103 1.390 . S
C1105 C1106 1.387 . S
C1105 H1108 0.950 . S
C1106 C1105 1.387 . S
C1106 C1109 1.387 . S
H1107 C1103 0.950 . S
H1108 C1105 0.950 . S
C1109 C1100 1.390 . S
C1109 H1102 0.950 . S
C1109 C1106 1.387 . S
C1110 C1111 1.387 1_556 S
C1110 H1114 0.950 . S
C1110 C1119 1.390 . S
C1111 C1110 1.387 1_554 S
C1111 C1113 1.387 . S
H1112 C1119 0.950 . S
C1113 C1111 1.387 . S
C1113 C1115 1.390 . S
C1113 H1117 0.950 . S
H1114 C1110 0.950 . S
C1115 C1113 1.390 . S
C1115 C1116 1.387 . S
C1115 H1118 0.950 . S
C1116 C1115 1.387 . S
C1116 C1119 1.387 1_554 S
H1117 C1113 0.950 . S
H1118 C1115 0.950 . S
C1119 C1110 1.390 . S
C1119 H1112 0.950 . S
C1119 C1116 1.387 1_556 S
C641 C19 2.285 . S
C646 C55 2.071 . S
C651 C98 1.953 . S
C656 C50 1.931 . S
C661 C135 2.070 . S
C666 C99 2.284 . S
C671 C18 1.951 . S
C676 C130 1.952 . S
C681 C9 1.950 . S
C686 C379 1.930 . S
C691 C290 2.284 . S
C696 C46 2.070 . S
C701 C89 1.951 . S
C706 C419 1.930 . S
C711 C126 2.070 . S
C716 C530 2.283 . S
C721 C329 1.951 . S
C726 C59 1.929 . S
C731 C486 2.070 . S
C736 C90 2.283 . S
C741 C569 1.953 . S
C746 C139 1.931 . S
C751 C10 2.284 . S
C756 C446 2.071 . S
C761 C15 0.397 . S
C766 C335 0.397 . S
C771 C489 2.064 . S
C776 C169 2.064 . S
C781 C206 0.401 . S
C786 C566 0.402 . S
C791 C449 2.064 . S
C796 C249 2.064 . S
C801 C86 0.385 . S
C806 C286 0.385 . S
C811 C378 2.065 . S
C816 C178 2.065 . S
C821 C258 2.065 . S
C826 C418 2.065 . S
C831 C209 1.950 . S
C836 C459 1.931 . S
C841 C366 2.070 . S
C846 C210 2.283 . S
C851 C455 2.070 . S
C856 C299 2.284 . S
C861 C218 1.952 . S
C866 C170 1.932 . S
C871 C375 2.072 . S
C876 C339 2.285 . S
C881 C538 1.949 . S
C886 C450 1.929 . S
C891 C255 2.070 . S
C896 C219 2.283 . S
C901 C370 1.945 . S
C906 C578 1.948 . S
C911 C526 0.389 . S
C916 C6 0.389 . S
C921 C95 0.386 . S
C926 C575 0.385 . S
C931 C498 2.065 . S
C936 C58 2.065 . S
C941 C295 0.391 . S
C946 C215 0.391 . S
C951 C129 2.064 . S
C956 C409 2.064 . S
C961 C495 2.070 . S
C966 C539 2.283 . S
C971 C298 1.953 . S
C976 C490 1.932 . S
C981 C259 1.930 . S
C986 C289 1.949 . S
C991 C179 1.930 . S
C996 C529 1.952 . S
C1001 C499 1.931 . S
C1006 C609 1.952 . S
C1011 C606 0.386 . S
C1016 C326 0.386 . S
C1021 C49 2.064 . S
C1026 C369 2.064 . S
C1031 C330 2.285 . S
C1036 C246 2.070 . S
C1041 C338 1.950 . S
C1046 C410 1.929 . S
C1051 C618 1.950 . S
C1056 C250 1.931 . S
C1061 C535 0.400 . S
C1066 C615 0.400 . S
C1071 C458 2.064 . S
C1076 C138 2.064 . S
C1081 C415 2.068 . S
C1086 C579 2.282 . S
C1091 C406 2.069 . S
C1096 C610 2.284 . S
C1101 C166 2.071 . S
C1106 C570 2.285 . S
C1111 C619 2.283 . S
C1116 C175 2.070 . S
