# Generated by pormake.
# Topology lcy-e, (6)-cn, num edge types: 1
# Building blocks:
#     Node 0, Type 0, BuildingBlock: VOLQOD_clean_sbu_1, # of connection points: 6
#     Node 1, Type 0, BuildingBlock: VOLQOD_clean_sbu_1, # of connection points: 6
#     Node 2, Type 0, BuildingBlock: VOLQOD_clean_sbu_1, # of connection points: 6
#     Node 3, Type 0, BuildingBlock: VOLQOD_clean_sbu_1, # of connection points: 6
#     Node 4, Type 0, BuildingBlock: VOLQOD_clean_sbu_1, # of connection points: 6
#     Node 5, Type 0, BuildingBlock: VOLQOD_clean_sbu_1, # of connection points: 6
#     Node 6, Type 0, BuildingBlock: VOLQOD_clean_sbu_1, # of connection points: 6
#     Node 7, Type 0, BuildingBlock: VOLQOD_clean_sbu_1, # of connection points: 6
#     Node 8, Type 0, BuildingBlock: VOLQOD_clean_sbu_1, # of connection points: 6
#     Node 9, Type 0, BuildingBlock: VOLQOD_clean_sbu_1, # of connection points: 6
#     Node 10, Type 0, BuildingBlock: VOLQOD_clean_sbu_1, # of connection points: 6
#     Node 11, Type 0, BuildingBlock: VOLQOD_clean_sbu_1, # of connection points: 6
#     Edge 12, Type (0, 0), BuildingBlock: MIFKUJ_clean_linker_0, # of connection points: 2
#     Edge 13, Type (0, 0), BuildingBlock: MIFKUJ_clean_linker_0, # of connection points: 2
#     Edge 14, Type (0, 0), BuildingBlock: MIFKUJ_clean_linker_0, # of connection points: 2
#     Edge 15, Type (0, 0), BuildingBlock: MIFKUJ_clean_linker_0, # of connection points: 2
#     Edge 16, Type (0, 0), BuildingBlock: MIFKUJ_clean_linker_0, # of connection points: 2
#     Edge 17, Type (0, 0), BuildingBlock: MIFKUJ_clean_linker_0, # of connection points: 2
#     Edge 18, Type (0, 0), BuildingBlock: MIFKUJ_clean_linker_0, # of connection points: 2
#     Edge 19, Type (0, 0), BuildingBlock: MIFKUJ_clean_linker_0, # of connection points: 2
#     Edge 20, Type (0, 0), BuildingBlock: MIFKUJ_clean_linker_0, # of connection points: 2
#     Edge 21, Type (0, 0), BuildingBlock: MIFKUJ_clean_linker_0, # of connection points: 2
#     Edge 22, Type (0, 0), BuildingBlock: MIFKUJ_clean_linker_0, # of connection points: 2
#     Edge 23, Type (0, 0), BuildingBlock: MIFKUJ_clean_linker_0, # of connection points: 2
#     Edge 24, Type (0, 0), BuildingBlock: MIFKUJ_clean_linker_0, # of connection points: 2
#     Edge 25, Type (0, 0), BuildingBlock: MIFKUJ_clean_linker_0, # of connection points: 2
#     Edge 26, Type (0, 0), BuildingBlock: MIFKUJ_clean_linker_0, # of connection points: 2
#     Edge 27, Type (0, 0), BuildingBlock: MIFKUJ_clean_linker_0, # of connection points: 2
#     Edge 28, Type (0, 0), BuildingBlock: MIFKUJ_clean_linker_0, # of connection points: 2
#     Edge 29, Type (0, 0), BuildingBlock: MIFKUJ_clean_linker_0, # of connection points: 2
#     Edge 30, Type (0, 0), BuildingBlock: MIFKUJ_clean_linker_0, # of connection points: 2
#     Edge 31, Type (0, 0), BuildingBlock: MIFKUJ_clean_linker_0, # of connection points: 2
#     Edge 32, Type (0, 0), BuildingBlock: MIFKUJ_clean_linker_0, # of connection points: 2
#     Edge 33, Type (0, 0), BuildingBlock: MIFKUJ_clean_linker_0, # of connection points: 2
#     Edge 34, Type (0, 0), BuildingBlock: MIFKUJ_clean_linker_0, # of connection points: 2
#     Edge 35, Type (0, 0), BuildingBlock: MIFKUJ_clean_linker_0, # of connection points: 2
#     Edge 36, Type (0, 0), BuildingBlock: MIFKUJ_clean_linker_0, # of connection points: 2
#     Edge 37, Type (0, 0), BuildingBlock: MIFKUJ_clean_linker_0, # of connection points: 2
#     Edge 38, Type (0, 0), BuildingBlock: MIFKUJ_clean_linker_0, # of connection points: 2
#     Edge 39, Type (0, 0), BuildingBlock: MIFKUJ_clean_linker_0, # of connection points: 2
#     Edge 40, Type (0, 0), BuildingBlock: MIFKUJ_clean_linker_0, # of connection points: 2
#     Edge 41, Type (0, 0), BuildingBlock: MIFKUJ_clean_linker_0, # of connection points: 2
#     Edge 42, Type (0, 0), BuildingBlock: MIFKUJ_clean_linker_0, # of connection points: 2
#     Edge 43, Type (0, 0), BuildingBlock: MIFKUJ_clean_linker_0, # of connection points: 2
#     Edge 44, Type (0, 0), BuildingBlock: MIFKUJ_clean_linker_0, # of connection points: 2
#     Edge 45, Type (0, 0), BuildingBlock: MIFKUJ_clean_linker_0, # of connection points: 2
#     Edge 46, Type (0, 0), BuildingBlock: MIFKUJ_clean_linker_0, # of connection points: 2
#     Edge 47, Type (0, 0), BuildingBlock: MIFKUJ_clean_linker_0, # of connection points: 2
# Relax obj value: 0.403
# Max RMSD: 0.291
# Mean RMSD: 0.282
data_MOF--net-lcy-e--node1-VOLQOD_clean_sbu_1--edge1-MIFKUJ_clean_linker_0
_symmetry_space_group_name_H-M    P1
_symmetry_Int_Tables_number       1
_symmetry_cell_setting            triclinic
loop_
_symmetry_equiv_pos_as_xyz
'x, y, z'
_cell_length_a     47.580596
_cell_length_b     47.643237
_cell_length_c     47.862775
_cell_angle_alpha  90.336562
_cell_angle_beta   90.629534
_cell_angle_gamma 90.376887
loop_
_atom_site_label
_atom_site_type_symbol
_atom_site_fract_x
_atom_site_fract_y
_atom_site_fract_z
_atom_type_partial_charge
O0 O 0.20155 0.16674 0.4524 0.0
Zn1 Zn 0.16945 0.17127 0.47911 0.0
O2 O 0.13416 0.17388 0.45804 0.0
Zn3 Zn 0.11418 0.20729 0.46847 0.0
Zn4 Zn 0.141 0.17479 0.41842 0.0
Zn5 Zn 0.11064 0.14202 0.46616 0.0
O6 O 0.08236 0.19835 0.49395 0.0
O7 O 0.08152 0.15181 0.49483 0.0
O8 O 0.17698 0.20687 0.50141 0.0
O9 O 0.14013 0.23287 0.48968 0.0
O10 O 0.10115 0.22905 0.43518 0.0
O11 O 0.12892 0.21168 0.40242 0.0
O12 O 0.11773 0.14598 0.39828 0.0
O13 O 0.17022 0.13616 0.50302 0.0
O14 O 0.09232 0.12607 0.43143 0.0
O15 O 0.13437 0.11266 0.48333 0.0
C16 C 0.20314 0.16492 0.4259 0.0
C17 C 0.07242 0.17541 0.50328 0.0
C18 C 0.11117 0.22978 0.41065 0.0
C19 C 0.1637 0.23004 0.50211 0.0
C20 C 0.09857 0.12899 0.4058 0.0
C21 C 0.15608 0.11364 0.49904 0.0
O22 O 0.18151 0.16734 0.41022 0.0
O23 O 0.02625 0.75854 0.6428 0.0
Zn24 Zn 0.99394 0.78556 0.64619 0.0
O25 O 0.00783 0.82429 0.65116 0.0
Zn26 Zn 0.00022 0.83839 0.68854 0.0
Zn27 Zn 0.04795 0.82492 0.64442 0.0
Zn28 Zn 0.98975 0.84931 0.62502 0.0
O29 O 0.97206 0.86983 0.68847 0.0
O30 O 0.96218 0.87501 0.64346 0.0
O31 O 0.97304 0.77319 0.68045 0.0
O32 O 0.9824 0.80781 0.71065 0.0
O33 O 0.03565 0.85112 0.70841 0.0
O34 O 0.06863 0.84008 0.67791 0.0
O35 O 0.05795 0.85028 0.61306 0.0
O36 O 0.96937 0.78181 0.61118 0.0
O37 O 0.01801 0.87227 0.60374 0.0
O38 O 0.96783 0.82654 0.59786 0.0
C39 C 0.05238 0.76214 0.63856 0.0
C40 C 0.95801 0.88133 0.66892 0.0
C41 C 0.06138 0.85002 0.70146 0.0
C42 C 0.97169 0.78388 0.70488 0.0
C43 C 0.04427 0.86904 0.60005 0.0
C44 C 0.96107 0.80089 0.59451 0.0
O45 O 0.06322 0.78656 0.63728 0.0
O46 O 0.38598 0.84112 0.94658 0.0
Zn47 Zn 0.36355 0.81229 0.96792 0.0
O48 O 0.32334 0.82035 0.96417 0.0
Zn49 Zn 0.30508 0.81777 9e-05 0.0
Zn50 Zn 0.31809 0.85781 0.94965 0.0
Zn51 Zn 0.30572 0.79411 0.93854 0.0
O52 O 0.27672 0.78611 0.00168 0.0
O53 O 0.27851 0.76958 0.95837 0.0
O54 O 0.37563 0.81052 0.00902 0.0
O55 O 0.33396 0.81022 0.0295 0.0
O56 O 0.28882 0.85476 0.01179 0.0
O57 O 0.30669 0.88393 0.98048 0.0
O58 O 0.28825 0.85841 0.91964 0.0
O59 O 0.37255 0.77537 0.94897 0.0
O60 O 0.28413 0.8134 0.90806 0.0
O61 O 0.334 0.76762 0.92325 0.0
C62 C 0.379 0.86271 0.93256 0.0
C63 C 0.26893 0.76846 0.98302 0.0
C64 C 0.29375 0.87957 0.00324 0.0
C65 C 0.36062 0.80885 0.03093 0.0
C66 C 0.27788 0.83904 0.90418 0.0
C67 C 0.35894 0.76121 0.93058 0.0
O68 O 0.35372 0.87134 0.93195 0.0
O69 O 0.42906 0.07395 0.18885 0.0
Zn70 Zn 0.461 0.09026 0.21163 0.0
O71 O 0.46936 0.12863 0.19904 0.0
Zn72 Zn 0.50739 0.13132 0.18533 0.0
Zn73 Zn 0.44341 0.1393 0.16943 0.0
Zn74 Zn 0.46632 0.1549 0.22979 0.0
O75 O 0.53355 0.15286 0.21119 0.0
O76 O 0.50397 0.16779 0.24335 0.0
O77 O 0.49477 0.06455 0.20682 0.0
O78 O 0.52325 0.09317 0.18383 0.0
O79 O 0.50886 0.14599 0.14626 0.0
O80 O 0.46385 0.14726 0.1338 0.0
O81 O 0.42255 0.17397 0.17998 0.0
O82 O 0.44673 0.09045 0.25134 0.0
O83 O 0.44251 0.18818 0.21985 0.0
O84 O 0.44827 0.13596 0.26189 0.0
C85 C 0.41273 0.08369 0.17006 0.0
C86 C 0.52881 0.16556 0.23409 0.0
C87 C 0.48974 0.14999 0.12793 0.0
C88 C 0.51746 0.06907 0.19355 0.0
C89 C 0.42511 0.19175 0.19981 0.0
C90 C 0.44226 0.11074 0.26815 0.0
O91 O 0.41558 0.10858 0.16097 0.0
O92 O 0.75201 0.29366 0.49599 0.0
Zn93 Zn 0.7109 0.29371 0.50364 0.0
O94 O 0.69707 0.33122 0.50367 0.0
Zn95 Zn 0.69101 0.34282 0.54105 0.0
Zn96 Zn 0.72646 0.35283 0.4862 0.0
Zn97 Zn 0.66199 0.33371 0.48361 0.0
O98 O 0.65395 0.36149 0.54446 0.0
O99 O 0.6295 0.34057 0.51027 0.0
O100 O 0.70268 0.27406 0.53951 0.0
O101 O 0.68988 0.30945 0.56677 0.0
O102 O 0.72186 0.36843 0.55306 0.0
O103 O 0.7504 0.37161 0.51658 0.0
O104 O 0.70827 0.38296 0.4625 0.0
O105 O 0.69321 0.27279 0.47169 0.0
O106 O 0.66389 0.36796 0.4593 0.0
O107 O 0.65683 0.29928 0.45915 0.0
C108 C 0.76015 0.30295 0.47256 0.0
C109 C 0.63063 0.35556 0.53248 0.0
C110 C 0.74441 0.37728 0.54195 0.0
C111 C 0.69459 0.28342 0.56303 0.0
C112 C 0.68309 0.38573 0.45347 0.0
C113 C 0.67182 0.27735 0.45624 0.0
O114 O 0.7497 0.32556 0.46283 0.0
O115 O 0.94501 0.26428 0.8359 0.0
Zn116 Zn 0.97985 0.28526 0.82493 0.0
O117 O 0.97107 0.32533 0.82024 0.0
Zn118 Zn 0.98319 0.3376 0.784 0.0
Zn119 Zn 0.93086 0.33114 0.82289 0.0
Zn120 Zn 0.99038 0.34843 0.84814 0.0
O121 O 0.0179 0.3612 0.78662 0.0
O122 O 0.02105 0.37229 0.83157 0.0
O123 O 0.99332 0.26759 0.78856 0.0
O124 O 0.99262 0.30461 0.76066 0.0
O125 O 0.95311 0.35828 0.76337 0.0
O126 O 0.91503 0.34896 0.78812 0.0
O127 O 0.92232 0.35709 0.85443 0.0
O128 O 0.00785 0.27962 0.85666 0.0
O129 O 0.9636 0.37218 0.87067 0.0
O130 O 0.01058 0.32309 0.87409 0.0
C131 C 0.9191 0.27063 0.83697 0.0
C132 C 0.03023 0.37392 0.80675 0.0
C133 C 0.9267 0.35982 0.76689 0.0
C134 C 0.99644 0.27854 0.76453 0.0
C135 C 0.93683 0.3722 0.87121 0.0
C136 C 0.0169 0.29722 0.87482 0.0
O137 O 0.91062 0.29523 0.83123 0.0
O138 O 0.88798 0.65893 0.04134 0.0
Zn139 Zn 0.86513 0.68373 0.01668 0.0
O140 O 0.82587 0.67333 0.01832 0.0
Zn141 Zn 0.81174 0.65974 0.98263 0.0
Zn142 Zn 0.82156 0.64515 0.04671 0.0
Zn143 Zn 0.80435 0.70543 0.02795 0.0
O144 O 0.78075 0.68435 0.96625 0.0
O145 O 0.78711 0.72166 0.99387 0.0
O146 O 0.87947 0.68172 0.97738 0.0
O147 O 0.84282 0.66264 0.95503 0.0
O148 O 0.80235 0.61854 0.98458 0.0
O149 O 0.81672 0.60777 0.02757 0.0
O150 O 0.78744 0.65289 0.06986 0.0
O151 O 0.87175 0.72192 0.0337 0.0
O152 O 0.77356 0.6944 0.05392 0.0
O153 O 0.82878 0.73457 0.04613 0.0
C154 C 0.8818 0.64701 0.06422 0.0
C155 C 0.77681 0.7102 0.97198 0.0
C156 C 0.808 0.60041 0.00331 0.0
C157 C 0.86797 0.6719 0.95519 0.0
C158 C 0.77009 0.67314 0.06955 0.0
C159 C 0.8552 0.73887 0.04581 0.0
O160 O 0.85633 0.64295 0.07122 0.0
O161 O 0.53725 0.63867 0.34185 0.0
Zn162 Zn 0.5182 0.6681 0.31851 0.0
O163 O 0.51652 0.70321 0.3393 0.0
Zn164 Zn 0.47777 0.7154 0.34286 0.0
Zn165 Zn 0.53431 0.69946 0.37569 0.0
Zn166 Zn 0.53671 0.73137 0.3192 0.0
O167 O 0.46888 0.7481 0.31714 0.0
O168 O 0.51006 0.75445 0.29679 0.0
O169 O 0.47946 0.6543 0.30741 0.0
O170 O 0.45202 0.68507 0.32875 0.0
O171 O 0.46754 0.72113 0.38337 0.0
O172 O 0.5046 0.70225 0.40477 0.0
O173 O 0.56151 0.73125 0.38405 0.0
O174 O 0.54217 0.67221 0.28424 0.0
O175 O 0.55886 0.75613 0.34508 0.0
O176 O 0.56247 0.71375 0.29173 0.0
C177 C 0.55158 0.63945 0.3645 0.0
C178 C 0.48395 0.75967 0.29849 0.0
C179 C 0.47996 0.71254 0.40547 0.0
C180 C 0.45516 0.66292 0.31419 0.0
C181 C 0.56785 0.75296 0.37 0.0
C182 C 0.56038 0.69083 0.27807 0.0
O183 O 0.5537 0.66186 0.37913 0.0
O184 O 0.15348 0.46015 0.21426 0.0
Zn185 Zn 0.16717 0.48636 0.18427 0.0
O186 O 0.17657 0.46547 0.15005 0.0
Zn187 Zn 0.21546 0.47261 0.1399 0.0
Zn188 Zn 0.17127 0.42572 0.15602 0.0
Zn189 Zn 0.15227 0.4763 0.1193 0.0
O190 O 0.21856 0.49288 0.10316 0.0
O191 O 0.17378 0.49784 0.09103 0.0
O192 O 0.20053 0.50894 0.19907 0.0
O193 O 0.23295 0.4986 0.16774 0.0
O194 O 0.23887 0.43758 0.14143 0.0
O195 O 0.20828 0.40626 0.15737 0.0
O196 O 0.14851 0.4073 0.1256 0.0
O197 O 0.13507 0.51274 0.17676 0.0
O198 O 0.13424 0.44308 0.09984 0.0
O199 O 0.12296 0.50266 0.13278 0.0
C200 C 0.14702 0.43417 0.21345 0.0
C201 C 0.19971 0.50254 0.08682 0.0
C202 C 0.23307 0.41306 0.15023 0.0
C203 C 0.2254 0.51146 0.18972 0.0
C204 C 0.13495 0.41685 0.10475 0.0
C205 C 0.11924 0.51617 0.15545 0.0
O206 O 0.1518 0.41907 0.19204 0.0
O207 O 0.71757 0.00822 0.81278 0.0
Zn208 Zn 0.69294 0.01692 0.84492 0.0
O209 O 0.65589 0.02666 0.83131 0.0
Zn210 Zn 0.6496 0.0664 0.83755 0.0
Zn211 Zn 0.65226 0.01748 0.79125 0.0
Zn212 Zn 0.62916 0.00583 0.85327 0.0
O213 O 0.61595 0.07316 0.86137 0.0
O214 O 0.60703 0.03096 0.87878 0.0
O215 O 0.71119 0.04832 0.86643 0.0
O216 O 0.68244 0.0838 0.85797 0.0
O217 O 0.64538 0.0869 0.80136 0.0
O218 O 0.6473 0.05322 0.76916 0.0
O219 O 0.61819 0.99182 0.78389 0.0
O220 O 0.69232 0.98196 0.86791 0.0
O221 O 0.60234 0.98728 0.82733 0.0
O222 O 0.64698 0.9741 0.87452 0.0
C223 C 0.71331 0.00068 0.78754 0.0
C224 C 0.60254 0.05729 0.87793 0.0
C225 C 0.64518 0.07905 0.7759 0.0
C226 C 0.70489 0.07413 0.86882 0.0
C227 C 0.60031 0.98244 0.80126 0.0
C228 C 0.67255 0.96712 0.87786 0.0
O229 O 0.68865 0.00057 0.77673 0.0
O230 O 0.85089 0.96387 0.37817 0.0
Zn231 Zn 0.82048 0.97992 0.35358 0.0
O232 O 0.82742 0.97078 0.31448 0.0
Zn233 Zn 0.8216 0.004 0.29114 0.0
Zn234 Zn 0.86531 0.9575 0.31082 0.0
Zn235 Zn 0.80339 0.93991 0.30282 0.0
O236 O 0.7904 0.99673 0.26225 0.0
O237 O 0.77886 0.95267 0.27209 0.0
O238 O 0.81608 0.02186 0.35903 0.0
O239 O 0.81066 0.03705 0.31545 0.0
O240 O 0.85837 0.01604 0.27315 0.0
O241 O 0.8886 0.98581 0.29191 0.0
O242 O 0.86755 0.92315 0.28736 0.0
O243 O 0.78526 0.96067 0.36686 0.0
O244 O 0.82408 0.90646 0.28733 0.0
O245 O 0.77725 0.92904 0.33326 0.0
C246 C 0.87326 0.95039 0.37285 0.0
C247 C 0.77541 0.97478 0.2578 0.0
C248 C 0.88331 0.00691 0.27664 0.0
C249 C 0.81089 0.04153 0.34176 0.0
C250 C 0.84984 0.90411 0.28088 0.0
C251 C 0.77142 0.93995 0.35681 0.0
O252 O 0.88143 0.94685 0.34787 0.0
O253 O 0.3392 0.55006 0.62107 0.0
Zn254 Zn 0.31479 0.52562 0.64458 0.0
O255 O 0.33427 0.51621 0.67937 0.0
Zn256 Zn 0.33645 0.47572 0.68303 0.0
Zn257 Zn 0.37233 0.53173 0.67963 0.0
Zn258 Zn 0.31345 0.53131 0.71059 0.0
O259 O 0.31463 0.46127 0.71576 0.0
O260 O 0.29561 0.50038 0.73225 0.0
O261 O 0.30144 0.49119 0.623 0.0
O262 O 0.31764 0.45758 0.65054 0.0
O263 O 0.37605 0.46173 0.68166 0.0
O264 O 0.40049 0.50077 0.674 0.0
O265 O 0.38114 0.55178 0.7162 0.0
O266 O 0.28132 0.5495 0.6521 0.0
O267 O 0.33937 0.55209 0.73649 0.0
O268 O 0.282 0.55676 0.69796 0.0
C269 C 0.3623 0.56304 0.62562 0.0
C270 C 0.29833 0.47385 0.73254 0.0
C271 C 0.39908 0.47414 0.67612 0.0
C272 C 0.30462 0.46531 0.62864 0.0
C273 C 0.36543 0.55835 0.7366 0.0
C274 C 0.27131 0.56098 0.67385 0.0
O275 O 0.37679 0.559 0.64778 0.0
H276 H 0.14628 0.28439 0.49896 0.0
H277 H 0.16894 0.32593 0.51921 0.0
H278 H 0.23265 0.27397 0.55686 0.0
H279 H 0.21018 0.23206 0.53652 0.0
H280 H 0.21141 0.31484 0.59307 0.0
H281 H 0.2478 0.30848 0.49955 0.0
H282 H 0.24777 0.30707 0.44803 0.0
H283 H 0.20414 0.38561 0.4454 0.0
H284 H 0.20354 0.38731 0.49692 0.0
H285 H 0.3177 0.41 0.62733 0.0
H286 H 0.29148 0.37215 0.60452 0.0
H287 H 0.23473 0.4323 0.56802 0.0
H288 H 0.2612 0.4707 0.59078 0.0
H289 H 0.24855 0.38969 0.53163 0.0
H290 H 0.21498 0.39836 0.62448 0.0
H291 H 0.21924 0.4028 0.67571 0.0
H292 H 0.25733 0.32149 0.67997 0.0
H293 H 0.25383 0.31676 0.62867 0.0
C294 C 0.16502 0.28167 0.51169 0.0
C295 C 0.17652 0.25487 0.51603 0.0
C296 C 0.178 0.3055 0.52311 0.0
C297 C 0.2026 0.30299 0.53921 0.0
C298 C 0.2137 0.27627 0.54435 0.0
C299 C 0.20088 0.25239 0.53269 0.0
C300 C 0.21683 0.32831 0.55059 0.0
C301 C 0.21978 0.33109 0.57966 0.0
C302 C 0.2268 0.34992 0.53303 0.0
C303 C 0.2254 0.34788 0.50211 0.0
C304 C 0.23778 0.32521 0.48801 0.0
C305 C 0.23801 0.32444 0.4588 0.0
C306 C 0.2261 0.34632 0.44349 0.0
C307 C 0.21345 0.36875 0.45731 0.0
C308 C 0.21314 0.36961 0.4865 0.0
C309 C 0.29982 0.4153 0.61421 0.0
C310 C 0.29127 0.44331 0.61111 0.0
C311 C 0.28481 0.39361 0.6013 0.0
C312 C 0.26079 0.39943 0.58524 0.0
C313 C 0.25309 0.42745 0.58063 0.0
C314 C 0.26826 0.44931 0.59352 0.0
C315 C 0.24353 0.37599 0.57401 0.0
C316 C 0.2399 0.37359 0.54504 0.0
C317 C 0.23273 0.35484 0.59167 0.0
C318 C 0.23436 0.35732 0.62264 0.0
C319 C 0.22445 0.38149 0.6363 0.0
C320 C 0.22671 0.38406 0.66536 0.0
C321 C 0.23863 0.36248 0.68106 0.0
C322 C 0.24815 0.33821 0.66775 0.0
C323 C 0.24602 0.33557 0.63868 0.0
H324 H 0.24048 0.36456 0.70353 0.0
H325 H 0.2268 0.34602 0.42092 0.0
H326 H 0.7141 0.97936 0.73393 0.0
H327 H 0.75532 0.96399 0.70775 0.0
H328 H 0.80904 0.98684 0.77756 0.0
H329 H 0.76844 0.0026 0.80349 0.0
H330 H 0.83279 0.0022 0.73057 0.0
H331 H 0.78887 0.91869 0.76589 0.0
H332 H 0.75016 0.88488 0.77295 0.0
H333 H 0.74383 0.871 0.68437 0.0
H334 H 0.78232 0.90502 0.67677 0.0
H335 H 0.94955 0.90926 0.71818 0.0
H336 H 0.90767 0.93534 0.73186 0.0
H337 H 0.871 0.92098 0.65022 0.0
H338 H 0.91295 0.8953 0.63614 0.0
H339 H 0.83721 0.90372 0.69675 0.0
H340 H 0.88816 0.98395 0.66422 0.0
H341 H 0.92878 0.01608 0.66075 0.0
H342 H 0.92404 0.03427 0.74853 0.0
H343 H 0.88364 0.0019 0.75263 0.0
C344 C 0.73471 0.98121 0.74362 0.0
C345 C 0.73788 0.99195 0.77091 0.0
C346 C 0.75823 0.97237 0.72867 0.0
C347 C 0.78524 0.97401 0.74082 0.0
C348 C 0.78845 0.98539 0.76774 0.0
C349 C 0.76509 0.99422 0.78262 0.0
C350 C 0.81022 0.96302 0.72617 0.0
C351 C 0.83379 0.98064 0.72325 0.0
C352 C 0.8114 0.93501 0.71625 0.0
C353 C 0.7882 0.91466 0.72073 0.0
C354 C 0.77905 0.90861 0.7479 0.0
C355 C 0.75719 0.88938 0.75201 0.0
C356 C 0.74447 0.87588 0.72912 0.0
C357 C 0.75365 0.88153 0.70207 0.0
C358 C 0.77549 0.90077 0.69785 0.0
C359 C 0.93279 0.91207 0.70298 0.0
C360 C 0.93453 0.90016 0.67611 0.0
C361 C 0.90894 0.92703 0.7108 0.0
C362 C 0.88632 0.93004 0.69201 0.0
C363 C 0.8883 0.91889 0.66495 0.0
C364 C 0.91233 0.90434 0.65694 0.0
C365 C 0.8598 0.9428 0.7015 0.0
C366 C 0.836 0.92544 0.70357 0.0
C367 C 0.85863 0.97085 0.71113 0.0
C368 C 0.883 0.99029 0.70877 0.0
C369 C 0.89594 0.99458 0.68284 0.0
C370 C 0.91889 0.01289 0.68075 0.0
C371 C 0.92902 0.02716 0.70441 0.0
C372 C 0.91618 0.02318 0.73022 0.0
C373 C 0.89323 0.00488 0.73243 0.0
H374 H 0.94678 0.04134 0.70274 0.0
H375 H 0.72756 0.86098 0.73233 0.0
H376 H 0.25538 0.7506 0.03554 0.0
H377 H 0.23797 0.70396 0.04793 0.0
H378 H 0.22727 0.68331 0.9606 0.0
H379 H 0.24473 0.72971 0.94796 0.0
H380 H 0.19149 0.66937 0.03766 0.0
H381 H 0.25792 0.61954 0.95083 0.0
H382 H 0.29908 0.63134 0.92206 0.0
H383 H 0.33111 0.68529 0.98729 0.0
H384 H 0.29035 0.67358 0.01655 0.0
H385 H 0.16587 0.52522 0.04649 0.0
H386 H 0.17417 0.56913 0.02186 0.0
H387 H 0.25841 0.57303 0.05591 0.0
H388 H 0.25047 0.52897 0.08042 0.0
H389 H 0.25572 0.59514 0.00362 0.0
H390 H 0.20615 0.60317 0.09089 0.0
H391 H 0.16792 0.59236 0.12362 0.0
H392 H 0.10717 0.6234 0.06467 0.0
H393 H 0.14504 0.63411 0.03143 0.0
C394 C 0.24855 0.73646 0.01898 0.0
C395 C 0.25197 0.74365 0.99076 0.0
C396 C 0.2386 0.70981 0.0261 0.0
C397 C 0.23194 0.69009 0.00513 0.0
C398 C 0.23275 0.69815 0.97704 0.0
C399 C 0.24272 0.7247 0.9699 0.0
C400 C 0.22755 0.66031 0.01246 0.0
C401 C 0.2053 0.65308 0.03001 0.0
C402 C 0.24602 0.63922 0.0029 0.0
C403 C 0.27092 0.64593 0.98571 0.0
C404 C 0.27379 0.63386 0.95904 0.0
C405 C 0.29701 0.64058 0.94264 0.0
C406 C 0.31758 0.65918 0.95279 0.0
C407 C 0.31507 0.67101 0.97941 0.0
C408 C 0.29191 0.66437 0.99589 0.0
C409 C 0.18646 0.53495 0.04811 0.0
C410 C 0.20733 0.52391 0.0659 0.0
C411 C 0.19111 0.5601 0.03408 0.0
C412 C 0.2166 0.57464 0.03773 0.0
C413 C 0.23848 0.5622 0.05305 0.0
C414 C 0.23391 0.53697 0.06703 0.0
C415 C 0.21939 0.60408 0.02852 0.0
C416 C 0.24149 0.6113 0.01078 0.0
C417 C 0.20116 0.62525 0.03845 0.0
C418 C 0.1784 0.61915 0.05855 0.0
C419 C 0.18462 0.60752 0.08483 0.0
C420 C 0.16303 0.60145 0.10349 0.0
C421 C 0.13514 0.60713 0.0962 0.0
C422 C 0.12879 0.61898 0.07027 0.0
C423 C 0.15031 0.62509 0.05153 0.0
H424 H 0.11845 0.60245 0.11068 0.0
H425 H 0.33558 0.66424 0.94014 0.0
H426 H 0.56491 0.072 0.16289 0.0
H427 H 0.60451 0.04092 0.16409 0.0
H428 H 0.55907 0.98408 0.21745 0.0
H429 H 0.51915 0.01649 0.21757 0.0
H430 H 0.60618 0.99302 0.23968 0.0
H431 H 0.58346 0.96395 0.14925 0.0
H432 H 0.5675 0.96599 0.10016 0.0
H433 H 0.63899 0.01707 0.07984 0.0
H434 H 0.6552 0.01575 0.12887 0.0
H435 H 0.74124 0.93091 0.24308 0.0
H436 H 0.69492 0.93359 0.22128 0.0
H437 H 0.70752 0.02186 0.20637 0.0
H438 H 0.75394 0.01974 0.22897 0.0
H439 H 0.6732 0.98002 0.16193 0.0
H440 H 0.68051 0.01829 0.26059 0.0
H441 H 0.69655 0.01086 0.30921 0.0
H442 H 0.65192 0.93227 0.31123 0.0
H443 H 0.6359 0.93916 0.26246 0.0
C444 C 0.56294 0.05271 0.17461 0.0
C445 C 0.53897 0.04701 0.19059 0.0
C446 C 0.58564 0.03458 0.17487 0.0
C447 C 0.58482 0.00981 0.19053 0.0
C448 C 0.56019 0.00304 0.20513 0.0
C449 C 0.53738 0.02154 0.20517 0.0
C450 C 0.61131 0.99402 0.19486 0.0
C451 C 0.62037 0.98937 0.22246 0.0
C452 C 0.63006 0.98884 0.17256 0.0
C453 C 0.62055 0.98974 0.14286 0.0
C454 C 0.59573 0.97576 0.13437 0.0
C455 C 0.58663 0.97677 0.10653 0.0
C456 C 0.60222 0.99164 0.08689 0.0
C457 C 0.62696 0.00551 0.09506 0.0
C458 C 0.63616 0.00457 0.12289 0.0
C459 C 0.73459 0.95085 0.23459 0.0
C460 C 0.75106 0.97533 0.23835 0.0
C461 C 0.70815 0.95219 0.22194 0.0
C462 C 0.69795 0.97788 0.21244 0.0
C463 C 0.71531 0.0018 0.21354 0.0
C464 C 0.74175 0.00059 0.22654 0.0
C465 C 0.66775 0.98094 0.20639 0.0
C466 C 0.65834 0.98293 0.1787 0.0
C467 C 0.64837 0.98277 0.22842 0.0
C468 C 0.65721 0.97914 0.25793 0.0
C469 C 0.67423 -0.0006 0.27141 0.0
C470 C 0.6833 0.99528 0.29896 0.0
C471 C 0.67529 0.97108 0.31328 0.0
C472 C 0.65811 0.95099 0.3001 0.0
C473 C 0.64901 0.955 0.27253 0.0
H474 H 0.68235 0.96792 0.3346 0.0
H475 H 0.59514 0.99242 0.06535 0.0
H476 H 0.79342 0.25966 0.4885 0.0
H477 H 0.80673 0.21956 0.46 0.0
H478 H 0.77335 0.26024 0.3866 0.0
H479 H 0.7594 0.30045 0.41532 0.0
H480 H 0.75138 0.20974 0.39159 0.0
H481 H 0.84455 0.2455 0.39341 0.0
H482 H 0.88799 0.26581 0.41378 0.0
H483 H 0.89876 0.19273 0.46476 0.0
H484 H 0.85517 0.17213 0.445 0.0
H485 H 0.79311 0.08747 0.31223 0.0
H486 H 0.78711 0.1355 0.32949 0.0
H487 H 0.81144 0.10919 0.41229 0.0
H488 H 0.81747 0.06118 0.39532 0.0
H489 H 0.84018 0.15599 0.39547 0.0
H490 H 0.74385 0.12301 0.39616 0.0
H491 H 0.69927 0.10433 0.37671 0.0
H492 H 0.69424 0.17379 0.32021 0.0
H493 H 0.73897 0.19275 0.33907 0.0
C494 C 0.78971 0.26051 0.46615 0.0
C495 C 0.7753 0.28321 0.4542 0.0
C496 C 0.79741 0.23753 0.44981 0.0
C497 C 0.7911 0.23682 0.42109 0.0
C498 C 0.77845 0.26033 0.40872 0.0
C499 C 0.77076 0.28343 0.42511 0.0
C500 C 0.79472 0.21027 0.40506 0.0
C501 C 0.771 0.19829 0.39179 0.0
C502 C 0.82015 0.19505 0.40585 0.0
C503 C 0.84646 0.20733 0.41781 0.0
C504 C 0.85606 0.23383 0.40911 0.0
C505 C 0.88074 0.24539 0.42053 0.0
C506 C 0.8961 0.23059 0.44058 0.0
C507 C 0.88684 0.20417 0.44922 0.0
C508 C 0.86217 0.19252 0.43788 0.0
C509 C 0.79703 0.09183 0.33416 0.0
C510 C 0.80586 0.07041 0.35237 0.0
C511 C 0.79347 0.11931 0.344 0.0
C512 C 0.79876 0.12592 0.37219 0.0
C513 C 0.80727 0.10455 0.39044 0.0
C514 C 0.81063 0.07708 0.3807 0.0
C515 C 0.79666 0.15524 0.38262 0.0
C516 C 0.8207 0.1677 0.39481 0.0
C517 C 0.77155 0.17094 0.38066 0.0
C518 C 0.74509 0.15903 0.36869 0.0
C519 C 0.73349 0.13408 0.37928 0.0
C520 C 0.70813 0.12349 0.36843 0.0
C521 C 0.69402 0.13778 0.34712 0.0
C522 C 0.70524 0.1627 0.33664 0.0
C523 C 0.73061 0.17336 0.34739 0.0
H524 H 0.67429 0.12966 0.33888 0.0
H525 H 0.9152 0.23958 0.4494 0.0
H526 H 0.06223 0.4056 0.84333 0.0
H527 H 0.11057 0.42209 0.83654 0.0
H528 H 0.10891 0.3888 0.75257 0.0
H529 H 0.06073 0.3726 0.75888 0.0
H530 H 0.15527 0.37079 0.78653 0.0
H531 H 0.10642 0.45537 0.75919 0.0
H532 H 0.07385 0.49478 0.76619 0.0
H533 H 0.12186 0.52214 0.83792 0.0
H534 H 0.15452 0.48264 0.83155 0.0
H535 H 0.27115 0.42659 0.71576 0.0
H536 H 0.22812 0.40778 0.73533 0.0
H537 H 0.23605 0.46516 0.80526 0.0
H538 H 0.27814 0.4856 0.78431 0.0
H539 H 0.18757 0.46992 0.78578 0.0
H540 H 0.2401 0.38843 0.81026 0.0
H541 H 0.27296 0.34931 0.80302 0.0
H542 H 0.21907 0.31546 0.73846 0.0
H543 H 0.18606 0.35455 0.74505 0.0
C544 C 0.07198 0.40221 0.82326 0.0
C545 C 0.05764 0.38768 0.80169 0.0
C546 C 0.09959 0.41158 0.81947 0.0
C547 C 0.11324 0.40636 0.79416 0.0
C548 C 0.0987 0.39278 0.77232 0.0
C549 C 0.07108 0.38373 0.77594 0.0
C550 C 0.14308 0.41402 0.79058 0.0
C551 C 0.16248 0.39244 0.78625 0.0
C552 C 0.15238 0.44219 0.79121 0.0
C553 C 0.13268 0.46585 0.79512 0.0
C554 C 0.10986 0.46962 0.77663 0.0
C555 C 0.09143 0.49201 0.78044 0.0
C556 C 0.09572 0.5109 0.80255 0.0
C557 C 0.11851 0.50746 0.82085 0.0
C558 C 0.137 0.48509 0.81714 0.0
C559 C 0.26427 0.43451 0.73581 0.0
C560 C 0.27794 0.45746 0.74863 0.0
C561 C 0.23963 0.42365 0.7471 0.0
C562 C 0.22882 0.43479 0.77201 0.0
C563 C 0.24385 0.45626 0.78598 0.0
C564 C 0.268 0.46776 0.77418 0.0
C565 C 0.20022 0.42665 0.78131 0.0
C566 C 0.18083 0.44815 0.78667 0.0
C567 C 0.19101 0.39832 0.78186 0.0
C568 C 0.21063 0.37451 0.77812 0.0
C569 C 0.2353 0.37271 0.79445 0.0
C570 C 0.25396 0.35053 0.79046 0.0
C571 C 0.24811 0.32992 0.77029 0.0
C572 C 0.22354 0.33139 0.75413 0.0
C573 C 0.20482 0.35354 0.75802 0.0
H574 H 0.26261 0.3128 0.7672 0.0
H575 H 0.08144 0.52823 0.80545 0.0
H576 H 0.63604 0.92525 0.89317 0.0
H577 H 0.64795 0.87693 0.90532 0.0
H578 H 0.73617 0.89781 0.90159 0.0
H579 H 0.72457 0.94596 0.88926 0.0
H580 H 0.72284 0.85195 0.8699 0.0
H581 H 0.70435 0.88606 0.96344 0.0
H582 H 0.67547 0.90765 0.00014 0.0
H583 H 0.61313 0.84282 0.9892 0.0
H584 H 0.6415 0.82103 0.95216 0.0
H585 H 0.79995 0.75284 0.94415 0.0
H586 H 0.77536 0.79105 0.921 0.0
H587 H 0.69616 0.74855 0.93388 0.0
H588 H 0.72115 0.70995 0.95726 0.0
H589 H 0.69591 0.80043 0.95534 0.0
H590 H 0.71795 0.76246 0.8665 0.0
H591 H 0.74598 0.74156 0.82877 0.0
H592 H 0.80138 0.81305 0.83037 0.0
H593 H 0.77378 0.83435 0.86819 0.0
C594 C 0.65798 0.91972 0.89548 0.0
C595 C 0.67936 0.93946 0.89005 0.0
C596 C 0.66473 0.89206 0.90237 0.0
C597 C 0.69293 0.88377 0.90413 0.0
C598 C 0.71426 0.90375 0.90006 0.0
C599 C 0.70757 0.93132 0.89317 0.0
C600 C 0.70053 0.85405 0.90874 0.0
C601 C 0.71713 0.84068 0.88866 0.0
C602 C 0.69192 0.83901 0.93257 0.0
C603 C 0.67487 0.85213 0.95479 0.0
C604 C 0.68435 0.87656 0.96868 0.0
C605 C 0.66811 0.8888 0.98958 0.0
C606 C 0.64243 0.87667 -0.00307 0.0
C607 C 0.63299 0.85223 0.98344 0.0
C608 C 0.64915 0.83992 0.9625 0.0
C609 C 0.77739 0.75122 0.94108 0.0
C610 C 0.76234 0.72856 0.95214 0.0
C611 C 0.76333 0.773 0.92779 0.0
C612 C 0.73389 0.77262 0.92553 0.0
C613 C 0.7189 0.74914 0.93525 0.0
C614 C 0.73311 0.72708 0.94838 0.0
C615 C 0.71919 0.79858 0.91696 0.0
C616 C 0.70117 0.81135 0.93625 0.0
C617 C 0.72651 0.81311 0.89238 0.0
C618 C 0.74377 0.79998 0.87024 0.0
C619 C 0.73622 0.77364 0.85896 0.0
C620 C 0.75195 0.7618 0.83745 0.0
C621 C 0.77534 0.77605 0.82708 0.0
C622 C 0.78316 0.80211 0.83832 0.0
C623 C 0.76743 0.81411 0.85974 0.0
H624 H 0.78749 0.76684 0.81043 0.0
H625 H 0.62989 0.88617 0.01312 0.0
H626 H 0.45123 0.62528 0.27098 0.0
H627 H 0.40847 0.60335 0.25186 0.0
H628 H 0.35918 0.64474 0.31476 0.0
H629 H 0.40175 0.66698 0.33391 0.0
H630 H 0.34607 0.58695 0.30686 0.0
H631 H 0.35632 0.67105 0.2539 0.0
H632 H 0.38154 0.70578 0.22532 0.0
H633 H 0.3944 0.64344 0.16171 0.0
H634 H 0.36966 0.60818 0.19009 0.0
H635 H 0.21843 0.54409 0.23682 0.0
H636 H 0.25397 0.57384 0.26015 0.0
H637 H 0.31496 0.54931 0.19875 0.0
H638 H 0.27989 0.52015 0.17526 0.0
H639 H 0.31777 0.60443 0.20843 0.0
H640 H 0.31345 0.51944 0.2635 0.0
H641 H 0.28992 0.4837 0.29226 0.0
H642 H 0.26688 0.54721 0.35163 0.0
H643 H 0.28999 0.58339 0.32299 0.0
C644 C 0.43134 0.62954 0.28089 0.0
C645 C 0.42983 0.64792 0.30387 0.0
C646 C 0.40695 0.61715 0.26985 0.0
C647 C 0.38074 0.62274 0.28177 0.0
C648 C 0.37924 0.64032 0.30525 0.0
C649 C 0.40356 0.65301 0.31609 0.0
C650 C 0.35492 0.61026 0.26953 0.0
C651 C 0.33952 0.59111 0.28551 0.0
C652 C 0.34671 0.61562 0.2416 0.0
C653 C 0.36139 0.63686 0.22431 0.0
C654 C 0.36475 0.66466 0.23394 0.0
C655 C 0.37894 0.68445 0.21776 0.0
C656 C 0.38974 0.67675 0.19182 0.0
C657 C 0.38614 0.64932 0.18188 0.0
C658 C 0.37201 0.62943 0.19799 0.0
C659 C 0.2394 0.5451 0.2283 0.0
C660 C 0.24631 0.52965 0.20423 0.0
C661 C 0.25967 0.56206 0.24166 0.0
C662 C 0.28712 0.56365 0.23122 0.0
C663 C 0.29388 0.5485 0.20708 0.0
C664 C 0.27376 0.53169 0.19375 0.0
C665 C 0.30931 0.58047 0.2455 0.0
C666 C 0.32404 0.60054 0.22991 0.0
C667 C 0.31699 0.57587 0.27374 0.0
C668 C 0.30312 0.55415 0.29094 0.0
C669 C 0.30316 0.52581 0.28256 0.0
C670 C 0.28994 0.50547 0.29886 0.0
C671 C 0.27683 0.51319 0.32371 0.0
C672 C 0.27698 0.54127 0.33234 0.0
C673 C 0.29014 0.56169 0.3161 0.0
H674 H 0.26662 0.49742 0.3363 0.0
H675 H 0.40079 0.69207 0.17937 0.0
H676 H 0.52563 0.1928 0.28399 0.0
H677 H 0.56344 0.20187 0.31737 0.0
H678 H 0.62372 0.16866 0.25949 0.0
H679 H 0.5856 0.15898 0.22558 0.0
H680 H 0.60059 0.1577 0.33876 0.0
H681 H 0.68548 0.21332 0.27972 0.0
H682 H 0.69306 0.23937 0.23595 0.0
H683 H 0.60899 0.27136 0.23949 0.0
H684 H 0.60108 0.24577 0.28341 0.0
H685 H 0.70898 0.24539 0.42715 0.0
H686 H 0.69887 0.21595 0.38584 0.0
H687 H 0.61086 0.23572 0.39216 0.0
H688 H 0.62078 0.26572 0.43276 0.0
H689 H 0.66662 0.2385 0.33406 0.0
H690 H 0.5803 0.16774 0.38548 0.0
H691 H 0.57377 0.14217 0.42956 0.0
H692 H 0.66316 0.13973 0.44244 0.0
H693 H 0.67029 0.16496 0.39833 0.0
C694 C 0.54689 0.1876 0.27806 0.0
C695 C 0.55252 0.17494 0.25216 0.0
C696 C 0.56846 0.19265 0.29728 0.0
C697 C 0.59618 0.18547 0.29098 0.0
C698 C 0.60233 0.17409 0.2647 0.0
C699 C 0.58058 0.16877 0.24537 0.0
C700 C 0.61799 0.18996 0.31269 0.0
C701 C 0.61538 0.17508 0.33774 0.0
C702 C 0.63818 0.21168 0.31074 0.0
C703 C 0.64259 0.22731 0.28453 0.0
C704 C 0.66864 0.22592 0.2711 0.0
C705 C 0.67299 0.24061 0.24631 0.0
C706 C 0.65147 0.2569 0.23487 0.0
C707 C 0.62559 0.25862 0.24828 0.0
C708 C 0.62114 0.24399 0.2731 0.0
C709 C 0.68743 0.24315 0.41987 0.0
C710 C 0.66556 0.25776 0.43308 0.0
C711 C 0.68181 0.22649 0.39629 0.0
C712 C 0.65419 0.22368 0.38625 0.0
C713 C 0.6323 0.23759 0.39987 0.0
C714 C 0.63796 0.25472 0.42295 0.0
C715 C 0.64757 0.20758 0.36066 0.0
C716 C 0.65294 0.22021 0.33486 0.0
C717 C 0.6301 0.18359 0.36187 0.0
C718 C 0.62583 0.16829 0.38848 0.0
C719 C 0.5986 0.16158 0.39757 0.0
C720 C 0.59478 0.14719 0.42264 0.0
C721 C 0.61802 0.13933 0.4388 0.0
C722 C 0.64515 0.14586 0.42994 0.0
C723 C 0.64909 0.16025 0.40491 0.0
H724 H 0.61501 0.12819 0.45819 0.0
H725 H 0.65488 0.26825 0.21567 0.0
H726 H 0.04197 0.22009 0.52119 0.0
H727 H 0.02397 0.22698 0.56818 0.0
H728 H 0.04348 0.14121 0.58845 0.0
H729 H 0.06159 0.13397 0.54125 0.0
H730 H 0.99145 0.16983 0.6167 0.0
H731 H 0.09237 0.1769 0.60303 0.0
H732 H 0.1338 0.19228 0.57647 0.0
H733 H 0.10913 0.27827 0.58616 0.0
H734 H 0.06722 0.26335 0.6123 0.0
H735 H 3e-05 0.22077 0.76046 0.0
H736 H 0.01051 0.19313 0.71828 0.0
H737 H 0.01937 0.26966 0.67134 0.0
H738 H 0.00954 0.29707 0.71277 0.0
H739 H 0.0612 0.23481 0.66063 0.0
H740 H 0.95925 0.22954 0.66837 0.0
H741 H 0.91505 0.21664 0.69166 0.0
H742 H 0.93961 0.13007 0.69193 0.0
H743 H 0.98414 0.14254 0.66893 0.0
C744 C 0.04155 0.20236 0.53526 0.0
C745 C 0.05379 0.17668 0.52774 0.0
C746 C 0.03114 0.20631 0.56206 0.0
C747 C 0.0329 0.18472 0.58177 0.0
C748 C 0.042 0.15808 0.57343 0.0
C749 C 0.05238 0.15403 0.54647 0.0
C750 C 0.03064 0.19193 0.61167 0.0
C751 C 0.00692 0.18352 0.62665 0.0
C752 C 0.05087 0.20988 0.62439 0.0
C753 C 0.07657 0.21898 0.60948 0.0
C754 C 0.09569 0.19907 0.59935 0.0
C755 C 0.11925 0.20771 0.58437 0.0
C756 C 0.12407 0.23623 0.57961 0.0
C757 C 0.10536 0.25618 0.58987 0.0
C758 C 0.08171 0.24765 0.60479 0.0
C759 C 0.00444 0.23162 0.74116 0.0
C760 C 0.00393 0.26113 0.74002 0.0
C761 C 0.01026 0.21582 0.71709 0.0
C762 C 0.01561 0.22937 0.69168 0.0
C763 C 0.01543 0.25875 0.69073 0.0
C764 C 0.00968 0.27441 0.71453 0.0
C765 C 0.02139 0.21366 0.6656 0.0
C766 C 0.04601 0.22045 0.65119 0.0
C767 C 0.00186 0.19446 0.65347 0.0
C768 C 0.97516 0.18702 0.66731 0.0
C769 C 0.95533 0.20779 0.67363 0.0
C770 C 0.9302 0.20056 0.68673 0.0
C771 C 0.92457 0.17257 0.69337 0.0
C772 C 0.94403 0.15175 0.68684 0.0
C773 C 0.96921 0.15889 0.67378 0.0
H774 H 0.9051 0.167 0.70349 0.0
H775 H 0.14233 0.24288 0.56803 0.0
H776 H 0.95226 0.8045 0.75401 0.0
H777 H 0.93435 0.77802 0.79351 0.0
H778 H 0.94352 0.70082 0.74706 0.0
H779 H 0.96147 0.72728 0.70713 0.0
H780 H 0.88871 0.74174 0.799 0.0
H781 H 0.96936 0.65279 0.79688 0.0
H782 H 0.01684 0.64323 0.77898 0.0
H783 H 0.03793 0.7308 0.7858 0.0
H784 H 0.99075 0.74079 0.80408 0.0
H785 H 0.85133 0.64971 0.90497 0.0
H786 H 0.87112 0.65985 0.85936 0.0
H787 H 0.93798 0.70769 0.89873 0.0
H788 H 0.91842 0.69762 0.94467 0.0
H789 H 0.95374 0.67683 0.84802 0.0
H790 H 0.88487 0.7449 0.88236 0.0
H791 H 0.83887 0.7551 0.9034 0.0
H792 H 0.79695 0.71249 0.83534 0.0
H793 H 0.84273 0.70217 0.81388 0.0
C794 C 0.95025 0.78191 0.75205 0.0
C795 C 0.95843 0.76792 0.72756 0.0
C796 C 0.93989 0.76685 0.77458 0.0
C797 C 0.93783 0.73753 0.77317 0.0
C798 C 0.94514 0.72347 0.74849 0.0
C799 C 0.95527 0.7386 0.72574 0.0
C800 C 0.92931 0.72191 0.79823 0.0
C801 C 0.9028 0.7273 0.80949 0.0
C802 C 0.94785 0.70331 0.81204 0.0
C803 C 0.97642 0.69755 0.80148 0.0
C804 C 0.98417 0.66998 0.79461 0.0
C805 C 0.01102 0.66449 0.7844 0.0
C806 C 0.03034 0.68641 0.78114 0.0
C807 C 0.0229 0.71386 0.78821 0.0
C808 C 0.9961 0.71944 0.79846 0.0
C809 C 0.8706 0.66187 0.90406 0.0
C810 C 0.88297 0.67342 0.92841 0.0
C811 C 0.88194 0.66747 0.87797 0.0
C812 C 0.90574 0.68474 0.87582 0.0
C813 C 0.91959 0.69426 0.90011 0.0
C814 C 0.90827 0.68864 0.9263 0.0
C815 C 0.91324 0.69669 0.84857 0.0
C816 C 0.93948 0.69075 0.83706 0.0
C817 C 0.89467 0.7151 0.83465 0.0
C818 C 0.86714 0.7227 0.84661 0.0
C819 C 0.8658 0.73781 0.87187 0.0
C820 C 0.8398 0.7436 0.88387 0.0
C821 C 0.81501 0.73438 0.87076 0.0
C822 C 0.81617 0.71961 0.84548 0.0
C823 C 0.84212 0.71391 0.83331 0.0
H824 H 0.7949 0.73874 0.88014 0.0
H825 H 0.0511 0.68213 0.77321 0.0
H826 H 0.50948 0.78432 0.25399 0.0
H827 H 0.48733 0.79854 0.21043 0.0
H828 H 0.40551 0.78444 0.24595 0.0
H829 H 0.42765 0.76911 0.28956 0.0
H830 H 0.40933 0.75697 0.19937 0.0
H831 H 0.43034 0.85165 0.22598 0.0
H832 H 0.45961 0.89137 0.24264 0.0
H833 H 0.51367 0.88171 0.17203 0.0
H834 H 0.48494 0.84168 0.15513 0.0
H835 H 0.33403 0.80359 0.08079 0.0
H836 H 0.35484 0.79973 0.12716 0.0
H837 H 0.43777 0.80343 0.09188 0.0
H838 H 0.41701 0.80762 0.04489 0.0
H839 H 0.43222 0.83773 0.13855 0.0
H840 H 0.41208 0.74156 0.11369 0.0
H841 H 0.38289 0.7015 0.0977 0.0
H842 H 0.3267 0.71459 0.16607 0.0
H843 H 0.35539 0.75493 0.18231 0.0
C844 C 0.48674 0.78489 0.25291 0.0
C845 C 0.47036 0.77521 0.27526 0.0
C846 C 0.47406 0.79322 0.22789 0.0
C847 C 0.4447 0.79259 0.2248 0.0
C848 C 0.42822 0.78498 0.24779 0.0
C849 C 0.44091 0.77639 0.27281 0.0
C850 C 0.43155 0.79645 0.19675 0.0
C851 C 0.4139 0.77498 0.18636 0.0
C852 C 0.43825 0.81941 0.17929 0.0
C853 C 0.45559 0.8435 0.18941 0.0
C854 C 0.44859 0.85785 0.21412 0.0
C855 C 0.46507 0.88045 0.22358 0.0
C856 C 0.48852 0.88902 0.20844 0.0
C857 C 0.49551 0.87504 0.18375 0.0
C858 C 0.47911 0.85242 0.1742 0.0
C859 C 0.35673 0.80347 0.08268 0.0
C860 C 0.37385 0.80579 0.05896 0.0
C861 C 0.36857 0.80118 0.10932 0.0
C862 C 0.39782 0.80096 0.11296 0.0
C863 C 0.4151 0.80347 0.08947 0.0
C864 C 0.40323 0.80574 0.06264 0.0
C865 C 0.41011 0.79832 0.14143 0.0
C866 C 0.42759 0.81991 0.15178 0.0
C867 C 0.4032 0.77553 0.15896 0.0
C868 C 0.38572 0.75148 0.14902 0.0
C869 C 0.39334 0.73608 0.12515 0.0
C870 C 0.37692 0.71328 0.11608 0.0
C871 C 0.35289 0.70559 0.13078 0.0
C872 C 0.34524 0.72066 0.15462 0.0
C873 C 0.36161 0.74346 0.16379 0.0
H874 H 0.34025 0.68788 0.12378 0.0
H875 H 0.50124 0.90653 0.2158 0.0
H876 H 0.12702 0.2373 0.35665 0.0
H877 H 0.12172 0.27961 0.32881 0.0
H878 H 0.0738 0.3181 0.39446 0.0
H879 H 0.0789 0.2757 0.42273 0.0
H880 H 0.05653 0.32973 0.3334 0.0
H881 H 0.13399 0.33506 0.39941 0.0
H882 H 0.17398 0.31261 0.42341 0.0
H883 H 0.21596 0.30266 0.34504 0.0
H884 H 0.17582 0.32432 0.32047 0.0
H885 H 0.14858 0.45198 0.26801 0.0
H886 H 0.1311 0.42642 0.30875 0.0
H887 H 0.09877 0.36098 0.25438 0.0
H888 H 0.11615 0.3861 0.21388 0.0
H889 H 0.15054 0.3738 0.32184 0.0
H890 H 0.04177 0.33117 0.28236 0.0
H891 H 0.00075 0.34843 0.25584 0.0
H892 H 0.0212 0.43312 0.27998 0.0
H893 H 0.0621 0.41638 0.30702 0.0
C894 C 0.11487 0.25448 0.36504 0.0
C895 C 0.10387 0.25335 0.39213 0.0
C896 C 0.11175 0.27856 0.34903 0.0
C897 C 0.09765 0.3019 0.35983 0.0
C898 C 0.08471 0.30018 0.38589 0.0
C899 C 0.08783 0.27602 0.40202 0.0
C900 C 0.10019 0.32897 0.3454 0.0
C901 C 0.07689 0.33976 0.33107 0.0
C902 C 0.12673 0.3422 0.34317 0.0
C903 C 0.15184 0.33122 0.3581 0.0
C904 C 0.15173 0.32805 0.3873 0.0
C905 C 0.17437 0.31535 0.40098 0.0
C906 C 0.19744 0.3061 0.38574 0.0
C907 C 0.19804 0.30978 0.35681 0.0
C908 C 0.17535 0.32228 0.34299 0.0
C909 C 0.13727 0.4324 0.26478 0.0
C910 C 0.13401 0.42083 0.23785 0.0
C911 C 0.12728 0.41791 0.28801 0.0
C912 C 0.11342 0.39202 0.28449 0.0
C913 C 0.10899 0.38117 0.2575 0.0
C914 C 0.11923 0.3954 0.23441 0.0
C915 C 0.10705 0.37412 0.30869 0.0
C916 C 0.12983 0.36474 0.32487 0.0
C917 C 0.08 0.36229 0.31255 0.0
C918 C 0.0551 0.37248 0.29669 0.0
C919 C 0.03741 0.35346 0.28222 0.0
C920 C 0.0142 0.36316 0.26703 0.0
C921 C 0.0084 0.39185 0.2662 0.0
C922 C 0.02576 0.4109 0.28059 0.0
C923 C 0.04899 0.40132 0.29582 0.0
H924 H 0.99043 0.39932 0.25441 0.0
H925 H 0.21492 0.2962 0.39636 0.0
H926 H 0.90762 0.81555 0.58458 0.0
H927 H 0.88989 0.82754 0.53845 0.0
H928 H 0.96083 0.78629 0.50103 0.0
H929 H 0.97879 0.77465 0.54766 0.0
H930 H 0.96251 0.83996 0.49134 0.0
H931 H 0.89149 0.771 0.47906 0.0
H932 H 0.85174 0.74018 0.49132 0.0
H933 H 0.80017 0.81222 0.50616 0.0
H934 H 0.83961 0.84352 0.4942 0.0
H935 H 0.91915 0.91632 0.36879 0.0
H936 H 0.93358 0.88037 0.40197 0.0
H937 H 0.87182 0.90981 0.46037 0.0
H938 H 0.85694 0.94565 0.42725 0.0
H939 H 0.86738 0.85323 0.45051 0.0
H940 H 0.94107 0.92088 0.47205 0.0
H941 H 0.98075 0.9522 0.46068 0.0
H942 H 0.02715 0.88192 0.42941 0.0
H943 H 0.98755 0.85022 0.44026 0.0
C944 C 0.91838 0.80742 0.56643 0.0
C945 C 0.94445 0.79421 0.56947 0.0
C946 C 0.90829 0.81434 0.53995 0.0
C947 C 0.92419 0.80809 0.51618 0.0
C948 C 0.94827 0.79137 0.51909 0.0
C949 C 0.95837 0.78442 0.5457 0.0
C950 C 0.9196 0.82487 0.49056 0.0
C951 C 0.94186 0.84216 0.48179 0.0
C952 C 0.89254 0.82837 0.4786 0.0
C953 C 0.86862 0.80964 0.48579 0.0
C954 C 0.87173 0.7803 0.48508 0.0
C955 C 0.84921 0.76273 0.49192 0.0
C956 C 0.82344 0.77423 0.49948 0.0
C957 C 0.82011 0.80334 0.50019 0.0
C958 C 0.84253 0.821 0.4933 0.0
C959 C 0.90904 0.91563 0.38894 0.0
C960 C 0.88669 0.93374 0.39524 0.0
C961 C 0.91728 0.89496 0.40784 0.0
C962 C 0.9035 0.89224 0.43342 0.0
C963 C 0.88245 0.9114 0.44053 0.0
C964 C 0.87419 0.93207 0.42168 0.0
C965 C 0.91 0.86868 0.45234 0.0
C966 C 0.88812 0.85032 0.45965 0.0
C967 C 0.93736 0.8642 0.46305 0.0
C968 C 0.9612 0.88324 0.45662 0.0
C969 C 0.95963 0.91214 0.46251 0.0
C970 C 0.98213 0.92995 0.45621 0.0
C971 C 0.00642 0.91907 0.44422 0.0
C972 C 0.0083 0.89033 0.43862 0.0
C973 C 0.98584 0.87243 0.44486 0.0
H974 H 0.0238 0.9329 0.43934 0.0
H975 H 0.80604 0.7606 0.50479 0.0
H976 H 0.33797 0.57323 0.78384 0.0
H977 H 0.35531 0.60152 0.82258 0.0
H978 H 0.43695 0.60676 0.78445 0.0
H979 H 0.41939 0.57856 0.74475 0.0
H980 H 0.39552 0.59696 0.86126 0.0
H981 H 0.4631 0.67308 0.8016 0.0
H982 H 0.47172 0.68925 0.75348 0.0
H983 H 0.38511 0.67389 0.73186 0.0
H984 H 0.37599 0.6579 0.7799 0.0
H985 H 0.41488 0.75088 0.92168 0.0
H986 H 0.4348 0.71065 0.89627 0.0
H987 H 0.35156 0.67556 0.88545 0.0
H988 H 0.33168 0.71545 0.91009 0.0
H989 H 0.41795 0.69619 0.83946 0.0
H990 H 0.3563 0.60461 0.89329 0.0
H991 H 0.34334 0.59044 0.94084 0.0
H992 H 0.41129 0.63992 0.97502 0.0
H993 H 0.42531 0.65371 0.92762 0.0
C994 C 0.35969 0.58016 0.7836 0.0
C995 C 0.37717 0.5739 0.76096 0.0
C996 C 0.36968 0.59617 0.80599 0.0
C997 C 0.39741 0.60634 0.80642 0.0
C998 C 0.41541 0.59926 0.78443 0.0
C999 C 0.40533 0.58319 0.76179 0.0
C1000 C 0.40581 0.62631 0.82888 0.0
C1001 C 0.40075 0.61863 0.85666 0.0
C1002 C 0.41388 0.65427 0.82295 0.0
C1003 C 0.41901 0.66396 0.79413 0.0
C1004 C 0.44594 0.67318 0.78653 0.0
C1005 C 0.45089 0.68231 0.75931 0.0
C1006 C 0.429 0.68248 0.73959 0.0
C1007 C 0.40207 0.67364 0.74711 0.0
C1008 C 0.397 0.66453 0.77431 0.0
C1009 C 0.40098 0.73433 0.91415 0.0
C1010 C 0.37174 0.73632 0.9176 0.0
C1011 C 0.41236 0.71147 0.89971 0.0
C1012 C 0.39464 0.69007 0.88934 0.0
C1013 C 0.36561 0.69168 0.89365 0.0
C1014 C 0.35425 0.71461 0.90751 0.0
C1015 C 0.40528 0.66725 0.87142 0.0
C1016 C 0.41407 0.67433 0.84449 0.0
C1017 C 0.40002 0.63884 0.87807 0.0
C1018 C 0.3919 0.63024 0.90674 0.0
C1019 C 0.36876 0.61222 0.91086 0.0
C1020 C 0.36122 0.60421 0.93783 0.0
C1021 C 0.37648 0.61426 0.96093 0.0
C1022 C 0.39944 0.63219 0.9571 0.0
C1023 C 0.40723 0.64007 0.93017 0.0
H1024 H 0.37046 0.60821 0.9818 0.0
H1025 H 0.43289 0.68953 0.71852 0.0
H1026 H 0.45535 0.15847 0.08241 0.0
H1027 H 0.46815 0.153 0.03336 0.0
H1028 H 0.55502 0.14277 0.0578 0.0
H1029 H 0.54266 0.14903 0.10654 0.0
H1030 H 0.55241 0.16719 0.00892 0.0
H1031 H 0.50912 0.08619 0.05274 0.0
H1032 H 0.47076 0.06154 0.07697 0.0
H1033 H 0.4147 0.07817 0.0082 0.0
H1034 H 0.45268 0.10327 0.98375 0.0
H1035 H 0.58147 0.03412 0.92541 0.0
H1036 H 0.55504 0.05784 0.96185 0.0
H1037 H 0.55222 0.133 0.91202 0.0
H1038 H 0.57954 0.10967 0.87581 0.0
H1039 H 0.50654 0.08215 0.96839 0.0
H1040 H 0.56012 0.1897 0.95504 0.0
H1041 H 0.60338 0.21008 0.93533 0.0
H1042 H 0.64692 0.13276 0.94981 0.0
H1043 H 0.60404 0.11209 0.96992 0.0
C1044 C 0.4773 0.15586 0.07728 0.0
C1045 C 0.49791 0.15354 0.09844 0.0
C1046 C 0.48454 0.15267 0.04923 0.0
C1047 C 0.51241 0.14674 0.04203 0.0
C1048 C 0.53335 0.14716 0.06288 0.0
C1049 C 0.5262 0.15063 0.09083 0.0
C1050 C 0.51949 0.13641 0.01375 0.0
C1051 C 0.54207 0.1489 -0.00022 0.0
C1052 C 0.50632 0.11222 0.00209 0.0
C1053 C 0.48359 0.09689 0.0166 0.0
C1054 C 0.48855 0.08472 0.04288 0.0
C1055 C 0.4669 0.07067 0.05665 0.0
C1056 C 0.44028 0.06838 0.04418 0.0
C1057 C 0.4353 0.08004 0.01787 0.0
C1058 C 0.45688 0.09418 0.00405 0.0
C1059 C 0.5749 0.05557 0.922 0.0
C1060 C 0.583 0.07018 0.89796 0.0
C1061 C 0.55968 0.06909 0.94282 0.0
C1062 C 0.55209 0.09736 0.93986 0.0
C1063 C 0.55837 0.11136 0.91497 0.0
C1064 C 0.57395 0.09798 0.89431 0.0
C1065 C 0.53988 0.11255 0.96388 0.0
C1066 C 0.51631 0.10098 0.97701 0.0
C1067 C 0.5528 0.13698 0.97533 0.0
C1068 C 0.57879 0.14928 0.9636 0.0
C1069 C 0.57896 0.1771 0.95405 0.0
C1070 C 0.6034 0.1887 0.94282 0.0
C1071 C 0.62785 0.17269 0.94121 0.0
C1072 C 0.62795 0.1451 0.95096 0.0
C1073 C 0.60358 0.13343 0.96226 0.0
H1074 H 0.64673 0.18168 0.93247 0.0
H1075 H 0.42353 0.05751 0.05487 0.0
H1076 H 0.67669 0.29522 0.61603 0.0
H1077 H 0.66562 0.2618 0.65292 0.0
H1078 H 0.68933 0.19324 0.59904 0.0
H1079 H 0.70017 0.22637 0.56194 0.0
H1080 H 0.63931 0.18342 0.62474 0.0
H1081 H 0.73254 0.21558 0.65088 0.0
H1082 H 0.76793 0.25213 0.66204 0.0
H1083 H 0.71869 0.27984 0.73146 0.0
H1084 H 0.68275 0.24374 0.72044 0.0
H1085 H 0.65454 0.07174 0.72003 0.0
H1086 H 0.65989 0.10809 0.68479 0.0
H1087 H 0.64113 0.17167 0.74626 0.0
H1088 H 0.63638 0.13547 0.78186 0.0
H1089 H 0.68595 0.18639 0.71794 0.0
H1090 H 0.59373 0.15389 0.69387 0.0
H1091 H 0.55669 0.11916 0.68233 0.0
H1092 H 0.60191 0.09376 0.60937 0.0
H1093 H 0.63944 0.12809 0.62068 0.0
C1094 C 0.67968 0.27304 0.61204 0.0
C1095 C 0.68933 0.26348 0.586 0.0
C1096 C 0.67338 0.25399 0.63318 0.0
C1097 C 0.67675 0.22507 0.62871 0.0
C1098 C 0.68651 0.21548 0.60285 0.0
C1099 C 0.69283 0.23448 0.58172 0.0
C1100 C 0.66992 0.20467 0.65086 0.0
C1101 C 0.6497 0.18383 0.64503 0.0
C1102 C 0.68286 0.20589 0.67759 0.0
C1103 C 0.70484 0.2271 0.68469 0.0
C1104 C 0.72919 0.22956 0.66845 0.0
C1105 C 0.74935 0.25018 0.67475 0.0
C1106 C 0.74554 0.26831 0.69742 0.0
C1107 C 0.7216 0.26579 0.7139 0.0
C1108 C 0.70134 0.24523 0.70765 0.0
C1109 C 0.65113 0.0934 0.72601 0.0
C1110 C 0.64504 0.10067 0.7538 0.0
C1111 C 0.65416 0.11419 0.7058 0.0
C1112 C 0.65072 0.14262 0.71283 0.0
C1113 C 0.64393 0.14988 0.74038 0.0
C1114 C 0.6411 0.12913 0.76067 0.0
C1115 C 0.65554 0.16477 0.69173 0.0
C1116 C 0.67538 0.186 0.69774 0.0
C1117 C 0.64209 0.16404 0.6652 0.0
C1118 C 0.61952 0.14342 0.65827 0.0
C1119 C 0.59589 0.14076 0.67548 0.0
C1120 C 0.57479 0.12117 0.66896 0.0
C1121 C 0.57698 0.10422 0.64517 0.0
C1122 C 0.60026 0.10688 0.62781 0.0
C1123 C 0.62143 0.12643 0.63425 0.0
H1124 H 0.56062 0.08906 0.64016 0.0
H1125 H 0.76115 0.2843 0.70223 0.0
H1126 H 0.13 0.35975 0.10961 0.0
H1127 H 0.10941 0.32679 0.07568 0.0
H1128 H 0.08825 0.39582 0.02158 0.0
H1129 H 0.10822 0.42889 0.0555 0.0
H1130 H 0.04657 0.35927 0.02252 0.0
H1131 H 0.1475 0.35606 0.01173 0.0
H1132 H 0.19636 0.34865 0.02763 0.0
H1133 H 0.17638 0.2634 0.04872 0.0
H1134 H 0.12727 0.27043 0.03325 0.0
H1135 H 0.07167 0.30888 0.88332 0.0
H1136 H 0.09378 0.3134 0.92938 0.0
H1137 H 0.02194 0.27305 0.96644 0.0
H1138 H -0.00012 0.26834 0.9201 0.0
H1139 H 0.10737 0.28665 0.98002 0.0
H1140 H -0.00233 0.32039 0.0121 0.0
H1141 H 0.95224 0.33386 0.9907 0.0
H1142 H 0.99532 0.36704 0.91964 0.0
H1143 H 0.04088 0.35391 0.94069 0.0
C1144 C 0.12075 0.36795 0.09059 0.0
C1145 C 0.1209 0.39698 0.08519 0.0
C1146 C 0.10907 0.34905 0.07121 0.0
C1147 C 0.09756 0.35883 0.04601 0.0
C1148 C 0.09697 0.38782 0.04095 0.0
C1149 C 0.10849 0.40671 0.06033 0.0
C1150 C 0.08696 0.33911 0.02425 0.0
C1151 C 0.05971 0.34305 0.01363 0.0
C1152 C 0.10419 0.31811 0.01241 0.0
C1153 C 0.13366 0.31388 0.0217 0.0
C1154 C 0.15348 0.33581 0.01998 0.0
C1155 C 0.18122 0.33167 0.02887 0.0
C1156 C 0.18945 0.3056 0.03928 0.0
C1157 C 0.16996 0.2836 0.04073 0.0
C1158 C 0.14217 0.28764 0.0319 0.0
C1159 C 0.06146 0.29941 0.90111 0.0
C1160 C 0.03426 0.28821 0.89842 0.0
C1161 C 0.07405 0.30202 0.92743 0.0
C1162 C 0.05925 0.29398 0.95129 0.0
C1163 C 0.03362 0.27941 0.94821 0.0
C1164 C 0.02111 0.27658 0.92177 0.0
C1165 C 0.06717 0.30705 0.97833 0.0
C1166 C 0.09388 0.30204 0.98981 0.0
C1167 C 0.04985 0.32775 0.99048 0.0
C1168 C 0.02255 0.33586 0.9778 0.0
C1169 C -0.00263 0.33056 0.99191 0.0
C1170 C 0.97163 0.33812 0.97983 0.0
C1171 C 0.97087 0.35118 0.95375 0.0
C1172 C 0.99588 0.35679 0.93974 0.0
C1173 C 0.02166 0.34927 0.95172 0.0
H1174 H 0.95093 0.35702 0.94444 0.0
H1175 H 0.21093 0.30243 0.04614 0.0
H1176 H 0.90304 0.89307 0.26318 0.0
H1177 H 0.91621 0.86189 0.22497 0.0
H1178 H 0.83079 0.83159 0.21858 0.0
H1179 H 0.81727 0.86273 0.2568 0.0
H1180 H 0.87245 0.78989 0.20651 0.0
H1181 H 0.84675 0.88666 0.18231 0.0
H1182 H 0.85289 0.93793 0.18723 0.0
H1183 H 0.93907 0.93092 0.16252 0.0
H1184 H 0.93349 0.87953 0.15784 0.0
H1185 H 0.83036 0.78788 0.06073 0.0
H1186 H 0.84347 0.81729 0.10083 0.0
H1187 H 0.91864 0.76862 0.11316 0.0
H1188 H 0.90594 0.73937 0.07271 0.0
H1189 H 0.89252 0.84846 0.12338 0.0
H1190 H 0.91261 0.74799 0.18129 0.0
H1191 H 0.90521 0.6969 0.17527 0.0
H1192 H 0.82771 0.712 0.13122 0.0
H1193 H 0.83453 0.76309 0.1373 0.0
C1194 C 0.88714 0.87928 0.25417 0.0
C1195 C 0.85892 0.88084 0.2626 0.0
C1196 C 0.89479 0.86141 0.2324 0.0
C1197 C 0.87437 0.84485 0.21879 0.0
C1198 C 0.84681 0.8443 0.22889 0.0
C1199 C 0.83909 0.86222 0.25065 0.0
C1200 C 0.88039 0.83173 0.19152 0.0
C1201 C 0.87737 0.8026 0.18845 0.0
C1202 C 0.88671 0.84839 0.16796 0.0
C1203 C 0.88979 0.8793 0.16999 0.0
C1204 C 0.86703 0.89607 0.17805 0.0
C1205 C 0.87041 0.92513 0.1808 0.0
C1206 C 0.89637 0.93767 0.17527 0.0
C1207 C 0.91898 0.92118 0.16684 0.0
C1208 C 0.91573 0.89209 0.16413 0.0
C1209 C 0.85023 0.78416 0.07132 0.0
C1210 C 0.86695 0.76118 0.06391 0.0
C1211 C 0.85776 0.80104 0.0941 0.0
C1212 C 0.8818 0.79481 0.11001 0.0
C1213 C 0.9 0.77365 0.10103 0.0
C1214 C 0.89271 0.75702 0.07792 0.0
C1215 C 0.88447 0.80671 0.1384 0.0
C1216 C 0.88878 0.83563 0.14164 0.0
C1217 C 0.87925 0.7899 0.16209 0.0
C1218 C 0.8742 0.75926 0.15957 0.0
C1219 C 0.89391 0.74035 0.1705 0.0
C1220 C 0.88984 0.71142 0.16704 0.0
C1221 C 0.86604 0.70122 0.15281 0.0
C1222 C 0.84616 0.71992 0.14218 0.0
C1223 C 0.85011 0.74885 0.14564 0.0
H1224 H 0.86298 0.67884 0.15007 0.0
H1225 H 0.89896 0.96016 0.17745 0.0
H1226 H 0.33087 0.58763 0.58474 0.0
H1227 H 0.34603 0.62234 0.55077 0.0
H1228 H 0.42997 0.62071 0.58578 0.0
H1229 H 0.41469 0.58653 0.62056 0.0
H1230 H 0.41558 0.67315 0.57289 0.0
H1231 H 0.41197 0.5831 0.52625 0.0
H1232 H 0.38982 0.53878 0.51036 0.0
H1233 H 0.32721 0.58496 0.46494 0.0
H1234 H 0.34881 0.62958 0.48088 0.0
H1235 H 0.50151 0.7038 0.45765 0.0
H1236 H 0.47562 0.68932 0.49873 0.0
H1237 H 0.39728 0.70227 0.45456 0.0
H1238 H 0.42313 0.71654 0.41304 0.0
H1239 H 0.40257 0.64941 0.47252 0.0
H1240 H 0.41274 0.74003 0.51361 0.0
H1241 H 0.43747 0.78328 0.52855 0.0
H1242 H 0.49052 0.73548 0.58333 0.0
H1243 H 0.4664 0.69186 0.56844 0.0
C1244 C 0.35258 0.59461 0.58524 0.0
C1245 C 0.3717 0.58406 0.60511 0.0
C1246 C 0.36119 0.6145 0.56582 0.0
C1247 C 0.38922 0.62379 0.56547 0.0
C1248 C 0.40822 0.61381 0.58569 0.0
C1249 C 0.39952 0.59416 0.60542 0.0
C1250 C 0.399 0.64293 0.54327 0.0
C1251 C 0.41292 0.66794 0.55092 0.0
C1252 C 0.39479 0.63647 0.51463 0.0
C1253 C 0.3818 0.60966 0.50503 0.0
C1254 C 0.39335 0.5838 0.51306 0.0
C1255 C 0.38092 0.55863 0.50401 0.0
C1256 C 0.35707 0.55905 0.48673 0.0
C1257 C 0.34565 0.58466 0.47838 0.0
C1258 C 0.35798 0.60989 0.4874 0.0
C1259 C 0.47875 0.70434 0.45686 0.0
C1260 C 0.46437 0.71085 0.43194 0.0
C1261 C 0.46396 0.69625 0.48049 0.0
C1262 C 0.43452 0.69467 0.47968 0.0
C1263 C 0.42002 0.70337 0.45557 0.0
C1264 C 0.43483 0.71158 0.4319 0.0
C1265 C 0.41957 0.67953 0.50203 0.0
C1266 C 0.40474 0.65506 0.49444 0.0
C1267 C 0.42328 0.68639 0.53063 0.0
C1268 C 0.43782 0.71261 0.53977 0.0
C1269 C 0.42981 0.73869 0.52869 0.0
C1270 C 0.4437 0.76329 0.53719 0.0
C1271 C 0.46558 0.76213 0.55685 0.0
C1272 C 0.47357 0.73636 0.56811 0.0
C1273 C 0.45975 0.71168 0.55968 0.0
H1274 H 0.47631 0.7812 0.56339 0.0
H1275 H 0.34748 0.53954 0.47974 0.0
H1276 H 0.21211 0.13985 0.37554 0.0
H1277 H 0.25722 0.12642 0.3555 0.0
H1278 H 0.3008 0.16178 0.42699 0.0
H1279 H 0.25566 0.17462 0.44771 0.0
H1280 H 0.31486 0.17563 0.35942 0.0
H1281 H 0.30862 0.10661 0.43529 0.0
H1282 H 0.28261 0.07059 0.46152 0.0
H1283 H 0.27068 0.02224 0.38627 0.0
H1284 H 0.29624 0.05826 0.35953 0.0
H1285 H 0.44669 0.13916 0.31729 0.0
H1286 H 0.41006 0.14276 0.35244 0.0
H1287 H 0.36245 0.07755 0.31014 0.0
H1288 H 0.39956 0.07321 0.2754 0.0
H1289 H 0.35141 0.07843 0.36625 0.0
H1290 H 0.35218 0.14294 0.28975 0.0
H1291 H 0.37438 0.17704 0.2581 0.0
H1292 H 0.39166 0.2322 0.32752 0.0
H1293 H 0.3697 0.19832 0.35961 0.0
C1294 C 0.23129 0.14488 0.38697 0.0
C1295 C 0.23041 0.15829 0.41318 0.0
C1296 C 0.25695 0.13707 0.37556 0.0
C1297 C 0.28209 0.14295 0.38997 0.0
C1298 C 0.28145 0.15693 0.41578 0.0
C1299 C 0.25573 0.16424 0.42751 0.0
C1300 C 0.30904 0.13482 0.37758 0.0
C1301 C 0.32327 0.15461 0.36141 0.0
C1302 C 0.31908 0.10704 0.37929 0.0
C1303 C 0.30403 0.08527 0.39538 0.0
C1304 C 0.30018 0.08845 0.4243 0.0
C1305 C 0.28559 0.068 0.43927 0.0
C1306 C 0.27491 0.04418 0.42555 0.0
C1307 C 0.27891 0.04072 0.39686 0.0
C1308 C 0.29347 0.06113 0.38179 0.0
C1309 C 0.42896 0.12479 0.31618 0.0
C1310 C 0.42565 0.10622 0.29348 0.0
C1311 C 0.40802 0.12692 0.33619 0.0
C1312 C 0.38322 0.11102 0.33333 0.0
C1313 C 0.38138 0.09013 0.31257 0.0
C1314 C 0.40261 0.08764 0.29276 0.0
C1315 C 0.3578 0.11948 0.34866 0.0
C1316 C 0.34349 0.09968 0.36486 0.0
C1317 C 0.34718 0.14713 0.34641 0.0
C1318 C 0.35957 0.16799 0.3271 0.0
C1319 C 0.3608 0.16231 0.29826 0.0
C1320 C 0.37334 0.18158 0.28025 0.0
C1321 C 0.38458 0.20668 0.29082 0.0
C1322 C 0.38306 0.21268 0.31939 0.0
C1323 C 0.37049 0.1935 0.33749 0.0
H1324 H 0.39429 0.22157 0.27684 0.0
H1325 H 0.26361 0.02838 0.43717 0.0
H1326 H 0.17962 0.06766 0.47664 0.0
H1327 H 0.17219 0.01995 0.49381 0.0
H1328 H 0.13757 0.05357 0.56984 0.0
H1329 H 0.14568 0.10127 0.55289 0.0
H1330 H 0.16073 0.00119 0.57806 0.0
H1331 H 0.09606 0.0475 0.51441 0.0
H1332 H 0.08301 0.07166 0.47073 0.0
H1333 H 0.10906 3e-05 0.42294 0.0
H1334 H 0.12257 0.9756 0.46635 0.0
H1335 H 0.02477 0.91735 0.57625 0.0
H1336 H 0.05301 0.9549 0.55599 0.0
H1337 H 0.12743 0.90433 0.56468 0.0
H1338 H 0.09952 0.8668 0.58529 0.0
H1339 H 0.08854 0.96228 0.51249 0.0
H1340 H 0.17918 0.94659 0.59126 0.0
H1341 H 0.1868 0.92357 0.63681 0.0
H1342 H 0.10081 0.93839 0.65841 0.0
H1343 H 0.09281 0.96186 0.61324 0.0
C1344 C 0.17203 0.06475 0.4977 0.0
C1345 C 0.1633 0.08784 0.51362 0.0
C1346 C 0.16758 0.03756 0.50739 0.0
C1347 C 0.1537 0.03334 0.53275 0.0
C1348 C 0.14827 0.05644 0.55019 0.0
C1349 C 0.15301 0.08366 0.5406 0.0
C1350 C 0.13971 0.00621 0.53833 0.0
C1351 C 0.1453 0.99242 0.56356 0.0
C1352 C 0.11896 0.99524 0.51969 0.0
C1353 C 0.11064 0.00986 0.49359 0.0
C1354 C 0.09917 0.03699 0.49457 0.0
C1355 C 0.09165 0.05071 0.46986 0.0
C1356 C 0.09523 0.0374 0.44406 0.0
C1357 C 0.10629 0.01032 0.44293 0.0
C1358 C 0.11389 0.99653 0.46757 0.0
C1359 C 0.04704 0.91396 0.57334 0.0
C1360 C 0.05999 0.88932 0.58289 0.0
C1361 C 0.06313 0.93541 0.56169 0.0
C1362 C 0.09234 0.93252 0.55939 0.0
C1363 C 0.10496 0.90708 0.56675 0.0
C1364 C 0.08894 0.88568 0.5785 0.0
C1365 C 0.10977 0.95711 0.55206 0.0
C1366 C 0.10459 0.97058 0.52662 0.0
C1367 C 0.13028 0.96818 0.57084 0.0
C1368 C 0.13534 0.95564 0.59874 0.0
C1369 C 0.16198 0.94512 0.60583 0.0
C1370 C 0.16634 0.93196 0.63156 0.0
C1371 C 0.14424 0.92933 0.65038 0.0
C1372 C 0.11786 0.94029 0.64374 0.0
C1373 C 0.11341 0.95354 0.6181 0.0
H1374 H 0.14751 0.91878 0.67009 0.0
H1375 H 0.08938 0.04804 0.42495 0.0
H1376 H 0.05471 0.87378 0.75322 0.0
H1377 H 0.09131 0.88358 0.78822 0.0
H1378 H 0.15445 0.8554 0.73059 0.0
H1379 H 0.11825 0.84623 0.69538 0.0
H1380 H 0.1224 0.84588 0.81165 0.0
H1381 H 0.21759 0.8836 0.74527 0.0
H1382 H 0.22675 0.91442 0.70513 0.0
H1383 H 0.151 0.95979 0.72156 0.0
H1384 H 0.14153 0.9295 0.76202 0.0
H1385 H 0.24939 0.80302 0.8693 0.0
H1386 H 0.2125 0.81442 0.8356 0.0
H1387 H 0.22204 0.90241 0.85544 0.0
H1388 H 0.25926 0.89128 0.88926 0.0
H1389 H 0.21496 0.89223 0.79835 0.0
H1390 H 0.1696 0.86964 0.88361 0.0
H1391 H 0.16002 0.84162 0.92564 0.0
H1392 H 0.13355 0.77202 0.87415 0.0
H1393 H 0.14338 0.79947 0.83178 0.0
C1394 C 0.07643 0.87015 0.74783 0.0
C1395 C 0.08351 0.85895 0.72161 0.0
C1396 C 0.09732 0.87579 0.76784 0.0
C1397 C 0.12563 0.87037 0.76199 0.0
C1398 C 0.13283 0.86027 0.73544 0.0
C1399 C 0.11201 0.85479 0.71539 0.0
C1400 C 0.14721 0.87189 0.78449 0.0
C1401 C 0.14249 0.85633 0.80882 0.0
C1402 C 0.17331 0.88584 0.78103 0.0
C1403 C 0.1788 0.90415 0.75665 0.0
C1404 C 0.20296 0.90024 0.74043 0.0
C1405 C 0.2082 0.91761 0.7176 0.0
C1406 C 0.18951 0.93909 0.71085 0.0
C1407 C 0.16548 0.94317 0.72684 0.0
C1408 C 0.16012 0.92584 0.74968 0.0
C1409 C 0.24388 0.82485 0.86641 0.0
C1410 C 0.25711 0.84622 0.8822 0.0
C1411 C 0.22273 0.8313 0.84718 0.0
C1412 C 0.21434 0.85919 0.84339 0.0
C1413 C 0.22821 0.88074 0.8582 0.0
C1414 C 0.24939 0.87431 0.87756 0.0
C1415 C 0.19029 0.86543 0.82471 0.0
C1416 C 0.19462 0.8823 0.80122 0.0
C1417 C 0.16361 0.85311 0.82909 0.0
C1418 C 0.1574 0.83657 0.85451 0.0
C1419 C 0.16191 0.84829 0.88124 0.0
C1420 C 0.15641 0.83252 0.90513 0.0
C1421 C 0.14623 0.80505 0.90257 0.0
C1422 C 0.14145 0.79331 0.8761 0.0
C1423 C 0.14695 0.80898 0.85214 0.0
H1424 H 0.14199 0.79287 0.92109 0.0
H1425 H 0.19361 0.95252 0.69317 0.0
H1426 H 0.38518 0.0899 0.12022 0.0
H1427 H 0.35198 0.05725 0.09818 0.0
H1428 H 0.35631 0.0039 0.17069 0.0
H1429 H 0.39041 0.03604 0.19243 0.0
H1430 H 0.36446 0.97449 0.12679 0.0
H1431 H 0.29483 0.04056 0.15169 0.0
H1432 H 0.27273 0.08698 0.15634 0.0
H1433 H 0.26972 0.09502 0.06706 0.0
H1434 H 0.29218 0.04881 0.06185 0.0
H1435 H 0.27854 0.8775 0.05813 0.0
H1436 H 0.28486 0.91502 0.09254 0.0
H1437 H 0.30528 0.97299 0.02687 0.0
H1438 H 0.29912 0.93562 0.99219 0.0
H1439 H 0.27749 -0.0018 0.0741 0.0
H1440 H 0.35591 0.93702 0.05141 0.0
H1441 H 0.38 0.89154 0.04695 0.0
H1442 H 0.36667 0.87527 0.13394 0.0
H1443 H 0.34198 0.92047 0.1388 0.0
C1444 C 0.37874 0.07143 0.13165 0.0
C1445 C 0.39056 0.06539 0.15795 0.0
C1446 C 0.35954 0.05288 0.11913 0.0
C1447 C 0.35133 0.02826 0.13292 0.0
C1448 C 0.3623 0.02278 0.15967 0.0
C1449 C 0.38184 0.04111 0.17203 0.0
C1450 C 0.33407 0.00676 0.11805 0.0
C1451 C 0.34499 0.97955 0.11599 0.0
C1452 C 0.30896 0.01344 0.10342 0.0
C1453 C 0.29535 0.04124 0.1064 0.0
C1454 C 0.28964 0.05229 0.13304 0.0
C1455 C 0.27701 0.07857 0.13578 0.0
C1456 C 0.26986 0.09395 0.11201 0.0
C1457 C 0.27527 0.08307 0.08545 0.0
C1458 C 0.2879 0.05681 0.0826 0.0
C1459 C 0.28339 0.89843 0.05082 0.0
C1460 C 0.28905 0.90343 0.02247 0.0
C1461 C 0.28696 0.91984 0.07057 0.0
C1462 C 0.29604 0.94652 0.0622 0.0
C1463 C 0.29836 0.95244 0.03367 0.0
C1464 C 0.29499 0.93101 0.0139 0.0
C1465 C 0.30815 0.96638 0.08289 0.0
C1466 C 0.29645 0.99316 0.08576 0.0
C1467 C 0.33253 0.95938 0.09844 0.0
C1468 C 0.34675 0.93192 0.09537 0.0
C1469 C 0.35777 0.92358 0.0695 0.0
C1470 C 0.37159 0.8979 0.06691 0.0
C1471 C 0.37483 0.88056 0.09015 0.0
C1472 C 0.36409 0.88874 0.11597 0.0
C1473 C 0.35015 0.91436 0.11864 0.0
H1474 H 0.38585 0.86091 0.0882 0.0
H1475 H 0.26009 0.11429 0.11417 0.0
H1476 H 0.94239 0.37486 0.71432 0.0
H1477 H 0.91208 0.3906 0.67629 0.0
H1478 H 0.84113 0.39071 0.73172 0.0
H1479 H 0.87123 0.37411 0.76977 0.0
H1480 H 0.82928 0.36168 0.6874 0.0
H1481 H 0.86869 0.45238 0.70345 0.0
H1482 H 0.90589 0.48799 0.71082 0.0
H1483 H 0.93856 0.47041 0.62935 0.0
H1484 H 0.90179 0.43438 0.62163 0.0
H1485 H 0.73352 0.40637 0.58937 0.0
H1486 H 0.76689 0.41673 0.62704 0.0
H1487 H 0.83517 0.39005 0.57493 0.0
H1488 H 0.80173 0.3794 0.53688 0.0
H1489 H 0.84694 0.43682 0.61822 0.0
H1490 H 0.80986 0.34164 0.60632 0.0
H1491 H 0.77157 0.30698 0.59975 0.0
H1492 H 0.73362 0.33483 0.67591 0.0
H1493 H 0.77138 0.37012 0.68261 0.0
C1494 C 0.92044 0.37868 0.71859 0.0
C1495 C 0.90913 0.3729 0.74499 0.0
C1496 C 0.90316 0.38791 0.69683 0.0
C1497 C 0.87436 0.392 0.70118 0.0
C1498 C 0.86331 0.38764 0.72791 0.0
C1499 C 0.88052 0.37811 0.74961 0.0
C1500 C 0.85529 0.39736 0.67716 0.0
C1501 C 0.83289 0.37852 0.67267 0.0
C1502 C 0.86036 0.41888 0.6575 0.0
C1503 C 0.88259 0.44049 0.66206 0.0
C1504 C 0.88394 0.45592 0.68719 0.0
C1505 C 0.90493 0.47623 0.69142 0.0
C1506 C 0.92461 0.48142 0.67059 0.0
C1507 C 0.92331 0.46635 0.64547 0.0
C1508 C 0.90237 0.44601 0.64115 0.0
C1509 C 0.75573 0.40357 0.58555 0.0
C1510 C 0.76503 0.39143 0.56048 0.0
C1511 C 0.77474 0.40966 0.60705 0.0
C1512 C 0.80328 0.40367 0.60379 0.0
C1513 C 0.81312 0.39477 0.57769 0.0
C1514 C 0.79402 0.38865 0.55603 0.0
C1515 C 0.8213 0.40121 0.62885 0.0
C1516 C 0.84339 0.42034 0.63333 0.0
C1517 C 0.81593 0.38006 0.64874 0.0
C1518 C 0.79322 0.3588 0.64474 0.0
C1519 C 0.79316 0.34063 0.62148 0.0
C1520 C 0.77159 0.32083 0.61776 0.0
C1521 C 0.75011 0.31879 0.63734 0.0
C1522 C 0.7502 0.33652 0.6607 0.0
C1523 C 0.77168 0.35642 0.66446 0.0
H1524 H 0.73349 0.30339 0.63448 0.0
H1525 H 0.94084 0.49715 0.6739 0.0
H1526 H 0.88124 0.37061 0.88417 0.0
H1527 H 0.85515 0.40442 0.91195 0.0
H1528 H 0.93202 0.44952 0.93069 0.0
H1529 H 0.95848 0.41566 0.90281 0.0
H1530 H 0.85715 0.42492 0.96678 0.0
H1531 H 0.91666 0.51921 0.92103 0.0
H1532 H 0.94445 0.53125 0.87948 0.0
H1533 H 0.89926 0.46919 0.83117 0.0
H1534 H 0.87095 0.45709 0.8723 0.0
H1535 H 0.83052 0.55715 0.03331 0.0
H1536 H 0.84597 0.51228 0.01454 0.0
H1537 H 0.80574 0.53091 0.93565 0.0
H1538 H 0.79065 0.57616 0.95405 0.0
H1539 H 0.85989 0.52169 0.92912 0.0
H1540 H 0.7846 0.47509 0.97583 0.0
H1541 H 0.75468 0.46273 0.01571 0.0
H1542 H 0.82613 0.42884 0.0591 0.0
H1543 H 0.85659 0.44134 0.01963 0.0
C1544 C 0.89272 0.38752 0.89444 0.0
C1545 C 0.92188 0.39078 0.89085 0.0
C1546 C 0.87777 0.40668 0.9105 0.0
C1547 C 0.89162 0.42956 0.92307 0.0
C1548 C 0.92096 0.43205 0.92091 0.0
C1549 C 0.93602 0.41273 0.90496 0.0
C1550 C 0.87496 0.45224 0.93586 0.0
C1551 C 0.85777 0.44614 0.95872 0.0
C1552 C 0.87532 0.47967 0.92481 0.0
C1553 C 0.89195 0.48704 0.89983 0.0
C1554 C 0.91262 0.50821 0.90151 0.0
C1555 C 0.92845 0.51504 0.87804 0.0
C1556 C 0.9237 0.50092 0.85273 0.0
C1557 C 0.903 0.48003 0.85081 0.0
C1558 C 0.88708 0.47316 0.8742 0.0
C1559 C 0.82414 0.55139 0.01224 0.0
C1560 C 0.80981 0.57052 0.99498 0.0
C1561 C 0.83298 0.52562 0.00155 0.0
C1562 C 0.82727 0.51839 0.9736 0.0
C1563 C 0.8106 0.53624 0.95722 0.0
C1564 C 0.8019 0.56207 0.96781 0.0
C1565 C 0.84206 0.49461 0.96035 0.0
C1566 C 0.85911 0.50052 0.93734 0.0
C1567 C 0.84121 0.46702 0.97112 0.0
C1568 C 0.82292 0.45937 0.99485 0.0
C1569 C 0.79399 0.4652 0.99397 0.0
C1570 C 0.77692 0.45813 0.01648 0.0
C1571 C 0.78851 0.44506 0.03995 0.0
C1572 C 0.81719 0.43897 0.04092 0.0
C1573 C 0.83435 0.44602 0.01846 0.0
H1574 H 0.77526 0.43961 0.05736 0.0
H1575 H 0.936 0.50622 0.8346 0.0
H1576 H 0.76507 0.64652 0.11945 0.0
H1577 H 0.7245 0.64653 0.15026 0.0
H1578 H 0.67814 0.69593 0.09025 0.0
H1579 H 0.71926 0.69727 0.06016 0.0
H1580 H 0.66974 0.7167 0.13718 0.0
H1581 H 0.66357 0.62372 0.10291 0.0
H1582 H 0.67968 0.57633 0.09012 0.0
H1583 H 0.69922 0.55937 0.17615 0.0
H1584 H 0.68361 0.60682 0.18943 0.0
H1585 H 0.55372 0.65363 0.23462 0.0
H1586 H 0.5843 0.64814 0.19411 0.0
H1587 H 0.64074 0.71111 0.22833 0.0
H1588 H 0.60996 0.71738 0.26812 0.0
H1589 H 0.63586 0.63219 0.18704 0.0
H1590 H 0.66877 0.75042 0.17951 0.0
H1591 H 0.64765 0.79686 0.18759 0.0
H1592 H 0.56515 0.76145 0.17566 0.0
H1593 H 0.58577 0.71489 0.16708 0.0
C1594 C 0.74613 0.65722 0.11282 0.0
C1595 C 0.74525 0.67196 0.08753 0.0
C1596 C 0.72287 0.65703 0.1303 0.0
C1597 C 0.69803 0.67084 0.12239 0.0
C1598 C 0.69704 0.68515 0.09684 0.0
C1599 C 0.72052 0.68592 0.07968 0.0
C1600 C 0.67381 0.67187 0.14159 0.0
C1601 C 0.66221 0.69815 0.14787 0.0
C1602 C 0.66327 0.64759 0.15495 0.0
C1603 C 0.67256 0.61893 0.14714 0.0
C1604 C 0.67146 0.60996 0.11909 0.0
C1605 C 0.68049 0.58307 0.11175 0.0
C1606 C 0.69051 0.56487 0.1323 0.0
C1607 C 0.69146 0.5735 0.16025 0.0
C1608 C 0.68249 0.60038 0.1677 0.0
C1609 C 0.57267 0.66626 0.23345 0.0
C1610 C 0.57932 0.68615 0.25435 0.0
C1611 C 0.5901 0.6631 0.21034 0.0
C1612 C 0.61447 0.67963 0.20793 0.0
C1613 C 0.62162 0.6987 0.22935 0.0
C1614 C 0.60407 0.70217 0.25216 0.0
C1615 C 0.63273 0.67709 0.18323 0.0
C1616 C 0.64316 0.6506 0.17596 0.0
C1617 C 0.6414 0.70101 0.16811 0.0
C1618 C 0.62885 0.7291 0.17284 0.0
C1619 C 0.64614 0.75256 0.17844 0.0
C1620 C 0.63424 0.77891 0.18315 0.0
C1621 C 0.60507 0.78209 0.1822 0.0
C1622 C 0.58773 0.75894 0.17646 0.0
C1623 C 0.59952 0.73256 0.1717 0.0
H1624 H 0.59591 0.80249 0.18588 0.0
H1625 H 0.69749 0.54406 0.12658 0.0
H1626 H 0.63754 0.39332 0.41929 0.0
H1627 H 0.61994 0.43772 0.40087 0.0
H1628 H 0.69157 0.48126 0.43665 0.0
H1629 H 0.70961 0.43682 0.45483 0.0
H1630 H 0.63743 0.5026 0.45229 0.0
H1631 H 0.68857 0.4776 0.36985 0.0
H1632 H 0.70263 0.44637 0.33128 0.0
H1633 H 0.61733 0.44306 0.30116 0.0
H1634 H 0.60267 0.47395 0.33981 0.0
H1635 H 0.59657 0.63572 0.4004 0.0
H1636 H 0.62281 0.59361 0.41297 0.0
H1637 H 0.56655 0.54327 0.36173 0.0
H1638 H 0.54104 0.5854 0.34819 0.0
H1639 H 0.61675 0.52641 0.35347 0.0
H1640 H 0.56351 0.54583 0.4356 0.0
H1641 H 0.54594 0.57413 0.47493 0.0
H1642 H 0.63016 0.58447 0.50666 0.0
H1643 H 0.64828 0.55651 0.46729 0.0
C1644 C 0.64985 0.41225 0.42276 0.0
C1645 C 0.67493 0.41159 0.43856 0.0
C1646 C 0.63979 0.43758 0.41219 0.0
C1647 C 0.65446 0.46271 0.41747 0.0
C1648 C 0.68 0.46203 0.43236 0.0
C1649 C 0.69034 0.43661 0.44257 0.0
C1650 C 0.64185 0.48984 0.40937 0.0
C1651 C 0.63338 0.50815 0.43067 0.0
C1652 C 0.6357 0.49641 0.38122 0.0
C1653 C 0.64449 0.47792 0.35788 0.0
C1654 C 0.67277 0.47003 0.35515 0.0
C1655 C 0.68085 0.45242 0.33324 0.0
C1656 C 0.66088 0.44269 0.31381 0.0
C1657 C 0.63278 0.4506 0.31623 0.0
C1658 C 0.62458 0.46819 0.33812 0.0
C1659 C 0.58972 0.61565 0.39195 0.0
C1660 C 0.56668 0.61388 0.37337 0.0
C1661 C 0.60469 0.59155 0.3992 0.0
C1662 C 0.5965 0.56512 0.38858 0.0
C1663 C 0.57339 0.56337 0.37014 0.0
C1664 C 0.55873 0.58749 0.36251 0.0
C1665 C 0.61203 0.53929 0.39644 0.0
C1666 C 0.621 0.52112 0.37512 0.0
C1667 C 0.61809 0.5325 0.42464 0.0
C1668 C 0.60728 0.54935 0.44832 0.0
C1669 C 0.5783 0.55433 0.45084 0.0
C1670 C 0.56825 0.57027 0.47316 0.0
C1671 C 0.58693 0.58117 0.49323 0.0
C1672 C 0.61572 0.57606 0.49107 0.0
C1673 C 0.62589 0.56016 0.46876 0.0
H1674 H 0.57911 0.5935 0.51051 0.0
H1675 H 0.66718 0.42906 0.29686 0.0
H1676 H 0.28942 0.42345 0.1562 0.0
H1677 H 0.32598 0.38964 0.1684 0.0
H1678 H 0.26446 0.32265 0.16539 0.0
H1679 H 0.22778 0.35637 0.15413 0.0
H1680 H 0.29478 0.31833 0.21077 0.0
H1681 H 0.31426 0.33353 0.11303 0.0
H1682 H 0.32548 0.3616 0.07143 0.0
H1683 H 0.4018 0.39067 0.11099 0.0
H1684 H 0.39084 0.36301 0.15298 0.0
H1685 H 0.37579 0.19846 0.17171 0.0
H1686 H 0.34733 0.24077 0.16866 0.0
H1687 H 0.40596 0.2847 0.22282 0.0
H1688 H 0.43452 0.24202 0.22657 0.0
H1689 H 0.38285 0.30553 0.15776 0.0
H1690 H 0.36131 0.28986 0.25654 0.0
H1691 H 0.34938 0.25934 0.29617 0.0
H1692 H 0.27717 0.22788 0.25109 0.0
H1693 H 0.28848 0.25866 0.21133 0.0
C1694 C 0.2838 0.40145 0.15778 0.0
C1695 C 0.25576 0.39252 0.15426 0.0
C1696 C 0.30469 0.38217 0.16478 0.0
C1697 C 0.29794 0.35361 0.16778 0.0
C1698 C 0.27009 0.34461 0.16342 0.0
C1699 C 0.24918 0.36388 0.15685 0.0
C1700 C 0.31954 0.33299 0.17615 0.0
C1701 C 0.31404 0.31566 0.19914 0.0
C1702 C 0.34501 0.32983 0.16145 0.0
C1703 C 0.35156 0.34649 0.13626 0.0
C1704 C 0.33331 0.3461 0.11294 0.0
C1705 C 0.33965 0.36189 0.08928 0.0
C1706 C 0.36429 0.37799 0.08861 0.0
C1707 C 0.38269 0.37825 0.11157 0.0
C1708 C 0.37643 0.36251 0.13529 0.0
C1709 C 0.38263 0.21705 0.18308 0.0
C1710 C 0.40747 0.21703 0.19922 0.0
C1711 C 0.36633 0.24112 0.18135 0.0
C1712 C 0.37473 0.26564 0.19544 0.0
C1713 C 0.3993 0.2658 0.21185 0.0
C1714 C 0.41547 0.24148 0.21398 0.0
C1715 C 0.35776 0.29104 0.19196 0.0
C1716 C 0.36396 0.30898 0.16976 0.0
C1717 C 0.33288 0.29471 0.20717 0.0
C1718 C 0.32586 0.27634 0.23096 0.0
C1719 C 0.34298 0.27632 0.25505 0.0
C1720 C 0.33629 0.25904 0.27755 0.0
C1721 C 0.31269 0.24147 0.27607 0.0
C1722 C 0.2955 0.24143 0.25219 0.0
C1723 C 0.30194 0.25891 0.22973 0.0
H1724 H 0.30767 0.22797 0.29345 0.0
H1725 H 0.36916 0.3902 0.07026 0.0
H1726 H 0.8622 0.27633 0.84159 0.0
H1727 H 0.82857 0.24158 0.85822 0.0
H1728 H 0.89571 0.18242 0.87094 0.0
H1729 H 0.92955 0.21691 0.85391 0.0
H1730 H 0.85217 0.15894 0.8439 0.0
H1731 H 0.86486 0.21395 0.92663 0.0
H1732 H 0.86773 0.25736 0.95483 0.0
H1733 H 0.78146 0.27528 0.93517 0.0
H1734 H 0.77817 0.23219 0.90649 0.0
H1735 H 0.75591 0.0617 0.8925 0.0
H1736 H 0.79488 0.09446 0.90038 0.0
H1737 H 0.74086 0.16374 0.87945 0.0
H1738 H 0.70165 0.13133 0.87199 0.0
H1739 H 0.7825 0.17894 0.91777 0.0
H1740 H 0.77327 0.13031 0.8284 0.0
H1741 H 0.76927 0.08777 0.79894 0.0
H1742 H 0.84894 0.05914 0.83022 0.0
H1743 H 0.85317 0.10134 0.86023 0.0
C1744 C 0.86988 0.25593 0.84792 0.0
C1745 C 0.89859 0.24938 0.84638 0.0
C1746 C 0.85063 0.2362 0.85767 0.0
C1747 C 0.85975 0.20964 0.86628 0.0
C1748 C 0.88832 0.20292 0.86457 0.0
C1749 C 0.90761 0.22262 0.85477 0.0
C1750 C 0.83911 0.1884 0.87547 0.0
C1751 C 0.8374 0.16304 0.86054 0.0
C1752 C 0.81953 0.19403 0.89682 0.0
C1753 C 0.82133 0.21989 0.91425 0.0
C1754 C 0.84655 0.22723 0.92816 0.0
C1755 C 0.84824 0.25178 0.94425 0.0
C1756 C 0.82481 0.26909 0.94675 0.0
C1757 C 0.7996 0.26185 0.93321 0.0
C1758 C 0.7978 0.23734 0.91706 0.0
C1759 C 0.75205 0.08398 0.89041 0.0
C1760 C 0.72591 0.09386 0.88079 0.0
C1761 C 0.77435 0.10265 0.89499 0.0
C1762 C 0.77084 0.13135 0.88977 0.0
C1763 C 0.74399 0.1416 0.88338 0.0
C1764 C 0.72164 0.12298 0.87894 0.0
C1765 C 0.79552 0.14981 0.88598 0.0
C1766 C 0.79783 0.17465 0.90171 0.0
C1767 C 0.81563 0.14386 0.86522 0.0
C1768 C 0.81337 0.11878 0.84679 0.0
C1769 C 0.78985 0.11485 0.82911 0.0
C1770 C 0.78754 0.09081 0.81232 0.0
C1771 C 0.80879 0.07071 0.81278 0.0
C1772 C 0.83246 0.07469 0.82995 0.0
C1773 C 0.83482 0.09865 0.84685 0.0
H1774 H 0.80696 0.0521 0.79978 0.0
H1775 H 0.82617 0.28809 0.95922 0.0
H1776 H 0.09755 0.54553 0.11221 0.0
H1777 H 0.05735 0.57688 0.11263 0.0
H1778 H 0.04805 0.56393 0.20121 0.0
H1779 H 0.089 0.53258 0.20104 0.0
H1780 H -0.00165 0.55395 0.16694 0.0
H1781 H 0.06524 0.62591 0.18472 0.0
H1782 H 0.11008 0.65138 0.17926 0.0
H1783 H 0.0883 0.6702 0.09417 0.0
H1784 H 0.04363 0.64431 0.09885 0.0
H1785 H 0.87936 0.63426 0.12008 0.0
H1786 H 0.91871 0.62122 0.15086 0.0
H1787 H 0.97537 0.62742 0.08129 0.0
H1788 H 0.93671 0.64111 0.05094 0.0
H1789 H -0.00078 0.64943 0.1262 0.0
H1790 H 0.94547 0.56355 0.10356 0.0
H1791 H 0.90273 0.53393 0.10422 0.0
H1792 H 0.9017 0.53872 0.19384 0.0
H1793 H 0.9443 0.56862 0.19363 0.0
C1794 C 0.08713 0.54952 0.13185 0.0
C1795 C 0.09618 0.53652 0.15656 0.0
C1796 C 0.06433 0.5676 0.13211 0.0
C1797 C 0.04997 0.57282 0.157 0.0
C1798 C 0.05911 0.56024 0.18188 0.0
C1799 C 0.0824 0.54245 0.18174 0.0
C1800 C 0.02399 0.58947 0.15575 0.0
C1801 C -0.00163 0.57523 0.15897 0.0
C1802 C 0.02427 0.61705 0.14508 0.0
C1803 C 0.05096 0.63316 0.1422 0.0
C1804 C 0.07004 0.63537 0.16479 0.0
C1805 C 0.09546 0.64987 0.16182 0.0
C1806 C 0.10201 0.66244 0.13639 0.0
C1807 C 0.08315 0.66054 0.11389 0.0
C1808 C 0.05775 0.64596 0.1167 0.0
C1809 C 0.90025 0.63283 0.11145 0.0
C1810 C 0.90494 0.63851 0.08306 0.0
C1811 C 0.92269 0.6255 0.12906 0.0
C1812 C 0.94997 0.62332 0.11836 0.0
C1813 C 0.95457 0.62928 0.09011 0.0
C1814 C 0.93237 0.63689 0.07269 0.0
C1815 C 0.97385 0.61312 0.13551 0.0
C1816 C -0.00097 0.62867 0.13539 0.0
C1817 C 0.9733 0.5865 0.14846 0.0
C1818 C 0.94776 0.56859 0.14856 0.0
C1819 C 0.93598 0.55843 0.12337 0.0
C1820 C 0.91182 0.54158 0.12367 0.0
C1821 C 0.89944 0.53454 0.14905 0.0
C1822 C 0.91126 0.54426 0.17419 0.0
C1823 C 0.9354 0.56116 0.174 0.0
H1824 H 0.88075 0.52148 0.14924 0.0
H1825 H 0.12174 0.67359 0.13411 0.0
H1826 H 0.7686 0.92926 0.41278 0.0
H1827 H 0.73091 0.90334 0.43667 0.0
H1828 H 0.68355 0.89915 0.35933 0.0
H1829 H 0.72121 0.92396 0.33544 0.0
H1830 H 0.65066 0.91022 0.41007 0.0
H1831 H 0.72675 0.84846 0.37225 0.0
H1832 H 0.7761 0.83282 0.3733 0.0
H1833 H 0.77 0.81604 0.46109 0.0
H1834 H 0.72071 0.83199 0.46058 0.0
H1835 H 0.58028 0.80392 0.34794 0.0
H1836 H 0.61082 0.84016 0.36721 0.0
H1837 H 0.62656 0.7896 0.44017 0.0
H1838 H 0.59586 0.75256 0.42067 0.0
H1839 H 0.67457 0.80942 0.41897 0.0
H1840 H 0.59201 0.85129 0.44912 0.0
H1841 H 0.54255 0.8663 0.44837 0.0
H1842 H 0.55945 0.92118 0.37966 0.0
H1843 H 0.6089 0.90622 0.37964 0.0
C1844 C 0.74982 0.92321 0.40118 0.0
C1845 C 0.74771 0.92823 0.37233 0.0
C1846 C 0.72841 0.90854 0.41479 0.0
C1847 C 0.70454 0.89948 0.39971 0.0
C1848 C 0.70176 0.90616 0.37132 0.0
C1849 C 0.72331 0.9201 0.35766 0.0
C1850 C 0.68387 0.8799 0.41167 0.0
C1851 C 0.65572 0.88821 0.41262 0.0
C1852 C 0.69081 0.8515 0.41632 0.0
C1853 C 0.72026 0.84173 0.41646 0.0
C1854 C 0.73603 0.84162 0.3918 0.0
C1855 C 0.76397 0.8327 0.3923 0.0
C1856 C 0.77623 0.82356 0.41729 0.0
C1857 C 0.76053 0.82323 0.44179 0.0
C1858 C 0.73261 0.83223 0.44141 0.0
C1859 C 0.58997 0.80043 0.3682 0.0
C1860 C 0.5857 0.77525 0.3827 0.0
C1861 C 0.60721 0.8214 0.37939 0.0
C1862 C 0.62049 0.81787 0.40544 0.0
C1863 C 0.6162 0.79287 0.4202 0.0
C1864 C 0.59874 0.77175 0.40899 0.0
C1865 C 0.641 0.83942 0.41511 0.0
C1866 C 0.66921 0.8315 0.4182 0.0
C1867 C 0.63405 0.86826 0.41461 0.0
C1868 C 0.6043 0.87765 0.41447 0.0
C1869 C 0.58519 0.86649 0.43376 0.0
C1870 C 0.55712 0.87499 0.43347 0.0
C1871 C 0.54787 0.89471 0.414 0.0
C1872 C 0.56667 0.90597 0.39479 0.0
C1873 C 0.59476 0.89754 0.39497 0.0
H1874 H 0.52613 0.90125 0.4138 0.0
H1875 H 0.79786 0.81665 0.41765 0.0
H1876 H 0.57788 0.33183 0.53095 0.0
H1877 H 0.53683 0.34688 0.55769 0.0
H1878 H 0.58424 0.41785 0.58979 0.0
H1879 H 0.62527 0.40236 0.56417 0.0
H1880 H 0.55886 0.39409 0.63059 0.0
H1881 H 0.53121 0.42287 0.53767 0.0
H1882 H 0.52061 0.41601 0.48753 0.0
H1883 H 0.45601 0.3563 0.50751 0.0
H1884 H 0.46647 0.36256 0.55779 0.0
H1885 H 0.45372 0.49141 0.67089 0.0
H1886 H 0.4921 0.46526 0.64958 0.0
H1887 H 0.438 0.39278 0.64019 0.0
H1888 H 0.39958 0.41857 0.66176 0.0
H1889 H 0.46404 0.41051 0.59014 0.0
H1890 H 0.4891 0.3876 0.68426 0.0
H1891 H 0.49962 0.39729 0.73395 0.0
H1892 H 0.56952 0.44936 0.7109 0.0
H1893 H 0.55918 0.44031 0.66103 0.0
C1894 C 0.57932 0.3508 0.54348 0.0
C1895 C 0.60474 0.36587 0.54561 0.0
C1896 C 0.5559 0.3594 0.55874 0.0
C1897 C 0.55743 0.38354 0.57579 0.0
C1898 C 0.5826 0.39902 0.57707 0.0
C1899 C 0.60601 0.39021 0.56229 0.0
C1900 C 0.53336 0.39258 0.59306 0.0
C1901 C 0.5382 0.39788 0.62164 0.0
C1902 C 0.50613 0.39672 0.58166 0.0
C1903 C 0.49985 0.39293 0.55145 0.0
C1904 C 0.5149 0.40811 0.53135 0.0
C1905 C 0.50889 0.40436 0.50291 0.0
C1906 C 0.48772 0.38566 0.49433 0.0
C1907 C 0.47245 0.37073 0.51418 0.0
C1908 C 0.47839 0.37438 0.54265 0.0
C1909 C 0.45015 0.46972 0.66485 0.0
C1910 C 0.42358 0.45712 0.66796 0.0
C1911 C 0.47209 0.45481 0.65269 0.0
C1912 C 0.46777 0.42716 0.64327 0.0
C1913 C 0.44167 0.41413 0.64732 0.0
C1914 C 0.41982 0.42888 0.65983 0.0
C1915 C 0.48992 0.41276 0.6273 0.0
C1916 C 0.48466 0.40637 0.59906 0.0
C1917 C 0.51686 0.408 0.63889 0.0
C1918 C 0.52322 0.41343 0.66888 0.0
C1919 C 0.50657 0.4013 0.68977 0.0
C1920 C 0.51254 0.40665 0.71797 0.0
C1921 C 0.53519 0.42397 0.72557 0.0
C1922 C 0.55197 0.43595 0.70498 0.0
C1923 C 0.54609 0.43069 0.67674 0.0
H1924 H 0.53977 0.42808 0.74742 0.0
H1925 H 0.48309 0.38279 0.4723 0.0
H1926 H 0.23183 0.57484 0.71273 0.0
H1927 H 0.19178 0.60667 0.70649 0.0
H1928 H 0.21723 0.6227 0.62189 0.0
H1929 H 0.25665 0.59049 0.62758 0.0
H1930 H 0.20486 0.67227 0.66781 0.0
H1931 H 0.16992 0.58847 0.61645 0.0
H1932 H 0.15856 0.5379 0.61429 0.0
H1933 H 0.10363 0.54698 0.68432 0.0
H1934 H 0.11502 0.59756 0.6871 0.0
H1935 H 0.10134 0.75682 0.61028 0.0
H1936 H 0.13611 0.71964 0.6153 0.0
H1937 H 0.08176 0.67644 0.67278 0.0
H1938 H 0.04625 0.71286 0.66652 0.0
H1939 H 0.10816 0.63935 0.64448 0.0
H1940 H 0.13678 0.72072 0.69547 0.0
H1941 H 0.14749 0.77087 0.70338 0.0
H1942 H 0.21366 0.76686 0.64323 0.0
H1943 H 0.20307 0.71676 0.63464 0.0
C1944 C 0.2288 0.58512 0.69281 0.0
C1945 C 0.24727 0.58016 0.67062 0.0
C1946 C 0.20596 0.60316 0.68928 0.0
C1947 C 0.20167 0.61678 0.66371 0.0
C1948 C 0.22025 0.61218 0.6417 0.0
C1949 C 0.24267 0.59376 0.64499 0.0
C1950 C 0.17819 0.63643 0.65994 0.0
C1951 C 0.18374 0.66522 0.66244 0.0
C1952 C 0.15058 0.62695 0.65406 0.0
C1953 C 0.1436 0.59666 0.65221 0.0
C1954 C 0.15567 0.57961 0.63156 0.0
C1955 C 0.14916 0.55097 0.63018 0.0
C1956 C 0.13046 0.53921 0.64922 0.0
C1957 C 0.11815 0.5561 0.66962 0.0
C1958 C 0.12461 0.58475 0.6711 0.0
C1959 C 0.09663 0.73909 0.62354 0.0
C1960 C 0.07126 0.73776 0.63817 0.0
C1961 C 0.11657 0.71798 0.6266 0.0
C1962 C 0.11195 0.69569 0.64513 0.0
C1963 C 0.08591 0.69351 0.65853 0.0
C1964 C 0.06562 0.71431 0.65491 0.0
C1965 C 0.13481 0.67559 0.65156 0.0
C1966 C 0.12919 0.64664 0.64983 0.0
C1967 C 0.16229 0.68496 0.65893 0.0
C1968 C 0.16896 0.71503 0.66424 0.0
C1969 C 0.1535 0.73057 0.6838 0.0
C1970 C 0.15956 0.75898 0.68842 0.0
C1971 C 0.1812 0.77206 0.67377 0.0
C1972 C 0.19688 0.75671 0.65454 0.0
C1973 C 0.19088 0.7283 0.64981 0.0
H1974 H 0.18585 0.79406 0.67737 0.0
H1975 H 0.12545 0.51704 0.64811 0.0
H1976 H 0.43357 0.84718 0.92392 0.0
H1977 H 0.46633 0.86656 0.89003 0.0
H1978 H 0.40436 0.92723 0.86466 0.0
H1979 H 0.37153 0.90826 0.89868 0.0
H1980 H 0.46159 0.86994 0.833 0.0
H1981 H 0.43937 0.98766 0.84624 0.0
H1982 H 0.42295 0.02107 0.88204 0.0
H1983 H 0.45454 0.96755 0.9469 0.0
H1984 H 0.47143 0.93403 0.91149 0.0
H1985 H 0.55155 0.00014 0.77778 0.0
H1986 H 0.50621 0.97689 0.78542 0.0
H1987 H 0.54956 0.90408 0.81688 0.0
H1988 H 0.59443 0.92701 0.80855 0.0
H1989 H 0.49384 0.96904 0.83716 0.0
H1990 H 0.50913 0.84806 0.82343 0.0
H1991 H 0.52737 0.81515 0.7882 0.0
H1992 H 0.51201 0.8755 0.72364 0.0
H1993 H 0.49328 0.90864 0.75838 0.0
C1994 C 0.42698 0.86486 0.9114 0.0
C1995 C 0.39992 0.87622 0.91415 0.0
C1996 C 0.44565 0.87573 0.89184 0.0
C1997 C 0.43775 0.89827 0.87478 0.0
C1998 C 0.41094 0.90993 0.87772 0.0
C1999 C 0.39224 0.89908 0.89727 0.0
C2000 C 0.45779 0.90969 0.85419 0.0
C2001 C 0.46881 0.89157 0.83388 0.0
C2002 C 0.46628 0.93818 0.8547 0.0
C2003 C 0.45629 0.95818 0.87622 0.0
C2004 C 0.44281 0.98306 0.86815 0.0
C2005 C 0.43344 0.00201 0.88836 0.0
C2006 C 0.43759 0.99638 0.91673 0.0
C2007 C 0.45121 0.97182 0.92493 0.0
C2008 C 0.46065 0.95282 0.90479 0.0
C2009 C 0.55126 0.97845 0.78446 0.0
C2010 C 0.5763 0.96515 0.79232 0.0
C2011 C 0.52538 0.96529 0.7892 0.0
C2012 C 0.52437 0.93879 0.80196 0.0
C2013 C 0.54958 0.92427 0.8066 0.0
C2014 C 0.57535 0.93736 0.80175 0.0
C2015 C 0.49844 0.92914 0.81616 0.0
C2016 C 0.48623 0.94757 0.83552 0.0
C2017 C 0.48897 0.90093 0.81474 0.0
C2018 C 0.49989 0.88093 0.7936 0.0
C2019 C 0.50944 0.85427 0.8017 0.0
C2020 C 0.51993 0.83557 0.78181 0.0
C2021 C 0.5209 0.84325 0.75371 0.0
C2022 C 0.51133 0.86961 0.74543 0.0
C2023 C 0.50081 0.88838 0.76523 0.0
H2024 H 0.52904 0.82875 0.73835 0.0
H2025 H 0.43032 0.01108 0.93235 0.0
H2026 H 0.89221 0.06299 0.28122 0.0
H2027 H 0.93871 0.08447 0.28519 0.0
H2028 H 0.97612 0.00803 0.2547 0.0
H2029 H 0.92959 0.98622 0.25177 0.0
H2030 H 0.99195 0.01692 0.30531 0.0
H2031 H 0.99191 0.0727 0.22464 0.0
H2032 H 0.9737 0.10484 0.18867 0.0
H2033 H 0.96542 0.16999 0.25033 0.0
H2034 H 0.98317 0.13815 0.28678 0.0
H2035 H 0.10928 0.12627 0.34986 0.0
H2036 H 0.08072 0.10352 0.31346 0.0
H2037 H 0.02238 0.07521 0.37587 0.0
H2038 H 0.05115 0.09717 0.41243 0.0
H2039 H 0.02888 0.11402 0.29722 0.0
H2040 H 0.99256 0.01502 0.35838 0.0
H2041 H 0.01182 0.98267 0.39364 0.0
H2042 H 0.09565 0.00188 0.36716 0.0
H2043 H 0.07691 0.03398 0.33139 0.0
C2044 C 0.91021 0.05136 0.27387 0.0
C2045 C 0.90757 0.02292 0.26664 0.0
C2046 C 0.93688 0.06365 0.27612 0.0
C2047 C 0.961 0.04767 0.27067 0.0
C2048 C 0.95784 0.02061 0.25929 0.0
C2049 C 0.93127 0.00821 0.25751 0.0
C2050 C 0.98825 0.05627 0.28344 0.0
C2051 C 0.00035 0.038 0.30309 0.0
C2052 C -0.00047 0.08357 0.28032 0.0
C2053 C 0.98885 0.10295 0.2585 0.0
C2054 C 0.98604 0.09382 0.23059 0.0
C2055 C 0.97582 0.112 0.21009 0.0
C2056 C 0.9684 0.13943 0.21721 0.0
C2057 C 0.97121 0.14874 0.24484 0.0
C2058 C 0.98142 0.13064 0.26542 0.0
C2059 C 0.09053 0.11491 0.35589 0.0
C2060 C 0.08244 0.11355 0.38406 0.0
C2061 C 0.07423 0.102 0.33503 0.0
C2062 C 0.0496 0.08749 0.34197 0.0
C2063 C 0.04163 0.08584 0.37009 0.0
C2064 C 0.05803 0.09852 0.39098 0.0
C2065 C 0.03133 0.07513 0.31986 0.0
C2066 C 0.02098 0.09269 0.29868 0.0
C2067 C 0.02183 0.04701 0.32129 0.0
C2068 C 0.03329 0.02702 0.34221 0.0
C2069 C 0.01509 0.01216 0.35987 0.0
C2070 C 0.02592 0.99391 0.38001 0.0
C2071 C 0.05494 0.99026 0.38266 0.0
C2072 C 0.07318 0.00477 0.36511 0.0
C2073 C 0.06246 0.023 0.3449 0.0
H2074 H 0.06327 0.97617 0.39831 0.0
H2075 H 0.96048 0.15347 0.20131 0.0
loop_
_geom_bond_atom_site_label_1
_geom_bond_atom_site_label_2
_geom_bond_distance
_geom_bond_site_symmetry_2
_ccdc_geom_bond_type
O0 Zn1 1.953 . S
O0 C16 1.225 . S
Zn1 O0 1.953 . S
Zn1 O2 1.949 . S
Zn1 O8 1.919 . S
Zn1 O13 1.924 . S
O2 Zn1 1.949 . S
O2 Zn3 1.923 . S
O2 Zn4 1.950 . S
O2 Zn5 1.945 . S
Zn3 O2 1.923 . S
Zn3 O6 1.933 . S
Zn3 O9 1.941 . S
Zn3 O10 1.965 . S
Zn4 O2 1.950 . S
Zn4 O11 1.938 . S
Zn4 O12 1.906 . S
Zn4 O22 1.953 . S
Zn5 O2 1.945 . S
Zn5 O7 1.932 . S
Zn5 O14 1.977 . S
Zn5 O15 1.910 . S
O6 Zn3 1.933 . S
O6 C17 1.226 . S
O7 Zn5 1.932 . S
O7 C17 1.307 . S
O8 Zn1 1.919 . S
O8 C19 1.253 . S
O9 Zn3 1.941 . S
O9 C19 1.283 . S
O10 Zn3 1.965 . S
O10 C18 1.303 . S
O11 Zn4 1.938 . S
O11 C18 1.247 . S
O12 Zn4 1.906 . S
O12 C20 1.304 . S
O13 Zn1 1.924 . S
O13 C21 1.311 . S
O14 Zn5 1.977 . S
O14 C20 1.272 . S
O15 Zn5 1.910 . S
O15 C21 1.231 . S
C16 O0 1.225 . S
C16 O22 1.298 . S
C17 O6 1.226 . S
C17 O7 1.307 . S
C18 O10 1.303 . S
C18 O11 1.247 . S
C19 O8 1.253 . S
C19 O9 1.283 . S
C20 O12 1.304 . S
C20 O14 1.272 . S
C21 O13 1.311 . S
C21 O15 1.231 . S
O22 Zn4 1.953 . S
O22 C16 1.298 . S
O23 Zn24 1.953 . S
O23 C39 1.225 . S
Zn24 O23 1.953 . S
Zn24 O25 1.949 . S
Zn24 O31 1.919 . S
Zn24 O36 1.924 . S
O25 Zn24 1.949 . S
O25 Zn26 1.923 . S
O25 Zn27 1.950 . S
O25 Zn28 1.945 . S
Zn26 O25 1.923 . S
Zn26 O29 1.933 . S
Zn26 O32 1.941 . S
Zn26 O33 1.965 . S
Zn27 O25 1.950 . S
Zn27 O34 1.938 . S
Zn27 O35 1.906 . S
Zn27 O45 1.953 . S
Zn28 O25 1.945 . S
Zn28 O30 1.932 1_455 S
Zn28 O37 1.977 . S
Zn28 O38 1.910 1_455 S
O29 Zn26 1.933 . S
O29 C40 1.226 1_455 S
O30 Zn28 1.932 1_655 S
O30 C40 1.307 . S
O31 Zn24 1.919 . S
O31 C42 1.253 . S
O32 Zn26 1.941 . S
O32 C42 1.283 . S
O33 Zn26 1.965 . S
O33 C41 1.303 . S
O34 Zn27 1.938 . S
O34 C41 1.247 . S
O35 Zn27 1.906 . S
O35 C43 1.304 . S
O36 Zn24 1.924 . S
O36 C44 1.311 1_455 S
O37 Zn28 1.977 . S
O37 C43 1.272 . S
O38 Zn28 1.910 1_655 S
O38 C44 1.231 . S
C39 O23 1.225 . S
C39 O45 1.298 . S
C40 O29 1.226 1_655 S
C40 O30 1.307 . S
C41 O33 1.303 . S
C41 O34 1.247 . S
C42 O31 1.253 . S
C42 O32 1.283 . S
C43 O35 1.304 . S
C43 O37 1.272 . S
C44 O36 1.311 1_655 S
C44 O38 1.231 . S
O45 Zn27 1.953 . S
O45 C39 1.298 . S
O46 Zn47 1.953 . S
O46 C62 1.225 . S
Zn47 O46 1.953 . S
Zn47 O48 1.949 . S
Zn47 O54 1.919 . S
Zn47 O59 1.924 . S
O48 Zn47 1.949 . S
O48 Zn49 1.923 . S
O48 Zn50 1.950 . S
O48 Zn51 1.945 . S
Zn49 O48 1.923 . S
Zn49 O52 1.933 1_556 S
Zn49 O55 1.941 1_556 S
Zn49 O56 1.965 1_556 S
Zn50 O48 1.950 . S
Zn50 O57 1.938 . S
Zn50 O58 1.906 . S
Zn50 O68 1.953 . S
Zn51 O48 1.945 . S
Zn51 O53 1.932 . S
Zn51 O60 1.977 . S
Zn51 O61 1.910 . S
O52 Zn49 1.933 1_554 S
O52 C63 1.226 1_554 S
O53 Zn51 1.932 . S
O53 C63 1.307 . S
O54 Zn47 1.919 . S
O54 C65 1.253 1_556 S
O55 Zn49 1.941 1_554 S
O55 C65 1.283 . S
O56 Zn49 1.965 1_554 S
O56 C64 1.303 1_554 S
O57 Zn50 1.938 . S
O57 C64 1.247 . S
O58 Zn50 1.906 . S
O58 C66 1.304 . S
O59 Zn47 1.924 . S
O59 C67 1.311 . S
O60 Zn51 1.977 . S
O60 C66 1.272 . S
O61 Zn51 1.910 . S
O61 C67 1.231 . S
C62 O46 1.225 . S
C62 O68 1.298 . S
C63 O52 1.226 1_556 S
C63 O53 1.307 . S
C64 O56 1.303 1_556 S
C64 O57 1.247 . S
C65 O54 1.253 1_554 S
C65 O55 1.283 . S
C66 O58 1.304 . S
C66 O60 1.272 . S
C67 O59 1.311 . S
C67 O61 1.231 . S
O68 Zn50 1.953 . S
O68 C62 1.298 . S
O69 Zn70 1.953 . S
O69 C85 1.225 . S
Zn70 O69 1.953 . S
Zn70 O71 1.949 . S
Zn70 O77 1.919 . S
Zn70 O82 1.924 . S
O71 Zn70 1.949 . S
O71 Zn72 1.923 . S
O71 Zn73 1.950 . S
O71 Zn74 1.945 . S
Zn72 O71 1.923 . S
Zn72 O75 1.933 . S
Zn72 O78 1.941 . S
Zn72 O79 1.965 . S
Zn73 O71 1.950 . S
Zn73 O80 1.938 . S
Zn73 O81 1.906 . S
Zn73 O91 1.953 . S
Zn74 O71 1.945 . S
Zn74 O76 1.932 . S
Zn74 O83 1.977 . S
Zn74 O84 1.910 . S
O75 Zn72 1.933 . S
O75 C86 1.226 . S
O76 Zn74 1.932 . S
O76 C86 1.307 . S
O77 Zn70 1.919 . S
O77 C88 1.253 . S
O78 Zn72 1.941 . S
O78 C88 1.283 . S
O79 Zn72 1.965 . S
O79 C87 1.303 . S
O80 Zn73 1.938 . S
O80 C87 1.247 . S
O81 Zn73 1.906 . S
O81 C89 1.304 . S
O82 Zn70 1.924 . S
O82 C90 1.311 . S
O83 Zn74 1.977 . S
O83 C89 1.272 . S
O84 Zn74 1.910 . S
O84 C90 1.231 . S
C85 O69 1.225 . S
C85 O91 1.298 . S
C86 O75 1.226 . S
C86 O76 1.307 . S
C87 O79 1.303 . S
C87 O80 1.247 . S
C88 O77 1.253 . S
C88 O78 1.283 . S
C89 O81 1.304 . S
C89 O83 1.272 . S
C90 O82 1.311 . S
C90 O84 1.231 . S
O91 Zn73 1.953 . S
O91 C85 1.298 . S
O92 Zn93 1.953 . S
O92 C108 1.225 . S
Zn93 O92 1.953 . S
Zn93 O94 1.949 . S
Zn93 O100 1.919 . S
Zn93 O105 1.924 . S
O94 Zn93 1.949 . S
O94 Zn95 1.923 . S
O94 Zn96 1.950 . S
O94 Zn97 1.945 . S
Zn95 O94 1.923 . S
Zn95 O98 1.933 . S
Zn95 O101 1.941 . S
Zn95 O102 1.965 . S
Zn96 O94 1.950 . S
Zn96 O103 1.938 . S
Zn96 O104 1.906 . S
Zn96 O114 1.953 . S
Zn97 O94 1.945 . S
Zn97 O99 1.932 . S
Zn97 O106 1.977 . S
Zn97 O107 1.910 . S
O98 Zn95 1.933 . S
O98 C109 1.226 . S
O99 Zn97 1.932 . S
O99 C109 1.307 . S
O100 Zn93 1.919 . S
O100 C111 1.253 . S
O101 Zn95 1.941 . S
O101 C111 1.283 . S
O102 Zn95 1.965 . S
O102 C110 1.303 . S
O103 Zn96 1.938 . S
O103 C110 1.247 . S
O104 Zn96 1.906 . S
O104 C112 1.304 . S
O105 Zn93 1.924 . S
O105 C113 1.311 . S
O106 Zn97 1.977 . S
O106 C112 1.272 . S
O107 Zn97 1.910 . S
O107 C113 1.231 . S
C108 O92 1.225 . S
C108 O114 1.298 . S
C109 O98 1.226 . S
C109 O99 1.307 . S
C110 O102 1.303 . S
C110 O103 1.247 . S
C111 O100 1.253 . S
C111 O101 1.283 . S
C112 O104 1.304 . S
C112 O106 1.272 . S
C113 O105 1.311 . S
C113 O107 1.231 . S
O114 Zn96 1.953 . S
O114 C108 1.298 . S
O115 Zn116 1.953 . S
O115 C131 1.225 . S
Zn116 O115 1.953 . S
Zn116 O117 1.949 . S
Zn116 O123 1.919 . S
Zn116 O128 1.924 . S
O117 Zn116 1.949 . S
O117 Zn118 1.923 . S
O117 Zn119 1.950 . S
O117 Zn120 1.945 . S
Zn118 O117 1.923 . S
Zn118 O121 1.933 . S
Zn118 O124 1.941 . S
Zn118 O125 1.965 . S
Zn119 O117 1.950 . S
Zn119 O126 1.938 . S
Zn119 O127 1.906 . S
Zn119 O137 1.953 . S
Zn120 O117 1.945 . S
Zn120 O122 1.918 1_655 S
Zn120 O129 1.977 . S
Zn120 O130 1.909 1_655 S
O121 Zn118 1.933 . S
O121 C132 1.225 . S
O122 Zn120 1.918 1_455 S
O122 C132 1.307 1_455 S
O123 Zn116 1.919 . S
O123 C134 1.253 . S
O124 Zn118 1.941 . S
O124 C134 1.283 . S
O125 Zn118 1.965 . S
O125 C133 1.303 . S
O126 Zn119 1.938 . S
O126 C133 1.247 . S
O127 Zn119 1.906 . S
O127 C135 1.304 . S
O128 Zn116 1.924 . S
O128 C136 1.321 . S
O129 Zn120 1.977 . S
O129 C135 1.272 . S
O130 Zn120 1.909 1_455 S
O130 C136 1.230 1_455 S
C131 O115 1.225 . S
C131 O137 1.298 . S
C132 O121 1.225 . S
C132 O122 1.307 1_655 S
C133 O125 1.303 . S
C133 O126 1.247 . S
C134 O123 1.253 . S
C134 O124 1.283 . S
C135 O127 1.304 . S
C135 O129 1.272 . S
C136 O128 1.321 . S
C136 O130 1.230 1_655 S
O137 Zn119 1.953 . S
O137 C131 1.298 . S
O138 Zn139 1.953 . S
O138 C154 1.225 . S
Zn139 O138 1.953 . S
Zn139 O140 1.949 . S
Zn139 O146 1.919 . S
Zn139 O151 1.924 . S
O140 Zn139 1.949 . S
O140 Zn141 1.923 . S
O140 Zn142 1.950 . S
O140 Zn143 1.945 . S
Zn141 O140 1.923 . S
Zn141 O144 1.933 1_554 S
Zn141 O147 1.941 1_554 S
Zn141 O148 1.965 1_554 S
Zn142 O140 1.950 . S
Zn142 O149 1.938 . S
Zn142 O150 1.906 . S
Zn142 O160 1.953 . S
Zn143 O140 1.945 . S
Zn143 O145 1.932 . S
Zn143 O152 1.977 . S
Zn143 O153 1.910 . S
O144 Zn141 1.933 1_556 S
O144 C155 1.226 1_556 S
O145 Zn143 1.932 . S
O145 C155 1.307 . S
O146 Zn139 1.919 . S
O146 C157 1.253 1_554 S
O147 Zn141 1.941 1_556 S
O147 C157 1.283 . S
O148 Zn141 1.965 1_556 S
O148 C156 1.303 . S
O149 Zn142 1.938 . S
O149 C156 1.247 1_554 S
O150 Zn142 1.906 . S
O150 C158 1.304 . S
O151 Zn139 1.924 . S
O151 C159 1.311 . S
O152 Zn143 1.977 . S
O152 C158 1.272 . S
O153 Zn143 1.910 . S
O153 C159 1.231 . S
C154 O138 1.225 . S
C154 O160 1.298 . S
C155 O144 1.226 1_554 S
C155 O145 1.307 . S
C156 O148 1.303 . S
C156 O149 1.247 1_556 S
C157 O146 1.253 1_556 S
C157 O147 1.283 . S
C158 O150 1.304 . S
C158 O152 1.272 . S
C159 O151 1.311 . S
C159 O153 1.231 . S
O160 Zn142 1.953 . S
O160 C154 1.298 . S
O161 Zn162 1.953 . S
O161 C177 1.225 . S
Zn162 O161 1.953 . S
Zn162 O163 1.949 . S
Zn162 O169 1.919 . S
Zn162 O174 1.924 . S
O163 Zn162 1.949 . S
O163 Zn164 1.923 . S
O163 Zn165 1.950 . S
O163 Zn166 1.945 . S
Zn164 O163 1.923 . S
Zn164 O167 1.933 . S
Zn164 O170 1.941 . S
Zn164 O171 1.965 . S
Zn165 O163 1.950 . S
Zn165 O172 1.938 . S
Zn165 O173 1.906 . S
Zn165 O183 1.953 . S
Zn166 O163 1.945 . S
Zn166 O168 1.932 . S
Zn166 O175 1.977 . S
Zn166 O176 1.910 . S
O167 Zn164 1.933 . S
O167 C178 1.226 . S
O168 Zn166 1.932 . S
O168 C178 1.307 . S
O169 Zn162 1.919 . S
O169 C180 1.253 . S
O170 Zn164 1.941 . S
O170 C180 1.283 . S
O171 Zn164 1.965 . S
O171 C179 1.303 . S
O172 Zn165 1.938 . S
O172 C179 1.247 . S
O173 Zn165 1.906 . S
O173 C181 1.304 . S
O174 Zn162 1.924 . S
O174 C182 1.311 . S
O175 Zn166 1.977 . S
O175 C181 1.272 . S
O176 Zn166 1.910 . S
O176 C182 1.231 . S
C177 O161 1.225 . S
C177 O183 1.298 . S
C178 O167 1.226 . S
C178 O168 1.307 . S
C179 O171 1.303 . S
C179 O172 1.247 . S
C180 O169 1.253 . S
C180 O170 1.283 . S
C181 O173 1.304 . S
C181 O175 1.272 . S
C182 O174 1.311 . S
C182 O176 1.231 . S
O183 Zn165 1.953 . S
O183 C177 1.298 . S
O184 Zn185 1.953 . S
O184 C200 1.225 . S
Zn185 O184 1.953 . S
Zn185 O186 1.949 . S
Zn185 O192 1.919 . S
Zn185 O197 1.924 . S
O186 Zn185 1.949 . S
O186 Zn187 1.923 . S
O186 Zn188 1.950 . S
O186 Zn189 1.945 . S
Zn187 O186 1.923 . S
Zn187 O190 1.933 . S
Zn187 O193 1.941 . S
Zn187 O194 1.965 . S
Zn188 O186 1.950 . S
Zn188 O195 1.938 . S
Zn188 O196 1.906 . S
Zn188 O206 1.953 . S
Zn189 O186 1.945 . S
Zn189 O191 1.932 . S
Zn189 O198 1.977 . S
Zn189 O199 1.910 . S
O190 Zn187 1.933 . S
O190 C201 1.226 . S
O191 Zn189 1.932 . S
O191 C201 1.307 . S
O192 Zn185 1.919 . S
O192 C203 1.253 . S
O193 Zn187 1.941 . S
O193 C203 1.283 . S
O194 Zn187 1.965 . S
O194 C202 1.303 . S
O195 Zn188 1.938 . S
O195 C202 1.247 . S
O196 Zn188 1.906 . S
O196 C204 1.304 . S
O197 Zn185 1.924 . S
O197 C205 1.311 . S
O198 Zn189 1.977 . S
O198 C204 1.272 . S
O199 Zn189 1.910 . S
O199 C205 1.231 . S
C200 O184 1.225 . S
C200 O206 1.298 . S
C201 O190 1.226 . S
C201 O191 1.307 . S
C202 O194 1.303 . S
C202 O195 1.247 . S
C203 O192 1.253 . S
C203 O193 1.283 . S
C204 O196 1.304 . S
C204 O198 1.272 . S
C205 O197 1.311 . S
C205 O199 1.231 . S
O206 Zn188 1.953 . S
O206 C200 1.298 . S
O207 Zn208 1.953 . S
O207 C223 1.225 . S
Zn208 O207 1.953 . S
Zn208 O209 1.949 . S
Zn208 O215 1.919 . S
Zn208 O220 1.924 . S
O209 Zn208 1.949 . S
O209 Zn210 1.923 . S
O209 Zn211 1.950 . S
O209 Zn212 1.945 . S
Zn210 O209 1.923 . S
Zn210 O213 1.933 . S
Zn210 O216 1.941 . S
Zn210 O217 1.965 . S
Zn211 O209 1.950 . S
Zn211 O218 1.938 . S
Zn211 O219 1.906 . S
Zn211 O229 1.953 . S
Zn212 O209 1.945 . S
Zn212 O214 1.932 . S
Zn212 O221 1.993 . S
Zn212 O222 1.910 . S
O213 Zn210 1.933 . S
O213 C224 1.226 . S
O214 Zn212 1.932 . S
O214 C224 1.307 . S
O215 Zn208 1.919 . S
O215 C226 1.253 . S
O216 Zn210 1.941 . S
O216 C226 1.283 . S
O217 Zn210 1.965 . S
O217 C225 1.303 . S
O218 Zn211 1.938 . S
O218 C225 1.247 . S
O219 Zn211 1.906 . S
O219 C227 1.304 1_545 S
O220 Zn208 1.924 . S
O220 C228 1.310 . S
O221 Zn212 1.993 . S
O221 C227 1.269 1_545 S
O222 Zn212 1.910 . S
O222 C228 1.231 . S
C223 O207 1.225 . S
C223 O229 1.298 . S
C224 O213 1.226 . S
C224 O214 1.307 . S
C225 O217 1.303 . S
C225 O218 1.247 . S
C226 O215 1.253 . S
C226 O216 1.283 . S
C227 O219 1.304 1_565 S
C227 O221 1.269 1_565 S
C228 O220 1.310 . S
C228 O222 1.231 . S
O229 Zn211 1.953 . S
O229 C223 1.298 . S
O230 Zn231 1.953 . S
O230 C246 1.225 . S
Zn231 O230 1.953 . S
Zn231 O232 1.949 . S
Zn231 O238 1.919 . S
Zn231 O243 1.924 . S
O232 Zn231 1.949 . S
O232 Zn233 1.923 . S
O232 Zn234 1.950 . S
O232 Zn235 1.945 . S
Zn233 O232 1.923 . S
Zn233 O236 1.933 1_565 S
Zn233 O239 1.941 1_565 S
Zn233 O240 1.965 1_565 S
Zn234 O232 1.950 . S
Zn234 O241 1.938 . S
Zn234 O242 1.906 . S
Zn234 O252 1.953 . S
Zn235 O232 1.945 . S
Zn235 O237 1.932 . S
Zn235 O244 1.977 . S
Zn235 O245 1.910 . S
O236 Zn233 1.933 1_545 S
O236 C247 1.226 1_545 S
O237 Zn235 1.932 . S
O237 C247 1.307 . S
O238 Zn231 1.919 . S
O238 C249 1.253 1_565 S
O239 Zn233 1.941 1_545 S
O239 C249 1.283 . S
O240 Zn233 1.965 1_545 S
O240 C248 1.303 1_545 S
O241 Zn234 1.938 . S
O241 C248 1.247 . S
O242 Zn234 1.906 . S
O242 C250 1.304 . S
O243 Zn231 1.924 . S
O243 C251 1.311 . S
O244 Zn235 1.977 . S
O244 C250 1.272 . S
O245 Zn235 1.910 . S
O245 C251 1.231 . S
C246 O230 1.225 . S
C246 O252 1.298 . S
C247 O236 1.226 1_565 S
C247 O237 1.307 . S
C248 O240 1.303 1_565 S
C248 O241 1.247 . S
C249 O238 1.253 1_545 S
C249 O239 1.283 . S
C250 O242 1.304 . S
C250 O244 1.272 . S
C251 O243 1.311 . S
C251 O245 1.231 . S
O252 Zn234 1.953 . S
O252 C246 1.298 . S
O253 Zn254 1.953 . S
O253 C269 1.225 . S
Zn254 O253 1.953 . S
Zn254 O255 1.949 . S
Zn254 O261 1.919 . S
Zn254 O266 1.924 . S
O255 Zn254 1.949 . S
O255 Zn256 1.923 . S
O255 Zn257 1.950 . S
O255 Zn258 1.945 . S
Zn256 O255 1.923 . S
Zn256 O259 1.933 . S
Zn256 O262 1.941 . S
Zn256 O263 1.965 . S
Zn257 O255 1.950 . S
Zn257 O264 1.938 . S
Zn257 O265 1.906 . S
Zn257 O275 1.953 . S
Zn258 O255 1.945 . S
Zn258 O260 1.932 . S
Zn258 O267 1.977 . S
Zn258 O268 1.910 . S
O259 Zn256 1.933 . S
O259 C270 1.226 . S
O260 Zn258 1.932 . S
O260 C270 1.307 . S
O261 Zn254 1.919 . S
O261 C272 1.253 . S
O262 Zn256 1.941 . S
O262 C272 1.283 . S
O263 Zn256 1.965 . S
O263 C271 1.303 . S
O264 Zn257 1.938 . S
O264 C271 1.247 . S
O265 Zn257 1.906 . S
O265 C273 1.304 . S
O266 Zn254 1.924 . S
O266 C274 1.311 . S
O267 Zn258 1.977 . S
O267 C273 1.272 . S
O268 Zn258 1.910 . S
O268 C274 1.231 . S
C269 O253 1.225 . S
C269 O275 1.298 . S
C270 O259 1.226 . S
C270 O260 1.307 . S
C271 O263 1.303 . S
C271 O264 1.247 . S
C272 O261 1.253 . S
C272 O262 1.283 . S
C273 O265 1.304 . S
C273 O267 1.272 . S
C274 O266 1.311 . S
C274 O268 1.231 . S
O275 Zn257 1.953 . S
O275 C269 1.298 . S
H276 C294 0.951 . S
H277 C296 0.951 . S
H278 C298 0.950 . S
H279 C299 0.950 . S
H280 C301 0.950 . S
H281 C304 0.950 . S
H282 C305 0.950 . S
H283 C307 0.950 . S
H284 C308 0.950 . S
H285 C309 0.951 . S
H286 C311 0.951 . S
H287 C313 0.950 . S
H288 C314 0.950 . S
H289 C316 0.950 . S
H290 C319 0.950 . S
H291 C320 0.950 . S
H292 C322 0.950 . S
H293 C323 0.950 . S
C294 H276 0.951 . S
C294 C295 1.366 . S
C294 C296 1.388 . S
C295 C294 1.366 . S
C295 C299 1.385 . S
C296 H277 0.951 . S
C296 C294 1.388 . S
C296 C297 1.366 . S
C297 C296 1.366 . S
C297 C298 1.414 . S
C297 C300 1.499 . S
C298 H278 0.950 . S
C298 C297 1.414 . S
C298 C299 1.374 . S
C299 H279 0.950 . S
C299 C295 1.385 . S
C299 C298 1.374 . S
C300 C297 1.499 . S
C300 C301 1.373 . S
C300 C302 1.389 . S
C301 H280 0.950 . S
C301 C300 1.373 . S
C301 C317 1.377 . S
C302 C300 1.389 . S
C302 C303 1.524 . S
C302 C316 1.377 . S
C303 C302 1.524 . S
C303 C304 1.397 . S
C303 C308 1.363 . S
C304 H281 0.950 . S
C304 C303 1.397 . S
C304 C305 1.334 . S
C305 H282 0.950 . S
C305 C304 1.334 . S
C305 C306 1.287 . S
C306 C305 1.287 . S
C306 C307 1.524 . S
C306 H325 0.913 . S
C307 H283 0.950 . S
C307 C306 1.524 . S
C307 C308 1.415 . S
C308 H284 0.950 . S
C308 C303 1.363 . S
C308 C307 1.415 . S
C309 H285 0.951 . S
C309 C310 1.366 . S
C309 C311 1.388 . S
C310 C309 1.366 . S
C310 C314 1.385 . S
C311 H286 0.951 . S
C311 C309 1.388 . S
C311 C312 1.366 . S
C312 C311 1.366 . S
C312 C313 1.414 . S
C312 C315 1.499 . S
C313 H287 0.950 . S
C313 C312 1.414 . S
C313 C314 1.374 . S
C314 H288 0.950 . S
C314 C310 1.385 . S
C314 C313 1.374 . S
C315 C312 1.499 . S
C315 C316 1.373 . S
C315 C317 1.389 . S
C316 H289 0.950 . S
C316 C302 1.377 . S
C316 C315 1.373 . S
C317 C301 1.377 . S
C317 C315 1.389 . S
C317 C318 1.524 . S
C318 C317 1.524 . S
C318 C319 1.397 . S
C318 C323 1.363 . S
C319 H290 0.950 . S
C319 C318 1.397 . S
C319 C320 1.334 . S
C320 H291 0.950 . S
C320 C319 1.334 . S
C320 C321 1.287 . S
C321 C320 1.287 . S
C321 C322 1.524 . S
C321 H324 0.999 . S
C322 H292 0.950 . S
C322 C321 1.524 . S
C322 C323 1.415 . S
C323 H293 0.950 . S
C323 C318 1.363 . S
C323 C322 1.415 . S
H324 C321 0.999 . S
H325 C306 0.913 . S
H326 C344 0.951 . S
H327 C346 0.951 . S
H328 C348 0.950 . S
H329 C349 0.950 . S
H330 C351 0.950 1_545 S
H331 C354 0.950 . S
H332 C355 0.950 . S
H333 C357 0.950 . S
H334 C358 0.950 . S
H335 C359 0.951 . S
H336 C361 0.951 . S
H337 C363 0.950 . S
H338 C364 0.950 . S
H339 C366 0.950 . S
H340 C369 0.950 . S
H341 C370 0.954 . S
H342 C372 0.950 . S
H343 C373 0.950 . S
C344 H326 0.951 . S
C344 C345 1.392 . S
C344 C346 1.388 . S
C345 C344 1.392 . S
C345 C349 1.367 1_565 S
C346 H327 0.951 . S
C346 C344 1.388 . S
C346 C347 1.366 . S
C347 C346 1.366 . S
C347 C348 1.414 1_565 S
C347 C350 1.499 . S
C348 H328 0.950 . S
C348 C347 1.414 1_545 S
C348 C349 1.374 . S
C349 H329 0.950 . S
C349 C345 1.367 1_545 S
C349 C348 1.374 . S
C350 C347 1.499 . S
C350 C351 1.373 . S
C350 C352 1.389 . S
C351 H330 0.950 1_565 S
C351 C350 1.373 . S
C351 C367 1.377 . S
C352 C350 1.389 . S
C352 C353 1.524 . S
C352 C366 1.377 . S
C353 C352 1.524 . S
C353 C354 1.397 . S
C353 C358 1.363 . S
C354 H331 0.950 . S
C354 C353 1.397 . S
C354 C355 1.334 . S
C355 H332 0.950 . S
C355 C354 1.334 . S
C355 C356 1.287 . S
C356 C355 1.287 . S
C356 C357 1.524 . S
C356 H375 0.913 . S
C357 H333 0.950 . S
C357 C356 1.524 . S
C357 C358 1.415 . S
C358 H334 0.950 . S
C358 C353 1.363 . S
C358 C357 1.415 . S
C359 H335 0.951 . S
C359 C360 1.366 . S
C359 C361 1.388 . S
C360 C359 1.366 . S
C360 C364 1.385 . S
C361 H336 0.951 . S
C361 C359 1.388 . S
C361 C362 1.366 . S
C362 C361 1.366 . S
C362 C363 1.414 . S
C362 C365 1.499 . S
C363 H337 0.950 . S
C363 C362 1.414 . S
C363 C364 1.374 . S
C364 H338 0.950 . S
C364 C360 1.385 . S
C364 C363 1.374 . S
C365 C362 1.499 . S
C365 C366 1.373 . S
C365 C367 1.389 . S
C366 H339 0.950 . S
C366 C352 1.377 . S
C366 C365 1.373 . S
C367 C351 1.377 . S
C367 C365 1.389 . S
C367 C368 1.524 1_565 S
C368 C367 1.524 1_545 S
C368 C369 1.397 1_545 S
C368 C373 1.363 . S
C369 H340 0.950 . S
C369 C368 1.397 1_565 S
C369 C370 1.334 1_565 S
C370 H341 0.954 . S
C370 C369 1.334 1_545 S
C370 C371 1.287 . S
C371 C370 1.287 . S
C371 C372 1.524 . S
C371 H374 0.999 . S
C372 H342 0.950 . S
C372 C371 1.524 . S
C372 C373 1.415 . S
C373 H343 0.950 . S
C373 C368 1.363 . S
C373 C372 1.415 . S
H374 C371 0.999 . S
H375 C356 0.913 . S
H376 C394 0.951 . S
H377 C396 0.951 . S
H378 C398 0.947 1_556 S
H379 C399 0.950 . S
H380 C401 0.950 . S
H381 C404 0.950 . S
H382 C405 0.950 . S
H383 C407 0.950 . S
H384 C408 0.950 . S
H385 C409 0.951 . S
H386 C411 0.951 . S
H387 C413 0.950 . S
H388 C414 0.950 . S
H389 C416 0.950 . S
H390 C419 0.950 . S
H391 C420 0.950 . S
H392 C422 0.950 . S
H393 C423 0.950 . S
C394 H376 0.951 . S
C394 C395 1.366 1_554 S
C394 C396 1.388 . S
C395 C394 1.366 1_556 S
C395 C399 1.385 . S
C396 H377 0.951 . S
C396 C394 1.388 . S
C396 C397 1.366 . S
C397 C396 1.366 . S
C397 C398 1.423 . S
C397 C400 1.499 . S
C398 H378 0.947 1_554 S
C398 C397 1.423 . S
C398 C399 1.368 1_554 S
C399 H379 0.950 . S
C399 C395 1.385 . S
C399 C398 1.368 1_556 S
C400 C397 1.499 . S
C400 C401 1.373 . S
C400 C402 1.389 . S
C401 H380 0.950 . S
C401 C400 1.373 . S
C401 C417 1.377 . S
C402 C400 1.389 . S
C402 C403 1.524 . S
C402 C416 1.377 . S
C403 C402 1.524 . S
C403 C404 1.397 1_554 S
C403 C408 1.363 . S
C404 H381 0.950 . S
C404 C403 1.397 1_556 S
C404 C405 1.334 . S
C405 H382 0.950 . S
C405 C404 1.334 . S
C405 C406 1.287 . S
C406 C405 1.287 . S
C406 C407 1.524 . S
C406 H425 0.913 . S
C407 H383 0.950 . S
C407 C406 1.524 . S
C407 C408 1.415 1_556 S
C408 H384 0.950 . S
C408 C403 1.363 . S
C408 C407 1.415 1_554 S
C409 H385 0.951 . S
C409 C410 1.366 . S
C409 C411 1.388 . S
C410 C409 1.366 . S
C410 C414 1.385 . S
C411 H386 0.951 . S
C411 C409 1.388 . S
C411 C412 1.366 . S
C412 C411 1.366 . S
C412 C413 1.414 . S
C412 C415 1.499 . S
C413 H387 0.950 . S
C413 C412 1.414 . S
C413 C414 1.374 . S
C414 H388 0.950 . S
C414 C410 1.385 . S
C414 C413 1.374 . S
C415 C412 1.499 . S
C415 C416 1.373 . S
C415 C417 1.389 . S
C416 H389 0.950 . S
C416 C402 1.377 . S
C416 C415 1.373 . S
C417 C401 1.377 . S
C417 C415 1.389 . S
C417 C418 1.524 . S
C418 C417 1.524 . S
C418 C419 1.397 . S
C418 C423 1.363 . S
C419 H390 0.950 . S
C419 C418 1.397 . S
C419 C420 1.334 . S
C420 H391 0.950 . S
C420 C419 1.334 . S
C420 C421 1.287 . S
C421 C420 1.287 . S
C421 C422 1.524 . S
C421 H424 0.999 . S
C422 H392 0.950 . S
C422 C421 1.524 . S
C422 C423 1.415 . S
C423 H393 0.950 . S
C423 C418 1.363 . S
C423 C422 1.415 . S
H424 C421 0.999 . S
H425 C406 0.913 . S
H426 C444 0.951 . S
H427 C446 0.951 . S
H428 C448 0.950 . S
H429 C449 0.950 . S
H430 C451 0.950 . S
H431 C454 0.950 . S
H432 C455 0.950 1_565 S
H433 C457 0.950 . S
H434 C458 0.950 . S
H435 C459 0.951 . S
H436 C461 0.951 . S
H437 C463 0.950 . S
H438 C464 0.950 . S
H439 C466 0.950 . S
H440 C469 0.950 . S
H441 C470 0.950 . S
H442 C472 0.950 . S
H443 C473 0.950 . S
C444 H426 0.951 . S
C444 C445 1.366 . S
C444 C446 1.388 . S
C445 C444 1.366 . S
C445 C449 1.385 . S
C446 H427 0.951 . S
C446 C444 1.388 . S
C446 C447 1.366 . S
C447 C446 1.366 . S
C447 C448 1.414 . S
C447 C450 1.499 . S
C448 H428 0.950 . S
C448 C447 1.414 . S
C448 C449 1.374 . S
C449 H429 0.950 . S
C449 C445 1.385 . S
C449 C448 1.374 . S
C450 C447 1.499 . S
C450 C451 1.373 . S
C450 C452 1.389 . S
C451 H430 0.950 . S
C451 C450 1.373 . S
C451 C467 1.377 . S
C452 C450 1.389 . S
C452 C453 1.524 . S
C452 C466 1.377 . S
C453 C452 1.524 . S
C453 C454 1.397 . S
C453 C458 1.363 . S
C454 H431 0.950 . S
C454 C453 1.397 . S
C454 C455 1.334 . S
C455 H432 0.950 1_545 S
C455 C454 1.334 . S
C455 C456 1.287 . S
C456 C455 1.287 . S
C456 C457 1.524 . S
C456 H475 0.913 . S
C457 H433 0.950 . S
C457 C456 1.524 . S
C457 C458 1.415 . S
C458 H434 0.950 . S
C458 C453 1.363 . S
C458 C457 1.415 . S
C459 H435 0.951 . S
C459 C460 1.366 . S
C459 C461 1.388 . S
C460 C459 1.366 . S
C460 C464 1.385 1_565 S
C461 H436 0.951 . S
C461 C459 1.388 . S
C461 C462 1.366 1_565 S
C462 C461 1.366 1_545 S
C462 C463 1.414 . S
C462 C465 1.499 . S
C463 H437 0.950 . S
C463 C462 1.414 . S
C463 C464 1.374 . S
C464 H438 0.950 . S
C464 C460 1.385 1_545 S
C464 C463 1.374 . S
C465 C462 1.499 . S
C465 C466 1.373 . S
C465 C467 1.389 . S
C466 H439 0.950 . S
C466 C452 1.377 . S
C466 C465 1.373 . S
C467 C451 1.377 . S
C467 C465 1.389 . S
C467 C468 1.524 . S
C468 C467 1.524 . S
C468 C469 1.397 . S
C468 C473 1.363 . S
C469 H440 0.950 . S
C469 C468 1.397 . S
C469 C470 1.334 . S
C470 H441 0.950 . S
C470 C469 1.334 . S
C470 C471 1.287 . S
C471 C470 1.287 . S
C471 C472 1.524 . S
C471 H474 0.999 . S
C472 H442 0.950 . S
C472 C471 1.524 . S
C472 C473 1.415 . S
C473 H443 0.950 . S
C473 C468 1.363 . S
C473 C472 1.415 . S
H474 C471 0.999 . S
H475 C456 0.913 . S
H476 C494 0.951 . S
H477 C496 0.951 . S
H478 C498 0.950 . S
H479 C499 0.950 . S
H480 C501 0.950 . S
H481 C504 0.950 . S
H482 C505 0.950 . S
H483 C507 0.950 . S
H484 C508 0.950 . S
H485 C509 0.951 . S
H486 C511 0.951 . S
H487 C513 0.950 . S
H488 C514 0.950 . S
H489 C516 0.950 . S
H490 C519 0.950 . S
H491 C520 0.950 . S
H492 C522 0.950 . S
H493 C523 0.950 . S
C494 H476 0.951 . S
C494 C495 1.366 . S
C494 C496 1.388 . S
C495 C494 1.366 . S
C495 C499 1.385 . S
C496 H477 0.951 . S
C496 C494 1.388 . S
C496 C497 1.366 . S
C497 C496 1.366 . S
C497 C498 1.414 . S
C497 C500 1.499 . S
C498 H478 0.950 . S
C498 C497 1.414 . S
C498 C499 1.374 . S
C499 H479 0.950 . S
C499 C495 1.385 . S
C499 C498 1.374 . S
C500 C497 1.499 . S
C500 C501 1.373 . S
C500 C502 1.389 . S
C501 H480 0.950 . S
C501 C500 1.373 . S
C501 C517 1.377 . S
C502 C500 1.389 . S
C502 C503 1.524 . S
C502 C516 1.377 . S
C503 C502 1.524 . S
C503 C504 1.397 . S
C503 C508 1.363 . S
C504 H481 0.950 . S
C504 C503 1.397 . S
C504 C505 1.334 . S
C505 H482 0.950 . S
C505 C504 1.334 . S
C505 C506 1.287 . S
C506 C505 1.287 . S
C506 C507 1.524 . S
C506 H525 0.913 . S
C507 H483 0.950 . S
C507 C506 1.524 . S
C507 C508 1.415 . S
C508 H484 0.950 . S
C508 C503 1.363 . S
C508 C507 1.415 . S
C509 H485 0.951 . S
C509 C510 1.366 . S
C509 C511 1.388 . S
C510 C509 1.366 . S
C510 C514 1.385 . S
C511 H486 0.951 . S
C511 C509 1.388 . S
C511 C512 1.366 . S
C512 C511 1.366 . S
C512 C513 1.414 . S
C512 C515 1.499 . S
C513 H487 0.950 . S
C513 C512 1.414 . S
C513 C514 1.374 . S
C514 H488 0.950 . S
C514 C510 1.385 . S
C514 C513 1.374 . S
C515 C512 1.499 . S
C515 C516 1.373 . S
C515 C517 1.389 . S
C516 H489 0.950 . S
C516 C502 1.377 . S
C516 C515 1.373 . S
C517 C501 1.377 . S
C517 C515 1.389 . S
C517 C518 1.524 . S
C518 C517 1.524 . S
C518 C519 1.397 . S
C518 C523 1.363 . S
C519 H490 0.950 . S
C519 C518 1.397 . S
C519 C520 1.334 . S
C520 H491 0.950 . S
C520 C519 1.334 . S
C520 C521 1.287 . S
C521 C520 1.287 . S
C521 C522 1.524 . S
C521 H524 0.999 . S
C522 H492 0.950 . S
C522 C521 1.524 . S
C522 C523 1.415 . S
C523 H493 0.950 . S
C523 C518 1.363 . S
C523 C522 1.415 . S
H524 C521 0.999 . S
H525 C506 0.913 . S
H526 C544 0.951 . S
H527 C546 0.951 . S
H528 C548 0.950 . S
H529 C549 0.950 . S
H530 C551 0.950 . S
H531 C554 0.950 . S
H532 C555 0.950 . S
H533 C557 0.950 . S
H534 C558 0.950 . S
H535 C559 0.951 . S
H536 C561 0.951 . S
H537 C563 0.950 . S
H538 C564 0.950 . S
H539 C566 0.950 . S
H540 C569 0.950 . S
H541 C570 0.950 . S
H542 C572 0.950 . S
H543 C573 0.950 . S
C544 H526 0.951 . S
C544 C545 1.366 . S
C544 C546 1.388 . S
C545 C544 1.366 . S
C545 C549 1.385 . S
C546 H527 0.951 . S
C546 C544 1.388 . S
C546 C547 1.366 . S
C547 C546 1.366 . S
C547 C548 1.414 . S
C547 C550 1.499 . S
C548 H528 0.950 . S
C548 C547 1.414 . S
C548 C549 1.374 . S
C549 H529 0.950 . S
C549 C545 1.385 . S
C549 C548 1.374 . S
C550 C547 1.499 . S
C550 C551 1.373 . S
C550 C552 1.389 . S
C551 H530 0.950 . S
C551 C550 1.373 . S
C551 C567 1.377 . S
C552 C550 1.389 . S
C552 C553 1.524 . S
C552 C566 1.377 . S
C553 C552 1.524 . S
C553 C554 1.397 . S
C553 C558 1.363 . S
C554 H531 0.950 . S
C554 C553 1.397 . S
C554 C555 1.334 . S
C555 H532 0.950 . S
C555 C554 1.334 . S
C555 C556 1.287 . S
C556 C555 1.287 . S
C556 C557 1.524 . S
C556 H575 0.913 . S
C557 H533 0.950 . S
C557 C556 1.524 . S
C557 C558 1.415 . S
C558 H534 0.950 . S
C558 C553 1.363 . S
C558 C557 1.415 . S
C559 H535 0.951 . S
C559 C560 1.366 . S
C559 C561 1.388 . S
C560 C559 1.366 . S
C560 C564 1.385 . S
C561 H536 0.951 . S
C561 C559 1.388 . S
C561 C562 1.366 . S
C562 C561 1.366 . S
C562 C563 1.414 . S
C562 C565 1.499 . S
C563 H537 0.950 . S
C563 C562 1.414 . S
C563 C564 1.374 . S
C564 H538 0.950 . S
C564 C560 1.385 . S
C564 C563 1.374 . S
C565 C562 1.499 . S
C565 C566 1.373 . S
C565 C567 1.389 . S
C566 H539 0.950 . S
C566 C552 1.377 . S
C566 C565 1.373 . S
C567 C551 1.377 . S
C567 C565 1.389 . S
C567 C568 1.524 . S
C568 C567 1.524 . S
C568 C569 1.397 . S
C568 C573 1.363 . S
C569 H540 0.950 . S
C569 C568 1.397 . S
C569 C570 1.334 . S
C570 H541 0.950 . S
C570 C569 1.334 . S
C570 C571 1.287 . S
C571 C570 1.287 . S
C571 C572 1.524 . S
C571 H574 0.999 . S
C572 H542 0.950 . S
C572 C571 1.524 . S
C572 C573 1.415 . S
C573 H543 0.950 . S
C573 C568 1.363 . S
C573 C572 1.415 . S
H574 C571 0.999 . S
H575 C556 0.913 . S
H576 C594 0.951 . S
H577 C596 0.951 . S
H578 C598 0.950 . S
H579 C599 0.950 . S
H580 C601 0.950 . S
H581 C604 0.957 . S
H582 C605 0.950 . S
H583 C607 0.950 . S
H584 C608 0.950 . S
H585 C609 0.951 . S
H586 C611 0.951 . S
H587 C613 0.950 . S
H588 C614 0.950 . S
H589 C616 0.950 . S
H590 C619 0.950 . S
H591 C620 0.950 . S
H592 C622 0.950 . S
H593 C623 0.950 . S
C594 H576 0.951 . S
C594 C595 1.366 . S
C594 C596 1.388 . S
C595 C594 1.366 . S
C595 C599 1.385 . S
C596 H577 0.951 . S
C596 C594 1.388 . S
C596 C597 1.366 . S
C597 C596 1.366 . S
C597 C598 1.414 . S
C597 C600 1.499 . S
C598 H578 0.950 . S
C598 C597 1.414 . S
C598 C599 1.374 . S
C599 H579 0.950 . S
C599 C595 1.385 . S
C599 C598 1.374 . S
C600 C597 1.499 . S
C600 C601 1.373 . S
C600 C602 1.389 . S
C601 H580 0.950 . S
C601 C600 1.373 . S
C601 C617 1.377 . S
C602 C600 1.389 . S
C602 C603 1.524 . S
C602 C616 1.377 . S
C603 C602 1.524 . S
C603 C604 1.414 . S
C603 C608 1.363 . S
C604 H581 0.957 . S
C604 C603 1.414 . S
C604 C605 1.311 1_556 S
C605 H582 0.950 . S
C605 C604 1.311 1_554 S
C605 C606 1.287 . S
C606 C605 1.287 . S
C606 C607 1.524 . S
C606 H625 0.913 . S
C607 H583 0.950 . S
C607 C606 1.524 . S
C607 C608 1.415 1_554 S
C608 H584 0.950 . S
C608 C603 1.363 . S
C608 C607 1.415 1_556 S
C609 H585 0.951 . S
C609 C610 1.366 . S
C609 C611 1.388 . S
C610 C609 1.366 . S
C610 C614 1.385 . S
C611 H586 0.951 . S
C611 C609 1.388 . S
C611 C612 1.366 . S
C612 C611 1.366 . S
C612 C613 1.414 . S
C612 C615 1.499 . S
C613 H587 0.950 . S
C613 C612 1.414 . S
C613 C614 1.374 . S
C614 H588 0.950 . S
C614 C610 1.385 . S
C614 C613 1.374 . S
C615 C612 1.499 . S
C615 C616 1.373 . S
C615 C617 1.389 . S
C616 H589 0.950 . S
C616 C602 1.377 . S
C616 C615 1.373 . S
C617 C601 1.377 . S
C617 C615 1.389 . S
C617 C618 1.524 . S
C618 C617 1.524 . S
C618 C619 1.397 . S
C618 C623 1.363 . S
C619 H590 0.950 . S
C619 C618 1.397 . S
C619 C620 1.334 . S
C620 H591 0.950 . S
C620 C619 1.334 . S
C620 C621 1.287 . S
C621 C620 1.287 . S
C621 C622 1.524 . S
C621 H624 0.999 . S
C622 H592 0.950 . S
C622 C621 1.524 . S
C622 C623 1.415 . S
C623 H593 0.950 . S
C623 C618 1.363 . S
C623 C622 1.415 . S
H624 C621 0.999 . S
H625 C606 0.913 . S
H626 C644 0.951 . S
H627 C646 0.951 . S
H628 C648 0.950 . S
H629 C649 0.950 . S
H630 C651 0.950 . S
H631 C654 0.950 . S
H632 C655 0.950 . S
H633 C657 0.950 . S
H634 C658 0.950 . S
H635 C659 0.951 . S
H636 C661 0.951 . S
H637 C663 0.950 . S
H638 C664 0.950 . S
H639 C666 0.950 . S
H640 C669 0.950 . S
H641 C670 0.950 . S
H642 C672 0.950 . S
H643 C673 0.950 . S
C644 H626 0.951 . S
C644 C645 1.366 . S
C644 C646 1.388 . S
C645 C644 1.366 . S
C645 C649 1.385 . S
C646 H627 0.951 . S
C646 C644 1.388 . S
C646 C647 1.366 . S
C647 C646 1.366 . S
C647 C648 1.414 . S
C647 C650 1.499 . S
C648 H628 0.950 . S
C648 C647 1.414 . S
C648 C649 1.374 . S
C649 H629 0.950 . S
C649 C645 1.385 . S
C649 C648 1.374 . S
C650 C647 1.499 . S
C650 C651 1.373 . S
C650 C652 1.389 . S
C651 H630 0.950 . S
C651 C650 1.373 . S
C651 C667 1.377 . S
C652 C650 1.389 . S
C652 C653 1.524 . S
C652 C666 1.377 . S
C653 C652 1.524 . S
C653 C654 1.397 . S
C653 C658 1.363 . S
C654 H631 0.950 . S
C654 C653 1.397 . S
C654 C655 1.334 . S
C655 H632 0.950 . S
C655 C654 1.334 . S
C655 C656 1.287 . S
C656 C655 1.287 . S
C656 C657 1.524 . S
C656 H675 0.913 . S
C657 H633 0.950 . S
C657 C656 1.524 . S
C657 C658 1.415 . S
C658 H634 0.950 . S
C658 C653 1.363 . S
C658 C657 1.415 . S
C659 H635 0.951 . S
C659 C660 1.366 . S
C659 C661 1.388 . S
C660 C659 1.366 . S
C660 C664 1.385 . S
C661 H636 0.951 . S
C661 C659 1.388 . S
C661 C662 1.366 . S
C662 C661 1.366 . S
C662 C663 1.414 . S
C662 C665 1.499 . S
C663 H637 0.950 . S
C663 C662 1.414 . S
C663 C664 1.374 . S
C664 H638 0.950 . S
C664 C660 1.385 . S
C664 C663 1.374 . S
C665 C662 1.499 . S
C665 C666 1.373 . S
C665 C667 1.389 . S
C666 H639 0.950 . S
C666 C652 1.377 . S
C666 C665 1.373 . S
C667 C651 1.377 . S
C667 C665 1.389 . S
C667 C668 1.524 . S
C668 C667 1.524 . S
C668 C669 1.397 . S
C668 C673 1.363 . S
C669 H640 0.950 . S
C669 C668 1.397 . S
C669 C670 1.334 . S
C670 H641 0.950 . S
C670 C669 1.334 . S
C670 C671 1.287 . S
C671 C670 1.287 . S
C671 C672 1.524 . S
C671 H674 0.999 . S
C672 H642 0.950 . S
C672 C671 1.524 . S
C672 C673 1.415 . S
C673 H643 0.950 . S
C673 C668 1.363 . S
C673 C672 1.415 . S
H674 C671 0.999 . S
H675 C656 0.913 . S
H676 C694 0.951 . S
H677 C696 0.951 . S
H678 C698 0.950 . S
H679 C699 0.950 . S
H680 C701 0.950 . S
H681 C704 0.950 . S
H682 C705 0.950 . S
H683 C707 0.950 . S
H684 C708 0.950 . S
H685 C709 0.951 . S
H686 C711 0.951 . S
H687 C713 0.950 . S
H688 C714 0.950 . S
H689 C716 0.950 . S
H690 C719 0.950 . S
H691 C720 0.950 . S
H692 C722 0.950 . S
H693 C723 0.950 . S
C694 H676 0.951 . S
C694 C695 1.366 . S
C694 C696 1.388 . S
C695 C694 1.366 . S
C695 C699 1.385 . S
C696 H677 0.951 . S
C696 C694 1.388 . S
C696 C697 1.366 . S
C697 C696 1.366 . S
C697 C698 1.414 . S
C697 C700 1.499 . S
C698 H678 0.950 . S
C698 C697 1.414 . S
C698 C699 1.374 . S
C699 H679 0.950 . S
C699 C695 1.385 . S
C699 C698 1.374 . S
C700 C697 1.499 . S
C700 C701 1.373 . S
C700 C702 1.389 . S
C701 H680 0.950 . S
C701 C700 1.373 . S
C701 C717 1.377 . S
C702 C700 1.389 . S
C702 C703 1.524 . S
C702 C716 1.377 . S
C703 C702 1.524 . S
C703 C704 1.397 . S
C703 C708 1.363 . S
C704 H681 0.950 . S
C704 C703 1.397 . S
C704 C705 1.334 . S
C705 H682 0.950 . S
C705 C704 1.334 . S
C705 C706 1.287 . S
C706 C705 1.287 . S
C706 C707 1.524 . S
C706 H725 0.913 . S
C707 H683 0.950 . S
C707 C706 1.524 . S
C707 C708 1.415 . S
C708 H684 0.950 . S
C708 C703 1.363 . S
C708 C707 1.415 . S
C709 H685 0.951 . S
C709 C710 1.366 . S
C709 C711 1.388 . S
C710 C709 1.366 . S
C710 C714 1.385 . S
C711 H686 0.951 . S
C711 C709 1.388 . S
C711 C712 1.366 . S
C712 C711 1.366 . S
C712 C713 1.414 . S
C712 C715 1.499 . S
C713 H687 0.950 . S
C713 C712 1.414 . S
C713 C714 1.374 . S
C714 H688 0.950 . S
C714 C710 1.385 . S
C714 C713 1.374 . S
C715 C712 1.499 . S
C715 C716 1.373 . S
C715 C717 1.389 . S
C716 H689 0.950 . S
C716 C702 1.377 . S
C716 C715 1.373 . S
C717 C701 1.377 . S
C717 C715 1.389 . S
C717 C718 1.524 . S
C718 C717 1.524 . S
C718 C719 1.397 . S
C718 C723 1.363 . S
C719 H690 0.950 . S
C719 C718 1.397 . S
C719 C720 1.334 . S
C720 H691 0.950 . S
C720 C719 1.334 . S
C720 C721 1.287 . S
C721 C720 1.287 . S
C721 C722 1.524 . S
C721 H724 0.999 . S
C722 H692 0.950 . S
C722 C721 1.524 . S
C722 C723 1.415 . S
C723 H693 0.950 . S
C723 C718 1.363 . S
C723 C722 1.415 . S
H724 C721 0.999 . S
H725 C706 0.913 . S
H726 C744 0.951 . S
H727 C746 0.951 . S
H728 C748 0.950 . S
H729 C749 0.950 . S
H730 C751 0.950 . S
H731 C754 0.950 . S
H732 C755 0.950 . S
H733 C757 0.950 . S
H734 C758 0.950 . S
H735 C759 0.951 . S
H736 C761 0.951 . S
H737 C763 0.950 . S
H738 C764 0.950 . S
H739 C766 0.950 . S
H740 C769 0.950 . S
H741 C770 0.950 . S
H742 C772 0.950 . S
H743 C773 0.950 . S
C744 H726 0.951 . S
C744 C745 1.366 . S
C744 C746 1.388 . S
C745 C744 1.366 . S
C745 C749 1.385 . S
C746 H727 0.951 . S
C746 C744 1.388 . S
C746 C747 1.366 . S
C747 C746 1.366 . S
C747 C748 1.414 . S
C747 C750 1.499 . S
C748 H728 0.950 . S
C748 C747 1.414 . S
C748 C749 1.374 . S
C749 H729 0.950 . S
C749 C745 1.385 . S
C749 C748 1.374 . S
C750 C747 1.499 . S
C750 C751 1.373 . S
C750 C752 1.389 . S
C751 H730 0.950 . S
C751 C750 1.373 . S
C751 C767 1.377 . S
C752 C750 1.389 . S
C752 C753 1.524 . S
C752 C766 1.377 . S
C753 C752 1.524 . S
C753 C754 1.397 . S
C753 C758 1.363 . S
C754 H731 0.950 . S
C754 C753 1.397 . S
C754 C755 1.334 . S
C755 H732 0.950 . S
C755 C754 1.334 . S
C755 C756 1.287 . S
C756 C755 1.287 . S
C756 C757 1.524 . S
C756 H775 0.913 . S
C757 H733 0.950 . S
C757 C756 1.524 . S
C757 C758 1.415 . S
C758 H734 0.950 . S
C758 C753 1.363 . S
C758 C757 1.415 . S
C759 H735 0.951 . S
C759 C760 1.366 . S
C759 C761 1.388 . S
C760 C759 1.366 . S
C760 C764 1.385 1_455 S
C761 H736 0.951 . S
C761 C759 1.388 . S
C761 C762 1.366 . S
C762 C761 1.366 . S
C762 C763 1.414 . S
C762 C765 1.499 . S
C763 H737 0.950 . S
C763 C762 1.414 . S
C763 C764 1.374 1_455 S
C764 H738 0.950 . S
C764 C760 1.385 1_655 S
C764 C763 1.374 1_655 S
C765 C762 1.499 . S
C765 C766 1.373 . S
C765 C767 1.389 . S
C766 H739 0.950 . S
C766 C752 1.377 . S
C766 C765 1.373 . S
C767 C751 1.377 . S
C767 C765 1.389 . S
C767 C768 1.524 1_455 S
C768 C767 1.524 1_655 S
C768 C769 1.397 . S
C768 C773 1.363 1_655 S
C769 H740 0.950 . S
C769 C768 1.397 . S
C769 C770 1.334 . S
C770 H741 0.950 . S
C770 C769 1.334 . S
C770 C771 1.287 . S
C771 C770 1.287 . S
C771 C772 1.524 . S
C771 H774 0.999 . S
C772 H742 0.950 . S
C772 C771 1.524 . S
C772 C773 1.415 1_655 S
C773 H743 0.950 . S
C773 C768 1.363 1_455 S
C773 C772 1.415 1_455 S
H774 C771 0.999 . S
H775 C756 0.913 . S
H776 C794 0.951 . S
H777 C796 0.951 . S
H778 C798 0.950 . S
H779 C799 0.950 . S
H780 C801 0.950 . S
H781 C804 0.950 . S
H782 C805 0.950 1_655 S
H783 C807 0.950 . S
H784 C808 0.950 . S
H785 C809 0.951 . S
H786 C811 0.951 . S
H787 C813 0.950 . S
H788 C814 0.950 . S
H789 C816 0.950 . S
H790 C819 0.950 . S
H791 C820 0.950 . S
H792 C822 0.950 . S
H793 C823 0.950 . S
C794 H776 0.951 . S
C794 C795 1.366 1_455 S
C794 C796 1.388 . S
C795 C794 1.366 1_655 S
C795 C799 1.385 . S
C796 H777 0.951 . S
C796 C794 1.388 . S
C796 C797 1.366 1_455 S
C797 C796 1.366 1_655 S
C797 C798 1.414 . S
C797 C800 1.499 . S
C798 H778 0.950 . S
C798 C797 1.414 . S
C798 C799 1.374 . S
C799 H779 0.950 . S
C799 C795 1.385 . S
C799 C798 1.374 . S
C800 C797 1.499 . S
C800 C801 1.373 . S
C800 C802 1.389 . S
C801 H780 0.950 . S
C801 C800 1.373 . S
C801 C817 1.377 . S
C802 C800 1.389 . S
C802 C803 1.524 . S
C802 C816 1.377 . S
C803 C802 1.524 . S
C803 C804 1.397 . S
C803 C808 1.363 1_655 S
C804 H781 0.950 . S
C804 C803 1.397 . S
C804 C805 1.334 1_655 S
C805 H782 0.950 1_455 S
C805 C804 1.334 1_455 S
C805 C806 1.287 . S
C806 C805 1.287 . S
C806 C807 1.524 . S
C806 H825 0.913 . S
C807 H783 0.950 . S
C807 C806 1.524 . S
C807 C808 1.415 . S
C808 H784 0.950 . S
C808 C803 1.363 1_455 S
C808 C807 1.415 . S
C809 H785 0.951 . S
C809 C810 1.366 . S
C809 C811 1.388 . S
C810 C809 1.366 . S
C810 C814 1.385 . S
C811 H786 0.951 . S
C811 C809 1.388 . S
C811 C812 1.366 . S
C812 C811 1.366 . S
C812 C813 1.414 . S
C812 C815 1.499 . S
C813 H787 0.950 . S
C813 C812 1.414 . S
C813 C814 1.374 . S
C814 H788 0.950 . S
C814 C810 1.385 . S
C814 C813 1.374 . S
C815 C812 1.499 . S
C815 C816 1.373 . S
C815 C817 1.389 . S
C816 H789 0.950 . S
C816 C802 1.377 . S
C816 C815 1.373 . S
C817 C801 1.377 . S
C817 C815 1.389 . S
C817 C818 1.524 . S
C818 C817 1.524 . S
C818 C819 1.397 . S
C818 C823 1.363 . S
C819 H790 0.950 . S
C819 C818 1.397 . S
C819 C820 1.334 . S
C820 H791 0.950 . S
C820 C819 1.334 . S
C820 C821 1.287 . S
C821 C820 1.287 . S
C821 C822 1.524 . S
C821 H824 0.999 . S
C822 H792 0.950 . S
C822 C821 1.524 . S
C822 C823 1.415 . S
C823 H793 0.950 . S
C823 C818 1.363 . S
C823 C822 1.415 . S
H824 C821 0.999 . S
H825 C806 0.913 . S
H826 C844 0.951 . S
H827 C846 0.951 . S
H828 C848 0.950 . S
H829 C849 0.950 . S
H830 C851 0.950 . S
H831 C854 0.950 . S
H832 C855 0.950 . S
H833 C857 0.950 . S
H834 C858 0.950 . S
H835 C859 0.951 . S
H836 C861 0.951 . S
H837 C863 0.950 . S
H838 C864 0.950 . S
H839 C866 0.950 . S
H840 C869 0.950 . S
H841 C870 0.950 . S
H842 C872 0.950 . S
H843 C873 0.950 . S
C844 H826 0.951 . S
C844 C845 1.366 . S
C844 C846 1.388 . S
C845 C844 1.366 . S
C845 C849 1.385 . S
C846 H827 0.951 . S
C846 C844 1.388 . S
C846 C847 1.366 . S
C847 C846 1.366 . S
C847 C848 1.414 . S
C847 C850 1.499 . S
C848 H828 0.950 . S
C848 C847 1.414 . S
C848 C849 1.374 . S
C849 H829 0.950 . S
C849 C845 1.385 . S
C849 C848 1.374 . S
C850 C847 1.499 . S
C850 C851 1.373 . S
C850 C852 1.389 . S
C851 H830 0.950 . S
C851 C850 1.373 . S
C851 C867 1.377 . S
C852 C850 1.389 . S
C852 C853 1.524 . S
C852 C866 1.377 . S
C853 C852 1.524 . S
C853 C854 1.397 . S
C853 C858 1.363 . S
C854 H831 0.950 . S
C854 C853 1.397 . S
C854 C855 1.334 . S
C855 H832 0.950 . S
C855 C854 1.334 . S
C855 C856 1.287 . S
C856 C855 1.287 . S
C856 C857 1.524 . S
C856 H875 0.913 . S
C857 H833 0.950 . S
C857 C856 1.524 . S
C857 C858 1.415 . S
C858 H834 0.950 . S
C858 C853 1.363 . S
C858 C857 1.415 . S
C859 H835 0.951 . S
C859 C860 1.366 . S
C859 C861 1.388 . S
C860 C859 1.366 . S
C860 C864 1.385 . S
C861 H836 0.951 . S
C861 C859 1.388 . S
C861 C862 1.366 . S
C862 C861 1.366 . S
C862 C863 1.414 . S
C862 C865 1.499 . S
C863 H837 0.950 . S
C863 C862 1.414 . S
C863 C864 1.374 . S
C864 H838 0.950 . S
C864 C860 1.385 . S
C864 C863 1.374 . S
C865 C862 1.499 . S
C865 C866 1.373 . S
C865 C867 1.389 . S
C866 H839 0.950 . S
C866 C852 1.377 . S
C866 C865 1.373 . S
C867 C851 1.377 . S
C867 C865 1.389 . S
C867 C868 1.524 . S
C868 C867 1.524 . S
C868 C869 1.397 . S
C868 C873 1.363 . S
C869 H840 0.950 . S
C869 C868 1.397 . S
C869 C870 1.334 . S
C870 H841 0.950 . S
C870 C869 1.334 . S
C870 C871 1.287 . S
C871 C870 1.287 . S
C871 C872 1.524 . S
C871 H874 0.999 . S
C872 H842 0.950 . S
C872 C871 1.524 . S
C872 C873 1.415 . S
C873 H843 0.950 . S
C873 C868 1.363 . S
C873 C872 1.415 . S
H874 C871 0.999 . S
H875 C856 0.913 . S
H876 C894 0.951 . S
H877 C896 0.951 . S
H878 C898 0.950 . S
H879 C899 0.950 . S
H880 C901 0.950 . S
H881 C904 0.950 . S
H882 C905 0.950 . S
H883 C907 0.950 . S
H884 C908 0.950 . S
H885 C909 0.951 . S
H886 C911 0.951 . S
H887 C913 0.950 . S
H888 C914 0.950 . S
H889 C916 0.950 . S
H890 C919 0.950 . S
H891 C920 0.950 . S
H892 C922 0.950 . S
H893 C923 0.950 . S
C894 H876 0.951 . S
C894 C895 1.366 . S
C894 C896 1.388 . S
C895 C894 1.366 . S
C895 C899 1.385 . S
C896 H877 0.951 . S
C896 C894 1.388 . S
C896 C897 1.366 . S
C897 C896 1.366 . S
C897 C898 1.414 . S
C897 C900 1.499 . S
C898 H878 0.950 . S
C898 C897 1.414 . S
C898 C899 1.374 . S
C899 H879 0.950 . S
C899 C895 1.385 . S
C899 C898 1.374 . S
C900 C897 1.499 . S
C900 C901 1.373 . S
C900 C902 1.389 . S
C901 H880 0.950 . S
C901 C900 1.373 . S
C901 C917 1.377 . S
C902 C900 1.389 . S
C902 C903 1.524 . S
C902 C916 1.377 . S
C903 C902 1.524 . S
C903 C904 1.397 . S
C903 C908 1.363 . S
C904 H881 0.950 . S
C904 C903 1.397 . S
C904 C905 1.334 . S
C905 H882 0.950 . S
C905 C904 1.334 . S
C905 C906 1.287 . S
C906 C905 1.287 . S
C906 C907 1.524 . S
C906 H925 0.913 . S
C907 H883 0.950 . S
C907 C906 1.524 . S
C907 C908 1.415 . S
C908 H884 0.950 . S
C908 C903 1.363 . S
C908 C907 1.415 . S
C909 H885 0.951 . S
C909 C910 1.366 . S
C909 C911 1.388 . S
C910 C909 1.366 . S
C910 C914 1.385 . S
C911 H886 0.951 . S
C911 C909 1.388 . S
C911 C912 1.366 . S
C912 C911 1.366 . S
C912 C913 1.414 . S
C912 C915 1.499 . S
C913 H887 0.950 . S
C913 C912 1.414 . S
C913 C914 1.374 . S
C914 H888 0.950 . S
C914 C910 1.385 . S
C914 C913 1.374 . S
C915 C912 1.499 . S
C915 C916 1.373 . S
C915 C917 1.389 . S
C916 H889 0.950 . S
C916 C902 1.377 . S
C916 C915 1.373 . S
C917 C901 1.377 . S
C917 C915 1.389 . S
C917 C918 1.524 . S
C918 C917 1.524 . S
C918 C919 1.397 . S
C918 C923 1.363 . S
C919 H890 0.950 . S
C919 C918 1.397 . S
C919 C920 1.334 . S
C920 H891 0.950 . S
C920 C919 1.334 . S
C920 C921 1.287 . S
C921 C920 1.287 . S
C921 C922 1.524 . S
C921 H924 0.999 . S
C922 H892 0.950 . S
C922 C921 1.524 . S
C922 C923 1.415 . S
C923 H893 0.950 . S
C923 C918 1.363 . S
C923 C922 1.415 . S
H924 C921 0.999 . S
H925 C906 0.913 . S
H926 C944 0.951 . S
H927 C946 0.951 . S
H928 C948 0.950 . S
H929 C949 0.950 . S
H930 C951 0.950 . S
H931 C954 0.950 . S
H932 C955 0.950 . S
H933 C957 0.950 . S
H934 C958 0.950 . S
H935 C959 0.951 . S
H936 C961 0.951 . S
H937 C963 0.950 . S
H938 C964 0.950 . S
H939 C966 0.950 . S
H940 C969 0.950 . S
H941 C970 0.950 . S
H942 C972 0.950 . S
H943 C973 0.950 . S
C944 H926 0.951 . S
C944 C945 1.366 . S
C944 C946 1.388 . S
C945 C944 1.366 . S
C945 C949 1.385 1_655 S
C946 H927 0.951 . S
C946 C944 1.388 . S
C946 C947 1.366 . S
C947 C946 1.366 . S
C947 C948 1.414 . S
C947 C950 1.499 . S
C948 H928 0.950 . S
C948 C947 1.414 . S
C948 C949 1.374 1_655 S
C949 H929 0.950 . S
C949 C945 1.385 1_455 S
C949 C948 1.374 1_455 S
C950 C947 1.499 . S
C950 C951 1.373 . S
C950 C952 1.389 . S
C951 H930 0.950 . S
C951 C950 1.373 . S
C951 C967 1.377 . S
C952 C950 1.389 . S
C952 C953 1.524 . S
C952 C966 1.377 . S
C953 C952 1.524 . S
C953 C954 1.397 . S
C953 C958 1.363 . S
C954 H931 0.950 . S
C954 C953 1.397 . S
C954 C955 1.334 . S
C955 H932 0.950 . S
C955 C954 1.334 . S
C955 C956 1.287 . S
C956 C955 1.287 . S
C956 C957 1.524 . S
C956 H975 0.913 . S
C957 H933 0.950 . S
C957 C956 1.524 . S
C957 C958 1.415 . S
C958 H934 0.950 . S
C958 C953 1.363 . S
C958 C957 1.415 . S
C959 H935 0.951 . S
C959 C960 1.366 . S
C959 C961 1.388 . S
C960 C959 1.366 . S
C960 C964 1.385 . S
C961 H936 0.951 . S
C961 C959 1.388 . S
C961 C962 1.366 . S
C962 C961 1.366 . S
C962 C963 1.414 . S
C962 C965 1.499 . S
C963 H937 0.950 . S
C963 C962 1.414 . S
C963 C964 1.374 . S
C964 H938 0.950 . S
C964 C960 1.385 . S
C964 C963 1.374 . S
C965 C962 1.499 . S
C965 C966 1.373 . S
C965 C967 1.389 . S
C966 H939 0.950 . S
C966 C952 1.377 . S
C966 C965 1.373 . S
C967 C951 1.377 . S
C967 C965 1.389 . S
C967 C968 1.524 . S
C968 C967 1.524 . S
C968 C969 1.397 . S
C968 C973 1.363 . S
C969 H940 0.950 . S
C969 C968 1.397 . S
C969 C970 1.334 . S
C970 H941 0.950 . S
C970 C969 1.334 . S
C970 C971 1.287 . S
C971 C970 1.287 . S
C971 C972 1.524 . S
C971 H974 0.999 1_565 S
C972 H942 0.950 . S
C972 C971 1.524 . S
C972 C973 1.415 . S
C973 H943 0.950 . S
C973 C968 1.363 . S
C973 C972 1.415 . S
H974 C971 0.999 1_545 S
H975 C956 0.913 . S
H976 C994 0.951 . S
H977 C996 0.951 . S
H978 C998 0.950 . S
H979 C999 0.950 . S
H980 C1001 0.950 . S
H981 C1004 0.950 . S
H982 C1005 0.950 . S
H983 C1007 0.950 . S
H984 C1008 0.950 . S
H985 C1009 0.951 . S
H986 C1011 0.951 . S
H987 C1013 0.950 . S
H988 C1014 0.950 . S
H989 C1016 0.950 . S
H990 C1019 0.950 . S
H991 C1020 0.950 . S
H992 C1022 0.950 . S
H993 C1023 0.950 . S
C994 H976 0.951 . S
C994 C995 1.366 . S
C994 C996 1.388 . S
C995 C994 1.366 . S
C995 C999 1.385 . S
C996 H977 0.951 . S
C996 C994 1.388 . S
C996 C997 1.366 . S
C997 C996 1.366 . S
C997 C998 1.414 . S
C997 C1000 1.499 . S
C998 H978 0.950 . S
C998 C997 1.414 . S
C998 C999 1.374 . S
C999 H979 0.950 . S
C999 C995 1.385 . S
C999 C998 1.374 . S
C1000 C997 1.499 . S
C1000 C1001 1.373 . S
C1000 C1002 1.389 . S
C1001 H980 0.950 . S
C1001 C1000 1.373 . S
C1001 C1017 1.377 . S
C1002 C1000 1.389 . S
C1002 C1003 1.524 . S
C1002 C1016 1.377 . S
C1003 C1002 1.524 . S
C1003 C1004 1.397 . S
C1003 C1008 1.363 . S
C1004 H981 0.950 . S
C1004 C1003 1.397 . S
C1004 C1005 1.334 . S
C1005 H982 0.950 . S
C1005 C1004 1.334 . S
C1005 C1006 1.287 . S
C1006 C1005 1.287 . S
C1006 C1007 1.524 . S
C1006 H1025 0.913 . S
C1007 H983 0.950 . S
C1007 C1006 1.524 . S
C1007 C1008 1.415 . S
C1008 H984 0.950 . S
C1008 C1003 1.363 . S
C1008 C1007 1.415 . S
C1009 H985 0.951 . S
C1009 C1010 1.366 . S
C1009 C1011 1.388 . S
C1010 C1009 1.366 . S
C1010 C1014 1.385 . S
C1011 H986 0.951 . S
C1011 C1009 1.388 . S
C1011 C1012 1.366 . S
C1012 C1011 1.366 . S
C1012 C1013 1.414 . S
C1012 C1015 1.499 . S
C1013 H987 0.950 . S
C1013 C1012 1.414 . S
C1013 C1014 1.374 . S
C1014 H988 0.950 . S
C1014 C1010 1.385 . S
C1014 C1013 1.374 . S
C1015 C1012 1.499 . S
C1015 C1016 1.373 . S
C1015 C1017 1.389 . S
C1016 H989 0.950 . S
C1016 C1002 1.377 . S
C1016 C1015 1.373 . S
C1017 C1001 1.377 . S
C1017 C1015 1.389 . S
C1017 C1018 1.524 . S
C1018 C1017 1.524 . S
C1018 C1019 1.397 . S
C1018 C1023 1.363 . S
C1019 H990 0.950 . S
C1019 C1018 1.397 . S
C1019 C1020 1.334 . S
C1020 H991 0.950 . S
C1020 C1019 1.334 . S
C1020 C1021 1.287 . S
C1021 C1020 1.287 . S
C1021 C1022 1.524 . S
C1021 H1024 0.999 . S
C1022 H992 0.950 . S
C1022 C1021 1.524 . S
C1022 C1023 1.415 . S
C1023 H993 0.950 . S
C1023 C1018 1.363 . S
C1023 C1022 1.415 . S
H1024 C1021 0.999 . S
H1025 C1006 0.913 . S
H1026 C1044 0.951 . S
H1027 C1046 0.951 . S
H1028 C1048 0.950 . S
H1029 C1049 0.950 . S
H1030 C1051 0.950 . S
H1031 C1054 0.950 . S
H1032 C1055 0.950 . S
H1033 C1057 0.950 . S
H1034 C1058 0.950 . S
H1035 C1059 0.951 . S
H1036 C1061 0.951 . S
H1037 C1063 0.950 . S
H1038 C1064 0.950 . S
H1039 C1066 0.950 . S
H1040 C1069 0.950 . S
H1041 C1070 0.950 . S
H1042 C1072 0.950 . S
H1043 C1073 0.950 . S
C1044 H1026 0.951 . S
C1044 C1045 1.366 . S
C1044 C1046 1.388 . S
C1045 C1044 1.366 . S
C1045 C1049 1.385 . S
C1046 H1027 0.951 . S
C1046 C1044 1.388 . S
C1046 C1047 1.366 . S
C1047 C1046 1.366 . S
C1047 C1048 1.414 . S
C1047 C1050 1.499 . S
C1048 H1028 0.950 . S
C1048 C1047 1.414 . S
C1048 C1049 1.374 . S
C1049 H1029 0.950 . S
C1049 C1045 1.385 . S
C1049 C1048 1.374 . S
C1050 C1047 1.499 . S
C1050 C1051 1.373 . S
C1050 C1052 1.389 . S
C1051 H1030 0.950 . S
C1051 C1050 1.373 . S
C1051 C1067 1.377 . S
C1052 C1050 1.389 . S
C1052 C1053 1.524 . S
C1052 C1066 1.377 1_554 S
C1053 C1052 1.524 . S
C1053 C1054 1.397 . S
C1053 C1058 1.363 1_554 S
C1054 H1031 0.950 . S
C1054 C1053 1.397 . S
C1054 C1055 1.334 . S
C1055 H1032 0.950 . S
C1055 C1054 1.334 . S
C1055 C1056 1.287 . S
C1056 C1055 1.287 . S
C1056 C1057 1.524 1_554 S
C1056 H1075 0.913 . S
C1057 H1033 0.950 . S
C1057 C1056 1.524 1_556 S
C1057 C1058 1.415 . S
C1058 H1034 0.950 . S
C1058 C1053 1.363 1_556 S
C1058 C1057 1.415 . S
C1059 H1035 0.951 . S
C1059 C1060 1.366 . S
C1059 C1061 1.388 . S
C1060 C1059 1.366 . S
C1060 C1064 1.385 . S
C1061 H1036 0.951 . S
C1061 C1059 1.388 . S
C1061 C1062 1.366 . S
C1062 C1061 1.366 . S
C1062 C1063 1.414 . S
C1062 C1065 1.486 1_556 S
C1063 H1037 0.950 . S
C1063 C1062 1.414 . S
C1063 C1064 1.374 . S
C1064 H1038 0.950 . S
C1064 C1060 1.385 . S
C1064 C1063 1.374 . S
C1065 C1062 1.486 1_554 S
C1065 C1066 1.372 1_554 S
C1065 C1067 1.403 . S
C1066 H1039 0.950 . S
C1066 C1052 1.377 1_556 S
C1066 C1065 1.372 1_556 S
C1067 C1051 1.377 . S
C1067 C1065 1.403 . S
C1067 C1068 1.524 . S
C1068 C1067 1.524 . S
C1068 C1069 1.397 . S
C1068 C1073 1.363 . S
C1069 H1040 0.950 . S
C1069 C1068 1.397 . S
C1069 C1070 1.334 . S
C1070 H1041 0.950 . S
C1070 C1069 1.334 . S
C1070 C1071 1.287 . S
C1071 C1070 1.287 . S
C1071 C1072 1.524 . S
C1071 H1074 0.999 . S
C1072 H1042 0.950 . S
C1072 C1071 1.524 . S
C1072 C1073 1.415 . S
C1073 H1043 0.950 . S
C1073 C1068 1.363 . S
C1073 C1072 1.415 . S
H1074 C1071 0.999 . S
H1075 C1056 0.913 . S
H1076 C1094 0.951 . S
H1077 C1096 0.951 . S
H1078 C1098 0.950 . S
H1079 C1099 0.950 . S
H1080 C1101 0.950 . S
H1081 C1104 0.950 . S
H1082 C1105 0.950 . S
H1083 C1107 0.950 . S
H1084 C1108 0.950 . S
H1085 C1109 0.951 . S
H1086 C1111 0.951 . S
H1087 C1113 0.950 . S
H1088 C1114 0.950 . S
H1089 C1116 0.950 . S
H1090 C1119 0.950 . S
H1091 C1120 0.950 . S
H1092 C1122 0.950 . S
H1093 C1123 0.950 . S
C1094 H1076 0.951 . S
C1094 C1095 1.366 . S
C1094 C1096 1.388 . S
C1095 C1094 1.366 . S
C1095 C1099 1.385 . S
C1096 H1077 0.951 . S
C1096 C1094 1.388 . S
C1096 C1097 1.366 . S
C1097 C1096 1.366 . S
C1097 C1098 1.414 . S
C1097 C1100 1.499 . S
C1098 H1078 0.950 . S
C1098 C1097 1.414 . S
C1098 C1099 1.374 . S
C1099 H1079 0.950 . S
C1099 C1095 1.385 . S
C1099 C1098 1.374 . S
C1100 C1097 1.499 . S
C1100 C1101 1.373 . S
C1100 C1102 1.389 . S
C1101 H1080 0.950 . S
C1101 C1100 1.373 . S
C1101 C1117 1.377 . S
C1102 C1100 1.389 . S
C1102 C1103 1.524 . S
C1102 C1116 1.377 . S
C1103 C1102 1.524 . S
C1103 C1104 1.397 . S
C1103 C1108 1.363 . S
C1104 H1081 0.950 . S
C1104 C1103 1.397 . S
C1104 C1105 1.334 . S
C1105 H1082 0.950 . S
C1105 C1104 1.334 . S
C1105 C1106 1.287 . S
C1106 C1105 1.287 . S
C1106 C1107 1.524 . S
C1106 H1125 0.913 . S
C1107 H1083 0.950 . S
C1107 C1106 1.524 . S
C1107 C1108 1.415 . S
C1108 H1084 0.950 . S
C1108 C1103 1.363 . S
C1108 C1107 1.415 . S
C1109 H1085 0.951 . S
C1109 C1110 1.366 . S
C1109 C1111 1.388 . S
C1110 C1109 1.366 . S
C1110 C1114 1.385 . S
C1111 H1086 0.951 . S
C1111 C1109 1.388 . S
C1111 C1112 1.366 . S
C1112 C1111 1.366 . S
C1112 C1113 1.414 . S
C1112 C1115 1.499 . S
C1113 H1087 0.950 . S
C1113 C1112 1.414 . S
C1113 C1114 1.374 . S
C1114 H1088 0.950 . S
C1114 C1110 1.385 . S
C1114 C1113 1.374 . S
C1115 C1112 1.499 . S
C1115 C1116 1.373 . S
C1115 C1117 1.389 . S
C1116 H1089 0.950 . S
C1116 C1102 1.377 . S
C1116 C1115 1.373 . S
C1117 C1101 1.377 . S
C1117 C1115 1.389 . S
C1117 C1118 1.524 . S
C1118 C1117 1.524 . S
C1118 C1119 1.397 . S
C1118 C1123 1.363 . S
C1119 H1090 0.950 . S
C1119 C1118 1.397 . S
C1119 C1120 1.334 . S
C1120 H1091 0.950 . S
C1120 C1119 1.334 . S
C1120 C1121 1.287 . S
C1121 C1120 1.287 . S
C1121 C1122 1.524 . S
C1121 H1124 0.999 . S
C1122 H1092 0.950 . S
C1122 C1121 1.524 . S
C1122 C1123 1.415 . S
C1123 H1093 0.950 . S
C1123 C1118 1.363 . S
C1123 C1122 1.415 . S
H1124 C1121 0.999 . S
H1125 C1106 0.913 . S
H1126 C1144 0.951 . S
H1127 C1146 0.951 . S
H1128 C1148 0.950 . S
H1129 C1149 0.950 . S
H1130 C1151 0.950 1_554 S
H1131 C1154 0.950 . S
H1132 C1155 0.950 . S
H1133 C1157 0.950 . S
H1134 C1158 0.950 . S
H1135 C1159 0.951 1_655 S
H1136 C1161 0.951 . S
H1137 C1163 0.950 . S
H1138 C1164 0.950 . S
H1139 C1166 0.950 . S
H1140 C1169 0.950 1_455 S
H1141 C1170 0.950 . S
H1142 C1172 0.950 . S
H1143 C1173 0.950 . S
C1144 H1126 0.951 . S
C1144 C1145 1.366 . S
C1144 C1146 1.388 . S
C1145 C1144 1.366 . S
C1145 C1149 1.385 . S
C1146 H1127 0.951 . S
C1146 C1144 1.388 . S
C1146 C1147 1.366 . S
C1147 C1146 1.366 . S
C1147 C1148 1.414 . S
C1147 C1150 1.499 1_554 S
C1148 H1128 0.950 . S
C1148 C1147 1.414 . S
C1148 C1149 1.374 . S
C1149 H1129 0.950 . S
C1149 C1145 1.385 . S
C1149 C1148 1.374 . S
C1150 C1147 1.499 1_556 S
C1150 C1151 1.373 . S
C1150 C1152 1.389 . S
C1151 H1130 0.950 1_556 S
C1151 C1150 1.373 . S
C1151 C1167 1.377 . S
C1152 C1150 1.389 . S
C1152 C1153 1.524 . S
C1152 C1166 1.377 . S
C1153 C1152 1.524 . S
C1153 C1154 1.397 . S
C1153 C1158 1.363 . S
C1154 H1131 0.950 . S
C1154 C1153 1.397 . S
C1154 C1155 1.334 . S
C1155 H1132 0.950 . S
C1155 C1154 1.334 . S
C1155 C1156 1.287 . S
C1156 C1155 1.287 . S
C1156 C1157 1.524 . S
C1156 H1175 0.913 . S
C1157 H1133 0.950 . S
C1157 C1156 1.524 . S
C1157 C1158 1.415 . S
C1158 H1134 0.950 . S
C1158 C1153 1.363 . S
C1158 C1157 1.415 . S
C1159 H1135 0.951 1_455 S
C1159 C1160 1.366 . S
C1159 C1161 1.388 . S
C1160 C1159 1.366 . S
C1160 C1164 1.385 . S
C1161 H1136 0.951 . S
C1161 C1159 1.388 . S
C1161 C1162 1.366 . S
C1162 C1161 1.366 . S
C1162 C1163 1.414 . S
C1162 C1165 1.499 . S
C1163 H1137 0.950 . S
C1163 C1162 1.414 . S
C1163 C1164 1.374 . S
C1164 H1138 0.950 . S
C1164 C1160 1.385 . S
C1164 C1163 1.374 . S
C1165 C1162 1.499 . S
C1165 C1166 1.373 . S
C1165 C1167 1.389 . S
C1166 H1139 0.950 . S
C1166 C1152 1.377 . S
C1166 C1165 1.373 . S
C1167 C1151 1.377 . S
C1167 C1165 1.389 . S
C1167 C1168 1.524 . S
C1168 C1167 1.524 . S
C1168 C1169 1.397 1_455 S
C1168 C1173 1.363 . S
C1169 H1140 0.950 1_655 S
C1169 C1168 1.397 1_655 S
C1169 C1170 1.334 . S
C1170 H1141 0.950 . S
C1170 C1169 1.334 . S
C1170 C1171 1.287 . S
C1171 C1170 1.287 . S
C1171 C1172 1.524 . S
C1171 H1174 0.999 . S
C1172 H1142 0.950 . S
C1172 C1171 1.524 . S
C1172 C1173 1.415 1_655 S
C1173 H1143 0.950 . S
C1173 C1168 1.363 . S
C1173 C1172 1.415 1_455 S
H1174 C1171 0.999 . S
H1175 C1156 0.913 . S
H1176 C1194 0.951 . S
H1177 C1196 0.951 . S
H1178 C1198 0.950 . S
H1179 C1199 0.950 . S
H1180 C1201 0.950 . S
H1181 C1204 0.950 . S
H1182 C1205 0.950 . S
H1183 C1207 0.950 . S
H1184 C1208 0.950 . S
H1185 C1209 0.951 . S
H1186 C1211 0.951 . S
H1187 C1213 0.950 . S
H1188 C1214 0.950 . S
H1189 C1216 0.950 . S
H1190 C1219 0.950 . S
H1191 C1220 0.950 . S
H1192 C1222 0.950 . S
H1193 C1223 0.950 . S
C1194 H1176 0.951 . S
C1194 C1195 1.366 . S
C1194 C1196 1.388 . S
C1195 C1194 1.366 . S
C1195 C1199 1.385 . S
C1196 H1177 0.951 . S
C1196 C1194 1.388 . S
C1196 C1197 1.366 . S
C1197 C1196 1.366 . S
C1197 C1198 1.414 . S
C1197 C1200 1.499 . S
C1198 H1178 0.950 . S
C1198 C1197 1.414 . S
C1198 C1199 1.374 . S
C1199 H1179 0.950 . S
C1199 C1195 1.385 . S
C1199 C1198 1.374 . S
C1200 C1197 1.499 . S
C1200 C1201 1.373 . S
C1200 C1202 1.389 . S
C1201 H1180 0.950 . S
C1201 C1200 1.373 . S
C1201 C1217 1.377 . S
C1202 C1200 1.389 . S
C1202 C1203 1.524 . S
C1202 C1216 1.377 . S
C1203 C1202 1.524 . S
C1203 C1204 1.397 . S
C1203 C1208 1.363 . S
C1204 H1181 0.950 . S
C1204 C1203 1.397 . S
C1204 C1205 1.334 . S
C1205 H1182 0.950 . S
C1205 C1204 1.334 . S
C1205 C1206 1.287 . S
C1206 C1205 1.287 . S
C1206 C1207 1.524 . S
C1206 H1225 0.913 . S
C1207 H1183 0.950 . S
C1207 C1206 1.524 . S
C1207 C1208 1.415 . S
C1208 H1184 0.950 . S
C1208 C1203 1.363 . S
C1208 C1207 1.415 . S
C1209 H1185 0.951 . S
C1209 C1210 1.366 . S
C1209 C1211 1.388 . S
C1210 C1209 1.366 . S
C1210 C1214 1.385 . S
C1211 H1186 0.951 . S
C1211 C1209 1.388 . S
C1211 C1212 1.366 . S
C1212 C1211 1.366 . S
C1212 C1213 1.414 . S
C1212 C1215 1.499 . S
C1213 H1187 0.950 . S
C1213 C1212 1.414 . S
C1213 C1214 1.374 . S
C1214 H1188 0.950 . S
C1214 C1210 1.385 . S
C1214 C1213 1.374 . S
C1215 C1212 1.499 . S
C1215 C1216 1.373 . S
C1215 C1217 1.389 . S
C1216 H1189 0.950 . S
C1216 C1202 1.377 . S
C1216 C1215 1.373 . S
C1217 C1201 1.377 . S
C1217 C1215 1.389 . S
C1217 C1218 1.524 . S
C1218 C1217 1.524 . S
C1218 C1219 1.397 . S
C1218 C1223 1.363 . S
C1219 H1190 0.950 . S
C1219 C1218 1.397 . S
C1219 C1220 1.334 . S
C1220 H1191 0.950 . S
C1220 C1219 1.334 . S
C1220 C1221 1.287 . S
C1221 C1220 1.287 . S
C1221 C1222 1.524 . S
C1221 H1224 0.999 . S
C1222 H1192 0.950 . S
C1222 C1221 1.524 . S
C1222 C1223 1.415 . S
C1223 H1193 0.950 . S
C1223 C1218 1.363 . S
C1223 C1222 1.415 . S
H1224 C1221 0.999 . S
H1225 C1206 0.913 . S
H1226 C1244 0.951 . S
H1227 C1246 0.951 . S
H1228 C1248 0.950 . S
H1229 C1249 0.950 . S
H1230 C1251 0.950 . S
H1231 C1254 0.950 . S
H1232 C1255 0.950 . S
H1233 C1257 0.950 . S
H1234 C1258 0.950 . S
H1235 C1259 0.951 . S
H1236 C1261 0.951 . S
H1237 C1263 0.950 . S
H1238 C1264 0.950 . S
H1239 C1266 0.950 . S
H1240 C1269 0.950 . S
H1241 C1270 0.950 . S
H1242 C1272 0.950 . S
H1243 C1273 0.950 . S
C1244 H1226 0.951 . S
C1244 C1245 1.366 . S
C1244 C1246 1.388 . S
C1245 C1244 1.366 . S
C1245 C1249 1.385 . S
C1246 H1227 0.951 . S
C1246 C1244 1.388 . S
C1246 C1247 1.366 . S
C1247 C1246 1.366 . S
C1247 C1248 1.414 . S
C1247 C1250 1.499 . S
C1248 H1228 0.950 . S
C1248 C1247 1.414 . S
C1248 C1249 1.374 . S
C1249 H1229 0.950 . S
C1249 C1245 1.385 . S
C1249 C1248 1.374 . S
C1250 C1247 1.499 . S
C1250 C1251 1.373 . S
C1250 C1252 1.389 . S
C1251 H1230 0.950 . S
C1251 C1250 1.373 . S
C1251 C1267 1.377 . S
C1252 C1250 1.389 . S
C1252 C1253 1.524 . S
C1252 C1266 1.377 . S
C1253 C1252 1.524 . S
C1253 C1254 1.397 . S
C1253 C1258 1.363 . S
C1254 H1231 0.950 . S
C1254 C1253 1.397 . S
C1254 C1255 1.334 . S
C1255 H1232 0.950 . S
C1255 C1254 1.334 . S
C1255 C1256 1.287 . S
C1256 C1255 1.287 . S
C1256 C1257 1.524 . S
C1256 H1275 0.913 . S
C1257 H1233 0.950 . S
C1257 C1256 1.524 . S
C1257 C1258 1.415 . S
C1258 H1234 0.950 . S
C1258 C1253 1.363 . S
C1258 C1257 1.415 . S
C1259 H1235 0.951 . S
C1259 C1260 1.366 . S
C1259 C1261 1.388 . S
C1260 C1259 1.366 . S
C1260 C1264 1.385 . S
C1261 H1236 0.951 . S
C1261 C1259 1.388 . S
C1261 C1262 1.366 . S
C1262 C1261 1.366 . S
C1262 C1263 1.414 . S
C1262 C1265 1.499 . S
C1263 H1237 0.950 . S
C1263 C1262 1.414 . S
C1263 C1264 1.374 . S
C1264 H1238 0.950 . S
C1264 C1260 1.385 . S
C1264 C1263 1.374 . S
C1265 C1262 1.499 . S
C1265 C1266 1.373 . S
C1265 C1267 1.389 . S
C1266 H1239 0.950 . S
C1266 C1252 1.377 . S
C1266 C1265 1.373 . S
C1267 C1251 1.377 . S
C1267 C1265 1.389 . S
C1267 C1268 1.524 . S
C1268 C1267 1.524 . S
C1268 C1269 1.397 . S
C1268 C1273 1.363 . S
C1269 H1240 0.950 . S
C1269 C1268 1.397 . S
C1269 C1270 1.334 . S
C1270 H1241 0.950 . S
C1270 C1269 1.334 . S
C1270 C1271 1.287 . S
C1271 C1270 1.287 . S
C1271 C1272 1.524 . S
C1271 H1274 0.999 . S
C1272 H1242 0.950 . S
C1272 C1271 1.524 . S
C1272 C1273 1.415 . S
C1273 H1243 0.950 . S
C1273 C1268 1.363 . S
C1273 C1272 1.415 . S
H1274 C1271 0.999 . S
H1275 C1256 0.913 . S
H1276 C1294 0.951 . S
H1277 C1296 0.951 . S
H1278 C1298 0.950 . S
H1279 C1299 0.950 . S
H1280 C1301 0.950 . S
H1281 C1304 0.950 . S
H1282 C1305 0.950 . S
H1283 C1307 0.950 . S
H1284 C1308 0.950 . S
H1285 C1309 0.951 . S
H1286 C1311 0.951 . S
H1287 C1313 0.950 . S
H1288 C1314 0.950 . S
H1289 C1316 0.950 . S
H1290 C1319 0.950 . S
H1291 C1320 0.950 . S
H1292 C1322 0.950 . S
H1293 C1323 0.950 . S
C1294 H1276 0.951 . S
C1294 C1295 1.366 . S
C1294 C1296 1.388 . S
C1295 C1294 1.366 . S
C1295 C1299 1.385 . S
C1296 H1277 0.951 . S
C1296 C1294 1.388 . S
C1296 C1297 1.366 . S
C1297 C1296 1.366 . S
C1297 C1298 1.414 . S
C1297 C1300 1.499 . S
C1298 H1278 0.950 . S
C1298 C1297 1.414 . S
C1298 C1299 1.374 . S
C1299 H1279 0.950 . S
C1299 C1295 1.385 . S
C1299 C1298 1.374 . S
C1300 C1297 1.499 . S
C1300 C1301 1.373 . S
C1300 C1302 1.389 . S
C1301 H1280 0.950 . S
C1301 C1300 1.373 . S
C1301 C1317 1.377 . S
C1302 C1300 1.389 . S
C1302 C1303 1.524 . S
C1302 C1316 1.377 . S
C1303 C1302 1.524 . S
C1303 C1304 1.397 . S
C1303 C1308 1.363 . S
C1304 H1281 0.950 . S
C1304 C1303 1.397 . S
C1304 C1305 1.334 . S
C1305 H1282 0.950 . S
C1305 C1304 1.334 . S
C1305 C1306 1.287 . S
C1306 C1305 1.287 . S
C1306 C1307 1.524 . S
C1306 H1325 0.913 . S
C1307 H1283 0.950 . S
C1307 C1306 1.524 . S
C1307 C1308 1.415 . S
C1308 H1284 0.950 . S
C1308 C1303 1.363 . S
C1308 C1307 1.415 . S
C1309 H1285 0.951 . S
C1309 C1310 1.366 . S
C1309 C1311 1.388 . S
C1310 C1309 1.366 . S
C1310 C1314 1.385 . S
C1311 H1286 0.951 . S
C1311 C1309 1.388 . S
C1311 C1312 1.366 . S
C1312 C1311 1.366 . S
C1312 C1313 1.414 . S
C1312 C1315 1.499 . S
C1313 H1287 0.950 . S
C1313 C1312 1.414 . S
C1313 C1314 1.374 . S
C1314 H1288 0.950 . S
C1314 C1310 1.385 . S
C1314 C1313 1.374 . S
C1315 C1312 1.499 . S
C1315 C1316 1.373 . S
C1315 C1317 1.389 . S
C1316 H1289 0.950 . S
C1316 C1302 1.377 . S
C1316 C1315 1.373 . S
C1317 C1301 1.377 . S
C1317 C1315 1.389 . S
C1317 C1318 1.524 . S
C1318 C1317 1.524 . S
C1318 C1319 1.397 . S
C1318 C1323 1.363 . S
C1319 H1290 0.950 . S
C1319 C1318 1.397 . S
C1319 C1320 1.334 . S
C1320 H1291 0.950 . S
C1320 C1319 1.334 . S
C1320 C1321 1.287 . S
C1321 C1320 1.287 . S
C1321 C1322 1.524 . S
C1321 H1324 0.999 . S
C1322 H1292 0.950 . S
C1322 C1321 1.524 . S
C1322 C1323 1.415 . S
C1323 H1293 0.950 . S
C1323 C1318 1.363 . S
C1323 C1322 1.415 . S
H1324 C1321 0.999 . S
H1325 C1306 0.913 . S
H1326 C1344 0.951 . S
H1327 C1346 0.951 . S
H1328 C1348 0.950 . S
H1329 C1349 0.950 . S
H1330 C1351 0.950 . S
H1331 C1354 0.950 . S
H1332 C1355 0.950 . S
H1333 C1357 0.950 . S
H1334 C1358 0.950 . S
H1335 C1359 0.951 . S
H1336 C1361 0.951 1_545 S
H1337 C1363 0.950 . S
H1338 C1364 0.950 . S
H1339 C1366 0.950 1_565 S
H1340 C1369 0.950 . S
H1341 C1370 0.950 . S
H1342 C1372 0.950 . S
H1343 C1373 0.950 . S
C1344 H1326 0.951 . S
C1344 C1345 1.366 . S
C1344 C1346 1.388 . S
C1345 C1344 1.366 . S
C1345 C1349 1.385 . S
C1346 H1327 0.951 . S
C1346 C1344 1.388 . S
C1346 C1347 1.366 . S
C1347 C1346 1.366 . S
C1347 C1348 1.414 . S
C1347 C1350 1.499 . S
C1348 H1328 0.950 . S
C1348 C1347 1.414 . S
C1348 C1349 1.374 . S
C1349 H1329 0.950 . S
C1349 C1345 1.385 . S
C1349 C1348 1.374 . S
C1350 C1347 1.499 . S
C1350 C1351 1.373 . S
C1350 C1352 1.389 . S
C1351 H1330 0.950 . S
C1351 C1350 1.373 . S
C1351 C1367 1.377 . S
C1352 C1350 1.389 . S
C1352 C1353 1.524 . S
C1352 C1366 1.377 . S
C1353 C1352 1.524 . S
C1353 C1354 1.397 . S
C1353 C1358 1.363 1_545 S
C1354 H1331 0.950 . S
C1354 C1353 1.397 . S
C1354 C1355 1.334 . S
C1355 H1332 0.950 . S
C1355 C1354 1.334 . S
C1355 C1356 1.287 . S
C1356 C1355 1.287 . S
C1356 C1357 1.524 1_545 S
C1356 H1375 0.913 . S
C1357 H1333 0.950 . S
C1357 C1356 1.524 1_565 S
C1357 C1358 1.415 . S
C1358 H1334 0.950 . S
C1358 C1353 1.363 1_565 S
C1358 C1357 1.415 . S
C1359 H1335 0.951 . S
C1359 C1360 1.366 . S
C1359 C1361 1.388 . S
C1360 C1359 1.366 . S
C1360 C1364 1.385 . S
C1361 H1336 0.951 1_565 S
C1361 C1359 1.388 . S
C1361 C1362 1.366 . S
C1362 C1361 1.366 . S
C1362 C1363 1.414 . S
C1362 C1365 1.499 1_565 S
C1363 H1337 0.950 . S
C1363 C1362 1.414 . S
C1363 C1364 1.374 . S
C1364 H1338 0.950 . S
C1364 C1360 1.385 . S
C1364 C1363 1.374 . S
C1365 C1362 1.499 1_545 S
C1365 C1366 1.373 . S
C1365 C1367 1.389 . S
C1366 H1339 0.950 1_545 S
C1366 C1352 1.377 . S
C1366 C1365 1.373 . S
C1367 C1351 1.377 . S
C1367 C1365 1.389 . S
C1367 C1368 1.524 . S
C1368 C1367 1.524 . S
C1368 C1369 1.397 . S
C1368 C1373 1.363 . S
C1369 H1340 0.950 . S
C1369 C1368 1.397 . S
C1369 C1370 1.334 . S
C1370 H1341 0.950 . S
C1370 C1369 1.334 . S
C1370 C1371 1.287 . S
C1371 C1370 1.287 . S
C1371 C1372 1.524 . S
C1371 H1374 0.999 . S
C1372 H1342 0.950 . S
C1372 C1371 1.524 . S
C1372 C1373 1.415 . S
C1373 H1343 0.950 . S
C1373 C1368 1.363 . S
C1373 C1372 1.415 . S
H1374 C1371 0.999 . S
H1375 C1356 0.913 . S
H1376 C1394 0.951 . S
H1377 C1396 0.951 . S
H1378 C1398 0.950 . S
H1379 C1399 0.950 . S
H1380 C1401 0.950 . S
H1381 C1404 0.950 . S
H1382 C1405 0.950 . S
H1383 C1407 0.950 . S
H1384 C1408 0.950 . S
H1385 C1409 0.951 . S
H1386 C1411 0.951 . S
H1387 C1413 0.950 . S
H1388 C1414 0.950 . S
H1389 C1416 0.950 . S
H1390 C1419 0.950 . S
H1391 C1420 0.950 . S
H1392 C1422 0.950 . S
H1393 C1423 0.950 . S
C1394 H1376 0.951 . S
C1394 C1395 1.366 . S
C1394 C1396 1.388 . S
C1395 C1394 1.366 . S
C1395 C1399 1.385 . S
C1396 H1377 0.951 . S
C1396 C1394 1.388 . S
C1396 C1397 1.366 . S
C1397 C1396 1.366 . S
C1397 C1398 1.414 . S
C1397 C1400 1.499 . S
C1398 H1378 0.950 . S
C1398 C1397 1.414 . S
C1398 C1399 1.374 . S
C1399 H1379 0.950 . S
C1399 C1395 1.385 . S
C1399 C1398 1.374 . S
C1400 C1397 1.499 . S
C1400 C1401 1.373 . S
C1400 C1402 1.389 . S
C1401 H1380 0.950 . S
C1401 C1400 1.373 . S
C1401 C1417 1.377 . S
C1402 C1400 1.389 . S
C1402 C1403 1.524 . S
C1402 C1416 1.377 . S
C1403 C1402 1.524 . S
C1403 C1404 1.397 . S
C1403 C1408 1.363 . S
C1404 H1381 0.950 . S
C1404 C1403 1.397 . S
C1404 C1405 1.334 . S
C1405 H1382 0.950 . S
C1405 C1404 1.334 . S
C1405 C1406 1.287 . S
C1406 C1405 1.287 . S
C1406 C1407 1.524 . S
C1406 H1425 0.913 . S
C1407 H1383 0.950 . S
C1407 C1406 1.524 . S
C1407 C1408 1.415 . S
C1408 H1384 0.950 . S
C1408 C1403 1.363 . S
C1408 C1407 1.415 . S
C1409 H1385 0.951 . S
C1409 C1410 1.366 . S
C1409 C1411 1.388 . S
C1410 C1409 1.366 . S
C1410 C1414 1.385 . S
C1411 H1386 0.951 . S
C1411 C1409 1.388 . S
C1411 C1412 1.366 . S
C1412 C1411 1.366 . S
C1412 C1413 1.414 . S
C1412 C1415 1.499 . S
C1413 H1387 0.950 . S
C1413 C1412 1.414 . S
C1413 C1414 1.374 . S
C1414 H1388 0.950 . S
C1414 C1410 1.385 . S
C1414 C1413 1.374 . S
C1415 C1412 1.499 . S
C1415 C1416 1.373 . S
C1415 C1417 1.389 . S
C1416 H1389 0.950 . S
C1416 C1402 1.377 . S
C1416 C1415 1.373 . S
C1417 C1401 1.377 . S
C1417 C1415 1.389 . S
C1417 C1418 1.524 . S
C1418 C1417 1.524 . S
C1418 C1419 1.397 . S
C1418 C1423 1.363 . S
C1419 H1390 0.950 . S
C1419 C1418 1.397 . S
C1419 C1420 1.334 . S
C1420 H1391 0.950 . S
C1420 C1419 1.334 . S
C1420 C1421 1.287 . S
C1421 C1420 1.287 . S
C1421 C1422 1.524 . S
C1421 H1424 0.999 . S
C1422 H1392 0.950 . S
C1422 C1421 1.524 . S
C1422 C1423 1.415 . S
C1423 H1393 0.950 . S
C1423 C1418 1.363 . S
C1423 C1422 1.415 . S
H1424 C1421 0.999 . S
H1425 C1406 0.913 . S
H1426 C1444 0.951 . S
H1427 C1446 0.951 . S
H1428 C1448 0.950 . S
H1429 C1449 0.950 . S
H1430 C1451 0.950 . S
H1431 C1454 0.950 . S
H1432 C1455 0.950 . S
H1433 C1457 0.950 1_556 S
H1434 C1458 0.950 . S
H1435 C1459 0.951 . S
H1436 C1461 0.951 . S
H1437 C1463 0.950 . S
H1438 C1464 0.950 . S
H1439 C1466 0.950 . S
H1440 C1469 0.950 . S
H1441 C1470 0.950 . S
H1442 C1472 0.950 . S
H1443 C1473 0.950 . S
C1444 H1426 0.951 . S
C1444 C1445 1.366 . S
C1444 C1446 1.388 . S
C1445 C1444 1.366 . S
C1445 C1449 1.385 . S
C1446 H1427 0.951 . S
C1446 C1444 1.388 . S
C1446 C1447 1.366 . S
C1447 C1446 1.366 . S
C1447 C1448 1.414 . S
C1447 C1450 1.499 1_545 S
C1448 H1428 0.950 . S
C1448 C1447 1.414 . S
C1448 C1449 1.374 . S
C1449 H1429 0.950 . S
C1449 C1445 1.385 . S
C1449 C1448 1.374 . S
C1450 C1447 1.499 1_565 S
C1450 C1451 1.373 . S
C1450 C1452 1.389 . S
C1451 H1430 0.950 . S
C1451 C1450 1.373 . S
C1451 C1467 1.377 . S
C1452 C1450 1.389 . S
C1452 C1453 1.524 1_565 S
C1452 C1466 1.377 . S
C1453 C1452 1.524 1_545 S
C1453 C1454 1.397 . S
C1453 C1458 1.363 . S
C1454 H1431 0.950 . S
C1454 C1453 1.397 . S
C1454 C1455 1.334 . S
C1455 H1432 0.950 . S
C1455 C1454 1.334 . S
C1455 C1456 1.287 . S
C1456 C1455 1.287 . S
C1456 C1457 1.524 . S
C1456 H1475 0.913 . S
C1457 H1433 0.950 1_554 S
C1457 C1456 1.524 . S
C1457 C1458 1.415 . S
C1458 H1434 0.950 . S
C1458 C1453 1.363 . S
C1458 C1457 1.415 . S
C1459 H1435 0.951 . S
C1459 C1460 1.366 . S
C1459 C1461 1.388 . S
C1460 C1459 1.366 . S
C1460 C1464 1.385 1_554 S
C1461 H1436 0.951 . S
C1461 C1459 1.388 . S
C1461 C1462 1.366 . S
C1462 C1461 1.366 . S
C1462 C1463 1.414 . S
C1462 C1465 1.499 . S
C1463 H1437 0.950 . S
C1463 C1462 1.414 . S
C1463 C1464 1.374 1_554 S
C1464 H1438 0.950 . S
C1464 C1460 1.385 1_556 S
C1464 C1463 1.374 1_556 S
C1465 C1462 1.499 . S
C1465 C1466 1.373 . S
C1465 C1467 1.389 . S
C1466 H1439 0.950 . S
C1466 C1452 1.377 . S
C1466 C1465 1.373 . S
C1467 C1451 1.377 . S
C1467 C1465 1.389 . S
C1467 C1468 1.524 . S
C1468 C1467 1.524 . S
C1468 C1469 1.397 . S
C1468 C1473 1.363 . S
C1469 H1440 0.950 . S
C1469 C1468 1.397 . S
C1469 C1470 1.334 . S
C1470 H1441 0.950 . S
C1470 C1469 1.334 . S
C1470 C1471 1.287 . S
C1471 C1470 1.287 . S
C1471 C1472 1.524 . S
C1471 H1474 0.999 . S
C1472 H1442 0.950 . S
C1472 C1471 1.524 . S
C1472 C1473 1.415 . S
C1473 H1443 0.950 . S
C1473 C1468 1.363 . S
C1473 C1472 1.415 . S
H1474 C1471 0.999 . S
H1475 C1456 0.913 . S
H1476 C1494 0.951 . S
H1477 C1496 0.951 . S
H1478 C1498 0.950 . S
H1479 C1499 0.950 . S
H1480 C1501 0.950 . S
H1481 C1504 0.950 . S
H1482 C1505 0.950 . S
H1483 C1507 0.950 . S
H1484 C1508 0.950 . S
H1485 C1509 0.951 . S
H1486 C1511 0.951 . S
H1487 C1513 0.950 . S
H1488 C1514 0.950 . S
H1489 C1516 0.950 . S
H1490 C1519 0.950 . S
H1491 C1520 0.950 . S
H1492 C1522 0.950 . S
H1493 C1523 0.950 . S
C1494 H1476 0.951 . S
C1494 C1495 1.366 . S
C1494 C1496 1.388 . S
C1495 C1494 1.366 . S
C1495 C1499 1.385 . S
C1496 H1477 0.951 . S
C1496 C1494 1.388 . S
C1496 C1497 1.366 . S
C1497 C1496 1.366 . S
C1497 C1498 1.414 . S
C1497 C1500 1.499 . S
C1498 H1478 0.950 . S
C1498 C1497 1.414 . S
C1498 C1499 1.374 . S
C1499 H1479 0.950 . S
C1499 C1495 1.385 . S
C1499 C1498 1.374 . S
C1500 C1497 1.499 . S
C1500 C1501 1.373 . S
C1500 C1502 1.389 . S
C1501 H1480 0.950 . S
C1501 C1500 1.373 . S
C1501 C1517 1.377 . S
C1502 C1500 1.389 . S
C1502 C1503 1.524 . S
C1502 C1516 1.377 . S
C1503 C1502 1.524 . S
C1503 C1504 1.397 . S
C1503 C1508 1.363 . S
C1504 H1481 0.950 . S
C1504 C1503 1.397 . S
C1504 C1505 1.334 . S
C1505 H1482 0.950 . S
C1505 C1504 1.334 . S
C1505 C1506 1.287 . S
C1506 C1505 1.287 . S
C1506 C1507 1.524 . S
C1506 H1525 0.913 . S
C1507 H1483 0.950 . S
C1507 C1506 1.524 . S
C1507 C1508 1.415 . S
C1508 H1484 0.950 . S
C1508 C1503 1.363 . S
C1508 C1507 1.415 . S
C1509 H1485 0.951 . S
C1509 C1510 1.366 . S
C1509 C1511 1.388 . S
C1510 C1509 1.366 . S
C1510 C1514 1.385 . S
C1511 H1486 0.951 . S
C1511 C1509 1.388 . S
C1511 C1512 1.366 . S
C1512 C1511 1.366 . S
C1512 C1513 1.414 . S
C1512 C1515 1.499 . S
C1513 H1487 0.950 . S
C1513 C1512 1.414 . S
C1513 C1514 1.374 . S
C1514 H1488 0.950 . S
C1514 C1510 1.385 . S
C1514 C1513 1.374 . S
C1515 C1512 1.499 . S
C1515 C1516 1.373 . S
C1515 C1517 1.389 . S
C1516 H1489 0.950 . S
C1516 C1502 1.377 . S
C1516 C1515 1.373 . S
C1517 C1501 1.377 . S
C1517 C1515 1.389 . S
C1517 C1518 1.524 . S
C1518 C1517 1.524 . S
C1518 C1519 1.397 . S
C1518 C1523 1.363 . S
C1519 H1490 0.950 . S
C1519 C1518 1.397 . S
C1519 C1520 1.334 . S
C1520 H1491 0.950 . S
C1520 C1519 1.334 . S
C1520 C1521 1.287 . S
C1521 C1520 1.287 . S
C1521 C1522 1.524 . S
C1521 H1524 0.999 . S
C1522 H1492 0.950 . S
C1522 C1521 1.524 . S
C1522 C1523 1.415 . S
C1523 H1493 0.950 . S
C1523 C1518 1.363 . S
C1523 C1522 1.415 . S
H1524 C1521 0.999 . S
H1525 C1506 0.913 . S
H1526 C1544 0.951 . S
H1527 C1546 0.951 . S
H1528 C1548 0.950 . S
H1529 C1549 0.950 . S
H1530 C1551 0.950 . S
H1531 C1554 0.950 . S
H1532 C1555 0.950 . S
H1533 C1557 0.950 . S
H1534 C1558 0.950 . S
H1535 C1559 0.937 1_554 S
H1536 C1561 0.951 . S
H1537 C1563 0.950 . S
H1538 C1564 0.950 . S
H1539 C1566 0.950 . S
H1540 C1569 0.950 . S
H1541 C1570 0.950 . S
H1542 C1572 0.950 . S
H1543 C1573 0.950 . S
C1544 H1526 0.951 . S
C1544 C1545 1.366 . S
C1544 C1546 1.388 . S
C1545 C1544 1.366 . S
C1545 C1549 1.385 . S
C1546 H1527 0.951 . S
C1546 C1544 1.388 . S
C1546 C1547 1.366 . S
C1547 C1546 1.366 . S
C1547 C1548 1.414 . S
C1547 C1550 1.499 . S
C1548 H1528 0.950 . S
C1548 C1547 1.414 . S
C1548 C1549 1.374 . S
C1549 H1529 0.950 . S
C1549 C1545 1.385 . S
C1549 C1548 1.374 . S
C1550 C1547 1.499 . S
C1550 C1551 1.373 . S
C1550 C1552 1.389 . S
C1551 H1530 0.950 . S
C1551 C1550 1.373 . S
C1551 C1567 1.377 . S
C1552 C1550 1.389 . S
C1552 C1553 1.524 . S
C1552 C1566 1.377 . S
C1553 C1552 1.524 . S
C1553 C1554 1.397 . S
C1553 C1558 1.363 . S
C1554 H1531 0.950 . S
C1554 C1553 1.397 . S
C1554 C1555 1.334 . S
C1555 H1532 0.950 . S
C1555 C1554 1.334 . S
C1555 C1556 1.287 . S
C1556 C1555 1.287 . S
C1556 C1557 1.524 . S
C1556 H1575 0.913 . S
C1557 H1533 0.950 . S
C1557 C1556 1.524 . S
C1557 C1558 1.415 . S
C1558 H1534 0.950 . S
C1558 C1553 1.363 . S
C1558 C1557 1.415 . S
C1559 H1535 0.937 1_556 S
C1559 C1560 1.371 . S
C1559 C1561 1.396 . S
C1560 C1559 1.371 . S
C1560 C1564 1.385 . S
C1561 H1536 0.951 . S
C1561 C1559 1.396 . S
C1561 C1562 1.366 . S
C1562 C1561 1.366 . S
C1562 C1563 1.414 . S
C1562 C1565 1.499 . S
C1563 H1537 0.950 . S
C1563 C1562 1.414 . S
C1563 C1564 1.374 . S
C1564 H1538 0.950 . S
C1564 C1560 1.385 . S
C1564 C1563 1.374 . S
C1565 C1562 1.499 . S
C1565 C1566 1.373 . S
C1565 C1567 1.389 . S
C1566 H1539 0.950 . S
C1566 C1552 1.377 . S
C1566 C1565 1.373 . S
C1567 C1551 1.377 . S
C1567 C1565 1.389 . S
C1567 C1568 1.524 . S
C1568 C1567 1.524 . S
C1568 C1569 1.397 . S
C1568 C1573 1.363 . S
C1569 H1540 0.950 . S
C1569 C1568 1.397 . S
C1569 C1570 1.334 . S
C1570 H1541 0.950 . S
C1570 C1569 1.334 . S
C1570 C1571 1.287 1_556 S
C1571 C1570 1.287 1_554 S
C1571 C1572 1.524 . S
C1571 H1574 0.999 . S
C1572 H1542 0.950 . S
C1572 C1571 1.524 . S
C1572 C1573 1.415 1_554 S
C1573 H1543 0.950 . S
C1573 C1568 1.363 . S
C1573 C1572 1.415 1_556 S
H1574 C1571 0.999 . S
H1575 C1556 0.913 . S
H1576 C1594 0.951 . S
H1577 C1596 0.951 . S
H1578 C1598 0.950 . S
H1579 C1599 0.950 . S
H1580 C1601 0.950 . S
H1581 C1604 0.950 . S
H1582 C1605 0.950 . S
H1583 C1607 0.950 . S
H1584 C1608 0.950 . S
H1585 C1609 0.951 . S
H1586 C1611 0.951 . S
H1587 C1613 0.950 . S
H1588 C1614 0.950 . S
H1589 C1616 0.950 . S
H1590 C1619 0.950 . S
H1591 C1620 0.950 . S
H1592 C1622 0.950 . S
H1593 C1623 0.950 . S
C1594 H1576 0.951 . S
C1594 C1595 1.366 . S
C1594 C1596 1.388 . S
C1595 C1594 1.366 . S
C1595 C1599 1.385 . S
C1596 H1577 0.951 . S
C1596 C1594 1.388 . S
C1596 C1597 1.366 . S
C1597 C1596 1.366 . S
C1597 C1598 1.414 . S
C1597 C1600 1.499 . S
C1598 H1578 0.950 . S
C1598 C1597 1.414 . S
C1598 C1599 1.374 . S
C1599 H1579 0.950 . S
C1599 C1595 1.385 . S
C1599 C1598 1.374 . S
C1600 C1597 1.499 . S
C1600 C1601 1.373 . S
C1600 C1602 1.389 . S
C1601 H1580 0.950 . S
C1601 C1600 1.373 . S
C1601 C1617 1.377 . S
C1602 C1600 1.389 . S
C1602 C1603 1.524 . S
C1602 C1616 1.377 . S
C1603 C1602 1.524 . S
C1603 C1604 1.397 . S
C1603 C1608 1.363 . S
C1604 H1581 0.950 . S
C1604 C1603 1.397 . S
C1604 C1605 1.334 . S
C1605 H1582 0.950 . S
C1605 C1604 1.334 . S
C1605 C1606 1.287 . S
C1606 C1605 1.287 . S
C1606 C1607 1.524 . S
C1606 H1625 0.913 . S
C1607 H1583 0.950 . S
C1607 C1606 1.524 . S
C1607 C1608 1.415 . S
C1608 H1584 0.950 . S
C1608 C1603 1.363 . S
C1608 C1607 1.415 . S
C1609 H1585 0.951 . S
C1609 C1610 1.366 . S
C1609 C1611 1.388 . S
C1610 C1609 1.366 . S
C1610 C1614 1.385 . S
C1611 H1586 0.951 . S
C1611 C1609 1.388 . S
C1611 C1612 1.366 . S
C1612 C1611 1.366 . S
C1612 C1613 1.414 . S
C1612 C1615 1.499 . S
C1613 H1587 0.950 . S
C1613 C1612 1.414 . S
C1613 C1614 1.374 . S
C1614 H1588 0.950 . S
C1614 C1610 1.385 . S
C1614 C1613 1.374 . S
C1615 C1612 1.499 . S
C1615 C1616 1.373 . S
C1615 C1617 1.389 . S
C1616 H1589 0.950 . S
C1616 C1602 1.377 . S
C1616 C1615 1.373 . S
C1617 C1601 1.377 . S
C1617 C1615 1.389 . S
C1617 C1618 1.524 . S
C1618 C1617 1.524 . S
C1618 C1619 1.397 . S
C1618 C1623 1.363 . S
C1619 H1590 0.950 . S
C1619 C1618 1.397 . S
C1619 C1620 1.334 . S
C1620 H1591 0.950 . S
C1620 C1619 1.334 . S
C1620 C1621 1.287 . S
C1621 C1620 1.287 . S
C1621 C1622 1.524 . S
C1621 H1624 0.999 . S
C1622 H1592 0.950 . S
C1622 C1621 1.524 . S
C1622 C1623 1.415 . S
C1623 H1593 0.950 . S
C1623 C1618 1.363 . S
C1623 C1622 1.415 . S
H1624 C1621 0.999 . S
H1625 C1606 0.913 . S
H1626 C1644 0.951 . S
H1627 C1646 0.951 . S
H1628 C1648 0.950 . S
H1629 C1649 0.950 . S
H1630 C1651 0.950 . S
H1631 C1654 0.950 . S
H1632 C1655 0.950 . S
H1633 C1657 0.950 . S
H1634 C1658 0.950 . S
H1635 C1659 0.951 . S
H1636 C1661 0.951 . S
H1637 C1663 0.950 . S
H1638 C1664 0.950 . S
H1639 C1666 0.950 . S
H1640 C1669 0.950 . S
H1641 C1670 0.950 . S
H1642 C1672 0.950 . S
H1643 C1673 0.950 . S
C1644 H1626 0.951 . S
C1644 C1645 1.366 . S
C1644 C1646 1.388 . S
C1645 C1644 1.366 . S
C1645 C1649 1.385 . S
C1646 H1627 0.951 . S
C1646 C1644 1.388 . S
C1646 C1647 1.366 . S
C1647 C1646 1.366 . S
C1647 C1648 1.414 . S
C1647 C1650 1.499 . S
C1648 H1628 0.950 . S
C1648 C1647 1.414 . S
C1648 C1649 1.374 . S
C1649 H1629 0.950 . S
C1649 C1645 1.385 . S
C1649 C1648 1.374 . S
C1650 C1647 1.499 . S
C1650 C1651 1.373 . S
C1650 C1652 1.389 . S
C1651 H1630 0.950 . S
C1651 C1650 1.373 . S
C1651 C1667 1.377 . S
C1652 C1650 1.389 . S
C1652 C1653 1.524 . S
C1652 C1666 1.377 . S
C1653 C1652 1.524 . S
C1653 C1654 1.397 . S
C1653 C1658 1.363 . S
C1654 H1631 0.950 . S
C1654 C1653 1.397 . S
C1654 C1655 1.334 . S
C1655 H1632 0.950 . S
C1655 C1654 1.334 . S
C1655 C1656 1.287 . S
C1656 C1655 1.287 . S
C1656 C1657 1.524 . S
C1656 H1675 0.913 . S
C1657 H1633 0.950 . S
C1657 C1656 1.524 . S
C1657 C1658 1.415 . S
C1658 H1634 0.950 . S
C1658 C1653 1.363 . S
C1658 C1657 1.415 . S
C1659 H1635 0.951 . S
C1659 C1660 1.366 . S
C1659 C1661 1.388 . S
C1660 C1659 1.366 . S
C1660 C1664 1.385 . S
C1661 H1636 0.951 . S
C1661 C1659 1.388 . S
C1661 C1662 1.366 . S
C1662 C1661 1.366 . S
C1662 C1663 1.414 . S
C1662 C1665 1.499 . S
C1663 H1637 0.950 . S
C1663 C1662 1.414 . S
C1663 C1664 1.374 . S
C1664 H1638 0.950 . S
C1664 C1660 1.385 . S
C1664 C1663 1.374 . S
C1665 C1662 1.499 . S
C1665 C1666 1.373 . S
C1665 C1667 1.389 . S
C1666 H1639 0.950 . S
C1666 C1652 1.377 . S
C1666 C1665 1.373 . S
C1667 C1651 1.377 . S
C1667 C1665 1.389 . S
C1667 C1668 1.524 . S
C1668 C1667 1.524 . S
C1668 C1669 1.397 . S
C1668 C1673 1.363 . S
C1669 H1640 0.950 . S
C1669 C1668 1.397 . S
C1669 C1670 1.334 . S
C1670 H1641 0.950 . S
C1670 C1669 1.334 . S
C1670 C1671 1.287 . S
C1671 C1670 1.287 . S
C1671 C1672 1.524 . S
C1671 H1674 0.999 . S
C1672 H1642 0.950 . S
C1672 C1671 1.524 . S
C1672 C1673 1.415 . S
C1673 H1643 0.950 . S
C1673 C1668 1.363 . S
C1673 C1672 1.415 . S
H1674 C1671 0.999 . S
H1675 C1656 0.913 . S
H1676 C1694 0.951 . S
H1677 C1696 0.951 . S
H1678 C1698 0.950 . S
H1679 C1699 0.950 . S
H1680 C1701 0.950 . S
H1681 C1704 0.950 . S
H1682 C1705 0.950 . S
H1683 C1707 0.950 . S
H1684 C1708 0.950 . S
H1685 C1709 0.951 . S
H1686 C1711 0.951 . S
H1687 C1713 0.950 . S
H1688 C1714 0.950 . S
H1689 C1716 0.950 . S
H1690 C1719 0.950 . S
H1691 C1720 0.950 . S
H1692 C1722 0.950 . S
H1693 C1723 0.950 . S
C1694 H1676 0.951 . S
C1694 C1695 1.366 . S
C1694 C1696 1.388 . S
C1695 C1694 1.366 . S
C1695 C1699 1.385 . S
C1696 H1677 0.951 . S
C1696 C1694 1.388 . S
C1696 C1697 1.366 . S
C1697 C1696 1.366 . S
C1697 C1698 1.414 . S
C1697 C1700 1.499 . S
C1698 H1678 0.950 . S
C1698 C1697 1.414 . S
C1698 C1699 1.374 . S
C1699 H1679 0.950 . S
C1699 C1695 1.385 . S
C1699 C1698 1.374 . S
C1700 C1697 1.499 . S
C1700 C1701 1.373 . S
C1700 C1702 1.389 . S
C1701 H1680 0.950 . S
C1701 C1700 1.373 . S
C1701 C1717 1.377 . S
C1702 C1700 1.389 . S
C1702 C1703 1.524 . S
C1702 C1716 1.377 . S
C1703 C1702 1.524 . S
C1703 C1704 1.397 . S
C1703 C1708 1.363 . S
C1704 H1681 0.950 . S
C1704 C1703 1.397 . S
C1704 C1705 1.334 . S
C1705 H1682 0.950 . S
C1705 C1704 1.334 . S
C1705 C1706 1.287 . S
C1706 C1705 1.287 . S
C1706 C1707 1.524 . S
C1706 H1725 0.913 . S
C1707 H1683 0.950 . S
C1707 C1706 1.524 . S
C1707 C1708 1.415 . S
C1708 H1684 0.950 . S
C1708 C1703 1.363 . S
C1708 C1707 1.415 . S
C1709 H1685 0.951 . S
C1709 C1710 1.366 . S
C1709 C1711 1.388 . S
C1710 C1709 1.366 . S
C1710 C1714 1.385 . S
C1711 H1686 0.951 . S
C1711 C1709 1.388 . S
C1711 C1712 1.366 . S
C1712 C1711 1.366 . S
C1712 C1713 1.414 . S
C1712 C1715 1.499 . S
C1713 H1687 0.950 . S
C1713 C1712 1.414 . S
C1713 C1714 1.374 . S
C1714 H1688 0.950 . S
C1714 C1710 1.385 . S
C1714 C1713 1.374 . S
C1715 C1712 1.499 . S
C1715 C1716 1.373 . S
C1715 C1717 1.389 . S
C1716 H1689 0.950 . S
C1716 C1702 1.377 . S
C1716 C1715 1.373 . S
C1717 C1701 1.377 . S
C1717 C1715 1.389 . S
C1717 C1718 1.524 . S
C1718 C1717 1.524 . S
C1718 C1719 1.397 . S
C1718 C1723 1.363 . S
C1719 H1690 0.950 . S
C1719 C1718 1.397 . S
C1719 C1720 1.334 . S
C1720 H1691 0.950 . S
C1720 C1719 1.334 . S
C1720 C1721 1.287 . S
C1721 C1720 1.287 . S
C1721 C1722 1.524 . S
C1721 H1724 0.999 . S
C1722 H1692 0.950 . S
C1722 C1721 1.524 . S
C1722 C1723 1.415 . S
C1723 H1693 0.950 . S
C1723 C1718 1.363 . S
C1723 C1722 1.415 . S
H1724 C1721 0.999 . S
H1725 C1706 0.913 . S
H1726 C1744 0.951 . S
H1727 C1746 0.951 . S
H1728 C1748 0.950 . S
H1729 C1749 0.950 . S
H1730 C1751 0.950 . S
H1731 C1754 0.950 . S
H1732 C1755 0.950 . S
H1733 C1757 0.950 . S
H1734 C1758 0.950 . S
H1735 C1759 0.951 . S
H1736 C1761 0.951 . S
H1737 C1763 0.950 . S
H1738 C1764 0.950 . S
H1739 C1766 0.950 . S
H1740 C1769 0.950 . S
H1741 C1770 0.950 . S
H1742 C1772 0.950 . S
H1743 C1773 0.950 . S
C1744 H1726 0.951 . S
C1744 C1745 1.366 . S
C1744 C1746 1.388 . S
C1745 C1744 1.366 . S
C1745 C1749 1.385 . S
C1746 H1727 0.951 . S
C1746 C1744 1.388 . S
C1746 C1747 1.366 . S
C1747 C1746 1.366 . S
C1747 C1748 1.414 . S
C1747 C1750 1.499 . S
C1748 H1728 0.950 . S
C1748 C1747 1.414 . S
C1748 C1749 1.374 . S
C1749 H1729 0.950 . S
C1749 C1745 1.385 . S
C1749 C1748 1.374 . S
C1750 C1747 1.499 . S
C1750 C1751 1.373 . S
C1750 C1752 1.389 . S
C1751 H1730 0.950 . S
C1751 C1750 1.373 . S
C1751 C1767 1.377 . S
C1752 C1750 1.389 . S
C1752 C1753 1.524 . S
C1752 C1766 1.377 . S
C1753 C1752 1.524 . S
C1753 C1754 1.397 . S
C1753 C1758 1.363 . S
C1754 H1731 0.950 . S
C1754 C1753 1.397 . S
C1754 C1755 1.334 . S
C1755 H1732 0.950 . S
C1755 C1754 1.334 . S
C1755 C1756 1.287 . S
C1756 C1755 1.287 . S
C1756 C1757 1.524 . S
C1756 H1775 0.913 . S
C1757 H1733 0.950 . S
C1757 C1756 1.524 . S
C1757 C1758 1.415 . S
C1758 H1734 0.950 . S
C1758 C1753 1.363 . S
C1758 C1757 1.415 . S
C1759 H1735 0.951 . S
C1759 C1760 1.366 . S
C1759 C1761 1.388 . S
C1760 C1759 1.366 . S
C1760 C1764 1.385 . S
C1761 H1736 0.951 . S
C1761 C1759 1.388 . S
C1761 C1762 1.366 . S
C1762 C1761 1.366 . S
C1762 C1763 1.414 . S
C1762 C1765 1.499 . S
C1763 H1737 0.950 . S
C1763 C1762 1.414 . S
C1763 C1764 1.374 . S
C1764 H1738 0.950 . S
C1764 C1760 1.385 . S
C1764 C1763 1.374 . S
C1765 C1762 1.499 . S
C1765 C1766 1.373 . S
C1765 C1767 1.389 . S
C1766 H1739 0.950 . S
C1766 C1752 1.377 . S
C1766 C1765 1.373 . S
C1767 C1751 1.377 . S
C1767 C1765 1.389 . S
C1767 C1768 1.524 . S
C1768 C1767 1.524 . S
C1768 C1769 1.397 . S
C1768 C1773 1.363 . S
C1769 H1740 0.950 . S
C1769 C1768 1.397 . S
C1769 C1770 1.334 . S
C1770 H1741 0.950 . S
C1770 C1769 1.334 . S
C1770 C1771 1.287 . S
C1771 C1770 1.287 . S
C1771 C1772 1.524 . S
C1771 H1774 0.999 . S
C1772 H1742 0.950 . S
C1772 C1771 1.524 . S
C1772 C1773 1.415 . S
C1773 H1743 0.950 . S
C1773 C1768 1.363 . S
C1773 C1772 1.415 . S
H1774 C1771 0.999 . S
H1775 C1756 0.913 . S
H1776 C1794 0.951 . S
H1777 C1796 0.951 . S
H1778 C1798 0.950 . S
H1779 C1799 0.950 . S
H1780 C1801 0.950 . S
H1781 C1804 0.950 . S
H1782 C1805 0.950 . S
H1783 C1807 0.950 . S
H1784 C1808 0.950 . S
H1785 C1809 0.951 . S
H1786 C1811 0.951 . S
H1787 C1813 0.950 . S
H1788 C1814 0.950 . S
H1789 C1816 0.950 . S
H1790 C1819 0.950 . S
H1791 C1820 0.950 . S
H1792 C1822 0.949 1_655 S
H1793 C1823 0.950 . S
C1794 H1776 0.951 . S
C1794 C1795 1.366 . S
C1794 C1796 1.388 . S
C1795 C1794 1.366 . S
C1795 C1799 1.385 . S
C1796 H1777 0.951 . S
C1796 C1794 1.388 . S
C1796 C1797 1.366 . S
C1797 C1796 1.366 . S
C1797 C1798 1.414 . S
C1797 C1800 1.499 . S
C1798 H1778 0.950 . S
C1798 C1797 1.414 . S
C1798 C1799 1.374 . S
C1799 H1779 0.950 . S
C1799 C1795 1.385 . S
C1799 C1798 1.374 . S
C1800 C1797 1.499 . S
C1800 C1801 1.373 . S
C1800 C1802 1.389 . S
C1801 H1780 0.950 . S
C1801 C1800 1.373 . S
C1801 C1817 1.377 . S
C1802 C1800 1.389 . S
C1802 C1803 1.524 . S
C1802 C1816 1.377 . S
C1803 C1802 1.524 . S
C1803 C1804 1.397 . S
C1803 C1808 1.363 . S
C1804 H1781 0.950 . S
C1804 C1803 1.397 . S
C1804 C1805 1.334 . S
C1805 H1782 0.950 . S
C1805 C1804 1.334 . S
C1805 C1806 1.287 . S
C1806 C1805 1.287 . S
C1806 C1807 1.524 . S
C1806 H1825 0.913 . S
C1807 H1783 0.950 . S
C1807 C1806 1.524 . S
C1807 C1808 1.415 . S
C1808 H1784 0.950 . S
C1808 C1803 1.363 . S
C1808 C1807 1.415 . S
C1809 H1785 0.951 . S
C1809 C1810 1.366 . S
C1809 C1811 1.388 . S
C1810 C1809 1.366 . S
C1810 C1814 1.385 . S
C1811 H1786 0.951 . S
C1811 C1809 1.388 . S
C1811 C1812 1.366 . S
C1812 C1811 1.366 . S
C1812 C1813 1.414 . S
C1812 C1815 1.499 1_655 S
C1813 H1787 0.950 . S
C1813 C1812 1.414 . S
C1813 C1814 1.374 . S
C1814 H1788 0.950 . S
C1814 C1810 1.385 . S
C1814 C1813 1.374 . S
C1815 C1812 1.499 1_455 S
C1815 C1816 1.373 . S
C1815 C1817 1.389 . S
C1816 H1789 0.950 . S
C1816 C1802 1.377 . S
C1816 C1815 1.373 . S
C1817 C1801 1.377 . S
C1817 C1815 1.389 . S
C1817 C1818 1.524 . S
C1818 C1817 1.524 . S
C1818 C1819 1.397 . S
C1818 C1823 1.363 . S
C1819 H1790 0.950 . S
C1819 C1818 1.397 . S
C1819 C1820 1.334 . S
C1820 H1791 0.950 . S
C1820 C1819 1.334 . S
C1820 C1821 1.287 . S
C1821 C1820 1.287 . S
C1821 C1822 1.524 . S
C1821 H1824 0.999 1_554 S
C1822 H1792 0.949 1_455 S
C1822 C1821 1.524 . S
C1822 C1823 1.415 . S
C1823 H1793 0.950 . S
C1823 C1818 1.363 . S
C1823 C1822 1.415 . S
H1824 C1821 0.999 1_556 S
H1825 C1806 0.913 . S
H1826 C1844 0.951 . S
H1827 C1846 0.951 . S
H1828 C1848 0.950 . S
H1829 C1849 0.950 . S
H1830 C1851 0.950 . S
H1831 C1854 0.950 . S
H1832 C1855 0.950 . S
H1833 C1857 0.950 . S
H1834 C1858 0.950 . S
H1835 C1859 0.951 . S
H1836 C1861 0.951 . S
H1837 C1863 0.950 . S
H1838 C1864 0.950 . S
H1839 C1866 0.950 . S
H1840 C1869 0.950 . S
H1841 C1870 0.950 . S
H1842 C1872 0.950 . S
H1843 C1873 0.950 . S
C1844 H1826 0.951 . S
C1844 C1845 1.366 . S
C1844 C1846 1.388 . S
C1845 C1844 1.366 . S
C1845 C1849 1.385 . S
C1846 H1827 0.951 . S
C1846 C1844 1.388 . S
C1846 C1847 1.366 . S
C1847 C1846 1.366 . S
C1847 C1848 1.414 . S
C1847 C1850 1.499 . S
C1848 H1828 0.950 . S
C1848 C1847 1.414 . S
C1848 C1849 1.374 . S
C1849 H1829 0.950 . S
C1849 C1845 1.385 . S
C1849 C1848 1.374 . S
C1850 C1847 1.499 . S
C1850 C1851 1.373 . S
C1850 C1852 1.389 . S
C1851 H1830 0.950 . S
C1851 C1850 1.373 . S
C1851 C1867 1.377 . S
C1852 C1850 1.389 . S
C1852 C1853 1.524 . S
C1852 C1866 1.377 . S
C1853 C1852 1.524 . S
C1853 C1854 1.397 . S
C1853 C1858 1.363 . S
C1854 H1831 0.950 . S
C1854 C1853 1.397 . S
C1854 C1855 1.334 . S
C1855 H1832 0.950 . S
C1855 C1854 1.334 . S
C1855 C1856 1.287 . S
C1856 C1855 1.287 . S
C1856 C1857 1.524 . S
C1856 H1875 0.913 . S
C1857 H1833 0.950 . S
C1857 C1856 1.524 . S
C1857 C1858 1.415 . S
C1858 H1834 0.950 . S
C1858 C1853 1.363 . S
C1858 C1857 1.415 . S
C1859 H1835 0.951 . S
C1859 C1860 1.366 . S
C1859 C1861 1.388 . S
C1860 C1859 1.366 . S
C1860 C1864 1.385 . S
C1861 H1836 0.951 . S
C1861 C1859 1.388 . S
C1861 C1862 1.366 . S
C1862 C1861 1.366 . S
C1862 C1863 1.414 . S
C1862 C1865 1.499 . S
C1863 H1837 0.950 . S
C1863 C1862 1.414 . S
C1863 C1864 1.374 . S
C1864 H1838 0.950 . S
C1864 C1860 1.385 . S
C1864 C1863 1.374 . S
C1865 C1862 1.499 . S
C1865 C1866 1.373 . S
C1865 C1867 1.389 . S
C1866 H1839 0.950 . S
C1866 C1852 1.377 . S
C1866 C1865 1.373 . S
C1867 C1851 1.377 . S
C1867 C1865 1.389 . S
C1867 C1868 1.524 . S
C1868 C1867 1.524 . S
C1868 C1869 1.397 . S
C1868 C1873 1.363 . S
C1869 H1840 0.950 . S
C1869 C1868 1.397 . S
C1869 C1870 1.334 . S
C1870 H1841 0.950 . S
C1870 C1869 1.334 . S
C1870 C1871 1.287 . S
C1871 C1870 1.287 . S
C1871 C1872 1.524 . S
C1871 H1874 0.999 . S
C1872 H1842 0.950 . S
C1872 C1871 1.524 . S
C1872 C1873 1.415 . S
C1873 H1843 0.950 . S
C1873 C1868 1.363 . S
C1873 C1872 1.415 . S
H1874 C1871 0.999 . S
H1875 C1856 0.913 . S
H1876 C1894 0.951 . S
H1877 C1896 0.951 . S
H1878 C1898 0.950 . S
H1879 C1899 0.950 . S
H1880 C1901 0.950 . S
H1881 C1904 0.950 . S
H1882 C1905 0.950 . S
H1883 C1907 0.950 . S
H1884 C1908 0.950 . S
H1885 C1909 0.951 . S
H1886 C1911 0.951 . S
H1887 C1913 0.950 . S
H1888 C1914 0.950 . S
H1889 C1916 0.950 . S
H1890 C1919 0.950 . S
H1891 C1920 0.950 . S
H1892 C1922 0.950 . S
H1893 C1923 0.950 . S
C1894 H1876 0.951 . S
C1894 C1895 1.366 . S
C1894 C1896 1.388 . S
C1895 C1894 1.366 . S
C1895 C1899 1.385 . S
C1896 H1877 0.951 . S
C1896 C1894 1.388 . S
C1896 C1897 1.366 . S
C1897 C1896 1.366 . S
C1897 C1898 1.414 . S
C1897 C1900 1.499 . S
C1898 H1878 0.950 . S
C1898 C1897 1.414 . S
C1898 C1899 1.374 . S
C1899 H1879 0.950 . S
C1899 C1895 1.385 . S
C1899 C1898 1.374 . S
C1900 C1897 1.499 . S
C1900 C1901 1.373 . S
C1900 C1902 1.389 . S
C1901 H1880 0.950 . S
C1901 C1900 1.373 . S
C1901 C1917 1.377 . S
C1902 C1900 1.389 . S
C1902 C1903 1.524 . S
C1902 C1916 1.377 . S
C1903 C1902 1.524 . S
C1903 C1904 1.397 . S
C1903 C1908 1.363 . S
C1904 H1881 0.950 . S
C1904 C1903 1.397 . S
C1904 C1905 1.334 . S
C1905 H1882 0.950 . S
C1905 C1904 1.334 . S
C1905 C1906 1.287 . S
C1906 C1905 1.287 . S
C1906 C1907 1.524 . S
C1906 H1925 0.913 . S
C1907 H1883 0.950 . S
C1907 C1906 1.524 . S
C1907 C1908 1.415 . S
C1908 H1884 0.950 . S
C1908 C1903 1.363 . S
C1908 C1907 1.415 . S
C1909 H1885 0.951 . S
C1909 C1910 1.366 . S
C1909 C1911 1.388 . S
C1910 C1909 1.366 . S
C1910 C1914 1.385 . S
C1911 H1886 0.951 . S
C1911 C1909 1.388 . S
C1911 C1912 1.366 . S
C1912 C1911 1.366 . S
C1912 C1913 1.414 . S
C1912 C1915 1.499 . S
C1913 H1887 0.950 . S
C1913 C1912 1.414 . S
C1913 C1914 1.374 . S
C1914 H1888 0.950 . S
C1914 C1910 1.385 . S
C1914 C1913 1.374 . S
C1915 C1912 1.499 . S
C1915 C1916 1.373 . S
C1915 C1917 1.389 . S
C1916 H1889 0.950 . S
C1916 C1902 1.377 . S
C1916 C1915 1.373 . S
C1917 C1901 1.377 . S
C1917 C1915 1.389 . S
C1917 C1918 1.524 . S
C1918 C1917 1.524 . S
C1918 C1919 1.397 . S
C1918 C1923 1.363 . S
C1919 H1890 0.950 . S
C1919 C1918 1.397 . S
C1919 C1920 1.334 . S
C1920 H1891 0.950 . S
C1920 C1919 1.334 . S
C1920 C1921 1.287 . S
C1921 C1920 1.287 . S
C1921 C1922 1.524 . S
C1921 H1924 0.999 . S
C1922 H1892 0.950 . S
C1922 C1921 1.524 . S
C1922 C1923 1.415 . S
C1923 H1893 0.950 . S
C1923 C1918 1.363 . S
C1923 C1922 1.415 . S
H1924 C1921 0.999 . S
H1925 C1906 0.913 . S
H1926 C1944 0.951 . S
H1927 C1946 0.951 . S
H1928 C1948 0.950 . S
H1929 C1949 0.950 . S
H1930 C1951 0.950 . S
H1931 C1954 0.950 . S
H1932 C1955 0.950 . S
H1933 C1957 0.950 . S
H1934 C1958 0.950 . S
H1935 C1959 0.951 . S
H1936 C1961 0.951 . S
H1937 C1963 0.950 . S
H1938 C1964 0.950 . S
H1939 C1966 0.950 . S
H1940 C1969 0.950 . S
H1941 C1970 0.950 . S
H1942 C1972 0.950 . S
H1943 C1973 0.950 . S
C1944 H1926 0.951 . S
C1944 C1945 1.366 . S
C1944 C1946 1.388 . S
C1945 C1944 1.366 . S
C1945 C1949 1.385 . S
C1946 H1927 0.951 . S
C1946 C1944 1.388 . S
C1946 C1947 1.366 . S
C1947 C1946 1.366 . S
C1947 C1948 1.414 . S
C1947 C1950 1.499 . S
C1948 H1928 0.950 . S
C1948 C1947 1.414 . S
C1948 C1949 1.374 . S
C1949 H1929 0.950 . S
C1949 C1945 1.385 . S
C1949 C1948 1.374 . S
C1950 C1947 1.499 . S
C1950 C1951 1.373 . S
C1950 C1952 1.389 . S
C1951 H1930 0.950 . S
C1951 C1950 1.373 . S
C1951 C1967 1.377 . S
C1952 C1950 1.389 . S
C1952 C1953 1.524 . S
C1952 C1966 1.377 . S
C1953 C1952 1.524 . S
C1953 C1954 1.397 . S
C1953 C1958 1.363 . S
C1954 H1931 0.950 . S
C1954 C1953 1.397 . S
C1954 C1955 1.334 . S
C1955 H1932 0.950 . S
C1955 C1954 1.334 . S
C1955 C1956 1.287 . S
C1956 C1955 1.287 . S
C1956 C1957 1.524 . S
C1956 H1975 0.913 . S
C1957 H1933 0.950 . S
C1957 C1956 1.524 . S
C1957 C1958 1.415 . S
C1958 H1934 0.950 . S
C1958 C1953 1.363 . S
C1958 C1957 1.415 . S
C1959 H1935 0.951 . S
C1959 C1960 1.366 . S
C1959 C1961 1.388 . S
C1960 C1959 1.366 . S
C1960 C1964 1.385 . S
C1961 H1936 0.951 . S
C1961 C1959 1.388 . S
C1961 C1962 1.366 . S
C1962 C1961 1.366 . S
C1962 C1963 1.414 . S
C1962 C1965 1.499 . S
C1963 H1937 0.950 . S
C1963 C1962 1.414 . S
C1963 C1964 1.374 . S
C1964 H1938 0.950 . S
C1964 C1960 1.385 . S
C1964 C1963 1.374 . S
C1965 C1962 1.499 . S
C1965 C1966 1.373 . S
C1965 C1967 1.389 . S
C1966 H1939 0.950 . S
C1966 C1952 1.377 . S
C1966 C1965 1.373 . S
C1967 C1951 1.377 . S
C1967 C1965 1.389 . S
C1967 C1968 1.524 . S
C1968 C1967 1.524 . S
C1968 C1969 1.397 . S
C1968 C1973 1.363 . S
C1969 H1940 0.950 . S
C1969 C1968 1.397 . S
C1969 C1970 1.334 . S
C1970 H1941 0.950 . S
C1970 C1969 1.334 . S
C1970 C1971 1.287 . S
C1971 C1970 1.287 . S
C1971 C1972 1.524 . S
C1971 H1974 0.999 . S
C1972 H1942 0.950 . S
C1972 C1971 1.524 . S
C1972 C1973 1.415 . S
C1973 H1943 0.950 . S
C1973 C1968 1.363 . S
C1973 C1972 1.415 . S
H1974 C1971 0.999 . S
H1975 C1956 0.913 . S
H1976 C1994 0.951 . S
H1977 C1996 0.951 . S
H1978 C1998 0.950 . S
H1979 C1999 0.950 . S
H1980 C2001 0.950 . S
H1981 C2004 0.950 . S
H1982 C2005 0.950 . S
H1983 C2007 0.950 1_545 S
H1984 C2008 0.950 . S
H1985 C2009 0.951 . S
H1986 C2011 0.951 . S
H1987 C2013 0.950 . S
H1988 C2014 0.950 1_545 S
H1989 C2016 0.950 . S
H1990 C2019 0.950 . S
H1991 C2020 0.950 . S
H1992 C2022 0.950 . S
H1993 C2023 0.950 . S
C1994 H1976 0.951 . S
C1994 C1995 1.366 . S
C1994 C1996 1.388 . S
C1995 C1994 1.366 . S
C1995 C1999 1.385 . S
C1996 H1977 0.951 . S
C1996 C1994 1.388 . S
C1996 C1997 1.366 . S
C1997 C1996 1.366 . S
C1997 C1998 1.414 . S
C1997 C2000 1.499 . S
C1998 H1978 0.950 . S
C1998 C1997 1.414 . S
C1998 C1999 1.374 . S
C1999 H1979 0.950 . S
C1999 C1995 1.385 . S
C1999 C1998 1.374 . S
C2000 C1997 1.499 . S
C2000 C2001 1.373 . S
C2000 C2002 1.389 . S
C2001 H1980 0.950 . S
C2001 C2000 1.373 . S
C2001 C2017 1.377 . S
C2002 C2000 1.389 . S
C2002 C2003 1.524 . S
C2002 C2016 1.377 . S
C2003 C2002 1.524 . S
C2003 C2004 1.397 . S
C2003 C2008 1.363 . S
C2004 H1981 0.950 . S
C2004 C2003 1.397 . S
C2004 C2005 1.334 . S
C2005 H1982 0.950 . S
C2005 C2004 1.334 . S
C2005 C2006 1.287 . S
C2006 C2005 1.287 . S
C2006 C2007 1.524 . S
C2006 H2025 0.913 . S
C2007 H1983 0.950 1_565 S
C2007 C2006 1.524 . S
C2007 C2008 1.415 . S
C2008 H1984 0.950 . S
C2008 C2003 1.363 . S
C2008 C2007 1.415 . S
C2009 H1985 0.951 . S
C2009 C2010 1.366 . S
C2009 C2011 1.388 . S
C2010 C2009 1.366 . S
C2010 C2014 1.385 . S
C2011 H1986 0.951 . S
C2011 C2009 1.388 . S
C2011 C2012 1.366 . S
C2012 C2011 1.366 . S
C2012 C2013 1.414 . S
C2012 C2015 1.499 . S
C2013 H1987 0.950 . S
C2013 C2012 1.414 . S
C2013 C2014 1.374 . S
C2014 H1988 0.950 1_565 S
C2014 C2010 1.385 . S
C2014 C2013 1.374 . S
C2015 C2012 1.499 . S
C2015 C2016 1.373 . S
C2015 C2017 1.389 . S
C2016 H1989 0.950 . S
C2016 C2002 1.377 . S
C2016 C2015 1.373 . S
C2017 C2001 1.377 . S
C2017 C2015 1.389 . S
C2017 C2018 1.524 . S
C2018 C2017 1.524 . S
C2018 C2019 1.397 . S
C2018 C2023 1.363 . S
C2019 H1990 0.950 . S
C2019 C2018 1.397 . S
C2019 C2020 1.334 . S
C2020 H1991 0.950 . S
C2020 C2019 1.334 . S
C2020 C2021 1.287 . S
C2021 C2020 1.287 . S
C2021 C2022 1.524 . S
C2021 H2024 0.999 . S
C2022 H1992 0.950 . S
C2022 C2021 1.524 . S
C2022 C2023 1.415 . S
C2023 H1993 0.950 . S
C2023 C2018 1.363 . S
C2023 C2022 1.415 . S
H2024 C2021 0.999 . S
H2025 C2006 0.913 . S
H2026 C2044 0.951 . S
H2027 C2046 0.951 . S
H2028 C2048 0.950 . S
H2029 C2049 0.950 1_565 S
H2030 C2051 0.950 . S
H2031 C2054 0.950 . S
H2032 C2055 0.950 . S
H2033 C2057 0.950 . S
H2034 C2058 0.950 . S
H2035 C2059 0.951 . S
H2036 C2061 0.951 . S
H2037 C2063 0.950 1_655 S
H2038 C2064 0.950 . S
H2039 C2066 0.950 . S
H2040 C2069 0.950 . S
H2041 C2070 0.950 . S
H2042 C2072 0.950 . S
H2043 C2073 0.950 . S
C2044 H2026 0.951 . S
C2044 C2045 1.366 . S
C2044 C2046 1.388 . S
C2045 C2044 1.366 . S
C2045 C2049 1.385 . S
C2046 H2027 0.951 . S
C2046 C2044 1.388 . S
C2046 C2047 1.366 . S
C2047 C2046 1.366 . S
C2047 C2048 1.414 . S
C2047 C2050 1.499 . S
C2048 H2028 0.950 . S
C2048 C2047 1.414 . S
C2048 C2049 1.374 . S
C2049 H2029 0.950 1_545 S
C2049 C2045 1.385 . S
C2049 C2048 1.374 . S
C2050 C2047 1.499 . S
C2050 C2051 1.373 . S
C2050 C2052 1.389 . S
C2051 H2030 0.950 . S
C2051 C2050 1.373 . S
C2051 C2067 1.377 . S
C2052 C2050 1.389 . S
C2052 C2053 1.524 . S
C2052 C2066 1.377 . S
C2053 C2052 1.524 . S
C2053 C2054 1.397 . S
C2053 C2058 1.363 . S
C2054 H2031 0.950 . S
C2054 C2053 1.397 . S
C2054 C2055 1.334 . S
C2055 H2032 0.950 . S
C2055 C2054 1.334 . S
C2055 C2056 1.287 . S
C2056 C2055 1.287 . S
C2056 C2057 1.524 . S
C2056 H2075 0.913 . S
C2057 H2033 0.950 . S
C2057 C2056 1.524 . S
C2057 C2058 1.415 . S
C2058 H2034 0.950 . S
C2058 C2053 1.363 . S
C2058 C2057 1.415 . S
C2059 H2035 0.951 . S
C2059 C2060 1.366 . S
C2059 C2061 1.388 . S
C2060 C2059 1.366 . S
C2060 C2064 1.385 . S
C2061 H2036 0.951 . S
C2061 C2059 1.388 . S
C2061 C2062 1.366 . S
C2062 C2061 1.366 . S
C2062 C2063 1.414 . S
C2062 C2065 1.499 1_455 S
C2063 H2037 0.950 1_455 S
C2063 C2062 1.414 . S
C2063 C2064 1.374 . S
C2064 H2038 0.950 . S
C2064 C2060 1.385 . S
C2064 C2063 1.374 . S
C2065 C2062 1.499 1_655 S
C2065 C2066 1.373 . S
C2065 C2067 1.389 . S
C2066 H2039 0.950 . S
C2066 C2052 1.377 . S
C2066 C2065 1.373 . S
C2067 C2051 1.377 . S
C2067 C2065 1.389 . S
C2067 C2068 1.524 1_655 S
C2068 C2067 1.524 1_455 S
C2068 C2069 1.397 . S
C2068 C2073 1.363 . S
C2069 H2040 0.950 . S
C2069 C2068 1.397 . S
C2069 C2070 1.334 . S
C2070 H2041 0.950 . S
C2070 C2069 1.334 . S
C2070 C2071 1.287 . S
C2071 C2070 1.287 . S
C2071 C2072 1.524 . S
C2071 H2074 0.999 . S
C2072 H2042 0.950 . S
C2072 C2071 1.524 . S
C2072 C2073 1.415 . S
C2073 H2043 0.950 . S
C2073 C2068 1.363 . S
C2073 C2072 1.415 . S
H2074 C2071 0.999 . S
H2075 C2056 0.913 . S
C295 C19 1.211 . S
C310 C272 1.221 . S
C345 C223 1.485 1_565 S
C360 C40 1.534 . S
C395 C63 1.245 . S
C410 C201 1.252 . S
C445 C88 1.269 . S
C460 C247 1.272 . S
C495 C108 1.228 . S
C510 C249 1.245 . S
C545 C132 1.350 1_455 S
C560 C270 1.338 . S
C595 C228 1.356 1_565 S
C610 C155 1.324 1_556 S
C645 C180 1.172 . S
C660 C203 1.172 . S
C695 C86 1.067 . S
C710 C113 1.089 . S
C745 C17 1.208 . S
C760 C134 1.188 1_455 S
C795 C42 1.322 1_655 S
C810 C157 1.329 . S
C845 C178 1.180 . S
C860 C65 1.175 . S
C895 C18 0.914 . S
C910 C200 0.911 . S
C945 C44 0.798 . S
C960 C246 0.812 . S
C995 C273 0.752 . S
C1010 C67 0.753 . S
C1045 C87 0.817 . S
C1060 C224 0.816 . S
C1095 C111 0.940 . S
C1110 C225 0.980 . S
C1145 C204 0.862 . S
C1160 C136 0.835 1_455 S
C1195 C250 0.875 . S
C1210 C159 0.866 . S
C1245 C269 0.922 . S
C1260 C179 0.926 . S
C1295 C16 1.151 . S
C1310 C90 1.119 . S
C1345 C21 0.897 . S
C1360 C43 0.921 . S
C1395 C41 0.729 . S
C1410 C66 0.730 . S
C1445 C85 0.824 . S
C1460 C64 0.826 1_554 S
C1495 C133 0.820 . S
C1510 C110 0.819 . S
C1545 C135 0.808 . S
C1560 C156 0.813 . S
C1595 C158 0.998 . S
C1610 C182 0.985 . S
C1645 C112 0.941 . S
C1660 C177 0.942 . S
C1695 C202 0.871 . S
C1710 C89 0.861 . S
C1745 C131 0.967 . S
C1760 C226 0.932 . S
C1795 C205 0.999 . S
C1810 C154 1.044 . S
C1845 C251 0.842 . S
C1860 C181 0.848 . S
C1895 C109 0.978 . S
C1910 C271 0.981 . S
C1945 C274 0.869 . S
C1960 C39 0.881 . S
C1995 C62 0.853 . S
C2010 C227 0.851 . S
C2045 C248 0.635 1_545 S
C2060 C20 0.648 . S
