# Generated by pormake.
# Topology pts-e, (5)-cn, num edge types: 1
# Building blocks:
#     Node 0, Type 0, BuildingBlock: XOMCOT_clean_sbu_0, # of connection points: 5
#     Node 1, Type 0, BuildingBlock: XOMCOT_clean_sbu_0, # of connection points: 5
#     Node 2, Type 0, BuildingBlock: XOMCOT_clean_sbu_0, # of connection points: 5
#     Node 3, Type 0, BuildingBlock: XOMCOT_clean_sbu_0, # of connection points: 5
#     Node 4, Type 0, BuildingBlock: XOMCOT_clean_sbu_0, # of connection points: 5
#     Node 5, Type 0, BuildingBlock: XOMCOT_clean_sbu_0, # of connection points: 5
#     Node 6, Type 0, BuildingBlock: XOMCOT_clean_sbu_0, # of connection points: 5
#     Node 7, Type 0, BuildingBlock: XOMCOT_clean_sbu_0, # of connection points: 5
#     Edge 8, Type (0, 0), BuildingBlock: UVAHIK_clean_linker_0, # of connection points: 2
#     Edge 9, Type (0, 0), BuildingBlock: UVAHIK_clean_linker_0, # of connection points: 2
#     Edge 10, Type (0, 0), BuildingBlock: UVAHIK_clean_linker_0, # of connection points: 2
#     Edge 11, Type (0, 0), BuildingBlock: UVAHIK_clean_linker_0, # of connection points: 2
#     Edge 12, Type (0, 0), BuildingBlock: UVAHIK_clean_linker_0, # of connection points: 2
#     Edge 13, Type (0, 0), BuildingBlock: UVAHIK_clean_linker_0, # of connection points: 2
#     Edge 14, Type (0, 0), BuildingBlock: UVAHIK_clean_linker_0, # of connection points: 2
#     Edge 15, Type (0, 0), BuildingBlock: UVAHIK_clean_linker_0, # of connection points: 2
#     Edge 16, Type (0, 0), BuildingBlock: UVAHIK_clean_linker_0, # of connection points: 2
#     Edge 17, Type (0, 0), BuildingBlock: UVAHIK_clean_linker_0, # of connection points: 2
#     Edge 18, Type (0, 0), BuildingBlock: UVAHIK_clean_linker_0, # of connection points: 2
#     Edge 19, Type (0, 0), BuildingBlock: UVAHIK_clean_linker_0, # of connection points: 2
#     Edge 20, Type (0, 0), BuildingBlock: UVAHIK_clean_linker_0, # of connection points: 2
#     Edge 21, Type (0, 0), BuildingBlock: UVAHIK_clean_linker_0, # of connection points: 2
#     Edge 22, Type (0, 0), BuildingBlock: UVAHIK_clean_linker_0, # of connection points: 2
#     Edge 23, Type (0, 0), BuildingBlock: UVAHIK_clean_linker_0, # of connection points: 2
#     Edge 24, Type (0, 0), BuildingBlock: UVAHIK_clean_linker_0, # of connection points: 2
#     Edge 25, Type (0, 0), BuildingBlock: UVAHIK_clean_linker_0, # of connection points: 2
#     Edge 26, Type (0, 0), BuildingBlock: UVAHIK_clean_linker_0, # of connection points: 2
#     Edge 27, Type (0, 0), BuildingBlock: UVAHIK_clean_linker_0, # of connection points: 2
# Relax obj value: 0.524
# Max RMSD: 0.259
# Mean RMSD: 0.259
data_MOF--net-pts-e--node1-XOMCOT_clean_sbu_0--edge1-UVAHIK_clean_linker_0
_symmetry_space_group_name_H-M    P1
_symmetry_Int_Tables_number       1
_symmetry_cell_setting            triclinic
loop_
_symmetry_equiv_pos_as_xyz
'x, y, z'
_cell_length_a     42.403258
_cell_length_b     42.35768
_cell_length_c     61.263307
_cell_angle_alpha  90.066447
_cell_angle_beta   89.96309
_cell_angle_gamma 89.957902
loop_
_atom_site_label
_atom_site_type_symbol
_atom_site_fract_x
_atom_site_fract_y
_atom_site_fract_z
_atom_type_partial_charge
Co0 Co 0.27575 0.0415 0.14718 0.0
C1 C 0.34188 0.02956 0.16238 0.0
C2 C 0.31688 0.98716 0.15447 0.0
C3 C 0.34658 0.97904 0.16157 0.0
N4 N 0.31388 0.01887 0.15502 0.0
N5 N 0.36219 0.0058 0.16649 0.0
H6 H 0.3475 0.0539 0.16533 0.0
H7 H 0.29853 0.97099 0.14946 0.0
C8 C 0.26134 0.00929 0.18923 0.0
O9 O 0.28908 0.01838 0.1964 0.0
N10 N 0.23739 0.06272 0.13908 0.0
C11 C 0.23328 0.09341 0.13405 0.0
C12 C 0.20205 0.09805 0.12866 0.0
C13 C 0.20905 0.04903 0.13641 0.0
N14 N 0.18701 0.07007 0.13007 0.0
C15 C 0.30808 0.09755 0.15975 0.0
C16 C 0.2698 0.11332 0.19451 0.0
C17 C 0.29286 0.13478 0.18754 0.0
C18 C 0.31244 0.1264 0.17017 0.0
C19 C 0.26608 0.08465 0.1835 0.0
N20 N 0.28547 0.07672 0.16652 0.0
H21 H 0.32251 0.09246 0.14567 0.0
H22 H 0.24618 0.07006 0.18774 0.0
H23 H 0.25167 0.11108 0.1341 0.0
H24 H 0.20468 0.02417 0.13915 0.0
O25 O 0.29569 0.05755 0.1214 0.0
O26 O 0.26968 0.01225 0.12314 0.0
O27 O 0.25191 0.0176 0.17029 0.0
C28 C 0.28546 0.03253 0.11148 0.0
H29 H 0.35606 0.95537 0.16273 0.0
H30 H 0.19139 0.12012 0.12367 0.0
H31 H 0.25339 0.11952 0.20738 0.0
H32 H 0.33025 0.14251 0.16414 0.0
Co33 Co 0.02345 0.27964 0.64354 0.0
C34 C 0.0401 0.34356 0.66132 0.0
C35 C 0.07959 0.31943 0.64725 0.0
C36 C 0.08968 0.34833 0.65481 0.0
N37 N 0.04839 0.31651 0.65113 0.0
N38 N 0.06478 0.36328 0.66373 0.0
H39 H 0.01675 0.34929 0.66686 0.0
H40 H 0.09412 0.30167 0.6395 0.0
C41 C 0.0582 0.26172 0.68384 0.0
O42 O 0.04923 0.2886 0.69258 0.0
N43 N -0.00015 0.24247 0.63575 0.0
C44 C 0.96868 0.23999 0.63185 0.0
C45 C 0.96186 0.20884 0.6273 0.0
C46 C 0.01167 0.21322 0.63318 0.0
N47 N 0.98897 0.19219 0.62807 0.0
C48 C 0.97051 0.31386 0.65934 0.0
C49 C 0.95411 0.27226 0.69204 0.0
C50 C 0.93293 0.29615 0.68606 0.0
C51 C 0.94175 0.31759 0.66993 0.0
C52 C 0.98267 0.26915 0.68085 0.0
N53 N 0.99068 0.28987 0.66468 0.0
H54 H 0.97582 0.3296 0.646 0.0
H55 H 0.99683 0.24848 0.68396 0.0
H56 H 0.95207 0.25936 0.6324 0.0
H57 H 0.03632 0.20737 0.63538 0.0
O58 O 0.00564 0.30154 0.61911 0.0
O59 O 0.04956 0.27322 0.61789 0.0
O60 O 0.04883 0.25395 0.66478 0.0
C61 C 0.02888 0.2905 0.60766 0.0
H62 H 0.11344 0.35755 0.65391 0.0
H63 H 0.93885 0.19923 0.62352 0.0
H64 H 0.94754 0.2546 0.70399 0.0
H65 H 0.9258 0.33612 0.66474 0.0
Co66 Co 0.77259 0.02119 0.14695 0.0
C67 C 0.70792 0.0275 0.16278 0.0
C68 C 0.73562 0.06797 0.17154 0.0
C69 C 0.70567 0.07176 0.17993 0.0
N70 N 0.73681 0.04016 0.16092 0.0
N71 N 0.68838 0.04624 0.17435 0.0
H72 H 0.70157 0.00472 0.15613 0.0
H73 H 0.75514 0.08424 0.17315 0.0
C74 C 0.82572 0.02917 0.17882 0.0
O75 O 0.83461 -0.0001 0.17518 0.0
N76 N 0.80916 0.00288 0.13274 0.0
C77 C 0.81514 0.97305 0.12624 0.0
C78 C 0.84574 0.97149 0.11873 0.0
C79 C 0.83574 0.0191 0.12839 0.0
N80 N 0.85883 0.00046 0.12031 0.0
C81 C 0.75071 0.95814 0.15257 0.0
C82 C 0.76621 0.95104 0.19596 0.0
C83 C 0.75562 0.92459 0.18414 0.0
C84 C 0.74584 0.92917 0.16258 0.0
C85 C 0.76948 0.98017 0.18543 0.0
N86 N 0.76458 0.98262 0.16346 0.0
H87 H 0.74433 0.96019 0.13562 0.0
H88 H 0.77656 0.00037 0.19494 0.0
H89 H 0.79912 0.95339 0.12721 0.0
H90 H 0.83823 0.04398 0.13191 0.0
O91 O 0.74726 0.0115 0.12193 0.0
O92 O 0.77439 0.05573 0.12618 0.0
O93 O 0.80081 0.04018 0.16991 0.0
C94 C 0.75612 0.03839 0.11399 0.0
H95 H 0.69721 0.09185 0.18916 0.0
H96 H 0.85768 0.95023 0.11346 0.0
H97 H 0.77323 0.94915 0.21288 0.0
H98 H 0.73574 0.91015 0.15307 0.0
Co99 Co 0.02288 0.77206 0.64798 0.0
C100 C 0.01784 0.70665 0.66216 0.0
C101 C 0.97708 0.73302 0.67215 0.0
C102 C 0.97407 0.70237 0.67954 0.0
N103 N 0.00462 0.73543 0.66137 0.0
N104 N -0.00019 0.68588 0.67322 0.0
H105 H 0.0406 0.70135 0.65513 0.0
H106 H 0.96052 0.75214 0.67454 0.0
C107 C 0.01939 0.8228 0.68185 0.0
O108 O 0.04866 0.83047 0.67721 0.0
N109 N 0.04063 0.80931 0.63425 0.0
C110 C 0.0695 0.81443 0.62573 0.0
C111 C 0.07121 0.84529 0.61879 0.0
C112 C 0.02498 0.83677 0.63164 0.0
N113 N 0.04323 0.85945 0.62268 0.0
C114 C 0.08613 0.74933 0.6506 0.0
C115 C 0.09536 0.75912 0.6946 0.0
C116 C 0.121 0.74914 0.68172 0.0
C117 C 0.11532 0.74241 0.6597 0.0
C118 C 0.06598 0.76448 0.6849 0.0
N119 N 0.06247 0.76235 0.66279 0.0
H120 H 0.08299 0.74469 0.63344 0.0
H121 H 0.04636 0.77076 0.69523 0.0
H122 H 0.08839 0.79752 0.62468 0.0
H123 H 0.00078 0.84005 0.63676 0.0
O124 O 0.03017 0.74821 0.62187 0.0
O125 O 0.98684 0.77584 0.62863 0.0
O126 O 0.00638 0.79911 0.67257 0.0
C127 C 0.00283 0.75799 0.61529 0.0
H128 H 0.95436 0.69303 0.6887 0.0
H129 H 0.09195 0.85654 0.61208 0.0
H130 H 0.09797 0.76393 0.71185 0.0
H131 H 0.13353 0.73275 0.64925 0.0
Co132 Co 0.28233 0.01933 0.8425 0.0
C133 C 0.34955 0.02878 0.82934 0.0
C134 C 0.32543 0.07221 0.83594 0.0
C135 C 0.35581 0.07915 0.82964 0.0
N136 N 0.32143 0.04062 0.83552 0.0
N137 N 0.37082 0.05175 0.82555 0.0
H138 H 0.35473 0.00413 0.82733 0.0
H139 H 0.30733 0.08906 0.84034 0.0
C140 C 0.26814 0.05717 0.8025 0.0
O141 O 0.29477 0.04732 0.79387 0.0
N142 N 0.24301 -0.0006 0.8497 0.0
C143 C 0.23728 0.96868 0.85363 0.0
C144 C 0.20572 0.96534 0.85856 0.0
C145 C 0.21534 0.01434 0.85245 0.0
N146 N 0.19199 0.99413 0.85779 0.0
C147 C 0.31116 0.96314 0.82621 0.0
C148 C 0.27414 0.95626 0.7895 0.0
C149 C 0.29661 0.93319 0.79447 0.0
C150 C 0.31512 0.93662 0.81308 0.0
C151 C 0.27052 0.98223 0.80335 0.0
N152 N 0.28983 0.98619 0.82101 0.0
H153 H 0.32493 0.9646 0.84096 0.0
H154 H 0.25108 -0.00196 0.80039 0.0
H155 H 0.25474 0.95009 0.85299 0.0
H156 H 0.21268 0.03964 0.85098 0.0
O157 O 0.30168 -0.00087 0.86714 0.0
O158 O 0.2782 0.0459 0.8681 0.0
O159 O 0.25945 0.04738 0.82127 0.0
C160 C 0.2928 0.02343 0.87849 0.0
H161 H 0.36617 0.10244 0.82852 0.0
H162 H 0.19387 0.94337 0.8622 0.0
H163 H 0.25838 0.95334 0.77574 0.0
H164 H 0.3319 0.91854 0.81774 0.0
Co165 Co 0.03296 0.28339 0.34115 0.0
C166 C 0.02736 0.35004 0.33075 0.0
C167 C 0.98587 0.32513 0.3205 0.0
C168 C 0.98297 0.3564 0.31445 0.0
N169 N 0.0138 0.32143 0.3306 0.0
N170 N 0.00917 0.3719 0.32096 0.0
H171 H 0.05066 0.35441 0.33725 0.0
H172 H 0.96908 0.30642 0.31747 0.0
C173 C 0.02377 0.23614 0.30577 0.0
O174 O 0.05383 0.229 0.30754 0.0
N175 N 0.05146 0.2446 0.35208 0.0
C176 C 0.08087 0.23781 0.35909 0.0
C177 C 0.08193 0.20652 0.36516 0.0
C178 C 0.03501 0.21766 0.35465 0.0
N179 N 0.05307 0.19387 0.3622 0.0
C180 C 0.09649 0.30294 0.33398 0.0
C181 C 0.09477 0.30359 0.28896 0.0
C182 C 0.12324 0.3104 0.29963 0.0
C183 C 0.12347 0.3112 0.32244 0.0
C184 C 0.06808 0.29579 0.30124 0.0
N185 N 0.06983 0.29324 0.32345 0.0
H186 H 0.09719 0.30455 0.35152 0.0
H187 H 0.04608 0.29188 0.29281 0.0
H188 H 0.10047 0.25386 0.3599 0.0
H189 H 0.01018 0.21563 0.35086 0.0
O190 O 0.04543 0.30503 0.36724 0.0
O191 O 0.00029 0.27929 0.3631 0.0
O192 O 0.01193 0.25849 0.31718 0.0
C193 C 0.01895 0.29569 0.37562 0.0
H194 H 0.96321 0.36684 0.30592 0.0
H195 H 0.1026 0.19395 0.3708 0.0
H196 H 0.09327 0.30338 0.27131 0.0
H197 H 0.14451 0.31778 0.33138 0.0
Co198 Co 0.78169 0.04471 0.84773 0.0
C199 C 0.71671 0.03158 0.8353 0.0
C200 C 0.74612 0.99115 0.8295 0.0
C201 C 0.71602 0.98438 0.82235 0.0
N202 N 0.74631 0.0208 0.83747 0.0
N203 N 0.6977 0.00989 0.82607 0.0
H204 H 0.70955 0.05526 0.83973 0.0
H205 H 0.76646 0.97578 0.82863 0.0
C206 C 0.83253 0.03229 0.81514 0.0
O207 O 0.83863 0.06271 0.81499 0.0
N208 N 0.81794 0.06798 0.85838 0.0
C209 C 0.82254 0.09913 0.86188 0.0
C210 C 0.85312 0.10366 0.86883 0.0
C211 C 0.84538 0.0541 0.86392 0.0
N212 N 0.86734 0.07527 0.87006 0.0
C213 C 0.75794 0.10466 0.83461 0.0
C214 C 0.76374 0.09655 0.7901 0.0
C215 C 0.75385 0.12591 0.79826 0.0
C216 C 0.74956 0.12919 0.82077 0.0
C217 C 0.77138 0.07227 0.80465 0.0
N218 N 0.77087 0.07743 0.82669 0.0
H219 H 0.75439 0.10802 0.85187 0.0
H220 H 0.77781 0.0495 0.79811 0.0
H221 H 0.80552 0.11766 0.85955 0.0
H222 H 0.84957 0.02897 0.86247 0.0
O223 O 0.75697 0.0601 0.87166 0.0
O224 O 0.78595 0.01657 0.87254 0.0
O225 O 0.80988 0.02144 0.82665 0.0
C226 C 0.76729 0.03616 0.8827 0.0
H227 H 0.70825 0.96247 0.81502 0.0
H228 H 0.8641 0.1261 0.8725 0.0
H229 H 0.76661 0.09265 0.77274 0.0
H230 H 0.74055 0.15091 0.82775 0.0
Co231 Co 0.02471 0.77721 0.34819 0.0
C232 C 0.04644 0.71291 0.33466 0.0
C233 C 0.08144 0.7381 0.35284 0.0
C234 C 0.09369 0.70914 0.34705 0.0
N235 N 0.05168 0.74041 0.34516 0.0
N236 N 0.07164 0.6936 0.33547 0.0
H237 H 0.02496 0.70672 0.32641 0.0
H238 H 0.09363 0.7564 0.3618 0.0
C239 C 0.06935 0.7929 0.31197 0.0
O240 O 0.06647 0.76387 0.3047 0.0
N241 N -0.00102 0.81427 0.35159 0.0
C242 C 0.96731 0.81691 0.35117 0.0
C243 C 0.95947 0.84815 0.35467 0.0
C244 C 0.00995 0.84344 0.3556 0.0
N245 N 0.98639 0.8646 0.35757 0.0
C246 C 0.97643 0.74038 0.32844 0.0
C247 C 0.9707 0.77528 0.29065 0.0
C248 C 0.94872 0.75154 0.29514 0.0
C249 C 0.95195 0.73369 0.31409 0.0
C250 C 0.99464 0.78161 0.30566 0.0
N251 N -0.00241 0.76398 0.32423 0.0
H252 H 0.97783 0.7269 0.34334 0.0
H253 H 0.00912 0.80215 0.303 0.0
H254 H 0.95108 0.79757 0.34861 0.0
H255 H 0.03479 0.84906 0.35685 0.0
O256 O 0.00201 0.7572 0.37147 0.0
O257 O 0.04462 0.78673 0.37593 0.0
O258 O 0.05376 0.80202 0.32866 0.0
C259 C 0.0222 0.76995 0.38468 0.0
H260 H 0.11705 0.70038 0.35081 0.0
H261 H 0.93589 0.8579 0.35538 0.0
H262 H 0.96796 0.79035 0.27649 0.0
H263 H 0.93487 0.71563 0.31822 0.0
C264 C 0.28557 -0.0003 0.07743 0.0
C265 C 0.29012 0.02884 0.08783 0.0
C266 C 0.28937 0.99712 0.05481 0.0
C267 C 0.32154 0.04075 0.00666 0.0
H268 H 0.26343 0.98768 0.97441 0.0
C269 C 0.29374 0.05201 0.91424 0.0
C270 C 0.29691 0.02388 0.90231 0.0
C271 C 0.29598 0.0516 0.937 0.0
C272 C 0.2799 0.00243 0.9833 0.0
H273 H 0.30187 0.07817 0.08291 0.0
H274 H 0.3071 0.07409 0.0437 0.0
H275 H 0.26156 0.98809 0.0142 0.0
H276 H 0.30502 0.97337 0.90464 0.0
H277 H 0.30806 0.97269 0.94441 0.0
H278 H 0.33865 0.05614 0.97549 0.0
C279 C 0.3018 0.05287 0.05282 0.0
C280 C 0.27905 0.00251 0.00606 0.0
C281 C 0.29855 0.05528 0.07535 0.0
C282 C 0.30264 0.99545 0.91343 0.0
C283 C 0.30424 0.99497 0.93614 0.0
C284 C 0.32192 0.04112 0.98389 0.0
C285 C 0.29728 0.02379 0.04221 0.0
C286 C 0.29968 0.0219 0.01804 0.0
C287 C 0.30076 0.02298 0.94807 0.0
C288 C 0.30099 0.02209 0.97209 0.0
H289 H 0.27921 0.97894 0.08675 0.0
H290 H 0.28614 0.97425 0.04723 0.0
H291 H 0.3383 0.05542 0.01531 0.0
H292 H 0.28932 0.0742 0.90601 0.0
H293 H 0.29311 0.07346 0.94599 0.0
C294 C 0.99158 0.28142 0.41037 0.0
C295 C 0.0125 0.30099 0.39891 0.0
C296 C 0.99008 0.28296 0.43315 0.0
C297 C 0.01408 0.27423 0.47961 0.0
H298 H 0.0184 0.35244 0.51246 0.0
C299 C 0.0492 0.2771 0.57043 0.0
C300 C 0.02971 0.29548 0.58391 0.0
C301 C 0.04672 0.2794 0.54773 0.0
C302 C 0.01707 0.33041 0.50351 0.0
H303 H 0.04657 0.33892 0.40191 0.0
H304 H 0.04384 0.3417 0.44148 0.0
H305 H 0.01018 0.35412 0.47305 0.0
H306 H 0.99335 0.33158 0.58439 0.0
H307 H 0.98912 0.33559 0.54495 0.0
H308 H 0.02087 0.25051 0.51007 0.0
C309 C 0.02864 0.32517 0.43304 0.0
C310 C 0.01248 0.33138 0.48098 0.0
C311 C 0.03032 0.32346 0.41038 0.0
C312 C 0.00867 0.31707 0.57439 0.0
C313 C 0.00631 0.31948 0.55179 0.0
C314 C 0.01878 0.27326 0.50214 0.0
C315 C 0.00923 0.30431 0.4447 0.0
C316 C 0.01114 0.30331 0.46879 0.0
C317 C 0.02488 0.30028 0.53823 0.0
C318 C 0.0205 0.30135 0.51428 0.0
H319 H 0.97766 0.26385 0.40188 0.0
H320 H 0.97464 0.26686 0.44177 0.0
H321 H 0.01359 0.25223 0.47058 0.0
H322 H 0.06556 0.26023 0.57738 0.0
H323 H 0.06162 0.26462 0.53761 0.0
C324 C 0.76854 0.06665 0.07927 0.0
C325 C 0.74913 0.04601 0.09111 0.0
C326 C 0.76634 0.06791 0.05651 0.0
C327 C 0.74501 0.01557 0.01158 0.0
H328 H 0.75294 0.09028 0.97555 0.0
C329 C 0.73868 0.05489 0.91561 0.0
C330 C 0.76018 0.03365 0.90615 0.0
C331 C 0.73474 0.05602 0.93815 0.0
C332 C 0.75048 0.06923 0.98543 0.0
H333 H 0.71034 0.01281 0.08887 0.0
H334 H 0.70624 0.01539 0.0493 0.0
H335 H 0.74924 0.09585 0.01518 0.0
H336 H 0.79339 0.99592 0.9127 0.0
H337 H 0.78636 -0.00222 0.95237 0.0
H338 H 0.74636 0.98893 0.98187 0.0
C339 C 0.72363 0.02996 0.05745 0.0
C340 C 0.74861 0.07244 0.00807 0.0
C341 C 0.72585 0.02866 0.08009 0.0
C342 C 0.7766 0.01245 0.91958 0.0
C343 C 0.77258 0.01354 0.94223 0.0
C344 C 0.74708 0.01235 0.98897 0.0
C345 C 0.74468 0.04859 0.04538 0.0
C346 C 0.74577 0.04564 0.02134 0.0
C347 C 0.75215 0.03588 0.95171 0.0
C348 C 0.74979 0.03914 0.97569 0.0
H349 H 0.78678 0.08015 0.0874 0.0
H350 H 0.78287 0.08249 0.04757 0.0
H351 H 0.74335 0.99444 0.02147 0.0
H352 H 0.72546 0.07136 0.90565 0.0
H353 H 0.71838 0.07302 0.945 0.0
C354 C 0.03984 0.78066 0.42297 0.0
C355 C 0.01842 0.76665 0.40845 0.0
C356 C 0.03513 0.7783 0.44549 0.0
C357 C 0.02909 0.75166 0.49138 0.0
H358 H 0.94552 0.76426 0.51584 0.0
C359 C 0.0071 0.72737 0.58103 0.0
C360 C 0.99331 0.75245 0.59258 0.0
C361 C 0.00539 0.7263 0.55837 0.0
C362 C 0.96893 0.76069 0.5092 0.0
H363 H 0.97539 0.73909 0.40603 0.0
H364 H 0.96737 0.73486 0.44523 0.0
H365 H 0.95375 0.76986 0.47647 0.0
H366 H 0.96464 0.79461 0.58986 0.0
H367 H 0.96177 0.79289 0.54996 0.0
H368 H 0.04449 0.74301 0.52399 0.0
C369 C 0.98756 0.74792 0.43926 0.0
C370 C 0.97363 0.76372 0.48672 0.0
C371 C 0.99234 0.75015 0.41682 0.0
C372 C 0.97532 0.77494 0.58128 0.0
C373 C 0.97377 0.77399 0.55848 0.0
C374 C 0.02437 0.74847 0.51377 0.0
C375 C 0.00884 0.76202 0.45382 0.0
C376 C 0.00379 0.75926 0.47763 0.0
C377 C 0.99007 0.75045 0.54682 0.0
C378 C 0.99426 0.75287 0.52291 0.0
H379 H 0.06006 0.79363 0.41695 0.0
H380 H 0.05179 0.78958 0.45638 0.0
H381 H 0.05251 0.74783 0.4848 0.0
H382 H 0.02083 0.70955 0.58944 0.0
H383 H 0.01749 0.70745 0.5498 0.0
C384 C 0.15425 0.32913 0.26702 0.0
C385 C 0.15313 0.31368 0.28729 0.0
C386 C 0.18137 0.32734 0.25405 0.0
C387 C 0.22368 0.28977 0.22433 0.0
H388 H 0.30416 0.26346 0.24824 0.0
C389 C 0.29312 0.19323 0.18237 0.0
C390 C 0.29378 0.16714 0.19654 0.0
C391 C 0.28845 0.22363 0.19059 0.0
C392 C 0.28214 0.27135 0.24112 0.0
H393 H 0.18027 0.28606 0.31045 0.0
H394 H 0.22665 0.28234 0.28802 0.0
H395 H 0.27104 0.3002 0.26873 0.0
H396 H 0.29291 0.15244 0.23035 0.0
H397 H 0.28475 0.20556 0.24479 0.0
H398 H 0.23399 0.25964 0.19732 0.0
C399 C 0.20725 0.29658 0.2821 0.0
C400 C 0.26307 0.29222 0.25287 0.0
C401 C 0.18037 0.29851 0.29502 0.0
C402 C 0.29222 0.17218 0.21913 0.0
C403 C 0.28797 0.20261 0.22736 0.0
C404 C 0.24298 0.2694 0.21244 0.0
C405 C 0.20769 0.30977 0.26105 0.0
C406 C 0.2325 0.29948 0.24542 0.0
C407 C 0.28476 0.22842 0.21311 0.0
C408 C 0.27124 0.2582 0.2215 0.0
H409 H 0.1338 0.34158 0.26084 0.0
H410 H 0.1811 0.33825 0.23807 0.0
H411 H 0.20041 0.2948 0.21795 0.0
H412 H 0.29409 0.18995 0.16484 0.0
H413 H 0.28592 0.24313 0.17929 0.0
C414 C 0.76396 0.18279 0.79111 0.0
C415 C 0.75133 0.15396 0.78393 0.0
C416 C 0.76647 0.20826 0.77696 0.0
C417 C 0.78009 0.21964 0.7191 0.0
H418 H 0.79865 0.30359 0.74092 0.0
C419 C 0.87512 0.29407 0.67915 0.0
C420 C 0.90017 0.29563 0.69414 0.0
C421 C 0.84454 0.28778 0.68634 0.0
C422 C 0.79289 0.28055 0.73433 0.0
H423 H 0.7288 0.13011 0.7568 0.0
H424 H 0.73308 0.17499 0.73184 0.0
H425 H 0.76132 0.27014 0.76054 0.0
H426 H 0.91285 0.29439 0.72832 0.0
H427 H 0.85918 0.28385 0.74103 0.0
H428 H 0.81269 0.22963 0.69343 0.0
C429 C 0.74152 0.17762 0.74842 0.0
C430 C 0.77174 0.26127 0.7456 0.0
C431 C 0.73917 0.15189 0.76265 0.0
C432 C 0.89386 0.29322 0.71652 0.0
C433 C 0.86317 0.28754 0.72375 0.0
C434 C 0.80061 0.23918 0.70757 0.0
C435 C 0.75642 0.2057 0.75517 0.0
C436 C 0.76726 0.22966 0.73912 0.0
C437 C 0.83852 0.28356 0.70865 0.0
C438 C 0.80888 0.26885 0.716 0.0
H439 H 0.774 0.18514 0.80728 0.0
H440 H 0.77872 0.22904 0.78278 0.0
H441 H 0.77727 0.19556 0.71348 0.0
H442 H 0.87952 0.29559 0.66176 0.0
H443 H 0.82594 0.28449 0.67444 0.0
C444 C 0.75621 0.88606 0.21559 0.0
C445 C 0.75845 0.89202 0.19305 0.0
C446 C 0.76574 0.85694 0.22408 0.0
C447 C 0.82692 0.80201 0.21056 0.0
H448 H 0.80153 0.7601 0.26389 0.0
C449 C 0.92079 0.7411 0.26004 0.0
C450 C 0.91972 0.74926 0.28216 0.0
C451 C 0.89382 0.74418 0.24713 0.0
C452 C 0.80897 0.77151 0.24895 0.0
H453 H 0.76965 0.87048 0.16166 0.0
H454 H 0.78492 0.81998 0.17643 0.0
H455 H 0.76403 0.7941 0.24476 0.0
H456 H 0.88997 0.76515 0.30867 0.0
H457 H 0.8436 0.77262 0.28614 0.0
H458 H 0.87242 0.7825 0.21544 0.0
C459 C 0.77636 0.83798 0.18754 0.0
C460 C 0.7874 0.79081 0.23798 0.0
C461 C 0.76728 0.86706 0.17908 0.0
C462 C 0.89111 0.75866 0.29157 0.0
C463 C 0.86442 0.76259 0.27861 0.0
C464 C 0.84854 0.7833 0.22165 0.0
C465 C 0.77744 0.83326 0.21015 0.0
C466 C 0.79665 0.80719 0.21914 0.0
C467 C 0.86576 0.75669 0.25601 0.0
C468 C 0.84037 0.76897 0.24156 0.0
H469 H 0.74872 0.90437 0.22679 0.0
H470 H 0.76632 0.85395 0.24163 0.0
H471 H 0.83496 0.8146 0.19622 0.0
H472 H 0.94271 0.73346 0.25262 0.0
H473 H 0.89553 0.73846 0.22994 0.0
C474 C 0.28552 0.87606 0.79098 0.0
C475 C 0.29775 0.90375 0.78186 0.0
C476 C 0.28157 0.84922 0.77809 0.0
C477 C 0.26607 0.83294 0.72059 0.0
H478 H 0.25029 0.7491 0.74347 0.0
C479 C 0.17912 0.75757 0.67659 0.0
C480 C 0.15386 0.74919 0.69038 0.0
C481 C 0.20869 0.7645 0.68518 0.0
C482 C 0.25495 0.77226 0.73674 0.0
H483 H 0.31832 0.92489 0.75311 0.0
H484 H 0.31291 0.87745 0.73061 0.0
H485 H 0.28388 0.78559 0.76385 0.0
H486 H 0.14159 0.73732 0.72381 0.0
H487 H 0.19256 0.75173 0.73895 0.0
H488 H 0.23616 0.82056 0.69415 0.0
C489 C 0.30522 0.8766 0.74746 0.0
C490 C 0.27407 0.79323 0.74842 0.0
C491 C 0.30846 0.9037 0.76026 0.0
C492 C 0.16001 0.74483 0.71274 0.0
C493 C 0.18954 0.75245 0.72141 0.0
C494 C 0.24736 0.812 0.70888 0.0
C495 C 0.29022 0.84954 0.7559 0.0
C496 C 0.27836 0.82443 0.74105 0.0
C497 C 0.21358 0.76411 0.70781 0.0
C498 C 0.24025 0.78202 0.71735 0.0
H499 H 0.27715 0.87583 0.8077 0.0
H500 H 0.26958 0.82916 0.7852 0.0
H501 H 0.26834 0.85674 0.71438 0.0
H502 H 0.17574 0.76135 0.65929 0.0
H503 H 0.227 0.77276 0.67425 0.0
C504 C 0.01593 0.86367 0.71132 0.0
C505 C 0.00088 0.84249 0.6971 0.0
C506 C -0.00177 0.8833 0.72501 0.0
C507 C 0.91699 0.89466 0.74724 0.0
H508 H 0.94746 0.97936 0.75849 0.0
C509 C 0.8703 0.02175 0.78457 0.0
C510 C 0.85188 0.01045 0.80192 0.0
C511 C 0.88865 0.001 0.77215 0.0
C512 C 0.93834 0.95593 0.75532 0.0
H513 H 0.95548 0.82537 0.68594 0.0
H514 H 0.92463 0.86028 0.70909 0.0
H515 H 0.97845 0.94388 0.73591 0.0
H516 H 0.83865 0.9687 0.82019 0.0
H517 H 0.87151 0.93272 0.79917 0.0
H518 H 0.87608 0.90723 0.76563 0.0
C519 C 0.95008 0.86117 0.7103 0.0
C520 C 0.95646 0.93531 0.74265 0.0
C521 C 0.96779 0.84121 0.6969 0.0
C522 C 0.85237 0.97806 0.80675 0.0
C523 C 0.87111 0.95739 0.79458 0.0
C524 C 0.89866 0.91542 0.75963 0.0
C525 C 0.96503 0.88257 0.72451 0.0
C526 C 0.94604 0.90437 0.73842 0.0
C527 C 0.88942 0.96852 0.77703 0.0
C528 C 0.90907 0.94636 0.76386 0.0
H529 H 0.04143 0.86505 0.71192 0.0
H530 H 0.01063 0.89898 0.73601 0.0
H531 H 0.90834 0.8709 0.74466 0.0
H532 H 0.87023 0.04659 0.78038 0.0
H533 H 0.9019 0.01043 0.75853 0.0
C534 C 0.25283 0.97566 0.2223 0.0
C535 C 0.24099 0.98917 0.20303 0.0
C536 C 0.23411 0.95539 0.23478 0.0
C537 C 0.15183 0.93271 0.24572 0.0
H538 H 0.18878 0.85408 0.2657 0.0
C539 C 0.08811 0.84812 0.30521 0.0
C540 C 0.08916 0.8158 0.29997 0.0
C541 C 0.10657 0.8698 0.29373 0.0
C542 C 0.17811 0.87589 0.26016 0.0
H543 H 0.19997 0.99254 0.18198 0.0
H544 H 0.1673 0.95724 0.20384 0.0
H545 H 0.22093 0.89144 0.2451 0.0
H546 H 0.11055 0.7809 0.27864 0.0
H547 H 0.14287 0.81879 0.25867 0.0
H548 H 0.10892 0.91699 0.26062 0.0
C549 C 0.19103 0.9624 0.2093 0.0
C550 C 0.19659 0.89741 0.24856 0.0
C551 C 0.20982 0.98248 0.19673 0.0
C552 C 0.10919 0.80562 0.28308 0.0
C553 C 0.12783 0.82728 0.27172 0.0
C554 C 0.13341 0.9113 0.25748 0.0
C555 C 0.20309 0.9484 0.22834 0.0
C556 C 0.18361 0.92598 0.24114 0.0
C557 C 0.12666 0.8596 0.27689 0.0
C558 C 0.14633 0.88259 0.26473 0.0
H559 H 0.27674 0.98033 0.22761 0.0
H560 H 0.24391 0.94521 0.2495 0.0
H561 H 0.14126 0.95465 0.24034 0.0
H562 H 0.0729 0.85676 0.31812 0.0
H563 H 0.1054 0.89452 0.29821 0.0
C564 C 0.08251 0.24324 0.7188 0.0
C565 C 0.07906 0.24017 0.69611 0.0
C566 C 0.10266 0.2231 0.73028 0.0
C567 C 0.14693 0.1472 0.72498 0.0
H568 H 0.19273 0.18006 0.77484 0.0
C569 C 0.25023 0.08155 0.76737 0.0
C570 C 0.24711 0.07838 0.7901 0.0
C571 C 0.22973 0.10114 0.7557 0.0
C572 C 0.17997 0.1706 0.76099 0.0
H573 H 0.09419 0.21384 0.66759 0.0
H574 H 0.13024 0.17964 0.68738 0.0
H575 H 0.1571 0.2146 0.75475 0.0
H576 H 0.22042 0.09355 0.81848 0.0
H577 H 0.18518 0.12836 0.79811 0.0
H578 H 0.17085 0.10344 0.73098 0.0
C579 C 0.11672 0.19684 0.69653 0.0
C580 C 0.15936 0.19028 0.74953 0.0
C581 C 0.09617 0.21661 0.68512 0.0
C582 C 0.22338 0.09547 0.80096 0.0
C583 C 0.2033 0.11548 0.78936 0.0
C584 C 0.16798 0.12771 0.73622 0.0
C585 C 0.12027 0.19978 0.71929 0.0
C586 C 0.1424 0.17882 0.73143 0.0
C587 C 0.20619 0.11835 0.76663 0.0
C588 C 0.18453 0.1392 0.75438 0.0
H589 H 0.06942 0.26102 0.72773 0.0
H590 H 0.10419 0.22572 0.74783 0.0
H591 H 0.1339 0.13727 0.71143 0.0
H592 H 0.26822 0.06857 0.75855 0.0
H593 H 0.23247 0.10312 0.73818 0.0
C594 C 0.84219 0.083 0.19075 0.0
C595 C 0.84516 0.0501 0.19262 0.0
C596 C 0.86135 0.10308 0.203 0.0
C597 C 0.93553 0.10422 0.23547 0.0
H598 H 0.90238 0.1849 0.25466 0.0
C599 C 0.97056 0.21525 0.29599 0.0
C600 C 0.00311 0.2166 0.29188 0.0
C601 C 0.95125 0.19503 0.28393 0.0
C602 C 0.912 0.16232 0.24971 0.0
H603 H 0.87015 0.01235 0.20903 0.0
H604 H 0.90273 0.04735 0.23119 0.0
H605 H 0.86841 0.14862 0.23511 0.0
H606 H 0.04089 0.19855 0.27156 0.0
H607 H 0.00706 0.16437 0.24978 0.0
H608 H 0.97863 0.11725 0.25109 0.0
C609 C 0.88628 0.05775 0.21976 0.0
C610 C 0.89258 0.14163 0.23812 0.0
C611 C 0.86744 0.03764 0.2072 0.0
C612 C 0.01588 0.19786 0.27515 0.0
C613 C 0.99648 0.17804 0.26281 0.0
C614 C 0.95481 0.1247 0.24738 0.0
C615 C 0.88363 0.09078 0.21773 0.0
C616 C 0.90413 0.11238 0.23069 0.0
C617 C 0.96394 0.17606 0.2672 0.0
C618 C 0.94337 0.15413 0.25456 0.0
H619 H 0.8255 0.09334 0.17943 0.0
H620 H 0.85903 0.12828 0.20055 0.0
H621 H 0.94548 0.08214 0.2298 0.0
H622 H 0.96011 0.22913 0.30898 0.0
H623 H 0.92648 0.19379 0.28813 0.0
C624 C 0.145 0.03457 0.11695 0.0
C625 C 0.1543 0.06378 0.12568 0.0
C626 C 0.11317 0.02808 0.11323 0.0
C627 C 0.03428 0.06641 0.10905 0.0
H628 H 0.00408 0.98238 0.12291 0.0
C629 C 0.90403 0.0366 0.12619 0.0
C630 C 0.89151 0.00885 0.11692 0.0
C631 C 0.93602 0.04368 0.12423 0.0
C632 C 0.01225 0.00581 0.11868 0.0
H633 H 0.13771 0.10908 0.13738 0.0
H634 H 0.08205 0.09757 0.13151 0.0
H635 H 0.06017 0.99401 0.12565 0.0
H636 H 0.90326 0.96745 0.09757 0.0
H637 H 0.95932 0.97953 0.09474 0.0
H638 H 0.98596 0.07838 0.10299 0.0
C639 C 0.09931 0.0799 0.12695 0.0
C640 C 0.04442 0.01251 0.1202 0.0
C641 C 0.13119 0.08651 0.13041 0.0
C642 C 0.91193 0.98874 0.10524 0.0
C643 C 0.94408 0.99567 0.10353 0.0
C644 C 0.00207 0.05978 0.10779 0.0
C645 C 0.08986 0.05052 0.11841 0.0
C646 C 0.05583 0.04299 0.11561 0.0
C647 C 0.95643 0.02308 0.11317 0.0
C648 C 0.99074 0.0295 0.11278 0.0
H649 H 0.1624 0.01683 0.11282 0.0
H650 H 0.10688 0.00546 0.10623 0.0
H651 H 0.04226 0.08995 0.10496 0.0
H652 H 0.88952 0.05255 0.13563 0.0
H653 H 0.94502 0.06477 0.13207 0.0
C654 C 0.96965 0.13751 0.63166 0.0
C655 C 0.99295 0.15882 0.62477 0.0
C656 C 0.97424 0.10499 0.62941 0.0
C657 C 0.03795 0.0458 0.62142 0.0
H658 H 0.96773 0.9894 0.61038 0.0
C659 C 0.05437 0.91211 0.60677 0.0
C660 C 0.03557 0.89248 0.61997 0.0
C661 C 0.04835 0.94449 0.60546 0.0
C662 C 0.98751 0.00492 0.6135 0.0
H663 H 0.03867 0.16303 0.60933 0.0
H664 H 0.04639 0.10639 0.60471 0.0
H665 H 0.95884 0.04634 0.61122 0.0
H666 H 0.99516 0.8921 0.64189 0.0
H667 H 0.98434 0.94821 0.63902 0.0
H668 H 0.06661 0.00425 0.62339 0.0
C669 C 0.02499 0.11458 0.61253 0.0
C670 C 0.98245 0.03753 0.61411 0.0
C671 C 0.02057 0.14705 0.61509 0.0
C672 C 0.00996 0.90606 0.63127 0.0
C673 C 0.00373 0.93836 0.62971 0.0
C674 C 0.04305 0.01326 0.62051 0.0
C675 C 0.00207 0.09307 0.61992 0.0
C676 C 0.00756 0.0584 0.61829 0.0
C677 C 0.02313 0.95794 0.61705 0.0
C678 C 0.01785 0.9925 0.61675 0.0
H679 H 0.9483 0.14599 0.6394 0.0
H680 H 0.95629 0.08923 0.63564 0.0
H681 H 0.05777 0.06098 0.62512 0.0
H682 H 0.07392 0.90261 0.59752 0.0
H683 H 0.06346 0.95907 0.59538 0.0
C684 C 0.92342 0.09022 0.86764 0.0
C685 C 0.90007 0.06877 0.87422 0.0
C686 C 0.95529 0.08229 0.86931 0.0
C687 C 0.00677 0.01223 0.87181 0.0
H688 H 0.07171 0.07449 0.88322 0.0
C689 C 0.13988 0.98165 0.87397 0.0
C690 C 0.15938 0.00196 0.86182 0.0
C691 C 0.10835 0.98948 0.87791 0.0
C692 C 0.05379 0.05689 0.87997 0.0
H693 H 0.89167 0.02308 0.88892 0.0
H694 H 0.94735 0.00938 0.89228 0.0
H695 H 0.01632 0.08923 0.88686 0.0
H696 H 0.1605 0.04619 0.84389 0.0
H697 H 0.1059 0.05993 0.85109 0.0
H698 H 0.04437 0.97998 0.86483 0.0
C699 C 0.94108 0.03198 0.88526 0.0
C700 C 0.02209 0.06532 0.882 0.0
C701 C 0.90922 0.03983 0.88341 0.0
C702 C 0.14654 0.03025 0.85371 0.0
C703 C 0.11517 0.03817 0.8578 0.0
C704 C 0.03848 0.00375 0.86995 0.0
C705 C 0.96449 0.05283 0.87779 0.0
C706 C -0.00181 0.04323 0.87759 0.0
C707 C 0.09576 0.01788 0.86993 0.0
C708 C 0.06227 0.02614 0.87366 0.0
H709 H 0.91705 0.11252 0.86023 0.0
H710 H 0.97264 0.09875 0.8631 0.0
H711 H 0.98901 0.99475 0.86794 0.0
H712 H 0.14899 0.95989 0.8807 0.0
H713 H 0.09391 0.97351 0.88742 0.0
C714 C 0.01491 0.90893 0.37444 0.0
C715 C 0.98981 0.89784 0.36162 0.0
C716 C 0.01981 0.94124 0.37715 0.0
C717 C 0.98241 0.01984 0.37003 0.0
H718 H 0.06929 0.04798 0.36629 0.0
C719 C 0.01845 0.14886 0.35295 0.0
C720 C 0.04393 0.16133 0.36487 0.0
C721 C 0.01041 0.11704 0.35476 0.0
C722 C 0.04495 0.04047 0.36767 0.0
H723 H 0.94971 0.91171 0.34201 0.0
H724 H 0.95855 0.96837 0.34631 0.0
H725 H 0.05759 0.9918 0.36532 0.0
H726 H 0.08031 0.15017 0.38851 0.0
H727 H 0.06649 0.09442 0.39142 0.0
H728 H 0.96989 0.06881 0.37174 0.0
C729 C 0.97415 0.95209 0.35462 0.0
C730 C 0.03821 0.00826 0.36716 0.0
C731 C 0.96909 0.91968 0.35209 0.0
C732 C 0.06088 0.14127 0.37887 0.0
C733 C 0.05293 0.10937 0.38058 0.0
C734 C 0.98917 0.05212 0.3704 0.0
C735 C -0.00011 0.96323 0.36691 0.0
C736 C 0.00686 0.99753 0.36825 0.0
C737 C 0.02776 0.09691 0.36841 0.0
C738 C 0.02051 0.06273 0.36913 0.0
H739 H 0.03085 0.89256 0.38233 0.0
H740 H 0.03939 0.94897 0.38715 0.0
H741 H 0.95805 0.01237 0.37121 0.0
H742 H 0.00523 0.16338 0.34169 0.0
H743 H 0.99121 0.10797 0.34493 0.0
C744 C 0.41163 0.03605 0.16898 0.0
C745 C 0.39418 0.00884 0.17398 0.0
C746 C 0.44293 0.03879 0.17552 0.0
C747 C 0.5113 0.99004 0.18805 0.0
H748 H 0.54834 0.07144 0.20162 0.0
C749 C 0.64168 0.05303 0.19814 0.0
C750 C 0.65586 0.04002 0.17943 0.0
C751 C 0.61001 0.04691 0.20287 0.0
C752 C 0.53839 0.04839 0.19829 0.0
H753 H 0.39554 0.9636 0.19045 0.0
H754 H 0.4506 0.9683 0.20186 0.0
H755 H 0.49118 0.06561 0.20144 0.0
H756 H 0.64779 0.01075 0.1509 0.0
H757 H 0.59286 0.00027 0.159 0.0
H758 H 0.55849 0.97295 0.18454 0.0
C759 C 0.43999 0.98739 0.19268 0.0
C760 C 0.50565 0.04513 0.19795 0.0
C761 C 0.40856 0.98463 0.18608 0.0
C762 C 0.63781 0.02064 0.16566 0.0
C763 C 0.60629 0.01453 0.17036 0.0
C764 C 0.54402 0.99326 0.18848 0.0
C765 C 0.45758 0.01439 0.18726 0.0
C766 C 0.49179 0.01625 0.19197 0.0
C767 C 0.592 0.02764 0.18896 0.0
C768 C 0.55786 0.02277 0.19273 0.0
H769 H 0.40145 0.05488 0.15935 0.0
H770 H 0.456 0.05956 0.1706 0.0
H771 H 0.50139 0.96748 0.18334 0.0
H772 H 0.65511 0.06772 0.20921 0.0
H773 H 0.59963 0.05721 0.21738 0.0
C774 C 0.99282 0.63675 0.69475 0.0
C775 C 0.00736 0.65326 0.67754 0.0
C776 C 0.00091 0.60533 0.69905 0.0
C777 C 0.06373 0.54681 0.68994 0.0
H778 H 0.99678 0.48459 0.69053 0.0
C779 C 0.0824 0.41868 0.66336 0.0
C780 C 0.06361 0.39479 0.6724 0.0
C781 C 0.07814 0.45006 0.66967 0.0
C782 C 0.01581 0.50161 0.69096 0.0
H783 H 0.04119 0.64895 0.65101 0.0
H784 H 0.05557 0.59489 0.65884 0.0
H785 H 0.98358 0.54056 0.69127 0.0
H786 H 0.02751 0.38452 0.69641 0.0
H787 H 0.02027 0.43934 0.70766 0.0
H788 H 0.096 0.508 0.68906 0.0
C789 C 0.03833 0.60641 0.66921 0.0
C790 C 0.00819 0.53367 0.69134 0.0
C791 C 0.03002 0.63752 0.66474 0.0
C792 C 0.04184 0.40261 0.68885 0.0
C793 C 0.0377 0.43396 0.69528 0.0
C794 C 0.07138 0.51477 0.68974 0.0
C795 C 0.02393 0.59002 0.68639 0.0
C796 C 0.03205 0.55651 0.69005 0.0
C797 C 0.05517 0.45815 0.6853 0.0
C798 C 0.04747 0.49181 0.68946 0.0
H799 H 0.97551 0.64813 0.70508 0.0
H800 H 0.98943 0.59309 0.71238 0.0
H801 H 0.08257 0.56404 0.68927 0.0
H802 H 0.09917 0.41335 0.65055 0.0
H803 H 0.09172 0.46811 0.66142 0.0
C804 C 0.41964 0.02031 0.82555 0.0
C805 C 0.40311 0.04746 0.81908 0.0
C806 C 0.45121 0.01638 0.81993 0.0
C807 C 0.52106 0.06291 0.80699 0.0
H808 H 0.55769 0.97981 0.79861 0.0
C809 C 0.6514 -0.0015 0.80285 0.0
C810 C 0.66497 0.01408 0.82079 0.0
C811 C 0.61977 0.00365 0.79746 0.0
C812 C 0.54787 0.00327 0.8005 0.0
H813 H 0.40627 0.09122 0.80095 0.0
H814 H 0.46173 0.08437 0.79103 0.0
H815 H 0.50063 0.98636 0.79698 0.0
H816 H 0.65593 0.04648 0.84749 0.0
H817 H 0.60098 0.05518 0.83834 0.0
H818 H 0.56823 0.07976 0.81073 0.0
C819 C 0.45027 0.06632 0.8007 0.0
C820 C 0.51518 0.00697 0.79981 0.0
C821 C 0.41862 0.07031 0.80643 0.0
C822 C 0.64632 0.03463 0.83332 0.0
C823 C 0.61485 0.03973 0.828 0.0
C824 C 0.55371 0.05924 0.80753 0.0
C825 C 0.467 0.03946 0.80763 0.0
C826 C 0.50141 0.0366 0.80394 0.0
C827 C 0.60124 0.02444 0.80996 0.0
C828 C 0.56736 0.02918 0.80521 0.0
H829 H 0.40849 0.00253 0.83559 0.0
H830 H 0.46355 0.99579 0.826 0.0
H831 H 0.51125 0.08604 0.81027 0.0
H832 H 0.66536 0.9828 0.79277 0.0
H833 H 0.60991 0.99161 0.78344 0.0
C834 C 0.03881 0.41941 0.33164 0.0
C835 C 0.01731 0.40449 0.31756 0.0
C836 C 0.04811 0.45043 0.32796 0.0
C837 C 0.02202 0.52392 0.3037 0.0
H838 H 0.10899 0.54859 0.3136 0.0
C839 C 0.05611 0.65425 0.30789 0.0
C840 C 0.07328 0.66217 0.32673 0.0
C841 C 0.05367 0.62289 0.3012 0.0
C842 C 0.08465 0.54205 0.31072 0.0
H843 H 0.98854 0.41063 0.28862 0.0
H844 H 0.0044 0.46546 0.28244 0.0
H845 H 0.0951 0.49268 0.31237 0.0
H846 H 0.103 0.64391 0.3525 0.0
H847 H 0.09854 0.58899 0.34103 0.0
H848 H 0.01122 0.57315 0.30306 0.0
C849 C 0.0141 0.45282 0.29625 0.0
C850 C 0.07671 0.51011 0.31001 0.0
C851 C 0.00489 0.42156 0.29987 0.0
C852 C 0.08974 0.63844 0.33789 0.0
C853 C 0.08721 0.60701 0.33126 0.0
C854 C 0.02994 0.55586 0.30446 0.0
C855 C 0.036 0.46742 0.3102 0.0
C856 C 0.04516 0.5008 0.30721 0.0
C857 C 0.06832 0.59882 0.31325 0.0
C858 C 0.06117 0.56525 0.30867 0.0
H859 H 0.04827 0.40725 0.3457 0.0
H860 H 0.06435 0.46136 0.33933 0.0
H861 H -0.0025 0.51741 0.30167 0.0
H862 H 0.04383 0.67225 0.29868 0.0
H863 H 0.03948 0.61735 0.28701 0.0
loop_
_geom_bond_atom_site_label_1
_geom_bond_atom_site_label_2
_geom_bond_distance
_geom_bond_site_symmetry_2
_ccdc_geom_bond_type
Co0 N4 2.148 . S
Co0 N10 2.128 . S
Co0 N20 2.194 . S
Co0 O25 2.351 . S
Co0 O26 2.155 . S
Co0 O27 2.096 1_545 S
C1 N4 1.301 . S
C1 N5 1.328 . S
C1 H6 0.930 . S
C2 C3 1.333 . S
C2 N4 1.317 . S
C2 H7 0.930 1_545 S
C3 C2 1.333 . S
C3 N5 1.350 . S
C3 H29 0.931 1_545 S
N4 Co0 2.148 . S
N4 C1 1.301 . S
N4 C2 1.317 . S
N5 C1 1.328 . S
N5 C3 1.350 . S
H6 C1 0.930 . S
H7 C2 0.930 1_565 S
C8 O9 1.224 1_565 S
C8 O27 1.247 . S
O9 C8 1.224 1_545 S
N10 Co0 2.128 . S
N10 C11 1.355 . S
N10 C13 1.311 . S
C11 N10 1.355 . S
C11 C12 1.363 . S
C11 H23 0.929 . S
C12 C11 1.363 . S
C12 N14 1.375 . S
C12 H30 0.931 . S
C13 N10 1.311 . S
C13 N14 1.347 . S
C13 H24 0.929 . S
N14 C12 1.375 . S
N14 C13 1.347 . S
C15 C18 1.365 . S
C15 N20 1.328 . S
C15 H21 0.929 . S
C16 C17 1.362 . S
C16 C19 1.378 . S
C16 H31 0.929 . S
C17 C16 1.362 . S
C17 C18 1.366 . S
C18 C15 1.365 . S
C18 C17 1.366 . S
C18 H32 0.930 . S
C19 C16 1.378 . S
C19 N20 1.315 . S
C19 H22 0.930 . S
N20 Co0 2.194 . S
N20 C15 1.328 . S
N20 C19 1.315 . S
H21 C15 0.929 . S
H22 C19 0.930 . S
H23 C11 0.929 . S
H24 C13 0.929 . S
O25 Co0 2.351 . S
O25 C28 1.244 . S
O26 Co0 2.155 . S
O26 C28 1.240 . S
O27 Co0 2.096 1_565 S
O27 C8 1.247 . S
C28 O25 1.244 . S
C28 O26 1.240 . S
H29 C3 0.931 1_565 S
H30 C12 0.931 . S
H31 C16 0.929 . S
H32 C18 0.930 . S
Co33 N37 2.148 . S
Co33 N43 2.128 . S
Co33 N53 2.194 1_455 S
Co33 O58 2.351 1_455 S
Co33 O59 2.155 . S
Co33 O60 2.096 . S
C34 N37 1.301 . S
C34 N38 1.328 . S
C34 H39 0.930 1_455 S
C35 C36 1.333 . S
C35 N37 1.317 . S
C35 H40 0.930 . S
C36 C35 1.333 . S
C36 N38 1.350 . S
C36 H62 0.931 . S
N37 Co33 2.148 . S
N37 C34 1.301 . S
N37 C35 1.317 . S
N38 C34 1.328 . S
N38 C36 1.350 . S
H39 C34 0.930 1_655 S
H40 C35 0.930 . S
C41 O42 1.224 . S
C41 O60 1.247 . S
O42 C41 1.224 . S
N43 Co33 2.128 . S
N43 C44 1.355 1_455 S
N43 C46 1.311 . S
C44 N43 1.355 1_655 S
C44 C45 1.363 . S
C44 H56 0.929 . S
C45 C44 1.363 . S
C45 N47 1.375 1_655 S
C45 H63 0.931 . S
C46 N43 1.311 . S
C46 N47 1.347 . S
C46 H57 0.929 . S
N47 C45 1.375 1_455 S
N47 C46 1.347 . S
C48 C51 1.365 . S
C48 N53 1.328 . S
C48 H54 0.929 . S
C49 C50 1.362 . S
C49 C52 1.378 . S
C49 H64 0.929 . S
C50 C49 1.362 . S
C50 C51 1.366 . S
C51 C48 1.365 . S
C51 C50 1.366 . S
C51 H65 0.930 . S
C52 C49 1.378 . S
C52 N53 1.315 . S
C52 H55 0.930 . S
N53 Co33 2.194 1_655 S
N53 C48 1.328 . S
N53 C52 1.315 . S
H54 C48 0.929 . S
H55 C52 0.930 . S
H56 C44 0.929 . S
H57 C46 0.929 . S
O58 Co33 2.351 1_655 S
O58 C61 1.244 1_655 S
O59 Co33 2.155 . S
O59 C61 1.240 . S
O60 Co33 2.096 . S
O60 C41 1.247 . S
C61 O58 1.244 1_455 S
C61 O59 1.240 . S
H62 C36 0.931 . S
H63 C45 0.931 . S
H64 C49 0.929 . S
H65 C51 0.930 . S
Co66 N70 2.148 . S
Co66 N76 2.128 . S
Co66 N86 2.194 1_545 S
Co66 O91 2.351 1_545 S
Co66 O92 2.155 . S
Co66 O93 2.096 . S
C67 N70 1.301 . S
C67 N71 1.328 . S
C67 H72 0.930 1_545 S
C68 C69 1.333 . S
C68 N70 1.317 . S
C68 H73 0.930 . S
C69 C68 1.333 . S
C69 N71 1.350 . S
C69 H95 0.931 . S
N70 Co66 2.148 . S
N70 C67 1.301 . S
N70 C68 1.317 . S
N71 C67 1.328 . S
N71 C69 1.350 . S
H72 C67 0.930 1_565 S
H73 C68 0.930 . S
C74 O75 1.224 . S
C74 O93 1.247 . S
O75 C74 1.224 . S
N76 Co66 2.128 . S
N76 C77 1.355 1_545 S
N76 C79 1.311 . S
C77 N76 1.355 1_565 S
C77 C78 1.363 . S
C77 H89 0.929 . S
C78 C77 1.363 . S
C78 N80 1.375 1_565 S
C78 H96 0.931 . S
C79 N76 1.311 . S
C79 N80 1.347 . S
C79 H90 0.929 . S
N80 C78 1.375 1_545 S
N80 C79 1.347 . S
C81 C84 1.365 . S
C81 N86 1.328 . S
C81 H87 0.929 . S
C82 C83 1.362 . S
C82 C85 1.378 . S
C82 H97 0.929 . S
C83 C82 1.362 . S
C83 C84 1.366 . S
C84 C81 1.365 . S
C84 C83 1.366 . S
C84 H98 0.930 . S
C85 C82 1.378 . S
C85 N86 1.315 . S
C85 H88 0.930 . S
N86 Co66 2.194 1_565 S
N86 C81 1.328 . S
N86 C85 1.315 . S
H87 C81 0.929 . S
H88 C85 0.930 . S
H89 C77 0.929 . S
H90 C79 0.929 . S
O91 Co66 2.351 1_565 S
O91 C94 1.244 1_565 S
O92 Co66 2.155 . S
O92 C94 1.240 . S
O93 Co66 2.096 . S
O93 C74 1.247 . S
C94 O91 1.244 1_545 S
C94 O92 1.240 . S
H95 C69 0.931 . S
H96 C78 0.931 . S
H97 C82 0.929 . S
H98 C84 0.930 . S
Co99 N103 2.148 . S
Co99 N109 2.128 . S
Co99 N119 2.194 . S
Co99 O124 2.351 . S
Co99 O125 2.155 . S
Co99 O126 2.096 1_455 S
C100 N103 1.301 . S
C100 N104 1.328 . S
C100 H105 0.930 . S
C101 C102 1.333 . S
C101 N103 1.317 . S
C101 H106 0.930 1_455 S
C102 C101 1.333 . S
C102 N104 1.350 . S
C102 H128 0.931 1_455 S
N103 Co99 2.148 . S
N103 C100 1.301 . S
N103 C101 1.317 . S
N104 C100 1.328 . S
N104 C102 1.350 . S
H105 C100 0.930 . S
H106 C101 0.930 1_655 S
C107 O108 1.224 1_655 S
C107 O126 1.247 . S
O108 C107 1.224 1_455 S
N109 Co99 2.128 . S
N109 C110 1.355 . S
N109 C112 1.311 . S
C110 N109 1.355 . S
C110 C111 1.363 . S
C110 H122 0.929 . S
C111 C110 1.363 . S
C111 N113 1.375 . S
C111 H129 0.931 . S
C112 N109 1.311 . S
C112 N113 1.347 . S
C112 H123 0.929 . S
N113 C111 1.375 . S
N113 C112 1.347 . S
C114 C117 1.365 . S
C114 N119 1.328 . S
C114 H120 0.929 . S
C115 C116 1.362 . S
C115 C118 1.378 . S
C115 H130 0.929 . S
C116 C115 1.362 . S
C116 C117 1.366 . S
C117 C114 1.365 . S
C117 C116 1.366 . S
C117 H131 0.930 . S
C118 C115 1.378 . S
C118 N119 1.315 . S
C118 H121 0.930 . S
N119 Co99 2.194 . S
N119 C114 1.328 . S
N119 C118 1.315 . S
H120 C114 0.929 . S
H121 C118 0.930 . S
H122 C110 0.929 . S
H123 C112 0.929 . S
O124 Co99 2.351 . S
O124 C127 1.244 . S
O125 Co99 2.155 . S
O125 C127 1.240 . S
O126 Co99 2.096 1_655 S
O126 C107 1.247 . S
C127 O124 1.244 . S
C127 O125 1.240 . S
H128 C102 0.931 1_655 S
H129 C111 0.931 . S
H130 C115 0.929 . S
H131 C117 0.930 . S
Co132 N136 2.148 . S
Co132 N142 2.128 . S
Co132 N152 2.194 1_545 S
Co132 O157 2.351 1_545 S
Co132 O158 2.155 . S
Co132 O159 2.096 . S
C133 N136 1.301 . S
C133 N137 1.328 . S
C133 H138 0.930 1_545 S
C134 C135 1.333 . S
C134 N136 1.317 . S
C134 H139 0.930 . S
C135 C134 1.333 . S
C135 N137 1.350 . S
C135 H161 0.931 . S
N136 Co132 2.148 . S
N136 C133 1.301 . S
N136 C134 1.317 . S
N137 C133 1.328 . S
N137 C135 1.350 . S
H138 C133 0.930 1_565 S
H139 C134 0.930 . S
C140 O141 1.224 . S
C140 O159 1.247 . S
O141 C140 1.224 . S
N142 Co132 2.128 . S
N142 C143 1.355 1_545 S
N142 C145 1.311 . S
C143 N142 1.355 1_565 S
C143 C144 1.363 . S
C143 H155 0.929 . S
C144 C143 1.363 . S
C144 N146 1.375 1_565 S
C144 H162 0.931 . S
C145 N142 1.311 . S
C145 N146 1.347 . S
C145 H156 0.929 . S
N146 C144 1.375 1_545 S
N146 C145 1.347 . S
C147 C150 1.365 . S
C147 N152 1.328 . S
C147 H153 0.929 . S
C148 C149 1.362 . S
C148 C151 1.378 . S
C148 H163 0.929 . S
C149 C148 1.362 . S
C149 C150 1.366 . S
C150 C147 1.365 . S
C150 C149 1.366 . S
C150 H164 0.930 . S
C151 C148 1.378 . S
C151 N152 1.315 . S
C151 H154 0.930 . S
N152 Co132 2.194 1_565 S
N152 C147 1.328 . S
N152 C151 1.315 . S
H153 C147 0.929 . S
H154 C151 0.930 . S
H155 C143 0.929 . S
H156 C145 0.929 . S
O157 Co132 2.351 1_565 S
O157 C160 1.244 1_565 S
O158 Co132 2.155 . S
O158 C160 1.240 . S
O159 Co132 2.096 . S
O159 C140 1.247 . S
C160 O157 1.244 1_545 S
C160 O158 1.240 . S
H161 C135 0.931 . S
H162 C144 0.931 . S
H163 C148 0.929 . S
H164 C150 0.930 . S
Co165 N169 2.148 . S
Co165 N175 2.128 . S
Co165 N185 2.194 . S
Co165 O190 2.351 . S
Co165 O191 2.155 . S
Co165 O192 2.096 1_455 S
C166 N169 1.301 . S
C166 N170 1.328 . S
C166 H171 0.930 . S
C167 C168 1.333 . S
C167 N169 1.317 . S
C167 H172 0.930 1_455 S
C168 C167 1.333 . S
C168 N170 1.350 . S
C168 H194 0.931 1_455 S
N169 Co165 2.148 . S
N169 C166 1.301 . S
N169 C167 1.317 . S
N170 C166 1.328 . S
N170 C168 1.350 . S
H171 C166 0.930 . S
H172 C167 0.930 1_655 S
C173 O174 1.224 1_655 S
C173 O192 1.247 . S
O174 C173 1.224 1_455 S
N175 Co165 2.128 . S
N175 C176 1.355 . S
N175 C178 1.311 . S
C176 N175 1.355 . S
C176 C177 1.363 . S
C176 H188 0.929 . S
C177 C176 1.363 . S
C177 N179 1.375 . S
C177 H195 0.931 . S
C178 N175 1.311 . S
C178 N179 1.347 . S
C178 H189 0.929 . S
N179 C177 1.375 . S
N179 C178 1.347 . S
C180 C183 1.365 . S
C180 N185 1.328 . S
C180 H186 0.929 . S
C181 C182 1.362 . S
C181 C184 1.378 . S
C181 H196 0.929 . S
C182 C181 1.362 . S
C182 C183 1.366 . S
C183 C180 1.365 . S
C183 C182 1.366 . S
C183 H197 0.930 . S
C184 C181 1.378 . S
C184 N185 1.315 . S
C184 H187 0.930 . S
N185 Co165 2.194 . S
N185 C180 1.328 . S
N185 C184 1.315 . S
H186 C180 0.929 . S
H187 C184 0.930 . S
H188 C176 0.929 . S
H189 C178 0.929 . S
O190 Co165 2.351 . S
O190 C193 1.244 . S
O191 Co165 2.155 . S
O191 C193 1.240 . S
O192 Co165 2.096 1_655 S
O192 C173 1.247 . S
C193 O190 1.244 . S
C193 O191 1.240 . S
H194 C168 0.931 1_655 S
H195 C177 0.931 . S
H196 C181 0.929 . S
H197 C183 0.930 . S
Co198 N202 2.148 . S
Co198 N208 2.128 . S
Co198 N218 2.194 . S
Co198 O223 2.351 . S
Co198 O224 2.155 . S
Co198 O225 2.096 1_545 S
C199 N202 1.301 . S
C199 N203 1.328 . S
C199 H204 0.930 . S
C200 C201 1.333 . S
C200 N202 1.317 . S
C200 H205 0.930 1_545 S
C201 C200 1.333 . S
C201 N203 1.350 . S
C201 H227 0.931 1_545 S
N202 Co198 2.148 . S
N202 C199 1.301 . S
N202 C200 1.317 . S
N203 C199 1.328 . S
N203 C201 1.350 . S
H204 C199 0.930 . S
H205 C200 0.930 1_565 S
C206 O207 1.224 1_565 S
C206 O225 1.247 . S
O207 C206 1.224 1_545 S
N208 Co198 2.128 . S
N208 C209 1.355 . S
N208 C211 1.311 . S
C209 N208 1.355 . S
C209 C210 1.363 . S
C209 H221 0.929 . S
C210 C209 1.363 . S
C210 N212 1.375 . S
C210 H228 0.931 . S
C211 N208 1.311 . S
C211 N212 1.347 . S
C211 H222 0.929 . S
N212 C210 1.375 . S
N212 C211 1.347 . S
C213 C216 1.365 . S
C213 N218 1.328 . S
C213 H219 0.929 . S
C214 C215 1.362 . S
C214 C217 1.378 . S
C214 H229 0.929 . S
C215 C214 1.362 . S
C215 C216 1.366 . S
C216 C213 1.365 . S
C216 C215 1.366 . S
C216 H230 0.930 . S
C217 C214 1.378 . S
C217 N218 1.315 . S
C217 H220 0.930 . S
N218 Co198 2.194 . S
N218 C213 1.328 . S
N218 C217 1.315 . S
H219 C213 0.929 . S
H220 C217 0.930 . S
H221 C209 0.929 . S
H222 C211 0.929 . S
O223 Co198 2.351 . S
O223 C226 1.244 . S
O224 Co198 2.155 . S
O224 C226 1.240 . S
O225 Co198 2.096 1_565 S
O225 C206 1.247 . S
C226 O223 1.244 . S
C226 O224 1.240 . S
H227 C201 0.931 1_565 S
H228 C210 0.931 . S
H229 C214 0.929 . S
H230 C216 0.930 . S
Co231 N235 2.148 . S
Co231 N241 2.128 . S
Co231 N251 2.194 1_455 S
Co231 O256 2.351 1_455 S
Co231 O257 2.155 . S
Co231 O258 2.096 . S
C232 N235 1.301 . S
C232 N236 1.328 . S
C232 H237 0.930 1_455 S
C233 C234 1.333 . S
C233 N235 1.317 . S
C233 H238 0.930 . S
C234 C233 1.333 . S
C234 N236 1.350 . S
C234 H260 0.931 . S
N235 Co231 2.148 . S
N235 C232 1.301 . S
N235 C233 1.317 . S
N236 C232 1.328 . S
N236 C234 1.350 . S
H237 C232 0.930 1_655 S
H238 C233 0.930 . S
C239 O240 1.224 . S
C239 O258 1.247 . S
O240 C239 1.224 . S
N241 Co231 2.128 . S
N241 C242 1.355 1_455 S
N241 C244 1.311 . S
C242 N241 1.355 1_655 S
C242 C243 1.363 . S
C242 H254 0.929 . S
C243 C242 1.363 . S
C243 N245 1.375 1_655 S
C243 H261 0.931 . S
C244 N241 1.311 . S
C244 N245 1.347 . S
C244 H255 0.929 . S
N245 C243 1.375 1_455 S
N245 C244 1.347 . S
C246 C249 1.365 . S
C246 N251 1.328 . S
C246 H252 0.929 . S
C247 C248 1.362 . S
C247 C250 1.378 . S
C247 H262 0.929 . S
C248 C247 1.362 . S
C248 C249 1.366 . S
C249 C246 1.365 . S
C249 C248 1.366 . S
C249 H263 0.930 . S
C250 C247 1.378 . S
C250 N251 1.315 . S
C250 H253 0.930 . S
N251 Co231 2.194 1_655 S
N251 C246 1.328 . S
N251 C250 1.315 . S
H252 C246 0.929 . S
H253 C250 0.930 . S
H254 C242 0.929 . S
H255 C244 0.929 . S
O256 Co231 2.351 1_655 S
O256 C259 1.244 1_655 S
O257 Co231 2.155 . S
O257 C259 1.240 . S
O258 Co231 2.096 . S
O258 C239 1.247 . S
C259 O256 1.244 1_455 S
C259 O257 1.240 . S
H260 C234 0.931 . S
H261 C243 0.931 . S
H262 C247 0.929 . S
H263 C249 0.930 . S
C264 C265 1.349 . S
C264 C266 1.327 . S
C264 H289 0.950 . S
C265 C264 1.349 . S
C265 C281 1.349 . S
C266 C264 1.327 . S
C266 C285 1.429 . S
C266 H290 0.950 . S
C267 C284 1.574 1_554 S
C267 C286 1.368 . S
C267 H291 0.949 . S
H268 C272 0.949 1_565 S
C269 C270 1.349 . S
C269 C271 1.327 . S
C269 H292 0.950 . S
C270 C269 1.349 . S
C270 C282 1.349 . S
C271 C269 1.327 . S
C271 C287 1.429 . S
C271 H293 0.950 . S
C272 H268 0.949 1_545 S
C272 C280 1.574 1_556 S
C272 C288 1.368 . S
H273 C281 0.950 . S
H274 C279 0.950 . S
H275 C280 0.935 1_565 S
H276 C282 0.950 1_565 S
H277 C283 0.950 1_565 S
H278 C284 0.949 . S
C279 H274 0.950 . S
C279 C281 1.327 . S
C279 C285 1.429 . S
C280 C272 1.574 1_554 S
C280 H275 0.935 1_545 S
C280 C286 1.368 . S
C281 C265 1.349 . S
C281 H273 0.950 . S
C281 C279 1.327 . S
C282 C270 1.349 . S
C282 H276 0.950 1_545 S
C282 C283 1.327 . S
C283 H277 0.950 1_545 S
C283 C282 1.327 . S
C283 C287 1.429 . S
C284 C267 1.574 1_556 S
C284 H278 0.949 . S
C284 C288 1.368 . S
C285 C266 1.429 . S
C285 C279 1.429 . S
C285 C286 1.523 . S
C286 C267 1.368 . S
C286 C280 1.368 . S
C286 C285 1.523 . S
C287 C271 1.429 . S
C287 C283 1.429 . S
C287 C288 1.523 . S
C288 C272 1.368 . S
C288 C284 1.368 . S
C288 C287 1.523 . S
H289 C264 0.950 . S
H290 C266 0.950 . S
H291 C267 0.949 . S
H292 C269 0.950 . S
H293 C271 0.950 . S
C294 C295 1.349 . S
C294 C296 1.327 . S
C294 H319 0.950 . S
C295 C294 1.349 . S
C295 C311 1.349 . S
C296 C294 1.327 . S
C296 C315 1.429 . S
C296 H320 0.950 . S
C297 C314 1.574 . S
C297 C316 1.368 . S
C297 H321 0.949 . S
H298 C302 0.949 . S
C299 C300 1.349 . S
C299 C301 1.327 . S
C299 H322 0.950 . S
C300 C299 1.349 . S
C300 C312 1.349 . S
C301 C299 1.327 . S
C301 C317 1.429 . S
C301 H323 0.950 . S
C302 H298 0.949 . S
C302 C310 1.574 . S
C302 C318 1.368 . S
H303 C311 0.950 . S
H304 C309 0.950 . S
H305 C310 0.949 . S
H306 C312 0.950 1_655 S
H307 C313 0.950 1_655 S
H308 C314 0.949 . S
C309 H304 0.950 . S
C309 C311 1.327 . S
C309 C315 1.429 . S
C310 C302 1.574 . S
C310 H305 0.949 . S
C310 C316 1.368 . S
C311 C295 1.349 . S
C311 H303 0.950 . S
C311 C309 1.327 . S
C312 C300 1.349 . S
C312 H306 0.950 1_455 S
C312 C313 1.327 . S
C313 H307 0.950 1_455 S
C313 C312 1.327 . S
C313 C317 1.429 . S
C314 C297 1.574 . S
C314 H308 0.949 . S
C314 C318 1.368 . S
C315 C296 1.429 . S
C315 C309 1.429 . S
C315 C316 1.523 . S
C316 C297 1.368 . S
C316 C310 1.368 . S
C316 C315 1.523 . S
C317 C301 1.429 . S
C317 C313 1.429 . S
C317 C318 1.523 . S
C318 C302 1.368 . S
C318 C314 1.368 . S
C318 C317 1.523 . S
H319 C294 0.950 . S
H320 C296 0.950 . S
H321 C297 0.949 . S
H322 C299 0.950 . S
H323 C301 0.950 . S
C324 C325 1.349 . S
C324 C326 1.327 . S
C324 H349 0.950 . S
C325 C324 1.349 . S
C325 C341 1.349 1_545 S
C326 C324 1.327 . S
C326 C345 1.429 . S
C326 H350 0.950 . S
C327 C344 1.574 1_554 S
C327 C346 1.368 . S
C327 H351 0.949 1_545 S
H328 C332 0.949 . S
C329 C330 1.349 . S
C329 C331 1.327 . S
C329 H352 0.950 . S
C330 C329 1.349 . S
C330 C342 1.349 . S
C331 C329 1.327 . S
C331 C347 1.429 . S
C331 H353 0.930 1_545 S
C332 H328 0.949 . S
C332 C340 1.574 1_556 S
C332 C348 1.368 . S
H333 C341 0.950 . S
H334 C339 0.950 1_565 S
H335 C340 0.949 . S
H336 C342 0.950 . S
H337 C343 0.950 . S
H338 C344 0.949 1_565 S
C339 H334 0.950 1_545 S
C339 C341 1.327 1_545 S
C339 C345 1.429 . S
C340 C332 1.574 1_554 S
C340 H335 0.949 . S
C340 C346 1.368 . S
C341 C325 1.349 1_565 S
C341 H333 0.950 . S
C341 C339 1.327 1_565 S
C342 C330 1.349 . S
C342 H336 0.950 . S
C342 C343 1.327 . S
C343 H337 0.950 . S
C343 C342 1.327 . S
C343 C347 1.429 . S
C344 C327 1.574 1_556 S
C344 H338 0.949 1_545 S
C344 C348 1.368 . S
C345 C326 1.429 . S
C345 C339 1.429 . S
C345 C346 1.523 . S
C346 C327 1.368 . S
C346 C340 1.368 . S
C346 C345 1.523 . S
C347 C331 1.429 . S
C347 C343 1.429 . S
C347 C348 1.523 . S
C348 C332 1.368 . S
C348 C344 1.368 . S
C348 C347 1.523 . S
H349 C324 0.950 . S
H350 C326 0.950 . S
H351 C327 0.949 1_565 S
H352 C329 0.950 . S
H353 C331 0.930 1_565 S
C354 C355 1.349 . S
C354 C356 1.327 . S
C354 H379 0.950 1_455 S
C355 C354 1.349 . S
C355 C371 1.349 . S
C356 C354 1.327 . S
C356 C375 1.429 . S
C356 H380 0.950 1_455 S
C357 C374 1.574 . S
C357 C376 1.368 . S
C357 H381 0.949 . S
H358 C362 0.949 . S
C359 C360 1.349 . S
C359 C361 1.327 . S
C359 H382 0.950 . S
C360 C359 1.349 . S
C360 C372 1.349 . S
C361 C359 1.327 . S
C361 C377 1.429 . S
C361 H383 0.950 . S
C362 H358 0.949 . S
C362 C370 1.574 . S
C362 C378 1.368 . S
H363 C371 0.950 . S
H364 C369 0.950 . S
H365 C370 0.949 . S
H366 C372 0.950 . S
H367 C373 0.950 . S
H368 C374 0.949 . S
C369 H364 0.950 . S
C369 C371 1.327 . S
C369 C375 1.429 . S
C370 C362 1.574 . S
C370 H365 0.949 . S
C370 C376 1.368 . S
C371 C355 1.349 . S
C371 H363 0.950 . S
C371 C369 1.327 . S
C372 C360 1.349 . S
C372 H366 0.950 . S
C372 C373 1.327 . S
C373 H367 0.950 . S
C373 C372 1.327 . S
C373 C377 1.429 . S
C374 C357 1.574 . S
C374 H368 0.949 . S
C374 C378 1.368 . S
C375 C356 1.429 . S
C375 C369 1.429 . S
C375 C376 1.523 . S
C376 C357 1.368 . S
C376 C370 1.368 . S
C376 C375 1.523 . S
C377 C361 1.429 . S
C377 C373 1.429 . S
C377 C378 1.523 . S
C378 C362 1.368 . S
C378 C374 1.368 . S
C378 C377 1.523 . S
H379 C354 0.950 1_655 S
H380 C356 0.950 1_655 S
H381 C357 0.949 . S
H382 C359 0.950 . S
H383 C361 0.950 . S
C384 C385 1.349 . S
C384 C386 1.327 . S
C384 H409 0.950 . S
C385 C384 1.349 . S
C385 C401 1.349 . S
C386 C384 1.327 . S
C386 C405 1.429 . S
C386 H410 0.950 . S
C387 C404 1.574 . S
C387 C406 1.368 . S
C387 H411 0.949 . S
H388 C392 0.949 . S
C389 C390 1.349 . S
C389 C391 1.327 . S
C389 H412 0.950 . S
C390 C389 1.349 . S
C390 C402 1.349 . S
C391 C389 1.327 . S
C391 C407 1.429 . S
C391 H413 0.950 . S
C392 H388 0.949 . S
C392 C400 1.574 . S
C392 C408 1.368 . S
H393 C401 0.950 . S
H394 C399 0.950 . S
H395 C400 0.949 . S
H396 C402 0.950 . S
H397 C403 0.950 . S
H398 C404 0.949 . S
C399 H394 0.950 . S
C399 C401 1.327 . S
C399 C405 1.429 . S
C400 C392 1.574 . S
C400 H395 0.949 . S
C400 C406 1.368 . S
C401 C385 1.349 . S
C401 H393 0.950 . S
C401 C399 1.327 . S
C402 C390 1.349 . S
C402 H396 0.950 . S
C402 C403 1.327 . S
C403 H397 0.950 . S
C403 C402 1.327 . S
C403 C407 1.429 . S
C404 C387 1.574 . S
C404 H398 0.949 . S
C404 C408 1.368 . S
C405 C386 1.429 . S
C405 C399 1.429 . S
C405 C406 1.523 . S
C406 C387 1.368 . S
C406 C400 1.368 . S
C406 C405 1.523 . S
C407 C391 1.429 . S
C407 C403 1.429 . S
C407 C408 1.523 . S
C408 C392 1.368 . S
C408 C404 1.368 . S
C408 C407 1.523 . S
H409 C384 0.950 . S
H410 C386 0.950 . S
H411 C387 0.949 . S
H412 C389 0.950 . S
H413 C391 0.950 . S
C414 C415 1.349 . S
C414 C416 1.327 . S
C414 H439 0.950 . S
C415 C414 1.349 . S
C415 C431 1.349 . S
C416 C414 1.327 . S
C416 C435 1.429 . S
C416 H440 0.950 . S
C417 C434 1.574 . S
C417 C436 1.368 . S
C417 H441 0.949 . S
H418 C422 0.949 . S
C419 C420 1.349 . S
C419 C421 1.327 . S
C419 H442 0.950 . S
C420 C419 1.349 . S
C420 C432 1.349 . S
C421 C419 1.327 . S
C421 C437 1.429 . S
C421 H443 0.950 . S
C422 H418 0.949 . S
C422 C430 1.574 . S
C422 C438 1.368 . S
H423 C431 0.950 . S
H424 C429 0.950 . S
H425 C430 0.949 . S
H426 C432 0.950 . S
H427 C433 0.950 . S
H428 C434 0.949 . S
C429 H424 0.950 . S
C429 C431 1.327 . S
C429 C435 1.429 . S
C430 C422 1.574 . S
C430 H425 0.949 . S
C430 C436 1.368 . S
C431 C415 1.349 . S
C431 H423 0.950 . S
C431 C429 1.327 . S
C432 C420 1.349 . S
C432 H426 0.950 . S
C432 C433 1.327 . S
C433 H427 0.950 . S
C433 C432 1.327 . S
C433 C437 1.429 . S
C434 C417 1.574 . S
C434 H428 0.949 . S
C434 C438 1.368 . S
C435 C416 1.429 . S
C435 C429 1.429 . S
C435 C436 1.523 . S
C436 C417 1.368 . S
C436 C430 1.368 . S
C436 C435 1.523 . S
C437 C421 1.429 . S
C437 C433 1.429 . S
C437 C438 1.523 . S
C438 C422 1.368 . S
C438 C434 1.368 . S
C438 C437 1.523 . S
H439 C414 0.950 . S
H440 C416 0.950 . S
H441 C417 0.949 . S
H442 C419 0.950 . S
H443 C421 0.950 . S
C444 C445 1.349 . S
C444 C446 1.327 . S
C444 H469 0.950 . S
C445 C444 1.349 . S
C445 C461 1.349 . S
C446 C444 1.327 . S
C446 C465 1.429 . S
C446 H470 0.950 . S
C447 C464 1.574 . S
C447 C466 1.368 . S
C447 H471 0.949 . S
H448 C452 0.949 . S
C449 C450 1.349 . S
C449 C451 1.327 . S
C449 H472 0.950 . S
C450 C449 1.349 . S
C450 C462 1.349 . S
C451 C449 1.327 . S
C451 C467 1.429 . S
C451 H473 0.950 . S
C452 H448 0.949 . S
C452 C460 1.574 . S
C452 C468 1.368 . S
H453 C461 0.950 . S
H454 C459 0.950 . S
H455 C460 0.949 . S
H456 C462 0.950 . S
H457 C463 0.950 . S
H458 C464 0.949 . S
C459 H454 0.950 . S
C459 C461 1.327 . S
C459 C465 1.429 . S
C460 C452 1.574 . S
C460 H455 0.949 . S
C460 C466 1.368 . S
C461 C445 1.349 . S
C461 H453 0.950 . S
C461 C459 1.327 . S
C462 C450 1.349 . S
C462 H456 0.950 . S
C462 C463 1.327 . S
C463 H457 0.950 . S
C463 C462 1.327 . S
C463 C467 1.429 . S
C464 C447 1.574 . S
C464 H458 0.949 . S
C464 C468 1.368 . S
C465 C446 1.429 . S
C465 C459 1.429 . S
C465 C466 1.523 . S
C466 C447 1.368 . S
C466 C460 1.368 . S
C466 C465 1.523 . S
C467 C451 1.429 . S
C467 C463 1.429 . S
C467 C468 1.523 . S
C468 C452 1.368 . S
C468 C464 1.368 . S
C468 C467 1.523 . S
H469 C444 0.950 . S
H470 C446 0.950 . S
H471 C447 0.949 . S
H472 C449 0.950 . S
H473 C451 0.950 . S
C474 C475 1.349 . S
C474 C476 1.327 . S
C474 H499 0.950 . S
C475 C474 1.349 . S
C475 C491 1.349 . S
C476 C474 1.327 . S
C476 C495 1.429 . S
C476 H500 0.950 . S
C477 C494 1.574 . S
C477 C496 1.368 . S
C477 H501 0.949 . S
H478 C482 0.949 . S
C479 C480 1.349 . S
C479 C481 1.327 . S
C479 H502 0.950 . S
C480 C479 1.349 . S
C480 C492 1.349 . S
C481 C479 1.327 . S
C481 C497 1.429 . S
C481 H503 0.950 . S
C482 H478 0.949 . S
C482 C490 1.574 . S
C482 C498 1.368 . S
H483 C491 0.950 . S
H484 C489 0.950 . S
H485 C490 0.949 . S
H486 C492 0.950 . S
H487 C493 0.950 . S
H488 C494 0.949 . S
C489 H484 0.950 . S
C489 C491 1.327 . S
C489 C495 1.429 . S
C490 C482 1.574 . S
C490 H485 0.949 . S
C490 C496 1.368 . S
C491 C475 1.349 . S
C491 H483 0.950 . S
C491 C489 1.327 . S
C492 C480 1.349 . S
C492 H486 0.950 . S
C492 C493 1.327 . S
C493 H487 0.950 . S
C493 C492 1.327 . S
C493 C497 1.429 . S
C494 C477 1.574 . S
C494 H488 0.949 . S
C494 C498 1.368 . S
C495 C476 1.429 . S
C495 C489 1.429 . S
C495 C496 1.523 . S
C496 C477 1.368 . S
C496 C490 1.368 . S
C496 C495 1.523 . S
C497 C481 1.429 . S
C497 C493 1.429 . S
C497 C498 1.523 . S
C498 C482 1.368 . S
C498 C494 1.368 . S
C498 C497 1.523 . S
H499 C474 0.950 . S
H500 C476 0.950 . S
H501 C477 0.949 . S
H502 C479 0.950 . S
H503 C481 0.950 . S
C504 C505 1.349 . S
C504 C506 1.327 . S
C504 H529 0.950 . S
C505 C504 1.349 . S
C505 C521 1.349 . S
C506 C504 1.327 . S
C506 C525 1.429 . S
C506 H530 0.950 . S
C507 C524 1.574 . S
C507 C526 1.368 . S
C507 H531 0.949 . S
H508 C512 0.949 . S
C509 C510 1.349 . S
C509 C511 1.327 . S
C509 H532 0.950 . S
C510 C509 1.349 . S
C510 C522 1.349 . S
C511 C509 1.327 . S
C511 C527 1.429 . S
C511 H533 0.950 . S
C512 H508 0.949 . S
C512 C520 1.574 . S
C512 C528 1.368 . S
H513 C521 0.950 . S
H514 C519 0.950 . S
H515 C520 0.949 . S
H516 C522 0.950 . S
H517 C523 0.950 . S
H518 C524 0.949 . S
C519 H514 0.950 . S
C519 C521 1.327 . S
C519 C525 1.429 . S
C520 C512 1.574 . S
C520 H515 0.949 . S
C520 C526 1.368 . S
C521 C505 1.349 . S
C521 H513 0.950 . S
C521 C519 1.327 . S
C522 C510 1.349 . S
C522 H516 0.950 . S
C522 C523 1.327 . S
C523 H517 0.950 . S
C523 C522 1.327 . S
C523 C527 1.429 . S
C524 C507 1.574 . S
C524 H518 0.949 . S
C524 C528 1.368 . S
C525 C506 1.429 . S
C525 C519 1.429 . S
C525 C526 1.523 . S
C526 C507 1.368 . S
C526 C520 1.368 . S
C526 C525 1.523 . S
C527 C511 1.429 . S
C527 C523 1.429 . S
C527 C528 1.523 . S
C528 C512 1.368 . S
C528 C524 1.368 . S
C528 C527 1.523 . S
H529 C504 0.950 . S
H530 C506 0.950 . S
H531 C507 0.949 . S
H532 C509 0.950 . S
H533 C511 0.950 . S
C534 C535 1.349 . S
C534 C536 1.327 . S
C534 H559 0.950 . S
C535 C534 1.349 . S
C535 C551 1.349 . S
C536 C534 1.327 . S
C536 C555 1.429 . S
C536 H560 0.950 . S
C537 C554 1.574 . S
C537 C556 1.368 . S
C537 H561 0.949 . S
H538 C542 0.949 . S
C539 C540 1.349 . S
C539 C541 1.327 . S
C539 H562 0.950 . S
C540 C539 1.349 . S
C540 C552 1.349 . S
C541 C539 1.327 . S
C541 C557 1.429 . S
C541 H563 0.950 . S
C542 H538 0.949 . S
C542 C550 1.574 . S
C542 C558 1.368 . S
H543 C551 0.950 . S
H544 C549 0.950 . S
H545 C550 0.949 . S
H546 C552 0.950 . S
H547 C553 0.950 . S
H548 C554 0.949 . S
C549 H544 0.950 . S
C549 C551 1.327 . S
C549 C555 1.429 . S
C550 C542 1.574 . S
C550 H545 0.949 . S
C550 C556 1.368 . S
C551 C535 1.349 . S
C551 H543 0.950 . S
C551 C549 1.327 . S
C552 C540 1.349 . S
C552 H546 0.950 . S
C552 C553 1.327 . S
C553 H547 0.950 . S
C553 C552 1.327 . S
C553 C557 1.429 . S
C554 C537 1.574 . S
C554 H548 0.949 . S
C554 C558 1.368 . S
C555 C536 1.429 . S
C555 C549 1.429 . S
C555 C556 1.523 . S
C556 C537 1.368 . S
C556 C550 1.368 . S
C556 C555 1.523 . S
C557 C541 1.429 . S
C557 C553 1.429 . S
C557 C558 1.523 . S
C558 C542 1.368 . S
C558 C554 1.368 . S
C558 C557 1.523 . S
H559 C534 0.950 . S
H560 C536 0.950 . S
H561 C537 0.949 . S
H562 C539 0.950 . S
H563 C541 0.950 . S
C564 C565 1.349 . S
C564 C566 1.327 . S
C564 H589 0.950 . S
C565 C564 1.349 . S
C565 C581 1.349 . S
C566 C564 1.327 . S
C566 C585 1.429 . S
C566 H590 0.950 . S
C567 C584 1.574 . S
C567 C586 1.368 . S
C567 H591 0.949 . S
H568 C572 0.949 . S
C569 C570 1.349 . S
C569 C571 1.327 . S
C569 H592 0.950 . S
C570 C569 1.349 . S
C570 C582 1.349 . S
C571 C569 1.327 . S
C571 C587 1.429 . S
C571 H593 0.950 . S
C572 H568 0.949 . S
C572 C580 1.574 . S
C572 C588 1.368 . S
H573 C581 0.950 . S
H574 C579 0.950 . S
H575 C580 0.949 . S
H576 C582 0.950 . S
H577 C583 0.950 . S
H578 C584 0.949 . S
C579 H574 0.950 . S
C579 C581 1.327 . S
C579 C585 1.429 . S
C580 C572 1.574 . S
C580 H575 0.949 . S
C580 C586 1.368 . S
C581 C565 1.349 . S
C581 H573 0.950 . S
C581 C579 1.327 . S
C582 C570 1.349 . S
C582 H576 0.950 . S
C582 C583 1.327 . S
C583 H577 0.950 . S
C583 C582 1.327 . S
C583 C587 1.429 . S
C584 C567 1.574 . S
C584 H578 0.949 . S
C584 C588 1.368 . S
C585 C566 1.429 . S
C585 C579 1.429 . S
C585 C586 1.523 . S
C586 C567 1.368 . S
C586 C580 1.368 . S
C586 C585 1.523 . S
C587 C571 1.429 . S
C587 C583 1.429 . S
C587 C588 1.523 . S
C588 C572 1.368 . S
C588 C584 1.368 . S
C588 C587 1.523 . S
H589 C564 0.950 . S
H590 C566 0.950 . S
H591 C567 0.949 . S
H592 C569 0.950 . S
H593 C571 0.950 . S
C594 C595 1.349 . S
C594 C596 1.327 . S
C594 H619 0.950 . S
C595 C594 1.349 . S
C595 C611 1.349 . S
C596 C594 1.327 . S
C596 C615 1.429 . S
C596 H620 0.950 . S
C597 C614 1.574 . S
C597 C616 1.368 . S
C597 H621 0.949 . S
H598 C602 0.949 . S
C599 C600 1.349 . S
C599 C601 1.327 . S
C599 H622 0.950 . S
C600 C599 1.349 . S
C600 C612 1.349 . S
C601 C599 1.327 . S
C601 C617 1.429 . S
C601 H623 0.950 . S
C602 H598 0.949 . S
C602 C610 1.574 . S
C602 C618 1.368 . S
H603 C611 0.950 . S
H604 C609 0.950 . S
H605 C610 0.949 . S
H606 C612 0.950 . S
H607 C613 0.950 . S
H608 C614 0.949 . S
C609 H604 0.950 . S
C609 C611 1.327 . S
C609 C615 1.429 . S
C610 C602 1.574 . S
C610 H605 0.949 . S
C610 C616 1.368 . S
C611 C595 1.349 . S
C611 H603 0.950 . S
C611 C609 1.327 . S
C612 C600 1.349 . S
C612 H606 0.950 . S
C612 C613 1.327 . S
C613 H607 0.950 . S
C613 C612 1.327 . S
C613 C617 1.429 . S
C614 C597 1.574 . S
C614 H608 0.949 . S
C614 C618 1.368 . S
C615 C596 1.429 . S
C615 C609 1.429 . S
C615 C616 1.523 . S
C616 C597 1.368 . S
C616 C610 1.368 . S
C616 C615 1.523 . S
C617 C601 1.429 . S
C617 C613 1.429 . S
C617 C618 1.523 . S
C618 C602 1.368 . S
C618 C614 1.368 . S
C618 C617 1.523 . S
H619 C594 0.950 . S
H620 C596 0.950 . S
H621 C597 0.949 . S
H622 C599 0.950 . S
H623 C601 0.950 . S
C624 C625 1.349 . S
C624 C626 1.327 . S
C624 H649 0.950 . S
C625 C624 1.349 . S
C625 C641 1.349 . S
C626 C624 1.327 . S
C626 C645 1.429 . S
C626 H650 0.950 . S
C627 C644 1.574 . S
C627 C646 1.368 . S
C627 H651 0.949 . S
H628 C632 0.949 . S
C629 C630 1.349 . S
C629 C631 1.327 . S
C629 H652 0.950 . S
C630 C629 1.349 . S
C630 C642 1.349 . S
C631 C629 1.327 . S
C631 C647 1.429 . S
C631 H653 0.950 . S
C632 H628 0.949 . S
C632 C640 1.574 . S
C632 C648 1.382 . S
H633 C641 0.950 . S
H634 C639 0.950 . S
H635 C640 0.949 . S
H636 C642 0.947 1_565 S
H637 C643 0.950 . S
H638 C644 0.949 1_655 S
C639 H634 0.950 . S
C639 C641 1.327 . S
C639 C645 1.429 . S
C640 C632 1.574 . S
C640 H635 0.949 . S
C640 C646 1.368 . S
C641 C625 1.349 . S
C641 H633 0.950 . S
C641 C639 1.327 . S
C642 C630 1.349 . S
C642 H636 0.947 1_545 S
C642 C643 1.327 . S
C643 H637 0.950 . S
C643 C642 1.327 . S
C643 C647 1.429 . S
C644 C627 1.574 . S
C644 H638 0.949 1_455 S
C644 C648 1.381 . S
C645 C626 1.429 . S
C645 C639 1.429 . S
C645 C646 1.523 . S
C646 C627 1.368 . S
C646 C640 1.368 . S
C646 C645 1.523 . S
C647 C631 1.429 . S
C647 C643 1.429 . S
C647 C648 1.489 1_655 S
C648 C632 1.382 . S
C648 C644 1.381 . S
C648 C647 1.489 1_455 S
H649 C624 0.950 . S
H650 C626 0.950 . S
H651 C627 0.949 . S
H652 C629 0.950 . S
H653 C631 0.950 . S
C654 C655 1.349 . S
C654 C656 1.327 . S
C654 H679 0.947 1_455 S
C655 C654 1.349 . S
C655 C671 1.349 . S
C656 C654 1.327 . S
C656 C675 1.429 . S
C656 H680 0.950 . S
C657 C674 1.574 . S
C657 C676 1.368 . S
C657 H681 0.949 . S
H658 C662 0.949 1_565 S
C659 C660 1.349 . S
C659 C661 1.327 . S
C659 H682 0.950 . S
C660 C659 1.349 . S
C660 C672 1.349 . S
C661 C659 1.327 . S
C661 C677 1.429 . S
C661 H683 0.950 . S
C662 H658 0.949 1_545 S
C662 C670 1.574 . S
C662 C678 1.381 . S
H663 C671 0.950 . S
H664 C669 0.950 . S
H665 C670 0.949 . S
H666 C672 0.950 . S
H667 C673 0.950 . S
H668 C674 0.949 . S
C669 H664 0.950 . S
C669 C671 1.327 . S
C669 C675 1.429 . S
C670 C662 1.574 . S
C670 H665 0.949 . S
C670 C676 1.368 . S
C671 C655 1.349 . S
C671 H663 0.950 . S
C671 C669 1.327 . S
C672 C660 1.349 . S
C672 H666 0.950 . S
C672 C673 1.327 . S
C673 H667 0.950 . S
C673 C672 1.327 . S
C673 C677 1.429 . S
C674 C657 1.574 . S
C674 H668 0.949 . S
C674 C678 1.383 . S
C675 C656 1.429 . S
C675 C669 1.429 . S
C675 C676 1.523 . S
C676 C657 1.368 . S
C676 C670 1.368 . S
C676 C675 1.523 . S
C677 C661 1.429 . S
C677 C673 1.429 . S
C677 C678 1.489 1_565 S
C678 C662 1.381 . S
C678 C674 1.383 . S
C678 C677 1.489 1_545 S
H679 C654 0.947 1_655 S
H680 C656 0.950 . S
H681 C657 0.949 . S
H682 C659 0.950 . S
H683 C661 0.950 . S
C684 C685 1.349 . S
C684 C686 1.327 . S
C684 H709 0.950 . S
C685 C684 1.349 . S
C685 C701 1.349 . S
C686 C684 1.327 . S
C686 C705 1.429 . S
C686 H710 0.950 . S
C687 C704 1.574 . S
C687 C706 1.381 . S
C687 H711 0.949 1_455 S
H688 C692 0.949 . S
C689 C690 1.349 . S
C689 C691 1.327 . S
C689 H712 0.945 1_545 S
C690 C689 1.349 . S
C690 C702 1.349 . S
C691 C689 1.327 . S
C691 C707 1.429 . S
C691 H713 0.950 . S
C692 H688 0.949 . S
C692 C700 1.574 . S
C692 C708 1.368 . S
H693 C701 0.950 . S
H694 C699 0.950 . S
H695 C700 0.949 . S
H696 C702 0.950 . S
H697 C703 0.950 . S
H698 C704 0.949 . S
C699 H694 0.950 . S
C699 C701 1.327 . S
C699 C705 1.429 . S
C700 C692 1.574 . S
C700 H695 0.949 . S
C700 C706 1.383 . S
C701 C685 1.349 . S
C701 H693 0.950 . S
C701 C699 1.327 . S
C702 C690 1.349 . S
C702 H696 0.950 . S
C702 C703 1.327 . S
C703 H697 0.950 . S
C703 C702 1.327 . S
C703 C707 1.429 . S
C704 C687 1.574 . S
C704 H698 0.949 . S
C704 C708 1.368 . S
C705 C686 1.429 . S
C705 C699 1.429 . S
C705 C706 1.489 1_655 S
C706 C687 1.381 . S
C706 C700 1.383 . S
C706 C705 1.489 1_455 S
C707 C691 1.429 . S
C707 C703 1.429 . S
C707 C708 1.523 . S
C708 C692 1.368 . S
C708 C704 1.368 . S
C708 C707 1.523 . S
H709 C684 0.950 . S
H710 C686 0.950 . S
H711 C687 0.949 1_655 S
H712 C689 0.945 1_565 S
H713 C691 0.950 . S
C714 C715 1.349 . S
C714 C716 1.327 . S
C714 H739 0.950 . S
C715 C714 1.349 . S
C715 C731 1.349 . S
C716 C714 1.327 . S
C716 C735 1.429 . S
C716 H740 0.950 . S
C717 C734 1.574 . S
C717 C736 1.382 . S
C717 H741 0.949 . S
H718 C722 0.949 . S
C719 C720 1.349 . S
C719 C721 1.327 . S
C719 H742 0.950 . S
C720 C719 1.349 . S
C720 C732 1.349 . S
C721 C719 1.327 . S
C721 C737 1.429 . S
C721 H743 0.950 . S
C722 H718 0.949 . S
C722 C730 1.574 . S
C722 C738 1.368 . S
H723 C731 0.949 1_655 S
H724 C729 0.950 . S
H725 C730 0.949 1_565 S
H726 C732 0.950 . S
H727 C733 0.950 . S
H728 C734 0.949 . S
C729 H724 0.950 . S
C729 C731 1.327 . S
C729 C735 1.429 . S
C730 C722 1.574 . S
C730 H725 0.949 1_545 S
C730 C736 1.381 . S
C731 C715 1.349 . S
C731 H723 0.949 1_455 S
C731 C729 1.327 . S
C732 C720 1.349 . S
C732 H726 0.950 . S
C732 C733 1.327 . S
C733 H727 0.950 . S
C733 C732 1.327 . S
C733 C737 1.429 . S
C734 C717 1.574 . S
C734 H728 0.949 . S
C734 C738 1.368 . S
C735 C716 1.429 . S
C735 C729 1.429 . S
C735 C736 1.489 1_565 S
C736 C717 1.382 . S
C736 C730 1.381 . S
C736 C735 1.489 1_545 S
C737 C721 1.429 . S
C737 C733 1.429 . S
C737 C738 1.523 . S
C738 C722 1.368 . S
C738 C734 1.368 . S
C738 C737 1.523 . S
H739 C714 0.950 . S
H740 C716 0.950 . S
H741 C717 0.949 . S
H742 C719 0.950 . S
H743 C721 0.950 . S
C744 C745 1.349 . S
C744 C746 1.327 . S
C744 H769 0.950 . S
C745 C744 1.349 . S
C745 C761 1.349 . S
C746 C744 1.327 . S
C746 C765 1.429 . S
C746 H770 0.950 . S
C747 C764 1.574 . S
C747 C766 1.368 . S
C747 H771 0.949 . S
H748 C752 0.949 . S
C749 C750 1.349 . S
C749 C751 1.327 . S
C749 H772 0.950 1_545 S
C750 C749 1.349 . S
C750 C762 1.349 . S
C751 C749 1.327 . S
C751 C767 1.429 . S
C751 H773 0.950 1_545 S
C752 H748 0.949 . S
C752 C760 1.574 . S
C752 C768 1.368 . S
H753 C761 0.950 . S
H754 C759 0.950 . S
H755 C760 0.949 . S
H756 C762 0.950 . S
H757 C763 0.950 . S
H758 C764 0.949 . S
C759 H754 0.950 . S
C759 C761 1.327 . S
C759 C765 1.429 . S
C760 C752 1.574 . S
C760 H755 0.949 . S
C760 C766 1.368 . S
C761 C745 1.349 . S
C761 H753 0.950 . S
C761 C759 1.327 . S
C762 C750 1.349 . S
C762 H756 0.950 . S
C762 C763 1.327 . S
C763 H757 0.950 . S
C763 C762 1.327 . S
C763 C767 1.429 . S
C764 C747 1.574 . S
C764 H758 0.949 . S
C764 C768 1.368 . S
C765 C746 1.429 . S
C765 C759 1.429 . S
C765 C766 1.523 . S
C766 C747 1.368 . S
C766 C760 1.368 . S
C766 C765 1.523 . S
C767 C751 1.429 . S
C767 C763 1.429 . S
C767 C768 1.523 . S
C768 C752 1.368 . S
C768 C764 1.368 . S
C768 C767 1.523 . S
H769 C744 0.950 . S
H770 C746 0.950 . S
H771 C747 0.949 . S
H772 C749 0.950 1_565 S
H773 C751 0.950 1_565 S
C774 C775 1.349 . S
C774 C776 1.327 . S
C774 H799 0.950 . S
C775 C774 1.349 . S
C775 C791 1.349 . S
C776 C774 1.327 . S
C776 C795 1.429 . S
C776 H800 0.950 . S
C777 C794 1.574 . S
C777 C796 1.368 . S
C777 H801 0.949 . S
H778 C782 0.949 . S
C779 C780 1.349 . S
C779 C781 1.327 . S
C779 H802 0.950 . S
C780 C779 1.349 . S
C780 C792 1.349 . S
C781 C779 1.327 . S
C781 C797 1.429 . S
C781 H803 0.950 . S
C782 H778 0.949 . S
C782 C790 1.574 . S
C782 C798 1.368 . S
H783 C791 0.950 . S
H784 C789 0.950 . S
H785 C790 0.949 . S
H786 C792 0.950 1_655 S
H787 C793 0.950 1_655 S
H788 C794 0.949 . S
C789 H784 0.950 . S
C789 C791 1.327 . S
C789 C795 1.429 . S
C790 C782 1.574 . S
C790 H785 0.949 . S
C790 C796 1.368 . S
C791 C775 1.349 . S
C791 H783 0.950 . S
C791 C789 1.327 . S
C792 C780 1.349 . S
C792 H786 0.950 1_455 S
C792 C793 1.327 . S
C793 H787 0.950 1_455 S
C793 C792 1.327 . S
C793 C797 1.429 . S
C794 C777 1.574 . S
C794 H788 0.949 . S
C794 C798 1.368 . S
C795 C776 1.429 . S
C795 C789 1.429 . S
C795 C796 1.523 . S
C796 C777 1.368 . S
C796 C790 1.368 . S
C796 C795 1.523 . S
C797 C781 1.429 . S
C797 C793 1.429 . S
C797 C798 1.523 . S
C798 C782 1.368 . S
C798 C794 1.368 . S
C798 C797 1.523 . S
H799 C774 0.950 . S
H800 C776 0.950 . S
H801 C777 0.949 . S
H802 C779 0.950 . S
H803 C781 0.950 . S
C804 C805 1.349 . S
C804 C806 1.327 . S
C804 H829 0.950 1_545 S
C805 C804 1.349 . S
C805 C821 1.349 . S
C806 C804 1.327 . S
C806 C825 1.429 . S
C806 H830 0.950 1_545 S
C807 C824 1.574 . S
C807 C826 1.368 . S
C807 H831 0.949 . S
H808 C812 0.949 . S
C809 C810 1.349 . S
C809 C811 1.327 . S
C809 H832 0.950 . S
C810 C809 1.349 . S
C810 C822 1.349 . S
C811 C809 1.327 . S
C811 C827 1.429 . S
C811 H833 0.950 . S
C812 H808 0.949 . S
C812 C820 1.574 . S
C812 C828 1.368 . S
H813 C821 0.950 . S
H814 C819 0.950 . S
H815 C820 0.949 . S
H816 C822 0.950 . S
H817 C823 0.950 . S
H818 C824 0.949 . S
C819 H814 0.950 . S
C819 C821 1.327 . S
C819 C825 1.429 . S
C820 C812 1.574 . S
C820 H815 0.949 . S
C820 C826 1.368 . S
C821 C805 1.349 . S
C821 H813 0.950 . S
C821 C819 1.327 . S
C822 C810 1.349 . S
C822 H816 0.950 . S
C822 C823 1.327 . S
C823 H817 0.950 . S
C823 C822 1.327 . S
C823 C827 1.429 . S
C824 C807 1.574 . S
C824 H818 0.949 . S
C824 C828 1.368 . S
C825 C806 1.429 . S
C825 C819 1.429 . S
C825 C826 1.523 . S
C826 C807 1.368 . S
C826 C820 1.368 . S
C826 C825 1.523 . S
C827 C811 1.429 . S
C827 C823 1.429 . S
C827 C828 1.523 . S
C828 C812 1.368 . S
C828 C824 1.368 . S
C828 C827 1.523 . S
H829 C804 0.950 1_565 S
H830 C806 0.950 1_565 S
H831 C807 0.949 . S
H832 C809 0.950 . S
H833 C811 0.950 . S
C834 C835 1.349 . S
C834 C836 1.327 . S
C834 H859 0.950 . S
C835 C834 1.349 . S
C835 C851 1.349 . S
C836 C834 1.327 . S
C836 C855 1.429 . S
C836 H860 0.950 . S
C837 C854 1.574 . S
C837 C856 1.368 . S
C837 H861 0.949 . S
H838 C842 0.949 . S
C839 C840 1.349 . S
C839 C841 1.327 . S
C839 H862 0.950 1_455 S
C840 C839 1.349 . S
C840 C852 1.349 . S
C841 C839 1.327 . S
C841 C857 1.429 . S
C841 H863 0.950 1_455 S
C842 H838 0.949 . S
C842 C850 1.574 . S
C842 C858 1.368 . S
H843 C851 0.950 . S
H844 C849 0.950 . S
H845 C850 0.949 . S
H846 C852 0.950 . S
H847 C853 0.950 . S
H848 C854 0.949 . S
C849 H844 0.950 . S
C849 C851 1.327 . S
C849 C855 1.429 . S
C850 C842 1.574 . S
C850 H845 0.949 . S
C850 C856 1.368 . S
C851 C835 1.349 . S
C851 H843 0.950 . S
C851 C849 1.327 . S
C852 C840 1.349 . S
C852 H846 0.950 . S
C852 C853 1.327 . S
C853 H847 0.950 . S
C853 C852 1.327 . S
C853 C857 1.429 . S
C854 C837 1.574 . S
C854 H848 0.949 . S
C854 C858 1.368 . S
C855 C836 1.429 . S
C855 C849 1.429 . S
C855 C856 1.523 . S
C856 C837 1.368 . S
C856 C850 1.368 . S
C856 C855 1.523 . S
C857 C841 1.429 . S
C857 C853 1.429 . S
C857 C858 1.523 . S
C858 C842 1.368 . S
C858 C854 1.368 . S
C858 C857 1.523 . S
H859 C834 0.950 . S
H860 C836 0.950 . S
H861 C837 0.949 . S
H862 C839 0.950 1_655 S
H863 C841 0.950 1_655 S
C265 C28 1.680 . S
C270 C160 1.680 . S
C295 C193 1.680 . S
C300 C61 1.680 . S
C325 C94 1.680 . S
C330 C226 1.680 . S
C355 C259 1.680 . S
C360 C127 1.680 . S
C385 C182 0.812 . S
C390 C17 0.812 . S
C415 C215 0.812 . S
C420 C50 0.812 . S
C445 C83 0.812 . S
C450 C248 0.812 . S
C475 C149 0.812 . S
C480 C116 0.812 . S
C505 C107 1.077 . S
C510 C206 1.077 . S
C535 C8 1.076 . S
C540 C239 1.076 . S
C565 C41 1.077 . S
C570 C140 1.077 . S
C595 C74 1.076 . S
C600 C173 1.076 . S
C625 N14 0.548 . S
C630 N80 0.548 . S
C655 N47 0.548 . S
C660 N113 0.548 . S
C685 N212 0.548 . S
C690 N146 0.548 . S
C715 N245 0.548 . S
C720 N179 0.548 . S
C745 N5 0.950 . S
C750 N71 0.950 . S
C775 N104 0.950 . S
C780 N38 0.950 . S
C805 N137 0.950 . S
C810 N203 0.950 . S
C835 N170 0.950 . S
C840 N236 0.950 . S
